# Generated by pormake.
# Topology gis, (4)-cn, num edge types: 1
# Building blocks:
#     Node 0, Type 0, BuildingBlock: QUQFOY_clean_sbu_3, # of connection points: 4
#     Node 1, Type 0, BuildingBlock: QUQFOY_clean_sbu_3, # of connection points: 4
#     Node 2, Type 0, BuildingBlock: QUQFOY_clean_sbu_3, # of connection points: 4
#     Node 3, Type 0, BuildingBlock: QUQFOY_clean_sbu_3, # of connection points: 4
#     Node 4, Type 0, BuildingBlock: QUQFOY_clean_sbu_3, # of connection points: 4
#     Node 5, Type 0, BuildingBlock: QUQFOY_clean_sbu_3, # of connection points: 4
#     Node 6, Type 0, BuildingBlock: QUQFOY_clean_sbu_3, # of connection points: 4
#     Node 7, Type 0, BuildingBlock: QUQFOY_clean_sbu_3, # of connection points: 4
#     Node 8, Type 0, BuildingBlock: QUQFOY_clean_sbu_3, # of connection points: 4
#     Node 9, Type 0, BuildingBlock: QUQFOY_clean_sbu_3, # of connection points: 4
#     Node 10, Type 0, BuildingBlock: QUQFOY_clean_sbu_3, # of connection points: 4
#     Node 11, Type 0, BuildingBlock: QUQFOY_clean_sbu_3, # of connection points: 4
#     Node 12, Type 0, BuildingBlock: QUQFOY_clean_sbu_3, # of connection points: 4
#     Node 13, Type 0, BuildingBlock: QUQFOY_clean_sbu_3, # of connection points: 4
#     Node 14, Type 0, BuildingBlock: QUQFOY_clean_sbu_3, # of connection points: 4
#     Node 15, Type 0, BuildingBlock: QUQFOY_clean_sbu_3, # of connection points: 4
#     Edge 16, Type (0, 0), BuildingBlock: EZIPEK_clean_linker_0, # of connection points: 2
#     Edge 17, Type (0, 0), BuildingBlock: EZIPEK_clean_linker_0, # of connection points: 2
#     Edge 18, Type (0, 0), BuildingBlock: EZIPEK_clean_linker_0, # of connection points: 2
#     Edge 19, Type (0, 0), BuildingBlock: EZIPEK_clean_linker_0, # of connection points: 2
#     Edge 20, Type (0, 0), BuildingBlock: EZIPEK_clean_linker_0, # of connection points: 2
#     Edge 21, Type (0, 0), BuildingBlock: EZIPEK_clean_linker_0, # of connection points: 2
#     Edge 22, Type (0, 0), BuildingBlock: EZIPEK_clean_linker_0, # of connection points: 2
#     Edge 23, Type (0, 0), BuildingBlock: EZIPEK_clean_linker_0, # of connection points: 2
#     Edge 24, Type (0, 0), BuildingBlock: EZIPEK_clean_linker_0, # of connection points: 2
#     Edge 25, Type (0, 0), BuildingBlock: EZIPEK_clean_linker_0, # of connection points: 2
#     Edge 26, Type (0, 0), BuildingBlock: EZIPEK_clean_linker_0, # of connection points: 2
#     Edge 27, Type (0, 0), BuildingBlock: EZIPEK_clean_linker_0, # of connection points: 2
#     Edge 28, Type (0, 0), BuildingBlock: EZIPEK_clean_linker_0, # of connection points: 2
#     Edge 29, Type (0, 0), BuildingBlock: EZIPEK_clean_linker_0, # of connection points: 2
#     Edge 30, Type (0, 0), BuildingBlock: EZIPEK_clean_linker_0, # of connection points: 2
#     Edge 31, Type (0, 0), BuildingBlock: EZIPEK_clean_linker_0, # of connection points: 2
#     Edge 32, Type (0, 0), BuildingBlock: EZIPEK_clean_linker_0, # of connection points: 2
#     Edge 33, Type (0, 0), BuildingBlock: EZIPEK_clean_linker_0, # of connection points: 2
#     Edge 34, Type (0, 0), BuildingBlock: EZIPEK_clean_linker_0, # of connection points: 2
#     Edge 35, Type (0, 0), BuildingBlock: EZIPEK_clean_linker_0, # of connection points: 2
#     Edge 36, Type (0, 0), BuildingBlock: EZIPEK_clean_linker_0, # of connection points: 2
#     Edge 37, Type (0, 0), BuildingBlock: EZIPEK_clean_linker_0, # of connection points: 2
#     Edge 38, Type (0, 0), BuildingBlock: EZIPEK_clean_linker_0, # of connection points: 2
#     Edge 39, Type (0, 0), BuildingBlock: EZIPEK_clean_linker_0, # of connection points: 2
#     Edge 40, Type (0, 0), BuildingBlock: EZIPEK_clean_linker_0, # of connection points: 2
#     Edge 41, Type (0, 0), BuildingBlock: EZIPEK_clean_linker_0, # of connection points: 2
#     Edge 42, Type (0, 0), BuildingBlock: EZIPEK_clean_linker_0, # of connection points: 2
#     Edge 43, Type (0, 0), BuildingBlock: EZIPEK_clean_linker_0, # of connection points: 2
#     Edge 44, Type (0, 0), BuildingBlock: EZIPEK_clean_linker_0, # of connection points: 2
#     Edge 45, Type (0, 0), BuildingBlock: EZIPEK_clean_linker_0, # of connection points: 2
#     Edge 46, Type (0, 0), BuildingBlock: EZIPEK_clean_linker_0, # of connection points: 2
#     Edge 47, Type (0, 0), BuildingBlock: EZIPEK_clean_linker_0, # of connection points: 2
# Relax obj value: 0.062
# Max RMSD: 0.132
# Mean RMSD: 0.125
data_MOF--net-gis--node1-QUQFOY_clean_sbu_3--edge1-EZIPEK_clean_linker_0
_symmetry_space_group_name_H-M    P1
_symmetry_Int_Tables_number       1
_symmetry_cell_setting            triclinic
loop_
_symmetry_equiv_pos_as_xyz
'x, y, z'
_cell_length_a     39.718093
_cell_length_b     42.172427
_cell_length_c     27.875314
_cell_angle_alpha  90.799691
_cell_angle_beta   90.749746
_cell_angle_gamma 90.015078
loop_
_atom_site_label
_atom_site_type_symbol
_atom_site_fract_x
_atom_site_fract_y
_atom_site_fract_z
_atom_type_partial_charge
C0 C 0.15439 0.60583 0.18582 0.0
O1 O 0.12787 0.61975 0.2003 0.0
Cd2 Cd 0.07727 0.62827 0.15228 0.0
O3 O 0.1562 0.59354 0.14403 0.0
Cd4 Cd 0.12555 0.5851 0.06884 0.0
C5 C 0.11803 0.66524 0.05831 0.0
O6 O 0.07219 0.58212 0.10509 0.0
O7 O 0.07134 0.57133 0.02988 0.0
O8 O 0.14602 0.53191 0.05601 0.0
C9 C 0.0547 0.57762 0.06733 0.0
O10 O 0.09875 0.66544 0.0945 0.0
C11 C 0.16307 0.53854 0.01916 0.0
O12 O 0.13132 0.63986 0.04193 0.0
O13 O 0.16377 0.56742 0.00699 0.0
C14 C 0.67846 0.85533 0.28634 0.0
O15 O 0.6572 0.84174 0.25862 0.0
Cd16 Cd 0.60174 0.82794 0.28402 0.0
O17 O 0.67045 0.86473 0.32809 0.0
Cd18 Cd 0.62019 0.86699 0.37741 0.0
C19 C 0.62508 0.78927 0.38769 0.0
O20 O 0.57267 0.87145 0.32008 0.0
O21 O 0.56242 0.85489 0.39177 0.0
O22 O 0.62926 0.92297 0.39086 0.0
C23 C 0.55126 0.86373 0.35136 0.0
O24 O 0.61248 0.78894 0.34549 0.0
C25 C 0.63018 0.92107 0.43623 0.0
O26 O 0.63326 0.81501 0.40912 0.0
O27 O 0.62727 0.8938 0.45451 0.0
C28 C 0.28422 0.35579 0.68039 0.0
O29 O 0.30762 0.34578 0.7077 0.0
Cd30 Cd 0.36403 0.33633 0.68183 0.0
O31 O 0.28971 0.3633 0.63723 0.0
Cd32 Cd 0.33643 0.36615 0.5815 0.0
C33 C 0.34126 0.28713 0.58705 0.0
O34 O 0.38128 0.38143 0.63755 0.0
O35 O 0.39653 0.36689 0.56653 0.0
O36 O 0.31519 0.41624 0.55318 0.0
C37 C 0.40482 0.37719 0.60791 0.0
O38 O 0.35509 0.29097 0.62817 0.0
C39 C 0.31233 0.40734 0.50956 0.0
O40 O 0.33086 0.3104 0.56252 0.0
O41 O 0.3213 0.37915 0.49978 0.0
C42 C 0.81447 0.1012 0.79426 0.0
O43 O 0.84188 0.11058 0.77624 0.0
Cd44 Cd 0.89118 0.11977 0.82583 0.0
O45 O 0.8126 0.094 0.83825 0.0
Cd46 Cd 0.84412 0.08863 0.91341 0.0
C47 C 0.85165 0.168 0.91068 0.0
O48 O 0.89639 0.07499 0.87631 0.0
O49 O 0.89929 0.08208 0.95297 0.0
O50 O 0.81323 0.03975 0.91986 0.0
C51 C 0.91449 0.07647 0.91401 0.0
O52 O 0.87147 0.16401 0.87553 0.0
C53 C 0.80165 0.04557 0.96133 0.0
O54 O 0.83721 0.14486 0.93083 0.0
O55 O 0.8118 0.07106 0.98163 0.0
C56 C 0.1542 0.35673 0.76523 0.0
O57 O 0.12608 0.34654 0.7493 0.0
Cd58 Cd 0.08038 0.34033 0.80384 0.0
O59 O 0.15791 0.36622 0.80839 0.0
Cd60 Cd 0.12942 0.37609 0.88375 0.0
C61 C 0.12517 0.29721 0.88897 0.0
O62 O 0.0755 0.38877 0.84861 0.0
O63 O 0.07558 0.38058 0.92497 0.0
O64 O 0.15751 0.42633 0.88101 0.0
C65 C 0.05921 0.38781 0.8873 0.0
O66 O 0.10306 0.29896 0.85559 0.0
C67 C 0.17001 0.42575 0.92311 0.0
O68 O 0.14009 0.32168 0.90592 0.0
O69 O 0.1625 0.40178 0.94801 0.0
C70 C 0.81085 0.86505 0.2097 0.0
O71 O 0.83865 0.85457 0.22604 0.0
Cd72 Cd 0.88659 0.8489 0.17477 0.0
O73 O 0.80824 0.87592 0.16754 0.0
Cd74 Cd 0.83804 0.8883 0.09437 0.0
C75 C 0.84257 0.80901 0.08302 0.0
O76 O 0.89116 0.89725 0.13293 0.0
O77 O 0.89263 0.89577 0.05559 0.0
O78 O 0.80964 0.9388 0.0981 0.0
C79 C 0.90857 0.89793 0.09525 0.0
O80 O 0.86367 0.80963 0.11787 0.0
C81 C 0.79697 0.93705 0.05607 0.0
O82 O 0.82852 0.83404 0.06742 0.0
O83 O 0.80507 0.91283 0.03111 0.0
C84 C 0.2856 0.60409 0.27434 0.0
O85 O 0.30891 0.618 0.25216 0.0
Cd86 Cd 0.36369 0.62413 0.28843 0.0
O87 O 0.29153 0.59022 0.31365 0.0
Cd88 Cd 0.33934 0.57739 0.36586 0.0
C89 C 0.33825 0.65238 0.39924 0.0
O90 O 0.38765 0.57455 0.31185 0.0
O91 O 0.39807 0.5816 0.38785 0.0
O92 O 0.32069 0.52313 0.35864 0.0
C93 C 0.40905 0.57623 0.34607 0.0
O94 O 0.35254 0.65663 0.35923 0.0
C95 C 0.32012 0.51866 0.40353 0.0
O96 O 0.3282 0.62516 0.4118 0.0
O97 O 0.32776 0.54189 0.4311 0.0
C98 C 0.68196 0.09957 0.71078 0.0
O99 O 0.65975 0.11223 0.73708 0.0
Cd100 Cd 0.60356 0.1223 0.70898 0.0
O101 O 0.67476 0.0894 0.66882 0.0
Cd102 Cd 0.62401 0.08527 0.61813 0.0
C103 C 0.62428 0.16302 0.60752 0.0
O104 O 0.57666 0.07696 0.67314 0.0
O105 O 0.56566 0.0956 0.60251 0.0
O106 O 0.63511 0.02984 0.60164 0.0
C107 C 0.55498 0.08405 0.64112 0.0
O108 O 0.61104 0.16266 0.64883 0.0
C109 C 0.63431 0.03284 0.55644 0.0
O110 O 0.63437 0.13775 0.58692 0.0
O111 O 0.63017 0.06047 0.53984 0.0
C112 C 0.80499 0.35608 0.785 0.0
O113 O 0.83108 0.34555 0.76434 0.0
Cd114 Cd 0.88313 0.33968 0.80884 0.0
O115 O 0.80619 0.36641 0.82792 0.0
Cd116 Cd 0.84411 0.37695 0.89499 0.0
C117 C 0.84928 0.29845 0.90385 0.0
O118 O 0.89553 0.38757 0.85211 0.0
O119 O 0.90032 0.38009 0.92876 0.0
O120 O 0.8207 0.42936 0.89492 0.0
C121 C 0.91426 0.38631 0.88933 0.0
O122 O 0.8672 0.29978 0.86639 0.0
C123 C 0.812 0.42953 0.93856 0.0
O124 O 0.83588 0.32306 0.9224 0.0
O125 O 0.81823 0.40457 0.96212 0.0
C126 C 0.34529 0.03649 0.50782 0.0
O127 O 0.35808 0.05658 0.47991 0.0
Cd128 Cd 0.37103 0.10946 0.50628 0.0
O129 O 0.33597 0.04427 0.54973 0.0
Cd130 Cd 0.33213 0.0911 0.60115 0.0
C131 C 0.41585 0.08929 0.6086 0.0
O132 O 0.32331 0.13339 0.54312 0.0
O133 O 0.34169 0.14654 0.61426 0.0
O134 O 0.27375 0.07902 0.61845 0.0
C135 C 0.33062 0.15501 0.57362 0.0
O136 O 0.41497 0.1011 0.56681 0.0
C137 C 0.27792 0.0808 0.66363 0.0
O138 O 0.38915 0.0812 0.63001 0.0
O139 O 0.30754 0.08583 0.6797 0.0
C140 C 0.67501 0.59647 0.27996 0.0
O141 O 0.65166 0.60971 0.2561 0.0
Cd142 Cd 0.59671 0.62056 0.28612 0.0
O143 O 0.67013 0.58616 0.32191 0.0
Cd144 Cd 0.62229 0.58302 0.37666 0.0
C145 C 0.62246 0.66149 0.388 0.0
O146 O 0.57475 0.57384 0.32096 0.0
O147 O 0.56296 0.58867 0.3934 0.0
O148 O 0.63615 0.52842 0.39298 0.0
C149 C 0.55269 0.57872 0.3527 0.0
O150 O 0.60764 0.66095 0.34725 0.0
C151 C 0.63691 0.53245 0.43816 0.0
O152 O 0.63282 0.63624 0.40768 0.0
O153 O 0.63251 0.56033 0.45465 0.0
C154 C 0.15717 0.84349 0.20955 0.0
O155 O 0.1304 0.82973 0.22227 0.0
Cd156 Cd 0.08223 0.82571 0.17019 0.0
O157 O 0.15905 0.85713 0.1693 0.0
Cd158 Cd 0.12253 0.8681 0.0998 0.0
C159 C 0.1207 0.7918 0.07142 0.0
O160 O 0.06926 0.87715 0.14064 0.0
O161 O 0.06643 0.86829 0.06402 0.0
O162 O 0.1422 0.92196 0.10576 0.0
C163 C 0.05186 0.87688 0.1022 0.0
O164 O 0.1003 0.79019 0.10613 0.0
C165 C 0.14801 0.92459 0.06141 0.0
O166 O 0.13519 0.81765 0.06107 0.0
O167 O 0.14386 0.90017 0.03483 0.0
C168 C 0.81693 0.55801 -0.0064 0.0
O169 O 0.82808 0.57589 0.9612 0.0
Cd170 Cd 0.84754 0.62914 0.9805 0.0
O171 O 0.81533 0.56775 0.03665 0.0
Cd172 Cd 0.83109 0.61342 0.08416 0.0
C173 C 0.91147 0.60524 0.05257 0.0
O174 O 0.81197 0.65766 0.03447 0.0
O175 O 0.84714 0.66792 0.09309 0.0
O176 O 0.77865 0.6036 0.12187 0.0
C177 C 0.82726 0.67801 0.06078 0.0
O178 O 0.90275 0.62272 0.01766 0.0
C179 C 0.79036 0.60303 0.16435 0.0
O180 O 0.88938 0.59445 0.08074 0.0
O181 O 0.8219 0.60696 0.17041 0.0
C182 C 0.15003 0.05211 -0.00719 0.0
O183 O 0.1436 0.07433 0.0224 0.0
Cd184 Cd 0.12163 0.12395 -0.00416 0.0
O185 O 0.14822 0.05645 0.94786 0.0
Cd186 Cd 0.13894 0.0996 0.89151 0.0
C187 C 0.05801 0.09512 0.92088 0.0
O188 O 0.15739 0.14665 0.93736 0.0
O189 O 0.12393 0.1537 0.87633 0.0
O190 O 0.1915 0.08788 0.85235 0.0
C191 C 0.14271 0.1656 0.90895 0.0
O192 O 0.06724 0.10947 0.95939 0.0
C193 C 0.17855 0.0851 0.81066 0.0
O194 O 0.0792 0.087 0.88913 0.0
O195 O 0.14679 0.08779 0.80653 0.0
C196 C 0.66975 0.35465 0.71004 0.0
O197 O 0.64625 0.34367 0.73531 0.0
Cd198 Cd 0.59135 0.33412 0.70108 0.0
O199 O 0.66424 0.36376 0.66748 0.0
Cd200 Cd 0.617 0.36934 0.61165 0.0
C201 C 0.61803 0.29143 0.60208 0.0
O202 O 0.56823 0.37982 0.66287 0.0
O203 O 0.55875 0.36157 0.59082 0.0
O204 O 0.63314 0.42379 0.60125 0.0
C205 C 0.5473 0.37355 0.6292 0.0
O206 O 0.60286 0.29273 0.642 0.0
C207 C 0.63355 0.42192 0.55581 0.0
O208 O 0.62863 0.31628 0.58185 0.0
O209 O 0.62775 0.39508 0.53615 0.0
C210 C 0.34591 0.90212 0.47371 0.0
O211 O 0.36008 0.88458 0.50453 0.0
Cd212 Cd 0.37367 0.83073 0.48579 0.0
O213 O 0.33552 0.89096 0.4337 0.0
Cd214 Cd 0.33188 0.83961 0.39298 0.0
C215 C 0.41437 0.84548 0.3801 0.0
O216 O 0.32499 0.80189 0.45867 0.0
O217 O 0.34418 0.7842 0.39083 0.0
O218 O 0.27291 0.84957 0.37606 0.0
C219 C 0.33238 0.77846 0.43179 0.0
O220 O 0.4157 0.83631 0.4234 0.0
C221 C 0.27508 0.84349 0.33151 0.0
O222 O 0.38643 0.85056 0.35884 0.0
O223 O 0.30382 0.83633 0.31518 0.0
C224 C 0.15752 0.74524 0.05745 0.0
C225 C 0.12802 0.76219 0.04499 0.0
C226 C 0.10147 0.71349 0.01496 0.0
C227 C 0.12705 0.69623 0.03863 0.0
N228 N 0.18185 0.69396 0.07619 0.0
N229 N 0.07479 0.76482 0.00357 0.0
C230 C 0.15646 0.71158 0.0565 0.0
C231 C 0.10121 0.74703 0.01983 0.0
N232 N 0.18571 0.76142 0.07207 0.0
N233 N 0.07701 0.69739 0.98979 0.0
H234 H 0.07515 0.78958 0.00551 0.0
H235 H 0.05271 0.75541 0.9888 0.0
H236 H 0.07743 0.6727 0.98628 0.0
H237 H 0.05802 0.7082 0.96986 0.0
H238 H 0.20882 0.75073 0.07913 0.0
H239 H 0.18665 0.78613 0.07321 0.0
H240 H 0.20224 0.70352 0.09522 0.0
H241 H 0.182 0.66924 0.0744 0.0
C242 C 0.45925 0.88234 0.35263 0.0
C243 C 0.44635 0.85105 0.35544 0.0
C244 C 0.50158 0.82876 0.33777 0.0
C245 C 0.51517 0.85984 0.33999 0.0
N246 N 0.5072 0.91621 0.33586 0.0
N247 N 0.45159 0.79545 0.33732 0.0
C248 C 0.49391 0.88671 0.34229 0.0
C249 C 0.46641 0.82453 0.34323 0.0
N250 N 0.43886 0.90758 0.36292 0.0
N251 N 0.5227 0.80338 0.33271 0.0
H252 H 0.4257 0.79212 0.34093 0.0
H253 H 0.46413 0.77529 0.32518 0.0
H254 H 0.54825 0.80606 0.32566 0.0
H255 H 0.51534 0.77989 0.33662 0.0
H256 H 0.44738 0.93079 0.36713 0.0
H257 H 0.41314 0.90512 0.36896 0.0
H258 H 0.49291 0.93682 0.33374 0.0
H259 H 0.53265 0.91973 0.32875 0.0
C260 C 0.36592 0.23685 0.55717 0.0
C261 C 0.33684 0.25461 0.56849 0.0
C262 C 0.30213 0.20679 0.56231 0.0
C263 C 0.33202 0.18862 0.56073 0.0
N264 N 0.39227 0.18506 0.55333 0.0
N265 N 0.27686 0.25789 0.58029 0.0
C266 C 0.36391 0.20331 0.55628 0.0
C267 C 0.30461 0.24013 0.56941 0.0
N268 N 0.39527 0.25226 0.54732 0.0
N269 N 0.27159 0.19199 0.55817 0.0
H270 H 0.27764 0.28248 0.58448 0.0
H271 H 0.25335 0.24827 0.58742 0.0
H272 H 0.2693 0.16748 0.55366 0.0
H273 H 0.24878 0.20399 0.55514 0.0
H274 H 0.41689 0.24093 0.53519 0.0
H275 H 0.39702 0.27696 0.54722 0.0
H276 H 0.41664 0.19405 0.5561 0.0
H277 H 0.39132 0.16044 0.54981 0.0
C278 C 0.00819 0.05884 0.90726 0.0
C279 C 0.02159 0.08998 0.91218 0.0
C280 C 0.96478 0.11215 0.91651 0.0
C281 C 0.95127 0.0811 0.91115 0.0
N282 N 0.95902 0.02575 0.8919 0.0
N283 N 0.01319 0.14645 0.90781 0.0
C284 C 0.97267 0.0547 0.90325 0.0
C285 C -0.0 0.11671 0.91277 0.0
N286 N 0.02921 0.0332 0.90878 0.0
N287 N 0.94402 0.13729 0.92579 0.0
H288 H 0.03885 0.15055 0.90329 0.0
H289 H -0.00141 0.16671 0.90316 0.0
H290 H 0.9179 0.13536 0.92624 0.0
H291 H 0.9527 0.1597 0.93608 0.0
H292 H 0.02083 0.00992 0.91143 0.0
H293 H 0.05534 0.03521 0.91034 0.0
H294 H 0.97317 0.0063 0.8807 0.0
H295 H 0.93311 0.02174 0.89025 0.0
C296 C 0.10997 0.24828 0.93205 0.0
C297 C 0.13425 0.26556 0.90646 0.0
C298 C 0.16975 0.21831 0.89982 0.0
C299 C 0.14274 0.20011 0.91731 0.0
N300 N 0.08791 0.19669 0.95282 0.0
N301 N 0.18742 0.26814 0.86577 0.0
C302 C 0.11323 0.21487 0.93498 0.0
C303 C 0.16463 0.25109 0.89124 0.0
N304 N 0.08397 0.26403 0.95347 0.0
N305 N 0.19991 0.20402 0.89063 0.0
H306 H 0.18483 0.29235 0.85957 0.0
H307 H 0.20799 0.25811 0.8485 0.0
H308 H 0.20401 0.17988 0.89596 0.0
H309 H 0.2216 0.21636 0.88173 0.0
H310 H 0.06673 0.25335 0.97593 0.0
H311 H 0.08134 0.28863 0.95199 0.0
H312 H 0.06405 0.2053 0.96079 0.0
H313 H 0.09047 0.17237 0.95807 0.0
C314 C 0.95835 0.86221 0.08557 0.0
C315 C 0.94526 0.89261 0.09772 0.0
C316 C 0.00229 0.91274 0.11334 0.0
C317 C 0.01519 0.88209 0.10277 0.0
N318 N 0.00597 0.82626 0.08831 0.0
N319 N 0.95341 0.94549 0.12973 0.0
C320 C -0.00664 0.85643 0.09132 0.0
C321 C 0.96685 0.91747 0.11376 0.0
N322 N 0.93731 0.83882 0.0686 0.0
N323 N 0.02398 0.93756 0.12106 0.0
H324 H 0.92765 0.95031 0.12849 0.0
H325 H 0.96739 0.96323 0.147 0.0
H326 H 0.05007 0.93486 0.12231 0.0
H327 H 0.0164 0.96115 0.12317 0.0
H328 H 0.9457 0.81768 0.0532 0.0
H329 H 0.91122 0.84108 0.06738 0.0
H330 H -0.00894 0.80603 0.08525 0.0
H331 H 0.03144 0.82101 0.09317 0.0
C332 C 0.30093 0.69622 0.42625 0.0
C333 C 0.33234 0.68044 0.42973 0.0
C334 C 0.36001 0.72893 0.45785 0.0
C335 C 0.32989 0.74549 0.44745 0.0
N336 N 0.26981 0.74541 0.43764 0.0
N337 N 0.38837 0.6779 0.46255 0.0
C338 C 0.2995 0.72908 0.43775 0.0
C339 C 0.3607 0.69556 0.4509 0.0
N340 N 0.27343 0.68032 0.40836 0.0
N341 N 0.38819 0.74556 0.47126 0.0
H342 H 0.3888 0.65331 0.45747 0.0
H343 H 0.40957 0.6869 0.4803 0.0
H344 H 0.38751 0.76993 0.47827 0.0
H345 H 0.41206 0.73563 0.47469 0.0
H346 H 0.25066 0.69112 0.39959 0.0
H347 H 0.27376 0.65599 0.40104 0.0
H348 H 0.24628 0.7348 0.43347 0.0
H349 H 0.26877 0.76962 0.44576 0.0
C350 C 0.50119 0.11247 0.65591 0.0
C351 C 0.51849 0.08333 0.64972 0.0
C352 C 0.46574 0.05598 0.62986 0.0
C353 C 0.44896 0.08562 0.63222 0.0
N354 N 0.44746 0.13993 0.65942 0.0
N355 N 0.51756 0.02644 0.64322 0.0
C356 C 0.4657 0.11318 0.64954 0.0
C357 C 0.50071 0.05466 0.64131 0.0
N358 N 0.51906 0.13957 0.66564 0.0
N359 N 0.44863 0.02965 0.61391 0.0
H360 H 0.54328 0.02513 0.65108 0.0
H361 H 0.50589 0.00438 0.64085 0.0
H362 H 0.42275 0.02977 0.60694 0.0
H363 H 0.46 0.00804 0.60586 0.0
H364 H 0.5088 0.16225 0.66485 0.0
H365 H 0.54487 0.13936 0.67314 0.0
H366 H 0.45753 0.16029 0.6755 0.0
H367 H 0.42133 0.14081 0.65501 0.0
C368 C 0.86896 0.21798 0.9518 0.0
C369 C 0.84408 0.20075 0.9257 0.0
C370 C 0.81446 0.24985 0.90666 0.0
C371 C 0.843 0.26691 0.92363 0.0
N372 N 0.89559 0.26909 0.96712 0.0
N373 N 0.79149 0.19874 0.8818 0.0
C374 C 0.86941 0.25154 0.9487 0.0
C375 C 0.81576 0.21621 0.90528 0.0
N376 N 0.89219 0.20198 0.97873 0.0
N377 N 0.7868 0.266 0.89056 0.0
H378 H 0.7913 0.174 0.88167 0.0
H379 H 0.77221 0.20849 0.86112 0.0
H380 H 0.78566 0.29072 0.89089 0.0
H381 H 0.76416 0.25523 0.88055 0.0
H382 H 0.91005 0.21293 0.001 0.0
H383 H 0.89166 0.17733 0.98169 0.0
H384 H 0.91763 0.2594 0.98117 0.0
H385 H 0.89538 0.29385 0.96722 0.0
C386 C 0.59881 0.70974 0.42621 0.0
C387 C 0.62759 0.6926 0.41146 0.0
C388 C 0.65969 0.74155 0.40387 0.0
C389 C 0.62948 0.75859 0.41122 0.0
N390 N 0.57388 0.76132 0.44353 0.0
N391 N 0.68758 0.69021 0.40185 0.0
C392 C 0.6003 0.74335 0.42795 0.0
C393 C 0.659 0.70794 0.40627 0.0
N394 N 0.56978 0.6937 0.43553 0.0
N395 N 0.68809 0.75753 0.39124 0.0
H396 H 0.68728 0.66552 0.40368 0.0
H397 H 0.7117 0.69973 0.40024 0.0
H398 H 0.68914 0.78226 0.39108 0.0
H399 H 0.71018 0.74661 0.38007 0.0
H400 H 0.5467 0.70449 0.44192 0.0
H401 H 0.56893 0.66895 0.43625 0.0
H402 H 0.55209 0.75207 0.45818 0.0
H403 H 0.57504 0.78606 0.44481 0.0
C404 C 0.8529 0.72756 0.03052 0.0
C405 C 0.8252 0.71222 0.05179 0.0
C406 C 0.80336 0.76286 0.08126 0.0
C407 C 0.83254 0.77783 0.06342 0.0
N408 N 0.87963 0.77741 0.01026 0.0
N409 N 0.76978 0.71479 0.0853 0.0
C410 C 0.85548 0.76107 0.03416 0.0
C411 C 0.79877 0.72985 0.07273 0.0
N412 N 0.87731 0.70985 0.00876 0.0
N413 N 0.78135 0.77981 0.10888 0.0
H414 H 0.76617 0.69049 0.07982 0.0
H415 H 0.74838 0.72651 0.09735 0.0
H416 H 0.78348 0.80424 0.11453 0.0
H417 H 0.76181 0.76967 0.12787 0.0
H418 H 0.90014 0.71899 -0.00262 0.0
H419 H 0.87501 0.68541 0.00336 0.0
H420 H 0.89593 0.76709 0.98565 0.0
H421 H 0.88135 0.8021 0.01208 0.0
C422 C 0.65585 0.24495 0.59202 0.0
C423 C 0.62469 0.25984 0.58145 0.0
C424 C 0.59772 0.20863 0.56678 0.0
C425 C 0.62738 0.19387 0.58412 0.0
N426 N 0.68706 0.19552 0.59882 0.0
N427 N 0.56976 0.2578 0.54486 0.0
C428 C 0.65749 0.21131 0.59118 0.0
C429 C 0.59695 0.24216 0.56349 0.0
N430 N 0.68286 0.263 0.60629 0.0
N431 N 0.56995 0.19051 0.55642 0.0
H432 H 0.56928 0.28249 0.54232 0.0
H433 H 0.54905 0.24663 0.52885 0.0
H434 H 0.57071 0.16576 0.55683 0.0
H435 H 0.54628 0.19968 0.54829 0.0
H436 H 0.70529 0.2538 0.61981 0.0
H437 H 0.68245 0.28772 0.6056 0.0
H438 H 0.71047 0.2065 0.60172 0.0
H439 H 0.68838 0.1708 0.59855 0.0
C440 C 0.00411 0.41604 0.87928 0.0
C441 C 0.02211 0.38742 0.88642 0.0
C442 C 0.96935 0.35798 0.89421 0.0
C443 C 0.95127 0.38647 0.88585 0.0
N444 N 0.95031 0.44156 0.86388 0.0
N445 N 0.02285 0.3304 0.89218 0.0
C446 C 0.96834 0.41519 0.87614 0.0
C447 C 0.00501 0.35816 0.8917 0.0
N448 N 0.02126 0.44413 0.87746 0.0
N449 N 0.95236 0.33074 0.90463 0.0
H450 H 0.04903 0.32953 0.89064 0.0
H451 H 0.01188 0.308 0.89044 0.0
H452 H 0.92623 0.32875 0.90243 0.0
H453 H 0.96393 0.31038 0.91759 0.0
H454 H 0.00971 0.46628 0.87755 0.0
H455 H 0.04748 0.44552 0.87911 0.0
H456 H 0.96113 0.46227 0.85131 0.0
H457 H 0.92406 0.44218 0.86331 0.0
C458 C 0.4981 0.60736 0.34303 0.0
C459 C 0.51632 0.57842 0.34097 0.0
C460 C 0.46373 0.54822 0.33318 0.0
C461 C 0.44558 0.57704 0.33745 0.0
N462 N 0.44408 0.63409 0.33677 0.0
N463 N 0.51796 0.52214 0.32483 0.0
C464 C 0.46241 0.60668 0.33926 0.0
C465 C 0.49956 0.54909 0.33262 0.0
N466 N 0.51506 0.63538 0.3495 0.0
N467 N 0.44665 0.52004 0.3322 0.0
H468 H 0.5442 0.52177 0.326 0.0
H469 H 0.50754 0.50051 0.31408 0.0
H470 H 0.42042 0.51871 0.33094 0.0
H471 H 0.45812 0.49794 0.33476 0.0
H472 H 0.50357 0.65693 0.35756 0.0
H473 H 0.54123 0.63706 0.34813 0.0
H474 H 0.45453 0.65656 0.33366 0.0
H475 H 0.41787 0.63428 0.33438 0.0
C476 C 0.49235 0.3462 0.63577 0.0
C477 C 0.51063 0.37501 0.6362 0.0
C478 C 0.45802 0.40526 0.63237 0.0
C479 C 0.4404 0.37645 0.62377 0.0
N480 N 0.43948 0.31927 0.61941 0.0
N481 N 0.51216 0.43208 0.6366 0.0
C482 C 0.45716 0.3468 0.6266 0.0
C483 C 0.4938 0.40466 0.63599 0.0
N484 N 0.50879 0.31839 0.645 0.0
N485 N 0.44054 0.43307 0.63652 0.0
H486 H 0.53826 0.43239 0.64127 0.0
H487 H 0.50194 0.45442 0.63057 0.0
H488 H 0.41439 0.43429 0.63271 0.0
H489 H 0.45143 0.45451 0.6471 0.0
H490 H 0.49677 0.29675 0.64941 0.0
H491 H 0.53459 0.31747 0.65259 0.0
H492 H 0.45061 0.29713 0.61471 0.0
H493 H 0.41332 0.31867 0.6162 0.0
C494 C 0.00289 0.59457 0.02128 0.0
C495 C 0.01782 0.58418 0.06491 0.0
C496 C 0.96321 0.59164 0.1035 0.0
C497 C 0.94761 0.59624 0.05786 0.0
N498 N 0.95336 0.58899 0.97176 0.0
N499 N 0.00818 0.56446 0.14501 0.0
C500 C 0.9676 0.59356 0.01617 0.0
C501 C -0.00313 0.58014 0.10544 0.0
N502 N 0.02164 0.60736 0.98565 0.0
N503 N 0.94706 0.59952 0.14492 0.0
H504 H 0.0315 0.55323 0.14674 0.0
H505 H -0.00745 0.55918 0.1736 0.0
H506 H 0.92362 0.61053 0.14559 0.0
H507 H 0.95895 0.59869 0.17846 0.0
H508 H 0.0106 0.61657 0.95465 0.0
H509 H 0.04695 0.61334 0.99001 0.0
H510 H 0.96785 0.58527 0.94123 0.0
H511 H 0.92775 0.58446 0.96652 0.0
C512 C 0.19318 0.4867 0.01715 0.0
C513 C 0.17993 0.51288 -0.00857 0.0
C514 C 0.18677 0.48242 0.91718 0.0
C515 C 0.18681 0.45444 0.94427 0.0
N516 N 0.204 0.42991 0.01796 0.0
N517 N 0.16732 0.53622 0.91349 0.0
C518 C 0.1949 0.45653 -0.00621 0.0
C519 C 0.17862 0.51142 0.94028 0.0
N520 N 0.20433 0.49108 0.06334 0.0
N521 N 0.19462 0.48111 0.8697 0.0
H522 H 0.16175 0.5586 0.92708 0.0
H523 H 0.16187 0.53394 0.87691 0.0
H524 H 0.20278 0.46008 0.85335 0.0
H525 H 0.19729 0.50126 0.84884 0.0
H526 H 0.21583 0.47353 0.08364 0.0
H527 H 0.20482 0.51347 0.07983 0.0
H528 H 0.20615 0.4288 0.05514 0.0
H529 H 0.21011 0.40887 -4e-05 0.0
C530 C 0.73316 0.83009 0.26578 0.0
C531 C 0.71375 0.85806 0.27152 0.0
C532 C 0.76224 0.89046 0.25019 0.0
C533 C 0.77986 0.8624 0.23766 0.0
N534 N 0.78121 0.80534 0.22833 0.0
N535 N 0.70829 0.9149 0.2667 0.0
C536 C 0.76531 0.8321 0.24456 0.0
C537 C 0.72795 0.88835 0.26357 0.0
N538 N 0.72119 0.80174 0.28165 0.0
N539 N 0.77854 0.91901 0.24971 0.0
H540 H 0.68305 0.91424 0.27654 0.0
H541 H 0.71615 0.93727 0.25619 0.0
H542 H 0.8038 0.92111 0.24036 0.0
H543 H 0.76816 0.94007 0.26264 0.0
H544 H 0.73574 0.78122 0.28316 0.0
H545 H 0.69771 0.79932 0.29753 0.0
H546 H 0.76981 0.78309 0.22692 0.0
H547 H 0.80495 0.80555 0.21284 0.0
C548 C 0.32104 0.43055 0.42849 0.0
C549 C 0.30304 0.4305 0.47193 0.0
C550 C 0.2857 0.48531 0.45772 0.0
C551 C 0.31145 0.4875 0.42311 0.0
N552 N 0.35563 0.46209 0.37726 0.0
N553 N 0.2613 0.45493 0.52204 0.0
C554 C 0.3293 0.46001 0.40818 0.0
C555 C 0.28286 0.45701 0.48444 0.0
N556 N 0.32963 0.40278 0.40612 0.0
N557 N 0.26376 0.50994 0.4641 0.0
H558 H 0.25609 0.43334 0.53828 0.0
H559 H 0.24894 0.47427 0.53727 0.0
H560 H 0.26474 0.53054 0.44386 0.0
H561 H 0.24291 0.50904 0.48623 0.0
H562 H 0.34106 0.40195 0.37267 0.0
H563 H 0.32061 0.38088 0.41702 0.0
H564 H 0.37147 0.44302 0.3697 0.0
H565 H 0.36383 0.48334 0.36279 0.0
C566 C 0.73503 0.1286 0.73065 0.0
C567 C 0.71731 0.09944 0.72732 0.0
C568 C 0.76721 0.07099 0.75587 0.0
C569 C 0.78318 0.10053 0.76536 0.0
N570 N 0.78153 0.15779 0.76677 0.0
N571 N 0.71498 0.04294 0.73874 0.0
C572 C 0.76708 0.12947 0.75362 0.0
C573 C 0.73307 0.07053 0.73999 0.0
N574 N 0.72148 0.15533 0.71091 0.0
N575 N 0.78496 0.04349 0.76154 0.0
H576 H 0.69002 0.04172 0.72671 0.0
H577 H 0.7238 0.02165 0.75257 0.0
H578 H 0.8101 0.04322 0.77293 0.0
H579 H 0.77592 0.02125 0.75111 0.0
H580 H 0.73474 0.17648 0.70763 0.0
H581 H 0.69796 0.15563 0.69381 0.0
H582 H 0.76904 0.17945 0.76467 0.0
H583 H 0.80524 0.15959 0.7831 0.0
C584 C 0.81528 0.46878 0.00581 0.0
C585 C 0.80058 0.45958 0.96145 0.0
C586 C 0.78677 0.51526 0.94597 0.0
C587 C 0.80963 0.52426 0.98328 0.0
N588 N 0.85002 0.50836 0.04459 0.0
N589 N 0.76618 0.473 0.89308 0.0
C590 C 0.82479 0.50075 0.01261 0.0
C591 C 0.78405 0.4826 0.93287 0.0
N592 N 0.82006 0.44731 0.04141 0.0
N593 N 0.76734 0.53769 0.92407 0.0
H594 H 0.76112 0.44909 0.88587 0.0
H595 H 0.75697 0.48842 0.86719 0.0
H596 H 0.76839 0.56166 0.9337 0.0
H597 H 0.74828 0.53235 0.89928 0.0
H598 H 0.82907 0.45373 0.07548 0.0
H599 H 0.81017 0.42444 0.03933 0.0
H600 H 0.8636 0.49125 0.06332 0.0
H601 H 0.86022 0.53104 0.04829 0.0
C602 C 0.20349 0.10769 0.73686 0.0
C603 C 0.20023 0.08178 0.7684 0.0
C604 C 0.24622 0.05375 0.72837 0.0
C605 C 0.24919 0.07949 0.69647 0.0
N606 N 0.22725 0.12828 0.66403 0.0
N607 N 0.21313 0.0279 0.78922 0.0
C608 C 0.22648 0.10545 0.69841 0.0
C609 C 0.22002 0.05408 0.76263 0.0
N610 N 0.1864 0.13532 0.74564 0.0
N611 N 0.26881 0.02932 0.7263 0.0
H612 H 0.19387 0.02746 0.81432 0.0
H613 H 0.22443 0.00591 0.78386 0.0
H614 H 0.28698 0.02736 0.69973 0.0
H615 H 0.27067 0.01173 0.75204 0.0
H616 H 0.19095 0.15638 0.72781 0.0
H617 H 0.16928 0.13814 0.77341 0.0
H618 H 0.20871 0.14554 0.66013 0.0
H619 H 0.24511 0.12889 0.63702 0.0
C620 C 0.60704 0.49712 0.49393 0.0
C621 C 0.63716 0.50506 0.47009 0.0
C622 C 0.66483 0.45744 0.5007 0.0
C623 C 0.63543 0.45073 0.527 0.0
N624 N 0.5799 0.4655 0.55391 0.0
N625 N 0.69587 0.4959 0.45453 0.0
C626 C 0.60703 0.47111 0.52545 0.0
C627 C 0.66643 0.48604 0.4744 0.0
N628 N 0.57787 0.51325 0.48416 0.0
N629 N 0.69095 0.43632 0.50056 0.0
H630 H 0.69771 0.51675 0.43501 0.0
H631 H 0.71897 0.48484 0.46015 0.0
H632 H 0.69109 0.41583 0.52111 0.0
H633 H 0.7116 0.43802 0.47816 0.0
H634 H 0.55428 0.50613 0.49582 0.0
H635 H 0.57648 0.53234 0.46086 0.0
H636 H 0.56056 0.48178 0.55923 0.0
H637 H 0.57747 0.44532 0.57474 0.0
C638 C 0.23252 0.8144 0.28118 0.0
C639 C 0.24496 0.84354 0.30026 0.0
C640 C 0.19771 0.87208 0.26388 0.0
C641 C 0.18694 0.84337 0.24149 0.0
N642 N 0.19652 0.78819 0.22205 0.0
N643 N 0.2428 0.90064 0.30501 0.0
C644 C 0.20497 0.81474 0.2483 0.0
C645 C 0.22846 0.87257 0.2904 0.0
N646 N 0.24626 0.78635 0.29585 0.0
N647 N 0.178 0.8986 0.26096 0.0
H648 H 0.2653 0.90188 0.32469 0.0
H649 H 0.23396 0.92274 0.29445 0.0
H650 H 0.15533 0.89913 0.24167 0.0
H651 H 0.18262 0.91931 0.28072 0.0
H652 H 0.23587 0.76427 0.28735 0.0
H653 H 0.26651 0.78509 0.31997 0.0
H654 H 0.21106 0.76765 0.22145 0.0
H655 H 0.17637 0.78746 0.19766 0.0
C656 C 0.6033 -0.00397 0.50123 0.0
C657 C 0.63391 0.00476 0.52463 0.0
C658 C 0.66164 0.95729 0.49269 0.0
C659 C 0.63172 0.94984 0.46654 0.0
N660 N 0.57519 0.96326 0.44101 0.0
N661 N 0.69318 -0.0033 0.53907 0.0
C662 C 0.60293 0.96966 0.46915 0.0
C663 C 0.66338 -0.01385 0.51954 0.0
N664 N 0.57417 0.0119 0.51171 0.0
N665 N 0.6882 0.93666 0.492 0.0
H666 H 0.6952 0.01774 0.55906 0.0
H667 H 0.71634 -0.01397 0.5327 0.0
H668 H 0.68837 0.91604 0.47088 0.0
H669 H 0.70928 0.93886 0.51436 0.0
H670 H 0.55039 0.00435 0.5003 0.0
H671 H 0.5732 0.03129 0.53528 0.0
H672 H 0.55523 -0.02099 0.43668 0.0
H673 H 0.57281 0.94296 0.41943 0.0
C674 C 0.23315 0.32663 0.70587 0.0
C675 C 0.24937 0.35597 0.69747 0.0
C676 C 0.19851 0.38479 0.72039 0.0
C677 C 0.18422 0.3558 0.73511 0.0
N678 N 0.18822 0.29923 0.746 0.0
N679 N 0.24906 0.41316 0.69858 0.0
C680 C 0.20141 0.32665 0.72847 0.0
C681 C 0.23236 0.38517 0.70467 0.0
N682 N 0.24775 0.29883 0.69118 0.0
N683 N 0.17948 0.4118 0.72122 0.0
H684 H 0.27387 0.4143 0.68688 0.0
H685 H 0.2393 0.43521 0.70824 0.0
H686 H 0.15453 0.41202 0.73251 0.0
H687 H 0.18722 0.43324 0.70695 0.0
H688 H 0.23549 0.27701 0.69155 0.0
H689 H 0.27114 0.29784 0.67463 0.0
H690 H 0.20159 0.27803 0.74786 0.0
H691 H 0.16456 0.29805 0.76167 0.0
C692 C 0.77795 0.02223 0.03721 0.0
C693 C 0.78131 0.02133 0.9866 0.0
C694 C 0.77002 0.96447 0.9853 0.0
C695 C 0.77854 0.96442 0.03481 0.0
N696 N 0.76874 -0.00824 0.10951 0.0
N697 N 0.76043 -0.00366 0.91415 0.0
C698 C 0.77541 -0.00701 0.06166 0.0
C699 C 0.7706 -0.00619 0.96091 0.0
N700 N 0.77708 0.0506 0.06125 0.0
N701 N 0.76141 0.93677 0.96242 0.0
H702 H 0.75795 0.0184 0.89789 0.0
H703 H 0.75179 0.97749 0.89292 0.0
H704 H 0.75613 0.91626 0.98146 0.0
H705 H 0.75815 0.9343 0.92548 0.0
H706 H 0.77899 0.05301 0.09838 0.0
H707 H 0.77284 0.07188 0.04356 0.0
H708 H 0.76517 0.01158 0.13146 0.0
H709 H 0.76332 0.97034 0.12612 0.0
C710 C 0.20264 0.63485 0.22498 0.0
C711 C 0.18525 0.60594 0.21574 0.0
C712 C 0.23406 0.57572 0.24379 0.0
C713 C 0.2508 0.60463 0.25524 0.0
N714 N 0.24797 0.66127 0.26851 0.0
N715 N 0.18095 0.54949 0.22584 0.0
C716 C 0.23416 0.63411 0.24944 0.0
C717 C 0.19991 0.57654 0.22829 0.0
N718 N 0.19011 0.66282 0.20809 0.0
N719 N 0.25123 0.54763 0.24538 0.0
H720 H 0.1557 0.54948 0.21498 0.0
H721 H 0.18917 0.52775 0.23886 0.0
H722 H 0.2765 0.54603 0.25567 0.0
H723 H 0.24135 0.52624 0.23247 0.0
H724 H 0.20379 0.68391 0.20878 0.0
H725 H 0.16713 0.66461 0.18982 0.0
H726 H 0.23523 0.68285 0.26967 0.0
H727 H 0.27082 0.66163 0.2874 0.0
C728 C 0.3143 -0.01354 0.48847 0.0
C729 C 0.34532 0.0027 0.49458 0.0
C730 C 0.37641 0.9534 0.48203 0.0
C731 C 0.34545 0.93663 0.48137 0.0
N732 N 0.28501 0.93596 0.4882 0.0
N733 N 0.40586 0.00152 0.5049 0.0
C734 C 0.31433 0.95282 0.48548 0.0
C735 C 0.37642 -0.01379 0.49323 0.0
N736 N 0.28501 0.00331 0.48454 0.0
N737 N 0.40569 0.93823 0.47029 0.0
H738 H 0.40723 0.02568 0.51314 0.0
H739 H 0.42863 -0.01024 0.51032 0.0
H740 H 0.40691 0.9141 0.46179 0.0
H741 H 0.42827 0.95009 0.4647 0.0
H742 H 0.26189 -0.00686 0.47538 0.0
H743 H 0.28431 0.02803 0.48654 0.0
H744 H 0.26186 0.94615 0.49619 0.0
H745 H 0.2842 0.91125 0.48607 0.0
C746 C 0.75822 0.62479 0.23376 0.0
C747 C 0.76724 0.59847 0.20446 0.0
C748 C 0.71883 0.56827 0.23224 0.0
C749 C 0.70894 0.59512 0.25964 0.0
N750 N 0.72267 0.64534 0.29718 0.0
N751 N 0.76234 0.54298 0.18467 0.0
C752 C 0.72996 0.62218 0.2641 0.0
C753 C 0.74954 0.56938 0.20682 0.0
N754 N 0.77524 0.65283 0.23017 0.0
N755 N 0.69816 0.54238 0.229 0.0
H756 H 0.78507 0.54333 0.16626 0.0
H757 H 0.75227 0.52034 0.18794 0.0
H758 H 0.67611 0.54048 0.24871 0.0
H759 H 0.7019 0.52344 0.20535 0.0
H760 H 0.7673 0.67402 0.2459 0.0
H761 H 0.79661 0.65538 0.20923 0.0
H762 H 0.73864 0.66427 0.30549 0.0
H763 H 0.70179 0.6442 0.31941 0.0
C764 C 0.1187 0.97182 0.03013 0.0
C765 C 0.14958 0.9563 0.04054 0.0
C766 C 0.18129 0.00422 0.02159 0.0
C767 C 0.15045 0.01935 0.00991 0.0
N768 N 0.09019 0.01751 -0.00272 0.0
N769 N 0.2101 0.95513 0.04185 0.0
C770 C 0.11926 0.00311 0.01253 0.0
C771 C 0.18093 0.97175 0.03497 0.0
N772 N 0.08876 0.95688 0.03858 0.0
N773 N 0.21062 0.02119 0.02075 0.0
H774 H 0.2103 0.93141 0.05206 0.0
H775 H 0.23396 0.96393 0.03477 0.0
H776 H 0.2115 0.04483 0.01026 0.0
H777 H 0.23376 0.01266 0.03274 0.0
H778 H 0.06548 0.96819 0.03821 0.0
H779 H 0.08704 0.93324 0.0487 0.0
H780 H 0.06735 0.00576 -0.00759 0.0
H781 H 0.08905 0.04109 0.98662 0.0
C782 C 0.72188 0.32573 0.73443 0.0
C783 C 0.7046 0.3549 0.72854 0.0
C784 C 0.75586 0.38434 0.74972 0.0
C785 C 0.77198 0.35529 0.76055 0.0
N786 N 0.76948 0.29851 0.77002 0.0
N787 N 0.70321 0.41193 0.73534 0.0
C788 C 0.75486 0.32596 0.75451 0.0
C789 C 0.7211 0.38426 0.73726 0.0
N790 N 0.70719 0.29791 0.71938 0.0
N791 N 0.77406 0.41189 0.75055 0.0
H792 H 0.67763 0.41271 0.7264 0.0
H793 H 0.71287 0.43384 0.7463 0.0
H794 H 0.79967 0.41264 0.75936 0.0
H795 H 0.76469 0.43347 0.73857 0.0
H796 H 0.72004 0.27641 0.71768 0.0
H797 H 0.68292 0.29667 0.70472 0.0
H798 H 0.75659 0.27707 0.77206 0.0
H799 H 0.79385 0.29753 0.7843 0.0
loop_
_geom_bond_atom_site_label_1
_geom_bond_atom_site_label_2
_geom_bond_distance
_geom_bond_site_symmetry_2
_ccdc_geom_bond_type
C0 O1 1.306 . S
C0 O3 1.160 . S
O1 C0 1.306 . S
O1 Cd2 2.228 . S
Cd2 O1 2.228 . S
Cd2 O6 2.273 . S
Cd2 O10 2.277 . S
O3 C0 1.160 . S
O3 Cd4 2.203 . S
Cd4 O3 2.203 . S
Cd4 O6 2.411 . S
Cd4 O7 2.333 . S
Cd4 O8 2.352 . S
Cd4 O12 2.277 . S
Cd4 O13 2.356 . S
C5 O10 1.209 . S
C5 O12 1.226 . S
O6 Cd2 2.273 . S
O6 Cd4 2.411 . S
O6 C9 1.320 . S
O7 Cd4 2.333 . S
O7 C9 1.214 . S
O8 Cd4 2.352 . S
O8 C11 1.258 . S
C9 O6 1.320 . S
C9 O7 1.214 . S
O10 Cd2 2.277 . S
O10 C5 1.209 . S
C11 O8 1.258 . S
C11 O13 1.282 . S
O12 Cd4 2.277 . S
O12 C5 1.226 . S
O13 Cd4 2.356 . S
O13 C11 1.282 . S
C14 O15 1.306 . S
C14 O17 1.160 . S
O15 C14 1.306 . S
O15 Cd16 2.228 . S
Cd16 O15 2.228 . S
Cd16 O20 2.273 . S
Cd16 O24 2.277 . S
O17 C14 1.160 . S
O17 Cd18 2.203 . S
Cd18 O17 2.203 . S
Cd18 O20 2.411 . S
Cd18 O21 2.333 . S
Cd18 O22 2.352 . S
Cd18 O26 2.277 . S
Cd18 O27 2.356 . S
C19 O24 1.209 . S
C19 O26 1.226 . S
O20 Cd16 2.273 . S
O20 Cd18 2.411 . S
O20 C23 1.320 . S
O21 Cd18 2.333 . S
O21 C23 1.214 . S
O22 Cd18 2.352 . S
O22 C25 1.258 . S
C23 O20 1.320 . S
C23 O21 1.214 . S
O24 Cd16 2.277 . S
O24 C19 1.209 . S
C25 O22 1.258 . S
C25 O27 1.282 . S
O26 Cd18 2.277 . S
O26 C19 1.226 . S
O27 Cd18 2.356 . S
O27 C25 1.282 . S
C28 O29 1.306 . S
C28 O31 1.160 . S
O29 C28 1.306 . S
O29 Cd30 2.228 . S
Cd30 O29 2.228 . S
Cd30 O34 2.273 . S
Cd30 O38 2.277 . S
O31 C28 1.160 . S
O31 Cd32 2.203 . S
Cd32 O31 2.203 . S
Cd32 O34 2.411 . S
Cd32 O35 2.333 . S
Cd32 O36 2.352 . S
Cd32 O40 2.277 . S
Cd32 O41 2.356 . S
C33 O38 1.209 . S
C33 O40 1.226 . S
O34 Cd30 2.273 . S
O34 Cd32 2.411 . S
O34 C37 1.320 . S
O35 Cd32 2.333 . S
O35 C37 1.214 . S
O36 Cd32 2.352 . S
O36 C39 1.258 . S
C37 O34 1.320 . S
C37 O35 1.214 . S
O38 Cd30 2.277 . S
O38 C33 1.209 . S
C39 O36 1.258 . S
C39 O41 1.282 . S
O40 Cd32 2.277 . S
O40 C33 1.226 . S
O41 Cd32 2.356 . S
O41 C39 1.282 . S
C42 O43 1.306 . S
C42 O45 1.160 . S
O43 C42 1.306 . S
O43 Cd44 2.228 . S
Cd44 O43 2.228 . S
Cd44 O48 2.273 . S
Cd44 O52 2.277 . S
O45 C42 1.160 . S
O45 Cd46 2.203 . S
Cd46 O45 2.203 . S
Cd46 O48 2.411 . S
Cd46 O49 2.333 . S
Cd46 O50 2.352 . S
Cd46 O54 2.277 . S
Cd46 O55 2.356 . S
C47 O52 1.209 . S
C47 O54 1.226 . S
O48 Cd44 2.273 . S
O48 Cd46 2.411 . S
O48 C51 1.320 . S
O49 Cd46 2.333 . S
O49 C51 1.214 . S
O50 Cd46 2.352 . S
O50 C53 1.258 . S
C51 O48 1.320 . S
C51 O49 1.214 . S
O52 Cd44 2.277 . S
O52 C47 1.209 . S
C53 O50 1.258 . S
C53 O55 1.282 . S
O54 Cd46 2.277 . S
O54 C47 1.226 . S
O55 Cd46 2.356 . S
O55 C53 1.282 . S
C56 O57 1.306 . S
C56 O59 1.160 . S
O57 C56 1.306 . S
O57 Cd58 2.228 . S
Cd58 O57 2.228 . S
Cd58 O62 2.273 . S
Cd58 O66 2.277 . S
O59 C56 1.160 . S
O59 Cd60 2.203 . S
Cd60 O59 2.203 . S
Cd60 O62 2.411 . S
Cd60 O63 2.333 . S
Cd60 O64 2.352 . S
Cd60 O68 2.277 . S
Cd60 O69 2.356 . S
C61 O66 1.209 . S
C61 O68 1.226 . S
O62 Cd58 2.273 . S
O62 Cd60 2.411 . S
O62 C65 1.320 . S
O63 Cd60 2.333 . S
O63 C65 1.214 . S
O64 Cd60 2.352 . S
O64 C67 1.258 . S
C65 O62 1.320 . S
C65 O63 1.214 . S
O66 Cd58 2.277 . S
O66 C61 1.209 . S
C67 O64 1.258 . S
C67 O69 1.282 . S
O68 Cd60 2.277 . S
O68 C61 1.226 . S
O69 Cd60 2.356 . S
O69 C67 1.282 . S
C70 O71 1.306 . S
C70 O73 1.160 . S
O71 C70 1.306 . S
O71 Cd72 2.228 . S
Cd72 O71 2.228 . S
Cd72 O76 2.273 . S
Cd72 O80 2.277 . S
O73 C70 1.160 . S
O73 Cd74 2.203 . S
Cd74 O73 2.203 . S
Cd74 O76 2.411 . S
Cd74 O77 2.333 . S
Cd74 O78 2.352 . S
Cd74 O82 2.277 . S
Cd74 O83 2.356 . S
C75 O80 1.209 . S
C75 O82 1.226 . S
O76 Cd72 2.273 . S
O76 Cd74 2.411 . S
O76 C79 1.320 . S
O77 Cd74 2.333 . S
O77 C79 1.214 . S
O78 Cd74 2.352 . S
O78 C81 1.258 . S
C79 O76 1.320 . S
C79 O77 1.214 . S
O80 Cd72 2.277 . S
O80 C75 1.209 . S
C81 O78 1.258 . S
C81 O83 1.282 . S
O82 Cd74 2.277 . S
O82 C75 1.226 . S
O83 Cd74 2.356 . S
O83 C81 1.282 . S
C84 O85 1.306 . S
C84 O87 1.160 . S
O85 C84 1.306 . S
O85 Cd86 2.228 . S
Cd86 O85 2.228 . S
Cd86 O90 2.273 . S
Cd86 O94 2.277 . S
O87 C84 1.160 . S
O87 Cd88 2.203 . S
Cd88 O87 2.203 . S
Cd88 O90 2.411 . S
Cd88 O91 2.333 . S
Cd88 O92 2.352 . S
Cd88 O96 2.277 . S
Cd88 O97 2.356 . S
C89 O94 1.209 . S
C89 O96 1.226 . S
O90 Cd86 2.273 . S
O90 Cd88 2.411 . S
O90 C93 1.320 . S
O91 Cd88 2.333 . S
O91 C93 1.214 . S
O92 Cd88 2.352 . S
O92 C95 1.258 . S
C93 O90 1.320 . S
C93 O91 1.214 . S
O94 Cd86 2.277 . S
O94 C89 1.209 . S
C95 O92 1.258 . S
C95 O97 1.282 . S
O96 Cd88 2.277 . S
O96 C89 1.226 . S
O97 Cd88 2.356 . S
O97 C95 1.282 . S
C98 O99 1.306 . S
C98 O101 1.160 . S
O99 C98 1.306 . S
O99 Cd100 2.228 . S
Cd100 O99 2.228 . S
Cd100 O104 2.273 . S
Cd100 O108 2.277 . S
O101 C98 1.160 . S
O101 Cd102 2.203 . S
Cd102 O101 2.203 . S
Cd102 O104 2.411 . S
Cd102 O105 2.333 . S
Cd102 O106 2.352 . S
Cd102 O110 2.277 . S
Cd102 O111 2.356 . S
C103 O108 1.209 . S
C103 O110 1.226 . S
O104 Cd100 2.273 . S
O104 Cd102 2.411 . S
O104 C107 1.320 . S
O105 Cd102 2.333 . S
O105 C107 1.214 . S
O106 Cd102 2.352 . S
O106 C109 1.258 . S
C107 O104 1.320 . S
C107 O105 1.214 . S
O108 Cd100 2.277 . S
O108 C103 1.209 . S
C109 O106 1.258 . S
C109 O111 1.282 . S
O110 Cd102 2.277 . S
O110 C103 1.226 . S
O111 Cd102 2.356 . S
O111 C109 1.282 . S
C112 O113 1.306 . S
C112 O115 1.160 . S
O113 C112 1.306 . S
O113 Cd114 2.228 . S
Cd114 O113 2.228 . S
Cd114 O118 2.273 . S
Cd114 O122 2.277 . S
O115 C112 1.160 . S
O115 Cd116 2.203 . S
Cd116 O115 2.203 . S
Cd116 O118 2.411 . S
Cd116 O119 2.333 . S
Cd116 O120 2.352 . S
Cd116 O124 2.277 . S
Cd116 O125 2.356 . S
C117 O122 1.209 . S
C117 O124 1.226 . S
O118 Cd114 2.273 . S
O118 Cd116 2.411 . S
O118 C121 1.320 . S
O119 Cd116 2.333 . S
O119 C121 1.214 . S
O120 Cd116 2.352 . S
O120 C123 1.258 . S
C121 O118 1.320 . S
C121 O119 1.214 . S
O122 Cd114 2.277 . S
O122 C117 1.209 . S
C123 O120 1.258 . S
C123 O125 1.282 . S
O124 Cd116 2.277 . S
O124 C117 1.226 . S
O125 Cd116 2.356 . S
O125 C123 1.282 . S
C126 O127 1.306 . S
C126 O129 1.160 . S
O127 C126 1.306 . S
O127 Cd128 2.228 . S
Cd128 O127 2.228 . S
Cd128 O132 2.273 . S
Cd128 O136 2.277 . S
O129 C126 1.160 . S
O129 Cd130 2.203 . S
Cd130 O129 2.203 . S
Cd130 O132 2.411 . S
Cd130 O133 2.333 . S
Cd130 O134 2.352 . S
Cd130 O138 2.277 . S
Cd130 O139 2.356 . S
C131 O136 1.209 . S
C131 O138 1.226 . S
O132 Cd128 2.273 . S
O132 Cd130 2.411 . S
O132 C135 1.320 . S
O133 Cd130 2.333 . S
O133 C135 1.214 . S
O134 Cd130 2.352 . S
O134 C137 1.258 . S
C135 O132 1.320 . S
C135 O133 1.214 . S
O136 Cd128 2.277 . S
O136 C131 1.209 . S
C137 O134 1.258 . S
C137 O139 1.282 . S
O138 Cd130 2.277 . S
O138 C131 1.226 . S
O139 Cd130 2.356 . S
O139 C137 1.282 . S
C140 O141 1.306 . S
C140 O143 1.160 . S
O141 C140 1.306 . S
O141 Cd142 2.228 . S
Cd142 O141 2.228 . S
Cd142 O146 2.273 . S
Cd142 O150 2.277 . S
O143 C140 1.160 . S
O143 Cd144 2.203 . S
Cd144 O143 2.203 . S
Cd144 O146 2.411 . S
Cd144 O147 2.333 . S
Cd144 O148 2.352 . S
Cd144 O152 2.277 . S
Cd144 O153 2.356 . S
C145 O150 1.209 . S
C145 O152 1.226 . S
O146 Cd142 2.273 . S
O146 Cd144 2.411 . S
O146 C149 1.320 . S
O147 Cd144 2.333 . S
O147 C149 1.214 . S
O148 Cd144 2.352 . S
O148 C151 1.258 . S
C149 O146 1.320 . S
C149 O147 1.214 . S
O150 Cd142 2.277 . S
O150 C145 1.209 . S
C151 O148 1.258 . S
C151 O153 1.282 . S
O152 Cd144 2.277 . S
O152 C145 1.226 . S
O153 Cd144 2.356 . S
O153 C151 1.282 . S
C154 O155 1.306 . S
C154 O157 1.160 . S
O155 C154 1.306 . S
O155 Cd156 2.228 . S
Cd156 O155 2.228 . S
Cd156 O160 2.273 . S
Cd156 O164 2.277 . S
O157 C154 1.160 . S
O157 Cd158 2.203 . S
Cd158 O157 2.203 . S
Cd158 O160 2.411 . S
Cd158 O161 2.333 . S
Cd158 O162 2.352 . S
Cd158 O166 2.277 . S
Cd158 O167 2.356 . S
C159 O164 1.209 . S
C159 O166 1.226 . S
O160 Cd156 2.273 . S
O160 Cd158 2.411 . S
O160 C163 1.320 . S
O161 Cd158 2.333 . S
O161 C163 1.214 . S
O162 Cd158 2.352 . S
O162 C165 1.258 . S
C163 O160 1.320 . S
C163 O161 1.214 . S
O164 Cd156 2.277 . S
O164 C159 1.209 . S
C165 O162 1.258 . S
C165 O167 1.282 . S
O166 Cd158 2.277 . S
O166 C159 1.226 . S
O167 Cd158 2.356 . S
O167 C165 1.282 . S
C168 O169 1.306 . S
C168 O171 1.160 . S
O169 C168 1.306 . S
O169 Cd170 2.228 . S
Cd170 O169 2.228 . S
Cd170 O174 2.273 . S
Cd170 O178 2.277 . S
O171 C168 1.160 . S
O171 Cd172 2.203 . S
Cd172 O171 2.203 . S
Cd172 O174 2.411 . S
Cd172 O175 2.333 . S
Cd172 O176 2.352 . S
Cd172 O180 2.277 . S
Cd172 O181 2.356 . S
C173 O178 1.209 . S
C173 O180 1.226 . S
O174 Cd170 2.273 . S
O174 Cd172 2.411 . S
O174 C177 1.320 . S
O175 Cd172 2.333 . S
O175 C177 1.214 . S
O176 Cd172 2.352 . S
O176 C179 1.258 . S
C177 O174 1.320 . S
C177 O175 1.214 . S
O178 Cd170 2.277 . S
O178 C173 1.209 . S
C179 O176 1.258 . S
C179 O181 1.282 . S
O180 Cd172 2.277 . S
O180 C173 1.226 . S
O181 Cd172 2.356 . S
O181 C179 1.282 . S
C182 O183 1.306 . S
C182 O185 1.160 . S
O183 C182 1.306 . S
O183 Cd184 2.228 . S
Cd184 O183 2.228 . S
Cd184 O188 2.273 . S
Cd184 O192 2.277 . S
O185 C182 1.160 . S
O185 Cd186 2.203 . S
Cd186 O185 2.203 . S
Cd186 O188 2.411 . S
Cd186 O189 2.333 . S
Cd186 O190 2.352 . S
Cd186 O194 2.277 . S
Cd186 O195 2.356 . S
C187 O192 1.209 . S
C187 O194 1.226 . S
O188 Cd184 2.273 . S
O188 Cd186 2.411 . S
O188 C191 1.320 . S
O189 Cd186 2.333 . S
O189 C191 1.214 . S
O190 Cd186 2.352 . S
O190 C193 1.258 . S
C191 O188 1.320 . S
C191 O189 1.214 . S
O192 Cd184 2.277 . S
O192 C187 1.209 . S
C193 O190 1.258 . S
C193 O195 1.282 . S
O194 Cd186 2.277 . S
O194 C187 1.226 . S
O195 Cd186 2.356 . S
O195 C193 1.282 . S
C196 O197 1.306 . S
C196 O199 1.160 . S
O197 C196 1.306 . S
O197 Cd198 2.228 . S
Cd198 O197 2.228 . S
Cd198 O202 2.273 . S
Cd198 O206 2.277 . S
O199 C196 1.160 . S
O199 Cd200 2.203 . S
Cd200 O199 2.203 . S
Cd200 O202 2.411 . S
Cd200 O203 2.333 . S
Cd200 O204 2.352 . S
Cd200 O208 2.277 . S
Cd200 O209 2.356 . S
C201 O206 1.209 . S
C201 O208 1.226 . S
O202 Cd198 2.273 . S
O202 Cd200 2.411 . S
O202 C205 1.320 . S
O203 Cd200 2.333 . S
O203 C205 1.214 . S
O204 Cd200 2.352 . S
O204 C207 1.258 . S
C205 O202 1.320 . S
C205 O203 1.214 . S
O206 Cd198 2.277 . S
O206 C201 1.209 . S
C207 O204 1.258 . S
C207 O209 1.282 . S
O208 Cd200 2.277 . S
O208 C201 1.226 . S
O209 Cd200 2.356 . S
O209 C207 1.282 . S
C210 O211 1.306 . S
C210 O213 1.160 . S
O211 C210 1.306 . S
O211 Cd212 2.228 . S
Cd212 O211 2.228 . S
Cd212 O216 2.273 . S
Cd212 O220 2.277 . S
O213 C210 1.160 . S
O213 Cd214 2.203 . S
Cd214 O213 2.203 . S
Cd214 O216 2.411 . S
Cd214 O217 2.333 . S
Cd214 O218 2.352 . S
Cd214 O222 2.277 . S
Cd214 O223 2.356 . S
C215 O220 1.209 . S
C215 O222 1.226 . S
O216 Cd212 2.273 . S
O216 Cd214 2.411 . S
O216 C219 1.320 . S
O217 Cd214 2.333 . S
O217 C219 1.214 . S
O218 Cd214 2.352 . S
O218 C221 1.258 . S
C219 O216 1.320 . S
C219 O217 1.214 . S
O220 Cd212 2.277 . S
O220 C215 1.209 . S
C221 O218 1.258 . S
C221 O223 1.282 . S
O222 Cd214 2.277 . S
O222 C215 1.226 . S
O223 Cd214 2.356 . S
O223 C221 1.282 . S
C224 C225 1.363 . S
C224 C230 1.379 . S
C224 N232 1.356 . S
C225 C224 1.363 . S
C225 C231 1.363 . S
C226 C227 1.363 . S
C226 C231 1.379 . S
C226 N233 1.356 . S
C227 C226 1.363 . S
C227 C230 1.363 . S
N228 C230 1.356 . S
N228 H240 0.984 . S
N228 H241 0.985 . S
N229 C231 1.356 . S
N229 H234 0.984 . S
N229 H235 0.985 . S
C230 C224 1.379 . S
C230 C227 1.363 . S
C230 N228 1.356 . S
C231 C225 1.363 . S
C231 C226 1.379 . S
C231 N229 1.356 . S
N232 C224 1.356 . S
N232 H238 0.984 . S
N232 H239 0.984 . S
N233 C226 1.356 . S
N233 H236 0.984 . S
N233 H237 0.985 . S
H234 N229 0.984 . S
H235 N229 0.985 . S
H236 N233 0.984 . S
H237 N233 0.985 . S
H238 N232 0.984 . S
H239 N232 0.984 . S
H240 N228 0.984 . S
H241 N228 0.985 . S
C242 C243 1.363 . S
C242 C248 1.379 . S
C242 N250 1.356 . S
C243 C242 1.363 . S
C243 C249 1.363 . S
C244 C245 1.363 . S
C244 C249 1.379 . S
C244 N251 1.356 . S
C245 C244 1.363 . S
C245 C248 1.363 . S
N246 C248 1.356 . S
N246 H258 0.984 . S
N246 H259 0.985 . S
N247 C249 1.356 . S
N247 H252 0.984 . S
N247 H253 0.985 . S
C248 C242 1.379 . S
C248 C245 1.363 . S
C248 N246 1.356 . S
C249 C243 1.363 . S
C249 C244 1.379 . S
C249 N247 1.356 . S
N250 C242 1.356 . S
N250 H256 0.984 . S
N250 H257 0.984 . S
N251 C244 1.356 . S
N251 H254 0.984 . S
N251 H255 0.985 . S
H252 N247 0.984 . S
H253 N247 0.985 . S
H254 N251 0.984 . S
H255 N251 0.985 . S
H256 N250 0.984 . S
H257 N250 0.984 . S
H258 N246 0.984 . S
H259 N246 0.985 . S
C260 C261 1.363 . S
C260 C266 1.379 . S
C260 N268 1.356 . S
C261 C260 1.363 . S
C261 C267 1.363 . S
C262 C263 1.363 . S
C262 C267 1.379 . S
C262 N269 1.356 . S
C263 C262 1.363 . S
C263 C266 1.363 . S
N264 C266 1.356 . S
N264 H276 0.984 . S
N264 H277 0.985 . S
N265 C267 1.356 . S
N265 H270 0.984 . S
N265 H271 0.985 . S
C266 C260 1.379 . S
C266 C263 1.363 . S
C266 N264 1.356 . S
C267 C261 1.363 . S
C267 C262 1.379 . S
C267 N265 1.356 . S
N268 C260 1.356 . S
N268 H274 0.984 . S
N268 H275 0.984 . S
N269 C262 1.356 . S
N269 H272 0.984 . S
N269 H273 0.985 . S
H270 N265 0.984 . S
H271 N265 0.985 . S
H272 N269 0.984 . S
H273 N269 0.985 . S
H274 N268 0.984 . S
H275 N268 0.984 . S
H276 N264 0.984 . S
H277 N264 0.985 . S
C278 C279 1.363 . S
C278 C284 1.379 1_455 S
C278 N286 1.356 . S
C279 C278 1.363 . S
C279 C285 1.363 . S
C280 C281 1.363 . S
C280 C285 1.379 1_655 S
C280 N287 1.356 . S
C281 C280 1.363 . S
C281 C284 1.363 . S
N282 C284 1.356 . S
N282 H294 0.984 . S
N282 H295 0.985 . S
N283 C285 1.356 . S
N283 H288 0.984 . S
N283 H289 0.985 . S
C284 C278 1.379 1_655 S
C284 C281 1.363 . S
C284 N282 1.356 . S
C285 C279 1.363 . S
C285 C280 1.379 1_455 S
C285 N283 1.356 . S
N286 C278 1.356 . S
N286 H292 0.984 . S
N286 H293 0.984 . S
N287 C280 1.356 . S
N287 H290 0.984 . S
N287 H291 0.985 . S
H288 N283 0.984 . S
H289 N283 0.985 . S
H290 N287 0.984 . S
H291 N287 0.985 . S
H292 N286 0.984 . S
H293 N286 0.984 . S
H294 N282 0.984 . S
H295 N282 0.985 . S
C296 C297 1.363 . S
C296 C302 1.379 . S
C296 N304 1.356 . S
C297 C296 1.363 . S
C297 C303 1.363 . S
C298 C299 1.363 . S
C298 C303 1.379 . S
C298 N305 1.356 . S
C299 C298 1.363 . S
C299 C302 1.363 . S
N300 C302 1.356 . S
N300 H312 0.984 . S
N300 H313 0.985 . S
N301 C303 1.356 . S
N301 H306 0.984 . S
N301 H307 0.985 . S
C302 C296 1.379 . S
C302 C299 1.363 . S
C302 N300 1.356 . S
C303 C297 1.363 . S
C303 C298 1.379 . S
C303 N301 1.356 . S
N304 C296 1.356 . S
N304 H310 0.984 . S
N304 H311 0.984 . S
N305 C298 1.356 . S
N305 H308 0.984 . S
N305 H309 0.985 . S
H306 N301 0.984 . S
H307 N301 0.985 . S
H308 N305 0.984 . S
H309 N305 0.985 . S
H310 N304 0.984 . S
H311 N304 0.984 . S
H312 N300 0.984 . S
H313 N300 0.985 . S
C314 C315 1.363 . S
C314 C320 1.379 1_655 S
C314 N322 1.356 . S
C315 C314 1.363 . S
C315 C321 1.363 . S
C316 C317 1.363 . S
C316 C321 1.379 1_455 S
C316 N323 1.356 . S
C317 C316 1.363 . S
C317 C320 1.363 . S
N318 C320 1.356 . S
N318 H330 0.984 . S
N318 H331 0.985 . S
N319 C321 1.356 . S
N319 H324 0.984 . S
N319 H325 0.985 . S
C320 C314 1.379 1_455 S
C320 C317 1.363 . S
C320 N318 1.356 . S
C321 C315 1.363 . S
C321 C316 1.379 1_655 S
C321 N319 1.356 . S
N322 C314 1.356 . S
N322 H328 0.984 . S
N322 H329 0.984 . S
N323 C316 1.356 . S
N323 H326 0.984 . S
N323 H327 0.985 . S
H324 N319 0.984 . S
H325 N319 0.985 . S
H326 N323 0.984 . S
H327 N323 0.985 . S
H328 N322 0.984 . S
H329 N322 0.984 . S
H330 N318 0.984 . S
H331 N318 0.985 . S
C332 C333 1.363 . S
C332 C338 1.379 . S
C332 N340 1.356 . S
C333 C332 1.363 . S
C333 C339 1.363 . S
C334 C335 1.363 . S
C334 C339 1.379 . S
C334 N341 1.356 . S
C335 C334 1.363 . S
C335 C338 1.363 . S
N336 C338 1.356 . S
N336 H348 0.984 . S
N336 H349 0.985 . S
N337 C339 1.356 . S
N337 H342 0.984 . S
N337 H343 0.985 . S
C338 C332 1.379 . S
C338 C335 1.363 . S
C338 N336 1.356 . S
C339 C333 1.363 . S
C339 C334 1.379 . S
C339 N337 1.356 . S
N340 C332 1.356 . S
N340 H346 0.984 . S
N340 H347 0.984 . S
N341 C334 1.356 . S
N341 H344 0.984 . S
N341 H345 0.985 . S
H342 N337 0.984 . S
H343 N337 0.985 . S
H344 N341 0.984 . S
H345 N341 0.985 . S
H346 N340 0.984 . S
H347 N340 0.984 . S
H348 N336 0.984 . S
H349 N336 0.985 . S
C350 C351 1.363 . S
C350 C356 1.379 . S
C350 N358 1.356 . S
C351 C350 1.363 . S
C351 C357 1.363 . S
C352 C353 1.363 . S
C352 C357 1.379 . S
C352 N359 1.356 . S
C353 C352 1.363 . S
C353 C356 1.363 . S
N354 C356 1.356 . S
N354 H366 0.984 . S
N354 H367 0.985 . S
N355 C357 1.356 . S
N355 H360 0.984 . S
N355 H361 0.985 . S
C356 C350 1.379 . S
C356 C353 1.363 . S
C356 N354 1.356 . S
C357 C351 1.363 . S
C357 C352 1.379 . S
C357 N355 1.356 . S
N358 C350 1.356 . S
N358 H364 0.984 . S
N358 H365 0.984 . S
N359 C352 1.356 . S
N359 H362 0.984 . S
N359 H363 0.985 . S
H360 N355 0.984 . S
H361 N355 0.985 . S
H362 N359 0.984 . S
H363 N359 0.985 . S
H364 N358 0.984 . S
H365 N358 0.984 . S
H366 N354 0.984 . S
H367 N354 0.985 . S
C368 C369 1.363 . S
C368 C374 1.379 . S
C368 N376 1.356 . S
C369 C368 1.363 . S
C369 C375 1.363 . S
C370 C371 1.363 . S
C370 C375 1.379 . S
C370 N377 1.356 . S
C371 C370 1.363 . S
C371 C374 1.363 . S
N372 C374 1.356 . S
N372 H384 0.984 . S
N372 H385 0.985 . S
N373 C375 1.356 . S
N373 H378 0.984 . S
N373 H379 0.985 . S
C374 C368 1.379 . S
C374 C371 1.363 . S
C374 N372 1.356 . S
C375 C369 1.363 . S
C375 C370 1.379 . S
C375 N373 1.356 . S
N376 C368 1.356 . S
N376 H382 0.984 . S
N376 H383 0.984 . S
N377 C370 1.356 . S
N377 H380 0.984 . S
N377 H381 0.985 . S
H378 N373 0.984 . S
H379 N373 0.985 . S
H380 N377 0.984 . S
H381 N377 0.985 . S
H382 N376 0.984 . S
H383 N376 0.984 . S
H384 N372 0.984 . S
H385 N372 0.985 . S
C386 C387 1.363 . S
C386 C392 1.379 . S
C386 N394 1.356 . S
C387 C386 1.363 . S
C387 C393 1.363 . S
C388 C389 1.363 . S
C388 C393 1.379 . S
C388 N395 1.356 . S
C389 C388 1.363 . S
C389 C392 1.363 . S
N390 C392 1.356 . S
N390 H402 0.984 . S
N390 H403 0.985 . S
N391 C393 1.356 . S
N391 H396 0.984 . S
N391 H397 0.985 . S
C392 C386 1.379 . S
C392 C389 1.363 . S
C392 N390 1.356 . S
C393 C387 1.363 . S
C393 C388 1.379 . S
C393 N391 1.356 . S
N394 C386 1.356 . S
N394 H400 0.984 . S
N394 H401 0.984 . S
N395 C388 1.356 . S
N395 H398 0.984 . S
N395 H399 0.985 . S
H396 N391 0.984 . S
H397 N391 0.985 . S
H398 N395 0.984 . S
H399 N395 0.985 . S
H400 N394 0.984 . S
H401 N394 0.984 . S
H402 N390 0.984 . S
H403 N390 0.985 . S
C404 C405 1.363 . S
C404 C410 1.379 . S
C404 N412 1.356 . S
C405 C404 1.363 . S
C405 C411 1.363 . S
C406 C407 1.363 . S
C406 C411 1.379 . S
C406 N413 1.356 . S
C407 C406 1.363 . S
C407 C410 1.363 . S
N408 C410 1.356 . S
N408 H420 0.984 . S
N408 H421 0.985 . S
N409 C411 1.356 . S
N409 H414 0.984 . S
N409 H415 0.985 . S
C410 C404 1.379 . S
C410 C407 1.363 . S
C410 N408 1.356 . S
C411 C405 1.363 . S
C411 C406 1.379 . S
C411 N409 1.356 . S
N412 C404 1.356 . S
N412 H418 0.984 . S
N412 H419 0.984 . S
N413 C406 1.356 . S
N413 H416 0.984 . S
N413 H417 0.985 . S
H414 N409 0.984 . S
H415 N409 0.985 . S
H416 N413 0.984 . S
H417 N413 0.985 . S
H418 N412 0.984 . S
H419 N412 0.984 . S
H420 N408 0.984 . S
H421 N408 0.985 . S
C422 C423 1.363 . S
C422 C428 1.379 . S
C422 N430 1.356 . S
C423 C422 1.363 . S
C423 C429 1.363 . S
C424 C425 1.363 . S
C424 C429 1.379 . S
C424 N431 1.356 . S
C425 C424 1.363 . S
C425 C428 1.363 . S
N426 C428 1.356 . S
N426 H438 0.984 . S
N426 H439 0.985 . S
N427 C429 1.356 . S
N427 H432 0.984 . S
N427 H433 0.985 . S
C428 C422 1.379 . S
C428 C425 1.363 . S
C428 N426 1.356 . S
C429 C423 1.363 . S
C429 C424 1.379 . S
C429 N427 1.356 . S
N430 C422 1.356 . S
N430 H436 0.984 . S
N430 H437 0.984 . S
N431 C424 1.356 . S
N431 H434 0.984 . S
N431 H435 0.985 . S
H432 N427 0.984 . S
H433 N427 0.985 . S
H434 N431 0.984 . S
H435 N431 0.985 . S
H436 N430 0.984 . S
H437 N430 0.984 . S
H438 N426 0.984 . S
H439 N426 0.985 . S
C440 C441 1.363 . S
C440 C446 1.379 1_455 S
C440 N448 1.356 . S
C441 C440 1.363 . S
C441 C447 1.363 . S
C442 C443 1.363 . S
C442 C447 1.379 1_655 S
C442 N449 1.356 . S
C443 C442 1.363 . S
C443 C446 1.363 . S
N444 C446 1.356 . S
N444 H456 0.984 . S
N444 H457 0.985 . S
N445 C447 1.356 . S
N445 H450 0.984 . S
N445 H451 0.985 . S
C446 C440 1.379 1_655 S
C446 C443 1.363 . S
C446 N444 1.356 . S
C447 C441 1.363 . S
C447 C442 1.379 1_455 S
C447 N445 1.356 . S
N448 C440 1.356 . S
N448 H454 0.984 . S
N448 H455 0.984 . S
N449 C442 1.356 . S
N449 H452 0.984 . S
N449 H453 0.985 . S
H450 N445 0.984 . S
H451 N445 0.985 . S
H452 N449 0.984 . S
H453 N449 0.985 . S
H454 N448 0.984 . S
H455 N448 0.984 . S
H456 N444 0.984 . S
H457 N444 0.985 . S
C458 C459 1.363 . S
C458 C464 1.379 . S
C458 N466 1.356 . S
C459 C458 1.363 . S
C459 C465 1.363 . S
C460 C461 1.363 . S
C460 C465 1.379 . S
C460 N467 1.356 . S
C461 C460 1.363 . S
C461 C464 1.363 . S
N462 C464 1.356 . S
N462 H474 0.984 . S
N462 H475 0.985 . S
N463 C465 1.356 . S
N463 H468 0.984 . S
N463 H469 0.985 . S
C464 C458 1.379 . S
C464 C461 1.363 . S
C464 N462 1.356 . S
C465 C459 1.363 . S
C465 C460 1.379 . S
C465 N463 1.356 . S
N466 C458 1.356 . S
N466 H472 0.984 . S
N466 H473 0.984 . S
N467 C460 1.356 . S
N467 H470 0.984 . S
N467 H471 0.985 . S
H468 N463 0.984 . S
H469 N463 0.985 . S
H470 N467 0.984 . S
H471 N467 0.985 . S
H472 N466 0.984 . S
H473 N466 0.984 . S
H474 N462 0.984 . S
H475 N462 0.985 . S
C476 C477 1.363 . S
C476 C482 1.379 . S
C476 N484 1.356 . S
C477 C476 1.363 . S
C477 C483 1.363 . S
C478 C479 1.363 . S
C478 C483 1.379 . S
C478 N485 1.356 . S
C479 C478 1.363 . S
C479 C482 1.363 . S
N480 C482 1.356 . S
N480 H492 0.984 . S
N480 H493 0.985 . S
N481 C483 1.356 . S
N481 H486 0.984 . S
N481 H487 0.985 . S
C482 C476 1.379 . S
C482 C479 1.363 . S
C482 N480 1.356 . S
C483 C477 1.363 . S
C483 C478 1.379 . S
C483 N481 1.356 . S
N484 C476 1.356 . S
N484 H490 0.984 . S
N484 H491 0.984 . S
N485 C478 1.356 . S
N485 H488 0.984 . S
N485 H489 0.985 . S
H486 N481 0.984 . S
H487 N481 0.985 . S
H488 N485 0.984 . S
H489 N485 0.985 . S
H490 N484 0.984 . S
H491 N484 0.984 . S
H492 N480 0.984 . S
H493 N480 0.985 . S
C494 C495 1.363 . S
C494 C500 1.379 1_455 S
C494 N502 1.356 . S
C495 C494 1.363 . S
C495 C501 1.363 . S
C496 C497 1.363 . S
C496 C501 1.379 1_655 S
C496 N503 1.356 . S
C497 C496 1.363 . S
C497 C500 1.363 . S
N498 C500 1.356 . S
N498 H510 0.984 . S
N498 H511 0.985 . S
N499 C501 1.356 . S
N499 H504 0.984 . S
N499 H505 0.985 . S
C500 C494 1.379 1_655 S
C500 C497 1.363 . S
C500 N498 1.356 . S
C501 C495 1.363 . S
C501 C496 1.379 1_455 S
C501 N499 1.356 . S
N502 C494 1.356 . S
N502 H508 0.984 . S
N502 H509 0.984 . S
N503 C496 1.356 . S
N503 H506 0.984 . S
N503 H507 0.985 . S
H504 N499 0.984 . S
H505 N499 0.985 . S
H506 N503 0.984 . S
H507 N503 0.985 . S
H508 N502 0.984 . S
H509 N502 0.984 . S
H510 N498 0.984 . S
H511 N498 0.985 . S
C512 C513 1.363 . S
C512 C518 1.379 . S
C512 N520 1.356 . S
C513 C512 1.363 . S
C513 C519 1.363 1_554 S
C514 C515 1.363 . S
C514 C519 1.379 . S
C514 N521 1.356 . S
C515 C514 1.363 . S
C515 C518 1.363 1_556 S
N516 C518 1.356 . S
N516 H528 0.984 . S
N516 H529 0.988 . S
N517 C519 1.356 . S
N517 H522 0.984 . S
N517 H523 0.985 . S
C518 C512 1.379 . S
C518 C515 1.363 1_554 S
C518 N516 1.356 . S
C519 C513 1.363 1_556 S
C519 C514 1.379 . S
C519 N517 1.356 . S
N520 C512 1.356 . S
N520 H526 0.984 . S
N520 H527 0.984 . S
N521 C514 1.356 . S
N521 H524 0.984 . S
N521 H525 0.985 . S
H522 N517 0.984 . S
H523 N517 0.985 . S
H524 N521 0.984 . S
H525 N521 0.985 . S
H526 N520 0.984 . S
H527 N520 0.984 . S
H528 N516 0.984 . S
H529 N516 0.988 . S
C530 C531 1.363 . S
C530 C536 1.379 . S
C530 N538 1.356 . S
C531 C530 1.363 . S
C531 C537 1.363 . S
C532 C533 1.363 . S
C532 C537 1.379 . S
C532 N539 1.356 . S
C533 C532 1.363 . S
C533 C536 1.363 . S
N534 C536 1.356 . S
N534 H546 0.984 . S
N534 H547 0.985 . S
N535 C537 1.356 . S
N535 H540 0.984 . S
N535 H541 0.985 . S
C536 C530 1.379 . S
C536 C533 1.363 . S
C536 N534 1.356 . S
C537 C531 1.363 . S
C537 C532 1.379 . S
C537 N535 1.356 . S
N538 C530 1.356 . S
N538 H544 0.984 . S
N538 H545 0.984 . S
N539 C532 1.356 . S
N539 H542 0.984 . S
N539 H543 0.985 . S
H540 N535 0.984 . S
H541 N535 0.985 . S
H542 N539 0.984 . S
H543 N539 0.985 . S
H544 N538 0.984 . S
H545 N538 0.984 . S
H546 N534 0.984 . S
H547 N534 0.985 . S
C548 C549 1.363 . S
C548 C554 1.379 . S
C548 N556 1.356 . S
C549 C548 1.363 . S
C549 C555 1.363 . S
C550 C551 1.363 . S
C550 C555 1.379 . S
C550 N557 1.356 . S
C551 C550 1.363 . S
C551 C554 1.363 . S
N552 C554 1.356 . S
N552 H564 0.984 . S
N552 H565 0.985 . S
N553 C555 1.356 . S
N553 H558 0.984 . S
N553 H559 0.985 . S
C554 C548 1.379 . S
C554 C551 1.363 . S
C554 N552 1.356 . S
C555 C549 1.363 . S
C555 C550 1.379 . S
C555 N553 1.356 . S
N556 C548 1.356 . S
N556 H562 0.984 . S
N556 H563 0.984 . S
N557 C550 1.356 . S
N557 H560 0.984 . S
N557 H561 0.985 . S
H558 N553 0.984 . S
H559 N553 0.985 . S
H560 N557 0.984 . S
H561 N557 0.985 . S
H562 N556 0.984 . S
H563 N556 0.984 . S
H564 N552 0.984 . S
H565 N552 0.985 . S
C566 C567 1.363 . S
C566 C572 1.379 . S
C566 N574 1.356 . S
C567 C566 1.363 . S
C567 C573 1.363 . S
C568 C569 1.363 . S
C568 C573 1.379 . S
C568 N575 1.356 . S
C569 C568 1.363 . S
C569 C572 1.363 . S
N570 C572 1.356 . S
N570 H582 0.984 . S
N570 H583 0.985 . S
N571 C573 1.356 . S
N571 H576 0.984 . S
N571 H577 0.985 . S
C572 C566 1.379 . S
C572 C569 1.363 . S
C572 N570 1.356 . S
C573 C567 1.363 . S
C573 C568 1.379 . S
C573 N571 1.356 . S
N574 C566 1.356 . S
N574 H580 0.984 . S
N574 H581 0.984 . S
N575 C568 1.356 . S
N575 H578 0.984 . S
N575 H579 0.985 . S
H576 N571 0.984 . S
H577 N571 0.985 . S
H578 N575 0.984 . S
H579 N575 0.985 . S
H580 N574 0.984 . S
H581 N574 0.984 . S
H582 N570 0.984 . S
H583 N570 0.985 . S
C584 C585 1.363 1_554 S
C584 C590 1.379 . S
C584 N592 1.356 . S
C585 C584 1.363 1_556 S
C585 C591 1.363 . S
C586 C587 1.363 1_556 S
C586 C591 1.379 . S
C586 N593 1.356 . S
C587 C586 1.363 1_554 S
C587 C590 1.363 . S
N588 C590 1.356 . S
N588 H600 0.984 . S
N588 H601 0.985 . S
N589 C591 1.356 . S
N589 H594 0.984 . S
N589 H595 0.985 . S
C590 C584 1.379 . S
C590 C587 1.363 . S
C590 N588 1.356 . S
C591 C585 1.363 . S
C591 C586 1.379 . S
C591 N589 1.356 . S
N592 C584 1.356 . S
N592 H598 0.984 . S
N592 H599 0.984 . S
N593 C586 1.356 . S
N593 H596 0.984 . S
N593 H597 0.985 . S
H594 N589 0.984 . S
H595 N589 0.985 . S
H596 N593 0.984 . S
H597 N593 0.985 . S
H598 N592 0.984 . S
H599 N592 0.984 . S
H600 N588 0.984 . S
H601 N588 0.985 . S
C602 C603 1.363 . S
C602 C608 1.379 . S
C602 N610 1.356 . S
C603 C602 1.363 . S
C603 C609 1.363 . S
C604 C605 1.363 . S
C604 C609 1.379 . S
C604 N611 1.356 . S
C605 C604 1.363 . S
C605 C608 1.363 . S
N606 C608 1.356 . S
N606 H618 0.984 . S
N606 H619 0.985 . S
N607 C609 1.356 . S
N607 H612 0.984 . S
N607 H613 0.985 . S
C608 C602 1.379 . S
C608 C605 1.363 . S
C608 N606 1.356 . S
C609 C603 1.363 . S
C609 C604 1.379 . S
C609 N607 1.356 . S
N610 C602 1.356 . S
N610 H616 0.984 . S
N610 H617 0.984 . S
N611 C604 1.356 . S
N611 H614 0.984 . S
N611 H615 0.985 . S
H612 N607 0.984 . S
H613 N607 0.985 . S
H614 N611 0.984 . S
H615 N611 0.985 . S
H616 N610 0.984 . S
H617 N610 0.984 . S
H618 N606 0.984 . S
H619 N606 0.985 . S
C620 C621 1.363 . S
C620 C626 1.379 . S
C620 N628 1.356 . S
C621 C620 1.363 . S
C621 C627 1.363 . S
C622 C623 1.363 . S
C622 C627 1.379 . S
C622 N629 1.356 . S
C623 C622 1.363 . S
C623 C626 1.363 . S
N624 C626 1.356 . S
N624 H636 0.984 . S
N624 H637 0.985 . S
N625 C627 1.356 . S
N625 H630 0.984 . S
N625 H631 0.985 . S
C626 C620 1.379 . S
C626 C623 1.363 . S
C626 N624 1.356 . S
C627 C621 1.363 . S
C627 C622 1.379 . S
C627 N625 1.356 . S
N628 C620 1.356 . S
N628 H634 0.984 . S
N628 H635 0.984 . S
N629 C622 1.356 . S
N629 H632 0.984 . S
N629 H633 0.985 . S
H630 N625 0.984 . S
H631 N625 0.985 . S
H632 N629 0.984 . S
H633 N629 0.985 . S
H634 N628 0.984 . S
H635 N628 0.984 . S
H636 N624 0.984 . S
H637 N624 0.985 . S
C638 C639 1.363 . S
C638 C644 1.379 . S
C638 N646 1.356 . S
C639 C638 1.363 . S
C639 C645 1.363 . S
C640 C641 1.363 . S
C640 C645 1.379 . S
C640 N647 1.356 . S
C641 C640 1.363 . S
C641 C644 1.363 . S
N642 C644 1.356 . S
N642 H654 0.984 . S
N642 H655 0.985 . S
N643 C645 1.356 . S
N643 H648 0.984 . S
N643 H649 0.985 . S
C644 C638 1.379 . S
C644 C641 1.363 . S
C644 N642 1.356 . S
C645 C639 1.363 . S
C645 C640 1.379 . S
C645 N643 1.356 . S
N646 C638 1.356 . S
N646 H652 0.984 . S
N646 H653 0.984 . S
N647 C640 1.356 . S
N647 H650 0.984 . S
N647 H651 0.985 . S
H648 N643 0.984 . S
H649 N643 0.985 . S
H650 N647 0.984 . S
H651 N647 0.985 . S
H652 N646 0.984 . S
H653 N646 0.984 . S
H654 N642 0.984 . S
H655 N642 0.985 . S
C656 C657 1.363 . S
C656 C662 1.379 1_545 S
C656 N664 1.356 . S
C657 C656 1.363 . S
C657 C663 1.363 . S
C658 C659 1.363 . S
C658 C663 1.379 1_565 S
C658 N665 1.356 . S
C659 C658 1.363 . S
C659 C662 1.363 . S
N660 C662 1.356 . S
N660 H672 0.984 . S
N660 H673 0.985 . S
N661 C663 1.356 . S
N661 H666 0.984 . S
N661 H667 0.985 . S
C662 C656 1.379 1_565 S
C662 C659 1.363 . S
C662 N660 1.356 . S
C663 C657 1.363 . S
C663 C658 1.379 1_545 S
C663 N661 1.356 . S
N664 C656 1.356 . S
N664 H670 0.984 . S
N664 H671 0.984 . S
N665 C658 1.356 . S
N665 H668 0.984 . S
N665 H669 0.985 . S
H666 N661 0.984 . S
H667 N661 0.985 . S
H668 N665 0.984 . S
H669 N665 0.985 . S
H670 N664 0.984 . S
H671 N664 0.984 . S
H672 N660 0.984 . S
H673 N660 0.985 . S
C674 C675 1.363 . S
C674 C680 1.379 . S
C674 N682 1.356 . S
C675 C674 1.363 . S
C675 C681 1.363 . S
C676 C677 1.363 . S
C676 C681 1.379 . S
C676 N683 1.356 . S
C677 C676 1.363 . S
C677 C680 1.363 . S
N678 C680 1.356 . S
N678 H690 0.984 . S
N678 H691 0.985 . S
N679 C681 1.356 . S
N679 H684 0.984 . S
N679 H685 0.985 . S
C680 C674 1.379 . S
C680 C677 1.363 . S
C680 N678 1.356 . S
C681 C675 1.363 . S
C681 C676 1.379 . S
C681 N679 1.356 . S
N682 C674 1.356 . S
N682 H688 0.984 . S
N682 H689 0.984 . S
N683 C676 1.356 . S
N683 H686 0.984 . S
N683 H687 0.985 . S
H684 N679 0.984 . S
H685 N679 0.985 . S
H686 N683 0.984 . S
H687 N683 0.985 . S
H688 N682 0.984 . S
H689 N682 0.984 . S
H690 N678 0.984 . S
H691 N678 0.985 . S
C692 C693 1.363 1_554 S
C692 C698 1.379 1_545 S
C692 N700 1.356 . S
C693 C692 1.363 1_556 S
C693 C699 1.363 . S
C694 C695 1.363 1_556 S
C694 C699 1.379 1_565 S
C694 N701 1.356 . S
C695 C694 1.363 1_554 S
C695 C698 1.363 . S
N696 C698 1.356 . S
N696 H708 0.984 . S
N696 H709 0.985 . S
N697 C699 1.356 . S
N697 H702 0.984 . S
N697 H703 0.985 . S
C698 C692 1.379 1_565 S
C698 C695 1.363 . S
C698 N696 1.356 . S
C699 C693 1.363 . S
C699 C694 1.379 1_545 S
C699 N697 1.356 . S
N700 C692 1.356 . S
N700 H706 0.984 . S
N700 H707 0.984 . S
N701 C694 1.356 . S
N701 H704 0.984 . S
N701 H705 0.985 . S
H702 N697 0.984 . S
H703 N697 0.985 . S
H704 N701 0.984 . S
H705 N701 0.985 . S
H706 N700 0.984 . S
H707 N700 0.984 . S
H708 N696 0.984 . S
H709 N696 0.985 . S
C710 C711 1.363 . S
C710 C716 1.379 . S
C710 N718 1.356 . S
C711 C710 1.363 . S
C711 C717 1.363 . S
C712 C713 1.363 . S
C712 C717 1.379 . S
C712 N719 1.356 . S
C713 C712 1.363 . S
C713 C716 1.363 . S
N714 C716 1.356 . S
N714 H726 0.984 . S
N714 H727 0.985 . S
N715 C717 1.356 . S
N715 H720 0.984 . S
N715 H721 0.985 . S
C716 C710 1.379 . S
C716 C713 1.363 . S
C716 N714 1.356 . S
C717 C711 1.363 . S
C717 C712 1.379 . S
C717 N715 1.356 . S
N718 C710 1.356 . S
N718 H724 0.984 . S
N718 H725 0.984 . S
N719 C712 1.356 . S
N719 H722 0.984 . S
N719 H723 0.985 . S
H720 N715 0.984 . S
H721 N715 0.985 . S
H722 N719 0.984 . S
H723 N719 0.985 . S
H724 N718 0.984 . S
H725 N718 0.984 . S
H726 N714 0.984 . S
H727 N714 0.985 . S
C728 C729 1.363 . S
C728 C734 1.379 1_545 S
C728 N736 1.356 . S
C729 C728 1.363 . S
C729 C735 1.363 . S
C730 C731 1.363 . S
C730 C735 1.379 1_565 S
C730 N737 1.356 . S
C731 C730 1.363 . S
C731 C734 1.363 . S
N732 C734 1.356 . S
N732 H744 0.984 . S
N732 H745 0.985 . S
N733 C735 1.356 . S
N733 H738 0.984 . S
N733 H739 0.985 . S
C734 C728 1.379 1_565 S
C734 C731 1.363 . S
C734 N732 1.356 . S
C735 C729 1.363 . S
C735 C730 1.379 1_545 S
C735 N733 1.356 . S
N736 C728 1.356 . S
N736 H742 0.984 . S
N736 H743 0.984 . S
N737 C730 1.356 . S
N737 H740 0.984 . S
N737 H741 0.985 . S
H738 N733 0.984 . S
H739 N733 0.985 . S
H740 N737 0.984 . S
H741 N737 0.985 . S
H742 N736 0.984 . S
H743 N736 0.984 . S
H744 N732 0.984 . S
H745 N732 0.985 . S
C746 C747 1.363 . S
C746 C752 1.379 . S
C746 N754 1.356 . S
C747 C746 1.363 . S
C747 C753 1.363 . S
C748 C749 1.363 . S
C748 C753 1.379 . S
C748 N755 1.356 . S
C749 C748 1.363 . S
C749 C752 1.363 . S
N750 C752 1.356 . S
N750 H762 0.984 . S
N750 H763 0.985 . S
N751 C753 1.356 . S
N751 H756 0.984 . S
N751 H757 0.985 . S
C752 C746 1.379 . S
C752 C749 1.363 . S
C752 N750 1.356 . S
C753 C747 1.363 . S
C753 C748 1.379 . S
C753 N751 1.356 . S
N754 C746 1.356 . S
N754 H760 0.984 . S
N754 H761 0.984 . S
N755 C748 1.356 . S
N755 H758 0.984 . S
N755 H759 0.985 . S
H756 N751 0.984 . S
H757 N751 0.985 . S
H758 N755 0.984 . S
H759 N755 0.985 . S
H760 N754 0.984 . S
H761 N754 0.984 . S
H762 N750 0.984 . S
H763 N750 0.985 . S
C764 C765 1.340 1_545 S
C764 C770 1.405 . S
C764 N772 1.345 1_545 S
C765 C764 1.340 1_565 S
C765 C771 1.363 1_554 S
C766 C767 1.363 . S
C766 C771 1.379 1_545 S
C766 N773 1.356 . S
C767 C766 1.363 . S
C767 C770 1.363 1_556 S
N768 C770 1.356 . S
N768 H780 0.984 . S
N768 H781 0.971 1_554 S
N769 C771 1.356 . S
N769 H774 0.984 . S
N769 H775 0.985 . S
C770 C764 1.405 . S
C770 C767 1.363 1_554 S
C770 N768 1.356 . S
C771 C765 1.363 1_556 S
C771 C766 1.379 1_565 S
C771 N769 1.356 . S
N772 C764 1.345 1_565 S
N772 H778 0.984 1_565 S
N772 H779 0.984 . S
N773 C766 1.356 . S
N773 H776 0.984 . S
N773 H777 0.985 . S
H774 N769 0.984 . S
H775 N769 0.985 . S
H776 N773 0.984 . S
H777 N773 0.985 . S
H778 N772 0.984 1_545 S
H779 N772 0.984 . S
H780 N768 0.984 . S
H781 N768 0.971 1_556 S
C782 C783 1.363 . S
C782 C788 1.379 . S
C782 N790 1.356 . S
C783 C782 1.363 . S
C783 C789 1.363 . S
C784 C785 1.363 . S
C784 C789 1.379 . S
C784 N791 1.356 . S
C785 C784 1.363 . S
C785 C788 1.363 . S
N786 C788 1.356 . S
N786 H798 0.984 . S
N786 H799 0.985 . S
N787 C789 1.356 . S
N787 H792 0.984 . S
N787 H793 0.985 . S
C788 C782 1.379 . S
C788 C785 1.363 . S
C788 N786 1.356 . S
C789 C783 1.363 . S
C789 C784 1.379 . S
C789 N787 1.356 . S
N790 C782 1.356 . S
N790 H796 0.984 . S
N790 H797 0.984 . S
N791 C784 1.356 . S
N791 H794 0.984 . S
N791 H795 0.985 . S
H792 N787 0.984 . S
H793 N787 0.985 . S
H794 N791 0.984 . S
H795 N791 0.985 . S
H796 N790 0.984 . S
H797 N790 0.984 . S
H798 N786 0.984 . S
H799 N786 0.985 . S
C225 C159 1.398 . S
C227 C5 1.395 . S
C243 C215 1.428 . S
C245 C23 1.418 . S
C261 C33 1.434 . S
C263 C135 1.420 . S
C279 C187 1.397 . S
C281 C51 1.393 . S
C297 C61 1.401 . S
C299 C191 1.388 . S
C315 C79 1.425 . S
C317 C163 1.424 . S
C333 C89 1.433 . S
C335 C219 1.427 . S
C351 C107 1.394 . S
C353 C131 1.404 . S
C369 C47 1.388 . S
C371 C117 1.395 . S
C387 C145 1.357 . S
C389 C19 1.355 . S
C405 C177 1.386 . S
C407 C75 1.392 . S
C423 C201 1.364 . S
C425 C103 1.357 . S
C441 C65 1.456 . S
C443 C121 1.456 . S
C459 C149 1.424 . S
C461 C93 1.430 . S
C477 C205 1.449 . S
C479 C37 1.456 . S
C495 C9 1.423 . S
C497 C173 1.429 . S
C513 C11 1.351 . S
C515 C67 1.351 . S
C531 C14 1.386 . S
C533 C70 1.386 . S
C549 C39 1.421 . S
C551 C95 1.420 . S
C567 C98 1.326 . S
C569 C42 1.326 . S
C585 C123 1.391 . S
C587 C168 1.386 . S
C603 C193 1.311 . S
C605 C137 1.310 . S
C621 C151 1.337 . S
C623 C207 1.337 . S
C639 C221 1.356 . S
C641 C154 1.351 . S
C657 C109 1.275 . S
C659 C25 1.276 . S
C675 C28 1.460 . S
C677 C56 1.460 . S
C693 C53 1.345 . S
C695 C81 1.345 . S
C711 C0 1.398 . S
C713 C84 1.399 . S
C729 C126 1.424 . S
C731 C210 1.424 . S
C747 C179 1.336 . S
C749 C140 1.331 . S
C765 C165 1.373 . S
C767 C182 1.368 . S
C783 C196 1.378 . S
C785 C112 1.377 . S
