# Generated by pormake.
# Topology qtz-x, (6)-cn, num edge types: 1
# Building blocks:
#     Node 0, Type 0, BuildingBlock: KUMBUR_clean_sbu_1, # of connection points: 6
#     Node 1, Type 0, BuildingBlock: KUMBUR_clean_sbu_1, # of connection points: 6
#     Node 2, Type 0, BuildingBlock: KUMBUR_clean_sbu_1, # of connection points: 6
#     Edge 3, Type (0, 0), BuildingBlock: UVAHIK_clean_linker_0, # of connection points: 2
#     Edge 4, Type (0, 0), BuildingBlock: UVAHIK_clean_linker_0, # of connection points: 2
#     Edge 5, Type (0, 0), BuildingBlock: UVAHIK_clean_linker_0, # of connection points: 2
#     Edge 6, Type (0, 0), BuildingBlock: UVAHIK_clean_linker_0, # of connection points: 2
#     Edge 7, Type (0, 0), BuildingBlock: UVAHIK_clean_linker_0, # of connection points: 2
#     Edge 8, Type (0, 0), BuildingBlock: UVAHIK_clean_linker_0, # of connection points: 2
#     Edge 9, Type (0, 0), BuildingBlock: UVAHIK_clean_linker_0, # of connection points: 2
#     Edge 10, Type (0, 0), BuildingBlock: UVAHIK_clean_linker_0, # of connection points: 2
#     Edge 11, Type (0, 0), BuildingBlock: UVAHIK_clean_linker_0, # of connection points: 2
# Relax obj value: 0.202
# Max RMSD: 0.276
# Mean RMSD: 0.276
data_MOF--net-qtz-x--node1-KUMBUR_clean_sbu_1--edge1-UVAHIK_clean_linker_0
_symmetry_space_group_name_H-M    P1
_symmetry_Int_Tables_number       1
_symmetry_cell_setting            triclinic
loop_
_symmetry_equiv_pos_as_xyz
'x, y, z'
_cell_length_a     19.347803
_cell_length_b     19.283946
_cell_length_c     63.532049
_cell_angle_alpha  90.023245
_cell_angle_beta   89.965096
_cell_angle_gamma 120.37237
loop_
_atom_site_label
_atom_site_type_symbol
_atom_site_fract_x
_atom_site_fract_y
_atom_site_fract_z
_atom_type_partial_charge
Tb0 Tb 0.94902 0.36493 0.15415 0.0
C1 C 0.30941 0.49266 0.15026 0.0
N2 N 0.25702 0.44215 0.16492 0.0
C3 C 0.30989 0.354 0.16069 0.0
C4 C 0.36138 0.47382 0.13942 0.0
C5 C 0.26028 0.37609 0.17117 0.0
C6 C 0.35955 0.40227 0.14444 0.0
C7 C 0.36949 0.62171 0.13262 0.0
C8 C 0.31366 0.56549 0.14691 0.0
C9 C 0.41908 0.60192 0.12107 0.0
C10 C 0.41489 0.52799 0.12443 0.0
Tb11 Tb 0.17362 0.48131 0.17943 0.0
N12 N 0.26288 0.58125 0.15785 0.0
C13 C 0.37384 0.6961 0.13048 0.0
C14 C 0.2695 0.65514 0.15668 0.0
C15 C 0.32439 0.71327 0.14279 0.0
H16 H 0.22583 0.34093 0.18448 0.0
H17 H 0.32853 0.77124 0.14159 0.0
H18 H 0.88536 0.4905 0.16459 0.0
H19 H 0.82445 0.04982 0.17364 0.0
H20 H 0.23205 0.66891 0.16632 0.0
H21 H 0.41599 0.74105 0.11966 0.0
H22 H 0.90617 0.17246 0.15307 0.0
H23 H 0.31064 0.30044 0.16538 0.0
H24 H 0.46158 0.64375 0.10974 0.0
H25 H 0.45458 0.51412 0.11572 0.0
H26 H 0.78623 0.49567 0.18818 0.0
H27 H 0.39842 0.38543 0.13647 0.0
H28 H 0.73344 0.04769 0.20132 0.0
N29 N 0.85878 0.3749 0.17506 0.0
C30 C 0.80979 0.30923 0.18679 0.0
C31 C 0.79282 0.44318 0.18809 0.0
C32 C 0.75239 0.30923 0.20042 0.0
C33 C 0.84917 0.44036 0.17485 0.0
C34 C 0.7449 0.37773 0.20113 0.0
N35 N 0.87135 0.24386 0.17076 0.0
C36 C 0.87118 0.17463 0.16597 0.0
C37 C 0.76655 0.1718 0.19637 0.0
C38 C 0.81734 0.24191 0.18483 0.0
C39 C 0.77142 0.10283 0.19279 0.0
C40 C 0.82297 0.10391 0.17725 0.0
H41 H 0.70134 0.38011 0.21137 0.0
H42 H 0.65958 0.23949 0.22327 0.0
H43 H 0.67176 0.11893 0.21969 0.0
O44 O 0.85466 0.28437 0.13465 0.0
O45 O 0.96967 0.40896 0.18684 0.0
O46 O 0.07052 0.38743 0.19613 0.0
O47 O 0.91673 0.41126 0.12838 0.0
O48 O 0.01931 0.30437 0.15183 0.0
O49 O 0.10581 0.34894 0.18052 0.0
O50 O 0.19339 0.5543 0.206 0.0
O51 O 0.14969 0.50128 0.14696 0.0
O52 O 0.0496 0.37997 0.13477 0.0
O53 O 0.26827 0.50419 0.19993 0.0
O54 O 0.10588 0.5443 0.18044 0.0
O55 O 0.01557 0.49632 0.15229 0.0
C56 C 0.00967 0.39551 0.20131 0.0
C57 C 0.78312 0.33506 0.11642 0.0
C58 C 0.6997 0.33709 0.08791 0.0
C59 C 0.63768 0.31776 0.10243 0.0
C60 C 0.7209 0.31596 0.13078 0.0
C61 C 0.64858 0.30771 0.12376 0.0
C62 C 0.77231 0.3458 0.09514 0.0
C63 C 0.06633 0.29636 0.16544 0.0
C64 C 0.85892 0.34093 0.12268 0.0
C65 C 0.70377 0.24063 0.21257 0.0
C66 C 0.71087 0.17205 0.21056 0.0
C67 C 0.11966 0.44561 0.13245 0.0
C68 C 0.32599 0.62716 0.21847 0.0
C69 C 0.40159 0.722 0.24651 0.0
C70 C 0.45665 0.77422 0.23148 0.0
C71 C 0.38256 0.67905 0.20374 0.0
C72 C 0.33614 0.64852 0.23984 0.0
C73 C 0.4473 0.75247 0.21024 0.0
C74 C 0.05937 0.55153 0.16644 0.0
C75 C 0.25563 0.5508 0.21208 0.0
H76 H 0.58118 0.31094 0.09731 0.0
H77 H 0.72771 0.3065 0.14724 0.0
H78 H 0.6006 0.29288 0.13486 0.0
H79 H 0.82009 0.3589 0.08406 0.0
H80 H 0.50771 0.83106 0.23623 0.0
H81 H 0.37707 0.66288 0.18729 0.0
H82 H 0.2926 0.60828 0.25126 0.0
H83 H 0.49059 0.79248 0.19879 0.0
Tb84 Tb 0.65587 0.14821 0.4856 0.0
C85 C 0.39003 0.78719 0.48731 0.0
N86 N 0.40418 0.84633 0.50125 0.0
C87 C 0.26363 0.80134 0.50217 0.0
C88 C 0.31247 0.73508 0.47944 0.0
C89 C 0.34144 0.85016 0.50984 0.0
C90 C 0.2493 0.74462 0.48655 0.0
C91 C 0.43937 0.70948 0.46954 0.0
C92 C 0.45228 0.7744 0.48242 0.0
C93 C 0.36331 0.66004 0.46067 0.0
C94 C 0.29997 0.67295 0.46557 0.0
Tb95 Tb 0.53499 0.92615 0.51136 0.0
N96 N 0.52497 0.82381 0.49118 0.0
C97 C 0.50279 0.69516 0.46645 0.0
C98 C 0.58584 0.80778 0.48919 0.0
C99 C 0.57601 0.74387 0.47657 0.0
H100 H 0.35086 0.88962 0.52291 0.0
H101 H 0.6248 0.73219 0.47467 0.0
H102 H 0.84393 0.20011 0.49339 0.0
H103 H 0.4842 0.28419 0.51193 0.0
H104 H 0.6422 0.84487 0.49713 0.0
H105 H 0.49533 0.64573 0.4567 0.0
H106 H 0.51433 0.20112 0.48879 0.0
H107 H 0.21455 0.80634 0.50863 0.0
H108 H 0.35231 0.61039 0.45049 0.0
H109 H 0.24099 0.6328 0.45917 0.0
H110 H 0.95565 0.29272 0.51658 0.0
H111 H 0.18878 0.7059 0.48089 0.0
H112 H 0.58106 0.36865 0.53936 0.0
N113 N 0.76236 0.23231 0.50606 0.0
C114 C 0.75198 0.28236 0.519 0.0
C115 C 0.89842 0.28986 0.51754 0.0
C116 C 0.81362 0.3359 0.53252 0.0
C117 C 0.83511 0.23728 0.50452 0.0
C118 C 0.88735 0.33871 0.53179 0.0
N119 N 0.6223 0.22825 0.50469 0.0
C120 C 0.5549 0.23299 0.50151 0.0
C121 C 0.66578 0.33055 0.5316 0.0
C122 C 0.67891 0.27912 0.51857 0.0
C123 C 0.59353 0.33002 0.52966 0.0
C124 C 0.53854 0.28212 0.51427 0.0
H125 H 0.93639 0.37919 0.5419 0.0
H126 H 0.84619 0.42636 0.55675 0.0
H127 H 0.71674 0.42191 0.5559 0.0
O128 O 0.66967 0.24419 0.46697 0.0
O129 O 0.68032 0.12128 0.51736 0.0
O130 O 0.55436 0.033 0.52807 0.0
O131 O 0.73507 0.18433 0.45977 0.0
O132 O 0.52424 0.08469 0.48326 0.0
O133 O 0.47928 0.00154 0.5125 0.0
O134 O 0.59394 0.91201 0.53748 0.0
O135 O 0.56735 0.93674 0.47772 0.0
O136 O 0.56481 0.04923 0.46676 0.0
O137 O 0.46813 0.83267 0.53278 0.0
O138 O 0.66571 0.98195 0.50896 0.0
O139 O 0.71038 0.07367 0.48109 0.0
C140 C 0.62681 0.09088 0.53232 0.0
C141 C 0.79448 0.32095 0.45003 0.0
C142 C 0.88727 0.40941 0.42328 0.0
C143 C 0.92127 0.47227 0.43799 0.0
C144 C 0.82944 0.38379 0.46476 0.0
C145 C 0.89294 0.45905 0.45873 0.0
C146 C 0.82437 0.33384 0.42948 0.0
C147 C 0.46809 0.04081 0.49714 0.0
C148 C 0.72341 0.2431 0.45497 0.0
C149 C 0.79983 0.38516 0.54609 0.0
C150 C 0.72601 0.38243 0.54565 0.0
C151 C 0.55777 0.97896 0.46294 0.0
C152 C 0.51176 0.87264 0.56747 0.0
C153 C 0.52994 0.86973 0.60543 0.0
C154 C 0.48593 0.9088 0.60846 0.0
C155 C 0.46708 0.91064 0.5709 0.0
C156 C 0.54289 0.852 0.58477 0.0
C157 C 0.45442 0.92863 0.59129 0.0
C158 C 0.7187 0.02561 0.49433 0.0
C159 C 0.52744 0.85665 0.54586 0.0
H160 H 0.96963 0.53115 0.43345 0.0
H161 H 0.80689 0.37528 0.4807 0.0
H162 H 0.91942 0.50755 0.47007 0.0
H163 H 0.79663 0.2856 0.41802 0.0
H164 H 0.47415 0.92232 0.62415 0.0
H165 H 0.44257 0.92716 0.55779 0.0
H166 H 0.57743 0.82271 0.58214 0.0
H167 H 0.4202 0.95824 0.59379 0.0
Tb168 Tb 0.69707 0.45031 0.81788 0.0
C169 C 0.59252 0.70604 0.82856 0.0
N170 N 0.65257 0.70268 0.83871 0.0
C171 C 0.74139 0.8433 0.83252 0.0
C172 C 0.60518 0.77841 0.81961 0.0
C173 C 0.7261 0.77001 0.84104 0.0
C174 C 0.68077 0.84751 0.82169 0.0
C175 C 0.45529 0.63701 0.8162 0.0
C176 C 0.51904 0.63571 0.8266 0.0
C177 C 0.46774 0.70876 0.80703 0.0
C178 C 0.54252 0.77925 0.80871 0.0
Tb179 Tb 0.62202 0.58005 0.85152 0.0
N180 N 0.50941 0.56696 0.83547 0.0
C181 C 0.3803 0.56676 0.81582 0.0
C182 C 0.43418 0.50091 0.8369 0.0
C183 C 0.36937 0.49897 0.8266 0.0
H184 H 0.77254 0.76727 0.84971 0.0
H185 H 0.31051 0.44569 0.82741 0.0
H186 H 0.54116 0.27252 0.80638 0.0
H187 H 0.9649 0.53905 0.86398 0.0
H188 H 0.42204 0.45011 0.84653 0.0
H189 H 0.32975 0.56527 0.80803 0.0
H190 H 0.87577 0.56243 0.84163 0.0
H191 H 0.79984 0.89648 0.83434 0.0
H192 H 0.41957 0.71062 0.79885 0.0
H193 H 0.55112 0.83417 0.80162 0.0
H194 H 0.49465 0.13016 0.81431 0.0
H195 H 0.69291 0.90429 0.81502 0.0
H196 H 0.92926 0.40044 0.87335 0.0
N197 N 0.64815 0.31724 0.82415 0.0
C198 C 0.69578 0.29914 0.8358 0.0
C199 C 0.55115 0.17712 0.82056 0.0
C200 C 0.67247 0.21879 0.84045 0.0
C201 C 0.57695 0.25779 0.81635 0.0
C202 C 0.59909 0.15747 0.83267 0.0
N203 N 0.78604 0.43877 0.83932 0.0
C204 C 0.85718 0.50185 0.84605 0.0
C205 C 0.8175 0.34563 0.8561 0.0
C206 C 0.76717 0.36187 0.8436 0.0
C207 C 0.88889 0.41033 0.8637 0.0
C208 C 0.90898 0.48868 0.85854 0.0
H209 H 0.57899 0.09492 0.83589 0.0
H210 H 0.70588 0.14095 0.85653 0.0
H211 H 0.83297 0.25197 0.87017 0.0
O212 O 0.79375 0.49103 0.79679 0.0
O213 O 0.66232 0.415 0.85089 0.0
O214 O 0.69867 0.5379 0.86457 0.0
O215 O 0.68059 0.38528 0.78994 0.0
O216 O 0.77992 0.58101 0.82021 0.0
O217 O 0.74993 0.62033 0.85179 0.0
O218 O 0.54912 0.54368 0.87866 0.0
O219 O 0.65623 0.61493 0.81846 0.0
O220 O 0.62612 0.49572 0.80277 0.0
O221 O 0.64502 0.66511 0.87521 0.0
O222 O 0.54209 0.44913 0.84879 0.0
O223 O 0.57082 0.41582 0.81625 0.0
C224 C 0.67633 0.4622 0.86711 0.0
C225 C 0.79523 0.38708 0.77717 0.0
C226 C 0.81456 0.31072 0.74949 0.0
C227 C 0.86879 0.30272 0.76253 0.0
C228 C 0.84919 0.37833 0.79007 0.0
C229 C 0.88571 0.33624 0.78273 0.0
C230 C 0.7783 0.35331 0.75699 0.0
C231 C 0.79648 0.63435 0.83526 0.0
C232 C 0.75465 0.43004 0.78419 0.0
C233 C 0.72264 0.20234 0.85282 0.0
C234 C 0.79499 0.26559 0.86061 0.0
C235 C 0.64391 0.5709 0.80157 0.0
C236 C 0.62153 0.60948 0.90917 0.0
C237 C 0.5966 0.58366 0.94678 0.0
C238 C 0.6747 0.59757 0.94937 0.0
C239 C 0.69996 0.62465 0.91213 0.0
C240 C 0.5703 0.5898 0.92659 0.0
C241 C 0.72628 0.61897 0.93215 0.0
C242 C 0.5233 0.39999 0.8326 0.0
C243 C 0.59239 0.61252 0.88798 0.0
H244 H 0.89738 0.26995 0.75721 0.0
H245 H 0.86331 0.40409 0.80571 0.0
H246 H 0.92725 0.32956 0.79273 0.0
H247 H 0.7374 0.36129 0.747 0.0
H248 H 0.69632 0.59355 0.96479 0.0
H249 H 0.74081 0.64055 0.89896 0.0
H250 H 0.50983 0.57837 0.92441 0.0
H251 H 0.78681 0.63086 0.93431 0.0
C252 C 0.03286 0.64977 0.14799 0.0
C253 C 0.05966 0.62782 0.16593 0.0
C254 C 0.0352 0.72312 0.14732 0.0
C255 C 0.13186 0.92245 0.17263 0.0
H256 H 0.95558 0.93504 0.14766 0.0
C257 C 0.08561 0.1923 0.18318 0.0
C258 C 0.06902 0.22172 0.16483 0.0
C259 C 0.08708 0.1209 0.18264 0.0
C260 C 0.00547 0.93232 0.15448 0.0
H261 H 0.10821 0.66419 0.19742 0.0
H262 H 0.11047 0.79139 0.19644 0.0
H263 H 0.95165 0.80661 0.14829 0.0
H264 H 0.04089 0.20021 0.13158 0.0
H265 H 0.04212 0.07416 0.13074 0.0
H266 H 0.18454 0.04798 0.17924 0.0
C267 C 0.08959 0.75295 0.18269 0.0
C268 C 0.00338 0.85906 0.15481 0.0
C269 C 0.08787 0.67994 0.18329 0.0
C270 C 0.05357 0.17852 0.14595 0.0
C271 C 0.05418 0.10663 0.14547 0.0
C272 C 0.13354 0.9955 0.17246 0.0
C273 C 0.06371 0.77547 0.16465 0.0
C274 C 0.06645 0.85337 0.16396 0.0
C275 C 0.07097 0.0774 0.16381 0.0
C276 C 0.07026 0.00083 0.16344 0.0
H277 H 0.01129 0.61097 0.13431 0.0
H278 H 0.01586 0.73933 0.1331 0.0
H279 H 0.18202 0.92023 0.17943 0.0
H280 H 0.09653 0.22394 0.19801 0.0
H281 H 0.09918 0.0988 0.19703 0.0
C282 C 0.36423 0.05299 0.4769 0.0
C283 C 0.39182 0.04042 0.49616 0.0
C284 C 0.29112 0.05091 0.47586 0.0
C285 C 0.09808 0.96656 0.50221 0.0
H286 H 0.08174 0.13783 0.47509 0.0
C287 C 0.81732 0.99437 0.51056 0.0
C288 C 0.79341 0.02275 0.49331 0.0
C289 C 0.88955 0.99472 0.51004 0.0
C290 C 0.08485 0.08877 0.48241 0.0
H291 H 0.36699 0.01997 0.52958 0.0
H292 H 0.23792 0.01382 0.52762 0.0
H293 H 0.21018 0.14259 0.47567 0.0
H294 H 0.82551 0.07208 0.46178 0.0
H295 H 0.95057 0.07047 0.46062 0.0
H296 H 0.9729 0.91171 0.50866 0.0
C297 C 0.27244 0.02431 0.51333 0.0
C298 C 0.1585 0.09181 0.4828 0.0
C299 C 0.34599 0.02753 0.51442 0.0
C300 C 0.8426 0.0503 0.47538 0.0
C301 C 0.91452 0.04983 0.47477 0.0
C302 C 0.02425 0.96295 0.50159 0.0
C303 C 0.24423 0.03562 0.49403 0.0
C304 C 0.16585 0.03117 0.49291 0.0
C305 C 0.93916 0.02257 0.49216 0.0
C306 C 0.01688 0.02448 0.49189 0.0
H307 H 0.39861 0.06332 0.4626 0.0
H308 H 0.27046 0.05962 0.46079 0.0
H309 H 0.10211 0.91847 0.50983 0.0
H310 H 0.78115 0.9735 0.5247 0.0
H311 H 0.90724 0.97473 0.52388 0.0
C312 C 0.90909 0.7514 0.85356 0.0
C313 C 0.87461 0.70942 0.83482 0.0
C314 C 0.98056 0.82502 0.85308 0.0
C315 C 0.10067 0.99599 0.8185 0.0
H316 H 0.26931 0.04762 0.85919 0.0
C317 C 0.40948 0.28577 0.81377 0.0
C318 C 0.44588 0.32405 0.83275 0.0
C319 C 0.33914 0.21106 0.8139 0.0
C320 C 0.22231 0.0345 0.8479 0.0
H321 H 0.88832 0.71029 0.80094 0.0
H322 H 0.01383 0.83938 0.80009 0.0
H323 H 0.14944 0.9145 0.85945 0.0
H324 H 0.43576 0.31632 0.86675 0.0
H325 H 0.31162 0.18648 0.86703 0.0
H326 H 0.17289 0.11617 0.8071 0.0
C327 C 0.9851 0.81546 0.81512 0.0
C328 C 0.1539 0.95821 0.84801 0.0
C329 C 0.91379 0.74143 0.81562 0.0
C330 C 0.4091 0.28783 0.85188 0.0
C331 C 0.33853 0.21319 0.85203 0.0
C332 C 0.16892 0.07244 0.81846 0.0
C333 C 0.01878 0.85822 0.83384 0.0
C334 C 0.0924 0.93827 0.83333 0.0
C335 C 0.30335 0.1735 0.83304 0.0
C336 C 0.23045 0.09258 0.83318 0.0
H337 H 0.88031 0.72787 0.86861 0.0
H338 H 0.00483 0.85696 0.86773 0.0
H339 H 0.0536 0.98259 0.80721 0.0
H340 H 0.43617 0.31294 0.79878 0.0
H341 H 0.31393 0.18188 0.79901 0.0
C342 C 0.5315 0.50301 0.97919 0.0
C343 C 0.54365 0.56481 0.96529 0.0
C344 C 0.48392 0.48724 0.99711 0.0
C345 C 0.42251 0.58282 0.03541 0.0
H346 H 0.237 0.37259 0.04571 0.0
C347 C 0.20288 0.53137 0.10282 0.0
C348 C 0.16552 0.45688 0.11308 0.0
C349 C 0.24901 0.5432 0.08483 0.0
C350 C 0.28942 0.4313 0.04334 0.0
H351 H 0.51651 0.659 0.95917 0.0
H352 H 0.43486 0.63283 0.99095 0.0
H353 H 0.31829 0.39491 0.01429 0.0
H354 H 0.14746 0.3367 0.11316 0.0
H355 H 0.23055 0.3577 0.08218 0.0
H356 H 0.39644 0.61906 0.06471 0.0
C357 C 0.46134 0.59605 0.98776 0.0
C358 C 0.3355 0.44402 0.02525 0.0
C359 C 0.50745 0.61063 0.96959 0.0
C360 C 0.17489 0.39427 0.1052 0.0
C361 C 0.22235 0.40646 0.08744 0.0
C362 C 0.37754 0.56977 0.05372 0.0
C363 C 0.44932 0.53432 1.00166 0.0
C364 C 0.40182 0.52009 0.02105 0.0
C365 C 0.2599 0.48107 0.07695 0.0
C366 C 0.30972 0.49407 0.05783 0.0
H367 H 0.55889 0.46705 0.97616 0.0
H368 H 0.47563 0.43951 0.00768 0.0
H369 H 0.47415 0.64176 0.03258 0.0
H370 H 0.19611 0.58038 0.10869 0.0
H371 H 0.27549 0.60096 0.07704 0.0
C372 C 0.9066 0.47793 0.38859 0.0
C373 C 0.91365 0.42193 0.40112 0.0
C374 C 0.91868 0.48006 0.36682 0.0
C375 C 0.91605 0.34782 0.32403 0.0
H376 H 0.00727 0.54199 0.29033 0.0
C377 C 0.01946 0.36317 0.23867 0.0
C378 C 0.99256 0.39806 0.2238 0.0
C379 C 0.00642 0.36742 0.26007 0.0
C380 C 0.98093 0.48734 0.29959 0.0
H381 H 0.94355 0.32797 0.40126 0.0
H382 H 0.96848 0.33395 0.36351 0.0
H383 H -0.00199 0.55085 0.32857 0.0
H384 H 0.93107 0.46495 0.2196 0.0
H385 H 0.90936 0.47353 0.25736 0.0
H386 H 0.90149 0.28485 0.29512 0.0
C387 C 0.95062 0.3742 0.37018 0.0
C388 C 0.97557 0.49227 0.32146 0.0
C389 C 0.93731 0.37128 0.39182 0.0
C390 C 0.95201 0.43715 0.23074 0.0
C391 C 0.94011 0.44257 0.25228 0.0
C392 C 0.92243 0.34313 0.30229 0.0
C393 C 0.93887 0.42672 0.35729 0.0
C394 C 0.94382 0.42255 0.33398 0.0
C395 C 0.96721 0.4076 0.26709 0.0
C396 C 0.9555 0.41281 0.2899 0.0
H397 H 0.88761 0.51702 0.39547 0.0
H398 H 0.90864 0.52093 0.35741 0.0
H399 H 0.889 0.29256 0.33303 0.0
H400 H 0.05068 0.33247 0.23376 0.0
H401 H 0.02828 0.34042 0.27121 0.0
C402 C 0.66648 0.68585 0.77836 0.0
C403 C 0.64046 0.6038 0.78079 0.0
C404 C 0.66127 0.71626 0.75882 0.0
C405 C 0.55516 0.65091 0.70779 0.0
H406 H 0.72024 0.86169 0.68886 0.0
C407 C 0.54594 0.76592 0.62501 0.0
C408 C 0.55831 0.84416 0.62395 0.0
C409 C 0.56372 0.73841 0.64341 0.0
C410 C 0.67348 0.8029 0.69399 0.0
H411 H 0.59137 0.48987 0.76433 0.0
H412 H 0.58403 0.5431 0.73024 0.0
H413 H 0.73541 0.80985 0.72256 0.0
H414 H 0.60352 0.95657 0.64088 0.0
H415 H 0.63404 0.90831 0.67312 0.0
H416 H 0.49313 0.64393 0.67932 0.0
C417 C 0.60643 0.5837 0.74355 0.0
C418 C 0.68201 0.77326 0.71333 0.0
C419 C 0.61118 0.55326 0.7631 0.0
C420 C 0.59239 0.89558 0.64134 0.0
C421 C 0.61051 0.86817 0.65973 0.0
C422 C 0.54683 0.68035 0.68847 0.0
C423 C 0.6307 0.66542 0.74119 0.0
C424 C 0.62279 0.69694 0.72049 0.0
C425 C 0.59461 0.78864 0.66114 0.0
C426 C 0.60573 0.75674 0.68135 0.0
H427 H 0.69113 0.7268 0.79152 0.0
H428 H 0.68003 0.77939 0.75763 0.0
H429 H 0.50761 0.5926 0.71297 0.0
H430 H 0.51943 0.7248 0.61191 0.0
H431 H 0.55193 0.67722 0.6439 0.0
C432 C 0.61568 0.36154 0.89598 0.0
C433 C 0.67974 0.43354 0.88824 0.0
C434 C 0.61475 0.34011 0.91708 0.0
C435 C 0.60561 0.34961 0.96507 0.0
H436 H 0.79861 0.38625 0.99342 0.0
C437 C 0.75146 0.409 0.05365 0.0
C438 C 0.68923 0.34622 0.06513 0.0
C439 C 0.74592 0.41338 0.03186 0.0
C440 C 0.74435 0.37641 0.98578 0.0
H441 H 0.79534 0.53671 0.89555 0.0
H442 H 0.79496 0.49875 0.93218 0.0
H443 H 0.7988 0.39983 0.95532 0.0
H444 H 0.57105 0.24032 0.06285 0.0
H445 H 0.56122 0.248 0.0246 0.0
H446 H 0.55175 0.32797 0.99566 0.0
C447 C 0.74487 0.45915 0.92224 0.0
C448 C 0.74441 0.38386 0.96394 0.0
C449 C 0.745 0.48124 0.90135 0.0
C450 C 0.61975 0.28968 0.05442 0.0
C451 C 0.61422 0.294 0.03253 0.0
C452 C 0.60559 0.34234 0.98699 0.0
C453 C 0.6788 0.38958 0.93052 0.0
C454 C 0.67557 0.37212 0.95337 0.0
C455 C 0.67806 0.35499 0.02097 0.0
C456 C 0.67552 0.35726 0.99761 0.0
H457 H 0.56492 0.32383 0.88599 0.0
H458 H 0.56355 0.28556 0.92295 0.0
H459 H 0.55186 0.34102 0.95739 0.0
H460 H 0.80508 0.45435 0.06152 0.0
H461 H 0.79523 0.46237 0.0235 0.0
C462 C 0.40996 0.6892 0.28425 0.0
C463 C 0.41277 0.74376 0.26913 0.0
C464 C 0.42236 0.71037 0.30555 0.0
C465 C 0.40764 0.84099 0.34456 0.0
H466 H 0.56882 0.82025 0.37557 0.0
C467 C 0.51488 0.98539 0.42619 0.0
C468 C 0.53746 0.94699 0.44119 0.0
C469 C 0.49657 0.95661 0.40558 0.0
C470 C 0.52248 0.8251 0.36733 0.0
H471 H 0.4291 0.86237 0.2644 0.0
H472 H 0.44919 0.89885 0.30175 0.0
H473 H 0.54094 0.77607 0.339 0.0
H474 H 0.56075 0.84958 0.44596 0.0
H475 H 0.52405 0.79605 0.41046 0.0
H476 H 0.38729 0.88805 0.37282 0.0
C477 C 0.43803 0.84003 0.29707 0.0
C478 C 0.50691 0.80012 0.34633 0.0
C479 C 0.42707 0.81943 0.27573 0.0
C480 C 0.54144 0.87917 0.43503 0.0
C481 C 0.52179 0.84943 0.41447 0.0
C482 C 0.42217 0.86473 0.36565 0.0
C483 C 0.43632 0.78591 0.31215 0.0
C484 C 0.45009 0.80879 0.33468 0.0
C485 C 0.49935 0.88797 0.39941 0.0
C486 C 0.48064 0.85822 0.37727 0.0
H487 H 0.39947 0.63065 0.27954 0.0
H488 H 0.4204 0.66747 0.31689 0.0
H489 H 0.36272 0.84729 0.33599 0.0
H490 H 0.51167 0.03823 0.43028 0.0
H491 H 0.48151 0.98928 0.3944 0.0
C492 C 0.85759 0.28553 0.71432 0.0
C493 C 0.79616 0.27644 0.72792 0.0
C494 C 0.84073 0.26097 0.6933 0.0
C495 C 0.69568 0.23157 0.65226 0.0
H496 H 0.78527 0.12103 0.62175 0.0
C497 C 0.72881 0.14548 0.56113 0.0
C498 C 0.64965 0.11548 0.55434 0.0
C499 C 0.74893 0.16502 0.5823 0.0
C500 C 0.76066 0.15282 0.63002 0.0
H501 H 0.66824 0.22929 0.73055 0.0
H502 H 0.63903 0.18692 0.69393 0.0
H503 H 0.81562 0.15113 0.65919 0.0
H504 H 0.53042 0.08583 0.56392 0.0
H505 H 0.56485 0.11837 0.60091 0.0
H506 H 0.64133 0.23418 0.62323 0.0
C507 C 0.70039 0.21451 0.69938 0.0
C508 C 0.77784 0.16979 0.65144 0.0
C509 C 0.71713 0.23879 0.72034 0.0
C510 C 0.59158 0.10753 0.56887 0.0
C511 C 0.61156 0.127 0.58999 0.0
C512 C 0.67882 0.21497 0.63091 0.0
C513 C 0.76221 0.22705 0.68551 0.0
C514 C 0.745 0.20886 0.66279 0.0
C515 C 0.69031 0.15542 0.59699 0.0
C516 C 0.71067 0.175 0.61956 0.0
H517 H 0.91913 0.31474 0.71968 0.0
H518 H 0.88962 0.27165 0.68293 0.0
H519 H 0.67082 0.26323 0.66049 0.0
H520 H 0.77481 0.15247 0.55016 0.0
H521 H 0.81039 0.188 0.58716 0.0
loop_
_geom_bond_atom_site_label_1
_geom_bond_atom_site_label_2
_geom_bond_distance
_geom_bond_site_symmetry_2
_ccdc_geom_bond_type
Tb0 N29 2.617 . S
Tb0 N35 2.572 . S
Tb0 O44 2.465 . S
Tb0 O45 2.387 . S
Tb0 O47 2.428 . S
Tb0 O48 2.308 . S
Tb0 O52 2.349 1_655 S
Tb0 O55 2.393 . S
Tb0 C64 2.802 . S
C1 N2 1.379 . S
C1 C4 1.416 . S
C1 C8 1.424 . S
N2 C1 1.379 . S
N2 C5 1.334 . S
N2 Tb11 2.617 . S
C3 C5 1.390 . S
C3 C6 1.339 . S
C3 H23 0.930 . S
C4 C1 1.416 . S
C4 C6 1.416 . S
C4 C10 1.448 . S
C5 N2 1.334 . S
C5 C3 1.390 . S
C5 H16 0.930 . S
C6 C3 1.339 . S
C6 C4 1.416 . S
C6 H27 0.930 . S
C7 C8 1.413 . S
C7 C9 1.427 . S
C7 C13 1.416 . S
C8 C1 1.424 . S
C8 C7 1.413 . S
C8 N12 1.361 . S
C9 C7 1.427 . S
C9 C10 1.328 . S
C9 H24 0.929 . S
C10 C4 1.448 . S
C10 C9 1.328 . S
C10 H25 0.930 . S
Tb11 N2 2.617 . S
Tb11 N12 2.572 . S
Tb11 O46 2.349 1_455 S
Tb11 O49 2.393 . S
Tb11 O50 2.465 . S
Tb11 O51 2.387 . S
Tb11 O53 2.428 . S
Tb11 O54 2.308 . S
Tb11 C75 2.802 . S
N12 C8 1.361 . S
N12 Tb11 2.572 . S
N12 C14 1.340 . S
C13 C7 1.416 . S
C13 C15 1.332 . S
C13 H21 0.931 . S
C14 N12 1.340 . S
C14 C15 1.407 . S
C14 H20 0.930 . S
C15 C13 1.332 . S
C15 C14 1.407 . S
C15 H17 0.929 . S
H16 C5 0.930 . S
H17 C15 0.929 . S
H18 C33 0.930 . S
H19 C40 0.929 . S
H20 C14 0.930 . S
H21 C13 0.931 . S
H22 C36 0.930 . S
H23 C3 0.930 . S
H24 C9 0.929 . S
H25 C10 0.930 . S
H26 C31 0.930 . S
H27 C6 0.930 . S
H28 C39 0.931 . S
N29 Tb0 2.617 . S
N29 C30 1.379 . S
N29 C33 1.334 . S
C30 N29 1.379 . S
C30 C32 1.416 . S
C30 C38 1.424 . S
C31 H26 0.930 . S
C31 C33 1.390 . S
C31 C34 1.339 . S
C32 C30 1.416 . S
C32 C34 1.416 . S
C32 C65 1.448 . S
C33 H18 0.930 . S
C33 N29 1.334 . S
C33 C31 1.390 . S
C34 C31 1.339 . S
C34 C32 1.416 . S
C34 H41 0.930 . S
N35 Tb0 2.572 . S
N35 C36 1.340 . S
N35 C38 1.361 . S
C36 H22 0.930 . S
C36 N35 1.340 . S
C36 C40 1.407 . S
C37 C38 1.413 . S
C37 C39 1.416 . S
C37 C66 1.427 . S
C38 C30 1.424 . S
C38 N35 1.361 . S
C38 C37 1.413 . S
C39 H28 0.931 . S
C39 C37 1.416 . S
C39 C40 1.332 . S
C40 H19 0.929 . S
C40 C36 1.407 . S
C40 C39 1.332 . S
H41 C34 0.930 . S
H42 C65 0.930 . S
H43 C66 0.929 . S
O44 Tb0 2.465 . S
O44 C64 1.264 . S
O45 Tb0 2.387 . S
O45 C56 1.264 . S
O46 Tb11 2.349 1_655 S
O46 C56 1.243 . S
O47 Tb0 2.428 . S
O47 C64 1.256 . S
O48 Tb0 2.308 . S
O48 C63 1.266 . S
O49 Tb11 2.393 . S
O49 C63 1.248 1_455 S
O50 Tb11 2.465 . S
O50 C75 1.264 . S
O51 Tb11 2.387 . S
O51 C67 1.264 . S
O52 Tb0 2.349 1_455 S
O52 C67 1.243 . S
O53 Tb11 2.428 . S
O53 C75 1.256 . S
O54 Tb11 2.308 . S
O54 C74 1.266 . S
O55 Tb0 2.393 . S
O55 C74 1.248 1_655 S
C56 O45 1.264 . S
C56 O46 1.243 . S
C57 C60 1.399 . S
C57 C62 1.383 . S
C57 C64 1.496 . S
C58 C59 1.399 . S
C58 C62 1.389 . S
C59 C58 1.399 . S
C59 C61 1.380 . S
C59 H76 0.929 . S
C60 C57 1.399 . S
C60 C61 1.392 . S
C60 H77 0.929 . S
C61 C59 1.380 . S
C61 C60 1.392 . S
C61 H78 0.929 . S
C62 C57 1.383 . S
C62 C58 1.389 . S
C62 H79 0.931 . S
C63 O48 1.266 . S
C63 O49 1.248 1_655 S
C64 Tb0 2.802 . S
C64 O44 1.264 . S
C64 O47 1.256 . S
C64 C57 1.496 . S
C65 C32 1.448 . S
C65 H42 0.930 . S
C65 C66 1.328 . S
C66 C37 1.427 . S
C66 H43 0.929 . S
C66 C65 1.328 . S
C67 O51 1.264 . S
C67 O52 1.243 . S
C68 C71 1.399 . S
C68 C72 1.383 . S
C68 C75 1.496 . S
C69 C70 1.399 . S
C69 C72 1.389 . S
C70 C69 1.399 . S
C70 C73 1.380 . S
C70 H80 0.929 . S
C71 C68 1.399 . S
C71 C73 1.392 . S
C71 H81 0.929 . S
C72 C68 1.383 . S
C72 C69 1.389 . S
C72 H82 0.931 . S
C73 C70 1.380 . S
C73 C71 1.392 . S
C73 H83 0.929 . S
C74 O54 1.266 . S
C74 O55 1.248 1_455 S
C75 Tb11 2.802 . S
C75 O50 1.264 . S
C75 O53 1.256 . S
C75 C68 1.496 . S
H76 C59 0.929 . S
H77 C60 0.929 . S
H78 C61 0.929 . S
H79 C62 0.931 . S
H80 C70 0.929 . S
H81 C71 0.929 . S
H82 C72 0.931 . S
H83 C73 0.929 . S
Tb84 N113 2.617 . S
Tb84 N119 2.572 . S
Tb84 O128 2.465 . S
Tb84 O129 2.387 . S
Tb84 O131 2.428 . S
Tb84 O132 2.308 . S
Tb84 O136 2.349 . S
Tb84 O139 2.393 . S
Tb84 C148 2.802 . S
C85 N86 1.379 . S
C85 C88 1.416 . S
C85 C92 1.424 . S
N86 C85 1.379 . S
N86 C89 1.334 . S
N86 Tb95 2.617 1_565 S
C87 C89 1.390 . S
C87 C90 1.339 . S
C87 H107 0.930 . S
C88 C85 1.416 . S
C88 C90 1.416 . S
C88 C94 1.448 . S
C89 N86 1.334 . S
C89 C87 1.390 . S
C89 H100 0.930 . S
C90 C87 1.339 . S
C90 C88 1.416 . S
C90 H111 0.930 . S
C91 C92 1.413 . S
C91 C93 1.427 . S
C91 C97 1.416 . S
C92 C85 1.424 . S
C92 C91 1.413 . S
C92 N96 1.361 . S
C93 C91 1.427 . S
C93 C94 1.328 . S
C93 H108 0.929 . S
C94 C88 1.448 . S
C94 C93 1.328 . S
C94 H109 0.930 . S
Tb95 N86 2.617 1_545 S
Tb95 N96 2.572 1_545 S
Tb95 O130 2.349 . S
Tb95 O133 2.393 . S
Tb95 O134 2.465 1_545 S
Tb95 O135 2.387 . S
Tb95 O137 2.428 1_545 S
Tb95 O138 2.308 . S
Tb95 C159 2.802 1_545 S
N96 C92 1.361 . S
N96 Tb95 2.572 1_565 S
N96 C98 1.340 . S
C97 C91 1.416 . S
C97 C99 1.332 . S
C97 H105 0.931 . S
C98 N96 1.340 . S
C98 C99 1.407 . S
C98 H104 0.930 . S
C99 C97 1.332 . S
C99 C98 1.407 . S
C99 H101 0.929 . S
H100 C89 0.930 . S
H101 C99 0.929 . S
H102 C117 0.930 . S
H103 C124 0.929 . S
H104 C98 0.930 . S
H105 C97 0.931 . S
H106 C120 0.930 . S
H107 C87 0.930 . S
H108 C93 0.929 . S
H109 C94 0.930 . S
H110 C115 0.930 . S
H111 C90 0.930 . S
H112 C123 0.931 . S
N113 Tb84 2.617 . S
N113 C114 1.379 . S
N113 C117 1.334 . S
C114 N113 1.379 . S
C114 C116 1.416 . S
C114 C122 1.424 . S
C115 H110 0.930 . S
C115 C117 1.390 1_455 S
C115 C118 1.339 . S
C116 C114 1.416 . S
C116 C118 1.416 1_655 S
C116 C149 1.448 . S
C117 H102 0.930 . S
C117 N113 1.334 . S
C117 C115 1.390 1_655 S
C118 C115 1.339 . S
C118 C116 1.416 1_455 S
C118 H125 0.930 . S
N119 Tb84 2.572 . S
N119 C120 1.340 . S
N119 C122 1.361 . S
C120 H106 0.930 . S
C120 N119 1.340 . S
C120 C124 1.407 . S
C121 C122 1.413 . S
C121 C123 1.416 . S
C121 C150 1.427 . S
C122 C114 1.424 . S
C122 N119 1.361 . S
C122 C121 1.413 . S
C123 H112 0.931 . S
C123 C121 1.416 . S
C123 C124 1.332 . S
C124 H103 0.929 . S
C124 C120 1.407 . S
C124 C123 1.332 . S
H125 C118 0.930 . S
H126 C149 0.930 1_455 S
H127 C150 0.929 . S
O128 Tb84 2.465 . S
O128 C148 1.264 . S
O129 Tb84 2.387 . S
O129 C140 1.264 . S
O130 Tb95 2.349 . S
O130 C140 1.243 . S
O131 Tb84 2.428 . S
O131 C148 1.256 . S
O132 Tb84 2.308 . S
O132 C147 1.266 . S
O133 Tb95 2.393 . S
O133 C147 1.248 . S
O134 Tb95 2.465 1_565 S
O134 C159 1.264 . S
O135 Tb95 2.387 . S
O135 C151 1.264 . S
O136 Tb84 2.349 . S
O136 C151 1.243 . S
O137 Tb95 2.428 1_565 S
O137 C159 1.256 . S
O138 Tb95 2.308 . S
O138 C158 1.266 . S
O139 Tb84 2.393 . S
O139 C158 1.248 . S
C140 O129 1.264 . S
C140 O130 1.243 . S
C141 C144 1.399 . S
C141 C146 1.383 . S
C141 C148 1.496 . S
C142 C143 1.399 . S
C142 C146 1.389 . S
C143 C142 1.399 . S
C143 C145 1.380 . S
C143 H160 0.929 . S
C144 C141 1.399 . S
C144 C145 1.392 . S
C144 H161 0.929 . S
C145 C143 1.380 . S
C145 C144 1.392 . S
C145 H162 0.929 . S
C146 C141 1.383 . S
C146 C142 1.389 . S
C146 H163 0.931 . S
C147 O132 1.266 . S
C147 O133 1.248 . S
C148 Tb84 2.802 . S
C148 O128 1.264 . S
C148 O131 1.256 . S
C148 C141 1.496 . S
C149 C116 1.448 . S
C149 H126 0.930 1_655 S
C149 C150 1.328 . S
C150 C121 1.427 . S
C150 H127 0.929 . S
C150 C149 1.328 . S
C151 O135 1.264 . S
C151 O136 1.243 . S
C152 C155 1.399 . S
C152 C156 1.383 . S
C152 C159 1.496 . S
C153 C154 1.399 . S
C153 C156 1.389 . S
C154 C153 1.399 . S
C154 C157 1.380 . S
C154 H164 0.929 . S
C155 C152 1.399 . S
C155 C157 1.392 . S
C155 H165 0.929 . S
C156 C152 1.383 . S
C156 C153 1.389 . S
C156 H166 0.931 . S
C157 C154 1.380 . S
C157 C155 1.392 . S
C157 H167 0.929 . S
C158 O138 1.266 . S
C158 O139 1.248 . S
C159 Tb95 2.802 1_565 S
C159 O134 1.264 . S
C159 O137 1.256 . S
C159 C152 1.496 . S
H160 C143 0.929 . S
H161 C144 0.929 . S
H162 C145 0.929 . S
H163 C146 0.931 . S
H164 C154 0.929 . S
H165 C155 0.929 . S
H166 C156 0.931 . S
H167 C157 0.929 . S
Tb168 N197 2.617 . S
Tb168 N203 2.572 . S
Tb168 O212 2.465 . S
Tb168 O213 2.387 . S
Tb168 O215 2.428 . S
Tb168 O216 2.308 . S
Tb168 O220 2.349 . S
Tb168 O223 2.393 . S
Tb168 C232 2.802 . S
C169 N170 1.379 . S
C169 C172 1.416 . S
C169 C176 1.424 . S
N170 C169 1.379 . S
N170 C173 1.334 . S
N170 Tb179 2.617 . S
C171 C173 1.390 . S
C171 C174 1.339 . S
C171 H191 0.930 . S
C172 C169 1.416 . S
C172 C174 1.416 . S
C172 C178 1.448 . S
C173 N170 1.334 . S
C173 C171 1.390 . S
C173 H184 0.930 . S
C174 C171 1.339 . S
C174 C172 1.416 . S
C174 H195 0.930 . S
C175 C176 1.413 . S
C175 C177 1.427 . S
C175 C181 1.416 . S
C176 C169 1.424 . S
C176 C175 1.413 . S
C176 N180 1.361 . S
C177 C175 1.427 . S
C177 C178 1.328 . S
C177 H192 0.929 . S
C178 C172 1.448 . S
C178 C177 1.328 . S
C178 H193 0.930 . S
Tb179 N170 2.617 . S
Tb179 N180 2.572 . S
Tb179 O214 2.349 . S
Tb179 O217 2.393 . S
Tb179 O218 2.465 . S
Tb179 O219 2.387 . S
Tb179 O221 2.428 . S
Tb179 O222 2.308 . S
Tb179 C243 2.802 . S
N180 C176 1.361 . S
N180 Tb179 2.572 . S
N180 C182 1.340 . S
C181 C175 1.416 . S
C181 C183 1.332 . S
C181 H189 0.931 . S
C182 N180 1.340 . S
C182 C183 1.407 . S
C182 H188 0.930 . S
C183 C181 1.332 . S
C183 C182 1.407 . S
C183 H185 0.929 . S
H184 C173 0.930 . S
H185 C183 0.929 . S
H186 C201 0.930 . S
H187 C208 0.929 1_455 S
H188 C182 0.930 . S
H189 C181 0.931 . S
H190 C204 0.930 . S
H191 C171 0.930 . S
H192 C177 0.929 . S
H193 C178 0.930 . S
H194 C199 0.930 . S
H195 C174 0.930 . S
H196 C207 0.921 1_455 S
N197 Tb168 2.617 . S
N197 C198 1.379 . S
N197 C201 1.334 . S
C198 N197 1.379 . S
C198 C200 1.416 . S
C198 C206 1.424 . S
C199 H194 0.930 . S
C199 C201 1.390 . S
C199 C202 1.339 . S
C200 C198 1.416 . S
C200 C202 1.416 . S
C200 C233 1.448 . S
C201 H186 0.930 . S
C201 N197 1.334 . S
C201 C199 1.390 . S
C202 C199 1.339 . S
C202 C200 1.416 . S
C202 H209 0.930 . S
N203 Tb168 2.572 . S
N203 C204 1.340 . S
N203 C206 1.361 . S
C204 H190 0.930 . S
C204 N203 1.340 . S
C204 C208 1.407 . S
C205 C206 1.413 . S
C205 C207 1.416 . S
C205 C234 1.427 . S
C206 C198 1.424 . S
C206 N203 1.361 . S
C206 C205 1.413 . S
C207 H196 0.921 1_655 S
C207 C205 1.416 . S
C207 C208 1.332 . S
C208 H187 0.929 1_655 S
C208 C204 1.407 . S
C208 C207 1.332 . S
H209 C202 0.930 . S
H210 C233 0.930 . S
H211 C234 0.929 . S
O212 Tb168 2.465 . S
O212 C232 1.264 . S
O213 Tb168 2.387 . S
O213 C224 1.264 . S
O214 Tb179 2.349 . S
O214 C224 1.243 . S
O215 Tb168 2.428 . S
O215 C232 1.256 . S
O216 Tb168 2.308 . S
O216 C231 1.266 . S
O217 Tb179 2.393 . S
O217 C231 1.248 . S
O218 Tb179 2.465 . S
O218 C243 1.264 . S
O219 Tb179 2.387 . S
O219 C235 1.264 . S
O220 Tb168 2.349 . S
O220 C235 1.243 . S
O221 Tb179 2.428 . S
O221 C243 1.256 . S
O222 Tb179 2.308 . S
O222 C242 1.266 . S
O223 Tb168 2.393 . S
O223 C242 1.248 . S
C224 O213 1.264 . S
C224 O214 1.243 . S
C225 C228 1.399 . S
C225 C230 1.383 . S
C225 C232 1.496 . S
C226 C227 1.399 . S
C226 C230 1.389 . S
C227 C226 1.399 . S
C227 C229 1.380 . S
C227 H244 0.929 . S
C228 C225 1.399 . S
C228 C229 1.392 . S
C228 H245 0.929 . S
C229 C227 1.380 . S
C229 C228 1.392 . S
C229 H246 0.929 . S
C230 C225 1.383 . S
C230 C226 1.389 . S
C230 H247 0.931 . S
C231 O216 1.266 . S
C231 O217 1.248 . S
C232 Tb168 2.802 . S
C232 O212 1.264 . S
C232 O215 1.256 . S
C232 C225 1.496 . S
C233 C200 1.448 . S
C233 H210 0.930 . S
C233 C234 1.328 . S
C234 C205 1.427 . S
C234 H211 0.929 . S
C234 C233 1.328 . S
C235 O219 1.264 . S
C235 O220 1.243 . S
C236 C239 1.399 . S
C236 C240 1.383 . S
C236 C243 1.496 . S
C237 C238 1.399 . S
C237 C240 1.389 . S
C238 C237 1.399 . S
C238 C241 1.380 . S
C238 H248 0.929 . S
C239 C236 1.399 . S
C239 C241 1.392 . S
C239 H249 0.929 . S
C240 C236 1.383 . S
C240 C237 1.389 . S
C240 H250 0.931 . S
C241 C238 1.380 . S
C241 C239 1.392 . S
C241 H251 0.929 . S
C242 O222 1.266 . S
C242 O223 1.248 . S
C243 Tb179 2.802 . S
C243 O218 1.264 . S
C243 O221 1.256 . S
C243 C236 1.496 . S
H244 C227 0.929 . S
H245 C228 0.929 . S
H246 C229 0.929 . S
H247 C230 0.931 . S
H248 C238 0.929 . S
H249 C239 0.929 . S
H250 C240 0.931 . S
H251 C241 0.929 . S
C252 C253 1.349 1_655 S
C252 C254 1.327 . S
C252 H277 0.950 . S
C253 C252 1.349 1_455 S
C253 C269 1.349 . S
C254 C252 1.327 . S
C254 C273 1.429 1_655 S
C254 H278 0.950 . S
C255 C272 1.574 1_565 S
C255 C274 1.368 . S
C255 H279 0.949 . S
H256 C260 0.949 . S
C257 C258 1.349 1_455 S
C257 C259 1.327 . S
C257 H280 0.950 . S
C258 C257 1.349 1_655 S
C258 C270 1.349 . S
C259 C257 1.327 . S
C259 C275 1.429 1_455 S
C259 H281 0.950 . S
C260 H256 0.949 . S
C260 C268 1.574 . S
C260 C276 1.368 1_565 S
H261 C269 0.950 . S
H262 C267 0.950 . S
H263 C268 0.949 . S
H264 C270 0.950 . S
H265 C271 0.950 . S
H266 C272 0.949 . S
C267 H262 0.950 . S
C267 C269 1.327 . S
C267 C273 1.429 . S
C268 C260 1.574 . S
C268 H263 0.949 . S
C268 C274 1.368 1_655 S
C269 C253 1.349 . S
C269 H261 0.950 . S
C269 C267 1.327 . S
C270 C258 1.349 . S
C270 H264 0.950 . S
C270 C271 1.327 . S
C271 H265 0.950 . S
C271 C270 1.327 . S
C271 C275 1.429 . S
C272 C255 1.574 1_545 S
C272 H266 0.949 . S
C272 C276 1.368 1_455 S
C273 C254 1.429 1_455 S
C273 C267 1.429 . S
C273 C274 1.523 . S
C274 C255 1.368 . S
C274 C268 1.368 1_455 S
C274 C273 1.523 . S
C275 C259 1.429 1_655 S
C275 C271 1.429 . S
C275 C276 1.523 . S
C276 C260 1.368 1_545 S
C276 C272 1.368 1_655 S
C276 C275 1.523 . S
H277 C252 0.950 . S
H278 C254 0.950 . S
H279 C255 0.949 . S
H280 C257 0.950 . S
H281 C259 0.950 . S
C282 C283 1.349 . S
C282 C284 1.327 . S
C282 H307 0.950 . S
C283 C282 1.349 . S
C283 C299 1.349 . S
C284 C282 1.327 . S
C284 C303 1.429 . S
C284 H308 0.950 . S
C285 C302 1.574 . S
C285 C304 1.368 . S
C285 H309 0.949 . S
H286 C290 0.949 . S
C287 C288 1.349 . S
C287 C289 1.327 . S
C287 H310 0.950 1_545 S
C288 C287 1.349 . S
C288 C300 1.349 . S
C289 C287 1.327 . S
C289 C305 1.429 1_655 S
C289 H311 0.950 . S
C290 H286 0.949 . S
C290 C298 1.574 . S
C290 C306 1.368 . S
H291 C299 0.950 . S
H292 C297 0.950 . S
H293 C298 0.949 . S
H294 C300 0.950 . S
H295 C301 0.950 . S
H296 C302 0.949 . S
C297 H292 0.950 . S
C297 C299 1.327 . S
C297 C303 1.429 . S
C298 C290 1.574 . S
C298 H293 0.949 . S
C298 C304 1.368 . S
C299 C283 1.349 . S
C299 H291 0.950 . S
C299 C297 1.327 . S
C300 C288 1.349 . S
C300 H294 0.950 . S
C300 C301 1.327 1_655 S
C301 H295 0.950 . S
C301 C300 1.327 1_455 S
C301 C305 1.429 . S
C302 C285 1.574 . S
C302 H296 0.949 . S
C302 C306 1.368 . S
C303 C284 1.429 . S
C303 C297 1.429 . S
C303 C304 1.523 . S
C304 C285 1.368 . S
C304 C298 1.368 . S
C304 C303 1.523 . S
C305 C289 1.429 1_455 S
C305 C301 1.429 . S
C305 C306 1.523 . S
C306 C290 1.368 . S
C306 C302 1.368 . S
C306 C305 1.523 . S
H307 C282 0.950 . S
H308 C284 0.950 . S
H309 C285 0.949 . S
H310 C287 0.950 1_565 S
H311 C289 0.950 . S
C312 C313 1.349 . S
C312 C314 1.327 1_655 S
C312 H337 0.950 . S
C313 C312 1.349 . S
C313 C329 1.349 . S
C314 C312 1.327 1_455 S
C314 C333 1.429 . S
C314 H338 0.950 . S
C315 C332 1.567 1_565 S
C315 C334 1.368 . S
C315 H339 0.949 . S
H316 C320 0.949 . S
C317 C318 1.349 . S
C317 C319 1.327 . S
C317 H340 0.950 . S
C318 C317 1.349 . S
C318 C330 1.349 . S
C319 C317 1.327 . S
C319 C335 1.429 . S
C319 H341 0.950 . S
C320 H316 0.949 . S
C320 C328 1.574 . S
C320 C336 1.368 1_565 S
H321 C329 0.950 . S
H322 C327 0.950 . S
H323 C328 0.949 . S
H324 C330 0.950 . S
H325 C331 0.950 . S
H326 C332 0.957 . S
C327 H322 0.950 . S
C327 C329 1.327 . S
C327 C333 1.429 1_655 S
C328 C320 1.574 . S
C328 H323 0.949 . S
C328 C334 1.368 . S
C329 C313 1.349 . S
C329 H321 0.950 . S
C329 C327 1.327 . S
C330 C318 1.349 . S
C330 H324 0.950 . S
C330 C331 1.327 . S
C331 H325 0.950 . S
C331 C330 1.327 . S
C331 C335 1.429 . S
C332 C315 1.567 1_545 S
C332 H326 0.957 . S
C332 C336 1.367 . S
C333 C314 1.429 . S
C333 C327 1.429 1_455 S
C333 C334 1.523 . S
C334 C315 1.368 . S
C334 C328 1.368 . S
C334 C333 1.523 . S
C335 C319 1.429 . S
C335 C331 1.429 . S
C335 C336 1.523 . S
C336 C320 1.368 1_545 S
C336 C332 1.367 . S
C336 C335 1.523 . S
H337 C312 0.950 . S
H338 C314 0.950 . S
H339 C315 0.949 . S
H340 C317 0.950 . S
H341 C319 0.950 . S
C342 C343 1.349 . S
C342 C344 1.327 . S
C342 H367 0.950 . S
C343 C342 1.349 . S
C343 C359 1.349 . S
C344 C342 1.327 . S
C344 C363 1.429 . S
C344 H368 0.945 . S
C345 C362 1.574 . S
C345 C364 1.368 . S
C345 H369 0.949 . S
H346 C350 0.949 . S
C347 C348 1.349 . S
C347 C349 1.327 . S
C347 H370 0.950 . S
C348 C347 1.349 . S
C348 C360 1.349 . S
C349 C347 1.327 . S
C349 C365 1.429 . S
C349 H371 0.950 . S
C350 H346 0.949 . S
C350 C358 1.574 . S
C350 C366 1.368 . S
H351 C359 0.950 . S
H352 C357 0.950 . S
H353 C358 0.949 . S
H354 C360 0.950 . S
H355 C361 0.950 . S
H356 C362 0.949 . S
C357 H352 0.950 . S
C357 C359 1.327 . S
C357 C363 1.429 . S
C358 C350 1.574 . S
C358 H353 0.949 . S
C358 C364 1.368 . S
C359 C343 1.349 . S
C359 H351 0.950 . S
C359 C357 1.327 . S
C360 C348 1.349 . S
C360 H354 0.950 . S
C360 C361 1.327 . S
C361 H355 0.950 . S
C361 C360 1.327 . S
C361 C365 1.429 . S
C362 C345 1.574 . S
C362 H356 0.949 . S
C362 C366 1.368 . S
C363 C344 1.429 . S
C363 C357 1.429 . S
C363 C364 1.523 1_556 S
C364 C345 1.368 . S
C364 C358 1.368 . S
C364 C363 1.523 1_554 S
C365 C349 1.429 . S
C365 C361 1.429 . S
C365 C366 1.523 . S
C366 C350 1.368 . S
C366 C362 1.368 . S
C366 C365 1.523 . S
H367 C342 0.950 . S
H368 C344 0.945 . S
H369 C345 0.949 . S
H370 C347 0.950 . S
H371 C349 0.950 . S
C372 C373 1.349 . S
C372 C374 1.327 . S
C372 H397 0.950 . S
C373 C372 1.349 . S
C373 C389 1.349 . S
C374 C372 1.327 . S
C374 C393 1.429 . S
C374 H398 0.950 . S
C375 C392 1.574 . S
C375 C394 1.368 . S
C375 H399 0.949 . S
H376 C380 0.949 . S
C377 C378 1.349 . S
C377 C379 1.327 . S
C377 H400 0.950 . S
C378 C377 1.349 . S
C378 C390 1.349 . S
C379 C377 1.327 . S
C379 C395 1.429 . S
C379 H401 0.950 . S
C380 H376 0.949 . S
C380 C388 1.574 . S
C380 C396 1.368 . S
H381 C389 0.950 . S
H382 C387 0.950 . S
H383 C388 0.949 . S
H384 C390 0.950 . S
H385 C391 0.950 . S
H386 C392 0.949 . S
C387 H382 0.950 . S
C387 C389 1.327 . S
C387 C393 1.429 . S
C388 C380 1.574 . S
C388 H383 0.949 . S
C388 C394 1.368 . S
C389 C373 1.349 . S
C389 H381 0.950 . S
C389 C387 1.327 . S
C390 C378 1.349 . S
C390 H384 0.950 . S
C390 C391 1.327 . S
C391 H385 0.950 . S
C391 C390 1.327 . S
C391 C395 1.429 . S
C392 C375 1.574 . S
C392 H386 0.949 . S
C392 C396 1.368 . S
C393 C374 1.429 . S
C393 C387 1.429 . S
C393 C394 1.523 . S
C394 C375 1.368 . S
C394 C388 1.368 . S
C394 C393 1.523 . S
C395 C379 1.429 . S
C395 C391 1.429 . S
C395 C396 1.523 . S
C396 C380 1.368 . S
C396 C392 1.368 . S
C396 C395 1.523 . S
H397 C372 0.950 . S
H398 C374 0.950 . S
H399 C375 0.949 . S
H400 C377 0.950 . S
H401 C379 0.950 . S
C402 C403 1.349 . S
C402 C404 1.327 . S
C402 H427 0.950 . S
C403 C402 1.349 . S
C403 C419 1.349 . S
C404 C402 1.327 . S
C404 C423 1.429 . S
C404 H428 0.950 . S
C405 C422 1.574 . S
C405 C424 1.368 . S
C405 H429 0.949 . S
H406 C410 0.949 . S
C407 C408 1.349 . S
C407 C409 1.327 . S
C407 H430 0.950 . S
C408 C407 1.349 . S
C408 C420 1.349 . S
C409 C407 1.327 . S
C409 C425 1.429 . S
C409 H431 0.950 . S
C410 H406 0.949 . S
C410 C418 1.574 . S
C410 C426 1.368 . S
H411 C419 0.950 . S
H412 C417 0.950 . S
H413 C418 0.949 . S
H414 C420 0.950 . S
H415 C421 0.950 . S
H416 C422 0.949 . S
C417 H412 0.950 . S
C417 C419 1.327 . S
C417 C423 1.429 . S
C418 C410 1.574 . S
C418 H413 0.949 . S
C418 C424 1.368 . S
C419 C403 1.349 . S
C419 H411 0.950 . S
C419 C417 1.327 . S
C420 C408 1.349 . S
C420 H414 0.950 . S
C420 C421 1.327 . S
C421 H415 0.950 . S
C421 C420 1.327 . S
C421 C425 1.429 . S
C422 C405 1.574 . S
C422 H416 0.949 . S
C422 C426 1.368 . S
C423 C404 1.429 . S
C423 C417 1.429 . S
C423 C424 1.523 . S
C424 C405 1.368 . S
C424 C418 1.368 . S
C424 C423 1.523 . S
C425 C409 1.429 . S
C425 C421 1.429 . S
C425 C426 1.523 . S
C426 C410 1.368 . S
C426 C422 1.368 . S
C426 C425 1.523 . S
H427 C402 0.950 . S
H428 C404 0.950 . S
H429 C405 0.949 . S
H430 C407 0.950 . S
H431 C409 0.950 . S
C432 C433 1.349 . S
C432 C434 1.327 . S
C432 H457 0.950 . S
C433 C432 1.349 . S
C433 C449 1.349 . S
C434 C432 1.327 . S
C434 C453 1.429 . S
C434 H458 0.950 . S
C435 C452 1.574 . S
C435 C454 1.368 . S
C435 H459 0.949 . S
H436 C440 0.949 . S
C437 C438 1.349 . S
C437 C439 1.327 . S
C437 H460 0.950 . S
C438 C437 1.349 . S
C438 C450 1.349 . S
C439 C437 1.327 . S
C439 C455 1.429 . S
C439 H461 0.950 . S
C440 H436 0.949 . S
C440 C448 1.574 . S
C440 C456 1.368 . S
H441 C449 0.950 . S
H442 C447 0.950 . S
H443 C448 0.949 . S
H444 C450 0.950 . S
H445 C451 0.950 . S
H446 C452 0.949 . S
C447 H442 0.950 . S
C447 C449 1.327 . S
C447 C453 1.429 . S
C448 C440 1.574 . S
C448 H443 0.949 . S
C448 C454 1.368 . S
C449 C433 1.349 . S
C449 H441 0.950 . S
C449 C447 1.327 . S
C450 C438 1.349 . S
C450 H444 0.950 . S
C450 C451 1.327 . S
C451 H445 0.950 . S
C451 C450 1.327 . S
C451 C455 1.429 . S
C452 C435 1.574 . S
C452 H446 0.949 . S
C452 C456 1.368 . S
C453 C434 1.429 . S
C453 C447 1.429 . S
C453 C454 1.523 . S
C454 C435 1.368 . S
C454 C448 1.368 . S
C454 C453 1.523 . S
C455 C439 1.429 . S
C455 C451 1.429 . S
C455 C456 1.523 1_554 S
C456 C440 1.368 . S
C456 C452 1.368 . S
C456 C455 1.523 1_556 S
H457 C432 0.950 . S
H458 C434 0.950 . S
H459 C435 0.949 . S
H460 C437 0.950 . S
H461 C439 0.950 . S
C462 C463 1.349 . S
C462 C464 1.327 . S
C462 H487 0.950 . S
C463 C462 1.349 . S
C463 C479 1.349 . S
C464 C462 1.327 . S
C464 C483 1.429 . S
C464 H488 0.950 . S
C465 C482 1.574 . S
C465 C484 1.368 . S
C465 H489 0.949 . S
H466 C470 0.949 . S
C467 C468 1.349 1_545 S
C467 C469 1.330 . S
C467 H490 0.950 . S
C468 C467 1.349 1_565 S
C468 C480 1.349 . S
C469 C467 1.330 . S
C469 C485 1.413 1_545 S
C469 H491 0.963 . S
C470 H466 0.949 . S
C470 C478 1.574 . S
C470 C486 1.368 . S
H471 C479 0.950 . S
H472 C477 0.950 . S
H473 C478 0.949 . S
H474 C480 0.950 . S
H475 C481 0.950 . S
H476 C482 0.949 . S
C477 H472 0.950 . S
C477 C479 1.327 . S
C477 C483 1.429 . S
C478 C470 1.574 . S
C478 H473 0.949 . S
C478 C484 1.368 . S
C479 C463 1.349 . S
C479 H471 0.950 . S
C479 C477 1.327 . S
C480 C468 1.349 . S
C480 H474 0.950 . S
C480 C481 1.327 . S
C481 H475 0.950 . S
C481 C480 1.327 . S
C481 C485 1.429 . S
C482 C465 1.574 . S
C482 H476 0.949 . S
C482 C486 1.368 . S
C483 C464 1.429 . S
C483 C477 1.429 . S
C483 C484 1.523 . S
C484 C465 1.368 . S
C484 C478 1.368 . S
C484 C483 1.523 . S
C485 C469 1.413 1_565 S
C485 C481 1.429 . S
C485 C486 1.523 . S
C486 C470 1.368 . S
C486 C482 1.368 . S
C486 C485 1.523 . S
H487 C462 0.950 . S
H488 C464 0.950 . S
H489 C465 0.949 . S
H490 C467 0.950 . S
H491 C469 0.963 . S
C492 C493 1.349 . S
C492 C494 1.327 . S
C492 H517 0.950 . S
C493 C492 1.349 . S
C493 C509 1.349 . S
C494 C492 1.327 . S
C494 C513 1.429 . S
C494 H518 0.950 . S
C495 C512 1.574 . S
C495 C514 1.368 . S
C495 H519 0.949 . S
H496 C500 0.949 . S
C497 C498 1.349 . S
C497 C499 1.327 . S
C497 H520 0.950 . S
C498 C497 1.349 . S
C498 C510 1.349 . S
C499 C497 1.327 . S
C499 C515 1.429 . S
C499 H521 0.950 . S
C500 H496 0.949 . S
C500 C508 1.574 . S
C500 C516 1.368 . S
H501 C509 0.950 . S
H502 C507 0.950 . S
H503 C508 0.949 . S
H504 C510 0.950 . S
H505 C511 0.950 . S
H506 C512 0.949 . S
C507 H502 0.950 . S
C507 C509 1.327 . S
C507 C513 1.429 . S
C508 C500 1.574 . S
C508 H503 0.949 . S
C508 C514 1.368 . S
C509 C493 1.349 . S
C509 H501 0.950 . S
C509 C507 1.327 . S
C510 C498 1.349 . S
C510 H504 0.950 . S
C510 C511 1.327 . S
C511 H505 0.950 . S
C511 C510 1.327 . S
C511 C515 1.429 . S
C512 C495 1.574 . S
C512 H506 0.949 . S
C512 C516 1.368 . S
C513 C494 1.429 . S
C513 C507 1.429 . S
C513 C514 1.523 . S
C514 C495 1.368 . S
C514 C508 1.368 . S
C514 C513 1.523 . S
C515 C499 1.429 . S
C515 C511 1.429 . S
C515 C516 1.523 . S
C516 C500 1.368 . S
C516 C512 1.368 . S
C516 C515 1.523 . S
H517 C492 0.950 . S
H518 C494 0.950 . S
H519 C495 0.949 . S
H520 C497 0.950 . S
H521 C499 0.950 . S
C253 C74 1.425 . S
C258 C63 1.425 . S
C283 C147 1.425 . S
C288 C158 1.425 . S
C313 C231 1.425 . S
C318 C242 1.425 . S
C343 C237 1.525 . S
C348 C67 1.657 . S
C373 C142 0.858 . S
C378 C56 1.091 . S
C403 C235 1.656 . S
C408 C153 1.524 . S
C433 C224 1.091 . S
C438 C58 0.858 . S
C463 C69 1.524 . S
C468 C151 1.656 1_565 S
C493 C226 0.858 . S
C498 C140 1.091 . S
