# Generated by pormake.
# Topology uox, (4)-cn, num edge types: 1
# Building blocks:
#     Node 0, Type 0, BuildingBlock: GALJAG_clean_sbu_0, # of connection points: 4
#     Node 1, Type 0, BuildingBlock: GALJAG_clean_sbu_0, # of connection points: 4
#     Node 2, Type 0, BuildingBlock: GALJAG_clean_sbu_0, # of connection points: 4
#     Node 3, Type 0, BuildingBlock: GALJAG_clean_sbu_0, # of connection points: 4
#     Node 4, Type 0, BuildingBlock: GALJAG_clean_sbu_0, # of connection points: 4
#     Node 5, Type 0, BuildingBlock: GALJAG_clean_sbu_0, # of connection points: 4
#     Node 6, Type 0, BuildingBlock: GALJAG_clean_sbu_0, # of connection points: 4
#     Node 7, Type 0, BuildingBlock: GALJAG_clean_sbu_0, # of connection points: 4
#     Node 8, Type 0, BuildingBlock: GALJAG_clean_sbu_0, # of connection points: 4
#     Node 9, Type 0, BuildingBlock: GALJAG_clean_sbu_0, # of connection points: 4
#     Node 10, Type 0, BuildingBlock: GALJAG_clean_sbu_0, # of connection points: 4
#     Node 11, Type 0, BuildingBlock: GALJAG_clean_sbu_0, # of connection points: 4
#     Node 12, Type 0, BuildingBlock: GALJAG_clean_sbu_0, # of connection points: 4
#     Node 13, Type 0, BuildingBlock: GALJAG_clean_sbu_0, # of connection points: 4
#     Node 14, Type 0, BuildingBlock: GALJAG_clean_sbu_0, # of connection points: 4
#     Node 15, Type 0, BuildingBlock: GALJAG_clean_sbu_0, # of connection points: 4
#     Node 16, Type 0, BuildingBlock: GALJAG_clean_sbu_0, # of connection points: 4
#     Node 17, Type 0, BuildingBlock: GALJAG_clean_sbu_0, # of connection points: 4
#     Node 18, Type 0, BuildingBlock: GALJAG_clean_sbu_0, # of connection points: 4
#     Node 19, Type 0, BuildingBlock: GALJAG_clean_sbu_0, # of connection points: 4
#     Node 20, Type 0, BuildingBlock: GALJAG_clean_sbu_0, # of connection points: 4
#     Node 21, Type 0, BuildingBlock: GALJAG_clean_sbu_0, # of connection points: 4
#     Node 22, Type 0, BuildingBlock: GALJAG_clean_sbu_0, # of connection points: 4
#     Node 23, Type 0, BuildingBlock: GALJAG_clean_sbu_0, # of connection points: 4
#     Node 24, Type 0, BuildingBlock: GALJAG_clean_sbu_0, # of connection points: 4
#     Node 25, Type 0, BuildingBlock: GALJAG_clean_sbu_0, # of connection points: 4
#     Node 26, Type 0, BuildingBlock: GALJAG_clean_sbu_0, # of connection points: 4
#     Node 27, Type 0, BuildingBlock: GALJAG_clean_sbu_0, # of connection points: 4
#     Node 28, Type 0, BuildingBlock: GALJAG_clean_sbu_0, # of connection points: 4
#     Node 29, Type 0, BuildingBlock: GALJAG_clean_sbu_0, # of connection points: 4
#     Node 30, Type 0, BuildingBlock: GALJAG_clean_sbu_0, # of connection points: 4
#     Node 31, Type 0, BuildingBlock: GALJAG_clean_sbu_0, # of connection points: 4
#     Edge 32, Type (0, 0), BuildingBlock: XIVTED_clean_linker_0, # of connection points: 2
#     Edge 33, Type (0, 0), BuildingBlock: XIVTED_clean_linker_0, # of connection points: 2
#     Edge 34, Type (0, 0), BuildingBlock: XIVTED_clean_linker_0, # of connection points: 2
#     Edge 35, Type (0, 0), BuildingBlock: XIVTED_clean_linker_0, # of connection points: 2
#     Edge 36, Type (0, 0), BuildingBlock: XIVTED_clean_linker_0, # of connection points: 2
#     Edge 37, Type (0, 0), BuildingBlock: XIVTED_clean_linker_0, # of connection points: 2
#     Edge 38, Type (0, 0), BuildingBlock: XIVTED_clean_linker_0, # of connection points: 2
#     Edge 39, Type (0, 0), BuildingBlock: XIVTED_clean_linker_0, # of connection points: 2
#     Edge 40, Type (0, 0), BuildingBlock: XIVTED_clean_linker_0, # of connection points: 2
#     Edge 41, Type (0, 0), BuildingBlock: XIVTED_clean_linker_0, # of connection points: 2
#     Edge 42, Type (0, 0), BuildingBlock: XIVTED_clean_linker_0, # of connection points: 2
#     Edge 43, Type (0, 0), BuildingBlock: XIVTED_clean_linker_0, # of connection points: 2
#     Edge 44, Type (0, 0), BuildingBlock: XIVTED_clean_linker_0, # of connection points: 2
#     Edge 45, Type (0, 0), BuildingBlock: XIVTED_clean_linker_0, # of connection points: 2
#     Edge 46, Type (0, 0), BuildingBlock: XIVTED_clean_linker_0, # of connection points: 2
#     Edge 47, Type (0, 0), BuildingBlock: XIVTED_clean_linker_0, # of connection points: 2
#     Edge 48, Type (0, 0), BuildingBlock: XIVTED_clean_linker_0, # of connection points: 2
#     Edge 49, Type (0, 0), BuildingBlock: XIVTED_clean_linker_0, # of connection points: 2
#     Edge 50, Type (0, 0), BuildingBlock: XIVTED_clean_linker_0, # of connection points: 2
#     Edge 51, Type (0, 0), BuildingBlock: XIVTED_clean_linker_0, # of connection points: 2
#     Edge 52, Type (0, 0), BuildingBlock: XIVTED_clean_linker_0, # of connection points: 2
#     Edge 53, Type (0, 0), BuildingBlock: XIVTED_clean_linker_0, # of connection points: 2
#     Edge 54, Type (0, 0), BuildingBlock: XIVTED_clean_linker_0, # of connection points: 2
#     Edge 55, Type (0, 0), BuildingBlock: XIVTED_clean_linker_0, # of connection points: 2
#     Edge 56, Type (0, 0), BuildingBlock: XIVTED_clean_linker_0, # of connection points: 2
#     Edge 57, Type (0, 0), BuildingBlock: XIVTED_clean_linker_0, # of connection points: 2
#     Edge 58, Type (0, 0), BuildingBlock: XIVTED_clean_linker_0, # of connection points: 2
#     Edge 59, Type (0, 0), BuildingBlock: XIVTED_clean_linker_0, # of connection points: 2
#     Edge 60, Type (0, 0), BuildingBlock: XIVTED_clean_linker_0, # of connection points: 2
#     Edge 61, Type (0, 0), BuildingBlock: XIVTED_clean_linker_0, # of connection points: 2
#     Edge 62, Type (0, 0), BuildingBlock: XIVTED_clean_linker_0, # of connection points: 2
#     Edge 63, Type (0, 0), BuildingBlock: XIVTED_clean_linker_0, # of connection points: 2
#     Edge 64, Type (0, 0), BuildingBlock: XIVTED_clean_linker_0, # of connection points: 2
#     Edge 65, Type (0, 0), BuildingBlock: XIVTED_clean_linker_0, # of connection points: 2
#     Edge 66, Type (0, 0), BuildingBlock: XIVTED_clean_linker_0, # of connection points: 2
#     Edge 67, Type (0, 0), BuildingBlock: XIVTED_clean_linker_0, # of connection points: 2
#     Edge 68, Type (0, 0), BuildingBlock: XIVTED_clean_linker_0, # of connection points: 2
#     Edge 69, Type (0, 0), BuildingBlock: XIVTED_clean_linker_0, # of connection points: 2
#     Edge 70, Type (0, 0), BuildingBlock: XIVTED_clean_linker_0, # of connection points: 2
#     Edge 71, Type (0, 0), BuildingBlock: XIVTED_clean_linker_0, # of connection points: 2
#     Edge 72, Type (0, 0), BuildingBlock: XIVTED_clean_linker_0, # of connection points: 2
#     Edge 73, Type (0, 0), BuildingBlock: XIVTED_clean_linker_0, # of connection points: 2
#     Edge 74, Type (0, 0), BuildingBlock: XIVTED_clean_linker_0, # of connection points: 2
#     Edge 75, Type (0, 0), BuildingBlock: XIVTED_clean_linker_0, # of connection points: 2
#     Edge 76, Type (0, 0), BuildingBlock: XIVTED_clean_linker_0, # of connection points: 2
#     Edge 77, Type (0, 0), BuildingBlock: XIVTED_clean_linker_0, # of connection points: 2
#     Edge 78, Type (0, 0), BuildingBlock: XIVTED_clean_linker_0, # of connection points: 2
#     Edge 79, Type (0, 0), BuildingBlock: XIVTED_clean_linker_0, # of connection points: 2
#     Edge 80, Type (0, 0), BuildingBlock: XIVTED_clean_linker_0, # of connection points: 2
#     Edge 81, Type (0, 0), BuildingBlock: XIVTED_clean_linker_0, # of connection points: 2
#     Edge 82, Type (0, 0), BuildingBlock: XIVTED_clean_linker_0, # of connection points: 2
#     Edge 83, Type (0, 0), BuildingBlock: XIVTED_clean_linker_0, # of connection points: 2
#     Edge 84, Type (0, 0), BuildingBlock: XIVTED_clean_linker_0, # of connection points: 2
#     Edge 85, Type (0, 0), BuildingBlock: XIVTED_clean_linker_0, # of connection points: 2
#     Edge 86, Type (0, 0), BuildingBlock: XIVTED_clean_linker_0, # of connection points: 2
#     Edge 87, Type (0, 0), BuildingBlock: XIVTED_clean_linker_0, # of connection points: 2
#     Edge 88, Type (0, 0), BuildingBlock: XIVTED_clean_linker_0, # of connection points: 2
#     Edge 89, Type (0, 0), BuildingBlock: XIVTED_clean_linker_0, # of connection points: 2
#     Edge 90, Type (0, 0), BuildingBlock: XIVTED_clean_linker_0, # of connection points: 2
#     Edge 91, Type (0, 0), BuildingBlock: XIVTED_clean_linker_0, # of connection points: 2
#     Edge 92, Type (0, 0), BuildingBlock: XIVTED_clean_linker_0, # of connection points: 2
#     Edge 93, Type (0, 0), BuildingBlock: XIVTED_clean_linker_0, # of connection points: 2
#     Edge 94, Type (0, 0), BuildingBlock: XIVTED_clean_linker_0, # of connection points: 2
#     Edge 95, Type (0, 0), BuildingBlock: XIVTED_clean_linker_0, # of connection points: 2
# Relax obj value: 0.005
# Max RMSD: 0.035
# Mean RMSD: 0.035
data_MOF--net-uox--node1-GALJAG_clean_sbu_0--edge1-XIVTED_clean_linker_0
_symmetry_space_group_name_H-M    P1
_symmetry_Int_Tables_number       1
_symmetry_cell_setting            triclinic
loop_
_symmetry_equiv_pos_as_xyz
'x, y, z'
_cell_length_a     48.991399
_cell_length_b     48.985464
_cell_length_c     73.133386
_cell_angle_alpha  90.052313
_cell_angle_beta   90.024304
_cell_angle_gamma 89.969228
loop_
_atom_site_label
_atom_site_type_symbol
_atom_site_fract_x
_atom_site_fract_y
_atom_site_fract_z
_atom_type_partial_charge
In0 In 0.39815 0.06023 0.15043 0.0
O1 O 0.38688 0.02143 0.13476 0.0
O2 O 0.35475 0.04592 0.14548 0.0
C3 C 0.45075 0.06784 0.14086 0.0
C4 C 0.40156 0.03988 0.18451 0.0
C5 C 0.37778 0.10899 0.14039 0.0
O6 O 0.43398 0.05591 0.13045 0.0
O7 O 0.44105 0.07532 0.15602 0.0
O8 O 0.37727 0.10093 0.1568 0.0
O9 O 0.38832 0.0924 0.12923 0.0
C10 C 0.36149 0.02459 0.13693 0.0
O11 O 0.39444 0.06427 0.18148 0.0
O12 O 0.40709 0.02608 0.17042 0.0
In13 In 0.18095 0.1475 0.40208 0.0
O14 O 0.18049 0.14619 0.4332 0.0
O15 O 0.21563 0.16258 0.41997 0.0
C16 C 0.13319 0.12276 0.39391 0.0
C17 C 0.21777 0.11065 0.3904 0.0
C18 C 0.17176 0.19918 0.3908 0.0
O19 O 0.1398 0.12855 0.41014 0.0
O20 O 0.15068 0.12921 0.38205 0.0
O21 O 0.18703 0.18305 0.38203 0.0
O22 O 0.16147 0.18926 0.40511 0.0
C23 C 0.20407 0.15641 0.43483 0.0
O24 O 0.2129 0.13237 0.38165 0.0
O25 O 0.20378 0.10744 0.40471 0.0
In26 In 0.10016 0.93754 0.64466 0.0
O27 O 0.12119 0.96361 0.6227 0.0
O28 O 0.13939 0.96102 0.64901 0.0
C29 C 0.05436 0.9371 0.62397 0.0
C30 C 0.08835 0.95766 0.678 0.0
C31 C 0.11724 0.88513 0.64549 0.0
O32 O 0.07612 0.92555 0.61897 0.0
O33 O 0.05608 0.94971 0.63894 0.0
O34 O 0.0934 0.89216 0.65 0.0
O35 O 0.13274 0.90461 0.64115 0.0
C36 C 0.14035 0.97096 0.63316 0.0
O37 O 0.09522 0.93304 0.67561 0.0
O38 O 0.08684 0.97168 0.66358 0.0
In39 In 0.31083 0.85021 0.9014 0.0
O40 O 0.31332 0.85159 0.93247 0.0
O41 O 0.27675 0.83652 0.92036 0.0
C42 C 0.35872 0.87372 0.89219 0.0
C43 C 0.27459 0.88725 0.88923 0.0
C44 C 0.31907 0.79816 0.89057 0.0
O45 O 0.35137 0.87092 0.90862 0.0
O46 O 0.34184 0.86501 0.88057 0.0
O47 O 0.30243 0.81374 0.88251 0.0
O48 O 0.3311 0.80876 0.90406 0.0
C49 C 0.28953 0.84229 0.93484 0.0
O50 O 0.27852 0.86481 0.88112 0.0
O51 O 0.28919 0.89108 0.90319 0.0
In52 In 0.39352 0.93425 0.34251 0.0
O53 O 0.39171 0.93095 0.31151 0.0
O54 O 0.40653 0.96803 0.32315 0.0
C55 C 0.36993 0.88665 0.35234 0.0
C56 C 0.357 0.97131 0.3544 0.0
C57 C 0.44591 0.92584 0.35249 0.0
O58 O 0.37206 0.89384 0.33584 0.0
O59 O 0.37937 0.90351 0.36371 0.0
O60 O 0.4302 0.94126 0.36149 0.0
O61 O 0.43526 0.91513 0.33853 0.0
C62 C 0.40071 0.95481 0.30884 0.0
O63 O 0.37954 0.96752 0.36243 0.0
O64 O 0.35286 0.95617 0.34073 0.0
In65 In 0.32039 0.14475 0.58901 0.0
O66 O 0.28754 0.12945 0.60865 0.0
O67 O 0.29969 0.10358 0.58666 0.0
C68 C 0.32867 0.19686 0.59943 0.0
C69 C 0.29756 0.15358 0.55618 0.0
C70 C 0.36818 0.12158 0.59871 0.0
O71 O 0.31312 0.18104 0.60824 0.0
O72 O 0.33975 0.18635 0.58555 0.0
O73 O 0.36144 0.12461 0.58216 0.0
O74 O 0.3508 0.12996 0.61011 0.0
C75 C 0.28436 0.10703 0.60032 0.0
O76 O 0.32145 0.14404 0.55781 0.0
O77 O 0.28561 0.15895 0.57105 0.0
In78 In 0.09807 0.0599 0.83667 0.0
O79 O 0.11607 0.03335 0.85954 0.0
O80 O 0.13625 0.03425 0.83382 0.0
C81 C 0.04956 0.05871 0.85416 0.0
C82 C 0.0894 0.04016 0.80282 0.0
C83 C 0.11618 0.11209 0.83854 0.0
O84 O 0.07153 0.06421 0.86241 0.0
O85 O 0.05231 0.05322 0.83744 0.0
O86 O 0.09184 0.10606 0.83477 0.0
O87 O 0.13166 0.09184 0.84075 0.0
C88 C 0.13558 0.02478 0.84981 0.0
O89 O 0.0967 0.06461 0.80551 0.0
O90 O 0.08628 0.02615 0.81712 0.0
In91 In 0.18506 0.84663 0.09351 0.0
O92 O 0.18104 0.84771 0.06231 0.0
O93 O 0.21982 0.83844 0.07389 0.0
C94 C 0.13527 0.86603 0.10244 0.0
C95 C 0.21995 0.88482 0.10601 0.0
C96 C 0.18094 0.79442 0.10489 0.0
O97 O 0.14362 0.86536 0.08609 0.0
O98 O 0.15201 0.85702 0.11407 0.0
O99 O 0.19039 0.81306 0.115 0.0
O100 O 0.17374 0.80214 0.08918 0.0
C101 C 0.20588 0.84198 0.0596 0.0
O102 O 0.22342 0.85966 0.10893 0.0
O103 O 0.19857 0.89069 0.09725 0.0
In104 In 0.60099 0.92847 0.84453 0.0
O105 O 0.61598 0.96068 0.86485 0.0
O106 O 0.64277 0.9484 0.84348 0.0
C107 C 0.54808 0.92356 0.85415 0.0
C108 C 0.59459 0.95021 0.81111 0.0
C109 C 0.62137 0.8789 0.8534 0.0
O110 O 0.56499 0.93667 0.8638 0.0
O111 O 0.55787 0.91324 0.83978 0.0
O112 O 0.62152 0.88779 0.83722 0.0
O113 O 0.61138 0.89511 0.86499 0.0
C114 C 0.63885 0.96363 0.85713 0.0
O115 O 0.60187 0.92569 0.81346 0.0
O116 O 0.5902 0.96353 0.82561 0.0
In117 In 0.81897 0.85295 0.59001 0.0
O118 O 0.80417 0.88302 0.61164 0.0
O119 O 0.77422 0.86079 0.59683 0.0
C120 C 0.82107 0.8037 0.60681 0.0
C121 C 0.80305 0.85624 0.55473 0.0
C122 C 0.86919 0.87597 0.58882 0.0
O123 O 0.80854 0.80774 0.59203 0.0
O124 O 0.83222 0.82467 0.61345 0.0
O125 O 0.8646 0.85225 0.58286 0.0
O126 O 0.8485 0.88804 0.59507 0.0
C127 C 0.77915 0.87896 0.60861 0.0
O128 O 0.79962 0.87539 0.56601 0.0
O129 O 0.81554 0.83579 0.56103 0.0
In130 In 0.89497 0.06111 0.3418 0.0
O131 O 0.87972 0.06029 0.31224 0.0
O132 O 0.91278 0.0343 0.31948 0.0
C133 C 0.87626 0.11171 0.34915 0.0
C134 C 0.86002 0.02303 0.35421 0.0
C135 C 0.94594 0.06676 0.35516 0.0
O136 O 0.88991 0.1064 0.33495 0.0
O137 O 0.87211 0.09164 0.35955 0.0
O138 O 0.92652 0.05841 0.36508 0.0
O139 O 0.93948 0.07194 0.33885 0.0
C140 C 0.89661 0.04233 0.30721 0.0
O141 O 0.88555 0.02041 0.35606 0.0
O142 O 0.85253 0.04485 0.34661 0.0
In143 In 0.68606 0.15235 0.09544 0.0
O144 O 0.73058 0.14478 0.10432 0.0
O145 O 0.701 0.11438 0.10996 0.0
C146 C 0.67749 0.20434 0.10605 0.0
C147 C 0.70241 0.15086 0.06026 0.0
C148 C 0.63658 0.13169 0.10358 0.0
O149 O 0.69273 0.1884 0.11505 0.0
O150 O 0.66706 0.19404 0.09187 0.0
O151 O 0.64501 0.13347 0.0873 0.0
O152 O 0.653 0.14041 0.11552 0.0
C153 C 0.72569 0.12133 0.11064 0.0
O154 O 0.69187 0.1305 0.06809 0.0
O155 O 0.70411 0.172 0.07001 0.0
In156 In 0.60519 0.0584 0.65407 0.0
O157 O 0.60629 0.06204 0.68519 0.0
O158 O 0.5925 0.02469 0.67346 0.0
C159 C 0.62715 0.107 0.64491 0.0
C160 C 0.64236 0.02131 0.6431 0.0
C161 C 0.55352 0.0657 0.64227 0.0
O162 O 0.62451 0.09957 0.66135 0.0
O163 O 0.61905 0.08984 0.63325 0.0
O164 O 0.57128 0.05372 0.63266 0.0
O165 O 0.56183 0.07365 0.65769 0.0
C166 C 0.59763 0.03805 0.6878 0.0
O167 O 0.61789 0.02076 0.63765 0.0
O168 O 0.64812 0.04097 0.65355 0.0
In169 In 0.68252 0.84876 0.40124 0.0
O170 O 0.68398 0.86079 0.43145 0.0
O171 O 0.71453 0.83388 0.42128 0.0
C172 C 0.63319 0.86872 0.39204 0.0
C173 C 0.71853 0.88403 0.38656 0.0
C174 C 0.67286 0.79632 0.39229 0.0
O175 O 0.64076 0.86667 0.40852 0.0
O176 O 0.65049 0.86079 0.3804 0.0
O177 O 0.68604 0.81218 0.38191 0.0
O178 O 0.66496 0.80689 0.40711 0.0
C179 C 0.70532 0.84713 0.43471 0.0
O180 O 0.72142 0.8585 0.38503 0.0
O181 O 0.69729 0.89144 0.3949 0.0
In182 In 0.89544 0.9347 0.14972 0.0
O183 O 0.88004 0.93684 0.17914 0.0
O184 O 0.91519 0.96006 0.17213 0.0
C185 C 0.8752 0.8854 0.14058 0.0
C186 C 0.86144 0.97375 0.13706 0.0
C187 C 0.94702 0.92515 0.13875 0.0
O188 O 0.88009 0.89198 0.15697 0.0
O189 O 0.88034 0.90372 0.12896 0.0
O190 O 0.93044 0.93869 0.12906 0.0
O191 O 0.93756 0.91689 0.15381 0.0
C192 C 0.89817 0.95346 0.18427 0.0
O193 O 0.88705 0.97598 0.13572 0.0
O194 O 0.85341 0.95167 0.14402 0.0
In195 In 0.817 0.13729 0.9054 0.0
O196 O 0.78553 0.12284 0.88423 0.0
O197 O 0.79069 0.09962 0.90855 0.0
C198 C 0.82528 0.18853 0.89304 0.0
C199 C 0.79547 0.1446 0.93882 0.0
C200 C 0.86545 0.11296 0.89834 0.0
O201 O 0.8098 0.17193 0.88483 0.0
O202 O 0.8363 0.17926 0.90732 0.0
O203 O 0.86037 0.12437 0.91342 0.0
O204 O 0.84613 0.11369 0.88699 0.0
C205 C 0.77827 0.10242 0.89359 0.0
O206 O 0.81434 0.12763 0.93572 0.0
O207 O 0.78792 0.15839 0.92514 0.0
In208 In 0.89101 0.56633 0.65549 0.0
O209 O 0.88938 0.56587 0.68661 0.0
O210 O 0.90577 0.53105 0.67296 0.0
C211 C 0.86905 0.61607 0.64891 0.0
C212 C 0.85252 0.53091 0.64437 0.0
C213 C 0.94242 0.57197 0.64271 0.0
O214 O 0.87867 0.6096 0.66431 0.0
O215 O 0.87023 0.59746 0.63705 0.0
O216 O 0.92411 0.55989 0.63365 0.0
O217 O 0.93474 0.58104 0.65797 0.0
C218 C 0.89962 0.54225 0.68795 0.0
O219 O 0.87408 0.53508 0.63529 0.0
O220 O 0.8502 0.54499 0.65873 0.0
In221 In 0.67798 0.635 0.89868 0.0
O222 O 0.67889 0.62508 0.92903 0.0
O223 O 0.70536 0.6564 0.91926 0.0
C224 C 0.6308 0.61059 0.88888 0.0
C225 C 0.71757 0.60058 0.88763 0.0
C226 C 0.66852 0.687 0.88856 0.0
O227 O 0.63614 0.61686 0.90523 0.0
O228 O 0.64932 0.61638 0.87758 0.0
O229 O 0.68635 0.67242 0.88073 0.0
O230 O 0.65571 0.67529 0.9013 0.0
C231 C 0.69724 0.64237 0.93267 0.0
O232 O 0.71085 0.62115 0.87822 0.0
O233 O 0.70416 0.59743 0.90213 0.0
In234 In 0.59763 0.44132 0.15227 0.0
O235 O 0.60082 0.43654 0.18326 0.0
O236 O 0.58924 0.47528 0.17263 0.0
C237 C 0.61815 0.39224 0.14272 0.0
C238 C 0.63465 0.47696 0.1392 0.0
C239 C 0.54518 0.43493 0.14176 0.0
O240 O 0.61788 0.40045 0.15911 0.0
O241 O 0.60819 0.40878 0.13131 0.0
O242 O 0.56278 0.44596 0.13156 0.0
O243 O 0.55398 0.42763 0.15719 0.0
C244 C 0.59434 0.46102 0.18657 0.0
O245 O 0.60932 0.48035 0.13694 0.0
O246 O 0.64112 0.45546 0.14761 0.0
In247 In 0.81165 0.34741 0.40555 0.0
O248 O 0.81615 0.34829 0.43678 0.0
O249 O 0.78062 0.33018 0.42542 0.0
C250 C 0.85723 0.37317 0.39472 0.0
C251 C 0.77421 0.38425 0.39471 0.0
C252 C 0.82302 0.29756 0.39192 0.0
O253 O 0.85195 0.36898 0.41142 0.0
O254 O 0.83932 0.36471 0.38364 0.0
O255 O 0.8012 0.31002 0.38806 0.0
O256 O 0.83867 0.30999 0.40277 0.0
C257 C 0.7935 0.33679 0.43965 0.0
O258 O 0.77469 0.3602 0.38847 0.0
O259 O 0.79277 0.38969 0.40609 0.0
In260 In 0.89604 0.42585 0.84211 0.0
O261 O 0.88017 0.4589 0.8614 0.0
O262 O 0.85438 0.44568 0.83968 0.0
C263 C 0.94835 0.42037 0.85281 0.0
C264 C 0.9039 0.44825 0.80906 0.0
C265 C 0.87507 0.37707 0.85206 0.0
O266 O 0.93132 0.43426 0.86185 0.0
O267 O 0.93897 0.40947 0.8385 0.0
O268 O 0.8776 0.38384 0.83548 0.0
O269 O 0.88273 0.39494 0.86334 0.0
C270 C 0.85771 0.46154 0.85309 0.0
O271 O 0.89498 0.42416 0.81091 0.0
O272 O 0.90924 0.46055 0.82381 0.0
In273 In 0.81405 0.64642 0.08718 0.0
O274 O 0.80961 0.62858 0.05844 0.0
O275 O 0.78784 0.66492 0.06474 0.0
C276 C 0.86433 0.62618 0.09345 0.0
C277 C 0.77583 0.61362 0.10189 0.0
C278 C 0.82256 0.69756 0.09956 0.0
O279 O 0.85822 0.63805 0.07869 0.0
O280 O 0.84522 0.62464 0.10494 0.0
O281 O 0.81228 0.67928 0.10962 0.0
O282 O 0.82829 0.68993 0.08355 0.0
C283 C 0.79326 0.64679 0.05307 0.0
O284 O 0.77314 0.63928 0.10176 0.0
O285 O 0.79777 0.60495 0.09504 0.0
In286 In 0.59556 0.5577 0.34787 0.0
O287 O 0.59914 0.56241 0.31687 0.0
O288 O 0.5895 0.5232 0.32754 0.0
C289 C 0.61498 0.60748 0.35661 0.0
C290 C 0.63231 0.52287 0.36229 0.0
C291 C 0.54271 0.56329 0.35767 0.0
O292 O 0.61621 0.59806 0.34054 0.0
O293 O 0.60408 0.59177 0.36816 0.0
O294 O 0.56037 0.55337 0.36834 0.0
O295 O 0.55167 0.56993 0.34216 0.0
C296 C 0.59399 0.53762 0.31359 0.0
O297 O 0.60697 0.51831 0.36279 0.0
O298 O 0.63895 0.54518 0.35496 0.0
In299 In 0.68328 0.3488 0.5957 0.0
O300 O 0.68224 0.34738 0.5646 0.0
O301 O 0.71937 0.3366 0.57803 0.0
C302 C 0.63427 0.37116 0.60355 0.0
C303 C 0.71745 0.38806 0.60742 0.0
C304 C 0.67672 0.29652 0.60637 0.0
O305 O 0.64283 0.36877 0.58735 0.0
O306 O 0.6504 0.36239 0.61562 0.0
O307 O 0.69099 0.31318 0.61548 0.0
O308 O 0.66605 0.30629 0.59213 0.0
C309 C 0.70685 0.33988 0.56309 0.0
O310 O 0.71421 0.36604 0.61616 0.0
O311 O 0.70322 0.39026 0.59312 0.0
In312 In 0.09404 0.43438 0.3397 0.0
O313 O 0.09307 0.43184 0.30858 0.0
O314 O 0.08163 0.46938 0.32124 0.0
C315 C 0.11603 0.3858 0.34917 0.0
C316 C 0.13242 0.46968 0.35119 0.0
C317 C 0.04185 0.42844 0.35062 0.0
O318 O 0.11444 0.39339 0.33271 0.0
O319 O 0.10684 0.4027 0.3606 0.0
O320 O 0.05869 0.44294 0.3594 0.0
O321 O 0.05134 0.41726 0.33646 0.0
C322 C 0.08526 0.45628 0.30657 0.0
O323 O 0.11012 0.46653 0.35961 0.0
O324 O 0.13544 0.45474 0.33729 0.0
In325 In 0.31339 0.34882 0.09101 0.0
O326 O 0.31573 0.34845 0.05987 0.0
O327 O 0.27927 0.33409 0.07252 0.0
C328 C 0.36055 0.37357 0.10049 0.0
C329 C 0.27633 0.38565 0.10226 0.0
C330 C 0.32249 0.29714 0.10205 0.0
O331 O 0.35357 0.37045 0.084 0.0
O332 O 0.34372 0.36444 0.11199 0.0
O333 O 0.3063 0.31282 0.11045 0.0
O334 O 0.3338 0.30755 0.08823 0.0
C335 C 0.29195 0.33888 0.05785 0.0
O336 O 0.28021 0.36345 0.11067 0.0
O337 O 0.29138 0.38931 0.0885 0.0
In338 In 0.38934 0.5597 0.84007 0.0
O339 O 0.38028 0.52012 0.85506 0.0
O340 O 0.34703 0.54697 0.84979 0.0
C341 C 0.44287 0.56079 0.84881 0.0
C342 C 0.38701 0.54093 0.80541 0.0
C343 C 0.37171 0.60968 0.85029 0.0
O344 O 0.42478 0.5525 0.85972 0.0
O345 O 0.43403 0.56819 0.8334 0.0
O346 O 0.36604 0.59967 0.83482 0.0
O347 O 0.38598 0.59449 0.86039 0.0
C348 C 0.35496 0.52447 0.85632 0.0
O349 O 0.38626 0.52567 0.81924 0.0
O350 O 0.38905 0.56611 0.80893 0.0
In351 In 0.17538 0.64782 0.58984 0.0
O352 O 0.21353 0.63492 0.60557 0.0
O353 O 0.19348 0.60516 0.58915 0.0
C354 C 0.16476 0.69734 0.6043 0.0
C355 C 0.19371 0.65873 0.55586 0.0
C356 C 0.12921 0.62265 0.60031 0.0
O357 O 0.18469 0.68299 0.60956 0.0
O358 O 0.15071 0.68693 0.59165 0.0
O359 O 0.13431 0.62782 0.58373 0.0
O360 O 0.14759 0.62977 0.61145 0.0
C361 C 0.21316 0.6107 0.59963 0.0
O362 O 0.17108 0.64717 0.55865 0.0
O363 O 0.20652 0.66532 0.57013 0.0
In364 In 0.09924 0.56108 0.14984 0.0
O365 O 0.09827 0.56623 0.18091 0.0
O366 O 0.07899 0.53136 0.16935 0.0
C367 C 0.12804 0.60646 0.14237 0.0
C368 C 0.13555 0.5228 0.13946 0.0
C369 C 0.0504 0.5717 0.13422 0.0
O370 O 0.11867 0.60164 0.15815 0.0
O371 O 0.12333 0.58815 0.13063 0.0
O372 O 0.06064 0.54807 0.13427 0.0
O373 O 0.06456 0.58963 0.14209 0.0
C374 C 0.08547 0.54423 0.18364 0.0
O375 O 0.1169 0.53114 0.12892 0.0
O376 O 0.13592 0.53389 0.15501 0.0
In377 In 0.18313 0.3432 0.90147 0.0
O378 O 0.22019 0.35791 0.88532 0.0
O379 O 0.19921 0.38656 0.90213 0.0
C380 C 0.17319 0.2937 0.88677 0.0
C381 C 0.20264 0.33259 0.93521 0.0
C382 C 0.13635 0.36766 0.89152 0.0
O383 O 0.19283 0.30841 0.88149 0.0
O384 O 0.15927 0.30366 0.89965 0.0
O385 O 0.1422 0.36312 0.90808 0.0
O386 O 0.15424 0.36015 0.88014 0.0
C387 C 0.21873 0.38208 0.89131 0.0
O388 O 0.17904 0.34222 0.93264 0.0
O389 O 0.21589 0.32769 0.92082 0.0
In390 In 0.39258 0.43844 0.64576 0.0
O391 O 0.38269 0.43653 0.67624 0.0
O392 O 0.40122 0.47263 0.66593 0.0
C393 C 0.37511 0.38805 0.63687 0.0
C394 C 0.35629 0.47256 0.63011 0.0
C395 C 0.44584 0.43177 0.63748 0.0
O396 O 0.37465 0.39679 0.65314 0.0
O397 O 0.38416 0.40478 0.62524 0.0
O398 O 0.42915 0.44244 0.62642 0.0
O399 O 0.43574 0.42504 0.65267 0.0
C400 C 0.39154 0.46024 0.67957 0.0
O401 O 0.38162 0.47728 0.63002 0.0
O402 O 0.3495 0.45042 0.63759 0.0
In403 In 0.30641 0.64659 0.4007 0.0
O404 O 0.2749 0.6304 0.38032 0.0
O405 O 0.28475 0.606 0.40351 0.0
C406 C 0.3142 0.69856 0.38979 0.0
C407 C 0.28385 0.65603 0.43355 0.0
C408 C 0.35446 0.62273 0.39219 0.0
O409 O 0.29882 0.6824 0.38111 0.0
O410 O 0.32535 0.68848 0.40376 0.0
O411 O 0.34683 0.62602 0.40853 0.0
O412 O 0.33786 0.63129 0.38034 0.0
C413 C 0.27071 0.60864 0.38917 0.0
O414 O 0.30806 0.64744 0.4318 0.0
O415 O 0.27126 0.66014 0.41873 0.0
H416 H 0.39612 0.92891 0.27589 0.0
H417 H 0.39747 0.06629 0.21743 0.0
H418 H 0.41003 0.00813 0.29999 0.0
H419 H 0.40856 0.98643 0.19359 0.0
H420 H 0.39888 0.04557 0.24792 0.0
H421 H 0.39761 0.94978 0.24553 0.0
C422 C 0.39961 0.95068 0.27477 0.0
C423 C 0.40296 0.96684 0.29043 0.0
C424 C 0.40113 0.03264 0.236 0.0
C425 C 0.40441 0.99087 0.25583 0.0
C426 C 0.40024 0.04442 0.21863 0.0
C427 C 0.40288 0.02802 0.20301 0.0
C428 C 0.40434 0.00424 0.23769 0.0
C429 C 0.40648 -0.00019 0.20529 0.0
C430 C 0.4005 0.96257 0.25746 0.0
C431 C 0.40742 0.99494 0.28824 0.0
N432 N 0.40694 0.98879 0.22231 0.0
N433 N 0.40783 0.00612 0.27124 0.0
H434 H 0.24382 0.16435 0.5499 0.0
H435 H 0.25782 0.16744 0.44118 0.0
H436 H 0.32018 0.15043 0.522 0.0
H437 H 0.18173 0.15172 0.46894 0.0
H438 H 0.28101 0.16914 0.47081 0.0
H439 H 0.22083 0.16762 0.52032 0.0
C440 C 0.25578 0.16218 0.53753 0.0
C441 C 0.28392 0.15701 0.53836 0.0
C442 C 0.25923 0.16543 0.47039 0.0
C443 C 0.25777 0.16083 0.50454 0.0
C444 C 0.24596 0.16459 0.45353 0.0
C445 C 0.21784 0.15933 0.45265 0.0
C446 C 0.24419 0.16133 0.48648 0.0
C447 C 0.20346 0.15571 0.46903 0.0
C448 C 0.24263 0.16394 0.52068 0.0
C449 C 0.29842 0.15431 0.52193 0.0
N450 N 0.21681 0.15679 0.48531 0.0
N451 N 0.28517 0.15628 0.50565 0.0
H452 H 0.07903 0.98705 0.79432 0.0
H453 H 0.08007 0.0113 0.68627 0.0
H454 H 0.09179 0.066 0.76961 0.0
H455 H 0.08803 0.93187 0.71119 0.0
H456 H 0.07745 0.03185 0.71668 0.0
H457 H 0.07554 0.96682 0.7639 0.0
C458 C 0.08094 0.00017 0.78247 0.0
C459 C 0.08585 0.02823 0.78446 0.0
C460 C 0.07962 0.00992 0.71549 0.0
C461 C 0.08184 0.00519 0.74962 0.0
C462 C 0.08101 -0.00185 0.69815 0.0
C463 C 0.0844 0.96985 0.69624 0.0
C464 C 0.08146 0.99323 0.73103 0.0
C465 C 0.08552 0.95379 0.71208 0.0
C466 C 0.07901 0.98858 0.76512 0.0
C467 C 0.08812 0.04426 0.76866 0.0
N468 N 0.08412 0.96573 0.72883 0.0
N469 N 0.08614 0.03248 0.75187 0.0
H470 H 0.23628 0.83124 0.94306 0.0
H471 H 0.25969 0.83642 0.05114 0.0
H472 H 0.31433 0.8477 0.9681 0.0
H473 H 0.18004 0.84326 0.02632 0.0
H474 H 0.28016 0.83455 0.02075 0.0
H475 H 0.21548 0.82956 0.97347 0.0
C476 C 0.24906 0.83431 0.95497 0.0
C477 C 0.27705 0.83968 0.9531 0.0
C478 C 0.2582 0.83643 0.02194 0.0
C479 C 0.25344 0.83775 0.98783 0.0
C480 C 0.24649 0.83743 0.03927 0.0
C481 C 0.21813 0.8401 0.04122 0.0
C482 C 0.24144 0.83788 0.00641 0.0
C483 C 0.20201 0.84131 0.02539 0.0
C484 C 0.23716 0.83346 0.9723 0.0
C485 C 0.29266 0.84358 0.96895 0.0
N486 N 0.2139 0.84017 0.00861 0.0
N487 N 0.28064 0.84252 0.98567 0.0
H488 H 0.59665 0.92484 0.77785 0.0
H489 H 0.60208 0.06354 0.72101 0.0
H490 H 0.58811 0.00417 0.80293 0.0
H491 H 0.58691 0.98498 0.69626 0.0
H492 H 0.59927 0.04224 0.75125 0.0
H493 H 0.59537 0.9465 0.74773 0.0
C494 C 0.59439 0.9468 0.777 0.0
C495 C 0.59252 0.96277 0.79286 0.0
C496 C 0.59638 0.02972 0.73919 0.0
C497 C 0.59128 0.98767 0.75854 0.0
C498 C 0.59805 0.04185 0.72196 0.0
C499 C 0.59477 0.02597 0.70615 0.0
C500 C 0.59175 0.00149 0.74056 0.0
C501 C 0.58954 -0.00203 0.70812 0.0
C502 C 0.5936 0.95915 0.75983 0.0
C503 C 0.58958 0.99113 0.79101 0.0
N504 N 0.58839 0.98658 0.72501 0.0
N505 N 0.58925 0.00272 0.77415 0.0
H506 H 0.74812 0.81551 0.44564 0.0
H507 H 0.76895 0.89463 0.54026 0.0
H508 H 0.69523 0.88044 0.46402 0.0
H509 H 0.80874 0.81833 0.52752 0.0
H510 H 0.74513 0.89255 0.51091 0.0
H511 H 0.7733 0.81849 0.47442 0.0
C512 C 0.74173 0.83032 0.45578 0.0
C513 C 0.71953 0.84773 0.45249 0.0
C514 C 0.75915 0.87632 0.5145 0.0
C515 C 0.74844 0.85146 0.48533 0.0
C516 C 0.7729 0.87759 0.53119 0.0
C517 C 0.79081 0.85659 0.53631 0.0
C518 C 0.76349 0.85399 0.50282 0.0
C519 C 0.79508 0.83493 0.52409 0.0
C520 C 0.75613 0.83202 0.47219 0.0
C521 C 0.71216 0.86656 0.46607 0.0
N522 N 0.78147 0.83416 0.5079 0.0
N523 N 0.72668 0.86802 0.48188 0.0
H524 H 0.85489 0.0409 0.28245 0.0
H525 H 0.94153 0.97632 0.20186 0.0
H526 H 0.93882 0.01676 0.29012 0.0
H527 H 0.8558 0.95861 0.20823 0.0
H528 H 0.94136 -0.00137 0.2319 0.0
H529 H 0.8552 0.0185 0.25238 0.0
C530 C 0.87341 0.03112 0.27771 0.0
C531 C 0.89686 0.03059 0.28869 0.0
C532 C 0.92265 0.98973 0.22671 0.0
C533 C 0.89739 0.00533 0.25452 0.0
C534 C 0.92272 0.97707 0.20963 0.0
C535 C 0.89867 0.96555 0.20269 0.0
C536 C 0.89822 0.99145 0.23663 0.0
C537 C 0.87481 0.96708 0.21322 0.0
C538 C 0.87351 0.01822 0.26068 0.0
C539 C 0.92031 0.0175 0.28204 0.0
N540 N 0.87509 0.98008 0.22964 0.0
N541 N 0.92006 0.00552 0.26529 0.0
H542 H 0.76278 0.18576 0.95139 0.0
H543 H 0.71581 0.1055 0.04053 0.0
H544 H 0.79675 0.10775 0.96669 0.0
H545 H 0.71512 0.19349 0.03786 0.0
H546 H 0.73833 0.10416 0.01061 0.0
H547 H 0.7385 0.1874 0.98072 0.0
C548 C 0.76518 0.16905 0.96096 0.0
C549 C 0.78186 0.14666 0.95672 0.0
C550 C 0.73312 0.12373 0.01658 0.0
C551 C 0.75385 0.14814 0.98991 0.0
C552 C 0.72013 0.1245 0.03354 0.0
C553 C 0.71372 0.14964 0.04163 0.0
C554 C 0.73926 0.14825 0.00757 0.0
C555 C 0.71987 0.17369 0.03208 0.0
C556 C 0.75137 0.17001 0.97763 0.0
C557 C 0.78424 0.12549 0.96952 0.0
N558 N 0.73225 0.17242 0.01549 0.0
N559 N 0.7702 0.12664 0.9855 0.0
H560 H 0.91101 0.48843 0.6938 0.0
H561 H 0.91373 0.50206 0.80254 0.0
H562 H 0.89582 0.56415 0.72224 0.0
H563 H 0.89952 0.42546 0.77494 0.0
H564 H 0.91498 0.52507 0.77294 0.0
H565 H 0.91443 0.46502 0.72328 0.0
C566 C 0.90859 0.50015 0.70626 0.0
C567 C 0.90304 0.52823 0.70563 0.0
C568 C 0.91169 0.50322 0.77336 0.0
C569 C 0.90705 0.50167 0.73927 0.0
C570 C 0.91108 0.49004 0.79023 0.0
C571 C 0.9064 0.46183 0.79116 0.0
C572 C 0.90787 0.48803 0.7573 0.0
C573 C 0.90307 0.44727 0.77479 0.0
C574 C 0.91044 0.48677 0.72304 0.0
C575 C 0.90001 0.54245 0.72214 0.0
N576 N 0.90387 0.46056 0.75849 0.0
N577 N 0.9021 0.529 0.73832 0.0
H578 H 0.78602 0.60295 0.03056 0.0
H579 H 0.725 0.6856 0.94711 0.0
H580 H 0.77071 0.68949 0.03459 0.0
H581 H 0.69903 0.60343 0.95919 0.0
H582 H 0.74889 0.68714 0.97662 0.0
H583 H 0.76162 0.60224 0.00125 0.0
C584 C 0.77775 0.62181 0.02517 0.0
C585 C 0.78028 0.64631 0.03493 0.0
C586 C 0.7378 0.66888 0.9728 0.0
C587 C 0.75273 0.64566 0.00158 0.0
C588 C 0.72423 0.66797 0.95603 0.0
C589 C 0.70999 0.6444 0.95084 0.0
C590 C 0.73766 0.64579 0.98413 0.0
C591 C 0.70963 0.62206 0.96281 0.0
C592 C 0.7637 0.62135 0.00858 0.0
C593 C 0.76906 0.67018 0.02746 0.0
N594 N 0.72356 0.62317 0.97885 0.0
N595 N 0.75589 0.66932 0.01112 0.0
H596 H 0.58953 0.48408 0.30379 0.0
H597 H 0.58716 0.51424 0.19645 0.0
H598 H 0.59721 0.56497 0.28104 0.0
H599 H 0.59942 0.43382 0.21907 0.0
H600 H 0.58659 0.53309 0.22739 0.0
H601 H 0.58901 0.46519 0.27286 0.0
C602 C 0.59106 0.49787 0.29227 0.0
C603 C 0.59344 0.52613 0.29495 0.0
C604 C 0.58941 0.51132 0.22559 0.0
C605 C 0.59276 0.50467 0.25955 0.0
C606 C 0.58965 0.50053 0.20795 0.0
C607 C 0.59337 0.47243 0.20522 0.0
C608 C 0.59269 0.49385 0.24063 0.0
C609 C 0.59655 0.45562 0.22058 0.0
C610 C 0.59083 0.48707 0.27463 0.0
C611 C 0.5954 0.54305 0.27955 0.0
N612 N 0.59608 0.46658 0.23766 0.0
N613 N 0.59494 0.53206 0.26249 0.0
H614 H 0.76138 0.33449 0.55624 0.0
H615 H 0.74218 0.31988 0.44823 0.0
H616 H 0.68297 0.33715 0.52939 0.0
H617 H 0.81789 0.34592 0.47287 0.0
H618 H 0.72143 0.31785 0.47854 0.0
H619 H 0.78351 0.33076 0.5263 0.0
C620 C 0.74882 0.33408 0.54405 0.0
C621 C 0.72032 0.33624 0.54524 0.0
C622 C 0.74262 0.32387 0.47733 0.0
C623 C 0.74544 0.33183 0.5111 0.0
C624 C 0.75452 0.32492 0.46005 0.0
C625 C 0.78175 0.33323 0.45805 0.0
C626 C 0.75811 0.33095 0.49275 0.0
C627 C 0.79679 0.33953 0.47383 0.0
C628 C 0.76147 0.33206 0.527 0.0
C629 C 0.70501 0.33567 0.52905 0.0
N630 N 0.78473 0.3383 0.49056 0.0
N631 N 0.71778 0.33349 0.51263 0.0
H632 H 0.08367 0.43126 0.27314 0.0
H633 H 0.09296 0.56937 0.21672 0.0
H634 H 0.07913 0.51041 0.29891 0.0
H635 H 0.06819 0.49302 0.19237 0.0
H636 H 0.08979 0.54824 0.247 0.0
H637 H 0.08013 0.45337 0.24322 0.0
C638 C 0.0818 0.45327 0.27249 0.0
C639 C 0.08176 0.46906 0.28847 0.0
C640 C 0.08477 0.53622 0.23503 0.0
C641 C 0.07796 0.49446 0.2544 0.0
C642 C 0.08659 0.54826 0.21777 0.0
C643 C 0.08091 0.53288 0.20205 0.0
C644 C 0.07766 0.50853 0.2365 0.0
C645 C 0.07275 0.50561 0.20416 0.0
C646 C 0.07968 0.46586 0.25544 0.0
C647 C 0.07922 0.4975 0.28689 0.0
N648 N 0.07167 0.4942 0.22105 0.0
N649 N 0.07769 0.50933 0.27013 0.0
H650 H 0.31665 0.34032 0.02434 0.0
H651 H 0.17738 0.33702 0.96848 0.0
H652 H 0.23848 0.32823 0.05027 0.0
H653 H 0.25572 0.32157 0.94356 0.0
H654 H 0.19917 0.33571 -0.00137 0.0
H655 H 0.29464 0.33559 0.99444 0.0
C656 C 0.29489 0.33655 0.02373 0.0
C657 C 0.27933 0.33472 0.03976 0.0
C658 C 0.21152 0.33235 0.98656 0.0
C659 C 0.25402 0.32954 0.0057 0.0
C660 C 0.19911 0.33312 0.96938 0.0
C661 C 0.2148 0.32947 0.95354 0.0
C662 C 0.23985 0.32831 0.98784 0.0
C663 C 0.24287 0.32448 0.95544 0.0
C664 C 0.28235 0.33377 0.00669 0.0
C665 C 0.25122 0.32975 0.03822 0.0
N666 N 0.25456 0.32432 0.97228 0.0
N667 N 0.2394 0.32758 0.02147 0.0
H668 H 0.37434 0.48905 0.79537 0.0
H669 H 0.40729 0.51167 0.68946 0.0
H670 H 0.39746 0.56716 0.77299 0.0
H671 H 0.37289 0.43746 0.71131 0.0
H672 H 0.40493 0.53222 0.71991 0.0
H673 H 0.37447 0.46976 0.76464 0.0
C674 C 0.37942 0.50217 0.78395 0.0
C675 C 0.38601 0.52972 0.78671 0.0
C676 C 0.39784 0.51148 0.71803 0.0
C677 C 0.38636 0.50771 0.75145 0.0
C678 C 0.39925 0.4997 0.70068 0.0
C679 C 0.39034 0.47279 0.69789 0.0
C680 C 0.38756 0.49618 0.73272 0.0
C681 C 0.38004 0.45824 0.71287 0.0
C682 C 0.37945 0.49114 0.76639 0.0
C683 C 0.39225 0.54582 0.77143 0.0
N684 N 0.37901 0.4701 0.72965 0.0
N685 N 0.39244 0.53451 0.75442 0.0
H686 H 0.16899 0.65088 0.52265 0.0
H687 H 0.30822 0.65705 0.46715 0.0
H688 H 0.24554 0.67417 0.54736 0.0
H689 H 0.22967 0.66321 0.44074 0.0
H690 H 0.28564 0.66089 0.49688 0.0
H691 H 0.19068 0.65312 0.49248 0.0
C692 C 0.19028 0.65668 0.5217 0.0
C693 C 0.20554 0.66227 0.53748 0.0
C694 C 0.27337 0.66161 0.48457 0.0
C695 C 0.23048 0.6645 0.50319 0.0
C696 C 0.28623 0.65934 0.46763 0.0
C697 C 0.27075 0.65977 0.45151 0.0
C698 C 0.24481 0.66388 0.48539 0.0
C699 C 0.24234 0.66283 0.45287 0.0
C700 C 0.20262 0.65799 0.50451 0.0
C701 C 0.23304 0.6697 0.53552 0.0
N702 N 0.23022 0.66451 0.46954 0.0
N703 N 0.24471 0.67032 0.5187 0.0
H704 H 0.37043 0.97184 0.12616 0.0
H705 H 0.21346 0.94012 0.10629 0.0
H706 H 0.30633 0.03092 0.13478 0.0
H707 H 0.27261 0.87687 0.11715 0.0
H708 H 0.24818 0.97452 0.11316 0.0
H709 H 0.33575 0.93746 0.11877 0.0
C710 C 0.34908 0.97761 0.12632 0.0
C711 C 0.34117 0.0042 0.13109 0.0
C712 C 0.25351 0.95311 0.11412 0.0
C713 C 0.30158 0.96515 0.12271 0.0
C714 C 0.23373 0.9335 0.11021 0.0
C715 C 0.2402 0.90566 0.11123 0.0
C716 C 0.28004 0.94481 0.1188 0.0
C717 C 0.26677 0.89815 0.11632 0.0
C718 C 0.32934 0.95798 0.12224 0.0
C719 C 0.31326 0.01061 0.13121 0.0
N720 N 0.28582 0.91764 0.11981 0.0
N721 N 0.29446 0.99123 0.12704 0.0
H722 H 0.23989 0.10341 0.3564 0.0
H723 H 0.35212 0.99599 0.38784 0.0
H724 H 0.24338 0.073 0.4117 0.0
H725 H 0.31713 0.99447 0.3337 0.0
H726 H 0.31842 0.03075 0.39672 0.0
H727 H 0.27463 0.06971 0.34754 0.0
C728 C 0.24804 0.0897 0.36665 0.0
C729 C 0.23872 0.09079 0.38475 0.0
C730 C 0.31821 0.02274 0.38291 0.0
C731 C 0.27854 0.0528 0.37486 0.0
C732 C 0.33741 0.00305 0.37784 0.0
C733 C 0.33722 0.99232 0.36007 0.0
C734 C 0.29922 0.03213 0.36997 0.0
C735 C 0.31778 0.00211 0.34759 0.0
C736 C 0.26773 0.0705 0.3616 0.0
C737 C 0.2499 0.07262 0.39756 0.0
N738 N 0.29964 0.02162 0.35274 0.0
N739 N 0.26939 0.05446 0.3924 0.0
H740 H 0.15482 0.98722 0.59863 0.0
H741 H 0.25673 0.10309 0.63271 0.0
H742 H 0.17428 -0.00074 0.65562 0.0
H743 H 0.26449 0.06526 0.57965 0.0
H744 H 0.22153 0.06953 0.64065 0.0
H745 H 0.1904 0.0204 0.59051 0.0
C746 C 0.16657 0.99685 0.6094 0.0
C747 C 0.16174 0.99049 0.62779 0.0
C748 C 0.23104 0.06859 0.6273 0.0
C749 C 0.20192 0.02849 0.61869 0.0
C750 C 0.25102 0.08771 0.62276 0.0
C751 C 0.26355 0.0868 0.60555 0.0
C752 C 0.22323 0.04882 0.61439 0.0
C753 C 0.25543 0.06651 0.59312 0.0
C754 C 0.18686 0.01565 0.60478 0.0
C755 C 0.1775 0.0035 0.64125 0.0
N756 N 0.23561 0.04841 0.59774 0.0
N757 N 0.19676 0.02204 0.63645 0.0
H758 H 0.14683 0.00927 0.88504 0.0
H759 H 0.24892 0.89022 0.85611 0.0
H760 H 0.16997 0.99432 0.82899 0.0
H761 H 0.25333 0.92953 0.90885 0.0
H762 H 0.21455 0.92375 0.84664 0.0
H763 H 0.18078 0.97538 0.8949 0.0
C764 C 0.15902 -0.00117 0.87484 0.0
C765 C 0.15574 0.0046 0.8562 0.0
C766 C 0.22311 0.92501 0.86027 0.0
C767 C 0.19407 0.96583 0.86729 0.0
C768 C 0.24261 0.90589 0.86568 0.0
C769 C 0.254 0.90726 0.88323 0.0
C770 C 0.21463 0.94527 0.87263 0.0
C771 C 0.24515 0.92793 0.89514 0.0
C772 C 0.17838 0.97962 0.88046 0.0
C773 C 0.172 0.99056 0.84351 0.0
N774 N 0.22583 0.94607 0.88966 0.0
N775 N 0.19036 0.97169 0.84927 0.0
H776 H 0.75878 0.0932 0.85901 0.0
H777 H 0.6424 0.98982 0.8901 0.0
H778 H 0.74911 0.06798 0.91514 0.0
H779 H 0.68063 0.98466 0.83707 0.0
H780 H 0.67582 0.02476 0.89896 0.0
H781 H 0.72406 0.05955 0.84997 0.0
C782 C 0.74923 0.0807 0.8694 0.0
C783 C 0.75684 0.08319 0.8878 0.0
C784 C 0.67684 0.0159 0.8854 0.0
C785 C 0.71717 0.0452 0.87768 0.0
C786 C 0.65782 0.99606 0.88035 0.0
C787 C 0.65895 0.98428 0.86289 0.0
C788 C 0.69666 0.02437 0.87275 0.0
C789 C 0.67925 0.99309 0.85072 0.0
C790 C 0.72959 0.0615 0.86426 0.0
C791 C 0.74393 0.06652 0.90078 0.0
N792 N 0.69723 0.01277 0.85583 0.0
N793 N 0.7246 0.04831 0.89549 0.0
H794 H 0.69549 0.01805 0.65399 0.0
H795 H 0.72436 0.87749 0.60154 0.0
H796 H 0.63462 0.97545 0.62226 0.0
H797 H 0.78516 0.92135 0.63255 0.0
H798 H 0.69025 0.91127 0.61078 0.0
H799 H 0.72796 0.98153 0.64748 0.0
C800 C 0.68899 0.00103 0.64558 0.0
C801 C 0.66237 -0.00017 0.63857 0.0
C802 C 0.711 0.91337 0.61569 0.0
C803 C 0.69939 0.95779 0.63117 0.0
C804 C 0.73044 0.89401 0.61051 0.0
C805 C 0.75764 0.89671 0.61623 0.0
C806 C 0.71886 0.93561 0.62663 0.0
C807 C 0.76442 0.91854 0.62779 0.0
C808 C 0.70751 0.98012 0.64192 0.0
C809 C 0.655 0.97724 0.62785 0.0
N810 N 0.7452 0.93726 0.6325 0.0
N811 N 0.67343 0.9571 0.62446 0.0
H812 H 0.71221 0.93883 0.38316 0.0
H813 H 0.86969 0.96976 0.36411 0.0
H814 H 0.77164 0.87458 0.37639 0.0
H815 H 0.80501 0.02844 0.3563 0.0
H816 H 0.83523 0.93488 0.37123 0.0
H817 H 0.74707 0.97235 0.37549 0.0
C818 C 0.73261 0.93178 0.37992 0.0
C819 C 0.73908 0.90392 0.38036 0.0
C820 C 0.82867 0.95542 0.36795 0.0
C821 C 0.77925 0.94224 0.37181 0.0
C822 C 0.84829 0.97532 0.36402 0.0
C823 C 0.84013 0.00198 0.35964 0.0
C824 C 0.80085 0.96243 0.36766 0.0
C825 C 0.81218 0.00812 0.35959 0.0
C826 C 0.75252 0.95093 0.37555 0.0
C827 C 0.76583 0.89589 0.37608 0.0
N828 N 0.79359 0.98854 0.36357 0.0
N829 N 0.78507 0.91502 0.3721 0.0
H830 H 0.78147 0.12649 0.10763 0.0
H831 H 0.8062 0.97192 0.13905 0.0
H832 H 0.71848 0.07179 0.12646 0.0
H833 H 0.87255 0.02581 0.12489 0.0
H834 H 0.7741 0.00888 0.1338 0.0
H835 H 0.81566 0.09097 0.11399 0.0
C836 C 0.7749 0.10718 0.11333 0.0
C837 C 0.74712 0.10201 0.11648 0.0
C838 C 0.79565 0.01275 0.13179 0.0
C839 C 0.78586 0.06137 0.1235 0.0
C840 C 0.81402 0.99156 0.1347 0.0
C841 C 0.84209 0.99579 0.13238 0.0
C842 C 0.80529 0.03854 0.12648 0.0
C843 C 0.85103 0.0217 0.12677 0.0
C844 C 0.79437 0.0869 0.11685 0.0
C845 C 0.73966 0.07663 0.12376 0.0
N846 N 0.83265 0.04218 0.12402 0.0
N847 N 0.75886 0.05727 0.12691 0.0
H848 H 0.73914 0.42788 0.58604 0.0
H849 H 0.81432 0.50691 0.66612 0.0
H850 H 0.74029 0.39657 0.64116 0.0
H851 H 0.84445 0.50802 0.61069 0.0
H852 H 0.78122 0.47174 0.65734 0.0
H853 H 0.77213 0.46292 0.59502 0.0
C854 C 0.74627 0.42848 0.60006 0.0
C855 C 0.73704 0.40935 0.61291 0.0
C856 C 0.7951 0.47972 0.64713 0.0
C857 C 0.77443 0.44946 0.62324 0.0
C858 C 0.81383 0.49985 0.65208 0.0
C859 C 0.83207 0.51033 0.63907 0.0
C860 C 0.79425 0.47048 0.62899 0.0
C861 C 0.83075 0.50039 0.62111 0.0
C862 C 0.76515 0.44836 0.60512 0.0
C863 C 0.747 0.41092 0.63086 0.0
N864 N 0.81198 0.48113 0.61655 0.0
N865 N 0.76506 0.43082 0.63556 0.0
H866 H 0.8167 0.48151 0.83179 0.0
H867 H 0.74619 0.56729 0.91018 0.0
H868 H 0.85282 0.48933 0.88536 0.0
H869 H 0.73858 0.59049 0.85351 0.0
H870 H 0.78138 0.53422 0.90171 0.0
H871 H 0.78359 0.51704 0.83985 0.0
C872 C 0.81756 0.49063 0.84528 0.0
C873 C 0.83739 0.48246 0.85799 0.0
C874 C 0.77211 0.54665 0.89115 0.0
C875 C 0.79964 0.52282 0.86724 0.0
C876 C 0.75199 0.56541 0.89594 0.0
C877 C 0.73951 0.58153 0.88248 0.0
C878 C 0.77937 0.54358 0.87273 0.0
C879 C 0.74783 0.57844 0.86426 0.0
C880 C 0.79883 0.511 0.84979 0.0
C881 C 0.83781 0.49507 0.8752 0.0
N882 N 0.76709 0.55953 0.85986 0.0
N883 N 0.819 0.51449 0.8794 0.0
H884 H 0.72236 0.62479 0.1104 0.0
H885 H 0.68978 0.47056 0.13869 0.0
H886 H 0.78127 0.55934 0.1084 0.0
H887 H 0.62643 0.52915 0.12678 0.0
H888 H 0.72403 0.50447 0.13043 0.0
H889 H 0.68724 0.59169 0.11953 0.0
C890 C 0.72792 0.60353 0.11204 0.0
C891 C 0.7547 0.59473 0.10864 0.0
C892 C 0.70264 0.50993 0.12955 0.0
C893 C 0.71488 0.55697 0.11898 0.0
C894 C 0.68309 0.49057 0.13426 0.0
C895 C 0.65526 0.49706 0.13335 0.0
C896 C 0.69437 0.53611 0.12404 0.0
C897 C 0.64771 0.52331 0.12756 0.0
C898 C 0.70789 0.58467 0.11712 0.0
C899 C 0.76085 0.56697 0.11083 0.0
N900 N 0.6672 0.54198 0.12318 0.0
N901 N 0.74112 0.54911 0.11588 0.0
H902 H 0.7253 0.37499 0.37772 0.0
H903 H 0.68609 0.53205 0.36946 0.0
H904 H 0.77519 0.43917 0.40046 0.0
H905 H 0.62528 0.46838 0.3688 0.0
H906 H 0.72071 0.49813 0.37756 0.0
H907 H 0.68993 0.40888 0.37065 0.0
C908 C 0.72884 0.39622 0.38112 0.0
C909 C 0.75314 0.40436 0.38966 0.0
C910 C 0.69975 0.49162 0.37576 0.0
C911 C 0.71303 0.44303 0.38161 0.0
C912 C 0.68003 0.51093 0.37114 0.0
C913 C 0.65283 0.50295 0.36852 0.0
C914 C 0.69231 0.46408 0.37744 0.0
C915 C 0.64602 0.47535 0.37082 0.0
C916 C 0.70863 0.41547 0.37721 0.0
C917 C 0.7567 0.43207 0.39389 0.0
N918 N 0.66572 0.4568 0.37499 0.0
N919 N 0.73691 0.45045 0.38973 0.0
H920 H 0.17255 0.49168 0.33012 0.0
H921 H 0.24655 0.57037 0.41065 0.0
H922 H 0.13898 0.49379 0.38464 0.0
H923 H 0.2487 0.60034 0.35521 0.0
H924 H 0.21245 0.53647 0.40147 0.0
H925 H 0.20625 0.52606 0.33923 0.0
C926 C 0.17239 0.4993 0.34403 0.0
C927 C 0.15304 0.48995 0.35669 0.0
C928 C 0.22039 0.55051 0.39135 0.0
C929 C 0.19153 0.52887 0.36715 0.0
C930 C 0.2399 0.56972 0.39652 0.0
C931 C 0.25038 0.58811 0.38363 0.0
C932 C 0.21179 0.54933 0.37308 0.0
C933 C 0.24101 0.58654 0.36555 0.0
C934 C 0.19147 0.51898 0.34915 0.0
C935 C 0.15355 0.50057 0.37449 0.0
N936 N 0.22236 0.56727 0.36074 0.0
N937 N 0.17269 0.51935 0.37926 0.0
H938 H 0.25553 0.4271 0.08178 0.0
H939 H 0.16837 0.49293 0.16189 0.0
H940 H 0.24928 0.38941 0.13491 0.0
H941 H 0.14822 0.50504 0.10503 0.0
H942 H 0.20225 0.4587 0.1529 0.0
H943 H 0.22031 0.45994 0.09071 0.0
C944 C 0.24678 0.42581 0.09535 0.0
C945 C 0.25529 0.40558 0.10766 0.0
C946 C 0.19032 0.46878 0.14242 0.0
C947 C 0.21525 0.4431 0.11795 0.0
C948 C 0.1711 0.48836 0.14751 0.0
C949 C 0.15556 0.50179 0.13415 0.0
C950 C 0.19434 0.463 0.12382 0.0
C951 C 0.15978 0.49507 0.11573 0.0
C952 C 0.22662 0.44443 0.10038 0.0
C953 C 0.24321 0.40469 0.12503 0.0
N954 N 0.17899 0.47627 0.11108 0.0
N955 N 0.2239 0.42336 0.12973 0.0
H956 H 0.36504 0.47056 0.86263 0.0
H957 H 0.21471 0.43678 0.89758 0.0
H958 H 0.30137 0.53132 0.86559 0.0
H959 H 0.26814 0.37582 0.87443 0.0
H960 H 0.24846 0.4719 0.89026 0.0
H961 H 0.33198 0.43565 0.87169 0.0
C962 C 0.34416 0.47658 0.86539 0.0
C963 C 0.33584 0.5038 0.86333 0.0
C964 C 0.25274 0.45084 0.88675 0.0
C965 C 0.29808 0.4641 0.87366 0.0
C966 C 0.23354 0.43081 0.89093 0.0
C967 C 0.23866 0.40341 0.88652 0.0
C968 C 0.27736 0.44334 0.87835 0.0
C969 C 0.26338 0.39675 0.87795 0.0
C970 C 0.32531 0.45665 0.87042 0.0
C971 C 0.30855 0.51051 0.86696 0.0
N972 N 0.28192 0.4166 0.87421 0.0
N973 N 0.2906 0.49077 0.87199 0.0
H974 H 0.30274 0.463 0.62244 0.0
H975 H 0.26314 0.61999 0.6151 0.0
H976 H 0.36325 0.52696 0.62321 0.0
H977 H 0.21195 0.55576 0.59374 0.0
H978 H 0.29896 0.58619 0.62111 0.0
H979 H 0.26798 0.49674 0.61434 0.0
C980 C 0.30872 0.48413 0.62075 0.0
C981 C 0.33585 0.49226 0.62347 0.0
C982 C 0.2799 0.57956 0.61507 0.0
C983 C 0.2962 0.53096 0.61457 0.0
C984 C 0.25942 0.59876 0.61177 0.0
C985 C 0.23458 0.59058 0.60396 0.0
C986 C 0.27528 0.55199 0.61079 0.0
C987 C 0.23083 0.56289 0.59978 0.0
C988 C 0.28891 0.50335 0.61613 0.0
C989 C 0.34255 0.51987 0.62113 0.0
N990 N 0.25092 0.54454 0.60335 0.0
N991 N 0.32277 0.53834 0.617 0.0
H992 H 0.38018 0.13118 0.10635 0.0
H993 H 0.30708 0.27155 0.13381 0.0
H994 H 0.35216 0.1481 0.16115 0.0
H995 H 0.35127 0.25859 0.08351 0.0
H996 H 0.31879 0.22489 0.14329 0.0
H997 H 0.36485 0.17633 0.0969 0.0
C998 C 0.3707 0.1444 0.1164 0.0
C999 C 0.36755 0.13595 0.13458 0.0
C1000 C 0.32584 0.23231 0.13017 0.0
C1001 C 0.34992 0.18778 0.12385 0.0
C1002 C 0.31912 0.25885 0.12475 0.0
C1003 C 0.32832 0.26892 0.10789 0.0
C1004 C 0.34163 0.21577 0.11855 0.0
C1005 C 0.34386 0.25169 0.09666 0.0
C1006 C 0.36199 0.17022 0.111 0.0
C1007 C 0.35506 0.1539 0.147 0.0
N1008 N 0.35 0.22599 0.10219 0.0
N1009 N 0.34671 0.17905 0.14141 0.0
H1010 H 0.11626 0.10761 0.36 0.0
H1011 H 0.96469 0.06679 0.39068 0.0
H1012 H 0.0898 0.11031 0.41625 0.0
H1013 H 0.99107 0.07669 0.3348 0.0
H1014 H 0.01135 0.07729 0.40095 0.0
H1015 H 0.07153 0.09055 0.35117 0.0
C1016 C 0.10103 0.10447 0.37053 0.0
C1017 C 0.10667 0.11058 0.38887 0.0
C1018 C 0.00687 0.07699 0.38645 0.0
C1019 C 0.05516 0.09113 0.37883 0.0
C1020 C 0.98033 0.07094 0.3806 0.0
C1021 C 0.97402 0.07106 0.36188 0.0
C1022 C 0.02713 0.08296 0.37344 0.0
C1023 C 0.99497 0.07657 0.34937 0.0
C1024 C 0.07544 0.09474 0.36548 0.0
C1025 C 0.08621 0.10594 0.40194 0.0
N1026 N 0.0205 0.08235 0.35537 0.0
N1027 N 0.06123 0.09663 0.39665 0.0
H1028 H 0.1687 0.86439 0.64111 0.0
H1029 H 0.11591 0.7235 0.603 0.0
H1030 H 0.08409 0.8405 0.64442 0.0
H1031 H 0.19774 0.73153 0.62415 0.0
H1032 H 0.10452 0.76803 0.61599 0.0
H1033 H 0.18079 0.81716 0.63334 0.0
C1034 C 0.15274 0.84913 0.64043 0.0
C1035 C 0.12535 0.85632 0.64332 0.0
C1036 C 0.12492 0.75998 0.61791 0.0
C1037 C 0.13893 0.80267 0.63412 0.0
C1038 C 0.13148 0.73469 0.61039 0.0
C1039 C 0.15783 0.72396 0.61246 0.0
C1040 C 0.145 0.77493 0.62723 0.0
C1041 C 0.17718 0.73917 0.62228 0.0
C1042 C 0.15965 0.82224 0.63603 0.0
C1043 C 0.10545 0.83581 0.64229 0.0
N1044 N 0.17048 0.76412 0.62914 0.0
N1045 N 0.11259 0.80998 0.6375 0.0
H1046 H 0.50715 0.90307 0.83312 0.0
H1047 H 0.39893 0.89435 0.91438 0.0
H1048 H 0.52356 0.93491 0.88704 0.0
H1049 H 0.37958 0.87824 0.85782 0.0
H1050 H 0.44451 0.90963 0.90504 0.0
H1051 H 0.46018 0.89399 0.84221 0.0
C1052 C 0.50079 0.90827 0.84687 0.0
C1053 C 0.51926 0.91964 0.85938 0.0
C1054 C 0.43019 0.90296 0.89468 0.0
C1055 C 0.46549 0.90912 0.86997 0.0
C1056 C 0.40421 0.89422 0.9 0.0
C1057 C 0.38554 0.88488 0.88686 0.0
C1058 C 0.43752 0.9021 0.87611 0.0
C1059 C 0.39337 0.88518 0.86842 0.0
C1060 C 0.47394 0.90313 0.85206 0.0
C1061 C 0.50992 0.9261 0.87699 0.0
N1062 N 0.41881 0.89344 0.86362 0.0
N1063 N 0.48368 0.92052 0.88184 0.0
H1064 H 0.30064 0.72337 0.35734 0.0
H1065 H 0.36692 0.86615 0.38684 0.0
H1066 H 0.33959 0.73832 0.40933 0.0
H1067 H 0.3472 0.84672 0.33081 0.0
H1068 H 0.35074 0.82119 0.39607 0.0
H1069 H 0.31168 0.77031 0.34808 0.0
C1070 C 0.31135 0.73658 0.36682 0.0
C1071 C 0.31935 0.72698 0.38408 0.0
C1072 C 0.34985 0.82674 0.38175 0.0
C1073 C 0.33184 0.78042 0.37368 0.0
C1074 C 0.35903 0.85245 0.37648 0.0
C1075 C 0.35855 0.86009 0.35802 0.0
C1076 C 0.34001 0.80848 0.36849 0.0
C1077 C 0.34802 0.84154 0.34518 0.0
C1078 C 0.31769 0.76327 0.36152 0.0
C1079 C 0.33318 0.74485 0.39585 0.0
N1080 N 0.33921 0.8165 0.35066 0.0
N1081 N 0.33898 0.77067 0.39043 0.0
H1082 H 0.40998 0.10215 0.57726 0.0
H1083 H 0.51098 0.08503 0.66232 0.0
H1084 H 0.38676 0.11534 0.6335 0.0
H1085 H 0.53221 0.0586 0.60785 0.0
H1086 H 0.46523 0.09612 0.65162 0.0
H1087 H 0.45476 0.08588 0.58771 0.0
C1088 C 0.41425 0.10147 0.59179 0.0
C1089 C 0.39471 0.11022 0.60454 0.0
C1090 C 0.47978 0.08776 0.64198 0.0
C1091 C 0.44572 0.09183 0.61654 0.0
C1092 C 0.50595 0.08145 0.64809 0.0
C1093 C 0.52542 0.07097 0.63593 0.0
C1094 C 0.47301 0.08381 0.6235 0.0
C1095 C 0.51775 0.06666 0.61766 0.0
C1096 C 0.43976 0.09217 0.59774 0.0
C1097 C 0.40124 0.10889 0.62319 0.0
N1098 N 0.49215 0.07329 0.61194 0.0
N1099 N 0.4262 0.10004 0.6286 0.0
H1100 H 0.08411 0.1571 0.8428 0.0
H1101 H 0.20525 0.26071 0.8653 0.0
H1102 H 0.16832 0.13121 0.84296 0.0
H1103 H 0.12441 0.26755 0.88824 0.0
H1104 H 0.19186 0.21717 0.85104 0.0
H1105 H 0.09853 0.20248 0.85287 0.0
C1106 C 0.10567 0.16109 0.84468 0.0
C1107 C 0.12505 0.14036 0.84218 0.0
C1108 C 0.17714 0.22832 0.85919 0.0
C1109 C 0.14163 0.19213 0.85368 0.0
C1110 C 0.18472 0.25307 0.86728 0.0
C1111 C 0.16594 0.26754 0.87805 0.0
C1112 C 0.15046 0.21847 0.86158 0.0
C1113 C 0.13958 0.25688 0.88019 0.0
C1114 C 0.11385 0.18691 0.85054 0.0
C1115 C 0.15274 0.14663 0.84485 0.0
N1116 N 0.13258 0.23306 0.87195 0.0
N1117 N 0.16024 0.17201 0.85052 0.0
H1118 H 0.113 0.86705 0.1365 0.0
H1119 H 0.97126 0.93429 0.1054 0.0
H1120 H 0.09557 0.88829 0.08045 0.0
H1121 H 0.98679 0.90103 0.15902 0.0
H1122 H 0.0177 0.92122 0.09621 0.0
H1123 H 0.06778 0.88308 0.14524 0.0
C1124 C 0.09964 0.87515 0.12602 0.0
C1125 C 0.10801 0.87625 0.10771 0.0
C1126 C 0.01091 0.91687 0.10999 0.0
C1127 C 0.05605 0.89471 0.11763 0.0
C1128 C 0.98448 0.92439 0.11524 0.0
C1129 C 0.97517 0.91867 0.13298 0.0
C1130 C 0.0281 0.90373 0.12262 0.0
C1131 C 0.99307 0.90576 0.14519 0.0
C1132 C 0.07377 0.88428 0.13102 0.0
C1133 C 0.08985 0.88701 0.09472 0.0
N1134 N 0.01861 0.89874 0.13978 0.0
N1135 N 0.06466 0.89582 0.09992 0.0
H1136 H 0.63722 0.72366 0.90699 0.0
H1137 H 0.64685 0.84096 0.83165 0.0
H1138 H 0.68703 0.71541 0.85865 0.0
H1139 H 0.61701 0.85389 0.88649 0.0
H1140 H 0.65994 0.79428 0.84018 0.0
H1141 H 0.62738 0.77076 0.89855 0.0
C1142 C 0.64611 0.7318 0.89458 0.0
C1143 C 0.66295 0.71562 0.88349 0.0
C1144 C 0.65068 0.80744 0.85035 0.0
C1145 C 0.65167 0.7696 0.87368 0.0
C1146 C 0.64319 0.83402 0.84549 0.0
C1147 C 0.63078 0.85126 0.85838 0.0
C1148 C 0.64541 0.79804 0.86814 0.0
C1149 C 0.62651 0.84129 0.87612 0.0
C1150 C 0.64055 0.75874 0.8898 0.0
C1151 C 0.67397 0.72725 0.86758 0.0
N1152 N 0.63364 0.81531 0.88043 0.0
N1153 N 0.66801 0.75355 0.86308 0.0
H1154 H 0.00661 0.96426 0.62995 0.0
H1155 H 0.91751 0.85382 0.57704 0.0
H1156 H 0.04208 0.90046 0.59691 0.0
H1157 H 0.88368 0.92535 0.60303 0.0
H1158 H 0.96341 0.87225 0.58196 0.0
H1159 H 0.96164 0.95249 0.61794 0.0
C1160 C 0.00495 0.94803 0.61994 0.0
C1161 C 0.02803 0.93317 0.61451 0.0
C1162 C 0.94593 0.88406 0.58638 0.0
C1163 C 0.97655 0.91922 0.60093 0.0
C1164 C 0.91974 0.87354 0.58359 0.0
C1165 C 0.8968 0.88796 0.58981 0.0
C1166 C 0.94914 0.90907 0.59558 0.0
C1167 C 0.90082 0.91345 0.59815 0.0
C1168 C 0.97926 0.94128 0.61309 0.0
C1169 C 0.02476 0.91239 0.60147 0.0
N1170 N 0.92648 0.92304 0.60096 0.0
N1171 N -0.00059 0.90575 0.59531 0.0
H1172 H 0.87382 0.27765 0.38543 0.0
H1173 H 0.83195 0.12557 0.36962 0.0
H1174 H 0.78856 0.25684 0.38085 0.0
H1175 H 0.89873 0.1604 0.33913 0.0
H1176 H 0.8175 0.17176 0.37845 0.0
H1177 H 0.88579 0.23266 0.37304 0.0
C1178 C 0.85765 0.26355 0.38182 0.0
C1179 C 0.83019 0.27079 0.38414 0.0
C1180 C 0.83516 0.16921 0.36971 0.0
C1181 C 0.84372 0.21948 0.37036 0.0
C1182 C 0.84347 0.14298 0.36475 0.0
C1183 C 0.86653 0.13933 0.35366 0.0
C1184 C 0.85055 0.19175 0.36398 0.0
C1185 C 0.88077 0.16246 0.34764 0.0
C1186 C 0.86449 0.23807 0.37467 0.0
C1187 C 0.80997 0.25194 0.37918 0.0
N1188 N 0.8728 0.18776 0.35313 0.0
N1189 N 0.81714 0.22688 0.37275 0.0
H1190 H 0.59746 0.11006 0.08087 0.0
H1191 H 0.49102 0.08818 0.1625 0.0
H1192 H 0.61457 0.12743 0.13759 0.0
H1193 H 0.47481 0.06225 0.10715 0.0
H1194 H 0.53676 0.10192 0.15334 0.0
H1195 H 0.55269 0.092 0.08982 0.0
C1196 C 0.59181 0.11003 0.09519 0.0
C1197 C 0.60967 0.12034 0.10851 0.0
C1198 C 0.52333 0.09309 0.14317 0.0
C1199 C 0.5587 0.09978 0.11882 0.0
C1200 C 0.49718 0.08523 0.14841 0.0
C1201 C 0.4791 0.07414 0.13554 0.0
C1202 C 0.53149 0.09008 0.12487 0.0
C1203 C 0.48818 0.07071 0.11749 0.0
C1204 C 0.56632 0.09968 0.10029 0.0
C1205 C 0.60141 0.11976 0.12686 0.0
N1206 N 0.51373 0.07884 0.11263 0.0
N1207 N 0.57653 0.10976 0.13145 0.0
H1208 H 0.65427 0.25599 0.58597 0.0
H1209 H 0.64743 0.14745 0.6671 0.0
H1210 H 0.68867 0.272 0.63923 0.0
H1211 H 0.63059 0.12827 0.61061 0.0
H1212 H 0.66212 0.19326 0.65777 0.0
H1213 H 0.64472 0.20926 0.59528 0.0
C1214 C 0.6599 0.24961 0.59964 0.0
C1215 C 0.6722 0.2679 0.61188 0.0
C1216 C 0.65539 0.17893 0.64743 0.0
C1217 C 0.66115 0.21432 0.62271 0.0
C1218 C 0.64698 0.15283 0.65274 0.0
C1219 C 0.63767 0.13411 0.63961 0.0
C1220 C 0.65422 0.18634 0.62889 0.0
C1221 C 0.63755 0.14207 0.6212 0.0
C1222 C 0.6545 0.22287 0.60494 0.0
C1223 C 0.67916 0.25849 0.62939 0.0
N1224 N 0.6455 0.16761 0.61642 0.0
N1225 N 0.67334 0.23235 0.63436 0.0
H1226 H 0.48483 0.89974 0.33255 0.0
H1227 H 0.59328 0.8908 0.41389 0.0
H1228 H 0.47134 0.93782 0.385 0.0
H1229 H 0.61142 0.87027 0.3578 0.0
H1230 H 0.54802 0.90681 0.40426 0.0
H1231 H 0.53086 0.88745 0.34216 0.0
C1232 C 0.49163 0.90562 0.34609 0.0
C1233 C 0.47426 0.91978 0.35801 0.0
C1234 C 0.56199 0.89892 0.39408 0.0
C1235 C 0.52695 0.90556 0.3692 0.0
C1236 C 0.58776 0.88973 0.39956 0.0
C1237 C 0.60607 0.87913 0.38662 0.0
C1238 C 0.55448 0.89724 0.37557 0.0
C1239 C 0.59794 0.87825 0.36824 0.0
C1240 C 0.51795 0.89863 0.35157 0.0
C1241 C 0.48415 0.92693 0.37538 0.0
N1242 N 0.57273 0.88704 0.36329 0.0
N1243 N 0.50983 0.91956 0.38053 0.0
H1244 H 0.83819 0.74072 0.07878 0.0
H1245 H 0.86127 0.8425 0.16282 0.0
H1246 H 0.81958 0.71838 0.13446 0.0
H1247 H 0.86623 0.8663 0.10612 0.0
H1248 H 0.84637 0.79687 0.1532 0.0
H1249 H 0.84905 0.78675 0.08897 0.0
C1250 C 0.83632 0.74555 0.09318 0.0
C1251 C 0.82804 0.72569 0.10581 0.0
C1252 C 0.85059 0.81215 0.1429 0.0
C1253 C 0.84061 0.7785 0.11764 0.0
C1254 C 0.85911 0.83815 0.14837 0.0
C1255 C 0.86508 0.85815 0.13524 0.0
C1256 C 0.84822 0.80615 0.12417 0.0
C1257 C 0.86191 0.85149 0.11671 0.0
C1258 C 0.84248 0.77189 0.099 0.0
C1259 C 0.82589 0.73313 0.12429 0.0
N1260 N 0.85384 0.82605 0.11175 0.0
N1261 N 0.83231 0.75896 0.12969 0.0
H1262 H 0.00069 0.04428 0.83942 0.0
H1263 H 0.91236 0.11375 0.91881 0.0
H1264 H 0.03653 0.0788 0.88813 0.0
H1265 H 0.87934 0.08457 0.8677 0.0
H1266 H 0.95729 0.09617 0.90984 0.0
H1267 H 0.95544 0.05347 0.85175 0.0
C1268 C -0.00098 0.05355 0.85283 0.0
C1269 C 0.02238 0.06102 0.86271 0.0
C1270 C 0.94015 0.09344 0.90067 0.0
C1271 C 0.97053 0.07193 0.87686 0.0
C1272 C 0.91453 0.10344 0.90578 0.0
C1273 C 0.89219 0.10078 0.8939 0.0
C1274 C 0.94334 0.08067 0.88359 0.0
C1275 C 0.89606 0.08723 0.87721 0.0
C1276 C 0.97315 0.05886 0.85985 0.0
C1277 C 0.019 0.07282 0.88005 0.0
N1278 N 0.92116 0.07782 0.87253 0.0
N1279 N 0.99351 0.07818 0.88652 0.0
H1280 H 0.80116 0.75571 0.59348 0.0
H1281 H 0.87273 0.66259 0.66967 0.0
H1282 H 0.84789 0.78905 0.63827 0.0
H1283 H 0.84145 0.63209 0.61842 0.0
H1284 H 0.85786 0.70866 0.66101 0.0
H1285 H 0.80961 0.70987 0.60522 0.0
C1286 C 0.81302 0.75339 0.60589 0.0
C1287 C 0.82402 0.7762 0.61485 0.0
C1288 C 0.85412 0.69182 0.65173 0.0
C1289 C 0.83388 0.72372 0.62833 0.0
C1290 C 0.86251 0.66556 0.65669 0.0
C1291 C 0.85845 0.64357 0.64468 0.0
C1292 C 0.8414 0.69599 0.63474 0.0
C1293 C 0.84514 0.6485 0.62803 0.0
C1294 C 0.8179 0.7272 0.61256 0.0
C1295 C 0.83915 0.77199 0.6309 0.0
N1296 N 0.83716 0.67418 0.62354 0.0
N1297 N 0.84377 0.7462 0.6371 0.0
H1298 H 0.5885 0.59424 0.91068 0.0
H1299 H 0.48604 0.57423 0.827 0.0
H1300 H 0.61303 0.60045 0.85417 0.0
H1301 H 0.46535 0.55379 0.88268 0.0
H1302 H 0.5331 0.58257 0.8366 0.0
H1303 H 0.54363 0.57809 0.90075 0.0
C1304 C 0.58449 0.59201 0.89619 0.0
C1305 C 0.6044 0.59885 0.88321 0.0
C1306 C 0.51834 0.57603 0.8467 0.0
C1307 C 0.55315 0.58059 0.87175 0.0
C1308 C 0.49148 0.57129 0.84123 0.0
C1309 C 0.47179 0.56349 0.8541 0.0
C1310 C 0.52547 0.57323 0.86521 0.0
C1311 C 0.47992 0.55987 0.87233 0.0
C1312 C 0.5589 0.58276 0.89052 0.0
C1313 C 0.5982 0.5955 0.86462 0.0
N1314 N 0.5061 0.56503 0.87739 0.0
N1315 N 0.57303 0.58683 0.85944 0.0
H1316 H 0.6179 0.3698 0.10866 0.0
H1317 H 0.69021 0.22996 0.13843 0.0
H1318 H 0.6428 0.3534 0.16419 0.0
H1319 H 0.65084 0.2431 0.08638 0.0
H1320 H 0.67749 0.27656 0.14756 0.0
H1321 H 0.63443 0.32483 0.09966 0.0
C1322 C 0.62693 0.35673 0.11897 0.0
C1323 C 0.62887 0.36528 0.13722 0.0
C1324 C 0.67174 0.26921 0.13413 0.0
C1325 C 0.64789 0.31365 0.127 0.0
C1326 C 0.67906 0.2427 0.12891 0.0
C1327 C 0.67147 0.23267 0.11166 0.0
C1328 C 0.65695 0.28575 0.12194 0.0
C1329 C 0.657 0.24996 0.09984 0.0
C1330 C 0.63634 0.33101 0.11382 0.0
C1331 C 0.64082 0.34752 0.14998 0.0
N1332 N 0.65023 0.27559 0.1052 0.0
N1333 N 0.64987 0.32247 0.14463 0.0
H1334 H 0.89851 0.39477 0.41552 0.0
H1335 H 0.00046 0.4057 0.33108 0.0
H1336 H 0.87487 0.37912 0.35963 0.0
H1337 H 0.01887 0.44064 0.38384 0.0
H1338 H 0.95438 0.39551 0.34162 0.0
H1339 H 0.94273 0.41158 0.40462 0.0
C1340 C 0.90255 0.39508 0.40096 0.0
C1341 C 0.88309 0.38541 0.38846 0.0
C1342 C 0.96838 0.40559 0.35088 0.0
C1343 C 0.93355 0.40434 0.37595 0.0
C1344 C 0.99472 0.41135 0.34488 0.0
C1345 C 0.0135 0.42392 0.35665 0.0
C1346 C 0.9608 0.41211 0.36888 0.0
C1347 C 0.00496 0.43091 0.37435 0.0
C1348 C 0.92775 0.4047 0.39476 0.0
C1349 C 0.88932 0.3863 0.36975 0.0
N1350 N 0.97926 0.42467 0.38001 0.0
N1351 N 0.91408 0.39537 0.36409 0.0
H1352 H 0.87268 0.35755 0.8868 0.0
H1353 H 0.81154 0.21146 0.86 0.0
H1354 H 0.85514 0.33502 0.83096 0.0
H1355 H 0.85074 0.22949 0.91145 0.0
H1356 H 0.82177 0.25809 0.84967 0.0
H1357 H 0.8587 0.31219 0.89668 0.0
C1358 C 0.86574 0.34307 0.87661 0.0
C1359 C 0.86519 0.35002 0.85802 0.0
C1360 C 0.82806 0.25177 0.86322 0.0
C1361 C 0.84914 0.2979 0.86926 0.0
C1362 C 0.82218 0.22525 0.86913 0.0
C1363 C 0.83039 0.21662 0.88658 0.0
C1364 C 0.84194 0.26976 0.87495 0.0
C1365 C 0.84414 0.23525 0.89787 0.0
C1366 C 0.85784 0.31712 0.88226 0.0
C1367 C 0.85596 0.33043 0.84543 0.0
N1368 N 0.84942 0.26091 0.89187 0.0
N1369 N 0.8483 0.30518 0.85128 0.0
H1370 H 0.03377 0.62052 0.1206 0.0
H1371 H 0.87815 0.58549 0.11703 0.0
H1372 H 0.00678 0.53769 0.12908 0.0
H1373 H 0.91283 0.64291 0.07888 0.0
H1374 H 0.9243 0.56995 0.12486 0.0
H1375 H 0.98864 0.63194 0.10833 0.0
C1376 C 0.01833 0.60473 0.11979 0.0
C1377 C 0.02384 0.57816 0.12586 0.0
C1378 C 0.92173 0.58575 0.11464 0.0
C1379 C 0.97232 0.59118 0.11221 0.0
C1380 C 0.89551 0.5947 0.11025 0.0
C1381 C 0.89182 0.61553 0.09734 0.0
C1382 C 0.94434 0.59826 0.10643 0.0
C1383 C 0.91489 0.62675 0.08888 0.0
C1384 C 0.99272 0.61122 0.11272 0.0
C1385 C 0.00325 0.5584 0.12448 0.0
N1386 N 0.94028 0.61827 0.09379 0.0
N1387 N 0.97815 0.56541 0.11805 0.0
H1388 H 0.64048 0.64495 0.33464 0.0
H1389 H 0.6478 0.75817 0.41349 0.0
H1390 H 0.61266 0.63224 0.38996 0.0
H1391 H 0.68269 0.76979 0.35989 0.0
H1392 H 0.63506 0.71179 0.40492 0.0
H1393 H 0.65629 0.69061 0.34335 0.0
C1394 C 0.63776 0.65175 0.34862 0.0
C1395 C 0.62519 0.63484 0.36159 0.0
C1396 C 0.6456 0.72439 0.39502 0.0
C1397 C 0.64314 0.68694 0.37164 0.0
C1398 C 0.65287 0.7509 0.39991 0.0
C1399 C 0.66627 0.76785 0.38736 0.0
C1400 C 0.65161 0.71473 0.37739 0.0
C1401 C 0.67238 0.75735 0.36998 0.0
C1402 C 0.64681 0.67778 0.35359 0.0
C1403 C 0.62221 0.64462 0.37951 0.0
N1404 N 0.66488 0.73147 0.36546 0.0
N1405 N 0.63104 0.67003 0.38398 0.0
H1406 H 0.59558 0.39208 0.5803 0.0
H1407 H 0.48577 0.41283 0.66006 0.0
H1408 H 0.61152 0.3763 0.63736 0.0
H1409 H 0.47117 0.43726 0.60423 0.0
H1410 H 0.53232 0.40023 0.65184 0.0
H1411 H 0.55026 0.40945 0.58854 0.0
C1412 C 0.58958 0.39237 0.59455 0.0
C1413 C 0.60726 0.38265 0.60817 0.0
C1414 C 0.51905 0.4085 0.64137 0.0
C1415 C 0.55558 0.40238 0.61767 0.0
C1416 C 0.49245 0.4157 0.64607 0.0
C1417 C 0.47458 0.42603 0.63279 0.0
C1418 C 0.52788 0.41142 0.62321 0.0
C1419 C 0.48432 0.42936 0.61488 0.0
C1420 C 0.56375 0.40231 0.59925 0.0
C1421 C 0.59851 0.38353 0.62642 0.0
N1422 N 0.5103 0.4219 0.61058 0.0
N1423 N 0.57327 0.39309 0.63061 0.0
H1424 H 0.13878 0.34564 0.32772 0.0
H1425 H 0.14575 0.23886 0.41008 0.0
H1426 H 0.11758 0.36478 0.38355 0.0
H1427 H 0.18383 0.22341 0.3579 0.0
H1428 H 0.13409 0.28473 0.39992 0.0
H1429 H 0.15445 0.30042 0.33777 0.0
C1430 C 0.13754 0.34037 0.34207 0.0
C1431 C 0.12678 0.35892 0.35482 0.0
C1432 C 0.14511 0.27142 0.39068 0.0
C1433 C 0.14444 0.30741 0.36634 0.0
C1434 C 0.15173 0.24518 0.39647 0.0
C1435 C 0.16573 0.22731 0.3848 0.0
C1436 C 0.15229 0.27989 0.37298 0.0
C1437 C 0.17304 0.23661 0.36732 0.0
C1438 C 0.1465 0.31462 0.3478 0.0
C1439 C 0.12566 0.35111 0.37324 0.0
N1440 N 0.16607 0.26226 0.36187 0.0
N1441 N 0.13422 0.32594 0.37842 0.0
H1442 H 0.40105 0.39451 0.07867 0.0
H1443 H 0.50312 0.41662 0.16271 0.0
H1444 H 0.37964 0.38059 0.13513 0.0
H1445 H 0.52291 0.44059 0.10753 0.0
H1446 H 0.45729 0.40445 0.15265 0.0
H1447 H 0.44535 0.41253 0.08865 0.0
C1448 C 0.40562 0.3954 0.09315 0.0
C1449 C 0.38674 0.38592 0.1061 0.0
C1450 C 0.47154 0.41253 0.14272 0.0
C1451 C 0.43723 0.40635 0.11758 0.0
C1452 C 0.49774 0.41948 0.14847 0.0
C1453 C 0.51685 0.42952 0.13591 0.0
C1454 C 0.46439 0.4154 0.12422 0.0
C1455 C 0.50875 0.4329 0.11764 0.0
C1456 C 0.43086 0.40569 0.09884 0.0
C1457 C 0.39363 0.38757 0.12468 0.0
N1458 N 0.48315 0.42564 0.11229 0.0
N1459 N 0.41834 0.39742 0.12984 0.0
H1460 H 0.29965 0.77142 0.86019 0.0
H1461 H 0.38385 0.63513 0.88231 0.0
H1462 H 0.3518 0.76082 0.90722 0.0
H1463 H 0.33923 0.64647 0.832 0.0
H1464 H 0.36976 0.68043 0.89222 0.0
H1465 H 0.31131 0.72499 0.85019 0.0
C1466 C 0.31344 0.75928 0.86844 0.0
C1467 C 0.32482 0.76996 0.88454 0.0
C1468 C 0.36298 0.67309 0.87901 0.0
C1469 C 0.33822 0.71705 0.87322 0.0
C1470 C 0.37101 0.64717 0.87334 0.0
C1471 C 0.36273 0.63705 0.85629 0.0
C1472 C 0.34645 0.68913 0.86757 0.0
C1473 C 0.3461 0.65356 0.84524 0.0
C1474 C 0.32013 0.73285 0.86271 0.0
C1475 C 0.34259 0.75343 0.8947 0.0
N1476 N 0.33849 0.67885 0.85108 0.0
N1477 N 0.34873 0.72786 0.88887 0.0
H1478 H 0.96264 0.56305 0.60819 0.0
H1479 H 0.113 0.61281 0.63531 0.0
H1480 H 0.98625 0.58954 0.66221 0.0
H1481 H 0.08587 0.60593 0.57934 0.0
H1482 H 0.06833 0.59711 0.64556 0.0
H1483 H 0.00934 0.57197 0.59753 0.0
C1484 C 0.97769 0.57056 0.61781 0.0
C1485 C 0.97059 0.57575 0.63607 0.0
C1486 C 0.07215 0.59889 0.63102 0.0
C1487 C 0.0238 0.58579 0.62407 0.0
C1488 C 0.09769 0.60778 0.62516 0.0
C1489 C 0.10305 0.61088 0.60645 0.0
C1490 C 0.05179 0.59299 0.6181 0.0
C1491 C 0.08249 0.60396 0.59391 0.0
C1492 C 0.00426 0.57569 0.61173 0.0
C1493 C 0.99081 0.58545 0.64799 0.0
N1494 N 0.05765 0.59544 0.59996 0.0
N1495 N 0.01646 0.59017 0.64178 0.0
H1496 H 0.14614 0.62224 0.1088 0.0
H1497 H 0.18484 0.77415 0.13973 0.0
H1498 H 0.13956 0.65007 0.16464 0.0
H1499 H 0.16936 0.74999 0.08393 0.0
H1500 H 0.17614 0.72702 0.14953 0.0
H1501 H 0.16308 0.66716 0.1 0.0
C1502 C 0.14854 0.63774 0.11926 0.0
C1503 C 0.1412 0.63253 0.13745 0.0
C1504 C 0.17483 0.73206 0.13514 0.0
C1505 C 0.16047 0.68405 0.12744 0.0
C1506 C 0.17985 0.75888 0.12955 0.0
C1507 C 0.17761 0.76594 0.11102 0.0
C1508 C 0.16784 0.71224 0.12206 0.0
C1509 C 0.17109 0.74544 0.09837 0.0
C1510 C 0.15812 0.66341 0.1142 0.0
C1511 C 0.14484 0.65333 0.15044 0.0
N1512 N 0.1664 0.71954 0.10413 0.0
N1513 N 0.15408 0.67829 0.14516 0.0
H1514 H 0.11817 0.37513 0.85669 0.0
H1515 H 0.97158 0.43256 0.88595 0.0
H1516 H 0.09469 0.38687 0.91303 0.0
H1517 H 0.98998 0.39908 0.83277 0.0
H1518 H 0.01869 0.42303 0.89551 0.0
H1519 H 0.07332 0.39136 0.8471 0.0
C1520 C 0.10362 0.38132 0.86705 0.0
C1521 C 0.11004 0.37945 0.88569 0.0
C1522 C 0.01238 0.41792 0.88174 0.0
C1523 C 0.05864 0.398 0.8748 0.0
C1524 C 0.98559 0.42341 0.87627 0.0
C1525 C 0.9769 0.41641 0.8586 0.0
C1526 C 0.03056 0.40566 0.86935 0.0
C1527 C 0.99581 0.40461 0.84657 0.0
C1528 C 0.078 0.39051 0.86156 0.0
C1529 C 0.09046 0.38785 0.89851 0.0
N1530 N 0.02172 0.39959 0.85217 0.0
N1531 N 0.06553 0.39668 0.89283 0.0
H1532 H 0.35565 0.23557 0.57994 0.0
H1533 H 0.35231 0.34864 0.65873 0.0
H1534 H 0.31388 0.22301 0.63118 0.0
H1535 H 0.37819 0.36419 0.60331 0.0
H1536 H 0.33942 0.30212 0.64971 0.0
H1537 H 0.36559 0.28235 0.58905 0.0
C1538 C 0.34852 0.2427 0.59313 0.0
C1539 C 0.33395 0.2254 0.60484 0.0
C1540 C 0.3478 0.3158 0.63953 0.0
C1541 C 0.34537 0.27903 0.61544 0.0
C1542 C 0.3552 0.34229 0.64467 0.0
C1543 C 0.36639 0.36024 0.63175 0.0
C1544 C 0.35186 0.30723 0.6214 0.0
C1545 C 0.36967 0.35102 0.61372 0.0
C1546 C 0.35415 0.26946 0.59832 0.0
C1547 C 0.32515 0.23575 0.62175 0.0
N1548 N 0.36256 0.32515 0.60912 0.0
N1549 N 0.33113 0.26191 0.6266 0.0
H1550 H 0.51955 0.55811 0.39166 0.0
H1551 H 0.37454 0.61451 0.35793 0.0
H1552 H 0.50086 0.57996 0.3359 0.0
H1553 H 0.39488 0.60373 0.41489 0.0
H1554 H 0.41937 0.59695 0.34955 0.0
H1555 H 0.47261 0.56983 0.40035 0.0
C1556 C 0.50551 0.56514 0.38124 0.0
C1557 C 0.5141 0.56821 0.36306 0.0
C1558 C 0.41406 0.59832 0.36389 0.0
C1559 C 0.46058 0.58165 0.37286 0.0
C1560 C 0.38843 0.60832 0.36869 0.0
C1561 C 0.38106 0.61074 0.38714 0.0
C1562 C 0.43256 0.59064 0.37763 0.0
C1563 C 0.39983 0.6023 0.4005 0.0
C1564 C 0.47878 0.5719 0.38621 0.0
C1565 C 0.49513 0.57743 0.35009 0.0
N1566 N 0.42481 0.59271 0.39548 0.0
N1567 N 0.46932 0.58388 0.35526 0.0
loop_
_geom_bond_atom_site_label_1
_geom_bond_atom_site_label_2
_geom_bond_distance
_geom_bond_site_symmetry_2
_ccdc_geom_bond_type
In0 O1 2.294 . S
In0 O2 2.326 . S
In0 O6 2.266 . S
In0 O7 2.326 . S
In0 O8 2.266 . S
In0 O9 2.326 . S
In0 O11 2.294 . S
In0 O12 2.326 . S
O1 In0 2.294 . S
O1 C10 1.240 . S
O2 In0 2.326 . S
O2 C10 1.252 . S
C3 O6 1.252 . S
C3 O7 1.260 . S
C4 O11 1.240 . S
C4 O12 1.252 . S
C5 O8 1.252 . S
C5 O9 1.260 . S
O6 In0 2.266 . S
O6 C3 1.252 . S
O7 In0 2.326 . S
O7 C3 1.260 . S
O8 In0 2.266 . S
O8 C5 1.252 . S
O9 In0 2.326 . S
O9 C5 1.260 . S
C10 O1 1.240 . S
C10 O2 1.252 . S
O11 In0 2.294 . S
O11 C4 1.240 . S
O12 In0 2.326 . S
O12 C4 1.252 . S
In13 O14 2.294 . S
In13 O15 2.326 . S
In13 O19 2.266 . S
In13 O20 2.326 . S
In13 O21 2.266 . S
In13 O22 2.326 . S
In13 O24 2.294 . S
In13 O25 2.326 . S
O14 In13 2.294 . S
O14 C23 1.240 . S
O15 In13 2.326 . S
O15 C23 1.252 . S
C16 O19 1.252 . S
C16 O20 1.260 . S
C17 O24 1.240 . S
C17 O25 1.252 . S
C18 O21 1.252 . S
C18 O22 1.260 . S
O19 In13 2.266 . S
O19 C16 1.252 . S
O20 In13 2.326 . S
O20 C16 1.260 . S
O21 In13 2.266 . S
O21 C18 1.252 . S
O22 In13 2.326 . S
O22 C18 1.260 . S
C23 O14 1.240 . S
C23 O15 1.252 . S
O24 In13 2.294 . S
O24 C17 1.240 . S
O25 In13 2.326 . S
O25 C17 1.252 . S
In26 O27 2.294 . S
In26 O28 2.326 . S
In26 O32 2.266 . S
In26 O33 2.326 . S
In26 O34 2.266 . S
In26 O35 2.326 . S
In26 O37 2.294 . S
In26 O38 2.326 . S
O27 In26 2.294 . S
O27 C36 1.240 . S
O28 In26 2.326 . S
O28 C36 1.252 . S
C29 O32 1.252 . S
C29 O33 1.260 . S
C30 O37 1.240 . S
C30 O38 1.252 . S
C31 O34 1.252 . S
C31 O35 1.260 . S
O32 In26 2.266 . S
O32 C29 1.252 . S
O33 In26 2.326 . S
O33 C29 1.260 . S
O34 In26 2.266 . S
O34 C31 1.252 . S
O35 In26 2.326 . S
O35 C31 1.260 . S
C36 O27 1.240 . S
C36 O28 1.252 . S
O37 In26 2.294 . S
O37 C30 1.240 . S
O38 In26 2.326 . S
O38 C30 1.252 . S
In39 O40 2.294 . S
In39 O41 2.326 . S
In39 O45 2.266 . S
In39 O46 2.326 . S
In39 O47 2.266 . S
In39 O48 2.326 . S
In39 O50 2.294 . S
In39 O51 2.326 . S
O40 In39 2.294 . S
O40 C49 1.240 . S
O41 In39 2.326 . S
O41 C49 1.252 . S
C42 O45 1.252 . S
C42 O46 1.260 . S
C43 O50 1.240 . S
C43 O51 1.252 . S
C44 O47 1.252 . S
C44 O48 1.260 . S
O45 In39 2.266 . S
O45 C42 1.252 . S
O46 In39 2.326 . S
O46 C42 1.260 . S
O47 In39 2.266 . S
O47 C44 1.252 . S
O48 In39 2.326 . S
O48 C44 1.260 . S
C49 O40 1.240 . S
C49 O41 1.252 . S
O50 In39 2.294 . S
O50 C43 1.240 . S
O51 In39 2.326 . S
O51 C43 1.252 . S
In52 O53 2.294 . S
In52 O54 2.326 . S
In52 O58 2.266 . S
In52 O59 2.326 . S
In52 O60 2.266 . S
In52 O61 2.326 . S
In52 O63 2.294 . S
In52 O64 2.326 . S
O53 In52 2.294 . S
O53 C62 1.240 . S
O54 In52 2.326 . S
O54 C62 1.252 . S
C55 O58 1.252 . S
C55 O59 1.260 . S
C56 O63 1.240 . S
C56 O64 1.252 . S
C57 O60 1.252 . S
C57 O61 1.260 . S
O58 In52 2.266 . S
O58 C55 1.252 . S
O59 In52 2.326 . S
O59 C55 1.260 . S
O60 In52 2.266 . S
O60 C57 1.252 . S
O61 In52 2.326 . S
O61 C57 1.260 . S
C62 O53 1.240 . S
C62 O54 1.252 . S
O63 In52 2.294 . S
O63 C56 1.240 . S
O64 In52 2.326 . S
O64 C56 1.252 . S
In65 O66 2.294 . S
In65 O67 2.326 . S
In65 O71 2.266 . S
In65 O72 2.326 . S
In65 O73 2.266 . S
In65 O74 2.326 . S
In65 O76 2.294 . S
In65 O77 2.326 . S
O66 In65 2.294 . S
O66 C75 1.240 . S
O67 In65 2.326 . S
O67 C75 1.252 . S
C68 O71 1.252 . S
C68 O72 1.260 . S
C69 O76 1.240 . S
C69 O77 1.252 . S
C70 O73 1.252 . S
C70 O74 1.260 . S
O71 In65 2.266 . S
O71 C68 1.252 . S
O72 In65 2.326 . S
O72 C68 1.260 . S
O73 In65 2.266 . S
O73 C70 1.252 . S
O74 In65 2.326 . S
O74 C70 1.260 . S
C75 O66 1.240 . S
C75 O67 1.252 . S
O76 In65 2.294 . S
O76 C69 1.240 . S
O77 In65 2.326 . S
O77 C69 1.252 . S
In78 O79 2.294 . S
In78 O80 2.326 . S
In78 O84 2.266 . S
In78 O85 2.326 . S
In78 O86 2.266 . S
In78 O87 2.326 . S
In78 O89 2.294 . S
In78 O90 2.326 . S
O79 In78 2.294 . S
O79 C88 1.240 . S
O80 In78 2.326 . S
O80 C88 1.252 . S
C81 O84 1.252 . S
C81 O85 1.260 . S
C82 O89 1.240 . S
C82 O90 1.252 . S
C83 O86 1.252 . S
C83 O87 1.260 . S
O84 In78 2.266 . S
O84 C81 1.252 . S
O85 In78 2.326 . S
O85 C81 1.260 . S
O86 In78 2.266 . S
O86 C83 1.252 . S
O87 In78 2.326 . S
O87 C83 1.260 . S
C88 O79 1.240 . S
C88 O80 1.252 . S
O89 In78 2.294 . S
O89 C82 1.240 . S
O90 In78 2.326 . S
O90 C82 1.252 . S
In91 O92 2.294 . S
In91 O93 2.326 . S
In91 O97 2.266 . S
In91 O98 2.326 . S
In91 O99 2.266 . S
In91 O100 2.326 . S
In91 O102 2.294 . S
In91 O103 2.326 . S
O92 In91 2.294 . S
O92 C101 1.240 . S
O93 In91 2.326 . S
O93 C101 1.252 . S
C94 O97 1.252 . S
C94 O98 1.260 . S
C95 O102 1.240 . S
C95 O103 1.252 . S
C96 O99 1.252 . S
C96 O100 1.260 . S
O97 In91 2.266 . S
O97 C94 1.252 . S
O98 In91 2.326 . S
O98 C94 1.260 . S
O99 In91 2.266 . S
O99 C96 1.252 . S
O100 In91 2.326 . S
O100 C96 1.260 . S
C101 O92 1.240 . S
C101 O93 1.252 . S
O102 In91 2.294 . S
O102 C95 1.240 . S
O103 In91 2.326 . S
O103 C95 1.252 . S
In104 O105 2.294 . S
In104 O106 2.326 . S
In104 O110 2.266 . S
In104 O111 2.326 . S
In104 O112 2.266 . S
In104 O113 2.326 . S
In104 O115 2.294 . S
In104 O116 2.326 . S
O105 In104 2.294 . S
O105 C114 1.240 . S
O106 In104 2.326 . S
O106 C114 1.252 . S
C107 O110 1.252 . S
C107 O111 1.260 . S
C108 O115 1.240 . S
C108 O116 1.252 . S
C109 O112 1.252 . S
C109 O113 1.260 . S
O110 In104 2.266 . S
O110 C107 1.252 . S
O111 In104 2.326 . S
O111 C107 1.260 . S
O112 In104 2.266 . S
O112 C109 1.252 . S
O113 In104 2.326 . S
O113 C109 1.260 . S
C114 O105 1.240 . S
C114 O106 1.252 . S
O115 In104 2.294 . S
O115 C108 1.240 . S
O116 In104 2.326 . S
O116 C108 1.252 . S
In117 O118 2.294 . S
In117 O119 2.326 . S
In117 O123 2.266 . S
In117 O124 2.326 . S
In117 O125 2.266 . S
In117 O126 2.326 . S
In117 O128 2.294 . S
In117 O129 2.326 . S
O118 In117 2.294 . S
O118 C127 1.240 . S
O119 In117 2.326 . S
O119 C127 1.252 . S
C120 O123 1.252 . S
C120 O124 1.260 . S
C121 O128 1.240 . S
C121 O129 1.252 . S
C122 O125 1.252 . S
C122 O126 1.260 . S
O123 In117 2.266 . S
O123 C120 1.252 . S
O124 In117 2.326 . S
O124 C120 1.260 . S
O125 In117 2.266 . S
O125 C122 1.252 . S
O126 In117 2.326 . S
O126 C122 1.260 . S
C127 O118 1.240 . S
C127 O119 1.252 . S
O128 In117 2.294 . S
O128 C121 1.240 . S
O129 In117 2.326 . S
O129 C121 1.252 . S
In130 O131 2.294 . S
In130 O132 2.326 . S
In130 O136 2.266 . S
In130 O137 2.326 . S
In130 O138 2.266 . S
In130 O139 2.326 . S
In130 O141 2.294 . S
In130 O142 2.326 . S
O131 In130 2.294 . S
O131 C140 1.240 . S
O132 In130 2.326 . S
O132 C140 1.252 . S
C133 O136 1.252 . S
C133 O137 1.260 . S
C134 O141 1.240 . S
C134 O142 1.252 . S
C135 O138 1.252 . S
C135 O139 1.260 . S
O136 In130 2.266 . S
O136 C133 1.252 . S
O137 In130 2.326 . S
O137 C133 1.260 . S
O138 In130 2.266 . S
O138 C135 1.252 . S
O139 In130 2.326 . S
O139 C135 1.260 . S
C140 O131 1.240 . S
C140 O132 1.252 . S
O141 In130 2.294 . S
O141 C134 1.240 . S
O142 In130 2.326 . S
O142 C134 1.252 . S
In143 O144 2.294 . S
In143 O145 2.326 . S
In143 O149 2.266 . S
In143 O150 2.326 . S
In143 O151 2.266 . S
In143 O152 2.326 . S
In143 O154 2.294 . S
In143 O155 2.326 . S
O144 In143 2.294 . S
O144 C153 1.240 . S
O145 In143 2.326 . S
O145 C153 1.252 . S
C146 O149 1.252 . S
C146 O150 1.260 . S
C147 O154 1.240 . S
C147 O155 1.252 . S
C148 O151 1.252 . S
C148 O152 1.260 . S
O149 In143 2.266 . S
O149 C146 1.252 . S
O150 In143 2.326 . S
O150 C146 1.260 . S
O151 In143 2.266 . S
O151 C148 1.252 . S
O152 In143 2.326 . S
O152 C148 1.260 . S
C153 O144 1.240 . S
C153 O145 1.252 . S
O154 In143 2.294 . S
O154 C147 1.240 . S
O155 In143 2.326 . S
O155 C147 1.252 . S
In156 O157 2.294 . S
In156 O158 2.326 . S
In156 O162 2.266 . S
In156 O163 2.326 . S
In156 O164 2.266 . S
In156 O165 2.326 . S
In156 O167 2.294 . S
In156 O168 2.326 . S
O157 In156 2.294 . S
O157 C166 1.240 . S
O158 In156 2.326 . S
O158 C166 1.252 . S
C159 O162 1.252 . S
C159 O163 1.260 . S
C160 O167 1.240 . S
C160 O168 1.252 . S
C161 O164 1.252 . S
C161 O165 1.260 . S
O162 In156 2.266 . S
O162 C159 1.252 . S
O163 In156 2.326 . S
O163 C159 1.260 . S
O164 In156 2.266 . S
O164 C161 1.252 . S
O165 In156 2.326 . S
O165 C161 1.260 . S
C166 O157 1.240 . S
C166 O158 1.252 . S
O167 In156 2.294 . S
O167 C160 1.240 . S
O168 In156 2.326 . S
O168 C160 1.252 . S
In169 O170 2.294 . S
In169 O171 2.326 . S
In169 O175 2.266 . S
In169 O176 2.326 . S
In169 O177 2.266 . S
In169 O178 2.326 . S
In169 O180 2.294 . S
In169 O181 2.326 . S
O170 In169 2.294 . S
O170 C179 1.240 . S
O171 In169 2.326 . S
O171 C179 1.252 . S
C172 O175 1.252 . S
C172 O176 1.260 . S
C173 O180 1.240 . S
C173 O181 1.252 . S
C174 O177 1.252 . S
C174 O178 1.260 . S
O175 In169 2.266 . S
O175 C172 1.252 . S
O176 In169 2.326 . S
O176 C172 1.260 . S
O177 In169 2.266 . S
O177 C174 1.252 . S
O178 In169 2.326 . S
O178 C174 1.260 . S
C179 O170 1.240 . S
C179 O171 1.252 . S
O180 In169 2.294 . S
O180 C173 1.240 . S
O181 In169 2.326 . S
O181 C173 1.252 . S
In182 O183 2.294 . S
In182 O184 2.326 . S
In182 O188 2.266 . S
In182 O189 2.326 . S
In182 O190 2.266 . S
In182 O191 2.326 . S
In182 O193 2.294 . S
In182 O194 2.326 . S
O183 In182 2.294 . S
O183 C192 1.240 . S
O184 In182 2.326 . S
O184 C192 1.252 . S
C185 O188 1.252 . S
C185 O189 1.260 . S
C186 O193 1.240 . S
C186 O194 1.252 . S
C187 O190 1.252 . S
C187 O191 1.260 . S
O188 In182 2.266 . S
O188 C185 1.252 . S
O189 In182 2.326 . S
O189 C185 1.260 . S
O190 In182 2.266 . S
O190 C187 1.252 . S
O191 In182 2.326 . S
O191 C187 1.260 . S
C192 O183 1.240 . S
C192 O184 1.252 . S
O193 In182 2.294 . S
O193 C186 1.240 . S
O194 In182 2.326 . S
O194 C186 1.252 . S
In195 O196 2.294 . S
In195 O197 2.326 . S
In195 O201 2.266 . S
In195 O202 2.326 . S
In195 O203 2.266 . S
In195 O204 2.326 . S
In195 O206 2.294 . S
In195 O207 2.326 . S
O196 In195 2.294 . S
O196 C205 1.240 . S
O197 In195 2.326 . S
O197 C205 1.252 . S
C198 O201 1.252 . S
C198 O202 1.260 . S
C199 O206 1.240 . S
C199 O207 1.252 . S
C200 O203 1.252 . S
C200 O204 1.260 . S
O201 In195 2.266 . S
O201 C198 1.252 . S
O202 In195 2.326 . S
O202 C198 1.260 . S
O203 In195 2.266 . S
O203 C200 1.252 . S
O204 In195 2.326 . S
O204 C200 1.260 . S
C205 O196 1.240 . S
C205 O197 1.252 . S
O206 In195 2.294 . S
O206 C199 1.240 . S
O207 In195 2.326 . S
O207 C199 1.252 . S
In208 O209 2.294 . S
In208 O210 2.326 . S
In208 O214 2.266 . S
In208 O215 2.326 . S
In208 O216 2.266 . S
In208 O217 2.326 . S
In208 O219 2.294 . S
In208 O220 2.326 . S
O209 In208 2.294 . S
O209 C218 1.240 . S
O210 In208 2.326 . S
O210 C218 1.252 . S
C211 O214 1.252 . S
C211 O215 1.260 . S
C212 O219 1.240 . S
C212 O220 1.252 . S
C213 O216 1.252 . S
C213 O217 1.260 . S
O214 In208 2.266 . S
O214 C211 1.252 . S
O215 In208 2.326 . S
O215 C211 1.260 . S
O216 In208 2.266 . S
O216 C213 1.252 . S
O217 In208 2.326 . S
O217 C213 1.260 . S
C218 O209 1.240 . S
C218 O210 1.252 . S
O219 In208 2.294 . S
O219 C212 1.240 . S
O220 In208 2.326 . S
O220 C212 1.252 . S
In221 O222 2.294 . S
In221 O223 2.326 . S
In221 O227 2.266 . S
In221 O228 2.326 . S
In221 O229 2.266 . S
In221 O230 2.326 . S
In221 O232 2.294 . S
In221 O233 2.326 . S
O222 In221 2.294 . S
O222 C231 1.240 . S
O223 In221 2.326 . S
O223 C231 1.252 . S
C224 O227 1.252 . S
C224 O228 1.260 . S
C225 O232 1.240 . S
C225 O233 1.252 . S
C226 O229 1.252 . S
C226 O230 1.260 . S
O227 In221 2.266 . S
O227 C224 1.252 . S
O228 In221 2.326 . S
O228 C224 1.260 . S
O229 In221 2.266 . S
O229 C226 1.252 . S
O230 In221 2.326 . S
O230 C226 1.260 . S
C231 O222 1.240 . S
C231 O223 1.252 . S
O232 In221 2.294 . S
O232 C225 1.240 . S
O233 In221 2.326 . S
O233 C225 1.252 . S
In234 O235 2.294 . S
In234 O236 2.326 . S
In234 O240 2.266 . S
In234 O241 2.326 . S
In234 O242 2.266 . S
In234 O243 2.326 . S
In234 O245 2.294 . S
In234 O246 2.326 . S
O235 In234 2.294 . S
O235 C244 1.240 . S
O236 In234 2.326 . S
O236 C244 1.252 . S
C237 O240 1.252 . S
C237 O241 1.260 . S
C238 O245 1.240 . S
C238 O246 1.252 . S
C239 O242 1.252 . S
C239 O243 1.260 . S
O240 In234 2.266 . S
O240 C237 1.252 . S
O241 In234 2.326 . S
O241 C237 1.260 . S
O242 In234 2.266 . S
O242 C239 1.252 . S
O243 In234 2.326 . S
O243 C239 1.260 . S
C244 O235 1.240 . S
C244 O236 1.252 . S
O245 In234 2.294 . S
O245 C238 1.240 . S
O246 In234 2.326 . S
O246 C238 1.252 . S
In247 O248 2.294 . S
In247 O249 2.326 . S
In247 O253 2.266 . S
In247 O254 2.326 . S
In247 O255 2.266 . S
In247 O256 2.326 . S
In247 O258 2.294 . S
In247 O259 2.326 . S
O248 In247 2.294 . S
O248 C257 1.240 . S
O249 In247 2.326 . S
O249 C257 1.252 . S
C250 O253 1.252 . S
C250 O254 1.260 . S
C251 O258 1.240 . S
C251 O259 1.252 . S
C252 O255 1.252 . S
C252 O256 1.260 . S
O253 In247 2.266 . S
O253 C250 1.252 . S
O254 In247 2.326 . S
O254 C250 1.260 . S
O255 In247 2.266 . S
O255 C252 1.252 . S
O256 In247 2.326 . S
O256 C252 1.260 . S
C257 O248 1.240 . S
C257 O249 1.252 . S
O258 In247 2.294 . S
O258 C251 1.240 . S
O259 In247 2.326 . S
O259 C251 1.252 . S
In260 O261 2.294 . S
In260 O262 2.326 . S
In260 O266 2.266 . S
In260 O267 2.326 . S
In260 O268 2.266 . S
In260 O269 2.326 . S
In260 O271 2.294 . S
In260 O272 2.326 . S
O261 In260 2.294 . S
O261 C270 1.240 . S
O262 In260 2.326 . S
O262 C270 1.252 . S
C263 O266 1.252 . S
C263 O267 1.260 . S
C264 O271 1.240 . S
C264 O272 1.252 . S
C265 O268 1.252 . S
C265 O269 1.260 . S
O266 In260 2.266 . S
O266 C263 1.252 . S
O267 In260 2.326 . S
O267 C263 1.260 . S
O268 In260 2.266 . S
O268 C265 1.252 . S
O269 In260 2.326 . S
O269 C265 1.260 . S
C270 O261 1.240 . S
C270 O262 1.252 . S
O271 In260 2.294 . S
O271 C264 1.240 . S
O272 In260 2.326 . S
O272 C264 1.252 . S
In273 O274 2.294 . S
In273 O275 2.326 . S
In273 O279 2.266 . S
In273 O280 2.326 . S
In273 O281 2.266 . S
In273 O282 2.326 . S
In273 O284 2.294 . S
In273 O285 2.326 . S
O274 In273 2.294 . S
O274 C283 1.240 . S
O275 In273 2.326 . S
O275 C283 1.252 . S
C276 O279 1.252 . S
C276 O280 1.260 . S
C277 O284 1.240 . S
C277 O285 1.252 . S
C278 O281 1.252 . S
C278 O282 1.260 . S
O279 In273 2.266 . S
O279 C276 1.252 . S
O280 In273 2.326 . S
O280 C276 1.260 . S
O281 In273 2.266 . S
O281 C278 1.252 . S
O282 In273 2.326 . S
O282 C278 1.260 . S
C283 O274 1.240 . S
C283 O275 1.252 . S
O284 In273 2.294 . S
O284 C277 1.240 . S
O285 In273 2.326 . S
O285 C277 1.252 . S
In286 O287 2.294 . S
In286 O288 2.326 . S
In286 O292 2.266 . S
In286 O293 2.326 . S
In286 O294 2.266 . S
In286 O295 2.326 . S
In286 O297 2.294 . S
In286 O298 2.326 . S
O287 In286 2.294 . S
O287 C296 1.240 . S
O288 In286 2.326 . S
O288 C296 1.252 . S
C289 O292 1.252 . S
C289 O293 1.260 . S
C290 O297 1.240 . S
C290 O298 1.252 . S
C291 O294 1.252 . S
C291 O295 1.260 . S
O292 In286 2.266 . S
O292 C289 1.252 . S
O293 In286 2.326 . S
O293 C289 1.260 . S
O294 In286 2.266 . S
O294 C291 1.252 . S
O295 In286 2.326 . S
O295 C291 1.260 . S
C296 O287 1.240 . S
C296 O288 1.252 . S
O297 In286 2.294 . S
O297 C290 1.240 . S
O298 In286 2.326 . S
O298 C290 1.252 . S
In299 O300 2.294 . S
In299 O301 2.326 . S
In299 O305 2.266 . S
In299 O306 2.326 . S
In299 O307 2.266 . S
In299 O308 2.326 . S
In299 O310 2.294 . S
In299 O311 2.326 . S
O300 In299 2.294 . S
O300 C309 1.240 . S
O301 In299 2.326 . S
O301 C309 1.252 . S
C302 O305 1.252 . S
C302 O306 1.260 . S
C303 O310 1.240 . S
C303 O311 1.252 . S
C304 O307 1.252 . S
C304 O308 1.260 . S
O305 In299 2.266 . S
O305 C302 1.252 . S
O306 In299 2.326 . S
O306 C302 1.260 . S
O307 In299 2.266 . S
O307 C304 1.252 . S
O308 In299 2.326 . S
O308 C304 1.260 . S
C309 O300 1.240 . S
C309 O301 1.252 . S
O310 In299 2.294 . S
O310 C303 1.240 . S
O311 In299 2.326 . S
O311 C303 1.252 . S
In312 O313 2.294 . S
In312 O314 2.326 . S
In312 O318 2.266 . S
In312 O319 2.326 . S
In312 O320 2.266 . S
In312 O321 2.326 . S
In312 O323 2.294 . S
In312 O324 2.326 . S
O313 In312 2.294 . S
O313 C322 1.240 . S
O314 In312 2.326 . S
O314 C322 1.252 . S
C315 O318 1.252 . S
C315 O319 1.260 . S
C316 O323 1.240 . S
C316 O324 1.252 . S
C317 O320 1.252 . S
C317 O321 1.260 . S
O318 In312 2.266 . S
O318 C315 1.252 . S
O319 In312 2.326 . S
O319 C315 1.260 . S
O320 In312 2.266 . S
O320 C317 1.252 . S
O321 In312 2.326 . S
O321 C317 1.260 . S
C322 O313 1.240 . S
C322 O314 1.252 . S
O323 In312 2.294 . S
O323 C316 1.240 . S
O324 In312 2.326 . S
O324 C316 1.252 . S
In325 O326 2.294 . S
In325 O327 2.326 . S
In325 O331 2.266 . S
In325 O332 2.326 . S
In325 O333 2.266 . S
In325 O334 2.326 . S
In325 O336 2.294 . S
In325 O337 2.326 . S
O326 In325 2.294 . S
O326 C335 1.240 . S
O327 In325 2.326 . S
O327 C335 1.252 . S
C328 O331 1.252 . S
C328 O332 1.260 . S
C329 O336 1.240 . S
C329 O337 1.252 . S
C330 O333 1.252 . S
C330 O334 1.260 . S
O331 In325 2.266 . S
O331 C328 1.252 . S
O332 In325 2.326 . S
O332 C328 1.260 . S
O333 In325 2.266 . S
O333 C330 1.252 . S
O334 In325 2.326 . S
O334 C330 1.260 . S
C335 O326 1.240 . S
C335 O327 1.252 . S
O336 In325 2.294 . S
O336 C329 1.240 . S
O337 In325 2.326 . S
O337 C329 1.252 . S
In338 O339 2.294 . S
In338 O340 2.326 . S
In338 O344 2.266 . S
In338 O345 2.326 . S
In338 O346 2.266 . S
In338 O347 2.326 . S
In338 O349 2.294 . S
In338 O350 2.326 . S
O339 In338 2.294 . S
O339 C348 1.240 . S
O340 In338 2.326 . S
O340 C348 1.252 . S
C341 O344 1.252 . S
C341 O345 1.260 . S
C342 O349 1.240 . S
C342 O350 1.252 . S
C343 O346 1.252 . S
C343 O347 1.260 . S
O344 In338 2.266 . S
O344 C341 1.252 . S
O345 In338 2.326 . S
O345 C341 1.260 . S
O346 In338 2.266 . S
O346 C343 1.252 . S
O347 In338 2.326 . S
O347 C343 1.260 . S
C348 O339 1.240 . S
C348 O340 1.252 . S
O349 In338 2.294 . S
O349 C342 1.240 . S
O350 In338 2.326 . S
O350 C342 1.252 . S
In351 O352 2.294 . S
In351 O353 2.326 . S
In351 O357 2.266 . S
In351 O358 2.326 . S
In351 O359 2.266 . S
In351 O360 2.326 . S
In351 O362 2.294 . S
In351 O363 2.326 . S
O352 In351 2.294 . S
O352 C361 1.240 . S
O353 In351 2.326 . S
O353 C361 1.252 . S
C354 O357 1.252 . S
C354 O358 1.260 . S
C355 O362 1.240 . S
C355 O363 1.252 . S
C356 O359 1.252 . S
C356 O360 1.260 . S
O357 In351 2.266 . S
O357 C354 1.252 . S
O358 In351 2.326 . S
O358 C354 1.260 . S
O359 In351 2.266 . S
O359 C356 1.252 . S
O360 In351 2.326 . S
O360 C356 1.260 . S
C361 O352 1.240 . S
C361 O353 1.252 . S
O362 In351 2.294 . S
O362 C355 1.240 . S
O363 In351 2.326 . S
O363 C355 1.252 . S
In364 O365 2.294 . S
In364 O366 2.326 . S
In364 O370 2.266 . S
In364 O371 2.326 . S
In364 O372 2.266 . S
In364 O373 2.326 . S
In364 O375 2.294 . S
In364 O376 2.326 . S
O365 In364 2.294 . S
O365 C374 1.240 . S
O366 In364 2.326 . S
O366 C374 1.252 . S
C367 O370 1.252 . S
C367 O371 1.260 . S
C368 O375 1.240 . S
C368 O376 1.252 . S
C369 O372 1.252 . S
C369 O373 1.260 . S
O370 In364 2.266 . S
O370 C367 1.252 . S
O371 In364 2.326 . S
O371 C367 1.260 . S
O372 In364 2.266 . S
O372 C369 1.252 . S
O373 In364 2.326 . S
O373 C369 1.260 . S
C374 O365 1.240 . S
C374 O366 1.252 . S
O375 In364 2.294 . S
O375 C368 1.240 . S
O376 In364 2.326 . S
O376 C368 1.252 . S
In377 O378 2.294 . S
In377 O379 2.326 . S
In377 O383 2.266 . S
In377 O384 2.326 . S
In377 O385 2.266 . S
In377 O386 2.326 . S
In377 O388 2.294 . S
In377 O389 2.326 . S
O378 In377 2.294 . S
O378 C387 1.240 . S
O379 In377 2.326 . S
O379 C387 1.252 . S
C380 O383 1.252 . S
C380 O384 1.260 . S
C381 O388 1.240 . S
C381 O389 1.252 . S
C382 O385 1.252 . S
C382 O386 1.260 . S
O383 In377 2.266 . S
O383 C380 1.252 . S
O384 In377 2.326 . S
O384 C380 1.260 . S
O385 In377 2.266 . S
O385 C382 1.252 . S
O386 In377 2.326 . S
O386 C382 1.260 . S
C387 O378 1.240 . S
C387 O379 1.252 . S
O388 In377 2.294 . S
O388 C381 1.240 . S
O389 In377 2.326 . S
O389 C381 1.252 . S
In390 O391 2.294 . S
In390 O392 2.326 . S
In390 O396 2.266 . S
In390 O397 2.326 . S
In390 O398 2.266 . S
In390 O399 2.326 . S
In390 O401 2.294 . S
In390 O402 2.326 . S
O391 In390 2.294 . S
O391 C400 1.240 . S
O392 In390 2.326 . S
O392 C400 1.252 . S
C393 O396 1.252 . S
C393 O397 1.260 . S
C394 O401 1.240 . S
C394 O402 1.252 . S
C395 O398 1.252 . S
C395 O399 1.260 . S
O396 In390 2.266 . S
O396 C393 1.252 . S
O397 In390 2.326 . S
O397 C393 1.260 . S
O398 In390 2.266 . S
O398 C395 1.252 . S
O399 In390 2.326 . S
O399 C395 1.260 . S
C400 O391 1.240 . S
C400 O392 1.252 . S
O401 In390 2.294 . S
O401 C394 1.240 . S
O402 In390 2.326 . S
O402 C394 1.252 . S
In403 O404 2.294 . S
In403 O405 2.326 . S
In403 O409 2.266 . S
In403 O410 2.326 . S
In403 O411 2.266 . S
In403 O412 2.326 . S
In403 O414 2.294 . S
In403 O415 2.326 . S
O404 In403 2.294 . S
O404 C413 1.240 . S
O405 In403 2.326 . S
O405 C413 1.252 . S
C406 O409 1.252 . S
C406 O410 1.260 . S
C407 O414 1.240 . S
C407 O415 1.252 . S
C408 O411 1.252 . S
C408 O412 1.260 . S
O409 In403 2.266 . S
O409 C406 1.252 . S
O410 In403 2.326 . S
O410 C406 1.260 . S
O411 In403 2.266 . S
O411 C408 1.252 . S
O412 In403 2.326 . S
O412 C408 1.260 . S
C413 O404 1.240 . S
C413 O405 1.252 . S
O414 In403 2.294 . S
O414 C407 1.240 . S
O415 In403 2.326 . S
O415 C407 1.252 . S
H416 C422 0.930 . S
H417 C426 0.930 . S
H418 C431 0.929 1_545 S
H419 C429 0.929 1_565 S
H420 C424 0.929 . S
H421 C430 0.929 . S
C422 H416 0.930 . S
C422 C423 1.367 . S
C422 C430 1.378 . S
C423 C422 1.367 . S
C423 C431 1.433 . S
C424 H420 0.929 . S
C424 C426 1.378 . S
C424 C428 1.350 . S
C425 C428 1.463 1_565 S
C425 C430 1.350 . S
C425 N433 1.427 1_565 S
C426 H417 0.930 . S
C426 C424 1.378 . S
C426 C427 1.367 . S
C427 C426 1.367 . S
C427 C429 1.433 . S
C428 C424 1.350 . S
C428 C425 1.463 1_545 S
C428 N432 1.427 1_545 S
C429 H419 0.929 1_545 S
C429 C427 1.433 . S
C429 N432 1.384 1_545 S
C430 H421 0.929 . S
C430 C422 1.378 . S
C430 C425 1.350 . S
C431 H418 0.929 1_565 S
C431 C423 1.433 . S
C431 N433 1.384 1_565 S
N432 C428 1.427 1_565 S
N432 C429 1.384 1_565 S
N433 C425 1.427 1_545 S
N433 C431 1.384 1_545 S
H434 C440 0.930 . S
H435 C444 0.930 . S
H436 C449 0.929 . S
H437 C447 0.929 . S
H438 C442 0.929 . S
H439 C448 0.929 . S
C440 H434 0.930 . S
C440 C441 1.367 . S
C440 C448 1.378 . S
C441 C440 1.367 . S
C441 C449 1.433 . S
C442 H438 0.929 . S
C442 C444 1.378 . S
C442 C446 1.350 . S
C443 C446 1.463 . S
C443 C448 1.350 . S
C443 N451 1.427 . S
C444 H435 0.930 . S
C444 C442 1.378 . S
C444 C445 1.367 . S
C445 C444 1.367 . S
C445 C447 1.433 . S
C446 C442 1.350 . S
C446 C443 1.463 . S
C446 N450 1.427 . S
C447 H437 0.929 . S
C447 C445 1.433 . S
C447 N450 1.384 . S
C448 H439 0.929 . S
C448 C440 1.378 . S
C448 C443 1.350 . S
C449 H436 0.929 . S
C449 C441 1.433 . S
C449 N451 1.384 . S
N450 C446 1.427 . S
N450 C447 1.384 . S
N451 C443 1.427 . S
N451 C449 1.384 . S
H452 C458 0.930 1_565 S
H453 C462 0.930 1_545 S
H454 C467 0.929 . S
H455 C465 0.929 . S
H456 C460 0.929 . S
H457 C466 0.929 . S
C458 H452 0.930 1_545 S
C458 C459 1.367 . S
C458 C466 1.378 1_545 S
C459 C458 1.367 . S
C459 C467 1.433 . S
C460 H456 0.929 . S
C460 C462 1.378 1_545 S
C460 C464 1.350 1_545 S
C461 C464 1.463 1_545 S
C461 C466 1.350 1_545 S
C461 N469 1.427 . S
C462 H453 0.930 1_565 S
C462 C460 1.378 1_565 S
C462 C463 1.367 . S
C463 C462 1.367 . S
C463 C465 1.433 . S
C464 C460 1.350 1_565 S
C464 C461 1.463 1_565 S
C464 N468 1.427 . S
C465 H455 0.929 . S
C465 C463 1.433 . S
C465 N468 1.384 . S
C466 H457 0.929 . S
C466 C458 1.378 1_565 S
C466 C461 1.350 1_565 S
C467 H454 0.929 . S
C467 C459 1.433 . S
C467 N469 1.384 . S
N468 C464 1.427 . S
N468 C465 1.384 . S
N469 C461 1.427 . S
N469 C467 1.384 . S
H470 C476 0.930 . S
H471 C480 0.930 . S
H472 C485 0.929 . S
H473 C483 0.929 . S
H474 C478 0.929 . S
H475 C484 0.929 . S
C476 H470 0.930 . S
C476 C477 1.367 . S
C476 C484 1.378 . S
C477 C476 1.367 . S
C477 C485 1.433 . S
C478 H474 0.929 . S
C478 C480 1.378 . S
C478 C482 1.350 . S
C479 C482 1.463 1_556 S
C479 C484 1.350 . S
C479 N487 1.427 . S
C480 H471 0.930 . S
C480 C478 1.378 . S
C480 C481 1.367 . S
C481 C480 1.367 . S
C481 C483 1.433 . S
C482 C478 1.350 . S
C482 C479 1.463 1_554 S
C482 N486 1.427 . S
C483 H473 0.929 . S
C483 C481 1.433 . S
C483 N486 1.384 . S
C484 H475 0.929 . S
C484 C476 1.378 . S
C484 C479 1.350 . S
C485 H472 0.929 . S
C485 C477 1.433 . S
C485 N487 1.384 . S
N486 C482 1.427 . S
N486 C483 1.384 . S
N487 C479 1.427 . S
N487 C485 1.384 . S
H488 C494 0.930 . S
H489 C498 0.930 . S
H490 C503 0.929 . S
H491 C501 0.929 . S
H492 C496 0.929 . S
H493 C502 0.929 . S
C494 H488 0.930 . S
C494 C495 1.367 . S
C494 C502 1.378 . S
C495 C494 1.367 . S
C495 C503 1.433 . S
C496 H492 0.929 . S
C496 C498 1.378 . S
C496 C500 1.350 . S
C497 C500 1.463 1_565 S
C497 C502 1.350 . S
C497 N505 1.427 1_565 S
C498 H489 0.930 . S
C498 C496 1.378 . S
C498 C499 1.367 . S
C499 C498 1.367 . S
C499 C501 1.433 . S
C500 C496 1.350 . S
C500 C497 1.463 1_545 S
C500 N504 1.427 1_545 S
C501 H491 0.929 . S
C501 C499 1.433 . S
C501 N504 1.384 1_545 S
C502 H493 0.929 . S
C502 C494 1.378 . S
C502 C497 1.350 . S
C503 H490 0.929 . S
C503 C495 1.433 . S
C503 N505 1.384 1_565 S
N504 C500 1.427 1_565 S
N504 C501 1.384 1_565 S
N505 C497 1.427 1_545 S
N505 C503 1.384 1_545 S
H506 C512 0.930 . S
H507 C516 0.930 . S
H508 C521 0.929 . S
H509 C519 0.929 . S
H510 C514 0.929 . S
H511 C520 0.929 . S
C512 H506 0.930 . S
C512 C513 1.367 . S
C512 C520 1.378 . S
C513 C512 1.367 . S
C513 C521 1.433 . S
C514 H510 0.929 . S
C514 C516 1.378 . S
C514 C518 1.350 . S
C515 C518 1.463 . S
C515 C520 1.350 . S
C515 N523 1.427 . S
C516 H507 0.930 . S
C516 C514 1.378 . S
C516 C517 1.367 . S
C517 C516 1.367 . S
C517 C519 1.433 . S
C518 C514 1.350 . S
C518 C515 1.463 . S
C518 N522 1.427 . S
C519 H509 0.929 . S
C519 C517 1.433 . S
C519 N522 1.384 . S
C520 H511 0.929 . S
C520 C512 1.378 . S
C520 C515 1.350 . S
C521 H508 0.929 . S
C521 C513 1.433 . S
C521 N523 1.384 . S
N522 C518 1.427 . S
N522 C519 1.384 . S
N523 C515 1.427 . S
N523 C521 1.384 . S
H524 C530 0.930 . S
H525 C534 0.930 . S
H526 C539 0.929 . S
H527 C537 0.929 . S
H528 C532 0.929 1_545 S
H529 C538 0.929 1_565 S
C530 H524 0.930 . S
C530 C531 1.367 . S
C530 C538 1.378 . S
C531 C530 1.367 . S
C531 C539 1.433 . S
C532 H528 0.929 1_565 S
C532 C534 1.378 . S
C532 C536 1.350 . S
C533 C536 1.463 1_545 S
C533 C538 1.350 . S
C533 N541 1.427 . S
C534 H525 0.930 . S
C534 C532 1.378 . S
C534 C535 1.367 . S
C535 C534 1.367 . S
C535 C537 1.433 . S
C536 C532 1.350 . S
C536 C533 1.463 1_565 S
C536 N540 1.427 . S
C537 H527 0.929 . S
C537 C535 1.433 . S
C537 N540 1.384 . S
C538 H529 0.929 1_545 S
C538 C530 1.378 . S
C538 C533 1.350 . S
C539 H526 0.929 . S
C539 C531 1.433 . S
C539 N541 1.384 . S
N540 C536 1.427 . S
N540 C537 1.384 . S
N541 C533 1.427 . S
N541 C539 1.384 . S
H542 C548 0.930 . S
H543 C552 0.930 . S
H544 C557 0.929 . S
H545 C555 0.929 . S
H546 C550 0.929 . S
H547 C556 0.929 . S
C548 H542 0.930 . S
C548 C549 1.367 . S
C548 C556 1.378 . S
C549 C548 1.367 . S
C549 C557 1.433 . S
C550 H546 0.929 . S
C550 C552 1.378 . S
C550 C554 1.350 . S
C551 C554 1.463 1_556 S
C551 C556 1.350 . S
C551 N559 1.427 . S
C552 H543 0.930 . S
C552 C550 1.378 . S
C552 C553 1.367 . S
C553 C552 1.367 . S
C553 C555 1.433 . S
C554 C550 1.350 . S
C554 C551 1.463 1_554 S
C554 N558 1.427 . S
C555 H545 0.929 . S
C555 C553 1.433 . S
C555 N558 1.384 . S
C556 H547 0.929 . S
C556 C548 1.378 . S
C556 C551 1.350 . S
C557 H544 0.929 . S
C557 C549 1.433 . S
C557 N559 1.384 . S
N558 C554 1.427 . S
N558 C555 1.384 . S
N559 C551 1.427 . S
N559 C557 1.384 . S
H560 C566 0.930 . S
H561 C570 0.930 . S
H562 C575 0.929 . S
H563 C573 0.929 . S
H564 C568 0.929 . S
H565 C574 0.929 . S
C566 H560 0.930 . S
C566 C567 1.367 . S
C566 C574 1.378 . S
C567 C566 1.367 . S
C567 C575 1.433 . S
C568 H564 0.929 . S
C568 C570 1.378 . S
C568 C572 1.350 . S
C569 C572 1.463 . S
C569 C574 1.350 . S
C569 N577 1.427 . S
C570 H561 0.930 . S
C570 C568 1.378 . S
C570 C571 1.367 . S
C571 C570 1.367 . S
C571 C573 1.433 . S
C572 C568 1.350 . S
C572 C569 1.463 . S
C572 N576 1.427 . S
C573 H563 0.929 . S
C573 C571 1.433 . S
C573 N576 1.384 . S
C574 H565 0.929 . S
C574 C566 1.378 . S
C574 C569 1.350 . S
C575 H562 0.929 . S
C575 C567 1.433 . S
C575 N577 1.384 . S
N576 C572 1.427 . S
N576 C573 1.384 . S
N577 C569 1.427 . S
N577 C575 1.384 . S
H578 C584 0.930 . S
H579 C588 0.930 . S
H580 C593 0.929 . S
H581 C591 0.929 . S
H582 C586 0.929 . S
H583 C592 0.929 . S
C584 H578 0.930 . S
C584 C585 1.367 . S
C584 C592 1.378 . S
C585 C584 1.367 . S
C585 C593 1.433 . S
C586 H582 0.929 . S
C586 C588 1.378 . S
C586 C590 1.350 . S
C587 C590 1.463 1_554 S
C587 C592 1.350 . S
C587 N595 1.427 . S
C588 H579 0.930 . S
C588 C586 1.378 . S
C588 C589 1.367 . S
C589 C588 1.367 . S
C589 C591 1.433 . S
C590 C586 1.350 . S
C590 C587 1.463 1_556 S
C590 N594 1.427 . S
C591 H581 0.929 . S
C591 C589 1.433 . S
C591 N594 1.384 . S
C592 H583 0.929 . S
C592 C584 1.378 . S
C592 C587 1.350 . S
C593 H580 0.929 . S
C593 C585 1.433 . S
C593 N595 1.384 . S
N594 C590 1.427 . S
N594 C591 1.384 . S
N595 C587 1.427 . S
N595 C593 1.384 . S
H596 C602 0.930 . S
H597 C606 0.930 . S
H598 C611 0.929 . S
H599 C609 0.929 . S
H600 C604 0.929 . S
H601 C610 0.929 . S
C602 H596 0.930 . S
C602 C603 1.367 . S
C602 C610 1.378 . S
C603 C602 1.367 . S
C603 C611 1.433 . S
C604 H600 0.929 . S
C604 C606 1.378 . S
C604 C608 1.350 . S
C605 C608 1.463 . S
C605 C610 1.350 . S
C605 N613 1.427 . S
C606 H597 0.930 . S
C606 C604 1.378 . S
C606 C607 1.367 . S
C607 C606 1.367 . S
C607 C609 1.433 . S
C608 C604 1.350 . S
C608 C605 1.463 . S
C608 N612 1.427 . S
C609 H599 0.929 . S
C609 C607 1.433 . S
C609 N612 1.384 . S
C610 H601 0.929 . S
C610 C602 1.378 . S
C610 C605 1.350 . S
C611 H598 0.929 . S
C611 C603 1.433 . S
C611 N613 1.384 . S
N612 C608 1.427 . S
N612 C609 1.384 . S
N613 C605 1.427 . S
N613 C611 1.384 . S
H614 C620 0.930 . S
H615 C624 0.930 . S
H616 C629 0.929 . S
H617 C627 0.929 . S
H618 C622 0.929 . S
H619 C628 0.929 . S
C620 H614 0.930 . S
C620 C621 1.367 . S
C620 C628 1.378 . S
C621 C620 1.367 . S
C621 C629 1.433 . S
C622 H618 0.929 . S
C622 C624 1.378 . S
C622 C626 1.350 . S
C623 C626 1.463 . S
C623 C628 1.350 . S
C623 N631 1.427 . S
C624 H615 0.930 . S
C624 C622 1.378 . S
C624 C625 1.367 . S
C625 C624 1.367 . S
C625 C627 1.433 . S
C626 C622 1.350 . S
C626 C623 1.463 . S
C626 N630 1.427 . S
C627 H617 0.929 . S
C627 C625 1.433 . S
C627 N630 1.384 . S
C628 H619 0.929 . S
C628 C620 1.378 . S
C628 C623 1.350 . S
C629 H616 0.929 . S
C629 C621 1.433 . S
C629 N631 1.384 . S
N630 C626 1.427 . S
N630 C627 1.384 . S
N631 C623 1.427 . S
N631 C629 1.384 . S
H632 C638 0.930 . S
H633 C642 0.930 . S
H634 C647 0.929 . S
H635 C645 0.929 . S
H636 C640 0.929 . S
H637 C646 0.929 . S
C638 H632 0.930 . S
C638 C639 1.367 . S
C638 C646 1.378 . S
C639 C638 1.367 . S
C639 C647 1.433 . S
C640 H636 0.929 . S
C640 C642 1.378 . S
C640 C644 1.350 . S
C641 C644 1.463 . S
C641 C646 1.350 . S
C641 N649 1.427 . S
C642 H633 0.930 . S
C642 C640 1.378 . S
C642 C643 1.367 . S
C643 C642 1.367 . S
C643 C645 1.433 . S
C644 C640 1.350 . S
C644 C641 1.463 . S
C644 N648 1.427 . S
C645 H635 0.929 . S
C645 C643 1.433 . S
C645 N648 1.384 . S
C646 H637 0.929 . S
C646 C638 1.378 . S
C646 C641 1.350 . S
C647 H634 0.929 . S
C647 C639 1.433 . S
C647 N649 1.384 . S
N648 C644 1.427 . S
N648 C645 1.384 . S
N649 C641 1.427 . S
N649 C647 1.384 . S
H650 C656 0.930 . S
H651 C660 0.930 . S
H652 C665 0.929 . S
H653 C663 0.929 . S
H654 C658 0.929 . S
H655 C664 0.929 . S
C656 H650 0.930 . S
C656 C657 1.367 . S
C656 C664 1.378 . S
C657 C656 1.367 . S
C657 C665 1.433 . S
C658 H654 0.929 . S
C658 C660 1.378 . S
C658 C662 1.350 . S
C659 C662 1.463 1_554 S
C659 C664 1.350 . S
C659 N667 1.427 . S
C660 H651 0.930 . S
C660 C658 1.378 . S
C660 C661 1.367 . S
C661 C660 1.367 . S
C661 C663 1.433 . S
C662 C658 1.350 . S
C662 C659 1.463 1_556 S
C662 N666 1.427 . S
C663 H653 0.929 . S
C663 C661 1.433 . S
C663 N666 1.384 . S
C664 H655 0.929 . S
C664 C656 1.378 . S
C664 C659 1.350 . S
C665 H652 0.929 . S
C665 C657 1.433 . S
C665 N667 1.384 . S
N666 C662 1.427 . S
N666 C663 1.384 . S
N667 C659 1.427 . S
N667 C665 1.384 . S
H668 C674 0.930 . S
H669 C678 0.930 . S
H670 C683 0.929 . S
H671 C681 0.929 . S
H672 C676 0.929 . S
H673 C682 0.929 . S
C674 H668 0.930 . S
C674 C675 1.367 . S
C674 C682 1.378 . S
C675 C674 1.367 . S
C675 C683 1.433 . S
C676 H672 0.929 . S
C676 C678 1.378 . S
C676 C680 1.350 . S
C677 C680 1.463 . S
C677 C682 1.350 . S
C677 N685 1.427 . S
C678 H669 0.930 . S
C678 C676 1.378 . S
C678 C679 1.367 . S
C679 C678 1.367 . S
C679 C681 1.433 . S
C680 C676 1.350 . S
C680 C677 1.463 . S
C680 N684 1.427 . S
C681 H671 0.929 . S
C681 C679 1.433 . S
C681 N684 1.384 . S
C682 H673 0.929 . S
C682 C674 1.378 . S
C682 C677 1.350 . S
C683 H670 0.929 . S
C683 C675 1.433 . S
C683 N685 1.384 . S
N684 C680 1.427 . S
N684 C681 1.384 . S
N685 C677 1.427 . S
N685 C683 1.384 . S
H686 C692 0.930 . S
H687 C696 0.930 . S
H688 C701 0.929 . S
H689 C699 0.929 . S
H690 C694 0.929 . S
H691 C700 0.929 . S
C692 H686 0.930 . S
C692 C693 1.367 . S
C692 C700 1.378 . S
C693 C692 1.367 . S
C693 C701 1.433 . S
C694 H690 0.929 . S
C694 C696 1.378 . S
C694 C698 1.350 . S
C695 C698 1.463 . S
C695 C700 1.350 . S
C695 N703 1.427 . S
C696 H687 0.930 . S
C696 C694 1.378 . S
C696 C697 1.367 . S
C697 C696 1.367 . S
C697 C699 1.433 . S
C698 C694 1.350 . S
C698 C695 1.463 . S
C698 N702 1.427 . S
C699 H689 0.929 . S
C699 C697 1.433 . S
C699 N702 1.384 . S
C700 H691 0.929 . S
C700 C692 1.378 . S
C700 C695 1.350 . S
C701 H688 0.929 . S
C701 C693 1.433 . S
C701 N703 1.384 . S
N702 C698 1.427 . S
N702 C699 1.384 . S
N703 C695 1.427 . S
N703 C701 1.384 . S
H704 C710 0.930 . S
H705 C714 0.930 . S
H706 C719 0.929 . S
H707 C717 0.929 . S
H708 C712 0.929 . S
H709 C718 0.929 . S
C710 H704 0.930 . S
C710 C711 1.367 1_565 S
C710 C718 1.378 . S
C711 C710 1.367 1_545 S
C711 C719 1.433 . S
C712 H708 0.929 . S
C712 C714 1.378 . S
C712 C716 1.350 . S
C713 C716 1.463 . S
C713 C718 1.350 . S
C713 N721 1.427 . S
C714 H705 0.930 . S
C714 C712 1.378 . S
C714 C715 1.367 . S
C715 C714 1.367 . S
C715 C717 1.433 . S
C716 C712 1.350 . S
C716 C713 1.463 . S
C716 N720 1.427 . S
C717 H707 0.929 . S
C717 C715 1.433 . S
C717 N720 1.384 . S
C718 H709 0.929 . S
C718 C710 1.378 . S
C718 C713 1.350 . S
C719 H706 0.929 . S
C719 C711 1.433 . S
C719 N721 1.384 1_545 S
N720 C716 1.427 . S
N720 C717 1.384 . S
N721 C713 1.427 . S
N721 C719 1.384 1_565 S
H722 C728 0.930 . S
H723 C732 0.930 . S
H724 C737 0.929 . S
H725 C735 0.929 . S
H726 C730 0.929 . S
H727 C736 0.929 . S
C728 H722 0.930 . S
C728 C729 1.367 . S
C728 C736 1.378 . S
C729 C728 1.367 . S
C729 C737 1.433 . S
C730 H726 0.929 . S
C730 C732 1.378 1_545 S
C730 C734 1.350 . S
C731 C734 1.463 . S
C731 C736 1.350 . S
C731 N739 1.427 . S
C732 H723 0.930 . S
C732 C730 1.378 1_565 S
C732 C733 1.367 . S
C733 C732 1.367 . S
C733 C735 1.433 1_565 S
C734 C730 1.350 . S
C734 C731 1.463 . S
C734 N738 1.427 . S
C735 H725 0.929 . S
C735 C733 1.433 1_545 S
C735 N738 1.384 . S
C736 H727 0.929 . S
C736 C728 1.378 . S
C736 C731 1.350 . S
C737 H724 0.929 . S
C737 C729 1.433 . S
C737 N739 1.384 . S
N738 C734 1.427 . S
N738 C735 1.384 . S
N739 C731 1.427 . S
N739 C737 1.384 . S
H740 C746 0.926 1_565 S
H741 C750 0.930 . S
H742 C755 0.929 . S
H743 C753 0.929 . S
H744 C748 0.929 . S
H745 C754 0.929 . S
C746 H740 0.926 1_545 S
C746 C747 1.359 1_545 S
C746 C754 1.391 . S
C747 C746 1.359 1_565 S
C747 C755 1.433 . S
C748 H744 0.929 . S
C748 C750 1.378 . S
C748 C752 1.350 . S
C749 C752 1.463 . S
C749 C754 1.350 . S
C749 N757 1.427 . S
C750 H741 0.930 . S
C750 C748 1.378 . S
C750 C751 1.367 . S
C751 C750 1.367 . S
C751 C753 1.433 . S
C752 C748 1.350 . S
C752 C749 1.463 . S
C752 N756 1.427 . S
C753 H743 0.929 . S
C753 C751 1.433 . S
C753 N756 1.384 . S
C754 H745 0.929 . S
C754 C746 1.391 . S
C754 C749 1.350 . S
C755 H742 0.929 . S
C755 C747 1.433 . S
C755 N757 1.384 1_565 S
N756 C752 1.427 . S
N756 C753 1.384 . S
N757 C749 1.427 . S
N757 C755 1.384 1_545 S
H758 C764 0.930 . S
H759 C768 0.930 . S
H760 C773 0.929 . S
H761 C771 0.929 . S
H762 C766 0.929 . S
H763 C772 0.929 . S
C764 H758 0.930 . S
C764 C765 1.367 . S
C764 C772 1.378 1_545 S
C765 C764 1.367 . S
C765 C773 1.433 1_545 S
C766 H762 0.929 . S
C766 C768 1.378 . S
C766 C770 1.350 . S
C767 C770 1.463 . S
C767 C772 1.350 . S
C767 N775 1.427 . S
C768 H759 0.930 . S
C768 C766 1.378 . S
C768 C769 1.367 . S
C769 C768 1.367 . S
C769 C771 1.433 . S
C770 C766 1.350 . S
C770 C767 1.463 . S
C770 N774 1.427 . S
C771 H761 0.929 . S
C771 C769 1.433 . S
C771 N774 1.384 . S
C772 H763 0.929 . S
C772 C764 1.378 1_565 S
C772 C767 1.350 . S
C773 H760 0.929 . S
C773 C765 1.433 1_565 S
C773 N775 1.384 . S
N774 C770 1.427 . S
N774 C771 1.384 . S
N775 C767 1.427 . S
N775 C773 1.384 . S
H776 C782 0.930 . S
H777 C786 0.930 . S
H778 C791 0.929 . S
H779 C789 0.929 . S
H780 C784 0.929 . S
H781 C790 0.929 . S
C782 H776 0.930 . S
C782 C783 1.367 . S
C782 C790 1.378 . S
C783 C782 1.367 . S
C783 C791 1.433 . S
C784 H780 0.929 . S
C784 C786 1.378 1_545 S
C784 C788 1.350 . S
C785 C788 1.463 . S
C785 C790 1.350 . S
C785 N793 1.427 . S
C786 H777 0.930 . S
C786 C784 1.378 1_565 S
C786 C787 1.367 . S
C787 C786 1.367 . S
C787 C789 1.433 1_565 S
C788 C784 1.350 . S
C788 C785 1.463 . S
C788 N792 1.427 . S
C789 H779 0.929 . S
C789 C787 1.433 1_545 S
C789 N792 1.384 . S
C790 H781 0.929 . S
C790 C782 1.378 . S
C790 C785 1.350 . S
C791 H778 0.929 . S
C791 C783 1.433 . S
C791 N793 1.384 . S
N792 C788 1.427 . S
N792 C789 1.384 . S
N793 C785 1.427 . S
N793 C791 1.384 . S
H794 C800 0.930 . S
H795 C804 0.930 . S
H796 C809 0.940 . S
H797 C807 0.929 . S
H798 C802 0.929 . S
H799 C808 0.929 . S
C800 H794 0.930 . S
C800 C801 1.367 . S
C800 C808 1.378 1_545 S
C801 C800 1.367 . S
C801 C809 1.447 . S
C802 H798 0.929 . S
C802 C804 1.378 . S
C802 C806 1.350 . S
C803 C806 1.463 . S
C803 C808 1.350 . S
C803 N811 1.427 . S
C804 H795 0.930 . S
C804 C802 1.378 . S
C804 C805 1.367 . S
C805 C804 1.367 . S
C805 C807 1.433 . S
C806 C802 1.350 . S
C806 C803 1.463 . S
C806 N810 1.427 . S
C807 H797 0.929 . S
C807 C805 1.433 . S
C807 N810 1.384 . S
C808 H799 0.929 . S
C808 C800 1.378 1_565 S
C808 C803 1.350 . S
C809 H796 0.940 . S
C809 C801 1.447 . S
C809 N811 1.360 1_545 S
N810 C806 1.427 . S
N810 C807 1.384 . S
N811 C803 1.427 . S
N811 C809 1.360 1_565 S
H812 C818 0.930 . S
H813 C822 0.930 . S
H814 C827 0.929 . S
H815 C825 0.929 . S
H816 C820 0.929 . S
H817 C826 0.929 . S
C818 H812 0.930 . S
C818 C819 1.367 . S
C818 C826 1.378 . S
C819 C818 1.367 . S
C819 C827 1.433 . S
C820 H816 0.929 . S
C820 C822 1.378 . S
C820 C824 1.350 . S
C821 C824 1.463 . S
C821 C826 1.350 . S
C821 N829 1.427 . S
C822 H813 0.930 . S
C822 C820 1.378 . S
C822 C823 1.367 1_565 S
C823 C822 1.367 1_545 S
C823 C825 1.433 . S
C824 C820 1.350 . S
C824 C821 1.463 . S
C824 N828 1.410 1_565 S
C825 H815 0.929 . S
C825 C823 1.433 . S
C825 N828 1.397 . S
C826 H817 0.929 . S
C826 C818 1.378 . S
C826 C821 1.350 . S
C827 H814 0.929 . S
C827 C819 1.433 . S
C827 N829 1.384 . S
N828 C824 1.410 1_545 S
N828 C825 1.397 . S
N829 C821 1.427 . S
N829 C827 1.384 . S
H830 C836 0.930 . S
H831 C840 0.930 . S
H832 C845 0.929 . S
H833 C843 0.929 . S
H834 C838 0.929 . S
H835 C844 0.929 . S
C836 H830 0.930 . S
C836 C837 1.367 . S
C836 C844 1.378 . S
C837 C836 1.367 . S
C837 C845 1.433 . S
C838 H834 0.929 . S
C838 C840 1.378 1_545 S
C838 C842 1.350 . S
C839 C842 1.463 . S
C839 C844 1.350 . S
C839 N847 1.427 . S
C840 H831 0.930 . S
C840 C838 1.378 1_565 S
C840 C841 1.367 . S
C841 C840 1.367 . S
C841 C843 1.433 1_565 S
C842 C838 1.350 . S
C842 C839 1.463 . S
C842 N846 1.427 . S
C843 H833 0.929 . S
C843 C841 1.433 1_545 S
C843 N846 1.384 . S
C844 H835 0.929 . S
C844 C836 1.378 . S
C844 C839 1.350 . S
C845 H832 0.929 . S
C845 C837 1.433 . S
C845 N847 1.384 . S
N846 C842 1.427 . S
N846 C843 1.384 . S
N847 C839 1.427 . S
N847 C845 1.384 . S
H848 C854 0.930 . S
H849 C858 0.930 . S
H850 C863 0.929 . S
H851 C861 0.929 . S
H852 C856 0.929 . S
H853 C862 0.929 . S
C854 H848 0.930 . S
C854 C855 1.367 . S
C854 C862 1.378 . S
C855 C854 1.367 . S
C855 C863 1.433 . S
C856 H852 0.929 . S
C856 C858 1.378 . S
C856 C860 1.350 . S
C857 C860 1.463 . S
C857 C862 1.350 . S
C857 N865 1.427 . S
C858 H849 0.930 . S
C858 C856 1.378 . S
C858 C859 1.367 . S
C859 C858 1.367 . S
C859 C861 1.433 . S
C860 C856 1.350 . S
C860 C857 1.463 . S
C860 N864 1.427 . S
C861 H851 0.929 . S
C861 C859 1.433 . S
C861 N864 1.384 . S
C862 H853 0.929 . S
C862 C854 1.378 . S
C862 C857 1.350 . S
C863 H850 0.929 . S
C863 C855 1.433 . S
C863 N865 1.384 . S
N864 C860 1.427 . S
N864 C861 1.384 . S
N865 C857 1.427 . S
N865 C863 1.384 . S
H866 C872 0.930 . S
H867 C876 0.930 . S
H868 C881 0.929 . S
H869 C879 0.929 . S
H870 C874 0.929 . S
H871 C880 0.929 . S
C872 H866 0.930 . S
C872 C873 1.367 . S
C872 C880 1.378 . S
C873 C872 1.367 . S
C873 C881 1.433 . S
C874 H870 0.929 . S
C874 C876 1.378 . S
C874 C878 1.350 . S
C875 C878 1.463 . S
C875 C880 1.350 . S
C875 N883 1.427 . S
C876 H867 0.930 . S
C876 C874 1.378 . S
C876 C877 1.367 . S
C877 C876 1.367 . S
C877 C879 1.433 . S
C878 C874 1.350 . S
C878 C875 1.463 . S
C878 N882 1.427 . S
C879 H869 0.929 . S
C879 C877 1.433 . S
C879 N882 1.384 . S
C880 H871 0.929 . S
C880 C872 1.378 . S
C880 C875 1.350 . S
C881 H868 0.929 . S
C881 C873 1.433 . S
C881 N883 1.384 . S
N882 C878 1.427 . S
N882 C879 1.384 . S
N883 C875 1.427 . S
N883 C881 1.384 . S
H884 C890 0.930 . S
H885 C894 0.930 . S
H886 C899 0.929 . S
H887 C897 0.929 . S
H888 C892 0.929 . S
H889 C898 0.929 . S
C890 H884 0.930 . S
C890 C891 1.367 . S
C890 C898 1.378 . S
C891 C890 1.367 . S
C891 C899 1.433 . S
C892 H888 0.929 . S
C892 C894 1.378 . S
C892 C896 1.350 . S
C893 C896 1.463 . S
C893 C898 1.350 . S
C893 N901 1.427 . S
C894 H885 0.930 . S
C894 C892 1.378 . S
C894 C895 1.367 . S
C895 C894 1.367 . S
C895 C897 1.433 . S
C896 C892 1.350 . S
C896 C893 1.463 . S
C896 N900 1.427 . S
C897 H887 0.929 . S
C897 C895 1.433 . S
C897 N900 1.384 . S
C898 H889 0.929 . S
C898 C890 1.378 . S
C898 C893 1.350 . S
C899 H886 0.929 . S
C899 C891 1.433 . S
C899 N901 1.384 . S
N900 C896 1.427 . S
N900 C897 1.384 . S
N901 C893 1.427 . S
N901 C899 1.384 . S
H902 C908 0.930 . S
H903 C912 0.930 . S
H904 C917 0.929 . S
H905 C915 0.929 . S
H906 C910 0.929 . S
H907 C916 0.929 . S
C908 H902 0.930 . S
C908 C909 1.367 . S
C908 C916 1.378 . S
C909 C908 1.367 . S
C909 C917 1.433 . S
C910 H906 0.929 . S
C910 C912 1.378 . S
C910 C914 1.350 . S
C911 C914 1.463 . S
C911 C916 1.350 . S
C911 N919 1.427 . S
C912 H903 0.930 . S
C912 C910 1.378 . S
C912 C913 1.367 . S
C913 C912 1.367 . S
C913 C915 1.433 . S
C914 C910 1.350 . S
C914 C911 1.463 . S
C914 N918 1.427 . S
C915 H905 0.929 . S
C915 C913 1.433 . S
C915 N918 1.384 . S
C916 H907 0.929 . S
C916 C908 1.378 . S
C916 C911 1.350 . S
C917 H904 0.929 . S
C917 C909 1.433 . S
C917 N919 1.384 . S
N918 C914 1.427 . S
N918 C915 1.384 . S
N919 C911 1.427 . S
N919 C917 1.384 . S
H920 C926 0.930 . S
H921 C930 0.930 . S
H922 C935 0.929 . S
H923 C933 0.929 . S
H924 C928 0.929 . S
H925 C934 0.929 . S
C926 H920 0.930 . S
C926 C927 1.367 . S
C926 C934 1.378 . S
C927 C926 1.367 . S
C927 C935 1.433 . S
C928 H924 0.929 . S
C928 C930 1.378 . S
C928 C932 1.350 . S
C929 C932 1.463 . S
C929 C934 1.350 . S
C929 N937 1.427 . S
C930 H921 0.930 . S
C930 C928 1.378 . S
C930 C931 1.367 . S
C931 C930 1.367 . S
C931 C933 1.433 . S
C932 C928 1.350 . S
C932 C929 1.463 . S
C932 N936 1.427 . S
C933 H923 0.929 . S
C933 C931 1.433 . S
C933 N936 1.384 . S
C934 H925 0.929 . S
C934 C926 1.378 . S
C934 C929 1.350 . S
C935 H922 0.929 . S
C935 C927 1.433 . S
C935 N937 1.384 . S
N936 C932 1.427 . S
N936 C933 1.384 . S
N937 C929 1.427 . S
N937 C935 1.384 . S
H938 C944 0.930 . S
H939 C948 0.930 . S
H940 C953 0.929 . S
H941 C951 0.929 . S
H942 C946 0.929 . S
H943 C952 0.929 . S
C944 H938 0.930 . S
C944 C945 1.367 . S
C944 C952 1.378 . S
C945 C944 1.367 . S
C945 C953 1.433 . S
C946 H942 0.929 . S
C946 C948 1.378 . S
C946 C950 1.350 . S
C947 C950 1.463 . S
C947 C952 1.350 . S
C947 N955 1.427 . S
C948 H939 0.930 . S
C948 C946 1.378 . S
C948 C949 1.367 . S
C949 C948 1.367 . S
C949 C951 1.433 . S
C950 C946 1.350 . S
C950 C947 1.463 . S
C950 N954 1.427 . S
C951 H941 0.929 . S
C951 C949 1.433 . S
C951 N954 1.384 . S
C952 H943 0.929 . S
C952 C944 1.378 . S
C952 C947 1.350 . S
C953 H940 0.929 . S
C953 C945 1.433 . S
C953 N955 1.384 . S
N954 C950 1.427 . S
N954 C951 1.384 . S
N955 C947 1.427 . S
N955 C953 1.384 . S
H956 C962 0.930 . S
H957 C966 0.930 . S
H958 C971 0.929 . S
H959 C969 0.929 . S
H960 C964 0.929 . S
H961 C970 0.929 . S
C962 H956 0.930 . S
C962 C963 1.367 . S
C962 C970 1.378 . S
C963 C962 1.367 . S
C963 C971 1.433 . S
C964 H960 0.929 . S
C964 C966 1.378 . S
C964 C968 1.350 . S
C965 C968 1.463 . S
C965 C970 1.350 . S
C965 N973 1.427 . S
C966 H957 0.930 . S
C966 C964 1.378 . S
C966 C967 1.367 . S
C967 C966 1.367 . S
C967 C969 1.433 . S
C968 C964 1.350 . S
C968 C965 1.463 . S
C968 N972 1.427 . S
C969 H959 0.929 . S
C969 C967 1.433 . S
C969 N972 1.384 . S
C970 H961 0.929 . S
C970 C962 1.378 . S
C970 C965 1.350 . S
C971 H958 0.929 . S
C971 C963 1.433 . S
C971 N973 1.384 . S
N972 C968 1.427 . S
N972 C969 1.384 . S
N973 C965 1.427 . S
N973 C971 1.384 . S
H974 C980 0.930 . S
H975 C984 0.930 . S
H976 C989 0.929 . S
H977 C987 0.929 . S
H978 C982 0.929 . S
H979 C988 0.929 . S
C980 H974 0.930 . S
C980 C981 1.367 . S
C980 C988 1.378 . S
C981 C980 1.367 . S
C981 C989 1.433 . S
C982 H978 0.929 . S
C982 C984 1.378 . S
C982 C986 1.350 . S
C983 C986 1.463 . S
C983 C988 1.350 . S
C983 N991 1.427 . S
C984 H975 0.930 . S
C984 C982 1.378 . S
C984 C985 1.367 . S
C985 C984 1.367 . S
C985 C987 1.433 . S
C986 C982 1.350 . S
C986 C983 1.463 . S
C986 N990 1.427 . S
C987 H977 0.929 . S
C987 C985 1.433 . S
C987 N990 1.384 . S
C988 H979 0.929 . S
C988 C980 1.378 . S
C988 C983 1.350 . S
C989 H976 0.929 . S
C989 C981 1.433 . S
C989 N991 1.384 . S
N990 C986 1.427 . S
N990 C987 1.384 . S
N991 C983 1.427 . S
N991 C989 1.384 . S
H992 C998 0.930 . S
H993 C1002 0.930 . S
H994 C1007 0.929 . S
H995 C1005 0.929 . S
H996 C1000 0.929 . S
H997 C1006 0.929 . S
C998 H992 0.930 . S
C998 C999 1.367 . S
C998 C1006 1.378 . S
C999 C998 1.367 . S
C999 C1007 1.433 . S
C1000 H996 0.929 . S
C1000 C1002 1.378 . S
C1000 C1004 1.350 . S
C1001 C1004 1.463 . S
C1001 C1006 1.350 . S
C1001 N1009 1.427 . S
C1002 H993 0.930 . S
C1002 C1000 1.378 . S
C1002 C1003 1.367 . S
C1003 C1002 1.367 . S
C1003 C1005 1.433 . S
C1004 C1000 1.350 . S
C1004 C1001 1.463 . S
C1004 N1008 1.427 . S
C1005 H995 0.929 . S
C1005 C1003 1.433 . S
C1005 N1008 1.384 . S
C1006 H997 0.929 . S
C1006 C998 1.378 . S
C1006 C1001 1.350 . S
C1007 H994 0.929 . S
C1007 C999 1.433 . S
C1007 N1009 1.384 . S
N1008 C1004 1.427 . S
N1008 C1005 1.384 . S
N1009 C1001 1.427 . S
N1009 C1007 1.384 . S
H1010 C1016 0.930 . S
H1011 C1020 0.930 . S
H1012 C1025 0.929 . S
H1013 C1023 0.929 . S
H1014 C1018 0.929 . S
H1015 C1024 0.929 . S
C1016 H1010 0.930 . S
C1016 C1017 1.367 . S
C1016 C1024 1.378 . S
C1017 C1016 1.367 . S
C1017 C1025 1.433 . S
C1018 H1014 0.929 . S
C1018 C1020 1.378 1_455 S
C1018 C1022 1.350 . S
C1019 C1022 1.463 . S
C1019 C1024 1.350 . S
C1019 N1027 1.427 . S
C1020 H1011 0.930 . S
C1020 C1018 1.378 1_655 S
C1020 C1021 1.367 . S
C1021 C1020 1.367 . S
C1021 C1023 1.433 . S
C1022 C1018 1.350 . S
C1022 C1019 1.463 . S
C1022 N1026 1.427 . S
C1023 H1013 0.929 . S
C1023 C1021 1.433 . S
C1023 N1026 1.384 1_655 S
C1024 H1015 0.929 . S
C1024 C1016 1.378 . S
C1024 C1019 1.350 . S
C1025 H1012 0.929 . S
C1025 C1017 1.433 . S
C1025 N1027 1.384 . S
N1026 C1022 1.427 . S
N1026 C1023 1.384 1_455 S
N1027 C1019 1.427 . S
N1027 C1025 1.384 . S
H1028 C1034 0.930 . S
H1029 C1038 0.930 . S
H1030 C1043 0.929 . S
H1031 C1041 0.929 . S
H1032 C1036 0.929 . S
H1033 C1042 0.929 . S
C1034 H1028 0.930 . S
C1034 C1035 1.367 . S
C1034 C1042 1.378 . S
C1035 C1034 1.367 . S
C1035 C1043 1.433 . S
C1036 H1032 0.929 . S
C1036 C1038 1.378 . S
C1036 C1040 1.350 . S
C1037 C1040 1.463 . S
C1037 C1042 1.350 . S
C1037 N1045 1.427 . S
C1038 H1029 0.930 . S
C1038 C1036 1.378 . S
C1038 C1039 1.367 . S
C1039 C1038 1.367 . S
C1039 C1041 1.433 . S
C1040 C1036 1.350 . S
C1040 C1037 1.463 . S
C1040 N1044 1.427 . S
C1041 H1031 0.929 . S
C1041 C1039 1.433 . S
C1041 N1044 1.384 . S
C1042 H1033 0.929 . S
C1042 C1034 1.378 . S
C1042 C1037 1.350 . S
C1043 H1030 0.929 . S
C1043 C1035 1.433 . S
C1043 N1045 1.384 . S
N1044 C1040 1.427 . S
N1044 C1041 1.384 . S
N1045 C1037 1.427 . S
N1045 C1043 1.384 . S
H1046 C1052 0.930 . S
H1047 C1056 0.930 . S
H1048 C1061 0.929 . S
H1049 C1059 0.929 . S
H1050 C1054 0.929 . S
H1051 C1060 0.929 . S
C1052 H1046 0.930 . S
C1052 C1053 1.367 . S
C1052 C1060 1.378 . S
C1053 C1052 1.367 . S
C1053 C1061 1.433 . S
C1054 H1050 0.929 . S
C1054 C1056 1.378 . S
C1054 C1058 1.350 . S
C1055 C1058 1.463 . S
C1055 C1060 1.350 . S
C1055 N1063 1.427 . S
C1056 H1047 0.930 . S
C1056 C1054 1.378 . S
C1056 C1057 1.367 . S
C1057 C1056 1.367 . S
C1057 C1059 1.433 . S
C1058 C1054 1.350 . S
C1058 C1055 1.463 . S
C1058 N1062 1.427 . S
C1059 H1049 0.929 . S
C1059 C1057 1.433 . S
C1059 N1062 1.384 . S
C1060 H1051 0.929 . S
C1060 C1052 1.378 . S
C1060 C1055 1.350 . S
C1061 H1048 0.929 . S
C1061 C1053 1.433 . S
C1061 N1063 1.384 . S
N1062 C1058 1.427 . S
N1062 C1059 1.384 . S
N1063 C1055 1.427 . S
N1063 C1061 1.384 . S
H1064 C1070 0.930 . S
H1065 C1074 0.930 . S
H1066 C1079 0.929 . S
H1067 C1077 0.929 . S
H1068 C1072 0.929 . S
H1069 C1078 0.929 . S
C1070 H1064 0.930 . S
C1070 C1071 1.367 . S
C1070 C1078 1.378 . S
C1071 C1070 1.367 . S
C1071 C1079 1.433 . S
C1072 H1068 0.929 . S
C1072 C1074 1.378 . S
C1072 C1076 1.350 . S
C1073 C1076 1.463 . S
C1073 C1078 1.350 . S
C1073 N1081 1.427 . S
C1074 H1065 0.930 . S
C1074 C1072 1.378 . S
C1074 C1075 1.367 . S
C1075 C1074 1.367 . S
C1075 C1077 1.433 . S
C1076 C1072 1.350 . S
C1076 C1073 1.463 . S
C1076 N1080 1.427 . S
C1077 H1067 0.929 . S
C1077 C1075 1.433 . S
C1077 N1080 1.384 . S
C1078 H1069 0.929 . S
C1078 C1070 1.378 . S
C1078 C1073 1.350 . S
C1079 H1066 0.929 . S
C1079 C1071 1.433 . S
C1079 N1081 1.384 . S
N1080 C1076 1.427 . S
N1080 C1077 1.384 . S
N1081 C1073 1.427 . S
N1081 C1079 1.384 . S
H1082 C1088 0.930 . S
H1083 C1092 0.930 . S
H1084 C1097 0.929 . S
H1085 C1095 0.929 . S
H1086 C1090 0.929 . S
H1087 C1096 0.929 . S
C1088 H1082 0.930 . S
C1088 C1089 1.367 . S
C1088 C1096 1.378 . S
C1089 C1088 1.367 . S
C1089 C1097 1.433 . S
C1090 H1086 0.929 . S
C1090 C1092 1.378 . S
C1090 C1094 1.350 . S
C1091 C1094 1.463 . S
C1091 C1096 1.350 . S
C1091 N1099 1.427 . S
C1092 H1083 0.930 . S
C1092 C1090 1.378 . S
C1092 C1093 1.367 . S
C1093 C1092 1.367 . S
C1093 C1095 1.433 . S
C1094 C1090 1.350 . S
C1094 C1091 1.463 . S
C1094 N1098 1.427 . S
C1095 H1085 0.929 . S
C1095 C1093 1.433 . S
C1095 N1098 1.384 . S
C1096 H1087 0.929 . S
C1096 C1088 1.378 . S
C1096 C1091 1.350 . S
C1097 H1084 0.929 . S
C1097 C1089 1.433 . S
C1097 N1099 1.384 . S
N1098 C1094 1.427 . S
N1098 C1095 1.384 . S
N1099 C1091 1.427 . S
N1099 C1097 1.384 . S
H1100 C1106 0.930 . S
H1101 C1110 0.930 . S
H1102 C1115 0.929 . S
H1103 C1113 0.929 . S
H1104 C1108 0.929 . S
H1105 C1114 0.929 . S
C1106 H1100 0.930 . S
C1106 C1107 1.367 . S
C1106 C1114 1.378 . S
C1107 C1106 1.367 . S
C1107 C1115 1.433 . S
C1108 H1104 0.929 . S
C1108 C1110 1.378 . S
C1108 C1112 1.350 . S
C1109 C1112 1.463 . S
C1109 C1114 1.350 . S
C1109 N1117 1.427 . S
C1110 H1101 0.930 . S
C1110 C1108 1.378 . S
C1110 C1111 1.367 . S
C1111 C1110 1.367 . S
C1111 C1113 1.433 . S
C1112 C1108 1.350 . S
C1112 C1109 1.463 . S
C1112 N1116 1.427 . S
C1113 H1103 0.929 . S
C1113 C1111 1.433 . S
C1113 N1116 1.384 . S
C1114 H1105 0.929 . S
C1114 C1106 1.378 . S
C1114 C1109 1.350 . S
C1115 H1102 0.929 . S
C1115 C1107 1.433 . S
C1115 N1117 1.384 . S
N1116 C1112 1.427 . S
N1116 C1113 1.384 . S
N1117 C1109 1.427 . S
N1117 C1115 1.384 . S
H1118 C1124 0.930 . S
H1119 C1128 0.930 . S
H1120 C1133 0.929 . S
H1121 C1131 0.929 . S
H1122 C1126 0.929 . S
H1123 C1132 0.929 . S
C1124 H1118 0.930 . S
C1124 C1125 1.367 . S
C1124 C1132 1.378 . S
C1125 C1124 1.367 . S
C1125 C1133 1.433 . S
C1126 H1122 0.929 . S
C1126 C1128 1.378 1_455 S
C1126 C1130 1.350 . S
C1127 C1130 1.463 . S
C1127 C1132 1.350 . S
C1127 N1135 1.427 . S
C1128 H1119 0.930 . S
C1128 C1126 1.378 1_655 S
C1128 C1129 1.367 . S
C1129 C1128 1.367 . S
C1129 C1131 1.433 . S
C1130 C1126 1.350 . S
C1130 C1127 1.463 . S
C1130 N1134 1.427 . S
C1131 H1121 0.929 . S
C1131 C1129 1.433 . S
C1131 N1134 1.384 1_655 S
C1132 H1123 0.929 . S
C1132 C1124 1.378 . S
C1132 C1127 1.350 . S
C1133 H1120 0.929 . S
C1133 C1125 1.433 . S
C1133 N1135 1.384 . S
N1134 C1130 1.427 . S
N1134 C1131 1.384 1_455 S
N1135 C1127 1.427 . S
N1135 C1133 1.384 . S
H1136 C1142 0.930 . S
H1137 C1146 0.930 . S
H1138 C1151 0.929 . S
H1139 C1149 0.929 . S
H1140 C1144 0.929 . S
H1141 C1150 0.929 . S
C1142 H1136 0.930 . S
C1142 C1143 1.367 . S
C1142 C1150 1.378 . S
C1143 C1142 1.367 . S
C1143 C1151 1.433 . S
C1144 H1140 0.929 . S
C1144 C1146 1.378 . S
C1144 C1148 1.350 . S
C1145 C1148 1.463 . S
C1145 C1150 1.350 . S
C1145 N1153 1.427 . S
C1146 H1137 0.930 . S
C1146 C1144 1.378 . S
C1146 C1147 1.367 . S
C1147 C1146 1.367 . S
C1147 C1149 1.433 . S
C1148 C1144 1.350 . S
C1148 C1145 1.463 . S
C1148 N1152 1.427 . S
C1149 H1139 0.929 . S
C1149 C1147 1.433 . S
C1149 N1152 1.384 . S
C1150 H1141 0.929 . S
C1150 C1142 1.378 . S
C1150 C1145 1.350 . S
C1151 H1138 0.929 . S
C1151 C1143 1.433 . S
C1151 N1153 1.384 . S
N1152 C1148 1.427 . S
N1152 C1149 1.384 . S
N1153 C1145 1.427 . S
N1153 C1151 1.384 . S
H1154 C1160 0.930 . S
H1155 C1164 0.930 . S
H1156 C1169 0.929 . S
H1157 C1167 0.929 . S
H1158 C1162 0.929 . S
H1159 C1168 0.929 . S
C1160 H1154 0.930 . S
C1160 C1161 1.367 . S
C1160 C1168 1.378 1_455 S
C1161 C1160 1.367 . S
C1161 C1169 1.433 . S
C1162 H1158 0.929 . S
C1162 C1164 1.378 . S
C1162 C1166 1.350 . S
C1163 C1166 1.463 . S
C1163 C1168 1.350 . S
C1163 N1171 1.427 . S
C1164 H1155 0.930 . S
C1164 C1162 1.378 . S
C1164 C1165 1.367 . S
C1165 C1164 1.367 . S
C1165 C1167 1.433 . S
C1166 C1162 1.350 . S
C1166 C1163 1.463 . S
C1166 N1170 1.427 . S
C1167 H1157 0.929 . S
C1167 C1165 1.433 . S
C1167 N1170 1.384 . S
C1168 H1159 0.929 . S
C1168 C1160 1.378 1_655 S
C1168 C1163 1.350 . S
C1169 H1156 0.929 . S
C1169 C1161 1.433 . S
C1169 N1171 1.384 1_455 S
N1170 C1166 1.427 . S
N1170 C1167 1.384 . S
N1171 C1163 1.427 . S
N1171 C1169 1.384 1_655 S
H1172 C1178 0.930 . S
H1173 C1182 0.930 . S
H1174 C1187 0.929 . S
H1175 C1185 0.929 . S
H1176 C1180 0.929 . S
H1177 C1186 0.929 . S
C1178 H1172 0.930 . S
C1178 C1179 1.367 . S
C1178 C1186 1.378 . S
C1179 C1178 1.367 . S
C1179 C1187 1.433 . S
C1180 H1176 0.929 . S
C1180 C1182 1.378 . S
C1180 C1184 1.350 . S
C1181 C1184 1.463 . S
C1181 C1186 1.350 . S
C1181 N1189 1.427 . S
C1182 H1173 0.930 . S
C1182 C1180 1.378 . S
C1182 C1183 1.367 . S
C1183 C1182 1.367 . S
C1183 C1185 1.433 . S
C1184 C1180 1.350 . S
C1184 C1181 1.463 . S
C1184 N1188 1.427 . S
C1185 H1175 0.929 . S
C1185 C1183 1.433 . S
C1185 N1188 1.384 . S
C1186 H1177 0.929 . S
C1186 C1178 1.378 . S
C1186 C1181 1.350 . S
C1187 H1174 0.929 . S
C1187 C1179 1.433 . S
C1187 N1189 1.384 . S
N1188 C1184 1.427 . S
N1188 C1185 1.384 . S
N1189 C1181 1.427 . S
N1189 C1187 1.384 . S
H1190 C1196 0.930 . S
H1191 C1200 0.930 . S
H1192 C1205 0.929 . S
H1193 C1203 0.929 . S
H1194 C1198 0.929 . S
H1195 C1204 0.929 . S
C1196 H1190 0.930 . S
C1196 C1197 1.367 . S
C1196 C1204 1.378 . S
C1197 C1196 1.367 . S
C1197 C1205 1.433 . S
C1198 H1194 0.929 . S
C1198 C1200 1.378 . S
C1198 C1202 1.350 . S
C1199 C1202 1.463 . S
C1199 C1204 1.350 . S
C1199 N1207 1.427 . S
C1200 H1191 0.930 . S
C1200 C1198 1.378 . S
C1200 C1201 1.367 . S
C1201 C1200 1.367 . S
C1201 C1203 1.433 . S
C1202 C1198 1.350 . S
C1202 C1199 1.463 . S
C1202 N1206 1.427 . S
C1203 H1193 0.929 . S
C1203 C1201 1.433 . S
C1203 N1206 1.384 . S
C1204 H1195 0.929 . S
C1204 C1196 1.378 . S
C1204 C1199 1.350 . S
C1205 H1192 0.929 . S
C1205 C1197 1.433 . S
C1205 N1207 1.384 . S
N1206 C1202 1.427 . S
N1206 C1203 1.384 . S
N1207 C1199 1.427 . S
N1207 C1205 1.384 . S
H1208 C1214 0.930 . S
H1209 C1218 0.930 . S
H1210 C1223 0.929 . S
H1211 C1221 0.929 . S
H1212 C1216 0.929 . S
H1213 C1222 0.929 . S
C1214 H1208 0.930 . S
C1214 C1215 1.367 . S
C1214 C1222 1.378 . S
C1215 C1214 1.367 . S
C1215 C1223 1.433 . S
C1216 H1212 0.929 . S
C1216 C1218 1.378 . S
C1216 C1220 1.350 . S
C1217 C1220 1.463 . S
C1217 C1222 1.350 . S
C1217 N1225 1.427 . S
C1218 H1209 0.930 . S
C1218 C1216 1.378 . S
C1218 C1219 1.367 . S
C1219 C1218 1.367 . S
C1219 C1221 1.433 . S
C1220 C1216 1.350 . S
C1220 C1217 1.463 . S
C1220 N1224 1.427 . S
C1221 H1211 0.929 . S
C1221 C1219 1.433 . S
C1221 N1224 1.384 . S
C1222 H1213 0.929 . S
C1222 C1214 1.378 . S
C1222 C1217 1.350 . S
C1223 H1210 0.929 . S
C1223 C1215 1.433 . S
C1223 N1225 1.384 . S
N1224 C1220 1.427 . S
N1224 C1221 1.384 . S
N1225 C1217 1.427 . S
N1225 C1223 1.384 . S
H1226 C1232 0.930 . S
H1227 C1236 0.930 . S
H1228 C1241 0.929 . S
H1229 C1239 0.929 . S
H1230 C1234 0.929 . S
H1231 C1240 0.929 . S
C1232 H1226 0.930 . S
C1232 C1233 1.367 . S
C1232 C1240 1.378 . S
C1233 C1232 1.367 . S
C1233 C1241 1.433 . S
C1234 H1230 0.929 . S
C1234 C1236 1.378 . S
C1234 C1238 1.350 . S
C1235 C1238 1.463 . S
C1235 C1240 1.350 . S
C1235 N1243 1.427 . S
C1236 H1227 0.930 . S
C1236 C1234 1.378 . S
C1236 C1237 1.367 . S
C1237 C1236 1.367 . S
C1237 C1239 1.433 . S
C1238 C1234 1.350 . S
C1238 C1235 1.463 . S
C1238 N1242 1.427 . S
C1239 H1229 0.929 . S
C1239 C1237 1.433 . S
C1239 N1242 1.384 . S
C1240 H1231 0.929 . S
C1240 C1232 1.378 . S
C1240 C1235 1.350 . S
C1241 H1228 0.929 . S
C1241 C1233 1.433 . S
C1241 N1243 1.384 . S
N1242 C1238 1.427 . S
N1242 C1239 1.384 . S
N1243 C1235 1.427 . S
N1243 C1241 1.384 . S
H1244 C1250 0.930 . S
H1245 C1254 0.930 . S
H1246 C1259 0.929 . S
H1247 C1257 0.929 . S
H1248 C1252 0.929 . S
H1249 C1258 0.929 . S
C1250 H1244 0.930 . S
C1250 C1251 1.367 . S
C1250 C1258 1.378 . S
C1251 C1250 1.367 . S
C1251 C1259 1.433 . S
C1252 H1248 0.929 . S
C1252 C1254 1.378 . S
C1252 C1256 1.350 . S
C1253 C1256 1.463 . S
C1253 C1258 1.350 . S
C1253 N1261 1.427 . S
C1254 H1245 0.930 . S
C1254 C1252 1.378 . S
C1254 C1255 1.367 . S
C1255 C1254 1.367 . S
C1255 C1257 1.433 . S
C1256 C1252 1.350 . S
C1256 C1253 1.463 . S
C1256 N1260 1.427 . S
C1257 H1247 0.929 . S
C1257 C1255 1.433 . S
C1257 N1260 1.384 . S
C1258 H1249 0.929 . S
C1258 C1250 1.378 . S
C1258 C1253 1.350 . S
C1259 H1246 0.929 . S
C1259 C1251 1.433 . S
C1259 N1261 1.384 . S
N1260 C1256 1.427 . S
N1260 C1257 1.384 . S
N1261 C1253 1.427 . S
N1261 C1259 1.384 . S
H1262 C1268 0.930 . S
H1263 C1272 0.930 . S
H1264 C1277 0.929 . S
H1265 C1275 0.929 . S
H1266 C1270 0.929 . S
H1267 C1276 0.929 . S
C1268 H1262 0.930 . S
C1268 C1269 1.367 . S
C1268 C1276 1.378 1_455 S
C1269 C1268 1.367 . S
C1269 C1277 1.433 . S
C1270 H1266 0.929 . S
C1270 C1272 1.378 . S
C1270 C1274 1.350 . S
C1271 C1274 1.463 . S
C1271 C1276 1.350 . S
C1271 N1279 1.427 . S
C1272 H1263 0.930 . S
C1272 C1270 1.378 . S
C1272 C1273 1.367 . S
C1273 C1272 1.367 . S
C1273 C1275 1.433 . S
C1274 C1270 1.350 . S
C1274 C1271 1.463 . S
C1274 N1278 1.427 . S
C1275 H1265 0.929 . S
C1275 C1273 1.433 . S
C1275 N1278 1.384 . S
C1276 H1267 0.929 . S
C1276 C1268 1.378 1_655 S
C1276 C1271 1.350 . S
C1277 H1264 0.929 . S
C1277 C1269 1.433 . S
C1277 N1279 1.384 1_455 S
N1278 C1274 1.427 . S
N1278 C1275 1.384 . S
N1279 C1271 1.427 . S
N1279 C1277 1.384 1_655 S
H1280 C1286 0.930 . S
H1281 C1290 0.930 . S
H1282 C1295 0.929 . S
H1283 C1293 0.929 . S
H1284 C1288 0.929 . S
H1285 C1294 0.929 . S
C1286 H1280 0.930 . S
C1286 C1287 1.367 . S
C1286 C1294 1.378 . S
C1287 C1286 1.367 . S
C1287 C1295 1.433 . S
C1288 H1284 0.929 . S
C1288 C1290 1.378 . S
C1288 C1292 1.350 . S
C1289 C1292 1.463 . S
C1289 C1294 1.350 . S
C1289 N1297 1.427 . S
C1290 H1281 0.930 . S
C1290 C1288 1.378 . S
C1290 C1291 1.367 . S
C1291 C1290 1.367 . S
C1291 C1293 1.433 . S
C1292 C1288 1.350 . S
C1292 C1289 1.463 . S
C1292 N1296 1.427 . S
C1293 H1283 0.929 . S
C1293 C1291 1.433 . S
C1293 N1296 1.384 . S
C1294 H1285 0.929 . S
C1294 C1286 1.378 . S
C1294 C1289 1.350 . S
C1295 H1282 0.929 . S
C1295 C1287 1.433 . S
C1295 N1297 1.384 . S
N1296 C1292 1.427 . S
N1296 C1293 1.384 . S
N1297 C1289 1.427 . S
N1297 C1295 1.384 . S
H1298 C1304 0.930 . S
H1299 C1308 0.930 . S
H1300 C1313 0.929 . S
H1301 C1311 0.929 . S
H1302 C1306 0.929 . S
H1303 C1312 0.929 . S
C1304 H1298 0.930 . S
C1304 C1305 1.367 . S
C1304 C1312 1.378 . S
C1305 C1304 1.367 . S
C1305 C1313 1.433 . S
C1306 H1302 0.929 . S
C1306 C1308 1.378 . S
C1306 C1310 1.350 . S
C1307 C1310 1.463 . S
C1307 C1312 1.350 . S
C1307 N1315 1.427 . S
C1308 H1299 0.930 . S
C1308 C1306 1.378 . S
C1308 C1309 1.367 . S
C1309 C1308 1.367 . S
C1309 C1311 1.433 . S
C1310 C1306 1.350 . S
C1310 C1307 1.463 . S
C1310 N1314 1.427 . S
C1311 H1301 0.929 . S
C1311 C1309 1.433 . S
C1311 N1314 1.384 . S
C1312 H1303 0.929 . S
C1312 C1304 1.378 . S
C1312 C1307 1.350 . S
C1313 H1300 0.929 . S
C1313 C1305 1.433 . S
C1313 N1315 1.384 . S
N1314 C1310 1.427 . S
N1314 C1311 1.384 . S
N1315 C1307 1.427 . S
N1315 C1313 1.384 . S
H1316 C1322 0.930 . S
H1317 C1326 0.930 . S
H1318 C1331 0.929 . S
H1319 C1329 0.929 . S
H1320 C1324 0.929 . S
H1321 C1330 0.929 . S
C1322 H1316 0.930 . S
C1322 C1323 1.367 . S
C1322 C1330 1.378 . S
C1323 C1322 1.367 . S
C1323 C1331 1.433 . S
C1324 H1320 0.929 . S
C1324 C1326 1.378 . S
C1324 C1328 1.350 . S
C1325 C1328 1.463 . S
C1325 C1330 1.350 . S
C1325 N1333 1.427 . S
C1326 H1317 0.930 . S
C1326 C1324 1.378 . S
C1326 C1327 1.367 . S
C1327 C1326 1.367 . S
C1327 C1329 1.433 . S
C1328 C1324 1.350 . S
C1328 C1325 1.463 . S
C1328 N1332 1.427 . S
C1329 H1319 0.929 . S
C1329 C1327 1.433 . S
C1329 N1332 1.384 . S
C1330 H1321 0.929 . S
C1330 C1322 1.378 . S
C1330 C1325 1.350 . S
C1331 H1318 0.929 . S
C1331 C1323 1.433 . S
C1331 N1333 1.384 . S
N1332 C1328 1.427 . S
N1332 C1329 1.384 . S
N1333 C1325 1.427 . S
N1333 C1331 1.384 . S
H1334 C1340 0.930 . S
H1335 C1344 0.930 . S
H1336 C1349 0.929 . S
H1337 C1347 0.929 . S
H1338 C1342 0.929 . S
H1339 C1348 0.929 . S
C1340 H1334 0.930 . S
C1340 C1341 1.367 . S
C1340 C1348 1.378 . S
C1341 C1340 1.367 . S
C1341 C1349 1.433 . S
C1342 H1338 0.929 . S
C1342 C1344 1.378 1_655 S
C1342 C1346 1.350 . S
C1343 C1346 1.463 . S
C1343 C1348 1.350 . S
C1343 N1351 1.427 . S
C1344 H1335 0.930 . S
C1344 C1342 1.378 1_455 S
C1344 C1345 1.367 . S
C1345 C1344 1.367 . S
C1345 C1347 1.433 . S
C1346 C1342 1.350 . S
C1346 C1343 1.463 . S
C1346 N1350 1.427 . S
C1347 H1337 0.929 . S
C1347 C1345 1.433 . S
C1347 N1350 1.384 1_455 S
C1348 H1339 0.929 . S
C1348 C1340 1.378 . S
C1348 C1343 1.350 . S
C1349 H1336 0.929 . S
C1349 C1341 1.433 . S
C1349 N1351 1.384 . S
N1350 C1346 1.427 . S
N1350 C1347 1.384 1_655 S
N1351 C1343 1.427 . S
N1351 C1349 1.384 . S
H1352 C1358 0.930 . S
H1353 C1362 0.930 . S
H1354 C1367 0.929 . S
H1355 C1365 0.929 . S
H1356 C1360 0.929 . S
H1357 C1366 0.929 . S
C1358 H1352 0.930 . S
C1358 C1359 1.367 . S
C1358 C1366 1.378 . S
C1359 C1358 1.367 . S
C1359 C1367 1.433 . S
C1360 H1356 0.929 . S
C1360 C1362 1.378 . S
C1360 C1364 1.350 . S
C1361 C1364 1.463 . S
C1361 C1366 1.350 . S
C1361 N1369 1.427 . S
C1362 H1353 0.930 . S
C1362 C1360 1.378 . S
C1362 C1363 1.367 . S
C1363 C1362 1.367 . S
C1363 C1365 1.433 . S
C1364 C1360 1.350 . S
C1364 C1361 1.463 . S
C1364 N1368 1.427 . S
C1365 H1355 0.929 . S
C1365 C1363 1.433 . S
C1365 N1368 1.384 . S
C1366 H1357 0.929 . S
C1366 C1358 1.378 . S
C1366 C1361 1.350 . S
C1367 H1354 0.929 . S
C1367 C1359 1.433 . S
C1367 N1369 1.384 . S
N1368 C1364 1.427 . S
N1368 C1365 1.384 . S
N1369 C1361 1.427 . S
N1369 C1367 1.384 . S
H1370 C1376 0.930 . S
H1371 C1380 0.930 . S
H1372 C1385 0.929 . S
H1373 C1383 0.929 . S
H1374 C1378 0.929 . S
H1375 C1384 0.929 . S
C1376 H1370 0.930 . S
C1376 C1377 1.367 . S
C1376 C1384 1.378 1_455 S
C1377 C1376 1.367 . S
C1377 C1385 1.433 . S
C1378 H1374 0.929 . S
C1378 C1380 1.378 . S
C1378 C1382 1.350 . S
C1379 C1382 1.463 . S
C1379 C1384 1.350 . S
C1379 N1387 1.427 . S
C1380 H1371 0.930 . S
C1380 C1378 1.378 . S
C1380 C1381 1.367 . S
C1381 C1380 1.367 . S
C1381 C1383 1.433 . S
C1382 C1378 1.350 . S
C1382 C1379 1.463 . S
C1382 N1386 1.427 . S
C1383 H1373 0.929 . S
C1383 C1381 1.433 . S
C1383 N1386 1.384 . S
C1384 H1375 0.929 . S
C1384 C1376 1.378 1_655 S
C1384 C1379 1.350 . S
C1385 H1372 0.929 . S
C1385 C1377 1.433 . S
C1385 N1387 1.384 1_455 S
N1386 C1382 1.427 . S
N1386 C1383 1.384 . S
N1387 C1379 1.427 . S
N1387 C1385 1.384 1_655 S
H1388 C1394 0.930 . S
H1389 C1398 0.930 . S
H1390 C1403 0.929 . S
H1391 C1401 0.929 . S
H1392 C1396 0.929 . S
H1393 C1402 0.929 . S
C1394 H1388 0.930 . S
C1394 C1395 1.367 . S
C1394 C1402 1.378 . S
C1395 C1394 1.367 . S
C1395 C1403 1.433 . S
C1396 H1392 0.929 . S
C1396 C1398 1.378 . S
C1396 C1400 1.350 . S
C1397 C1400 1.463 . S
C1397 C1402 1.350 . S
C1397 N1405 1.427 . S
C1398 H1389 0.930 . S
C1398 C1396 1.378 . S
C1398 C1399 1.367 . S
C1399 C1398 1.367 . S
C1399 C1401 1.433 . S
C1400 C1396 1.350 . S
C1400 C1397 1.463 . S
C1400 N1404 1.427 . S
C1401 H1391 0.929 . S
C1401 C1399 1.433 . S
C1401 N1404 1.384 . S
C1402 H1393 0.929 . S
C1402 C1394 1.378 . S
C1402 C1397 1.350 . S
C1403 H1390 0.929 . S
C1403 C1395 1.433 . S
C1403 N1405 1.384 . S
N1404 C1400 1.427 . S
N1404 C1401 1.384 . S
N1405 C1397 1.427 . S
N1405 C1403 1.384 . S
H1406 C1412 0.930 . S
H1407 C1416 0.930 . S
H1408 C1421 0.929 . S
H1409 C1419 0.929 . S
H1410 C1414 0.929 . S
H1411 C1420 0.929 . S
C1412 H1406 0.930 . S
C1412 C1413 1.367 . S
C1412 C1420 1.378 . S
C1413 C1412 1.367 . S
C1413 C1421 1.433 . S
C1414 H1410 0.929 . S
C1414 C1416 1.378 . S
C1414 C1418 1.350 . S
C1415 C1418 1.463 . S
C1415 C1420 1.350 . S
C1415 N1423 1.427 . S
C1416 H1407 0.930 . S
C1416 C1414 1.378 . S
C1416 C1417 1.367 . S
C1417 C1416 1.367 . S
C1417 C1419 1.433 . S
C1418 C1414 1.350 . S
C1418 C1415 1.463 . S
C1418 N1422 1.427 . S
C1419 H1409 0.929 . S
C1419 C1417 1.433 . S
C1419 N1422 1.384 . S
C1420 H1411 0.929 . S
C1420 C1412 1.378 . S
C1420 C1415 1.350 . S
C1421 H1408 0.929 . S
C1421 C1413 1.433 . S
C1421 N1423 1.384 . S
N1422 C1418 1.427 . S
N1422 C1419 1.384 . S
N1423 C1415 1.427 . S
N1423 C1421 1.384 . S
H1424 C1430 0.930 . S
H1425 C1434 0.930 . S
H1426 C1439 0.929 . S
H1427 C1437 0.929 . S
H1428 C1432 0.929 . S
H1429 C1438 0.929 . S
C1430 H1424 0.930 . S
C1430 C1431 1.367 . S
C1430 C1438 1.378 . S
C1431 C1430 1.367 . S
C1431 C1439 1.433 . S
C1432 H1428 0.929 . S
C1432 C1434 1.378 . S
C1432 C1436 1.350 . S
C1433 C1436 1.463 . S
C1433 C1438 1.350 . S
C1433 N1441 1.427 . S
C1434 H1425 0.930 . S
C1434 C1432 1.378 . S
C1434 C1435 1.367 . S
C1435 C1434 1.367 . S
C1435 C1437 1.433 . S
C1436 C1432 1.350 . S
C1436 C1433 1.463 . S
C1436 N1440 1.427 . S
C1437 H1427 0.929 . S
C1437 C1435 1.433 . S
C1437 N1440 1.384 . S
C1438 H1429 0.929 . S
C1438 C1430 1.378 . S
C1438 C1433 1.350 . S
C1439 H1426 0.929 . S
C1439 C1431 1.433 . S
C1439 N1441 1.384 . S
N1440 C1436 1.427 . S
N1440 C1437 1.384 . S
N1441 C1433 1.427 . S
N1441 C1439 1.384 . S
H1442 C1448 0.930 . S
H1443 C1452 0.930 . S
H1444 C1457 0.929 . S
H1445 C1455 0.929 . S
H1446 C1450 0.929 . S
H1447 C1456 0.929 . S
C1448 H1442 0.930 . S
C1448 C1449 1.367 . S
C1448 C1456 1.378 . S
C1449 C1448 1.367 . S
C1449 C1457 1.433 . S
C1450 H1446 0.929 . S
C1450 C1452 1.378 . S
C1450 C1454 1.350 . S
C1451 C1454 1.463 . S
C1451 C1456 1.350 . S
C1451 N1459 1.427 . S
C1452 H1443 0.930 . S
C1452 C1450 1.378 . S
C1452 C1453 1.367 . S
C1453 C1452 1.367 . S
C1453 C1455 1.433 . S
C1454 C1450 1.350 . S
C1454 C1451 1.463 . S
C1454 N1458 1.427 . S
C1455 H1445 0.929 . S
C1455 C1453 1.433 . S
C1455 N1458 1.384 . S
C1456 H1447 0.929 . S
C1456 C1448 1.378 . S
C1456 C1451 1.350 . S
C1457 H1444 0.929 . S
C1457 C1449 1.433 . S
C1457 N1459 1.384 . S
N1458 C1454 1.427 . S
N1458 C1455 1.384 . S
N1459 C1451 1.427 . S
N1459 C1457 1.384 . S
H1460 C1466 0.930 . S
H1461 C1470 0.930 . S
H1462 C1475 0.929 . S
H1463 C1473 0.929 . S
H1464 C1468 0.929 . S
H1465 C1474 0.929 . S
C1466 H1460 0.930 . S
C1466 C1467 1.367 . S
C1466 C1474 1.378 . S
C1467 C1466 1.367 . S
C1467 C1475 1.433 . S
C1468 H1464 0.929 . S
C1468 C1470 1.378 . S
C1468 C1472 1.350 . S
C1469 C1472 1.463 . S
C1469 C1474 1.350 . S
C1469 N1477 1.427 . S
C1470 H1461 0.930 . S
C1470 C1468 1.378 . S
C1470 C1471 1.367 . S
C1471 C1470 1.367 . S
C1471 C1473 1.433 . S
C1472 C1468 1.350 . S
C1472 C1469 1.463 . S
C1472 N1476 1.427 . S
C1473 H1463 0.929 . S
C1473 C1471 1.433 . S
C1473 N1476 1.384 . S
C1474 H1465 0.929 . S
C1474 C1466 1.378 . S
C1474 C1469 1.350 . S
C1475 H1462 0.929 . S
C1475 C1467 1.433 . S
C1475 N1477 1.384 . S
N1476 C1472 1.427 . S
N1476 C1473 1.384 . S
N1477 C1469 1.427 . S
N1477 C1475 1.384 . S
H1478 C1484 0.930 . S
H1479 C1488 0.930 . S
H1480 C1493 0.929 . S
H1481 C1491 0.929 . S
H1482 C1486 0.929 . S
H1483 C1492 0.929 . S
C1484 H1478 0.930 . S
C1484 C1485 1.367 . S
C1484 C1492 1.378 1_655 S
C1485 C1484 1.367 . S
C1485 C1493 1.433 . S
C1486 H1482 0.929 . S
C1486 C1488 1.378 . S
C1486 C1490 1.350 . S
C1487 C1490 1.463 . S
C1487 C1492 1.350 . S
C1487 N1495 1.427 . S
C1488 H1479 0.930 . S
C1488 C1486 1.378 . S
C1488 C1489 1.367 . S
C1489 C1488 1.367 . S
C1489 C1491 1.433 . S
C1490 C1486 1.350 . S
C1490 C1487 1.463 . S
C1490 N1494 1.427 . S
C1491 H1481 0.929 . S
C1491 C1489 1.433 . S
C1491 N1494 1.384 . S
C1492 H1483 0.929 . S
C1492 C1484 1.378 1_455 S
C1492 C1487 1.350 . S
C1493 H1480 0.929 . S
C1493 C1485 1.433 . S
C1493 N1495 1.384 1_655 S
N1494 C1490 1.427 . S
N1494 C1491 1.384 . S
N1495 C1487 1.427 . S
N1495 C1493 1.384 1_455 S
H1496 C1502 0.930 . S
H1497 C1506 0.930 . S
H1498 C1511 0.929 . S
H1499 C1509 0.929 . S
H1500 C1504 0.929 . S
H1501 C1510 0.929 . S
C1502 H1496 0.930 . S
C1502 C1503 1.367 . S
C1502 C1510 1.378 . S
C1503 C1502 1.367 . S
C1503 C1511 1.433 . S
C1504 H1500 0.929 . S
C1504 C1506 1.378 . S
C1504 C1508 1.350 . S
C1505 C1508 1.463 . S
C1505 C1510 1.350 . S
C1505 N1513 1.427 . S
C1506 H1497 0.930 . S
C1506 C1504 1.378 . S
C1506 C1507 1.367 . S
C1507 C1506 1.367 . S
C1507 C1509 1.433 . S
C1508 C1504 1.350 . S
C1508 C1505 1.463 . S
C1508 N1512 1.427 . S
C1509 H1499 0.929 . S
C1509 C1507 1.433 . S
C1509 N1512 1.384 . S
C1510 H1501 0.929 . S
C1510 C1502 1.378 . S
C1510 C1505 1.350 . S
C1511 H1498 0.929 . S
C1511 C1503 1.433 . S
C1511 N1513 1.384 . S
N1512 C1508 1.427 . S
N1512 C1509 1.384 . S
N1513 C1505 1.427 . S
N1513 C1511 1.384 . S
H1514 C1520 0.930 . S
H1515 C1524 0.930 . S
H1516 C1529 0.929 . S
H1517 C1527 0.929 . S
H1518 C1522 0.929 . S
H1519 C1528 0.929 . S
C1520 H1514 0.930 . S
C1520 C1521 1.367 . S
C1520 C1528 1.378 . S
C1521 C1520 1.367 . S
C1521 C1529 1.433 . S
C1522 H1518 0.929 . S
C1522 C1524 1.378 1_455 S
C1522 C1526 1.350 . S
C1523 C1526 1.463 . S
C1523 C1528 1.350 . S
C1523 N1531 1.427 . S
C1524 H1515 0.930 . S
C1524 C1522 1.378 1_655 S
C1524 C1525 1.367 . S
C1525 C1524 1.367 . S
C1525 C1527 1.433 . S
C1526 C1522 1.350 . S
C1526 C1523 1.463 . S
C1526 N1530 1.427 . S
C1527 H1517 0.929 . S
C1527 C1525 1.433 . S
C1527 N1530 1.384 1_655 S
C1528 H1519 0.929 . S
C1528 C1520 1.378 . S
C1528 C1523 1.350 . S
C1529 H1516 0.929 . S
C1529 C1521 1.433 . S
C1529 N1531 1.384 . S
N1530 C1526 1.427 . S
N1530 C1527 1.384 1_455 S
N1531 C1523 1.427 . S
N1531 C1529 1.384 . S
H1532 C1538 0.930 . S
H1533 C1542 0.930 . S
H1534 C1547 0.929 . S
H1535 C1545 0.929 . S
H1536 C1540 0.929 . S
H1537 C1546 0.929 . S
C1538 H1532 0.930 . S
C1538 C1539 1.367 . S
C1538 C1546 1.378 . S
C1539 C1538 1.367 . S
C1539 C1547 1.433 . S
C1540 H1536 0.929 . S
C1540 C1542 1.378 . S
C1540 C1544 1.350 . S
C1541 C1544 1.463 . S
C1541 C1546 1.350 . S
C1541 N1549 1.427 . S
C1542 H1533 0.930 . S
C1542 C1540 1.378 . S
C1542 C1543 1.367 . S
C1543 C1542 1.367 . S
C1543 C1545 1.433 . S
C1544 C1540 1.350 . S
C1544 C1541 1.463 . S
C1544 N1548 1.427 . S
C1545 H1535 0.929 . S
C1545 C1543 1.433 . S
C1545 N1548 1.384 . S
C1546 H1537 0.929 . S
C1546 C1538 1.378 . S
C1546 C1541 1.350 . S
C1547 H1534 0.929 . S
C1547 C1539 1.433 . S
C1547 N1549 1.384 . S
N1548 C1544 1.427 . S
N1548 C1545 1.384 . S
N1549 C1541 1.427 . S
N1549 C1547 1.384 . S
H1550 C1556 0.930 . S
H1551 C1560 0.930 . S
H1552 C1565 0.929 . S
H1553 C1563 0.929 . S
H1554 C1558 0.929 . S
H1555 C1564 0.929 . S
C1556 H1550 0.930 . S
C1556 C1557 1.367 . S
C1556 C1564 1.378 . S
C1557 C1556 1.367 . S
C1557 C1565 1.433 . S
C1558 H1554 0.929 . S
C1558 C1560 1.378 . S
C1558 C1562 1.350 . S
C1559 C1562 1.463 . S
C1559 C1564 1.350 . S
C1559 N1567 1.427 . S
C1560 H1551 0.930 . S
C1560 C1558 1.378 . S
C1560 C1561 1.367 . S
C1561 C1560 1.367 . S
C1561 C1563 1.433 . S
C1562 C1558 1.350 . S
C1562 C1559 1.463 . S
C1562 N1566 1.427 . S
C1563 H1553 0.929 . S
C1563 C1561 1.433 . S
C1563 N1566 1.384 . S
C1564 H1555 0.929 . S
C1564 C1556 1.378 . S
C1564 C1559 1.350 . S
C1565 H1552 0.929 . S
C1565 C1557 1.433 . S
C1565 N1567 1.384 . S
N1566 C1562 1.427 . S
N1566 C1563 1.384 . S
N1567 C1559 1.427 . S
N1567 C1565 1.384 . S
C423 C62 1.503 . S
C427 C4 1.504 . S
C441 C69 1.503 . S
C445 C23 1.504 . S
C459 C82 1.504 . S
C463 C30 1.503 . S
C477 C49 1.503 . S
C481 C101 1.504 . S
C495 C108 1.504 . S
C499 C166 1.502 . S
C513 C179 1.504 . S
C517 C121 1.502 . S
C531 C140 1.503 . S
C535 C192 1.504 . S
C549 C199 1.504 . S
C553 C147 1.502 . S
C567 C218 1.504 . S
C571 C264 1.503 . S
C585 C283 1.503 . S
C589 C231 1.504 . S
C603 C296 1.504 . S
C607 C244 1.503 . S
C621 C309 1.503 . S
C625 C257 1.504 . S
C639 C322 1.504 . S
C643 C374 1.503 . S
C657 C335 1.503 . S
C661 C381 1.504 . S
C675 C342 1.503 . S
C679 C400 1.504 . S
C693 C355 1.502 . S
C697 C407 1.504 . S
C711 C10 1.513 . S
C715 C95 1.514 . S
C729 C17 1.515 . S
C733 C56 1.515 . S
C747 C36 1.515 . S
C751 C75 1.515 . S
C765 C88 1.515 . S
C769 C43 1.515 . S
C783 C205 1.515 . S
C787 C114 1.515 . S
C801 C160 1.514 . S
C805 C127 1.514 . S
C819 C173 1.515 . S
C823 C134 1.514 . S
C837 C153 1.513 . S
C841 C186 1.515 . S
C855 C303 1.514 . S
C859 C212 1.513 . S
C873 C270 1.514 . S
C877 C225 1.514 . S
C891 C277 1.514 . S
C895 C238 1.515 . S
C909 C251 1.514 . S
C913 C290 1.515 . S
C927 C316 1.513 . S
C931 C413 1.514 . S
C945 C329 1.514 . S
C949 C368 1.514 . S
C963 C348 1.513 . S
C967 C387 1.514 . S
C981 C394 1.515 . S
C985 C361 1.515 . S
C999 C5 1.495 . S
C1003 C330 1.496 . S
C1017 C16 1.494 . S
C1021 C135 1.496 . S
C1035 C31 1.496 . S
C1039 C354 1.494 . S
C1053 C107 1.495 . S
C1057 C42 1.495 . S
C1071 C406 1.495 . S
C1075 C55 1.495 . S
C1089 C70 1.495 . S
C1093 C161 1.495 . S
C1107 C83 1.494 . S
C1111 C380 1.496 . S
C1125 C94 1.495 . S
C1129 C187 1.495 . S
C1143 C226 1.494 . S
C1147 C109 1.496 . S
C1161 C29 1.495 . S
C1165 C122 1.495 . S
C1179 C252 1.494 . S
C1183 C133 1.496 . S
C1197 C148 1.496 . S
C1201 C3 1.495 . S
C1215 C304 1.496 . S
C1219 C159 1.495 . S
C1233 C57 1.495 . S
C1237 C172 1.495 . S
C1251 C278 1.495 . S
C1255 C185 1.495 . S
C1269 C81 1.495 . S
C1273 C200 1.496 . S
C1287 C120 1.496 . S
C1291 C211 1.494 . S
C1305 C224 1.496 . S
C1309 C341 1.494 . S
C1323 C237 1.495 . S
C1327 C146 1.495 . S
C1341 C250 1.496 . S
C1345 C317 1.495 . S
C1359 C265 1.495 . S
C1363 C198 1.495 . S
C1377 C369 1.494 . S
C1381 C276 1.496 . S
C1395 C289 1.496 . S
C1399 C174 1.494 . S
C1413 C302 1.496 . S
C1417 C395 1.495 . S
C1431 C315 1.495 . S
C1435 C18 1.495 . S
C1449 C328 1.496 . S
C1453 C239 1.494 . S
C1467 C44 1.495 . S
C1471 C343 1.495 . S
C1485 C213 1.495 . S
C1489 C356 1.495 . S
C1503 C367 1.495 . S
C1507 C96 1.495 . S
C1521 C382 1.495 . S
C1525 C263 1.495 . S
C1539 C68 1.495 . S
C1543 C393 1.496 . S
C1557 C291 1.495 . S
C1561 C408 1.495 . S
