# Generated by pormake.
# Topology wkf, (6)-cn, num edge types: 1
# Building blocks:
#     Node 0, Type 0, BuildingBlock: CUWYAW_clean_sbu_0, # of connection points: 6
#     Node 1, Type 0, BuildingBlock: CUWYAW_clean_sbu_0, # of connection points: 6
#     Node 2, Type 0, BuildingBlock: CUWYAW_clean_sbu_0, # of connection points: 6
#     Node 3, Type 0, BuildingBlock: CUWYAW_clean_sbu_0, # of connection points: 6
#     Node 4, Type 0, BuildingBlock: CUWYAW_clean_sbu_0, # of connection points: 6
#     Node 5, Type 0, BuildingBlock: CUWYAW_clean_sbu_0, # of connection points: 6
#     Node 6, Type 0, BuildingBlock: CUWYAW_clean_sbu_0, # of connection points: 6
#     Node 7, Type 0, BuildingBlock: CUWYAW_clean_sbu_0, # of connection points: 6
#     Node 8, Type 0, BuildingBlock: CUWYAW_clean_sbu_0, # of connection points: 6
#     Node 9, Type 0, BuildingBlock: CUWYAW_clean_sbu_0, # of connection points: 6
#     Node 10, Type 0, BuildingBlock: CUWYAW_clean_sbu_0, # of connection points: 6
#     Node 11, Type 0, BuildingBlock: CUWYAW_clean_sbu_0, # of connection points: 6
#     Edge 12, Type (0, 0), BuildingBlock: XUDNAN_clean_linker_2, # of connection points: 2
#     Edge 13, Type (0, 0), BuildingBlock: XUDNAN_clean_linker_2, # of connection points: 2
#     Edge 14, Type (0, 0), BuildingBlock: XUDNAN_clean_linker_2, # of connection points: 2
#     Edge 15, Type (0, 0), BuildingBlock: XUDNAN_clean_linker_2, # of connection points: 2
#     Edge 16, Type (0, 0), BuildingBlock: XUDNAN_clean_linker_2, # of connection points: 2
#     Edge 17, Type (0, 0), BuildingBlock: XUDNAN_clean_linker_2, # of connection points: 2
#     Edge 18, Type (0, 0), BuildingBlock: XUDNAN_clean_linker_2, # of connection points: 2
#     Edge 19, Type (0, 0), BuildingBlock: XUDNAN_clean_linker_2, # of connection points: 2
#     Edge 20, Type (0, 0), BuildingBlock: XUDNAN_clean_linker_2, # of connection points: 2
#     Edge 21, Type (0, 0), BuildingBlock: XUDNAN_clean_linker_2, # of connection points: 2
#     Edge 22, Type (0, 0), BuildingBlock: XUDNAN_clean_linker_2, # of connection points: 2
#     Edge 23, Type (0, 0), BuildingBlock: XUDNAN_clean_linker_2, # of connection points: 2
#     Edge 24, Type (0, 0), BuildingBlock: XUDNAN_clean_linker_2, # of connection points: 2
#     Edge 25, Type (0, 0), BuildingBlock: XUDNAN_clean_linker_2, # of connection points: 2
#     Edge 26, Type (0, 0), BuildingBlock: XUDNAN_clean_linker_2, # of connection points: 2
#     Edge 27, Type (0, 0), BuildingBlock: XUDNAN_clean_linker_2, # of connection points: 2
#     Edge 28, Type (0, 0), BuildingBlock: XUDNAN_clean_linker_2, # of connection points: 2
#     Edge 29, Type (0, 0), BuildingBlock: XUDNAN_clean_linker_2, # of connection points: 2
#     Edge 30, Type (0, 0), BuildingBlock: XUDNAN_clean_linker_2, # of connection points: 2
#     Edge 31, Type (0, 0), BuildingBlock: XUDNAN_clean_linker_2, # of connection points: 2
#     Edge 32, Type (0, 0), BuildingBlock: XUDNAN_clean_linker_2, # of connection points: 2
#     Edge 33, Type (0, 0), BuildingBlock: XUDNAN_clean_linker_2, # of connection points: 2
#     Edge 34, Type (0, 0), BuildingBlock: XUDNAN_clean_linker_2, # of connection points: 2
#     Edge 35, Type (0, 0), BuildingBlock: XUDNAN_clean_linker_2, # of connection points: 2
#     Edge 36, Type (0, 0), BuildingBlock: XUDNAN_clean_linker_2, # of connection points: 2
#     Edge 37, Type (0, 0), BuildingBlock: XUDNAN_clean_linker_2, # of connection points: 2
#     Edge 38, Type (0, 0), BuildingBlock: XUDNAN_clean_linker_2, # of connection points: 2
#     Edge 39, Type (0, 0), BuildingBlock: XUDNAN_clean_linker_2, # of connection points: 2
#     Edge 40, Type (0, 0), BuildingBlock: XUDNAN_clean_linker_2, # of connection points: 2
#     Edge 41, Type (0, 0), BuildingBlock: XUDNAN_clean_linker_2, # of connection points: 2
#     Edge 42, Type (0, 0), BuildingBlock: XUDNAN_clean_linker_2, # of connection points: 2
#     Edge 43, Type (0, 0), BuildingBlock: XUDNAN_clean_linker_2, # of connection points: 2
#     Edge 44, Type (0, 0), BuildingBlock: XUDNAN_clean_linker_2, # of connection points: 2
#     Edge 45, Type (0, 0), BuildingBlock: XUDNAN_clean_linker_2, # of connection points: 2
#     Edge 46, Type (0, 0), BuildingBlock: XUDNAN_clean_linker_2, # of connection points: 2
#     Edge 47, Type (0, 0), BuildingBlock: XUDNAN_clean_linker_2, # of connection points: 2
# Relax obj value: 0.308
# Max RMSD: 0.277
# Mean RMSD: 0.269
data_MOF--net-wkf--node1-CUWYAW_clean_sbu_0--edge1-XUDNAN_clean_linker_2
_symmetry_space_group_name_H-M    P1
_symmetry_Int_Tables_number       1
_symmetry_cell_setting            triclinic
loop_
_symmetry_equiv_pos_as_xyz
'x, y, z'
_cell_length_a     27.918044
_cell_length_b     27.736474
_cell_length_c     95.084434
_cell_angle_alpha  89.847545
_cell_angle_beta   90.093262
_cell_angle_gamma 119.09559
loop_
_atom_site_label
_atom_site_type_symbol
_atom_site_fract_x
_atom_site_fract_y
_atom_site_fract_z
_atom_type_partial_charge
C0 C 0.35822 0.91112 0.3668 0.0
Eu1 Eu 0.43326 0.95116 0.38642 0.0
C2 C 0.31831 0.88851 0.35486 0.0
C3 C 0.33654 0.88194 0.34159 0.0
C4 C 0.30095 0.86297 0.33004 0.0
C5 C 0.24567 0.84991 0.33128 0.0
C6 C 0.22728 0.85695 0.34454 0.0
C7 C 0.26313 0.87576 0.35621 0.0
C8 C 0.5075 0.0608 0.38266 0.0
C9 C 0.50925 0.88883 0.38438 0.0
C10 C 0.61276 1.04113 0.41974 0.0
Eu11 Eu 0.52548 0.98423 0.40469 0.0
C12 C 0.63524 0.09632 0.42607 0.0
C13 C 0.61883 0.10209 0.4396 0.0
C14 C 0.6333 0.15409 0.44489 0.0
C15 C 0.66441 0.20186 0.43677 0.0
C16 C 0.68365 0.19597 0.42354 0.0
C17 C 0.66925 0.14383 0.41827 0.0
C18 C 0.43782 0.88644 0.41375 0.0
C19 C 0.4373 1.02267 0.41316 0.0
O20 O 0.34525 0.91006 0.38011 0.0
O21 O 0.41078 0.93225 0.36451 0.0
O22 O 0.45494 1.03912 0.38226 0.0
O23 O 0.52038 1.02256 0.3843 0.0
O24 O 0.45954 0.88378 0.38318 0.0
O25 O 0.54787 0.93302 0.39054 0.0
O26 O 0.61363 1.03925 0.406 0.0
O27 O 0.56633 1.00334 0.42498 0.0
O28 O 0.48859 0.89743 0.41409 0.0
O29 O 0.43597 0.92728 0.40851 0.0
O30 O 0.48984 1.03704 0.41291 0.0
O31 O 0.40231 0.98221 0.40484 0.0
H32 H 0.37873 0.89164 0.34005 0.0
H33 H 0.31712 0.859 0.32002 0.0
H34 H 0.18499 0.84703 0.34595 0.0
H35 H 0.24777 0.88075 0.36624 0.0
H36 H 0.59331 0.06627 0.446 0.0
H37 H 0.61852 0.1561 0.45523 0.0
H38 H 0.71019 0.23147 0.41721 0.0
H39 H 0.68382 0.14079 0.40793 0.0
C40 C 0.51193 0.30346 0.53936 0.0
Eu41 Eu 0.53929 0.39322 0.55421 0.0
C42 C 0.48453 0.27334 0.52619 0.0
C43 C 0.49224 0.30079 0.51321 0.0
C44 C 0.47267 0.27088 0.50061 0.0
C45 C 0.44485 0.21264 0.50061 0.0
C46 C 0.43599 0.18552 0.5137 0.0
C47 C 0.45554 0.21542 0.52626 0.0
C48 C 0.49798 0.46044 0.54516 0.0
C49 C 0.67418 0.475 0.54982 0.0
C50 C 0.61233 0.5914 0.57838 0.0
Eu51 Eu 0.59288 0.49744 0.56776 0.0
C52 C 0.57473 0.6108 0.58304 0.0
C53 C 0.59162 0.65141 0.5934 0.0
C54 C 0.55384 0.66447 0.59936 0.0
C55 C 0.49875 0.63719 0.59498 0.0
C56 C 0.48228 0.59813 0.58419 0.0
C57 C 0.52 0.58446 0.57839 0.0
C58 C 0.61822 0.42486 0.5813 0.0
C59 C 0.47734 0.40685 0.58048 0.0
O60 O 0.55771 0.3497 0.53793 0.0
O61 O 0.48223 0.30532 0.54975 0.0
O62 O 0.47024 0.40778 0.54675 0.0
O63 O 0.54863 0.47576 0.54721 0.0
O64 O 0.6321 0.42399 0.55022 0.0
O65 O 0.66669 0.51574 0.55428 0.0
O66 O 0.61328 0.58331 0.56487 0.0
O67 O 0.61053 0.55115 0.58589 0.0
O68 O 0.65187 0.47681 0.57914 0.0
O69 O 0.57205 0.41281 0.57606 0.0
O70 O 0.50674 0.45886 0.57667 0.0
O71 O 0.48792 0.36976 0.5745 0.0
H72 H 0.51463 0.34544 0.51275 0.0
H73 H 0.4798 0.29355 0.49085 0.0
H74 H 0.4157 0.14093 0.51425 0.0
H75 H 0.44965 0.19306 0.53604 0.0
H76 H 0.63348 0.6716 0.59722 0.0
H77 H 0.56736 0.69518 0.60762 0.0
H78 H 0.43998 0.57655 0.58073 0.0
H79 H 0.50594 0.55183 0.57069 0.0
C80 C 0.22836 0.47665 0.70298 0.0
Eu81 Eu 0.1789 0.50822 0.72099 0.0
C82 C 0.25612 0.46228 0.69157 0.0
C83 C 0.27496 0.42402 0.69355 0.0
C84 C 0.29736 0.40866 0.68223 0.0
C85 C 0.3018 0.43146 0.66867 0.0
C86 C 0.28353 0.47029 0.66687 0.0
C87 C 0.26121 0.48539 0.67809 0.0
C88 C 1.06895 0.46429 0.71482 0.0
C89 C 0.23728 0.64613 0.71785 0.0
C90 C 1.06662 0.6071 0.73959 0.0
Eu91 Eu 0.13018 0.56491 0.73536 0.0
C92 C 1.00699 0.58262 0.73782 0.0
C93 C 0.97098 0.53461 0.74518 0.0
C94 C 0.9148 0.50988 0.74282 0.0
C95 C 0.89325 0.53211 0.73292 0.0
C96 C 0.9296 0.57901 0.72519 0.0
C97 C 0.98594 0.60423 0.72769 0.0
C98 C 0.21081 0.56488 0.75137 0.0
C99 C 0.10275 0.44778 0.7475 0.0
O100 O 0.23039 0.46842 0.71658 0.0
O101 O 0.20037 0.50153 0.69966 0.0
O102 O 0.09383 0.43622 0.71708 0.0
O103 O 0.10362 0.51555 0.71568 0.0
O104 O 0.23852 0.59994 0.71476 0.0
O105 O 0.19813 0.64357 0.72599 0.0
O106 O 0.09369 0.6139 0.72791 0.0
O107 O 0.0839 0.58762 0.74978 0.0
O108 O 0.1667 0.56302 0.75634 0.0
O109 O 0.21337 0.57147 0.73808 0.0
O110 O 0.08038 0.47854 0.74393 0.0
O111 O 0.14862 0.45558 0.74115 0.0
H112 H 0.27155 0.40528 0.70377 0.0
H113 H 0.31142 0.37908 0.68414 0.0
H114 H 0.28516 0.48833 0.65665 0.0
H115 H 0.24718 0.51495 0.67608 0.0
H116 H 0.98599 0.51618 0.75284 0.0
H117 H 0.88825 0.47462 0.74924 0.0
H118 H 0.91442 0.59693 0.71743 0.0
H119 H 1.01316 0.64053 0.72166 0.0
C120 C 0.8141 0.21827 0.87461 0.0
Eu121 Eu 0.72182 0.15617 0.88833 0.0
C122 C 0.84108 0.23084 0.86042 0.0
C123 C 0.86372 0.19956 0.85472 0.0
C124 C 0.89399 0.21568 0.8421 0.0
C125 C 0.90289 0.26378 0.83481 0.0
C126 C 0.87935 0.29441 0.84045 0.0
C127 C 0.84918 0.27831 0.85303 0.0
C128 C 0.6534 1.051 0.87851 0.0
C129 C 0.639 0.20862 0.88164 0.0
C130 C 0.5245 1.04554 0.91292 0.0
Eu131 Eu 0.61811 0.11093 0.90122 0.0
C132 C 0.51132 1.02424 0.92732 0.0
C133 C 0.53986 0.05768 0.93883 0.0
C134 C 0.52987 1.03578 0.95242 0.0
C135 C 0.49244 0.97978 0.95464 0.0
C136 C 0.4635 0.94676 0.94307 0.0
C137 C 0.47292 0.96884 0.92953 0.0
C138 C 0.69204 0.20522 0.91529 0.0
C139 C 0.70606 0.08093 0.91547 0.0
O140 O 0.77593 0.2316 0.87676 0.0
O141 O 0.80322 0.1724 0.88103 0.0
O142 O 0.70555 0.07318 0.88023 0.0
O143 O 0.63901 0.0878 0.88059 0.0
O144 O 0.69005 0.21783 0.88308 0.0
O145 O 0.59896 0.16003 0.88536 0.0
O146 O 0.55219 1.02767 0.90561 0.0
O147 O 0.54311 0.0984 0.91138 0.0
O148 O 0.64116 0.19033 0.91288 0.0
O149 O 0.70238 0.16934 0.91018 0.0
O150 O 0.65391 0.06472 0.9131 0.0
O151 O 0.744 0.12411 0.90839 0.0
H152 H 0.85894 0.16307 0.86013 0.0
H153 H 0.91063 0.19039 0.8381 0.0
H154 H 0.88575 0.33211 0.8354 0.0
H155 H 0.83332 0.3041 0.85719 0.0
H156 H 0.57045 0.10052 0.93733 0.0
H157 H 0.55239 0.06233 0.96111 0.0
H158 H 0.43307 0.90382 0.94447 0.0
H159 H 0.45079 0.94245 0.92076 0.0
C160 C 0.63051 0.77194 1.03817 0.0
Eu161 Eu 0.60783 0.68802 0.05472 0.0
C162 C 0.66168 0.81292 1.02699 0.0
C163 C 0.65422 0.85921 1.02552 0.0
C164 C 0.67246 0.89248 1.01344 0.0
C165 C 0.69912 0.88065 1.00252 0.0
C166 C 0.70929 0.83595 1.00435 0.0
C167 C 0.6903 0.8021 1.01639 0.0
C168 C 0.64605 0.61751 1.04674 0.0
C169 C 0.47312 0.60683 0.05186 0.0
C170 C 0.52029 0.49108 0.08255 0.0
Eu171 Eu 0.55558 0.58539 0.0704 0.0
C172 C 0.545 0.48179 0.09527 0.0
C173 C 0.5458 0.50776 0.10805 0.0
C174 C 0.58045 0.51039 0.11898 0.0
C175 C 0.61573 0.48816 0.11723 0.0
C176 C 0.61272 0.45976 0.10473 0.0
C177 C 0.57753 0.45634 0.09392 0.0
C178 C 0.56455 0.67257 0.08589 0.0
C179 C 0.67817 0.67096 0.07878 0.0
O180 O 0.64792 0.77839 0.05124 0.0
O181 O 0.60249 0.72021 1.03438 0.0
O182 O 0.67477 0.67046 1.04753 0.0
O183 O 0.59593 0.60296 1.04937 0.0
O184 O 0.5158 0.65698 1.05061 0.0
O185 O 0.47955 0.56763 0.05788 0.0
O186 O 0.55186 0.50536 0.07144 0.0
O187 O 0.49597 0.5209 0.08409 0.0
O188 O 0.57358 0.63404 0.09064 0.0
O189 O 0.55078 0.66378 0.07305 0.0
O190 O 0.64368 0.61843 0.0766 0.0
O191 O 0.66912 0.7098 0.0731 0.0
H192 H 0.63165 0.8681 1.03341 0.0
H193 H 0.66446 0.92686 1.0125 0.0
H194 H 0.72944 0.82543 0.99614 0.0
H195 H 0.69588 0.76617 1.01714 0.0
H196 H 0.5214 0.52807 0.10945 0.0
H197 H 0.58056 0.53097 0.12865 0.0
H198 H 0.6376 0.43999 0.10329 0.0
H199 H 0.57781 0.43615 0.0842 0.0
C200 C 0.93196 0.61378 0.20113 0.0
Eu201 Eu 0.9751 0.57614 0.21981 0.0
C202 C 0.89436 0.60935 0.18944 0.0
C203 C 0.88269 0.6527 0.18721 0.0
C204 C 0.85915 0.65718 0.17453 0.0
C205 C 0.84676 0.61841 0.16366 0.0
C206 C 0.85503 0.57287 0.16634 0.0
C207 C 0.87878 0.56856 0.17901 0.0
C208 C 0.08538 0.61504 0.21582 0.0
C209 C 0.9222 0.43879 0.21891 0.0
C210 C 0.07638 0.49628 0.25395 0.0
Eu211 Eu 1.01575 0.52266 0.23851 0.0
C212 C 0.12986 0.52981 0.2605 0.0
C213 C 0.14053 0.51463 0.27368 0.0
C214 C 0.18765 0.55067 0.28104 0.0
C215 C 0.22463 0.60236 0.27529 0.0
C216 C 0.21504 0.61623 0.26177 0.0
C217 C 0.16757 0.58052 0.25451 0.0
C218 C 0.9174 0.51232 0.24776 0.0
C219 C 1.04791 0.64744 0.24612 0.0
O220 O 0.91636 0.60581 0.21432 0.0
O221 O 0.96916 0.5995 0.1984 0.0
O222 O 1.06062 0.64394 0.21566 0.0
O223 O 1.04996 0.56387 0.2177 0.0
O224 O 0.91407 0.48156 0.21633 0.0
O225 O 0.96735 0.44759 0.22533 0.0
O226 O 0.07564 0.49398 0.24021 0.0
O227 O 1.03754 0.50442 0.25903 0.0
O228 O 0.93062 0.47357 0.2485 0.0
O229 O 0.95648 0.55393 0.24214 0.0
O230 O 1.06489 0.6107 0.24577 0.0
O231 O 1.00609 0.64032 0.23792 0.0
H232 H 0.89493 0.68517 0.19496 0.0
H233 H 0.85381 0.69295 0.17293 0.0
H234 H 0.84484 0.54133 0.15842 0.0
H235 H 0.8874 0.53473 0.18036 0.0
H236 H 0.11149 0.47581 0.27847 0.0
H237 H 0.19472 0.53842 0.29132 0.0
H238 H 0.24293 0.65565 0.25706 0.0
H239 H 0.15929 0.59347 0.24448 0.0
C240 C 0.24473 0.78094 0.54241 0.0
Eu241 Eu 0.18275 0.69259 0.52731 0.0
C242 C 0.2531 0.80718 0.55649 0.0
C243 C 0.28291 0.86493 0.5575 0.0
C244 C 0.29686 0.89106 0.57066 0.0
C245 C 0.2813 0.86012 0.58322 0.0
C246 C 0.25033 0.80211 0.58216 0.0
C247 C 0.23655 0.77596 0.56896 0.0
C248 C 0.07782 0.61947 0.53566 0.0
C249 C 0.23738 0.60804 0.52876 0.0
C250 C 1.07206 0.51181 0.49523 0.0
Eu251 Eu 0.13928 0.59516 0.51023 0.0
C252 C 1.01868 0.50126 0.48975 0.0
C253 C 1.00435 0.48411 0.47582 0.0
C254 C 0.95614 0.47943 0.47014 0.0
C255 C 0.92188 0.49223 0.47831 0.0
C256 C 0.93669 0.51023 0.49218 0.0
C257 C 0.98497 0.51516 0.4978 0.0
C258 C 0.23276 0.68048 0.49842 0.0
C259 C 0.10165 0.68417 0.50297 0.0
O260 O 0.25195 0.73801 0.54142 0.0
O261 O 0.20428 0.77619 0.53455 0.0
O262 O 0.10136 0.67232 0.5369 0.0
O263 O 0.11379 0.60595 0.53191 0.0
O264 O 0.24373 0.65847 0.53037 0.0
O265 O 0.19258 0.56992 0.52267 0.0
O266 O 0.07599 0.5088 0.5089 0.0
O267 O 0.11356 0.55523 0.48984 0.0
O268 O 0.2219 0.62939 0.49894 0.0
O269 O 0.19476 0.68398 0.50466 0.0
O270 O 0.08438 0.63136 0.50476 0.0
O271 O 0.14853 0.72039 0.5089 0.0
H272 H 0.29652 0.88998 0.54806 0.0
H273 H 0.31993 0.93568 0.57097 0.0
H274 H 0.23799 0.77671 0.59155 0.0
H275 H 0.21398 0.73132 0.56851 0.0
H276 H 1.03049 0.47452 0.46934 0.0
H277 H 0.94475 0.46416 0.45951 0.0
H278 H 0.91042 0.51947 0.49871 0.0
H279 H 0.99614 0.53027 0.5084 0.0
C280 C 0.51127 0.21882 0.70816 0.0
Eu281 Eu 0.53529 0.15628 0.69245 0.0
C282 C 0.47751 0.22865 0.71863 0.0
C283 C 0.44324 0.18786 0.72829 0.0
C284 C 0.4216 0.2019 0.73999 0.0
C285 C 0.43481 0.25711 0.74238 0.0
C286 C 0.46697 0.29711 0.73233 0.0
C287 C 0.48774 0.28297 0.72058 0.0
C288 C 0.4929 1.0473 0.70029 0.0
C289 C 0.67153 0.20818 0.69513 0.0
C290 C 0.61656 1.03111 0.6696 0.0
Eu291 Eu 0.58752 0.10192 0.67764 0.0
C292 C 0.57976 0.97741 0.66296 0.0
C293 C 0.56878 0.97437 0.64848 0.0
C294 C 0.52673 0.92629 0.64264 0.0
C295 C 0.49413 0.88026 0.65116 0.0
C296 C 0.50585 0.88298 0.66561 0.0
C297 C 0.54875 0.93064 0.67138 0.0
C298 C 0.58373 0.18132 0.66145 0.0
C299 C 0.46755 0.07348 0.66775 0.0
O300 O 0.49682 0.2092 0.69487 0.0
O301 O 0.53747 0.19338 0.7126 0.0
O302 O 0.46517 0.07307 0.69904 0.0
O303 O 0.54343 0.08144 0.69817 0.0
O304 O 0.62727 0.21301 0.69775 0.0
O305 O 0.66683 0.16578 0.68782 0.0
O306 O 0.60544 1.03582 0.6827 0.0
O307 O 0.62748 0.07513 0.66221 0.0
O308 O 0.57634 0.1343 0.65681 0.0
O309 O 0.59469 0.18583 0.67453 0.0
O310 O 0.49985 0.05224 0.67038 0.0
O311 O 0.47724 0.12101 0.67355 0.0
H312 H 0.43538 0.14579 0.72715 0.0
H313 H 0.39727 0.17025 0.74759 0.0
H314 H 0.47774 0.33991 0.73383 0.0
H315 H 0.5146 0.31534 0.71343 0.0
H316 H 0.59193 1.00949 0.64165 0.0
H317 H 0.52054 0.92501 0.63138 0.0
H318 H 0.4819 0.84827 0.67248 0.0
H319 H 0.55663 0.93135 0.68254 0.0
C320 C 0.33306 0.48477 0.8707 0.0
Eu321 Eu 0.4241 0.51101 0.85675 0.0
C322 C 0.30573 0.46805 0.88476 0.0
C323 C 0.28491 0.41419 0.89012 0.0
C324 C 0.25501 0.39858 0.90279 0.0
C325 C 0.24488 0.43629 0.91043 0.0
C326 C 0.26647 0.4903 0.9051 0.0
C327 C 0.29623 0.50581 0.89247 0.0
C328 C 0.49195 0.47183 0.86658 0.0
C329 C 0.50765 0.64477 0.86259 0.0
C330 C 0.62174 0.58737 0.83248 0.0
Eu331 Eu 0.52817 0.56538 0.8436 0.0
C332 C 0.63632 0.57311 0.81885 0.0
C333 C 0.62072 0.58758 0.80614 0.0
C334 C 0.63099 0.56991 0.79335 0.0
C335 C 0.65614 0.5367 0.79304 0.0
C336 C 0.67236 0.5229 0.80575 0.0
C337 C 0.66268 0.54112 0.81854 0.0
C338 C 0.45559 0.58925 0.82957 0.0
C339 C 0.43618 0.44929 0.8298 0.0
O340 O 0.37391 0.53477 0.8695 0.0
O341 O 0.34077 0.44956 0.86329 0.0
O342 O 0.4397 0.44332 0.86497 0.0
O343 O 0.50655 0.52266 0.86435 0.0
O344 O 0.45647 0.60412 0.86132 0.0
O345 O 0.54758 0.6351 0.85889 0.0
O346 O 0.59452 0.54598 0.841 0.0
O347 O 0.60232 0.62168 0.83225 0.0
O348 O 0.50701 0.62326 0.83168 0.0
O349 O 0.44421 0.54308 0.83485 0.0
O350 O 0.48884 0.48332 0.83196 0.0
O351 O 0.39942 0.45692 0.8369 0.0
H352 H 0.29099 0.3838 0.88445 0.0
H353 H 0.23973 0.3568 0.90658 0.0
H354 H 0.25896 0.52042 0.91043 0.0
H355 H 0.31079 0.54735 0.88856 0.0
H356 H 0.59967 0.61166 0.80605 0.0
H357 H 0.61775 0.58083 0.78372 0.0
H358 H 0.69283 0.49827 0.80581 0.0
H359 H 0.67491 0.52941 0.82822 0.0
C360 C 0.92217 0.31073 1.04083 0.0
Eu361 Eu 0.96681 0.39678 1.02432 0.0
C362 C 0.8858 0.2678 0.05102 0.0
C363 C 0.89262 0.22147 0.05315 0.0
C364 C 0.86762 0.18578 0.06455 0.0
C365 C 0.8342 0.19481 0.07414 0.0
C366 C 0.82582 0.24041 0.07162 0.0
C367 C 0.8517 0.27669 0.0603 0.0
C368 C 0.07596 0.46371 1.03067 0.0
C369 C 0.90529 0.47312 1.02833 0.0
C370 C 1.06853 0.60627 1.0049 0.0
Eu371 Eu 1.01205 0.50088 1.00996 0.0
C372 C 0.12635 0.64714 1.00664 0.0
C373 C 0.14148 0.70295 1.00782 0.0
C374 C 0.19635 0.74219 1.0098 0.0
C375 C 0.23702 0.72614 1.01078 0.0
C376 C 0.22115 0.66969 1.00998 0.0
C377 C 0.1663 0.63057 1.00782 0.0
C378 C 0.9326 0.4203 0.99401 0.0
C379 C 1.04473 0.41515 0.99792 0.0
O380 O 0.91594 0.30594 1.0271 0.0
O381 O 0.94973 0.36168 1.04522 0.0
O382 O 1.05311 0.41169 1.02804 0.0
O383 O 1.04003 0.47936 1.02981 0.0
O384 O 0.90722 0.42772 1.03195 0.0
O385 O 0.94169 0.50826 1.01947 0.0
O386 O 1.04209 0.58576 1.01662 0.0
O387 O 1.05731 0.56862 0.99531 0.0
O388 O 0.97618 0.46221 0.98904 0.0
O389 O 0.92994 0.42427 1.00729 0.0
O390 O 1.06547 0.46745 1.00155 0.0
O391 O 0.99914 0.37703 1.00412 0.0
H392 H 0.91976 0.21438 1.04638 0.0
H393 H 0.87664 0.15237 0.06611 0.0
H394 H 0.79981 0.24869 0.07849 0.0
H395 H 0.84632 0.31259 0.05902 0.0
H396 H 0.11095 0.71626 1.00703 0.0
H397 H 0.20696 0.78528 1.00997 0.0
H398 H 0.25121 0.65579 1.01078 0.0
H399 H 0.15504 0.58736 1.00706 0.0
C400 C 0.65288 0.87562 0.2045 0.0
Eu401 Eu 0.6166 0.93564 0.1914 0.0
C402 C 0.66829 0.86359 0.21858 0.0
C403 C 0.69206 0.90381 0.22916 0.0
C404 C 0.70686 0.89066 0.24223 0.0
C405 C 0.69813 0.83694 0.24507 0.0
C406 C 0.6742 0.79702 0.23439 0.0
C407 C 0.65954 0.81018 0.22139 0.0
C408 C 0.6551 1.04338 0.20005 0.0
C409 C 0.48268 0.8827 0.19801 0.0
C410 C 0.53174 0.05411 0.16807 0.0
Eu411 Eu 0.55881 0.9835 0.17833 0.0
C412 C 0.56241 0.11342 0.16507 0.0
C413 C 0.53573 0.14489 0.1655 0.0
C414 C 0.56559 0.20209 0.16388 0.0
C415 C 0.62305 0.22907 0.16207 0.0
C416 C 0.649 0.19664 0.16112 0.0
C417 C 0.61901 0.13955 0.16263 0.0
C418 C 0.53432 0.88564 0.16532 0.0
C419 C 0.67253 1.00786 0.16453 0.0
O420 O 0.6012 0.85952 0.20226 0.0
O421 O 0.68458 0.92336 0.19867 0.0
O422 O 0.68417 1.0195 0.19819 0.0
O423 O 0.60454 1.00732 0.19876 0.0
O424 O 0.52739 0.87745 0.19886 0.0
O425 O 0.48578 0.92653 0.19175 0.0
O426 O 0.52734 1.04086 0.18138 0.0
O427 O 0.54366 1.02267 0.16028 0.0
O428 O 0.49976 0.90317 0.16777 0.0
O429 O 0.58093 0.92064 0.16988 0.0
O430 O 0.64444 1.03173 0.16888 0.0
O431 O 0.66109 0.95969 0.17021 0.0
H432 H 0.69917 0.94534 0.22733 0.0
H433 H 0.72451 0.92251 0.25017 0.0
H434 H 0.6675 0.75552 0.23596 0.0
H435 H 0.64156 0.77841 0.21342 0.0
H436 H 0.49188 0.1253 0.16725 0.0
H437 H 0.54322 0.22482 0.16399 0.0
H438 H 0.69277 0.21521 0.15965 0.0
H439 H 0.64042 0.11608 0.16218 0.0
C440 C 0.83045 0.63371 0.37395 0.0
Eu441 Eu 0.73768 0.6011 0.36017 0.0
C442 C 0.85405 0.64324 0.38835 0.0
C443 C 0.91089 0.66549 0.38998 0.0
C444 C 0.93477 0.67505 0.4034 0.0
C445 C 0.9024 0.66264 0.41563 0.0
C446 C 0.84519 0.64019 0.41394 0.0
C447 C 0.8213 0.63058 0.40046 0.0
C448 C 0.66406 0.63387 0.36896 0.0
C449 C 0.655 0.46463 0.36468 0.0
C450 C 0.54917 0.5263 0.33131 0.0
Eu451 Eu 0.63772 0.54509 0.34453 0.0
C452 C 0.53241 0.56706 0.32746 0.0
C453 C 0.49972 0.55923 0.31563 0.0
C454 C 0.48749 0.6004 0.31155 0.0
C455 C 0.50819 0.64997 0.31922 0.0
C456 C 0.54117 0.65779 0.33099 0.0
C457 C 0.55353 0.61678 0.33498 0.0
C458 C 0.72012 0.53177 0.33219 0.0
C459 C 0.72345 0.66678 0.33459 0.0
O460 O 0.79782 0.5828 0.37019 0.0
O461 O 0.8132 0.66696 0.36939 0.0
O462 O 0.7166 0.66387 0.36893 0.0
O463 O 0.65171 0.58424 0.36586 0.0
O464 O 0.70377 0.50895 0.3667 0.0
O465 O 0.61736 0.4693 0.3574 0.0
O466 O 0.55009 0.51735 0.3448 0.0
O467 O 0.59312 0.53277 0.32487 0.0
O468 O 0.66959 0.49307 0.3335 0.0
O469 O 0.72466 0.57483 0.33788 0.0
O470 O 0.67183 0.63414 0.3378 0.0
O471 O 0.76091 0.65684 0.34051 0.0
H472 H 0.93707 0.67573 0.38081 0.0
H473 H 0.97887 0.6931 0.40416 0.0
H474 H 0.81864 0.62936 0.42304 0.0
H475 H 0.77731 0.6132 0.39949 0.0
H476 H 0.48387 0.52154 0.30957 0.0
H477 H 0.4609 0.59305 0.30256 0.0
H478 H 0.55704 0.69535 0.33712 0.0
H479 H 0.57997 0.62406 0.3439 0.0
H480 H 0.13492 0.66741 0.26257 0.0
H481 H 1.01662 0.72389 0.2558 0.0
H482 H 1.05427 0.7853 0.27674 0.0
H483 H 0.11351 0.6562 0.29837 0.0
H484 H 0.18167 0.67468 0.30377 0.0
H485 H 0.15584 0.64093 0.28703 0.0
H486 H 0.23185 0.71978 0.27215 0.0
H487 H 0.26481 0.75072 0.28851 0.0
H488 H 0.24969 0.78998 0.27588 0.0
H489 H 0.10681 0.83834 0.30044 0.0
H490 H 0.16476 0.87401 0.32191 0.0
H491 H 0.24037 0.77373 0.31232 0.0
C492 C 0.11715 0.69333 0.26514 0.0
C493 C 0.07297 0.69098 0.25727 0.0
C494 C 1.05098 0.72533 0.26146 0.0
C495 C 1.07204 0.76015 0.27342 0.0
C496 C 0.11484 0.75988 0.28115 0.0
C497 C 0.13675 0.72702 0.27699 0.0
C498 C 0.17801 0.72839 0.28746 0.0
C499 C 0.15614 0.67163 0.29453 0.0
C500 C 0.23442 0.74834 0.28061 0.0
C501 C 0.1794 0.76984 0.29785 0.0
C502 C 0.14225 0.78738 0.29436 0.0
C503 C 0.136 0.82463 0.30306 0.0
C504 C 0.16893 0.84449 0.31532 0.0
C505 C 0.20798 0.82739 0.31879 0.0
C506 C 0.21219 0.78898 0.3099 0.0
H507 H 0.49767 0.23805 0.47475 0.0
H508 H 0.35206 0.11241 0.49564 0.0
H509 H 0.32772 0.05497 0.47427 0.0
H510 H 0.43344 0.21529 0.43863 0.0
H511 H 0.49656 0.22849 0.43026 0.0
H512 H 0.49826 0.26286 0.44647 0.0
H513 H 0.55817 0.22592 0.45777 0.0
H514 H 0.55597 0.19119 0.44166 0.0
H515 H 0.53363 0.15256 0.45793 0.0
H516 H 0.32304 1.00714 0.45086 0.0
H517 H 0.34286 0.9722 0.42888 0.0
H518 H 0.49218 0.12789 0.4236 0.0
C519 C 0.45974 0.19925 0.47476 0.0
C520 C 0.42705 0.18017 0.48708 0.0
C521 C 0.37852 0.12812 0.48654 0.0
C522 C 0.36389 0.09526 0.47433 0.0
C523 C 0.3976 0.11491 0.46251 0.0
C524 C 0.4443 0.16602 0.46261 0.0
C525 C 0.47588 0.17589 0.44895 0.0
C526 C 0.47602 0.22346 0.44059 0.0
C527 C 0.53447 0.18705 0.45177 0.0
C528 C 0.44183 0.12106 0.44153 0.0
C529 C 0.39569 0.08707 0.44928 0.0
C530 C 0.35882 1.03377 0.44468 0.0
C531 C 0.37019 1.01426 0.4321 0.0
C532 C 0.41877 1.04733 0.42442 0.0
C533 C 0.45435 0.10178 0.42914 0.0
H534 H 0.36586 0.4969 0.64687 0.0
H535 H 0.28925 0.32834 0.66222 0.0
H536 H 0.32289 0.30125 0.6412 0.0
H537 H 0.33376 0.46546 0.61076 0.0
H538 H 0.39777 0.5211 0.60455 0.0
H539 H 0.36996 0.52727 0.6211 0.0
H540 H 0.45965 0.54521 0.63431 0.0
H541 H 0.48784 0.54264 0.61743 0.0
H542 H 0.48611 0.49842 0.63156 0.0
H543 H 0.36732 0.2937 0.61757 0.0
H544 H 0.41749 0.30775 0.595 0.0
H545 H 0.45824 0.47993 0.59533 0.0
C546 C 0.35558 0.45409 0.64585 0.0
C547 C 0.32443 0.41489 0.65632 0.0
C548 C 0.31343 0.35958 0.65452 0.0
C549 C 0.33208 0.34364 0.64251 0.0
C550 C 0.36185 0.38335 0.63229 0.0
C551 C 0.37358 0.43752 0.63396 0.0
C552 C 0.40632 0.4728 0.62165 0.0
C553 C 0.3751 0.49817 0.61407 0.0
C554 C 0.46335 0.51746 0.62652 0.0
C555 C 0.41046 0.43015 0.61259 0.0
C556 C 0.38528 0.37874 0.61888 0.0
C557 C 0.38664 0.33382 0.61256 0.0
C558 C 0.41502 0.34206 0.59967 0.0
C559 C 0.44142 0.39473 0.59316 0.0
C560 C 0.4381 0.43881 0.59977 0.0
H561 H 1.00474 0.41864 0.76045 0.0
H562 H 0.1456 0.39248 0.76294 0.0
H563 H 0.10826 0.33903 0.78499 0.0
H564 H 0.99717 0.4411 0.79658 0.0
H565 H 0.92336 0.40712 0.79716 0.0
H566 H 0.9588 0.43873 0.78108 0.0
H567 H 0.90325 0.34623 0.76792 0.0
H568 H 0.86721 0.31428 0.78393 0.0
H569 H 0.90289 0.28503 0.77449 0.0
H570 H 1.05624 0.29222 0.80788 0.0
H571 H 0.99662 0.25754 0.82881 0.0
H572 H 0.89021 0.31532 0.81107 0.0
C573 C 1.02755 0.40098 0.76545 0.0
C574 C 0.07811 0.40947 0.75977 0.0
C575 C 0.1065 0.38596 0.76687 0.0
C576 C 0.08563 0.35573 0.77947 0.0
C577 C 1.03613 0.34911 0.78487 0.0
C578 C 1.00744 0.37099 0.77799 0.0
C579 C 0.95651 0.36045 0.78616 0.0
C580 C 0.95915 0.4151 0.7905 0.0
C581 C 0.90438 0.32434 0.77761 0.0
C582 C 0.96095 0.32956 0.79886 0.0
C583 C 1.00695 0.32311 0.79792 0.0
C584 C 1.01995 0.29675 0.80859 0.0
C585 C 0.98542 0.27677 0.82046 0.0
C586 C 0.93808 0.28314 0.82175 0.0
C587 C 0.92602 0.30987 0.81063 0.0
H588 H 0.6384 1.02467 0.93727 0.0
H589 H 0.80312 0.08002 0.92182 0.0
H590 H 0.82053 1.03426 0.94226 0.0
H591 H 0.67436 1.04453 0.97463 0.0
H592 H 0.60918 0.98608 0.97917 0.0
H593 H 0.61569 1.0258 0.96359 0.0
H594 H 0.57433 0.93299 0.94967 0.0
H595 H 0.57379 0.89518 0.96517 0.0
H596 H 0.61034 0.89386 0.94973 0.0
H597 H 0.81677 0.97743 0.96478 0.0
H598 H 0.79498 0.92329 0.98697 0.0
H599 H 0.63384 0.91013 0.98729 0.0
C600 C 0.6783 1.02726 0.93807 0.0
C601 C 0.71927 0.05557 0.92776 0.0
C602 C 0.77102 0.05848 0.9295 0.0
C603 C 0.78114 1.03247 0.94109 0.0
C604 C 0.73938 1.00442 0.95098 0.0
C605 C 0.68924 1.00253 0.94959 0.0
C606 C 0.65114 0.97119 0.96163 0.0
C607 C 0.63672 1.00911 0.97028 0.0
C608 C 0.59932 0.9203 0.95622 0.0
C609 C 0.68698 0.95473 0.97002 0.0
C610 C 0.73778 0.97395 0.96378 0.0
C611 C 0.77717 0.96271 0.96972 0.0
C612 C 0.76439 0.93173 0.98232 0.0
C613 C 0.71288 0.9128 0.98901 0.0
C614 C 0.67392 0.92461 0.98264 0.0
H615 H 0.77783 0.66121 0.15644 0.0
H616 H 0.87844 0.59798 0.13803 0.0
H617 H 0.85498 0.61612 0.11435 0.0
H618 H 0.67328 0.60355 0.13128 0.0
H619 H 0.65798 0.65943 0.13008 0.0
H620 H 0.68505 0.64777 0.14617 0.0
H621 H 0.76719 0.7456 0.14609 0.0
H622 H 0.74036 0.76082 0.13046 0.0
H623 H 0.8094 0.77139 0.1306 0.0
H624 H 0.8186 0.63835 0.09242 0.0
H625 H 0.76382 0.65329 0.0742 0.0
H626 H 0.68824 0.70415 0.10628 0.0
C627 C 0.79554 0.65178 0.14745 0.0
C628 C 0.83017 0.62798 0.14927 0.0
C629 C 0.85126 0.61537 0.13709 0.0
C630 C 0.83874 0.62626 0.12352 0.0
C631 C 0.80516 0.65022 0.12212 0.0
C632 C 0.7835 0.66252 0.13375 0.0
C633 C 0.74554 0.68474 0.12926 0.0
C634 C 0.68694 0.64668 0.13451 0.0
C635 C 0.76693 0.74418 0.13441 0.0
C636 C 0.74911 0.68279 0.11331 0.0
C637 C 0.78426 0.66329 0.10944 0.0
C638 C 0.79178 0.65462 0.09534 0.0
C639 C 0.76108 0.664 0.08501 0.0
C640 C 0.72348 0.68232 0.08872 0.0
C641 C 0.71849 0.69288 0.10305 0.0
H642 H 0.48561 0.07766 0.63972 0.0
H643 H 0.3578 1.00145 0.67097 0.0
H644 H 0.29428 0.9395 0.65262 0.0
H645 H 0.39479 0.07011 0.60992 0.0
H646 H 0.43597 0.05726 0.59748 0.0
H647 H 0.46713 0.09795 0.61296 0.0
H648 H 0.50535 1.03236 0.61932 0.0
H649 H 0.47241 0.99008 0.60421 0.0
H650 H 0.45847 0.95983 0.62153 0.0
H651 H 0.24777 0.88023 0.6308 0.0
H652 H 0.22057 0.83388 0.6077 0.0
H653 H 0.37997 0.95026 0.59081 0.0
C654 C 0.4435 1.0497 0.64255 0.0
C655 C 0.4258 1.04595 0.65663 0.0
C656 C 0.37138 1.00647 0.66014 0.0
C657 C 0.33533 0.97078 0.64979 0.0
C658 C 0.35438 0.97515 0.63598 0.0
C659 C 0.40708 1.01433 0.63235 0.0
C660 C 0.41865 1.0094 0.61698 0.0
C661 C 0.42976 0.06178 0.60884 0.0
C662 C 0.46656 0.99719 0.61542 0.0
C663 C 0.36473 0.96047 0.61253 0.0
C664 C 0.32807 0.94127 0.62361 0.0
C665 C 0.27614 0.89539 0.62206 0.0
C666 C 0.26116 0.86898 0.60888 0.0
C667 C 0.29781 0.88828 0.59729 0.0
C668 C 0.35038 0.93477 0.59929 0.0
H669 H 0.50501 0.33554 0.7604 0.0
H670 H 0.33295 0.21816 0.75501 0.0
H671 H 0.31164 0.25198 0.77712 0.0
H672 H 0.50649 0.3225 0.79864 0.0
H673 H 0.55705 0.39419 0.80031 0.0
H674 H 0.5541 0.35648 0.78455 0.0
H675 H 0.54642 0.43328 0.77013 0.0
H676 H 0.54439 0.4677 0.78599 0.0
H677 H 0.48951 0.44515 0.77347 0.0
H678 H 0.31136 0.30608 0.80019 0.0
H679 H 0.33282 0.36739 0.82105 0.0
H680 H 0.50567 0.44315 0.81073 0.0
C681 C 0.46275 0.31685 0.76385 0.0
C682 C 0.42059 0.27466 0.7559 0.0
C683 C 0.36595 0.25069 0.76093 0.0
C684 C 0.35353 0.26977 0.77347 0.0
C685 C 0.39637 0.31216 0.78102 0.0
C686 C 0.44991 0.33452 0.77637 0.0
C687 C 0.48914 0.37884 0.78617 0.0
C688 C 0.52916 0.3621 0.79281 0.0
C689 C 0.51923 0.43453 0.77847 0.0
C690 C 0.44996 0.3792 0.79703 0.0
C691 C 0.39636 0.34076 0.79402 0.0
C692 C 0.35344 0.33575 0.80262 0.0
C693 C 0.36595 0.37075 0.81448 0.0
C694 C 0.42099 0.40994 0.81773 0.0
C695 C 0.46308 0.41347 0.8088 0.0
H696 H 0.14301 0.48359 0.98532 0.0
H697 H 1.00337 0.31899 0.98232 0.0
H698 H 1.04158 0.30402 0.96024 0.0
H699 H 0.15088 0.51593 0.94946 0.0
H700 H 0.22467 0.55479 0.9489 0.0
H701 H 0.18909 0.55015 0.96504 0.0
H702 H 0.24524 0.51169 0.9779 0.0
H703 H 0.28144 0.51664 0.96182 0.0
H704 H 0.24622 0.45168 0.97101 0.0
H705 H 0.09356 0.31044 0.9373 0.0
H706 H 0.1527 0.33672 0.91623 0.0
H707 H 0.25795 0.49747 0.93457 0.0
C708 C 0.12074 0.44387 0.98021 0.0
C709 C 1.07024 0.40219 0.98572 0.0
C710 C 1.04245 0.35124 0.9785 0.0
C711 C 1.0638 0.34252 0.96589 0.0
C712 C 0.11319 0.38505 0.96063 0.0
C713 C 0.14137 0.43461 0.96767 0.0
C714 C 0.19212 0.47488 0.95959 0.0
C715 C 0.18897 0.527 0.95551 0.0
C716 C 0.24434 0.48957 0.96809 0.0
C717 C 0.18798 0.44073 0.94675 0.0
C718 C 0.14243 0.38889 0.94755 0.0
C719 C 0.12957 0.35076 0.93669 0.0
C720 C 0.16376 0.36605 0.92475 0.0
C721 C 0.21049 0.41925 0.9236 0.0
C722 C 0.22254 0.45665 0.93492 0.0
H723 H 0.71989 0.11278 0.15344 0.0
H724 H 0.6956 0.94866 0.14522 0.0
H725 H 0.73477 0.97859 0.12141 0.0
H726 H 0.68295 0.13714 0.11973 0.0
H727 H 0.73364 0.20919 0.11904 0.0
H728 H 0.70753 0.17622 0.13575 0.0
H729 H 0.80597 0.20616 0.14429 0.0
H730 H 0.83266 0.23984 0.12767 0.0
H731 H 0.84945 0.18854 0.134 0.0
H732 H 0.76786 1.02428 0.09756 0.0
H733 H 0.80167 0.08358 0.07663 0.0
H734 H 0.81003 0.22053 0.1007 0.0
C735 C 0.72356 0.08333 0.14672 0.0
C736 C 0.70474 1.02827 0.15127 0.0
C737 C 0.71039 0.99116 0.1421 0.0
C738 C 0.73218 1.00774 0.12849 0.0
C739 C 0.7488 0.06184 0.1242 0.0
C740 C 0.74564 0.09937 0.13314 0.0
C741 C 0.76567 0.15486 0.1259 0.0
C742 C 0.7197 0.17023 0.12506 0.0
C743 C 0.81647 0.20001 0.13341 0.0
C744 C 0.78003 0.14259 0.11141 0.0
C745 C 0.7696 0.0886 0.11063 0.0
C746 C 0.77728 0.06696 0.09817 0.0
C747 C 0.79703 0.10143 0.08628 0.0
C748 C 0.80995 0.15773 0.08682 0.0
C749 C 0.80067 0.178 0.09968 0.0
H750 H 0.65975 0.64261 0.31137 0.0
H751 H 0.81196 0.77068 0.32884 0.0
H752 H 0.82369 0.82926 0.30777 0.0
H753 H 0.70733 0.66316 0.27493 0.0
H754 H 0.64068 0.64633 0.26815 0.0
H755 H 0.64641 0.61585 0.28438 0.0
H756 H 0.589 0.65242 0.2969 0.0
H757 H 0.58336 0.68411 0.28091 0.0
H758 H 0.61084 0.72521 0.29658 0.0
H759 H 0.81375 0.87541 0.28462 0.0
H760 H 0.78825 0.9007 0.26192 0.0
H761 H 0.64333 0.73936 0.26007 0.0
C762 C 0.69576 0.68301 0.31081 0.0
C763 C 0.73464 0.70242 0.32188 0.0
C764 C 0.78159 0.75504 0.32053 0.0
C765 C 0.7884 0.78852 0.3086 0.0
C766 C 0.74854 0.76819 0.29796 0.0
C767 C 0.7037 0.71604 0.29893 0.0
C768 C 0.66691 0.70256 0.28615 0.0
C769 C 0.66526 0.65411 0.27791 0.0
C770 C 0.60908 0.69042 0.29039 0.0
C771 C 0.69652 0.75597 0.27794 0.0
C772 C 0.74373 0.79345 0.28482 0.0
C773 C 0.77697 0.846 0.2792 0.0
C774 C 0.76181 0.86022 0.2663 0.0
C775 C 0.71368 0.82219 0.25901 0.0
C776 C 0.68085 0.7694 0.26509 0.0
H777 H 0.1093 0.66845 0.47525 0.0
H778 H 1.03061 0.72612 0.50475 0.0
H779 H 0.97248 0.73018 0.48542 0.0
H780 H 0.10798 0.75121 0.44458 0.0
H781 H 0.09522 0.69649 0.43242 0.0
H782 H 0.13349 0.70405 0.44832 0.0
H783 H 1.06511 0.60273 0.45506 0.0
H784 H 1.02635 0.59512 0.43927 0.0
H785 H 0.99314 0.58145 0.45616 0.0
H786 H 0.91726 0.71938 0.46284 0.0
H787 H 0.87437 0.70088 0.4393 0.0
H788 H 0.98975 0.64939 0.42472 0.0
C789 C 0.08128 0.68402 0.4775 0.0
C790 C 0.0757 0.69895 0.49137 0.0
C791 C 1.03683 0.71651 0.4941 0.0
C792 C 1.00336 0.71836 0.48319 0.0
C793 C 1.00937 0.70254 0.46962 0.0
C794 C 1.04805 0.68646 0.46675 0.0
C795 C 1.04504 0.66909 0.4515 0.0
C796 C 0.09861 0.7075 0.44375 0.0
C797 C 1.03166 0.6085 0.45044 0.0
C798 C 0.99778 0.67667 0.44623 0.0
C799 C 0.97777 0.6961 0.45681 0.0
C800 C 0.933 0.70454 0.4545 0.0
C801 C 0.90849 0.69336 0.44107 0.0
C802 C 0.92841 0.67366 0.42999 0.0
C803 C 0.9738 0.66528 0.43277 0.0
H804 H 0.69609 0.74263 0.37359 0.0
H805 H 0.54872 0.58425 0.37009 0.0
H806 H 0.49257 0.6314 0.3726 0.0
H807 H 0.64567 0.7999 0.40001 0.0
H808 H 0.68212 0.86873 0.39285 0.0
H809 H 0.70887 0.82185 0.39055 0.0
H810 H 0.71092 0.83609 0.3636 0.0
H811 H 0.68366 0.88262 0.36579 0.0
H812 H 0.64896 0.82314 0.35457 0.0
H813 H 0.45263 0.70101 0.37483 0.0
H814 H 0.43467 0.77924 0.37872 0.0
H815 H 0.6094 0.89045 0.38189 0.0
C816 C 0.65191 0.71736 0.37343 0.0
C817 C 0.62721 0.65917 0.37151 0.0
C818 C 0.56909 0.62855 0.37151 0.0
C819 C 0.53683 0.65531 0.37286 0.0
C820 C 0.5629 0.71297 0.37448 0.0
C821 C 0.61939 0.74326 0.37495 0.0
C822 C 0.63835 0.80436 0.37714 0.0
C823 C 0.67066 0.82491 0.39096 0.0
C824 C 0.67249 0.83857 0.36452 0.0
C825 C 0.58393 0.80445 0.37793 0.0
C826 C 0.54066 0.75154 0.37619 0.0
C827 C 0.4866 0.74223 0.37628 0.0
C828 C 0.47668 0.78729 0.37843 0.0
C829 C 0.52032 0.84177 0.38065 0.0
C830 C 0.5747 0.84977 0.38027 0.0
H831 H 0.77228 0.5751 0.54767 0.0
H832 H 0.70827 0.39855 0.54413 0.0
H833 H 0.80225 0.4138 0.54016 0.0
H834 H 0.8784 0.61357 0.52051 0.0
H835 H 0.9269 0.67459 0.52976 0.0
H836 H 0.85442 0.64925 0.53189 0.0
H837 H 0.86498 0.64512 0.55886 0.0
H838 H 0.93737 0.67006 0.55679 0.0
H839 H 0.89559 0.60606 0.56593 0.0
H840 H 0.90899 0.45044 0.53745 0.0
H841 H 1.0108 0.50384 0.53527 0.0
H842 H 1.00343 0.65538 0.54005 0.0
C843 C 0.77771 0.53946 0.54593 0.0
C844 C 0.73167 0.48531 0.54623 0.0
C845 C 0.74186 0.44042 0.54393 0.0
C846 C 0.79563 0.44878 0.54169 0.0
C847 C 0.84 0.50252 0.54164 0.0
C848 C 0.83125 0.54713 0.54357 0.0
C849 C 0.88555 0.60085 0.54302 0.0
C850 C 0.88635 0.63668 0.53055 0.0
C851 C 0.8965 0.63237 0.55698 0.0
C852 C 0.92634 0.57983 0.54077 0.0
C853 C 0.89965 0.52299 0.53996 0.0
C854 C 0.9298 0.49501 0.53804 0.0
C855 C 0.98796 0.52569 0.53684 0.0
C856 C 1.01612 0.58415 0.53745 0.0
C857 C 0.98401 0.61084 0.53952 0.0
H858 H 0.38335 0.97542 0.70448 0.0
H859 H 0.53972 0.97854 0.70255 0.0
H860 H 0.49191 0.87651 0.70528 0.0
H861 H 0.32591 0.87142 0.73171 0.0
H862 H 0.25736 0.84067 0.72467 0.0
H863 H 0.30414 0.91284 0.72178 0.0
H864 H 0.28941 0.89818 0.69491 0.0
H865 H 0.24285 0.82585 0.6977 0.0
H866 H 0.30158 0.84712 0.68642 0.0
H867 H 0.42306 0.7701 0.70752 0.0
H868 H 0.34531 0.67634 0.71195 0.0
H869 H 0.2353 0.74473 0.71468 0.0
C870 C 0.40784 0.95485 0.70463 0.0
C871 C 0.46578 0.98566 0.7029 0.0
C872 C 0.49557 0.95642 0.70341 0.0
C873 C 0.46849 0.89818 0.70505 0.0
C874 C 0.41125 0.86914 0.70647 0.0
C875 C 0.38154 0.897 0.70654 0.0
C876 C 0.32083 0.85715 0.70895 0.0
C877 C 0.3009 0.87137 0.72259 0.0
C878 C 0.28665 0.85708 0.69624 0.0
C879 C 0.32055 0.80225 0.71027 0.0
C880 C 0.37293 0.8097 0.70857 0.0
C881 C 0.38219 0.76439 0.70897 0.0
C882 C 0.33748 0.7109 0.71142 0.0
C883 C 0.28366 0.70238 0.71372 0.0
C884 C 0.27565 0.74925 0.71304 0.0
H885 H 0.45622 0.36166 0.87129 0.0
H886 H 0.60654 0.51746 0.8676 0.0
H887 H 0.66005 0.46767 0.87013 0.0
H888 H 0.50511 0.30091 0.89763 0.0
H889 H 0.46707 0.23232 0.89048 0.0
H890 H 0.44187 0.2806 0.88831 0.0
H891 H 0.43856 0.26677 0.86136 0.0
H892 H 0.46418 0.21878 0.86343 0.0
H893 H 0.49969 0.27824 0.85218 0.0
H894 H 0.69727 0.397 0.87268 0.0
H895 H 0.7137 0.31792 0.87638 0.0
H896 H 0.53843 0.20815 0.8791 0.0
C897 C 0.50051 0.38573 0.87108 0.0
C898 C 0.52681 0.44415 0.86914 0.0
C899 C 0.58494 0.47313 0.86898 0.0
C900 C 0.61573 0.44486 0.87041 0.0
C901 C 0.58824 0.3872 0.87212 0.0
C902 C 0.53171 0.3582 0.87259 0.0
C903 C 0.51145 0.29662 0.87474 0.0
C904 C 0.47948 0.27643 0.88861 0.0
C905 C 0.47639 0.26313 0.86218 0.0
C906 C 0.56521 0.29488 0.8754 0.0
C907 C 0.60915 0.34752 0.87379 0.0
C908 C 0.66283 0.35594 0.87397 0.0
C909 C 0.67182 0.3103 0.87604 0.0
C910 C 0.62768 0.25582 0.878 0.0
C911 C 0.57351 0.24865 0.87756 0.0
H912 H 0.14969 0.42626 1.03437 0.0
H913 H 0.13902 0.57688 1.03535 0.0
H914 H 0.23938 0.63027 1.03994 0.0
H915 H 0.24728 0.46301 0.06288 0.0
H916 H 0.28203 0.42924 0.05515 0.0
H917 H 0.21046 0.40431 0.05153 0.0
H918 H 0.23093 0.41449 1.02482 0.0
H919 H 0.30264 0.43984 1.02835 0.0
H920 H 0.28134 0.4803 1.01786 0.0
H921 H 0.34441 0.66741 1.04343 0.0
H922 H 0.43814 0.68325 1.04818 0.0
H923 H 0.37828 0.50688 1.04675 0.0
C924 C 0.16826 0.47056 1.03555 0.0
C925 C 0.13605 0.49736 1.03425 0.0
C926 C 0.16246 0.5553 1.0361 0.0
C927 C 0.21965 0.58594 1.03871 0.0
C928 C 0.25019 0.55813 1.03971 0.0
C929 C 0.22493 0.50146 1.0384 0.0
C930 C 0.26601 0.48072 1.04046 0.0
C931 C 0.25052 0.44203 0.05326 0.0
C932 C 0.27048 0.45215 1.02707 0.0
C933 C 0.31873 0.53443 1.0431 0.0
C934 C 0.30899 0.5788 1.04242 0.0
C935 C 0.35193 0.63269 1.0441 0.0
C936 C 0.40542 0.64135 1.04673 0.0
C937 C 0.41635 0.59651 1.04791 0.0
C938 C 0.37185 0.54229 1.046 0.0
H939 H 0.84473 0.37744 0.19722 0.0
H940 H 0.89598 0.36281 0.23939 0.0
H941 H 0.82704 0.26461 0.23992 0.0
H942 H 0.70063 0.28161 0.2028 0.0
H943 H 0.68502 0.24524 0.18647 0.0
H944 H 0.73747 0.31676 0.18712 0.0
H945 H 0.81227 0.29997 0.17749 0.0
H946 H 0.76395 0.22806 0.17486 0.0
H947 H 0.82478 0.24748 0.18509 0.0
H948 H 0.75463 0.16556 0.23596 0.0
H949 H 0.69043 0.0727 0.22687 0.0
H950 H 0.68517 0.14453 0.18684 0.0
C951 C 0.84102 0.35371 0.20661 0.0
C952 C 0.87648 0.37909 0.21833 0.0
C953 C 0.87005 0.34537 0.23025 0.0
C954 C 0.83055 0.28905 0.23069 0.0
C955 C 0.79688 0.26517 0.21906 0.0
C956 C 0.8019 0.29612 0.20716 0.0
C957 C 0.76169 0.25861 0.19593 0.0
C958 C 0.71879 0.27676 0.19286 0.0
C959 C 0.79247 0.25858 0.18254 0.0
C960 C 0.73501 0.20189 0.20319 0.0
C961 C 0.75523 0.20725 0.21668 0.0
C962 C 0.73814 0.16117 0.22545 0.0
C963 C 0.70092 0.10828 0.22024 0.0
C964 C 0.68031 0.10065 0.20632 0.0
C965 C 0.69776 0.14869 0.19773 0.0
H966 H 0.23694 0.50682 0.53077 0.0
H967 H 0.34532 0.68298 0.53457 0.0
H968 H 0.42369 0.66636 0.53854 0.0
H969 H 0.30399 0.46768 0.55829 0.0
H970 H 0.29304 0.40607 0.54927 0.0
H971 H 0.24588 0.43225 0.54675 0.0
H972 H 0.26144 0.43521 0.51986 0.0
H973 H 0.30905 0.40957 0.52233 0.0
H974 H 0.33011 0.47338 0.51299 0.0
H975 H 0.49386 0.62914 0.54081 0.0
H976 H 0.54323 0.57537 0.54361 0.0
H977 H 0.38865 0.4239 0.53998 0.0
C978 C 0.27704 0.54201 0.53252 0.0
C979 C 0.28414 0.59651 0.53229 0.0
C980 C 0.33789 0.64086 0.53471 0.0
C981 C 0.3831 0.63177 0.53693 0.0
C982 C 0.37478 0.57778 0.53692 0.0
C983 C 0.3227 0.53359 0.535 0.0
C984 C 0.32435 0.47945 0.53584 0.0
C985 C 0.28976 0.44429 0.54828 0.0
C986 C 0.30509 0.44753 0.52193 0.0
C987 C 0.38529 0.49985 0.53832 0.0
C988 C 0.41404 0.55676 0.5388 0.0
C989 C 0.47123 0.58452 0.54058 0.0
C990 C 0.49926 0.55359 0.54212 0.0
C991 C 0.47042 0.49509 0.5422 0.0
C992 C 0.41251 0.46848 0.54011 0.0
H993 H 0.77074 0.20663 0.69704 0.0
H994 H 0.7015 0.31548 0.70232 0.0
H995 H 0.79395 0.39303 0.7074 0.0
H996 H 0.87085 0.26665 0.72552 0.0
H997 H 0.92243 0.25742 0.71644 0.0
H998 H 0.85088 0.21101 0.71314 0.0
H999 H 0.86676 0.23309 0.68653 0.0
H1000 H 0.93825 0.27986 0.68978 0.0
H1001 H 0.89701 0.30379 0.6807 0.0
H1002 H 0.89861 0.46215 0.71066 0.0
H1003 H 0.99972 0.51046 0.71428 0.0
H1004 H 0.99932 0.35547 0.70849 0.0
C1005 C 0.77482 0.24666 0.69933 0.0
C1006 C 0.72793 0.25428 0.6992 0.0
C1007 C 0.736 0.3078 0.70237 0.0
C1008 C 0.78877 0.35249 0.70523 0.0
C1009 C 0.83403 0.34366 0.70514 0.0
C1010 C 0.82727 0.29167 0.70248 0.0
C1011 C 0.8822 0.29254 0.70342 0.0
C1012 C 0.88154 0.25466 0.71534 0.0
C1013 C 0.89691 0.27636 0.68926 0.0
C1014 C 0.92102 0.35302 0.70682 0.0
C1015 C 0.89274 0.3822 0.70765 0.0
C1016 C 0.92073 0.43921 0.71024 0.0
C1017 C 0.97841 0.46659 0.71224 0.0
C1018 C 1.00808 0.4372 0.71182 0.0
C1019 C 0.97833 0.37955 0.709 0.0
H1020 H 0.68927 0.97688 0.87267 0.0
H1021 H 0.5388 0.98384 0.87831 0.0
H1022 H 0.48567 0.88173 0.87554 0.0
H1023 H 0.63799 0.86906 0.84616 0.0
H1024 H 0.67741 0.83811 0.85271 0.0
H1025 H 0.70225 0.91089 0.85502 0.0
H1026 H 0.70904 0.89973 0.88185 0.0
H1027 H 0.6838 0.82683 0.87964 0.0
H1028 H 0.64928 0.85073 0.89141 0.0
H1029 H 0.44904 0.77491 0.8726 0.0
H1030 H 0.43305 0.68016 0.86862 0.0
H1031 H 0.60814 0.74343 0.86442 0.0
C1032 C 0.64501 0.95726 0.87323 0.0
C1033 C 0.61855 0.98944 0.87572 0.0
C1034 C 0.56048 0.96106 0.87639 0.0
C1035 C 0.52993 0.90269 0.87486 0.0
C1036 C 0.55761 0.87245 0.87257 0.0
C1037 C 0.61407 0.89925 0.87164 0.0
C1038 C 0.63458 0.85798 0.86904 0.0
C1039 C 0.66485 0.86972 0.85489 0.0
C1040 C 0.67136 0.85889 0.88121 0.0
C1041 C 0.58106 0.80333 0.86865 0.0
C1042 C 0.53704 0.81244 0.87077 0.0
C1043 C 0.48355 0.768 0.87091 0.0
C1044 C 0.47482 0.71378 0.86867 0.0
C1045 C 0.51903 0.70302 0.86623 0.0
C1046 C 0.57303 0.74919 0.86633 0.0
H1047 H 0.75215 0.65263 1.03908 0.0
H1048 H 0.60189 0.50251 1.04858 0.0
H1049 H 0.6517 0.44902 1.0461 0.0
H1050 H 0.80055 0.5943 1.01244 0.0
H1051 H 0.87151 0.63639 1.01728 0.0
H1052 H 0.82361 0.66129 1.02018 0.0
H1053 H 0.85059 0.6762 1.04651 0.0
H1054 H 0.8982 0.6508 1.04374 0.0
H1055 H 0.84522 0.61925 0.05686 0.0
H1056 H 0.72305 0.41258 1.04314 0.0
H1057 H 0.80163 0.3971 1.03787 0.0
H1058 H 0.90248 0.57141 1.02893 0.0
C1059 C 0.72928 0.60838 1.0406 0.0
C1060 C 0.67271 0.58211 1.04421 0.0
C1061 C 0.64502 0.52401 1.04598 0.0
C1062 C 0.67326 0.49327 1.04458 0.0
C1063 C 0.72932 0.52087 1.0412 0.0
C1064 C 0.75658 0.57726 1.03905 0.0
C1065 C 0.81624 0.59774 1.03512 0.0
C1066 C 0.82869 0.62397 1.02038 0.0
C1067 C 0.85484 0.6384 1.04622 0.0
C1068 C 0.81888 0.54426 1.03531 0.0
C1069 C 0.76866 0.50025 1.03902 0.0
C1070 C 0.76218 0.44701 1.04015 0.0
C1071 C 0.80735 0.43855 1.03721 0.0
C1072 C 0.85876 0.48281 1.03294 0.0
C1073 C 0.86403 0.53637 1.0321 0.0
H1074 H 0.38033 0.87833 0.19869 0.0
H1075 H 0.45718 0.77804 0.20719 0.0
H1076 H 0.36617 0.69812 0.21236 0.0
H1077 H 0.27603 0.81789 0.2263 0.0
H1078 H 0.22437 0.82243 0.21589 0.0
H1079 H 0.29572 0.8713 0.2132 0.0
H1080 H 0.28571 0.84532 0.18681 0.0
H1081 H 0.21449 0.79601 0.18946 0.0
H1082 H 0.25995 0.77423 0.18187 0.0
H1083 H 0.26071 0.62462 0.21564 0.0
H1084 H 0.1589 0.57263 0.21812 0.0
H1085 H 0.15323 0.7224 0.20831 0.0
C1086 C 0.37837 0.83982 0.20179 0.0
C1087 C 0.42711 0.83548 0.20253 0.0
C1088 C 0.42138 0.78349 0.20658 0.0
C1089 C 0.36936 0.73737 0.2095 0.0
C1090 C 0.32222 0.74292 0.20848 0.0
C1091 C 0.32664 0.79336 0.20487 0.0
C1092 C 0.27014 0.78911 0.20459 0.0
C1093 C 0.26635 0.82746 0.21565 0.0
C1094 C 0.25681 0.80193 0.1898 0.0
C1095 C 0.23313 0.72861 0.20843 0.0
C1096 C 0.26348 0.70213 0.2106 0.0
C1097 C 0.23703 0.64557 0.21401 0.0
C1098 C 0.17884 0.61598 0.21536 0.0
C1099 C 0.14704 0.64275 0.21349 0.0
C1100 C 0.17549 0.69996 0.20989 0.0
H1101 H 0.55788 0.36467 0.36315 0.0
H1102 H 0.72688 0.43354 0.37662 0.0
H1103 H 0.71043 0.33942 0.38242 0.0
H1104 H 0.4995 0.2574 0.39007 0.0
H1105 H 0.44836 0.20828 0.37835 0.0
H1106 H 0.47407 0.28107 0.37568 0.0
H1107 H 0.50089 0.27202 0.35015 0.0
H1108 H 0.47578 0.19934 0.3528 0.0
H1109 H 0.54538 0.24299 0.34709 0.0
H1110 H 0.67359 0.23155 0.38596 0.0
H1111 H 0.62012 0.12892 0.38792 0.0
H1112 H 0.47627 0.13365 0.37266 0.0
C1113 C 0.59153 0.36035 0.36744 0.0
C1114 C 0.64389 0.40762 0.36942 0.0
C1115 C 0.68629 0.39883 0.37503 0.0
C1116 C 0.67732 0.34508 0.37832 0.0
C1117 C 0.62542 0.29945 0.37604 0.0
C1118 C 0.58317 0.30701 0.37085 0.0
C1119 C 0.53099 0.25182 0.36937 0.0
C1120 C 0.48556 0.24952 0.37894 0.0
C1121 C 0.51217 0.24092 0.35394 0.0
C1122 C 0.55017 0.2118 0.37438 0.0
C1123 C 0.6048 0.23954 0.37818 0.0
C1124 C 0.63076 0.20997 0.38299 0.0
C1125 C 0.60016 0.15137 0.38404 0.0
C1126 C 0.54377 0.12235 0.38045 0.0
C1127 C 0.51924 0.15383 0.37551 0.0
H1128 H 0.32345 0.69257 0.48305 0.0
H1129 H 0.20241 0.74791 0.48489 0.0
H1130 H 0.23705 0.79822 0.46278 0.0
H1131 H 0.43279 0.82483 0.46978 0.0
H1132 H 0.46277 0.79394 0.45871 0.0
H1133 H 0.42688 0.75914 0.47449 0.0
H1134 H 0.3639 0.67265 0.45982 0.0
H1135 H 0.39916 0.7075 0.44396 0.0
H1136 H 0.32591 0.67893 0.44524 0.0
H1137 H 0.28042 0.83914 0.43997 0.0
H1138 H 0.34103 0.88261 0.41973 0.0
H1139 H 0.44289 0.81206 0.43284 0.0
C1140 C 0.30462 0.71563 0.47881 0.0
C1141 C 0.25958 0.7155 0.48578 0.0
C1142 C 0.23657 0.74675 0.4799 0.0
C1143 C 0.25585 0.77547 0.46721 0.0
C1144 C 0.29945 0.77415 0.46053 0.0
C1145 C 0.32469 0.74636 0.46623 0.0
C1146 C 0.37339 0.75531 0.45715 0.0
C1147 C 0.42715 0.78508 0.46553 0.0
C1148 C 0.36508 0.70031 0.45119 0.0
C1149 C 0.37109 0.79213 0.44551 0.0
C1150 C 0.32724 0.8013 0.44761 0.0
C1151 C 0.3153 0.83281 0.43829 0.0
C1152 C 0.35004 0.85728 0.42676 0.0
C1153 C 0.39723 0.85144 0.42468 0.0
C1154 C 0.40722 0.8174 0.43409 0.0
H1155 H 0.56007 0.31401 0.58824 0.0
H1156 H 0.68667 0.47191 0.60375 0.0
H1157 H 0.68861 0.42828 0.62624 0.0
H1158 H 0.48767 0.261 0.62044 0.0
H1159 H 0.47515 0.19147 0.61794 0.0
H1160 H 0.48261 0.23432 0.60292 0.0
H1161 H 0.56015 0.21889 0.59327 0.0
H1162 H 0.55478 0.17617 0.60813 0.0
H1163 H 0.61946 0.23557 0.604 0.0
H1164 H 0.67242 0.3678 0.64797 0.0
H1165 H 0.64966 0.29305 0.66543 0.0
H1166 H 0.54027 0.17339 0.63518 0.0
C1167 C 0.58853 0.33923 0.59634 0.0
C1168 C 0.62315 0.39652 0.59417 0.0
C1169 C 0.6599 0.42797 0.60505 0.0
C1170 C 0.66104 0.40359 0.61795 0.0
C1171 C 0.62589 0.34727 0.61984 0.0
C1172 C 0.59117 0.31522 0.60921 0.0
C1173 C 0.55971 0.25507 0.6137 0.0
C1174 C 0.49761 0.23424 0.61375 0.0
C1175 C 0.57436 0.2193 0.60421 0.0
C1176 C 0.58146 0.25846 0.62855 0.0
C1177 C 0.61902 0.31213 0.63199 0.0
C1178 C 0.64343 0.32555 0.6453 0.0
C1179 C 0.63004 0.28291 0.65521 0.0
C1180 C 0.59335 0.22734 0.65169 0.0
C1181 C 0.56861 0.21538 0.6382 0.0
H1182 H 0.34539 0.52932 0.82271 0.0
H1183 H 0.50106 0.66026 0.80747 0.0
H1184 H 0.45678 0.66444 0.78539 0.0
H1185 H 0.29271 0.46113 0.78948 0.0
H1186 H 0.22333 0.44661 0.7927 0.0
H1187 H 0.26721 0.4521 0.80724 0.0
H1188 H 0.25063 0.52764 0.81851 0.0
H1189 H 0.20624 0.52183 0.80409 0.0
H1190 H 0.26393 0.58791 0.80838 0.0
H1191 H 0.39627 0.65116 0.76415 0.0
H1192 H 0.32135 0.63136 0.74715 0.0
H1193 H 0.20337 0.51577 0.77679 0.0
C1194 C 0.36998 0.55907 0.81474 0.0
C1195 C 0.42685 0.59439 0.81687 0.0
C1196 C 0.45749 0.63289 0.80619 0.0
C1197 C 0.43274 0.63534 0.79352 0.0
C1198 C 0.37686 0.59966 0.79166 0.0
C1199 C 0.34556 0.56298 0.8021 0.0
C1200 C 0.28569 0.53128 0.79768 0.0
C1201 C 0.26609 0.46909 0.79672 0.0
C1202 C 0.24949 0.54288 0.80776 0.0
C1203 C 0.28834 0.55592 0.7832 0.0
C1204 C 0.34151 0.59445 0.77979 0.0
C1205 C 0.3544 0.62144 0.76677 0.0
C1206 C 0.31172 0.60975 0.75714 0.0
C1207 C 0.2567 0.57237 0.76069 0.0
C1208 C 0.24514 0.54488 0.77385 0.0
H1209 H 0.80257 0.25708 0.92204 0.0
H1210 H 0.64408 0.22432 0.93802 0.0
H1211 H 0.68717 0.27033 0.9603 0.0
H1212 H 0.8591 0.24077 0.95486 0.0
H1213 H 0.92693 0.29739 0.9517 0.0
H1214 H 0.88375 0.25977 0.9371 0.0
H1215 H 0.89429 0.35061 0.92655 0.0
H1216 H 0.93797 0.38847 0.94103 0.0
H1217 H 0.87769 0.3942 0.93718 0.0
H1218 H 0.74721 0.31683 0.98156 0.0
H1219 H 0.82147 0.37214 0.99853 0.0
H1220 H 0.94203 0.38264 0.96824 0.0
C1221 C 0.7771 0.25989 0.93023 0.0
C1222 C 0.71984 0.237 0.92822 0.0
C1223 C 0.688 0.24176 0.93919 0.0
C1224 C 0.71208 0.26751 0.95198 0.0
C1225 C 0.76845 0.28935 0.95368 0.0
C1226 C 0.8008 0.28679 0.943 0.0
C1227 C 0.86086 0.31639 0.9473 0.0
C1228 C 0.88401 0.27617 0.94777 0.0
C1229 C 0.89469 0.36533 0.93743 0.0
C1230 C 0.85711 0.33595 0.96199 0.0
C1231 C 0.80331 0.31892 0.96559 0.0
C1232 C 0.78953 0.33078 0.97879 0.0
C1233 C 0.83186 0.36192 0.98841 0.0
C1234 C 0.88737 0.38189 0.98468 0.0
C1235 C 0.89987 0.36818 0.97133 0.0
H1236 H 0.59961 0.84126 0.15716 0.0
H1237 H 0.4554 0.85201 0.14487 0.0
H1238 H 0.45034 0.80359 0.1227 0.0
H1239 H 0.6595 0.85968 0.12296 0.0
H1240 H 0.68254 0.8097 0.12527 0.0
H1241 H 0.6762 0.84573 0.14028 0.0
H1242 H 0.61118 0.75346 0.15259 0.0
H1243 H 0.61893 0.71707 0.1379 0.0
H1244 H 0.55145 0.70264 0.14337 0.0
H1245 H 0.4649 0.75894 0.10081 0.0
H1246 H 0.48856 0.70812 0.08315 0.0
H1247 H 0.6163 0.71739 0.11075 0.0
C1248 C 0.56665 0.83287 0.14986 0.0
C1249 C 0.52797 0.85064 0.1528 0.0
C1250 C 0.48545 0.83876 0.14295 0.0
C1251 C 0.48245 0.81157 0.13024 0.0
C1252 C 0.52171 0.79548 0.12753 0.0
C1253 C 0.5623 0.80459 0.13722 0.0
C1254 C 0.59794 0.78089 0.13202 0.0
C1255 C 0.65757 0.82674 0.13001 0.0
C1256 C 0.59463 0.73582 0.14207 0.0
C1257 C 0.57092 0.75683 0.11797 0.0
C1258 C 0.52786 0.76685 0.1154 0.0
C1259 C 0.49821 0.75039 0.10281 0.0
C1260 C 0.51211 0.72186 0.09278 0.0
C1261 C 0.55437 0.70885 0.09553 0.0
C1262 C 0.58406 0.7269 0.10829 0.0
H1263 H 0.73572 0.45087 0.31864 0.0
H1264 H 0.77604 0.62284 0.31588 0.0
H1265 H 0.8227 0.63208 0.29351 0.0
H1266 H 0.86703 0.47409 0.30466 0.0
H1267 H 0.83834 0.41014 0.29503 0.0
H1268 H 0.80501 0.41513 0.31074 0.0
H1269 H 0.71505 0.383 0.29671 0.0
H1270 H 0.74835 0.37857 0.28092 0.0
H1271 H 0.71529 0.4205 0.28117 0.0
H1272 H 0.86208 0.62385 0.27113 0.0
H1273 H 0.90585 0.60285 0.2515 0.0
H1274 H 0.85007 0.43853 0.26847 0.0
C1275 C 0.75465 0.49041 0.31332 0.0
C1276 C 0.75192 0.53612 0.31916 0.0
C1277 C 0.77754 0.58722 0.31186 0.0
C1278 C 0.80395 0.59288 0.29899 0.0
C1279 C 0.80558 0.54735 0.29347 0.0
C1280 C 0.78276 0.49733 0.30046 0.0
C1281 C 0.79385 0.45635 0.29234 0.0
C1282 C 0.8281 0.43785 0.30122 0.0
C1283 C 0.73991 0.40665 0.2875 0.0
C1284 C 0.82652 0.49149 0.27982 0.0
C1285 C 0.83151 0.54343 0.28065 0.0
C1286 C 0.85892 0.58347 0.27041 0.0
C1287 C 0.88358 0.57098 0.25924 0.0
C1288 C 0.88197 0.5192 0.25841 0.0
C1289 C 0.85199 0.47844 0.26875 0.0
H1290 H 0.82822 0.42036 0.49048 0.0
H1291 H 0.89325 0.52507 0.45397 0.0
H1292 H 0.80564 0.47076 0.44162 0.0
H1293 H 0.79198 0.31233 0.47564 0.0
H1294 H 0.72858 0.26611 0.48437 0.0
H1295 H 0.77736 0.32694 0.49313 0.0
H1296 H 0.70456 0.35805 0.49644 0.0
H1297 H 0.65468 0.29619 0.48768 0.0
H1298 H 0.66742 0.36281 0.48146 0.0
H1299 H 0.73114 0.39059 0.43057 0.0
H1300 H 0.68486 0.29565 0.42176 0.0
H1301 H 0.67708 0.23549 0.46434 0.0
C1302 C 0.82207 0.43373 0.48025 0.0
C1303 C 0.86655 0.47653 0.47315 0.0
C1304 C 0.85907 0.49248 0.45958 0.0
C1305 C 0.80917 0.46189 0.45255 0.0
C1306 C 0.76774 0.41519 0.45917 0.0
C1307 C 0.77338 0.40164 0.47293 0.0
C1308 C 0.73205 0.34228 0.47628 0.0
C1309 C 0.7592 0.31013 0.48268 0.0
C1310 C 0.687 0.33971 0.48604 0.0
C1311 C 0.70945 0.32226 0.46173 0.0
C1312 C 0.72674 0.3656 0.4523 0.0
C1313 C 0.71677 0.35653 0.43792 0.0
C1314 C 0.69158 0.30222 0.43297 0.0
C1315 C 0.67899 0.25763 0.44228 0.0
C1316 C 0.68544 0.26802 0.45689 0.0
H1317 H 0.47394 0.77711 0.65795 0.0
H1318 H 0.42393 0.86525 0.62914 0.0
H1319 H 0.38484 0.78525 0.61334 0.0
H1320 H 0.52979 0.73672 0.63845 0.0
H1321 H 0.50763 0.66704 0.64428 0.0
H1322 H 0.50489 0.71511 0.65614 0.0
H1323 H 0.40133 0.64987 0.66018 0.0
H1324 H 0.40429 0.6008 0.64829 0.0
H1325 H 0.35528 0.62439 0.64538 0.0
H1326 H 0.3893 0.71955 0.59725 0.0
H1327 H 0.43308 0.67535 0.5838 0.0
H1328 H 0.47923 0.62809 0.6226 0.0
C1329 C 0.45146 0.77811 0.6488 0.0
C1330 C 0.45326 0.82769 0.64458 0.0
C1331 C 0.42438 0.82806 0.63238 0.0
C1332 C 0.40121 0.7823 0.62344 0.0
C1333 C 0.4059 0.73596 0.62704 0.0
C1334 C 0.42839 0.73261 0.6398 0.0
C1335 C 0.44019 0.68481 0.63995 0.0
C1336 C 0.49911 0.70211 0.64496 0.0
C1337 C 0.39772 0.63716 0.64898 0.0
C1338 C 0.43168 0.66955 0.62455 0.0
C1339 C 0.40796 0.69636 0.61746 0.0
C1340 C 0.40571 0.69658 0.60275 0.0
C1341 C 0.43096 0.67176 0.59516 0.0
C1342 C 0.45894 0.64838 0.60235 0.0
C1343 C 0.45662 0.64466 0.61708 0.0
H1344 H 0.69719 0.59634 0.76912 0.0
H1345 H 0.64241 0.43449 0.78699 0.0
H1346 H 0.66826 0.40495 0.76535 0.0
H1347 H 0.68105 0.55222 0.72901 0.0
H1348 H 0.74443 0.61402 0.72521 0.0
H1349 H 0.69841 0.61503 0.73837 0.0
H1350 H 0.77695 0.65246 0.75673 0.0
H1351 H 0.82257 0.65246 0.74364 0.0
H1352 H 0.81379 0.61506 0.75986 0.0
H1353 H 0.72039 0.39966 0.7458 0.0
H1354 H 0.80946 0.42502 0.73507 0.0
H1355 H 0.8422 0.59383 0.73091 0.0
C1356 C 0.68821 0.5539 0.7681 0.0
C1357 C 0.66605 0.51705 0.77949 0.0
C1358 C 0.65768 0.46278 0.77821 0.0
C1359 C 0.67183 0.44554 0.76586 0.0
C1360 C 0.69587 0.48353 0.75495 0.0
C1361 C 0.70457 0.53706 0.75604 0.0
C1362 C 0.74489 0.57428 0.74507 0.0
C1363 C 0.71541 0.58977 0.73374 0.0
C1364 C 0.79233 0.62647 0.75174 0.0
C1365 C 0.76361 0.53555 0.73915 0.0
C1366 C 0.73132 0.4822 0.74404 0.0
C1367 C 0.74545 0.44103 0.74177 0.0
C1368 C 0.79644 0.4559 0.73575 0.0
C1369 C 0.83336 0.51185 0.73265 0.0
C1370 C 0.81461 0.55076 0.73311 0.0
H1371 H 0.47693 0.87877 0.96225 0.0
H1372 H 0.48085 1.02546 0.97908 0.0
H1373 H 0.4402 0.97607 1.00114 0.0
H1374 H 0.35476 0.79544 0.96957 0.0
H1375 H 0.36022 0.73545 0.97453 0.0
H1376 H 0.41098 0.78644 0.96338 0.0
H1377 H 0.48713 0.79822 0.98087 0.0
H1378 H 0.43593 0.74654 0.99217 0.0
H1379 H 0.48275 0.8138 0.99905 0.0
H1380 H 0.37392 0.90692 1.0171 0.0
H1381 H 0.28663 0.82696 1.02412 0.0
H1382 H 0.31949 0.72272 0.99641 0.0
C1383 C 0.47128 0.90098 0.97084 0.0
C1384 C 0.4816 0.9556 0.96895 0.0
C1385 C 0.47378 0.9837 0.98034 0.0
C1386 C 0.45088 0.9559 0.99297 0.0
C1387 C 0.43672 0.90033 0.9941 0.0
C1388 C 0.44765 0.87339 0.98337 0.0
C1389 C 0.41776 0.81155 0.98557 0.0
C1390 C 0.3839 0.78053 0.9725 0.0
C1391 C 0.45831 0.79135 0.98967 0.0
C1392 C 0.38187 0.80741 0.99793 0.0
C1393 C 0.39601 0.85902 1.0033 0.0
C1394 C 0.36337 0.8663 1.01323 0.0
C1395 C 0.31341 0.82067 1.01703 0.0
C1396 C 0.29584 0.76875 1.01061 0.0
C1397 C 0.33224 0.76156 1.0017 0.0
H1398 H 0.60055 0.30551 0.17414 0.0
H1399 H 0.71851 0.29232 0.14708 0.0
H1400 H 0.75879 0.38983 0.14125 0.0
H1401 H 0.55561 0.3525 0.15173 0.0
H1402 H 0.5446 0.40165 0.16168 0.0
H1403 H 0.54686 0.34626 0.17058 0.0
H1404 H 0.62441 0.41627 0.18659 0.0
H1405 H 0.62242 0.47238 0.17746 0.0
H1406 H 0.68602 0.47083 0.17892 0.0
H1407 H 0.76435 0.47159 0.13119 0.0
H1408 H 0.72205 0.50957 0.1152 0.0
H1409 H 0.59052 0.46753 0.14489 0.0
C1410 C 0.63553 0.32347 0.16718 0.0
C1411 C 0.65517 0.29041 0.16088 0.0
C1412 C 0.70238 0.31609 0.15225 0.0
C1413 C 0.72603 0.3722 0.14891 0.0
C1414 C 0.7017 0.40231 0.15401 0.0
C1415 C 0.65733 0.37865 0.16311 0.0
C1416 C 0.62778 0.41219 0.16366 0.0
C1417 C 0.56512 0.37597 0.16175 0.0
C1418 C 0.64098 0.44487 0.17748 0.0
C1419 C 0.65498 0.45082 0.15137 0.0
C1420 C 0.70149 0.44885 0.14706 0.0
C1421 C 0.72847 0.47377 0.13458 0.0
C1422 C 0.70385 0.4948 0.12545 0.0
C1423 C 0.65207 0.48927 0.12872 0.0
C1424 C 0.63022 0.4721 0.1423 0.0
H1425 H 0.51174 0.69588 0.2939 0.0
H1426 H 0.45875 0.68886 0.3368 0.0
H1427 H 0.39175 0.71628 0.32912 0.0
H1428 H 0.45554 0.80444 0.28125 0.0
H1429 H 0.43953 0.76957 0.26454 0.0
H1430 H 0.50223 0.78456 0.27352 0.0
H1431 H 0.47558 0.68184 0.27182 0.0
H1432 H 0.41287 0.66615 0.26328 0.0
H1433 H 0.41138 0.63026 0.27927 0.0
H1434 H 0.30697 0.68481 0.3175 0.0
H1435 H 0.22705 0.62601 0.30318 0.0
H1436 H 0.32967 0.66362 0.26635 0.0
C1437 C 0.48875 0.70452 0.30165 0.0
C1438 C 0.48932 0.68969 0.31578 0.0
C1439 C 0.45865 0.7001 0.32588 0.0
C1440 C 0.42047 0.71585 0.32156 0.0
C1441 C 0.41454 0.72193 0.30717 0.0
C1442 C 0.45047 0.72029 0.29735 0.0
C1443 C 0.42853 0.71577 0.28252 0.0
C1444 C 0.4582 0.77194 0.27502 0.0
C1445 C 0.4322 0.67074 0.27376 0.0
C1446 C 0.37005 0.70107 0.28583 0.0
C1447 C 0.36357 0.70778 0.30004 0.0
C1448 C 0.31182 0.68284 0.30627 0.0
C1449 C 0.26637 0.64898 0.29805 0.0
C1450 C 0.27218 0.64218 0.28357 0.0
C1451 C 0.32432 0.67038 0.2773 0.0
loop_
_geom_bond_atom_site_label_1
_geom_bond_atom_site_label_2
_geom_bond_distance
_geom_bond_site_symmetry_2
_ccdc_geom_bond_type
C0 Eu1 2.835 . S
C0 C2 1.500 . S
C0 O20 1.257 . S
C0 O21 1.260 . S
Eu1 C0 2.835 . S
Eu1 O20 2.473 . S
Eu1 O21 2.480 . S
Eu1 O22 2.430 1_565 S
Eu1 O23 2.670 1_565 S
Eu1 O24 2.394 . S
Eu1 O29 2.355 . S
Eu1 O31 2.374 1_565 S
C2 C0 1.500 . S
C2 C3 1.377 . S
C2 C7 1.377 . S
C3 C2 1.377 . S
C3 C4 1.395 . S
C3 H32 0.931 . S
C4 C3 1.395 . S
C4 C5 1.383 . S
C4 H33 0.931 . S
C5 C4 1.383 . S
C5 C6 1.394 . S
C6 C5 1.394 . S
C6 C7 1.378 . S
C6 H34 0.931 . S
C7 C2 1.377 . S
C7 C6 1.378 . S
C7 H35 0.931 . S
C8 O22 1.259 . S
C8 O23 1.270 . S
C9 O24 1.251 . S
C9 O25 1.251 . S
C10 Eu11 2.835 . S
C10 C12 1.500 . S
C10 O26 1.257 . S
C10 O27 1.260 . S
Eu11 C10 2.835 . S
Eu11 O23 2.355 . S
Eu11 O25 2.374 1_545 S
Eu11 O26 2.473 . S
Eu11 O27 2.480 . S
Eu11 O28 2.430 1_545 S
Eu11 O29 2.670 1_545 S
Eu11 O30 2.394 . S
C12 C10 1.500 . S
C12 C13 1.377 . S
C12 C17 1.377 . S
C13 C12 1.377 . S
C13 C14 1.395 . S
C13 H36 0.931 . S
C14 C13 1.395 . S
C14 C15 1.383 . S
C14 H37 0.931 . S
C15 C14 1.383 . S
C15 C16 1.394 . S
C16 C15 1.394 . S
C16 C17 1.378 . S
C16 H38 0.931 . S
C17 C12 1.377 . S
C17 C16 1.378 . S
C17 H39 0.931 . S
C18 O28 1.259 . S
C18 O29 1.270 . S
C19 O30 1.251 . S
C19 O31 1.251 . S
O20 C0 1.257 . S
O20 Eu1 2.473 . S
O21 C0 1.260 . S
O21 Eu1 2.480 . S
O22 Eu1 2.430 1_545 S
O22 C8 1.259 . S
O23 Eu1 2.670 1_545 S
O23 C8 1.270 . S
O23 Eu11 2.355 . S
O24 Eu1 2.394 . S
O24 C9 1.251 . S
O25 C9 1.251 . S
O25 Eu11 2.374 1_565 S
O26 C10 1.257 . S
O26 Eu11 2.473 . S
O27 C10 1.260 . S
O27 Eu11 2.480 . S
O28 Eu11 2.430 1_565 S
O28 C18 1.259 . S
O29 Eu1 2.355 . S
O29 Eu11 2.670 1_565 S
O29 C18 1.270 . S
O30 Eu11 2.394 . S
O30 C19 1.251 . S
O31 Eu1 2.374 1_545 S
O31 C19 1.251 . S
H32 C3 0.931 . S
H33 C4 0.931 . S
H34 C6 0.931 . S
H35 C7 0.931 . S
H36 C13 0.931 . S
H37 C14 0.931 . S
H38 C16 0.931 . S
H39 C17 0.931 . S
C40 Eu41 2.835 . S
C40 C42 1.500 . S
C40 O60 1.257 . S
C40 O61 1.260 . S
Eu41 C40 2.835 . S
Eu41 O60 2.473 . S
Eu41 O61 2.480 . S
Eu41 O62 2.430 . S
Eu41 O63 2.670 . S
Eu41 O64 2.394 . S
Eu41 O69 2.355 . S
Eu41 O71 2.374 . S
C42 C40 1.500 . S
C42 C43 1.377 . S
C42 C47 1.377 . S
C43 C42 1.377 . S
C43 C44 1.395 . S
C43 H72 0.931 . S
C44 C43 1.395 . S
C44 C45 1.383 . S
C44 H73 0.931 . S
C45 C44 1.383 . S
C45 C46 1.394 . S
C46 C45 1.394 . S
C46 C47 1.378 . S
C46 H74 0.931 . S
C47 C42 1.377 . S
C47 C46 1.378 . S
C47 H75 0.931 . S
C48 O62 1.259 . S
C48 O63 1.270 . S
C49 O64 1.251 . S
C49 O65 1.251 . S
C50 Eu51 2.835 . S
C50 C52 1.500 . S
C50 O66 1.257 . S
C50 O67 1.260 . S
Eu51 C50 2.835 . S
Eu51 O63 2.355 . S
Eu51 O65 2.374 . S
Eu51 O66 2.473 . S
Eu51 O67 2.480 . S
Eu51 O68 2.430 . S
Eu51 O69 2.670 . S
Eu51 O70 2.394 . S
C52 C50 1.500 . S
C52 C53 1.377 . S
C52 C57 1.377 . S
C53 C52 1.377 . S
C53 C54 1.395 . S
C53 H76 0.931 . S
C54 C53 1.395 . S
C54 C55 1.383 . S
C54 H77 0.931 . S
C55 C54 1.383 . S
C55 C56 1.394 . S
C56 C55 1.394 . S
C56 C57 1.378 . S
C56 H78 0.931 . S
C57 C52 1.377 . S
C57 C56 1.378 . S
C57 H79 0.931 . S
C58 O68 1.259 . S
C58 O69 1.270 . S
C59 O70 1.251 . S
C59 O71 1.251 . S
O60 C40 1.257 . S
O60 Eu41 2.473 . S
O61 C40 1.260 . S
O61 Eu41 2.480 . S
O62 Eu41 2.430 . S
O62 C48 1.259 . S
O63 Eu41 2.670 . S
O63 C48 1.270 . S
O63 Eu51 2.355 . S
O64 Eu41 2.394 . S
O64 C49 1.251 . S
O65 C49 1.251 . S
O65 Eu51 2.374 . S
O66 C50 1.257 . S
O66 Eu51 2.473 . S
O67 C50 1.260 . S
O67 Eu51 2.480 . S
O68 Eu51 2.430 . S
O68 C58 1.259 . S
O69 Eu41 2.355 . S
O69 Eu51 2.670 . S
O69 C58 1.270 . S
O70 Eu51 2.394 . S
O70 C59 1.251 . S
O71 Eu41 2.374 . S
O71 C59 1.251 . S
H72 C43 0.931 . S
H73 C44 0.931 . S
H74 C46 0.931 . S
H75 C47 0.931 . S
H76 C53 0.931 . S
H77 C54 0.931 . S
H78 C56 0.931 . S
H79 C57 0.931 . S
C80 Eu81 2.835 . S
C80 C82 1.500 . S
C80 O100 1.257 . S
C80 O101 1.260 . S
Eu81 C80 2.835 . S
Eu81 O100 2.473 . S
Eu81 O101 2.480 . S
Eu81 O102 2.430 1_455 S
Eu81 O103 2.670 1_455 S
Eu81 O104 2.394 . S
Eu81 O109 2.355 . S
Eu81 O111 2.374 1_455 S
C82 C80 1.500 . S
C82 C83 1.377 . S
C82 C87 1.377 . S
C83 C82 1.377 . S
C83 C84 1.395 . S
C83 H112 0.931 . S
C84 C83 1.395 . S
C84 C85 1.383 . S
C84 H113 0.931 . S
C85 C84 1.383 . S
C85 C86 1.394 . S
C86 C85 1.394 . S
C86 C87 1.378 . S
C86 H114 0.931 . S
C87 C82 1.377 . S
C87 C86 1.378 . S
C87 H115 0.931 . S
C88 O102 1.259 . S
C88 O103 1.270 . S
C89 O104 1.251 . S
C89 O105 1.251 . S
C90 Eu91 2.835 . S
C90 C92 1.500 . S
C90 O106 1.257 . S
C90 O107 1.260 . S
Eu91 C90 2.835 . S
Eu91 O103 2.355 . S
Eu91 O105 2.374 1_655 S
Eu91 O106 2.473 . S
Eu91 O107 2.480 . S
Eu91 O108 2.430 1_655 S
Eu91 O109 2.670 1_655 S
Eu91 O110 2.394 . S
C92 C90 1.500 . S
C92 C93 1.377 . S
C92 C97 1.377 . S
C93 C92 1.377 . S
C93 C94 1.395 . S
C93 H116 0.931 . S
C94 C93 1.395 . S
C94 C95 1.383 . S
C94 H117 0.931 . S
C95 C94 1.383 . S
C95 C96 1.394 . S
C96 C95 1.394 . S
C96 C97 1.378 . S
C96 H118 0.931 . S
C97 C92 1.377 . S
C97 C96 1.378 . S
C97 H119 0.931 . S
C98 O108 1.259 . S
C98 O109 1.270 . S
C99 O110 1.251 . S
C99 O111 1.251 . S
O100 C80 1.257 . S
O100 Eu81 2.473 . S
O101 C80 1.260 . S
O101 Eu81 2.480 . S
O102 Eu81 2.430 1_655 S
O102 C88 1.259 . S
O103 Eu81 2.670 1_655 S
O103 C88 1.270 . S
O103 Eu91 2.355 . S
O104 Eu81 2.394 . S
O104 C89 1.251 . S
O105 C89 1.251 . S
O105 Eu91 2.374 1_455 S
O106 C90 1.257 . S
O106 Eu91 2.473 . S
O107 C90 1.260 . S
O107 Eu91 2.480 . S
O108 Eu91 2.430 1_455 S
O108 C98 1.259 . S
O109 Eu81 2.355 . S
O109 Eu91 2.670 1_455 S
O109 C98 1.270 . S
O110 Eu91 2.394 . S
O110 C99 1.251 . S
O111 Eu81 2.374 1_655 S
O111 C99 1.251 . S
H112 C83 0.931 . S
H113 C84 0.931 . S
H114 C86 0.931 . S
H115 C87 0.931 . S
H116 C93 0.931 . S
H117 C94 0.931 . S
H118 C96 0.931 . S
H119 C97 0.931 . S
C120 Eu121 2.835 . S
C120 C122 1.500 . S
C120 O140 1.257 . S
C120 O141 1.260 . S
Eu121 C120 2.835 . S
Eu121 O140 2.473 . S
Eu121 O141 2.480 . S
Eu121 O142 2.430 1_545 S
Eu121 O143 2.670 1_545 S
Eu121 O144 2.394 . S
Eu121 O149 2.355 . S
Eu121 O151 2.374 1_545 S
C122 C120 1.500 . S
C122 C123 1.377 . S
C122 C127 1.377 . S
C123 C122 1.377 . S
C123 C124 1.395 . S
C123 H152 0.931 . S
C124 C123 1.395 . S
C124 C125 1.383 . S
C124 H153 0.931 . S
C125 C124 1.383 . S
C125 C126 1.394 . S
C126 C125 1.394 . S
C126 C127 1.378 . S
C126 H154 0.931 . S
C127 C122 1.377 . S
C127 C126 1.378 . S
C127 H155 0.931 . S
C128 O142 1.259 . S
C128 O143 1.270 . S
C129 O144 1.251 . S
C129 O145 1.251 . S
C130 Eu131 2.835 . S
C130 C132 1.500 . S
C130 O146 1.257 . S
C130 O147 1.260 . S
Eu131 C130 2.835 . S
Eu131 O143 2.355 . S
Eu131 O145 2.374 1_565 S
Eu131 O146 2.473 . S
Eu131 O147 2.480 . S
Eu131 O148 2.430 1_565 S
Eu131 O149 2.670 1_565 S
Eu131 O150 2.394 . S
C132 C130 1.500 . S
C132 C133 1.377 . S
C132 C137 1.377 . S
C133 C132 1.377 . S
C133 C134 1.395 . S
C133 H156 0.931 . S
C134 C133 1.395 . S
C134 C135 1.383 . S
C134 H157 0.931 . S
C135 C134 1.383 . S
C135 C136 1.394 . S
C136 C135 1.394 . S
C136 C137 1.378 . S
C136 H158 0.931 . S
C137 C132 1.377 . S
C137 C136 1.378 . S
C137 H159 0.931 . S
C138 O148 1.259 . S
C138 O149 1.270 . S
C139 O150 1.251 . S
C139 O151 1.251 . S
O140 C120 1.257 . S
O140 Eu121 2.473 . S
O141 C120 1.260 . S
O141 Eu121 2.480 . S
O142 Eu121 2.430 1_565 S
O142 C128 1.259 . S
O143 Eu121 2.670 1_565 S
O143 C128 1.270 . S
O143 Eu131 2.355 . S
O144 Eu121 2.394 . S
O144 C129 1.251 . S
O145 C129 1.251 . S
O145 Eu131 2.374 1_545 S
O146 C130 1.257 . S
O146 Eu131 2.473 . S
O147 C130 1.260 . S
O147 Eu131 2.480 . S
O148 Eu131 2.430 1_545 S
O148 C138 1.259 . S
O149 Eu121 2.355 . S
O149 Eu131 2.670 1_545 S
O149 C138 1.270 . S
O150 Eu131 2.394 . S
O150 C139 1.251 . S
O151 Eu121 2.374 1_565 S
O151 C139 1.251 . S
H152 C123 0.931 . S
H153 C124 0.931 . S
H154 C126 0.931 . S
H155 C127 0.931 . S
H156 C133 0.931 . S
H157 C134 0.931 . S
H158 C136 0.931 . S
H159 C137 0.931 . S
C160 Eu161 2.835 1_556 S
C160 C162 1.500 . S
C160 O180 1.257 1_556 S
C160 O181 1.260 . S
Eu161 C160 2.835 1_554 S
Eu161 O180 2.473 . S
Eu161 O181 2.480 1_554 S
Eu161 O182 2.461 . S
Eu161 O183 2.670 . S
Eu161 O184 2.394 . S
Eu161 O189 2.355 . S
Eu161 O191 2.374 . S
C162 C160 1.500 . S
C162 C163 1.377 . S
C162 C167 1.377 . S
C163 C162 1.377 . S
C163 C164 1.395 . S
C163 H192 0.931 . S
C164 C163 1.395 . S
C164 C165 1.383 . S
C164 H193 0.931 . S
C165 C164 1.383 . S
C165 C166 1.394 . S
C166 C165 1.394 . S
C166 C167 1.378 . S
C166 H194 0.931 . S
C167 C162 1.377 . S
C167 C166 1.378 . S
C167 H195 0.931 . S
C168 O182 1.291 . S
C168 O183 1.270 . S
C169 O184 1.251 . S
C169 O185 1.251 . S
C170 Eu171 2.835 . S
C170 C172 1.500 . S
C170 O186 1.257 . S
C170 O187 1.260 . S
Eu171 C170 2.835 . S
Eu171 O183 2.355 . S
Eu171 O185 2.374 . S
Eu171 O186 2.473 . S
Eu171 O187 2.480 . S
Eu171 O188 2.430 . S
Eu171 O189 2.670 . S
Eu171 O190 2.394 . S
C172 C170 1.500 . S
C172 C173 1.377 . S
C172 C177 1.377 . S
C173 C172 1.377 . S
C173 C174 1.395 . S
C173 H196 0.931 . S
C174 C173 1.395 . S
C174 C175 1.383 . S
C174 H197 0.931 . S
C175 C174 1.383 . S
C175 C176 1.394 . S
C176 C175 1.394 . S
C176 C177 1.378 . S
C176 H198 0.931 . S
C177 C172 1.377 . S
C177 C176 1.378 . S
C177 H199 0.931 . S
C178 O188 1.259 . S
C178 O189 1.270 . S
C179 O190 1.251 . S
C179 O191 1.251 . S
O180 C160 1.257 1_554 S
O180 Eu161 2.473 . S
O181 C160 1.260 . S
O181 Eu161 2.480 1_556 S
O182 Eu161 2.461 . S
O182 C168 1.291 . S
O183 Eu161 2.670 . S
O183 C168 1.270 . S
O183 Eu171 2.355 . S
O184 Eu161 2.394 . S
O184 C169 1.251 . S
O185 C169 1.251 . S
O185 Eu171 2.374 . S
O186 C170 1.257 . S
O186 Eu171 2.473 . S
O187 C170 1.260 . S
O187 Eu171 2.480 . S
O188 Eu171 2.430 . S
O188 C178 1.259 . S
O189 Eu161 2.355 . S
O189 Eu171 2.670 . S
O189 C178 1.270 . S
O190 Eu171 2.394 . S
O190 C179 1.251 . S
O191 Eu161 2.374 . S
O191 C179 1.251 . S
H192 C163 0.931 . S
H193 C164 0.931 . S
H194 C166 0.931 . S
H195 C167 0.931 . S
H196 C173 0.931 . S
H197 C174 0.931 . S
H198 C176 0.931 . S
H199 C177 0.931 . S
C200 Eu201 2.835 . S
C200 C202 1.500 . S
C200 O220 1.257 . S
C200 O221 1.260 . S
Eu201 C200 2.835 . S
Eu201 O220 2.473 . S
Eu201 O221 2.480 . S
Eu201 O222 2.430 1_655 S
Eu201 O223 2.670 1_655 S
Eu201 O224 2.394 . S
Eu201 O229 2.355 . S
Eu201 O231 2.374 1_655 S
C202 C200 1.500 . S
C202 C203 1.377 . S
C202 C207 1.377 . S
C203 C202 1.377 . S
C203 C204 1.395 . S
C203 H232 0.931 . S
C204 C203 1.395 . S
C204 C205 1.383 . S
C204 H233 0.931 . S
C205 C204 1.383 . S
C205 C206 1.394 . S
C206 C205 1.394 . S
C206 C207 1.378 . S
C206 H234 0.931 . S
C207 C202 1.377 . S
C207 C206 1.378 . S
C207 H235 0.931 . S
C208 O222 1.259 . S
C208 O223 1.270 . S
C209 O224 1.251 . S
C209 O225 1.251 . S
C210 Eu211 2.835 . S
C210 C212 1.500 . S
C210 O226 1.257 . S
C210 O227 1.260 . S
Eu211 C210 2.835 . S
Eu211 O223 2.355 . S
Eu211 O225 2.374 1_455 S
Eu211 O226 2.473 . S
Eu211 O227 2.480 . S
Eu211 O228 2.430 1_455 S
Eu211 O229 2.670 1_455 S
Eu211 O230 2.394 . S
C212 C210 1.500 . S
C212 C213 1.377 . S
C212 C217 1.377 . S
C213 C212 1.377 . S
C213 C214 1.395 . S
C213 H236 0.931 . S
C214 C213 1.395 . S
C214 C215 1.383 . S
C214 H237 0.931 . S
C215 C214 1.383 . S
C215 C216 1.394 . S
C216 C215 1.394 . S
C216 C217 1.378 . S
C216 H238 0.931 . S
C217 C212 1.377 . S
C217 C216 1.378 . S
C217 H239 0.931 . S
C218 O228 1.259 . S
C218 O229 1.270 . S
C219 O230 1.251 . S
C219 O231 1.251 . S
O220 C200 1.257 . S
O220 Eu201 2.473 . S
O221 C200 1.260 . S
O221 Eu201 2.480 . S
O222 Eu201 2.430 1_455 S
O222 C208 1.259 . S
O223 Eu201 2.670 1_455 S
O223 C208 1.270 . S
O223 Eu211 2.355 . S
O224 Eu201 2.394 . S
O224 C209 1.251 . S
O225 C209 1.251 . S
O225 Eu211 2.374 1_655 S
O226 C210 1.257 . S
O226 Eu211 2.473 . S
O227 C210 1.260 . S
O227 Eu211 2.480 . S
O228 Eu211 2.430 1_655 S
O228 C218 1.259 . S
O229 Eu201 2.355 . S
O229 Eu211 2.670 1_655 S
O229 C218 1.270 . S
O230 Eu211 2.394 . S
O230 C219 1.251 . S
O231 Eu201 2.374 1_455 S
O231 C219 1.251 . S
H232 C203 0.931 . S
H233 C204 0.931 . S
H234 C206 0.931 . S
H235 C207 0.931 . S
H236 C213 0.931 . S
H237 C214 0.931 . S
H238 C216 0.931 . S
H239 C217 0.931 . S
C240 Eu241 2.835 . S
C240 C242 1.500 . S
C240 O260 1.257 . S
C240 O261 1.260 . S
Eu241 C240 2.835 . S
Eu241 O260 2.473 . S
Eu241 O261 2.480 . S
Eu241 O262 2.430 1_455 S
Eu241 O263 2.670 1_455 S
Eu241 O264 2.394 . S
Eu241 O269 2.355 . S
Eu241 O271 2.374 1_455 S
C242 C240 1.500 . S
C242 C243 1.377 . S
C242 C247 1.377 . S
C243 C242 1.377 . S
C243 C244 1.395 . S
C243 H272 0.931 . S
C244 C243 1.395 . S
C244 C245 1.383 . S
C244 H273 0.931 . S
C245 C244 1.383 . S
C245 C246 1.394 . S
C246 C245 1.394 . S
C246 C247 1.378 . S
C246 H274 0.931 . S
C247 C242 1.377 . S
C247 C246 1.378 . S
C247 H275 0.931 . S
C248 O262 1.259 . S
C248 O263 1.270 . S
C249 O264 1.251 . S
C249 O265 1.251 . S
C250 Eu251 2.835 . S
C250 C252 1.500 . S
C250 O266 1.257 . S
C250 O267 1.260 . S
Eu251 C250 2.835 . S
Eu251 O263 2.355 . S
Eu251 O265 2.374 1_655 S
Eu251 O266 2.473 . S
Eu251 O267 2.480 . S
Eu251 O268 2.430 1_655 S
Eu251 O269 2.670 1_655 S
Eu251 O270 2.394 . S
C252 C250 1.500 . S
C252 C253 1.377 . S
C252 C257 1.377 . S
C253 C252 1.377 . S
C253 C254 1.395 . S
C253 H276 0.931 . S
C254 C253 1.395 . S
C254 C255 1.383 . S
C254 H277 0.931 . S
C255 C254 1.383 . S
C255 C256 1.394 . S
C256 C255 1.394 . S
C256 C257 1.378 . S
C256 H278 0.931 . S
C257 C252 1.377 . S
C257 C256 1.378 . S
C257 H279 0.931 . S
C258 O268 1.259 . S
C258 O269 1.270 . S
C259 O270 1.251 . S
C259 O271 1.251 . S
O260 C240 1.257 . S
O260 Eu241 2.473 . S
O261 C240 1.260 . S
O261 Eu241 2.480 . S
O262 Eu241 2.430 1_655 S
O262 C248 1.259 . S
O263 Eu241 2.670 1_655 S
O263 C248 1.270 . S
O263 Eu251 2.355 . S
O264 Eu241 2.394 . S
O264 C249 1.251 . S
O265 C249 1.251 . S
O265 Eu251 2.374 1_455 S
O266 C250 1.257 . S
O266 Eu251 2.473 . S
O267 C250 1.260 . S
O267 Eu251 2.480 . S
O268 Eu251 2.430 1_455 S
O268 C258 1.259 . S
O269 Eu241 2.355 . S
O269 Eu251 2.670 1_455 S
O269 C258 1.270 . S
O270 Eu251 2.394 . S
O270 C259 1.251 . S
O271 Eu241 2.374 1_655 S
O271 C259 1.251 . S
H272 C243 0.931 . S
H273 C244 0.931 . S
H274 C246 0.931 . S
H275 C247 0.931 . S
H276 C253 0.931 . S
H277 C254 0.931 . S
H278 C256 0.931 . S
H279 C257 0.931 . S
C280 Eu281 2.835 . S
C280 C282 1.500 . S
C280 O300 1.257 . S
C280 O301 1.260 . S
Eu281 C280 2.835 . S
Eu281 O300 2.473 . S
Eu281 O301 2.480 . S
Eu281 O302 2.430 1_545 S
Eu281 O303 2.670 1_545 S
Eu281 O304 2.394 . S
Eu281 O309 2.355 . S
Eu281 O311 2.374 1_545 S
C282 C280 1.500 . S
C282 C283 1.377 . S
C282 C287 1.377 . S
C283 C282 1.377 . S
C283 C284 1.395 . S
C283 H312 0.931 . S
C284 C283 1.395 . S
C284 C285 1.383 . S
C284 H313 0.931 . S
C285 C284 1.383 . S
C285 C286 1.394 . S
C286 C285 1.394 . S
C286 C287 1.378 . S
C286 H314 0.931 . S
C287 C282 1.377 . S
C287 C286 1.378 . S
C287 H315 0.931 . S
C288 O302 1.259 . S
C288 O303 1.270 . S
C289 O304 1.251 . S
C289 O305 1.251 . S
C290 Eu291 2.835 . S
C290 C292 1.500 . S
C290 O306 1.257 . S
C290 O307 1.260 . S
Eu291 C290 2.835 . S
Eu291 O303 2.355 . S
Eu291 O305 2.374 1_565 S
Eu291 O306 2.473 . S
Eu291 O307 2.480 . S
Eu291 O308 2.430 1_565 S
Eu291 O309 2.670 1_565 S
Eu291 O310 2.394 . S
C292 C290 1.500 . S
C292 C293 1.377 . S
C292 C297 1.377 . S
C293 C292 1.377 . S
C293 C294 1.395 . S
C293 H316 0.931 . S
C294 C293 1.395 . S
C294 C295 1.383 . S
C294 H317 0.931 . S
C295 C294 1.383 . S
C295 C296 1.394 . S
C296 C295 1.394 . S
C296 C297 1.378 . S
C296 H318 0.931 . S
C297 C292 1.377 . S
C297 C296 1.378 . S
C297 H319 0.931 . S
C298 O308 1.259 . S
C298 O309 1.270 . S
C299 O310 1.251 . S
C299 O311 1.251 . S
O300 C280 1.257 . S
O300 Eu281 2.473 . S
O301 C280 1.260 . S
O301 Eu281 2.480 . S
O302 Eu281 2.430 1_565 S
O302 C288 1.259 . S
O303 Eu281 2.670 1_565 S
O303 C288 1.270 . S
O303 Eu291 2.355 . S
O304 Eu281 2.394 . S
O304 C289 1.251 . S
O305 C289 1.251 . S
O305 Eu291 2.374 1_545 S
O306 C290 1.257 . S
O306 Eu291 2.473 . S
O307 C290 1.260 . S
O307 Eu291 2.480 . S
O308 Eu291 2.430 1_545 S
O308 C298 1.259 . S
O309 Eu281 2.355 . S
O309 Eu291 2.670 1_545 S
O309 C298 1.270 . S
O310 Eu291 2.394 . S
O310 C299 1.251 . S
O311 Eu281 2.374 1_565 S
O311 C299 1.251 . S
H312 C283 0.931 . S
H313 C284 0.931 . S
H314 C286 0.931 . S
H315 C287 0.931 . S
H316 C293 0.931 . S
H317 C294 0.931 . S
H318 C296 0.931 . S
H319 C297 0.931 . S
C320 Eu321 2.835 . S
C320 C322 1.500 . S
C320 O340 1.257 . S
C320 O341 1.260 . S
Eu321 C320 2.835 . S
Eu321 O340 2.473 . S
Eu321 O341 2.480 . S
Eu321 O342 2.430 . S
Eu321 O343 2.670 . S
Eu321 O344 2.394 . S
Eu321 O349 2.355 . S
Eu321 O351 2.374 . S
C322 C320 1.500 . S
C322 C323 1.377 . S
C322 C327 1.377 . S
C323 C322 1.377 . S
C323 C324 1.395 . S
C323 H352 0.931 . S
C324 C323 1.395 . S
C324 C325 1.383 . S
C324 H353 0.931 . S
C325 C324 1.383 . S
C325 C326 1.394 . S
C326 C325 1.394 . S
C326 C327 1.378 . S
C326 H354 0.931 . S
C327 C322 1.377 . S
C327 C326 1.378 . S
C327 H355 0.931 . S
C328 O342 1.259 . S
C328 O343 1.270 . S
C329 O344 1.251 . S
C329 O345 1.251 . S
C330 Eu331 2.835 . S
C330 C332 1.500 . S
C330 O346 1.257 . S
C330 O347 1.260 . S
Eu331 C330 2.835 . S
Eu331 O343 2.355 . S
Eu331 O345 2.374 . S
Eu331 O346 2.473 . S
Eu331 O347 2.480 . S
Eu331 O348 2.430 . S
Eu331 O349 2.670 . S
Eu331 O350 2.394 . S
C332 C330 1.500 . S
C332 C333 1.377 . S
C332 C337 1.377 . S
C333 C332 1.377 . S
C333 C334 1.395 . S
C333 H356 0.931 . S
C334 C333 1.395 . S
C334 C335 1.383 . S
C334 H357 0.931 . S
C335 C334 1.383 . S
C335 C336 1.394 . S
C336 C335 1.394 . S
C336 C337 1.378 . S
C336 H358 0.931 . S
C337 C332 1.377 . S
C337 C336 1.378 . S
C337 H359 0.931 . S
C338 O348 1.259 . S
C338 O349 1.270 . S
C339 O350 1.251 . S
C339 O351 1.251 . S
O340 C320 1.257 . S
O340 Eu321 2.473 . S
O341 C320 1.260 . S
O341 Eu321 2.480 . S
O342 Eu321 2.430 . S
O342 C328 1.259 . S
O343 Eu321 2.670 . S
O343 C328 1.270 . S
O343 Eu331 2.355 . S
O344 Eu321 2.394 . S
O344 C329 1.251 . S
O345 C329 1.251 . S
O345 Eu331 2.374 . S
O346 C330 1.257 . S
O346 Eu331 2.473 . S
O347 C330 1.260 . S
O347 Eu331 2.480 . S
O348 Eu331 2.430 . S
O348 C338 1.259 . S
O349 Eu321 2.355 . S
O349 Eu331 2.670 . S
O349 C338 1.270 . S
O350 Eu331 2.394 . S
O350 C339 1.251 . S
O351 Eu321 2.374 . S
O351 C339 1.251 . S
H352 C323 0.931 . S
H353 C324 0.931 . S
H354 C326 0.931 . S
H355 C327 0.931 . S
H356 C333 0.931 . S
H357 C334 0.931 . S
H358 C336 0.931 . S
H359 C337 0.931 . S
C360 Eu361 2.835 . S
C360 C362 1.500 1_556 S
C360 O380 1.257 . S
C360 O381 1.260 . S
Eu361 C360 2.835 . S
Eu361 O380 2.473 . S
Eu361 O381 2.480 . S
Eu361 O382 2.430 1_655 S
Eu361 O383 2.670 1_655 S
Eu361 O384 2.394 . S
Eu361 O389 2.355 . S
Eu361 O391 2.374 1_655 S
C362 C360 1.500 1_554 S
C362 C363 1.377 . S
C362 C367 1.373 1_554 S
C363 C362 1.377 . S
C363 C364 1.395 . S
C363 H392 0.931 . S
C364 C363 1.395 . S
C364 C365 1.383 . S
C364 H393 0.931 . S
C365 C364 1.383 . S
C365 C366 1.394 . S
C366 C365 1.394 . S
C366 C367 1.362 1_554 S
C366 H394 0.931 . S
C367 C362 1.373 1_556 S
C367 C366 1.362 1_556 S
C367 H395 0.952 . S
C368 O382 1.259 . S
C368 O383 1.270 . S
C369 O384 1.251 . S
C369 O385 1.251 . S
C370 Eu371 2.835 . S
C370 C372 1.500 . S
C370 O386 1.257 . S
C370 O387 1.260 . S
Eu371 C370 2.835 . S
Eu371 O383 2.355 . S
Eu371 O385 2.374 1_455 S
Eu371 O386 2.473 . S
Eu371 O387 2.480 . S
Eu371 O388 2.430 1_455 S
Eu371 O389 2.670 1_455 S
Eu371 O390 2.394 . S
C372 C370 1.500 . S
C372 C373 1.377 . S
C372 C377 1.377 . S
C373 C372 1.377 . S
C373 C374 1.395 . S
C373 H396 0.931 . S
C374 C373 1.395 . S
C374 C375 1.383 . S
C374 H397 0.931 . S
C375 C374 1.383 . S
C375 C376 1.394 . S
C376 C375 1.394 . S
C376 C377 1.378 . S
C376 H398 0.931 . S
C377 C372 1.377 . S
C377 C376 1.378 . S
C377 H399 0.931 . S
C378 O388 1.259 . S
C378 O389 1.270 . S
C379 O390 1.251 . S
C379 O391 1.251 . S
O380 C360 1.257 . S
O380 Eu361 2.473 . S
O381 C360 1.260 . S
O381 Eu361 2.480 . S
O382 Eu361 2.430 1_455 S
O382 C368 1.259 . S
O383 Eu361 2.670 1_455 S
O383 C368 1.270 . S
O383 Eu371 2.355 . S
O384 Eu361 2.394 . S
O384 C369 1.251 . S
O385 C369 1.251 . S
O385 Eu371 2.374 1_655 S
O386 C370 1.257 . S
O386 Eu371 2.473 . S
O387 C370 1.260 . S
O387 Eu371 2.480 . S
O388 Eu371 2.430 1_655 S
O388 C378 1.259 . S
O389 Eu361 2.355 . S
O389 Eu371 2.670 1_655 S
O389 C378 1.270 . S
O390 Eu371 2.394 . S
O390 C379 1.251 . S
O391 Eu361 2.374 1_455 S
O391 C379 1.251 . S
H392 C363 0.931 . S
H393 C364 0.931 . S
H394 C366 0.931 . S
H395 C367 0.952 . S
H396 C373 0.931 . S
H397 C374 0.931 . S
H398 C376 0.931 . S
H399 C377 0.931 . S
C400 Eu401 2.835 . S
C400 C402 1.500 . S
C400 O420 1.257 . S
C400 O421 1.260 . S
Eu401 C400 2.835 . S
Eu401 O420 2.473 . S
Eu401 O421 2.480 . S
Eu401 O422 2.430 1_565 S
Eu401 O423 2.670 1_565 S
Eu401 O424 2.394 . S
Eu401 O429 2.355 . S
Eu401 O431 2.374 1_565 S
C402 C400 1.500 . S
C402 C403 1.377 . S
C402 C407 1.377 . S
C403 C402 1.377 . S
C403 C404 1.395 . S
C403 H432 0.931 . S
C404 C403 1.395 . S
C404 C405 1.383 . S
C404 H433 0.931 . S
C405 C404 1.383 . S
C405 C406 1.394 . S
C406 C405 1.394 . S
C406 C407 1.378 . S
C406 H434 0.931 . S
C407 C402 1.377 . S
C407 C406 1.378 . S
C407 H435 0.931 . S
C408 O422 1.259 . S
C408 O423 1.270 . S
C409 O424 1.251 . S
C409 O425 1.251 . S
C410 Eu411 2.835 . S
C410 C412 1.500 . S
C410 O426 1.257 . S
C410 O427 1.260 . S
Eu411 C410 2.835 . S
Eu411 O423 2.355 . S
Eu411 O425 2.374 1_545 S
Eu411 O426 2.473 . S
Eu411 O427 2.480 . S
Eu411 O428 2.430 1_545 S
Eu411 O429 2.670 1_545 S
Eu411 O430 2.394 . S
C412 C410 1.500 . S
C412 C413 1.377 . S
C412 C417 1.377 . S
C413 C412 1.377 . S
C413 C414 1.395 . S
C413 H436 0.931 . S
C414 C413 1.395 . S
C414 C415 1.383 . S
C414 H437 0.931 . S
C415 C414 1.383 . S
C415 C416 1.394 . S
C416 C415 1.394 . S
C416 C417 1.378 . S
C416 H438 0.931 . S
C417 C412 1.377 . S
C417 C416 1.378 . S
C417 H439 0.931 . S
C418 O428 1.259 . S
C418 O429 1.270 . S
C419 O430 1.251 . S
C419 O431 1.251 . S
O420 C400 1.257 . S
O420 Eu401 2.473 . S
O421 C400 1.260 . S
O421 Eu401 2.480 . S
O422 Eu401 2.430 1_545 S
O422 C408 1.259 . S
O423 Eu401 2.670 1_545 S
O423 C408 1.270 . S
O423 Eu411 2.355 . S
O424 Eu401 2.394 . S
O424 C409 1.251 . S
O425 C409 1.251 . S
O425 Eu411 2.374 1_565 S
O426 C410 1.257 . S
O426 Eu411 2.473 . S
O427 C410 1.260 . S
O427 Eu411 2.480 . S
O428 Eu411 2.430 1_565 S
O428 C418 1.259 . S
O429 Eu401 2.355 . S
O429 Eu411 2.670 1_565 S
O429 C418 1.270 . S
O430 Eu411 2.394 . S
O430 C419 1.251 . S
O431 Eu401 2.374 1_545 S
O431 C419 1.251 . S
H432 C403 0.931 . S
H433 C404 0.931 . S
H434 C406 0.931 . S
H435 C407 0.931 . S
H436 C413 0.931 . S
H437 C414 0.931 . S
H438 C416 0.931 . S
H439 C417 0.931 . S
C440 Eu441 2.835 . S
C440 C442 1.500 . S
C440 O460 1.257 . S
C440 O461 1.260 . S
Eu441 C440 2.835 . S
Eu441 O460 2.473 . S
Eu441 O461 2.480 . S
Eu441 O462 2.430 . S
Eu441 O463 2.670 . S
Eu441 O464 2.394 . S
Eu441 O469 2.355 . S
Eu441 O471 2.374 . S
C442 C440 1.500 . S
C442 C443 1.377 . S
C442 C447 1.377 . S
C443 C442 1.377 . S
C443 C444 1.395 . S
C443 H472 0.931 . S
C444 C443 1.395 . S
C444 C445 1.383 . S
C444 H473 0.931 . S
C445 C444 1.383 . S
C445 C446 1.394 . S
C446 C445 1.394 . S
C446 C447 1.378 . S
C446 H474 0.931 . S
C447 C442 1.377 . S
C447 C446 1.378 . S
C447 H475 0.931 . S
C448 O462 1.259 . S
C448 O463 1.270 . S
C449 O464 1.251 . S
C449 O465 1.251 . S
C450 Eu451 2.835 . S
C450 C452 1.500 . S
C450 O466 1.257 . S
C450 O467 1.260 . S
Eu451 C450 2.835 . S
Eu451 O463 2.355 . S
Eu451 O465 2.374 . S
Eu451 O466 2.473 . S
Eu451 O467 2.480 . S
Eu451 O468 2.430 . S
Eu451 O469 2.670 . S
Eu451 O470 2.394 . S
C452 C450 1.500 . S
C452 C453 1.377 . S
C452 C457 1.377 . S
C453 C452 1.377 . S
C453 C454 1.395 . S
C453 H476 0.931 . S
C454 C453 1.395 . S
C454 C455 1.383 . S
C454 H477 0.931 . S
C455 C454 1.383 . S
C455 C456 1.394 . S
C456 C455 1.394 . S
C456 C457 1.378 . S
C456 H478 0.931 . S
C457 C452 1.377 . S
C457 C456 1.378 . S
C457 H479 0.931 . S
C458 O468 1.259 . S
C458 O469 1.270 . S
C459 O470 1.251 . S
C459 O471 1.251 . S
O460 C440 1.257 . S
O460 Eu441 2.473 . S
O461 C440 1.260 . S
O461 Eu441 2.480 . S
O462 Eu441 2.430 . S
O462 C448 1.259 . S
O463 Eu441 2.670 . S
O463 C448 1.270 . S
O463 Eu451 2.355 . S
O464 Eu441 2.394 . S
O464 C449 1.251 . S
O465 C449 1.251 . S
O465 Eu451 2.374 . S
O466 C450 1.257 . S
O466 Eu451 2.473 . S
O467 C450 1.260 . S
O467 Eu451 2.480 . S
O468 Eu451 2.430 . S
O468 C458 1.259 . S
O469 Eu441 2.355 . S
O469 Eu451 2.670 . S
O469 C458 1.270 . S
O470 Eu451 2.394 . S
O470 C459 1.251 . S
O471 Eu441 2.374 . S
O471 C459 1.251 . S
H472 C443 0.931 . S
H473 C444 0.931 . S
H474 C446 0.931 . S
H475 C447 0.931 . S
H476 C453 0.931 . S
H477 C454 0.931 . S
H478 C456 0.931 . S
H479 C457 0.931 . S
H480 C492 0.930 . S
H481 C494 0.930 . S
H482 C495 0.930 . S
H483 C499 0.959 . S
H484 C499 0.959 . S
H485 C499 0.961 . S
H486 C500 0.960 . S
H487 C500 0.961 . S
H488 C500 0.959 . S
H489 C503 0.929 . S
H490 C504 0.931 . S
H491 C506 0.930 . S
C492 H480 0.930 . S
C492 C493 1.399 . S
C492 C497 1.399 . S
C493 C492 1.399 . S
C493 C494 1.376 . S
C494 H481 0.930 . S
C494 C493 1.376 . S
C494 C495 1.388 . S
C495 H482 0.930 . S
C495 C494 1.388 . S
C495 C496 1.390 . S
C496 C495 1.390 . S
C496 C497 1.394 . S
C496 C502 1.465 . S
C497 C492 1.399 . S
C497 C496 1.394 . S
C497 C498 1.516 . S
C498 C497 1.516 . S
C498 C499 1.502 . S
C498 C500 1.561 . S
C498 C501 1.526 . S
C499 H483 0.959 . S
C499 H484 0.959 . S
C499 H485 0.961 . S
C499 C498 1.502 . S
C500 H486 0.960 . S
C500 H487 0.961 . S
C500 H488 0.959 . S
C500 C498 1.561 . S
C501 C498 1.526 . S
C501 C502 1.396 . S
C501 C506 1.390 . S
C502 C496 1.465 . S
C502 C501 1.396 . S
C502 C503 1.399 . S
C503 H489 0.929 . S
C503 C502 1.399 . S
C503 C504 1.385 . S
C504 H490 0.931 . S
C504 C503 1.385 . S
C504 C505 1.389 . S
C505 C504 1.389 . S
C505 C506 1.387 . S
C506 H491 0.930 . S
C506 C501 1.390 . S
C506 C505 1.387 . S
H507 C519 0.930 . S
H508 C521 0.930 . S
H509 C522 0.930 . S
H510 C526 0.959 . S
H511 C526 0.959 . S
H512 C526 0.961 . S
H513 C527 0.960 . S
H514 C527 0.961 . S
H515 C527 0.959 . S
H516 C530 0.933 . S
H517 C531 0.931 . S
H518 C533 0.930 . S
C519 H507 0.930 . S
C519 C520 1.399 . S
C519 C524 1.399 . S
C520 C519 1.399 . S
C520 C521 1.376 . S
C521 H508 0.930 . S
C521 C520 1.376 . S
C521 C522 1.388 . S
C522 H509 0.930 . S
C522 C521 1.388 . S
C522 C523 1.390 . S
C523 C522 1.390 . S
C523 C524 1.394 . S
C523 C529 1.465 . S
C524 C519 1.399 . S
C524 C523 1.394 . S
C524 C525 1.516 . S
C525 C524 1.516 . S
C525 C526 1.502 . S
C525 C527 1.561 . S
C525 C528 1.526 . S
C526 H510 0.959 . S
C526 H511 0.959 . S
C526 H512 0.961 . S
C526 C525 1.502 . S
C527 H513 0.960 . S
C527 H514 0.961 . S
C527 H515 0.959 . S
C527 C525 1.561 . S
C528 C525 1.526 . S
C528 C529 1.396 . S
C528 C533 1.390 . S
C529 C523 1.465 . S
C529 C528 1.396 . S
C529 C530 1.399 . S
C530 H516 0.933 . S
C530 C529 1.399 . S
C530 C531 1.385 . S
C531 H517 0.931 . S
C531 C530 1.385 . S
C531 C532 1.389 . S
C532 C531 1.389 . S
C532 C533 1.387 . S
C533 H518 0.930 . S
C533 C528 1.390 . S
C533 C532 1.387 . S
H534 C546 0.930 . S
H535 C548 0.930 . S
H536 C549 0.930 . S
H537 C553 0.959 . S
H538 C553 0.959 . S
H539 C553 0.961 . S
H540 C554 0.960 . S
H541 C554 0.961 . S
H542 C554 0.959 . S
H543 C557 0.929 . S
H544 C558 0.931 . S
H545 C560 0.930 . S
C546 H534 0.930 . S
C546 C547 1.399 . S
C546 C551 1.399 . S
C547 C546 1.399 . S
C547 C548 1.376 . S
C548 H535 0.930 . S
C548 C547 1.376 . S
C548 C549 1.388 . S
C549 H536 0.930 . S
C549 C548 1.388 . S
C549 C550 1.390 . S
C550 C549 1.390 . S
C550 C551 1.394 . S
C550 C556 1.465 . S
C551 C546 1.399 . S
C551 C550 1.394 . S
C551 C552 1.516 . S
C552 C551 1.516 . S
C552 C553 1.502 . S
C552 C554 1.561 . S
C552 C555 1.526 . S
C553 H537 0.959 . S
C553 H538 0.959 . S
C553 H539 0.961 . S
C553 C552 1.502 . S
C554 H540 0.960 . S
C554 H541 0.961 . S
C554 H542 0.959 . S
C554 C552 1.561 . S
C555 C552 1.526 . S
C555 C556 1.396 . S
C555 C560 1.390 . S
C556 C550 1.465 . S
C556 C555 1.396 . S
C556 C557 1.399 . S
C557 H543 0.929 . S
C557 C556 1.399 . S
C557 C558 1.385 . S
C558 H544 0.931 . S
C558 C557 1.385 . S
C558 C559 1.389 . S
C559 C558 1.389 . S
C559 C560 1.387 . S
C560 H545 0.930 . S
C560 C555 1.390 . S
C560 C559 1.387 . S
H561 C573 0.930 . S
H562 C575 0.930 . S
H563 C576 0.930 . S
H564 C580 0.959 . S
H565 C580 0.959 . S
H566 C580 0.961 . S
H567 C581 0.960 . S
H568 C581 0.961 . S
H569 C581 0.959 . S
H570 C584 0.929 . S
H571 C585 0.931 . S
H572 C587 0.930 . S
C573 H561 0.930 . S
C573 C574 1.399 . S
C573 C578 1.399 . S
C574 C573 1.399 . S
C574 C575 1.376 . S
C575 H562 0.930 . S
C575 C574 1.376 . S
C575 C576 1.388 . S
C576 H563 0.930 . S
C576 C575 1.388 . S
C576 C577 1.390 . S
C577 C576 1.390 . S
C577 C578 1.394 . S
C577 C583 1.465 . S
C578 C573 1.399 . S
C578 C577 1.394 . S
C578 C579 1.516 . S
C579 C578 1.516 . S
C579 C580 1.502 . S
C579 C581 1.561 . S
C579 C582 1.526 . S
C580 H564 0.959 . S
C580 H565 0.959 . S
C580 H566 0.961 . S
C580 C579 1.502 . S
C581 H567 0.960 . S
C581 H568 0.961 . S
C581 H569 0.959 . S
C581 C579 1.561 . S
C582 C579 1.526 . S
C582 C583 1.396 . S
C582 C587 1.390 . S
C583 C577 1.465 . S
C583 C582 1.396 . S
C583 C584 1.399 . S
C584 H570 0.929 . S
C584 C583 1.399 . S
C584 C585 1.385 . S
C585 H571 0.931 . S
C585 C584 1.385 . S
C585 C586 1.389 . S
C586 C585 1.389 . S
C586 C587 1.387 . S
C587 H572 0.930 . S
C587 C582 1.390 . S
C587 C586 1.387 . S
H588 C600 0.930 . S
H589 C602 0.930 . S
H590 C603 0.930 . S
H591 C607 0.959 . S
H592 C607 0.959 . S
H593 C607 0.956 1_545 S
H594 C608 0.960 . S
H595 C608 0.961 . S
H596 C608 0.959 1_565 S
H597 C611 0.929 . S
H598 C612 0.931 . S
H599 C614 0.930 . S
C600 H588 0.930 . S
C600 C601 1.399 . S
C600 C605 1.399 . S
C601 C600 1.399 . S
C601 C602 1.376 . S
C602 H589 0.930 . S
C602 C601 1.376 . S
C602 C603 1.388 . S
C603 H590 0.930 . S
C603 C602 1.388 . S
C603 C604 1.390 . S
C604 C603 1.390 . S
C604 C605 1.394 . S
C604 C610 1.465 . S
C605 C600 1.399 . S
C605 C604 1.394 . S
C605 C606 1.516 . S
C606 C605 1.516 . S
C606 C607 1.502 . S
C606 C608 1.561 1_565 S
C606 C609 1.526 . S
C607 H591 0.959 . S
C607 H592 0.959 . S
C607 H593 0.956 1_565 S
C607 C606 1.502 . S
C608 H594 0.960 . S
C608 H595 0.961 . S
C608 H596 0.959 1_545 S
C608 C606 1.561 1_545 S
C609 C606 1.526 . S
C609 C610 1.396 . S
C609 C614 1.390 . S
C610 C604 1.465 . S
C610 C609 1.396 . S
C610 C611 1.399 . S
C611 H597 0.929 . S
C611 C610 1.399 . S
C611 C612 1.385 . S
C612 H598 0.931 . S
C612 C611 1.385 . S
C612 C613 1.389 . S
C613 C612 1.389 . S
C613 C614 1.387 . S
C614 H599 0.930 . S
C614 C609 1.390 . S
C614 C613 1.387 . S
H615 C627 0.930 . S
H616 C629 0.930 . S
H617 C630 0.930 . S
H618 C634 0.959 . S
H619 C634 0.959 . S
H620 C634 0.961 . S
H621 C635 0.960 . S
H622 C635 0.961 . S
H623 C635 0.959 . S
H624 C638 0.929 . S
H625 C639 0.931 . S
H626 C641 0.930 . S
C627 H615 0.930 . S
C627 C628 1.399 . S
C627 C632 1.399 . S
C628 C627 1.399 . S
C628 C629 1.376 . S
C629 H616 0.930 . S
C629 C628 1.376 . S
C629 C630 1.388 . S
C630 H617 0.930 . S
C630 C629 1.388 . S
C630 C631 1.390 . S
C631 C630 1.390 . S
C631 C632 1.394 . S
C631 C637 1.465 . S
C632 C627 1.399 . S
C632 C631 1.394 . S
C632 C633 1.516 . S
C633 C632 1.516 . S
C633 C634 1.502 . S
C633 C635 1.561 . S
C633 C636 1.526 . S
C634 H618 0.959 . S
C634 H619 0.959 . S
C634 H620 0.961 . S
C634 C633 1.502 . S
C635 H621 0.960 . S
C635 H622 0.961 . S
C635 H623 0.959 . S
C635 C633 1.561 . S
C636 C633 1.526 . S
C636 C637 1.396 . S
C636 C641 1.390 . S
C637 C631 1.465 . S
C637 C636 1.396 . S
C637 C638 1.399 . S
C638 H624 0.929 . S
C638 C637 1.399 . S
C638 C639 1.385 . S
C639 H625 0.931 . S
C639 C638 1.385 . S
C639 C640 1.389 . S
C640 C639 1.389 . S
C640 C641 1.387 . S
C641 H626 0.930 . S
C641 C636 1.390 . S
C641 C640 1.387 . S
H642 C654 0.930 . S
H643 C656 0.930 . S
H644 C657 0.930 . S
H645 C661 0.959 . S
H646 C661 0.959 . S
H647 C661 0.961 . S
H648 C662 0.960 . S
H649 C662 0.961 . S
H650 C662 0.959 . S
H651 C665 0.929 . S
H652 C666 0.931 . S
H653 C668 0.930 . S
C654 H642 0.930 . S
C654 C655 1.399 . S
C654 C659 1.399 . S
C655 C654 1.399 . S
C655 C656 1.376 . S
C656 H643 0.930 . S
C656 C655 1.376 . S
C656 C657 1.388 . S
C657 H644 0.930 . S
C657 C656 1.388 . S
C657 C658 1.390 . S
C658 C657 1.390 . S
C658 C659 1.394 . S
C658 C664 1.465 . S
C659 C654 1.399 . S
C659 C658 1.394 . S
C659 C660 1.516 . S
C660 C659 1.516 . S
C660 C661 1.502 . S
C660 C662 1.561 . S
C660 C663 1.526 . S
C661 H645 0.959 . S
C661 H646 0.959 . S
C661 H647 0.961 . S
C661 C660 1.502 . S
C662 H648 0.960 . S
C662 H649 0.961 . S
C662 H650 0.959 . S
C662 C660 1.561 . S
C663 C660 1.526 . S
C663 C664 1.396 . S
C663 C668 1.390 . S
C664 C658 1.465 . S
C664 C663 1.396 . S
C664 C665 1.399 . S
C665 H651 0.929 . S
C665 C664 1.399 . S
C665 C666 1.385 . S
C666 H652 0.931 . S
C666 C665 1.385 . S
C666 C667 1.389 . S
C667 C666 1.389 . S
C667 C668 1.387 . S
C668 H653 0.930 . S
C668 C663 1.390 . S
C668 C667 1.387 . S
H669 C681 0.930 . S
H670 C683 0.930 . S
H671 C684 0.930 . S
H672 C688 0.959 . S
H673 C688 0.959 . S
H674 C688 0.961 . S
H675 C689 0.960 . S
H676 C689 0.961 . S
H677 C689 0.959 . S
H678 C692 0.929 . S
H679 C693 0.931 . S
H680 C695 0.930 . S
C681 H669 0.930 . S
C681 C682 1.399 . S
C681 C686 1.399 . S
C682 C681 1.399 . S
C682 C683 1.376 . S
C683 H670 0.930 . S
C683 C682 1.376 . S
C683 C684 1.388 . S
C684 H671 0.930 . S
C684 C683 1.388 . S
C684 C685 1.390 . S
C685 C684 1.390 . S
C685 C686 1.394 . S
C685 C691 1.465 . S
C686 C681 1.399 . S
C686 C685 1.394 . S
C686 C687 1.516 . S
C687 C686 1.516 . S
C687 C688 1.502 . S
C687 C689 1.561 . S
C687 C690 1.526 . S
C688 H672 0.959 . S
C688 H673 0.959 . S
C688 H674 0.961 . S
C688 C687 1.502 . S
C689 H675 0.960 . S
C689 H676 0.961 . S
C689 H677 0.959 . S
C689 C687 1.561 . S
C690 C687 1.526 . S
C690 C691 1.396 . S
C690 C695 1.390 . S
C691 C685 1.465 . S
C691 C690 1.396 . S
C691 C692 1.399 . S
C692 H678 0.929 . S
C692 C691 1.399 . S
C692 C693 1.385 . S
C693 H679 0.931 . S
C693 C692 1.385 . S
C693 C694 1.389 . S
C694 C693 1.389 . S
C694 C695 1.387 . S
C695 H680 0.930 . S
C695 C690 1.390 . S
C695 C694 1.387 . S
H696 C708 0.930 . S
H697 C710 0.930 . S
H698 C711 0.930 . S
H699 C715 0.959 . S
H700 C715 0.959 . S
H701 C715 0.961 . S
H702 C716 0.960 . S
H703 C716 0.961 . S
H704 C716 0.959 . S
H705 C719 0.929 . S
H706 C720 0.931 . S
H707 C722 0.930 . S
C708 H696 0.930 . S
C708 C709 1.399 . S
C708 C713 1.399 . S
C709 C708 1.399 . S
C709 C710 1.376 . S
C710 H697 0.930 . S
C710 C709 1.376 . S
C710 C711 1.388 . S
C711 H698 0.930 . S
C711 C710 1.388 . S
C711 C712 1.390 . S
C712 C711 1.390 . S
C712 C713 1.394 . S
C712 C718 1.465 . S
C713 C708 1.399 . S
C713 C712 1.394 . S
C713 C714 1.516 . S
C714 C713 1.516 . S
C714 C715 1.502 . S
C714 C716 1.561 . S
C714 C717 1.526 . S
C715 H699 0.959 . S
C715 H700 0.959 . S
C715 H701 0.961 . S
C715 C714 1.502 . S
C716 H702 0.960 . S
C716 H703 0.961 . S
C716 H704 0.959 . S
C716 C714 1.561 . S
C717 C714 1.526 . S
C717 C718 1.396 . S
C717 C722 1.390 . S
C718 C712 1.465 . S
C718 C717 1.396 . S
C718 C719 1.399 . S
C719 H705 0.929 . S
C719 C718 1.399 . S
C719 C720 1.385 . S
C720 H706 0.931 . S
C720 C719 1.385 . S
C720 C721 1.389 . S
C721 C720 1.389 . S
C721 C722 1.387 . S
C722 H707 0.930 . S
C722 C717 1.390 . S
C722 C721 1.387 . S
H723 C735 0.930 . S
H724 C737 0.930 . S
H725 C738 0.930 . S
H726 C742 0.959 . S
H727 C742 0.959 . S
H728 C742 0.961 . S
H729 C743 0.960 . S
H730 C743 0.961 . S
H731 C743 0.959 . S
H732 C746 0.929 . S
H733 C747 0.931 . S
H734 C749 0.930 . S
C735 H723 0.930 . S
C735 C736 1.399 . S
C735 C740 1.399 . S
C736 C735 1.399 . S
C736 C737 1.376 . S
C737 H724 0.930 . S
C737 C736 1.376 . S
C737 C738 1.388 . S
C738 H725 0.930 . S
C738 C737 1.388 . S
C738 C739 1.390 . S
C739 C738 1.390 . S
C739 C740 1.394 . S
C739 C745 1.465 . S
C740 C735 1.399 . S
C740 C739 1.394 . S
C740 C741 1.516 . S
C741 C740 1.516 . S
C741 C742 1.502 . S
C741 C743 1.561 . S
C741 C744 1.526 . S
C742 H726 0.959 . S
C742 H727 0.959 . S
C742 H728 0.961 . S
C742 C741 1.502 . S
C743 H729 0.960 . S
C743 H730 0.961 . S
C743 H731 0.959 . S
C743 C741 1.561 . S
C744 C741 1.526 . S
C744 C745 1.396 . S
C744 C749 1.390 . S
C745 C739 1.465 . S
C745 C744 1.396 . S
C745 C746 1.399 . S
C746 H732 0.929 . S
C746 C745 1.399 . S
C746 C747 1.385 . S
C747 H733 0.931 . S
C747 C746 1.385 . S
C747 C748 1.389 . S
C748 C747 1.389 . S
C748 C749 1.387 . S
C749 H734 0.930 . S
C749 C744 1.390 . S
C749 C748 1.387 . S
H750 C762 0.930 . S
H751 C764 0.930 . S
H752 C765 0.930 . S
H753 C769 0.959 . S
H754 C769 0.959 . S
H755 C769 0.961 . S
H756 C770 0.960 . S
H757 C770 0.961 . S
H758 C770 0.959 . S
H759 C773 0.929 . S
H760 C774 0.931 . S
H761 C776 0.930 . S
C762 H750 0.930 . S
C762 C763 1.399 . S
C762 C767 1.399 . S
C763 C762 1.399 . S
C763 C764 1.376 . S
C764 H751 0.930 . S
C764 C763 1.376 . S
C764 C765 1.388 . S
C765 H752 0.930 . S
C765 C764 1.388 . S
C765 C766 1.390 . S
C766 C765 1.390 . S
C766 C767 1.394 . S
C766 C772 1.465 . S
C767 C762 1.399 . S
C767 C766 1.394 . S
C767 C768 1.516 . S
C768 C767 1.516 . S
C768 C769 1.502 . S
C768 C770 1.561 . S
C768 C771 1.526 . S
C769 H753 0.959 . S
C769 H754 0.959 . S
C769 H755 0.961 . S
C769 C768 1.502 . S
C770 H756 0.960 . S
C770 H757 0.961 . S
C770 H758 0.959 . S
C770 C768 1.561 . S
C771 C768 1.526 . S
C771 C772 1.396 . S
C771 C776 1.390 . S
C772 C766 1.465 . S
C772 C771 1.396 . S
C772 C773 1.399 . S
C773 H759 0.929 . S
C773 C772 1.399 . S
C773 C774 1.385 . S
C774 H760 0.931 . S
C774 C773 1.385 . S
C774 C775 1.389 . S
C775 C774 1.389 . S
C775 C776 1.387 . S
C776 H761 0.930 . S
C776 C771 1.390 . S
C776 C775 1.387 . S
H777 C789 0.930 . S
H778 C791 0.930 . S
H779 C792 0.930 . S
H780 C796 0.959 . S
H781 C796 0.959 . S
H782 C796 0.961 . S
H783 C797 0.960 . S
H784 C797 0.961 . S
H785 C797 0.959 . S
H786 C800 0.929 . S
H787 C801 0.931 . S
H788 C803 0.930 . S
C789 H777 0.930 . S
C789 C790 1.399 . S
C789 C794 1.399 . S
C790 C789 1.399 . S
C790 C791 1.376 . S
C791 H778 0.930 . S
C791 C790 1.376 . S
C791 C792 1.388 . S
C792 H779 0.930 . S
C792 C791 1.388 . S
C792 C793 1.390 . S
C793 C792 1.390 . S
C793 C794 1.394 . S
C793 C799 1.465 . S
C794 C789 1.399 . S
C794 C793 1.394 . S
C794 C795 1.516 . S
C795 C794 1.516 . S
C795 C796 1.502 . S
C795 C797 1.561 . S
C795 C798 1.526 . S
C796 H780 0.959 . S
C796 H781 0.959 . S
C796 H782 0.961 . S
C796 C795 1.502 . S
C797 H783 0.960 . S
C797 H784 0.961 . S
C797 H785 0.959 . S
C797 C795 1.561 . S
C798 C795 1.526 . S
C798 C799 1.396 . S
C798 C803 1.390 . S
C799 C793 1.465 . S
C799 C798 1.396 . S
C799 C800 1.399 . S
C800 H786 0.929 . S
C800 C799 1.399 . S
C800 C801 1.385 . S
C801 H787 0.931 . S
C801 C800 1.385 . S
C801 C802 1.389 . S
C802 C801 1.389 . S
C802 C803 1.387 . S
C803 H788 0.930 . S
C803 C798 1.390 . S
C803 C802 1.387 . S
H804 C816 0.930 . S
H805 C818 0.930 . S
H806 C819 0.930 . S
H807 C823 0.959 . S
H808 C823 0.959 . S
H809 C823 0.961 . S
H810 C824 0.960 . S
H811 C824 0.961 . S
H812 C824 0.959 . S
H813 C827 0.929 . S
H814 C828 0.931 . S
H815 C830 0.930 . S
C816 H804 0.930 . S
C816 C817 1.399 . S
C816 C821 1.399 . S
C817 C816 1.399 . S
C817 C818 1.376 . S
C818 H805 0.930 . S
C818 C817 1.376 . S
C818 C819 1.388 . S
C819 H806 0.930 . S
C819 C818 1.388 . S
C819 C820 1.390 . S
C820 C819 1.390 . S
C820 C821 1.394 . S
C820 C826 1.465 . S
C821 C816 1.399 . S
C821 C820 1.394 . S
C821 C822 1.516 . S
C822 C821 1.516 . S
C822 C823 1.502 . S
C822 C824 1.561 . S
C822 C825 1.526 . S
C823 H807 0.959 . S
C823 H808 0.959 . S
C823 H809 0.961 . S
C823 C822 1.502 . S
C824 H810 0.960 . S
C824 H811 0.961 . S
C824 H812 0.959 . S
C824 C822 1.561 . S
C825 C822 1.526 . S
C825 C826 1.396 . S
C825 C830 1.390 . S
C826 C820 1.465 . S
C826 C825 1.396 . S
C826 C827 1.399 . S
C827 H813 0.929 . S
C827 C826 1.399 . S
C827 C828 1.385 . S
C828 H814 0.931 . S
C828 C827 1.385 . S
C828 C829 1.389 . S
C829 C828 1.389 . S
C829 C830 1.387 . S
C830 H815 0.930 . S
C830 C825 1.390 . S
C830 C829 1.387 . S
H831 C843 0.930 . S
H832 C845 0.930 . S
H833 C846 0.930 . S
H834 C850 0.959 . S
H835 C850 0.959 . S
H836 C850 0.961 . S
H837 C851 0.960 . S
H838 C851 0.961 . S
H839 C851 0.959 . S
H840 C854 0.929 . S
H841 C855 0.931 . S
H842 C857 0.930 . S
C843 H831 0.930 . S
C843 C844 1.399 . S
C843 C848 1.399 . S
C844 C843 1.399 . S
C844 C845 1.376 . S
C845 H832 0.930 . S
C845 C844 1.376 . S
C845 C846 1.388 . S
C846 H833 0.930 . S
C846 C845 1.388 . S
C846 C847 1.390 . S
C847 C846 1.390 . S
C847 C848 1.394 . S
C847 C853 1.465 . S
C848 C843 1.399 . S
C848 C847 1.394 . S
C848 C849 1.516 . S
C849 C848 1.516 . S
C849 C850 1.502 . S
C849 C851 1.561 . S
C849 C852 1.526 . S
C850 H834 0.959 . S
C850 H835 0.959 . S
C850 H836 0.961 . S
C850 C849 1.502 . S
C851 H837 0.960 . S
C851 H838 0.961 . S
C851 H839 0.959 . S
C851 C849 1.561 . S
C852 C849 1.526 . S
C852 C853 1.396 . S
C852 C857 1.390 . S
C853 C847 1.465 . S
C853 C852 1.396 . S
C853 C854 1.399 . S
C854 H840 0.929 . S
C854 C853 1.399 . S
C854 C855 1.385 . S
C855 H841 0.931 . S
C855 C854 1.385 . S
C855 C856 1.389 . S
C856 C855 1.389 . S
C856 C857 1.387 . S
C857 H842 0.930 . S
C857 C852 1.390 . S
C857 C856 1.387 . S
H858 C870 0.930 . S
H859 C872 0.930 . S
H860 C873 0.930 . S
H861 C877 0.959 . S
H862 C877 0.959 . S
H863 C877 0.961 . S
H864 C878 0.960 . S
H865 C878 0.961 . S
H866 C878 0.959 . S
H867 C881 0.929 . S
H868 C882 0.931 . S
H869 C884 0.930 . S
C870 H858 0.930 . S
C870 C871 1.399 . S
C870 C875 1.399 . S
C871 C870 1.399 . S
C871 C872 1.376 . S
C872 H859 0.930 . S
C872 C871 1.376 . S
C872 C873 1.388 . S
C873 H860 0.930 . S
C873 C872 1.388 . S
C873 C874 1.390 . S
C874 C873 1.390 . S
C874 C875 1.394 . S
C874 C880 1.465 . S
C875 C870 1.399 . S
C875 C874 1.394 . S
C875 C876 1.516 . S
C876 C875 1.516 . S
C876 C877 1.502 . S
C876 C878 1.561 . S
C876 C879 1.526 . S
C877 H861 0.959 . S
C877 H862 0.959 . S
C877 H863 0.961 . S
C877 C876 1.502 . S
C878 H864 0.960 . S
C878 H865 0.961 . S
C878 H866 0.959 . S
C878 C876 1.561 . S
C879 C876 1.526 . S
C879 C880 1.396 . S
C879 C884 1.390 . S
C880 C874 1.465 . S
C880 C879 1.396 . S
C880 C881 1.399 . S
C881 H867 0.929 . S
C881 C880 1.399 . S
C881 C882 1.385 . S
C882 H868 0.931 . S
C882 C881 1.385 . S
C882 C883 1.389 . S
C883 C882 1.389 . S
C883 C884 1.387 . S
C884 H869 0.930 . S
C884 C879 1.390 . S
C884 C883 1.387 . S
H885 C897 0.930 . S
H886 C899 0.930 . S
H887 C900 0.930 . S
H888 C904 0.959 . S
H889 C904 0.959 . S
H890 C904 0.961 . S
H891 C905 0.960 . S
H892 C905 0.961 . S
H893 C905 0.959 . S
H894 C908 0.929 . S
H895 C909 0.931 . S
H896 C911 0.930 . S
C897 H885 0.930 . S
C897 C898 1.399 . S
C897 C902 1.399 . S
C898 C897 1.399 . S
C898 C899 1.376 . S
C899 H886 0.930 . S
C899 C898 1.376 . S
C899 C900 1.388 . S
C900 H887 0.930 . S
C900 C899 1.388 . S
C900 C901 1.390 . S
C901 C900 1.390 . S
C901 C902 1.394 . S
C901 C907 1.465 . S
C902 C897 1.399 . S
C902 C901 1.394 . S
C902 C903 1.516 . S
C903 C902 1.516 . S
C903 C904 1.502 . S
C903 C905 1.561 . S
C903 C906 1.526 . S
C904 H888 0.959 . S
C904 H889 0.959 . S
C904 H890 0.961 . S
C904 C903 1.502 . S
C905 H891 0.960 . S
C905 H892 0.961 . S
C905 H893 0.959 . S
C905 C903 1.561 . S
C906 C903 1.526 . S
C906 C907 1.396 . S
C906 C911 1.390 . S
C907 C901 1.465 . S
C907 C906 1.396 . S
C907 C908 1.399 . S
C908 H894 0.929 . S
C908 C907 1.399 . S
C908 C909 1.385 . S
C909 H895 0.931 . S
C909 C908 1.385 . S
C909 C910 1.389 . S
C910 C909 1.389 . S
C910 C911 1.387 . S
C911 H896 0.930 . S
C911 C906 1.390 . S
C911 C910 1.387 . S
H912 C924 0.930 . S
H913 C926 0.890 1_554 S
H914 C927 0.930 . S
H915 C931 0.959 . S
H916 C931 0.959 . S
H917 C931 0.961 . S
H918 C932 0.960 . S
H919 C932 0.961 . S
H920 C932 0.959 . S
H921 C935 0.929 . S
H922 C936 0.931 . S
H923 C938 0.930 . S
C924 H912 0.930 . S
C924 C925 1.399 . S
C924 C929 1.399 . S
C925 C924 1.399 . S
C925 C926 1.446 . S
C926 H913 0.890 1_556 S
C926 C925 1.446 . S
C926 C927 1.362 1_556 S
C927 H914 0.930 . S
C927 C926 1.362 1_554 S
C927 C928 1.390 1_554 S
C928 C927 1.390 1_556 S
C928 C929 1.394 . S
C928 C934 1.480 . S
C929 C924 1.399 . S
C929 C928 1.394 . S
C929 C930 1.516 . S
C930 C929 1.516 . S
C930 C931 1.502 . S
C930 C932 1.561 . S
C930 C933 1.526 . S
C931 H915 0.959 . S
C931 H916 0.959 . S
C931 H917 0.961 . S
C931 C930 1.502 . S
C932 H918 0.960 . S
C932 H919 0.961 . S
C932 H920 0.959 . S
C932 C930 1.561 . S
C933 C930 1.526 . S
C933 C934 1.456 . S
C933 C938 1.390 . S
C934 C928 1.480 . S
C934 C933 1.456 . S
C934 C935 1.339 1_556 S
C935 H921 0.929 . S
C935 C934 1.339 1_554 S
C935 C936 1.385 . S
C936 H922 0.931 . S
C936 C935 1.385 . S
C936 C937 1.320 1_554 S
C937 C936 1.320 1_556 S
C937 C938 1.458 . S
C938 H923 0.930 . S
C938 C933 1.390 . S
C938 C937 1.458 . S
H939 C951 0.930 . S
H940 C953 0.930 . S
H941 C954 0.930 . S
H942 C958 0.959 . S
H943 C958 0.959 . S
H944 C958 0.961 . S
H945 C959 0.960 . S
H946 C959 0.961 . S
H947 C959 0.959 . S
H948 C962 0.929 . S
H949 C963 0.931 . S
H950 C965 0.930 . S
C951 H939 0.930 . S
C951 C952 1.399 . S
C951 C956 1.399 . S
C952 C951 1.399 . S
C952 C953 1.376 . S
C953 H940 0.930 . S
C953 C952 1.376 . S
C953 C954 1.388 . S
C954 H941 0.930 . S
C954 C953 1.388 . S
C954 C955 1.390 . S
C955 C954 1.390 . S
C955 C956 1.394 . S
C955 C961 1.465 . S
C956 C951 1.399 . S
C956 C955 1.394 . S
C956 C957 1.516 . S
C957 C956 1.516 . S
C957 C958 1.502 . S
C957 C959 1.561 . S
C957 C960 1.526 . S
C958 H942 0.959 . S
C958 H943 0.959 . S
C958 H944 0.961 . S
C958 C957 1.502 . S
C959 H945 0.960 . S
C959 H946 0.961 . S
C959 H947 0.959 . S
C959 C957 1.561 . S
C960 C957 1.526 . S
C960 C961 1.396 . S
C960 C965 1.390 . S
C961 C955 1.465 . S
C961 C960 1.396 . S
C961 C962 1.399 . S
C962 H948 0.929 . S
C962 C961 1.399 . S
C962 C963 1.385 . S
C963 H949 0.931 . S
C963 C962 1.385 . S
C963 C964 1.389 . S
C964 C963 1.389 . S
C964 C965 1.387 . S
C965 H950 0.930 . S
C965 C960 1.390 . S
C965 C964 1.387 . S
H966 C978 0.930 . S
H967 C980 0.930 . S
H968 C981 0.930 . S
H969 C985 0.959 . S
H970 C985 0.959 . S
H971 C985 0.961 . S
H972 C986 0.960 . S
H973 C986 0.961 . S
H974 C986 0.959 . S
H975 C989 0.929 . S
H976 C990 0.931 . S
H977 C992 0.930 . S
C978 H966 0.930 . S
C978 C979 1.399 . S
C978 C983 1.399 . S
C979 C978 1.399 . S
C979 C980 1.376 . S
C980 H967 0.930 . S
C980 C979 1.376 . S
C980 C981 1.388 . S
C981 H968 0.930 . S
C981 C980 1.388 . S
C981 C982 1.390 . S
C982 C981 1.390 . S
C982 C983 1.394 . S
C982 C988 1.465 . S
C983 C978 1.399 . S
C983 C982 1.394 . S
C983 C984 1.516 . S
C984 C983 1.516 . S
C984 C985 1.502 . S
C984 C986 1.561 . S
C984 C987 1.526 . S
C985 H969 0.959 . S
C985 H970 0.959 . S
C985 H971 0.961 . S
C985 C984 1.502 . S
C986 H972 0.960 . S
C986 H973 0.961 . S
C986 H974 0.959 . S
C986 C984 1.561 . S
C987 C984 1.526 . S
C987 C988 1.396 . S
C987 C992 1.390 . S
C988 C982 1.465 . S
C988 C987 1.396 . S
C988 C989 1.399 . S
C989 H975 0.929 . S
C989 C988 1.399 . S
C989 C990 1.385 . S
C990 H976 0.931 . S
C990 C989 1.385 . S
C990 C991 1.389 . S
C991 C990 1.389 . S
C991 C992 1.387 . S
C992 H977 0.930 . S
C992 C987 1.390 . S
C992 C991 1.387 . S
H993 C1005 0.930 . S
H994 C1007 0.930 . S
H995 C1008 0.930 . S
H996 C1012 0.959 . S
H997 C1012 0.959 . S
H998 C1012 0.961 . S
H999 C1013 0.960 . S
H1000 C1013 0.961 . S
H1001 C1013 0.959 . S
H1002 C1016 0.929 . S
H1003 C1017 0.931 . S
H1004 C1019 0.930 . S
C1005 H993 0.930 . S
C1005 C1006 1.399 . S
C1005 C1010 1.399 . S
C1006 C1005 1.399 . S
C1006 C1007 1.376 . S
C1007 H994 0.930 . S
C1007 C1006 1.376 . S
C1007 C1008 1.388 . S
C1008 H995 0.930 . S
C1008 C1007 1.388 . S
C1008 C1009 1.390 . S
C1009 C1008 1.390 . S
C1009 C1010 1.394 . S
C1009 C1015 1.465 . S
C1010 C1005 1.399 . S
C1010 C1009 1.394 . S
C1010 C1011 1.516 . S
C1011 C1010 1.516 . S
C1011 C1012 1.502 . S
C1011 C1013 1.561 . S
C1011 C1014 1.526 . S
C1012 H996 0.959 . S
C1012 H997 0.959 . S
C1012 H998 0.961 . S
C1012 C1011 1.502 . S
C1013 H999 0.960 . S
C1013 H1000 0.961 . S
C1013 H1001 0.959 . S
C1013 C1011 1.561 . S
C1014 C1011 1.526 . S
C1014 C1015 1.396 . S
C1014 C1019 1.390 . S
C1015 C1009 1.465 . S
C1015 C1014 1.396 . S
C1015 C1016 1.399 . S
C1016 H1002 0.929 . S
C1016 C1015 1.399 . S
C1016 C1017 1.385 . S
C1017 H1003 0.931 . S
C1017 C1016 1.385 . S
C1017 C1018 1.389 . S
C1018 C1017 1.389 . S
C1018 C1019 1.387 . S
C1019 H1004 0.930 . S
C1019 C1014 1.390 . S
C1019 C1018 1.387 . S
H1020 C1032 0.930 . S
H1021 C1034 0.930 . S
H1022 C1035 0.930 . S
H1023 C1039 0.959 . S
H1024 C1039 0.959 . S
H1025 C1039 0.961 . S
H1026 C1040 0.960 . S
H1027 C1040 0.961 . S
H1028 C1040 0.959 . S
H1029 C1043 0.929 . S
H1030 C1044 0.931 . S
H1031 C1046 0.930 . S
C1032 H1020 0.930 . S
C1032 C1033 1.399 . S
C1032 C1037 1.399 . S
C1033 C1032 1.399 . S
C1033 C1034 1.376 . S
C1034 H1021 0.930 . S
C1034 C1033 1.376 . S
C1034 C1035 1.388 . S
C1035 H1022 0.930 . S
C1035 C1034 1.388 . S
C1035 C1036 1.390 . S
C1036 C1035 1.390 . S
C1036 C1037 1.394 . S
C1036 C1042 1.465 . S
C1037 C1032 1.399 . S
C1037 C1036 1.394 . S
C1037 C1038 1.516 . S
C1038 C1037 1.516 . S
C1038 C1039 1.502 . S
C1038 C1040 1.561 . S
C1038 C1041 1.526 . S
C1039 H1023 0.959 . S
C1039 H1024 0.959 . S
C1039 H1025 0.961 . S
C1039 C1038 1.502 . S
C1040 H1026 0.960 . S
C1040 H1027 0.961 . S
C1040 H1028 0.959 . S
C1040 C1038 1.561 . S
C1041 C1038 1.526 . S
C1041 C1042 1.396 . S
C1041 C1046 1.390 . S
C1042 C1036 1.465 . S
C1042 C1041 1.396 . S
C1042 C1043 1.399 . S
C1043 H1029 0.929 . S
C1043 C1042 1.399 . S
C1043 C1044 1.385 . S
C1044 H1030 0.931 . S
C1044 C1043 1.385 . S
C1044 C1045 1.389 . S
C1045 C1044 1.389 . S
C1045 C1046 1.387 . S
C1046 H1031 0.930 . S
C1046 C1041 1.390 . S
C1046 C1045 1.387 . S
H1047 C1059 0.930 . S
H1048 C1061 0.930 . S
H1049 C1062 0.930 . S
H1050 C1066 0.959 . S
H1051 C1066 0.959 . S
H1052 C1066 0.961 . S
H1053 C1067 0.960 . S
H1054 C1067 0.961 . S
H1055 C1067 0.959 . S
H1056 C1070 0.929 . S
H1057 C1071 0.931 . S
H1058 C1073 0.930 1_554 S
C1059 H1047 0.930 . S
C1059 C1060 1.399 1_554 S
C1059 C1064 1.399 . S
C1060 C1059 1.399 1_556 S
C1060 C1061 1.376 . S
C1061 H1048 0.930 . S
C1061 C1060 1.376 . S
C1061 C1062 1.388 . S
C1062 H1049 0.930 . S
C1062 C1061 1.388 . S
C1062 C1063 1.390 . S
C1063 C1062 1.390 . S
C1063 C1064 1.394 1_556 S
C1063 C1069 1.465 . S
C1064 C1059 1.399 . S
C1064 C1063 1.394 1_554 S
C1064 C1065 1.516 . S
C1065 C1064 1.516 . S
C1065 C1066 1.502 . S
C1065 C1067 1.561 . S
C1065 C1068 1.526 1_554 S
C1066 H1050 0.959 . S
C1066 H1051 0.959 . S
C1066 H1052 0.961 . S
C1066 C1065 1.502 . S
C1067 H1053 0.960 . S
C1067 H1054 0.961 . S
C1067 H1055 0.959 . S
C1067 C1065 1.561 . S
C1068 C1065 1.526 1_556 S
C1068 C1069 1.396 . S
C1068 C1073 1.390 . S
C1069 C1063 1.465 . S
C1069 C1068 1.396 . S
C1069 C1070 1.399 . S
C1070 H1056 0.929 . S
C1070 C1069 1.399 . S
C1070 C1071 1.385 . S
C1071 H1057 0.931 . S
C1071 C1070 1.385 . S
C1071 C1072 1.389 . S
C1072 C1071 1.389 . S
C1072 C1073 1.387 . S
C1073 H1058 0.930 1_556 S
C1073 C1068 1.390 . S
C1073 C1072 1.387 . S
H1074 C1086 0.930 . S
H1075 C1088 0.930 . S
H1076 C1089 0.930 . S
H1077 C1093 0.959 . S
H1078 C1093 0.959 . S
H1079 C1093 0.961 . S
H1080 C1094 0.960 . S
H1081 C1094 0.961 . S
H1082 C1094 0.959 . S
H1083 C1097 0.929 . S
H1084 C1098 0.931 . S
H1085 C1100 0.930 . S
C1086 H1074 0.930 . S
C1086 C1087 1.399 . S
C1086 C1091 1.399 . S
C1087 C1086 1.399 . S
C1087 C1088 1.376 . S
C1088 H1075 0.930 . S
C1088 C1087 1.376 . S
C1088 C1089 1.388 . S
C1089 H1076 0.930 . S
C1089 C1088 1.388 . S
C1089 C1090 1.390 . S
C1090 C1089 1.390 . S
C1090 C1091 1.394 . S
C1090 C1096 1.465 . S
C1091 C1086 1.399 . S
C1091 C1090 1.394 . S
C1091 C1092 1.516 . S
C1092 C1091 1.516 . S
C1092 C1093 1.502 . S
C1092 C1094 1.561 . S
C1092 C1095 1.526 . S
C1093 H1077 0.959 . S
C1093 H1078 0.959 . S
C1093 H1079 0.961 . S
C1093 C1092 1.502 . S
C1094 H1080 0.960 . S
C1094 H1081 0.961 . S
C1094 H1082 0.959 . S
C1094 C1092 1.561 . S
C1095 C1092 1.526 . S
C1095 C1096 1.396 . S
C1095 C1100 1.390 . S
C1096 C1090 1.465 . S
C1096 C1095 1.396 . S
C1096 C1097 1.399 . S
C1097 H1083 0.929 . S
C1097 C1096 1.399 . S
C1097 C1098 1.385 . S
C1098 H1084 0.931 . S
C1098 C1097 1.385 . S
C1098 C1099 1.389 . S
C1099 C1098 1.389 . S
C1099 C1100 1.387 . S
C1100 H1085 0.930 . S
C1100 C1095 1.390 . S
C1100 C1099 1.387 . S
H1101 C1113 0.930 . S
H1102 C1115 0.930 . S
H1103 C1116 0.930 . S
H1104 C1120 0.959 . S
H1105 C1120 0.959 . S
H1106 C1120 0.961 . S
H1107 C1121 0.960 . S
H1108 C1121 0.961 . S
H1109 C1121 0.959 . S
H1110 C1124 0.929 . S
H1111 C1125 0.931 . S
H1112 C1127 0.930 . S
C1113 H1101 0.930 . S
C1113 C1114 1.399 . S
C1113 C1118 1.399 . S
C1114 C1113 1.399 . S
C1114 C1115 1.376 . S
C1115 H1102 0.930 . S
C1115 C1114 1.376 . S
C1115 C1116 1.388 . S
C1116 H1103 0.930 . S
C1116 C1115 1.388 . S
C1116 C1117 1.390 . S
C1117 C1116 1.390 . S
C1117 C1118 1.394 . S
C1117 C1123 1.465 . S
C1118 C1113 1.399 . S
C1118 C1117 1.394 . S
C1118 C1119 1.516 . S
C1119 C1118 1.516 . S
C1119 C1120 1.502 . S
C1119 C1121 1.561 . S
C1119 C1122 1.526 . S
C1120 H1104 0.959 . S
C1120 H1105 0.959 . S
C1120 H1106 0.961 . S
C1120 C1119 1.502 . S
C1121 H1107 0.960 . S
C1121 H1108 0.961 . S
C1121 H1109 0.959 . S
C1121 C1119 1.561 . S
C1122 C1119 1.526 . S
C1122 C1123 1.396 . S
C1122 C1127 1.390 . S
C1123 C1117 1.465 . S
C1123 C1122 1.396 . S
C1123 C1124 1.399 . S
C1124 H1110 0.929 . S
C1124 C1123 1.399 . S
C1124 C1125 1.385 . S
C1125 H1111 0.931 . S
C1125 C1124 1.385 . S
C1125 C1126 1.389 . S
C1126 C1125 1.389 . S
C1126 C1127 1.387 . S
C1127 H1112 0.930 . S
C1127 C1122 1.390 . S
C1127 C1126 1.387 . S
H1128 C1140 0.930 . S
H1129 C1142 0.930 . S
H1130 C1143 0.930 . S
H1131 C1147 0.959 . S
H1132 C1147 0.959 . S
H1133 C1147 0.961 . S
H1134 C1148 0.960 . S
H1135 C1148 0.961 . S
H1136 C1148 0.959 . S
H1137 C1151 0.929 . S
H1138 C1152 0.931 . S
H1139 C1154 0.930 . S
C1140 H1128 0.930 . S
C1140 C1141 1.399 . S
C1140 C1145 1.399 . S
C1141 C1140 1.399 . S
C1141 C1142 1.376 . S
C1142 H1129 0.930 . S
C1142 C1141 1.376 . S
C1142 C1143 1.388 . S
C1143 H1130 0.930 . S
C1143 C1142 1.388 . S
C1143 C1144 1.390 . S
C1144 C1143 1.390 . S
C1144 C1145 1.394 . S
C1144 C1150 1.465 . S
C1145 C1140 1.399 . S
C1145 C1144 1.394 . S
C1145 C1146 1.516 . S
C1146 C1145 1.516 . S
C1146 C1147 1.502 . S
C1146 C1148 1.561 . S
C1146 C1149 1.526 . S
C1147 H1131 0.959 . S
C1147 H1132 0.959 . S
C1147 H1133 0.961 . S
C1147 C1146 1.502 . S
C1148 H1134 0.960 . S
C1148 H1135 0.961 . S
C1148 H1136 0.959 . S
C1148 C1146 1.561 . S
C1149 C1146 1.526 . S
C1149 C1150 1.396 . S
C1149 C1154 1.390 . S
C1150 C1144 1.465 . S
C1150 C1149 1.396 . S
C1150 C1151 1.399 . S
C1151 H1137 0.929 . S
C1151 C1150 1.399 . S
C1151 C1152 1.385 . S
C1152 H1138 0.931 . S
C1152 C1151 1.385 . S
C1152 C1153 1.389 . S
C1153 C1152 1.389 . S
C1153 C1154 1.387 . S
C1154 H1139 0.930 . S
C1154 C1149 1.390 . S
C1154 C1153 1.387 . S
H1155 C1167 0.930 . S
H1156 C1169 0.930 . S
H1157 C1170 0.930 . S
H1158 C1174 0.959 . S
H1159 C1174 0.959 . S
H1160 C1174 0.961 . S
H1161 C1175 0.960 . S
H1162 C1175 0.961 . S
H1163 C1175 0.959 . S
H1164 C1178 0.929 . S
H1165 C1179 0.931 . S
H1166 C1181 0.930 . S
C1167 H1155 0.930 . S
C1167 C1168 1.399 . S
C1167 C1172 1.399 . S
C1168 C1167 1.399 . S
C1168 C1169 1.376 . S
C1169 H1156 0.930 . S
C1169 C1168 1.376 . S
C1169 C1170 1.388 . S
C1170 H1157 0.930 . S
C1170 C1169 1.388 . S
C1170 C1171 1.390 . S
C1171 C1170 1.390 . S
C1171 C1172 1.394 . S
C1171 C1177 1.465 . S
C1172 C1167 1.399 . S
C1172 C1171 1.394 . S
C1172 C1173 1.516 . S
C1173 C1172 1.516 . S
C1173 C1174 1.502 . S
C1173 C1175 1.561 . S
C1173 C1176 1.526 . S
C1174 H1158 0.959 . S
C1174 H1159 0.959 . S
C1174 H1160 0.961 . S
C1174 C1173 1.502 . S
C1175 H1161 0.960 . S
C1175 H1162 0.961 . S
C1175 H1163 0.959 . S
C1175 C1173 1.561 . S
C1176 C1173 1.526 . S
C1176 C1177 1.396 . S
C1176 C1181 1.390 . S
C1177 C1171 1.465 . S
C1177 C1176 1.396 . S
C1177 C1178 1.399 . S
C1178 H1164 0.929 . S
C1178 C1177 1.399 . S
C1178 C1179 1.385 . S
C1179 H1165 0.931 . S
C1179 C1178 1.385 . S
C1179 C1180 1.389 . S
C1180 C1179 1.389 . S
C1180 C1181 1.387 . S
C1181 H1166 0.930 . S
C1181 C1176 1.390 . S
C1181 C1180 1.387 . S
H1182 C1194 0.930 . S
H1183 C1196 0.930 . S
H1184 C1197 0.930 . S
H1185 C1201 0.959 . S
H1186 C1201 0.959 . S
H1187 C1201 0.961 . S
H1188 C1202 0.960 . S
H1189 C1202 0.961 . S
H1190 C1202 0.959 . S
H1191 C1205 0.929 . S
H1192 C1206 0.931 . S
H1193 C1208 0.930 . S
C1194 H1182 0.930 . S
C1194 C1195 1.399 . S
C1194 C1199 1.399 . S
C1195 C1194 1.399 . S
C1195 C1196 1.376 . S
C1196 H1183 0.930 . S
C1196 C1195 1.376 . S
C1196 C1197 1.388 . S
C1197 H1184 0.930 . S
C1197 C1196 1.388 . S
C1197 C1198 1.390 . S
C1198 C1197 1.390 . S
C1198 C1199 1.394 . S
C1198 C1204 1.465 . S
C1199 C1194 1.399 . S
C1199 C1198 1.394 . S
C1199 C1200 1.516 . S
C1200 C1199 1.516 . S
C1200 C1201 1.502 . S
C1200 C1202 1.561 . S
C1200 C1203 1.526 . S
C1201 H1185 0.959 . S
C1201 H1186 0.959 . S
C1201 H1187 0.961 . S
C1201 C1200 1.502 . S
C1202 H1188 0.960 . S
C1202 H1189 0.961 . S
C1202 H1190 0.959 . S
C1202 C1200 1.561 . S
C1203 C1200 1.526 . S
C1203 C1204 1.396 . S
C1203 C1208 1.390 . S
C1204 C1198 1.465 . S
C1204 C1203 1.396 . S
C1204 C1205 1.399 . S
C1205 H1191 0.929 . S
C1205 C1204 1.399 . S
C1205 C1206 1.385 . S
C1206 H1192 0.931 . S
C1206 C1205 1.385 . S
C1206 C1207 1.389 . S
C1207 C1206 1.389 . S
C1207 C1208 1.387 . S
C1208 H1193 0.930 . S
C1208 C1203 1.390 . S
C1208 C1207 1.387 . S
H1209 C1221 0.930 . S
H1210 C1223 0.930 . S
H1211 C1224 0.930 . S
H1212 C1228 0.959 . S
H1213 C1228 0.959 . S
H1214 C1228 0.961 . S
H1215 C1229 0.960 . S
H1216 C1229 0.961 . S
H1217 C1229 0.959 . S
H1218 C1232 0.929 . S
H1219 C1233 0.931 . S
H1220 C1235 0.930 . S
C1221 H1209 0.930 . S
C1221 C1222 1.399 . S
C1221 C1226 1.399 . S
C1222 C1221 1.399 . S
C1222 C1223 1.376 . S
C1223 H1210 0.930 . S
C1223 C1222 1.376 . S
C1223 C1224 1.388 . S
C1224 H1211 0.930 . S
C1224 C1223 1.388 . S
C1224 C1225 1.390 . S
C1225 C1224 1.390 . S
C1225 C1226 1.394 . S
C1225 C1231 1.465 . S
C1226 C1221 1.399 . S
C1226 C1225 1.394 . S
C1226 C1227 1.516 . S
C1227 C1226 1.516 . S
C1227 C1228 1.502 . S
C1227 C1229 1.561 . S
C1227 C1230 1.526 . S
C1228 H1212 0.959 . S
C1228 H1213 0.959 . S
C1228 H1214 0.961 . S
C1228 C1227 1.502 . S
C1229 H1215 0.960 . S
C1229 H1216 0.961 . S
C1229 H1217 0.959 . S
C1229 C1227 1.561 . S
C1230 C1227 1.526 . S
C1230 C1231 1.396 . S
C1230 C1235 1.390 . S
C1231 C1225 1.465 . S
C1231 C1230 1.396 . S
C1231 C1232 1.399 . S
C1232 H1218 0.929 . S
C1232 C1231 1.399 . S
C1232 C1233 1.385 . S
C1233 H1219 0.931 . S
C1233 C1232 1.385 . S
C1233 C1234 1.389 . S
C1234 C1233 1.389 . S
C1234 C1235 1.387 . S
C1235 H1220 0.930 . S
C1235 C1230 1.390 . S
C1235 C1234 1.387 . S
H1236 C1248 0.930 . S
H1237 C1250 0.930 . S
H1238 C1251 0.930 . S
H1239 C1255 0.959 . S
H1240 C1255 0.959 . S
H1241 C1255 0.961 . S
H1242 C1256 0.960 . S
H1243 C1256 0.961 . S
H1244 C1256 0.959 . S
H1245 C1259 0.929 . S
H1246 C1260 0.931 . S
H1247 C1262 0.930 . S
C1248 H1236 0.930 . S
C1248 C1249 1.399 . S
C1248 C1253 1.399 . S
C1249 C1248 1.399 . S
C1249 C1250 1.376 . S
C1250 H1237 0.930 . S
C1250 C1249 1.376 . S
C1250 C1251 1.388 . S
C1251 H1238 0.930 . S
C1251 C1250 1.388 . S
C1251 C1252 1.390 . S
C1252 C1251 1.390 . S
C1252 C1253 1.394 . S
C1252 C1258 1.465 . S
C1253 C1248 1.399 . S
C1253 C1252 1.394 . S
C1253 C1254 1.516 . S
C1254 C1253 1.516 . S
C1254 C1255 1.502 . S
C1254 C1256 1.561 . S
C1254 C1257 1.526 . S
C1255 H1239 0.959 . S
C1255 H1240 0.959 . S
C1255 H1241 0.961 . S
C1255 C1254 1.502 . S
C1256 H1242 0.960 . S
C1256 H1243 0.961 . S
C1256 H1244 0.959 . S
C1256 C1254 1.561 . S
C1257 C1254 1.526 . S
C1257 C1258 1.396 . S
C1257 C1262 1.390 . S
C1258 C1252 1.465 . S
C1258 C1257 1.396 . S
C1258 C1259 1.399 . S
C1259 H1245 0.929 . S
C1259 C1258 1.399 . S
C1259 C1260 1.385 . S
C1260 H1246 0.931 . S
C1260 C1259 1.385 . S
C1260 C1261 1.389 . S
C1261 C1260 1.389 . S
C1261 C1262 1.387 . S
C1262 H1247 0.930 . S
C1262 C1257 1.390 . S
C1262 C1261 1.387 . S
H1263 C1275 0.930 . S
H1264 C1277 0.930 . S
H1265 C1278 0.930 . S
H1266 C1282 0.959 . S
H1267 C1282 0.959 . S
H1268 C1282 0.961 . S
H1269 C1283 0.960 . S
H1270 C1283 0.961 . S
H1271 C1283 0.959 . S
H1272 C1286 0.929 . S
H1273 C1287 0.931 . S
H1274 C1289 0.930 . S
C1275 H1263 0.930 . S
C1275 C1276 1.399 . S
C1275 C1280 1.399 . S
C1276 C1275 1.399 . S
C1276 C1277 1.376 . S
C1277 H1264 0.930 . S
C1277 C1276 1.376 . S
C1277 C1278 1.388 . S
C1278 H1265 0.930 . S
C1278 C1277 1.388 . S
C1278 C1279 1.390 . S
C1279 C1278 1.390 . S
C1279 C1280 1.394 . S
C1279 C1285 1.465 . S
C1280 C1275 1.399 . S
C1280 C1279 1.394 . S
C1280 C1281 1.516 . S
C1281 C1280 1.516 . S
C1281 C1282 1.502 . S
C1281 C1283 1.561 . S
C1281 C1284 1.526 . S
C1282 H1266 0.959 . S
C1282 H1267 0.959 . S
C1282 H1268 0.961 . S
C1282 C1281 1.502 . S
C1283 H1269 0.960 . S
C1283 H1270 0.961 . S
C1283 H1271 0.959 . S
C1283 C1281 1.561 . S
C1284 C1281 1.526 . S
C1284 C1285 1.396 . S
C1284 C1289 1.390 . S
C1285 C1279 1.465 . S
C1285 C1284 1.396 . S
C1285 C1286 1.399 . S
C1286 H1272 0.929 . S
C1286 C1285 1.399 . S
C1286 C1287 1.385 . S
C1287 H1273 0.931 . S
C1287 C1286 1.385 . S
C1287 C1288 1.389 . S
C1288 C1287 1.389 . S
C1288 C1289 1.387 . S
C1289 H1274 0.930 . S
C1289 C1284 1.390 . S
C1289 C1288 1.387 . S
H1290 C1302 0.930 . S
H1291 C1304 0.930 . S
H1292 C1305 0.930 . S
H1293 C1309 0.959 . S
H1294 C1309 0.959 . S
H1295 C1309 0.961 . S
H1296 C1310 0.960 . S
H1297 C1310 0.961 . S
H1298 C1310 0.959 . S
H1299 C1313 0.929 . S
H1300 C1314 0.931 . S
H1301 C1316 0.930 . S
C1302 H1290 0.930 . S
C1302 C1303 1.399 . S
C1302 C1307 1.399 . S
C1303 C1302 1.399 . S
C1303 C1304 1.376 . S
C1304 H1291 0.930 . S
C1304 C1303 1.376 . S
C1304 C1305 1.388 . S
C1305 H1292 0.930 . S
C1305 C1304 1.388 . S
C1305 C1306 1.390 . S
C1306 C1305 1.390 . S
C1306 C1307 1.394 . S
C1306 C1312 1.465 . S
C1307 C1302 1.399 . S
C1307 C1306 1.394 . S
C1307 C1308 1.516 . S
C1308 C1307 1.516 . S
C1308 C1309 1.502 . S
C1308 C1310 1.561 . S
C1308 C1311 1.526 . S
C1309 H1293 0.959 . S
C1309 H1294 0.959 . S
C1309 H1295 0.961 . S
C1309 C1308 1.502 . S
C1310 H1296 0.960 . S
C1310 H1297 0.961 . S
C1310 H1298 0.959 . S
C1310 C1308 1.561 . S
C1311 C1308 1.526 . S
C1311 C1312 1.396 . S
C1311 C1316 1.390 . S
C1312 C1306 1.465 . S
C1312 C1311 1.396 . S
C1312 C1313 1.399 . S
C1313 H1299 0.929 . S
C1313 C1312 1.399 . S
C1313 C1314 1.385 . S
C1314 H1300 0.931 . S
C1314 C1313 1.385 . S
C1314 C1315 1.389 . S
C1315 C1314 1.389 . S
C1315 C1316 1.387 . S
C1316 H1301 0.930 . S
C1316 C1311 1.390 . S
C1316 C1315 1.387 . S
H1317 C1329 0.930 . S
H1318 C1331 0.930 . S
H1319 C1332 0.930 . S
H1320 C1336 0.959 . S
H1321 C1336 0.959 . S
H1322 C1336 0.961 . S
H1323 C1337 0.960 . S
H1324 C1337 0.961 . S
H1325 C1337 0.959 . S
H1326 C1340 0.929 . S
H1327 C1341 0.931 . S
H1328 C1343 0.930 . S
C1329 H1317 0.930 . S
C1329 C1330 1.399 . S
C1329 C1334 1.399 . S
C1330 C1329 1.399 . S
C1330 C1331 1.376 . S
C1331 H1318 0.930 . S
C1331 C1330 1.376 . S
C1331 C1332 1.388 . S
C1332 H1319 0.930 . S
C1332 C1331 1.388 . S
C1332 C1333 1.390 . S
C1333 C1332 1.390 . S
C1333 C1334 1.394 . S
C1333 C1339 1.465 . S
C1334 C1329 1.399 . S
C1334 C1333 1.394 . S
C1334 C1335 1.516 . S
C1335 C1334 1.516 . S
C1335 C1336 1.502 . S
C1335 C1337 1.561 . S
C1335 C1338 1.526 . S
C1336 H1320 0.959 . S
C1336 H1321 0.959 . S
C1336 H1322 0.961 . S
C1336 C1335 1.502 . S
C1337 H1323 0.960 . S
C1337 H1324 0.961 . S
C1337 H1325 0.959 . S
C1337 C1335 1.561 . S
C1338 C1335 1.526 . S
C1338 C1339 1.396 . S
C1338 C1343 1.390 . S
C1339 C1333 1.465 . S
C1339 C1338 1.396 . S
C1339 C1340 1.399 . S
C1340 H1326 0.929 . S
C1340 C1339 1.399 . S
C1340 C1341 1.385 . S
C1341 H1327 0.931 . S
C1341 C1340 1.385 . S
C1341 C1342 1.389 . S
C1342 C1341 1.389 . S
C1342 C1343 1.387 . S
C1343 H1328 0.930 . S
C1343 C1338 1.390 . S
C1343 C1342 1.387 . S
H1344 C1356 0.930 . S
H1345 C1358 0.930 . S
H1346 C1359 0.930 . S
H1347 C1363 0.959 . S
H1348 C1363 0.959 . S
H1349 C1363 0.961 . S
H1350 C1364 0.960 . S
H1351 C1364 0.961 . S
H1352 C1364 0.959 . S
H1353 C1367 0.929 . S
H1354 C1368 0.931 . S
H1355 C1370 0.930 . S
C1356 H1344 0.930 . S
C1356 C1357 1.399 . S
C1356 C1361 1.399 . S
C1357 C1356 1.399 . S
C1357 C1358 1.376 . S
C1358 H1345 0.930 . S
C1358 C1357 1.376 . S
C1358 C1359 1.388 . S
C1359 H1346 0.930 . S
C1359 C1358 1.388 . S
C1359 C1360 1.390 . S
C1360 C1359 1.390 . S
C1360 C1361 1.394 . S
C1360 C1366 1.465 . S
C1361 C1356 1.399 . S
C1361 C1360 1.394 . S
C1361 C1362 1.516 . S
C1362 C1361 1.516 . S
C1362 C1363 1.502 . S
C1362 C1364 1.561 . S
C1362 C1365 1.526 . S
C1363 H1347 0.959 . S
C1363 H1348 0.959 . S
C1363 H1349 0.961 . S
C1363 C1362 1.502 . S
C1364 H1350 0.960 . S
C1364 H1351 0.961 . S
C1364 H1352 0.959 . S
C1364 C1362 1.561 . S
C1365 C1362 1.526 . S
C1365 C1366 1.396 . S
C1365 C1370 1.390 . S
C1366 C1360 1.465 . S
C1366 C1365 1.396 . S
C1366 C1367 1.399 . S
C1367 H1353 0.929 . S
C1367 C1366 1.399 . S
C1367 C1368 1.385 . S
C1368 H1354 0.931 . S
C1368 C1367 1.385 . S
C1368 C1369 1.389 . S
C1369 C1368 1.389 . S
C1369 C1370 1.387 . S
C1370 H1355 0.930 . S
C1370 C1365 1.390 . S
C1370 C1369 1.387 . S
H1371 C1383 0.930 . S
H1372 C1385 0.930 . S
H1373 C1386 0.930 . S
H1374 C1390 0.959 . S
H1375 C1390 0.959 . S
H1376 C1390 0.961 . S
H1377 C1391 0.960 . S
H1378 C1391 0.961 . S
H1379 C1391 0.959 . S
H1380 C1394 0.929 . S
H1381 C1395 0.931 . S
H1382 C1397 0.930 . S
C1383 H1371 0.930 . S
C1383 C1384 1.399 . S
C1383 C1388 1.399 . S
C1384 C1383 1.399 . S
C1384 C1385 1.376 . S
C1385 H1372 0.930 . S
C1385 C1384 1.376 . S
C1385 C1386 1.388 . S
C1386 H1373 0.930 . S
C1386 C1385 1.388 . S
C1386 C1387 1.390 . S
C1387 C1386 1.390 . S
C1387 C1388 1.394 . S
C1387 C1393 1.465 . S
C1388 C1383 1.399 . S
C1388 C1387 1.394 . S
C1388 C1389 1.516 . S
C1389 C1388 1.516 . S
C1389 C1390 1.502 . S
C1389 C1391 1.561 . S
C1389 C1392 1.526 . S
C1390 H1374 0.959 . S
C1390 H1375 0.959 . S
C1390 H1376 0.961 . S
C1390 C1389 1.502 . S
C1391 H1377 0.960 . S
C1391 H1378 0.961 . S
C1391 H1379 0.959 . S
C1391 C1389 1.561 . S
C1392 C1389 1.526 . S
C1392 C1393 1.396 . S
C1392 C1397 1.390 . S
C1393 C1387 1.465 . S
C1393 C1392 1.396 . S
C1393 C1394 1.399 . S
C1394 H1380 0.929 . S
C1394 C1393 1.399 . S
C1394 C1395 1.385 . S
C1395 H1381 0.931 . S
C1395 C1394 1.385 . S
C1395 C1396 1.389 . S
C1396 C1395 1.389 . S
C1396 C1397 1.387 . S
C1397 H1382 0.930 . S
C1397 C1392 1.390 . S
C1397 C1396 1.387 . S
H1398 C1410 0.930 . S
H1399 C1412 0.930 . S
H1400 C1413 0.930 . S
H1401 C1417 0.959 . S
H1402 C1417 0.959 . S
H1403 C1417 0.961 . S
H1404 C1418 0.960 . S
H1405 C1418 0.961 . S
H1406 C1418 0.959 . S
H1407 C1421 0.929 . S
H1408 C1422 0.931 . S
H1409 C1424 0.930 . S
C1410 H1398 0.930 . S
C1410 C1411 1.399 . S
C1410 C1415 1.399 . S
C1411 C1410 1.399 . S
C1411 C1412 1.376 . S
C1412 H1399 0.930 . S
C1412 C1411 1.376 . S
C1412 C1413 1.388 . S
C1413 H1400 0.930 . S
C1413 C1412 1.388 . S
C1413 C1414 1.390 . S
C1414 C1413 1.390 . S
C1414 C1415 1.394 . S
C1414 C1420 1.465 . S
C1415 C1410 1.399 . S
C1415 C1414 1.394 . S
C1415 C1416 1.516 . S
C1416 C1415 1.516 . S
C1416 C1417 1.502 . S
C1416 C1418 1.561 . S
C1416 C1419 1.526 . S
C1417 H1401 0.959 . S
C1417 H1402 0.959 . S
C1417 H1403 0.961 . S
C1417 C1416 1.502 . S
C1418 H1404 0.960 . S
C1418 H1405 0.961 . S
C1418 H1406 0.959 . S
C1418 C1416 1.561 . S
C1419 C1416 1.526 . S
C1419 C1420 1.396 . S
C1419 C1424 1.390 . S
C1420 C1414 1.465 . S
C1420 C1419 1.396 . S
C1420 C1421 1.399 . S
C1421 H1407 0.929 . S
C1421 C1420 1.399 . S
C1421 C1422 1.385 . S
C1422 H1408 0.931 . S
C1422 C1421 1.385 . S
C1422 C1423 1.389 . S
C1423 C1422 1.389 . S
C1423 C1424 1.387 . S
C1424 H1409 0.930 . S
C1424 C1419 1.390 . S
C1424 C1423 1.387 . S
H1425 C1437 0.930 . S
H1426 C1439 0.930 . S
H1427 C1440 0.930 . S
H1428 C1444 0.959 . S
H1429 C1444 0.959 . S
H1430 C1444 0.961 . S
H1431 C1445 0.960 . S
H1432 C1445 0.961 . S
H1433 C1445 0.959 . S
H1434 C1448 0.929 . S
H1435 C1449 0.931 . S
H1436 C1451 0.930 . S
C1437 H1425 0.930 . S
C1437 C1438 1.399 . S
C1437 C1442 1.399 . S
C1438 C1437 1.399 . S
C1438 C1439 1.376 . S
C1439 H1426 0.930 . S
C1439 C1438 1.376 . S
C1439 C1440 1.388 . S
C1440 H1427 0.930 . S
C1440 C1439 1.388 . S
C1440 C1441 1.390 . S
C1441 C1440 1.390 . S
C1441 C1442 1.394 . S
C1441 C1447 1.465 . S
C1442 C1437 1.399 . S
C1442 C1441 1.394 . S
C1442 C1443 1.516 . S
C1443 C1442 1.516 . S
C1443 C1444 1.502 . S
C1443 C1445 1.561 . S
C1443 C1446 1.526 . S
C1444 H1428 0.959 . S
C1444 H1429 0.959 . S
C1444 H1430 0.961 . S
C1444 C1443 1.502 . S
C1445 H1431 0.960 . S
C1445 H1432 0.961 . S
C1445 H1433 0.959 . S
C1445 C1443 1.561 . S
C1446 C1443 1.526 . S
C1446 C1447 1.396 . S
C1446 C1451 1.390 . S
C1447 C1441 1.465 . S
C1447 C1446 1.396 . S
C1447 C1448 1.399 . S
C1448 H1434 0.929 . S
C1448 C1447 1.399 . S
C1448 C1449 1.385 . S
C1449 H1435 0.931 . S
C1449 C1448 1.385 . S
C1449 C1450 1.389 . S
C1450 C1449 1.389 . S
C1450 C1451 1.387 . S
C1451 H1436 0.930 . S
C1451 C1446 1.390 . S
C1451 C1450 1.387 . S
C493 C219 1.797 . S
C505 C5 1.891 . S
C520 C45 2.031 . S
C532 C19 1.909 . S
C547 C85 2.005 . S
C559 C59 2.011 . S
C574 C99 1.863 . S
C586 C125 1.837 . S
C601 C139 1.960 . S
C613 C165 1.979 . S
C628 C205 2.002 . S
C640 C179 2.015 . S
C655 C299 1.829 . S
C667 C245 1.855 . S
C682 C285 2.009 . S
C694 C339 2.023 . S
C709 C379 1.992 . S
C721 C325 1.966 . S
C736 C419 1.837 . S
C748 C365 1.849 . S
C763 C459 2.010 . S
C775 C405 2.007 . S
C790 C259 1.917 . S
C802 C445 2.015 . S
C817 C448 3.286 . S
C829 C9 3.384 . S
C844 C49 2.635 . S
C856 C248 2.541 . S
C871 C288 2.844 . S
C883 C89 3.007 . S
C898 C328 3.285 . S
C910 C129 3.383 . S
C925 C368 2.543 . S
C937 C169 2.581 1_556 S
C952 C209 2.984 . S
C964 C408 2.857 . S
C979 C249 3.374 . S
C991 C48 3.261 . S
C1006 C289 2.980 . S
C1018 C88 2.870 . S
C1033 C128 2.505 . S
C1045 C329 2.628 . S
C1060 C168 3.275 1_556 S
C1072 C369 3.379 . S
C1087 C409 3.016 . S
C1099 C208 2.862 . S
C1114 C449 2.637 . S
C1126 C8 2.519 . S
C1141 C258 3.008 . S
C1153 C18 2.991 . S
C1168 C58 1.931 . S
C1180 C298 1.986 . S
C1195 C338 1.928 . S
C1207 C98 1.989 . S
C1222 C138 2.981 . S
C1234 C378 3.015 . S
C1249 C418 1.936 . S
C1261 C178 1.983 . S
C1276 C458 1.937 . S
C1288 C218 1.981 . S
C1303 C255 1.029 . S
C1315 C15 0.888 . S
C1330 C295 0.722 . S
C1342 C55 0.460 . S
C1357 C335 0.513 . S
C1369 C95 0.650 . S
C1384 C135 1.035 . S
C1396 C375 0.929 . S
C1411 C415 0.677 . S
C1423 C175 0.490 . S
C1438 C455 0.482 . S
C1450 C215 0.722 . S
