# Generated by pormake.
# Topology upb, (4)-cn, num edge types: 1
# Building blocks:
#     Node 0, Type 0, BuildingBlock: NAHDIM_clean_sbu_0, # of connection points: 4
#     Node 1, Type 0, BuildingBlock: NAHDIM_clean_sbu_0, # of connection points: 4
#     Node 2, Type 0, BuildingBlock: NAHDIM_clean_sbu_0, # of connection points: 4
#     Node 3, Type 0, BuildingBlock: NAHDIM_clean_sbu_0, # of connection points: 4
#     Node 4, Type 0, BuildingBlock: NAHDIM_clean_sbu_0, # of connection points: 4
#     Node 5, Type 0, BuildingBlock: NAHDIM_clean_sbu_0, # of connection points: 4
#     Node 6, Type 0, BuildingBlock: NAHDIM_clean_sbu_0, # of connection points: 4
#     Node 7, Type 0, BuildingBlock: NAHDIM_clean_sbu_0, # of connection points: 4
#     Node 8, Type 0, BuildingBlock: NAHDIM_clean_sbu_0, # of connection points: 4
#     Node 9, Type 0, BuildingBlock: NAHDIM_clean_sbu_0, # of connection points: 4
#     Node 10, Type 0, BuildingBlock: NAHDIM_clean_sbu_0, # of connection points: 4
#     Node 11, Type 0, BuildingBlock: NAHDIM_clean_sbu_0, # of connection points: 4
#     Node 12, Type 0, BuildingBlock: NAHDIM_clean_sbu_0, # of connection points: 4
#     Node 13, Type 0, BuildingBlock: NAHDIM_clean_sbu_0, # of connection points: 4
#     Node 14, Type 0, BuildingBlock: NAHDIM_clean_sbu_0, # of connection points: 4
#     Node 15, Type 0, BuildingBlock: NAHDIM_clean_sbu_0, # of connection points: 4
#     Edge 16, Type (0, 0), BuildingBlock: TEMPAE_clean_linker_10, # of connection points: 2
#     Edge 17, Type (0, 0), BuildingBlock: TEMPAE_clean_linker_10, # of connection points: 2
#     Edge 18, Type (0, 0), BuildingBlock: TEMPAE_clean_linker_10, # of connection points: 2
#     Edge 19, Type (0, 0), BuildingBlock: TEMPAE_clean_linker_10, # of connection points: 2
#     Edge 20, Type (0, 0), BuildingBlock: TEMPAE_clean_linker_10, # of connection points: 2
#     Edge 21, Type (0, 0), BuildingBlock: TEMPAE_clean_linker_10, # of connection points: 2
#     Edge 22, Type (0, 0), BuildingBlock: TEMPAE_clean_linker_10, # of connection points: 2
#     Edge 23, Type (0, 0), BuildingBlock: TEMPAE_clean_linker_10, # of connection points: 2
#     Edge 24, Type (0, 0), BuildingBlock: TEMPAE_clean_linker_10, # of connection points: 2
#     Edge 25, Type (0, 0), BuildingBlock: TEMPAE_clean_linker_10, # of connection points: 2
#     Edge 26, Type (0, 0), BuildingBlock: TEMPAE_clean_linker_10, # of connection points: 2
#     Edge 27, Type (0, 0), BuildingBlock: TEMPAE_clean_linker_10, # of connection points: 2
#     Edge 28, Type (0, 0), BuildingBlock: TEMPAE_clean_linker_10, # of connection points: 2
#     Edge 29, Type (0, 0), BuildingBlock: TEMPAE_clean_linker_10, # of connection points: 2
#     Edge 30, Type (0, 0), BuildingBlock: TEMPAE_clean_linker_10, # of connection points: 2
#     Edge 31, Type (0, 0), BuildingBlock: TEMPAE_clean_linker_10, # of connection points: 2
#     Edge 32, Type (0, 0), BuildingBlock: TEMPAE_clean_linker_10, # of connection points: 2
#     Edge 33, Type (0, 0), BuildingBlock: TEMPAE_clean_linker_10, # of connection points: 2
#     Edge 34, Type (0, 0), BuildingBlock: TEMPAE_clean_linker_10, # of connection points: 2
#     Edge 35, Type (0, 0), BuildingBlock: TEMPAE_clean_linker_10, # of connection points: 2
#     Edge 36, Type (0, 0), BuildingBlock: TEMPAE_clean_linker_10, # of connection points: 2
#     Edge 37, Type (0, 0), BuildingBlock: TEMPAE_clean_linker_10, # of connection points: 2
#     Edge 38, Type (0, 0), BuildingBlock: TEMPAE_clean_linker_10, # of connection points: 2
#     Edge 39, Type (0, 0), BuildingBlock: TEMPAE_clean_linker_10, # of connection points: 2
#     Edge 40, Type (0, 0), BuildingBlock: TEMPAE_clean_linker_10, # of connection points: 2
#     Edge 41, Type (0, 0), BuildingBlock: TEMPAE_clean_linker_10, # of connection points: 2
#     Edge 42, Type (0, 0), BuildingBlock: TEMPAE_clean_linker_10, # of connection points: 2
#     Edge 43, Type (0, 0), BuildingBlock: TEMPAE_clean_linker_10, # of connection points: 2
#     Edge 44, Type (0, 0), BuildingBlock: TEMPAE_clean_linker_10, # of connection points: 2
#     Edge 45, Type (0, 0), BuildingBlock: TEMPAE_clean_linker_10, # of connection points: 2
#     Edge 46, Type (0, 0), BuildingBlock: TEMPAE_clean_linker_10, # of connection points: 2
#     Edge 47, Type (0, 0), BuildingBlock: TEMPAE_clean_linker_10, # of connection points: 2
# Relax obj value: 0.223
# Max RMSD: 0.104
# Mean RMSD: 0.104
data_MOF--net-upb--node1-NAHDIM_clean_sbu_0--edge1-TEMPAE_clean_linker_10
_symmetry_space_group_name_H-M    P1
_symmetry_Int_Tables_number       1
_symmetry_cell_setting            triclinic
loop_
_symmetry_equiv_pos_as_xyz
'x, y, z'
_cell_length_a     39.77195
_cell_length_b     39.778647
_cell_length_c     45.498571
_cell_angle_alpha  89.977718
_cell_angle_beta   90.069867
_cell_angle_gamma 90.041467
loop_
_atom_site_label
_atom_site_type_symbol
_atom_site_fract_x
_atom_site_fract_y
_atom_site_fract_z
_atom_type_partial_charge
C0 C 0.04285 0.32796 0.3101 0.0
O1 O 0.06137 0.31677 0.33196 0.0
O2 O 0.00703 0.28131 0.3703 0.0
Zn3 Zn 0.01062 0.26995 0.32712 0.0
O4 O 0.05238 0.24222 0.32068 0.0
C5 C 0.96879 0.21353 0.3277 0.0
O6 O 0.99292 0.20485 0.34592 0.0
O7 O 0.01618 0.31207 0.30344 0.0
C8 C 0.05513 0.21994 0.30083 0.0
O9 O 0.03002 0.21475 0.2826 0.0
C10 C 0.02373 0.26456 0.38914 0.0
O11 O 0.04386 0.24056 0.3801 0.0
O12 O 0.97011 0.24233 0.31559 0.0
C13 C 0.68294 0.04495 0.29896 0.0
O14 O 0.70598 0.06753 0.30509 0.0
O15 O 0.71529 0.00408 0.37615 0.0
Zn16 Zn 0.72767 0.0051 0.3334 0.0
O17 O 0.76217 0.04185 0.32932 0.0
C18 C 0.75308 0.93772 0.34112 0.0
O19 O 0.73663 0.94007 0.36604 0.0
O20 O 0.68652 0.01515 0.30861 0.0
C21 C 0.78214 0.0445 0.30767 0.0
O22 O 0.78062 0.02232 0.28632 0.0
C23 C 0.7116 0.03103 0.39076 0.0
O24 O 0.71338 0.06004 0.37702 0.0
O25 O 0.75097 0.96161 0.32261 0.0
C26 C 0.95318 0.66877 0.3202 0.0
O27 O 0.93165 0.68417 0.33744 0.0
O28 O 0.99633 0.71071 0.3848 0.0
Zn29 Zn 0.9914 0.72213 0.34183 0.0
O30 O 0.95097 0.75245 0.33688 0.0
C31 C 0.06078 0.74468 0.34041 0.0
O32 O 0.0648 0.72191 0.36105 0.0
O33 O 0.98302 0.68002 0.31841 0.0
C34 C 0.95323 0.78431 0.33617 0.0
O35 O 0.98294 0.79851 0.33862 0.0
C36 C 0.00177 0.73444 0.40289 0.0
O37 O 0.00403 0.76535 0.39293 0.0
O38 O 0.03228 0.74752 0.32801 0.0
C39 C 0.32674 0.95161 0.31996 0.0
O40 O 0.31412 0.93299 0.34111 0.0
O41 O 0.28282 0.991 0.3806 0.0
Zn42 Zn 0.27093 0.98815 0.33742 0.0
O43 O 0.23973 0.94879 0.33022 0.0
C44 C 0.23027 0.04653 0.34381 0.0
O45 O 0.23033 0.03576 0.37111 0.0
O46 O 0.31269 0.97946 0.31398 0.0
C47 C 0.20966 0.9482 0.33964 0.0
O48 O 0.19808 0.97421 0.35421 0.0
C49 C 0.27538 0.9678 0.39869 0.0
O50 O 0.2609 0.94026 0.38905 0.0
O51 O 0.24736 0.03072 0.32469 0.0
C52 C 0.99716 0.65317 0.69606 0.0
O53 O 0.98453 0.64888 0.66963 0.0
O54 O 0.99697 0.71332 0.63724 0.0
Zn55 Zn 0.99919 0.72456 0.68031 0.0
O56 O 0.04082 0.75255 0.68666 0.0
C57 C 0.93437 0.7557 0.67318 0.0
O58 O 0.93384 0.73674 0.64956 0.0
O59 O 0.00347 0.68281 0.70501 0.0
C60 C 0.04287 0.7811 0.67425 0.0
O61 O 0.01755 0.79155 0.65806 0.0
C62 C 0.02287 0.70715 0.62186 0.0
O63 O 0.05246 0.70605 0.63471 0.0
O64 O 0.95902 0.75323 0.69089 0.0
C65 C 0.33207 0.03189 0.69108 0.0
O66 O 0.32082 0.04735 0.66752 0.0
O67 O 0.28418 0.99417 0.63388 0.0
Zn68 Zn 0.27373 0.9976 0.67738 0.0
O69 O 0.24404 0.03781 0.68434 0.0
C70 C 0.24703 0.93026 0.67388 0.0
O71 O 0.26651 0.92901 0.65061 0.0
O72 O 0.31624 0.00617 0.70027 0.0
C73 C 0.21273 0.03705 0.67882 0.0
O74 O 0.19929 0.0091 0.66885 0.0
C75 C 0.2736 0.01558 0.61528 0.0
O76 O 0.25647 0.04174 0.62444 0.0
O77 O 0.24781 0.95632 0.69006 0.0
C78 C 0.97754 0.33885 0.68104 0.0
O79 O 0.95996 0.32826 0.65841 0.0
O80 O 0.00958 0.28591 0.62408 0.0
Zn81 Zn 0.00715 0.27756 0.66792 0.0
O82 O 0.9661 0.24964 0.67679 0.0
C83 C 0.07214 0.24579 0.66376 0.0
O84 O 0.07306 0.26191 0.63857 0.0
O85 O 0.0023 0.32126 0.68971 0.0
C86 C 0.96477 0.21937 0.66796 0.0
O87 O 0.99047 0.20694 0.65345 0.0
C88 C 0.98503 0.28025 0.60684 0.0
O89 O 0.95629 0.26983 0.61774 0.0
O90 O 0.04732 0.25041 0.68086 0.0
C91 C 0.6727 0.97558 0.68188 0.0
O92 O 0.68199 0.9626 0.6566 0.0
O93 O 0.72226 0.01313 0.62781 0.0
Zn94 Zn 0.73344 0.00682 0.67067 0.0
O95 O 0.7616 0.96489 0.67491 0.0
C96 C 0.75791 0.07508 0.67295 0.0
O97 O 0.73464 0.07977 0.65285 0.0
O98 O 0.69092 0.9984 0.69328 0.0
C99 C 0.79355 0.9654 0.67493 0.0
O100 O 0.80929 0.99426 0.67204 0.0
C101 C 0.74564 0.01748 0.6092 0.0
O102 O 0.77695 0.01827 0.6184 0.0
O103 O 0.76035 0.04644 0.68516 0.0
C104 C 0.54414 0.82065 0.81009 0.0
O105 O 0.56286 0.80613 0.83019 0.0
O106 O 0.50299 0.77197 0.86853 0.0
Zn107 Zn 0.50636 0.764 0.82476 0.0
O108 O 0.5449 0.7321 0.81815 0.0
C109 C 0.43594 0.74605 0.82285 0.0
O110 O 0.43333 0.76997 0.84262 0.0
O111 O 0.51598 0.80749 0.80354 0.0
C112 C 0.56431 0.73168 0.79599 0.0
O113 O 0.55906 0.75277 0.77425 0.0
C114 C 0.52804 0.76628 0.88523 0.0
O115 O 0.55643 0.75599 0.87362 0.0
O116 O 0.46435 0.74064 0.811 0.0
C117 C 0.15221 0.5004 0.79791 0.0
O118 O 0.14679 0.48513 0.82307 0.0
O119 O 0.20767 0.50348 0.86022 0.0
Zn120 Zn 0.22215 0.50489 0.81788 0.0
O121 O 0.25097 0.54636 0.8122 0.0
C122 C 0.26833 0.45229 0.83023 0.0
O123 O 0.26477 0.46536 0.85653 0.0
O124 O 0.18201 0.50914 0.79121 0.0
C125 C 0.27321 0.55393 0.83118 0.0
O126 O 0.27703 0.53454 0.85431 0.0
C127 C 0.19881 0.52971 0.87411 0.0
O128 O 0.19613 0.55828 0.8598 0.0
O129 O 0.25101 0.4641 0.80907 0.0
C130 C 0.46351 0.18049 0.82378 0.0
O131 O 0.44512 0.19526 0.84398 0.0
O132 O 0.50463 0.22839 0.88286 0.0
Zn133 Zn 0.50116 0.23625 0.83927 0.0
O134 O 0.46084 0.26609 0.83273 0.0
C135 C 0.54712 0.28884 0.8394 0.0
O136 O 0.52486 0.29803 0.85915 0.0
O137 O 0.49205 0.19305 0.81755 0.0
C138 C 0.4589 0.28816 0.8126 0.0
O139 O 0.48443 0.29261 0.79472 0.0
C140 C 0.50915 0.20033 0.89563 0.0
O141 O 0.51217 0.17287 0.87984 0.0
O142 O 0.54299 0.26091 0.82626 0.0
C143 C 0.84208 0.47298 0.81766 0.0
O144 O 0.83199 0.45745 0.84158 0.0
O145 O 0.79065 0.51476 0.87105 0.0
Zn146 Zn 0.78084 0.50462 0.82873 0.0
O147 O 0.7524 0.46261 0.8277 0.0
C148 C 0.75844 0.57282 0.81747 0.0
O149 O 0.78339 0.58098 0.83504 0.0
O150 O 0.82392 0.49632 0.80713 0.0
C151 C 0.73256 0.45659 0.80642 0.0
O152 O 0.73156 0.47762 0.78416 0.0
C153 C 0.7658 0.5182 0.88829 0.0
O154 O 0.73521 0.51617 0.87748 0.0
O155 O 0.75379 0.54211 0.81105 0.0
C156 C 0.50106 0.15808 0.18917 0.0
O157 O 0.4946 0.15259 0.16127 0.0
O158 O 0.48887 0.21548 0.13063 0.0
Zn159 Zn 0.49169 0.2284 0.17337 0.0
O160 O 0.53283 0.25773 0.17789 0.0
C161 C 0.42239 0.25115 0.17212 0.0
O162 O 0.41861 0.22635 0.15333 0.0
O163 O 0.4989 0.18785 0.19918 0.0
C164 C 0.53147 0.28958 0.17969 0.0
O165 O 0.50202 0.30449 0.17924 0.0
C166 C 0.5157 0.20886 0.11662 0.0
O167 O 0.54455 0.20938 0.13072 0.0
O168 O 0.45078 0.25539 0.18442 0.0
C169 C 0.84367 0.51263 0.18023 0.0
O170 O 0.84548 0.51841 0.15187 0.0
O171 O 0.78569 0.49742 0.1223 0.0
Zn172 Zn 0.77503 0.49585 0.16571 0.0
O173 O 0.74572 0.53579 0.17467 0.0
C174 C 0.73332 0.4385 0.15417 0.0
O175 O 0.73893 0.44817 0.12702 0.0
O176 O 0.8167 0.50047 0.19083 0.0
C177 C 0.71855 0.53981 0.16038 0.0
O178 O 0.71005 0.51736 0.14054 0.0
C179 C 0.78756 0.52511 0.10841 0.0
O180 O 0.78513 0.55347 0.12304 0.0
O181 O 0.74768 0.4542 0.17509 0.0
C182 C 0.46661 0.824 0.17846 0.0
O183 O 0.45136 0.81423 0.15428 0.0
O184 O 0.5067 0.77557 0.12228 0.0
Zn185 Zn 0.49983 0.76476 0.16492 0.0
O186 O 0.45862 0.73549 0.16698 0.0
C187 C 0.56816 0.74158 0.16849 0.0
O188 O 0.57303 0.76587 0.14938 0.0
O189 O 0.49123 0.80678 0.18795 0.0
C190 C 0.43775 0.73498 0.18811 0.0
O191 O 0.44284 0.75439 0.21105 0.0
C192 C 0.50591 0.75063 0.10487 0.0
O193 O 0.50165 0.72035 0.11582 0.0
O194 O 0.5391 0.73778 0.17958 0.0
C195 C 0.16709 0.46863 0.16676 0.0
O196 O 0.17631 0.45371 0.1423 0.0
O197 O 0.21277 0.51263 0.11077 0.0
Zn198 Zn 0.22587 0.50292 0.15254 0.0
O199 O 0.25536 0.46161 0.15309 0.0
C200 C 0.24701 0.5718 0.16308 0.0
O201 O 0.22097 0.57936 0.14656 0.0
O202 O 0.18446 0.49321 0.17614 0.0
C203 C 0.25624 0.44213 0.17527 0.0
O204 O 0.23753 0.44909 0.19824 0.0
C205 C 0.23549 0.51964 0.09216 0.0
O206 O 0.26693 0.52115 0.10097 0.0
O207 O 0.25286 0.54117 0.16911 0.0
C208 C 0.08179 0.16463 0.28973 0.0
C209 C 0.08448 0.19727 0.30108 0.0
C210 C 0.10771 0.14118 0.29383 0.0
C211 C 0.13721 0.15088 0.30911 0.0
C212 C 0.14098 0.18449 0.31877 0.0
C213 C 0.11438 0.2072 0.31494 0.0
C214 C 0.10253 0.10544 0.28357 0.0
C215 C 0.17235 0.196 0.33457 0.0
C216 C 0.18142 0.08384 0.35382 0.0
C217 C 0.20777 0.0744 0.33515 0.0
C218 C 0.15838 0.10869 0.34552 0.0
C219 C 0.16214 0.12504 0.31808 0.0
C220 C 0.18918 0.11626 0.29938 0.0
C221 C 0.21153 0.09073 0.30802 0.0
C222 C 0.1296 0.11699 0.36593 0.0
C223 C 0.19433 0.13369 0.27026 0.0
H224 H 0.05867 0.15683 0.27908 0.0
H225 H 0.11668 0.23256 0.32346 0.0
H226 H 0.12465 0.09661 0.27095 0.0
H227 H 0.09985 0.0887 0.30295 0.0
H228 H 0.07973 0.10275 0.26963 0.0
H229 H 0.17333 0.22378 0.3369 0.0
H230 H 0.17313 0.18468 0.35684 0.0
H231 H 0.19514 0.1875 0.32267 0.0
H232 H 0.17821 0.07117 0.37473 0.0
H233 H 0.23197 0.0836 0.29356 0.0
H234 H 0.10528 0.11266 0.35456 0.0
H235 H 0.13056 0.14394 0.37214 0.0
H236 H 0.13007 0.10166 0.38634 0.0
H237 H 0.17244 0.129 0.2557 0.0
H238 H 0.21745 0.125 0.25889 0.0
H239 H 0.19604 0.16127 0.2736 0.0
C240 C 0.91324 0.19943 0.30445 0.0
C241 C 0.94091 0.18985 0.32166 0.0
C242 C 0.88633 0.17715 0.29963 0.0
C243 C 0.88728 0.14462 0.31226 0.0
C244 C 0.91545 0.13465 0.32914 0.0
C245 C 0.94186 0.15738 0.33366 0.0
C246 C 0.85664 0.18861 0.28153 0.0
C247 C 0.91747 0.10014 0.34292 0.0
C248 C 0.80771 0.09616 0.32952 0.0
C249 C 0.80751 0.07176 0.30726 0.0
C250 C 0.83278 0.1209 0.33067 0.0
C251 C 0.85834 0.12125 0.30906 0.0
C252 C 0.85764 0.09747 0.28593 0.0
C253 C 0.83218 0.07299 0.28528 0.0
C254 C 0.8326 0.14589 0.35566 0.0
C255 C 0.88449 0.09708 0.2625 0.0
H256 H 0.91237 0.22447 0.29508 0.0
H257 H 0.96322 0.14966 0.34684 0.0
H258 H 0.85192 0.17066 0.26333 0.0
H259 H 0.83372 0.18902 0.29539 0.0
H260 H 0.86047 0.21408 0.27208 0.0
H261 H 0.9417 0.09589 0.35451 0.0
H262 H 0.89669 0.09688 0.35892 0.0
H263 H 0.91444 0.08048 0.32583 0.0
H264 H 0.78858 0.0956 0.34647 0.0
H265 H 0.83212 0.05432 0.26793 0.0
H266 H 0.83443 0.17191 0.34702 0.0
H267 H 0.85483 0.14163 0.36995 0.0
H268 H 0.80958 0.14387 0.36936 0.0
H269 H 0.88742 0.12247 0.25274 0.0
H270 H 0.87876 0.0789 0.24466 0.0
H271 H 0.90899 0.09018 0.2725 0.0
C272 C 0.79594 0.9076 0.31051 0.0
C273 C 0.77817 0.91062 0.337 0.0
C274 C 0.82289 0.88498 0.30787 0.0
C275 C 0.83252 0.86532 0.33242 0.0
C276 C 0.81374 0.86719 0.35877 0.0
C277 C 0.78665 0.88962 0.36066 0.0
C278 C 0.84193 0.8832 0.27924 0.0
C279 C 0.82335 0.84684 0.38553 0.0
C280 C 0.89181 0.79086 0.32533 0.0
C281 C 0.92259 0.80523 0.33373 0.0
C282 C 0.8624 0.81032 0.32388 0.0
C283 C 0.86375 0.84479 0.33149 0.0
C284 C 0.89484 0.8595 0.33963 0.0
C285 C 0.92392 0.83959 0.34043 0.0
C286 C 0.82982 0.79392 0.31463 0.0
C287 C 0.89725 0.89609 0.34825 0.0
H288 H 0.78942 0.92358 0.29207 0.0
H289 H 0.77308 0.89173 0.38122 0.0
H290 H 0.86741 0.89405 0.28222 0.0
H291 H 0.84518 0.85665 0.27233 0.0
H292 H 0.82902 0.89715 0.26134 0.0
H293 H 0.80492 0.84958 0.40369 0.0
H294 H 0.8254 0.81982 0.3798 0.0
H295 H 0.84838 0.85508 0.39359 0.0
H296 H 0.89067 0.76435 0.3199 0.0
H297 H 0.94759 0.85085 0.34701 0.0
H298 H 0.81821 0.80823 0.29631 0.0
H299 H 0.81177 0.79425 0.33319 0.0
H300 H 0.83345 0.76745 0.30752 0.0
H301 H 0.88768 0.91224 0.33022 0.0
H302 H 0.92343 0.90382 0.35346 0.0
H303 H 0.8813 0.90087 0.36781 0.0
C304 C 0.11408 0.77368 0.35484 0.0
C305 C 0.08684 0.77065 0.33541 0.0
C306 C 0.13596 0.80131 0.35329 0.0
C307 C 0.13067 0.82629 0.3316 0.0
C308 C 0.10451 0.82228 0.31078 0.0
C309 C 0.0828 0.79458 0.31301 0.0
C310 C 0.16352 0.80474 0.37596 0.0
C311 C 0.09837 0.84814 0.28707 0.0
C312 C 0.15795 0.91496 0.35088 0.0
C313 C 0.18887 0.91754 0.33629 0.0
C314 C 0.13869 0.88549 0.34927 0.0
C315 C 0.15049 0.85798 0.33244 0.0
C316 C 0.18133 0.86063 0.31714 0.0
C317 C 0.20026 0.89035 0.31935 0.0
C318 C 0.10598 0.88357 0.36604 0.0
C319 C 0.19449 0.83196 0.29873 0.0
H320 H 0.11742 0.75532 0.3722 0.0
H321 H 0.06195 0.7923 0.29777 0.0
H322 H 0.18796 0.80992 0.36514 0.0
H323 H 0.15796 0.82637 0.39057 0.0
H324 H 0.16614 0.78182 0.38973 0.0
H325 H 0.07961 0.83944 0.27063 0.0
H326 H 0.089 0.87172 0.29717 0.0
H327 H 0.12216 0.85425 0.27553 0.0
H328 H 0.14898 0.9358 0.36405 0.0
H329 H 0.22409 0.89219 0.30793 0.0
H330 H 0.10713 0.86282 0.38231 0.0
H331 H 0.08495 0.87792 0.35077 0.0
H332 H 0.1002 0.90731 0.37784 0.0
H333 H 0.19921 0.80973 0.31288 0.0
H334 H 0.2182 0.83855 0.28719 0.0
H335 H 0.17544 0.82447 0.28215 0.0
C336 C 0.07548 0.83343 0.66351 0.0
C337 C 0.07367 0.80186 0.67714 0.0
C338 C 0.10476 0.85302 0.66517 0.0
C339 C 0.133 0.84077 0.68084 0.0
C340 C 0.13121 0.80915 0.69503 0.0
C341 C 0.10156 0.79005 0.69301 0.0
C342 C 0.10564 0.88665 0.64975 0.0
C343 C 0.16078 0.7953 0.71198 0.0
C344 C 0.21639 0.87862 0.65752 0.0
C345 C 0.2206 0.90441 0.67823 0.0
C346 C 0.18865 0.85685 0.6588 0.0
C347 C 0.16462 0.8608 0.68146 0.0
C348 C 0.16966 0.8856 0.70335 0.0
C349 C 0.19755 0.90717 0.70144 0.0
C350 C 0.1842 0.8307 0.63504 0.0
C351 C 0.14475 0.89039 0.72801 0.0
H352 H 0.05406 0.84282 0.65127 0.0
H353 H 0.10038 0.76569 0.70364 0.0
H354 H 0.11198 0.90683 0.66565 0.0
H355 H 0.12554 0.88657 0.63268 0.0
H356 H 0.08128 0.89292 0.63911 0.0
H357 H 0.1549 0.77093 0.72275 0.0
H358 H 0.18241 0.79159 0.69695 0.0
H359 H 0.16884 0.8135 0.72907 0.0
H360 H 0.23407 0.87619 0.63954 0.0
H361 H 0.20065 0.92693 0.71762 0.0
H362 H 0.16181 0.83696 0.62154 0.0
H363 H 0.17973 0.80561 0.64493 0.0
H364 H 0.2064 0.82911 0.62032 0.0
H365 H 0.12067 0.89995 0.71896 0.0
H366 H 0.15396 0.90844 0.74482 0.0
H367 H 0.13934 0.86602 0.73889 0.0
C368 C 0.20661 0.09774 0.69238 0.0
C369 C 0.19254 0.06822 0.68074 0.0
C370 C 0.18855 0.12804 0.69241 0.0
C371 C 0.15578 0.12888 0.6803 0.0
C372 C 0.14114 0.09901 0.66919 0.0
C373 C 0.15965 0.06901 0.66965 0.0
C374 C 0.20484 0.15932 0.70473 0.0
C375 C 0.10627 0.09893 0.65599 0.0
C376 C 0.0945 0.19977 0.6959 0.0
C377 C 0.09664 0.21865 0.6699 0.0
C378 C 0.11463 0.1712 0.70017 0.0
C379 C 0.13727 0.16121 0.67785 0.0
C380 C 0.14063 0.18102 0.65217 0.0
C381 C 0.12038 0.20957 0.64856 0.0
C382 C 0.11065 0.15092 0.72801 0.0
C383 C 0.1645 0.17119 0.62785 0.0
H384 H 0.23197 0.09731 0.70113 0.0
H385 H 0.14859 0.04634 0.66062 0.0
H386 H 0.20872 0.17791 0.68687 0.0
H387 H 0.18815 0.17118 0.72125 0.0
H388 H 0.22953 0.15396 0.71518 0.0
H389 H 0.09805 0.07336 0.64928 0.0
H390 H 0.08787 0.10905 0.672 0.0
H391 H 0.10567 0.11554 0.6364 0.0
H392 H 0.07634 0.20668 0.71259 0.0
H393 H 0.1223 0.22403 0.62844 0.0
H394 H 0.13556 0.14599 0.73813 0.0
H395 H 0.09925 0.12618 0.72273 0.0
H396 H 0.09446 0.16378 0.74439 0.0
H397 H 0.19018 0.16736 0.63676 0.0
H398 H 0.16569 0.1904 0.61015 0.0
H399 H 0.1563 0.14699 0.61803 0.0
C400 C 0.93008 0.16837 0.65753 0.0
C401 C 0.93384 0.19919 0.6721 0.0
C402 C 0.90032 0.14966 0.66002 0.0
C403 C 0.87378 0.16188 0.67776 0.0
C404 C 0.87766 0.19262 0.69305 0.0
C405 C 0.9076 0.21102 0.68991 0.0
C406 C 0.89705 0.11709 0.64317 0.0
C407 C 0.85005 0.20621 0.71244 0.0
C408 C 0.78769 0.12767 0.65791 0.0
C409 C 0.78479 0.10039 0.67729 0.0
C410 C 0.81594 0.14881 0.65864 0.0
C411 C 0.8417 0.14274 0.67947 0.0
C412 C 0.83795 0.11654 0.70026 0.0
C413 C 0.8096 0.09555 0.69884 0.0
C414 C 0.81909 0.17641 0.636 0.0
C415 C 0.86464 0.10961 0.72309 0.0
H416 H 0.95018 0.15908 0.64368 0.0
H417 H 0.91038 0.23476 0.70135 0.0
H418 H 0.89162 0.0961 0.65851 0.0
H419 H 0.87566 0.11875 0.62756 0.0
H420 H 0.92017 0.11091 0.63061 0.0
H421 H 0.85761 0.22969 0.72389 0.0
H422 H 0.82734 0.21147 0.69904 0.0
H423 H 0.8429 0.18719 0.72915 0.0
H424 H 0.76866 0.13163 0.64119 0.0
H425 H 0.80745 0.07466 0.71402 0.0
H426 H 0.84002 0.17048 0.62076 0.0
H427 H 0.82519 0.20067 0.64677 0.0
H428 H 0.79571 0.17958 0.6229 0.0
H429 H 0.88756 0.09979 0.71219 0.0
H430 H 0.85621 0.09093 0.73968 0.0
H431 H 0.87179 0.13316 0.73458 0.0
C432 C 0.79703 0.90399 0.68673 0.0
C433 C 0.8128 0.93369 0.67736 0.0
C434 C 0.81491 0.87362 0.68846 0.0
C435 C 0.84918 0.87286 0.68015 0.0
C436 C 0.86528 0.90282 0.67092 0.0
C437 C 0.84696 0.93292 0.66987 0.0
C438 C 0.79706 0.8423 0.69887 0.0
C439 C 0.90169 0.90295 0.6615 0.0
C440 C 0.90839 0.80236 0.7024 0.0
C441 C 0.90952 0.78314 0.67657 0.0
C442 C 0.88766 0.83085 0.7044 0.0
C443 C 0.86803 0.84057 0.67984 0.0
C444 C 0.86813 0.82055 0.65413 0.0
C445 C 0.88866 0.79194 0.6529 0.0
C446 C 0.88769 0.85121 0.73239 0.0
C447 C 0.8478 0.83023 0.62737 0.0
H448 H 0.77068 0.90448 0.69277 0.0
H449 H 0.85928 0.95574 0.66253 0.0
H450 H 0.79616 0.82352 0.68087 0.0
H451 H 0.8111 0.83073 0.71736 0.0
H452 H 0.77094 0.84752 0.70617 0.0
H453 H 0.91061 0.92845 0.6553 0.0
H454 H 0.91784 0.89331 0.67952 0.0
H455 H 0.90508 0.88595 0.64239 0.0
H456 H 0.92428 0.79559 0.72084 0.0
H457 H 0.88938 0.77728 0.63284 0.0
H458 H 0.86154 0.85598 0.73976 0.0
H459 H 0.89958 0.87601 0.7283 0.0
H460 H 0.90161 0.83848 0.75041 0.0
H461 H 0.82104 0.83389 0.63339 0.0
H462 H 0.84923 0.81102 0.6097 0.0
H463 H 0.85716 0.85449 0.61851 0.0
C464 C 0.59864 0.68634 0.81917 0.0
C465 C 0.59363 0.70875 0.79576 0.0
C466 C 0.62676 0.66519 0.82006 0.0
C467 C 0.65056 0.66645 0.79699 0.0
C468 C 0.64561 0.6888 0.77315 0.0
C469 C 0.61714 0.70971 0.7728 0.0
C470 C 0.63108 0.64161 0.84584 0.0
C471 C 0.6705 0.69077 0.74819 0.0
C472 C 0.73584 0.63155 0.81833 0.0
C473 C 0.73323 0.59823 0.80851 0.0
C474 C 0.70981 0.65467 0.81329 0.0
C475 C 0.68052 0.64417 0.79813 0.0
C476 C 0.67858 0.61114 0.78673 0.0
C477 C 0.70497 0.58858 0.79202 0.0
C478 C 0.71288 0.68978 0.82563 0.0
C479 C 0.64779 0.59902 0.7704 0.0
H480 H 0.58064 0.68539 0.83702 0.0
H481 H 0.6135 0.72701 0.75467 0.0
H482 H 0.63247 0.61526 0.83797 0.0
H483 H 0.65503 0.64718 0.85739 0.0
H484 H 0.61016 0.6436 0.8619 0.0
H485 H 0.66281 0.70921 0.73112 0.0
H486 H 0.6956 0.69806 0.75675 0.0
H487 H 0.67327 0.66574 0.73773 0.0
H488 H 0.75767 0.63929 0.83091 0.0
H489 H 0.70282 0.56295 0.78415 0.0
H490 H 0.69485 0.69294 0.84401 0.0
H491 H 0.7064 0.7087 0.80863 0.0
H492 H 0.7386 0.69512 0.83396 0.0
H493 H 0.62628 0.59729 0.78583 0.0
H494 H 0.65169 0.57392 0.76025 0.0
H495 H 0.64072 0.61713 0.75292 0.0
C496 C 0.37752 0.72585 0.83338 0.0
C497 C 0.40799 0.72194 0.81826 0.0
C498 C 0.35294 0.70049 0.83294 0.0
C499 C 0.35908 0.67048 0.81711 0.0
C500 C 0.38885 0.66728 0.80033 0.0
C501 C 0.41289 0.6931 0.80102 0.0
C502 C 0.32132 0.705 0.85082 0.0
C503 C 0.39634 0.63569 0.78316 0.0
C504 C 0.32136 0.58988 0.847 0.0
C505 C 0.29469 0.58407 0.82748 0.0
C506 C 0.34232 0.61799 0.84386 0.0
C507 C 0.33636 0.64106 0.82074 0.0
C508 C 0.30928 0.63558 0.80108 0.0
C509 C 0.28881 0.60704 0.80462 0.0
C510 C 0.37106 0.62282 0.86521 0.0
C511 C 0.30205 0.65978 0.77632 0.0
H512 H 0.37337 0.74815 0.84656 0.0
H513 H 0.43625 0.6899 0.7891 0.0
H514 H 0.29885 0.69811 0.83767 0.0
H515 H 0.32207 0.68803 0.87017 0.0
H516 H 0.31836 0.73124 0.85877 0.0
H517 H 0.41874 0.63857 0.76881 0.0
H518 H 0.40101 0.61463 0.79864 0.0
H519 H 0.37449 0.62858 0.76932 0.0
H520 H 0.32614 0.57227 0.8647 0.0
H521 H 0.26815 0.60279 0.78951 0.0
H522 H 0.36851 0.64734 0.87659 0.0
H523 H 0.39528 0.62325 0.85313 0.0
H524 H 0.37218 0.60261 0.88205 0.0
H525 H 0.29799 0.68542 0.78522 0.0
H526 H 0.27956 0.65235 0.76335 0.0
H527 H 0.32399 0.66114 0.76133 0.0
C528 C 0.29484 0.40706 0.79945 0.0
C529 C 0.29431 0.4263 0.82527 0.0
C530 C 0.32012 0.38294 0.79474 0.0
C531 C 0.3457 0.37855 0.81609 0.0
C532 C 0.34528 0.39802 0.8421 0.0
C533 C 0.31946 0.42139 0.84647 0.0
C534 C 0.31947 0.36215 0.767 0.0
C535 C 0.37234 0.39447 0.86524 0.0
C536 C 0.39848 0.29972 0.82342 0.0
C537 C 0.42888 0.30993 0.81064 0.0
C538 C 0.37046 0.32112 0.82375 0.0
C539 C 0.37317 0.35375 0.81156 0.0
C540 C 0.40346 0.36376 0.79773 0.0
C541 C 0.43088 0.34157 0.79719 0.0
C542 C 0.3384 0.30928 0.8382 0.0
C543 C 0.40752 0.39855 0.78492 0.0
H544 H 0.2754 0.4107 0.78304 0.0
H545 H 0.31941 0.43634 0.86639 0.0
H546 H 0.34271 0.3666 0.75412 0.0
H547 H 0.31884 0.33502 0.77264 0.0
H548 H 0.29741 0.36805 0.75292 0.0
H549 H 0.3687 0.41203 0.88395 0.0
H550 H 0.37261 0.3684 0.87391 0.0
H551 H 0.39738 0.39934 0.85538 0.0
H552 H 0.39669 0.27509 0.83352 0.0
H553 H 0.45435 0.34957 0.78731 0.0
H554 H 0.3165 0.3143 0.82374 0.0
H555 H 0.33438 0.3234 0.85892 0.0
H556 H 0.33907 0.28201 0.84344 0.0
H557 H 0.3865 0.40429 0.76969 0.0
H558 H 0.43163 0.40148 0.77288 0.0
H559 H 0.40671 0.41743 0.80285 0.0
C560 C 0.68251 0.42509 0.78747 0.0
C561 C 0.70866 0.42803 0.80804 0.0
C562 C 0.65762 0.40027 0.79049 0.0
C563 C 0.65906 0.3777 0.81453 0.0
C564 C 0.68632 0.37948 0.83452 0.0
C565 C 0.71071 0.4047 0.83111 0.0
C566 C 0.62889 0.3993 0.76878 0.0
C567 C 0.68892 0.35568 0.86029 0.0
C568 C 0.57674 0.34381 0.84428 0.0
C569 C 0.57585 0.31123 0.83253 0.0
C570 C 0.60356 0.36563 0.83839 0.0
C571 C 0.63041 0.35458 0.82045 0.0
C572 C 0.62976 0.32173 0.80847 0.0
C573 C 0.60237 0.30044 0.81455 0.0
C574 C 0.60314 0.40057 0.85142 0.0
C575 C 0.65808 0.30903 0.78942 0.0
H576 H 0.68075 0.44293 0.76953 0.0
H577 H 0.73099 0.4066 0.84697 0.0
H578 H 0.62525 0.37342 0.76031 0.0
H579 H 0.60526 0.40674 0.77997 0.0
H580 H 0.63302 0.41649 0.74987 0.0
H581 H 0.71333 0.35807 0.872 0.0
H582 H 0.66837 0.36095 0.8761 0.0
H583 H 0.68589 0.3293 0.85284 0.0
H584 H 0.5563 0.35246 0.85808 0.0
H585 H 0.60188 0.27527 0.80544 0.0
H586 H 0.60464 0.41962 0.83364 0.0
H587 H 0.6254 0.40418 0.86579 0.0
H588 H 0.58013 0.40543 0.86456 0.0
H589 H 0.66112 0.32556 0.76996 0.0
H590 H 0.65376 0.28288 0.78173 0.0
H591 H 0.68208 0.30986 0.80186 0.0
C592 C 0.69924 0.40341 0.18908 0.0
C593 C 0.70735 0.41268 0.16018 0.0
C594 C 0.67227 0.38151 0.19485 0.0
C595 C 0.6529 0.36886 0.17117 0.0
C596 C 0.66173 0.37722 0.14194 0.0
C597 C 0.68889 0.39889 0.13682 0.0
C598 C 0.66383 0.37281 0.22628 0.0
C599 C 0.64168 0.36429 0.11607 0.0
C600 C 0.59433 0.29394 0.17868 0.0
C601 C 0.56282 0.30972 0.18027 0.0
C602 C 0.62408 0.31287 0.17693 0.0
C603 C 0.62225 0.34839 0.17671 0.0
C604 C 0.59064 0.36445 0.17942 0.0
C605 C 0.56132 0.34493 0.18119 0.0
C606 C 0.65733 0.29485 0.17422 0.0
C607 C 0.58765 0.4023 0.1793 0.0
H608 H 0.71344 0.41385 0.20726 0.0
H609 H 0.69498 0.4058 0.1144 0.0
H610 H 0.63912 0.38385 0.23215 0.0
H611 H 0.66162 0.34517 0.22892 0.0
H612 H 0.68302 0.38232 0.24198 0.0
H613 H 0.65276 0.37191 0.09467 0.0
H614 H 0.64015 0.33646 0.11678 0.0
H615 H 0.61559 0.37408 0.1172 0.0
H616 H 0.59577 0.26674 0.1781 0.0
H617 H 0.53713 0.35734 0.1826 0.0
H618 H 0.67559 0.30485 0.19047 0.0
H619 H 0.66802 0.29931 0.15205 0.0
H620 H 0.6548 0.2673 0.17758 0.0
H621 H 0.60447 0.4134 0.19618 0.0
H622 H 0.56153 0.41087 0.18358 0.0
H623 H 0.59572 0.41226 0.15764 0.0
C624 C 0.58812 0.68833 0.19202 0.0
C625 C 0.59418 0.71547 0.17302 0.0
C626 C 0.61004 0.66073 0.19302 0.0
C627 C 0.63862 0.66025 0.17454 0.0
C628 C 0.64597 0.68843 0.15665 0.0
C629 C 0.62369 0.71576 0.15616 0.0
C630 C 0.60154 0.63129 0.21262 0.0
C631 C 0.67628 0.68889 0.13669 0.0
C632 C 0.70662 0.59435 0.18593 0.0
C633 C 0.6977 0.57019 0.16483 0.0
C634 C 0.68748 0.62372 0.18961 0.0
C635 C 0.65888 0.62904 0.17168 0.0
C636 C 0.64962 0.60462 0.15052 0.0
C637 C 0.66909 0.57549 0.1474 0.0
C638 C 0.698 0.64915 0.21246 0.0
C639 C 0.61929 0.60941 0.13094 0.0
H640 H 0.56552 0.688 0.20531 0.0
H641 H 0.62868 0.73667 0.14152 0.0
H642 H 0.5939 0.60954 0.19888 0.0
H643 H 0.62389 0.62348 0.22553 0.0
H644 H 0.58073 0.63715 0.22805 0.0
H645 H 0.68033 0.71394 0.12648 0.0
H646 H 0.69925 0.68178 0.14905 0.0
H647 H 0.67285 0.67011 0.11891 0.0
H648 H 0.72868 0.59043 0.19951 0.0
H649 H 0.66202 0.55699 0.13103 0.0
H650 H 0.67705 0.65372 0.22803 0.0
H651 H 0.70384 0.67351 0.20172 0.0
H652 H 0.72042 0.64087 0.22513 0.0
H653 H 0.59636 0.61253 0.14452 0.0
H654 H 0.61536 0.5879 0.11575 0.0
H655 H 0.62229 0.63263 0.11768 0.0
C656 C 0.40329 0.69167 0.16214 0.0
C657 C 0.40797 0.71267 0.18658 0.0
C658 C 0.37549 0.67013 0.16024 0.0
C659 C 0.35167 0.66955 0.18333 0.0
C660 C 0.356 0.69086 0.20795 0.0
C661 C 0.38415 0.71218 0.20931 0.0
C662 C 0.3718 0.64774 0.13361 0.0
C663 C 0.33105 0.69093 0.23294 0.0
C664 C 0.26754 0.63136 0.16233 0.0
C665 C 0.2717 0.59797 0.17157 0.0
C666 C 0.29275 0.65545 0.16728 0.0
C667 C 0.32279 0.64587 0.18175 0.0
C668 C 0.32641 0.61264 0.19239 0.0
C669 C 0.30081 0.58911 0.18722 0.0
C670 C 0.2879 0.69073 0.15578 0.0
C671 C 0.35805 0.60145 0.20796 0.0
H672 H 0.4215 0.69189 0.14443 0.0
H673 H 0.38752 0.7284 0.22822 0.0
H674 H 0.37193 0.62097 0.14048 0.0
H675 H 0.34735 0.65259 0.12264 0.0
H676 H 0.39225 0.65165 0.11736 0.0
H677 H 0.33753 0.70968 0.25012 0.0
H678 H 0.30548 0.69652 0.22448 0.0
H679 H 0.33007 0.66566 0.24323 0.0
H680 H 0.24506 0.63848 0.15038 0.0
H681 H 0.30419 0.56343 0.19462 0.0
H682 H 0.30556 0.69534 0.13735 0.0
H683 H 0.29369 0.7094 0.17317 0.0
H684 H 0.26186 0.69508 0.14777 0.0
H685 H 0.37943 0.6018 0.19231 0.0
H686 H 0.35572 0.57568 0.21715 0.0
H687 H 0.36431 0.61903 0.22608 0.0
C688 C 0.30209 0.40752 0.15289 0.0
C689 C 0.27861 0.41236 0.17547 0.0
C690 C 0.32417 0.38002 0.1533 0.0
C691 C 0.32257 0.35663 0.17673 0.0
C692 C 0.29852 0.361 0.19931 0.0
C693 C 0.27691 0.3889 0.19847 0.0
C694 C 0.34961 0.37633 0.1289 0.0
C695 C 0.29587 0.33642 0.2245 0.0
C696 C 0.36393 0.27205 0.16267 0.0
C697 C 0.39547 0.27653 0.17595 0.0
C698 C 0.33946 0.29748 0.16361 0.0
C699 C 0.34685 0.3282 0.17795 0.0
C700 C 0.37821 0.33244 0.19221 0.0
C701 C 0.40207 0.30651 0.19116 0.0
C702 C 0.30614 0.29189 0.14845 0.0
C703 C 0.38709 0.36487 0.20765 0.0
H704 H 0.30359 0.42552 0.13505 0.0
H705 H 0.25871 0.39233 0.21592 0.0
H706 H 0.37543 0.37722 0.13814 0.0
H707 H 0.34659 0.35156 0.11801 0.0
H708 H 0.3472 0.39636 0.11201 0.0
H709 H 0.27489 0.34263 0.23965 0.0
H710 H 0.29202 0.31059 0.21595 0.0
H711 H 0.31968 0.33631 0.23722 0.0
H712 H 0.35855 0.24892 0.15099 0.0
H713 H 0.42636 0.31025 0.20148 0.0
H714 H 0.30375 0.30937 0.12955 0.0
H715 H 0.28513 0.29741 0.16372 0.0
H716 H 0.30333 0.26574 0.14025 0.0
H717 H 0.38779 0.38574 0.19146 0.0
H718 H 0.41187 0.36356 0.21888 0.0
H719 H 0.36759 0.3712 0.22415 0.0
C720 C 0.03495 0.37049 0.26997 0.0
C721 C 0.05563 0.35524 0.2911 0.0
C722 C 0.04824 0.39364 0.24974 0.0
C723 C 0.08309 0.40089 0.25029 0.0
C724 C 0.10371 0.38665 0.2724 0.0
C725 C 0.08964 0.36432 0.29273 0.0
C726 C 0.02532 0.40916 0.22703 0.0
C727 C 0.14111 0.39337 0.27354 0.0
C728 C 0.13155 0.4198 0.18092 0.0
C729 C 0.14092 0.45336 0.1855 0.0
C730 C 0.11107 0.40291 0.20112 0.0
C731 C 0.09905 0.42026 0.22615 0.0
C732 C 0.1062 0.45489 0.22966 0.0
C733 C 0.12748 0.47098 0.20945 0.0
C734 C 0.10442 0.36584 0.19676 0.0
C735 C 0.09295 0.47446 0.25558 0.0
H736 H 0.00854 0.36382 0.26885 0.0
H737 H 0.10578 0.35268 0.30902 0.0
H738 H 0.03031 0.43652 0.22497 0.0
H739 H 0.03023 0.39761 0.20527 0.0
H740 H 0.99837 0.40539 0.2325 0.0
H741 H 0.15328 0.38159 0.29297 0.0
H742 H 0.1532 0.38333 0.2534 0.0
H743 H 0.14604 0.42079 0.27416 0.0
H744 H 0.1418 0.40604 0.16244 0.0
H745 H 0.13434 0.49707 0.21286 0.0
H746 H 0.07716 0.36042 0.19859 0.0
H747 H 0.1174 0.3513 0.21424 0.0
H748 H 0.11341 0.35672 0.17507 0.0
H749 H 0.06606 0.46848 0.2595 0.0
H750 H 0.09559 0.50202 0.25235 0.0
H751 H 0.10709 0.4673 0.27566 0.0
C752 C 0.62297 0.03639 0.28329 0.0
C753 C 0.65295 0.05492 0.28187 0.0
C754 C 0.59379 0.04767 0.26882 0.0
C755 C 0.59495 0.07786 0.25234 0.0
C756 C 0.62554 0.0959 0.25003 0.0
C757 C 0.65403 0.08434 0.26497 0.0
C758 C 0.56155 0.02797 0.27197 0.0
C759 C 0.62806 0.12795 0.23229 0.0
C760 C 0.53406 0.10487 0.19314 0.0
C761 C 0.51822 0.13209 0.20697 0.0
C762 C 0.55722 0.08478 0.20843 0.0
C763 C 0.56427 0.0919 0.23828 0.0
C764 C 0.54563 0.11701 0.2531 0.0
C765 C 0.52296 0.13698 0.23721 0.0
C766 C 0.5765 0.05821 0.19182 0.0
C767 C 0.55185 0.1249 0.28511 0.0
H768 H 0.62201 0.01369 0.29645 0.0
H769 H 0.67724 0.09857 0.26355 0.0
H770 H 0.54328 0.04276 0.28506 0.0
H771 H 0.54999 0.02344 0.25013 0.0
H772 H 0.56558 0.0034 0.28304 0.0
H773 H 0.65413 0.13796 0.23151 0.0
H774 H 0.61935 0.12349 0.20945 0.0
H775 H 0.61154 0.14747 0.24199 0.0
H776 H 0.53038 0.10075 0.1698 0.0
H777 H 0.51037 0.15765 0.24814 0.0
H778 H 0.57932 0.03507 0.2052 0.0
H779 H 0.60212 0.06774 0.18691 0.0
H780 H 0.56407 0.05161 0.17072 0.0
H781 H 0.55382 0.10145 0.29819 0.0
H782 H 0.53159 0.14079 0.29454 0.0
H783 H 0.57604 0.13859 0.28734 0.0
C784 C 0.88873 0.55447 0.19052 0.0
C785 C 0.86902 0.5274 0.2002 0.0
C786 C 0.9072 0.57395 0.21049 0.0
C787 C 0.90664 0.56555 0.24073 0.0
C788 C 0.8896 0.5362 0.25014 0.0
C789 C 0.87053 0.5177 0.22979 0.0
C790 C 0.92453 0.60535 0.19957 0.0
C791 C 0.88941 0.52576 0.28203 0.0
C792 C 0.96414 0.61697 0.2903 0.0
C793 C 0.94162 0.64104 0.30117 0.0
C794 C 0.95297 0.59122 0.27148 0.0
C795 C 0.91881 0.5904 0.26268 0.0
C796 C 0.89604 0.61461 0.27378 0.0
C797 C 0.90765 0.6393 0.2932 0.0
C798 C 0.97769 0.56518 0.2608 0.0
C799 C 0.85954 0.61512 0.26447 0.0
H800 H 0.88772 0.5621 0.16766 0.0
H801 H 0.85569 0.4965 0.23729 0.0
H802 H 0.9103 0.62775 0.20705 0.0
H803 H 0.95028 0.60731 0.20875 0.0
H804 H 0.92614 0.60608 0.1752 0.0
H805 H 0.88092 0.49933 0.2848 0.0
H806 H 0.91482 0.5285 0.29184 0.0
H807 H 0.87208 0.54227 0.2945 0.0
H808 H 0.99039 0.61815 0.29666 0.0
H809 H 0.89022 0.65801 0.30141 0.0
H810 H 0.98152 0.56797 0.23679 0.0
H811 H 0.96759 0.53954 0.26463 0.0
H812 H 0.00248 0.56741 0.27191 0.0
H813 H 0.85776 0.61794 0.24025 0.0
H814 H 0.84528 0.63594 0.2749 0.0
H815 H 0.84726 0.59101 0.27036 0.0
C816 C 0.36978 0.95845 0.28015 0.0
C817 C 0.35378 0.93812 0.30112 0.0
C818 C 0.39281 0.94463 0.26013 0.0
C819 C 0.39929 0.90966 0.26079 0.0
C820 C 0.38432 0.88937 0.28274 0.0
C821 C 0.36203 0.90393 0.3028 0.0
C822 C 0.40905 0.96716 0.23753 0.0
C823 C 0.39027 0.85187 0.28402 0.0
C824 C 0.41828 0.86053 0.19184 0.0
C825 C 0.45161 0.85064 0.19684 0.0
C826 C 0.40149 0.88142 0.21174 0.0
C827 C 0.41871 0.89328 0.23693 0.0
C828 C 0.45316 0.8856 0.24087 0.0
C829 C 0.46916 0.86397 0.22092 0.0
C830 C 0.3646 0.88867 0.20691 0.0
C831 C 0.47259 0.89865 0.267 0.0
H832 H 0.36377 0.98499 0.27896 0.0
H833 H 0.34986 0.88806 0.31899 0.0
H834 H 0.43635 0.96174 0.23583 0.0
H835 H 0.39774 0.96229 0.21565 0.0
H836 H 0.40566 0.99421 0.24284 0.0
H837 H 0.37801 0.83999 0.30334 0.0
H838 H 0.38025 0.8399 0.26379 0.0
H839 H 0.41759 0.84645 0.28495 0.0
H840 H 0.40457 0.85039 0.17323 0.0
H841 H 0.49508 0.85671 0.22467 0.0
H842 H 0.35963 0.91601 0.20869 0.0
H843 H 0.34957 0.87593 0.22418 0.0
H844 H 0.35565 0.87983 0.1851 0.0
H845 H 0.46709 0.92565 0.27075 0.0
H846 H 0.50015 0.89548 0.26415 0.0
H847 H 0.46484 0.88476 0.28703 0.0
C848 C 0.13 0.53216 0.75479 0.0
C849 C 0.12367 0.51267 0.77987 0.0
C850 C 0.10403 0.54945 0.74052 0.0
C851 C 0.07078 0.54697 0.7514 0.0
C852 C 0.06367 0.52484 0.77496 0.0
C853 C 0.0903 0.50807 0.78909 0.0
C854 C 0.11271 0.57246 0.7152 0.0
C855 C 0.02839 0.52061 0.78657 0.0
C856 C 0.02579 0.6294 0.74023 0.0
C857 C 0.00963 0.62403 0.71322 0.0
C858 C 0.04363 0.60354 0.75413 0.0
C859 C 0.04517 0.57139 0.74084 0.0
C860 C 0.02622 0.56491 0.7151 0.0
C861 C 0.00877 0.59141 0.70146 0.0
C862 C 0.06311 0.61146 0.78181 0.0
C863 C 0.02632 0.5307 0.70078 0.0
H864 H 0.15561 0.53545 0.74716 0.0
H865 H 0.08506 0.49264 0.80819 0.0
H866 H 0.09561 0.56788 0.69636 0.0
H867 H 0.10938 0.59902 0.72209 0.0
H868 H 0.13905 0.5691 0.70765 0.0
H869 H 0.02584 0.49735 0.79992 0.0
H870 H 0.02199 0.5424 0.8007 0.0
H871 H 0.00983 0.51979 0.76836 0.0
H872 H 0.02612 0.65435 0.74979 0.0
H873 H 0.99592 0.58687 0.68081 0.0
H874 H 0.09046 0.61117 0.77695 0.0
H875 H 0.0583 0.59213 0.79886 0.0
H876 H 0.05655 0.63651 0.79094 0.0
H877 H 0.05008 0.52738 0.68837 0.0
H878 H 0.00498 0.52769 0.68522 0.0
H879 H 0.02503 0.51043 0.71751 0.0
C880 C 0.4148 0.14536 0.80842 0.0
C881 C 0.4493 0.1523 0.80657 0.0
C882 C 0.39967 0.12158 0.78998 0.0
C883 C 0.41963 0.10374 0.76951 0.0
C884 C 0.45483 0.10905 0.76878 0.0
C885 C 0.46925 0.13361 0.78712 0.0
C886 C 0.36196 0.11704 0.79125 0.0
C887 C 0.47703 0.08983 0.74782 0.0
C888 C 0.37161 0.03186 0.73421 0.0
C889 C 0.3591 0.04754 0.70883 0.0
C890 C 0.39366 0.04894 0.75323 0.0
C891 C 0.40275 0.08261 0.74694 0.0
C892 C 0.39179 0.09776 0.72046 0.0
C893 C 0.37039 0.07992 0.70163 0.0
C894 C 0.40565 0.03164 0.78083 0.0
C895 C 0.40059 0.13373 0.71301 0.0
H896 H 0.39918 0.1596 0.82342 0.0
H897 H 0.49601 0.13861 0.78583 0.0
H898 H 0.35056 0.12542 0.77021 0.0
H899 H 0.35555 0.09011 0.79415 0.0
H900 H 0.35033 0.13155 0.80944 0.0
H901 H 0.50411 0.09276 0.75326 0.0
H902 H 0.47057 0.06268 0.74808 0.0
H903 H 0.47291 0.0991 0.72511 0.0
H904 H 0.36332 0.00667 0.73974 0.0
H905 H 0.36109 0.09219 0.68196 0.0
H906 H 0.39175 0.04169 0.80003 0.0
H907 H 0.43278 0.0366 0.78457 0.0
H908 H 0.40155 0.00403 0.77989 0.0
H909 H 0.38834 0.15087 0.72899 0.0
H910 H 0.39231 0.14086 0.69053 0.0
H911 H 0.4281 0.13779 0.71471 0.0
C912 C 0.93156 0.3777 0.69529 0.0
C913 C 0.9649 0.36712 0.69894 0.0
C914 C 0.91678 0.40017 0.71505 0.0
C915 C 0.9361 0.41313 0.73862 0.0
C916 C 0.97067 0.40502 0.74085 0.0
C917 C 0.98459 0.38158 0.72121 0.0
C918 C 0.87973 0.40792 0.71194 0.0
C919 C 0.99245 0.41958 0.76486 0.0
C920 C 0.88662 0.47955 0.77919 0.0
C921 C 0.87102 0.45996 0.80089 0.0
C922 C 0.91083 0.46549 0.7604 0.0
C923 C 0.91852 0.43087 0.76282 0.0
C924 C 0.90453 0.41167 0.78601 0.0
C925 C 0.88127 0.42661 0.805 0.0
C926 C 0.92656 0.48714 0.73688 0.0
C927 C 0.91183 0.37458 0.78927 0.0
H928 H 0.91622 0.36684 0.67802 0.0
H929 H 0.01057 0.37388 0.72382 0.0
H930 H 0.86585 0.39729 0.73095 0.0
H931 H 0.87553 0.43547 0.71196 0.0
H932 H 0.86882 0.39733 0.69145 0.0
H933 H 0.01961 0.41749 0.75946 0.0
H934 H 0.98629 0.44641 0.76878 0.0
H935 H 0.98788 0.40574 0.78565 0.0
H936 H 0.87922 0.50557 0.77634 0.0
H937 H 0.86945 0.41141 0.82187 0.0
H938 H 0.9142 0.48199 0.71548 0.0
H939 H 0.95369 0.48129 0.73441 0.0
H940 H 0.92375 0.51434 0.74182 0.0
H941 H 0.90102 0.36075 0.77029 0.0
H942 H 0.90105 0.36395 0.80978 0.0
H943 H 0.93932 0.37003 0.7893 0.0
C944 C 0.63153 0.92913 0.68904 0.0
C945 C 0.64521 0.95967 0.69879 0.0
C946 C 0.61016 0.91022 0.70704 0.0
C947 C 0.60172 0.92247 0.73528 0.0
C948 C 0.61291 0.9547 0.74416 0.0
C949 C 0.63487 0.97284 0.7259 0.0
C950 C 0.59907 0.87582 0.6968 0.0
C951 C 0.60358 0.96903 0.77375 0.0
C952 C 0.53701 0.86979 0.77602 0.0
C953 C 0.55791 0.84901 0.79295 0.0
C954 C 0.5507 0.8953 0.75826 0.0
C955 C 0.58605 0.89927 0.75688 0.0
C956 C 0.60711 0.87884 0.77451 0.0
C957 C 0.59274 0.85428 0.79256 0.0
C958 C 0.52747 0.91727 0.7404 0.0
C959 C 0.64498 0.88181 0.77331 0.0
H960 H 0.63911 0.91888 0.668 0.0
H961 H 0.64495 0.99668 0.73339 0.0
H962 H 0.61217 0.85627 0.70993 0.0
H963 H 0.57169 0.87241 0.70024 0.0
H964 H 0.60477 0.87151 0.6732 0.0
H965 H 0.60872 0.99645 0.77501 0.0
H966 H 0.5766 0.96456 0.77854 0.0
H967 H 0.61843 0.95629 0.79115 0.0
H968 H 0.51003 0.86597 0.77648 0.0
H969 H 0.60905 0.83822 0.80551 0.0
H970 H 0.5295 0.91055 0.71682 0.0
H971 H 0.53477 0.94409 0.74255 0.0
H972 H 0.50081 0.9144 0.7472 0.0
H973 H 0.65392 0.87593 0.75079 0.0
H974 H 0.65768 0.86456 0.78899 0.0
H975 H 0.65285 0.90792 0.77838 0.0
C976 C 0.03153 0.24705 0.4413 0.0
C977 C 0.01909 0.27044 0.42096 0.0
C978 C 0.02597 0.25106 0.47149 0.0
C979 C 0.00791 0.2794 0.48163 0.0
C980 C 0.99602 0.3036 0.46131 0.0
C981 C 0.00155 0.2987 0.43113 0.0
C982 C 0.03875 0.22452 0.49247 0.0
C983 C 0.97707 0.33436 0.47142 0.0
C984 C 0.96565 0.26872 0.55564 0.0
C985 C 0.98953 0.28286 0.57468 0.0
C986 C 0.97088 0.26832 0.52518 0.0
C987 C 0.00049 0.28281 0.51347 0.0
C988 C 0.02402 0.29838 0.53245 0.0
C989 C 0.01838 0.29801 0.56289 0.0
C990 C 0.94537 0.25114 0.50566 0.0
C991 C 0.05564 0.31451 0.52069 0.0
H992 H 0.04503 0.22509 0.43362 0.0
H993 H 0.99205 0.31697 0.41552 0.0
H994 H 0.05548 0.23608 0.50917 0.0
H995 H 0.0173 0.213 0.50438 0.0
H996 H 0.05285 0.20428 0.48105 0.0
H997 H 0.97118 0.35172 0.45299 0.0
H998 H 0.95317 0.32669 0.48202 0.0
H999 H 0.99201 0.34818 0.48813 0.0
H1000 H 0.94332 0.25693 0.56459 0.0
H1001 H 0.03682 0.3092 0.57748 0.0
H1002 H 0.95704 0.22893 0.49503 0.0
H1003 H 0.93716 0.26837 0.48788 0.0
H1004 H 0.92285 0.24267 0.51804 0.0
H1005 H 0.07227 0.29492 0.51125 0.0
H1006 H 0.06981 0.3282 0.53802 0.0
H1007 H 0.04941 0.33235 0.50275 0.0
C1008 C 0.76389 0.02428 0.55704 0.0
C1009 C 0.73781 0.02109 0.57756 0.0
C1010 C 0.75703 0.02675 0.52689 0.0
C1011 C 0.72327 0.02612 0.51701 0.0
C1012 C 0.69678 0.02342 0.53761 0.0
C1013 C 0.70437 0.02088 0.56767 0.0
C1014 C 0.78599 0.02953 0.50556 0.0
C1015 C 0.66048 0.02281 0.52786 0.0
C1016 C 0.70965 0.05948 0.43979 0.0
C1017 C 0.71015 0.02973 0.42325 0.0
C1018 C 0.7125 0.05864 0.47053 0.0
C1019 C 0.71598 0.02733 0.485 0.0
C1020 C 0.71494 0.99716 0.46855 0.0
C1021 C 0.71197 0.99872 0.43788 0.0
C1022 C 0.71327 0.09132 0.48739 0.0
C1023 C 0.71852 0.96327 0.48321 0.0
H1024 H 0.78978 0.0245 0.56448 0.0
H1025 H 0.68406 0.01851 0.5834 0.0
H1026 H 0.78577 0.00775 0.49033 0.0
H1027 H 0.78326 0.05257 0.49202 0.0
H1028 H 0.81075 0.03036 0.51686 0.0
H1029 H 0.64279 0.0218 0.54672 0.0
H1030 H 0.65476 0.04547 0.51454 0.0
H1031 H 0.65593 0.0006 0.51365 0.0
H1032 H 0.7081 0.08353 0.42868 0.0
H1033 H 0.71222 0.97558 0.4253 0.0
H1034 H 0.73866 0.09515 0.49695 0.0
H1035 H 0.69517 0.0905 0.50591 0.0
H1036 H 0.70718 0.11327 0.47325 0.0
H1037 H 0.74402 0.96099 0.49293 0.0
H1038 H 0.7147 0.94216 0.46758 0.0
H1039 H 0.70016 0.96075 0.5014 0.0
C1040 C 0.98844 0.70852 0.57588 0.0
C1041 C 0.01997 0.7052 0.58945 0.0
C1042 C 0.98553 0.71045 0.54521 0.0
C1043 C 0.01484 0.70895 0.52766 0.0
C1044 C 0.04659 0.7041 0.54112 0.0
C1045 C 0.04878 0.70229 0.57189 0.0
C1046 C 0.95121 0.71555 0.53167 0.0
C1047 C 0.07839 0.70224 0.5231 0.0
C1048 C 0.00391 0.69458 0.44559 0.0
C1049 C 0.00573 0.72755 0.43469 0.0
C1050 C 0.00725 0.68801 0.47579 0.0
C1051 C 0.01247 0.71506 0.49549 0.0
C1052 C 0.01462 0.74832 0.48458 0.0
C1053 C 0.01125 0.75414 0.45434 0.0
C1054 C 0.0049 0.65223 0.48666 0.0
C1055 C 0.02011 0.77784 0.50491 0.0
H1056 H 0.966 0.71062 0.58925 0.0
H1057 H 0.07322 0.69959 0.58217 0.0
H1058 H 0.94998 0.74073 0.52124 0.0
H1059 H 0.94667 0.69666 0.51419 0.0
H1060 H 0.93071 0.71367 0.54816 0.0
H1061 H 0.10064 0.69548 0.53664 0.0
H1062 H 0.07559 0.68343 0.50527 0.0
H1063 H 0.08317 0.72693 0.51255 0.0
H1064 H 0.99973 0.67388 0.43054 0.0
H1065 H 0.01276 0.77968 0.44613 0.0
H1066 H 0.98327 0.64965 0.50188 0.0
H1067 H 0.02788 0.64557 0.49921 0.0
H1068 H 0.00174 0.63394 0.46841 0.0
H1069 H 0.99914 0.77949 0.5209 0.0
H1070 H 0.0218 0.80208 0.49285 0.0
H1071 H 0.04362 0.77428 0.51769 0.0
C1072 C 0.25796 0.02693 0.56316 0.0
C1073 C 0.2782 0.0098 0.58347 0.0
C1074 C 0.26006 0.02003 0.53303 0.0
C1075 C 0.28342 0.99585 0.52291 0.0
C1076 C 0.30481 0.97934 0.54317 0.0
C1077 C 0.30171 0.98627 0.5733 0.0
C1078 C 0.23645 0.0378 0.51213 0.0
C1079 C 0.33048 0.95391 0.53308 0.0
C1080 C 0.26167 0.95367 0.45069 0.0
C1081 C 0.27995 0.97312 0.43057 0.0
C1082 C 0.2632 0.96034 0.48091 0.0
C1083 C 0.28402 0.98667 0.49128 0.0
C1084 C 0.30366 0.00546 0.4712 0.0
C1085 C 0.30112 0.99868 0.441 0.0
C1086 C 0.24147 0.94009 0.50159 0.0
C1087 C 0.32665 0.03328 0.48154 0.0
H1088 H 0.23964 0.04505 0.57089 0.0
H1089 H 0.31759 0.97313 0.58891 0.0
H1090 H 0.25093 0.05085 0.49472 0.0
H1091 H 0.21997 0.01912 0.50112 0.0
H1092 H 0.22032 0.05653 0.52347 0.0
H1093 H 0.34698 0.94532 0.55131 0.0
H1094 H 0.31751 0.93169 0.52364 0.0
H1095 H 0.3464 0.96481 0.51547 0.0
H1096 H 0.24515 0.93398 0.44275 0.0
H1097 H 0.31549 0.01362 0.42553 0.0
H1098 H 0.22291 0.95686 0.51236 0.0
H1099 H 0.25708 0.92877 0.51921 0.0
H1100 H 0.22763 0.91966 0.49013 0.0
H1101 H 0.31148 0.05417 0.4907 0.0
H1102 H 0.34251 0.04336 0.46349 0.0
H1103 H 0.34328 0.02405 0.49939 0.0
C1104 C 0.55324 0.76476 0.93545 0.0
C1105 C 0.52484 0.76892 0.91752 0.0
C1106 C 0.55042 0.76442 0.96614 0.0
C1107 C 0.51839 0.7682 0.9792 0.0
C1108 C 0.48976 0.77359 0.96129 0.0
C1109 C 0.49334 0.77397 0.93061 0.0
C1110 C 0.58156 0.75883 0.98454 0.0
C1111 C 0.45519 0.77767 0.97449 0.0
C1112 C 0.50644 0.72775 0.05384 0.0
C1113 C 0.50906 0.75544 0.07276 0.0
C1114 C 0.5091 0.73169 0.02334 0.0
C1115 C 0.51461 0.7641 0.01146 0.0
C1116 C 0.51721 0.79221 0.03038 0.0
C1117 C 0.51437 0.78755 0.06086 0.0
C1118 C 0.50616 0.70109 0.00383 0.0
C1119 C 0.52321 0.82712 0.01843 0.0
H1120 H 0.57772 0.76111 0.9255 0.0
H1121 H 0.47128 0.77726 0.91689 0.0
H1122 H 0.58378 0.77865 0.00158 0.0
H1123 H 0.57966 0.73435 0.99611 0.0
H1124 H 0.60487 0.75881 0.9711 0.0
H1125 H 0.43592 0.78407 0.9577 0.0
H1126 H 0.44761 0.75395 0.9855 0.0
H1127 H 0.45546 0.79765 0.99149 0.0
H1128 H 0.50226 0.70287 0.06284 0.0
H1129 H 0.5164 0.80908 0.07536 0.0
H1130 H 0.52972 0.69768 0.99115 0.0
H1131 H 0.48549 0.70463 0.98773 0.0
H1132 H 0.50123 0.67775 0.01654 0.0
H1133 H 0.54732 0.8278 0.00619 0.0
H1134 H 0.52409 0.8464 0.03607 0.0
H1135 H 0.50301 0.83391 0.00268 0.0
C1136 C 0.2024 0.49867 0.92174 0.0
C1137 C 0.19719 0.52897 0.90661 0.0
C1138 C 0.20566 0.49811 0.95241 0.0
C1139 C 0.20358 0.52857 0.96837 0.0
C1140 C 0.19663 0.55899 0.95342 0.0
C1141 C 0.1935 0.55884 0.92267 0.0
C1142 C 0.2129 0.46511 0.96759 0.0
C1143 C 0.19405 0.59193 0.96973 0.0
C1144 C 0.19346 0.5211 0.05111 0.0
C1145 C 0.22687 0.52415 0.06073 0.0
C1146 C 0.1853 0.52337 0.02115 0.0
C1147 C 0.21118 0.52875 0.00036 0.0
C1148 C 0.24481 0.53272 0.01 0.0
C1149 C 0.25224 0.53039 0.04007 0.0
C1150 C 0.14915 0.51914 0.01167 0.0
C1151 C 0.27311 0.53853 0.98847 0.0
H1152 H 0.20511 0.47543 0.90954 0.0
H1153 H 0.18939 0.58235 0.91117 0.0
H1154 H 0.23855 0.46575 0.9772 0.0
H1155 H 0.19498 0.46103 0.98591 0.0
H1156 H 0.21127 0.44338 0.95231 0.0
H1157 H 0.18533 0.61273 0.95532 0.0
H1158 H 0.17648 0.58954 0.98853 0.0
H1159 H 0.21903 0.59876 0.97884 0.0
H1160 H 0.17367 0.51639 0.06695 0.0
H1161 H 0.2781 0.53291 0.0473 0.0
H1162 H 0.14658 0.49605 0.99818 0.0
H1163 H 0.14128 0.54064 0.99773 0.0
H1164 H 0.13174 0.51725 0.03068 0.0
H1165 H 0.27542 0.51656 0.9736 0.0
H1166 H 0.29766 0.54252 -0.00037 0.0
H1167 H 0.26761 0.56079 0.97458 0.0
C1168 C 0.48388 0.20127 0.06958 0.0
C1169 C 0.51471 0.20272 0.08455 0.0
C1170 C 0.48273 0.19804 0.03889 0.0
C1171 C 0.51312 0.19641 0.02279 0.0
C1172 C 0.54428 0.19671 0.03784 0.0
C1173 C 0.5447 0.19977 0.06856 0.0
C1174 C 0.449 0.19755 0.02361 0.0
C1175 C 0.57722 0.19513 0.02142 0.0
C1176 C 0.51091 0.16804 0.94298 0.0
C1177 C 0.51061 0.19895 0.92813 0.0
C1178 C 0.51167 0.16673 0.97384 0.0
C1179 C 0.51238 0.19704 0.99013 0.0
C1180 C 0.51234 0.22828 0.97524 0.0
C1181 C 0.51135 0.22885 0.94447 0.0
C1182 C 0.51151 0.13297 0.98902 0.0
C1183 C 0.51331 0.26117 0.99183 0.0
H1184 H 0.46059 0.2033 0.08179 0.0
H1185 H 0.56863 0.20077 0.07994 0.0
H1186 H 0.44613 0.22061 0.0101 0.0
H1187 H 0.44736 0.17574 0.00849 0.0
H1188 H 0.42775 0.19627 0.03939 0.0
H1189 H 0.59916 0.19322 0.03646 0.0
H1190 H 0.57745 0.17325 0.00632 0.0
H1191 H 0.58019 0.21806 0.00776 0.0
H1192 H 0.51025 0.14483 0.93052 0.0
H1193 H 0.51125 0.25287 0.9332 0.0
H1194 H 0.48926 0.131 0.00361 0.0
H1195 H 0.53415 0.13043 0.0031 0.0
H1196 H 0.51097 0.11173 0.97318 0.0
H1197 H 0.49112 0.26309 0.00649 0.0
H1198 H 0.51352 0.28329 0.97693 0.0
H1199 H 0.53604 0.26219 0.00597 0.0
C1200 C 0.80378 0.52283 0.93206 0.0
C1201 C 0.77115 0.52223 0.92029 0.0
C1202 C 0.80904 0.52465 0.96253 0.0
C1203 C 0.78101 0.52585 0.98162 0.0
C1204 C 0.74805 0.526 0.96984 0.0
C1205 C 0.74352 0.52422 0.93932 0.0
C1206 C 0.84454 0.52458 0.97432 0.0
C1207 C 0.71751 0.52729 0.98953 0.0
C1208 C 0.78844 0.49499 0.0602 0.0
C1209 C 0.78922 0.5253 0.07592 0.0
C1210 C 0.78675 0.49482 0.02942 0.0
C1211 C 0.78592 0.52572 0.01399 0.0
C1212 C 0.78793 0.55639 0.02964 0.0
C1213 C 0.78953 0.55582 0.06045 0.0
C1214 C 0.78469 0.46159 0.01347 0.0
C1215 C 0.78726 0.58981 0.01391 0.0
H1216 H 0.82527 0.52138 0.91749 0.0
H1217 H 0.71823 0.52385 0.93042 0.0
H1218 H 0.84857 0.54659 0.98888 0.0
H1219 H 0.84872 0.5017 0.98779 0.0
H1220 H 0.86361 0.52519 0.9565 0.0
H1221 H 0.69365 0.52835 0.97685 0.0
H1222 H 0.71693 0.50474 0.00388 0.0
H1223 H 0.71885 0.54962 0.00408 0.0
H1224 H 0.78825 0.47129 0.07197 0.0
H1225 H 0.79024 0.57936 0.07242 0.0
H1226 H 0.80449 0.46011 0.99637 0.0
H1227 H 0.76005 0.45948 0.00214 0.0
H1228 H 0.78753 0.43982 0.02857 0.0
H1229 H 0.8068 0.59049 0.99654 0.0
H1230 H 0.79143 0.61128 0.0291 0.0
H1231 H 0.76257 0.5932 0.00292 0.0
loop_
_geom_bond_atom_site_label_1
_geom_bond_atom_site_label_2
_geom_bond_distance
_geom_bond_site_symmetry_2
_ccdc_geom_bond_type
C0 O1 1.160 . S
C0 O7 1.185 . S
O1 C0 1.160 . S
O2 Zn3 1.899 . S
O2 C10 1.284 . S
Zn3 O2 1.899 . S
Zn3 O4 2.032 . S
Zn3 O7 2.086 . S
Zn3 O12 1.977 1_455 S
O4 Zn3 2.032 . S
O4 C8 1.278 . S
C5 O6 1.203 . S
C5 O12 1.267 . S
O6 C5 1.203 . S
O7 C0 1.185 . S
O7 Zn3 2.086 . S
C8 O4 1.278 . S
C8 O9 1.211 . S
O9 C8 1.211 . S
C10 O2 1.284 . S
C10 O11 1.273 . S
O11 C10 1.273 . S
O12 Zn3 1.977 1_655 S
O12 C5 1.267 . S
C13 O14 1.160 . S
C13 O20 1.185 . S
O14 C13 1.160 . S
O15 Zn16 1.899 . S
O15 C23 1.284 . S
Zn16 O15 1.899 . S
Zn16 O17 2.032 . S
Zn16 O20 2.086 . S
Zn16 O25 1.977 1_545 S
O17 Zn16 2.032 . S
O17 C21 1.278 . S
C18 O19 1.203 . S
C18 O25 1.267 . S
O19 C18 1.203 . S
O20 C13 1.185 . S
O20 Zn16 2.086 . S
C21 O17 1.278 . S
C21 O22 1.211 . S
O22 C21 1.211 . S
C23 O15 1.284 . S
C23 O24 1.273 . S
O24 C23 1.273 . S
O25 Zn16 1.977 1_565 S
O25 C18 1.267 . S
C26 O27 1.160 . S
C26 O33 1.185 . S
O27 C26 1.160 . S
O28 Zn29 1.899 . S
O28 C36 1.284 . S
Zn29 O28 1.899 . S
Zn29 O30 2.032 . S
Zn29 O33 2.086 . S
Zn29 O38 1.977 1_655 S
O30 Zn29 2.032 . S
O30 C34 1.278 . S
C31 O32 1.203 . S
C31 O38 1.267 . S
O32 C31 1.203 . S
O33 C26 1.185 . S
O33 Zn29 2.086 . S
C34 O30 1.278 . S
C34 O35 1.211 . S
O35 C34 1.211 . S
C36 O28 1.284 . S
C36 O37 1.273 . S
O37 C36 1.273 . S
O38 Zn29 1.977 1_455 S
O38 C31 1.267 . S
C39 O40 1.160 . S
C39 O46 1.185 . S
O40 C39 1.160 . S
O41 Zn42 1.899 . S
O41 C49 1.284 . S
Zn42 O41 1.899 . S
Zn42 O43 2.032 . S
Zn42 O46 2.086 . S
Zn42 O51 1.977 1_565 S
O43 Zn42 2.032 . S
O43 C47 1.278 . S
C44 O45 1.203 . S
C44 O51 1.267 . S
O45 C44 1.203 . S
O46 C39 1.185 . S
O46 Zn42 2.086 . S
C47 O43 1.278 . S
C47 O48 1.211 . S
O48 C47 1.211 . S
C49 O41 1.284 . S
C49 O50 1.273 . S
O50 C49 1.273 . S
O51 Zn42 1.977 1_545 S
O51 C44 1.267 . S
C52 O53 1.160 . S
C52 O59 1.185 . S
O53 C52 1.160 . S
O54 Zn55 1.899 . S
O54 C62 1.284 . S
Zn55 O54 1.899 . S
Zn55 O56 2.032 . S
Zn55 O59 2.086 . S
Zn55 O64 1.977 1_455 S
O56 Zn55 2.032 . S
O56 C60 1.278 . S
C57 O58 1.203 . S
C57 O64 1.267 . S
O58 C57 1.203 . S
O59 C52 1.185 . S
O59 Zn55 2.086 . S
C60 O56 1.278 . S
C60 O61 1.211 . S
O61 C60 1.211 . S
C62 O54 1.284 . S
C62 O63 1.273 . S
O63 C62 1.273 . S
O64 Zn55 1.977 1_655 S
O64 C57 1.267 . S
C65 O66 1.160 . S
C65 O72 1.185 . S
O66 C65 1.160 . S
O67 Zn68 1.899 . S
O67 C75 1.284 . S
Zn68 O67 1.899 . S
Zn68 O69 2.032 . S
Zn68 O72 2.086 . S
Zn68 O77 1.977 1_545 S
O69 Zn68 2.032 . S
O69 C73 1.278 . S
C70 O71 1.203 . S
C70 O77 1.267 . S
O71 C70 1.203 . S
O72 C65 1.185 . S
O72 Zn68 2.086 . S
C73 O69 1.278 . S
C73 O74 1.211 . S
O74 C73 1.211 . S
C75 O67 1.284 . S
C75 O76 1.273 . S
O76 C75 1.273 . S
O77 Zn68 1.977 1_565 S
O77 C70 1.267 . S
C78 O79 1.160 . S
C78 O85 1.185 . S
O79 C78 1.160 . S
O80 Zn81 1.899 . S
O80 C88 1.284 . S
Zn81 O80 1.899 . S
Zn81 O82 2.032 . S
Zn81 O85 2.086 . S
Zn81 O90 1.977 1_655 S
O82 Zn81 2.032 . S
O82 C86 1.278 . S
C83 O84 1.203 . S
C83 O90 1.267 . S
O84 C83 1.203 . S
O85 C78 1.185 . S
O85 Zn81 2.086 . S
C86 O82 1.278 . S
C86 O87 1.211 . S
O87 C86 1.211 . S
C88 O80 1.284 . S
C88 O89 1.273 . S
O89 C88 1.273 . S
O90 Zn81 1.977 1_455 S
O90 C83 1.267 . S
C91 O92 1.160 . S
C91 O98 1.185 . S
O92 C91 1.160 . S
O93 Zn94 1.899 . S
O93 C101 1.284 . S
Zn94 O93 1.899 . S
Zn94 O95 2.032 . S
Zn94 O98 2.086 . S
Zn94 O103 1.977 1_565 S
O95 Zn94 2.032 . S
O95 C99 1.278 . S
C96 O97 1.203 . S
C96 O103 1.267 . S
O97 C96 1.203 . S
O98 C91 1.185 . S
O98 Zn94 2.086 . S
C99 O95 1.278 . S
C99 O100 1.211 . S
O100 C99 1.211 . S
C101 O93 1.284 . S
C101 O102 1.273 . S
O102 C101 1.273 . S
O103 Zn94 1.977 1_545 S
O103 C96 1.267 . S
C104 O105 1.160 . S
C104 O111 1.185 . S
O105 C104 1.160 . S
O106 Zn107 1.899 . S
O106 C114 1.284 . S
Zn107 O106 1.899 . S
Zn107 O108 2.032 . S
Zn107 O111 2.086 . S
Zn107 O116 1.977 . S
O108 Zn107 2.032 . S
O108 C112 1.278 . S
C109 O110 1.203 . S
C109 O116 1.267 . S
O110 C109 1.203 . S
O111 C104 1.185 . S
O111 Zn107 2.086 . S
C112 O108 1.278 . S
C112 O113 1.211 . S
O113 C112 1.211 . S
C114 O106 1.284 . S
C114 O115 1.273 . S
O115 C114 1.273 . S
O116 Zn107 1.977 . S
O116 C109 1.267 . S
C117 O118 1.160 . S
C117 O124 1.185 . S
O118 C117 1.160 . S
O119 Zn120 1.899 . S
O119 C127 1.284 . S
Zn120 O119 1.899 . S
Zn120 O121 2.032 . S
Zn120 O124 2.086 . S
Zn120 O129 1.977 . S
O121 Zn120 2.032 . S
O121 C125 1.278 . S
C122 O123 1.203 . S
C122 O129 1.267 . S
O123 C122 1.203 . S
O124 C117 1.185 . S
O124 Zn120 2.086 . S
C125 O121 1.278 . S
C125 O126 1.211 . S
O126 C125 1.211 . S
C127 O119 1.284 . S
C127 O128 1.273 . S
O128 C127 1.273 . S
O129 Zn120 1.977 . S
O129 C122 1.267 . S
C130 O131 1.160 . S
C130 O137 1.185 . S
O131 C130 1.160 . S
O132 Zn133 1.899 . S
O132 C140 1.284 . S
Zn133 O132 1.899 . S
Zn133 O134 2.032 . S
Zn133 O137 2.086 . S
Zn133 O142 1.977 . S
O134 Zn133 2.032 . S
O134 C138 1.278 . S
C135 O136 1.203 . S
C135 O142 1.267 . S
O136 C135 1.203 . S
O137 C130 1.185 . S
O137 Zn133 2.086 . S
C138 O134 1.278 . S
C138 O139 1.211 . S
O139 C138 1.211 . S
C140 O132 1.284 . S
C140 O141 1.273 . S
O141 C140 1.273 . S
O142 Zn133 1.977 . S
O142 C135 1.267 . S
C143 O144 1.160 . S
C143 O150 1.185 . S
O144 C143 1.160 . S
O145 Zn146 1.899 . S
O145 C153 1.284 . S
Zn146 O145 1.899 . S
Zn146 O147 2.032 . S
Zn146 O150 2.086 . S
Zn146 O155 1.977 . S
O147 Zn146 2.032 . S
O147 C151 1.278 . S
C148 O149 1.203 . S
C148 O155 1.267 . S
O149 C148 1.203 . S
O150 C143 1.185 . S
O150 Zn146 2.086 . S
C151 O147 1.278 . S
C151 O152 1.211 . S
O152 C151 1.211 . S
C153 O145 1.284 . S
C153 O154 1.273 . S
O154 C153 1.273 . S
O155 Zn146 1.977 . S
O155 C148 1.267 . S
C156 O157 1.160 . S
C156 O163 1.185 . S
O157 C156 1.160 . S
O158 Zn159 1.899 . S
O158 C166 1.284 . S
Zn159 O158 1.899 . S
Zn159 O160 2.032 . S
Zn159 O163 2.086 . S
Zn159 O168 1.977 . S
O160 Zn159 2.032 . S
O160 C164 1.278 . S
C161 O162 1.203 . S
C161 O168 1.267 . S
O162 C161 1.203 . S
O163 C156 1.185 . S
O163 Zn159 2.086 . S
C164 O160 1.278 . S
C164 O165 1.211 . S
O165 C164 1.211 . S
C166 O158 1.284 . S
C166 O167 1.273 . S
O167 C166 1.273 . S
O168 Zn159 1.977 . S
O168 C161 1.267 . S
C169 O170 1.160 . S
C169 O176 1.185 . S
O170 C169 1.160 . S
O171 Zn172 1.899 . S
O171 C179 1.284 . S
Zn172 O171 1.899 . S
Zn172 O173 2.032 . S
Zn172 O176 2.086 . S
Zn172 O181 1.977 . S
O173 Zn172 2.032 . S
O173 C177 1.278 . S
C174 O175 1.203 . S
C174 O181 1.267 . S
O175 C174 1.203 . S
O176 C169 1.185 . S
O176 Zn172 2.086 . S
C177 O173 1.278 . S
C177 O178 1.211 . S
O178 C177 1.211 . S
C179 O171 1.284 . S
C179 O180 1.273 . S
O180 C179 1.273 . S
O181 Zn172 1.977 . S
O181 C174 1.267 . S
C182 O183 1.160 . S
C182 O189 1.185 . S
O183 C182 1.160 . S
O184 Zn185 1.899 . S
O184 C192 1.284 . S
Zn185 O184 1.899 . S
Zn185 O186 2.032 . S
Zn185 O189 2.086 . S
Zn185 O194 1.977 . S
O186 Zn185 2.032 . S
O186 C190 1.278 . S
C187 O188 1.203 . S
C187 O194 1.267 . S
O188 C187 1.203 . S
O189 C182 1.185 . S
O189 Zn185 2.086 . S
C190 O186 1.278 . S
C190 O191 1.211 . S
O191 C190 1.211 . S
C192 O184 1.284 . S
C192 O193 1.273 . S
O193 C192 1.273 . S
O194 Zn185 1.977 . S
O194 C187 1.267 . S
C195 O196 1.160 . S
C195 O202 1.185 . S
O196 C195 1.160 . S
O197 Zn198 1.899 . S
O197 C205 1.284 . S
Zn198 O197 1.899 . S
Zn198 O199 2.032 . S
Zn198 O202 2.086 . S
Zn198 O207 1.977 . S
O199 Zn198 2.032 . S
O199 C203 1.278 . S
C200 O201 1.203 . S
C200 O207 1.267 . S
O201 C200 1.203 . S
O202 C195 1.185 . S
O202 Zn198 2.086 . S
C203 O199 1.278 . S
C203 O204 1.211 . S
O204 C203 1.211 . S
C205 O197 1.284 . S
C205 O206 1.273 . S
O206 C205 1.273 . S
O207 Zn198 1.977 . S
O207 C200 1.267 . S
C208 C209 1.391 . S
C208 C210 1.394 . S
C208 H224 0.931 . S
C209 C208 1.391 . S
C209 C213 1.376 . S
C210 C208 1.394 . S
C210 C211 1.369 . S
C210 C214 1.531 . S
C211 C210 1.369 . S
C211 C212 1.410 . S
C211 C219 1.503 . S
C212 C211 1.410 . S
C212 C213 1.392 . S
C212 C215 1.511 . S
C213 C209 1.376 . S
C213 C212 1.392 . S
C213 H225 0.929 . S
C214 C210 1.531 . S
C214 H226 0.960 . S
C214 H227 0.962 . S
C214 H228 0.960 . S
C215 C212 1.511 . S
C215 H229 0.961 . S
C215 H230 0.961 . S
C215 H231 0.961 . S
C216 C217 1.370 . S
C216 C218 1.363 . S
C216 H232 0.931 . S
C217 C216 1.370 . S
C217 C221 1.408 . S
C218 C216 1.363 . S
C218 C219 1.370 . S
C218 C222 1.524 . S
C219 C211 1.503 . S
C219 C218 1.370 . S
C219 C220 1.403 . S
C220 C219 1.403 . S
C220 C221 1.404 . S
C220 C223 1.539 . S
C221 C217 1.408 . S
C221 C220 1.404 . S
C221 H233 0.930 . S
C222 C218 1.524 . S
C222 H234 0.956 . S
C222 H235 0.961 . S
C222 H236 0.961 . S
C223 C220 1.539 . S
C223 H237 0.958 . S
C223 H238 0.961 . S
C223 H239 0.960 . S
H224 C208 0.931 . S
H225 C213 0.929 . S
H226 C214 0.960 . S
H227 C214 0.962 . S
H228 C214 0.960 . S
H229 C215 0.961 . S
H230 C215 0.961 . S
H231 C215 0.961 . S
H232 C216 0.931 . S
H233 C221 0.930 . S
H234 C222 0.956 . S
H235 C222 0.961 . S
H236 C222 0.961 . S
H237 C223 0.958 . S
H238 C223 0.961 . S
H239 C223 0.960 . S
C240 C241 1.391 . S
C240 C242 1.394 . S
C240 H256 0.931 . S
C241 C240 1.391 . S
C241 C245 1.376 . S
C242 C240 1.394 . S
C242 C243 1.369 . S
C242 C246 1.531 . S
C243 C242 1.369 . S
C243 C244 1.410 . S
C243 C251 1.503 . S
C244 C243 1.410 . S
C244 C245 1.392 . S
C244 C247 1.511 . S
C245 C241 1.376 . S
C245 C244 1.392 . S
C245 H257 0.929 . S
C246 C242 1.531 . S
C246 H258 0.960 . S
C246 H259 0.962 . S
C246 H260 0.960 . S
C247 C244 1.511 . S
C247 H261 0.961 . S
C247 H262 0.961 . S
C247 H263 0.961 . S
C248 C249 1.370 . S
C248 C250 1.363 . S
C248 H264 0.931 . S
C249 C248 1.370 . S
C249 C253 1.408 . S
C250 C248 1.363 . S
C250 C251 1.370 . S
C250 C254 1.524 . S
C251 C243 1.503 . S
C251 C250 1.370 . S
C251 C252 1.403 . S
C252 C251 1.403 . S
C252 C253 1.404 . S
C252 C255 1.539 . S
C253 C249 1.408 . S
C253 C252 1.404 . S
C253 H265 0.930 . S
C254 C250 1.524 . S
C254 H266 0.956 . S
C254 H267 0.961 . S
C254 H268 0.961 . S
C255 C252 1.539 . S
C255 H269 0.958 . S
C255 H270 0.961 . S
C255 H271 0.960 . S
H256 C240 0.931 . S
H257 C245 0.929 . S
H258 C246 0.960 . S
H259 C246 0.962 . S
H260 C246 0.960 . S
H261 C247 0.961 . S
H262 C247 0.961 . S
H263 C247 0.961 . S
H264 C248 0.931 . S
H265 C253 0.930 . S
H266 C254 0.956 . S
H267 C254 0.961 . S
H268 C254 0.961 . S
H269 C255 0.958 . S
H270 C255 0.961 . S
H271 C255 0.960 . S
C272 C273 1.391 . S
C272 C274 1.394 . S
C272 H288 0.931 . S
C273 C272 1.391 . S
C273 C277 1.376 . S
C274 C272 1.394 . S
C274 C275 1.369 . S
C274 C278 1.531 . S
C275 C274 1.369 . S
C275 C276 1.410 . S
C275 C283 1.503 . S
C276 C275 1.410 . S
C276 C277 1.392 . S
C276 C279 1.511 . S
C277 C273 1.376 . S
C277 C276 1.392 . S
C277 H289 0.929 . S
C278 C274 1.531 . S
C278 H290 0.960 . S
C278 H291 0.962 . S
C278 H292 0.960 . S
C279 C276 1.511 . S
C279 H293 0.961 . S
C279 H294 0.961 . S
C279 H295 0.961 . S
C280 C281 1.370 . S
C280 C282 1.363 . S
C280 H296 0.931 . S
C281 C280 1.370 . S
C281 C285 1.408 . S
C282 C280 1.363 . S
C282 C283 1.370 . S
C282 C286 1.524 . S
C283 C275 1.503 . S
C283 C282 1.370 . S
C283 C284 1.403 . S
C284 C283 1.403 . S
C284 C285 1.404 . S
C284 C287 1.539 . S
C285 C281 1.408 . S
C285 C284 1.404 . S
C285 H297 0.930 . S
C286 C282 1.524 . S
C286 H298 0.956 . S
C286 H299 0.961 . S
C286 H300 0.961 . S
C287 C284 1.539 . S
C287 H301 0.958 . S
C287 H302 0.961 . S
C287 H303 0.960 . S
H288 C272 0.931 . S
H289 C277 0.929 . S
H290 C278 0.960 . S
H291 C278 0.962 . S
H292 C278 0.960 . S
H293 C279 0.961 . S
H294 C279 0.961 . S
H295 C279 0.961 . S
H296 C280 0.931 . S
H297 C285 0.930 . S
H298 C286 0.956 . S
H299 C286 0.961 . S
H300 C286 0.961 . S
H301 C287 0.958 . S
H302 C287 0.961 . S
H303 C287 0.960 . S
C304 C305 1.391 . S
C304 C306 1.394 . S
C304 H320 0.931 . S
C305 C304 1.391 . S
C305 C309 1.376 . S
C306 C304 1.394 . S
C306 C307 1.369 . S
C306 C310 1.531 . S
C307 C306 1.369 . S
C307 C308 1.410 . S
C307 C315 1.503 . S
C308 C307 1.410 . S
C308 C309 1.392 . S
C308 C311 1.511 . S
C309 C305 1.376 . S
C309 C308 1.392 . S
C309 H321 0.929 . S
C310 C306 1.531 . S
C310 H322 0.960 . S
C310 H323 0.962 . S
C310 H324 0.960 . S
C311 C308 1.511 . S
C311 H325 0.961 . S
C311 H326 0.961 . S
C311 H327 0.961 . S
C312 C313 1.370 . S
C312 C314 1.363 . S
C312 H328 0.931 . S
C313 C312 1.370 . S
C313 C317 1.408 . S
C314 C312 1.363 . S
C314 C315 1.370 . S
C314 C318 1.524 . S
C315 C307 1.503 . S
C315 C314 1.370 . S
C315 C316 1.403 . S
C316 C315 1.403 . S
C316 C317 1.404 . S
C316 C319 1.539 . S
C317 C313 1.408 . S
C317 C316 1.404 . S
C317 H329 0.930 . S
C318 C314 1.524 . S
C318 H330 0.956 . S
C318 H331 0.961 . S
C318 H332 0.961 . S
C319 C316 1.539 . S
C319 H333 0.958 . S
C319 H334 0.961 . S
C319 H335 0.960 . S
H320 C304 0.931 . S
H321 C309 0.929 . S
H322 C310 0.960 . S
H323 C310 0.962 . S
H324 C310 0.960 . S
H325 C311 0.961 . S
H326 C311 0.961 . S
H327 C311 0.961 . S
H328 C312 0.931 . S
H329 C317 0.930 . S
H330 C318 0.956 . S
H331 C318 0.961 . S
H332 C318 0.961 . S
H333 C319 0.958 . S
H334 C319 0.961 . S
H335 C319 0.960 . S
C336 C337 1.391 . S
C336 C338 1.394 . S
C336 H352 0.931 . S
C337 C336 1.391 . S
C337 C341 1.376 . S
C338 C336 1.394 . S
C338 C339 1.369 . S
C338 C342 1.531 . S
C339 C338 1.369 . S
C339 C340 1.410 . S
C339 C347 1.503 . S
C340 C339 1.410 . S
C340 C341 1.392 . S
C340 C343 1.511 . S
C341 C337 1.376 . S
C341 C340 1.392 . S
C341 H353 0.929 . S
C342 C338 1.531 . S
C342 H354 0.960 . S
C342 H355 0.962 . S
C342 H356 0.960 . S
C343 C340 1.511 . S
C343 H357 0.961 . S
C343 H358 0.961 . S
C343 H359 0.961 . S
C344 C345 1.370 . S
C344 C346 1.363 . S
C344 H360 0.931 . S
C345 C344 1.370 . S
C345 C349 1.408 . S
C346 C344 1.363 . S
C346 C347 1.370 . S
C346 C350 1.524 . S
C347 C339 1.503 . S
C347 C346 1.370 . S
C347 C348 1.403 . S
C348 C347 1.403 . S
C348 C349 1.404 . S
C348 C351 1.539 . S
C349 C345 1.408 . S
C349 C348 1.404 . S
C349 H361 0.930 . S
C350 C346 1.524 . S
C350 H362 0.956 . S
C350 H363 0.961 . S
C350 H364 0.961 . S
C351 C348 1.539 . S
C351 H365 0.958 . S
C351 H366 0.961 . S
C351 H367 0.960 . S
H352 C336 0.931 . S
H353 C341 0.929 . S
H354 C342 0.960 . S
H355 C342 0.962 . S
H356 C342 0.960 . S
H357 C343 0.961 . S
H358 C343 0.961 . S
H359 C343 0.961 . S
H360 C344 0.931 . S
H361 C349 0.930 . S
H362 C350 0.956 . S
H363 C350 0.961 . S
H364 C350 0.961 . S
H365 C351 0.958 . S
H366 C351 0.961 . S
H367 C351 0.960 . S
C368 C369 1.391 . S
C368 C370 1.394 . S
C368 H384 0.931 . S
C369 C368 1.391 . S
C369 C373 1.376 . S
C370 C368 1.394 . S
C370 C371 1.369 . S
C370 C374 1.531 . S
C371 C370 1.369 . S
C371 C372 1.410 . S
C371 C379 1.503 . S
C372 C371 1.410 . S
C372 C373 1.392 . S
C372 C375 1.511 . S
C373 C369 1.376 . S
C373 C372 1.392 . S
C373 H385 0.929 . S
C374 C370 1.531 . S
C374 H386 0.960 . S
C374 H387 0.962 . S
C374 H388 0.960 . S
C375 C372 1.511 . S
C375 H389 0.961 . S
C375 H390 0.961 . S
C375 H391 0.961 . S
C376 C377 1.370 . S
C376 C378 1.363 . S
C376 H392 0.931 . S
C377 C376 1.370 . S
C377 C381 1.408 . S
C378 C376 1.363 . S
C378 C379 1.370 . S
C378 C382 1.524 . S
C379 C371 1.503 . S
C379 C378 1.370 . S
C379 C380 1.403 . S
C380 C379 1.403 . S
C380 C381 1.404 . S
C380 C383 1.539 . S
C381 C377 1.408 . S
C381 C380 1.404 . S
C381 H393 0.930 . S
C382 C378 1.524 . S
C382 H394 0.956 . S
C382 H395 0.961 . S
C382 H396 0.961 . S
C383 C380 1.539 . S
C383 H397 0.958 . S
C383 H398 0.961 . S
C383 H399 0.960 . S
H384 C368 0.931 . S
H385 C373 0.929 . S
H386 C374 0.960 . S
H387 C374 0.962 . S
H388 C374 0.960 . S
H389 C375 0.961 . S
H390 C375 0.961 . S
H391 C375 0.961 . S
H392 C376 0.931 . S
H393 C381 0.930 . S
H394 C382 0.956 . S
H395 C382 0.961 . S
H396 C382 0.961 . S
H397 C383 0.958 . S
H398 C383 0.961 . S
H399 C383 0.960 . S
C400 C401 1.391 . S
C400 C402 1.394 . S
C400 H416 0.931 . S
C401 C400 1.391 . S
C401 C405 1.376 . S
C402 C400 1.394 . S
C402 C403 1.369 . S
C402 C406 1.531 . S
C403 C402 1.369 . S
C403 C404 1.410 . S
C403 C411 1.503 . S
C404 C403 1.410 . S
C404 C405 1.392 . S
C404 C407 1.511 . S
C405 C401 1.376 . S
C405 C404 1.392 . S
C405 H417 0.929 . S
C406 C402 1.531 . S
C406 H418 0.960 . S
C406 H419 0.962 . S
C406 H420 0.960 . S
C407 C404 1.511 . S
C407 H421 0.961 . S
C407 H422 0.961 . S
C407 H423 0.961 . S
C408 C409 1.370 . S
C408 C410 1.363 . S
C408 H424 0.931 . S
C409 C408 1.370 . S
C409 C413 1.408 . S
C410 C408 1.363 . S
C410 C411 1.370 . S
C410 C414 1.524 . S
C411 C403 1.503 . S
C411 C410 1.370 . S
C411 C412 1.403 . S
C412 C411 1.403 . S
C412 C413 1.404 . S
C412 C415 1.539 . S
C413 C409 1.408 . S
C413 C412 1.404 . S
C413 H425 0.930 . S
C414 C410 1.524 . S
C414 H426 0.956 . S
C414 H427 0.961 . S
C414 H428 0.961 . S
C415 C412 1.539 . S
C415 H429 0.958 . S
C415 H430 0.961 . S
C415 H431 0.960 . S
H416 C400 0.931 . S
H417 C405 0.929 . S
H418 C406 0.960 . S
H419 C406 0.962 . S
H420 C406 0.960 . S
H421 C407 0.961 . S
H422 C407 0.961 . S
H423 C407 0.961 . S
H424 C408 0.931 . S
H425 C413 0.930 . S
H426 C414 0.956 . S
H427 C414 0.961 . S
H428 C414 0.961 . S
H429 C415 0.958 . S
H430 C415 0.961 . S
H431 C415 0.960 . S
C432 C433 1.391 . S
C432 C434 1.394 . S
C432 H448 0.931 . S
C433 C432 1.391 . S
C433 C437 1.376 . S
C434 C432 1.394 . S
C434 C435 1.369 . S
C434 C438 1.531 . S
C435 C434 1.369 . S
C435 C436 1.410 . S
C435 C443 1.503 . S
C436 C435 1.410 . S
C436 C437 1.392 . S
C436 C439 1.511 . S
C437 C433 1.376 . S
C437 C436 1.392 . S
C437 H449 0.929 . S
C438 C434 1.531 . S
C438 H450 0.960 . S
C438 H451 0.962 . S
C438 H452 0.960 . S
C439 C436 1.511 . S
C439 H453 0.961 . S
C439 H454 0.961 . S
C439 H455 0.961 . S
C440 C441 1.370 . S
C440 C442 1.363 . S
C440 H456 0.931 . S
C441 C440 1.370 . S
C441 C445 1.408 . S
C442 C440 1.363 . S
C442 C443 1.370 . S
C442 C446 1.524 . S
C443 C435 1.503 . S
C443 C442 1.370 . S
C443 C444 1.403 . S
C444 C443 1.403 . S
C444 C445 1.404 . S
C444 C447 1.539 . S
C445 C441 1.408 . S
C445 C444 1.404 . S
C445 H457 0.930 . S
C446 C442 1.524 . S
C446 H458 0.956 . S
C446 H459 0.961 . S
C446 H460 0.961 . S
C447 C444 1.539 . S
C447 H461 0.958 . S
C447 H462 0.961 . S
C447 H463 0.960 . S
H448 C432 0.931 . S
H449 C437 0.929 . S
H450 C438 0.960 . S
H451 C438 0.962 . S
H452 C438 0.960 . S
H453 C439 0.961 . S
H454 C439 0.961 . S
H455 C439 0.961 . S
H456 C440 0.931 . S
H457 C445 0.930 . S
H458 C446 0.956 . S
H459 C446 0.961 . S
H460 C446 0.961 . S
H461 C447 0.958 . S
H462 C447 0.961 . S
H463 C447 0.960 . S
C464 C465 1.391 . S
C464 C466 1.394 . S
C464 H480 0.931 . S
C465 C464 1.391 . S
C465 C469 1.376 . S
C466 C464 1.394 . S
C466 C467 1.369 . S
C466 C470 1.531 . S
C467 C466 1.369 . S
C467 C468 1.410 . S
C467 C475 1.503 . S
C468 C467 1.410 . S
C468 C469 1.392 . S
C468 C471 1.511 . S
C469 C465 1.376 . S
C469 C468 1.392 . S
C469 H481 0.929 . S
C470 C466 1.531 . S
C470 H482 0.960 . S
C470 H483 0.962 . S
C470 H484 0.960 . S
C471 C468 1.511 . S
C471 H485 0.961 . S
C471 H486 0.961 . S
C471 H487 0.961 . S
C472 C473 1.370 . S
C472 C474 1.363 . S
C472 H488 0.931 . S
C473 C472 1.370 . S
C473 C477 1.408 . S
C474 C472 1.363 . S
C474 C475 1.370 . S
C474 C478 1.524 . S
C475 C467 1.503 . S
C475 C474 1.370 . S
C475 C476 1.403 . S
C476 C475 1.403 . S
C476 C477 1.404 . S
C476 C479 1.539 . S
C477 C473 1.408 . S
C477 C476 1.404 . S
C477 H489 0.930 . S
C478 C474 1.524 . S
C478 H490 0.956 . S
C478 H491 0.961 . S
C478 H492 0.961 . S
C479 C476 1.539 . S
C479 H493 0.958 . S
C479 H494 0.961 . S
C479 H495 0.960 . S
H480 C464 0.931 . S
H481 C469 0.929 . S
H482 C470 0.960 . S
H483 C470 0.962 . S
H484 C470 0.960 . S
H485 C471 0.961 . S
H486 C471 0.961 . S
H487 C471 0.961 . S
H488 C472 0.931 . S
H489 C477 0.930 . S
H490 C478 0.956 . S
H491 C478 0.961 . S
H492 C478 0.961 . S
H493 C479 0.958 . S
H494 C479 0.961 . S
H495 C479 0.960 . S
C496 C497 1.391 . S
C496 C498 1.394 . S
C496 H512 0.931 . S
C497 C496 1.391 . S
C497 C501 1.376 . S
C498 C496 1.394 . S
C498 C499 1.369 . S
C498 C502 1.531 . S
C499 C498 1.369 . S
C499 C500 1.410 . S
C499 C507 1.503 . S
C500 C499 1.410 . S
C500 C501 1.392 . S
C500 C503 1.511 . S
C501 C497 1.376 . S
C501 C500 1.392 . S
C501 H513 0.929 . S
C502 C498 1.531 . S
C502 H514 0.960 . S
C502 H515 0.962 . S
C502 H516 0.960 . S
C503 C500 1.511 . S
C503 H517 0.961 . S
C503 H518 0.961 . S
C503 H519 0.961 . S
C504 C505 1.370 . S
C504 C506 1.363 . S
C504 H520 0.931 . S
C505 C504 1.370 . S
C505 C509 1.408 . S
C506 C504 1.363 . S
C506 C507 1.370 . S
C506 C510 1.524 . S
C507 C499 1.503 . S
C507 C506 1.370 . S
C507 C508 1.403 . S
C508 C507 1.403 . S
C508 C509 1.404 . S
C508 C511 1.539 . S
C509 C505 1.408 . S
C509 C508 1.404 . S
C509 H521 0.930 . S
C510 C506 1.524 . S
C510 H522 0.956 . S
C510 H523 0.961 . S
C510 H524 0.961 . S
C511 C508 1.539 . S
C511 H525 0.958 . S
C511 H526 0.961 . S
C511 H527 0.960 . S
H512 C496 0.931 . S
H513 C501 0.929 . S
H514 C502 0.960 . S
H515 C502 0.962 . S
H516 C502 0.960 . S
H517 C503 0.961 . S
H518 C503 0.961 . S
H519 C503 0.961 . S
H520 C504 0.931 . S
H521 C509 0.930 . S
H522 C510 0.956 . S
H523 C510 0.961 . S
H524 C510 0.961 . S
H525 C511 0.958 . S
H526 C511 0.961 . S
H527 C511 0.960 . S
C528 C529 1.391 . S
C528 C530 1.394 . S
C528 H544 0.931 . S
C529 C528 1.391 . S
C529 C533 1.376 . S
C530 C528 1.394 . S
C530 C531 1.369 . S
C530 C534 1.531 . S
C531 C530 1.369 . S
C531 C532 1.410 . S
C531 C539 1.503 . S
C532 C531 1.410 . S
C532 C533 1.392 . S
C532 C535 1.511 . S
C533 C529 1.376 . S
C533 C532 1.392 . S
C533 H545 0.929 . S
C534 C530 1.531 . S
C534 H546 0.960 . S
C534 H547 0.962 . S
C534 H548 0.960 . S
C535 C532 1.511 . S
C535 H549 0.961 . S
C535 H550 0.961 . S
C535 H551 0.961 . S
C536 C537 1.370 . S
C536 C538 1.363 . S
C536 H552 0.931 . S
C537 C536 1.370 . S
C537 C541 1.408 . S
C538 C536 1.363 . S
C538 C539 1.370 . S
C538 C542 1.524 . S
C539 C531 1.503 . S
C539 C538 1.370 . S
C539 C540 1.403 . S
C540 C539 1.403 . S
C540 C541 1.404 . S
C540 C543 1.539 . S
C541 C537 1.408 . S
C541 C540 1.404 . S
C541 H553 0.930 . S
C542 C538 1.524 . S
C542 H554 0.956 . S
C542 H555 0.961 . S
C542 H556 0.961 . S
C543 C540 1.539 . S
C543 H557 0.958 . S
C543 H558 0.961 . S
C543 H559 0.960 . S
H544 C528 0.931 . S
H545 C533 0.929 . S
H546 C534 0.960 . S
H547 C534 0.962 . S
H548 C534 0.960 . S
H549 C535 0.961 . S
H550 C535 0.961 . S
H551 C535 0.961 . S
H552 C536 0.931 . S
H553 C541 0.930 . S
H554 C542 0.956 . S
H555 C542 0.961 . S
H556 C542 0.961 . S
H557 C543 0.958 . S
H558 C543 0.961 . S
H559 C543 0.960 . S
C560 C561 1.391 . S
C560 C562 1.394 . S
C560 H576 0.931 . S
C561 C560 1.391 . S
C561 C565 1.376 . S
C562 C560 1.394 . S
C562 C563 1.369 . S
C562 C566 1.531 . S
C563 C562 1.369 . S
C563 C564 1.410 . S
C563 C571 1.503 . S
C564 C563 1.410 . S
C564 C565 1.392 . S
C564 C567 1.511 . S
C565 C561 1.376 . S
C565 C564 1.392 . S
C565 H577 0.929 . S
C566 C562 1.531 . S
C566 H578 0.960 . S
C566 H579 0.962 . S
C566 H580 0.960 . S
C567 C564 1.511 . S
C567 H581 0.961 . S
C567 H582 0.961 . S
C567 H583 0.961 . S
C568 C569 1.370 . S
C568 C570 1.363 . S
C568 H584 0.931 . S
C569 C568 1.370 . S
C569 C573 1.408 . S
C570 C568 1.363 . S
C570 C571 1.370 . S
C570 C574 1.524 . S
C571 C563 1.503 . S
C571 C570 1.370 . S
C571 C572 1.403 . S
C572 C571 1.403 . S
C572 C573 1.404 . S
C572 C575 1.539 . S
C573 C569 1.408 . S
C573 C572 1.404 . S
C573 H585 0.930 . S
C574 C570 1.524 . S
C574 H586 0.956 . S
C574 H587 0.961 . S
C574 H588 0.961 . S
C575 C572 1.539 . S
C575 H589 0.958 . S
C575 H590 0.961 . S
C575 H591 0.960 . S
H576 C560 0.931 . S
H577 C565 0.929 . S
H578 C566 0.960 . S
H579 C566 0.962 . S
H580 C566 0.960 . S
H581 C567 0.961 . S
H582 C567 0.961 . S
H583 C567 0.961 . S
H584 C568 0.931 . S
H585 C573 0.930 . S
H586 C574 0.956 . S
H587 C574 0.961 . S
H588 C574 0.961 . S
H589 C575 0.958 . S
H590 C575 0.961 . S
H591 C575 0.960 . S
C592 C593 1.391 . S
C592 C594 1.394 . S
C592 H608 0.931 . S
C593 C592 1.391 . S
C593 C597 1.376 . S
C594 C592 1.394 . S
C594 C595 1.369 . S
C594 C598 1.531 . S
C595 C594 1.369 . S
C595 C596 1.410 . S
C595 C603 1.503 . S
C596 C595 1.410 . S
C596 C597 1.392 . S
C596 C599 1.511 . S
C597 C593 1.376 . S
C597 C596 1.392 . S
C597 H609 0.929 . S
C598 C594 1.531 . S
C598 H610 0.960 . S
C598 H611 0.962 . S
C598 H612 0.960 . S
C599 C596 1.511 . S
C599 H613 0.961 . S
C599 H614 0.961 . S
C599 H615 0.961 . S
C600 C601 1.370 . S
C600 C602 1.363 . S
C600 H616 0.931 . S
C601 C600 1.370 . S
C601 C605 1.408 . S
C602 C600 1.363 . S
C602 C603 1.370 . S
C602 C606 1.524 . S
C603 C595 1.503 . S
C603 C602 1.370 . S
C603 C604 1.403 . S
C604 C603 1.403 . S
C604 C605 1.404 . S
C604 C607 1.539 . S
C605 C601 1.408 . S
C605 C604 1.404 . S
C605 H617 0.930 . S
C606 C602 1.524 . S
C606 H618 0.956 . S
C606 H619 0.961 . S
C606 H620 0.961 . S
C607 C604 1.539 . S
C607 H621 0.958 . S
C607 H622 0.961 . S
C607 H623 0.960 . S
H608 C592 0.931 . S
H609 C597 0.929 . S
H610 C598 0.960 . S
H611 C598 0.962 . S
H612 C598 0.960 . S
H613 C599 0.961 . S
H614 C599 0.961 . S
H615 C599 0.961 . S
H616 C600 0.931 . S
H617 C605 0.930 . S
H618 C606 0.956 . S
H619 C606 0.961 . S
H620 C606 0.961 . S
H621 C607 0.958 . S
H622 C607 0.961 . S
H623 C607 0.960 . S
C624 C625 1.391 . S
C624 C626 1.394 . S
C624 H640 0.931 . S
C625 C624 1.391 . S
C625 C629 1.376 . S
C626 C624 1.394 . S
C626 C627 1.369 . S
C626 C630 1.531 . S
C627 C626 1.369 . S
C627 C628 1.410 . S
C627 C635 1.503 . S
C628 C627 1.410 . S
C628 C629 1.392 . S
C628 C631 1.511 . S
C629 C625 1.376 . S
C629 C628 1.392 . S
C629 H641 0.929 . S
C630 C626 1.531 . S
C630 H642 0.960 . S
C630 H643 0.962 . S
C630 H644 0.960 . S
C631 C628 1.511 . S
C631 H645 0.961 . S
C631 H646 0.961 . S
C631 H647 0.961 . S
C632 C633 1.370 . S
C632 C634 1.363 . S
C632 H648 0.931 . S
C633 C632 1.370 . S
C633 C637 1.408 . S
C634 C632 1.363 . S
C634 C635 1.370 . S
C634 C638 1.524 . S
C635 C627 1.503 . S
C635 C634 1.370 . S
C635 C636 1.403 . S
C636 C635 1.403 . S
C636 C637 1.404 . S
C636 C639 1.539 . S
C637 C633 1.408 . S
C637 C636 1.404 . S
C637 H649 0.930 . S
C638 C634 1.524 . S
C638 H650 0.956 . S
C638 H651 0.961 . S
C638 H652 0.961 . S
C639 C636 1.539 . S
C639 H653 0.958 . S
C639 H654 0.961 . S
C639 H655 0.960 . S
H640 C624 0.931 . S
H641 C629 0.929 . S
H642 C630 0.960 . S
H643 C630 0.962 . S
H644 C630 0.960 . S
H645 C631 0.961 . S
H646 C631 0.961 . S
H647 C631 0.961 . S
H648 C632 0.931 . S
H649 C637 0.930 . S
H650 C638 0.956 . S
H651 C638 0.961 . S
H652 C638 0.961 . S
H653 C639 0.958 . S
H654 C639 0.961 . S
H655 C639 0.960 . S
C656 C657 1.391 . S
C656 C658 1.394 . S
C656 H672 0.931 . S
C657 C656 1.391 . S
C657 C661 1.376 . S
C658 C656 1.394 . S
C658 C659 1.369 . S
C658 C662 1.531 . S
C659 C658 1.369 . S
C659 C660 1.410 . S
C659 C667 1.503 . S
C660 C659 1.410 . S
C660 C661 1.392 . S
C660 C663 1.511 . S
C661 C657 1.376 . S
C661 C660 1.392 . S
C661 H673 0.929 . S
C662 C658 1.531 . S
C662 H674 0.960 . S
C662 H675 0.962 . S
C662 H676 0.960 . S
C663 C660 1.511 . S
C663 H677 0.961 . S
C663 H678 0.961 . S
C663 H679 0.961 . S
C664 C665 1.370 . S
C664 C666 1.363 . S
C664 H680 0.931 . S
C665 C664 1.370 . S
C665 C669 1.408 . S
C666 C664 1.363 . S
C666 C667 1.370 . S
C666 C670 1.524 . S
C667 C659 1.503 . S
C667 C666 1.370 . S
C667 C668 1.403 . S
C668 C667 1.403 . S
C668 C669 1.404 . S
C668 C671 1.539 . S
C669 C665 1.408 . S
C669 C668 1.404 . S
C669 H681 0.930 . S
C670 C666 1.524 . S
C670 H682 0.956 . S
C670 H683 0.961 . S
C670 H684 0.961 . S
C671 C668 1.539 . S
C671 H685 0.958 . S
C671 H686 0.961 . S
C671 H687 0.960 . S
H672 C656 0.931 . S
H673 C661 0.929 . S
H674 C662 0.960 . S
H675 C662 0.962 . S
H676 C662 0.960 . S
H677 C663 0.961 . S
H678 C663 0.961 . S
H679 C663 0.961 . S
H680 C664 0.931 . S
H681 C669 0.930 . S
H682 C670 0.956 . S
H683 C670 0.961 . S
H684 C670 0.961 . S
H685 C671 0.958 . S
H686 C671 0.961 . S
H687 C671 0.960 . S
C688 C689 1.391 . S
C688 C690 1.394 . S
C688 H704 0.931 . S
C689 C688 1.391 . S
C689 C693 1.376 . S
C690 C688 1.394 . S
C690 C691 1.369 . S
C690 C694 1.531 . S
C691 C690 1.369 . S
C691 C692 1.410 . S
C691 C699 1.503 . S
C692 C691 1.410 . S
C692 C693 1.392 . S
C692 C695 1.511 . S
C693 C689 1.376 . S
C693 C692 1.392 . S
C693 H705 0.929 . S
C694 C690 1.531 . S
C694 H706 0.960 . S
C694 H707 0.962 . S
C694 H708 0.960 . S
C695 C692 1.511 . S
C695 H709 0.961 . S
C695 H710 0.961 . S
C695 H711 0.961 . S
C696 C697 1.370 . S
C696 C698 1.363 . S
C696 H712 0.931 . S
C697 C696 1.370 . S
C697 C701 1.408 . S
C698 C696 1.363 . S
C698 C699 1.370 . S
C698 C702 1.524 . S
C699 C691 1.503 . S
C699 C698 1.370 . S
C699 C700 1.403 . S
C700 C699 1.403 . S
C700 C701 1.404 . S
C700 C703 1.539 . S
C701 C697 1.408 . S
C701 C700 1.404 . S
C701 H713 0.930 . S
C702 C698 1.524 . S
C702 H714 0.956 . S
C702 H715 0.961 . S
C702 H716 0.961 . S
C703 C700 1.539 . S
C703 H717 0.958 . S
C703 H718 0.961 . S
C703 H719 0.960 . S
H704 C688 0.931 . S
H705 C693 0.929 . S
H706 C694 0.960 . S
H707 C694 0.962 . S
H708 C694 0.960 . S
H709 C695 0.961 . S
H710 C695 0.961 . S
H711 C695 0.961 . S
H712 C696 0.931 . S
H713 C701 0.930 . S
H714 C702 0.956 . S
H715 C702 0.961 . S
H716 C702 0.961 . S
H717 C703 0.958 . S
H718 C703 0.961 . S
H719 C703 0.960 . S
C720 C721 1.391 . S
C720 C722 1.394 . S
C720 H736 0.931 . S
C721 C720 1.391 . S
C721 C725 1.376 . S
C722 C720 1.394 . S
C722 C723 1.369 . S
C722 C726 1.531 . S
C723 C722 1.369 . S
C723 C724 1.410 . S
C723 C731 1.503 . S
C724 C723 1.410 . S
C724 C725 1.392 . S
C724 C727 1.511 . S
C725 C721 1.376 . S
C725 C724 1.392 . S
C725 H737 0.929 . S
C726 C722 1.531 . S
C726 H738 0.960 . S
C726 H739 0.962 . S
C726 H740 0.960 . S
C727 C724 1.511 . S
C727 H741 0.961 . S
C727 H742 0.961 . S
C727 H743 0.961 . S
C728 C729 1.370 . S
C728 C730 1.363 . S
C728 H744 0.931 . S
C729 C728 1.370 . S
C729 C733 1.408 . S
C730 C728 1.363 . S
C730 C731 1.370 . S
C730 C734 1.524 . S
C731 C723 1.503 . S
C731 C730 1.370 . S
C731 C732 1.403 . S
C732 C731 1.403 . S
C732 C733 1.404 . S
C732 C735 1.539 . S
C733 C729 1.408 . S
C733 C732 1.404 . S
C733 H745 0.930 . S
C734 C730 1.524 . S
C734 H746 0.956 . S
C734 H747 0.961 . S
C734 H748 0.961 . S
C735 C732 1.539 . S
C735 H749 0.958 . S
C735 H750 0.961 . S
C735 H751 0.960 . S
H736 C720 0.931 . S
H737 C725 0.929 . S
H738 C726 0.960 . S
H739 C726 0.962 . S
H740 C726 0.960 . S
H741 C727 0.961 . S
H742 C727 0.961 . S
H743 C727 0.961 . S
H744 C728 0.931 . S
H745 C733 0.930 . S
H746 C734 0.956 . S
H747 C734 0.961 . S
H748 C734 0.961 . S
H749 C735 0.958 . S
H750 C735 0.961 . S
H751 C735 0.960 . S
C752 C753 1.391 . S
C752 C754 1.394 . S
C752 H768 0.931 . S
C753 C752 1.391 . S
C753 C757 1.376 . S
C754 C752 1.394 . S
C754 C755 1.369 . S
C754 C758 1.531 . S
C755 C754 1.369 . S
C755 C756 1.410 . S
C755 C763 1.503 . S
C756 C755 1.410 . S
C756 C757 1.392 . S
C756 C759 1.511 . S
C757 C753 1.376 . S
C757 C756 1.392 . S
C757 H769 0.929 . S
C758 C754 1.531 . S
C758 H770 0.960 . S
C758 H771 0.962 . S
C758 H772 0.960 . S
C759 C756 1.511 . S
C759 H773 0.961 . S
C759 H774 0.961 . S
C759 H775 0.961 . S
C760 C761 1.370 . S
C760 C762 1.363 . S
C760 H776 0.931 . S
C761 C760 1.370 . S
C761 C765 1.408 . S
C762 C760 1.363 . S
C762 C763 1.370 . S
C762 C766 1.524 . S
C763 C755 1.503 . S
C763 C762 1.370 . S
C763 C764 1.403 . S
C764 C763 1.403 . S
C764 C765 1.404 . S
C764 C767 1.539 . S
C765 C761 1.408 . S
C765 C764 1.404 . S
C765 H777 0.930 . S
C766 C762 1.524 . S
C766 H778 0.956 . S
C766 H779 0.961 . S
C766 H780 0.961 . S
C767 C764 1.539 . S
C767 H781 0.958 . S
C767 H782 0.961 . S
C767 H783 0.960 . S
H768 C752 0.931 . S
H769 C757 0.929 . S
H770 C758 0.960 . S
H771 C758 0.962 . S
H772 C758 0.960 . S
H773 C759 0.961 . S
H774 C759 0.961 . S
H775 C759 0.961 . S
H776 C760 0.931 . S
H777 C765 0.930 . S
H778 C766 0.956 . S
H779 C766 0.961 . S
H780 C766 0.961 . S
H781 C767 0.958 . S
H782 C767 0.961 . S
H783 C767 0.960 . S
C784 C785 1.391 . S
C784 C786 1.394 . S
C784 H800 0.931 . S
C785 C784 1.391 . S
C785 C789 1.376 . S
C786 C784 1.394 . S
C786 C787 1.369 . S
C786 C790 1.531 . S
C787 C786 1.369 . S
C787 C788 1.410 . S
C787 C795 1.503 . S
C788 C787 1.410 . S
C788 C789 1.392 . S
C788 C791 1.511 . S
C789 C785 1.376 . S
C789 C788 1.392 . S
C789 H801 0.929 . S
C790 C786 1.531 . S
C790 H802 0.960 . S
C790 H803 0.962 . S
C790 H804 0.960 . S
C791 C788 1.511 . S
C791 H805 0.961 . S
C791 H806 0.961 . S
C791 H807 0.961 . S
C792 C793 1.370 . S
C792 C794 1.363 . S
C792 H808 0.931 . S
C793 C792 1.370 . S
C793 C797 1.408 . S
C794 C792 1.363 . S
C794 C795 1.370 . S
C794 C798 1.524 . S
C795 C787 1.503 . S
C795 C794 1.370 . S
C795 C796 1.403 . S
C796 C795 1.403 . S
C796 C797 1.404 . S
C796 C799 1.539 . S
C797 C793 1.408 . S
C797 C796 1.404 . S
C797 H809 0.930 . S
C798 C794 1.524 . S
C798 H810 0.956 . S
C798 H811 0.961 . S
C798 H812 0.961 . S
C799 C796 1.539 . S
C799 H813 0.958 . S
C799 H814 0.961 . S
C799 H815 0.960 . S
H800 C784 0.931 . S
H801 C789 0.929 . S
H802 C790 0.960 . S
H803 C790 0.962 . S
H804 C790 0.960 . S
H805 C791 0.961 . S
H806 C791 0.961 . S
H807 C791 0.961 . S
H808 C792 0.931 . S
H809 C797 0.930 . S
H810 C798 0.956 . S
H811 C798 0.961 . S
H812 C798 0.961 . S
H813 C799 0.958 . S
H814 C799 0.961 . S
H815 C799 0.960 . S
C816 C817 1.391 . S
C816 C818 1.394 . S
C816 H832 0.931 . S
C817 C816 1.391 . S
C817 C821 1.376 . S
C818 C816 1.394 . S
C818 C819 1.369 . S
C818 C822 1.531 . S
C819 C818 1.369 . S
C819 C820 1.410 . S
C819 C827 1.503 . S
C820 C819 1.410 . S
C820 C821 1.392 . S
C820 C823 1.511 . S
C821 C817 1.376 . S
C821 C820 1.392 . S
C821 H833 0.929 . S
C822 C818 1.531 . S
C822 H834 0.960 . S
C822 H835 0.962 . S
C822 H836 0.960 . S
C823 C820 1.511 . S
C823 H837 0.961 . S
C823 H838 0.961 . S
C823 H839 0.961 . S
C824 C825 1.370 . S
C824 C826 1.363 . S
C824 H840 0.931 . S
C825 C824 1.370 . S
C825 C829 1.408 . S
C826 C824 1.363 . S
C826 C827 1.370 . S
C826 C830 1.524 . S
C827 C819 1.503 . S
C827 C826 1.370 . S
C827 C828 1.403 . S
C828 C827 1.403 . S
C828 C829 1.404 . S
C828 C831 1.539 . S
C829 C825 1.408 . S
C829 C828 1.404 . S
C829 H841 0.930 . S
C830 C826 1.524 . S
C830 H842 0.956 . S
C830 H843 0.961 . S
C830 H844 0.961 . S
C831 C828 1.539 . S
C831 H845 0.958 . S
C831 H846 0.961 . S
C831 H847 0.960 . S
H832 C816 0.931 . S
H833 C821 0.929 . S
H834 C822 0.960 . S
H835 C822 0.962 . S
H836 C822 0.960 . S
H837 C823 0.961 . S
H838 C823 0.961 . S
H839 C823 0.961 . S
H840 C824 0.931 . S
H841 C829 0.930 . S
H842 C830 0.956 . S
H843 C830 0.961 . S
H844 C830 0.961 . S
H845 C831 0.958 . S
H846 C831 0.961 . S
H847 C831 0.960 . S
C848 C849 1.391 . S
C848 C850 1.394 . S
C848 H864 0.931 . S
C849 C848 1.391 . S
C849 C853 1.376 . S
C850 C848 1.394 . S
C850 C851 1.369 . S
C850 C854 1.531 . S
C851 C850 1.369 . S
C851 C852 1.410 . S
C851 C859 1.503 . S
C852 C851 1.410 . S
C852 C853 1.392 . S
C852 C855 1.511 . S
C853 C849 1.376 . S
C853 C852 1.392 . S
C853 H865 0.929 . S
C854 C850 1.531 . S
C854 H866 0.960 . S
C854 H867 0.962 . S
C854 H868 0.960 . S
C855 C852 1.511 . S
C855 H869 0.961 . S
C855 H870 0.961 . S
C855 H871 0.961 . S
C856 C857 1.370 . S
C856 C858 1.363 . S
C856 H872 0.931 . S
C857 C856 1.370 . S
C857 C861 1.408 . S
C858 C856 1.363 . S
C858 C859 1.370 . S
C858 C862 1.524 . S
C859 C851 1.503 . S
C859 C858 1.370 . S
C859 C860 1.403 . S
C860 C859 1.403 . S
C860 C861 1.404 . S
C860 C863 1.539 . S
C861 C857 1.408 . S
C861 C860 1.404 . S
C861 H873 0.930 . S
C862 C858 1.524 . S
C862 H874 0.956 . S
C862 H875 0.961 . S
C862 H876 0.961 . S
C863 C860 1.539 . S
C863 H877 0.958 . S
C863 H878 0.961 . S
C863 H879 0.960 . S
H864 C848 0.931 . S
H865 C853 0.929 . S
H866 C854 0.960 . S
H867 C854 0.962 . S
H868 C854 0.960 . S
H869 C855 0.961 . S
H870 C855 0.961 . S
H871 C855 0.961 . S
H872 C856 0.931 . S
H873 C861 0.930 . S
H874 C862 0.956 . S
H875 C862 0.961 . S
H876 C862 0.961 . S
H877 C863 0.958 . S
H878 C863 0.961 . S
H879 C863 0.960 . S
C880 C881 1.391 . S
C880 C882 1.394 . S
C880 H896 0.931 . S
C881 C880 1.391 . S
C881 C885 1.376 . S
C882 C880 1.394 . S
C882 C883 1.369 . S
C882 C886 1.531 . S
C883 C882 1.369 . S
C883 C884 1.410 . S
C883 C891 1.503 . S
C884 C883 1.410 . S
C884 C885 1.392 . S
C884 C887 1.511 . S
C885 C881 1.376 . S
C885 C884 1.392 . S
C885 H897 0.929 . S
C886 C882 1.531 . S
C886 H898 0.960 . S
C886 H899 0.962 . S
C886 H900 0.960 . S
C887 C884 1.511 . S
C887 H901 0.961 . S
C887 H902 0.961 . S
C887 H903 0.961 . S
C888 C889 1.370 . S
C888 C890 1.363 . S
C888 H904 0.931 . S
C889 C888 1.370 . S
C889 C893 1.408 . S
C890 C888 1.363 . S
C890 C891 1.370 . S
C890 C894 1.524 . S
C891 C883 1.503 . S
C891 C890 1.370 . S
C891 C892 1.403 . S
C892 C891 1.403 . S
C892 C893 1.404 . S
C892 C895 1.539 . S
C893 C889 1.408 . S
C893 C892 1.404 . S
C893 H905 0.930 . S
C894 C890 1.524 . S
C894 H906 0.956 . S
C894 H907 0.961 . S
C894 H908 0.961 . S
C895 C892 1.539 . S
C895 H909 0.958 . S
C895 H910 0.961 . S
C895 H911 0.960 . S
H896 C880 0.931 . S
H897 C885 0.929 . S
H898 C886 0.960 . S
H899 C886 0.962 . S
H900 C886 0.960 . S
H901 C887 0.961 . S
H902 C887 0.961 . S
H903 C887 0.961 . S
H904 C888 0.931 . S
H905 C893 0.930 . S
H906 C894 0.956 . S
H907 C894 0.961 . S
H908 C894 0.961 . S
H909 C895 0.958 . S
H910 C895 0.961 . S
H911 C895 0.960 . S
C912 C913 1.391 . S
C912 C914 1.394 . S
C912 H928 0.931 . S
C913 C912 1.391 . S
C913 C917 1.376 . S
C914 C912 1.394 . S
C914 C915 1.369 . S
C914 C918 1.531 . S
C915 C914 1.369 . S
C915 C916 1.410 . S
C915 C923 1.503 . S
C916 C915 1.410 . S
C916 C917 1.392 . S
C916 C919 1.511 . S
C917 C913 1.376 . S
C917 C916 1.392 . S
C917 H929 0.929 . S
C918 C914 1.531 . S
C918 H930 0.960 . S
C918 H931 0.962 . S
C918 H932 0.960 . S
C919 C916 1.511 . S
C919 H933 0.961 . S
C919 H934 0.961 . S
C919 H935 0.961 . S
C920 C921 1.370 . S
C920 C922 1.363 . S
C920 H936 0.931 . S
C921 C920 1.370 . S
C921 C925 1.408 . S
C922 C920 1.363 . S
C922 C923 1.370 . S
C922 C926 1.524 . S
C923 C915 1.503 . S
C923 C922 1.370 . S
C923 C924 1.403 . S
C924 C923 1.403 . S
C924 C925 1.404 . S
C924 C927 1.539 . S
C925 C921 1.408 . S
C925 C924 1.404 . S
C925 H937 0.930 . S
C926 C922 1.524 . S
C926 H938 0.956 . S
C926 H939 0.961 . S
C926 H940 0.961 . S
C927 C924 1.539 . S
C927 H941 0.958 . S
C927 H942 0.961 . S
C927 H943 0.960 . S
H928 C912 0.931 . S
H929 C917 0.929 . S
H930 C918 0.960 . S
H931 C918 0.962 . S
H932 C918 0.960 . S
H933 C919 0.961 . S
H934 C919 0.961 . S
H935 C919 0.961 . S
H936 C920 0.931 . S
H937 C925 0.930 . S
H938 C926 0.956 . S
H939 C926 0.961 . S
H940 C926 0.961 . S
H941 C927 0.958 . S
H942 C927 0.961 . S
H943 C927 0.960 . S
C944 C945 1.391 . S
C944 C946 1.394 . S
C944 H960 0.931 . S
C945 C944 1.391 . S
C945 C949 1.376 . S
C946 C944 1.394 . S
C946 C947 1.369 . S
C946 C950 1.531 . S
C947 C946 1.369 . S
C947 C948 1.410 . S
C947 C955 1.503 . S
C948 C947 1.410 . S
C948 C949 1.392 . S
C948 C951 1.511 . S
C949 C945 1.376 . S
C949 C948 1.392 . S
C949 H961 0.929 . S
C950 C946 1.531 . S
C950 H962 0.960 . S
C950 H963 0.962 . S
C950 H964 0.960 . S
C951 C948 1.511 . S
C951 H965 0.961 . S
C951 H966 0.961 . S
C951 H967 0.961 . S
C952 C953 1.370 . S
C952 C954 1.363 . S
C952 H968 0.931 . S
C953 C952 1.370 . S
C953 C957 1.408 . S
C954 C952 1.363 . S
C954 C955 1.370 . S
C954 C958 1.524 . S
C955 C947 1.503 . S
C955 C954 1.370 . S
C955 C956 1.403 . S
C956 C955 1.403 . S
C956 C957 1.404 . S
C956 C959 1.539 . S
C957 C953 1.408 . S
C957 C956 1.404 . S
C957 H969 0.930 . S
C958 C954 1.524 . S
C958 H970 0.956 . S
C958 H971 0.961 . S
C958 H972 0.961 . S
C959 C956 1.539 . S
C959 H973 0.958 . S
C959 H974 0.961 . S
C959 H975 0.960 . S
H960 C944 0.931 . S
H961 C949 0.929 . S
H962 C950 0.960 . S
H963 C950 0.962 . S
H964 C950 0.960 . S
H965 C951 0.961 . S
H966 C951 0.961 . S
H967 C951 0.961 . S
H968 C952 0.931 . S
H969 C957 0.930 . S
H970 C958 0.956 . S
H971 C958 0.961 . S
H972 C958 0.961 . S
H973 C959 0.958 . S
H974 C959 0.961 . S
H975 C959 0.960 . S
C976 C977 1.391 . S
C976 C978 1.394 . S
C976 H992 0.931 . S
C977 C976 1.391 . S
C977 C981 1.376 1_455 S
C978 C976 1.394 . S
C978 C979 1.369 . S
C978 C982 1.531 . S
C979 C978 1.369 . S
C979 C980 1.410 1_455 S
C979 C987 1.503 . S
C980 C979 1.410 1_655 S
C980 C981 1.392 . S
C980 C983 1.511 . S
C981 C977 1.376 1_655 S
C981 C980 1.392 . S
C981 H993 0.929 . S
C982 C978 1.531 . S
C982 H994 0.960 . S
C982 H995 0.962 . S
C982 H996 0.960 . S
C983 C980 1.511 . S
C983 H997 0.961 . S
C983 H998 0.961 . S
C983 H999 0.961 . S
C984 C985 1.370 . S
C984 C986 1.363 . S
C984 H1000 0.931 . S
C985 C984 1.370 . S
C985 C989 1.408 1_655 S
C986 C984 1.363 . S
C986 C987 1.370 1_655 S
C986 C990 1.524 . S
C987 C979 1.503 . S
C987 C986 1.370 1_455 S
C987 C988 1.403 . S
C988 C987 1.403 . S
C988 C989 1.404 . S
C988 C991 1.539 . S
C989 C985 1.408 1_455 S
C989 C988 1.404 . S
C989 H1001 0.930 . S
C990 C986 1.524 . S
C990 H1002 0.956 . S
C990 H1003 0.961 . S
C990 H1004 0.961 . S
C991 C988 1.539 . S
C991 H1005 0.958 . S
C991 H1006 0.961 . S
C991 H1007 0.960 . S
H992 C976 0.931 . S
H993 C981 0.929 . S
H994 C982 0.960 . S
H995 C982 0.962 . S
H996 C982 0.960 . S
H997 C983 0.961 . S
H998 C983 0.961 . S
H999 C983 0.961 . S
H1000 C984 0.931 . S
H1001 C989 0.930 . S
H1002 C990 0.956 . S
H1003 C990 0.961 . S
H1004 C990 0.961 . S
H1005 C991 0.958 . S
H1006 C991 0.961 . S
H1007 C991 0.960 . S
C1008 C1009 1.391 . S
C1008 C1010 1.394 . S
C1008 H1024 0.931 . S
C1009 C1008 1.391 . S
C1009 C1013 1.376 . S
C1010 C1008 1.394 . S
C1010 C1011 1.369 . S
C1010 C1014 1.531 . S
C1011 C1010 1.369 . S
C1011 C1012 1.410 . S
C1011 C1019 1.503 . S
C1012 C1011 1.410 . S
C1012 C1013 1.392 . S
C1012 C1015 1.511 1_565 S
C1013 C1009 1.376 . S
C1013 C1012 1.392 . S
C1013 H1025 0.928 . S
C1014 C1010 1.531 . S
C1014 H1026 0.960 . S
C1014 H1027 0.978 . S
C1014 H1028 0.960 . S
C1015 C1012 1.511 1_545 S
C1015 H1029 0.961 . S
C1015 H1030 0.961 . S
C1015 H1031 0.961 1_545 S
C1016 C1017 1.370 . S
C1016 C1018 1.363 . S
C1016 H1032 0.931 . S
C1017 C1016 1.370 . S
C1017 C1021 1.408 1_545 S
C1018 C1016 1.363 . S
C1018 C1019 1.370 1_545 S
C1018 C1022 1.524 . S
C1019 C1011 1.503 . S
C1019 C1018 1.370 1_565 S
C1019 C1020 1.403 . S
C1020 C1019 1.403 . S
C1020 C1021 1.404 . S
C1020 C1023 1.539 . S
C1021 C1017 1.408 1_565 S
C1021 C1020 1.404 . S
C1021 H1033 0.930 . S
C1022 C1018 1.524 . S
C1022 H1034 0.956 . S
C1022 H1035 0.961 . S
C1022 H1036 0.961 . S
C1023 C1020 1.539 . S
C1023 H1037 0.958 . S
C1023 H1038 0.961 . S
C1023 H1039 0.960 . S
H1024 C1008 0.931 . S
H1025 C1013 0.928 . S
H1026 C1014 0.960 . S
H1027 C1014 0.978 . S
H1028 C1014 0.960 . S
H1029 C1015 0.961 . S
H1030 C1015 0.961 . S
H1031 C1015 0.961 1_565 S
H1032 C1016 0.931 . S
H1033 C1021 0.930 . S
H1034 C1022 0.956 . S
H1035 C1022 0.961 . S
H1036 C1022 0.961 . S
H1037 C1023 0.958 . S
H1038 C1023 0.961 . S
H1039 C1023 0.960 . S
C1040 C1041 1.391 1_655 S
C1040 C1042 1.394 . S
C1040 H1056 0.931 . S
C1041 C1040 1.391 1_455 S
C1041 C1045 1.376 . S
C1042 C1040 1.394 . S
C1042 C1043 1.369 1_655 S
C1042 C1046 1.531 . S
C1043 C1042 1.369 1_455 S
C1043 C1044 1.410 . S
C1043 C1051 1.503 1_455 S
C1044 C1043 1.410 . S
C1044 C1045 1.392 . S
C1044 C1047 1.511 . S
C1045 C1041 1.376 . S
C1045 C1044 1.392 . S
C1045 H1057 0.929 . S
C1046 C1042 1.531 . S
C1046 H1058 0.960 . S
C1046 H1059 0.962 . S
C1046 H1060 0.960 . S
C1047 C1044 1.511 . S
C1047 H1061 0.961 . S
C1047 H1062 0.961 . S
C1047 H1063 0.961 . S
C1048 C1049 1.370 . S
C1048 C1050 1.363 . S
C1048 H1064 0.931 . S
C1049 C1048 1.370 . S
C1049 C1053 1.408 1_655 S
C1050 C1048 1.363 . S
C1050 C1051 1.373 . S
C1050 C1054 1.524 . S
C1051 C1043 1.503 1_655 S
C1051 C1050 1.373 . S
C1051 C1052 1.401 1_655 S
C1052 C1051 1.401 1_455 S
C1052 C1053 1.404 . S
C1052 C1055 1.539 . S
C1053 C1049 1.408 1_455 S
C1053 C1052 1.404 . S
C1053 H1065 0.930 . S
C1054 C1050 1.524 . S
C1054 H1066 0.956 . S
C1054 H1067 0.961 1_655 S
C1054 H1068 0.961 . S
C1055 C1052 1.539 . S
C1055 H1069 0.958 1_455 S
C1055 H1070 0.961 . S
C1055 H1071 0.960 . S
H1056 C1040 0.931 . S
H1057 C1045 0.929 . S
H1058 C1046 0.960 . S
H1059 C1046 0.962 . S
H1060 C1046 0.960 . S
H1061 C1047 0.961 . S
H1062 C1047 0.961 . S
H1063 C1047 0.961 . S
H1064 C1048 0.931 . S
H1065 C1053 0.930 . S
H1066 C1054 0.956 . S
H1067 C1054 0.961 1_455 S
H1068 C1054 0.961 . S
H1069 C1055 0.958 1_655 S
H1070 C1055 0.961 . S
H1071 C1055 0.960 . S
C1072 C1073 1.391 . S
C1072 C1074 1.394 . S
C1072 H1088 0.931 . S
C1073 C1072 1.391 . S
C1073 C1077 1.376 1_545 S
C1074 C1072 1.394 . S
C1074 C1075 1.369 . S
C1074 C1078 1.531 . S
C1075 C1074 1.369 . S
C1075 C1076 1.410 1_545 S
C1075 C1083 1.503 . S
C1076 C1075 1.410 1_565 S
C1076 C1077 1.392 . S
C1076 C1079 1.511 . S
C1077 C1073 1.376 1_565 S
C1077 C1076 1.392 . S
C1077 H1089 0.929 . S
C1078 C1074 1.531 . S
C1078 H1090 0.960 . S
C1078 H1091 0.962 . S
C1078 H1092 0.960 . S
C1079 C1076 1.511 . S
C1079 H1093 0.961 . S
C1079 H1094 0.961 . S
C1079 H1095 0.961 . S
C1080 C1081 1.370 . S
C1080 C1082 1.363 . S
C1080 H1096 0.931 . S
C1081 C1080 1.370 . S
C1081 C1085 1.408 1_565 S
C1082 C1080 1.363 . S
C1082 C1083 1.370 1_565 S
C1082 C1086 1.524 . S
C1083 C1075 1.503 . S
C1083 C1082 1.370 1_545 S
C1083 C1084 1.403 . S
C1084 C1083 1.403 . S
C1084 C1085 1.404 . S
C1084 C1087 1.539 . S
C1085 C1081 1.408 1_545 S
C1085 C1084 1.404 . S
C1085 H1097 0.930 . S
C1086 C1082 1.524 . S
C1086 H1098 0.956 . S
C1086 H1099 0.961 . S
C1086 H1100 0.961 . S
C1087 C1084 1.539 . S
C1087 H1101 0.958 . S
C1087 H1102 0.961 . S
C1087 H1103 0.960 . S
H1088 C1072 0.931 . S
H1089 C1077 0.929 . S
H1090 C1078 0.960 . S
H1091 C1078 0.962 . S
H1092 C1078 0.960 . S
H1093 C1079 0.961 . S
H1094 C1079 0.961 . S
H1095 C1079 0.961 . S
H1096 C1080 0.931 . S
H1097 C1085 0.930 . S
H1098 C1086 0.956 . S
H1099 C1086 0.961 . S
H1100 C1086 0.961 . S
H1101 C1087 0.958 . S
H1102 C1087 0.961 . S
H1103 C1087 0.960 . S
C1104 C1105 1.391 . S
C1104 C1106 1.394 . S
C1104 H1120 0.931 . S
C1105 C1104 1.391 . S
C1105 C1109 1.376 . S
C1106 C1104 1.394 . S
C1106 C1107 1.369 . S
C1106 C1110 1.531 . S
C1107 C1106 1.369 . S
C1107 C1108 1.410 . S
C1107 C1115 1.503 1_556 S
C1108 C1107 1.410 . S
C1108 C1109 1.392 . S
C1108 C1111 1.511 . S
C1109 C1105 1.376 . S
C1109 C1108 1.392 . S
C1109 H1121 0.929 . S
C1110 C1106 1.531 . S
C1110 H1122 0.960 1_556 S
C1110 H1123 0.962 . S
C1110 H1124 0.960 . S
C1111 C1108 1.511 . S
C1111 H1125 0.961 . S
C1111 H1126 0.957 . S
C1111 H1127 0.961 . S
C1112 C1113 1.370 . S
C1112 C1114 1.363 . S
C1112 H1128 0.931 . S
C1113 C1112 1.370 . S
C1113 C1117 1.408 . S
C1114 C1112 1.363 . S
C1114 C1115 1.370 . S
C1114 C1118 1.524 . S
C1115 C1107 1.503 1_554 S
C1115 C1114 1.370 . S
C1115 C1116 1.403 . S
C1116 C1115 1.403 . S
C1116 C1117 1.404 . S
C1116 C1119 1.539 . S
C1117 C1113 1.408 . S
C1117 C1116 1.404 . S
C1117 H1129 0.930 . S
C1118 C1114 1.524 . S
C1118 H1130 0.956 . S
C1118 H1131 0.961 1_554 S
C1118 H1132 0.961 . S
C1119 C1116 1.539 . S
C1119 H1133 0.958 . S
C1119 H1134 0.961 . S
C1119 H1135 0.960 1_554 S
H1120 C1104 0.931 . S
H1121 C1109 0.929 . S
H1122 C1110 0.960 1_554 S
H1123 C1110 0.962 . S
H1124 C1110 0.960 . S
H1125 C1111 0.961 . S
H1126 C1111 0.957 . S
H1127 C1111 0.961 . S
H1128 C1112 0.931 . S
H1129 C1117 0.930 . S
H1130 C1118 0.956 . S
H1131 C1118 0.961 1_556 S
H1132 C1118 0.961 . S
H1133 C1119 0.958 . S
H1134 C1119 0.961 . S
H1135 C1119 0.960 1_556 S
C1136 C1137 1.391 . S
C1136 C1138 1.394 . S
C1136 H1152 0.931 . S
C1137 C1136 1.391 . S
C1137 C1141 1.376 . S
C1138 C1136 1.394 . S
C1138 C1139 1.369 . S
C1138 C1142 1.531 . S
C1139 C1138 1.369 . S
C1139 C1140 1.410 . S
C1139 C1147 1.503 1_556 S
C1140 C1139 1.410 . S
C1140 C1141 1.392 . S
C1140 C1143 1.511 . S
C1141 C1137 1.376 . S
C1141 C1140 1.392 . S
C1141 H1153 0.929 . S
C1142 C1138 1.531 . S
C1142 H1154 0.986 . S
C1142 H1155 0.962 . S
C1142 H1156 0.960 . S
C1143 C1140 1.511 . S
C1143 H1157 0.961 . S
C1143 H1158 0.961 1_556 S
C1143 H1159 0.961 . S
C1144 C1145 1.370 . S
C1144 C1146 1.363 . S
C1144 H1160 0.931 . S
C1145 C1144 1.370 . S
C1145 C1149 1.408 . S
C1146 C1144 1.363 . S
C1146 C1147 1.370 . S
C1146 C1150 1.524 . S
C1147 C1139 1.503 1_554 S
C1147 C1146 1.370 . S
C1147 C1148 1.403 . S
C1148 C1147 1.403 . S
C1148 C1149 1.404 . S
C1148 C1151 1.539 . S
C1149 C1145 1.408 . S
C1149 C1148 1.404 . S
C1149 H1161 0.930 . S
C1150 C1146 1.524 . S
C1150 H1162 0.956 . S
C1150 H1163 0.961 . S
C1150 H1164 0.961 . S
C1151 C1148 1.539 . S
C1151 H1165 0.958 . S
C1151 H1166 0.961 . S
C1151 H1167 0.960 1_554 S
H1152 C1136 0.931 . S
H1153 C1141 0.929 . S
H1154 C1142 0.986 . S
H1155 C1142 0.962 . S
H1156 C1142 0.960 . S
H1157 C1143 0.961 . S
H1158 C1143 0.961 1_554 S
H1159 C1143 0.961 . S
H1160 C1144 0.931 . S
H1161 C1149 0.930 . S
H1162 C1150 0.956 . S
H1163 C1150 0.961 . S
H1164 C1150 0.961 . S
H1165 C1151 0.958 . S
H1166 C1151 0.961 . S
H1167 C1151 0.960 1_556 S
C1168 C1169 1.391 . S
C1168 C1170 1.394 . S
C1168 H1184 0.931 . S
C1169 C1168 1.391 . S
C1169 C1173 1.376 . S
C1170 C1168 1.394 . S
C1170 C1171 1.369 . S
C1170 C1174 1.531 . S
C1171 C1170 1.369 . S
C1171 C1172 1.410 . S
C1171 C1179 1.503 1_554 S
C1172 C1171 1.410 . S
C1172 C1173 1.392 . S
C1172 C1175 1.511 . S
C1173 C1169 1.376 . S
C1173 C1172 1.392 . S
C1173 H1185 0.929 . S
C1174 C1170 1.531 . S
C1174 H1186 0.940 1_554 S
C1174 H1187 0.962 . S
C1174 H1188 0.960 . S
C1175 C1172 1.511 . S
C1175 H1189 0.961 . S
C1175 H1190 0.961 1_554 S
C1175 H1191 0.961 . S
C1176 C1177 1.370 . S
C1176 C1178 1.363 . S
C1176 H1192 0.931 . S
C1177 C1176 1.370 . S
C1177 C1181 1.408 . S
C1178 C1176 1.363 . S
C1178 C1179 1.370 . S
C1178 C1182 1.524 . S
C1179 C1171 1.503 1_556 S
C1179 C1178 1.370 . S
C1179 C1180 1.403 . S
C1180 C1179 1.403 . S
C1180 C1181 1.404 . S
C1180 C1183 1.539 . S
C1181 C1177 1.408 . S
C1181 C1180 1.404 . S
C1181 H1193 0.930 . S
C1182 C1178 1.524 . S
C1182 H1194 0.956 1_556 S
C1182 H1195 0.961 1_556 S
C1182 H1196 0.961 . S
C1183 C1180 1.539 . S
C1183 H1197 0.958 . S
C1183 H1198 0.961 . S
C1183 H1199 0.960 . S
H1184 C1168 0.931 . S
H1185 C1173 0.929 . S
H1186 C1174 0.940 1_556 S
H1187 C1174 0.962 . S
H1188 C1174 0.960 . S
H1189 C1175 0.961 . S
H1190 C1175 0.961 1_556 S
H1191 C1175 0.961 . S
H1192 C1176 0.931 . S
H1193 C1181 0.930 . S
H1194 C1182 0.956 1_554 S
H1195 C1182 0.961 1_554 S
H1196 C1182 0.961 . S
H1197 C1183 0.958 . S
H1198 C1183 0.961 . S
H1199 C1183 0.960 . S
C1200 C1201 1.391 . S
C1200 C1202 1.394 . S
C1200 H1216 0.931 . S
C1201 C1200 1.391 . S
C1201 C1205 1.376 . S
C1202 C1200 1.394 . S
C1202 C1203 1.369 . S
C1202 C1206 1.531 . S
C1203 C1202 1.369 . S
C1203 C1204 1.410 . S
C1203 C1211 1.503 1_556 S
C1204 C1203 1.410 . S
C1204 C1205 1.392 . S
C1204 C1207 1.511 . S
C1205 C1201 1.376 . S
C1205 C1204 1.392 . S
C1205 H1217 0.929 . S
C1206 C1202 1.531 . S
C1206 H1218 0.941 1_556 S
C1206 H1219 0.962 . S
C1206 H1220 0.960 . S
C1207 C1204 1.511 . S
C1207 H1221 0.961 . S
C1207 H1222 0.961 1_556 S
C1207 H1223 0.961 . S
C1208 C1209 1.370 . S
C1208 C1210 1.363 . S
C1208 H1224 0.931 . S
C1209 C1208 1.370 . S
C1209 C1213 1.408 . S
C1210 C1208 1.363 . S
C1210 C1211 1.370 . S
C1210 C1214 1.524 . S
C1211 C1203 1.503 1_554 S
C1211 C1210 1.370 . S
C1211 C1212 1.403 . S
C1212 C1211 1.403 . S
C1212 C1213 1.404 . S
C1212 C1215 1.539 . S
C1213 C1209 1.408 . S
C1213 C1212 1.404 . S
C1213 H1225 0.930 . S
C1214 C1210 1.524 . S
C1214 H1226 0.956 . S
C1214 H1227 0.961 . S
C1214 H1228 0.961 . S
C1215 C1212 1.539 . S
C1215 H1229 0.958 . S
C1215 H1230 0.961 . S
C1215 H1231 0.960 1_554 S
H1216 C1200 0.931 . S
H1217 C1205 0.929 . S
H1218 C1206 0.941 1_554 S
H1219 C1206 0.962 . S
H1220 C1206 0.960 . S
H1221 C1207 0.961 . S
H1222 C1207 0.961 1_554 S
H1223 C1207 0.961 . S
H1224 C1208 0.931 . S
H1225 C1213 0.930 . S
H1226 C1214 0.956 . S
H1227 C1214 0.961 . S
H1228 C1214 0.961 . S
H1229 C1215 0.958 . S
H1230 C1215 0.961 . S
H1231 C1215 0.960 1_556 S
C209 C8 1.397 . S
C217 C44 1.333 . S
C241 C5 1.332 . S
C249 C21 1.392 . S
C273 C18 1.263 . S
C281 C34 1.397 . S
C305 C31 1.356 . S
C313 C47 1.403 . S
C337 C60 1.403 . S
C345 C70 1.333 . S
C369 C73 1.411 . S
C377 C83 1.305 . S
C401 C86 1.388 . S
C409 C96 1.329 . S
C433 C99 1.406 . S
C441 C57 1.300 . S
C465 C112 1.376 . S
C473 C148 1.298 . S
C497 C109 1.357 . S
C505 C125 1.400 . S
C529 C122 1.314 . S
C537 C138 1.390 . S
C561 C151 1.405 . S
C569 C135 1.333 . S
C593 C174 1.330 . S
C601 C164 1.391 . S
C625 C187 1.263 . S
C633 C177 1.397 . S
C657 C190 1.376 . S
C665 C200 1.298 . S
C689 C203 1.378 . S
C697 C161 1.296 . S
C721 C0 0.992 . S
C729 C195 1.046 . S
C753 C13 1.003 . S
C761 C156 1.049 . S
C785 C169 1.034 . S
C793 C26 1.022 . S
C817 C39 1.036 . S
C825 C182 1.042 . S
C849 C117 1.058 . S
C857 C52 1.031 . S
C881 C130 1.063 . S
C889 C65 1.017 . S
C913 C78 1.043 . S
C921 C143 1.019 . S
C945 C91 1.029 . S
C953 C104 1.023 . S
C977 C10 1.390 . S
C985 C88 1.404 . S
C1009 C101 1.380 . S
C1017 C23 1.402 . S
C1041 C62 1.357 . S
C1049 C36 1.383 . S
C1073 C75 1.395 . S
C1081 C49 1.405 . S
C1105 C114 1.421 . S
C1113 C192 1.398 . S
C1137 C127 1.377 . S
C1145 C205 1.379 . S
C1169 C166 1.357 . S
C1177 C140 1.389 . S
C1201 C153 1.396 . S
C1209 C179 1.382 . S
