# Generated by pormake.
# Topology smc, (6)-cn, num edge types: 1
# Building blocks:
#     Node 0, Type 0, BuildingBlock: KUMBOL_clean_sbu_0, # of connection points: 6
#     Node 1, Type 0, BuildingBlock: KUMBOL_clean_sbu_0, # of connection points: 6
#     Node 2, Type 0, BuildingBlock: KUMBOL_clean_sbu_0, # of connection points: 6
#     Node 3, Type 0, BuildingBlock: KUMBOL_clean_sbu_0, # of connection points: 6
#     Node 4, Type 0, BuildingBlock: KUMBOL_clean_sbu_0, # of connection points: 6
#     Node 5, Type 0, BuildingBlock: KUMBOL_clean_sbu_0, # of connection points: 6
#     Node 6, Type 0, BuildingBlock: KUMBOL_clean_sbu_0, # of connection points: 6
#     Node 7, Type 0, BuildingBlock: KUMBOL_clean_sbu_0, # of connection points: 6
#     Node 8, Type 0, BuildingBlock: KUMBOL_clean_sbu_0, # of connection points: 6
#     Edge 9, Type (0, 0), BuildingBlock: AJUNOK_clean_linker_0, # of connection points: 2
#     Edge 10, Type (0, 0), BuildingBlock: AJUNOK_clean_linker_0, # of connection points: 2
#     Edge 11, Type (0, 0), BuildingBlock: AJUNOK_clean_linker_0, # of connection points: 2
#     Edge 12, Type (0, 0), BuildingBlock: AJUNOK_clean_linker_0, # of connection points: 2
#     Edge 13, Type (0, 0), BuildingBlock: AJUNOK_clean_linker_0, # of connection points: 2
#     Edge 14, Type (0, 0), BuildingBlock: AJUNOK_clean_linker_0, # of connection points: 2
#     Edge 15, Type (0, 0), BuildingBlock: AJUNOK_clean_linker_0, # of connection points: 2
#     Edge 16, Type (0, 0), BuildingBlock: AJUNOK_clean_linker_0, # of connection points: 2
#     Edge 17, Type (0, 0), BuildingBlock: AJUNOK_clean_linker_0, # of connection points: 2
#     Edge 18, Type (0, 0), BuildingBlock: AJUNOK_clean_linker_0, # of connection points: 2
#     Edge 19, Type (0, 0), BuildingBlock: AJUNOK_clean_linker_0, # of connection points: 2
#     Edge 20, Type (0, 0), BuildingBlock: AJUNOK_clean_linker_0, # of connection points: 2
#     Edge 21, Type (0, 0), BuildingBlock: AJUNOK_clean_linker_0, # of connection points: 2
#     Edge 22, Type (0, 0), BuildingBlock: AJUNOK_clean_linker_0, # of connection points: 2
#     Edge 23, Type (0, 0), BuildingBlock: AJUNOK_clean_linker_0, # of connection points: 2
#     Edge 24, Type (0, 0), BuildingBlock: AJUNOK_clean_linker_0, # of connection points: 2
#     Edge 25, Type (0, 0), BuildingBlock: AJUNOK_clean_linker_0, # of connection points: 2
#     Edge 26, Type (0, 0), BuildingBlock: AJUNOK_clean_linker_0, # of connection points: 2
#     Edge 27, Type (0, 0), BuildingBlock: AJUNOK_clean_linker_0, # of connection points: 2
#     Edge 28, Type (0, 0), BuildingBlock: AJUNOK_clean_linker_0, # of connection points: 2
#     Edge 29, Type (0, 0), BuildingBlock: AJUNOK_clean_linker_0, # of connection points: 2
#     Edge 30, Type (0, 0), BuildingBlock: AJUNOK_clean_linker_0, # of connection points: 2
#     Edge 31, Type (0, 0), BuildingBlock: AJUNOK_clean_linker_0, # of connection points: 2
#     Edge 32, Type (0, 0), BuildingBlock: AJUNOK_clean_linker_0, # of connection points: 2
#     Edge 33, Type (0, 0), BuildingBlock: AJUNOK_clean_linker_0, # of connection points: 2
#     Edge 34, Type (0, 0), BuildingBlock: AJUNOK_clean_linker_0, # of connection points: 2
#     Edge 35, Type (0, 0), BuildingBlock: AJUNOK_clean_linker_0, # of connection points: 2
# Relax obj value: 0.112
# Max RMSD: 0.303
# Mean RMSD: 0.303
data_MOF--net-smc--node1-KUMBOL_clean_sbu_0--edge1-AJUNOK_clean_linker_0
_symmetry_space_group_name_H-M    P1
_symmetry_Int_Tables_number       1
_symmetry_cell_setting            triclinic
loop_
_symmetry_equiv_pos_as_xyz
'x, y, z'
_cell_length_a     29.900776
_cell_length_b     29.870772
_cell_length_c     29.622019
_cell_angle_alpha  89.950076
_cell_angle_beta   90.031186
_cell_angle_gamma 120.00802
loop_
_atom_site_label
_atom_site_type_symbol
_atom_site_fract_x
_atom_site_fract_y
_atom_site_fract_z
_atom_type_partial_charge
Gd0 Gd 0.99755 0.39037 0.00793 0.0
Gd1 Gd 0.07072 0.52576 0.97414 0.0
C2 C 1.01874 0.63296 0.03551 0.0
C3 C 0.98732 0.65752 0.96999 0.0
C4 C 1.01563 0.59407 0.96289 0.0
C5 C 1.02721 0.59877 0.0086 0.0
C6 C 0.99544 0.62356 0.94327 0.0
C7 C 0.99958 0.66271 0.01583 0.0
C8 C 1.02958 0.63632 0.08163 0.0
C9 C 0.04751 0.60549 0.10018 0.0
N10 N 0.04612 0.56973 0.02688 0.0
C11 C 0.05565 0.57247 0.07241 0.0
H12 H 0.06937 0.54965 0.08861 0.0
C13 C 1.01955 0.56169 0.89126 0.0
N14 N 1.02571 0.56234 0.93729 0.0
C15 C 0.99797 0.58864 0.87078 0.0
C16 C 0.98553 0.61949 0.89693 0.0
H17 H 1.0347 0.54378 0.86935 0.0
H18 H 0.99377 0.68969 0.03588 0.0
H19 H 0.05707 0.35567 0.93128 0.0
H20 H 1.02358 0.66206 0.10329 0.0
H21 H 0.05537 0.60727 0.13602 0.0
H22 H 0.97222 0.68055 0.95537 0.0
H23 H 0.94759 0.37165 0.11416 0.0
H24 H 0.09965 0.25345 0.99378 0.0
H25 H 0.0984 0.3021 0.92701 0.0
H26 H 0.03824 0.23866 0.1453 0.0
H27 H 0.99304 0.58733 0.83451 0.0
H28 H 0.97001 0.64139 0.88079 0.0
H29 H 0.07749 0.23032 0.0752 0.0
H30 H 0.94641 0.32647 0.18346 0.0
N31 N 0.03728 0.33976 1.00057 0.0
C32 C 0.08172 0.27717 0.99602 0.0
C33 C 0.08089 0.30449 0.95817 0.0
C34 C 0.05984 0.28114 0.03644 0.0
C35 C 0.03763 0.31318 0.03774 0.0
C36 C 0.05772 0.33512 0.96085 0.0
N37 N 0.9938 0.34835 0.07701 0.0
C38 C 1.01568 0.31796 0.07722 0.0
C39 C 0.96641 0.32408 0.15394 0.0
C40 C 0.99088 0.29481 0.15524 0.0
C41 C 0.96748 0.35 0.11427 0.0
C42 C 1.01518 0.29073 0.11643 0.0
H43 H 0.98982 0.27466 0.18603 0.0
O44 O 0.91391 0.35625 0.01176 0.0
O45 O 0.99379 0.4622 0.99241 0.0
O46 O 0.10216 0.51191 0.0434 0.0
O47 O 0.05132 0.42479 0.06498 0.0
O48 O 0.95917 0.42384 0.05143 0.0
O49 O 0.94599 0.31578 0.97672 0.0
O50 O 0.12681 0.58132 0.92649 0.0
O51 O 0.07813 0.45614 0.98684 0.0
O52 O 1.00204 0.3927 0.93269 0.0
O53 O 1.01803 0.47497 0.91489 0.0
O54 O 0.1076 0.49551 0.92727 0.0
O55 O 0.13972 0.59627 0.99751 0.0
C56 C 0.96749 0.46193 0.02583 0.0
C57 C 0.03804 0.25959 0.11547 0.0
C58 C 0.06023 0.25472 0.07554 0.0
C59 C 0.90405 0.31361 0.99202 0.0
C60 C 0.86568 0.26566 0.01516 0.0
C61 C 0.88171 0.23583 0.03941 0.0
C62 C 0.81276 0.25094 0.01503 0.0
C63 C 0.77603 0.20659 0.03894 0.0
C64 C 0.84618 0.19308 0.06412 0.0
C65 C 0.79409 0.17886 0.06428 0.0
C66 C 0.08868 0.47228 0.07252 0.0
C67 C 0.10743 0.4608 0.95351 0.0
C68 C 0.1544 0.61548 0.95715 0.0
C69 C 0.166 0.67025 0.94966 0.0
C70 C 0.13124 0.67913 0.92477 0.0
C71 C 0.21174 0.71427 0.96586 0.0
C72 C 0.21999 0.7652 0.95884 0.0
C73 C 0.13771 0.72836 0.92012 0.0
C74 C 0.18134 0.771 0.93746 0.0
C75 C 0.99909 0.42509 0.90455 0.0
H76 H 0.92179 0.24583 0.03973 0.0
H77 H 0.80073 0.27474 0.99709 0.0
H78 H 0.85907 0.17075 0.08329 0.0
H79 H 0.76782 0.14539 0.0839 0.0
H80 H 0.09934 0.64824 0.90772 0.0
H81 H 0.24108 0.70915 0.98261 0.0
H82 H 0.10952 0.73364 0.90148 0.0
H83 H 0.18659 0.80911 0.9313 0.0
Gd84 Gd 0.68475 0.62915 0.01364 0.0
Gd85 Gd 0.55035 0.56538 0.97794 0.0
C86 C 0.4432 0.40564 0.03754 0.0
C87 C 0.42197 0.34978 0.97218 0.0
C88 C 0.48415 0.44195 0.96561 0.0
C89 C 0.47782 0.44847 0.01103 0.0
C90 C 0.45604 0.39228 0.9458 0.0
C91 C 0.41502 0.3566 0.01773 0.0
C92 C 0.43743 0.41333 0.0832 0.0
C93 C 0.46556 0.46274 0.10145 0.0
N94 N 0.50485 0.49658 0.02926 0.0
C95 C 0.49873 0.50405 0.07381 0.0
H96 H 0.51827 0.54174 0.08836 0.0
C97 C 0.51711 0.47915 0.89425 0.0
N98 N 0.51561 0.48424 0.94032 0.0
C99 C 0.49165 0.43061 0.87365 0.0
C100 C 0.46127 0.38688 0.89958 0.0
H101 H 0.53541 0.51258 0.87242 0.0
H102 H 0.38758 0.32361 0.03737 0.0
H103 H 0.71834 0.71939 0.93152 0.0
H104 H 0.41131 0.38145 0.1046 0.0
H105 H 0.46114 0.46925 0.1367 0.0
H106 H 0.39996 0.3116 0.95743 0.0
H107 H 0.71508 0.60654 0.11798 0.0
H108 H 0.79419 0.86832 0.99372 0.0
H109 H 0.75957 0.814 0.92574 0.0
H110 H 0.81063 0.83137 0.14821 0.0
H111 H 0.49383 0.42725 0.83744 0.0
H112 H 0.44046 0.34944 0.88331 0.0
H113 H 0.8124 0.87443 0.07685 0.0
H114 H 0.75426 0.65533 0.18784 0.0
N115 N 0.72751 0.71939 1.00294 0.0
C116 C 0.77606 0.82668 0.99668 0.0
C117 C 0.75669 0.79607 0.95814 0.0
C118 C 0.77304 0.8033 0.03835 0.0
C119 C 0.74881 0.7489 0.04037 0.0
C120 C 0.73308 0.74226 0.96174 0.0
N121 N 0.72582 0.67247 0.08101 0.0
C122 C 0.74813 0.72479 0.08053 0.0
C123 C 0.75236 0.67527 0.15802 0.0
C124 C 0.77227 0.72865 0.15895 0.0
C125 C 0.72998 0.6477 0.11835 0.0
C126 C 0.77125 0.75423 0.11971 0.0
H127 H 0.78948 0.74992 0.18972 0.0
O128 O 0.71839 0.57888 0.01267 0.0
O129 O 0.61353 0.55326 1.00003 0.0
O130 O 0.56517 0.61563 0.04508 0.0
O131 O 0.64806 0.64159 0.07296 0.0
O132 O 0.65215 0.55872 0.05944 0.0
O133 O 0.76386 0.65786 0.99104 0.0
O134 O 0.49635 0.56722 0.92928 0.0
O135 O 0.619 0.64282 0.9896 0.0
O136 O 0.68429 0.62766 0.93837 0.0
O137 O 0.60226 0.56068 0.92154 0.0
O138 O 0.58204 0.62949 0.92806 0.0
O139 O 0.47895 0.56296 0.9999 0.0
C140 C 0.61361 0.52824 0.03436 0.0
C141 C 0.79331 0.80817 0.1183 0.0
C142 C 0.79426 0.83267 0.07769 0.0
C143 C 0.76371 0.61517 1.00038 0.0
C144 C 0.80808 0.61893 0.02584 0.0
C145 C 0.83619 0.66028 0.05549 0.0
C146 C 0.82229 0.58057 0.02076 0.0
C147 C 0.86482 0.58383 0.04477 0.0
C148 C 0.8774 0.66332 0.07992 0.0
C149 C 0.89153 0.62564 0.07477 0.0
C150 C 0.60286 0.63814 0.07672 0.0
C151 C 0.61441 0.66546 0.95458 0.0
C152 C 0.4612 0.55986 0.95913 0.0
C153 C 0.40671 0.5171 0.94987 0.0
C154 C 0.39878 0.47337 0.92561 0.0
C155 C 0.36213 0.51922 0.96371 0.0
C156 C 0.31158 0.47685 0.95499 0.0
C157 C 0.34967 0.43117 0.91885 0.0
C158 C 0.30643 0.43262 0.93378 0.0
C159 C 0.65219 0.59071 0.91138 0.0
H160 H 0.82634 0.69029 0.05988 0.0
H161 H 0.79966 0.54812 0.99863 0.0
H162 H 0.89882 0.69533 0.10281 0.0
H163 H 0.92444 0.63015 0.09378 0.0
H164 H 0.4304 0.47186 0.91067 0.0
H165 H 0.3666 0.55356 0.98022 0.0
H166 H 0.34508 0.39769 0.90067 0.0
H167 H 0.26851 0.40002 0.92655 0.0
Gd168 Gd 0.45024 0.07699 0.01674 0.0
Gd169 Gd 0.5065 1.00082 0.97892 0.0
C170 C 0.65762 0.04032 0.04911 0.0
C171 C 0.71915 0.07384 0.98751 0.0
C172 C 0.62983 0.05215 0.97531 0.0
C173 C 0.6185 0.03666 0.01993 0.0
C174 C 0.6807 0.07162 0.9589 0.0
C175 C 0.70741 0.05747 0.03229 0.0
C176 C 0.64584 0.02734 0.09458 0.0
C177 C 0.59645 1.01242 0.11025 0.0
N178 N 0.56979 1.01967 0.03525 0.0
C179 C 0.55888 1.00888 0.08007 0.0
H180 H 0.52176 0.9982 0.0933 0.0
C181 C 0.60136 0.05963 0.90276 0.0
N182 N 0.5912 0.04744 0.94778 0.0
C183 C 0.65143 0.08068 0.8856 0.0
C184 C 0.69133 0.08694 0.91381 0.0
H185 H 0.57105 0.04996 0.87846 0.0
H186 H 0.73745 0.05919 0.05394 0.0
H187 H 0.36131 0.02969 0.93328 0.0
H188 H 0.67487 0.02989 0.11802 0.0
H189 H 0.58717 1.00349 0.14563 0.0
H190 H 0.75809 0.08798 0.97526 0.0
H191 H 0.47544 0.1202 0.12382 0.0
H192 H 0.21235 0.97403 0.99224 0.0
H193 H 0.26706 0.98895 0.92533 0.0
H194 H 0.24943 1.01812 0.14847 0.0
H195 H 0.6588 0.09021 0.85012 0.0
H196 H 0.72985 0.10215 0.90011 0.0
H197 H 0.20604 0.98438 0.07561 0.0
H198 H 0.4274 0.11405 0.193 0.0
N199 N 0.3606 0.03798 0.00474 0.0
C200 C 0.25386 0.99223 0.99615 0.0
C201 C 0.28469 1.00056 0.95823 0.0
C202 C 0.27702 1.0086 0.0385 0.0
C203 C 0.33124 0.03225 0.0417 0.0
C204 C 0.33829 1.02386 0.96303 0.0
N205 N 0.40789 0.07499 0.0844 0.0
C206 C 0.35555 0.05144 0.08271 0.0
C207 C 0.40664 0.09589 0.1624 0.0
C208 C 0.35275 0.06923 0.16194 0.0
C209 C 0.43379 0.09918 0.12301 0.0
C210 C 0.32651 0.0473 0.12162 0.0
H211 H 0.33189 0.06679 0.19258 0.0
O212 O 0.50059 0.15966 0.0276 0.0
O213 O 0.52381 0.07835 0.99964 0.0
O214 O 0.45178 0.96162 0.04304 0.0
O215 O 0.42884 1.02025 0.07246 0.0
O216 O 0.52192 0.11062 0.06077 0.0
O217 O 0.43055 0.13288 0.98946 0.0
O218 O 0.50816 0.94869 0.9283 0.0
O219 O 0.43143 0.99659 0.99083 0.0
O220 O 0.4535 0.08238 0.94166 0.0
O221 O 0.50912 0.05321 0.91963 0.0
O222 O 0.44242 0.97271 0.9289 0.0
O223 O 0.5043 0.92865 0.99824 0.0
C224 C 0.55065 0.10275 0.03338 0.0
C225 C 0.27244 1.02215 0.11888 0.0
C226 C 0.24775 1.0029 0.0774 0.0
C227 C 0.47062 0.1728 0.00708 0.0
C228 C 0.46263 0.212 0.03037 0.0
C229 C 0.41886 0.19695 0.05727 0.0
C230 C 0.50035 0.26501 0.02717 0.0
C231 C 0.49418 0.30298 0.05045 0.0
C232 C 0.41295 0.23381 0.08114 0.0
C233 C 0.45019 0.2861 0.07804 0.0
C234 C 0.4287 0.97627 0.07456 0.0
C235 C 0.40732 0.97018 0.95591 0.0
C236 C 0.5117 0.91774 0.95732 0.0
C237 C 0.55482 0.90613 0.95029 0.0
C238 C 0.59941 0.94186 0.92695 0.0
C239 C 0.55214 0.85951 0.96522 0.0
C240 C 0.59493 0.85147 0.95887 0.0
C241 C 0.6422 0.93542 0.92302 0.0
C242 C 0.6403 0.89093 0.93936 0.0
C243 C 0.48431 0.07929 0.91185 0.0
H244 H 0.38941 0.15669 0.06014 0.0
H245 H 0.5347 0.2762 0.00725 0.0
H246 H 0.37917 0.22184 0.10207 0.0
H247 H 0.44364 0.31348 0.09661 0.0
H248 H 0.60119 0.97461 0.91063 0.0
H249 H 0.51694 0.8294 0.98044 0.0
H250 H 0.67645 0.96434 0.90573 0.0
H251 H 0.67326 0.88574 0.93385 0.0
Gd252 Gd 0.66308 0.72305 0.35032 0.0
Gd253 Gd 0.74749 0.8507 0.30976 0.0
C254 C 0.70516 0.96924 0.36023 0.0
C255 C 0.67761 0.99231 0.29127 0.0
C256 C 0.70384 0.92705 0.28976 0.0
C257 C 0.71346 0.9333 0.33593 0.0
C258 C 0.68646 0.95716 0.26699 0.0
C259 C 0.68715 0.99848 0.33767 0.0
C260 C 0.71528 0.97494 0.40657 0.0
C261 C 0.73348 0.9455 0.4277 0.0
N262 N 0.7306 0.90428 0.35718 0.0
C263 C 0.74111 0.91039 0.40245 0.0
H264 H 0.75554 0.88869 0.41972 0.0
C265 C 0.7107 0.8916 0.22064 0.0
N266 N 0.71275 0.8928 0.26684 0.0
C267 C 0.69282 0.91994 0.19684 0.0
C268 C 0.67982 0.95227 0.22019 0.0
H269 H 0.72438 0.86994 0.20163 0.0
H270 H 0.68082 0.02633 0.35578 0.0
H271 H 0.70887 0.67017 0.27039 0.0
H272 H 0.70924 1.00198 0.42632 0.0
H273 H 0.74163 0.94977 0.46355 0.0
H274 H 0.66414 1.01552 0.27431 0.0
H275 H 0.608 0.70347 0.45289 0.0
H276 H 0.75373 0.57471 0.34021 0.0
H277 H 0.74389 0.61249 0.26952 0.0
H278 H 0.70272 0.57597 0.49241 0.0
H279 H 0.69036 0.91783 0.16038 0.0
H280 H 0.66659 0.97473 0.20159 0.0
H281 H 0.73954 0.56243 0.42332 0.0
H282 H 0.60739 0.66198 0.52415 0.0
N283 N 0.69701 0.66649 0.34213 0.0
C284 C 0.73754 0.60004 0.34117 0.0
C285 C 0.73195 0.62123 0.30123 0.0
C286 C 0.72056 0.61033 0.38165 0.0
C287 C 0.69934 0.6433 0.38108 0.0
C288 C 0.71158 0.65436 0.3022 0.0
N289 N 0.65555 0.67995 0.41867 0.0
C290 C 0.6781 0.6503 0.42032 0.0
C291 C 0.6278 0.65851 0.49554 0.0
C292 C 0.65351 0.63048 0.49882 0.0
C293 C 0.62836 0.6823 0.45488 0.0
C294 C 0.67821 0.62525 0.46073 0.0
H295 H 0.65285 0.61185 0.53042 0.0
O296 O 0.59012 0.70541 0.31857 0.0
O297 O 0.6674 0.79801 0.33183 0.0
O298 O 0.77706 0.83471 0.37925 0.0
O299 O 0.71135 0.75908 0.41104 0.0
O300 O 0.64102 0.7698 0.39575 0.0
O301 O 0.59299 0.64745 0.3586 0.0
O302 O 0.81082 0.89361 0.26304 0.0
O303 O 0.74727 0.77853 0.32825 0.0
O304 O 0.66973 0.71814 0.27606 0.0
O305 O 0.68962 0.79979 0.25288 0.0
O306 O 0.77853 0.81089 0.2666 0.0
O307 O 0.81477 0.925 0.32924 0.0
C308 C 0.64707 0.8044 0.36675 0.0
C309 C 0.70176 0.59485 0.46166 0.0
C310 C 0.72279 0.58727 0.42226 0.0
C311 C 0.56324 0.66014 0.33689 0.0
C312 C 0.51427 0.64943 0.35925 0.0
C313 C 0.51523 0.68352 0.39234 0.0
C314 C 0.46605 0.60644 0.34686 0.0
C315 C 0.41989 0.59794 0.36803 0.0
C316 C 0.46994 0.6757 0.41264 0.0
C317 C 0.42269 0.63351 0.40054 0.0
C318 C 0.75772 0.79964 0.41292 0.0
C319 C 0.77476 0.77683 0.2957 0.0
C320 C 0.83491 0.93419 0.28896 0.0
C321 C 0.851 0.98593 0.268 0.0
C322 C 0.83605 0.98768 0.22327 0.0
C323 C 0.88245 0.03372 0.29095 0.0
C324 C 0.89696 0.08179 0.26934 0.0
C325 C 0.85002 0.03447 0.20224 0.0
C326 C 0.88015 0.08086 0.2248 0.0
C327 C 0.66773 0.74884 0.24547 0.0
H328 H 0.55075 0.71678 0.40243 0.0
H329 H 0.46447 0.57981 0.32124 0.0
H330 H 0.47147 0.70278 0.43772 0.0
H331 H 0.388 0.62898 0.41638 0.0
H332 H 0.81396 0.95275 0.20382 0.0
H333 H 0.89538 0.0335 0.32507 0.0
H334 H 0.83802 0.03481 0.16781 0.0
H335 H 0.89141 0.11651 0.20673 0.0
Gd336 Gd 0.35045 0.95679 0.34002 0.0
Gd337 Gd 0.218 0.9056 0.30858 0.0
C338 C 0.11683 0.74102 0.36085 0.0
C339 C 0.09904 0.68986 0.29268 0.0
C340 C 0.15295 0.78369 0.28935 0.0
C341 C 0.14769 0.78649 0.33567 0.0
C342 C 0.1273 0.73526 0.26731 0.0
C343 C 0.09365 0.69276 0.3393 0.0
C344 C 0.10982 0.74538 0.407 0.0
C345 C 0.13319 0.79412 0.42703 0.0
N346 N 0.1718 0.83356 0.35608 0.0
C347 C 0.16403 0.838 0.40096 0.0
H348 H 0.18063 0.87523 0.41687 0.0
C349 C 0.17668 0.8271 0.2193 0.0
N350 N 0.18021 0.82828 0.2655 0.0
C351 C 0.15259 0.78015 0.19604 0.0
C352 C 0.12879 0.73391 0.22018 0.0
H353 H 0.19305 0.86269 0.20012 0.0
H354 H 0.07068 0.65747 0.35828 0.0
H355 H 0.392 0.05505 0.26523 0.0
H356 H 0.08625 0.71142 0.42738 0.0
H357 H 0.12745 0.79796 0.46258 0.0
H358 H 0.07978 0.65241 0.27633 0.0
H359 H 0.36799 0.91909 0.44257 0.0
H360 H 0.48363 0.19637 0.33669 0.0
H361 H 0.4444 0.15011 0.26584 0.0
H362 H 0.488 0.14108 0.48728 0.0
H363 H 0.15166 0.7797 0.15951 0.0
H364 H 0.10956 0.69754 0.20207 0.0
H365 H 0.49871 0.19281 0.41941 0.0
H366 H 0.41054 0.95937 0.51479 0.0
N367 N 0.39918 0.04732 0.33599 0.0
C368 C 0.46028 0.15458 0.33689 0.0
C369 C 0.43819 0.12849 0.29674 0.0
C370 C 0.45255 0.12645 0.37671 0.0
C371 C 0.42151 0.07208 0.37528 0.0
C372 C 0.40816 0.07453 0.29672 0.0
N373 N 0.38757 0.99068 0.41097 0.0
C374 C 0.4152 0.04299 0.41384 0.0
C375 C 0.41189 0.98333 0.4868 0.0
C376 C 0.43729 0.03697 0.4914 0.0
C377 C 0.388 0.96071 0.44587 0.0
C378 C 0.44021 0.06755 0.45443 0.0
H379 H 0.45589 0.05445 0.52314 0.0
O380 O 0.3882 0.91333 0.35931 0.0
O381 O 0.27054 0.88725 0.34618 0.0
O382 O 0.23573 0.95509 0.37479 0.0
O383 O 0.30624 0.95111 0.4027 0.0
O384 O 0.3266 0.87468 0.31991 0.0
O385 O 0.42683 0.97861 0.31373 0.0
O386 O 0.17174 0.92786 0.26793 0.0
O387 O 0.2903 0.98094 0.32089 0.0
O388 O 0.34866 0.9619 0.26533 0.0
O389 O 0.26582 0.89545 0.25088 0.0
O390 O 0.25461 0.97017 0.25898 0.0
O391 O 0.14163 0.89109 0.33139 0.0
C392 C 0.27955 0.85241 0.33284 0.0
C393 C 0.46909 0.12167 0.45634 0.0
C394 C 0.47531 0.15107 0.41761 0.0
C395 C 0.42956 0.94181 0.33552 0.0
C396 C 0.47962 0.95377 0.35616 0.0
C397 C 0.50944 1.00036 0.37934 0.0
C398 C 0.49741 0.91777 0.35344 0.0
C399 C 0.54411 0.92799 0.37466 0.0
C400 C 0.5557 1.0109 0.39988 0.0
C401 C 0.57282 0.97518 0.39772 0.0
C402 C 0.26949 0.96288 0.40793 0.0
C403 C 0.28698 1.00514 0.28636 0.0
C404 C 0.131 0.90549 0.29347 0.0
C405 C 0.08068 0.86943 0.27052 0.0
C406 C 0.08123 0.85678 0.22488 0.0
C407 C 1.0319 0.84958 0.29237 0.0
C408 C 0.98469 0.81847 0.26836 0.0
C409 C 1.03567 0.82506 0.20179 0.0
C410 C 0.98812 0.80651 0.22295 0.0
C411 C 0.31539 0.92488 0.23907 0.0
H412 H 0.49702 0.02864 0.3816 0.0
H413 H 0.47457 0.88163 0.33559 0.0
H414 H 0.57846 0.04702 0.41769 0.0
H415 H 0.60903 0.98478 0.41387 0.0
H416 H 0.11702 0.87222 0.20629 0.0
H417 H 1.031 0.85895 0.32751 0.0
H418 H 0.03715 0.81602 0.16662 0.0
H419 H 0.95382 0.78434 0.20268 0.0
Gd420 Gd 0.10713 0.40603 0.35288 0.0
Gd421 Gd 0.15599 0.32808 0.30571 0.0
C422 C 0.32385 0.40549 0.35277 0.0
C423 C 0.37117 0.44312 0.28346 0.0
C424 C 0.277 0.39626 0.28322 0.0
C425 C 0.27678 0.38712 0.32917 0.0
C426 C 0.32441 0.42304 0.25972 0.0
C427 C 0.37088 0.43438 0.32988 0.0
C428 C 0.32228 0.39379 0.39866 0.0
C429 C 0.27472 0.36357 0.41972 0.0
N430 N 0.23071 0.36007 0.35079 0.0
C431 C 0.22917 0.34655 0.39508 0.0
H432 H 0.19311 0.32154 0.41147 0.0
C433 C 0.23055 0.37547 0.21468 0.0
N434 N 0.23108 0.37603 0.26098 0.0
C435 C 0.27643 0.40208 0.19008 0.0
C436 C 0.32353 0.42707 0.21275 0.0
H437 H 0.1947 0.3536 0.19635 0.0
H438 H 0.40729 0.44936 0.34762 0.0
H439 H 1.01694 0.36843 0.26739 0.0
H440 H 0.35753 0.40713 0.4179 0.0
H441 H 0.27308 0.35309 0.45492 0.0
H442 H 0.40781 0.46437 0.26603 0.0
H443 H 0.1264 0.42036 0.46604 0.0
H444 H 0.87619 0.34311 0.32421 0.0
H445 H 0.9309 0.3564 0.25769 0.0
H446 H 0.90443 0.34786 0.48294 0.0
H447 H 0.27543 0.40242 0.15356 0.0
H448 H 0.35906 0.44718 0.19355 0.0
H449 H 0.86574 0.3366 0.40774 0.0
H450 H 0.07642 0.408 0.53459 0.0
N451 N 1.01795 0.37451 0.33904 0.0
C452 C 0.91571 0.35188 0.32881 0.0
C453 C 0.94666 0.35999 0.29125 0.0
C454 C 0.93594 0.35465 0.37185 0.0
C455 C 0.98813 0.36725 0.37609 0.0
C456 C 0.99701 0.36925 0.29698 0.0
N457 N 0.0611 0.38991 0.42181 0.0
C458 C 1.01008 0.37429 0.41855 0.0
C459 C 0.05693 0.39755 0.50242 0.0
C460 C 1.00408 0.37882 0.49978 0.0
C461 C 0.08508 0.40401 0.46309 0.0
C462 C 0.98017 0.36805 0.45756 0.0
H463 H 0.9824 0.3745 0.53028 0.0
O464 O 0.15721 0.47214 0.39312 0.0
O465 O 0.17883 0.40025 0.34375 0.0
O466 O 0.10685 0.28951 0.37071 0.0
O467 O 0.12359 0.36354 0.40717 0.0
O468 O 0.17918 0.46451 0.31703 0.0
O469 O 0.09846 0.4757 0.35185 0.0
O470 O 0.15568 0.27035 0.25978 0.0
O471 O 0.08221 0.32405 0.3264 0.0
O472 O 0.1038 0.41562 0.27847 0.0
O473 O 0.14988 0.37875 0.24749 0.0
O474 O 0.08433 0.29736 0.26319 0.0
O475 O 0.16223 0.26186 0.33047 0.0
C476 C 0.20717 0.44399 0.32529 0.0
C477 C 0.92785 0.35314 0.45333 0.0
C478 C 0.90586 0.34675 0.41055 0.0
C479 C 0.13828 0.50041 0.37863 0.0
C480 C 0.14948 0.54692 0.40531 0.0
C481 C 0.15431 0.54595 0.45229 0.0
C482 C 0.16502 0.59479 0.3836 0.0
C483 C 0.18949 0.64213 0.40817 0.0
C484 C 0.17668 0.59158 0.47698 0.0
C485 C 0.19537 0.63901 0.45525 0.0
C486 C 0.1039 0.31334 0.40771 0.0
C487 C 0.05298 0.29704 0.29367 0.0
C488 C 0.16547 0.24537 0.29071 0.0
C489 C 0.2103 0.23622 0.28242 0.0
C490 C 0.25458 0.27485 0.26071 0.0
C491 C 0.21013 0.18985 0.29506 0.0
C492 C 0.25473 0.18475 0.2876 0.0
C493 C 0.29851 0.27068 0.25488 0.0
C494 C 0.29883 0.22638 0.26855 0.0
C495 C 0.12641 0.40705 0.24398 0.0
H496 H 0.1431 0.51016 0.46986 0.0
H497 H 0.15896 0.59444 0.34764 0.0
H498 H 0.18153 0.59038 0.51311 0.0
H499 H 0.21565 0.67324 0.4759 0.0
H500 H 0.25531 0.30825 0.24712 0.0
H501 H 0.17581 0.15813 0.30993 0.0
H502 H 0.33222 0.30166 0.23857 0.0
H503 H 0.33308 0.22361 0.26225 0.0
Gd504 Gd 0.33001 0.04563 0.68273 0.0
Gd505 Gd 0.39708 0.17921 0.64676 0.0
C506 C 0.34632 0.28485 0.71212 0.0
C507 C 0.31026 0.30755 0.64868 0.0
C508 C 0.3391 0.24483 0.63925 0.0
C509 C 0.35358 0.25062 0.68424 0.0
C510 C 0.31665 0.27292 0.62121 0.0
C511 C 0.32589 0.31413 0.69378 0.0
C512 C 0.3596 0.28857 0.75774 0.0
C513 C 0.3788 0.25806 0.77475 0.0
N514 N 0.37383 0.22221 0.70098 0.0
C515 C 0.38567 0.22504 0.74583 0.0
H516 H 0.40001 0.20189 0.76 0.0
C517 C 0.33875 0.21084 0.56724 0.0
N518 N 0.34817 0.21296 0.61278 0.0
C519 C 0.31425 0.23588 0.54849 0.0
C520 C 0.30282 0.26683 0.57565 0.0
H521 H 0.35271 0.19263 0.5442 0.0
H522 H 0.32145 0.34161 0.71437 0.0
H523 H 0.39581 1.01752 0.60435 0.0
H524 H 0.35442 0.31423 0.78022 0.0
H525 H 0.38843 0.25994 0.8102 0.0
H526 H 0.29382 0.32989 0.6352 0.0
H527 H 0.26955 1.01121 0.78335 0.0
H528 H 0.45808 0.93346 0.66929 0.0
H529 H 0.44653 0.97413 0.60098 0.0
H530 H 0.39006 0.90773 0.81915 0.0
H531 H 0.30635 0.23316 0.51263 0.0
H532 H 0.28527 0.28748 0.56072 0.0
H533 H 0.43747 0.90958 0.7508 0.0
H534 H 0.2699 0.96515 0.85175 0.0
N535 N 0.37841 1.00317 0.67466 0.0
C536 C 0.4354 0.95253 0.67113 0.0
C537 C 0.42886 0.97532 0.6325 0.0
C538 C 0.41148 0.95345 0.71137 0.0
C539 C 0.38241 0.97888 0.712 0.0
C540 C 0.39971 1.00005 0.63473 0.0
N541 N 0.32721 1.00158 0.74969 0.0
C542 C 0.35586 0.9779 0.75059 0.0
C543 C 0.29525 0.96951 0.82404 0.0
C544 C 0.32724 0.94808 0.82673 0.0
C545 C 0.29536 0.99593 0.78504 0.0
C546 C 0.35747 0.95136 0.78947 0.0
H547 H 0.32708 0.92771 0.85708 0.0
O548 O 0.2459 1.01113 0.67904 0.0
O549 O 0.32204 0.11514 0.66835 0.0
O550 O 0.43514 0.16519 0.71273 0.0
O551 O 0.37998 0.08222 0.74189 0.0
O552 O 0.29219 0.0775 0.72888 0.0
O553 O 0.28089 0.96828 0.65517 0.0
O554 O 0.44939 0.23624 0.59788 0.0
O555 O 0.40941 0.1129 0.65885 0.0
O556 O 0.3372 0.04831 0.60887 0.0
O557 O 0.34344 0.12541 0.58821 0.0
O558 O 0.43257 0.15055 0.59736 0.0
O559 O 0.4662 0.25059 0.66852 0.0
C560 C 0.29743 0.11458 0.70321 0.0
C561 C 0.38794 0.92779 0.78951 0.0
C562 C 0.41493 0.92885 0.75056 0.0
C563 C 0.23759 0.96695 0.66406 0.0
C564 C 0.19643 0.92028 0.68737 0.0
C565 C 0.20999 0.89168 0.71624 0.0
C566 C 0.14336 0.90466 0.68191 0.0
C567 C 0.1047 0.86167 0.70611 0.0
C568 C 0.17214 0.84921 0.73979 0.0
C569 C 0.12019 0.83449 0.735 0.0
C570 C 0.42182 0.12786 0.74461 0.0
C571 C 0.43788 0.11933 0.62412 0.0
C572 C 0.47854 0.2702 0.62807 0.0
C573 C 0.48948 0.32494 0.62198 0.0
C574 C 0.45232 0.33371 0.60127 0.0
C575 C 0.53689 0.36903 0.63537 0.0
C576 C 0.54464 0.42001 0.63009 0.0
C577 C 0.45859 0.38303 0.59836 0.0
C578 C 0.50401 0.42576 0.61314 0.0
C579 C 0.32874 0.07588 0.57955 0.0
H580 H 0.24998 0.9022 0.72084 0.0
H581 H 0.13236 0.9264 0.65973 0.0
H582 H 0.18316 0.8276 0.76206 0.0
H583 H 0.09187 0.80129 0.75385 0.0
H584 H 0.4186 0.30261 0.58615 0.0
H585 H 0.5678 0.36391 0.64866 0.0
H586 H 0.42866 0.38832 0.58305 0.0
H587 H 0.50878 0.46389 0.60841 0.0
Gd588 Gd 1.01233 0.28256 0.68432 0.0
Gd589 Gd 0.88277 0.23683 0.64146 0.0
C590 C 0.76561 0.0849 0.70848 0.0
C591 C 0.74083 1.02412 0.64656 0.0
C592 C 0.80936 0.11366 0.63634 0.0
C593 C 0.80277 0.12455 0.68057 0.0
C594 C 0.77853 0.06292 0.61919 0.0
C595 C 0.73401 0.03524 0.6909 0.0
C596 C 0.76184 0.09584 0.75365 0.0
C597 C 0.79531 0.14491 0.77044 0.0
N598 N 0.83402 0.17305 0.69694 0.0
C599 C 0.83117 0.18306 0.74169 0.0
H600 H 0.85596 0.21995 0.75646 0.0
C601 C 0.84992 0.14241 0.56548 0.0
N602 N 0.84535 0.15235 0.61 0.0
C603 C 0.82115 0.09266 0.54761 0.0
C604 C 0.7855 0.05266 0.57461 0.0
H605 H 0.87259 0.1725 0.5419 0.0
H606 H 0.70469 1.00484 0.71163 0.0
H607 H 0.0793 0.36927 0.60268 0.0
H608 H 0.73403 0.06638 0.77607 0.0
H609 H 0.7934 0.15355 0.80563 0.0
H610 H 0.71665 0.98529 0.63372 0.0
H611 H 1.00928 0.25381 0.79469 0.0
H612 H 0.18605 0.51248 0.66454 0.0
H613 H 0.14929 0.45923 0.59611 0.0
H614 H 0.16166 0.47449 0.82251 0.0
H615 H 0.82537 0.08559 0.51246 0.0
H616 H 0.76265 1.01431 0.56038 0.0
H617 H 0.1895 0.51816 0.74901 0.0
H618 H 0.04622 0.29851 0.86588 0.0
N619 N 0.07595 0.37017 0.67441 0.0
C620 C 0.15539 0.47264 0.66776 0.0
C621 C 0.13481 0.44268 0.62909 0.0
C622 C 0.13751 0.45027 0.71017 0.0
C623 C 0.0979 0.39802 0.71246 0.0
C624 C 0.09472 0.39144 0.63302 0.0
N625 N 0.04764 0.32204 0.7545 0.0
C626 C 0.08324 0.3733 0.75379 0.0
C627 C 0.05721 0.32022 0.83478 0.0
C628 C 0.0923 0.37328 0.83483 0.0
C629 C 0.03615 0.29485 0.79411 0.0
C630 C 0.10638 0.40032 0.79397 0.0
H631 H 0.10931 0.3928 0.86632 0.0
O632 O 0.04044 0.23132 0.70587 0.0
O633 O 0.9383 0.21218 0.66244 0.0
O634 O 0.89676 0.28762 0.70779 0.0
O635 O 0.97978 0.31344 0.73483 0.0
O636 O 0.96697 0.20984 0.72551 0.0
O637 O 0.08199 0.28847 0.65469 0.0
O638 O 0.83012 0.23563 0.58985 0.0
O639 O 0.95625 0.30749 0.6573 0.0
O640 O 1.01633 0.28158 0.60911 0.0
O641 O 0.93317 0.24161 0.57943 0.0
O642 O 0.92173 0.30841 0.59841 0.0
O643 O 0.81331 0.24036 0.6595 0.0
C644 C 0.93231 0.18333 0.6959 0.0
C645 C 0.14374 0.453 0.79199 0.0
C646 C 0.15948 0.47788 0.75015 0.0
C647 C 0.08078 0.25202 0.67985 0.0
C648 C 0.12953 0.26175 0.70127 0.0
C649 C 0.15821 0.3062 0.72743 0.0
C650 C 0.14592 0.22484 0.69805 0.0
C651 C 0.19003 0.23185 0.72187 0.0
C652 C 0.20171 0.31347 0.75092 0.0
C653 C 0.21724 0.27659 0.74854 0.0
C654 C 0.93514 0.31155 0.73852 0.0
C655 C 0.95838 0.33809 0.62591 0.0
C656 C 0.79528 0.23207 0.61845 0.0
C657 C 0.74078 0.18825 0.61161 0.0
C658 C 0.73243 0.14476 0.58662 0.0
C659 C 0.69661 0.18889 0.62886 0.0
C660 C 0.64611 0.14528 0.62306 0.0
C661 C 0.68361 0.10116 0.58311 0.0
C662 C 0.6409 0.10109 0.60165 0.0
C663 C 0.98425 0.26155 0.57491 0.0
H664 H 0.14676 0.33512 0.73004 0.0
H665 H 0.12382 0.19037 0.67787 0.0
H666 H 0.2235 0.34786 0.77119 0.0
H667 H 0.25151 0.28389 0.76694 0.0
H668 H 0.7636 0.14433 0.5691 0.0
H669 H 0.70126 0.22322 0.64553 0.0
H670 H 0.67864 0.06774 0.56457 0.0
H671 H 0.60303 0.06755 0.59643 0.0
Gd672 Gd 0.77735 0.73401 0.67788 0.0
Gd673 Gd 0.83343 0.65649 0.64475 0.0
C674 C 0.9903 0.70292 0.70638 0.0
C675 C 0.04412 0.72196 0.63976 0.0
C676 C 0.954 0.69908 0.63218 0.0
C677 C 0.94802 0.69373 0.67874 0.0
C678 C 1.00227 0.7133 0.61232 0.0
C679 C 0.03804 0.7164 0.68659 0.0
C680 C 0.98349 0.69852 0.7532 0.0
C681 C 0.93571 0.68602 0.77149 0.0
N682 N 0.90134 0.68064 0.69707 0.0
C683 C 0.89496 0.6773 0.74286 0.0
H684 H 0.85912 0.6691 0.75784 0.0
C685 C 0.91656 0.69114 0.56022 0.0
N686 N 0.91279 0.69028 0.60631 0.0
C687 C 0.96376 0.70597 0.53917 0.0
C688 C 1.00694 0.71751 0.56534 0.0
H689 H 0.88276 0.67867 0.53926 0.0
H690 H 0.07065 0.72285 0.70724 0.0
H691 H 0.68486 0.67735 0.59823 0.0
H692 H 1.01502 0.70538 0.77552 0.0
H693 H 0.93027 0.68338 0.80773 0.0
H694 H 0.08133 0.73267 0.62505 0.0
H695 H 0.80589 0.78705 0.78161 0.0
H696 H 0.53776 0.61669 0.6624 0.0
H697 H 0.58968 0.62738 0.59455 0.0
H698 H 0.58093 0.67766 0.81431 0.0
H699 H 0.96645 0.70713 0.50271 0.0
H700 H 0.04333 0.72831 0.54889 0.0
H701 H 0.53475 0.63552 0.74448 0.0
H702 H 0.76029 0.78462 0.85141 0.0
N703 N 0.68698 0.69137 0.66889 0.0
C704 C 0.57954 0.63822 0.66454 0.0
C705 C 0.60886 0.6446 0.62598 0.0
C706 C 0.60444 0.66033 0.70523 0.0
C707 C 0.65892 0.68728 0.70633 0.0
C708 C 0.66284 0.67242 0.62847 0.0
N709 N 0.73716 0.7365 0.74556 0.0
C710 C 0.68472 0.71093 0.74574 0.0
C711 C 0.7385 0.76342 0.82211 0.0
C712 C 0.68465 0.7347 0.82372 0.0
C713 C 0.76427 0.76458 0.78239 0.0
C714 C 0.65705 0.70858 0.78505 0.0
H715 H 0.66482 0.73371 0.85465 0.0
O716 O 0.82472 0.81766 0.68556 0.0
O717 O 0.8514 0.73543 0.66138 0.0
O718 O 0.78418 0.62342 0.71239 0.0
O719 O 0.7592 0.68224 0.73705 0.0
O720 O 0.85071 0.77261 0.71972 0.0
O721 O 0.75516 0.78586 0.64591 0.0
O722 O 0.81429 0.59172 0.60058 0.0
O723 O 0.75798 0.65175 0.65696 0.0
O724 O 0.77873 0.73237 0.6024 0.0
O725 O 0.84389 0.71403 0.58623 0.0
O726 O 0.76891 0.6264 0.59533 0.0
O727 O 0.845 0.59207 0.66613 0.0
C728 C 0.87919 0.76299 0.69358 0.0
C729 C 0.60287 0.68058 0.78439 0.0
C730 C 0.57661 0.65651 0.74459 0.0
C731 C 0.7935 0.82767 0.66316 0.0
C732 C 0.78222 0.86624 0.68361 0.0
C733 C 0.73559 0.84997 0.7065 0.0
C734 C 0.81895 0.91977 0.68131 0.0
C735 C 0.809 0.95682 0.70179 0.0
C736 C 0.72569 0.886 0.72714 0.0
C737 C 0.7619 0.93866 0.72502 0.0
C738 C 0.76135 0.63976 0.74255 0.0
C739 C 0.73401 0.62428 0.62237 0.0
C740 C 0.83266 0.56968 0.62676 0.0
C741 C 0.86772 0.55323 0.6049 0.0
C742 C 0.88084 0.56567 0.55915 0.0
C743 C 0.88541 0.52245 0.62726 0.0
C744 C 0.91636 0.50572 0.60389 0.0
C745 C 0.9108 0.54945 0.53638 0.0
C746 C 0.92787 0.51957 0.55815 0.0
C747 C 0.81471 0.73498 0.57524 0.0
H748 H 0.70687 0.80937 0.7087 0.0
H749 H 0.85542 0.93211 0.66445 0.0
H750 H 0.68968 0.87303 0.74498 0.0
H751 H 0.7526 0.96525 0.74153 0.0
H752 H 0.86691 0.58709 0.54006 0.0
H753 H 0.87481 0.51125 0.66212 0.0
H754 H 0.91984 0.55912 0.50107 0.0
H755 H 0.94894 0.50579 0.53828 0.0
C756 C 0.24899 0.50309 0.92843 0.0
C757 C 0.26302 0.47883 0.96145 0.0
C758 C 0.1987 0.49541 0.92622 0.0
C759 C 0.1596 0.46414 0.95772 0.0
H760 H 0.27646 0.52621 0.90249 0.0
H761 H 0.19074 0.51461 0.899 0.0
S762 S 0.17718 0.39072 0.05066 0.0
N763 N 0.23368 0.41959 0.02484 0.0
N764 N 0.14114 0.41031 0.02452 0.0
C765 C 0.17402 0.44097 0.99201 0.0
C766 C 0.22495 0.44693 0.99286 0.0
C767 C 0.62552 0.79406 0.99368 0.0
C768 C 0.59183 0.80024 0.9643 0.0
C769 C 0.63215 0.75045 0.99099 0.0
C770 C 0.60759 0.71237 0.95753 0.0
H771 H 0.64805 0.82392 0.01813 0.0
H772 H 0.65785 0.74738 0.01445 0.0
S773 S 0.51434 0.711 0.87257 0.0
N774 N 0.53224 0.76419 0.90189 0.0
N775 N 0.54581 0.68418 0.89496 0.0
C776 C 0.57307 0.71827 0.92831 0.0
C777 C 0.56509 0.76161 0.93215 0.0
C778 C 0.31854 0.9055 0.98829 0.0
C779 C 0.36042 0.91638 0.95975 0.0
C780 C 0.27436 0.85559 0.99065 0.0
C781 C 0.27086 0.81352 0.96591 0.0
H782 H 0.31898 0.93592 0.00796 0.0
H783 H 0.2419 0.8502 0.01095 0.0
S784 S 0.37029 0.8179 0.88884 0.0
N785 N 0.3951 0.87767 0.9074 0.0
N786 N 0.31362 0.78515 0.91374 0.0
C787 C 0.31318 0.8228 0.93918 0.0
C788 C 0.35738 0.87362 0.93561 0.0
C789 C 0.54265 0.39273 0.08402 0.0
C790 C 0.53184 0.36011 0.04615 0.0
C791 C 0.57064 0.44689 0.08006 0.0
C792 C 0.58855 0.47097 0.038 0.0
H793 H 0.52817 0.37637 0.11706 0.0
H794 H 0.57626 0.47009 0.1099 0.0
S795 S 0.58298 0.40508 0.9304 0.0
N796 N 0.54928 0.35734 0.9661 0.0
N797 N 0.60321 0.45895 0.95951 0.0
C798 C 0.58287 0.43943 1.00073 0.0
C799 C 0.55415 0.38412 0.00457 0.0
C800 C 0.6344 0.14042 0.07533 0.0
C801 C 0.608 0.13455 0.0346 0.0
C802 C 0.68862 0.16591 0.07675 0.0
C803 C 0.71895 0.1876 0.03762 0.0
H804 H 0.61295 0.12312 0.10603 0.0
H805 H 0.70682 0.16752 0.10878 0.0
S806 S 0.66773 0.19538 0.92522 0.0
N807 N 0.61561 0.1618 0.95644 0.0
N808 N 0.71731 0.20855 0.95829 0.0
C809 C 0.69272 0.1864 0.99756 0.0
C810 C 0.63736 0.1603 0.99627 0.0
C811 C 0.92836 0.50335 0.07202 0.0
C812 C 0.93608 0.4878 0.02941 0.0
C813 C 0.9028 0.53174 0.07673 0.0
C814 C 0.88312 0.5454 0.03906 0.0
H815 H 0.94427 0.49551 0.10188 0.0
H816 H 0.89975 0.54428 0.11029 0.0
S817 S 0.87947 0.49933 0.92172 0.0
N818 N 0.91174 0.47711 0.95033 0.0
N819 N 0.86522 0.53202 0.95833 0.0
C820 C 0.8858 0.52502 0.99673 0.0
C821 C 0.9118 0.49579 0.99213 0.0
C822 C 0.83679 0.74481 0.2791 0.0
C823 C 0.82586 0.779 0.30281 0.0
C824 C 0.88786 0.75501 0.27269 0.0
C825 C 0.9314 0.8017 0.28726 0.0
H826 H 0.80617 0.71176 0.26209 0.0
H827 H 0.89318 0.72738 0.2532 0.0
S828 S 0.92544 0.90558 0.3507 0.0
N829 N 0.86457 0.86153 0.34206 0.0
N830 N 0.95934 0.88173 0.32797 0.0
C831 C 0.9212 0.8353 0.31268 0.0
C832 C 0.86906 0.82406 0.32043 0.0
C833 C 0.23546 0.09763 0.26022 0.0
C834 C 0.25636 0.13563 0.2939 0.0
C835 C 0.24711 0.05747 0.25797 0.0
C836 C 0.27933 0.05176 0.29004 0.0
H837 H 0.2119 0.10046 0.23381 0.0
H838 H 0.23038 0.03059 0.23019 0.0
S839 S 0.34594 0.1433 0.38425 0.0
N840 N 0.3139 0.16764 0.3584 0.0
N841 N 0.33118 0.08918 0.35737 0.0
C842 C 0.29952 0.08917 0.32467 0.0
C843 C 0.28929 0.13159 0.32576 0.0
C844 C 1.01981 0.20214 0.30892 0.0
C845 C 1.0087 0.24252 0.30137 0.0
C846 C 0.98229 0.14935 0.30322 0.0
C847 C 0.93144 0.13416 0.29011 0.0
H848 H 0.05901 0.21145 0.31572 0.0
H849 H 0.99434 0.12074 0.30553 0.0
S850 S 0.87888 0.222 0.27254 0.0
N851 N 0.94067 0.26107 0.28335 0.0
N852 N 0.86997 0.16301 0.27614 0.0
C853 C 0.91847 0.17338 0.28681 0.0
C854 C 0.95698 0.22704 0.29132 0.0
C855 C 0.23835 0.78758 0.39506 0.0
C856 C 0.25426 0.79839 0.34998 0.0
C857 C 0.21542 0.73708 0.41227 0.0
C858 C 0.21056 0.69499 0.38631 0.0
H859 H 0.24341 0.81847 0.41735 0.0
H860 H 0.20119 0.73161 0.44652 0.0
S861 S 0.25436 0.70592 0.26689 0.0
N862 N 0.26671 0.76477 0.27975 0.0
N863 N 0.2291 0.67081 0.3128 0.0
C864 C 0.22895 0.70633 0.34126 0.0
C865 C 0.25016 0.75772 0.32325 0.0
C866 C 0.29709 0.5103 0.30197 0.0
C867 C 0.26256 0.4791 0.33594 0.0
C868 C 0.34909 0.54627 0.3119 0.0
C869 C 0.36793 0.55348 0.35645 0.0
H870 H 0.2837 0.50683 0.26746 0.0
H871 H 0.37407 0.57015 0.2849 0.0
S872 S 0.29197 0.4841 0.45802 0.0
N873 N 0.2502 0.45973 0.41605 0.0
N874 N 0.34742 0.52654 0.4348 0.0
C875 C 0.33352 0.52251 0.39064 0.0
C876 C 0.28091 0.48587 0.38047 0.0
C877 C 0.57102 0.87147 0.33193 0.0
C878 C 0.56409 0.89067 0.37324 0.0
C879 C 0.59672 0.84256 0.3299 0.0
C880 C 0.6169 0.83211 0.36904 0.0
H881 H 0.55849 0.88068 0.30072 0.0
H882 H 0.60212 0.82958 0.29729 0.0
S883 S 0.6019 0.86641 0.48615 0.0
N884 N 0.57442 0.89161 0.45469 0.0
N885 N 0.62233 0.83785 0.45073 0.0
C886 C 0.60692 0.84791 0.41069 0.0
C887 C 0.58104 0.87732 0.41279 0.0
C888 C 0.55845 0.11161 0.66017 0.0
C889 C 0.59735 0.14677 0.63067 0.0
C890 C 0.50766 0.10385 0.65913 0.0
C891 C 0.49259 0.12854 0.62695 0.0
H892 H 0.56701 0.08887 0.6834 0.0
H893 H 0.47975 0.07709 0.68275 0.0
S894 S 0.58179 0.22626 0.54306 0.0
N895 N 0.61845 0.20848 0.57031 0.0
N896 N 0.52405 0.19279 0.56605 0.0
C897 C 0.5322 0.16484 0.59793 0.0
C898 C 0.58399 0.17401 0.60031 0.0
C899 C 0.90935 0.38269 0.6498 0.0
C900 C 0.95656 0.38688 0.63533 0.0
C901 C 0.89831 0.42322 0.64419 0.0
C902 C 0.9339 0.47024 0.62368 0.0
H903 H 0.87832 0.34599 0.66154 0.0
H904 H 0.85986 0.4158 0.65225 0.0
S905 S 0.06562 0.5048 0.58515 0.0
N906 N 0.04 0.44431 0.60226 0.0
N907 N 1.02151 0.52135 0.59504 0.0
C908 C 0.98303 0.47686 0.6132 0.0
C909 C 0.99363 0.4351 0.61787 0.0
C910 C 0.64776 0.55936 0.65904 0.0
C911 C 0.6861 0.57103 0.62618 0.0
C912 C 0.60331 0.50963 0.66239 0.0
C913 C 0.59623 0.46834 0.6343 0.0
H914 H 0.65129 0.58921 0.68149 0.0
H915 H 0.57358 0.50373 0.68645 0.0
S916 S 0.685 0.47519 0.54412 0.0
N917 N 0.71288 0.53412 0.56519 0.0
N918 N 0.6315 0.44178 0.5735 0.0
C919 C 0.63487 0.47849 0.60266 0.0
C920 C 0.67907 0.52923 0.5981 0.0
C921 C 0.85296 0.04502 0.73839 0.0
C922 C 0.84641 1.01426 0.70001 0.0
C923 C 0.8819 0.09927 0.73675 0.0
C924 C 0.90478 0.12562 0.69644 0.0
H925 H 0.8348 0.02706 0.77009 0.0
H926 H 0.88471 0.12088 0.767 0.0
S927 S 0.91091 0.06467 0.58936 0.0
N928 N 0.87283 1.01528 0.62206 0.0
N929 N 0.92805 0.1172 0.6197 0.0
C930 C 0.90277 0.09582 0.6589 0.0
C931 C 0.87331 0.04027 0.66048 0.0
C932 C 0.96823 0.80689 0.65705 0.0
C933 C 0.93702 0.79249 0.69607 0.0
C934 C 1.02274 0.83179 0.66009 0.0
C935 C 0.04806 0.84389 0.70228 0.0
H936 H 0.95038 0.79743 0.624 0.0
H937 H 0.04497 0.83945 0.62933 0.0
S938 S 0.9844 0.82319 0.81405 0.0
N939 N 0.93606 0.79858 0.77772 0.0
N940 N 0.03747 0.84541 0.78348 0.0
C941 C 1.01724 0.83324 0.74119 0.0
C942 C 0.96212 0.80798 0.73806 0.0
C943 C 0.24167 0.14865 0.67105 0.0
C944 C 0.26473 0.13902 0.70848 0.0
C945 C 0.21494 0.17621 0.67576 0.0
C946 C 0.20958 0.19441 0.71822 0.0
H947 H 0.24617 0.13674 0.63763 0.0
H948 H 0.2009 0.18571 0.64561 0.0
S949 S 0.25139 0.16714 0.828 0.0
N950 N 0.27237 0.14148 0.79008 0.0
N951 N 0.22167 0.19203 0.79925 0.0
C952 C 0.22794 0.18011 0.75631 0.0
C953 C 0.25519 0.15236 0.75141 0.0
C954 C 0.08151 0.44005 0.19349 0.0
C955 C 0.12377 0.43201 0.20032 0.0
C956 C 0.07531 0.46198 0.15392 0.0
C957 C 0.11113 0.47781 0.11847 0.0
H958 H 0.05149 0.42833 0.2183 0.0
H959 H 0.0395 0.46236 0.14941 0.0
S960 S 0.23981 0.48835 0.12672 0.0
N961 N 0.21002 0.4575 0.17342 0.0
N962 N 0.19787 0.49809 0.0981 0.0
C963 C 0.15703 0.47676 0.12676 0.0
C964 C 0.16345 0.45407 0.1677 0.0
C965 C 0.65299 0.74862 0.16019 0.0
C966 C 0.64036 0.72276 0.20195 0.0
C967 C 0.63383 0.72128 0.11908 0.0
C968 C 0.60043 0.66692 0.11737 0.0
H969 H 0.68081 0.78953 0.15881 0.0
H970 H 0.64924 0.74265 0.08825 0.0
S971 S 0.55025 0.5813 0.21743 0.0
N972 N 0.5874 0.63939 0.23884 0.0
N973 N 0.55308 0.58948 0.16223 0.0
C974 C 0.58465 0.64145 0.15905 0.0
C975 C 0.60409 0.66889 0.20091 0.0
C976 C 0.34285 0.93371 0.11304 0.0
C977 C 0.3937 0.94154 0.11112 0.0
C978 C 0.31472 0.92277 0.15377 0.0
C979 C 0.33628 0.91925 0.19472 0.0
H980 H 0.32642 0.94126 0.08361 0.0
H981 H 0.2781 0.92198 0.15369 0.0
S982 S 0.46311 0.9259 0.20803 0.0
N983 N 0.46058 0.93712 0.15375 0.0
N984 N 0.40812 0.91614 0.22985 0.0
C985 C 0.38463 0.92152 0.19268 0.0
C986 C 0.41318 0.93261 0.15112 0.0
C987 C 0.48132 0.07533 0.82653 0.0
C988 C 0.48508 0.10216 0.86646 0.0
C989 C 0.46761 0.08916 0.7854 0.0
C990 C 0.45707 0.13037 0.78194 0.0
H991 H 0.48455 0.0408 0.82767 0.0
H992 H 0.46077 0.06421 0.75684 0.0
S993 S 0.47242 0.21965 0.87514 0.0
N994 N 0.48574 0.17747 0.89857 0.0
N995 N 0.4593 0.20234 0.82166 0.0
C996 C 0.46604 0.16068 0.82068 0.0
C997 C 0.48008 0.14676 0.8627 0.0
C998 C 0.93271 0.34984 0.85893 0.0
C999 C 0.97346 0.40192 0.85995 0.0
C1000 C 0.91408 0.3219 0.81821 0.0
C1001 C 0.93483 0.34473 0.77621 0.0
H1002 H 0.91691 0.32925 0.89025 0.0
H1003 H 0.88654 0.2809 0.82012 0.0
S1004 S 0.03913 0.48068 0.75879 0.0
N1005 N 1.03169 0.47558 0.81416 0.0
N1006 N 0.99629 0.42384 0.73805 0.0
C1007 C 0.97286 0.39782 0.77648 0.0
C1008 C 0.9922 0.4262 0.81803 0.0
C1009 C 0.67752 0.5979 0.78467 0.0
C1010 C 0.72913 0.60802 0.78174 0.0
C1011 C 0.65058 0.5874 0.82601 0.0
C1012 C 0.67423 0.58707 0.8668 0.0
H1013 H 0.65903 0.60264 0.75529 0.0
H1014 H 0.6128 0.58404 0.82634 0.0
S1015 S 0.8053 0.60281 0.87817 0.0
N1016 N 0.80003 0.61074 0.82361 0.0
N1017 N 0.74999 0.59085 0.90098 0.0
C1018 C 0.72408 0.59268 0.86406 0.0
C1019 C 0.75133 0.60309 0.82179 0.0
C1020 C 0.79746 0.75205 0.44966 0.0
C1021 C 0.79083 0.79587 0.44923 0.0
C1022 C 0.81064 0.73477 0.48943 0.0
C1023 C 0.81854 0.7611 0.5306 0.0
H1024 H 0.78854 0.72855 0.41959 0.0
H1025 H 0.81045 0.69842 0.48863 0.0
S1026 S 0.81591 0.88343 0.54612 0.0
N1027 N 0.79945 0.86827 0.4927 0.0
N1028 N 0.82676 0.83814 0.5663 0.0
C1029 C 0.8173 0.80792 0.52932 0.0
C1030 C 0.80298 0.82483 0.48907 0.0
C1031 C 0.29065 0.97241 0.48908 0.0
C1032 C 0.27092 0.98728 0.45277 0.0
C1033 C 0.30944 1.0022 0.52801 0.0
C1034 C 0.30812 0.04844 0.53481 0.0
H1035 H 0.29404 0.93804 0.48664 0.0
H1036 H 0.32587 0.98807 0.55288 0.0
S1037 S 0.24261 0.09502 0.45705 0.0
N1038 N 0.24018 0.04547 0.42979 0.0
N1039 N 0.27352 0.10081 0.50497 0.0
C1040 C 0.28305 0.06115 0.50088 0.0
C1041 C 0.2645 0.03061 0.45982 0.0
C1042 C 0.06474 0.28395 0.53006 0.0
C1043 C 1.01068 0.26523 0.53002 0.0
C1044 C 0.09378 0.29451 0.49015 0.0
C1045 C 0.07061 0.2855 0.4475 0.0
H1046 H 0.08609 0.29299 0.56141 0.0
H1047 H 0.13541 0.31256 0.49276 0.0
S1048 S 0.93065 0.23264 0.42611 0.0
N1049 N 0.93525 0.23569 0.48178 0.0
N1050 N 0.98978 0.25378 0.40695 0.0
C1051 C 1.01641 0.26379 0.44629 0.0
C1052 C 0.98656 0.25396 0.48727 0.0
loop_
_geom_bond_atom_site_label_1
_geom_bond_atom_site_label_2
_geom_bond_distance
_geom_bond_site_symmetry_2
_ccdc_geom_bond_type
Gd0 N31 2.661 1_654 S
Gd0 N37 2.601 . S
Gd0 O44 2.545 . S
Gd0 O45 2.610 . S
Gd0 O47 2.429 . S
Gd0 O48 2.545 . S
Gd0 O49 2.412 1_554 S
Gd0 O51 2.362 1_655 S
Gd0 O52 2.324 1_554 S
Gd0 C59 2.828 . S
Gd1 N10 2.660 1_556 S
Gd1 N14 2.601 . S
Gd1 O45 2.358 1_456 S
Gd1 O46 2.324 1_556 S
Gd1 O50 2.545 . S
Gd1 O51 2.606 1_556 S
Gd1 O53 2.429 . S
Gd1 O54 2.545 . S
Gd1 O55 2.412 1_556 S
Gd1 C68 2.828 . S
C2 C5 1.417 1_554 S
C2 C7 1.431 1_554 S
C2 C8 1.412 . S
C3 C6 1.437 . S
C3 C7 1.317 . S
C3 H22 0.929 . S
C4 C5 1.426 . S
C4 C6 1.413 . S
C4 N14 1.359 1_655 S
C5 C2 1.417 1_556 S
C5 C4 1.426 . S
C5 N10 1.351 1_656 S
C6 C3 1.437 . S
C6 C4 1.413 . S
C6 C16 1.391 . S
C7 C2 1.431 1_556 S
C7 C3 1.317 . S
C7 H18 0.930 . S
C8 C2 1.412 . S
C8 C9 1.355 . S
C8 H20 0.930 . S
C9 C8 1.355 . S
C9 C11 1.402 . S
C9 H21 0.930 . S
N10 Gd1 2.660 1_554 S
N10 C5 1.351 1_454 S
N10 C11 1.307 1_455 S
C11 C9 1.402 . S
C11 N10 1.307 1_655 S
C11 H12 0.930 . S
H12 C11 0.930 . S
C13 N14 1.334 . S
C13 C15 1.394 . S
C13 H17 0.930 . S
N14 Gd1 2.601 . S
N14 C4 1.359 1_455 S
N14 C13 1.334 . S
C15 C13 1.394 . S
C15 C16 1.359 1_455 S
C15 H27 0.930 . S
C16 C6 1.391 . S
C16 C15 1.359 1_655 S
C16 H28 0.929 . S
H17 C13 0.930 . S
H18 C7 0.930 . S
H19 C36 0.930 . S
H20 C8 0.930 . S
H21 C9 0.930 . S
H22 C3 0.929 . S
H23 C41 0.930 . S
H24 C32 0.930 . S
H25 C33 0.930 . S
H26 C57 0.929 . S
H27 C15 0.930 . S
H28 C16 0.929 . S
H29 C58 0.930 . S
H30 C39 0.930 . S
N31 Gd0 2.661 1_456 S
N31 C35 1.350 1_556 S
N31 C36 1.307 . S
C32 H24 0.930 . S
C32 C33 1.355 . S
C32 C34 1.412 . S
C33 H25 0.930 . S
C33 C32 1.355 . S
C33 C36 1.402 . S
C34 C32 1.412 . S
C34 C35 1.417 1_556 S
C34 C58 1.431 1_556 S
C35 N31 1.350 1_554 S
C35 C34 1.417 1_554 S
C35 C38 1.426 . S
C36 H19 0.930 . S
C36 N31 1.307 . S
C36 C33 1.402 . S
N37 Gd0 2.601 . S
N37 C38 1.359 1_655 S
N37 C41 1.334 . S
C38 C35 1.426 . S
C38 N37 1.359 1_455 S
C38 C42 1.413 . S
C39 H30 0.930 . S
C39 C40 1.359 1_655 S
C39 C41 1.394 . S
C40 C39 1.359 1_455 S
C40 C42 1.391 . S
C40 H43 0.929 . S
C41 H23 0.930 . S
C41 N37 1.334 . S
C41 C39 1.394 . S
C42 C38 1.413 . S
C42 C40 1.391 . S
C42 C57 1.437 . S
H43 C40 0.929 . S
O44 Gd0 2.545 . S
O44 C59 1.258 . S
O45 Gd0 2.610 . S
O45 Gd1 2.358 1_654 S
O45 C56 1.288 . S
O46 Gd1 2.324 1_554 S
O46 C66 1.254 . S
O47 Gd0 2.429 . S
O47 C66 1.268 1_655 S
O48 Gd0 2.545 . S
O48 C56 1.250 . S
O49 Gd0 2.412 1_556 S
O49 C59 1.252 1_556 S
O50 Gd1 2.545 . S
O50 C68 1.258 . S
O51 Gd0 2.362 1_455 S
O51 Gd1 2.606 1_554 S
O51 C67 1.284 1_554 S
O52 Gd0 2.324 1_556 S
O52 C75 1.254 . S
O53 Gd1 2.429 . S
O53 C75 1.268 1_455 S
O54 Gd1 2.545 . S
O54 C67 1.250 . S
O55 Gd1 2.412 1_554 S
O55 C68 1.252 1_554 S
C56 O45 1.288 . S
C56 O48 1.250 . S
C57 H26 0.929 . S
C57 C42 1.437 . S
C57 C58 1.317 . S
C58 H29 0.930 . S
C58 C34 1.431 1_554 S
C58 C57 1.317 . S
C59 Gd0 2.828 . S
C59 O44 1.258 . S
C59 O49 1.252 1_554 S
C59 C60 1.497 . S
C60 C59 1.497 . S
C60 C61 1.395 . S
C60 C62 1.380 1_554 S
C61 C60 1.395 . S
C61 C64 1.398 . S
C61 H76 0.930 . S
C62 C60 1.380 1_556 S
C62 C63 1.391 . S
C62 H77 0.930 . S
C63 C62 1.391 . S
C63 C65 1.380 1_556 S
C64 C61 1.398 . S
C64 C65 1.380 . S
C64 H78 0.930 . S
C65 C63 1.380 1_554 S
C65 C64 1.380 . S
C65 H79 0.930 . S
C66 O46 1.254 . S
C66 O47 1.268 1_455 S
C67 O51 1.284 1_556 S
C67 O54 1.250 . S
C68 Gd1 2.828 . S
C68 O50 1.258 . S
C68 O55 1.252 1_556 S
C68 C69 1.497 . S
C69 C68 1.497 . S
C69 C70 1.395 . S
C69 C71 1.380 1_556 S
C70 C69 1.395 . S
C70 C73 1.398 . S
C70 H80 0.930 . S
C71 C69 1.380 1_554 S
C71 C72 1.391 . S
C71 H81 0.930 . S
C72 C71 1.391 . S
C72 C74 1.387 1_554 S
C73 C70 1.398 . S
C73 C74 1.380 . S
C73 H82 0.930 . S
C74 C72 1.387 1_556 S
C74 C73 1.380 . S
C74 H83 0.930 . S
C75 O52 1.254 . S
C75 O53 1.268 1_655 S
H76 C61 0.930 . S
H77 C62 0.930 . S
H78 C64 0.930 . S
H79 C65 0.930 . S
H80 C70 0.930 . S
H81 C71 0.930 . S
H82 C73 0.930 . S
H83 C74 0.930 . S
Gd84 N115 2.661 1_554 S
Gd84 N121 2.601 . S
Gd84 O128 2.545 . S
Gd84 O129 2.610 . S
Gd84 O131 2.429 . S
Gd84 O132 2.545 . S
Gd84 O133 2.412 1_554 S
Gd84 O135 2.362 . S
Gd84 O136 2.324 1_554 S
Gd84 C143 2.828 . S
Gd85 N94 2.661 1_556 S
Gd85 N98 2.601 . S
Gd85 O129 2.358 1_556 S
Gd85 O130 2.324 1_556 S
Gd85 O134 2.545 . S
Gd85 O135 2.606 1_556 S
Gd85 O137 2.429 . S
Gd85 O138 2.545 . S
Gd85 O139 2.412 1_556 S
Gd85 C152 2.828 . S
C86 C89 1.417 1_554 S
C86 C91 1.431 1_554 S
C86 C92 1.412 . S
C87 C90 1.437 . S
C87 C91 1.317 . S
C87 H106 0.929 . S
C88 C89 1.426 . S
C88 C90 1.413 . S
C88 N98 1.359 . S
C89 C86 1.417 1_556 S
C89 C88 1.426 . S
C89 N94 1.350 1_556 S
C90 C87 1.437 . S
C90 C88 1.413 . S
C90 C100 1.391 . S
C91 C86 1.431 1_556 S
C91 C87 1.317 . S
C91 H102 0.930 . S
C92 C86 1.412 . S
C92 C93 1.355 . S
C92 H104 0.930 . S
C93 C92 1.355 . S
C93 C95 1.402 . S
C93 H105 0.930 . S
N94 Gd85 2.661 1_554 S
N94 C89 1.350 1_554 S
N94 C95 1.307 . S
C95 C93 1.402 . S
C95 N94 1.307 . S
C95 H96 0.930 . S
H96 C95 0.930 . S
C97 N98 1.334 . S
C97 C99 1.394 . S
C97 H101 0.930 . S
N98 Gd85 2.601 . S
N98 C88 1.359 . S
N98 C97 1.334 . S
C99 C97 1.394 . S
C99 C100 1.359 . S
C99 H111 0.930 . S
C100 C90 1.391 . S
C100 C99 1.359 . S
C100 H112 0.929 . S
H101 C97 0.930 . S
H102 C91 0.930 . S
H103 C120 0.930 . S
H104 C92 0.930 . S
H105 C93 0.930 . S
H106 C87 0.929 . S
H107 C125 0.930 . S
H108 C116 0.930 . S
H109 C117 0.930 . S
H110 C141 0.929 . S
H111 C99 0.930 . S
H112 C100 0.929 . S
H113 C142 0.930 . S
H114 C123 0.930 . S
N115 Gd84 2.661 1_556 S
N115 C119 1.350 1_556 S
N115 C120 1.307 . S
C116 H108 0.930 . S
C116 C117 1.355 . S
C116 C118 1.412 . S
C117 H109 0.930 . S
C117 C116 1.355 . S
C117 C120 1.402 . S
C118 C116 1.412 . S
C118 C119 1.417 1_556 S
C118 C142 1.431 1_556 S
C119 N115 1.350 1_554 S
C119 C118 1.417 1_554 S
C119 C122 1.426 . S
C120 H103 0.930 . S
C120 N115 1.307 . S
C120 C117 1.402 . S
N121 Gd84 2.601 . S
N121 C122 1.359 . S
N121 C125 1.334 . S
C122 C119 1.426 . S
C122 N121 1.359 . S
C122 C126 1.413 . S
C123 H114 0.930 . S
C123 C124 1.359 . S
C123 C125 1.394 . S
C124 C123 1.359 . S
C124 C126 1.391 . S
C124 H127 0.929 . S
C125 H107 0.930 . S
C125 N121 1.334 . S
C125 C123 1.394 . S
C126 C122 1.413 . S
C126 C124 1.391 . S
C126 C141 1.437 . S
H127 C124 0.929 . S
O128 Gd84 2.545 . S
O128 C143 1.258 . S
O129 Gd84 2.610 . S
O129 Gd85 2.358 1_554 S
O129 C140 1.288 . S
O130 Gd85 2.324 1_554 S
O130 C150 1.254 . S
O131 Gd84 2.429 . S
O131 C150 1.268 . S
O132 Gd84 2.545 . S
O132 C140 1.250 . S
O133 Gd84 2.412 1_556 S
O133 C143 1.252 1_556 S
O134 Gd85 2.545 . S
O134 C152 1.258 . S
O135 Gd84 2.362 . S
O135 Gd85 2.606 1_554 S
O135 C151 1.284 1_554 S
O136 Gd84 2.324 1_556 S
O136 C159 1.254 . S
O137 Gd85 2.429 . S
O137 C159 1.268 . S
O138 Gd85 2.545 . S
O138 C151 1.250 . S
O139 Gd85 2.412 1_554 S
O139 C152 1.252 1_554 S
C140 O129 1.288 . S
C140 O132 1.250 . S
C141 H110 0.929 . S
C141 C126 1.437 . S
C141 C142 1.317 . S
C142 H113 0.930 . S
C142 C118 1.431 1_554 S
C142 C141 1.317 . S
C143 Gd84 2.828 . S
C143 O128 1.258 . S
C143 O133 1.252 1_554 S
C143 C144 1.497 . S
C144 C143 1.497 . S
C144 C145 1.395 . S
C144 C146 1.380 1_554 S
C145 C144 1.395 . S
C145 C148 1.398 . S
C145 H160 0.930 . S
C146 C144 1.380 1_556 S
C146 C147 1.391 . S
C146 H161 0.930 . S
C147 C146 1.391 . S
C147 C149 1.379 1_556 S
C148 C145 1.398 . S
C148 C149 1.380 . S
C148 H162 0.930 . S
C149 C147 1.379 1_554 S
C149 C148 1.380 . S
C149 H163 0.930 . S
C150 O130 1.254 . S
C150 O131 1.268 . S
C151 O135 1.284 1_556 S
C151 O138 1.250 . S
C152 Gd85 2.828 . S
C152 O134 1.258 . S
C152 O139 1.252 1_556 S
C152 C153 1.497 . S
C153 C152 1.497 . S
C153 C154 1.395 . S
C153 C155 1.380 1_556 S
C154 C153 1.395 . S
C154 C157 1.398 . S
C154 H164 0.930 . S
C155 C153 1.380 1_554 S
C155 C156 1.391 . S
C155 H165 0.930 . S
C156 C155 1.391 . S
C156 C158 1.387 1_554 S
C157 C154 1.398 . S
C157 C158 1.380 . S
C157 H166 0.930 . S
C158 C156 1.387 1_556 S
C158 C157 1.380 . S
C158 H167 0.930 . S
C159 O136 1.254 . S
C159 O137 1.268 . S
H160 C145 0.930 . S
H161 C146 0.930 . S
H162 C148 0.930 . S
H163 C149 0.930 . S
H164 C154 0.930 . S
H165 C155 0.930 . S
H166 C157 0.930 . S
H167 C158 0.930 . S
Gd168 N199 2.661 1_554 S
Gd168 N205 2.601 . S
Gd168 O212 2.545 . S
Gd168 O213 2.610 . S
Gd168 O215 2.429 . S
Gd168 O216 2.545 . S
Gd168 O217 2.412 1_554 S
Gd168 O219 2.362 1_545 S
Gd168 O220 2.324 1_554 S
Gd168 C227 2.828 . S
Gd169 N178 2.661 1_566 S
Gd169 N182 2.601 . S
Gd169 O213 2.358 1_566 S
Gd169 O214 2.324 1_556 S
Gd169 O218 2.545 . S
Gd169 O219 2.606 1_556 S
Gd169 O221 2.430 . S
Gd169 O222 2.545 . S
Gd169 O223 2.412 1_556 S
Gd169 C236 2.828 . S
C170 C173 1.417 1_554 S
C170 C175 1.431 1_554 S
C170 C176 1.412 . S
C171 C174 1.437 . S
C171 C175 1.317 . S
C171 H190 0.929 . S
C172 C173 1.426 . S
C172 C174 1.413 . S
C172 N182 1.359 1_545 S
C173 C170 1.417 1_556 S
C173 C172 1.426 . S
C173 N178 1.350 1_556 S
C174 C171 1.437 . S
C174 C172 1.413 . S
C174 C184 1.391 . S
C175 C170 1.431 1_556 S
C175 C171 1.317 . S
C175 H186 0.930 . S
C176 C170 1.412 . S
C176 C177 1.355 . S
C176 H188 0.930 . S
C177 C176 1.355 . S
C177 C179 1.402 . S
C177 H189 0.930 . S
N178 Gd169 2.661 1_544 S
N178 C173 1.350 1_554 S
N178 C179 1.307 . S
C179 C177 1.402 . S
C179 N178 1.307 . S
C179 H180 0.930 . S
H180 C179 0.930 . S
C181 N182 1.334 . S
C181 C183 1.394 . S
C181 H185 0.930 . S
N182 Gd169 2.601 . S
N182 C172 1.359 1_565 S
N182 C181 1.334 . S
C183 C181 1.394 . S
C183 C184 1.359 1_565 S
C183 H195 0.930 . S
C184 C174 1.391 . S
C184 C183 1.359 1_545 S
C184 H196 0.929 . S
H185 C181 0.930 . S
H186 C175 0.930 . S
H187 C204 0.927 . S
H188 C176 0.930 . S
H189 C177 0.930 . S
H190 C171 0.929 . S
H191 C209 0.930 . S
H192 C200 0.930 . S
H193 C201 0.930 . S
H194 C225 0.929 . S
H195 C183 0.930 . S
H196 C184 0.929 . S
H197 C226 0.930 . S
H198 C207 0.930 . S
N199 Gd168 2.661 1_556 S
N199 C203 1.350 1_546 S
N199 C204 1.307 1_545 S
C200 H192 0.930 . S
C200 C201 1.355 . S
C200 C202 1.412 . S
C201 H193 0.930 . S
C201 C200 1.355 . S
C201 C204 1.402 . S
C202 C200 1.412 . S
C202 C203 1.417 1_556 S
C202 C226 1.431 1_556 S
C203 N199 1.350 1_564 S
C203 C202 1.417 1_554 S
C203 C206 1.426 . S
C204 H187 0.927 . S
C204 N199 1.307 1_565 S
C204 C201 1.402 . S
N205 Gd168 2.601 . S
N205 C206 1.359 1_545 S
N205 C209 1.334 . S
C206 C203 1.426 . S
C206 N205 1.359 1_565 S
C206 C210 1.413 . S
C207 H198 0.930 . S
C207 C208 1.359 1_545 S
C207 C209 1.394 . S
C208 C207 1.359 1_565 S
C208 C210 1.391 . S
C208 H211 0.929 . S
C209 H191 0.930 . S
C209 N205 1.334 . S
C209 C207 1.394 . S
C210 C206 1.413 . S
C210 C208 1.391 . S
C210 C225 1.437 . S
H211 C208 0.929 . S
O212 Gd168 2.545 . S
O212 C227 1.258 . S
O213 Gd168 2.610 . S
O213 Gd169 2.358 1_544 S
O213 C224 1.288 . S
O214 Gd169 2.324 1_554 S
O214 C234 1.254 . S
O215 Gd168 2.429 . S
O215 C234 1.268 1_545 S
O216 Gd168 2.545 . S
O216 C224 1.250 . S
O217 Gd168 2.412 1_556 S
O217 C227 1.252 1_556 S
O218 Gd169 2.545 . S
O218 C236 1.258 . S
O219 Gd168 2.362 1_565 S
O219 Gd169 2.606 1_554 S
O219 C235 1.284 1_554 S
O220 Gd168 2.324 1_556 S
O220 C243 1.254 . S
O221 Gd169 2.430 . S
O221 C243 1.266 1_565 S
O222 Gd169 2.545 . S
O222 C235 1.250 . S
O223 Gd169 2.412 1_554 S
O223 C236 1.252 1_554 S
C224 O213 1.288 . S
C224 O216 1.250 . S
C225 H194 0.929 . S
C225 C210 1.437 . S
C225 C226 1.317 . S
C226 H197 0.930 . S
C226 C202 1.431 1_554 S
C226 C225 1.317 . S
C227 Gd168 2.828 . S
C227 O212 1.258 . S
C227 O217 1.252 1_554 S
C227 C228 1.497 . S
C228 C227 1.497 . S
C228 C229 1.395 . S
C228 C230 1.380 1_554 S
C229 C228 1.395 . S
C229 C232 1.398 . S
C229 H244 0.930 . S
C230 C228 1.380 1_556 S
C230 C231 1.391 . S
C230 H245 0.930 . S
C231 C230 1.391 . S
C231 C233 1.379 1_556 S
C232 C229 1.398 . S
C232 C233 1.380 . S
C232 H246 0.930 . S
C233 C231 1.379 1_554 S
C233 C232 1.380 . S
C233 H247 0.930 . S
C234 O214 1.254 . S
C234 O215 1.268 1_565 S
C235 O219 1.284 1_556 S
C235 O222 1.250 . S
C236 Gd169 2.828 . S
C236 O218 1.258 . S
C236 O223 1.252 1_556 S
C236 C237 1.497 . S
C237 C236 1.497 . S
C237 C238 1.395 . S
C237 C239 1.380 1_556 S
C238 C237 1.395 . S
C238 C241 1.398 . S
C238 H248 0.930 . S
C239 C237 1.380 1_554 S
C239 C240 1.391 . S
C239 H249 0.930 . S
C240 C239 1.391 . S
C240 C242 1.387 1_554 S
C241 C238 1.398 . S
C241 C242 1.380 . S
C241 H250 0.930 . S
C242 C240 1.387 1_556 S
C242 C241 1.380 . S
C242 H251 0.930 . S
C243 O220 1.254 . S
C243 O221 1.266 1_545 S
H244 C229 0.930 . S
H245 C230 0.930 . S
H246 C232 0.930 . S
H247 C233 0.930 . S
H248 C238 0.930 . S
H249 C239 0.930 . S
H250 C241 0.930 . S
H251 C242 0.930 . S
Gd252 N283 2.661 . S
Gd252 N289 2.601 . S
Gd252 O296 2.545 . S
Gd252 O297 2.606 . S
Gd252 O299 2.429 . S
Gd252 O300 2.545 . S
Gd252 O301 2.412 . S
Gd252 O303 2.362 . S
Gd252 O304 2.324 . S
Gd252 C311 2.828 . S
Gd253 N262 2.661 . S
Gd253 N266 2.601 . S
Gd253 O297 2.362 . S
Gd253 O298 2.324 . S
Gd253 O302 2.545 . S
Gd253 O303 2.606 . S
Gd253 O305 2.429 . S
Gd253 O306 2.545 . S
Gd253 O307 2.412 . S
Gd253 C320 2.828 . S
C254 C257 1.417 . S
C254 C259 1.450 . S
C254 C260 1.412 . S
C255 C258 1.437 1_545 S
C255 C259 1.318 1_545 S
C255 H274 0.929 . S
C256 C257 1.426 . S
C256 C258 1.413 . S
C256 N266 1.359 . S
C257 C254 1.417 . S
C257 C256 1.426 . S
C257 N262 1.350 . S
C258 C255 1.437 1_565 S
C258 C256 1.413 . S
C258 C268 1.391 . S
C259 C254 1.450 . S
C259 C255 1.318 1_565 S
C259 H270 0.910 1_565 S
C260 C254 1.412 . S
C260 C261 1.355 . S
C260 H272 0.930 . S
C261 C260 1.355 . S
C261 C263 1.402 . S
C261 H273 0.930 . S
N262 Gd253 2.661 . S
N262 C257 1.350 . S
N262 C263 1.307 . S
C263 C261 1.402 . S
C263 N262 1.307 . S
C263 H264 0.930 . S
H264 C263 0.930 . S
C265 N266 1.334 . S
C265 C267 1.394 . S
C265 H269 0.930 . S
N266 Gd253 2.601 . S
N266 C256 1.359 . S
N266 C265 1.334 . S
C267 C265 1.394 . S
C267 C268 1.359 . S
C267 H279 0.930 . S
C268 C258 1.391 . S
C268 C267 1.359 . S
C268 H280 0.923 1_565 S
H269 C265 0.930 . S
H270 C259 0.910 1_545 S
H271 C288 0.930 . S
H272 C260 0.930 . S
H273 C261 0.930 . S
H274 C255 0.929 . S
H275 C293 0.930 . S
H276 C284 0.930 . S
H277 C285 0.930 . S
H278 C309 0.929 . S
H279 C267 0.930 . S
H280 C268 0.923 1_545 S
H281 C310 0.930 . S
H282 C291 0.930 . S
N283 Gd252 2.661 . S
N283 C287 1.350 . S
N283 C288 1.307 . S
C284 H276 0.930 . S
C284 C285 1.355 . S
C284 C286 1.412 . S
C285 H277 0.930 . S
C285 C284 1.355 . S
C285 C288 1.402 . S
C286 C284 1.412 . S
C286 C287 1.417 . S
C286 C310 1.431 . S
C287 N283 1.350 . S
C287 C286 1.417 . S
C287 C290 1.426 . S
C288 H271 0.930 . S
C288 N283 1.307 . S
C288 C285 1.402 . S
N289 Gd252 2.601 . S
N289 C290 1.359 . S
N289 C293 1.334 . S
C290 C287 1.426 . S
C290 N289 1.359 . S
C290 C294 1.413 . S
C291 H282 0.930 . S
C291 C292 1.359 . S
C291 C293 1.394 . S
C292 C291 1.359 . S
C292 C294 1.391 . S
C292 H295 0.929 . S
C293 H275 0.930 . S
C293 N289 1.334 . S
C293 C291 1.394 . S
C294 C290 1.413 . S
C294 C292 1.391 . S
C294 C309 1.437 . S
H295 C292 0.929 . S
O296 Gd252 2.545 . S
O296 C311 1.258 . S
O297 Gd252 2.606 . S
O297 Gd253 2.362 . S
O297 C308 1.284 . S
O298 Gd253 2.324 . S
O298 C318 1.254 . S
O299 Gd252 2.429 . S
O299 C318 1.268 . S
O300 Gd252 2.545 . S
O300 C308 1.250 . S
O301 Gd252 2.412 . S
O301 C311 1.252 . S
O302 Gd253 2.545 . S
O302 C320 1.258 . S
O303 Gd252 2.362 . S
O303 Gd253 2.606 . S
O303 C319 1.284 . S
O304 Gd252 2.324 . S
O304 C327 1.254 . S
O305 Gd253 2.429 . S
O305 C327 1.268 . S
O306 Gd253 2.545 . S
O306 C319 1.250 . S
O307 Gd253 2.412 . S
O307 C320 1.252 . S
C308 O297 1.284 . S
C308 O300 1.250 . S
C309 H278 0.929 . S
C309 C294 1.437 . S
C309 C310 1.317 . S
C310 H281 0.930 . S
C310 C286 1.431 . S
C310 C309 1.317 . S
C311 Gd252 2.828 . S
C311 O296 1.258 . S
C311 O301 1.252 . S
C311 C312 1.497 . S
C312 C311 1.497 . S
C312 C313 1.395 . S
C312 C314 1.380 . S
C313 C312 1.395 . S
C313 C316 1.398 . S
C313 H328 0.930 . S
C314 C312 1.380 . S
C314 C315 1.391 . S
C314 H329 0.930 . S
C315 C314 1.391 . S
C315 C317 1.387 . S
C316 C313 1.398 . S
C316 C317 1.380 . S
C316 H330 0.930 . S
C317 C315 1.387 . S
C317 C316 1.380 . S
C317 H331 0.930 . S
C318 O298 1.254 . S
C318 O299 1.268 . S
C319 O303 1.284 . S
C319 O306 1.250 . S
C320 Gd253 2.828 . S
C320 O302 1.258 . S
C320 O307 1.252 . S
C320 C321 1.497 1_565 S
C321 C320 1.497 1_545 S
C321 C322 1.395 . S
C321 C323 1.380 . S
C322 C321 1.395 . S
C322 C325 1.398 . S
C322 H332 0.930 . S
C323 C321 1.380 . S
C323 C324 1.391 . S
C323 H333 0.930 . S
C324 C323 1.391 . S
C324 C326 1.387 . S
C325 C322 1.398 . S
C325 C326 1.380 . S
C325 H334 0.930 . S
C326 C324 1.387 . S
C326 C325 1.380 . S
C326 H335 0.930 . S
C327 O304 1.254 . S
C327 O305 1.268 . S
H328 C313 0.930 . S
H329 C314 0.930 . S
H330 C316 0.930 . S
H331 C317 0.930 . S
H332 C322 0.930 . S
H333 C323 0.930 . S
H334 C325 0.930 . S
H335 C326 0.930 . S
Gd336 N367 2.661 . S
Gd336 N373 2.601 . S
Gd336 O380 2.545 . S
Gd336 O381 2.606 . S
Gd336 O383 2.429 . S
Gd336 O384 2.545 . S
Gd336 O385 2.412 . S
Gd336 O387 2.362 . S
Gd336 O388 2.324 . S
Gd336 C395 2.828 . S
Gd337 N346 2.661 . S
Gd337 N350 2.601 . S
Gd337 O381 2.362 . S
Gd337 O382 2.324 . S
Gd337 O386 2.545 . S
Gd337 O387 2.606 . S
Gd337 O389 2.429 . S
Gd337 O390 2.545 . S
Gd337 O391 2.412 . S
Gd337 C404 2.828 . S
C338 C341 1.417 . S
C338 C343 1.431 . S
C338 C344 1.412 . S
C339 C342 1.437 . S
C339 C343 1.317 . S
C339 H358 0.929 1_455 S
C340 C341 1.426 . S
C340 C342 1.413 . S
C340 N350 1.359 . S
C341 C338 1.417 . S
C341 C340 1.426 . S
C341 N346 1.350 . S
C342 C339 1.437 . S
C342 C340 1.413 . S
C342 C352 1.391 . S
C343 C338 1.431 . S
C343 C339 1.317 . S
C343 H354 0.930 1_455 S
C344 C338 1.412 . S
C344 C345 1.355 . S
C344 H356 0.930 . S
C345 C344 1.355 . S
C345 C347 1.402 . S
C345 H357 0.930 . S
N346 Gd337 2.661 . S
N346 C341 1.350 . S
N346 C347 1.307 . S
C347 C345 1.402 . S
C347 N346 1.307 . S
C347 H348 0.930 . S
H348 C347 0.930 . S
C349 N350 1.334 . S
C349 C351 1.394 . S
C349 H353 0.930 . S
N350 Gd337 2.601 . S
N350 C340 1.359 . S
N350 C349 1.334 . S
C351 C349 1.394 . S
C351 C352 1.359 . S
C351 H363 0.930 . S
C352 C342 1.391 . S
C352 C351 1.359 . S
C352 H364 0.929 . S
H353 C349 0.930 . S
H354 C343 0.930 1_655 S
H355 C372 0.930 . S
H356 C344 0.930 . S
H357 C345 0.930 . S
H358 C339 0.929 1_655 S
H359 C377 0.930 . S
H360 C368 0.930 . S
H361 C369 0.930 . S
H362 C393 0.929 . S
H363 C351 0.930 . S
H364 C352 0.929 . S
H365 C394 0.930 . S
H366 C375 0.930 . S
N367 Gd336 2.661 . S
N367 C371 1.350 1_565 S
N367 C372 1.307 . S
C368 H360 0.930 . S
C368 C369 1.355 . S
C368 C370 1.412 . S
C369 H361 0.930 . S
C369 C368 1.355 . S
C369 C372 1.402 1_545 S
C370 C368 1.412 . S
C370 C371 1.417 . S
C370 C394 1.431 . S
C371 N367 1.350 1_545 S
C371 C370 1.417 . S
C371 C374 1.426 . S
C372 H355 0.930 . S
C372 N367 1.307 . S
C372 C369 1.402 1_565 S
N373 Gd336 2.601 . S
N373 C374 1.359 1_565 S
N373 C377 1.334 . S
C374 C371 1.426 . S
C374 N373 1.359 1_545 S
C374 C378 1.413 . S
C375 H366 0.930 . S
C375 C376 1.359 . S
C375 C377 1.394 1_545 S
C376 C375 1.359 . S
C376 C378 1.391 . S
C376 H379 0.929 . S
C377 H359 0.930 . S
C377 N373 1.334 . S
C377 C375 1.394 1_565 S
C378 C374 1.413 . S
C378 C376 1.391 . S
C378 C393 1.437 . S
H379 C376 0.929 . S
O380 Gd336 2.545 . S
O380 C395 1.258 . S
O381 Gd336 2.606 . S
O381 Gd337 2.362 . S
O381 C392 1.284 . S
O382 Gd337 2.324 . S
O382 C402 1.254 . S
O383 Gd336 2.429 . S
O383 C402 1.268 . S
O384 Gd336 2.545 . S
O384 C392 1.250 . S
O385 Gd336 2.412 . S
O385 C395 1.252 . S
O386 Gd337 2.545 . S
O386 C404 1.258 . S
O387 Gd336 2.362 . S
O387 Gd337 2.606 . S
O387 C403 1.284 . S
O388 Gd336 2.324 . S
O388 C411 1.254 . S
O389 Gd337 2.429 . S
O389 C411 1.268 . S
O390 Gd337 2.545 . S
O390 C403 1.250 . S
O391 Gd337 2.412 . S
O391 C404 1.252 . S
C392 O381 1.284 . S
C392 O384 1.250 . S
C393 H362 0.929 . S
C393 C378 1.437 . S
C393 C394 1.317 . S
C394 H365 0.930 . S
C394 C370 1.431 . S
C394 C393 1.317 . S
C395 Gd336 2.828 . S
C395 O380 1.258 . S
C395 O385 1.252 . S
C395 C396 1.497 . S
C396 C395 1.497 . S
C396 C397 1.395 . S
C396 C398 1.380 . S
C397 C396 1.395 . S
C397 C400 1.398 . S
C397 H412 0.930 . S
C398 C396 1.380 . S
C398 C399 1.391 . S
C398 H413 0.930 . S
C399 C398 1.391 . S
C399 C401 1.387 . S
C400 C397 1.398 . S
C400 C401 1.380 . S
C400 H414 0.930 . S
C401 C399 1.387 . S
C401 C400 1.380 . S
C401 H415 0.930 . S
C402 O382 1.254 . S
C402 O383 1.268 . S
C403 O387 1.284 . S
C403 O390 1.250 . S
C404 Gd337 2.828 . S
C404 O386 1.258 . S
C404 O391 1.252 . S
C404 C405 1.497 1_455 S
C405 C404 1.497 1_655 S
C405 C406 1.395 . S
C405 C407 1.380 . S
C406 C405 1.395 . S
C406 C409 1.398 . S
C406 H416 0.930 . S
C407 C405 1.380 . S
C407 C408 1.391 . S
C407 H417 0.930 1_655 S
C408 C407 1.391 . S
C408 C410 1.387 . S
C409 C406 1.398 . S
C409 C410 1.380 . S
C409 H418 0.930 . S
C410 C408 1.387 . S
C410 C409 1.380 . S
C410 H419 0.930 . S
C411 O388 1.254 . S
C411 O389 1.268 . S
H412 C397 0.930 . S
H413 C398 0.930 . S
H414 C400 0.930 . S
H415 C401 0.930 . S
H416 C406 0.930 . S
H417 C407 0.930 1_455 S
H418 C409 0.930 . S
H419 C410 0.930 . S
Gd420 N451 2.661 . S
Gd420 N457 2.601 . S
Gd420 O464 2.545 . S
Gd420 O465 2.606 . S
Gd420 O467 2.429 . S
Gd420 O468 2.545 . S
Gd420 O469 2.412 . S
Gd420 O471 2.362 . S
Gd420 O472 2.324 . S
Gd420 C479 2.828 . S
Gd421 N430 2.661 . S
Gd421 N434 2.601 . S
Gd421 O465 2.362 . S
Gd421 O466 2.324 . S
Gd421 O470 2.545 . S
Gd421 O471 2.606 . S
Gd421 O473 2.429 . S
Gd421 O474 2.545 . S
Gd421 O475 2.412 . S
Gd421 C488 2.828 . S
C422 C425 1.417 . S
C422 C427 1.431 . S
C422 C428 1.412 . S
C423 C426 1.437 . S
C423 C427 1.317 . S
C423 H442 0.929 . S
C424 C425 1.426 . S
C424 C426 1.413 . S
C424 N434 1.359 . S
C425 C422 1.417 . S
C425 C424 1.426 . S
C425 N430 1.350 . S
C426 C423 1.437 . S
C426 C424 1.413 . S
C426 C436 1.391 . S
C427 C422 1.431 . S
C427 C423 1.317 . S
C427 H438 0.930 . S
C428 C422 1.412 . S
C428 C429 1.355 . S
C428 H440 0.930 . S
C429 C428 1.355 . S
C429 C431 1.402 . S
C429 H441 0.930 . S
N430 Gd421 2.661 . S
N430 C425 1.350 . S
N430 C431 1.307 . S
C431 C429 1.402 . S
C431 N430 1.307 . S
C431 H432 0.930 . S
H432 C431 0.930 . S
C433 N434 1.334 . S
C433 C435 1.394 . S
C433 H437 0.930 . S
N434 Gd421 2.601 . S
N434 C424 1.359 . S
N434 C433 1.334 . S
C435 C433 1.394 . S
C435 C436 1.359 . S
C435 H447 0.930 . S
C436 C426 1.391 . S
C436 C435 1.359 . S
C436 H448 0.929 . S
H437 C433 0.930 . S
H438 C427 0.930 . S
H439 C456 0.930 . S
H440 C428 0.930 . S
H441 C429 0.930 . S
H442 C423 0.929 . S
H443 C461 0.930 . S
H444 C452 0.930 . S
H445 C453 0.930 . S
H446 C477 0.929 . S
H447 C435 0.930 . S
H448 C436 0.929 . S
H449 C478 0.930 . S
H450 C459 0.929 1_455 S
N451 Gd420 2.661 . S
N451 C455 1.350 1_455 S
N451 C456 1.307 . S
C452 H444 0.930 . S
C452 C453 1.355 . S
C452 C454 1.412 . S
C453 H445 0.930 . S
C453 C452 1.355 . S
C453 C456 1.402 1_655 S
C454 C452 1.412 . S
C454 C455 1.417 . S
C454 C478 1.431 . S
C455 N451 1.350 1_655 S
C455 C454 1.417 . S
C455 C458 1.426 . S
C456 H439 0.930 . S
C456 N451 1.307 . S
C456 C453 1.402 1_455 S
N457 Gd420 2.601 . S
N457 C458 1.359 1_455 S
N457 C461 1.334 . S
C458 C455 1.426 . S
C458 N457 1.359 1_655 S
C458 C462 1.413 . S
C459 H450 0.929 1_655 S
C459 C460 1.380 . S
C459 C461 1.375 1_655 S
C460 C459 1.380 . S
C460 C462 1.391 . S
C460 H463 0.929 . S
C461 H443 0.930 . S
C461 N457 1.334 . S
C461 C459 1.375 1_455 S
C462 C458 1.413 . S
C462 C460 1.391 . S
C462 C477 1.437 . S
H463 C460 0.929 . S
O464 Gd420 2.545 . S
O464 C479 1.258 . S
O465 Gd420 2.606 . S
O465 Gd421 2.362 . S
O465 C476 1.284 . S
O466 Gd421 2.324 . S
O466 C486 1.254 . S
O467 Gd420 2.429 . S
O467 C486 1.268 . S
O468 Gd420 2.545 . S
O468 C476 1.250 . S
O469 Gd420 2.412 . S
O469 C479 1.252 . S
O470 Gd421 2.545 . S
O470 C488 1.258 . S
O471 Gd420 2.362 . S
O471 Gd421 2.606 . S
O471 C487 1.284 . S
O472 Gd420 2.324 . S
O472 C495 1.254 . S
O473 Gd421 2.429 . S
O473 C495 1.268 . S
O474 Gd421 2.545 . S
O474 C487 1.250 . S
O475 Gd421 2.412 . S
O475 C488 1.252 . S
C476 O465 1.284 . S
C476 O468 1.250 . S
C477 H446 0.929 . S
C477 C462 1.437 . S
C477 C478 1.317 . S
C478 H449 0.930 . S
C478 C454 1.431 . S
C478 C477 1.317 . S
C479 Gd420 2.828 . S
C479 O464 1.258 . S
C479 O469 1.252 . S
C479 C480 1.497 . S
C480 C479 1.497 . S
C480 C481 1.395 . S
C480 C482 1.380 . S
C481 C480 1.395 . S
C481 C484 1.398 . S
C481 H496 0.930 . S
C482 C480 1.380 . S
C482 C483 1.391 . S
C482 H497 0.930 . S
C483 C482 1.391 . S
C483 C485 1.387 . S
C484 C481 1.398 . S
C484 C485 1.380 . S
C484 H498 0.930 . S
C485 C483 1.387 . S
C485 C484 1.380 . S
C485 H499 0.930 . S
C486 O466 1.254 . S
C486 O467 1.268 . S
C487 O471 1.284 . S
C487 O474 1.250 . S
C488 Gd421 2.828 . S
C488 O470 1.258 . S
C488 O475 1.252 . S
C488 C489 1.497 . S
C489 C488 1.497 . S
C489 C490 1.395 . S
C489 C491 1.380 . S
C490 C489 1.395 . S
C490 C493 1.398 . S
C490 H500 0.930 . S
C491 C489 1.380 . S
C491 C492 1.391 . S
C491 H501 0.930 . S
C492 C491 1.391 . S
C492 C494 1.387 . S
C493 C490 1.398 . S
C493 C494 1.380 . S
C493 H502 0.930 . S
C494 C492 1.387 . S
C494 C493 1.380 . S
C494 H503 0.930 . S
C495 O472 1.254 . S
C495 O473 1.268 . S
H496 C481 0.930 . S
H497 C482 0.930 . S
H498 C484 0.930 . S
H499 C485 0.930 . S
H500 C490 0.930 . S
H501 C491 0.930 . S
H502 C493 0.930 . S
H503 C494 0.930 . S
Gd504 N535 2.661 . S
Gd504 N541 2.601 . S
Gd504 O548 2.545 1_545 S
Gd504 O549 2.606 . S
Gd504 O551 2.429 . S
Gd504 O552 2.545 . S
Gd504 O553 2.412 1_545 S
Gd504 O555 2.362 . S
Gd504 O556 2.324 . S
Gd504 C563 2.828 1_545 S
Gd505 N514 2.661 . S
Gd505 N518 2.601 . S
Gd505 O549 2.362 . S
Gd505 O550 2.324 . S
Gd505 O554 2.545 . S
Gd505 O555 2.606 . S
Gd505 O557 2.429 . S
Gd505 O558 2.545 . S
Gd505 O559 2.412 . S
Gd505 C572 2.828 . S
C506 C509 1.417 . S
C506 C511 1.431 . S
C506 C512 1.412 . S
C507 C510 1.437 . S
C507 C511 1.317 . S
C507 H526 0.929 . S
C508 C509 1.426 . S
C508 C510 1.413 . S
C508 N518 1.359 . S
C509 C506 1.417 . S
C509 C508 1.426 . S
C509 N514 1.350 . S
C510 C507 1.437 . S
C510 C508 1.413 . S
C510 C520 1.391 . S
C511 C506 1.431 . S
C511 C507 1.317 . S
C511 H522 0.930 . S
C512 C506 1.412 . S
C512 C513 1.355 . S
C512 H524 0.930 . S
C513 C512 1.355 . S
C513 C515 1.402 . S
C513 H525 0.930 . S
N514 Gd505 2.661 . S
N514 C509 1.350 . S
N514 C515 1.307 . S
C515 C513 1.402 . S
C515 N514 1.307 . S
C515 H516 0.930 . S
H516 C515 0.930 . S
C517 N518 1.334 . S
C517 C519 1.394 . S
C517 H521 0.930 . S
N518 Gd505 2.601 . S
N518 C508 1.359 . S
N518 C517 1.334 . S
C519 C517 1.394 . S
C519 C520 1.359 . S
C519 H531 0.930 . S
C520 C510 1.391 . S
C520 C519 1.359 . S
C520 H532 0.929 . S
H521 C517 0.930 . S
H522 C511 0.930 . S
H523 C540 0.930 . S
H524 C512 0.930 . S
H525 C513 0.930 . S
H526 C507 0.929 . S
H527 C545 0.930 . S
H528 C536 0.930 . S
H529 C537 0.930 . S
H530 C561 0.929 . S
H531 C519 0.930 . S
H532 C520 0.929 . S
H533 C562 0.930 . S
H534 C543 0.930 . S
N535 Gd504 2.661 . S
N535 C539 1.350 1_545 S
N535 C540 1.307 . S
C536 H528 0.930 . S
C536 C537 1.355 1_565 S
C536 C538 1.412 . S
C537 H529 0.930 . S
C537 C536 1.355 1_545 S
C537 C540 1.402 . S
C538 C536 1.412 . S
C538 C539 1.417 . S
C538 C562 1.431 . S
C539 N535 1.350 1_565 S
C539 C538 1.417 . S
C539 C542 1.426 . S
C540 H523 0.930 . S
C540 N535 1.307 . S
C540 C537 1.402 . S
N541 Gd504 2.601 . S
N541 C542 1.359 1_545 S
N541 C545 1.334 . S
C542 C539 1.426 . S
C542 N541 1.359 1_565 S
C542 C546 1.413 . S
C543 H534 0.930 . S
C543 C544 1.359 . S
C543 C545 1.394 1_565 S
C544 C543 1.359 . S
C544 C546 1.391 . S
C544 H547 0.929 . S
C545 H527 0.930 . S
C545 N541 1.334 . S
C545 C543 1.394 1_545 S
C546 C542 1.413 . S
C546 C544 1.391 . S
C546 C561 1.437 . S
H547 C544 0.929 . S
O548 Gd504 2.545 1_565 S
O548 C563 1.258 . S
O549 Gd504 2.606 . S
O549 Gd505 2.362 . S
O549 C560 1.284 . S
O550 Gd505 2.324 . S
O550 C570 1.254 . S
O551 Gd504 2.429 . S
O551 C570 1.268 . S
O552 Gd504 2.545 . S
O552 C560 1.250 . S
O553 Gd504 2.412 1_565 S
O553 C563 1.252 . S
O554 Gd505 2.545 . S
O554 C572 1.258 . S
O555 Gd504 2.362 . S
O555 Gd505 2.606 . S
O555 C571 1.284 . S
O556 Gd504 2.324 . S
O556 C579 1.254 . S
O557 Gd505 2.429 . S
O557 C579 1.268 . S
O558 Gd505 2.545 . S
O558 C571 1.250 . S
O559 Gd505 2.412 . S
O559 C572 1.252 . S
C560 O549 1.284 . S
C560 O552 1.250 . S
C561 H530 0.929 . S
C561 C546 1.437 . S
C561 C562 1.317 . S
C562 H533 0.930 . S
C562 C538 1.431 . S
C562 C561 1.317 . S
C563 Gd504 2.828 1_565 S
C563 O548 1.258 . S
C563 O553 1.252 . S
C563 C564 1.497 . S
C564 C563 1.497 . S
C564 C565 1.395 . S
C564 C566 1.380 . S
C565 C564 1.395 . S
C565 C568 1.398 . S
C565 H580 0.930 . S
C566 C564 1.380 . S
C566 C567 1.391 . S
C566 H581 0.930 . S
C567 C566 1.391 . S
C567 C569 1.387 . S
C568 C565 1.398 . S
C568 C569 1.380 . S
C568 H582 0.930 . S
C569 C567 1.387 . S
C569 C568 1.380 . S
C569 H583 0.930 . S
C570 O550 1.254 . S
C570 O551 1.268 . S
C571 O555 1.284 . S
C571 O558 1.250 . S
C572 Gd505 2.828 . S
C572 O554 1.258 . S
C572 O559 1.252 . S
C572 C573 1.497 . S
C573 C572 1.497 . S
C573 C574 1.395 . S
C573 C575 1.380 . S
C574 C573 1.395 . S
C574 C577 1.398 . S
C574 H584 0.930 . S
C575 C573 1.380 . S
C575 C576 1.391 . S
C575 H585 0.930 . S
C576 C575 1.391 . S
C576 C578 1.387 . S
C577 C574 1.398 . S
C577 C578 1.380 . S
C577 H586 0.930 . S
C578 C576 1.387 . S
C578 C577 1.380 . S
C578 H587 0.930 . S
C579 O556 1.254 . S
C579 O557 1.268 . S
H580 C565 0.930 . S
H581 C566 0.930 . S
H582 C568 0.930 . S
H583 C569 0.930 . S
H584 C574 0.930 . S
H585 C575 0.930 . S
H586 C577 0.930 . S
H587 C578 0.930 . S
Gd588 N619 2.661 . S
Gd588 N625 2.601 . S
Gd588 O632 2.545 1_655 S
Gd588 O633 2.606 . S
Gd588 O635 2.429 . S
Gd588 O636 2.545 . S
Gd588 O637 2.412 1_655 S
Gd588 O639 2.362 . S
Gd588 O640 2.324 . S
Gd588 C647 2.828 1_655 S
Gd589 N598 2.661 . S
Gd589 N602 2.601 . S
Gd589 O633 2.362 . S
Gd589 O634 2.324 . S
Gd589 O638 2.545 . S
Gd589 O639 2.606 . S
Gd589 O641 2.429 . S
Gd589 O642 2.545 . S
Gd589 O643 2.412 . S
Gd589 C656 2.828 . S
C590 C593 1.417 1_565 S
C590 C595 1.431 . S
C590 C596 1.412 . S
C591 C594 1.437 1_565 S
C591 C595 1.317 . S
C591 H610 0.929 . S
C592 C593 1.426 . S
C592 C594 1.413 . S
C592 N602 1.359 . S
C593 C590 1.417 1_545 S
C593 C592 1.426 . S
C593 N598 1.350 . S
C594 C591 1.437 1_545 S
C594 C592 1.413 . S
C594 C604 1.391 . S
C595 C590 1.431 . S
C595 C591 1.317 . S
C595 H606 0.930 . S
C596 C590 1.412 . S
C596 C597 1.355 1_565 S
C596 H608 0.930 . S
C597 C596 1.355 1_545 S
C597 C599 1.402 . S
C597 H609 0.930 . S
N598 Gd589 2.661 . S
N598 C593 1.350 . S
N598 C599 1.307 . S
C599 C597 1.402 . S
C599 N598 1.307 . S
C599 H600 0.930 . S
H600 C599 0.930 . S
C601 N602 1.334 . S
C601 C603 1.394 . S
C601 H605 0.930 . S
N602 Gd589 2.601 . S
N602 C592 1.359 . S
N602 C601 1.334 . S
C603 C601 1.394 . S
C603 C604 1.359 . S
C603 H615 0.930 . S
C604 C594 1.391 . S
C604 C603 1.359 . S
C604 H616 0.929 1_545 S
H605 C601 0.930 . S
H606 C595 0.930 . S
H607 C624 0.930 . S
H608 C596 0.930 . S
H609 C597 0.930 . S
H610 C591 0.929 . S
H611 C629 0.930 . S
H612 C620 0.930 . S
H613 C621 0.930 . S
H614 C645 0.929 . S
H615 C603 0.930 . S
H616 C604 0.929 1_565 S
H617 C646 0.930 . S
H618 C627 0.930 . S
N619 Gd588 2.661 . S
N619 C623 1.350 1_655 S
N619 C624 1.307 . S
C620 H612 0.930 . S
C620 C621 1.355 . S
C620 C622 1.412 . S
C621 H613 0.930 . S
C621 C620 1.355 . S
C621 C624 1.402 1_455 S
C622 C620 1.412 . S
C622 C623 1.417 . S
C622 C646 1.431 . S
C623 N619 1.350 1_455 S
C623 C622 1.417 . S
C623 C626 1.426 . S
C624 H607 0.930 . S
C624 N619 1.307 . S
C624 C621 1.402 1_655 S
N625 Gd588 2.601 . S
N625 C626 1.359 1_655 S
N625 C629 1.334 . S
C626 C623 1.426 . S
C626 N625 1.359 1_455 S
C626 C630 1.413 . S
C627 H618 0.930 . S
C627 C628 1.359 . S
C627 C629 1.394 1_455 S
C628 C627 1.359 . S
C628 C630 1.391 . S
C628 H631 0.929 . S
C629 H611 0.930 . S
C629 N625 1.334 . S
C629 C627 1.394 1_655 S
C630 C626 1.413 . S
C630 C628 1.391 . S
C630 C645 1.437 . S
H631 C628 0.929 . S
O632 Gd588 2.545 1_455 S
O632 C647 1.258 . S
O633 Gd588 2.606 . S
O633 Gd589 2.362 . S
O633 C644 1.284 . S
O634 Gd589 2.324 . S
O634 C654 1.254 . S
O635 Gd588 2.429 . S
O635 C654 1.268 . S
O636 Gd588 2.545 . S
O636 C644 1.250 . S
O637 Gd588 2.412 1_455 S
O637 C647 1.252 . S
O638 Gd589 2.545 . S
O638 C656 1.258 . S
O639 Gd588 2.362 . S
O639 Gd589 2.606 . S
O639 C655 1.284 . S
O640 Gd588 2.324 . S
O640 C663 1.254 . S
O641 Gd589 2.429 . S
O641 C663 1.268 . S
O642 Gd589 2.545 . S
O642 C655 1.250 . S
O643 Gd589 2.412 . S
O643 C656 1.252 . S
C644 O633 1.284 . S
C644 O636 1.250 . S
C645 H614 0.929 . S
C645 C630 1.437 . S
C645 C646 1.317 . S
C646 H617 0.930 . S
C646 C622 1.431 . S
C646 C645 1.317 . S
C647 Gd588 2.828 1_455 S
C647 O632 1.258 . S
C647 O637 1.252 . S
C647 C648 1.497 . S
C648 C647 1.497 . S
C648 C649 1.395 . S
C648 C650 1.380 . S
C649 C648 1.395 . S
C649 C652 1.398 . S
C649 H664 0.930 . S
C650 C648 1.380 . S
C650 C651 1.391 . S
C650 H665 0.930 . S
C651 C650 1.391 . S
C651 C653 1.387 . S
C652 C649 1.398 . S
C652 C653 1.380 . S
C652 H666 0.930 . S
C653 C651 1.387 . S
C653 C652 1.380 . S
C653 H667 0.930 . S
C654 O634 1.254 . S
C654 O635 1.268 . S
C655 O639 1.284 . S
C655 O642 1.250 . S
C656 Gd589 2.828 . S
C656 O638 1.258 . S
C656 O643 1.252 . S
C656 C657 1.497 . S
C657 C656 1.497 . S
C657 C658 1.395 . S
C657 C659 1.380 . S
C658 C657 1.395 . S
C658 C661 1.398 . S
C658 H668 0.930 . S
C659 C657 1.380 . S
C659 C660 1.391 . S
C659 H669 0.930 . S
C660 C659 1.391 . S
C660 C662 1.387 . S
C661 C658 1.398 . S
C661 C662 1.380 . S
C661 H670 0.930 . S
C662 C660 1.387 . S
C662 C661 1.380 . S
C662 H671 0.930 . S
C663 O640 1.254 . S
C663 O641 1.268 . S
H664 C649 0.930 . S
H665 C650 0.930 . S
H666 C652 0.930 . S
H667 C653 0.930 . S
H668 C658 0.930 . S
H669 C659 0.930 . S
H670 C661 0.930 . S
H671 C662 0.930 . S
Gd672 N703 2.661 . S
Gd672 N709 2.601 . S
Gd672 O716 2.545 . S
Gd672 O717 2.606 . S
Gd672 O719 2.429 . S
Gd672 O720 2.545 . S
Gd672 O721 2.412 . S
Gd672 O723 2.362 . S
Gd672 O724 2.324 . S
Gd672 C731 2.828 . S
Gd673 N682 2.661 . S
Gd673 N686 2.601 . S
Gd673 O717 2.362 . S
Gd673 O718 2.324 . S
Gd673 O722 2.545 . S
Gd673 O723 2.606 . S
Gd673 O725 2.429 . S
Gd673 O726 2.545 . S
Gd673 O727 2.412 . S
Gd673 C740 2.828 . S
C674 C677 1.417 1_455 S
C674 C679 1.431 . S
C674 C680 1.412 . S
C675 C678 1.437 . S
C675 C679 1.317 . S
C675 H694 0.929 . S
C676 C677 1.426 . S
C676 C678 1.413 1_655 S
C676 N686 1.359 . S
C677 C674 1.417 1_655 S
C677 C676 1.426 . S
C677 N682 1.350 . S
C678 C675 1.437 . S
C678 C676 1.413 1_455 S
C678 C688 1.391 1_455 S
C679 C674 1.431 . S
C679 C675 1.317 . S
C679 H690 0.930 . S
C680 C674 1.412 . S
C680 C681 1.355 1_455 S
C680 H692 0.930 . S
C681 C680 1.355 1_655 S
C681 C683 1.402 . S
C681 H693 0.930 . S
N682 Gd673 2.661 . S
N682 C677 1.350 . S
N682 C683 1.307 . S
C683 C681 1.402 . S
C683 N682 1.307 . S
C683 H684 0.930 . S
H684 C683 0.930 . S
C685 N686 1.334 . S
C685 C687 1.394 . S
C685 H689 0.930 . S
N686 Gd673 2.601 . S
N686 C676 1.359 . S
N686 C685 1.334 . S
C687 C685 1.394 . S
C687 C688 1.359 . S
C687 H699 0.930 . S
C688 C678 1.391 1_655 S
C688 C687 1.359 . S
C688 H700 0.929 1_655 S
H689 C685 0.930 . S
H690 C679 0.930 . S
H691 C708 0.930 . S
H692 C680 0.930 . S
H693 C681 0.930 . S
H694 C675 0.929 . S
H695 C713 0.930 . S
H696 C704 0.930 . S
H697 C705 0.930 . S
H698 C729 0.929 . S
H699 C687 0.930 . S
H700 C688 0.929 1_455 S
H701 C730 0.930 . S
H702 C711 0.930 . S
N703 Gd672 2.661 . S
N703 C707 1.350 . S
N703 C708 1.307 . S
C704 H696 0.930 . S
C704 C705 1.355 . S
C704 C706 1.412 . S
C705 H697 0.930 . S
C705 C704 1.355 . S
C705 C708 1.402 . S
C706 C704 1.412 . S
C706 C707 1.417 . S
C706 C730 1.431 . S
C707 N703 1.350 . S
C707 C706 1.417 . S
C707 C710 1.426 . S
C708 H691 0.930 . S
C708 N703 1.307 . S
C708 C705 1.402 . S
N709 Gd672 2.601 . S
N709 C710 1.359 . S
N709 C713 1.334 . S
C710 C707 1.426 . S
C710 N709 1.359 . S
C710 C714 1.413 . S
C711 H702 0.930 . S
C711 C712 1.359 . S
C711 C713 1.394 . S
C712 C711 1.359 . S
C712 C714 1.391 . S
C712 H715 0.929 . S
C713 H695 0.930 . S
C713 N709 1.334 . S
C713 C711 1.394 . S
C714 C710 1.413 . S
C714 C712 1.391 . S
C714 C729 1.437 . S
H715 C712 0.929 . S
O716 Gd672 2.545 . S
O716 C731 1.258 . S
O717 Gd672 2.606 . S
O717 Gd673 2.362 . S
O717 C728 1.284 . S
O718 Gd673 2.324 . S
O718 C738 1.254 . S
O719 Gd672 2.429 . S
O719 C738 1.268 . S
O720 Gd672 2.545 . S
O720 C728 1.250 . S
O721 Gd672 2.412 . S
O721 C731 1.252 . S
O722 Gd673 2.545 . S
O722 C740 1.258 . S
O723 Gd672 2.362 . S
O723 Gd673 2.606 . S
O723 C739 1.284 . S
O724 Gd672 2.324 . S
O724 C747 1.254 . S
O725 Gd673 2.429 . S
O725 C747 1.268 . S
O726 Gd673 2.545 . S
O726 C739 1.250 . S
O727 Gd673 2.412 . S
O727 C740 1.252 . S
C728 O717 1.284 . S
C728 O720 1.250 . S
C729 H698 0.929 . S
C729 C714 1.437 . S
C729 C730 1.317 . S
C730 H701 0.930 . S
C730 C706 1.431 . S
C730 C729 1.317 . S
C731 Gd672 2.828 . S
C731 O716 1.258 . S
C731 O721 1.252 . S
C731 C732 1.497 . S
C732 C731 1.497 . S
C732 C733 1.395 . S
C732 C734 1.380 . S
C733 C732 1.395 . S
C733 C736 1.398 . S
C733 H748 0.930 . S
C734 C732 1.380 . S
C734 C735 1.391 . S
C734 H749 0.930 . S
C735 C734 1.391 . S
C735 C737 1.387 . S
C736 C733 1.398 . S
C736 C737 1.380 . S
C736 H750 0.930 . S
C737 C735 1.387 . S
C737 C736 1.380 . S
C737 H751 0.930 . S
C738 O718 1.254 . S
C738 O719 1.268 . S
C739 O723 1.284 . S
C739 O726 1.250 . S
C740 Gd673 2.828 . S
C740 O722 1.258 . S
C740 O727 1.252 . S
C740 C741 1.497 . S
C741 C740 1.497 . S
C741 C742 1.395 . S
C741 C743 1.380 . S
C742 C741 1.395 . S
C742 C745 1.398 . S
C742 H752 0.930 . S
C743 C741 1.380 . S
C743 C744 1.391 . S
C743 H753 0.930 . S
C744 C743 1.391 . S
C744 C746 1.387 . S
C745 C742 1.398 . S
C745 C746 1.380 . S
C745 H754 0.930 . S
C746 C744 1.387 . S
C746 C745 1.380 . S
C746 H755 0.930 . S
C747 O724 1.254 . S
C747 O725 1.268 . S
H748 C733 0.930 . S
H749 C734 0.930 . S
H750 C736 0.930 . S
H751 C737 0.930 . S
H752 C742 0.930 . S
H753 C743 0.930 . S
H754 C745 0.930 . S
H755 C746 0.930 . S
C756 C757 1.369 1_556 S
C756 C758 1.419 . S
C756 H760 0.930 . S
C757 C756 1.369 1_554 S
C757 C766 1.429 . S
C758 C756 1.419 . S
C758 C759 1.363 1_556 S
C758 H761 0.929 . S
C759 C758 1.363 1_554 S
C759 C765 1.428 . S
H760 C756 0.930 . S
H761 C758 0.929 . S
S762 N763 1.613 . S
S762 N764 1.610 . S
N763 S762 1.613 . S
N763 C766 1.350 . S
N764 S762 1.610 . S
N764 C765 1.351 . S
C765 C759 1.428 . S
C765 N764 1.351 . S
C765 C766 1.434 . S
C766 C757 1.429 . S
C766 N763 1.350 . S
C766 C765 1.434 . S
C767 C768 1.369 . S
C767 C769 1.419 . S
C767 H771 0.930 . S
C768 C767 1.369 . S
C768 C777 1.429 1_554 S
C769 C767 1.419 . S
C769 C770 1.363 . S
C769 H772 0.929 . S
C770 C769 1.363 . S
C770 C776 1.428 1_554 S
H771 C767 0.930 . S
H772 C769 0.929 . S
S773 N774 1.613 . S
S773 N775 1.610 . S
N774 S773 1.613 . S
N774 C777 1.350 . S
N775 S773 1.610 . S
N775 C776 1.351 . S
C776 C770 1.428 1_556 S
C776 N775 1.351 . S
C776 C777 1.434 . S
C777 C768 1.429 1_556 S
C777 N774 1.350 . S
C777 C776 1.434 . S
C778 C779 1.369 . S
C778 C780 1.419 . S
C778 H782 0.930 . S
C779 C778 1.369 . S
C779 C788 1.429 1_554 S
C780 C778 1.419 . S
C780 C781 1.363 . S
C780 H783 0.929 . S
C781 C780 1.363 . S
C781 C787 1.428 1_554 S
H782 C778 0.930 . S
H783 C780 0.929 . S
S784 N785 1.613 . S
S784 N786 1.610 . S
N785 S784 1.613 . S
N785 C788 1.350 . S
N786 S784 1.610 . S
N786 C787 1.351 . S
C787 C781 1.428 1_556 S
C787 N786 1.351 . S
C787 C788 1.434 . S
C788 C779 1.429 1_556 S
C788 N785 1.350 . S
C788 C787 1.434 . S
C789 C790 1.369 . S
C789 C791 1.419 1_556 S
C789 H793 0.930 . S
C790 C789 1.369 . S
C790 C799 1.429 . S
C791 C789 1.419 1_554 S
C791 C792 1.363 . S
C791 H794 0.929 . S
C792 C791 1.363 . S
C792 C798 1.428 1_554 S
H793 C789 0.930 . S
H794 C791 0.929 . S
S795 N796 1.613 . S
S795 N797 1.610 . S
N796 S795 1.613 . S
N796 C799 1.350 . S
N797 S795 1.610 . S
N797 C798 1.351 . S
C798 C792 1.428 1_556 S
C798 N797 1.351 . S
C798 C799 1.434 . S
C799 C790 1.429 . S
C799 N796 1.350 . S
C799 C798 1.434 . S
C800 C801 1.369 1_554 S
C800 C802 1.419 . S
C800 H804 0.930 . S
C801 C800 1.369 1_556 S
C801 C810 1.429 . S
C802 C800 1.419 . S
C802 C803 1.363 1_554 S
C802 H805 0.929 . S
C803 C802 1.363 1_556 S
C803 C809 1.428 . S
H804 C800 0.930 . S
H805 C802 0.929 . S
S806 N807 1.613 . S
S806 N808 1.610 . S
N807 S806 1.613 . S
N807 C810 1.350 . S
N808 S806 1.610 . S
N808 C809 1.351 . S
C809 C803 1.428 . S
C809 N808 1.351 . S
C809 C810 1.434 . S
C810 C801 1.429 . S
C810 N807 1.350 . S
C810 C809 1.434 . S
C811 C812 1.370 . S
C811 C813 1.419 . S
C811 H815 0.930 . S
C812 C811 1.370 . S
C812 C821 1.427 1_554 S
C813 C811 1.419 . S
C813 C814 1.363 1_554 S
C813 H816 0.929 . S
C814 C813 1.363 1_556 S
C814 C820 1.428 . S
H815 C811 0.930 . S
H816 C813 0.929 . S
S817 N818 1.613 . S
S817 N819 1.610 . S
N818 S817 1.613 . S
N818 C821 1.350 . S
N819 S817 1.610 . S
N819 C820 1.351 . S
C820 C814 1.428 . S
C820 N819 1.351 . S
C820 C821 1.434 . S
C821 C812 1.427 1_556 S
C821 N818 1.350 . S
C821 C820 1.434 . S
C822 C823 1.369 . S
C822 C824 1.419 . S
C822 H826 0.930 . S
C823 C822 1.369 . S
C823 C832 1.429 . S
C824 C822 1.419 . S
C824 C825 1.363 . S
C824 H827 0.929 . S
C825 C824 1.363 . S
C825 C831 1.428 . S
H826 C822 0.930 . S
H827 C824 0.929 . S
S828 N829 1.613 . S
S828 N830 1.610 . S
N829 S828 1.613 . S
N829 C832 1.350 . S
N830 S828 1.610 . S
N830 C831 1.351 . S
C831 C825 1.428 . S
C831 N830 1.351 . S
C831 C832 1.434 . S
C832 C823 1.429 . S
C832 N829 1.350 . S
C832 C831 1.434 . S
C833 C834 1.369 . S
C833 C835 1.419 1_545 S
C833 H837 0.930 . S
C834 C833 1.369 . S
C834 C843 1.429 . S
C835 C833 1.419 1_565 S
C835 C836 1.363 . S
C835 H838 0.929 . S
C836 C835 1.363 . S
C836 C842 1.428 1_565 S
H837 C833 0.930 . S
H838 C835 0.929 . S
S839 N840 1.613 . S
S839 N841 1.610 . S
N840 S839 1.613 . S
N840 C843 1.350 . S
N841 S839 1.610 . S
N841 C842 1.351 . S
C842 C836 1.428 1_545 S
C842 N841 1.351 . S
C842 C843 1.434 . S
C843 C834 1.429 . S
C843 N840 1.350 . S
C843 C842 1.434 . S
C844 C845 1.369 . S
C844 C846 1.419 1_455 S
C844 H848 0.930 . S
C845 C844 1.369 . S
C845 C854 1.429 1_455 S
C846 C844 1.419 1_655 S
C846 C847 1.363 . S
C846 H849 0.920 1_655 S
C847 C846 1.363 . S
C847 C853 1.428 . S
H848 C844 0.930 . S
H849 C846 0.920 1_455 S
S850 N851 1.613 . S
S850 N852 1.610 . S
N851 S850 1.613 . S
N851 C854 1.350 . S
N852 S850 1.610 . S
N852 C853 1.351 . S
C853 C847 1.428 . S
C853 N852 1.351 . S
C853 C854 1.434 . S
C854 C845 1.429 1_655 S
C854 N851 1.350 . S
C854 C853 1.434 . S
C855 C856 1.369 . S
C855 C857 1.419 . S
C855 H859 0.930 . S
C856 C855 1.369 . S
C856 C865 1.429 . S
C857 C855 1.419 . S
C857 C858 1.363 . S
C857 H860 0.929 . S
C858 C857 1.363 . S
C858 C864 1.428 . S
H859 C855 0.930 . S
H860 C857 0.929 . S
S861 N862 1.613 . S
S861 N863 1.610 . S
N862 S861 1.613 . S
N862 C865 1.350 . S
N863 S861 1.610 . S
N863 C864 1.351 . S
C864 C858 1.428 . S
C864 N863 1.351 . S
C864 C865 1.434 . S
C865 C856 1.429 . S
C865 N862 1.350 . S
C865 C864 1.434 . S
C866 C867 1.369 . S
C866 C868 1.419 . S
C866 H870 0.930 . S
C867 C866 1.369 . S
C867 C876 1.429 . S
C868 C866 1.419 . S
C868 C869 1.363 . S
C868 H871 0.929 . S
C869 C868 1.363 . S
C869 C875 1.428 . S
H870 C866 0.930 . S
H871 C868 0.929 . S
S872 N873 1.613 . S
S872 N874 1.610 . S
N873 S872 1.613 . S
N873 C876 1.350 . S
N874 S872 1.610 . S
N874 C875 1.351 . S
C875 C869 1.428 . S
C875 N874 1.351 . S
C875 C876 1.434 . S
C876 C867 1.429 . S
C876 N873 1.350 . S
C876 C875 1.434 . S
C877 C878 1.369 . S
C877 C879 1.419 . S
C877 H881 0.930 . S
C878 C877 1.369 . S
C878 C887 1.429 . S
C879 C877 1.419 . S
C879 C880 1.363 . S
C879 H882 0.929 . S
C880 C879 1.363 . S
C880 C886 1.428 . S
H881 C877 0.930 . S
H882 C879 0.929 . S
S883 N884 1.613 . S
S883 N885 1.610 . S
N884 S883 1.613 . S
N884 C887 1.350 . S
N885 S883 1.610 . S
N885 C886 1.351 . S
C886 C880 1.428 . S
C886 N885 1.351 . S
C886 C887 1.434 . S
C887 C878 1.429 . S
C887 N884 1.350 . S
C887 C886 1.434 . S
C888 C889 1.369 . S
C888 C890 1.419 . S
C888 H892 0.930 . S
C889 C888 1.369 . S
C889 C898 1.429 . S
C890 C888 1.419 . S
C890 C891 1.363 . S
C890 H893 0.929 . S
C891 C890 1.363 . S
C891 C897 1.428 . S
H892 C888 0.930 . S
H893 C890 0.929 . S
S894 N895 1.613 . S
S894 N896 1.610 . S
N895 S894 1.613 . S
N895 C898 1.350 . S
N896 S894 1.610 . S
N896 C897 1.351 . S
C897 C891 1.428 . S
C897 N896 1.351 . S
C897 C898 1.434 . S
C898 C889 1.429 . S
C898 N895 1.350 . S
C898 C897 1.434 . S
C899 C900 1.369 . S
C899 C901 1.419 . S
C899 H903 0.930 . S
C900 C899 1.369 . S
C900 C909 1.429 . S
C901 C899 1.419 . S
C901 C902 1.363 . S
C901 H904 0.929 . S
C902 C901 1.363 . S
C902 C908 1.428 . S
H903 C899 0.930 . S
H904 C901 0.929 . S
S905 N906 1.613 . S
S905 N907 1.610 . S
N906 S905 1.613 . S
N906 C909 1.350 . S
N907 S905 1.610 . S
N907 C908 1.351 . S
C908 C902 1.428 . S
C908 N907 1.351 . S
C908 C909 1.434 . S
C909 C900 1.429 . S
C909 N906 1.350 . S
C909 C908 1.434 . S
C910 C911 1.369 . S
C910 C912 1.419 . S
C910 H914 0.930 . S
C911 C910 1.369 . S
C911 C920 1.429 . S
C912 C910 1.419 . S
C912 C913 1.363 . S
C912 H915 0.929 . S
C913 C912 1.363 . S
C913 C919 1.428 . S
H914 C910 0.930 . S
H915 C912 0.929 . S
S916 N917 1.613 . S
S916 N918 1.610 . S
N917 S916 1.613 . S
N917 C920 1.350 . S
N918 S916 1.610 . S
N918 C919 1.351 . S
C919 C913 1.428 . S
C919 N918 1.351 . S
C919 C920 1.434 . S
C920 C911 1.429 . S
C920 N917 1.350 . S
C920 C919 1.434 . S
C921 C922 1.369 . S
C921 C923 1.419 1_565 S
C921 H925 0.930 . S
C922 C921 1.369 . S
C922 C931 1.429 . S
C923 C921 1.419 1_545 S
C923 C924 1.363 . S
C923 H926 0.929 . S
C924 C923 1.363 . S
C924 C930 1.428 . S
H925 C921 0.930 . S
H926 C923 0.929 . S
S927 N928 1.613 1_545 S
S927 N929 1.610 . S
N928 S927 1.613 1_565 S
N928 C931 1.350 . S
N929 S927 1.610 . S
N929 C930 1.351 . S
C930 C924 1.428 . S
C930 N929 1.351 . S
C930 C931 1.434 1_545 S
C931 C922 1.429 . S
C931 N928 1.350 . S
C931 C930 1.434 1_565 S
C932 C933 1.369 . S
C932 C934 1.419 1_655 S
C932 H936 0.930 . S
C933 C932 1.369 . S
C933 C942 1.429 . S
C934 C932 1.419 1_455 S
C934 C935 1.363 . S
C934 H937 0.929 . S
C935 C934 1.363 . S
C935 C941 1.428 . S
H936 C932 0.930 . S
H937 C934 0.929 . S
S938 N939 1.613 . S
S938 N940 1.610 1_655 S
N939 S938 1.613 . S
N939 C942 1.350 . S
N940 S938 1.610 1_455 S
N940 C941 1.351 . S
C941 C935 1.428 . S
C941 N940 1.351 . S
C941 C942 1.434 1_455 S
C942 C933 1.429 . S
C942 N939 1.350 . S
C942 C941 1.434 1_655 S
C943 C944 1.369 . S
C943 C945 1.419 . S
C943 H947 0.930 . S
C944 C943 1.369 . S
C944 C953 1.429 . S
C945 C943 1.419 . S
C945 C946 1.363 . S
C945 H948 0.929 . S
C946 C945 1.363 . S
C946 C952 1.428 . S
H947 C943 0.930 . S
H948 C945 0.929 . S
S949 N950 1.613 . S
S949 N951 1.610 . S
N950 S949 1.613 . S
N950 C953 1.350 . S
N951 S949 1.610 . S
N951 C952 1.351 . S
C952 C946 1.428 . S
C952 N951 1.351 . S
C952 C953 1.434 . S
C953 C944 1.429 . S
C953 N950 1.350 . S
C953 C952 1.434 . S
C954 C955 1.369 . S
C954 C956 1.419 . S
C954 H958 0.930 . S
C955 C954 1.369 . S
C955 C964 1.429 . S
C956 C954 1.419 . S
C956 C957 1.363 . S
C956 H959 0.929 . S
C957 C956 1.363 . S
C957 C963 1.428 . S
H958 C954 0.930 . S
H959 C956 0.929 . S
S960 N961 1.613 . S
S960 N962 1.610 . S
N961 S960 1.613 . S
N961 C964 1.350 . S
N962 S960 1.610 . S
N962 C963 1.351 . S
C963 C957 1.428 . S
C963 N962 1.351 . S
C963 C964 1.434 . S
C964 C955 1.429 . S
C964 N961 1.350 . S
C964 C963 1.434 . S
C965 C966 1.369 . S
C965 C967 1.419 . S
C965 H969 0.930 . S
C966 C965 1.369 . S
C966 C975 1.429 . S
C967 C965 1.419 . S
C967 C968 1.363 . S
C967 H970 0.929 . S
C968 C967 1.363 . S
C968 C974 1.428 . S
H969 C965 0.930 . S
H970 C967 0.929 . S
S971 N972 1.613 . S
S971 N973 1.610 . S
N972 S971 1.613 . S
N972 C975 1.350 . S
N973 S971 1.610 . S
N973 C974 1.351 . S
C974 C968 1.428 . S
C974 N973 1.351 . S
C974 C975 1.434 . S
C975 C966 1.429 . S
C975 N972 1.350 . S
C975 C974 1.434 . S
C976 C977 1.369 . S
C976 C978 1.419 . S
C976 H980 0.930 . S
C977 C976 1.369 . S
C977 C986 1.429 . S
C978 C976 1.419 . S
C978 C979 1.363 . S
C978 H981 0.929 . S
C979 C978 1.363 . S
C979 C985 1.428 . S
H980 C976 0.930 . S
H981 C978 0.929 . S
S982 N983 1.613 . S
S982 N984 1.610 . S
N983 S982 1.613 . S
N983 C986 1.350 . S
N984 S982 1.610 . S
N984 C985 1.351 . S
C985 C979 1.428 . S
C985 N984 1.351 . S
C985 C986 1.434 . S
C986 C977 1.429 . S
C986 N983 1.350 . S
C986 C985 1.434 . S
C987 C988 1.369 . S
C987 C989 1.419 . S
C987 H991 0.930 . S
C988 C987 1.369 . S
C988 C997 1.429 . S
C989 C987 1.419 . S
C989 C990 1.363 . S
C989 H992 0.929 . S
C990 C989 1.363 . S
C990 C996 1.428 . S
H991 C987 0.930 . S
H992 C989 0.929 . S
S993 N994 1.613 . S
S993 N995 1.610 . S
N994 S993 1.613 . S
N994 C997 1.350 . S
N995 S993 1.610 . S
N995 C996 1.351 . S
C996 C990 1.428 . S
C996 N995 1.351 . S
C996 C997 1.434 . S
C997 C988 1.429 . S
C997 N994 1.350 . S
C997 C996 1.434 . S
C998 C999 1.369 . S
C998 C1000 1.419 . S
C998 H1002 0.930 . S
C999 C998 1.369 . S
C999 C1008 1.429 . S
C1000 C998 1.419 . S
C1000 C1001 1.363 . S
C1000 H1003 0.929 . S
C1001 C1000 1.363 . S
C1001 C1007 1.428 . S
H1002 C998 0.930 . S
H1003 C1000 0.929 . S
S1004 N1005 1.613 . S
S1004 N1006 1.610 . S
N1005 S1004 1.613 . S
N1005 C1008 1.350 . S
N1006 S1004 1.610 . S
N1006 C1007 1.351 . S
C1007 C1001 1.428 . S
C1007 N1006 1.351 . S
C1007 C1008 1.434 . S
C1008 C999 1.429 . S
C1008 N1005 1.350 . S
C1008 C1007 1.434 . S
C1009 C1010 1.369 . S
C1009 C1011 1.419 . S
C1009 H1013 0.930 . S
C1010 C1009 1.369 . S
C1010 C1019 1.429 . S
C1011 C1009 1.419 . S
C1011 C1012 1.363 . S
C1011 H1014 0.929 . S
C1012 C1011 1.363 . S
C1012 C1018 1.428 . S
H1013 C1009 0.930 . S
H1014 C1011 0.929 . S
S1015 N1016 1.613 . S
S1015 N1017 1.610 . S
N1016 S1015 1.613 . S
N1016 C1019 1.350 . S
N1017 S1015 1.610 . S
N1017 C1018 1.351 . S
C1018 C1012 1.428 . S
C1018 N1017 1.351 . S
C1018 C1019 1.434 . S
C1019 C1010 1.429 . S
C1019 N1016 1.350 . S
C1019 C1018 1.434 . S
C1020 C1021 1.369 . S
C1020 C1022 1.419 . S
C1020 H1024 0.930 . S
C1021 C1020 1.369 . S
C1021 C1030 1.429 . S
C1022 C1020 1.419 . S
C1022 C1023 1.363 . S
C1022 H1025 0.929 . S
C1023 C1022 1.363 . S
C1023 C1029 1.428 . S
H1024 C1020 0.930 . S
H1025 C1022 0.929 . S
S1026 N1027 1.613 . S
S1026 N1028 1.610 . S
N1027 S1026 1.613 . S
N1027 C1030 1.350 . S
N1028 S1026 1.610 . S
N1028 C1029 1.351 . S
C1029 C1023 1.428 . S
C1029 N1028 1.351 . S
C1029 C1030 1.434 . S
C1030 C1021 1.429 . S
C1030 N1027 1.350 . S
C1030 C1029 1.434 . S
C1031 C1032 1.369 . S
C1031 C1033 1.419 1_565 S
C1031 H1035 0.930 . S
C1032 C1031 1.369 . S
C1032 C1041 1.429 . S
C1033 C1031 1.419 1_545 S
C1033 C1034 1.363 . S
C1033 H1036 0.929 . S
C1034 C1033 1.363 . S
C1034 C1040 1.428 . S
H1035 C1031 0.930 . S
H1036 C1033 0.929 . S
S1037 N1038 1.613 1_545 S
S1037 N1039 1.610 . S
N1038 S1037 1.613 1_565 S
N1038 C1041 1.350 . S
N1039 S1037 1.610 . S
N1039 C1040 1.351 . S
C1040 C1034 1.428 . S
C1040 N1039 1.351 . S
C1040 C1041 1.434 1_545 S
C1041 C1032 1.429 . S
C1041 N1038 1.350 . S
C1041 C1040 1.434 1_565 S
C1042 C1043 1.369 1_455 S
C1042 C1044 1.419 . S
C1042 H1046 0.930 1_455 S
C1043 C1042 1.369 1_655 S
C1043 C1052 1.429 . S
C1044 C1042 1.419 . S
C1044 C1045 1.363 . S
C1044 H1047 0.929 . S
C1045 C1044 1.363 . S
C1045 C1051 1.428 . S
H1046 C1042 0.930 1_655 S
H1047 C1044 0.929 . S
S1048 N1049 1.613 . S
S1048 N1050 1.610 1_655 S
N1049 S1048 1.613 . S
N1049 C1052 1.350 . S
N1050 S1048 1.610 1_455 S
N1050 C1051 1.351 . S
C1051 C1045 1.428 . S
C1051 N1050 1.351 . S
C1051 C1052 1.434 1_455 S
C1052 C1043 1.429 . S
C1052 N1049 1.350 . S
C1052 C1051 1.434 1_655 S
C757 C156 1.171 . S
C759 C67 1.380 1_554 S
C768 C240 1.181 . S
C770 C151 1.369 1_554 S
C779 C235 1.370 1_554 S
C781 C72 1.174 . S
C790 C231 1.268 . S
C792 C140 1.448 . S
C801 C224 1.448 1_556 S
C803 C63 1.271 . S
C812 C56 1.449 . S
C814 C147 1.267 . S
C823 C319 1.366 . S
C825 C408 1.182 . S
C834 C492 1.173 . S
C836 C403 1.380 . S
C845 C487 1.378 . S
C847 C324 1.181 . S
C856 C392 1.447 . S
C858 C483 1.269 . S
C867 C476 1.447 . S
C869 C315 1.256 . S
C878 C399 1.255 . S
C880 C308 1.447 . S
C889 C660 1.182 . S
C891 C571 1.368 . S
C900 C655 1.379 . S
C902 C744 1.179 . S
C911 C739 1.371 . S
C913 C576 1.173 . S
C922 C735 1.267 . S
C924 C644 1.448 . S
C933 C728 1.446 . S
C935 C567 1.263 . S
C944 C560 1.446 . S
C946 C651 1.265 . S
C955 C495 2.580 . S
C957 C66 2.648 . S
C966 C327 2.576 . S
C968 C150 2.649 . S
C977 C234 2.650 . S
C979 C411 2.577 . S
C988 C243 2.573 . S
C990 C570 2.647 . S
C999 C75 2.580 . S
C1001 C654 2.646 . S
C1010 C738 2.647 . S
C1012 C159 2.574 . S
C1021 C318 2.647 . S
C1023 C747 2.574 . S
C1032 C402 2.647 . S
C1034 C579 2.580 . S
C1043 C663 2.577 . S
C1045 C486 2.644 . S
