# Generated by pormake.
# Topology umb, (4)-cn, num edge types: 1
# Building blocks:
#     Node 0, Type 0, BuildingBlock: QUQFOY_clean_sbu_1, # of connection points: 4
#     Node 1, Type 0, BuildingBlock: QUQFOY_clean_sbu_1, # of connection points: 4
#     Node 2, Type 0, BuildingBlock: QUQFOY_clean_sbu_1, # of connection points: 4
#     Node 3, Type 0, BuildingBlock: QUQFOY_clean_sbu_1, # of connection points: 4
#     Node 4, Type 0, BuildingBlock: QUQFOY_clean_sbu_1, # of connection points: 4
#     Node 5, Type 0, BuildingBlock: QUQFOY_clean_sbu_1, # of connection points: 4
#     Node 6, Type 0, BuildingBlock: QUQFOY_clean_sbu_1, # of connection points: 4
#     Node 7, Type 0, BuildingBlock: QUQFOY_clean_sbu_1, # of connection points: 4
#     Node 8, Type 0, BuildingBlock: QUQFOY_clean_sbu_1, # of connection points: 4
#     Node 9, Type 0, BuildingBlock: QUQFOY_clean_sbu_1, # of connection points: 4
#     Node 10, Type 0, BuildingBlock: QUQFOY_clean_sbu_1, # of connection points: 4
#     Node 11, Type 0, BuildingBlock: QUQFOY_clean_sbu_1, # of connection points: 4
#     Edge 12, Type (0, 0), BuildingBlock: TEMPAE_clean_linker_10, # of connection points: 2
#     Edge 13, Type (0, 0), BuildingBlock: TEMPAE_clean_linker_10, # of connection points: 2
#     Edge 14, Type (0, 0), BuildingBlock: TEMPAE_clean_linker_10, # of connection points: 2
#     Edge 15, Type (0, 0), BuildingBlock: TEMPAE_clean_linker_10, # of connection points: 2
#     Edge 16, Type (0, 0), BuildingBlock: TEMPAE_clean_linker_10, # of connection points: 2
#     Edge 17, Type (0, 0), BuildingBlock: TEMPAE_clean_linker_10, # of connection points: 2
#     Edge 18, Type (0, 0), BuildingBlock: TEMPAE_clean_linker_10, # of connection points: 2
#     Edge 19, Type (0, 0), BuildingBlock: TEMPAE_clean_linker_10, # of connection points: 2
#     Edge 20, Type (0, 0), BuildingBlock: TEMPAE_clean_linker_10, # of connection points: 2
#     Edge 21, Type (0, 0), BuildingBlock: TEMPAE_clean_linker_10, # of connection points: 2
#     Edge 22, Type (0, 0), BuildingBlock: TEMPAE_clean_linker_10, # of connection points: 2
#     Edge 23, Type (0, 0), BuildingBlock: TEMPAE_clean_linker_10, # of connection points: 2
#     Edge 24, Type (0, 0), BuildingBlock: TEMPAE_clean_linker_10, # of connection points: 2
#     Edge 25, Type (0, 0), BuildingBlock: TEMPAE_clean_linker_10, # of connection points: 2
#     Edge 26, Type (0, 0), BuildingBlock: TEMPAE_clean_linker_10, # of connection points: 2
#     Edge 27, Type (0, 0), BuildingBlock: TEMPAE_clean_linker_10, # of connection points: 2
#     Edge 28, Type (0, 0), BuildingBlock: TEMPAE_clean_linker_10, # of connection points: 2
#     Edge 29, Type (0, 0), BuildingBlock: TEMPAE_clean_linker_10, # of connection points: 2
#     Edge 30, Type (0, 0), BuildingBlock: TEMPAE_clean_linker_10, # of connection points: 2
#     Edge 31, Type (0, 0), BuildingBlock: TEMPAE_clean_linker_10, # of connection points: 2
#     Edge 32, Type (0, 0), BuildingBlock: TEMPAE_clean_linker_10, # of connection points: 2
#     Edge 33, Type (0, 0), BuildingBlock: TEMPAE_clean_linker_10, # of connection points: 2
#     Edge 34, Type (0, 0), BuildingBlock: TEMPAE_clean_linker_10, # of connection points: 2
#     Edge 35, Type (0, 0), BuildingBlock: TEMPAE_clean_linker_10, # of connection points: 2
# Relax obj value: 0.093
# Max RMSD: 0.160
# Mean RMSD: 0.160
data_MOF--net-umb--node1-QUQFOY_clean_sbu_1--edge1-TEMPAE_clean_linker_10
_symmetry_space_group_name_H-M    P1
_symmetry_Int_Tables_number       1
_symmetry_cell_setting            triclinic
loop_
_symmetry_equiv_pos_as_xyz
'x, y, z'
_cell_length_a     52.144662
_cell_length_b     52.138321
_cell_length_c     40.092963
_cell_angle_alpha  90.003297
_cell_angle_beta   89.999263
_cell_angle_gamma 119.98957
loop_
_atom_site_label
_atom_site_type_symbol
_atom_site_fract_x
_atom_site_fract_y
_atom_site_fract_z
_atom_type_partial_charge
O0 O 0.57687 0.15837 0.3903 0.0
Cd1 Cd 0.58129 0.14637 0.34271 0.0
Cd2 Cd 0.58729 0.20196 0.33059 0.0
O3 O 0.57672 0.20007 0.38125 0.0
O4 O 0.57194 0.10499 0.34963 0.0
O5 O 0.54675 0.11696 0.31491 0.0
C6 C 0.55093 0.09679 0.32822 0.0
C7 C 0.57015 0.22146 0.28884 0.0
C8 C 0.57536 0.18044 0.40131 0.0
C9 C 0.63963 0.19207 0.31852 0.0
O10 O 0.62927 0.20953 0.32013 0.0
O11 O 0.62357 0.16489 0.32545 0.0
O12 O 0.58853 0.23805 0.31148 0.0
O13 O 0.55966 0.19323 0.29128 0.0
O14 O 0.44026 0.58277 0.73762 0.0
Cd15 Cd 0.45951 0.59156 0.69125 0.0
Cd16 Cd 0.4063 0.59267 0.67677 0.0
O17 O 0.39775 0.58089 0.72711 0.0
O18 O 0.49325 0.58479 0.69845 0.0
O19 O 0.45827 0.55998 0.66115 0.0
C20 C 0.48254 0.56497 0.67543 0.0
C21 C 0.36779 0.57692 0.6372 0.0
C22 C 0.41567 0.57948 0.74766 0.0
C23 C 0.46753 0.64867 0.66871 0.0
O24 O 0.43942 0.63547 0.66729 0.0
O25 O 0.48075 0.63501 0.6776 0.0
O26 O 0.37099 0.59485 0.66101 0.0
O27 O 0.38536 0.56617 0.63696 0.0
O28 O 0.82975 0.45814 0.02334 0.0
Cd29 Cd 0.84128 0.47292 0.9751 0.0
Cd30 Cd 0.7849 0.41758 0.96671 0.0
O31 O 0.79151 0.41294 0.01723 0.0
O32 O 0.88065 0.5085 0.98279 0.0
O33 O 0.87478 0.47097 0.95191 0.0
C34 C 0.8923 0.49653 0.96493 0.0
C35 C 0.75707 0.37543 0.93277 0.0
C36 C 0.81011 0.43376 0.03586 0.0
C37 C 0.79141 0.47889 0.95126 0.0
O38 O 0.77601 0.45103 0.9556 0.0
O39 O 0.8192 0.49244 0.95538 0.0
O40 O 0.74529 0.382 0.95707 0.0
O41 O 0.78528 0.39193 0.92862 0.0
O42 O 0.37475 0.81641 0.37823 0.0
Cd43 Cd 0.37564 0.82936 0.32948 0.0
Cd44 Cd 0.36423 0.77121 0.32164 0.0
O45 O 0.37292 0.77339 0.37273 0.0
O46 O 0.38615 0.87094 0.3377 0.0
O47 O 0.41319 0.85931 0.30578 0.0
C48 C 0.40895 0.87945 0.31898 0.0
C49 C 0.37859 0.74559 0.28444 0.0
C50 C 0.37398 0.79379 0.39119 0.0
C51 C 0.31599 0.78709 0.30665 0.0
O52 O 0.3239 0.76781 0.31078 0.0
O53 O 0.33471 0.81437 0.30948 0.0
O54 O 0.35815 0.73195 0.30639 0.0
O55 O 0.39202 0.77418 0.28442 0.0
O56 O 0.58852 0.38466 0.70022 0.0
Cd57 Cd 0.58231 0.3954 0.65238 0.0
Cd58 Cd 0.6237 0.37788 0.64399 0.0
O59 O 0.62901 0.38153 0.69566 0.0
O60 O 0.55109 0.40505 0.66368 0.0
O61 O 0.59257 0.43708 0.63895 0.0
C62 C 0.5672 0.43086 0.65106 0.0
C63 C 0.66258 0.39723 0.60525 0.0
C64 C 0.60859 0.38102 0.71355 0.0
C65 C 0.56101 0.33834 0.61928 0.0
O66 O 0.58534 0.34049 0.62863 0.0
O67 O 0.55727 0.36044 0.62172 0.0
O68 O 0.65677 0.37451 0.6234 0.0
O69 O 0.6472 0.41009 0.6104 0.0
O70 O 0.16737 0.59487 0.07421 0.0
Cd71 Cd 0.15206 0.57868 0.02712 0.0
Cd72 Cd 0.20994 0.6162 1.01211 0.0
O73 O 0.21433 0.62627 0.06309 0.0
O74 O 0.10872 0.55551 0.03458 0.0
O75 O 0.12901 0.5908 0.99666 0.0
C76 C 0.10546 0.57022 1.01086 0.0
C77 C 0.23064 0.65176 0.96929 0.0
C78 C 0.1934 0.61317 0.08416 0.0
C79 C 0.18536 0.55013 1.00352 0.0
O80 O 0.20735 0.57627 1.00121 0.0
O81 O 0.16037 0.54597 0.01287 0.0
O82 O 0.24689 0.64621 0.98887 0.0
O83 O 0.2025 0.63824 0.97518 0.0
O84 O 0.84709 0.42033 0.29535 0.0
Cd85 Cd 0.85832 0.41067 0.34075 0.0
Cd86 Cd 0.80265 0.40387 0.35685 0.0
O87 O 0.8037 0.41601 0.30691 0.0
O88 O 0.90002 0.42147 0.33337 0.0
O89 O 0.88635 0.4413 0.37337 0.0
C90 C 0.90716 0.43924 0.35834 0.0
C91 C 0.78039 0.41769 0.39899 0.0
C92 C 0.82404 0.42077 0.28599 0.0
C93 C 0.81299 0.35098 0.36156 0.0
O94 O 0.79623 0.36201 0.36505 0.0
O95 O 0.83939 0.36673 0.35155 0.0
O96 O 0.76512 0.39964 0.37549 0.0
O97 O 0.80885 0.42965 0.39745 0.0
O98 O 0.39563 0.82155 0.65512 0.0
Cd99 Cd 0.41155 0.8337 0.70291 0.0
Cd100 Cd 0.36602 0.77578 0.71329 0.0
O101 O 0.35697 0.77698 0.66262 0.0
O102 O 0.44208 0.8756 0.69522 0.0
O103 O 0.40552 0.8626 0.73098 0.0
C104 C 0.42915 0.88328 0.71703 0.0
C105 C 0.33014 0.75573 0.75579 0.0
C106 C 0.37391 0.79815 0.64326 0.0
C107 C 0.42982 0.791 0.72434 0.0
O108 O 0.40254 0.77143 0.72273 0.0
O109 O 0.43821 0.81795 0.71877 0.0
O110 O 0.33262 0.73919 0.7336 0.0
O111 O 0.34678 0.78407 0.75256 0.0
O112 O 0.56868 0.38245 0.97207 0.0
Cd113 Cd 0.56723 0.39752 0.0192 0.0
Cd114 Cd 0.5915 0.36307 0.03385 0.0
O115 O 0.58642 0.3528 0.98301 0.0
O116 O 0.54729 0.42048 1.00887 0.0
O117 O 0.5306 0.38563 0.04732 0.0
C118 C 0.52835 0.40612 0.03188 0.0
C119 C 0.57696 0.3277 0.0767 0.0
C120 C 0.57785 0.36531 0.96203 0.0
C121 C 0.62933 0.42935 0.04319 0.0
O122 O 0.62751 0.4041 0.04453 0.0
O123 O 0.60702 0.43142 0.03488 0.0
O124 O 0.59945 0.33412 0.05789 0.0
O125 O 0.56165 0.34039 0.07014 0.0
O126 O 0.19134 0.60242 0.34816 0.0
Cd127 Cd 0.17619 0.59374 0.39692 0.0
Cd128 Cd 0.23491 0.60691 0.40136 0.0
O129 O 0.2325 0.60026 0.34991 0.0
O130 O 0.13688 0.58951 0.38809 0.0
O131 O 0.14171 0.55368 0.41054 0.0
C132 C 0.12461 0.56324 0.4001 0.0
C133 C 0.2567 0.58888 0.43891 0.0
C134 C 0.21306 0.60279 0.3333 0.0
C135 C 0.21716 0.65059 0.42674 0.0
O136 O 0.23742 0.64634 0.41504 0.0
O137 O 0.19075 0.62938 0.42785 0.0
O138 O 0.27241 0.61012 0.41843 0.0
O139 O 0.22822 0.57662 0.43684 0.0
O140 O 0.54223 0.16268 0.66545 0.0
Cd141 Cd 0.52661 0.15116 0.71349 0.0
Cd142 Cd 0.57497 0.21019 0.72223 0.0
O143 O 0.58232 0.20652 0.67172 0.0
O144 O 0.49456 0.10993 0.70529 0.0
O145 O 0.53092 0.12059 0.74053 0.0
C146 C 0.50686 0.1009 0.72633 0.0
C147 C 0.61501 0.23814 0.75877 0.0
C148 C 0.56442 0.18532 0.65301 0.0
C149 C 0.51059 0.19577 0.73283 0.0
O150 O 0.53821 0.21431 0.73129 0.0
O151 O 0.50109 0.16839 0.72881 0.0
O152 O 0.6077 0.25041 0.73566 0.0
O153 O 0.60031 0.20959 0.76048 0.0
O154 O 0.38241 0.53739 1.01041 0.0
Cd155 Cd 0.37558 0.52046 0.05801 0.0
Cd156 Cd 0.37511 0.57677 0.06679 0.0
O157 O 0.3878 0.58199 0.01669 0.0
O158 O 0.37707 0.48369 0.04959 0.0
O159 O 0.40847 0.51886 0.08317 0.0
C160 C 0.39947 0.49346 0.06921 0.0
C161 C 0.38919 0.61796 0.1022 0.0
C162 C 0.38726 0.56189 0.99808 0.0
C163 C 0.31935 0.51582 0.07977 0.0
O164 O 0.33236 0.54382 0.07664 0.0
O165 O 0.33315 0.50188 0.07515 0.0
O166 O 0.37168 0.61256 0.07727 0.0
O167 O 0.40046 0.60101 0.10597 0.0
C168 C 0.56762 0.20439 0.45231 0.0
C169 C 0.57439 0.18388 0.43811 0.0
C170 C 0.56715 0.20744 0.48725 0.0
C171 C 0.57409 0.18994 0.50841 0.0
C172 C 0.58162 0.16977 0.49412 0.0
C173 C 0.58145 0.16684 0.45934 0.0
C174 C 0.55862 0.2289 0.50156 0.0
C175 C 0.58945 0.15086 0.5156 0.0
C176 C 0.5938 0.20842 0.60046 0.0
C177 C 0.56746 0.1875 0.61604 0.0
C178 C 0.59615 0.21013 0.56538 0.0
C179 C 0.57144 0.19081 0.54547 0.0
C180 C 0.54458 0.17037 0.56115 0.0
C181 C 0.54299 0.16883 0.59606 0.0
C182 C 0.62529 0.23201 0.54961 0.0
C183 C 0.51757 0.14959 0.54102 0.0
H184 H 0.56229 0.21774 0.43617 0.0
H185 H 0.58716 0.15121 0.44878 0.0
H186 H 0.53786 0.21661 0.51615 0.0
H187 H 0.576 0.24445 0.51895 0.0
H188 H 0.55522 0.24191 0.48188 0.0
H189 H 0.59674 0.13773 0.50061 0.0
H190 H 0.60741 0.16497 0.53327 0.0
H191 H 0.56995 0.13533 0.53066 0.0
H192 H 0.61272 0.22309 0.61565 0.0
H193 H 0.52231 0.15295 0.60774 0.0
H194 H 0.62195 0.24589 0.53113 0.0
H195 H 0.63451 0.2199 0.53598 0.0
H196 H 0.6418 0.24671 0.56836 0.0
H197 H 0.5125 0.16222 0.52247 0.0
H198 H 0.49773 0.13666 0.55693 0.0
H199 H 0.52198 0.13385 0.527 0.0
C200 C 0.38244 0.57159 0.79708 0.0
C201 C 0.40957 0.57655 0.78417 0.0
C202 C 0.37754 0.57025 0.83179 0.0
C203 C 0.4004 0.57428 0.85406 0.0
C204 C 0.42786 0.57957 0.84113 0.0
C205 C 0.43202 0.58045 0.80651 0.0
C206 C 0.34783 0.56422 0.84464 0.0
C207 C 0.45289 0.58413 0.86389 0.0
C208 C 0.39963 0.59316 0.94598 0.0
C209 C 0.39043 0.56568 0.96123 0.0
C210 C 0.40233 0.59625 0.91101 0.0
C211 C 0.39532 0.57122 0.89085 0.0
C212 C 0.38539 0.54337 0.90611 0.0
C213 C 0.38325 0.54099 0.94095 0.0
C214 C 0.41327 0.62639 0.89567 0.0
C215 C 0.37749 0.51606 0.88564 0.0
H216 H 0.36502 0.56872 0.78011 0.0
H217 H 0.45321 0.58459 0.79699 0.0
H218 H 0.33723 0.54327 0.85911 0.0
H219 H 0.35073 0.58215 0.86183 0.0
H220 H 0.33265 0.56242 0.82417 0.0
H221 H 0.47337 0.58946 0.84992 0.0
H222 H 0.45806 0.60238 0.88169 0.0
H223 H 0.44616 0.56381 0.8788 0.0
H224 H 0.40508 0.61231 0.96135 0.0
H225 H 0.37574 0.51952 0.9523 0.0
H226 H 0.39744 0.62529 0.87647 0.0
H227 H 0.43474 0.6337 0.88296 0.0
H228 H 0.41635 0.64331 0.91453 0.0
H229 H 0.361 0.51294 0.86625 0.0
H230 H 0.36829 0.4957 0.90114 0.0
H231 H 0.39748 0.51881 0.87259 0.0
C232 C 0.79474 0.42357 0.2373 0.0
C233 C 0.82011 0.42394 0.24971 0.0
C234 C 0.7903 0.42429 0.20269 0.0
C235 C 0.81156 0.42509 0.18001 0.0
C236 C 0.83717 0.42554 0.19244 0.0
C237 C 0.84119 0.42516 0.22696 0.0
C238 C 0.76292 0.42422 0.19038 0.0
C239 C 0.86038 0.42632 0.16922 0.0
C240 C 0.79416 0.40309 0.08848 0.0
C241 C 0.80852 0.43083 0.07279 0.0
C242 C 0.794 0.40079 0.12353 0.0
C243 C 0.80808 0.42685 0.14326 0.0
C244 C 0.82144 0.45486 0.12751 0.0
C245 C 0.82169 0.4565 0.0926 0.0
C246 C 0.77977 0.3705 0.13938 0.0
C247 C 0.83634 0.48321 0.1475 0.0
H248 H 0.77824 0.42248 0.25458 0.0
H249 H 0.86083 0.42529 0.23607 0.0
H250 H 0.76931 0.44433 0.17522 0.0
H251 H 0.74995 0.40481 0.17396 0.0
H252 H 0.74848 0.42351 0.21116 0.0
H253 H 0.8785 0.42548 0.18285 0.0
H254 H 0.85008 0.40734 0.15168 0.0
H255 H 0.8702 0.44686 0.15406 0.0
H256 H 0.7838 0.38318 0.07338 0.0
H257 H 0.83238 0.47809 0.08077 0.0
H258 H 0.764 0.36864 0.1591 0.0
H259 H 0.79704 0.36721 0.15152 0.0
H260 H 0.76779 0.35249 0.1209 0.0
H261 H 0.82127 0.48281 0.16728 0.0
H262 H 0.8432 0.50311 0.1317 0.0
H263 H 0.8563 0.48535 0.16002 0.0
C264 C 0.38067 0.77333 0.4456 0.0
C265 C 0.37147 0.79059 0.42808 0.0
C266 C 0.37892 0.77151 0.48073 0.0
C267 C 0.36701 0.78671 0.49858 0.0
C268 C 0.35636 0.80289 0.48074 0.0
C269 C 0.35905 0.80492 0.44592 0.0
C270 C 0.39091 0.75436 0.49882 0.0
C271 C 0.34292 0.81892 0.49852 0.0
C272 C 0.34647 0.77096 0.59097 0.0
C273 C 0.37089 0.79499 0.60626 0.0
C274 C 0.34491 0.76765 0.55594 0.0
C275 C 0.36853 0.78855 0.53582 0.0
C276 C 0.39329 0.8126 0.55121 0.0
C277 C 0.39403 0.81564 0.58599 0.0
C278 C 0.31789 0.742 0.54042 0.0
C279 C 0.4191 0.83532 0.53088 0.0
H280 H 0.39006 0.76202 0.43197 0.0
H281 H 0.35119 0.81775 0.43255 0.0
H282 H 0.41072 0.76987 0.51348 0.0
H283 H 0.37426 0.73857 0.51669 0.0
H284 H 0.39724 0.74187 0.48142 0.0
H285 H 0.33273 0.82771 0.48092 0.0
H286 H 0.32575 0.80388 0.51644 0.0
H287 H 0.36029 0.83771 0.51301 0.0
H288 H 0.32856 0.75481 0.60633 0.0
H289 H 0.41323 0.83415 0.59734 0.0
H290 H 0.32447 0.72849 0.52515 0.0
H291 H 0.30698 0.75042 0.52341 0.0
H292 H 0.30156 0.72749 0.55942 0.0
H293 H 0.42784 0.82419 0.51467 0.0
H294 H 0.43744 0.85174 0.54675 0.0
H295 H 0.41164 0.84738 0.51435 0.0
C296 C 0.58664 0.34152 0.91146 0.0
C297 C 0.5824 0.36379 0.92554 0.0
C298 C 0.59239 0.34154 0.87702 0.0
C299 C 0.59474 0.36476 0.85644 0.0
C300 C 0.59112 0.38755 0.87077 0.0
C301 C 0.58466 0.38658 0.90484 0.0
C302 C 0.5955 0.31653 0.86251 0.0
C303 C 0.59391 0.41304 0.85005 0.0
C304 C 0.63096 0.38383 0.77032 0.0
C305 C 0.60606 0.37403 0.74972 0.0
C306 C 0.62774 0.37964 0.8052 0.0
C307 C 0.59898 0.36469 0.81953 0.0
C308 C 0.5739 0.35294 0.79841 0.0
C309 C 0.57775 0.35812 0.76398 0.0
C310 C 0.6551 0.39298 0.82678 0.0
C311 C 0.54285 0.33619 0.81233 0.0
H312 H 0.58519 0.32397 0.92726 0.0
H313 H 0.58203 0.40426 0.91543 0.0
H314 H 0.57752 0.30409 0.84419 0.0
H315 H 0.61677 0.32545 0.84885 0.0
H316 H 0.59447 0.30088 0.88197 0.0
H317 H 0.5925 0.43004 0.8654 0.0
H318 H 0.61534 0.42382 0.83652 0.0
H319 H 0.57604 0.40469 0.83108 0.0
H320 H 0.65287 0.39604 0.75942 0.0
H321 H 0.55839 0.35002 0.74811 0.0
H322 H 0.65293 0.37767 0.84719 0.0
H323 H 0.65797 0.41354 0.83848 0.0
H324 H 0.67533 0.39865 0.8121 0.0
H325 H 0.54076 0.31895 0.83012 0.0
H326 H 0.52593 0.32543 0.79244 0.0
H327 H 0.53795 0.35164 0.82624 0.0
C328 C 0.20474 0.62523 0.2826 0.0
C329 C 0.21598 0.60823 0.29674 0.0
C330 C 0.20531 0.62968 0.24804 0.0
C331 C 0.21644 0.6159 0.22669 0.0
C332 C 0.22875 0.59945 0.24082 0.0
C333 C 0.22878 0.59618 0.27579 0.0
C334 C 0.19278 0.64812 0.23433 0.0
C335 C 0.24033 0.58392 0.21897 0.0
C336 C 0.17823 0.59446 0.14233 0.0
C337 C 0.19952 0.61563 0.12074 0.0
C338 C 0.18393 0.59393 0.17642 0.0
C339 C 0.21144 0.61556 0.18988 0.0
C340 C 0.23301 0.63734 0.16847 0.0
C341 C 0.22692 0.63692 0.13407 0.0
C342 C 0.16039 0.57 0.19807 0.0
C343 C 0.26238 0.66114 0.18194 0.0
H344 H 0.19512 0.63493 0.29866 0.0
H345 H 0.23754 0.58307 0.28658 0.0
H346 H 0.20826 0.66438 0.21592 0.0
H347 H 0.17167 0.63359 0.22116 0.0
H348 H 0.18842 0.66026 0.25425 0.0
H349 H 0.25168 0.57443 0.23364 0.0
H350 H 0.22163 0.56572 0.20519 0.0
H351 H 0.256 0.59942 0.20017 0.0
H352 H 0.15711 0.57759 0.13244 0.0
H353 H 0.24361 0.65324 0.11764 0.0
H354 H 0.15261 0.58009 0.21699 0.0
H355 H 0.16974 0.558 0.21169 0.0
H356 H 0.14097 0.55369 0.1834 0.0
H357 H 0.2587 0.67401 0.20151 0.0
H358 H 0.27669 0.67662 0.16217 0.0
H359 H 0.27436 0.65096 0.1938 0.0
C360 C 0.80721 0.30384 0.33952 0.0
C361 C 0.79949 0.31865 0.36318 0.0
C362 C 0.78694 0.27443 0.33087 0.0
C363 C 0.75875 0.26028 0.34615 0.0
C364 C 0.75366 0.27324 0.37463 0.0
C365 C 0.77417 0.30256 0.38269 0.0
C366 C 0.79415 0.26031 0.30232 0.0
C367 C 0.72453 0.25819 0.39314 0.0
C368 C 0.68823 0.23284 0.29997 0.0
C369 C 0.67174 0.20475 0.31421 0.0
C370 C 0.71858 0.25001 0.30603 0.0
C371 C 0.73246 0.23864 0.32706 0.0
C372 C 0.71694 0.2085 0.33648 0.0
C373 C 0.68647 0.19174 0.33 0.0
C374 C 0.73459 0.28171 0.29391 0.0
C375 C 0.73138 0.19481 0.35674 0.0
H376 H 0.82731 0.31606 0.32499 0.0
H377 H 0.76881 0.31383 0.40182 0.0
H378 H 0.78098 0.23577 0.30351 0.0
H379 H 0.78916 0.26757 0.27837 0.0
H380 H 0.81809 0.26738 0.30231 0.0
H381 H 0.7257 0.26951 0.41705 0.0
H382 H 0.70704 0.25829 0.37745 0.0
H383 H 0.71781 0.23483 0.39857 0.0
H384 H 0.67694 0.24248 0.28672 0.0
H385 H 0.67387 0.16961 0.34029 0.0
H386 H 0.7562 0.28731 0.28272 0.0
H387 H 0.73892 0.2969 0.31527 0.0
H388 H 0.72152 0.2859 0.27501 0.0
H389 H 0.75585 0.20721 0.35423 0.0
H390 H 0.72287 0.17148 0.34896 0.0
H391 H 0.72565 0.19451 0.38344 0.0
C392 C 0.44324 0.75281 0.7375 0.0
C393 C 0.45194 0.78136 0.72619 0.0
C394 C 0.45945 0.73909 0.72885 0.0
C395 C 0.48482 0.75441 0.70822 0.0
C396 C 0.49625 0.78481 0.70144 0.0
C397 C 0.47956 0.79805 0.71054 0.0
C398 C 0.44702 0.7069 0.73807 0.0
C399 C 0.52416 0.80255 0.68139 0.0
C400 C 0.50549 0.69724 0.69126 0.0
C401 C 0.48372 0.68115 0.66724 0.0
C402 C 0.51064 0.72514 0.7016 0.0
C403 C 0.49349 0.73646 0.6875 0.0
C404 C 0.47652 0.72311 0.65844 0.0
C405 C 0.47165 0.69528 0.64874 0.0
C406 C 0.53083 0.74002 0.73087 0.0
C407 C 0.4593 0.73547 0.64117 0.0
H408 H 0.42234 0.74023 0.75053 0.0
H409 H 0.48681 0.82049 0.7024 0.0
H410 H 0.43773 0.69287 0.71552 0.0
H411 H 0.46468 0.70315 0.74809 0.0
H412 H 0.42915 0.69939 0.75702 0.0
H413 H 0.53671 0.82562 0.69092 0.0
H414 H 0.5387 0.79268 0.68198 0.0
H415 H 0.51823 0.8037 0.65507 0.0
H416 H 0.51553 0.68663 0.70505 0.0
H417 H 0.45556 0.68311 0.62938 0.0
H418 H 0.51824 0.73115 0.75439 0.0
H419 H 0.53986 0.76433 0.73048 0.0
H420 H 0.54947 0.73544 0.731 0.0
H421 H 0.44003 0.73137 0.65679 0.0
H422 H 0.45092 0.72502 0.61642 0.0
H423 H 0.47329 0.75971 0.63767 0.0
C424 C 0.66267 0.48221 0.02743 0.0
C425 C 0.65891 0.45624 0.04262 0.0
C426 C 0.68975 0.50228 1.01252 0.0
C427 C 0.713 0.4958 0.01279 0.0
C428 C 0.71104 0.47313 0.03416 0.0
C429 C 0.68386 0.45361 0.04898 0.0
C430 C 0.69188 0.528 0.99305 0.0
C431 C 0.73595 0.46635 0.03718 0.0
C432 C 0.74628 0.48122 0.93996 0.0
C433 C 0.77558 0.49562 0.9512 0.0
C434 C 0.72511 0.48557 0.95639 0.0
C435 C 0.73397 0.50482 0.98436 0.0
C436 C 0.7644 0.52475 0.98968 0.0
C437 C 0.7852 0.51985 0.97293 0.0
C438 C 0.69287 0.46543 0.94783 0.0
C439 C 0.77487 0.54795 0.01664 0.0
H440 H 0.64375 0.48523 0.02368 0.0
H441 H 0.68137 0.4343 0.06208 0.0
H442 H 0.71512 0.54469 0.9869 0.0
H443 H 0.67911 0.5198 0.96953 0.0
H444 H 0.68181 0.5389 1.00753 0.0
H445 H 0.73192 0.45021 0.05743 0.0
H446 H 0.73833 0.45684 0.01339 0.0
H447 H 0.75719 0.48682 0.04232 0.0
H448 H 0.73912 0.46334 0.92204 0.0
H449 H 0.80818 0.53198 0.98075 0.0
H450 H 0.68097 0.47806 0.9474 0.0
H451 H 0.68233 0.44784 0.96704 0.0
H452 H 0.69006 0.45461 0.92316 0.0
H453 H 0.75776 0.55386 0.02306 0.0
H454 H 0.79538 0.56822 1.0086 0.0
H455 H 0.78032 0.53955 0.0394 0.0
C456 C 0.27703 0.7934 0.33355 0.0
C457 C 0.28434 0.77722 0.31126 0.0
C458 C 0.25513 0.77846 0.35785 0.0
C459 C 0.24071 0.74724 0.35892 0.0
C460 C 0.24221 0.73168 0.3306 0.0
C461 C 0.26407 0.74715 0.30659 0.0
C462 C 0.2513 0.79603 0.38524 0.0
C463 C 0.22509 0.6983 0.32879 0.0
C464 C 0.25156 0.70461 0.4253 0.0
C465 C 0.22243 0.68116 0.42745 0.0
C466 C 0.25796 0.73014 0.40736 0.0
C467 C 0.23443 0.73187 0.39163 0.0
C468 C 0.20496 0.71165 0.40093 0.0
C469 C 0.19917 0.68624 0.41896 0.0
C470 C 0.29007 0.75244 0.40061 0.0
C471 C 0.17928 0.71439 0.38806 0.0
H472 H 0.29155 0.81712 0.33604 0.0
H473 H 0.26868 0.73487 0.288 0.0
H474 H 0.23034 0.78261 0.39918 0.0
H475 H 0.27008 0.80402 0.40298 0.0
H476 H 0.25154 0.81584 0.37465 0.0
H477 H 0.22618 0.69021 0.3035 0.0
H478 H 0.23441 0.68897 0.34686 0.0
H479 H 0.20153 0.68973 0.33526 0.0
H480 H 0.26955 0.7013 0.43337 0.0
H481 H 0.17637 0.66876 0.42203 0.0
H482 H 0.29414 0.77533 0.40311 0.0
H483 H 0.29587 0.74955 0.3748 0.0
H484 H 0.30513 0.74971 0.41799 0.0
H485 H 0.18637 0.73686 0.37825 0.0
H486 H 0.16287 0.7092 0.40832 0.0
H487 H 0.16788 0.69797 0.3679 0.0
C488 C 0.53836 0.28382 0.61767 0.0
C489 C 0.53459 0.30854 0.6164 0.0
C490 C 0.51729 0.2579 0.63361 0.0
C491 C 0.49201 0.25708 0.64813 0.0
C492 C 0.48488 0.27897 0.6392 0.0
C493 C 0.50647 0.30479 0.62332 0.0
C494 C 0.52491 0.23389 0.63981 0.0
C495 C 0.45652 0.27733 0.65041 0.0
C496 C 0.46765 0.1928 0.70342 0.0
C497 C 0.49022 0.20726 0.72722 0.0
C498 C 0.46274 0.20944 0.67936 0.0
C499 C 0.48073 0.24057 0.67994 0.0
C500 C 0.49678 0.25451 0.70942 0.0
C501 C 0.50102 0.23736 0.73323 0.0
C502 C 0.44217 0.19365 0.65067 0.0
C503 C 0.51425 0.28779 0.71294 0.0
H504 H 0.55949 0.2861 0.61062 0.0
H505 H 0.50262 0.32329 0.62068 0.0
H506 H 0.53232 0.23516 0.66601 0.0
H507 H 0.50534 0.2117 0.63578 0.0
H508 H 0.54298 0.23613 0.62319 0.0
H509 H 0.44708 0.28417 0.62972 0.0
H510 H 0.43979 0.25474 0.65873 0.0
H511 H 0.4612 0.29307 0.67126 0.0
H512 H 0.45763 0.16909 0.69982 0.0
H513 H 0.51714 0.24832 0.75294 0.0
H514 H 0.45268 0.18496 0.63346 0.0
H515 H 0.4366 0.20851 0.6365 0.0
H516 H 0.42143 0.17438 0.66003 0.0
H517 H 0.53371 0.29702 0.69603 0.0
H518 H 0.52238 0.29463 0.73884 0.0
H519 H 0.50046 0.29764 0.70603 0.0
C520 C 0.17288 0.49965 0.02238 0.0
C521 C 0.1909 0.52503 1.00331 0.0
C522 C 0.18436 0.48244 0.03533 0.0
C523 C 0.21431 0.49126 0.02913 0.0
C524 C 0.23015 0.5129 1.00429 0.0
C525 C 0.21812 0.52958 0.9916 0.0
C526 C 0.16569 0.4576 0.05906 0.0
C527 C 0.26166 0.5219 0.99512 0.0
C528 C 0.27238 0.51407 0.09319 0.0
C529 C 0.28681 0.49959 0.08074 0.0
C530 C 0.24485 0.5076 0.08044 0.0
C531 C 0.23189 0.48621 0.05467 0.0
C532 C 0.2433 0.46727 0.04769 0.0
C533 C 0.27102 0.47429 0.06081 0.0
C534 C 0.23247 0.52721 0.09047 0.0
C535 C 0.22864 0.44233 0.02288 0.0
H536 H 0.15121 0.4952 0.03053 0.0
H537 H 0.23156 0.54842 0.97566 0.0
H538 H 0.17438 0.44218 0.06231 0.0
H539 H 0.1652 0.46692 0.08377 0.0
H540 H 0.14251 0.44497 0.04991 0.0
H541 H 0.26947 0.53664 0.97293 0.0
H542 H 0.27659 0.53388 0.01632 0.0
H543 H 0.26363 0.50212 0.98973 0.0
H544 H 0.28424 0.53295 0.10963 0.0
H545 H 0.28173 0.46233 0.05192 0.0
H546 H 0.20835 0.51376 0.09513 0.0
H547 H 0.23598 0.54297 0.06999 0.0
H548 H 0.24326 0.54022 0.11332 0.0
H549 H 0.20482 0.43501 0.0196 0.0
H550 H 0.23085 0.42317 0.03103 0.0
H551 H 0.23985 0.4497 0.99836 0.0
C552 C 0.50984 0.05559 0.29581 0.0
C553 C 0.53197 0.06507 0.32024 0.0
C554 C 0.49063 0.02526 0.29003 0.0
C555 C 0.49349 0.00415 0.30947 0.0
C556 C 0.51661 0.01366 0.3331 0.0
C557 C 0.53563 0.04398 0.33807 0.0
C558 C 0.46648 0.01585 0.26424 0.0
C559 C 0.52023 0.99186 0.35461 0.0
C560 C 0.42573 0.93194 0.33266 0.0
C561 C 0.42964 0.91139 0.31403 0.0
C562 C 0.4458 0.96229 0.33034 0.0
C563 C 0.47028 0.97245 0.30853 0.0
C564 C 0.47377 0.95199 0.28854 0.0
C565 C 0.45345 0.92155 0.29171 0.0
C566 C 0.44147 0.98334 0.35241 0.0
C567 C 0.49942 0.96219 0.26467 0.0
H568 H 0.50714 0.07181 0.28169 0.0
H569 H 0.55283 0.05111 0.35684 0.0
H570 H 0.46539 -0.0021 0.24836 0.0
H571 H 0.44476 0.00695 0.27691 0.0
H572 H 0.46986 0.03456 0.24802 0.0
H573 H 0.54077 0.00276 0.36983 0.0
H574 H 0.50101 0.98053 0.37171 0.0
H575 H 0.52072 0.97459 0.33894 0.0
H576 H 0.40733 0.92429 0.34991 0.0
H577 H 0.45641 0.90576 0.27705 0.0
H578 H 0.44147 0.00111 0.33721 0.0
H579 H 0.46011 -0.00588 0.37035 0.0
H580 H 0.42044 0.97197 0.36674 0.0
H581 H 0.50145 0.98066 0.24901 0.0
H582 H 0.49701 0.94402 0.24811 0.0
H583 H 0.52034 0.97066 0.27892 0.0
C584 C 0.487 0.52739 0.64072 0.0
C585 C 0.49747 0.54813 0.66673 0.0
C586 C 0.50007 0.51002 0.63409 0.0
C587 C 0.52386 0.51333 0.65421 0.0
C588 C 0.53524 0.53506 0.6796 0.0
C589 C 0.52198 0.55227 0.68544 0.0
C590 C 0.48759 0.48725 0.60656 0.0
C591 C 0.56035 0.53903 0.70187 0.0
C592 C 0.53154 0.4461 0.67022 0.0
C593 C 0.5564 0.45218 0.65097 0.0
C594 C 0.52053 0.46564 0.67096 0.0
C595 C 0.53452 0.49183 0.65167 0.0
C596 C 0.55936 0.49797 0.63171 0.0
C597 C 0.5702 0.4781 0.63177 0.0
C598 C 0.49424 0.45849 0.69297 0.0
C599 C 0.57456 0.52557 0.61057 0.0
H600 H 0.46823 0.5243 0.62598 0.0
H601 H 0.53033 0.56837 0.70549 0.0
H602 H 0.50569 0.48868 0.59069 0.0
H603 H 0.4759 0.46472 0.61758 0.0
H604 H 0.47174 0.49001 0.59056 0.0
H605 H 0.56827 0.5586 0.71849 0.0
H606 H 0.55286 0.51903 0.71762 0.0
H607 H 0.57925 0.54155 0.68669 0.0
H608 H 0.52079 0.42614 0.6852 0.0
H609 H 0.5893 0.48275 0.61668 0.0
H610 H 0.4761 0.45787 0.67791 0.0
H611 H 0.5006 0.47606 0.71207 0.0
H612 H 0.48559 0.43688 0.70593 0.0
H613 H 0.55825 0.52686 0.59393 0.0
H614 H 0.59257 0.52629 0.59507 0.0
H615 H 0.58412 0.54547 0.62679 0.0
C616 C 0.93832 0.49561 0.94909 0.0
C617 C 0.92486 0.51092 0.96213 0.0
C618 C 0.96906 0.50736 0.95178 0.0
C619 C 0.98652 0.53494 0.96794 0.0
C620 C 0.9733 0.55146 0.97878 0.0
C621 C 0.94264 0.53926 0.97569 0.0
C622 C 0.98246 0.48926 0.93957 0.0
C623 C -0.0089 0.58094 0.99613 0.0
C624 C 0.05103 0.54373 0.01974 0.0
C625 C 0.0754 0.56256 0.9999 0.0
C626 C 0.0221 0.53458 1.00942 0.0
C627 C 0.01732 0.54431 0.97831 0.0
C628 C 0.04178 0.56343 0.95811 0.0
C629 C 0.07066 0.57249 0.96926 0.0
C630 C -0.00337 0.51447 0.03193 0.0
C631 C 0.03741 0.57404 0.92471 0.0
H632 H 0.92473 0.4738 0.93835 0.0
H633 H 0.93244 0.55143 0.98543 0.0
H634 H 0.0034 0.50341 0.92592 0.0
H635 H 0.98786 0.47959 0.96127 0.0
H636 H 0.96711 0.47089 0.92297 0.0
H637 H 0.97843 0.59275 0.99886 0.0
H638 H -0.00253 0.57734 0.02137 0.0
H639 H 0.01181 0.59537 0.98226 0.0
H640 H 0.05454 0.53603 0.0435 0.0
H641 H 0.08944 0.58686 0.95372 0.0
H642 H 0.98154 0.49357 0.01871 0.0
H643 H 0.98359 0.52524 0.03859 0.0
H644 H 0.00419 0.5089 0.05533 0.0
H645 H 0.02373 0.55477 0.90836 0.0
H646 H 0.05874 0.58873 0.91195 0.0
H647 H 0.02522 0.58625 0.92792 0.0
C648 C 0.07777 0.51593 0.41318 0.0
C649 C 0.092 0.54487 0.40058 0.0
C650 C 0.04684 0.49798 0.41111 0.0
C651 C 0.03004 0.50927 0.39578 0.0
C652 C 0.04422 0.53887 0.38435 0.0
C653 C 0.07498 0.55631 0.38703 0.0
C654 C 0.0323 0.46661 0.42398 0.0
C655 C 0.02714 0.55166 0.36755 0.0
C656 C 0.96056 0.45775 0.34818 0.0
C657 C 0.93836 0.45647 0.369 0.0
C658 C 0.99042 0.47416 0.35718 0.0
C659 C -0.00172 0.48944 0.38797 0.0
C660 C 0.97597 0.48764 0.4096 0.0
C661 C 0.94617 0.47131 0.39971 0.0
C662 C 0.0136 0.47593 0.33316 0.0
C663 C 0.98363 0.50341 0.44279 0.0
H664 H 0.0908 0.50708 0.42396 0.0
H665 H 0.08576 0.57875 0.37745 0.0
H666 H 0.01273 0.46166 0.43949 0.0
H667 H 0.02433 0.45096 0.40265 0.0
H668 H 0.04776 0.46247 0.43901 0.0
H669 H 0.04118 0.57573 0.36243 0.0
H670 H 0.01798 0.54007 0.34354 0.0
H671 H 0.00818 0.54822 0.38327 0.0
H672 H 0.95468 0.44633 0.3244 0.0
H673 H 0.92902 0.47013 0.41601 0.0
H674 H 0.02815 0.46907 0.34575 0.0
H675 H 0.02781 0.49915 0.32476 0.0
H676 H 0.00368 0.46175 0.31082 0.0
H677 H -0.00163 0.49785 0.45718 0.0
H678 H 0.96363 0.4976 0.45797 0.0
H679 H -0.00413 0.52771 0.43873 0.0
C680 C 0.50742 0.05811 0.75441 0.0
C681 C 0.49399 0.06884 0.73252 0.0
C682 C 0.49641 0.02751 0.75774 0.0
C683 C 0.47169 0.00743 0.73845 0.0
C684 C 0.45726 0.01816 0.71759 0.0
C685 C 0.46851 0.04868 0.71501 0.0
C686 C 0.51204 0.01677 0.78063 0.0
C687 C 0.43098 -0.00247 0.69636 0.0
C688 C 0.46518 0.93637 0.70643 0.0
C689 C 0.44118 0.91494 0.72493 0.0
C690 C 0.47616 0.96659 0.71176 0.0
C691 C 0.46301 0.97569 0.73645 0.0
C692 C 0.43966 0.95426 0.75632 0.0
C693 C 0.42884 0.92401 0.75017 0.0
C694 C 0.50091 0.98872 0.68978 0.0
C695 C 0.42546 0.96325 0.7832 0.0
H696 H 0.52696 0.07358 0.76825 0.0
H697 H 0.4578 0.05675 0.69825 0.0
H698 H 0.49578 -0.00214 0.79592 0.0
H699 H 0.5245 0.0088 0.76554 0.0
H700 H 0.52786 0.03455 0.79753 0.0
H701 H 0.42089 0.00922 0.68352 0.0
H702 H 0.43808 0.98703 0.67716 0.0
H703 H 0.41377 0.97953 0.71183 0.0
H704 H 0.47498 0.92957 0.687 0.0
H705 H 0.4105 0.90752 0.76478 0.0
H706 H 0.51924 0.00558 0.70524 0.0
H707 H 0.49263 0.00053 0.67399 0.0
H708 H 0.50995 0.97807 0.6732 0.0
H709 H 0.44265 0.98089 0.79909 0.0
H710 H 0.41041 0.94427 0.79928 0.0
H711 H 0.41246 0.97244 0.77158 0.0
C712 C 0.40262 0.44787 0.06041 0.0
C713 C 0.41526 0.47672 0.0732 0.0
C714 C 0.41893 0.43324 0.05854 0.0
C715 C 0.44864 0.44787 0.06964 0.0
C716 C 0.46077 0.47604 0.08501 0.0
C717 C 0.44387 0.49018 0.08665 0.0
C718 C 0.4051 0.40316 0.04214 0.0
C719 C 0.49233 0.49224 0.09735 0.0
C720 C 0.49084 0.40574 0.07146 0.0
C721 C 0.5061 0.41454 0.04103 0.0
C722 C 0.47194 0.41636 0.08133 0.0
C723 C 0.46822 0.43598 0.06012 0.0
C724 C 0.48305 0.44428 0.02905 0.0
C725 C 0.5018 0.43351 0.01996 0.0
C726 C 0.45646 0.40711 0.11462 0.0
C727 C 0.47942 0.46489 1.00549 0.0
H728 H 0.38032 0.43714 0.05042 0.0
H729 H 0.45368 0.51239 0.09677 0.0
H730 H 0.41474 0.40541 0.0169 0.0
H731 H 0.40992 0.38793 0.05661 0.0
H732 H 0.38072 0.39297 0.03955 0.0
H733 H 0.49691 0.51157 0.11317 0.0
H734 H 0.49735 0.47717 0.11189 0.0
H735 H 0.50762 0.50029 0.07569 0.0
H736 H 0.49428 0.39124 0.08792 0.0
H737 H 0.51343 0.44029 0.99633 0.0
H738 H 0.43222 0.39726 0.11129 0.0
H739 H 0.46403 0.42683 0.13085 0.0
H740 H 0.46077 0.39081 0.12761 0.0
H741 H 0.45574 0.45544 0.9988 0.0
H742 H 0.49237 0.46895 0.98214 0.0
H743 H 0.48669 0.48648 0.01787 0.0
C744 C 0.54694 0.21735 0.23252 0.0
C745 C 0.56409 0.23493 0.25929 0.0
C746 C 0.54488 0.2303 0.20251 0.0
C747 C 0.56048 0.26154 0.19908 0.0
C748 C 0.57659 0.27935 0.22661 0.0
C749 C 0.5781 0.26587 0.25631 0.0
C750 C 0.52715 0.21049 0.17396 0.0
C751 C 0.59361 0.31273 0.22414 0.0
C752 C 0.58933 0.29698 0.1142 0.0
C753 C 0.57047 0.30805 0.10623 0.0
C754 C 0.58568 0.28103 0.14376 0.0
C755 C 0.56242 0.27571 0.166 0.0
C756 C 0.54252 0.28576 0.15749 0.0
C757 C 0.54685 0.30191 0.1278 0.0
C758 C 0.6075 0.27087 0.15179 0.0
C759 C 0.51727 0.28031 0.1803 0.0
H760 H 0.53599 0.19345 0.23452 0.0
H761 H 0.59135 0.27971 0.27681 0.0
H762 H 0.51244 0.21802 0.16316 0.0
H763 H 0.5424 0.21175 0.1539 0.0
H764 H 0.51345 0.187 0.18178 0.0
H765 H 0.60315 0.32344 0.24848 0.0
H766 H 0.61195 0.3197 0.20594 0.0
H767 H 0.57904 0.32101 0.21489 0.0
H768 H 0.60764 0.30153 0.09777 0.0
H769 H 0.53211 0.3103 0.12188 0.0
H770 H 0.59561 0.24677 0.15709 0.0
H771 H 0.62017 0.28235 0.17455 0.0
H772 H 0.62343 0.27541 0.13115 0.0
H773 H 0.50438 0.25656 0.18727 0.0
H774 H 0.50207 0.28688 0.16867 0.0
H775 H 0.52618 0.29312 0.20369 0.0
C776 C 0.25438 0.55799 0.4884 0.0
C777 C 0.27118 0.58079 0.46564 0.0
C778 C 0.26782 0.55268 0.51601 0.0
C779 C 0.29871 0.57082 0.52122 0.0
C780 C 0.31588 0.59305 0.49757 0.0
C781 C 0.30196 0.59762 0.47006 0.0
C782 C 0.24878 0.52844 0.5403 0.0
C783 C 0.34882 0.61308 0.50217 0.0
C784 C 0.33124 0.58722 0.60861 0.0
C785 C 0.34669 0.57158 0.60948 0.0
C786 C 0.31456 0.58613 0.5806 0.0
C787 C 0.31287 0.56867 0.55273 0.0
C788 C 0.32697 0.55145 0.55416 0.0
C789 C 0.34389 0.55325 0.58243 0.0
C790 C 0.30007 0.60501 0.58018 0.0
C791 C 0.32528 0.53212 0.52526 0.0
H792 H 0.23061 0.54478 0.48517 0.0
H793 H 0.3152 0.61527 0.45266 0.0
H794 H 0.2589 0.51462 0.546 0.0
H795 H 0.24721 0.53842 0.5641 0.0
H796 H 0.22602 0.51393 0.5306 0.0
H797 H 0.35929 0.62807 0.48054 0.0
H798 H 0.353 0.6268 0.52487 0.0
H799 H 0.35978 0.59974 0.50585 0.0
H800 H 0.33316 0.60142 0.62935 0.0
H801 H 0.35563 0.541 0.58287 0.0
H802 H 0.27632 0.59139 0.57355 0.0
H803 H 0.31071 0.62248 0.56087 0.0
H804 H 0.30184 0.61585 0.60459 0.0
H805 H 0.30205 0.51842 0.51667 0.0
H806 H 0.33407 0.51727 0.53185 0.0
H807 H 0.33831 0.54626 0.50401 0.0
C808 C 0.75001 0.34673 0.87971 0.0
C809 C 0.73816 0.35135 0.90903 0.0
C810 C 0.73152 0.32649 0.85527 0.0
C811 C 0.70044 0.31055 0.86018 0.0
C812 C 0.68853 0.31425 0.89035 0.0
C813 C 0.70748 0.33446 0.91437 0.0
C814 C 0.74515 0.32304 0.8236 0.0
C815 C 0.65558 0.29764 0.89676 0.0
C816 C 0.64919 0.28722 0.78488 0.0
C817 C 0.63835 0.25658 0.78345 0.0
C818 C 0.66968 0.30497 0.80935 0.0
C819 C 0.6801 0.29198 0.83282 0.0
C820 C 0.66984 0.26119 0.83102 0.0
C821 C 0.64893 0.24381 0.80652 0.0
C822 C 0.67957 0.33758 0.81062 0.0
C823 C 0.68053 0.2465 0.85538 0.0
H824 H 0.77366 0.35962 0.87533 0.0
H825 H 0.69806 0.33768 0.93699 0.0
H826 H 0.73669 0.29926 0.81826 0.0
H827 H 0.73876 0.33226 0.80231 0.0
H828 H 0.76971 0.33459 0.82498 0.0
H829 H 0.64966 0.30403 0.92075 0.0
H830 H 0.64387 0.30183 0.87628 0.0
H831 H 0.64732 0.27348 0.89718 0.0
H832 H 0.64107 0.29732 0.76734 0.0
H833 H 0.6407 0.22018 0.8056 0.0
H834 H 0.70394 0.35089 0.80749 0.0
H835 H 0.6742 0.34325 0.83534 0.0
H836 H 0.66892 0.34417 0.79102 0.0
H837 H 0.70509 0.2584 0.85596 0.0
H838 H 0.67233 0.22291 0.84904 0.0
H839 H 0.67287 0.24759 0.88087 0.0
C840 C 0.41121 0.64588 0.15562 0.0
C841 C 0.39363 0.64096 0.12719 0.0
C842 C 0.41233 0.66487 0.18131 0.0
C843 C 0.3953 0.67911 0.17865 0.0
C844 C 0.37848 0.67514 0.1494 0.0
C845 C 0.37796 0.65627 0.12406 0.0
C846 C 0.43076 0.66871 0.21192 0.0
C847 C 0.35982 0.68968 0.14553 0.0
C848 C 0.36673 0.69778 0.25699 0.0
C849 C 0.38485 0.72867 0.25897 0.0
C850 C 0.3704 0.68141 0.23149 0.0
C851 C 0.39298 0.69615 0.20738 0.0
C852 C 0.41199 0.72722 0.20981 0.0
C853 C 0.40761 0.74313 0.23546 0.0
C854 C 0.34938 0.6484 0.22973 0.0
C855 C 0.43641 0.74375 0.18475 0.0
H856 H 0.42342 0.63421 0.1583 0.0
H857 H 0.3643 0.6527 0.10224 0.0
H858 H 0.44499 0.69256 0.21785 0.0
H859 H 0.41598 0.65814 0.23363 0.0
H860 H 0.44504 0.65867 0.20877 0.0
H861 H 0.34983 0.68621 0.12029 0.0
H862 H 0.3417 0.68046 0.16423 0.0
H863 H 0.37336 0.71383 0.15022 0.0
H864 H 0.34901 0.68634 0.27491 0.0
H865 H 0.42175 0.76696 0.23677 0.0
H866 H 0.36198 0.63644 0.22887 0.0
H867 H 0.33608 0.64292 0.2065 0.0
H868 H 0.33397 0.64005 0.25131 0.0
H869 H 0.4504 0.73333 0.18259 0.0
H870 H 0.45074 0.76743 0.19154 0.0
H871 H 0.42667 0.74256 0.1598 0.0
C872 C 0.69822 0.38982 0.57046 0.0
C873 C 0.68447 0.40646 0.57759 0.0
C874 C 0.71599 0.39559 0.54201 0.0
C875 C 0.72045 0.41878 0.52011 0.0
C876 C 0.70791 0.43668 0.52804 0.0
C877 C 0.68995 0.43022 0.55659 0.0
C878 C 0.72879 0.37584 0.53453 0.0
C879 C 0.71243 0.46186 0.50563 0.0
C880 C 0.78151 0.4392 0.45563 0.0
C881 C 0.7653 0.42187 0.42826 0.0
C882 C 0.76715 0.43972 0.48521 0.0
C883 C 0.73591 0.42229 0.48758 0.0
C884 C 0.71941 0.40591 0.45946 0.0
C885 C 0.73426 0.40601 0.4302 0.0
C886 C 0.78553 0.45785 0.51441 0.0
C887 C 0.68609 0.38693 0.46081 0.0
H888 H 0.69423 0.37145 0.58651 0.0
H889 H 0.67953 0.44329 0.56191 0.0
H890 H 0.7186 0.363 0.51144 0.0
H891 H 0.75297 0.38938 0.53008 0.0
H892 H 0.72491 0.36003 0.5551 0.0
H893 H 0.70441 0.47589 0.51727 0.0
H894 H 0.73621 0.47597 0.49933 0.0
H895 H 0.70028 0.45284 0.48189 0.0
H896 H 0.80548 0.4516 0.4544 0.0
H897 H 0.72147 0.39261 0.40922 0.0
H898 H 0.78503 0.44286 0.53435 0.0
H899 H 0.7762 0.47109 0.52505 0.0
H900 H 0.80897 0.47304 0.50732 0.0
H901 H 0.67982 0.36865 0.47894 0.0
H902 H 0.67638 0.37714 0.43618 0.0
H903 H 0.67611 0.40016 0.46957 0.0
C904 C 0.22607 0.67583 0.91678 0.0
C905 C 0.2438 0.67119 0.93958 0.0
C906 C 0.238 0.69152 0.88684 0.0
C907 C 0.26833 0.70266 0.87935 0.0
C908 C 0.2865 0.69892 0.90284 0.0
C909 C 0.27408 0.68338 0.9326 0.0
C910 C 0.21791 0.69526 0.86268 0.0
C911 C 0.31891 0.7103 0.89595 0.0
C912 C 0.29539 0.7114 0.78966 0.0
C913 C 0.31093 0.74229 0.78561 0.0
C914 C 0.28046 0.69823 0.81951 0.0
C915 C 0.28081 0.7163 0.84611 0.0
C916 C 0.29517 0.74741 0.8416 0.0
C917 C 0.31014 0.76004 0.81148 0.0
C918 C 0.26552 0.665 0.82314 0.0
C919 C 0.2958 0.76746 0.86913 0.0
H920 H 0.20268 0.66656 0.9219 0.0
H921 H 0.28804 0.68 0.94997 0.0
H922 H 0.22797 0.71876 0.85491 0.0
H923 H 0.21505 0.68203 0.83988 0.0
H924 H 0.19572 0.68802 0.87353 0.0
H925 H 0.33039 0.70705 0.91748 0.0
H926 H 0.32121 0.69861 0.87402 0.0
H927 H 0.33027 0.73424 0.88979 0.0
H928 H 0.29577 0.69742 0.76989 0.0
H929 H 0.32202 0.78391 0.80865 0.0
H930 H 0.24231 0.65589 0.83158 0.0
H931 H 0.27716 0.65934 0.84241 0.0
H932 H 0.26547 0.65392 0.79944 0.0
H933 H 0.27319 0.75933 0.87912 0.0
H934 H 0.30492 0.79067 0.86052 0.0
H935 H 0.30969 0.76729 0.88999 0.0
loop_
_geom_bond_atom_site_label_1
_geom_bond_atom_site_label_2
_geom_bond_distance
_geom_bond_site_symmetry_2
_ccdc_geom_bond_type
O0 Cd1 2.223 . S
O0 C8 1.315 . S
Cd1 O0 2.223 . S
Cd1 O4 2.297 . S
Cd1 O5 2.439 . S
Cd1 O11 2.240 . S
Cd2 O3 2.240 . S
Cd2 O10 2.223 . S
Cd2 O12 2.297 . S
Cd2 O13 2.439 . S
O3 Cd2 2.240 . S
O3 C8 1.279 . S
O4 Cd1 2.297 . S
O4 C6 1.247 . S
O5 Cd1 2.439 . S
O5 C6 1.208 . S
C6 O4 1.247 . S
C6 O5 1.208 . S
C7 O12 1.247 . S
C7 O13 1.208 . S
C8 O0 1.315 . S
C8 O3 1.279 . S
C9 O10 1.315 . S
C9 O11 1.279 . S
O10 Cd2 2.223 . S
O10 C9 1.315 . S
O11 Cd1 2.240 . S
O11 C9 1.279 . S
O12 Cd2 2.297 . S
O12 C7 1.247 . S
O13 Cd2 2.439 . S
O13 C7 1.208 . S
O14 Cd15 2.223 . S
O14 C22 1.315 . S
Cd15 O14 2.223 . S
Cd15 O18 2.297 . S
Cd15 O19 2.439 . S
Cd15 O25 2.240 . S
Cd16 O17 2.240 . S
Cd16 O24 2.223 . S
Cd16 O26 2.297 . S
Cd16 O27 2.439 . S
O17 Cd16 2.240 . S
O17 C22 1.279 . S
O18 Cd15 2.297 . S
O18 C20 1.247 . S
O19 Cd15 2.439 . S
O19 C20 1.208 . S
C20 O18 1.247 . S
C20 O19 1.208 . S
C21 O26 1.247 . S
C21 O27 1.208 . S
C22 O14 1.315 . S
C22 O17 1.279 . S
C23 O24 1.315 . S
C23 O25 1.279 . S
O24 Cd16 2.223 . S
O24 C23 1.315 . S
O25 Cd15 2.240 . S
O25 C23 1.279 . S
O26 Cd16 2.297 . S
O26 C21 1.247 . S
O27 Cd16 2.439 . S
O27 C21 1.208 . S
O28 Cd29 2.223 . S
O28 C36 1.315 . S
Cd29 O28 2.223 . S
Cd29 O32 2.297 . S
Cd29 O33 2.439 1_554 S
Cd29 O39 2.240 1_554 S
Cd30 O31 2.240 . S
Cd30 O38 2.223 . S
Cd30 O40 2.297 1_554 S
Cd30 O41 2.439 1_554 S
O31 Cd30 2.240 . S
O31 C36 1.279 . S
O32 Cd29 2.297 . S
O32 C34 1.247 1_554 S
O33 Cd29 2.439 1_556 S
O33 C34 1.208 . S
C34 O32 1.247 1_556 S
C34 O33 1.208 . S
C35 O40 1.247 . S
C35 O41 1.208 . S
C36 O28 1.315 . S
C36 O31 1.279 . S
C37 O38 1.315 . S
C37 O39 1.279 1_554 S
O38 Cd30 2.223 . S
O38 C37 1.315 . S
O39 Cd29 2.240 1_556 S
O39 C37 1.279 1_556 S
O40 Cd30 2.297 1_556 S
O40 C35 1.247 . S
O41 Cd30 2.439 1_556 S
O41 C35 1.208 . S
O42 Cd43 2.223 . S
O42 C50 1.315 . S
Cd43 O42 2.223 . S
Cd43 O46 2.297 . S
Cd43 O47 2.439 . S
Cd43 O53 2.240 . S
Cd44 O45 2.240 . S
Cd44 O52 2.223 . S
Cd44 O54 2.297 . S
Cd44 O55 2.439 . S
O45 Cd44 2.240 . S
O45 C50 1.279 . S
O46 Cd43 2.297 . S
O46 C48 1.247 . S
O47 Cd43 2.439 . S
O47 C48 1.208 . S
C48 O46 1.247 . S
C48 O47 1.208 . S
C49 O54 1.247 . S
C49 O55 1.208 . S
C50 O42 1.315 . S
C50 O45 1.279 . S
C51 O52 1.315 . S
C51 O53 1.279 . S
O52 Cd44 2.223 . S
O52 C51 1.315 . S
O53 Cd43 2.240 . S
O53 C51 1.279 . S
O54 Cd44 2.297 . S
O54 C49 1.247 . S
O55 Cd44 2.439 . S
O55 C49 1.208 . S
O56 Cd57 2.223 . S
O56 C64 1.315 . S
Cd57 O56 2.223 . S
Cd57 O60 2.297 . S
Cd57 O61 2.439 . S
Cd57 O67 2.240 . S
Cd58 O59 2.240 . S
Cd58 O66 2.223 . S
Cd58 O68 2.297 . S
Cd58 O69 2.439 . S
O59 Cd58 2.240 . S
O59 C64 1.279 . S
O60 Cd57 2.297 . S
O60 C62 1.247 . S
O61 Cd57 2.439 . S
O61 C62 1.208 . S
C62 O60 1.247 . S
C62 O61 1.208 . S
C63 O68 1.247 . S
C63 O69 1.208 . S
C64 O56 1.315 . S
C64 O59 1.279 . S
C65 O66 1.315 . S
C65 O67 1.279 . S
O66 Cd58 2.223 . S
O66 C65 1.315 . S
O67 Cd57 2.240 . S
O67 C65 1.279 . S
O68 Cd58 2.297 . S
O68 C63 1.247 . S
O69 Cd58 2.439 . S
O69 C63 1.208 . S
O70 Cd71 2.223 . S
O70 C78 1.315 . S
Cd71 O70 2.223 . S
Cd71 O74 2.297 . S
Cd71 O75 2.439 1_554 S
Cd71 O81 2.240 1_554 S
Cd72 O73 2.240 . S
Cd72 O80 2.223 . S
Cd72 O82 2.297 1_554 S
Cd72 O83 2.439 1_554 S
O73 Cd72 2.240 . S
O73 C78 1.279 . S
O74 Cd71 2.297 . S
O74 C76 1.247 1_554 S
O75 Cd71 2.439 1_556 S
O75 C76 1.208 . S
C76 O74 1.247 1_556 S
C76 O75 1.208 . S
C77 O82 1.247 . S
C77 O83 1.208 . S
C78 O70 1.315 . S
C78 O73 1.279 . S
C79 O80 1.315 . S
C79 O81 1.279 1_554 S
O80 Cd72 2.223 . S
O80 C79 1.315 . S
O81 Cd71 2.240 1_556 S
O81 C79 1.279 1_556 S
O82 Cd72 2.297 1_556 S
O82 C77 1.247 . S
O83 Cd72 2.439 1_556 S
O83 C77 1.208 . S
O84 Cd85 2.223 . S
O84 C92 1.315 . S
Cd85 O84 2.223 . S
Cd85 O88 2.297 . S
Cd85 O89 2.439 . S
Cd85 O95 2.240 . S
Cd86 O87 2.240 . S
Cd86 O94 2.223 . S
Cd86 O96 2.297 . S
Cd86 O97 2.439 . S
O87 Cd86 2.240 . S
O87 C92 1.279 . S
O88 Cd85 2.297 . S
O88 C90 1.247 . S
O89 Cd85 2.439 . S
O89 C90 1.208 . S
C90 O88 1.247 . S
C90 O89 1.208 . S
C91 O96 1.247 . S
C91 O97 1.208 . S
C92 O84 1.315 . S
C92 O87 1.279 . S
C93 O94 1.315 . S
C93 O95 1.279 . S
O94 Cd86 2.223 . S
O94 C93 1.315 . S
O95 Cd85 2.240 . S
O95 C93 1.279 . S
O96 Cd86 2.297 . S
O96 C91 1.247 . S
O97 Cd86 2.439 . S
O97 C91 1.208 . S
O98 Cd99 2.223 . S
O98 C106 1.315 . S
Cd99 O98 2.223 . S
Cd99 O102 2.297 . S
Cd99 O103 2.439 . S
Cd99 O109 2.240 . S
Cd100 O101 2.240 . S
Cd100 O108 2.223 . S
Cd100 O110 2.297 . S
Cd100 O111 2.439 . S
O101 Cd100 2.240 . S
O101 C106 1.279 . S
O102 Cd99 2.297 . S
O102 C104 1.247 . S
O103 Cd99 2.439 . S
O103 C104 1.208 . S
C104 O102 1.247 . S
C104 O103 1.208 . S
C105 O110 1.247 . S
C105 O111 1.208 . S
C106 O98 1.315 . S
C106 O101 1.279 . S
C107 O108 1.315 . S
C107 O109 1.279 . S
O108 Cd100 2.223 . S
O108 C107 1.315 . S
O109 Cd99 2.240 . S
O109 C107 1.279 . S
O110 Cd100 2.297 . S
O110 C105 1.247 . S
O111 Cd100 2.439 . S
O111 C105 1.208 . S
O112 Cd113 2.223 1_556 S
O112 C120 1.315 . S
Cd113 O112 2.223 1_554 S
Cd113 O116 2.297 . S
Cd113 O117 2.439 . S
Cd113 O123 2.240 . S
Cd114 O115 2.240 1_554 S
Cd114 O122 2.223 . S
Cd114 O124 2.297 . S
Cd114 O125 2.439 . S
O115 Cd114 2.240 1_556 S
O115 C120 1.279 . S
O116 Cd113 2.297 . S
O116 C118 1.247 . S
O117 Cd113 2.439 . S
O117 C118 1.208 . S
C118 O116 1.247 . S
C118 O117 1.208 . S
C119 O124 1.247 . S
C119 O125 1.208 . S
C120 O112 1.315 . S
C120 O115 1.279 . S
C121 O122 1.315 . S
C121 O123 1.279 . S
O122 Cd114 2.223 . S
O122 C121 1.315 . S
O123 Cd113 2.240 . S
O123 C121 1.279 . S
O124 Cd114 2.297 . S
O124 C119 1.247 . S
O125 Cd114 2.439 . S
O125 C119 1.208 . S
O126 Cd127 2.223 . S
O126 C134 1.315 . S
Cd127 O126 2.223 . S
Cd127 O130 2.297 . S
Cd127 O131 2.439 . S
Cd127 O137 2.240 . S
Cd128 O129 2.240 . S
Cd128 O136 2.223 . S
Cd128 O138 2.297 . S
Cd128 O139 2.439 . S
O129 Cd128 2.240 . S
O129 C134 1.279 . S
O130 Cd127 2.297 . S
O130 C132 1.247 . S
O131 Cd127 2.439 . S
O131 C132 1.208 . S
C132 O130 1.247 . S
C132 O131 1.208 . S
C133 O138 1.247 . S
C133 O139 1.208 . S
C134 O126 1.315 . S
C134 O129 1.279 . S
C135 O136 1.315 . S
C135 O137 1.279 . S
O136 Cd128 2.223 . S
O136 C135 1.315 . S
O137 Cd127 2.240 . S
O137 C135 1.279 . S
O138 Cd128 2.297 . S
O138 C133 1.247 . S
O139 Cd128 2.439 . S
O139 C133 1.208 . S
O140 Cd141 2.223 . S
O140 C148 1.315 . S
Cd141 O140 2.223 . S
Cd141 O144 2.297 . S
Cd141 O145 2.439 . S
Cd141 O151 2.240 . S
Cd142 O143 2.240 . S
Cd142 O150 2.223 . S
Cd142 O152 2.297 . S
Cd142 O153 2.439 . S
O143 Cd142 2.240 . S
O143 C148 1.279 . S
O144 Cd141 2.297 . S
O144 C146 1.247 . S
O145 Cd141 2.439 . S
O145 C146 1.208 . S
C146 O144 1.247 . S
C146 O145 1.208 . S
C147 O152 1.247 . S
C147 O153 1.208 . S
C148 O140 1.315 . S
C148 O143 1.279 . S
C149 O150 1.315 . S
C149 O151 1.279 . S
O150 Cd142 2.223 . S
O150 C149 1.315 . S
O151 Cd141 2.240 . S
O151 C149 1.279 . S
O152 Cd142 2.297 . S
O152 C147 1.247 . S
O153 Cd142 2.439 . S
O153 C147 1.208 . S
O154 Cd155 2.223 1_556 S
O154 C162 1.315 . S
Cd155 O154 2.223 1_554 S
Cd155 O158 2.297 . S
Cd155 O159 2.439 . S
Cd155 O165 2.240 . S
Cd156 O157 2.240 1_554 S
Cd156 O164 2.223 . S
Cd156 O166 2.297 . S
Cd156 O167 2.439 . S
O157 Cd156 2.240 1_556 S
O157 C162 1.279 . S
O158 Cd155 2.297 . S
O158 C160 1.247 . S
O159 Cd155 2.439 . S
O159 C160 1.208 . S
C160 O158 1.247 . S
C160 O159 1.208 . S
C161 O166 1.247 . S
C161 O167 1.208 . S
C162 O154 1.315 . S
C162 O157 1.279 . S
C163 O164 1.315 . S
C163 O165 1.279 . S
O164 Cd156 2.223 . S
O164 C163 1.315 . S
O165 Cd155 2.240 . S
O165 C163 1.279 . S
O166 Cd156 2.297 . S
O166 C161 1.247 . S
O167 Cd156 2.439 . S
O167 C161 1.208 . S
C168 C169 1.391 . S
C168 C170 1.394 . S
C168 H184 0.931 . S
C169 C168 1.391 . S
C169 C173 1.376 . S
C170 C168 1.394 . S
C170 C171 1.369 . S
C170 C174 1.531 . S
C171 C170 1.369 . S
C171 C172 1.410 . S
C171 C179 1.503 . S
C172 C171 1.410 . S
C172 C173 1.392 . S
C172 C175 1.511 . S
C173 C169 1.376 . S
C173 C172 1.392 . S
C173 H185 0.929 . S
C174 C170 1.531 . S
C174 H186 0.960 . S
C174 H187 0.962 . S
C174 H188 0.960 . S
C175 C172 1.511 . S
C175 H189 0.961 . S
C175 H190 0.961 . S
C175 H191 0.961 . S
C176 C177 1.370 . S
C176 C178 1.363 . S
C176 H192 0.931 . S
C177 C176 1.370 . S
C177 C181 1.408 . S
C178 C176 1.363 . S
C178 C179 1.370 . S
C178 C182 1.524 . S
C179 C171 1.503 . S
C179 C178 1.370 . S
C179 C180 1.403 . S
C180 C179 1.403 . S
C180 C181 1.404 . S
C180 C183 1.539 . S
C181 C177 1.408 . S
C181 C180 1.404 . S
C181 H193 0.930 . S
C182 C178 1.524 . S
C182 H194 0.956 . S
C182 H195 0.961 . S
C182 H196 0.961 . S
C183 C180 1.539 . S
C183 H197 0.958 . S
C183 H198 0.961 . S
C183 H199 0.960 . S
H184 C168 0.931 . S
H185 C173 0.929 . S
H186 C174 0.960 . S
H187 C174 0.962 . S
H188 C174 0.960 . S
H189 C175 0.961 . S
H190 C175 0.961 . S
H191 C175 0.961 . S
H192 C176 0.931 . S
H193 C181 0.930 . S
H194 C182 0.956 . S
H195 C182 0.961 . S
H196 C182 0.961 . S
H197 C183 0.958 . S
H198 C183 0.961 . S
H199 C183 0.960 . S
C200 C201 1.391 . S
C200 C202 1.394 . S
C200 H216 0.931 . S
C201 C200 1.391 . S
C201 C205 1.376 . S
C202 C200 1.394 . S
C202 C203 1.369 . S
C202 C206 1.531 . S
C203 C202 1.369 . S
C203 C204 1.410 . S
C203 C211 1.503 . S
C204 C203 1.410 . S
C204 C205 1.392 . S
C204 C207 1.511 . S
C205 C201 1.376 . S
C205 C204 1.392 . S
C205 H217 0.929 . S
C206 C202 1.531 . S
C206 H218 0.960 . S
C206 H219 0.962 . S
C206 H220 0.960 . S
C207 C204 1.511 . S
C207 H221 0.961 . S
C207 H222 0.961 . S
C207 H223 0.961 . S
C208 C209 1.370 . S
C208 C210 1.363 . S
C208 H224 0.931 . S
C209 C208 1.370 . S
C209 C213 1.408 . S
C210 C208 1.363 . S
C210 C211 1.370 . S
C210 C214 1.524 . S
C211 C203 1.503 . S
C211 C210 1.370 . S
C211 C212 1.403 . S
C212 C211 1.403 . S
C212 C213 1.404 . S
C212 C215 1.539 . S
C213 C209 1.408 . S
C213 C212 1.404 . S
C213 H225 0.930 . S
C214 C210 1.524 . S
C214 H226 0.956 . S
C214 H227 0.961 . S
C214 H228 0.961 . S
C215 C212 1.539 . S
C215 H229 0.958 . S
C215 H230 0.961 . S
C215 H231 0.960 . S
H216 C200 0.931 . S
H217 C205 0.929 . S
H218 C206 0.960 . S
H219 C206 0.962 . S
H220 C206 0.960 . S
H221 C207 0.961 . S
H222 C207 0.961 . S
H223 C207 0.961 . S
H224 C208 0.931 . S
H225 C213 0.930 . S
H226 C214 0.956 . S
H227 C214 0.961 . S
H228 C214 0.961 . S
H229 C215 0.958 . S
H230 C215 0.961 . S
H231 C215 0.960 . S
C232 C233 1.391 . S
C232 C234 1.394 . S
C232 H248 0.931 . S
C233 C232 1.391 . S
C233 C237 1.376 . S
C234 C232 1.394 . S
C234 C235 1.369 . S
C234 C238 1.531 . S
C235 C234 1.369 . S
C235 C236 1.410 . S
C235 C243 1.503 . S
C236 C235 1.410 . S
C236 C237 1.392 . S
C236 C239 1.511 . S
C237 C233 1.376 . S
C237 C236 1.392 . S
C237 H249 0.929 . S
C238 C234 1.531 . S
C238 H250 0.960 . S
C238 H251 0.962 . S
C238 H252 0.960 . S
C239 C236 1.511 . S
C239 H253 0.961 . S
C239 H254 0.961 . S
C239 H255 0.961 . S
C240 C241 1.370 . S
C240 C242 1.363 . S
C240 H256 0.931 . S
C241 C240 1.370 . S
C241 C245 1.408 . S
C242 C240 1.363 . S
C242 C243 1.370 . S
C242 C246 1.524 . S
C243 C235 1.503 . S
C243 C242 1.370 . S
C243 C244 1.403 . S
C244 C243 1.403 . S
C244 C245 1.404 . S
C244 C247 1.539 . S
C245 C241 1.408 . S
C245 C244 1.404 . S
C245 H257 0.930 . S
C246 C242 1.524 . S
C246 H258 0.956 . S
C246 H259 0.961 . S
C246 H260 0.961 . S
C247 C244 1.539 . S
C247 H261 0.958 . S
C247 H262 0.961 . S
C247 H263 0.960 . S
H248 C232 0.931 . S
H249 C237 0.929 . S
H250 C238 0.960 . S
H251 C238 0.962 . S
H252 C238 0.960 . S
H253 C239 0.961 . S
H254 C239 0.961 . S
H255 C239 0.961 . S
H256 C240 0.931 . S
H257 C245 0.930 . S
H258 C246 0.956 . S
H259 C246 0.961 . S
H260 C246 0.961 . S
H261 C247 0.958 . S
H262 C247 0.961 . S
H263 C247 0.960 . S
C264 C265 1.391 . S
C264 C266 1.394 . S
C264 H280 0.931 . S
C265 C264 1.391 . S
C265 C269 1.376 . S
C266 C264 1.394 . S
C266 C267 1.369 . S
C266 C270 1.531 . S
C267 C266 1.369 . S
C267 C268 1.410 . S
C267 C275 1.503 . S
C268 C267 1.410 . S
C268 C269 1.392 . S
C268 C271 1.511 . S
C269 C265 1.376 . S
C269 C268 1.392 . S
C269 H281 0.929 . S
C270 C266 1.531 . S
C270 H282 0.960 . S
C270 H283 0.962 . S
C270 H284 0.960 . S
C271 C268 1.511 . S
C271 H285 0.961 . S
C271 H286 0.961 . S
C271 H287 0.961 . S
C272 C273 1.370 . S
C272 C274 1.363 . S
C272 H288 0.931 . S
C273 C272 1.370 . S
C273 C277 1.408 . S
C274 C272 1.363 . S
C274 C275 1.370 . S
C274 C278 1.524 . S
C275 C267 1.503 . S
C275 C274 1.370 . S
C275 C276 1.403 . S
C276 C275 1.403 . S
C276 C277 1.404 . S
C276 C279 1.539 . S
C277 C273 1.408 . S
C277 C276 1.404 . S
C277 H289 0.930 . S
C278 C274 1.524 . S
C278 H290 0.956 . S
C278 H291 0.961 . S
C278 H292 0.961 . S
C279 C276 1.539 . S
C279 H293 0.958 . S
C279 H294 0.961 . S
C279 H295 0.960 . S
H280 C264 0.931 . S
H281 C269 0.929 . S
H282 C270 0.960 . S
H283 C270 0.962 . S
H284 C270 0.960 . S
H285 C271 0.961 . S
H286 C271 0.961 . S
H287 C271 0.961 . S
H288 C272 0.931 . S
H289 C277 0.930 . S
H290 C278 0.956 . S
H291 C278 0.961 . S
H292 C278 0.961 . S
H293 C279 0.958 . S
H294 C279 0.961 . S
H295 C279 0.960 . S
C296 C297 1.391 . S
C296 C298 1.394 . S
C296 H312 0.931 . S
C297 C296 1.391 . S
C297 C301 1.376 . S
C298 C296 1.394 . S
C298 C299 1.369 . S
C298 C302 1.531 . S
C299 C298 1.369 . S
C299 C300 1.410 . S
C299 C307 1.503 . S
C300 C299 1.410 . S
C300 C301 1.392 . S
C300 C303 1.511 . S
C301 C297 1.376 . S
C301 C300 1.392 . S
C301 H313 0.929 . S
C302 C298 1.531 . S
C302 H314 0.960 . S
C302 H315 0.962 . S
C302 H316 0.960 . S
C303 C300 1.511 . S
C303 H317 0.961 . S
C303 H318 0.961 . S
C303 H319 0.961 . S
C304 C305 1.370 . S
C304 C306 1.363 . S
C304 H320 0.931 . S
C305 C304 1.370 . S
C305 C309 1.408 . S
C306 C304 1.363 . S
C306 C307 1.370 . S
C306 C310 1.524 . S
C307 C299 1.503 . S
C307 C306 1.370 . S
C307 C308 1.403 . S
C308 C307 1.403 . S
C308 C309 1.404 . S
C308 C311 1.539 . S
C309 C305 1.408 . S
C309 C308 1.404 . S
C309 H321 0.930 . S
C310 C306 1.524 . S
C310 H322 0.956 . S
C310 H323 0.961 . S
C310 H324 0.961 . S
C311 C308 1.539 . S
C311 H325 0.958 . S
C311 H326 0.961 . S
C311 H327 0.960 . S
H312 C296 0.931 . S
H313 C301 0.929 . S
H314 C302 0.960 . S
H315 C302 0.962 . S
H316 C302 0.960 . S
H317 C303 0.961 . S
H318 C303 0.961 . S
H319 C303 0.961 . S
H320 C304 0.931 . S
H321 C309 0.930 . S
H322 C310 0.956 . S
H323 C310 0.961 . S
H324 C310 0.961 . S
H325 C311 0.958 . S
H326 C311 0.961 . S
H327 C311 0.960 . S
C328 C329 1.391 . S
C328 C330 1.394 . S
C328 H344 0.931 . S
C329 C328 1.391 . S
C329 C333 1.376 . S
C330 C328 1.394 . S
C330 C331 1.369 . S
C330 C334 1.531 . S
C331 C330 1.369 . S
C331 C332 1.410 . S
C331 C339 1.503 . S
C332 C331 1.410 . S
C332 C333 1.392 . S
C332 C335 1.511 . S
C333 C329 1.376 . S
C333 C332 1.392 . S
C333 H345 0.929 . S
C334 C330 1.531 . S
C334 H346 0.960 . S
C334 H347 0.962 . S
C334 H348 0.960 . S
C335 C332 1.511 . S
C335 H349 0.961 . S
C335 H350 0.961 . S
C335 H351 0.961 . S
C336 C337 1.370 . S
C336 C338 1.363 . S
C336 H352 0.931 . S
C337 C336 1.370 . S
C337 C341 1.408 . S
C338 C336 1.363 . S
C338 C339 1.370 . S
C338 C342 1.524 . S
C339 C331 1.503 . S
C339 C338 1.370 . S
C339 C340 1.403 . S
C340 C339 1.403 . S
C340 C341 1.404 . S
C340 C343 1.539 . S
C341 C337 1.408 . S
C341 C340 1.404 . S
C341 H353 0.930 . S
C342 C338 1.524 . S
C342 H354 0.956 . S
C342 H355 0.961 . S
C342 H356 0.961 . S
C343 C340 1.539 . S
C343 H357 0.958 . S
C343 H358 0.961 . S
C343 H359 0.960 . S
H344 C328 0.931 . S
H345 C333 0.929 . S
H346 C334 0.960 . S
H347 C334 0.962 . S
H348 C334 0.960 . S
H349 C335 0.961 . S
H350 C335 0.961 . S
H351 C335 0.961 . S
H352 C336 0.931 . S
H353 C341 0.930 . S
H354 C342 0.956 . S
H355 C342 0.961 . S
H356 C342 0.961 . S
H357 C343 0.958 . S
H358 C343 0.961 . S
H359 C343 0.960 . S
C360 C361 1.391 . S
C360 C362 1.394 . S
C360 H376 0.931 . S
C361 C360 1.391 . S
C361 C365 1.376 . S
C362 C360 1.394 . S
C362 C363 1.369 . S
C362 C366 1.531 . S
C363 C362 1.369 . S
C363 C364 1.410 . S
C363 C371 1.503 . S
C364 C363 1.410 . S
C364 C365 1.392 . S
C364 C367 1.511 . S
C365 C361 1.376 . S
C365 C364 1.392 . S
C365 H377 0.929 . S
C366 C362 1.531 . S
C366 H378 0.960 . S
C366 H379 0.962 . S
C366 H380 0.960 . S
C367 C364 1.511 . S
C367 H381 0.961 . S
C367 H382 0.961 . S
C367 H383 0.961 . S
C368 C369 1.370 . S
C368 C370 1.363 . S
C368 H384 0.931 . S
C369 C368 1.370 . S
C369 C373 1.408 . S
C370 C368 1.363 . S
C370 C371 1.370 . S
C370 C374 1.524 . S
C371 C363 1.503 . S
C371 C370 1.370 . S
C371 C372 1.403 . S
C372 C371 1.403 . S
C372 C373 1.404 . S
C372 C375 1.539 . S
C373 C369 1.408 . S
C373 C372 1.404 . S
C373 H385 0.930 . S
C374 C370 1.524 . S
C374 H386 0.956 . S
C374 H387 0.961 . S
C374 H388 0.961 . S
C375 C372 1.539 . S
C375 H389 0.958 . S
C375 H390 0.961 . S
C375 H391 0.960 . S
H376 C360 0.931 . S
H377 C365 0.929 . S
H378 C366 0.960 . S
H379 C366 0.962 . S
H380 C366 0.960 . S
H381 C367 0.961 . S
H382 C367 0.961 . S
H383 C367 0.961 . S
H384 C368 0.931 . S
H385 C373 0.930 . S
H386 C374 0.956 . S
H387 C374 0.961 . S
H388 C374 0.961 . S
H389 C375 0.958 . S
H390 C375 0.961 . S
H391 C375 0.960 . S
C392 C393 1.391 . S
C392 C394 1.394 . S
C392 H408 0.931 . S
C393 C392 1.391 . S
C393 C397 1.376 . S
C394 C392 1.394 . S
C394 C395 1.369 . S
C394 C398 1.531 . S
C395 C394 1.369 . S
C395 C396 1.410 . S
C395 C403 1.503 . S
C396 C395 1.410 . S
C396 C397 1.392 . S
C396 C399 1.511 . S
C397 C393 1.376 . S
C397 C396 1.392 . S
C397 H409 0.929 . S
C398 C394 1.531 . S
C398 H410 0.960 . S
C398 H411 0.962 . S
C398 H412 0.960 . S
C399 C396 1.511 . S
C399 H413 0.961 . S
C399 H414 0.961 . S
C399 H415 0.961 . S
C400 C401 1.370 . S
C400 C402 1.363 . S
C400 H416 0.931 . S
C401 C400 1.370 . S
C401 C405 1.408 . S
C402 C400 1.363 . S
C402 C403 1.370 . S
C402 C406 1.524 . S
C403 C395 1.503 . S
C403 C402 1.370 . S
C403 C404 1.403 . S
C404 C403 1.403 . S
C404 C405 1.404 . S
C404 C407 1.539 . S
C405 C401 1.408 . S
C405 C404 1.404 . S
C405 H417 0.930 . S
C406 C402 1.524 . S
C406 H418 0.956 . S
C406 H419 0.961 . S
C406 H420 0.961 . S
C407 C404 1.539 . S
C407 H421 0.958 . S
C407 H422 0.961 . S
C407 H423 0.960 . S
H408 C392 0.931 . S
H409 C397 0.929 . S
H410 C398 0.960 . S
H411 C398 0.962 . S
H412 C398 0.960 . S
H413 C399 0.961 . S
H414 C399 0.961 . S
H415 C399 0.961 . S
H416 C400 0.931 . S
H417 C405 0.930 . S
H418 C406 0.956 . S
H419 C406 0.961 . S
H420 C406 0.961 . S
H421 C407 0.958 . S
H422 C407 0.961 . S
H423 C407 0.960 . S
C424 C425 1.391 1_556 S
C424 C426 1.394 . S
C424 H440 0.931 . S
C425 C424 1.391 1_554 S
C425 C429 1.376 . S
C426 C424 1.394 . S
C426 C427 1.369 1_556 S
C426 C430 1.531 . S
C427 C426 1.369 1_554 S
C427 C428 1.410 . S
C427 C435 1.503 . S
C428 C427 1.410 . S
C428 C429 1.392 . S
C428 C431 1.511 . S
C429 C425 1.376 . S
C429 C428 1.392 . S
C429 H441 0.929 . S
C430 C426 1.531 . S
C430 H442 0.960 . S
C430 H443 0.962 . S
C430 H444 0.960 . S
C431 C428 1.511 . S
C431 H445 0.961 . S
C431 H446 0.961 . S
C431 H447 0.961 . S
C432 C433 1.370 . S
C432 C434 1.363 . S
C432 H448 0.931 . S
C433 C432 1.370 . S
C433 C437 1.408 1_554 S
C434 C432 1.363 . S
C434 C435 1.370 . S
C434 C438 1.524 . S
C435 C427 1.503 . S
C435 C434 1.370 . S
C435 C436 1.403 1_554 S
C436 C435 1.403 1_556 S
C436 C437 1.404 . S
C436 C439 1.539 . S
C437 C433 1.408 1_556 S
C437 C436 1.404 . S
C437 H449 0.930 . S
C438 C434 1.524 . S
C438 H450 0.956 . S
C438 H451 0.961 . S
C438 H452 0.961 . S
C439 C436 1.539 . S
C439 H453 0.958 . S
C439 H454 0.960 . S
C439 H455 0.960 1_556 S
H440 C424 0.931 . S
H441 C429 0.929 . S
H442 C430 0.960 . S
H443 C430 0.962 . S
H444 C430 0.960 . S
H445 C431 0.961 . S
H446 C431 0.961 . S
H447 C431 0.961 . S
H448 C432 0.931 . S
H449 C437 0.930 . S
H450 C438 0.956 . S
H451 C438 0.961 . S
H452 C438 0.961 . S
H453 C439 0.958 . S
H454 C439 0.960 . S
H455 C439 0.960 1_554 S
C456 C457 1.391 . S
C456 C458 1.394 . S
C456 H472 0.931 . S
C457 C456 1.391 . S
C457 C461 1.376 . S
C458 C456 1.394 . S
C458 C459 1.369 . S
C458 C462 1.531 . S
C459 C458 1.369 . S
C459 C460 1.410 . S
C459 C467 1.503 . S
C460 C459 1.410 . S
C460 C461 1.392 . S
C460 C463 1.511 . S
C461 C457 1.376 . S
C461 C460 1.392 . S
C461 H473 0.929 . S
C462 C458 1.531 . S
C462 H474 0.960 . S
C462 H475 0.962 . S
C462 H476 0.960 . S
C463 C460 1.511 . S
C463 H477 0.961 . S
C463 H478 0.961 . S
C463 H479 0.961 . S
C464 C465 1.370 . S
C464 C466 1.363 . S
C464 H480 0.931 . S
C465 C464 1.370 . S
C465 C469 1.408 . S
C466 C464 1.363 . S
C466 C467 1.370 . S
C466 C470 1.524 . S
C467 C459 1.503 . S
C467 C466 1.370 . S
C467 C468 1.403 . S
C468 C467 1.403 . S
C468 C469 1.404 . S
C468 C471 1.539 . S
C469 C465 1.408 . S
C469 C468 1.404 . S
C469 H481 0.930 . S
C470 C466 1.524 . S
C470 H482 0.956 . S
C470 H483 0.961 . S
C470 H484 0.961 . S
C471 C468 1.539 . S
C471 H485 0.958 . S
C471 H486 0.961 . S
C471 H487 0.960 . S
H472 C456 0.931 . S
H473 C461 0.929 . S
H474 C462 0.960 . S
H475 C462 0.962 . S
H476 C462 0.960 . S
H477 C463 0.961 . S
H478 C463 0.961 . S
H479 C463 0.961 . S
H480 C464 0.931 . S
H481 C469 0.930 . S
H482 C470 0.956 . S
H483 C470 0.961 . S
H484 C470 0.961 . S
H485 C471 0.958 . S
H486 C471 0.961 . S
H487 C471 0.960 . S
C488 C489 1.391 . S
C488 C490 1.394 . S
C488 H504 0.931 . S
C489 C488 1.391 . S
C489 C493 1.376 . S
C490 C488 1.394 . S
C490 C491 1.369 . S
C490 C494 1.531 . S
C491 C490 1.369 . S
C491 C492 1.410 . S
C491 C499 1.503 . S
C492 C491 1.410 . S
C492 C493 1.392 . S
C492 C495 1.511 . S
C493 C489 1.376 . S
C493 C492 1.392 . S
C493 H505 0.929 . S
C494 C490 1.531 . S
C494 H506 0.960 . S
C494 H507 0.962 . S
C494 H508 0.960 . S
C495 C492 1.511 . S
C495 H509 0.961 . S
C495 H510 0.961 . S
C495 H511 0.961 . S
C496 C497 1.370 . S
C496 C498 1.363 . S
C496 H512 0.931 . S
C497 C496 1.370 . S
C497 C501 1.408 . S
C498 C496 1.363 . S
C498 C499 1.370 . S
C498 C502 1.524 . S
C499 C491 1.503 . S
C499 C498 1.370 . S
C499 C500 1.403 . S
C500 C499 1.403 . S
C500 C501 1.404 . S
C500 C503 1.539 . S
C501 C497 1.408 . S
C501 C500 1.404 . S
C501 H513 0.930 . S
C502 C498 1.524 . S
C502 H514 0.956 . S
C502 H515 0.961 . S
C502 H516 0.961 . S
C503 C500 1.539 . S
C503 H517 0.958 . S
C503 H518 0.961 . S
C503 H519 0.960 . S
H504 C488 0.931 . S
H505 C493 0.929 . S
H506 C494 0.960 . S
H507 C494 0.962 . S
H508 C494 0.960 . S
H509 C495 0.961 . S
H510 C495 0.961 . S
H511 C495 0.961 . S
H512 C496 0.931 . S
H513 C501 0.930 . S
H514 C502 0.956 . S
H515 C502 0.961 . S
H516 C502 0.961 . S
H517 C503 0.958 . S
H518 C503 0.961 . S
H519 C503 0.960 . S
C520 C521 1.391 . S
C520 C522 1.394 . S
C520 H536 0.931 . S
C521 C520 1.391 . S
C521 C525 1.376 1_554 S
C522 C520 1.394 . S
C522 C523 1.369 . S
C522 C526 1.531 . S
C523 C522 1.369 . S
C523 C524 1.410 1_554 S
C523 C531 1.503 . S
C524 C523 1.410 1_556 S
C524 C525 1.392 . S
C524 C527 1.511 . S
C525 C521 1.376 1_556 S
C525 C524 1.392 . S
C525 H537 0.929 . S
C526 C522 1.531 . S
C526 H538 0.960 . S
C526 H539 0.962 . S
C526 H540 0.960 . S
C527 C524 1.511 . S
C527 H541 0.961 . S
C527 H542 0.961 . S
C527 H543 0.961 . S
C528 C529 1.370 . S
C528 C530 1.363 . S
C528 H544 0.931 . S
C529 C528 1.370 . S
C529 C533 1.408 1_554 S
C530 C528 1.363 . S
C530 C531 1.370 . S
C530 C534 1.524 . S
C531 C523 1.503 . S
C531 C530 1.370 . S
C531 C532 1.403 1_554 S
C532 C531 1.403 1_556 S
C532 C533 1.404 . S
C532 C535 1.539 . S
C533 C529 1.408 1_556 S
C533 C532 1.404 . S
C533 H545 0.930 . S
C534 C530 1.524 . S
C534 H546 0.956 . S
C534 H547 0.961 . S
C534 H548 0.961 . S
C535 C532 1.539 . S
C535 H549 0.958 . S
C535 H550 0.961 . S
C535 H551 0.960 . S
H536 C520 0.931 . S
H537 C525 0.929 . S
H538 C526 0.960 . S
H539 C526 0.962 . S
H540 C526 0.960 . S
H541 C527 0.961 . S
H542 C527 0.961 . S
H543 C527 0.961 . S
H544 C528 0.931 . S
H545 C533 0.930 . S
H546 C534 0.956 . S
H547 C534 0.961 . S
H548 C534 0.961 . S
H549 C535 0.958 . S
H550 C535 0.961 . S
H551 C535 0.960 . S
C552 C553 1.391 . S
C552 C554 1.394 . S
C552 H568 0.931 . S
C553 C552 1.391 . S
C553 C557 1.376 . S
C554 C552 1.394 . S
C554 C555 1.369 . S
C554 C558 1.540 . S
C555 C554 1.369 . S
C555 C556 1.410 . S
C555 C563 1.503 1_545 S
C556 C555 1.410 . S
C556 C557 1.392 . S
C556 C559 1.511 . S
C557 C553 1.376 . S
C557 C556 1.392 . S
C557 H569 0.929 . S
C558 C554 1.540 . S
C558 H570 0.933 1_545 S
C558 H571 0.960 1_545 S
C558 H572 0.982 . S
C559 C556 1.511 . S
C559 H573 0.961 . S
C559 H574 0.961 . S
C559 H575 0.961 . S
C560 C561 1.370 . S
C560 C562 1.363 . S
C560 H576 0.931 . S
C561 C560 1.370 . S
C561 C565 1.408 . S
C562 C560 1.363 . S
C562 C563 1.370 . S
C562 C566 1.524 . S
C563 C555 1.503 1_565 S
C563 C562 1.370 . S
C563 C564 1.403 . S
C564 C563 1.403 . S
C564 C565 1.404 . S
C564 C567 1.539 . S
C565 C561 1.408 . S
C565 C564 1.404 . S
C565 H577 0.930 . S
C566 C562 1.524 . S
C566 H578 0.956 . S
C566 H579 0.961 1_565 S
C566 H580 0.961 . S
C567 C564 1.539 . S
C567 H581 0.958 . S
C567 H582 0.961 . S
C567 H583 0.960 1_565 S
H568 C552 0.931 . S
H569 C557 0.929 . S
H570 C558 0.933 1_565 S
H571 C558 0.960 1_565 S
H572 C558 0.982 . S
H573 C559 0.961 . S
H574 C559 0.961 . S
H575 C559 0.961 . S
H576 C560 0.931 . S
H577 C565 0.930 . S
H578 C566 0.956 . S
H579 C566 0.961 1_545 S
H580 C566 0.961 . S
H581 C567 0.958 . S
H582 C567 0.961 . S
H583 C567 0.960 1_545 S
C584 C585 1.391 . S
C584 C586 1.394 . S
C584 H600 0.931 . S
C585 C584 1.391 . S
C585 C589 1.376 . S
C586 C584 1.394 . S
C586 C587 1.369 . S
C586 C590 1.531 . S
C587 C586 1.369 . S
C587 C588 1.410 . S
C587 C595 1.503 . S
C588 C587 1.410 . S
C588 C589 1.392 . S
C588 C591 1.511 . S
C589 C585 1.376 . S
C589 C588 1.392 . S
C589 H601 0.929 . S
C590 C586 1.531 . S
C590 H602 0.960 . S
C590 H603 0.962 . S
C590 H604 0.960 . S
C591 C588 1.511 . S
C591 H605 0.961 . S
C591 H606 0.961 . S
C591 H607 0.961 . S
C592 C593 1.370 . S
C592 C594 1.363 . S
C592 H608 0.931 . S
C593 C592 1.370 . S
C593 C597 1.408 . S
C594 C592 1.363 . S
C594 C595 1.370 . S
C594 C598 1.524 . S
C595 C587 1.503 . S
C595 C594 1.370 . S
C595 C596 1.403 . S
C596 C595 1.403 . S
C596 C597 1.404 . S
C596 C599 1.539 . S
C597 C593 1.408 . S
C597 C596 1.404 . S
C597 H609 0.930 . S
C598 C594 1.524 . S
C598 H610 0.956 . S
C598 H611 0.961 . S
C598 H612 0.961 . S
C599 C596 1.539 . S
C599 H613 0.958 . S
C599 H614 0.961 . S
C599 H615 0.960 . S
H600 C584 0.931 . S
H601 C589 0.929 . S
H602 C590 0.960 . S
H603 C590 0.962 . S
H604 C590 0.960 . S
H605 C591 0.961 . S
H606 C591 0.961 . S
H607 C591 0.961 . S
H608 C592 0.931 . S
H609 C597 0.930 . S
H610 C598 0.956 . S
H611 C598 0.961 . S
H612 C598 0.961 . S
H613 C599 0.958 . S
H614 C599 0.961 . S
H615 C599 0.960 . S
C616 C617 1.391 . S
C616 C618 1.394 . S
C616 H632 0.931 1_556 S
C617 C616 1.391 . S
C617 C621 1.376 . S
C618 C616 1.394 . S
C618 C619 1.369 . S
C618 C622 1.505 1_656 S
C619 C618 1.369 . S
C619 C620 1.410 . S
C619 C627 1.503 1_655 S
C620 C619 1.410 . S
C620 C621 1.392 . S
C620 C623 1.511 . S
C621 C617 1.376 . S
C621 C620 1.392 . S
C621 H633 0.929 . S
C622 C618 1.505 1_454 S
C622 H634 0.978 1_554 S
C622 H635 0.965 . S
C622 H636 0.966 1_455 S
C623 C620 1.511 . S
C623 H637 0.961 . S
C623 H638 0.961 . S
C623 H639 0.961 . S
C624 C625 1.370 1_554 S
C624 C626 1.363 . S
C624 H640 0.931 . S
C625 C624 1.370 1_556 S
C625 C629 1.408 . S
C626 C624 1.363 . S
C626 C627 1.370 1_554 S
C626 C630 1.524 . S
C627 C619 1.503 1_455 S
C627 C626 1.370 1_556 S
C627 C628 1.403 . S
C628 C627 1.403 . S
C628 C629 1.404 . S
C628 C631 1.539 . S
C629 C625 1.408 . S
C629 C628 1.404 . S
C629 H641 0.930 . S
C630 C626 1.524 . S
C630 H642 0.950 . S
C630 H643 0.961 1_455 S
C630 H644 0.961 . S
C631 C628 1.539 . S
C631 H645 0.958 . S
C631 H646 0.961 . S
C631 H647 0.960 . S
H632 C616 0.931 1_554 S
H633 C621 0.929 . S
H634 C622 0.978 1_556 S
H635 C622 0.965 . S
H636 C622 0.966 1_655 S
H637 C623 0.961 . S
H638 C623 0.961 . S
H639 C623 0.961 . S
H640 C624 0.931 . S
H641 C629 0.930 . S
H642 C630 0.950 . S
H643 C630 0.961 1_655 S
H644 C630 0.961 . S
H645 C631 0.958 . S
H646 C631 0.961 . S
H647 C631 0.960 . S
C648 C649 1.391 . S
C648 C650 1.394 . S
C648 H664 0.931 . S
C649 C648 1.391 . S
C649 C653 1.376 . S
C650 C648 1.394 . S
C650 C651 1.369 . S
C650 C654 1.531 . S
C651 C650 1.369 . S
C651 C652 1.410 . S
C651 C659 1.503 1_455 S
C652 C651 1.410 . S
C652 C653 1.392 . S
C652 C655 1.511 . S
C653 C649 1.376 . S
C653 C652 1.392 . S
C653 H665 0.929 . S
C654 C650 1.531 . S
C654 H666 0.960 1_455 S
C654 H667 0.962 . S
C654 H668 0.960 . S
C655 C652 1.511 . S
C655 H669 0.961 . S
C655 H670 0.961 . S
C655 H671 0.961 . S
C656 C657 1.370 . S
C656 C658 1.363 . S
C656 H672 0.931 . S
C657 C656 1.370 . S
C657 C661 1.408 . S
C658 C656 1.363 . S
C658 C659 1.370 . S
C658 C662 1.522 1_655 S
C659 C651 1.503 1_655 S
C659 C658 1.370 . S
C659 C660 1.403 . S
C660 C659 1.403 . S
C660 C661 1.404 . S
C660 C663 1.539 . S
C661 C657 1.408 . S
C661 C660 1.404 . S
C661 H673 0.930 . S
C662 C658 1.522 1_455 S
C662 H674 0.960 . S
C662 H675 0.964 . S
C662 H676 0.955 1_455 S
C663 C660 1.539 . S
C663 H677 0.958 . S
C663 H678 0.961 . S
C663 H679 0.960 . S
H664 C648 0.931 . S
H665 C653 0.929 . S
H666 C654 0.960 1_655 S
H667 C654 0.962 . S
H668 C654 0.960 . S
H669 C655 0.961 . S
H670 C655 0.961 . S
H671 C655 0.961 . S
H672 C656 0.931 . S
H673 C661 0.930 . S
H674 C662 0.960 . S
H675 C662 0.964 . S
H676 C662 0.955 1_655 S
H677 C663 0.958 . S
H678 C663 0.961 . S
H679 C663 0.960 . S
C680 C681 1.391 . S
C680 C682 1.394 . S
C680 H696 0.931 . S
C681 C680 1.391 . S
C681 C685 1.376 . S
C682 C680 1.394 . S
C682 C683 1.369 . S
C682 C686 1.531 . S
C683 C682 1.369 . S
C683 C684 1.410 . S
C683 C691 1.503 1_545 S
C684 C683 1.410 . S
C684 C685 1.392 . S
C684 C687 1.511 . S
C685 C681 1.376 . S
C685 C684 1.392 . S
C685 H697 0.929 . S
C686 C682 1.531 . S
C686 H698 0.960 1_545 S
C686 H699 0.962 1_545 S
C686 H700 0.960 . S
C687 C684 1.511 . S
C687 H701 0.961 . S
C687 H702 0.961 . S
C687 H703 0.961 . S
C688 C689 1.370 . S
C688 C690 1.363 . S
C688 H704 0.931 . S
C689 C688 1.370 . S
C689 C693 1.408 . S
C690 C688 1.363 . S
C690 C691 1.370 . S
C690 C694 1.524 . S
C691 C683 1.503 1_565 S
C691 C690 1.370 . S
C691 C692 1.403 . S
C692 C691 1.403 . S
C692 C693 1.404 . S
C692 C695 1.539 . S
C693 C689 1.408 . S
C693 C692 1.404 . S
C693 H705 0.930 . S
C694 C690 1.524 . S
C694 H706 0.956 . S
C694 H707 0.946 1_565 S
C694 H708 0.961 . S
C695 C692 1.539 . S
C695 H709 0.958 . S
C695 H710 0.961 . S
C695 H711 0.960 1_565 S
H696 C680 0.931 . S
H697 C685 0.929 . S
H698 C686 0.960 1_565 S
H699 C686 0.962 1_565 S
H700 C686 0.960 . S
H701 C687 0.961 . S
H702 C687 0.961 . S
H703 C687 0.961 . S
H704 C688 0.931 . S
H705 C693 0.930 . S
H706 C694 0.956 . S
H707 C694 0.946 1_545 S
H708 C694 0.961 . S
H709 C695 0.958 . S
H710 C695 0.961 . S
H711 C695 0.960 1_545 S
C712 C713 1.391 . S
C712 C714 1.394 . S
C712 H728 0.931 . S
C713 C712 1.391 . S
C713 C717 1.376 . S
C714 C712 1.394 . S
C714 C715 1.369 . S
C714 C718 1.531 . S
C715 C714 1.369 . S
C715 C716 1.410 . S
C715 C723 1.503 . S
C716 C715 1.410 . S
C716 C717 1.392 . S
C716 C719 1.511 . S
C717 C713 1.376 . S
C717 C716 1.392 . S
C717 H729 0.929 . S
C718 C714 1.531 . S
C718 H730 0.960 . S
C718 H731 0.962 . S
C718 H732 0.960 . S
C719 C716 1.511 . S
C719 H733 0.961 . S
C719 H734 0.961 . S
C719 H735 0.975 . S
C720 C721 1.370 . S
C720 C722 1.363 . S
C720 H736 0.931 . S
C721 C720 1.370 . S
C721 C725 1.408 1_554 S
C722 C720 1.363 . S
C722 C723 1.370 . S
C722 C726 1.524 . S
C723 C715 1.503 . S
C723 C722 1.370 . S
C723 C724 1.403 1_554 S
C724 C723 1.403 1_556 S
C724 C725 1.404 . S
C724 C727 1.539 . S
C725 C721 1.408 1_556 S
C725 C724 1.404 . S
C725 H737 0.930 . S
C726 C722 1.524 . S
C726 H738 0.956 . S
C726 H739 0.961 . S
C726 H740 0.961 . S
C727 C724 1.539 . S
C727 H741 0.958 . S
C727 H742 0.961 . S
C727 H743 0.960 . S
H728 C712 0.931 . S
H729 C717 0.929 . S
H730 C718 0.960 . S
H731 C718 0.962 . S
H732 C718 0.960 . S
H733 C719 0.961 . S
H734 C719 0.961 . S
H735 C719 0.975 . S
H736 C720 0.931 . S
H737 C725 0.930 . S
H738 C726 0.956 . S
H739 C726 0.961 . S
H740 C726 0.961 . S
H741 C727 0.958 . S
H742 C727 0.961 . S
H743 C727 0.960 . S
C744 C745 1.391 . S
C744 C746 1.394 . S
C744 H760 0.931 . S
C745 C744 1.391 . S
C745 C749 1.376 . S
C746 C744 1.394 . S
C746 C747 1.369 . S
C746 C750 1.531 . S
C747 C746 1.369 . S
C747 C748 1.410 . S
C747 C755 1.503 . S
C748 C747 1.410 . S
C748 C749 1.392 . S
C748 C751 1.511 . S
C749 C745 1.376 . S
C749 C748 1.392 . S
C749 H761 0.929 . S
C750 C746 1.531 . S
C750 H762 0.960 . S
C750 H763 0.962 . S
C750 H764 0.960 . S
C751 C748 1.511 . S
C751 H765 0.961 . S
C751 H766 0.961 . S
C751 H767 0.961 . S
C752 C753 1.370 . S
C752 C754 1.363 . S
C752 H768 0.931 . S
C753 C752 1.370 . S
C753 C757 1.408 . S
C754 C752 1.363 . S
C754 C755 1.370 . S
C754 C758 1.524 . S
C755 C747 1.503 . S
C755 C754 1.370 . S
C755 C756 1.403 . S
C756 C755 1.403 . S
C756 C757 1.404 . S
C756 C759 1.539 . S
C757 C753 1.408 . S
C757 C756 1.404 . S
C757 H769 0.930 . S
C758 C754 1.524 . S
C758 H770 0.956 . S
C758 H771 0.961 . S
C758 H772 0.961 . S
C759 C756 1.539 . S
C759 H773 0.958 . S
C759 H774 0.961 . S
C759 H775 0.960 . S
H760 C744 0.931 . S
H761 C749 0.929 . S
H762 C750 0.960 . S
H763 C750 0.962 . S
H764 C750 0.960 . S
H765 C751 0.961 . S
H766 C751 0.961 . S
H767 C751 0.961 . S
H768 C752 0.931 . S
H769 C757 0.930 . S
H770 C758 0.956 . S
H771 C758 0.961 . S
H772 C758 0.961 . S
H773 C759 0.958 . S
H774 C759 0.961 . S
H775 C759 0.960 . S
C776 C777 1.391 . S
C776 C778 1.394 . S
C776 H792 0.931 . S
C777 C776 1.391 . S
C777 C781 1.376 . S
C778 C776 1.394 . S
C778 C779 1.369 . S
C778 C782 1.531 . S
C779 C778 1.369 . S
C779 C780 1.410 . S
C779 C787 1.503 . S
C780 C779 1.410 . S
C780 C781 1.392 . S
C780 C783 1.511 . S
C781 C777 1.376 . S
C781 C780 1.392 . S
C781 H793 0.929 . S
C782 C778 1.531 . S
C782 H794 0.960 . S
C782 H795 0.962 . S
C782 H796 0.960 . S
C783 C780 1.511 . S
C783 H797 0.961 . S
C783 H798 0.961 . S
C783 H799 0.961 . S
C784 C785 1.370 . S
C784 C786 1.363 . S
C784 H800 0.931 . S
C785 C784 1.370 . S
C785 C789 1.408 . S
C786 C784 1.363 . S
C786 C787 1.370 . S
C786 C790 1.524 . S
C787 C779 1.503 . S
C787 C786 1.370 . S
C787 C788 1.403 . S
C788 C787 1.403 . S
C788 C789 1.404 . S
C788 C791 1.539 . S
C789 C785 1.408 . S
C789 C788 1.404 . S
C789 H801 0.930 . S
C790 C786 1.524 . S
C790 H802 0.956 . S
C790 H803 0.961 . S
C790 H804 0.961 . S
C791 C788 1.539 . S
C791 H805 0.958 . S
C791 H806 0.961 . S
C791 H807 0.960 . S
H792 C776 0.931 . S
H793 C781 0.929 . S
H794 C782 0.960 . S
H795 C782 0.962 . S
H796 C782 0.960 . S
H797 C783 0.961 . S
H798 C783 0.961 . S
H799 C783 0.961 . S
H800 C784 0.931 . S
H801 C789 0.930 . S
H802 C790 0.956 . S
H803 C790 0.961 . S
H804 C790 0.961 . S
H805 C791 0.958 . S
H806 C791 0.961 . S
H807 C791 0.960 . S
C808 C809 1.391 . S
C808 C810 1.394 . S
C808 H824 0.931 . S
C809 C808 1.391 . S
C809 C813 1.376 . S
C810 C808 1.394 . S
C810 C811 1.369 . S
C810 C814 1.531 . S
C811 C810 1.369 . S
C811 C812 1.410 . S
C811 C819 1.503 . S
C812 C811 1.410 . S
C812 C813 1.392 . S
C812 C815 1.511 . S
C813 C809 1.376 . S
C813 C812 1.392 . S
C813 H825 0.929 . S
C814 C810 1.531 . S
C814 H826 0.960 . S
C814 H827 0.962 . S
C814 H828 0.960 . S
C815 C812 1.511 . S
C815 H829 0.961 . S
C815 H830 0.961 . S
C815 H831 0.961 . S
C816 C817 1.370 . S
C816 C818 1.363 . S
C816 H832 0.931 . S
C817 C816 1.370 . S
C817 C821 1.408 . S
C818 C816 1.363 . S
C818 C819 1.370 . S
C818 C822 1.524 . S
C819 C811 1.503 . S
C819 C818 1.370 . S
C819 C820 1.403 . S
C820 C819 1.403 . S
C820 C821 1.404 . S
C820 C823 1.539 . S
C821 C817 1.408 . S
C821 C820 1.404 . S
C821 H833 0.930 . S
C822 C818 1.524 . S
C822 H834 0.956 . S
C822 H835 0.961 . S
C822 H836 0.961 . S
C823 C820 1.539 . S
C823 H837 0.958 . S
C823 H838 0.961 . S
C823 H839 0.960 . S
H824 C808 0.931 . S
H825 C813 0.929 . S
H826 C814 0.960 . S
H827 C814 0.962 . S
H828 C814 0.960 . S
H829 C815 0.961 . S
H830 C815 0.961 . S
H831 C815 0.961 . S
H832 C816 0.931 . S
H833 C821 0.930 . S
H834 C822 0.956 . S
H835 C822 0.961 . S
H836 C822 0.961 . S
H837 C823 0.958 . S
H838 C823 0.961 . S
H839 C823 0.960 . S
C840 C841 1.391 . S
C840 C842 1.394 . S
C840 H856 0.931 . S
C841 C840 1.391 . S
C841 C845 1.376 . S
C842 C840 1.394 . S
C842 C843 1.369 . S
C842 C846 1.531 . S
C843 C842 1.369 . S
C843 C844 1.410 . S
C843 C851 1.503 . S
C844 C843 1.410 . S
C844 C845 1.392 . S
C844 C847 1.511 . S
C845 C841 1.376 . S
C845 C844 1.392 . S
C845 H857 0.929 . S
C846 C842 1.531 . S
C846 H858 0.960 . S
C846 H859 0.962 . S
C846 H860 0.960 . S
C847 C844 1.511 . S
C847 H861 0.961 . S
C847 H862 0.961 . S
C847 H863 0.961 . S
C848 C849 1.370 . S
C848 C850 1.363 . S
C848 H864 0.931 . S
C849 C848 1.370 . S
C849 C853 1.408 . S
C850 C848 1.363 . S
C850 C851 1.370 . S
C850 C854 1.524 . S
C851 C843 1.503 . S
C851 C850 1.370 . S
C851 C852 1.403 . S
C852 C851 1.403 . S
C852 C853 1.404 . S
C852 C855 1.539 . S
C853 C849 1.408 . S
C853 C852 1.404 . S
C853 H865 0.930 . S
C854 C850 1.524 . S
C854 H866 0.956 . S
C854 H867 0.961 . S
C854 H868 0.961 . S
C855 C852 1.539 . S
C855 H869 0.958 . S
C855 H870 0.961 . S
C855 H871 0.960 . S
H856 C840 0.931 . S
H857 C845 0.929 . S
H858 C846 0.960 . S
H859 C846 0.962 . S
H860 C846 0.960 . S
H861 C847 0.961 . S
H862 C847 0.961 . S
H863 C847 0.961 . S
H864 C848 0.931 . S
H865 C853 0.930 . S
H866 C854 0.956 . S
H867 C854 0.961 . S
H868 C854 0.961 . S
H869 C855 0.958 . S
H870 C855 0.961 . S
H871 C855 0.960 . S
C872 C873 1.391 . S
C872 C874 1.394 . S
C872 H888 0.931 . S
C873 C872 1.391 . S
C873 C877 1.376 . S
C874 C872 1.394 . S
C874 C875 1.369 . S
C874 C878 1.531 . S
C875 C874 1.369 . S
C875 C876 1.410 . S
C875 C883 1.503 . S
C876 C875 1.410 . S
C876 C877 1.392 . S
C876 C879 1.511 . S
C877 C873 1.376 . S
C877 C876 1.392 . S
C877 H889 0.929 . S
C878 C874 1.531 . S
C878 H890 0.960 . S
C878 H891 0.962 . S
C878 H892 0.960 . S
C879 C876 1.511 . S
C879 H893 0.961 . S
C879 H894 0.961 . S
C879 H895 0.961 . S
C880 C881 1.370 . S
C880 C882 1.363 . S
C880 H896 0.931 . S
C881 C880 1.370 . S
C881 C885 1.408 . S
C882 C880 1.363 . S
C882 C883 1.370 . S
C882 C886 1.524 . S
C883 C875 1.503 . S
C883 C882 1.370 . S
C883 C884 1.403 . S
C884 C883 1.403 . S
C884 C885 1.404 . S
C884 C887 1.539 . S
C885 C881 1.408 . S
C885 C884 1.404 . S
C885 H897 0.930 . S
C886 C882 1.524 . S
C886 H898 0.956 . S
C886 H899 0.961 . S
C886 H900 0.961 . S
C887 C884 1.539 . S
C887 H901 0.958 . S
C887 H902 0.961 . S
C887 H903 0.960 . S
H888 C872 0.931 . S
H889 C877 0.929 . S
H890 C878 0.960 . S
H891 C878 0.962 . S
H892 C878 0.960 . S
H893 C879 0.961 . S
H894 C879 0.961 . S
H895 C879 0.961 . S
H896 C880 0.931 . S
H897 C885 0.930 . S
H898 C886 0.956 . S
H899 C886 0.961 . S
H900 C886 0.961 . S
H901 C887 0.958 . S
H902 C887 0.961 . S
H903 C887 0.960 . S
C904 C905 1.391 . S
C904 C906 1.394 . S
C904 H920 0.931 . S
C905 C904 1.391 . S
C905 C909 1.376 . S
C906 C904 1.394 . S
C906 C907 1.369 . S
C906 C910 1.531 . S
C907 C906 1.369 . S
C907 C908 1.410 . S
C907 C915 1.503 . S
C908 C907 1.410 . S
C908 C909 1.392 . S
C908 C911 1.511 . S
C909 C905 1.376 . S
C909 C908 1.392 . S
C909 H921 0.929 . S
C910 C906 1.531 . S
C910 H922 0.960 . S
C910 H923 0.962 . S
C910 H924 0.960 . S
C911 C908 1.511 . S
C911 H925 0.961 . S
C911 H926 0.961 . S
C911 H927 0.961 . S
C912 C913 1.370 . S
C912 C914 1.363 . S
C912 H928 0.931 . S
C913 C912 1.370 . S
C913 C917 1.408 . S
C914 C912 1.363 . S
C914 C915 1.370 . S
C914 C918 1.524 . S
C915 C907 1.503 . S
C915 C914 1.370 . S
C915 C916 1.403 . S
C916 C915 1.403 . S
C916 C917 1.404 . S
C916 C919 1.539 . S
C917 C913 1.408 . S
C917 C916 1.404 . S
C917 H929 0.930 . S
C918 C914 1.524 . S
C918 H930 0.956 . S
C918 H931 0.961 . S
C918 H932 0.961 . S
C919 C916 1.539 . S
C919 H933 0.958 . S
C919 H934 0.961 . S
C919 H935 0.960 . S
H920 C904 0.931 . S
H921 C909 0.929 . S
H922 C910 0.960 . S
H923 C910 0.962 . S
H924 C910 0.960 . S
H925 C911 0.961 . S
H926 C911 0.961 . S
H927 C911 0.961 . S
H928 C912 0.931 . S
H929 C917 0.930 . S
H930 C918 0.956 . S
H931 C918 0.961 . S
H932 C918 0.961 . S
H933 C919 0.958 . S
H934 C919 0.961 . S
H935 C919 0.960 . S
C169 C8 1.586 . S
C177 C148 1.603 . S
C201 C22 1.602 . S
C209 C162 1.597 . S
C233 C92 1.614 . S
C241 C36 1.592 . S
C265 C50 1.576 . S
C273 C106 1.608 . S
C297 C120 1.635 . S
C305 C64 1.587 . S
C329 C134 1.616 . S
C337 C78 1.604 . S
C361 C93 0.861 . S
C369 C9 0.840 . S
C393 C107 0.849 . S
C401 C23 0.834 . S
C425 C121 0.869 . S
C433 C37 0.844 . S
C457 C51 0.796 . S
C465 C135 0.815 . S
C489 C65 0.831 . S
C497 C149 0.826 . S
C521 C79 0.852 . S
C529 C163 0.838 . S
C553 C6 1.396 . S
C561 C48 1.408 . S
C585 C20 1.404 . S
C593 C62 1.407 . S
C617 C34 1.416 . S
C625 C76 1.400 . S
C649 C132 1.425 . S
C657 C90 1.393 . S
C681 C146 1.394 . S
C689 C104 1.408 . S
C713 C160 1.384 . S
C721 C118 1.389 . S
C745 C7 1.310 . S
C753 C119 1.343 . S
C777 C133 1.365 . S
C785 C21 1.343 . S
C809 C35 1.313 . S
C817 C147 1.347 . S
C841 C161 1.311 . S
C849 C49 1.345 . S
C873 C63 1.328 . S
C881 C91 1.330 . S
C905 C77 1.320 . S
C913 C105 1.350 . S
