# Generated by pormake.
# Topology uoj, (4)-cn, num edge types: 1
# Building blocks:
#     Node 0, Type 0, BuildingBlock: CEKHIL_clean_sbu_0, # of connection points: 4
#     Node 1, Type 0, BuildingBlock: CEKHIL_clean_sbu_0, # of connection points: 4
#     Node 2, Type 0, BuildingBlock: CEKHIL_clean_sbu_0, # of connection points: 4
#     Node 3, Type 0, BuildingBlock: CEKHIL_clean_sbu_0, # of connection points: 4
#     Node 4, Type 0, BuildingBlock: CEKHIL_clean_sbu_0, # of connection points: 4
#     Node 5, Type 0, BuildingBlock: CEKHIL_clean_sbu_0, # of connection points: 4
#     Node 6, Type 0, BuildingBlock: CEKHIL_clean_sbu_0, # of connection points: 4
#     Node 7, Type 0, BuildingBlock: CEKHIL_clean_sbu_0, # of connection points: 4
#     Edge 8, Type (0, 0), BuildingBlock: UVAHIK_clean_linker_0, # of connection points: 2
#     Edge 9, Type (0, 0), BuildingBlock: UVAHIK_clean_linker_0, # of connection points: 2
#     Edge 10, Type (0, 0), BuildingBlock: UVAHIK_clean_linker_0, # of connection points: 2
#     Edge 11, Type (0, 0), BuildingBlock: UVAHIK_clean_linker_0, # of connection points: 2
#     Edge 12, Type (0, 0), BuildingBlock: UVAHIK_clean_linker_0, # of connection points: 2
#     Edge 13, Type (0, 0), BuildingBlock: UVAHIK_clean_linker_0, # of connection points: 2
#     Edge 14, Type (0, 0), BuildingBlock: UVAHIK_clean_linker_0, # of connection points: 2
#     Edge 15, Type (0, 0), BuildingBlock: UVAHIK_clean_linker_0, # of connection points: 2
#     Edge 16, Type (0, 0), BuildingBlock: UVAHIK_clean_linker_0, # of connection points: 2
#     Edge 17, Type (0, 0), BuildingBlock: UVAHIK_clean_linker_0, # of connection points: 2
#     Edge 18, Type (0, 0), BuildingBlock: UVAHIK_clean_linker_0, # of connection points: 2
#     Edge 19, Type (0, 0), BuildingBlock: UVAHIK_clean_linker_0, # of connection points: 2
#     Edge 20, Type (0, 0), BuildingBlock: UVAHIK_clean_linker_0, # of connection points: 2
#     Edge 21, Type (0, 0), BuildingBlock: UVAHIK_clean_linker_0, # of connection points: 2
#     Edge 22, Type (0, 0), BuildingBlock: UVAHIK_clean_linker_0, # of connection points: 2
#     Edge 23, Type (0, 0), BuildingBlock: UVAHIK_clean_linker_0, # of connection points: 2
# Relax obj value: 0.110
# Max RMSD: 0.137
# Mean RMSD: 0.135
data_MOF--net-uoj--node1-CEKHIL_clean_sbu_0--edge1-UVAHIK_clean_linker_0
_symmetry_space_group_name_H-M    P1
_symmetry_Int_Tables_number       1
_symmetry_cell_setting            triclinic
loop_
_symmetry_equiv_pos_as_xyz
'x, y, z'
_cell_length_a     42.616624
_cell_length_b     42.400869
_cell_length_c     45.218614
_cell_angle_alpha  90.020082
_cell_angle_beta   89.920926
_cell_angle_gamma 89.057997
loop_
_atom_site_label
_atom_site_type_symbol
_atom_site_fract_x
_atom_site_fract_y
_atom_site_fract_z
_atom_type_partial_charge
Co0 Co 0.08182 0.29396 0.44007 0.0
O1 O 0.11087 0.31806 0.41702 0.0
O2 O 0.06221 0.30686 0.40364 0.0
C3 C 0.11454 0.25416 0.45209 0.0
O4 O 0.04559 0.26912 0.45691 0.0
Co5 Co 0.09183 0.28341 0.50716 0.0
O6 O 0.05767 0.25247 0.5027 0.0
C7 C 0.06759 0.34475 0.48643 0.0
C8 C 0.08869 0.32012 0.39739 0.0
C9 C 0.03981 0.25266 0.4801 0.0
O10 O 0.06629 0.33343 0.46011 0.0
O11 O 0.07892 0.32928 0.50838 0.0
O12 O 0.10094 0.25481 0.4264 0.0
O13 O 0.11081 0.27919 0.46822 0.0
Co14 Co 0.28991 0.90872 0.56263 0.0
O15 O 0.24801 0.89533 0.5694 0.0
O16 O 0.27314 0.89034 0.5267 0.0
C17 C 0.30895 0.88799 0.60489 0.0
O18 O 0.33381 0.91951 0.54825 0.0
Co19 Co 0.32115 0.95455 0.60743 0.0
O20 O 0.35977 0.93886 0.5874 0.0
C21 C 0.27378 0.97858 0.56476 0.0
C22 C 0.24774 0.88598 0.54214 0.0
C23 C 0.35922 0.92797 0.56114 0.0
O24 O 0.27365 0.95188 0.55116 0.0
O25 O 0.28927 0.98336 0.58857 0.0
O26 O 0.30665 0.87021 0.58158 0.0
O27 O 0.29815 0.91633 0.60219 0.0
Co28 Co 0.91382 0.69983 0.43825 0.0
O29 O 0.88451 0.67802 0.4135 0.0
O30 O 0.93455 0.68611 0.40267 0.0
C31 C 0.88294 0.74144 0.44949 0.0
O32 O 0.95084 0.72189 0.45671 0.0
Co33 Co 0.90166 0.71121 0.50498 0.0
O34 O 0.93852 0.73911 0.50226 0.0
C35 C 0.92178 0.64812 0.48472 0.0
C36 C 0.90767 0.67473 0.39494 0.0
C37 C 0.95712 0.73762 0.48019 0.0
O38 O 0.92547 0.65916 0.45849 0.0
O39 O 0.91072 0.66455 0.50622 0.0
O40 O 0.89787 0.74039 0.42442 0.0
O41 O 0.88452 0.71612 0.46542 0.0
Co42 Co 0.70536 0.08479 0.56297 0.0
O43 O 0.7471 0.09803 0.57161 0.0
O44 O 0.72389 0.10313 0.52799 0.0
C45 C 0.68302 0.10494 0.60417 0.0
O46 O 0.66233 0.07442 0.54632 0.0
Co47 Co 0.67217 0.03756 0.60517 0.0
O48 O 0.63456 0.05218 0.58301 0.0
C49 C 0.72187 0.0148 0.56452 0.0
C50 C 0.7487 0.10709 0.54426 0.0
C51 C 0.63649 0.06454 0.55741 0.0
O52 O 0.72216 0.0418 0.55154 0.0
O53 O 0.70542 0.00925 0.58761 0.0
O54 O 0.68776 0.1231 0.58147 0.0
O55 O 0.69431 0.07668 0.60199 0.0
Co56 Co 0.41265 0.79119 0.94146 0.0
O57 O 0.38437 0.81148 0.91398 0.0
O58 O 0.43499 0.80151 0.90597 0.0
C59 C 0.38173 0.75086 0.95353 0.0
O60 O 0.44894 0.76978 0.96274 0.0
Co61 Co 0.39809 0.78514 0.00793 0.0
O62 O 0.43541 0.75655 0.00897 0.0
C63 C 0.41975 0.84593 0.98486 0.0
C64 C 0.40829 0.81229 0.89612 0.0
C65 C 0.45469 0.7559 0.98742 0.0
O66 O 0.42322 0.83304 0.95932 0.0
O67 O 0.40844 0.83136 0.00717 0.0
O68 O 0.39811 0.7504 0.92931 0.0
O69 O 0.38192 0.77706 0.96839 0.0
Co70 Co 0.79347 0.57806 0.06046 0.0
O71 O 0.81603 0.60753 0.08443 0.0
O72 O 0.80636 0.55791 0.09664 0.0
C73 C 0.75294 0.60996 0.0488 0.0
O74 O 0.77038 0.54111 0.04272 0.0
Co75 Co 0.78403 0.58876 0.99362 0.0
O76 O 0.75499 0.55277 0.99652 0.0
C77 C 0.84537 0.56605 0.01484 0.0
C78 C 0.81852 0.58481 0.10361 0.0
C79 C 0.75519 0.53466 0.019 0.0
O80 O 0.83358 0.56427 0.04091 0.0
O81 O 0.83005 0.57694 0.99264 0.0
O82 O 0.75392 0.59546 0.07407 0.0
O83 O 0.77801 0.60754 0.03259 0.0
Co84 Co 0.58366 0.19846 0.94361 0.0
O85 O 0.61305 0.17873 0.91675 0.0
O86 O 0.56271 0.18812 0.90732 0.0
C87 C 0.61383 0.23887 0.95703 0.0
O88 O 0.54665 0.21977 0.96413 0.0
Co89 Co 0.59636 0.20311 0.01055 0.0
O90 O 0.55828 0.23062 0.01145 0.0
C91 C 0.57455 0.14311 0.98617 0.0
C92 C 0.58989 0.1778 0.8981 0.0
C93 C 0.54 0.23242 0.98924 0.0
O94 O 0.57236 0.15643 0.96072 0.0
O95 O 0.58532 0.15712 0.009 0.0
O96 O 0.59845 0.23942 0.93229 0.0
O97 O 0.61339 0.21245 0.97153 0.0
Co98 Co 0.20271 0.4126 0.06095 0.0
O99 O 0.18353 0.38307 0.08751 0.0
O100 O 0.19011 0.43397 0.09665 0.0
C101 C 0.24482 0.38309 0.04867 0.0
O102 O 0.22222 0.45002 0.04043 0.0
Co103 Co 0.21057 0.3988 0.99429 0.0
O104 O 0.23754 0.43655 0.9946 0.0
C105 C 0.14851 0.41818 0.01692 0.0
C106 C 0.18024 0.40674 0.10559 0.0
C107 C 0.2366 0.45594 0.01613 0.0
O108 O 0.1608 0.42229 0.04254 0.0
O109 O 0.16396 0.40718 0.9948 0.0
O110 O 0.24424 0.39895 0.07324 0.0
O111 O 0.21882 0.38268 0.03386 0.0
C112 C 0.1741 0.42408 0.15802 0.0
C113 C 0.16698 0.40264 0.1354 0.0
C114 C 0.16335 0.41906 0.18679 0.0
C115 C 0.1032 0.38288 0.23095 0.0
H116 H 0.16718 0.37062 0.29091 0.0
C117 C 0.07574 0.32729 0.34405 0.0
C118 C 0.09403 0.33533 0.3686 0.0
C119 C 0.08279 0.33922 0.31609 0.0
C120 C 0.14886 0.3747 0.27474 0.0
H121 H 0.1422 0.35988 0.12472 0.0
H122 H 0.12255 0.35168 0.17504 0.0
H123 H 0.18236 0.38532 0.24095 0.0
H124 H 0.13284 0.36347 0.38369 0.0
H125 H 0.14422 0.38564 0.33524 0.0
H126 H 0.06952 0.37308 0.26461 0.0
C127 C 0.13675 0.37208 0.17045 0.0
C128 C 0.15767 0.38289 0.24606 0.0
C129 C 0.14809 0.37669 0.1418 0.0
C130 C 0.11859 0.35663 0.36501 0.0
C131 C 0.12524 0.3691 0.33716 0.0
C132 C 0.09427 0.37534 0.2598 0.0
C133 C 0.14471 0.39297 0.19321 0.0
C134 C 0.13496 0.38657 0.22389 0.0
C135 C 0.10792 0.35997 0.31217 0.0
C136 C 0.11703 0.37062 0.282 0.0
H137 H 0.18873 0.44421 0.15367 0.0
H138 H 0.16973 0.43544 0.20409 0.0
H139 H 0.08532 0.38586 0.21413 0.0
H140 H 0.05677 0.31075 0.34621 0.0
H141 H 0.0692 0.33116 0.29743 0.0
C142 C 0.31632 0.89496 0.65857 0.0
C143 C 0.32341 0.87775 0.63286 0.0
C144 C 0.33049 0.88724 0.68527 0.0
C145 C 0.37237 0.82406 0.7254 0.0
H146 H 0.38989 0.89356 0.77849 0.0
C147 C 0.42563 0.81091 0.84348 0.0
C148 C 0.4047 0.82234 0.86518 0.0
C149 C 0.42047 0.81768 0.81365 0.0
C150 C 0.3853 0.874 0.76378 0.0
H151 H 0.35048 0.83858 0.61482 0.0
H152 H 0.3762 0.82525 0.66195 0.0
H153 H 0.37322 0.90453 0.72795 0.0
H154 H 0.36269 0.85062 0.87302 0.0
H155 H 0.35435 0.8635 0.82081 0.0
H156 H 0.38482 0.79366 0.76164 0.0
C157 C 0.35928 0.84458 0.66134 0.0
C158 C 0.37557 0.88017 0.73494 0.0
C159 C 0.34465 0.85215 0.63442 0.0
C160 C 0.37916 0.84156 0.85671 0.0
C161 C 0.37443 0.84893 0.82696 0.0
C162 C 0.3827 0.81789 0.7542 0.0
C163 C 0.35259 0.86239 0.68697 0.0
C164 C 0.36783 0.85533 0.71576 0.0
C165 C 0.39476 0.83663 0.80523 0.0
C166 C 0.38827 0.84287 0.77379 0.0
H167 H 0.29964 0.91452 0.65813 0.0
H168 H 0.32389 0.90077 0.70469 0.0
H169 H 0.3665 0.80441 0.71125 0.0
H170 H 0.44538 0.79581 0.84945 0.0
H171 H 0.4364 0.80805 0.79715 0.0
C172 C 0.9243 0.66672 0.3426 0.0
C173 C 0.90324 0.66029 0.36566 0.0
C174 C 0.91865 0.65558 0.3141 0.0
C175 C 0.88047 0.59626 0.27041 0.0
H176 H 0.8682 0.66177 0.21155 0.0
C177 C 0.82477 0.57114 0.15688 0.0
C178 C 0.83313 0.58987 0.13265 0.0
C179 C 0.8364 0.57771 0.18503 0.0
C180 C 0.87225 0.64302 0.22739 0.0
H181 H 0.86064 0.63599 0.37747 0.0
H182 H 0.85127 0.61569 0.32754 0.0
H183 H 0.88381 0.67594 0.26146 0.0
H184 H 0.86139 0.62899 0.11827 0.0
H185 H 0.88311 0.63948 0.16699 0.0
H186 H 0.86979 0.56314 0.2364 0.0
C187 C 0.87188 0.62967 0.33161 0.0
C188 C 0.88096 0.65125 0.25605 0.0
C189 C 0.87716 0.64138 0.36003 0.0
C190 C 0.85432 0.61442 0.13672 0.0
C191 C 0.86654 0.62056 0.16472 0.0
C192 C 0.87241 0.58789 0.24154 0.0
C193 C 0.89225 0.63726 0.30836 0.0
C194 C 0.88479 0.62799 0.27781 0.0
C195 C 0.85719 0.60275 0.18941 0.0
C196 C 0.8678 0.61122 0.21971 0.0
H197 H 0.94455 0.68131 0.34632 0.0
H198 H 0.93465 0.66162 0.29642 0.0
H199 H 0.8835 0.57797 0.28693 0.0
H200 H 0.80826 0.55218 0.15433 0.0
H201 H 0.82818 0.56378 0.20344 0.0
C202 C 0.62548 0.16405 0.85603 0.0
C203 C 0.59489 0.16855 0.86698 0.0
C204 C 0.63058 0.15907 0.82589 0.0
C205 C 0.63435 0.17166 0.75991 0.0
H206 H 0.58869 0.10866 0.71606 0.0
C207 C 0.65897 0.14714 0.63635 0.0
C208 C 0.66549 0.11513 0.63074 0.0
C209 C 0.64502 0.15639 0.66312 0.0
C210 C 0.60141 0.12653 0.72799 0.0
H211 H 0.54556 0.17016 0.85521 0.0
H212 H 0.55453 0.16091 0.80247 0.0
H213 H 0.57581 0.11843 0.76802 0.0
H214 H 0.66119 0.06762 0.64799 0.0
H215 H 0.63684 0.08365 0.69422 0.0
H216 H 0.66064 0.17909 0.72024 0.0
C217 C 0.57451 0.16148 0.81723 0.0
C218 C 0.59397 0.13218 0.75764 0.0
C219 C 0.56941 0.16677 0.84738 0.0
C220 C 0.65655 0.0925 0.65166 0.0
C221 C 0.64235 0.10165 0.67811 0.0
C222 C 0.64161 0.16621 0.73022 0.0
C223 C 0.60519 0.15823 0.80614 0.0
C224 C 0.61094 0.15422 0.77407 0.0
C225 C 0.637 0.13369 0.6844 0.0
C226 C 0.62575 0.14303 0.71419 0.0
H227 H 0.6456 0.16529 0.87057 0.0
H228 H 0.65445 0.15605 0.81798 0.0
H229 H 0.64746 0.18915 0.77198 0.0
H230 H 0.66558 0.16506 0.62055 0.0
H231 H 0.641 0.18126 0.66742 0.0
C232 C 0.25401 0.03427 0.56784 0.0
C233 C 0.25547 0.00544 0.55244 0.0
C234 C 0.2372 0.05991 0.55643 0.0
C235 C 0.20743 0.09359 0.48743 0.0
H236 H 0.15624 0.14533 0.54003 0.0
C237 C 0.13105 0.19791 0.44569 0.0
C238 C 0.13053 0.22541 0.46302 0.0
C239 C 0.14535 0.1703 0.45619 0.0
C240 C 0.1707 0.13131 0.52513 0.0
H241 H 0.2402 0.98103 0.51291 0.0
H242 H 0.21067 0.02612 0.49295 0.0
H243 H 0.18212 0.09782 0.55895 0.0
H244 H 0.14476 0.24577 0.50479 0.0
H245 H 0.17027 0.19761 0.523 0.0
H246 H 0.19637 0.12733 0.4537 0.0
C247 C 0.22279 0.0287 0.51383 0.0
C248 C 0.18542 0.10407 0.53594 0.0
C249 C 0.23958 0.00288 0.52533 0.0
C250 C 0.14477 0.22488 0.49099 0.0
C251 C 0.15916 0.19726 0.50147 0.0
C252 C 0.19276 0.12092 0.47662 0.0
C253 C 0.22144 0.05743 0.52933 0.0
C254 C 0.20418 0.08512 0.51728 0.0
C255 C 0.15949 0.16964 0.48421 0.0
C256 C 0.17446 0.14022 0.49544 0.0
H257 H 0.26597 0.03721 0.58875 0.0
H258 H 0.23698 0.08189 0.56864 0.0
H259 H 0.22206 0.07962 0.47264 0.0
H260 H 0.12012 0.19757 0.42408 0.0
H261 H 0.14485 0.14932 0.44253 0.0
C262 C 0.21922 0.85646 0.50212 0.0
C263 C 0.21959 0.87065 0.53023 0.0
C264 C 0.19256 0.84033 0.49256 0.0
C265 C 0.12516 0.79919 0.52355 0.0
H266 H 0.08226 0.81552 0.44942 0.0
C267 C 0.99668 0.76849 0.50845 0.0
C268 C 0.98788 0.75322 0.48224 0.0
C269 C 0.02643 0.78133 0.51117 0.0
C270 C 0.09426 0.81042 0.47001 0.0
H271 H 0.19193 0.88028 0.56972 0.0
H272 H 0.14609 0.85252 0.55314 0.0
H273 H 0.13296 0.8402 0.45917 0.0
H274 H 0.00322 0.7405 0.43789 0.0
H275 H 0.05533 0.76307 0.44281 0.0
H276 H 0.08651 0.77013 0.53486 0.0
C277 C 0.16636 0.85324 0.53867 0.0
C278 C 0.12323 0.82445 0.47552 0.0
C279 C 0.19267 0.86928 0.5481 0.0
C280 C 0.00926 0.75198 0.45846 0.0
C281 C 0.03906 0.76499 0.46117 0.0
C282 C 0.0964 0.78528 0.5181 0.0
C283 C 0.16618 0.83809 0.51112 0.0
C284 C 0.13838 0.81968 0.50276 0.0
C285 C 0.0481 0.77929 0.48776 0.0
C286 C 0.08018 0.7915 0.49169 0.0
H287 H 0.23964 0.85725 0.48787 0.0
H288 H 0.19287 0.8289 0.47113 0.0
H289 H 0.1367 0.79462 0.54449 0.0
H290 H 0.9808 0.77011 0.52713 0.0
H291 H 0.03256 0.79279 0.53174 0.0
C292 C 0.74266 0.95936 0.56674 0.0
C293 C 0.7411 0.98859 0.55209 0.0
C294 C 0.76028 0.93436 0.55503 0.0
C295 C 0.7924 0.90334 0.48566 0.0
H296 H 0.84225 0.85012 0.53792 0.0
C297 C 0.86855 0.79843 0.44338 0.0
C298 C 0.86763 0.77067 0.46028 0.0
C299 C 0.85474 0.82632 0.45398 0.0
C300 C 0.82822 0.86461 0.52309 0.0
H301 H 0.75713 0.01444 0.51362 0.0
H302 H 0.78801 0.97053 0.49316 0.0
H303 H 0.81579 0.89702 0.55757 0.0
H304 H 0.8513 0.75014 0.50131 0.0
H305 H 0.82681 0.79867 0.51963 0.0
H306 H 0.80444 0.87061 0.45127 0.0
C307 C 0.77534 0.96709 0.51366 0.0
C308 C 0.81314 0.89148 0.53433 0.0
C309 C 0.75777 0.99224 0.52546 0.0
C310 C 0.85247 0.77121 0.48785 0.0
C311 C 0.83865 0.79906 0.49843 0.0
C312 C 0.80746 0.87639 0.47441 0.0
C313 C 0.77675 0.93791 0.52836 0.0
C314 C 0.79471 0.91086 0.51583 0.0
C315 C 0.83975 0.82695 0.48167 0.0
C316 C 0.82516 0.8565 0.49312 0.0
H317 H 0.73013 0.95561 0.58726 0.0
H318 H 0.76054 0.912 0.56663 0.0
H319 H 0.77809 0.9177 0.47096 0.0
H320 H 0.88018 0.79871 0.42207 0.0
H321 H 0.85621 0.84749 0.44069 0.0
C322 C 0.80524 0.11929 0.54987 0.0
C323 C 0.77801 0.12025 0.53242 0.0
C324 C 0.83332 0.13112 0.53915 0.0
C325 C 0.8659 0.18765 0.48754 0.0
H326 H 0.94329 0.14118 0.50327 0.0
C327 C 0.98817 0.23685 0.4584 0.0
C328 C 0.0106 0.23423 0.48113 0.0
C329 C 0.95991 0.22066 0.46022 0.0
C330 C 0.9219 0.15448 0.49878 0.0
H331 H 0.75875 0.13454 0.49005 0.0
H332 H 0.80821 0.15578 0.4713 0.0
H333 H 0.89304 0.11711 0.51423 0.0
H334 H 0.02109 0.21193 0.52327 0.0
H335 H 0.97189 0.184 0.52648 0.0
H336 H 0.89486 0.22545 0.47299 0.0
C337 C 0.80762 0.14568 0.49328 0.0
C338 C 0.89316 0.14068 0.505 0.0
C339 C 0.77941 0.13349 0.50397 0.0
C340 C 0.00439 0.21454 0.50537 0.0
C341 C 0.97624 0.19832 0.50711 0.0
C342 C 0.89474 0.20152 0.48137 0.0
C343 C 0.83487 0.14438 0.51077 0.0
C344 C 0.86491 0.15743 0.50019 0.0
C345 C 0.95358 0.20137 0.48469 0.0
C346 C 0.92304 0.18537 0.48767 0.0
H347 H 0.80498 0.10925 0.5719 0.0
H348 H 0.85379 0.1303 0.55333 0.0
H349 H 0.84449 0.20116 0.48379 0.0
H350 H 0.99218 0.25177 0.43938 0.0
H351 H 0.943 0.22328 0.4425 0.0
C352 C 0.25112 0.50901 0.03603 0.0
C353 C 0.25213 0.48675 0.01292 0.0
C354 C 0.26555 0.53819 0.03287 0.0
C355 C 0.32651 0.57791 0.98961 0.0
H356 H 0.2827 0.6553 0.01187 0.0
C357 C 0.36379 0.69644 0.94422 0.0
C358 C 0.36535 0.72236 0.96345 0.0
C359 C 0.35005 0.66855 0.95329 0.0
C360 C 0.29539 0.63386 0.00599 0.0
H361 H 0.26907 0.47787 0.96834 0.0
H362 H 0.29399 0.52871 0.96284 0.0
H363 H 0.25875 0.60433 0.02208 0.0
H364 H 0.35297 0.73977 0.00707 0.0
H365 H 0.32879 0.69039 0.02318 0.0
H366 H 0.36288 0.60719 0.97313 0.0
C367 C 0.28237 0.52344 0.98353 0.0
C368 C 0.2817 0.60471 0.01179 0.0
C369 C 0.26792 0.49434 0.98664 0.0
C370 C 0.3521 0.7201 0.99183 0.0
C371 C 0.33825 0.69194 0.00099 0.0
C372 C 0.34014 0.6069 0.98387 0.0
C373 C 0.2814 0.54565 0.00662 0.0
C374 C 0.29685 0.57649 0.00302 0.0
C375 C 0.33761 0.66574 0.9819 0.0
C376 C 0.32441 0.6352 0.99131 0.0
H377 H 0.2392 0.50396 0.05661 0.0
H378 H 0.26463 0.55474 0.05112 0.0
H379 H 0.33908 0.55655 0.98324 0.0
H380 H 0.37341 0.69754 0.92206 0.0
H381 H 0.34919 0.64907 0.93781 0.0
C382 C 0.72048 0.63856 0.01055 0.0
C383 C 0.72447 0.62758 0.03964 0.0
C384 C 0.69268 0.6544 0.0024 0.0
C385 C 0.62546 0.69841 0.03454 0.0
H386 H 0.57994 0.67236 0.96472 0.0
C387 C 0.49513 0.72899 0.01919 0.0
C388 C 0.48561 0.74006 0.99128 0.0
C389 C 0.52518 0.71611 0.02317 0.0
C390 C 0.59258 0.68013 0.98409 0.0
H391 H 0.70282 0.62481 0.08302 0.0
H392 H 0.6548 0.65224 0.06891 0.0
H393 H 0.63216 0.6499 0.9746 0.0
H394 H 0.49988 0.74523 0.94541 0.0
H395 H 0.55231 0.72274 0.95248 0.0
H396 H 0.58588 0.72822 0.04437 0.0
C397 C 0.67301 0.64892 0.0524 0.0
C398 C 0.62247 0.66737 0.98967 0.0
C399 C 0.70048 0.63298 0.06042 0.0
C400 C 0.50649 0.73708 0.96726 0.0
C401 C 0.5365 0.72405 0.97123 0.0
C402 C 0.59568 0.7111 0.02899 0.0
C403 C 0.66874 0.65977 0.02335 0.0
C404 C 0.63888 0.67593 0.0153 0.0
C405 C 0.5463 0.7139 -0.00067 0.0
C406 C 0.57866 0.70164 0.00404 0.0
H407 H 0.7386 0.63461 0.99408 0.0
H408 H 0.68997 0.6626 0.97986 0.0
H409 H 0.63783 0.70587 0.05418 0.0
H410 H 0.47963 0.7308 0.03814 0.0
H411 H 0.53192 0.70795 0.04499 0.0
C412 C 0.72182 0.49638 0.99159 0.0
C413 C 0.73838 0.50442 0.01729 0.0
C414 C 0.70704 0.46737 0.98943 0.0
C415 C 0.70901 0.38666 0.01864 0.0
H416 H 0.62808 0.38244 0.97993 0.0
C417 C 0.64153 0.26967 0.9966 0.0
C418 C 0.6293 0.26753 0.96784 0.0
C419 C 0.65439 0.29803 0.00654 0.0
C420 C 0.65071 0.38323 0.99076 0.0
H421 H 0.75199 0.48824 0.06109 0.0
H422 H 0.72593 0.43756 0.05725 0.0
H423 H 0.65065 0.43362 0.99029 0.0
H424 H 0.62207 0.29283 0.9266 0.0
H425 H 0.64448 0.34163 0.94371 0.0
H426 H 0.70919 0.33602 0.01843 0.0
C427 C 0.72471 0.45371 0.03872 0.0
C428 C 0.66364 0.41252 0.99664 0.0
C429 C 0.73948 0.48283 0.04093 0.0
C430 C 0.6309 0.2938 0.94903 0.0
C431 C 0.6436 0.32188 0.95888 0.0
C432 C 0.696 0.35721 0.01273 0.0
C433 C 0.7084 0.44567 0.01291 0.0
C434 C 0.69329 0.41458 0.00991 0.0
C435 C 0.655 0.32455 0.98784 0.0
C436 C 0.66712 0.35527 0.99796 0.0
H437 H 0.72056 0.51232 0.9729 0.0
H438 H 0.69506 0.46167 0.96905 0.0
H439 H 0.73197 0.38752 0.02882 0.0
H440 H 0.64062 0.24974 0.01153 0.0
H441 H 0.66312 0.29948 0.02897 0.0
C442 C 0.49435 0.26231 0.96788 0.0
C443 C 0.50946 0.2489 0.99259 0.0
C444 C 0.46506 0.27724 0.97091 0.0
C445 C 0.39401 0.27656 0.01418 0.0
H446 H 0.38191 0.36448 0.99255 0.0
C447 C 0.27355 0.34268 0.01815 0.0
C448 C 0.27411 0.3685 0.03759 0.0
C449 C 0.30162 0.32796 0.00921 0.0
C450 C 0.38498 0.33983 -0.00164 0.0
H451 H 0.5058 0.24044 0.03976 0.0
H452 H 0.45409 0.26583 0.04484 0.0
H453 H 0.43294 0.33837 0.98386 0.0
H454 H 0.30415 0.4001 0.06191 0.0
H455 H 0.35314 0.37495 0.04553 0.0
H456 H 0.34609 0.278 0.0287 0.0
C457 C 0.46516 0.26499 0.02326 0.0
C458 C 0.414 0.32497 0.99338 0.0
C459 C 0.49475 0.25068 0.02037 0.0
C460 C 0.30309 0.38006 0.04709 0.0
C461 C 0.33108 0.36586 0.0376 0.0
C462 C 0.3648 0.29123 0.01856 0.0
C463 C 0.45012 0.27834 -0.00144 0.0
C464 C 0.41887 0.29341 0.00178 0.0
C465 C 0.33056 0.33945 0.01896 0.0
C466 C 0.36025 0.32311 0.01117 0.0
H467 H 0.50526 0.26141 0.94623 0.0
H468 H 0.45381 0.28744 0.9516 0.0
H469 H 0.3973 0.25214 0.02067 0.0
H470 H 0.25145 0.33337 0.01056 0.0
H471 H 0.30079 0.30757 0.9948 0.0
C472 C 0.93733 0.60405 0.51917 0.0
C473 C 0.93182 0.61511 0.49026 0.0
C474 C 0.94898 0.57341 0.52388 0.0
C475 C 0.95751 0.49587 0.48757 0.0
H476 H 0.03271 0.48513 0.53506 0.0
C477 C 0.04275 0.39427 0.46719 0.0
C478 C 0.05349 0.37645 0.49146 0.0
C479 C 0.02644 0.42258 0.47149 0.0
C480 C 0.01143 0.48769 0.52215 0.0
H481 H 0.93324 0.60234 0.44377 0.0
H482 H 0.95334 0.5492 0.452 0.0
H483 H 0.00455 0.53602 0.53498 0.0
H484 H 0.05679 0.37535 0.53937 0.0
H485 H 0.02825 0.42542 0.54681 0.0
H486 H 0.96486 0.44808 0.4739 0.0
C487 C 0.94862 0.56408 0.47103 0.0
C488 C 0.9953 0.51672 0.52214 0.0
C489 C 0.93732 0.59465 0.46631 0.0
C490 C 0.04874 0.38844 0.5202 0.0
C491 C 0.03243 0.41704 0.52449 0.0
C492 C 0.97358 0.46702 0.48755 0.0
C493 C 0.95486 0.55322 0.49981 0.0
C494 C 0.9688 0.52134 0.50404 0.0
C495 C 0.02049 0.43391 0.50014 0.0
C496 C 0.00127 0.46299 0.50401 0.0
H497 H 0.93338 0.61929 0.53809 0.0
H498 H 0.95349 0.56554 0.54629 0.0
H499 H 0.93678 0.49858 0.47391 0.0
H500 H 0.04632 0.38609 0.44472 0.0
H501 H 0.01818 0.43554 0.45229 0.0
C502 C 0.58057 0.07737 0.54884 0.0
C503 C 0.60838 0.06282 0.53895 0.0
C504 C 0.55165 0.06661 0.53903 0.0
C505 C 0.51101 0.0061 0.49345 0.0
H506 H 0.46974 0.9905 0.5684 0.0
C507 C 0.38883 0.9487 0.51811 0.0
C508 C 0.38843 0.93056 0.5441 0.0
C509 C 0.41694 0.96191 0.50835 0.0
C510 C 0.48105 0.99449 0.54728 0.0
H511 H 0.6284 0.02812 0.50904 0.0
H512 H 0.57776 0.00836 0.49263 0.0
H513 H 0.51342 0.02594 0.56662 0.0
H514 H 0.41704 0.90812 0.57778 0.0
H515 H 0.46613 0.93023 0.56026 0.0
H516 H 0.47817 0.97365 0.47455 0.0
C517 C 0.57809 0.02855 0.50729 0.0
C518 C 0.50576 0.01535 0.54612 0.0
C519 C 0.6071 0.03984 0.51667 0.0
C520 C 0.41685 0.92218 0.55776 0.0
C521 C 0.44485 0.93494 0.54781 0.0
C522 C 0.48575 0.98525 0.4946 0.0
C523 C 0.55017 0.04037 0.52004 0.0
C524 C 0.52131 0.02126 0.51933 0.0
C525 C 0.44472 0.95676 0.52443 0.0
C526 C 0.47109 0.97882 0.52174 0.0
H527 H 0.58114 0.09508 0.56611 0.0
H528 H 0.53046 0.0767 0.54866 0.0
H529 H 0.52266 0.01013 0.47253 0.0
H530 H 0.36707 0.95561 0.50737 0.0
H531 H 0.41628 0.97864 0.49025 0.0
C532 C 0.55209 0.09442 0.96402 0.0
C533 C 0.5615 0.11106 0.98931 0.0
C534 C 0.53595 0.06623 0.96665 0.0
C535 C 0.51694 0.00078 0.01658 0.0
H536 H 0.44562 0.99276 0.96402 0.0
C537 C 0.43672 0.89119 0.01685 0.0
C538 C 0.43101 0.87858 0.9886 0.0
C539 C 0.45029 0.92089 0.01987 0.0
C540 C 0.46551 0.99458 0.97878 0.0
H541 H 0.56262 0.11011 0.0373 0.0
H542 H 0.53432 0.06058 0.04183 0.0
H543 H 0.47568 0.04107 0.96374 0.0
H544 H 0.434 0.88788 0.94147 0.0
H545 H 0.45746 0.9393 0.94677 0.0
H546 H 0.50695 0.95388 0.03119 0.0
C547 C 0.5395 0.06957 0.01997 0.0
C548 C 0.48279 0.02222 0.97857 0.0
C549 C 0.55572 0.09792 0.01735 0.0
C550 C 0.43814 0.89677 0.96357 0.0
C551 C 0.45144 0.92641 0.9666 0.0
C552 C 0.4996 0.97299 0.01676 0.0
C553 C 0.52874 0.05389 0.99462 0.0
C554 C 0.50914 0.02536 0.99694 0.0
C555 C 0.45805 0.93867 0.99474 0.0
C556 C 0.47413 0.96936 0.99736 0.0
H557 H 0.55645 0.10354 0.94205 0.0
H558 H 0.52868 0.05429 0.94668 0.0
H559 H 0.53714 0.00252 0.03096 0.0
H560 H 0.43157 0.87777 0.03659 0.0
H561 H 0.45489 0.92987 0.04185 0.0
C562 C 0.10254 0.43219 0.98435 0.0
C563 C 0.11538 0.42827 0.01279 0.0
C564 C 0.07211 0.44453 0.98078 0.0
C565 C -0.00215 0.45903 0.02133 0.0
H566 H 0.98531 0.52857 0.96661 0.0
C567 C 0.89589 0.54554 0.03551 0.0
C568 C 0.87751 0.553 0.0106 0.0
C569 C 0.9245 0.52961 0.03239 0.0
C570 C 0.98838 0.5089 0.98166 0.0
H571 H 0.10581 0.43316 0.05978 0.0
H572 H 0.05314 0.45458 0.05354 0.0
H573 H 0.03554 0.49959 0.9671 0.0
H574 H 0.87571 0.55106 0.96268 0.0
H575 H 0.92624 0.52308 0.95727 0.0
H576 H 0.95119 0.46875 0.03648 0.0
C577 C 0.06642 0.44804 0.03397 0.0
C578 C 0.01704 0.49227 0.98191 0.0
C579 C 0.09677 0.43594 0.03753 0.0
C580 C 0.88928 0.54559 0.9823 0.0
C581 C 0.91814 0.52958 0.97919 0.0
C582 C 0.96938 0.47563 0.02113 0.0
C583 C 0.05386 0.45283 0.00559 0.0
C584 C 0.02231 0.4677 0.00232 0.0
C585 C 0.93554 0.52069 0.00432 0.0
C586 C 0.96463 0.50126 0.00188 0.0
H587 H 0.11626 0.42655 0.96482 0.0
H588 H 0.06292 0.44774 0.95864 0.0
H589 H 0.00097 0.43979 0.03686 0.0
H590 H 0.88787 0.55134 0.05763 0.0
H591 H 0.93782 0.52381 0.0521 0.0
loop_
_geom_bond_atom_site_label_1
_geom_bond_atom_site_label_2
_geom_bond_distance
_geom_bond_site_symmetry_2
_ccdc_geom_bond_type
Co0 O1 2.216 . S
Co0 O2 2.091 . S
Co0 O4 2.004 . S
Co0 O10 2.021 . S
Co0 O12 2.137 . S
Co0 O13 2.244 . S
O1 Co0 2.216 . S
O1 C8 1.247 . S
O2 Co0 2.091 . S
O2 C8 1.261 . S
C3 O12 1.247 . S
C3 O13 1.272 . S
O4 Co0 2.004 . S
O4 C9 1.259 . S
Co5 O6 2.061 . S
Co5 O11 2.052 . S
Co5 O13 2.135 . S
O6 Co5 2.061 . S
O6 C9 1.235 . S
C7 O10 1.238 . S
C7 O11 1.241 . S
C8 O1 1.247 . S
C8 O2 1.261 . S
C9 O4 1.259 . S
C9 O6 1.235 . S
O10 Co0 2.021 . S
O10 C7 1.238 . S
O11 Co5 2.052 . S
O11 C7 1.241 . S
O12 Co0 2.137 . S
O12 C3 1.247 . S
O13 Co0 2.244 . S
O13 C3 1.272 . S
O13 Co5 2.135 . S
Co14 O15 2.216 . S
Co14 O16 2.091 . S
Co14 O18 2.004 . S
Co14 O24 2.021 . S
Co14 O26 2.137 . S
Co14 O27 2.244 . S
O15 Co14 2.216 . S
O15 C22 1.247 . S
O16 Co14 2.091 . S
O16 C22 1.261 . S
C17 O26 1.247 . S
C17 O27 1.272 . S
O18 Co14 2.004 . S
O18 C23 1.259 . S
Co19 O20 2.061 . S
Co19 O25 2.052 . S
Co19 O27 2.135 . S
O20 Co19 2.061 . S
O20 C23 1.235 . S
C21 O24 1.238 . S
C21 O25 1.241 . S
C22 O15 1.247 . S
C22 O16 1.261 . S
C23 O18 1.259 . S
C23 O20 1.235 . S
O24 Co14 2.021 . S
O24 C21 1.238 . S
O25 Co19 2.052 . S
O25 C21 1.241 . S
O26 Co14 2.137 . S
O26 C17 1.247 . S
O27 Co14 2.244 . S
O27 C17 1.272 . S
O27 Co19 2.135 . S
Co28 O29 2.216 . S
Co28 O30 2.091 . S
Co28 O32 2.004 . S
Co28 O38 2.021 . S
Co28 O40 2.137 . S
Co28 O41 2.244 . S
O29 Co28 2.216 . S
O29 C36 1.247 . S
O30 Co28 2.091 . S
O30 C36 1.261 . S
C31 O40 1.247 . S
C31 O41 1.272 . S
O32 Co28 2.004 . S
O32 C37 1.259 . S
Co33 O34 2.061 . S
Co33 O39 2.052 . S
Co33 O41 2.135 . S
O34 Co33 2.061 . S
O34 C37 1.235 . S
C35 O38 1.238 . S
C35 O39 1.241 . S
C36 O29 1.247 . S
C36 O30 1.261 . S
C37 O32 1.259 . S
C37 O34 1.235 . S
O38 Co28 2.021 . S
O38 C35 1.238 . S
O39 Co33 2.052 . S
O39 C35 1.241 . S
O40 Co28 2.137 . S
O40 C31 1.247 . S
O41 Co28 2.244 . S
O41 C31 1.272 . S
O41 Co33 2.135 . S
Co42 O43 2.216 . S
Co42 O44 2.091 . S
Co42 O46 2.004 . S
Co42 O52 2.021 . S
Co42 O54 2.137 . S
Co42 O55 2.244 . S
O43 Co42 2.216 . S
O43 C50 1.247 . S
O44 Co42 2.091 . S
O44 C50 1.261 . S
C45 O54 1.247 . S
C45 O55 1.272 . S
O46 Co42 2.004 . S
O46 C51 1.259 . S
Co47 O48 2.061 . S
Co47 O53 2.052 . S
Co47 O55 2.135 . S
O48 Co47 2.061 . S
O48 C51 1.235 . S
C49 O52 1.238 . S
C49 O53 1.241 . S
C50 O43 1.247 . S
C50 O44 1.261 . S
C51 O46 1.259 . S
C51 O48 1.235 . S
O52 Co42 2.021 . S
O52 C49 1.238 . S
O53 Co47 2.052 . S
O53 C49 1.241 . S
O54 Co42 2.137 . S
O54 C45 1.247 . S
O55 Co42 2.244 . S
O55 C45 1.272 . S
O55 Co47 2.135 . S
Co56 O57 2.216 . S
Co56 O58 2.091 . S
Co56 O60 2.004 . S
Co56 O66 2.021 . S
Co56 O68 2.137 . S
Co56 O69 2.244 . S
O57 Co56 2.216 . S
O57 C64 1.247 . S
O58 Co56 2.091 . S
O58 C64 1.261 . S
C59 O68 1.247 . S
C59 O69 1.272 . S
O60 Co56 2.004 . S
O60 C65 1.259 . S
Co61 O62 2.061 . S
Co61 O67 2.052 . S
Co61 O69 2.135 1_554 S
O62 Co61 2.061 . S
O62 C65 1.235 1_554 S
C63 O66 1.238 . S
C63 O67 1.241 1_556 S
C64 O57 1.247 . S
C64 O58 1.261 . S
C65 O60 1.259 . S
C65 O62 1.235 1_556 S
O66 Co56 2.021 . S
O66 C63 1.238 . S
O67 Co61 2.052 . S
O67 C63 1.241 1_554 S
O68 Co56 2.137 . S
O68 C59 1.247 . S
O69 Co56 2.244 . S
O69 C59 1.272 . S
O69 Co61 2.135 1_556 S
Co70 O71 2.216 . S
Co70 O72 2.091 . S
Co70 O74 2.004 . S
Co70 O80 2.021 . S
Co70 O82 2.137 . S
Co70 O83 2.244 . S
O71 Co70 2.216 . S
O71 C78 1.247 . S
O72 Co70 2.091 . S
O72 C78 1.261 . S
C73 O82 1.247 . S
C73 O83 1.272 . S
O74 Co70 2.004 . S
O74 C79 1.259 . S
Co75 O76 2.061 1_556 S
Co75 O81 2.052 1_556 S
Co75 O83 2.135 1_556 S
O76 Co75 2.061 1_554 S
O76 C79 1.235 . S
C77 O80 1.238 . S
C77 O81 1.241 . S
C78 O71 1.247 . S
C78 O72 1.261 . S
C79 O74 1.259 . S
C79 O76 1.235 . S
O80 Co70 2.021 . S
O80 C77 1.238 . S
O81 Co75 2.052 1_554 S
O81 C77 1.241 . S
O82 Co70 2.137 . S
O82 C73 1.247 . S
O83 Co70 2.244 . S
O83 C73 1.272 . S
O83 Co75 2.135 1_554 S
Co84 O85 2.216 . S
Co84 O86 2.091 . S
Co84 O88 2.004 . S
Co84 O94 2.021 . S
Co84 O96 2.137 . S
Co84 O97 2.244 . S
O85 Co84 2.216 . S
O85 C92 1.247 . S
O86 Co84 2.091 . S
O86 C92 1.261 . S
C87 O96 1.247 . S
C87 O97 1.272 . S
O88 Co84 2.004 . S
O88 C93 1.259 . S
Co89 O90 2.061 . S
Co89 O95 2.052 . S
Co89 O97 2.135 1_554 S
O90 Co89 2.061 . S
O90 C93 1.235 1_554 S
C91 O94 1.238 . S
C91 O95 1.241 1_556 S
C92 O85 1.247 . S
C92 O86 1.261 . S
C93 O88 1.259 . S
C93 O90 1.235 1_556 S
O94 Co84 2.021 . S
O94 C91 1.238 . S
O95 Co89 2.052 . S
O95 C91 1.241 1_554 S
O96 Co84 2.137 . S
O96 C87 1.247 . S
O97 Co84 2.244 . S
O97 C87 1.272 . S
O97 Co89 2.135 1_556 S
Co98 O99 2.216 . S
Co98 O100 2.091 . S
Co98 O102 2.004 . S
Co98 O108 2.021 . S
Co98 O110 2.137 . S
Co98 O111 2.244 . S
O99 Co98 2.216 . S
O99 C106 1.247 . S
O100 Co98 2.091 . S
O100 C106 1.261 . S
C101 O110 1.247 . S
C101 O111 1.272 . S
O102 Co98 2.004 . S
O102 C107 1.259 . S
Co103 O104 2.061 1_556 S
Co103 O109 2.052 1_556 S
Co103 O111 2.135 1_556 S
O104 Co103 2.061 1_554 S
O104 C107 1.235 . S
C105 O108 1.238 . S
C105 O109 1.241 . S
C106 O99 1.247 . S
C106 O100 1.261 . S
C107 O102 1.259 . S
C107 O104 1.235 . S
O108 Co98 2.021 . S
O108 C105 1.238 . S
O109 Co103 2.052 1_554 S
O109 C105 1.241 . S
O110 Co98 2.137 . S
O110 C101 1.247 . S
O111 Co98 2.244 . S
O111 C101 1.272 . S
O111 Co103 2.135 1_554 S
C112 C113 1.349 . S
C112 C114 1.327 . S
C112 H137 0.950 . S
C113 C112 1.349 . S
C113 C129 1.349 . S
C114 C112 1.327 . S
C114 C133 1.429 . S
C114 H138 0.950 . S
C115 C132 1.574 . S
C115 C134 1.368 . S
C115 H139 0.949 . S
H116 C120 0.949 . S
C117 C118 1.349 . S
C117 C119 1.327 . S
C117 H140 0.950 . S
C118 C117 1.349 . S
C118 C130 1.349 . S
C119 C117 1.327 . S
C119 C135 1.429 . S
C119 H141 0.950 . S
C120 H116 0.949 . S
C120 C128 1.574 . S
C120 C136 1.368 . S
H121 C129 0.950 . S
H122 C127 0.950 . S
H123 C128 0.949 . S
H124 C130 0.950 . S
H125 C131 0.950 . S
H126 C132 0.949 . S
C127 H122 0.950 . S
C127 C129 1.327 . S
C127 C133 1.429 . S
C128 C120 1.574 . S
C128 H123 0.949 . S
C128 C134 1.368 . S
C129 C113 1.349 . S
C129 H121 0.950 . S
C129 C127 1.327 . S
C130 C118 1.349 . S
C130 H124 0.950 . S
C130 C131 1.327 . S
C131 H125 0.950 . S
C131 C130 1.327 . S
C131 C135 1.429 . S
C132 C115 1.574 . S
C132 H126 0.949 . S
C132 C136 1.368 . S
C133 C114 1.429 . S
C133 C127 1.429 . S
C133 C134 1.523 . S
C134 C115 1.368 . S
C134 C128 1.368 . S
C134 C133 1.523 . S
C135 C119 1.429 . S
C135 C131 1.429 . S
C135 C136 1.523 . S
C136 C120 1.368 . S
C136 C132 1.368 . S
C136 C135 1.523 . S
H137 C112 0.950 . S
H138 C114 0.950 . S
H139 C115 0.949 . S
H140 C117 0.950 . S
H141 C119 0.950 . S
C142 C143 1.349 . S
C142 C144 1.327 . S
C142 H167 0.950 . S
C143 C142 1.349 . S
C143 C159 1.349 . S
C144 C142 1.327 . S
C144 C163 1.429 . S
C144 H168 0.950 . S
C145 C162 1.574 . S
C145 C164 1.368 . S
C145 H169 0.949 . S
H146 C150 0.949 . S
C147 C148 1.349 . S
C147 C149 1.327 . S
C147 H170 0.950 . S
C148 C147 1.349 . S
C148 C160 1.349 . S
C149 C147 1.327 . S
C149 C165 1.429 . S
C149 H171 0.950 . S
C150 H146 0.949 . S
C150 C158 1.574 . S
C150 C166 1.368 . S
H151 C159 0.950 . S
H152 C157 0.950 . S
H153 C158 0.949 . S
H154 C160 0.950 . S
H155 C161 0.950 . S
H156 C162 0.949 . S
C157 H152 0.950 . S
C157 C159 1.327 . S
C157 C163 1.429 . S
C158 C150 1.574 . S
C158 H153 0.949 . S
C158 C164 1.368 . S
C159 C143 1.349 . S
C159 H151 0.950 . S
C159 C157 1.327 . S
C160 C148 1.349 . S
C160 H154 0.950 . S
C160 C161 1.327 . S
C161 H155 0.950 . S
C161 C160 1.327 . S
C161 C165 1.429 . S
C162 C145 1.574 . S
C162 H156 0.949 . S
C162 C166 1.368 . S
C163 C144 1.429 . S
C163 C157 1.429 . S
C163 C164 1.523 . S
C164 C145 1.368 . S
C164 C158 1.368 . S
C164 C163 1.523 . S
C165 C149 1.429 . S
C165 C161 1.429 . S
C165 C166 1.523 . S
C166 C150 1.368 . S
C166 C162 1.368 . S
C166 C165 1.523 . S
H167 C142 0.950 . S
H168 C144 0.950 . S
H169 C145 0.949 . S
H170 C147 0.950 . S
H171 C149 0.950 . S
C172 C173 1.349 . S
C172 C174 1.327 . S
C172 H197 0.950 . S
C173 C172 1.349 . S
C173 C189 1.349 . S
C174 C172 1.327 . S
C174 C193 1.429 . S
C174 H198 0.950 . S
C175 C192 1.574 . S
C175 C194 1.368 . S
C175 H199 0.949 . S
H176 C180 0.949 . S
C177 C178 1.349 . S
C177 C179 1.327 . S
C177 H200 0.950 . S
C178 C177 1.349 . S
C178 C190 1.349 . S
C179 C177 1.327 . S
C179 C195 1.429 . S
C179 H201 0.950 . S
C180 H176 0.949 . S
C180 C188 1.574 . S
C180 C196 1.368 . S
H181 C189 0.950 . S
H182 C187 0.950 . S
H183 C188 0.949 . S
H184 C190 0.950 . S
H185 C191 0.950 . S
H186 C192 0.949 . S
C187 H182 0.950 . S
C187 C189 1.327 . S
C187 C193 1.429 . S
C188 C180 1.574 . S
C188 H183 0.949 . S
C188 C194 1.368 . S
C189 C173 1.349 . S
C189 H181 0.950 . S
C189 C187 1.327 . S
C190 C178 1.349 . S
C190 H184 0.950 . S
C190 C191 1.327 . S
C191 H185 0.950 . S
C191 C190 1.327 . S
C191 C195 1.429 . S
C192 C175 1.574 . S
C192 H186 0.949 . S
C192 C196 1.368 . S
C193 C174 1.429 . S
C193 C187 1.429 . S
C193 C194 1.523 . S
C194 C175 1.368 . S
C194 C188 1.368 . S
C194 C193 1.523 . S
C195 C179 1.429 . S
C195 C191 1.429 . S
C195 C196 1.523 . S
C196 C180 1.368 . S
C196 C192 1.368 . S
C196 C195 1.523 . S
H197 C172 0.950 . S
H198 C174 0.950 . S
H199 C175 0.949 . S
H200 C177 0.950 . S
H201 C179 0.950 . S
C202 C203 1.349 . S
C202 C204 1.327 . S
C202 H227 0.950 . S
C203 C202 1.349 . S
C203 C219 1.349 . S
C204 C202 1.327 . S
C204 C223 1.429 . S
C204 H228 0.950 . S
C205 C222 1.574 . S
C205 C224 1.368 . S
C205 H229 0.949 . S
H206 C210 0.949 . S
C207 C208 1.349 . S
C207 C209 1.327 . S
C207 H230 0.950 . S
C208 C207 1.349 . S
C208 C220 1.349 . S
C209 C207 1.327 . S
C209 C225 1.429 . S
C209 H231 0.950 . S
C210 H206 0.949 . S
C210 C218 1.574 . S
C210 C226 1.368 . S
H211 C219 0.950 . S
H212 C217 0.950 . S
H213 C218 0.949 . S
H214 C220 0.950 . S
H215 C221 0.950 . S
H216 C222 0.949 . S
C217 H212 0.950 . S
C217 C219 1.327 . S
C217 C223 1.429 . S
C218 C210 1.574 . S
C218 H213 0.949 . S
C218 C224 1.368 . S
C219 C203 1.349 . S
C219 H211 0.950 . S
C219 C217 1.327 . S
C220 C208 1.349 . S
C220 H214 0.950 . S
C220 C221 1.327 . S
C221 H215 0.950 . S
C221 C220 1.327 . S
C221 C225 1.429 . S
C222 C205 1.574 . S
C222 H216 0.949 . S
C222 C226 1.368 . S
C223 C204 1.429 . S
C223 C217 1.429 . S
C223 C224 1.523 . S
C224 C205 1.368 . S
C224 C218 1.368 . S
C224 C223 1.523 . S
C225 C209 1.429 . S
C225 C221 1.429 . S
C225 C226 1.523 . S
C226 C210 1.368 . S
C226 C222 1.368 . S
C226 C225 1.523 . S
H227 C202 0.950 . S
H228 C204 0.950 . S
H229 C205 0.949 . S
H230 C207 0.950 . S
H231 C209 0.950 . S
C232 C233 1.349 . S
C232 C234 1.327 . S
C232 H257 0.950 . S
C233 C232 1.349 . S
C233 C249 1.349 . S
C234 C232 1.327 . S
C234 C253 1.429 . S
C234 H258 0.950 . S
C235 C252 1.574 . S
C235 C254 1.368 . S
C235 H259 0.949 . S
H236 C240 0.949 . S
C237 C238 1.349 . S
C237 C239 1.327 . S
C237 H260 0.950 . S
C238 C237 1.349 . S
C238 C250 1.349 . S
C239 C237 1.327 . S
C239 C255 1.429 . S
C239 H261 0.950 . S
C240 H236 0.949 . S
C240 C248 1.574 . S
C240 C256 1.368 . S
H241 C249 0.950 1_565 S
H242 C247 0.950 . S
H243 C248 0.949 . S
H244 C250 0.950 . S
H245 C251 0.950 . S
H246 C252 0.949 . S
C247 H242 0.950 . S
C247 C249 1.327 . S
C247 C253 1.429 . S
C248 C240 1.574 . S
C248 H243 0.949 . S
C248 C254 1.368 . S
C249 C233 1.349 . S
C249 H241 0.950 1_545 S
C249 C247 1.327 . S
C250 C238 1.349 . S
C250 H244 0.950 . S
C250 C251 1.327 . S
C251 H245 0.950 . S
C251 C250 1.327 . S
C251 C255 1.429 . S
C252 C235 1.574 . S
C252 H246 0.949 . S
C252 C256 1.368 . S
C253 C234 1.429 . S
C253 C247 1.429 . S
C253 C254 1.523 . S
C254 C235 1.368 . S
C254 C248 1.368 . S
C254 C253 1.523 . S
C255 C239 1.429 . S
C255 C251 1.429 . S
C255 C256 1.523 . S
C256 C240 1.368 . S
C256 C252 1.368 . S
C256 C255 1.523 . S
H257 C232 0.950 . S
H258 C234 0.950 . S
H259 C235 0.949 . S
H260 C237 0.950 . S
H261 C239 0.950 . S
C262 C263 1.349 . S
C262 C264 1.327 . S
C262 H287 0.950 . S
C263 C262 1.349 . S
C263 C279 1.349 . S
C264 C262 1.327 . S
C264 C283 1.429 . S
C264 H288 0.950 . S
C265 C282 1.574 . S
C265 C284 1.368 . S
C265 H289 0.949 . S
H266 C270 0.949 . S
C267 C268 1.349 . S
C267 C269 1.327 . S
C267 H290 0.950 1_455 S
C268 C267 1.349 . S
C268 C280 1.349 . S
C269 C267 1.327 . S
C269 C285 1.429 . S
C269 H291 0.950 . S
C270 H266 0.949 . S
C270 C278 1.574 . S
C270 C286 1.368 . S
H271 C279 0.950 . S
H272 C277 0.950 . S
H273 C278 0.949 . S
H274 C280 0.950 . S
H275 C281 0.950 . S
H276 C282 0.949 . S
C277 H272 0.950 . S
C277 C279 1.327 . S
C277 C283 1.429 . S
C278 C270 1.574 . S
C278 H273 0.949 . S
C278 C284 1.368 . S
C279 C263 1.349 . S
C279 H271 0.950 . S
C279 C277 1.327 . S
C280 C268 1.349 . S
C280 H274 0.950 . S
C280 C281 1.327 . S
C281 H275 0.950 . S
C281 C280 1.327 . S
C281 C285 1.429 . S
C282 C265 1.574 . S
C282 H276 0.949 . S
C282 C286 1.368 . S
C283 C264 1.429 . S
C283 C277 1.429 . S
C283 C284 1.523 . S
C284 C265 1.368 . S
C284 C278 1.368 . S
C284 C283 1.523 . S
C285 C269 1.429 . S
C285 C281 1.429 . S
C285 C286 1.523 . S
C286 C270 1.368 . S
C286 C282 1.368 . S
C286 C285 1.523 . S
H287 C262 0.950 . S
H288 C264 0.950 . S
H289 C265 0.949 . S
H290 C267 0.950 1_655 S
H291 C269 0.950 . S
C292 C293 1.349 . S
C292 C294 1.327 . S
C292 H317 0.950 . S
C293 C292 1.349 . S
C293 C309 1.349 . S
C294 C292 1.327 . S
C294 C313 1.429 . S
C294 H318 0.950 . S
C295 C312 1.574 . S
C295 C314 1.368 . S
C295 H319 0.949 . S
H296 C300 0.949 . S
C297 C298 1.349 . S
C297 C299 1.327 . S
C297 H320 0.950 . S
C298 C297 1.349 . S
C298 C310 1.349 . S
C299 C297 1.327 . S
C299 C315 1.429 . S
C299 H321 0.950 . S
C300 H296 0.949 . S
C300 C308 1.574 . S
C300 C316 1.368 . S
H301 C309 0.950 1_545 S
H302 C307 0.950 . S
H303 C308 0.949 . S
H304 C310 0.950 . S
H305 C311 0.950 . S
H306 C312 0.949 . S
C307 H302 0.950 . S
C307 C309 1.327 . S
C307 C313 1.429 . S
C308 C300 1.574 . S
C308 H303 0.949 . S
C308 C314 1.368 . S
C309 C293 1.349 . S
C309 H301 0.950 1_565 S
C309 C307 1.327 . S
C310 C298 1.349 . S
C310 H304 0.950 . S
C310 C311 1.327 . S
C311 H305 0.950 . S
C311 C310 1.327 . S
C311 C315 1.429 . S
C312 C295 1.574 . S
C312 H306 0.949 . S
C312 C316 1.368 . S
C313 C294 1.429 . S
C313 C307 1.429 . S
C313 C314 1.523 . S
C314 C295 1.368 . S
C314 C308 1.368 . S
C314 C313 1.523 . S
C315 C299 1.429 . S
C315 C311 1.429 . S
C315 C316 1.523 . S
C316 C300 1.368 . S
C316 C312 1.368 . S
C316 C315 1.523 . S
H317 C292 0.950 . S
H318 C294 0.950 . S
H319 C295 0.949 . S
H320 C297 0.950 . S
H321 C299 0.950 . S
C322 C323 1.349 . S
C322 C324 1.327 . S
C322 H347 0.950 . S
C323 C322 1.349 . S
C323 C339 1.349 . S
C324 C322 1.327 . S
C324 C343 1.429 . S
C324 H348 0.950 . S
C325 C342 1.574 . S
C325 C344 1.368 . S
C325 H349 0.949 . S
H326 C330 0.949 . S
C327 C328 1.349 . S
C327 C329 1.327 . S
C327 H350 0.950 . S
C328 C327 1.349 . S
C328 C340 1.349 . S
C329 C327 1.327 . S
C329 C345 1.429 . S
C329 H351 0.950 . S
C330 H326 0.949 . S
C330 C338 1.574 . S
C330 C346 1.368 . S
H331 C339 0.950 . S
H332 C337 0.950 . S
H333 C338 0.949 . S
H334 C340 0.950 1_455 S
H335 C341 0.950 . S
H336 C342 0.949 . S
C337 H332 0.950 . S
C337 C339 1.327 . S
C337 C343 1.429 . S
C338 C330 1.574 . S
C338 H333 0.949 . S
C338 C344 1.368 . S
C339 C323 1.349 . S
C339 H331 0.950 . S
C339 C337 1.327 . S
C340 C328 1.349 . S
C340 H334 0.950 1_655 S
C340 C341 1.327 . S
C341 H335 0.950 . S
C341 C340 1.327 . S
C341 C345 1.429 . S
C342 C325 1.574 . S
C342 H336 0.949 . S
C342 C346 1.368 . S
C343 C324 1.429 . S
C343 C337 1.429 . S
C343 C344 1.523 . S
C344 C325 1.368 . S
C344 C338 1.368 . S
C344 C343 1.523 . S
C345 C329 1.429 . S
C345 C341 1.429 . S
C345 C346 1.523 . S
C346 C330 1.368 . S
C346 C342 1.368 . S
C346 C345 1.523 . S
H347 C322 0.950 . S
H348 C324 0.950 . S
H349 C325 0.949 . S
H350 C327 0.950 . S
H351 C329 0.950 . S
C352 C353 1.349 . S
C352 C354 1.327 . S
C352 H377 0.950 . S
C353 C352 1.349 . S
C353 C369 1.347 . S
C354 C352 1.327 . S
C354 C373 1.429 . S
C354 H378 0.950 . S
C355 C372 1.574 . S
C355 C374 1.368 1_556 S
C355 H379 0.949 . S
H356 C360 0.949 . S
C357 C358 1.349 . S
C357 C359 1.327 . S
C357 H380 0.950 . S
C358 C357 1.349 . S
C358 C370 1.349 1_556 S
C359 C357 1.327 . S
C359 C375 1.429 . S
C359 H381 0.950 . S
C360 H356 0.949 . S
C360 C368 1.574 . S
C360 C376 1.370 . S
H361 C369 0.951 1_556 S
H362 C367 0.950 . S
H363 C368 0.949 . S
H364 C370 0.950 . S
H365 C371 0.950 . S
H366 C372 0.949 . S
C367 H362 0.950 . S
C367 C369 1.327 1_556 S
C367 C373 1.429 1_556 S
C368 C360 1.574 . S
C368 H363 0.949 . S
C368 C374 1.368 . S
C369 C353 1.347 . S
C369 H361 0.951 1_554 S
C369 C367 1.327 1_554 S
C370 C358 1.349 1_554 S
C370 H364 0.950 . S
C370 C371 1.327 . S
C371 H365 0.950 . S
C371 C370 1.327 . S
C371 C375 1.429 1_554 S
C372 C355 1.574 . S
C372 H366 0.949 . S
C372 C376 1.367 1_556 S
C373 C354 1.429 . S
C373 C367 1.429 1_554 S
C373 C374 1.523 . S
C374 C355 1.368 1_554 S
C374 C368 1.368 . S
C374 C373 1.523 . S
C375 C359 1.429 . S
C375 C371 1.429 1_556 S
C375 C376 1.523 1_556 S
C376 C360 1.370 . S
C376 C372 1.367 1_554 S
C376 C375 1.523 1_554 S
H377 C352 0.950 . S
H378 C354 0.950 . S
H379 C355 0.949 . S
H380 C357 0.950 . S
H381 C359 0.950 . S
C382 C383 1.349 . S
C382 C384 1.327 . S
C382 H407 0.950 . S
C383 C382 1.349 . S
C383 C399 1.349 . S
C384 C382 1.327 . S
C384 C403 1.429 . S
C384 H408 0.950 1_554 S
C385 C402 1.574 . S
C385 C404 1.368 . S
C385 H409 0.949 . S
H386 C390 0.949 . S
C387 C388 1.349 . S
C387 C389 1.321 1_556 S
C387 H410 0.950 1_556 S
C388 C387 1.349 . S
C388 C400 1.349 . S
C389 C387 1.321 1_554 S
C389 C405 1.418 1_554 S
C389 H411 0.967 . S
C390 H386 0.949 . S
C390 C398 1.574 . S
C390 C406 1.368 . S
H391 C399 0.950 . S
H392 C397 0.950 . S
H393 C398 0.949 . S
H394 C400 0.950 . S
H395 C401 0.950 . S
H396 C402 0.949 . S
C397 H392 0.950 . S
C397 C399 1.327 . S
C397 C403 1.429 . S
C398 C390 1.574 . S
C398 H393 0.949 . S
C398 C404 1.368 1_556 S
C399 C383 1.349 . S
C399 H391 0.950 . S
C399 C397 1.327 . S
C400 C388 1.349 . S
C400 H394 0.950 . S
C400 C401 1.327 . S
C401 H395 0.950 . S
C401 C400 1.327 . S
C401 C405 1.429 . S
C402 C385 1.574 . S
C402 H396 0.949 . S
C402 C406 1.368 1_554 S
C403 C384 1.429 . S
C403 C397 1.429 . S
C403 C404 1.523 . S
C404 C385 1.368 . S
C404 C398 1.368 1_554 S
C404 C403 1.523 . S
C405 C389 1.418 1_556 S
C405 C401 1.429 . S
C405 C406 1.523 . S
C406 C390 1.368 . S
C406 C402 1.368 1_556 S
C406 C405 1.523 . S
H407 C382 0.950 . S
H408 C384 0.950 1_556 S
H409 C385 0.949 . S
H410 C387 0.950 1_554 S
H411 C389 0.967 . S
C412 C413 1.349 . S
C412 C414 1.327 1_554 S
C412 H437 0.950 1_554 S
C413 C412 1.349 . S
C413 C429 1.349 . S
C414 C412 1.327 1_556 S
C414 C433 1.429 1_556 S
C414 H438 0.950 . S
C415 C432 1.574 . S
C415 C434 1.368 . S
C415 H439 0.949 . S
H416 C420 0.949 . S
C417 C418 1.349 1_554 S
C417 C419 1.327 . S
C417 H440 0.950 . S
C418 C417 1.349 1_556 S
C418 C430 1.349 . S
C419 C417 1.327 . S
C419 C435 1.429 1_554 S
C419 H441 0.950 . S
C420 H416 0.949 . S
C420 C428 1.574 . S
C420 C436 1.367 1_556 S
H421 C429 0.950 . S
H422 C427 0.950 . S
H423 C428 0.949 . S
H424 C430 0.950 . S
H425 C431 0.950 . S
H426 C432 0.949 . S
C427 H422 0.950 . S
C427 C429 1.327 . S
C427 C433 1.429 . S
C428 C420 1.574 . S
C428 H423 0.949 . S
C428 C434 1.368 1_556 S
C429 C413 1.349 . S
C429 H421 0.950 . S
C429 C427 1.327 . S
C430 C418 1.349 . S
C430 H424 0.950 . S
C430 C431 1.327 . S
C431 H425 0.950 . S
C431 C430 1.327 . S
C431 C435 1.429 . S
C432 C415 1.574 . S
C432 H426 0.949 . S
C432 C436 1.370 . S
C433 C414 1.429 1_554 S
C433 C427 1.429 . S
C433 C434 1.523 . S
C434 C415 1.368 . S
C434 C428 1.368 1_554 S
C434 C433 1.523 . S
C435 C419 1.429 1_556 S
C435 C431 1.429 . S
C435 C436 1.523 1_556 S
C436 C420 1.367 1_554 S
C436 C432 1.370 . S
C436 C435 1.523 1_554 S
H437 C412 0.950 1_556 S
H438 C414 0.950 . S
H439 C415 0.949 . S
H440 C417 0.950 . S
H441 C419 0.950 . S
C442 C443 1.349 . S
C442 C444 1.327 . S
C442 H467 0.950 . S
C443 C442 1.349 . S
C443 C459 1.373 . S
C444 C442 1.327 . S
C444 C463 1.429 . S
C444 H468 0.950 . S
C445 C462 1.574 . S
C445 C464 1.368 1_554 S
C445 H469 0.949 . S
H446 C450 0.949 . S
C447 C448 1.349 . S
C447 C449 1.327 . S
C447 H470 0.950 . S
C448 C447 1.349 . S
C448 C460 1.349 . S
C449 C447 1.327 . S
C449 C465 1.429 . S
C449 H471 0.950 . S
C450 H446 0.949 . S
C450 C458 1.574 . S
C450 C466 1.368 1_556 S
H451 C459 0.934 1_554 S
H452 C457 0.950 . S
H453 C458 0.949 . S
H454 C460 0.950 1_556 S
H455 C461 0.969 . S
H456 C462 0.949 . S
C457 H452 0.950 . S
C457 C459 1.321 1_554 S
C457 C463 1.429 1_554 S
C458 C450 1.574 . S
C458 H453 0.949 . S
C458 C464 1.368 . S
C459 C443 1.373 . S
C459 H451 0.934 1_556 S
C459 C457 1.321 1_556 S
C460 C448 1.349 . S
C460 H454 0.950 1_554 S
C460 C461 1.322 1_554 S
C461 H455 0.969 . S
C461 C460 1.322 1_556 S
C461 C465 1.416 1_556 S
C462 C445 1.574 . S
C462 H456 0.949 . S
C462 C466 1.368 . S
C463 C444 1.429 . S
C463 C457 1.429 1_556 S
C463 C464 1.523 . S
C464 C445 1.368 1_556 S
C464 C458 1.368 . S
C464 C463 1.523 . S
C465 C449 1.429 . S
C465 C461 1.416 1_554 S
C465 C466 1.523 . S
C466 C450 1.368 1_554 S
C466 C462 1.368 . S
C466 C465 1.523 . S
H467 C442 0.950 . S
H468 C444 0.950 . S
H469 C445 0.949 . S
H470 C447 0.950 . S
H471 C449 0.950 . S
C472 C473 1.349 . S
C472 C474 1.327 . S
C472 H497 0.950 . S
C473 C472 1.349 . S
C473 C489 1.349 . S
C474 C472 1.327 . S
C474 C493 1.429 . S
C474 H498 0.950 . S
C475 C492 1.574 . S
C475 C494 1.368 1_455 S
C475 H499 0.949 . S
H476 C480 0.949 . S
C477 C478 1.349 . S
C477 C479 1.327 . S
C477 H500 0.950 . S
C478 C477 1.349 . S
C478 C490 1.349 . S
C479 C477 1.327 . S
C479 C495 1.429 . S
C479 H501 0.950 . S
C480 H476 0.949 . S
C480 C488 1.574 . S
C480 C496 1.368 1_655 S
H481 C489 0.950 . S
H482 C487 0.950 . S
H483 C488 0.949 . S
H484 C490 0.950 . S
H485 C491 0.950 . S
H486 C492 0.949 . S
C487 H482 0.950 . S
C487 C489 1.327 . S
C487 C493 1.429 . S
C488 C480 1.574 . S
C488 H483 0.949 . S
C488 C494 1.368 . S
C489 C473 1.349 . S
C489 H481 0.950 . S
C489 C487 1.327 . S
C490 C478 1.349 . S
C490 H484 0.950 . S
C490 C491 1.327 . S
C491 H485 0.950 . S
C491 C490 1.327 . S
C491 C495 1.429 . S
C492 C475 1.574 . S
C492 H486 0.949 . S
C492 C496 1.368 . S
C493 C474 1.429 . S
C493 C487 1.429 . S
C493 C494 1.523 . S
C494 C475 1.368 1_655 S
C494 C488 1.368 . S
C494 C493 1.523 . S
C495 C479 1.429 . S
C495 C491 1.429 . S
C495 C496 1.523 . S
C496 C480 1.368 1_455 S
C496 C492 1.368 . S
C496 C495 1.523 . S
H497 C472 0.950 . S
H498 C474 0.950 . S
H499 C475 0.949 . S
H500 C477 0.950 . S
H501 C479 0.950 . S
C502 C503 1.349 . S
C502 C504 1.327 . S
C502 H527 0.950 . S
C503 C502 1.349 . S
C503 C519 1.349 . S
C504 C502 1.327 . S
C504 C523 1.429 . S
C504 H528 0.950 . S
C505 C522 1.574 . S
C505 C524 1.368 1_565 S
C505 H529 0.949 . S
H506 C510 0.949 . S
C507 C508 1.349 . S
C507 C509 1.327 . S
C507 H530 0.950 . S
C508 C507 1.349 . S
C508 C520 1.349 . S
C509 C507 1.327 . S
C509 C525 1.429 . S
C509 H531 0.950 . S
C510 H506 0.949 . S
C510 C518 1.574 . S
C510 C526 1.368 1_545 S
H511 C519 0.950 . S
H512 C517 0.950 . S
H513 C518 0.949 . S
H514 C520 0.950 . S
H515 C521 0.950 . S
H516 C522 0.949 . S
C517 H512 0.950 . S
C517 C519 1.327 . S
C517 C523 1.429 . S
C518 C510 1.574 . S
C518 H513 0.949 . S
C518 C524 1.368 . S
C519 C503 1.349 . S
C519 H511 0.950 . S
C519 C517 1.327 . S
C520 C508 1.349 . S
C520 H514 0.950 . S
C520 C521 1.327 . S
C521 H515 0.950 . S
C521 C520 1.327 . S
C521 C525 1.429 . S
C522 C505 1.574 . S
C522 H516 0.949 . S
C522 C526 1.368 . S
C523 C504 1.429 . S
C523 C517 1.429 . S
C523 C524 1.523 . S
C524 C505 1.368 1_545 S
C524 C518 1.368 . S
C524 C523 1.523 . S
C525 C509 1.429 . S
C525 C521 1.429 . S
C525 C526 1.523 . S
C526 C510 1.368 1_565 S
C526 C522 1.368 . S
C526 C525 1.523 . S
H527 C502 0.950 . S
H528 C504 0.950 . S
H529 C505 0.949 . S
H530 C507 0.950 . S
H531 C509 0.950 . S
C532 C533 1.349 . S
C532 C534 1.327 . S
C532 H557 0.950 . S
C533 C532 1.349 . S
C533 C549 1.349 . S
C534 C532 1.327 . S
C534 C553 1.429 . S
C534 H558 0.950 . S
C535 C552 1.574 1_545 S
C535 C554 1.384 . S
C535 H559 0.935 1_556 S
H536 C540 0.949 . S
C537 C538 1.349 . S
C537 C539 1.327 . S
C537 H560 0.950 1_556 S
C538 C537 1.349 . S
C538 C550 1.349 . S
C539 C537 1.327 . S
C539 C555 1.429 . S
C539 H561 0.950 1_556 S
C540 H536 0.949 . S
C540 C548 1.574 1_565 S
C540 C556 1.368 . S
H541 C549 0.950 1_554 S
H542 C547 0.950 1_554 S
H543 C548 0.949 . S
H544 C550 0.950 . S
H545 C551 0.950 . S
H546 C552 0.935 1_554 S
C547 H542 0.950 1_556 S
C547 C549 1.327 . S
C547 C553 1.429 . S
C548 C540 1.574 1_545 S
C548 H543 0.949 . S
C548 C554 1.368 . S
C549 C533 1.349 . S
C549 H541 0.950 1_556 S
C549 C547 1.327 . S
C550 C538 1.349 . S
C550 H544 0.950 . S
C550 C551 1.327 . S
C551 H545 0.950 . S
C551 C550 1.327 . S
C551 C555 1.429 . S
C552 C535 1.574 1_565 S
C552 H546 0.935 1_556 S
C552 C556 1.384 . S
C553 C534 1.429 . S
C553 C547 1.429 . S
C553 C554 1.523 . S
C554 C535 1.384 . S
C554 C548 1.368 . S
C554 C553 1.523 . S
C555 C539 1.429 . S
C555 C551 1.429 . S
C555 C556 1.523 . S
C556 C540 1.368 . S
C556 C552 1.384 . S
C556 C555 1.523 . S
H557 C532 0.950 . S
H558 C534 0.950 . S
H559 C535 0.935 1_554 S
H560 C537 0.950 1_554 S
H561 C539 0.950 1_554 S
C562 C563 1.349 . S
C562 C564 1.327 . S
C562 H587 0.950 1_554 S
C563 C562 1.349 . S
C563 C579 1.349 . S
C564 C562 1.327 . S
C564 C583 1.429 . S
C564 H588 0.950 1_554 S
C565 C582 1.574 1_455 S
C565 C584 1.368 . S
C565 H589 0.949 . S
H566 C570 0.949 1_556 S
C567 C568 1.349 . S
C567 C569 1.327 . S
C567 H590 0.950 . S
C568 C567 1.349 . S
C568 C580 1.349 . S
C569 C567 1.327 . S
C569 C585 1.429 . S
C569 H591 0.950 . S
C570 H566 0.949 1_554 S
C570 C578 1.574 1_655 S
C570 C586 1.368 . S
H571 C579 0.950 . S
H572 C577 0.950 . S
H573 C578 0.949 1_556 S
H574 C580 0.950 1_556 S
H575 C581 0.950 1_556 S
H576 C582 0.949 . S
C577 H572 0.950 . S
C577 C579 1.327 . S
C577 C583 1.429 . S
C578 C570 1.574 1_455 S
C578 H573 0.949 1_554 S
C578 C584 1.368 . S
C579 C563 1.349 . S
C579 H571 0.950 . S
C579 C577 1.327 . S
C580 C568 1.349 . S
C580 H574 0.950 1_554 S
C580 C581 1.327 . S
C581 H575 0.950 1_554 S
C581 C580 1.327 . S
C581 C585 1.429 . S
C582 C565 1.574 1_655 S
C582 H576 0.949 . S
C582 C586 1.368 . S
C583 C564 1.429 . S
C583 C577 1.429 . S
C583 C584 1.523 . S
C584 C565 1.368 . S
C584 C578 1.368 . S
C584 C583 1.523 . S
C585 C569 1.429 . S
C585 C581 1.429 . S
C585 C586 1.523 . S
C586 C570 1.368 . S
C586 C582 1.368 . S
C586 C585 1.523 . S
H587 C562 0.950 1_556 S
H588 C564 0.950 1_556 S
H589 C565 0.949 . S
H590 C567 0.950 . S
H591 C569 0.950 . S
C113 C106 1.567 . S
C118 C8 1.565 . S
C143 C17 1.549 . S
C148 C64 1.546 . S
C173 C36 1.565 . S
C178 C78 1.567 . S
C203 C92 1.546 . S
C208 C45 1.549 . S
C233 C21 1.339 1_545 S
C238 C3 1.338 . S
C263 C22 1.397 . S
C268 C37 1.406 1_455 S
C293 C49 1.339 1_565 S
C298 C31 1.338 . S
C323 C50 1.397 . S
C328 C9 1.406 1_655 S
C353 C107 1.451 . S
C358 C59 1.414 . S
C383 C73 1.400 . S
C388 C65 1.433 . S
C413 C79 1.451 . S
C418 C87 1.414 . S
C443 C93 1.433 . S
C448 C101 1.400 . S
C473 C35 0.881 . S
C478 C7 0.881 . S
C503 C51 0.872 . S
C508 C23 0.872 . S
C533 C91 0.901 . S
C538 C63 0.901 . S
C563 C105 0.942 . S
C568 C77 0.942 . S
