# Generated by pormake.
# Topology une, (4)-cn, num edge types: 1
# Building blocks:
#     Node 0, Type 0, BuildingBlock: CEKHIL_clean_sbu_0, # of connection points: 4
#     Node 1, Type 0, BuildingBlock: CEKHIL_clean_sbu_0, # of connection points: 4
#     Node 2, Type 0, BuildingBlock: CEKHIL_clean_sbu_0, # of connection points: 4
#     Node 3, Type 0, BuildingBlock: CEKHIL_clean_sbu_0, # of connection points: 4
#     Node 4, Type 0, BuildingBlock: CEKHIL_clean_sbu_0, # of connection points: 4
#     Node 5, Type 0, BuildingBlock: CEKHIL_clean_sbu_0, # of connection points: 4
#     Node 6, Type 0, BuildingBlock: CEKHIL_clean_sbu_0, # of connection points: 4
#     Node 7, Type 0, BuildingBlock: CEKHIL_clean_sbu_0, # of connection points: 4
#     Node 8, Type 0, BuildingBlock: CEKHIL_clean_sbu_0, # of connection points: 4
#     Node 9, Type 0, BuildingBlock: CEKHIL_clean_sbu_0, # of connection points: 4
#     Node 10, Type 0, BuildingBlock: CEKHIL_clean_sbu_0, # of connection points: 4
#     Node 11, Type 0, BuildingBlock: CEKHIL_clean_sbu_0, # of connection points: 4
#     Node 12, Type 0, BuildingBlock: CEKHIL_clean_sbu_0, # of connection points: 4
#     Node 13, Type 0, BuildingBlock: CEKHIL_clean_sbu_0, # of connection points: 4
#     Node 14, Type 0, BuildingBlock: CEKHIL_clean_sbu_0, # of connection points: 4
#     Node 15, Type 0, BuildingBlock: CEKHIL_clean_sbu_0, # of connection points: 4
#     Node 16, Type 0, BuildingBlock: CEKHIL_clean_sbu_0, # of connection points: 4
#     Node 17, Type 0, BuildingBlock: CEKHIL_clean_sbu_0, # of connection points: 4
#     Edge 18, Type (0, 0), BuildingBlock: TEMPAE_clean_linker_10, # of connection points: 2
#     Edge 19, Type (0, 0), BuildingBlock: TEMPAE_clean_linker_10, # of connection points: 2
#     Edge 20, Type (0, 0), BuildingBlock: TEMPAE_clean_linker_10, # of connection points: 2
#     Edge 21, Type (0, 0), BuildingBlock: TEMPAE_clean_linker_10, # of connection points: 2
#     Edge 22, Type (0, 0), BuildingBlock: TEMPAE_clean_linker_10, # of connection points: 2
#     Edge 23, Type (0, 0), BuildingBlock: TEMPAE_clean_linker_10, # of connection points: 2
#     Edge 24, Type (0, 0), BuildingBlock: TEMPAE_clean_linker_10, # of connection points: 2
#     Edge 25, Type (0, 0), BuildingBlock: TEMPAE_clean_linker_10, # of connection points: 2
#     Edge 26, Type (0, 0), BuildingBlock: TEMPAE_clean_linker_10, # of connection points: 2
#     Edge 27, Type (0, 0), BuildingBlock: TEMPAE_clean_linker_10, # of connection points: 2
#     Edge 28, Type (0, 0), BuildingBlock: TEMPAE_clean_linker_10, # of connection points: 2
#     Edge 29, Type (0, 0), BuildingBlock: TEMPAE_clean_linker_10, # of connection points: 2
#     Edge 30, Type (0, 0), BuildingBlock: TEMPAE_clean_linker_10, # of connection points: 2
#     Edge 31, Type (0, 0), BuildingBlock: TEMPAE_clean_linker_10, # of connection points: 2
#     Edge 32, Type (0, 0), BuildingBlock: TEMPAE_clean_linker_10, # of connection points: 2
#     Edge 33, Type (0, 0), BuildingBlock: TEMPAE_clean_linker_10, # of connection points: 2
#     Edge 34, Type (0, 0), BuildingBlock: TEMPAE_clean_linker_10, # of connection points: 2
#     Edge 35, Type (0, 0), BuildingBlock: TEMPAE_clean_linker_10, # of connection points: 2
#     Edge 36, Type (0, 0), BuildingBlock: TEMPAE_clean_linker_10, # of connection points: 2
#     Edge 37, Type (0, 0), BuildingBlock: TEMPAE_clean_linker_10, # of connection points: 2
#     Edge 38, Type (0, 0), BuildingBlock: TEMPAE_clean_linker_10, # of connection points: 2
#     Edge 39, Type (0, 0), BuildingBlock: TEMPAE_clean_linker_10, # of connection points: 2
#     Edge 40, Type (0, 0), BuildingBlock: TEMPAE_clean_linker_10, # of connection points: 2
#     Edge 41, Type (0, 0), BuildingBlock: TEMPAE_clean_linker_10, # of connection points: 2
#     Edge 42, Type (0, 0), BuildingBlock: TEMPAE_clean_linker_10, # of connection points: 2
#     Edge 43, Type (0, 0), BuildingBlock: TEMPAE_clean_linker_10, # of connection points: 2
#     Edge 44, Type (0, 0), BuildingBlock: TEMPAE_clean_linker_10, # of connection points: 2
#     Edge 45, Type (0, 0), BuildingBlock: TEMPAE_clean_linker_10, # of connection points: 2
#     Edge 46, Type (0, 0), BuildingBlock: TEMPAE_clean_linker_10, # of connection points: 2
#     Edge 47, Type (0, 0), BuildingBlock: TEMPAE_clean_linker_10, # of connection points: 2
#     Edge 48, Type (0, 0), BuildingBlock: TEMPAE_clean_linker_10, # of connection points: 2
#     Edge 49, Type (0, 0), BuildingBlock: TEMPAE_clean_linker_10, # of connection points: 2
#     Edge 50, Type (0, 0), BuildingBlock: TEMPAE_clean_linker_10, # of connection points: 2
#     Edge 51, Type (0, 0), BuildingBlock: TEMPAE_clean_linker_10, # of connection points: 2
#     Edge 52, Type (0, 0), BuildingBlock: TEMPAE_clean_linker_10, # of connection points: 2
#     Edge 53, Type (0, 0), BuildingBlock: TEMPAE_clean_linker_10, # of connection points: 2
# Relax obj value: 0.261
# Max RMSD: 0.176
# Mean RMSD: 0.165
data_MOF--net-une--node1-CEKHIL_clean_sbu_0--edge1-TEMPAE_clean_linker_10
_symmetry_space_group_name_H-M    P1
_symmetry_Int_Tables_number       1
_symmetry_cell_setting            triclinic
loop_
_symmetry_equiv_pos_as_xyz
'x, y, z'
_cell_length_a     38.592981
_cell_length_b     38.032456
_cell_length_c     52.803926
_cell_angle_alpha  90.14321
_cell_angle_beta   90.582868
_cell_angle_gamma 119.88249
loop_
_atom_site_label
_atom_site_type_symbol
_atom_site_fract_x
_atom_site_fract_y
_atom_site_fract_z
_atom_type_partial_charge
Co0 Co 0.40798 0.1017 0.06627 0.0
O1 O 0.43855 0.07337 0.06787 0.0
O2 O 0.44134 0.11305 0.03668 0.0
C3 C 0.41511 0.12652 0.10651 0.0
O4 O 0.3835 0.1369 0.05768 0.0
Co5 Co 0.33067 0.07432 0.09761 0.0
O6 O 0.33752 0.1273 0.08681 0.0
C7 C 0.32729 0.02767 0.05229 0.0
C8 C 0.45199 0.08792 0.04552 0.0
C9 C 0.35972 0.1469 0.06834 0.0
O10 O 0.36378 0.05386 0.04739 0.0
O11 O 0.30954 0.02906 0.07228 0.0
O12 O 0.44383 0.14481 0.09025 0.0
O13 O 0.38705 0.09126 0.09923 0.0
Co14 Co 0.91882 0.29991 0.06292 0.0
O15 O 0.8916 0.2902 0.09534 0.0
O16 O 0.92963 0.26481 0.08399 0.0
C17 C 0.94368 0.36771 0.05819 0.0
O18 O 0.95311 0.30302 0.03297 0.0
Co19 Co 0.89208 0.32696 0.01473 0.0
O20 O 0.9445 0.33755 1.00145 0.0
C21 C 0.8425 0.24415 0.03319 0.0
C22 C 0.9053 0.2658 0.10042 0.0
C23 C 0.96366 0.32196 0.01177 0.0
O24 O 0.87071 0.2502 0.04879 0.0
O25 O 0.84381 0.27198 0.01897 0.0
O26 O 0.96188 0.35435 0.07292 0.0
O27 O 0.90894 0.34027 0.05001 0.0
Co28 Co 0.69056 0.60519 0.06191 0.0
O29 O 0.63274 0.57208 0.06579 0.0
O30 O 0.66601 0.57064 0.03246 0.0
C31 C 0.71317 0.59949 0.10081 0.0
O32 O 0.74866 0.63202 0.05081 0.0
Co33 Co 0.74155 0.68497 0.09256 0.0
O34 O 0.78715 0.68059 0.07908 0.0
C35 C 0.68904 0.68357 0.05155 0.0
C36 C 0.63158 0.55853 0.04292 0.0
C37 C 0.78311 0.65769 0.06028 0.0
O38 O 0.68237 0.64813 0.045 0.0
O39 O 0.70959 0.70235 0.07126 0.0
O40 O 0.70202 0.57045 0.08404 0.0
O41 O 0.70447 0.6271 0.0949 0.0
Co42 Co 0.61014 0.92361 0.9355 0.0
O43 O 0.59848 0.89825 0.90176 0.0
O44 O 0.65873 0.93494 0.91846 0.0
C45 C 0.56994 0.95174 0.93702 0.0
O46 O 0.63616 0.95559 0.96759 0.0
Co47 Co 0.54865 0.89644 0.97905 0.0
O48 O 0.58943 0.94819 0.99541 0.0
C49 C 0.58454 0.84637 0.96626 0.0
C50 C 0.63685 0.91228 0.89978 0.0
C51 C 0.6255 0.96599 0.98795 0.0
O52 O 0.60739 0.87344 0.95038 0.0
O53 O 0.55702 0.84848 0.97833 0.0
O54 O 0.60328 0.96927 0.9245 0.0
O55 O 0.5592 0.91534 0.94428 0.0
Co56 Co 0.08836 0.69221 0.94612 0.0
O57 O 0.12241 0.7047 0.91631 0.0
O58 O 0.07524 0.72075 0.92106 0.0
C59 C 0.0721 0.62661 0.95439 0.0
O60 O 0.0464 0.68547 0.97173 0.0
Co61 Co 0.10926 0.67384 0.99952 0.0
O62 O 0.05451 0.66137 0.0087 0.0
C63 C 0.15569 0.75553 0.97896 0.0
C64 C 0.10464 0.72391 0.9077 0.0
C65 C 0.0346 0.67158 0.99409 0.0
O66 O 0.12906 0.74623 0.96141 0.0
O67 O 0.15521 0.72951 0.99443 0.0
O68 O 0.05374 0.63435 0.93621 0.0
O69 O 0.10238 0.65832 0.964 0.0
Co70 Co 0.30401 0.3861 0.93587 0.0
O71 O 0.29245 0.39994 0.9024 0.0
O72 O 0.27036 0.33773 0.91622 0.0
C73 C 0.37083 0.42966 0.94046 0.0
O74 O 0.30909 0.35846 0.96729 0.0
Co75 Co 0.33046 0.44488 0.98192 0.0
O76 O 0.34318 0.40499 0.99756 0.0
C77 C 0.24644 0.40452 0.96526 0.0
C78 C 0.26988 0.36102 0.89847 0.0
C79 C 0.32798 0.36907 0.98863 0.0
O80 O 0.25418 0.38406 0.94915 0.0
O81 O 0.27345 0.43253 0.97923 0.0
O82 O 0.35759 0.39707 0.92647 0.0
O83 O 0.34367 0.43804 0.94742 0.0
Co84 Co 0.0778 0.43501 0.40116 0.0
O85 O 0.11178 0.41044 0.40291 0.0
O86 O 0.10872 0.44525 0.37051 0.0
C87 C 0.08691 0.46367 0.44039 0.0
O88 O 0.04893 0.4658 0.39206 0.0
Co89 Co 1.00278 0.40603 0.43503 0.0
O90 O 1.00454 0.45605 0.42236 0.0
C91 C 0.99994 0.3552 0.39227 0.0
C92 C 0.12252 0.42299 0.37985 0.0
C93 C 0.02445 0.47463 0.40288 0.0
O94 O 0.03406 0.38375 0.38488 0.0
O95 O 0.98391 0.35688 0.41299 0.0
O96 O 0.1137 0.48169 0.42295 0.0
O97 O 0.05998 0.42699 0.43481 0.0
Co98 Co 0.57944 0.6375 0.40052 0.0
O99 O 0.54625 0.62687 0.43016 0.0
O100 O 0.58978 0.60581 0.42511 0.0
C101 C 0.60156 0.70433 0.39402 0.0
O102 O 0.61911 0.64241 0.37359 0.0
Co103 Co 0.55602 0.65997 0.34907 0.0
O104 O 0.61048 0.67224 0.33924 0.0
C105 C 0.50808 0.57762 0.36851 0.0
C106 C 0.56156 0.60534 0.43858 0.0
C107 C 0.63043 0.65964 0.35189 0.0
O108 O 0.53554 0.58567 0.38519 0.0
O109 O 0.5089 0.60426 0.35338 0.0
O110 O 0.61849 0.69312 0.4112 0.0
O111 O 0.56872 0.6753 0.38452 0.0
Co112 Co 0.35687 0.93553 0.39514 0.0
O113 O 0.29925 0.90193 0.39986 0.0
O114 O 0.33155 0.90039 0.36605 0.0
C115 C 0.38094 0.93069 0.4338 0.0
O116 O 0.41444 0.96276 0.38303 0.0
Co117 Co 0.40869 0.01583 0.42521 0.0
O118 O 0.45409 0.01264 0.41022 0.0
C119 C 0.35418 0.01331 0.38513 0.0
C120 C 0.29744 0.88806 0.37699 0.0
C121 C 0.44927 0.98944 0.39144 0.0
O122 O 0.3475 0.97789 0.37848 0.0
O123 O 0.3754 0.03234 0.40457 0.0
O124 O 0.36964 0.9015 0.41713 0.0
O125 O 0.37183 0.95802 0.42796 0.0
Co126 Co 0.28045 0.25738 0.27109 0.0
O127 O 0.26958 0.23335 0.23698 0.0
O128 O 0.32933 0.26808 0.25473 0.0
C129 C 0.24147 0.28686 0.27243 0.0
O130 O 0.30572 0.28787 0.30375 0.0
Co131 Co 0.21739 0.22982 0.31368 0.0
O132 O 0.25821 0.28074 0.33083 0.0
C133 C 0.25208 0.1787 0.30086 0.0
C134 C 0.30786 0.24648 0.23559 0.0
C135 C 0.2946 0.29807 0.32399 0.0
O136 O 0.27583 0.20607 0.28543 0.0
O137 O 0.22455 0.18112 0.3127 0.0
O138 O 0.27531 0.30422 0.26045 0.0
O139 O 0.22967 0.25002 0.27924 0.0
Co140 Co 0.75851 0.02546 0.27801 0.0
O141 O 0.79668 0.03692 0.25099 0.0
O142 O 0.74805 0.05155 0.24976 0.0
C143 C 0.7419 0.9607 0.28877 0.0
O144 O 0.71353 0.01912 0.30098 0.0
Co145 Co 0.77698 0.01175 0.33341 0.0
O146 O 0.72158 0.99994 0.33986 0.0
C147 C 0.82457 0.09052 0.30988 0.0
C148 C 0.77956 0.05439 0.23916 0.0
C149 C 0.70135 0.00733 0.32368 0.0
O150 O 0.79682 0.08056 0.29306 0.0
O151 O 0.82463 0.06541 0.32589 0.0
O152 O 0.72569 0.96714 0.26881 0.0
O153 O 0.77102 0.99311 0.29865 0.0
Co154 Co 0.96702 0.71705 0.27326 0.0
O155 O 0.95561 0.73235 0.2402 0.0
O156 O 0.93178 0.66952 0.25326 0.0
C157 C 0.03427 0.75914 0.27733 0.0
O158 O 0.9716 0.68799 0.30418 0.0
Co159 Co 0.99652 0.77517 0.31981 0.0
O160 O 0.00791 0.73369 0.33441 0.0
C161 C 0.91212 0.73728 0.30422 0.0
C162 C 0.93199 0.69372 0.23589 0.0
C163 C 0.99116 0.69778 0.3253 0.0
O164 O 0.91843 0.71657 0.28747 0.0
O165 O 0.94006 0.76451 0.31809 0.0
O166 O 0.01994 0.72662 0.26317 0.0
O167 O 0.00793 0.76823 0.28493 0.0
Co168 Co 0.74029 0.75883 0.73664 0.0
O169 O 0.77718 0.73775 0.73982 0.0
O170 O 0.77112 0.76832 0.70608 0.0
C171 C 0.74826 0.79066 0.7747 0.0
O172 O 0.70852 0.78588 0.72573 0.0
Co173 Co 0.66506 0.72907 0.77019 0.0
O174 O 0.6647 0.77732 0.75612 0.0
C175 C 0.66511 0.6757 0.72995 0.0
C176 C 0.7871 0.74872 0.71642 0.0
C177 C 0.68379 0.79475 0.73616 0.0
O178 O 0.69853 0.70478 0.722 0.0
O179 O 0.64831 0.67841 0.75004 0.0
O180 O 0.77446 0.80817 0.75688 0.0
O181 O 0.72275 0.75298 0.77036 0.0
Co182 Co 0.24108 0.96872 0.7311 0.0
O183 O 0.20131 0.95271 0.7576 0.0
O184 O 0.25438 0.9451 0.7595 0.0
C185 C 0.25121 0.03131 0.72043 0.0
O186 O 0.28859 0.98085 0.70869 0.0
Co187 Co 0.22213 0.98036 0.67531 0.0
O188 O 0.2802 0.00201 0.67054 0.0
C189 C 0.18099 0.89977 0.69809 0.0
C190 C 0.22101 0.93811 0.76958 0.0
C191 C 0.3016 0.99631 0.68673 0.0
O192 O 0.20746 0.9128 0.71596 0.0
O193 O 0.17954 0.92297 0.68113 0.0
O194 O 0.26848 0.02693 0.7406 0.0
O195 O 0.22455 0.99764 0.7102 0.0
Co196 Co 0.0233 0.26215 0.72842 0.0
O197 O 0.96571 0.22736 0.73188 0.0
O198 O 0.99996 0.22832 0.69846 0.0
C199 C 0.04573 0.25572 0.76716 0.0
O200 O 0.08194 0.29141 0.71803 0.0
Co201 Co 0.0707 0.34091 0.76064 0.0
O202 O 0.1175 0.33786 0.74815 0.0
C203 C 0.01869 0.33923 0.71927 0.0
C204 C 0.96523 0.21467 0.70889 0.0
C205 C 0.11544 0.31657 0.72888 0.0
O206 O 0.01366 0.30462 0.71216 0.0
O207 O 0.03813 0.35753 0.7394 0.0
O208 O 0.03579 0.22756 0.74992 0.0
O209 O 0.03571 0.28256 0.76177 0.0
Co210 Co 0.94979 0.58683 0.60729 0.0
O211 O 0.93945 0.56586 0.57241 0.0
O212 O 0.99882 0.59817 0.59088 0.0
C213 C 0.91184 0.61731 0.61005 0.0
O214 O 0.97452 0.6139 0.64086 0.0
Co215 Co 0.8857 0.557 0.64939 0.0
O216 O 0.92695 0.60576 0.66822 0.0
C217 C 0.91936 0.50569 0.63439 0.0
C218 C 0.97766 0.57861 0.57113 0.0
C219 C 0.96344 0.62249 0.66172 0.0
O220 O 0.94372 0.53393 0.61966 0.0
O221 O 0.89194 0.50782 0.64657 0.0
O222 O 0.94607 0.63518 0.59853 0.0
O223 O 0.89919 0.57981 0.61561 0.0
Co224 Co 0.41779 0.35767 0.6139 0.0
O225 O 0.44655 0.36757 0.58205 0.0
O226 O 0.41139 0.3962 0.59341 0.0
C227 C 0.38819 0.28898 0.61668 0.0
O228 O 0.38294 0.35552 0.64314 0.0
Co229 Co 0.43676 0.32291 0.66185 0.0
O230 O 0.38541 0.31673 0.67429 0.0
C231 C 0.49178 0.40721 0.6474 0.0
C232 C 0.43515 0.39387 0.57711 0.0
C233 C 0.36993 0.33604 0.66396 0.0
O234 O 0.46662 0.40431 0.6302 0.0
O235 O 0.48689 0.37711 0.6608 0.0
O236 O 0.37287 0.30546 0.60204 0.0
O237 O 0.42299 0.31394 0.62601 0.0
Co238 Co 0.63378 0.04429 0.60756 0.0
O239 O 0.62186 0.06015 0.57482 0.0
O240 O 0.59689 0.99715 0.5878 0.0
C241 C 0.70141 0.08516 0.61048 0.0
O242 O 0.63844 0.01446 0.63806 0.0
Co243 Co 0.66708 0.10206 0.65422 0.0
O244 O 0.67699 0.05918 0.66812 0.0
C245 C 0.58228 0.06718 0.64001 0.0
C246 C 0.59741 0.02167 0.57056 0.0
C247 C 0.65868 0.02333 0.6589 0.0
O248 O 0.58666 0.04562 0.62287 0.0
O249 O 0.61144 0.09372 0.65348 0.0
O250 O 0.68583 0.05243 0.59645 0.0
O251 O 0.676 0.09495 0.61887 0.0
C252 C 0.47538 0.07801 1.00301 0.0
C253 C 0.47365 0.0726 0.02941 0.0
C254 C 0.49175 0.06028 0.98705 0.0
C255 C 0.50773 0.03699 0.99756 0.0
C256 C 0.50723 0.0325 0.02429 0.0
C257 C 0.48987 0.04986 0.03979 0.0
C258 C 0.49081 0.06546 0.95876 0.0
C259 C 0.52473 0.00892 0.03653 0.0
C260 C 0.51316 0.9555 0.9574 0.0
C261 C 0.55317 0.97526 0.94969 0.0
C262 C 0.49788 0.97548 0.9723 0.0
C263 C 0.52341 0.01606 0.98057 0.0
C264 C 0.56385 0.03626 0.97269 0.0
C265 C 0.57806 0.01586 0.95718 0.0
C266 C 0.4544 0.95281 0.97956 0.0
C267 C 0.59263 0.07896 0.98147 0.0
H268 H 0.46262 0.09507 0.99463 0.0
H269 H 0.48875 0.04537 0.06009 0.0
H270 H 0.5214 0.07882 0.95108 0.0
H271 H 0.47243 0.03538 0.94952 0.0
H272 H 0.47825 0.08517 0.9535 0.0
H273 H 0.52331 0.00921 0.05752 0.0
H274 H 0.50851 0.97699 0.02975 0.0
H275 H 0.55638 0.02194 0.03097 0.0
H276 H 0.49378 0.92404 0.95197 0.0
H277 H 0.60928 0.03115 0.95195 0.0
H278 H 0.43969 0.97043 0.97407 0.0
H279 H 0.45191 0.94901 1.0004 0.0
H280 H 0.43788 0.92236 0.97046 0.0
H281 H 0.58014 0.09914 0.97759 0.0
H282 H 0.62206 0.09161 0.97214 0.0
H283 H 0.59727 0.07922 1.00225 0.0
C284 C 0.94635 0.43053 0.04128 0.0
C285 C 0.96507 0.40741 0.04504 0.0
C286 C 0.96379 0.46557 0.02612 0.0
C287 C 0.99958 0.47639 0.01295 0.0
C288 C 0.01826 0.45264 0.01644 0.0
C289 C 1.00145 0.41927 0.033 0.0
C290 C 0.94403 0.4912 0.02442 0.0
C291 C 0.05514 0.46143 1.00189 0.0
C292 C 0.02347 0.55059 0.9576 0.0
C293 C 0.05446 0.58683 0.96802 0.0
C294 C 0.0064 0.51398 0.9715 0.0
C295 C 0.01885 0.51402 0.99697 0.0
C296 C 0.04983 0.55059 1.0075 0.0
C297 C 0.06815 0.58569 0.99265 0.0
C298 C 0.97516 0.47526 0.95891 0.0
C299 C 0.06309 0.55311 0.03481 0.0
H300 H 0.91805 0.42128 0.05036 0.0
H301 H 0.01568 0.40107 0.03543 0.0
H302 H 0.96605 0.52333 0.02897 0.0
H303 H 0.93298 0.49025 1.00483 0.0
H304 H 0.91845 0.48074 0.0375 0.0
H305 H 0.06632 0.44052 1.00699 0.0
H306 H 0.04817 0.4584 0.98128 0.0
H307 H 0.07943 0.49299 1.00539 0.0
H308 H 0.01292 0.55071 0.93853 0.0
H309 H 0.09277 0.61266 1.0009 0.0
H310 H 0.94558 0.46548 0.96735 0.0
H311 H 0.98222 0.45064 0.96208 0.0
H312 H 0.97288 0.47895 0.93821 0.0
H313 H 0.03686 0.54132 0.04742 0.0
H314 H 0.08494 0.58463 0.04081 0.0
H315 H 0.07707 0.53404 0.03766 0.0
C316 C 0.42823 0.48786 0.96369 0.0
C317 C 0.41062 0.44831 0.95373 0.0
C318 C 0.46414 0.50475 0.97804 0.0
C319 C 0.48255 0.4812 0.98336 0.0
C320 C 0.46461 0.44105 0.97353 0.0
C321 C 0.42932 0.42536 0.95862 0.0
C322 C 0.48236 0.54788 0.9876 0.0
C323 C 0.48223 0.41428 0.97924 0.0
C324 C 0.59394 0.5363 1.00142 0.0
C325 C 0.59332 0.53555 0.02804 0.0
C326 C 0.55836 0.51872 0.98679 0.0
C327 C 0.52076 0.49882 0.99886 0.0
C328 C 0.51991 0.4968 0.02573 0.0
C329 C 0.55605 0.51566 0.03996 0.0
C330 C 0.56104 0.52253 0.95833 0.0
C331 C 0.48072 0.4751 0.03948 0.0
H332 H 0.41385 0.50569 0.96024 0.0
H333 H 0.41554 0.39446 0.95154 0.0
H334 H 0.48354 0.54845 0.0086 0.0
H335 H 0.51355 0.56605 0.98092 0.0
H336 H 0.46524 0.56267 0.98119 0.0
H337 H 0.46469 0.38373 0.97038 0.0
H338 H 0.51337 0.42864 0.97235 0.0
H339 H 0.48338 0.41065 1.00002 0.0
H340 H 0.62243 0.55203 0.99193 0.0
H341 H 0.55512 0.51493 0.06047 0.0
H342 H 0.54629 0.53956 0.95168 0.0
H343 H 0.54502 0.49205 0.9493 0.0
H344 H 0.59244 0.53841 0.95175 0.0
H345 H 0.46334 0.49072 0.03609 0.0
H346 H 0.48501 0.47388 0.06023 0.0
H347 H 0.46251 0.44365 0.03207 0.0
C348 C 0.16232 0.38694 0.37427 0.0
C349 C 0.14468 0.40826 0.36374 0.0
C350 C 0.17987 0.3697 0.35885 0.0
C351 C 0.17928 0.373 0.33207 0.0
C352 C 0.16206 0.39505 0.32139 0.0
C353 C 0.14537 0.41257 0.33727 0.0
C354 C 0.19858 0.34738 0.37123 0.0
C355 C 0.16014 0.3991 0.29306 0.0
C356 C 0.24936 0.35151 0.29167 0.0
C357 C 0.22469 0.31054 0.28488 0.0
C358 C 0.23511 0.37223 0.30685 0.0
C359 C 0.19493 0.35188 0.31523 0.0
C360 C 0.16963 0.31087 0.30771 0.0
C361 C 0.18489 0.29069 0.293 0.0
C362 C 0.26363 0.41548 0.31475 0.0
C363 C 0.12644 0.28795 0.31559 0.0
H364 H 0.16201 0.38329 0.39463 0.0
H365 H 0.13159 0.42859 0.32877 0.0
H366 H 0.18201 0.31495 0.36551 0.0
H367 H 0.22972 0.36005 0.36472 0.0
H368 H 0.19883 0.34941 0.39223 0.0
H369 H 0.14689 0.41813 0.28765 0.0
H370 H 0.19054 0.41266 0.28502 0.0
H371 H 0.14193 0.36861 0.28428 0.0
H372 H 0.28042 0.36693 0.28611 0.0
H373 H 0.16566 0.25898 0.28809 0.0
H374 H 0.27042 0.4165 0.33529 0.0
H375 H 0.24994 0.43478 0.31168 0.0
H376 H 0.29213 0.42861 0.30424 0.0
H377 H 0.12473 0.2852 0.3365 0.0
H378 H 0.11007 0.25703 0.3071 0.0
H379 H 0.11107 0.30482 0.30987 0.0
C380 C 0.60473 0.76499 0.37313 0.0
C381 C 0.62385 0.74339 0.38034 0.0
C382 C 0.62406 0.79976 0.35785 0.0
C383 C 0.66253 0.81181 0.34813 0.0
C384 C 0.68158 0.78944 0.35499 0.0
C385 C 0.66254 0.75634 0.37159 0.0
C386 C 0.60346 0.82387 0.35237 0.0
C387 C 0.72155 0.79962 0.34417 0.0
C388 C 0.69524 0.88448 0.29152 0.0
C389 C 0.72285 0.92151 0.30299 0.0
C390 C 0.67653 0.84818 0.30567 0.0
C391 C 0.68381 0.84924 0.33219 0.0
C392 C 0.71136 0.88659 0.34376 0.0
C393 C 0.73145 0.92157 0.32894 0.0
C394 C 0.64917 0.80867 0.29223 0.0
C395 C 0.71898 0.89001 0.37204 0.0
H396 H 0.5747 0.75486 0.37969 0.0
H397 H 0.67716 0.73927 0.3767 0.0
H398 H 0.6233 0.8561 0.35791 0.0
H399 H 0.59722 0.82313 0.33179 0.0
H400 H 0.57484 0.81204 0.36263 0.0
H401 H 0.73195 0.77875 0.35091 0.0
H402 H 0.71934 0.79792 0.32318 0.0
H403 H 0.74448 0.83108 0.34935 0.0
H404 H 0.68866 0.88377 0.27147 0.0
H405 H 0.75321 0.94933 0.33815 0.0
H406 H 0.61801 0.79683 0.29854 0.0
H407 H 0.65778 0.78565 0.2971 0.0
H408 H 0.64989 0.81213 0.27132 0.0
H409 H 0.69027 0.8778 0.38221 0.0
H410 H 0.73895 0.92183 0.37838 0.0
H411 H 0.73285 0.87173 0.37773 0.0
C412 C 0.09193 0.7533 0.2955 0.0
C413 C 0.07443 0.77719 0.29003 0.0
C414 C 0.12749 0.76871 0.31013 0.0
C415 C 0.14692 0.80947 0.31903 0.0
C416 C 0.12971 0.83392 0.31309 0.0
C417 C 0.0935 0.81734 0.29909 0.0
C418 C 0.14375 0.74101 0.3166 0.0
C419 C 0.14949 0.87768 0.32163 0.0
C420 C 0.22177 0.8459 0.37494 0.0
C421 C 0.25874 0.86441 0.36262 0.0
C422 C 0.18526 0.82671 0.36109 0.0
C423 C 0.18545 0.82686 0.33418 0.0
C424 C 0.22272 0.84513 0.32172 0.0
C425 C 0.25866 0.86317 0.336 0.0
C426 C 0.14642 0.80682 0.37528 0.0
C427 C 0.22471 0.84682 0.29318 0.0
H428 H 0.07694 0.72195 0.28917 0.0
H429 H 0.08002 0.83589 0.2952 0.0
H430 H 0.17481 0.75409 0.30976 0.0
H431 H 0.14475 0.73816 0.33747 0.0
H432 H 0.12535 0.7102 0.30823 0.0
H433 H 0.13315 0.89307 0.31481 0.0
H434 H 0.15121 0.87947 0.34261 0.0
H435 H 0.18058 0.89449 0.3146 0.0
H436 H 0.22135 0.84668 0.39544 0.0
H437 H 0.2869 0.87771 0.32618 0.0
H438 H 0.12723 0.77512 0.36854 0.0
H439 H 0.12984 0.82319 0.37156 0.0
H440 H 0.15116 0.80657 0.39605 0.0
H441 H 0.20759 0.81579 0.285 0.0
H442 H 0.2559 0.86123 0.28628 0.0
H443 H 0.21073 0.86428 0.28594 0.0
C444 C 0.91969 0.6809 0.63095 0.0
C445 C 0.89499 0.64041 0.62314 0.0
C446 C 0.90503 0.70097 0.64639 0.0
C447 C 0.8644 0.68052 0.65388 0.0
C448 C 0.8392 0.63995 0.64549 0.0
C449 C 0.85486 0.62037 0.63059 0.0
C450 C 0.93334 0.74378 0.65522 0.0
C451 C 0.79564 0.61691 0.65257 0.0
C452 C 0.82829 0.71383 0.71205 0.0
C453 C 0.81082 0.73499 0.70103 0.0
C454 C 0.84703 0.69727 0.69711 0.0
C455 C 0.84797 0.70128 0.67034 0.0
C456 C 0.83117 0.72341 0.65921 0.0
C457 C 0.81314 0.74007 0.6746 0.0
C458 C 0.86505 0.67462 0.70995 0.0
C459 C 0.83097 0.7283 0.63086 0.0
H460 H 0.95096 0.69642 0.62587 0.0
H461 H 0.83563 0.58901 0.62491 0.0
H462 H 0.92219 0.7642 0.64892 0.0
H463 H 0.93476 0.74502 0.67622 0.0
H464 H 0.96403 0.75548 0.64795 0.0
H465 H 0.77964 0.5861 0.64391 0.0
H466 H 0.79292 0.61391 0.67345 0.0
H467 H 0.78054 0.63386 0.64642 0.0
H468 H 0.82672 0.70956 0.73238 0.0
H469 H 0.79962 0.75605 0.66572 0.0
H470 H 0.89653 0.68713 0.70409 0.0
H471 H 0.84855 0.64227 0.70402 0.0
H472 H 0.86426 0.67628 0.73093 0.0
H473 H 0.86177 0.74166 0.62351 0.0
H474 H 0.81844 0.74785 0.62515 0.0
H475 H 0.81289 0.69811 0.62169 0.0
C476 C 0.327 0.23852 0.63983 0.0
C477 C 0.36367 0.24872 0.62872 0.0
C478 C 0.3075 0.2046 0.65582 0.0
C479 C 0.32397 0.17893 0.65981 0.0
C480 C 0.36003 0.18811 0.64753 0.0
C481 C 0.37993 0.22341 0.63277 0.0
C482 C 0.27021 0.19728 0.66932 0.0
C483 C 0.37787 0.16081 0.65015 0.0
C484 C 0.29746 0.10732 0.71657 0.0
C485 C 0.26753 0.07039 0.70624 0.0
C486 C 0.31485 0.14326 0.7021 0.0
C487 C 0.30326 0.14206 0.67633 0.0
C488 C 0.27274 0.10496 0.66599 0.0
C489 C 0.25468 0.07013 0.68117 0.0
C490 C 0.34603 0.18244 0.71429 0.0
C491 C 0.26016 0.10157 0.63849 0.0
H492 H 0.31474 0.25848 0.63726 0.0
H493 H 0.40849 0.23143 0.62447 0.0
H494 H 0.24512 0.16648 0.66487 0.0
H495 H 0.27548 0.19888 0.6901 0.0
H496 H 0.26106 0.21982 0.66415 0.0
H497 H 0.40421 0.17035 0.63785 0.0
H498 H 0.38727 0.16096 0.67008 0.0
H499 H 0.35516 0.12908 0.6452 0.0
H500 H 0.30747 0.10813 0.73593 0.0
H501 H 0.2312 0.0422 0.67293 0.0
H502 H 0.3387 0.20678 0.71077 0.0
H503 H 0.37557 0.19218 0.70577 0.0
H504 H 0.34857 0.17943 0.73505 0.0
H505 H 0.24918 0.12293 0.6344 0.0
H506 H 0.2363 0.07044 0.63321 0.0
H507 H 0.28631 0.11005 0.62623 0.0
C508 C 0.75998 0.07931 0.62698 0.0
C509 C 0.7423 0.1032 0.62212 0.0
C510 C 0.79614 0.09478 0.641 0.0
C511 C 0.81585 0.13553 0.64993 0.0
C512 C 0.79857 0.16005 0.64443 0.0
C513 C 0.76189 0.14346 0.631 0.0
C514 C 0.81258 0.06707 0.64695 0.0
C515 C 0.81861 0.20379 0.65304 0.0
C516 C 0.88989 0.17132 0.70614 0.0
C517 C 0.92706 0.19057 0.69408 0.0
C518 C 0.85363 0.15199 0.69208 0.0
C519 C 0.85424 0.15263 0.6652 0.0
C520 C 0.89173 0.17145 0.65296 0.0
C521 C 0.92748 0.18975 0.66747 0.0
C522 C 0.81457 0.13163 0.70605 0.0
C523 C 0.89412 0.17358 0.62444 0.0
H524 H 0.74466 0.0479 0.62075 0.0
H525 H 0.7483 0.16204 0.62755 0.0
H526 H 0.84385 0.08068 0.6404 0.0
H527 H 0.81306 0.06325 0.66776 0.0
H528 H 0.79457 0.03664 0.63801 0.0
H529 H 0.80248 0.2194 0.64623 0.0
H530 H 0.8202 0.20546 0.67403 0.0
H531 H 0.84974 0.22048 0.64608 0.0
H532 H 0.88908 0.17174 0.72664 0.0
H533 H 0.95589 0.20486 0.65786 0.0
H534 H 0.79559 0.10005 0.69904 0.0
H535 H 0.79793 0.14795 0.70242 0.0
H536 H 0.81903 0.13096 0.72682 0.0
H537 H 0.87679 0.14273 0.61604 0.0
H538 H 0.92539 0.18777 0.61772 0.0
H539 H 0.88059 0.1915 0.61727 0.0
C540 C 0.41668 0.18926 0.12393 0.0
C541 C 0.4067 0.14859 0.12685 0.0
C542 C 0.40161 0.20768 0.14046 0.0
C543 C 0.37667 0.18531 0.16085 0.0
C544 C 0.36782 0.1447 0.16436 0.0
C545 C 0.3824 0.1268 0.1472 0.0
C546 C 0.41106 0.25057 0.13544 0.0
C547 C 0.34209 0.11971 0.18597 0.0
C548 C 0.3649 0.23978 0.21846 0.0
C549 C 0.32614 0.23385 0.21505 0.0
C550 C 0.38186 0.22497 0.20083 0.0
C551 C 0.36003 0.20411 0.17875 0.0
C552 C 0.32141 0.19927 0.17467 0.0
C553 C 0.30478 0.21374 0.19295 0.0
C554 C 0.42276 0.2305 0.20631 0.0
C555 C 0.29734 0.17814 0.15117 0.0
H556 H 0.43443 0.20603 0.10786 0.0
H557 H 0.37406 0.09523 0.14941 0.0
H558 H 0.38313 0.25066 0.13036 0.0
H559 H 0.42362 0.26955 0.15275 0.0
H560 H 0.43258 0.26468 0.11977 0.0
H561 H 0.33935 0.08924 0.18678 0.0
H562 H 0.35482 0.13566 0.20425 0.0
H563 H 0.31172 0.11578 0.18394 0.0
H564 H 0.38175 0.25497 0.23547 0.0
H565 H 0.27491 0.20898 0.19001 0.0
H566 H 0.4429 0.24569 0.19019 0.0
H567 H 0.42048 0.20041 0.20854 0.0
H568 H 0.4366 0.24869 0.22379 0.0
H569 H 0.31512 0.19261 0.13404 0.0
H570 H 0.26897 0.17889 0.14994 0.0
H571 H 0.29017 0.14604 0.15099 0.0
C572 C 0.8753 0.2435 0.14394 0.0
C573 C 0.88912 0.23558 0.12136 0.0
C574 C 0.85839 0.21386 0.16308 0.0
C575 C 0.85362 0.17466 0.1592 0.0
C576 C 0.86697 0.16644 0.1362 0.0
C577 C 0.88508 0.19705 0.11787 0.0
C578 C 0.84567 0.22452 0.18749 0.0
C579 C 0.86121 0.1249 0.13061 0.0
C580 C 0.84007 0.10576 0.21573 0.0
C581 C 0.79832 0.08184 0.21714 0.0
C582 C 0.85835 0.1362 0.19725 0.0
C583 C 0.8345 0.14219 0.17904 0.0
C584 C 0.79232 0.11699 0.17982 0.0
C585 C 0.77479 0.08784 0.19912 0.0
C586 C 0.90323 0.16288 0.19773 0.0
C587 C 0.76562 0.12098 0.16035 0.0
H588 H 0.87808 0.27305 0.14676 0.0
H589 H 0.89487 0.19027 0.10027 0.0
H590 H 0.8129 0.20523 0.18969 0.0
H591 H 0.86014 0.2184 0.20384 0.0
H592 H 0.85344 0.25683 0.18825 0.0
H593 H 0.87258 0.1231 0.11169 0.0
H594 H 0.8768 0.11673 0.14519 0.0
H595 H 0.82896 0.1019 0.13138 0.0
H596 H 0.85849 0.10198 0.22988 0.0
H597 H 0.74253 0.06969 0.20015 0.0
H598 H 0.91123 0.19508 0.20007 0.0
H599 H 0.91581 0.16029 0.1795 0.0
H600 H 0.91757 0.15493 0.21333 0.0
H601 H 0.76807 0.1512 0.16213 0.0
H602 H 0.73375 0.09734 0.16244 0.0
H603 H 0.77528 0.11873 0.14098 0.0
C604 C 0.90481 0.70289 0.19401 0.0
C605 C 0.90282 0.67785 0.2141 0.0
C606 C 0.87509 0.68862 0.1747 0.0
C607 C 0.84194 0.64858 0.1757 0.0
C608 C 0.84023 0.62304 0.19572 0.0
C609 C 0.87068 0.63778 0.21443 0.0
C610 C 0.87872 0.71675 0.1535 0.0
C611 C 0.80536 0.58047 0.19795 0.0
C612 C 0.74465 0.62884 0.14306 0.0
C613 C 0.74363 0.60762 0.12104 0.0
C614 C 0.77588 0.6415 0.16112 0.0
C615 C 0.80793 0.63412 0.15676 0.0
C616 C 0.80711 0.61275 0.13444 0.0
C617 C 0.77475 0.59927 0.11707 0.0
C618 C 0.77477 0.66329 0.18477 0.0
C619 C 0.84106 0.60525 0.1285 0.0
H620 H 0.92938 0.73385 0.1935 0.0
H621 H 0.86848 0.61813 0.22991 0.0
H622 H 0.87544 0.70172 0.13488 0.0
H623 H 0.85435 0.72411 0.15477 0.0
H624 H 0.90781 0.74553 0.15411 0.0
H625 H 0.80907 0.56384 0.21406 0.0
H626 H 0.77743 0.58156 0.20066 0.0
H627 H 0.8016 0.5631 0.18025 0.0
H628 H 0.72098 0.63583 0.1461 0.0
H629 H 0.7748 0.58389 0.09977 0.0
H630 H 0.80076 0.69453 0.18527 0.0
H631 H 0.77703 0.6475 0.20183 0.0
H632 H 0.74698 0.6651 0.18593 0.0
H633 H 0.86932 0.63464 0.12709 0.0
H634 H 0.83602 0.58818 0.11045 0.0
H635 H 0.84512 0.58801 0.14404 0.0
C636 C 0.63181 0.87397 0.8591 0.0
C637 C 0.65498 0.89968 0.87909 0.0
C638 C 0.64851 0.8591 0.84114 0.0
C639 C 0.68932 0.86964 0.84326 0.0
C640 C 0.713 0.89641 0.86302 0.0
C641 C 0.69572 0.91114 0.88048 0.0
C642 C 0.62218 0.83128 0.8202 0.0
C643 C 0.75642 0.90841 0.86632 0.0
C644 C 0.71914 0.79499 0.81606 0.0
C645 C 0.73863 0.81384 0.7936 0.0
C646 C 0.70377 0.81312 0.83245 0.0
C647 C 0.70666 0.85069 0.82601 0.0
C648 C 0.72645 0.87 0.80333 0.0
C649 C 0.74267 0.85169 0.78764 0.0
C650 C 0.68368 0.79155 0.8565 0.0
C651 C 0.72922 0.90928 0.79513 0.0
H652 H 0.60039 0.86481 0.85774 0.0
H653 H 0.7141 0.93085 0.8958 0.0
H654 H 0.63629 0.84284 0.80159 0.0
H655 H 0.61876 0.80074 0.82255 0.0
H656 H 0.59202 0.82825 0.81993 0.0
H657 H 0.77136 0.93091 0.88187 0.0
H658 H 0.75883 0.88113 0.87056 0.0
H659 H 0.77276 0.92143 0.84851 0.0
H660 H 0.71535 0.76551 0.82064 0.0
H661 H 0.75658 0.86597 0.76998 0.0
H662 H 0.65184 0.78356 0.85604 0.0
H663 H 0.69799 0.81188 0.8731 0.0
H664 H 0.68512 0.76337 0.85931 0.0
H665 H 0.69874 0.9046 0.79191 0.0
H666 H 0.74642 0.92108 0.77742 0.0
H667 H 0.74359 0.9326 0.81027 0.0
C668 C 0.14087 0.74908 0.86591 0.0
C669 C 0.12074 0.75374 0.8865 0.0
C670 C 0.15649 0.77838 0.84645 0.0
C671 C 0.15346 0.8141 0.84808 0.0
C672 C 0.1338 0.81911 0.86913 0.0
C673 C 0.11721 0.78876 0.88769 0.0
C674 C 0.17597 0.77097 0.82402 0.0
C675 C 0.13094 0.85704 0.87237 0.0
C676 C 0.22739 0.90786 0.81061 0.0
C677 C 0.20329 0.90879 0.79084 0.0
C678 C 0.21153 0.87775 0.82949 0.0
C679 C 0.17091 0.84644 0.82801 0.0
C680 C 0.14667 0.84694 0.80776 0.0
C681 C 0.16288 0.87844 0.7898 0.0
C682 C 0.23826 0.87958 0.85112 0.0
C683 C 0.10372 0.81368 0.80472 0.0
H684 H 0.14384 0.72224 0.86482 0.0
H685 H 0.10238 0.79312 0.90372 0.0
H686 H 0.16142 0.77271 0.8062 0.0
H687 H 0.20787 0.79485 0.82323 0.0
H688 H 0.17418 0.74092 0.82482 0.0
H689 H 0.11595 0.85703 0.89022 0.0
H690 H 0.1613 0.88414 0.8724 0.0
H691 H 0.11405 0.86013 0.85623 0.0
H692 H 0.25872 0.93093 0.8114 0.0
H693 H 0.14428 0.8783 0.77423 0.0
H694 H 0.24133 0.8521 0.8509 0.0
H695 H 0.22469 0.88007 0.86946 0.0
H696 H 0.26855 0.90674 0.85021 0.0
H697 H 0.10197 0.78365 0.80448 0.0
H698 H 0.08966 0.81678 0.78703 0.0
H699 H 0.08609 0.81407 0.82106 0.0
C700 C 0.2106 0.30266 0.87709 0.0
C701 C 0.24066 0.34369 0.8768 0.0
C702 C 0.17962 0.28632 0.85876 0.0
C703 C 0.17864 0.31127 0.83922 0.0
C704 C 0.20984 0.35231 0.83815 0.0
C705 C 0.24019 0.36811 0.85705 0.0
C706 C 0.14696 0.24264 0.86096 0.0
C707 C 0.21058 0.37987 0.8174 0.0
C708 C 0.1098 0.25938 0.78173 0.0
C709 C 0.07716 0.26489 0.78683 0.0
C710 C 0.14326 0.27482 0.79829 0.0
C711 C 0.14363 0.29505 0.82102 0.0
C712 C 0.11007 0.29941 0.82659 0.0
C713 C 0.07773 0.28499 0.80927 0.0
C714 C 0.17883 0.27076 0.79099 0.0
C715 C 0.10854 0.31993 0.85074 0.0
H716 H 0.21035 0.28341 0.89227 0.0
H717 H 0.26315 0.39979 0.85659 0.0
H718 H 0.11803 0.24129 0.86451 0.0
H719 H 0.14364 0.22612 0.84294 0.0
H720 H 0.15288 0.22667 0.87653 0.0
H721 H 0.23861 0.40969 0.81775 0.0
H722 H 0.20737 0.36538 0.79861 0.0
H723 H 0.18493 0.38512 0.81949 0.0
H724 H 0.11015 0.24495 0.76408 0.0
H725 H 0.05289 0.28985 0.81315 0.0
H726 H 0.18588 0.25505 0.80614 0.0
H727 H 0.20544 0.30132 0.7889 0.0
H728 H 0.17375 0.25377 0.77291 0.0
H729 H 0.11299 0.30477 0.86738 0.0
H730 H 0.0797 0.31947 0.8528 0.0
H731 H 0.1331 0.35194 0.85109 0.0
C732 C 0.08469 0.52532 0.45613 0.0
C733 C 0.07846 0.48616 0.46041 0.0
C734 C 0.06921 0.54327 0.47271 0.0
C735 C 0.04771 0.52203 0.49449 0.0
C736 C 0.04266 0.48306 0.49927 0.0
C737 C 0.05755 0.46552 0.48209 0.0
C738 C 0.07444 0.58426 0.46631 0.0
C739 C 0.02062 0.45935 0.52232 0.0
C740 C 0.03638 0.57747 0.55168 0.0
C741 C 0.99616 0.56774 0.54981 0.0
C742 C 0.05374 0.56395 0.53349 0.0
C743 C 0.03066 0.54024 0.51251 0.0
C744 C 0.99049 0.53166 0.50992 0.0
C745 C 0.97368 0.54524 0.52861 0.0
C746 C 0.0965 0.57384 0.53727 0.0
C747 C 0.96492 0.50724 0.48766 0.0
H748 H 0.0997 0.54104 0.43904 0.0
H749 H 0.05207 0.43504 0.48535 0.0
H750 H 0.04489 0.58102 0.46161 0.0
H751 H 0.08682 0.60512 0.48284 0.0
H752 H 0.09444 0.59826 0.44992 0.0
H753 H 0.02047 0.43015 0.52387 0.0
H754 H 0.03458 0.47754 0.53975 0.0
H755 H 0.98923 0.45286 0.52151 0.0
H756 H 0.05422 0.59474 0.56791 0.0
H757 H 0.94268 0.53753 0.52685 0.0
H758 H 0.11405 0.58836 0.52007 0.0
H759 H 0.09739 0.54543 0.54029 0.0
H760 H 0.11118 0.59437 0.55375 0.0
H761 H 0.98011 0.52132 0.46971 0.0
H762 H 0.93506 0.50491 0.48754 0.0
H763 H 0.96075 0.47621 0.4881 0.0
C764 C 0.50155 0.55236 0.46127 0.0
C765 C 0.54328 0.57626 0.45982 0.0
C766 C 0.48334 0.52137 0.47938 0.0
C767 C 0.50728 0.51497 0.49728 0.0
C768 C 0.5495 0.53972 0.49621 0.0
C769 C 0.56696 0.56933 0.47716 0.0
C770 C 0.43843 0.49486 0.47897 0.0
C771 C 0.57629 0.53508 0.5153 0.0
C772 C 0.45731 0.46266 0.5591 0.0
C773 C 0.45224 0.42366 0.55602 0.0
C774 C 0.47561 0.49258 0.54041 0.0
C775 C 0.48813 0.48319 0.51747 0.0
C776 C 0.48228 0.44351 0.51399 0.0
C777 C 0.46519 0.41453 0.53348 0.0
C778 C 0.48222 0.5346 0.54547 0.0
C779 C 0.49384 0.43157 0.48959 0.0
H780 H 0.48308 0.55682 0.4475 0.0
H781 H 0.59921 0.58742 0.47598 0.0
H782 H 0.43019 0.46252 0.47724 0.0
H783 H 0.42596 0.49836 0.49701 0.0
H784 H 0.42419 0.50229 0.46306 0.0
H785 H 0.60834 0.55771 0.51261 0.0
H786 H 0.56777 0.53852 0.53478 0.0
H787 H 0.5725 0.50427 0.5138 0.0
H788 H 0.44801 0.47028 0.5766 0.0
H789 H 0.46142 0.38453 0.53093 0.0
H790 H 0.46571 0.54215 0.5312 0.0
H791 H 0.51441 0.55731 0.54369 0.0
H792 H 0.47228 0.53757 0.56463 0.0
H793 H 0.4791 0.43745 0.47329 0.0
H794 H 0.48547 0.39907 0.48923 0.0
H795 H 0.52656 0.45027 0.4869 0.0
C796 C 0.53467 0.96706 0.54957 0.0
C797 C 0.56809 0.00634 0.54884 0.0
C798 C 0.50449 0.95284 0.53069 0.0
C799 C 0.50782 0.97804 0.51004 0.0
C800 C 0.54217 0.01727 0.50871 0.0
C801 C 0.57156 0.03109 0.52821 0.0
C802 C 0.46825 0.91124 0.53335 0.0
C803 C 0.54754 0.04497 0.48686 0.0
C804 C 0.44101 0.92845 0.45125 0.0
C805 C 0.41106 0.93878 0.45429 0.0
C806 C 0.47283 0.94129 0.46901 0.0
C807 C 0.47434 0.96417 0.49073 0.0
C808 C 0.44347 0.97364 0.49414 0.0
C809 C 0.41274 0.96143 0.47576 0.0
C810 C 0.50547 0.93137 0.46413 0.0
C811 C 0.44307 0.99709 0.51714 0.0
H812 H 0.53132 0.94768 0.56547 0.0
H813 H 0.59715 0.06144 0.52739 0.0
H814 H 0.44112 0.91402 0.53532 0.0
H815 H 0.46402 0.89275 0.5161 0.0
H816 H 0.47063 0.89479 0.55004 0.0
H817 H 0.57728 0.073 0.48737 0.0
H818 H 0.54404 0.02895 0.4686 0.0
H819 H 0.52411 0.05373 0.48735 0.0
H820 H 0.44054 0.91184 0.43442 0.0
H821 H 0.38995 0.96987 0.47814 0.0
H822 H 0.50805 0.91409 0.48023 0.0
H823 H 0.5346 0.95984 0.46263 0.0
H824 H 0.50005 0.91335 0.44645 0.0
H825 H 0.44407 0.98155 0.53466 0.0
H826 H 0.41613 1.00053 0.51759 0.0
H827 H 0.46999 0.02772 0.51737 0.0
C828 C 0.32418 0.98316 0.01612 0.0
C829 C 0.30457 0.99367 0.03433 0.0
C830 C 0.30293 0.94787 1.00126 0.0
C831 C 0.26134 0.92274 1.00484 0.0
C832 C 0.24104 0.93505 0.0217 0.0
C833 C 0.2629 0.97031 0.03623 0.0
C834 C 0.32545 0.93613 0.98309 0.0
C835 C 0.19662 0.9093 0.02594 0.0
C836 C 0.18972 0.82917 0.96689 0.0
C837 C 0.18686 0.79847 0.98293 0.0
C838 C 0.21643 0.87021 0.97256 0.0
C839 C 0.24011 0.88052 0.99495 0.0
C840 C 0.23914 0.84958 0.01025 0.0
C841 C 0.21279 0.80904 1.00396 0.0
C842 C 0.21754 0.90238 0.95538 0.0
C843 C 0.26379 0.85918 0.03437 0.0
H844 H 0.35633 1.00137 0.01428 0.0
H845 H 0.24737 0.97877 0.04979 0.0
H846 H 0.32995 0.91207 0.99165 0.0
H847 H 0.3082 0.92373 0.96519 0.0
H848 H 0.35527 0.96228 0.97863 0.0
H849 H 0.18477 0.92523 0.03759 0.0
H850 H 0.18013 0.90046 1.00759 0.0
H851 H 0.19036 0.88101 0.03578 0.0
H852 H 0.17033 0.82129 0.95034 0.0
H853 H 0.21135 0.78566 0.01633 0.0
H854 H 0.24851 0.92804 0.95349 0.0
H855 H 0.19929 0.91456 0.96362 0.0
H856 H 0.20527 0.89 0.93622 0.0
H857 H 0.29562 0.88118 0.03064 0.0
H858 H 0.26193 0.83169 0.04301 0.0
H859 H 0.25311 0.87334 0.04837 0.0
C860 C 0.02272 0.31127 0.01068 0.0
C861 C 1.00188 0.32952 1.00044 0.0
C862 C 0.06144 0.32247 1.00272 0.0
C863 C 0.08 0.35284 0.98414 0.0
C864 C 0.05853 0.3701 0.9729 0.0
C865 C 0.01969 0.35813 0.98111 0.0
C866 C 0.08319 0.30307 0.01505 0.0
C867 C 0.07724 0.4026 0.95306 0.0
C868 C 0.19353 0.41254 0.98753 0.0
C869 C 0.20399 0.39354 0.96868 0.0
C870 C 0.15335 0.40022 0.9923 0.0
C871 C 0.12272 0.36823 0.9778 0.0
C872 C 0.13302 0.3498 0.95819 0.0
C873 C 0.17347 0.36262 0.95389 0.0
C874 C 0.14368 0.42108 0.01316 0.0
C875 C 0.10131 0.31574 0.94223 0.0
H876 H 0.00926 0.289 0.02553 0.0
H877 H 1.00403 0.37262 0.97311 0.0
H878 H 0.09509 0.29109 1.0004 0.0
H879 H 0.10906 0.32619 0.02627 0.0
H880 H 0.06363 0.2779 0.02782 0.0
H881 H 0.05534 0.41004 0.94441 0.0
H882 H 0.10188 0.4306 0.9618 0.0
H883 H 0.09039 0.39294 0.93785 0.0
H884 H 0.21674 0.43659 0.99898 0.0
H885 H 0.18106 0.3478 0.93916 0.0
H886 H 0.12333 0.39851 0.027 0.0
H887 H 0.12799 0.43624 1.005 0.0
H888 H 0.17085 0.44419 0.02343 0.0
H889 H 0.08355 0.28891 0.95428 0.0
H890 H 0.11426 0.30668 0.92653 0.0
H891 H 0.08036 0.32482 0.93407 0.0
C892 C 0.64479 0.68242 0.0159 0.0
C893 C 0.67211 0.70362 0.03565 0.0
C894 C 0.62775 0.70098 1.00133 0.0
C895 C 0.63836 0.74165 1.00663 0.0
C896 C 0.66638 0.76336 0.02623 0.0
C897 C 0.68284 0.7441 0.04047 0.0
C898 C 0.59794 0.67688 0.98061 0.0
C899 C 0.67856 0.80684 0.03248 0.0
C900 C 0.62532 0.81196 0.96189 0.0
C901 C 0.59329 0.81367 0.97303 0.0
C902 C 0.63853 0.78615 0.97141 0.0
C903 C 0.61936 0.76163 0.9926 0.0
C904 C 0.58508 0.7608 1.00259 0.0
C905 C 0.5724 0.78673 0.99265 0.0
C906 C 0.67482 0.78743 0.95995 0.0
C907 C 0.56362 0.7349 0.02509 0.0
H908 H 0.63622 0.6511 0.01201 0.0
H909 H 0.70405 0.76088 0.05555 0.0
H910 H 0.56835 0.67329 0.98515 0.0
H911 H 0.60737 0.69334 0.96241 0.0
H912 H 0.59443 0.64626 0.97802 0.0
H913 H 0.70142 0.81972 0.0479 0.0
H914 H 0.69077 0.82597 0.01544 0.0
H915 H 0.65203 0.80875 0.03839 0.0
H916 H 0.64139 0.83219 0.94649 0.0
H917 H 0.54731 0.78734 1.00124 0.0
H918 H 0.67019 0.75637 0.95764 0.0
H919 H 0.70094 0.8044 0.97284 0.0
H920 H 0.6821 0.80258 0.94123 0.0
H921 H 0.55816 0.70359 0.02246 0.0
H922 H 0.53457 0.73348 0.02839 0.0
H923 H 0.58261 0.74769 0.04233 0.0
C924 C 0.69668 0.01762 0.99634 0.0
C925 C 0.65616 0.00242 1.00162 0.0
C926 C 0.72591 0.05578 1.00528 0.0
C927 C 0.71438 0.07932 0.01996 0.0
C928 C 0.67392 0.06303 0.0269 0.0
C929 C 0.64518 0.02466 0.01761 0.0
C930 C 0.76877 0.07201 0.99748 0.0
C931 C 0.66066 0.08706 0.04285 0.0
C932 C 0.80115 0.17345 0.04942 0.0
C933 C 0.80753 0.20276 0.03111 0.0
C934 C 0.7695 0.13345 0.04684 0.0
C935 C 0.74403 0.12247 0.02529 0.0
C936 C 0.74944 0.15223 1.00726 0.0
C937 C 0.78098 0.19206 0.01046 0.0
C938 C 0.76429 0.10271 0.06667 0.0
C939 C 0.72292 0.14164 0.98397 0.0
H940 H 0.70547 1.00039 0.98425 0.0
H941 H 0.61393 0.01308 0.02177 0.0
H942 H 0.77759 0.09766 0.98426 0.0
H943 H 0.78907 0.08379 0.01422 0.0
H944 H 0.77331 0.04857 0.98795 0.0
H945 H 0.62945 0.06818 0.0494 0.0
H946 H 0.68068 0.10041 0.05961 0.0
H947 H 0.6625 0.11253 0.0316 0.0
H948 H 0.8212 0.1816 0.06565 0.0
H949 H 0.78555 0.21449 0.99629 0.0
H950 H 0.77257 0.08095 0.05866 0.0
H951 H 0.73257 0.08502 0.07241 0.0
H952 H 0.78316 0.11715 0.0838 0.0
H953 H 0.72649 0.11966 0.972 0.0
H954 H 0.72989 0.16868 0.9724 0.0
H955 H 0.69114 0.12692 0.98955 0.0
C956 C 0.85764 0.69044 0.05749 0.0
C957 C 0.81954 0.6598 0.04957 0.0
C958 C 0.89238 0.69197 0.04834 0.0
C959 C 0.88906 0.66195 0.03102 0.0
C960 C 0.85077 0.63089 0.02298 0.0
C961 C 0.81648 0.63029 0.03225 0.0
C962 C 0.93268 0.72575 0.05725 0.0
C963 C 0.84602 0.59809 1.00474 0.0
C964 C 0.97866 0.68682 0.99005 0.0
C965 C 0.99683 0.66819 1.00331 0.0
C966 C 0.94349 0.6848 0.99877 0.0
C967 C 0.92574 0.66331 0.0212 0.0
C968 C 0.9435 0.64389 0.03449 0.0
C969 C 0.97891 0.6467 0.02546 0.0
C970 C 0.92562 0.70617 0.98417 0.0
C971 C 0.9252 0.62033 0.05835 0.0
H972 H 0.86043 0.71335 0.0709 0.0
H973 H 0.78725 0.60625 0.0262 0.0
H974 H 0.94952 0.71288 0.06684 0.0
H975 H 0.9505 0.74319 0.04076 0.0
H976 H 0.93013 0.74698 0.07057 0.0
H977 H 0.81416 0.57589 1.00049 0.0
H978 H 0.86119 0.61182 0.98671 0.0
H979 H 0.8605 0.58158 0.01274 0.0
H980 H 0.99224 0.70358 0.97296 0.0
H981 H 0.9925 0.63192 0.03575 0.0
H982 H 0.92479 0.72949 0.99641 0.0
H983 H 0.89435 0.68423 0.97849 0.0
H984 H 0.94277 0.72113 0.96689 0.0
H985 H 0.92447 0.64078 0.07309 0.0
H986 H 0.94199 0.60592 0.06602 0.0
H987 H 0.89385 0.59635 0.05454 0.0
C988 C 0.31101 0.29743 0.99553 0.0
C989 C 0.33306 0.3384 1.00279 0.0
C990 C 0.31679 0.26804 1.00763 0.0
C991 C 0.34542 0.27983 0.02748 0.0
C992 C 0.36754 0.32102 0.03516 0.0
C993 C 0.36106 0.34988 0.02273 0.0
C994 C 0.29259 0.22437 0.99891 0.0
C995 C 0.39843 0.33464 0.05621 0.0
C996 C 0.33189 0.19386 0.06985 0.0
C997 C 0.35799 0.18263 0.05888 0.0
C998 C 0.32875 0.22663 0.06052 0.0
C999 C 0.35231 0.24876 0.03976 0.0
C1000 C 0.37989 0.23871 0.02925 0.0
C1001 C 0.38235 0.2057 0.0389 0.0
C1002 C 0.29908 0.23653 0.07227 0.0
C1003 C 0.40577 0.26192 1.0072 0.0
H1004 H 0.28926 0.28823 0.98019 0.0
H1005 H 0.3785 0.38153 0.0283 0.0
H1006 H 0.31283 0.21367 0.99199 0.0
H1007 H 0.27576 0.20483 0.01501 0.0
H1008 H 0.27104 0.22016 0.98348 0.0
H1009 H 0.41234 0.36762 0.06035 0.0
H1010 H 0.3846 0.3176 0.07375 0.0
H1011 H 0.42232 0.32793 0.05096 0.0
H1012 H 0.31324 0.17657 0.08547 0.0
H1013 H 0.40299 0.19765 0.0305 0.0
H1014 H 0.27454 0.2296 0.0585 0.0
H1015 H 0.3136 0.26935 0.07692 0.0
H1016 H 0.28587 0.21898 0.08979 0.0
H1017 H 0.38672 0.25659 0.99014 0.0
H1018 H 0.42824 0.25273 1.00277 0.0
H1019 H 0.42163 0.29497 0.01128 0.0
C1020 C 0.98847 0.31873 0.35064 0.0
C1021 C 0.97749 0.31893 0.3759 0.0
C1022 C 0.9665 0.28457 0.33497 0.0
C1023 C 0.93313 0.24986 0.34493 0.0
C1024 C 0.92201 0.24991 0.37038 0.0
C1025 C 0.94421 0.28443 0.38549 0.0
C1026 C 0.979 0.28553 0.30786 0.0
C1027 C 0.88689 0.21324 0.38185 0.0
C1028 C 0.84785 0.16465 0.30849 0.0
C1029 C 0.8561 0.13323 0.31286 0.0
C1030 C 0.87469 0.20429 0.31685 0.0
C1031 C 0.91048 0.21235 0.32952 0.0
C1032 C 0.92073 0.18155 0.33142 0.0
C1033 C 0.89324 0.14225 0.3232 0.0
C1034 C 0.8629 0.23647 0.31432 0.0
C1035 C 0.95889 0.18901 0.3444 0.0
H1036 H 0.01402 0.34537 0.34302 0.0
H1037 H 0.9356 0.28417 0.405 0.0
H1038 H 0.98644 0.26125 0.30457 0.0
H1039 H 0.95388 0.27952 0.29483 0.0
H1040 H 0.0053 0.31513 0.30291 0.0
H1041 H 0.88173 0.2186 0.4018 0.0
H1042 H 0.8593 0.20467 0.37064 0.0
H1043 H 0.89205 0.18704 0.38136 0.0
H1044 H 0.81922 0.15775 0.30034 0.0
H1045 H 0.89998 0.11805 0.32609 0.0
H1046 H 0.88886 0.26589 0.30885 0.0
H1047 H 0.85237 0.24099 0.33288 0.0
H1048 H 0.83847 0.2278 0.30012 0.0
H1049 H 0.9846 0.21819 0.33833 0.0
H1050 H 0.96558 0.16431 0.34044 0.0
H1051 H 0.95598 0.19088 0.36518 0.0
C1052 C 0.86156 0.74805 0.32737 0.0
C1053 C 0.87023 0.72746 0.30859 0.0
C1054 C 0.82194 0.73693 0.33301 0.0
C1055 C 0.79011 0.70441 0.3196 0.0
C1056 C 0.79857 0.68424 0.30014 0.0
C1057 C 0.83847 0.696 0.29486 0.0
C1058 C 0.81412 0.75953 0.35369 0.0
C1059 C 0.76545 0.64956 0.28532 0.0
C1060 C 0.6906 0.65071 0.35339 0.0
C1061 C 0.66981 0.66823 0.34212 0.0
C1062 C 0.72936 0.66144 0.34575 0.0
C1063 C 0.74799 0.69072 0.32656 0.0
C1064 C 0.7269 0.70792 0.31474 0.0
C1065 C 0.68803 0.69633 0.32256 0.0
C1066 C 0.75078 0.64217 0.35866 0.0
C1067 C 0.74585 0.73957 0.29442 0.0
H1068 H 0.88574 0.77249 0.33804 0.0
H1069 H 0.84468 0.67992 0.28024 0.0
H1070 H 0.79612 0.77256 0.34603 0.0
H1071 H 0.79652 0.73829 0.36896 0.0
H1072 H 0.84217 0.78446 0.36211 0.0
H1073 H 0.77703 0.63833 0.26997 0.0
H1074 H 0.74738 0.62407 0.29825 0.0
H1075 H 0.74511 0.65915 0.2768 0.0
H1076 H 0.67679 0.62894 0.36846 0.0
H1077 H 0.67246 0.71042 0.31388 0.0
H1078 H 0.77759 0.66573 0.36896 0.0
H1079 H 0.76125 0.62824 0.34437 0.0
H1080 H 0.73147 0.61849 0.37235 0.0
H1081 H 0.77149 0.76736 0.30263 0.0
H1082 H 0.72449 0.74788 0.2859 0.0
H1083 H 0.75767 0.72851 0.27918 0.0
C1084 C 0.23842 0.11827 0.32692 0.0
C1085 C 0.25979 0.14523 0.30741 0.0
C1086 C 0.25034 0.09168 0.33676 0.0
C1087 C 0.28433 0.09187 0.32679 0.0
C1088 C 0.30388 0.11636 0.30566 0.0
C1089 C 0.29142 0.14282 0.29624 0.0
C1090 C 0.22851 0.06585 0.35921 0.0
C1091 C 0.33987 0.11699 0.29423 0.0
C1092 C 0.34759 0.07374 0.37449 0.0
C1093 C 0.33676 0.03326 0.36956 0.0
C1094 C 0.33109 0.0931 0.36042 0.0
C1095 C 0.3029 0.07152 0.34089 0.0
C1096 C 0.292 0.03076 0.33557 0.0
C1097 C 0.30911 0.01209 0.34996 0.0
C1098 C 0.34355 0.13666 0.36671 0.0
C1099 C 0.26198 0.00679 0.31492 0.0
H1100 H 0.21363 0.11942 0.33554 0.0
H1101 H 0.30784 0.16305 0.28092 0.0
H1102 H 0.22282 0.03445 0.35664 0.0
H1103 H 0.24734 0.07855 0.37652 0.0
H1104 H 0.19954 0.06471 0.36234 0.0
H1105 H 0.36602 0.13354 0.30716 0.0
H1106 H 0.33469 0.08574 0.29186 0.0
H1107 H 0.34744 0.13222 0.27554 0.0
H1108 H 0.36904 0.09049 0.38947 0.0
H1109 H 0.30045 0.98077 0.34601 0.0
H1110 H 0.31713 0.13881 0.37253 0.0
H1111 H 0.35603 0.15581 0.34971 0.0
H1112 H 0.36631 0.14932 0.3822 0.0
H1113 H 0.23267 0.00399 0.31934 0.0
H1114 H 0.25776 0.97585 0.31257 0.0
H1115 H 0.27173 0.02292 0.29664 0.0
C1116 C 0.44843 0.52328 0.34544 0.0
C1117 C 0.47443 0.53546 0.36646 0.0
C1118 C 0.41762 0.48304 0.34261 0.0
C1119 C 0.41247 0.45428 0.36133 0.0
C1120 C 0.43746 0.46666 0.38314 0.0
C1121 C 0.46834 0.5071 0.38538 0.0
C1122 C 0.39144 0.471 0.3191 0.0
C1123 C 0.43254 0.43704 0.40369 0.0
C1124 C 0.31393 0.35634 0.3539 0.0
C1125 C 0.32509 0.334 0.33816 0.0
C1126 C 0.34258 0.3947 0.36325 0.0
C1127 C 0.38315 0.41082 0.35665 0.0
C1128 C 0.3949 0.38697 0.3425 0.0
C1129 C 0.36573 0.34886 0.33343 0.0
C1130 C 0.32908 0.41905 0.37867 0.0
C1131 C 0.43793 0.40294 0.33524 0.0
H1132 H 0.45272 0.54497 0.33081 0.0
H1133 H 0.48792 0.51637 0.4019 0.0
H1134 H 0.39611 0.44924 0.30764 0.0
H1135 H 0.3595 0.45551 0.3244 0.0
H1136 H 0.39778 0.49745 0.3071 0.0
H1137 H 0.44983 0.45264 0.42113 0.0
H1138 H 0.4006 0.41792 0.40863 0.0
H1139 H 0.4431 0.41648 0.39675 0.0
H1140 H 0.28261 0.34495 0.35771 0.0
H1141 H 0.37468 0.33149 0.3216 0.0
H1142 H 0.33017 0.44366 0.36686 0.0
H1143 H 0.34935 0.43355 0.39519 0.0
H1144 H 0.2981 0.40007 0.38556 0.0
H1145 H 0.44693 0.42784 0.32141 0.0
H1146 H 0.44272 0.37907 0.32657 0.0
H1147 H 0.45791 0.41564 0.35207 0.0
C1148 C 0.64425 0.02067 0.31776 0.0
C1149 C 0.6626 0.00288 0.3317 0.0
C1150 C 0.60865 0.01834 0.32602 0.0
C1151 C 0.59077 0.99737 0.3486 0.0
C1152 C 0.60854 0.97841 0.36235 0.0
C1153 C 0.64428 0.98154 0.35381 0.0
C1154 C 0.59069 0.03913 0.31093 0.0
C1155 C 0.59016 0.95534 0.38635 0.0
C1156 C 0.52355 0.02425 0.38608 0.0
C1157 C 0.4853 0.99262 0.37932 0.0
C1158 C 0.55802 0.02661 0.37578 0.0
C1159 C 0.55429 0.99644 0.35843 0.0
C1160 C 0.51582 0.96472 0.35125 0.0
C1161 C 0.4818 0.96326 0.3617 0.0
C1162 C 0.5985 0.06105 0.38382 0.0
C1163 C 0.51065 0.93178 0.33299 0.0
H1164 H 0.65818 0.03726 0.30069 0.0
H1165 H 0.65794 0.96728 0.36457 0.0
H1166 H 0.55917 0.01718 0.3058 0.0
H1167 H 0.59056 0.06334 0.32263 0.0
H1168 H 0.6074 0.05289 0.29331 0.0
H1169 H 0.60663 0.94066 0.39414 0.0
H1170 H 0.58992 0.97625 0.40095 0.0
H1171 H 0.55865 0.93162 0.38272 0.0
H1172 H 0.52669 0.04716 0.39962 0.0
H1173 H 0.45245 0.93857 0.35643 0.0
H1174 H 0.61586 0.07743 0.36693 0.0
H1175 H 0.61565 0.04886 0.39381 0.0
H1176 H 0.59624 0.08307 0.39657 0.0
H1177 H 0.52615 0.94532 0.31502 0.0
H1178 H 0.4787 0.91002 0.32864 0.0
H1179 H 0.52453 0.91477 0.34112 0.0
C1180 C 0.0263 0.67674 0.35669 0.0
C1181 C 0.99516 0.66614 0.33904 0.0
C1182 C 0.03188 0.64682 0.36846 0.0
C1183 C 0.0055 0.60545 0.36253 0.0
C1184 C 0.9735 0.59459 0.34518 0.0
C1185 C 0.96883 0.62506 0.33357 0.0
C1186 C 0.06655 0.65952 0.38671 0.0
C1187 C 0.94463 0.55077 0.33849 0.0
C1188 C 0.03926 0.52798 0.37037 0.0
C1189 C 0.02001 0.50848 0.39273 0.0
C1190 C 0.03553 0.56025 0.36067 0.0
C1191 C 0.01203 0.57336 0.37365 0.0
C1192 C 0.99313 0.55438 0.39646 0.0
C1193 C 0.9973 0.52213 0.40571 0.0
C1194 C 0.05623 0.57987 0.3363 0.0
C1195 C 0.96801 0.56771 0.41089 0.0
H1196 H 0.04702 0.70846 0.36079 0.0
H1197 H 0.94458 0.61665 0.32004 0.0
H1198 H 0.05581 0.64382 0.40505 0.0
H1199 H 0.08765 0.65049 0.37901 0.0
H1200 H 0.08311 0.69279 0.39024 0.0
H1201 H 0.92044 0.54738 0.32537 0.0
H1202 H 0.96091 0.537 0.32942 0.0
H1203 H 0.93084 0.53331 0.35591 0.0
H1204 H 0.05709 0.51789 0.36027 0.0
H1205 H 0.98265 0.50759 0.42313 0.0
H1206 H 0.07544 0.61308 0.33911 0.0
H1207 H 0.03365 0.57511 0.32151 0.0
H1208 H 0.07499 0.56743 0.32921 0.0
H1209 H 0.98569 0.60063 0.41526 0.0
H1210 H 0.95678 0.55099 0.42891 0.0
H1211 H 0.94204 0.56278 0.39904 0.0
C1212 C 0.5282 0.48285 0.64313 0.0
C1213 C 0.52588 0.44794 0.65377 0.0
C1214 C 0.55592 0.52161 0.65235 0.0
C1215 C 0.58199 0.52552 0.67258 0.0
C1216 C 0.58221 0.49074 0.68182 0.0
C1217 C 0.5541 0.45235 0.67233 0.0
C1218 C 0.55495 0.558 0.64184 0.0
C1219 C 0.6099 0.49366 0.70315 0.0
C1220 C 0.66322 0.63023 0.69461 0.0
C1221 C 0.64441 0.63746 0.715 0.0
C1222 C 0.64341 0.59394 0.68048 0.0
C1223 C 0.60389 0.56446 0.68683 0.0
C1224 C 0.58479 0.5717 0.70729 0.0
C1225 C 0.60527 0.60796 0.72112 0.0
C1226 C 0.66475 0.58709 0.65887 0.0
C1227 C 0.54259 0.54105 0.71466 0.0
H1228 H 0.50693 0.47992 0.62855 0.0
H1229 H 0.55309 0.42568 0.68039 0.0
H1230 H 0.54047 0.56845 0.65567 0.0
H1231 H 0.58567 0.58348 0.63882 0.0
H1232 H 0.53797 0.55086 0.62365 0.0
H1233 H 0.61093 0.46515 0.70534 0.0
H1234 H 0.64065 0.51899 0.69998 0.0
H1235 H 0.59943 0.5 0.72118 0.0
H1236 H 0.69349 0.65278 0.68977 0.0
H1237 H 0.59033 0.61322 0.73672 0.0
H1238 H 0.64788 0.58282 0.64092 0.0
H1239 H 0.66612 0.55898 0.66204 0.0
H1240 H 0.69567 0.61278 0.6566 0.0
H1241 H 0.5219 0.53471 0.69835 0.0
H1242 H 0.53191 0.55158 0.73089 0.0
H1243 H 0.54095 0.51202 0.71989 0.0
C1244 C 0.50794 0.02772 0.63292 0.0
C1245 C 0.54129 0.05938 0.64537 0.0
C1246 C 0.46891 0.01814 0.63912 0.0
C1247 C 0.46297 0.04084 0.65815 0.0
C1248 C 0.49642 0.07348 0.67031 0.0
C1249 C 0.53513 0.08231 0.66383 0.0
C1250 C 0.43398 0.98313 0.62567 0.0
C1251 C 0.49132 0.09865 0.69053 0.0
C1252 C 0.36217 0.03582 0.66021 0.0
C1253 C 0.34308 0.00803 0.67977 0.0
C1254 C 0.4013 0.04711 0.65315 0.0
C1255 C 0.42173 0.02983 0.66574 0.0
C1256 C 0.40272 0.00189 0.68557 0.0
C1257 C 0.36372 0.99155 0.69247 0.0
C1258 C 0.42075 0.0775 0.63221 0.0
C1259 C 0.42346 0.98266 0.69936 0.0
H1260 H 0.51221 0.00979 0.61861 0.0
H1261 H 0.56057 0.10693 0.67353 0.0
H1262 H 0.4156 0.95943 0.63957 0.0
H1263 H 0.41451 0.9935 0.61675 0.0
H1264 H 0.44366 0.96926 0.6108 0.0
H1265 H 0.52038 0.1241 0.69739 0.0
H1266 H 0.47282 0.11128 0.68311 0.0
H1267 H 0.47534 0.07925 0.70688 0.0
H1268 H 0.34663 0.04911 0.6505 0.0
H1269 H 0.34917 0.97002 0.70756 0.0
H1270 H 0.42831 0.06344 0.61635 0.0
H1271 H 0.44912 0.1037 0.6392 0.0
H1272 H 0.40118 0.08893 0.62479 0.0
H1273 H 0.43153 0.96574 0.68572 0.0
H1274 H 0.40456 0.96147 0.71431 0.0
H1275 H 0.45166 0.00649 0.70824 0.0
C1276 C 0.00973 0.3985 0.70941 0.0
C1277 C 1.00145 0.35907 0.70344 0.0
C1278 C 0.9935 0.41776 0.69499 0.0
C1279 C 0.96821 0.39717 0.67401 0.0
C1280 C 0.95978 0.35746 0.66771 0.0
C1281 C 0.97655 0.33886 0.68249 0.0
C1282 C 1.00323 0.46017 0.70238 0.0
C1283 C 0.93288 0.33457 0.64551 0.0
C1284 C 0.90301 0.44224 0.65792 0.0
C1285 C 0.92654 0.47159 0.64006 0.0
C1286 C 0.91448 0.41523 0.66765 0.0
C1287 C 0.95027 0.41754 0.65929 0.0
C1288 C 0.97204 0.44436 0.63953 0.0
C1289 C 0.95992 0.47109 0.63014 0.0
C1290 C 0.89015 0.38675 0.6885 0.0
C1291 C 0.01008 0.44737 0.62982 0.0
H1292 H 0.02899 0.4145 0.72546 0.0
H1293 H 0.96986 0.30835 0.67772 0.0
H1294 H 0.01735 0.48109 0.6863 0.0
H1295 H 0.97534 0.46044 0.7069 0.0
H1296 H 0.02374 0.4721 0.71906 0.0
H1297 H 0.92959 0.30403 0.64297 0.0
H1298 H 0.9028 0.33095 0.6482 0.0
H1299 H 0.94499 0.35202 0.62785 0.0
H1300 H 0.8768 0.44184 0.66547 0.0
H1301 H 0.97805 0.49318 0.61607 0.0
H1302 H 0.90615 0.39836 0.70687 0.0
H1303 H 0.8863 0.35616 0.68536 0.0
H1304 H 0.86016 0.38392 0.68997 0.0
H1305 H 0.0344 0.46357 0.64404 0.0
H1306 H 0.01949 0.46415 0.6117 0.0
H1307 H 0.00641 0.41679 0.62697 0.0
C1308 C 0.12533 0.8402 0.67587 0.0
C1309 C 0.14997 0.85635 0.69738 0.0
C1310 C 0.09447 0.79983 0.67508 0.0
C1311 C 0.08787 0.77481 0.69638 0.0
C1312 C 0.11247 0.79078 0.71825 0.0
C1313 C 0.14338 0.83143 0.71847 0.0
C1314 C 0.06913 0.78386 0.65125 0.0
C1315 C 0.10595 0.76513 0.74142 0.0
C1316 C 0.98538 0.68223 0.69054 0.0
C1317 C 0.99449 0.6562 0.67699 0.0
C1318 C 0.01601 0.71993 0.69948 0.0
C1319 C 0.05635 0.73149 0.69469 0.0
C1320 C 0.06558 0.7034 0.68345 0.0
C1321 C 0.03449 0.66608 0.67469 0.0
C1322 C 1.00502 0.74888 0.71172 0.0
C1323 C 0.10818 0.71434 0.67818 0.0
H1324 H 0.13016 0.85916 0.65949 0.0
H1325 H 0.16199 0.84381 0.7353 0.0
H1326 H 0.07226 0.75869 0.64308 0.0
H1327 H 0.03714 0.77152 0.65575 0.0
H1328 H 0.07757 0.80761 0.63662 0.0
H1329 H 0.12944 0.78128 0.75618 0.0
H1330 H 0.07648 0.75655 0.74965 0.0
H1331 H 0.10547 0.73661 0.73622 0.0
H1332 H 0.95448 0.67468 0.69237 0.0
H1333 H 0.04159 0.64568 0.66456 0.0
H1334 H 0.00835 0.77208 0.69775 0.0
H1335 H 0.02525 0.76496 0.72799 0.0
H1336 H 0.97366 0.73303 0.71836 0.0
H1337 H 0.1195 0.73575 0.66209 0.0
H1338 H 0.11062 0.68726 0.6732 0.0
H1339 H 0.12782 0.72972 0.69481 0.0
C1340 C 0.18897 0.3425 0.73338 0.0
C1341 C 0.15311 0.31969 0.71962 0.0
C1342 C 0.22468 0.34484 0.72556 0.0
C1343 C 0.22474 0.32393 0.70338 0.0
C1344 C 0.18868 0.30052 0.68951 0.0
C1345 C 0.1533 0.29866 0.69779 0.0
C1346 C 0.26241 0.36989 0.74099 0.0
C1347 C 0.18753 0.27761 0.66583 0.0
C1348 C 0.32183 0.36177 0.6678 0.0
C1349 C 0.33422 0.3344 0.67544 0.0
C1350 C 0.2866 0.35899 0.67703 0.0
C1351 C 0.26284 0.32782 0.69416 0.0
C1352 C 0.27537 0.30035 0.70223 0.0
C1353 C 0.31103 0.30411 0.69288 0.0
C1354 C 0.27455 0.38918 0.66821 0.0
C1355 C 0.25064 0.26645 0.72027 0.0
H1356 H 0.1892 0.35845 0.75047 0.0
H1357 H 0.12578 0.2807 0.68713 0.0
H1358 H 0.275 0.35069 0.74727 0.0
H1359 H 0.28525 0.39438 0.72916 0.0
H1360 H 0.2572 0.38384 0.75798 0.0
H1361 H 0.15685 0.25959 0.65773 0.0
H1362 H 0.2071 0.29921 0.65129 0.0
H1363 H 0.19923 0.25684 0.67001 0.0
H1364 H 0.3396 0.38538 0.65442 0.0
H1365 H 0.32015 0.28258 0.69871 0.0
H1366 H 0.27095 0.40507 0.68475 0.0
H1367 H 0.24525 0.37311 0.65817 0.0
H1368 H 0.29679 0.41219 0.6553 0.0
H1369 H 0.24478 0.27878 0.73775 0.0
H1370 H 0.26545 0.24883 0.72562 0.0
H1371 H 0.22123 0.24545 0.71137 0.0
C1372 C 0.69775 0.84653 0.70266 0.0
C1373 C 0.679 0.82805 0.72536 0.0
C1374 C 0.69496 0.87929 0.69285 0.0
C1375 C 0.67293 0.89397 0.70606 0.0
C1376 C 0.65417 0.87571 0.72905 0.0
C1377 C 0.65738 0.84294 0.7384 0.0
C1378 C 0.71544 0.89808 0.66828 0.0
C1379 C 0.63064 0.8907 0.74374 0.0
C1380 C 0.69229 0.99947 0.68966 0.0
C1381 C 0.6612 0.9905 0.67225 0.0
C1382 C 0.69623 0.96834 0.70114 0.0
C1383 C 0.66823 0.92738 0.69519 0.0
C1384 C 0.63631 0.91819 0.67809 0.0
C1385 C 0.6333 0.94984 0.66675 0.0
C1386 C 0.73086 0.97927 0.71913 0.0
C1387 C 0.60569 0.87488 0.67142 0.0
H1388 H 0.71473 0.83548 0.69251 0.0
H1389 H 0.64318 0.82922 0.7561 0.0
H1390 H 0.69292 0.89477 0.65382 0.0
H1391 H 0.73629 0.93102 0.67104 0.0
H1392 H 0.73247 0.88394 0.66077 0.0
H1393 H 0.61792 0.87322 0.76134 0.0
H1394 H 0.65012 0.92312 0.74891 0.0
H1395 H 0.60582 0.88853 0.73178 0.0
H1396 H 0.71418 0.03083 0.69382 0.0
H1397 H 0.60906 0.94266 0.65344 0.0
H1398 H 0.75053 0.96853 0.71126 0.0
H1399 H 0.71981 0.96391 0.73754 0.0
H1400 H 0.74903 0.01249 0.72258 0.0
H1401 H 0.62053 0.85978 0.66212 0.0
H1402 H 0.58184 0.87287 0.65852 0.0
H1403 H 0.5916 0.85772 0.68888 0.0
loop_
_geom_bond_atom_site_label_1
_geom_bond_atom_site_label_2
_geom_bond_distance
_geom_bond_site_symmetry_2
_ccdc_geom_bond_type
Co0 O1 2.216 . S
Co0 O2 2.091 . S
Co0 O4 2.004 . S
Co0 O10 2.021 . S
Co0 O12 2.137 . S
Co0 O13 2.244 . S
O1 Co0 2.216 . S
O1 C8 1.247 . S
O2 Co0 2.091 . S
O2 C8 1.261 . S
C3 O12 1.247 . S
C3 O13 1.272 . S
O4 Co0 2.004 . S
O4 C9 1.259 . S
Co5 O6 2.061 . S
Co5 O11 2.052 1_545 S
Co5 O13 2.135 . S
O6 Co5 2.061 . S
O6 C9 1.235 . S
C7 O10 1.238 1_565 S
C7 O11 1.241 . S
C8 O1 1.247 . S
C8 O2 1.261 . S
C9 O4 1.259 . S
C9 O6 1.235 . S
O10 Co0 2.021 . S
O10 C7 1.238 1_545 S
O11 Co5 2.052 1_565 S
O11 C7 1.241 . S
O12 Co0 2.137 . S
O12 C3 1.247 . S
O13 Co0 2.244 . S
O13 C3 1.272 . S
O13 Co5 2.135 . S
Co14 O15 2.216 . S
Co14 O16 2.091 . S
Co14 O18 2.004 1_655 S
Co14 O24 2.021 . S
Co14 O26 2.137 . S
Co14 O27 2.244 . S
O15 Co14 2.216 . S
O15 C22 1.247 . S
O16 Co14 2.091 . S
O16 C22 1.261 . S
C17 O26 1.247 . S
C17 O27 1.272 . S
O18 Co14 2.004 1_455 S
O18 C23 1.259 . S
Co19 O20 2.043 1_656 S
Co19 O25 2.052 1_556 S
Co19 O27 2.135 1_556 S
O20 Co19 2.043 1_454 S
O20 C23 1.246 . S
C21 O24 1.238 . S
C21 O25 1.241 . S
C22 O15 1.247 . S
C22 O16 1.261 . S
C23 O18 1.259 . S
C23 O20 1.246 . S
O24 Co14 2.021 . S
O24 C21 1.238 . S
O25 Co19 2.052 1_554 S
O25 C21 1.241 . S
O26 Co14 2.137 . S
O26 C17 1.247 . S
O27 Co14 2.244 . S
O27 C17 1.272 . S
O27 Co19 2.135 1_554 S
Co28 O29 2.216 . S
Co28 O30 2.091 . S
Co28 O32 2.004 . S
Co28 O38 2.021 . S
Co28 O40 2.137 . S
Co28 O41 2.244 . S
O29 Co28 2.216 . S
O29 C36 1.247 . S
O30 Co28 2.091 . S
O30 C36 1.261 . S
C31 O40 1.247 . S
C31 O41 1.272 . S
O32 Co28 2.004 . S
O32 C37 1.259 . S
Co33 O34 2.061 . S
Co33 O39 2.052 . S
Co33 O41 2.135 . S
O34 Co33 2.061 . S
O34 C37 1.235 . S
C35 O38 1.238 . S
C35 O39 1.241 . S
C36 O29 1.247 . S
C36 O30 1.261 . S
C37 O32 1.259 . S
C37 O34 1.235 . S
O38 Co28 2.021 . S
O38 C35 1.238 . S
O39 Co33 2.052 . S
O39 C35 1.241 . S
O40 Co28 2.137 . S
O40 C31 1.247 . S
O41 Co28 2.244 . S
O41 C31 1.272 . S
O41 Co33 2.135 . S
Co42 O43 2.216 . S
Co42 O44 2.091 . S
Co42 O46 2.004 1_565 S
Co42 O52 2.021 . S
Co42 O54 2.137 . S
Co42 O55 2.244 . S
O43 Co42 2.216 . S
O43 C50 1.247 . S
O44 Co42 2.091 . S
O44 C50 1.261 . S
C45 O54 1.247 . S
C45 O55 1.272 . S
O46 Co42 2.004 1_545 S
O46 C51 1.259 . S
Co47 O48 2.059 1_564 S
Co47 O53 2.050 1_554 S
Co47 O55 2.129 1_554 S
O48 Co47 2.059 1_546 S
O48 C51 1.235 . S
C49 O52 1.238 . S
C49 O53 1.241 . S
C50 O43 1.247 . S
C50 O44 1.261 . S
C51 O46 1.259 . S
C51 O48 1.235 . S
O52 Co42 2.021 . S
O52 C49 1.238 . S
O53 Co47 2.050 1_556 S
O53 C49 1.241 . S
O54 Co42 2.137 . S
O54 C45 1.247 . S
O55 Co42 2.244 . S
O55 C45 1.272 . S
O55 Co47 2.129 1_556 S
Co56 O57 2.216 . S
Co56 O58 2.091 . S
Co56 O60 2.004 1_455 S
Co56 O66 2.021 . S
Co56 O68 2.137 . S
Co56 O69 2.244 . S
O57 Co56 2.216 . S
O57 C64 1.247 . S
O58 Co56 2.091 . S
O58 C64 1.261 . S
C59 O68 1.247 . S
C59 O69 1.272 . S
O60 Co56 2.004 1_655 S
O60 C65 1.259 . S
Co61 O62 2.061 1_454 S
Co61 O67 2.052 1_554 S
Co61 O69 2.135 1_554 S
O62 Co61 2.061 1_656 S
O62 C65 1.235 . S
C63 O66 1.238 . S
C63 O67 1.241 . S
C64 O57 1.247 . S
C64 O58 1.261 . S
C65 O60 1.259 . S
C65 O62 1.235 . S
O66 Co56 2.021 . S
O66 C63 1.238 . S
O67 Co61 2.052 1_556 S
O67 C63 1.241 . S
O68 Co56 2.137 . S
O68 C59 1.247 . S
O69 Co56 2.244 . S
O69 C59 1.272 . S
O69 Co61 2.135 1_556 S
Co70 O71 2.216 . S
Co70 O72 2.091 . S
Co70 O74 2.004 . S
Co70 O80 2.021 . S
Co70 O82 2.137 . S
Co70 O83 2.244 . S
O71 Co70 2.216 . S
O71 C78 1.247 . S
O72 Co70 2.091 . S
O72 C78 1.261 . S
C73 O82 1.247 . S
C73 O83 1.272 . S
O74 Co70 2.004 . S
O74 C79 1.259 . S
Co75 O76 2.048 1_554 S
Co75 O81 2.042 1_554 S
Co75 O83 2.099 1_554 S
O76 Co75 2.048 1_556 S
O76 C79 1.235 . S
C77 O80 1.238 . S
C77 O81 1.241 . S
C78 O71 1.247 . S
C78 O72 1.261 . S
C79 O74 1.259 . S
C79 O76 1.235 . S
O80 Co70 2.021 . S
O80 C77 1.238 . S
O81 Co75 2.042 1_556 S
O81 C77 1.241 . S
O82 Co70 2.137 . S
O82 C73 1.247 . S
O83 Co70 2.244 . S
O83 C73 1.272 . S
O83 Co75 2.099 1_556 S
Co84 O85 2.216 . S
Co84 O86 2.091 . S
Co84 O88 2.004 . S
Co84 O94 2.021 1_455 S
Co84 O96 2.137 . S
Co84 O97 2.244 1_455 S
O85 Co84 2.216 . S
O85 C92 1.247 . S
O86 Co84 2.091 . S
O86 C92 1.261 . S
C87 O96 1.247 . S
C87 O97 1.272 1_455 S
O88 Co84 2.004 . S
O88 C93 1.259 1_455 S
Co89 O90 2.061 . S
Co89 O95 2.052 . S
Co89 O97 2.135 . S
O90 Co89 2.061 . S
O90 C93 1.235 . S
C91 O94 1.238 . S
C91 O95 1.241 . S
C92 O85 1.247 . S
C92 O86 1.261 . S
C93 O88 1.259 1_655 S
C93 O90 1.235 . S
O94 Co84 2.021 1_655 S
O94 C91 1.238 . S
O95 Co89 2.052 . S
O95 C91 1.241 . S
O96 Co84 2.137 . S
O96 C87 1.247 . S
O97 Co84 2.244 1_655 S
O97 C87 1.272 1_655 S
O97 Co89 2.135 . S
Co98 O99 2.216 . S
Co98 O100 2.091 . S
Co98 O102 2.004 . S
Co98 O108 2.021 . S
Co98 O110 2.137 . S
Co98 O111 2.244 . S
O99 Co98 2.216 . S
O99 C106 1.247 . S
O100 Co98 2.091 . S
O100 C106 1.261 . S
C101 O110 1.247 . S
C101 O111 1.272 . S
O102 Co98 2.004 . S
O102 C107 1.259 . S
Co103 O104 2.061 . S
Co103 O109 2.052 . S
Co103 O111 2.135 . S
O104 Co103 2.061 . S
O104 C107 1.235 . S
C105 O108 1.238 . S
C105 O109 1.241 . S
C106 O99 1.247 . S
C106 O100 1.261 . S
C107 O102 1.259 . S
C107 O104 1.235 . S
O108 Co98 2.021 . S
O108 C105 1.238 . S
O109 Co103 2.052 . S
O109 C105 1.241 . S
O110 Co98 2.137 . S
O110 C101 1.247 . S
O111 Co98 2.244 . S
O111 C101 1.272 . S
O111 Co103 2.135 . S
Co112 O113 2.216 . S
Co112 O114 2.091 . S
Co112 O116 2.004 . S
Co112 O122 2.021 1_565 S
Co112 O124 2.137 . S
Co112 O125 2.244 1_565 S
O113 Co112 2.216 . S
O113 C120 1.247 . S
O114 Co112 2.091 . S
O114 C120 1.261 . S
C115 O124 1.247 . S
C115 O125 1.272 1_565 S
O116 Co112 2.004 . S
O116 C121 1.259 1_565 S
Co117 O118 2.061 . S
Co117 O123 2.052 . S
Co117 O125 2.135 . S
O118 Co117 2.061 . S
O118 C121 1.235 . S
C119 O122 1.238 . S
C119 O123 1.241 . S
C120 O113 1.247 . S
C120 O114 1.261 . S
C121 O116 1.259 1_545 S
C121 O118 1.235 . S
O122 Co112 2.021 1_545 S
O122 C119 1.238 . S
O123 Co117 2.052 . S
O123 C119 1.241 . S
O124 Co112 2.137 . S
O124 C115 1.247 . S
O125 Co112 2.244 1_545 S
O125 C115 1.272 1_545 S
O125 Co117 2.135 . S
Co126 O127 2.216 . S
Co126 O128 2.091 . S
Co126 O130 2.004 . S
Co126 O136 2.021 . S
Co126 O138 2.137 . S
Co126 O139 2.244 . S
O127 Co126 2.216 . S
O127 C134 1.247 . S
O128 Co126 2.091 . S
O128 C134 1.261 . S
C129 O138 1.247 . S
C129 O139 1.272 . S
O130 Co126 2.004 . S
O130 C135 1.259 . S
Co131 O132 2.061 . S
Co131 O137 2.052 . S
Co131 O139 2.135 . S
O132 Co131 2.061 . S
O132 C135 1.235 . S
C133 O136 1.238 . S
C133 O137 1.241 . S
C134 O127 1.247 . S
C134 O128 1.261 . S
C135 O130 1.259 . S
C135 O132 1.235 . S
O136 Co126 2.021 . S
O136 C133 1.238 . S
O137 Co131 2.052 . S
O137 C133 1.241 . S
O138 Co126 2.137 . S
O138 C129 1.247 . S
O139 Co126 2.244 . S
O139 C129 1.272 . S
O139 Co131 2.135 . S
Co140 O141 2.216 . S
Co140 O142 2.091 . S
Co140 O144 2.004 . S
Co140 O150 2.021 . S
Co140 O152 2.137 1_545 S
Co140 O153 2.244 . S
O141 Co140 2.216 . S
O141 C148 1.247 . S
O142 Co140 2.091 . S
O142 C148 1.261 . S
C143 O152 1.247 . S
C143 O153 1.272 1_565 S
O144 Co140 2.004 . S
O144 C149 1.259 . S
Co145 O146 2.061 . S
Co145 O151 2.052 . S
Co145 O153 2.135 . S
O146 Co145 2.061 . S
O146 C149 1.235 . S
C147 O150 1.238 . S
C147 O151 1.241 . S
C148 O141 1.247 . S
C148 O142 1.261 . S
C149 O144 1.259 . S
C149 O146 1.235 . S
O150 Co140 2.021 . S
O150 C147 1.238 . S
O151 Co145 2.052 . S
O151 C147 1.241 . S
O152 Co140 2.137 1_565 S
O152 C143 1.247 . S
O153 Co140 2.244 . S
O153 C143 1.272 1_545 S
O153 Co145 2.135 . S
Co154 O155 2.216 . S
Co154 O156 2.091 . S
Co154 O158 2.004 . S
Co154 O164 2.021 . S
Co154 O166 2.137 1_655 S
Co154 O167 2.244 . S
O155 Co154 2.216 . S
O155 C162 1.247 . S
O156 Co154 2.091 . S
O156 C162 1.261 . S
C157 O166 1.247 . S
C157 O167 1.272 1_455 S
O158 Co154 2.004 . S
O158 C163 1.259 . S
Co159 O160 2.061 . S
Co159 O165 2.052 . S
Co159 O167 2.135 . S
O160 Co159 2.061 . S
O160 C163 1.235 . S
C161 O164 1.238 . S
C161 O165 1.241 . S
C162 O155 1.247 . S
C162 O156 1.261 . S
C163 O158 1.259 . S
C163 O160 1.235 . S
O164 Co154 2.021 . S
O164 C161 1.238 . S
O165 Co159 2.052 . S
O165 C161 1.241 . S
O166 Co154 2.137 1_455 S
O166 C157 1.247 . S
O167 Co154 2.244 . S
O167 C157 1.272 1_655 S
O167 Co159 2.135 . S
Co168 O169 2.216 . S
Co168 O170 2.091 . S
Co168 O172 2.004 . S
Co168 O178 2.021 . S
Co168 O180 2.137 . S
Co168 O181 2.244 . S
O169 Co168 2.216 . S
O169 C176 1.247 . S
O170 Co168 2.091 . S
O170 C176 1.261 . S
C171 O180 1.247 . S
C171 O181 1.272 . S
O172 Co168 2.004 . S
O172 C177 1.259 . S
Co173 O174 2.061 . S
Co173 O179 2.052 . S
Co173 O181 2.135 . S
O174 Co173 2.061 . S
O174 C177 1.235 . S
C175 O178 1.238 . S
C175 O179 1.241 . S
C176 O169 1.247 . S
C176 O170 1.261 . S
C177 O172 1.259 . S
C177 O174 1.235 . S
O178 Co168 2.021 . S
O178 C175 1.238 . S
O179 Co173 2.052 . S
O179 C175 1.241 . S
O180 Co168 2.137 . S
O180 C171 1.247 . S
O181 Co168 2.244 . S
O181 C171 1.272 . S
O181 Co173 2.135 . S
Co182 O183 2.216 . S
Co182 O184 2.091 . S
Co182 O186 2.004 . S
Co182 O192 2.021 . S
Co182 O194 2.137 1_565 S
Co182 O195 2.244 . S
O183 Co182 2.216 . S
O183 C190 1.247 . S
O184 Co182 2.091 . S
O184 C190 1.261 . S
C185 O194 1.247 . S
C185 O195 1.272 1_545 S
O186 Co182 2.004 . S
O186 C191 1.259 . S
Co187 O188 2.061 . S
Co187 O193 2.052 . S
Co187 O195 2.135 . S
O188 Co187 2.061 . S
O188 C191 1.235 . S
C189 O192 1.238 . S
C189 O193 1.241 . S
C190 O183 1.247 . S
C190 O184 1.261 . S
C191 O186 1.259 . S
C191 O188 1.235 . S
O192 Co182 2.021 . S
O192 C189 1.238 . S
O193 Co187 2.052 . S
O193 C189 1.241 . S
O194 Co182 2.137 1_545 S
O194 C185 1.247 . S
O195 Co182 2.244 . S
O195 C185 1.272 1_565 S
O195 Co187 2.135 . S
Co196 O197 2.216 1_455 S
Co196 O198 2.091 1_455 S
Co196 O200 2.004 . S
Co196 O206 2.021 . S
Co196 O208 2.137 . S
Co196 O209 2.244 . S
O197 Co196 2.216 1_655 S
O197 C204 1.247 . S
O198 Co196 2.091 1_655 S
O198 C204 1.261 . S
C199 O208 1.247 . S
C199 O209 1.272 . S
O200 Co196 2.004 . S
O200 C205 1.259 . S
Co201 O202 2.061 . S
Co201 O207 2.052 . S
Co201 O209 2.135 . S
O202 Co201 2.061 . S
O202 C205 1.235 . S
C203 O206 1.238 . S
C203 O207 1.241 . S
C204 O197 1.247 . S
C204 O198 1.261 . S
C205 O200 1.259 . S
C205 O202 1.235 . S
O206 Co196 2.021 . S
O206 C203 1.238 . S
O207 Co201 2.052 . S
O207 C203 1.241 . S
O208 Co196 2.137 . S
O208 C199 1.247 . S
O209 Co196 2.244 . S
O209 C199 1.272 . S
O209 Co201 2.135 . S
Co210 O211 2.211 1_455 S
Co210 O212 2.098 . S
Co210 O214 2.013 . S
Co210 O220 2.036 . S
Co210 O222 2.118 1_455 S
Co210 O223 2.228 1_455 S
O211 Co210 2.211 1_655 S
O211 C218 1.247 . S
O212 Co210 2.098 . S
O212 C218 1.261 1_455 S
C213 O222 1.247 . S
C213 O223 1.272 . S
O214 Co210 2.013 . S
O214 C219 1.259 . S
Co215 O216 2.061 1_655 S
Co215 O221 2.052 . S
Co215 O223 2.135 . S
O216 Co215 2.061 1_455 S
O216 C219 1.235 . S
C217 O220 1.238 . S
C217 O221 1.241 1_455 S
C218 O211 1.247 . S
C218 O212 1.261 1_655 S
C219 O214 1.259 . S
C219 O216 1.235 . S
O220 Co210 2.036 . S
O220 C217 1.238 . S
O221 Co215 2.052 . S
O221 C217 1.241 1_655 S
O222 Co210 2.118 1_655 S
O222 C213 1.247 . S
O223 Co210 2.228 1_655 S
O223 C213 1.272 . S
O223 Co215 2.135 . S
Co224 O225 2.216 . S
Co224 O226 2.091 . S
Co224 O228 2.004 . S
Co224 O234 2.021 . S
Co224 O236 2.137 . S
Co224 O237 2.244 . S
O225 Co224 2.216 . S
O225 C232 1.247 . S
O226 Co224 2.091 . S
O226 C232 1.261 . S
C227 O236 1.247 . S
C227 O237 1.272 . S
O228 Co224 2.004 . S
O228 C233 1.259 . S
Co229 O230 2.061 . S
Co229 O235 2.052 . S
Co229 O237 2.135 . S
O230 Co229 2.061 . S
O230 C233 1.235 . S
C231 O234 1.238 . S
C231 O235 1.241 . S
C232 O225 1.247 . S
C232 O226 1.261 . S
C233 O228 1.259 . S
C233 O230 1.235 . S
O234 Co224 2.021 . S
O234 C231 1.238 . S
O235 Co229 2.052 . S
O235 C231 1.241 . S
O236 Co224 2.137 . S
O236 C227 1.247 . S
O237 Co224 2.244 . S
O237 C227 1.272 . S
O237 Co229 2.135 . S
Co238 O239 2.197 1_565 S
Co238 O240 2.094 . S
Co238 O242 2.027 . S
Co238 O248 2.018 . S
Co238 O250 2.134 1_565 S
Co238 O251 2.234 1_565 S
O239 Co238 2.197 1_545 S
O239 C246 1.247 . S
O240 Co238 2.094 . S
O240 C246 1.261 1_565 S
C241 O250 1.247 . S
C241 O251 1.272 . S
O242 Co238 2.027 . S
O242 C247 1.259 . S
Co243 O244 2.061 1_545 S
Co243 O249 2.052 . S
Co243 O251 2.135 . S
O244 Co243 2.061 1_565 S
O244 C247 1.235 . S
C245 O248 1.238 . S
C245 O249 1.241 1_565 S
C246 O239 1.247 . S
C246 O240 1.261 1_545 S
C247 O242 1.259 . S
C247 O244 1.235 . S
O248 Co238 2.018 . S
O248 C245 1.238 . S
O249 Co243 2.052 . S
O249 C245 1.241 1_545 S
O250 Co238 2.134 1_545 S
O250 C241 1.247 . S
O251 Co238 2.234 1_545 S
O251 C241 1.272 . S
O251 Co243 2.135 . S
C252 C253 1.391 . S
C252 C254 1.394 1_554 S
C252 H268 0.931 1_554 S
C253 C252 1.391 . S
C253 C257 1.376 . S
C254 C252 1.394 1_556 S
C254 C255 1.369 1_556 S
C254 C258 1.531 . S
C255 C254 1.369 1_554 S
C255 C256 1.410 . S
C255 C263 1.503 1_544 S
C256 C255 1.410 . S
C256 C257 1.392 . S
C256 C259 1.511 1_545 S
C257 C253 1.376 . S
C257 C256 1.392 . S
C257 H269 0.929 . S
C258 C254 1.531 . S
C258 H270 0.960 . S
C258 H271 0.962 . S
C258 H272 0.960 . S
C259 C256 1.511 1_565 S
C259 H273 0.961 . S
C259 H274 0.961 . S
C259 H275 0.961 1_565 S
C260 C261 1.370 . S
C260 C262 1.363 . S
C260 H276 0.931 . S
C261 C260 1.370 . S
C261 C265 1.408 1_565 S
C262 C260 1.363 . S
C262 C263 1.370 . S
C262 C266 1.524 . S
C263 C255 1.503 1_566 S
C263 C262 1.370 . S
C263 C264 1.403 1_565 S
C264 C263 1.403 1_545 S
C264 C265 1.404 . S
C264 C267 1.539 . S
C265 C261 1.408 1_545 S
C265 C264 1.404 . S
C265 H277 0.930 . S
C266 C262 1.524 . S
C266 H278 0.956 . S
C266 H279 0.961 1_556 S
C266 H280 0.961 . S
C267 C264 1.539 . S
C267 H281 0.958 . S
C267 H282 0.958 1_556 S
C267 H283 0.960 1_556 S
H268 C252 0.931 1_556 S
H269 C257 0.929 . S
H270 C258 0.960 . S
H271 C258 0.962 . S
H272 C258 0.960 . S
H273 C259 0.961 . S
H274 C259 0.961 . S
H275 C259 0.961 1_545 S
H276 C260 0.931 . S
H277 C265 0.930 . S
H278 C266 0.956 . S
H279 C266 0.961 1_554 S
H280 C266 0.961 . S
H281 C267 0.958 . S
H282 C267 0.958 1_554 S
H283 C267 0.960 1_554 S
C284 C285 1.391 . S
C284 C286 1.394 . S
C284 H300 0.931 . S
C285 C284 1.391 . S
C285 C289 1.376 1_655 S
C286 C284 1.394 . S
C286 C287 1.369 . S
C286 C290 1.531 . S
C287 C286 1.369 . S
C287 C288 1.410 1_655 S
C287 C295 1.494 1_654 S
C288 C287 1.410 1_455 S
C288 C289 1.392 . S
C288 C291 1.511 1_554 S
C289 C285 1.376 1_455 S
C289 C288 1.392 . S
C289 H301 0.929 . S
C290 C286 1.531 . S
C290 H302 0.960 . S
C290 H303 0.962 . S
C290 H304 0.960 . S
C291 C288 1.511 1_556 S
C291 H305 0.961 . S
C291 H306 0.961 . S
C291 H307 0.961 1_556 S
C292 C293 1.370 1_655 S
C292 C294 1.363 . S
C292 H308 0.931 . S
C293 C292 1.370 1_455 S
C293 C297 1.408 . S
C294 C292 1.363 . S
C294 C295 1.387 1_655 S
C294 C298 1.524 . S
C295 C287 1.494 1_456 S
C295 C294 1.387 1_455 S
C295 C296 1.396 1_556 S
C296 C295 1.396 1_554 S
C296 C297 1.404 1_554 S
C296 C299 1.539 . S
C297 C293 1.408 . S
C297 C296 1.404 1_556 S
C297 H309 0.930 1_556 S
C298 C294 1.524 . S
C298 H310 0.956 . S
C298 H311 0.961 . S
C298 H312 0.961 . S
C299 C296 1.539 . S
C299 H313 0.958 . S
C299 H314 0.961 . S
C299 H315 0.960 . S
H300 C284 0.931 . S
H301 C289 0.929 . S
H302 C290 0.960 . S
H303 C290 0.962 . S
H304 C290 0.960 . S
H305 C291 0.961 . S
H306 C291 0.961 . S
H307 C291 0.961 1_554 S
H308 C292 0.931 . S
H309 C297 0.930 1_554 S
H310 C298 0.956 . S
H311 C298 0.961 . S
H312 C298 0.961 . S
H313 C299 0.958 . S
H314 C299 0.961 . S
H315 C299 0.960 . S
C316 C317 1.391 . S
C316 C318 1.394 . S
C316 H332 0.931 . S
C317 C316 1.391 . S
C317 C321 1.376 . S
C318 C316 1.394 . S
C318 C319 1.369 . S
C318 C322 1.531 1_556 S
C319 C318 1.369 . S
C319 C320 1.410 . S
C319 C327 1.503 1_556 S
C320 C319 1.410 . S
C320 C321 1.392 . S
C320 C323 1.511 . S
C321 C317 1.376 . S
C321 C320 1.392 . S
C321 H333 0.929 . S
C322 C318 1.531 1_554 S
C322 H334 0.960 . S
C322 H335 0.962 . S
C322 H336 0.960 . S
C323 C320 1.511 . S
C323 H337 0.961 . S
C323 H338 0.961 . S
C323 H339 0.961 . S
C324 C325 1.370 . S
C324 C326 1.363 1_554 S
C324 H340 0.936 . S
C325 C324 1.370 . S
C325 C329 1.408 . S
C326 C324 1.363 1_556 S
C326 C327 1.370 1_556 S
C326 C330 1.524 . S
C327 C319 1.503 1_554 S
C327 C326 1.370 1_554 S
C327 C328 1.403 . S
C328 C327 1.403 . S
C328 C329 1.404 . S
C328 C331 1.539 . S
C329 C325 1.408 . S
C329 C328 1.404 . S
C329 H341 0.930 . S
C330 C326 1.524 . S
C330 H342 0.956 . S
C330 H343 0.961 . S
C330 H344 0.961 . S
C331 C328 1.539 . S
C331 H345 0.958 . S
C331 H346 0.961 . S
C331 H347 0.960 . S
H332 C316 0.931 . S
H333 C321 0.929 . S
H334 C322 0.960 . S
H335 C322 0.962 . S
H336 C322 0.960 . S
H337 C323 0.961 . S
H338 C323 0.961 . S
H339 C323 0.961 . S
H340 C324 0.936 . S
H341 C329 0.930 . S
H342 C330 0.956 . S
H343 C330 0.961 . S
H344 C330 0.961 . S
H345 C331 0.958 . S
H346 C331 0.961 . S
H347 C331 0.960 . S
C348 C349 1.391 . S
C348 C350 1.394 . S
C348 H364 0.931 . S
C349 C348 1.391 . S
C349 C353 1.376 . S
C350 C348 1.394 . S
C350 C351 1.369 . S
C350 C354 1.531 . S
C351 C350 1.369 . S
C351 C352 1.410 . S
C351 C359 1.503 . S
C352 C351 1.410 . S
C352 C353 1.392 . S
C352 C355 1.511 . S
C353 C349 1.376 . S
C353 C352 1.392 . S
C353 H365 0.929 . S
C354 C350 1.531 . S
C354 H366 0.960 . S
C354 H367 0.962 . S
C354 H368 0.960 . S
C355 C352 1.511 . S
C355 H369 0.961 . S
C355 H370 0.961 . S
C355 H371 0.961 . S
C356 C357 1.370 . S
C356 C358 1.363 . S
C356 H372 0.931 . S
C357 C356 1.370 . S
C357 C361 1.408 . S
C358 C356 1.363 . S
C358 C359 1.370 . S
C358 C362 1.524 . S
C359 C351 1.503 . S
C359 C358 1.370 . S
C359 C360 1.403 . S
C360 C359 1.403 . S
C360 C361 1.404 . S
C360 C363 1.539 . S
C361 C357 1.408 . S
C361 C360 1.404 . S
C361 H373 0.930 . S
C362 C358 1.524 . S
C362 H374 0.956 . S
C362 H375 0.961 . S
C362 H376 0.961 . S
C363 C360 1.539 . S
C363 H377 0.958 . S
C363 H378 0.961 . S
C363 H379 0.960 . S
H364 C348 0.931 . S
H365 C353 0.929 . S
H366 C354 0.960 . S
H367 C354 0.962 . S
H368 C354 0.960 . S
H369 C355 0.961 . S
H370 C355 0.961 . S
H371 C355 0.961 . S
H372 C356 0.931 . S
H373 C361 0.930 . S
H374 C362 0.956 . S
H375 C362 0.961 . S
H376 C362 0.961 . S
H377 C363 0.958 . S
H378 C363 0.961 . S
H379 C363 0.960 . S
C380 C381 1.391 . S
C380 C382 1.394 . S
C380 H396 0.931 . S
C381 C380 1.391 . S
C381 C385 1.376 . S
C382 C380 1.394 . S
C382 C383 1.369 . S
C382 C386 1.531 . S
C383 C382 1.369 . S
C383 C384 1.410 . S
C383 C391 1.503 . S
C384 C383 1.410 . S
C384 C385 1.392 . S
C384 C387 1.511 . S
C385 C381 1.376 . S
C385 C384 1.392 . S
C385 H397 0.929 . S
C386 C382 1.531 . S
C386 H398 0.960 . S
C386 H399 0.962 . S
C386 H400 0.960 . S
C387 C384 1.511 . S
C387 H401 0.961 . S
C387 H402 0.961 . S
C387 H403 0.961 . S
C388 C389 1.370 . S
C388 C390 1.363 . S
C388 H404 0.931 . S
C389 C388 1.370 . S
C389 C393 1.408 . S
C390 C388 1.363 . S
C390 C391 1.370 . S
C390 C394 1.524 . S
C391 C383 1.503 . S
C391 C390 1.370 . S
C391 C392 1.403 . S
C392 C391 1.403 . S
C392 C393 1.404 . S
C392 C395 1.539 . S
C393 C389 1.408 . S
C393 C392 1.404 . S
C393 H405 0.930 . S
C394 C390 1.524 . S
C394 H406 0.956 . S
C394 H407 0.961 . S
C394 H408 0.961 . S
C395 C392 1.539 . S
C395 H409 0.958 . S
C395 H410 0.961 . S
C395 H411 0.960 . S
H396 C380 0.931 . S
H397 C385 0.929 . S
H398 C386 0.960 . S
H399 C386 0.962 . S
H400 C386 0.960 . S
H401 C387 0.961 . S
H402 C387 0.961 . S
H403 C387 0.961 . S
H404 C388 0.931 . S
H405 C393 0.930 . S
H406 C394 0.956 . S
H407 C394 0.961 . S
H408 C394 0.961 . S
H409 C395 0.958 . S
H410 C395 0.961 . S
H411 C395 0.960 . S
C412 C413 1.391 . S
C412 C414 1.394 . S
C412 H428 0.931 . S
C413 C412 1.391 . S
C413 C417 1.376 . S
C414 C412 1.394 . S
C414 C415 1.369 . S
C414 C418 1.531 . S
C415 C414 1.369 . S
C415 C416 1.410 . S
C415 C423 1.503 . S
C416 C415 1.410 . S
C416 C417 1.392 . S
C416 C419 1.511 . S
C417 C413 1.376 . S
C417 C416 1.392 . S
C417 H429 0.929 . S
C418 C414 1.531 . S
C418 H430 0.960 . S
C418 H431 0.962 . S
C418 H432 0.960 . S
C419 C416 1.511 . S
C419 H433 0.961 . S
C419 H434 0.961 . S
C419 H435 0.961 . S
C420 C421 1.370 . S
C420 C422 1.363 . S
C420 H436 0.931 . S
C421 C420 1.370 . S
C421 C425 1.408 . S
C422 C420 1.363 . S
C422 C423 1.370 . S
C422 C426 1.524 . S
C423 C415 1.503 . S
C423 C422 1.370 . S
C423 C424 1.403 . S
C424 C423 1.403 . S
C424 C425 1.404 . S
C424 C427 1.539 . S
C425 C421 1.408 . S
C425 C424 1.404 . S
C425 H437 0.930 . S
C426 C422 1.524 . S
C426 H438 0.956 . S
C426 H439 0.961 . S
C426 H440 0.961 . S
C427 C424 1.539 . S
C427 H441 0.958 . S
C427 H442 0.961 . S
C427 H443 0.960 . S
H428 C412 0.931 . S
H429 C417 0.929 . S
H430 C418 0.960 . S
H431 C418 0.962 . S
H432 C418 0.960 . S
H433 C419 0.961 . S
H434 C419 0.961 . S
H435 C419 0.961 . S
H436 C420 0.931 . S
H437 C425 0.930 . S
H438 C426 0.956 . S
H439 C426 0.961 . S
H440 C426 0.961 . S
H441 C427 0.958 . S
H442 C427 0.961 . S
H443 C427 0.960 . S
C444 C445 1.391 . S
C444 C446 1.394 . S
C444 H460 0.931 . S
C445 C444 1.391 . S
C445 C449 1.376 . S
C446 C444 1.394 . S
C446 C447 1.369 . S
C446 C450 1.531 . S
C447 C446 1.369 . S
C447 C448 1.410 . S
C447 C455 1.503 . S
C448 C447 1.410 . S
C448 C449 1.392 . S
C448 C451 1.511 . S
C449 C445 1.376 . S
C449 C448 1.392 . S
C449 H461 0.929 . S
C450 C446 1.531 . S
C450 H462 0.960 . S
C450 H463 0.962 . S
C450 H464 0.960 . S
C451 C448 1.511 . S
C451 H465 0.961 . S
C451 H466 0.961 . S
C451 H467 0.961 . S
C452 C453 1.370 . S
C452 C454 1.363 . S
C452 H468 0.931 . S
C453 C452 1.370 . S
C453 C457 1.408 . S
C454 C452 1.363 . S
C454 C455 1.370 . S
C454 C458 1.524 . S
C455 C447 1.503 . S
C455 C454 1.370 . S
C455 C456 1.403 . S
C456 C455 1.403 . S
C456 C457 1.404 . S
C456 C459 1.539 . S
C457 C453 1.408 . S
C457 C456 1.404 . S
C457 H469 0.930 . S
C458 C454 1.524 . S
C458 H470 0.956 . S
C458 H471 0.961 . S
C458 H472 0.961 . S
C459 C456 1.539 . S
C459 H473 0.958 . S
C459 H474 0.961 . S
C459 H475 0.960 . S
H460 C444 0.931 . S
H461 C449 0.929 . S
H462 C450 0.960 . S
H463 C450 0.962 . S
H464 C450 0.960 . S
H465 C451 0.961 . S
H466 C451 0.961 . S
H467 C451 0.961 . S
H468 C452 0.931 . S
H469 C457 0.930 . S
H470 C458 0.956 . S
H471 C458 0.961 . S
H472 C458 0.961 . S
H473 C459 0.958 . S
H474 C459 0.961 . S
H475 C459 0.960 . S
C476 C477 1.391 . S
C476 C478 1.394 . S
C476 H492 0.931 . S
C477 C476 1.391 . S
C477 C481 1.376 . S
C478 C476 1.394 . S
C478 C479 1.369 . S
C478 C482 1.531 . S
C479 C478 1.369 . S
C479 C480 1.410 . S
C479 C487 1.503 . S
C480 C479 1.410 . S
C480 C481 1.392 . S
C480 C483 1.511 . S
C481 C477 1.376 . S
C481 C480 1.392 . S
C481 H493 0.929 . S
C482 C478 1.531 . S
C482 H494 0.960 . S
C482 H495 0.962 . S
C482 H496 0.960 . S
C483 C480 1.511 . S
C483 H497 0.961 . S
C483 H498 0.961 . S
C483 H499 0.961 . S
C484 C485 1.370 . S
C484 C486 1.363 . S
C484 H500 0.931 . S
C485 C484 1.370 . S
C485 C489 1.408 . S
C486 C484 1.363 . S
C486 C487 1.370 . S
C486 C490 1.524 . S
C487 C479 1.503 . S
C487 C486 1.370 . S
C487 C488 1.403 . S
C488 C487 1.403 . S
C488 C489 1.404 . S
C488 C491 1.539 . S
C489 C485 1.408 . S
C489 C488 1.404 . S
C489 H501 0.930 . S
C490 C486 1.524 . S
C490 H502 0.956 . S
C490 H503 0.961 . S
C490 H504 0.961 . S
C491 C488 1.539 . S
C491 H505 0.958 . S
C491 H506 0.961 . S
C491 H507 0.960 . S
H492 C476 0.931 . S
H493 C481 0.929 . S
H494 C482 0.960 . S
H495 C482 0.962 . S
H496 C482 0.960 . S
H497 C483 0.961 . S
H498 C483 0.961 . S
H499 C483 0.961 . S
H500 C484 0.931 . S
H501 C489 0.930 . S
H502 C490 0.956 . S
H503 C490 0.961 . S
H504 C490 0.961 . S
H505 C491 0.958 . S
H506 C491 0.961 . S
H507 C491 0.960 . S
C508 C509 1.391 . S
C508 C510 1.394 . S
C508 H524 0.931 . S
C509 C508 1.391 . S
C509 C513 1.376 . S
C510 C508 1.394 . S
C510 C511 1.369 . S
C510 C514 1.531 . S
C511 C510 1.369 . S
C511 C512 1.410 . S
C511 C519 1.503 . S
C512 C511 1.410 . S
C512 C513 1.392 . S
C512 C515 1.511 . S
C513 C509 1.376 . S
C513 C512 1.392 . S
C513 H525 0.929 . S
C514 C510 1.531 . S
C514 H526 0.960 . S
C514 H527 0.962 . S
C514 H528 0.960 . S
C515 C512 1.511 . S
C515 H529 0.961 . S
C515 H530 0.961 . S
C515 H531 0.961 . S
C516 C517 1.370 . S
C516 C518 1.363 . S
C516 H532 0.931 . S
C517 C516 1.370 . S
C517 C521 1.408 . S
C518 C516 1.363 . S
C518 C519 1.370 . S
C518 C522 1.524 . S
C519 C511 1.503 . S
C519 C518 1.370 . S
C519 C520 1.403 . S
C520 C519 1.403 . S
C520 C521 1.404 . S
C520 C523 1.539 . S
C521 C517 1.408 . S
C521 C520 1.404 . S
C521 H533 0.930 . S
C522 C518 1.524 . S
C522 H534 0.956 . S
C522 H535 0.961 . S
C522 H536 0.961 . S
C523 C520 1.539 . S
C523 H537 0.958 . S
C523 H538 0.961 . S
C523 H539 0.960 . S
H524 C508 0.931 . S
H525 C513 0.929 . S
H526 C514 0.960 . S
H527 C514 0.962 . S
H528 C514 0.960 . S
H529 C515 0.961 . S
H530 C515 0.961 . S
H531 C515 0.961 . S
H532 C516 0.931 . S
H533 C521 0.930 . S
H534 C522 0.956 . S
H535 C522 0.961 . S
H536 C522 0.961 . S
H537 C523 0.958 . S
H538 C523 0.961 . S
H539 C523 0.960 . S
C540 C541 1.391 . S
C540 C542 1.394 . S
C540 H556 0.931 . S
C541 C540 1.391 . S
C541 C545 1.376 . S
C542 C540 1.394 . S
C542 C543 1.369 . S
C542 C546 1.531 . S
C543 C542 1.369 . S
C543 C544 1.410 . S
C543 C551 1.503 . S
C544 C543 1.410 . S
C544 C545 1.392 . S
C544 C547 1.511 . S
C545 C541 1.376 . S
C545 C544 1.392 . S
C545 H557 0.929 . S
C546 C542 1.531 . S
C546 H558 0.960 . S
C546 H559 0.962 . S
C546 H560 0.960 . S
C547 C544 1.511 . S
C547 H561 0.961 . S
C547 H562 0.961 . S
C547 H563 0.961 . S
C548 C549 1.370 . S
C548 C550 1.363 . S
C548 H564 0.931 . S
C549 C548 1.370 . S
C549 C553 1.408 . S
C550 C548 1.363 . S
C550 C551 1.370 . S
C550 C554 1.524 . S
C551 C543 1.503 . S
C551 C550 1.370 . S
C551 C552 1.403 . S
C552 C551 1.403 . S
C552 C553 1.404 . S
C552 C555 1.539 . S
C553 C549 1.408 . S
C553 C552 1.404 . S
C553 H565 0.930 . S
C554 C550 1.524 . S
C554 H566 0.956 . S
C554 H567 0.961 . S
C554 H568 0.961 . S
C555 C552 1.539 . S
C555 H569 0.958 . S
C555 H570 0.961 . S
C555 H571 0.960 . S
H556 C540 0.931 . S
H557 C545 0.929 . S
H558 C546 0.960 . S
H559 C546 0.962 . S
H560 C546 0.960 . S
H561 C547 0.961 . S
H562 C547 0.961 . S
H563 C547 0.961 . S
H564 C548 0.931 . S
H565 C553 0.930 . S
H566 C554 0.956 . S
H567 C554 0.961 . S
H568 C554 0.961 . S
H569 C555 0.958 . S
H570 C555 0.961 . S
H571 C555 0.960 . S
C572 C573 1.391 . S
C572 C574 1.394 . S
C572 H588 0.931 . S
C573 C572 1.391 . S
C573 C577 1.376 . S
C574 C572 1.394 . S
C574 C575 1.369 . S
C574 C578 1.531 . S
C575 C574 1.369 . S
C575 C576 1.410 . S
C575 C583 1.503 . S
C576 C575 1.410 . S
C576 C577 1.392 . S
C576 C579 1.511 . S
C577 C573 1.376 . S
C577 C576 1.392 . S
C577 H589 0.929 . S
C578 C574 1.531 . S
C578 H590 0.960 . S
C578 H591 0.962 . S
C578 H592 0.960 . S
C579 C576 1.511 . S
C579 H593 0.961 . S
C579 H594 0.961 . S
C579 H595 0.961 . S
C580 C581 1.370 . S
C580 C582 1.363 . S
C580 H596 0.931 . S
C581 C580 1.370 . S
C581 C585 1.408 . S
C582 C580 1.363 . S
C582 C583 1.370 . S
C582 C586 1.524 . S
C583 C575 1.503 . S
C583 C582 1.370 . S
C583 C584 1.403 . S
C584 C583 1.403 . S
C584 C585 1.404 . S
C584 C587 1.539 . S
C585 C581 1.408 . S
C585 C584 1.404 . S
C585 H597 0.930 . S
C586 C582 1.524 . S
C586 H598 0.956 . S
C586 H599 0.961 . S
C586 H600 0.961 . S
C587 C584 1.539 . S
C587 H601 0.958 . S
C587 H602 0.961 . S
C587 H603 0.960 . S
H588 C572 0.931 . S
H589 C577 0.929 . S
H590 C578 0.960 . S
H591 C578 0.962 . S
H592 C578 0.960 . S
H593 C579 0.961 . S
H594 C579 0.961 . S
H595 C579 0.961 . S
H596 C580 0.931 . S
H597 C585 0.930 . S
H598 C586 0.956 . S
H599 C586 0.961 . S
H600 C586 0.961 . S
H601 C587 0.958 . S
H602 C587 0.961 . S
H603 C587 0.960 . S
C604 C605 1.391 . S
C604 C606 1.394 . S
C604 H620 0.931 . S
C605 C604 1.391 . S
C605 C609 1.376 . S
C606 C604 1.394 . S
C606 C607 1.369 . S
C606 C610 1.531 . S
C607 C606 1.369 . S
C607 C608 1.410 . S
C607 C615 1.503 . S
C608 C607 1.410 . S
C608 C609 1.392 . S
C608 C611 1.511 . S
C609 C605 1.376 . S
C609 C608 1.392 . S
C609 H621 0.929 . S
C610 C606 1.531 . S
C610 H622 0.960 . S
C610 H623 0.962 . S
C610 H624 0.960 . S
C611 C608 1.511 . S
C611 H625 0.961 . S
C611 H626 0.961 . S
C611 H627 0.961 . S
C612 C613 1.370 . S
C612 C614 1.363 . S
C612 H628 0.931 . S
C613 C612 1.370 . S
C613 C617 1.408 . S
C614 C612 1.363 . S
C614 C615 1.370 . S
C614 C618 1.524 . S
C615 C607 1.503 . S
C615 C614 1.370 . S
C615 C616 1.403 . S
C616 C615 1.403 . S
C616 C617 1.404 . S
C616 C619 1.539 . S
C617 C613 1.408 . S
C617 C616 1.404 . S
C617 H629 0.930 . S
C618 C614 1.524 . S
C618 H630 0.956 . S
C618 H631 0.961 . S
C618 H632 0.961 . S
C619 C616 1.539 . S
C619 H633 0.958 . S
C619 H634 0.961 . S
C619 H635 0.960 . S
H620 C604 0.931 . S
H621 C609 0.929 . S
H622 C610 0.960 . S
H623 C610 0.962 . S
H624 C610 0.960 . S
H625 C611 0.961 . S
H626 C611 0.961 . S
H627 C611 0.961 . S
H628 C612 0.931 . S
H629 C617 0.930 . S
H630 C618 0.956 . S
H631 C618 0.961 . S
H632 C618 0.961 . S
H633 C619 0.958 . S
H634 C619 0.961 . S
H635 C619 0.960 . S
C636 C637 1.391 . S
C636 C638 1.394 . S
C636 H652 0.931 . S
C637 C636 1.391 . S
C637 C641 1.376 . S
C638 C636 1.394 . S
C638 C639 1.369 . S
C638 C642 1.531 . S
C639 C638 1.369 . S
C639 C640 1.410 . S
C639 C647 1.503 . S
C640 C639 1.410 . S
C640 C641 1.392 . S
C640 C643 1.511 . S
C641 C637 1.376 . S
C641 C640 1.392 . S
C641 H653 0.929 . S
C642 C638 1.531 . S
C642 H654 0.960 . S
C642 H655 0.962 . S
C642 H656 0.960 . S
C643 C640 1.511 . S
C643 H657 0.961 . S
C643 H658 0.961 . S
C643 H659 0.961 . S
C644 C645 1.370 . S
C644 C646 1.363 . S
C644 H660 0.931 . S
C645 C644 1.370 . S
C645 C649 1.408 . S
C646 C644 1.363 . S
C646 C647 1.370 . S
C646 C650 1.524 . S
C647 C639 1.503 . S
C647 C646 1.370 . S
C647 C648 1.403 . S
C648 C647 1.403 . S
C648 C649 1.404 . S
C648 C651 1.539 . S
C649 C645 1.408 . S
C649 C648 1.404 . S
C649 H661 0.930 . S
C650 C646 1.524 . S
C650 H662 0.956 . S
C650 H663 0.961 . S
C650 H664 0.961 . S
C651 C648 1.539 . S
C651 H665 0.958 . S
C651 H666 0.961 . S
C651 H667 0.960 . S
H652 C636 0.931 . S
H653 C641 0.929 . S
H654 C642 0.960 . S
H655 C642 0.962 . S
H656 C642 0.960 . S
H657 C643 0.961 . S
H658 C643 0.961 . S
H659 C643 0.961 . S
H660 C644 0.931 . S
H661 C649 0.930 . S
H662 C650 0.956 . S
H663 C650 0.961 . S
H664 C650 0.961 . S
H665 C651 0.958 . S
H666 C651 0.961 . S
H667 C651 0.960 . S
C668 C669 1.391 . S
C668 C670 1.394 . S
C668 H684 0.931 . S
C669 C668 1.391 . S
C669 C673 1.376 . S
C670 C668 1.394 . S
C670 C671 1.369 . S
C670 C674 1.531 . S
C671 C670 1.369 . S
C671 C672 1.410 . S
C671 C679 1.503 . S
C672 C671 1.410 . S
C672 C673 1.392 . S
C672 C675 1.511 . S
C673 C669 1.376 . S
C673 C672 1.392 . S
C673 H685 0.929 . S
C674 C670 1.531 . S
C674 H686 0.960 . S
C674 H687 0.962 . S
C674 H688 0.960 . S
C675 C672 1.511 . S
C675 H689 0.961 . S
C675 H690 0.961 . S
C675 H691 0.961 . S
C676 C677 1.370 . S
C676 C678 1.363 . S
C676 H692 0.931 . S
C677 C676 1.370 . S
C677 C681 1.408 . S
C678 C676 1.363 . S
C678 C679 1.370 . S
C678 C682 1.524 . S
C679 C671 1.503 . S
C679 C678 1.370 . S
C679 C680 1.403 . S
C680 C679 1.403 . S
C680 C681 1.404 . S
C680 C683 1.539 . S
C681 C677 1.408 . S
C681 C680 1.404 . S
C681 H693 0.930 . S
C682 C678 1.524 . S
C682 H694 0.956 . S
C682 H695 0.961 . S
C682 H696 0.961 . S
C683 C680 1.539 . S
C683 H697 0.958 . S
C683 H698 0.961 . S
C683 H699 0.960 . S
H684 C668 0.931 . S
H685 C673 0.929 . S
H686 C674 0.960 . S
H687 C674 0.962 . S
H688 C674 0.960 . S
H689 C675 0.961 . S
H690 C675 0.961 . S
H691 C675 0.961 . S
H692 C676 0.931 . S
H693 C681 0.930 . S
H694 C682 0.956 . S
H695 C682 0.961 . S
H696 C682 0.961 . S
H697 C683 0.958 . S
H698 C683 0.961 . S
H699 C683 0.960 . S
C700 C701 1.391 . S
C700 C702 1.394 . S
C700 H716 0.931 . S
C701 C700 1.391 . S
C701 C705 1.376 . S
C702 C700 1.394 . S
C702 C703 1.369 . S
C702 C706 1.531 . S
C703 C702 1.369 . S
C703 C704 1.410 . S
C703 C711 1.503 . S
C704 C703 1.410 . S
C704 C705 1.392 . S
C704 C707 1.511 . S
C705 C701 1.376 . S
C705 C704 1.392 . S
C705 H717 0.929 . S
C706 C702 1.531 . S
C706 H718 0.960 . S
C706 H719 0.962 . S
C706 H720 0.960 . S
C707 C704 1.511 . S
C707 H721 0.961 . S
C707 H722 0.961 . S
C707 H723 0.961 . S
C708 C709 1.370 . S
C708 C710 1.363 . S
C708 H724 0.931 . S
C709 C708 1.370 . S
C709 C713 1.408 . S
C710 C708 1.363 . S
C710 C711 1.370 . S
C710 C714 1.524 . S
C711 C703 1.503 . S
C711 C710 1.370 . S
C711 C712 1.403 . S
C712 C711 1.403 . S
C712 C713 1.404 . S
C712 C715 1.539 . S
C713 C709 1.408 . S
C713 C712 1.404 . S
C713 H725 0.930 . S
C714 C710 1.524 . S
C714 H726 0.956 . S
C714 H727 0.961 . S
C714 H728 0.961 . S
C715 C712 1.539 . S
C715 H729 0.958 . S
C715 H730 0.961 . S
C715 H731 0.960 . S
H716 C700 0.931 . S
H717 C705 0.929 . S
H718 C706 0.960 . S
H719 C706 0.962 . S
H720 C706 0.960 . S
H721 C707 0.961 . S
H722 C707 0.961 . S
H723 C707 0.961 . S
H724 C708 0.931 . S
H725 C713 0.930 . S
H726 C714 0.956 . S
H727 C714 0.961 . S
H728 C714 0.961 . S
H729 C715 0.958 . S
H730 C715 0.961 . S
H731 C715 0.960 . S
C732 C733 1.391 . S
C732 C734 1.394 . S
C732 H748 0.931 . S
C733 C732 1.391 . S
C733 C737 1.376 1_455 S
C734 C732 1.394 . S
C734 C735 1.369 1_455 S
C734 C738 1.531 . S
C735 C734 1.369 1_655 S
C735 C736 1.410 . S
C735 C743 1.503 . S
C736 C735 1.410 . S
C736 C737 1.392 . S
C736 C739 1.511 . S
C737 C733 1.376 1_655 S
C737 C736 1.392 . S
C737 H749 0.929 . S
C738 C734 1.531 . S
C738 H750 0.960 . S
C738 H751 0.962 . S
C738 H752 0.960 . S
C739 C736 1.511 . S
C739 H753 0.961 . S
C739 H754 0.961 . S
C739 H755 0.961 . S
C740 C741 1.370 1_455 S
C740 C742 1.363 . S
C740 H756 0.931 . S
C741 C740 1.370 1_655 S
C741 C745 1.408 . S
C742 C740 1.363 . S
C742 C743 1.370 1_455 S
C742 C746 1.524 . S
C743 C735 1.503 . S
C743 C742 1.370 1_655 S
C743 C744 1.403 . S
C744 C743 1.403 . S
C744 C745 1.404 . S
C744 C747 1.539 . S
C745 C741 1.408 . S
C745 C744 1.404 . S
C745 H757 0.930 . S
C746 C742 1.524 . S
C746 H758 0.956 . S
C746 H759 0.961 . S
C746 H760 0.961 . S
C747 C744 1.539 . S
C747 H761 0.958 . S
C747 H762 0.961 . S
C747 H763 0.960 . S
H748 C732 0.931 . S
H749 C737 0.929 . S
H750 C738 0.960 . S
H751 C738 0.962 . S
H752 C738 0.960 . S
H753 C739 0.961 . S
H754 C739 0.961 . S
H755 C739 0.961 . S
H756 C740 0.931 . S
H757 C745 0.930 . S
H758 C746 0.956 . S
H759 C746 0.961 . S
H760 C746 0.961 . S
H761 C747 0.958 . S
H762 C747 0.961 . S
H763 C747 0.960 . S
C764 C765 1.391 . S
C764 C766 1.394 . S
C764 H780 0.931 . S
C765 C764 1.391 . S
C765 C769 1.376 . S
C766 C764 1.394 . S
C766 C767 1.369 . S
C766 C770 1.531 . S
C767 C766 1.369 . S
C767 C768 1.410 . S
C767 C775 1.503 . S
C768 C767 1.410 . S
C768 C769 1.392 . S
C768 C771 1.511 . S
C769 C765 1.376 . S
C769 C768 1.392 . S
C769 H781 0.929 . S
C770 C766 1.531 . S
C770 H782 0.960 . S
C770 H783 0.962 . S
C770 H784 0.960 . S
C771 C768 1.511 . S
C771 H785 0.961 . S
C771 H786 0.961 . S
C771 H787 0.961 . S
C772 C773 1.370 . S
C772 C774 1.363 . S
C772 H788 0.931 . S
C773 C772 1.370 . S
C773 C777 1.408 . S
C774 C772 1.363 . S
C774 C775 1.370 . S
C774 C778 1.524 . S
C775 C767 1.503 . S
C775 C774 1.370 . S
C775 C776 1.403 . S
C776 C775 1.403 . S
C776 C777 1.404 . S
C776 C779 1.539 . S
C777 C773 1.408 . S
C777 C776 1.404 . S
C777 H789 0.930 . S
C778 C774 1.524 . S
C778 H790 0.956 . S
C778 H791 0.961 . S
C778 H792 0.961 . S
C779 C776 1.539 . S
C779 H793 0.958 . S
C779 H794 0.961 . S
C779 H795 0.960 . S
H780 C764 0.931 . S
H781 C769 0.929 . S
H782 C770 0.960 . S
H783 C770 0.962 . S
H784 C770 0.960 . S
H785 C771 0.961 . S
H786 C771 0.961 . S
H787 C771 0.961 . S
H788 C772 0.931 . S
H789 C777 0.930 . S
H790 C778 0.956 . S
H791 C778 0.961 . S
H792 C778 0.961 . S
H793 C779 0.958 . S
H794 C779 0.961 . S
H795 C779 0.960 . S
C796 C797 1.391 1_565 S
C796 C798 1.394 . S
C796 H812 0.931 . S
C797 C796 1.391 1_545 S
C797 C801 1.376 . S
C798 C796 1.394 . S
C798 C799 1.369 1_565 S
C798 C802 1.531 . S
C799 C798 1.369 1_545 S
C799 C800 1.410 . S
C799 C807 1.503 . S
C800 C799 1.410 . S
C800 C801 1.392 . S
C800 C803 1.511 . S
C801 C797 1.376 . S
C801 C800 1.392 . S
C801 H813 0.929 . S
C802 C798 1.531 . S
C802 H814 0.960 . S
C802 H815 0.962 . S
C802 H816 0.960 . S
C803 C800 1.511 . S
C803 H817 0.961 . S
C803 H818 0.961 . S
C803 H819 0.961 . S
C804 C805 1.370 . S
C804 C806 1.363 . S
C804 H820 0.931 . S
C805 C804 1.370 . S
C805 C809 1.408 1_565 S
C806 C804 1.363 . S
C806 C807 1.370 1_565 S
C806 C810 1.524 . S
C807 C799 1.503 . S
C807 C806 1.370 1_545 S
C807 C808 1.403 . S
C808 C807 1.403 . S
C808 C809 1.404 . S
C808 C811 1.539 . S
C809 C805 1.408 1_545 S
C809 C808 1.404 . S
C809 H821 0.930 . S
C810 C806 1.524 . S
C810 H822 0.956 . S
C810 H823 0.961 . S
C810 H824 0.961 . S
C811 C808 1.539 . S
C811 H825 0.958 . S
C811 H826 0.961 . S
C811 H827 0.960 . S
H812 C796 0.931 . S
H813 C801 0.929 . S
H814 C802 0.960 . S
H815 C802 0.962 . S
H816 C802 0.960 . S
H817 C803 0.961 . S
H818 C803 0.961 . S
H819 C803 0.961 . S
H820 C804 0.931 . S
H821 C809 0.930 . S
H822 C810 0.956 . S
H823 C810 0.961 . S
H824 C810 0.961 . S
H825 C811 0.958 . S
H826 C811 0.961 . S
H827 C811 0.960 . S
C828 C829 1.391 . S
C828 C830 1.394 . S
C828 H844 0.931 . S
C829 C828 1.391 . S
C829 C833 1.376 . S
C830 C828 1.394 . S
C830 C831 1.369 . S
C830 C834 1.531 . S
C831 C830 1.369 . S
C831 C832 1.410 . S
C831 C839 1.503 . S
C832 C831 1.410 . S
C832 C833 1.392 . S
C832 C835 1.511 . S
C833 C829 1.376 . S
C833 C832 1.392 . S
C833 H845 0.929 . S
C834 C830 1.531 . S
C834 H846 0.960 . S
C834 H847 0.962 . S
C834 H848 0.960 . S
C835 C832 1.511 . S
C835 H849 0.961 . S
C835 H850 0.961 1_554 S
C835 H851 0.961 . S
C836 C837 1.370 . S
C836 C838 1.363 . S
C836 H852 0.931 . S
C837 C836 1.370 . S
C837 C841 1.408 1_556 S
C838 C836 1.363 . S
C838 C839 1.370 1_556 S
C838 C842 1.524 . S
C839 C831 1.503 . S
C839 C838 1.370 1_554 S
C839 C840 1.403 . S
C840 C839 1.403 . S
C840 C841 1.404 . S
C840 C843 1.539 . S
C841 C837 1.408 1_554 S
C841 C840 1.404 . S
C841 H853 0.930 . S
C842 C838 1.524 . S
C842 H854 0.956 . S
C842 H855 0.961 . S
C842 H856 0.961 . S
C843 C840 1.539 . S
C843 H857 0.958 . S
C843 H858 0.961 . S
C843 H859 0.960 . S
H844 C828 0.931 . S
H845 C833 0.929 . S
H846 C834 0.960 . S
H847 C834 0.962 . S
H848 C834 0.960 . S
H849 C835 0.961 . S
H850 C835 0.961 1_556 S
H851 C835 0.961 . S
H852 C836 0.931 . S
H853 C841 0.930 . S
H854 C842 0.956 . S
H855 C842 0.961 . S
H856 C842 0.961 . S
H857 C843 0.958 . S
H858 C843 0.961 . S
H859 C843 0.960 . S
C860 C861 1.391 . S
C860 C862 1.394 . S
C860 H876 0.931 . S
C861 C860 1.391 . S
C861 C865 1.376 . S
C862 C860 1.394 . S
C862 C863 1.369 . S
C862 C866 1.531 . S
C863 C862 1.369 . S
C863 C864 1.410 . S
C863 C871 1.503 1_554 S
C864 C863 1.410 . S
C864 C865 1.392 . S
C864 C867 1.520 . S
C865 C861 1.376 . S
C865 C864 1.392 . S
C865 H877 0.929 . S
C866 C862 1.531 . S
C866 H878 0.960 1_554 S
C866 H879 0.962 . S
C866 H880 0.961 . S
C867 C864 1.520 . S
C867 H881 0.980 . S
C867 H882 0.961 . S
C867 H883 0.933 1_554 S
C868 C869 1.370 . S
C868 C870 1.363 1_556 S
C868 H884 0.931 1_556 S
C869 C868 1.370 . S
C869 C873 1.408 . S
C870 C868 1.363 1_554 S
C870 C871 1.370 1_554 S
C870 C874 1.524 . S
C871 C863 1.503 1_556 S
C871 C870 1.370 1_556 S
C871 C872 1.403 . S
C872 C871 1.403 . S
C872 C873 1.404 . S
C872 C875 1.539 . S
C873 C869 1.408 . S
C873 C872 1.404 . S
C873 H885 0.930 . S
C874 C870 1.524 . S
C874 H886 0.956 . S
C874 H887 0.961 . S
C874 H888 0.961 . S
C875 C872 1.539 . S
C875 H889 0.958 . S
C875 H890 0.961 . S
C875 H891 0.960 . S
H876 C860 0.931 . S
H877 C865 0.929 . S
H878 C866 0.960 1_556 S
H879 C866 0.962 . S
H880 C866 0.961 . S
H881 C867 0.980 . S
H882 C867 0.961 . S
H883 C867 0.933 1_556 S
H884 C868 0.931 1_554 S
H885 C873 0.930 . S
H886 C874 0.956 . S
H887 C874 0.961 . S
H888 C874 0.961 . S
H889 C875 0.958 . S
H890 C875 0.961 . S
H891 C875 0.960 . S
C892 C893 1.391 . S
C892 C894 1.394 . S
C892 H908 0.931 . S
C893 C892 1.391 . S
C893 C897 1.376 . S
C894 C892 1.394 . S
C894 C895 1.369 . S
C894 C898 1.531 . S
C895 C894 1.369 . S
C895 C896 1.410 . S
C895 C903 1.503 1_554 S
C896 C895 1.410 . S
C896 C897 1.392 . S
C896 C899 1.511 . S
C897 C893 1.376 . S
C897 C896 1.392 . S
C897 H909 0.929 . S
C898 C894 1.531 . S
C898 H910 0.960 . S
C898 H911 0.962 . S
C898 H912 0.960 . S
C899 C896 1.511 . S
C899 H913 0.961 1_554 S
C899 H914 0.961 1_554 S
C899 H915 0.961 . S
C900 C901 1.370 . S
C900 C902 1.363 . S
C900 H916 0.931 . S
C901 C900 1.370 . S
C901 C905 1.408 . S
C902 C900 1.363 . S
C902 C903 1.370 . S
C902 C906 1.524 . S
C903 C895 1.503 1_556 S
C903 C902 1.370 . S
C903 C904 1.403 1_556 S
C904 C903 1.403 1_554 S
C904 C905 1.404 1_554 S
C904 C907 1.539 . S
C905 C901 1.408 . S
C905 C904 1.404 1_556 S
C905 H917 0.930 1_556 S
C906 C902 1.524 . S
C906 H918 0.956 . S
C906 H919 0.961 . S
C906 H920 0.961 . S
C907 C904 1.539 . S
C907 H921 0.958 . S
C907 H922 0.961 . S
C907 H923 0.960 . S
H908 C892 0.931 . S
H909 C897 0.929 . S
H910 C898 0.960 . S
H911 C898 0.962 . S
H912 C898 0.960 . S
H913 C899 0.961 1_556 S
H914 C899 0.961 1_556 S
H915 C899 0.961 . S
H916 C900 0.931 . S
H917 C905 0.930 1_554 S
H918 C906 0.956 . S
H919 C906 0.961 . S
H920 C906 0.961 . S
H921 C907 0.958 . S
H922 C907 0.961 . S
H923 C907 0.960 . S
C924 C925 1.391 . S
C924 C926 1.394 . S
C924 H940 0.931 . S
C925 C924 1.391 . S
C925 C929 1.376 . S
C926 C924 1.394 . S
C926 C927 1.369 . S
C926 C930 1.531 . S
C927 C926 1.369 . S
C927 C928 1.410 . S
C927 C935 1.509 . S
C928 C927 1.410 . S
C928 C929 1.392 . S
C928 C931 1.511 . S
C929 C925 1.376 . S
C929 C928 1.392 . S
C929 H941 0.929 . S
C930 C926 1.531 . S
C930 H942 0.960 . S
C930 H943 0.962 . S
C930 H944 0.960 . S
C931 C928 1.511 . S
C931 H945 0.961 1_556 S
C931 H946 0.961 1_556 S
C931 H947 0.961 . S
C932 C933 1.370 . S
C932 C934 1.363 . S
C932 H948 0.931 . S
C933 C932 1.370 . S
C933 C937 1.368 1_554 S
C934 C932 1.363 . S
C934 C935 1.359 1_554 S
C934 C938 1.524 . S
C935 C927 1.509 . S
C935 C934 1.359 1_556 S
C935 C936 1.409 . S
C936 C935 1.409 . S
C936 C937 1.423 . S
C936 C939 1.539 . S
C937 C933 1.368 1_556 S
C937 C936 1.423 . S
C937 H949 0.951 . S
C938 C934 1.524 . S
C938 H950 0.956 . S
C938 H951 0.961 . S
C938 H952 0.961 . S
C939 C936 1.539 . S
C939 H953 0.958 . S
C939 H954 0.961 . S
C939 H955 0.960 . S
H940 C924 0.931 . S
H941 C929 0.929 . S
H942 C930 0.960 . S
H943 C930 0.962 . S
H944 C930 0.960 . S
H945 C931 0.961 1_554 S
H946 C931 0.961 1_554 S
H947 C931 0.961 . S
H948 C932 0.931 . S
H949 C937 0.951 . S
H950 C938 0.956 . S
H951 C938 0.961 . S
H952 C938 0.961 . S
H953 C939 0.958 . S
H954 C939 0.961 . S
H955 C939 0.960 . S
C956 C957 1.391 . S
C956 C958 1.394 . S
C956 H972 0.931 . S
C957 C956 1.391 . S
C957 C961 1.376 . S
C958 C956 1.394 . S
C958 C959 1.369 . S
C958 C962 1.531 . S
C959 C958 1.369 . S
C959 C960 1.410 . S
C959 C967 1.503 1_554 S
C960 C959 1.410 . S
C960 C961 1.392 . S
C960 C963 1.511 . S
C961 C957 1.376 . S
C961 C960 1.392 . S
C961 H973 0.929 . S
C962 C958 1.531 . S
C962 H974 0.960 . S
C962 H975 0.962 1_554 S
C962 H976 0.960 . S
C963 C960 1.511 . S
C963 H977 0.952 1_554 S
C963 H978 0.961 1_554 S
C963 H979 0.961 . S
C964 C965 1.370 . S
C964 C966 1.363 . S
C964 H980 0.931 . S
C965 C964 1.370 . S
C965 C969 1.408 1_556 S
C966 C964 1.363 . S
C966 C967 1.370 . S
C966 C970 1.524 . S
C967 C959 1.503 1_556 S
C967 C966 1.370 . S
C967 C968 1.403 1_556 S
C968 C967 1.403 1_554 S
C968 C969 1.404 . S
C968 C971 1.539 . S
C969 C965 1.408 1_554 S
C969 C968 1.404 . S
C969 H981 0.930 . S
C970 C966 1.524 . S
C970 H982 0.956 . S
C970 H983 0.961 . S
C970 H984 0.961 . S
C971 C968 1.539 . S
C971 H985 0.958 . S
C971 H986 0.961 . S
C971 H987 0.960 . S
H972 C956 0.931 . S
H973 C961 0.929 . S
H974 C962 0.960 . S
H975 C962 0.962 1_556 S
H976 C962 0.960 . S
H977 C963 0.952 1_556 S
H978 C963 0.961 1_556 S
H979 C963 0.961 . S
H980 C964 0.931 . S
H981 C969 0.930 . S
H982 C970 0.956 . S
H983 C970 0.961 . S
H984 C970 0.961 . S
H985 C971 0.958 . S
H986 C971 0.961 . S
H987 C971 0.960 . S
C988 C989 1.391 . S
C988 C990 1.394 . S
C988 H1004 0.931 . S
C989 C988 1.391 . S
C989 C993 1.376 . S
C990 C988 1.394 . S
C990 C991 1.369 . S
C990 C994 1.531 . S
C991 C990 1.369 . S
C991 C992 1.410 1_556 S
C991 C999 1.503 1_556 S
C992 C991 1.410 1_554 S
C992 C993 1.392 1_554 S
C992 C995 1.511 . S
C993 C989 1.376 . S
C993 C992 1.392 1_556 S
C993 H1005 0.929 . S
C994 C990 1.531 . S
C994 H1006 0.960 . S
C994 H1007 0.962 . S
C994 H1008 0.960 . S
C995 C992 1.511 . S
C995 H1009 0.961 . S
C995 H1010 0.961 . S
C995 H1011 0.961 . S
C996 C997 1.370 . S
C996 C998 1.363 1_554 S
C996 H1012 0.931 1_554 S
C997 C996 1.370 . S
C997 C1001 1.408 . S
C998 C996 1.363 1_556 S
C998 C999 1.370 1_556 S
C998 C1002 1.524 . S
C999 C991 1.503 1_554 S
C999 C998 1.370 1_554 S
C999 C1000 1.403 . S
C1000 C999 1.403 . S
C1000 C1001 1.404 . S
C1000 C1003 1.539 . S
C1001 C997 1.408 . S
C1001 C1000 1.404 . S
C1001 H1013 0.930 . S
C1002 C998 1.524 . S
C1002 H1014 0.956 . S
C1002 H1015 0.961 . S
C1002 H1016 0.961 . S
C1003 C1000 1.539 . S
C1003 H1017 0.958 . S
C1003 H1018 0.961 . S
C1003 H1019 0.960 . S
H1004 C988 0.931 . S
H1005 C993 0.929 . S
H1006 C994 0.960 . S
H1007 C994 0.962 . S
H1008 C994 0.960 . S
H1009 C995 0.961 . S
H1010 C995 0.961 . S
H1011 C995 0.961 . S
H1012 C996 0.931 1_556 S
H1013 C1001 0.930 . S
H1014 C1002 0.956 . S
H1015 C1002 0.961 . S
H1016 C1002 0.961 . S
H1017 C1003 0.958 . S
H1018 C1003 0.961 . S
H1019 C1003 0.960 . S
C1020 C1021 1.391 . S
C1020 C1022 1.394 . S
C1020 H1036 0.931 . S
C1021 C1020 1.391 . S
C1021 C1025 1.376 . S
C1022 C1020 1.394 . S
C1022 C1023 1.369 . S
C1022 C1026 1.531 . S
C1023 C1022 1.369 . S
C1023 C1024 1.410 . S
C1023 C1031 1.503 . S
C1024 C1023 1.410 . S
C1024 C1025 1.392 . S
C1024 C1027 1.511 . S
C1025 C1021 1.376 . S
C1025 C1024 1.392 . S
C1025 H1037 0.929 . S
C1026 C1022 1.531 . S
C1026 H1038 0.960 . S
C1026 H1039 0.962 . S
C1026 H1040 0.960 . S
C1027 C1024 1.511 . S
C1027 H1041 0.961 . S
C1027 H1042 0.961 . S
C1027 H1043 0.961 . S
C1028 C1029 1.370 . S
C1028 C1030 1.363 . S
C1028 H1044 0.931 . S
C1029 C1028 1.370 . S
C1029 C1033 1.408 . S
C1030 C1028 1.363 . S
C1030 C1031 1.370 . S
C1030 C1034 1.524 . S
C1031 C1023 1.503 . S
C1031 C1030 1.370 . S
C1031 C1032 1.403 . S
C1032 C1031 1.403 . S
C1032 C1033 1.404 . S
C1032 C1035 1.539 . S
C1033 C1029 1.408 . S
C1033 C1032 1.404 . S
C1033 H1045 0.930 . S
C1034 C1030 1.524 . S
C1034 H1046 0.956 . S
C1034 H1047 0.961 . S
C1034 H1048 0.961 . S
C1035 C1032 1.539 . S
C1035 H1049 0.958 . S
C1035 H1050 0.961 . S
C1035 H1051 0.960 . S
H1036 C1020 0.931 . S
H1037 C1025 0.929 . S
H1038 C1026 0.960 . S
H1039 C1026 0.962 . S
H1040 C1026 0.960 . S
H1041 C1027 0.961 . S
H1042 C1027 0.961 . S
H1043 C1027 0.961 . S
H1044 C1028 0.931 . S
H1045 C1033 0.930 . S
H1046 C1034 0.956 . S
H1047 C1034 0.961 . S
H1048 C1034 0.961 . S
H1049 C1035 0.958 . S
H1050 C1035 0.961 . S
H1051 C1035 0.960 . S
C1052 C1053 1.391 . S
C1052 C1054 1.394 . S
C1052 H1068 0.931 . S
C1053 C1052 1.391 . S
C1053 C1057 1.376 . S
C1054 C1052 1.394 . S
C1054 C1055 1.369 . S
C1054 C1058 1.531 . S
C1055 C1054 1.369 . S
C1055 C1056 1.410 . S
C1055 C1063 1.503 . S
C1056 C1055 1.410 . S
C1056 C1057 1.392 . S
C1056 C1059 1.511 . S
C1057 C1053 1.376 . S
C1057 C1056 1.392 . S
C1057 H1069 0.929 . S
C1058 C1054 1.531 . S
C1058 H1070 0.960 . S
C1058 H1071 0.962 . S
C1058 H1072 0.960 . S
C1059 C1056 1.511 . S
C1059 H1073 0.961 . S
C1059 H1074 0.961 . S
C1059 H1075 0.961 . S
C1060 C1061 1.370 . S
C1060 C1062 1.363 . S
C1060 H1076 0.931 . S
C1061 C1060 1.370 . S
C1061 C1065 1.408 . S
C1062 C1060 1.363 . S
C1062 C1063 1.370 . S
C1062 C1066 1.524 . S
C1063 C1055 1.503 . S
C1063 C1062 1.370 . S
C1063 C1064 1.403 . S
C1064 C1063 1.403 . S
C1064 C1065 1.404 . S
C1064 C1067 1.539 . S
C1065 C1061 1.408 . S
C1065 C1064 1.404 . S
C1065 H1077 0.930 . S
C1066 C1062 1.524 . S
C1066 H1078 0.956 . S
C1066 H1079 0.961 . S
C1066 H1080 0.961 . S
C1067 C1064 1.539 . S
C1067 H1081 0.958 . S
C1067 H1082 0.961 . S
C1067 H1083 0.960 . S
H1068 C1052 0.931 . S
H1069 C1057 0.929 . S
H1070 C1058 0.960 . S
H1071 C1058 0.962 . S
H1072 C1058 0.960 . S
H1073 C1059 0.961 . S
H1074 C1059 0.961 . S
H1075 C1059 0.961 . S
H1076 C1060 0.931 . S
H1077 C1065 0.930 . S
H1078 C1066 0.956 . S
H1079 C1066 0.961 . S
H1080 C1066 0.961 . S
H1081 C1067 0.958 . S
H1082 C1067 0.961 . S
H1083 C1067 0.960 . S
C1084 C1085 1.391 . S
C1084 C1086 1.394 . S
C1084 H1100 0.931 . S
C1085 C1084 1.391 . S
C1085 C1089 1.376 . S
C1086 C1084 1.394 . S
C1086 C1087 1.369 . S
C1086 C1090 1.531 . S
C1087 C1086 1.369 . S
C1087 C1088 1.410 . S
C1087 C1095 1.503 . S
C1088 C1087 1.410 . S
C1088 C1089 1.392 . S
C1088 C1091 1.511 . S
C1089 C1085 1.376 . S
C1089 C1088 1.392 . S
C1089 H1101 0.929 . S
C1090 C1086 1.531 . S
C1090 H1102 0.960 . S
C1090 H1103 0.962 . S
C1090 H1104 0.960 . S
C1091 C1088 1.511 . S
C1091 H1105 0.961 . S
C1091 H1106 0.961 . S
C1091 H1107 0.961 . S
C1092 C1093 1.370 . S
C1092 C1094 1.363 . S
C1092 H1108 0.931 . S
C1093 C1092 1.370 . S
C1093 C1097 1.408 . S
C1094 C1092 1.363 . S
C1094 C1095 1.370 . S
C1094 C1098 1.524 . S
C1095 C1087 1.503 . S
C1095 C1094 1.370 . S
C1095 C1096 1.403 . S
C1096 C1095 1.403 . S
C1096 C1097 1.404 . S
C1096 C1099 1.539 . S
C1097 C1093 1.408 . S
C1097 C1096 1.404 . S
C1097 H1109 0.930 . S
C1098 C1094 1.524 . S
C1098 H1110 0.956 . S
C1098 H1111 0.961 . S
C1098 H1112 0.961 . S
C1099 C1096 1.539 . S
C1099 H1113 0.958 . S
C1099 H1114 0.961 . S
C1099 H1115 0.960 . S
H1100 C1084 0.931 . S
H1101 C1089 0.929 . S
H1102 C1090 0.960 . S
H1103 C1090 0.962 . S
H1104 C1090 0.960 . S
H1105 C1091 0.961 . S
H1106 C1091 0.961 . S
H1107 C1091 0.961 . S
H1108 C1092 0.931 . S
H1109 C1097 0.930 . S
H1110 C1098 0.956 . S
H1111 C1098 0.961 . S
H1112 C1098 0.961 . S
H1113 C1099 0.958 . S
H1114 C1099 0.961 . S
H1115 C1099 0.960 . S
C1116 C1117 1.391 . S
C1116 C1118 1.394 . S
C1116 H1132 0.931 . S
C1117 C1116 1.391 . S
C1117 C1121 1.376 . S
C1118 C1116 1.394 . S
C1118 C1119 1.369 . S
C1118 C1122 1.531 . S
C1119 C1118 1.369 . S
C1119 C1120 1.410 . S
C1119 C1127 1.503 . S
C1120 C1119 1.410 . S
C1120 C1121 1.392 . S
C1120 C1123 1.511 . S
C1121 C1117 1.376 . S
C1121 C1120 1.392 . S
C1121 H1133 0.929 . S
C1122 C1118 1.531 . S
C1122 H1134 0.960 . S
C1122 H1135 0.962 . S
C1122 H1136 0.960 . S
C1123 C1120 1.511 . S
C1123 H1137 0.961 . S
C1123 H1138 0.961 . S
C1123 H1139 0.961 . S
C1124 C1125 1.370 . S
C1124 C1126 1.363 . S
C1124 H1140 0.931 . S
C1125 C1124 1.370 . S
C1125 C1129 1.408 . S
C1126 C1124 1.363 . S
C1126 C1127 1.370 . S
C1126 C1130 1.524 . S
C1127 C1119 1.503 . S
C1127 C1126 1.370 . S
C1127 C1128 1.403 . S
C1128 C1127 1.403 . S
C1128 C1129 1.404 . S
C1128 C1131 1.539 . S
C1129 C1125 1.408 . S
C1129 C1128 1.404 . S
C1129 H1141 0.930 . S
C1130 C1126 1.524 . S
C1130 H1142 0.956 . S
C1130 H1143 0.961 . S
C1130 H1144 0.961 . S
C1131 C1128 1.539 . S
C1131 H1145 0.958 . S
C1131 H1146 0.961 . S
C1131 H1147 0.960 . S
H1132 C1116 0.931 . S
H1133 C1121 0.929 . S
H1134 C1122 0.960 . S
H1135 C1122 0.962 . S
H1136 C1122 0.960 . S
H1137 C1123 0.961 . S
H1138 C1123 0.961 . S
H1139 C1123 0.961 . S
H1140 C1124 0.931 . S
H1141 C1129 0.930 . S
H1142 C1130 0.956 . S
H1143 C1130 0.961 . S
H1144 C1130 0.961 . S
H1145 C1131 0.958 . S
H1146 C1131 0.961 . S
H1147 C1131 0.960 . S
C1148 C1149 1.391 . S
C1148 C1150 1.394 . S
C1148 H1164 0.931 . S
C1149 C1148 1.391 . S
C1149 C1153 1.376 . S
C1150 C1148 1.394 . S
C1150 C1151 1.369 . S
C1150 C1154 1.531 . S
C1151 C1150 1.369 . S
C1151 C1152 1.410 . S
C1151 C1159 1.503 . S
C1152 C1151 1.410 . S
C1152 C1153 1.392 . S
C1152 C1155 1.511 . S
C1153 C1149 1.376 . S
C1153 C1152 1.392 . S
C1153 H1165 0.929 . S
C1154 C1150 1.531 . S
C1154 H1166 0.960 1_545 S
C1154 H1167 0.962 . S
C1154 H1168 0.960 1_545 S
C1155 C1152 1.511 . S
C1155 H1169 0.961 . S
C1155 H1170 0.961 . S
C1155 H1171 0.961 . S
C1156 C1157 1.370 . S
C1156 C1158 1.363 . S
C1156 H1172 0.931 . S
C1157 C1156 1.370 . S
C1157 C1161 1.408 1_545 S
C1158 C1156 1.363 . S
C1158 C1159 1.370 . S
C1158 C1162 1.524 . S
C1159 C1151 1.503 . S
C1159 C1158 1.370 . S
C1159 C1160 1.403 1_545 S
C1160 C1159 1.403 1_565 S
C1160 C1161 1.404 . S
C1160 C1163 1.539 . S
C1161 C1157 1.408 1_565 S
C1161 C1160 1.404 . S
C1161 H1173 0.930 . S
C1162 C1158 1.524 . S
C1162 H1174 0.956 . S
C1162 H1175 0.961 . S
C1162 H1176 0.961 . S
C1163 C1160 1.539 . S
C1163 H1177 0.958 . S
C1163 H1178 0.961 . S
C1163 H1179 0.960 . S
H1164 C1148 0.931 . S
H1165 C1153 0.929 . S
H1166 C1154 0.960 1_565 S
H1167 C1154 0.962 . S
H1168 C1154 0.960 1_565 S
H1169 C1155 0.961 . S
H1170 C1155 0.961 . S
H1171 C1155 0.961 . S
H1172 C1156 0.931 . S
H1173 C1161 0.930 . S
H1174 C1162 0.956 . S
H1175 C1162 0.961 . S
H1176 C1162 0.961 . S
H1177 C1163 0.958 . S
H1178 C1163 0.961 . S
H1179 C1163 0.960 . S
C1180 C1181 1.391 . S
C1180 C1182 1.394 . S
C1180 H1196 0.931 1_655 S
C1181 C1180 1.391 . S
C1181 C1185 1.376 . S
C1182 C1180 1.394 . S
C1182 C1183 1.369 . S
C1182 C1186 1.531 1_655 S
C1183 C1182 1.369 . S
C1183 C1184 1.410 . S
C1183 C1191 1.503 . S
C1184 C1183 1.410 . S
C1184 C1185 1.392 . S
C1184 C1187 1.511 . S
C1185 C1181 1.376 . S
C1185 C1184 1.392 . S
C1185 H1197 0.929 . S
C1186 C1182 1.531 1_455 S
C1186 H1198 0.960 . S
C1186 H1199 0.962 . S
C1186 H1200 0.960 . S
C1187 C1184 1.511 . S
C1187 H1201 0.961 . S
C1187 H1202 0.961 . S
C1187 H1203 0.961 . S
C1188 C1189 1.370 . S
C1188 C1190 1.363 . S
C1188 H1204 0.931 . S
C1189 C1188 1.370 . S
C1189 C1193 1.408 . S
C1190 C1188 1.363 . S
C1190 C1191 1.370 . S
C1190 C1194 1.524 . S
C1191 C1183 1.503 . S
C1191 C1190 1.370 . S
C1191 C1192 1.403 . S
C1192 C1191 1.403 . S
C1192 C1193 1.404 . S
C1192 C1195 1.539 . S
C1193 C1189 1.408 . S
C1193 C1192 1.404 . S
C1193 H1205 0.930 . S
C1194 C1190 1.524 . S
C1194 H1206 0.956 . S
C1194 H1207 0.961 . S
C1194 H1208 0.961 . S
C1195 C1192 1.539 . S
C1195 H1209 0.958 . S
C1195 H1210 0.961 . S
C1195 H1211 0.960 . S
H1196 C1180 0.931 1_455 S
H1197 C1185 0.929 . S
H1198 C1186 0.960 . S
H1199 C1186 0.962 . S
H1200 C1186 0.960 . S
H1201 C1187 0.961 . S
H1202 C1187 0.961 . S
H1203 C1187 0.961 . S
H1204 C1188 0.931 . S
H1205 C1193 0.930 . S
H1206 C1194 0.956 . S
H1207 C1194 0.961 . S
H1208 C1194 0.961 . S
H1209 C1195 0.958 . S
H1210 C1195 0.961 . S
H1211 C1195 0.960 . S
C1212 C1213 1.391 . S
C1212 C1214 1.394 . S
C1212 H1228 0.931 . S
C1213 C1212 1.391 . S
C1213 C1217 1.376 . S
C1214 C1212 1.394 . S
C1214 C1215 1.369 . S
C1214 C1218 1.531 . S
C1215 C1214 1.369 . S
C1215 C1216 1.410 . S
C1215 C1223 1.503 . S
C1216 C1215 1.410 . S
C1216 C1217 1.392 . S
C1216 C1219 1.511 . S
C1217 C1213 1.376 . S
C1217 C1216 1.392 . S
C1217 H1229 0.929 . S
C1218 C1214 1.531 . S
C1218 H1230 0.960 . S
C1218 H1231 0.962 . S
C1218 H1232 0.960 . S
C1219 C1216 1.511 . S
C1219 H1233 0.961 . S
C1219 H1234 0.961 . S
C1219 H1235 0.961 . S
C1220 C1221 1.370 . S
C1220 C1222 1.363 . S
C1220 H1236 0.931 . S
C1221 C1220 1.370 . S
C1221 C1225 1.408 . S
C1222 C1220 1.363 . S
C1222 C1223 1.370 . S
C1222 C1226 1.524 . S
C1223 C1215 1.503 . S
C1223 C1222 1.370 . S
C1223 C1224 1.403 . S
C1224 C1223 1.403 . S
C1224 C1225 1.404 . S
C1224 C1227 1.539 . S
C1225 C1221 1.408 . S
C1225 C1224 1.404 . S
C1225 H1237 0.930 . S
C1226 C1222 1.524 . S
C1226 H1238 0.956 . S
C1226 H1239 0.961 . S
C1226 H1240 0.961 . S
C1227 C1224 1.539 . S
C1227 H1241 0.958 . S
C1227 H1242 0.961 . S
C1227 H1243 0.960 . S
H1228 C1212 0.931 . S
H1229 C1217 0.929 . S
H1230 C1218 0.960 . S
H1231 C1218 0.962 . S
H1232 C1218 0.960 . S
H1233 C1219 0.961 . S
H1234 C1219 0.961 . S
H1235 C1219 0.961 . S
H1236 C1220 0.931 . S
H1237 C1225 0.930 . S
H1238 C1226 0.956 . S
H1239 C1226 0.961 . S
H1240 C1226 0.961 . S
H1241 C1227 0.958 . S
H1242 C1227 0.961 . S
H1243 C1227 0.960 . S
C1244 C1245 1.391 . S
C1244 C1246 1.394 . S
C1244 H1260 0.931 . S
C1245 C1244 1.391 . S
C1245 C1249 1.376 . S
C1246 C1244 1.394 . S
C1246 C1247 1.369 . S
C1246 C1250 1.531 . S
C1247 C1246 1.369 . S
C1247 C1248 1.410 . S
C1247 C1255 1.503 . S
C1248 C1247 1.410 . S
C1248 C1249 1.392 . S
C1248 C1251 1.511 . S
C1249 C1245 1.376 . S
C1249 C1248 1.392 . S
C1249 H1261 0.929 . S
C1250 C1246 1.531 . S
C1250 H1262 0.960 . S
C1250 H1263 0.962 . S
C1250 H1264 0.960 . S
C1251 C1248 1.511 . S
C1251 H1265 0.961 1_565 S
C1251 H1266 0.961 . S
C1251 H1267 0.961 . S
C1252 C1253 1.370 . S
C1252 C1254 1.351 . S
C1252 H1268 0.931 1_565 S
C1253 C1252 1.370 . S
C1253 C1257 1.408 . S
C1254 C1252 1.351 . S
C1254 C1255 1.401 . S
C1254 C1258 1.506 1_565 S
C1255 C1247 1.503 . S
C1255 C1254 1.401 . S
C1255 C1256 1.403 . S
C1256 C1255 1.403 . S
C1256 C1257 1.404 . S
C1256 C1259 1.539 . S
C1257 C1253 1.408 . S
C1257 C1256 1.404 . S
C1257 H1269 0.930 . S
C1258 C1254 1.506 1_545 S
C1258 H1270 0.956 . S
C1258 H1271 0.961 . S
C1258 H1272 0.961 . S
C1259 C1256 1.539 . S
C1259 H1273 0.958 . S
C1259 H1274 0.961 . S
C1259 H1275 0.960 . S
H1260 C1244 0.931 . S
H1261 C1249 0.929 . S
H1262 C1250 0.960 . S
H1263 C1250 0.962 . S
H1264 C1250 0.960 . S
H1265 C1251 0.961 1_545 S
H1266 C1251 0.961 . S
H1267 C1251 0.961 . S
H1268 C1252 0.931 1_545 S
H1269 C1257 0.930 . S
H1270 C1258 0.956 . S
H1271 C1258 0.961 . S
H1272 C1258 0.961 . S
H1273 C1259 0.958 . S
H1274 C1259 0.961 . S
H1275 C1259 0.960 . S
C1276 C1277 1.391 . S
C1276 C1278 1.394 . S
C1276 H1292 0.931 1_455 S
C1277 C1276 1.391 . S
C1277 C1281 1.376 . S
C1278 C1276 1.394 . S
C1278 C1279 1.369 . S
C1278 C1282 1.531 1_455 S
C1279 C1278 1.369 . S
C1279 C1280 1.410 . S
C1279 C1287 1.503 . S
C1280 C1279 1.410 . S
C1280 C1281 1.392 . S
C1280 C1283 1.511 . S
C1281 C1277 1.376 . S
C1281 C1280 1.392 . S
C1281 H1293 0.929 . S
C1282 C1278 1.531 1_655 S
C1282 H1294 0.960 . S
C1282 H1295 0.962 . S
C1282 H1296 0.960 . S
C1283 C1280 1.511 . S
C1283 H1297 0.961 . S
C1283 H1298 0.961 . S
C1283 H1299 0.961 . S
C1284 C1285 1.370 1_655 S
C1284 C1286 1.363 . S
C1284 H1300 0.931 . S
C1285 C1284 1.370 1_455 S
C1285 C1289 1.408 . S
C1286 C1284 1.363 . S
C1286 C1287 1.370 1_655 S
C1286 C1290 1.524 . S
C1287 C1279 1.503 . S
C1287 C1286 1.370 1_455 S
C1287 C1288 1.403 . S
C1288 C1287 1.403 . S
C1288 C1289 1.404 . S
C1288 C1291 1.539 . S
C1289 C1285 1.408 . S
C1289 C1288 1.404 . S
C1289 H1301 0.930 . S
C1290 C1286 1.524 . S
C1290 H1302 0.956 . S
C1290 H1303 0.961 . S
C1290 H1304 0.961 . S
C1291 C1288 1.539 . S
C1291 H1305 0.958 . S
C1291 H1306 0.961 . S
C1291 H1307 0.960 . S
H1292 C1276 0.931 1_655 S
H1293 C1281 0.929 . S
H1294 C1282 0.960 . S
H1295 C1282 0.962 . S
H1296 C1282 0.960 . S
H1297 C1283 0.961 . S
H1298 C1283 0.961 . S
H1299 C1283 0.961 . S
H1300 C1284 0.931 . S
H1301 C1289 0.930 . S
H1302 C1290 0.956 . S
H1303 C1290 0.961 . S
H1304 C1290 0.961 . S
H1305 C1291 0.958 . S
H1306 C1291 0.961 . S
H1307 C1291 0.960 . S
C1308 C1309 1.391 . S
C1308 C1310 1.394 . S
C1308 H1324 0.931 . S
C1309 C1308 1.391 . S
C1309 C1313 1.376 . S
C1310 C1308 1.394 . S
C1310 C1311 1.369 . S
C1310 C1314 1.531 . S
C1311 C1310 1.369 . S
C1311 C1312 1.410 . S
C1311 C1319 1.503 . S
C1312 C1311 1.410 . S
C1312 C1313 1.392 . S
C1312 C1315 1.511 . S
C1313 C1309 1.376 . S
C1313 C1312 1.392 . S
C1313 H1325 0.929 . S
C1314 C1310 1.531 . S
C1314 H1326 0.960 . S
C1314 H1327 0.962 . S
C1314 H1328 0.960 . S
C1315 C1312 1.511 . S
C1315 H1329 0.961 . S
C1315 H1330 0.961 . S
C1315 H1331 0.961 . S
C1316 C1317 1.370 . S
C1316 C1318 1.363 . S
C1316 H1332 0.931 . S
C1317 C1316 1.370 . S
C1317 C1321 1.408 . S
C1318 C1316 1.363 . S
C1318 C1319 1.370 . S
C1318 C1322 1.524 . S
C1319 C1311 1.503 . S
C1319 C1318 1.370 . S
C1319 C1320 1.403 . S
C1320 C1319 1.403 . S
C1320 C1321 1.404 . S
C1320 C1323 1.539 . S
C1321 C1317 1.408 . S
C1321 C1320 1.404 . S
C1321 H1333 0.930 . S
C1322 C1318 1.524 . S
C1322 H1334 0.956 . S
C1322 H1335 0.961 . S
C1322 H1336 0.961 . S
C1323 C1320 1.539 . S
C1323 H1337 0.958 . S
C1323 H1338 0.961 . S
C1323 H1339 0.960 . S
H1324 C1308 0.931 . S
H1325 C1313 0.929 . S
H1326 C1314 0.960 . S
H1327 C1314 0.962 . S
H1328 C1314 0.960 . S
H1329 C1315 0.961 . S
H1330 C1315 0.961 . S
H1331 C1315 0.961 . S
H1332 C1316 0.931 . S
H1333 C1321 0.930 . S
H1334 C1322 0.956 . S
H1335 C1322 0.961 . S
H1336 C1322 0.961 . S
H1337 C1323 0.958 . S
H1338 C1323 0.961 . S
H1339 C1323 0.960 . S
C1340 C1341 1.391 . S
C1340 C1342 1.394 . S
C1340 H1356 0.931 . S
C1341 C1340 1.391 . S
C1341 C1345 1.376 . S
C1342 C1340 1.394 . S
C1342 C1343 1.369 . S
C1342 C1346 1.531 . S
C1343 C1342 1.369 . S
C1343 C1344 1.410 . S
C1343 C1351 1.503 . S
C1344 C1343 1.410 . S
C1344 C1345 1.392 . S
C1344 C1347 1.511 . S
C1345 C1341 1.376 . S
C1345 C1344 1.392 . S
C1345 H1357 0.929 . S
C1346 C1342 1.531 . S
C1346 H1358 0.960 . S
C1346 H1359 0.962 . S
C1346 H1360 0.960 . S
C1347 C1344 1.511 . S
C1347 H1361 0.961 . S
C1347 H1362 0.961 . S
C1347 H1363 0.961 . S
C1348 C1349 1.370 . S
C1348 C1350 1.363 . S
C1348 H1364 0.931 . S
C1349 C1348 1.370 . S
C1349 C1353 1.408 . S
C1350 C1348 1.363 . S
C1350 C1351 1.370 . S
C1350 C1354 1.524 . S
C1351 C1343 1.503 . S
C1351 C1350 1.370 . S
C1351 C1352 1.403 . S
C1352 C1351 1.403 . S
C1352 C1353 1.404 . S
C1352 C1355 1.539 . S
C1353 C1349 1.408 . S
C1353 C1352 1.404 . S
C1353 H1365 0.930 . S
C1354 C1350 1.524 . S
C1354 H1366 0.956 . S
C1354 H1367 0.961 . S
C1354 H1368 0.961 . S
C1355 C1352 1.539 . S
C1355 H1369 0.958 . S
C1355 H1370 0.961 . S
C1355 H1371 0.960 . S
H1356 C1340 0.931 . S
H1357 C1345 0.929 . S
H1358 C1346 0.960 . S
H1359 C1346 0.962 . S
H1360 C1346 0.960 . S
H1361 C1347 0.961 . S
H1362 C1347 0.961 . S
H1363 C1347 0.961 . S
H1364 C1348 0.931 . S
H1365 C1353 0.930 . S
H1366 C1354 0.956 . S
H1367 C1354 0.961 . S
H1368 C1354 0.961 . S
H1369 C1355 0.958 . S
H1370 C1355 0.961 . S
H1371 C1355 0.960 . S
C1372 C1373 1.391 . S
C1372 C1374 1.394 . S
C1372 H1388 0.931 . S
C1373 C1372 1.391 . S
C1373 C1377 1.376 . S
C1374 C1372 1.394 . S
C1374 C1375 1.369 . S
C1374 C1378 1.531 . S
C1375 C1374 1.369 . S
C1375 C1376 1.410 . S
C1375 C1383 1.503 . S
C1376 C1375 1.410 . S
C1376 C1377 1.392 . S
C1376 C1379 1.511 . S
C1377 C1373 1.376 . S
C1377 C1376 1.392 . S
C1377 H1389 0.929 . S
C1378 C1374 1.531 . S
C1378 H1390 0.960 . S
C1378 H1391 0.962 . S
C1378 H1392 0.960 . S
C1379 C1376 1.511 . S
C1379 H1393 0.961 . S
C1379 H1394 0.961 . S
C1379 H1395 0.961 . S
C1380 C1381 1.370 . S
C1380 C1382 1.363 . S
C1380 H1396 0.931 . S
C1381 C1380 1.370 . S
C1381 C1385 1.408 . S
C1382 C1380 1.363 . S
C1382 C1383 1.370 . S
C1382 C1386 1.524 . S
C1383 C1375 1.503 . S
C1383 C1382 1.370 . S
C1383 C1384 1.403 . S
C1384 C1383 1.403 . S
C1384 C1385 1.404 . S
C1384 C1387 1.539 . S
C1385 C1381 1.408 . S
C1385 C1384 1.404 . S
C1385 H1397 0.930 . S
C1386 C1382 1.524 . S
C1386 H1398 0.956 . S
C1386 H1399 0.961 . S
C1386 H1400 0.961 . S
C1387 C1384 1.539 . S
C1387 H1401 0.958 . S
C1387 H1402 0.961 . S
C1387 H1403 0.960 . S
H1388 C1372 0.931 . S
H1389 C1377 0.929 . S
H1390 C1378 0.960 . S
H1391 C1378 0.962 . S
H1392 C1378 0.960 . S
H1393 C1379 0.961 . S
H1394 C1379 0.961 . S
H1395 C1379 0.961 . S
H1396 C1380 0.931 . S
H1397 C1385 0.930 . S
H1398 C1386 0.956 . S
H1399 C1386 0.961 . S
H1400 C1386 0.961 . S
H1401 C1387 0.958 . S
H1402 C1387 0.961 . S
H1403 C1387 0.960 . S
C253 C8 2.106 . S
C261 C45 2.124 . S
C285 C17 2.078 . S
C293 C59 2.076 . S
C317 C73 2.034 . S
C325 C36 2.044 . S
C349 C92 2.093 . S
C357 C129 2.122 . S
C381 C101 2.079 . S
C389 C143 2.075 . S
C413 C157 2.054 . S
C421 C120 2.027 . S
C445 C213 2.119 . S
C453 C176 2.095 . S
C477 C227 2.085 . S
C485 C185 2.070 . S
C509 C241 2.054 . S
C517 C204 2.026 . S
C541 C3 1.668 . S
C549 C134 1.714 . S
C573 C22 1.664 . S
C581 C148 1.674 . S
C605 C162 1.682 . S
C613 C31 1.641 . S
C637 C50 1.708 . S
C645 C171 1.691 . S
C669 C64 1.675 . S
C677 C190 1.670 . S
C701 C78 1.635 . S
C709 C199 1.662 . S
C733 C87 1.672 . S
C741 C218 1.722 . S
C765 C106 1.648 . S
C773 C232 1.685 . S
C797 C246 1.651 . S
C805 C115 1.649 . S
C829 C7 0.474 . S
C837 C63 0.470 . S
C861 C23 0.412 . S
C869 C77 0.496 . S
C893 C35 0.453 . S
C901 C49 0.456 . S
C925 C51 0.583 . S
C933 C21 0.516 . S
C957 C37 0.525 . S
C965 C65 0.545 . S
C989 C79 0.525 . S
C997 C9 0.552 . S
C1021 C91 0.576 . S
C1029 C147 0.505 . S
C1053 C161 0.429 . S
C1061 C107 0.479 . S
C1085 C133 0.440 . S
C1093 C119 0.513 . S
C1117 C105 0.495 . S
C1125 C135 0.554 . S
C1149 C149 0.555 . S
C1157 C121 0.569 . S
C1181 C163 0.519 . S
C1189 C93 0.543 . S
C1213 C231 0.435 . S
C1221 C175 0.496 . S
C1245 C245 0.487 . S
C1253 C191 0.488 . S
C1277 C203 0.414 . S
C1285 C217 0.471 . S
C1309 C189 0.505 . S
C1317 C219 0.571 . S
C1341 C205 0.571 . S
C1349 C233 0.557 . S
C1373 C177 0.563 . S
C1381 C247 0.578 . S
