# Generated by pormake.
# Topology yfy, (5)-cn, num edge types: 1
# Building blocks:
#     Node 0, Type 0, BuildingBlock: BEQFEK_clean_sbu_0, # of connection points: 5
#     Node 1, Type 0, BuildingBlock: BEQFEK_clean_sbu_0, # of connection points: 5
#     Node 2, Type 0, BuildingBlock: BEQFEK_clean_sbu_0, # of connection points: 5
#     Node 3, Type 0, BuildingBlock: BEQFEK_clean_sbu_0, # of connection points: 5
#     Node 4, Type 0, BuildingBlock: BEQFEK_clean_sbu_0, # of connection points: 5
#     Node 5, Type 0, BuildingBlock: BEQFEK_clean_sbu_0, # of connection points: 5
#     Node 6, Type 0, BuildingBlock: BEQFEK_clean_sbu_0, # of connection points: 5
#     Node 7, Type 0, BuildingBlock: BEQFEK_clean_sbu_0, # of connection points: 5
#     Node 8, Type 0, BuildingBlock: BEQFEK_clean_sbu_0, # of connection points: 5
#     Node 9, Type 0, BuildingBlock: BEQFEK_clean_sbu_0, # of connection points: 5
#     Node 10, Type 0, BuildingBlock: BEQFEK_clean_sbu_0, # of connection points: 5
#     Node 11, Type 0, BuildingBlock: BEQFEK_clean_sbu_0, # of connection points: 5
#     Node 12, Type 0, BuildingBlock: BEQFEK_clean_sbu_0, # of connection points: 5
#     Node 13, Type 0, BuildingBlock: BEQFEK_clean_sbu_0, # of connection points: 5
#     Node 14, Type 0, BuildingBlock: BEQFEK_clean_sbu_0, # of connection points: 5
#     Node 15, Type 0, BuildingBlock: BEQFEK_clean_sbu_0, # of connection points: 5
#     Edge 16, Type (0, 0), BuildingBlock: CIFDUS_clean_linker_0, # of connection points: 2
#     Edge 17, Type (0, 0), BuildingBlock: CIFDUS_clean_linker_0, # of connection points: 2
#     Edge 18, Type (0, 0), BuildingBlock: CIFDUS_clean_linker_0, # of connection points: 2
#     Edge 19, Type (0, 0), BuildingBlock: CIFDUS_clean_linker_0, # of connection points: 2
#     Edge 20, Type (0, 0), BuildingBlock: CIFDUS_clean_linker_0, # of connection points: 2
#     Edge 21, Type (0, 0), BuildingBlock: CIFDUS_clean_linker_0, # of connection points: 2
#     Edge 22, Type (0, 0), BuildingBlock: CIFDUS_clean_linker_0, # of connection points: 2
#     Edge 23, Type (0, 0), BuildingBlock: CIFDUS_clean_linker_0, # of connection points: 2
#     Edge 24, Type (0, 0), BuildingBlock: CIFDUS_clean_linker_0, # of connection points: 2
#     Edge 25, Type (0, 0), BuildingBlock: CIFDUS_clean_linker_0, # of connection points: 2
#     Edge 26, Type (0, 0), BuildingBlock: CIFDUS_clean_linker_0, # of connection points: 2
#     Edge 27, Type (0, 0), BuildingBlock: CIFDUS_clean_linker_0, # of connection points: 2
#     Edge 28, Type (0, 0), BuildingBlock: CIFDUS_clean_linker_0, # of connection points: 2
#     Edge 29, Type (0, 0), BuildingBlock: CIFDUS_clean_linker_0, # of connection points: 2
#     Edge 30, Type (0, 0), BuildingBlock: CIFDUS_clean_linker_0, # of connection points: 2
#     Edge 31, Type (0, 0), BuildingBlock: CIFDUS_clean_linker_0, # of connection points: 2
#     Edge 32, Type (0, 0), BuildingBlock: CIFDUS_clean_linker_0, # of connection points: 2
#     Edge 33, Type (0, 0), BuildingBlock: CIFDUS_clean_linker_0, # of connection points: 2
#     Edge 34, Type (0, 0), BuildingBlock: CIFDUS_clean_linker_0, # of connection points: 2
#     Edge 35, Type (0, 0), BuildingBlock: CIFDUS_clean_linker_0, # of connection points: 2
#     Edge 36, Type (0, 0), BuildingBlock: CIFDUS_clean_linker_0, # of connection points: 2
#     Edge 37, Type (0, 0), BuildingBlock: CIFDUS_clean_linker_0, # of connection points: 2
#     Edge 38, Type (0, 0), BuildingBlock: CIFDUS_clean_linker_0, # of connection points: 2
#     Edge 39, Type (0, 0), BuildingBlock: CIFDUS_clean_linker_0, # of connection points: 2
#     Edge 40, Type (0, 0), BuildingBlock: CIFDUS_clean_linker_0, # of connection points: 2
#     Edge 41, Type (0, 0), BuildingBlock: CIFDUS_clean_linker_0, # of connection points: 2
#     Edge 42, Type (0, 0), BuildingBlock: CIFDUS_clean_linker_0, # of connection points: 2
#     Edge 43, Type (0, 0), BuildingBlock: CIFDUS_clean_linker_0, # of connection points: 2
#     Edge 44, Type (0, 0), BuildingBlock: CIFDUS_clean_linker_0, # of connection points: 2
#     Edge 45, Type (0, 0), BuildingBlock: CIFDUS_clean_linker_0, # of connection points: 2
#     Edge 46, Type (0, 0), BuildingBlock: CIFDUS_clean_linker_0, # of connection points: 2
#     Edge 47, Type (0, 0), BuildingBlock: CIFDUS_clean_linker_0, # of connection points: 2
#     Edge 48, Type (0, 0), BuildingBlock: CIFDUS_clean_linker_0, # of connection points: 2
#     Edge 49, Type (0, 0), BuildingBlock: CIFDUS_clean_linker_0, # of connection points: 2
#     Edge 50, Type (0, 0), BuildingBlock: CIFDUS_clean_linker_0, # of connection points: 2
#     Edge 51, Type (0, 0), BuildingBlock: CIFDUS_clean_linker_0, # of connection points: 2
#     Edge 52, Type (0, 0), BuildingBlock: CIFDUS_clean_linker_0, # of connection points: 2
#     Edge 53, Type (0, 0), BuildingBlock: CIFDUS_clean_linker_0, # of connection points: 2
#     Edge 54, Type (0, 0), BuildingBlock: CIFDUS_clean_linker_0, # of connection points: 2
#     Edge 55, Type (0, 0), BuildingBlock: CIFDUS_clean_linker_0, # of connection points: 2
# Relax obj value: 0.044
# Max RMSD: 0.072
# Mean RMSD: 0.072
data_MOF--net-yfy--node1-BEQFEK_clean_sbu_0--edge1-CIFDUS_clean_linker_0
_symmetry_space_group_name_H-M    P1
_symmetry_Int_Tables_number       1
_symmetry_cell_setting            triclinic
loop_
_symmetry_equiv_pos_as_xyz
'x, y, z'
_cell_length_a     42.60669
_cell_length_b     42.68131
_cell_length_c     38.706884
_cell_angle_alpha  90.073894
_cell_angle_beta   90.170373
_cell_angle_gamma 90.382862
loop_
_atom_site_label
_atom_site_type_symbol
_atom_site_fract_x
_atom_site_fract_y
_atom_site_fract_z
_atom_type_partial_charge
Co0 Co 0.13908 0.29018 0.33544 0.0
Co1 Co 0.09636 0.34987 0.33311 0.0
C2 C 0.07359 0.28845 0.30599 0.0
O3 O 0.09998 0.27592 0.31237 0.0
O4 O 0.06859 0.3172 0.31266 0.0
C5 C 0.17732 0.2456 0.30081 0.0
O6 O 0.16794 0.26086 0.27325 0.0
C7 C 0.05566 0.39975 0.30652 0.0
C8 C 0.06737 0.43904 0.34162 0.0
C9 C 0.04945 0.43105 0.31301 0.0
N10 N 0.07637 0.38968 0.33023 0.0
N11 N 0.08293 0.41316 0.35142 0.0
C12 C 0.04463 0.38054 0.27644 0.0
H13 H 0.06357 0.36463 0.26785 0.0
H14 H 0.03723 0.39562 0.25459 0.0
H15 H 0.02431 0.36596 0.28462 0.0
C16 C 0.18439 0.33552 0.30324 0.0
N17 N 0.15567 0.32752 0.31522 0.0
N18 N 0.13697 0.35184 0.31242 0.0
C19 C 0.15302 0.37575 0.29783 0.0
C20 C 0.18359 0.36626 0.29168 0.0
C21 C 0.213 0.31554 0.30617 0.0
H22 H 0.21078 0.29913 0.32821 0.0
H23 H 0.21587 0.30195 0.28196 0.0
H24 H 0.23434 0.33028 0.30973 0.0
O25 O 0.12897 0.29675 0.38523 0.0
O26 O 0.10006 0.33989 0.38283 0.0
H27 H 0.13709 0.42085 0.3137 0.0
H28 H 0.15433 0.42033 0.27122 0.0
C29 C 0.13934 0.40706 0.28955 0.0
H30 H 0.11575 0.40396 0.27792 0.0
H31 H 0.09879 0.41174 0.37196 0.0
O32 O 0.1685 0.25456 0.33057 0.0
C33 C 0.11284 0.31795 0.40004 0.0
Co34 Co 0.87155 0.14294 0.33996 0.0
Co35 Co 0.81402 0.09709 0.33398 0.0
C36 C 0.87684 0.07608 0.31302 0.0
O37 O 0.88874 0.10204 0.32312 0.0
O38 O 0.84736 0.07115 0.31346 0.0
C39 C 0.9254 0.17559 0.31251 0.0
O40 O 0.92618 0.15216 0.29051 0.0
C41 C 0.76455 0.05591 0.30624 0.0
C42 C 0.72587 0.06447 0.34295 0.0
C43 C 0.73352 0.04819 0.31321 0.0
N44 N 0.77471 0.07588 0.33074 0.0
N45 N 0.75162 0.08062 0.35282 0.0
C46 C 0.78329 0.0472 0.27506 0.0
H47 H 0.80022 0.06617 0.26869 0.0
H48 H 0.76776 0.04266 0.25251 0.0
H49 H 0.79672 0.02561 0.28074 0.0
C50 C 0.82807 0.18402 0.30084 0.0
N51 N 0.83549 0.15623 0.31519 0.0
N52 N 0.81127 0.13711 0.31264 0.0
C53 C 0.78772 0.15207 0.29627 0.0
C54 C 0.79748 0.18236 0.28842 0.0
C55 C 0.8489 0.21238 0.30197 0.0
H56 H 0.85849 0.21544 0.32844 0.0
H57 H 0.86892 0.2089 0.28413 0.0
H58 H 0.83617 0.2339 0.29441 0.0
O59 O 0.86109 0.13704 0.3894 0.0
O60 O 0.82361 0.10076 0.38414 0.0
H61 H 0.74313 0.134 0.31209 0.0
H62 H 0.74267 0.15231 0.27003 0.0
C63 C 0.75655 0.13752 0.28788 0.0
H64 H 0.76015 0.1144 0.27558 0.0
H65 H 0.75319 0.09558 0.37413 0.0
O66 O 0.90456 0.17583 0.33596 0.0
C67 C 0.84189 0.11751 0.4027 0.0
Co68 Co 0.03065 0.88025 0.34708 0.0
Co69 Co 0.07816 0.82514 0.33629 0.0
C70 C 0.09747 0.8901 0.32107 0.0
O71 O 0.0708 0.89986 0.33107 0.0
O72 O 0.10329 0.86098 0.31958 0.0
C73 C 0.99044 0.92881 0.31975 0.0
O74 O 0.99918 0.91821 0.28942 0.0
C75 C 0.12027 0.78014 0.30258 0.0
C76 C 0.1151 0.73863 0.33623 0.0
C77 C 0.12938 0.74912 0.30625 0.0
N78 N 0.10084 0.7873 0.3287 0.0
N79 N 0.09816 0.76251 0.34893 0.0
C80 C 0.13074 0.80323 0.27581 0.0
H81 H 0.11051 0.80951 0.25914 0.0
H82 H 0.15017 0.79418 0.25977 0.0
H83 H 0.13919 0.82483 0.28871 0.0
C84 C 0.98907 0.83598 0.30716 0.0
N85 N 0.01726 0.84498 0.32009 0.0
N86 N 0.03754 0.82225 0.31517 0.0
C87 C 0.02302 0.79844 0.29842 0.0
C88 C 0.99179 0.80616 0.29297 0.0
C89 C 0.9593 0.85385 0.31186 0.0
H90 H 0.96038 0.86793 0.33593 0.0
H91 H 0.95613 0.86991 0.28962 0.0
H92 H 0.93875 0.83776 0.31279 0.0
O93 O 0.03807 0.86682 0.39546 0.0
O94 O 0.0748 0.83067 0.38722 0.0
H95 H 0.04361 0.75442 0.31122 0.0
H96 H 0.02382 0.75468 0.26992 0.0
C97 C 0.03866 0.76863 0.2879 0.0
H98 H 0.06112 0.77411 0.27488 0.0
H99 H 0.08426 0.76172 0.37106 0.0
O100 O 0.99987 0.91517 0.34706 0.0
C101 C 0.05798 0.84732 0.40717 0.0
Co102 Co 0.30055 0.02846 0.3444 0.0
Co103 Co 0.34992 0.08136 0.33056 0.0
C104 C 0.28535 0.09534 0.31753 0.0
O105 O 0.27889 0.06798 0.32893 0.0
O106 O 0.31359 0.10453 0.31408 0.0
C107 C 0.26067 0.98198 0.31217 0.0
O108 O 0.27753 0.98806 0.28461 0.0
C109 C 0.39731 0.12555 0.30211 0.0
C110 C 0.43854 0.11183 0.33334 0.0
C111 C 0.42933 0.13071 0.30616 0.0
N112 N 0.38819 0.1042 0.32564 0.0
N113 N 0.41283 0.09667 0.34464 0.0
C114 C 0.37666 0.13788 0.27396 0.0
H115 H 0.3557 0.12268 0.27038 0.0
H116 H 0.38981 0.13956 0.24931 0.0
H117 H 0.36874 0.16174 0.28109 0.0
C118 C 0.35056 0.99162 0.30799 0.0
N119 N 0.33678 0.01858 0.3179 0.0
N120 N 0.35412 0.04224 0.30761 0.0
C121 C 0.37775 0.03152 0.28804 0.0
C122 C 0.3774 0.99875 0.28849 0.0
C123 C 0.34028 0.96023 0.32112 0.0
H124 H 0.32433 0.96295 0.34353 0.0
H125 H 0.32744 0.9475 0.30039 0.0
H126 H 0.3609 0.94614 0.32897 0.0
O127 O 0.31341 0.03527 0.39267 0.0
O128 O 0.34491 0.07584 0.38176 0.0
H129 H 0.41841 0.06084 0.28177 0.0
H130 H 0.40627 0.04043 0.24293 0.0
C131 C 0.39792 0.05264 0.26646 0.0
H132 H 0.38425 0.07333 0.25831 0.0
H133 H 0.41238 0.07988 0.36422 0.0
O134 O 0.26732 0.99542 0.34066 0.0
C135 C 0.33126 0.05746 0.403 0.0
Co136 Co 0.14309 0.87952 0.66622 0.0
Co137 Co 0.09413 0.82394 0.67128 0.0
C138 C 0.07644 0.88793 0.69236 0.0
O139 O 0.10383 0.89807 0.68523 0.0
O140 O 0.06932 0.85916 0.68887 0.0
C141 C 0.16631 0.94059 0.66007 0.0
O142 O 0.13839 0.94289 0.64581 0.0
C143 C 0.04831 0.78014 0.70041 0.0
C144 C 0.05402 0.7383 0.66738 0.0
C145 C 0.03773 0.7497 0.69558 0.0
N146 N 0.06986 0.78654 0.67612 0.0
N147 N 0.07288 0.76159 0.65616 0.0
C148 C 0.04037 0.80181 0.72947 0.0
H149 H 0.06146 0.81553 0.73723 0.0
H150 H 0.03119 0.78873 0.75209 0.0
H151 H 0.02216 0.81845 0.72055 0.0
C152 C 0.1828 0.8325 0.70274 0.0
N153 N 0.15492 0.84252 0.69042 0.0
N154 N 0.13405 0.81978 0.69336 0.0
C155 C 0.1479 0.79481 0.7081 0.0
C156 C 0.17933 0.80176 0.71419 0.0
C157 C 0.21267 0.85088 0.69982 0.0
H158 H 0.21465 0.86081 0.67342 0.0
H159 H 0.21198 0.87082 0.71823 0.0
H160 H 0.23349 0.83627 0.70553 0.0
O161 O 0.1353 0.86935 0.61635 0.0
O162 O 0.09932 0.83149 0.62135 0.0
H163 H 0.12818 0.75145 0.69059 0.0
H164 H 0.14562 0.74949 0.73305 0.0
C165 C 0.13169 0.76429 0.71522 0.0
H166 H 0.10849 0.76867 0.72704 0.0
H167 H 0.08843 0.7602 0.63544 0.0
O168 O 0.17526 0.91381 0.67057 0.0
C169 C 0.11605 0.84974 0.6029 0.0
Co170 Co 0.30684 0.14269 0.65904 0.0
Co171 Co 0.36123 0.09389 0.66853 0.0
C172 C 0.29486 0.07609 0.68319 0.0
O173 O 0.28502 0.10315 0.67458 0.0
O174 O 0.324 0.06999 0.68339 0.0
C175 C 0.25384 0.17802 0.6823 0.0
O176 O 0.25108 0.15477 0.70432 0.0
C177 C 0.405 0.05286 0.70587 0.0
C178 C 0.44391 0.04891 0.66854 0.0
C179 C 0.43458 0.03997 0.70138 0.0
N180 N 0.39761 0.06922 0.67731 0.0
N181 N 0.42086 0.06653 0.65501 0.0
C182 C 0.38382 0.04939 0.73649 0.0
H183 H 0.38956 0.06785 0.75573 0.0
H184 H 0.38689 0.02612 0.74876 0.0
H185 H 0.35898 0.05223 0.72901 0.0
C186 C 0.35253 0.18259 0.69748 0.0
N187 N 0.34263 0.15427 0.686 0.0
N188 N 0.36535 0.13387 0.69007 0.0
C189 C 0.39031 0.14852 0.70452 0.0
C190 C 0.38322 0.17996 0.70951 0.0
C191 C 0.33463 0.21224 0.69212 0.0
H192 H 0.32734 0.21398 0.66464 0.0
H193 H 0.31304 0.21155 0.70806 0.0
H194 H 0.34869 0.23326 0.6992 0.0
O195 O 0.32017 0.13523 0.61045 0.0
O196 O 0.35672 0.09864 0.61773 0.0
H197 H 0.43175 0.12567 0.68658 0.0
H198 H 0.43778 0.14903 0.72512 0.0
C199 C 0.42121 0.13319 0.71138 0.0
H200 H 0.41746 0.11224 0.72766 0.0
H201 H 0.42117 0.07706 0.6307 0.0
O202 O 0.27591 0.17755 0.66024 0.0
C203 C 0.33991 0.11581 0.59821 0.0
Co204 Co 0.04249 0.30183 0.66187 0.0
Co205 Co 0.0888 0.35965 0.6667 0.0
C206 C 0.10887 0.29458 0.68627 0.0
O207 O 0.08142 0.28359 0.68101 0.0
O208 O 0.11521 0.32348 0.68145 0.0
C209 C 0.01029 0.24541 0.68332 0.0
O210 O 0.03587 0.24051 0.70147 0.0
C211 C 0.13156 0.40814 0.69625 0.0
C212 C 0.12502 0.4464 0.65854 0.0
C213 C 0.14053 0.43884 0.68888 0.0
N214 N 0.11127 0.39839 0.67168 0.0
N215 N 0.10769 0.42135 0.64916 0.0
C216 C 0.14263 0.38801 0.72545 0.0
H217 H 0.14169 0.36297 0.71821 0.0
H218 H 0.12703 0.39143 0.74802 0.0
H219 H 0.16701 0.39432 0.733 0.0
C220 C 1.00268 0.34509 0.70263 0.0
N221 N 0.03004 0.33784 0.68717 0.0
N222 N 0.04956 0.36172 0.69006 0.0
C223 C 0.03516 0.38499 0.7074 0.0
C224 C 1.00494 0.37529 0.71589 0.0
C225 C 0.9742 0.32437 0.70204 0.0
H226 H 0.96957 0.31647 0.67518 0.0
H227 H 0.97872 0.30329 0.71799 0.0
H228 H 0.95316 0.33654 0.712 0.0
O229 O 0.05094 0.31202 0.61227 0.0
O230 O 0.08127 0.35453 0.61676 0.0
H231 H 0.05386 0.42921 0.69141 0.0
H232 H 0.03544 0.43004 0.73344 0.0
C233 C 0.05008 0.41595 0.71568 0.0
H234 H 0.07319 0.41207 0.72804 0.0
H235 H 0.0931 0.42 0.62749 0.0
O236 O 1.00848 0.26969 0.6644 0.0
C237 C 0.0667 0.33426 0.59858 0.0
Co238 Co 0.87654 0.03585 0.66243 0.0
Co239 Co 0.82416 0.08714 0.66768 0.0
C240 C 0.89038 0.10174 0.68662 0.0
O241 O 0.89892 0.07405 0.67914 0.0
O242 O 0.8618 0.10986 0.68433 0.0
C243 C 0.92955 1.0016 0.68699 0.0
O244 O 0.93303 0.02639 0.70678 0.0
C245 C 0.78223 0.12965 0.70341 0.0
C246 C 0.74796 0.142 0.66281 0.0
C247 C 0.75568 0.14767 0.69715 0.0
N248 N 0.78962 0.11437 0.67424 0.0
N249 N 0.76917 0.1219 0.65 0.0
C250 C 0.79962 0.12511 0.73667 0.0
H251 H 0.8133 0.10307 0.7359 0.0
H252 H 0.7831 0.12442 0.75877 0.0
H253 H 0.8164 0.14482 0.74045 0.0
C254 C 0.83072 1.00091 0.70574 0.0
N255 N 0.84009 0.027 0.68895 0.0
N256 N 0.81761 0.04797 0.69028 0.0
C257 C 0.79292 0.03559 0.70738 0.0
C258 C 0.80047 1.00545 0.71804 0.0
C259 C 0.85081 0.97259 0.71038 0.0
H260 H 0.87392 0.97985 0.72105 0.0
H261 H 0.84001 0.95529 0.72815 0.0
H262 H 0.85489 0.9615 0.68486 0.0
O263 O 0.86495 0.043 0.61274 0.0
O264 O 0.82978 0.08112 0.61774 0.0
H265 H 0.74262 0.03345 0.71476 0.0
H266 H 0.76195 0.06753 0.73242 0.0
C267 C 0.76155 0.05096 0.71035 0.0
H268 H 0.75617 0.06412 0.68644 0.0
H269 H 0.76965 0.11327 0.62477 0.0
O270 O 0.90662 1.00031 0.66584 0.0
C271 C 0.84637 0.06297 0.59929 0.0
Co272 Co 0.65154 0.79972 0.84968 0.0
Co273 Co 0.60303 0.85453 0.84077 0.0
C274 C 0.5858 0.78723 0.82615 0.0
O275 O 0.61361 0.7778 0.83185 0.0
O276 O 0.57871 0.81603 0.82906 0.0
C277 C 0.68746 0.7472 0.82728 0.0
O278 O 0.66477 0.74489 0.80436 0.0
C279 C 0.55921 0.89622 0.80395 0.0
C280 C 0.56137 0.93861 0.83674 0.0
C281 C 0.54845 0.92682 0.80647 0.0
N282 N 0.57825 0.89061 0.83101 0.0
N283 N 0.57912 0.91592 0.85069 0.0
C284 C 0.55121 0.87248 0.77672 0.0
H285 H 0.55046 0.84867 0.78785 0.0
H286 H 0.56954 0.87291 0.75643 0.0
H287 H 0.52808 0.87744 0.76475 0.0
C288 C 0.69 0.84313 0.80675 0.0
N289 N 0.66272 0.83484 0.82198 0.0
N290 N 0.64218 0.85738 0.8175 0.0
C291 C 0.65575 0.88069 0.79926 0.0
C292 C 0.68652 0.87254 0.79194 0.0
C293 C 0.71954 0.8245 0.80928 0.0
H294 H 0.7234 0.81723 0.83646 0.0
H295 H 0.71701 0.80299 0.79336 0.0
H296 H 0.74025 0.83804 0.80023 0.0
O297 O 0.64183 0.81272 0.89823 0.0
O298 O 0.61025 0.85366 0.89109 0.0
H299 H 0.63421 0.92408 0.81288 0.0
H300 H 0.65424 0.92499 0.77178 0.0
C301 C 0.63967 0.91043 0.78929 0.0
H302 H 0.6174 0.90476 0.77582 0.0
H303 H 0.59238 0.91793 0.87331 0.0
O304 O 0.68662 0.76906 0.84966 0.0
C305 C 0.62539 0.83501 0.9105 0.0
Co306 Co 0.37811 0.64356 0.8475 0.0
Co307 Co 0.31939 0.59834 0.84229 0.0
C308 C 0.38349 0.57772 0.82037 0.0
O309 O 0.39517 0.60449 0.82748 0.0
O310 O 0.35426 0.57228 0.82406 0.0
C311 C 0.4366 0.67353 0.82855 0.0
O312 O 0.44156 0.64719 0.81193 0.0
C313 C 0.2701 0.559 0.80998 0.0
C314 C 0.23606 0.55484 0.85271 0.0
C315 C 0.24149 0.5453 0.819 0.0
N316 N 0.28075 0.57581 0.83707 0.0
N317 N 0.26022 0.5733 0.86244 0.0
C318 C 0.28798 0.55505 0.77703 0.0
H319 H 0.31284 0.56204 0.78035 0.0
H320 H 0.2777 0.5704 0.75692 0.0
H321 H 0.28654 0.53039 0.76798 0.0
C322 C 0.3341 0.68574 0.81064 0.0
N323 N 0.34147 0.65756 0.82403 0.0
N324 N 0.31688 0.63885 0.82179 0.0
C325 C 0.29294 0.65468 0.80717 0.0
C326 C 0.30303 0.68499 0.79952 0.0
C327 C 0.35653 0.71281 0.80877 0.0
H328 H 0.37877 0.705 0.79682 0.0
H329 H 0.34687 0.73243 0.79338 0.0
H330 H 0.36198 0.72109 0.83532 0.0
O331 O 0.36906 0.63338 0.89682 0.0
O332 O 0.32742 0.60193 0.89245 0.0
H333 H 0.25303 0.63158 0.82922 0.0
H334 H 0.2431 0.66053 0.79728 0.0
C335 C 0.26016 0.64207 0.80425 0.0
H336 H 0.25947 0.62341 0.7843 0.0
H337 H 0.26293 0.58384 0.88661 0.0
O338 O 0.41131 0.67681 0.84558 0.0
C339 C 0.34822 0.61583 0.91065 0.0
Co340 Co 0.54091 0.38838 0.83053 0.0
Co341 Co 0.58458 0.32945 0.82897 0.0
C342 C 0.60682 0.39224 0.80393 0.0
O343 O 0.58004 0.40441 0.80892 0.0
O344 O 0.61169 0.36345 0.81034 0.0
C345 C 0.5192 0.45066 0.82963 0.0
O346 O 0.54889 0.45557 0.83731 0.0
C347 C 0.61887 0.27922 0.79507 0.0
C348 C 0.63415 0.25014 0.83915 0.0
C349 C 0.63586 0.25279 0.80355 0.0
N350 N 0.60732 0.29154 0.82428 0.0
N351 N 0.61641 0.274 0.85055 0.0
C352 C 0.61596 0.29417 0.76028 0.0
H353 H 0.60286 0.3165 0.762 0.0
H354 H 0.60348 0.27808 0.74232 0.0
H355 H 0.6397 0.29857 0.74951 0.0
C356 C 0.49746 0.34326 0.79564 0.0
N357 N 0.52586 0.35109 0.8087 0.0
N358 N 0.54407 0.32631 0.80813 0.0
C359 C 0.52761 0.30177 0.79528 0.0
C360 C 0.49759 0.3117 0.78657 0.0
C361 C 0.47067 0.36558 0.79266 0.0
H362 H 0.47896 0.3877 0.78062 0.0
H363 H 0.4512 0.3556 0.77696 0.0
H364 H 0.46195 0.37127 0.8189 0.0
O365 O 0.55074 0.38088 0.88072 0.0
O366 O 0.58026 0.33814 0.87845 0.0
H367 H 0.51889 0.25169 0.79516 0.0
H368 H 0.55373 0.26435 0.77291 0.0
C369 C 0.53879 0.26857 0.79581 0.0
H370 H 0.55282 0.26425 0.81944 0.0
H371 H 0.61106 0.2787 0.87633 0.0
O372 O 0.50943 0.42259 0.82628 0.0
C373 C 0.56698 0.35973 0.89564 0.0
Co374 Co 0.81126 0.53484 0.84637 0.0
Co375 Co 0.86799 0.58263 0.84622 0.0
C376 C 0.80332 0.60177 0.82441 0.0
O377 O 0.79264 0.57408 0.82838 0.0
O378 O 0.832 0.60844 0.83045 0.0
C379 C 0.75763 0.50212 0.81819 0.0
O380 O 0.75619 0.52682 0.79807 0.0
C381 C 0.91427 0.6252 0.8158 0.0
C382 C 0.95338 0.62268 0.85331 0.0
C383 C 0.94469 0.63552 0.82189 0.0
N384 N 0.90543 0.60693 0.84231 0.0
N385 N 0.9287 0.60594 0.86495 0.0
C386 C 0.89508 0.6298 0.7838 0.0
H387 H 0.87777 0.61044 0.78075 0.0
H388 H 0.91037 0.63109 0.76067 0.0
H389 H 0.88214 0.65219 0.78599 0.0
C390 C 0.85669 0.49826 0.80406 0.0
N391 N 0.84844 0.52421 0.82176 0.0
N392 N 0.87195 0.54436 0.82129 0.0
C393 C 0.89595 0.53179 0.80343 0.0
C394 C 0.88706 0.50226 0.7917 0.0
C395 C 0.83548 0.47063 0.79848 0.0
H396 H 0.81394 0.4784 0.78491 0.0
H397 H 0.84689 0.45211 0.7829 0.0
H398 H 0.82835 0.46092 0.82386 0.0
O399 O 0.82008 0.54207 0.89693 0.0
O400 O 0.86169 0.57398 0.89556 0.0
H401 H 0.94534 0.52993 0.78987 0.0
H402 H 0.92637 0.567 0.78265 0.0
C403 C 0.92779 0.54654 0.80018 0.0
H404 H 0.93595 0.55467 0.82586 0.0
H405 H 0.92817 0.59282 0.88767 0.0
O406 O 0.77932 0.50054 0.84085 0.0
C407 C 0.84133 0.55822 0.91219 0.0
Co408 Co 0.63303 0.37306 0.16013 0.0
Co409 Co 0.5889 0.31375 0.15873 0.0
C410 C 0.56545 0.37807 0.178 0.0
O411 O 0.59246 0.39105 0.17639 0.0
O412 O 0.56184 0.34905 0.17159 0.0
C413 C 0.66602 0.42851 0.18513 0.0
O414 O 0.64062 0.43292 0.20363 0.0
C415 C 0.54358 0.27123 0.1893 0.0
C416 C 0.54516 0.22985 0.155 0.0
C417 C 0.53077 0.2417 0.18426 0.0
N418 N 0.56443 0.27676 0.16409 0.0
N419 N 0.56513 0.25208 0.14345 0.0
C420 C 0.53805 0.29299 0.21898 0.0
H421 H 0.55928 0.30756 0.2239 0.0
H422 H 0.53185 0.27972 0.24267 0.0
H423 H 0.51831 0.30876 0.21245 0.0
C424 C 0.67057 0.32955 0.20453 0.0
N425 N 0.64471 0.33661 0.18588 0.0
N426 N 0.62583 0.31209 0.18557 0.0
C427 C 0.63893 0.28876 0.20391 0.0
C428 C 0.66769 0.29901 0.2167 0.0
C429 C 0.69731 0.35177 0.21067 0.0
H430 H 0.68831 0.37352 0.22268 0.0
H431 H 0.71544 0.34149 0.22779 0.0
H432 H 0.70804 0.35819 0.18554 0.0
O433 O 0.62688 0.36316 0.10963 0.0
O434 O 0.5992 0.31866 0.10982 0.0
H435 H 0.64208 0.23963 0.2182 0.0
H436 H 0.60367 0.25695 0.22194 0.0
C437 C 0.62544 0.25635 0.20633 0.0
H438 H 0.61932 0.24782 0.1801 0.0
H439 H 0.57952 0.25026 0.12179 0.0
O440 O 0.66727 0.40508 0.16481 0.0
C441 C 0.61342 0.34048 0.09376 0.0
Co442 Co 0.79949 0.63572 0.17454 0.0
Co443 Co 0.85418 0.58663 0.17737 0.0
C444 C 0.78866 0.5696 0.19881 0.0
O445 O 0.7792 0.59738 0.19332 0.0
O446 O 0.81724 0.56212 0.19414 0.0
C447 C 0.74532 0.66939 0.19825 0.0
O448 O 0.74083 0.64418 0.21704 0.0
C449 C 0.89786 0.54183 0.20816 0.0
C450 C 0.93733 0.54275 0.17125 0.0
C451 C 0.92733 0.52951 0.20199 0.0
N452 N 0.89073 0.56149 0.18226 0.0
N453 N 0.91426 0.56167 0.16008 0.0
C454 C 0.87769 0.53693 0.23927 0.0
H455 H 0.86317 0.55797 0.24408 0.0
H456 H 0.89225 0.53175 0.26238 0.0
H457 H 0.86174 0.51672 0.23448 0.0
C458 C 0.8462 0.67307 0.21509 0.0
N459 N 0.83694 0.64646 0.199 0.0
N460 N 0.85989 0.62603 0.20018 0.0
C461 C 0.88468 0.63916 0.21668 0.0
C462 C 0.87688 0.66948 0.22684 0.0
C463 C 0.82554 0.70096 0.21981 0.0
H464 H 0.82082 0.71175 0.19426 0.0
H465 H 0.80275 0.6933 0.23079 0.0
H466 H 0.83626 0.71864 0.23731 0.0
O467 O 0.80809 0.6268 0.12445 0.0
O468 O 0.84725 0.59276 0.12753 0.0
H469 H 0.9235 0.61554 0.1938 0.0
H470 H 0.93444 0.64034 0.22936 0.0
C471 C 0.91616 0.62399 0.21959 0.0
H472 H 0.91443 0.60351 0.23711 0.0
H473 H 0.91485 0.57523 0.13766 0.0
O474 O 0.76888 0.6708 0.17812 0.0
C475 C 0.82778 0.60865 0.10986 0.0
Co476 Co 0.53603 0.7926 0.16564 0.0
Co477 Co 0.58289 0.84839 0.17584 0.0
C478 C 0.60029 0.78515 0.1989 0.0
O479 O 0.57335 0.77481 0.1899 0.0
O480 O 0.60766 0.81385 0.19519 0.0
C481 C 0.48984 0.75392 0.19703 0.0
O482 O 0.49672 0.77093 0.22435 0.0
C483 C 0.62752 0.89446 0.20448 0.0
C484 C 0.61492 0.93707 0.17526 0.0
C485 C 0.63482 0.92598 0.20074 0.0
N486 N 0.60444 0.88722 0.18204 0.0
N487 N 0.59719 0.91272 0.1645 0.0
C488 C 0.63999 0.87226 0.231 0.0
H489 H 0.62079 0.85693 0.24059 0.0
H490 H 0.65075 0.88496 0.25313 0.0
H491 H 0.658 0.85717 0.21887 0.0
C492 C 0.49229 0.84027 0.19427 0.0
N493 N 0.52118 0.83014 0.18589 0.0
N494 N 0.54204 0.85108 0.19551 0.0
C495 C 0.52759 0.87389 0.21339 0.0
C496 C 0.49506 0.86837 0.21283 0.0
C497 C 0.46294 0.82558 0.18001 0.0
H498 H 0.46843 0.81101 0.15708 0.0
H499 H 0.452 0.81033 0.19983 0.0
H500 H 0.44583 0.84386 0.17246 0.0
O501 O 0.54882 0.79989 0.11747 0.0
O502 O 0.58091 0.84072 0.12477 0.0
H503 H 0.54859 0.91955 0.21632 0.0
H504 H 0.53275 0.90536 0.25682 0.0
C505 C 0.54535 0.89862 0.23293 0.0
H506 H 0.56884 0.88981 0.24032 0.0
H507 H 0.57965 0.91362 0.14564 0.0
O508 O 0.50347 0.75945 0.16846 0.0
C509 C 0.56753 0.82048 0.10528 0.0
Co510 Co 0.37365 0.53237 0.16587 0.0
Co511 Co 0.31782 0.58007 0.1743 0.0
C512 C 0.38388 0.60008 0.18561 0.0
O513 O 0.39306 0.57267 0.17828 0.0
O514 O 0.35484 0.60666 0.18645 0.0
C515 C 0.43076 0.50649 0.19017 0.0
O516 O 0.43005 0.53176 0.20951 0.0
C517 C 0.2732 0.61997 0.21138 0.0
C518 C 0.23454 0.62374 0.17347 0.0
C519 C 0.24355 0.63272 0.20652 0.0
N520 N 0.28093 0.60386 0.18278 0.0
N521 N 0.25779 0.60635 0.16018 0.0
C522 C 0.29453 0.62386 0.24194 0.0
H523 H 0.3192 0.61933 0.23483 0.0
H524 H 0.28789 0.60672 0.26219 0.0
H525 H 0.29256 0.64784 0.25283 0.0
C526 C 0.33245 0.49491 0.21247 0.0
N527 N 0.33952 0.52156 0.19534 0.0
N528 N 0.31609 0.5413 0.19851 0.0
C529 C 0.29311 0.52758 0.21715 0.0
C530 C 0.3028 0.49788 0.22704 0.0
C531 C 0.3537 0.46721 0.21437 0.0
H532 H 0.37713 0.47488 0.22379 0.0
H533 H 0.34439 0.44886 0.23191 0.0
H534 H 0.35675 0.45731 0.18808 0.0
O535 O 0.35954 0.53838 0.11702 0.0
O536 O 0.32016 0.57203 0.1241 0.0
H537 H 0.2529 0.55108 0.19649 0.0
H538 H 0.24351 0.52251 0.22884 0.0
C539 C 0.2608 0.54073 0.22121 0.0
H540 H 0.26123 0.55925 0.24127 0.0
H541 H 0.25778 0.59595 0.13575 0.0
O542 O 0.40812 0.50086 0.16939 0.0
C543 C 0.33775 0.5556 0.10478 0.0
H544 H 0.09242 0.36441 0.44217 0.0
H545 H 0.11843 0.26684 0.44217 0.0
H546 H 0.10356 0.26255 0.50295 0.0
H547 H 0.08326 0.28668 0.55636 0.0
H548 H 0.06135 0.38509 0.55722 0.0
H549 H 0.07385 0.38882 0.49564 0.0
C550 C 0.09495 0.34221 0.45547 0.0
C551 C 0.10651 0.31599 0.4376 0.0
C552 C 0.08661 0.33998 0.49045 0.0
C553 C 0.10983 0.28747 0.45535 0.0
C554 C 0.1011 0.28492 0.49004 0.0
C555 C 0.08075 0.30875 0.54278 0.0
C556 C 0.07082 0.33545 0.56086 0.0
C557 C 0.08929 0.31097 0.5078 0.0
C558 C 0.06856 0.3642 0.54351 0.0
C559 C 0.0759 0.36635 0.50845 0.0
H560 H 0.84403 0.11783 0.56544 0.0
H561 H 0.84757 0.01804 0.54882 0.0
H562 H 0.84481 0.02623 0.48609 0.0
H563 H 0.84143 0.0621 0.43618 0.0
H564 H 0.84371 0.16192 0.45313 0.0
H565 H 0.84407 0.15357 0.51578 0.0
C566 C 0.84409 0.09789 0.54802 0.0
C567 C 0.84559 0.06736 0.56152 0.0
C568 C 0.84351 0.10287 0.51223 0.0
C569 C 0.84635 0.04171 0.53886 0.0
C570 C 0.8447 0.04641 0.50311 0.0
C571 C 0.84185 0.08195 0.45371 0.0
C572 C 0.8421 0.11258 0.44034 0.0
C573 C 0.84322 0.0769 0.48954 0.0
C574 C 0.84337 0.13819 0.46303 0.0
C575 C 0.84357 0.1334 0.49874 0.0
H576 H 0.06075 0.84315 0.56986 0.0
H577 H 0.15977 0.85608 0.55172 0.0
H578 H 0.15056 0.85435 0.4891 0.0
H579 H 0.114 0.84966 0.43967 0.0
H580 H 0.01452 0.84278 0.45828 0.0
H581 H 0.02408 0.84147 0.52077 0.0
C582 C 0.08031 0.84545 0.55213 0.0
C583 C 0.11094 0.84936 0.56518 0.0
C584 C 0.07467 0.84546 0.51641 0.0
C585 C 0.13603 0.853 0.54212 0.0
C586 C 0.13076 0.85193 0.50642 0.0
C587 C 0.09451 0.84764 0.45752 0.0
C588 C 0.06364 0.84583 0.44467 0.0
C589 C 0.10017 0.84817 0.4933 0.0
C590 C 0.03844 0.844 0.4678 0.0
C591 C 0.04392 0.84328 0.50341 0.0
H592 H 0.34306 0.06025 0.56547 0.0
H593 H 0.33802 0.15965 0.54699 0.0
H594 H 0.33722 0.15028 0.48444 0.0
H595 H 0.33587 0.11353 0.43527 0.0
H596 H 0.33465 0.01403 0.45436 0.0
H597 H 0.33997 0.02355 0.51653 0.0
C598 C 0.34215 0.07983 0.54765 0.0
C599 C 0.34103 0.1106 0.56058 0.0
C600 C 0.34037 0.07416 0.51197 0.0
C601 C 0.33906 0.1358 0.53745 0.0
C602 C 0.33857 0.13043 0.50179 0.0
C603 C 0.33703 0.09398 0.45309 0.0
C604 C 0.33516 0.06312 0.44039 0.0
C605 C 0.33893 0.09969 0.48879 0.0
C606 C 0.33606 0.03795 0.46366 0.0
C607 C 0.33913 0.0434 0.49913 0.0
H608 H 0.60524 0.78855 0.95166 0.0
H609 H 0.631 0.88627 0.95199 0.0
H610 H 0.61564 0.8906 0.01287 0.0
H611 H 0.59312 0.86669 0.06537 0.0
H612 H 0.56257 0.77007 0.06247 0.0
H613 H 0.58099 0.76529 1.00315 0.0
C614 C 0.60798 0.8106 0.96538 0.0
C615 C 0.61989 0.83688 0.94793 0.0
C616 C 0.59766 0.81321 0.99966 0.0
C617 C 0.62237 0.86566 0.96532 0.0
C618 C 0.61338 0.86816 0.99995 0.0
C619 C 0.59039 0.84465 0.05168 0.0
C620 C 0.57644 0.81881 0.06836 0.0
C621 C 0.60062 0.84215 0.01727 0.0
C622 C 0.57293 0.79044 0.05019 0.0
C623 C 0.58369 0.78757 0.01632 0.0
H624 H 0.30407 0.58699 0.95047 0.0
H625 H 0.39754 0.62663 0.95451 0.0
H626 H 0.40356 0.60839 0.01389 0.0
H627 H 0.38241 0.58095 0.06477 0.0
H628 H 0.28774 0.54505 0.06251 0.0
H629 H 0.28222 0.5613 1.00199 0.0
C630 C 0.3257 0.59185 0.96439 0.0
C631 C 0.35031 0.60819 0.94796 0.0
C632 C 0.32899 0.58136 0.99859 0.0
C633 C 0.3781 0.61436 0.96652 0.0
C634 C 0.3817 0.60368 1.00041 0.0
C635 C 0.36085 0.57617 0.05065 0.0
C636 C 0.33581 0.56106 0.06739 0.0
C637 C 0.35743 0.58691 0.01657 0.0
C638 C 0.3075 0.55601 0.04961 0.0
C639 C 0.30428 0.56558 0.01524 0.0
H640 H 0.59141 0.31416 0.93609 0.0
H641 H 0.55689 0.40897 0.93988 0.0
H642 H 0.57153 0.41254 1.00097 0.0
H643 H 0.59373 0.3883 0.05361 0.0
H644 H 0.62476 0.29247 0.04997 0.0
H645 H 0.61271 0.28993 0.98816 0.0
C646 C 0.58697 0.33563 0.95022 0.0
C647 C 0.57303 0.36125 0.93336 0.0
C648 C 0.59538 0.33748 0.98521 0.0
C649 C 0.56733 0.38879 0.95224 0.0
C650 C 0.57595 0.39094 0.98711 0.0
C651 C 0.59843 0.36716 0.03897 0.0
C652 C 0.61073 0.3408 0.05588 0.0
C653 C 0.59014 0.36548 0.00381 0.0
C654 C 0.61578 0.31314 0.03717 0.0
C655 C 0.60864 0.31162 1.002 0.0
H656 H 0.869 0.57601 0.07044 0.0
H657 H 0.78272 0.62824 0.06403 0.0
H658 H 0.77779 0.61462 1.00287 0.0
H659 H 0.79814 0.58779 0.95093 0.0
H660 H 0.88573 0.53831 0.95699 0.0
H661 H 0.88968 0.55024 0.01883 0.0
C662 C 0.84914 0.58459 0.05571 0.0
C663 C 0.82627 0.60318 0.07196 0.0
C664 C 0.84642 0.57662 0.02062 0.0
C665 C 0.8008 0.6141 0.05226 0.0
C666 C 0.79783 0.6061 0.01731 0.0
C667 C 0.81769 0.57915 0.96612 0.0
C668 C 0.84122 0.5615 0.94999 0.0
C669 C 0.82036 0.58718 1.00128 0.0
C670 C 0.86708 0.55132 0.9693 0.0
C671 C 0.86946 0.5584 0.00447 0.0
H672 H 0.17349 0.18973 0.33306 0.0
H673 H 0.22925 0.24235 0.26051 0.0
H674 H 0.2672 0.19951 0.25746 0.0
H675 H 0.28587 0.14828 0.27828 0.0
H676 H 0.2277 0.09424 0.34757 0.0
H677 H 0.18899 0.13607 0.34848 0.0
C678 C 0.19392 0.19163 0.31651 0.0
C679 C 0.199 0.21911 0.29743 0.0
C680 C 0.21503 0.16661 0.31415 0.0
C681 C 0.22509 0.22131 0.2755 0.0
C682 C 0.24674 0.19688 0.27379 0.0
C683 C 0.26449 0.1455 0.29316 0.0
C684 C 0.25981 0.1183 0.31304 0.0
C685 C 0.24213 0.16956 0.29334 0.0
C686 C 0.23186 0.11488 0.33194 0.0
C687 C 0.2098 0.1389 0.33271 0.0
H688 H 0.98139 0.17564 0.27892 0.0
H689 H 0.92104 0.23396 0.34064 0.0
H690 H 0.96 0.27614 0.33924 0.0
H691 H 0.01295 0.29472 0.3249 0.0
H692 H 0.07525 0.23475 0.2678 0.0
H693 H 0.03362 0.19526 0.26224 0.0
C694 C 0.97667 0.19769 0.29179 0.0
C695 C 0.94848 0.20156 0.31009 0.0
C696 C 0.9995 0.22161 0.29155 0.0
C697 C 0.94272 0.23024 0.32672 0.0
C698 C 0.96493 0.25443 0.32582 0.0
C699 C 0.01715 0.27334 0.31048 0.0
C700 C 0.04702 0.2677 0.29656 0.0
C701 C 0.99362 0.25018 0.30885 0.0
C702 C 0.05237 0.23962 0.2786 0.0
C703 C 0.02865 0.21697 0.27564 0.0
H704 H 0.9256 0.05794 0.35194 0.0
H705 H 0.87318 0.03346 0.26038 0.0
H706 H 0.90489 0.98603 0.25323 0.0
H707 H 0.94625 0.95044 0.27483 0.0
H708 H 0.99367 0.97253 0.37051 0.0
H709 H 0.96509 0.02179 0.37455 0.0
C710 C 0.92155 0.04245 0.3301 0.0
C711 C 0.89771 0.04937 0.30624 0.0
C712 C 0.93867 0.01459 0.32728 0.0
C713 C 0.89182 0.0287 0.27871 0.0
C714 C 0.90979 1.00156 0.27478 0.0
C715 C 0.95027 0.96612 0.29649 0.0
C716 C 0.97203 0.95794 0.32231 0.0
C717 C 0.93304 0.99406 0.29918 0.0
C718 C 0.97685 0.97823 0.35046 0.0
C719 C 0.96066 1.00647 0.3527 0.0
H720 H 0.20302 0.99312 0.33801 0.0
H721 H 0.25553 0.92613 0.27866 0.0
H722 H 0.20892 0.89229 0.27396 0.0
H723 H 0.15375 0.88103 0.28893 0.0
H724 H 0.10056 0.95017 0.3449 0.0
H725 H 0.14661 0.98426 0.34789 0.0
C726 C 0.20417 0.97103 0.32417 0.0
C727 C 0.23264 0.96168 0.30929 0.0
C728 C 0.17709 0.95233 0.3206 0.0
C729 C 0.23382 0.93353 0.29058 0.0
C730 C 0.20721 0.91428 0.28784 0.0
C731 C 0.15211 0.90372 0.30138 0.0
C732 C 0.12372 0.91282 0.31691 0.0
C733 C 0.17874 0.92335 0.30295 0.0
C734 C 0.12199 0.94251 0.33261 0.0
C735 C 0.14843 0.96196 0.33464 0.0
H736 H 0.23387 0.07289 0.66213 0.0
H737 H 0.3058 0.01926 0.71327 0.0
H738 H 0.27225 0.97266 0.71151 0.0
H739 H 0.22389 0.94602 0.69152 0.0
H740 H 0.1529 0.99979 0.63883 0.0
H741 H 0.18467 0.04707 0.64497 0.0
C742 C 0.24199 0.0512 0.67354 0.0
C743 C 0.27235 0.04969 0.6878 0.0
C744 C 0.22291 0.02421 0.67161 0.0
C745 C 0.28255 0.02117 0.70209 0.0
C746 C 0.26344 0.9944 0.70091 0.0
C747 C 0.21536 0.96808 0.68143 0.0
C748 C 0.18611 0.96914 0.66446 0.0
C749 C 0.23386 0.99543 0.68498 0.0
C750 C 0.17538 0.99808 0.65181 0.0
C751 C 0.19351 0.02527 0.65538 0.0
H752 H 0.16965 0.29848 0.66595 0.0
H753 H 0.1048 0.24012 0.72255 0.0
H754 H 0.14479 0.19961 0.72822 0.0
H755 H 0.19675 0.17919 0.71331 0.0
H756 H 0.26027 0.23583 0.6528 0.0
H757 H 0.22228 0.27852 0.65232 0.0
C758 C 0.16453 0.27715 0.68011 0.0
C759 C 0.13441 0.27236 0.69403 0.0
C760 C 0.18725 0.25346 0.6821 0.0
C761 C 0.12785 0.24434 0.7117 0.0
C762 C 0.15065 0.22114 0.71481 0.0
C763 C 0.20239 0.20096 0.70023 0.0
C764 C 0.23125 0.20426 0.68298 0.0
C765 C 0.1802 0.22516 0.69947 0.0
C766 C 0.23811 0.23257 0.66601 0.0
C767 C 0.21644 0.25704 0.66582 0.0
H768 H 0.88644 0.16403 0.67448 0.0
H769 H 0.94922 0.09325 0.71311 0.0
H770 H 0.99152 0.13211 0.71745 0.0
H771 H 0.01155 0.18532 0.7064 0.0
H772 H 0.94957 0.25494 0.66367 0.0
H773 H 0.90608 0.21739 0.66468 0.0
C774 C 0.90922 0.15722 0.68444 0.0
C775 C 0.91466 0.12585 0.69364 0.0
C776 C 0.93368 0.1794 0.68566 0.0
C777 C 0.94446 0.11727 0.70591 0.0
C778 C 0.96867 0.13945 0.70826 0.0
C779 C 0.98847 0.19233 0.69752 0.0
C780 C 0.98384 0.22284 0.68484 0.0
C781 C 0.96371 0.17043 0.69755 0.0
C782 C 0.95383 0.23152 0.67327 0.0
C783 C 0.92892 0.21009 0.67395 0.0
H784 H 0.01449 0.88143 0.67827 0.0
H785 H 0.08243 0.94605 0.72134 0.0
H786 H 0.04206 0.98636 0.7257 0.0
H787 H 0.98863 1.00438 0.71305 0.0
H788 H 0.92201 0.94109 0.66529 0.0
H789 H 0.96076 0.89908 0.66683 0.0
C790 C 0.02033 0.90415 0.68923 0.0
C791 C 0.05134 0.91071 0.69972 0.0
C792 C 0.99735 0.92755 0.69031 0.0
C793 C 0.05869 0.94043 0.71323 0.0
C794 C 0.03566 0.96351 0.71556 0.0
C795 C 0.9825 0.98131 0.70323 0.0
C796 C 0.95254 0.97586 0.68897 0.0
C797 C 1.00511 0.95753 0.70348 0.0
C798 C 0.94502 0.94593 0.67613 0.0
C799 C 0.96712 0.9219 0.67711 0.0
H800 H 0.68831 0.69012 0.79637 0.0
H801 H 0.74505 0.75319 0.85787 0.0
H802 H 0.78747 0.71489 0.85896 0.0
H803 H 0.80717 0.66229 0.84533 0.0
H804 H 0.74871 0.59781 0.78775 0.0
H805 H 0.70841 0.63799 0.78174 0.0
C806 C 0.71004 0.69558 0.80981 0.0
C807 C 0.71348 0.72441 0.82712 0.0
C808 C 0.73405 0.67321 0.81091 0.0
C809 C 0.74171 0.73105 0.84459 0.0
C810 C 0.76602 0.70921 0.84512 0.0
C811 C 0.78585 0.65725 0.83092 0.0
C812 C 0.78098 0.62721 0.81679 0.0
C813 C 0.76231 0.68007 0.82871 0.0
C814 C 0.75299 0.62079 0.79878 0.0
C815 C 0.72991 0.64371 0.79546 0.0
H816 H 0.5234 0.79376 0.83801 0.0
H817 H 0.59193 0.72769 0.80123 0.0
H818 H 0.55135 0.6871 0.79713 0.0
H819 H 0.49717 0.66955 0.80732 0.0
H820 H 0.42937 0.73476 0.84749 0.0
H821 H 0.46894 0.77648 0.84705 0.0
C822 C 0.52938 0.77061 0.82859 0.0
C823 C 0.56064 0.7638 0.81982 0.0
C824 C 0.50613 0.74713 0.82732 0.0
C825 C 0.56806 0.73355 0.80814 0.0
C826 C 0.54488 0.7103 0.8059 0.0
C827 C 0.49098 0.69293 0.8158 0.0
C828 C 0.46038 0.69898 0.82755 0.0
C829 C 0.51397 0.71668 0.81599 0.0
C830 C 0.45281 0.72939 0.83859 0.0
C831 C 0.4754 0.75329 0.83824 0.0
H832 H 0.45638 0.44967 0.81423 0.0
H833 H 0.53428 0.51256 0.83385 0.0
H834 H 0.49974 0.55742 0.82822 0.0
H835 H 0.4472 0.57881 0.822 0.0
H836 H 0.36834 0.51668 0.80448 0.0
H837 H 0.40361 0.47171 0.80423 0.0
C838 C 0.4658 0.4732 0.81713 0.0
C839 C 0.49786 0.47763 0.82485 0.0
C840 C 0.44569 0.49911 0.81407 0.0
C841 C 0.5097 0.50833 0.82824 0.0
C842 C 0.48997 0.53409 0.82493 0.0
C843 C 0.43765 0.55554 0.81751 0.0
C844 C 0.40506 0.55124 0.81348 0.0
C845 C 0.45788 0.52975 0.81836 0.0
C846 C 0.3933 0.52077 0.80774 0.0
C847 C 0.41344 0.49498 0.80782 0.0
H848 H 0.70148 0.50456 0.78482 0.0
H849 H 0.76054 0.44256 0.84385 0.0
H850 H 0.72047 0.40141 0.84025 0.0
H851 H 0.66718 0.38448 0.82418 0.0
H852 H 0.60649 0.44801 0.76941 0.0
H853 H 0.64888 0.48689 0.76685 0.0
C854 C 0.70571 0.48196 0.79666 0.0
C855 C 0.73391 0.47672 0.81476 0.0
C856 C 0.6823 0.45862 0.79509 0.0
C857 C 0.73894 0.44733 0.83005 0.0
C858 C 0.71607 0.42374 0.8279 0.0
C859 C 0.66346 0.40655 0.81096 0.0
C860 C 0.6338 0.41325 0.79672 0.0
C861 C 0.68748 0.42928 0.81093 0.0
C862 C 0.62915 0.44223 0.78037 0.0
C863 C 0.65331 0.46454 0.77912 0.0
H864 H 0.66736 0.48601 0.21578 0.0
H865 H 0.72577 0.41999 0.16168 0.0
H866 H 0.77012 0.45641 0.16524 0.0
H867 H 0.79136 0.50837 0.18018 0.0
H868 H 0.73195 0.57576 0.23063 0.0
H869 H 0.68921 0.53729 0.23265 0.0
C870 C 0.68984 0.47949 0.20496 0.0
C871 C 0.69312 0.45036 0.18827 0.0
C872 C 0.71516 0.50078 0.2066 0.0
C873 C 0.72245 0.44236 0.17435 0.0
C874 C 0.74789 0.46314 0.17649 0.0
C875 C 0.76929 0.51441 0.1923 0.0
C876 C 0.76491 0.54484 0.20543 0.0
C877 C 0.74442 0.49257 0.19216 0.0
C878 C 0.73594 0.55248 0.22043 0.0
C879 C 0.71143 0.53055 0.22141 0.0
H880 H 0.68588 0.66775 0.2233 0.0
H881 H 0.7543 0.72986 0.17737 0.0
H882 H 0.71635 0.77256 0.17815 0.0
H883 H 0.66269 0.79103 0.18776 0.0
H884 H 0.59295 0.72769 0.22895 0.0
H885 H 0.63263 0.68682 0.23484 0.0
C886 C 0.69258 0.69071 0.21373 0.0
C887 C 0.72281 0.69559 0.20011 0.0
C888 C 0.67043 0.71494 0.21355 0.0
C889 C 0.73108 0.72542 0.18767 0.0
C890 C 0.70943 0.74987 0.18822 0.0
C891 C 0.65632 0.7685 0.19874 0.0
C892 C 0.62497 0.76242 0.20811 0.0
C893 C 0.6789 0.74475 0.20061 0.0
C894 C 0.61695 0.73293 0.22166 0.0
C895 C 0.63958 0.70953 0.22483 0.0
H896 H 0.49542 0.69623 0.17026 0.0
H897 H 0.43362 0.75412 0.23029 0.0
H898 H 0.39492 0.7113 0.23296 0.0
H899 H 0.3783 0.65759 0.21637 0.0
H900 H 0.44311 0.59906 0.16047 0.0
H901 H 0.48113 0.64168 0.15848 0.0
C902 C 0.47343 0.69937 0.18388 0.0
C903 C 0.46696 0.72816 0.19961 0.0
C904 C 0.45196 0.67448 0.18623 0.0
C905 C 0.43884 0.732 0.21788 0.0
C906 C 0.41679 0.70759 0.21938 0.0
C907 C 0.40086 0.65417 0.20406 0.0
C908 C 0.40773 0.62526 0.18843 0.0
C909 C 0.42303 0.67873 0.20345 0.0
C910 C 0.4372 0.62102 0.17284 0.0
C911 C 0.45895 0.64544 0.17146 0.0
H912 H 0.56221 0.43964 0.19724 0.0
H913 H 0.50442 0.35968 0.1703 0.0
H914 H 0.45775 0.39214 0.17157 0.0
H915 H 0.4333 0.44394 0.17717 0.0
H916 H 0.4904 0.52336 0.2069 0.0
H917 H 0.53713 0.49054 0.20758 0.0
C918 C 0.53938 0.42925 0.19201 0.0
C919 C 0.53702 0.39731 0.1834 0.0
C920 C 0.51241 0.44804 0.19291 0.0
C921 C 0.50712 0.38421 0.17696 0.0
C922 C 0.4803 0.40279 0.17749 0.0
C923 C 0.456 0.45397 0.1838 0.0
C924 C 0.4585 0.48601 0.19159 0.0
C925 C 0.48271 0.43484 0.18481 0.0
C926 C 0.48791 0.49869 0.20075 0.0
C927 C 0.51467 0.47997 0.20112 0.0
H928 H 0.28928 0.43762 0.20832 0.0
H929 H 0.27334 0.50607 0.28819 0.0
H930 H 0.2358 0.47083 0.31624 0.0
H931 H 0.20476 0.42204 0.31575 0.0
H932 H 0.22107 0.35288 0.23686 0.0
H933 H 0.26159 0.38648 0.21095 0.0
C934 C 0.2781 0.44443 0.23229 0.0
C935 C 0.2839 0.47437 0.24619 0.0
C936 C 0.25645 0.42402 0.24822 0.0
C937 C 0.26902 0.48315 0.27701 0.0
C938 C 0.24754 0.46307 0.29297 0.0
C939 C 0.21736 0.41437 0.29297 0.0
C940 C 0.20981 0.38536 0.27784 0.0
C941 C 0.24057 0.43374 0.27841 0.0
C942 C 0.22654 0.37525 0.24876 0.0
C943 C 0.24959 0.39447 0.23394 0.0
H944 H 0.74113 0.20334 0.31003 0.0
H945 H 0.81174 0.21813 0.23227 0.0
H946 H 0.77887 0.25786 0.20446 0.0
H947 H 0.72815 0.28567 0.20018 0.0
H948 H 0.65751 0.26991 0.27775 0.0
H949 H 0.6921 0.23335 0.30786 0.0
C950 C 0.74925 0.21537 0.28702 0.0
C951 C 0.77854 0.20774 0.27291 0.0
C952 C 0.73017 0.23793 0.2712 0.0
C953 C 0.78917 0.2237 0.24346 0.0
C954 C 0.77037 0.24631 0.22756 0.0
C955 C 0.7207 0.27461 0.22403 0.0
C956 C 0.69044 0.28032 0.23685 0.0
C957 C 0.74061 0.25331 0.24092 0.0
C958 C 0.68075 0.26571 0.26751 0.0
C959 C 0.70045 0.24478 0.28462 0.0
H960 H 0.88852 0.7304 0.20898 0.0
H961 H 0.91107 0.66064 0.28537 0.0
H962 H 0.94797 0.69695 0.31314 0.0
H963 H 0.9754 0.74792 0.31443 0.0
H964 H 0.95181 0.81863 0.23967 0.0
H965 H 0.91321 0.78305 0.21299 0.0
C966 C 0.90117 0.72338 0.23202 0.0
C967 C 0.89731 0.69276 0.24493 0.0
C968 C 0.92214 0.74459 0.2481 0.0
C969 C 0.91401 0.68391 0.27466 0.0
C970 C 0.93502 0.7047 0.29061 0.0
C971 C 0.96168 0.75549 0.29235 0.0
C972 C 0.96662 0.78563 0.27868 0.0
C973 C 0.93958 0.73494 0.27731 0.0
C974 C 0.9484 0.79547 0.2505 0.0
C975 C 0.92646 0.77509 0.23521 0.0
H976 H 0.37277 0.93631 0.26828 0.0
H977 H 0.44041 0.0114 0.28084 0.0
H978 H 0.47994 0.98032 0.25284 0.0
H979 H 0.49532 0.93207 0.22415 0.0
H980 H 0.43561 0.8505 0.23483 0.0
H981 H 0.39289 0.88366 0.25384 0.0
C982 C 0.39619 0.94589 0.26593 0.0
C983 C 0.40244 0.97738 0.275 0.0
C984 C 0.42035 0.92648 0.25349 0.0
C985 C 0.4335 0.98856 0.27154 0.0
C986 C 0.45666 0.97038 0.25622 0.0
C987 C 0.47374 0.92082 0.23198 0.0
C988 C 0.46926 0.88839 0.22713 0.0
C989 C 0.4503 0.93934 0.24692 0.0
C990 C 0.4399 0.8754 0.23628 0.0
C991 C 0.41539 0.89436 0.24798 0.0
H992 H 0.2674 0.68599 0.74143 0.0
H993 H 0.2955 0.7428 0.82834 0.0
H994 H 0.26151 0.78526 0.8084 0.0
H995 H 0.2211 0.80504 0.76773 0.0
H996 H 0.19256 0.7473 0.6817 0.0
H997 H 0.22916 0.70653 0.69958 0.0
C998 C 0.2661 0.70776 0.75586 0.0
C999 C 0.28384 0.71133 0.78625 0.0
C1000 C 0.24626 0.73186 0.74442 0.0
C1001 C 0.2822 0.73966 0.80468 0.0
C1002 C 0.26266 0.76386 0.79338 0.0
C1003 C 0.22331 0.78366 0.75279 0.0
C1004 C 0.20408 0.77898 0.72364 0.0
C1005 C 0.24427 0.76011 0.76348 0.0
C1006 C 0.20696 0.75121 0.70443 0.0
C1007 C 0.22786 0.7279 0.71464 0.0
H1008 H 0.37902 0.22457 0.75992 0.0
H1009 H 0.4379 0.19286 0.67677 0.0
H1010 H 0.47785 0.2318 0.69222 0.0
H1011 H 0.49739 0.27302 0.73128 0.0
H1012 H 0.43901 0.30539 0.81445 0.0
H1013 H 0.39737 0.26866 0.79695 0.0
C1014 C 0.40049 0.22652 0.74509 0.0
C1015 C 0.40582 0.2056 0.71765 0.0
C1016 C 0.42341 0.24911 0.75412 0.0
C1017 C 0.4336 0.20837 0.6984 0.0
C1018 C 0.45639 0.23067 0.70715 0.0
C1019 C 0.4754 0.27214 0.74533 0.0
C1020 C 0.47118 0.29181 0.77403 0.0
C1021 C 0.45179 0.25082 0.73528 0.0
C1022 C 0.44262 0.29065 0.79203 0.0
C1023 C 0.41892 0.2695 0.78217 0.0
H1024 H 0.98295 0.43172 0.6958 0.0
H1025 H 0.97121 0.36036 0.77331 0.0
H1026 H 0.93178 0.39239 0.8027 0.0
H1027 H 0.90289 0.44235 0.80799 0.0
H1028 H 0.91522 0.51356 0.73035 0.0
H1029 H 0.95213 0.48015 0.69928 0.0
C1030 C 0.97167 0.42327 0.71913 0.0
C1031 C 0.98004 0.39397 0.73266 0.0
C1032 C 0.9492 0.44184 0.7358 0.0
C1033 C 0.96506 0.38292 0.76255 0.0
C1034 C 0.94261 0.40124 0.77934 0.0
C1035 C 0.91331 0.4502 0.78395 0.0
C1036 C 0.90647 0.48028 0.77136 0.0
C1037 C 0.93473 0.43091 0.76641 0.0
C1038 C 0.92029 0.49047 0.74045 0.0
C1039 C 0.94141 0.47144 0.72277 0.0
H1040 H 0.70456 0.93076 0.81132 0.0
H1041 H 0.72289 0.85864 0.73628 0.0
H1042 H 0.76091 0.893 0.70716 0.0
H1043 H 0.78677 0.9448 0.70153 0.0
H1044 H 0.76825 0.01659 0.77704 0.0
H1045 H 0.73206 0.98143 0.80728 0.0
C1046 C 0.71696 0.92266 0.78858 0.0
C1047 C 0.71088 0.89246 0.77564 0.0
C1048 C 0.73849 0.94257 0.77201 0.0
C1049 C 0.7273 0.88188 0.74655 0.0
C1050 C 0.74888 0.90154 0.7299 0.0
C1051 C 0.77514 0.95248 0.72491 0.0
C1052 C 0.7801 0.98317 0.73713 0.0
C1053 C 0.75442 0.93207 0.74218 0.0
C1054 C 0.76456 0.99311 0.76709 0.0
C1055 C 0.74396 0.97302 0.78441 0.0
H1056 H 0.04864 0.69401 0.72565 0.0
H1057 H 0.97863 0.76569 0.71475 0.0
H1058 H 0.94281 0.73606 0.75217 0.0
H1059 H 0.932 0.68998 0.78883 0.0
H1060 H 1.0038 0.6205 0.80311 0.0
H1061 H 0.03855 0.64899 0.76372 0.0
C1062 C 0.02544 0.70293 0.73141 0.0
C1063 C 0.01603 0.73173 0.71757 0.0
C1064 C 1.00548 0.68624 0.75361 0.0
C1065 C 0.98621 0.7435 0.72537 0.0
C1066 C 0.96581 0.7266 0.74667 0.0
C1067 C 0.9552 0.68111 0.78306 0.0
C1068 C 0.96538 0.65317 0.79841 0.0
C1069 C 0.97525 0.69799 0.76105 0.0
C1070 C 0.99564 0.64205 0.79148 0.0
C1071 C 0.01541 0.65824 0.76893 0.0
H1072 H 0.47513 0.99376 0.68559 0.0
H1073 H 0.43836 0.0456 0.77207 0.0
H1074 H 0.46893 0.01394 0.81189 0.0
H1075 H 0.50672 0.97185 0.82229 0.0
H1076 H 0.54781 0.92386 0.7355 0.0
H1077 H 0.51506 0.95355 0.69581 0.0
C1078 C 0.47376 0.99806 0.71317 0.0
C1079 C 0.45346 0.02118 0.72584 0.0
C1080 C 0.49217 0.98035 0.73593 0.0
C1081 C 0.45242 0.02691 0.7616 0.0
C1082 C 0.47033 1.0091 0.78444 0.0
C1083 C 0.5084 0.96782 0.79468 0.0
C1084 C 0.52874 0.94474 0.78204 0.0
C1085 C 0.49019 0.98569 0.7719 0.0
C1086 C 0.53119 0.94025 0.74616 0.0
C1087 C 0.5128 0.95762 0.72333 0.0
H1088 H 0.14812 0.44346 0.75902 0.0
H1089 H 0.17842 0.48425 0.6627 0.0
H1090 H 0.21169 0.52145 0.6941 0.0
H1091 H 0.2315 0.54262 0.7488 0.0
H1092 H 0.20413 0.4993 0.84489 0.0
H1093 H 0.17018 0.4628 0.81355 0.0
C1094 C 0.16272 0.45972 0.74475 0.0
C1095 C 0.16145 0.46038 0.70846 0.0
C1096 C 0.18212 0.48076 0.76293 0.0
C1097 C 0.1792 0.48302 0.69064 0.0
C1098 C 0.19825 0.50429 0.70856 0.0
C1099 C 0.21903 0.52466 0.76294 0.0
C1100 C 0.2212 0.52327 0.79917 0.0
C1101 C 0.19997 0.50331 0.74472 0.0
C1102 C 0.20312 0.50084 0.81697 0.0
C1103 C 0.18375 0.47985 0.79908 0.0
H1104 H 0.69677 0.23728 0.80971 0.0
H1105 H 0.61492 0.22266 0.74594 0.0
H1106 H 0.64489 0.18846 0.70757 0.0
H1107 H 0.69424 0.16255 0.69266 0.0
H1108 H 0.77722 0.18113 0.75384 0.0
H1109 H 0.74691 0.21338 0.79301 0.0
C1110 C 0.68562 0.22651 0.78738 0.0
C1111 C 0.65391 0.23247 0.78034 0.0
C1112 C 0.70309 0.20731 0.76528 0.0
C1113 C 0.63953 0.21871 0.75137 0.0
C1114 C 0.65658 0.19905 0.72963 0.0
C1115 C 0.70577 0.17364 0.71455 0.0
C1116 C 0.73782 0.1682 0.72092 0.0
C1117 C 0.6884 0.19322 0.73633 0.0
C1118 C 0.75236 0.18326 0.74912 0.0
C1119 C 0.73509 0.20227 0.77134 0.0
H1120 H 0.98901 0.42329 0.29245 0.0
H1121 H 0.06737 0.48748 0.28789 0.0
H1122 H 0.03662 0.52352 0.25239 0.0
H1123 H 0.98749 0.53649 0.22225 0.0
H1124 H 0.90781 0.47425 0.23007 0.0
H1125 H 0.93881 0.43764 0.26474 0.0
C1126 C 0.99923 0.44516 0.28352 0.0
C1127 C 0.03038 0.45273 0.29226 0.0
C1128 C 0.98116 0.46604 0.26384 0.0
C1129 C 0.04339 0.4813 0.28128 0.0
C1130 C 0.02587 0.50182 0.26098 0.0
C1131 C 0.97702 0.51488 0.23162 0.0
C1132 C 0.94557 0.50792 0.22377 0.0
C1133 C 0.99477 0.49439 0.25204 0.0
C1134 C 0.93198 0.4801 0.23618 0.0
C1135 C 0.94971 0.45917 0.25582 0.0
H1136 H 0.62466 0.98268 0.22893 0.0
H1137 H 0.69543 0.91186 0.21696 0.0
H1138 H 0.73268 0.9437 0.25045 0.0
H1139 H 0.74474 0.99161 0.28367 0.0
H1140 H 0.67316 0.06143 0.29725 0.0
H1141 H 0.6364 0.03004 0.26281 0.0
C1142 C 0.64829 0.97435 0.23364 0.0
C1143 C 0.65736 0.94502 0.22085 0.0
C1144 C 0.66931 0.99256 0.25321 0.0
C1145 C 0.6879 0.93424 0.2271 0.0
C1146 C 0.70919 0.95247 0.24607 0.0
C1147 C 0.7212 1.00002 0.27871 0.0
C1148 C 0.7117 0.0289 0.29243 0.0
C1149 C 0.70012 0.98165 0.25931 0.0
C1150 C 0.68091 0.03924 0.28678 0.0
C1151 C 0.65995 0.02137 0.26707 0.0
H1152 H 0.17161 0.70518 0.32446 0.0
H1153 H 0.12843 0.74807 0.23559 0.0
H1154 H 0.16096 0.71672 0.19717 0.0
H1155 H 0.20166 0.67712 0.18885 0.0
H1156 H 0.24082 0.63033 0.2777 0.0
H1157 H 0.2101 0.6632 0.316 0.0
C1158 C 0.16944 0.70768 0.29667 0.0
C1159 C 0.14867 0.72984 0.28288 0.0
C1160 C 0.18763 0.68898 0.27473 0.0
C1161 C 0.14544 0.73233 0.24686 0.0
C1162 C 0.16372 0.7141 0.22486 0.0
C1163 C 0.20352 0.67412 0.21661 0.0
C1164 C 0.22456 0.6521 0.23029 0.0
C1165 C 0.18501 0.69248 0.23853 0.0
C1166 C 0.22621 0.64814 0.26631 0.0
C1167 C 0.20819 0.66664 0.28833 0.0
H1168 H 0.42308 0.18955 0.28028 0.0
H1169 H 0.484 0.1093 0.28043 0.0
H1170 H 0.52026 0.13612 0.24146 0.0
H1171 H 0.53489 0.18258 0.20773 0.0
H1172 H 0.47568 0.26399 0.20965 0.0
H1173 H 0.43832 0.23663 0.24719 0.0
C1174 C 0.44419 0.17798 0.2715 0.0
C1175 C 0.45086 0.14752 0.28284 0.0
C1176 C 0.46518 0.19375 0.24955 0.0
C1177 C 0.47854 0.13285 0.272 0.0
C1178 C 0.49919 0.14809 0.24966 0.0
C1179 C 0.5137 0.19417 0.2163 0.0
C1180 C 0.50794 0.22513 0.20623 0.0
C1181 C 0.49277 0.17854 0.23831 0.0
C1182 C 0.48064 0.2402 0.21756 0.0
C1183 C 0.45929 0.22455 0.23887 0.0
loop_
_geom_bond_atom_site_label_1
_geom_bond_atom_site_label_2
_geom_bond_distance
_geom_bond_site_symmetry_2
_ccdc_geom_bond_type
Co0 O3 1.970 . S
Co0 N17 1.989 . S
Co0 O25 1.967 . S
Co0 O32 1.920 . S
Co1 O4 1.966 . S
Co1 N10 2.022 . S
Co1 N18 1.993 . S
Co1 O26 1.941 . S
C2 O3 1.258 . S
C2 O4 1.263 . S
O3 Co0 1.970 . S
O3 C2 1.258 . S
O4 Co1 1.966 . S
O4 C2 1.263 . S
C5 O6 1.235 . S
C5 O32 1.289 . S
O6 C5 1.235 . S
C7 C9 1.400 . S
C7 N10 1.351 . S
C7 C12 1.501 . S
C8 C9 1.387 . S
C8 N11 1.341 . S
C9 C7 1.400 . S
C9 C8 1.387 . S
N10 Co1 2.022 . S
N10 C7 1.351 . S
N10 N11 1.365 . S
N11 C8 1.341 . S
N11 N10 1.365 . S
N11 H31 0.862 . S
C12 C7 1.501 . S
C12 H13 0.961 . S
C12 H14 0.961 . S
C12 H15 0.960 1_455 S
H13 C12 0.961 . S
H14 C12 0.961 . S
H15 C12 0.960 1_655 S
C16 N17 1.342 . S
C16 C20 1.401 . S
C16 C21 1.499 . S
N17 Co0 1.989 . S
N17 C16 1.342 . S
N17 N18 1.388 . S
N18 Co1 1.993 . S
N18 N17 1.388 . S
N18 C19 1.346 . S
C19 N18 1.346 . S
C19 C20 1.396 . S
C19 C29 1.510 . S
C20 C16 1.401 . S
C20 C19 1.396 . S
C21 C16 1.499 . S
C21 H22 0.959 . S
C21 H23 0.960 . S
C21 H24 0.961 . S
H22 C21 0.959 . S
H23 C21 0.960 . S
H24 C21 0.961 . S
O25 Co0 1.967 . S
O25 C33 1.258 . S
O26 Co1 1.941 . S
O26 C33 1.266 . S
H27 C29 0.959 . S
H28 C29 0.961 . S
C29 C19 1.510 . S
C29 H27 0.959 . S
C29 H28 0.961 . S
C29 H30 0.960 . S
H30 C29 0.960 . S
H31 N11 0.862 . S
O32 Co0 1.920 . S
O32 C5 1.289 . S
C33 O25 1.258 . S
C33 O26 1.266 . S
Co34 O37 1.970 . S
Co34 N51 1.989 . S
Co34 O59 1.967 . S
Co34 O66 1.920 . S
Co35 O38 1.966 . S
Co35 N44 2.022 . S
Co35 N52 1.993 . S
Co35 O60 1.941 . S
C36 O37 1.258 . S
C36 O38 1.263 . S
O37 Co34 1.970 . S
O37 C36 1.258 . S
O38 Co35 1.966 . S
O38 C36 1.263 . S
C39 O40 1.235 . S
C39 O66 1.289 . S
O40 C39 1.235 . S
C41 C43 1.400 . S
C41 N44 1.351 . S
C41 C46 1.501 . S
C42 C43 1.387 . S
C42 N45 1.341 . S
C43 C41 1.400 . S
C43 C42 1.387 . S
N44 Co35 2.022 . S
N44 C41 1.351 . S
N44 N45 1.365 . S
N45 C42 1.341 . S
N45 N44 1.365 . S
N45 H65 0.862 . S
C46 C41 1.501 . S
C46 H47 0.961 . S
C46 H48 0.961 . S
C46 H49 0.960 1_545 S
H47 C46 0.961 . S
H48 C46 0.961 . S
H49 C46 0.960 1_565 S
C50 N51 1.342 . S
C50 C54 1.401 . S
C50 C55 1.499 . S
N51 Co34 1.989 . S
N51 C50 1.342 . S
N51 N52 1.388 . S
N52 Co35 1.993 . S
N52 N51 1.388 . S
N52 C53 1.346 . S
C53 N52 1.346 . S
C53 C54 1.396 . S
C53 C63 1.510 . S
C54 C50 1.401 . S
C54 C53 1.396 . S
C55 C50 1.499 . S
C55 H56 0.959 . S
C55 H57 0.960 . S
C55 H58 0.961 . S
H56 C55 0.959 . S
H57 C55 0.960 . S
H58 C55 0.961 . S
O59 Co34 1.967 . S
O59 C67 1.258 . S
O60 Co35 1.941 . S
O60 C67 1.266 . S
H61 C63 0.959 . S
H62 C63 0.961 . S
C63 C53 1.510 . S
C63 H61 0.959 . S
C63 H62 0.961 . S
C63 H64 0.960 . S
H64 C63 0.960 . S
H65 N45 0.862 . S
O66 Co34 1.920 . S
O66 C39 1.289 . S
C67 O59 1.258 . S
C67 O60 1.266 . S
Co68 O71 1.970 . S
Co68 N85 1.989 . S
Co68 O93 1.967 . S
Co68 O100 1.920 . S
Co69 O72 1.966 . S
Co69 N78 2.022 . S
Co69 N86 1.993 . S
Co69 O94 1.941 . S
C70 O71 1.258 . S
C70 O72 1.263 . S
O71 Co68 1.970 . S
O71 C70 1.258 . S
O72 Co69 1.966 . S
O72 C70 1.263 . S
C73 O74 1.236 . S
C73 O100 1.289 1_655 S
O74 C73 1.236 . S
C75 C77 1.400 . S
C75 N78 1.351 . S
C75 C80 1.501 . S
C76 C77 1.387 . S
C76 N79 1.341 . S
C77 C75 1.400 . S
C77 C76 1.387 . S
N78 Co69 2.022 . S
N78 C75 1.351 . S
N78 N79 1.365 . S
N79 C76 1.341 . S
N79 N78 1.365 . S
N79 H99 0.862 . S
C80 C75 1.501 . S
C80 H81 0.961 . S
C80 H82 0.961 . S
C80 H83 0.960 . S
H81 C80 0.961 . S
H82 C80 0.961 . S
H83 C80 0.960 . S
C84 N85 1.342 1_655 S
C84 C88 1.400 1_655 S
C84 C89 1.499 . S
N85 Co68 1.989 . S
N85 C84 1.342 1_455 S
N85 N86 1.388 . S
N86 Co69 1.993 . S
N86 N85 1.388 . S
N86 C87 1.346 . S
C87 N86 1.346 . S
C87 C88 1.404 . S
C87 C97 1.510 . S
C88 C84 1.400 1_455 S
C88 C87 1.404 . S
C89 C84 1.499 . S
C89 H90 0.959 . S
C89 H91 0.960 . S
C89 H92 0.961 . S
H90 C89 0.959 . S
H91 C89 0.960 . S
H92 C89 0.961 . S
O93 Co68 1.967 . S
O93 C101 1.258 . S
O94 Co69 1.941 . S
O94 C101 1.266 . S
H95 C97 0.959 . S
H96 C97 0.961 . S
C97 C87 1.510 . S
C97 H95 0.959 . S
C97 H96 0.961 . S
C97 H98 0.960 . S
H98 C97 0.960 . S
H99 N79 0.862 . S
O100 Co68 1.920 . S
O100 C73 1.289 1_455 S
C101 O93 1.258 . S
C101 O94 1.266 . S
Co102 O105 1.970 . S
Co102 N119 1.989 . S
Co102 O127 1.967 . S
Co102 O134 1.950 . S
Co103 O106 1.966 . S
Co103 N112 2.022 . S
Co103 N120 1.993 . S
Co103 O128 1.941 . S
C104 O105 1.258 . S
C104 O106 1.263 . S
O105 Co102 1.970 . S
O105 C104 1.258 . S
O106 Co103 1.966 . S
O106 C104 1.263 . S
C107 O108 1.236 . S
C107 O134 1.276 1_565 S
O108 C107 1.236 . S
C109 C111 1.400 . S
C109 N112 1.351 . S
C109 C114 1.501 . S
C110 C111 1.387 . S
C110 N113 1.341 . S
C111 C109 1.400 . S
C111 C110 1.387 . S
N112 Co103 2.022 . S
N112 C109 1.351 . S
N112 N113 1.365 . S
N113 C110 1.341 . S
N113 N112 1.365 . S
N113 H133 0.862 . S
C114 C109 1.501 . S
C114 H115 0.961 . S
C114 H116 0.961 . S
C114 H117 0.960 . S
H115 C114 0.961 . S
H116 C114 0.961 . S
H117 C114 0.960 . S
C118 N119 1.342 1_565 S
C118 C122 1.400 1_565 S
C118 C123 1.499 . S
N119 Co102 1.989 . S
N119 C118 1.342 1_545 S
N119 N120 1.388 . S
N120 Co103 1.993 . S
N120 N119 1.388 . S
N120 C121 1.346 . S
C121 N120 1.346 . S
C121 C122 1.404 . S
C121 C131 1.510 . S
C122 C118 1.400 1_545 S
C122 C121 1.404 . S
C123 C118 1.499 . S
C123 H124 0.959 . S
C123 H125 0.960 . S
C123 H126 0.961 . S
H124 C123 0.959 . S
H125 C123 0.960 . S
H126 C123 0.961 . S
O127 Co102 1.967 . S
O127 C135 1.258 . S
O128 Co103 1.941 . S
O128 C135 1.266 . S
H129 C131 0.959 . S
H130 C131 0.961 . S
C131 C121 1.510 . S
C131 H129 0.959 . S
C131 H130 0.961 . S
C131 H132 0.960 . S
H132 C131 0.960 . S
H133 N113 0.862 . S
O134 Co102 1.950 . S
O134 C107 1.276 1_545 S
C135 O127 1.258 . S
C135 O128 1.266 . S
Co136 O139 1.970 . S
Co136 N153 1.989 . S
Co136 O161 1.967 . S
Co136 O168 1.920 . S
Co137 O140 1.966 . S
Co137 N146 2.022 . S
Co137 N154 1.993 . S
Co137 O162 1.941 . S
C138 O139 1.258 . S
C138 O140 1.263 . S
O139 Co136 1.970 . S
O139 C138 1.258 . S
O140 Co137 1.966 . S
O140 C138 1.263 . S
C141 O142 1.235 . S
C141 O168 1.289 . S
O142 C141 1.235 . S
C143 C145 1.400 . S
C143 N146 1.351 . S
C143 C148 1.501 . S
C144 C145 1.387 . S
C144 N147 1.341 . S
C145 C143 1.400 . S
C145 C144 1.387 . S
N146 Co137 2.022 . S
N146 C143 1.351 . S
N146 N147 1.365 . S
N147 C144 1.341 . S
N147 N146 1.365 . S
N147 H167 0.862 . S
C148 C143 1.501 . S
C148 H149 0.961 . S
C148 H150 0.961 . S
C148 H151 0.960 1_455 S
H149 C148 0.961 . S
H150 C148 0.961 . S
H151 C148 0.960 1_655 S
C152 N153 1.342 . S
C152 C156 1.401 . S
C152 C157 1.499 . S
N153 Co136 1.989 . S
N153 C152 1.342 . S
N153 N154 1.388 . S
N154 Co137 1.993 . S
N154 N153 1.388 . S
N154 C155 1.346 . S
C155 N154 1.346 . S
C155 C156 1.396 . S
C155 C165 1.510 . S
C156 C152 1.401 . S
C156 C155 1.396 . S
C157 C152 1.499 . S
C157 H158 0.959 . S
C157 H159 0.960 . S
C157 H160 0.961 . S
H158 C157 0.959 . S
H159 C157 0.960 . S
H160 C157 0.961 . S
O161 Co136 1.967 . S
O161 C169 1.258 . S
O162 Co137 1.941 . S
O162 C169 1.266 . S
H163 C165 0.959 . S
H164 C165 0.961 . S
C165 C155 1.510 . S
C165 H163 0.959 . S
C165 H164 0.961 . S
C165 H166 0.960 . S
H166 C165 0.960 . S
H167 N147 0.862 . S
O168 Co136 1.920 . S
O168 C141 1.289 . S
C169 O161 1.258 . S
C169 O162 1.266 . S
Co170 O173 1.970 . S
Co170 N187 1.989 . S
Co170 O195 1.967 . S
Co170 O202 1.920 . S
Co171 O174 1.966 . S
Co171 N180 2.022 . S
Co171 N188 1.993 . S
Co171 O196 1.941 . S
C172 O173 1.258 . S
C172 O174 1.263 . S
O173 Co170 1.970 . S
O173 C172 1.258 . S
O174 Co171 1.966 . S
O174 C172 1.263 . S
C175 O176 1.235 . S
C175 O202 1.289 . S
O176 C175 1.235 . S
C177 C179 1.400 . S
C177 N180 1.351 . S
C177 C182 1.501 . S
C178 C179 1.387 . S
C178 N181 1.341 . S
C179 C177 1.400 . S
C179 C178 1.387 . S
N180 Co171 2.022 . S
N180 C177 1.351 . S
N180 N181 1.365 . S
N181 C178 1.341 . S
N181 N180 1.365 . S
N181 H201 0.862 . S
C182 C177 1.501 . S
C182 H183 0.961 . S
C182 H184 0.961 . S
C182 H185 0.960 1_545 S
H183 C182 0.961 . S
H184 C182 0.961 . S
H185 C182 0.960 1_565 S
C186 N187 1.342 . S
C186 C190 1.401 . S
C186 C191 1.499 . S
N187 Co170 1.989 . S
N187 C186 1.342 . S
N187 N188 1.388 . S
N188 Co171 1.993 . S
N188 N187 1.388 . S
N188 C189 1.346 . S
C189 N188 1.346 . S
C189 C190 1.396 . S
C189 C199 1.510 . S
C190 C186 1.401 . S
C190 C189 1.396 . S
C191 C186 1.499 . S
C191 H192 0.959 . S
C191 H193 0.960 . S
C191 H194 0.961 . S
H192 C191 0.959 . S
H193 C191 0.960 . S
H194 C191 0.961 . S
O195 Co170 1.967 . S
O195 C203 1.258 . S
O196 Co171 1.941 . S
O196 C203 1.266 . S
H197 C199 0.959 . S
H198 C199 0.961 . S
C199 C189 1.510 . S
C199 H197 0.959 . S
C199 H198 0.961 . S
C199 H200 0.960 . S
H200 C199 0.960 . S
H201 N181 0.862 . S
O202 Co170 1.920 . S
O202 C175 1.289 . S
C203 O195 1.258 . S
C203 O196 1.266 . S
Co204 O207 1.970 . S
Co204 N221 1.989 . S
Co204 O229 1.967 . S
Co204 O236 1.950 . S
Co205 O208 1.966 . S
Co205 N214 2.022 . S
Co205 N222 1.993 . S
Co205 O230 1.941 . S
C206 O207 1.258 . S
C206 O208 1.263 . S
O207 Co204 1.970 . S
O207 C206 1.258 . S
O208 Co205 1.966 . S
O208 C206 1.263 . S
C209 O210 1.236 . S
C209 O236 1.276 1_655 S
O210 C209 1.236 . S
C211 C213 1.400 . S
C211 N214 1.351 . S
C211 C216 1.501 . S
C212 C213 1.387 . S
C212 N215 1.341 . S
C213 C211 1.400 . S
C213 C212 1.387 . S
N214 Co205 2.022 . S
N214 C211 1.351 . S
N214 N215 1.365 . S
N215 C212 1.341 . S
N215 N214 1.365 . S
N215 H235 0.862 . S
C216 C211 1.501 . S
C216 H217 0.961 . S
C216 H218 0.961 . S
C216 H219 0.960 . S
H217 C216 0.961 . S
H218 C216 0.961 . S
H219 C216 0.960 . S
C220 N221 1.342 1_655 S
C220 C224 1.400 1_655 S
C220 C225 1.499 . S
N221 Co204 1.989 . S
N221 C220 1.342 1_455 S
N221 N222 1.388 . S
N222 Co205 1.993 . S
N222 N221 1.388 . S
N222 C223 1.346 . S
C223 N222 1.346 . S
C223 C224 1.404 . S
C223 C233 1.510 . S
C224 C220 1.400 1_455 S
C224 C223 1.404 . S
C225 C220 1.499 . S
C225 H226 0.959 . S
C225 H227 0.960 . S
C225 H228 0.961 . S
H226 C225 0.959 . S
H227 C225 0.960 . S
H228 C225 0.961 . S
O229 Co204 1.967 . S
O229 C237 1.258 . S
O230 Co205 1.941 . S
O230 C237 1.266 . S
H231 C233 0.959 . S
H232 C233 0.961 . S
C233 C223 1.510 . S
C233 H231 0.959 . S
C233 H232 0.961 . S
C233 H234 0.960 . S
H234 C233 0.960 . S
H235 N215 0.862 . S
O236 Co204 1.950 . S
O236 C209 1.276 1_455 S
C237 O229 1.258 . S
C237 O230 1.266 . S
Co238 O241 1.970 . S
Co238 N255 1.989 . S
Co238 O263 1.967 . S
Co238 O270 1.920 . S
Co239 O242 1.966 . S
Co239 N248 2.022 . S
Co239 N256 1.993 . S
Co239 O264 1.941 . S
C240 O241 1.258 . S
C240 O242 1.263 . S
O241 Co238 1.970 . S
O241 C240 1.258 . S
O242 Co239 1.966 . S
O242 C240 1.263 . S
C243 O244 1.236 . S
C243 O270 1.289 1_565 S
O244 C243 1.236 . S
C245 C247 1.400 . S
C245 N248 1.351 . S
C245 C250 1.501 . S
C246 C247 1.387 . S
C246 N249 1.341 . S
C247 C245 1.400 . S
C247 C246 1.387 . S
N248 Co239 2.022 . S
N248 C245 1.351 . S
N248 N249 1.365 . S
N249 C246 1.341 . S
N249 N248 1.365 . S
N249 H269 0.862 . S
C250 C245 1.501 . S
C250 H251 0.961 . S
C250 H252 0.961 . S
C250 H253 0.960 . S
H251 C250 0.961 . S
H252 C250 0.961 . S
H253 C250 0.960 . S
C254 N255 1.342 1_565 S
C254 C258 1.400 1_565 S
C254 C259 1.499 . S
N255 Co238 1.989 . S
N255 C254 1.342 1_545 S
N255 N256 1.388 . S
N256 Co239 1.993 . S
N256 N255 1.388 . S
N256 C257 1.346 . S
C257 N256 1.346 . S
C257 C258 1.404 . S
C257 C267 1.510 . S
C258 C254 1.400 1_545 S
C258 C257 1.404 . S
C259 C254 1.499 . S
C259 H260 0.959 . S
C259 H261 0.960 . S
C259 H262 0.961 . S
H260 C259 0.959 . S
H261 C259 0.960 . S
H262 C259 0.961 . S
O263 Co238 1.967 . S
O263 C271 1.258 . S
O264 Co239 1.941 . S
O264 C271 1.266 . S
H265 C267 0.959 . S
H266 C267 0.961 . S
C267 C257 1.510 . S
C267 H265 0.959 . S
C267 H266 0.961 . S
C267 H268 0.960 . S
H268 C267 0.960 . S
H269 N249 0.862 . S
O270 Co238 1.920 . S
O270 C243 1.289 1_545 S
C271 O263 1.258 . S
C271 O264 1.266 . S
Co272 O275 1.970 . S
Co272 N289 1.989 . S
Co272 O297 1.967 . S
Co272 O304 1.920 . S
Co273 O276 1.966 . S
Co273 N282 2.022 . S
Co273 N290 1.993 . S
Co273 O298 1.941 . S
C274 O275 1.258 . S
C274 O276 1.263 . S
O275 Co272 1.970 . S
O275 C274 1.258 . S
O276 Co273 1.966 . S
O276 C274 1.263 . S
C277 O278 1.235 . S
C277 O304 1.289 . S
O278 C277 1.235 . S
C279 C281 1.400 . S
C279 N282 1.351 . S
C279 C284 1.501 . S
C280 C281 1.387 . S
C280 N283 1.341 . S
C281 C279 1.400 . S
C281 C280 1.387 . S
N282 Co273 2.022 . S
N282 C279 1.351 . S
N282 N283 1.365 . S
N283 C280 1.341 . S
N283 N282 1.365 . S
N283 H303 0.862 . S
C284 C279 1.501 . S
C284 H285 0.961 . S
C284 H286 0.961 . S
C284 H287 0.960 . S
H285 C284 0.961 . S
H286 C284 0.961 . S
H287 C284 0.960 . S
C288 N289 1.342 . S
C288 C292 1.401 . S
C288 C293 1.499 . S
N289 Co272 1.989 . S
N289 C288 1.342 . S
N289 N290 1.388 . S
N290 Co273 1.993 . S
N290 N289 1.388 . S
N290 C291 1.346 . S
C291 N290 1.346 . S
C291 C292 1.396 . S
C291 C301 1.510 . S
C292 C288 1.401 . S
C292 C291 1.396 . S
C293 C288 1.499 . S
C293 H294 0.959 . S
C293 H295 0.960 . S
C293 H296 0.961 . S
H294 C293 0.959 . S
H295 C293 0.960 . S
H296 C293 0.961 . S
O297 Co272 1.967 . S
O297 C305 1.258 . S
O298 Co273 1.941 . S
O298 C305 1.266 . S
H299 C301 0.959 . S
H300 C301 0.961 . S
C301 C291 1.510 . S
C301 H299 0.959 . S
C301 H300 0.961 . S
C301 H302 0.960 . S
H302 C301 0.960 . S
H303 N283 0.862 . S
O304 Co272 1.920 . S
O304 C277 1.289 . S
C305 O297 1.258 . S
C305 O298 1.266 . S
Co306 O309 1.970 . S
Co306 N323 1.989 . S
Co306 O331 1.967 . S
Co306 O338 1.920 . S
Co307 O310 1.966 . S
Co307 N316 2.022 . S
Co307 N324 1.993 . S
Co307 O332 1.941 . S
C308 O309 1.258 . S
C308 O310 1.263 . S
O309 Co306 1.970 . S
O309 C308 1.258 . S
O310 Co307 1.966 . S
O310 C308 1.263 . S
C311 O312 1.235 . S
C311 O338 1.289 . S
O312 C311 1.235 . S
C313 C315 1.400 . S
C313 N316 1.351 . S
C313 C318 1.501 . S
C314 C315 1.387 . S
C314 N317 1.341 . S
C315 C313 1.400 . S
C315 C314 1.387 . S
N316 Co307 2.022 . S
N316 C313 1.351 . S
N316 N317 1.365 . S
N317 C314 1.341 . S
N317 N316 1.365 . S
N317 H337 0.862 . S
C318 C313 1.501 . S
C318 H319 0.961 . S
C318 H320 0.961 . S
C318 H321 0.960 . S
H319 C318 0.961 . S
H320 C318 0.961 . S
H321 C318 0.960 . S
C322 N323 1.342 . S
C322 C326 1.401 . S
C322 C327 1.499 . S
N323 Co306 1.989 . S
N323 C322 1.342 . S
N323 N324 1.388 . S
N324 Co307 1.993 . S
N324 N323 1.388 . S
N324 C325 1.346 . S
C325 N324 1.346 . S
C325 C326 1.396 . S
C325 C335 1.510 . S
C326 C322 1.401 . S
C326 C325 1.396 . S
C327 C322 1.499 . S
C327 H328 0.959 . S
C327 H329 0.960 . S
C327 H330 0.961 . S
H328 C327 0.959 . S
H329 C327 0.960 . S
H330 C327 0.961 . S
O331 Co306 1.967 . S
O331 C339 1.258 . S
O332 Co307 1.941 . S
O332 C339 1.266 . S
H333 C335 0.959 . S
H334 C335 0.961 . S
C335 C325 1.510 . S
C335 H333 0.959 . S
C335 H334 0.961 . S
C335 H336 0.960 . S
H336 C335 0.960 . S
H337 N317 0.862 . S
O338 Co306 1.920 . S
O338 C311 1.289 . S
C339 O331 1.258 . S
C339 O332 1.266 . S
Co340 O343 1.970 . S
Co340 N357 1.989 . S
Co340 O365 1.967 . S
Co340 O372 1.920 . S
Co341 O344 1.966 . S
Co341 N350 2.022 . S
Co341 N358 1.993 . S
Co341 O366 1.941 . S
C342 O343 1.258 . S
C342 O344 1.263 . S
O343 Co340 1.970 . S
O343 C342 1.258 . S
O344 Co341 1.966 . S
O344 C342 1.263 . S
C345 O346 1.235 . S
C345 O372 1.289 . S
O346 C345 1.235 . S
C347 C349 1.400 . S
C347 N350 1.351 . S
C347 C352 1.501 . S
C348 C349 1.387 . S
C348 N351 1.341 . S
C349 C347 1.400 . S
C349 C348 1.387 . S
N350 Co341 2.022 . S
N350 C347 1.351 . S
N350 N351 1.365 . S
N351 C348 1.341 . S
N351 N350 1.365 . S
N351 H371 0.862 . S
C352 C347 1.501 . S
C352 H353 0.961 . S
C352 H354 0.961 . S
C352 H355 0.960 . S
H353 C352 0.961 . S
H354 C352 0.961 . S
H355 C352 0.960 . S
C356 N357 1.342 . S
C356 C360 1.401 . S
C356 C361 1.499 . S
N357 Co340 1.989 . S
N357 C356 1.342 . S
N357 N358 1.388 . S
N358 Co341 1.993 . S
N358 N357 1.388 . S
N358 C359 1.346 . S
C359 N358 1.346 . S
C359 C360 1.396 . S
C359 C369 1.510 . S
C360 C356 1.401 . S
C360 C359 1.396 . S
C361 C356 1.499 . S
C361 H362 0.959 . S
C361 H363 0.960 . S
C361 H364 0.961 . S
H362 C361 0.959 . S
H363 C361 0.960 . S
H364 C361 0.961 . S
O365 Co340 1.967 . S
O365 C373 1.258 . S
O366 Co341 1.941 . S
O366 C373 1.266 . S
H367 C369 0.959 . S
H368 C369 0.961 . S
C369 C359 1.510 . S
C369 H367 0.959 . S
C369 H368 0.961 . S
C369 H370 0.960 . S
H370 C369 0.960 . S
H371 N351 0.862 . S
O372 Co340 1.920 . S
O372 C345 1.289 . S
C373 O365 1.258 . S
C373 O366 1.266 . S
Co374 O377 1.970 . S
Co374 N391 1.989 . S
Co374 O399 1.967 . S
Co374 O406 1.920 . S
Co375 O378 1.966 . S
Co375 N384 2.022 . S
Co375 N392 1.993 . S
Co375 O400 1.941 . S
C376 O377 1.258 . S
C376 O378 1.263 . S
O377 Co374 1.970 . S
O377 C376 1.258 . S
O378 Co375 1.966 . S
O378 C376 1.263 . S
C379 O380 1.235 . S
C379 O406 1.289 . S
O380 C379 1.235 . S
C381 C383 1.400 . S
C381 N384 1.351 . S
C381 C386 1.501 . S
C382 C383 1.387 . S
C382 N385 1.341 . S
C383 C381 1.400 . S
C383 C382 1.387 . S
N384 Co375 2.022 . S
N384 C381 1.351 . S
N384 N385 1.365 . S
N385 C382 1.341 . S
N385 N384 1.365 . S
N385 H405 0.862 . S
C386 C381 1.501 . S
C386 H387 0.961 . S
C386 H388 0.961 . S
C386 H389 0.960 . S
H387 C386 0.961 . S
H388 C386 0.961 . S
H389 C386 0.960 . S
C390 N391 1.342 . S
C390 C394 1.401 . S
C390 C395 1.499 . S
N391 Co374 1.989 . S
N391 C390 1.342 . S
N391 N392 1.388 . S
N392 Co375 1.993 . S
N392 N391 1.388 . S
N392 C393 1.346 . S
C393 N392 1.346 . S
C393 C394 1.396 . S
C393 C403 1.510 . S
C394 C390 1.401 . S
C394 C393 1.396 . S
C395 C390 1.499 . S
C395 H396 0.959 . S
C395 H397 0.960 . S
C395 H398 0.961 . S
H396 C395 0.959 . S
H397 C395 0.960 . S
H398 C395 0.961 . S
O399 Co374 1.967 . S
O399 C407 1.258 . S
O400 Co375 1.941 . S
O400 C407 1.266 . S
H401 C403 0.959 . S
H402 C403 0.961 . S
C403 C393 1.510 . S
C403 H401 0.959 . S
C403 H402 0.961 . S
C403 H404 0.960 . S
H404 C403 0.960 . S
H405 N385 0.862 . S
O406 Co374 1.920 . S
O406 C379 1.289 . S
C407 O399 1.258 . S
C407 O400 1.266 . S
Co408 O411 1.970 . S
Co408 N425 1.989 . S
Co408 O433 1.967 . S
Co408 O440 1.920 . S
Co409 O412 1.966 . S
Co409 N418 2.022 . S
Co409 N426 1.993 . S
Co409 O434 1.941 . S
C410 O411 1.258 . S
C410 O412 1.263 . S
O411 Co408 1.970 . S
O411 C410 1.258 . S
O412 Co409 1.966 . S
O412 C410 1.263 . S
C413 O414 1.235 . S
C413 O440 1.289 . S
O414 C413 1.235 . S
C415 C417 1.400 . S
C415 N418 1.351 . S
C415 C420 1.501 . S
C416 C417 1.387 . S
C416 N419 1.341 . S
C417 C415 1.400 . S
C417 C416 1.387 . S
N418 Co409 2.022 . S
N418 C415 1.351 . S
N418 N419 1.365 . S
N419 C416 1.341 . S
N419 N418 1.365 . S
N419 H439 0.862 . S
C420 C415 1.501 . S
C420 H421 0.961 . S
C420 H422 0.961 . S
C420 H423 0.960 . S
H421 C420 0.961 . S
H422 C420 0.961 . S
H423 C420 0.960 . S
C424 N425 1.342 . S
C424 C428 1.401 . S
C424 C429 1.499 . S
N425 Co408 1.989 . S
N425 C424 1.342 . S
N425 N426 1.388 . S
N426 Co409 1.993 . S
N426 N425 1.388 . S
N426 C427 1.346 . S
C427 N426 1.346 . S
C427 C428 1.396 . S
C427 C437 1.510 . S
C428 C424 1.401 . S
C428 C427 1.396 . S
C429 C424 1.499 . S
C429 H430 0.959 . S
C429 H431 0.960 . S
C429 H432 0.961 . S
H430 C429 0.959 . S
H431 C429 0.960 . S
H432 C429 0.961 . S
O433 Co408 1.967 . S
O433 C441 1.258 . S
O434 Co409 1.941 . S
O434 C441 1.266 . S
H435 C437 0.959 . S
H436 C437 0.961 . S
C437 C427 1.510 . S
C437 H435 0.959 . S
C437 H436 0.961 . S
C437 H438 0.960 . S
H438 C437 0.960 . S
H439 N419 0.862 . S
O440 Co408 1.920 . S
O440 C413 1.289 . S
C441 O433 1.258 . S
C441 O434 1.266 . S
Co442 O445 1.970 . S
Co442 N459 1.989 . S
Co442 O467 1.967 . S
Co442 O474 1.920 . S
Co443 O446 1.966 . S
Co443 N452 2.022 . S
Co443 N460 1.993 . S
Co443 O468 1.941 . S
C444 O445 1.258 . S
C444 O446 1.263 . S
O445 Co442 1.970 . S
O445 C444 1.258 . S
O446 Co443 1.966 . S
O446 C444 1.263 . S
C447 O448 1.235 . S
C447 O474 1.289 . S
O448 C447 1.235 . S
C449 C451 1.400 . S
C449 N452 1.351 . S
C449 C454 1.501 . S
C450 C451 1.387 . S
C450 N453 1.341 . S
C451 C449 1.400 . S
C451 C450 1.387 . S
N452 Co443 2.022 . S
N452 C449 1.351 . S
N452 N453 1.365 . S
N453 C450 1.341 . S
N453 N452 1.365 . S
N453 H473 0.862 . S
C454 C449 1.501 . S
C454 H455 0.961 . S
C454 H456 0.961 . S
C454 H457 0.960 . S
H455 C454 0.961 . S
H456 C454 0.961 . S
H457 C454 0.960 . S
C458 N459 1.342 . S
C458 C462 1.401 . S
C458 C463 1.499 . S
N459 Co442 1.989 . S
N459 C458 1.342 . S
N459 N460 1.388 . S
N460 Co443 1.993 . S
N460 N459 1.388 . S
N460 C461 1.346 . S
C461 N460 1.346 . S
C461 C462 1.396 . S
C461 C471 1.510 . S
C462 C458 1.401 . S
C462 C461 1.396 . S
C463 C458 1.499 . S
C463 H464 0.959 . S
C463 H465 0.960 . S
C463 H466 0.961 . S
H464 C463 0.959 . S
H465 C463 0.960 . S
H466 C463 0.961 . S
O467 Co442 1.967 . S
O467 C475 1.258 . S
O468 Co443 1.941 . S
O468 C475 1.266 . S
H469 C471 0.959 . S
H470 C471 0.961 . S
C471 C461 1.510 . S
C471 H469 0.959 . S
C471 H470 0.961 . S
C471 H472 0.960 . S
H472 C471 0.960 . S
H473 N453 0.862 . S
O474 Co442 1.920 . S
O474 C447 1.289 . S
C475 O467 1.258 . S
C475 O468 1.266 . S
Co476 O479 1.970 . S
Co476 N493 1.989 . S
Co476 O501 1.967 . S
Co476 O508 1.920 . S
Co477 O480 1.966 . S
Co477 N486 2.022 . S
Co477 N494 1.993 . S
Co477 O502 1.941 . S
C478 O479 1.258 . S
C478 O480 1.263 . S
O479 Co476 1.970 . S
O479 C478 1.258 . S
O480 Co477 1.966 . S
O480 C478 1.263 . S
C481 O482 1.235 . S
C481 O508 1.289 . S
O482 C481 1.235 . S
C483 C485 1.400 . S
C483 N486 1.351 . S
C483 C488 1.501 . S
C484 C485 1.387 . S
C484 N487 1.341 . S
C485 C483 1.400 . S
C485 C484 1.387 . S
N486 Co477 2.022 . S
N486 C483 1.351 . S
N486 N487 1.365 . S
N487 C484 1.341 . S
N487 N486 1.365 . S
N487 H507 0.862 . S
C488 C483 1.501 . S
C488 H489 0.961 . S
C488 H490 0.961 . S
C488 H491 0.960 . S
H489 C488 0.961 . S
H490 C488 0.961 . S
H491 C488 0.960 . S
C492 N493 1.342 . S
C492 C496 1.401 . S
C492 C497 1.499 . S
N493 Co476 1.989 . S
N493 C492 1.342 . S
N493 N494 1.388 . S
N494 Co477 1.993 . S
N494 N493 1.388 . S
N494 C495 1.346 . S
C495 N494 1.346 . S
C495 C496 1.396 . S
C495 C505 1.510 . S
C496 C492 1.401 . S
C496 C495 1.396 . S
C497 C492 1.499 . S
C497 H498 0.959 . S
C497 H499 0.960 . S
C497 H500 0.961 . S
H498 C497 0.959 . S
H499 C497 0.960 . S
H500 C497 0.961 . S
O501 Co476 1.967 . S
O501 C509 1.258 . S
O502 Co477 1.941 . S
O502 C509 1.266 . S
H503 C505 0.959 . S
H504 C505 0.961 . S
C505 C495 1.510 . S
C505 H503 0.959 . S
C505 H504 0.961 . S
C505 H506 0.960 . S
H506 C505 0.960 . S
H507 N487 0.862 . S
O508 Co476 1.920 . S
O508 C481 1.289 . S
C509 O501 1.258 . S
C509 O502 1.266 . S
Co510 O513 1.970 . S
Co510 N527 1.989 . S
Co510 O535 1.967 . S
Co510 O542 1.920 . S
Co511 O514 1.966 . S
Co511 N520 2.022 . S
Co511 N528 1.993 . S
Co511 O536 1.941 . S
C512 O513 1.258 . S
C512 O514 1.263 . S
O513 Co510 1.970 . S
O513 C512 1.258 . S
O514 Co511 1.966 . S
O514 C512 1.263 . S
C515 O516 1.235 . S
C515 O542 1.289 . S
O516 C515 1.235 . S
C517 C519 1.400 . S
C517 N520 1.351 . S
C517 C522 1.501 . S
C518 C519 1.387 . S
C518 N521 1.341 . S
C519 C517 1.400 . S
C519 C518 1.387 . S
N520 Co511 2.022 . S
N520 C517 1.351 . S
N520 N521 1.365 . S
N521 C518 1.341 . S
N521 N520 1.365 . S
N521 H541 0.862 . S
C522 C517 1.501 . S
C522 H523 0.961 . S
C522 H524 0.961 . S
C522 H525 0.960 . S
H523 C522 0.961 . S
H524 C522 0.961 . S
H525 C522 0.960 . S
C526 N527 1.342 . S
C526 C530 1.401 . S
C526 C531 1.499 . S
N527 Co510 1.989 . S
N527 C526 1.342 . S
N527 N528 1.388 . S
N528 Co511 1.993 . S
N528 N527 1.388 . S
N528 C529 1.346 . S
C529 N528 1.346 . S
C529 C530 1.396 . S
C529 C539 1.510 . S
C530 C526 1.401 . S
C530 C529 1.396 . S
C531 C526 1.499 . S
C531 H532 0.959 . S
C531 H533 0.960 . S
C531 H534 0.961 . S
H532 C531 0.959 . S
H533 C531 0.960 . S
H534 C531 0.961 . S
O535 Co510 1.967 . S
O535 C543 1.258 . S
O536 Co511 1.941 . S
O536 C543 1.266 . S
H537 C539 0.959 . S
H538 C539 0.961 . S
C539 C529 1.510 . S
C539 H537 0.959 . S
C539 H538 0.961 . S
C539 H540 0.960 . S
H540 C539 0.960 . S
H541 N521 0.862 . S
O542 Co510 1.920 . S
O542 C515 1.289 . S
C543 O535 1.258 . S
C543 O536 1.266 . S
H544 C550 0.930 . S
H545 C553 0.930 . S
H546 C554 0.930 . S
H547 C555 0.930 . S
H548 C558 0.930 . S
H549 C559 0.930 . S
C550 H544 0.930 . S
C550 C551 1.355 . S
C550 C552 1.415 . S
C551 C550 1.355 . S
C551 C553 1.419 . S
C552 C550 1.415 . S
C552 C557 1.425 . S
C552 C559 1.409 . S
C553 H545 0.930 . S
C553 C551 1.419 . S
C553 C554 1.362 . S
C554 H546 0.930 . S
C554 C553 1.362 . S
C554 C557 1.409 . S
C555 H547 0.930 . S
C555 C556 1.355 . S
C555 C557 1.415 . S
C556 C555 1.355 . S
C556 C558 1.419 . S
C557 C552 1.425 . S
C557 C554 1.409 . S
C557 C555 1.415 . S
C558 H548 0.930 . S
C558 C556 1.419 . S
C558 C559 1.362 . S
C559 H549 0.930 . S
C559 C552 1.409 . S
C559 C558 1.362 . S
H560 C566 0.930 . S
H561 C569 0.930 . S
H562 C570 0.930 . S
H563 C571 0.930 . S
H564 C574 0.930 . S
H565 C575 0.930 . S
C566 H560 0.930 . S
C566 C567 1.355 . S
C566 C568 1.415 . S
C567 C566 1.355 . S
C567 C569 1.419 . S
C568 C566 1.415 . S
C568 C573 1.425 . S
C568 C575 1.409 . S
C569 H561 0.930 . S
C569 C567 1.419 . S
C569 C570 1.362 . S
C570 H562 0.930 . S
C570 C569 1.362 . S
C570 C573 1.409 . S
C571 H563 0.930 . S
C571 C572 1.355 . S
C571 C573 1.415 . S
C572 C571 1.355 . S
C572 C574 1.419 . S
C573 C568 1.425 . S
C573 C570 1.409 . S
C573 C571 1.415 . S
C574 H564 0.930 . S
C574 C572 1.419 . S
C574 C575 1.362 . S
C575 H565 0.930 . S
C575 C568 1.409 . S
C575 C574 1.362 . S
H576 C582 0.930 . S
H577 C585 0.930 . S
H578 C586 0.930 . S
H579 C587 0.930 . S
H580 C590 0.930 . S
H581 C591 0.930 . S
C582 H576 0.930 . S
C582 C583 1.355 . S
C582 C584 1.415 . S
C583 C582 1.355 . S
C583 C585 1.419 . S
C584 C582 1.415 . S
C584 C589 1.425 . S
C584 C591 1.409 . S
C585 H577 0.930 . S
C585 C583 1.419 . S
C585 C586 1.362 . S
C586 H578 0.930 . S
C586 C585 1.362 . S
C586 C589 1.409 . S
C587 H579 0.930 . S
C587 C588 1.355 . S
C587 C589 1.415 . S
C588 C587 1.355 . S
C588 C590 1.419 . S
C589 C584 1.425 . S
C589 C586 1.409 . S
C589 C587 1.415 . S
C590 H580 0.930 . S
C590 C588 1.419 . S
C590 C591 1.362 . S
C591 H581 0.930 . S
C591 C584 1.409 . S
C591 C590 1.362 . S
H592 C598 0.930 . S
H593 C601 0.930 . S
H594 C602 0.930 . S
H595 C603 0.930 . S
H596 C606 0.930 . S
H597 C607 0.930 . S
C598 H592 0.930 . S
C598 C599 1.355 . S
C598 C600 1.415 . S
C599 C598 1.355 . S
C599 C601 1.419 . S
C600 C598 1.415 . S
C600 C605 1.425 . S
C600 C607 1.409 . S
C601 H593 0.930 . S
C601 C599 1.419 . S
C601 C602 1.362 . S
C602 H594 0.930 . S
C602 C601 1.362 . S
C602 C605 1.409 . S
C603 H595 0.930 . S
C603 C604 1.355 . S
C603 C605 1.415 . S
C604 C603 1.355 . S
C604 C606 1.419 . S
C605 C600 1.425 . S
C605 C602 1.409 . S
C605 C603 1.415 . S
C606 H596 0.930 . S
C606 C604 1.419 . S
C606 C607 1.362 . S
C607 H597 0.930 . S
C607 C600 1.409 . S
C607 C606 1.362 . S
H608 C614 0.930 . S
H609 C617 0.930 . S
H610 C618 0.930 . S
H611 C619 0.930 . S
H612 C622 0.930 . S
H613 C623 0.930 . S
C614 H608 0.930 . S
C614 C615 1.355 . S
C614 C616 1.415 . S
C615 C614 1.355 . S
C615 C617 1.419 . S
C616 C614 1.415 . S
C616 C621 1.425 1_556 S
C616 C623 1.409 1_556 S
C617 H609 0.930 . S
C617 C615 1.419 . S
C617 C618 1.362 . S
C618 H610 0.930 . S
C618 C617 1.362 . S
C618 C621 1.409 1_556 S
C619 H611 0.930 . S
C619 C620 1.355 . S
C619 C621 1.415 . S
C620 C619 1.355 . S
C620 C622 1.419 . S
C621 C616 1.425 1_554 S
C621 C618 1.409 1_554 S
C621 C619 1.415 . S
C622 H612 0.930 . S
C622 C620 1.419 . S
C622 C623 1.362 . S
C623 H613 0.930 . S
C623 C616 1.409 1_554 S
C623 C622 1.362 . S
H624 C630 0.930 . S
H625 C633 0.930 . S
H626 C634 0.930 . S
H627 C635 0.930 . S
H628 C638 0.930 . S
H629 C639 0.930 . S
C630 H624 0.930 . S
C630 C631 1.355 . S
C630 C632 1.415 . S
C631 C630 1.355 . S
C631 C633 1.419 . S
C632 C630 1.415 . S
C632 C637 1.425 1_556 S
C632 C639 1.409 1_556 S
C633 H625 0.930 . S
C633 C631 1.419 . S
C633 C634 1.362 . S
C634 H626 0.930 . S
C634 C633 1.362 . S
C634 C637 1.409 1_556 S
C635 H627 0.930 . S
C635 C636 1.355 . S
C635 C637 1.415 . S
C636 C635 1.355 . S
C636 C638 1.419 . S
C637 C632 1.425 1_554 S
C637 C634 1.409 1_554 S
C637 C635 1.415 . S
C638 H628 0.930 . S
C638 C636 1.419 . S
C638 C639 1.362 . S
C639 H629 0.930 . S
C639 C632 1.409 1_554 S
C639 C638 1.362 . S
H640 C646 0.930 . S
H641 C649 0.930 . S
H642 C650 0.930 . S
H643 C651 0.930 . S
H644 C654 0.930 . S
H645 C655 0.930 . S
C646 H640 0.930 . S
C646 C647 1.355 . S
C646 C648 1.415 . S
C647 C646 1.355 . S
C647 C649 1.419 . S
C648 C646 1.415 . S
C648 C653 1.425 1_556 S
C648 C655 1.409 1_556 S
C649 H641 0.930 . S
C649 C647 1.419 . S
C649 C650 1.362 . S
C650 H642 0.930 . S
C650 C649 1.362 . S
C650 C653 1.409 1_556 S
C651 H643 0.930 . S
C651 C652 1.355 . S
C651 C653 1.415 . S
C652 C651 1.355 . S
C652 C654 1.419 . S
C653 C648 1.425 1_554 S
C653 C650 1.409 1_554 S
C653 C651 1.415 . S
C654 H644 0.930 . S
C654 C652 1.419 . S
C654 C655 1.362 . S
C655 H645 0.930 . S
C655 C648 1.409 1_554 S
C655 C654 1.362 . S
H656 C662 0.930 . S
H657 C665 0.930 . S
H658 C666 0.930 . S
H659 C667 0.930 . S
H660 C670 0.930 . S
H661 C671 0.930 . S
C662 H656 0.930 . S
C662 C663 1.355 . S
C662 C664 1.415 . S
C663 C662 1.355 . S
C663 C665 1.419 . S
C664 C662 1.415 . S
C664 C669 1.425 1_554 S
C664 C671 1.409 1_554 S
C665 H657 0.930 . S
C665 C663 1.419 . S
C665 C666 1.362 . S
C666 H658 0.930 . S
C666 C665 1.362 . S
C666 C669 1.409 1_554 S
C667 H659 0.930 . S
C667 C668 1.355 . S
C667 C669 1.415 . S
C668 C667 1.355 . S
C668 C670 1.419 . S
C669 C664 1.425 1_556 S
C669 C666 1.409 1_556 S
C669 C667 1.415 . S
C670 H660 0.930 . S
C670 C668 1.419 . S
C670 C671 1.362 . S
C671 H661 0.930 . S
C671 C664 1.409 1_556 S
C671 C670 1.362 . S
H672 C678 0.930 . S
H673 C681 0.930 . S
H674 C682 0.930 . S
H675 C683 0.930 . S
H676 C686 0.930 . S
H677 C687 0.930 . S
C678 H672 0.930 . S
C678 C679 1.355 . S
C678 C680 1.415 . S
C679 C678 1.355 . S
C679 C681 1.419 . S
C680 C678 1.415 . S
C680 C685 1.425 . S
C680 C687 1.409 . S
C681 H673 0.930 . S
C681 C679 1.419 . S
C681 C682 1.362 . S
C682 H674 0.930 . S
C682 C681 1.362 . S
C682 C685 1.409 . S
C683 H675 0.930 . S
C683 C684 1.355 . S
C683 C685 1.415 . S
C684 C683 1.355 . S
C684 C686 1.419 . S
C685 C680 1.425 . S
C685 C682 1.409 . S
C685 C683 1.415 . S
C686 H676 0.930 . S
C686 C684 1.419 . S
C686 C687 1.362 . S
C687 H677 0.930 . S
C687 C680 1.409 . S
C687 C686 1.362 . S
H688 C694 0.930 . S
H689 C697 0.930 . S
H690 C698 0.930 . S
H691 C699 0.930 . S
H692 C702 0.930 . S
H693 C703 0.930 . S
C694 H688 0.930 . S
C694 C695 1.355 . S
C694 C696 1.415 . S
C695 C694 1.355 . S
C695 C697 1.419 . S
C696 C694 1.415 . S
C696 C701 1.425 . S
C696 C703 1.409 1_655 S
C697 H689 0.930 . S
C697 C695 1.419 . S
C697 C698 1.362 . S
C698 H690 0.930 . S
C698 C697 1.362 . S
C698 C701 1.409 . S
C699 H691 0.930 . S
C699 C700 1.355 . S
C699 C701 1.415 1_455 S
C700 C699 1.355 . S
C700 C702 1.419 . S
C701 C696 1.425 . S
C701 C698 1.409 . S
C701 C699 1.415 1_655 S
C702 H692 0.930 . S
C702 C700 1.419 . S
C702 C703 1.362 . S
C703 H693 0.930 . S
C703 C696 1.409 1_455 S
C703 C702 1.362 . S
H704 C710 0.930 . S
H705 C713 0.930 . S
H706 C714 0.930 . S
H707 C715 0.930 . S
H708 C718 0.930 1_455 S
H709 C719 0.930 1_545 S
C710 H704 0.930 . S
C710 C711 1.355 . S
C710 C712 1.440 . S
C711 C710 1.355 . S
C711 C713 1.419 . S
C712 C710 1.440 . S
C712 C717 1.403 1_545 S
C712 C719 1.405 1_545 S
C713 H705 0.930 . S
C713 C711 1.419 . S
C713 C714 1.362 1_545 S
C714 H706 0.930 . S
C714 C713 1.362 1_565 S
C714 C717 1.409 . S
C715 H707 0.930 . S
C715 C716 1.355 . S
C715 C717 1.415 . S
C716 C715 1.355 . S
C716 C718 1.419 . S
C717 C712 1.403 1_565 S
C717 C714 1.409 . S
C717 C715 1.415 . S
C718 H708 0.930 1_655 S
C718 C716 1.419 . S
C718 C719 1.362 . S
C719 H709 0.930 1_565 S
C719 C712 1.405 1_565 S
C719 C718 1.362 . S
H720 C726 0.930 . S
H721 C729 0.930 . S
H722 C730 0.930 . S
H723 C731 0.930 . S
H724 C734 0.930 . S
H725 C735 0.930 . S
C726 H720 0.930 . S
C726 C727 1.355 . S
C726 C728 1.415 . S
C727 C726 1.355 . S
C727 C729 1.419 . S
C728 C726 1.415 . S
C728 C733 1.425 . S
C728 C735 1.409 . S
C729 H721 0.930 . S
C729 C727 1.419 . S
C729 C730 1.362 . S
C730 H722 0.930 . S
C730 C729 1.362 . S
C730 C733 1.409 . S
C731 H723 0.930 . S
C731 C732 1.355 . S
C731 C733 1.415 . S
C732 C731 1.355 . S
C732 C734 1.419 . S
C733 C728 1.425 . S
C733 C730 1.409 . S
C733 C731 1.415 . S
C734 H724 0.930 . S
C734 C732 1.419 . S
C734 C735 1.362 . S
C735 H725 0.930 . S
C735 C728 1.409 . S
C735 C734 1.362 . S
H736 C742 0.930 . S
H737 C745 0.930 . S
H738 C746 0.930 . S
H739 C747 0.930 . S
H740 C750 0.930 . S
H741 C751 0.930 1_545 S
C742 H736 0.930 . S
C742 C743 1.355 . S
C742 C744 1.415 . S
C743 C742 1.355 . S
C743 C745 1.419 . S
C744 C742 1.415 . S
C744 C749 1.425 1_545 S
C744 C751 1.409 1_545 S
C745 H737 0.930 . S
C745 C743 1.419 . S
C745 C746 1.362 1_545 S
C746 H738 0.930 . S
C746 C745 1.362 1_565 S
C746 C749 1.409 . S
C747 H739 0.930 . S
C747 C748 1.355 . S
C747 C749 1.415 . S
C748 C747 1.355 . S
C748 C750 1.419 . S
C749 C744 1.425 1_565 S
C749 C746 1.409 . S
C749 C747 1.415 . S
C750 H740 0.930 . S
C750 C748 1.419 . S
C750 C751 1.362 . S
C751 H741 0.930 1_565 S
C751 C744 1.409 1_565 S
C751 C750 1.362 . S
H752 C758 0.930 . S
H753 C761 0.930 . S
H754 C762 0.930 . S
H755 C763 0.930 . S
H756 C766 0.930 . S
H757 C767 0.930 . S
C758 H752 0.930 . S
C758 C759 1.355 . S
C758 C760 1.415 . S
C759 C758 1.355 . S
C759 C761 1.419 . S
C760 C758 1.415 . S
C760 C765 1.425 . S
C760 C767 1.409 . S
C761 H753 0.930 . S
C761 C759 1.419 . S
C761 C762 1.362 . S
C762 H754 0.930 . S
C762 C761 1.362 . S
C762 C765 1.409 . S
C763 H755 0.930 . S
C763 C764 1.355 . S
C763 C765 1.415 . S
C764 C763 1.355 . S
C764 C766 1.419 . S
C765 C760 1.425 . S
C765 C762 1.409 . S
C765 C763 1.415 . S
C766 H756 0.930 . S
C766 C764 1.419 . S
C766 C767 1.362 . S
C767 H757 0.930 . S
C767 C760 1.409 . S
C767 C766 1.362 . S
H768 C774 0.930 . S
H769 C777 0.930 . S
H770 C778 0.930 . S
H771 C779 0.930 . S
H772 C782 0.930 . S
H773 C783 0.930 . S
C774 H768 0.930 . S
C774 C775 1.355 . S
C774 C776 1.415 . S
C775 C774 1.355 . S
C775 C777 1.419 . S
C776 C774 1.415 . S
C776 C781 1.425 . S
C776 C783 1.409 . S
C777 H769 0.930 . S
C777 C775 1.419 . S
C777 C778 1.362 . S
C778 H770 0.930 . S
C778 C777 1.362 . S
C778 C781 1.409 . S
C779 H771 0.930 . S
C779 C780 1.355 . S
C779 C781 1.415 . S
C780 C779 1.355 . S
C780 C782 1.419 . S
C781 C776 1.425 . S
C781 C778 1.409 . S
C781 C779 1.415 . S
C782 H772 0.930 . S
C782 C780 1.419 . S
C782 C783 1.362 . S
C783 H773 0.930 . S
C783 C776 1.409 . S
C783 C782 1.362 . S
H784 C790 0.932 . S
H785 C793 0.930 . S
H786 C794 0.930 . S
H787 C795 0.930 . S
H788 C798 0.930 . S
H789 C799 0.930 . S
C790 H784 0.932 . S
C790 C791 1.355 . S
C790 C792 1.415 1_455 S
C791 C790 1.355 . S
C791 C793 1.419 . S
C792 C790 1.415 1_655 S
C792 C797 1.425 . S
C792 C799 1.409 . S
C793 H785 0.930 . S
C793 C791 1.419 . S
C793 C794 1.362 . S
C794 H786 0.930 . S
C794 C793 1.362 . S
C794 C797 1.409 1_455 S
C795 H787 0.930 . S
C795 C796 1.355 . S
C795 C797 1.415 . S
C796 C795 1.355 . S
C796 C798 1.419 . S
C797 C792 1.425 . S
C797 C794 1.409 1_655 S
C797 C795 1.415 . S
C798 H788 0.930 . S
C798 C796 1.419 . S
C798 C799 1.362 . S
C799 H789 0.930 . S
C799 C792 1.409 . S
C799 C798 1.362 . S
H800 C806 0.930 . S
H801 C809 0.930 . S
H802 C810 0.930 . S
H803 C811 0.930 . S
H804 C814 0.930 . S
H805 C815 0.930 . S
C806 H800 0.930 . S
C806 C807 1.355 . S
C806 C808 1.415 . S
C807 C806 1.355 . S
C807 C809 1.419 . S
C808 C806 1.415 . S
C808 C813 1.425 . S
C808 C815 1.409 . S
C809 H801 0.930 . S
C809 C807 1.419 . S
C809 C810 1.362 . S
C810 H802 0.930 . S
C810 C809 1.362 . S
C810 C813 1.409 . S
C811 H803 0.930 . S
C811 C812 1.355 . S
C811 C813 1.415 . S
C812 C811 1.355 . S
C812 C814 1.419 . S
C813 C808 1.425 . S
C813 C810 1.409 . S
C813 C811 1.415 . S
C814 H804 0.930 . S
C814 C812 1.419 . S
C814 C815 1.362 . S
C815 H805 0.930 . S
C815 C808 1.409 . S
C815 C814 1.362 . S
H816 C822 0.930 . S
H817 C825 0.930 . S
H818 C826 0.930 . S
H819 C827 0.930 . S
H820 C830 0.930 . S
H821 C831 0.930 . S
C822 H816 0.930 . S
C822 C823 1.355 . S
C822 C824 1.415 . S
C823 C822 1.355 . S
C823 C825 1.419 . S
C824 C822 1.415 . S
C824 C829 1.425 . S
C824 C831 1.409 . S
C825 H817 0.930 . S
C825 C823 1.419 . S
C825 C826 1.362 . S
C826 H818 0.930 . S
C826 C825 1.362 . S
C826 C829 1.409 . S
C827 H819 0.930 . S
C827 C828 1.355 . S
C827 C829 1.415 . S
C828 C827 1.355 . S
C828 C830 1.419 . S
C829 C824 1.425 . S
C829 C826 1.409 . S
C829 C827 1.415 . S
C830 H820 0.930 . S
C830 C828 1.419 . S
C830 C831 1.362 . S
C831 H821 0.930 . S
C831 C824 1.409 . S
C831 C830 1.362 . S
H832 C838 0.930 . S
H833 C841 0.930 . S
H834 C842 0.930 . S
H835 C843 0.930 . S
H836 C846 0.930 . S
H837 C847 0.930 . S
C838 H832 0.930 . S
C838 C839 1.355 . S
C838 C840 1.415 . S
C839 C838 1.355 . S
C839 C841 1.419 . S
C840 C838 1.415 . S
C840 C845 1.425 . S
C840 C847 1.409 . S
C841 H833 0.930 . S
C841 C839 1.419 . S
C841 C842 1.362 . S
C842 H834 0.930 . S
C842 C841 1.362 . S
C842 C845 1.409 . S
C843 H835 0.930 . S
C843 C844 1.355 . S
C843 C845 1.415 . S
C844 C843 1.355 . S
C844 C846 1.419 . S
C845 C840 1.425 . S
C845 C842 1.409 . S
C845 C843 1.415 . S
C846 H836 0.930 . S
C846 C844 1.419 . S
C846 C847 1.362 . S
C847 H837 0.930 . S
C847 C840 1.409 . S
C847 C846 1.362 . S
H848 C854 0.930 . S
H849 C857 0.930 . S
H850 C858 0.930 . S
H851 C859 0.930 . S
H852 C862 0.930 . S
H853 C863 0.930 . S
C854 H848 0.930 . S
C854 C855 1.355 . S
C854 C856 1.415 . S
C855 C854 1.355 . S
C855 C857 1.419 . S
C856 C854 1.415 . S
C856 C861 1.425 . S
C856 C863 1.409 . S
C857 H849 0.930 . S
C857 C855 1.419 . S
C857 C858 1.362 . S
C858 H850 0.930 . S
C858 C857 1.362 . S
C858 C861 1.409 . S
C859 H851 0.930 . S
C859 C860 1.355 . S
C859 C861 1.415 . S
C860 C859 1.355 . S
C860 C862 1.419 . S
C861 C856 1.425 . S
C861 C858 1.409 . S
C861 C859 1.415 . S
C862 H852 0.930 . S
C862 C860 1.419 . S
C862 C863 1.362 . S
C863 H853 0.930 . S
C863 C856 1.409 . S
C863 C862 1.362 . S
H864 C870 0.930 . S
H865 C873 0.930 . S
H866 C874 0.930 . S
H867 C875 0.930 . S
H868 C878 0.930 . S
H869 C879 0.930 . S
C870 H864 0.930 . S
C870 C871 1.355 . S
C870 C872 1.415 . S
C871 C870 1.355 . S
C871 C873 1.419 . S
C872 C870 1.415 . S
C872 C877 1.425 . S
C872 C879 1.409 . S
C873 H865 0.930 . S
C873 C871 1.419 . S
C873 C874 1.362 . S
C874 H866 0.930 . S
C874 C873 1.362 . S
C874 C877 1.409 . S
C875 H867 0.930 . S
C875 C876 1.355 . S
C875 C877 1.415 . S
C876 C875 1.355 . S
C876 C878 1.419 . S
C877 C872 1.425 . S
C877 C874 1.409 . S
C877 C875 1.415 . S
C878 H868 0.930 . S
C878 C876 1.419 . S
C878 C879 1.362 . S
C879 H869 0.930 . S
C879 C872 1.409 . S
C879 C878 1.362 . S
H880 C886 0.930 . S
H881 C889 0.930 . S
H882 C890 0.930 . S
H883 C891 0.930 . S
H884 C894 0.930 . S
H885 C895 0.930 . S
C886 H880 0.930 . S
C886 C887 1.355 . S
C886 C888 1.415 . S
C887 C886 1.355 . S
C887 C889 1.419 . S
C888 C886 1.415 . S
C888 C893 1.425 . S
C888 C895 1.409 . S
C889 H881 0.930 . S
C889 C887 1.419 . S
C889 C890 1.362 . S
C890 H882 0.930 . S
C890 C889 1.362 . S
C890 C893 1.409 . S
C891 H883 0.930 . S
C891 C892 1.355 . S
C891 C893 1.415 . S
C892 C891 1.355 . S
C892 C894 1.419 . S
C893 C888 1.425 . S
C893 C890 1.409 . S
C893 C891 1.415 . S
C894 H884 0.930 . S
C894 C892 1.419 . S
C894 C895 1.362 . S
C895 H885 0.930 . S
C895 C888 1.409 . S
C895 C894 1.362 . S
H896 C902 0.930 . S
H897 C905 0.930 . S
H898 C906 0.930 . S
H899 C907 0.930 . S
H900 C910 0.930 . S
H901 C911 0.930 . S
C902 H896 0.930 . S
C902 C903 1.355 . S
C902 C904 1.415 . S
C903 C902 1.355 . S
C903 C905 1.419 . S
C904 C902 1.415 . S
C904 C909 1.425 . S
C904 C911 1.409 . S
C905 H897 0.930 . S
C905 C903 1.419 . S
C905 C906 1.362 . S
C906 H898 0.930 . S
C906 C905 1.362 . S
C906 C909 1.409 . S
C907 H899 0.930 . S
C907 C908 1.355 . S
C907 C909 1.415 . S
C908 C907 1.355 . S
C908 C910 1.419 . S
C909 C904 1.425 . S
C909 C906 1.409 . S
C909 C907 1.415 . S
C910 H900 0.930 . S
C910 C908 1.419 . S
C910 C911 1.362 . S
C911 H901 0.930 . S
C911 C904 1.409 . S
C911 C910 1.362 . S
H912 C918 0.930 . S
H913 C921 0.930 . S
H914 C922 0.930 . S
H915 C923 0.930 . S
H916 C926 0.930 . S
H917 C927 0.930 . S
C918 H912 0.930 . S
C918 C919 1.355 . S
C918 C920 1.415 . S
C919 C918 1.355 . S
C919 C921 1.419 . S
C920 C918 1.415 . S
C920 C925 1.425 . S
C920 C927 1.409 . S
C921 H913 0.930 . S
C921 C919 1.419 . S
C921 C922 1.362 . S
C922 H914 0.930 . S
C922 C921 1.362 . S
C922 C925 1.409 . S
C923 H915 0.930 . S
C923 C924 1.355 . S
C923 C925 1.415 . S
C924 C923 1.355 . S
C924 C926 1.419 . S
C925 C920 1.425 . S
C925 C922 1.409 . S
C925 C923 1.415 . S
C926 H916 0.930 . S
C926 C924 1.419 . S
C926 C927 1.362 . S
C927 H917 0.930 . S
C927 C920 1.409 . S
C927 C926 1.362 . S
H928 C934 0.930 . S
H929 C937 0.930 . S
H930 C938 0.930 . S
H931 C939 0.930 . S
H932 C942 0.930 . S
H933 C943 0.930 . S
C934 H928 0.930 . S
C934 C935 1.355 . S
C934 C936 1.415 . S
C935 C934 1.355 . S
C935 C937 1.419 . S
C936 C934 1.415 . S
C936 C941 1.425 . S
C936 C943 1.409 . S
C937 H929 0.930 . S
C937 C935 1.419 . S
C937 C938 1.362 . S
C938 H930 0.930 . S
C938 C937 1.362 . S
C938 C941 1.409 . S
C939 H931 0.930 . S
C939 C940 1.355 . S
C939 C941 1.415 . S
C940 C939 1.355 . S
C940 C942 1.419 . S
C941 C936 1.425 . S
C941 C938 1.409 . S
C941 C939 1.415 . S
C942 H932 0.930 . S
C942 C940 1.419 . S
C942 C943 1.362 . S
C943 H933 0.930 . S
C943 C936 1.409 . S
C943 C942 1.362 . S
H944 C950 0.930 . S
H945 C953 0.930 . S
H946 C954 0.930 . S
H947 C955 0.930 . S
H948 C958 0.930 . S
H949 C959 0.930 . S
C950 H944 0.930 . S
C950 C951 1.355 . S
C950 C952 1.415 . S
C951 C950 1.355 . S
C951 C953 1.419 . S
C952 C950 1.415 . S
C952 C957 1.425 . S
C952 C959 1.409 . S
C953 H945 0.930 . S
C953 C951 1.419 . S
C953 C954 1.362 . S
C954 H946 0.930 . S
C954 C953 1.362 . S
C954 C957 1.409 . S
C955 H947 0.930 . S
C955 C956 1.355 . S
C955 C957 1.415 . S
C956 C955 1.355 . S
C956 C958 1.419 . S
C957 C952 1.425 . S
C957 C954 1.409 . S
C957 C955 1.415 . S
C958 H948 0.930 . S
C958 C956 1.419 . S
C958 C959 1.362 . S
C959 H949 0.930 . S
C959 C952 1.409 . S
C959 C958 1.362 . S
H960 C966 0.930 . S
H961 C969 0.930 . S
H962 C970 0.930 . S
H963 C971 0.930 . S
H964 C974 0.930 . S
H965 C975 0.930 . S
C966 H960 0.930 . S
C966 C967 1.355 . S
C966 C968 1.415 . S
C967 C966 1.355 . S
C967 C969 1.419 . S
C968 C966 1.415 . S
C968 C973 1.425 . S
C968 C975 1.409 . S
C969 H961 0.930 . S
C969 C967 1.419 . S
C969 C970 1.362 . S
C970 H962 0.930 . S
C970 C969 1.362 . S
C970 C973 1.409 . S
C971 H963 0.930 . S
C971 C972 1.355 . S
C971 C973 1.415 . S
C972 C971 1.355 . S
C972 C974 1.419 . S
C973 C968 1.425 . S
C973 C970 1.409 . S
C973 C971 1.415 . S
C974 H964 0.930 . S
C974 C972 1.419 . S
C974 C975 1.362 . S
C975 H965 0.930 . S
C975 C968 1.409 . S
C975 C974 1.362 . S
H976 C982 0.930 . S
H977 C985 0.930 1_545 S
H978 C986 0.930 . S
H979 C987 0.930 . S
H980 C990 0.930 . S
H981 C991 0.930 . S
C982 H976 0.930 . S
C982 C983 1.355 . S
C982 C984 1.415 . S
C983 C982 1.355 . S
C983 C985 1.419 . S
C984 C982 1.415 . S
C984 C989 1.425 . S
C984 C991 1.409 . S
C985 H977 0.930 1_565 S
C985 C983 1.419 . S
C985 C986 1.362 . S
C986 H978 0.930 . S
C986 C985 1.362 . S
C986 C989 1.409 . S
C987 H979 0.930 . S
C987 C988 1.355 . S
C987 C989 1.415 . S
C988 C987 1.355 . S
C988 C990 1.419 . S
C989 C984 1.425 . S
C989 C986 1.409 . S
C989 C987 1.415 . S
C990 H980 0.930 . S
C990 C988 1.419 . S
C990 C991 1.362 . S
C991 H981 0.930 . S
C991 C984 1.409 . S
C991 C990 1.362 . S
H992 C998 0.930 . S
H993 C1001 0.930 . S
H994 C1002 0.930 . S
H995 C1003 0.930 . S
H996 C1006 0.930 . S
H997 C1007 0.930 . S
C998 H992 0.930 . S
C998 C999 1.355 . S
C998 C1000 1.415 . S
C999 C998 1.355 . S
C999 C1001 1.419 . S
C1000 C998 1.415 . S
C1000 C1005 1.425 . S
C1000 C1007 1.409 . S
C1001 H993 0.930 . S
C1001 C999 1.419 . S
C1001 C1002 1.362 . S
C1002 H994 0.930 . S
C1002 C1001 1.362 . S
C1002 C1005 1.409 . S
C1003 H995 0.930 . S
C1003 C1004 1.355 . S
C1003 C1005 1.415 . S
C1004 C1003 1.355 . S
C1004 C1006 1.419 . S
C1005 C1000 1.425 . S
C1005 C1002 1.409 . S
C1005 C1003 1.415 . S
C1006 H996 0.930 . S
C1006 C1004 1.419 . S
C1006 C1007 1.362 . S
C1007 H997 0.930 . S
C1007 C1000 1.409 . S
C1007 C1006 1.362 . S
H1008 C1014 0.930 . S
H1009 C1017 0.930 . S
H1010 C1018 0.930 . S
H1011 C1019 0.930 . S
H1012 C1022 0.930 . S
H1013 C1023 0.930 . S
C1014 H1008 0.930 . S
C1014 C1015 1.355 . S
C1014 C1016 1.415 . S
C1015 C1014 1.355 . S
C1015 C1017 1.419 . S
C1016 C1014 1.415 . S
C1016 C1021 1.425 . S
C1016 C1023 1.409 . S
C1017 H1009 0.930 . S
C1017 C1015 1.419 . S
C1017 C1018 1.362 . S
C1018 H1010 0.930 . S
C1018 C1017 1.362 . S
C1018 C1021 1.409 . S
C1019 H1011 0.930 . S
C1019 C1020 1.355 . S
C1019 C1021 1.415 . S
C1020 C1019 1.355 . S
C1020 C1022 1.419 . S
C1021 C1016 1.425 . S
C1021 C1018 1.409 . S
C1021 C1019 1.415 . S
C1022 H1012 0.930 . S
C1022 C1020 1.419 . S
C1022 C1023 1.362 . S
C1023 H1013 0.930 . S
C1023 C1016 1.409 . S
C1023 C1022 1.362 . S
H1024 C1030 0.930 . S
H1025 C1033 0.930 . S
H1026 C1034 0.930 . S
H1027 C1035 0.930 . S
H1028 C1038 0.930 . S
H1029 C1039 0.930 . S
C1030 H1024 0.930 . S
C1030 C1031 1.355 . S
C1030 C1032 1.415 . S
C1031 C1030 1.355 . S
C1031 C1033 1.419 . S
C1032 C1030 1.415 . S
C1032 C1037 1.425 . S
C1032 C1039 1.409 . S
C1033 H1025 0.930 . S
C1033 C1031 1.419 . S
C1033 C1034 1.362 . S
C1034 H1026 0.930 . S
C1034 C1033 1.362 . S
C1034 C1037 1.409 . S
C1035 H1027 0.930 . S
C1035 C1036 1.355 . S
C1035 C1037 1.415 . S
C1036 C1035 1.355 . S
C1036 C1038 1.419 . S
C1037 C1032 1.425 . S
C1037 C1034 1.409 . S
C1037 C1035 1.415 . S
C1038 H1028 0.930 . S
C1038 C1036 1.419 . S
C1038 C1039 1.362 . S
C1039 H1029 0.930 . S
C1039 C1032 1.409 . S
C1039 C1038 1.362 . S
H1040 C1046 0.930 . S
H1041 C1049 0.930 . S
H1042 C1050 0.930 . S
H1043 C1051 0.930 . S
H1044 C1054 0.930 1_545 S
H1045 C1055 0.930 . S
C1046 H1040 0.930 . S
C1046 C1047 1.355 . S
C1046 C1048 1.415 . S
C1047 C1046 1.355 . S
C1047 C1049 1.419 . S
C1048 C1046 1.415 . S
C1048 C1053 1.425 . S
C1048 C1055 1.409 . S
C1049 H1041 0.930 . S
C1049 C1047 1.419 . S
C1049 C1050 1.362 . S
C1050 H1042 0.930 . S
C1050 C1049 1.362 . S
C1050 C1053 1.409 . S
C1051 H1043 0.930 . S
C1051 C1052 1.355 . S
C1051 C1053 1.415 . S
C1052 C1051 1.355 . S
C1052 C1054 1.419 . S
C1053 C1048 1.425 . S
C1053 C1050 1.409 . S
C1053 C1051 1.415 . S
C1054 H1044 0.930 1_565 S
C1054 C1052 1.419 . S
C1054 C1055 1.362 . S
C1055 H1045 0.930 . S
C1055 C1048 1.409 . S
C1055 C1054 1.362 . S
H1056 C1062 0.930 . S
H1057 C1065 0.930 . S
H1058 C1066 0.930 . S
H1059 C1067 0.930 . S
H1060 C1070 0.930 . S
H1061 C1071 0.930 . S
C1062 H1056 0.930 . S
C1062 C1063 1.351 1_455 S
C1062 C1064 1.415 1_455 S
C1063 C1062 1.351 1_655 S
C1063 C1065 1.449 . S
C1064 C1062 1.415 1_655 S
C1064 C1069 1.425 . S
C1064 C1071 1.409 . S
C1065 H1057 0.930 . S
C1065 C1063 1.449 . S
C1065 C1066 1.362 . S
C1066 H1058 0.930 . S
C1066 C1065 1.362 . S
C1066 C1069 1.409 . S
C1067 H1059 0.930 . S
C1067 C1068 1.355 . S
C1067 C1069 1.415 . S
C1068 C1067 1.355 . S
C1068 C1070 1.419 . S
C1069 C1064 1.425 . S
C1069 C1066 1.409 . S
C1069 C1067 1.415 . S
C1070 H1060 0.930 . S
C1070 C1068 1.419 . S
C1070 C1071 1.362 . S
C1071 H1061 0.930 . S
C1071 C1064 1.409 . S
C1071 C1070 1.362 . S
H1072 C1078 0.930 . S
H1073 C1081 0.930 . S
H1074 C1082 0.930 1_545 S
H1075 C1083 0.930 . S
H1076 C1086 0.930 . S
H1077 C1087 0.930 . S
C1078 H1072 0.930 . S
C1078 C1079 1.355 1_565 S
C1078 C1080 1.415 . S
C1079 C1078 1.355 1_545 S
C1079 C1081 1.419 . S
C1080 C1078 1.415 . S
C1080 C1085 1.425 . S
C1080 C1087 1.409 . S
C1081 H1073 0.930 . S
C1081 C1079 1.419 . S
C1081 C1082 1.362 1_545 S
C1082 H1074 0.930 1_565 S
C1082 C1081 1.362 1_565 S
C1082 C1085 1.409 . S
C1083 H1075 0.930 . S
C1083 C1084 1.355 . S
C1083 C1085 1.415 . S
C1084 C1083 1.355 . S
C1084 C1086 1.419 . S
C1085 C1080 1.425 . S
C1085 C1082 1.409 . S
C1085 C1083 1.415 . S
C1086 H1076 0.930 . S
C1086 C1084 1.419 . S
C1086 C1087 1.362 . S
C1087 H1077 0.930 . S
C1087 C1080 1.409 . S
C1087 C1086 1.362 . S
H1088 C1094 0.930 . S
H1089 C1097 0.930 . S
H1090 C1098 0.930 . S
H1091 C1099 0.930 . S
H1092 C1102 0.930 . S
H1093 C1103 0.930 . S
C1094 H1088 0.930 . S
C1094 C1095 1.355 . S
C1094 C1096 1.415 . S
C1095 C1094 1.355 . S
C1095 C1097 1.419 . S
C1096 C1094 1.415 . S
C1096 C1101 1.425 . S
C1096 C1103 1.409 . S
C1097 H1089 0.930 . S
C1097 C1095 1.419 . S
C1097 C1098 1.362 . S
C1098 H1090 0.930 . S
C1098 C1097 1.362 . S
C1098 C1101 1.409 . S
C1099 H1091 0.930 . S
C1099 C1100 1.355 . S
C1099 C1101 1.415 . S
C1100 C1099 1.355 . S
C1100 C1102 1.419 . S
C1101 C1096 1.425 . S
C1101 C1098 1.409 . S
C1101 C1099 1.415 . S
C1102 H1092 0.930 . S
C1102 C1100 1.419 . S
C1102 C1103 1.362 . S
C1103 H1093 0.930 . S
C1103 C1096 1.409 . S
C1103 C1102 1.362 . S
H1104 C1110 0.930 . S
H1105 C1113 0.930 . S
H1106 C1114 0.930 . S
H1107 C1115 0.930 . S
H1108 C1118 0.930 . S
H1109 C1119 0.930 . S
C1110 H1104 0.930 . S
C1110 C1111 1.355 . S
C1110 C1112 1.415 . S
C1111 C1110 1.355 . S
C1111 C1113 1.419 . S
C1112 C1110 1.415 . S
C1112 C1117 1.425 . S
C1112 C1119 1.409 . S
C1113 H1105 0.930 . S
C1113 C1111 1.419 . S
C1113 C1114 1.362 . S
C1114 H1106 0.930 . S
C1114 C1113 1.362 . S
C1114 C1117 1.409 . S
C1115 H1107 0.930 . S
C1115 C1116 1.355 . S
C1115 C1117 1.415 . S
C1116 C1115 1.355 . S
C1116 C1118 1.419 . S
C1117 C1112 1.425 . S
C1117 C1114 1.409 . S
C1117 C1115 1.415 . S
C1118 H1108 0.930 . S
C1118 C1116 1.419 . S
C1118 C1119 1.362 . S
C1119 H1109 0.930 . S
C1119 C1112 1.409 . S
C1119 C1118 1.362 . S
H1120 C1126 0.930 . S
H1121 C1129 0.930 . S
H1122 C1130 0.930 . S
H1123 C1131 0.930 . S
H1124 C1134 0.930 . S
H1125 C1135 0.930 . S
C1126 H1120 0.930 . S
C1126 C1127 1.355 1_655 S
C1126 C1128 1.415 . S
C1127 C1126 1.355 1_455 S
C1127 C1129 1.419 . S
C1128 C1126 1.415 . S
C1128 C1133 1.425 . S
C1128 C1135 1.409 . S
C1129 H1121 0.930 . S
C1129 C1127 1.419 . S
C1129 C1130 1.362 . S
C1130 H1122 0.930 . S
C1130 C1129 1.362 . S
C1130 C1133 1.409 1_455 S
C1131 H1123 0.930 . S
C1131 C1132 1.355 . S
C1131 C1133 1.415 . S
C1132 C1131 1.355 . S
C1132 C1134 1.419 . S
C1133 C1128 1.425 . S
C1133 C1130 1.409 1_655 S
C1133 C1131 1.415 . S
C1134 H1124 0.930 . S
C1134 C1132 1.419 . S
C1134 C1135 1.362 . S
C1135 H1125 0.930 . S
C1135 C1128 1.409 . S
C1135 C1134 1.362 . S
H1136 C1142 0.930 . S
H1137 C1145 0.930 . S
H1138 C1146 0.930 . S
H1139 C1147 0.930 . S
H1140 C1150 0.930 . S
H1141 C1151 0.935 . S
C1142 H1136 0.930 . S
C1142 C1143 1.355 . S
C1142 C1144 1.415 . S
C1143 C1142 1.355 . S
C1143 C1145 1.419 . S
C1144 C1142 1.415 . S
C1144 C1149 1.425 . S
C1144 C1151 1.409 . S
C1145 H1137 0.930 . S
C1145 C1143 1.419 . S
C1145 C1146 1.362 . S
C1146 H1138 0.930 . S
C1146 C1145 1.362 . S
C1146 C1149 1.409 . S
C1147 H1139 0.930 . S
C1147 C1148 1.355 1_565 S
C1147 C1149 1.415 . S
C1148 C1147 1.355 1_545 S
C1148 C1150 1.419 . S
C1149 C1144 1.425 . S
C1149 C1146 1.409 . S
C1149 C1147 1.415 . S
C1150 H1140 0.930 . S
C1150 C1148 1.419 . S
C1150 C1151 1.362 1_545 S
C1151 H1141 0.935 . S
C1151 C1144 1.409 . S
C1151 C1150 1.362 1_565 S
H1152 C1158 0.930 . S
H1153 C1161 0.930 . S
H1154 C1162 0.930 . S
H1155 C1163 0.930 . S
H1156 C1166 0.930 . S
H1157 C1167 0.930 . S
C1158 H1152 0.930 . S
C1158 C1159 1.355 . S
C1158 C1160 1.415 . S
C1159 C1158 1.355 . S
C1159 C1161 1.419 . S
C1160 C1158 1.415 . S
C1160 C1165 1.425 . S
C1160 C1167 1.409 . S
C1161 H1153 0.930 . S
C1161 C1159 1.419 . S
C1161 C1162 1.362 . S
C1162 H1154 0.930 . S
C1162 C1161 1.362 . S
C1162 C1165 1.409 . S
C1163 H1155 0.930 . S
C1163 C1164 1.355 . S
C1163 C1165 1.415 . S
C1164 C1163 1.355 . S
C1164 C1166 1.419 . S
C1165 C1160 1.425 . S
C1165 C1162 1.409 . S
C1165 C1163 1.415 . S
C1166 H1156 0.930 . S
C1166 C1164 1.419 . S
C1166 C1167 1.362 . S
C1167 H1157 0.930 . S
C1167 C1160 1.409 . S
C1167 C1166 1.362 . S
H1168 C1174 0.930 . S
H1169 C1177 0.930 . S
H1170 C1178 0.930 . S
H1171 C1179 0.930 . S
H1172 C1182 0.930 . S
H1173 C1183 0.930 . S
C1174 H1168 0.930 . S
C1174 C1175 1.355 . S
C1174 C1176 1.415 . S
C1175 C1174 1.355 . S
C1175 C1177 1.419 . S
C1176 C1174 1.415 . S
C1176 C1181 1.425 . S
C1176 C1183 1.409 . S
C1177 H1169 0.930 . S
C1177 C1175 1.419 . S
C1177 C1178 1.362 . S
C1178 H1170 0.930 . S
C1178 C1177 1.362 . S
C1178 C1181 1.409 . S
C1179 H1171 0.930 . S
C1179 C1180 1.355 . S
C1179 C1181 1.415 . S
C1180 C1179 1.355 . S
C1180 C1182 1.419 . S
C1181 C1176 1.425 . S
C1181 C1178 1.409 . S
C1181 C1179 1.415 . S
C1182 H1172 0.930 . S
C1182 C1180 1.419 . S
C1182 C1183 1.362 . S
C1183 H1173 0.930 . S
C1183 C1176 1.409 . S
C1183 C1182 1.362 . S
C551 C33 1.574 . S
C556 C237 1.573 . S
C567 C271 1.578 . S
C572 C67 1.578 . S
C583 C169 1.578 . S
C588 C101 1.578 . S
C599 C203 1.573 . S
C604 C135 1.574 . S
C615 C305 1.557 . S
C620 C509 1.558 . S
C631 C339 1.561 . S
C636 C543 1.561 . S
C647 C373 1.579 . S
C652 C441 1.579 . S
C663 C475 1.571 . S
C668 C407 1.571 . S
C679 C5 1.450 . S
C684 C104 1.468 . S
C695 C39 1.470 . S
C700 C2 1.481 . S
C711 C36 1.482 . S
C716 C73 1.465 . S
C727 C107 1.443 . S
C732 C70 1.464 . S
C743 C172 1.476 . S
C748 C141 1.453 . S
C759 C206 1.493 . S
C764 C175 1.484 . S
C775 C240 1.492 . S
C780 C209 1.483 . S
C791 C138 1.471 . S
C796 C243 1.455 . S
C807 C277 1.482 . S
C812 C376 1.490 . S
C823 C274 1.461 . S
C828 C311 1.437 . S
C839 C345 1.431 . S
C844 C308 1.458 . S
C855 C379 1.483 . S
C860 C342 1.491 . S
C871 C413 1.483 . S
C876 C444 1.492 . S
C887 C447 1.463 . S
C892 C478 1.477 . S
C903 C481 1.442 . S
C908 C512 1.464 . S
C919 C410 1.461 . S
C924 C515 1.433 . S
C935 C530 1.830 . S
C940 C20 1.833 . S
C951 C54 1.833 . S
C956 C428 1.830 . S
C967 C462 1.831 . S
C972 C88 1.828 1_655 S
C983 C122 1.817 1_565 S
C988 C496 1.825 . S
C999 C326 1.825 . S
C1004 C156 1.822 . S
C1015 C190 1.821 . S
C1020 C360 1.823 . S
C1031 C224 1.827 1_655 S
C1036 C394 1.830 . S
C1047 C292 1.834 . S
C1052 C258 1.826 1_565 S
C1063 C145 1.140 1_655 S
C1068 C383 1.144 . S
C1079 C179 1.210 . S
C1084 C281 1.218 . S
C1095 C213 1.144 . S
C1100 C315 1.163 . S
C1111 C349 1.188 . S
C1116 C247 1.217 . S
C1127 C9 1.175 . S
C1132 C451 1.211 . S
C1143 C485 1.173 . S
C1148 C43 1.145 . S
C1159 C77 1.198 . S
C1164 C519 1.220 . S
C1175 C111 1.158 . S
C1180 C417 1.196 . S
