# Generated by pormake.
# Topology whr, (6)-cn, num edge types: 1
# Building blocks:
#     Node 0, Type 0, BuildingBlock: VOLQOD_clean_sbu_1, # of connection points: 6
#     Node 1, Type 0, BuildingBlock: VOLQOD_clean_sbu_1, # of connection points: 6
#     Node 2, Type 0, BuildingBlock: VOLQOD_clean_sbu_1, # of connection points: 6
#     Node 3, Type 0, BuildingBlock: VOLQOD_clean_sbu_1, # of connection points: 6
#     Node 4, Type 0, BuildingBlock: VOLQOD_clean_sbu_1, # of connection points: 6
#     Node 5, Type 0, BuildingBlock: VOLQOD_clean_sbu_1, # of connection points: 6
#     Node 6, Type 0, BuildingBlock: VOLQOD_clean_sbu_1, # of connection points: 6
#     Node 7, Type 0, BuildingBlock: VOLQOD_clean_sbu_1, # of connection points: 6
#     Node 8, Type 0, BuildingBlock: VOLQOD_clean_sbu_1, # of connection points: 6
#     Node 9, Type 0, BuildingBlock: VOLQOD_clean_sbu_1, # of connection points: 6
#     Node 10, Type 0, BuildingBlock: VOLQOD_clean_sbu_1, # of connection points: 6
#     Node 11, Type 0, BuildingBlock: VOLQOD_clean_sbu_1, # of connection points: 6
#     Node 12, Type 0, BuildingBlock: VOLQOD_clean_sbu_1, # of connection points: 6
#     Node 13, Type 0, BuildingBlock: VOLQOD_clean_sbu_1, # of connection points: 6
#     Node 14, Type 0, BuildingBlock: VOLQOD_clean_sbu_1, # of connection points: 6
#     Node 15, Type 0, BuildingBlock: VOLQOD_clean_sbu_1, # of connection points: 6
#     Edge 16, Type (0, 0), BuildingBlock: ZUJKAS_clean_linker_0, # of connection points: 2
#     Edge 17, Type (0, 0), BuildingBlock: ZUJKAS_clean_linker_0, # of connection points: 2
#     Edge 18, Type (0, 0), BuildingBlock: ZUJKAS_clean_linker_0, # of connection points: 2
#     Edge 19, Type (0, 0), BuildingBlock: ZUJKAS_clean_linker_0, # of connection points: 2
#     Edge 20, Type (0, 0), BuildingBlock: ZUJKAS_clean_linker_0, # of connection points: 2
#     Edge 21, Type (0, 0), BuildingBlock: ZUJKAS_clean_linker_0, # of connection points: 2
#     Edge 22, Type (0, 0), BuildingBlock: ZUJKAS_clean_linker_0, # of connection points: 2
#     Edge 23, Type (0, 0), BuildingBlock: ZUJKAS_clean_linker_0, # of connection points: 2
#     Edge 24, Type (0, 0), BuildingBlock: ZUJKAS_clean_linker_0, # of connection points: 2
#     Edge 25, Type (0, 0), BuildingBlock: ZUJKAS_clean_linker_0, # of connection points: 2
#     Edge 26, Type (0, 0), BuildingBlock: ZUJKAS_clean_linker_0, # of connection points: 2
#     Edge 27, Type (0, 0), BuildingBlock: ZUJKAS_clean_linker_0, # of connection points: 2
#     Edge 28, Type (0, 0), BuildingBlock: ZUJKAS_clean_linker_0, # of connection points: 2
#     Edge 29, Type (0, 0), BuildingBlock: ZUJKAS_clean_linker_0, # of connection points: 2
#     Edge 30, Type (0, 0), BuildingBlock: ZUJKAS_clean_linker_0, # of connection points: 2
#     Edge 31, Type (0, 0), BuildingBlock: ZUJKAS_clean_linker_0, # of connection points: 2
#     Edge 32, Type (0, 0), BuildingBlock: ZUJKAS_clean_linker_0, # of connection points: 2
#     Edge 33, Type (0, 0), BuildingBlock: ZUJKAS_clean_linker_0, # of connection points: 2
#     Edge 34, Type (0, 0), BuildingBlock: ZUJKAS_clean_linker_0, # of connection points: 2
#     Edge 35, Type (0, 0), BuildingBlock: ZUJKAS_clean_linker_0, # of connection points: 2
#     Edge 36, Type (0, 0), BuildingBlock: ZUJKAS_clean_linker_0, # of connection points: 2
#     Edge 37, Type (0, 0), BuildingBlock: ZUJKAS_clean_linker_0, # of connection points: 2
#     Edge 38, Type (0, 0), BuildingBlock: ZUJKAS_clean_linker_0, # of connection points: 2
#     Edge 39, Type (0, 0), BuildingBlock: ZUJKAS_clean_linker_0, # of connection points: 2
#     Edge 40, Type (0, 0), BuildingBlock: ZUJKAS_clean_linker_0, # of connection points: 2
#     Edge 41, Type (0, 0), BuildingBlock: ZUJKAS_clean_linker_0, # of connection points: 2
#     Edge 42, Type (0, 0), BuildingBlock: ZUJKAS_clean_linker_0, # of connection points: 2
#     Edge 43, Type (0, 0), BuildingBlock: ZUJKAS_clean_linker_0, # of connection points: 2
#     Edge 44, Type (0, 0), BuildingBlock: ZUJKAS_clean_linker_0, # of connection points: 2
#     Edge 45, Type (0, 0), BuildingBlock: ZUJKAS_clean_linker_0, # of connection points: 2
#     Edge 46, Type (0, 0), BuildingBlock: ZUJKAS_clean_linker_0, # of connection points: 2
#     Edge 47, Type (0, 0), BuildingBlock: ZUJKAS_clean_linker_0, # of connection points: 2
#     Edge 48, Type (0, 0), BuildingBlock: ZUJKAS_clean_linker_0, # of connection points: 2
#     Edge 49, Type (0, 0), BuildingBlock: ZUJKAS_clean_linker_0, # of connection points: 2
#     Edge 50, Type (0, 0), BuildingBlock: ZUJKAS_clean_linker_0, # of connection points: 2
#     Edge 51, Type (0, 0), BuildingBlock: ZUJKAS_clean_linker_0, # of connection points: 2
#     Edge 52, Type (0, 0), BuildingBlock: ZUJKAS_clean_linker_0, # of connection points: 2
#     Edge 53, Type (0, 0), BuildingBlock: ZUJKAS_clean_linker_0, # of connection points: 2
#     Edge 54, Type (0, 0), BuildingBlock: ZUJKAS_clean_linker_0, # of connection points: 2
#     Edge 55, Type (0, 0), BuildingBlock: ZUJKAS_clean_linker_0, # of connection points: 2
#     Edge 56, Type (0, 0), BuildingBlock: ZUJKAS_clean_linker_0, # of connection points: 2
#     Edge 57, Type (0, 0), BuildingBlock: ZUJKAS_clean_linker_0, # of connection points: 2
#     Edge 58, Type (0, 0), BuildingBlock: ZUJKAS_clean_linker_0, # of connection points: 2
#     Edge 59, Type (0, 0), BuildingBlock: ZUJKAS_clean_linker_0, # of connection points: 2
#     Edge 60, Type (0, 0), BuildingBlock: ZUJKAS_clean_linker_0, # of connection points: 2
#     Edge 61, Type (0, 0), BuildingBlock: ZUJKAS_clean_linker_0, # of connection points: 2
#     Edge 62, Type (0, 0), BuildingBlock: ZUJKAS_clean_linker_0, # of connection points: 2
#     Edge 63, Type (0, 0), BuildingBlock: ZUJKAS_clean_linker_0, # of connection points: 2
# Relax obj value: 0.383
# Max RMSD: 0.249
# Mean RMSD: 0.247
data_MOF--net-whr--node1-VOLQOD_clean_sbu_1--edge1-ZUJKAS_clean_linker_0
_symmetry_space_group_name_H-M    P1
_symmetry_Int_Tables_number       1
_symmetry_cell_setting            triclinic
loop_
_symmetry_equiv_pos_as_xyz
'x, y, z'
_cell_length_a     64.735124
_cell_length_b     64.795262
_cell_length_c     36.958747
_cell_angle_alpha  89.990558
_cell_angle_beta   89.989091
_cell_angle_gamma 90.014802
loop_
_atom_site_label
_atom_site_type_symbol
_atom_site_fract_x
_atom_site_fract_y
_atom_site_fract_z
_atom_type_partial_charge
O0 O 0.18667 0.05589 0.11436 0.0
Zn1 Zn 0.19268 0.04343 0.06606 0.0
O2 O 0.22124 0.04737 0.05189 0.0
Zn3 Zn 0.23485 0.02039 0.04752 0.0
Zn4 Zn 0.23481 0.06393 0.08858 0.0
Zn5 Zn 0.22215 0.06253 0.00648 0.0
O6 O 0.24912 0.01808 0.99832 0.0
O7 O 0.23666 0.04551 0.96929 0.0
O8 O 0.18487 0.01363 0.06652 0.0
O9 O 0.21361 0.99735 0.05047 0.0
O10 O 0.2546 0.01588 0.09 0.0
O11 O 0.2542 0.04656 0.11695 0.0
O12 O 0.25063 0.08751 0.0674 0.0
O13 O 0.17368 0.05812 0.032 0.0
O14 O 0.23865 0.08867 0.01118 0.0
O15 O 0.19384 0.07089 0.98898 0.0
C16 C 0.19607 0.06966 0.13253 0.0
C17 C 0.24736 0.02901 0.96968 0.0
C18 C 0.26053 0.02801 0.1152 0.0
C19 C 0.19454 0.99707 0.05914 0.0
C20 C 0.24971 0.09606 0.03649 0.0
C21 C 0.17602 0.06831 0.00287 0.0
O22 O 0.21422 0.07549 0.12403 0.0
O23 O 0.05597 0.81253 0.88581 0.0
Zn24 Zn 0.0426 0.8057 0.93322 0.0
O25 O 0.04647 0.77687 0.94586 0.0
Zn26 Zn 0.01953 0.76307 0.94975 0.0
Zn27 Zn 0.06324 0.76373 0.90891 0.0
Zn28 Zn 0.06153 0.77532 0.99109 0.0
O29 O 0.01708 0.74822 0.99847 0.0
O30 O 0.04457 0.76057 0.02762 0.0
O31 O 0.01265 0.81325 0.93194 0.0
O32 O 0.99652 0.78422 0.94698 0.0
O33 O 0.01526 0.74361 0.90684 0.0
O34 O 0.04589 0.74475 0.87964 0.0
O35 O 0.08663 0.74732 0.92961 0.0
O36 O 0.05685 0.82425 0.96885 0.0
O37 O 0.08681 0.75795 0.98653 0.0
O38 O 0.07075 0.80314 0.00926 0.0
C39 C 0.06975 0.80321 0.86745 0.0
C40 C 0.02821 0.74968 0.02692 0.0
C41 C 0.02742 0.73814 0.88136 0.0
C42 C 0.99612 0.80334 0.93875 0.0
C43 C 0.09452 0.74725 0.9611 0.0
C44 C 0.06768 0.82126 0.9971 0.0
O45 O 0.07507 0.78478 0.87487 0.0
O46 O 0.81106 0.9408 0.11408 0.0
Zn47 Zn 0.80422 0.95407 0.06669 0.0
O48 O 0.77526 0.95065 0.05432 0.0
Zn49 Zn 0.76208 0.97781 0.04927 0.0
Zn50 Zn 0.76187 0.93465 0.09217 0.0
Zn51 Zn 0.77332 0.93529 0.0094 0.0
O52 O 0.74796 0.98048 -0.00015 0.0
O53 O 0.76068 0.95299 0.97148 0.0
O54 O 0.81232 0.98377 0.06799 0.0
O55 O 0.78368 0.00047 0.05262 0.0
O56 O 0.74231 0.98276 0.09133 0.0
O57 O 0.74266 0.95262 0.12022 0.0
O58 O 0.74575 0.91089 0.0723 0.0
O59 O 0.82249 0.93949 0.03115 0.0
O60 O 0.75463 0.91079 0.01438 0.0
O61 O 0.80094 0.9247 0.99246 0.0
C62 C 0.80145 0.92776 0.13353 0.0
C63 C 0.75026 0.96966 0.97121 0.0
C64 C 0.73637 0.97114 0.11722 0.0
C65 C 0.80277 0.00049 0.06116 0.0
C66 C 0.74468 0.90308 0.04079 0.0
C67 C 0.8192 0.92798 0.00387 0.0
O68 O 0.78272 0.92304 0.12703 0.0
O69 O 0.94029 0.18133 0.88871 0.0
Zn70 Zn 0.95414 0.19007 0.93432 0.0
O71 O 0.94963 0.21913 0.94426 0.0
Zn72 Zn 0.97648 0.23319 0.94909 0.0
Zn73 Zn 0.93371 0.23101 0.90488 0.0
Zn74 Zn 0.93317 0.22164 0.988 0.0
O75 O 0.9781 0.24804 0.99787 0.0
O76 O 0.94901 0.23773 0.02459 0.0
O77 O 0.9841 0.18339 0.9307 0.0
O78 O -2e-05 0.21238 0.94696 0.0
O79 O 0.98102 0.25282 0.90625 0.0
O80 O 0.95135 0.24991 0.87629 0.0
O81 O 0.90962 0.24749 0.92243 0.0
O82 O 0.94119 0.17213 0.97234 0.0
O83 O 0.90703 0.23749 0.97965 0.0
O84 O 0.92488 0.19407 0.00837 0.0
C85 C 0.92747 0.19007 0.86766 0.0
C86 C 0.96592 0.24776 0.0251 0.0
C87 C 0.96938 0.25746 0.87954 0.0
C88 C 0.00051 0.19344 0.93757 0.0
C89 C 0.90027 0.24758 0.95265 0.0
C90 C 0.92946 0.17569 0.99925 0.0
O91 O 0.92274 0.20901 0.8715 0.0
O92 O 0.73901 0.02922 0.49906 0.0
Zn93 Zn 0.74573 0.04252 0.54763 0.0
O94 O 0.77547 0.04732 0.55267 0.0
Zn95 Zn 0.78671 0.03183 0.59299 0.0
Zn96 Zn 0.78959 0.03956 0.50833 0.0
Zn97 Zn 0.78041 0.07616 0.56229 0.0
O98 O 0.80219 0.05001 0.62818 0.0
O99 O 0.79093 0.08096 0.61204 0.0
O100 O 0.73463 0.02663 0.59091 0.0
O101 O 0.76352 0.01895 0.62072 0.0
O102 O 0.80577 0.00963 0.5759 0.0
O103 O 0.80603 0.01339 0.51607 0.0
O104 O 0.80946 0.06185 0.49134 0.0
O105 O 0.73062 0.06966 0.54682 0.0
O106 O 0.80261 0.08701 0.53028 0.0
O107 O 0.75514 0.09307 0.55552 0.0
C108 C 0.7496 0.02927 0.46989 0.0
C109 C 0.80081 0.06936 0.63366 0.0
C110 C 0.81161 0.00386 0.54462 0.0
C111 C 0.74394 0.01829 0.61759 0.0
C112 C 0.81278 0.07991 0.50364 0.0
C113 C 0.73635 0.08837 0.54997 0.0
O114 O 0.76864 0.03427 0.46967 0.0
O115 O 0.05661 0.18193 0.38794 0.0
Zn116 Zn 0.04333 0.19017 0.43496 0.0
O117 O 0.04765 0.21926 0.44543 0.0
Zn118 Zn 0.02106 0.23376 0.44861 0.0
Zn119 Zn 0.0644 0.23127 0.40737 0.0
Zn120 Zn 0.06286 0.22154 0.49044 0.0
O121 O 0.01825 0.2481 0.49782 0.0
O122 O 0.04529 0.23522 0.52735 0.0
O123 O 0.01327 0.18307 0.43476 0.0
O124 O 0.99758 0.21315 0.44419 0.0
O125 O 0.01749 0.25351 0.40606 0.0
O126 O 0.04722 0.24978 0.37674 0.0
O127 O 0.08814 0.24772 0.42673 0.0
O128 O 0.05731 0.17227 0.47167 0.0
O129 O 0.08762 0.2397 0.48498 0.0
O130 O 0.07286 0.19405 0.50899 0.0
C131 C 0.07044 0.19076 0.36893 0.0
C132 C 0.02886 0.246 0.52678 0.0
C133 C 0.02923 0.25756 0.37922 0.0
C134 C 0.99692 0.19374 0.43871 0.0
C135 C 0.09566 0.24921 0.4584 0.0
C136 C 0.06897 0.17572 0.4987 0.0
O137 O 0.07582 0.20933 0.37499 0.0
O138 O 0.18427 0.93869 0.61053 0.0
Zn139 Zn 0.19094 0.95179 0.56291 0.0
O140 O 0.21972 0.94802 0.54974 0.0
Zn141 Zn 0.23357 0.97492 0.54646 0.0
Zn142 Zn 0.23283 0.93102 0.58638 0.0
Zn143 Zn 0.22114 0.93352 0.50385 0.0
O144 O 0.2484 0.97779 0.49777 0.0
O145 O 0.23567 0.95094 0.46754 0.0
O146 O 0.18337 0.98166 0.56428 0.0
O147 O 0.21241 -0.00208 0.54965 0.0
O148 O 0.2529 0.9789 0.58961 0.0
O149 O 0.25215 0.94802 0.61582 0.0
O150 O 0.24842 0.90735 0.56501 0.0
O151 O 0.17229 0.93753 0.52754 0.0
O152 O 0.23809 0.90779 0.50785 0.0
O153 O 0.19314 0.92492 0.48541 0.0
C154 C 0.19359 0.9249 0.62877 0.0
C155 C 0.24663 0.96725 0.46869 0.0
C156 C 0.25853 0.96657 0.61471 0.0
C157 C 0.19327 -0.00177 0.55783 0.0
C158 C 0.24838 0.89962 0.5334 0.0
C159 C 0.17511 0.92743 0.49843 0.0
O160 O 0.21191 0.91936 0.62091 0.0
O161 O 0.94051 0.81185 0.38304 0.0
Zn162 Zn 0.95588 0.80469 0.42839 0.0
O163 O 0.95087 0.77639 0.44321 0.0
Zn164 Zn 0.97729 0.76183 0.448 0.0
Zn165 Zn 0.93348 0.76325 0.40724 0.0
Zn166 Zn 0.93603 0.77626 0.48866 0.0
O167 O 0.97956 0.74826 0.49778 0.0
O168 O 0.95323 0.76293 0.52672 0.0
O169 O 0.98591 0.81029 0.42159 0.0
O170 O 0.00117 0.78208 0.44301 0.0
O171 O 0.98054 0.74128 0.4065 0.0
O172 O 0.95036 0.74378 0.37808 0.0
O173 O 0.90996 0.74772 0.42942 0.0
O174 O 0.94499 0.82462 0.46528 0.0
O175 O 0.91036 0.75912 0.48592 0.0
O176 O 0.92777 0.80484 0.504 0.0
C177 C 0.92635 0.80258 0.36559 0.0
C178 C 0.96918 0.75142 0.52668 0.0
C179 C 0.96848 0.73629 0.38056 0.0
C180 C 0.00211 0.80035 0.43022 0.0
C181 C 0.90225 0.74826 0.46104 0.0
C182 C 0.93324 0.82256 0.49264 0.0
O183 O 0.92128 0.7841 0.37316 0.0
O184 O 0.68538 0.55567 0.61414 0.0
Zn185 Zn 0.6922 0.54353 0.56588 0.0
O186 O 0.72091 0.54761 0.55282 0.0
Zn187 Zn 0.73488 0.52078 0.54882 0.0
Zn188 Zn 0.73368 0.56443 0.59001 0.0
Zn189 Zn 0.72228 0.56253 0.50729 0.0
O190 O 0.74938 0.51829 0.49967 0.0
O191 O 0.73591 0.54502 0.47011 0.0
O192 O 0.68461 0.51374 0.56553 0.0
O193 O 0.71378 0.49758 0.55153 0.0
O194 O 0.75446 0.5167 0.59169 0.0
O195 O 0.75332 0.54739 0.61861 0.0
O196 O 0.7489 0.58856 0.56948 0.0
O197 O 0.67359 0.55839 0.53147 0.0
O198 O 0.73997 0.58782 0.51161 0.0
O199 O 0.69425 0.57189 0.4899 0.0
C200 C 0.69447 0.56941 0.63284 0.0
C201 C 0.74697 0.52878 0.47065 0.0
C202 C 0.76 0.52895 0.61699 0.0
C203 C 0.69454 0.49722 0.55899 0.0
C204 C 0.74964 0.59613 0.53777 0.0
C205 C 0.67628 0.5691 0.50302 0.0
O206 O 0.71266 0.57538 0.62506 0.0
O207 O 0.55703 0.31055 0.38003 0.0
Zn208 Zn 0.54214 0.30599 0.42688 0.0
O209 O 0.5445 0.27761 0.44308 0.0
Zn210 Zn 0.51712 0.26499 0.44715 0.0
Zn211 Zn 0.56126 0.26259 0.40863 0.0
Zn212 Zn 0.5584 0.27697 0.48932 0.0
O213 O 0.51368 0.25108 0.49662 0.0
O214 O 0.53964 0.26557 0.52681 0.0
O215 O 0.51252 0.31449 0.42232 0.0
O216 O 0.49522 0.28722 0.44294 0.0
O217 O 0.51233 0.24523 0.40479 0.0
O218 O 0.5434 0.24422 0.37914 0.0
O219 O 0.58276 0.24533 0.43272 0.0
O220 O 0.55636 0.32525 0.4616 0.0
O221 O 0.58236 0.25752 0.48871 0.0
O222 O 0.56911 0.30477 0.50416 0.0
C223 C 0.57113 0.30019 0.36433 0.0
C224 C 0.52348 0.25438 0.5261 0.0
C225 C 0.52454 0.23874 0.38012 0.0
C226 C 0.49565 0.30572 0.43114 0.0
C227 C 0.58983 0.24556 0.46481 0.0
C228 C 0.56687 0.32262 0.49036 0.0
O229 O 0.57551 0.28191 0.37428 0.0
O230 O 0.31115 0.4404 0.61349 0.0
Zn231 Zn 0.30459 0.45495 0.56707 0.0
O232 O 0.27601 0.45154 0.55265 0.0
Zn233 Zn 0.26218 0.47851 0.54991 0.0
Zn234 Zn 0.26271 0.43414 0.58831 0.0
Zn235 Zn 0.27497 0.43773 0.50611 0.0
O236 O 0.24796 0.48224 0.5008 0.0
O237 O 0.26168 0.45615 0.46994 0.0
O238 O 0.31204 0.4847 0.57105 0.0
O239 O 0.28344 0.5014 0.55528 0.0
O240 O 0.24218 0.48187 0.59221 0.0
O241 O 0.244 0.45118 0.61886 0.0
O242 O 0.24653 0.41142 0.56534 0.0
O243 O 0.32351 0.44175 0.53109 0.0
O244 O 0.257 0.41253 0.50824 0.0
O245 O 0.30313 0.42891 0.48847 0.0
C246 C 0.30174 0.426 0.63011 0.0
C247 C 0.25062 0.47238 0.47121 0.0
C248 C 0.2371 0.46956 0.61771 0.0
C249 C 0.30239 0.50143 0.5648 0.0
C250 C 0.24636 0.40427 0.5333 0.0
C251 C 0.32104 0.43173 0.50181 0.0
O252 O 0.28338 0.42094 0.62162 0.0
O253 O 0.44009 0.68016 0.39584 0.0
Zn254 Zn 0.45415 0.68964 0.44093 0.0
O255 O 0.44943 0.7188 0.44998 0.0
Zn256 Zn 0.47614 0.73329 0.45396 0.0
Zn257 Zn 0.43296 0.73001 0.41055 0.0
Zn258 Zn 0.43351 0.72162 0.49421 0.0
O259 O 0.47834 0.74821 0.50272 0.0
O260 O 0.44966 0.73762 0.53031 0.0
O261 O 0.48417 0.6834 0.4364 0.0
O262 O 0.49988 0.7128 0.45082 0.0
O263 O 0.47981 0.75298 0.41104 0.0
O264 O 0.44988 0.74965 0.38197 0.0
O265 O 0.40804 0.74529 0.42806 0.0
O266 O 0.44182 0.67199 0.47999 0.0
O267 O 0.40752 0.73764 0.48644 0.0
O268 O 0.42526 0.6942 0.51515 0.0
C269 C 0.42761 0.68871 0.37395 0.0
C270 C 0.46648 0.74778 0.53037 0.0
C271 C 0.46781 0.75751 0.38476 0.0
C272 C 0.50053 0.69378 0.44202 0.0
C273 C 0.39959 0.74642 0.45902 0.0
C274 C 0.43007 0.67577 0.50678 0.0
O275 O 0.42297 0.70772 0.37691 0.0
O276 O 0.23998 0.52808 0.00145 0.0
Zn277 Zn 0.24659 0.54215 0.04917 0.0
O278 O 0.27659 0.54575 0.05477 0.0
Zn279 Zn 0.28653 0.53128 0.09758 0.0
Zn280 Zn 0.2914 0.53532 0.01269 0.0
Zn281 Zn 0.2824 0.57492 0.06013 0.0
O282 O 0.30219 0.55031 0.13115 0.0
O283 O 0.29521 0.58107 0.10782 0.0
O284 O 0.23431 0.5276 0.093 0.0
O285 O 0.26243 0.52033 0.12529 0.0
O286 O 0.30498 0.50742 0.08489 0.0
O287 O 0.30818 0.51023 0.02534 0.0
O288 O 0.31101 0.55668 0.99154 0.0
O289 O 0.23227 0.56964 0.0461 0.0
O290 O 0.30272 0.58447 0.02338 0.0
O291 O 0.25737 0.59236 0.05469 0.0
C292 C 0.2514 0.524 0.97422 0.0
C293 C 0.30324 0.56993 0.13237 0.0
C294 C 0.31223 0.50101 0.05492 0.0
C295 C 0.24293 0.51995 0.121 0.0
C296 C 0.31317 0.57581 0.99855 0.0
C297 C 0.23849 0.58819 0.04891 0.0
O298 O 0.27089 0.52677 0.97501 0.0
O299 O 0.55706 0.68061 0.89335 0.0
Zn300 Zn 0.54321 0.68793 0.94012 0.0
O301 O 0.54744 0.71667 0.95292 0.0
Zn302 Zn 0.52084 0.73112 0.95543 0.0
Zn303 Zn 0.56491 0.72916 0.91642 0.0
Zn304 Zn 0.56171 0.71817 0.99898 0.0
O305 O 0.51773 0.74587 0.00412 0.0
O306 O 0.54378 0.73212 0.03514 0.0
O307 O 0.51316 0.6809 0.93771 0.0
O308 O 0.49746 0.71037 0.95138 0.0
O309 O 0.51762 0.75052 0.91222 0.0
O310 O 0.5481 0.74761 0.88508 0.0
O311 O 0.58801 0.74554 0.93806 0.0
O312 O 0.55669 0.66933 0.97638 0.0
O313 O 0.58697 0.73595 0.9956 0.0
O314 O 0.57052 0.6902 0.01729 0.0
C315 C 0.57158 0.68946 0.87608 0.0
C316 C 0.52774 0.74346 0.03364 0.0
C317 C 0.52987 0.7549 0.88621 0.0
C318 C 0.49676 0.69122 0.94345 0.0
C319 C 0.59523 0.74619 0.97004 0.0
C320 C 0.56725 0.67214 0.005 0.0
O321 O 0.57729 0.70772 0.88392 0.0
O322 O 0.68801 0.43707 0.11837 0.0
Zn323 Zn 0.69245 0.45185 0.0716 0.0
O324 O 0.72058 0.44884 0.05446 0.0
Zn325 Zn 0.73359 0.47605 0.05005 0.0
Zn326 Zn 0.73567 0.43209 0.08886 0.0
Zn327 Zn 0.72049 0.43446 0.00842 0.0
O328 O 0.74714 0.47911 0.00032 0.0
O329 O 0.73374 0.45225 0.97099 0.0
O330 O 0.68469 0.48157 0.07699 0.0
O331 O 0.71185 0.49844 0.05494 0.0
O332 O 0.75379 0.48064 0.09191 0.0
O333 O 0.75449 0.44971 0.11793 0.0
O334 O 0.75237 0.41028 0.06446 0.0
O335 O 0.67246 0.4384 0.03729 0.0
O336 O 0.73771 0.40868 0.01023 0.0
O337 O 0.69188 0.42616 0.99277 0.0
C338 C 0.69821 0.42289 0.13409 0.0
C339 C 0.74458 0.46866 0.9713 0.0
C340 C 0.76024 0.46847 0.11666 0.0
C341 C 0.69357 0.4983 0.0678 0.0
C342 C 0.75042 0.40187 0.03358 0.0
C343 C 0.6743 0.42866 0.00756 0.0
O344 O 0.71637 0.41812 0.12386 0.0
O345 O 0.43961 0.31024 0.87979 0.0
Zn346 Zn 0.45418 0.30391 0.92625 0.0
O347 O 0.45003 0.27547 0.9411 0.0
Zn348 Zn 0.47699 0.2619 0.94644 0.0
Zn349 Zn 0.43364 0.26151 0.90471 0.0
Zn350 Zn 0.43444 0.27484 0.98602 0.0
O351 O 0.47877 0.24755 0.99562 0.0
O352 O 0.45072 0.25967 0.02325 0.0
O353 O 0.48414 0.31086 0.92193 0.0
O354 O 0.50006 0.28318 0.94394 0.0
O355 O 0.48178 0.24197 0.90426 0.0
O356 O 0.45118 0.24209 0.87692 0.0
O357 O 0.41022 0.2456 0.92609 0.0
O358 O 0.44192 0.32337 0.96257 0.0
O359 O 0.40774 0.25921 0.98099 0.0
O360 O 0.42752 0.30329 0.0041 0.0
C361 C 0.4262 0.30036 0.86156 0.0
C362 C 0.46726 0.24903 0.02361 0.0
C363 C 0.46974 0.2358 0.8791 0.0
C364 C 0.50053 0.3016 0.93176 0.0
C365 C 0.40096 0.24739 0.95623 0.0
C366 C 0.43164 0.32114 0.99165 0.0
O367 O 0.42155 0.28177 0.86926 0.0
H368 H 0.20659 0.1057 0.16639 0.0
H369 H 0.18542 0.12557 0.20878 0.0
H370 H 0.1389 0.07796 0.20671 0.0
H371 H 0.15983 0.05798 0.16432 0.0
H372 H 0.1422 0.1375 0.18908 0.0
H373 H 0.14857 0.09255 0.31696 0.0
H374 H 0.16792 0.09136 0.28175 0.0
H375 H 0.14378 0.07813 0.27618 0.0
C376 C 0.19204 0.09926 0.17547 0.0
C377 C 0.18483 0.08031 0.16185 0.0
C378 C 0.17997 0.11066 0.19957 0.0
C379 C 0.16071 0.10313 0.21081 0.0
C380 C 0.15385 0.08387 0.19852 0.0
H381 H 0.06279 0.15118 0.34661 0.0
H382 H 0.0838 0.13023 0.30571 0.0
C383 C 0.1658 0.07254 0.17422 0.0
C384 C 0.14698 0.11615 0.23291 0.0
H385 H 0.12434 0.11982 0.3159 0.0
C386 C 0.13833 0.13375 0.21688 0.0
C387 C 0.14187 0.11094 0.26888 0.0
C388 C 0.15107 0.09229 0.28722 0.0
C389 C 0.12443 0.14628 0.23589 0.0
C390 C 0.1195 0.14126 0.27212 0.0
C391 C 0.12813 0.12358 0.28808 0.0
C392 C 0.10589 0.15445 0.29438 0.0
C393 C 0.11482 0.16447 0.21673 0.0
C394 C 0.11128 0.17504 0.30123 0.0
C395 C 0.09924 0.1871 0.32429 0.0
C396 C 0.08174 0.17868 0.34137 0.0
C397 C 0.07616 0.15814 0.33388 0.0
C398 C 0.08816 0.14613 0.31061 0.0
H399 H 0.11522 0.16253 0.18687 0.0
H400 H 0.09854 0.16677 0.22529 0.0
H401 H 0.12365 0.17864 0.22347 0.0
H402 H 0.12515 0.18162 0.28959 0.0
H403 H 0.10408 0.20281 0.32964 0.0
H404 H 0.0609 0.84151 0.84057 0.0
H405 H 0.08178 0.86198 0.79883 0.0
H406 H 0.1254 0.81193 0.78991 0.0
H407 H 0.10445 0.79115 0.83097 0.0
H408 H 0.12162 0.87421 0.81098 0.0
H409 H 0.11691 0.82793 0.68496 0.0
H410 H 0.09958 0.82402 0.72261 0.0
H411 H 0.1252 0.81329 0.72353 0.0
C412 C 0.07475 0.8347 0.82926 0.0
C413 C 0.08101 0.81469 0.83911 0.0
C414 C 0.08667 0.84645 0.80549 0.0
C415 C 0.10502 0.83839 0.79109 0.0
C416 C 0.11107 0.81827 0.80015 0.0
H417 H 0.20509 0.88967 0.66421 0.0
H418 H 0.18424 0.8693 0.70633 0.0
C419 C 0.0991 0.80645 0.82375 0.0
C420 C 0.11852 0.85156 0.76861 0.0
H421 H 0.14218 0.85464 0.68631 0.0
C422 C 0.12602 0.87001 0.78363 0.0
C423 C 0.12426 0.84596 0.73302 0.0
C424 C 0.11592 0.82682 0.71491 0.0
C425 C 0.13933 0.88293 0.76409 0.0
C426 C 0.14515 0.87723 0.72869 0.0
C427 C 0.13773 0.8588 0.71365 0.0
C428 C 0.15845 0.8905 0.70623 0.0
C429 C 0.1473 0.90243 0.78147 0.0
C430 C 0.15083 0.90922 0.69276 0.0
C431 C 0.16261 0.92084 0.66861 0.0
C432 C 0.18222 0.91391 0.65757 0.0
C433 C 0.19008 0.89548 0.67222 0.0
C434 C 0.1782 0.88379 0.69618 0.0
H435 H 0.14458 0.90259 0.81115 0.0
H436 H 0.1641 0.90426 0.7763 0.0
H437 H 0.13927 0.91592 0.76945 0.0
H438 H 0.1355 0.91449 0.70003 0.0
H439 H 0.15612 0.93498 0.65787 0.0
H440 H 0.9349 0.84071 0.33767 0.0
H441 H 0.91306 0.86141 0.29775 0.0
H442 H 0.86883 0.81178 0.29218 0.0
H443 H 0.89054 0.79083 0.33203 0.0
H444 H 0.89539 0.84949 0.2242 0.0
H445 H 0.83774 0.86531 0.33267 0.0
H446 H 0.86396 0.85759 0.34255 0.0
H447 H 0.84574 0.83895 0.32616 0.0
C448 C 0.92064 0.83408 0.32769 0.0
C449 C 0.9144 0.81416 0.33823 0.0
C450 C 0.90821 0.84594 0.30491 0.0
C451 C 0.8893 0.83815 0.29257 0.0
C452 C 0.88333 0.81805 0.30186 0.0
H453 H 0.78913 0.89339 0.17083 0.0
H454 H 0.81034 0.87177 0.21032 0.0
C455 C 0.8958 0.8061 0.32446 0.0
C456 C 0.87556 0.85134 0.27078 0.0
H457 H 0.83085 0.87909 0.2749 0.0
C458 C 0.88127 0.85599 0.23515 0.0
C459 C 0.85718 0.85963 0.28537 0.0
C460 C 0.85073 0.85529 0.32386 0.0
C461 C 0.86889 0.86868 0.21342 0.0
C462 C 0.85066 0.87733 0.2282 0.0
C463 C 0.84489 0.8725 0.26379 0.0
C464 C 0.83735 0.89135 0.20696 0.0
C465 C 0.87523 0.87237 0.17464 0.0
C466 C 0.84529 0.9099 0.19326 0.0
C467 C 0.83328 0.92224 0.17061 0.0
C468 C 0.81301 0.91634 0.16159 0.0
C469 C 0.80469 0.89836 0.17716 0.0
C470 C 0.81679 0.88595 0.19965 0.0
H471 H 0.88613 0.86035 0.16488 0.0
H472 H 0.86157 0.87262 0.15646 0.0
H473 H 0.88312 0.88753 0.17262 0.0
H474 H 0.86096 0.9146 0.19945 0.0
H475 H 0.84009 0.93612 0.15942 0.0
H476 H 0.79693 0.10874 0.65836 0.0
H477 H 0.81925 0.12654 0.70127 0.0
H478 H 0.85321 0.07026 0.71963 0.0
H479 H 0.831 0.0522 0.67621 0.0
H480 H 0.82913 0.11826 0.77536 0.0
H481 H 0.89696 0.11252 0.68312 0.0
H482 H 0.8709 0.10765 0.668 0.0
H483 H 0.88425 0.08872 0.69465 0.0
C484 C 0.809 0.10003 0.67175 0.0
C485 C 0.81237 0.0791 0.66355 0.0
C486 C 0.8217 0.11024 0.69631 0.0
C487 C 0.83803 0.09977 0.71301 0.0
C488 C 0.84084 0.07863 0.70645 0.0
H489 H 0.93474 0.14972 0.85041 0.0
H490 H 0.91348 0.1273 0.81259 0.0
C491 C 0.82806 0.06833 0.68188 0.0
C492 C 0.85259 0.11145 0.73585 0.0
H493 H 0.90178 0.13037 0.73796 0.0
C494 C 0.84505 0.12082 0.76738 0.0
C495 C 0.87329 0.11476 0.7251 0.0
C496 C 0.8819 0.10554 0.69075 0.0
C497 C 0.8577 0.13359 0.78847 0.0
C498 C 0.87825 0.13729 0.77725 0.0
C499 C 0.88595 0.12754 0.7462 0.0
C500 C 0.89196 0.15131 0.79751 0.0
C501 C 0.84903 0.14293 0.82265 0.0
C502 C 0.88724 0.17237 0.80034 0.0
C503 C 0.89936 0.18529 0.82186 0.0
C504 C 0.9164 0.17729 0.84084 0.0
C505 C 0.92164 0.15636 0.83638 0.0
C506 C 0.90953 0.1435 0.81481 0.0
H507 H 0.8349 0.13474 0.83189 0.0
H508 H 0.86064 0.1426 0.84476 0.0
H509 H 0.84488 0.15928 0.81746 0.0
H510 H 0.87391 0.17871 0.78653 0.0
H511 H 0.89495 0.20134 0.82457 0.0
H512 H 0.56251 0.6512 0.84912 0.0
H513 H 0.58358 0.63041 0.80802 0.0
H514 H 0.62776 0.67998 0.79976 0.0
H515 H 0.60687 0.70097 0.84077 0.0
H516 H 0.59921 0.64183 0.73403 0.0
H517 H 0.6602 0.62714 0.83707 0.0
H518 H 0.63434 0.63507 0.8491 0.0
H519 H 0.65223 0.65352 0.83096 0.0
C520 C 0.57661 0.65778 0.83835 0.0
C521 C 0.58309 0.6777 0.84842 0.0
C522 C 0.5886 0.64588 0.81491 0.0
C523 C 0.60727 0.65363 0.80146 0.0
C524 C 0.61347 0.67371 0.81037 0.0
H525 H 0.70559 0.60418 0.66999 0.0
H526 H 0.68428 0.624 0.71208 0.0
C527 C 0.60145 0.68569 0.83363 0.0
C528 C 0.62052 0.64055 0.77862 0.0
H529 H 0.66629 0.6145 0.77808 0.0
C530 C 0.61385 0.63577 0.74357 0.0
C531 C 0.63957 0.63281 0.79139 0.0
C532 C 0.64705 0.63722 0.82927 0.0
C533 C 0.62601 0.62365 0.72049 0.0
C534 C 0.64503 0.61575 0.73333 0.0
C535 C 0.65166 0.62054 0.76846 0.0
C536 C 0.65845 0.60282 0.71034 0.0
C537 C 0.61864 0.6199 0.6823 0.0
C538 C 0.65123 0.58399 0.69657 0.0
C539 C 0.66329 0.57268 0.67239 0.0
C540 C 0.68289 0.57992 0.66192 0.0
C541 C 0.69054 0.59821 0.67741 0.0
C542 C 0.67839 0.60957 0.70141 0.0
H543 H 0.60675 0.63131 0.67397 0.0
H544 H 0.63168 0.62061 0.66281 0.0
H545 H 0.61162 0.6043 0.68061 0.0
H546 H 0.63608 0.57827 0.70394 0.0
H547 H 0.65704 0.55853 0.66128 0.0
H548 H 0.56455 0.33772 0.33274 0.0
H549 H 0.58763 0.35624 0.29188 0.0
H550 H 0.62968 0.30464 0.29201 0.0
H551 H 0.60671 0.2859 0.33311 0.0
H552 H 0.64766 0.34423 0.30899 0.0
H553 H 0.60057 0.34605 0.18352 0.0
H554 H 0.58693 0.35386 0.22358 0.0
H555 H 0.59601 0.32775 0.21955 0.0
C556 C 0.57854 0.33014 0.32371 0.0
C557 C 0.5838 0.31034 0.33624 0.0
C558 C 0.59166 0.34073 0.30025 0.0
C559 C 0.61023 0.33171 0.28884 0.0
C560 C 0.61534 0.31178 0.30051 0.0
H561 H 0.71096 0.38625 0.16363 0.0
H562 H 0.691 0.36348 0.20322 0.0
C563 C 0.60216 0.3011 0.32386 0.0
C564 C 0.62483 0.34373 0.26662 0.0
H565 H 0.62918 0.36912 0.18627 0.0
C566 C 0.6438 0.3495 0.28197 0.0
C567 C 0.61961 0.35054 0.23152 0.0
C568 C 0.59975 0.3441 0.21336 0.0
C569 C 0.65742 0.36267 0.26354 0.0
C570 C 0.65195 0.36989 0.22877 0.0
C571 C 0.63322 0.36364 0.21309 0.0
C572 C 0.66509 0.38438 0.20827 0.0
C573 C 0.67713 0.36937 0.2819 0.0
C574 C 0.65717 0.40369 0.19834 0.0
C575 C 0.66842 0.41665 0.1756 0.0
C576 C 0.68781 0.41049 0.16227 0.0
C577 C 0.69612 0.39149 0.17357 0.0
C578 C 0.68477 0.37848 0.19625 0.0
H579 H 0.6768 0.36622 0.31145 0.0
H580 H 0.69031 0.36076 0.27006 0.0
H581 H 0.67994 0.3861 0.27765 0.0
H582 H 0.64201 0.40851 0.20744 0.0
H583 H 0.66162 0.43122 0.16758 0.0
H584 H 0.39114 0.28764 0.82666 0.0
H585 H 0.36976 0.3078 0.78502 0.0
H586 H 0.41322 0.35811 0.79096 0.0
H587 H 0.4347 0.33818 0.83252 0.0
H588 H 0.35312 0.34831 0.80469 0.0
H589 H 0.40161 0.35002 0.68059 0.0
H590 H 0.40459 0.33061 0.71533 0.0
H591 H 0.41479 0.35609 0.72207 0.0
C592 C 0.39635 0.30285 0.81863 0.0
C593 C 0.4146 0.31134 0.833 0.0
C594 C 0.38409 0.31434 0.79495 0.0
C595 C 0.39002 0.33434 0.78489 0.0
C596 C 0.40855 0.34259 0.79813 0.0
H597 H 0.33968 0.43418 0.65921 0.0
H598 H 0.36005 0.41195 0.69886 0.0
C599 C 0.42075 0.33119 0.82198 0.0
C600 C 0.37617 0.34724 0.76273 0.0
H601 H 0.37294 0.37278 0.68232 0.0
C602 C 0.35731 0.35356 0.77779 0.0
C603 C 0.38186 0.3541 0.72788 0.0
C604 C 0.40174 0.34726 0.71027 0.0
C605 C 0.34415 0.36708 0.75918 0.0
C606 C 0.34988 0.37404 0.72433 0.0
C607 C 0.36865 0.36748 0.70913 0.0
C608 C 0.3367 0.38816 0.70301 0.0
C609 C 0.32458 0.37428 0.77745 0.0
C610 C 0.31671 0.38226 0.69264 0.0
C611 C 0.30493 0.39501 0.67023 0.0
C612 C 0.31308 0.41376 0.65739 0.0
C613 C 0.33294 0.41983 0.66857 0.0
C614 C 0.34463 0.40713 0.69115 0.0
H615 H 0.3253 0.37215 0.80726 0.0
H616 H 0.32154 0.39081 0.77159 0.0
H617 H 0.31136 0.36511 0.76715 0.0
H618 H 0.31046 0.36749 0.70093 0.0
H619 H 0.28977 0.38979 0.66191 0.0
H620 H 0.33024 0.5525 0.18077 0.0
H621 H 0.35175 0.57059 0.22531 0.0
H622 H 0.32436 0.62852 0.19381 0.0
H623 H 0.30287 0.61076 0.14959 0.0
H624 H 0.38032 0.60344 0.20691 0.0
H625 H 0.32081 0.62836 0.30574 0.0
H626 H 0.31662 0.60755 0.27405 0.0
H627 H 0.31444 0.63392 0.25945 0.0
C628 C 0.32858 0.56904 0.18376 0.0
C629 C 0.31488 0.5802 0.16163 0.0
C630 C 0.3409 0.57932 0.20908 0.0
C631 C 0.33944 0.60081 0.21295 0.0
C632 C 0.32545 0.61188 0.19155 0.0
H633 H 0.39816 0.70065 0.32507 0.0
H634 H 0.37809 0.67842 0.28481 0.0
C635 C 0.31327 0.60169 0.16615 0.0
C636 C 0.35338 0.61205 0.23757 0.0
H637 H 0.35351 0.64521 0.30915 0.0
C638 C 0.37457 0.61238 0.2296 0.0
C639 C 0.3457 0.62373 0.26689 0.0
C640 C 0.32317 0.62328 0.27733 0.0
C641 C 0.38824 0.62476 0.24948 0.0
C642 C 0.38046 0.6368 0.2783 0.0
C643 C 0.35935 0.63608 0.28678 0.0
C644 C 0.39391 0.65034 0.30015 0.0
C645 C 0.41072 0.62542 0.23872 0.0
C646 C 0.40956 0.64188 0.3217 0.0
C647 C 0.4211 0.65451 0.34463 0.0
C648 C 0.41704 0.67583 0.34662 0.0
C649 C 0.4017 0.68432 0.32419 0.0
C650 C 0.39018 0.67165 0.30125 0.0
H651 H 0.41321 0.61923 0.21102 0.0
H652 H 0.41676 0.64145 0.23985 0.0
H653 H 0.41983 0.61588 0.25787 0.0
H654 H 0.41243 0.62541 0.32163 0.0
H655 H 0.43276 0.64744 0.36159 0.0
H656 H 0.15414 0.99099 0.07755 0.0
H657 H 0.13448 0.959 0.07505 0.0
H658 H 0.18889 0.92619 0.04011 0.0
H659 H 0.20879 0.95834 0.042 0.0
H660 H 0.15536 0.91905 0.99692 0.0
H661 H 0.13351 0.90859 0.14056 0.0
H662 H 0.12726 0.93384 0.12392 0.0
H663 H 0.15386 0.9259 0.12648 0.0
C664 C 0.16206 0.97697 0.06969 0.0
C665 C 0.18307 0.97727 0.05987 0.0
C666 C 0.1508 0.95863 0.06862 0.0
C667 C 0.1603 0.94016 0.05801 0.0
C668 C 0.18133 0.94028 0.04869 0.0
H669 H 0.09763 0.82046 0.04964 0.0
H670 H 0.12045 0.84887 0.06732 0.0
C671 C 0.19266 0.95866 0.04975 0.0
C672 C 0.14773 0.92123 0.05352 0.0
H673 H 0.11338 0.88972 0.0969 0.0
C674 C 0.1464 0.91248 0.01889 0.0
C675 C 0.1362 0.91255 0.0823 0.0
C676 C 0.13792 0.92057 0.12049 0.0
C677 C 0.13318 0.89582 0.01191 0.0
C678 C 0.12073 0.88795 0.04018 0.0
C679 C 0.12271 0.89606 0.07518 0.0
C680 C 0.10537 0.8715 0.03339 0.0
C681 C 0.13255 0.88686 0.97422 0.0
C682 C 0.08884 0.87512 0.00975 0.0
C683 C 0.07579 0.85899 -0.00041 0.0
C684 C 0.079 0.83893 0.01303 0.0
C685 C 0.09475 0.83569 0.03868 0.0
C686 C 0.10784 0.85188 0.04878 0.0
H687 H 0.14658 0.89096 0.95844 0.0
H688 H 0.13113 0.86979 0.9751 0.0
H689 H 0.11892 0.8931 0.95965 0.0
H690 H 0.08647 0.8903 0.99816 0.0
H691 H 0.06371 0.86211 0.98007 0.0
H692 H 0.818 0.89758 0.95216 0.0
H693 H 0.84643 0.87492 0.93383 0.0
H694 H 0.88831 0.90932 0.00153 0.0
H695 H 0.86016 0.93195 0.02018 0.0
H696 H 0.8874 0.88304 0.90303 0.0
H697 H 0.8896 0.84885 0.04073 0.0
H698 H 0.86804 0.86392 0.02453 0.0
H699 H 0.89115 0.87653 0.03995 0.0
C700 C 0.83333 0.90055 0.9627 0.0
C701 C 0.83674 0.91643 0.98802 0.0
C702 C 0.84952 0.88757 0.95221 0.0
C703 C 0.8693 0.89025 0.96693 0.0
C704 C 0.87303 0.90682 0.99041 0.0
H705 H 0.98955 0.84381 0.92142 0.0
H706 H 0.95722 0.86296 0.92427 0.0
C707 C 0.85691 0.91978 0.00091 0.0
C708 C 0.88586 0.87515 0.95955 0.0
H709 H 0.91765 0.84074 0.00167 0.0
C710 C 0.89393 0.87363 0.92444 0.0
C711 C 0.89401 0.86262 0.98744 0.0
C712 C 0.88516 0.86286 0.02523 0.0
C713 C 0.91066 0.86052 0.91686 0.0
C714 C 0.91958 0.8489 0.94527 0.0
C715 C 0.91088 0.84977 0.97998 0.0
C716 C 0.9387 0.8367 0.94032 0.0
C717 C 0.91868 0.8593 0.8786 0.0
C718 C 0.93909 0.8156 0.94889 0.0
C719 C 0.95765 0.80457 0.94762 0.0
C720 C 0.97617 0.81453 0.93803 0.0
C721 C 0.9756 0.83561 0.92887 0.0
C722 C 0.95707 0.84658 0.93014 0.0
H723 H 0.90663 0.86379 0.85869 0.0
H724 H 0.93185 0.87012 0.8755 0.0
H725 H 0.92418 0.8435 0.87209 0.0
H726 H 0.92508 0.80774 0.95712 0.0
H727 H 0.95752 0.78837 0.95484 0.0
H728 H 0.93517 0.13452 0.98664 0.0
H729 H 0.91272 0.10628 0.00571 0.0
H730 H 0.87643 0.14862 0.06933 0.0
H731 H 0.89886 0.17711 0.05056 0.0
H732 H 0.88426 0.10731 0.10164 0.0
H733 H 0.85268 0.10567 0.96189 0.0
H734 H 0.88036 0.1042 0.96472 0.0
H735 H 0.86732 0.12721 0.97933 0.0
C736 C 0.92268 0.13783 0.00526 0.0
C737 C 0.91864 0.15816 0.01663 0.0
C738 C 0.90984 0.12167 0.01602 0.0
C739 C 0.89274 0.12552 0.03829 0.0
C740 C 0.88951 0.14544 0.05191 0.0
H741 H 0.78889 0.0394 0.04459 0.0
H742 H 0.80903 0.0714 0.04354 0.0
C743 C 0.90237 0.16167 0.04117 0.0
C744 C 0.87739 0.10907 0.04475 0.0
H745 H 0.84304 0.0781 0.00064 0.0
C746 C 0.87511 0.10098 0.07971 0.0
C747 C 0.8652 0.10122 0.01615 0.0
C748 C 0.86631 0.11011 0.97844 0.0
C749 C 0.8615 0.08453 0.08649 0.0
C750 C 0.85015 0.07594 0.05744 0.0
C751 C 0.85184 0.08464 0.02283 0.0
C752 C 0.83742 0.05711 0.06162 0.0
C753 C 0.85945 0.07648 0.12461 0.0
C754 C 0.84674 0.03852 0.07207 0.0
C755 C 0.83533 0.02026 0.07263 0.0
C756 C 0.81438 0.02017 0.06246 0.0
C757 C 0.80497 0.03891 0.05258 0.0
C758 C 0.81644 0.05721 0.05201 0.0
H759 H 0.8639 0.08836 0.14483 0.0
H760 H 0.84339 0.07136 0.13028 0.0
H761 H 0.86989 0.06305 0.12816 0.0
H762 H 0.86302 0.038 0.07874 0.0
H763 H 0.84311 0.00613 0.08035 0.0
H764 H 0.03547 0.2 0.97745 0.0
H765 H 0.06675 0.17879 0.97794 0.0
H766 H 0.04187 0.14146 0.89154 0.0
H767 H 0.01022 0.16191 0.8924 0.0
H768 H 0.05487 0.11775 0.94138 0.0
H769 H 0.11666 0.17466 0.91633 0.0
H770 H 0.1014 0.18228 0.95448 0.0
H771 H 0.08971 0.18086 0.91026 0.0
C772 C 0.03688 0.18748 0.95821 0.0
C773 C 0.02043 0.1825 0.93504 0.0
C774 C 0.05482 0.17545 0.95826 0.0
C775 C 0.05685 0.15866 0.93438 0.0
C776 C 0.04071 0.1543 0.91021 0.0
H777 H 0.17346 0.08903 0.93812 0.0
H778 H 0.14425 0.10941 0.91569 0.0
C779 C 0.02263 0.16599 0.91073 0.0
C780 C 0.07474 0.14439 0.93709 0.0
H781 H 0.12725 0.1427 0.94478 0.0
C782 C 0.07071 0.12322 0.94148 0.0
C783 C 0.09547 0.15134 0.93652 0.0
C784 C 0.10106 0.1735 0.92871 0.0
C785 C 0.0867 0.10901 0.94697 0.0
C786 C 0.10727 0.11622 0.94956 0.0
C787 C 0.11144 0.1372 0.94336 0.0
C788 C 0.12439 0.10258 0.96128 0.0
C789 C 0.0813 0.08641 0.95005 0.0
C790 C 0.1229 0.09192 0.99422 0.0
C791 C 0.13936 0.08008 0.00679 0.0
C792 C 0.15791 0.07897 0.98709 0.0
C793 C 0.15936 0.0895 0.95388 0.0
C794 C 0.14272 0.1012 0.94109 0.0
H795 H 0.06712 0.08273 0.93439 0.0
H796 H 0.09406 0.07642 0.94022 0.0
H797 H 0.07817 0.08261 0.97881 0.0
H798 H 0.10919 0.09324 0.01084 0.0
H799 H 0.13776 0.07241 0.03268 0.0
H800 H 0.81379 0.97619 0.48918 0.0
H801 H 0.83548 0.94532 0.48576 0.0
H802 H 0.86274 0.96072 0.5889 0.0
H803 H 0.8402 0.99084 0.59336 0.0
H804 H 0.87464 0.94024 0.48203 0.0
H805 H 0.84849 0.90247 0.60825 0.0
H806 H 0.83577 0.9249 0.58997 0.0
H807 H 0.85885 0.92763 0.61685 0.0
C808 C 0.82434 0.97287 0.51116 0.0
C809 C 0.8252 0.98572 0.54168 0.0
C810 C 0.83672 0.95526 0.50923 0.0
C811 C 0.85043 0.9504 0.53749 0.0
C812 C 0.85177 0.96367 0.5674 0.0
H813 H 0.94911 0.86154 0.49549 0.0
H814 H 0.93049 0.8932 0.51104 0.0
C815 C 0.83902 0.98098 0.56978 0.0
C816 C 0.86369 0.93178 0.53503 0.0
H817 H 0.87854 0.88836 0.58046 0.0
C818 C 0.8754 0.92884 0.50349 0.0
C819 C 0.86449 0.91675 0.56284 0.0
C820 C 0.85105 0.91797 0.59617 0.0
C821 C 0.88776 0.9113 0.49882 0.0
C822 C 0.8893 0.89674 0.52731 0.0
C823 C 0.87765 0.8997 0.55892 0.0
C824 C 0.90176 0.87764 0.52375 0.0
C825 C 0.89832 0.90822 0.46276 0.0
C826 C 0.89235 0.85832 0.52869 0.0
C827 C 0.9032 0.84021 0.52114 0.0
C828 C 0.92352 0.84117 0.50794 0.0
C829 C 0.93336 0.86043 0.50521 0.0
C830 C 0.92266 0.87851 0.51368 0.0
H831 H 0.89075 0.91732 0.44099 0.0
H832 H 0.91458 0.91352 0.46473 0.0
H833 H 0.89826 0.89173 0.45466 0.0
H834 H 0.87629 0.85724 0.53675 0.0
H835 H 0.89521 0.82557 0.52338 0.0
H836 H 0.82787 0.08132 0.43413 0.0
H837 H 0.85666 0.10257 0.41186 0.0
H838 H 0.86573 0.1267 0.51961 0.0
H839 H 0.83643 0.10675 0.5411 0.0
H840 H 0.86921 0.15627 0.47451 0.0
H841 H 0.91626 0.09096 0.4226 0.0
H842 H 0.89166 0.09373 0.40084 0.0
H843 H 0.89287 0.08698 0.44805 0.0
C844 C 0.83604 0.09126 0.45285 0.0
C845 C 0.82995 0.09244 0.48927 0.0
C846 C 0.85257 0.10326 0.44022 0.0
C847 C 0.86367 0.11601 0.46416 0.0
C848 C 0.85743 0.11711 0.50049 0.0
H849 H 0.98846 0.15533 0.46363 0.0
H850 H 0.9551 0.13784 0.46501 0.0
C851 C 0.84067 0.10564 0.5128 0.0
C852 C 0.88186 0.12827 0.45229 0.0
H853 H 0.93038 0.12418 0.41685 0.0
C854 C 0.88259 0.14926 0.4618 0.0
C855 C 0.89933 0.11912 0.43571 0.0
C856 C 0.90014 0.09644 0.42648 0.0
C857 C 0.90061 0.16102 0.45736 0.0
C858 C 0.91812 0.15185 0.44094 0.0
C859 C 0.91698 0.1312 0.42945 0.0
C860 C 0.93837 0.16262 0.43866 0.0
C861 C 0.90097 0.18266 0.47253 0.0
C862 C 0.94024 0.18235 0.42313 0.0
C863 C 0.95923 0.19267 0.42349 0.0
C864 C 0.97681 0.18309 0.43807 0.0
C865 C 0.97512 0.16306 0.4522 0.0
C866 C 0.95607 0.15302 0.45284 0.0
H867 H 0.88851 0.18512 0.49276 0.0
H868 H 0.916 0.1861 0.48569 0.0
H869 H 0.89854 0.19387 0.45025 0.0
H870 H 0.92703 0.18982 0.41088 0.0
H871 H 0.96025 0.208 0.41191 0.0
H872 H 0.06242 0.13469 0.48681 0.0
H873 H 0.08434 0.10604 0.5056 0.0
H874 H 0.12288 0.14799 0.56596 0.0
H875 H 0.10091 0.17689 0.54748 0.0
H876 H 0.12702 0.10579 0.48667 0.0
H877 H 0.11455 0.09773 0.63503 0.0
H878 H 0.09619 0.11049 0.60577 0.0
H879 H 0.11968 0.12332 0.61833 0.0
C880 C 0.07529 0.13784 0.50469 0.0
C881 C 0.08001 0.15813 0.51539 0.0
C882 C 0.0878 0.12143 0.51538 0.0
C883 C 0.10519 0.12493 0.53712 0.0
C884 C 0.10937 0.14496 0.5495 0.0
H885 H 0.20793 0.03689 0.54139 0.0
H886 H 0.18826 0.06917 0.53942 0.0
C887 C 0.09681 0.16145 0.53884 0.0
C888 C 0.11995 0.10793 0.54346 0.0
H889 H 0.13985 0.07621 0.60842 0.0
C890 C 0.12993 0.09937 0.5133 0.0
C891 C 0.12363 0.09967 0.57824 0.0
C892 C 0.11289 0.10811 0.61128 0.0
C893 C 0.14324 0.08246 0.51684 0.0
C894 C 0.14689 0.07411 0.5516 0.0
C895 C 0.13713 0.08283 0.58189 0.0
C896 C 0.15946 0.05527 0.5564 0.0
C897 C 0.1527 0.07318 0.48322 0.0
C898 C 0.14988 0.03697 0.56766 0.0
C899 C 0.16101 0.01856 0.56884 0.0
C900 C 0.182 0.01811 0.55889 0.0
C901 C 0.19176 0.03667 0.54896 0.0
C902 C 0.18057 0.05511 0.54776 0.0
H903 H 0.14524 0.07898 0.45813 0.0
H904 H 0.16934 0.07725 0.48209 0.0
H905 H 0.15144 0.05609 0.48373 0.0
H906 H 0.1336 0.03681 0.57444 0.0
H907 H 0.15302 0.00461 0.57689 0.0
H908 H 0.17393 0.90634 0.434 0.0
H909 H 0.14539 0.8855 0.41034 0.0
H910 H 0.1082 0.90228 0.50262 0.0
H911 H 0.13617 0.92354 0.52572 0.0
H912 H 0.12836 0.85228 0.43995 0.0
H913 H 0.06758 0.9111 0.42297 0.0
H914 H 0.09429 0.91792 0.43018 0.0
H915 H 0.07772 0.91198 0.46802 0.0
C916 C 0.15951 0.90592 0.44885 0.0
C917 C 0.15732 0.9167 0.48168 0.0
C918 C 0.14325 0.89396 0.43534 0.0
C919 C 0.12454 0.89257 0.45441 0.0
C920 C 0.12225 0.90356 0.48686 0.0
H921 H 0.03669 0.79472 0.47145 0.0
H922 H 0.06784 0.81608 0.47154 0.0
C923 C 0.13836 0.91566 0.50016 0.0
C924 C 0.10788 0.87849 0.44215 0.0
H925 H 0.05574 0.87596 0.43047 0.0
C926 C 0.11251 0.8575 0.4372 0.0
C927 C 0.08729 0.88532 0.43784 0.0
C928 C 0.08149 0.90786 0.43964 0.0
C929 C 0.09692 0.843 0.42998 0.0
C930 C 0.0761 0.84961 0.4288 0.0
C931 C 0.07165 0.87076 0.43187 0.0
C932 C 0.05851 0.83498 0.42598 0.0
C933 C 0.103 0.82081 0.42374 0.0
C934 C 0.04276 0.83853 0.40063 0.0
C935 C 0.02474 0.82673 0.40124 0.0
C936 C 0.02221 0.81092 0.42689 0.0
C937 C 0.03835 0.80666 0.45113 0.0
C938 C 0.05623 0.81878 0.45101 0.0
H939 H 0.11885 0.81971 0.41237 0.0
H940 H 0.10296 0.81249 0.44999 0.0
H941 H 0.09214 0.81294 0.40503 0.0
H942 H 0.04413 0.85091 0.38105 0.0
H943 H 0.01257 0.83027 0.38209 0.0
H944 H 0.65378 0.49111 0.57446 0.0
H945 H 0.63421 0.45916 0.57042 0.0
H946 H 0.68946 0.42631 0.53988 0.0
H947 H 0.70929 0.45847 0.54325 0.0
H948 H 0.65728 0.419 0.49419 0.0
H949 H 0.63123 0.40894 0.63564 0.0
H950 H 0.6254 0.43419 0.61859 0.0
H951 H 0.65192 0.42628 0.62331 0.0
C952 C 0.66191 0.47709 0.56727 0.0
C953 C 0.68314 0.47739 0.55906 0.0
C954 C 0.65068 0.45877 0.56532 0.0
C955 C 0.66044 0.44029 0.55548 0.0
C956 C 0.68169 0.4404 0.54784 0.0
H957 H 0.59514 0.32212 0.54557 0.0
H958 H 0.61835 0.3501 0.56355 0.0
C959 C 0.69298 0.45878 0.54975 0.0
C960 C 0.64795 0.42141 0.54998 0.0
H961 H 0.61186 0.39055 0.59021 0.0
C962 C 0.64757 0.4126 0.51533 0.0
C963 C 0.63546 0.41294 0.57768 0.0
C964 C 0.63616 0.42095 0.61599 0.0
C965 C 0.63435 0.39612 0.50718 0.0
C966 C 0.62088 0.38854 0.53424 0.0
C967 C 0.62193 0.39668 0.56936 0.0
C968 C 0.60547 0.37233 0.52621 0.0
C969 C 0.63485 0.38703 0.46958 0.0
C970 C 0.59002 0.37589 0.50036 0.0
C971 C 0.57675 0.35998 0.48997 0.0
C972 C 0.57862 0.34024 0.50545 0.0
C973 C 0.59332 0.33711 0.53298 0.0
C974 C 0.60663 0.35305 0.54329 0.0
H975 H 0.64959 0.39059 0.45549 0.0
H976 H 0.63283 0.37001 0.4704 0.0
H977 H 0.62206 0.39369 0.45338 0.0
H978 H 0.5886 0.39085 0.48749 0.0
H979 H 0.5655 0.36301 0.46895 0.0
H980 H 0.32407 0.41355 0.43479 0.0
H981 H 0.35324 0.39353 0.41115 0.0
H982 H 0.38743 0.4057 0.50907 0.0
H983 H 0.35897 0.4263 0.53203 0.0
H984 H 0.41189 0.40824 0.45276 0.0
H985 H 0.36612 0.33586 0.44308 0.0
H986 H 0.35665 0.35669 0.41572 0.0
H987 H 0.35616 0.35885 0.46424 0.0
C988 C 0.33792 0.41213 0.45104 0.0
C989 C 0.33914 0.42141 0.48539 0.0
C990 C 0.35449 0.40054 0.43764 0.0
C991 C 0.37233 0.39769 0.45871 0.0
C992 C 0.37381 0.4076 0.49235 0.0
H993 H 0.46074 0.30068 0.47155 0.0
H994 H 0.43042 0.32318 0.47292 0.0
C995 C 0.35747 0.41941 0.50546 0.0
C996 C 0.3894 0.38401 0.4468 0.0
H997 H 0.4012 0.33391 0.42692 0.0
C998 C 0.40955 0.39201 0.44684 0.0
C999 C 0.38632 0.36278 0.43947 0.0
C1000 C 0.36519 0.35294 0.4409 0.0
C1001 C 0.42677 0.37928 0.44127 0.0
C1002 C 0.4237 0.35805 0.43382 0.0
C1003 C 0.4035 0.35019 0.43242 0.0
C1004 C 0.44126 0.34347 0.43035 0.0
C1005 C 0.44804 0.38856 0.44551 0.0
C1006 C 0.45713 0.347 0.40523 0.0
C1007 C 0.47467 0.33445 0.405 0.0
C1008 C 0.47634 0.31776 0.42914 0.0
C1009 C 0.45986 0.31345 0.45267 0.0
C1010 C 0.44254 0.32628 0.45344 0.0
H1011 H 0.4476 0.40336 0.46067 0.0
H1012 H 0.45858 0.37783 0.45993 0.0
H1013 H 0.45461 0.39178 0.41837 0.0
H1014 H 0.45619 0.35973 0.38632 0.0
H1015 H 0.48701 0.33791 0.38615 0.0
H1016 H 0.28906 0.54038 0.5469 0.0
H1017 H 0.3096 0.57216 0.54612 0.0
H1018 H 0.36219 0.53875 0.58721 0.0
H1019 H 0.3419 0.50709 0.58854 0.0
H1020 H 0.35653 0.57876 0.61867 0.0
H1021 H 0.35499 0.57923 0.46804 0.0
H1022 H 0.33025 0.5788 0.49012 0.0
H1023 H 0.34725 0.55703 0.49422 0.0
C1024 C 0.30492 0.53984 0.55616 0.0
C1025 C 0.3139 0.52112 0.5673 0.0
C1026 C 0.31663 0.55799 0.55563 0.0
C1027 C 0.33745 0.55767 0.56618 0.0
C1028 C 0.34615 0.53927 0.57892 0.0
H1029 H 0.43728 0.63456 0.49765 0.0
H1030 H 0.41529 0.60614 0.51743 0.0
C1031 C 0.33452 0.52117 0.57944 0.0
C1032 C 0.35077 0.576 0.56149 0.0
H1033 H 0.37333 0.60592 0.49666 0.0
C1034 C 0.36013 0.58485 0.59207 0.0
C1035 C 0.35561 0.58362 0.52666 0.0
C1036 C 0.34667 0.57414 0.49279 0.0
C1037 C 0.37433 0.60113 0.58865 0.0
C1038 C 0.37912 0.60871 0.55381 0.0
C1039 C 0.3696 0.59999 0.52334 0.0
C1040 C 0.39426 0.62544 0.54778 0.0
C1041 C 0.38454 0.60972 0.62209 0.0
C1042 C 0.39006 0.64562 0.55937 0.0
C1043 C 0.40265 0.66195 0.54818 0.0
C1044 C 0.41951 0.65835 0.52494 0.0
C1045 C 0.42437 0.63792 0.51535 0.0
C1046 C 0.41182 0.62164 0.52659 0.0
H1047 H 0.3824 0.59947 0.6459 0.0
H1048 H 0.40133 0.61202 0.61748 0.0
H1049 H 0.37765 0.62497 0.62854 0.0
H1050 H 0.37643 0.64889 0.57535 0.0
H1051 H 0.39844 0.6775 0.55602 0.0
H1052 H 0.53569 0.70029 0.48126 0.0
H1053 H 0.56718 0.6794 0.48026 0.0
H1054 H 0.54211 0.64298 0.39282 0.0
H1055 H 0.51022 0.66304 0.3953 0.0
H1056 H 0.5555 0.61873 0.44098 0.0
H1057 H 0.61691 0.6763 0.41839 0.0
H1058 H 0.60179 0.68334 0.45705 0.0
H1059 H 0.58992 0.68252 0.41292 0.0
C1060 C 0.53711 0.68804 0.46147 0.0
C1061 C 0.52055 0.68317 0.43851 0.0
C1062 C 0.55518 0.67621 0.46066 0.0
C1063 C 0.55721 0.65976 0.43606 0.0
C1064 C 0.54095 0.65555 0.41204 0.0
H1065 H 0.6743 0.59069 0.43907 0.0
H1066 H 0.64521 0.61124 0.41656 0.0
C1067 C 0.52274 0.66701 0.41348 0.0
C1068 C 0.57519 0.64556 0.43798 0.0
H1069 H 0.62769 0.64411 0.44609 0.0
C1070 C 0.57129 0.62431 0.4414 0.0
C1071 C 0.59588 0.65264 0.43781 0.0
C1072 C 0.60136 0.67493 0.43091 0.0
C1073 C 0.58736 0.61013 0.44644 0.0
C1074 C 0.60786 0.61745 0.44962 0.0
C1075 C 0.61193 0.63853 0.44426 0.0
C1076 C 0.62498 0.6038 0.46134 0.0
C1077 C 0.5821 0.58746 0.44849 0.0
C1078 C 0.62324 0.59279 0.49387 0.0
C1079 C 0.63962 0.58085 0.50646 0.0
C1080 C 0.65834 0.58001 0.48721 0.0
C1081 C 0.66006 0.59095 0.45445 0.0
C1082 C 0.64349 0.60274 0.44162 0.0
H1083 H 0.56809 0.5839 0.43231 0.0
H1084 H 0.59501 0.57769 0.43861 0.0
H1085 H 0.57874 0.58328 0.47701 0.0
H1086 H 0.60938 0.59387 0.51017 0.0
H1087 H 0.63781 0.57287 0.53202 0.0
H1088 H 0.40378 0.32255 0.0475 0.0
H1089 H 0.38475 0.35281 0.06897 0.0
H1090 H 0.41949 0.39159 0.99625 0.0
H1091 H 0.43869 0.36159 0.97477 0.0
H1092 H 0.41144 0.40904 0.06768 0.0
H1093 H 0.34159 0.37841 0.99781 0.0
H1094 H 0.35387 0.3616 0.03002 0.0
H1095 H 0.36715 0.36848 0.98912 0.0
C1096 C 0.40766 0.33756 0.03655 0.0
C1097 C 0.42255 0.33961 0.00902 0.0
C1098 C 0.39673 0.3548 0.04879 0.0
C1099 C 0.40055 0.3743 0.03374 0.0
C1100 C 0.41631 0.37661 0.00807 0.0
H1101 H 0.32825 0.48142 0.99578 0.0
H1102 H 0.34979 0.45052 0.99469 0.0
C1103 C 0.42721 0.35942 0.99576 0.0
C1104 C 0.38697 0.39199 0.04198 0.0
H1105 H 0.33867 0.41086 0.02557 0.0
C1106 C 0.39545 0.40941 0.05895 0.0
C1107 C 0.36622 0.3924 0.03002 0.0
C1108 C 0.35661 0.37432 0.01049 0.0
C1109 C 0.38373 0.42743 0.06379 0.0
C1110 C 0.36308 0.42788 0.05143 0.0
C1111 C 0.35451 0.41034 0.03511 0.0
C1112 C 0.35047 0.44685 0.05285 0.0
C1113 C 0.39369 0.44612 0.08076 0.0
C1114 C 0.34369 0.4549 0.08597 0.0
C1115 C 0.3313 0.47256 0.08675 0.0
C1116 C 0.32552 0.48243 0.05435 0.0
C1117 C 0.33243 0.47427 0.02124 0.0
C1118 C 0.34473 0.4566 0.02053 0.0
H1119 H 0.41066 0.44424 0.08379 0.0
H1120 H 0.39062 0.46009 0.06421 0.0
H1121 H 0.38694 0.44872 0.10798 0.0
H1122 H 0.34778 0.44739 0.11116 0.0
H1123 H 0.32622 0.47842 0.11271 0.0
H1124 H 0.3155 0.61762 0.99402 0.0
H1125 H 0.34496 0.6382 0.97438 0.0
H1126 H 0.37733 0.58272 0.94373 0.0
H1127 H 0.34765 0.56192 0.96287 0.0
H1128 H 0.38244 0.63365 0.00826 0.0
H1129 H 0.39089 0.62207 0.86016 0.0
H1130 H 0.36723 0.61634 0.88411 0.0
H1131 H 0.3886 0.59867 0.88594 0.0
C1132 C 0.32869 0.60978 0.98233 0.0
C1133 C 0.32933 0.58812 0.98029 0.0
C1134 C 0.3455 0.62159 0.97106 0.0
C1135 C 0.3633 0.61201 0.95754 0.0
C1136 C 0.3636 0.59045 0.95352 0.0
H1137 H 0.48958 0.65052 0.92841 0.0
H1138 H 0.45659 0.63228 0.92952 0.0
C1139 C 0.34665 0.57858 0.96458 0.0
C1140 C 0.38231 0.62437 0.95231 0.0
H1141 H 0.41903 0.63828 0.89061 0.0
C1142 C 0.39033 0.63484 0.98244 0.0
C1143 C 0.39263 0.6257 0.91869 0.0
C1144 C 0.38434 0.61525 0.88526 0.0
C1145 C 0.4086 0.64634 0.98009 0.0
C1146 C 0.41894 0.64772 0.94649 0.0
C1147 C 0.41095 0.63728 0.91627 0.0
C1148 C 0.43853 0.6593 0.94281 0.0
C1149 C 0.417 0.65642 0.01386 0.0
C1150 C 0.4392 0.68064 0.94917 0.0
C1151 C 0.45806 0.69115 0.94877 0.0
C1152 C 0.47656 0.68049 0.9418 0.0
C1153 C 0.47567 0.65922 0.93412 0.0
C1154 C 0.45682 0.64875 0.93458 0.0
H1155 H 0.40987 0.64998 0.03879 0.0
H1156 H 0.43401 0.65444 0.01565 0.0
H1157 H 0.41362 0.6732 0.01303 0.0
H1158 H 0.42516 0.6891 0.95503 0.0
H1159 H 0.45815 0.70754 0.95447 0.0
H1160 H 0.57013 0.63312 0.97805 0.0
H1161 H 0.59064 0.60471 0.00128 0.0
H1162 H 0.60839 0.64156 0.0934 0.0
H1163 H 0.58835 0.6706 0.06946 0.0
H1164 H 0.64104 0.62393 0.06474 0.0
H1165 H 0.58133 0.56402 0.08003 0.0
H1166 H 0.58054 0.57417 0.03499 0.0
H1167 H 0.57486 0.59079 0.07287 0.0
C1168 C 0.57806 0.63516 0.00361 0.0
C1169 C 0.57755 0.65417 0.02193 0.0
C1170 C 0.5897 0.61878 0.01702 0.0
C1171 C 0.60075 0.62082 0.04948 0.0
C1172 C 0.59987 0.6396 0.06841 0.0
H1173 H 0.66257 0.50696 0.11519 0.0
H1174 H 0.6415 0.53819 0.11806 0.0
C1175 C 0.58838 0.65615 0.05475 0.0
C1176 C 0.61451 0.60388 0.0616 0.0
H1177 H 0.61632 0.55158 0.07077 0.0
C1178 C 0.63558 0.60814 0.0668 0.0
C1179 C 0.60739 0.58334 0.06513 0.0
C1180 C 0.58474 0.57788 0.06337 0.0
C1181 C 0.64987 0.59227 0.07321 0.0
C1182 C 0.64299 0.57153 0.07316 0.0
C1183 C 0.62175 0.56742 0.07016 0.0
C1184 C 0.65747 0.55375 0.07437 0.0
C1185 C 0.67215 0.59797 0.07985 0.0
C1186 C 0.67367 0.55214 0.04918 0.0
C1187 C 0.68602 0.53446 0.04801 0.0
C1188 C 0.68198 0.51781 0.07129 0.0
C1189 C 0.66595 0.51952 0.09676 0.0
C1190 C 0.65392 0.53737 0.09845 0.0
H1191 H 0.67339 0.61347 0.09254 0.0
H1192 H 0.67997 0.58657 0.09759 0.0
H1193 H 0.68044 0.59863 0.05359 0.0
H1194 H 0.67633 0.56423 0.0295 0.0
H1195 H 0.69813 0.53346 0.02785 0.0
H1196 H 0.51011 0.33459 0.88932 0.0
H1197 H 0.54108 0.35604 0.89195 0.0
H1198 H 0.56578 0.31707 0.97618 0.0
H1199 H 0.53518 0.29504 0.97255 0.0
H1200 H 0.55292 0.37859 0.94582 0.0
H1201 H 0.6161 0.32402 0.91542 0.0
H1202 H 0.58933 0.31763 0.90778 0.0
H1203 H 0.60055 0.31482 0.95214 0.0
C1204 C 0.52233 0.33037 0.90793 0.0
C1205 C 0.52023 0.31313 0.93075 0.0
C1206 C 0.54002 0.34265 0.90941 0.0
C1207 C 0.55591 0.33809 0.93398 0.0
C1208 C 0.55403 0.32061 0.95628 0.0
H1209 H 0.63656 0.4233 0.03908 0.0
H1210 H 0.60784 0.40262 0.01695 0.0
C1211 C 0.53646 0.30808 0.95436 0.0
C1212 C 0.57342 0.35268 0.93858 0.0
H1213 H 0.62588 0.35535 0.94621 0.0
C1214 C 0.56889 0.37353 0.94535 0.0
C1215 C 0.59429 0.34624 0.93736 0.0
C1216 C 0.60036 0.3245 0.92737 0.0
C1217 C 0.58457 0.38792 0.95236 0.0
C1218 C 0.60532 0.38115 0.95386 0.0
C1219 C 0.60995 0.3605 0.94556 0.0
C1220 C 0.62231 0.3949 0.96589 0.0
C1221 C 0.57866 0.41022 0.95803 0.0
C1222 C 0.64023 0.39721 0.94485 0.0
C1223 C 0.65691 0.40881 0.95774 0.0
C1224 C 0.65594 0.41833 0.99191 0.0
C1225 C 0.63776 0.4164 0.01247 0.0
C1226 C 0.62123 0.40464 -0.00025 0.0
H1227 H 0.56413 0.41405 0.94351 0.0
H1228 H 0.57596 0.41297 0.98728 0.0
H1229 H 0.591 0.42084 0.9486 0.0
H1230 H 0.64145 0.38975 0.91871 0.0
H1231 H 0.6707 0.40995 0.94126 0.0
H1232 H 0.28273 0.94468 0.66116 0.0
H1233 H 0.29198 0.9547 0.72282 0.0
H1234 H 0.26765 0.01566 0.7037 0.0
H1235 H 0.25873 0.00589 0.64165 0.0
H1236 H 0.3028 0.01409 0.75275 0.0
H1237 H 0.24032 0.95849 0.7881 0.0
H1238 H 0.26155 0.94816 0.76258 0.0
H1239 H 0.24479 0.96699 0.74231 0.0
C1240 C 0.27999 0.96044 0.66968 0.0
C1241 C 0.26969 0.97441 0.64679 0.0
C1242 C 0.28522 0.9661 0.70496 0.0
C1243 C 0.27997 0.98572 0.71804 0.0
C1244 C 0.2717 0.00039 0.69412 0.0
H1245 H 0.25095 0.0512 0.90738 0.0
H1246 H 0.26365 0.03955 0.84903 0.0
C1247 C 0.26667 0.9948 0.65862 0.0
C1248 C 0.28014 0.98993 0.75744 0.0
H1249 H 0.25496 0.97729 0.83553 0.0
C1250 C 0.29255 0.0059 0.77099 0.0
C1251 C 0.26674 0.97918 0.78118 0.0
C1252 C 0.25246 0.96235 0.76793 0.0
C1253 C 0.29157 0.01171 0.8076 0.0
C1254 C 0.27753 0.00153 0.83094 0.0
C1255 C 0.2658 0.98499 0.81767 0.0
C1256 C 0.27274 0.00925 0.86778 0.0
C1257 C 0.30538 0.02887 0.82081 0.0
C1258 C 0.27341 0.99602 0.89791 0.0
C1259 C 0.26589 0.00258 0.93155 0.0
C1260 C 0.25734 0.02241 0.93545 0.0
C1261 C 0.25734 0.03579 0.90543 0.0
C1262 C 0.26486 0.02925 0.87201 0.0
H1263 H 0.31978 0.02979 0.8045 0.0
H1264 H 0.29717 0.04382 0.81793 0.0
H1265 H 0.30958 0.02676 0.8497 0.0
H1266 H 0.27921 0.98042 0.89512 0.0
H1267 H 0.26611 0.9919 0.95409 0.0
H1268 H 0.94615 0.71899 0.3259 0.0
H1269 H 0.959 0.71002 0.2662 0.0
H1270 H 0.02162 0.71802 0.30352 0.0
H1271 H 0.00881 0.72763 0.36343 0.0
H1272 H 0.01159 0.7444 0.25055 0.0
H1273 H 0.98785 0.66615 0.20795 0.0
H1274 H 0.96667 0.68048 0.2265 0.0
H1275 H 0.98832 0.67398 0.25487 0.0
C1276 C 0.9627 0.71816 0.32187 0.0
C1277 C 0.97645 0.72449 0.34922 0.0
C1278 C 0.97005 0.71279 0.28766 0.0
C1279 C 0.99128 0.71335 0.28029 0.0
C1280 C 0.00515 0.71747 0.30866 0.0
H1281 H 0.05436 0.73482 0.07764 0.0
H1282 H 0.04571 0.72198 0.13779 0.0
C1283 C -0.0022 0.72293 0.34295 0.0
C1284 C -0.0016 0.71424 0.2422 0.0
H1285 H 0.99461 0.69063 0.15971 0.0
C1286 C 0.00824 0.73243 0.23089 0.0
C1287 C 0.99365 0.69881 0.21639 0.0
C1288 C 0.98371 0.67868 0.22713 0.0
C1289 C 0.0129 0.73593 0.19445 0.0
C1290 C 0.00789 0.72067 0.16855 0.0
C1291 C -0.00166 0.7023 0.17971 0.0
C1292 C 0.01269 0.72394 0.12989 0.0
C1293 C 0.02256 0.75627 0.18377 0.0
C1294 C 0.9969 0.72827 0.10494 0.0
C1295 C 0.0018 0.7355 0.07022 0.0
C1296 C 0.02253 0.73866 0.06043 0.0
C1297 C 0.03823 0.73288 0.0847 0.0
C1298 C 0.03334 0.72546 0.119 0.0
H1299 H 0.02131 0.76798 0.20562 0.0
H1300 H 0.03919 0.75386 0.1779 0.0
H1301 H 0.01516 0.76253 0.15898 0.0
H1302 H 0.98084 0.72719 0.113 0.0
H1303 H 0.98944 0.73979 0.05197 0.0
H1304 H 0.7571 0.95284 0.90501 0.0
H1305 H 0.74278 0.96312 0.84725 0.0
H1306 H 0.7074 0.01101 0.89951 0.0
H1307 H 0.72225 0.00104 0.95825 0.0
H1308 H 0.7028 0.96445 0.82266 0.0
H1309 H 0.73859 0.04282 0.82184 0.0
H1310 H 0.74601 0.0235 0.85446 0.0
H1311 H 0.72161 0.03645 0.85869 0.0
C1312 C 0.74626 0.96557 0.90454 0.0
C1313 C 0.74094 0.9762 0.9364 0.0
C1314 C 0.73799 0.97137 0.87135 0.0
C1315 C 0.72409 0.98788 0.86895 0.0
C1316 C 0.71834 -0.00161 0.90067 0.0
H1317 H 0.70886 0.03433 0.6472 0.0
H1318 H 0.6956 0.02706 0.7082 0.0
C1319 C 0.7268 0.99266 0.93419 0.0
C1320 C 0.71673 0.99414 0.83256 0.0
H1321 H 0.72561 0.03029 0.76723 0.0
C1322 C 0.70727 0.97908 0.81074 0.0
C1323 C 0.72241 0.0133 0.81706 0.0
C1324 C 0.73281 0.02998 0.839 0.0
C1325 C 0.70511 0.98193 0.77331 0.0
C1326 C 0.71251 0.0003 0.75742 0.0
C1327 C 0.71998 0.0162 0.77964 0.0
C1328 C 0.71662 0.00175 0.71813 0.0
C1329 C 0.69616 0.96477 0.75068 0.0
C1330 C 0.7324 0.98955 0.70331 0.0
C1331 C 0.74017 0.99386 0.66895 0.0
C1332 C 0.7321 0.01027 0.6486 0.0
C1333 C 0.71513 0.0214 0.66217 0.0
C1334 C 0.70762 0.01734 0.69701 0.0
H1335 H 0.68566 0.95483 0.76688 0.0
H1336 H 0.68754 0.97103 0.72712 0.0
H1337 H 0.70891 0.95497 0.74031 0.0
H1338 H 0.73978 0.97768 0.7194 0.0
H1339 H 0.75334 0.98517 0.65917 0.0
H1340 H 0.00465 0.25708 0.05075 0.0
H1341 H 0.01329 0.2687 0.11222 0.0
H1342 H 0.94846 0.27418 0.13717 0.0
H1343 H 0.93973 0.26229 0.07643 0.0
H1344 H 0.00125 0.30414 0.15941 0.0
H1345 H 0.97101 0.22796 0.20461 0.0
H1346 H 0.97683 0.23346 0.15786 0.0
H1347 H 0.95352 0.2432 0.17798 0.0
C1348 C 0.99228 0.26121 0.06911 0.0
C1349 C 0.97153 0.2584 0.05908 0.0
C1350 C 0.99722 0.26787 0.10414 0.0
C1351 C 0.98147 0.27195 0.12929 0.0
C1352 C 0.96081 0.27081 0.11827 0.0
H1353 H 0.98888 0.26707 0.36355 0.0
H1354 H 0.9753 0.27677 0.30416 0.0
C1355 C 0.95587 0.26397 0.08359 0.0
C1356 C 0.98643 0.2748 0.16804 0.0
H1357 H 0.98261 0.25057 0.24964 0.0
C1358 C 0.99711 0.29253 0.17927 0.0
C1359 C 0.98091 0.25963 0.19381 0.0
C1360 C 0.97008 0.2399 0.18308 0.0
C1361 C 0.00253 0.2954 0.21579 0.0
C1362 C 0.9974 0.27998 0.2414 0.0
C1363 C 0.98631 0.26252 0.23013 0.0
C1364 C 0.00533 0.28007 0.27905 0.0
C1365 C 0.0137 0.31487 0.22654 0.0
C1366 C 0.02671 0.27964 0.28509 0.0
C1367 C 0.03449 0.27419 0.31897 0.0
C1368 C 0.02105 0.26881 0.34739 0.0
C1369 C -0.00034 0.27108 0.34225 0.0
C1370 C 0.99186 0.27659 0.30827 0.0
H1371 H 0.00983 0.32782 0.20803 0.0
H1372 H 0.00989 0.31949 0.25469 0.0
H1373 H 0.03061 0.31222 0.22477 0.0
H1374 H 0.03743 0.28186 0.26294 0.0
H1375 H 0.05107 0.27276 0.32205 0.0
H1376 H 0.7404 0.00952 0.14607 0.0
H1377 H 0.73042 0.01964 0.2073 0.0
H1378 H 0.69628 0.96285 0.21937 0.0
H1379 H 0.70729 0.95215 0.15883 0.0
H1380 H 0.69758 0.02531 0.25059 0.0
H1381 H 0.74033 0.9549 0.29381 0.0
H1382 H 0.73987 0.9634 0.24746 0.0
H1383 H 0.718 0.95007 0.26642 0.0
C1384 C 0.73023 -0.0005 0.16134 0.0
C1385 C 0.72489 0.97992 0.14805 0.0
C1386 C 0.72456 0.00526 0.19642 0.0
C1387 C 0.71322 0.99166 0.21842 0.0
C1388 C 0.70566 0.97325 0.20337 0.0
H1389 H 0.71511 0.00544 0.45729 0.0
H1390 H 0.70044 0.99612 0.39797 0.0
C1391 C 0.71177 0.96725 0.16867 0.0
C1392 C 0.7119 0.99558 0.25795 0.0
H1393 H 0.72948 0.97739 0.33914 0.0
C1394 C 0.7042 0.01466 0.27002 0.0
C1395 C 0.72068 0.98171 0.2834 0.0
C1396 C 0.73035 0.96146 0.27222 0.0
C1397 C 0.70598 0.0206 0.30644 0.0
C1398 C 0.71551 0.0071 0.33131 0.0
C1399 C 0.72197 0.98755 0.31987 0.0
C1400 C 0.72239 0.01421 0.36729 0.0
C1401 C 0.69857 0.04167 0.31789 0.0
C1402 C 0.7396 0.02726 0.36936 0.0
C1403 C 0.7482 0.03218 0.40279 0.0
C1404 C 0.73966 0.02431 0.43493 0.0
C1405 C 0.722 0.01171 0.43295 0.0
C1406 C 0.71357 0.00646 0.39922 0.0
H1407 H 0.68747 0.04828 0.29811 0.0
H1408 H 0.69111 0.04093 0.34492 0.0
H1409 H 0.71202 0.05223 0.3199 0.0
H1410 H 0.74677 0.03313 0.34495 0.0
H1411 H 0.76168 0.04209 0.4034 0.0
H1412 H 0.04879 0.24489 0.59156 0.0
H1413 H 0.03725 0.25838 0.6493 0.0
H1414 H 0.98286 0.28363 0.59852 0.0
H1415 H 0.99412 0.2696 0.53999 0.0
H1416 H 0.02772 0.29726 0.6752 0.0
H1417 H 0.95897 0.24543 0.67536 0.0
H1418 H 0.9795 0.24271 0.64277 0.0
H1419 H 0.96102 0.26323 0.63827 0.0
C1420 C 0.03437 0.25336 0.59236 0.0
C1421 C 0.0222 0.25585 0.56109 0.0
C1422 C 0.02789 0.26122 0.62551 0.0
C1423 C 0.0091 0.27179 0.62834 0.0
C1424 C 0.99727 0.2752 0.597 0.0
H1425 H 0.94759 0.28297 0.83568 0.0
H1426 H 0.95749 0.2939 0.77489 0.0
C1427 C 0.00374 0.26722 0.56359 0.0
C1428 C 0.00154 0.27757 0.66482 0.0
H1429 H 0.9661 0.26346 0.72839 0.0
C1430 C 0.01403 0.29019 0.68673 0.0
C1431 C 0.9837 0.2683 0.67981 0.0
C1432 C 0.97005 0.25404 0.65805 0.0
C1433 C 0.00962 0.29307 0.72361 0.0
C1434 C 0.99241 0.28291 0.73895 0.0
C1435 C 0.97929 0.27129 0.71656 0.0
C1436 C 0.98866 0.28208 0.77853 0.0
C1437 C 0.02366 0.30657 0.74594 0.0
C1438 C 0.00328 0.27283 0.80154 0.0
C1439 C 0.99771 0.26676 0.83658 0.0
C1440 C 0.97735 0.26956 0.84872 0.0
C1441 C 0.96338 0.28054 0.82688 0.0
C1442 C 0.969 0.28678 0.79213 0.0
H1443 H 0.03131 0.31848 0.72892 0.0
H1444 H 0.01506 0.31437 0.76805 0.0
H1445 H 0.03594 0.29689 0.75821 0.0
H1446 H 0.01843 0.26868 0.79145 0.0
H1447 H 0.00871 0.25815 0.8527 0.0
H1448 H 0.25088 0.94512 0.40659 0.0
H1449 H 0.26458 0.95659 0.34891 0.0
H1450 H 0.28003 0.01562 0.39557 0.0
H1451 H 0.26588 0.00429 0.45397 0.0
H1452 H 0.25699 0.01904 0.33484 0.0
H1453 H 0.3213 0.96552 0.30687 0.0
H1454 H 0.2984 0.95168 0.31936 0.0
H1455 H 0.31049 0.96869 0.3516 0.0
C1456 C 0.25743 0.96048 0.40494 0.0
C1457 C 0.2571 0.97386 0.43494 0.0
C1458 C 0.26555 0.96691 0.37191 0.0
C1459 C 0.27372 0.98681 0.36802 0.0
C1460 C 0.27402 8e-05 0.39813 0.0
H1461 H 0.2861 0.04939 0.15998 0.0
H1462 H 0.29545 0.03965 0.22173 0.0
C1463 C 0.2659 0.99361 0.43143 0.0
C1464 C 0.27916 0.99438 0.33136 0.0
H1465 H 0.30472 0.98072 0.25403 0.0
C1466 C 0.26783 0.01102 0.31743 0.0
C1467 C 0.29322 0.98381 0.3086 0.0
C1468 C 0.30669 0.96657 0.32255 0.0
C1469 C 0.26912 0.0165 0.28081 0.0
C1470 C 0.28242 0.00527 0.25762 0.0
C1471 C 0.29451 0.98926 0.27186 0.0
C1472 C 0.2824 0.009 0.21809 0.0
C1473 C 0.25525 0.03347 0.2668 0.0
C1474 C 0.27349 0.99438 0.19478 0.0
C1475 C 0.26838 -0.0002 0.15922 0.0
C1476 C 0.27197 0.01998 0.1468 0.0
C1477 C 0.28295 0.03379 0.169 0.0
C1478 C 0.28824 0.02829 0.20432 0.0
H1479 H 0.24324 0.03794 0.28679 0.0
H1480 H 0.2647 0.04733 0.26072 0.0
H1481 H 0.24745 0.02862 0.24143 0.0
H1482 H 0.26896 0.97936 0.20493 0.0
H1483 H 0.25989 0.98886 0.14279 0.0
H1484 H 0.98821 0.73801 0.85399 0.0
H1485 H 0.97858 0.72821 0.79244 0.0
H1486 H 0.03942 0.70285 0.77533 0.0
H1487 H 0.04927 0.71309 0.8365 0.0
H1488 H 0.03116 0.73325 0.72923 0.0
H1489 H 0.96514 0.67928 0.72907 0.0
H1490 H 0.96058 0.70082 0.75844 0.0
H1491 H 0.98126 0.68312 0.76841 0.0
C1492 C -0.00077 0.72955 0.83766 0.0
C1493 C 0.01956 0.72653 0.84985 0.0
C1494 C 0.9937 0.72389 0.80243 0.0
C1495 C 0.00829 0.71478 0.77919 0.0
C1496 C 0.02792 0.70987 0.79273 0.0
H1497 H 0.00308 0.72688 0.54069 0.0
H1498 H 0.01387 0.71303 0.5996 0.0
C1499 C 0.03352 0.71573 0.82771 0.0
C1500 C 0.0045 0.71423 0.73961 0.0
H1501 H 0.96883 0.70094 0.67577 0.0
C1502 C 0.01781 0.72573 0.71734 0.0
C1503 C 0.98707 0.70449 0.72417 0.0
C1504 C 0.97283 0.69106 0.74626 0.0
C1505 C 0.01342 0.72897 0.68064 0.0
C1506 C 0.99539 0.72014 0.66561 0.0
C1507 C 0.98266 0.70768 0.68736 0.0
C1508 C 0.98807 0.72605 0.62907 0.0
C1509 C 0.02736 0.743 0.65896 0.0
C1510 C 0.9697 0.73731 0.62599 0.0
C1511 C 0.96349 0.74512 0.59262 0.0
C1512 C 0.97553 0.74185 0.5614 0.0
C1513 C 0.99357 0.72986 0.56423 0.0
C1514 C -0.00023 0.72196 0.59785 0.0
H1515 H 0.03868 0.75128 0.67629 0.0
H1516 H 0.03612 0.73369 0.63898 0.0
H1517 H 0.01813 0.7546 0.64388 0.0
H1518 H 0.96046 0.74067 0.64972 0.0
H1519 H 0.9494 0.75411 0.59155 0.0
H1520 H 0.74544 0.54852 0.40569 0.0
H1521 H 0.75877 0.53693 0.34782 0.0
H1522 H 0.7846 0.48288 0.39871 0.0
H1523 H 0.77075 0.4942 0.45734 0.0
H1524 H 0.79776 0.52767 0.32179 0.0
H1525 H 0.7465 0.45855 0.32206 0.0
H1526 H 0.74361 0.4791 0.35453 0.0
H1527 H 0.76427 0.46079 0.35916 0.0
C1528 C 0.75401 0.53418 0.40488 0.0
C1529 C 0.75673 0.52213 0.43623 0.0
C1530 C 0.76176 0.52765 0.37165 0.0
C1531 C 0.77246 0.50894 0.36882 0.0
C1532 C 0.77607 0.49723 0.40022 0.0
H1533 H 0.78559 0.44704 0.16175 0.0
H1534 H 0.79561 0.4571 0.22292 0.0
C1535 C 0.7682 0.50374 0.4337 0.0
C1536 C 0.77828 0.50138 0.33234 0.0
H1537 H 0.76472 0.46556 0.26908 0.0
C1538 C 0.79084 0.51389 0.31037 0.0
C1539 C 0.76922 0.48341 0.31749 0.0
C1540 C 0.75503 0.46971 0.33931 0.0
C1541 C 0.7939 0.50935 0.27358 0.0
C1542 C 0.78397 0.49199 0.25836 0.0
C1543 C 0.77237 0.47887 0.28081 0.0
C1544 C 0.78337 0.48806 0.21881 0.0
C1545 C 0.80738 0.52341 0.25122 0.0
C1546 C 0.77413 0.5025 0.19547 0.0
C1547 C 0.76852 0.49683 0.16026 0.0
C1548 C 0.77178 0.47654 0.14815 0.0
C1549 C 0.78274 0.46275 0.17043 0.0
C1550 C 0.78848 0.46847 0.20542 0.0
H1551 H 0.81913 0.53126 0.26827 0.0
H1552 H 0.81538 0.51479 0.22936 0.0
H1553 H 0.79762 0.53551 0.23861 0.0
H1554 H 0.76968 0.51759 0.20536 0.0
H1555 H 0.75995 0.50773 0.14386 0.0
H1556 H 0.49115 0.22734 0.53807 0.0
H1557 H 0.48089 0.21186 0.59614 0.0
H1558 H 0.53042 0.24429 0.64957 0.0
H1559 H 0.54086 0.25945 0.59247 0.0
H1560 H 0.52666 0.20257 0.67125 0.0
H1561 H 0.45179 0.24508 0.67629 0.0
H1562 H 0.45671 0.22912 0.63744 0.0
H1563 H 0.47189 0.25193 0.64469 0.0
C1564 C 0.49982 0.23113 0.56222 0.0
C1565 C 0.51672 0.24477 0.56056 0.0
C1566 C 0.49396 0.22227 0.59532 0.0
C1567 C 0.50487 0.22701 0.62714 0.0
C1568 C 0.52187 0.24032 0.62533 0.0
H1569 H 0.50834 0.23753 0.84962 0.0
H1570 H 0.51718 0.22774 0.78774 0.0
C1571 C 0.52772 0.2491 0.59254 0.0
C1572 C 0.49829 0.21933 0.66308 0.0
H1573 H 0.46242 0.22821 0.72869 0.0
C1574 C 0.5124 0.20777 0.68369 0.0
C1575 C 0.47967 0.22606 0.67913 0.0
C1576 C 0.46412 0.23883 0.65849 0.0
C1577 C 0.50889 0.20374 0.72052 0.0
C1578 C 0.49096 0.21176 0.7372 0.0
C1579 C 0.4762 0.22206 0.71592 0.0
C1580 C 0.48817 0.21217 0.77706 0.0
C1581 C 0.52467 0.19145 0.74136 0.0
C1582 C 0.46928 0.20602 0.79223 0.0
C1583 C 0.46411 0.21189 0.82741 0.0
C1584 C 0.4778 0.22391 0.84812 0.0
C1585 C 0.49759 0.2281 0.83442 0.0
C1586 C 0.50266 0.22244 0.79898 0.0
H1587 H 0.53266 0.1802 0.72348 0.0
H1588 H 0.53656 0.20209 0.75231 0.0
H1589 H 0.51751 0.18298 0.76427 0.0
H1590 H 0.45788 0.19808 0.77589 0.0
H1591 H 0.44877 0.20838 0.8374 0.0
H1592 H 0.25002 0.48655 0.16302 0.0
H1593 H 0.23573 0.48015 0.22308 0.0
H1594 H 0.19467 0.53206 0.21051 0.0
H1595 H 0.20869 0.53823 0.1496 0.0
H1596 H 0.22393 0.53416 0.26964 0.0
H1597 H 0.18098 0.46049 0.27099 0.0
H1598 H 0.20427 0.45904 0.24472 0.0
H1599 H 0.18383 0.47609 0.23067 0.0
C1600 C 0.23733 0.49604 0.17245 0.0
C1601 C 0.23038 0.5128 0.15176 0.0
C1602 C 0.22913 0.49236 0.20671 0.0
C1603 C 0.21404 0.50555 0.22113 0.0
C1604 C 0.20612 0.52157 0.19964 0.0
H1605 H 0.22249 0.50401 0.46093 0.0
H1606 H 0.20661 0.51469 0.40339 0.0
C1607 C 0.21405 0.525 0.16487 0.0
C1608 C 0.20978 0.50457 0.26043 0.0
H1609 H 0.19956 0.4692 0.32622 0.0
C1610 C 0.21791 0.5203 0.28232 0.0
C1611 C 0.20184 0.48655 0.27671 0.0
C1612 C 0.19204 0.46966 0.25454 0.0
C1613 C 0.2206 0.5174 0.31969 0.0
C1614 C 0.21458 0.49843 0.33543 0.0
C1615 C 0.20432 0.48369 0.31408 0.0
C1616 C 0.2226 0.49181 0.37116 0.0
C1617 C 0.23171 0.53377 0.34127 0.0
C1618 C 0.23653 0.47528 0.37218 0.0
C1619 C 0.24544 0.46914 0.40464 0.0
C1620 C 0.24073 0.4794 0.43716 0.0
C1621 C 0.22657 0.49589 0.43633 0.0
C1622 C 0.2175 0.50202 0.40352 0.0
H1623 H 0.23712 0.54676 0.32407 0.0
H1624 H 0.22115 0.54008 0.36215 0.0
H1625 H 0.24526 0.527 0.35535 0.0
H1626 H 0.24082 0.46728 0.34754 0.0
H1627 H 0.25624 0.45638 0.40403 0.0
H1628 H 0.44067 0.76092 0.58336 0.0
H1629 H 0.44989 0.77251 0.64392 0.0
H1630 H 0.51447 0.76971 0.61574 0.0
H1631 H 0.50531 0.75827 0.55445 0.0
H1632 H 0.47312 0.7459 0.68645 0.0
H1633 H 0.51039 0.82292 0.67767 0.0
H1634 H 0.49378 0.81287 0.6425 0.0
H1635 H 0.51996 0.80397 0.64632 0.0
C1636 C 0.45685 0.76319 0.58971 0.0
C1637 C 0.4723 0.75841 0.56429 0.0
C1638 C 0.46207 0.76993 0.62431 0.0
C1639 C 0.48283 0.77203 0.63431 0.0
C1640 C 0.49833 0.76853 0.60837 0.0
H1641 H 0.55218 0.76768 0.82772 0.0
H1642 H 0.53874 0.77633 0.76819 0.0
C1643 C 0.49309 0.76189 0.57344 0.0
C1644 C 0.48809 0.77455 0.67306 0.0
H1645 H 0.51393 0.80482 0.73365 0.0
C1646 C 0.48178 0.75894 0.69691 0.0
C1647 C 0.49952 0.79148 0.68643 0.0
C1648 C 0.5062 0.80889 0.66202 0.0
C1649 C 0.48719 0.75935 0.73357 0.0
C1650 C 0.49878 0.77621 0.7471 0.0
C1651 C 0.5048 0.79207 0.72335 0.0
C1652 C 0.5067 0.77618 0.78475 0.0
C1653 C 0.48136 0.74113 0.75698 0.0
C1654 C 0.49321 0.77454 0.81443 0.0
C1655 C 0.50084 0.76927 0.84865 0.0
C1656 C 0.5221 0.76581 0.85367 0.0
C1657 C 0.53568 0.76985 0.82474 0.0
C1658 C 0.52804 0.77492 0.7906 0.0
H1659 H 0.47645 0.72761 0.74062 0.0
H1660 H 0.49451 0.73636 0.77436 0.0
H1661 H 0.46828 0.7455 0.7748 0.0
H1662 H 0.47669 0.77599 0.81062 0.0
H1663 H 0.48997 0.76654 0.87041 0.0
H1664 H 0.21247 0.53237 0.94881 0.0
H1665 H 0.19971 0.5266 0.88705 0.0
H1666 H 0.25644 0.49518 0.86029 0.0
H1667 H 0.26942 0.50138 0.9212 0.0
H1668 H 0.24739 0.52716 0.81435 0.0
H1669 H 0.17917 0.47575 0.8314 0.0
H1670 H 0.17971 0.49909 0.85774 0.0
H1671 H 0.19824 0.47912 0.86657 0.0
C1672 C 0.22198 0.52382 0.92992 0.0
C1673 C 0.24199 0.51743 0.93969 0.0
C1674 C 0.21466 0.52052 0.89469 0.0
C1675 C 0.22713 0.51047 0.86909 0.0
C1676 C 0.24661 0.50308 0.87957 0.0
H1677 H 0.22526 0.44768 0.67719 0.0
H1678 H 0.21658 0.4616 0.73612 0.0
C1679 C 0.254 0.5066 0.9144 0.0
C1680 C 0.22113 0.50905 0.83047 0.0
H1681 H 0.18886 0.48419 0.77188 0.0
C1682 C 0.23442 0.51801 0.80494 0.0
C1683 C 0.20409 0.49726 0.81848 0.0
C1684 C 0.18949 0.48711 0.84484 0.0
C1685 C 0.2322 0.51419 0.76785 0.0
C1686 C 0.21563 0.50166 0.75574 0.0
C1687 C 0.20143 0.4939 0.78117 0.0
C1688 C 0.21523 0.49339 0.71826 0.0
C1689 C 0.24865 0.52226 0.74251 0.0
C1690 C 0.21596 0.50644 0.68789 0.0
C1691 C 0.22146 0.49853 0.65394 0.0
C1692 C 0.22586 0.47739 0.64987 0.0
C1693 C 0.22242 0.46411 0.6794 0.0
C1694 C 0.2173 0.47205 0.71325 0.0
H1695 H 0.26224 0.52849 0.75728 0.0
H1696 H 0.25412 0.50987 0.7241 0.0
H1697 H 0.24216 0.53492 0.72583 0.0
H1698 H 0.21371 0.52291 0.69091 0.0
H1699 H 0.2236 0.50915 0.63162 0.0
H1700 H 0.54706 0.74282 0.099 0.0
H1701 H 0.53515 0.75708 0.15597 0.0
H1702 H 0.48145 0.78223 0.10286 0.0
H1703 H 0.49311 0.76749 0.04512 0.0
H1704 H 0.52548 0.79677 0.17986 0.0
H1705 H 0.45688 0.74471 0.18064 0.0
H1706 H 0.47775 0.74146 0.14887 0.0
H1707 H 0.45939 0.76194 0.14281 0.0
C1708 C 0.53273 0.75143 0.09913 0.0
C1709 C 0.52087 0.7537 0.06745 0.0
C1710 C 0.52603 0.75973 0.13182 0.0
C1711 C 0.50733 0.77052 0.13377 0.0
C1712 C 0.4958 0.77368 0.10201 0.0
H1713 H 0.44524 0.78218 0.34049 0.0
H1714 H 0.4548 0.79306 0.2795 0.0
C1715 C 0.5025 0.76528 0.06906 0.0
C1716 C 0.4995 0.77677 0.16982 0.0
H1717 H 0.46391 0.76304 0.23336 0.0
C1718 C 0.51178 0.78973 0.19144 0.0
C1719 C 0.48164 0.76757 0.18484 0.0
C1720 C 0.46816 0.75303 0.16332 0.0
C1721 C 0.50719 0.79299 0.22816 0.0
C1722 C 0.49003 0.7828 0.24365 0.0
C1723 C 0.47706 0.77088 0.22145 0.0
C1724 C 0.4863 0.78213 0.28325 0.0
C1725 C 0.52101 0.80689 0.25014 0.0
C1726 C 0.50118 0.77342 0.3064 0.0
C1727 C 0.4958 0.7674 0.34155 0.0
C1728 C 0.47538 0.76968 0.35369 0.0
C1729 C 0.46108 0.78014 0.3317 0.0
C1730 C 0.46651 0.78636 0.29683 0.0
H1731 H 0.5283 0.81889 0.23286 0.0
H1732 H 0.51234 0.81459 0.27228 0.0
H1733 H 0.53358 0.79755 0.26231 0.0
H1734 H 0.51642 0.76961 0.29637 0.0
H1735 H 0.50706 0.7592 0.35778 0.0
H1736 H 0.76811 0.50338 0.95798 0.0
H1737 H 0.78197 0.51479 0.89943 0.0
H1738 H 0.75621 0.46079 0.8483 0.0
H1739 H 0.74277 0.44913 0.90613 0.0
H1740 H 0.79586 0.47022 0.82331 0.0
H1741 H 0.74392 0.53881 0.82177 0.0
H1742 H 0.76125 0.53663 0.85955 0.0
H1743 H 0.74081 0.51815 0.85402 0.0
C1744 C 0.76554 0.49389 0.9343 0.0
C1745 C 0.75409 0.47547 0.93676 0.0
C1746 C 0.77343 0.50044 0.90087 0.0
C1747 C 0.76989 0.48874 0.86945 0.0
C1748 C 0.75914 0.47004 0.87217 0.0
H1749 H 0.76056 0.48964 0.64382 0.0
H1750 H 0.76968 0.47993 0.70565 0.0
C1751 C 0.75133 0.46349 0.90535 0.0
C1752 C 0.77596 0.49628 0.8331 0.0
H1753 H 0.76279 0.53198 0.7694 0.0
C1754 C 0.78893 0.48393 0.81162 0.0
C1755 C 0.76689 0.51415 0.81794 0.0
C1756 C 0.75232 0.52768 0.83929 0.0
C1757 C 0.79245 0.48855 0.77498 0.0
C1758 C 0.78251 0.50582 0.75939 0.0
C1759 C 0.77045 0.51876 0.7814 0.0
C1760 C 0.7824 0.50978 0.71982 0.0
C1761 C 0.80644 0.47471 0.75321 0.0
C1762 C 0.78717 0.52954 0.70672 0.0
C1763 C 0.78174 0.53517 0.67153 0.0
C1764 C 0.77147 0.52113 0.64876 0.0
C1765 C 0.76862 0.50073 0.66061 0.0
C1766 C 0.77388 0.49515 0.69602 0.0
H1767 H 0.81816 0.46716 0.77074 0.0
H1768 H 0.79707 0.46236 0.74043 0.0
H1769 H 0.81451 0.48342 0.73153 0.0
H1770 H 0.79375 0.54107 0.72456 0.0
H1771 H 0.78424 0.55098 0.66305 0.0
H1772 H 0.54564 0.21254 0.33611 0.0
H1773 H 0.53603 0.20291 0.27444 0.0
H1774 H 0.4762 0.23083 0.2895 0.0
H1775 H 0.48558 0.24026 0.35155 0.0
H1776 H 0.47753 0.19395 0.24146 0.0
H1777 H 0.53516 0.25495 0.208 0.0
H1778 H 0.54422 0.23384 0.23525 0.0
H1779 H 0.52533 0.25136 0.25322 0.0
C1780 C 0.53016 0.21599 0.32673 0.0
C1781 C 0.51646 0.22745 0.34841 0.0
C1782 C 0.52473 0.21051 0.29148 0.0
C1783 C 0.50562 0.21661 0.27725 0.0
C1784 C 0.49108 0.22608 0.30003 0.0
H1785 H 0.44383 0.24515 0.08441 0.0
H1786 H 0.45433 0.23231 0.14326 0.0
C1787 C 0.49643 0.2314 0.33552 0.0
C1788 C 0.50211 0.21621 0.23769 0.0
H1789 H 0.51669 0.24061 0.15993 0.0
C1790 C 0.48623 0.20394 0.22348 0.0
C1791 C 0.51357 0.22923 0.21434 0.0
C1792 C 0.53044 0.24323 0.22833 0.0
C1793 C 0.48117 0.2047 0.18652 0.0
C1794 C 0.49201 0.21844 0.16351 0.0
C1795 C 0.50847 0.23001 0.17753 0.0
C1796 C 0.48498 0.22319 0.12624 0.0
C1797 C 0.46412 0.19098 0.17258 0.0
C1798 C 0.4988 0.22256 0.0969 0.0
C1799 C 0.49291 0.23021 0.06296 0.0
C1800 C 0.47317 0.23882 0.058 0.0
C1801 C 0.4592 0.23872 0.08719 0.0
C1802 C 0.46507 0.2311 0.1209 0.0
H1803 H 0.46292 0.17662 0.18888 0.0
H1804 H 0.44917 0.19925 0.17485 0.0
H1805 H 0.46661 0.18675 0.1438 0.0
H1806 H 0.51434 0.21673 0.10056 0.0
H1807 H 0.50403 0.23006 0.04107 0.0
H1808 H 0.39218 0.20943 0.92946 0.0
H1809 H 0.36219 0.18801 0.94285 0.0
H1810 H 0.33716 0.23642 0.01012 0.0
H1811 H 0.36794 0.25741 0.99857 0.0
H1812 H 0.33287 0.20259 0.04306 0.0
H1813 H 0.30567 0.18857 0.90422 0.0
H1814 H 0.33201 0.18045 0.90755 0.0
H1815 H 0.3255 0.2073 0.91402 0.0
C1816 C 0.38017 0.21556 0.94683 0.0
C1817 C 0.38228 0.23505 0.96291 0.0
C1818 C 0.36292 0.2034 0.95418 0.0
C1819 C 0.34707 0.21081 0.97666 0.0
C1820 C 0.34909 0.23043 0.99246 0.0
H1821 H 0.24036 0.12802 0.9915 0.0
H1822 H 0.26123 0.1588 0.97959 0.0
C1823 C 0.36665 0.24239 0.9859 0.0
C1824 C 0.32927 0.19738 0.98575 0.0
H1825 H 0.29569 0.16279 0.9488 0.0
C1826 C 0.32445 0.1942 0.02237 0.0
C1827 C 0.3178 0.18683 0.95888 0.0
C1828 C 0.32038 0.19119 0.91902 0.0
C1829 C 0.30938 0.17988 0.0329 0.0
C1830 C 0.29959 0.16769 0.00615 0.0
C1831 C 0.3035 0.17177 0.96946 0.0
C1832 C 0.28616 0.14993 0.01548 0.0
C1833 C 0.30419 0.17809 0.07259 0.0
C1834 C 0.29321 0.13468 0.03952 0.0
C1835 C 0.28108 0.11743 0.04705 0.0
C1836 C 0.26202 0.11472 0.02965 0.0
C1837 C 0.25505 0.12977 0.00519 0.0
C1838 C 0.26695 0.14733 0.99841 0.0
H1839 H 0.3063 0.19312 0.08658 0.0
H1840 H 0.28804 0.17285 0.07685 0.0
H1841 H 0.31483 0.16687 0.0855 0.0
H1842 H 0.30832 0.13585 0.05191 0.0
H1843 H 0.28692 0.10587 0.06561 0.0
H1844 H 0.246 0.62943 0.05636 0.0
H1845 H 0.22239 0.65789 0.04387 0.0
H1846 H 0.17443 0.61446 0.01615 0.0
H1847 H 0.19783 0.58579 0.02903 0.0
H1848 H 0.20337 0.66599 0.97775 0.0
H1849 H 0.14584 0.65386 0.08715 0.0
H1850 H 0.17104 0.64193 0.08759 0.0
H1851 H 0.15073 0.63136 0.06008 0.0
C1852 C 0.23037 0.62588 0.04797 0.0
C1853 C 0.22378 0.60533 0.04369 0.0
C1854 C 0.21693 0.64217 0.04081 0.0
C1855 C 0.19668 0.63821 0.02943 0.0
C1856 C 0.18993 0.61777 0.02554 0.0
H1857 H 0.11168 0.71791 0.91715 0.0
H1858 H 0.13806 0.69261 0.93346 0.0
C1859 C 0.20334 0.60143 0.03278 0.0
C1860 C 0.18295 0.65552 0.01998 0.0
H1861 H 0.13681 0.67779 0.04096 0.0
C1862 C 0.18887 0.66869 0.99167 0.0
C1863 C 0.1642 0.65904 0.03853 0.0
C1864 C 0.15762 0.64593 0.07026 0.0
C1865 C 0.17626 0.68514 0.98088 0.0
C1866 C 0.15716 0.6882 0.99857 0.0
C1867 C 0.15145 0.67527 0.02735 0.0
C1868 C 0.14268 0.70457 0.98753 0.0
C1869 C 0.18355 0.69919 0.95091 0.0
C1870 C 0.13658 0.7196 0.0126 0.0
C1871 C 0.12143 0.73395 0.00352 0.0
C1872 C 0.11205 0.73346 0.9692 0.0
C1873 C 0.11867 0.71876 0.94373 0.0
C1874 C 0.1338 0.70435 0.95293 0.0
H1875 H 0.20054 0.69823 0.94707 0.0
H1876 H 0.17606 0.69453 0.92517 0.0
H1877 H 0.17932 0.71549 0.95653 0.0
H1878 H 0.14327 0.71995 0.03946 0.0
H1879 H 0.11673 0.74511 0.02372 0.0
H1880 H 0.72425 0.88007 0.09147 0.0
H1881 H 0.70148 0.85061 0.08095 0.0
H1882 H 0.71185 0.85578 0.96601 0.0
H1883 H 0.73495 0.88498 0.9762 0.0
H1884 H 0.66572 0.85103 0.04176 0.0
H1885 H 0.72071 0.7945 0.98335 0.0
H1886 H 0.72911 0.81742 0.00693 0.0
H1887 H 0.72087 0.81895 0.96052 0.0
C1888 C 0.72185 0.87484 0.06396 0.0
C1889 C 0.73143 0.88486 0.03466 0.0
C1890 C 0.70887 0.85799 0.05803 0.0
C1891 C 0.70527 0.85085 0.02278 0.0
C1892 C 0.71485 0.86075 0.9935 0.0
H1893 H 0.6179 0.76918 0.92227 0.0
H1894 H 0.64557 0.79358 0.93643 0.0
C1895 C 0.72792 0.87753 0.99938 0.0
C1896 C 0.69037 0.83399 0.01644 0.0
H1897 H 0.68479 0.78665 0.97715 0.0
C1898 C 0.66993 0.83685 0.028 0.0
C1899 C 0.69595 0.81558 0.99838 0.0
C1900 C 0.7179 0.8113 0.98688 0.0
C1901 C 0.65474 0.82197 0.02116 0.0
C1902 C 0.66026 0.80374 0.00261 0.0
C1903 C 0.68071 0.80073 0.99133 0.0
C1904 C 0.64477 0.78784 0.99404 0.0
C1905 C 0.63279 0.82608 0.03293 0.0
C1906 C 0.6356 0.77631 0.02179 0.0
C1907 C 0.61982 0.76237 0.01388 0.0
C1908 C 0.61298 0.75977 0.97804 0.0
C1909 C 0.62273 0.7709 0.95017 0.0
C1910 C 0.63855 0.78479 0.95814 0.0
H1911 H 0.6304 0.84243 0.04092 0.0
H1912 H 0.6218 0.8222 0.01088 0.0
H1913 H 0.62905 0.81617 0.05653 0.0
H1914 H 0.64042 0.77838 0.04963 0.0
H1915 H 0.61272 0.75397 0.03597 0.0
H1916 H 0.78967 0.39499 0.05593 0.0
H1917 H 0.81223 0.36639 0.03913 0.0
H1918 H 0.76297 0.33963 0.97579 0.0
H1919 H 0.74079 0.36904 0.9907 0.0
H1920 H 0.81044 0.32769 0.05195 0.0
H1921 H 0.8077 0.33781 0.90305 0.0
H1922 H 0.79683 0.35646 0.93376 0.0
H1923 H 0.7827 0.3334 0.92239 0.0
C1924 C 0.78373 0.38303 0.03827 0.0
C1925 C 0.76362 0.38422 0.02433 0.0
C1926 C 0.79659 0.36669 0.02871 0.0
C1927 C 0.78944 0.35102 0.00564 0.0
C1928 C 0.76908 0.35186 0.99262 0.0
H1929 H 0.86647 0.23979 0.99425 0.0
H1930 H 0.83707 0.26277 0.00498 0.0
C1931 C 0.75637 0.36855 0.00136 0.0
C1932 C 0.80337 0.33375 0.996 0.0
H1933 H 0.82493 0.30809 0.9248 0.0
C1934 C 0.81365 0.32344 0.02412 0.0
C1935 C 0.80765 0.32832 0.95966 0.0
C1936 C 0.7983 0.33971 0.928 0.0
C1937 C 0.82856 0.30833 0.01702 0.0
C1938 C 0.83248 0.30253 0.98073 0.0
C1939 C 0.82177 0.31241 0.95261 0.0
C1940 C 0.84879 0.28746 0.97117 0.0
C1941 C 0.84064 0.29961 0.04849 0.0
C1942 C 0.86439 0.29313 0.94669 0.0
C1943 C 0.88072 0.27973 0.93948 0.0
C1944 C 0.88192 0.26063 0.95722 0.0
C1945 C 0.86598 0.25462 0.98072 0.0
C1946 C 0.84931 0.26778 0.98707 0.0
H1947 H 0.83997 0.30992 0.0725 0.0
H1948 H 0.83391 0.28454 0.05647 0.0
H1949 H 0.85711 0.29724 0.04125 0.0
H1950 H 0.86429 0.30819 0.93395 0.0
H1951 H 0.89287 0.28468 0.92127 0.0
H1952 H 0.74232 0.12951 0.56171 0.0
H1953 H 0.71768 0.15744 0.55203 0.0
H1954 H 0.67151 0.1133 0.51891 0.0
H1955 H 0.69593 0.08514 0.52906 0.0
H1956 H 0.69936 0.16711 0.48706 0.0
H1957 H 0.64042 0.14933 0.59155 0.0
H1958 H 0.66594 0.13807 0.59197 0.0
H1959 H 0.64631 0.12791 0.56251 0.0
C1960 C 0.72686 0.12568 0.55271 0.0
C1961 C 0.72107 0.1051 0.5461 0.0
C1962 C 0.71283 0.14167 0.54723 0.0
C1963 C 0.69277 0.13736 0.53516 0.0
C1964 C 0.68682 0.11686 0.52895 0.0
H1965 H 0.60806 0.21623 0.42235 0.0
H1966 H 0.63409 0.19102 0.4404 0.0
C1967 C 0.70083 0.10081 0.53457 0.0
C1968 C 0.67855 0.15445 0.52681 0.0
H1969 H 0.631 0.174 0.54652 0.0
C1970 C 0.68447 0.16874 0.50024 0.0
C1971 C 0.6593 0.1566 0.54442 0.0
C1972 C 0.65266 0.14229 0.57445 0.0
C1973 C 0.67137 0.1849 0.49008 0.0
C1974 C 0.65174 0.1865 0.50653 0.0
C1975 C 0.64603 0.17256 0.53379 0.0
C1976 C 0.63669 0.20229 0.49532 0.0
C1977 C 0.67866 0.20016 0.46198 0.0
C1978 C 0.6294 0.21674 0.52045 0.0
C1979 C 0.61444 0.23109 0.51035 0.0
C1980 C 0.60645 0.23112 0.47495 0.0
C1981 C 0.61397 0.2167 0.44976 0.0
C1982 C 0.6289 0.20234 0.45994 0.0
H1983 H 0.69577 0.2002 0.45955 0.0
H1984 H 0.67215 0.19584 0.43526 0.0
H1985 H 0.6734 0.21603 0.46856 0.0
H1986 H 0.63522 0.21682 0.54794 0.0
H1987 H 0.60896 0.24198 0.53041 0.0
H1988 H 0.11434 0.25768 0.52295 0.0
H1989 H 0.14221 0.28222 0.53429 0.0
H1990 H 0.14536 0.29627 0.42041 0.0
H1991 H 0.11745 0.27168 0.40854 0.0
H1992 H 0.18551 0.28976 0.46057 0.0
H1993 H 0.13137 0.34629 0.52275 0.0
H1994 H 0.12985 0.32024 0.53939 0.0
H1995 H 0.12272 0.32573 0.49345 0.0
C1996 C 0.12102 0.26584 0.5002 0.0
C1997 C 0.11353 0.26288 0.46485 0.0
C1998 C 0.13692 0.27985 0.50679 0.0
C1999 C 0.14557 0.2911 0.4782 0.0
C2000 C 0.13874 0.28768 0.44274 0.0
H2001 H 0.23783 0.38786 0.46675 0.0
H2002 H 0.21445 0.35933 0.45294 0.0
C2003 C 0.12278 0.2737 0.43608 0.0
C2004 C 0.16108 0.30713 0.48568 0.0
H2005 H 0.1669 0.35423 0.5253 0.0
C2006 C 0.18153 0.30391 0.47462 0.0
C2007 C 0.15565 0.32547 0.50398 0.0
C2008 C 0.13369 0.32982 0.51541 0.0
C2009 C 0.19694 0.31851 0.48216 0.0
C2010 C 0.19151 0.33686 0.50055 0.0
C2011 C 0.17099 0.34008 0.51135 0.0
C2012 C 0.20675 0.3531 0.50888 0.0
C2013 C 0.21892 0.31397 0.47117 0.0
C2014 C 0.20989 0.35919 0.54485 0.0
C2015 C 0.22301 0.37563 0.55283 0.0
C2016 C 0.23321 0.38628 0.52491 0.0
C2017 C 0.23028 0.37991 0.48889 0.0
C2018 C 0.21705 0.36352 0.48094 0.0
H2019 H 0.22139 0.29723 0.46628 0.0
H2020 H 0.22246 0.32231 0.44569 0.0
H2021 H 0.22997 0.31924 0.4922 0.0
H2022 H 0.20197 0.35137 0.56674 0.0
H2023 H 0.22498 0.3801 0.58086 0.0
H2024 H 0.38156 0.77223 0.40971 0.0
H2025 H 0.35263 0.7958 0.42009 0.0
H2026 H 0.3463 0.77285 0.529 0.0
H2027 H 0.37521 0.74925 0.51913 0.0
H2028 H 0.30689 0.78016 0.48187 0.0
H2029 H 0.36254 0.84534 0.49662 0.0
H2030 H 0.3655 0.8285 0.4582 0.0
H2031 H 0.37016 0.81876 0.50287 0.0
C2032 C 0.37385 0.77197 0.43572 0.0
C2033 C 0.38082 0.75904 0.46376 0.0
C2034 C 0.35735 0.78542 0.44153 0.0
C2035 C 0.34755 0.78601 0.4753 0.0
C2036 C 0.35376 0.77249 0.50276 0.0
H2037 H 0.27599 0.88074 0.57846 0.0
H2038 H 0.29864 0.85168 0.56429 0.0
C2039 C 0.37032 0.75913 0.49709 0.0
C2040 C 0.33201 0.80192 0.48309 0.0
H2041 H 0.3272 0.85315 0.50208 0.0
C2042 C 0.31122 0.79615 0.48615 0.0
C2043 C 0.33795 0.82261 0.48898 0.0
C2044 C 0.36025 0.8293 0.48675 0.0
C2045 C 0.29604 0.81078 0.49487 0.0
C2046 C 0.30199 0.83149 0.50058 0.0
C2047 C 0.3228 0.83719 0.49761 0.0
C2048 C 0.28694 0.84762 0.50995 0.0
C2049 C 0.27384 0.80403 0.49854 0.0
C2050 C 0.27291 0.85477 0.48399 0.0
C2051 C 0.26003 0.87144 0.49186 0.0
C2052 C 0.26105 0.88118 0.52583 0.0
C2053 C 0.27482 0.87359 0.55206 0.0
C2054 C 0.28775 0.857 0.54407 0.0
H2055 H 0.27231 0.78695 0.49914 0.0
H2056 H 0.26694 0.8105 0.52361 0.0
H2057 H 0.26483 0.80999 0.47524 0.0
H2058 H 0.27233 0.84782 0.45735 0.0
H2059 H 0.24956 0.87689 0.4711 0.0
H2060 H 0.88342 0.74329 0.52667 0.0
H2061 H 0.85467 0.72031 0.54131 0.0
H2062 H 0.85098 0.70137 0.42969 0.0
H2063 H 0.87971 0.72432 0.41455 0.0
H2064 H 0.81117 0.71096 0.46816 0.0
H2065 H 0.86319 0.65569 0.53905 0.0
H2066 H 0.86515 0.68239 0.55196 0.0
H2067 H 0.87271 0.67461 0.50728 0.0
C2068 C 0.87642 0.73437 0.50512 0.0
C2069 C 0.88398 0.73548 0.46948 0.0
C2070 C 0.86003 0.72127 0.51359 0.0
C2071 C 0.85096 0.70911 0.4866 0.0
C2072 C 0.85791 0.71068 0.45081 0.0
H2073 H 0.75947 0.61339 0.47252 0.0
H2074 H 0.78255 0.64249 0.46136 0.0
C2075 C 0.87435 0.72373 0.44229 0.0
C2076 C 0.8349 0.69396 0.496 0.0
H2077 H 0.8277 0.64796 0.53882 0.0
C2078 C 0.81468 0.69719 0.48369 0.0
C2079 C 0.83969 0.67614 0.5163 0.0
C2080 C 0.86137 0.67181 0.52929 0.0
C2081 C 0.79896 0.68296 0.49137 0.0
C2082 C 0.80383 0.66491 0.51114 0.0
C2083 C 0.82404 0.66186 0.52377 0.0
C2084 C 0.7885 0.64852 0.51801 0.0
C2085 C 0.77729 0.68746 0.47862 0.0
C2086 C 0.78447 0.6421 0.55355 0.0
C2087 C 0.77152 0.6253 0.56004 0.0
C2088 C 0.76241 0.61461 0.53103 0.0
C2089 C 0.76616 0.62136 0.49547 0.0
C2090 C 0.77922 0.63809 0.48902 0.0
H2091 H 0.77492 0.70423 0.47388 0.0
H2092 H 0.77453 0.67933 0.45264 0.0
H2093 H 0.76566 0.68202 0.49854 0.0
H2094 H 0.79162 0.6499 0.57625 0.0
H2095 H 0.76889 0.62054 0.58775 0.0
loop_
_geom_bond_atom_site_label_1
_geom_bond_atom_site_label_2
_geom_bond_distance
_geom_bond_site_symmetry_2
_ccdc_geom_bond_type
O0 Zn1 1.953 . S
O0 C16 1.225 . S
Zn1 O0 1.953 . S
Zn1 O2 1.949 . S
Zn1 O8 1.919 . S
Zn1 O13 1.924 . S
O2 Zn1 1.949 . S
O2 Zn3 1.923 . S
O2 Zn4 1.950 . S
O2 Zn5 1.945 . S
Zn3 O2 1.923 . S
Zn3 O6 1.933 . S
Zn3 O9 1.941 . S
Zn3 O10 1.965 . S
Zn4 O2 1.950 . S
Zn4 O11 1.938 . S
Zn4 O12 1.906 . S
Zn4 O22 1.953 . S
Zn5 O2 1.945 . S
Zn5 O7 1.932 1_554 S
Zn5 O14 1.977 . S
Zn5 O15 1.910 1_554 S
O6 Zn3 1.933 . S
O6 C17 1.226 1_554 S
O7 Zn5 1.932 1_556 S
O7 C17 1.307 . S
O8 Zn1 1.919 . S
O8 C19 1.253 . S
O9 Zn3 1.941 . S
O9 C19 1.283 . S
O10 Zn3 1.965 . S
O10 C18 1.303 . S
O11 Zn4 1.938 . S
O11 C18 1.247 . S
O12 Zn4 1.906 . S
O12 C20 1.304 . S
O13 Zn1 1.924 . S
O13 C21 1.311 . S
O14 Zn5 1.977 . S
O14 C20 1.272 . S
O15 Zn5 1.910 1_556 S
O15 C21 1.231 1_556 S
C16 O0 1.225 . S
C16 O22 1.298 . S
C17 O6 1.226 1_556 S
C17 O7 1.307 . S
C18 O10 1.303 . S
C18 O11 1.247 . S
C19 O8 1.253 . S
C19 O9 1.283 . S
C20 O12 1.304 . S
C20 O14 1.272 . S
C21 O13 1.311 . S
C21 O15 1.231 1_554 S
O22 Zn4 1.953 . S
O22 C16 1.298 . S
O23 Zn24 1.953 . S
O23 C39 1.225 . S
Zn24 O23 1.953 . S
Zn24 O25 1.949 . S
Zn24 O31 1.919 . S
Zn24 O36 1.924 . S
O25 Zn24 1.949 . S
O25 Zn26 1.923 . S
O25 Zn27 1.950 . S
O25 Zn28 1.945 . S
Zn26 O25 1.923 . S
Zn26 O29 1.933 . S
Zn26 O32 1.941 . S
Zn26 O33 1.965 . S
Zn27 O25 1.950 . S
Zn27 O34 1.938 . S
Zn27 O35 1.906 . S
Zn27 O45 1.953 . S
Zn28 O25 1.945 . S
Zn28 O30 1.932 1_556 S
Zn28 O37 1.977 . S
Zn28 O38 1.910 1_556 S
O29 Zn26 1.933 . S
O29 C40 1.226 1_556 S
O30 Zn28 1.932 1_554 S
O30 C40 1.307 . S
O31 Zn24 1.919 . S
O31 C42 1.253 . S
O32 Zn26 1.941 . S
O32 C42 1.283 . S
O33 Zn26 1.965 . S
O33 C41 1.303 . S
O34 Zn27 1.938 . S
O34 C41 1.247 . S
O35 Zn27 1.906 . S
O35 C43 1.304 . S
O36 Zn24 1.924 . S
O36 C44 1.311 . S
O37 Zn28 1.977 . S
O37 C43 1.272 . S
O38 Zn28 1.910 1_554 S
O38 C44 1.231 1_554 S
C39 O23 1.225 . S
C39 O45 1.298 . S
C40 O29 1.226 1_554 S
C40 O30 1.307 . S
C41 O33 1.303 . S
C41 O34 1.247 . S
C42 O31 1.253 . S
C42 O32 1.283 . S
C43 O35 1.304 . S
C43 O37 1.272 . S
C44 O36 1.311 . S
C44 O38 1.231 1_556 S
O45 Zn27 1.953 . S
O45 C39 1.298 . S
O46 Zn47 1.953 . S
O46 C62 1.225 . S
Zn47 O46 1.953 . S
Zn47 O48 1.949 . S
Zn47 O54 1.919 . S
Zn47 O59 1.924 . S
O48 Zn47 1.949 . S
O48 Zn49 1.923 . S
O48 Zn50 1.950 . S
O48 Zn51 1.945 . S
Zn49 O48 1.923 . S
Zn49 O52 1.933 . S
Zn49 O55 1.941 . S
Zn49 O56 1.965 . S
Zn50 O48 1.950 . S
Zn50 O57 1.938 . S
Zn50 O58 1.906 . S
Zn50 O68 1.953 . S
Zn51 O48 1.945 . S
Zn51 O53 1.932 1_554 S
Zn51 O60 1.977 . S
Zn51 O61 1.910 1_554 S
O52 Zn49 1.933 . S
O52 C63 1.226 1_554 S
O53 Zn51 1.932 1_556 S
O53 C63 1.307 . S
O54 Zn47 1.919 . S
O54 C65 1.253 . S
O55 Zn49 1.941 . S
O55 C65 1.283 . S
O56 Zn49 1.965 . S
O56 C64 1.303 . S
O57 Zn50 1.938 . S
O57 C64 1.247 . S
O58 Zn50 1.906 . S
O58 C66 1.304 . S
O59 Zn47 1.924 . S
O59 C67 1.311 . S
O60 Zn51 1.977 . S
O60 C66 1.272 . S
O61 Zn51 1.910 1_556 S
O61 C67 1.231 1_556 S
C62 O46 1.225 . S
C62 O68 1.298 . S
C63 O52 1.226 1_556 S
C63 O53 1.307 . S
C64 O56 1.303 . S
C64 O57 1.247 . S
C65 O54 1.253 . S
C65 O55 1.283 . S
C66 O58 1.304 . S
C66 O60 1.272 . S
C67 O59 1.311 . S
C67 O61 1.231 1_554 S
O68 Zn50 1.953 . S
O68 C62 1.298 . S
O69 Zn70 1.953 . S
O69 C85 1.225 . S
Zn70 O69 1.953 . S
Zn70 O71 1.949 . S
Zn70 O77 1.919 . S
Zn70 O82 1.924 . S
O71 Zn70 1.949 . S
O71 Zn72 1.923 . S
O71 Zn73 1.950 . S
O71 Zn74 1.945 . S
Zn72 O71 1.923 . S
Zn72 O75 1.933 . S
Zn72 O78 1.941 . S
Zn72 O79 1.965 . S
Zn73 O71 1.950 . S
Zn73 O80 1.938 . S
Zn73 O81 1.906 . S
Zn73 O91 1.953 . S
Zn74 O71 1.945 . S
Zn74 O76 1.932 1_556 S
Zn74 O83 1.977 . S
Zn74 O84 1.910 1_556 S
O75 Zn72 1.933 . S
O75 C86 1.226 1_556 S
O76 Zn74 1.932 1_554 S
O76 C86 1.307 . S
O77 Zn70 1.919 . S
O77 C88 1.253 . S
O78 Zn72 1.941 . S
O78 C88 1.283 . S
O79 Zn72 1.965 . S
O79 C87 1.303 . S
O80 Zn73 1.938 . S
O80 C87 1.247 . S
O81 Zn73 1.906 . S
O81 C89 1.304 . S
O82 Zn70 1.924 . S
O82 C90 1.311 . S
O83 Zn74 1.977 . S
O83 C89 1.272 . S
O84 Zn74 1.910 1_554 S
O84 C90 1.231 1_554 S
C85 O69 1.225 . S
C85 O91 1.298 . S
C86 O75 1.226 1_554 S
C86 O76 1.307 . S
C87 O79 1.303 . S
C87 O80 1.247 . S
C88 O77 1.253 . S
C88 O78 1.283 . S
C89 O81 1.304 . S
C89 O83 1.272 . S
C90 O82 1.311 . S
C90 O84 1.231 1_556 S
O91 Zn73 1.953 . S
O91 C85 1.298 . S
O92 Zn93 1.953 . S
O92 C108 1.225 . S
Zn93 O92 1.953 . S
Zn93 O94 1.949 . S
Zn93 O100 1.919 . S
Zn93 O105 1.924 . S
O94 Zn93 1.949 . S
O94 Zn95 1.923 . S
O94 Zn96 1.950 . S
O94 Zn97 1.945 . S
Zn95 O94 1.923 . S
Zn95 O98 1.933 . S
Zn95 O101 1.941 . S
Zn95 O102 1.965 . S
Zn96 O94 1.950 . S
Zn96 O103 1.938 . S
Zn96 O104 1.906 . S
Zn96 O114 1.953 . S
Zn97 O94 1.945 . S
Zn97 O99 1.932 . S
Zn97 O106 1.977 . S
Zn97 O107 1.910 . S
O98 Zn95 1.933 . S
O98 C109 1.226 . S
O99 Zn97 1.932 . S
O99 C109 1.307 . S
O100 Zn93 1.919 . S
O100 C111 1.253 . S
O101 Zn95 1.941 . S
O101 C111 1.283 . S
O102 Zn95 1.965 . S
O102 C110 1.303 . S
O103 Zn96 1.938 . S
O103 C110 1.247 . S
O104 Zn96 1.906 . S
O104 C112 1.304 . S
O105 Zn93 1.924 . S
O105 C113 1.311 . S
O106 Zn97 1.977 . S
O106 C112 1.272 . S
O107 Zn97 1.910 . S
O107 C113 1.231 . S
C108 O92 1.225 . S
C108 O114 1.298 . S
C109 O98 1.226 . S
C109 O99 1.307 . S
C110 O102 1.303 . S
C110 O103 1.247 . S
C111 O100 1.253 . S
C111 O101 1.283 . S
C112 O104 1.304 . S
C112 O106 1.272 . S
C113 O105 1.311 . S
C113 O107 1.231 . S
O114 Zn96 1.953 . S
O114 C108 1.298 . S
O115 Zn116 1.953 . S
O115 C131 1.225 . S
Zn116 O115 1.953 . S
Zn116 O117 1.949 . S
Zn116 O123 1.919 . S
Zn116 O128 1.924 . S
O117 Zn116 1.949 . S
O117 Zn118 1.923 . S
O117 Zn119 1.950 . S
O117 Zn120 1.945 . S
Zn118 O117 1.923 . S
Zn118 O121 1.933 . S
Zn118 O124 1.941 . S
Zn118 O125 1.965 . S
Zn119 O117 1.950 . S
Zn119 O126 1.938 . S
Zn119 O127 1.906 . S
Zn119 O137 1.953 . S
Zn120 O117 1.945 . S
Zn120 O122 1.932 . S
Zn120 O129 1.977 . S
Zn120 O130 1.910 . S
O121 Zn118 1.933 . S
O121 C132 1.226 . S
O122 Zn120 1.932 . S
O122 C132 1.307 . S
O123 Zn116 1.919 . S
O123 C134 1.253 . S
O124 Zn118 1.941 . S
O124 C134 1.283 . S
O125 Zn118 1.965 . S
O125 C133 1.303 . S
O126 Zn119 1.938 . S
O126 C133 1.247 . S
O127 Zn119 1.906 . S
O127 C135 1.304 . S
O128 Zn116 1.924 . S
O128 C136 1.311 . S
O129 Zn120 1.977 . S
O129 C135 1.272 . S
O130 Zn120 1.910 . S
O130 C136 1.231 . S
C131 O115 1.225 . S
C131 O137 1.298 . S
C132 O121 1.226 . S
C132 O122 1.307 . S
C133 O125 1.303 . S
C133 O126 1.247 . S
C134 O123 1.253 . S
C134 O124 1.283 . S
C135 O127 1.304 . S
C135 O129 1.272 . S
C136 O128 1.311 . S
C136 O130 1.231 . S
O137 Zn119 1.953 . S
O137 C131 1.298 . S
O138 Zn139 1.953 . S
O138 C154 1.225 . S
Zn139 O138 1.953 . S
Zn139 O140 1.949 . S
Zn139 O146 1.919 . S
Zn139 O151 1.924 . S
O140 Zn139 1.949 . S
O140 Zn141 1.923 . S
O140 Zn142 1.950 . S
O140 Zn143 1.945 . S
Zn141 O140 1.923 . S
Zn141 O144 1.933 . S
Zn141 O147 1.941 . S
Zn141 O148 1.965 . S
Zn142 O140 1.950 . S
Zn142 O149 1.938 . S
Zn142 O150 1.906 . S
Zn142 O160 1.953 . S
Zn143 O140 1.945 . S
Zn143 O145 1.932 . S
Zn143 O152 1.977 . S
Zn143 O153 1.910 . S
O144 Zn141 1.933 . S
O144 C155 1.226 . S
O145 Zn143 1.932 . S
O145 C155 1.307 . S
O146 Zn139 1.919 . S
O146 C157 1.253 . S
O147 Zn141 1.941 . S
O147 C157 1.283 . S
O148 Zn141 1.965 . S
O148 C156 1.303 . S
O149 Zn142 1.938 . S
O149 C156 1.247 . S
O150 Zn142 1.906 . S
O150 C158 1.304 . S
O151 Zn139 1.924 . S
O151 C159 1.311 . S
O152 Zn143 1.977 . S
O152 C158 1.272 . S
O153 Zn143 1.910 . S
O153 C159 1.231 . S
C154 O138 1.225 . S
C154 O160 1.298 . S
C155 O144 1.226 . S
C155 O145 1.307 . S
C156 O148 1.303 . S
C156 O149 1.247 . S
C157 O146 1.253 . S
C157 O147 1.283 . S
C158 O150 1.304 . S
C158 O152 1.272 . S
C159 O151 1.311 . S
C159 O153 1.231 . S
O160 Zn142 1.953 . S
O160 C154 1.298 . S
O161 Zn162 1.953 . S
O161 C177 1.225 . S
Zn162 O161 1.953 . S
Zn162 O163 1.949 . S
Zn162 O169 1.919 . S
Zn162 O174 1.924 . S
O163 Zn162 1.949 . S
O163 Zn164 1.923 . S
O163 Zn165 1.950 . S
O163 Zn166 1.945 . S
Zn164 O163 1.923 . S
Zn164 O167 1.933 . S
Zn164 O170 1.941 . S
Zn164 O171 1.965 . S
Zn165 O163 1.950 . S
Zn165 O172 1.938 . S
Zn165 O173 1.906 . S
Zn165 O183 1.953 . S
Zn166 O163 1.945 . S
Zn166 O168 1.932 . S
Zn166 O175 1.977 . S
Zn166 O176 1.910 . S
O167 Zn164 1.933 . S
O167 C178 1.226 . S
O168 Zn166 1.932 . S
O168 C178 1.307 . S
O169 Zn162 1.919 . S
O169 C180 1.253 . S
O170 Zn164 1.941 . S
O170 C180 1.283 . S
O171 Zn164 1.965 . S
O171 C179 1.303 . S
O172 Zn165 1.938 . S
O172 C179 1.247 . S
O173 Zn165 1.906 . S
O173 C181 1.304 . S
O174 Zn162 1.924 . S
O174 C182 1.311 . S
O175 Zn166 1.977 . S
O175 C181 1.272 . S
O176 Zn166 1.910 . S
O176 C182 1.231 . S
C177 O161 1.225 . S
C177 O183 1.298 . S
C178 O167 1.226 . S
C178 O168 1.307 . S
C179 O171 1.303 . S
C179 O172 1.247 . S
C180 O169 1.253 . S
C180 O170 1.283 . S
C181 O173 1.304 . S
C181 O175 1.272 . S
C182 O174 1.311 . S
C182 O176 1.231 . S
O183 Zn165 1.953 . S
O183 C177 1.298 . S
O184 Zn185 1.953 . S
O184 C200 1.225 . S
Zn185 O184 1.953 . S
Zn185 O186 1.949 . S
Zn185 O192 1.919 . S
Zn185 O197 1.924 . S
O186 Zn185 1.949 . S
O186 Zn187 1.923 . S
O186 Zn188 1.950 . S
O186 Zn189 1.945 . S
Zn187 O186 1.923 . S
Zn187 O190 1.933 . S
Zn187 O193 1.941 . S
Zn187 O194 1.965 . S
Zn188 O186 1.950 . S
Zn188 O195 1.938 . S
Zn188 O196 1.906 . S
Zn188 O206 1.953 . S
Zn189 O186 1.945 . S
Zn189 O191 1.932 . S
Zn189 O198 1.977 . S
Zn189 O199 1.910 . S
O190 Zn187 1.933 . S
O190 C201 1.226 . S
O191 Zn189 1.932 . S
O191 C201 1.307 . S
O192 Zn185 1.919 . S
O192 C203 1.253 . S
O193 Zn187 1.941 . S
O193 C203 1.283 . S
O194 Zn187 1.965 . S
O194 C202 1.303 . S
O195 Zn188 1.938 . S
O195 C202 1.247 . S
O196 Zn188 1.906 . S
O196 C204 1.304 . S
O197 Zn185 1.924 . S
O197 C205 1.311 . S
O198 Zn189 1.977 . S
O198 C204 1.272 . S
O199 Zn189 1.910 . S
O199 C205 1.231 . S
C200 O184 1.225 . S
C200 O206 1.298 . S
C201 O190 1.226 . S
C201 O191 1.307 . S
C202 O194 1.303 . S
C202 O195 1.247 . S
C203 O192 1.253 . S
C203 O193 1.283 . S
C204 O196 1.304 . S
C204 O198 1.272 . S
C205 O197 1.311 . S
C205 O199 1.231 . S
O206 Zn188 1.953 . S
O206 C200 1.298 . S
O207 Zn208 1.953 . S
O207 C223 1.225 . S
Zn208 O207 1.953 . S
Zn208 O209 1.949 . S
Zn208 O215 1.919 . S
Zn208 O220 1.924 . S
O209 Zn208 1.949 . S
O209 Zn210 1.923 . S
O209 Zn211 1.950 . S
O209 Zn212 1.945 . S
Zn210 O209 1.923 . S
Zn210 O213 1.933 . S
Zn210 O216 1.941 . S
Zn210 O217 1.965 . S
Zn211 O209 1.950 . S
Zn211 O218 1.938 . S
Zn211 O219 1.906 . S
Zn211 O229 1.953 . S
Zn212 O209 1.945 . S
Zn212 O214 1.932 . S
Zn212 O221 1.977 . S
Zn212 O222 1.910 . S
O213 Zn210 1.933 . S
O213 C224 1.226 . S
O214 Zn212 1.932 . S
O214 C224 1.307 . S
O215 Zn208 1.919 . S
O215 C226 1.253 . S
O216 Zn210 1.941 . S
O216 C226 1.283 . S
O217 Zn210 1.965 . S
O217 C225 1.303 . S
O218 Zn211 1.938 . S
O218 C225 1.247 . S
O219 Zn211 1.906 . S
O219 C227 1.304 . S
O220 Zn208 1.924 . S
O220 C228 1.311 . S
O221 Zn212 1.977 . S
O221 C227 1.272 . S
O222 Zn212 1.910 . S
O222 C228 1.231 . S
C223 O207 1.225 . S
C223 O229 1.298 . S
C224 O213 1.226 . S
C224 O214 1.307 . S
C225 O217 1.303 . S
C225 O218 1.247 . S
C226 O215 1.253 . S
C226 O216 1.283 . S
C227 O219 1.304 . S
C227 O221 1.272 . S
C228 O220 1.311 . S
C228 O222 1.231 . S
O229 Zn211 1.953 . S
O229 C223 1.298 . S
O230 Zn231 1.953 . S
O230 C246 1.225 . S
Zn231 O230 1.953 . S
Zn231 O232 1.949 . S
Zn231 O238 1.919 . S
Zn231 O243 1.924 . S
O232 Zn231 1.949 . S
O232 Zn233 1.923 . S
O232 Zn234 1.950 . S
O232 Zn235 1.945 . S
Zn233 O232 1.923 . S
Zn233 O236 1.933 . S
Zn233 O239 1.941 . S
Zn233 O240 1.965 . S
Zn234 O232 1.950 . S
Zn234 O241 1.938 . S
Zn234 O242 1.906 . S
Zn234 O252 1.953 . S
Zn235 O232 1.945 . S
Zn235 O237 1.932 . S
Zn235 O244 1.977 . S
Zn235 O245 1.910 . S
O236 Zn233 1.933 . S
O236 C247 1.226 . S
O237 Zn235 1.932 . S
O237 C247 1.307 . S
O238 Zn231 1.919 . S
O238 C249 1.253 . S
O239 Zn233 1.941 . S
O239 C249 1.283 . S
O240 Zn233 1.965 . S
O240 C248 1.303 . S
O241 Zn234 1.938 . S
O241 C248 1.247 . S
O242 Zn234 1.906 . S
O242 C250 1.304 . S
O243 Zn231 1.924 . S
O243 C251 1.311 . S
O244 Zn235 1.977 . S
O244 C250 1.272 . S
O245 Zn235 1.910 . S
O245 C251 1.231 . S
C246 O230 1.225 . S
C246 O252 1.298 . S
C247 O236 1.226 . S
C247 O237 1.307 . S
C248 O240 1.303 . S
C248 O241 1.247 . S
C249 O238 1.253 . S
C249 O239 1.283 . S
C250 O242 1.304 . S
C250 O244 1.272 . S
C251 O243 1.311 . S
C251 O245 1.231 . S
O252 Zn234 1.953 . S
O252 C246 1.298 . S
O253 Zn254 1.953 . S
O253 C269 1.225 . S
Zn254 O253 1.953 . S
Zn254 O255 1.949 . S
Zn254 O261 1.919 . S
Zn254 O266 1.924 . S
O255 Zn254 1.949 . S
O255 Zn256 1.923 . S
O255 Zn257 1.950 . S
O255 Zn258 1.945 . S
Zn256 O255 1.923 . S
Zn256 O259 1.933 . S
Zn256 O262 1.941 . S
Zn256 O263 1.965 . S
Zn257 O255 1.950 . S
Zn257 O264 1.938 . S
Zn257 O265 1.906 . S
Zn257 O275 1.953 . S
Zn258 O255 1.945 . S
Zn258 O260 1.932 . S
Zn258 O267 1.977 . S
Zn258 O268 1.910 . S
O259 Zn256 1.933 . S
O259 C270 1.226 . S
O260 Zn258 1.932 . S
O260 C270 1.307 . S
O261 Zn254 1.919 . S
O261 C272 1.253 . S
O262 Zn256 1.941 . S
O262 C272 1.283 . S
O263 Zn256 1.965 . S
O263 C271 1.303 . S
O264 Zn257 1.938 . S
O264 C271 1.247 . S
O265 Zn257 1.906 . S
O265 C273 1.304 . S
O266 Zn254 1.924 . S
O266 C274 1.311 . S
O267 Zn258 1.977 . S
O267 C273 1.272 . S
O268 Zn258 1.910 . S
O268 C274 1.231 . S
C269 O253 1.225 . S
C269 O275 1.298 . S
C270 O259 1.226 . S
C270 O260 1.307 . S
C271 O263 1.303 . S
C271 O264 1.247 . S
C272 O261 1.253 . S
C272 O262 1.283 . S
C273 O265 1.304 . S
C273 O267 1.272 . S
C274 O266 1.311 . S
C274 O268 1.231 . S
O275 Zn257 1.953 . S
O275 C269 1.298 . S
O276 Zn277 1.953 . S
O276 C292 1.225 1_554 S
Zn277 O276 1.953 . S
Zn277 O278 1.949 . S
Zn277 O284 1.919 . S
Zn277 O289 1.924 . S
O278 Zn277 1.949 . S
O278 Zn279 1.923 . S
O278 Zn280 1.950 . S
O278 Zn281 1.945 . S
Zn279 O278 1.923 . S
Zn279 O282 1.933 . S
Zn279 O285 1.941 . S
Zn279 O286 1.965 . S
Zn280 O278 1.950 . S
Zn280 O287 1.938 . S
Zn280 O288 1.903 1_554 S
Zn280 O298 1.953 1_554 S
Zn281 O278 1.945 . S
Zn281 O283 1.932 . S
Zn281 O290 1.977 . S
Zn281 O291 1.910 . S
O282 Zn279 1.933 . S
O282 C293 1.226 . S
O283 Zn281 1.932 . S
O283 C293 1.307 . S
O284 Zn277 1.919 . S
O284 C295 1.253 . S
O285 Zn279 1.941 . S
O285 C295 1.283 . S
O286 Zn279 1.965 . S
O286 C294 1.303 . S
O287 Zn280 1.938 . S
O287 C294 1.247 . S
O288 Zn280 1.903 1_556 S
O288 C296 1.301 1_556 S
O289 Zn277 1.924 . S
O289 C297 1.311 . S
O290 Zn281 1.977 . S
O290 C296 1.272 . S
O291 Zn281 1.910 . S
O291 C297 1.231 . S
C292 O276 1.225 1_556 S
C292 O298 1.298 . S
C293 O282 1.226 . S
C293 O283 1.307 . S
C294 O286 1.303 . S
C294 O287 1.247 . S
C295 O284 1.253 . S
C295 O285 1.283 . S
C296 O288 1.301 1_554 S
C296 O290 1.272 . S
C297 O289 1.311 . S
C297 O291 1.231 . S
O298 Zn280 1.953 1_556 S
O298 C292 1.298 . S
O299 Zn300 1.953 . S
O299 C315 1.225 . S
Zn300 O299 1.953 . S
Zn300 O301 1.949 . S
Zn300 O307 1.919 . S
Zn300 O312 1.924 . S
O301 Zn300 1.949 . S
O301 Zn302 1.923 . S
O301 Zn303 1.950 . S
O301 Zn304 1.945 . S
Zn302 O301 1.923 . S
Zn302 O305 1.933 . S
Zn302 O308 1.941 . S
Zn302 O309 1.965 . S
Zn303 O301 1.950 . S
Zn303 O310 1.938 . S
Zn303 O311 1.906 . S
Zn303 O321 1.953 . S
Zn304 O301 1.945 . S
Zn304 O306 1.932 1_556 S
Zn304 O313 1.977 . S
Zn304 O314 1.910 1_556 S
O305 Zn302 1.933 . S
O305 C316 1.226 1_556 S
O306 Zn304 1.932 1_554 S
O306 C316 1.307 . S
O307 Zn300 1.919 . S
O307 C318 1.253 . S
O308 Zn302 1.941 . S
O308 C318 1.283 . S
O309 Zn302 1.965 . S
O309 C317 1.303 . S
O310 Zn303 1.938 . S
O310 C317 1.247 . S
O311 Zn303 1.906 . S
O311 C319 1.304 . S
O312 Zn300 1.924 . S
O312 C320 1.311 . S
O313 Zn304 1.977 . S
O313 C319 1.272 . S
O314 Zn304 1.910 1_554 S
O314 C320 1.231 1_554 S
C315 O299 1.225 . S
C315 O321 1.298 . S
C316 O305 1.226 1_554 S
C316 O306 1.307 . S
C317 O309 1.303 . S
C317 O310 1.247 . S
C318 O307 1.253 . S
C318 O308 1.283 . S
C319 O311 1.304 . S
C319 O313 1.272 . S
C320 O312 1.311 . S
C320 O314 1.231 1_556 S
O321 Zn303 1.953 . S
O321 C315 1.298 . S
O322 Zn323 1.953 . S
O322 C338 1.225 . S
Zn323 O322 1.953 . S
Zn323 O324 1.949 . S
Zn323 O330 1.919 . S
Zn323 O335 1.924 . S
O324 Zn323 1.949 . S
O324 Zn325 1.923 . S
O324 Zn326 1.950 . S
O324 Zn327 1.945 . S
Zn325 O324 1.923 . S
Zn325 O328 1.933 . S
Zn325 O331 1.941 . S
Zn325 O332 1.965 . S
Zn326 O324 1.950 . S
Zn326 O333 1.938 . S
Zn326 O334 1.906 . S
Zn326 O344 1.953 . S
Zn327 O324 1.945 . S
Zn327 O329 1.932 1_554 S
Zn327 O336 1.977 . S
Zn327 O337 1.910 1_554 S
O328 Zn325 1.933 . S
O328 C339 1.226 1_554 S
O329 Zn327 1.932 1_556 S
O329 C339 1.307 . S
O330 Zn323 1.919 . S
O330 C341 1.253 . S
O331 Zn325 1.941 . S
O331 C341 1.283 . S
O332 Zn325 1.965 . S
O332 C340 1.303 . S
O333 Zn326 1.938 . S
O333 C340 1.247 . S
O334 Zn326 1.906 . S
O334 C342 1.304 . S
O335 Zn323 1.924 . S
O335 C343 1.311 . S
O336 Zn327 1.977 . S
O336 C342 1.272 . S
O337 Zn327 1.910 1_556 S
O337 C343 1.231 1_556 S
C338 O322 1.225 . S
C338 O344 1.298 . S
C339 O328 1.226 1_556 S
C339 O329 1.307 . S
C340 O332 1.303 . S
C340 O333 1.247 . S
C341 O330 1.253 . S
C341 O331 1.283 . S
C342 O334 1.304 . S
C342 O336 1.272 . S
C343 O335 1.311 . S
C343 O337 1.231 1_554 S
O344 Zn326 1.953 . S
O344 C338 1.298 . S
O345 Zn346 1.953 . S
O345 C361 1.225 . S
Zn346 O345 1.953 . S
Zn346 O347 1.949 . S
Zn346 O353 1.919 . S
Zn346 O358 1.924 . S
O347 Zn346 1.949 . S
O347 Zn348 1.923 . S
O347 Zn349 1.950 . S
O347 Zn350 1.945 . S
Zn348 O347 1.923 . S
Zn348 O351 1.933 . S
Zn348 O354 1.941 . S
Zn348 O355 1.965 . S
Zn349 O347 1.950 . S
Zn349 O356 1.938 . S
Zn349 O357 1.906 . S
Zn349 O367 1.953 . S
Zn350 O347 1.945 . S
Zn350 O352 1.932 1_556 S
Zn350 O359 1.977 . S
Zn350 O360 1.910 1_556 S
O351 Zn348 1.933 . S
O351 C362 1.226 1_556 S
O352 Zn350 1.932 1_554 S
O352 C362 1.307 . S
O353 Zn346 1.919 . S
O353 C364 1.253 . S
O354 Zn348 1.941 . S
O354 C364 1.283 . S
O355 Zn348 1.965 . S
O355 C363 1.303 . S
O356 Zn349 1.938 . S
O356 C363 1.247 . S
O357 Zn349 1.906 . S
O357 C365 1.304 . S
O358 Zn346 1.924 . S
O358 C366 1.311 . S
O359 Zn350 1.977 . S
O359 C365 1.272 . S
O360 Zn350 1.910 1_554 S
O360 C366 1.231 1_554 S
C361 O345 1.225 . S
C361 O367 1.298 . S
C362 O351 1.226 1_554 S
C362 O352 1.307 . S
C363 O355 1.303 . S
C363 O356 1.247 . S
C364 O353 1.253 . S
C364 O354 1.283 . S
C365 O357 1.304 . S
C365 O359 1.272 . S
C366 O358 1.311 . S
C366 O360 1.231 1_556 S
O367 Zn349 1.953 . S
O367 C361 1.298 . S
H368 C376 0.929 . S
H369 C378 0.930 . S
H370 C380 0.930 . S
H371 C383 0.929 . S
H372 C386 0.930 . S
H373 C388 0.960 . S
H374 C388 0.960 . S
H375 C388 0.960 . S
C376 H368 0.929 . S
C376 C377 1.377 . S
C376 C378 1.384 . S
C377 C376 1.377 . S
C377 C383 1.390 . S
C378 H369 0.930 . S
C378 C376 1.384 . S
C378 C379 1.372 . S
C379 C378 1.372 . S
C379 C380 1.400 . S
C379 C384 1.490 . S
C380 H370 0.930 . S
C380 C379 1.400 . S
C380 C383 1.386 . S
H381 C397 0.930 . S
H382 C398 0.931 . S
C383 H371 0.929 . S
C383 C377 1.390 . S
C383 C380 1.386 . S
C384 C379 1.490 . S
C384 C386 1.395 . S
C384 C387 1.403 . S
H385 C391 0.930 . S
C386 H372 0.930 . S
C386 C384 1.395 . S
C386 C389 1.403 . S
C387 C384 1.403 . S
C387 C388 1.524 . S
C387 C391 1.400 . S
C388 H373 0.960 . S
C388 H374 0.960 . S
C388 H375 0.960 . S
C388 C387 1.524 . S
C389 C386 1.403 . S
C389 C390 1.392 . S
C389 C393 1.495 . S
C390 C389 1.392 . S
C390 C391 1.385 . S
C390 C392 1.478 . S
C391 H385 0.930 . S
C391 C387 1.400 . S
C391 C390 1.385 . S
C392 C390 1.478 . S
C392 C394 1.381 . S
C392 C398 1.383 . S
C393 C389 1.495 . S
C393 H399 0.959 . S
C393 H400 0.961 . S
C393 H401 0.960 . S
C394 C392 1.381 . S
C394 C395 1.394 . S
C394 H402 0.930 . S
C395 C394 1.394 . S
C395 C396 1.383 . S
C395 H403 0.929 . S
C396 C395 1.383 . S
C396 C397 1.377 . S
C397 H381 0.930 . S
C397 C396 1.377 . S
C397 C398 1.379 . S
C398 H382 0.931 . S
C398 C392 1.383 . S
C398 C397 1.379 . S
H399 C393 0.959 . S
H400 C393 0.961 . S
H401 C393 0.960 . S
H402 C394 0.930 . S
H403 C395 0.929 . S
H404 C412 0.929 . S
H405 C414 0.930 . S
H406 C416 0.930 . S
H407 C419 0.929 . S
H408 C422 0.930 . S
H409 C424 0.960 . S
H410 C424 0.960 . S
H411 C424 0.960 . S
C412 H404 0.929 . S
C412 C413 1.377 . S
C412 C414 1.384 . S
C413 C412 1.377 . S
C413 C419 1.390 . S
C414 H405 0.930 . S
C414 C412 1.384 . S
C414 C415 1.372 . S
C415 C414 1.372 . S
C415 C416 1.400 . S
C415 C420 1.490 . S
C416 H406 0.930 . S
C416 C415 1.400 . S
C416 C419 1.386 . S
H417 C433 0.930 . S
H418 C434 0.931 . S
C419 H407 0.929 . S
C419 C413 1.390 . S
C419 C416 1.386 . S
C420 C415 1.490 . S
C420 C422 1.395 . S
C420 C423 1.403 . S
H421 C427 0.930 . S
C422 H408 0.930 . S
C422 C420 1.395 . S
C422 C425 1.403 . S
C423 C420 1.403 . S
C423 C424 1.524 . S
C423 C427 1.400 . S
C424 H409 0.960 . S
C424 H410 0.960 . S
C424 H411 0.960 . S
C424 C423 1.524 . S
C425 C422 1.403 . S
C425 C426 1.392 . S
C425 C429 1.495 . S
C426 C425 1.392 . S
C426 C427 1.385 . S
C426 C428 1.478 . S
C427 H421 0.930 . S
C427 C423 1.400 . S
C427 C426 1.385 . S
C428 C426 1.478 . S
C428 C430 1.381 . S
C428 C434 1.383 . S
C429 C425 1.495 . S
C429 H435 0.959 . S
C429 H436 0.961 . S
C429 H437 0.960 . S
C430 C428 1.381 . S
C430 C431 1.394 . S
C430 H438 0.930 . S
C431 C430 1.394 . S
C431 C432 1.383 . S
C431 H439 0.929 . S
C432 C431 1.383 . S
C432 C433 1.377 . S
C433 H417 0.930 . S
C433 C432 1.377 . S
C433 C434 1.379 . S
C434 H418 0.931 . S
C434 C428 1.383 . S
C434 C433 1.379 . S
H435 C429 0.959 . S
H436 C429 0.961 . S
H437 C429 0.960 . S
H438 C430 0.930 . S
H439 C431 0.929 . S
H440 C448 0.929 . S
H441 C450 0.930 . S
H442 C452 0.930 . S
H443 C455 0.929 . S
H444 C458 0.930 . S
H445 C460 0.960 . S
H446 C460 0.960 . S
H447 C460 0.960 . S
C448 H440 0.929 . S
C448 C449 1.377 . S
C448 C450 1.384 . S
C449 C448 1.377 . S
C449 C455 1.390 . S
C450 H441 0.930 . S
C450 C448 1.384 . S
C450 C451 1.372 . S
C451 C450 1.372 . S
C451 C452 1.400 . S
C451 C456 1.490 . S
C452 H442 0.930 . S
C452 C451 1.400 . S
C452 C455 1.386 . S
H453 C469 0.930 . S
H454 C470 0.931 . S
C455 H443 0.929 . S
C455 C449 1.390 . S
C455 C452 1.386 . S
C456 C451 1.490 . S
C456 C458 1.395 . S
C456 C459 1.403 . S
H457 C463 0.930 . S
C458 H444 0.930 . S
C458 C456 1.395 . S
C458 C461 1.403 . S
C459 C456 1.403 . S
C459 C460 1.524 . S
C459 C463 1.400 . S
C460 H445 0.960 . S
C460 H446 0.960 . S
C460 H447 0.960 . S
C460 C459 1.524 . S
C461 C458 1.403 . S
C461 C462 1.392 . S
C461 C465 1.495 . S
C462 C461 1.392 . S
C462 C463 1.385 . S
C462 C464 1.478 . S
C463 H457 0.930 . S
C463 C459 1.400 . S
C463 C462 1.385 . S
C464 C462 1.478 . S
C464 C466 1.381 . S
C464 C470 1.383 . S
C465 C461 1.495 . S
C465 H471 0.959 . S
C465 H472 0.961 . S
C465 H473 0.960 . S
C466 C464 1.381 . S
C466 C467 1.394 . S
C466 H474 0.930 . S
C467 C466 1.394 . S
C467 C468 1.383 . S
C467 H475 0.929 . S
C468 C467 1.383 . S
C468 C469 1.377 . S
C469 H453 0.930 . S
C469 C468 1.377 . S
C469 C470 1.379 . S
C470 H454 0.931 . S
C470 C464 1.383 . S
C470 C469 1.379 . S
H471 C465 0.959 . S
H472 C465 0.961 . S
H473 C465 0.960 . S
H474 C466 0.930 . S
H475 C467 0.929 . S
H476 C484 0.929 . S
H477 C486 0.930 . S
H478 C488 0.930 . S
H479 C491 0.929 . S
H480 C494 0.930 . S
H481 C496 0.960 . S
H482 C496 0.960 . S
H483 C496 0.960 . S
C484 H476 0.929 . S
C484 C485 1.377 . S
C484 C486 1.384 . S
C485 C484 1.377 . S
C485 C491 1.390 . S
C486 H477 0.930 . S
C486 C484 1.384 . S
C486 C487 1.372 . S
C487 C486 1.372 . S
C487 C488 1.400 . S
C487 C492 1.490 . S
C488 H478 0.930 . S
C488 C487 1.400 . S
C488 C491 1.386 . S
H489 C505 0.930 . S
H490 C506 0.931 . S
C491 H479 0.929 . S
C491 C485 1.390 . S
C491 C488 1.386 . S
C492 C487 1.490 . S
C492 C494 1.395 . S
C492 C495 1.403 . S
H493 C499 0.930 . S
C494 H480 0.930 . S
C494 C492 1.395 . S
C494 C497 1.403 . S
C495 C492 1.403 . S
C495 C496 1.524 . S
C495 C499 1.400 . S
C496 H481 0.960 . S
C496 H482 0.960 . S
C496 H483 0.960 . S
C496 C495 1.524 . S
C497 C494 1.403 . S
C497 C498 1.392 . S
C497 C501 1.495 . S
C498 C497 1.392 . S
C498 C499 1.385 . S
C498 C500 1.478 . S
C499 H493 0.930 . S
C499 C495 1.400 . S
C499 C498 1.385 . S
C500 C498 1.478 . S
C500 C502 1.381 . S
C500 C506 1.383 . S
C501 C497 1.495 . S
C501 H507 0.959 . S
C501 H508 0.961 . S
C501 H509 0.960 . S
C502 C500 1.381 . S
C502 C503 1.394 . S
C502 H510 0.930 . S
C503 C502 1.394 . S
C503 C504 1.383 . S
C503 H511 0.929 . S
C504 C503 1.383 . S
C504 C505 1.377 . S
C505 H489 0.930 . S
C505 C504 1.377 . S
C505 C506 1.379 . S
C506 H490 0.931 . S
C506 C500 1.383 . S
C506 C505 1.379 . S
H507 C501 0.959 . S
H508 C501 0.961 . S
H509 C501 0.960 . S
H510 C502 0.930 . S
H511 C503 0.929 . S
H512 C520 0.929 . S
H513 C522 0.930 . S
H514 C524 0.930 . S
H515 C527 0.929 . S
H516 C530 0.930 . S
H517 C532 0.960 . S
H518 C532 0.960 . S
H519 C532 0.960 . S
C520 H512 0.929 . S
C520 C521 1.377 . S
C520 C522 1.384 . S
C521 C520 1.377 . S
C521 C527 1.390 . S
C522 H513 0.930 . S
C522 C520 1.384 . S
C522 C523 1.372 . S
C523 C522 1.372 . S
C523 C524 1.400 . S
C523 C528 1.490 . S
C524 H514 0.930 . S
C524 C523 1.400 . S
C524 C527 1.386 . S
H525 C541 0.930 . S
H526 C542 0.931 . S
C527 H515 0.929 . S
C527 C521 1.390 . S
C527 C524 1.386 . S
C528 C523 1.490 . S
C528 C530 1.395 . S
C528 C531 1.403 . S
H529 C535 0.930 . S
C530 H516 0.930 . S
C530 C528 1.395 . S
C530 C533 1.403 . S
C531 C528 1.403 . S
C531 C532 1.524 . S
C531 C535 1.400 . S
C532 H517 0.960 . S
C532 H518 0.960 . S
C532 H519 0.960 . S
C532 C531 1.524 . S
C533 C530 1.403 . S
C533 C534 1.392 . S
C533 C537 1.495 . S
C534 C533 1.392 . S
C534 C535 1.385 . S
C534 C536 1.478 . S
C535 H529 0.930 . S
C535 C531 1.400 . S
C535 C534 1.385 . S
C536 C534 1.478 . S
C536 C538 1.381 . S
C536 C542 1.383 . S
C537 C533 1.495 . S
C537 H543 0.959 . S
C537 H544 0.961 . S
C537 H545 0.960 . S
C538 C536 1.381 . S
C538 C539 1.394 . S
C538 H546 0.930 . S
C539 C538 1.394 . S
C539 C540 1.383 . S
C539 H547 0.929 . S
C540 C539 1.383 . S
C540 C541 1.377 . S
C541 H525 0.930 . S
C541 C540 1.377 . S
C541 C542 1.379 . S
C542 H526 0.931 . S
C542 C536 1.383 . S
C542 C541 1.379 . S
H543 C537 0.959 . S
H544 C537 0.961 . S
H545 C537 0.960 . S
H546 C538 0.930 . S
H547 C539 0.929 . S
H548 C556 0.929 . S
H549 C558 0.930 . S
H550 C560 0.930 . S
H551 C563 0.929 . S
H552 C566 0.930 . S
H553 C568 0.960 . S
H554 C568 0.960 . S
H555 C568 0.960 . S
C556 H548 0.929 . S
C556 C557 1.377 . S
C556 C558 1.384 . S
C557 C556 1.377 . S
C557 C563 1.390 . S
C558 H549 0.930 . S
C558 C556 1.384 . S
C558 C559 1.372 . S
C559 C558 1.372 . S
C559 C560 1.400 . S
C559 C564 1.490 . S
C560 H550 0.930 . S
C560 C559 1.400 . S
C560 C563 1.386 . S
H561 C577 0.930 . S
H562 C578 0.931 . S
C563 H551 0.929 . S
C563 C557 1.390 . S
C563 C560 1.386 . S
C564 C559 1.490 . S
C564 C566 1.395 . S
C564 C567 1.403 . S
H565 C571 0.930 . S
C566 H552 0.930 . S
C566 C564 1.395 . S
C566 C569 1.403 . S
C567 C564 1.403 . S
C567 C568 1.524 . S
C567 C571 1.400 . S
C568 H553 0.960 . S
C568 H554 0.960 . S
C568 H555 0.960 . S
C568 C567 1.524 . S
C569 C566 1.403 . S
C569 C570 1.392 . S
C569 C573 1.495 . S
C570 C569 1.392 . S
C570 C571 1.385 . S
C570 C572 1.478 . S
C571 H565 0.930 . S
C571 C567 1.400 . S
C571 C570 1.385 . S
C572 C570 1.478 . S
C572 C574 1.381 . S
C572 C578 1.383 . S
C573 C569 1.495 . S
C573 H579 0.959 . S
C573 H580 0.961 . S
C573 H581 0.960 . S
C574 C572 1.381 . S
C574 C575 1.394 . S
C574 H582 0.930 . S
C575 C574 1.394 . S
C575 C576 1.383 . S
C575 H583 0.929 . S
C576 C575 1.383 . S
C576 C577 1.377 . S
C577 H561 0.930 . S
C577 C576 1.377 . S
C577 C578 1.379 . S
C578 H562 0.931 . S
C578 C572 1.383 . S
C578 C577 1.379 . S
H579 C573 0.959 . S
H580 C573 0.961 . S
H581 C573 0.960 . S
H582 C574 0.930 . S
H583 C575 0.929 . S
H584 C592 0.929 . S
H585 C594 0.930 . S
H586 C596 0.930 . S
H587 C599 0.929 . S
H588 C602 0.930 . S
H589 C604 0.960 . S
H590 C604 0.960 . S
H591 C604 0.960 . S
C592 H584 0.929 . S
C592 C593 1.377 . S
C592 C594 1.384 . S
C593 C592 1.377 . S
C593 C599 1.390 . S
C594 H585 0.930 . S
C594 C592 1.384 . S
C594 C595 1.372 . S
C595 C594 1.372 . S
C595 C596 1.400 . S
C595 C600 1.490 . S
C596 H586 0.930 . S
C596 C595 1.400 . S
C596 C599 1.386 . S
H597 C613 0.930 . S
H598 C614 0.931 . S
C599 H587 0.929 . S
C599 C593 1.390 . S
C599 C596 1.386 . S
C600 C595 1.490 . S
C600 C602 1.395 . S
C600 C603 1.403 . S
H601 C607 0.930 . S
C602 H588 0.930 . S
C602 C600 1.395 . S
C602 C605 1.403 . S
C603 C600 1.403 . S
C603 C604 1.524 . S
C603 C607 1.400 . S
C604 H589 0.960 . S
C604 H590 0.960 . S
C604 H591 0.960 . S
C604 C603 1.524 . S
C605 C602 1.403 . S
C605 C606 1.392 . S
C605 C609 1.495 . S
C606 C605 1.392 . S
C606 C607 1.385 . S
C606 C608 1.478 . S
C607 H601 0.930 . S
C607 C603 1.400 . S
C607 C606 1.385 . S
C608 C606 1.478 . S
C608 C610 1.381 . S
C608 C614 1.383 . S
C609 C605 1.495 . S
C609 H615 0.959 . S
C609 H616 0.961 . S
C609 H617 0.960 . S
C610 C608 1.381 . S
C610 C611 1.394 . S
C610 H618 0.930 . S
C611 C610 1.394 . S
C611 C612 1.383 . S
C611 H619 0.929 . S
C612 C611 1.383 . S
C612 C613 1.377 . S
C613 H597 0.930 . S
C613 C612 1.377 . S
C613 C614 1.379 . S
C614 H598 0.931 . S
C614 C608 1.383 . S
C614 C613 1.379 . S
H615 C609 0.959 . S
H616 C609 0.961 . S
H617 C609 0.960 . S
H618 C610 0.930 . S
H619 C611 0.929 . S
H620 C628 0.929 . S
H621 C630 0.930 . S
H622 C632 0.930 . S
H623 C635 0.929 . S
H624 C638 0.930 . S
H625 C640 0.960 . S
H626 C640 0.960 . S
H627 C640 0.960 . S
C628 H620 0.929 . S
C628 C629 1.377 . S
C628 C630 1.384 . S
C629 C628 1.377 . S
C629 C635 1.390 . S
C630 H621 0.930 . S
C630 C628 1.384 . S
C630 C631 1.372 . S
C631 C630 1.372 . S
C631 C632 1.400 . S
C631 C636 1.490 . S
C632 H622 0.930 . S
C632 C631 1.400 . S
C632 C635 1.386 . S
H633 C649 0.930 . S
H634 C650 0.931 . S
C635 H623 0.929 . S
C635 C629 1.390 . S
C635 C632 1.386 . S
C636 C631 1.490 . S
C636 C638 1.395 . S
C636 C639 1.403 . S
H637 C643 0.930 . S
C638 H624 0.930 . S
C638 C636 1.395 . S
C638 C641 1.403 . S
C639 C636 1.403 . S
C639 C640 1.524 . S
C639 C643 1.400 . S
C640 H625 0.960 . S
C640 H626 0.960 . S
C640 H627 0.960 . S
C640 C639 1.524 . S
C641 C638 1.403 . S
C641 C642 1.392 . S
C641 C645 1.495 . S
C642 C641 1.392 . S
C642 C643 1.385 . S
C642 C644 1.478 . S
C643 H637 0.930 . S
C643 C639 1.400 . S
C643 C642 1.385 . S
C644 C642 1.478 . S
C644 C646 1.381 . S
C644 C650 1.383 . S
C645 C641 1.495 . S
C645 H651 0.959 . S
C645 H652 0.961 . S
C645 H653 0.960 . S
C646 C644 1.381 . S
C646 C647 1.394 . S
C646 H654 0.930 . S
C647 C646 1.394 . S
C647 C648 1.383 . S
C647 H655 0.929 . S
C648 C647 1.383 . S
C648 C649 1.377 . S
C649 H633 0.930 . S
C649 C648 1.377 . S
C649 C650 1.379 . S
C650 H634 0.931 . S
C650 C644 1.383 . S
C650 C649 1.379 . S
H651 C645 0.959 . S
H652 C645 0.961 . S
H653 C645 0.960 . S
H654 C646 0.930 . S
H655 C647 0.929 . S
H656 C664 0.929 1_545 S
H657 C666 0.930 . S
H658 C668 0.930 . S
H659 C671 0.929 . S
H660 C674 0.930 . S
H661 C676 0.960 . S
H662 C676 0.960 . S
H663 C676 0.960 . S
C664 H656 0.929 1_565 S
C664 C665 1.377 . S
C664 C666 1.384 . S
C665 C664 1.377 . S
C665 C671 1.390 . S
C666 H657 0.930 . S
C666 C664 1.384 . S
C666 C667 1.372 . S
C667 C666 1.372 . S
C667 C668 1.400 . S
C667 C672 1.490 . S
C668 H658 0.930 . S
C668 C667 1.400 . S
C668 C671 1.386 . S
H669 C685 0.930 . S
H670 C686 0.931 . S
C671 H659 0.929 . S
C671 C665 1.390 . S
C671 C668 1.386 . S
C672 C667 1.490 . S
C672 C674 1.395 1_554 S
C672 C675 1.403 . S
H673 C679 0.930 . S
C674 H660 0.930 . S
C674 C672 1.395 1_556 S
C674 C677 1.403 . S
C675 C672 1.403 . S
C675 C676 1.524 . S
C675 C679 1.400 . S
C676 H661 0.960 . S
C676 H662 0.960 . S
C676 H663 0.960 . S
C676 C675 1.524 . S
C677 C674 1.403 . S
C677 C678 1.392 1_556 S
C677 C681 1.495 . S
C678 C677 1.392 1_554 S
C678 C679 1.385 . S
C678 C680 1.478 . S
C679 H673 0.930 . S
C679 C675 1.400 . S
C679 C678 1.385 . S
C680 C678 1.478 . S
C680 C682 1.381 . S
C680 C686 1.383 1_554 S
C681 C677 1.495 . S
C681 H687 0.959 . S
C681 H688 0.961 . S
C681 H689 0.960 . S
C682 C680 1.381 . S
C682 C683 1.396 . S
C682 H690 0.930 . S
C683 C682 1.396 . S
C683 C684 1.380 1_554 S
C683 H691 0.931 . S
C684 C683 1.380 1_556 S
C684 C685 1.377 . S
C685 H669 0.930 . S
C685 C684 1.377 . S
C685 C686 1.379 . S
C686 H670 0.931 . S
C686 C680 1.383 1_556 S
C686 C685 1.379 . S
H687 C681 0.959 . S
H688 C681 0.961 . S
H689 C681 0.960 . S
H690 C682 0.930 . S
H691 C683 0.931 . S
H692 C700 0.929 . S
H693 C702 0.930 . S
H694 C704 0.930 . S
H695 C707 0.929 . S
H696 C710 0.930 . S
H697 C712 0.960 . S
H698 C712 0.960 . S
H699 C712 0.960 . S
C700 H692 0.929 . S
C700 C701 1.377 1_556 S
C700 C702 1.384 . S
C701 C700 1.377 1_554 S
C701 C707 1.390 . S
C702 H693 0.930 . S
C702 C700 1.384 . S
C702 C703 1.372 . S
C703 C702 1.372 . S
C703 C704 1.400 1_556 S
C703 C708 1.490 . S
C704 H694 0.930 . S
C704 C703 1.400 1_554 S
C704 C707 1.386 . S
H705 C721 0.930 1_455 S
H706 C722 0.931 . S
C707 H695 0.929 . S
C707 C701 1.390 . S
C707 C704 1.386 . S
C708 C703 1.490 . S
C708 C710 1.395 . S
C708 C711 1.403 1_556 S
H709 C715 0.931 . S
C710 H696 0.930 . S
C710 C708 1.395 . S
C710 C713 1.403 . S
C711 C708 1.403 1_554 S
C711 C712 1.524 . S
C711 C715 1.400 . S
C712 H697 0.960 . S
C712 H698 0.960 . S
C712 H699 0.960 . S
C712 C711 1.524 . S
C713 C710 1.403 . S
C713 C714 1.392 . S
C713 C717 1.495 . S
C714 C713 1.392 . S
C714 C715 1.385 1_556 S
C714 C716 1.478 . S
C715 H709 0.931 . S
C715 C711 1.400 . S
C715 C714 1.385 1_554 S
C716 C714 1.478 . S
C716 C718 1.381 . S
C716 C722 1.383 . S
C717 C713 1.495 . S
C717 H723 0.959 . S
C717 H724 0.961 . S
C717 H725 0.960 . S
C718 C716 1.381 . S
C718 C719 1.394 . S
C718 H726 0.930 . S
C719 C718 1.394 . S
C719 C720 1.383 . S
C719 H727 0.929 . S
C720 C719 1.383 . S
C720 C721 1.377 . S
C721 H705 0.930 1_655 S
C721 C720 1.377 . S
C721 C722 1.379 . S
C722 H706 0.931 . S
C722 C716 1.383 . S
C722 C721 1.379 . S
H723 C717 0.959 . S
H724 C717 0.961 . S
H725 C717 0.960 . S
H726 C718 0.930 . S
H727 C719 0.929 . S
H728 C736 0.929 . S
H729 C738 0.930 . S
H730 C740 0.930 . S
H731 C743 0.929 . S
H732 C746 0.930 . S
H733 C748 0.960 . S
H734 C748 0.960 . S
H735 C748 0.960 1_554 S
C736 H728 0.929 . S
C736 C737 1.377 . S
C736 C738 1.384 . S
C737 C736 1.377 . S
C737 C743 1.390 1_556 S
C738 H729 0.930 . S
C738 C736 1.384 . S
C738 C739 1.372 1_556 S
C739 C738 1.372 1_554 S
C739 C740 1.400 . S
C739 C744 1.490 . S
C740 H730 0.930 . S
C740 C739 1.400 . S
C740 C743 1.386 . S
H741 C757 0.930 . S
H742 C758 0.931 . S
C743 H731 0.929 . S
C743 C737 1.390 1_554 S
C743 C740 1.386 . S
C744 C739 1.490 . S
C744 C746 1.395 . S
C744 C747 1.403 . S
H745 C751 0.930 . S
C746 H732 0.930 . S
C746 C744 1.395 . S
C746 C749 1.403 . S
C747 C744 1.403 . S
C747 C748 1.524 1_554 S
C747 C751 1.400 . S
C748 H733 0.960 . S
C748 H734 0.960 . S
C748 H735 0.960 1_556 S
C748 C747 1.524 1_556 S
C749 C746 1.403 . S
C749 C750 1.392 . S
C749 C753 1.495 . S
C750 C749 1.392 . S
C750 C751 1.385 . S
C750 C752 1.478 . S
C751 H745 0.930 . S
C751 C747 1.400 . S
C751 C750 1.385 . S
C752 C750 1.478 . S
C752 C754 1.381 . S
C752 C758 1.383 . S
C753 C749 1.495 . S
C753 H759 0.959 . S
C753 H760 0.961 . S
C753 H761 0.960 . S
C754 C752 1.381 . S
C754 C755 1.394 . S
C754 H762 0.930 1_554 S
C755 C754 1.394 . S
C755 C756 1.383 . S
C755 H763 0.929 1_545 S
C756 C755 1.383 . S
C756 C757 1.377 . S
C757 H741 0.930 . S
C757 C756 1.377 . S
C757 C758 1.379 . S
C758 H742 0.931 . S
C758 C752 1.383 . S
C758 C757 1.379 . S
H759 C753 0.959 . S
H760 C753 0.961 . S
H761 C753 0.960 . S
H762 C754 0.930 1_556 S
H763 C755 0.929 1_565 S
H764 C772 0.929 1_554 S
H765 C774 0.930 1_554 S
H766 C776 0.930 . S
H767 C779 0.929 . S
H768 C782 0.930 . S
H769 C784 0.960 . S
H770 C784 0.960 . S
H771 C784 0.960 . S
C772 H764 0.929 1_556 S
C772 C773 1.377 . S
C772 C774 1.384 . S
C773 C772 1.377 . S
C773 C779 1.390 . S
C774 H765 0.930 1_556 S
C774 C772 1.384 . S
C774 C775 1.372 . S
C775 C774 1.372 . S
C775 C776 1.400 . S
C775 C780 1.490 . S
C776 H766 0.930 . S
C776 C775 1.400 . S
C776 C779 1.386 . S
H777 C793 0.930 . S
H778 C794 0.931 . S
C779 H767 0.929 . S
C779 C773 1.390 . S
C779 C776 1.386 . S
C780 C775 1.490 . S
C780 C782 1.395 1_556 S
C780 C783 1.403 . S
H781 C787 0.930 . S
C782 H768 0.930 . S
C782 C780 1.395 1_554 S
C782 C785 1.403 . S
C783 C780 1.403 . S
C783 C784 1.524 . S
C783 C787 1.400 . S
C784 H769 0.960 . S
C784 H770 0.960 . S
C784 H771 0.960 . S
C784 C783 1.524 . S
C785 C782 1.403 . S
C785 C786 1.392 1_554 S
C785 C789 1.495 . S
C786 C785 1.392 1_556 S
C786 C787 1.385 . S
C786 C788 1.478 . S
C787 H781 0.930 . S
C787 C783 1.400 . S
C787 C786 1.385 . S
C788 C786 1.478 . S
C788 C790 1.381 1_556 S
C788 C794 1.383 . S
C789 C785 1.495 . S
C789 H795 0.959 . S
C789 H796 0.961 . S
C789 H797 0.960 . S
C790 C788 1.381 1_554 S
C790 C791 1.394 . S
C790 H798 0.930 . S
C791 C790 1.394 . S
C791 C792 1.383 . S
C791 H799 0.929 . S
C792 C791 1.383 . S
C792 C793 1.377 1_554 S
C793 H777 0.930 . S
C793 C792 1.377 1_556 S
C793 C794 1.379 . S
C794 H778 0.931 . S
C794 C788 1.383 . S
C794 C793 1.379 . S
H795 C789 0.959 . S
H796 C789 0.961 . S
H797 C789 0.960 . S
H798 C790 0.930 . S
H799 C791 0.929 . S
H800 C808 0.929 . S
H801 C810 0.930 . S
H802 C812 0.930 . S
H803 C815 0.929 1_545 S
H804 C818 0.930 . S
H805 C820 0.960 . S
H806 C820 0.960 . S
H807 C820 0.960 . S
C808 H800 0.929 . S
C808 C809 1.377 . S
C808 C810 1.384 . S
C809 C808 1.377 . S
C809 C815 1.390 . S
C810 H801 0.930 . S
C810 C808 1.384 . S
C810 C811 1.372 . S
C811 C810 1.372 . S
C811 C812 1.400 . S
C811 C816 1.490 . S
C812 H802 0.930 . S
C812 C811 1.400 . S
C812 C815 1.386 . S
H813 C829 0.930 . S
H814 C830 0.931 . S
C815 H803 0.929 1_565 S
C815 C809 1.390 . S
C815 C812 1.386 . S
C816 C811 1.490 . S
C816 C818 1.395 . S
C816 C819 1.403 . S
H817 C823 0.930 . S
C818 H804 0.930 . S
C818 C816 1.395 . S
C818 C821 1.403 . S
C819 C816 1.403 . S
C819 C820 1.524 . S
C819 C823 1.400 . S
C820 H805 0.960 . S
C820 H806 0.960 . S
C820 H807 0.960 . S
C820 C819 1.524 . S
C821 C818 1.403 . S
C821 C822 1.392 . S
C821 C825 1.495 . S
C822 C821 1.392 . S
C822 C823 1.385 . S
C822 C824 1.478 . S
C823 H817 0.930 . S
C823 C819 1.400 . S
C823 C822 1.385 . S
C824 C822 1.478 . S
C824 C826 1.381 . S
C824 C830 1.383 . S
C825 C821 1.495 . S
C825 H831 0.959 . S
C825 H832 0.961 . S
C825 H833 0.960 . S
C826 C824 1.381 . S
C826 C827 1.394 . S
C826 H834 0.930 . S
C827 C826 1.394 . S
C827 C828 1.383 . S
C827 H835 0.929 . S
C828 C827 1.383 . S
C828 C829 1.377 . S
C829 H813 0.930 . S
C829 C828 1.377 . S
C829 C830 1.379 . S
C830 H814 0.931 . S
C830 C824 1.383 . S
C830 C829 1.379 . S
H831 C825 0.959 . S
H832 C825 0.961 . S
H833 C825 0.960 . S
H834 C826 0.930 . S
H835 C827 0.929 . S
H836 C844 0.929 . S
H837 C846 0.930 . S
H838 C848 0.930 . S
H839 C851 0.929 . S
H840 C854 0.930 . S
H841 C856 0.960 . S
H842 C856 0.960 . S
H843 C856 0.960 . S
C844 H836 0.929 . S
C844 C845 1.377 . S
C844 C846 1.384 . S
C845 C844 1.377 . S
C845 C851 1.390 . S
C846 H837 0.930 . S
C846 C844 1.384 . S
C846 C847 1.372 . S
C847 C846 1.372 . S
C847 C848 1.400 . S
C847 C852 1.490 . S
C848 H838 0.930 . S
C848 C847 1.400 . S
C848 C851 1.386 . S
H849 C865 0.930 1_455 S
H850 C866 0.931 . S
C851 H839 0.929 . S
C851 C845 1.390 . S
C851 C848 1.386 . S
C852 C847 1.490 . S
C852 C854 1.395 . S
C852 C855 1.403 . S
H853 C859 0.930 . S
C854 H840 0.930 . S
C854 C852 1.395 . S
C854 C857 1.403 . S
C855 C852 1.403 . S
C855 C856 1.524 . S
C855 C859 1.400 . S
C856 H841 0.960 . S
C856 H842 0.960 . S
C856 H843 0.960 . S
C856 C855 1.524 . S
C857 C854 1.403 . S
C857 C858 1.392 . S
C857 C861 1.495 . S
C858 C857 1.392 . S
C858 C859 1.385 . S
C858 C860 1.478 . S
C859 H853 0.930 . S
C859 C855 1.400 . S
C859 C858 1.385 . S
C860 C858 1.478 . S
C860 C862 1.381 . S
C860 C866 1.383 . S
C861 C857 1.495 . S
C861 H867 0.959 . S
C861 H868 0.961 . S
C861 H869 0.960 . S
C862 C860 1.381 . S
C862 C863 1.394 . S
C862 H870 0.930 . S
C863 C862 1.394 . S
C863 C864 1.383 . S
C863 H871 0.929 . S
C864 C863 1.383 . S
C864 C865 1.377 . S
C865 H849 0.930 1_655 S
C865 C864 1.377 . S
C865 C866 1.379 . S
C866 H850 0.931 . S
C866 C860 1.383 . S
C866 C865 1.379 . S
H867 C861 0.959 . S
H868 C861 0.961 . S
H869 C861 0.960 . S
H870 C862 0.930 . S
H871 C863 0.929 . S
H872 C880 0.929 . S
H873 C882 0.930 . S
H874 C884 0.930 . S
H875 C887 0.929 . S
H876 C890 0.930 . S
H877 C892 0.960 . S
H878 C892 0.960 . S
H879 C892 0.960 . S
C880 H872 0.929 . S
C880 C881 1.377 . S
C880 C882 1.384 . S
C881 C880 1.377 . S
C881 C887 1.390 . S
C882 H873 0.930 . S
C882 C880 1.384 . S
C882 C883 1.372 . S
C883 C882 1.372 . S
C883 C884 1.400 . S
C883 C888 1.490 . S
C884 H874 0.930 . S
C884 C883 1.400 . S
C884 C887 1.386 . S
H885 C901 0.930 . S
H886 C902 0.931 . S
C887 H875 0.929 . S
C887 C881 1.390 . S
C887 C884 1.386 . S
C888 C883 1.490 . S
C888 C890 1.395 . S
C888 C891 1.403 . S
H889 C895 0.930 . S
C890 H876 0.930 . S
C890 C888 1.395 . S
C890 C893 1.403 . S
C891 C888 1.403 . S
C891 C892 1.524 . S
C891 C895 1.400 . S
C892 H877 0.960 . S
C892 H878 0.960 . S
C892 H879 0.960 . S
C892 C891 1.524 . S
C893 C890 1.403 . S
C893 C894 1.392 . S
C893 C897 1.495 . S
C894 C893 1.392 . S
C894 C895 1.385 . S
C894 C896 1.478 . S
C895 H889 0.930 . S
C895 C891 1.400 . S
C895 C894 1.385 . S
C896 C894 1.478 . S
C896 C898 1.381 . S
C896 C902 1.383 . S
C897 C893 1.495 . S
C897 H903 0.959 . S
C897 H904 0.961 . S
C897 H905 0.960 . S
C898 C896 1.381 . S
C898 C899 1.394 . S
C898 H906 0.930 . S
C899 C898 1.394 . S
C899 C900 1.383 . S
C899 H907 0.929 1_545 S
C900 C899 1.383 . S
C900 C901 1.377 . S
C901 H885 0.930 . S
C901 C900 1.377 . S
C901 C902 1.379 . S
C902 H886 0.931 . S
C902 C896 1.383 . S
C902 C901 1.379 . S
H903 C897 0.959 . S
H904 C897 0.961 . S
H905 C897 0.960 . S
H906 C898 0.930 . S
H907 C899 0.929 1_565 S
H908 C916 0.929 . S
H909 C918 0.930 . S
H910 C920 0.930 . S
H911 C923 0.929 . S
H912 C926 0.930 . S
H913 C928 0.960 . S
H914 C928 0.960 . S
H915 C928 0.960 . S
C916 H908 0.929 . S
C916 C917 1.377 . S
C916 C918 1.384 . S
C917 C916 1.377 . S
C917 C923 1.390 . S
C918 H909 0.930 . S
C918 C916 1.384 . S
C918 C919 1.372 . S
C919 C918 1.372 . S
C919 C920 1.400 . S
C919 C924 1.490 . S
C920 H910 0.930 . S
C920 C919 1.400 . S
C920 C923 1.386 . S
H921 C937 0.930 . S
H922 C938 0.931 . S
C923 H911 0.929 . S
C923 C917 1.390 . S
C923 C920 1.386 . S
C924 C919 1.490 . S
C924 C926 1.395 . S
C924 C927 1.403 . S
H925 C931 0.930 . S
C926 H912 0.930 . S
C926 C924 1.395 . S
C926 C929 1.403 . S
C927 C924 1.403 . S
C927 C928 1.524 . S
C927 C931 1.400 . S
C928 H913 0.960 . S
C928 H914 0.960 . S
C928 H915 0.960 . S
C928 C927 1.524 . S
C929 C926 1.403 . S
C929 C930 1.392 . S
C929 C933 1.495 . S
C930 C929 1.392 . S
C930 C931 1.385 . S
C930 C932 1.478 . S
C931 H925 0.930 . S
C931 C927 1.400 . S
C931 C930 1.385 . S
C932 C930 1.478 . S
C932 C934 1.381 . S
C932 C938 1.383 . S
C933 C929 1.495 . S
C933 H939 0.959 . S
C933 H940 0.961 . S
C933 H941 0.960 . S
C934 C932 1.381 . S
C934 C935 1.394 . S
C934 H942 0.930 . S
C935 C934 1.394 . S
C935 C936 1.383 . S
C935 H943 0.929 . S
C936 C935 1.383 . S
C936 C937 1.377 . S
C937 H921 0.930 . S
C937 C936 1.377 . S
C937 C938 1.379 . S
C938 H922 0.931 . S
C938 C932 1.383 . S
C938 C937 1.379 . S
H939 C933 0.959 . S
H940 C933 0.961 . S
H941 C933 0.960 . S
H942 C934 0.930 . S
H943 C935 0.929 . S
H944 C952 0.929 . S
H945 C954 0.930 . S
H946 C956 0.930 . S
H947 C959 0.929 . S
H948 C962 0.930 . S
H949 C964 0.960 . S
H950 C964 0.960 . S
H951 C964 0.960 . S
C952 H944 0.929 . S
C952 C953 1.377 . S
C952 C954 1.384 . S
C953 C952 1.377 . S
C953 C959 1.390 . S
C954 H945 0.930 . S
C954 C952 1.384 . S
C954 C955 1.372 . S
C955 C954 1.372 . S
C955 C956 1.400 . S
C955 C960 1.490 . S
C956 H946 0.930 . S
C956 C955 1.400 . S
C956 C959 1.386 . S
H957 C973 0.930 . S
H958 C974 0.931 . S
C959 H947 0.929 . S
C959 C953 1.390 . S
C959 C956 1.386 . S
C960 C955 1.490 . S
C960 C962 1.395 . S
C960 C963 1.403 . S
H961 C967 0.930 . S
C962 H948 0.930 . S
C962 C960 1.395 . S
C962 C965 1.403 . S
C963 C960 1.403 . S
C963 C964 1.524 . S
C963 C967 1.400 . S
C964 H949 0.960 . S
C964 H950 0.960 . S
C964 H951 0.960 . S
C964 C963 1.524 . S
C965 C962 1.403 . S
C965 C966 1.392 . S
C965 C969 1.495 . S
C966 C965 1.392 . S
C966 C967 1.385 . S
C966 C968 1.478 . S
C967 H961 0.930 . S
C967 C963 1.400 . S
C967 C966 1.385 . S
C968 C966 1.478 . S
C968 C970 1.381 . S
C968 C974 1.383 . S
C969 C965 1.495 . S
C969 H975 0.959 . S
C969 H976 0.961 . S
C969 H977 0.960 . S
C970 C968 1.381 . S
C970 C971 1.394 . S
C970 H978 0.930 . S
C971 C970 1.394 . S
C971 C972 1.383 . S
C971 H979 0.929 . S
C972 C971 1.383 . S
C972 C973 1.377 . S
C973 H957 0.930 . S
C973 C972 1.377 . S
C973 C974 1.379 . S
C974 H958 0.931 . S
C974 C968 1.383 . S
C974 C973 1.379 . S
H975 C969 0.959 . S
H976 C969 0.961 . S
H977 C969 0.960 . S
H978 C970 0.930 . S
H979 C971 0.929 . S
H980 C988 0.929 . S
H981 C990 0.930 . S
H982 C992 0.930 . S
H983 C995 0.929 . S
H984 C998 0.930 . S
H985 C1000 0.960 . S
H986 C1000 0.960 . S
H987 C1000 0.960 . S
C988 H980 0.929 . S
C988 C989 1.377 . S
C988 C990 1.384 . S
C989 C988 1.377 . S
C989 C995 1.390 . S
C990 H981 0.930 . S
C990 C988 1.384 . S
C990 C991 1.372 . S
C991 C990 1.372 . S
C991 C992 1.400 . S
C991 C996 1.490 . S
C992 H982 0.930 . S
C992 C991 1.400 . S
C992 C995 1.386 . S
H993 C1009 0.930 . S
H994 C1010 0.931 . S
C995 H983 0.929 . S
C995 C989 1.390 . S
C995 C992 1.386 . S
C996 C991 1.490 . S
C996 C998 1.395 . S
C996 C999 1.403 . S
H997 C1003 0.930 . S
C998 H984 0.930 . S
C998 C996 1.395 . S
C998 C1001 1.403 . S
C999 C996 1.403 . S
C999 C1000 1.524 . S
C999 C1003 1.400 . S
C1000 H985 0.960 . S
C1000 H986 0.960 . S
C1000 H987 0.960 . S
C1000 C999 1.524 . S
C1001 C998 1.403 . S
C1001 C1002 1.392 . S
C1001 C1005 1.495 . S
C1002 C1001 1.392 . S
C1002 C1003 1.385 . S
C1002 C1004 1.478 . S
C1003 H997 0.930 . S
C1003 C999 1.400 . S
C1003 C1002 1.385 . S
C1004 C1002 1.478 . S
C1004 C1006 1.381 . S
C1004 C1010 1.383 . S
C1005 C1001 1.495 . S
C1005 H1011 0.959 . S
C1005 H1012 0.961 . S
C1005 H1013 0.960 . S
C1006 C1004 1.381 . S
C1006 C1007 1.394 . S
C1006 H1014 0.930 . S
C1007 C1006 1.394 . S
C1007 C1008 1.383 . S
C1007 H1015 0.929 . S
C1008 C1007 1.383 . S
C1008 C1009 1.377 . S
C1009 H993 0.930 . S
C1009 C1008 1.377 . S
C1009 C1010 1.379 . S
C1010 H994 0.931 . S
C1010 C1004 1.383 . S
C1010 C1009 1.379 . S
H1011 C1005 0.959 . S
H1012 C1005 0.961 . S
H1013 C1005 0.960 . S
H1014 C1006 0.930 . S
H1015 C1007 0.929 . S
H1016 C1024 0.929 . S
H1017 C1026 0.930 . S
H1018 C1028 0.930 . S
H1019 C1031 0.929 . S
H1020 C1034 0.930 . S
H1021 C1036 0.960 . S
H1022 C1036 0.960 . S
H1023 C1036 0.960 . S
C1024 H1016 0.929 . S
C1024 C1025 1.377 . S
C1024 C1026 1.384 . S
C1025 C1024 1.377 . S
C1025 C1031 1.390 . S
C1026 H1017 0.930 . S
C1026 C1024 1.384 . S
C1026 C1027 1.372 . S
C1027 C1026 1.372 . S
C1027 C1028 1.400 . S
C1027 C1032 1.490 . S
C1028 H1018 0.930 . S
C1028 C1027 1.400 . S
C1028 C1031 1.386 . S
H1029 C1045 0.930 . S
H1030 C1046 0.931 . S
C1031 H1019 0.929 . S
C1031 C1025 1.390 . S
C1031 C1028 1.386 . S
C1032 C1027 1.490 . S
C1032 C1034 1.395 . S
C1032 C1035 1.403 . S
H1033 C1039 0.930 . S
C1034 H1020 0.930 . S
C1034 C1032 1.395 . S
C1034 C1037 1.403 . S
C1035 C1032 1.403 . S
C1035 C1036 1.524 . S
C1035 C1039 1.400 . S
C1036 H1021 0.960 . S
C1036 H1022 0.960 . S
C1036 H1023 0.960 . S
C1036 C1035 1.524 . S
C1037 C1034 1.403 . S
C1037 C1038 1.392 . S
C1037 C1041 1.495 . S
C1038 C1037 1.392 . S
C1038 C1039 1.385 . S
C1038 C1040 1.478 . S
C1039 H1033 0.930 . S
C1039 C1035 1.400 . S
C1039 C1038 1.385 . S
C1040 C1038 1.478 . S
C1040 C1042 1.381 . S
C1040 C1046 1.383 . S
C1041 C1037 1.495 . S
C1041 H1047 0.959 . S
C1041 H1048 0.961 . S
C1041 H1049 0.960 . S
C1042 C1040 1.381 . S
C1042 C1043 1.394 . S
C1042 H1050 0.930 . S
C1043 C1042 1.394 . S
C1043 C1044 1.383 . S
C1043 H1051 0.929 . S
C1044 C1043 1.383 . S
C1044 C1045 1.377 . S
C1045 H1029 0.930 . S
C1045 C1044 1.377 . S
C1045 C1046 1.379 . S
C1046 H1030 0.931 . S
C1046 C1040 1.383 . S
C1046 C1045 1.379 . S
H1047 C1041 0.959 . S
H1048 C1041 0.961 . S
H1049 C1041 0.960 . S
H1050 C1042 0.930 . S
H1051 C1043 0.929 . S
H1052 C1060 0.929 . S
H1053 C1062 0.930 . S
H1054 C1064 0.930 . S
H1055 C1067 0.929 . S
H1056 C1070 0.930 . S
H1057 C1072 0.960 . S
H1058 C1072 0.960 . S
H1059 C1072 0.960 . S
C1060 H1052 0.929 . S
C1060 C1061 1.377 . S
C1060 C1062 1.384 . S
C1061 C1060 1.377 . S
C1061 C1067 1.390 . S
C1062 H1053 0.930 . S
C1062 C1060 1.384 . S
C1062 C1063 1.372 . S
C1063 C1062 1.372 . S
C1063 C1064 1.400 . S
C1063 C1068 1.490 . S
C1064 H1054 0.930 . S
C1064 C1063 1.400 . S
C1064 C1067 1.386 . S
H1065 C1081 0.930 . S
H1066 C1082 0.931 . S
C1067 H1055 0.929 . S
C1067 C1061 1.390 . S
C1067 C1064 1.386 . S
C1068 C1063 1.490 . S
C1068 C1070 1.395 . S
C1068 C1071 1.403 . S
H1069 C1075 0.930 . S
C1070 H1056 0.930 . S
C1070 C1068 1.395 . S
C1070 C1073 1.403 . S
C1071 C1068 1.403 . S
C1071 C1072 1.524 . S
C1071 C1075 1.400 . S
C1072 H1057 0.960 . S
C1072 H1058 0.960 . S
C1072 H1059 0.960 . S
C1072 C1071 1.524 . S
C1073 C1070 1.403 . S
C1073 C1074 1.392 . S
C1073 C1077 1.495 . S
C1074 C1073 1.392 . S
C1074 C1075 1.385 . S
C1074 C1076 1.478 . S
C1075 H1069 0.930 . S
C1075 C1071 1.400 . S
C1075 C1074 1.385 . S
C1076 C1074 1.478 . S
C1076 C1078 1.381 . S
C1076 C1082 1.383 . S
C1077 C1073 1.495 . S
C1077 H1083 0.959 . S
C1077 H1084 0.961 . S
C1077 H1085 0.960 . S
C1078 C1076 1.381 . S
C1078 C1079 1.394 . S
C1078 H1086 0.930 . S
C1079 C1078 1.394 . S
C1079 C1080 1.383 . S
C1079 H1087 0.929 . S
C1080 C1079 1.383 . S
C1080 C1081 1.377 . S
C1081 H1065 0.930 . S
C1081 C1080 1.377 . S
C1081 C1082 1.379 . S
C1082 H1066 0.931 . S
C1082 C1076 1.383 . S
C1082 C1081 1.379 . S
H1083 C1077 0.959 . S
H1084 C1077 0.961 . S
H1085 C1077 0.960 . S
H1086 C1078 0.930 . S
H1087 C1079 0.929 . S
H1088 C1096 0.929 . S
H1089 C1098 0.930 . S
H1090 C1100 0.930 . S
H1091 C1103 0.929 . S
H1092 C1106 0.930 . S
H1093 C1108 0.960 . S
H1094 C1108 0.960 . S
H1095 C1108 0.960 . S
C1096 H1088 0.929 . S
C1096 C1097 1.377 1_554 S
C1096 C1098 1.384 . S
C1097 C1096 1.377 1_556 S
C1097 C1103 1.390 . S
C1098 H1089 0.930 . S
C1098 C1096 1.384 . S
C1098 C1099 1.372 . S
C1099 C1098 1.372 . S
C1099 C1100 1.400 1_554 S
C1099 C1104 1.490 . S
C1100 H1090 0.930 . S
C1100 C1099 1.400 1_556 S
C1100 C1103 1.386 . S
H1101 C1117 0.930 . S
H1102 C1118 0.931 . S
C1103 H1091 0.929 . S
C1103 C1097 1.390 . S
C1103 C1100 1.386 . S
C1104 C1099 1.490 . S
C1104 C1106 1.395 . S
C1104 C1107 1.403 1_554 S
H1105 C1111 0.930 . S
C1106 H1092 0.930 . S
C1106 C1104 1.395 . S
C1106 C1109 1.403 . S
C1107 C1104 1.403 1_556 S
C1107 C1108 1.524 . S
C1107 C1111 1.400 . S
C1108 H1093 0.960 . S
C1108 H1094 0.960 . S
C1108 H1095 0.960 . S
C1108 C1107 1.524 . S
C1109 C1106 1.403 . S
C1109 C1110 1.392 . S
C1109 C1113 1.495 . S
C1110 C1109 1.392 . S
C1110 C1111 1.385 1_554 S
C1110 C1112 1.478 . S
C1111 H1105 0.930 . S
C1111 C1107 1.400 . S
C1111 C1110 1.385 1_556 S
C1112 C1110 1.478 . S
C1112 C1114 1.381 . S
C1112 C1118 1.383 . S
C1113 C1109 1.495 . S
C1113 H1119 0.959 . S
C1113 H1120 0.961 . S
C1113 H1121 0.960 . S
C1114 C1112 1.381 . S
C1114 C1115 1.394 . S
C1114 H1122 0.930 . S
C1115 C1114 1.394 . S
C1115 C1116 1.383 . S
C1115 H1123 0.929 . S
C1116 C1115 1.383 . S
C1116 C1117 1.377 . S
C1117 H1101 0.930 . S
C1117 C1116 1.377 . S
C1117 C1118 1.379 . S
C1118 H1102 0.931 . S
C1118 C1112 1.383 . S
C1118 C1117 1.379 . S
H1119 C1113 0.959 . S
H1120 C1113 0.961 . S
H1121 C1113 0.960 . S
H1122 C1114 0.930 . S
H1123 C1115 0.929 . S
H1124 C1132 0.929 . S
H1125 C1134 0.930 . S
H1126 C1136 0.930 . S
H1127 C1139 0.929 . S
H1128 C1142 0.930 . S
H1129 C1144 0.960 . S
H1130 C1144 0.960 . S
H1131 C1144 0.960 . S
C1132 H1124 0.929 . S
C1132 C1133 1.377 . S
C1132 C1134 1.384 . S
C1133 C1132 1.377 . S
C1133 C1139 1.390 1_554 S
C1134 H1125 0.930 . S
C1134 C1132 1.384 . S
C1134 C1135 1.372 1_554 S
C1135 C1134 1.372 1_556 S
C1135 C1136 1.400 . S
C1135 C1140 1.490 . S
C1136 H1126 0.930 . S
C1136 C1135 1.400 . S
C1136 C1139 1.386 . S
H1137 C1153 0.930 . S
H1138 C1154 0.931 . S
C1139 H1127 0.929 . S
C1139 C1133 1.390 1_556 S
C1139 C1136 1.386 . S
C1140 C1135 1.490 . S
C1140 C1142 1.395 1_556 S
C1140 C1143 1.403 . S
H1141 C1147 0.930 . S
C1142 H1128 0.930 . S
C1142 C1140 1.395 1_554 S
C1142 C1145 1.403 . S
C1143 C1140 1.403 . S
C1143 C1144 1.524 . S
C1143 C1147 1.400 . S
C1144 H1129 0.960 . S
C1144 H1130 0.960 . S
C1144 H1131 0.960 . S
C1144 C1143 1.524 . S
C1145 C1142 1.403 . S
C1145 C1146 1.392 1_554 S
C1145 C1149 1.495 . S
C1146 C1145 1.392 1_556 S
C1146 C1147 1.385 . S
C1146 C1148 1.478 . S
C1147 H1141 0.930 . S
C1147 C1143 1.400 . S
C1147 C1146 1.385 . S
C1148 C1146 1.478 . S
C1148 C1150 1.381 . S
C1148 C1154 1.383 . S
C1149 C1145 1.495 . S
C1149 H1155 0.959 . S
C1149 H1156 0.961 . S
C1149 H1157 0.960 . S
C1150 C1148 1.381 . S
C1150 C1151 1.394 . S
C1150 H1158 0.930 . S
C1151 C1150 1.394 . S
C1151 C1152 1.383 . S
C1151 H1159 0.929 . S
C1152 C1151 1.383 . S
C1152 C1153 1.377 . S
C1153 H1137 0.930 . S
C1153 C1152 1.377 . S
C1153 C1154 1.379 . S
C1154 H1138 0.931 . S
C1154 C1148 1.383 . S
C1154 C1153 1.379 . S
H1155 C1149 0.959 . S
H1156 C1149 0.961 . S
H1157 C1149 0.960 . S
H1158 C1150 0.930 . S
H1159 C1151 0.929 . S
H1160 C1168 0.929 . S
H1161 C1170 0.930 . S
H1162 C1172 0.930 . S
H1163 C1175 0.929 . S
H1164 C1178 0.930 . S
H1165 C1180 0.960 . S
H1166 C1180 0.960 . S
H1167 C1180 0.960 . S
C1168 H1160 0.929 . S
C1168 C1169 1.377 . S
C1168 C1170 1.384 . S
C1169 C1168 1.377 . S
C1169 C1175 1.390 1_556 S
C1170 H1161 0.930 . S
C1170 C1168 1.384 . S
C1170 C1171 1.372 1_556 S
C1171 C1170 1.372 1_554 S
C1171 C1172 1.400 . S
C1171 C1176 1.490 . S
C1172 H1162 0.930 . S
C1172 C1171 1.400 . S
C1172 C1175 1.386 . S
H1173 C1189 0.930 . S
H1174 C1190 0.931 . S
C1175 H1163 0.929 . S
C1175 C1169 1.390 1_554 S
C1175 C1172 1.386 . S
C1176 C1171 1.490 . S
C1176 C1178 1.395 1_554 S
C1176 C1179 1.403 . S
H1177 C1183 0.930 . S
C1178 H1164 0.930 . S
C1178 C1176 1.395 1_556 S
C1178 C1181 1.403 1_556 S
C1179 C1176 1.403 . S
C1179 C1180 1.524 . S
C1179 C1183 1.400 . S
C1180 H1165 0.960 . S
C1180 H1166 0.960 . S
C1180 H1167 0.960 . S
C1180 C1179 1.524 . S
C1181 C1178 1.403 1_554 S
C1181 C1182 1.396 . S
C1181 C1185 1.493 1_554 S
C1182 C1181 1.396 . S
C1182 C1183 1.385 . S
C1182 C1184 1.478 . S
C1183 H1177 0.930 . S
C1183 C1179 1.400 . S
C1183 C1182 1.385 . S
C1184 C1182 1.478 . S
C1184 C1186 1.381 . S
C1184 C1190 1.383 . S
C1185 C1181 1.493 1_556 S
C1185 H1191 0.959 . S
C1185 H1192 0.950 1_556 S
C1185 H1193 0.960 . S
C1186 C1184 1.381 . S
C1186 C1187 1.394 . S
C1186 H1194 0.930 1_554 S
C1187 C1186 1.394 . S
C1187 C1188 1.383 . S
C1187 H1195 0.929 1_554 S
C1188 C1187 1.383 . S
C1188 C1189 1.377 . S
C1189 H1173 0.930 . S
C1189 C1188 1.377 . S
C1189 C1190 1.379 . S
C1190 H1174 0.931 . S
C1190 C1184 1.383 . S
C1190 C1189 1.379 . S
H1191 C1185 0.959 . S
H1192 C1185 0.950 1_554 S
H1193 C1185 0.960 . S
H1194 C1186 0.930 1_556 S
H1195 C1187 0.929 1_556 S
H1196 C1204 0.929 . S
H1197 C1206 0.930 . S
H1198 C1208 0.928 1_554 S
H1199 C1211 0.929 . S
H1200 C1214 0.930 . S
H1201 C1216 0.960 . S
H1202 C1216 0.960 . S
H1203 C1216 0.960 . S
C1204 H1196 0.929 . S
C1204 C1205 1.377 . S
C1204 C1206 1.384 . S
C1205 C1204 1.377 . S
C1205 C1211 1.390 . S
C1206 H1197 0.930 . S
C1206 C1204 1.384 . S
C1206 C1207 1.372 . S
C1207 C1206 1.372 . S
C1207 C1208 1.400 . S
C1207 C1212 1.490 . S
C1208 H1198 0.928 1_556 S
C1208 C1207 1.400 . S
C1208 C1211 1.386 . S
H1209 C1225 0.930 . S
H1210 C1226 0.931 . S
C1211 H1199 0.929 . S
C1211 C1205 1.390 . S
C1211 C1208 1.386 . S
C1212 C1207 1.490 . S
C1212 C1214 1.395 . S
C1212 C1215 1.403 . S
H1213 C1219 0.930 . S
C1214 H1200 0.930 . S
C1214 C1212 1.395 . S
C1214 C1217 1.403 . S
C1215 C1212 1.403 . S
C1215 C1216 1.524 . S
C1215 C1219 1.400 . S
C1216 H1201 0.960 . S
C1216 H1202 0.960 . S
C1216 H1203 0.960 . S
C1216 C1215 1.524 . S
C1217 C1214 1.403 . S
C1217 C1218 1.392 . S
C1217 C1221 1.495 1_556 S
C1218 C1217 1.392 . S
C1218 C1219 1.385 . S
C1218 C1220 1.478 . S
C1219 H1213 0.930 . S
C1219 C1215 1.400 . S
C1219 C1218 1.385 . S
C1220 C1218 1.478 . S
C1220 C1222 1.381 . S
C1220 C1226 1.383 1_556 S
C1221 C1217 1.495 1_554 S
C1221 H1227 0.959 . S
C1221 H1228 0.961 . S
C1221 H1229 0.960 1_554 S
C1222 C1220 1.381 . S
C1222 C1223 1.394 . S
C1222 H1230 0.930 . S
C1223 C1222 1.394 . S
C1223 C1224 1.383 1_556 S
C1223 H1231 0.929 . S
C1224 C1223 1.383 1_554 S
C1224 C1225 1.377 . S
C1225 H1209 0.930 . S
C1225 C1224 1.377 . S
C1225 C1226 1.379 . S
C1226 H1210 0.931 . S
C1226 C1220 1.383 1_554 S
C1226 C1225 1.379 . S
H1227 C1221 0.959 . S
H1228 C1221 0.961 . S
H1229 C1221 0.960 1_556 S
H1230 C1222 0.930 . S
H1231 C1223 0.929 . S
H1232 C1240 0.929 . S
H1233 C1242 0.930 . S
H1234 C1244 0.930 . S
H1235 C1247 0.929 . S
H1236 C1250 0.930 . S
H1237 C1252 0.960 . S
H1238 C1252 0.960 . S
H1239 C1252 0.960 . S
C1240 H1232 0.929 . S
C1240 C1241 1.377 . S
C1240 C1242 1.384 . S
C1241 C1240 1.377 . S
C1241 C1247 1.390 . S
C1242 H1233 0.930 . S
C1242 C1240 1.384 . S
C1242 C1243 1.372 . S
C1243 C1242 1.372 . S
C1243 C1244 1.400 . S
C1243 C1248 1.490 . S
C1244 H1234 0.930 . S
C1244 C1243 1.400 . S
C1244 C1247 1.386 . S
H1245 C1261 0.930 . S
H1246 C1262 0.931 . S
C1247 H1235 0.929 . S
C1247 C1241 1.390 . S
C1247 C1244 1.386 . S
C1248 C1243 1.490 . S
C1248 C1250 1.395 1_565 S
C1248 C1251 1.403 . S
H1249 C1255 0.930 . S
C1250 H1236 0.930 . S
C1250 C1248 1.395 1_545 S
C1250 C1253 1.403 . S
C1251 C1248 1.403 . S
C1251 C1252 1.524 . S
C1251 C1255 1.400 . S
C1252 H1237 0.960 . S
C1252 H1238 0.960 . S
C1252 H1239 0.960 . S
C1252 C1251 1.524 . S
C1253 C1250 1.403 . S
C1253 C1254 1.392 . S
C1253 C1257 1.495 . S
C1254 C1253 1.392 . S
C1254 C1255 1.385 1_545 S
C1254 C1256 1.478 . S
C1255 H1249 0.930 . S
C1255 C1251 1.400 . S
C1255 C1254 1.385 1_565 S
C1256 C1254 1.478 . S
C1256 C1258 1.381 . S
C1256 C1262 1.383 . S
C1257 C1253 1.495 . S
C1257 H1263 0.959 . S
C1257 H1264 0.961 . S
C1257 H1265 0.960 . S
C1258 C1256 1.381 . S
C1258 C1259 1.394 . S
C1258 H1266 0.930 . S
C1259 C1258 1.394 . S
C1259 C1260 1.383 . S
C1259 H1267 0.929 . S
C1260 C1259 1.383 . S
C1260 C1261 1.377 . S
C1261 H1245 0.930 . S
C1261 C1260 1.377 . S
C1261 C1262 1.379 . S
C1262 H1246 0.931 . S
C1262 C1256 1.383 . S
C1262 C1261 1.379 . S
H1263 C1257 0.959 . S
H1264 C1257 0.961 . S
H1265 C1257 0.960 . S
H1266 C1258 0.930 . S
H1267 C1259 0.929 . S
H1268 C1276 0.929 . S
H1269 C1278 0.930 . S
H1270 C1280 0.930 1_455 S
H1271 C1283 0.929 . S
H1272 C1286 0.930 . S
H1273 C1288 0.960 . S
H1274 C1288 0.960 . S
H1275 C1288 0.960 . S
C1276 H1268 0.929 . S
C1276 C1277 1.377 . S
C1276 C1278 1.384 . S
C1277 C1276 1.377 . S
C1277 C1283 1.390 . S
C1278 H1269 0.930 . S
C1278 C1276 1.384 . S
C1278 C1279 1.372 . S
C1279 C1278 1.372 . S
C1279 C1280 1.400 . S
C1279 C1284 1.490 . S
C1280 H1270 0.930 1_655 S
C1280 C1279 1.400 . S
C1280 C1283 1.386 . S
H1281 C1297 0.930 . S
H1282 C1298 0.931 . S
C1283 H1271 0.929 . S
C1283 C1277 1.390 . S
C1283 C1280 1.386 . S
C1284 C1279 1.490 . S
C1284 C1286 1.395 . S
C1284 C1287 1.403 . S
H1285 C1291 0.930 . S
C1286 H1272 0.930 . S
C1286 C1284 1.395 . S
C1286 C1289 1.403 1_655 S
C1287 C1284 1.403 . S
C1287 C1288 1.524 . S
C1287 C1291 1.400 1_655 S
C1288 H1273 0.960 . S
C1288 H1274 0.960 . S
C1288 H1275 0.960 . S
C1288 C1287 1.524 . S
C1289 C1286 1.403 1_455 S
C1289 C1290 1.392 . S
C1289 C1293 1.495 . S
C1290 C1289 1.392 . S
C1290 C1291 1.385 . S
C1290 C1292 1.478 . S
C1291 H1285 0.930 . S
C1291 C1287 1.400 1_455 S
C1291 C1290 1.385 . S
C1292 C1290 1.478 . S
C1292 C1294 1.381 . S
C1292 C1298 1.383 . S
C1293 C1289 1.495 . S
C1293 H1299 0.959 . S
C1293 H1300 0.961 . S
C1293 H1301 0.960 . S
C1294 C1292 1.381 . S
C1294 C1295 1.394 . S
C1294 H1302 0.930 1_455 S
C1295 C1294 1.394 . S
C1295 C1296 1.383 . S
C1295 H1303 0.929 . S
C1296 C1295 1.383 . S
C1296 C1297 1.377 . S
C1297 H1281 0.930 . S
C1297 C1296 1.377 . S
C1297 C1298 1.379 . S
C1298 H1282 0.931 . S
C1298 C1292 1.383 . S
C1298 C1297 1.379 . S
H1299 C1293 0.959 . S
H1300 C1293 0.961 . S
H1301 C1293 0.960 . S
H1302 C1294 0.930 1_655 S
H1303 C1295 0.929 . S
H1304 C1312 0.929 . S
H1305 C1314 0.930 . S
H1306 C1316 0.930 . S
H1307 C1319 0.929 . S
H1308 C1322 0.930 . S
H1309 C1324 0.960 . S
H1310 C1324 0.960 . S
H1311 C1324 0.960 . S
C1312 H1304 0.929 . S
C1312 C1313 1.377 . S
C1312 C1314 1.384 . S
C1313 C1312 1.377 . S
C1313 C1319 1.390 . S
C1314 H1305 0.930 . S
C1314 C1312 1.384 . S
C1314 C1315 1.372 . S
C1315 C1314 1.372 . S
C1315 C1316 1.400 . S
C1315 C1320 1.490 . S
C1316 H1306 0.930 . S
C1316 C1315 1.400 . S
C1316 C1319 1.386 . S
H1317 C1333 0.930 . S
H1318 C1334 0.933 1_565 S
C1319 H1307 0.929 . S
C1319 C1313 1.390 . S
C1319 C1316 1.386 . S
C1320 C1315 1.490 . S
C1320 C1322 1.395 . S
C1320 C1323 1.403 1_565 S
H1321 C1327 0.930 . S
C1322 H1308 0.930 . S
C1322 C1320 1.395 . S
C1322 C1325 1.403 . S
C1323 C1320 1.403 1_545 S
C1323 C1324 1.524 . S
C1323 C1327 1.400 . S
C1324 H1309 0.960 . S
C1324 H1310 0.960 . S
C1324 H1311 0.960 . S
C1324 C1323 1.524 . S
C1325 C1322 1.403 . S
C1325 C1326 1.392 1_565 S
C1325 C1329 1.495 . S
C1326 C1325 1.392 1_545 S
C1326 C1327 1.385 . S
C1326 C1328 1.478 . S
C1327 H1321 0.930 . S
C1327 C1323 1.400 . S
C1327 C1326 1.385 . S
C1328 C1326 1.478 . S
C1328 C1330 1.381 . S
C1328 C1334 1.383 . S
C1329 C1325 1.495 . S
C1329 H1335 0.959 . S
C1329 H1336 0.961 . S
C1329 H1337 0.960 . S
C1330 C1328 1.381 . S
C1330 C1331 1.394 . S
C1330 H1338 0.930 . S
C1331 C1330 1.394 . S
C1331 C1332 1.383 . S
C1331 H1339 0.929 . S
C1332 C1331 1.383 . S
C1332 C1333 1.377 . S
C1333 H1317 0.930 . S
C1333 C1332 1.377 . S
C1333 C1334 1.379 . S
C1334 H1318 0.933 1_545 S
C1334 C1328 1.383 . S
C1334 C1333 1.379 . S
H1335 C1329 0.959 . S
H1336 C1329 0.961 . S
H1337 C1329 0.960 . S
H1338 C1330 0.930 . S
H1339 C1331 0.929 . S
H1340 C1348 0.962 . S
H1341 C1350 0.930 1_455 S
H1342 C1352 0.930 . S
H1343 C1355 0.929 . S
H1344 C1358 0.930 . S
H1345 C1360 0.960 . S
H1346 C1360 0.960 1_455 S
H1347 C1360 0.960 . S
C1348 H1340 0.962 . S
C1348 C1349 1.377 . S
C1348 C1350 1.384 . S
C1349 C1348 1.377 . S
C1349 C1355 1.390 . S
C1350 H1341 0.930 1_655 S
C1350 C1348 1.384 . S
C1350 C1351 1.372 . S
C1351 C1350 1.372 . S
C1351 C1352 1.400 . S
C1351 C1356 1.490 . S
C1352 H1342 0.930 . S
C1352 C1351 1.400 . S
C1352 C1355 1.386 . S
H1353 C1369 0.930 1_655 S
H1354 C1370 0.912 1_655 S
C1355 H1343 0.929 . S
C1355 C1349 1.390 . S
C1355 C1352 1.386 . S
C1356 C1351 1.490 . S
C1356 C1358 1.395 . S
C1356 C1359 1.403 . S
H1357 C1363 0.930 . S
C1358 H1344 0.930 . S
C1358 C1356 1.395 . S
C1358 C1361 1.403 1_655 S
C1359 C1356 1.403 . S
C1359 C1360 1.524 . S
C1359 C1363 1.400 1_655 S
C1360 H1345 0.960 . S
C1360 H1346 0.960 1_655 S
C1360 H1347 0.960 . S
C1360 C1359 1.524 . S
C1361 C1358 1.403 1_455 S
C1361 C1362 1.392 . S
C1361 C1365 1.495 . S
C1362 C1361 1.392 . S
C1362 C1363 1.385 . S
C1362 C1364 1.478 . S
C1363 H1357 0.930 . S
C1363 C1359 1.400 1_455 S
C1363 C1362 1.385 . S
C1364 C1362 1.478 . S
C1364 C1366 1.381 . S
C1364 C1370 1.395 . S
C1365 C1361 1.495 . S
C1365 H1371 0.959 . S
C1365 H1372 0.961 1_455 S
C1365 H1373 0.960 . S
C1366 C1364 1.381 . S
C1366 C1367 1.394 . S
C1366 H1374 0.930 . S
C1367 C1366 1.394 . S
C1367 C1368 1.383 . S
C1367 H1375 0.929 . S
C1368 C1367 1.383 . S
C1368 C1369 1.377 . S
C1369 H1353 0.930 1_455 S
C1369 C1368 1.377 . S
C1369 C1370 1.386 . S
C1370 H1354 0.912 1_455 S
C1370 C1364 1.395 . S
C1370 C1369 1.386 . S
H1371 C1365 0.959 . S
H1372 C1365 0.961 1_655 S
H1373 C1365 0.960 . S
H1374 C1366 0.930 . S
H1375 C1367 0.929 . S
H1376 C1384 0.929 . S
H1377 C1386 0.930 1_545 S
H1378 C1388 0.930 . S
H1379 C1391 0.929 . S
H1380 C1394 0.930 . S
H1381 C1396 0.960 . S
H1382 C1396 0.960 . S
H1383 C1396 0.960 . S
C1384 H1376 0.929 . S
C1384 C1385 1.377 . S
C1384 C1386 1.384 . S
C1385 C1384 1.377 . S
C1385 C1391 1.390 . S
C1386 H1377 0.930 1_565 S
C1386 C1384 1.384 . S
C1386 C1387 1.372 . S
C1387 C1386 1.372 . S
C1387 C1388 1.400 . S
C1387 C1392 1.490 . S
C1388 H1378 0.930 . S
C1388 C1387 1.400 . S
C1388 C1391 1.386 . S
H1389 C1405 0.930 . S
H1390 C1406 0.931 1_565 S
C1391 H1379 0.929 . S
C1391 C1385 1.390 . S
C1391 C1388 1.386 . S
C1392 C1387 1.490 . S
C1392 C1394 1.395 1_565 S
C1392 C1395 1.403 . S
H1393 C1399 0.930 . S
C1394 H1380 0.930 . S
C1394 C1392 1.395 1_545 S
C1394 C1397 1.403 . S
C1395 C1392 1.403 . S
C1395 C1396 1.524 . S
C1395 C1399 1.400 . S
C1396 H1381 0.960 . S
C1396 H1382 0.960 . S
C1396 H1383 0.960 . S
C1396 C1395 1.524 . S
C1397 C1394 1.403 . S
C1397 C1398 1.392 . S
C1397 C1401 1.495 . S
C1398 C1397 1.392 . S
C1398 C1399 1.385 1_545 S
C1398 C1400 1.478 . S
C1399 H1393 0.930 . S
C1399 C1395 1.400 . S
C1399 C1398 1.385 1_565 S
C1400 C1398 1.478 . S
C1400 C1402 1.381 . S
C1400 C1406 1.383 . S
C1401 C1397 1.495 . S
C1401 H1407 0.959 . S
C1401 H1408 0.961 . S
C1401 H1409 0.960 . S
C1402 C1400 1.381 . S
C1402 C1403 1.394 . S
C1402 H1410 0.930 . S
C1403 C1402 1.394 . S
C1403 C1404 1.383 . S
C1403 H1411 0.929 . S
C1404 C1403 1.383 . S
C1404 C1405 1.377 . S
C1405 H1389 0.930 . S
C1405 C1404 1.377 . S
C1405 C1406 1.379 . S
C1406 H1390 0.931 1_545 S
C1406 C1400 1.383 . S
C1406 C1405 1.379 . S
H1407 C1401 0.959 . S
H1408 C1401 0.961 . S
H1409 C1401 0.960 . S
H1410 C1402 0.930 . S
H1411 C1403 0.929 . S
H1412 C1420 0.929 . S
H1413 C1422 0.930 . S
H1414 C1424 0.930 . S
H1415 C1427 0.929 . S
H1416 C1430 0.930 . S
H1417 C1432 0.960 . S
H1418 C1432 0.960 . S
H1419 C1432 0.960 . S
C1420 H1412 0.929 . S
C1420 C1421 1.377 . S
C1420 C1422 1.384 . S
C1421 C1420 1.377 . S
C1421 C1427 1.390 . S
C1422 H1413 0.930 . S
C1422 C1420 1.384 . S
C1422 C1423 1.372 . S
C1423 C1422 1.372 . S
C1423 C1424 1.400 . S
C1423 C1428 1.490 . S
C1424 H1414 0.930 . S
C1424 C1423 1.400 . S
C1424 C1427 1.386 . S
H1425 C1441 0.930 . S
H1426 C1442 0.931 . S
C1427 H1415 0.929 . S
C1427 C1421 1.390 . S
C1427 C1424 1.386 . S
C1428 C1423 1.490 . S
C1428 C1430 1.395 . S
C1428 C1431 1.403 1_455 S
H1429 C1435 0.930 . S
C1430 H1416 0.930 . S
C1430 C1428 1.395 . S
C1430 C1433 1.403 . S
C1431 C1428 1.403 1_655 S
C1431 C1432 1.524 . S
C1431 C1435 1.400 . S
C1432 H1417 0.960 . S
C1432 H1418 0.960 . S
C1432 H1419 0.960 . S
C1432 C1431 1.524 . S
C1433 C1430 1.403 . S
C1433 C1434 1.392 1_455 S
C1433 C1437 1.495 . S
C1434 C1433 1.392 1_655 S
C1434 C1435 1.385 . S
C1434 C1436 1.478 . S
C1435 H1429 0.930 . S
C1435 C1431 1.400 . S
C1435 C1434 1.385 . S
C1436 C1434 1.478 . S
C1436 C1438 1.381 . S
C1436 C1442 1.383 . S
C1437 C1433 1.495 . S
C1437 H1443 0.959 . S
C1437 H1444 0.961 . S
C1437 H1445 0.960 . S
C1438 C1436 1.381 . S
C1438 C1439 1.394 . S
C1438 H1446 0.930 . S
C1439 C1438 1.394 . S
C1439 C1440 1.383 . S
C1439 H1447 0.929 . S
C1440 C1439 1.383 . S
C1440 C1441 1.377 . S
C1441 H1425 0.930 . S
C1441 C1440 1.377 . S
C1441 C1442 1.379 . S
C1442 H1426 0.931 . S
C1442 C1436 1.383 . S
C1442 C1441 1.379 . S
H1443 C1437 0.959 . S
H1444 C1437 0.961 . S
H1445 C1437 0.960 . S
H1446 C1438 0.930 . S
H1447 C1439 0.929 . S
H1448 C1456 0.929 . S
H1449 C1458 0.930 . S
H1450 C1460 0.964 . S
H1451 C1463 0.929 . S
H1452 C1466 0.930 . S
H1453 C1468 0.960 . S
H1454 C1468 0.960 . S
H1455 C1468 0.960 . S
C1456 H1448 0.929 . S
C1456 C1457 1.377 . S
C1456 C1458 1.384 . S
C1457 C1456 1.377 . S
C1457 C1463 1.390 . S
C1458 H1449 0.930 . S
C1458 C1456 1.384 . S
C1458 C1459 1.372 . S
C1459 C1458 1.372 . S
C1459 C1460 1.400 . S
C1459 C1464 1.490 . S
C1460 H1450 0.964 . S
C1460 C1459 1.400 . S
C1460 C1463 1.386 . S
H1461 C1477 0.930 . S
H1462 C1478 0.931 . S
C1463 H1451 0.929 . S
C1463 C1457 1.390 . S
C1463 C1460 1.386 . S
C1464 C1459 1.490 . S
C1464 C1466 1.395 1_565 S
C1464 C1467 1.403 . S
H1465 C1471 0.930 . S
C1466 H1452 0.930 . S
C1466 C1464 1.395 1_545 S
C1466 C1469 1.403 . S
C1467 C1464 1.403 . S
C1467 C1468 1.524 . S
C1467 C1471 1.400 . S
C1468 H1453 0.960 . S
C1468 H1454 0.960 . S
C1468 H1455 0.960 . S
C1468 C1467 1.524 . S
C1469 C1466 1.403 . S
C1469 C1470 1.392 . S
C1469 C1473 1.495 . S
C1470 C1469 1.392 . S
C1470 C1471 1.385 1_545 S
C1470 C1472 1.478 . S
C1471 H1465 0.930 . S
C1471 C1467 1.400 . S
C1471 C1470 1.385 1_565 S
C1472 C1470 1.478 . S
C1472 C1474 1.381 . S
C1472 C1478 1.383 . S
C1473 C1469 1.495 . S
C1473 H1479 0.959 . S
C1473 H1480 0.961 . S
C1473 H1481 0.960 . S
C1474 C1472 1.381 . S
C1474 C1475 1.394 . S
C1474 H1482 0.930 1_545 S
C1475 C1474 1.394 . S
C1475 C1476 1.383 . S
C1475 H1483 0.929 . S
C1476 C1475 1.383 . S
C1476 C1477 1.377 . S
C1477 H1461 0.930 . S
C1477 C1476 1.377 . S
C1477 C1478 1.379 . S
C1478 H1462 0.931 . S
C1478 C1472 1.383 . S
C1478 C1477 1.379 . S
H1479 C1473 0.959 . S
H1480 C1473 0.961 . S
H1481 C1473 0.960 . S
H1482 C1474 0.930 1_565 S
H1483 C1475 0.929 . S
H1484 C1492 0.929 . S
H1485 C1494 0.930 . S
H1486 C1496 0.930 . S
H1487 C1499 0.929 . S
H1488 C1502 0.930 . S
H1489 C1504 0.960 . S
H1490 C1504 0.960 . S
H1491 C1504 0.960 . S
C1492 H1484 0.929 . S
C1492 C1493 1.377 . S
C1492 C1494 1.384 . S
C1493 C1492 1.377 . S
C1493 C1499 1.390 . S
C1494 H1485 0.930 . S
C1494 C1492 1.384 . S
C1494 C1495 1.372 . S
C1495 C1494 1.372 . S
C1495 C1496 1.400 . S
C1495 C1500 1.490 . S
C1496 H1486 0.930 . S
C1496 C1495 1.400 . S
C1496 C1499 1.386 . S
H1497 C1513 0.930 . S
H1498 C1514 0.931 . S
C1499 H1487 0.929 . S
C1499 C1493 1.390 . S
C1499 C1496 1.386 . S
C1500 C1495 1.490 . S
C1500 C1502 1.395 . S
C1500 C1503 1.403 1_455 S
H1501 C1507 0.930 . S
C1502 H1488 0.930 . S
C1502 C1500 1.395 . S
C1502 C1505 1.403 . S
C1503 C1500 1.403 1_655 S
C1503 C1504 1.524 . S
C1503 C1507 1.400 . S
C1504 H1489 0.960 . S
C1504 H1490 0.960 . S
C1504 H1491 0.960 . S
C1504 C1503 1.524 . S
C1505 C1502 1.403 . S
C1505 C1506 1.392 1_455 S
C1505 C1509 1.495 . S
C1506 C1505 1.392 1_655 S
C1506 C1507 1.385 . S
C1506 C1508 1.478 . S
C1507 H1501 0.930 . S
C1507 C1503 1.400 . S
C1507 C1506 1.385 . S
C1508 C1506 1.478 . S
C1508 C1510 1.381 . S
C1508 C1514 1.383 . S
C1509 C1505 1.495 . S
C1509 H1515 0.959 . S
C1509 H1516 0.961 . S
C1509 H1517 0.960 . S
C1510 C1508 1.381 . S
C1510 C1511 1.394 . S
C1510 H1518 0.930 . S
C1511 C1510 1.394 . S
C1511 C1512 1.383 . S
C1511 H1519 0.929 . S
C1512 C1511 1.383 . S
C1512 C1513 1.377 . S
C1513 H1497 0.930 . S
C1513 C1512 1.377 . S
C1513 C1514 1.379 . S
C1514 H1498 0.931 . S
C1514 C1508 1.383 . S
C1514 C1513 1.379 . S
H1515 C1509 0.959 . S
H1516 C1509 0.961 . S
H1517 C1509 0.960 . S
H1518 C1510 0.930 . S
H1519 C1511 0.929 . S
H1520 C1528 0.929 . S
H1521 C1530 0.930 . S
H1522 C1532 0.930 . S
H1523 C1535 0.929 . S
H1524 C1538 0.930 . S
H1525 C1540 0.960 . S
H1526 C1540 0.960 . S
H1527 C1540 0.960 . S
C1528 H1520 0.929 . S
C1528 C1529 1.377 . S
C1528 C1530 1.384 . S
C1529 C1528 1.377 . S
C1529 C1535 1.390 . S
C1530 H1521 0.930 . S
C1530 C1528 1.384 . S
C1530 C1531 1.372 . S
C1531 C1530 1.372 . S
C1531 C1532 1.400 . S
C1531 C1536 1.490 . S
C1532 H1522 0.930 . S
C1532 C1531 1.400 . S
C1532 C1535 1.386 . S
H1533 C1549 0.930 . S
H1534 C1550 0.931 . S
C1535 H1523 0.929 . S
C1535 C1529 1.390 . S
C1535 C1532 1.386 . S
C1536 C1531 1.490 . S
C1536 C1538 1.395 . S
C1536 C1539 1.403 . S
H1537 C1543 0.930 . S
C1538 H1524 0.930 . S
C1538 C1536 1.395 . S
C1538 C1541 1.403 . S
C1539 C1536 1.403 . S
C1539 C1540 1.524 . S
C1539 C1543 1.400 . S
C1540 H1525 0.960 . S
C1540 H1526 0.960 . S
C1540 H1527 0.960 . S
C1540 C1539 1.524 . S
C1541 C1538 1.403 . S
C1541 C1542 1.392 . S
C1541 C1545 1.495 . S
C1542 C1541 1.392 . S
C1542 C1543 1.385 . S
C1542 C1544 1.478 . S
C1543 H1537 0.930 . S
C1543 C1539 1.400 . S
C1543 C1542 1.385 . S
C1544 C1542 1.478 . S
C1544 C1546 1.381 . S
C1544 C1550 1.383 . S
C1545 C1541 1.495 . S
C1545 H1551 0.959 . S
C1545 H1552 0.961 . S
C1545 H1553 0.960 . S
C1546 C1544 1.381 . S
C1546 C1547 1.394 . S
C1546 H1554 0.930 . S
C1547 C1546 1.394 . S
C1547 C1548 1.383 . S
C1547 H1555 0.929 . S
C1548 C1547 1.383 . S
C1548 C1549 1.377 . S
C1549 H1533 0.930 . S
C1549 C1548 1.377 . S
C1549 C1550 1.379 . S
C1550 H1534 0.931 . S
C1550 C1544 1.383 . S
C1550 C1549 1.379 . S
H1551 C1545 0.959 . S
H1552 C1545 0.961 . S
H1553 C1545 0.960 . S
H1554 C1546 0.930 . S
H1555 C1547 0.929 . S
H1556 C1564 0.929 . S
H1557 C1566 0.930 . S
H1558 C1568 0.930 . S
H1559 C1571 0.929 . S
H1560 C1574 0.930 . S
H1561 C1576 0.960 . S
H1562 C1576 0.960 . S
H1563 C1576 0.960 . S
C1564 H1556 0.929 . S
C1564 C1565 1.377 . S
C1564 C1566 1.384 . S
C1565 C1564 1.377 . S
C1565 C1571 1.390 . S
C1566 H1557 0.930 . S
C1566 C1564 1.384 . S
C1566 C1567 1.372 . S
C1567 C1566 1.372 . S
C1567 C1568 1.400 . S
C1567 C1572 1.490 . S
C1568 H1558 0.930 . S
C1568 C1567 1.400 . S
C1568 C1571 1.386 . S
H1569 C1585 0.930 . S
H1570 C1586 0.931 . S
C1571 H1559 0.929 . S
C1571 C1565 1.390 . S
C1571 C1568 1.386 . S
C1572 C1567 1.490 . S
C1572 C1574 1.395 . S
C1572 C1575 1.403 . S
H1573 C1579 0.930 . S
C1574 H1560 0.930 . S
C1574 C1572 1.395 . S
C1574 C1577 1.403 . S
C1575 C1572 1.403 . S
C1575 C1576 1.524 . S
C1575 C1579 1.400 . S
C1576 H1561 0.960 . S
C1576 H1562 0.960 . S
C1576 H1563 0.960 . S
C1576 C1575 1.524 . S
C1577 C1574 1.403 . S
C1577 C1578 1.392 . S
C1577 C1581 1.495 . S
C1578 C1577 1.392 . S
C1578 C1579 1.385 . S
C1578 C1580 1.478 . S
C1579 H1573 0.930 . S
C1579 C1575 1.400 . S
C1579 C1578 1.385 . S
C1580 C1578 1.478 . S
C1580 C1582 1.381 . S
C1580 C1586 1.383 . S
C1581 C1577 1.495 . S
C1581 H1587 0.959 . S
C1581 H1588 0.961 . S
C1581 H1589 0.960 . S
C1582 C1580 1.381 . S
C1582 C1583 1.394 . S
C1582 H1590 0.930 . S
C1583 C1582 1.394 . S
C1583 C1584 1.383 . S
C1583 H1591 0.929 . S
C1584 C1583 1.383 . S
C1584 C1585 1.377 . S
C1585 H1569 0.930 . S
C1585 C1584 1.377 . S
C1585 C1586 1.379 . S
C1586 H1570 0.931 . S
C1586 C1580 1.383 . S
C1586 C1585 1.379 . S
H1587 C1581 0.959 . S
H1588 C1581 0.961 . S
H1589 C1581 0.960 . S
H1590 C1582 0.930 . S
H1591 C1583 0.929 . S
H1592 C1600 0.929 . S
H1593 C1602 0.930 . S
H1594 C1604 0.930 . S
H1595 C1607 0.929 . S
H1596 C1610 0.930 . S
H1597 C1612 0.960 . S
H1598 C1612 0.960 . S
H1599 C1612 0.960 . S
C1600 H1592 0.929 . S
C1600 C1601 1.377 . S
C1600 C1602 1.384 . S
C1601 C1600 1.377 . S
C1601 C1607 1.390 . S
C1602 H1593 0.930 . S
C1602 C1600 1.384 . S
C1602 C1603 1.372 . S
C1603 C1602 1.372 . S
C1603 C1604 1.400 . S
C1603 C1608 1.490 . S
C1604 H1594 0.930 . S
C1604 C1603 1.400 . S
C1604 C1607 1.386 . S
H1605 C1621 0.930 . S
H1606 C1622 0.931 . S
C1607 H1595 0.929 . S
C1607 C1601 1.390 . S
C1607 C1604 1.386 . S
C1608 C1603 1.490 . S
C1608 C1610 1.395 . S
C1608 C1611 1.403 . S
H1609 C1615 0.930 . S
C1610 H1596 0.930 . S
C1610 C1608 1.395 . S
C1610 C1613 1.403 . S
C1611 C1608 1.403 . S
C1611 C1612 1.524 . S
C1611 C1615 1.400 . S
C1612 H1597 0.960 . S
C1612 H1598 0.960 . S
C1612 H1599 0.960 . S
C1612 C1611 1.524 . S
C1613 C1610 1.403 . S
C1613 C1614 1.392 . S
C1613 C1617 1.495 . S
C1614 C1613 1.392 . S
C1614 C1615 1.385 . S
C1614 C1616 1.478 . S
C1615 H1609 0.930 . S
C1615 C1611 1.400 . S
C1615 C1614 1.385 . S
C1616 C1614 1.478 . S
C1616 C1618 1.381 . S
C1616 C1622 1.383 . S
C1617 C1613 1.495 . S
C1617 H1623 0.959 . S
C1617 H1624 0.961 . S
C1617 H1625 0.960 . S
C1618 C1616 1.381 . S
C1618 C1619 1.394 . S
C1618 H1626 0.930 . S
C1619 C1618 1.394 . S
C1619 C1620 1.383 . S
C1619 H1627 0.929 . S
C1620 C1619 1.383 . S
C1620 C1621 1.377 . S
C1621 H1605 0.930 . S
C1621 C1620 1.377 . S
C1621 C1622 1.379 . S
C1622 H1606 0.931 . S
C1622 C1616 1.383 . S
C1622 C1621 1.379 . S
H1623 C1617 0.959 . S
H1624 C1617 0.961 . S
H1625 C1617 0.960 . S
H1626 C1618 0.930 . S
H1627 C1619 0.929 . S
H1628 C1636 0.929 . S
H1629 C1638 0.930 . S
H1630 C1640 0.930 . S
H1631 C1643 0.929 . S
H1632 C1646 0.930 . S
H1633 C1648 0.960 . S
H1634 C1648 0.960 . S
H1635 C1648 0.960 . S
C1636 H1628 0.929 . S
C1636 C1637 1.377 . S
C1636 C1638 1.384 . S
C1637 C1636 1.377 . S
C1637 C1643 1.390 . S
C1638 H1629 0.930 . S
C1638 C1636 1.384 . S
C1638 C1639 1.372 . S
C1639 C1638 1.372 . S
C1639 C1640 1.400 . S
C1639 C1644 1.490 . S
C1640 H1630 0.930 . S
C1640 C1639 1.400 . S
C1640 C1643 1.386 . S
H1641 C1657 0.930 . S
H1642 C1658 0.931 . S
C1643 H1631 0.929 . S
C1643 C1637 1.390 . S
C1643 C1640 1.386 . S
C1644 C1639 1.490 . S
C1644 C1646 1.395 . S
C1644 C1647 1.403 . S
H1645 C1651 0.930 . S
C1646 H1632 0.930 . S
C1646 C1644 1.395 . S
C1646 C1649 1.403 . S
C1647 C1644 1.403 . S
C1647 C1648 1.524 . S
C1647 C1651 1.400 . S
C1648 H1633 0.960 . S
C1648 H1634 0.960 . S
C1648 H1635 0.960 . S
C1648 C1647 1.524 . S
C1649 C1646 1.403 . S
C1649 C1650 1.392 . S
C1649 C1653 1.495 . S
C1650 C1649 1.392 . S
C1650 C1651 1.385 . S
C1650 C1652 1.478 . S
C1651 H1645 0.930 . S
C1651 C1647 1.400 . S
C1651 C1650 1.385 . S
C1652 C1650 1.478 . S
C1652 C1654 1.381 . S
C1652 C1658 1.383 . S
C1653 C1649 1.495 . S
C1653 H1659 0.959 . S
C1653 H1660 0.961 . S
C1653 H1661 0.960 . S
C1654 C1652 1.381 . S
C1654 C1655 1.394 . S
C1654 H1662 0.930 . S
C1655 C1654 1.394 . S
C1655 C1656 1.383 . S
C1655 H1663 0.929 . S
C1656 C1655 1.383 . S
C1656 C1657 1.377 . S
C1657 H1641 0.930 . S
C1657 C1656 1.377 . S
C1657 C1658 1.379 . S
C1658 H1642 0.931 . S
C1658 C1652 1.383 . S
C1658 C1657 1.379 . S
H1659 C1653 0.959 . S
H1660 C1653 0.961 . S
H1661 C1653 0.960 . S
H1662 C1654 0.930 . S
H1663 C1655 0.929 . S
H1664 C1672 0.929 . S
H1665 C1674 0.930 . S
H1666 C1676 0.930 . S
H1667 C1679 0.929 . S
H1668 C1682 0.930 . S
H1669 C1684 0.960 . S
H1670 C1684 0.960 . S
H1671 C1684 0.960 . S
C1672 H1664 0.929 . S
C1672 C1673 1.377 . S
C1672 C1674 1.384 . S
C1673 C1672 1.377 . S
C1673 C1679 1.390 . S
C1674 H1665 0.930 . S
C1674 C1672 1.384 . S
C1674 C1675 1.372 . S
C1675 C1674 1.372 . S
C1675 C1676 1.400 . S
C1675 C1680 1.490 . S
C1676 H1666 0.930 . S
C1676 C1675 1.400 . S
C1676 C1679 1.386 . S
H1677 C1693 0.930 . S
H1678 C1694 0.931 . S
C1679 H1667 0.929 . S
C1679 C1673 1.390 . S
C1679 C1676 1.386 . S
C1680 C1675 1.490 . S
C1680 C1682 1.395 . S
C1680 C1683 1.403 . S
H1681 C1687 0.930 . S
C1682 H1668 0.930 . S
C1682 C1680 1.395 . S
C1682 C1685 1.403 . S
C1683 C1680 1.403 . S
C1683 C1684 1.524 . S
C1683 C1687 1.400 . S
C1684 H1669 0.960 . S
C1684 H1670 0.960 . S
C1684 H1671 0.960 . S
C1684 C1683 1.524 . S
C1685 C1682 1.403 . S
C1685 C1686 1.392 . S
C1685 C1689 1.495 . S
C1686 C1685 1.392 . S
C1686 C1687 1.385 . S
C1686 C1688 1.478 . S
C1687 H1681 0.930 . S
C1687 C1683 1.400 . S
C1687 C1686 1.385 . S
C1688 C1686 1.478 . S
C1688 C1690 1.381 . S
C1688 C1694 1.383 . S
C1689 C1685 1.495 . S
C1689 H1695 0.959 . S
C1689 H1696 0.961 . S
C1689 H1697 0.960 . S
C1690 C1688 1.381 . S
C1690 C1691 1.394 . S
C1690 H1698 0.930 . S
C1691 C1690 1.394 . S
C1691 C1692 1.383 . S
C1691 H1699 0.929 . S
C1692 C1691 1.383 . S
C1692 C1693 1.377 . S
C1693 H1677 0.930 . S
C1693 C1692 1.377 . S
C1693 C1694 1.379 . S
C1694 H1678 0.931 . S
C1694 C1688 1.383 . S
C1694 C1693 1.379 . S
H1695 C1689 0.959 . S
H1696 C1689 0.961 . S
H1697 C1689 0.960 . S
H1698 C1690 0.930 . S
H1699 C1691 0.929 . S
H1700 C1708 0.929 . S
H1701 C1710 0.930 . S
H1702 C1712 0.930 . S
H1703 C1715 0.929 . S
H1704 C1718 0.930 . S
H1705 C1720 0.960 . S
H1706 C1720 0.960 . S
H1707 C1720 0.960 . S
C1708 H1700 0.929 . S
C1708 C1709 1.377 . S
C1708 C1710 1.384 . S
C1709 C1708 1.377 . S
C1709 C1715 1.390 . S
C1710 H1701 0.930 . S
C1710 C1708 1.384 . S
C1710 C1711 1.372 . S
C1711 C1710 1.372 . S
C1711 C1712 1.400 . S
C1711 C1716 1.490 . S
C1712 H1702 0.930 . S
C1712 C1711 1.400 . S
C1712 C1715 1.386 . S
H1713 C1729 0.930 . S
H1714 C1730 0.931 . S
C1715 H1703 0.929 . S
C1715 C1709 1.390 . S
C1715 C1712 1.386 . S
C1716 C1711 1.490 . S
C1716 C1718 1.395 . S
C1716 C1719 1.403 . S
H1717 C1723 0.930 . S
C1718 H1704 0.930 . S
C1718 C1716 1.395 . S
C1718 C1721 1.403 . S
C1719 C1716 1.403 . S
C1719 C1720 1.524 . S
C1719 C1723 1.400 . S
C1720 H1705 0.960 . S
C1720 H1706 0.960 . S
C1720 H1707 0.960 . S
C1720 C1719 1.524 . S
C1721 C1718 1.403 . S
C1721 C1722 1.392 . S
C1721 C1725 1.495 . S
C1722 C1721 1.392 . S
C1722 C1723 1.385 . S
C1722 C1724 1.478 . S
C1723 H1717 0.930 . S
C1723 C1719 1.400 . S
C1723 C1722 1.385 . S
C1724 C1722 1.478 . S
C1724 C1726 1.381 . S
C1724 C1730 1.383 . S
C1725 C1721 1.495 . S
C1725 H1731 0.959 . S
C1725 H1732 0.961 . S
C1725 H1733 0.960 . S
C1726 C1724 1.381 . S
C1726 C1727 1.394 . S
C1726 H1734 0.930 . S
C1727 C1726 1.394 . S
C1727 C1728 1.383 . S
C1727 H1735 0.929 . S
C1728 C1727 1.383 . S
C1728 C1729 1.377 . S
C1729 H1713 0.930 . S
C1729 C1728 1.377 . S
C1729 C1730 1.379 . S
C1730 H1714 0.931 . S
C1730 C1724 1.383 . S
C1730 C1729 1.379 . S
H1731 C1725 0.959 . S
H1732 C1725 0.961 . S
H1733 C1725 0.960 . S
H1734 C1726 0.930 . S
H1735 C1727 0.929 . S
H1736 C1744 0.929 . S
H1737 C1746 0.930 . S
H1738 C1748 0.930 . S
H1739 C1751 0.929 . S
H1740 C1754 0.930 . S
H1741 C1756 0.960 . S
H1742 C1756 0.960 . S
H1743 C1756 0.960 . S
C1744 H1736 0.929 . S
C1744 C1745 1.377 . S
C1744 C1746 1.384 . S
C1745 C1744 1.377 . S
C1745 C1751 1.390 . S
C1746 H1737 0.930 . S
C1746 C1744 1.384 . S
C1746 C1747 1.372 . S
C1747 C1746 1.372 . S
C1747 C1748 1.400 . S
C1747 C1752 1.490 . S
C1748 H1738 0.930 . S
C1748 C1747 1.400 . S
C1748 C1751 1.386 . S
H1749 C1765 0.930 . S
H1750 C1766 0.931 . S
C1751 H1739 0.929 . S
C1751 C1745 1.390 . S
C1751 C1748 1.386 . S
C1752 C1747 1.490 . S
C1752 C1754 1.395 . S
C1752 C1755 1.403 . S
H1753 C1759 0.930 . S
C1754 H1740 0.930 . S
C1754 C1752 1.395 . S
C1754 C1757 1.403 . S
C1755 C1752 1.403 . S
C1755 C1756 1.524 . S
C1755 C1759 1.400 . S
C1756 H1741 0.960 . S
C1756 H1742 0.960 . S
C1756 H1743 0.960 . S
C1756 C1755 1.524 . S
C1757 C1754 1.403 . S
C1757 C1758 1.392 . S
C1757 C1761 1.495 . S
C1758 C1757 1.392 . S
C1758 C1759 1.385 . S
C1758 C1760 1.478 . S
C1759 H1753 0.930 . S
C1759 C1755 1.400 . S
C1759 C1758 1.385 . S
C1760 C1758 1.478 . S
C1760 C1762 1.381 . S
C1760 C1766 1.383 . S
C1761 C1757 1.495 . S
C1761 H1767 0.959 . S
C1761 H1768 0.961 . S
C1761 H1769 0.960 . S
C1762 C1760 1.381 . S
C1762 C1763 1.394 . S
C1762 H1770 0.930 . S
C1763 C1762 1.394 . S
C1763 C1764 1.383 . S
C1763 H1771 0.929 . S
C1764 C1763 1.383 . S
C1764 C1765 1.377 . S
C1765 H1749 0.930 . S
C1765 C1764 1.377 . S
C1765 C1766 1.379 . S
C1766 H1750 0.931 . S
C1766 C1760 1.383 . S
C1766 C1765 1.379 . S
H1767 C1761 0.959 . S
H1768 C1761 0.961 . S
H1769 C1761 0.960 . S
H1770 C1762 0.930 . S
H1771 C1763 0.929 . S
H1772 C1780 0.929 . S
H1773 C1782 0.930 . S
H1774 C1784 0.930 . S
H1775 C1787 0.929 . S
H1776 C1790 0.930 . S
H1777 C1792 0.960 . S
H1778 C1792 0.960 . S
H1779 C1792 0.960 . S
C1780 H1772 0.929 . S
C1780 C1781 1.377 . S
C1780 C1782 1.384 . S
C1781 C1780 1.377 . S
C1781 C1787 1.390 . S
C1782 H1773 0.930 . S
C1782 C1780 1.384 . S
C1782 C1783 1.372 . S
C1783 C1782 1.372 . S
C1783 C1784 1.400 . S
C1783 C1788 1.490 . S
C1784 H1774 0.930 . S
C1784 C1783 1.400 . S
C1784 C1787 1.386 . S
H1785 C1801 0.930 . S
H1786 C1802 0.931 . S
C1787 H1775 0.929 . S
C1787 C1781 1.390 . S
C1787 C1784 1.386 . S
C1788 C1783 1.490 . S
C1788 C1790 1.395 . S
C1788 C1791 1.403 . S
H1789 C1795 0.930 . S
C1790 H1776 0.930 . S
C1790 C1788 1.395 . S
C1790 C1793 1.403 . S
C1791 C1788 1.403 . S
C1791 C1792 1.524 . S
C1791 C1795 1.400 . S
C1792 H1777 0.960 . S
C1792 H1778 0.960 . S
C1792 H1779 0.960 . S
C1792 C1791 1.524 . S
C1793 C1790 1.403 . S
C1793 C1794 1.392 . S
C1793 C1797 1.495 . S
C1794 C1793 1.392 . S
C1794 C1795 1.385 . S
C1794 C1796 1.478 . S
C1795 H1789 0.930 . S
C1795 C1791 1.400 . S
C1795 C1794 1.385 . S
C1796 C1794 1.478 . S
C1796 C1798 1.381 . S
C1796 C1802 1.383 . S
C1797 C1793 1.495 . S
C1797 H1803 0.959 . S
C1797 H1804 0.961 . S
C1797 H1805 0.960 . S
C1798 C1796 1.381 . S
C1798 C1799 1.394 . S
C1798 H1806 0.930 . S
C1799 C1798 1.394 . S
C1799 C1800 1.383 . S
C1799 H1807 0.929 . S
C1800 C1799 1.383 . S
C1800 C1801 1.377 . S
C1801 H1785 0.930 . S
C1801 C1800 1.377 . S
C1801 C1802 1.379 . S
C1802 H1786 0.931 . S
C1802 C1796 1.383 . S
C1802 C1801 1.379 . S
H1803 C1797 0.959 . S
H1804 C1797 0.961 . S
H1805 C1797 0.960 . S
H1806 C1798 0.930 . S
H1807 C1799 0.929 . S
H1808 C1816 0.929 . S
H1809 C1818 0.930 . S
H1810 C1820 0.930 . S
H1811 C1823 0.929 . S
H1812 C1826 0.930 . S
H1813 C1828 0.960 . S
H1814 C1828 0.960 . S
H1815 C1828 0.960 . S
C1816 H1808 0.929 . S
C1816 C1817 1.377 . S
C1816 C1818 1.384 . S
C1817 C1816 1.377 . S
C1817 C1823 1.390 . S
C1818 H1809 0.930 . S
C1818 C1816 1.384 . S
C1818 C1819 1.372 . S
C1819 C1818 1.372 . S
C1819 C1820 1.400 . S
C1819 C1824 1.490 . S
C1820 H1810 0.930 . S
C1820 C1819 1.400 . S
C1820 C1823 1.386 . S
H1821 C1837 0.930 . S
H1822 C1838 0.931 . S
C1823 H1811 0.929 . S
C1823 C1817 1.390 . S
C1823 C1820 1.386 . S
C1824 C1819 1.490 . S
C1824 C1826 1.395 1_556 S
C1824 C1827 1.403 . S
H1825 C1831 0.930 . S
C1826 H1812 0.930 . S
C1826 C1824 1.395 1_554 S
C1826 C1829 1.403 . S
C1827 C1824 1.403 . S
C1827 C1828 1.524 . S
C1827 C1831 1.400 . S
C1828 H1813 0.960 . S
C1828 H1814 0.960 . S
C1828 H1815 0.960 . S
C1828 C1827 1.524 . S
C1829 C1826 1.403 . S
C1829 C1830 1.392 . S
C1829 C1833 1.495 . S
C1830 C1829 1.392 . S
C1830 C1831 1.385 1_554 S
C1830 C1832 1.478 . S
C1831 H1825 0.930 . S
C1831 C1827 1.400 . S
C1831 C1830 1.385 1_556 S
C1832 C1830 1.478 . S
C1832 C1834 1.381 . S
C1832 C1838 1.383 . S
C1833 C1829 1.495 . S
C1833 H1839 0.959 . S
C1833 H1840 0.961 . S
C1833 H1841 0.960 . S
C1834 C1832 1.381 . S
C1834 C1835 1.394 . S
C1834 H1842 0.930 . S
C1835 C1834 1.394 . S
C1835 C1836 1.383 . S
C1835 H1843 0.929 . S
C1836 C1835 1.383 . S
C1836 C1837 1.377 . S
C1837 H1821 0.930 . S
C1837 C1836 1.377 . S
C1837 C1838 1.379 . S
C1838 H1822 0.931 . S
C1838 C1832 1.383 . S
C1838 C1837 1.379 . S
H1839 C1833 0.959 . S
H1840 C1833 0.961 . S
H1841 C1833 0.960 . S
H1842 C1834 0.930 . S
H1843 C1835 0.929 . S
H1844 C1852 0.929 . S
H1845 C1854 0.930 . S
H1846 C1856 0.930 1_556 S
H1847 C1859 0.929 . S
H1848 C1862 0.930 . S
H1849 C1864 0.960 . S
H1850 C1864 0.960 . S
H1851 C1864 0.960 . S
C1852 H1844 0.929 . S
C1852 C1853 1.377 . S
C1852 C1854 1.384 . S
C1853 C1852 1.377 . S
C1853 C1859 1.390 . S
C1854 H1845 0.930 . S
C1854 C1852 1.384 . S
C1854 C1855 1.372 . S
C1855 C1854 1.372 . S
C1855 C1856 1.400 . S
C1855 C1860 1.490 . S
C1856 H1846 0.930 1_554 S
C1856 C1855 1.400 . S
C1856 C1859 1.386 . S
H1857 C1873 0.930 . S
H1858 C1874 0.931 . S
C1859 H1847 0.929 . S
C1859 C1853 1.390 . S
C1859 C1856 1.386 . S
C1860 C1855 1.490 . S
C1860 C1862 1.395 1_554 S
C1860 C1863 1.403 . S
H1861 C1867 0.930 . S
C1862 H1848 0.930 . S
C1862 C1860 1.395 1_556 S
C1862 C1865 1.403 . S
C1863 C1860 1.403 . S
C1863 C1864 1.524 . S
C1863 C1867 1.400 . S
C1864 H1849 0.960 . S
C1864 H1850 0.960 . S
C1864 H1851 0.960 . S
C1864 C1863 1.524 . S
C1865 C1862 1.403 . S
C1865 C1866 1.392 . S
C1865 C1869 1.495 . S
C1866 C1865 1.392 . S
C1866 C1867 1.385 1_556 S
C1866 C1868 1.478 . S
C1867 H1861 0.930 . S
C1867 C1863 1.400 . S
C1867 C1866 1.385 1_554 S
C1868 C1866 1.478 . S
C1868 C1870 1.381 . S
C1868 C1874 1.383 . S
C1869 C1865 1.495 . S
C1869 H1875 0.959 . S
C1869 H1876 0.961 . S
C1869 H1877 0.960 . S
C1870 C1868 1.381 . S
C1870 C1871 1.394 . S
C1870 H1878 0.930 1_556 S
C1871 C1870 1.394 . S
C1871 C1872 1.383 . S
C1871 H1879 0.929 . S
C1872 C1871 1.383 . S
C1872 C1873 1.377 . S
C1873 H1857 0.930 . S
C1873 C1872 1.377 . S
C1873 C1874 1.379 . S
C1874 H1858 0.931 . S
C1874 C1868 1.383 . S
C1874 C1873 1.379 . S
H1875 C1869 0.959 . S
H1876 C1869 0.961 . S
H1877 C1869 0.960 . S
H1878 C1870 0.930 1_554 S
H1879 C1871 0.929 . S
H1880 C1888 0.929 . S
H1881 C1890 0.930 . S
H1882 C1892 0.930 . S
H1883 C1895 0.929 1_556 S
H1884 C1898 0.930 . S
H1885 C1900 0.960 . S
H1886 C1900 0.960 . S
H1887 C1900 0.960 . S
C1888 H1880 0.929 . S
C1888 C1889 1.377 . S
C1888 C1890 1.384 . S
C1889 C1888 1.377 . S
C1889 C1895 1.390 . S
C1890 H1881 0.930 . S
C1890 C1888 1.384 . S
C1890 C1891 1.372 . S
C1891 C1890 1.372 . S
C1891 C1892 1.400 1_554 S
C1891 C1896 1.490 . S
C1892 H1882 0.930 . S
C1892 C1891 1.400 1_556 S
C1892 C1895 1.386 1_556 S
H1893 C1909 0.930 . S
H1894 C1910 0.931 . S
C1895 H1883 0.929 1_554 S
C1895 C1889 1.390 . S
C1895 C1892 1.386 1_554 S
C1896 C1891 1.490 . S
C1896 C1898 1.395 . S
C1896 C1899 1.403 1_554 S
H1897 C1903 0.930 . S
C1898 H1884 0.930 . S
C1898 C1896 1.395 . S
C1898 C1901 1.403 . S
C1899 C1896 1.403 1_556 S
C1899 C1900 1.524 . S
C1899 C1903 1.400 . S
C1900 H1885 0.960 . S
C1900 H1886 0.960 . S
C1900 H1887 0.960 . S
C1900 C1899 1.524 . S
C1901 C1898 1.403 . S
C1901 C1902 1.392 1_554 S
C1901 C1905 1.495 . S
C1902 C1901 1.392 1_556 S
C1902 C1903 1.385 . S
C1902 C1904 1.478 . S
C1903 H1897 0.930 . S
C1903 C1899 1.400 . S
C1903 C1902 1.385 . S
C1904 C1902 1.478 . S
C1904 C1906 1.381 1_556 S
C1904 C1910 1.383 . S
C1905 C1901 1.495 . S
C1905 H1911 0.959 . S
C1905 H1912 0.961 . S
C1905 H1913 0.960 . S
C1906 C1904 1.381 1_554 S
C1906 C1907 1.394 1_554 S
C1906 H1914 0.930 . S
C1907 C1906 1.394 1_556 S
C1907 C1908 1.383 . S
C1907 H1915 0.929 1_556 S
C1908 C1907 1.383 . S
C1908 C1909 1.377 . S
C1909 H1893 0.930 . S
C1909 C1908 1.377 . S
C1909 C1910 1.379 . S
C1910 H1894 0.931 . S
C1910 C1904 1.383 . S
C1910 C1909 1.379 . S
H1911 C1905 0.959 . S
H1912 C1905 0.961 . S
H1913 C1905 0.960 . S
H1914 C1906 0.930 . S
H1915 C1907 0.929 1_554 S
H1916 C1924 0.929 . S
H1917 C1926 0.930 . S
H1918 C1928 0.930 . S
H1919 C1931 0.929 . S
H1920 C1934 0.930 . S
H1921 C1936 0.960 . S
H1922 C1936 0.960 . S
H1923 C1936 0.960 . S
C1924 H1916 0.929 . S
C1924 C1925 1.377 . S
C1924 C1926 1.384 . S
C1925 C1924 1.377 . S
C1925 C1931 1.390 . S
C1926 H1917 0.930 . S
C1926 C1924 1.384 . S
C1926 C1927 1.372 . S
C1927 C1926 1.372 . S
C1927 C1928 1.400 . S
C1927 C1932 1.490 . S
C1928 H1918 0.930 . S
C1928 C1927 1.400 . S
C1928 C1931 1.386 . S
H1929 C1945 0.930 . S
H1930 C1946 0.936 . S
C1931 H1919 0.929 . S
C1931 C1925 1.390 . S
C1931 C1928 1.386 . S
C1932 C1927 1.490 . S
C1932 C1934 1.395 . S
C1932 C1935 1.403 1_554 S
H1933 C1939 0.930 . S
C1934 H1920 0.930 . S
C1934 C1932 1.395 . S
C1934 C1937 1.403 . S
C1935 C1932 1.403 1_556 S
C1935 C1936 1.524 . S
C1935 C1939 1.400 . S
C1936 H1921 0.960 . S
C1936 H1922 0.960 . S
C1936 H1923 0.960 . S
C1936 C1935 1.524 . S
C1937 C1934 1.403 . S
C1937 C1938 1.392 1_554 S
C1937 C1941 1.495 . S
C1938 C1937 1.392 1_556 S
C1938 C1939 1.385 . S
C1938 C1940 1.478 . S
C1939 H1933 0.930 . S
C1939 C1935 1.400 . S
C1939 C1938 1.385 . S
C1940 C1938 1.478 . S
C1940 C1942 1.381 . S
C1940 C1946 1.383 . S
C1941 C1937 1.495 . S
C1941 H1947 0.959 . S
C1941 H1948 0.961 . S
C1941 H1949 0.960 . S
C1942 C1940 1.381 . S
C1942 C1943 1.394 . S
C1942 H1950 0.930 . S
C1943 C1942 1.394 . S
C1943 C1944 1.383 . S
C1943 H1951 0.929 . S
C1944 C1943 1.383 . S
C1944 C1945 1.377 . S
C1945 H1929 0.930 . S
C1945 C1944 1.377 . S
C1945 C1946 1.379 . S
C1946 H1930 0.936 . S
C1946 C1940 1.383 . S
C1946 C1945 1.379 . S
H1947 C1941 0.959 . S
H1948 C1941 0.961 . S
H1949 C1941 0.960 . S
H1950 C1942 0.930 . S
H1951 C1943 0.929 . S
H1952 C1960 0.929 . S
H1953 C1962 0.930 . S
H1954 C1964 0.930 . S
H1955 C1967 0.929 . S
H1956 C1970 0.930 . S
H1957 C1972 0.960 . S
H1958 C1972 0.960 . S
H1959 C1972 0.960 . S
C1960 H1952 0.929 . S
C1960 C1961 1.377 . S
C1960 C1962 1.384 . S
C1961 C1960 1.377 . S
C1961 C1967 1.390 . S
C1962 H1953 0.930 . S
C1962 C1960 1.384 . S
C1962 C1963 1.372 . S
C1963 C1962 1.372 . S
C1963 C1964 1.400 . S
C1963 C1968 1.490 . S
C1964 H1954 0.930 . S
C1964 C1963 1.400 . S
C1964 C1967 1.386 . S
H1965 C1981 0.930 . S
H1966 C1982 0.931 . S
C1967 H1955 0.929 . S
C1967 C1961 1.390 . S
C1967 C1964 1.386 . S
C1968 C1963 1.490 . S
C1968 C1970 1.395 . S
C1968 C1971 1.403 . S
H1969 C1975 0.930 . S
C1970 H1956 0.930 . S
C1970 C1968 1.395 . S
C1970 C1973 1.403 . S
C1971 C1968 1.403 . S
C1971 C1972 1.524 . S
C1971 C1975 1.400 . S
C1972 H1957 0.960 . S
C1972 H1958 0.960 . S
C1972 H1959 0.960 . S
C1972 C1971 1.524 . S
C1973 C1970 1.403 . S
C1973 C1974 1.392 . S
C1973 C1977 1.495 . S
C1974 C1973 1.392 . S
C1974 C1975 1.385 . S
C1974 C1976 1.478 . S
C1975 H1969 0.930 . S
C1975 C1971 1.400 . S
C1975 C1974 1.385 . S
C1976 C1974 1.478 . S
C1976 C1978 1.381 . S
C1976 C1982 1.383 . S
C1977 C1973 1.495 . S
C1977 H1983 0.959 . S
C1977 H1984 0.961 . S
C1977 H1985 0.960 . S
C1978 C1976 1.381 . S
C1978 C1979 1.394 . S
C1978 H1986 0.930 . S
C1979 C1978 1.394 . S
C1979 C1980 1.383 . S
C1979 H1987 0.929 . S
C1980 C1979 1.383 . S
C1980 C1981 1.377 . S
C1981 H1965 0.930 . S
C1981 C1980 1.377 . S
C1981 C1982 1.379 . S
C1982 H1966 0.931 . S
C1982 C1976 1.383 . S
C1982 C1981 1.379 . S
H1983 C1977 0.959 . S
H1984 C1977 0.961 . S
H1985 C1977 0.960 . S
H1986 C1978 0.930 . S
H1987 C1979 0.929 . S
H1988 C1996 0.929 . S
H1989 C1998 0.930 . S
H1990 C2000 0.930 . S
H1991 C2003 0.929 . S
H1992 C2006 0.930 . S
H1993 C2008 0.960 . S
H1994 C2008 0.960 . S
H1995 C2008 0.960 . S
C1996 H1988 0.929 . S
C1996 C1997 1.377 . S
C1996 C1998 1.384 . S
C1997 C1996 1.377 . S
C1997 C2003 1.390 . S
C1998 H1989 0.930 . S
C1998 C1996 1.384 . S
C1998 C1999 1.372 . S
C1999 C1998 1.372 . S
C1999 C2000 1.400 . S
C1999 C2004 1.490 . S
C2000 H1990 0.930 . S
C2000 C1999 1.400 . S
C2000 C2003 1.386 . S
H2001 C2017 0.930 . S
H2002 C2018 0.931 . S
C2003 H1991 0.929 . S
C2003 C1997 1.390 . S
C2003 C2000 1.386 . S
C2004 C1999 1.490 . S
C2004 C2006 1.395 . S
C2004 C2007 1.403 . S
H2005 C2011 0.930 . S
C2006 H1992 0.930 . S
C2006 C2004 1.395 . S
C2006 C2009 1.403 . S
C2007 C2004 1.403 . S
C2007 C2008 1.524 . S
C2007 C2011 1.400 . S
C2008 H1993 0.960 . S
C2008 H1994 0.960 . S
C2008 H1995 0.960 . S
C2008 C2007 1.524 . S
C2009 C2006 1.403 . S
C2009 C2010 1.392 . S
C2009 C2013 1.495 . S
C2010 C2009 1.392 . S
C2010 C2011 1.385 . S
C2010 C2012 1.478 . S
C2011 H2005 0.930 . S
C2011 C2007 1.400 . S
C2011 C2010 1.385 . S
C2012 C2010 1.478 . S
C2012 C2014 1.381 . S
C2012 C2018 1.383 . S
C2013 C2009 1.495 . S
C2013 H2019 0.959 . S
C2013 H2020 0.961 . S
C2013 H2021 0.960 . S
C2014 C2012 1.381 . S
C2014 C2015 1.394 . S
C2014 H2022 0.930 . S
C2015 C2014 1.394 . S
C2015 C2016 1.383 . S
C2015 H2023 0.929 . S
C2016 C2015 1.383 . S
C2016 C2017 1.377 . S
C2017 H2001 0.930 . S
C2017 C2016 1.377 . S
C2017 C2018 1.379 . S
C2018 H2002 0.931 . S
C2018 C2012 1.383 . S
C2018 C2017 1.379 . S
H2019 C2013 0.959 . S
H2020 C2013 0.961 . S
H2021 C2013 0.960 . S
H2022 C2014 0.930 . S
H2023 C2015 0.929 . S
H2024 C2032 0.929 . S
H2025 C2034 0.930 . S
H2026 C2036 0.930 . S
H2027 C2039 0.929 . S
H2028 C2042 0.930 . S
H2029 C2044 0.960 . S
H2030 C2044 0.960 . S
H2031 C2044 0.960 . S
C2032 H2024 0.929 . S
C2032 C2033 1.377 . S
C2032 C2034 1.384 . S
C2033 C2032 1.377 . S
C2033 C2039 1.390 . S
C2034 H2025 0.930 . S
C2034 C2032 1.384 . S
C2034 C2035 1.372 . S
C2035 C2034 1.372 . S
C2035 C2036 1.400 . S
C2035 C2040 1.490 . S
C2036 H2026 0.930 . S
C2036 C2035 1.400 . S
C2036 C2039 1.386 . S
H2037 C2053 0.930 . S
H2038 C2054 0.931 . S
C2039 H2027 0.929 . S
C2039 C2033 1.390 . S
C2039 C2036 1.386 . S
C2040 C2035 1.490 . S
C2040 C2042 1.395 . S
C2040 C2043 1.403 . S
H2041 C2047 0.930 . S
C2042 H2028 0.930 . S
C2042 C2040 1.395 . S
C2042 C2045 1.403 . S
C2043 C2040 1.403 . S
C2043 C2044 1.524 . S
C2043 C2047 1.400 . S
C2044 H2029 0.960 . S
C2044 H2030 0.960 . S
C2044 H2031 0.960 . S
C2044 C2043 1.524 . S
C2045 C2042 1.403 . S
C2045 C2046 1.392 . S
C2045 C2049 1.495 . S
C2046 C2045 1.392 . S
C2046 C2047 1.385 . S
C2046 C2048 1.478 . S
C2047 H2041 0.930 . S
C2047 C2043 1.400 . S
C2047 C2046 1.385 . S
C2048 C2046 1.478 . S
C2048 C2050 1.381 . S
C2048 C2054 1.383 . S
C2049 C2045 1.495 . S
C2049 H2055 0.959 . S
C2049 H2056 0.961 . S
C2049 H2057 0.960 . S
C2050 C2048 1.381 . S
C2050 C2051 1.394 . S
C2050 H2058 0.930 . S
C2051 C2050 1.394 . S
C2051 C2052 1.383 . S
C2051 H2059 0.929 . S
C2052 C2051 1.383 . S
C2052 C2053 1.377 . S
C2053 H2037 0.930 . S
C2053 C2052 1.377 . S
C2053 C2054 1.379 . S
C2054 H2038 0.931 . S
C2054 C2048 1.383 . S
C2054 C2053 1.379 . S
H2055 C2049 0.959 . S
H2056 C2049 0.961 . S
H2057 C2049 0.960 . S
H2058 C2050 0.930 . S
H2059 C2051 0.929 . S
H2060 C2068 0.929 . S
H2061 C2070 0.930 . S
H2062 C2072 0.930 . S
H2063 C2075 0.929 . S
H2064 C2078 0.930 . S
H2065 C2080 0.960 . S
H2066 C2080 0.960 . S
H2067 C2080 0.960 . S
C2068 H2060 0.929 . S
C2068 C2069 1.377 . S
C2068 C2070 1.384 . S
C2069 C2068 1.377 . S
C2069 C2075 1.390 . S
C2070 H2061 0.930 . S
C2070 C2068 1.384 . S
C2070 C2071 1.372 . S
C2071 C2070 1.372 . S
C2071 C2072 1.400 . S
C2071 C2076 1.490 . S
C2072 H2062 0.930 . S
C2072 C2071 1.400 . S
C2072 C2075 1.386 . S
H2073 C2089 0.930 . S
H2074 C2090 0.931 . S
C2075 H2063 0.929 . S
C2075 C2069 1.390 . S
C2075 C2072 1.386 . S
C2076 C2071 1.490 . S
C2076 C2078 1.395 . S
C2076 C2079 1.403 . S
H2077 C2083 0.930 . S
C2078 H2064 0.930 . S
C2078 C2076 1.395 . S
C2078 C2081 1.403 . S
C2079 C2076 1.403 . S
C2079 C2080 1.524 . S
C2079 C2083 1.400 . S
C2080 H2065 0.960 . S
C2080 H2066 0.960 . S
C2080 H2067 0.960 . S
C2080 C2079 1.524 . S
C2081 C2078 1.403 . S
C2081 C2082 1.392 . S
C2081 C2085 1.495 . S
C2082 C2081 1.392 . S
C2082 C2083 1.385 . S
C2082 C2084 1.478 . S
C2083 H2077 0.930 . S
C2083 C2079 1.400 . S
C2083 C2082 1.385 . S
C2084 C2082 1.478 . S
C2084 C2086 1.381 . S
C2084 C2090 1.383 . S
C2085 C2081 1.495 . S
C2085 H2091 0.959 . S
C2085 H2092 0.961 . S
C2085 H2093 0.960 . S
C2086 C2084 1.381 . S
C2086 C2087 1.394 . S
C2086 H2094 0.930 . S
C2087 C2086 1.394 . S
C2087 C2088 1.383 . S
C2087 H2095 0.929 . S
C2088 C2087 1.383 . S
C2088 C2089 1.377 . S
C2089 H2073 0.930 . S
C2089 C2088 1.377 . S
C2089 C2090 1.379 . S
C2090 H2074 0.931 . S
C2090 C2084 1.383 . S
C2090 C2089 1.379 . S
H2091 C2085 0.959 . S
H2092 C2085 0.961 . S
H2093 C2085 0.960 . S
H2094 C2086 0.930 . S
H2095 C2087 0.929 . S
C377 C16 0.952 . S
C396 C131 0.970 . S
C413 C39 0.948 . S
C432 C154 0.964 . S
C449 C177 0.935 . S
C468 C62 0.913 . S
C485 C109 0.931 . S
C504 C85 0.907 . S
C521 C315 0.943 . S
C540 C200 0.927 . S
C557 C223 0.941 . S
C576 C338 0.956 . S
C593 C361 0.944 . S
C612 C246 0.950 . S
C629 C293 0.933 . S
C648 C269 0.957 . S
C665 C19 1.523 1_565 S
C684 C44 1.487 . S
C701 C67 1.508 . S
C720 C42 1.513 1_655 S
C737 C90 1.519 . S
C756 C65 1.540 1_545 S
C773 C88 1.525 1_455 S
C792 C21 1.485 . S
C809 C110 1.526 1_565 S
C828 C182 1.502 . S
C845 C112 1.504 . S
C864 C134 1.488 1_655 S
C881 C136 1.488 . S
C900 C157 1.514 1_545 S
C917 C159 1.497 . S
C936 C180 1.507 1_455 S
C953 C203 1.524 . S
C972 C228 1.497 . S
C989 C251 1.508 . S
C1008 C226 1.522 . S
C1025 C249 1.540 . S
C1044 C274 1.510 . S
C1061 C272 1.527 . S
C1080 C205 1.481 . S
C1097 C366 1.500 . S
C1116 C294 1.522 . S
C1133 C296 1.505 . S
C1152 C318 1.502 . S
C1169 C320 1.488 . S
C1188 C341 1.511 . S
C1205 C364 1.519 . S
C1224 C343 1.477 . S
C1241 C156 1.310 . S
C1260 C17 1.311 . S
C1277 C179 1.303 . S
C1296 C40 1.282 . S
C1313 C63 1.323 . S
C1332 C111 1.275 . S
C1349 C86 1.309 . S
C1368 C133 1.321 . S
C1385 C64 1.358 . S
C1404 C108 1.355 . S
C1421 C132 1.315 . S
C1440 C87 1.324 . S
C1457 C155 1.306 . S
C1476 C18 1.288 . S
C1493 C41 1.317 . S
C1512 C178 1.311 . S
C1529 C201 1.308 . S
C1548 C340 1.323 . S
C1565 C224 1.308 . S
C1584 C363 1.314 . S
C1601 C295 1.302 . S
C1620 C247 1.302 . S
C1637 C270 1.312 . S
C1656 C317 1.305 . S
C1673 C292 1.359 . S
C1692 C248 1.369 . S
C1709 C316 1.314 . S
C1728 C271 1.327 . S
C1745 C339 1.309 . S
C1764 C202 1.323 . S
C1781 C225 1.314 . S
C1800 C362 1.321 . S
C1817 C365 1.210 . S
C1836 C20 1.209 . S
C1853 C297 1.221 . S
C1872 C43 1.200 . S
C1889 C66 1.190 . S
C1908 C319 1.205 . S
C1925 C342 1.178 . S
C1944 C89 1.185 . S
C1961 C113 1.222 . S
C1980 C227 1.198 . S
C1997 C135 1.192 . S
C2016 C250 1.178 . S
C2033 C273 1.179 . S
C2052 C158 1.154 . S
C2069 C181 1.206 . S
C2088 C204 1.189 . S
