# Generated by pormake.
# Topology snl, (6)-cn, num edge types: 1
# Building blocks:
#     Node 0, Type 0, BuildingBlock: FUNLAD_clean_sbu_0, # of connection points: 6
#     Node 1, Type 0, BuildingBlock: FUNLAD_clean_sbu_0, # of connection points: 6
#     Node 2, Type 0, BuildingBlock: FUNLAD_clean_sbu_0, # of connection points: 6
#     Node 3, Type 0, BuildingBlock: FUNLAD_clean_sbu_0, # of connection points: 6
#     Node 4, Type 0, BuildingBlock: FUNLAD_clean_sbu_0, # of connection points: 6
#     Node 5, Type 0, BuildingBlock: FUNLAD_clean_sbu_0, # of connection points: 6
#     Node 6, Type 0, BuildingBlock: FUNLAD_clean_sbu_0, # of connection points: 6
#     Node 7, Type 0, BuildingBlock: FUNLAD_clean_sbu_0, # of connection points: 6
#     Node 8, Type 0, BuildingBlock: FUNLAD_clean_sbu_0, # of connection points: 6
#     Node 9, Type 0, BuildingBlock: FUNLAD_clean_sbu_0, # of connection points: 6
#     Node 10, Type 0, BuildingBlock: FUNLAD_clean_sbu_0, # of connection points: 6
#     Node 11, Type 0, BuildingBlock: FUNLAD_clean_sbu_0, # of connection points: 6
#     Node 12, Type 0, BuildingBlock: FUNLAD_clean_sbu_0, # of connection points: 6
#     Node 13, Type 0, BuildingBlock: FUNLAD_clean_sbu_0, # of connection points: 6
#     Node 14, Type 0, BuildingBlock: FUNLAD_clean_sbu_0, # of connection points: 6
#     Node 15, Type 0, BuildingBlock: FUNLAD_clean_sbu_0, # of connection points: 6
#     Edge 16, Type (0, 0), BuildingBlock: XIVTED_clean_linker_0, # of connection points: 2
#     Edge 17, Type (0, 0), BuildingBlock: XIVTED_clean_linker_0, # of connection points: 2
#     Edge 18, Type (0, 0), BuildingBlock: XIVTED_clean_linker_0, # of connection points: 2
#     Edge 19, Type (0, 0), BuildingBlock: XIVTED_clean_linker_0, # of connection points: 2
#     Edge 20, Type (0, 0), BuildingBlock: XIVTED_clean_linker_0, # of connection points: 2
#     Edge 21, Type (0, 0), BuildingBlock: XIVTED_clean_linker_0, # of connection points: 2
#     Edge 22, Type (0, 0), BuildingBlock: XIVTED_clean_linker_0, # of connection points: 2
#     Edge 23, Type (0, 0), BuildingBlock: XIVTED_clean_linker_0, # of connection points: 2
#     Edge 24, Type (0, 0), BuildingBlock: XIVTED_clean_linker_0, # of connection points: 2
#     Edge 25, Type (0, 0), BuildingBlock: XIVTED_clean_linker_0, # of connection points: 2
#     Edge 26, Type (0, 0), BuildingBlock: XIVTED_clean_linker_0, # of connection points: 2
#     Edge 27, Type (0, 0), BuildingBlock: XIVTED_clean_linker_0, # of connection points: 2
#     Edge 28, Type (0, 0), BuildingBlock: XIVTED_clean_linker_0, # of connection points: 2
#     Edge 29, Type (0, 0), BuildingBlock: XIVTED_clean_linker_0, # of connection points: 2
#     Edge 30, Type (0, 0), BuildingBlock: XIVTED_clean_linker_0, # of connection points: 2
#     Edge 31, Type (0, 0), BuildingBlock: XIVTED_clean_linker_0, # of connection points: 2
#     Edge 32, Type (0, 0), BuildingBlock: XIVTED_clean_linker_0, # of connection points: 2
#     Edge 33, Type (0, 0), BuildingBlock: XIVTED_clean_linker_0, # of connection points: 2
#     Edge 34, Type (0, 0), BuildingBlock: XIVTED_clean_linker_0, # of connection points: 2
#     Edge 35, Type (0, 0), BuildingBlock: XIVTED_clean_linker_0, # of connection points: 2
#     Edge 36, Type (0, 0), BuildingBlock: XIVTED_clean_linker_0, # of connection points: 2
#     Edge 37, Type (0, 0), BuildingBlock: XIVTED_clean_linker_0, # of connection points: 2
#     Edge 38, Type (0, 0), BuildingBlock: XIVTED_clean_linker_0, # of connection points: 2
#     Edge 39, Type (0, 0), BuildingBlock: XIVTED_clean_linker_0, # of connection points: 2
#     Edge 40, Type (0, 0), BuildingBlock: XIVTED_clean_linker_0, # of connection points: 2
#     Edge 41, Type (0, 0), BuildingBlock: XIVTED_clean_linker_0, # of connection points: 2
#     Edge 42, Type (0, 0), BuildingBlock: XIVTED_clean_linker_0, # of connection points: 2
#     Edge 43, Type (0, 0), BuildingBlock: XIVTED_clean_linker_0, # of connection points: 2
#     Edge 44, Type (0, 0), BuildingBlock: XIVTED_clean_linker_0, # of connection points: 2
#     Edge 45, Type (0, 0), BuildingBlock: XIVTED_clean_linker_0, # of connection points: 2
#     Edge 46, Type (0, 0), BuildingBlock: XIVTED_clean_linker_0, # of connection points: 2
#     Edge 47, Type (0, 0), BuildingBlock: XIVTED_clean_linker_0, # of connection points: 2
#     Edge 48, Type (0, 0), BuildingBlock: XIVTED_clean_linker_0, # of connection points: 2
#     Edge 49, Type (0, 0), BuildingBlock: XIVTED_clean_linker_0, # of connection points: 2
#     Edge 50, Type (0, 0), BuildingBlock: XIVTED_clean_linker_0, # of connection points: 2
#     Edge 51, Type (0, 0), BuildingBlock: XIVTED_clean_linker_0, # of connection points: 2
#     Edge 52, Type (0, 0), BuildingBlock: XIVTED_clean_linker_0, # of connection points: 2
#     Edge 53, Type (0, 0), BuildingBlock: XIVTED_clean_linker_0, # of connection points: 2
#     Edge 54, Type (0, 0), BuildingBlock: XIVTED_clean_linker_0, # of connection points: 2
#     Edge 55, Type (0, 0), BuildingBlock: XIVTED_clean_linker_0, # of connection points: 2
#     Edge 56, Type (0, 0), BuildingBlock: XIVTED_clean_linker_0, # of connection points: 2
#     Edge 57, Type (0, 0), BuildingBlock: XIVTED_clean_linker_0, # of connection points: 2
#     Edge 58, Type (0, 0), BuildingBlock: XIVTED_clean_linker_0, # of connection points: 2
#     Edge 59, Type (0, 0), BuildingBlock: XIVTED_clean_linker_0, # of connection points: 2
#     Edge 60, Type (0, 0), BuildingBlock: XIVTED_clean_linker_0, # of connection points: 2
#     Edge 61, Type (0, 0), BuildingBlock: XIVTED_clean_linker_0, # of connection points: 2
#     Edge 62, Type (0, 0), BuildingBlock: XIVTED_clean_linker_0, # of connection points: 2
#     Edge 63, Type (0, 0), BuildingBlock: XIVTED_clean_linker_0, # of connection points: 2
# Relax obj value: 0.104
# Max RMSD: 0.123
# Mean RMSD: 0.098
data_MOF--net-snl--node1-FUNLAD_clean_sbu_0--edge1-XIVTED_clean_linker_0
_symmetry_space_group_name_H-M    P1
_symmetry_Int_Tables_number       1
_symmetry_cell_setting            triclinic
loop_
_symmetry_equiv_pos_as_xyz
'x, y, z'
_cell_length_a     73.024384
_cell_length_b     71.282868
_cell_length_c     15.515744
_cell_angle_alpha  90.582453
_cell_angle_beta   90.301837
_cell_angle_gamma 90.480074
loop_
_atom_site_label
_atom_site_type_symbol
_atom_site_fract_x
_atom_site_fract_y
_atom_site_fract_z
_atom_type_partial_charge
C0 C 0.16813 0.63852 0.49634 0.0
N1 N 0.16773 0.68252 0.32253 0.0
C2 C 0.1554 0.69133 0.37385 0.0
C3 C 0.15363 0.71073 0.37074 0.0
C4 C 0.16467 0.72102 0.3142 0.0
C5 C 0.17781 0.71162 0.26466 0.0
C6 C 0.1791 0.69222 0.26977 0.0
Zn7 Zn 0.16817 0.6544 0.31898 0.0
C8 C 0.20893 0.63999 0.32004 0.0
N9 N 0.16875 0.59555 0.31211 0.0
C10 C 0.15592 0.58455 0.35049 0.0
C11 C 0.18171 0.58818 0.25946 0.0
C12 C 0.18175 0.56912 0.24095 0.0
C13 C 0.16817 0.55754 0.27597 0.0
C14 C 0.15532 0.56531 0.33275 0.0
Zn15 Zn 0.16803 0.62376 0.31948 0.0
O16 O 0.1683 0.6538 0.45497 0.0
C17 C 0.12719 0.63843 0.31734 0.0
O18 O 0.16797 0.62304 0.45511 0.0
H19 H 0.19149 0.59721 0.22798 0.0
H20 H 0.14654 0.68324 0.41524 0.0
H21 H 0.14575 0.5908 0.39197 0.0
O22 O 0.13665 0.65369 0.31778 0.0
O23 O 0.13644 0.62319 0.31789 0.0
H24 H 0.18881 0.68484 0.22976 0.0
O25 O 0.168 0.62436 0.18339 0.0
O26 O 0.16802 0.65502 0.18307 0.0
O27 O 0.19959 0.62469 0.3212 0.0
O28 O 0.1996 0.65514 0.31933 0.0
C29 C 0.16801 0.63957 0.14186 0.0
H30 H 0.14321 0.71747 0.4093 0.0
H31 H 0.18672 0.71915 0.22114 0.0
H32 H 0.19164 0.56373 0.19538 0.0
H33 H 0.14465 0.55672 0.36084 0.0
C34 C 0.67461 0.90133 0.38867 0.0
N35 N 0.63253 0.90866 0.21282 0.0
C36 C 0.62256 0.89754 0.26584 0.0
C37 C 0.60367 0.89898 0.26762 0.0
C38 C 0.59503 0.91202 0.21458 0.0
C39 C 0.60559 0.92365 0.16172 0.0
C40 C 0.62455 0.92165 0.16155 0.0
Zn41 Zn 0.65958 0.90465 0.21097 0.0
C42 C 0.67999 0.94032 0.21875 0.0
N43 N 0.7161 0.89499 0.21153 0.0
C44 C 0.72301 0.88144 0.26321 0.0
C45 C 0.7271 0.90615 0.16337 0.0
C46 C 0.746 0.90445 0.16911 0.0
C47 C 0.75349 0.89112 0.22469 0.0
C48 C 0.74184 0.87919 0.27053 0.0
Zn49 Zn 0.68909 0.89954 0.21151 0.0
O50 O 0.65986 0.90414 0.34741 0.0
C51 C 0.66763 0.86409 0.20455 0.0
O52 O 0.68931 0.8988 0.34723 0.0
H53 H 0.72121 0.91673 0.12243 0.0
H54 H 0.62924 0.88741 0.3064 0.0
H55 H 0.71392 0.87279 0.301 0.0
O56 O 0.65483 0.87592 0.20584 0.0
O57 O 0.68412 0.86988 0.20611 0.0
H58 H 0.63286 0.93029 0.12003 0.0
O59 O 0.68891 0.9003 0.07534 0.0
O60 O 0.65933 0.90523 0.07544 0.0
O61 O 0.69374 0.92947 0.2181 0.0
O62 O 0.66402 0.9333 0.21557 0.0
C63 C 0.6741 0.90293 0.03409 0.0
H64 H 0.5959 0.89004 0.31039 0.0
H65 H 0.59925 0.93386 0.1201 0.0
H66 H 0.75468 0.91376 0.13223 0.0
H67 H 0.74723 0.86887 0.31454 0.0
C68 C 0.39543 0.36933 0.1215 0.0
N69 N 0.43873 0.36865 0.30356 0.0
C70 C 0.44838 0.35497 0.26271 0.0
C71 C 0.46701 0.35264 0.28093 0.0
C72 C 0.47569 0.36458 0.34141 0.0
C73 C 0.46551 0.37912 0.37909 0.0
C74 C 0.44703 0.3809 0.35921 0.0
Zn75 Zn 0.41086 0.36899 0.29998 0.0
C76 C 0.39614 0.41005 0.30068 0.0
N77 N 0.35253 0.36916 0.30522 0.0
C78 C 0.34508 0.35459 0.3495 0.0
C79 C 0.34251 0.3847 0.28746 0.0
C80 C 0.32511 0.38685 0.32334 0.0
C81 C 0.31797 0.37266 0.3759 0.0
C82 C 0.32768 0.35594 0.38419 0.0
Zn83 Zn 0.38054 0.36945 0.29708 0.0
O84 O 0.4104 0.3687 0.16381 0.0
C85 C 0.39525 0.32855 0.29646 0.0
O86 O 0.38027 0.36993 0.16157 0.0
H87 H 0.34855 0.39615 0.25209 0.0
H88 H 0.44147 0.34531 0.219 0.0
H89 H 0.35317 0.34262 0.36662 0.0
O90 O 0.41043 0.33755 0.30094 0.0
O91 O 0.3807 0.33826 0.29198 0.0
H92 H 0.43907 0.39145 0.39224 0.0
O93 O 0.381 0.369 0.43319 0.0
O94 O 0.41092 0.36922 0.43587 0.0
O95 O 0.38109 0.40077 0.30111 0.0
O96 O 0.41097 0.40059 0.29948 0.0
C97 C 0.39584 0.36908 0.47587 0.0
H98 H 0.4744 0.34137 0.24978 0.0
H99 H 0.47147 0.38845 0.42729 0.0
H100 H 0.31792 0.39996 0.31536 0.0
H101 H 0.32284 0.34479 0.42547 0.0
C102 C 0.8806 0.18547 0.76808 0.0
N103 N 0.86788 0.22834 0.94091 0.0
C104 C 0.87975 0.23985 0.89932 0.0
C105 C 0.87621 0.25893 0.8936 0.0
C106 C 0.8601 0.26622 0.92958 0.0
C107 C 0.84802 0.25394 0.97163 0.0
C108 C 0.85228 0.23498 -0.02284 0.0
Zn109 Zn 0.8733 0.20067 0.94526 0.0
C110 C 0.83991 0.17745 0.91267 0.0
N111 N 0.88409 0.14261 0.95109 0.0
C112 C 0.8994 0.13495 0.9162 0.0
C113 C 0.87241 0.13232 -0.00019 0.0
C114 C 0.87621 0.11374 0.01782 0.0
C115 C 0.89225 0.10561 -0.01427 0.0
C116 C 0.90382 0.11631 0.93313 0.0
Zn117 Zn 0.87897 0.17038 0.94465 0.0
O118 O 0.87734 0.20041 0.81036 0.0
C119 C 0.91272 0.19282 0.97118 0.0
O120 O 0.88242 0.17013 0.80841 0.0
H121 H 0.86048 0.13874 0.0281 0.0
H122 H 0.89201 0.23421 0.87048 0.0
H123 H 0.90851 0.14348 0.87786 0.0
O124 O 0.90175 0.20652 0.96648 0.0
O125 O 0.90658 0.17622 0.96331 0.0
H126 H 0.84306 0.22552 0.00988 0.0
O127 O 0.87553 0.17085 0.07991 0.0
O128 O 0.86929 0.20083 0.08134 0.0
O129 O 0.8514 0.16453 0.92477 0.0
O130 O 0.84508 0.19444 0.92039 0.0
C131 C 0.87168 0.18565 0.12197 0.0
H132 H 0.88616 0.26787 0.8623 0.0
H133 H 0.83535 0.25886 -0.00058 0.0
H134 H 0.8671 0.10612 0.06012 0.0
H135 H 0.91628 0.11047 0.90699 0.0
C136 C 0.15627 0.39201 0.12301 0.0
N137 N 0.11294 0.39979 0.94767 0.0
C138 C 0.10256 0.38846 -0.00184 0.0
C139 C 0.08367 0.39109 0.00318 0.0
C140 C 0.07551 0.40554 0.95597 0.0
C141 C 0.08655 0.41673 0.90313 0.0
C142 C 0.1053 0.41362 0.90002 0.0
Zn143 Zn 0.14055 0.39741 0.94471 0.0
C144 C 0.15836 0.43404 -0.02457 0.0
N145 N 0.19857 0.39351 0.93811 0.0
C146 C 0.20766 0.37726 0.95317 0.0
C147 C 0.20684 0.40805 0.89702 0.0
C148 C 0.2242 0.40602 0.86246 0.0
C149 C 0.23302 0.38871 0.86821 0.0
C150 C 0.22502 0.37448 0.91786 0.0
Zn151 Zn 0.17076 0.39498 0.94786 0.0
O152 O 0.14149 0.39437 0.08079 0.0
C153 C 0.15244 0.35825 0.92084 0.0
O154 O 0.17139 0.39102 0.08276 0.0
H155 H 0.19936 0.42066 0.88291 0.0
H156 H 0.10897 0.37759 0.0356 0.0
H157 H 0.20089 0.36586 -0.01401 0.0
O158 O 0.13828 0.36834 0.92792 0.0
O159 O 0.1682 0.36582 0.92639 0.0
H160 H 0.11382 0.42246 0.86029 0.0
O161 O 0.16997 0.39894 0.81218 0.0
O162 O 0.14007 0.4003 0.80901 0.0
O163 O 0.17258 0.42401 0.97152 0.0
O164 O 0.14281 0.4265 0.96265 0.0
C165 C 0.15521 0.40031 0.76927 0.0
H166 H 0.07562 0.38224 0.04514 0.0
H167 H 0.08075 0.42781 0.86458 0.0
H168 H 0.22971 0.41725 0.82356 0.0
H169 H 0.2315 0.36095 0.92396 0.0
C170 C 0.9275 0.90056 0.45503 0.0
N171 N 0.93034 0.85599 0.27693 0.0
C172 C 0.94042 0.84711 0.33795 0.0
C173 C 0.93864 0.82771 0.34816 0.0
C174 C 0.92634 0.81758 0.29511 0.0
C175 C 0.91709 0.82698 0.22931 0.0
C176 C 0.91921 0.84625 0.22164 0.0
Zn177 Zn 0.92782 0.88432 0.27572 0.0
C178 C 0.88871 0.89449 0.28906 0.0
N179 N 0.91947 0.943 0.27443 0.0
C180 C 0.93105 0.95576 0.31205 0.0
C181 C 0.90527 0.94845 0.22377 0.0
C182 C 0.90241 0.96729 0.20789 0.0
C183 C 0.91436 0.98076 0.24369 0.0
C184 C 0.92878 0.97491 0.29696 0.0
Zn185 Zn 0.92353 0.91499 0.28014 0.0
O186 O 0.92879 0.88533 0.41217 0.0
C187 C 0.9625 0.90543 0.26659 0.0
O188 O 0.9255 0.91593 0.41539 0.0
H189 H 0.89647 0.93814 0.19273 0.0
H190 H 0.94909 0.85516 0.38154 0.0
H191 H 0.94232 0.95106 0.3516 0.0
O192 O 0.95652 0.88862 0.26962 0.0
O193 O 0.9514 0.91898 0.27014 0.0
H194 H 0.91111 0.85354 0.1743 0.0
O195 O 0.92165 0.91393 0.14357 0.0
O196 O 0.92693 0.88379 0.13983 0.0
O197 O 0.89565 0.91079 0.29116 0.0
O198 O 0.89905 0.88041 0.2811 0.0
C199 C 0.92392 0.89894 0.10035 0.0
H200 H 0.94602 0.82092 0.39974 0.0
H201 H 0.90777 0.8196 0.18594 0.0
H202 H 0.89139 0.97119 0.1648 0.0
H203 H 0.93827 0.98498 0.32549 0.0
C204 C 0.39311 0.64386 0.12981 0.0
N205 N 0.39227 0.69128 0.30975 0.0
C206 C 0.3789 0.7003 0.26439 0.0
C207 C 0.37752 0.72016 0.26516 0.0
C208 C 0.39002 0.73154 0.31271 0.0
C209 C 0.40372 0.72178 0.3586 0.0
C210 C 0.40457 0.70187 0.35646 0.0
Zn211 Zn 0.39339 0.66032 0.30804 0.0
C212 C 0.35297 0.64258 0.30916 0.0
N213 N 0.39448 0.59599 0.30376 0.0
C214 C 0.38158 0.58591 0.25833 0.0
C215 C 0.40758 0.58641 0.34834 0.0
C216 C 0.40802 0.56647 0.34831 0.0
C217 C 0.39481 0.55561 0.3024 0.0
C218 C 0.38147 0.56597 0.25697 0.0
Zn219 Zn 0.39392 0.62705 0.30554 0.0
O220 O 0.39297 0.65933 0.17204 0.0
C221 C 0.43446 0.64496 0.30454 0.0
O222 O 0.39346 0.62826 0.16953 0.0
H223 H 0.41781 0.59421 0.38486 0.0
H224 H 0.36913 0.69209 0.22696 0.0
H225 H 0.37119 0.5933 0.22248 0.0
O226 O 0.42494 0.66015 0.30626 0.0
O227 O 0.42543 0.62929 0.30389 0.0
H228 H 0.41513 0.6949 0.393 0.0
O229 O 0.39435 0.62804 0.4415 0.0
O230 O 0.39383 0.65911 0.444 0.0
O231 O 0.36239 0.62734 0.30746 0.0
O232 O 0.36207 0.65817 0.3097 0.0
C233 C 0.39419 0.64351 0.48372 0.0
H234 H 0.36679 0.72651 0.2273 0.0
H235 H 0.41367 0.72941 0.39754 0.0
H236 H 0.41855 0.55966 0.38567 0.0
H237 H 0.37104 0.55877 0.21914 0.0
C238 C 0.68382 0.12047 0.17103 0.0
N239 N 0.63897 0.1136 0.33416 0.0
C240 C 0.63062 0.1257 0.27967 0.0
C241 C 0.61165 0.12574 0.2718 0.0
C242 C 0.60114 0.11325 0.32072 0.0
C243 C 0.61009 0.10063 0.37528 0.0
C244 C 0.62918 0.10102 0.38092 0.0
Zn245 Zn 0.66651 0.11575 0.34693 0.0
C246 C 0.68456 0.07883 0.32745 0.0
N247 N 0.72414 0.12129 0.3665 0.0
C248 C 0.73267 0.13763 0.34525 0.0
C249 C 0.7319 0.10912 0.42254 0.0
C250 C 0.74757 0.1143 0.46843 0.0
C251 C 0.75534 0.13217 0.45626 0.0
C252 C 0.74844 0.14339 0.38979 0.0
Zn253 Zn 0.69669 0.11844 0.34852 0.0
O254 O 0.66889 0.11819 0.21146 0.0
C255 C 0.67789 0.15526 0.37027 0.0
O256 O 0.69879 0.12163 0.2132 0.0
H257 H 0.72477 0.09634 0.43958 0.0
H258 H 0.63866 0.13567 0.24359 0.0
H259 H 0.72626 0.14707 0.30035 0.0
O260 O 0.66393 0.14477 0.36098 0.0
O261 O 0.69371 0.14805 0.3667 0.0
H262 H 0.63615 0.09151 0.42366 0.0
O263 O 0.69436 0.11531 0.48383 0.0
O264 O 0.66446 0.11333 0.4828 0.0
O265 O 0.69907 0.08879 0.33135 0.0
O266 O 0.66908 0.0867 0.33374 0.0
C267 C 0.67944 0.11378 0.52469 0.0
H268 H 0.60527 0.13591 0.23012 0.0
H269 H 0.60243 0.0907 0.41361 0.0
H270 H 0.75229 0.10519 0.5192 0.0
H271 H 0.75428 0.15709 0.37698 0.0
C272 C 0.8622 0.44618 0.79823 0.0
N273 N 0.81823 0.44529 0.97021 0.0
C274 C 0.80986 0.45427 0.90403 0.0
C275 C 0.79227 0.44881 0.87763 0.0
C276 C 0.78326 0.43412 0.92041 0.0
C277 C 0.7914 0.42676 -0.00525 0.0
C278 C 0.80902 0.43248 0.01832 0.0
Zn279 Zn 0.84615 0.44471 -0.02322 0.0
C280 C 0.85828 0.40509 0.95502 0.0
N281 N 0.90393 0.43913 -0.02157 0.0
C282 C 0.91489 0.4505 0.93088 0.0
C283 C 0.911 0.42527 0.02778 0.0
C284 C 0.92978 0.42213 0.02929 0.0
C285 C 0.9414 0.43334 -0.02063 0.0
C286 C 0.93381 0.44784 0.93046 0.0
Zn287 Zn 0.87633 0.44162 -0.0262 0.0
O288 O 0.84734 0.44675 0.84024 0.0
C289 C 0.86464 0.48119 -0.00164 0.0
O290 O 0.87723 0.44451 0.8388 0.0
H291 H 0.90203 0.41641 0.06518 0.0
H292 H 0.81741 0.46439 0.86651 0.0
H293 H 0.90893 0.46141 0.89206 0.0
O294 O 0.84855 0.47425 -0.00854 0.0
O295 O 0.87844 0.47057 -0.00887 0.0
H296 H 0.81594 0.42531 0.07004 0.0
O297 O 0.87522 0.43878 0.11002 0.0
O298 O 0.84548 0.44266 0.11212 0.0
O299 O 0.87401 0.41268 0.95611 0.0
O300 O 0.8442 0.41517 0.96427 0.0
C301 C 0.86043 0.44016 0.15233 0.0
H302 H 0.78653 0.45493 0.82 0.0
H303 H 0.78474 0.41575 0.03097 0.0
H304 H 0.93512 0.411 0.06898 0.0
H305 H 0.94231 0.4567 0.89055 0.0
C306 C 0.38728 0.14368 0.49082 0.0
N307 N 0.34308 0.14543 0.32557 0.0
C308 C 0.33547 0.1323 0.3777 0.0
C309 C 0.31779 0.13445 0.40833 0.0
C310 C 0.30779 0.15043 0.38653 0.0
C311 C 0.31549 0.1633 0.32871 0.0
C312 C 0.33329 0.16045 0.29837 0.0
Zn313 Zn 0.37084 0.14401 0.31323 0.0
C314 C 0.38856 0.18384 0.31273 0.0
N315 N 0.4286 0.14049 0.30993 0.0
C316 C 0.43631 0.12797 0.36447 0.0
C317 C 0.43894 0.15072 0.25458 0.0
C318 C 0.45792 0.14844 0.25264 0.0
C319 C 0.46618 0.13557 0.30843 0.0
C320 C 0.45512 0.12527 0.36475 0.0
Zn321 Zn 0.40102 0.14261 0.31356 0.0
O322 O 0.37232 0.144 0.44924 0.0
C323 C 0.3838 0.10271 0.31276 0.0
O324 O 0.40222 0.14324 0.44965 0.0
H325 H 0.43245 0.16057 0.21178 0.0
H326 H 0.34355 0.12085 0.40159 0.0
H327 H 0.42783 0.11989 0.40757 0.0
O328 O 0.36932 0.11262 0.31072 0.0
O329 O 0.3991 0.11148 0.31451 0.0
H330 H 0.33963 0.17082 0.25756 0.0
O331 O 0.39951 0.1421 0.17758 0.0
O332 O 0.36947 0.14409 0.17759 0.0
O333 O 0.40293 0.17372 0.31207 0.0
O334 O 0.37307 0.17532 0.31439 0.0
C335 C 0.38444 0.14304 0.13633 0.0
H336 H 0.3126 0.12439 0.45421 0.0
H337 H 0.30816 0.17578 0.31019 0.0
H338 H 0.46603 0.15673 0.20865 0.0
H339 H 0.4609 0.11497 0.40769 0.0
C340 C 0.61978 0.64966 0.4731 0.0
N341 N 0.61873 0.60498 0.30221 0.0
C342 C 0.63113 0.59749 0.35726 0.0
C343 C 0.62972 0.57884 0.3808 0.0
C344 C 0.61537 0.56767 0.3476 0.0
C345 C 0.60317 0.57548 0.28787 0.0
C346 C 0.60514 0.59435 0.26571 0.0
Zn347 Zn 0.61942 0.63323 0.29386 0.0
C348 C 0.57879 0.64915 0.29644 0.0
N349 N 0.62152 0.69236 0.29324 0.0
C350 C 0.63409 0.7009 0.34574 0.0
C351 C 0.61212 0.70213 0.23282 0.0
C352 C 0.61589 0.72116 0.2208 0.0
C353 C 0.62946 0.73008 0.27146 0.0
C354 C 0.63824 0.71983 0.33612 0.0
Zn355 Zn 0.61993 0.66401 0.29754 0.0
O356 O 0.61966 0.63446 0.43 0.0
C357 C 0.66062 0.64794 0.29519 0.0
O358 O 0.61983 0.66513 0.43351 0.0
H359 H 0.60228 0.69498 0.19145 0.0
H360 H 0.64152 0.60626 0.38731 0.0
H361 H 0.64147 0.69283 0.39299 0.0
O362 O 0.65097 0.63283 0.29232 0.0
O363 O 0.65156 0.66326 0.29792 0.0
H364 H 0.59536 0.6007 0.22255 0.0
O365 O 0.61997 0.66275 0.16146 0.0
O366 O 0.61909 0.63199 0.15816 0.0
O367 O 0.58828 0.66445 0.29711 0.0
O368 O 0.588 0.63389 0.29521 0.0
C369 C 0.6195 0.64749 0.11852 0.0
H370 H 0.63919 0.57359 0.4286 0.0
H371 H 0.59198 0.56726 0.26058 0.0
H372 H 0.60887 0.72856 0.16993 0.0
H373 H 0.64852 0.72627 0.37766 0.0
C374 C 0.13387 0.93647 0.01555 0.0
N375 N 0.12911 0.98172 0.1829 0.0
C376 C 0.14242 0.99013 0.13575 0.0
C377 C 0.14015 0.0083 0.10637 0.0
C378 C 0.12379 0.01779 0.12349 0.0
C379 C 0.11082 0.00934 0.17765 0.0
C380 C 0.11383 0.99117 0.20721 0.0
Zn381 Zn 0.13069 0.95342 0.1943 0.0
C382 C 0.09424 0.93464 0.17802 0.0
N383 N 0.13374 0.89444 0.19804 0.0
C384 C 0.14652 0.88547 0.14982 0.0
C385 C 0.12271 0.885 0.25339 0.0
C386 C 0.12464 0.86575 0.26348 0.0
C387 C 0.13801 0.85622 0.21597 0.0
C388 C 0.14889 0.86623 0.15777 0.0
Zn389 Zn 0.13204 0.92253 0.19123 0.0
O390 O 0.13307 0.95176 0.05795 0.0
C391 C 0.1686 0.93963 0.21043 0.0
O392 O 0.13378 0.92108 0.05585 0.0
H393 H 0.11261 0.89247 0.29083 0.0
H394 H 0.15433 0.98236 0.11576 0.0
H395 H 0.15518 0.89331 0.10657 0.0
O396 O 0.15991 0.955 0.20947 0.0
O397 O 0.15991 0.92433 0.20147 0.0
H398 H 0.10341 0.98422 0.24481 0.0
O399 O 0.13027 0.92431 0.32783 0.0
O400 O 0.12828 0.95502 0.32932 0.0
O401 O 0.10427 0.92031 0.18117 0.0
O402 O 0.10153 0.95089 0.18187 0.0
C403 C 0.12884 0.93963 0.36987 0.0
H404 H 0.15077 0.01448 0.06703 0.0
H405 H 0.09803 0.01618 0.19266 0.0
H406 H 0.11586 0.85841 0.30829 0.0
H407 H 0.15951 0.85939 0.12083 0.0
C408 C 0.8935 0.63956 0.48069 0.0
N409 N 0.8454 0.64632 0.30261 0.0
C410 C 0.83505 0.63185 0.33493 0.0
C411 C 0.81541 0.63198 0.33432 0.0
C412 C 0.80524 0.64717 0.30044 0.0
C413 C 0.81637 0.66195 0.26785 0.0
C414 C 0.83602 0.66125 0.2693 0.0
Zn415 Zn 0.87702 0.64471 0.30356 0.0
C416 C 0.89761 0.68079 0.32358 0.0
N417 N 0.94242 0.63929 0.3056 0.0
C418 C 0.95181 0.62453 0.34033 0.0
C419 C 0.95276 0.65363 0.27199 0.0
C420 C 0.9724 0.65353 0.27276 0.0
C421 C 0.98258 0.63852 0.30818 0.0
C422 C 0.97146 0.62387 0.34202 0.0
Zn423 Zn 0.91081 0.64088 0.30464 0.0
O424 O 0.87848 0.64197 0.43927 0.0
C425 C 0.89033 0.6049 0.28035 0.0
O426 O 0.90876 0.63826 0.4406 0.0
H427 H 0.94583 0.66547 0.24391 0.0
H428 H 0.84196 0.61988 0.36189 0.0
H429 H 0.94412 0.61304 0.36783 0.0
O430 O 0.87638 0.6155 0.2882 0.0
O431 O 0.90663 0.61162 0.28686 0.0
H432 H 0.84371 0.67286 0.24282 0.0
O433 O 0.90939 0.64391 0.16899 0.0
O434 O 0.87904 0.64704 0.16748 0.0
O435 O 0.91147 0.66998 0.32011 0.0
O436 O 0.88125 0.67416 0.31776 0.0
C437 C 0.89433 0.646 0.12747 0.0
H438 H 0.8083 0.62011 0.36182 0.0
H439 H 0.81002 0.67409 0.23959 0.0
H440 H 0.97949 0.66529 0.24421 0.0
H441 H 0.97782 0.61186 0.37147 0.0
C442 C 0.12404 0.18045 0.68945 0.0
N443 N 0.16831 0.17374 0.85229 0.0
C444 C 0.17173 0.15864 0.8007 0.0
C445 C 0.18915 0.15562 0.76849 0.0
C446 C 0.20332 0.16837 0.78828 0.0
C447 C 0.19977 0.18328 0.84561 0.0
C448 C 0.18202 0.18569 0.87746 0.0
Zn449 Zn 0.14126 0.17995 0.86739 0.0
C450 C 0.13383 0.2202 0.85453 0.0
N451 N 0.08443 0.19133 0.87578 0.0
C452 C 0.07212 0.18003 0.8341 0.0
C453 C 0.07895 0.20555 0.92863 0.0
C454 C 0.06036 0.20836 0.94398 0.0
C455 C 0.04747 0.19624 0.90533 0.0
C456 C 0.05346 0.18221 0.84832 0.0
Zn457 Zn 0.1114 0.18532 0.86609 0.0
O458 O 0.13881 0.17864 0.73181 0.0
C459 C 0.1185 0.14512 0.88218 0.0
O460 O 0.1092 0.18322 0.72983 0.0
H461 H 0.08902 0.2143 0.96136 0.0
H462 H 0.16068 0.14963 0.77859 0.0
H463 H 0.07681 0.16889 0.7921 0.0
O464 O 0.13482 0.15118 0.8767 0.0
O465 O 0.10532 0.15654 0.87929 0.0
H466 H 0.17901 0.19771 0.91784 0.0
O467 O 0.11396 0.18733 0.00165 0.0
O468 O 0.14343 0.18136 0.00352 0.0
O469 O 0.11753 0.21389 0.85477 0.0
O470 O 0.14712 0.20889 0.85966 0.0
C471 C 0.12869 0.18482 0.0439 0.0
H472 H 0.19109 0.14418 0.72306 0.0
H473 H 0.21038 0.19338 0.86268 0.0
H474 H 0.05617 0.21926 -0.01131 0.0
H475 H 0.04381 0.17273 0.81677 0.0
C476 C 0.63831 0.36615 0.45871 0.0
N477 N 0.62373 0.40695 0.63728 0.0
C478 C 0.63487 0.41837 0.59104 0.0
C479 C 0.63092 0.43723 0.58316 0.0
C480 C 0.61516 0.44444 0.62177 0.0
C481 C 0.60367 0.43249 0.66857 0.0
C482 C 0.60839 0.41358 0.67641 0.0
Zn483 Zn 0.63074 0.37951 0.63746 0.0
C484 C 0.59862 0.35509 0.61047 0.0
N485 N 0.64652 0.32242 0.6277 0.0
C486 C 0.66176 0.31837 0.58129 0.0
C487 C 0.63582 0.30859 0.66092 0.0
C488 C 0.6399 0.28978 0.64442 0.0
C489 C 0.65514 0.28525 0.59343 0.0
C490 C 0.66637 0.29983 0.56352 0.0
Zn491 Zn 0.63894 0.34977 0.63419 0.0
O492 O 0.63279 0.3803 0.5011 0.0
C493 C 0.67075 0.37564 0.66107 0.0
O494 O 0.64267 0.35143 0.49902 0.0
H495 H 0.62376 0.31216 0.69756 0.0
H496 H 0.64671 0.4128 0.55842 0.0
H497 H 0.66996 0.32957 0.55459 0.0
O498 O 0.65797 0.38728 0.65114 0.0
O499 O 0.66704 0.35817 0.65844 0.0
H500 H 0.59966 0.40417 0.7123 0.0
O501 O 0.63508 0.34836 0.76971 0.0
O502 O 0.62864 0.37843 0.77295 0.0
O503 O 0.61053 0.34212 0.60959 0.0
O504 O 0.6037 0.37187 0.62454 0.0
C505 C 0.63124 0.36313 0.81257 0.0
H506 H 0.63985 0.44603 0.54496 0.0
H507 H 0.59131 0.4377 0.69838 0.0
H508 H 0.631 0.27893 0.66949 0.0
H509 H 0.67807 0.29701 0.52294 0.0
C510 C 0.38056 0.91686 0.14404 0.0
N511 N 0.33858 0.91796 0.32226 0.0
C512 C 0.33079 0.93049 0.26806 0.0
C513 C 0.31208 0.93358 0.27026 0.0
C514 C 0.30125 0.9237 0.32889 0.0
C515 C 0.30952 0.91054 0.38315 0.0
C516 C 0.32841 0.9079 0.37888 0.0
Zn517 Zn 0.36609 0.91706 0.32151 0.0
C518 C 0.38127 0.87661 0.32079 0.0
N519 N 0.42328 0.91817 0.31887 0.0
C520 C 0.43135 0.93049 0.26432 0.0
C521 C 0.43324 0.90647 0.36896 0.0
C522 C 0.45225 0.90666 0.36385 0.0
C523 C 0.46087 0.91905 0.30692 0.0
C524 C 0.45026 0.9312 0.25742 0.0
Zn525 Zn 0.39598 0.91759 0.32153 0.0
O526 O 0.36565 0.91659 0.18546 0.0
C527 C 0.38136 0.95797 0.32187 0.0
O528 O 0.39558 0.91727 0.18535 0.0
H529 H 0.42641 0.89688 0.412 0.0
H530 H 0.33915 0.9384 0.22384 0.0
H531 H 0.4231 0.93958 0.22487 0.0
O532 O 0.36641 0.94857 0.32174 0.0
O533 O 0.39617 0.94866 0.3224 0.0
H534 H 0.335 0.89814 0.42175 0.0
O535 O 0.39649 0.91785 0.45735 0.0
O536 O 0.3665 0.91743 0.45751 0.0
O537 O 0.396 0.88643 0.32085 0.0
O538 O 0.36609 0.8855 0.32123 0.0
C539 C 0.38155 0.9177 0.49876 0.0
H540 H 0.30615 0.9435 0.22591 0.0
H541 H 0.30153 0.90263 0.42913 0.0
H542 H 0.46012 0.89717 0.40331 0.0
H543 H 0.45646 0.94072 0.21181 0.0
H544 H 0.16807 0.60885 0.03502 0.0
H545 H 0.16817 0.66922 0.6033 0.0
H546 H 0.168 0.66943 0.03222 0.0
H547 H 0.16803 0.60864 0.60593 0.0
H548 H 0.16815 0.66956 0.76048 0.0
H549 H 0.1681 0.6085 0.87781 0.0
C550 C 0.16805 0.62209 0.00134 0.0
C551 C 0.16802 0.63921 0.0468 0.0
C552 C 0.16812 0.65619 0.72672 0.0
C553 C 0.16806 0.63889 0.86679 0.0
C554 C 0.16814 0.65598 0.63693 0.0
C555 C 0.16812 0.63886 0.59142 0.0
C556 C 0.16807 0.63917 0.77143 0.0
C557 C 0.16806 0.62215 0.6384 0.0
C558 C 0.16807 0.62187 0.91154 0.0
C559 C 0.16801 0.65592 -0.00022 0.0
N560 N 0.16804 0.62273 0.72591 0.0
N561 N 0.16803 0.65533 0.91228 0.0
H562 H 0.64485 0.90807 0.92635 0.0
H563 H 0.70384 0.8961 0.49646 0.0
H564 H 0.70308 0.89794 0.92542 0.0
H565 H 0.64566 0.90652 0.49736 0.0
H566 H 0.70381 0.89662 0.65374 0.0
H567 H 0.64489 0.9076 0.76908 0.0
C568 C 0.65765 0.90577 0.89308 0.0
C569 C 0.67399 0.90302 0.93906 0.0
C570 C 0.69105 0.89878 0.61955 0.0
C571 C 0.67412 0.90243 0.75907 0.0
C572 C 0.69105 0.89847 0.52973 0.0
C573 C 0.67472 0.90129 0.48373 0.0
C574 C 0.6746 0.90193 0.66373 0.0
C575 C 0.65856 0.9043 0.53022 0.0
C576 C 0.65766 0.90549 0.80326 0.0
C577 C 0.69017 0.90011 0.89257 0.0
N578 N 0.65892 0.90455 0.61771 0.0
N579 N 0.68981 0.89988 0.80508 0.0
H580 H 0.42529 0.36843 0.01589 0.0
H581 H 0.3659 0.36906 0.5811 0.0
H582 H 0.36619 0.37018 0.0104 0.0
H583 H 0.42505 0.3691 0.58708 0.0
H584 H 0.36571 0.36914 0.7384 0.0
H585 H 0.42544 0.36835 0.85869 0.0
C586 C 0.41233 0.3688 -0.01835 0.0
C587 C 0.39569 0.36931 0.02639 0.0
C588 C 0.37873 0.36913 0.70532 0.0
C589 C 0.39578 0.36921 0.84633 0.0
C590 C 0.37886 0.36908 0.61549 0.0
C591 C 0.39553 0.36908 0.57092 0.0
C592 C 0.39539 0.36915 0.75093 0.0
C593 C 0.41188 0.3691 0.61881 0.0
C594 C 0.41244 0.36876 0.89184 0.0
C595 C 0.37934 0.36978 -0.02142 0.0
N596 N 0.41139 0.36914 0.70627 0.0
N597 N 0.37979 0.3697 0.8911 0.0
H598 H 0.87684 0.2159 0.66364 0.0
H599 H 0.87575 0.15528 0.2264 0.0
H600 H 0.8839 0.15584 0.65475 0.0
H601 H 0.86795 0.21524 0.23527 0.0
H602 H 0.8785 0.15521 0.38312 0.0
H603 H 0.87402 0.21599 0.50689 0.0
C604 C 0.87795 0.20273 0.62872 0.0
C605 C 0.88061 0.18582 0.67263 0.0
C606 C 0.87612 0.16838 0.35094 0.0
C607 C 0.8772 0.18583 0.49267 0.0
C608 C 0.87447 0.16843 0.26132 0.0
C609 C 0.87162 0.18531 0.21742 0.0
C610 C 0.87497 0.18533 0.39739 0.0
C611 C 0.8701 0.2019 0.26631 0.0
C612 C 0.87626 0.20279 0.5391 0.0
C613 C 0.88189 0.16921 0.62374 0.0
N614 N 0.87186 0.2015 0.35361 0.0
N615 N 0.88011 0.16962 0.53646 0.0
H616 H 0.12634 0.39377 0.22805 0.0
H617 H 0.18526 0.39889 0.66462 0.0
H618 H 0.18535 0.39053 0.23561 0.0
H619 H 0.12622 0.40136 0.6564 0.0
H620 H 0.18562 0.39627 0.50758 0.0
H621 H 0.12607 0.39633 0.38495 0.0
C622 C 0.13925 0.39346 0.26269 0.0
C623 C 0.1559 0.39194 0.21842 0.0
C624 C 0.17259 0.39745 0.54006 0.0
C625 C 0.15568 0.39506 0.3985 0.0
C626 C 0.17237 0.39903 0.6298 0.0
C627 C 0.15567 0.40035 0.67389 0.0
C628 C 0.156 0.39717 0.49384 0.0
C629 C 0.13941 0.4004 0.62522 0.0
C630 C 0.13908 0.39499 0.3524 0.0
C631 C 0.17218 0.39164 0.26694 0.0
N632 N 0.13998 0.39878 0.5379 0.0
N633 N 0.17166 0.39325 0.35431 0.0
H634 H 0.91892 0.92921 -0.00394 0.0
H635 H 0.9317 0.87019 0.55934 0.0
H636 H 0.92874 0.86956 -0.012 0.0
H637 H 0.92334 0.93009 0.56734 0.0
H638 H 0.93053 0.86968 0.7164 0.0
H639 H 0.92002 0.92974 0.83889 0.0
C640 C 0.92124 0.91621 0.96124 0.0
C641 C 0.92377 0.89931 0.00525 0.0
C642 C 0.92899 0.88295 0.68385 0.0
C643 C 0.92512 0.89985 0.82532 0.0
C644 C 0.92968 0.88326 0.59413 0.0
C645 C 0.9276 0.90022 0.55013 0.0
C646 C 0.92616 0.89971 0.73002 0.0
C647 C 0.92502 0.9167 0.5986 0.0
C648 C 0.92191 0.91653 0.87148 0.0
C649 C 0.92674 0.8829 0.95676 0.0
N650 N 0.92434 0.91603 0.68597 0.0
N651 N 0.92735 0.88359 0.86939 0.0
H652 H 0.39482 0.61301 0.58947 0.0
H653 H 0.39248 0.67437 0.02404 0.0
H654 H 0.3936 0.67358 0.59495 0.0
H655 H 0.3937 0.61379 0.01855 0.0
H656 H 0.39283 0.67435 0.8668 0.0
H657 H 0.39447 0.61303 0.74671 0.0
C658 C 0.39449 0.62632 0.62369 0.0
C659 C 0.39422 0.64333 0.5789 0.0
C660 C 0.39301 0.66106 0.89998 0.0
C661 C 0.3938 0.64343 0.75903 0.0
C662 C 0.39281 0.66105 -0.01018 0.0
C663 C 0.39308 0.64405 0.03461 0.0
C664 C 0.39349 0.64395 0.85447 0.0
C665 C 0.39348 0.62724 -0.01324 0.0
C666 C 0.39428 0.62632 0.71353 0.0
C667 C 0.39381 0.66014 0.62674 0.0
N668 N 0.39369 0.62762 0.89929 0.0
N669 N 0.3936 0.65976 0.71422 0.0
H670 H 0.65026 0.11276 0.63564 0.0
H671 H 0.71304 0.122 0.0602 0.0
H672 H 0.70936 0.11516 0.63118 0.0
H673 H 0.65396 0.11891 0.06437 0.0
H674 H 0.71199 0.12 0.90266 0.0
H675 H 0.65134 0.11491 0.79307 0.0
C676 C 0.66346 0.11361 0.66772 0.0
C677 C 0.67973 0.11377 0.62007 0.0
C678 C 0.69926 0.11981 0.93811 0.0
C679 C 0.68108 0.11641 0.80018 0.0
C680 C 0.69986 0.12103 0.02805 0.0
C681 C 0.68358 0.12059 0.07565 0.0
C682 C 0.68227 0.11815 0.89548 0.0
C683 C 0.66688 0.11926 0.03045 0.0
C684 C 0.66407 0.11491 0.75761 0.0
C685 C 0.69645 0.11498 0.66517 0.0
N686 N 0.66667 0.11805 0.94307 0.0
N687 N 0.69668 0.11629 0.75256 0.0
H688 H 0.89022 0.43654 0.25856 0.0
H689 H 0.83238 0.44918 0.69192 0.0
H690 H 0.83158 0.44378 0.26312 0.0
H691 H 0.89116 0.44311 0.68749 0.0
H692 H 0.83185 0.44729 0.53479 0.0
H693 H 0.89079 0.43842 0.41576 0.0
C694 C 0.87744 0.43841 0.29261 0.0
C695 C 0.86082 0.44002 0.24755 0.0
C696 C 0.84487 0.44642 0.56813 0.0
C697 C 0.86141 0.44232 0.4276 0.0
C698 C 0.8452 0.44756 0.65791 0.0
C699 C 0.86185 0.44629 0.70299 0.0
C700 C 0.8613 0.44396 0.52295 0.0
C701 C 0.87801 0.44416 0.65543 0.0
C702 C 0.87779 0.43955 0.38241 0.0
C703 C 0.84471 0.44247 0.29514 0.0
N704 N 0.87733 0.44301 0.56801 0.0
N705 N 0.84541 0.44358 0.38255 0.0
H706 H 0.35502 0.14467 0.02629 0.0
H707 H 0.41668 0.14255 0.60097 0.0
H708 H 0.41406 0.14151 0.02964 0.0
H709 H 0.3576 0.1448 0.5972 0.0
H710 H 0.416 0.14237 0.75837 0.0
H711 H 0.35567 0.1449 0.86887 0.0
C712 C 0.36811 0.14401 -0.00603 0.0
C713 C 0.3845 0.14306 0.0412 0.0
C714 C 0.40319 0.14291 0.72308 0.0
C715 C 0.38535 0.14334 0.86118 0.0
C716 C 0.40357 0.14303 0.63323 0.0
C717 C 0.38718 0.1437 0.58591 0.0
C718 C 0.38629 0.14348 0.76589 0.0
C719 C 0.37058 0.14428 0.63108 0.0
C720 C 0.36848 0.14414 0.90409 0.0
C721 C 0.40108 0.14224 -0.00411 0.0
N722 N 0.37056 0.14416 0.71855 0.0
N723 N 0.40107 0.14241 0.90843 0.0
H724 H 0.61999 0.67834 0.01549 0.0
H725 H 0.61956 0.61878 0.57596 0.0
H726 H 0.61896 0.61776 0.00499 0.0
H727 H 0.62004 0.67936 0.58665 0.0
H728 H 0.61946 0.61814 0.73303 0.0
H729 H 0.62009 0.67896 0.85846 0.0
C730 C 0.61979 0.66515 -0.01983 0.0
C731 C 0.61948 0.64795 0.02346 0.0
C732 C 0.61958 0.63157 0.70109 0.0
C733 C 0.6196 0.64859 0.84348 0.0
C734 C 0.61964 0.63197 0.61135 0.0
C735 C 0.61979 0.64917 0.56812 0.0
C736 C 0.61968 0.6485 0.74807 0.0
C737 C 0.61991 0.66578 0.61733 0.0
C738 C 0.61984 0.66553 0.89043 0.0
C739 C 0.61921 0.63133 -0.02572 0.0
N740 N 0.61985 0.66503 0.70476 0.0
N741 N 0.61928 0.63207 0.88684 0.0
H742 H 0.12766 0.96969 0.48137 0.0
H743 H 0.13467 0.90644 0.90403 0.0
H744 H 0.13011 0.90917 0.47547 0.0
H745 H 0.13299 0.96699 0.91015 0.0
H746 H 0.13309 0.90718 0.74679 0.0
H747 H 0.12922 0.96899 0.63869 0.0
C748 C 0.12843 0.95625 0.51312 0.0
C749 C 0.12877 0.93947 0.46512 0.0
C750 C 0.13311 0.9203 0.78252 0.0
C751 C 0.13068 0.93857 0.64514 0.0
C752 C 0.13406 0.91989 0.87232 0.0
C753 C 0.13394 0.93667 0.92035 0.0
C754 C 0.13202 0.93762 0.74037 0.0
C755 C 0.13311 0.9537 0.87576 0.0
C756 C 0.12938 0.95586 0.60295 0.0
C757 C 0.12982 0.92247 0.50978 0.0
N758 N 0.13214 0.95372 0.78833 0.0
N759 N 0.13077 0.92246 0.59721 0.0
H760 H 0.92399 0.64331 0.02065 0.0
H761 H 0.86386 0.64234 0.58752 0.0
H762 H 0.8651 0.64844 0.01643 0.0
H763 H 0.92272 0.63691 0.59169 0.0
H764 H 0.86404 0.64433 0.74461 0.0
H765 H 0.92381 0.64125 0.86355 0.0
C766 C 0.91102 0.64412 -0.01323 0.0
C767 C 0.89452 0.64605 0.03203 0.0
C768 C 0.87691 0.64265 0.71122 0.0
C769 C 0.89424 0.64354 0.8518 0.0
C770 C 0.87683 0.64145 0.6214 0.0
C771 C 0.89331 0.63947 0.57612 0.0
C772 C 0.8936 0.64189 0.75637 0.0
C773 C 0.90967 0.63842 0.62373 0.0
C774 C 0.91093 0.64288 0.89695 0.0
C775 C 0.87815 0.64698 -0.01559 0.0
N776 N 0.9094 0.6397 0.71119 0.0
N777 N 0.87843 0.64567 0.89697 0.0
H778 H 0.15349 0.17347 0.5867 0.0
H779 H 0.09937 0.1922 0.14701 0.0
H780 H 0.09601 0.18702 0.57512 0.0
H781 H 0.15662 0.17763 0.15805 0.0
H782 H 0.09802 0.19073 0.30363 0.0
H783 H 0.15485 0.17484 0.43002 0.0
C784 C 0.14111 0.17667 0.55119 0.0
C785 C 0.12459 0.18018 0.59422 0.0
C786 C 0.11089 0.18789 0.27194 0.0
C787 C 0.12613 0.18186 0.41435 0.0
C788 C 0.11171 0.18877 0.18237 0.0
C789 C 0.12816 0.18501 0.13917 0.0
C790 C 0.12663 0.18321 0.31904 0.0
C791 C 0.14366 0.18065 0.18859 0.0
C792 C 0.14193 0.17747 0.4616 0.0
C793 C 0.10902 0.18421 0.54468 0.0
N794 N 0.1425 0.17983 0.27593 0.0
N795 N 0.11018 0.18499 0.45734 0.0
H796 H 0.62946 0.39513 0.35211 0.0
H797 H 0.63887 0.33373 0.91932 0.0
H798 H 0.64674 0.33735 0.34795 0.0
H799 H 0.62382 0.39219 0.92336 0.0
H800 H 0.64105 0.33453 0.07657 0.0
H801 H 0.62717 0.39426 0.19502 0.0
C802 C 0.6329 0.38229 0.31816 0.0
C803 C 0.6383 0.36629 0.36336 0.0
C804 C 0.63721 0.34716 0.04306 0.0
C805 C 0.63553 0.36513 0.18335 0.0
C806 C 0.63588 0.3467 0.95324 0.0
C807 C 0.63117 0.36293 0.90796 0.0
C808 C 0.6338 0.36397 0.08805 0.0
C809 C 0.62751 0.37934 0.95545 0.0
C810 C 0.63153 0.38178 0.22841 0.0
C811 C 0.64254 0.35003 0.31584 0.0
N812 N 0.62895 0.37945 0.0428 0.0
N813 N 0.64101 0.34986 0.2285 0.0
H814 H 0.35086 0.91632 0.0358 0.0
H815 H 0.41126 0.91815 0.60702 0.0
H816 H 0.41001 0.91748 0.0359 0.0
H817 H 0.35211 0.91718 0.60692 0.0
H818 H 0.41107 0.91791 0.76431 0.0
H819 H 0.35104 0.91657 0.8785 0.0
C820 C 0.36389 0.9166 0.00274 0.0
C821 C 0.38045 0.91686 0.049 0.0
C822 C 0.39813 0.91776 0.72988 0.0
C823 C 0.38075 0.91718 0.86905 0.0
C824 C 0.39823 0.91791 0.64007 0.0
C825 C 0.38167 0.9177 0.5938 0.0
C826 C 0.38136 0.91739 0.77376 0.0
C827 C 0.3652 0.91736 0.64 0.0
C828 C 0.36398 0.91676 0.91292 0.0
C829 C 0.39691 0.91725 0.00282 0.0
N830 N 0.36547 0.91721 0.72746 0.0
N831 N 0.39664 0.9174 0.91535 0.0
H832 H 0.15856 0.74785 0.43801 0.0
H833 H 0.14393 0.82915 0.09389 0.0
H834 H 0.16327 0.73991 0.16279 0.0
H835 H 0.13953 0.8377 0.36884 0.0
H836 H 0.15092 0.79622 0.11834 0.0
H837 H 0.15154 0.78089 0.41466 0.0
C838 C 0.15815 0.7531 0.37276 0.0
C839 C 0.16155 0.74121 0.30223 0.0
C840 C 0.14838 0.80528 0.17336 0.0
C841 C 0.15356 0.77881 0.27503 0.0
C842 C 0.14445 0.82405 0.1594 0.0
C843 C 0.14119 0.83609 0.22948 0.0
C844 C 0.1491 0.79854 0.25802 0.0
C845 C 0.14176 0.82879 0.31302 0.0
C846 C 0.15419 0.77192 0.35945 0.0
C847 C 0.16102 0.74869 0.21904 0.0
N848 N 0.14571 0.81045 0.32504 0.0
N849 N 0.15704 0.76702 0.20773 0.0
H850 H 0.57044 0.88339 0.20372 0.0
H851 H 0.48449 0.94879 0.29611 0.0
H852 H 0.57445 0.94363 0.22914 0.0
H853 H 0.48217 0.88826 0.2876 0.0
H854 H 0.51719 0.94757 0.26397 0.0
H855 H 0.53745 0.88529 0.22347 0.0
C856 C 0.56428 0.89703 0.21306 0.0
C857 C 0.57503 0.91337 0.21588 0.0
C858 C 0.50952 0.93456 0.26938 0.0
C859 C 0.53749 0.91568 0.23883 0.0
C860 C 0.49093 0.93526 0.2877 0.0
C861 C 0.48076 0.91859 0.29464 0.0
C862 C 0.51787 0.91708 0.25775 0.0
C863 C 0.48963 0.90141 0.28393 0.0
C864 C 0.5455 0.89812 0.22435 0.0
C865 C 0.5665 0.93074 0.22653 0.0
N866 N 0.50773 0.9011 0.26576 0.0
N867 N 0.54815 0.93145 0.23845 0.0
H868 H 0.36466 0.30523 0.29347 0.0
H869 H 0.41952 0.20688 0.3111 0.0
H870 H 0.42353 0.30236 0.3032 0.0
H871 H 0.36065 0.21028 0.30934 0.0
H872 H 0.42133 0.24133 0.30688 0.0
H873 H 0.36307 0.27083 0.29752 0.0
C874 C 0.37732 0.29745 0.29628 0.0
C875 C 0.39428 0.30713 0.29784 0.0
C876 C 0.40799 0.23461 0.30746 0.0
C877 C 0.3925 0.26692 0.30269 0.0
C878 C 0.40691 0.21477 0.30992 0.0
C879 C 0.38987 0.20525 0.31075 0.0
C880 C 0.39192 0.24545 0.30558 0.0
C881 C 0.37414 0.21668 0.30895 0.0
C882 C 0.37637 0.27764 0.29872 0.0
C883 C 0.4101 0.29584 0.30177 0.0
N884 N 0.37555 0.23591 0.30642 0.0
N885 N 0.40881 0.27657 0.30398 0.0
H886 H 0.93301 0.22493 0.94358 0.0
H887 H 0.02606 0.16754 0.95853 0.0
H888 H 0.93762 0.16718 0.02152 0.0
H889 H 0.02492 0.22689 0.90797 0.0
H890 H 0.99359 0.16827 -0.00803 0.0
H891 H 0.9666 0.22735 0.94179 0.0
C892 C 0.94107 0.21289 0.9616 0.0
C893 C 0.93259 0.19574 -0.01866 0.0
C894 C 1.00036 0.18121 -0.02599 0.0
C895 C 0.97071 0.19835 -0.02094 0.0
C896 C 1.01887 0.18074 0.95436 0.0
C897 C 0.02799 0.19711 0.92919 0.0
C898 C 0.99079 0.19815 0.96747 0.0
C899 C 1.01823 0.21396 0.92669 0.0
C900 C 0.96019 0.21425 0.96036 0.0
C901 C 0.9436 0.18058 0.00441 0.0
N902 N 1.00001 0.21403 0.94458 0.0
N903 N 0.96205 0.1822 0.00186 0.0
H904 H 0.17957 0.332 0.90918 0.0
H905 H 0.1084 0.24756 0.83562 0.0
H906 H 0.12083 0.33834 0.89598 0.0
H907 H 0.16651 0.23923 0.86985 0.0
H908 H 0.11338 0.28126 0.84437 0.0
H909 H 0.17564 0.29827 0.88361 0.0
C910 C 0.16586 0.32631 0.90082 0.0
C911 C 0.15049 0.33795 0.90513 0.0
C912 C 0.12508 0.2721 0.84964 0.0
C913 C 0.14594 0.29955 0.87557 0.0
C914 C 0.12225 0.25283 0.8445 0.0
C915 C 0.13706 0.24058 0.85272 0.0
C916 C 0.14283 0.27921 0.86342 0.0
C917 C 0.15471 0.24821 0.86356 0.0
C918 C 0.16365 0.30709 0.88616 0.0
C919 C 0.13307 0.32988 0.8936 0.0
N920 N 0.1571 0.2671 0.86918 0.0
N921 N 0.13128 0.31117 0.87947 0.0
H922 H 0.06744 0.9604 0.21252 0.0
H923 H 0.98987 0.88077 0.22832 0.0
H924 H 0.07587 0.90237 0.14129 0.0
H925 H 0.97931 0.93961 0.2733 0.0
H926 H 1.02171 0.88863 0.19647 0.0
H927 H 0.03476 0.95353 0.2306 0.0
C928 C 0.06237 0.94633 0.19947 0.0
C929 C 0.07433 0.93189 0.17653 0.0
C930 C 1.0124 0.89981 0.21329 0.0
C931 C 0.03732 0.92389 0.19808 0.0
C932 C 0.99429 0.8953 0.23209 0.0
C933 C 0.982 0.90954 0.25348 0.0
C934 C 1.0182 0.91867 0.21639 0.0
C935 C 0.98837 0.92818 0.25691 0.0
C936 C 0.04378 0.94237 0.21026 0.0
C937 C 0.06713 0.91387 0.16033 0.0
N938 N 1.00606 0.93221 0.23855 0.0
N939 N 0.04911 0.91035 0.17218 0.0
H940 H 0.41791 0.75856 0.33077 0.0
H941 H 0.35276 0.8502 0.31186 0.0
H942 H 0.35931 0.75481 0.29809 0.0
H943 H 0.41161 0.85333 0.32773 0.0
H944 H 0.35466 0.81568 0.3098 0.0
H945 H 0.41565 0.79285 0.33354 0.0
C946 C 0.40449 0.76475 0.3247 0.0
C947 C 0.3888 0.75314 0.31426 0.0
C948 C 0.36719 0.82388 0.31375 0.0
C949 C 0.38614 0.79343 0.31676 0.0
C950 C 0.36611 0.84375 0.31502 0.0
C951 C 0.38202 0.85513 0.31996 0.0
C952 C 0.38434 0.81488 0.3178 0.0
C953 C 0.39887 0.84549 0.32378 0.0
C954 C 0.40324 0.78457 0.32575 0.0
C955 C 0.37195 0.7627 0.30523 0.0
N956 N 0.39954 0.82621 0.32276 0.0
N957 N 0.37111 0.78198 0.30692 0.0
H958 H 0.57755 0.11212 0.45656 0.0
H959 H 0.48885 0.13269 0.16884 0.0
H960 H 0.57889 0.11728 0.17969 0.0
H961 H 0.48894 0.13142 0.44698 0.0
H962 H 0.52165 0.12599 0.17027 0.0
H963 H 0.54454 0.11705 0.45293 0.0
C964 C 0.57084 0.11402 0.39487 0.0
C965 C 0.58095 0.11436 0.31834 0.0
C966 C 0.51448 0.12719 0.23095 0.0
C967 C 0.54327 0.12038 0.31377 0.0
C968 C 0.49581 0.13116 0.23016 0.0
C969 C 0.48618 0.13255 0.30788 0.0
C970 C 0.52352 0.12462 0.31003 0.0
C971 C 0.49579 0.13019 0.3855 0.0
C972 C 0.55203 0.11703 0.39287 0.0
C973 C 0.57161 0.11717 0.2403 0.0
N974 N 0.51392 0.12631 0.38458 0.0
N975 N 0.55329 0.12015 0.24002 0.0
H976 H 0.84367 0.2886 0.05156 0.0
H977 H 0.8815 0.38216 0.86902 0.0
H978 H 0.86791 0.29042 0.79807 0.0
H979 H 0.83096 0.38206 0.01205 0.0
H980 H 0.87906 0.34808 0.85299 0.0
H981 H 0.84034 0.32263 0.04834 0.0
C982 C 0.84803 0.29603 -0.00535 0.0
C983 C 0.85634 0.28658 0.92542 0.0
C984 C 0.86843 0.35557 0.88713 0.0
C985 C 0.85301 0.32547 0.92298 0.0
C986 C 0.86988 0.37492 0.89687 0.0
C987 C 0.85646 0.38478 0.94234 0.0
C988 C 0.85371 0.34604 0.92505 0.0
C989 C 0.84157 0.37486 -0.02341 0.0
C990 C 0.84617 0.31545 -0.00682 0.0
C991 C 0.86196 0.29711 0.85407 0.0
N992 N 0.84072 0.35588 0.96845 0.0
N993 N 0.86047 0.31605 0.85531 0.0
H994 H 0.69067 0.834 0.22182 0.0
H995 H 0.60758 0.76002 0.23478 0.0
H996 H 0.63376 0.84836 0.1878 0.0
H997 H 0.6642 0.7447 0.26934 0.0
H998 H 0.61729 0.79234 0.20943 0.0
H999 H 0.68165 0.80088 0.23147 0.0
C1000 C 0.67634 0.83018 0.21572 0.0
C1001 C 0.66295 0.84394 0.20452 0.0
C1002 C 0.6276 0.78191 0.22245 0.0
C1003 C 0.65255 0.80627 0.21582 0.0
C1004 C 0.62205 0.76345 0.23659 0.0
C1005 C 0.63508 0.7497 0.25492 0.0
C1006 C 0.64632 0.78665 0.22659 0.0
C1007 C 0.65367 0.75495 0.25714 0.0
C1008 C 0.67118 0.81131 0.22142 0.0
C1009 C 0.64455 0.83824 0.19704 0.0
N1010 N 0.65873 0.77302 0.24339 0.0
N1011 N 0.63991 0.81988 0.20319 0.0
H1012 H 0.87264 0.70939 0.31557 0.0
H1013 H 0.95033 0.78931 0.33198 0.0
H1014 H 0.93033 0.69857 0.3503 0.0
H1015 H 0.89282 0.80047 0.29507 0.0
H1016 H 0.94291 0.75608 0.35088 0.0
H1017 H 0.87937 0.74309 0.31941 0.0
C1018 C 0.88667 0.71409 0.32462 0.0
C1019 C 0.90094 0.70116 0.33181 0.0
C1020 C 0.93191 0.76582 0.3389 0.0
C1021 C 0.90875 0.73956 0.33601 0.0
C1022 C 0.93615 0.78477 0.32845 0.0
C1023 C 0.92221 0.79757 0.31069 0.0
C1024 C 0.9136 0.75969 0.33172 0.0
C1025 C 0.90404 0.79097 0.30661 0.0
C1026 C 0.89052 0.7333 0.3267 0.0
C1027 C 0.91888 0.70801 0.34366 0.0
N1028 N 0.90027 0.77247 0.31656 0.0
N1029 N 0.92228 0.72673 0.3449 0.0
H1030 H 0.70414 0.18103 0.42045 0.0
H1031 H 0.62992 0.259 0.54039 0.0
H1032 H 0.64596 0.17473 0.37628 0.0
H1033 H 0.68804 0.26708 0.57947 0.0
H1034 H 0.63578 0.22779 0.48205 0.0
H1035 H 0.69888 0.21279 0.47629 0.0
C1036 C 0.6903 0.1864 0.42147 0.0
C1037 C 0.67546 0.17519 0.39394 0.0
C1038 C 0.64727 0.23634 0.50358 0.0
C1039 C 0.66934 0.21132 0.4587 0.0
C1040 C 0.64391 0.25411 0.53785 0.0
C1041 C 0.65851 0.26566 0.56508 0.0
C1042 C 0.66537 0.23002 0.49636 0.0
C1043 C 0.67639 0.25869 0.55846 0.0
C1044 C 0.6873 0.20447 0.45383 0.0
C1045 C 0.65781 0.18282 0.39711 0.0
N1046 N 0.67933 0.24132 0.52465 0.0
N1047 N 0.65525 0.20035 0.42933 0.0
H1048 H 0.96978 0.45874 -0.01751 0.0
H1049 H 0.04723 0.38005 0.95825 0.0
H1050 H 0.95822 0.39927 0.97035 0.0
H1051 H 0.05871 0.43954 0.96888 0.0
H1052 H 1.0145 0.38675 0.96585 0.0
H1053 H 1.00251 0.45197 -0.02163 0.0
C1054 C 0.97413 0.44427 -0.02139 0.0
C1055 C 0.96128 0.42955 -0.02301 0.0
C1056 C 0.02419 0.39834 0.96656 0.0
C1057 C 0.99865 0.42168 -0.02698 0.0
C1058 C 0.04286 0.3945 0.96272 0.0
C1059 C 0.05568 0.40926 0.96251 0.0
C1060 C 1.01833 0.41705 0.97042 0.0
C1061 C 0.04927 0.42775 0.96744 0.0
C1062 C 0.99281 0.4404 -0.02325 0.0
C1063 C 0.96767 0.41104 -0.02697 0.0
N1064 N 0.03104 0.43112 0.97111 0.0
N1065 N 0.98591 0.40764 0.97111 0.0
H1066 H 0.45978 0.61537 0.30089 0.0
H1067 H 0.55367 0.67908 0.29943 0.0
H1068 H 0.45921 0.67572 0.30514 0.0
H1069 H 0.55385 0.61874 0.29561 0.0
H1070 H 0.51984 0.67825 0.30126 0.0
H1071 H 0.49355 0.6164 0.2988 0.0
C1072 C 0.46657 0.62893 0.3014 0.0
C1073 C 0.45588 0.64547 0.30324 0.0
C1074 C 0.52718 0.66512 0.30002 0.0
C1075 C 0.4959 0.64676 0.30077 0.0
C1076 C 0.54678 0.66558 0.29895 0.0
C1077 C 0.55737 0.64897 0.29734 0.0
C1078 C 0.51734 0.64789 0.29953 0.0
C1079 C 0.54686 0.63206 0.29683 0.0
C1080 C 0.48615 0.62949 0.30019 0.0
C1081 C 0.46629 0.66245 0.30376 0.0
N1082 N 0.52788 0.63201 0.29791 0.0
N1083 N 0.48528 0.6626 0.30255 0.0
H1084 H 0.50208 0.39086 0.37828 0.0
H1085 H 0.58371 0.32608 0.51251 0.0
H1086 H 0.49285 0.33093 0.37214 0.0
H1087 H 0.56991 0.37739 0.64644 0.0
H1088 H 0.55335 0.32649 0.44151 0.0
H1089 H 0.53134 0.38583 0.44985 0.0
C1090 C 0.50623 0.37663 0.39158 0.0
C1091 C 0.49479 0.36133 0.37079 0.0
C1092 C 0.55699 0.33741 0.4877 0.0
C1093 C 0.52844 0.3555 0.45184 0.0
C1094 C 0.57416 0.3371 0.52869 0.0
C1095 C 0.57939 0.35187 0.58447 0.0
C1096 C 0.54536 0.35271 0.50215 0.0
C1097 C 0.56658 0.36589 0.6028 0.0
C1098 C 0.52292 0.37378 0.43249 0.0
C1099 C 0.50123 0.34314 0.38712 0.0
N1100 N 0.55034 0.36615 0.5606 0.0
N1101 N 0.51767 0.34068 0.42727 0.0
H1102 H 0.10278 0.66871 0.31072 0.0
H1103 H 1.00726 0.60799 0.32032 0.0
H1104 H 0.10156 0.60842 0.32093 0.0
H1105 H 1.0088 0.66823 0.29966 0.0
H1106 H 0.04092 0.60789 0.32305 0.0
H1107 H 0.069 0.66873 0.3084 0.0
C1108 C 0.09558 0.65538 0.31254 0.0
C1109 C 0.10577 0.63853 0.31604 0.0
C1110 C 0.03397 0.62119 0.31789 0.0
C1111 C 0.06575 0.63848 0.31353 0.0
C1112 C 1.01437 0.62133 0.31679 0.0
C1113 C 1.00417 0.63817 0.30973 0.0
C1114 C 0.0443 0.63802 0.3123 0.0
C1115 C 1.01526 0.65468 0.30414 0.0
C1116 C 0.076 0.65543 0.31116 0.0
C1117 C 0.09488 0.6219 0.31819 0.0
N1118 N 0.03423 0.65414 0.30572 0.0
N1119 N 0.07589 0.62233 0.31701 0.0
H1120 H 0.19526 0.53177 0.25545 0.0
H1121 H 0.13043 0.45855 0.00443 0.0
H1122 H 0.13714 0.53951 0.22093 0.0
H1123 H 0.1892 0.4533 0.02437 0.0
H1124 H 0.13245 0.48823 0.08372 0.0
H1125 H 0.19294 0.50201 0.17686 0.0
C1126 C 0.18197 0.52703 0.23223 0.0
C1127 C 0.16638 0.53807 0.24419 0.0
C1128 C 0.14491 0.48064 0.07015 0.0
C1129 C 0.16364 0.5043 0.15339 0.0
C1130 C 0.14379 0.46379 0.02428 0.0
C1131 C 0.15967 0.4534 0.00833 0.0
C1132 C 0.16201 0.48708 0.10034 0.0
C1133 C 0.1766 0.46082 0.03556 0.0
C1134 C 0.18066 0.51013 0.18701 0.0
C1135 C 0.14946 0.5313 0.21365 0.0
N1136 N 0.17731 0.47716 0.08092 0.0
N1137 N 0.14855 0.51488 0.16888 0.0
H1138 H 0.7755 0.92093 0.25962 0.0
H1139 H 0.86805 0.86266 0.26003 0.0
H1140 H 0.77619 0.86073 0.22803 0.0
H1141 H 0.86404 0.92152 0.32606 0.0
H1142 H 0.83452 0.8608 0.25281 0.0
H1143 H 0.80828 0.9208 0.28654 0.0
C1144 C 0.78266 0.90768 0.25777 0.0
C1145 C 0.77332 0.89085 0.24045 0.0
C1146 C 0.84105 0.87404 0.26965 0.0
C1147 C 0.81077 0.89049 0.27218 0.0
C1148 C 0.86012 0.8751 0.27385 0.0
C1149 C 0.86876 0.89232 0.2925 0.0
C1150 C 0.83076 0.89032 0.2841 0.0
C1151 C 0.85794 0.90801 0.31024 0.0
C1152 C 0.80133 0.90757 0.27392 0.0
C1153 C 0.78306 0.87399 0.24091 0.0
N1154 N 0.83951 0.90665 0.30498 0.0
N1155 N 0.80139 0.87423 0.2559 0.0
H1156 H 0.42579 0.43503 0.30803 0.0
H1157 H 0.3655 0.5301 0.28715 0.0
H1158 H 0.36687 0.43489 0.29454 0.0
H1159 H 0.42423 0.53062 0.31722 0.0
H1160 H 0.3659 0.49571 0.28616 0.0
H1161 H 0.42561 0.46959 0.30868 0.0
C1162 C 0.41276 0.44215 0.30515 0.0
C1163 C 0.39632 0.43158 0.30125 0.0
C1164 C 0.37874 0.5033 0.29299 0.0
C1165 C 0.39602 0.47194 0.30174 0.0
C1166 C 0.37857 0.52318 0.293 0.0
C1167 C 0.39487 0.53394 0.30213 0.0
C1168 C 0.39534 0.4935 0.30175 0.0
C1169 C 0.41118 0.52344 0.31102 0.0
C1170 C 0.41268 0.46206 0.30559 0.0
C1171 C 0.37997 0.44208 0.29771 0.0
N1172 N 0.41098 0.50412 0.31035 0.0
N1173 N 0.38026 0.46139 0.2979 0.0
H1174 H 0.81682 0.20053 0.82342 0.0
H1175 H 0.78324 0.11416 0.54 0.0
H1176 H 0.82415 0.14285 0.8978 0.0
H1177 H 0.7564 0.16781 0.52432 0.0
H1178 H 0.80052 0.12573 0.66477 0.0
H1179 H 0.79496 0.19002 0.71238 0.0
C1180 C 0.81339 0.18574 0.81841 0.0
C1181 C 0.82255 0.1725 0.86885 0.0
C1182 C 0.79084 0.13496 0.63389 0.0
C1183 C 0.79819 0.16044 0.74066 0.0
C1184 C 0.78106 0.12841 0.56232 0.0
C1185 C 0.76827 0.13997 0.52166 0.0
C1186 C 0.788 0.1533 0.66461 0.0
C1187 C 0.76629 0.15846 0.55271 0.0
C1188 C 0.80109 0.17974 0.75436 0.0
C1189 C 0.81763 0.15352 0.85935 0.0
N1190 N 0.77605 0.16456 0.62246 0.0
N1191 N 0.80608 0.14802 0.79513 0.0
H1192 H 0.91564 0.57997 0.21898 0.0
H1193 H 0.83923 0.50601 0.05978 0.0
H1194 H 0.85786 0.58577 0.27009 0.0
H1195 H 0.89698 0.50046 0.00765 0.0
H1196 H 0.84566 0.5358 0.13383 0.0
H1197 H 0.90915 0.55027 0.1446 0.0
C1198 C 0.90164 0.57485 0.21595 0.0
C1199 C 0.88727 0.58542 0.25038 0.0
C1200 C 0.8569 0.52811 0.10558 0.0
C1201 C 0.8797 0.5517 0.16381 0.0
C1202 C 0.8532 0.51121 0.0625 0.0
C1203 C 0.8676 0.5007 0.02796 0.0
C1204 C 0.8751 0.53447 0.11409 0.0
C1205 C 0.88547 0.50805 0.03386 0.0
C1206 C 0.89791 0.55799 0.17266 0.0
C1207 C 0.86937 0.57815 0.24404 0.0
N1208 N 0.88873 0.52442 0.07673 0.0
N1209 N 0.86608 0.56181 0.20098 0.0
H1210 H 0.22314 0.1969 0.71541 0.0
H1211 H 0.28001 0.126 0.42441 0.0
H1212 H 0.22274 0.13684 0.74846 0.0
H1213 H 0.29686 0.18381 0.45801 0.0
H1214 H 0.25541 0.13109 0.52753 0.0
H1215 H 0.24817 0.19358 0.61187 0.0
C1216 C 0.22857 0.18307 0.70242 0.0
C1217 C 0.22073 0.16709 0.74006 0.0
C1218 C 0.26443 0.1427 0.51196 0.0
C1219 C 0.24878 0.1632 0.61979 0.0
C1220 C 0.27838 0.13983 0.45272 0.0
C1221 C 0.29063 0.15444 0.43339 0.0
C1222 C 0.26258 0.16033 0.55178 0.0
C1223 C 0.28767 0.17219 0.47078 0.0
C1224 C 0.24269 0.18119 0.64259 0.0
C1225 C 0.22814 0.1495 0.7198 0.0
N1226 N 0.27399 0.17462 0.52885 0.0
N1227 N 0.24158 0.14801 0.66027 0.0
H1228 H 0.58304 0.55029 0.39246 0.0
H1229 H 0.63638 0.47448 0.66174 0.0
H1230 H 0.6415 0.54176 0.38293 0.0
H1231 H 0.58472 0.45888 0.54463 0.0
H1232 H 0.63412 0.50541 0.59647 0.0
H1233 H 0.57989 0.52096 0.47364 0.0
C1234 C 0.59514 0.54214 0.40607 0.0
C1235 C 0.61261 0.5486 0.38203 0.0
C1236 C 0.62309 0.49534 0.58655 0.0
C1237 C 0.6091 0.51587 0.47712 0.0
C1238 C 0.62428 0.47785 0.62442 0.0
C1239 C 0.61081 0.46423 0.60737 0.0
C1240 C 0.60835 0.49915 0.53142 0.0
C1241 C 0.59535 0.46915 0.55885 0.0
C1242 C 0.59332 0.5256 0.45309 0.0
C1243 C 0.62783 0.53758 0.40204 0.0
N1244 N 0.59463 0.48626 0.52097 0.0
N1245 N 0.62575 0.52191 0.4495 0.0
H1246 H 0.27434 0.89708 0.33591 0.0
H1247 H 0.1924 0.96856 0.25347 0.0
H1248 H 0.28292 0.95697 0.32202 0.0
H1249 H 0.1896 0.90856 0.21153 0.0
H1250 H 0.22469 0.96534 0.29641 0.0
H1251 H 0.24163 0.90182 0.31531 0.0
C1252 C 0.26928 0.91125 0.32996 0.0
C1253 C 0.2813 0.92663 0.32941 0.0
C1254 C 0.2169 0.95296 0.27762 0.0
C1255 C 0.24404 0.93216 0.30372 0.0
C1256 C 0.19858 0.9548 0.25265 0.0
C1257 C 0.18833 0.93883 0.22892 0.0
C1258 C 0.22477 0.93503 0.27921 0.0
C1259 C 0.19692 0.92129 0.22947 0.0
C1260 C 0.25064 0.91396 0.31725 0.0
C1261 C 0.27406 0.94472 0.32092 0.0
N1262 N 0.21458 0.91988 0.2545 0.0
N1263 N 0.25584 0.947 0.30753 0.0
H1264 H 0.65334 0.96612 0.1988 0.0
H1265 H 0.71492 0.05619 0.31377 0.0
H1266 H 0.71103 0.96141 0.25665 0.0
H1267 H 0.65578 0.05485 0.30568 0.0
H1268 H 0.71502 0.02228 0.28239 0.0
H1269 H 0.65539 0.99962 0.22322 0.0
C1270 C 0.66652 0.97215 0.21645 0.0
C1271 C 0.68202 0.96089 0.22652 0.0
C1272 C 0.70208 0.02949 0.28774 0.0
C1273 C 0.68444 0.99956 0.25538 0.0
C1274 C 0.702 0.04879 0.30565 0.0
C1275 C 0.68532 0.05837 0.31219 0.0
C1276 C 0.68538 0.01988 0.27573 0.0
C1277 C 0.66899 0.04813 0.3012 0.0
C1278 C 0.66767 0.99136 0.23067 0.0
C1279 C 0.69875 0.96961 0.2485 0.0
N1280 N 0.66946 0.02952 0.2833 0.0
N1281 N 0.69952 0.98851 0.26275 0.0
H1282 H 0.2629 0.41071 0.83196 0.0
H1283 H 0.28903 0.34969 0.41554 0.0
H1284 H 0.23673 0.35809 0.76372 0.0
H1285 H 0.31352 0.40342 0.4785 0.0
H1286 H 0.26941 0.35261 0.54211 0.0
H1287 H 0.28274 0.40748 0.70636 0.0
C1288 C 0.26162 0.39829 0.79148 0.0
C1289 C 0.24813 0.38468 0.80802 0.0
C1290 C 0.27892 0.36388 0.52765 0.0
C1291 C 0.27041 0.38109 0.66341 0.0
C1292 C 0.28996 0.36229 0.45501 0.0
C1293 C 0.30287 0.37634 0.43658 0.0
C1294 C 0.28091 0.37958 0.58243 0.0
C1295 C 0.30359 0.39237 0.48974 0.0
C1296 C 0.2728 0.39654 0.71941 0.0
C1297 C 0.24706 0.36882 0.75386 0.0
N1298 N 0.29289 0.39346 0.56084 0.0
N1299 N 0.25792 0.36757 0.68337 0.0
H1300 H 0.88281 1.00068 0.23811 0.0
H1301 H 0.92588 0.09317 0.03862 0.0
H1302 H 0.94087 1.00557 0.19177 0.0
H1303 H 0.86991 0.07496 -0.00149 0.0
H1304 H 0.93238 0.06313 0.10774 0.0
H1305 H 0.87836 0.03108 0.17116 0.0
C1306 C 0.89464 0.00829 0.21457 0.0
C1307 C 0.91219 1.00056 0.21928 0.0
C1308 C 0.91874 0.06573 0.08303 0.0
C1309 C 0.9072 0.03521 0.14223 0.0
C1310 C 0.91507 0.08273 0.04289 0.0
C1311 C 0.89727 0.0866 0.01372 0.0
C1312 C 0.90446 0.05273 0.09459 0.0
C1313 C 0.88372 0.0727 0.0217 0.0
C1314 C 0.89209 0.02555 0.17596 0.0
C1315 C 0.92712 0.01111 0.1894 0.0
N1316 N 0.88755 0.05647 0.06225 0.0
N1317 N 0.92428 0.02794 0.15131 0.0
H1318 H 0.23369 0.60995 0.31886 0.0
H1319 H 0.32812 0.67247 0.31168 0.0
H1320 H 0.23405 0.67031 0.31798 0.0
H1321 H 0.32793 0.61211 0.31014 0.0
H1322 H 0.29436 0.67192 0.31431 0.0
H1323 H 0.26748 0.61041 0.31619 0.0
C1324 C 0.2407 0.62339 0.31822 0.0
C1325 C 0.23031 0.64012 0.31884 0.0
C1326 C 0.30159 0.65872 0.31342 0.0
C1327 C 0.27025 0.64074 0.31559 0.0
C1328 C 0.32115 0.65901 0.31189 0.0
C1329 C 0.3316 0.64232 0.31066 0.0
C1330 C 0.29165 0.64158 0.31382 0.0
C1331 C 0.32101 0.62548 0.31103 0.0
C1332 C 0.26027 0.62362 0.31662 0.0
C1333 C 0.24093 0.65692 0.31771 0.0
N1334 N 0.30204 0.62559 0.31258 0.0
N1335 N 0.2599 0.65676 0.3162 0.0
H1336 H 0.41124 0.98225 0.32206 0.0
H1337 H 0.35336 0.07883 0.31145 0.0
H1338 H 0.35226 0.98318 0.31897 0.0
H1339 H 0.41232 0.07713 0.31653 0.0
H1340 H 0.35252 0.04429 0.31372 0.0
H1341 H 0.41171 0.01668 0.31975 0.0
C1342 C 0.39833 0.9896 0.32098 0.0
C1343 C 0.38168 0.97939 0.32086 0.0
C1344 C 0.36567 0.05143 0.3143 0.0
C1345 C 0.38215 0.01961 0.318 0.0
C1346 C 0.36618 0.0713 0.31295 0.0
C1347 C 0.38295 0.0813 0.31367 0.0
C1348 C 0.38206 0.04108 0.31642 0.0
C1349 C 0.399 0.07035 0.31579 0.0
C1350 C 0.39863 0.00943 0.31961 0.0
C1351 C 0.36549 0.99015 0.31926 0.0
N1352 N 0.39814 0.05109 0.31706 0.0
N1353 N 0.36614 0.00944 0.3179 0.0
H1354 H 0.78063 0.67781 0.29204 0.0
H1355 H 0.68487 0.61742 0.29662 0.0
H1356 H 0.77895 0.61748 0.30611 0.0
H1357 H 0.68641 0.67776 0.29497 0.0
H1358 H 0.71867 0.61721 0.29783 0.0
H1359 H 0.74698 0.67803 0.29009 0.0
C1360 C 0.77349 0.66448 0.29426 0.0
C1361 C 0.78365 0.64758 0.29927 0.0
C1362 C 0.71173 0.63057 0.29718 0.0
C1363 C 0.74352 0.64785 0.29761 0.0
C1364 C 0.69214 0.63072 0.29641 0.0
C1365 C 0.68204 0.64765 0.29564 0.0
C1366 C 0.72206 0.64748 0.29691 0.0
C1367 C 0.69302 0.66423 0.29554 0.0
C1368 C 0.7539 0.66468 0.29363 0.0
C1369 C 0.77252 0.63106 0.30327 0.0
N1370 N 0.712 0.6637 0.29604 0.0
N1371 N 0.75355 0.63166 0.30216 0.0
H1372 H 0.09095 0.12999 -0.02222 0.0
H1373 H 0.13208 0.02701 0.95785 0.0
H1374 H 0.1391 0.11544 0.83247 0.0
H1375 H 0.10601 0.04901 0.18645 0.0
H1376 H 0.12759 0.05702 0.88773 0.0
H1377 H 0.08919 0.09759 0.03 0.0
C1378 C 0.10086 0.11985 0.9553 0.0
C1379 C 0.11526 0.12527 0.90128 0.0
C1380 C 0.12279 0.0552 0.95308 0.0
C1381 C 0.11326 0.08858 0.95996 0.0
C1382 C 0.1255 0.03817 -0.00636 0.0
C1383 C 0.1199 0.03565 0.07925 0.0
C1384 C 0.11416 0.06978 -0.00226 0.0
C1385 C 0.11067 0.05038 0.1207 0.0
C1386 C 0.09993 0.1015 -0.0144 0.0
C1387 C 0.12788 0.11176 0.87456 0.0
N1388 N 0.10819 0.06693 0.07964 0.0
N1389 N 0.12661 0.094 0.90437 0.0
H1390 H 0.68368 0.41095 0.63661 0.0
H1391 H 0.7751 0.39657 0.9115 0.0
H1392 H 0.69934 0.35735 0.73954 0.0
H1393 H 0.75412 0.45064 0.83847 0.0
H1394 H 0.74896 0.38148 0.8402 0.0
H1395 H 0.71152 0.42489 0.69628 0.0
C1396 C 0.69312 0.40203 0.67097 0.0
C1397 C 0.68911 0.38297 0.68386 0.0
C1398 C 0.75005 0.39664 0.84003 0.0
C1399 C 0.72099 0.39899 0.75357 0.0
C1400 C 0.76487 0.40533 0.88162 0.0
C1401 C 0.76675 0.42498 0.8819 0.0
C1402 C 0.73704 0.40764 0.79779 0.0
C1403 C 0.75332 0.43548 0.83963 0.0
C1404 C 0.70899 0.41005 0.70544 0.0
C1405 C 0.70192 0.37209 0.72816 0.0
N1406 N 0.73905 0.42667 0.79933 0.0
N1407 N 0.71726 0.38031 0.76229 0.0
loop_
_geom_bond_atom_site_label_1
_geom_bond_atom_site_label_2
_geom_bond_distance
_geom_bond_site_symmetry_2
_ccdc_geom_bond_type
C0 O16 1.251 . S
C0 O18 1.254 . S
N1 C2 1.333 . S
N1 C6 1.307 . S
N1 Zn7 2.020 . S
C2 N1 1.333 . S
C2 C3 1.379 . S
C2 H20 0.952 . S
C3 C2 1.379 . S
C3 C4 1.390 . S
C3 H30 0.949 . S
C4 C3 1.390 . S
C4 C5 1.357 . S
C5 C4 1.357 . S
C5 C6 1.370 . S
C5 H31 0.950 . S
C6 N1 1.307 . S
C6 C5 1.370 . S
C6 H24 0.948 . S
Zn7 N1 2.020 . S
Zn7 O16 2.039 . S
Zn7 O22 2.034 . S
Zn7 O26 2.025 . S
Zn7 O28 2.024 . S
C8 O27 1.246 . S
C8 O28 1.249 . S
N9 C10 1.307 . S
N9 C11 1.333 . S
N9 Zn15 2.020 . S
C10 N9 1.307 . S
C10 C14 1.370 . S
C10 H21 0.948 . S
C11 N9 1.333 . S
C11 C12 1.379 . S
C11 H19 0.952 . S
C12 C11 1.379 . S
C12 C13 1.390 . S
C12 H32 0.949 . S
C13 C12 1.390 . S
C13 C14 1.357 . S
C14 C10 1.370 . S
C14 C13 1.357 . S
C14 H33 0.950 . S
Zn15 N9 2.020 . S
Zn15 O18 2.025 . S
Zn15 O23 2.024 . S
Zn15 O25 2.039 . S
Zn15 O27 2.034 . S
O16 C0 1.251 . S
O16 Zn7 2.039 . S
C17 O22 1.246 . S
C17 O23 1.249 . S
O18 C0 1.254 . S
O18 Zn15 2.025 . S
H19 C11 0.952 . S
H20 C2 0.952 . S
H21 C10 0.948 . S
O22 Zn7 2.034 . S
O22 C17 1.246 . S
O23 Zn15 2.024 . S
O23 C17 1.249 . S
H24 C6 0.948 . S
O25 Zn15 2.039 . S
O25 C29 1.251 1_554 S
O26 Zn7 2.025 . S
O26 C29 1.254 1_554 S
O27 C8 1.246 . S
O27 Zn15 2.034 . S
O28 Zn7 2.024 . S
O28 C8 1.249 . S
C29 O25 1.251 1_556 S
C29 O26 1.254 1_556 S
H30 C3 0.949 . S
H31 C5 0.950 . S
H32 C12 0.949 . S
H33 C14 0.950 . S
C34 O50 1.251 . S
C34 O52 1.254 . S
N35 C36 1.333 . S
N35 C40 1.307 . S
N35 Zn41 2.020 . S
C36 N35 1.333 . S
C36 C37 1.379 . S
C36 H54 0.952 . S
C37 C36 1.379 . S
C37 C38 1.390 . S
C37 H64 0.949 . S
C38 C37 1.390 . S
C38 C39 1.357 . S
C39 C38 1.357 . S
C39 C40 1.370 . S
C39 H65 0.950 . S
C40 N35 1.307 . S
C40 C39 1.370 . S
C40 H58 0.948 . S
Zn41 N35 2.020 . S
Zn41 O50 2.039 . S
Zn41 O56 2.034 . S
Zn41 O60 2.025 . S
Zn41 O62 2.024 . S
C42 O61 1.246 . S
C42 O62 1.249 . S
N43 C44 1.307 . S
N43 C45 1.333 . S
N43 Zn49 2.020 . S
C44 N43 1.307 . S
C44 C48 1.370 . S
C44 H55 0.948 . S
C45 N43 1.333 . S
C45 C46 1.379 . S
C45 H53 0.952 . S
C46 C45 1.379 . S
C46 C47 1.390 . S
C46 H66 0.949 . S
C47 C46 1.390 . S
C47 C48 1.357 . S
C48 C44 1.370 . S
C48 C47 1.357 . S
C48 H67 0.950 . S
Zn49 N43 2.020 . S
Zn49 O52 2.025 . S
Zn49 O57 2.024 . S
Zn49 O59 2.039 . S
Zn49 O61 2.034 . S
O50 C34 1.251 . S
O50 Zn41 2.039 . S
C51 O56 1.246 . S
C51 O57 1.249 . S
O52 C34 1.254 . S
O52 Zn49 2.025 . S
H53 C45 0.952 . S
H54 C36 0.952 . S
H55 C44 0.948 . S
O56 Zn41 2.034 . S
O56 C51 1.246 . S
O57 Zn49 2.024 . S
O57 C51 1.249 . S
H58 C40 0.948 . S
O59 Zn49 2.039 . S
O59 C63 1.251 . S
O60 Zn41 2.025 . S
O60 C63 1.254 . S
O61 C42 1.246 . S
O61 Zn49 2.034 . S
O62 Zn41 2.024 . S
O62 C42 1.249 . S
C63 O59 1.251 . S
C63 O60 1.254 . S
H64 C37 0.949 . S
H65 C39 0.950 . S
H66 C46 0.949 . S
H67 C48 0.950 . S
C68 O84 1.251 . S
C68 O86 1.254 . S
N69 C70 1.333 . S
N69 C74 1.307 . S
N69 Zn75 2.020 . S
C70 N69 1.333 . S
C70 C71 1.379 . S
C70 H88 0.952 . S
C71 C70 1.379 . S
C71 C72 1.390 . S
C71 H98 0.949 . S
C72 C71 1.390 . S
C72 C73 1.357 . S
C73 C72 1.357 . S
C73 C74 1.370 . S
C73 H99 0.950 . S
C74 N69 1.307 . S
C74 C73 1.370 . S
C74 H92 0.948 . S
Zn75 N69 2.020 . S
Zn75 O84 2.039 . S
Zn75 O90 2.034 . S
Zn75 O94 2.025 . S
Zn75 O96 2.024 . S
C76 O95 1.246 . S
C76 O96 1.249 . S
N77 C78 1.307 . S
N77 C79 1.333 . S
N77 Zn83 2.020 . S
C78 N77 1.307 . S
C78 C82 1.370 . S
C78 H89 0.948 . S
C79 N77 1.333 . S
C79 C80 1.379 . S
C79 H87 0.952 . S
C80 C79 1.379 . S
C80 C81 1.390 . S
C80 H100 0.949 . S
C81 C80 1.390 . S
C81 C82 1.357 . S
C82 C78 1.370 . S
C82 C81 1.357 . S
C82 H101 0.950 . S
Zn83 N77 2.020 . S
Zn83 O86 2.025 . S
Zn83 O91 2.024 . S
Zn83 O93 2.039 . S
Zn83 O95 2.034 . S
O84 C68 1.251 . S
O84 Zn75 2.039 . S
C85 O90 1.246 . S
C85 O91 1.249 . S
O86 C68 1.254 . S
O86 Zn83 2.025 . S
H87 C79 0.952 . S
H88 C70 0.952 . S
H89 C78 0.948 . S
O90 Zn75 2.034 . S
O90 C85 1.246 . S
O91 Zn83 2.024 . S
O91 C85 1.249 . S
H92 C74 0.948 . S
O93 Zn83 2.039 . S
O93 C97 1.251 . S
O94 Zn75 2.025 . S
O94 C97 1.254 . S
O95 C76 1.246 . S
O95 Zn83 2.034 . S
O96 Zn75 2.024 . S
O96 C76 1.249 . S
C97 O93 1.251 . S
C97 O94 1.254 . S
H98 C71 0.949 . S
H99 C73 0.950 . S
H100 C80 0.949 . S
H101 C82 0.950 . S
C102 O118 1.251 . S
C102 O120 1.254 . S
N103 C104 1.333 . S
N103 C108 1.307 . S
N103 Zn109 2.020 . S
C104 N103 1.333 . S
C104 C105 1.379 . S
C104 H122 0.952 . S
C105 C104 1.379 . S
C105 C106 1.390 . S
C105 H132 0.949 . S
C106 C105 1.390 . S
C106 C107 1.357 . S
C107 C106 1.357 . S
C107 C108 1.370 . S
C107 H133 0.950 . S
C108 N103 1.307 . S
C108 C107 1.370 . S
C108 H126 0.948 . S
Zn109 N103 2.020 . S
Zn109 O118 2.039 . S
Zn109 O124 2.034 . S
Zn109 O128 2.025 1_556 S
Zn109 O130 2.024 . S
C110 O129 1.246 . S
C110 O130 1.249 . S
N111 C112 1.307 . S
N111 C113 1.333 . S
N111 Zn117 2.020 . S
C112 N111 1.307 . S
C112 C116 1.370 . S
C112 H123 0.948 . S
C113 N111 1.333 . S
C113 C114 1.379 . S
C113 H121 0.952 1_556 S
C114 C113 1.379 . S
C114 C115 1.390 . S
C114 H134 0.949 1_556 S
C115 C114 1.390 . S
C115 C116 1.357 . S
C116 C112 1.370 . S
C116 C115 1.357 . S
C116 H135 0.950 . S
Zn117 N111 2.020 . S
Zn117 O120 2.025 . S
Zn117 O125 2.024 . S
Zn117 O127 2.039 1_556 S
Zn117 O129 2.034 . S
O118 C102 1.251 . S
O118 Zn109 2.039 . S
C119 O124 1.246 . S
C119 O125 1.249 . S
O120 C102 1.254 . S
O120 Zn117 2.025 . S
H121 C113 0.952 1_554 S
H122 C104 0.952 . S
H123 C112 0.948 . S
O124 Zn109 2.034 . S
O124 C119 1.246 . S
O125 Zn117 2.024 . S
O125 C119 1.249 . S
H126 C108 0.948 . S
O127 Zn117 2.039 1_554 S
O127 C131 1.251 . S
O128 Zn109 2.025 1_554 S
O128 C131 1.254 . S
O129 C110 1.246 . S
O129 Zn117 2.034 . S
O130 Zn109 2.024 . S
O130 C110 1.249 . S
C131 O127 1.251 . S
C131 O128 1.254 . S
H132 C105 0.949 . S
H133 C107 0.950 . S
H134 C114 0.949 1_554 S
H135 C116 0.950 . S
C136 O152 1.251 . S
C136 O154 1.254 . S
N137 C138 1.333 . S
N137 C142 1.307 . S
N137 Zn143 2.020 . S
C138 N137 1.333 . S
C138 C139 1.379 1_556 S
C138 H156 0.952 1_556 S
C139 C138 1.379 1_554 S
C139 C140 1.390 1_554 S
C139 H166 0.949 . S
C140 C139 1.390 1_556 S
C140 C141 1.357 . S
C141 C140 1.357 . S
C141 C142 1.370 . S
C141 H167 0.950 . S
C142 N137 1.307 . S
C142 C141 1.370 . S
C142 H160 0.948 . S
Zn143 N137 2.020 . S
Zn143 O152 2.039 1_556 S
Zn143 O158 2.034 . S
Zn143 O162 2.025 . S
Zn143 O164 2.024 . S
C144 O163 1.246 . S
C144 O164 1.249 . S
N145 C146 1.307 . S
N145 C147 1.333 . S
N145 Zn151 2.020 . S
C146 N145 1.307 . S
C146 C150 1.370 . S
C146 H157 0.948 1_556 S
C147 N145 1.333 . S
C147 C148 1.379 . S
C147 H155 0.952 . S
C148 C147 1.379 . S
C148 C149 1.390 . S
C148 H168 0.949 . S
C149 C148 1.390 . S
C149 C150 1.357 . S
C150 C146 1.370 . S
C150 C149 1.357 . S
C150 H169 0.950 . S
Zn151 N145 2.020 . S
Zn151 O154 2.025 1_556 S
Zn151 O159 2.024 . S
Zn151 O161 2.039 . S
Zn151 O163 2.034 . S
O152 C136 1.251 . S
O152 Zn143 2.039 1_554 S
C153 O158 1.246 . S
C153 O159 1.249 . S
O154 C136 1.254 . S
O154 Zn151 2.025 1_554 S
H155 C147 0.952 . S
H156 C138 0.952 1_554 S
H157 C146 0.948 1_554 S
O158 Zn143 2.034 . S
O158 C153 1.246 . S
O159 Zn151 2.024 . S
O159 C153 1.249 . S
H160 C142 0.948 . S
O161 Zn151 2.039 . S
O161 C165 1.251 . S
O162 Zn143 2.025 . S
O162 C165 1.254 . S
O163 C144 1.246 . S
O163 Zn151 2.034 . S
O164 Zn143 2.024 . S
O164 C144 1.249 . S
C165 O161 1.251 . S
C165 O162 1.254 . S
H166 C139 0.949 . S
H167 C141 0.950 . S
H168 C148 0.949 . S
H169 C150 0.950 . S
C170 O186 1.251 . S
C170 O188 1.254 . S
N171 C172 1.333 . S
N171 C176 1.307 . S
N171 Zn177 2.020 . S
C172 N171 1.333 . S
C172 C173 1.379 . S
C172 H190 0.952 . S
C173 C172 1.379 . S
C173 C174 1.390 . S
C173 H200 0.949 . S
C174 C173 1.390 . S
C174 C175 1.357 . S
C175 C174 1.357 . S
C175 C176 1.370 . S
C175 H201 0.950 . S
C176 N171 1.307 . S
C176 C175 1.370 . S
C176 H194 0.948 . S
Zn177 N171 2.020 . S
Zn177 O186 2.039 . S
Zn177 O192 2.034 . S
Zn177 O196 2.025 . S
Zn177 O198 2.024 . S
C178 O197 1.246 . S
C178 O198 1.249 . S
N179 C180 1.307 . S
N179 C181 1.333 . S
N179 Zn185 2.020 . S
C180 N179 1.307 . S
C180 C184 1.370 . S
C180 H191 0.948 . S
C181 N179 1.333 . S
C181 C182 1.379 . S
C181 H189 0.952 . S
C182 C181 1.379 . S
C182 C183 1.390 . S
C182 H202 0.949 . S
C183 C182 1.390 . S
C183 C184 1.357 . S
C184 C180 1.370 . S
C184 C183 1.357 . S
C184 H203 0.950 . S
Zn185 N179 2.020 . S
Zn185 O188 2.025 . S
Zn185 O193 2.024 . S
Zn185 O195 2.039 . S
Zn185 O197 2.034 . S
O186 C170 1.251 . S
O186 Zn177 2.039 . S
C187 O192 1.246 . S
C187 O193 1.249 . S
O188 C170 1.254 . S
O188 Zn185 2.025 . S
H189 C181 0.952 . S
H190 C172 0.952 . S
H191 C180 0.948 . S
O192 Zn177 2.034 . S
O192 C187 1.246 . S
O193 Zn185 2.024 . S
O193 C187 1.249 . S
H194 C176 0.948 . S
O195 Zn185 2.039 . S
O195 C199 1.251 1_554 S
O196 Zn177 2.025 . S
O196 C199 1.254 1_554 S
O197 C178 1.246 . S
O197 Zn185 2.034 . S
O198 Zn177 2.024 . S
O198 C178 1.249 . S
C199 O195 1.251 1_556 S
C199 O196 1.254 1_556 S
H200 C173 0.949 . S
H201 C175 0.950 . S
H202 C182 0.949 . S
H203 C184 0.950 . S
C204 O220 1.251 . S
C204 O222 1.254 . S
N205 C206 1.333 . S
N205 C210 1.307 . S
N205 Zn211 2.020 . S
C206 N205 1.333 . S
C206 C207 1.379 . S
C206 H224 0.952 . S
C207 C206 1.379 . S
C207 C208 1.390 . S
C207 H234 0.949 . S
C208 C207 1.390 . S
C208 C209 1.357 . S
C209 C208 1.357 . S
C209 C210 1.370 . S
C209 H235 0.950 . S
C210 N205 1.307 . S
C210 C209 1.370 . S
C210 H228 0.948 . S
Zn211 N205 2.020 . S
Zn211 O220 2.039 . S
Zn211 O226 2.034 . S
Zn211 O230 2.025 . S
Zn211 O232 2.024 . S
C212 O231 1.246 . S
C212 O232 1.249 . S
N213 C214 1.307 . S
N213 C215 1.333 . S
N213 Zn219 2.020 . S
C214 N213 1.307 . S
C214 C218 1.370 . S
C214 H225 0.948 . S
C215 N213 1.333 . S
C215 C216 1.379 . S
C215 H223 0.952 . S
C216 C215 1.379 . S
C216 C217 1.390 . S
C216 H236 0.949 . S
C217 C216 1.390 . S
C217 C218 1.357 . S
C218 C214 1.370 . S
C218 C217 1.357 . S
C218 H237 0.950 . S
Zn219 N213 2.020 . S
Zn219 O222 2.025 . S
Zn219 O227 2.024 . S
Zn219 O229 2.039 . S
Zn219 O231 2.034 . S
O220 C204 1.251 . S
O220 Zn211 2.039 . S
C221 O226 1.246 . S
C221 O227 1.249 . S
O222 C204 1.254 . S
O222 Zn219 2.025 . S
H223 C215 0.952 . S
H224 C206 0.952 . S
H225 C214 0.948 . S
O226 Zn211 2.034 . S
O226 C221 1.246 . S
O227 Zn219 2.024 . S
O227 C221 1.249 . S
H228 C210 0.948 . S
O229 Zn219 2.039 . S
O229 C233 1.251 . S
O230 Zn211 2.025 . S
O230 C233 1.254 . S
O231 C212 1.246 . S
O231 Zn219 2.034 . S
O232 Zn211 2.024 . S
O232 C212 1.249 . S
C233 O229 1.251 . S
C233 O230 1.254 . S
H234 C207 0.949 . S
H235 C209 0.950 . S
H236 C216 0.949 . S
H237 C218 0.950 . S
C238 O254 1.251 . S
C238 O256 1.254 . S
N239 C240 1.333 . S
N239 C244 1.307 . S
N239 Zn245 2.020 . S
C240 N239 1.333 . S
C240 C241 1.379 . S
C240 H258 0.952 . S
C241 C240 1.379 . S
C241 C242 1.390 . S
C241 H268 0.949 . S
C242 C241 1.390 . S
C242 C243 1.357 . S
C243 C242 1.357 . S
C243 C244 1.370 . S
C243 H269 0.950 . S
C244 N239 1.307 . S
C244 C243 1.370 . S
C244 H262 0.948 . S
Zn245 N239 2.020 . S
Zn245 O254 2.039 . S
Zn245 O260 2.034 . S
Zn245 O264 2.025 . S
Zn245 O266 2.024 . S
C246 O265 1.246 . S
C246 O266 1.249 . S
N247 C248 1.307 . S
N247 C249 1.333 . S
N247 Zn253 2.020 . S
C248 N247 1.307 . S
C248 C252 1.370 . S
C248 H259 0.948 . S
C249 N247 1.333 . S
C249 C250 1.379 . S
C249 H257 0.952 . S
C250 C249 1.379 . S
C250 C251 1.390 . S
C250 H270 0.949 . S
C251 C250 1.390 . S
C251 C252 1.357 . S
C252 C248 1.370 . S
C252 C251 1.357 . S
C252 H271 0.950 . S
Zn253 N247 2.020 . S
Zn253 O256 2.025 . S
Zn253 O261 2.024 . S
Zn253 O263 2.039 . S
Zn253 O265 2.034 . S
O254 C238 1.251 . S
O254 Zn245 2.039 . S
C255 O260 1.246 . S
C255 O261 1.249 . S
O256 C238 1.254 . S
O256 Zn253 2.025 . S
H257 C249 0.952 . S
H258 C240 0.952 . S
H259 C248 0.948 . S
O260 Zn245 2.034 . S
O260 C255 1.246 . S
O261 Zn253 2.024 . S
O261 C255 1.249 . S
H262 C244 0.948 . S
O263 Zn253 2.039 . S
O263 C267 1.251 . S
O264 Zn245 2.025 . S
O264 C267 1.254 . S
O265 C246 1.246 . S
O265 Zn253 2.034 . S
O266 Zn245 2.024 . S
O266 C246 1.249 . S
C267 O263 1.251 . S
C267 O264 1.254 . S
H268 C241 0.949 . S
H269 C243 0.950 . S
H270 C250 0.949 . S
H271 C252 0.950 . S
C272 O288 1.251 . S
C272 O290 1.254 . S
N273 C274 1.333 . S
N273 C278 1.307 . S
N273 Zn279 2.020 . S
C274 N273 1.333 . S
C274 C275 1.379 . S
C274 H292 0.952 . S
C275 C274 1.379 . S
C275 C276 1.390 . S
C275 H302 0.949 . S
C276 C275 1.390 . S
C276 C277 1.357 . S
C277 C276 1.357 . S
C277 C278 1.370 . S
C277 H303 0.950 . S
C278 N273 1.307 . S
C278 C277 1.370 . S
C278 H296 0.948 . S
Zn279 N273 2.020 . S
Zn279 O288 2.039 . S
Zn279 O294 2.034 . S
Zn279 O298 2.025 1_556 S
Zn279 O300 2.024 . S
C280 O299 1.246 . S
C280 O300 1.249 . S
N281 C282 1.307 . S
N281 C283 1.333 . S
N281 Zn287 2.020 . S
C282 N281 1.307 . S
C282 C286 1.370 . S
C282 H293 0.948 . S
C283 N281 1.333 . S
C283 C284 1.379 1_556 S
C283 H291 0.952 1_556 S
C284 C283 1.379 1_554 S
C284 C285 1.390 1_554 S
C284 H304 0.949 . S
C285 C284 1.390 1_556 S
C285 C286 1.357 . S
C286 C282 1.370 . S
C286 C285 1.357 . S
C286 H305 0.950 . S
Zn287 N281 2.020 . S
Zn287 O290 2.025 . S
Zn287 O295 2.024 . S
Zn287 O297 2.039 1_556 S
Zn287 O299 2.034 . S
O288 C272 1.251 . S
O288 Zn279 2.039 . S
C289 O294 1.246 . S
C289 O295 1.249 . S
O290 C272 1.254 . S
O290 Zn287 2.025 . S
H291 C283 0.952 1_554 S
H292 C274 0.952 . S
H293 C282 0.948 . S
O294 Zn279 2.034 . S
O294 C289 1.246 . S
O295 Zn287 2.024 . S
O295 C289 1.249 . S
H296 C278 0.948 . S
O297 Zn287 2.039 1_554 S
O297 C301 1.251 . S
O298 Zn279 2.025 1_554 S
O298 C301 1.254 . S
O299 C280 1.246 . S
O299 Zn287 2.034 . S
O300 Zn279 2.024 . S
O300 C280 1.249 . S
C301 O297 1.251 . S
C301 O298 1.254 . S
H302 C275 0.949 . S
H303 C277 0.950 . S
H304 C284 0.949 . S
H305 C286 0.950 . S
C306 O322 1.251 . S
C306 O324 1.254 . S
N307 C308 1.333 . S
N307 C312 1.307 . S
N307 Zn313 2.020 . S
C308 N307 1.333 . S
C308 C309 1.379 . S
C308 H326 0.952 . S
C309 C308 1.379 . S
C309 C310 1.390 . S
C309 H336 0.949 . S
C310 C309 1.390 . S
C310 C311 1.357 . S
C311 C310 1.357 . S
C311 C312 1.370 . S
C311 H337 0.950 . S
C312 N307 1.307 . S
C312 C311 1.370 . S
C312 H330 0.948 . S
Zn313 N307 2.020 . S
Zn313 O322 2.039 . S
Zn313 O328 2.034 . S
Zn313 O332 2.025 . S
Zn313 O334 2.024 . S
C314 O333 1.246 . S
C314 O334 1.249 . S
N315 C316 1.307 . S
N315 C317 1.333 . S
N315 Zn321 2.020 . S
C316 N315 1.307 . S
C316 C320 1.370 . S
C316 H327 0.948 . S
C317 N315 1.333 . S
C317 C318 1.379 . S
C317 H325 0.952 . S
C318 C317 1.379 . S
C318 C319 1.390 . S
C318 H338 0.949 . S
C319 C318 1.390 . S
C319 C320 1.357 . S
C320 C316 1.370 . S
C320 C319 1.357 . S
C320 H339 0.950 . S
Zn321 N315 2.020 . S
Zn321 O324 2.025 . S
Zn321 O329 2.024 . S
Zn321 O331 2.039 . S
Zn321 O333 2.034 . S
O322 C306 1.251 . S
O322 Zn313 2.039 . S
C323 O328 1.246 . S
C323 O329 1.249 . S
O324 C306 1.254 . S
O324 Zn321 2.025 . S
H325 C317 0.952 . S
H326 C308 0.952 . S
H327 C316 0.948 . S
O328 Zn313 2.034 . S
O328 C323 1.246 . S
O329 Zn321 2.024 . S
O329 C323 1.249 . S
H330 C312 0.948 . S
O331 Zn321 2.039 . S
O331 C335 1.251 . S
O332 Zn313 2.025 . S
O332 C335 1.254 . S
O333 C314 1.246 . S
O333 Zn321 2.034 . S
O334 Zn313 2.024 . S
O334 C314 1.249 . S
C335 O331 1.251 . S
C335 O332 1.254 . S
H336 C309 0.949 . S
H337 C311 0.950 . S
H338 C318 0.949 . S
H339 C320 0.950 . S
C340 O356 1.251 . S
C340 O358 1.254 . S
N341 C342 1.333 . S
N341 C346 1.307 . S
N341 Zn347 2.020 . S
C342 N341 1.333 . S
C342 C343 1.379 . S
C342 H360 0.952 . S
C343 C342 1.379 . S
C343 C344 1.390 . S
C343 H370 0.949 . S
C344 C343 1.390 . S
C344 C345 1.357 . S
C345 C344 1.357 . S
C345 C346 1.370 . S
C345 H371 0.950 . S
C346 N341 1.307 . S
C346 C345 1.370 . S
C346 H364 0.948 . S
Zn347 N341 2.020 . S
Zn347 O356 2.039 . S
Zn347 O362 2.034 . S
Zn347 O366 2.025 . S
Zn347 O368 2.024 . S
C348 O367 1.246 . S
C348 O368 1.249 . S
N349 C350 1.307 . S
N349 C351 1.333 . S
N349 Zn355 2.020 . S
C350 N349 1.307 . S
C350 C354 1.370 . S
C350 H361 0.948 . S
C351 N349 1.333 . S
C351 C352 1.379 . S
C351 H359 0.952 . S
C352 C351 1.379 . S
C352 C353 1.390 . S
C352 H372 0.949 . S
C353 C352 1.390 . S
C353 C354 1.357 . S
C354 C350 1.370 . S
C354 C353 1.357 . S
C354 H373 0.950 . S
Zn355 N349 2.020 . S
Zn355 O358 2.025 . S
Zn355 O363 2.024 . S
Zn355 O365 2.039 . S
Zn355 O367 2.034 . S
O356 C340 1.251 . S
O356 Zn347 2.039 . S
C357 O362 1.246 . S
C357 O363 1.249 . S
O358 C340 1.254 . S
O358 Zn355 2.025 . S
H359 C351 0.952 . S
H360 C342 0.952 . S
H361 C350 0.948 . S
O362 Zn347 2.034 . S
O362 C357 1.246 . S
O363 Zn355 2.024 . S
O363 C357 1.249 . S
H364 C346 0.948 . S
O365 Zn355 2.039 . S
O365 C369 1.251 . S
O366 Zn347 2.025 . S
O366 C369 1.254 . S
O367 C348 1.246 . S
O367 Zn355 2.034 . S
O368 Zn347 2.024 . S
O368 C348 1.249 . S
C369 O365 1.251 . S
C369 O366 1.254 . S
H370 C343 0.949 . S
H371 C345 0.950 . S
H372 C352 0.949 . S
H373 C354 0.950 . S
C374 O390 1.251 1_556 S
C374 O392 1.254 1_556 S
N375 C376 1.333 . S
N375 C380 1.307 . S
N375 Zn381 2.020 . S
C376 N375 1.333 . S
C376 C377 1.379 . S
C376 H394 0.952 . S
C377 C376 1.379 . S
C377 C378 1.390 1_565 S
C377 H404 0.949 . S
C378 C377 1.390 1_545 S
C378 C379 1.357 1_545 S
C379 C378 1.357 1_565 S
C379 C380 1.370 . S
C379 H405 0.952 1_565 S
C380 N375 1.307 . S
C380 C379 1.370 . S
C380 H398 0.948 . S
Zn381 N375 2.020 . S
Zn381 O390 2.039 . S
Zn381 O396 2.034 . S
Zn381 O400 2.025 . S
Zn381 O402 2.024 . S
C382 O401 1.246 . S
C382 O402 1.249 . S
N383 C384 1.307 . S
N383 C385 1.333 . S
N383 Zn389 2.020 . S
C384 N383 1.307 . S
C384 C388 1.370 . S
C384 H395 0.948 . S
C385 N383 1.333 . S
C385 C386 1.379 . S
C385 H393 0.952 . S
C386 C385 1.379 . S
C386 C387 1.390 . S
C386 H406 0.949 . S
C387 C386 1.390 . S
C387 C388 1.357 . S
C388 C384 1.370 . S
C388 C387 1.357 . S
C388 H407 0.950 . S
Zn389 N383 2.020 . S
Zn389 O392 2.025 . S
Zn389 O397 2.024 . S
Zn389 O399 2.039 . S
Zn389 O401 2.034 . S
O390 C374 1.251 1_554 S
O390 Zn381 2.039 . S
C391 O396 1.246 . S
C391 O397 1.249 . S
O392 C374 1.254 1_554 S
O392 Zn389 2.025 . S
H393 C385 0.952 . S
H394 C376 0.952 . S
H395 C384 0.948 . S
O396 Zn381 2.034 . S
O396 C391 1.246 . S
O397 Zn389 2.024 . S
O397 C391 1.249 . S
H398 C380 0.948 . S
O399 Zn389 2.039 . S
O399 C403 1.251 . S
O400 Zn381 2.025 . S
O400 C403 1.254 . S
O401 C382 1.246 . S
O401 Zn389 2.034 . S
O402 Zn381 2.024 . S
O402 C382 1.249 . S
C403 O399 1.251 . S
C403 O400 1.254 . S
H404 C377 0.949 . S
H405 C379 0.952 1_545 S
H406 C386 0.949 . S
H407 C388 0.950 . S
C408 O424 1.251 . S
C408 O426 1.254 . S
N409 C410 1.333 . S
N409 C414 1.307 . S
N409 Zn415 2.020 . S
C410 N409 1.333 . S
C410 C411 1.379 . S
C410 H428 0.952 . S
C411 C410 1.379 . S
C411 C412 1.390 . S
C411 H438 0.949 . S
C412 C411 1.390 . S
C412 C413 1.357 . S
C413 C412 1.357 . S
C413 C414 1.370 . S
C413 H439 0.950 . S
C414 N409 1.307 . S
C414 C413 1.370 . S
C414 H432 0.948 . S
Zn415 N409 2.020 . S
Zn415 O424 2.039 . S
Zn415 O430 2.034 . S
Zn415 O434 2.015 1_554 S
Zn415 O436 2.024 . S
C416 O435 1.246 . S
C416 O436 1.249 . S
N417 C418 1.307 . S
N417 C419 1.333 . S
N417 Zn423 2.020 . S
C418 N417 1.307 . S
C418 C422 1.370 . S
C418 H429 0.948 . S
C419 N417 1.333 . S
C419 C420 1.379 . S
C419 H427 0.952 . S
C420 C419 1.379 . S
C420 C421 1.390 . S
C420 H440 0.949 1_554 S
C421 C420 1.390 . S
C421 C422 1.357 . S
C422 C418 1.370 . S
C422 C421 1.357 . S
C422 H441 0.950 . S
Zn423 N417 2.020 . S
Zn423 O426 2.025 . S
Zn423 O431 2.024 . S
Zn423 O433 2.045 . S
Zn423 O435 2.034 . S
O424 C408 1.251 . S
O424 Zn415 2.039 . S
C425 O430 1.246 . S
C425 O431 1.249 . S
O426 C408 1.254 . S
O426 Zn423 2.025 . S
H427 C419 0.952 . S
H428 C410 0.952 . S
H429 C418 0.948 . S
O430 Zn415 2.034 . S
O430 C425 1.246 . S
O431 Zn423 2.024 . S
O431 C425 1.249 . S
H432 C414 0.948 . S
O433 Zn423 2.045 . S
O433 C437 1.248 1_554 S
O434 Zn415 2.015 1_556 S
O434 C437 1.259 . S
O435 C416 1.246 . S
O435 Zn423 2.034 . S
O436 Zn415 2.024 . S
O436 C416 1.249 . S
C437 O433 1.248 1_556 S
C437 O434 1.259 . S
H438 C411 0.949 . S
H439 C413 0.950 . S
H440 C420 0.949 1_556 S
H441 C422 0.950 . S
C442 O458 1.251 . S
C442 O460 1.254 . S
N443 C444 1.333 . S
N443 C448 1.307 . S
N443 Zn449 2.020 . S
C444 N443 1.333 . S
C444 C445 1.379 . S
C444 H462 0.952 . S
C445 C444 1.379 . S
C445 C446 1.390 . S
C445 H472 0.949 . S
C446 C445 1.390 . S
C446 C447 1.357 . S
C447 C446 1.357 . S
C447 C448 1.370 . S
C447 H473 0.950 . S
C448 N443 1.307 . S
C448 C447 1.370 . S
C448 H466 0.948 . S
Zn449 N443 2.020 . S
Zn449 O458 2.039 . S
Zn449 O464 2.034 . S
Zn449 O468 2.025 1_556 S
Zn449 O470 2.024 . S
C450 O469 1.246 . S
C450 O470 1.249 . S
N451 C452 1.307 . S
N451 C453 1.333 . S
N451 Zn457 2.020 . S
C452 N451 1.307 . S
C452 C456 1.370 . S
C452 H463 0.948 . S
C453 N451 1.333 . S
C453 C454 1.379 . S
C453 H461 0.952 1_556 S
C454 C453 1.379 . S
C454 C455 1.390 . S
C454 H474 0.949 1_556 S
C455 C454 1.390 . S
C455 C456 1.357 . S
C456 C452 1.370 . S
C456 C455 1.357 . S
C456 H475 0.950 . S
Zn457 N451 2.020 . S
Zn457 O460 2.025 . S
Zn457 O465 2.024 . S
Zn457 O467 2.039 1_556 S
Zn457 O469 2.034 . S
O458 C442 1.251 . S
O458 Zn449 2.039 . S
C459 O464 1.246 . S
C459 O465 1.249 . S
O460 C442 1.254 . S
O460 Zn457 2.025 . S
H461 C453 0.952 1_554 S
H462 C444 0.952 . S
H463 C452 0.948 . S
O464 Zn449 2.034 . S
O464 C459 1.246 . S
O465 Zn457 2.024 . S
O465 C459 1.249 . S
H466 C448 0.948 . S
O467 Zn457 2.039 1_554 S
O467 C471 1.251 . S
O468 Zn449 2.025 1_554 S
O468 C471 1.254 . S
O469 C450 1.246 . S
O469 Zn457 2.034 . S
O470 Zn449 2.024 . S
O470 C450 1.249 . S
C471 O467 1.251 . S
C471 O468 1.254 . S
H472 C445 0.949 . S
H473 C447 0.950 . S
H474 C454 0.949 1_554 S
H475 C456 0.950 . S
C476 O492 1.251 . S
C476 O494 1.254 . S
N477 C478 1.333 . S
N477 C482 1.307 . S
N477 Zn483 2.020 . S
C478 N477 1.333 . S
C478 C479 1.379 . S
C478 H496 0.952 . S
C479 C478 1.379 . S
C479 C480 1.390 . S
C479 H506 0.949 . S
C480 C479 1.390 . S
C480 C481 1.357 . S
C481 C480 1.357 . S
C481 C482 1.370 . S
C481 H507 0.950 . S
C482 N477 1.307 . S
C482 C481 1.370 . S
C482 H500 0.948 . S
Zn483 N477 2.020 . S
Zn483 O492 2.039 . S
Zn483 O498 2.034 . S
Zn483 O502 2.025 . S
Zn483 O504 2.024 . S
C484 O503 1.246 . S
C484 O504 1.249 . S
N485 C486 1.307 . S
N485 C487 1.333 . S
N485 Zn491 2.020 . S
C486 N485 1.307 . S
C486 C490 1.370 . S
C486 H497 0.948 . S
C487 N485 1.333 . S
C487 C488 1.379 . S
C487 H495 0.952 . S
C488 C487 1.379 . S
C488 C489 1.390 . S
C488 H508 0.949 . S
C489 C488 1.390 . S
C489 C490 1.357 . S
C490 C486 1.370 . S
C490 C489 1.357 . S
C490 H509 0.950 . S
Zn491 N485 2.020 . S
Zn491 O494 2.025 . S
Zn491 O499 2.024 . S
Zn491 O501 2.039 . S
Zn491 O503 2.034 . S
O492 C476 1.251 . S
O492 Zn483 2.039 . S
C493 O498 1.246 . S
C493 O499 1.249 . S
O494 C476 1.254 . S
O494 Zn491 2.025 . S
H495 C487 0.952 . S
H496 C478 0.952 . S
H497 C486 0.948 . S
O498 Zn483 2.034 . S
O498 C493 1.246 . S
O499 Zn491 2.024 . S
O499 C493 1.249 . S
H500 C482 0.948 . S
O501 Zn491 2.039 . S
O501 C505 1.251 . S
O502 Zn483 2.025 . S
O502 C505 1.254 . S
O503 C484 1.246 . S
O503 Zn491 2.034 . S
O504 Zn483 2.024 . S
O504 C484 1.249 . S
C505 O501 1.251 . S
C505 O502 1.254 . S
H506 C479 0.949 . S
H507 C481 0.950 . S
H508 C488 0.949 . S
H509 C490 0.950 . S
C510 O526 1.251 . S
C510 O528 1.254 . S
N511 C512 1.333 . S
N511 C516 1.307 . S
N511 Zn517 2.020 . S
C512 N511 1.333 . S
C512 C513 1.379 . S
C512 H530 0.952 . S
C513 C512 1.379 . S
C513 C514 1.390 . S
C513 H540 0.949 . S
C514 C513 1.390 . S
C514 C515 1.357 . S
C515 C514 1.357 . S
C515 C516 1.370 . S
C515 H541 0.950 . S
C516 N511 1.307 . S
C516 C515 1.370 . S
C516 H534 0.948 . S
Zn517 N511 2.020 . S
Zn517 O526 2.039 . S
Zn517 O532 2.034 . S
Zn517 O536 2.025 . S
Zn517 O538 2.024 . S
C518 O537 1.246 . S
C518 O538 1.249 . S
N519 C520 1.307 . S
N519 C521 1.333 . S
N519 Zn525 2.020 . S
C520 N519 1.307 . S
C520 C524 1.370 . S
C520 H531 0.948 . S
C521 N519 1.333 . S
C521 C522 1.379 . S
C521 H529 0.952 . S
C522 C521 1.379 . S
C522 C523 1.390 . S
C522 H542 0.949 . S
C523 C522 1.390 . S
C523 C524 1.357 . S
C524 C520 1.370 . S
C524 C523 1.357 . S
C524 H543 0.950 . S
Zn525 N519 2.020 . S
Zn525 O528 2.025 . S
Zn525 O533 2.024 . S
Zn525 O535 2.039 . S
Zn525 O537 2.034 . S
O526 C510 1.251 . S
O526 Zn517 2.039 . S
C527 O532 1.246 . S
C527 O533 1.249 . S
O528 C510 1.254 . S
O528 Zn525 2.025 . S
H529 C521 0.952 . S
H530 C512 0.952 . S
H531 C520 0.948 . S
O532 Zn517 2.034 . S
O532 C527 1.246 . S
O533 Zn525 2.024 . S
O533 C527 1.249 . S
H534 C516 0.948 . S
O535 Zn525 2.039 . S
O535 C539 1.251 . S
O536 Zn517 2.025 . S
O536 C539 1.254 . S
O537 C518 1.246 . S
O537 Zn525 2.034 . S
O538 Zn517 2.024 . S
O538 C518 1.249 . S
C539 O535 1.251 . S
C539 O536 1.254 . S
H540 C513 0.949 . S
H541 C515 0.950 . S
H542 C522 0.949 . S
H543 C524 0.950 . S
H544 C550 0.930 . S
H545 C554 0.930 . S
H546 C559 0.929 . S
H547 C557 0.929 . S
H548 C552 0.929 . S
H549 C558 0.929 . S
C550 H544 0.930 . S
C550 C551 1.367 . S
C550 C558 1.378 . S
C551 C550 1.367 . S
C551 C559 1.433 . S
C552 H548 0.929 . S
C552 C554 1.378 . S
C552 C556 1.350 . S
C553 C556 1.463 . S
C553 C558 1.350 . S
C553 N561 1.427 . S
C554 H545 0.930 . S
C554 C552 1.378 . S
C554 C555 1.367 . S
C555 C554 1.367 . S
C555 C557 1.433 . S
C556 C552 1.350 . S
C556 C553 1.463 . S
C556 N560 1.427 . S
C557 H547 0.929 . S
C557 C555 1.433 . S
C557 N560 1.384 . S
C558 H549 0.929 . S
C558 C550 1.378 . S
C558 C553 1.350 . S
C559 H546 0.929 . S
C559 C551 1.433 . S
C559 N561 1.384 . S
N560 C556 1.427 . S
N560 C557 1.384 . S
N561 C553 1.427 . S
N561 C559 1.384 . S
H562 C568 0.930 . S
H563 C572 0.930 . S
H564 C577 0.929 . S
H565 C575 0.929 . S
H566 C570 0.929 . S
H567 C576 0.929 . S
C568 H562 0.930 . S
C568 C569 1.367 . S
C568 C576 1.378 1_554 S
C569 C568 1.367 . S
C569 C577 1.433 . S
C570 H566 0.929 . S
C570 C572 1.378 . S
C570 C574 1.350 . S
C571 C574 1.463 . S
C571 C576 1.350 . S
C571 N579 1.427 . S
C572 H563 0.930 . S
C572 C570 1.378 . S
C572 C573 1.367 . S
C573 C572 1.367 . S
C573 C575 1.433 . S
C574 C570 1.350 . S
C574 C571 1.463 . S
C574 N578 1.427 . S
C575 H565 0.929 . S
C575 C573 1.433 . S
C575 N578 1.384 . S
C576 H567 0.929 . S
C576 C568 1.378 1_556 S
C576 C571 1.350 . S
C577 H564 0.929 . S
C577 C569 1.433 . S
C577 N579 1.384 1_554 S
N578 C574 1.427 . S
N578 C575 1.384 . S
N579 C571 1.427 . S
N579 C577 1.384 1_556 S
H580 C586 0.930 . S
H581 C590 0.930 . S
H582 C595 0.929 . S
H583 C593 0.929 . S
H584 C588 0.929 1_554 S
H585 C594 0.929 . S
C586 H580 0.930 . S
C586 C587 1.367 . S
C586 C594 1.378 . S
C587 C586 1.367 . S
C587 C595 1.433 . S
C588 H584 0.929 1_556 S
C588 C590 1.378 . S
C588 C592 1.350 1_556 S
C589 C592 1.463 . S
C589 C594 1.350 . S
C589 N597 1.427 . S
C590 H581 0.930 . S
C590 C588 1.378 . S
C590 C591 1.367 . S
C591 C590 1.367 . S
C591 C593 1.433 . S
C592 C588 1.350 1_554 S
C592 C589 1.463 . S
C592 N596 1.427 1_554 S
C593 H583 0.929 . S
C593 C591 1.433 . S
C593 N596 1.384 . S
C594 H585 0.929 . S
C594 C586 1.378 . S
C594 C589 1.350 . S
C595 H582 0.929 . S
C595 C587 1.433 . S
C595 N597 1.384 . S
N596 C592 1.427 1_556 S
N596 C593 1.384 . S
N597 C589 1.427 . S
N597 C595 1.384 . S
H598 C604 0.930 . S
H599 C608 0.930 . S
H600 C613 0.929 . S
H601 C611 0.929 . S
H602 C606 0.929 . S
H603 C612 0.929 . S
C604 H598 0.930 . S
C604 C605 1.367 . S
C604 C612 1.378 . S
C605 C604 1.367 . S
C605 C613 1.433 . S
C606 H602 0.929 . S
C606 C608 1.378 . S
C606 C610 1.350 . S
C607 C610 1.463 . S
C607 C612 1.350 . S
C607 N615 1.427 . S
C608 H599 0.930 . S
C608 C606 1.378 . S
C608 C609 1.367 . S
C609 C608 1.367 . S
C609 C611 1.433 . S
C610 C606 1.350 . S
C610 C607 1.463 . S
C610 N614 1.427 . S
C611 H601 0.929 . S
C611 C609 1.433 . S
C611 N614 1.384 . S
C612 H603 0.929 . S
C612 C604 1.378 . S
C612 C607 1.350 . S
C613 H600 0.929 . S
C613 C605 1.433 . S
C613 N615 1.384 . S
N614 C610 1.427 . S
N614 C611 1.384 . S
N615 C607 1.427 . S
N615 C613 1.384 . S
H616 C622 0.930 . S
H617 C626 0.930 . S
H618 C631 0.929 . S
H619 C629 0.929 . S
H620 C624 0.929 . S
H621 C630 0.929 . S
C622 H616 0.930 . S
C622 C623 1.367 . S
C622 C630 1.378 . S
C623 C622 1.367 . S
C623 C631 1.433 . S
C624 H620 0.929 . S
C624 C626 1.378 . S
C624 C628 1.350 . S
C625 C628 1.463 . S
C625 C630 1.350 . S
C625 N633 1.427 . S
C626 H617 0.930 . S
C626 C624 1.378 . S
C626 C627 1.367 . S
C627 C626 1.367 . S
C627 C629 1.433 . S
C628 C624 1.350 . S
C628 C625 1.463 . S
C628 N632 1.427 . S
C629 H619 0.929 . S
C629 C627 1.433 . S
C629 N632 1.384 . S
C630 H621 0.929 . S
C630 C622 1.378 . S
C630 C625 1.350 . S
C631 H618 0.929 . S
C631 C623 1.433 . S
C631 N633 1.384 . S
N632 C628 1.427 . S
N632 C629 1.384 . S
N633 C625 1.427 . S
N633 C631 1.384 . S
H634 C640 0.930 . S
H635 C644 0.930 . S
H636 C649 0.929 . S
H637 C647 0.929 . S
H638 C642 0.929 . S
H639 C648 0.929 . S
C640 H634 0.930 . S
C640 C641 1.367 . S
C640 C648 1.378 . S
C641 C640 1.367 . S
C641 C649 1.433 . S
C642 H638 0.929 . S
C642 C644 1.378 . S
C642 C646 1.350 . S
C643 C646 1.463 . S
C643 C648 1.350 . S
C643 N651 1.427 . S
C644 H635 0.930 . S
C644 C642 1.378 . S
C644 C645 1.367 . S
C645 C644 1.367 . S
C645 C647 1.433 . S
C646 C642 1.350 . S
C646 C643 1.463 . S
C646 N650 1.427 . S
C647 H637 0.929 . S
C647 C645 1.433 . S
C647 N650 1.384 . S
C648 H639 0.929 . S
C648 C640 1.378 . S
C648 C643 1.350 . S
C649 H636 0.929 . S
C649 C641 1.433 . S
C649 N651 1.384 . S
N650 C646 1.427 . S
N650 C647 1.384 . S
N651 C643 1.427 . S
N651 C649 1.384 . S
H652 C658 0.930 . S
H653 C662 0.930 . S
H654 C667 0.929 . S
H655 C665 0.929 . S
H656 C660 0.929 . S
H657 C666 0.929 . S
C658 H652 0.930 . S
C658 C659 1.367 . S
C658 C666 1.378 . S
C659 C658 1.367 . S
C659 C667 1.433 . S
C660 H656 0.929 . S
C660 C662 1.378 1_556 S
C660 C664 1.350 . S
C661 C664 1.463 . S
C661 C666 1.350 . S
C661 N669 1.427 . S
C662 H653 0.930 . S
C662 C660 1.378 1_554 S
C662 C663 1.367 . S
C663 C662 1.367 . S
C663 C665 1.433 . S
C664 C660 1.350 . S
C664 C661 1.463 . S
C664 N668 1.427 . S
C665 H655 0.929 . S
C665 C663 1.433 . S
C665 N668 1.384 1_554 S
C666 H657 0.929 . S
C666 C658 1.378 . S
C666 C661 1.350 . S
C667 H654 0.929 . S
C667 C659 1.433 . S
C667 N669 1.384 . S
N668 C664 1.427 . S
N668 C665 1.384 1_556 S
N669 C661 1.427 . S
N669 C667 1.384 . S
H670 C676 0.930 . S
H671 C680 0.930 . S
H672 C685 0.929 . S
H673 C683 0.929 . S
H674 C678 0.929 . S
H675 C684 0.929 1_554 S
C676 H670 0.930 . S
C676 C677 1.367 . S
C676 C684 1.378 . S
C677 C676 1.367 . S
C677 C685 1.433 . S
C678 H674 0.929 . S
C678 C680 1.378 . S
C678 C682 1.350 . S
C679 C682 1.463 . S
C679 C684 1.350 1_554 S
C679 N687 1.427 1_554 S
C680 H671 0.930 . S
C680 C678 1.378 . S
C680 C681 1.367 . S
C681 C680 1.367 . S
C681 C683 1.433 . S
C682 C678 1.350 . S
C682 C679 1.463 . S
C682 N686 1.427 . S
C683 H673 0.929 . S
C683 C681 1.433 . S
C683 N686 1.384 . S
C684 H675 0.929 1_556 S
C684 C676 1.378 . S
C684 C679 1.350 1_556 S
C685 H672 0.929 . S
C685 C677 1.433 . S
C685 N687 1.384 . S
N686 C682 1.427 . S
N686 C683 1.384 . S
N687 C679 1.427 1_556 S
N687 C685 1.384 . S
H688 C694 0.930 . S
H689 C698 0.930 . S
H690 C703 0.929 . S
H691 C701 0.929 . S
H692 C696 0.929 . S
H693 C702 0.929 . S
C694 H688 0.930 . S
C694 C695 1.367 . S
C694 C702 1.378 . S
C695 C694 1.367 . S
C695 C703 1.433 . S
C696 H692 0.929 . S
C696 C698 1.378 . S
C696 C700 1.350 . S
C697 C700 1.463 . S
C697 C702 1.350 . S
C697 N705 1.427 . S
C698 H689 0.930 . S
C698 C696 1.378 . S
C698 C699 1.367 . S
C699 C698 1.367 . S
C699 C701 1.433 . S
C700 C696 1.350 . S
C700 C697 1.463 . S
C700 N704 1.427 . S
C701 H691 0.929 . S
C701 C699 1.433 . S
C701 N704 1.384 . S
C702 H693 0.929 . S
C702 C694 1.378 . S
C702 C697 1.350 . S
C703 H690 0.929 . S
C703 C695 1.433 . S
C703 N705 1.384 . S
N704 C700 1.427 . S
N704 C701 1.384 . S
N705 C697 1.427 . S
N705 C703 1.384 . S
H706 C712 0.930 . S
H707 C716 0.930 . S
H708 C721 0.929 . S
H709 C719 0.929 . S
H710 C714 0.929 1_554 S
H711 C720 0.929 . S
C712 H706 0.930 . S
C712 C713 1.367 . S
C712 C720 1.378 . S
C713 C712 1.367 . S
C713 C721 1.433 . S
C714 H710 0.929 1_556 S
C714 C716 1.378 . S
C714 C718 1.350 1_556 S
C715 C718 1.463 . S
C715 C720 1.350 . S
C715 N723 1.427 . S
C716 H707 0.930 . S
C716 C714 1.378 . S
C716 C717 1.367 . S
C717 C716 1.367 . S
C717 C719 1.433 . S
C718 C714 1.350 1_554 S
C718 C715 1.463 . S
C718 N722 1.427 1_554 S
C719 H709 0.929 . S
C719 C717 1.433 . S
C719 N722 1.384 . S
C720 H711 0.929 . S
C720 C712 1.378 . S
C720 C715 1.350 . S
C721 H708 0.929 . S
C721 C713 1.433 . S
C721 N723 1.384 . S
N722 C718 1.427 1_556 S
N722 C719 1.384 . S
N723 C715 1.427 . S
N723 C721 1.384 . S
H724 C730 0.930 . S
H725 C734 0.930 . S
H726 C739 0.929 . S
H727 C737 0.929 . S
H728 C732 0.929 . S
H729 C738 0.929 . S
C730 H724 0.930 . S
C730 C731 1.367 . S
C730 C738 1.378 1_554 S
C731 C730 1.367 . S
C731 C739 1.433 . S
C732 H728 0.929 . S
C732 C734 1.378 . S
C732 C736 1.350 . S
C733 C736 1.463 . S
C733 C738 1.350 . S
C733 N741 1.427 . S
C734 H725 0.930 . S
C734 C732 1.378 . S
C734 C735 1.367 . S
C735 C734 1.367 . S
C735 C737 1.433 . S
C736 C732 1.350 . S
C736 C733 1.463 . S
C736 N740 1.427 . S
C737 H727 0.929 . S
C737 C735 1.433 . S
C737 N740 1.384 . S
C738 H729 0.929 . S
C738 C730 1.378 1_556 S
C738 C733 1.350 . S
C739 H726 0.929 . S
C739 C731 1.433 . S
C739 N741 1.384 1_554 S
N740 C736 1.427 . S
N740 C737 1.384 . S
N741 C733 1.427 . S
N741 C739 1.384 1_556 S
H742 C748 0.930 . S
H743 C752 0.930 . S
H744 C757 0.929 . S
H745 C755 0.929 . S
H746 C750 0.929 . S
H747 C756 0.929 . S
C748 H742 0.930 . S
C748 C749 1.367 . S
C748 C756 1.378 . S
C749 C748 1.367 . S
C749 C757 1.433 . S
C750 H746 0.929 . S
C750 C752 1.378 . S
C750 C754 1.350 . S
C751 C754 1.463 . S
C751 C756 1.350 . S
C751 N759 1.427 . S
C752 H743 0.930 . S
C752 C750 1.378 . S
C752 C753 1.367 . S
C753 C752 1.367 . S
C753 C755 1.433 . S
C754 C750 1.350 . S
C754 C751 1.463 . S
C754 N758 1.427 . S
C755 H745 0.929 . S
C755 C753 1.433 . S
C755 N758 1.384 . S
C756 H747 0.929 . S
C756 C748 1.378 . S
C756 C751 1.350 . S
C757 H744 0.929 . S
C757 C749 1.433 . S
C757 N759 1.384 . S
N758 C754 1.427 . S
N758 C755 1.384 . S
N759 C751 1.427 . S
N759 C757 1.384 . S
H760 C766 0.930 . S
H761 C770 0.930 . S
H762 C775 0.929 . S
H763 C773 0.929 . S
H764 C768 0.929 . S
H765 C774 0.929 . S
C766 H760 0.930 . S
C766 C767 1.367 . S
C766 C774 1.378 . S
C767 C766 1.367 . S
C767 C775 1.433 . S
C768 H764 0.929 . S
C768 C770 1.378 . S
C768 C772 1.350 . S
C769 C772 1.463 . S
C769 C774 1.350 . S
C769 N777 1.427 . S
C770 H761 0.930 . S
C770 C768 1.378 . S
C770 C771 1.367 . S
C771 C770 1.367 . S
C771 C773 1.433 . S
C772 C768 1.350 . S
C772 C769 1.463 . S
C772 N776 1.427 . S
C773 H763 0.929 . S
C773 C771 1.433 . S
C773 N776 1.384 . S
C774 H765 0.929 . S
C774 C766 1.378 . S
C774 C769 1.350 . S
C775 H762 0.929 . S
C775 C767 1.433 . S
C775 N777 1.384 . S
N776 C772 1.427 . S
N776 C773 1.384 . S
N777 C769 1.427 . S
N777 C775 1.384 . S
H778 C784 0.930 . S
H779 C788 0.930 . S
H780 C793 0.929 . S
H781 C791 0.929 . S
H782 C786 0.929 . S
H783 C792 0.929 . S
C784 H778 0.930 . S
C784 C785 1.367 . S
C784 C792 1.378 . S
C785 C784 1.367 . S
C785 C793 1.433 . S
C786 H782 0.929 . S
C786 C788 1.378 . S
C786 C790 1.350 . S
C787 C790 1.463 . S
C787 C792 1.350 . S
C787 N795 1.427 . S
C788 H779 0.930 . S
C788 C786 1.378 . S
C788 C789 1.367 . S
C789 C788 1.367 . S
C789 C791 1.433 . S
C790 C786 1.350 . S
C790 C787 1.463 . S
C790 N794 1.427 . S
C791 H781 0.929 . S
C791 C789 1.433 . S
C791 N794 1.384 . S
C792 H783 0.929 . S
C792 C784 1.378 . S
C792 C787 1.350 . S
C793 H780 0.929 . S
C793 C785 1.433 . S
C793 N795 1.384 . S
N794 C790 1.427 . S
N794 C791 1.384 . S
N795 C787 1.427 . S
N795 C793 1.384 . S
H796 C802 0.930 . S
H797 C806 0.930 . S
H798 C811 0.929 . S
H799 C809 0.929 . S
H800 C804 0.929 . S
H801 C810 0.929 . S
C802 H796 0.930 . S
C802 C803 1.367 . S
C802 C810 1.378 . S
C803 C802 1.367 . S
C803 C811 1.433 . S
C804 H800 0.929 . S
C804 C806 1.378 1_554 S
C804 C808 1.350 . S
C805 C808 1.463 . S
C805 C810 1.350 . S
C805 N813 1.427 . S
C806 H797 0.930 . S
C806 C804 1.378 1_556 S
C806 C807 1.367 . S
C807 C806 1.367 . S
C807 C809 1.433 . S
C808 C804 1.350 . S
C808 C805 1.463 . S
C808 N812 1.427 . S
C809 H799 0.929 . S
C809 C807 1.433 . S
C809 N812 1.384 1_556 S
C810 H801 0.929 . S
C810 C802 1.378 . S
C810 C805 1.350 . S
C811 H798 0.929 . S
C811 C803 1.433 . S
C811 N813 1.384 . S
N812 C808 1.427 . S
N812 C809 1.384 1_554 S
N813 C805 1.427 . S
N813 C811 1.384 . S
H814 C820 0.930 . S
H815 C824 0.930 . S
H816 C829 0.929 . S
H817 C827 0.929 . S
H818 C822 0.929 . S
H819 C828 0.929 . S
C820 H814 0.930 . S
C820 C821 1.367 . S
C820 C828 1.378 1_554 S
C821 C820 1.367 . S
C821 C829 1.433 . S
C822 H818 0.929 . S
C822 C824 1.378 . S
C822 C826 1.350 . S
C823 C826 1.463 . S
C823 C828 1.350 . S
C823 N831 1.427 . S
C824 H815 0.930 . S
C824 C822 1.378 . S
C824 C825 1.367 . S
C825 C824 1.367 . S
C825 C827 1.433 . S
C826 C822 1.350 . S
C826 C823 1.463 . S
C826 N830 1.427 . S
C827 H817 0.929 . S
C827 C825 1.433 . S
C827 N830 1.384 . S
C828 H819 0.929 . S
C828 C820 1.378 1_556 S
C828 C823 1.350 . S
C829 H816 0.929 . S
C829 C821 1.433 . S
C829 N831 1.384 1_554 S
N830 C826 1.427 . S
N830 C827 1.384 . S
N831 C823 1.427 . S
N831 C829 1.384 1_556 S
H832 C838 0.930 . S
H833 C842 0.930 . S
H834 C847 0.929 . S
H835 C845 0.929 . S
H836 C840 0.929 . S
H837 C846 0.929 . S
C838 H832 0.930 . S
C838 C839 1.367 . S
C838 C846 1.378 . S
C839 C838 1.367 . S
C839 C847 1.433 . S
C840 H836 0.929 . S
C840 C842 1.378 . S
C840 C844 1.350 . S
C841 C844 1.463 . S
C841 C846 1.350 . S
C841 N849 1.427 . S
C842 H833 0.930 . S
C842 C840 1.378 . S
C842 C843 1.367 . S
C843 C842 1.367 . S
C843 C845 1.433 . S
C844 C840 1.350 . S
C844 C841 1.463 . S
C844 N848 1.427 . S
C845 H835 0.929 . S
C845 C843 1.433 . S
C845 N848 1.384 . S
C846 H837 0.929 . S
C846 C838 1.378 . S
C846 C841 1.350 . S
C847 H834 0.929 . S
C847 C839 1.433 . S
C847 N849 1.384 . S
N848 C844 1.427 . S
N848 C845 1.384 . S
N849 C841 1.427 . S
N849 C847 1.384 . S
H850 C856 0.930 . S
H851 C860 0.930 . S
H852 C865 0.929 . S
H853 C863 0.929 . S
H854 C858 0.929 . S
H855 C864 0.929 . S
C856 H850 0.930 . S
C856 C857 1.367 . S
C856 C864 1.378 . S
C857 C856 1.367 . S
C857 C865 1.433 . S
C858 H854 0.929 . S
C858 C860 1.378 . S
C858 C862 1.350 . S
C859 C862 1.463 . S
C859 C864 1.350 . S
C859 N867 1.427 . S
C860 H851 0.930 . S
C860 C858 1.378 . S
C860 C861 1.367 . S
C861 C860 1.367 . S
C861 C863 1.433 . S
C862 C858 1.350 . S
C862 C859 1.463 . S
C862 N866 1.427 . S
C863 H853 0.929 . S
C863 C861 1.433 . S
C863 N866 1.384 . S
C864 H855 0.929 . S
C864 C856 1.378 . S
C864 C859 1.350 . S
C865 H852 0.929 . S
C865 C857 1.433 . S
C865 N867 1.384 . S
N866 C862 1.427 . S
N866 C863 1.384 . S
N867 C859 1.427 . S
N867 C865 1.384 . S
H868 C874 0.930 . S
H869 C878 0.930 . S
H870 C883 0.929 . S
H871 C881 0.929 . S
H872 C876 0.929 . S
H873 C882 0.929 . S
C874 H868 0.930 . S
C874 C875 1.367 . S
C874 C882 1.378 . S
C875 C874 1.367 . S
C875 C883 1.433 . S
C876 H872 0.929 . S
C876 C878 1.378 . S
C876 C880 1.350 . S
C877 C880 1.463 . S
C877 C882 1.350 . S
C877 N885 1.427 . S
C878 H869 0.930 . S
C878 C876 1.378 . S
C878 C879 1.367 . S
C879 C878 1.367 . S
C879 C881 1.433 . S
C880 C876 1.350 . S
C880 C877 1.463 . S
C880 N884 1.427 . S
C881 H871 0.929 . S
C881 C879 1.433 . S
C881 N884 1.384 . S
C882 H873 0.929 . S
C882 C874 1.378 . S
C882 C877 1.350 . S
C883 H870 0.929 . S
C883 C875 1.433 . S
C883 N885 1.384 . S
N884 C880 1.427 . S
N884 C881 1.384 . S
N885 C877 1.427 . S
N885 C883 1.384 . S
H886 C892 0.930 1_554 S
H887 C896 0.930 1_455 S
H888 C901 0.929 . S
H889 C899 0.929 1_454 S
H890 C894 0.929 . S
H891 C900 0.929 1_554 S
C892 H886 0.930 1_556 S
C892 C893 1.367 . S
C892 C900 1.378 . S
C893 C892 1.367 . S
C893 C901 1.433 . S
C894 H890 0.929 . S
C894 C896 1.378 . S
C894 C898 1.350 . S
C895 C898 1.463 . S
C895 C900 1.350 . S
C895 N903 1.427 . S
C896 H887 0.930 1_655 S
C896 C894 1.378 . S
C896 C897 1.367 1_655 S
C897 C896 1.367 1_455 S
C897 C899 1.433 1_455 S
C898 C894 1.350 . S
C898 C895 1.463 . S
C898 N902 1.427 . S
C899 H889 0.929 1_656 S
C899 C897 1.433 1_655 S
C899 N902 1.384 . S
C900 H891 0.929 1_556 S
C900 C892 1.378 . S
C900 C895 1.350 . S
C901 H888 0.929 . S
C901 C893 1.433 . S
C901 N903 1.384 . S
N902 C898 1.427 . S
N902 C899 1.384 . S
N903 C895 1.427 . S
N903 C901 1.384 . S
H904 C910 0.930 1_554 S
H905 C914 0.930 . S
H906 C919 0.929 . S
H907 C917 0.929 1_554 S
H908 C912 0.929 . S
H909 C918 0.929 1_554 S
C910 H904 0.930 1_556 S
C910 C911 1.367 . S
C910 C918 1.378 . S
C911 C910 1.367 . S
C911 C919 1.433 . S
C912 H908 0.929 . S
C912 C914 1.378 . S
C912 C916 1.350 . S
C913 C916 1.463 . S
C913 C918 1.350 . S
C913 N921 1.427 . S
C914 H905 0.930 . S
C914 C912 1.378 . S
C914 C915 1.367 . S
C915 C914 1.367 . S
C915 C917 1.433 . S
C916 C912 1.350 . S
C916 C913 1.463 . S
C916 N920 1.427 . S
C917 H907 0.929 1_556 S
C917 C915 1.433 . S
C917 N920 1.384 . S
C918 H909 0.929 1_556 S
C918 C910 1.378 . S
C918 C913 1.350 . S
C919 H906 0.929 . S
C919 C911 1.433 . S
C919 N921 1.384 . S
N920 C916 1.427 . S
N920 C917 1.384 . S
N921 C913 1.427 . S
N921 C919 1.384 . S
H922 C928 0.930 . S
H923 C932 0.930 . S
H924 C937 0.929 . S
H925 C935 0.929 . S
H926 C930 0.929 . S
H927 C936 0.929 . S
C928 H922 0.930 . S
C928 C929 1.367 . S
C928 C936 1.378 . S
C929 C928 1.367 . S
C929 C937 1.433 . S
C930 H926 0.929 . S
C930 C932 1.378 . S
C930 C934 1.350 . S
C931 C934 1.463 1_455 S
C931 C936 1.350 . S
C931 N939 1.427 . S
C932 H923 0.930 . S
C932 C930 1.378 . S
C932 C933 1.367 . S
C933 C932 1.367 . S
C933 C935 1.433 . S
C934 C930 1.350 . S
C934 C931 1.463 1_655 S
C934 N938 1.427 . S
C935 H925 0.929 . S
C935 C933 1.433 . S
C935 N938 1.384 . S
C936 H927 0.929 . S
C936 C928 1.378 . S
C936 C931 1.350 . S
C937 H924 0.929 . S
C937 C929 1.433 . S
C937 N939 1.384 . S
N938 C934 1.427 . S
N938 C935 1.384 . S
N939 C931 1.427 . S
N939 C937 1.384 . S
H940 C946 0.930 . S
H941 C950 0.930 . S
H942 C955 0.929 . S
H943 C953 0.929 . S
H944 C948 0.929 . S
H945 C954 0.929 . S
C946 H940 0.930 . S
C946 C947 1.367 . S
C946 C954 1.378 . S
C947 C946 1.367 . S
C947 C955 1.433 . S
C948 H944 0.929 . S
C948 C950 1.378 . S
C948 C952 1.350 . S
C949 C952 1.463 . S
C949 C954 1.350 . S
C949 N957 1.427 . S
C950 H941 0.930 . S
C950 C948 1.378 . S
C950 C951 1.367 . S
C951 C950 1.367 . S
C951 C953 1.433 . S
C952 C948 1.350 . S
C952 C949 1.463 . S
C952 N956 1.427 . S
C953 H943 0.929 . S
C953 C951 1.433 . S
C953 N956 1.384 . S
C954 H945 0.929 . S
C954 C946 1.378 . S
C954 C949 1.350 . S
C955 H942 0.929 . S
C955 C947 1.433 . S
C955 N957 1.384 . S
N956 C952 1.427 . S
N956 C953 1.384 . S
N957 C949 1.427 . S
N957 C955 1.384 . S
H958 C964 0.930 . S
H959 C968 0.930 . S
H960 C973 0.929 . S
H961 C971 0.929 . S
H962 C966 0.929 . S
H963 C972 0.929 . S
C964 H958 0.930 . S
C964 C965 1.367 . S
C964 C972 1.378 . S
C965 C964 1.367 . S
C965 C973 1.433 . S
C966 H962 0.929 . S
C966 C968 1.378 . S
C966 C970 1.350 . S
C967 C970 1.463 . S
C967 C972 1.350 . S
C967 N975 1.427 . S
C968 H959 0.930 . S
C968 C966 1.378 . S
C968 C969 1.367 . S
C969 C968 1.367 . S
C969 C971 1.433 . S
C970 C966 1.350 . S
C970 C967 1.463 . S
C970 N974 1.427 . S
C971 H961 0.929 . S
C971 C969 1.433 . S
C971 N974 1.384 . S
C972 H963 0.929 . S
C972 C964 1.378 . S
C972 C967 1.350 . S
C973 H960 0.929 . S
C973 C965 1.433 . S
C973 N975 1.384 . S
N974 C970 1.427 . S
N974 C971 1.384 . S
N975 C967 1.427 . S
N975 C973 1.384 . S
H976 C982 0.930 . S
H977 C986 0.930 . S
H978 C991 0.929 . S
H979 C989 0.929 . S
H980 C984 0.929 . S
H981 C990 0.929 . S
C982 H976 0.930 . S
C982 C983 1.367 . S
C982 C990 1.378 . S
C983 C982 1.367 . S
C983 C991 1.433 . S
C984 H980 0.929 . S
C984 C986 1.378 . S
C984 C988 1.350 . S
C985 C988 1.463 . S
C985 C990 1.350 . S
C985 N993 1.427 . S
C986 H977 0.930 . S
C986 C984 1.378 . S
C986 C987 1.367 . S
C987 C986 1.367 . S
C987 C989 1.433 . S
C988 C984 1.350 . S
C988 C985 1.463 . S
C988 N992 1.427 . S
C989 H979 0.929 . S
C989 C987 1.433 . S
C989 N992 1.384 . S
C990 H981 0.929 . S
C990 C982 1.378 . S
C990 C985 1.350 . S
C991 H978 0.929 . S
C991 C983 1.433 . S
C991 N993 1.384 . S
N992 C988 1.427 . S
N992 C989 1.384 . S
N993 C985 1.427 . S
N993 C991 1.384 . S
H994 C1000 0.930 . S
H995 C1004 0.930 . S
H996 C1009 0.929 . S
H997 C1007 0.929 . S
H998 C1002 0.929 . S
H999 C1008 0.929 . S
C1000 H994 0.930 . S
C1000 C1001 1.367 . S
C1000 C1008 1.378 . S
C1001 C1000 1.367 . S
C1001 C1009 1.433 . S
C1002 H998 0.929 . S
C1002 C1004 1.378 . S
C1002 C1006 1.350 . S
C1003 C1006 1.463 . S
C1003 C1008 1.350 . S
C1003 N1011 1.427 . S
C1004 H995 0.930 . S
C1004 C1002 1.378 . S
C1004 C1005 1.367 . S
C1005 C1004 1.367 . S
C1005 C1007 1.433 . S
C1006 C1002 1.350 . S
C1006 C1003 1.463 . S
C1006 N1010 1.427 . S
C1007 H997 0.929 . S
C1007 C1005 1.433 . S
C1007 N1010 1.384 . S
C1008 H999 0.929 . S
C1008 C1000 1.378 . S
C1008 C1003 1.350 . S
C1009 H996 0.929 . S
C1009 C1001 1.433 . S
C1009 N1011 1.384 . S
N1010 C1006 1.427 . S
N1010 C1007 1.384 . S
N1011 C1003 1.427 . S
N1011 C1009 1.384 . S
H1012 C1018 0.930 . S
H1013 C1022 0.930 . S
H1014 C1027 0.929 . S
H1015 C1025 0.929 . S
H1016 C1020 0.929 . S
H1017 C1026 0.929 . S
C1018 H1012 0.930 . S
C1018 C1019 1.367 . S
C1018 C1026 1.378 . S
C1019 C1018 1.367 . S
C1019 C1027 1.433 . S
C1020 H1016 0.929 . S
C1020 C1022 1.378 . S
C1020 C1024 1.350 . S
C1021 C1024 1.463 . S
C1021 C1026 1.350 . S
C1021 N1029 1.427 . S
C1022 H1013 0.930 . S
C1022 C1020 1.378 . S
C1022 C1023 1.367 . S
C1023 C1022 1.367 . S
C1023 C1025 1.433 . S
C1024 C1020 1.350 . S
C1024 C1021 1.463 . S
C1024 N1028 1.427 . S
C1025 H1015 0.929 . S
C1025 C1023 1.433 . S
C1025 N1028 1.384 . S
C1026 H1017 0.929 . S
C1026 C1018 1.378 . S
C1026 C1021 1.350 . S
C1027 H1014 0.929 . S
C1027 C1019 1.433 . S
C1027 N1029 1.384 . S
N1028 C1024 1.427 . S
N1028 C1025 1.384 . S
N1029 C1021 1.427 . S
N1029 C1027 1.384 . S
H1030 C1036 0.930 . S
H1031 C1040 0.930 . S
H1032 C1045 0.929 . S
H1033 C1043 0.929 . S
H1034 C1038 0.929 . S
H1035 C1044 0.929 . S
C1036 H1030 0.930 . S
C1036 C1037 1.367 . S
C1036 C1044 1.378 . S
C1037 C1036 1.367 . S
C1037 C1045 1.433 . S
C1038 H1034 0.929 . S
C1038 C1040 1.378 . S
C1038 C1042 1.350 . S
C1039 C1042 1.463 . S
C1039 C1044 1.350 . S
C1039 N1047 1.427 . S
C1040 H1031 0.930 . S
C1040 C1038 1.378 . S
C1040 C1041 1.367 . S
C1041 C1040 1.367 . S
C1041 C1043 1.433 . S
C1042 C1038 1.350 . S
C1042 C1039 1.463 . S
C1042 N1046 1.427 . S
C1043 H1033 0.929 . S
C1043 C1041 1.433 . S
C1043 N1046 1.384 . S
C1044 H1035 0.929 . S
C1044 C1036 1.378 . S
C1044 C1039 1.350 . S
C1045 H1032 0.929 . S
C1045 C1037 1.433 . S
C1045 N1047 1.384 . S
N1046 C1042 1.427 . S
N1046 C1043 1.384 . S
N1047 C1039 1.427 . S
N1047 C1045 1.384 . S
H1048 C1054 0.930 . S
H1049 C1058 0.930 . S
H1050 C1063 0.929 . S
H1051 C1061 0.929 . S
H1052 C1056 0.929 . S
H1053 C1062 0.929 . S
C1054 H1048 0.930 . S
C1054 C1055 1.367 . S
C1054 C1062 1.378 . S
C1055 C1054 1.367 . S
C1055 C1063 1.433 1_556 S
C1056 H1052 0.929 . S
C1056 C1058 1.378 1_655 S
C1056 C1060 1.350 1_554 S
C1057 C1060 1.463 . S
C1057 C1062 1.350 . S
C1057 N1065 1.427 1_556 S
C1058 H1049 0.930 . S
C1058 C1056 1.378 1_455 S
C1058 C1059 1.367 1_554 S
C1059 C1058 1.367 1_556 S
C1059 C1061 1.433 . S
C1060 C1056 1.350 1_556 S
C1060 C1057 1.463 . S
C1060 N1064 1.427 1_655 S
C1061 H1051 0.929 . S
C1061 C1059 1.433 . S
C1061 N1064 1.384 . S
C1062 H1053 0.929 . S
C1062 C1054 1.378 . S
C1062 C1057 1.350 . S
C1063 H1050 0.929 . S
C1063 C1055 1.433 1_554 S
C1063 N1065 1.384 . S
N1064 C1060 1.427 1_455 S
N1064 C1061 1.384 . S
N1065 C1057 1.427 1_554 S
N1065 C1063 1.384 . S
H1066 C1072 0.930 . S
H1067 C1076 0.930 . S
H1068 C1081 0.929 . S
H1069 C1079 0.929 . S
H1070 C1074 0.929 . S
H1071 C1080 0.929 . S
C1072 H1066 0.930 . S
C1072 C1073 1.367 . S
C1072 C1080 1.378 . S
C1073 C1072 1.367 . S
C1073 C1081 1.433 . S
C1074 H1070 0.929 . S
C1074 C1076 1.378 . S
C1074 C1078 1.350 . S
C1075 C1078 1.463 . S
C1075 C1080 1.350 . S
C1075 N1083 1.427 . S
C1076 H1067 0.930 . S
C1076 C1074 1.378 . S
C1076 C1077 1.367 . S
C1077 C1076 1.367 . S
C1077 C1079 1.433 . S
C1078 C1074 1.350 . S
C1078 C1075 1.463 . S
C1078 N1082 1.427 . S
C1079 H1069 0.929 . S
C1079 C1077 1.433 . S
C1079 N1082 1.384 . S
C1080 H1071 0.929 . S
C1080 C1072 1.378 . S
C1080 C1075 1.350 . S
C1081 H1068 0.929 . S
C1081 C1073 1.433 . S
C1081 N1083 1.384 . S
N1082 C1078 1.427 . S
N1082 C1079 1.384 . S
N1083 C1075 1.427 . S
N1083 C1081 1.384 . S
H1084 C1090 0.930 . S
H1085 C1094 0.930 . S
H1086 C1099 0.929 . S
H1087 C1097 0.929 . S
H1088 C1092 0.929 . S
H1089 C1098 0.929 . S
C1090 H1084 0.930 . S
C1090 C1091 1.367 . S
C1090 C1098 1.378 . S
C1091 C1090 1.367 . S
C1091 C1099 1.433 . S
C1092 H1088 0.929 . S
C1092 C1094 1.378 . S
C1092 C1096 1.350 . S
C1093 C1096 1.463 . S
C1093 C1098 1.350 . S
C1093 N1101 1.427 . S
C1094 H1085 0.930 . S
C1094 C1092 1.378 . S
C1094 C1095 1.367 . S
C1095 C1094 1.367 . S
C1095 C1097 1.433 . S
C1096 C1092 1.350 . S
C1096 C1093 1.463 . S
C1096 N1100 1.427 . S
C1097 H1087 0.929 . S
C1097 C1095 1.433 . S
C1097 N1100 1.384 . S
C1098 H1089 0.929 . S
C1098 C1090 1.378 . S
C1098 C1093 1.350 . S
C1099 H1086 0.929 . S
C1099 C1091 1.433 . S
C1099 N1101 1.384 . S
N1100 C1096 1.427 . S
N1100 C1097 1.384 . S
N1101 C1093 1.427 . S
N1101 C1099 1.384 . S
H1102 C1108 0.930 . S
H1103 C1112 0.930 . S
H1104 C1117 0.929 . S
H1105 C1115 0.929 . S
H1106 C1110 0.929 . S
H1107 C1116 0.929 . S
C1108 H1102 0.930 . S
C1108 C1109 1.367 . S
C1108 C1116 1.378 . S
C1109 C1108 1.367 . S
C1109 C1117 1.433 . S
C1110 H1106 0.929 . S
C1110 C1112 1.378 1_455 S
C1110 C1114 1.350 . S
C1111 C1114 1.463 . S
C1111 C1116 1.350 . S
C1111 N1119 1.427 . S
C1112 H1103 0.930 . S
C1112 C1110 1.378 1_655 S
C1112 C1113 1.367 . S
C1113 C1112 1.367 . S
C1113 C1115 1.433 . S
C1114 C1110 1.350 . S
C1114 C1111 1.463 . S
C1114 N1118 1.427 . S
C1115 H1105 0.929 . S
C1115 C1113 1.433 . S
C1115 N1118 1.384 1_655 S
C1116 H1107 0.929 . S
C1116 C1108 1.378 . S
C1116 C1111 1.350 . S
C1117 H1104 0.929 . S
C1117 C1109 1.433 . S
C1117 N1119 1.384 . S
N1118 C1114 1.427 . S
N1118 C1115 1.384 1_455 S
N1119 C1111 1.427 . S
N1119 C1117 1.384 . S
H1120 C1126 0.930 . S
H1121 C1130 0.930 1_554 S
H1122 C1135 0.929 . S
H1123 C1133 0.929 . S
H1124 C1128 0.929 . S
H1125 C1134 0.929 1_556 S
C1126 H1120 0.930 . S
C1126 C1127 1.367 . S
C1126 C1134 1.378 . S
C1127 C1126 1.367 . S
C1127 C1135 1.433 . S
C1128 H1124 0.929 . S
C1128 C1130 1.378 1_554 S
C1128 C1132 1.350 . S
C1129 C1132 1.463 . S
C1129 C1134 1.350 . S
C1129 N1137 1.427 . S
C1130 H1121 0.930 1_556 S
C1130 C1128 1.378 1_556 S
C1130 C1131 1.367 . S
C1131 C1130 1.367 . S
C1131 C1133 1.433 . S
C1132 C1128 1.350 . S
C1132 C1129 1.463 . S
C1132 N1136 1.427 1_554 S
C1133 H1123 0.929 . S
C1133 C1131 1.433 . S
C1133 N1136 1.384 . S
C1134 H1125 0.929 1_554 S
C1134 C1126 1.378 . S
C1134 C1129 1.350 . S
C1135 H1122 0.929 . S
C1135 C1127 1.433 . S
C1135 N1137 1.384 . S
N1136 C1132 1.427 1_556 S
N1136 C1133 1.384 . S
N1137 C1129 1.427 . S
N1137 C1135 1.384 . S
H1138 C1144 0.930 . S
H1139 C1148 0.930 . S
H1140 C1153 0.929 . S
H1141 C1151 0.929 . S
H1142 C1146 0.929 . S
H1143 C1152 0.929 . S
C1144 H1138 0.930 . S
C1144 C1145 1.367 . S
C1144 C1152 1.378 . S
C1145 C1144 1.367 . S
C1145 C1153 1.433 . S
C1146 H1142 0.929 . S
C1146 C1148 1.378 . S
C1146 C1150 1.350 . S
C1147 C1150 1.463 . S
C1147 C1152 1.350 . S
C1147 N1155 1.427 . S
C1148 H1139 0.930 . S
C1148 C1146 1.378 . S
C1148 C1149 1.367 . S
C1149 C1148 1.367 . S
C1149 C1151 1.433 . S
C1150 C1146 1.350 . S
C1150 C1147 1.463 . S
C1150 N1154 1.427 . S
C1151 H1141 0.929 . S
C1151 C1149 1.433 . S
C1151 N1154 1.384 . S
C1152 H1143 0.929 . S
C1152 C1144 1.378 . S
C1152 C1147 1.350 . S
C1153 H1140 0.929 . S
C1153 C1145 1.433 . S
C1153 N1155 1.384 . S
N1154 C1150 1.427 . S
N1154 C1151 1.384 . S
N1155 C1147 1.427 . S
N1155 C1153 1.384 . S
H1156 C1162 0.930 . S
H1157 C1166 0.930 . S
H1158 C1171 0.929 . S
H1159 C1169 0.929 . S
H1160 C1164 0.929 . S
H1161 C1170 0.929 . S
C1162 H1156 0.930 . S
C1162 C1163 1.367 . S
C1162 C1170 1.378 . S
C1163 C1162 1.367 . S
C1163 C1171 1.433 . S
C1164 H1160 0.929 . S
C1164 C1166 1.378 . S
C1164 C1168 1.350 . S
C1165 C1168 1.463 . S
C1165 C1170 1.350 . S
C1165 N1173 1.427 . S
C1166 H1157 0.930 . S
C1166 C1164 1.378 . S
C1166 C1167 1.367 . S
C1167 C1166 1.367 . S
C1167 C1169 1.433 . S
C1168 C1164 1.350 . S
C1168 C1165 1.463 . S
C1168 N1172 1.427 . S
C1169 H1159 0.929 . S
C1169 C1167 1.433 . S
C1169 N1172 1.384 . S
C1170 H1161 0.929 . S
C1170 C1162 1.378 . S
C1170 C1165 1.350 . S
C1171 H1158 0.929 . S
C1171 C1163 1.433 . S
C1171 N1173 1.384 . S
N1172 C1168 1.427 . S
N1172 C1169 1.384 . S
N1173 C1165 1.427 . S
N1173 C1171 1.384 . S
H1174 C1180 0.930 . S
H1175 C1184 0.930 . S
H1176 C1189 0.929 . S
H1177 C1187 0.929 . S
H1178 C1182 0.929 . S
H1179 C1188 0.929 . S
C1180 H1174 0.930 . S
C1180 C1181 1.367 . S
C1180 C1188 1.378 . S
C1181 C1180 1.367 . S
C1181 C1189 1.433 . S
C1182 H1178 0.929 . S
C1182 C1184 1.378 . S
C1182 C1186 1.350 . S
C1183 C1186 1.463 . S
C1183 C1188 1.350 . S
C1183 N1191 1.427 . S
C1184 H1175 0.930 . S
C1184 C1182 1.378 . S
C1184 C1185 1.367 . S
C1185 C1184 1.367 . S
C1185 C1187 1.433 . S
C1186 C1182 1.350 . S
C1186 C1183 1.463 . S
C1186 N1190 1.427 . S
C1187 H1177 0.929 . S
C1187 C1185 1.433 . S
C1187 N1190 1.384 . S
C1188 H1179 0.929 . S
C1188 C1180 1.378 . S
C1188 C1183 1.350 . S
C1189 H1176 0.929 . S
C1189 C1181 1.433 . S
C1189 N1191 1.384 . S
N1190 C1186 1.427 . S
N1190 C1187 1.384 . S
N1191 C1183 1.427 . S
N1191 C1189 1.384 . S
H1192 C1198 0.930 1_556 S
H1193 C1202 0.930 . S
H1194 C1207 0.929 . S
H1195 C1205 0.929 . S
H1196 C1200 0.929 . S
H1197 C1206 0.929 . S
C1198 H1192 0.930 1_554 S
C1198 C1199 1.367 . S
C1198 C1206 1.378 1_554 S
C1199 C1198 1.367 . S
C1199 C1207 1.433 . S
C1200 H1196 0.929 . S
C1200 C1202 1.378 . S
C1200 C1204 1.350 . S
C1201 C1204 1.463 . S
C1201 C1206 1.350 1_554 S
C1201 N1209 1.427 . S
C1202 H1193 0.930 . S
C1202 C1200 1.378 . S
C1202 C1203 1.367 1_554 S
C1203 C1202 1.367 1_556 S
C1203 C1205 1.433 . S
C1204 C1200 1.350 . S
C1204 C1201 1.463 . S
C1204 N1208 1.427 1_554 S
C1205 H1195 0.929 . S
C1205 C1203 1.433 . S
C1205 N1208 1.384 . S
C1206 H1197 0.929 . S
C1206 C1198 1.378 1_556 S
C1206 C1201 1.350 1_556 S
C1207 H1194 0.929 . S
C1207 C1199 1.433 . S
C1207 N1209 1.384 . S
N1208 C1204 1.427 1_556 S
N1208 C1205 1.384 . S
N1209 C1201 1.427 . S
N1209 C1207 1.384 . S
H1210 C1216 0.930 . S
H1211 C1220 0.930 . S
H1212 C1225 0.929 . S
H1213 C1223 0.929 . S
H1214 C1218 0.929 . S
H1215 C1224 0.929 . S
C1216 H1210 0.930 . S
C1216 C1217 1.367 . S
C1216 C1224 1.378 . S
C1217 C1216 1.367 . S
C1217 C1225 1.433 . S
C1218 H1214 0.929 . S
C1218 C1220 1.378 . S
C1218 C1222 1.350 . S
C1219 C1222 1.463 . S
C1219 C1224 1.350 . S
C1219 N1227 1.427 . S
C1220 H1211 0.930 . S
C1220 C1218 1.378 . S
C1220 C1221 1.367 . S
C1221 C1220 1.367 . S
C1221 C1223 1.433 . S
C1222 C1218 1.350 . S
C1222 C1219 1.463 . S
C1222 N1226 1.427 . S
C1223 H1213 0.929 . S
C1223 C1221 1.433 . S
C1223 N1226 1.384 . S
C1224 H1215 0.929 . S
C1224 C1216 1.378 . S
C1224 C1219 1.350 . S
C1225 H1212 0.929 . S
C1225 C1217 1.433 . S
C1225 N1227 1.384 . S
N1226 C1222 1.427 . S
N1226 C1223 1.384 . S
N1227 C1219 1.427 . S
N1227 C1225 1.384 . S
H1228 C1234 0.930 . S
H1229 C1238 0.930 . S
H1230 C1243 0.929 . S
H1231 C1241 0.929 . S
H1232 C1236 0.929 . S
H1233 C1242 0.929 . S
C1234 H1228 0.930 . S
C1234 C1235 1.367 . S
C1234 C1242 1.378 . S
C1235 C1234 1.367 . S
C1235 C1243 1.433 . S
C1236 H1232 0.929 . S
C1236 C1238 1.378 . S
C1236 C1240 1.350 . S
C1237 C1240 1.463 . S
C1237 C1242 1.350 . S
C1237 N1245 1.427 . S
C1238 H1229 0.930 . S
C1238 C1236 1.378 . S
C1238 C1239 1.367 . S
C1239 C1238 1.367 . S
C1239 C1241 1.433 . S
C1240 C1236 1.350 . S
C1240 C1237 1.463 . S
C1240 N1244 1.427 . S
C1241 H1231 0.929 . S
C1241 C1239 1.433 . S
C1241 N1244 1.384 . S
C1242 H1233 0.929 . S
C1242 C1234 1.378 . S
C1242 C1237 1.350 . S
C1243 H1230 0.929 . S
C1243 C1235 1.433 . S
C1243 N1245 1.384 . S
N1244 C1240 1.427 . S
N1244 C1241 1.384 . S
N1245 C1237 1.427 . S
N1245 C1243 1.384 . S
H1246 C1252 0.930 . S
H1247 C1256 0.930 . S
H1248 C1261 0.929 . S
H1249 C1259 0.929 . S
H1250 C1254 0.929 . S
H1251 C1260 0.929 . S
C1252 H1246 0.930 . S
C1252 C1253 1.367 . S
C1252 C1260 1.378 . S
C1253 C1252 1.367 . S
C1253 C1261 1.433 . S
C1254 H1250 0.929 . S
C1254 C1256 1.378 . S
C1254 C1258 1.350 . S
C1255 C1258 1.463 . S
C1255 C1260 1.350 . S
C1255 N1263 1.427 . S
C1256 H1247 0.930 . S
C1256 C1254 1.378 . S
C1256 C1257 1.367 . S
C1257 C1256 1.367 . S
C1257 C1259 1.433 . S
C1258 C1254 1.350 . S
C1258 C1255 1.463 . S
C1258 N1262 1.427 . S
C1259 H1249 0.929 . S
C1259 C1257 1.433 . S
C1259 N1262 1.384 . S
C1260 H1251 0.929 . S
C1260 C1252 1.378 . S
C1260 C1255 1.350 . S
C1261 H1248 0.929 . S
C1261 C1253 1.433 . S
C1261 N1263 1.384 . S
N1262 C1258 1.427 . S
N1262 C1259 1.384 . S
N1263 C1255 1.427 . S
N1263 C1261 1.384 . S
H1264 C1270 0.930 . S
H1265 C1274 0.930 . S
H1266 C1279 0.929 . S
H1267 C1277 0.929 . S
H1268 C1272 0.929 . S
H1269 C1278 0.929 . S
C1270 H1264 0.930 . S
C1270 C1271 1.367 . S
C1270 C1278 1.378 1_565 S
C1271 C1270 1.367 . S
C1271 C1279 1.433 . S
C1272 H1268 0.929 . S
C1272 C1274 1.378 . S
C1272 C1276 1.350 . S
C1273 C1276 1.463 . S
C1273 C1278 1.350 . S
C1273 N1281 1.427 1_545 S
C1274 H1265 0.930 . S
C1274 C1272 1.378 . S
C1274 C1275 1.367 . S
C1275 C1274 1.367 . S
C1275 C1277 1.433 . S
C1276 C1272 1.350 . S
C1276 C1273 1.463 . S
C1276 N1280 1.427 . S
C1277 H1267 0.929 . S
C1277 C1275 1.433 . S
C1277 N1280 1.384 . S
C1278 H1269 0.929 . S
C1278 C1270 1.378 1_545 S
C1278 C1273 1.350 . S
C1279 H1266 0.929 . S
C1279 C1271 1.433 . S
C1279 N1281 1.384 . S
N1280 C1276 1.427 . S
N1280 C1277 1.384 . S
N1281 C1273 1.427 1_565 S
N1281 C1279 1.384 . S
H1282 C1288 0.930 . S
H1283 C1292 0.930 . S
H1284 C1297 0.929 . S
H1285 C1295 0.929 . S
H1286 C1290 0.929 . S
H1287 C1296 0.929 . S
C1288 H1282 0.930 . S
C1288 C1289 1.367 . S
C1288 C1296 1.378 . S
C1289 C1288 1.367 . S
C1289 C1297 1.433 . S
C1290 H1286 0.929 . S
C1290 C1292 1.378 . S
C1290 C1294 1.350 . S
C1291 C1294 1.463 . S
C1291 C1296 1.350 . S
C1291 N1299 1.427 . S
C1292 H1283 0.930 . S
C1292 C1290 1.378 . S
C1292 C1293 1.367 . S
C1293 C1292 1.367 . S
C1293 C1295 1.433 . S
C1294 C1290 1.350 . S
C1294 C1291 1.463 . S
C1294 N1298 1.427 . S
C1295 H1285 0.929 . S
C1295 C1293 1.433 . S
C1295 N1298 1.384 . S
C1296 H1287 0.929 . S
C1296 C1288 1.378 . S
C1296 C1291 1.350 . S
C1297 H1284 0.929 . S
C1297 C1289 1.433 . S
C1297 N1299 1.384 . S
N1298 C1294 1.427 . S
N1298 C1295 1.384 . S
N1299 C1291 1.427 . S
N1299 C1297 1.384 . S
H1300 C1306 0.930 . S
H1301 C1310 0.930 . S
H1302 C1315 0.929 . S
H1303 C1313 0.929 . S
H1304 C1308 0.929 . S
H1305 C1314 0.929 . S
C1306 H1300 0.930 . S
C1306 C1307 1.367 . S
C1306 C1314 1.378 1_565 S
C1307 C1306 1.367 . S
C1307 C1315 1.433 . S
C1308 H1304 0.929 . S
C1308 C1310 1.378 . S
C1308 C1312 1.350 . S
C1309 C1312 1.463 1_554 S
C1309 C1314 1.350 . S
C1309 N1317 1.427 . S
C1310 H1301 0.930 . S
C1310 C1308 1.378 . S
C1310 C1311 1.367 . S
C1311 C1310 1.367 . S
C1311 C1313 1.433 . S
C1312 C1308 1.350 . S
C1312 C1309 1.463 1_556 S
C1312 N1316 1.427 . S
C1313 H1303 0.929 . S
C1313 C1311 1.433 . S
C1313 N1316 1.384 . S
C1314 H1305 0.929 . S
C1314 C1306 1.378 1_545 S
C1314 C1309 1.350 . S
C1315 H1302 0.929 . S
C1315 C1307 1.433 . S
C1315 N1317 1.384 1_565 S
N1316 C1312 1.427 . S
N1316 C1313 1.384 . S
N1317 C1309 1.427 . S
N1317 C1315 1.384 1_545 S
H1318 C1324 0.930 . S
H1319 C1328 0.930 . S
H1320 C1333 0.929 . S
H1321 C1331 0.929 . S
H1322 C1326 0.929 . S
H1323 C1332 0.929 . S
C1324 H1318 0.930 . S
C1324 C1325 1.367 . S
C1324 C1332 1.378 . S
C1325 C1324 1.367 . S
C1325 C1333 1.433 . S
C1326 H1322 0.929 . S
C1326 C1328 1.378 . S
C1326 C1330 1.350 . S
C1327 C1330 1.463 . S
C1327 C1332 1.350 . S
C1327 N1335 1.427 . S
C1328 H1319 0.930 . S
C1328 C1326 1.378 . S
C1328 C1329 1.367 . S
C1329 C1328 1.367 . S
C1329 C1331 1.433 . S
C1330 C1326 1.350 . S
C1330 C1327 1.463 . S
C1330 N1334 1.427 . S
C1331 H1321 0.929 . S
C1331 C1329 1.433 . S
C1331 N1334 1.384 . S
C1332 H1323 0.929 . S
C1332 C1324 1.378 . S
C1332 C1327 1.350 . S
C1333 H1320 0.929 . S
C1333 C1325 1.433 . S
C1333 N1335 1.384 . S
N1334 C1330 1.427 . S
N1334 C1331 1.384 . S
N1335 C1327 1.427 . S
N1335 C1333 1.384 . S
H1336 C1342 0.930 . S
H1337 C1346 0.930 . S
H1338 C1351 0.929 . S
H1339 C1349 0.929 . S
H1340 C1344 0.929 . S
H1341 C1350 0.929 . S
C1342 H1336 0.930 . S
C1342 C1343 1.367 . S
C1342 C1350 1.378 1_565 S
C1343 C1342 1.367 . S
C1343 C1351 1.433 . S
C1344 H1340 0.929 . S
C1344 C1346 1.378 . S
C1344 C1348 1.350 . S
C1345 C1348 1.463 . S
C1345 C1350 1.350 . S
C1345 N1353 1.427 . S
C1346 H1337 0.930 . S
C1346 C1344 1.378 . S
C1346 C1347 1.367 . S
C1347 C1346 1.367 . S
C1347 C1349 1.433 . S
C1348 C1344 1.350 . S
C1348 C1345 1.463 . S
C1348 N1352 1.427 . S
C1349 H1339 0.929 . S
C1349 C1347 1.433 . S
C1349 N1352 1.384 . S
C1350 H1341 0.929 . S
C1350 C1342 1.378 1_545 S
C1350 C1345 1.350 . S
C1351 H1338 0.929 . S
C1351 C1343 1.433 . S
C1351 N1353 1.384 1_565 S
N1352 C1348 1.427 . S
N1352 C1349 1.384 . S
N1353 C1345 1.427 . S
N1353 C1351 1.384 1_545 S
H1354 C1360 0.930 . S
H1355 C1364 0.930 . S
H1356 C1369 0.929 . S
H1357 C1367 0.929 . S
H1358 C1362 0.929 . S
H1359 C1368 0.929 . S
C1360 H1354 0.930 . S
C1360 C1361 1.367 . S
C1360 C1368 1.378 . S
C1361 C1360 1.367 . S
C1361 C1369 1.433 . S
C1362 H1358 0.929 . S
C1362 C1364 1.378 . S
C1362 C1366 1.350 . S
C1363 C1366 1.463 . S
C1363 C1368 1.350 . S
C1363 N1371 1.427 . S
C1364 H1355 0.930 . S
C1364 C1362 1.378 . S
C1364 C1365 1.367 . S
C1365 C1364 1.367 . S
C1365 C1367 1.433 . S
C1366 C1362 1.350 . S
C1366 C1363 1.463 . S
C1366 N1370 1.427 . S
C1367 H1357 0.929 . S
C1367 C1365 1.433 . S
C1367 N1370 1.384 . S
C1368 H1359 0.929 . S
C1368 C1360 1.378 . S
C1368 C1363 1.350 . S
C1369 H1356 0.929 . S
C1369 C1361 1.433 . S
C1369 N1371 1.384 . S
N1370 C1366 1.427 . S
N1370 C1367 1.384 . S
N1371 C1363 1.427 . S
N1371 C1369 1.384 . S
H1372 C1378 0.930 . S
H1373 C1382 0.930 1_556 S
H1374 C1387 0.929 . S
H1375 C1385 0.929 . S
H1376 C1380 0.929 . S
H1377 C1386 0.929 . S
C1378 H1372 0.930 . S
C1378 C1379 1.367 1_554 S
C1378 C1386 1.378 . S
C1379 C1378 1.367 1_556 S
C1379 C1387 1.433 . S
C1380 H1376 0.929 . S
C1380 C1382 1.378 1_556 S
C1380 C1384 1.350 1_556 S
C1381 C1384 1.463 . S
C1381 C1386 1.350 . S
C1381 N1389 1.427 1_554 S
C1382 H1373 0.930 1_554 S
C1382 C1380 1.378 1_554 S
C1382 C1383 1.367 . S
C1383 C1382 1.367 . S
C1383 C1385 1.433 . S
C1384 C1380 1.350 1_554 S
C1384 C1381 1.463 . S
C1384 N1388 1.427 . S
C1385 H1375 0.929 . S
C1385 C1383 1.433 . S
C1385 N1388 1.384 . S
C1386 H1377 0.929 . S
C1386 C1378 1.378 . S
C1386 C1381 1.350 . S
C1387 H1374 0.929 . S
C1387 C1379 1.433 . S
C1387 N1389 1.384 . S
N1388 C1384 1.427 . S
N1388 C1385 1.384 . S
N1389 C1381 1.427 1_556 S
N1389 C1387 1.384 . S
H1390 C1396 0.930 . S
H1391 C1400 0.930 . S
H1392 C1405 0.929 . S
H1393 C1403 0.929 . S
H1394 C1398 0.929 . S
H1395 C1404 0.929 . S
C1396 H1390 0.930 . S
C1396 C1397 1.367 . S
C1396 C1404 1.378 . S
C1397 C1396 1.367 . S
C1397 C1405 1.433 . S
C1398 H1394 0.929 . S
C1398 C1400 1.378 . S
C1398 C1402 1.350 . S
C1399 C1402 1.463 . S
C1399 C1404 1.350 . S
C1399 N1407 1.427 . S
C1400 H1391 0.930 . S
C1400 C1398 1.378 . S
C1400 C1401 1.367 . S
C1401 C1400 1.367 . S
C1401 C1403 1.433 . S
C1402 C1398 1.350 . S
C1402 C1399 1.463 . S
C1402 N1406 1.427 . S
C1403 H1393 0.929 . S
C1403 C1401 1.433 . S
C1403 N1406 1.384 . S
C1404 H1395 0.929 . S
C1404 C1396 1.378 . S
C1404 C1399 1.350 . S
C1405 H1392 0.929 . S
C1405 C1397 1.433 . S
C1405 N1407 1.384 . S
N1406 C1402 1.427 . S
N1406 C1403 1.384 . S
N1407 C1399 1.427 . S
N1407 C1405 1.384 . S
C551 C29 1.314 . S
C555 C0 1.314 . S
C569 C63 1.313 . S
C573 C34 1.313 . S
C587 C68 1.314 . S
C591 C97 1.314 . S
C605 C102 1.314 . S
C609 C131 1.314 . S
C623 C136 1.314 . S
C627 C165 1.314 . S
C641 C199 1.313 . S
C645 C170 1.313 . S
C659 C233 1.313 . S
C663 C204 1.313 . S
C677 C267 1.315 . S
C681 C238 1.315 . S
C695 C301 1.314 . S
C699 C272 1.314 . S
C713 C335 1.315 . S
C717 C306 1.315 . S
C731 C369 1.313 . S
C735 C340 1.313 . S
C749 C403 1.314 . S
C753 C374 1.314 . S
C767 C437 1.313 . S
C771 C408 1.313 . S
C785 C442 1.315 . S
C789 C471 1.315 . S
C803 C476 1.314 . S
C807 C505 1.314 . S
C821 C510 1.313 . S
C825 C539 1.313 . S
C839 C4 1.163 . S
C843 C387 1.158 . S
C857 C38 1.431 . S
C861 C523 1.433 . S
C875 C85 2.287 . S
C879 C314 2.292 . S
C893 C119 0.973 . S
C897 C455 0.961 . S
C911 C153 1.513 . S
C915 C450 1.514 . S
C929 C382 2.231 . S
C933 C187 2.211 . S
C947 C208 2.212 . S
C951 C518 2.222 . S
C965 C242 0.998 . S
C969 C319 1.009 . S
C983 C106 1.156 . S
C987 C280 1.166 . S
C1001 C51 1.494 . S
C1005 C353 1.473 . S
C1019 C416 1.543 . S
C1023 C174 1.534 . S
C1037 C255 1.314 . S
C1041 C489 1.306 . S
C1055 C285 0.974 . S
C1059 C140 0.982 . S
C1073 C221 3.072 . S
C1077 C348 3.066 . S
C1091 C72 1.055 . S
C1095 C484 1.058 . S
C1109 C17 2.373 . S
C1113 C421 2.365 . S
C1127 C13 1.286 . S
C1131 C144 1.290 . S
C1145 C47 1.849 . S
C1149 C178 1.850 . S
C1163 C76 2.316 . S
C1167 C217 2.315 . S
C1181 C110 1.151 . S
C1185 C251 1.143 . S
C1199 C425 1.894 . S
C1203 C289 1.884 . S
C1217 C446 1.185 . S
C1221 C310 1.185 . S
C1235 C344 1.092 . S
C1239 C480 1.094 . S
C1253 C514 1.793 . S
C1257 C391 1.791 . S
C1271 C42 1.762 . S
C1275 C246 1.763 . S
C1289 C149 1.085 . S
C1293 C81 1.086 . S
C1307 C183 1.067 . S
C1311 C115 1.069 . S
C1325 C8 3.038 . S
C1329 C212 3.042 . S
C1343 C527 2.191 . S
C1347 C323 2.198 . S
C1361 C412 2.353 . S
C1365 C357 2.354 . S
C1379 C459 1.688 . S
C1383 C378 1.685 . S
C1397 C493 1.291 . S
C1401 C276 1.273 . S
