# Generated by pormake.
# Topology smm, (6)-cn, num edge types: 1
# Building blocks:
#     Node 0, Type 0, BuildingBlock: BETDAH_clean_sbu_0, # of connection points: 6
#     Node 1, Type 0, BuildingBlock: BETDAH_clean_sbu_0, # of connection points: 6
#     Node 2, Type 0, BuildingBlock: BETDAH_clean_sbu_0, # of connection points: 6
#     Node 3, Type 0, BuildingBlock: BETDAH_clean_sbu_0, # of connection points: 6
#     Node 4, Type 0, BuildingBlock: BETDAH_clean_sbu_0, # of connection points: 6
#     Node 5, Type 0, BuildingBlock: BETDAH_clean_sbu_0, # of connection points: 6
#     Node 6, Type 0, BuildingBlock: BETDAH_clean_sbu_0, # of connection points: 6
#     Node 7, Type 0, BuildingBlock: BETDAH_clean_sbu_0, # of connection points: 6
#     Node 8, Type 0, BuildingBlock: BETDAH_clean_sbu_0, # of connection points: 6
#     Edge 9, Type (0, 0), BuildingBlock: UVAHIK_clean_linker_0, # of connection points: 2
#     Edge 10, Type (0, 0), BuildingBlock: UVAHIK_clean_linker_0, # of connection points: 2
#     Edge 11, Type (0, 0), BuildingBlock: UVAHIK_clean_linker_0, # of connection points: 2
#     Edge 12, Type (0, 0), BuildingBlock: UVAHIK_clean_linker_0, # of connection points: 2
#     Edge 13, Type (0, 0), BuildingBlock: UVAHIK_clean_linker_0, # of connection points: 2
#     Edge 14, Type (0, 0), BuildingBlock: UVAHIK_clean_linker_0, # of connection points: 2
#     Edge 15, Type (0, 0), BuildingBlock: UVAHIK_clean_linker_0, # of connection points: 2
#     Edge 16, Type (0, 0), BuildingBlock: UVAHIK_clean_linker_0, # of connection points: 2
#     Edge 17, Type (0, 0), BuildingBlock: UVAHIK_clean_linker_0, # of connection points: 2
#     Edge 18, Type (0, 0), BuildingBlock: UVAHIK_clean_linker_0, # of connection points: 2
#     Edge 19, Type (0, 0), BuildingBlock: UVAHIK_clean_linker_0, # of connection points: 2
#     Edge 20, Type (0, 0), BuildingBlock: UVAHIK_clean_linker_0, # of connection points: 2
#     Edge 21, Type (0, 0), BuildingBlock: UVAHIK_clean_linker_0, # of connection points: 2
#     Edge 22, Type (0, 0), BuildingBlock: UVAHIK_clean_linker_0, # of connection points: 2
#     Edge 23, Type (0, 0), BuildingBlock: UVAHIK_clean_linker_0, # of connection points: 2
#     Edge 24, Type (0, 0), BuildingBlock: UVAHIK_clean_linker_0, # of connection points: 2
#     Edge 25, Type (0, 0), BuildingBlock: UVAHIK_clean_linker_0, # of connection points: 2
#     Edge 26, Type (0, 0), BuildingBlock: UVAHIK_clean_linker_0, # of connection points: 2
#     Edge 27, Type (0, 0), BuildingBlock: UVAHIK_clean_linker_0, # of connection points: 2
#     Edge 28, Type (0, 0), BuildingBlock: UVAHIK_clean_linker_0, # of connection points: 2
#     Edge 29, Type (0, 0), BuildingBlock: UVAHIK_clean_linker_0, # of connection points: 2
#     Edge 30, Type (0, 0), BuildingBlock: UVAHIK_clean_linker_0, # of connection points: 2
#     Edge 31, Type (0, 0), BuildingBlock: UVAHIK_clean_linker_0, # of connection points: 2
#     Edge 32, Type (0, 0), BuildingBlock: UVAHIK_clean_linker_0, # of connection points: 2
#     Edge 33, Type (0, 0), BuildingBlock: UVAHIK_clean_linker_0, # of connection points: 2
#     Edge 34, Type (0, 0), BuildingBlock: UVAHIK_clean_linker_0, # of connection points: 2
#     Edge 35, Type (0, 0), BuildingBlock: UVAHIK_clean_linker_0, # of connection points: 2
# Relax obj value: 0.055
# Max RMSD: 0.133
# Mean RMSD: 0.133
data_MOF--net-smm--node1-BETDAH_clean_sbu_0--edge1-UVAHIK_clean_linker_0
_symmetry_space_group_name_H-M    P1
_symmetry_Int_Tables_number       1
_symmetry_cell_setting            triclinic
loop_
_symmetry_equiv_pos_as_xyz
'x, y, z'
_cell_length_a     85.668069
_cell_length_b     85.808635
_cell_length_c     18.434411
_cell_angle_alpha  89.975296
_cell_angle_beta   89.993779
_cell_angle_gamma 120.04992
loop_
_atom_site_label
_atom_site_type_symbol
_atom_site_fract_x
_atom_site_fract_y
_atom_site_fract_z
_atom_type_partial_charge
Ho0 Ho 0.05599 0.21757 0.97083 0.0
Ho1 Ho 1.02405 0.1805 0.02548 0.0
C2 C 1.02011 0.21642 0.02474 0.0
C3 C 0.08041 0.24471 0.89804 0.0
C4 C 0.08687 0.2641 0.88537 0.0
C5 C 0.08595 0.26998 0.81519 0.0
C6 C 0.09294 0.2883 0.80048 0.0
C7 C 0.10116 0.30125 0.85556 0.0
C8 C 0.1019 0.29533 0.92609 0.0
C9 C 0.09482 0.27698 0.94088 0.0
C10 C 0.05195 0.21348 0.11524 0.0
C11 C 0.06117 0.18228 -0.01414 0.0
C12 C 0.99838 0.15228 0.08796 0.0
C13 C 0.99041 0.13257 0.07985 0.0
C14 C 0.98594 0.12165 0.14179 0.0
C15 C 0.9782 0.10295 0.13523 0.0
C16 C 0.97465 0.09475 0.06645 0.0
C17 C 0.97925 0.10576 0.00443 0.0
C18 C 0.98712 0.12446 0.01102 0.0
C19 C 0.02878 0.18447 0.88127 0.0
O20 O 0.03423 0.22463 0.98106 0.0
O21 O 1.0153 0.20061 0.0552 0.0
O22 O 0.08329 0.23993 0.96194 0.0
O23 O 0.06455 0.23322 0.87169 0.0
O24 O 0.05799 0.22892 0.083 0.0
O25 O 0.04969 0.20153 0.07022 0.0
O26 O 0.04602 0.17378 0.02345 0.0
O27 O 0.06657 0.19815 0.95436 0.0
O28 O 0.99575 0.16076 0.03444 0.0
O29 O 1.01483 0.16112 0.11362 0.0
O30 O 1.02201 0.16903 0.91346 0.0
O31 O 0.03069 0.19641 0.92551 0.0
H32 H 0.08008 0.26039 0.77119 0.0
H33 H 0.09233 0.29236 0.74539 0.0
H34 H 0.10794 0.3049 0.97001 0.0
H35 H 0.09578 0.27294 -0.00439 0.0
H36 H 0.98837 0.12759 0.1954 0.0
H37 H 0.9747 0.09488 0.18411 0.0
H38 H 0.97694 0.09992 0.95067 0.0
H39 H 0.99059 0.13256 0.96222 0.0
Ho40 Ho 0.8557 0.86175 -0.01692 0.0
Ho41 Ho 0.89115 0.86362 0.03793 0.0
C42 C 0.85582 0.82461 0.02477 0.0
C43 C 0.82801 0.85637 0.90703 0.0
C44 C 0.8086 0.84363 0.89571 0.0
C45 C 0.80139 0.82488 0.8936 0.0
C46 C 0.78298 0.81339 0.87925 0.0
C47 C 0.77146 0.82044 0.86711 0.0
C48 C 0.77881 0.83922 0.86988 0.0
C49 C 0.79713 0.85064 0.88398 0.0
C50 C 0.86056 0.86399 0.1274 0.0
C51 C 0.88989 0.90066 0.01126 0.0
C52 C 0.92058 0.8701 0.10318 0.0
C53 C 0.94008 0.88244 0.09282 0.0
C54 C 0.95191 0.88622 0.15123 0.0
C55 C 0.97055 0.89711 0.14148 0.0
C56 C 0.97777 0.9044 0.07287 0.0
C57 C 0.96577 0.90082 0.01468 0.0
C58 C 0.94712 0.88998 0.0246 0.0
C59 C 0.88659 0.8626 0.89307 0.0
O60 O 0.84818 0.83221 -0.01332 0.0
O61 O 0.87132 0.83445 0.0593 0.0
O62 O 0.83257 0.86526 0.96832 0.0
O63 O 0.8395 0.85142 0.88605 0.0
O64 O 0.85139 0.87013 0.09411 0.0
O65 O 0.86471 0.8554 0.08412 0.0
O66 O 0.89732 0.89252 0.04657 0.0
O67 O 0.87505 0.89148 0.97199 0.0
O68 O 0.9126 0.8577 0.05352 0.0
O69 O 0.91098 0.8774 0.12265 0.0
O70 O 0.8953 0.85587 0.92528 0.0
O71 O 0.88245 0.87081 0.93806 0.0
H72 H 0.80996 0.81914 0.90258 0.0
H73 H 0.77774 0.79899 0.8782 0.0
H74 H 0.77047 0.84517 0.85965 0.0
H75 H 0.80242 0.86506 0.8848 0.0
H76 H 0.94674 0.8806 0.20436 0.0
H77 H 0.97929 0.89983 0.18787 0.0
H78 H 0.97079 0.90602 0.96095 0.0
H79 H 0.9382 0.88723 0.97872 0.0
Ho80 Ho 0.21088 1.01617 0.97516 0.0
Ho81 Ho 0.20902 0.04989 0.02809 0.0
C82 C 0.24796 0.05328 0.01987 0.0
C83 C 0.21699 0.99414 0.90094 0.0
C84 C 0.23045 0.9883 0.89064 0.0
C85 C 0.23656 0.98797 0.8203 0.0
C86 C 0.24785 0.98083 0.80749 0.0
C87 C 0.25323 0.97374 0.86478 0.0
C88 C 0.24745 0.97447 0.93557 0.0
C89 C 0.23621 0.98169 0.94842 0.0
C90 C 0.20778 0.01873 0.11883 0.0
C91 C 0.17194 1.01157 0.00054 0.0
C92 C 0.20241 0.07303 0.09045 0.0
C93 C 0.1907 0.08075 0.07625 0.0
C94 C 0.18553 0.08787 0.13374 0.0
C95 C 0.17518 0.09606 0.12078 0.0
C96 C 0.16983 0.09738 0.04982 0.0
C97 C 0.17483 0.08994 -0.00758 0.0
C98 C 0.18511 0.08167 0.00554 0.0
C99 C 0.21069 0.04631 0.88362 0.0
O100 O 0.2405 0.03817 0.98109 0.0
O101 O 0.23797 0.05892 0.05323 0.0
O102 O 0.20801 0.98987 0.96214 0.0
O103 O 0.22131 1.01028 0.87805 0.0
O104 O 0.20177 1.00342 0.08574 0.0
O105 O 0.21672 0.03149 0.07598 0.0
O106 O 0.18005 0.02718 0.03552 0.0
O107 O 0.18116 1.00575 0.96248 0.0
O108 O 0.21557 0.07741 0.04427 0.0
O109 O 0.19437 0.05601 0.1087 0.0
O110 O 0.21732 0.06175 0.9156 0.0
O111 O 0.20221 0.03398 0.92847 0.0
H112 H 0.23219 0.99283 0.77474 0.0
H113 H 0.25184 0.98032 0.75221 0.0
H114 H 0.25153 0.96935 0.9811 0.0
H115 H 0.23176 0.98176 0.00335 0.0
H116 H 0.18963 0.08722 0.18874 0.0
H117 H 0.17131 0.1013 0.16654 0.0
H118 H 0.17116 0.09083 0.93703 0.0
H119 H 0.18893 0.07623 0.96027 0.0
Ho120 Ho 0.72247 0.54991 0.30963 0.0
Ho121 Ho 0.68894 0.51436 0.36448 0.0
C122 C 0.68496 0.54943 0.35137 0.0
C123 C 0.74433 0.57774 0.23315 0.0
C124 C 0.74953 0.59666 0.21715 0.0
C125 C 0.75155 0.60224 0.14452 0.0
C126 C 0.75834 0.62038 0.12703 0.0
C127 C 0.76338 0.63345 0.18184 0.0
C128 C 0.76076 0.62773 0.25475 0.0
C129 C 0.75393 0.60953 0.27225 0.0
C130 C 0.71987 0.5449 0.45378 0.0
C131 C 0.72755 0.51596 0.33829 0.0
C132 C 0.66611 0.48494 0.43007 0.0
C133 C 0.65909 0.46546 0.4208 0.0
C134 C 0.65112 0.45383 0.47982 0.0
C135 C 0.64342 0.4352 0.47114 0.0
C136 C 0.64347 0.42779 0.40302 0.0
C137 C 0.65183 0.43959 0.34423 0.0
C138 C 0.65959 0.45824 0.35308 0.0
C139 C 0.6925 0.51894 0.21967 0.0
O140 O 0.70016 0.55708 0.31293 0.0
O141 O 0.67942 0.534 0.38612 0.0
O142 O 0.7483 0.57416 0.29736 0.0
O143 O 0.72862 0.56513 0.20934 0.0
O144 O 0.73521 0.554 0.42043 0.0
O145 O 0.70709 0.54079 0.4106 0.0
O146 O 0.71178 0.50832 0.37238 0.0
O147 O 0.73343 0.53101 0.30019 0.0
O148 O 0.66162 0.49271 0.3797 0.0
O149 O 0.68301 0.4947 0.44976 0.0
O150 O 0.67704 0.51022 0.25184 0.0
O151 O 0.70489 0.52315 0.26473 0.0
H152 H 0.74827 0.59259 0.10106 0.0
H153 H 0.75983 0.62418 0.07034 0.0
H154 H 0.7646 0.6374 0.29843 0.0
H155 H 0.75254 0.60564 0.32881 0.0
H156 H 0.65066 0.45915 0.53259 0.0
H157 H 0.63743 0.42661 0.51798 0.0
H158 H 0.652 0.43442 0.29085 0.0
H159 H 0.6657 0.467 0.30674 0.0
Ho160 Ho 0.52211 0.19467 0.3141 0.0
Ho161 Ho 0.55771 0.19678 0.36864 0.0
C162 C 0.52252 0.1577 0.35634 0.0
C163 C 0.49427 0.18906 0.23856 0.0
C164 C 0.47483 0.17627 0.2279 0.0
C165 C 0.46766 0.15753 0.2259 0.0
C166 C 0.44923 0.14599 0.21211 0.0
C167 C 0.43765 0.15298 0.20042 0.0
C168 C 0.44496 0.17176 0.20309 0.0
C169 C 0.4633 0.18323 0.21663 0.0
C170 C 0.52714 0.19713 0.45831 0.0
C171 C 0.55635 0.23369 0.34075 0.0
C172 C 0.58716 0.20338 0.43397 0.0
C173 C 0.60665 0.21569 0.42351 0.0
C174 C 0.61847 0.2196 0.48204 0.0
C175 C 0.6371 0.23045 0.47222 0.0
C176 C 0.64433 0.23756 0.40342 0.0
C177 C 0.63234 0.23386 0.3451 0.0
C178 C 0.61369 0.22307 0.3551 0.0
C179 C 0.55297 0.1955 0.22387 0.0
O180 O 0.51478 0.16516 0.31803 0.0
O181 O 0.538 0.16767 0.39082 0.0
O182 O 0.49893 0.19809 0.29951 0.0
O183 O 0.50575 0.18409 0.21758 0.0
O184 O 0.51786 0.20313 0.42506 0.0
O185 O 0.53129 0.18853 0.41512 0.0
O186 O 0.56387 0.22566 0.37613 0.0
O187 O 0.5414 0.22441 0.30217 0.0
O188 O 0.57918 0.1909 0.38456 0.0
O189 O 0.57757 0.21071 0.45311 0.0
O190 O 0.56182 0.18892 0.25612 0.0
O191 O 0.54882 0.20373 0.26871 0.0
H192 H 0.47628 0.15182 0.23453 0.0
H193 H 0.44403 0.1316 0.21112 0.0
H194 H 0.43657 0.17767 0.1932 0.0
H195 H 0.46856 0.19764 0.21737 0.0
H196 H 0.61329 0.2141 0.53533 0.0
H197 H 0.64585 0.23326 0.51869 0.0
H198 H 0.63736 0.23893 0.29124 0.0
H199 H 0.60478 0.22023 0.30913 0.0
Ho200 Ho 0.87754 0.34891 0.30951 0.0
Ho201 Ho 0.87549 0.38255 0.3621 0.0
C202 C 0.91452 0.38616 0.35417 0.0
C203 C 0.88376 0.32694 0.23542 0.0
C204 C 0.89729 0.32118 0.22486 0.0
C205 C 0.90325 0.32075 0.15436 0.0
C206 C 0.91455 0.31363 0.14134 0.0
C207 C 0.92008 0.30665 0.19858 0.0
C208 C 0.91445 0.3075 0.26952 0.0
C209 C 0.90319 0.3147 0.28257 0.0
C210 C 0.8742 0.35135 0.45301 0.0
C211 C 0.83849 0.34416 0.33396 0.0
C212 C 0.86849 0.40536 0.4249 0.0
C213 C 0.85609 0.41248 0.41391 0.0
C214 C 0.84832 0.41592 0.4743 0.0
C215 C 0.83726 0.42349 0.4655 0.0
C216 C 0.83381 0.42789 0.396 0.0
C217 C 0.84142 0.42416 0.33542 0.0
C218 C 0.85238 0.41647 0.34424 0.0
C219 C 0.87713 0.37883 0.21756 0.0
O220 O 0.90711 0.37097 0.31586 0.0
O221 O 0.90451 0.39185 0.38691 0.0
O222 O 0.87488 0.32269 0.29685 0.0
O223 O 0.88795 0.34302 0.21229 0.0
O224 O 0.86824 0.33609 0.41964 0.0
O225 O 0.88323 0.36419 0.4105 0.0
O226 O 0.84652 0.35981 0.36862 0.0
O227 O 0.84779 0.33834 0.29646 0.0
O228 O 0.88119 0.40987 0.37636 0.0
O229 O 0.86123 0.38852 0.44507 0.0
O230 O 0.88376 0.39432 0.24927 0.0
O231 O 0.86872 0.36657 0.26274 0.0
H232 H 0.89876 0.3255 0.10885 0.0
H233 H 0.91843 0.31303 0.08596 0.0
H234 H 0.91864 0.30248 0.31501 0.0
H235 H 0.89885 0.31485 0.33762 0.0
H236 H 0.85101 0.41298 0.52852 0.0
H237 H 0.83177 0.42632 0.51337 0.0
H238 H 0.83884 0.42714 0.2811 0.0
H239 H 0.85808 0.41382 0.2966 0.0
Ho240 Ho 0.38866 0.884 0.63826 0.0
Ho241 Ho 0.35663 0.84708 0.69305 0.0
C242 C 0.35295 0.88317 0.69185 0.0
C243 C 0.41325 0.9107 0.56423 0.0
C244 C 0.4196 0.92985 0.54773 0.0
C245 C 0.42314 0.93565 0.47538 0.0
C246 C 0.43014 0.95381 0.45785 0.0
C247 C 0.43388 0.96669 0.5124 0.0
C248 C 0.42994 0.96077 0.58493 0.0
C249 C 0.42287 0.94254 0.60244 0.0
C250 C 0.38468 0.88 0.78266 0.0
C251 C 0.39366 0.8486 0.65428 0.0
C252 C 0.33074 0.81899 0.75532 0.0
C253 C 0.32263 0.79928 0.74686 0.0
C254 C 0.3179 0.78826 0.80859 0.0
C255 C 0.31006 0.76956 0.80165 0.0
C256 C 0.3067 0.76147 0.73268 0.0
C257 C 0.31156 0.77257 0.67089 0.0
C258 C 0.31952 0.79128 0.67788 0.0
C259 C 0.36133 0.85102 0.54887 0.0
O260 O 0.36704 0.89127 0.64791 0.0
O261 O 0.34812 0.86739 0.72265 0.0
O262 O 0.41578 0.90667 0.63009 0.0
O263 O 0.39758 0.89888 0.53737 0.0
O264 O 0.39076 0.89543 0.75029 0.0
O265 O 0.38233 0.868 0.73775 0.0
O266 O 0.37842 0.8401 0.69134 0.0
O267 O 0.39919 0.86451 0.62304 0.0
O268 O 0.32825 0.82758 0.70184 0.0
O269 O 0.34719 0.82768 0.78114 0.0
O270 O 0.35462 0.83558 0.5811 0.0
O271 O 0.36326 0.86296 0.59309 0.0
H272 H 0.42068 0.92611 0.43223 0.0
H273 H 0.43265 0.95775 0.40134 0.0
H274 H 0.43277 0.97029 0.62848 0.0
H275 H 0.42023 0.93845 0.65877 0.0
H276 H 0.32019 0.79413 0.86231 0.0
H277 H 0.30635 0.76141 0.85034 0.0
H278 H 0.3094 0.76682 0.61702 0.0
H279 H 0.32321 0.79946 0.62926 0.0
Ho280 Ho 0.18893 0.52844 0.64567 0.0
Ho281 Ho 0.22475 0.53096 0.69959 0.0
C282 C 0.18972 0.49171 0.68864 0.0
C283 C 0.161 0.52262 0.57028 0.0
C284 C 0.14157 0.5098 0.55966 0.0
C285 C 0.13441 0.49105 0.55825 0.0
C286 C 0.11597 0.47948 0.54472 0.0
C287 C 0.10437 0.48644 0.5327 0.0
C288 C 0.11168 0.50522 0.53472 0.0
C289 C 0.13003 0.51672 0.548 0.0
C290 C 0.19412 0.5312 0.7897 0.0
C291 C 0.22278 0.56759 0.67333 0.0
C292 C 0.25452 0.53803 0.76336 0.0
C293 C 0.27403 0.55036 0.75193 0.0
C294 C 0.28544 0.55772 0.81207 0.0
C295 C 0.30408 0.56875 0.8026 0.0
C296 C 0.31171 0.57256 0.73266 0.0
C297 C 0.30018 0.56535 0.67239 0.0
C298 C 0.28153 0.55443 0.68189 0.0
C299 C 0.21991 0.52979 0.55472 0.0
O300 O 0.18183 0.499 0.65032 0.0
O301 O 0.20526 0.50182 0.72258 0.0
O302 O 0.16564 0.53167 0.63118 0.0
O303 O 0.17253 0.51772 0.54928 0.0
O304 O 0.18468 0.53699 0.75622 0.0
O305 O 0.19835 0.52257 0.74689 0.0
O306 O 0.23039 0.55965 0.70871 0.0
O307 O 0.20799 0.55824 0.63394 0.0
O308 O 0.24632 0.52522 0.71539 0.0
O309 O 0.24494 0.54537 0.78254 0.0
O310 O 0.22888 0.52331 0.58657 0.0
O311 O 0.21568 0.53786 0.6 0.0
H312 H 0.14305 0.48537 0.56721 0.0
H313 H 0.11077 0.46509 0.54423 0.0
H314 H 0.10328 0.51111 0.52454 0.0
H315 H 0.13528 0.53113 0.54829 0.0
H316 H 0.27996 0.55474 0.86655 0.0
H317 H 0.31256 0.57394 0.85021 0.0
H318 H 0.30558 0.56822 0.61779 0.0
H319 H 0.27299 0.54903 0.6345 0.0
Ho320 Ho 0.54498 0.68415 0.63814 0.0
Ho321 Ho 0.54304 0.71776 0.69183 0.0
C322 C 0.58204 0.72134 0.68243 0.0
C323 C 0.55121 0.66237 0.56269 0.0
C324 C 0.56489 0.65687 0.55068 0.0
C325 C 0.57138 0.65748 0.48016 0.0
C326 C 0.58279 0.65058 0.46541 0.0
C327 C 0.58789 0.64275 0.52084 0.0
C328 C 0.58178 0.64259 0.59191 0.0
C329 C 0.57042 0.64958 0.60672 0.0
C330 C 0.54212 0.68666 0.78202 0.0
C331 C 0.506 0.67929 0.6656 0.0
C332 C 0.53639 0.74079 0.75491 0.0
C333 C 0.52451 0.74835 0.74146 0.0
C334 C 0.51946 0.75548 0.79929 0.0
C335 C 0.50893 0.7635 0.787 0.0
C336 C 0.50327 0.76464 0.71638 0.0
C337 C 0.50816 0.75718 0.65866 0.0
C338 C 0.51862 0.74908 0.6711 0.0
C339 C 0.5444 0.71416 0.54719 0.0
O340 O 0.57457 0.70623 0.64363 0.0
O341 O 0.57206 0.72692 0.71613 0.0
O342 O 0.54255 0.65803 0.62465 0.0
O343 O 0.55509 0.67839 0.53984 0.0
O344 O 0.53609 0.67137 0.74879 0.0
O345 O 0.55095 0.69944 0.73908 0.0
O346 O 0.51415 0.69494 0.7003 0.0
O347 O 0.51516 0.6735 0.62701 0.0
O348 O 0.54942 0.74523 0.70808 0.0
O349 O 0.52851 0.72378 0.77332 0.0
O350 O 0.5511 0.7296 0.57919 0.0
O351 O 0.53606 0.70183 0.59219 0.0
H352 H 0.5672 0.66286 0.43585 0.0
H353 H 0.58705 0.65076 0.40996 0.0
H354 H 0.58563 0.63689 0.63609 0.0
H355 H 0.56568 0.64891 0.66172 0.0
H356 H 0.52379 0.75497 0.85403 0.0
H357 H 0.50517 0.76876 0.83301 0.0
H358 H 0.50425 0.75794 0.6035 0.0
H359 H 0.52234 0.74363 0.62559 0.0
C360 C 0.12614 0.33344 0.86878 0.0
C361 C 0.10938 0.32085 0.83894 0.0
C362 C 0.13413 0.35176 0.85175 0.0
C363 C 0.13323 0.38332 0.71547 0.0
H364 H 0.15967 0.41892 0.86387 0.0
C365 C 0.16292 0.46047 0.67171 0.0
C366 C 0.18016 0.47189 0.70085 0.0
C367 C 0.15375 0.44194 0.68694 0.0
C368 C 0.15248 0.40917 0.82153 0.0
H369 H 0.08775 0.31785 0.76864 0.0
H370 H 0.10159 0.3498 0.73946 0.0
H371 H 0.14462 0.38705 0.89438 0.0
H372 H 0.20137 0.47255 0.76763 0.0
H373 H 0.18552 0.44049 0.79347 0.0
H374 H 0.14111 0.40557 0.64272 0.0
C375 C 0.10874 0.34547 0.77504 0.0
C376 C 0.14385 0.39085 0.83904 0.0
C377 C 0.10078 0.32712 0.7919 0.0
C378 C 0.18808 0.46426 0.74448 0.0
C379 C 0.17893 0.44583 0.75981 0.0
C380 C 0.14183 0.40169 0.69799 0.0
C381 C 0.12556 0.35806 0.80458 0.0
C382 C 0.13423 0.37764 0.78616 0.0
C383 C 0.16157 0.43443 0.73191 0.0
C384 C 0.15173 0.41485 0.75065 0.0
H385 H 0.13332 0.32909 0.90417 0.0
H386 H 0.14723 0.36095 0.87457 0.0
H387 H 0.12614 0.37358 0.67303 0.0
H388 H 0.15639 0.46585 0.63797 0.0
H389 H 0.14036 0.43358 0.66485 0.0
C390 C 0.74603 0.79368 0.80351 0.0
C391 C 0.7519 0.80845 0.85072 0.0
C392 C 0.72774 0.78312 0.7852 0.0
C393 C 0.68182 0.77217 0.84494 0.0
H394 H 0.66849 0.75725 0.64522 0.0
C395 C 0.60956 0.7462 0.74218 0.0
C396 C 0.60182 0.73108 0.69623 0.0
C397 C 0.62789 0.75481 0.75962 0.0
C398 C 0.67198 0.76113 0.70138 0.0
H399 H 0.74292 0.82328 0.91748 0.0
H400 H 0.71127 0.80519 0.88474 0.0
H401 H 0.70031 0.7734 0.67982 0.0
H402 H 0.60755 0.71346 0.63123 0.0
H403 H 0.63966 0.7286 0.66169 0.0
H404 H 0.65357 0.76015 0.86641 0.0
C405 C 0.72073 0.80162 0.86209 0.0
C406 C 0.69023 0.77037 0.72131 0.0
C407 C 0.73896 0.81215 0.88026 0.0
C408 C 0.61303 0.72507 0.66676 0.0
C409 C 0.63146 0.73377 0.68405 0.0
C410 C 0.66363 0.76301 0.82502 0.0
C411 C 0.71485 0.78702 0.81395 0.0
C412 C 0.69541 0.77621 0.79323 0.0
C413 C 0.63906 0.74861 0.73153 0.0
C414 C 0.65846 0.75756 0.75283 0.0
H415 H 0.75563 0.79051 0.77929 0.0
H416 H 0.7237 0.77188 0.74859 0.0
H417 H 0.68523 0.77608 0.90112 0.0
H418 H 0.60143 0.75132 0.76571 0.0
H419 H 0.63333 0.7664 0.7952 0.0
C420 C 0.26031 0.94887 0.88507 0.0
C421 C 0.26426 0.96502 0.85012 0.0
C422 C 0.27009 0.94023 0.86894 0.0
C423 C 0.29949 0.93758 0.72696 0.0
H424 H 0.3115 0.914 0.8784 0.0
C425 C 0.34718 0.90902 0.67705 0.0
C426 C 0.34262 0.8924 0.7093 0.0
C427 C 0.33766 0.91786 0.69434 0.0
C428 C 0.30809 0.92034 0.83528 0.0
H429 H 0.28201 0.98497 0.77214 0.0
H430 H 0.29915 0.97003 0.74447 0.0
H431 H 0.2952 0.92963 0.90907 0.0
H432 H 0.32435 0.8721 0.78519 0.0
H433 H 0.30772 0.88745 0.81484 0.0
H434 H 0.31243 0.92834 0.65323 0.0
C435 C 0.28823 0.96382 0.78334 0.0
C436 C 0.29872 0.92932 0.85288 0.0
C437 C 0.27842 0.97243 0.79934 0.0
C438 C 0.32827 0.88486 0.75924 0.0
C439 C 0.31879 0.89374 0.77668 0.0
C440 C 0.30889 0.92864 0.7094 0.0
C441 C 0.28413 0.94752 0.81753 0.0
C442 C 0.29427 0.93807 0.79897 0.0
C443 C 0.32336 0.91037 0.74452 0.0
C444 C 0.31331 0.91989 0.76329 0.0
H445 H 0.24932 0.94261 0.9236 0.0
H446 H 0.26634 0.92759 0.8956 0.0
H447 H 0.29604 0.94386 0.68372 0.0
H448 H 0.35818 0.9153 0.63855 0.0
H449 H 0.34172 0.93075 0.66917 0.0
C450 C 0.41215 0.12615 0.13746 0.0
C451 C 0.41806 0.14095 0.18457 0.0
C452 C 0.39384 0.11553 0.11966 0.0
C453 C 0.34797 0.10448 0.18071 0.0
H454 H 0.33434 0.08938 0.98135 0.0
C455 C 0.27548 0.07813 0.07975 0.0
C456 C 0.26773 0.06302 0.03374 0.0
C457 C 0.29382 0.0868 0.09691 0.0
C458 C 0.33791 0.0933 0.03743 0.0
H459 H 0.40914 0.15576 0.25166 0.0
H460 H 0.37744 0.13758 0.2198 0.0
H461 H 0.36621 0.10565 0.01507 0.0
H462 H 0.27349 0.04547 0.96843 0.0
H463 H 0.30563 0.06069 -0.0016 0.0
H464 H 0.31974 0.09237 0.20297 0.0
C465 C 0.38688 0.13403 0.19684 0.0
C466 C 0.3562 0.10262 0.05685 0.0
C467 C 0.40514 0.14462 0.21451 0.0
C468 C 0.27897 0.05706 0.00401 0.0
C469 C 0.29741 0.06582 0.02102 0.0
C470 C 0.32974 0.09524 0.16129 0.0
C471 C 0.38096 0.1194 0.14882 0.0
C472 C 0.36148 0.10853 0.12863 0.0
C473 C 0.30502 0.08067 0.06846 0.0
C474 C 0.32446 0.08972 0.08924 0.0
H475 H 0.42173 0.123 0.11293 0.0
H476 H 0.38976 0.10427 0.08312 0.0
H477 H 0.35147 0.10845 0.23679 0.0
H478 H 0.26733 0.08321 0.10349 0.0
H479 H 0.29926 0.09839 0.13249 0.0
C480 C 0.92726 0.28186 0.21905 0.0
C481 C 0.9311 0.29793 0.18374 0.0
C482 C 0.93703 0.27322 0.2028 0.0
C483 C 0.9662 0.2704 0.06014 0.0
H484 H 0.97857 0.24712 0.21164 0.0
C485 C 1.01411 0.24212 0.00979 0.0
C486 C 1.00969 0.22556 0.04226 0.0
C487 C 1.00453 0.25089 0.02713 0.0
C488 C 0.97506 0.25338 0.16851 0.0
H489 H 0.94866 0.31775 0.10495 0.0
H490 H 0.96579 0.30281 0.07709 0.0
H491 H 0.96223 0.26271 0.24244 0.0
H492 H 0.99158 0.20529 0.11862 0.0
H493 H 0.97483 0.22052 0.14839 0.0
H494 H 0.97909 0.26112 -0.01372 0.0
C495 C 0.95496 0.29665 0.11634 0.0
C496 C 0.96567 0.26233 0.18618 0.0
C497 C 0.94515 0.30526 0.13245 0.0
C498 C 0.9954 0.21801 0.09248 0.0
C499 C 0.98585 0.22682 0.10998 0.0
C500 C 0.97563 0.26148 0.04251 0.0
C501 C 0.95096 0.28043 0.1509 0.0
C502 C 0.9611 0.27098 0.13225 0.0
C503 C 0.99029 0.24339 0.07759 0.0
C504 C 0.98018 0.25284 0.09643 0.0
H505 H 0.91635 0.27566 0.25798 0.0
H506 H 0.93336 0.26062 0.22977 0.0
H507 H 0.96266 0.2766 0.01688 0.0
H508 H 1.02506 0.24841 0.97106 0.0
H509 H 1.00849 0.26373 0.00177 0.0
C510 C 0.85391 0.79664 0.07649 0.0
C511 C 0.846 0.80474 0.03562 0.0
C512 C 0.8446 0.7781 0.08963 0.0
C513 C 0.79871 0.73808 0.09456 0.0
H514 H 0.82493 0.7121 0.0922 0.0
C515 C 0.7681 0.6647 0.20169 0.0
C516 C 0.77206 0.65298 0.16281 0.0
C517 C 0.7766 0.68307 0.18426 0.0
C518 C 0.81733 0.71907 0.09255 0.0
H519 H 0.82201 0.79946 0.97604 0.0
H520 H 0.8058 0.76701 -0.00153 0.0
H521 H 0.84055 0.74403 0.06269 0.0
H522 H 0.78829 0.65163 0.07536 0.0
H523 H 0.80275 0.6834 0.04424 0.0
H524 H 0.77542 0.71298 0.12354 0.0
C525 C 0.81918 0.77511 0.02104 0.0
C526 C 0.82636 0.73748 0.07639 0.0
C527 C 0.82854 0.79372 0.00771 0.0
C528 C 0.78469 0.66014 0.10594 0.0
C529 C 0.79319 0.67846 0.08864 0.0
C530 C 0.78967 0.71963 0.11091 0.0
C531 C 0.82709 0.76706 0.06231 0.0
C532 C 0.81722 0.74728 0.07741 0.0
C533 C 0.78935 0.69022 0.12772 0.0
C534 C 0.79887 0.70988 0.11019 0.0
H535 H 0.86729 0.80464 0.09916 0.0
H536 H 0.85104 0.77246 0.12249 0.0
H537 H 0.79126 0.7452 0.09658 0.0
H538 H 0.75835 0.65967 0.24543 0.0
H539 H 0.77342 0.69173 0.216 0.0
C540 C 0.07881 0.45945 0.4707 0.0
C541 C 0.08477 0.47437 0.51722 0.0
C542 C 0.06047 0.4488 0.4532 0.0
C543 C 1.01465 0.43795 0.51417 0.0
H544 H 1.00089 0.4223 0.31541 0.0
C545 C 0.94203 0.41119 0.41348 0.0
C546 C 0.9343 0.39598 0.36799 0.0
C547 C 0.96039 0.41994 0.43053 0.0
C548 C 1.00449 0.42638 0.37133 0.0
H549 H 0.0759 0.48935 0.58359 0.0
H550 H 0.04418 0.47112 0.55222 0.0
H551 H 0.03278 0.43866 0.34878 0.0
H552 H 0.9401 0.37833 0.30354 0.0
H553 H 0.97224 0.39369 0.33334 0.0
H554 H 0.98643 0.4259 0.53662 0.0
C555 C 0.0536 0.4675 0.52951 0.0
C556 C 1.02279 0.43575 0.39056 0.0
C557 C 0.07187 0.47812 0.54688 0.0
C558 C 0.94556 0.39 0.33871 0.0
C559 C 0.96402 0.39883 0.35562 0.0
C560 C 0.9964 0.42866 0.49494 0.0
C561 C 0.04763 0.45276 0.48205 0.0
C562 C 1.02813 0.44185 0.46211 0.0
C563 C 0.97161 0.41379 0.4025 0.0
C564 C 0.99107 0.42293 0.42311 0.0
H565 H 0.08836 0.45623 0.4464 0.0
H566 H 0.05637 0.43745 0.41711 0.0
H567 H 1.01818 0.44207 0.5701 0.0
H568 H 0.93386 0.41628 0.43687 0.0
H569 H 0.96582 0.43161 0.46568 0.0
C570 C 0.61325 0.64192 0.45434 0.0
C571 C 0.5988 0.63403 0.5038 0.0
C572 C 0.62289 0.63326 0.43593 0.0
C573 C 0.61851 0.58811 0.43249 0.0
H574 H 0.67061 0.6145 0.41466 0.0
C575 C 0.65954 0.55178 0.40763 0.0
C576 C 0.67488 0.5592 0.36266 0.0
C577 C 0.6504 0.56114 0.42153 0.0
C578 C 0.65604 0.60694 0.41833 0.0
H579 H 0.58324 0.61077 0.5726 0.0
H580 H 0.60013 0.5958 0.54126 0.0
H581 H 0.65468 0.6305 0.44645 0.0
H582 H 0.69243 0.58231 0.29625 0.0
H583 H 0.67626 0.59855 0.31963 0.0
H584 H 0.61977 0.56459 0.40418 0.0
C585 C 0.60395 0.60865 0.51624 0.0
C586 C 0.6469 0.61613 0.43676 0.0
C587 C 0.59439 0.61735 0.53493 0.0
C588 C 0.68069 0.57618 0.33121 0.0
C589 C 0.67148 0.58556 0.34507 0.0
C590 C 0.62761 0.57896 0.41381 0.0
C591 C 0.61824 0.61641 0.4661 0.0
C592 C 0.62803 0.6068 0.44474 0.0
C593 C 0.65623 0.57818 0.39068 0.0
C594 C 0.64652 0.58819 0.40714 0.0
H595 H 0.61712 0.65483 0.42977 0.0
H596 H 0.63374 0.63958 0.39684 0.0
H597 H 0.60395 0.58054 0.43668 0.0
H598 H 0.65467 0.53879 0.4332 0.0
H599 H 0.63892 0.55512 0.45786 0.0
C600 C 0.52085 0.13008 0.41028 0.0
C601 C 0.51296 0.13785 0.36732 0.0
C602 C 0.51187 0.11155 0.42315 0.0
C603 C 0.46663 0.07058 0.4217 0.0
H604 H 0.49449 0.0463 0.42815 0.0
C605 C 0.4372 0.99746 0.52947 0.0
C606 C 0.4423 0.98621 0.49361 0.0
C607 C 0.44531 1.01579 0.5119 0.0
C608 C 0.48643 0.05278 0.42594 0.0
H609 H 0.48932 0.13202 0.30387 0.0
H610 H 0.4737 0.09952 0.32568 0.0
H611 H 0.50936 0.07817 0.39854 0.0
H612 H 0.46017 0.98568 0.41145 0.0
H613 H 0.4739 1.01735 0.37978 0.0
H614 H 0.44362 0.04503 0.44794 0.0
C615 C 0.4868 0.10789 0.35014 0.0
C616 C 0.49502 0.07117 0.40977 0.0
C617 C 0.49582 0.12652 0.33719 0.0
C618 C 0.45569 0.99381 0.43964 0.0
C619 C 0.46376 1.01209 0.42207 0.0
C620 C 0.458 0.05214 0.43789 0.0
C621 C 0.49473 0.10016 0.39333 0.0
C622 C 0.48529 0.08037 0.40783 0.0
C623 C 0.45876 0.02337 0.45812 0.0
C624 C 0.4678 0.043 0.4404 0.0
H625 H 0.53398 0.13833 0.43478 0.0
H626 H 0.5183 0.10619 0.45767 0.0
H627 H 0.45871 0.07723 0.42136 0.0
H628 H 0.42683 0.99208 0.57083 0.0
H629 H 0.44122 0.02408 0.54137 0.0
C630 C 0.14555 0.1001 -0.01702 0.0
C631 C 0.15925 0.10664 0.03577 0.0
C632 C 0.13559 0.10872 0.97027 0.0
C633 C 0.13569 0.15175 0.00253 0.0
H634 H 0.08435 0.12203 0.96827 0.0
C635 C 0.08957 0.18238 0.94726 0.0
C636 C 0.07268 0.17383 0.98205 0.0
C637 C 0.10048 0.17445 0.94714 0.0
C638 C 0.09866 0.13056 0.97809 0.0
H639 H 0.17339 0.12775 0.1154 0.0
H640 H 0.15568 0.14237 0.09502 0.0
H641 H 0.10268 0.10792 -0.01714 0.0
H642 H 0.05404 0.15007 0.04343 0.0
H643 H 0.07298 0.13657 0.04393 0.0
H644 H 0.13147 0.17435 0.00054 0.0
C645 C 0.15278 0.13071 0.06255 0.0
C646 C 0.10925 0.12246 -0.01445 0.0
C647 C 0.16278 0.12213 0.07507 0.0
C648 C 0.06692 0.1571 0.01581 0.0
C649 C 0.07777 0.14923 0.01569 0.0
C650 C 0.12507 0.15986 -0.00475 0.0
C651 C 0.13899 0.1241 0.01015 0.0
C652 C 0.12789 0.1329 -0.00135 0.0
C653 C 0.09473 0.15777 0.98159 0.0
C654 C 0.10635 0.14936 -0.01612 0.0
H655 H 0.14229 0.08813 0.95203 0.0
H656 H 0.12524 0.10333 0.92886 0.0
H657 H 0.15004 0.16028 0.01147 0.0
H658 H 0.09445 0.19525 0.92066 0.0
H659 H 0.11339 0.18134 0.91973 0.0
C660 C 0.89235 0.93002 0.9732 0.0
C661 C 0.89877 0.92063 0.01467 0.0
C662 C 0.90062 0.94882 0.9775 0.0
C663 C 0.92935 0.98725 0.09735 0.0
H664 H 0.938 1.01591 0.92357 0.0
C665 C 0.97151 0.06507 0.10409 0.0
C666 C 0.9661 0.0748 0.05942 0.0
C667 C 0.96341 0.04633 0.09774 0.0
C668 C 0.93549 1.00813 0.97284 0.0
H669 H 0.91907 0.92381 0.09306 0.0
H670 H 0.93343 0.95647 0.1004 0.0
H671 H 0.92356 0.98323 0.91408 0.0
H672 H 0.9477 0.07234 0.97363 0.0
H673 H 0.9334 0.03971 0.9632 0.0
H674 H 0.94104 1.01204 0.15634 0.0
C675 C 0.9219 0.9493 0.06495 0.0
C676 C 0.92722 0.98936 0.96731 0.0
C677 C 0.91371 0.93054 0.06035 0.0
C678 C 0.95238 0.06531 0.00821 0.0
C679 C 0.94419 0.04656 0.00216 0.0
C680 C 0.93752 1.006 0.10295 0.0
C681 C 0.91545 0.95869 0.02374 0.0
C682 C 0.92409 0.97868 0.02948 0.0
C683 C 0.94957 0.03678 0.04686 0.0
C684 C 0.94076 1.01674 0.04077 0.0
H685 H 0.88088 0.92286 0.93747 0.0
H686 H 0.89519 0.95559 0.9455 0.0
H687 H 0.92689 0.97944 0.14649 0.0
H688 H 0.98222 0.07197 0.14336 0.0
H689 H 0.96819 0.03938 0.13221 0.0
C690 C 1.00942 0.91085 0.09738 0.0
C691 C 0.99771 0.91542 0.06191 0.0
C692 C 1.0281 0.92111 0.08725 0.0
C693 C 0.06419 0.96615 0.02631 0.0
H694 H 0.09283 0.9427 0.01898 0.0
C695 C 0.14196 1.00622 0.04539 0.0
C696 C 0.15191 1.00059 0.00319 0.0
C697 C 0.12315 0.99584 0.04925 0.0
C698 C 0.08505 0.94948 0.02015 0.0
H699 H 0.99669 0.93456 -0.01206 0.0
H700 H 0.02918 0.95216 0.96889 0.0
H701 H 0.06016 0.92457 0.03003 0.0
H702 H 0.14973 0.97957 0.93136 0.0
H703 H 0.1169 0.96157 0.93734 0.0
H704 H 0.08904 0.99103 0.01501 0.0
C705 C 1.02392 0.94075 0.00542 0.0
C706 C 0.06629 0.93908 0.02748 0.0
C707 C 1.00523 0.93051 0.01569 0.0
C708 C 0.14253 0.98432 0.96458 0.0
C709 C 0.12368 0.97393 0.96836 0.0
C710 C 0.08295 0.97655 0.01886 0.0
C711 C 0.03563 0.93621 0.04116 0.0
C712 C 0.0556 0.94727 0.03116 0.0
C713 C 0.11373 0.97953 0.0109 0.0
C714 C 0.09366 0.96838 0.01619 0.0
H715 H 1.00416 0.89919 0.13258 0.0
H716 H 0.03665 0.9173 0.11642 0.0
H717 H 0.05647 0.97298 0.02962 0.0
H718 H 0.14868 0.01863 0.07619 0.0
H719 H 0.11603 1.00048 0.0835 0.0
C720 C 0.73298 0.49157 0.38493 0.0
C721 C 0.73858 0.507 0.34169 0.0
C722 C 0.74335 0.48317 0.3893 0.0
C723 C 0.77879 0.47841 0.29425 0.0
H724 H 0.78496 0.46173 0.48178 0.0
C725 C 0.82783 0.45103 0.33829 0.0
C726 C 0.82263 0.43663 0.387 0.0
C727 C 0.81764 0.45961 0.3315 0.0
C728 C 0.7832 0.46606 0.42875 0.0
H729 H 0.75953 0.52556 0.26865 0.0
H730 H 0.77764 0.51087 0.27639 0.0
H731 H 0.76726 0.47669 0.47219 0.0
H732 H 0.80227 0.41966 0.46527 0.0
H733 H 0.78439 0.43441 0.45284 0.0
H734 H 0.79461 0.46764 0.25065 0.0
C735 C 0.76513 0.50523 0.3066 0.0
C736 C 0.77305 0.4747 0.4233 0.0
C737 C 0.75478 0.51371 0.30248 0.0
C738 C 0.80684 0.43089 0.42806 0.0
C739 C 0.79659 0.4394 0.42101 0.0
C740 C 0.78889 0.46969 0.29962 0.0
C741 C 0.75959 0.48989 0.35038 0.0
C742 C 0.77067 0.48095 0.35598 0.0
C743 C 0.80191 0.45397 0.373 0.0
C744 C 0.7912 0.46334 0.36697 0.0
H745 H 0.72057 0.48595 0.41582 0.0
H746 H 0.73853 0.47124 0.42272 0.0
H747 H 0.77705 0.48284 0.24139 0.0
H748 H 0.84005 0.45597 0.30654 0.0
H749 H 0.82235 0.47094 0.29478 0.0
C750 C 0.6421 0.40019 0.34771 0.0
C751 C 0.63454 0.40784 0.3932 0.0
C752 C 0.63366 0.38149 0.33858 0.0
C753 C 0.58956 0.33926 0.36237 0.0
H754 H 0.61878 0.31648 0.35249 0.0
C755 C 0.55847 0.26296 0.30353 0.0
C756 C 0.56536 0.25368 0.34287 0.0
C757 C 0.56694 0.28179 0.30647 0.0
C758 C 0.61038 0.32259 0.35563 0.0
H759 H 0.61186 0.40162 0.4637 0.0
H760 H 0.59747 0.36914 0.44946 0.0
H761 H 0.63334 0.34905 0.36516 0.0
H762 H 0.58665 0.25708 0.41633 0.0
H763 H 0.60118 0.28971 0.42218 0.0
H764 H 0.56659 0.31274 0.35505 0.0
C765 C 0.60983 0.37758 0.42003 0.0
C766 C 0.61876 0.34134 0.36197 0.0
C767 C 0.61825 0.39626 0.42905 0.0
C768 C 0.58096 0.26372 0.38501 0.0
C769 C 0.5894 0.28251 0.38802 0.0
C770 C 0.58118 0.32051 0.35614 0.0
C771 C 0.61741 0.36991 0.37469 0.0
C772 C 0.60847 0.34994 0.36586 0.0
C773 C 0.58252 0.29183 0.34887 0.0
C774 C 0.59146 0.31189 0.35313 0.0
H775 H 0.6547 0.40863 0.31969 0.0
H776 H 0.63981 0.37613 0.3026 0.0
H777 H 0.58118 0.3454 0.36421 0.0
H778 H 0.54651 0.25571 0.27032 0.0
H779 H 0.56137 0.28849 0.27485 0.0
C780 C 0.67182 0.26347 0.34565 0.0
C781 C 0.66426 0.24849 0.3924 0.0
C782 C 0.69052 0.27364 0.33534 0.0
C783 C 0.73278 0.27186 0.35857 0.0
H784 H 0.75567 0.32381 0.34504 0.0
C785 C 0.80915 0.31692 0.29743 0.0
C786 C 0.81847 0.33319 0.33606 0.0
C787 C 0.79029 0.30656 0.30062 0.0
C788 C 0.74954 0.30932 0.34918 0.0
H789 H 0.67063 0.23234 0.46393 0.0
H790 H 0.70312 0.25032 0.4477 0.0
H791 H 0.72309 0.30585 0.35916 0.0
H792 H 0.81514 0.35126 0.40849 0.0
H793 H 0.78248 0.33317 0.41479 0.0
H794 H 0.75931 0.27539 0.3509 0.0
C795 C 0.6946 0.25411 0.41815 0.0
C796 C 0.73078 0.29898 0.35635 0.0
C797 C 0.67593 0.24393 0.42832 0.0
C798 C 0.80846 0.33886 0.37769 0.0
C799 C 0.78965 0.32851 0.38096 0.0
C800 C 0.75156 0.28221 0.35153 0.0
C801 C 0.70217 0.26912 0.37156 0.0
C802 C 0.72214 0.28011 0.36162 0.0
C803 C 0.78028 0.31221 0.34256 0.0
C804 C 0.76021 0.3011 0.34725 0.0
H805 H 0.66332 0.26751 0.31753 0.0
H806 H 0.69581 0.28497 0.29842 0.0
H807 H 0.72661 0.25735 0.36145 0.0
H808 H 0.81639 0.31214 0.26464 0.0
H809 H 0.78354 0.2942 0.2696 0.0
C810 C 0.49606 0.78925 0.74208 0.0
C811 C 0.4925 0.77371 0.70302 0.0
C812 C 0.48589 0.79768 0.73015 0.0
C813 C 0.442 0.789 0.65558 0.0
H814 H 0.46406 0.8409 0.66831 0.0
C815 C 0.3995 0.82352 0.68537 0.0
C816 C 0.40516 0.84014 0.65084 0.0
C817 C 0.41038 0.81568 0.68548 0.0
C818 C 0.4577 0.82641 0.66368 0.0
H819 H 0.47531 0.75496 0.62039 0.0
H820 H 0.45796 0.7699 0.59822 0.0
H821 H 0.48278 0.827 0.67881 0.0
H822 H 0.42679 0.8614 0.5883 0.0
H823 H 0.44577 0.84755 0.58772 0.0
H824 H 0.41698 0.78839 0.63932 0.0
C825 C 0.46846 0.77544 0.63899 0.0
C826 C 0.46841 0.81839 0.67071 0.0
C827 C 0.47859 0.76697 0.65111 0.0
C828 C 0.42199 0.84861 0.61554 0.0
C829 C 0.43293 0.84072 0.6156 0.0
C830 C 0.43131 0.797 0.64836 0.0
C831 C 0.4719 0.79087 0.67859 0.0
C832 C 0.46068 0.79955 0.66758 0.0
C833 C 0.42727 0.82416 0.65084 0.0
C834 C 0.43896 0.8158 0.65328 0.0
H835 H 0.50682 0.79502 0.78173 0.0
H836 H 0.48883 0.80938 0.76237 0.0
H837 H 0.43548 0.77446 0.65349 0.0
H838 H 0.38668 0.81656 0.71343 0.0
H839 H 0.40567 0.8031 0.71429 0.0
C840 C 0.2462 0.59752 0.72323 0.0
C841 C 0.2314 0.58754 0.67699 0.0
C842 C 0.25417 0.61624 0.72818 0.0
C843 C 0.25937 0.65626 0.63097 0.0
H844 H 0.27255 0.67863 0.82072 0.0
C845 C 0.2845 0.73217 0.67336 0.0
C846 C 0.29809 0.74153 0.72521 0.0
C847 C 0.27628 0.71343 0.66684 0.0
C848 C 0.2692 0.67268 0.76715 0.0
H849 H 0.21353 0.58959 0.59916 0.0
H850 H 0.22749 0.62231 0.60777 0.0
H851 H 0.2585 0.64606 0.81012 0.0
H852 H 0.31393 0.7385 0.80981 0.0
H853 H 0.29984 0.70592 0.79785 0.0
H854 H 0.27025 0.68288 0.58782 0.0
C855 C 0.23296 0.6156 0.63996 0.0
C856 C 0.26109 0.65395 0.76112 0.0
C857 C 0.2249 0.59682 0.63531 0.0
C858 C 0.30333 0.73169 0.77005 0.0
C859 C 0.29519 0.71297 0.76324 0.0
C860 C 0.26758 0.67502 0.63694 0.0
C861 C 0.24764 0.62554 0.68678 0.0
C862 C 0.25609 0.64549 0.69297 0.0
C863 C 0.28149 0.70354 0.71172 0.0
C864 C 0.27265 0.68351 0.70514 0.0
H865 H 0.25162 0.59088 0.75614 0.0
H866 H 0.2656 0.62348 0.76406 0.0
H867 H 0.2559 0.65021 0.57756 0.0
H868 H 0.27997 0.7393 0.63861 0.0
H869 H 0.26559 0.70667 0.62737 0.0
C870 C 0.47621 0.67363 0.71406 0.0
C871 C 0.48599 0.66824 0.66944 0.0
C872 C 0.45744 0.66317 0.71927 0.0
C873 C 0.41698 0.62799 0.62513 0.0
H874 H 0.3948 0.62095 0.81468 0.0
C875 C 0.34066 0.57874 0.67239 0.0
C876 C 0.33163 0.58374 0.72282 0.0
C877 C 0.35943 0.58894 0.66464 0.0
C878 C 0.4007 0.62296 0.76113 0.0
H879 H 0.48352 0.64759 0.59475 0.0
H880 H 0.4507 0.62934 0.6039 0.0
H881 H 0.42746 0.63878 0.80323 0.0
H882 H 0.33528 0.60371 0.80322 0.0
H883 H 0.36791 0.62163 0.7891 0.0
H884 H 0.39021 0.61231 0.58288 0.0
C885 C 0.45762 0.64175 0.63457 0.0
C886 C 0.41948 0.63317 0.75461 0.0
C887 C 0.47646 0.65218 0.62962 0.0
C888 C 0.34183 0.59932 0.76466 0.0
C889 C 0.36057 0.60958 0.75664 0.0
C890 C 0.39817 0.61783 0.63159 0.0
C891 C 0.44788 0.64707 0.67983 0.0
C892 C 0.42787 0.63588 0.68653 0.0
C893 C 0.36968 0.60448 0.70687 0.0
C894 C 0.38975 0.61521 0.69969 0.0
H895 H 0.48304 0.68592 0.74547 0.0
H896 H 0.45037 0.66782 0.75384 0.0
H897 H 0.42298 0.62998 0.57176 0.0
H898 H 0.33326 0.56669 0.63999 0.0
H899 H 0.36594 0.58441 0.62656 0.0
C900 C 0.04827 0.198 0.77358 0.0
C901 C 0.03107 0.18708 0.80293 0.0
C902 C 0.05045 0.20076 0.6988 0.0
C903 C 0.05081 0.19378 0.53621 0.0
H904 H 1.02047 0.20789 0.43204 0.0
C905 C 0.04707 0.19458 0.22441 0.0
C906 C 0.04913 0.21046 0.19366 0.0
C907 C 0.04478 0.19178 0.29909 0.0
C908 C 0.02904 0.204 0.46063 0.0
H909 H 1.00269 0.17012 0.77917 0.0
H910 H 1.00641 0.17511 0.64762 0.0
H911 H 1.01665 0.20269 0.56315 0.0
H912 H 0.0501 0.23572 0.21565 0.0
H913 H 0.04579 0.23069 0.34683 0.0
H914 H 0.06311 0.19494 0.43369 0.0
C915 C 1.01818 0.18163 0.68231 0.0
C916 C 1.02678 0.20092 0.53526 0.0
C917 C 1.01606 0.1787 0.75706 0.0
C918 C 0.0486 0.2234 0.23839 0.0
C919 C 0.04605 0.22049 0.31309 0.0
C920 C 0.0529 0.19662 0.46147 0.0
C921 C 0.0354 0.1927 0.65263 0.0
C922 C 0.03768 0.19583 0.57363 0.0
C923 C 0.04427 0.20471 0.34403 0.0
C924 C 0.04206 0.20178 0.42313 0.0
H925 H 0.06003 0.2042 0.80831 0.0
H926 H 0.06386 0.20934 0.67713 0.0
H927 H 0.05931 0.18977 0.56466 0.0
H928 H 0.04748 0.18442 0.1909 0.0
H929 H 0.04329 0.17945 0.3217 0.0
C930 C 0.87594 0.87222 0.78611 0.0
C931 C 0.88407 0.86285 0.8146 0.0
C932 C 0.87366 0.87271 0.71153 0.0
C933 C 0.87119 0.8488 0.54321 0.0
H934 H 0.88096 0.89351 0.45139 0.0
C935 C 0.87328 0.85685 0.2346 0.0
C936 C 0.86403 0.86505 0.20553 0.0
C937 C 0.87613 0.85717 0.30899 0.0
C938 C 0.87803 0.88091 0.47651 0.0
H939 H 0.8963 0.84674 0.78853 0.0
H940 H 0.89254 0.84777 0.6575 0.0
H941 H 0.88527 0.89278 0.582 0.0
H942 H 0.85084 0.88034 0.23024 0.0
H943 H 0.85574 0.88082 0.36132 0.0
H944 H 0.86401 0.83695 0.43777 0.0
C945 C 0.88769 0.85451 0.69286 0.0
C946 C 0.88048 0.88048 0.5511 0.0
C947 C 0.88993 0.85399 0.76761 0.0
C948 C 0.85797 0.8739 0.25169 0.0
C949 C 0.86085 0.87424 0.32636 0.0
C950 C 0.86878 0.84925 0.46869 0.0
C951 C 0.87954 0.86389 0.66418 0.0
C952 C 0.87709 0.86441 0.5851 0.0
C953 C 0.86978 0.8657 0.35562 0.0
C954 C 0.87221 0.86531 0.43469 0.0
H955 H 0.87135 0.8792 0.82141 0.0
H956 H 0.86711 0.87982 0.69102 0.0
H957 H 0.86818 0.83616 0.56817 0.0
H958 H 0.8782 0.85005 0.19997 0.0
H959 H 0.88331 0.85075 0.33006 0.0
C960 C 0.21891 0.05826 0.75805 0.0
C961 C 0.21026 0.04353 0.8052 0.0
C962 C 0.21805 0.0555 0.68329 0.0
C963 C 0.19146 0.02226 0.54276 0.0
H964 H 0.23458 0.04944 0.4266 0.0
C965 C 0.19759 1.00623 0.24295 0.0
C966 C 0.20634 0.02113 0.19663 0.0
C967 C 0.19717 1.00881 0.31753 0.0
C968 C 0.2224 0.04189 0.45833 0.0
H969 H 0.194 1.01444 0.81233 0.0
H970 H 0.19284 1.00959 0.68185 0.0
H971 H 0.23591 0.05442 0.55704 0.0
H972 H 0.22092 0.05031 0.19047 0.0
H973 H 0.22009 0.05478 0.32038 0.0
H974 H 0.17803 1.00962 0.44375 0.0
C975 C 0.20002 0.02325 0.70229 0.0
C976 C 0.22315 0.04476 0.53285 0.0
C977 C 0.20082 0.02602 0.77689 0.0
C978 C 0.21423 0.03859 0.22528 0.0
C979 C 0.21383 0.04116 0.29953 0.0
C980 C 0.19073 0.01935 0.46814 0.0
C981 C 0.20858 0.03796 0.65479 0.0
C982 C 0.2077 0.03499 0.57574 0.0
C983 C 0.20553 0.02631 0.3464 0.0
C984 C 0.20618 0.02919 0.42536 0.0
H985 H 0.2262 0.07188 0.77887 0.0
H986 H 0.2246 0.06709 0.64778 0.0
H987 H 0.17929 1.01471 0.57451 0.0
H988 H 0.19137 0.99265 0.22178 0.0
H989 H 0.19076 0.99715 0.35275 0.0
C990 C 0.7324 0.54718 0.5779 0.0
C991 C 0.71747 0.54133 0.53188 0.0
C992 C 0.72987 0.54423 0.65257 0.0
C993 C 0.69708 0.53663 0.79521 0.0
H994 H 0.72371 0.51953 0.90805 0.0
C995 C 0.68055 0.51568 0.09421 0.0
C996 C 0.69528 0.52131 0.14112 0.0
C997 C 0.6833 0.51782 0.01943 0.0
C998 C 0.71632 0.52449 0.87729 0.0
H999 H 0.68825 0.52744 0.52657 0.0
H1000 H 0.68384 0.52221 0.6566 0.0
H1001 H 0.72875 0.52387 0.77741 0.0
H1002 H 0.72435 0.53344 0.14769 0.0
H1003 H 0.7292 0.53756 0.01725 0.0
H1004 H 0.68473 0.5374 0.89482 0.0
C1005 C 0.69747 0.52929 0.63544 0.0
C1006 C 0.7192 0.52695 0.80268 0.0
C1007 C 0.7 0.5322 0.56107 0.0
C1008 C 0.71277 0.52907 0.11247 0.0
C1009 C 0.71553 0.53127 0.03786 0.0
C1010 C 0.69423 0.53421 0.86973 0.0
C1011 C 0.71237 0.53544 0.68195 0.0
C1012 C 0.70956 0.53299 0.76102 0.0
C1013 C 0.70082 0.52565 -0.00941 0.0
C1014 C 0.70379 0.52809 0.91148 0.0
H1015 H 0.74599 0.55421 0.55637 0.0
H1016 H 0.74158 0.54918 0.68744 0.0
H1017 H 0.68967 0.54157 0.76442 0.0
H1018 H 0.66693 0.50958 0.11523 0.0
H1019 H 0.67169 0.51317 -0.01584 0.0
C1020 C 0.52451 0.207 0.58263 0.0
C1021 C 0.53068 0.19826 0.5364 0.0
C1022 C 0.52741 0.20735 0.65729 0.0
C1023 C 0.53555 0.18243 0.79921 0.0
H1024 H 0.55162 0.22578 0.91328 0.0
C1025 C 0.55648 0.18703 0.09838 0.0
C1026 C 0.55046 0.19574 0.1454 0.0
C1027 C 0.5543 0.1876 0.02362 0.0
C1028 C 0.54695 0.21353 0.88216 0.0
H1029 H 0.54509 0.1835 0.53067 0.0
H1030 H 0.55024 0.18422 0.6607 0.0
H1031 H 0.54738 0.22662 0.78265 0.0
H1032 H 0.53747 0.21184 0.15225 0.0
H1033 H 0.53334 0.21255 0.02185 0.0
H1034 H 0.53499 0.16929 0.89849 0.0
C1035 C 0.54295 0.19054 0.63972 0.0
C1036 C 0.54454 0.21402 0.80757 0.0
C1037 C 0.54008 0.19021 0.56536 0.0
C1038 C 0.5422 0.20499 0.11693 0.0
C1039 C 0.53997 0.20552 0.04235 0.0
C1040 C 0.53792 0.18192 0.87373 0.0
C1041 C 0.53648 0.19893 0.68644 0.0
C1042 C 0.53887 0.19848 0.76549 0.0
C1043 C 0.54604 0.19687 -0.00504 0.0
C1044 C 0.54366 0.19747 0.91589 0.0
H1045 H 0.51726 0.21333 0.56126 0.0
H1046 H 0.5222 0.21382 0.69233 0.0
H1047 H 0.53089 0.17018 0.76808 0.0
H1048 H 0.56296 0.17987 0.11929 0.0
H1049 H 0.55929 0.18098 -0.01178 0.0
C1050 C 0.86276 0.33846 0.57549 0.0
C1051 C 0.87227 0.35354 0.53066 0.0
C1052 C 0.86167 0.34069 0.64993 0.0
C1053 C 0.86747 0.37418 0.78853 0.0
H1054 H 0.87764 0.34439 0.91605 0.0
C1055 C 0.88476 0.39045 0.09105 0.0
C1056 C 0.87635 0.37587 0.1391 0.0
C1057 C 0.88343 0.38744 0.01633 0.0
C1058 C 0.87458 0.35267 0.88112 0.0
H1059 H 0.88768 0.38271 0.52706 0.0
H1060 H 0.88595 0.38661 0.65698 0.0
H1061 H 0.8758 0.33922 0.7856 0.0
H1062 H 0.85994 0.34682 0.14777 0.0
H1063 H 0.85764 0.34157 0.01749 0.0
H1064 H 0.86648 0.38777 0.88421 0.0
C1065 C 0.87919 0.3731 0.63491 0.0
C1066 C 0.87347 0.34968 0.80657 0.0
C1067 C 0.88029 0.37086 0.56069 0.0
C1068 C 0.86668 0.35828 0.11171 0.0
C1069 C 0.86539 0.35527 0.03724 0.0
C1070 C 0.8686 0.37719 0.86313 0.0
C1071 C 0.87004 0.35803 0.68034 0.0
C1072 C 0.87003 0.36049 0.75957 0.0
C1073 C 0.87372 0.36981 -0.01112 0.0
C1074 C 0.87228 0.36653 0.90999 0.0
H1075 H 0.85637 0.32497 0.55323 0.0
H1076 H 0.85435 0.32886 0.68372 0.0
H1077 H 0.86458 0.38256 0.75349 0.0
H1078 H 0.89229 0.40413 0.11115 0.0
H1079 H 0.89014 0.39886 0.98008 0.0
C1080 C 0.38093 0.8637 0.44095 0.0
C1081 C 0.36363 0.85363 0.47056 0.0
C1082 C 0.38315 0.86649 0.3662 0.0
C1083 C 0.38303 0.85976 0.20348 0.0
H1084 H 0.35404 0.8757 0.10027 0.0
C1085 C 0.37948 0.86101 0.89185 0.0
C1086 C 0.38188 0.87703 0.86112 0.0
C1087 C 0.37718 0.85824 0.96653 0.0
C1088 C 0.36225 0.87131 0.12857 0.0
H1089 H 0.33508 0.83823 0.44733 0.0
H1090 H 0.33886 0.84324 0.31583 0.0
H1091 H 0.35019 0.87054 0.23133 0.0
H1092 H 0.38348 0.90258 0.88323 0.0
H1093 H 0.37921 0.89762 0.01442 0.0
H1094 H 0.39502 0.86043 0.10077 0.0
C1095 C 0.3507 0.84909 0.35026 0.0
C1096 C 0.35996 0.86823 0.2032 0.0
C1097 C 0.34853 0.84614 0.425 0.0
C1098 C 0.38171 0.89015 0.90593 0.0
C1099 C 0.37918 0.88728 0.98065 0.0
C1100 C 0.38516 0.86261 0.12876 0.0
C1101 C 0.36803 0.85932 0.32028 0.0
C1102 C 0.37036 0.86247 0.24126 0.0
C1103 C 0.37703 0.87135 0.01157 0.0
C1104 C 0.3748 0.86843 0.09072 0.0
H1105 H 0.39273 0.86923 0.47548 0.0
H1106 H 0.39664 0.87444 0.34437 0.0
H1107 H 0.39114 0.85521 0.23161 0.0
H1108 H 0.37962 0.85072 0.8583 0.0
H1109 H 0.37539 0.84578 -0.01093 0.0
C1110 C 0.19214 0.54215 0.91249 0.0
C1111 C 0.19808 0.53299 0.86752 0.0
C1112 C 0.19545 0.54324 -0.01305 0.0
C1113 C 0.22389 0.53838 0.12506 0.0
H1114 H 0.18396 0.52779 0.2538 0.0
C1115 C 0.22401 0.52221 0.42834 0.0
C1116 C 0.21764 0.53045 0.47623 0.0
C1117 C 0.22212 0.5233 0.35361 0.0
C1118 C 0.19528 0.53097 0.21852 0.0
H1119 H 0.21242 0.51815 0.86378 0.0
H1120 H 0.21802 0.51986 -0.00625 0.0
H1121 H 0.18022 0.52913 0.12333 0.0
H1122 H 0.2044 0.5463 0.48458 0.0
H1123 H 0.2011 0.54819 0.35421 0.0
H1124 H 0.23887 0.53999 0.2204 0.0
C1125 C 0.211 0.52636 0.97176 0.0
C1126 C 0.19316 0.53179 0.14395 0.0
C1127 C 0.20768 0.52527 0.8975 0.0
C1128 C 0.20931 0.53973 0.44864 0.0
C1129 C 0.20738 0.54077 0.37414 0.0
C1130 C 0.226 0.53753 0.19967 0.0
C1131 C 0.20477 0.53521 0.01729 0.0
C1132 C 0.20741 0.53538 0.0965 0.0
C1133 C 0.21379 0.53259 0.32593 0.0
C1134 C 0.21168 0.53372 0.24699 0.0
H1135 H 0.18481 0.54831 0.89029 0.0
H1136 H 0.1907 0.55033 0.02079 0.0
H1137 H 0.23516 0.54141 0.0897 0.0
H1138 H 0.23047 0.51498 0.44858 0.0
H1139 H 0.227 0.51671 0.31752 0.0
C1140 C 0.55275 0.72608 0.42157 0.0
C1141 C 0.54397 0.71137 0.46873 0.0
C1142 C 0.55198 0.72331 0.34682 0.0
C1143 C 0.52555 0.69008 0.20585 0.0
H1144 H 0.56889 0.71718 0.09084 0.0
C1145 C 0.53196 0.67412 0.90616 0.0
C1146 C 0.54077 0.68904 0.85994 0.0
C1147 C 0.53153 0.67666 0.98078 0.0
C1148 C 0.55664 0.70965 0.12224 0.0
H1149 H 0.52751 0.6823 0.47584 0.0
H1150 H 0.52652 0.67741 0.34541 0.0
H1151 H 0.56999 0.72215 0.22125 0.0
H1152 H 0.55548 0.71821 0.85411 0.0
H1153 H 0.55464 0.72263 -0.01592 0.0
H1154 H 0.51227 0.67747 0.10654 0.0
C1155 C 0.53374 0.69108 0.36582 0.0
C1156 C 0.55727 0.71251 0.19676 0.0
C1157 C 0.53445 0.69387 0.4404 0.0
C1158 C 0.54874 0.70648 0.88881 0.0
C1159 C 0.54833 0.70902 0.96311 0.0
C1160 C 0.52494 0.68717 0.13124 0.0
C1161 C 0.54246 0.70577 0.31831 0.0
C1162 C 0.54173 0.70278 0.23924 0.0
C1163 C 0.53994 0.69414 0.00984 0.0
C1164 C 0.54048 0.69698 0.08885 0.0
H1165 H 0.5601 0.73971 0.44238 0.0
H1166 H 0.55865 0.73489 0.31133 0.0
H1167 H 0.5133 0.68255 0.23724 0.0
H1168 H 0.52568 0.66054 0.88484 0.0
H1169 H 0.52504 0.66498 0.01587 0.0
loop_
_geom_bond_atom_site_label_1
_geom_bond_atom_site_label_2
_geom_bond_distance
_geom_bond_site_symmetry_2
_ccdc_geom_bond_type
Ho0 C3 2.811 1_554 S
Ho0 O20 2.322 . S
Ho0 O22 2.378 . S
Ho0 O23 2.524 1_554 S
Ho0 O24 2.381 . S
Ho0 O25 2.669 . S
Ho0 O27 2.346 . S
Ho0 O31 2.305 1_554 S
Ho1 C12 2.812 . S
Ho1 O21 2.346 . S
Ho1 O25 2.311 1_655 S
Ho1 O26 2.320 1_654 S
Ho1 O28 2.376 1_554 S
Ho1 O29 2.528 . S
Ho1 O30 2.372 1_554 S
Ho1 O31 2.665 1_654 S
C2 O20 1.259 1_655 S
C2 O21 1.268 . S
C3 Ho0 2.811 1_556 S
C3 C4 1.488 . S
C3 O22 1.215 1_556 S
C3 O23 1.289 . S
C4 C3 1.488 . S
C4 C5 1.348 . S
C4 C9 1.413 1_556 S
C5 C4 1.348 . S
C5 C6 1.442 . S
C5 H32 0.930 . S
C6 C5 1.442 . S
C6 C7 1.381 . S
C6 H33 0.931 . S
C7 C6 1.381 . S
C7 C8 1.321 1_556 S
C8 C7 1.321 1_554 S
C8 C9 1.403 . S
C8 H34 0.934 . S
C9 C4 1.413 1_554 S
C9 C8 1.403 . S
C9 H35 0.930 . S
C10 O24 1.275 . S
C10 O25 1.256 . S
C11 O26 1.259 . S
C11 O27 1.268 1_556 S
C12 Ho1 2.812 . S
C12 C13 1.488 . S
C12 O28 1.215 1_554 S
C12 O29 1.289 . S
C13 C12 1.488 . S
C13 C14 1.348 . S
C13 C18 1.413 1_554 S
C14 C13 1.348 . S
C14 C15 1.442 . S
C14 H36 0.930 . S
C15 C14 1.442 . S
C15 C16 1.381 . S
C15 H37 0.931 . S
C16 C15 1.381 . S
C16 C17 1.321 1_554 S
C17 C16 1.321 1_556 S
C17 C18 1.403 . S
C17 H38 0.934 . S
C18 C13 1.413 1_556 S
C18 C17 1.403 . S
C18 H39 0.930 . S
C19 O30 1.275 1_455 S
C19 O31 1.256 . S
O20 Ho0 2.322 . S
O20 C2 1.259 1_455 S
O21 Ho1 2.346 . S
O21 C2 1.268 . S
O22 Ho0 2.378 . S
O22 C3 1.215 1_554 S
O23 Ho0 2.524 1_556 S
O23 C3 1.289 . S
O24 Ho0 2.381 . S
O24 C10 1.275 . S
O25 Ho0 2.669 . S
O25 Ho1 2.311 1_455 S
O25 C10 1.256 . S
O26 Ho1 2.320 1_456 S
O26 C11 1.259 . S
O27 Ho0 2.346 . S
O27 C11 1.268 1_554 S
O28 Ho1 2.376 1_556 S
O28 C12 1.215 1_556 S
O29 Ho1 2.528 . S
O29 C12 1.289 . S
O30 Ho1 2.372 1_556 S
O30 C19 1.275 1_655 S
O31 Ho0 2.305 1_556 S
O31 Ho1 2.665 1_456 S
O31 C19 1.256 . S
H32 C5 0.930 . S
H33 C6 0.931 . S
H34 C8 0.934 . S
H35 C9 0.930 . S
H36 C14 0.930 . S
H37 C15 0.931 . S
H38 C17 0.934 . S
H39 C18 0.930 . S
Ho40 C43 2.811 1_554 S
Ho40 O60 2.322 . S
Ho40 O62 2.378 . S
Ho40 O63 2.524 1_554 S
Ho40 O64 2.381 . S
Ho40 O65 2.669 . S
Ho40 O67 2.346 . S
Ho40 O71 2.305 1_554 S
Ho41 C52 2.812 . S
Ho41 O61 2.346 . S
Ho41 O65 2.311 . S
Ho41 O66 2.320 1_554 S
Ho41 O68 2.376 1_554 S
Ho41 O69 2.528 . S
Ho41 O70 2.372 1_554 S
Ho41 O71 2.665 1_554 S
C42 O60 1.259 . S
C42 O61 1.268 . S
C43 Ho40 2.811 1_556 S
C43 C44 1.488 . S
C43 O62 1.215 1_556 S
C43 O63 1.289 . S
C44 C43 1.488 . S
C44 C45 1.348 . S
C44 C49 1.413 1_556 S
C45 C44 1.348 . S
C45 C46 1.442 . S
C45 H72 0.930 . S
C46 C45 1.442 . S
C46 C47 1.381 . S
C46 H73 0.931 . S
C47 C46 1.381 . S
C47 C48 1.321 1_556 S
C48 C47 1.321 1_554 S
C48 C49 1.403 . S
C48 H74 0.934 . S
C49 C44 1.413 1_554 S
C49 C48 1.403 . S
C49 H75 0.930 . S
C50 O64 1.275 . S
C50 O65 1.256 . S
C51 O66 1.259 . S
C51 O67 1.268 1_556 S
C52 Ho41 2.812 . S
C52 C53 1.488 . S
C52 O68 1.215 1_554 S
C52 O69 1.289 . S
C53 C52 1.488 . S
C53 C54 1.348 . S
C53 C58 1.413 1_554 S
C54 C53 1.348 . S
C54 C55 1.442 . S
C54 H76 0.930 . S
C55 C54 1.442 . S
C55 C56 1.381 . S
C55 H77 0.931 . S
C56 C55 1.381 . S
C56 C57 1.321 1_554 S
C57 C56 1.321 1_556 S
C57 C58 1.403 . S
C57 H78 0.934 . S
C58 C53 1.413 1_556 S
C58 C57 1.403 . S
C58 H79 0.930 . S
C59 O70 1.275 . S
C59 O71 1.256 . S
O60 Ho40 2.322 . S
O60 C42 1.259 . S
O61 Ho41 2.346 . S
O61 C42 1.268 . S
O62 Ho40 2.378 . S
O62 C43 1.215 1_554 S
O63 Ho40 2.524 1_556 S
O63 C43 1.289 . S
O64 Ho40 2.381 . S
O64 C50 1.275 . S
O65 Ho40 2.669 . S
O65 Ho41 2.311 . S
O65 C50 1.256 . S
O66 Ho41 2.320 1_556 S
O66 C51 1.259 . S
O67 Ho40 2.346 . S
O67 C51 1.268 1_554 S
O68 Ho41 2.376 1_556 S
O68 C52 1.215 1_556 S
O69 Ho41 2.528 . S
O69 C52 1.289 . S
O70 Ho41 2.372 1_556 S
O70 C59 1.275 . S
O71 Ho40 2.305 1_556 S
O71 Ho41 2.665 1_556 S
O71 C59 1.256 . S
H72 C45 0.930 . S
H73 C46 0.931 . S
H74 C48 0.934 . S
H75 C49 0.930 . S
H76 C54 0.930 . S
H77 C55 0.931 . S
H78 C57 0.934 . S
H79 C58 0.930 . S
Ho80 C83 2.811 1_554 S
Ho80 O100 2.322 1_565 S
Ho80 O102 2.378 . S
Ho80 O103 2.524 1_554 S
Ho80 O104 2.381 . S
Ho80 O105 2.669 1_565 S
Ho80 O107 2.346 . S
Ho80 O111 2.305 1_564 S
Ho81 C92 2.812 . S
Ho81 O101 2.346 . S
Ho81 O105 2.310 . S
Ho81 O106 2.320 1_554 S
Ho81 O108 2.376 1_554 S
Ho81 O109 2.528 . S
Ho81 O110 2.372 1_554 S
Ho81 O111 2.665 1_554 S
C82 O100 1.259 . S
C82 O101 1.268 . S
C83 Ho80 2.811 1_556 S
C83 C84 1.488 . S
C83 O102 1.215 1_556 S
C83 O103 1.289 . S
C84 C83 1.488 . S
C84 C85 1.348 . S
C84 C89 1.413 1_556 S
C85 C84 1.348 . S
C85 C86 1.442 . S
C85 H112 0.930 . S
C86 C85 1.442 . S
C86 C87 1.381 . S
C86 H113 0.931 . S
C87 C86 1.381 . S
C87 C88 1.321 1_556 S
C88 C87 1.321 1_554 S
C88 C89 1.403 . S
C88 H114 0.934 . S
C89 C84 1.413 1_554 S
C89 C88 1.403 . S
C89 H115 0.930 . S
C90 O104 1.275 1_545 S
C90 O105 1.256 . S
C91 O106 1.259 1_565 S
C91 O107 1.268 1_556 S
C92 Ho81 2.812 . S
C92 C93 1.488 . S
C92 O108 1.215 1_554 S
C92 O109 1.289 . S
C93 C92 1.488 . S
C93 C94 1.348 . S
C93 C98 1.413 1_554 S
C94 C93 1.348 . S
C94 C95 1.442 . S
C94 H116 0.930 . S
C95 C94 1.442 . S
C95 C96 1.381 . S
C95 H117 0.931 . S
C96 C95 1.381 . S
C96 C97 1.321 1_554 S
C97 C96 1.321 1_556 S
C97 C98 1.403 . S
C97 H118 0.934 . S
C98 C93 1.413 1_556 S
C98 C97 1.403 . S
C98 H119 0.930 . S
C99 O110 1.275 . S
C99 O111 1.256 . S
O100 Ho80 2.322 1_545 S
O100 C82 1.259 . S
O101 Ho81 2.346 . S
O101 C82 1.268 . S
O102 Ho80 2.378 . S
O102 C83 1.215 1_554 S
O103 Ho80 2.524 1_556 S
O103 C83 1.289 . S
O104 Ho80 2.381 . S
O104 C90 1.275 1_565 S
O105 Ho80 2.669 1_545 S
O105 Ho81 2.310 . S
O105 C90 1.256 . S
O106 Ho81 2.320 1_556 S
O106 C91 1.259 1_545 S
O107 Ho80 2.346 . S
O107 C91 1.268 1_554 S
O108 Ho81 2.376 1_556 S
O108 C92 1.215 1_556 S
O109 Ho81 2.528 . S
O109 C92 1.289 . S
O110 Ho81 2.372 1_556 S
O110 C99 1.275 . S
O111 Ho80 2.305 1_546 S
O111 Ho81 2.665 1_556 S
O111 C99 1.256 . S
H112 C85 0.930 . S
H113 C86 0.931 . S
H114 C88 0.934 . S
H115 C89 0.930 . S
H116 C94 0.930 . S
H117 C95 0.931 . S
H118 C97 0.934 . S
H119 C98 0.930 . S
Ho120 C123 2.811 . S
Ho120 O140 2.322 . S
Ho120 O142 2.378 . S
Ho120 O143 2.524 . S
Ho120 O144 2.381 . S
Ho120 O145 2.669 . S
Ho120 O147 2.346 . S
Ho120 O151 2.305 . S
Ho121 C132 2.811 . S
Ho121 O141 2.346 . S
Ho121 O145 2.305 . S
Ho121 O146 2.322 . S
Ho121 O148 2.378 . S
Ho121 O149 2.524 . S
Ho121 O150 2.381 . S
Ho121 O151 2.669 . S
C122 O140 1.259 . S
C122 O141 1.268 . S
C123 Ho120 2.811 . S
C123 C124 1.488 . S
C123 O142 1.215 . S
C123 O143 1.289 . S
C124 C123 1.488 . S
C124 C125 1.348 . S
C124 C129 1.413 . S
C125 C124 1.348 . S
C125 C126 1.442 . S
C125 H152 0.930 . S
C126 C125 1.442 . S
C126 C127 1.381 . S
C126 H153 0.931 . S
C127 C126 1.381 . S
C127 C128 1.321 . S
C128 C127 1.321 . S
C128 C129 1.403 . S
C128 H154 0.934 . S
C129 C124 1.413 . S
C129 C128 1.403 . S
C129 H155 0.930 . S
C130 O144 1.275 . S
C130 O145 1.256 . S
C131 O146 1.259 . S
C131 O147 1.268 . S
C132 Ho121 2.811 . S
C132 C133 1.488 . S
C132 O148 1.215 . S
C132 O149 1.289 . S
C133 C132 1.488 . S
C133 C134 1.348 . S
C133 C138 1.413 . S
C134 C133 1.348 . S
C134 C135 1.442 . S
C134 H156 0.930 . S
C135 C134 1.442 . S
C135 C136 1.381 . S
C135 H157 0.931 . S
C136 C135 1.381 . S
C136 C137 1.321 . S
C137 C136 1.321 . S
C137 C138 1.403 . S
C137 H158 0.934 . S
C138 C133 1.413 . S
C138 C137 1.403 . S
C138 H159 0.930 . S
C139 O150 1.275 . S
C139 O151 1.256 . S
O140 Ho120 2.322 . S
O140 C122 1.259 . S
O141 Ho121 2.346 . S
O141 C122 1.268 . S
O142 Ho120 2.378 . S
O142 C123 1.215 . S
O143 Ho120 2.524 . S
O143 C123 1.289 . S
O144 Ho120 2.381 . S
O144 C130 1.275 . S
O145 Ho120 2.669 . S
O145 Ho121 2.305 . S
O145 C130 1.256 . S
O146 Ho121 2.322 . S
O146 C131 1.259 . S
O147 Ho120 2.346 . S
O147 C131 1.268 . S
O148 Ho121 2.378 . S
O148 C132 1.215 . S
O149 Ho121 2.524 . S
O149 C132 1.289 . S
O150 Ho121 2.381 . S
O150 C139 1.275 . S
O151 Ho120 2.305 . S
O151 Ho121 2.669 . S
O151 C139 1.256 . S
H152 C125 0.930 . S
H153 C126 0.931 . S
H154 C128 0.934 . S
H155 C129 0.930 . S
H156 C134 0.930 . S
H157 C135 0.931 . S
H158 C137 0.934 . S
H159 C138 0.930 . S
Ho160 C163 2.811 . S
Ho160 O180 2.322 . S
Ho160 O182 2.378 . S
Ho160 O183 2.524 . S
Ho160 O184 2.381 . S
Ho160 O185 2.669 . S
Ho160 O187 2.346 . S
Ho160 O191 2.305 . S
Ho161 C172 2.811 . S
Ho161 O181 2.346 . S
Ho161 O185 2.305 . S
Ho161 O186 2.322 . S
Ho161 O188 2.378 . S
Ho161 O189 2.524 . S
Ho161 O190 2.381 . S
Ho161 O191 2.669 . S
C162 O180 1.259 . S
C162 O181 1.268 . S
C163 Ho160 2.811 . S
C163 C164 1.488 . S
C163 O182 1.215 . S
C163 O183 1.289 . S
C164 C163 1.488 . S
C164 C165 1.348 . S
C164 C169 1.413 . S
C165 C164 1.348 . S
C165 C166 1.442 . S
C165 H192 0.930 . S
C166 C165 1.442 . S
C166 C167 1.381 . S
C166 H193 0.931 . S
C167 C166 1.381 . S
C167 C168 1.321 . S
C168 C167 1.321 . S
C168 C169 1.403 . S
C168 H194 0.934 . S
C169 C164 1.413 . S
C169 C168 1.403 . S
C169 H195 0.930 . S
C170 O184 1.275 . S
C170 O185 1.256 . S
C171 O186 1.259 . S
C171 O187 1.268 . S
C172 Ho161 2.811 . S
C172 C173 1.488 . S
C172 O188 1.215 . S
C172 O189 1.289 . S
C173 C172 1.488 . S
C173 C174 1.348 . S
C173 C178 1.413 . S
C174 C173 1.348 . S
C174 C175 1.442 . S
C174 H196 0.930 . S
C175 C174 1.442 . S
C175 C176 1.381 . S
C175 H197 0.931 . S
C176 C175 1.381 . S
C176 C177 1.321 . S
C177 C176 1.321 . S
C177 C178 1.403 . S
C177 H198 0.934 . S
C178 C173 1.413 . S
C178 C177 1.403 . S
C178 H199 0.930 . S
C179 O190 1.275 . S
C179 O191 1.256 . S
O180 Ho160 2.322 . S
O180 C162 1.259 . S
O181 Ho161 2.346 . S
O181 C162 1.268 . S
O182 Ho160 2.378 . S
O182 C163 1.215 . S
O183 Ho160 2.524 . S
O183 C163 1.289 . S
O184 Ho160 2.381 . S
O184 C170 1.275 . S
O185 Ho160 2.669 . S
O185 Ho161 2.305 . S
O185 C170 1.256 . S
O186 Ho161 2.322 . S
O186 C171 1.259 . S
O187 Ho160 2.346 . S
O187 C171 1.268 . S
O188 Ho161 2.378 . S
O188 C172 1.215 . S
O189 Ho161 2.524 . S
O189 C172 1.289 . S
O190 Ho161 2.381 . S
O190 C179 1.275 . S
O191 Ho160 2.305 . S
O191 Ho161 2.669 . S
O191 C179 1.256 . S
H192 C165 0.930 . S
H193 C166 0.931 . S
H194 C168 0.934 . S
H195 C169 0.930 . S
H196 C174 0.930 . S
H197 C175 0.931 . S
H198 C177 0.934 . S
H199 C178 0.930 . S
Ho200 C203 2.811 . S
Ho200 O220 2.322 . S
Ho200 O222 2.378 . S
Ho200 O223 2.524 . S
Ho200 O224 2.381 . S
Ho200 O225 2.669 . S
Ho200 O227 2.346 . S
Ho200 O231 2.305 . S
Ho201 C212 2.811 . S
Ho201 O221 2.346 . S
Ho201 O225 2.305 . S
Ho201 O226 2.322 . S
Ho201 O228 2.378 . S
Ho201 O229 2.524 . S
Ho201 O230 2.381 . S
Ho201 O231 2.669 . S
C202 O220 1.259 . S
C202 O221 1.268 . S
C203 Ho200 2.811 . S
C203 C204 1.488 . S
C203 O222 1.215 . S
C203 O223 1.289 . S
C204 C203 1.488 . S
C204 C205 1.348 . S
C204 C209 1.413 . S
C205 C204 1.348 . S
C205 C206 1.442 . S
C205 H232 0.930 . S
C206 C205 1.442 . S
C206 C207 1.381 . S
C206 H233 0.931 . S
C207 C206 1.381 . S
C207 C208 1.321 . S
C208 C207 1.321 . S
C208 C209 1.403 . S
C208 H234 0.934 . S
C209 C204 1.413 . S
C209 C208 1.403 . S
C209 H235 0.930 . S
C210 O224 1.275 . S
C210 O225 1.256 . S
C211 O226 1.259 . S
C211 O227 1.268 . S
C212 Ho201 2.811 . S
C212 C213 1.488 . S
C212 O228 1.215 . S
C212 O229 1.289 . S
C213 C212 1.488 . S
C213 C214 1.348 . S
C213 C218 1.413 . S
C214 C213 1.348 . S
C214 C215 1.442 . S
C214 H236 0.930 . S
C215 C214 1.442 . S
C215 C216 1.381 . S
C215 H237 0.931 . S
C216 C215 1.381 . S
C216 C217 1.321 . S
C217 C216 1.321 . S
C217 C218 1.403 . S
C217 H238 0.934 . S
C218 C213 1.413 . S
C218 C217 1.403 . S
C218 H239 0.930 . S
C219 O230 1.275 . S
C219 O231 1.256 . S
O220 Ho200 2.322 . S
O220 C202 1.259 . S
O221 Ho201 2.346 . S
O221 C202 1.268 . S
O222 Ho200 2.378 . S
O222 C203 1.215 . S
O223 Ho200 2.524 . S
O223 C203 1.289 . S
O224 Ho200 2.381 . S
O224 C210 1.275 . S
O225 Ho200 2.669 . S
O225 Ho201 2.305 . S
O225 C210 1.256 . S
O226 Ho201 2.322 . S
O226 C211 1.259 . S
O227 Ho200 2.346 . S
O227 C211 1.268 . S
O228 Ho201 2.378 . S
O228 C212 1.215 . S
O229 Ho201 2.524 . S
O229 C212 1.289 . S
O230 Ho201 2.381 . S
O230 C219 1.275 . S
O231 Ho200 2.305 . S
O231 Ho201 2.669 . S
O231 C219 1.256 . S
H232 C205 0.930 . S
H233 C206 0.931 . S
H234 C208 0.934 . S
H235 C209 0.930 . S
H236 C214 0.930 . S
H237 C215 0.931 . S
H238 C217 0.934 . S
H239 C218 0.930 . S
Ho240 C243 2.811 . S
Ho240 O260 2.322 . S
Ho240 O262 2.378 . S
Ho240 O263 2.524 . S
Ho240 O264 2.381 . S
Ho240 O265 2.669 . S
Ho240 O267 2.346 . S
Ho240 O271 2.305 . S
Ho241 C252 2.811 . S
Ho241 O261 2.346 . S
Ho241 O265 2.305 . S
Ho241 O266 2.322 . S
Ho241 O268 2.378 . S
Ho241 O269 2.524 . S
Ho241 O270 2.381 . S
Ho241 O271 2.669 . S
C242 O260 1.259 . S
C242 O261 1.268 . S
C243 Ho240 2.811 . S
C243 C244 1.488 . S
C243 O262 1.215 . S
C243 O263 1.289 . S
C244 C243 1.488 . S
C244 C245 1.348 . S
C244 C249 1.413 . S
C245 C244 1.348 . S
C245 C246 1.442 . S
C245 H272 0.930 . S
C246 C245 1.442 . S
C246 C247 1.381 . S
C246 H273 0.931 . S
C247 C246 1.381 . S
C247 C248 1.321 . S
C248 C247 1.321 . S
C248 C249 1.403 . S
C248 H274 0.934 . S
C249 C244 1.413 . S
C249 C248 1.403 . S
C249 H275 0.930 . S
C250 O264 1.275 . S
C250 O265 1.256 . S
C251 O266 1.259 . S
C251 O267 1.268 . S
C252 Ho241 2.811 . S
C252 C253 1.488 . S
C252 O268 1.215 . S
C252 O269 1.289 . S
C253 C252 1.488 . S
C253 C254 1.348 . S
C253 C258 1.413 . S
C254 C253 1.348 . S
C254 C255 1.442 . S
C254 H276 0.930 . S
C255 C254 1.442 . S
C255 C256 1.381 . S
C255 H277 0.931 . S
C256 C255 1.381 . S
C256 C257 1.321 . S
C257 C256 1.321 . S
C257 C258 1.403 . S
C257 H278 0.934 . S
C258 C253 1.413 . S
C258 C257 1.403 . S
C258 H279 0.930 . S
C259 O270 1.275 . S
C259 O271 1.256 . S
O260 Ho240 2.322 . S
O260 C242 1.259 . S
O261 Ho241 2.346 . S
O261 C242 1.268 . S
O262 Ho240 2.378 . S
O262 C243 1.215 . S
O263 Ho240 2.524 . S
O263 C243 1.289 . S
O264 Ho240 2.381 . S
O264 C250 1.275 . S
O265 Ho240 2.669 . S
O265 Ho241 2.305 . S
O265 C250 1.256 . S
O266 Ho241 2.322 . S
O266 C251 1.259 . S
O267 Ho240 2.346 . S
O267 C251 1.268 . S
O268 Ho241 2.378 . S
O268 C252 1.215 . S
O269 Ho241 2.524 . S
O269 C252 1.289 . S
O270 Ho241 2.381 . S
O270 C259 1.275 . S
O271 Ho240 2.305 . S
O271 Ho241 2.669 . S
O271 C259 1.256 . S
H272 C245 0.930 . S
H273 C246 0.931 . S
H274 C248 0.934 . S
H275 C249 0.930 . S
H276 C254 0.930 . S
H277 C255 0.931 . S
H278 C257 0.934 . S
H279 C258 0.930 . S
Ho280 C283 2.811 . S
Ho280 O300 2.322 . S
Ho280 O302 2.378 . S
Ho280 O303 2.524 . S
Ho280 O304 2.381 . S
Ho280 O305 2.669 . S
Ho280 O307 2.346 . S
Ho280 O311 2.305 . S
Ho281 C292 2.811 . S
Ho281 O301 2.346 . S
Ho281 O305 2.305 . S
Ho281 O306 2.322 . S
Ho281 O308 2.378 . S
Ho281 O309 2.524 . S
Ho281 O310 2.381 . S
Ho281 O311 2.669 . S
C282 O300 1.259 . S
C282 O301 1.268 . S
C283 Ho280 2.811 . S
C283 C284 1.488 . S
C283 O302 1.215 . S
C283 O303 1.289 . S
C284 C283 1.488 . S
C284 C285 1.348 . S
C284 C289 1.413 . S
C285 C284 1.348 . S
C285 C286 1.442 . S
C285 H312 0.930 . S
C286 C285 1.442 . S
C286 C287 1.381 . S
C286 H313 0.931 . S
C287 C286 1.381 . S
C287 C288 1.321 . S
C288 C287 1.321 . S
C288 C289 1.403 . S
C288 H314 0.934 . S
C289 C284 1.413 . S
C289 C288 1.403 . S
C289 H315 0.930 . S
C290 O304 1.275 . S
C290 O305 1.256 . S
C291 O306 1.259 . S
C291 O307 1.268 . S
C292 Ho281 2.811 . S
C292 C293 1.488 . S
C292 O308 1.215 . S
C292 O309 1.289 . S
C293 C292 1.488 . S
C293 C294 1.348 . S
C293 C298 1.413 . S
C294 C293 1.348 . S
C294 C295 1.442 . S
C294 H316 0.930 . S
C295 C294 1.442 . S
C295 C296 1.381 . S
C295 H317 0.931 . S
C296 C295 1.381 . S
C296 C297 1.321 . S
C297 C296 1.321 . S
C297 C298 1.403 . S
C297 H318 0.934 . S
C298 C293 1.413 . S
C298 C297 1.403 . S
C298 H319 0.930 . S
C299 O310 1.275 . S
C299 O311 1.256 . S
O300 Ho280 2.322 . S
O300 C282 1.259 . S
O301 Ho281 2.346 . S
O301 C282 1.268 . S
O302 Ho280 2.378 . S
O302 C283 1.215 . S
O303 Ho280 2.524 . S
O303 C283 1.289 . S
O304 Ho280 2.381 . S
O304 C290 1.275 . S
O305 Ho280 2.669 . S
O305 Ho281 2.305 . S
O305 C290 1.256 . S
O306 Ho281 2.322 . S
O306 C291 1.259 . S
O307 Ho280 2.346 . S
O307 C291 1.268 . S
O308 Ho281 2.378 . S
O308 C292 1.215 . S
O309 Ho281 2.524 . S
O309 C292 1.289 . S
O310 Ho281 2.381 . S
O310 C299 1.275 . S
O311 Ho280 2.305 . S
O311 Ho281 2.669 . S
O311 C299 1.256 . S
H312 C285 0.930 . S
H313 C286 0.931 . S
H314 C288 0.934 . S
H315 C289 0.930 . S
H316 C294 0.930 . S
H317 C295 0.931 . S
H318 C297 0.934 . S
H319 C298 0.930 . S
Ho320 C323 2.811 . S
Ho320 O340 2.322 . S
Ho320 O342 2.378 . S
Ho320 O343 2.524 . S
Ho320 O344 2.381 . S
Ho320 O345 2.669 . S
Ho320 O347 2.346 . S
Ho320 O351 2.305 . S
Ho321 C332 2.811 . S
Ho321 O341 2.346 . S
Ho321 O345 2.305 . S
Ho321 O346 2.322 . S
Ho321 O348 2.378 . S
Ho321 O349 2.524 . S
Ho321 O350 2.381 . S
Ho321 O351 2.669 . S
C322 O340 1.259 . S
C322 O341 1.268 . S
C323 Ho320 2.811 . S
C323 C324 1.488 . S
C323 O342 1.215 . S
C323 O343 1.289 . S
C324 C323 1.488 . S
C324 C325 1.348 . S
C324 C329 1.413 . S
C325 C324 1.348 . S
C325 C326 1.442 . S
C325 H352 0.930 . S
C326 C325 1.442 . S
C326 C327 1.381 . S
C326 H353 0.931 . S
C327 C326 1.381 . S
C327 C328 1.321 . S
C328 C327 1.321 . S
C328 C329 1.403 . S
C328 H354 0.934 . S
C329 C324 1.413 . S
C329 C328 1.403 . S
C329 H355 0.930 . S
C330 O344 1.275 . S
C330 O345 1.256 . S
C331 O346 1.259 . S
C331 O347 1.268 . S
C332 Ho321 2.811 . S
C332 C333 1.488 . S
C332 O348 1.215 . S
C332 O349 1.289 . S
C333 C332 1.488 . S
C333 C334 1.348 . S
C333 C338 1.413 . S
C334 C333 1.348 . S
C334 C335 1.442 . S
C334 H356 0.930 . S
C335 C334 1.442 . S
C335 C336 1.381 . S
C335 H357 0.931 . S
C336 C335 1.381 . S
C336 C337 1.321 . S
C337 C336 1.321 . S
C337 C338 1.403 . S
C337 H358 0.934 . S
C338 C333 1.413 . S
C338 C337 1.403 . S
C338 H359 0.930 . S
C339 O350 1.275 . S
C339 O351 1.256 . S
O340 Ho320 2.322 . S
O340 C322 1.259 . S
O341 Ho321 2.346 . S
O341 C322 1.268 . S
O342 Ho320 2.378 . S
O342 C323 1.215 . S
O343 Ho320 2.524 . S
O343 C323 1.289 . S
O344 Ho320 2.381 . S
O344 C330 1.275 . S
O345 Ho320 2.669 . S
O345 Ho321 2.305 . S
O345 C330 1.256 . S
O346 Ho321 2.322 . S
O346 C331 1.259 . S
O347 Ho320 2.346 . S
O347 C331 1.268 . S
O348 Ho321 2.378 . S
O348 C332 1.215 . S
O349 Ho321 2.524 . S
O349 C332 1.289 . S
O350 Ho321 2.381 . S
O350 C339 1.275 . S
O351 Ho320 2.305 . S
O351 Ho321 2.669 . S
O351 C339 1.256 . S
H352 C325 0.930 . S
H353 C326 0.931 . S
H354 C328 0.934 . S
H355 C329 0.930 . S
H356 C334 0.930 . S
H357 C335 0.931 . S
H358 C337 0.934 . S
H359 C338 0.930 . S
C360 C361 1.349 . S
C360 C362 1.327 . S
C360 H385 0.950 1_556 S
C361 C360 1.349 . S
C361 C377 1.349 . S
C362 C360 1.327 . S
C362 C381 1.429 . S
C362 H386 0.950 . S
C363 C380 1.574 . S
C363 C382 1.368 . S
C363 H387 0.949 . S
H364 C368 0.949 . S
C365 C366 1.349 . S
C365 C367 1.327 . S
C365 H388 0.950 . S
C366 C365 1.349 . S
C366 C378 1.349 . S
C367 C365 1.327 . S
C367 C383 1.429 . S
C367 H389 0.950 . S
C368 H364 0.949 . S
C368 C376 1.574 . S
C368 C384 1.368 . S
H369 C377 0.950 . S
H370 C375 0.950 . S
H371 C376 0.949 . S
H372 C378 0.950 . S
H373 C379 0.950 . S
H374 C380 0.949 . S
C375 H370 0.950 . S
C375 C377 1.327 . S
C375 C381 1.429 . S
C376 C368 1.574 . S
C376 H371 0.949 . S
C376 C382 1.368 . S
C377 C361 1.349 . S
C377 H369 0.950 . S
C377 C375 1.327 . S
C378 C366 1.349 . S
C378 H372 0.950 . S
C378 C379 1.327 . S
C379 H373 0.950 . S
C379 C378 1.327 . S
C379 C383 1.429 . S
C380 C363 1.574 . S
C380 H374 0.949 . S
C380 C384 1.368 . S
C381 C362 1.429 . S
C381 C375 1.429 . S
C381 C382 1.523 . S
C382 C363 1.368 . S
C382 C376 1.368 . S
C382 C381 1.523 . S
C383 C367 1.429 . S
C383 C379 1.429 . S
C383 C384 1.523 . S
C384 C368 1.368 . S
C384 C380 1.368 . S
C384 C383 1.523 . S
H385 C360 0.950 1_554 S
H386 C362 0.950 . S
H387 C363 0.949 . S
H388 C365 0.950 . S
H389 C367 0.950 . S
C390 C391 1.349 . S
C390 C392 1.327 . S
C390 H415 0.950 . S
C391 C390 1.349 . S
C391 C407 1.349 . S
C392 C390 1.327 . S
C392 C411 1.429 . S
C392 H416 0.950 . S
C393 C410 1.574 . S
C393 C412 1.368 . S
C393 H417 0.949 . S
H394 C398 0.949 . S
C395 C396 1.349 . S
C395 C397 1.327 . S
C395 H418 0.950 . S
C396 C395 1.349 . S
C396 C408 1.349 . S
C397 C395 1.327 . S
C397 C413 1.429 . S
C397 H419 0.950 . S
C398 H394 0.949 . S
C398 C406 1.574 . S
C398 C414 1.368 . S
H399 C407 0.950 1_554 S
H400 C405 0.950 . S
H401 C406 0.949 . S
H402 C408 0.950 . S
H403 C409 0.950 . S
H404 C410 0.949 . S
C405 H400 0.950 . S
C405 C407 1.327 . S
C405 C411 1.429 . S
C406 C398 1.574 . S
C406 H401 0.949 . S
C406 C412 1.368 . S
C407 C391 1.349 . S
C407 H399 0.950 1_556 S
C407 C405 1.327 . S
C408 C396 1.349 . S
C408 H402 0.950 . S
C408 C409 1.327 . S
C409 H403 0.950 . S
C409 C408 1.327 . S
C409 C413 1.429 . S
C410 C393 1.574 . S
C410 H404 0.949 . S
C410 C414 1.368 . S
C411 C392 1.429 . S
C411 C405 1.429 . S
C411 C412 1.523 . S
C412 C393 1.368 . S
C412 C406 1.368 . S
C412 C411 1.523 . S
C413 C397 1.429 . S
C413 C409 1.429 . S
C413 C414 1.523 . S
C414 C398 1.368 . S
C414 C410 1.368 . S
C414 C413 1.523 . S
H415 C390 0.950 . S
H416 C392 0.950 . S
H417 C393 0.949 . S
H418 C395 0.950 . S
H419 C397 0.950 . S
C420 C421 1.349 . S
C420 C422 1.327 . S
C420 H445 0.950 1_556 S
C421 C420 1.349 . S
C421 C437 1.349 . S
C422 C420 1.327 . S
C422 C441 1.429 . S
C422 H446 0.950 . S
C423 C440 1.574 . S
C423 C442 1.368 . S
C423 H447 0.949 . S
H424 C428 0.949 . S
C425 C426 1.349 . S
C425 C427 1.327 . S
C425 H448 0.950 . S
C426 C425 1.349 . S
C426 C438 1.349 . S
C427 C425 1.327 . S
C427 C443 1.429 . S
C427 H449 0.950 . S
C428 H424 0.949 . S
C428 C436 1.574 . S
C428 C444 1.368 . S
H429 C437 0.950 . S
H430 C435 0.950 . S
H431 C436 0.949 . S
H432 C438 0.950 . S
H433 C439 0.950 . S
H434 C440 0.949 . S
C435 H430 0.950 . S
C435 C437 1.327 . S
C435 C441 1.429 . S
C436 C428 1.574 . S
C436 H431 0.949 . S
C436 C442 1.368 . S
C437 C421 1.349 . S
C437 H429 0.950 . S
C437 C435 1.327 . S
C438 C426 1.349 . S
C438 H432 0.950 . S
C438 C439 1.327 . S
C439 H433 0.950 . S
C439 C438 1.327 . S
C439 C443 1.429 . S
C440 C423 1.574 . S
C440 H434 0.949 . S
C440 C444 1.368 . S
C441 C422 1.429 . S
C441 C435 1.429 . S
C441 C442 1.523 . S
C442 C423 1.368 . S
C442 C436 1.368 . S
C442 C441 1.523 . S
C443 C427 1.429 . S
C443 C439 1.429 . S
C443 C444 1.523 . S
C444 C428 1.368 . S
C444 C440 1.368 . S
C444 C443 1.523 . S
H445 C420 0.950 1_554 S
H446 C422 0.950 . S
H447 C423 0.949 . S
H448 C425 0.950 . S
H449 C427 0.950 . S
C450 C451 1.349 . S
C450 C452 1.327 . S
C450 H475 0.950 . S
C451 C450 1.349 . S
C451 C467 1.349 . S
C452 C450 1.327 . S
C452 C471 1.429 . S
C452 H476 0.950 . S
C453 C470 1.574 . S
C453 C472 1.368 . S
C453 H477 0.949 . S
H454 C458 0.949 . S
C455 C456 1.349 . S
C455 C457 1.327 . S
C455 H478 0.950 . S
C456 C455 1.349 . S
C456 C468 1.349 1_554 S
C457 C455 1.327 . S
C457 C473 1.429 . S
C457 H479 0.950 . S
C458 H454 0.949 . S
C458 C466 1.574 . S
C458 C474 1.368 . S
H459 C467 0.950 . S
H460 C465 0.950 . S
H461 C466 0.949 . S
H462 C468 0.950 . S
H463 C469 0.950 1_556 S
H464 C470 0.949 . S
C465 H460 0.950 . S
C465 C467 1.327 . S
C465 C471 1.429 . S
C466 C458 1.574 . S
C466 H461 0.949 . S
C466 C472 1.368 . S
C467 C451 1.349 . S
C467 H459 0.950 . S
C467 C465 1.327 . S
C468 C456 1.349 1_556 S
C468 H462 0.950 . S
C468 C469 1.327 1_556 S
C469 H463 0.950 1_554 S
C469 C468 1.327 1_554 S
C469 C473 1.429 . S
C470 C453 1.574 . S
C470 H464 0.949 . S
C470 C474 1.368 . S
C471 C452 1.429 . S
C471 C465 1.429 . S
C471 C472 1.523 . S
C472 C453 1.368 . S
C472 C466 1.368 . S
C472 C471 1.523 . S
C473 C457 1.429 . S
C473 C469 1.429 . S
C473 C474 1.523 . S
C474 C458 1.368 . S
C474 C470 1.368 . S
C474 C473 1.523 . S
H475 C450 0.950 . S
H476 C452 0.950 . S
H477 C453 0.949 . S
H478 C455 0.950 . S
H479 C457 0.950 . S
C480 C481 1.349 . S
C480 C482 1.327 . S
C480 H505 0.950 . S
C481 C480 1.349 . S
C481 C497 1.349 . S
C482 C480 1.327 . S
C482 C501 1.429 . S
C482 H506 0.950 . S
C483 C500 1.574 . S
C483 C502 1.368 . S
C483 H507 0.949 . S
H484 C488 0.949 . S
C485 C486 1.349 1_556 S
C485 C487 1.327 1_556 S
C485 H508 0.950 . S
C486 C485 1.349 1_554 S
C486 C498 1.349 . S
C487 C485 1.327 1_554 S
C487 C503 1.429 . S
C487 H509 0.950 1_554 S
C488 H484 0.949 . S
C488 C496 1.574 . S
C488 C504 1.368 . S
H489 C497 0.950 . S
H490 C495 0.950 . S
H491 C496 0.949 . S
H492 C498 0.950 . S
H493 C499 0.950 . S
H494 C500 0.949 . S
C495 H490 0.950 . S
C495 C497 1.327 . S
C495 C501 1.429 . S
C496 C488 1.574 . S
C496 H491 0.949 . S
C496 C502 1.368 . S
C497 C481 1.349 . S
C497 H489 0.950 . S
C497 C495 1.327 . S
C498 C486 1.349 . S
C498 H492 0.950 . S
C498 C499 1.327 . S
C499 H493 0.950 . S
C499 C498 1.327 . S
C499 C503 1.429 . S
C500 C483 1.574 . S
C500 H494 0.949 . S
C500 C504 1.368 . S
C501 C482 1.429 . S
C501 C495 1.429 . S
C501 C502 1.523 . S
C502 C483 1.368 . S
C502 C496 1.368 . S
C502 C501 1.523 . S
C503 C487 1.429 . S
C503 C499 1.429 . S
C503 C504 1.523 . S
C504 C488 1.368 . S
C504 C500 1.368 . S
C504 C503 1.523 . S
H505 C480 0.950 . S
H506 C482 0.950 . S
H507 C483 0.949 . S
H508 C485 0.950 . S
H509 C487 0.950 1_556 S
C510 C511 1.349 . S
C510 C512 1.327 . S
C510 H535 0.950 1_554 S
C511 C510 1.349 . S
C511 C527 1.349 . S
C512 C510 1.327 . S
C512 C531 1.429 . S
C512 H536 0.950 . S
C513 C530 1.574 . S
C513 C532 1.368 . S
C513 H537 0.949 . S
H514 C518 0.949 . S
C515 C516 1.349 . S
C515 C517 1.327 . S
C515 H538 0.950 . S
C516 C515 1.349 . S
C516 C528 1.349 . S
C517 C515 1.327 . S
C517 C533 1.429 . S
C517 H539 0.950 . S
C518 H514 0.949 . S
C518 C526 1.574 . S
C518 C534 1.368 . S
H519 C527 0.950 . S
H520 C525 0.950 . S
H521 C526 0.949 . S
H522 C528 0.950 . S
H523 C529 0.950 . S
H524 C530 0.949 . S
C525 H520 0.950 . S
C525 C527 1.327 . S
C525 C531 1.429 . S
C526 C518 1.574 . S
C526 H521 0.949 . S
C526 C532 1.368 . S
C527 C511 1.349 . S
C527 H519 0.950 . S
C527 C525 1.327 . S
C528 C516 1.349 . S
C528 H522 0.950 . S
C528 C529 1.327 . S
C529 H523 0.950 . S
C529 C528 1.327 . S
C529 C533 1.429 . S
C530 C513 1.574 . S
C530 H524 0.949 . S
C530 C534 1.368 . S
C531 C512 1.429 . S
C531 C525 1.429 . S
C531 C532 1.523 . S
C532 C513 1.368 . S
C532 C526 1.368 . S
C532 C531 1.523 . S
C533 C517 1.429 . S
C533 C529 1.429 . S
C533 C534 1.523 . S
C534 C518 1.368 . S
C534 C530 1.368 . S
C534 C533 1.523 . S
H535 C510 0.950 1_556 S
H536 C512 0.950 . S
H537 C513 0.949 . S
H538 C515 0.950 . S
H539 C517 0.950 . S
C540 C541 1.349 . S
C540 C542 1.327 . S
C540 H565 0.950 . S
C541 C540 1.349 . S
C541 C557 1.349 . S
C542 C540 1.327 . S
C542 C561 1.429 . S
C542 H566 0.950 . S
C543 C560 1.574 . S
C543 C562 1.368 . S
C543 H567 0.949 . S
H544 C548 0.949 . S
C545 C546 1.349 . S
C545 C547 1.327 . S
C545 H568 0.950 . S
C546 C545 1.349 . S
C546 C558 1.349 . S
C547 C545 1.327 . S
C547 C563 1.429 . S
C547 H569 0.950 . S
C548 H544 0.949 . S
C548 C556 1.574 . S
C548 C564 1.368 . S
H549 C557 0.950 . S
H550 C555 0.950 . S
H551 C556 1.016 . S
H552 C558 0.950 . S
H553 C559 0.950 . S
H554 C560 0.949 . S
C555 H550 0.950 . S
C555 C557 1.327 . S
C555 C561 1.429 . S
C556 C548 1.574 . S
C556 H551 1.016 . S
C556 C562 1.368 . S
C557 C541 1.349 . S
C557 H549 0.950 . S
C557 C555 1.327 . S
C558 C546 1.349 . S
C558 H552 0.950 . S
C558 C559 1.327 . S
C559 H553 0.950 . S
C559 C558 1.327 . S
C559 C563 1.429 . S
C560 C543 1.574 . S
C560 H554 0.949 . S
C560 C564 1.368 . S
C561 C542 1.429 . S
C561 C555 1.429 . S
C561 C562 1.523 1_455 S
C562 C543 1.368 . S
C562 C556 1.368 . S
C562 C561 1.523 1_655 S
C563 C547 1.429 . S
C563 C559 1.429 . S
C563 C564 1.523 . S
C564 C548 1.368 . S
C564 C560 1.368 . S
C564 C563 1.523 . S
H565 C540 0.950 . S
H566 C542 0.950 . S
H567 C543 0.949 . S
H568 C545 0.950 . S
H569 C547 0.950 . S
C570 C571 1.349 . S
C570 C572 1.327 . S
C570 H595 0.950 . S
C571 C570 1.349 . S
C571 C587 1.349 . S
C572 C570 1.327 . S
C572 C591 1.429 . S
C572 H596 0.950 . S
C573 C590 1.574 . S
C573 C592 1.368 . S
C573 H597 0.949 . S
H574 C578 0.949 . S
C575 C576 1.349 . S
C575 C577 1.327 . S
C575 H598 0.950 . S
C576 C575 1.349 . S
C576 C588 1.349 . S
C577 C575 1.327 . S
C577 C593 1.429 . S
C577 H599 0.950 . S
C578 H574 0.949 . S
C578 C586 1.574 . S
C578 C594 1.368 . S
H579 C587 0.950 . S
H580 C585 0.950 . S
H581 C586 0.949 . S
H582 C588 0.950 . S
H583 C589 0.950 . S
H584 C590 0.949 . S
C585 H580 0.950 . S
C585 C587 1.327 . S
C585 C591 1.429 . S
C586 C578 1.574 . S
C586 H581 0.949 . S
C586 C592 1.368 . S
C587 C571 1.349 . S
C587 H579 0.950 . S
C587 C585 1.327 . S
C588 C576 1.349 . S
C588 H582 0.950 . S
C588 C589 1.327 . S
C589 H583 0.950 . S
C589 C588 1.327 . S
C589 C593 1.429 . S
C590 C573 1.574 . S
C590 H584 0.949 . S
C590 C594 1.368 . S
C591 C572 1.429 . S
C591 C585 1.429 . S
C591 C592 1.523 . S
C592 C573 1.368 . S
C592 C586 1.368 . S
C592 C591 1.523 . S
C593 C577 1.429 . S
C593 C589 1.429 . S
C593 C594 1.523 . S
C594 C578 1.368 . S
C594 C590 1.368 . S
C594 C593 1.523 . S
H595 C570 0.950 . S
H596 C572 0.950 . S
H597 C573 0.949 . S
H598 C575 0.950 . S
H599 C577 0.950 . S
C600 C601 1.349 . S
C600 C602 1.327 . S
C600 H625 0.950 . S
C601 C600 1.349 . S
C601 C617 1.349 . S
C602 C600 1.327 . S
C602 C621 1.429 . S
C602 H626 0.950 . S
C603 C620 1.574 . S
C603 C622 1.368 . S
C603 H627 0.949 . S
H604 C608 0.949 . S
C605 C606 1.349 . S
C605 C607 1.327 1_565 S
C605 H628 0.950 . S
C606 C605 1.349 . S
C606 C618 1.349 . S
C607 C605 1.327 1_545 S
C607 C623 1.429 . S
C607 H629 0.950 . S
C608 H604 0.949 . S
C608 C616 1.574 . S
C608 C624 1.368 . S
H609 C617 0.950 . S
H610 C615 0.950 . S
H611 C616 0.949 . S
H612 C618 0.950 . S
H613 C619 0.950 . S
H614 C620 0.949 . S
C615 H610 0.950 . S
C615 C617 1.327 . S
C615 C621 1.429 . S
C616 C608 1.574 . S
C616 H611 0.949 . S
C616 C622 1.368 . S
C617 C601 1.349 . S
C617 H609 0.950 . S
C617 C615 1.327 . S
C618 C606 1.349 . S
C618 H612 0.950 . S
C618 C619 1.327 1_565 S
C619 H613 0.950 . S
C619 C618 1.327 1_545 S
C619 C623 1.429 . S
C620 C603 1.574 . S
C620 H614 0.949 . S
C620 C624 1.368 . S
C621 C602 1.429 . S
C621 C615 1.429 . S
C621 C622 1.523 . S
C622 C603 1.368 . S
C622 C616 1.368 . S
C622 C621 1.523 . S
C623 C607 1.429 . S
C623 C619 1.429 . S
C623 C624 1.523 . S
C624 C608 1.368 . S
C624 C620 1.368 . S
C624 C623 1.523 . S
H625 C600 0.950 . S
H626 C602 0.950 . S
H627 C603 0.949 . S
H628 C605 0.950 . S
H629 C607 0.950 . S
C630 C631 1.349 1_556 S
C630 C632 1.327 . S
C630 H655 0.950 . S
C631 C630 1.349 1_554 S
C631 C647 1.349 . S
C632 C630 1.327 . S
C632 C651 1.429 1_556 S
C632 H656 0.950 . S
C633 C650 1.574 . S
C633 C652 1.368 . S
C633 H657 0.949 . S
H634 C638 0.949 . S
C635 C636 1.349 . S
C635 C637 1.327 . S
C635 H658 0.950 . S
C636 C635 1.349 . S
C636 C648 1.349 1_554 S
C637 C635 1.327 . S
C637 C653 1.429 . S
C637 H659 0.950 . S
C638 H634 0.949 . S
C638 C646 1.574 . S
C638 C654 1.368 1_556 S
H639 C647 0.950 . S
H640 C645 0.950 . S
H641 C646 0.949 . S
H642 C648 0.950 . S
H643 C649 0.950 . S
H644 C650 0.949 . S
C645 H640 0.950 . S
C645 C647 1.327 . S
C645 C651 1.429 . S
C646 C638 1.574 . S
C646 H641 0.949 . S
C646 C652 1.368 1_556 S
C647 C631 1.349 . S
C647 H639 0.950 . S
C647 C645 1.327 . S
C648 C636 1.349 1_556 S
C648 H642 0.950 . S
C648 C649 1.327 . S
C649 H643 0.950 . S
C649 C648 1.327 . S
C649 C653 1.429 1_556 S
C650 C633 1.574 . S
C650 H644 0.949 . S
C650 C654 1.368 . S
C651 C632 1.429 1_554 S
C651 C645 1.429 . S
C651 C652 1.523 . S
C652 C633 1.368 . S
C652 C646 1.368 1_554 S
C652 C651 1.523 . S
C653 C637 1.429 . S
C653 C649 1.429 1_554 S
C653 C654 1.523 . S
C654 C638 1.368 1_554 S
C654 C650 1.368 . S
C654 C653 1.523 . S
H655 C630 0.950 . S
H656 C632 0.950 . S
H657 C633 0.949 . S
H658 C635 0.950 . S
H659 C637 0.950 . S
C660 C661 1.349 1_556 S
C660 C662 1.327 . S
C660 H685 0.950 . S
C661 C660 1.349 1_554 S
C661 C677 1.349 . S
C662 C660 1.327 . S
C662 C681 1.429 1_556 S
C662 H686 0.950 . S
C663 C680 1.574 . S
C663 C682 1.368 . S
C663 H687 0.949 . S
H664 C668 0.949 . S
C665 C666 1.349 . S
C665 C667 1.327 . S
C665 H688 0.950 . S
C666 C665 1.349 . S
C666 C678 1.349 1_554 S
C667 C665 1.327 . S
C667 C683 1.429 . S
C667 H689 0.950 . S
C668 H664 0.949 . S
C668 C676 1.574 . S
C668 C684 1.368 1_556 S
H669 C677 0.950 . S
H670 C675 0.950 . S
H671 C676 0.949 . S
H672 C678 0.950 . S
H673 C679 0.950 . S
H674 C680 0.949 . S
C675 H670 0.950 . S
C675 C677 1.327 . S
C675 C681 1.429 . S
C676 C668 1.574 . S
C676 H671 0.949 . S
C676 C682 1.368 1_556 S
C677 C661 1.349 . S
C677 H669 0.950 . S
C677 C675 1.327 . S
C678 C666 1.349 1_556 S
C678 H672 0.950 . S
C678 C679 1.327 . S
C679 H673 0.950 . S
C679 C678 1.327 . S
C679 C683 1.429 1_556 S
C680 C663 1.574 . S
C680 H674 0.949 . S
C680 C684 1.368 . S
C681 C662 1.429 1_554 S
C681 C675 1.429 . S
C681 C682 1.523 . S
C682 C663 1.368 . S
C682 C676 1.368 1_554 S
C682 C681 1.523 . S
C683 C667 1.429 . S
C683 C679 1.429 1_554 S
C683 C684 1.523 1_545 S
C684 C668 1.368 1_554 S
C684 C680 1.368 . S
C684 C683 1.523 1_565 S
H685 C660 0.950 . S
H686 C662 0.950 . S
H687 C663 0.949 . S
H688 C665 0.950 . S
H689 C667 0.950 . S
C690 C691 1.349 . S
C690 C692 1.327 1_655 S
C690 H715 0.950 . S
C691 C690 1.349 . S
C691 C707 1.349 1_554 S
C692 C690 1.327 1_455 S
C692 C711 1.429 . S
C692 H716 0.950 . S
C693 C710 1.574 . S
C693 C712 1.368 1_556 S
C693 H717 0.949 . S
H694 C698 0.949 . S
C695 C696 1.349 1_556 S
C695 C697 1.327 . S
C695 H718 0.950 . S
C696 C695 1.349 1_554 S
C696 C708 1.349 . S
C697 C695 1.327 . S
C697 C713 1.429 1_556 S
C697 H719 0.950 . S
C698 H694 0.949 . S
C698 C706 1.574 . S
C698 C714 1.368 . S
H699 C707 0.950 . S
H700 C705 0.950 . S
H701 C706 0.949 . S
H702 C708 0.950 . S
H703 C709 0.950 . S
H704 C710 0.949 . S
C705 H700 0.950 . S
C705 C707 1.327 1_455 S
C705 C711 1.429 1_556 S
C706 C698 1.574 . S
C706 H701 0.949 . S
C706 C712 1.368 . S
C707 C691 1.349 1_556 S
C707 H699 0.950 . S
C707 C705 1.327 1_655 S
C708 C696 1.349 . S
C708 H702 0.950 . S
C708 C709 1.327 . S
C709 H703 0.950 . S
C709 C708 1.327 . S
C709 C713 1.429 . S
C710 C693 1.574 . S
C710 H704 0.949 . S
C710 C714 1.368 1_556 S
C711 C692 1.429 . S
C711 C705 1.429 1_554 S
C711 C712 1.523 . S
C712 C693 1.368 1_554 S
C712 C706 1.368 . S
C712 C711 1.523 . S
C713 C697 1.429 1_554 S
C713 C709 1.429 . S
C713 C714 1.523 . S
C714 C698 1.368 . S
C714 C710 1.368 1_554 S
C714 C713 1.523 . S
H715 C690 0.950 . S
H716 C692 0.950 . S
H717 C693 0.949 . S
H718 C695 0.950 . S
H719 C697 0.950 . S
C720 C721 1.349 . S
C720 C722 1.327 . S
C720 H745 0.950 . S
C721 C720 1.349 . S
C721 C737 1.349 . S
C722 C720 1.327 . S
C722 C741 1.429 . S
C722 H746 0.950 . S
C723 C740 1.574 . S
C723 C742 1.368 . S
C723 H747 0.949 . S
H724 C728 0.949 . S
C725 C726 1.349 . S
C725 C727 1.327 . S
C725 H748 0.950 . S
C726 C725 1.349 . S
C726 C738 1.349 . S
C727 C725 1.327 . S
C727 C743 1.429 . S
C727 H749 0.950 . S
C728 H724 0.949 . S
C728 C736 1.574 . S
C728 C744 1.368 . S
H729 C737 0.950 . S
H730 C735 0.950 . S
H731 C736 0.949 . S
H732 C738 0.950 . S
H733 C739 0.950 . S
H734 C740 0.949 . S
C735 H730 0.950 . S
C735 C737 1.327 . S
C735 C741 1.429 . S
C736 C728 1.574 . S
C736 H731 0.949 . S
C736 C742 1.368 . S
C737 C721 1.349 . S
C737 H729 0.950 . S
C737 C735 1.327 . S
C738 C726 1.349 . S
C738 H732 0.950 . S
C738 C739 1.327 . S
C739 H733 0.950 . S
C739 C738 1.327 . S
C739 C743 1.429 . S
C740 C723 1.574 . S
C740 H734 0.949 . S
C740 C744 1.368 . S
C741 C722 1.429 . S
C741 C735 1.429 . S
C741 C742 1.523 . S
C742 C723 1.368 . S
C742 C736 1.368 . S
C742 C741 1.523 . S
C743 C727 1.429 . S
C743 C739 1.429 . S
C743 C744 1.523 . S
C744 C728 1.368 . S
C744 C740 1.368 . S
C744 C743 1.523 . S
H745 C720 0.950 . S
H746 C722 0.950 . S
H747 C723 0.949 . S
H748 C725 0.950 . S
H749 C727 0.950 . S
C750 C751 1.349 . S
C750 C752 1.327 . S
C750 H775 0.950 . S
C751 C750 1.349 . S
C751 C767 1.349 . S
C752 C750 1.327 . S
C752 C771 1.429 . S
C752 H776 0.950 . S
C753 C770 1.574 . S
C753 C772 1.368 . S
C753 H777 0.949 . S
H754 C758 0.949 . S
C755 C756 1.349 . S
C755 C757 1.327 . S
C755 H778 0.950 . S
C756 C755 1.349 . S
C756 C768 1.349 . S
C757 C755 1.327 . S
C757 C773 1.429 . S
C757 H779 0.950 . S
C758 H754 0.949 . S
C758 C766 1.574 . S
C758 C774 1.368 . S
H759 C767 0.950 . S
H760 C765 0.950 . S
H761 C766 0.949 . S
H762 C768 0.950 . S
H763 C769 0.950 . S
H764 C770 0.949 . S
C765 H760 0.950 . S
C765 C767 1.327 . S
C765 C771 1.429 . S
C766 C758 1.574 . S
C766 H761 0.949 . S
C766 C772 1.368 . S
C767 C751 1.349 . S
C767 H759 0.950 . S
C767 C765 1.327 . S
C768 C756 1.349 . S
C768 H762 0.950 . S
C768 C769 1.327 . S
C769 H763 0.950 . S
C769 C768 1.327 . S
C769 C773 1.429 . S
C770 C753 1.574 . S
C770 H764 0.949 . S
C770 C774 1.368 . S
C771 C752 1.429 . S
C771 C765 1.429 . S
C771 C772 1.523 . S
C772 C753 1.368 . S
C772 C766 1.368 . S
C772 C771 1.523 . S
C773 C757 1.429 . S
C773 C769 1.429 . S
C773 C774 1.523 . S
C774 C758 1.368 . S
C774 C770 1.368 . S
C774 C773 1.523 . S
H775 C750 0.950 . S
H776 C752 0.950 . S
H777 C753 0.949 . S
H778 C755 0.950 . S
H779 C757 0.950 . S
C780 C781 1.349 . S
C780 C782 1.327 . S
C780 H805 0.950 . S
C781 C780 1.349 . S
C781 C797 1.349 . S
C782 C780 1.327 . S
C782 C801 1.429 . S
C782 H806 0.950 . S
C783 C800 1.574 . S
C783 C802 1.368 . S
C783 H807 0.949 . S
H784 C788 0.949 . S
C785 C786 1.349 . S
C785 C787 1.327 . S
C785 H808 0.950 . S
C786 C785 1.349 . S
C786 C798 1.349 . S
C787 C785 1.327 . S
C787 C803 1.429 . S
C787 H809 0.950 . S
C788 H784 0.949 . S
C788 C796 1.574 . S
C788 C804 1.368 . S
H789 C797 0.950 . S
H790 C795 0.950 . S
H791 C796 0.949 . S
H792 C798 0.950 . S
H793 C799 0.950 . S
H794 C800 0.949 . S
C795 H790 0.950 . S
C795 C797 1.327 . S
C795 C801 1.429 . S
C796 C788 1.574 . S
C796 H791 0.949 . S
C796 C802 1.368 . S
C797 C781 1.349 . S
C797 H789 0.950 . S
C797 C795 1.327 . S
C798 C786 1.349 . S
C798 H792 0.950 . S
C798 C799 1.327 . S
C799 H793 0.950 . S
C799 C798 1.327 . S
C799 C803 1.429 . S
C800 C783 1.574 . S
C800 H794 0.949 . S
C800 C804 1.368 . S
C801 C782 1.429 . S
C801 C795 1.429 . S
C801 C802 1.523 . S
C802 C783 1.368 . S
C802 C796 1.368 . S
C802 C801 1.523 . S
C803 C787 1.429 . S
C803 C799 1.429 . S
C803 C804 1.523 . S
C804 C788 1.368 . S
C804 C800 1.368 . S
C804 C803 1.523 . S
H805 C780 0.950 . S
H806 C782 0.950 . S
H807 C783 0.949 . S
H808 C785 0.950 . S
H809 C787 0.950 . S
C810 C811 1.349 . S
C810 C812 1.327 . S
C810 H835 0.950 . S
C811 C810 1.349 . S
C811 C827 1.349 . S
C812 C810 1.327 . S
C812 C831 1.429 . S
C812 H836 0.950 . S
C813 C830 1.574 . S
C813 C832 1.368 . S
C813 H837 0.949 . S
H814 C818 0.949 . S
C815 C816 1.349 . S
C815 C817 1.327 . S
C815 H838 0.950 . S
C816 C815 1.349 . S
C816 C828 1.349 . S
C817 C815 1.327 . S
C817 C833 1.429 . S
C817 H839 0.950 . S
C818 H814 0.949 . S
C818 C826 1.574 . S
C818 C834 1.368 . S
H819 C827 0.950 . S
H820 C825 0.950 . S
H821 C826 0.949 . S
H822 C828 0.950 . S
H823 C829 0.950 . S
H824 C830 0.949 . S
C825 H820 0.950 . S
C825 C827 1.327 . S
C825 C831 1.429 . S
C826 C818 1.574 . S
C826 H821 0.949 . S
C826 C832 1.368 . S
C827 C811 1.349 . S
C827 H819 0.950 . S
C827 C825 1.327 . S
C828 C816 1.349 . S
C828 H822 0.950 . S
C828 C829 1.327 . S
C829 H823 0.950 . S
C829 C828 1.327 . S
C829 C833 1.429 . S
C830 C813 1.574 . S
C830 H824 0.949 . S
C830 C834 1.368 . S
C831 C812 1.429 . S
C831 C825 1.429 . S
C831 C832 1.523 . S
C832 C813 1.368 . S
C832 C826 1.368 . S
C832 C831 1.523 . S
C833 C817 1.429 . S
C833 C829 1.429 . S
C833 C834 1.523 . S
C834 C818 1.368 . S
C834 C830 1.368 . S
C834 C833 1.523 . S
H835 C810 0.950 . S
H836 C812 0.950 . S
H837 C813 0.949 . S
H838 C815 0.950 . S
H839 C817 0.950 . S
C840 C841 1.349 . S
C840 C842 1.327 . S
C840 H865 0.950 . S
C841 C840 1.349 . S
C841 C857 1.349 . S
C842 C840 1.327 . S
C842 C861 1.429 . S
C842 H866 0.950 . S
C843 C860 1.574 . S
C843 C862 1.368 . S
C843 H867 0.949 . S
H844 C848 0.949 . S
C845 C846 1.349 . S
C845 C847 1.327 . S
C845 H868 0.950 . S
C846 C845 1.349 . S
C846 C858 1.349 . S
C847 C845 1.327 . S
C847 C863 1.429 . S
C847 H869 0.950 . S
C848 H844 0.949 . S
C848 C856 1.574 . S
C848 C864 1.368 . S
H849 C857 0.950 . S
H850 C855 0.950 . S
H851 C856 0.949 . S
H852 C858 0.950 . S
H853 C859 0.950 . S
H854 C860 0.949 . S
C855 H850 0.950 . S
C855 C857 1.327 . S
C855 C861 1.429 . S
C856 C848 1.574 . S
C856 H851 0.949 . S
C856 C862 1.368 . S
C857 C841 1.349 . S
C857 H849 0.950 . S
C857 C855 1.327 . S
C858 C846 1.349 . S
C858 H852 0.950 . S
C858 C859 1.327 . S
C859 H853 0.950 . S
C859 C858 1.327 . S
C859 C863 1.429 . S
C860 C843 1.574 . S
C860 H854 0.949 . S
C860 C864 1.368 . S
C861 C842 1.429 . S
C861 C855 1.429 . S
C861 C862 1.523 . S
C862 C843 1.368 . S
C862 C856 1.368 . S
C862 C861 1.523 . S
C863 C847 1.429 . S
C863 C859 1.429 . S
C863 C864 1.523 . S
C864 C848 1.368 . S
C864 C860 1.368 . S
C864 C863 1.523 . S
H865 C840 0.950 . S
H866 C842 0.950 . S
H867 C843 0.949 . S
H868 C845 0.950 . S
H869 C847 0.950 . S
C870 C871 1.349 . S
C870 C872 1.327 . S
C870 H895 0.950 . S
C871 C870 1.349 . S
C871 C887 1.349 . S
C872 C870 1.327 . S
C872 C891 1.429 . S
C872 H896 0.950 . S
C873 C890 1.574 . S
C873 C892 1.368 . S
C873 H897 0.949 . S
H874 C878 0.949 . S
C875 C876 1.349 . S
C875 C877 1.327 . S
C875 H898 0.950 . S
C876 C875 1.349 . S
C876 C888 1.349 . S
C877 C875 1.327 . S
C877 C893 1.429 . S
C877 H899 0.950 . S
C878 H874 0.949 . S
C878 C886 1.574 . S
C878 C894 1.368 . S
H879 C887 0.950 . S
H880 C885 0.950 . S
H881 C886 0.949 . S
H882 C888 0.950 . S
H883 C889 0.950 . S
H884 C890 0.949 . S
C885 H880 0.950 . S
C885 C887 1.327 . S
C885 C891 1.429 . S
C886 C878 1.574 . S
C886 H881 0.949 . S
C886 C892 1.368 . S
C887 C871 1.349 . S
C887 H879 0.950 . S
C887 C885 1.327 . S
C888 C876 1.349 . S
C888 H882 0.950 . S
C888 C889 1.327 . S
C889 H883 0.950 . S
C889 C888 1.327 . S
C889 C893 1.429 . S
C890 C873 1.574 . S
C890 H884 0.949 . S
C890 C894 1.368 . S
C891 C872 1.429 . S
C891 C885 1.429 . S
C891 C892 1.523 . S
C892 C873 1.368 . S
C892 C886 1.368 . S
C892 C891 1.523 . S
C893 C877 1.429 . S
C893 C889 1.429 . S
C893 C894 1.523 . S
C894 C878 1.368 . S
C894 C890 1.368 . S
C894 C893 1.523 . S
H895 C870 0.950 . S
H896 C872 0.950 . S
H897 C873 0.949 . S
H898 C875 0.950 . S
H899 C877 0.950 . S
C900 C901 1.349 . S
C900 C902 1.327 . S
C900 H925 0.950 . S
C901 C900 1.349 . S
C901 C917 1.349 1_455 S
C902 C900 1.327 . S
C902 C921 1.429 . S
C902 H926 0.950 . S
C903 C920 1.574 . S
C903 C922 1.368 1_655 S
C903 H927 0.949 . S
H904 C908 0.949 . S
C905 C906 1.391 . S
C905 C907 1.325 . S
C905 H928 0.916 1_455 S
C906 C905 1.391 . S
C906 C918 1.349 . S
C907 C905 1.325 . S
C907 C923 1.425 . S
C907 H929 0.953 1_455 S
C908 H904 0.949 . S
C908 C916 1.574 . S
C908 C924 1.368 . S
H909 C917 0.950 . S
H910 C915 0.950 . S
H911 C916 0.949 . S
H912 C918 0.950 . S
H913 C919 0.950 . S
H914 C920 0.949 . S
C915 H910 0.950 . S
C915 C917 1.327 . S
C915 C921 1.429 1_655 S
C916 C908 1.574 . S
C916 H911 0.949 . S
C916 C922 1.368 . S
C917 C901 1.349 1_655 S
C917 H909 0.950 . S
C917 C915 1.327 . S
C918 C906 1.349 . S
C918 H912 0.950 . S
C918 C919 1.327 . S
C919 H913 0.950 . S
C919 C918 1.327 . S
C919 C923 1.429 . S
C920 C903 1.574 . S
C920 H914 0.949 . S
C920 C924 1.368 1_655 S
C921 C902 1.429 . S
C921 C915 1.429 1_455 S
C921 C922 1.523 . S
C922 C903 1.368 1_455 S
C922 C916 1.368 . S
C922 C921 1.523 . S
C923 C907 1.425 . S
C923 C919 1.429 . S
C923 C924 1.523 . S
C924 C908 1.368 . S
C924 C920 1.368 1_455 S
C924 C923 1.523 . S
H925 C900 0.950 . S
H926 C902 0.950 . S
H927 C903 0.949 . S
H928 C905 0.916 1_655 S
H929 C907 0.953 1_655 S
C930 C931 1.349 . S
C930 C932 1.327 . S
C930 H955 0.950 . S
C931 C930 1.349 . S
C931 C947 1.349 . S
C932 C930 1.327 . S
C932 C951 1.429 . S
C932 H956 0.950 . S
C933 C950 1.574 . S
C933 C952 1.368 . S
C933 H957 0.949 . S
H934 C938 0.949 . S
C935 C936 1.349 . S
C935 C937 1.327 . S
C935 H958 0.950 . S
C936 C935 1.349 . S
C936 C948 1.349 . S
C937 C935 1.327 . S
C937 C953 1.429 . S
C937 H959 0.950 . S
C938 H934 0.949 . S
C938 C946 1.574 . S
C938 C954 1.368 . S
H939 C947 0.950 . S
H940 C945 0.950 . S
H941 C946 0.949 . S
H942 C948 0.950 . S
H943 C949 0.950 . S
H944 C950 0.949 . S
C945 H940 0.950 . S
C945 C947 1.327 . S
C945 C951 1.429 . S
C946 C938 1.574 . S
C946 H941 0.949 . S
C946 C952 1.368 . S
C947 C931 1.349 . S
C947 H939 0.950 . S
C947 C945 1.327 . S
C948 C936 1.349 . S
C948 H942 0.950 . S
C948 C949 1.327 . S
C949 H943 0.950 . S
C949 C948 1.327 . S
C949 C953 1.429 . S
C950 C933 1.574 . S
C950 H944 0.949 . S
C950 C954 1.368 . S
C951 C932 1.429 . S
C951 C945 1.429 . S
C951 C952 1.523 . S
C952 C933 1.368 . S
C952 C946 1.368 . S
C952 C951 1.523 . S
C953 C937 1.429 . S
C953 C949 1.429 . S
C953 C954 1.523 . S
C954 C938 1.368 . S
C954 C950 1.368 . S
C954 C953 1.523 . S
H955 C930 0.950 . S
H956 C932 0.950 . S
H957 C933 0.949 . S
H958 C935 0.950 . S
H959 C937 0.950 . S
C960 C961 1.349 . S
C960 C962 1.327 . S
C960 H985 0.950 . S
C961 C960 1.349 . S
C961 C977 1.349 . S
C962 C960 1.327 . S
C962 C981 1.429 . S
C962 H986 0.950 . S
C963 C980 1.574 1_545 S
C963 C982 1.375 . S
C963 H987 0.943 1_545 S
H964 C968 0.949 . S
C965 C966 1.349 1_565 S
C965 C967 1.327 . S
C965 H988 0.950 . S
C966 C965 1.349 1_545 S
C966 C978 1.349 . S
C967 C965 1.327 . S
C967 C983 1.429 1_565 S
C967 H989 0.950 . S
C968 H964 0.949 . S
C968 C976 1.574 . S
C968 C984 1.368 . S
H969 C977 0.950 1_565 S
H970 C975 0.950 1_565 S
H971 C976 0.949 . S
H972 C978 0.950 . S
H973 C979 0.950 . S
H974 C980 0.958 . S
C975 H970 0.950 1_545 S
C975 C977 1.327 . S
C975 C981 1.429 . S
C976 C968 1.574 . S
C976 H971 0.949 . S
C976 C982 1.368 . S
C977 C961 1.349 . S
C977 H969 0.950 1_545 S
C977 C975 1.327 . S
C978 C966 1.349 . S
C978 H972 0.950 . S
C978 C979 1.327 . S
C979 H973 0.950 . S
C979 C978 1.327 . S
C979 C983 1.429 . S
C980 C963 1.574 1_565 S
C980 H974 0.958 . S
C980 C984 1.359 1_565 S
C981 C962 1.429 . S
C981 C975 1.429 . S
C981 C982 1.523 . S
C982 C963 1.375 . S
C982 C976 1.368 . S
C982 C981 1.523 . S
C983 C967 1.429 1_545 S
C983 C979 1.429 . S
C983 C984 1.523 . S
C984 C968 1.368 . S
C984 C980 1.359 1_545 S
C984 C983 1.523 . S
H985 C960 0.950 . S
H986 C962 0.950 . S
H987 C963 0.943 1_565 S
H988 C965 0.950 . S
H989 C967 0.950 . S
C990 C991 1.349 . S
C990 C992 1.327 . S
C990 H1015 0.950 . S
C991 C990 1.349 . S
C991 C1007 1.349 . S
C992 C990 1.327 . S
C992 C1011 1.429 . S
C992 H1016 0.950 . S
C993 C1010 1.574 . S
C993 C1012 1.368 . S
C993 H1017 0.949 . S
H994 C998 0.949 . S
C995 C996 1.349 . S
C995 C997 1.327 . S
C995 H1018 0.950 . S
C996 C995 1.349 . S
C996 C1008 1.349 . S
C997 C995 1.327 . S
C997 C1013 1.429 1_554 S
C997 H1019 0.950 . S
C998 H994 0.949 . S
C998 C1006 1.574 . S
C998 C1014 1.368 . S
H999 C1007 0.950 . S
H1000 C1005 0.950 . S
H1001 C1006 0.949 . S
H1002 C1008 0.950 . S
H1003 C1009 0.950 . S
H1004 C1010 0.949 . S
C1005 H1000 0.950 . S
C1005 C1007 1.327 . S
C1005 C1011 1.429 . S
C1006 C998 1.574 . S
C1006 H1001 0.949 . S
C1006 C1012 1.368 . S
C1007 C991 1.349 . S
C1007 H999 0.950 . S
C1007 C1005 1.327 . S
C1008 C996 1.349 . S
C1008 H1002 0.950 . S
C1008 C1009 1.327 . S
C1009 H1003 0.950 . S
C1009 C1008 1.327 . S
C1009 C1013 1.429 1_554 S
C1010 C993 1.574 . S
C1010 H1004 0.949 . S
C1010 C1014 1.368 . S
C1011 C992 1.429 . S
C1011 C1005 1.429 . S
C1011 C1012 1.523 . S
C1012 C993 1.368 . S
C1012 C1006 1.368 . S
C1012 C1011 1.523 . S
C1013 C997 1.429 1_556 S
C1013 C1009 1.429 1_556 S
C1013 C1014 1.523 . S
C1014 C998 1.368 . S
C1014 C1010 1.368 . S
C1014 C1013 1.523 . S
H1015 C990 0.950 . S
H1016 C992 0.950 . S
H1017 C993 0.949 . S
H1018 C995 0.950 . S
H1019 C997 0.950 . S
C1020 C1021 1.349 . S
C1020 C1022 1.327 . S
C1020 H1045 0.950 . S
C1021 C1020 1.349 . S
C1021 C1037 1.349 . S
C1022 C1020 1.327 . S
C1022 C1041 1.429 . S
C1022 H1046 0.950 . S
C1023 C1040 1.574 . S
C1023 C1042 1.368 . S
C1023 H1047 0.949 . S
H1024 C1028 0.949 . S
C1025 C1026 1.349 . S
C1025 C1027 1.327 . S
C1025 H1048 0.950 . S
C1026 C1025 1.349 . S
C1026 C1038 1.349 . S
C1027 C1025 1.327 . S
C1027 C1043 1.429 1_554 S
C1027 H1049 0.950 . S
C1028 H1024 0.949 . S
C1028 C1036 1.574 . S
C1028 C1044 1.368 . S
H1029 C1037 0.950 . S
H1030 C1035 0.950 . S
H1031 C1036 0.949 . S
H1032 C1038 0.950 . S
H1033 C1039 0.950 . S
H1034 C1040 0.949 . S
C1035 H1030 0.950 . S
C1035 C1037 1.327 . S
C1035 C1041 1.429 . S
C1036 C1028 1.574 . S
C1036 H1031 0.949 . S
C1036 C1042 1.368 . S
C1037 C1021 1.349 . S
C1037 H1029 0.950 . S
C1037 C1035 1.327 . S
C1038 C1026 1.349 . S
C1038 H1032 0.950 . S
C1038 C1039 1.327 . S
C1039 H1033 0.950 . S
C1039 C1038 1.327 . S
C1039 C1043 1.429 1_554 S
C1040 C1023 1.574 . S
C1040 H1034 0.949 . S
C1040 C1044 1.368 . S
C1041 C1022 1.429 . S
C1041 C1035 1.429 . S
C1041 C1042 1.523 . S
C1042 C1023 1.368 . S
C1042 C1036 1.368 . S
C1042 C1041 1.523 . S
C1043 C1027 1.429 1_556 S
C1043 C1039 1.429 1_556 S
C1043 C1044 1.523 . S
C1044 C1028 1.368 . S
C1044 C1040 1.368 . S
C1044 C1043 1.523 . S
H1045 C1020 0.950 . S
H1046 C1022 0.950 . S
H1047 C1023 0.949 . S
H1048 C1025 0.950 . S
H1049 C1027 0.950 . S
C1050 C1051 1.349 . S
C1050 C1052 1.327 . S
C1050 H1075 0.950 . S
C1051 C1050 1.349 . S
C1051 C1067 1.349 . S
C1052 C1050 1.327 . S
C1052 C1071 1.429 . S
C1052 H1076 0.950 . S
C1053 C1070 1.574 . S
C1053 C1072 1.368 . S
C1053 H1077 0.949 . S
H1054 C1058 0.949 . S
C1055 C1056 1.349 . S
C1055 C1057 1.327 . S
C1055 H1078 0.950 . S
C1056 C1055 1.349 . S
C1056 C1068 1.349 . S
C1057 C1055 1.327 . S
C1057 C1073 1.429 1_554 S
C1057 H1079 0.950 . S
C1058 H1054 0.949 . S
C1058 C1066 1.574 . S
C1058 C1074 1.368 . S
H1059 C1067 0.950 . S
H1060 C1065 0.950 . S
H1061 C1066 0.949 . S
H1062 C1068 0.950 . S
H1063 C1069 0.950 . S
H1064 C1070 0.949 . S
C1065 H1060 0.950 . S
C1065 C1067 1.327 . S
C1065 C1071 1.429 . S
C1066 C1058 1.574 . S
C1066 H1061 0.949 . S
C1066 C1072 1.368 . S
C1067 C1051 1.349 . S
C1067 H1059 0.950 . S
C1067 C1065 1.327 . S
C1068 C1056 1.349 . S
C1068 H1062 0.950 . S
C1068 C1069 1.327 . S
C1069 H1063 0.950 . S
C1069 C1068 1.327 . S
C1069 C1073 1.429 1_554 S
C1070 C1053 1.574 . S
C1070 H1064 0.949 . S
C1070 C1074 1.368 . S
C1071 C1052 1.429 . S
C1071 C1065 1.429 . S
C1071 C1072 1.523 . S
C1072 C1053 1.368 . S
C1072 C1066 1.368 . S
C1072 C1071 1.523 . S
C1073 C1057 1.429 1_556 S
C1073 C1069 1.429 1_556 S
C1073 C1074 1.523 . S
C1074 C1058 1.368 . S
C1074 C1070 1.368 . S
C1074 C1073 1.523 . S
H1075 C1050 0.950 . S
H1076 C1052 0.950 . S
H1077 C1053 0.949 . S
H1078 C1055 0.950 . S
H1079 C1057 0.950 . S
C1080 C1081 1.349 . S
C1080 C1082 1.327 . S
C1080 H1105 0.950 . S
C1081 C1080 1.349 . S
C1081 C1097 1.349 . S
C1082 C1080 1.327 . S
C1082 C1101 1.429 . S
C1082 H1106 0.950 . S
C1083 C1100 1.574 . S
C1083 C1102 1.368 . S
C1083 H1107 0.949 . S
H1084 C1088 0.949 . S
C1085 C1086 1.349 . S
C1085 C1087 1.327 . S
C1085 H1108 0.950 . S
C1086 C1085 1.349 . S
C1086 C1098 1.349 . S
C1087 C1085 1.327 . S
C1087 C1103 1.429 1_556 S
C1087 H1109 0.950 . S
C1088 H1084 0.949 . S
C1088 C1096 1.574 . S
C1088 C1104 1.368 . S
H1089 C1097 0.950 . S
H1090 C1095 0.950 . S
H1091 C1096 0.949 . S
H1092 C1098 0.950 . S
H1093 C1099 0.950 . S
H1094 C1100 0.949 . S
C1095 H1090 0.950 . S
C1095 C1097 1.327 . S
C1095 C1101 1.429 . S
C1096 C1088 1.574 . S
C1096 H1091 0.949 . S
C1096 C1102 1.368 . S
C1097 C1081 1.349 . S
C1097 H1089 0.950 . S
C1097 C1095 1.327 . S
C1098 C1086 1.349 . S
C1098 H1092 0.950 . S
C1098 C1099 1.327 . S
C1099 H1093 0.950 . S
C1099 C1098 1.327 . S
C1099 C1103 1.429 1_556 S
C1100 C1083 1.574 . S
C1100 H1094 0.949 . S
C1100 C1104 1.368 . S
C1101 C1082 1.429 . S
C1101 C1095 1.429 . S
C1101 C1102 1.523 . S
C1102 C1083 1.368 . S
C1102 C1096 1.368 . S
C1102 C1101 1.523 . S
C1103 C1087 1.429 1_554 S
C1103 C1099 1.429 1_554 S
C1103 C1104 1.523 . S
C1104 C1088 1.368 . S
C1104 C1100 1.368 . S
C1104 C1103 1.523 . S
H1105 C1080 0.950 . S
H1106 C1082 0.950 . S
H1107 C1083 0.949 . S
H1108 C1085 0.950 . S
H1109 C1087 0.950 . S
C1110 C1111 1.349 . S
C1110 C1112 1.327 . S
C1110 H1135 0.950 . S
C1111 C1110 1.349 . S
C1111 C1127 1.349 . S
C1112 C1110 1.327 . S
C1112 C1131 1.429 1_556 S
C1112 H1136 0.951 . S
C1113 C1130 1.574 . S
C1113 C1132 1.368 . S
C1113 H1137 0.949 . S
H1114 C1118 0.949 . S
C1115 C1116 1.349 . S
C1115 C1117 1.327 . S
C1115 H1138 0.950 . S
C1116 C1115 1.349 . S
C1116 C1128 1.349 . S
C1117 C1115 1.327 . S
C1117 C1133 1.429 . S
C1117 H1139 0.950 . S
C1118 H1114 0.949 . S
C1118 C1126 1.574 . S
C1118 C1134 1.368 . S
H1119 C1127 0.950 . S
H1120 C1125 0.950 . S
H1121 C1126 0.949 . S
H1122 C1128 0.950 . S
H1123 C1129 0.950 . S
H1124 C1130 0.949 . S
C1125 H1120 0.950 . S
C1125 C1127 1.327 . S
C1125 C1131 1.429 1_556 S
C1126 C1118 1.574 . S
C1126 H1121 0.949 . S
C1126 C1132 1.368 . S
C1127 C1111 1.349 . S
C1127 H1119 0.950 . S
C1127 C1125 1.327 . S
C1128 C1116 1.349 . S
C1128 H1122 0.950 . S
C1128 C1129 1.327 . S
C1129 H1123 0.950 . S
C1129 C1128 1.327 . S
C1129 C1133 1.429 . S
C1130 C1113 1.574 . S
C1130 H1124 0.949 . S
C1130 C1134 1.368 . S
C1131 C1112 1.429 1_554 S
C1131 C1125 1.429 1_554 S
C1131 C1132 1.523 . S
C1132 C1113 1.368 . S
C1132 C1126 1.368 . S
C1132 C1131 1.523 . S
C1133 C1117 1.429 . S
C1133 C1129 1.429 . S
C1133 C1134 1.523 . S
C1134 C1118 1.368 . S
C1134 C1130 1.368 . S
C1134 C1133 1.523 . S
H1135 C1110 0.950 . S
H1136 C1112 0.951 . S
H1137 C1113 0.949 . S
H1138 C1115 0.950 . S
H1139 C1117 0.950 . S
C1140 C1141 1.349 . S
C1140 C1142 1.327 . S
C1140 H1165 0.950 . S
C1141 C1140 1.349 . S
C1141 C1157 1.349 . S
C1142 C1140 1.327 . S
C1142 C1161 1.429 . S
C1142 H1166 0.950 . S
C1143 C1160 1.574 . S
C1143 C1162 1.368 . S
C1143 H1167 0.949 . S
H1144 C1148 0.949 . S
C1145 C1146 1.349 . S
C1145 C1147 1.327 . S
C1145 H1168 0.950 . S
C1146 C1145 1.349 . S
C1146 C1158 1.349 . S
C1147 C1145 1.327 . S
C1147 C1163 1.429 1_556 S
C1147 H1169 0.949 . S
C1148 H1144 0.949 . S
C1148 C1156 1.574 . S
C1148 C1164 1.368 . S
H1149 C1157 0.950 . S
H1150 C1155 0.950 . S
H1151 C1156 0.949 . S
H1152 C1158 0.950 . S
H1153 C1159 0.950 . S
H1154 C1160 0.949 . S
C1155 H1150 0.950 . S
C1155 C1157 1.327 . S
C1155 C1161 1.429 . S
C1156 C1148 1.574 . S
C1156 H1151 0.949 . S
C1156 C1162 1.368 . S
C1157 C1141 1.349 . S
C1157 H1149 0.950 . S
C1157 C1155 1.327 . S
C1158 C1146 1.349 . S
C1158 H1152 0.950 . S
C1158 C1159 1.327 . S
C1159 H1153 0.950 . S
C1159 C1158 1.327 . S
C1159 C1163 1.429 1_556 S
C1160 C1143 1.574 . S
C1160 H1154 0.949 . S
C1160 C1164 1.368 . S
C1161 C1142 1.429 . S
C1161 C1155 1.429 . S
C1161 C1162 1.523 . S
C1162 C1143 1.368 . S
C1162 C1156 1.368 . S
C1162 C1161 1.523 . S
C1163 C1147 1.429 1_554 S
C1163 C1159 1.429 1_554 S
C1163 C1164 1.523 . S
C1164 C1148 1.368 . S
C1164 C1160 1.368 . S
C1164 C1163 1.523 . S
H1165 C1140 0.950 . S
H1166 C1142 0.950 . S
H1167 C1143 0.949 . S
H1168 C1145 0.950 . S
H1169 C1147 0.949 . S
C361 C7 1.996 . S
C366 C282 1.937 . S
C391 C47 1.996 . S
C396 C322 1.937 . S
C421 C87 1.996 . S
C426 C242 1.937 . S
C451 C167 1.996 . S
C456 C82 1.938 . S
C481 C207 1.996 . S
C486 C2 1.937 . S
C511 C42 1.938 . S
C516 C127 1.996 . S
C541 C287 1.996 . S
C546 C202 1.937 . S
C571 C327 1.995 . S
C576 C122 1.937 . S
C601 C162 1.937 . S
C606 C247 1.996 . S
C631 C96 1.736 . S
C636 C11 1.738 1_554 S
C661 C51 1.738 1_554 S
C666 C16 1.736 . S
C691 C56 1.736 . S
C696 C91 1.738 1_554 S
C721 C131 1.738 . S
C726 C216 1.736 . S
C751 C136 1.736 . S
C756 C171 1.738 . S
C781 C176 1.736 . S
C786 C211 1.738 . S
C811 C336 1.735 . S
C816 C251 1.738 . S
C841 C291 1.738 . S
C846 C256 1.736 . S
C871 C331 1.738 . S
C876 C296 1.736 . S
C901 C19 0.832 . S
C906 C10 0.832 . S
C931 C59 0.832 . S
C936 C50 0.832 . S
C961 C99 0.832 . S
C966 C90 0.832 . S
C991 C130 0.832 . S
C996 C139 0.832 . S
C1021 C170 0.832 . S
C1026 C179 0.832 . S
C1051 C210 0.832 . S
C1056 C219 0.832 . S
C1081 C259 0.832 . S
C1086 C250 0.832 . S
C1111 C290 0.832 . S
C1116 C299 0.832 . S
C1141 C339 0.832 . S
C1146 C330 0.832 . S
