# Generated by pormake.
# Topology snk, (6)-cn, num edge types: 1
# Building blocks:
#     Node 0, Type 0, BuildingBlock: VOLQOD_clean_sbu_1, # of connection points: 6
#     Node 1, Type 0, BuildingBlock: VOLQOD_clean_sbu_1, # of connection points: 6
#     Node 2, Type 0, BuildingBlock: VOLQOD_clean_sbu_1, # of connection points: 6
#     Node 3, Type 0, BuildingBlock: VOLQOD_clean_sbu_1, # of connection points: 6
#     Node 4, Type 0, BuildingBlock: VOLQOD_clean_sbu_1, # of connection points: 6
#     Node 5, Type 0, BuildingBlock: VOLQOD_clean_sbu_1, # of connection points: 6
#     Node 6, Type 0, BuildingBlock: VOLQOD_clean_sbu_1, # of connection points: 6
#     Node 7, Type 0, BuildingBlock: VOLQOD_clean_sbu_1, # of connection points: 6
#     Edge 8, Type (0, 0), BuildingBlock: ZUJKAS_clean_linker_0, # of connection points: 2
#     Edge 9, Type (0, 0), BuildingBlock: ZUJKAS_clean_linker_0, # of connection points: 2
#     Edge 10, Type (0, 0), BuildingBlock: ZUJKAS_clean_linker_0, # of connection points: 2
#     Edge 11, Type (0, 0), BuildingBlock: ZUJKAS_clean_linker_0, # of connection points: 2
#     Edge 12, Type (0, 0), BuildingBlock: ZUJKAS_clean_linker_0, # of connection points: 2
#     Edge 13, Type (0, 0), BuildingBlock: ZUJKAS_clean_linker_0, # of connection points: 2
#     Edge 14, Type (0, 0), BuildingBlock: ZUJKAS_clean_linker_0, # of connection points: 2
#     Edge 15, Type (0, 0), BuildingBlock: ZUJKAS_clean_linker_0, # of connection points: 2
#     Edge 16, Type (0, 0), BuildingBlock: ZUJKAS_clean_linker_0, # of connection points: 2
#     Edge 17, Type (0, 0), BuildingBlock: ZUJKAS_clean_linker_0, # of connection points: 2
#     Edge 18, Type (0, 0), BuildingBlock: ZUJKAS_clean_linker_0, # of connection points: 2
#     Edge 19, Type (0, 0), BuildingBlock: ZUJKAS_clean_linker_0, # of connection points: 2
#     Edge 20, Type (0, 0), BuildingBlock: ZUJKAS_clean_linker_0, # of connection points: 2
#     Edge 21, Type (0, 0), BuildingBlock: ZUJKAS_clean_linker_0, # of connection points: 2
#     Edge 22, Type (0, 0), BuildingBlock: ZUJKAS_clean_linker_0, # of connection points: 2
#     Edge 23, Type (0, 0), BuildingBlock: ZUJKAS_clean_linker_0, # of connection points: 2
#     Edge 24, Type (0, 0), BuildingBlock: ZUJKAS_clean_linker_0, # of connection points: 2
#     Edge 25, Type (0, 0), BuildingBlock: ZUJKAS_clean_linker_0, # of connection points: 2
#     Edge 26, Type (0, 0), BuildingBlock: ZUJKAS_clean_linker_0, # of connection points: 2
#     Edge 27, Type (0, 0), BuildingBlock: ZUJKAS_clean_linker_0, # of connection points: 2
#     Edge 28, Type (0, 0), BuildingBlock: ZUJKAS_clean_linker_0, # of connection points: 2
#     Edge 29, Type (0, 0), BuildingBlock: ZUJKAS_clean_linker_0, # of connection points: 2
#     Edge 30, Type (0, 0), BuildingBlock: ZUJKAS_clean_linker_0, # of connection points: 2
#     Edge 31, Type (0, 0), BuildingBlock: ZUJKAS_clean_linker_0, # of connection points: 2
# Relax obj value: 0.177
# Max RMSD: 0.167
# Mean RMSD: 0.167
data_MOF--net-snk--node1-VOLQOD_clean_sbu_1--edge1-ZUJKAS_clean_linker_0
_symmetry_space_group_name_H-M    P1
_symmetry_Int_Tables_number       1
_symmetry_cell_setting            triclinic
loop_
_symmetry_equiv_pos_as_xyz
'x, y, z'
_cell_length_a     58.872875
_cell_length_b     58.924524
_cell_length_c     20.138877
_cell_angle_alpha  90.087471
_cell_angle_beta   90.089093
_cell_angle_gamma 90.236031
loop_
_atom_site_label
_atom_site_type_symbol
_atom_site_fract_x
_atom_site_fract_y
_atom_site_fract_z
_atom_type_partial_charge
O0 O 0.03123 0.99278 0.48092 0.0
Zn1 Zn 0.00326 0.00848 0.44529 0.0
O2 O 0.00419 0.04089 0.46305 0.0
Zn3 Zn 0.98085 0.04866 0.52579 0.0
Zn4 Zn 0.03376 0.0476 0.49879 0.0
Zn5 Zn -0.00028 0.05879 0.38476 0.0
O6 O 0.96445 0.07727 0.50019 0.0
O7 O 0.97208 0.07829 0.39229 0.0
O8 O 0.97465 0.99429 0.4821 0.0
O9 O 0.95768 0.02371 0.52968 0.0
O10 O 0.99451 0.05061 0.6164 0.0
O11 O 0.03165 0.04934 0.59732 0.0
O12 O 0.04722 0.07598 0.46077 0.0
O13 O 0.00311 0.00355 0.34683 0.0
O14 O 0.02546 0.08106 0.37202 0.0
O15 O -0.00244 0.03828 0.30628 0.0
C16 C 0.05132 0.00079 0.48556 0.0
C17 C 0.96128 0.08563 0.44261 0.0
C18 C 0.01493 0.04999 0.6372 0.0
C19 C 0.95777 0.00291 0.51249 0.0
C20 C 0.04244 0.08671 0.40779 0.0
C21 C -0.0001 0.01696 0.29828 0.0
O22 O 0.05513 0.02203 0.48269 0.0
O23 O 0.33188 0.85269 0.77065 0.0
Zn24 Zn 0.3165 0.82417 0.7372 0.0
O25 O 0.2836 0.82631 0.74907 0.0
Zn26 Zn 0.27248 0.79979 0.79519 0.0
Zn27 Zn 0.27594 0.85321 0.79959 0.0
Zn28 Zn 0.2686 0.82809 0.66468 0.0
O29 O 0.24588 0.78523 0.7491 0.0
O30 O 0.24717 0.80193 0.65048 0.0
O31 O 0.32886 0.79625 0.78235 0.0
O32 O 0.29725 0.77695 0.80445 0.0
O33 O 0.2648 0.80747 0.88879 0.0
O34 O 0.26961 0.84478 0.89384 0.0
O35 O 0.2494 0.87011 0.75986 0.0
O36 O 0.32463 0.82176 0.64016 0.0
O37 O 0.24943 0.85574 0.65792 0.0
O38 O 0.2912 0.82845 0.59228 0.0
C39 C 0.32399 0.87141 0.79228 0.0
C40 C 0.23879 0.78719 0.68964 0.0
C41 C 0.26547 0.82586 0.92183 0.0
C42 C 0.31882 0.77833 0.80258 0.0
C43 C 0.24209 0.86993 0.70028 0.0
C44 C 0.31247 0.82511 0.58893 0.0
O45 O 0.30282 0.87409 0.8025 0.0
O46 O 0.46997 0.16335 0.00343 0.0
Zn47 Zn 0.4975 0.14763 0.96507 0.0
O48 O 0.49633 0.11506 0.98061 0.0
Zn49 Zn 0.51974 0.10613 0.04254 0.0
Zn50 Zn 0.46667 0.10825 0.01574 0.0
Zn51 Zn 0.50076 0.098 0.90048 0.0
O52 O 0.53666 0.07815 0.0125 0.0
O53 O 0.52863 0.07884 0.90486 0.0
O54 O 0.52638 0.16104 0.00301 0.0
O55 O 0.54262 0.13121 0.05063 0.0
O56 O 0.50615 0.10223 0.13283 0.0
O57 O 0.46904 0.10413 0.11359 0.0
O58 O 0.45287 0.08072 0.97336 0.0
O59 O 0.49721 0.15361 0.86675 0.0
O60 O 0.47531 0.07554 0.88624 0.0
O61 O 0.50264 0.11914 0.82383 0.0
C62 C 0.44983 0.15568 0.01016 0.0
C63 C 0.53976 0.07083 0.95364 0.0
C64 C 0.48571 0.10241 0.15347 0.0
C65 C 0.5429 0.15208 0.03435 0.0
C66 C 0.45801 0.07002 0.92057 0.0
C67 C 0.50034 0.1405 0.81735 0.0
O68 O 0.44558 0.13453 0.00598 0.0
O69 O 0.16562 0.30171 0.22536 0.0
Zn70 Zn 0.17867 0.33048 0.18704 0.0
O71 O 0.21106 0.3325 0.20464 0.0
Zn72 Zn 0.21683 0.36215 0.24096 0.0
Zn73 Zn 0.22012 0.30926 0.26681 0.0
Zn74 Zn 0.22877 0.32887 0.12539 0.0
O75 O 0.24496 0.37611 0.20319 0.0
O76 O 0.25048 0.35517 0.113 0.0
O77 O 0.16196 0.35817 0.21984 0.0
O78 O 0.19045 0.38286 0.22665 0.0
O79 O 0.21933 0.3598 0.33902 0.0
O80 O 0.22267 0.32281 0.35761 0.0
O81 O 0.24925 0.29385 0.23896 0.0
O82 O 0.17335 0.32938 0.08902 0.0
O83 O 0.24889 0.30171 0.13116 0.0
O84 O 0.2082 0.32588 0.04729 0.0
C85 C 0.17471 0.28513 0.25593 0.0
C86 C 0.25586 0.3719 0.15008 0.0
C87 C 0.22132 0.34316 0.37862 0.0
C88 C 0.16927 0.37844 0.22655 0.0
C89 C 0.25708 0.29105 0.18055 0.0
C90 C 0.18674 0.32683 0.04014 0.0
O91 O 0.1956 0.28548 0.27252 0.0
O92 O 0.82495 0.35342 0.33628 0.0
Zn93 Zn 0.81086 0.32589 0.29224 0.0
O94 O 0.77797 0.32542 0.3058 0.0
Zn95 Zn 0.76929 0.29716 0.34747 0.0
Zn96 Zn 0.76893 0.3508 0.36096 0.0
Zn97 Zn 0.76205 0.32766 0.22313 0.0
O98 O 0.7424 0.28242 0.30276 0.0
O99 O 0.74248 0.30034 0.20594 0.0
O100 O 0.82529 0.29701 0.32488 0.0
O101 O 0.79519 0.27533 0.3459 0.0
O102 O 0.76366 0.30235 0.44377 0.0
O103 O 0.76384 0.33989 0.45371 0.0
O104 O 0.74148 0.36738 0.32536 0.0
O105 O 0.81819 0.32799 0.19464 0.0
O106 O 0.74061 0.35361 0.22291 0.0
O107 O 0.78387 0.33181 0.14954 0.0
C108 C 0.81598 0.37136 0.35997 0.0
C109 C 0.73491 0.28479 0.24381 0.0
C110 C 0.76262 0.32018 0.47932 0.0
C111 C 0.81659 0.27792 0.34056 0.0
C112 C 0.73319 0.36715 0.2669 0.0
C113 C 0.80538 0.33118 0.14465 0.0
O114 O 0.79459 0.37308 0.36748 0.0
O115 O 0.67023 0.80471 0.78171 0.0
Zn116 Zn 0.68559 0.83288 0.74538 0.0
O117 O 0.71836 0.83169 0.75947 0.0
Zn118 Zn 0.72812 0.85928 0.80259 0.0
Zn119 Zn 0.72564 0.80586 0.81397 0.0
Zn120 Zn 0.73462 0.82837 0.67777 0.0
O121 O 0.75558 0.87304 0.75894 0.0
O122 O 0.7557 0.85479 0.66241 0.0
O123 O 0.67212 0.86152 0.78365 0.0
O124 O 0.70309 0.88216 0.80305 0.0
O125 O 0.73327 0.85344 0.8987 0.0
O126 O 0.7284 0.81617 0.90819 0.0
O127 O 0.75396 0.78975 0.78358 0.0
O128 O 0.67886 0.83314 0.64748 0.0
O129 O 0.75497 0.80129 0.67888 0.0
O130 O 0.71272 0.82574 0.6032 0.0
C131 C 0.67866 0.78591 0.80072 0.0
C132 C 0.7635 0.87019 0.7007 0.0
C133 C 0.73147 0.83567 0.93414 0.0
C134 C 0.68157 0.88022 0.80005 0.0
C135 C 0.76233 0.7887 0.72538 0.0
C136 C 0.69141 0.82876 0.59776 0.0
O137 O 0.6999 0.78357 0.81038 0.0
O138 O 0.53122 0.50023 0.03794 0.0
Zn139 Zn 0.50323 0.51386 -0.00331 0.0
O140 O 0.50183 0.54643 0.01217 0.0
Zn141 Zn 0.47632 0.55323 0.06899 0.0
Zn142 Zn 0.52966 0.55589 0.05417 0.0
Zn143 Zn 0.49849 0.563 0.93066 0.0
O144 O 0.45918 0.58071 0.03763 0.0
O145 O 0.47087 0.58264 0.93303 0.0
O146 O 0.47472 0.4983 0.02901 0.0
O147 O 0.45451 0.52703 0.06861 0.0
O148 O 0.48718 0.55705 0.16255 0.0
O149 O 0.52445 0.561 0.15015 0.0
O150 O 0.54298 0.58361 0.01217 0.0
O151 O 0.50476 0.5076 0.89903 0.0
O152 O 0.52472 0.58467 0.91568 0.0
O153 O 0.49636 0.54127 0.85518 0.0
C154 C 0.55017 0.50946 0.05292 0.0
C155 C 0.45792 0.58927 0.9797 0.0
C156 C 0.50696 0.55994 0.18689 0.0
C157 C 0.4564 0.50613 0.05356 0.0
C158 C 0.54004 0.59216 0.95483 0.0
C159 C 0.50016 0.52011 0.84945 0.0
O160 O 0.55258 0.53094 0.05342 0.0
O161 O 0.96923 0.65902 0.51789 0.0
Zn162 Zn 0.99682 0.64506 0.47448 0.0
O163 O -0.00216 0.61269 0.49205 0.0
Zn164 Zn 0.02819 0.60555 0.52141 0.0
Zn165 Zn 0.97626 0.60443 0.55936 0.0
Zn166 Zn 0.99024 0.59533 0.41433 0.0
O167 O 0.03976 0.57716 0.47766 0.0
O168 O 0.01471 0.57252 0.39611 0.0
O169 O 0.02578 0.66057 0.50449 0.0
O170 O 0.04941 0.63126 0.50156 0.0
O171 O 0.02877 0.60295 0.62087 0.0
O172 O 0.99208 0.60111 0.64616 0.0
O173 O 0.95902 0.57595 0.53609 0.0
O174 O 0.99507 0.65021 0.37575 0.0
O175 O 0.96191 0.57675 0.42626 0.0
O176 O 0.98749 0.6157 0.33601 0.0
C177 C 0.95347 0.65039 0.55335 0.0
C178 C 0.03276 0.56658 0.42626 0.0
C179 C 0.01288 0.60145 0.66346 0.0
C180 C 0.04586 0.65254 0.50469 0.0
C181 C 0.95326 0.56858 0.47899 0.0
C182 C 0.9906 0.63689 0.32758 0.0
O183 O 0.95387 0.62961 0.57066 0.0
H184 H 0.08278 0.10062 0.46209 0.0
H185 H 0.10502 0.13435 0.43324 0.0
H186 H 0.05611 0.15147 0.28209 0.0
H187 H 0.03372 0.11777 0.31023 0.0
H188 H 0.12234 0.14684 0.29662 0.0
H189 H 0.06253 0.20871 0.41009 0.0
H190 H 0.06308 0.17916 0.43383 0.0
H191 H 0.0506 0.18734 0.35623 0.0
C192 C 0.07675 0.11151 0.42258 0.0
C193 C 0.05642 0.10655 0.38862 0.0
C194 C 0.08949 0.13073 0.40618 0.0
C195 C 0.08202 0.1454 0.3561 0.0
C196 C 0.06197 0.14039 0.32136 0.0
H197 H 0.13153 0.27534 0.21371 0.0
H198 H 0.10928 0.2411 0.23626 0.0
C199 C 0.04928 0.12109 0.33737 0.0
C200 C 0.0952 0.16604 0.34038 0.0
H201 H 0.09436 0.22372 0.35416 0.0
C202 C 0.1163 0.16368 0.30913 0.0
C203 C 0.08708 0.18786 0.35664 0.0
C204 C 0.06465 0.1911 0.39143 0.0
C205 C 0.12953 0.18273 0.29297 0.0
C206 C 0.12161 0.20461 0.31021 0.0
C207 C 0.10039 0.20692 0.34114 0.0
C208 C 0.13513 0.22533 0.29696 0.0
C209 C 0.1516 0.17926 0.2564 0.0
C210 C 0.15686 0.22797 0.32464 0.0
C211 C 0.16968 0.24744 0.31157 0.0
C212 C 0.16086 0.26479 0.27126 0.0
C213 C 0.13884 0.26231 0.24489 0.0
C214 C 0.12611 0.24275 0.25767 0.0
H215 H 0.15194 0.16263 0.23034 0.0
H216 H 0.15452 0.19292 0.21943 0.0
H217 H 0.16584 0.17955 0.29254 0.0
H218 H 0.1639 0.21499 0.35656 0.0
H219 H 0.18647 0.24889 0.33322 0.0
H220 H 0.09613 0.00926 0.46412 0.0
H221 H 0.12837 0.98617 0.49843 0.0
H222 H 0.08245 0.93566 0.57678 0.0
H223 H 0.05001 0.95839 0.54058 0.0
H224 H 0.13921 0.975 0.62315 0.0
H225 H 0.12621 0.89681 0.47378 0.0
H226 H 0.11103 0.92274 0.45726 0.0
H227 H 0.10206 0.90427 0.52337 0.0
C228 C 0.09288 0.99305 0.4877 0.0
C229 C 0.07056 0.98559 0.49964 0.0
C230 C 0.11132 0.97992 0.5074 0.0
C231 C 0.10781 0.95915 0.53978 0.0
C232 C 0.08554 0.95141 0.55062 0.0
H233 H 0.21188 0.89258 0.77945 0.0
H234 H 0.17915 0.91492 0.74309 0.0
C235 C 0.06703 0.96443 0.53007 0.0
C236 C 0.12755 0.9464 0.5654 0.0
H237 H 0.15441 0.89532 0.55807 0.0
C238 C 0.1426 0.95759 0.60878 0.0
C239 C 0.13197 0.92377 0.54619 0.0
C240 C 0.1171 0.91124 0.4971 0.0
C241 C 0.16205 0.9468 0.63324 0.0
C242 C 0.16619 0.924 0.61522 0.0
C243 C 0.15109 0.91277 0.57212 0.0
C244 C 0.18654 0.91164 0.6382 0.0
C245 C 0.17828 0.96013 0.67652 0.0
C246 C 0.2014 0.90229 0.59134 0.0
C247 C 0.21983 0.88931 0.61185 0.0
C248 C 0.22384 0.88551 0.67975 0.0
C249 C 0.20933 0.89542 0.72684 0.0
C250 C 0.19067 0.90822 0.70615 0.0
H251 H 0.17592 0.97872 0.6707 0.0
H252 H 0.17514 0.95582 0.72934 0.0
H253 H 0.1962 0.95594 0.66473 0.0
H254 H 0.19854 0.90478 0.53868 0.0
H255 H 0.23077 0.88199 0.57436 0.0
H256 H 0.31437 0.91115 0.85581 0.0
H257 H 0.33958 0.94363 0.87326 0.0
H258 H 0.39385 0.90827 0.77439 0.0
H259 H 0.36878 0.87545 0.7567 0.0
H260 H 0.3872 0.94097 0.93888 0.0
H261 H 0.38371 0.97337 0.67902 0.0
H262 H 0.36126 0.956 0.71333 0.0
H263 H 0.38802 0.94347 0.69282 0.0
C264 C 0.33167 0.91019 0.83776 0.0
C265 C 0.33955 0.89072 0.80468 0.0
C266 C 0.34601 0.92876 0.84788 0.0
C267 C 0.3684 0.92828 0.82462 0.0
C268 C 0.3765 0.90889 0.79219 0.0
H269 H 0.4685 0.03778 0.82768 0.0
H270 H 0.44767 0.00273 0.80349 0.0
C271 C 0.3622 0.89018 0.78241 0.0
C272 C 0.38318 0.94821 0.83488 0.0
H273 H 0.40465 0.99485 0.75655 0.0
C274 C 0.39118 0.95273 0.89909 0.0
C275 C 0.38836 0.96327 0.78254 0.0
C276 C 0.37989 0.95899 0.71289 0.0
C277 C 0.40414 0.97219 0.91266 0.0
C278 C 0.40858 0.98779 0.86086 0.0
C279 C 0.40106 0.98293 0.79619 0.0
C280 C 0.4206 0.00947 0.87325 0.0
C281 C 0.41308 0.97574 0.98221 0.0
C282 C 0.41189 0.02516 0.91898 0.0
C283 C 0.42379 0.0451 0.93324 0.0
C284 C 0.44446 0.04989 0.90125 0.0
C285 C 0.45264 0.0346 0.85326 0.0
C286 C 0.4408 0.01454 0.83943 0.0
H287 H 0.41417 0.95946 0.00981 0.0
H288 H 0.43017 0.98379 0.98163 0.0
H289 H 0.40135 0.98703 0.00975 0.0
H290 H 0.39599 0.02185 0.94419 0.0
H291 H 0.41689 0.05664 0.96988 0.0
H292 H 0.45292 0.19922 0.05749 0.0
H293 H 0.42175 0.22328 0.09605 0.0
H294 H 0.37344 0.17147 0.0396 0.0
H295 H 0.40437 0.14716 0.00277 0.0
H296 H 0.38575 0.24104 0.03336 0.0
H297 H 0.3556 0.18288 0.22984 0.0
H298 H 0.38242 0.17905 0.18807 0.0
H299 H 0.35644 0.16908 0.15048 0.0
C300 C 0.43564 0.193 0.05307 0.0
C301 C 0.43111 0.1712 0.02768 0.0
C302 C 0.41788 0.20672 0.07534 0.0
C303 C 0.39534 0.19888 0.07238 0.0
C304 C 0.39075 0.17754 0.04443 0.0
H305 H 0.27209 0.27424 0.06264 0.0
H306 H 0.30651 0.25256 0.04201 0.0
C307 C 0.40846 0.16375 0.02284 0.0
C308 C 0.37648 0.21314 0.09692 0.0
H309 H 0.32952 0.21201 0.1961 0.0
C310 C 0.37361 0.23481 0.06952 0.0
C311 C 0.36095 0.20522 0.14532 0.0
C312 C 0.36414 0.18289 0.18066 0.0
C313 C 0.35498 0.24832 0.08678 0.0
C314 C 0.33849 0.23963 0.1312 0.0
C315 C 0.34197 0.21846 0.16115 0.0
C316 C 0.3171 0.25186 0.14494 0.0
C317 C 0.35316 0.27176 0.05716 0.0
C318 C 0.31101 0.25763 0.21019 0.0
C319 C 0.29105 0.26974 0.22239 0.0
C320 C 0.27695 0.27629 0.16941 0.0
C321 C 0.28274 0.26974 0.10447 0.0
C322 C 0.30251 0.25749 0.09247 0.0
H323 H 0.37011 0.27853 0.04298 0.0
H324 H 0.34261 0.27092 0.01152 0.0
H325 H 0.34513 0.28382 0.09236 0.0
H326 H 0.32193 0.25318 0.25146 0.0
H327 H 0.28704 0.27454 0.27296 0.0
H328 H 0.95238 0.95714 0.49228 0.0
H329 H 0.91904 0.93385 0.51863 0.0
H330 H 0.88473 0.99292 0.59462 0.0
H331 H 0.91776 0.01634 0.56841 0.0
H332 H 0.8982 0.92838 0.64657 0.0
H333 H 0.83921 0.96479 0.45988 0.0
H334 H 0.86967 0.96817 0.45481 0.0
H335 H 0.85349 0.98541 0.51103 0.0
C336 C 0.93771 0.9652 0.51434 0.0
C337 C 0.93773 0.98863 0.52804 0.0
C338 C 0.91871 0.95187 0.52937 0.0
C339 C 0.89938 0.96178 0.55766 0.0
C340 C 0.89937 0.98507 0.57171 0.0
H341 H 0.78767 0.90167 0.77216 0.0
H342 H 0.8208 0.92346 0.73573 0.0
C343 C 0.91834 -0.00161 0.557 0.0
C344 C 0.8794 0.9477 0.57456 0.0
H345 H 0.82283 0.94098 0.54249 0.0
C346 C 0.88174 0.931 0.62359 0.0
C347 C 0.85806 0.9511 0.54394 0.0
C348 C 0.8549 0.96819 0.48904 0.0
C349 C 0.86307 0.91795 0.64416 0.0
C350 C 0.84156 0.92193 0.61527 0.0
C351 C 0.83934 0.93819 0.56495 0.0
C352 C 0.82114 0.90928 0.6366 0.0
C353 C 0.8665 0.89994 0.69636 0.0
C354 C 0.81006 0.8946 0.59222 0.0
C355 C 0.79111 0.88215 0.61273 0.0
C356 C 0.78281 0.88432 0.67793 0.0
C357 C 0.79365 0.89953 0.72171 0.0
C358 C 0.81265 0.9119 0.70116 0.0
H359 H 0.88472 0.89552 0.70237 0.0
H360 H 0.86016 0.9063 0.74477 0.0
H361 H 0.85683 0.88429 0.68368 0.0
H362 H 0.81633 0.8925 0.54203 0.0
H363 H 0.78313 0.87066 0.57764 0.0
H364 H 0.95305 0.10951 0.32915 0.0
H365 H 0.92838 0.14227 0.31532 0.0
H366 H 0.90878 0.138 0.5212 0.0
H367 H 0.9338 0.10533 0.53609 0.0
H368 H 0.88223 0.14574 0.33377 0.0
H369 H 0.92934 0.20413 0.502 0.0
H370 H 0.9411 0.17766 0.47305 0.0
H371 H 0.92076 0.17782 0.53951 0.0
C372 C 0.94352 0.11547 0.37164 0.0
C373 C 0.9455 0.10485 0.43389 0.0
C374 C 0.92942 0.13422 0.36356 0.0
C375 C 0.91707 0.14273 0.41746 0.0
C376 C 0.91858 0.13194 0.47935 0.0
H377 H 0.80426 0.23604 0.38628 0.0
H378 H 0.8287 0.2034 0.40576 0.0
C379 C 0.93277 0.1132 0.48762 0.0
C380 C 0.90239 0.16276 0.40813 0.0
H381 H 0.89439 0.21745 0.45856 0.0
C382 C 0.88486 0.16143 0.36102 0.0
C383 C 0.90615 0.18326 0.44311 0.0
C384 C 0.92548 0.18598 0.49183 0.0
C385 C 0.87081 0.18005 0.34824 0.0
C386 C 0.87415 0.20035 0.38457 0.0
C387 C 0.89181 0.20177 0.43125 0.0
C388 C 0.85952 0.22036 0.37446 0.0
C389 C 0.85283 0.17797 0.29503 0.0
C390 C 0.86892 0.2409 0.35229 0.0
C391 C 0.85503 0.25971 0.34153 0.0
C392 C 0.83151 0.25825 0.35296 0.0
C393 C 0.82226 0.23771 0.37631 0.0
C394 C 0.83617 0.21898 0.38725 0.0
H395 H 0.85642 0.16376 0.26035 0.0
H396 H 0.83614 0.17462 0.31869 0.0
H397 H 0.85147 0.1939 0.26593 0.0
H398 H 0.88697 0.24228 0.34251 0.0
H399 H 0.8627 0.27529 0.32375 0.0
H400 H 0.71686 0.28313 0.11877 0.0
H401 H 0.68441 0.26066 0.08062 0.0
H402 H 0.67824 0.23061 0.27484 0.0
H403 H 0.71066 0.25309 0.31389 0.0
H404 H 0.67814 0.21224 0.08177 0.0
H405 H 0.61459 0.25822 0.23466 0.0
H406 H 0.64264 0.26941 0.21841 0.0
H407 H 0.63874 0.24754 0.27939 0.0
C408 C 0.70869 0.2717 0.15346 0.0
C409 C 0.71627 0.27003 0.21958 0.0
C410 C 0.69017 0.25887 0.13147 0.0
C411 C 0.6788 0.24429 0.17523 0.0
C412 C 0.68663 0.24208 0.2407 0.0
H413 H 0.58201 0.13798 0.09431 0.0
H414 H 0.61498 0.16088 0.12505 0.0
C415 C 0.70522 0.25484 0.26276 0.0
C416 C 0.65865 0.2315 0.15232 0.0
H417 H 0.60159 0.22558 0.17673 0.0
C418 C 0.66138 0.21516 0.10233 0.0
C419 C 0.63682 0.23568 0.17867 0.0
C420 C 0.63286 0.25379 0.23036 0.0
C421 C 0.64284 0.20242 0.07897 0.0
C422 C 0.62114 0.20607 0.10691 0.0
C423 C 0.61832 0.22278 0.1558 0.0
C424 C 0.60123 0.1923 0.08718 0.0
C425 C 0.64656 0.1853 0.02433 0.0
C426 C 0.58242 0.20252 0.05684 0.0
C427 C 0.56345 0.18949 0.03926 0.0
C428 C 0.56294 0.16605 0.05236 0.0
C429 C 0.58182 0.15596 0.08327 0.0
C430 C 0.60076 0.16898 0.10058 0.0
H431 H 0.66267 0.18853 -0.00281 0.0
H432 H 0.64748 0.16806 0.04628 0.0
H433 H 0.63227 0.18548 -0.01173 0.0
H434 H 0.58248 0.22056 0.04655 0.0
H435 H 0.54918 0.1978 0.01571 0.0
H436 H 0.63541 0.88466 0.78771 0.0
H437 H 0.61235 0.91768 0.81689 0.0
H438 H 0.67248 0.95316 0.8832 0.0
H439 H 0.69569 0.92055 0.85315 0.0
H440 H 0.6068 0.93907 0.93854 0.0
H441 H 0.64435 -0.00209 0.75337 0.0
H442 H 0.64877 0.96764 0.75046 0.0
H443 H 0.66485 0.98497 0.80729 0.0
C444 C 0.64374 0.89952 0.80823 0.0
C445 C 0.66742 0.90004 0.81749 0.0
C446 C 0.63054 0.91834 0.82499 0.0
C447 C 0.64078 0.93795 0.85121 0.0
C448 C 0.66432 0.93837 0.86163 0.0
H449 H 0.56749 0.04919 0.04314 0.0
H450 H 0.59286 0.01716 0.02143 0.0
C451 C 0.67754 0.91966 0.84458 0.0
C452 C 0.62682 0.95795 0.86814 0.0
H453 H 0.61937 0.01401 0.83251 0.0
C454 C 0.6095 0.95547 0.9154 0.0
C455 C 0.63032 0.97923 0.83736 0.0
C456 C 0.64793 0.98263 0.78385 0.0
C457 C 0.59555 0.97378 0.93285 0.0
C458 C 0.59936 0.99517 0.90305 0.0
C459 C 0.61668 -0.00237 0.85579 0.0
C460 C 0.58464 0.01491 0.91682 0.0
C461 C 0.57647 0.96991 0.98155 0.0
C462 C 0.5722 0.02462 0.86485 0.0
C463 C 0.55793 0.04297 0.87685 0.0
C464 C 0.55581 0.05204 0.94121 0.0
C465 C 0.56864 0.04254 -0.00689 0.0
C466 C 0.58302 0.02416 0.98091 0.0
H467 H 0.57263 0.95157 -0.01197 0.0
H468 H 0.58142 0.97694 0.03065 0.0
H469 H 0.56077 0.97865 0.96509 0.0
H470 H 0.57329 0.01777 0.81499 0.0
H471 H 0.54835 0.04984 0.83561 0.0
H472 H 0.5493 0.60667 0.82864 0.0
H473 H 0.5733 0.63883 0.79599 0.0
H474 H 0.58545 0.65449 0.00245 0.0
H475 H 0.56248 0.62188 0.03517 0.0
H476 H 0.56998 0.68269 0.81557 0.0
H477 H 0.64896 0.65353 0.93615 0.0
H478 H 0.62433 0.63547 0.9278 0.0
H479 H 0.62634 0.65556 -0.0048 0.0
C480 C 0.55726 0.61689 0.86696 0.0
C481 C 0.55428 0.6116 0.93441 0.0
C482 C 0.57093 0.63527 0.84828 0.0
C483 C 0.58162 0.64876 0.89675 0.0
C484 C 0.57806 0.64387 0.96412 0.0
H485 H 0.63414 0.78544 0.83927 0.0
H486 H 0.61018 0.75207 0.85927 0.0
C487 C 0.5648 0.62529 0.98276 0.0
C488 C 0.59613 0.66826 0.87721 0.0
H489 H 0.64782 0.69274 0.90552 0.0
C490 C 0.5871 0.68479 0.83462 0.0
C491 C 0.61864 0.67079 0.90098 0.0
C492 C 0.6302 0.65274 0.94192 0.0
C493 C 0.59976 0.70405 0.81647 0.0
C494 C 0.62172 0.70728 0.84379 0.0
C495 C 0.63088 0.69048 0.88521 0.0
C496 C 0.63575 0.7277 0.82977 0.0
C497 C 0.58957 0.7204 0.76723 0.0
C498 C 0.65833 0.72516 0.80873 0.0
C499 C 0.67221 0.74412 0.79957 0.0
C500 C 0.6637 0.76605 0.81014 0.0
C501 C 0.64103 0.7687 0.83016 0.0
C502 C 0.62727 0.74965 0.84096 0.0
H503 H 0.57676 0.71188 0.73508 0.0
H504 H 0.5808 0.73418 0.79454 0.0
H505 H 0.6028 0.7281 0.73501 0.0
H506 H 0.66529 0.70844 0.79979 0.0
H507 H 0.68959 0.74161 0.78364 0.0
H508 H 0.71382 0.40084 0.34245 0.0
H509 H 0.68282 0.42622 0.30981 0.0
H510 H 0.67909 0.39333 0.11863 0.0
H511 H 0.71 0.36829 0.14993 0.0
H512 H 0.67996 0.44024 0.11084 0.0
H513 H 0.61511 0.40964 0.29062 0.0
H514 H 0.64173 0.41849 0.32623 0.0
H515 H 0.64073 0.39404 0.27294 0.0
C516 C 0.70634 0.39899 0.29357 0.0
C517 C 0.71439 0.38253 0.24886 0.0
C518 C 0.68858 0.41341 0.27516 0.0
C519 C 0.67857 0.41143 0.2121 0.0
C520 C 0.6866 0.39508 0.16754 0.0
H521 H 0.55206 0.46303 0.05799 0.0
H522 H 0.58375 0.43971 0.09649 0.0
C523 C 0.7043 0.38077 0.18567 0.0
C524 C 0.66001 0.42662 0.19109 0.0
H525 H 0.60482 0.44048 0.22204 0.0
C526 C 0.66354 0.44038 0.13524 0.0
C527 C 0.63858 0.42646 0.22263 0.0
C528 C 0.63363 0.41125 0.28111 0.0
C529 C 0.64614 0.45399 0.10978 0.0
C530 C 0.62481 0.4541 0.14188 0.0
C531 C 0.62127 0.44038 0.19783 0.0
C532 C 0.60587 0.46823 0.11773 0.0
C533 C 0.65055 0.46767 0.04777 0.0
C534 C 0.6079 0.49192 0.11721 0.0
C535 C 0.58993 0.50527 0.09496 0.0
C536 C 0.56952 0.49515 0.07335 0.0
C537 C 0.56756 0.47136 0.07405 0.0
C538 C 0.58559 0.45801 0.09622 0.0
H539 H 0.66557 0.46133 0.02013 0.0
H540 H 0.63559 0.46727 0.01414 0.0
H541 H 0.6539 0.4856 0.06174 0.0
H542 H 0.62329 0.50011 0.13474 0.0
H543 H 0.59198 0.52355 0.09561 0.0
H544 H 0.9425 0.53755 0.57478 0.0
H545 H 0.91999 0.50285 0.56125 0.0
H546 H 0.90562 0.52115 0.35817 0.0
H547 H 0.92875 0.55539 0.37053 0.0
H548 H 0.87686 0.49432 0.5315 0.0
H549 H 0.93138 0.4588 0.33385 0.0
H550 H 0.93948 0.48348 0.38153 0.0
H551 H 0.92057 0.48615 0.31158 0.0
C552 C 0.93443 0.53424 0.52737 0.0
C553 C 0.9376 0.54904 0.47345 0.0
C554 C 0.92162 0.51439 0.51968 0.0
C555 C 0.91167 0.50912 0.45816 0.0
C556 C 0.9138 0.5245 0.40539 0.0
H557 H 0.80309 0.41526 0.37821 0.0
H558 H 0.82705 0.44765 0.40673 0.0
C559 C 0.92687 0.54415 0.4127 0.0
C560 C 0.89908 0.48753 0.44898 0.0
H561 H 0.89507 0.4411 0.34821 0.0
C562 C 0.88096 0.48256 0.49181 0.0
C563 C 0.90481 0.47191 0.39827 0.0
C564 C 0.92528 0.47522 0.35421 0.0
C565 C 0.86787 0.46281 0.48375 0.0
C566 C 0.8726 0.44803 0.43007 0.0
C567 C 0.89124 0.45258 0.38879 0.0
C568 C 0.85805 0.42816 0.41436 0.0
C569 C 0.84928 0.45792 0.5333 0.0
C570 C 0.86763 0.40652 0.40666 0.0
C571 C 0.85402 0.388 0.38877 0.0
C572 C 0.83057 0.3908 0.37874 0.0
C573 C 0.82105 0.41248 0.38644 0.0
C574 C 0.8347 0.43101 0.40332 0.0
H575 H 0.85297 0.46599 0.58206 0.0
H576 H 0.83306 0.46506 0.51472 0.0
H577 H 0.84698 0.4394 0.54098 0.0
H578 H 0.88565 0.40398 0.41442 0.0
H579 H 0.86183 0.37149 0.38326 0.0
H580 H 0.78586 0.76188 0.81297 0.0
H581 H 0.81851 0.73757 0.78856 0.0
H582 H 0.81479 0.75649 0.5821 0.0
H583 H 0.78222 0.78057 0.60551 0.0
H584 H 0.81944 0.70919 0.60533 0.0
H585 H 0.88339 0.76097 0.74257 0.0
H586 H 0.85854 0.75275 0.78864 0.0
H587 H 0.85583 0.77183 0.71971 0.0
C588 C 0.79195 0.76081 0.76235 0.0
C589 C 0.78148 0.77325 0.71126 0.0
C590 C 0.81066 0.74704 0.74862 0.0
C591 C 0.81917 0.74553 0.68372 0.0
C592 C 0.8085 0.75754 0.63255 0.0
H593 H 0.94627 0.69555 0.52817 0.0
H594 H 0.91358 0.71842 0.56168 0.0
C595 C 0.78989 0.77131 0.64614 0.0
C596 C 0.8391 0.73134 0.66838 0.0
H597 H 0.89625 0.72685 0.69376 0.0
C598 C 0.83623 0.71296 0.62481 0.0
C599 C 0.86097 0.73658 0.6933 0.0
C600 C 0.86504 0.7567 0.73826 0.0
C601 C 0.85471 0.69957 0.60553 0.0
C602 C 0.87652 0.7046 0.6312 0.0
C603 C 0.87943 0.72303 0.67457 0.0
C604 C 0.89655 0.69097 0.6129 0.0
C605 C 0.85085 0.68045 0.55678 0.0
C606 C 0.89786 0.66813 0.63159 0.0
C607 C 0.91643 0.65503 0.61258 0.0
C608 C 0.93411 0.66458 0.57465 0.0
C609 C 0.93292 0.68764 0.55708 0.0
C610 C 0.91431 0.70074 0.57627 0.0
H611 H 0.83431 0.68206 0.53059 0.0
H612 H 0.86465 0.67992 0.51928 0.0
H613 H 0.85084 0.66406 0.58386 0.0
H614 H 0.88445 0.66041 0.66075 0.0
H615 H 0.91683 0.63737 0.62738 0.0
H616 H 0.28251 0.36952 0.03869 0.0
H617 H 0.31756 0.39071 0.01641 0.0
H618 H 0.31011 0.42658 0.20175 0.0
H619 H 0.27513 0.40565 0.22463 0.0
H620 H 0.32422 0.44064 0.01363 0.0
H621 H 0.37489 0.39634 0.20672 0.0
H622 H 0.34879 0.38481 0.17322 0.0
H623 H 0.34793 0.40713 0.23394 0.0
C624 C 0.28824 0.38201 0.07456 0.0
C625 C 0.27606 0.3858 0.13362 0.0
C626 C 0.30825 0.39406 0.06172 0.0
C627 C 0.31649 0.40989 0.10797 0.0
C628 C 0.30412 0.41416 0.166 0.0
H629 H 0.41364 0.5178 0.09298 0.0
H630 H 0.38035 0.49321 0.10196 0.0
C631 C 0.28408 0.40225 0.17874 0.0
C632 C 0.33807 0.42201 0.09602 0.0
H633 H 0.39159 0.42916 0.15812 0.0
C634 C 0.33903 0.43804 0.04475 0.0
C635 C 0.35737 0.41829 0.13634 0.0
C636 C 0.35739 0.40058 0.19036 0.0
C637 C 0.35865 0.45113 0.03432 0.0
C638 C 0.3776 0.44814 0.07659 0.0
C639 C 0.37692 0.43149 0.12621 0.0
C640 C 0.39794 0.46276 0.07169 0.0
C641 C 0.35894 0.46818 0.9785 0.0
C642 C 0.41895 0.45359 0.05336 0.0
C643 C 0.4381 0.46759 0.0482 0.0
C644 C 0.43653 0.49095 0.06199 0.0
C645 C 0.41548 0.49991 0.08183 0.0
C646 C 0.39638 0.48593 0.08661 0.0
H647 H 0.34546 0.46459 0.9412 0.0
H648 H 0.35597 0.48539 -0.00087 0.0
H649 H 0.37568 0.4683 0.95315 0.0
H650 H 0.42045 0.43566 0.04221 0.0
H651 H 0.45405 0.46013 0.03297 0.0
H652 H 0.4287 0.60982 0.06696 0.0
H653 H 0.40255 0.64107 0.04369 0.0
H654 H 0.42443 0.6418 0.83945 0.0
H655 H 0.45032 0.6106 0.86166 0.0
H656 H 0.41378 0.68455 -0.00514 0.0
H657 H 0.35491 0.63899 0.82538 0.0
H658 H 0.37449 0.62442 0.87947 0.0
H659 H 0.3842 0.63625 0.80224 0.0
C660 C 0.42781 0.61651 0.01697 0.0
C661 C 0.44155 0.60765 0.96613 0.0
C662 C 0.4129 0.63436 0.00386 0.0
C663 C 0.41139 0.64346 0.9397 0.0
C664 C 0.42505 0.63468 0.88899 0.0
H665 H 0.36508 0.77313 0.79922 0.0
H666 H 0.38699 0.74047 0.83756 0.0
C667 C 0.43994 0.61691 0.90196 0.0
C668 C 0.3962 0.66274 0.92575 0.0
H669 H 0.35294 0.6795 0.82463 0.0
C670 C 0.4003 0.68344 0.95819 0.0
C671 C 0.37851 0.66108 0.87848 0.0
C672 C 0.37258 0.63893 0.84483 0.0
C673 C 0.38763 0.70284 0.94277 0.0
C674 C 0.37074 0.70146 0.89291 0.0
C675 C 0.36612 0.68055 0.86224 0.0
C676 C 0.35766 0.72149 0.87144 0.0
C677 C 0.39238 0.72457 0.98007 0.0
C678 C 0.33393 0.72136 0.87643 0.0
C679 C 0.32137 0.73983 0.85398 0.0
C680 C 0.33232 0.75879 0.82589 0.0
C681 C 0.35614 0.75885 0.82085 0.0
C682 C 0.36869 0.74029 0.84318 0.0
H683 H 0.40105 0.7213 0.02814 0.0
H684 H 0.40367 0.73553 0.94974 0.0
H685 H 0.37644 0.73402 -0.01012 0.0
H686 H 0.32513 0.70694 0.89778 0.0
H687 H 0.30306 0.73921 0.85879 0.0
H688 H 0.20942 0.76198 0.76447 0.0
H689 H 0.17716 0.73942 0.72556 0.0
H690 H 0.19341 0.75661 0.52289 0.0
H691 H 0.22528 0.77985 0.56153 0.0
H692 H 0.14904 0.76097 0.54582 0.0
H693 H 0.17779 0.67777 0.64079 0.0
H694 H 0.17625 0.69872 0.70527 0.0
H695 H 0.1962 0.7023 0.63835 0.0
C696 C 0.20626 0.76081 0.71158 0.0
C697 C 0.21996 0.77262 0.66605 0.0
C698 C 0.18787 0.74781 0.6894 0.0
C699 C 0.18314 0.746 0.62126 0.0
C700 C 0.19682 0.75772 0.57568 0.0
H701 H 0.08968 0.64418 0.46994 0.0
H702 H 0.1229 0.66807 0.49073 0.0
C703 C 0.21504 0.77095 0.59785 0.0
C704 C 0.16347 0.73248 0.59768 0.0
H705 H 0.13899 0.68006 0.60694 0.0
C706 C 0.14691 0.74321 0.55864 0.0
C707 C 0.16092 0.70924 0.61356 0.0
C708 C 0.17886 0.69627 0.65118 0.0
C709 C 0.12759 0.73145 0.53625 0.0
C710 C 0.12447 0.70853 0.55511 0.0
C711 C 0.14128 0.6977 0.593 0.0
C712 C 0.10396 0.69532 0.53654 0.0
C713 C 0.11096 0.74361 0.49186 0.0
C714 C 0.08221 0.70284 0.55456 0.0
C715 C 0.06312 0.68935 0.54172 0.0
C716 C 0.06555 0.6679 0.51209 0.0
C717 C 0.08729 0.66059 0.49318 0.0
C718 C 0.10629 0.67421 0.50503 0.0
H719 H 0.1192 0.75795 0.46527 0.0
H720 H 0.10337 0.73191 0.45461 0.0
H721 H 0.09708 0.75073 0.52266 0.0
H722 H 0.08005 0.71879 0.5805 0.0
H723 H 0.04659 0.69532 0.55744 0.0
H724 H 0.12304 0.37572 0.24185 0.0
H725 H 0.09688 0.40681 0.26672 0.0
H726 H 0.1527 0.45439 0.2622 0.0
H727 H 0.17888 0.42367 0.23684 0.0
H728 H 0.09942 0.43543 0.3781 0.0
H729 H 0.1047 0.48462 0.14419 0.0
H730 H 0.11389 0.45548 0.1503 0.0
H731 H 0.13197 0.47812 0.17922 0.0
C732 C 0.12971 0.39284 0.24532 0.0
C733 C 0.15306 0.3972 0.23733 0.0
C734 C 0.11475 0.41055 0.25959 0.0
C735 C 0.12286 0.43288 0.2654 0.0
C736 C 0.14606 0.43733 0.25659 0.0
H737 H 0.07139 0.5479 0.47846 0.0
H738 H 0.09189 0.51463 0.43815 0.0
C739 C 0.16101 0.41969 0.24251 0.0
C740 C 0.10745 0.45144 0.28493 0.0
H741 H 0.08903 0.50387 0.23823 0.0
C742 C 0.09691 0.45029 0.34727 0.0
C743 C 0.10408 0.47067 0.24425 0.0
C744 C 0.11407 0.47227 0.17547 0.0
C745 C 0.08373 0.4683 0.37113 0.0
C746 C 0.08135 0.48802 0.33189 0.0
C747 C 0.09116 0.48881 0.26849 0.0
C748 C 0.06897 0.50814 0.35611 0.0
C749 C 0.07249 0.46608 0.43811 0.0
C750 C 0.04967 0.51579 0.32224 0.0
C751 C 0.03798 0.53485 0.34486 0.0
C752 C 0.0455 0.54669 0.4016 0.0
C753 C 0.06508 0.53913 0.43484 0.0
C754 C 0.07674 0.52005 0.41215 0.0
H755 H 0.07094 0.44805 0.45359 0.0
H756 H 0.08291 0.4751 0.47585 0.0
H757 H 0.05531 0.47379 0.43771 0.0
H758 H 0.04353 0.50688 0.27861 0.0
H759 H 0.023 0.54022 0.31793 0.0
H760 H 0.0534 0.03271 0.69344 0.0
H761 H 0.05624 0.01507 0.80289 0.0
H762 H 0.98848 0.03761 0.84933 0.0
H763 H 0.98524 0.05489 0.7398 0.0
H764 H 0.05213 0.03085 0.93021 0.0
H765 H 0.98393 0.96908 0.87637 0.0
H766 H -0.00238 0.98557 0.81214 0.0
H767 H 0.97451 -0.00262 0.85941 0.0
C768 C 0.03926 0.03435 0.72747 0.0
C769 C 0.01893 0.04492 0.70776 0.0
C770 C 0.04087 0.02404 0.7896 0.0
C771 C 0.02222 0.02426 0.83262 0.0
C772 C 0.00271 0.03651 0.81542 0.0
H773 H 0.97686 0.03267 0.19195 0.0
H774 H 0.9847 0.02422 0.07572 0.0
C775 C 0.001 0.04666 0.7533 0.0
C776 C 0.02291 0.01205 0.89625 0.0
H777 H 0.9893 0.97887 -0.00609 0.0
C778 C 0.03894 0.01883 0.94379 0.0
C779 C 0.00603 0.99591 0.91302 0.0
C780 C 0.98973 0.98637 0.86215 0.0
C781 C 0.0367 0.01209 0.01006 0.0
C782 C 0.01797 -0.0016 0.02832 0.0
C783 C 0.00354 0.9895 0.97945 0.0
C784 C 0.0099 -0.00141 0.09712 0.0
C785 C 0.05287 0.0216 0.06135 0.0
C786 C 0.02081 0.98614 0.14693 0.0
C787 C 0.01615 0.9908 0.21358 0.0
C788 C 0.0009 0.0082 0.23029 0.0
C789 C 0.98882 0.01934 0.18009 0.0
C790 C 0.99319 0.01445 0.11391 0.0
H791 H 0.06717 0.03113 0.03846 0.0
H792 H 0.04359 0.03319 0.09524 0.0
H793 H 0.05994 0.00761 0.09178 0.0
H794 H 0.0338 0.97391 0.13435 0.0
H795 H 0.0257 0.98205 0.25172 0.0
H796 H 0.31657 0.85976 0.50362 0.0
H797 H 0.31677 0.85558 0.38299 0.0
H798 H 0.32813 0.78367 0.404 0.0
H799 H 0.32816 0.78793 0.52529 0.0
H800 H 0.34283 0.8318 0.27319 0.0
H801 H 0.25928 0.79448 0.34689 0.0
H802 H 0.2765 0.81058 0.40439 0.0
H803 H 0.28465 0.78233 0.38155 0.0
C804 C 0.32045 0.84334 0.48226 0.0
C805 C 0.32235 0.82415 0.52281 0.0
C806 C 0.3205 0.84094 0.41356 0.0
C807 C 0.32209 0.81928 0.3852 0.0
C808 C 0.32686 0.80049 0.42548 0.0
H809 H 0.26364 0.78771 -0.00132 0.0
H810 H 0.27732 0.78447 0.11258 0.0
C811 C 0.32702 0.80294 0.49446 0.0
C812 C 0.31347 0.81612 0.31732 0.0
H813 H 0.26472 0.80243 0.23437 0.0
C814 C 0.32594 0.82502 0.26424 0.0
C815 C 0.29131 0.80744 0.30653 0.0
C816 C 0.277 0.79824 0.36267 0.0
C817 C 0.31657 0.8259 0.20032 0.0
C818 C 0.294 0.81824 0.19026 0.0
C819 C 0.28191 0.80848 0.24279 0.0
C820 C 0.28256 0.82055 0.1256 0.0
C821 C 0.33083 0.83517 0.1443 0.0
C822 C 0.27949 0.84206 0.09742 0.0
C823 C 0.27163 0.84403 0.03239 0.0
C824 C 0.2667 0.82447 -0.00515 0.0
C825 C 0.26752 0.80311 0.02592 0.0
C826 C 0.27547 0.80117 0.09087 0.0
H827 H 0.34926 0.83429 0.15596 0.0
H828 H 0.32758 0.82574 0.09744 0.0
H829 H 0.32645 0.85325 0.13609 0.0
H830 H 0.28418 0.85724 0.12464 0.0
H831 H 0.27091 0.86076 0.01026 0.0
H832 H 0.52916 0.13123 0.71744 0.0
H833 H 0.52194 0.1372 0.59953 0.0
H834 H 0.46101 0.17428 0.64685 0.0
H835 H 0.46861 0.16882 0.76583 0.0
H836 H 0.45564 0.13205 0.57449 0.0
H837 H 0.51945 0.18804 0.45682 0.0
H838 H 0.53171 0.16948 0.51762 0.0
H839 H 0.51148 0.19054 0.54326 0.0
C840 C 0.51479 0.14151 0.70263 0.0
C841 C 0.49938 0.14954 0.74994 0.0
C842 C 0.51074 0.14503 0.63547 0.0
C843 C 0.49103 0.15629 0.61482 0.0
C844 C 0.47645 0.16582 0.66219 0.0
H845 H 0.44711 0.11805 0.21247 0.0
H846 H 0.44411 0.1333 0.32473 0.0
C847 C 0.4808 0.16272 0.7298 0.0
C848 C 0.48372 0.15337 0.54553 0.0
H849 H 0.50507 0.15696 0.38909 0.0
C850 C 0.4659 0.13803 0.53331 0.0
C851 C 0.49723 0.16121 0.49256 0.0
C852 C 0.51591 0.17842 0.50309 0.0
C853 C 0.46275 0.12845 0.47025 0.0
C854 C 0.47759 0.13485 0.41851 0.0
C855 C 0.49401 0.1518 0.42944 0.0
C856 C 0.47784 0.12292 0.35425 0.0
C857 C 0.44485 0.11031 0.46078 0.0
C858 C 0.49756 0.11145 0.33467 0.0
C859 C 0.49944 0.10285 0.27048 0.0
C860 C 0.48158 0.1056 0.22497 0.0
C861 C 0.46115 0.11553 0.24649 0.0
C862 C 0.45938 0.12433 0.31058 0.0
H863 H 0.43746 0.10462 0.5087 0.0
H864 H 0.43091 0.11711 0.42959 0.0
H865 H 0.45208 0.09536 0.4348 0.0
H866 H 0.51189 0.11004 0.36821 0.0
H867 H 0.51534 0.09523 0.25545 0.0
H868 H 0.1539 0.35419 -0.00991 0.0
H869 H 0.14624 0.3606 0.87162 0.0
H870 H 0.19167 0.30592 0.8215 0.0
H871 H 0.19983 0.29998 0.9389 0.0
H872 H 0.18734 0.37164 0.79678 0.0
H873 H 0.13903 0.30096 0.68254 0.0
H874 H 0.13587 0.30908 0.76876 0.0
H875 H 0.15923 0.29151 0.74333 0.0
C876 C 0.16152 0.34305 0.95361 0.0
C877 C 0.1776 0.32677 0.97272 0.0
C878 C 0.1571 0.34669 0.88633 0.0
C879 C 0.16824 0.33359 0.83835 0.0
C880 C 0.18262 0.31591 0.85806 0.0
H881 H 0.23047 0.31444 0.48109 0.0
H882 H 0.21477 0.31673 0.59302 0.0
C883 C 0.18743 0.31265 0.92488 0.0
C884 C 0.16945 0.3411 0.76905 0.0
H885 H 0.16785 0.31877 0.61344 0.0
C886 C 0.18246 0.36059 0.75599 0.0
C887 C 0.16303 0.32655 0.71671 0.0
C888 C 0.14832 0.30595 0.7284 0.0
C889 C 0.19147 0.3645 0.69274 0.0
C890 C 0.18674 0.34874 0.64165 0.0
C891 C 0.17177 0.33056 0.65331 0.0
C892 C 0.19875 0.34933 0.57771 0.0
C893 C 0.20747 0.38427 0.68261 0.0
C894 C 0.1958 0.36743 0.53365 0.0
C895 C 0.20516 0.36638 0.47021 0.0
C896 C 0.21715 0.34697 0.4497 0.0
C897 C 0.22126 0.32954 0.49549 0.0
C898 C 0.21215 0.33075 0.55911 0.0
H899 H 0.21248 0.39239 0.7303 0.0
H900 H 0.22307 0.37872 0.65639 0.0
H901 H 0.19902 0.39727 0.65149 0.0
H902 H 0.18531 0.38178 0.547 0.0
H903 H 0.20153 0.38001 0.43582 0.0
H904 H 0.79632 0.3627 0.05223 0.0
H905 H 0.8005 0.3575 0.93272 0.0
H906 H 0.83833 0.29602 0.96639 0.0
H907 H 0.83448 0.30145 0.0869 0.0
H908 H 0.83689 0.34491 0.83189 0.0
H909 H 0.77219 0.27872 0.8945 0.0
H910 H 0.77998 0.3005 0.95341 0.0
H911 H 0.79951 0.27811 0.93476 0.0
C912 C 0.80648 0.3487 0.03407 0.0
C913 C 0.81492 0.33234 0.07792 0.0
C914 C 0.80889 0.34576 0.966 0.0
C915 C 0.81941 0.32622 0.94128 0.0
C916 C 0.83015 0.31117 0.98504 0.0
H917 H 0.77309 0.28189 0.54907 0.0
H918 H 0.78902 0.28069 0.66084 0.0
C919 C 0.82802 0.31432 0.05356 0.0
C920 C 0.81439 0.31964 0.87243 0.0
H921 H 0.77406 0.29078 0.78428 0.0
C922 C 0.82359 0.33266 0.82093 0.0
C923 C 0.79698 0.30366 0.85885 0.0
C924 C 0.78644 0.28942 0.91304 0.0
C925 C 0.81496 0.33093 0.75628 0.0
C926 C 0.79625 0.31635 0.74394 0.0
C927 C 0.78816 0.30218 0.79444 0.0
C928 C 0.78411 0.31646 0.67992 0.0
C929 C 0.82559 0.34514 0.70226 0.0
C930 C 0.77462 0.33665 0.6559 0.0
C931 C 0.76549 0.33745 0.59209 0.0
C932 C 0.76553 0.31798 0.55172 0.0
C933 C 0.77291 0.29724 0.5787 0.0
C934 C 0.78222 0.29653 0.64235 0.0
H935 H 0.84357 0.34934 0.71405 0.0
H936 H 0.82496 0.33629 0.65357 0.0
H937 H 0.81618 0.36135 0.69779 0.0
H938 H 0.77514 0.35201 0.68549 0.0
H939 H 0.75968 0.35361 0.57308 0.0
H940 H 0.69947 0.79825 0.50137 0.0
H941 H 0.69362 0.80419 0.3828 0.0
H942 H 0.65736 0.86608 0.42419 0.0
H943 H 0.66281 0.85989 0.54389 0.0
H944 H 0.6548 0.81831 0.28821 0.0
H945 H 0.72305 0.88183 0.34302 0.0
H946 H 0.71614 0.85992 0.40217 0.0
H947 H 0.69663 0.88269 0.38794 0.0
C948 C 0.68941 0.81258 0.48519 0.0
C949 C 0.68181 0.82879 0.5309 0.0
C950 C 0.68598 0.81591 0.4177 0.0
C951 C 0.6753 0.83568 0.39531 0.0
C952 C 0.66559 0.85073 0.44107 0.0
H953 H 0.72337 0.87504 0.00142 0.0
H954 H 0.70662 0.87833 0.11158 0.0
C955 C 0.6687 0.84718 0.50907 0.0
C956 C 0.67919 0.84236 0.32613 0.0
H957 H 0.72011 0.8685 0.23407 0.0
C958 C 0.66859 0.8298 0.27576 0.0
C959 C 0.69718 0.85741 0.31059 0.0
C960 C 0.70903 0.87129 0.36349 0.0
C961 C 0.67659 0.83077 0.2104 0.0
C962 C 0.69609 0.84404 0.19629 0.0
C963 C 0.70542 0.85806 0.24555 0.0
C964 C 0.70802 0.84235 0.13226 0.0
C965 C 0.66453 0.81704 0.15769 0.0
C966 C 0.71572 0.82121 0.10956 0.0
C967 C 0.72528 0.81921 0.04661 0.0
C968 C 0.72757 0.83841 0.0059 0.0
C969 C 0.7218 0.85988 0.03144 0.0
C970 C 0.712 0.8618 0.09412 0.0
H971 H 0.64631 0.81462 0.1702 0.0
H972 H 0.66576 0.82528 0.10827 0.0
H973 H 0.67238 0.79998 0.15449 0.0
H974 H 0.71365 0.80614 0.1397 0.0
H975 H 0.72979 0.80249 0.02863 0.0
H976 H 0.46866 0.52549 0.75403 0.0
H977 H 0.47432 0.51935 0.6355 0.0
H978 H 0.53948 0.48892 0.67531 0.0
H979 H 0.53347 0.49446 0.79495 0.0
H980 H 0.53901 0.53208 0.60684 0.0
H981 H 0.48089 0.47007 0.48838 0.0
H982 H 0.4674 0.48655 0.55208 0.0
H983 H 0.49017 0.46768 0.57381 0.0
C984 C 0.48368 0.51654 0.73752 0.0
C985 C 0.50073 0.51057 0.78266 0.0
C986 C 0.48683 0.51285 0.67004 0.0
C987 C 0.50726 0.50358 0.64704 0.0
C988 C 0.5235 0.49579 0.69255 0.0
H989 H 0.5465 0.55016 0.25077 0.0
H990 H 0.55019 0.53475 0.36215 0.0
C991 C 0.52008 0.49901 0.76051 0.0
C992 C 0.51346 0.50777 0.5776 0.0
H993 H 0.49145 0.50277 0.42208 0.0
C994 C 0.52919 0.52525 0.56574 0.0
C995 C 0.50043 0.49887 0.5249 0.0
C996 C 0.48391 0.47959 0.53525 0.0
C997 C 0.53059 0.53567 0.50352 0.0
C998 C 0.51632 0.52782 0.45185 0.0
C999 C 0.50205 0.50901 0.46235 0.0
C1000 C 0.51485 0.53959 0.3876 0.0
C1001 C 0.54599 0.55603 0.49526 0.0
C1002 C 0.49381 0.54783 0.36564 0.0
C1003 C 0.49151 0.55638 0.30155 0.0
C1004 C 0.51029 0.55689 0.25872 0.0
C1005 C 0.53171 0.55019 0.28271 0.0
C1006 C 0.5339 0.54131 0.34641 0.0
H1007 H 0.55158 0.56309 0.54382 0.0
H1008 H 0.56139 0.5509 0.4674 0.0
H1009 H 0.53739 0.56966 0.46684 0.0
H1010 H 0.47896 0.54678 0.39724 0.0
H1011 H 0.47483 0.56144 0.28446 0.0
H1012 H 0.04973 0.62275 0.71801 0.0
H1013 H 0.0523 0.63756 0.83152 0.0
H1014 H 0.98994 0.60298 0.8815 0.0
H1015 H 0.98703 0.58843 0.76832 0.0
H1016 H 0.99071 0.65251 0.89753 0.0
H1017 H 0.0636 0.60879 0.01944 0.0
H1018 H 0.06704 0.6201 0.93695 0.0
H1019 H 0.04876 0.59613 0.94999 0.0
C1020 C 0.03702 0.61763 0.75389 0.0
C1021 C 0.01806 0.60458 0.73437 0.0
C1022 C 0.03847 0.62621 0.81851 0.0
C1023 C 0.02118 0.6215 0.86424 0.0
C1024 C 0.00333 0.6069 0.84641 0.0
H1025 H 0.96471 0.62373 0.22339 0.0
H1026 H 0.97353 0.62939 0.10627 0.0
C1027 C 0.00175 0.59851 0.78196 0.0
C1028 C 0.02004 0.63341 0.92844 0.0
H1029 H 0.0403 0.63144 0.08666 0.0
C1030 C 0.00185 0.64833 0.93869 0.0
C1031 C 0.03487 0.62823 0.98127 0.0
C1032 C 0.05469 0.61241 0.97199 0.0
C1033 C 0.99694 0.6567 0.00207 0.0
C1034 C 0.0105 0.64981 0.05607 0.0
C1035 C 0.02997 0.63666 0.04478 0.0
C1036 C 0.00222 0.65164 0.12475 0.0
C1037 C 0.97649 0.67166 0.01158 0.0
C1038 C 0.01501 0.66293 0.17352 0.0
C1039 C 0.00972 0.65998 0.24061 0.0
C1040 C 0.99204 0.64522 0.25917 0.0
C1041 C 0.97838 0.63521 0.21007 0.0
C1042 C 0.98336 0.63852 0.1433 0.0
H1043 H 0.97241 0.68115 0.96547 0.0
H1044 H 0.96157 0.66093 0.02419 0.0
H1045 H 0.97927 0.68394 0.05272 0.0
H1046 H 0.02977 0.67291 0.15987 0.0
H1047 H 0.02064 0.66766 0.27783 0.0
loop_
_geom_bond_atom_site_label_1
_geom_bond_atom_site_label_2
_geom_bond_distance
_geom_bond_site_symmetry_2
_ccdc_geom_bond_type
O0 Zn1 1.953 1_455 S
O0 C16 1.225 . S
Zn1 O0 1.953 1_655 S
Zn1 O2 1.949 1_655 S
Zn1 O8 1.919 . S
Zn1 O13 1.924 1_655 S
O2 Zn1 1.949 1_455 S
O2 Zn3 1.923 1_455 S
O2 Zn4 1.950 . S
O2 Zn5 1.945 1_455 S
Zn3 O2 1.923 1_655 S
Zn3 O6 1.933 . S
Zn3 O9 1.941 . S
Zn3 O10 1.965 . S
Zn4 O2 1.950 . S
Zn4 O11 1.938 . S
Zn4 O12 1.906 . S
Zn4 O22 1.953 . S
Zn5 O2 1.945 1_655 S
Zn5 O7 1.932 . S
Zn5 O14 1.977 1_655 S
Zn5 O15 1.910 1_655 S
O6 Zn3 1.933 . S
O6 C17 1.226 . S
O7 Zn5 1.932 . S
O7 C17 1.307 . S
O8 Zn1 1.919 . S
O8 C19 1.253 . S
O9 Zn3 1.941 . S
O9 C19 1.283 . S
O10 Zn3 1.965 . S
O10 C18 1.303 1_655 S
O11 Zn4 1.938 . S
O11 C18 1.247 . S
O12 Zn4 1.906 . S
O12 C20 1.304 . S
O13 Zn1 1.924 1_455 S
O13 C21 1.311 . S
O14 Zn5 1.977 1_455 S
O14 C20 1.272 . S
O15 Zn5 1.910 1_455 S
O15 C21 1.231 . S
C16 O0 1.225 . S
C16 O22 1.298 . S
C17 O6 1.226 . S
C17 O7 1.307 . S
C18 O10 1.303 1_455 S
C18 O11 1.247 . S
C19 O8 1.253 . S
C19 O9 1.283 . S
C20 O12 1.304 . S
C20 O14 1.272 . S
C21 O13 1.311 . S
C21 O15 1.231 . S
O22 Zn4 1.953 . S
O22 C16 1.298 . S
O23 Zn24 1.953 . S
O23 C39 1.225 . S
Zn24 O23 1.953 . S
Zn24 O25 1.949 . S
Zn24 O31 1.919 . S
Zn24 O36 1.924 . S
O25 Zn24 1.949 . S
O25 Zn26 1.923 . S
O25 Zn27 1.950 . S
O25 Zn28 1.945 . S
Zn26 O25 1.923 . S
Zn26 O29 1.933 . S
Zn26 O32 1.941 . S
Zn26 O33 1.965 . S
Zn27 O25 1.950 . S
Zn27 O34 1.938 . S
Zn27 O35 1.906 . S
Zn27 O45 1.953 . S
Zn28 O25 1.945 . S
Zn28 O30 1.932 . S
Zn28 O37 1.977 . S
Zn28 O38 1.910 . S
O29 Zn26 1.933 . S
O29 C40 1.226 . S
O30 Zn28 1.932 . S
O30 C40 1.307 . S
O31 Zn24 1.919 . S
O31 C42 1.253 . S
O32 Zn26 1.941 . S
O32 C42 1.283 . S
O33 Zn26 1.965 . S
O33 C41 1.303 . S
O34 Zn27 1.938 . S
O34 C41 1.247 . S
O35 Zn27 1.906 . S
O35 C43 1.304 . S
O36 Zn24 1.924 . S
O36 C44 1.311 . S
O37 Zn28 1.977 . S
O37 C43 1.272 . S
O38 Zn28 1.910 . S
O38 C44 1.231 . S
C39 O23 1.225 . S
C39 O45 1.298 . S
C40 O29 1.226 . S
C40 O30 1.307 . S
C41 O33 1.303 . S
C41 O34 1.247 . S
C42 O31 1.253 . S
C42 O32 1.283 . S
C43 O35 1.304 . S
C43 O37 1.272 . S
C44 O36 1.311 . S
C44 O38 1.231 . S
O45 Zn27 1.953 . S
O45 C39 1.298 . S
O46 Zn47 1.953 1_554 S
O46 C62 1.225 . S
Zn47 O46 1.953 1_556 S
Zn47 O48 1.949 1_556 S
Zn47 O54 1.919 1_556 S
Zn47 O59 1.924 . S
O48 Zn47 1.949 1_554 S
O48 Zn49 1.923 . S
O48 Zn50 1.950 . S
O48 Zn51 1.945 1_554 S
Zn49 O48 1.923 . S
Zn49 O52 1.933 . S
Zn49 O55 1.941 . S
Zn49 O56 1.965 . S
Zn50 O48 1.950 . S
Zn50 O57 1.938 . S
Zn50 O58 1.906 . S
Zn50 O68 1.953 . S
Zn51 O48 1.945 1_556 S
Zn51 O53 1.932 . S
Zn51 O60 1.977 . S
Zn51 O61 1.910 . S
O52 Zn49 1.933 . S
O52 C63 1.226 1_554 S
O53 Zn51 1.932 . S
O53 C63 1.307 . S
O54 Zn47 1.919 1_554 S
O54 C65 1.253 . S
O55 Zn49 1.941 . S
O55 C65 1.283 . S
O56 Zn49 1.965 . S
O56 C64 1.303 . S
O57 Zn50 1.938 . S
O57 C64 1.247 . S
O58 Zn50 1.906 . S
O58 C66 1.304 1_554 S
O59 Zn47 1.924 . S
O59 C67 1.311 . S
O60 Zn51 1.977 . S
O60 C66 1.272 . S
O61 Zn51 1.910 . S
O61 C67 1.231 . S
C62 O46 1.225 . S
C62 O68 1.298 . S
C63 O52 1.226 1_556 S
C63 O53 1.307 . S
C64 O56 1.303 . S
C64 O57 1.247 . S
C65 O54 1.253 . S
C65 O55 1.283 . S
C66 O58 1.304 1_556 S
C66 O60 1.272 . S
C67 O59 1.311 . S
C67 O61 1.231 . S
O68 Zn50 1.953 . S
O68 C62 1.298 . S
O69 Zn70 1.953 . S
O69 C85 1.225 . S
Zn70 O69 1.953 . S
Zn70 O71 1.949 . S
Zn70 O77 1.919 . S
Zn70 O82 1.924 . S
O71 Zn70 1.949 . S
O71 Zn72 1.923 . S
O71 Zn73 1.950 . S
O71 Zn74 1.945 . S
Zn72 O71 1.923 . S
Zn72 O75 1.933 . S
Zn72 O78 1.941 . S
Zn72 O79 1.965 . S
Zn73 O71 1.950 . S
Zn73 O80 1.938 . S
Zn73 O81 1.906 . S
Zn73 O91 1.953 . S
Zn74 O71 1.945 . S
Zn74 O76 1.932 . S
Zn74 O83 1.977 . S
Zn74 O84 1.910 . S
O75 Zn72 1.933 . S
O75 C86 1.226 . S
O76 Zn74 1.932 . S
O76 C86 1.307 . S
O77 Zn70 1.919 . S
O77 C88 1.253 . S
O78 Zn72 1.941 . S
O78 C88 1.283 . S
O79 Zn72 1.965 . S
O79 C87 1.303 . S
O80 Zn73 1.938 . S
O80 C87 1.247 . S
O81 Zn73 1.906 . S
O81 C89 1.304 . S
O82 Zn70 1.924 . S
O82 C90 1.311 . S
O83 Zn74 1.977 . S
O83 C89 1.272 . S
O84 Zn74 1.910 . S
O84 C90 1.231 . S
C85 O69 1.225 . S
C85 O91 1.298 . S
C86 O75 1.226 . S
C86 O76 1.307 . S
C87 O79 1.303 . S
C87 O80 1.247 . S
C88 O77 1.253 . S
C88 O78 1.283 . S
C89 O81 1.304 . S
C89 O83 1.272 . S
C90 O82 1.311 . S
C90 O84 1.231 . S
O91 Zn73 1.953 . S
O91 C85 1.298 . S
O92 Zn93 1.953 . S
O92 C108 1.225 . S
Zn93 O92 1.953 . S
Zn93 O94 1.949 . S
Zn93 O100 1.919 . S
Zn93 O105 1.924 . S
O94 Zn93 1.949 . S
O94 Zn95 1.923 . S
O94 Zn96 1.950 . S
O94 Zn97 1.945 . S
Zn95 O94 1.923 . S
Zn95 O98 1.933 . S
Zn95 O101 1.941 . S
Zn95 O102 1.965 . S
Zn96 O94 1.950 . S
Zn96 O103 1.938 . S
Zn96 O104 1.906 . S
Zn96 O114 1.953 . S
Zn97 O94 1.945 . S
Zn97 O99 1.932 . S
Zn97 O106 1.977 . S
Zn97 O107 1.910 . S
O98 Zn95 1.933 . S
O98 C109 1.226 . S
O99 Zn97 1.932 . S
O99 C109 1.307 . S
O100 Zn93 1.919 . S
O100 C111 1.253 . S
O101 Zn95 1.941 . S
O101 C111 1.283 . S
O102 Zn95 1.965 . S
O102 C110 1.303 . S
O103 Zn96 1.938 . S
O103 C110 1.247 . S
O104 Zn96 1.906 . S
O104 C112 1.304 . S
O105 Zn93 1.924 . S
O105 C113 1.311 . S
O106 Zn97 1.977 . S
O106 C112 1.272 . S
O107 Zn97 1.910 . S
O107 C113 1.231 . S
C108 O92 1.225 . S
C108 O114 1.298 . S
C109 O98 1.226 . S
C109 O99 1.307 . S
C110 O102 1.303 . S
C110 O103 1.247 . S
C111 O100 1.253 . S
C111 O101 1.283 . S
C112 O104 1.304 . S
C112 O106 1.272 . S
C113 O105 1.311 . S
C113 O107 1.231 . S
O114 Zn96 1.953 . S
O114 C108 1.298 . S
O115 Zn116 1.953 . S
O115 C131 1.225 . S
Zn116 O115 1.953 . S
Zn116 O117 1.949 . S
Zn116 O123 1.919 . S
Zn116 O128 1.924 . S
O117 Zn116 1.949 . S
O117 Zn118 1.923 . S
O117 Zn119 1.950 . S
O117 Zn120 1.945 . S
Zn118 O117 1.923 . S
Zn118 O121 1.933 . S
Zn118 O124 1.941 . S
Zn118 O125 1.965 . S
Zn119 O117 1.950 . S
Zn119 O126 1.938 . S
Zn119 O127 1.906 . S
Zn119 O137 1.953 . S
Zn120 O117 1.945 . S
Zn120 O122 1.932 . S
Zn120 O129 1.977 . S
Zn120 O130 1.910 . S
O121 Zn118 1.933 . S
O121 C132 1.226 . S
O122 Zn120 1.932 . S
O122 C132 1.307 . S
O123 Zn116 1.919 . S
O123 C134 1.253 . S
O124 Zn118 1.941 . S
O124 C134 1.283 . S
O125 Zn118 1.965 . S
O125 C133 1.303 . S
O126 Zn119 1.938 . S
O126 C133 1.247 . S
O127 Zn119 1.906 . S
O127 C135 1.304 . S
O128 Zn116 1.924 . S
O128 C136 1.311 . S
O129 Zn120 1.977 . S
O129 C135 1.272 . S
O130 Zn120 1.910 . S
O130 C136 1.231 . S
C131 O115 1.225 . S
C131 O137 1.298 . S
C132 O121 1.226 . S
C132 O122 1.307 . S
C133 O125 1.303 . S
C133 O126 1.247 . S
C134 O123 1.253 . S
C134 O124 1.283 . S
C135 O127 1.304 . S
C135 O129 1.272 . S
C136 O128 1.311 . S
C136 O130 1.231 . S
O137 Zn119 1.953 . S
O137 C131 1.298 . S
O138 Zn139 1.953 1_554 S
O138 C154 1.225 . S
Zn139 O138 1.953 1_556 S
Zn139 O140 1.949 1_556 S
Zn139 O146 1.919 1_556 S
Zn139 O151 1.924 . S
O140 Zn139 1.949 1_554 S
O140 Zn141 1.923 . S
O140 Zn142 1.950 . S
O140 Zn143 1.945 1_554 S
Zn141 O140 1.923 . S
Zn141 O144 1.933 . S
Zn141 O147 1.941 . S
Zn141 O148 1.965 . S
Zn142 O140 1.950 . S
Zn142 O149 1.938 . S
Zn142 O150 1.906 . S
Zn142 O160 1.953 . S
Zn143 O140 1.945 1_556 S
Zn143 O145 1.932 . S
Zn143 O152 1.977 . S
Zn143 O153 1.910 . S
O144 Zn141 1.933 . S
O144 C155 1.226 1_554 S
O145 Zn143 1.932 . S
O145 C155 1.307 . S
O146 Zn139 1.919 1_554 S
O146 C157 1.253 . S
O147 Zn141 1.941 . S
O147 C157 1.283 . S
O148 Zn141 1.965 . S
O148 C156 1.303 . S
O149 Zn142 1.938 . S
O149 C156 1.247 . S
O150 Zn142 1.906 . S
O150 C158 1.304 1_554 S
O151 Zn139 1.924 . S
O151 C159 1.311 . S
O152 Zn143 1.977 . S
O152 C158 1.272 . S
O153 Zn143 1.910 . S
O153 C159 1.231 . S
C154 O138 1.225 . S
C154 O160 1.298 . S
C155 O144 1.226 1_556 S
C155 O145 1.307 . S
C156 O148 1.303 . S
C156 O149 1.247 . S
C157 O146 1.253 . S
C157 O147 1.283 . S
C158 O150 1.304 1_556 S
C158 O152 1.272 . S
C159 O151 1.311 . S
C159 O153 1.231 . S
O160 Zn142 1.953 . S
O160 C154 1.298 . S
O161 Zn162 1.953 1_655 S
O161 C177 1.225 . S
Zn162 O161 1.953 1_455 S
Zn162 O163 1.949 . S
Zn162 O169 1.919 . S
Zn162 O174 1.924 . S
O163 Zn162 1.949 . S
O163 Zn164 1.923 . S
O163 Zn165 1.950 1_455 S
O163 Zn166 1.945 . S
Zn164 O163 1.923 . S
Zn164 O167 1.933 . S
Zn164 O170 1.941 . S
Zn164 O171 1.965 . S
Zn165 O163 1.950 1_655 S
Zn165 O172 1.938 . S
Zn165 O173 1.906 . S
Zn165 O183 1.953 . S
Zn166 O163 1.945 . S
Zn166 O168 1.932 . S
Zn166 O175 1.977 1_455 S
Zn166 O176 1.910 . S
O167 Zn164 1.933 . S
O167 C178 1.226 . S
O168 Zn166 1.932 . S
O168 C178 1.307 . S
O169 Zn162 1.919 . S
O169 C180 1.253 . S
O170 Zn164 1.941 . S
O170 C180 1.283 . S
O171 Zn164 1.965 . S
O171 C179 1.303 1_455 S
O172 Zn165 1.938 . S
O172 C179 1.247 . S
O173 Zn165 1.906 . S
O173 C181 1.304 . S
O174 Zn162 1.924 . S
O174 C182 1.311 1_455 S
O175 Zn166 1.977 1_655 S
O175 C181 1.272 . S
O176 Zn166 1.910 . S
O176 C182 1.231 1_455 S
C177 O161 1.225 . S
C177 O183 1.298 . S
C178 O167 1.226 . S
C178 O168 1.307 . S
C179 O171 1.303 1_655 S
C179 O172 1.247 . S
C180 O169 1.253 . S
C180 O170 1.283 . S
C181 O173 1.304 . S
C181 O175 1.272 . S
C182 O174 1.311 1_655 S
C182 O176 1.231 1_655 S
O183 Zn165 1.953 . S
O183 C177 1.298 . S
H184 C192 0.929 . S
H185 C194 0.930 . S
H186 C196 0.930 . S
H187 C199 0.929 . S
H188 C202 0.930 . S
H189 C204 0.960 . S
H190 C204 0.960 . S
H191 C204 0.960 . S
C192 H184 0.929 . S
C192 C193 1.377 . S
C192 C194 1.384 . S
C193 C192 1.377 . S
C193 C199 1.390 . S
C194 H185 0.930 . S
C194 C192 1.384 . S
C194 C195 1.372 . S
C195 C194 1.372 . S
C195 C196 1.400 . S
C195 C200 1.490 . S
C196 H186 0.930 . S
C196 C195 1.400 . S
C196 C199 1.386 . S
H197 C213 0.930 . S
H198 C214 0.931 . S
C199 H187 0.929 . S
C199 C193 1.390 . S
C199 C196 1.386 . S
C200 C195 1.490 . S
C200 C202 1.395 . S
C200 C203 1.403 . S
H201 C207 0.930 . S
C202 H188 0.930 . S
C202 C200 1.395 . S
C202 C205 1.403 . S
C203 C200 1.403 . S
C203 C204 1.524 . S
C203 C207 1.400 . S
C204 H189 0.960 . S
C204 H190 0.960 . S
C204 H191 0.960 . S
C204 C203 1.524 . S
C205 C202 1.403 . S
C205 C206 1.392 . S
C205 C209 1.495 . S
C206 C205 1.392 . S
C206 C207 1.385 . S
C206 C208 1.478 . S
C207 H201 0.930 . S
C207 C203 1.400 . S
C207 C206 1.385 . S
C208 C206 1.478 . S
C208 C210 1.381 . S
C208 C214 1.383 . S
C209 C205 1.495 . S
C209 H215 0.959 . S
C209 H216 0.961 . S
C209 H217 0.960 . S
C210 C208 1.381 . S
C210 C211 1.394 . S
C210 H218 0.930 . S
C211 C210 1.394 . S
C211 C212 1.383 . S
C211 H219 0.929 . S
C212 C211 1.383 . S
C212 C213 1.377 . S
C213 H197 0.930 . S
C213 C212 1.377 . S
C213 C214 1.379 . S
C214 H198 0.931 . S
C214 C208 1.383 . S
C214 C213 1.379 . S
H215 C209 0.959 . S
H216 C209 0.961 . S
H217 C209 0.960 . S
H218 C210 0.930 . S
H219 C211 0.929 . S
H220 C228 0.911 1_545 S
H221 C230 0.930 . S
H222 C232 0.930 . S
H223 C235 0.929 . S
H224 C238 0.930 . S
H225 C240 0.960 . S
H226 C240 0.960 . S
H227 C240 0.960 . S
C228 H220 0.911 1_565 S
C228 C229 1.383 . S
C228 C230 1.384 . S
C229 C228 1.383 . S
C229 C235 1.400 . S
C230 H221 0.930 . S
C230 C228 1.384 . S
C230 C231 1.372 . S
C231 C230 1.372 . S
C231 C232 1.400 . S
C231 C236 1.490 . S
C232 H222 0.930 . S
C232 C231 1.400 . S
C232 C235 1.386 . S
H233 C249 0.930 . S
H234 C250 0.931 . S
C235 H223 0.929 . S
C235 C229 1.400 . S
C235 C232 1.386 . S
C236 C231 1.490 . S
C236 C238 1.395 . S
C236 C239 1.403 . S
H237 C243 0.930 . S
C238 H224 0.930 . S
C238 C236 1.395 . S
C238 C241 1.403 . S
C239 C236 1.403 . S
C239 C240 1.524 . S
C239 C243 1.400 . S
C240 H225 0.960 . S
C240 H226 0.960 . S
C240 H227 0.960 . S
C240 C239 1.524 . S
C241 C238 1.403 . S
C241 C242 1.392 . S
C241 C245 1.495 . S
C242 C241 1.392 . S
C242 C243 1.385 . S
C242 C244 1.478 . S
C243 H237 0.930 . S
C243 C239 1.400 . S
C243 C242 1.385 . S
C244 C242 1.478 . S
C244 C246 1.381 . S
C244 C250 1.383 . S
C245 C241 1.495 . S
C245 H251 0.959 . S
C245 H252 0.961 . S
C245 H253 0.960 . S
C246 C244 1.381 . S
C246 C247 1.394 . S
C246 H254 0.930 . S
C247 C246 1.394 . S
C247 C248 1.383 . S
C247 H255 0.929 . S
C248 C247 1.383 . S
C248 C249 1.377 . S
C249 H233 0.930 . S
C249 C248 1.377 . S
C249 C250 1.379 . S
C250 H234 0.931 . S
C250 C244 1.383 . S
C250 C249 1.379 . S
H251 C245 0.959 . S
H252 C245 0.961 . S
H253 C245 0.960 . S
H254 C246 0.930 . S
H255 C247 0.929 . S
H256 C264 0.929 . S
H257 C266 0.930 . S
H258 C268 0.930 . S
H259 C271 0.929 . S
H260 C274 0.930 . S
H261 C276 0.960 . S
H262 C276 0.960 . S
H263 C276 0.960 . S
C264 H256 0.929 . S
C264 C265 1.377 . S
C264 C266 1.384 . S
C265 C264 1.377 . S
C265 C271 1.390 . S
C266 H257 0.930 . S
C266 C264 1.384 . S
C266 C267 1.372 . S
C267 C266 1.372 . S
C267 C268 1.400 . S
C267 C272 1.490 . S
C268 H258 0.930 . S
C268 C267 1.400 . S
C268 C271 1.386 . S
H269 C285 0.930 1_554 S
H270 C286 0.931 . S
C271 H259 0.929 . S
C271 C265 1.390 . S
C271 C268 1.386 . S
C272 C267 1.490 . S
C272 C274 1.395 . S
C272 C275 1.403 . S
H273 C279 0.930 . S
C274 H260 0.930 . S
C274 C272 1.395 . S
C274 C277 1.403 . S
C275 C272 1.403 . S
C275 C276 1.524 . S
C275 C279 1.400 . S
C276 H261 0.960 . S
C276 H262 0.960 . S
C276 H263 0.960 . S
C276 C275 1.524 . S
C277 C274 1.403 . S
C277 C278 1.392 . S
C277 C281 1.495 . S
C278 C277 1.392 . S
C278 C279 1.385 . S
C278 C280 1.444 1_565 S
C279 H273 0.930 . S
C279 C275 1.400 . S
C279 C278 1.385 . S
C280 C278 1.444 1_545 S
C280 C282 1.427 . S
C280 C286 1.372 1_545 S
C281 C277 1.495 . S
C281 H287 0.959 1_556 S
C281 H288 0.961 1_556 S
C281 H289 0.960 1_565 S
C282 C280 1.427 . S
C282 C283 1.394 . S
C282 H290 0.930 . S
C283 C282 1.394 . S
C283 C284 1.383 . S
C283 H291 0.929 . S
C284 C283 1.383 . S
C284 C285 1.377 . S
C285 H269 0.930 1_556 S
C285 C284 1.377 . S
C285 C286 1.379 1_545 S
C286 H270 0.931 . S
C286 C280 1.372 1_565 S
C286 C285 1.379 1_565 S
H287 C281 0.959 1_554 S
H288 C281 0.961 1_554 S
H289 C281 0.960 1_545 S
H290 C282 0.930 . S
H291 C283 0.929 . S
H292 C300 0.929 . S
H293 C302 0.930 . S
H294 C304 0.930 . S
H295 C307 0.929 1_556 S
H296 C310 0.930 . S
H297 C312 0.960 . S
H298 C312 0.960 . S
H299 C312 0.960 . S
C300 H292 0.929 . S
C300 C301 1.377 . S
C300 C302 1.384 . S
C301 C300 1.377 . S
C301 C307 1.390 . S
C302 H293 0.930 . S
C302 C300 1.384 . S
C302 C303 1.372 . S
C303 C302 1.372 . S
C303 C304 1.400 . S
C303 C308 1.490 . S
C304 H294 0.930 . S
C304 C303 1.400 . S
C304 C307 1.386 . S
H305 C321 0.930 . S
H306 C322 0.931 . S
C307 H295 0.929 1_554 S
C307 C301 1.390 . S
C307 C304 1.386 . S
C308 C303 1.490 . S
C308 C310 1.395 . S
C308 C311 1.403 . S
H309 C315 0.930 . S
C310 H296 0.930 . S
C310 C308 1.395 . S
C310 C313 1.403 . S
C311 C308 1.403 . S
C311 C312 1.524 . S
C311 C315 1.400 . S
C312 H297 0.960 . S
C312 H298 0.960 . S
C312 H299 0.960 . S
C312 C311 1.524 . S
C313 C310 1.403 . S
C313 C314 1.392 . S
C313 C317 1.495 . S
C314 C313 1.392 . S
C314 C315 1.385 . S
C314 C316 1.478 . S
C315 H309 0.930 . S
C315 C311 1.400 . S
C315 C314 1.385 . S
C316 C314 1.478 . S
C316 C318 1.381 . S
C316 C322 1.383 . S
C317 C313 1.495 . S
C317 H323 0.959 . S
C317 H324 0.961 . S
C317 H325 0.960 . S
C318 C316 1.381 . S
C318 C319 1.394 . S
C318 H326 0.930 . S
C319 C318 1.394 . S
C319 C320 1.383 . S
C319 H327 0.929 . S
C320 C319 1.383 . S
C320 C321 1.377 . S
C321 H305 0.930 . S
C321 C320 1.377 . S
C321 C322 1.379 . S
C322 H306 0.931 . S
C322 C316 1.383 . S
C322 C321 1.379 . S
H323 C317 0.959 . S
H324 C317 0.961 . S
H325 C317 0.960 . S
H326 C318 0.930 . S
H327 C319 0.929 . S
H328 C336 0.929 . S
H329 C338 0.930 . S
H330 C340 0.935 . S
H331 C343 0.929 . S
H332 C346 0.930 . S
H333 C348 0.960 . S
H334 C348 0.956 1_545 S
H335 C348 0.960 1_545 S
C336 H328 0.929 . S
C336 C337 1.377 1_565 S
C336 C338 1.384 . S
C337 C336 1.377 1_545 S
C337 C343 1.390 . S
C338 H329 0.930 . S
C338 C336 1.384 . S
C338 C339 1.372 . S
C339 C338 1.372 . S
C339 C340 1.380 1_565 S
C339 C344 1.490 . S
C340 H330 0.935 . S
C340 C339 1.380 1_545 S
C340 C343 1.401 . S
H341 C357 0.930 . S
H342 C358 0.931 . S
C343 H331 0.929 . S
C343 C337 1.390 . S
C343 C340 1.401 . S
C344 C339 1.490 . S
C344 C346 1.395 . S
C344 C347 1.403 . S
H345 C351 0.930 . S
C346 H332 0.930 . S
C346 C344 1.395 . S
C346 C349 1.403 . S
C347 C344 1.403 . S
C347 C348 1.524 . S
C347 C351 1.400 . S
C348 H333 0.960 . S
C348 H334 0.956 1_565 S
C348 H335 0.960 1_565 S
C348 C347 1.524 . S
C349 C346 1.403 . S
C349 C350 1.392 . S
C349 C353 1.495 . S
C350 C349 1.392 . S
C350 C351 1.385 . S
C350 C352 1.478 . S
C351 H345 0.930 . S
C351 C347 1.400 . S
C351 C350 1.385 . S
C352 C350 1.478 . S
C352 C354 1.381 . S
C352 C358 1.383 . S
C353 C349 1.495 . S
C353 H359 0.959 . S
C353 H360 0.961 . S
C353 H361 0.960 . S
C354 C352 1.381 . S
C354 C355 1.394 . S
C354 H362 0.930 . S
C355 C354 1.394 . S
C355 C356 1.383 . S
C355 H363 0.929 . S
C356 C355 1.383 . S
C356 C357 1.377 . S
C357 H341 0.930 . S
C357 C356 1.377 . S
C357 C358 1.379 . S
C358 H342 0.931 . S
C358 C352 1.383 . S
C358 C357 1.379 . S
H359 C353 0.959 . S
H360 C353 0.961 . S
H361 C353 0.960 . S
H362 C354 0.930 . S
H363 C355 0.929 . S
H364 C372 0.929 . S
H365 C374 0.930 . S
H366 C376 0.930 . S
H367 C379 0.929 . S
H368 C382 0.930 . S
H369 C384 0.960 . S
H370 C384 0.960 . S
H371 C384 0.960 . S
C372 H364 0.929 . S
C372 C373 1.377 . S
C372 C374 1.384 . S
C373 C372 1.377 . S
C373 C379 1.390 . S
C374 H365 0.930 . S
C374 C372 1.384 . S
C374 C375 1.372 . S
C375 C374 1.372 . S
C375 C376 1.400 . S
C375 C380 1.490 . S
C376 H366 0.930 . S
C376 C375 1.400 . S
C376 C379 1.386 . S
H377 C393 0.930 . S
H378 C394 0.931 . S
C379 H367 0.929 . S
C379 C373 1.390 . S
C379 C376 1.386 . S
C380 C375 1.490 . S
C380 C382 1.395 . S
C380 C383 1.403 . S
H381 C387 0.930 . S
C382 H368 0.930 . S
C382 C380 1.395 . S
C382 C385 1.403 . S
C383 C380 1.403 . S
C383 C384 1.524 . S
C383 C387 1.400 . S
C384 H369 0.960 . S
C384 H370 0.960 . S
C384 H371 0.960 . S
C384 C383 1.524 . S
C385 C382 1.403 . S
C385 C386 1.392 . S
C385 C389 1.495 . S
C386 C385 1.392 . S
C386 C387 1.385 . S
C386 C388 1.478 . S
C387 H381 0.930 . S
C387 C383 1.400 . S
C387 C386 1.385 . S
C388 C386 1.478 . S
C388 C390 1.381 . S
C388 C394 1.383 . S
C389 C385 1.495 . S
C389 H395 0.959 . S
C389 H396 0.961 . S
C389 H397 0.960 . S
C390 C388 1.381 . S
C390 C391 1.394 . S
C390 H398 0.930 . S
C391 C390 1.394 . S
C391 C392 1.383 . S
C391 H399 0.929 . S
C392 C391 1.383 . S
C392 C393 1.377 . S
C393 H377 0.930 . S
C393 C392 1.377 . S
C393 C394 1.379 . S
C394 H378 0.931 . S
C394 C388 1.383 . S
C394 C393 1.379 . S
H395 C389 0.959 . S
H396 C389 0.961 . S
H397 C389 0.960 . S
H398 C390 0.930 . S
H399 C391 0.929 . S
H400 C408 0.929 . S
H401 C410 0.930 . S
H402 C412 0.930 . S
H403 C415 0.929 . S
H404 C418 0.930 . S
H405 C420 0.960 . S
H406 C420 0.960 . S
H407 C420 0.960 . S
C408 H400 0.929 . S
C408 C409 1.377 . S
C408 C410 1.384 . S
C409 C408 1.377 . S
C409 C415 1.390 . S
C410 H401 0.930 . S
C410 C408 1.384 . S
C410 C411 1.372 . S
C411 C410 1.372 . S
C411 C412 1.400 . S
C411 C416 1.490 . S
C412 H402 0.930 . S
C412 C411 1.400 . S
C412 C415 1.386 . S
H413 C429 0.930 . S
H414 C430 0.931 . S
C415 H403 0.929 . S
C415 C409 1.390 . S
C415 C412 1.386 . S
C416 C411 1.490 . S
C416 C418 1.395 . S
C416 C419 1.403 . S
H417 C423 0.930 . S
C418 H404 0.930 . S
C418 C416 1.395 . S
C418 C421 1.403 . S
C419 C416 1.403 . S
C419 C420 1.524 . S
C419 C423 1.400 . S
C420 H405 0.960 . S
C420 H406 0.960 . S
C420 H407 0.960 . S
C420 C419 1.524 . S
C421 C418 1.403 . S
C421 C422 1.392 . S
C421 C425 1.495 . S
C422 C421 1.392 . S
C422 C423 1.385 . S
C422 C424 1.478 . S
C423 H417 0.930 . S
C423 C419 1.400 . S
C423 C422 1.385 . S
C424 C422 1.478 . S
C424 C426 1.381 . S
C424 C430 1.383 . S
C425 C421 1.495 . S
C425 H431 0.959 . S
C425 H432 0.961 . S
C425 H433 0.960 1_554 S
C426 C424 1.381 . S
C426 C427 1.394 1_554 S
C426 H434 0.930 1_554 S
C427 C426 1.394 1_556 S
C427 C428 1.383 1_556 S
C427 H435 0.929 . S
C428 C427 1.383 1_554 S
C428 C429 1.377 . S
C429 H413 0.930 . S
C429 C428 1.377 . S
C429 C430 1.379 . S
C430 H414 0.931 . S
C430 C424 1.383 . S
C430 C429 1.379 . S
H431 C425 0.959 . S
H432 C425 0.961 . S
H433 C425 0.960 1_556 S
H434 C426 0.930 1_556 S
H435 C427 0.929 . S
H436 C444 0.929 . S
H437 C446 0.930 . S
H438 C448 0.930 . S
H439 C451 0.929 . S
H440 C454 0.930 . S
H441 C456 0.960 . S
H442 C456 0.960 . S
H443 C456 0.960 . S
C444 H436 0.929 . S
C444 C445 1.377 . S
C444 C446 1.384 . S
C445 C444 1.377 . S
C445 C451 1.390 . S
C446 H437 0.930 . S
C446 C444 1.384 . S
C446 C447 1.372 . S
C447 C446 1.372 . S
C447 C448 1.400 . S
C447 C452 1.490 . S
C448 H438 0.930 . S
C448 C447 1.400 . S
C448 C451 1.386 . S
H449 C465 0.930 . S
H450 C466 0.931 1_554 S
C451 H439 0.929 . S
C451 C445 1.390 . S
C451 C448 1.386 . S
C452 C447 1.490 . S
C452 C454 1.395 . S
C452 C455 1.403 . S
H453 C459 0.930 1_545 S
C454 H440 0.930 . S
C454 C452 1.395 . S
C454 C457 1.403 . S
C455 C452 1.403 . S
C455 C456 1.524 . S
C455 C459 1.400 . S
C456 H441 0.960 . S
C456 H442 0.960 . S
C456 H443 0.960 . S
C456 C455 1.524 . S
C457 C454 1.403 . S
C457 C458 1.392 . S
C457 C461 1.495 . S
C458 C457 1.392 . S
C458 C459 1.385 . S
C458 C460 1.478 1_565 S
C459 H453 0.930 1_565 S
C459 C455 1.400 . S
C459 C458 1.385 . S
C460 C458 1.478 1_545 S
C460 C462 1.381 . S
C460 C466 1.383 . S
C461 C457 1.495 . S
C461 H467 0.959 . S
C461 H468 0.961 . S
C461 H469 0.960 . S
C462 C460 1.381 . S
C462 C463 1.394 . S
C462 H470 0.930 . S
C463 C462 1.394 . S
C463 C464 1.383 . S
C463 H471 0.929 . S
C464 C463 1.383 . S
C464 C465 1.377 1_556 S
C465 H449 0.930 . S
C465 C464 1.377 1_554 S
C465 C466 1.379 1_554 S
C466 H450 0.931 1_556 S
C466 C460 1.383 . S
C466 C465 1.379 1_556 S
H467 C461 0.959 . S
H468 C461 0.961 . S
H469 C461 0.960 . S
H470 C462 0.930 . S
H471 C463 0.929 . S
H472 C480 0.929 . S
H473 C482 0.930 . S
H474 C484 0.930 1_554 S
H475 C487 0.929 . S
H476 C490 0.930 . S
H477 C492 0.960 . S
H478 C492 0.960 . S
H479 C492 0.960 . S
C480 H472 0.929 . S
C480 C481 1.377 . S
C480 C482 1.384 . S
C481 C480 1.377 . S
C481 C487 1.390 1_556 S
C482 H473 0.930 . S
C482 C480 1.384 . S
C482 C483 1.372 . S
C483 C482 1.372 . S
C483 C484 1.400 . S
C483 C488 1.490 . S
C484 H474 0.930 1_556 S
C484 C483 1.400 . S
C484 C487 1.386 1_556 S
H485 C501 0.930 . S
H486 C502 0.931 . S
C487 H475 0.929 . S
C487 C481 1.390 1_554 S
C487 C484 1.386 1_554 S
C488 C483 1.490 . S
C488 C490 1.395 . S
C488 C491 1.403 . S
H489 C495 0.930 . S
C490 H476 0.930 . S
C490 C488 1.395 . S
C490 C493 1.403 . S
C491 C488 1.403 . S
C491 C492 1.524 . S
C491 C495 1.400 . S
C492 H477 0.960 . S
C492 H478 0.960 . S
C492 H479 0.960 . S
C492 C491 1.524 . S
C493 C490 1.403 . S
C493 C494 1.392 . S
C493 C497 1.495 . S
C494 C493 1.392 . S
C494 C495 1.385 . S
C494 C496 1.478 . S
C495 H489 0.930 . S
C495 C491 1.400 . S
C495 C494 1.385 . S
C496 C494 1.478 . S
C496 C498 1.381 . S
C496 C502 1.383 . S
C497 C493 1.495 . S
C497 H503 0.959 . S
C497 H504 0.961 . S
C497 H505 0.960 . S
C498 C496 1.381 . S
C498 C499 1.394 . S
C498 H506 0.930 . S
C499 C498 1.394 . S
C499 C500 1.383 . S
C499 H507 0.929 . S
C500 C499 1.383 . S
C500 C501 1.377 . S
C501 H485 0.930 . S
C501 C500 1.377 . S
C501 C502 1.379 . S
C502 H486 0.931 . S
C502 C496 1.383 . S
C502 C501 1.379 . S
H503 C497 0.959 . S
H504 C497 0.961 . S
H505 C497 0.960 . S
H506 C498 0.930 . S
H507 C499 0.929 . S
H508 C516 0.929 . S
H509 C518 0.930 . S
H510 C520 0.930 . S
H511 C523 0.929 . S
H512 C526 0.930 . S
H513 C528 0.960 . S
H514 C528 0.960 . S
H515 C528 0.960 . S
C516 H508 0.929 . S
C516 C517 1.377 . S
C516 C518 1.384 . S
C517 C516 1.377 . S
C517 C523 1.390 . S
C518 H509 0.930 . S
C518 C516 1.384 . S
C518 C519 1.372 . S
C519 C518 1.372 . S
C519 C520 1.400 . S
C519 C524 1.490 . S
C520 H510 0.930 . S
C520 C519 1.400 . S
C520 C523 1.386 . S
H521 C537 0.930 . S
H522 C538 0.931 . S
C523 H511 0.929 . S
C523 C517 1.390 . S
C523 C520 1.386 . S
C524 C519 1.490 . S
C524 C526 1.395 . S
C524 C527 1.403 . S
H525 C531 0.930 . S
C526 H512 0.930 . S
C526 C524 1.395 . S
C526 C529 1.403 . S
C527 C524 1.403 . S
C527 C528 1.524 . S
C527 C531 1.400 . S
C528 H513 0.960 . S
C528 H514 0.960 . S
C528 H515 0.960 . S
C528 C527 1.524 . S
C529 C526 1.403 . S
C529 C530 1.392 . S
C529 C533 1.495 . S
C530 C529 1.392 . S
C530 C531 1.385 . S
C530 C532 1.478 . S
C531 H525 0.930 . S
C531 C527 1.400 . S
C531 C530 1.385 . S
C532 C530 1.478 . S
C532 C534 1.381 . S
C532 C538 1.383 . S
C533 C529 1.495 . S
C533 H539 0.959 . S
C533 H540 0.961 1_554 S
C533 H541 0.960 . S
C534 C532 1.381 . S
C534 C535 1.394 . S
C534 H542 0.930 . S
C535 C534 1.394 . S
C535 C536 1.383 . S
C535 H543 0.929 . S
C536 C535 1.383 . S
C536 C537 1.377 . S
C537 H521 0.930 . S
C537 C536 1.377 . S
C537 C538 1.379 . S
C538 H522 0.931 . S
C538 C532 1.383 . S
C538 C537 1.379 . S
H539 C533 0.959 . S
H540 C533 0.961 1_556 S
H541 C533 0.960 . S
H542 C534 0.930 . S
H543 C535 0.929 . S
H544 C552 0.929 . S
H545 C554 0.930 . S
H546 C556 0.930 . S
H547 C559 0.929 . S
H548 C562 0.930 . S
H549 C564 0.960 . S
H550 C564 0.960 . S
H551 C564 0.960 . S
C552 H544 0.929 . S
C552 C553 1.377 . S
C552 C554 1.384 . S
C553 C552 1.377 . S
C553 C559 1.390 . S
C554 H545 0.930 . S
C554 C552 1.384 . S
C554 C555 1.372 . S
C555 C554 1.372 . S
C555 C556 1.400 . S
C555 C560 1.490 . S
C556 H546 0.930 . S
C556 C555 1.400 . S
C556 C559 1.386 . S
H557 C573 0.930 . S
H558 C574 0.931 . S
C559 H547 0.929 . S
C559 C553 1.390 . S
C559 C556 1.386 . S
C560 C555 1.490 . S
C560 C562 1.395 . S
C560 C563 1.403 . S
H561 C567 0.930 . S
C562 H548 0.930 . S
C562 C560 1.395 . S
C562 C565 1.403 . S
C563 C560 1.403 . S
C563 C564 1.524 . S
C563 C567 1.400 . S
C564 H549 0.960 . S
C564 H550 0.960 . S
C564 H551 0.960 . S
C564 C563 1.524 . S
C565 C562 1.403 . S
C565 C566 1.392 . S
C565 C569 1.495 . S
C566 C565 1.392 . S
C566 C567 1.385 . S
C566 C568 1.478 . S
C567 H561 0.930 . S
C567 C563 1.400 . S
C567 C566 1.385 . S
C568 C566 1.478 . S
C568 C570 1.381 . S
C568 C574 1.383 . S
C569 C565 1.495 . S
C569 H575 0.959 . S
C569 H576 0.961 . S
C569 H577 0.960 . S
C570 C568 1.381 . S
C570 C571 1.394 . S
C570 H578 0.930 . S
C571 C570 1.394 . S
C571 C572 1.383 . S
C571 H579 0.929 . S
C572 C571 1.383 . S
C572 C573 1.377 . S
C573 H557 0.930 . S
C573 C572 1.377 . S
C573 C574 1.379 . S
C574 H558 0.931 . S
C574 C568 1.383 . S
C574 C573 1.379 . S
H575 C569 0.959 . S
H576 C569 0.961 . S
H577 C569 0.960 . S
H578 C570 0.930 . S
H579 C571 0.929 . S
H580 C588 0.929 . S
H581 C590 0.930 . S
H582 C592 0.930 . S
H583 C595 0.929 . S
H584 C598 0.930 . S
H585 C600 0.960 . S
H586 C600 0.960 . S
H587 C600 0.960 . S
C588 H580 0.929 . S
C588 C589 1.377 . S
C588 C590 1.384 . S
C589 C588 1.377 . S
C589 C595 1.390 . S
C590 H581 0.930 . S
C590 C588 1.384 . S
C590 C591 1.372 . S
C591 C590 1.372 . S
C591 C592 1.400 . S
C591 C596 1.490 . S
C592 H582 0.930 . S
C592 C591 1.400 . S
C592 C595 1.386 . S
H593 C609 0.930 . S
H594 C610 0.931 . S
C595 H583 0.929 . S
C595 C589 1.390 . S
C595 C592 1.386 . S
C596 C591 1.490 . S
C596 C598 1.395 . S
C596 C599 1.403 . S
H597 C603 0.930 . S
C598 H584 0.930 . S
C598 C596 1.395 . S
C598 C601 1.403 . S
C599 C596 1.403 . S
C599 C600 1.524 . S
C599 C603 1.400 . S
C600 H585 0.960 . S
C600 H586 0.960 . S
C600 H587 0.960 . S
C600 C599 1.524 . S
C601 C598 1.403 . S
C601 C602 1.392 . S
C601 C605 1.495 . S
C602 C601 1.392 . S
C602 C603 1.385 . S
C602 C604 1.478 . S
C603 H597 0.930 . S
C603 C599 1.400 . S
C603 C602 1.385 . S
C604 C602 1.478 . S
C604 C606 1.381 . S
C604 C610 1.383 . S
C605 C601 1.495 . S
C605 H611 0.959 . S
C605 H612 0.961 . S
C605 H613 0.960 . S
C606 C604 1.381 . S
C606 C607 1.394 . S
C606 H614 0.930 . S
C607 C606 1.394 . S
C607 C608 1.383 . S
C607 H615 0.929 . S
C608 C607 1.383 . S
C608 C609 1.377 . S
C609 H593 0.930 . S
C609 C608 1.377 . S
C609 C610 1.379 . S
C610 H594 0.931 . S
C610 C604 1.383 . S
C610 C609 1.379 . S
H611 C605 0.959 . S
H612 C605 0.961 . S
H613 C605 0.960 . S
H614 C606 0.930 . S
H615 C607 0.929 . S
H616 C624 0.929 . S
H617 C626 0.930 . S
H618 C628 0.930 . S
H619 C631 0.929 . S
H620 C634 0.930 . S
H621 C636 0.960 . S
H622 C636 0.960 . S
H623 C636 0.960 . S
C624 H616 0.929 . S
C624 C625 1.377 . S
C624 C626 1.384 . S
C625 C624 1.377 . S
C625 C631 1.390 . S
C626 H617 0.930 . S
C626 C624 1.384 . S
C626 C627 1.372 . S
C627 C626 1.372 . S
C627 C628 1.400 . S
C627 C632 1.490 . S
C628 H618 0.930 . S
C628 C627 1.400 . S
C628 C631 1.386 . S
H629 C645 0.930 . S
H630 C646 0.931 . S
C631 H619 0.929 . S
C631 C625 1.390 . S
C631 C628 1.386 . S
C632 C627 1.490 . S
C632 C634 1.395 . S
C632 C635 1.403 . S
H633 C639 0.930 . S
C634 H620 0.930 . S
C634 C632 1.395 . S
C634 C637 1.403 . S
C635 C632 1.403 . S
C635 C636 1.524 . S
C635 C639 1.400 . S
C636 H621 0.960 . S
C636 H622 0.960 . S
C636 H623 0.960 . S
C636 C635 1.524 . S
C637 C634 1.403 . S
C637 C638 1.392 . S
C637 C641 1.495 . S
C638 C637 1.392 . S
C638 C639 1.385 . S
C638 C640 1.478 . S
C639 H633 0.930 . S
C639 C635 1.400 . S
C639 C638 1.385 . S
C640 C638 1.478 . S
C640 C642 1.381 . S
C640 C646 1.383 . S
C641 C637 1.495 . S
C641 H647 0.959 . S
C641 H648 0.961 . S
C641 H649 0.960 1_554 S
C642 C640 1.381 . S
C642 C643 1.394 1_554 S
C642 H650 0.930 1_554 S
C643 C642 1.394 1_556 S
C643 C644 1.383 1_556 S
C643 H651 0.929 . S
C644 C643 1.383 1_554 S
C644 C645 1.377 . S
C645 H629 0.930 . S
C645 C644 1.377 . S
C645 C646 1.379 . S
C646 H630 0.931 . S
C646 C640 1.383 . S
C646 C645 1.379 . S
H647 C641 0.959 . S
H648 C641 0.961 . S
H649 C641 0.960 1_556 S
H650 C642 0.930 1_556 S
H651 C643 0.929 . S
H652 C660 0.929 . S
H653 C662 0.930 1_554 S
H654 C664 0.930 . S
H655 C667 0.929 . S
H656 C670 0.930 . S
H657 C672 0.960 . S
H658 C672 0.960 . S
H659 C672 0.960 . S
C660 H652 0.929 . S
C660 C661 1.377 1_554 S
C660 C662 1.384 1_554 S
C661 C660 1.377 1_556 S
C661 C667 1.390 . S
C662 H653 0.930 1_556 S
C662 C660 1.384 1_556 S
C662 C663 1.372 . S
C663 C662 1.372 . S
C663 C664 1.400 . S
C663 C668 1.490 . S
C664 H654 0.930 . S
C664 C663 1.400 . S
C664 C667 1.386 . S
H665 C681 0.930 . S
H666 C682 0.931 . S
C667 H655 0.929 . S
C667 C661 1.390 . S
C667 C664 1.386 . S
C668 C663 1.490 . S
C668 C670 1.395 . S
C668 C671 1.403 . S
H669 C675 0.930 . S
C670 H656 0.930 . S
C670 C668 1.395 . S
C670 C673 1.403 . S
C671 C668 1.403 . S
C671 C672 1.524 . S
C671 C675 1.400 . S
C672 H657 0.960 . S
C672 H658 0.960 . S
C672 H659 0.960 . S
C672 C671 1.524 . S
C673 C670 1.403 . S
C673 C674 1.392 . S
C673 C677 1.495 . S
C674 C673 1.392 . S
C674 C675 1.385 . S
C674 C676 1.478 . S
C675 H669 0.930 . S
C675 C671 1.400 . S
C675 C674 1.385 . S
C676 C674 1.478 . S
C676 C678 1.381 . S
C676 C682 1.383 . S
C677 C673 1.495 . S
C677 H683 0.959 . S
C677 H684 0.961 . S
C677 H685 0.960 . S
C678 C676 1.381 . S
C678 C679 1.394 . S
C678 H686 0.930 . S
C679 C678 1.394 . S
C679 C680 1.383 . S
C679 H687 0.929 . S
C680 C679 1.383 . S
C680 C681 1.377 . S
C681 H665 0.930 . S
C681 C680 1.377 . S
C681 C682 1.379 . S
C682 H666 0.931 . S
C682 C676 1.383 . S
C682 C681 1.379 . S
H683 C677 0.959 . S
H684 C677 0.961 . S
H685 C677 0.960 . S
H686 C678 0.930 . S
H687 C679 0.929 . S
H688 C696 0.929 . S
H689 C698 0.930 . S
H690 C700 0.930 . S
H691 C703 0.929 . S
H692 C706 0.930 . S
H693 C708 0.960 . S
H694 C708 0.960 . S
H695 C708 0.960 . S
C696 H688 0.929 . S
C696 C697 1.377 . S
C696 C698 1.384 . S
C697 C696 1.377 . S
C697 C703 1.390 . S
C698 H689 0.930 . S
C698 C696 1.384 . S
C698 C699 1.372 . S
C699 C698 1.372 . S
C699 C700 1.400 . S
C699 C704 1.490 . S
C700 H690 0.930 . S
C700 C699 1.400 . S
C700 C703 1.386 . S
H701 C717 0.930 . S
H702 C718 0.931 . S
C703 H691 0.929 . S
C703 C697 1.390 . S
C703 C700 1.386 . S
C704 C699 1.490 . S
C704 C706 1.395 . S
C704 C707 1.403 . S
H705 C711 0.930 . S
C706 H692 0.930 . S
C706 C704 1.395 . S
C706 C709 1.403 . S
C707 C704 1.403 . S
C707 C708 1.524 . S
C707 C711 1.400 . S
C708 H693 0.960 . S
C708 H694 0.960 . S
C708 H695 0.960 . S
C708 C707 1.524 . S
C709 C706 1.403 . S
C709 C710 1.392 . S
C709 C713 1.495 . S
C710 C709 1.392 . S
C710 C711 1.385 . S
C710 C712 1.478 . S
C711 H705 0.930 . S
C711 C707 1.400 . S
C711 C710 1.385 . S
C712 C710 1.478 . S
C712 C714 1.381 . S
C712 C718 1.383 . S
C713 C709 1.495 . S
C713 H719 0.959 . S
C713 H720 0.961 . S
C713 H721 0.960 . S
C714 C712 1.381 . S
C714 C715 1.394 . S
C714 H722 0.930 . S
C715 C714 1.394 . S
C715 C716 1.383 . S
C715 H723 0.929 . S
C716 C715 1.383 . S
C716 C717 1.377 . S
C717 H701 0.930 . S
C717 C716 1.377 . S
C717 C718 1.379 . S
C718 H702 0.931 . S
C718 C712 1.383 . S
C718 C717 1.379 . S
H719 C713 0.959 . S
H720 C713 0.961 . S
H721 C713 0.960 . S
H722 C714 0.930 . S
H723 C715 0.929 . S
H724 C732 0.929 . S
H725 C734 0.930 . S
H726 C736 0.930 . S
H727 C739 0.929 . S
H728 C742 0.930 . S
H729 C744 0.960 . S
H730 C744 0.960 . S
H731 C744 0.960 . S
C732 H724 0.929 . S
C732 C733 1.377 . S
C732 C734 1.384 . S
C733 C732 1.377 . S
C733 C739 1.390 . S
C734 H725 0.930 . S
C734 C732 1.384 . S
C734 C735 1.372 . S
C735 C734 1.372 . S
C735 C736 1.400 . S
C735 C740 1.490 . S
C736 H726 0.930 . S
C736 C735 1.400 . S
C736 C739 1.386 . S
H737 C753 0.930 . S
H738 C754 0.931 . S
C739 H727 0.929 . S
C739 C733 1.390 . S
C739 C736 1.386 . S
C740 C735 1.490 . S
C740 C742 1.395 . S
C740 C743 1.403 . S
H741 C747 0.930 . S
C742 H728 0.930 . S
C742 C740 1.395 . S
C742 C745 1.403 . S
C743 C740 1.403 . S
C743 C744 1.524 . S
C743 C747 1.400 . S
C744 H729 0.960 . S
C744 H730 0.960 . S
C744 H731 0.960 . S
C744 C743 1.524 . S
C745 C742 1.403 . S
C745 C746 1.392 . S
C745 C749 1.495 . S
C746 C745 1.392 . S
C746 C747 1.385 . S
C746 C748 1.478 . S
C747 H741 0.930 . S
C747 C743 1.400 . S
C747 C746 1.385 . S
C748 C746 1.478 . S
C748 C750 1.381 . S
C748 C754 1.383 . S
C749 C745 1.495 . S
C749 H755 0.959 . S
C749 H756 0.961 . S
C749 H757 0.960 . S
C750 C748 1.381 . S
C750 C751 1.394 . S
C750 H758 0.930 . S
C751 C750 1.394 . S
C751 C752 1.383 . S
C751 H759 0.929 . S
C752 C751 1.383 . S
C752 C753 1.377 . S
C753 H737 0.930 . S
C753 C752 1.377 . S
C753 C754 1.379 . S
C754 H738 0.931 . S
C754 C748 1.383 . S
C754 C753 1.379 . S
H755 C749 0.959 . S
H756 C749 0.961 . S
H757 C749 0.960 . S
H758 C750 0.930 . S
H759 C751 0.929 . S
H760 C768 0.929 . S
H761 C770 0.930 . S
H762 C772 0.930 . S
H763 C775 0.929 . S
H764 C778 0.930 . S
H765 C780 0.960 . S
H766 C780 0.960 . S
H767 C780 0.960 . S
C768 H760 0.929 . S
C768 C769 1.377 . S
C768 C770 1.384 . S
C769 C768 1.377 . S
C769 C775 1.390 1_455 S
C770 H761 0.930 . S
C770 C768 1.384 . S
C770 C771 1.372 . S
C771 C770 1.372 . S
C771 C772 1.400 1_455 S
C771 C776 1.490 . S
C772 H762 0.930 . S
C772 C771 1.400 1_655 S
C772 C775 1.386 . S
H773 C789 0.930 . S
H774 C790 0.931 . S
C775 H763 0.929 . S
C775 C769 1.390 1_655 S
C775 C772 1.386 . S
C776 C771 1.490 . S
C776 C778 1.395 . S
C776 C779 1.403 1_455 S
H777 C783 0.930 . S
C778 H764 0.930 . S
C778 C776 1.395 . S
C778 C781 1.403 1_556 S
C779 C776 1.403 1_655 S
C779 C780 1.524 . S
C779 C783 1.400 1_556 S
C780 H765 0.960 . S
C780 H766 0.960 . S
C780 H767 0.960 . S
C780 C779 1.524 . S
C781 C778 1.403 1_554 S
C781 C782 1.392 . S
C781 C785 1.495 . S
C782 C781 1.392 . S
C782 C783 1.385 1_455 S
C782 C784 1.478 . S
C783 H777 0.930 . S
C783 C779 1.400 1_554 S
C783 C782 1.385 1_655 S
C784 C782 1.478 . S
C784 C786 1.381 . S
C784 C790 1.383 1_455 S
C785 C781 1.495 . S
C785 H791 0.959 . S
C785 H792 0.961 . S
C785 H793 0.960 . S
C786 C784 1.381 . S
C786 C787 1.394 . S
C786 H794 0.930 . S
C787 C786 1.394 . S
C787 C788 1.383 . S
C787 H795 0.929 . S
C788 C787 1.383 . S
C788 C789 1.377 1_455 S
C789 H773 0.930 . S
C789 C788 1.377 1_655 S
C789 C790 1.379 . S
C790 H774 0.931 . S
C790 C784 1.383 1_655 S
C790 C789 1.379 . S
H791 C785 0.959 . S
H792 C785 0.961 . S
H793 C785 0.960 . S
H794 C786 0.930 . S
H795 C787 0.929 . S
H796 C804 0.929 . S
H797 C806 0.930 . S
H798 C808 0.930 . S
H799 C811 0.929 . S
H800 C814 0.930 . S
H801 C816 0.960 . S
H802 C816 0.960 . S
H803 C816 0.960 . S
C804 H796 0.929 . S
C804 C805 1.377 . S
C804 C806 1.384 . S
C805 C804 1.377 . S
C805 C811 1.390 . S
C806 H797 0.930 . S
C806 C804 1.384 . S
C806 C807 1.372 . S
C807 C806 1.372 . S
C807 C808 1.400 . S
C807 C812 1.490 . S
C808 H798 0.930 . S
C808 C807 1.400 . S
C808 C811 1.386 . S
H809 C825 0.930 1_556 S
H810 C826 0.931 . S
C811 H799 0.929 . S
C811 C805 1.390 . S
C811 C808 1.386 . S
C812 C807 1.490 . S
C812 C814 1.395 . S
C812 C815 1.403 . S
H813 C819 0.930 . S
C814 H800 0.930 . S
C814 C812 1.395 . S
C814 C817 1.403 . S
C815 C812 1.403 . S
C815 C816 1.524 . S
C815 C819 1.400 . S
C816 H801 0.960 . S
C816 H802 0.960 . S
C816 H803 0.960 . S
C816 C815 1.524 . S
C817 C814 1.403 . S
C817 C818 1.392 . S
C817 C821 1.495 . S
C818 C817 1.392 . S
C818 C819 1.385 . S
C818 C820 1.478 . S
C819 H813 0.930 . S
C819 C815 1.400 . S
C819 C818 1.385 . S
C820 C818 1.478 . S
C820 C822 1.381 . S
C820 C826 1.383 . S
C821 C817 1.495 . S
C821 H827 0.959 . S
C821 H828 0.961 . S
C821 H829 0.960 . S
C822 C820 1.381 . S
C822 C823 1.394 . S
C822 H830 0.930 . S
C823 C822 1.394 . S
C823 C824 1.383 1_554 S
C823 H831 0.929 1_554 S
C824 C823 1.383 1_556 S
C824 C825 1.377 1_556 S
C825 H809 0.930 1_554 S
C825 C824 1.377 1_554 S
C825 C826 1.379 . S
C826 H810 0.931 . S
C826 C820 1.383 . S
C826 C825 1.379 . S
H827 C821 0.959 . S
H828 C821 0.961 . S
H829 C821 0.960 . S
H830 C822 0.930 . S
H831 C823 0.929 1_556 S
H832 C840 0.929 . S
H833 C842 0.930 . S
H834 C844 0.930 . S
H835 C847 0.929 . S
H836 C850 0.930 . S
H837 C852 0.960 . S
H838 C852 0.960 . S
H839 C852 0.960 . S
C840 H832 0.929 . S
C840 C841 1.377 . S
C840 C842 1.384 . S
C841 C840 1.377 . S
C841 C847 1.390 . S
C842 H833 0.930 . S
C842 C840 1.384 . S
C842 C843 1.372 . S
C843 C842 1.372 . S
C843 C844 1.400 . S
C843 C848 1.490 . S
C844 H834 0.930 . S
C844 C843 1.400 . S
C844 C847 1.386 . S
H845 C861 0.930 . S
H846 C862 0.931 . S
C847 H835 0.929 . S
C847 C841 1.390 . S
C847 C844 1.386 . S
C848 C843 1.490 . S
C848 C850 1.395 . S
C848 C851 1.403 . S
H849 C855 0.930 . S
C850 H836 0.930 . S
C850 C848 1.395 . S
C850 C853 1.403 . S
C851 C848 1.403 . S
C851 C852 1.524 . S
C851 C855 1.400 . S
C852 H837 0.960 . S
C852 H838 0.960 . S
C852 H839 0.960 . S
C852 C851 1.524 . S
C853 C850 1.403 . S
C853 C854 1.392 . S
C853 C857 1.495 . S
C854 C853 1.392 . S
C854 C855 1.385 . S
C854 C856 1.478 . S
C855 H849 0.930 . S
C855 C851 1.400 . S
C855 C854 1.385 . S
C856 C854 1.478 . S
C856 C858 1.381 . S
C856 C862 1.383 . S
C857 C853 1.495 . S
C857 H863 0.959 . S
C857 H864 0.961 . S
C857 H865 0.960 . S
C858 C856 1.381 . S
C858 C859 1.394 . S
C858 H866 0.930 . S
C859 C858 1.394 . S
C859 C860 1.383 . S
C859 H867 0.929 . S
C860 C859 1.383 . S
C860 C861 1.377 . S
C861 H845 0.930 . S
C861 C860 1.377 . S
C861 C862 1.379 . S
C862 H846 0.931 . S
C862 C856 1.383 . S
C862 C861 1.379 . S
H863 C857 0.959 . S
H864 C857 0.961 . S
H865 C857 0.960 . S
H866 C858 0.930 . S
H867 C859 0.929 . S
H868 C876 0.929 . S
H869 C878 0.930 . S
H870 C880 0.930 . S
H871 C883 0.929 . S
H872 C886 0.930 . S
H873 C888 0.960 . S
H874 C888 0.960 . S
H875 C888 0.960 . S
C876 H868 0.929 . S
C876 C877 1.377 . S
C876 C878 1.384 1_554 S
C877 C876 1.377 . S
C877 C883 1.390 . S
C878 H869 0.930 . S
C878 C876 1.384 1_556 S
C878 C879 1.372 . S
C879 C878 1.372 . S
C879 C880 1.400 . S
C879 C884 1.490 . S
C880 H870 0.930 . S
C880 C879 1.400 . S
C880 C883 1.386 1_556 S
H881 C897 0.930 . S
H882 C898 0.931 . S
C883 H871 0.929 . S
C883 C877 1.390 . S
C883 C880 1.386 1_554 S
C884 C879 1.490 . S
C884 C886 1.395 . S
C884 C887 1.403 . S
H885 C891 0.930 . S
C886 H872 0.930 . S
C886 C884 1.395 . S
C886 C889 1.403 . S
C887 C884 1.403 . S
C887 C888 1.524 . S
C887 C891 1.400 . S
C888 H873 0.960 . S
C888 H874 0.960 . S
C888 H875 0.960 . S
C888 C887 1.524 . S
C889 C886 1.403 . S
C889 C890 1.392 . S
C889 C893 1.495 . S
C890 C889 1.392 . S
C890 C891 1.385 . S
C890 C892 1.478 . S
C891 H885 0.930 . S
C891 C887 1.400 . S
C891 C890 1.385 . S
C892 C890 1.478 . S
C892 C894 1.381 . S
C892 C898 1.383 . S
C893 C889 1.495 . S
C893 H899 0.959 . S
C893 H900 0.961 . S
C893 H901 0.960 . S
C894 C892 1.381 . S
C894 C895 1.394 . S
C894 H902 0.930 . S
C895 C894 1.394 . S
C895 C896 1.383 . S
C895 H903 0.929 . S
C896 C895 1.383 . S
C896 C897 1.377 . S
C897 H881 0.930 . S
C897 C896 1.377 . S
C897 C898 1.379 . S
C898 H882 0.931 . S
C898 C892 1.383 . S
C898 C897 1.379 . S
H899 C893 0.959 . S
H900 C893 0.961 . S
H901 C893 0.960 . S
H902 C894 0.930 . S
H903 C895 0.929 . S
H904 C912 0.929 . S
H905 C914 0.930 . S
H906 C916 0.930 . S
H907 C919 0.929 . S
H908 C922 0.930 . S
H909 C924 0.960 . S
H910 C924 0.960 . S
H911 C924 0.960 . S
C912 H904 0.929 . S
C912 C913 1.377 . S
C912 C914 1.384 1_554 S
C913 C912 1.377 . S
C913 C919 1.390 . S
C914 H905 0.930 . S
C914 C912 1.384 1_556 S
C914 C915 1.372 . S
C915 C914 1.372 . S
C915 C916 1.400 . S
C915 C920 1.490 . S
C916 H906 0.930 . S
C916 C915 1.400 . S
C916 C919 1.386 1_556 S
H917 C933 0.930 . S
H918 C934 0.931 . S
C919 H907 0.929 . S
C919 C913 1.390 . S
C919 C916 1.386 1_554 S
C920 C915 1.490 . S
C920 C922 1.395 . S
C920 C923 1.403 . S
H921 C927 0.930 . S
C922 H908 0.930 . S
C922 C920 1.395 . S
C922 C925 1.403 . S
C923 C920 1.403 . S
C923 C924 1.524 . S
C923 C927 1.400 . S
C924 H909 0.960 . S
C924 H910 0.960 . S
C924 H911 0.960 . S
C924 C923 1.524 . S
C925 C922 1.403 . S
C925 C926 1.392 . S
C925 C929 1.495 . S
C926 C925 1.392 . S
C926 C927 1.385 . S
C926 C928 1.478 . S
C927 H921 0.930 . S
C927 C923 1.400 . S
C927 C926 1.385 . S
C928 C926 1.478 . S
C928 C930 1.381 . S
C928 C934 1.383 . S
C929 C925 1.495 . S
C929 H935 0.959 . S
C929 H936 0.961 . S
C929 H937 0.960 . S
C930 C928 1.381 . S
C930 C931 1.394 . S
C930 H938 0.930 . S
C931 C930 1.394 . S
C931 C932 1.383 . S
C931 H939 0.929 . S
C932 C931 1.383 . S
C932 C933 1.377 . S
C933 H917 0.930 . S
C933 C932 1.377 . S
C933 C934 1.379 . S
C934 H918 0.931 . S
C934 C928 1.383 . S
C934 C933 1.379 . S
H935 C929 0.959 . S
H936 C929 0.961 . S
H937 C929 0.960 . S
H938 C930 0.930 . S
H939 C931 0.929 . S
H940 C948 0.929 . S
H941 C950 0.930 . S
H942 C952 0.930 . S
H943 C955 0.929 . S
H944 C958 0.930 . S
H945 C960 0.960 . S
H946 C960 0.960 . S
H947 C960 0.960 . S
C948 H940 0.929 . S
C948 C949 1.377 . S
C948 C950 1.384 . S
C949 C948 1.377 . S
C949 C955 1.390 . S
C950 H941 0.930 . S
C950 C948 1.384 . S
C950 C951 1.372 . S
C951 C950 1.372 . S
C951 C952 1.400 . S
C951 C956 1.490 . S
C952 H942 0.930 . S
C952 C951 1.400 . S
C952 C955 1.386 . S
H953 C969 0.930 1_556 S
H954 C970 0.931 . S
C955 H943 0.929 . S
C955 C949 1.390 . S
C955 C952 1.386 . S
C956 C951 1.490 . S
C956 C958 1.395 . S
C956 C959 1.403 . S
H957 C963 0.930 . S
C958 H944 0.930 . S
C958 C956 1.395 . S
C958 C961 1.403 . S
C959 C956 1.403 . S
C959 C960 1.524 . S
C959 C963 1.400 . S
C960 H945 0.960 . S
C960 H946 0.960 . S
C960 H947 0.960 . S
C960 C959 1.524 . S
C961 C958 1.403 . S
C961 C962 1.392 . S
C961 C965 1.495 . S
C962 C961 1.392 . S
C962 C963 1.385 . S
C962 C964 1.478 . S
C963 H957 0.930 . S
C963 C959 1.400 . S
C963 C962 1.385 . S
C964 C962 1.478 . S
C964 C966 1.381 . S
C964 C970 1.383 . S
C965 C961 1.495 . S
C965 H971 0.959 . S
C965 H972 0.961 . S
C965 H973 0.960 . S
C966 C964 1.381 . S
C966 C967 1.394 . S
C966 H974 0.930 . S
C967 C966 1.394 . S
C967 C968 1.383 1_554 S
C967 H975 0.929 1_554 S
C968 C967 1.383 1_556 S
C968 C969 1.377 1_556 S
C969 H953 0.930 1_554 S
C969 C968 1.377 1_554 S
C969 C970 1.379 . S
C970 H954 0.931 . S
C970 C964 1.383 . S
C970 C969 1.379 . S
H971 C965 0.959 . S
H972 C965 0.961 . S
H973 C965 0.960 . S
H974 C966 0.930 . S
H975 C967 0.929 1_556 S
H976 C984 0.929 . S
H977 C986 0.930 . S
H978 C988 0.930 . S
H979 C991 0.929 . S
H980 C994 0.930 . S
H981 C996 0.960 . S
H982 C996 0.960 . S
H983 C996 0.960 . S
C984 H976 0.929 . S
C984 C985 1.377 . S
C984 C986 1.384 . S
C985 C984 1.377 . S
C985 C991 1.390 . S
C986 H977 0.930 . S
C986 C984 1.384 . S
C986 C987 1.372 . S
C987 C986 1.372 . S
C987 C988 1.400 . S
C987 C992 1.490 . S
C988 H978 0.930 . S
C988 C987 1.400 . S
C988 C991 1.386 . S
H989 C1005 0.930 . S
H990 C1006 0.931 . S
C991 H979 0.929 . S
C991 C985 1.390 . S
C991 C988 1.386 . S
C992 C987 1.490 . S
C992 C994 1.395 . S
C992 C995 1.403 . S
H993 C999 0.930 . S
C994 H980 0.930 . S
C994 C992 1.395 . S
C994 C997 1.403 . S
C995 C992 1.403 . S
C995 C996 1.524 . S
C995 C999 1.400 . S
C996 H981 0.960 . S
C996 H982 0.960 . S
C996 H983 0.960 . S
C996 C995 1.524 . S
C997 C994 1.403 . S
C997 C998 1.392 . S
C997 C1001 1.495 . S
C998 C997 1.392 . S
C998 C999 1.385 . S
C998 C1000 1.478 . S
C999 H993 0.930 . S
C999 C995 1.400 . S
C999 C998 1.385 . S
C1000 C998 1.478 . S
C1000 C1002 1.381 . S
C1000 C1006 1.383 . S
C1001 C997 1.495 . S
C1001 H1007 0.959 . S
C1001 H1008 0.961 . S
C1001 H1009 0.960 . S
C1002 C1000 1.381 . S
C1002 C1003 1.394 . S
C1002 H1010 0.930 . S
C1003 C1002 1.394 . S
C1003 C1004 1.383 . S
C1003 H1011 0.929 . S
C1004 C1003 1.383 . S
C1004 C1005 1.377 . S
C1005 H989 0.930 . S
C1005 C1004 1.377 . S
C1005 C1006 1.379 . S
C1006 H990 0.931 . S
C1006 C1000 1.383 . S
C1006 C1005 1.379 . S
H1007 C1001 0.959 . S
H1008 C1001 0.961 . S
H1009 C1001 0.960 . S
H1010 C1002 0.930 . S
H1011 C1003 0.929 . S
H1012 C1020 0.929 . S
H1013 C1022 0.930 . S
H1014 C1024 0.930 . S
H1015 C1027 0.929 . S
H1016 C1030 0.930 . S
H1017 C1032 0.960 1_554 S
H1018 C1032 0.960 . S
H1019 C1032 0.960 1_655 S
C1020 H1012 0.929 . S
C1020 C1021 1.377 1_455 S
C1020 C1022 1.384 . S
C1021 C1020 1.377 1_655 S
C1021 C1027 1.390 . S
C1022 H1013 0.930 . S
C1022 C1020 1.384 . S
C1022 C1023 1.372 1_455 S
C1023 C1022 1.372 1_655 S
C1023 C1024 1.400 . S
C1023 C1028 1.490 . S
C1024 H1014 0.930 . S
C1024 C1023 1.400 . S
C1024 C1027 1.386 . S
H1025 C1041 0.930 . S
H1026 C1042 0.931 . S
C1027 H1015 0.929 . S
C1027 C1021 1.390 . S
C1027 C1024 1.386 . S
C1028 C1023 1.490 . S
C1028 C1030 1.395 . S
C1028 C1031 1.393 1_655 S
H1029 C1035 0.924 1_455 S
C1030 H1016 0.930 . S
C1030 C1028 1.395 . S
C1030 C1033 1.403 1_556 S
C1031 C1028 1.393 1_455 S
C1031 C1032 1.537 . S
C1031 C1035 1.398 1_456 S
C1032 H1017 0.960 1_556 S
C1032 H1018 0.960 . S
C1032 H1019 0.960 1_455 S
C1032 C1031 1.537 . S
C1033 C1030 1.403 1_554 S
C1033 C1034 1.392 . S
C1033 C1037 1.495 . S
C1034 C1033 1.392 . S
C1034 C1035 1.393 . S
C1034 C1036 1.478 . S
C1035 H1029 0.924 1_655 S
C1035 C1031 1.398 1_654 S
C1035 C1034 1.393 . S
C1036 C1034 1.478 . S
C1036 C1038 1.381 1_655 S
C1036 C1042 1.383 . S
C1037 C1033 1.495 . S
C1037 H1043 0.959 . S
C1037 H1044 0.961 . S
C1037 H1045 0.960 . S
C1038 C1036 1.381 1_455 S
C1038 C1039 1.394 . S
C1038 H1046 0.930 . S
C1039 C1038 1.394 . S
C1039 C1040 1.383 1_455 S
C1039 H1047 0.929 . S
C1040 C1039 1.383 1_655 S
C1040 C1041 1.377 . S
C1041 H1025 0.930 . S
C1041 C1040 1.377 . S
C1041 C1042 1.379 . S
C1042 H1026 0.931 . S
C1042 C1036 1.383 . S
C1042 C1041 1.379 . S
H1043 C1037 0.959 . S
H1044 C1037 0.961 . S
H1045 C1037 0.960 . S
H1046 C1038 0.930 . S
H1047 C1039 0.929 . S
C193 C20 1.496 . S
C212 C85 1.520 . S
C229 C16 1.508 1_565 S
C248 C43 1.474 . S
C265 C39 1.524 . S
C284 C66 1.491 . S
C301 C62 1.521 . S
C320 C89 1.493 . S
C337 C19 1.485 . S
C356 C132 1.514 . S
C373 C17 1.524 . S
C392 C111 1.493 . S
C409 C109 1.522 . S
C428 C65 1.502 . S
C445 C134 1.485 . S
C464 C63 1.513 . S
C481 C158 1.488 . S
C500 C131 1.523 . S
C517 C112 1.494 . S
C536 C154 1.524 . S
C553 C181 1.496 . S
C572 C108 1.512 . S
C589 C135 1.496 . S
C608 C177 1.520 . S
C625 C86 1.522 . S
C644 C157 1.502 . S
C661 C155 1.526 . S
C680 C42 1.454 . S
C697 C40 1.525 . S
C716 C180 1.471 . S
C733 C88 1.485 . S
C752 C178 1.511 . S
C769 C18 0.808 . S
C788 C21 0.796 . S
C805 C44 0.786 . S
C824 C41 0.814 . S
C841 C67 0.791 . S
C860 C64 0.782 . S
C877 C90 0.799 . S
C896 C87 0.783 . S
C913 C113 0.784 . S
C932 C110 0.805 . S
C949 C136 0.785 . S
C968 C133 0.811 . S
C985 C159 0.792 . S
C1004 C156 0.782 . S
C1021 C179 0.803 . S
C1040 C182 0.846 . S
