# Generated by pormake.
# Topology qtz-x, (6)-cn, num edge types: 1
# Building blocks:
#     Node 0, Type 0, BuildingBlock: BETDEL_clean_sbu_0, # of connection points: 6
#     Node 1, Type 0, BuildingBlock: BETDEL_clean_sbu_0, # of connection points: 6
#     Node 2, Type 0, BuildingBlock: BETDEL_clean_sbu_0, # of connection points: 6
#     Edge 3, Type (0, 0), BuildingBlock: XUDNAN_clean_linker_2, # of connection points: 2
#     Edge 4, Type (0, 0), BuildingBlock: XUDNAN_clean_linker_2, # of connection points: 2
#     Edge 5, Type (0, 0), BuildingBlock: XUDNAN_clean_linker_2, # of connection points: 2
#     Edge 6, Type (0, 0), BuildingBlock: XUDNAN_clean_linker_2, # of connection points: 2
#     Edge 7, Type (0, 0), BuildingBlock: XUDNAN_clean_linker_2, # of connection points: 2
#     Edge 8, Type (0, 0), BuildingBlock: XUDNAN_clean_linker_2, # of connection points: 2
#     Edge 9, Type (0, 0), BuildingBlock: XUDNAN_clean_linker_2, # of connection points: 2
#     Edge 10, Type (0, 0), BuildingBlock: XUDNAN_clean_linker_2, # of connection points: 2
#     Edge 11, Type (0, 0), BuildingBlock: XUDNAN_clean_linker_2, # of connection points: 2
# Relax obj value: 0.134
# Max RMSD: 0.215
# Mean RMSD: 0.211
data_MOF--net-qtz-x--node1-BETDEL_clean_sbu_0--edge1-XUDNAN_clean_linker_2
_symmetry_space_group_name_H-M    P1
_symmetry_Int_Tables_number       1
_symmetry_cell_setting            triclinic
loop_
_symmetry_equiv_pos_as_xyz
'x, y, z'
_cell_length_a     14.485196
_cell_length_b     14.404926
_cell_length_c     42.526599
_cell_angle_alpha  84.891324
_cell_angle_beta   98.133068
_cell_angle_gamma 120.18289
loop_
_atom_site_label
_atom_site_type_symbol
_atom_site_fract_x
_atom_site_fract_y
_atom_site_fract_z
_atom_type_partial_charge
Dy0 Dy 0.94834 0.46176 0.20749 0.0
C1 C 0.26199 0.70676 0.12362 0.0
C2 C 0.83489 0.34411 0.25694 0.0
Dy3 Dy 0.1392 0.59091 0.17132 0.0
O4 O 0.82214 0.41771 0.24033 0.0
O5 O 0.90308 0.32912 0.24447 0.0
O6 O 0.8874 0.57357 0.19333 0.0
O7 O 0.05596 0.63607 0.20074 0.0
C8 C 0.98134 0.65726 0.19118 0.0
C9 C 0.09121 0.38636 0.1847 0.0
O10 O 0.22825 0.65018 0.21902 0.0
O11 O 0.09241 0.50656 0.24355 0.0
O12 O 0.26887 0.63082 0.1407 0.0
O13 O 0.1932 0.7251 0.13436 0.0
O14 O 0.18883 0.46582 0.18473 0.0
O15 O 0.02609 0.41964 0.17614 0.0
O16 O 0.85877 0.40381 0.15937 0.0
O17 O 0.99756 0.54263 0.13407 0.0
C18 C 0.19173 0.58817 0.24432 0.0
C19 C 0.89735 0.46199 0.13344 0.0
Dy20 Dy 0.63982 0.15912 0.54795 0.0
C21 C 0.51304 0.84302 0.45622 0.0
C22 C 0.68237 0.31754 0.5879 0.0
Dy23 Dy 0.54486 0.97237 0.50488 0.0
O24 O 0.75234 0.31774 0.57177 0.0
O25 O 0.5889 0.23404 0.5807 0.0
O26 O 0.7546 0.11025 0.5738 0.0
O27 O 0.70989 0.07974 0.52569 0.0
C28 C 0.76467 0.06758 0.54986 0.0
C29 C 0.39898 0.01825 0.5203 0.0
O30 O 0.5494 0.89222 0.55234 0.0
O31 O 0.53822 0.0191 0.57823 0.0
O32 O 0.46251 0.81036 0.48135 0.0
O33 O 0.58188 0.94429 0.45832 0.0
O34 O 0.37677 0.92244 0.51386 0.0
O35 O 0.49381 0.08536 0.51487 0.0
O36 O 0.68923 0.25225 0.5022 0.0
O37 O 0.59178 0.10617 0.46884 0.0
C38 C 0.52899 0.92332 0.57765 0.0
C39 C 0.65596 0.21013 0.47348 0.0
Dy40 Dy 0.487 0.63752 0.86648 0.0
C41 C 0.73586 0.52428 0.80453 0.0
C42 C 0.36468 0.66259 0.90489 0.0
Dy43 Dy 0.61581 0.55326 0.84268 0.0
O44 O 0.42974 0.7374 0.88668 0.0
O45 O 0.36241 0.57356 0.9005 0.0
O46 O 0.61058 0.80639 0.85289 0.0
O47 O 0.65826 0.69407 0.86865 0.0
C48 C 0.69027 0.78772 0.8576 0.0
C49 C 0.42348 0.39946 0.85683 0.0
O50 O 0.67702 0.5524 0.89395 0.0
O51 O 0.53802 0.56588 0.91018 0.0
O52 O 0.65614 0.44875 0.81845 0.0
O53 O 0.75561 0.61693 0.81364 0.0
O54 O 0.5088 0.38986 0.86041 0.0
O55 O 0.44167 0.48826 0.84317 0.0
O56 O 0.42071 0.6316 0.81537 0.0
O57 O 0.55488 0.61174 0.79839 0.0
C58 C 0.61854 0.54542 0.91635 0.0
C59 C 0.47268 0.62908 0.79251 0.0
H60 H 0.15342 0.8598 0.20739 0.0
H61 H 0.83278 0.69311 0.15671 0.0
H62 H 0.83075 0.86275 0.14847 0.0
H63 H 0.11311 0.0354 0.24818 0.0
H64 H 0.24327 0.15232 0.24497 0.0
H65 H 0.22722 0.0201 0.2445 0.0
H66 H 0.30591 0.06462 0.19062 0.0
H67 H 0.32377 0.19771 0.19113 0.0
H68 H 0.24744 0.11291 0.15764 0.0
H69 H 0.85009 0.03947 0.15129 0.0
H70 H 0.9009 0.22703 0.15878 0.0
H71 H 0.21328 0.29012 0.20532 0.0
C72 C 0.08438 0.86018 0.19388 0.0
C73 C 0.99299 0.76361 0.18277 0.0
C74 C 0.90322 0.76626 0.16559 0.0
C75 C 0.9012 0.86215 0.16074 0.0
C76 C 0.99008 0.95526 0.17299 0.0
C77 C 0.08101 0.95633 0.18869 0.0
C78 C 0.16335 0.06849 0.20024 0.0
C79 C 0.18815 0.06904 0.23663 0.0
C80 C 0.26622 0.1136 0.18393 0.0
C81 C 0.10274 0.12852 0.18922 0.0
C82 C 0.00287 0.06079 0.17368 0.0
C83 C 0.92883 0.0942 0.16287 0.0
C84 C 0.9582 0.20072 0.16745 0.0
C85 C 0.06122 0.27303 0.18238 0.0
C86 C 0.13443 0.23646 0.19352 0.0
H87 H 0.18223 0.88357 0.52021 0.0
H88 H 0.4327 0.21569 0.53357 0.0
H89 H 0.29715 0.26224 0.54383 0.0
H90 H 0.98292 0.94151 0.47834 0.0
H91 H 0.87197 0.83018 0.49594 0.0
H92 H 0.98907 0.82178 0.4911 0.0
H93 H 0.01131 0.77943 0.55128 0.0
H94 H 0.89424 0.78767 0.55632 0.0
H95 H 0.0203 0.87014 0.57969 0.0
H96 H 0.13588 0.27235 0.55305 0.0
H97 H 0.95711 0.24809 0.55803 0.0
H98 H 0.80805 0.9115 0.53566 0.0
C99 C 0.20849 0.966 0.52543 0.0
C100 C 0.31807 0.04609 0.52644 0.0
C101 C 0.34935 0.15313 0.53301 0.0
C102 C 0.27292 0.18023 0.53882 0.0
C103 C 0.1655 0.09946 0.53761 0.0
C104 C 0.13298 -0.00535 0.53086 0.0
C105 C 0.01193 0.92399 0.52999 0.0
C106 C 0.961 0.8766 0.49687 0.0
C107 C 0.98276 0.83506 0.55586 0.0
C108 C 0.98138 0.00556 0.53726 0.0
C109 C 0.07157 0.106 0.54187 0.0
C110 C 0.06476 0.19426 0.54942 0.0
C111 C 0.96316 0.17969 0.55227 0.0
C112 C 0.86971 0.07804 0.54728 0.0
C113 C 0.87867 0.98992 0.53953 0.0
H114 H 0.78422 -0.00341 0.83355 0.0
H115 H 0.85486 0.76755 0.88931 0.0
H116 H 0.04526 0.90544 0.89801 0.0
H117 H 0.02596 0.12092 0.79449 0.0
H118 H 0.04536 0.25476 0.79435 0.0
H119 H 0.91194 0.14023 0.7937 0.0
H120 H 0.88375 0.20815 0.84392 0.0
H121 H 0.01754 0.32247 0.84487 0.0
H122 H 0.97772 0.23414 0.87918 0.0
H123 H 0.22423 0.06243 0.90142 0.0
H124 H 0.39286 0.22901 0.89422 0.0
H125 H 0.2173 0.362 0.83405 0.0
C126 C 0.84011 0.97612 0.84763 0.0
C127 C 0.80471 0.87164 0.86099 0.0
C128 C 0.88 0.84697 0.87892 0.0
C129 C 0.98834 0.92495 0.88417 0.0
C130 C 0.02071 0.02718 0.87105 0.0
C131 C 0.94987 0.05318 0.85275 0.0
C132 C 0.00893 0.16824 0.84 0.0
C133 C 0.99736 0.17117 0.80346 0.0
C134 C 0.96961 0.23732 0.85276 0.0
C135 C 0.12379 0.20181 0.85386 0.0
C136 C 0.12735 0.11897 0.87207 0.0
C137 C 0.22285 0.12791 0.88716 0.0
C138 C 0.31824 0.22299 0.88287 0.0
C139 C 0.31816 0.30797 0.86341 0.0
C140 C 0.2194 0.29839 0.84919 0.0
H141 H 0.34741 0.55392 0.9607 0.0
H142 H 0.32286 0.82331 0.91527 0.0
H143 H 0.29784 0.87001 0.96717 0.0
H144 H 0.16103 0.48021 1.01879 0.0
H145 H 0.24325 0.45063 0.04918 0.0
H146 H 0.247 0.43413 1.00801 0.0
H147 H 0.45337 0.56034 1.01467 0.0
H148 H 0.45045 0.5788 0.05575 0.0
H149 H 0.50865 0.69378 0.02933 0.0
H150 H 0.2737 0.88339 0.0253 0.0
H151 H 0.2574 0.86485 0.08319 0.0
H152 H 0.32267 0.60086 0.08944 0.0
C153 C 0.33387 0.6211 0.96145 0.0
C154 C 0.33413 0.68356 0.93396 0.0
C155 C 0.32068 0.77343 0.93609 0.0
C156 C 0.30711 0.80069 0.96544 0.0
C157 C 0.3102 0.73876 0.99238 0.0
C158 C 0.32398 0.65122 0.99051 0.0
C159 C 0.3323 0.60171 0.02286 0.0
C160 C 0.2404 0.48478 0.02482 0.0
C161 C 0.44275 0.60917 0.03113 0.0
C162 C 0.31983 0.67412 0.04342 0.0
C163 C 0.30595 0.75212 0.02555 0.0
C164 C 0.28616 0.82366 0.03952 0.0
C165 C 0.27786 0.81321 0.07239 0.0
C166 C 0.29135 0.73323 0.09086 0.0
C167 C 0.31499 0.66482 0.07615 0.0
H168 H 0.55697 0.23355 0.41604 0.0
H169 H 0.86782 0.31814 0.46774 0.0
H170 H 0.94859 0.36657 0.41718 0.0
H171 H 0.57096 0.11587 0.3544 0.0
H172 H 0.51058 0.16649 0.32265 0.0
H173 H 0.47768 0.15653 0.36253 0.0
H174 H 0.5393 0.35897 0.3624 0.0
H175 H 0.56773 0.36986 0.32188 0.0
H176 H 0.67087 0.45592 0.35161 0.0
H177 H 0.984 0.36293 0.36167 0.0
H178 H 0.98674 0.35794 0.30404 0.0
H179 H 0.6595 0.29906 0.28704 0.0
C180 C 0.64308 0.26806 0.41669 0.0
C181 C 0.70692 0.27424 0.44568 0.0
C182 C 0.81853 0.31587 0.4458 0.0
C183 C 0.8647 0.34227 0.41717 0.0
C184 C 0.79862 0.32999 0.3888 0.0
C185 C 0.69131 0.29896 0.38834 0.0
C186 C 0.63784 0.28939 0.35445 0.0
C187 C 0.54352 0.17528 0.34812 0.0
C188 C 0.60183 0.37358 0.34715 0.0
C189 C 0.73003 0.31351 0.33603 0.0
C190 C 0.82161 0.33546 0.35642 0.0
C191 C 0.91383 0.34904 0.34543 0.0
C192 C 0.91394 0.34421 0.31269 0.0
C193 C 0.82318 0.32775 0.29119 0.0
C194 C 0.72992 0.31197 0.30303 0.0
H195 H 0.46764 0.80279 0.76229 0.0
H196 H 0.41539 0.48599 0.74689 0.0
H197 H 0.40472 0.51958 0.68889 0.0
H198 H 0.30006 0.82149 0.68779 0.0
H199 H 0.39541 0.9614 0.68161 0.0
H200 H 0.37748 0.90542 0.72138 0.0
H201 H 0.5808 0.97286 0.73229 0.0
H202 H 0.60073 0.02672 0.69246 0.0
H203 H 0.64309 0.93123 0.7071 0.0
H204 H 0.42943 0.59742 0.63366 0.0
H205 H 0.47573 0.71078 0.58477 0.0
H206 H 0.51393 0.97789 0.63593 0.0
C207 C 0.44852 0.73896 0.74652 0.0
C208 C 0.43889 0.64064 0.75879 0.0
C209 C 0.42007 0.56071 0.73771 0.0
C210 C 0.41448 0.57929 0.70478 0.0
C211 C 0.42858 0.67864 0.69329 0.0
C212 C 0.44389 0.75685 0.71346 0.0
C213 C 0.46868 0.8607 0.69525 0.0
C214 C 0.3801 0.88887 0.69659 0.0
C215 C 0.5799 0.95327 0.70752 0.0
C216 C 0.46788 0.82942 0.66206 0.0
C217 C 0.44386 0.72394 0.66134 0.0
C218 C 0.44619 0.67957 0.63376 0.0
C219 C 0.47318 0.74466 0.60614 0.0
C220 C 0.49767 0.8529 0.60636 0.0
C221 C 0.49411 0.89499 0.63474 0.0
H222 H 0.80899 0.56933 0.94805 0.0
H223 H 0.47294 0.44459 0.95896 0.0
H224 H 0.50328 0.39129 1.01441 0.0
H225 H 0.84745 0.36956 0.99963 0.0
H226 H 0.97986 0.46709 1.01651 0.0
H227 H 0.93091 0.48615 0.97648 0.0
H228 H 0.96639 0.67326 0.99063 0.0
H229 H 0.01698 0.65537 0.03047 0.0
H230 H 0.90879 0.6852 0.02392 0.0
H231 H 0.5713 0.35869 0.06977 0.0
H232 H 0.67675 0.36529 0.12171 0.0
H233 H 0.96805 0.51582 0.0751 0.0
C234 C 0.74164 0.52908 0.96199 0.0
C235 C 0.63857 0.51041 0.94913 0.0
C236 C 0.55275 0.45979 0.96832 0.0
C237 C 0.5689 0.42848 0.99982 0.0
C238 C 0.67154 0.44877 1.01197 0.0
C239 C 0.75676 0.49869 0.99375 0.0
C240 C 0.86081 0.51943 1.01338 0.0
C241 C 0.90744 0.45676 1.00073 0.0
C242 C 0.94302 0.64047 1.01468 0.0
C243 C 0.82081 0.47496 0.04543 0.0
C244 C 0.71122 0.43288 0.04408 0.0
C245 C 0.65718 0.39072 0.07111 0.0
C246 C 0.71738 0.39422 0.10047 0.0
C247 C 0.83025 0.441 0.10245 0.0
C248 C 0.88167 0.4795 0.07438 0.0
H249 H 0.34292 0.78113 0.27103 0.0
H250 H 0.18672 0.43648 0.28747 0.0
H251 H 0.27122 0.46363 0.34287 0.0
H252 H 0.59594 0.85819 0.32495 0.0
H253 H 0.59788 0.97324 0.33917 0.0
H254 H 0.54057 0.92882 0.2992 0.0
H255 H 0.36755 0.9192 0.31005 0.0
H256 H 0.40993 0.95077 0.35147 0.0
H257 H 0.29023 0.8278 0.34017 0.0
H258 H 0.34574 0.52727 0.39844 0.0
H259 H 0.41593 0.62516 0.44922 0.0
H260 H 0.52966 0.92745 0.39659 0.0
C261 C 0.33071 0.71173 0.28592 0.0
C262 C 0.25963 0.60692 0.27497 0.0
C263 C 0.24148 0.51764 0.29549 0.0
C264 C 0.28938 0.53214 0.32696 0.0
C265 C 0.35579 0.63653 0.33757 0.0
C266 C 0.37763 0.72487 0.31758 0.0
C267 C 0.43963 0.82789 0.33594 0.0
C268 C 0.55004 0.90141 0.32411 0.0
C269 C 0.3731 0.8849 0.33424 0.0
C270 C 0.4503 0.78395 0.36912 0.0
C271 C 0.40042 0.67324 0.36969 0.0
C272 C 0.38803 0.61418 0.39823 0.0
C273 C 0.42768 0.67004 0.4269 0.0
C274 C 0.48032 0.78338 0.42661 0.0
C275 C 0.49301 0.84072 0.39736 0.0
H276 H 0.60378 0.36559 0.76401 0.0
H277 H 0.91709 0.65263 0.77421 0.0
H278 H 0.93922 0.63642 0.71829 0.0
H279 H 0.65444 0.21806 0.71169 0.0
H280 H 0.52466 0.16913 0.68883 0.0
H281 H 0.54121 0.19881 0.73013 0.0
H282 H 0.46531 0.32837 0.71525 0.0
H283 H 0.44944 0.29984 0.67384 0.0
H284 H 0.5277 0.43656 0.68699 0.0
H285 H 0.92345 0.58291 0.66027 0.0
H286 H 0.87056 0.50134 0.60698 0.0
H287 H 0.55836 0.26662 0.63539 0.0
C288 C 0.6786 0.42347 0.75487 0.0
C289 C 0.76035 0.50853 0.77361 0.0
C290 C 0.8548 0.58542 0.76032 0.0
C291 C 0.86746 0.57717 0.7286 0.0
C292 C 0.78341 0.49345 0.71046 0.0
C293 C 0.69056 0.41864 0.72324 0.0
C294 C 0.6081 0.34114 0.69869 0.0
C295 C 0.58055 0.22495 0.70788 0.0
C296 C 0.50666 0.35217 0.69339 0.0
C297 C 0.66967 0.38164 0.67007 0.0
C298 C 0.7709 0.46912 0.67711 0.0
C299 C 0.84381 0.51542 0.65447 0.0
C300 C 0.81306 0.46916 0.62426 0.0
C301 C 0.70984 0.37909 0.61698 0.0
C302 C 0.63693 0.337 0.64 0.0
loop_
_geom_bond_atom_site_label_1
_geom_bond_atom_site_label_2
_geom_bond_distance
_geom_bond_site_symmetry_2
_ccdc_geom_bond_type
Dy0 O4 2.398 . S
Dy0 O5 2.491 . S
Dy0 O6 2.403 . S
Dy0 O7 2.664 1_655 S
Dy0 O11 2.326 1_655 S
Dy0 O15 2.310 . S
Dy0 O16 2.351 . S
C1 O12 1.185 . S
C1 O13 1.355 . S
C2 O4 1.185 . S
C2 O5 1.355 . S
Dy3 O7 2.310 . S
Dy3 O10 2.351 . S
Dy3 O12 2.398 . S
Dy3 O13 2.491 . S
Dy3 O14 2.403 . S
Dy3 O15 2.664 1_455 S
Dy3 O17 2.326 1_455 S
O4 Dy0 2.398 . S
O4 C2 1.185 . S
O5 Dy0 2.491 . S
O5 C2 1.355 . S
O6 Dy0 2.403 . S
O6 C8 1.254 . S
O7 Dy0 2.664 1_455 S
O7 Dy3 2.310 . S
O7 C8 1.268 1_455 S
C8 O6 1.254 . S
C8 O7 1.268 1_655 S
C9 O14 1.254 . S
C9 O15 1.268 1_455 S
O10 Dy3 2.351 . S
O10 C18 1.249 . S
O11 Dy0 2.326 1_455 S
O11 C18 1.267 . S
O12 C1 1.185 . S
O12 Dy3 2.398 . S
O13 C1 1.355 . S
O13 Dy3 2.491 . S
O14 Dy3 2.403 . S
O14 C9 1.254 . S
O15 Dy0 2.310 . S
O15 Dy3 2.664 1_655 S
O15 C9 1.268 1_655 S
O16 Dy0 2.351 . S
O16 C19 1.249 . S
O17 Dy3 2.326 1_655 S
O17 C19 1.267 . S
C18 O10 1.249 . S
C18 O11 1.267 . S
C19 O16 1.249 . S
C19 O17 1.267 . S
Dy20 O24 2.398 . S
Dy20 O25 2.491 . S
Dy20 O26 2.403 . S
Dy20 O27 2.664 1_545 S
Dy20 O31 2.326 1_545 S
Dy20 O35 2.310 . S
Dy20 O36 2.351 . S
C21 O32 1.185 . S
C21 O33 1.355 . S
C22 O24 1.185 . S
C22 O25 1.355 . S
Dy23 O27 2.310 . S
Dy23 O30 2.351 . S
Dy23 O32 2.398 . S
Dy23 O33 2.491 . S
Dy23 O34 2.403 . S
Dy23 O35 2.664 1_565 S
Dy23 O37 2.326 1_565 S
O24 Dy20 2.398 . S
O24 C22 1.185 . S
O25 Dy20 2.491 . S
O25 C22 1.355 . S
O26 Dy20 2.403 . S
O26 C28 1.254 . S
O27 Dy20 2.664 1_565 S
O27 Dy23 2.310 . S
O27 C28 1.268 1_565 S
C28 O26 1.254 . S
C28 O27 1.268 1_545 S
C29 O34 1.254 . S
C29 O35 1.268 1_565 S
O30 Dy23 2.351 . S
O30 C38 1.249 . S
O31 Dy20 2.326 1_565 S
O31 C38 1.267 . S
O32 C21 1.185 . S
O32 Dy23 2.398 . S
O33 C21 1.355 . S
O33 Dy23 2.491 . S
O34 Dy23 2.403 . S
O34 C29 1.254 . S
O35 Dy20 2.310 . S
O35 Dy23 2.664 1_545 S
O35 C29 1.268 1_545 S
O36 Dy20 2.351 . S
O36 C39 1.249 . S
O37 Dy23 2.326 1_545 S
O37 C39 1.267 . S
C38 O30 1.249 . S
C38 O31 1.267 . S
C39 O36 1.249 . S
C39 O37 1.267 . S
Dy40 O44 2.398 . S
Dy40 O45 2.491 . S
Dy40 O46 2.403 . S
Dy40 O47 2.664 . S
Dy40 O51 2.326 . S
Dy40 O55 2.310 . S
Dy40 O56 2.351 . S
C41 O52 1.185 . S
C41 O53 1.355 . S
C42 O44 1.185 . S
C42 O45 1.355 . S
Dy43 O47 2.310 . S
Dy43 O50 2.351 . S
Dy43 O52 2.398 . S
Dy43 O53 2.491 . S
Dy43 O54 2.403 . S
Dy43 O55 2.664 . S
Dy43 O57 2.326 . S
O44 Dy40 2.398 . S
O44 C42 1.185 . S
O45 Dy40 2.491 . S
O45 C42 1.355 . S
O46 Dy40 2.403 . S
O46 C48 1.254 . S
O47 Dy40 2.664 . S
O47 Dy43 2.310 . S
O47 C48 1.268 . S
C48 O46 1.254 . S
C48 O47 1.268 . S
C49 O54 1.254 . S
C49 O55 1.268 . S
O50 Dy43 2.351 . S
O50 C58 1.249 . S
O51 Dy40 2.326 . S
O51 C58 1.267 . S
O52 C41 1.185 . S
O52 Dy43 2.398 . S
O53 C41 1.355 . S
O53 Dy43 2.491 . S
O54 Dy43 2.403 . S
O54 C49 1.254 . S
O55 Dy40 2.310 . S
O55 Dy43 2.664 . S
O55 C49 1.268 . S
O56 Dy40 2.351 . S
O56 C59 1.249 . S
O57 Dy43 2.326 . S
O57 C59 1.267 . S
C58 O50 1.249 . S
C58 O51 1.267 . S
C59 O56 1.249 . S
C59 O57 1.267 . S
H60 C72 0.930 . S
H61 C74 0.930 . S
H62 C75 0.930 . S
H63 C79 0.959 . S
H64 C79 0.959 . S
H65 C79 0.961 . S
H66 C80 0.960 . S
H67 C80 0.961 . S
H68 C80 0.959 . S
H69 C83 0.929 . S
H70 C84 0.931 . S
H71 C86 0.930 . S
C72 H60 0.930 . S
C72 C73 1.399 1_455 S
C72 C77 1.399 . S
C73 C72 1.399 1_655 S
C73 C74 1.376 . S
C74 H61 0.930 . S
C74 C73 1.376 . S
C74 C75 1.388 . S
C75 H62 0.930 . S
C75 C74 1.388 . S
C75 C76 1.390 . S
C76 C75 1.390 . S
C76 C77 1.394 1_655 S
C76 C82 1.465 1_565 S
C77 C72 1.399 . S
C77 C76 1.394 1_455 S
C77 C78 1.516 1_565 S
C78 C77 1.516 1_545 S
C78 C79 1.502 . S
C78 C80 1.561 . S
C78 C81 1.526 . S
C79 H63 0.959 . S
C79 H64 0.959 . S
C79 H65 0.961 . S
C79 C78 1.502 . S
C80 H66 0.960 . S
C80 H67 0.961 . S
C80 H68 0.959 . S
C80 C78 1.561 . S
C81 C78 1.526 . S
C81 C82 1.396 1_455 S
C81 C86 1.390 . S
C82 C76 1.465 1_545 S
C82 C81 1.396 1_655 S
C82 C83 1.399 . S
C83 H69 0.929 . S
C83 C82 1.399 . S
C83 C84 1.385 . S
C84 H70 0.931 . S
C84 C83 1.385 . S
C84 C85 1.389 . S
C85 C84 1.389 . S
C85 C86 1.387 1_655 S
C86 H71 0.930 . S
C86 C81 1.390 . S
C86 C85 1.387 1_455 S
H87 C99 0.930 . S
H88 C101 0.930 . S
H89 C102 0.930 . S
H90 C106 0.959 . S
H91 C106 0.959 . S
H92 C106 0.961 . S
H93 C107 0.960 . S
H94 C107 0.961 1_655 S
H95 C107 0.959 . S
H96 C110 0.929 . S
H97 C111 0.931 . S
H98 C113 0.930 . S
C99 H87 0.930 . S
C99 C100 1.399 1_565 S
C99 C104 1.399 . S
C100 C99 1.399 1_545 S
C100 C101 1.376 . S
C101 H88 0.930 . S
C101 C100 1.376 . S
C101 C102 1.388 . S
C102 H89 0.930 . S
C102 C101 1.388 . S
C102 C103 1.390 . S
C103 C102 1.390 . S
C103 C104 1.394 1_545 S
C103 C109 1.465 . S
C104 C99 1.399 . S
C104 C103 1.394 1_565 S
C104 C105 1.516 . S
C105 C104 1.516 . S
C105 C106 1.502 1_455 S
C105 C107 1.561 . S
C105 C108 1.526 1_455 S
C106 H90 0.959 . S
C106 H91 0.959 . S
C106 H92 0.961 . S
C106 C105 1.502 1_655 S
C107 H93 0.960 . S
C107 H94 0.961 1_455 S
C107 H95 0.959 . S
C107 C105 1.561 . S
C108 C105 1.526 1_655 S
C108 C109 1.396 1_665 S
C108 C113 1.390 . S
C109 C103 1.465 . S
C109 C108 1.396 1_445 S
C109 C110 1.399 . S
C110 H96 0.929 . S
C110 C109 1.399 . S
C110 C111 1.385 1_455 S
C111 H97 0.931 . S
C111 C110 1.385 1_655 S
C111 C112 1.389 . S
C112 C111 1.389 . S
C112 C113 1.387 1_545 S
C113 H98 0.930 . S
C113 C108 1.390 . S
C113 C112 1.387 1_565 S
H114 C126 0.930 . S
H115 C128 0.930 . S
H116 C129 0.930 . S
H117 C133 0.959 . S
H118 C133 0.959 . S
H119 C133 0.961 1_655 S
H120 C134 0.960 . S
H121 C134 0.961 . S
H122 C134 0.959 . S
H123 C137 0.929 . S
H124 C138 0.931 . S
H125 C140 0.930 . S
C126 H114 0.930 . S
C126 C127 1.399 . S
C126 C131 1.399 1_665 S
C127 C126 1.399 . S
C127 C128 1.376 . S
C128 H115 0.930 . S
C128 C127 1.376 . S
C128 C129 1.388 1_655 S
C129 H116 0.930 . S
C129 C128 1.388 1_455 S
C129 C130 1.390 1_565 S
C130 C129 1.390 1_545 S
C130 C131 1.394 . S
C130 C136 1.465 . S
C131 C126 1.399 1_445 S
C131 C130 1.394 . S
C131 C132 1.516 . S
C132 C131 1.516 . S
C132 C133 1.502 . S
C132 C134 1.561 . S
C132 C135 1.526 . S
C133 H117 0.959 . S
C133 H118 0.959 . S
C133 H119 0.961 1_455 S
C133 C132 1.502 . S
C134 H120 0.960 . S
C134 H121 0.961 . S
C134 H122 0.959 . S
C134 C132 1.561 . S
C135 C132 1.526 . S
C135 C136 1.396 . S
C135 C140 1.390 . S
C136 C130 1.465 . S
C136 C135 1.396 . S
C136 C137 1.399 . S
C137 H123 0.929 . S
C137 C136 1.399 . S
C137 C138 1.385 . S
C138 H124 0.931 . S
C138 C137 1.385 . S
C138 C139 1.389 . S
C139 C138 1.389 . S
C139 C140 1.387 . S
C140 H125 0.930 . S
C140 C135 1.390 . S
C140 C139 1.387 . S
H141 C153 0.930 . S
H142 C155 0.930 . S
H143 C156 0.930 . S
H144 C160 0.959 . S
H145 C160 0.959 . S
H146 C160 0.961 . S
H147 C161 0.960 . S
H148 C161 0.961 . S
H149 C161 0.959 1_554 S
H150 C164 0.929 . S
H151 C165 0.931 . S
H152 C167 0.930 . S
C153 H141 0.930 . S
C153 C154 1.399 . S
C153 C158 1.399 . S
C154 C153 1.399 . S
C154 C155 1.376 . S
C155 H142 0.930 . S
C155 C154 1.376 . S
C155 C156 1.388 . S
C156 H143 0.930 . S
C156 C155 1.388 . S
C156 C157 1.390 . S
C157 C156 1.390 . S
C157 C158 1.394 . S
C157 C163 1.465 1_556 S
C158 C153 1.399 . S
C158 C157 1.394 . S
C158 C159 1.516 . S
C159 C158 1.516 . S
C159 C160 1.502 . S
C159 C161 1.561 . S
C159 C162 1.526 1_556 S
C160 H144 0.959 . S
C160 H145 0.959 . S
C160 H146 0.961 . S
C160 C159 1.502 . S
C161 H147 0.960 . S
C161 H148 0.961 . S
C161 H149 0.959 1_556 S
C161 C159 1.561 . S
C162 C159 1.526 1_554 S
C162 C163 1.396 . S
C162 C167 1.390 . S
C163 C157 1.465 1_554 S
C163 C162 1.396 . S
C163 C164 1.399 . S
C164 H150 0.929 . S
C164 C163 1.399 . S
C164 C165 1.385 . S
C165 H151 0.931 . S
C165 C164 1.385 . S
C165 C166 1.389 . S
C166 C165 1.389 . S
C166 C167 1.387 . S
C167 H152 0.930 . S
C167 C162 1.390 . S
C167 C166 1.387 . S
H168 C180 0.930 . S
H169 C182 0.930 . S
H170 C183 0.930 . S
H171 C187 0.959 . S
H172 C187 0.959 . S
H173 C187 0.961 . S
H174 C188 0.960 . S
H175 C188 0.961 . S
H176 C188 0.959 . S
H177 C191 0.929 . S
H178 C192 0.931 . S
H179 C194 0.930 . S
C180 H168 0.930 . S
C180 C181 1.399 . S
C180 C185 1.399 . S
C181 C180 1.399 . S
C181 C182 1.376 . S
C182 H169 0.930 . S
C182 C181 1.376 . S
C182 C183 1.388 . S
C183 H170 0.930 . S
C183 C182 1.388 . S
C183 C184 1.390 . S
C184 C183 1.390 . S
C184 C185 1.394 . S
C184 C190 1.465 . S
C185 C180 1.399 . S
C185 C184 1.394 . S
C185 C186 1.516 . S
C186 C185 1.516 . S
C186 C187 1.502 . S
C186 C188 1.561 . S
C186 C189 1.526 . S
C187 H171 0.959 . S
C187 H172 0.959 . S
C187 H173 0.961 . S
C187 C186 1.502 . S
C188 H174 0.960 . S
C188 H175 0.961 . S
C188 H176 0.959 . S
C188 C186 1.561 . S
C189 C186 1.526 . S
C189 C190 1.396 . S
C189 C194 1.390 . S
C190 C184 1.465 . S
C190 C189 1.396 . S
C190 C191 1.399 . S
C191 H177 0.929 . S
C191 C190 1.399 . S
C191 C192 1.385 . S
C192 H178 0.931 . S
C192 C191 1.385 . S
C192 C193 1.389 . S
C193 C192 1.389 . S
C193 C194 1.387 . S
C194 H179 0.930 . S
C194 C189 1.390 . S
C194 C193 1.387 . S
H195 C207 0.930 . S
H196 C209 0.930 . S
H197 C210 0.930 . S
H198 C214 0.959 . S
H199 C214 0.959 . S
H200 C214 0.961 . S
H201 C215 0.960 . S
H202 C215 0.961 . S
H203 C215 0.959 . S
H204 C218 0.929 . S
H205 C219 0.931 . S
H206 C221 0.930 . S
C207 H195 0.930 . S
C207 C208 1.399 . S
C207 C212 1.399 . S
C208 C207 1.399 . S
C208 C209 1.376 . S
C209 H196 0.930 . S
C209 C208 1.376 . S
C209 C210 1.388 . S
C210 H197 0.930 . S
C210 C209 1.388 . S
C210 C211 1.390 . S
C211 C210 1.390 . S
C211 C212 1.394 . S
C211 C217 1.465 . S
C212 C207 1.399 . S
C212 C211 1.394 . S
C212 C213 1.516 . S
C213 C212 1.516 . S
C213 C214 1.502 1_565 S
C213 C215 1.561 . S
C213 C216 1.526 . S
C214 H198 0.959 . S
C214 H199 0.959 . S
C214 H200 0.961 . S
C214 C213 1.502 1_545 S
C215 H201 0.960 . S
C215 H202 0.961 . S
C215 H203 0.959 . S
C215 C213 1.561 . S
C216 C213 1.526 . S
C216 C217 1.396 . S
C216 C221 1.390 . S
C217 C211 1.465 . S
C217 C216 1.396 . S
C217 C218 1.399 . S
C218 H204 0.929 . S
C218 C217 1.399 . S
C218 C219 1.385 . S
C219 H205 0.931 . S
C219 C218 1.385 . S
C219 C220 1.389 . S
C220 C219 1.389 . S
C220 C221 1.387 . S
C221 H206 0.930 . S
C221 C216 1.390 . S
C221 C220 1.387 . S
H222 C234 0.930 . S
H223 C236 0.930 . S
H224 C237 0.930 . S
H225 C241 0.959 . S
H226 C241 0.959 1_454 S
H227 C241 0.961 . S
H228 C242 0.960 1_556 S
H229 C242 0.961 . S
H230 C242 0.959 . S
H231 C245 0.929 . S
H232 C246 0.931 . S
H233 C248 0.930 . S
C234 H222 0.930 . S
C234 C235 1.399 . S
C234 C239 1.399 . S
C235 C234 1.399 . S
C235 C236 1.376 . S
C236 H223 0.930 . S
C236 C235 1.376 . S
C236 C237 1.388 . S
C237 H224 0.930 . S
C237 C236 1.388 . S
C237 C238 1.390 . S
C238 C237 1.390 . S
C238 C239 1.394 . S
C238 C244 1.465 1_556 S
C239 C234 1.399 . S
C239 C238 1.394 . S
C239 C240 1.516 1_556 S
C240 C239 1.516 1_554 S
C240 C241 1.502 1_554 S
C240 C242 1.561 . S
C240 C243 1.526 . S
C241 H225 0.959 . S
C241 H226 0.959 1_656 S
C241 H227 0.961 . S
C241 C240 1.502 1_556 S
C242 H228 0.960 1_554 S
C242 H229 0.961 . S
C242 H230 0.959 . S
C242 C240 1.561 . S
C243 C240 1.526 . S
C243 C244 1.396 . S
C243 C248 1.390 . S
C244 C238 1.465 1_554 S
C244 C243 1.396 . S
C244 C245 1.399 . S
C245 H231 0.929 . S
C245 C244 1.399 . S
C245 C246 1.385 . S
C246 H232 0.931 . S
C246 C245 1.385 . S
C246 C247 1.389 . S
C247 C246 1.389 . S
C247 C248 1.387 . S
C248 H233 0.930 . S
C248 C243 1.390 . S
C248 C247 1.387 . S
H249 C261 0.930 . S
H250 C263 0.930 . S
H251 C264 0.930 . S
H252 C268 0.959 . S
H253 C268 0.959 . S
H254 C268 0.961 . S
H255 C269 0.960 . S
H256 C269 0.961 . S
H257 C269 0.959 . S
H258 C272 0.929 . S
H259 C273 0.931 . S
H260 C275 0.930 . S
C261 H249 0.930 . S
C261 C262 1.399 . S
C261 C266 1.399 . S
C262 C261 1.399 . S
C262 C263 1.376 . S
C263 H250 0.930 . S
C263 C262 1.376 . S
C263 C264 1.388 . S
C264 H251 0.930 . S
C264 C263 1.388 . S
C264 C265 1.390 . S
C265 C264 1.390 . S
C265 C266 1.394 . S
C265 C271 1.465 . S
C266 C261 1.399 . S
C266 C265 1.394 . S
C266 C267 1.516 . S
C267 C266 1.516 . S
C267 C268 1.502 . S
C267 C269 1.561 . S
C267 C270 1.526 . S
C268 H252 0.959 . S
C268 H253 0.959 . S
C268 H254 0.961 . S
C268 C267 1.502 . S
C269 H255 0.960 . S
C269 H256 0.961 . S
C269 H257 0.959 . S
C269 C267 1.561 . S
C270 C267 1.526 . S
C270 C271 1.396 . S
C270 C275 1.390 . S
C271 C265 1.465 . S
C271 C270 1.396 . S
C271 C272 1.399 . S
C272 H258 0.929 . S
C272 C271 1.399 . S
C272 C273 1.385 . S
C273 H259 0.931 . S
C273 C272 1.385 . S
C273 C274 1.389 . S
C274 C273 1.389 . S
C274 C275 1.387 . S
C275 H260 0.930 . S
C275 C270 1.390 . S
C275 C274 1.387 . S
H276 C288 0.930 . S
H277 C290 0.930 . S
H278 C291 0.930 . S
H279 C295 0.959 . S
H280 C295 0.959 . S
H281 C295 0.961 . S
H282 C296 0.960 . S
H283 C296 0.961 . S
H284 C296 0.959 . S
H285 C299 0.929 . S
H286 C300 0.931 . S
H287 C302 0.930 . S
C288 H276 0.930 . S
C288 C289 1.399 . S
C288 C293 1.399 . S
C289 C288 1.399 . S
C289 C290 1.376 . S
C290 H277 0.930 . S
C290 C289 1.376 . S
C290 C291 1.388 . S
C291 H278 0.930 . S
C291 C290 1.388 . S
C291 C292 1.390 . S
C292 C291 1.390 . S
C292 C293 1.394 . S
C292 C298 1.465 . S
C293 C288 1.399 . S
C293 C292 1.394 . S
C293 C294 1.516 . S
C294 C293 1.516 . S
C294 C295 1.502 . S
C294 C296 1.561 . S
C294 C297 1.526 . S
C295 H279 0.959 . S
C295 H280 0.959 . S
C295 H281 0.961 . S
C295 C294 1.502 . S
C296 H282 0.960 . S
C296 H283 0.961 . S
C296 H284 0.959 . S
C296 C294 1.561 . S
C297 C294 1.526 . S
C297 C298 1.396 . S
C297 C302 1.390 . S
C298 C292 1.465 . S
C298 C297 1.396 . S
C298 C299 1.399 . S
C299 H285 0.929 . S
C299 C298 1.399 . S
C299 C300 1.385 . S
C300 H286 0.931 . S
C300 C299 1.385 . S
C300 C301 1.389 . S
C301 C300 1.389 . S
C301 C302 1.387 . S
C302 H287 0.930 . S
C302 C297 1.390 . S
C302 C301 1.387 . S
C73 C8 1.187 . S
C85 C9 1.209 1_655 S
C100 C29 1.254 1_545 S
C112 C28 1.176 . S
C127 C48 1.223 . S
C139 C49 1.145 . S
C154 C42 1.255 . S
C166 C1 1.207 . S
C181 C39 1.539 . S
C193 C2 1.522 . S
C208 C59 1.575 . S
C220 C38 1.584 . S
C235 C58 1.576 . S
C247 C19 1.578 . S
C262 C18 1.294 . S
C274 C21 1.256 . S
C289 C41 1.194 . S
C301 C22 1.257 . S
