# Generated by pormake.
# Topology fcu, (12)-cn, num edge types: 1
# Building blocks:
#     Node 0, Type 0, BuildingBlock: BOTCEU_clean_sbu_0, # of connection points: 12
#     Node 1, Type 0, BuildingBlock: BOTCEU_clean_sbu_0, # of connection points: 12
#     Node 2, Type 0, BuildingBlock: BOTCEU_clean_sbu_0, # of connection points: 12
#     Node 3, Type 0, BuildingBlock: BOTCEU_clean_sbu_0, # of connection points: 12
#     Edge 4, Type (0, 0), BuildingBlock: XUDNAN_clean_linker_2, # of connection points: 2
#     Edge 5, Type (0, 0), BuildingBlock: XUDNAN_clean_linker_2, # of connection points: 2
#     Edge 6, Type (0, 0), BuildingBlock: XUDNAN_clean_linker_2, # of connection points: 2
#     Edge 7, Type (0, 0), BuildingBlock: XUDNAN_clean_linker_2, # of connection points: 2
#     Edge 8, Type (0, 0), BuildingBlock: XUDNAN_clean_linker_2, # of connection points: 2
#     Edge 9, Type (0, 0), BuildingBlock: XUDNAN_clean_linker_2, # of connection points: 2
#     Edge 10, Type (0, 0), BuildingBlock: XUDNAN_clean_linker_2, # of connection points: 2
#     Edge 11, Type (0, 0), BuildingBlock: XUDNAN_clean_linker_2, # of connection points: 2
#     Edge 12, Type (0, 0), BuildingBlock: XUDNAN_clean_linker_2, # of connection points: 2
#     Edge 13, Type (0, 0), BuildingBlock: XUDNAN_clean_linker_2, # of connection points: 2
#     Edge 14, Type (0, 0), BuildingBlock: XUDNAN_clean_linker_2, # of connection points: 2
#     Edge 15, Type (0, 0), BuildingBlock: XUDNAN_clean_linker_2, # of connection points: 2
#     Edge 16, Type (0, 0), BuildingBlock: XUDNAN_clean_linker_2, # of connection points: 2
#     Edge 17, Type (0, 0), BuildingBlock: XUDNAN_clean_linker_2, # of connection points: 2
#     Edge 18, Type (0, 0), BuildingBlock: XUDNAN_clean_linker_2, # of connection points: 2
#     Edge 19, Type (0, 0), BuildingBlock: XUDNAN_clean_linker_2, # of connection points: 2
#     Edge 20, Type (0, 0), BuildingBlock: XUDNAN_clean_linker_2, # of connection points: 2
#     Edge 21, Type (0, 0), BuildingBlock: XUDNAN_clean_linker_2, # of connection points: 2
#     Edge 22, Type (0, 0), BuildingBlock: XUDNAN_clean_linker_2, # of connection points: 2
#     Edge 23, Type (0, 0), BuildingBlock: XUDNAN_clean_linker_2, # of connection points: 2
#     Edge 24, Type (0, 0), BuildingBlock: XUDNAN_clean_linker_2, # of connection points: 2
#     Edge 25, Type (0, 0), BuildingBlock: XUDNAN_clean_linker_2, # of connection points: 2
#     Edge 26, Type (0, 0), BuildingBlock: XUDNAN_clean_linker_2, # of connection points: 2
#     Edge 27, Type (0, 0), BuildingBlock: XUDNAN_clean_linker_2, # of connection points: 2
# Relax obj value: 0.052
# Max RMSD: 0.157
# Mean RMSD: 0.157
data_MOF--net-fcu--node1-BOTCEU_clean_sbu_0--edge1-XUDNAN_clean_linker_2
_symmetry_space_group_name_H-M    P1
_symmetry_Int_Tables_number       1
_symmetry_cell_setting            triclinic
loop_
_symmetry_equiv_pos_as_xyz
'x, y, z'
_cell_length_a     36.197986
_cell_length_b     36.195797
_cell_length_c     36.098223
_cell_angle_alpha  100.41952
_cell_angle_beta   100.65158
_cell_angle_gamma 100.85516
loop_
_atom_site_label
_atom_site_type_symbol
_atom_site_fract_x
_atom_site_fract_y
_atom_site_fract_z
_atom_type_partial_charge
C0 C 0.14688 0.93496 0.11874 0.0
C1 C 0.14192 0.93996 0.15654 0.0
C2 C 0.10223 0.92874 0.15288 0.0
N3 N 0.11189 0.92107 0.09474 0.0
N4 N 0.08533 0.91757 0.11505 0.0
C5 C 0.18417 0.93857 0.10596 0.0
H6 H 0.17922 0.93679 0.07437 0.0
H7 H 0.19791 0.91503 0.11308 0.0
H8 H 0.20428 0.96641 0.12157 0.0
C9 C 0.08103 0.92735 0.18464 0.0
H10 H 0.05025 0.92741 0.17396 0.0
H11 H 0.09477 0.95229 0.20932 0.0
H12 H 0.0824 0.90065 0.1952 0.0
C13 C 0.94036 0.13822 0.83852 0.0
C14 C -0.00337 0.13339 0.825 0.0
C15 C 0.96367 0.14667 0.81298 0.0
N16 N 0.95928 0.12169 0.86417 0.0
N17 N -0.00767 0.11802 0.85548 0.0
H18 H 0.89989 0.1745 0.83437 0.0
H19 H 0.87979 0.12403 0.81367 0.0
H20 H 0.8922 0.14046 0.86526 0.0
C21 C 0.90083 0.14494 0.83823 0.0
H22 H 0.05088 0.16343 0.81844 0.0
H23 H 0.02231 0.12901 0.77562 0.0
H24 H 0.04721 0.11292 0.81626 0.0
C25 C 0.03117 0.13442 0.80761 0.0
C26 C 0.0393 0.82539 0.02776 0.0
C27 C 0.09045 0.97891 0.03691 0.0
C28 C 0.92043 0.09496 0.13899 0.0
N29 N 0.90272 0.07359 0.10355 0.0
N30 N 0.90122 0.0959 0.07865 0.0
C31 C 0.93108 0.13309 0.13597 0.0
C32 C 0.91836 0.13247 0.09699 0.0
H33 H 0.92786 0.04746 0.16562 0.0
H34 H 0.9069 0.0827 0.19114 0.0
H35 H 0.95774 0.09434 0.19257 0.0
C36 C 0.92899 0.07878 0.17408 0.0
H37 H 0.89939 0.15989 0.05113 0.0
H38 H 0.95079 0.16936 0.06872 0.0
H39 H 0.92257 0.19273 0.09756 0.0
C40 C 0.92276 0.16565 0.07751 0.0
C41 C 0.16011 0.87734 0.97172 0.0
C42 C 0.15015 0.85492 0.0229 0.0
N43 N 0.1345 0.89392 0.98677 0.0
N44 N 0.1283 0.88047 0.01715 0.0
C45 C 0.17127 0.85225 -0.00574 0.0
H46 H 0.1984 0.90656 0.94237 0.0
H47 H 0.17675 0.85682 0.91884 0.0
H48 H 0.1484 0.89314 0.91727 0.0
C49 C 0.17147 0.88364 0.93522 0.0
C50 C 0.15199 0.83515 0.05593 0.0
H51 H 0.1824 0.83513 0.06846 0.0
H52 H 0.13559 0.80471 0.04524 0.0
H53 H 0.13898 0.84944 0.07846 0.0
C54 C 0.8161 0.00299 0.01804 0.0
C55 C 0.96251 0.01355 0.08713 0.0
C56 C 0.08955 0.15698 0.92196 0.0
N57 N 0.07213 0.11994 0.90585 0.0
C58 C 0.12881 0.15916 0.93452 0.0
N59 N 0.09783 0.09873 0.90786 0.0
C60 C 0.13293 0.12136 0.92486 0.0
H61 H 0.04217 0.18221 0.90283 0.0
H62 H 0.08797 0.21658 0.92463 0.0
H63 H 0.06075 0.19296 0.95421 0.0
C64 C 0.06894 0.18914 0.92586 0.0
H65 H 0.16144 0.07562 0.93391 0.0
C66 C 0.16882 0.10673 0.93356 0.0
H67 H 0.18496 0.11024 0.91063 0.0
H68 H 0.18769 0.12356 0.96169 0.0
C69 C 0.84188 0.94994 0.14159 0.0
C70 C 0.827 0.00355 0.12904 0.0
N71 N 0.86608 0.96547 0.12146 0.0
N72 N 0.85647 -0.00314 0.11326 0.0
C73 C 0.81657 0.97396 0.14745 0.0
H74 H 0.85279 0.92006 0.18687 0.0
C75 C 0.84323 0.91333 0.15487 0.0
H76 H 0.86341 0.89848 0.14176 0.0
H77 H 0.81408 0.89382 0.1468 0.0
H78 H 0.8203 0.05964 0.15278 0.0
H79 H 0.77708 0.02795 0.12165 0.0
C80 C 0.80888 0.03701 0.12569 0.0
H81 H 0.81611 0.0494 0.10131 0.0
C82 C 0.01386 0.02695 0.82091 0.0
C83 C 0.01402 0.10296 0.96382 0.0
C84 C 0.85053 0.02747 0.89303 0.0
N85 N 0.88205 0.0553 0.91091 0.0
C86 C 0.85525 0.01167 0.85656 0.0
C87 C 0.89137 0.032 0.85464 0.0
N88 N 0.90648 0.05802 0.88826 0.0
C89 C 0.81586 0.01841 0.90963 0.0
H90 H 0.82506 0.02181 0.94136 0.0
H91 H 0.79759 0.03918 0.90437 0.0
H92 H 0.79858 0.98868 0.89603 0.0
C93 C 0.90806 0.0311 0.81964 0.0
H94 H 0.93869 0.04699 0.82775 0.0
H95 H 0.90604 0.00094 0.80482 0.0
H96 H 0.8914 0.04466 0.7991 0.0
C97 C 0.02476 0.83353 0.13553 0.0
C98 C -0.00285 0.82252 0.15607 0.0
C99 C 0.96861 0.84231 0.14643 0.0
N100 N 0.01271 0.8583 0.1152 0.0
N101 N 0.97954 0.864 0.12213 0.0
H102 H 0.05796 0.79038 0.13215 0.0
H103 H 0.08239 0.83513 0.16521 0.0
H104 H 0.07645 0.83232 0.1141 0.0
C105 C 0.06258 0.82221 0.13656 0.0
C106 C 0.93386 0.84367 0.16298 0.0
H107 H 0.91773 0.81399 0.16152 0.0
H108 H 0.94322 0.85897 0.19388 0.0
H109 H 0.91467 0.85887 0.14694 0.0
C110 C 0.93242 0.17067 0.95072 0.0
C111 C 0.93275 0.03849 0.99078 0.0
C112 C 0.03874 0.91299 0.87195 0.0
C113 C 0.02571 0.87561 0.87625 0.0
C114 C 0.04643 0.87464 0.91247 0.0
N115 N 0.06554 0.9323 0.90396 0.0
N116 N 0.06973 0.9096 0.92823 0.0
C117 C 0.02871 0.92864 0.83671 0.0
H118 H 0.04754 0.9574 0.83979 0.0
H119 H 0.03134 0.90839 0.8108 0.0
H120 H -0.00169 0.93146 0.8324 0.0
C121 C 0.04568 0.84095 0.93104 0.0
H122 H 0.05417 0.85136 0.96284 0.0
H123 H 0.01661 0.82114 0.92221 0.0
H124 H 0.06703 0.82495 0.92207 0.0
C125 C 0.81482 0.10973 0.01195 0.0
C126 C 0.8016 0.12837 0.98343 0.0
C127 C 0.82632 0.12559 0.95819 0.0
N128 N 0.84519 0.09666 0.00338 0.0
N129 N 0.85236 0.10636 0.97157 0.0
C130 C 0.80116 0.1073 0.04827 0.0
H131 H 0.77651 0.08198 0.04218 0.0
H132 H 0.79123 0.1336 0.05899 0.0
H133 H 0.82462 0.10359 0.07083 0.0
C134 C 0.82446 0.1398 0.92167 0.0
H135 H 0.79392 0.13607 0.90654 0.0
H136 H 0.83835 0.17103 0.9288 0.0
H137 H 0.8399 0.12411 0.90253 0.0
C138 C 0.1759 0.98485 0.96715 0.0
C139 C 0.04053 0.01336 0.94487 0.0
C140 C 0.89878 0.84944 0.04004 0.0
N141 N 0.91522 0.88326 0.06519 0.0
N142 N 0.89101 0.9061 0.0643 0.0
C143 C 0.86194 0.85129 0.02191 0.0
C144 C 0.8581 0.8879 0.03822 0.0
H145 H 0.94899 0.82616 0.03916 0.0
H146 H 0.91216 0.79939 0.05749 0.0
H147 H 0.90488 0.79636 0.00611 0.0
C148 C 0.91731 0.81583 0.03508 0.0
H149 H 0.82803 0.93332 0.04906 0.0
H150 H 0.81179 0.90213 0.00136 0.0
H151 H 0.79937 0.88479 0.04195 0.0
C152 C 0.82236 0.9032 0.03248 0.0
C153 C 0.12372 0.02552 0.83253 0.0
N154 N 0.10988 0.0218 0.86402 0.0
N155 N 0.11963 -0.00773 0.87662 0.0
C156 C 0.14267 -0.00409 0.82428 0.0
C157 C 0.13898 0.97515 0.85286 0.0
C158 C 0.11929 0.057 0.8115 0.0
H159 H 0.09478 0.04594 0.78592 0.0
H160 H 0.14581 0.06665 0.80126 0.0
H161 H 0.11307 0.08171 0.83053 0.0
C162 C 0.14864 0.93698 0.85426 0.0
H163 H 0.1486 0.92094 0.82497 0.0
H164 H 0.17781 0.94162 0.87301 0.0
H165 H 0.12734 0.91961 0.86647 0.0
C166 C 0.95335 0.94621 0.17625 0.0
C167 C -0.00712 0.93238 0.04241 0.0
Cu168 Cu 0.0938 0.90083 0.04224 0.0
Cu169 Cu 0.0365 0.89022 0.08768 0.0
Cu170 Cu 0.88377 0.02153 0.08289 0.0
Cu171 Cu 0.87858 0.07126 0.02797 0.0
Cu172 Cu 0.02171 0.093 0.88545 0.0
Cu173 Cu 0.07827 0.0463 0.8897 0.0
Cu174 Cu 0.89489 0.09219 0.95632 0.0
Cu175 Cu 0.94774 0.10058 0.90496 0.0
Cu176 Cu 0.0998 0.97988 0.91786 0.0
Cu177 Cu 0.10729 0.92972 0.97326 0.0
Cu178 Cu 0.96111 0.90217 0.10169 0.0
Cu179 Cu 0.90664 0.95178 0.10156 0.0
H180 H 0.01595 0.81487 0.00112 0.0
H181 H 0.03044 0.81169 0.05077 0.0
H182 H 0.06617 0.81754 0.02202 0.0
H183 H 0.08311 0.97904 0.06542 0.0
H184 H 0.07225 -0.00524 0.0207 0.0
H185 H 0.12137 -0.00685 0.04138 0.0
H186 H 0.81221 0.97722 -0.00547 0.0
H187 H 0.80093 0.02388 0.00668 0.0
H188 H 0.80371 -0.00575 0.04185 0.0
H189 H 0.96523 0.04499 0.09667 0.0
H190 H 0.97411 0.00804 0.06087 0.0
H191 H 0.97933 0.00331 0.11051 0.0
H192 H 0.98911 0.00204 0.81636 0.0
H193 H 0.03729 0.01687 0.80914 0.0
H194 H 0.00447 0.04871 0.80567 0.0
H195 H 0.0447 0.10124 0.96773 0.0
H196 H 0.00061 0.08721 0.98331 0.0
H197 H 0.01257 0.13368 0.97108 0.0
H198 H 0.9593 0.18669 0.945 0.0
H199 H 0.90717 0.17383 0.93006 0.0
H200 H 0.93051 0.18262 0.98067 0.0
H201 H 0.9383 0.03404 0.96128 0.0
H202 H 0.96039 0.0436 0.01222 0.0
H203 H 0.91257 0.01239 0.99326 0.0
H204 H 0.18678 0.01663 0.97601 0.0
H205 H 0.1894 0.97138 0.98979 0.0
H206 H 0.18337 0.9739 0.93947 0.0
H207 H 0.01596 0.0171 0.92363 0.0
H208 H 0.0343 0.98335 0.94892 0.0
H209 H 0.0444 0.0336 0.97301 0.0
H210 H 0.9567 0.97678 0.19077 0.0
H211 H 0.92736 0.9283 0.18157 0.0
H212 H 0.97921 0.93609 0.18809 0.0
H213 H -0.00216 0.90991 0.0198 0.0
H214 H 0.96218 0.93398 0.03536 0.0
H215 H 0.0114 0.96072 0.04325 0.0
O216 O 0.04547 0.86472 0.03923 0.0
O217 O 0.08387 0.94162 0.01641 0.0
O218 O 0.85471 0.01969 0.03149 0.0
O219 O 0.92444 -0.00551 0.07901 0.0
O220 O 0.02689 0.04289 0.85971 0.0
O221 O -0.00506 0.08688 0.92614 0.0
O222 O 0.93321 0.13249 0.9467 0.0
O223 O 0.91684 0.06987 -0.00254 0.0
O224 O 0.13663 0.97589 0.96273 0.0
O225 O 0.07365 0.02021 0.93145 0.0
O226 O 0.94984 0.94335 0.13734 0.0
O227 O 0.00139 0.92317 0.07774 0.0
C228 C 0.13713 0.41645 0.6067 0.0
C229 C 0.13264 0.42043 0.64463 0.0
C230 C 0.09289 0.41204 0.64151 0.0
N231 N 0.10182 0.40582 0.5831 0.0
N232 N 0.0756 0.4035 0.60384 0.0
C233 C 0.17408 0.41974 0.59319 0.0
H234 H 0.1685 0.40979 0.56139 0.0
H235 H 0.19254 0.40288 0.60769 0.0
H236 H 0.19012 0.45036 0.60108 0.0
C237 C 0.0717 0.41165 0.67335 0.0
H238 H 0.04293 0.41789 0.66422 0.0
H239 H 0.08863 0.43301 0.69997 0.0
H240 H 0.06721 0.38256 0.67989 0.0
C241 C 0.96399 0.64287 0.35822 0.0
C242 C 0.01305 0.6235 0.33932 0.0
C243 C 0.98823 0.64773 0.33289 0.0
N244 N 0.97474 0.61752 0.37868 0.0
N245 N 0.00358 0.60556 0.36678 0.0
H246 H 0.9471 0.69465 0.37923 0.0
H247 H 0.91494 0.66404 0.3363 0.0
H248 H 0.91553 0.65058 0.38242 0.0
C249 C 0.93339 0.66414 0.36455 0.0
H250 H 0.07152 0.64506 0.33678 0.0
H251 H 0.03997 0.62034 0.29098 0.0
H252 H 0.05621 0.59322 0.32615 0.0
C253 C 0.04714 0.62008 0.32217 0.0
C254 C 0.01459 0.32397 0.50786 0.0
C255 C 0.10241 0.46521 0.5223 0.0
C256 C 0.9167 0.61406 0.66176 0.0
N257 N 0.90777 0.59373 0.62504 0.0
N258 N 0.91072 0.61743 0.60158 0.0
C259 C 0.92522 0.65302 0.6611 0.0
C260 C 0.92123 0.65395 0.62225 0.0
H261 H 0.91153 0.56551 0.68873 0.0
H262 H 0.88533 0.60115 0.70416 0.0
H263 H 0.93681 0.61155 0.7209 0.0
C264 C 0.91251 0.59687 0.69585 0.0
H265 H 0.93038 0.68138 0.5755 0.0
H266 H 0.94993 0.71199 0.62375 0.0
H267 H 0.89889 0.69985 0.60373 0.0
C268 C 0.92555 0.68878 0.60516 0.0
C269 C 0.15237 0.34468 0.47283 0.0
C270 C 0.1308 0.33083 0.52323 0.0
N271 N 0.1263 0.36541 0.48004 0.0
N272 N 0.11308 0.35656 0.50968 0.0
C273 C 0.15643 0.32251 0.50045 0.0
H274 H 0.20265 0.36995 0.45545 0.0
H275 H 0.18167 0.32056 0.43097 0.0
H276 H 0.15843 0.35829 0.41854 0.0
C277 C 0.17495 0.34845 0.44247 0.0
C278 C 0.12547 0.31704 0.55894 0.0
H279 H 0.14992 0.33275 0.58346 0.0
H280 H 0.12504 0.2858 0.5546 0.0
H281 H 0.09841 0.32259 0.56645 0.0
C282 C 0.81851 0.53863 0.54062 0.0
C283 C 0.96666 0.53669 0.60893 0.0
C284 C 0.09857 0.63589 0.42539 0.0
N285 N 0.0791 0.59896 0.41509 0.0
C286 C 0.13758 0.63652 0.42935 0.0
N287 N 0.10334 0.57631 0.413 0.0
C288 C 0.13956 0.59791 0.42153 0.0
H289 H 0.05116 0.66082 0.43645 0.0
H290 H 0.07634 0.6801 0.40312 0.0
H291 H 0.09865 0.6935 0.45378 0.0
C292 C 0.08004 0.66954 0.43018 0.0
H293 H 0.16794 0.55067 0.415 0.0
C294 C 0.17414 0.58218 0.41652 0.0
H295 H 0.182 0.58767 0.38939 0.0
H296 H 0.19917 0.59685 0.4408 0.0
C297 C 0.84523 0.45903 0.6457 0.0
C298 C 0.82883 0.51421 0.64158 0.0
N299 N 0.86995 0.47969 0.6295 0.0
N300 N 0.85999 0.51245 0.62678 0.0
C301 C 0.81846 0.48035 0.65399 0.0
H302 H 0.8698 0.41775 0.67101 0.0
C303 C 0.84452 0.41826 0.64863 0.0
H304 H 0.8468 0.40144 0.62056 0.0
H305 H 0.81768 0.40463 0.65628 0.0
H306 H 0.80518 0.55625 0.67335 0.0
H307 H 0.78062 0.53816 0.62361 0.0
C308 C 0.8095 0.54734 0.64368 0.0
H309 H 0.82697 0.57205 0.63563 0.0
C310 C 0.01211 0.51141 0.3278 0.0
C311 C 0.01969 0.57643 0.47346 0.0
C312 C 0.85819 0.54541 0.41956 0.0
N313 N 0.89336 0.56882 0.43421 0.0
C314 C 0.85698 0.52703 0.38186 0.0
C315 C 0.89334 0.54113 0.37572 0.0
N316 N 0.91425 0.56612 0.40817 0.0
C317 C 0.82502 0.54526 0.43884 0.0
H318 H 0.83524 0.56041 0.46962 0.0
H319 H 0.80433 0.55983 0.42391 0.0
H320 H 0.80959 0.51521 0.43688 0.0
C321 C 0.90711 0.53332 0.33911 0.0
H322 H 0.93836 0.53368 0.34595 0.0
H323 H 0.89052 0.50516 0.32018 0.0
H324 H 0.90324 0.55655 0.32348 0.0
C325 C -0.00354 0.32315 0.61245 0.0
C326 C 0.96444 0.31329 0.62792 0.0
C327 C 0.94398 0.34166 0.62332 0.0
N328 N -0.00565 0.35537 0.59948 0.0
N329 N 0.96349 0.36682 0.60667 0.0
H330 H 0.0187 0.27177 0.61025 0.0
H331 H 0.05253 0.31614 0.63631 0.0
H332 H 0.03973 0.30599 0.58448 0.0
C333 C 0.02858 0.3028 0.61057 0.0
C334 C 0.90767 0.34574 0.63592 0.0
H335 H 0.88364 0.32132 0.61896 0.0
H336 H 0.9111 0.34488 0.66693 0.0
H337 H 0.90046 0.37314 0.6311 0.0
C338 C 0.96971 0.6764 0.47239 0.0
C339 C 0.93904 0.54931 0.51572 0.0
C340 C 0.04707 0.38969 0.35743 0.0
C341 C 0.03717 0.35077 0.35773 0.0
C342 C 0.05218 0.34887 0.39561 0.0
N343 N 0.06753 0.40892 0.39274 0.0
N344 N 0.07018 0.38487 0.41577 0.0
C345 C 0.04126 0.40741 0.32304 0.0
H346 H 0.06549 0.406 0.30843 0.0
H347 H 0.01404 0.39141 0.30199 0.0
H348 H 0.04046 0.43812 0.3323 0.0
C349 C 0.05644 0.31314 0.40965 0.0
H350 H 0.05713 0.31788 0.44099 0.0
H351 H 0.0324 0.28833 0.39362 0.0
H352 H 0.084 0.30611 0.40496 0.0
C353 C 0.84064 0.64822 0.52954 0.0
C354 C 0.8366 0.6688 0.50051 0.0
C355 C 0.861 0.65788 0.4773 0.0
N356 N 0.86654 0.62689 0.52344 0.0
N357 N 0.8788 0.63308 0.49251 0.0
C358 C 0.82204 0.65058 0.56333 0.0
H359 H 0.79094 0.6362 0.5531 0.0
H360 H 0.82415 0.68122 0.57681 0.0
H361 H 0.83567 0.63608 0.58496 0.0
C362 C 0.86574 0.66898 0.44027 0.0
H363 H 0.83947 0.67707 0.42605 0.0
H364 H 0.8906 0.69407 0.44637 0.0
H365 H 0.8716 0.64452 0.4207 0.0
C366 C 0.18042 0.44731 0.44689 0.0
C367 C 0.04734 0.48689 0.44489 0.0
C368 C 0.89336 0.37603 0.52644 0.0
N369 N 0.91253 0.40559 0.55596 0.0
N370 N 0.89101 0.43058 0.56153 0.0
C371 C 0.85716 0.38259 0.51284 0.0
C372 C 0.8568 0.4176 0.53616 0.0
H373 H 0.93838 0.34488 0.52712 0.0
H374 H 0.89228 0.31772 0.53044 0.0
H375 H 0.89885 0.32782 0.48484 0.0
C376 C 0.90667 0.33954 0.51654 0.0
H377 H 0.83377 0.46743 0.54797 0.0
H378 H 0.80337 0.42888 0.50847 0.0
H379 H 0.80712 0.42488 0.55807 0.0
C380 C 0.82321 0.43585 0.53745 0.0
C381 C 0.12015 0.51008 0.32787 0.0
N382 N 0.1083 0.50225 0.35922 0.0
N383 N 0.11971 0.47176 0.3677 0.0
C384 C 0.1395 0.48225 0.31527 0.0
C385 C 0.13873 0.45837 0.34147 0.0
C386 C 0.11524 0.54478 0.31213 0.0
H387 H 0.0889 0.53684 0.28842 0.0
H388 H 0.14037 0.55553 0.3003 0.0
H389 H 0.11191 0.56793 0.3351 0.0
C390 C 0.15286 0.42199 0.33971 0.0
H391 H 0.1484 0.40643 0.30919 0.0
H392 H 0.18428 0.42934 0.35289 0.0
H393 H 0.1377 0.40314 0.35595 0.0
C394 C 0.95695 0.45178 0.67341 0.0
C395 C 0.00029 0.44829 0.54412 0.0
Cu396 Cu 0.08343 0.38734 0.53038 0.0
Cu397 Cu 0.02525 0.38634 0.57624 0.0
Cu398 Cu 0.88742 0.54275 0.60025 0.0
Cu399 Cu 0.89052 0.59506 0.54972 0.0
Cu400 Cu 0.02784 0.57583 0.3951 0.0
Cu401 Cu 0.08076 0.52504 0.39119 0.0
Cu402 Cu 0.91481 0.607 0.47849 0.0
Cu403 Cu 0.96189 0.59969 0.42093 0.0
Cu404 Cu 0.1035 0.45521 0.40895 0.0
Cu405 Cu 0.10792 0.40442 0.4611 0.0
Cu406 Cu 0.95667 0.41268 0.59362 0.0
Cu407 Cu 0.90923 0.4694 0.6058 0.0
H408 H -0.00699 0.31155 0.52306 0.0
H409 H 0.0379 0.30796 0.50914 0.0
H410 H 0.00029 0.32142 0.47726 0.0
H411 H 0.08032 0.47762 0.53439 0.0
H412 H 0.11322 0.4826 0.50262 0.0
H413 H 0.12695 0.46594 0.5461 0.0
H414 H 0.80783 0.5184 0.51193 0.0
H415 H 0.80903 0.56584 0.5395 0.0
H416 H 0.8064 0.52527 0.56232 0.0
H417 H 0.97341 0.53772 0.64041 0.0
H418 H 0.97114 0.56655 0.60439 0.0
H419 H 0.98596 0.52136 0.59487 0.0
H420 H 0.03397 0.5025 0.31255 0.0
H421 H 0.00098 0.53411 0.31542 0.0
H422 H 0.98793 0.48614 0.32401 0.0
H423 H 0.05121 0.58086 0.47555 0.0
H424 H 0.00949 0.55011 0.48373 0.0
H425 H 0.01391 0.60179 0.49181 0.0
H426 H 0.00167 0.68576 0.47957 0.0
H427 H 0.95775 0.68621 0.4464 0.0
H428 H 0.95843 0.68926 0.49703 0.0
H429 H 0.93963 0.53999 0.4849 0.0
H430 H 0.96797 0.55158 0.53387 0.0
H431 H 0.91703 0.52758 0.52267 0.0
H432 H 0.19622 0.44161 0.47388 0.0
H433 H 0.1818 0.42548 0.42173 0.0
H434 H 0.19394 0.47645 0.44387 0.0
H435 H 0.04101 0.45615 0.44658 0.0
H436 H 0.05276 0.50538 0.47426 0.0
H437 H 0.02213 0.49247 0.42599 0.0
H438 H 0.98587 0.47004 0.68863 0.0
H439 H 0.93458 0.46334 0.68592 0.0
H440 H 0.95551 0.42184 0.67703 0.0
H441 H 0.97045 0.45128 0.53362 0.0
H442 H 0.01981 0.4774 0.55449 0.0
H443 H 0.00954 0.43152 0.52004 0.0
O444 O 0.02991 0.36212 0.52527 0.0
O445 O 0.08658 0.4278 0.50243 0.0
O446 O 0.85807 0.54617 0.55047 0.0
O447 O 0.92898 0.51754 0.59321 0.0
O448 O 0.0285 0.5254 0.36643 0.0
O449 O 0.00082 0.57212 0.43579 0.0
O450 O 0.95907 0.63699 0.46569 0.0
O451 O 0.92965 0.58453 0.52175 0.0
O452 O 0.14272 0.44581 0.44864 0.0
O453 O 0.07935 0.4949 0.42992 0.0
O454 O 0.95086 0.45229 0.63492 0.0
O455 O 0.00136 0.42952 0.57392 0.0
C456 C 0.63999 0.91025 0.59528 0.0
C457 C 0.63927 0.91043 0.63368 0.0
C458 C 0.60031 0.90038 0.63412 0.0
N459 N 0.60339 0.90033 0.57469 0.0
N460 N 0.5798 0.89436 0.59769 0.0
C461 C 0.6746 0.91807 0.57833 0.0
H462 H 0.66667 0.92609 0.55013 0.0
H463 H 0.68606 0.89169 0.57356 0.0
H464 H 0.69766 0.94145 0.59859 0.0
C465 C 0.58326 0.89202 0.66725 0.0
H466 H 0.55182 0.89085 0.66069 0.0
H467 H 0.59777 0.91429 0.694 0.0
H468 H 0.58776 0.86372 0.67244 0.0
C469 C 0.45149 0.15902 0.36935 0.0
C470 C 0.50286 0.1519 0.34637 0.0
C471 C 0.47232 0.17039 0.34293 0.0
N472 N 0.4696 0.1361 0.38767 0.0
N473 N 0.49982 0.13134 0.37356 0.0
H474 H 0.41869 0.19448 0.3966 0.0
H475 H 0.39637 0.17041 0.34724 0.0
H476 H 0.39732 0.14342 0.38507 0.0
C477 C 0.41362 0.16716 0.37478 0.0
H478 H 0.54678 0.18667 0.32655 0.0
H479 H 0.52534 0.13967 0.29594 0.0
H480 H 0.55927 0.14399 0.34063 0.0
C481 C 0.53571 0.15589 0.32647 0.0
C482 C 0.51948 0.81646 0.50175 0.0
C483 C 0.58453 0.96721 0.52441 0.0
C484 C 0.43531 0.08723 0.66263 0.0
N485 N 0.41849 0.06958 0.62576 0.0
N486 N 0.4192 0.09516 0.60418 0.0
C487 C 0.44706 0.12642 0.66423 0.0
C488 C 0.43608 0.13039 0.6264 0.0
H489 H 0.41913 0.03829 0.68732 0.0
H490 H 0.43303 0.08493 0.72125 0.0
H491 H 0.46903 0.06361 0.70327 0.0
C492 C 0.43901 0.06723 0.6955 0.0
H493 H 0.44065 0.15962 0.58001 0.0
H494 H 0.47024 0.18612 0.62725 0.0
H495 H 0.41891 0.18171 0.61665 0.0
C496 C 0.44206 0.16654 0.61156 0.0
C497 C 0.645 0.86093 0.45062 0.0
C498 C 0.63065 0.83573 0.49898 0.0
N499 N 0.61984 0.87846 0.46565 0.0
N500 N 0.61101 0.86308 0.49412 0.0
C501 C 0.65317 0.83356 0.47163 0.0
H502 H 0.68106 0.89716 0.42452 0.0
H503 H 0.67308 0.84613 0.40394 0.0
H504 H 0.63508 0.87139 0.39379 0.0
C505 C 0.65955 0.86919 0.41616 0.0
C506 C 0.63089 0.81536 0.53159 0.0
H507 H 0.66103 0.81664 0.5463 0.0
H508 H 0.61603 0.78456 0.51992 0.0
H509 H 0.61554 0.82817 0.55266 0.0
C510 C 0.32955 0.01121 0.53572 0.0
C511 C 0.4722 0.00633 0.60776 0.0
C512 C 0.60193 0.16146 0.42396 0.0
N513 N 0.58124 0.12485 0.41386 0.0
C514 C 0.64056 0.16059 0.42666 0.0
N515 N 0.60452 0.1012 0.41113 0.0
C516 C 0.64104 0.12167 0.41833 0.0
H517 H 0.55373 0.18816 0.42641 0.0
H518 H 0.58858 0.20933 0.40154 0.0
H519 H 0.60019 0.21804 0.45324 0.0
C520 C 0.58486 0.19614 0.42646 0.0
H521 H 0.66978 0.07505 0.42075 0.0
C522 C 0.67503 0.10443 0.4149 0.0
H523 H 0.67942 0.10214 0.38504 0.0
H524 H 0.70158 0.12306 0.4352 0.0
C525 C 0.34398 0.94277 0.64846 0.0
C526 C 0.33429 -0.00033 0.64093 0.0
N527 N 0.37089 0.9593 0.63151 0.0
N528 N 0.36463 -0.00703 0.62671 0.0
C529 C 0.31992 0.96797 0.65494 0.0
H530 H 0.35325 0.904 0.6853 0.0
C531 C 0.3392 0.90268 0.65489 0.0
H532 H 0.35301 0.88527 0.63535 0.0
H533 H 0.30812 0.88878 0.6501 0.0
H534 H 0.30895 0.0435 0.66794 0.0
H535 H 0.29553 0.03097 0.61601 0.0
C536 C 0.3198 0.03578 0.64142 0.0
H537 H 0.3431 0.05984 0.63993 0.0
C538 C 0.51714 0.04396 0.32399 0.0
C539 C 0.52991 0.10516 0.47617 0.0
C540 C 0.36244 0.04064 0.41695 0.0
N541 N 0.39591 0.06601 0.43477 0.0
C542 C 0.36288 0.0291 0.37811 0.0
C543 C 0.39852 0.0491 0.37474 0.0
N544 N 0.41755 0.07069 0.40975 0.0
C545 C 0.3288 0.03227 0.43517 0.0
H546 H 0.33704 0.0454 0.46654 0.0
H547 H 0.30488 0.04381 0.42111 0.0
H548 H 0.31821 0.00066 0.43088 0.0
C549 C 0.41279 0.05041 0.3386 0.0
H550 H 0.44476 0.05635 0.34539 0.0
H551 H 0.40042 0.02286 0.31678 0.0
H552 H 0.40398 0.07424 0.32635 0.0
C553 C 0.50853 0.8054 0.60395 0.0
C554 C 0.47893 0.7909 0.62084 0.0
C555 C 0.45605 0.81786 0.62162 0.0
N556 N 0.50283 0.83877 0.59545 0.0
N557 N 0.47185 0.84639 0.60635 0.0
H558 H 0.53384 0.76509 0.57235 0.0
H559 H 0.55403 0.77816 0.62358 0.0
H560 H 0.56574 0.8118 0.59335 0.0
C561 C 0.54275 0.78938 0.59816 0.0
C562 C 0.41886 0.81556 0.63449 0.0
H563 H 0.40262 0.78508 0.62851 0.0
H564 H 0.42516 0.82757 0.66609 0.0
H565 H 0.40106 0.83275 0.61966 0.0
C566 C 0.45761 0.17879 0.48482 0.0
C567 C 0.44891 0.04253 0.51199 0.0
C568 C 0.53769 0.91892 0.3565 0.0
C569 C 0.52601 0.87928 0.35217 0.0
C570 C 0.54065 0.87256 0.38821 0.0
N571 N 0.55888 0.93404 0.39251 0.0
N572 N 0.56035 0.90656 0.41166 0.0
C573 C 0.53312 0.94115 0.32547 0.0
H574 H 0.53385 0.97153 0.33846 0.0
H575 H 0.55713 0.94081 0.3104 0.0
H576 H 0.50554 0.92795 0.30382 0.0
C577 C 0.54282 0.83422 0.39732 0.0
H578 H 0.54718 0.83637 0.42891 0.0
H579 H 0.51606 0.8122 0.38204 0.0
H580 H 0.56753 0.82482 0.38745 0.0
C581 C 0.341 0.12518 0.54508 0.0
C582 C 0.33083 0.14806 0.5196 0.0
C583 C 0.35222 0.14212 0.49168 0.0
N584 N 0.36678 0.10696 0.53238 0.0
N585 N 0.37392 0.11749 0.50094 0.0
C586 C 0.32795 0.12187 0.58152 0.0
H587 H 0.29825 0.12652 0.57931 0.0
H588 H 0.34771 0.14411 0.60595 0.0
H589 H 0.3291 0.09312 0.58763 0.0
C590 C 0.35464 0.16202 0.45909 0.0
H591 H 0.32609 0.15452 0.43856 0.0
H592 H 0.36246 0.19377 0.47041 0.0
H593 H 0.37627 0.15302 0.44356 0.0
C594 C 0.6711 0.97437 0.45996 0.0
C595 C 0.54152 0.01396 0.44331 0.0
C596 C 0.39491 0.8507 0.531 0.0
N597 N 0.4133 0.88089 0.56003 0.0
N598 N 0.39054 0.90457 0.56567 0.0
C599 C 0.35799 0.85552 0.51757 0.0
C600 C 0.35629 0.89027 0.54044 0.0
H601 H 0.44254 0.82587 0.52173 0.0
H602 H 0.40661 0.79668 0.53907 0.0
H603 H 0.39646 0.80056 0.48924 0.0
C604 C 0.41105 0.81642 0.51926 0.0
H605 H 0.3292 0.93628 0.5583 0.0
H606 H 0.30336 0.90277 0.51338 0.0
H607 H 0.30327 0.88867 0.5586 0.0
C608 C 0.32105 0.90563 0.54276 0.0
C609 C 0.62332 0.02906 0.33011 0.0
N610 N 0.60906 0.02443 0.36127 0.0
N611 N 0.61735 -0.00647 0.37198 0.0
C612 C 0.64037 -0.00159 0.32008 0.0
C613 C 0.63583 0.97644 0.34741 0.0
C614 C 0.61936 0.06098 0.30965 0.0
H615 H 0.60311 0.0486 0.2793 0.0
H616 H 0.64839 0.07707 0.30886 0.0
H617 H 0.6042 0.08108 0.32443 0.0
C618 C 0.64789 0.93953 0.34973 0.0
H619 H 0.6353 0.91782 0.32222 0.0
H620 H 0.67979 0.94468 0.35462 0.0
H621 H 0.63807 0.92817 0.3736 0.0
C622 C 0.44852 0.91779 0.6752 0.0
C623 C 0.49408 0.93351 0.54623 0.0
Cu624 Cu 0.58094 0.88651 0.52254 0.0
Cu625 Cu 0.52866 0.87448 0.57294 0.0
Cu626 Cu 0.39547 0.01941 0.60022 0.0
Cu627 Cu 0.3966 0.07608 0.55241 0.0
Cu628 Cu 0.52952 0.10147 0.39629 0.0
Cu629 Cu 0.58046 0.05004 0.39034 0.0
Cu630 Cu 0.41327 0.10012 0.48238 0.0
Cu631 Cu 0.46107 0.1107 0.42647 0.0
Cu632 Cu 0.59679 0.9789 0.41166 0.0
Cu633 Cu 0.59793 0.91944 0.45713 0.0
Cu634 Cu 0.45864 0.89116 0.59654 0.0
Cu635 Cu 0.40965 0.94413 0.6092 0.0
H636 H 0.50175 0.80045 0.51824 0.0
H637 H 0.54537 0.80458 0.50029 0.0
H638 H 0.50214 0.81312 0.47211 0.0
H639 H 0.58418 0.96525 0.55464 0.0
H640 H 0.56298 0.98335 0.51427 0.0
H641 H 0.61377 0.98252 0.52342 0.0
H642 H 0.32411 0.98803 0.50932 0.0
H643 H 0.31684 0.03527 0.52845 0.0
H644 H 0.31585 -0.00028 0.55755 0.0
H645 H 0.47658 0.02985 0.63358 0.0
H646 H 0.48389 0.01809 0.58495 0.0
H647 H 0.48777 0.98446 0.61608 0.0
H648 H 0.5387 0.03196 0.31051 0.0
H649 H 0.51335 0.07048 0.31401 0.0
H650 H 0.48927 0.02222 0.31527 0.0
H651 H 0.53243 0.13658 0.48598 0.0
H652 H 0.55914 0.0999 0.4765 0.0
H653 H 0.51667 0.08957 0.4959 0.0
H654 H 0.48874 0.19238 0.49653 0.0
H655 H 0.44656 0.19039 0.45974 0.0
H656 H 0.44153 0.18537 0.50761 0.0
H657 H 0.44988 0.03694 0.48099 0.0
H658 H 0.47855 0.04766 0.52989 0.0
H659 H 0.43024 0.01709 0.51759 0.0
H660 H 0.68269 0.00464 0.47646 0.0
H661 H 0.68204 0.95476 0.47738 0.0
H662 H 0.68071 0.97052 0.4324 0.0
H663 H 0.53293 0.98284 0.44303 0.0
H664 H 0.54664 0.03075 0.47338 0.0
H665 H 0.51793 0.02177 0.42426 0.0
H666 H 0.451 0.9447 0.69677 0.0
H667 H 0.42085 0.89741 0.67303 0.0
H668 H 0.47287 0.90446 0.68443 0.0
H669 H 0.46384 0.93677 0.54055 0.0
H670 H 0.51388 0.96248 0.5546 0.0
H671 H 0.49926 0.91671 0.51958 0.0
O672 O 0.53059 0.85481 0.51979 0.0
O673 O 0.57555 0.93084 0.50122 0.0
O674 O 0.36857 0.02431 0.55026 0.0
O675 O 0.43356 0.98972 0.59422 0.0
O676 O 0.52953 0.05249 0.36346 0.0
O677 O 0.50735 0.09251 0.43936 0.0
O678 O 0.45284 0.13963 0.47365 0.0
O679 O 0.43428 0.07444 0.52102 0.0
O680 O 0.63158 0.96614 0.45265 0.0
O681 O 0.57473 0.021 0.43007 0.0
O682 O 0.4498 0.92632 0.63996 0.0
O683 O 0.50024 0.91457 0.57565 0.0
C684 C 0.63724 0.43029 0.12958 0.0
C685 C 0.63146 0.44048 0.16677 0.0
C686 C 0.59167 0.43483 0.16223 0.0
N687 N 0.60248 0.41898 0.10507 0.0
N688 N 0.57541 0.42204 0.12437 0.0
C689 C 0.67426 0.42633 0.1182 0.0
H690 H 0.67068 0.42221 0.08644 0.0
H691 H 0.68311 0.40106 0.12746 0.0
H692 H 0.69753 0.45228 0.13279 0.0
C693 C 0.56956 0.43912 0.19328 0.0
H694 H 0.54083 0.44425 0.18163 0.0
H695 H 0.58596 0.46319 0.21792 0.0
H696 H 0.56518 0.41218 0.20407 0.0
C697 C 0.458 0.61493 0.8225 0.0
C698 C 0.51124 0.59919 0.80997 0.0
C699 C 0.48104 0.61522 0.79557 0.0
N700 N 0.47433 0.59996 0.851 0.0
N701 N 0.50569 0.59007 0.84325 0.0
H702 H 0.42488 0.65762 0.83021 0.0
H703 H 0.40336 0.61811 0.78929 0.0
H704 H 0.4031 0.61147 0.83802 0.0
C705 C 0.41995 0.62595 0.8198 0.0
H706 H 0.55671 0.62102 0.78345 0.0
H707 H 0.5376 0.56975 0.76908 0.0
H708 H 0.56898 0.59023 0.81621 0.0
C709 C 0.54586 0.59497 0.79396 0.0
C710 C 0.51964 0.32824 0.04159 0.0
C711 C 0.59943 0.47202 0.04183 0.0
C712 C 0.42342 0.62747 0.1319 0.0
N713 N 0.40778 0.60398 0.09709 0.0
N714 N 0.4094 0.62369 0.07006 0.0
C715 C 0.43579 0.66443 0.12632 0.0
C716 C 0.42645 0.6608 0.08643 0.0
H717 H 0.42852 0.58334 0.1639 0.0
H718 H 0.40204 0.61753 0.1813 0.0
H719 H 0.4539 0.63198 0.19036 0.0
C720 C 0.42752 0.61428 0.16909 0.0
H721 H 0.41398 0.68287 0.03498 0.0
H722 H 0.46316 0.69817 0.06206 0.0
H723 H 0.42686 0.71885 0.08027 0.0
C724 C 0.43263 0.69197 0.06455 0.0
C725 C 0.64701 0.34816 0.98969 0.0
C726 C 0.62952 0.33515 0.04233 0.0
N727 N 0.62744 0.37378 0.00286 0.0
N728 N 0.61662 0.36576 0.03391 0.0
C729 C 0.64909 0.32274 0.01435 0.0
H730 H 0.68943 0.35873 0.95659 0.0
H731 H 0.65383 0.31409 0.93699 0.0
H732 H 0.64132 0.35967 0.93281 0.0
C733 C 0.65834 0.34485 0.95163 0.0
C734 C 0.62346 0.31867 0.07646 0.0
H735 H 0.64971 0.30961 0.08921 0.0
H736 H 0.59912 0.29286 0.06709 0.0
H737 H 0.61626 0.34011 0.09849 0.0
C738 C 0.31756 0.53811 0.01703 0.0
C739 C 0.46481 0.54266 0.08879 0.0
C740 C 0.60252 0.63051 0.90434 0.0
N741 N 0.58327 0.59368 0.89802 0.0
C742 C 0.64182 0.63194 0.91555 0.0
N743 N 0.60774 0.57177 0.90458 0.0
C744 C 0.64389 0.59381 0.91544 0.0
H745 H 0.5538 0.65642 0.90443 0.0
H746 H 0.5811 0.66677 0.86923 0.0
H747 H 0.60062 0.69041 0.91941 0.0
C748 C 0.58344 0.66308 0.89937 0.0
H749 H 0.67269 0.54664 0.91179 0.0
C750 C 0.67953 0.5784 0.92228 0.0
H751 H 0.7011 0.59224 0.90779 0.0
H752 H 0.69251 0.58539 0.95376 0.0
C753 C 0.34402 0.4857 0.14231 0.0
C754 C 0.32844 0.53759 0.12571 0.0
N755 N 0.36865 0.5002 0.12218 0.0
N756 N 0.35903 0.53076 0.11187 0.0
C757 C 0.31777 0.50904 0.14537 0.0
H758 H 0.35572 0.45235 0.18441 0.0
C759 C 0.34222 0.4476 0.15323 0.0
H760 H 0.35803 0.43029 0.13613 0.0
H761 H 0.31175 0.43159 0.14824 0.0
H762 H 0.3013 0.58242 0.14701 0.0
H763 H 0.2843 0.56063 0.09633 0.0
C764 C 0.31036 0.57073 0.12038 0.0
H765 H 0.33083 0.59373 0.11303 0.0
C766 C 0.52072 0.49521 0.82268 0.0
C767 C 0.52246 0.58419 0.95749 0.0
C768 C 0.35759 0.5324 0.89225 0.0
N769 N 0.39173 0.55757 0.90684 0.0
C770 C 0.35968 0.50967 0.8576 0.0
C771 C 0.39691 0.52317 0.85321 0.0
N772 N 0.41534 0.55179 0.88397 0.0
C773 C 0.32226 0.53454 0.90766 0.0
H774 H 0.33043 0.54888 0.93878 0.0
H775 H 0.30529 0.55158 0.89166 0.0
H776 H 0.30383 0.50528 0.90357 0.0
C777 C 0.41295 0.51233 0.81854 0.0
H778 H 0.44476 0.51665 0.82736 0.0
H779 H 0.39957 0.4819 0.80326 0.0
H780 H 0.40655 0.53126 0.79837 0.0
C781 C 0.50069 0.34948 0.147 0.0
C782 C 0.47071 0.34548 0.16634 0.0
C783 C 0.44849 0.37051 0.15456 0.0
N784 N 0.49588 0.37551 0.1254 0.0
N785 N 0.46505 0.38831 0.13026 0.0
H786 H 0.52628 0.30116 0.13638 0.0
H787 H 0.54646 0.33323 0.18289 0.0
H788 H 0.55799 0.34697 0.13958 0.0
C789 C 0.53508 0.33195 0.15183 0.0
C790 C 0.41167 0.3765 0.16504 0.0
H791 H 0.39614 0.35034 0.17248 0.0
H792 H 0.41821 0.40101 0.19042 0.0
H793 H 0.39308 0.38356 0.14053 0.0
C794 C 0.45669 0.66814 0.92901 0.0
C795 C 0.43839 0.55003 0.99239 0.0
C796 C 0.54908 0.38411 0.87661 0.0
C797 C 0.53645 0.34785 0.88368 0.0
C798 C 0.54955 0.35242 0.92329 0.0
N799 N 0.5693 0.40788 0.91027 0.0
N800 N 0.56943 0.38899 0.93809 0.0
C801 C 0.54816 0.39366 0.83788 0.0
H802 H 0.55406 0.4253 0.84069 0.0
H803 H 0.57024 0.38194 0.82493 0.0
H804 H 0.51955 0.38021 0.81813 0.0
C805 C 0.54739 0.32137 0.94557 0.0
H806 H 0.54885 0.33408 0.97618 0.0
H807 H 0.52029 0.29883 0.93314 0.0
H808 H 0.57213 0.30762 0.94429 0.0
C809 C 0.33474 0.64342 -0.00393 0.0
C810 C 0.32852 0.66144 0.96525 0.0
C811 C 0.35154 0.64852 0.94108 0.0
N812 N 0.36004 0.62155 0.98997 0.0
N813 N 0.37031 0.62476 0.95738 0.0
C814 C 0.32125 0.65097 0.03291 0.0
H815 H 0.28958 0.63941 0.02689 0.0
H816 H 0.32722 0.68253 0.0449 0.0
H817 H 0.33563 0.63685 0.05444 0.0
C818 C 0.35594 0.65886 0.90363 0.0
H819 H 0.32825 0.66315 0.88787 0.0
H820 H 0.37799 0.68625 0.90945 0.0
H821 H 0.36556 0.63591 0.88561 0.0
C822 C 0.6803 0.45073 0.96916 0.0
C823 C 0.54931 0.49273 0.9489 0.0
C824 C 0.38678 0.37562 0.05 0.0
N825 N 0.40883 0.41075 0.06824 0.0
N826 N 0.38802 0.43667 0.06602 0.0
C827 C 0.34966 0.37976 0.0358 0.0
C828 C 0.35191 0.41918 0.04625 0.0
H829 H 0.43064 0.34327 0.05784 0.0
H830 H 0.38927 0.32833 0.07748 0.0
H831 H 0.385 0.31618 0.02616 0.0
C832 C 0.39878 0.3387 0.05291 0.0
H833 H 0.33048 0.4695 0.04076 0.0
H834 H 0.29714 0.42417 0.01481 0.0
H835 H 0.30552 0.43884 0.06658 0.0
C836 C 0.3193 0.4391 0.04162 0.0
C837 C 0.62737 0.49264 0.83268 0.0
N838 N 0.6154 0.49153 0.86546 0.0
N839 N 0.62549 0.46301 0.87977 0.0
C840 C 0.64551 0.46241 0.82532 0.0
C841 C 0.64394 0.44425 0.85607 0.0
C842 C 0.62218 0.52255 0.80968 0.0
H843 H 0.59689 0.51055 0.78498 0.0
H844 H 0.64804 0.53086 0.79796 0.0
H845 H 0.61689 0.54834 0.82784 0.0
C846 C 0.65618 0.40783 0.86064 0.0
H847 H 0.65149 0.38806 0.83199 0.0
H848 H 0.68746 0.41491 0.87435 0.0
H849 H 0.63996 0.39342 0.87934 0.0
C850 C 0.45325 0.47968 0.17687 0.0
C851 C 0.49439 0.44654 0.04612 0.0
Cu852 Cu 0.58499 0.39517 0.05355 0.0
Cu853 Cu 0.52554 0.40005 0.09647 0.0
Cu854 Cu 0.38649 0.55206 0.07959 0.0
Cu855 Cu 0.38738 0.59539 0.02041 0.0
Cu856 Cu 0.53225 0.56813 0.87895 0.0
Cu857 Cu 0.58615 0.51924 0.89076 0.0
Cu858 Cu 0.40918 0.60053 0.94681 0.0
Cu859 Cu 0.46105 0.58872 0.89543 0.0
Cu860 Cu 0.60593 0.45389 0.92216 0.0
Cu861 Cu 0.60699 0.41109 0.98286 0.0
Cu862 Cu 0.45473 0.42669 0.1052 0.0
Cu863 Cu 0.40728 0.4832 0.10161 0.0
H864 H 0.49589 0.31939 0.01524 0.0
H865 H 0.50884 0.31871 0.06589 0.0
H866 H 0.54362 0.31453 0.03637 0.0
H867 H 0.63057 0.47639 0.05509 0.0
H868 H 0.58397 0.47985 0.06482 0.0
H869 H 0.596 0.49061 0.02084 0.0
H870 H 0.3083 0.51497 0.99025 0.0
H871 H 0.30636 0.56362 0.01183 0.0
H872 H 0.30578 0.52746 0.04032 0.0
H873 H 0.46835 0.57174 0.0823 0.0
H874 H 0.48203 0.52599 0.07298 0.0
H875 H 0.47505 0.54576 0.12035 0.0
H876 H 0.49439 0.47298 0.82091 0.0
H877 H 0.54264 0.48089 0.81256 0.0
H878 H 0.51351 0.51517 0.804 0.0
H879 H 0.55415 0.58995 0.96044 0.0
H880 H 0.5141 0.56262 0.97436 0.0
H881 H 0.51445 0.61141 0.96881 0.0
H882 H 0.48775 0.68108 0.93227 0.0
H883 H 0.44032 0.6694 0.90035 0.0
H884 H 0.44581 0.68449 0.95209 0.0
H885 H 0.44148 0.53834 0.96284 0.0
H886 H 0.46667 0.55556 0.0129 0.0
H887 H 0.41679 0.52858 0.00026 0.0
H888 H 0.69379 0.44584 -0.00249 0.0
H889 H 0.68298 0.42776 0.94568 0.0
H890 H 0.69517 0.47924 0.96575 0.0
H891 H 0.54281 0.46419 0.95641 0.0
H892 H 0.5539 0.51577 0.9752 0.0
H893 H 0.52462 0.4949 0.92675 0.0
H894 H 0.46451 0.51097 0.18972 0.0
H895 H 0.42498 0.46987 0.18377 0.0
H896 H 0.47392 0.46353 0.18903 0.0
H897 H 0.46452 0.44952 0.03576 0.0
H898 H 0.51488 0.47406 0.04786 0.0
H899 H 0.50037 0.42297 0.02549 0.0
O900 O 0.53239 0.36761 0.05051 0.0
O901 O 0.58481 0.43405 0.02333 0.0
O902 O 0.35711 0.54813 0.02769 0.0
O903 O 0.42662 0.52378 0.07755 0.0
O904 O 0.53491 0.51541 0.86023 0.0
O905 O 0.50402 0.57014 0.91933 0.0
O906 O 0.45228 0.63052 0.93221 0.0
O907 O 0.42638 0.58383 0.99337 0.0
O908 O 0.6421 0.45014 0.96761 0.0
O909 O 0.58205 0.4966 0.93464 0.0
O910 O 0.44906 0.47323 0.1376 0.0
O911 O 0.49824 0.43815 0.082 0.0
H912 H 0.91463 0.15919 0.2053 0.0
H913 H -0.00202 0.1812 0.13517 0.0
H914 H 0.03582 0.23783 0.1862 0.0
H915 H 0.91516 0.25764 0.24103 0.0
H916 H 0.91034 0.25196 0.28862 0.0
H917 H 0.89111 0.21177 0.24773 0.0
H918 H 0.93136 0.17052 0.28214 0.0
H919 H 0.95075 0.21061 0.32319 0.0
H920 H 0.9829 0.18819 0.29903 0.0
H921 H 0.0639 0.29152 0.24368 0.0
H922 H 0.07924 0.34234 0.30345 0.0
H923 H 0.97629 0.28771 0.33561 0.0
C924 C 0.9411 0.17582 0.20107 0.0
C925 C 0.95369 0.16623 0.16666 0.0
C926 C 0.98797 0.18861 0.16143 0.0
C927 C 0.00967 0.22052 0.19026 0.0
C928 C -0.00358 0.2295 0.22387 0.0
C929 C 0.96287 0.20803 0.22941 0.0
C930 C 0.95413 0.22515 0.26743 0.0
C931 C 0.91539 0.23736 0.26079 0.0
C932 C 0.95484 0.19693 0.29455 0.0
C933 C 0.98787 0.25981 0.2822 0.0
C934 C 0.01207 0.26143 0.25674 0.0
C935 C 0.0451 0.29076 0.26375 0.0
C936 C 0.05338 0.31957 0.29751 0.0
C937 C 0.02843 0.31905 0.32339 0.0
C938 C -0.00441 0.28859 0.316 0.0
H939 H 0.80872 0.02649 0.20755 0.0
H940 H 0.75461 0.91324 0.13426 0.0
H941 H 0.70118 0.90847 0.16856 0.0
H942 H 0.78522 0.00643 0.29485 0.0
H943 H 0.77669 0.05351 0.31115 0.0
H944 H 0.81006 0.04763 0.28045 0.0
H945 H 0.7717 0.07883 0.23157 0.0
H946 H 0.73795 0.08445 0.26197 0.0
H947 H 0.72079 0.05866 0.21219 0.0
H948 H 0.65411 0.91637 0.21101 0.0
H949 H 0.61854 0.93462 0.26122 0.0
H950 H 0.70354 0.04287 0.30635 0.0
C951 C 0.78552 0.00076 0.19879 0.0
C952 C 0.78569 0.96999 0.16876 0.0
C953 C 0.75521 0.93664 0.15792 0.0
C954 C 0.72462 0.93394 0.17687 0.0
C955 C 0.72515 0.96496 0.20634 0.0
C956 C 0.7549 -0.00235 0.21736 0.0
C957 C 0.74912 0.02656 0.25044 0.0
C958 C 0.78223 0.03394 0.28635 0.0
C959 C 0.74462 0.06436 0.2383 0.0
C960 C 0.7116 0.00488 0.25663 0.0
C961 C 0.69807 0.96954 0.23069 0.0
C962 C 0.6644 0.94394 0.23143 0.0
C963 C 0.64453 0.95443 0.26002 0.0
C964 C 0.65861 0.98998 0.28738 0.0
C965 C 0.69207 0.01578 0.28526 0.0
H966 H 0.94795 0.758 0.1626 0.0
H967 H 0.0552 0.841 0.22033 0.0
H968 H 0.06333 0.8061 0.27296 0.0
H969 H 0.91536 0.74571 0.25033 0.0
H970 H 0.8945 0.69483 0.23211 0.0
H971 H 0.89675 0.72665 0.19912 0.0
H972 H 0.93359 0.68447 0.1607 0.0
H973 H 0.93143 0.65253 0.19353 0.0
H974 H 0.97742 0.67472 0.18568 0.0
H975 H 0.06115 0.76158 0.31762 0.0
H976 H 0.04844 0.70959 0.35267 0.0
H977 H 0.94144 0.65621 0.26781 0.0
C978 C 0.97291 0.76883 0.18655 0.0
C979 C 0.00131 0.80168 0.18741 0.0
C980 C 0.03374 0.81522 0.21887 0.0
C981 C 0.03836 0.79586 0.24901 0.0
C982 C 0.01006 0.7633 0.24726 0.0
C983 C 0.97788 0.74988 0.21699 0.0
C984 C 0.95215 0.71379 0.22199 0.0
C985 C 0.91233 0.72068 0.22614 0.0
C986 C 0.94845 0.67934 0.18848 0.0
C987 C 0.97516 0.70883 0.25957 0.0
C988 C 0.00842 0.73782 0.2736 0.0
C989 C 0.03511 0.73887 0.30713 0.0
C990 C 0.02777 0.70929 0.32672 0.0
C991 C -0.00593 0.67933 0.31272 0.0
C992 C 0.96722 0.67921 0.27904 0.0
H993 H 0.33248 0.05347 0.31457 0.0
H994 H 0.31789 0.95771 0.37141 0.0
H995 H 0.25907 0.92421 0.32071 0.0
H996 H 0.23356 0.05316 0.28563 0.0
H997 H 0.23698 0.06468 0.23966 0.0
H998 H 0.27836 0.08048 0.27976 0.0
H999 H 0.3189 0.04625 0.23862 0.0
H1000 H 0.27774 0.03058 0.19824 0.0
H1001 H 0.30158 -0.00432 0.21595 0.0
H1002 H 0.20121 0.90235 0.26486 0.0
H1003 H 0.14942 0.89236 0.20627 0.0
H1004 H 0.20263 0.00222 0.18572 0.0
C1005 C 0.31733 0.0251 0.31585 0.0
C1006 C 0.32955 0.0079 0.34658 0.0
C1007 C 0.30856 0.97131 0.34808 0.0
C1008 C 0.27534 0.95209 0.31941 0.0
C1009 C 0.2638 0.96999 0.28957 0.0
C1010 C 0.2843 0.00556 0.28746 0.0
C1011 C 0.26554 0.0188 0.25272 0.0
C1012 C 0.25285 0.05651 0.2652 0.0
C1013 C 0.29255 0.02307 0.22473 0.0
C1014 C 0.23114 0.98519 0.23565 0.0
C1015 C 0.23061 0.95737 0.25738 0.0
C1016 C 0.20133 0.92389 0.24761 0.0
C1017 C 0.17195 0.91861 0.21458 0.0
C1018 C 0.17222 0.94666 0.19191 0.0
C1019 C 0.20211 0.9803 0.20257 0.0
H1020 H 0.042 0.80622 0.85172 0.0
H1021 H 0.95463 0.87201 0.83232 0.0
H1022 H 0.91637 0.81933 0.77719 0.0
H1023 H 0.03999 0.7701 0.75595 0.0
H1024 H 0.04653 0.72311 0.76158 0.0
H1025 H 0.06487 0.76401 0.80177 0.0
H1026 H 0.0259 0.72857 0.84358 0.0
H1027 H 0.00763 0.68729 0.80357 0.0
H1028 H 0.97455 0.70983 0.82609 0.0
H1029 H 0.89131 0.76263 0.72091 0.0
H1030 H 0.88009 0.70471 0.66819 0.0
H1031 H 0.98305 0.67544 0.72589 0.0
C1032 C 0.01422 0.80896 0.83667 0.0
C1033 C 0.00095 0.84284 0.84619 0.0
C1034 C 0.96522 0.8462 0.82507 0.0
C1035 C 0.94325 0.81638 0.79402 0.0
C1036 C 0.95745 0.78348 0.78492 0.0
C1037 C -0.00806 0.77945 0.80585 0.0
C1038 C 0.002 0.74232 0.78877 0.0
C1039 C 0.04062 0.75039 0.77627 0.0
C1040 C 0.00254 0.71541 0.8172 0.0
C1041 C 0.96832 0.72657 0.75429 0.0
C1042 C 0.94279 0.75059 0.75271 0.0
C1043 C 0.91075 0.74332 0.72212 0.0
C1044 C 0.90476 0.71066 0.69229 0.0
C1045 C 0.93071 0.68597 0.69348 0.0
C1046 C 0.96255 0.69373 0.72495 0.0
H1047 H 0.2132 0.97893 0.8276 0.0
H1048 H 0.11428 -0.00672 0.74794 0.0
H1049 H 0.14672 0.98041 0.694 0.0
H1050 H 0.28437 0.02516 0.78702 0.0
H1051 H 0.31614 -0.00695 0.79454 0.0
H1052 H 0.28375 0.00033 0.82601 0.0
H1053 H 0.255 0.92656 0.81023 0.0
H1054 H 0.28724 0.91908 0.77848 0.0
H1055 H 0.23586 0.90102 0.76056 0.0
H1056 H 0.19171 0.9713 0.65022 0.0
H1057 H 0.24727 0.96863 0.61973 0.0
H1058 H 0.31615 0.95775 0.72715 0.0
C1059 C 0.19817 0.97868 0.79865 0.0
C1060 C 0.16141 0.98725 0.79178 0.0
C1061 C 0.14277 0.98743 0.75379 0.0
C1062 C 0.16075 0.97967 0.72296 0.0
C1063 C 0.19715 0.97149 0.73071 0.0
C1064 C 0.21566 0.97088 0.76761 0.0
C1065 C 0.25566 0.96365 0.76858 0.0
C1066 C 0.2868 -0.00243 0.79563 0.0
C1067 C 0.2586 0.92529 0.78014 0.0
C1068 C 0.2572 0.96136 0.72663 0.0
C1069 C 0.22296 0.96553 0.70522 0.0
C1070 C 0.2184 0.96737 0.66648 0.0
C1071 C 0.24999 0.96586 0.64945 0.0
C1072 C 0.28545 0.96253 0.67116 0.0
C1073 C 0.28887 0.9593 0.70987 0.0
H1074 H 0.01343 0.30231 0.6893 0.0
H1075 H 0.89853 0.25737 0.616 0.0
H1076 H 0.88556 0.20849 0.6549 0.0
H1077 H 0.03248 0.2109 0.70469 0.0
H1078 H 0.05785 0.23067 0.75435 0.0
H1079 H 0.05815 0.26083 0.71975 0.0
H1080 H 0.0313 0.30949 0.76326 0.0
H1081 H 0.03085 0.27949 0.79795 0.0
H1082 H 0.98719 0.29283 0.77781 0.0
H1083 H 0.88565 0.16487 0.70235 0.0
H1084 H 0.89819 0.13081 0.75531 0.0
H1085 H 0.01201 0.20691 0.79861 0.0
C1086 C 0.98578 0.28176 0.68117 0.0
C1087 C 0.95698 0.28313 0.64971 0.0
C1088 C 0.92078 0.2566 0.64025 0.0
C1089 C 0.91329 0.22876 0.66201 0.0
C1090 C 0.94231 0.22823 0.69312 0.0
C1091 C 0.97779 0.25412 0.70272 0.0
C1092 C 0.00363 0.24849 0.73823 0.0
C1093 C 0.04019 0.23703 0.72866 0.0
C1094 C 0.01382 0.28473 0.77126 0.0
C1095 C 0.97718 0.21535 0.7472 0.0
C1096 C 0.94202 0.2039 0.7208 0.0
C1097 C 0.913 0.17373 0.7233 0.0
C1098 C 0.92021 0.15481 0.75364 0.0
C1099 C 0.95597 0.16641 0.78102 0.0
C1100 C 0.98466 0.19706 0.77769 0.0
H1101 H 0.6574 0.96396 0.70118 0.0
H1102 H 0.69623 0.87083 0.63776 0.0
H1103 H 0.75436 0.88326 0.69084 0.0
H1104 H 0.74836 0.02733 0.73579 0.0
H1105 H 0.73986 0.04693 0.78221 0.0
H1106 H 0.69991 0.02815 0.74099 0.0
H1107 H 0.66667 0.98176 0.77824 0.0
H1108 H 0.70662 0.00043 0.81963 0.0
H1109 H 0.69241 0.94936 0.79854 0.0
H1110 H 0.80968 0.90844 0.74932 0.0
H1111 H 0.85899 0.94588 0.80788 0.0
H1112 H 0.78396 0.02322 0.83123 0.0
C1113 C 0.6778 0.94572 0.69902 0.0
C1114 C 0.67259 0.91631 0.66594 0.0
C1115 C 0.70012 0.89356 0.66316 0.0
C1116 C 0.73294 0.90024 0.69316 0.0
C1117 C 0.73751 0.92977 0.72548 0.0
C1118 C 0.7107 0.95216 0.72854 0.0
C1119 C 0.72356 0.98375 0.76495 0.0
C1120 C 0.72821 0.0239 0.75539 0.0
C1121 C 0.69565 0.97849 0.79193 0.0
C1122 C 0.7621 0.97609 0.78158 0.0
C1123 C 0.76952 0.9446 0.75869 0.0
C1124 C 0.8041 0.93299 0.7676 0.0
C1125 C 0.83195 0.95446 0.80062 0.0
C1126 C 0.82496 0.98712 0.82385 0.0
C1127 C 0.78954 -0.00222 0.81436 0.0
H1128 H 0.32682 0.3164 0.97557 0.0
H1129 H 0.29351 0.37392 0.07615 0.0
H1130 H 0.23333 0.32346 0.06115 0.0
H1131 H 0.23224 0.28434 0.91313 0.0
H1132 H 0.23971 0.23829 0.89119 0.0
H1133 H 0.28013 0.2792 0.90958 0.0
H1134 H 0.3149 0.24043 0.95282 0.0
H1135 H 0.27454 0.19939 0.93458 0.0
H1136 H 0.29078 0.2191 0.98591 0.0
H1137 H 0.17668 0.26812 0.03492 0.0
H1138 H 0.1271 0.20932 -0.00041 0.0
H1139 H 0.19776 0.18593 0.91731 0.0
C1140 C 0.30676 0.31814 -0.00568 0.0
C1141 C 0.31408 0.34924 0.02644 0.0
C1142 C 0.28761 0.35079 0.0507 0.0
C1143 C 0.25362 0.32213 0.04265 0.0
C1144 C 0.24691 0.29196 0.01053 0.0
C1145 C 0.27275 0.28954 0.98684 0.0
C1146 C 0.25855 0.25379 0.95436 0.0
C1147 C 0.25228 0.26456 0.91472 0.0
C1148 C 0.28635 0.22657 0.9571 0.0
C1149 C 0.2206 0.23677 0.96337 0.0
C1150 C 0.21448 0.25933 -0.00413 0.0
C1151 C 0.18111 0.25011 0.00948 0.0
C1152 C 0.1531 0.21692 0.9892 0.0
C1153 C 0.15884 0.19351 0.95589 0.0
C1154 C 0.19306 0.20335 0.94298 0.0
H1155 H 0.2556 0.66313 0.97425 0.0
H1156 H 0.35869 0.73255 0.95487 0.0
H1157 H 0.32894 0.78874 0.95897 0.0
H1158 H 0.18593 0.70695 0.92117 0.0
H1159 H 0.15535 0.70467 0.95523 0.0
H1160 H 0.18377 0.66928 0.9478 0.0
H1161 H 0.21468 0.68645 0.0213 0.0
H1162 H 0.18672 0.72223 0.0289 0.0
H1163 H 0.2386 0.73574 0.04474 0.0
H1164 H 0.29014 0.8381 0.96958 0.0
H1165 H 0.24281 0.87702 0.98224 0.0
H1166 H 0.16468 0.77568 -0.00535 0.0
C1167 C 0.27165 0.69011 0.97053 0.0
C1168 C 0.30913 0.69358 0.96374 0.0
C1169 C 0.32949 0.72917 0.95903 0.0
C1170 C 0.31301 0.76129 0.96173 0.0
C1171 C 0.27622 0.75716 0.96915 0.0
C1172 C 0.25562 0.72244 0.97317 0.0
C1173 C 0.21701 0.72606 0.98202 0.0
C1174 C 0.18354 0.70021 0.94962 0.0
C1175 C 0.2141 0.71709 0.02159 0.0
C1176 C 0.21935 0.76837 0.98278 0.0
C1177 C 0.25376 0.78573 0.97528 0.0
C1178 C 0.2629 0.82477 0.97505 0.0
C1179 C 0.23585 0.84657 0.98211 0.0
C1180 C 0.20016 0.82919 0.98912 0.0
C1181 C 0.19196 0.7897 0.98977 0.0
H1182 H 0.71905 0.31746 -0.00088 0.0
H1183 H 0.61417 0.24968 0.01679 0.0
H1184 H 0.64048 0.1913 0.00719 0.0
H1185 H 0.73357 0.24397 0.92363 0.0
H1186 H 0.78539 0.2566 0.94021 0.0
H1187 H 0.75799 0.2929 0.94794 0.0
H1188 H 0.78811 0.30874 0.02157 0.0
H1189 H 0.81578 0.27274 0.01403 0.0
H1190 H 0.78454 0.27051 0.04748 0.0
H1191 H 0.67912 0.14104 -0.00225 0.0
H1192 H 0.72823 0.10262 0.99063 0.0
H1193 H 0.80693 0.20298 0.97735 0.0
C1194 C 0.70159 0.29023 0.00066 0.0
C1195 C 0.66486 0.28796 0.00912 0.0
C1196 C 0.64281 0.25207 0.0113 0.0
C1197 C 0.6573 0.21874 0.0054 0.0
C1198 C 0.6937 0.22191 -0.00292 0.0
C1199 C 0.71555 0.25673 -0.00529 0.0
C1200 C 0.75418 0.25256 0.98635 0.0
C1201 C 0.75799 0.26207 0.9472 0.0
C1202 C 0.78762 0.27762 0.01933 0.0
C1203 C 0.75086 0.21003 0.9849 0.0
C1204 C 0.71567 0.19281 0.99096 0.0
C1205 C 0.70663 0.15409 0.99265 0.0
C1206 C 0.7346 0.13256 0.98866 0.0
C1207 C 0.77094 0.1499 0.98305 0.0
C1208 C 0.77893 0.1889 0.98061 0.0
H1209 H 0.83476 0.78176 0.03716 0.0
H1210 H 0.81896 0.85026 0.95119 0.0
H1211 H 0.76246 0.79936 0.91214 0.0
H1212 H 0.80503 0.68627 0.96963 0.0
H1213 H 0.78089 0.66414 0.00225 0.0
H1214 H 0.82217 0.70419 0.02116 0.0
H1215 H 0.78162 0.74133 0.0597 0.0
H1216 H 0.7402 0.70159 0.04078 0.0
H1217 H 0.73697 0.74923 0.03441 0.0
H1218 H 0.70555 0.74305 0.88498 0.0
H1219 H 0.65215 0.6852 0.87143 0.0
H1220 H 0.70441 0.65478 0.9764 0.0
C1221 C 0.81992 0.78546 0.00961 0.0
C1222 C 0.83102 0.81951 -0.00321 0.0
C1223 C 0.81054 0.8242 0.96128 0.0
C1224 C 0.77866 0.79545 0.93894 0.0
C1225 C 0.76788 0.76238 0.9527 0.0
C1226 C 0.78797 0.75719 0.98716 0.0
C1227 C 0.76901 0.72026 -0.00324 0.0
C1228 C 0.79588 0.69205 -0.00252 0.0
C1229 C 0.75619 0.72862 0.03518 0.0
C1230 C 0.73472 0.70581 0.96269 0.0
C1231 C 0.73476 0.73031 0.93742 0.0
C1232 C 0.7053 0.72357 0.90446 0.0
C1233 C 0.67495 0.69092 0.8972 0.0
C1234 C 0.67427 0.66576 0.92296 0.0
C1235 C 0.70463 0.67323 0.95593 0.0
H1236 H 0.71801 0.45201 0.82606 0.0
H1237 H 0.61047 0.45157 0.7496 0.0
H1238 H 0.64196 0.44743 0.69434 0.0
H1239 H 0.77646 0.51235 0.78937 0.0
H1240 H 0.81654 0.48922 0.79313 0.0
H1241 H 0.78425 0.48396 0.82509 0.0
H1242 H 0.77021 0.4095 0.80306 0.0
H1243 H 0.80304 0.41445 0.77134 0.0
H1244 H 0.754 0.387 0.75228 0.0
H1245 H 0.68707 0.45588 0.65103 0.0
H1246 H 0.7426 0.47143 0.62099 0.0
H1247 H 0.82063 0.46436 0.72463 0.0
C1248 C 0.70088 0.4494 0.79735 0.0
C1249 C 0.66207 0.45218 0.79174 0.0
C1250 C 0.64046 0.44983 0.75421 0.0
C1251 C 0.65798 0.44718 0.72271 0.0
C1252 C 0.69692 0.44636 0.72935 0.0
C1253 C 0.718 0.44671 0.7656 0.0
C1254 C 0.7603 0.44975 0.76577 0.0
C1255 C 0.78586 0.48598 0.79506 0.0
C1256 C 0.77261 0.41298 0.77356 0.0
C1257 C 0.75999 0.45315 0.72458 0.0
C1258 C 0.72306 0.45063 0.70391 0.0
C1259 C 0.71599 0.45692 0.66653 0.0
C1260 C 0.74755 0.4661 0.64987 0.0
C1261 C 0.78537 0.4688 0.6707 0.0
C1262 C 0.79166 0.46169 0.70814 0.0
H1263 H 0.1982 0.47741 0.66735 0.0
H1264 H 0.13633 0.37828 0.70019 0.0
H1265 H 0.1897 0.38811 0.75744 0.0
H1266 H 0.29321 0.459 0.69411 0.0
H1267 H 0.31661 0.50944 0.71123 0.0
H1268 H 0.27335 0.49462 0.67319 0.0
H1269 H 0.2404 0.53992 0.71339 0.0
H1270 H 0.28365 0.55511 0.75131 0.0
H1271 H 0.2382 0.5355 0.76193 0.0
H1272 H 0.24943 0.41002 0.81168 0.0
H1273 H 0.31033 0.44364 0.85975 0.0
H1274 H 0.33342 0.52601 0.78882 0.0
C1275 C 0.19614 0.45753 0.68635 0.0
C1276 C 0.1634 0.42714 0.67959 0.0
C1277 C 0.16109 0.40215 0.70543 0.0
C1278 C 0.19136 0.40725 0.73768 0.0
C1279 C 0.22362 0.43727 0.74325 0.0
C1280 C 0.22613 0.46201 0.71831 0.0
C1281 C 0.26355 0.49236 0.73094 0.0
C1282 C 0.28813 0.48861 0.70055 0.0
C1283 C 0.25598 0.53312 0.73994 0.0
C1284 C 0.28158 0.48114 0.76716 0.0
C1285 C 0.25823 0.44924 0.7738 0.0
C1286 C 0.26815 0.43475 0.8066 0.0
C1287 C 0.3026 0.45385 0.8336 0.0
C1288 C 0.3264 0.48672 0.82728 0.0
C1289 C 0.31603 0.50021 0.79355 0.0
H1290 H 0.21305 0.47579 0.31517 0.0
H1291 H 0.10761 0.48511 0.24173 0.0
H1292 H 0.14107 0.48962 0.18827 0.0
H1293 H 0.27554 0.54352 0.28559 0.0
H1294 H 0.31418 0.51846 0.28708 0.0
H1295 H 0.28097 0.51137 0.31796 0.0
H1296 H 0.26432 0.43752 0.28988 0.0
H1297 H 0.29788 0.44431 0.25917 0.0
H1298 H 0.24832 0.41924 0.23831 0.0
H1299 H 0.18734 0.49856 0.14514 0.0
H1300 H 0.24294 0.50901 0.11436 0.0
H1301 H 0.31804 0.49487 0.21668 0.0
C1302 C 0.19682 0.4776 0.28744 0.0
C1303 C 0.15791 0.47996 0.28219 0.0
C1304 C 0.13761 0.48346 0.24605 0.0
C1305 C 0.15628 0.48586 0.2156 0.0
C1306 C 0.19509 0.48451 0.22195 0.0
C1307 C 0.21506 0.48013 0.25686 0.0
C1308 C 0.25716 0.48202 0.25708 0.0
C1309 C 0.28349 0.51586 0.2888 0.0
C1310 C 0.26752 0.44347 0.26136 0.0
C1311 C 0.25793 0.48898 0.21719 0.0
C1312 C 0.22181 0.49006 0.19725 0.0
C1313 C 0.21572 0.49753 0.16034 0.0
C1314 C 0.24744 0.50389 0.1433 0.0
C1315 C 0.28454 0.5029 0.16338 0.0
C1316 C 0.28977 0.49526 0.20064 0.0
H1317 H 0.69635 0.49782 0.19064 0.0
H1318 H 0.63207 0.40003 0.22343 0.0
H1319 H 0.68376 0.41059 0.28239 0.0
H1320 H 0.78985 0.48036 0.22075 0.0
H1321 H 0.8135 0.53072 0.23812 0.0
H1322 H 0.77086 0.51618 0.19939 0.0
H1323 H 0.73734 0.56174 0.23853 0.0
H1324 H 0.78004 0.57673 0.27716 0.0
H1325 H 0.73405 0.55743 0.28686 0.0
H1326 H 0.74349 0.43105 0.33653 0.0
H1327 H 0.80549 0.46218 0.38377 0.0
H1328 H 0.82966 0.54618 0.31465 0.0
C1329 C 0.69331 0.47872 0.21033 0.0
C1330 C 0.66062 0.44824 0.20296 0.0
C1331 C 0.65696 0.42388 0.22922 0.0
C1332 C 0.6862 0.42947 0.26246 0.0
C1333 C 0.71857 0.45952 0.26868 0.0
C1334 C 0.72213 0.4839 0.24349 0.0
C1335 C 0.75967 0.51403 0.25669 0.0
C1336 C 0.78496 0.51006 0.22696 0.0
C1337 C 0.75232 0.55489 0.26533 0.0
C1338 C 0.7768 0.50275 0.29321 0.0
C1339 C 0.75278 0.4712 0.29965 0.0
C1340 C 0.76251 0.45582 0.33186 0.0
C1341 C 0.79755 0.47362 0.35847 0.0
C1342 C 0.82203 0.50624 0.35245 0.0
C1343 C 0.81166 0.52075 0.31936 0.0
H1344 H 0.33446 0.78621 0.53357 0.0
H1345 H 0.30644 0.85715 0.45259 0.0
H1346 H 0.2478 0.80632 0.41797 0.0
H1347 H 0.30085 0.69258 0.46447 0.0
H1348 H 0.2825 0.66889 0.49937 0.0
H1349 H 0.32348 0.70949 0.5152 0.0
H1350 H 0.28763 0.7445 0.56139 0.0
H1351 H 0.24651 0.70421 0.54562 0.0
H1352 H 0.24065 0.75191 0.54211 0.0
H1353 H 0.19094 0.74927 0.3951 0.0
H1354 H 0.13946 0.69051 0.38574 0.0
H1355 H 0.20532 0.65848 0.48304 0.0
C1356 C 0.31647 0.79051 0.50792 0.0
C1357 C 0.3248 0.82493 0.49507 0.0
C1358 C 0.3002 0.83058 0.46241 0.0
C1359 C 0.26713 0.80193 0.44265 0.0
C1360 C 0.25955 0.76819 0.45621 0.0
C1361 C 0.2836 0.7624 0.48806 0.0
C1362 C 0.26801 0.72483 0.49836 0.0
C1363 C 0.29534 0.69732 0.49408 0.0
C1364 C 0.26023 0.7318 0.53928 0.0
C1365 C 0.23096 0.71056 0.46772 0.0
C1366 C 0.22671 0.73576 0.44346 0.0
C1367 C 0.19405 0.72924 0.41376 0.0
C1368 C 0.16493 0.69611 0.40888 0.0
C1369 C 0.1688 0.67037 0.43378 0.0
C1370 C 0.20221 0.67753 0.4633 0.0
H1371 H 0.16909 0.25963 0.45468 0.0
H1372 H 0.21199 0.33936 0.56639 0.0
H1373 H 0.26097 0.30254 0.58405 0.0
H1374 H 0.18039 0.17415 0.48668 0.0
H1375 H 0.19604 0.15285 0.4449 0.0
H1376 H 0.1647 0.1858 0.44069 0.0
H1377 H 0.21382 0.22886 0.41336 0.0
H1378 H 0.24519 0.19588 0.41722 0.0
H1379 H 0.26316 0.24625 0.44046 0.0
H1380 H 0.30367 0.25646 0.59014 0.0
H1381 H 0.34031 0.20542 0.58289 0.0
H1382 H 0.27032 0.15617 0.46694 0.0
C1383 C 0.18919 0.26943 0.4826 0.0
C1384 C 0.18691 0.30187 0.50943 0.0
C1385 C 0.21317 0.31402 0.54586 0.0
C1386 C 0.24109 0.29348 0.55602 0.0
C1387 C 0.24233 0.26114 0.52919 0.0
C1388 C 0.21736 0.24933 0.49311 0.0
C1389 C 0.22488 0.21354 0.46974 0.0
C1390 C 0.18939 0.17958 0.45994 0.0
C1391 C 0.23752 0.22163 0.43303 0.0
C1392 C 0.25779 0.20702 0.49843 0.0
C1393 C 0.26732 0.23474 0.53257 0.0
C1394 C 0.29656 0.23458 0.56357 0.0
C1395 C 0.31693 0.20542 0.55935 0.0
C1396 C 0.30784 0.17714 0.52445 0.0
C1397 C 0.27789 0.17784 0.49373 0.0
H1398 H 0.75981 0.66342 0.49804 0.0
H1399 H 0.86515 0.74152 0.49454 0.0
H1400 H 0.82894 0.7916 0.48419 0.0
H1401 H 0.69736 0.69095 0.42391 0.0
H1402 H 0.65716 0.68725 0.44704 0.0
H1403 H 0.69137 0.65765 0.4551 0.0
H1404 H 0.70418 0.68411 0.52915 0.0
H1405 H 0.66973 0.7135 0.52132 0.0
H1406 H 0.71839 0.73552 0.54846 0.0
H1407 H 0.78204 0.83292 0.47491 0.0
H1408 H 0.72695 0.86421 0.46902 0.0
H1409 H 0.65125 0.75843 0.4754 0.0
C1410 C 0.77514 0.69128 0.49558 0.0
C1411 C 0.81504 0.69895 0.49702 0.0
C1412 C 0.8344 0.73532 0.49316 0.0
C1413 C 0.81415 0.76383 0.48733 0.0
C1414 C 0.77463 0.75526 0.48534 0.0
C1415 C 0.75527 0.71999 0.48945 0.0
C1416 C 0.71263 0.71825 0.4858 0.0
C1417 C 0.6882 0.68665 0.45088 0.0
C1418 C 0.70054 0.71252 0.52342 0.0
C1419 C 0.71119 0.75812 0.47924 0.0
C1420 C 0.74728 0.77894 0.47906 0.0
C1421 C 0.75352 0.81685 0.47461 0.0
C1422 C 0.72205 0.83422 0.47089 0.0
C1423 C 0.68493 0.81351 0.47136 0.0
C1424 C 0.6794 0.77488 0.4751 0.0
H1425 H 0.6672 0.22284 0.48666 0.0
H1426 H 0.68577 0.1717 0.37547 0.0
H1427 H 0.74023 0.22726 0.3823 0.0
H1428 H 0.69114 0.32381 0.47892 0.0
H1429 H 0.71505 0.34073 0.52932 0.0
H1430 H 0.67574 0.29852 0.51408 0.0
H1431 H 0.71961 0.2587 0.54629 0.0
H1432 H 0.7588 0.30082 0.56185 0.0
H1433 H 0.76514 0.25714 0.5333 0.0
H1434 H 0.79464 0.28639 0.40324 0.0
H1435 H 0.84733 0.34308 0.43855 0.0
H1436 H 0.79277 0.35422 0.53591 0.0
C1437 C 0.68242 0.22382 0.46356 0.0
C1438 C 0.67262 0.19352 0.43054 0.0
C1439 C 0.69339 0.19486 0.4011 0.0
C1440 C 0.72397 0.22635 0.40457 0.0
C1441 C 0.73307 0.25598 0.43761 0.0
C1442 C 0.713 0.25489 0.46666 0.0
C1443 C 0.73016 0.28892 0.50044 0.0
C1444 C 0.7013 0.31451 0.506 0.0
C1445 C 0.74427 0.27558 0.53765 0.0
C1446 C 0.76347 0.30896 0.48621 0.0
C1447 C 0.76444 0.28986 0.44972 0.0
C1448 C 0.79396 0.30188 0.43162 0.0
C1449 C 0.82367 0.33387 0.45177 0.0
C1450 C 0.82345 0.353 0.48944 0.0
C1451 C 0.79278 0.34075 0.50657 0.0
H1452 H 0.47491 0.32042 0.82172 0.0
H1453 H 0.57991 0.29462 0.87972 0.0
H1454 H 0.56774 0.23446 0.83023 0.0
H1455 H 0.41765 0.22218 0.78916 0.0
H1456 H 0.39482 0.22926 0.74301 0.0
H1457 H 0.41055 0.26924 0.78441 0.0
H1458 H 0.45155 0.30823 0.74653 0.0
H1459 H 0.43615 0.26827 0.70509 0.0
H1460 H 0.48692 0.28798 0.72574 0.0
H1461 H 0.54505 0.17807 0.77475 0.0
H1462 H 0.51314 0.12845 0.71495 0.0
H1463 H 0.42462 0.19204 0.69077 0.0
C1464 C 0.49502 0.30181 0.82397 0.0
C1465 C 0.52765 0.31127 0.85489 0.0
C1466 C 0.55391 0.28688 0.85694 0.0
C1467 C 0.54751 0.25296 0.82877 0.0
C1468 C 0.51504 0.24431 0.79857 0.0
C1469 C 0.48927 0.26799 0.7958 0.0
C1470 C 0.45741 0.2525 0.75957 0.0
C1471 C 0.41777 0.24271 0.76965 0.0
C1472 C 0.45807 0.28094 0.73265 0.0
C1473 C 0.46936 0.21645 0.74255 0.0
C1474 C 0.5026 0.21224 0.76564 0.0
C1475 C 0.51901 0.18095 0.75636 0.0
C1476 C 0.50072 0.15297 0.72258 0.0
C1477 C 0.4667 0.15679 0.69868 0.0
C1478 C 0.45096 0.18896 0.70855 0.0
H1479 H 0.46688 0.78851 0.69232 0.0
H1480 H 0.48416 0.71783 0.58933 0.0
H1481 H 0.48262 0.66273 0.62146 0.0
H1482 H 0.52594 0.75471 0.75944 0.0
H1483 H 0.49573 0.75604 0.79392 0.0
H1484 H 0.49509 0.7884 0.76154 0.0
H1485 H 0.42096 0.76298 0.73694 0.0
H1486 H 0.42134 0.73055 0.7694 0.0
H1487 H 0.40116 0.71196 0.71837 0.0
H1488 H 0.48341 0.61707 0.66701 0.0
H1489 H 0.48613 0.58464 0.72203 0.0
H1490 H 0.46804 0.68624 0.79397 0.0
C1491 C 0.46924 0.76113 0.67614 0.0
C1492 C 0.4753 0.7571 0.63837 0.0
C1493 C 0.4797 0.72133 0.61848 0.0
C1494 C 0.47858 0.68992 0.63637 0.0
C1495 C 0.47286 0.69496 0.67393 0.0
C1496 C 0.46809 0.72967 0.69347 0.0
C1497 C 0.46449 0.72853 0.73427 0.0
C1498 C 0.49727 0.7587 0.76403 0.0
C1499 C 0.42461 0.73381 0.74007 0.0
C1500 C 0.46871 0.68798 0.73499 0.0
C1501 C 0.47326 0.66888 0.69991 0.0
C1502 C 0.47949 0.63161 0.69447 0.0
C1503 C 0.48126 0.61355 0.72582 0.0
C1504 C 0.4769 0.63294 0.76189 0.0
C1505 C 0.47035 0.67042 0.76634 0.0
H1506 H 0.41196 0.69119 0.19117 0.0
H1507 H 0.50151 0.71641 0.12848 0.0
H1508 H 0.53317 0.77554 0.17893 0.0
H1509 H 0.40636 0.78963 0.22545 0.0
H1510 H 0.39907 0.7825 0.27195 0.0
H1511 H 0.3828 0.74279 0.2303 0.0
H1512 H 0.42295 0.70238 0.26621 0.0
H1513 H 0.43931 0.74194 0.30799 0.0
H1514 H 0.47394 0.72164 0.28593 0.0
H1515 H 0.5562 0.82959 0.23666 0.0
H1516 H 0.56915 0.87697 0.29851 0.0
H1517 H 0.46444 0.81736 0.32398 0.0
C1518 C 0.43832 0.70917 0.18827 0.0
C1519 C 0.4544 0.69968 0.15612 0.0
C1520 C 0.48858 0.72381 0.15274 0.0
C1521 C 0.5068 0.75719 0.18128 0.0
C1522 C 0.49028 0.76577 0.21276 0.0
C1523 C 0.45681 0.74257 0.21646 0.0
C1524 C 0.4454 0.75815 0.25344 0.0
C1525 C 0.40608 0.76891 0.24475 0.0
C1526 C 0.44542 0.72931 0.27996 0.0
C1527 C 0.47791 0.79362 0.2701 0.0
C1528 C 0.5034 0.79741 0.24607 0.0
C1529 C 0.53624 0.82728 0.2555 0.0
C1530 C 0.54318 0.85413 0.29046 0.0
C1531 C 0.51724 0.85103 0.31523 0.0
C1532 C 0.48434 0.82036 0.30512 0.0
H1533 H 0.47482 0.16749 0.26712 0.0
H1534 H 0.45819 0.2404 0.36922 0.0
H1535 H 0.45212 0.29188 0.33367 0.0
H1536 H 0.53458 0.24196 0.23907 0.0
H1537 H 0.51541 0.22344 0.18788 0.0
H1538 H 0.51503 0.19093 0.2202 0.0
H1539 H 0.44105 0.16547 0.19455 0.0
H1540 H 0.44122 0.19781 0.16202 0.0
H1541 H 0.4101 0.19909 0.19565 0.0
H1542 H 0.45227 0.33668 0.28894 0.0
H1543 H 0.45797 0.37212 0.23717 0.0
H1544 H 0.47491 0.27049 0.16405 0.0
C1545 C 0.46983 0.19427 0.28188 0.0
C1546 C 0.46661 0.19999 0.32071 0.0
C1547 C 0.4598 0.23521 0.33914 0.0
C1548 C 0.4566 0.26468 0.3193 0.0
C1549 C 0.46035 0.25834 0.28113 0.0
C1550 C 0.46673 0.22403 0.26253 0.0
C1551 C 0.47129 0.2253 0.22191 0.0
C1552 C 0.51147 0.22011 0.217 0.0
C1553 C 0.43898 0.19513 0.19175 0.0
C1554 C 0.46704 0.26589 0.22085 0.0
C1555 C 0.46053 0.28434 0.25524 0.0
C1556 C 0.45683 0.32242 0.26167 0.0
C1557 C 0.45987 0.34221 0.23208 0.0
C1558 C 0.46647 0.3238 0.19666 0.0
C1559 C 0.47001 0.28519 0.19098 0.0
loop_
_geom_bond_atom_site_label_1
_geom_bond_atom_site_label_2
_geom_bond_distance
_geom_bond_site_symmetry_2
_ccdc_geom_bond_type
C0 C1 1.388 . S
C0 N3 1.338 . S
C0 C5 1.503 . S
C1 C0 1.388 . S
C1 C2 1.396 . S
C2 C1 1.396 . S
C2 N4 1.348 . S
C2 C9 1.504 . S
N3 C0 1.338 . S
N3 N4 1.361 . S
N3 Cu168 1.924 . S
N4 C2 1.348 . S
N4 N3 1.361 . S
N4 Cu169 1.964 . S
C5 C0 1.503 . S
C5 H6 0.979 . S
C5 H7 0.979 . S
C5 H8 0.979 . S
H6 C5 0.979 . S
H7 C5 0.979 . S
H8 C5 0.979 . S
C9 C2 1.504 . S
C9 H10 0.981 . S
C9 H11 0.980 1_565 S
C9 H12 0.979 . S
H10 C9 0.981 . S
H11 C9 0.980 1_545 S
H12 C9 0.979 . S
C13 C15 1.402 . S
C13 N16 1.356 . S
C13 C21 1.481 . S
C14 C15 1.400 1_455 S
C14 N17 1.331 . S
C14 C25 1.503 . S
C15 C13 1.402 . S
C15 C14 1.400 1_655 S
N16 C13 1.356 . S
N16 N17 1.334 1_655 S
N16 Cu175 1.941 . S
N17 C14 1.331 . S
N17 N16 1.334 1_455 S
N17 Cu172 1.943 . S
H18 C21 0.980 . S
H19 C21 0.980 . S
H20 C21 0.980 . S
C21 C13 1.481 . S
C21 H18 0.980 . S
C21 H19 0.980 . S
C21 H20 0.980 . S
H22 C25 0.978 . S
H23 C25 0.978 . S
H24 C25 0.983 . S
C25 C14 1.503 . S
C25 H22 0.978 . S
C25 H23 0.978 . S
C25 H24 0.983 . S
C26 H180 0.979 . S
C26 H181 0.981 . S
C26 H182 0.981 . S
C26 O216 1.438 . S
C27 H183 0.980 . S
C27 H184 0.979 . S
C27 H185 0.980 1_554 S
C27 O217 1.533 . S
C28 N29 1.338 . S
C28 C31 1.388 . S
C28 C36 1.503 . S
N29 C28 1.338 . S
N29 N30 1.361 . S
N29 Cu170 1.924 . S
N30 N29 1.361 . S
N30 C32 1.348 . S
N30 Cu171 1.964 . S
C31 C28 1.388 . S
C31 C32 1.396 . S
C32 N30 1.348 . S
C32 C31 1.396 . S
C32 C40 1.504 . S
H33 C36 0.979 . S
H34 C36 0.979 . S
H35 C36 0.979 . S
C36 C28 1.503 . S
C36 H33 0.979 . S
C36 H34 0.979 . S
C36 H35 0.979 . S
H37 C40 0.981 . S
H38 C40 0.980 1_455 S
H39 C40 0.979 . S
C40 C32 1.504 . S
C40 H37 0.981 . S
C40 H38 0.980 1_655 S
C40 H39 0.979 . S
C41 N43 1.356 . S
C41 C45 1.402 . S
C41 C49 1.481 . S
C42 N44 1.331 . S
C42 C45 1.400 1_554 S
C42 C50 1.503 . S
N43 C41 1.356 . S
N43 N44 1.334 1_556 S
N43 Cu177 1.941 . S
N44 C42 1.331 . S
N44 N43 1.334 1_554 S
N44 Cu168 1.943 . S
C45 C41 1.402 . S
C45 C42 1.400 1_556 S
H46 C49 0.980 . S
H47 C49 0.980 . S
H48 C49 0.980 . S
C49 C41 1.481 . S
C49 H46 0.980 . S
C49 H47 0.980 . S
C49 H48 0.980 . S
C50 C42 1.503 . S
C50 H51 0.978 . S
C50 H52 0.978 . S
C50 H53 0.983 . S
H51 C50 0.978 . S
H52 C50 0.978 . S
H53 C50 0.983 . S
C54 H186 0.979 . S
C54 H187 0.981 . S
C54 H188 0.981 . S
C54 O218 1.438 . S
C55 H189 0.980 . S
C55 H190 0.979 . S
C55 H191 0.980 1_545 S
C55 O219 1.533 . S
C56 N57 1.338 . S
C56 C58 1.388 . S
C56 C64 1.503 . S
N57 C56 1.338 . S
N57 N59 1.361 . S
N57 Cu172 1.924 . S
C58 C56 1.388 . S
C58 C60 1.396 . S
N59 N57 1.361 . S
N59 C60 1.348 . S
N59 Cu173 1.964 . S
C60 C58 1.396 . S
C60 N59 1.348 . S
C60 C66 1.504 . S
H61 C64 0.979 . S
H62 C64 0.979 . S
H63 C64 0.979 . S
C64 C56 1.503 . S
C64 H61 0.979 . S
C64 H62 0.979 . S
C64 H63 0.979 . S
H65 C66 0.981 . S
C66 C60 1.504 . S
C66 H65 0.981 . S
C66 H67 0.979 . S
C66 H68 0.980 1_556 S
H67 C66 0.979 . S
H68 C66 0.980 1_554 S
C69 N71 1.356 . S
C69 C73 1.402 . S
C69 C75 1.481 . S
C70 N72 1.331 . S
C70 C73 1.400 1_545 S
C70 C80 1.503 . S
N71 C69 1.356 . S
N71 N72 1.334 1_565 S
N71 Cu179 1.941 . S
N72 C70 1.331 . S
N72 N71 1.334 1_545 S
N72 Cu170 1.943 . S
C73 C69 1.402 . S
C73 C70 1.400 1_565 S
H74 C75 0.980 . S
C75 C69 1.481 . S
C75 H74 0.980 . S
C75 H76 0.980 . S
C75 H77 0.980 . S
H76 C75 0.980 . S
H77 C75 0.980 . S
H78 C80 0.978 . S
H79 C80 0.978 . S
C80 C70 1.503 . S
C80 H78 0.978 . S
C80 H79 0.978 . S
C80 H81 0.983 . S
H81 C80 0.983 . S
C82 H192 0.979 . S
C82 H193 0.981 . S
C82 H194 0.981 . S
C82 O220 1.438 . S
C83 H195 0.980 . S
C83 H196 0.979 . S
C83 H197 0.980 1_455 S
C83 O221 1.533 . S
C84 N85 1.338 . S
C84 C86 1.388 . S
C84 C89 1.503 . S
N85 C84 1.338 . S
N85 N88 1.361 . S
N85 Cu174 1.924 . S
C86 C84 1.388 . S
C86 C87 1.396 . S
C87 C86 1.396 . S
C87 N88 1.348 . S
C87 C93 1.504 . S
N88 N85 1.361 . S
N88 C87 1.348 . S
N88 Cu175 1.964 . S
C89 C84 1.503 . S
C89 H90 0.979 . S
C89 H91 0.979 . S
C89 H92 0.979 . S
H90 C89 0.979 . S
H91 C89 0.979 . S
H92 C89 0.979 . S
C93 C87 1.504 . S
C93 H94 0.981 . S
C93 H95 0.980 1_545 S
C93 H96 0.979 . S
H94 C93 0.981 . S
H95 C93 0.980 1_565 S
H96 C93 0.979 . S
C97 C98 1.402 . S
C97 N100 1.356 . S
C97 C105 1.481 . S
C98 C97 1.402 . S
C98 C99 1.400 1_455 S
C99 C98 1.400 1_655 S
C99 N101 1.330 . S
C99 C106 1.503 . S
N100 C97 1.356 . S
N100 N101 1.341 1_455 S
N100 Cu169 1.941 . S
N101 C99 1.330 . S
N101 N100 1.341 1_655 S
N101 Cu178 1.938 . S
H102 C105 0.980 . S
H103 C105 0.980 . S
H104 C105 0.980 . S
C105 C97 1.481 . S
C105 H102 0.980 . S
C105 H103 0.980 . S
C105 H104 0.980 . S
C106 C99 1.503 . S
C106 H107 0.978 . S
C106 H108 0.978 . S
C106 H109 0.983 . S
H107 C106 0.978 . S
H108 C106 0.978 . S
H109 C106 0.983 . S
C110 H198 0.979 . S
C110 H199 0.981 . S
C110 H200 0.981 . S
C110 O222 1.438 . S
C111 H201 0.980 . S
C111 H202 0.979 . S
C111 H203 0.980 1_556 S
C111 O223 1.533 . S
C112 C113 1.388 . S
C112 N115 1.338 . S
C112 C117 1.503 . S
C113 C112 1.388 . S
C113 C114 1.396 . S
C114 C113 1.396 . S
C114 N116 1.348 . S
C114 C121 1.504 . S
N115 C112 1.338 . S
N115 N116 1.361 . S
N115 Cu176 1.924 . S
N116 C114 1.348 . S
N116 N115 1.361 . S
N116 Cu177 1.964 . S
C117 C112 1.503 . S
C117 H118 0.979 . S
C117 H119 0.979 . S
C117 H120 0.979 . S
H118 C117 0.979 . S
H119 C117 0.979 . S
H120 C117 0.979 . S
C121 C114 1.504 . S
C121 H122 0.981 . S
C121 H123 0.980 1_455 S
C121 H124 0.979 . S
H122 C121 0.981 . S
H123 C121 0.980 1_655 S
H124 C121 0.979 . S
C125 C126 1.402 . S
C125 N128 1.356 . S
C125 C130 1.481 . S
C126 C125 1.402 . S
C126 C127 1.400 1_554 S
C127 C126 1.400 1_556 S
C127 N129 1.330 . S
C127 C134 1.503 . S
N128 C125 1.356 . S
N128 N129 1.341 1_554 S
N128 Cu171 1.941 . S
N129 C127 1.330 . S
N129 N128 1.341 1_556 S
N129 Cu174 1.938 . S
C130 C125 1.481 . S
C130 H131 0.980 . S
C130 H132 0.980 . S
C130 H133 0.980 . S
H131 C130 0.980 . S
H132 C130 0.980 . S
H133 C130 0.980 . S
C134 C127 1.503 . S
C134 H135 0.978 . S
C134 H136 0.978 . S
C134 H137 0.983 . S
H135 C134 0.978 . S
H136 C134 0.978 . S
H137 C134 0.983 . S
C138 H204 0.979 . S
C138 H205 0.981 . S
C138 H206 0.981 . S
C138 O224 1.438 . S
C139 H207 0.980 . S
C139 H208 0.979 . S
C139 H209 0.980 1_565 S
C139 O225 1.533 . S
C140 N141 1.338 . S
C140 C143 1.388 . S
C140 C148 1.503 . S
N141 C140 1.338 . S
N141 N142 1.361 . S
N141 Cu178 1.924 . S
N142 N141 1.361 . S
N142 C144 1.348 . S
N142 Cu179 1.964 . S
C143 C140 1.388 . S
C143 C144 1.396 . S
C144 N142 1.348 . S
C144 C143 1.396 . S
C144 C152 1.504 . S
H145 C148 0.979 . S
H146 C148 0.979 . S
H147 C148 0.979 . S
C148 C140 1.503 . S
C148 H145 0.979 . S
C148 H146 0.979 . S
C148 H147 0.979 . S
H149 C152 0.981 . S
H150 C152 0.980 1_556 S
H151 C152 0.979 . S
C152 C144 1.504 . S
C152 H149 0.981 . S
C152 H150 0.980 1_554 S
C152 H151 0.979 . S
C153 N154 1.356 . S
C153 C156 1.402 . S
C153 C158 1.481 . S
N154 C153 1.356 . S
N154 N155 1.341 1_545 S
N154 Cu173 1.941 . S
N155 N154 1.341 1_565 S
N155 C157 1.330 . S
N155 Cu176 1.938 . S
C156 C153 1.402 . S
C156 C157 1.400 1_545 S
C157 N155 1.330 . S
C157 C156 1.400 1_565 S
C157 C162 1.503 . S
C158 C153 1.481 . S
C158 H159 0.980 . S
C158 H160 0.980 . S
C158 H161 0.980 . S
H159 C158 0.980 . S
H160 C158 0.980 . S
H161 C158 0.980 . S
C162 C157 1.503 . S
C162 H163 0.978 . S
C162 H164 0.978 . S
C162 H165 0.983 . S
H163 C162 0.978 . S
H164 C162 0.978 . S
H165 C162 0.983 . S
C166 H210 0.979 . S
C166 H211 0.981 . S
C166 H212 0.981 . S
C166 O226 1.438 . S
C167 H213 0.980 . S
C167 H214 0.979 . S
C167 H215 0.980 1_655 S
C167 O227 1.533 . S
Cu168 N3 1.924 . S
Cu168 N44 1.943 . S
Cu168 O216 1.923 . S
Cu168 O217 1.930 . S
Cu169 N4 1.964 . S
Cu169 N100 1.941 . S
Cu169 O216 1.905 . S
Cu169 O227 1.920 1_455 S
Cu170 N29 1.924 . S
Cu170 N72 1.943 . S
Cu170 O218 1.923 . S
Cu170 O219 1.930 . S
Cu171 N30 1.964 . S
Cu171 N128 1.941 . S
Cu171 O218 1.905 . S
Cu171 O223 1.920 1_554 S
Cu172 N17 1.943 . S
Cu172 N57 1.924 . S
Cu172 O220 1.923 . S
Cu172 O221 1.930 . S
Cu173 N59 1.964 . S
Cu173 N154 1.941 . S
Cu173 O220 1.905 . S
Cu173 O225 1.920 1_545 S
Cu174 N85 1.924 . S
Cu174 N129 1.938 . S
Cu174 O222 1.923 . S
Cu174 O223 1.930 . S
Cu175 N16 1.941 . S
Cu175 N88 1.964 . S
Cu175 O221 1.920 1_655 S
Cu175 O222 1.905 . S
Cu176 N115 1.924 . S
Cu176 N155 1.938 . S
Cu176 O224 1.923 . S
Cu176 O225 1.930 . S
Cu177 N43 1.941 . S
Cu177 N116 1.964 . S
Cu177 O217 1.920 1_556 S
Cu177 O224 1.905 . S
Cu178 N101 1.938 . S
Cu178 N141 1.924 . S
Cu178 O226 1.923 . S
Cu178 O227 1.930 . S
Cu179 N71 1.941 . S
Cu179 N142 1.964 . S
Cu179 O219 1.920 1_565 S
Cu179 O226 1.905 . S
H180 C26 0.979 . S
H181 C26 0.981 . S
H182 C26 0.981 . S
H183 C27 0.980 . S
H184 C27 0.979 . S
H185 C27 0.980 1_556 S
H186 C54 0.979 . S
H187 C54 0.981 . S
H188 C54 0.981 . S
H189 C55 0.980 . S
H190 C55 0.979 . S
H191 C55 0.980 1_565 S
H192 C82 0.979 . S
H193 C82 0.981 . S
H194 C82 0.981 . S
H195 C83 0.980 . S
H196 C83 0.979 . S
H197 C83 0.980 1_655 S
H198 C110 0.979 . S
H199 C110 0.981 . S
H200 C110 0.981 . S
H201 C111 0.980 . S
H202 C111 0.979 . S
H203 C111 0.980 1_554 S
H204 C138 0.979 . S
H205 C138 0.981 . S
H206 C138 0.981 . S
H207 C139 0.980 . S
H208 C139 0.979 . S
H209 C139 0.980 1_545 S
H210 C166 0.979 . S
H211 C166 0.981 . S
H212 C166 0.981 . S
H213 C167 0.980 . S
H214 C167 0.979 . S
H215 C167 0.980 1_455 S
O216 C26 1.438 . S
O216 Cu168 1.923 . S
O216 Cu169 1.905 . S
O217 C27 1.533 . S
O217 Cu168 1.930 . S
O217 Cu177 1.920 1_554 S
O218 C54 1.438 . S
O218 Cu170 1.923 . S
O218 Cu171 1.905 . S
O219 C55 1.533 . S
O219 Cu170 1.930 . S
O219 Cu179 1.920 1_545 S
O220 C82 1.438 . S
O220 Cu172 1.923 . S
O220 Cu173 1.905 . S
O221 C83 1.533 . S
O221 Cu172 1.930 . S
O221 Cu175 1.920 1_455 S
O222 C110 1.438 . S
O222 Cu174 1.923 . S
O222 Cu175 1.905 . S
O223 C111 1.533 . S
O223 Cu171 1.920 1_556 S
O223 Cu174 1.930 . S
O224 C138 1.438 . S
O224 Cu176 1.923 . S
O224 Cu177 1.905 . S
O225 C139 1.533 . S
O225 Cu173 1.920 1_565 S
O225 Cu176 1.930 . S
O226 C166 1.438 . S
O226 Cu178 1.923 . S
O226 Cu179 1.905 . S
O227 C167 1.533 . S
O227 Cu169 1.920 1_655 S
O227 Cu178 1.930 . S
C228 C229 1.388 . S
C228 N231 1.338 . S
C228 C233 1.503 . S
C229 C228 1.388 . S
C229 C230 1.396 . S
C230 C229 1.396 . S
C230 N232 1.348 . S
C230 C237 1.504 . S
N231 C228 1.338 . S
N231 N232 1.361 . S
N231 Cu396 1.924 . S
N232 C230 1.348 . S
N232 N231 1.361 . S
N232 Cu397 1.964 . S
C233 C228 1.503 . S
C233 H234 0.979 . S
C233 H235 0.979 . S
C233 H236 0.979 . S
H234 C233 0.979 . S
H235 C233 0.979 . S
H236 C233 0.979 . S
C237 C230 1.504 . S
C237 H238 0.981 . S
C237 H239 0.980 . S
C237 H240 0.979 . S
H238 C237 0.981 . S
H239 C237 0.980 . S
H240 C237 0.979 . S
C241 C243 1.402 . S
C241 N244 1.356 . S
C241 C249 1.481 . S
C242 C243 1.400 1_455 S
C242 N245 1.331 . S
C242 C253 1.503 . S
C243 C241 1.402 . S
C243 C242 1.400 1_655 S
N244 C241 1.356 . S
N244 N245 1.334 1_655 S
N244 Cu403 1.941 . S
N245 C242 1.331 . S
N245 N244 1.334 1_455 S
N245 Cu400 1.943 . S
H246 C249 0.980 . S
H247 C249 0.980 . S
H248 C249 0.980 . S
C249 C241 1.481 . S
C249 H246 0.980 . S
C249 H247 0.980 . S
C249 H248 0.980 . S
H250 C253 0.978 . S
H251 C253 0.978 . S
H252 C253 0.983 . S
C253 C242 1.503 . S
C253 H250 0.978 . S
C253 H251 0.978 . S
C253 H252 0.983 . S
C254 H408 0.979 . S
C254 H409 0.981 . S
C254 H410 0.981 . S
C254 O444 1.438 . S
C255 H411 0.980 . S
C255 H412 0.979 . S
C255 H413 0.980 . S
C255 O445 1.533 . S
C256 N257 1.338 . S
C256 C259 1.388 . S
C256 C264 1.503 . S
N257 C256 1.338 . S
N257 N258 1.361 . S
N257 Cu398 1.924 . S
N258 N257 1.361 . S
N258 C260 1.348 . S
N258 Cu399 1.964 . S
C259 C256 1.388 . S
C259 C260 1.396 . S
C260 N258 1.348 . S
C260 C259 1.396 . S
C260 C268 1.504 . S
H261 C264 0.979 . S
H262 C264 0.979 . S
H263 C264 0.979 . S
C264 C256 1.503 . S
C264 H261 0.979 . S
C264 H262 0.979 . S
C264 H263 0.979 . S
H265 C268 0.981 . S
H266 C268 0.980 1_455 S
H267 C268 0.979 . S
C268 C260 1.504 . S
C268 H265 0.981 . S
C268 H266 0.980 1_655 S
C268 H267 0.979 . S
C269 N271 1.356 . S
C269 C273 1.402 . S
C269 C277 1.481 . S
C270 N272 1.325 . S
C270 C273 1.400 . S
C270 C278 1.503 . S
N271 C269 1.356 . S
N271 N272 1.365 . S
N271 Cu405 1.941 . S
N272 C270 1.325 . S
N272 N271 1.365 . S
N272 Cu396 1.924 . S
C273 C269 1.402 . S
C273 C270 1.400 . S
H274 C277 0.980 . S
H275 C277 0.980 . S
H276 C277 0.980 . S
C277 C269 1.481 . S
C277 H274 0.980 . S
C277 H275 0.980 . S
C277 H276 0.980 . S
C278 C270 1.503 . S
C278 H279 0.978 . S
C278 H280 0.978 . S
C278 H281 0.983 . S
H279 C278 0.978 . S
H280 C278 0.978 . S
H281 C278 0.983 . S
C282 H414 0.979 . S
C282 H415 0.981 . S
C282 H416 0.981 . S
C282 O446 1.438 . S
C283 H417 0.980 . S
C283 H418 0.979 . S
C283 H419 0.980 . S
C283 O447 1.533 . S
C284 N285 1.338 . S
C284 C286 1.388 . S
C284 C292 1.503 . S
N285 C284 1.338 . S
N285 N287 1.361 . S
N285 Cu400 1.924 . S
C286 C284 1.388 . S
C286 C288 1.396 . S
N287 N285 1.361 . S
N287 C288 1.348 . S
N287 Cu401 1.964 . S
C288 C286 1.396 . S
C288 N287 1.348 . S
C288 C294 1.504 . S
H289 C292 0.979 . S
H290 C292 0.979 . S
H291 C292 0.979 . S
C292 C284 1.503 . S
C292 H289 0.979 . S
C292 H290 0.979 . S
C292 H291 0.979 . S
H293 C294 0.981 . S
C294 C288 1.504 . S
C294 H293 0.981 . S
C294 H295 0.979 . S
C294 H296 0.980 . S
H295 C294 0.979 . S
H296 C294 0.980 . S
C297 N299 1.356 . S
C297 C301 1.402 . S
C297 C303 1.481 . S
C298 N300 1.325 . S
C298 C301 1.400 . S
C298 C308 1.503 . S
N299 C297 1.356 . S
N299 N300 1.365 . S
N299 Cu407 1.941 . S
N300 C298 1.325 . S
N300 N299 1.365 . S
N300 Cu398 1.924 . S
C301 C297 1.402 . S
C301 C298 1.400 . S
H302 C303 0.980 . S
C303 C297 1.481 . S
C303 H302 0.980 . S
C303 H304 0.980 . S
C303 H305 0.980 . S
H304 C303 0.980 . S
H305 C303 0.980 . S
H306 C308 0.978 . S
H307 C308 0.978 . S
C308 C298 1.503 . S
C308 H306 0.978 . S
C308 H307 0.978 . S
C308 H309 0.983 . S
H309 C308 0.983 . S
C310 H420 0.979 . S
C310 H421 0.981 . S
C310 H422 0.981 . S
C310 O448 1.438 . S
C311 H423 0.980 . S
C311 H424 0.979 . S
C311 H425 0.980 1_455 S
C311 O449 1.533 . S
C312 N313 1.338 . S
C312 C314 1.388 . S
C312 C317 1.503 . S
N313 C312 1.338 . S
N313 N316 1.361 . S
N313 Cu402 1.924 . S
C314 C312 1.388 . S
C314 C315 1.396 . S
C315 C314 1.396 . S
C315 N316 1.348 . S
C315 C321 1.504 . S
N316 N313 1.361 . S
N316 C315 1.348 . S
N316 Cu403 1.964 . S
C317 C312 1.503 . S
C317 H318 0.979 . S
C317 H319 0.979 . S
C317 H320 0.979 . S
H318 C317 0.979 . S
H319 C317 0.979 . S
H320 C317 0.979 . S
C321 C315 1.504 . S
C321 H322 0.981 . S
C321 H323 0.980 . S
C321 H324 0.979 . S
H322 C321 0.981 . S
H323 C321 0.980 . S
H324 C321 0.979 . S
C325 C326 1.402 . S
C325 N328 1.356 . S
C325 C333 1.481 . S
C326 C325 1.402 . S
C326 C327 1.400 1_455 S
C327 C326 1.400 1_655 S
C327 N329 1.330 . S
C327 C334 1.503 . S
N328 C325 1.356 . S
N328 N329 1.341 1_455 S
N328 Cu397 1.941 . S
N329 C327 1.330 . S
N329 N328 1.341 1_655 S
N329 Cu406 1.938 . S
H330 C333 0.980 . S
H331 C333 0.980 . S
H332 C333 0.980 . S
C333 C325 1.481 . S
C333 H330 0.980 . S
C333 H331 0.980 . S
C333 H332 0.980 . S
C334 C327 1.503 . S
C334 H335 0.978 . S
C334 H336 0.978 . S
C334 H337 0.983 . S
H335 C334 0.978 . S
H336 C334 0.978 . S
H337 C334 0.983 . S
C338 H426 0.979 . S
C338 H427 0.981 . S
C338 H428 0.981 . S
C338 O450 1.438 . S
C339 H429 0.980 . S
C339 H430 0.979 . S
C339 H431 0.980 . S
C339 O451 1.533 . S
C340 C341 1.388 . S
C340 N343 1.338 . S
C340 C345 1.503 . S
C341 C340 1.388 . S
C341 C342 1.396 . S
C342 C341 1.396 . S
C342 N344 1.348 . S
C342 C349 1.504 . S
N343 C340 1.338 . S
N343 N344 1.361 . S
N343 Cu404 1.924 . S
N344 C342 1.348 . S
N344 N343 1.361 . S
N344 Cu405 1.964 . S
C345 C340 1.503 . S
C345 H346 0.979 . S
C345 H347 0.979 . S
C345 H348 0.979 . S
H346 C345 0.979 . S
H347 C345 0.979 . S
H348 C345 0.979 . S
C349 C342 1.504 . S
C349 H350 0.981 . S
C349 H351 0.980 1_455 S
C349 H352 0.979 . S
H350 C349 0.981 . S
H351 C349 0.980 1_655 S
H352 C349 0.979 . S
C353 C354 1.402 . S
C353 N356 1.356 . S
C353 C358 1.481 . S
C354 C353 1.402 . S
C354 C355 1.400 . S
C355 C354 1.400 . S
C355 N357 1.325 . S
C355 C362 1.503 . S
N356 C353 1.356 . S
N356 N357 1.365 . S
N356 Cu399 1.941 . S
N357 C355 1.325 . S
N357 N356 1.365 . S
N357 Cu402 1.924 . S
C358 C353 1.481 . S
C358 H359 0.980 . S
C358 H360 0.980 . S
C358 H361 0.980 . S
H359 C358 0.980 . S
H360 C358 0.980 . S
H361 C358 0.980 . S
C362 C355 1.503 . S
C362 H363 0.978 . S
C362 H364 0.978 . S
C362 H365 0.983 . S
H363 C362 0.978 . S
H364 C362 0.978 . S
H365 C362 0.983 . S
C366 H432 0.979 . S
C366 H433 0.981 . S
C366 H434 0.981 . S
C366 O452 1.438 . S
C367 H435 0.980 . S
C367 H436 0.979 . S
C367 H437 0.980 . S
C367 O453 1.533 . S
C368 N369 1.338 . S
C368 C371 1.388 . S
C368 C376 1.503 . S
N369 C368 1.338 . S
N369 N370 1.361 . S
N369 Cu406 1.924 . S
N370 N369 1.361 . S
N370 C372 1.348 . S
N370 Cu407 1.964 . S
C371 C368 1.388 . S
C371 C372 1.396 . S
C372 N370 1.348 . S
C372 C371 1.396 . S
C372 C380 1.504 . S
H373 C376 0.979 . S
H374 C376 0.979 . S
H375 C376 0.979 . S
C376 C368 1.503 . S
C376 H373 0.979 . S
C376 H374 0.979 . S
C376 H375 0.979 . S
H377 C380 0.981 . S
H378 C380 0.980 . S
H379 C380 0.979 . S
C380 C372 1.504 . S
C380 H377 0.981 . S
C380 H378 0.980 . S
C380 H379 0.979 . S
C381 N382 1.356 . S
C381 C384 1.402 . S
C381 C386 1.481 . S
N382 C381 1.356 . S
N382 N383 1.365 . S
N382 Cu401 1.941 . S
N383 N382 1.365 . S
N383 C385 1.325 . S
N383 Cu404 1.924 . S
C384 C381 1.402 . S
C384 C385 1.400 . S
C385 N383 1.325 . S
C385 C384 1.400 . S
C385 C390 1.503 . S
C386 C381 1.481 . S
C386 H387 0.980 . S
C386 H388 0.980 . S
C386 H389 0.980 . S
H387 C386 0.980 . S
H388 C386 0.980 . S
H389 C386 0.980 . S
C390 C385 1.503 . S
C390 H391 0.978 . S
C390 H392 0.978 . S
C390 H393 0.983 . S
H391 C390 0.978 . S
H392 C390 0.978 . S
H393 C390 0.983 . S
C394 H438 0.979 . S
C394 H439 0.981 . S
C394 H440 0.981 . S
C394 O454 1.438 . S
C395 H441 0.980 . S
C395 H442 0.979 . S
C395 H443 0.980 1_655 S
C395 O455 1.533 . S
Cu396 N231 1.924 . S
Cu396 N272 1.924 . S
Cu396 O444 1.923 . S
Cu396 O445 1.930 . S
Cu397 N232 1.964 . S
Cu397 N328 1.941 . S
Cu397 O444 1.905 . S
Cu397 O455 1.920 1_455 S
Cu398 N257 1.924 . S
Cu398 N300 1.924 . S
Cu398 O446 1.923 . S
Cu398 O447 1.930 . S
Cu399 N258 1.964 . S
Cu399 N356 1.941 . S
Cu399 O446 1.905 . S
Cu399 O451 1.920 . S
Cu400 N245 1.943 . S
Cu400 N285 1.924 . S
Cu400 O448 1.923 . S
Cu400 O449 1.930 . S
Cu401 N287 1.964 . S
Cu401 N382 1.941 . S
Cu401 O448 1.905 . S
Cu401 O453 1.920 . S
Cu402 N313 1.924 . S
Cu402 N357 1.924 . S
Cu402 O450 1.923 . S
Cu402 O451 1.930 . S
Cu403 N244 1.941 . S
Cu403 N316 1.964 . S
Cu403 O449 1.920 1_655 S
Cu403 O450 1.905 . S
Cu404 N343 1.924 . S
Cu404 N383 1.924 . S
Cu404 O452 1.923 . S
Cu404 O453 1.930 . S
Cu405 N271 1.941 . S
Cu405 N344 1.964 . S
Cu405 O445 1.920 . S
Cu405 O452 1.905 . S
Cu406 N329 1.938 . S
Cu406 N369 1.924 . S
Cu406 O454 1.923 . S
Cu406 O455 1.930 . S
Cu407 N299 1.941 . S
Cu407 N370 1.964 . S
Cu407 O447 1.920 . S
Cu407 O454 1.905 . S
H408 C254 0.979 . S
H409 C254 0.981 . S
H410 C254 0.981 . S
H411 C255 0.980 . S
H412 C255 0.979 . S
H413 C255 0.980 . S
H414 C282 0.979 . S
H415 C282 0.981 . S
H416 C282 0.981 . S
H417 C283 0.980 . S
H418 C283 0.979 . S
H419 C283 0.980 . S
H420 C310 0.979 . S
H421 C310 0.981 . S
H422 C310 0.981 . S
H423 C311 0.980 . S
H424 C311 0.979 . S
H425 C311 0.980 1_655 S
H426 C338 0.979 . S
H427 C338 0.981 . S
H428 C338 0.981 . S
H429 C339 0.980 . S
H430 C339 0.979 . S
H431 C339 0.980 . S
H432 C366 0.979 . S
H433 C366 0.981 . S
H434 C366 0.981 . S
H435 C367 0.980 . S
H436 C367 0.979 . S
H437 C367 0.980 . S
H438 C394 0.979 . S
H439 C394 0.981 . S
H440 C394 0.981 . S
H441 C395 0.980 . S
H442 C395 0.979 . S
H443 C395 0.980 1_455 S
O444 C254 1.438 . S
O444 Cu396 1.923 . S
O444 Cu397 1.905 . S
O445 C255 1.533 . S
O445 Cu396 1.930 . S
O445 Cu405 1.920 . S
O446 C282 1.438 . S
O446 Cu398 1.923 . S
O446 Cu399 1.905 . S
O447 C283 1.533 . S
O447 Cu398 1.930 . S
O447 Cu407 1.920 . S
O448 C310 1.438 . S
O448 Cu400 1.923 . S
O448 Cu401 1.905 . S
O449 C311 1.533 . S
O449 Cu400 1.930 . S
O449 Cu403 1.920 1_455 S
O450 C338 1.438 . S
O450 Cu402 1.923 . S
O450 Cu403 1.905 . S
O451 C339 1.533 . S
O451 Cu399 1.920 . S
O451 Cu402 1.930 . S
O452 C366 1.438 . S
O452 Cu404 1.923 . S
O452 Cu405 1.905 . S
O453 C367 1.533 . S
O453 Cu401 1.920 . S
O453 Cu404 1.930 . S
O454 C394 1.438 . S
O454 Cu406 1.923 . S
O454 Cu407 1.905 . S
O455 C395 1.533 . S
O455 Cu397 1.920 1_655 S
O455 Cu406 1.930 . S
C456 C457 1.388 . S
C456 N459 1.338 . S
C456 C461 1.503 . S
C457 C456 1.388 . S
C457 C458 1.396 . S
C458 C457 1.396 . S
C458 N460 1.348 . S
C458 C465 1.504 . S
N459 C456 1.338 . S
N459 N460 1.361 . S
N459 Cu624 1.924 . S
N460 C458 1.348 . S
N460 N459 1.361 . S
N460 Cu625 1.964 . S
C461 C456 1.503 . S
C461 H462 0.979 . S
C461 H463 0.979 . S
C461 H464 0.979 . S
H462 C461 0.979 . S
H463 C461 0.979 . S
H464 C461 0.979 . S
C465 C458 1.504 . S
C465 H466 0.981 . S
C465 H467 0.980 1_565 S
C465 H468 0.979 . S
H466 C465 0.981 . S
H467 C465 0.980 1_545 S
H468 C465 0.979 . S
C469 C471 1.402 . S
C469 N472 1.356 . S
C469 C477 1.481 . S
C470 C471 1.400 . S
C470 N473 1.325 . S
C470 C481 1.503 . S
C471 C469 1.402 . S
C471 C470 1.400 . S
N472 C469 1.356 . S
N472 N473 1.365 . S
N472 Cu631 1.941 . S
N473 C470 1.325 . S
N473 N472 1.365 . S
N473 Cu628 1.924 . S
H474 C477 0.980 . S
H475 C477 0.980 . S
H476 C477 0.980 . S
C477 C469 1.481 . S
C477 H474 0.980 . S
C477 H475 0.980 . S
C477 H476 0.980 . S
H478 C481 0.978 . S
H479 C481 0.978 . S
H480 C481 0.983 . S
C481 C470 1.503 . S
C481 H478 0.978 . S
C481 H479 0.978 . S
C481 H480 0.983 . S
C482 H636 0.979 . S
C482 H637 0.981 . S
C482 H638 0.981 . S
C482 O672 1.438 . S
C483 H639 0.980 . S
C483 H640 0.979 . S
C483 H641 0.980 . S
C483 O673 1.533 . S
C484 N485 1.338 . S
C484 C487 1.388 . S
C484 C492 1.503 . S
N485 C484 1.338 . S
N485 N486 1.361 . S
N485 Cu626 1.924 . S
N486 N485 1.361 . S
N486 C488 1.348 . S
N486 Cu627 1.964 . S
C487 C484 1.388 . S
C487 C488 1.396 . S
C488 N486 1.348 . S
C488 C487 1.396 . S
C488 C496 1.504 . S
H489 C492 0.979 . S
H490 C492 0.979 . S
H491 C492 0.979 . S
C492 C484 1.503 . S
C492 H489 0.979 . S
C492 H490 0.979 . S
C492 H491 0.979 . S
H493 C496 0.981 . S
H494 C496 0.980 . S
H495 C496 0.979 . S
C496 C488 1.504 . S
C496 H493 0.981 . S
C496 H494 0.980 . S
C496 H495 0.979 . S
C497 N499 1.356 . S
C497 C501 1.402 . S
C497 C505 1.481 . S
C498 N500 1.325 . S
C498 C501 1.400 . S
C498 C506 1.503 . S
N499 C497 1.356 . S
N499 N500 1.365 . S
N499 Cu633 1.941 . S
N500 C498 1.325 . S
N500 N499 1.365 . S
N500 Cu624 1.924 . S
C501 C497 1.402 . S
C501 C498 1.400 . S
H502 C505 0.980 . S
H503 C505 0.980 . S
H504 C505 0.980 . S
C505 C497 1.481 . S
C505 H502 0.980 . S
C505 H503 0.980 . S
C505 H504 0.980 . S
C506 C498 1.503 . S
C506 H507 0.978 . S
C506 H508 0.978 . S
C506 H509 0.983 . S
H507 C506 0.978 . S
H508 C506 0.978 . S
H509 C506 0.983 . S
C510 H642 0.979 . S
C510 H643 0.981 . S
C510 H644 0.981 . S
C510 O674 1.438 . S
C511 H645 0.980 . S
C511 H646 0.979 . S
C511 H647 0.980 1_545 S
C511 O675 1.533 . S
C512 N513 1.338 . S
C512 C514 1.388 . S
C512 C520 1.503 . S
N513 C512 1.338 . S
N513 N515 1.361 . S
N513 Cu628 1.924 . S
C514 C512 1.388 . S
C514 C516 1.396 . S
N515 N513 1.361 . S
N515 C516 1.348 . S
N515 Cu629 1.964 . S
C516 C514 1.396 . S
C516 N515 1.348 . S
C516 C522 1.504 . S
H517 C520 0.979 . S
H518 C520 0.979 . S
H519 C520 0.979 . S
C520 C512 1.503 . S
C520 H517 0.979 . S
C520 H518 0.979 . S
C520 H519 0.979 . S
H521 C522 0.981 . S
C522 C516 1.504 . S
C522 H521 0.981 . S
C522 H523 0.979 . S
C522 H524 0.980 . S
H523 C522 0.979 . S
H524 C522 0.980 . S
C525 N527 1.356 . S
C525 C529 1.402 . S
C525 C531 1.481 . S
C526 N528 1.331 . S
C526 C529 1.400 1_545 S
C526 C536 1.503 . S
N527 C525 1.356 . S
N527 N528 1.334 1_565 S
N527 Cu635 1.941 . S
N528 C526 1.331 . S
N528 N527 1.334 1_545 S
N528 Cu626 1.943 . S
C529 C525 1.402 . S
C529 C526 1.400 1_565 S
H530 C531 0.980 . S
C531 C525 1.481 . S
C531 H530 0.980 . S
C531 H532 0.980 . S
C531 H533 0.980 . S
H532 C531 0.980 . S
H533 C531 0.980 . S
H534 C536 0.978 . S
H535 C536 0.978 . S
C536 C526 1.503 . S
C536 H534 0.978 . S
C536 H535 0.978 . S
C536 H537 0.983 . S
H537 C536 0.983 . S
C538 H648 0.979 . S
C538 H649 0.981 . S
C538 H650 0.981 . S
C538 O676 1.438 . S
C539 H651 0.980 . S
C539 H652 0.979 . S
C539 H653 0.980 . S
C539 O677 1.533 . S
C540 N541 1.338 . S
C540 C542 1.388 . S
C540 C545 1.503 . S
N541 C540 1.338 . S
N541 N544 1.361 . S
N541 Cu630 1.924 . S
C542 C540 1.388 . S
C542 C543 1.396 . S
C543 C542 1.396 . S
C543 N544 1.348 . S
C543 C549 1.504 . S
N544 N541 1.361 . S
N544 C543 1.348 . S
N544 Cu631 1.964 . S
C545 C540 1.503 . S
C545 H546 0.979 . S
C545 H547 0.979 . S
C545 H548 0.979 . S
H546 C545 0.979 . S
H547 C545 0.979 . S
H548 C545 0.979 . S
C549 C543 1.504 . S
C549 H550 0.981 . S
C549 H551 0.980 1_545 S
C549 H552 0.979 . S
H550 C549 0.981 . S
H551 C549 0.980 1_565 S
H552 C549 0.979 . S
C553 C554 1.402 . S
C553 N556 1.356 . S
C553 C561 1.481 . S
C554 C553 1.402 . S
C554 C555 1.400 . S
C555 C554 1.400 . S
C555 N557 1.325 . S
C555 C562 1.503 . S
N556 C553 1.356 . S
N556 N557 1.365 . S
N556 Cu625 1.941 . S
N557 C555 1.325 . S
N557 N556 1.365 . S
N557 Cu634 1.924 . S
H558 C561 0.980 . S
H559 C561 0.980 . S
H560 C561 0.980 . S
C561 C553 1.481 . S
C561 H558 0.980 . S
C561 H559 0.980 . S
C561 H560 0.980 . S
C562 C555 1.503 . S
C562 H563 0.978 . S
C562 H564 0.978 . S
C562 H565 0.983 . S
H563 C562 0.978 . S
H564 C562 0.978 . S
H565 C562 0.983 . S
C566 H654 0.979 . S
C566 H655 0.981 . S
C566 H656 0.981 . S
C566 O678 1.438 . S
C567 H657 0.980 . S
C567 H658 0.979 . S
C567 H659 0.980 . S
C567 O679 1.533 . S
C568 C569 1.388 . S
C568 N571 1.338 . S
C568 C573 1.503 . S
C569 C568 1.388 . S
C569 C570 1.396 . S
C570 C569 1.396 . S
C570 N572 1.348 . S
C570 C577 1.504 . S
N571 C568 1.338 . S
N571 N572 1.361 . S
N571 Cu632 1.924 . S
N572 C570 1.348 . S
N572 N571 1.361 . S
N572 Cu633 1.964 . S
C573 C568 1.503 . S
C573 H574 0.979 . S
C573 H575 0.979 . S
C573 H576 0.979 . S
H574 C573 0.979 . S
H575 C573 0.979 . S
H576 C573 0.979 . S
C577 C570 1.504 . S
C577 H578 0.981 . S
C577 H579 0.980 . S
C577 H580 0.979 . S
H578 C577 0.981 . S
H579 C577 0.980 . S
H580 C577 0.979 . S
C581 C582 1.402 . S
C581 N584 1.356 . S
C581 C586 1.481 . S
C582 C581 1.402 . S
C582 C583 1.400 . S
C583 C582 1.400 . S
C583 N585 1.325 . S
C583 C590 1.503 . S
N584 C581 1.356 . S
N584 N585 1.365 . S
N584 Cu627 1.941 . S
N585 C583 1.325 . S
N585 N584 1.365 . S
N585 Cu630 1.924 . S
C586 C581 1.481 . S
C586 H587 0.980 . S
C586 H588 0.980 . S
C586 H589 0.980 . S
H587 C586 0.980 . S
H588 C586 0.980 . S
H589 C586 0.980 . S
C590 C583 1.503 . S
C590 H591 0.978 . S
C590 H592 0.978 . S
C590 H593 0.983 . S
H591 C590 0.978 . S
H592 C590 0.978 . S
H593 C590 0.983 . S
C594 H660 0.979 . S
C594 H661 0.981 . S
C594 H662 0.981 . S
C594 O680 1.438 . S
C595 H663 0.980 . S
C595 H664 0.979 . S
C595 H665 0.980 1_565 S
C595 O681 1.533 . S
C596 N597 1.338 . S
C596 C599 1.388 . S
C596 C604 1.503 . S
N597 C596 1.338 . S
N597 N598 1.361 . S
N597 Cu634 1.924 . S
N598 N597 1.361 . S
N598 C600 1.348 . S
N598 Cu635 1.964 . S
C599 C596 1.388 . S
C599 C600 1.396 . S
C600 N598 1.348 . S
C600 C599 1.396 . S
C600 C608 1.504 . S
H601 C604 0.979 . S
H602 C604 0.979 . S
H603 C604 0.979 . S
C604 C596 1.503 . S
C604 H601 0.979 . S
C604 H602 0.979 . S
C604 H603 0.979 . S
H605 C608 0.981 . S
H606 C608 0.980 . S
H607 C608 0.979 . S
C608 C600 1.504 . S
C608 H605 0.981 . S
C608 H606 0.980 . S
C608 H607 0.979 . S
C609 N610 1.356 . S
C609 C612 1.402 . S
C609 C614 1.481 . S
N610 C609 1.356 . S
N610 N611 1.341 1_545 S
N610 Cu629 1.941 . S
N611 N610 1.341 1_565 S
N611 C613 1.330 . S
N611 Cu632 1.938 . S
C612 C609 1.402 . S
C612 C613 1.400 1_545 S
C613 N611 1.330 . S
C613 C612 1.400 1_565 S
C613 C618 1.503 . S
C614 C609 1.481 . S
C614 H615 0.980 . S
C614 H616 0.980 . S
C614 H617 0.980 . S
H615 C614 0.980 . S
H616 C614 0.980 . S
H617 C614 0.980 . S
C618 C613 1.503 . S
C618 H619 0.978 . S
C618 H620 0.978 . S
C618 H621 0.983 . S
H619 C618 0.978 . S
H620 C618 0.978 . S
H621 C618 0.983 . S
C622 H666 0.979 . S
C622 H667 0.981 . S
C622 H668 0.981 . S
C622 O682 1.438 . S
C623 H669 0.980 . S
C623 H670 0.979 . S
C623 H671 0.980 . S
C623 O683 1.533 . S
Cu624 N459 1.924 . S
Cu624 N500 1.924 . S
Cu624 O672 1.923 . S
Cu624 O673 1.930 . S
Cu625 N460 1.964 . S
Cu625 N556 1.941 . S
Cu625 O672 1.905 . S
Cu625 O683 1.920 . S
Cu626 N485 1.924 . S
Cu626 N528 1.943 . S
Cu626 O674 1.923 . S
Cu626 O675 1.930 . S
Cu627 N486 1.964 . S
Cu627 N584 1.941 . S
Cu627 O674 1.905 . S
Cu627 O679 1.920 . S
Cu628 N473 1.924 . S
Cu628 N513 1.924 . S
Cu628 O676 1.923 . S
Cu628 O677 1.930 . S
Cu629 N515 1.964 . S
Cu629 N610 1.941 . S
Cu629 O676 1.905 . S
Cu629 O681 1.920 1_545 S
Cu630 N541 1.924 . S
Cu630 N585 1.924 . S
Cu630 O678 1.923 . S
Cu630 O679 1.930 . S
Cu631 N472 1.941 . S
Cu631 N544 1.964 . S
Cu631 O677 1.920 . S
Cu631 O678 1.905 . S
Cu632 N571 1.924 . S
Cu632 N611 1.938 . S
Cu632 O680 1.923 . S
Cu632 O681 1.930 . S
Cu633 N499 1.941 . S
Cu633 N572 1.964 . S
Cu633 O673 1.920 . S
Cu633 O680 1.905 . S
Cu634 N557 1.924 . S
Cu634 N597 1.924 . S
Cu634 O682 1.923 . S
Cu634 O683 1.930 . S
Cu635 N527 1.941 . S
Cu635 N598 1.964 . S
Cu635 O675 1.920 1_565 S
Cu635 O682 1.905 . S
H636 C482 0.979 . S
H637 C482 0.981 . S
H638 C482 0.981 . S
H639 C483 0.980 . S
H640 C483 0.979 . S
H641 C483 0.980 . S
H642 C510 0.979 . S
H643 C510 0.981 . S
H644 C510 0.981 . S
H645 C511 0.980 . S
H646 C511 0.979 . S
H647 C511 0.980 1_565 S
H648 C538 0.979 . S
H649 C538 0.981 . S
H650 C538 0.981 . S
H651 C539 0.980 . S
H652 C539 0.979 . S
H653 C539 0.980 . S
H654 C566 0.979 . S
H655 C566 0.981 . S
H656 C566 0.981 . S
H657 C567 0.980 . S
H658 C567 0.979 . S
H659 C567 0.980 . S
H660 C594 0.979 . S
H661 C594 0.981 . S
H662 C594 0.981 . S
H663 C595 0.980 . S
H664 C595 0.979 . S
H665 C595 0.980 1_545 S
H666 C622 0.979 . S
H667 C622 0.981 . S
H668 C622 0.981 . S
H669 C623 0.980 . S
H670 C623 0.979 . S
H671 C623 0.980 . S
O672 C482 1.438 . S
O672 Cu624 1.923 . S
O672 Cu625 1.905 . S
O673 C483 1.533 . S
O673 Cu624 1.930 . S
O673 Cu633 1.920 . S
O674 C510 1.438 . S
O674 Cu626 1.923 . S
O674 Cu627 1.905 . S
O675 C511 1.533 . S
O675 Cu626 1.930 . S
O675 Cu635 1.920 1_545 S
O676 C538 1.438 . S
O676 Cu628 1.923 . S
O676 Cu629 1.905 . S
O677 C539 1.533 . S
O677 Cu628 1.930 . S
O677 Cu631 1.920 . S
O678 C566 1.438 . S
O678 Cu630 1.923 . S
O678 Cu631 1.905 . S
O679 C567 1.533 . S
O679 Cu627 1.920 . S
O679 Cu630 1.930 . S
O680 C594 1.438 . S
O680 Cu632 1.923 . S
O680 Cu633 1.905 . S
O681 C595 1.533 . S
O681 Cu629 1.920 1_565 S
O681 Cu632 1.930 . S
O682 C622 1.438 . S
O682 Cu634 1.923 . S
O682 Cu635 1.905 . S
O683 C623 1.533 . S
O683 Cu625 1.920 . S
O683 Cu634 1.930 . S
C684 C685 1.388 . S
C684 N687 1.338 . S
C684 C689 1.503 . S
C685 C684 1.388 . S
C685 C686 1.396 . S
C686 C685 1.396 . S
C686 N688 1.348 . S
C686 C693 1.504 . S
N687 C684 1.338 . S
N687 N688 1.361 . S
N687 Cu852 1.924 . S
N688 C686 1.348 . S
N688 N687 1.361 . S
N688 Cu853 1.964 . S
C689 C684 1.503 . S
C689 H690 0.979 . S
C689 H691 0.979 . S
C689 H692 0.979 . S
H690 C689 0.979 . S
H691 C689 0.979 . S
H692 C689 0.979 . S
C693 C686 1.504 . S
C693 H694 0.981 . S
C693 H695 0.980 . S
C693 H696 0.979 . S
H694 C693 0.981 . S
H695 C693 0.980 . S
H696 C693 0.979 . S
C697 C699 1.402 . S
C697 N700 1.356 . S
C697 C705 1.481 . S
C698 C699 1.400 . S
C698 N701 1.325 . S
C698 C709 1.503 . S
C699 C697 1.402 . S
C699 C698 1.400 . S
N700 C697 1.356 . S
N700 N701 1.365 . S
N700 Cu859 1.941 . S
N701 C698 1.325 . S
N701 N700 1.365 . S
N701 Cu856 1.924 . S
H702 C705 0.980 . S
H703 C705 0.980 . S
H704 C705 0.980 . S
C705 C697 1.481 . S
C705 H702 0.980 . S
C705 H703 0.980 . S
C705 H704 0.980 . S
H706 C709 0.978 . S
H707 C709 0.978 . S
H708 C709 0.983 . S
C709 C698 1.503 . S
C709 H706 0.978 . S
C709 H707 0.978 . S
C709 H708 0.983 . S
C710 H864 0.979 . S
C710 H865 0.981 . S
C710 H866 0.981 . S
C710 O900 1.438 . S
C711 H867 0.980 . S
C711 H868 0.979 . S
C711 H869 0.980 1_554 S
C711 O901 1.533 . S
C712 N713 1.338 . S
C712 C715 1.388 . S
C712 C720 1.503 . S
N713 C712 1.338 . S
N713 N714 1.361 . S
N713 Cu854 1.924 . S
N714 N713 1.361 . S
N714 C716 1.348 . S
N714 Cu855 1.964 . S
C715 C712 1.388 . S
C715 C716 1.396 . S
C716 N714 1.348 . S
C716 C715 1.396 . S
C716 C724 1.504 . S
H717 C720 0.979 . S
H718 C720 0.979 . S
H719 C720 0.979 . S
C720 C712 1.503 . S
C720 H717 0.979 . S
C720 H718 0.979 . S
C720 H719 0.979 . S
H721 C724 0.981 . S
H722 C724 0.980 . S
H723 C724 0.979 . S
C724 C716 1.504 . S
C724 H721 0.981 . S
C724 H722 0.980 . S
C724 H723 0.979 . S
C725 N727 1.356 . S
C725 C729 1.402 . S
C725 C733 1.481 . S
C726 N728 1.331 . S
C726 C729 1.400 1_554 S
C726 C734 1.503 . S
N727 C725 1.356 . S
N727 N728 1.334 1_556 S
N727 Cu861 1.941 . S
N728 C726 1.331 . S
N728 N727 1.334 1_554 S
N728 Cu852 1.943 . S
C729 C725 1.402 . S
C729 C726 1.400 1_556 S
H730 C733 0.980 . S
H731 C733 0.980 . S
H732 C733 0.980 . S
C733 C725 1.481 . S
C733 H730 0.980 . S
C733 H731 0.980 . S
C733 H732 0.980 . S
C734 C726 1.503 . S
C734 H735 0.978 . S
C734 H736 0.978 . S
C734 H737 0.983 . S
H735 C734 0.978 . S
H736 C734 0.978 . S
H737 C734 0.983 . S
C738 H870 0.979 . S
C738 H871 0.981 . S
C738 H872 0.981 . S
C738 O902 1.438 . S
C739 H873 0.980 . S
C739 H874 0.979 . S
C739 H875 0.980 . S
C739 O903 1.533 . S
C740 N741 1.338 . S
C740 C742 1.388 . S
C740 C748 1.503 . S
N741 C740 1.338 . S
N741 N743 1.361 . S
N741 Cu856 1.924 . S
C742 C740 1.388 . S
C742 C744 1.396 . S
N743 N741 1.361 . S
N743 C744 1.348 . S
N743 Cu857 1.964 . S
C744 C742 1.396 . S
C744 N743 1.348 . S
C744 C750 1.504 . S
H745 C748 0.979 . S
H746 C748 0.979 . S
H747 C748 0.979 . S
C748 C740 1.503 . S
C748 H745 0.979 . S
C748 H746 0.979 . S
C748 H747 0.979 . S
H749 C750 0.981 . S
C750 C744 1.504 . S
C750 H749 0.981 . S
C750 H751 0.979 . S
C750 H752 0.980 1_556 S
H751 C750 0.979 . S
H752 C750 0.980 1_554 S
C753 N755 1.356 . S
C753 C757 1.402 . S
C753 C759 1.481 . S
C754 N756 1.325 . S
C754 C757 1.400 . S
C754 C764 1.503 . S
N755 C753 1.356 . S
N755 N756 1.365 . S
N755 Cu863 1.941 . S
N756 C754 1.325 . S
N756 N755 1.365 . S
N756 Cu854 1.924 . S
C757 C753 1.402 . S
C757 C754 1.400 . S
H758 C759 0.980 . S
C759 C753 1.481 . S
C759 H758 0.980 . S
C759 H760 0.980 . S
C759 H761 0.980 . S
H760 C759 0.980 . S
H761 C759 0.980 . S
H762 C764 0.978 . S
H763 C764 0.978 . S
C764 C754 1.503 . S
C764 H762 0.978 . S
C764 H763 0.978 . S
C764 H765 0.983 . S
H765 C764 0.983 . S
C766 H876 0.979 . S
C766 H877 0.981 . S
C766 H878 0.981 . S
C766 O904 1.438 . S
C767 H879 0.980 . S
C767 H880 0.979 . S
C767 H881 0.980 . S
C767 O905 1.533 . S
C768 N769 1.338 . S
C768 C770 1.388 . S
C768 C773 1.503 . S
N769 C768 1.338 . S
N769 N772 1.361 . S
N769 Cu858 1.924 . S
C770 C768 1.388 . S
C770 C771 1.396 . S
C771 C770 1.396 . S
C771 N772 1.348 . S
C771 C777 1.504 . S
N772 N769 1.361 . S
N772 C771 1.348 . S
N772 Cu859 1.964 . S
C773 C768 1.503 . S
C773 H774 0.979 . S
C773 H775 0.979 . S
C773 H776 0.979 . S
H774 C773 0.979 . S
H775 C773 0.979 . S
H776 C773 0.979 . S
C777 C771 1.504 . S
C777 H778 0.981 . S
C777 H779 0.980 . S
C777 H780 0.979 . S
H778 C777 0.981 . S
H779 C777 0.980 . S
H780 C777 0.979 . S
C781 C782 1.402 . S
C781 N784 1.356 . S
C781 C789 1.481 . S
C782 C781 1.402 . S
C782 C783 1.400 . S
C783 C782 1.400 . S
C783 N785 1.325 . S
C783 C790 1.503 . S
N784 C781 1.356 . S
N784 N785 1.365 . S
N784 Cu853 1.941 . S
N785 C783 1.325 . S
N785 N784 1.365 . S
N785 Cu862 1.924 . S
H786 C789 0.980 . S
H787 C789 0.980 . S
H788 C789 0.980 . S
C789 C781 1.481 . S
C789 H786 0.980 . S
C789 H787 0.980 . S
C789 H788 0.980 . S
C790 C783 1.503 . S
C790 H791 0.978 . S
C790 H792 0.978 . S
C790 H793 0.983 . S
H791 C790 0.978 . S
H792 C790 0.978 . S
H793 C790 0.983 . S
C794 H882 0.979 . S
C794 H883 0.981 . S
C794 H884 0.981 . S
C794 O906 1.438 . S
C795 H885 0.980 . S
C795 H886 0.979 . S
C795 H887 0.980 1_556 S
C795 O907 1.533 . S
C796 C797 1.388 . S
C796 N799 1.338 . S
C796 C801 1.503 . S
C797 C796 1.388 . S
C797 C798 1.396 . S
C798 C797 1.396 . S
C798 N800 1.348 . S
C798 C805 1.504 . S
N799 C796 1.338 . S
N799 N800 1.361 . S
N799 Cu860 1.924 . S
N800 C798 1.348 . S
N800 N799 1.361 . S
N800 Cu861 1.964 . S
C801 C796 1.503 . S
C801 H802 0.979 . S
C801 H803 0.979 . S
C801 H804 0.979 . S
H802 C801 0.979 . S
H803 C801 0.979 . S
H804 C801 0.979 . S
C805 C798 1.504 . S
C805 H806 0.981 . S
C805 H807 0.980 . S
C805 H808 0.979 . S
H806 C805 0.981 . S
H807 C805 0.980 . S
H808 C805 0.979 . S
C809 C810 1.402 . S
C809 N812 1.356 . S
C809 C814 1.481 . S
C810 C809 1.402 . S
C810 C811 1.400 1_554 S
C811 C810 1.400 1_556 S
C811 N813 1.330 . S
C811 C818 1.503 . S
N812 C809 1.356 . S
N812 N813 1.341 1_554 S
N812 Cu855 1.941 . S
N813 C811 1.330 . S
N813 N812 1.341 1_556 S
N813 Cu858 1.938 . S
C814 C809 1.481 . S
C814 H815 0.980 . S
C814 H816 0.980 . S
C814 H817 0.980 . S
H815 C814 0.980 . S
H816 C814 0.980 . S
H817 C814 0.980 . S
C818 C811 1.503 . S
C818 H819 0.978 . S
C818 H820 0.978 . S
C818 H821 0.983 . S
H819 C818 0.978 . S
H820 C818 0.978 . S
H821 C818 0.983 . S
C822 H888 0.979 . S
C822 H889 0.981 . S
C822 H890 0.981 . S
C822 O908 1.438 . S
C823 H891 0.980 . S
C823 H892 0.979 . S
C823 H893 0.980 . S
C823 O909 1.533 . S
C824 N825 1.338 . S
C824 C827 1.388 . S
C824 C832 1.503 . S
N825 C824 1.338 . S
N825 N826 1.361 . S
N825 Cu862 1.924 . S
N826 N825 1.361 . S
N826 C828 1.348 . S
N826 Cu863 1.964 . S
C827 C824 1.388 . S
C827 C828 1.396 . S
C828 N826 1.348 . S
C828 C827 1.396 . S
C828 C836 1.504 . S
H829 C832 0.979 . S
H830 C832 0.979 . S
H831 C832 0.979 . S
C832 C824 1.503 . S
C832 H829 0.979 . S
C832 H830 0.979 . S
C832 H831 0.979 . S
H833 C836 0.981 . S
H834 C836 0.980 1_556 S
H835 C836 0.979 . S
C836 C828 1.504 . S
C836 H833 0.981 . S
C836 H834 0.980 1_554 S
C836 H835 0.979 . S
C837 N838 1.356 . S
C837 C840 1.402 . S
C837 C842 1.481 . S
N838 C837 1.356 . S
N838 N839 1.365 . S
N838 Cu857 1.941 . S
N839 N838 1.365 . S
N839 C841 1.325 . S
N839 Cu860 1.924 . S
C840 C837 1.402 . S
C840 C841 1.400 . S
C841 N839 1.325 . S
C841 C840 1.400 . S
C841 C846 1.503 . S
C842 C837 1.481 . S
C842 H843 0.980 . S
C842 H844 0.980 . S
C842 H845 0.980 . S
H843 C842 0.980 . S
H844 C842 0.980 . S
H845 C842 0.980 . S
C846 C841 1.503 . S
C846 H847 0.978 . S
C846 H848 0.978 . S
C846 H849 0.983 . S
H847 C846 0.978 . S
H848 C846 0.978 . S
H849 C846 0.983 . S
C850 H894 0.979 . S
C850 H895 0.981 . S
C850 H896 0.981 . S
C850 O910 1.438 . S
C851 H897 0.980 . S
C851 H898 0.979 . S
C851 H899 0.980 . S
C851 O911 1.533 . S
Cu852 N687 1.924 . S
Cu852 N728 1.943 . S
Cu852 O900 1.923 . S
Cu852 O901 1.930 . S
Cu853 N688 1.964 . S
Cu853 N784 1.941 . S
Cu853 O900 1.905 . S
Cu853 O911 1.920 . S
Cu854 N713 1.924 . S
Cu854 N756 1.924 . S
Cu854 O902 1.923 . S
Cu854 O903 1.930 . S
Cu855 N714 1.964 . S
Cu855 N812 1.941 . S
Cu855 O902 1.905 . S
Cu855 O907 1.920 1_554 S
Cu856 N701 1.924 . S
Cu856 N741 1.924 . S
Cu856 O904 1.923 . S
Cu856 O905 1.930 . S
Cu857 N743 1.964 . S
Cu857 N838 1.941 . S
Cu857 O904 1.905 . S
Cu857 O909 1.920 . S
Cu858 N769 1.924 . S
Cu858 N813 1.938 . S
Cu858 O906 1.923 . S
Cu858 O907 1.930 . S
Cu859 N700 1.941 . S
Cu859 N772 1.964 . S
Cu859 O905 1.920 . S
Cu859 O906 1.905 . S
Cu860 N799 1.924 . S
Cu860 N839 1.924 . S
Cu860 O908 1.923 . S
Cu860 O909 1.930 . S
Cu861 N727 1.941 . S
Cu861 N800 1.964 . S
Cu861 O901 1.920 1_556 S
Cu861 O908 1.905 . S
Cu862 N785 1.924 . S
Cu862 N825 1.924 . S
Cu862 O910 1.923 . S
Cu862 O911 1.930 . S
Cu863 N755 1.941 . S
Cu863 N826 1.964 . S
Cu863 O903 1.920 . S
Cu863 O910 1.905 . S
H864 C710 0.979 . S
H865 C710 0.981 . S
H866 C710 0.981 . S
H867 C711 0.980 . S
H868 C711 0.979 . S
H869 C711 0.980 1_556 S
H870 C738 0.979 . S
H871 C738 0.981 . S
H872 C738 0.981 . S
H873 C739 0.980 . S
H874 C739 0.979 . S
H875 C739 0.980 . S
H876 C766 0.979 . S
H877 C766 0.981 . S
H878 C766 0.981 . S
H879 C767 0.980 . S
H880 C767 0.979 . S
H881 C767 0.980 . S
H882 C794 0.979 . S
H883 C794 0.981 . S
H884 C794 0.981 . S
H885 C795 0.980 . S
H886 C795 0.979 . S
H887 C795 0.980 1_554 S
H888 C822 0.979 . S
H889 C822 0.981 . S
H890 C822 0.981 . S
H891 C823 0.980 . S
H892 C823 0.979 . S
H893 C823 0.980 . S
H894 C850 0.979 . S
H895 C850 0.981 . S
H896 C850 0.981 . S
H897 C851 0.980 . S
H898 C851 0.979 . S
H899 C851 0.980 . S
O900 C710 1.438 . S
O900 Cu852 1.923 . S
O900 Cu853 1.905 . S
O901 C711 1.533 . S
O901 Cu852 1.930 . S
O901 Cu861 1.920 1_554 S
O902 C738 1.438 . S
O902 Cu854 1.923 . S
O902 Cu855 1.905 . S
O903 C739 1.533 . S
O903 Cu854 1.930 . S
O903 Cu863 1.920 . S
O904 C766 1.438 . S
O904 Cu856 1.923 . S
O904 Cu857 1.905 . S
O905 C767 1.533 . S
O905 Cu856 1.930 . S
O905 Cu859 1.920 . S
O906 C794 1.438 . S
O906 Cu858 1.923 . S
O906 Cu859 1.905 . S
O907 C795 1.533 . S
O907 Cu855 1.920 1_556 S
O907 Cu858 1.930 . S
O908 C822 1.438 . S
O908 Cu860 1.923 . S
O908 Cu861 1.905 . S
O909 C823 1.533 . S
O909 Cu857 1.920 . S
O909 Cu860 1.930 . S
O910 C850 1.438 . S
O910 Cu862 1.923 . S
O910 Cu863 1.905 . S
O911 C851 1.533 . S
O911 Cu853 1.920 . S
O911 Cu862 1.930 . S
H912 C924 0.930 . S
H913 C926 0.930 . S
H914 C927 0.930 . S
H915 C931 0.959 . S
H916 C931 0.959 . S
H917 C931 0.961 . S
H918 C932 0.960 . S
H919 C932 0.961 . S
H920 C932 0.959 . S
H921 C935 0.929 . S
H922 C936 0.931 . S
H923 C938 0.930 . S
C924 H912 0.930 . S
C924 C925 1.399 1_655 S
C924 C929 1.399 . S
C925 C924 1.399 1_455 S
C925 C926 1.376 . S
C926 H913 0.930 . S
C926 C925 1.376 . S
C926 C927 1.388 . S
C927 H914 0.930 . S
C927 C926 1.388 . S
C927 C928 1.390 . S
C928 C927 1.390 . S
C928 C929 1.394 1_455 S
C928 C934 1.465 . S
C929 C924 1.399 . S
C929 C928 1.394 1_655 S
C929 C930 1.516 . S
C930 C929 1.516 . S
C930 C931 1.502 . S
C930 C932 1.561 . S
C930 C933 1.526 . S
C931 H915 0.959 . S
C931 H916 0.959 . S
C931 H917 0.961 . S
C931 C930 1.502 . S
C932 H918 0.960 . S
C932 H919 0.961 . S
C932 H920 0.959 . S
C932 C930 1.561 . S
C933 C930 1.526 . S
C933 C934 1.396 1_655 S
C933 C938 1.390 . S
C934 C928 1.465 . S
C934 C933 1.396 1_455 S
C934 C935 1.399 . S
C935 H921 0.929 . S
C935 C934 1.399 . S
C935 C936 1.385 . S
C936 H922 0.931 . S
C936 C935 1.385 . S
C936 C937 1.389 . S
C937 C936 1.389 . S
C937 C938 1.387 1_455 S
C938 H923 0.930 . S
C938 C933 1.390 . S
C938 C937 1.387 1_655 S
H939 C951 0.930 . S
H940 C953 0.930 . S
H941 C954 0.930 . S
H942 C958 0.959 . S
H943 C958 0.959 . S
H944 C958 0.961 . S
H945 C959 0.960 . S
H946 C959 0.961 . S
H947 C959 0.959 . S
H948 C962 0.929 . S
H949 C963 0.931 . S
H950 C965 0.930 . S
C951 H939 0.930 . S
C951 C952 1.399 1_545 S
C951 C956 1.399 . S
C952 C951 1.399 1_565 S
C952 C953 1.376 . S
C953 H940 0.930 . S
C953 C952 1.376 . S
C953 C954 1.388 . S
C954 H941 0.930 . S
C954 C953 1.388 . S
C954 C955 1.390 . S
C955 C954 1.390 . S
C955 C956 1.394 1_565 S
C955 C961 1.465 . S
C956 C951 1.399 . S
C956 C955 1.394 1_545 S
C956 C957 1.516 . S
C957 C956 1.516 . S
C957 C958 1.502 . S
C957 C959 1.561 . S
C957 C960 1.526 . S
C958 H942 0.959 . S
C958 H943 0.959 . S
C958 H944 0.961 . S
C958 C957 1.502 . S
C959 H945 0.960 . S
C959 H946 0.961 . S
C959 H947 0.959 . S
C959 C957 1.561 . S
C960 C957 1.526 . S
C960 C961 1.396 1_545 S
C960 C965 1.390 . S
C961 C955 1.465 . S
C961 C960 1.396 1_565 S
C961 C962 1.399 . S
C962 H948 0.929 . S
C962 C961 1.399 . S
C962 C963 1.385 . S
C963 H949 0.931 . S
C963 C962 1.385 . S
C963 C964 1.389 1_565 S
C964 C963 1.389 1_545 S
C964 C965 1.387 . S
C965 H950 0.930 . S
C965 C960 1.390 . S
C965 C964 1.387 . S
H966 C978 0.930 1_655 S
H967 C980 0.930 . S
H968 C981 0.930 . S
H969 C985 0.959 . S
H970 C985 0.959 . S
H971 C985 0.961 . S
H972 C986 0.960 . S
H973 C986 0.961 . S
H974 C986 0.959 . S
H975 C989 0.929 . S
H976 C990 0.931 . S
H977 C992 0.930 . S
C978 H966 0.930 1_455 S
C978 C979 1.399 . S
C978 C983 1.399 1_455 S
C979 C978 1.399 . S
C979 C980 1.376 . S
C980 H967 0.930 . S
C980 C979 1.376 . S
C980 C981 1.388 . S
C981 H968 0.930 . S
C981 C980 1.388 . S
C981 C982 1.390 . S
C982 C981 1.390 . S
C982 C983 1.394 1_455 S
C982 C988 1.465 . S
C983 C978 1.399 1_655 S
C983 C982 1.394 1_655 S
C983 C984 1.516 . S
C984 C983 1.516 . S
C984 C985 1.502 . S
C984 C986 1.561 . S
C984 C987 1.526 . S
C985 H969 0.959 . S
C985 H970 0.959 . S
C985 H971 0.961 . S
C985 C984 1.502 . S
C986 H972 0.960 . S
C986 H973 0.961 . S
C986 H974 0.959 . S
C986 C984 1.561 . S
C987 C984 1.526 . S
C987 C988 1.396 1_655 S
C987 C992 1.390 . S
C988 C982 1.465 . S
C988 C987 1.396 1_455 S
C988 C989 1.399 . S
C989 H975 0.929 . S
C989 C988 1.399 . S
C989 C990 1.385 . S
C990 H976 0.931 . S
C990 C989 1.385 . S
C990 C991 1.389 1_455 S
C991 C990 1.389 1_655 S
C991 C992 1.387 . S
C992 H977 0.930 . S
C992 C987 1.390 . S
C992 C991 1.387 . S
H993 C1005 0.930 . S
H994 C1007 0.930 . S
H995 C1008 0.930 . S
H996 C1012 0.959 . S
H997 C1012 0.959 . S
H998 C1012 0.961 . S
H999 C1013 0.960 . S
H1000 C1013 0.961 . S
H1001 C1013 0.959 . S
H1002 C1016 0.929 . S
H1003 C1017 0.931 . S
H1004 C1019 0.930 . S
C1005 H993 0.930 . S
C1005 C1006 1.399 1_545 S
C1005 C1010 1.399 . S
C1006 C1005 1.399 1_565 S
C1006 C1007 1.376 . S
C1007 H994 0.930 . S
C1007 C1006 1.376 . S
C1007 C1008 1.388 . S
C1008 H995 0.930 . S
C1008 C1007 1.388 . S
C1008 C1009 1.390 . S
C1009 C1008 1.390 . S
C1009 C1010 1.394 1_565 S
C1009 C1015 1.465 . S
C1010 C1005 1.399 . S
C1010 C1009 1.394 1_545 S
C1010 C1011 1.516 . S
C1011 C1010 1.516 . S
C1011 C1012 1.502 . S
C1011 C1013 1.561 . S
C1011 C1014 1.526 . S
C1012 H996 0.959 . S
C1012 H997 0.959 . S
C1012 H998 0.961 . S
C1012 C1011 1.502 . S
C1013 H999 0.960 . S
C1013 H1000 0.961 . S
C1013 H1001 0.959 . S
C1013 C1011 1.561 . S
C1014 C1011 1.526 . S
C1014 C1015 1.396 1_545 S
C1014 C1019 1.390 . S
C1015 C1009 1.465 . S
C1015 C1014 1.396 1_565 S
C1015 C1016 1.399 . S
C1016 H1002 0.929 . S
C1016 C1015 1.399 . S
C1016 C1017 1.385 . S
C1017 H1003 0.931 . S
C1017 C1016 1.385 . S
C1017 C1018 1.389 . S
C1018 C1017 1.389 . S
C1018 C1019 1.387 1_565 S
C1019 H1004 0.930 . S
C1019 C1014 1.390 . S
C1019 C1018 1.387 1_545 S
H1020 C1032 0.930 . S
H1021 C1034 0.930 . S
H1022 C1035 0.930 . S
H1023 C1039 0.959 . S
H1024 C1039 0.959 . S
H1025 C1039 0.961 . S
H1026 C1040 0.960 . S
H1027 C1040 0.961 . S
H1028 C1040 0.959 . S
H1029 C1043 0.929 . S
H1030 C1044 0.931 . S
H1031 C1046 0.930 . S
C1032 H1020 0.930 . S
C1032 C1033 1.399 1_455 S
C1032 C1037 1.399 . S
C1033 C1032 1.399 1_655 S
C1033 C1034 1.376 . S
C1034 H1021 0.930 . S
C1034 C1033 1.376 . S
C1034 C1035 1.388 . S
C1035 H1022 0.930 . S
C1035 C1034 1.388 . S
C1035 C1036 1.390 . S
C1036 C1035 1.390 . S
C1036 C1037 1.394 1_655 S
C1036 C1042 1.465 . S
C1037 C1032 1.399 . S
C1037 C1036 1.394 1_455 S
C1037 C1038 1.516 . S
C1038 C1037 1.516 . S
C1038 C1039 1.502 . S
C1038 C1040 1.561 1_455 S
C1038 C1041 1.526 . S
C1039 H1023 0.959 . S
C1039 H1024 0.959 . S
C1039 H1025 0.961 . S
C1039 C1038 1.502 . S
C1040 H1026 0.960 . S
C1040 H1027 0.961 . S
C1040 H1028 0.959 . S
C1040 C1038 1.561 1_655 S
C1041 C1038 1.526 . S
C1041 C1042 1.396 1_455 S
C1041 C1046 1.390 . S
C1042 C1036 1.465 . S
C1042 C1041 1.396 1_655 S
C1042 C1043 1.399 . S
C1043 H1029 0.929 . S
C1043 C1042 1.399 . S
C1043 C1044 1.385 . S
C1044 H1030 0.931 . S
C1044 C1043 1.385 . S
C1044 C1045 1.389 1_655 S
C1045 C1044 1.389 1_455 S
C1045 C1046 1.387 . S
C1046 H1031 0.930 . S
C1046 C1041 1.390 . S
C1046 C1045 1.387 . S
H1047 C1059 0.930 . S
H1048 C1061 0.930 . S
H1049 C1062 0.930 . S
H1050 C1066 0.959 . S
H1051 C1066 0.959 . S
H1052 C1066 0.961 . S
H1053 C1067 0.960 . S
H1054 C1067 0.961 . S
H1055 C1067 0.959 . S
H1056 C1070 0.929 . S
H1057 C1071 0.931 . S
H1058 C1073 0.930 . S
C1059 H1047 0.930 . S
C1059 C1060 1.399 1_565 S
C1059 C1064 1.399 . S
C1060 C1059 1.399 1_545 S
C1060 C1061 1.376 . S
C1061 H1048 0.930 . S
C1061 C1060 1.376 . S
C1061 C1062 1.388 . S
C1062 H1049 0.930 . S
C1062 C1061 1.388 . S
C1062 C1063 1.390 . S
C1063 C1062 1.390 . S
C1063 C1064 1.394 1_545 S
C1063 C1069 1.465 . S
C1064 C1059 1.399 . S
C1064 C1063 1.394 1_565 S
C1064 C1065 1.516 . S
C1065 C1064 1.516 . S
C1065 C1066 1.502 . S
C1065 C1067 1.561 . S
C1065 C1068 1.526 . S
C1066 H1050 0.959 . S
C1066 H1051 0.959 . S
C1066 H1052 0.961 . S
C1066 C1065 1.502 . S
C1067 H1053 0.960 . S
C1067 H1054 0.961 . S
C1067 H1055 0.959 . S
C1067 C1065 1.561 . S
C1068 C1065 1.526 . S
C1068 C1069 1.396 1_565 S
C1068 C1073 1.390 . S
C1069 C1063 1.465 . S
C1069 C1068 1.396 1_545 S
C1069 C1070 1.399 . S
C1070 H1056 0.929 . S
C1070 C1069 1.399 . S
C1070 C1071 1.385 . S
C1071 H1057 0.931 . S
C1071 C1070 1.385 . S
C1071 C1072 1.389 1_545 S
C1072 C1071 1.389 1_565 S
C1072 C1073 1.387 . S
C1073 H1058 0.930 . S
C1073 C1068 1.390 . S
C1073 C1072 1.387 . S
H1074 C1086 0.930 . S
H1075 C1088 0.930 . S
H1076 C1089 0.930 . S
H1077 C1093 0.959 . S
H1078 C1093 0.959 . S
H1079 C1093 0.961 . S
H1080 C1094 0.960 . S
H1081 C1094 0.961 . S
H1082 C1094 0.959 1_655 S
H1083 C1097 0.929 . S
H1084 C1098 0.931 . S
H1085 C1100 0.930 1_455 S
C1086 H1074 0.930 . S
C1086 C1087 1.399 . S
C1086 C1091 1.399 . S
C1087 C1086 1.399 . S
C1087 C1088 1.376 1_455 S
C1088 H1075 0.930 . S
C1088 C1087 1.376 1_655 S
C1088 C1089 1.388 . S
C1089 H1076 0.930 . S
C1089 C1088 1.388 . S
C1089 C1090 1.390 . S
C1090 C1089 1.390 . S
C1090 C1091 1.394 1_655 S
C1090 C1096 1.465 . S
C1091 C1086 1.399 . S
C1091 C1090 1.394 1_455 S
C1091 C1092 1.516 . S
C1092 C1091 1.516 . S
C1092 C1093 1.502 . S
C1092 C1094 1.561 . S
C1092 C1095 1.526 1_455 S
C1093 H1077 0.959 . S
C1093 H1078 0.959 . S
C1093 H1079 0.961 . S
C1093 C1092 1.502 . S
C1094 H1080 0.960 . S
C1094 H1081 0.961 . S
C1094 H1082 0.959 1_455 S
C1094 C1092 1.561 . S
C1095 C1092 1.526 1_655 S
C1095 C1096 1.396 . S
C1095 C1100 1.390 . S
C1096 C1090 1.465 . S
C1096 C1095 1.396 . S
C1096 C1097 1.399 . S
C1097 H1083 0.929 . S
C1097 C1096 1.399 . S
C1097 C1098 1.385 . S
C1098 H1084 0.931 . S
C1098 C1097 1.385 . S
C1098 C1099 1.389 . S
C1099 C1098 1.389 . S
C1099 C1100 1.387 . S
C1100 H1085 0.930 1_655 S
C1100 C1095 1.390 . S
C1100 C1099 1.387 . S
H1101 C1113 0.930 . S
H1102 C1115 0.930 . S
H1103 C1116 0.930 . S
H1104 C1120 0.959 . S
H1105 C1120 0.959 . S
H1106 C1120 0.961 . S
H1107 C1121 0.960 . S
H1108 C1121 0.961 . S
H1109 C1121 0.959 . S
H1110 C1124 0.929 . S
H1111 C1125 0.931 . S
H1112 C1127 0.930 . S
C1113 H1101 0.930 . S
C1113 C1114 1.399 1_545 S
C1113 C1118 1.399 . S
C1114 C1113 1.399 1_565 S
C1114 C1115 1.376 . S
C1115 H1102 0.930 . S
C1115 C1114 1.376 . S
C1115 C1116 1.388 . S
C1116 H1103 0.930 . S
C1116 C1115 1.388 . S
C1116 C1117 1.390 . S
C1117 C1116 1.390 . S
C1117 C1118 1.394 1_565 S
C1117 C1123 1.465 . S
C1118 C1113 1.399 . S
C1118 C1117 1.394 1_545 S
C1118 C1119 1.516 . S
C1119 C1118 1.516 . S
C1119 C1120 1.502 . S
C1119 C1121 1.561 . S
C1119 C1122 1.526 . S
C1120 H1104 0.959 . S
C1120 H1105 0.959 . S
C1120 H1106 0.961 . S
C1120 C1119 1.502 . S
C1121 H1107 0.960 . S
C1121 H1108 0.961 . S
C1121 H1109 0.959 . S
C1121 C1119 1.561 . S
C1122 C1119 1.526 . S
C1122 C1123 1.396 1_545 S
C1122 C1127 1.390 . S
C1123 C1117 1.465 . S
C1123 C1122 1.396 1_565 S
C1123 C1124 1.399 . S
C1124 H1110 0.929 . S
C1124 C1123 1.399 . S
C1124 C1125 1.385 . S
C1125 H1111 0.931 . S
C1125 C1124 1.385 . S
C1125 C1126 1.389 . S
C1126 C1125 1.389 . S
C1126 C1127 1.387 1_565 S
C1127 H1112 0.930 . S
C1127 C1122 1.390 . S
C1127 C1126 1.387 1_545 S
H1128 C1140 0.930 . S
H1129 C1142 0.930 . S
H1130 C1143 0.930 . S
H1131 C1147 0.959 . S
H1132 C1147 0.959 . S
H1133 C1147 0.961 . S
H1134 C1148 0.960 . S
H1135 C1148 0.961 . S
H1136 C1148 0.959 . S
H1137 C1151 0.929 . S
H1138 C1152 0.931 . S
H1139 C1154 0.930 . S
C1140 H1128 0.930 . S
C1140 C1141 1.387 1_556 S
C1140 C1145 1.399 . S
C1141 C1140 1.387 1_554 S
C1141 C1142 1.401 . S
C1142 H1129 0.930 . S
C1142 C1141 1.401 . S
C1142 C1143 1.388 . S
C1143 H1130 0.930 . S
C1143 C1142 1.388 . S
C1143 C1144 1.390 . S
C1144 C1143 1.390 . S
C1144 C1145 1.394 1_554 S
C1144 C1150 1.465 . S
C1145 C1140 1.399 . S
C1145 C1144 1.394 1_556 S
C1145 C1146 1.516 . S
C1146 C1145 1.516 . S
C1146 C1147 1.502 . S
C1146 C1148 1.561 . S
C1146 C1149 1.526 . S
C1147 H1131 0.959 . S
C1147 H1132 0.959 . S
C1147 H1133 0.961 . S
C1147 C1146 1.502 . S
C1148 H1134 0.960 . S
C1148 H1135 0.961 . S
C1148 H1136 0.959 . S
C1148 C1146 1.561 . S
C1149 C1146 1.526 . S
C1149 C1150 1.396 1_556 S
C1149 C1154 1.390 . S
C1150 C1144 1.465 . S
C1150 C1149 1.396 1_554 S
C1150 C1151 1.399 . S
C1151 H1137 0.929 . S
C1151 C1150 1.399 . S
C1151 C1152 1.385 . S
C1152 H1138 0.931 . S
C1152 C1151 1.385 . S
C1152 C1153 1.389 . S
C1153 C1152 1.389 . S
C1153 C1154 1.387 1_554 S
C1154 H1139 0.930 . S
C1154 C1149 1.390 . S
C1154 C1153 1.387 1_556 S
H1155 C1167 0.930 . S
H1156 C1169 0.930 . S
H1157 C1170 0.930 . S
H1158 C1174 0.959 . S
H1159 C1174 0.959 . S
H1160 C1174 0.961 . S
H1161 C1175 0.960 . S
H1162 C1175 0.961 . S
H1163 C1175 0.959 . S
H1164 C1178 0.929 . S
H1165 C1179 0.931 . S
H1166 C1181 0.930 . S
C1167 H1155 0.930 . S
C1167 C1168 1.399 . S
C1167 C1172 1.399 . S
C1168 C1167 1.399 . S
C1168 C1169 1.376 1_554 S
C1169 H1156 0.930 . S
C1169 C1168 1.376 1_556 S
C1169 C1170 1.388 . S
C1170 H1157 0.930 . S
C1170 C1169 1.388 . S
C1170 C1171 1.390 . S
C1171 C1170 1.390 . S
C1171 C1172 1.394 1_556 S
C1171 C1177 1.465 . S
C1172 C1167 1.399 . S
C1172 C1171 1.394 1_554 S
C1172 C1173 1.516 . S
C1173 C1172 1.516 . S
C1173 C1174 1.502 . S
C1173 C1175 1.561 . S
C1173 C1176 1.526 . S
C1174 H1158 0.959 . S
C1174 H1159 0.959 . S
C1174 H1160 0.961 . S
C1174 C1173 1.502 . S
C1175 H1161 0.960 . S
C1175 H1162 0.961 . S
C1175 H1163 0.959 . S
C1175 C1173 1.561 . S
C1176 C1173 1.526 . S
C1176 C1177 1.396 1_554 S
C1176 C1181 1.390 . S
C1177 C1171 1.465 . S
C1177 C1176 1.396 1_556 S
C1177 C1178 1.399 . S
C1178 H1164 0.929 . S
C1178 C1177 1.399 . S
C1178 C1179 1.385 . S
C1179 H1165 0.931 . S
C1179 C1178 1.385 . S
C1179 C1180 1.389 . S
C1180 C1179 1.389 . S
C1180 C1181 1.387 1_556 S
C1181 H1166 0.930 . S
C1181 C1176 1.390 . S
C1181 C1180 1.387 1_554 S
H1182 C1194 0.928 1_554 S
H1183 C1196 0.930 . S
H1184 C1197 0.930 . S
H1185 C1201 0.959 1_556 S
H1186 C1201 0.959 . S
H1187 C1201 0.961 . S
H1188 C1202 0.960 . S
H1189 C1202 0.961 . S
H1190 C1202 0.959 . S
H1191 C1205 0.929 . S
H1192 C1206 0.931 . S
H1193 C1208 0.930 . S
C1194 H1182 0.928 1_556 S
C1194 C1195 1.399 . S
C1194 C1199 1.399 1_556 S
C1195 C1194 1.399 . S
C1195 C1196 1.376 . S
C1196 H1183 0.930 . S
C1196 C1195 1.376 . S
C1196 C1197 1.388 . S
C1197 H1184 0.930 . S
C1197 C1196 1.388 . S
C1197 C1198 1.390 . S
C1198 C1197 1.390 . S
C1198 C1199 1.394 1_556 S
C1198 C1204 1.466 1_556 S
C1199 C1194 1.399 1_554 S
C1199 C1198 1.394 1_554 S
C1199 C1200 1.516 . S
C1200 C1199 1.516 . S
C1200 C1201 1.502 . S
C1200 C1202 1.561 . S
C1200 C1203 1.526 . S
C1201 H1185 0.959 1_554 S
C1201 H1186 0.959 . S
C1201 H1187 0.961 . S
C1201 C1200 1.502 . S
C1202 H1188 0.960 . S
C1202 H1189 0.961 . S
C1202 H1190 0.959 . S
C1202 C1200 1.561 . S
C1203 C1200 1.526 . S
C1203 C1204 1.395 . S
C1203 C1208 1.390 . S
C1204 C1198 1.466 1_554 S
C1204 C1203 1.395 . S
C1204 C1205 1.399 1_554 S
C1205 H1191 0.929 . S
C1205 C1204 1.399 1_556 S
C1205 C1206 1.385 1_556 S
C1206 H1192 0.931 . S
C1206 C1205 1.385 1_554 S
C1206 C1207 1.389 . S
C1207 C1206 1.389 . S
C1207 C1208 1.387 . S
C1208 H1193 0.930 . S
C1208 C1203 1.390 . S
C1208 C1207 1.387 . S
H1209 C1221 0.930 . S
H1210 C1223 0.930 . S
H1211 C1224 0.930 . S
H1212 C1228 0.959 . S
H1213 C1228 0.959 . S
H1214 C1228 0.961 . S
H1215 C1229 0.960 . S
H1216 C1229 0.961 . S
H1217 C1229 0.959 . S
H1218 C1232 0.929 . S
H1219 C1233 0.931 . S
H1220 C1235 0.930 . S
C1221 H1209 0.930 . S
C1221 C1222 1.399 1_554 S
C1221 C1226 1.399 . S
C1222 C1221 1.399 1_556 S
C1222 C1223 1.376 . S
C1223 H1210 0.930 . S
C1223 C1222 1.376 . S
C1223 C1224 1.388 . S
C1224 H1211 0.930 . S
C1224 C1223 1.388 . S
C1224 C1225 1.390 . S
C1225 C1224 1.390 . S
C1225 C1226 1.394 1_556 S
C1225 C1231 1.465 . S
C1226 C1221 1.399 . S
C1226 C1225 1.394 1_554 S
C1226 C1227 1.516 . S
C1227 C1226 1.516 . S
C1227 C1228 1.502 . S
C1227 C1229 1.561 . S
C1227 C1230 1.526 . S
C1228 H1212 0.959 . S
C1228 H1213 0.959 . S
C1228 H1214 0.961 . S
C1228 C1227 1.502 . S
C1229 H1215 0.960 . S
C1229 H1216 0.961 . S
C1229 H1217 0.959 . S
C1229 C1227 1.561 . S
C1230 C1227 1.526 . S
C1230 C1231 1.396 1_554 S
C1230 C1235 1.390 . S
C1231 C1225 1.465 . S
C1231 C1230 1.396 1_556 S
C1231 C1232 1.399 . S
C1232 H1218 0.929 . S
C1232 C1231 1.399 . S
C1232 C1233 1.385 . S
C1233 H1219 0.931 . S
C1233 C1232 1.385 . S
C1233 C1234 1.389 . S
C1234 C1233 1.389 . S
C1234 C1235 1.387 1_556 S
C1235 H1220 0.930 . S
C1235 C1230 1.390 . S
C1235 C1234 1.387 1_554 S
H1236 C1248 0.930 . S
H1237 C1250 0.930 . S
H1238 C1251 0.930 . S
H1239 C1255 0.959 . S
H1240 C1255 0.959 . S
H1241 C1255 0.961 . S
H1242 C1256 0.960 . S
H1243 C1256 0.961 . S
H1244 C1256 0.959 . S
H1245 C1259 0.929 . S
H1246 C1260 0.931 . S
H1247 C1262 0.930 . S
C1248 H1236 0.930 . S
C1248 C1249 1.399 . S
C1248 C1253 1.399 . S
C1249 C1248 1.399 . S
C1249 C1250 1.376 . S
C1250 H1237 0.930 . S
C1250 C1249 1.376 . S
C1250 C1251 1.388 . S
C1251 H1238 0.930 . S
C1251 C1250 1.388 . S
C1251 C1252 1.390 . S
C1252 C1251 1.390 . S
C1252 C1253 1.394 . S
C1252 C1258 1.465 . S
C1253 C1248 1.399 . S
C1253 C1252 1.394 . S
C1253 C1254 1.516 . S
C1254 C1253 1.516 . S
C1254 C1255 1.502 . S
C1254 C1256 1.561 . S
C1254 C1257 1.526 . S
C1255 H1239 0.959 . S
C1255 H1240 0.959 . S
C1255 H1241 0.961 . S
C1255 C1254 1.502 . S
C1256 H1242 0.960 . S
C1256 H1243 0.961 . S
C1256 H1244 0.959 . S
C1256 C1254 1.561 . S
C1257 C1254 1.526 . S
C1257 C1258 1.396 . S
C1257 C1262 1.390 . S
C1258 C1252 1.465 . S
C1258 C1257 1.396 . S
C1258 C1259 1.399 . S
C1259 H1245 0.929 . S
C1259 C1258 1.399 . S
C1259 C1260 1.385 . S
C1260 H1246 0.931 . S
C1260 C1259 1.385 . S
C1260 C1261 1.389 . S
C1261 C1260 1.389 . S
C1261 C1262 1.387 . S
C1262 H1247 0.930 . S
C1262 C1257 1.390 . S
C1262 C1261 1.387 . S
H1263 C1275 0.930 . S
H1264 C1277 0.930 . S
H1265 C1278 0.930 . S
H1266 C1282 0.959 . S
H1267 C1282 0.959 . S
H1268 C1282 0.961 . S
H1269 C1283 0.960 . S
H1270 C1283 0.961 . S
H1271 C1283 0.959 . S
H1272 C1286 0.929 . S
H1273 C1287 0.931 . S
H1274 C1289 0.930 . S
C1275 H1263 0.930 . S
C1275 C1276 1.399 . S
C1275 C1280 1.399 . S
C1276 C1275 1.399 . S
C1276 C1277 1.376 . S
C1277 H1264 0.930 . S
C1277 C1276 1.376 . S
C1277 C1278 1.388 . S
C1278 H1265 0.930 . S
C1278 C1277 1.388 . S
C1278 C1279 1.390 . S
C1279 C1278 1.390 . S
C1279 C1280 1.394 . S
C1279 C1285 1.465 . S
C1280 C1275 1.399 . S
C1280 C1279 1.394 . S
C1280 C1281 1.516 . S
C1281 C1280 1.516 . S
C1281 C1282 1.502 . S
C1281 C1283 1.561 . S
C1281 C1284 1.526 . S
C1282 H1266 0.959 . S
C1282 H1267 0.959 . S
C1282 H1268 0.961 . S
C1282 C1281 1.502 . S
C1283 H1269 0.960 . S
C1283 H1270 0.961 . S
C1283 H1271 0.959 . S
C1283 C1281 1.561 . S
C1284 C1281 1.526 . S
C1284 C1285 1.396 . S
C1284 C1289 1.390 . S
C1285 C1279 1.465 . S
C1285 C1284 1.396 . S
C1285 C1286 1.399 . S
C1286 H1272 0.929 . S
C1286 C1285 1.399 . S
C1286 C1287 1.385 . S
C1287 H1273 0.931 . S
C1287 C1286 1.385 . S
C1287 C1288 1.389 . S
C1288 C1287 1.389 . S
C1288 C1289 1.387 . S
C1289 H1274 0.930 . S
C1289 C1284 1.390 . S
C1289 C1288 1.387 . S
H1290 C1302 0.930 . S
H1291 C1304 0.930 . S
H1292 C1305 0.930 . S
H1293 C1309 0.959 . S
H1294 C1309 0.959 . S
H1295 C1309 0.961 . S
H1296 C1310 0.960 . S
H1297 C1310 0.961 . S
H1298 C1310 0.959 . S
H1299 C1313 0.929 . S
H1300 C1314 0.931 . S
H1301 C1316 0.930 . S
C1302 H1290 0.930 . S
C1302 C1303 1.399 . S
C1302 C1307 1.399 . S
C1303 C1302 1.399 . S
C1303 C1304 1.376 . S
C1304 H1291 0.930 . S
C1304 C1303 1.376 . S
C1304 C1305 1.388 . S
C1305 H1292 0.930 . S
C1305 C1304 1.388 . S
C1305 C1306 1.390 . S
C1306 C1305 1.390 . S
C1306 C1307 1.394 . S
C1306 C1312 1.465 . S
C1307 C1302 1.399 . S
C1307 C1306 1.394 . S
C1307 C1308 1.516 . S
C1308 C1307 1.516 . S
C1308 C1309 1.502 . S
C1308 C1310 1.561 . S
C1308 C1311 1.526 . S
C1309 H1293 0.959 . S
C1309 H1294 0.959 . S
C1309 H1295 0.961 . S
C1309 C1308 1.502 . S
C1310 H1296 0.960 . S
C1310 H1297 0.961 . S
C1310 H1298 0.959 . S
C1310 C1308 1.561 . S
C1311 C1308 1.526 . S
C1311 C1312 1.396 . S
C1311 C1316 1.390 . S
C1312 C1306 1.465 . S
C1312 C1311 1.396 . S
C1312 C1313 1.399 . S
C1313 H1299 0.929 . S
C1313 C1312 1.399 . S
C1313 C1314 1.385 . S
C1314 H1300 0.931 . S
C1314 C1313 1.385 . S
C1314 C1315 1.389 . S
C1315 C1314 1.389 . S
C1315 C1316 1.387 . S
C1316 H1301 0.930 . S
C1316 C1311 1.390 . S
C1316 C1315 1.387 . S
H1317 C1329 0.930 . S
H1318 C1331 0.930 . S
H1319 C1332 0.930 . S
H1320 C1336 0.959 . S
H1321 C1336 0.959 . S
H1322 C1336 0.961 . S
H1323 C1337 0.960 . S
H1324 C1337 0.961 . S
H1325 C1337 0.959 . S
H1326 C1340 0.929 . S
H1327 C1341 0.931 . S
H1328 C1343 0.930 . S
C1329 H1317 0.930 . S
C1329 C1330 1.399 . S
C1329 C1334 1.399 . S
C1330 C1329 1.399 . S
C1330 C1331 1.376 . S
C1331 H1318 0.930 . S
C1331 C1330 1.376 . S
C1331 C1332 1.388 . S
C1332 H1319 0.930 . S
C1332 C1331 1.388 . S
C1332 C1333 1.390 . S
C1333 C1332 1.390 . S
C1333 C1334 1.394 . S
C1333 C1339 1.465 . S
C1334 C1329 1.399 . S
C1334 C1333 1.394 . S
C1334 C1335 1.516 . S
C1335 C1334 1.516 . S
C1335 C1336 1.502 . S
C1335 C1337 1.561 . S
C1335 C1338 1.526 . S
C1336 H1320 0.959 . S
C1336 H1321 0.959 . S
C1336 H1322 0.961 . S
C1336 C1335 1.502 . S
C1337 H1323 0.960 . S
C1337 H1324 0.961 . S
C1337 H1325 0.959 . S
C1337 C1335 1.561 . S
C1338 C1335 1.526 . S
C1338 C1339 1.396 . S
C1338 C1343 1.390 . S
C1339 C1333 1.465 . S
C1339 C1338 1.396 . S
C1339 C1340 1.399 . S
C1340 H1326 0.929 . S
C1340 C1339 1.399 . S
C1340 C1341 1.385 . S
C1341 H1327 0.931 . S
C1341 C1340 1.385 . S
C1341 C1342 1.389 . S
C1342 C1341 1.389 . S
C1342 C1343 1.387 . S
C1343 H1328 0.930 . S
C1343 C1338 1.390 . S
C1343 C1342 1.387 . S
H1344 C1356 0.930 . S
H1345 C1358 0.930 . S
H1346 C1359 0.930 . S
H1347 C1363 0.959 . S
H1348 C1363 0.959 . S
H1349 C1363 0.961 . S
H1350 C1364 0.960 . S
H1351 C1364 0.961 . S
H1352 C1364 0.959 . S
H1353 C1367 0.929 . S
H1354 C1368 0.931 . S
H1355 C1370 0.930 . S
C1356 H1344 0.930 . S
C1356 C1357 1.399 . S
C1356 C1361 1.399 . S
C1357 C1356 1.399 . S
C1357 C1358 1.376 . S
C1358 H1345 0.930 . S
C1358 C1357 1.376 . S
C1358 C1359 1.388 . S
C1359 H1346 0.930 . S
C1359 C1358 1.388 . S
C1359 C1360 1.390 . S
C1360 C1359 1.390 . S
C1360 C1361 1.394 . S
C1360 C1366 1.465 . S
C1361 C1356 1.399 . S
C1361 C1360 1.394 . S
C1361 C1362 1.516 . S
C1362 C1361 1.516 . S
C1362 C1363 1.502 . S
C1362 C1364 1.561 . S
C1362 C1365 1.526 . S
C1363 H1347 0.959 . S
C1363 H1348 0.959 . S
C1363 H1349 0.961 . S
C1363 C1362 1.502 . S
C1364 H1350 0.960 . S
C1364 H1351 0.961 . S
C1364 H1352 0.959 . S
C1364 C1362 1.561 . S
C1365 C1362 1.526 . S
C1365 C1366 1.396 . S
C1365 C1370 1.390 . S
C1366 C1360 1.465 . S
C1366 C1365 1.396 . S
C1366 C1367 1.399 . S
C1367 H1353 0.929 . S
C1367 C1366 1.399 . S
C1367 C1368 1.385 . S
C1368 H1354 0.931 . S
C1368 C1367 1.385 . S
C1368 C1369 1.389 . S
C1369 C1368 1.389 . S
C1369 C1370 1.387 . S
C1370 H1355 0.930 . S
C1370 C1365 1.390 . S
C1370 C1369 1.387 . S
H1371 C1383 0.930 . S
H1372 C1385 0.930 . S
H1373 C1386 0.930 . S
H1374 C1390 0.959 . S
H1375 C1390 0.959 . S
H1376 C1390 0.961 . S
H1377 C1391 0.960 . S
H1378 C1391 0.961 . S
H1379 C1391 0.959 . S
H1380 C1394 0.929 . S
H1381 C1395 0.931 . S
H1382 C1397 0.930 . S
C1383 H1371 0.930 . S
C1383 C1384 1.399 . S
C1383 C1388 1.399 . S
C1384 C1383 1.399 . S
C1384 C1385 1.376 . S
C1385 H1372 0.930 . S
C1385 C1384 1.376 . S
C1385 C1386 1.388 . S
C1386 H1373 0.930 . S
C1386 C1385 1.388 . S
C1386 C1387 1.390 . S
C1387 C1386 1.390 . S
C1387 C1388 1.394 . S
C1387 C1393 1.465 . S
C1388 C1383 1.399 . S
C1388 C1387 1.394 . S
C1388 C1389 1.516 . S
C1389 C1388 1.516 . S
C1389 C1390 1.502 . S
C1389 C1391 1.561 . S
C1389 C1392 1.526 . S
C1390 H1374 0.959 . S
C1390 H1375 0.959 . S
C1390 H1376 0.961 . S
C1390 C1389 1.502 . S
C1391 H1377 0.960 . S
C1391 H1378 0.961 . S
C1391 H1379 0.959 . S
C1391 C1389 1.561 . S
C1392 C1389 1.526 . S
C1392 C1393 1.396 . S
C1392 C1397 1.390 . S
C1393 C1387 1.465 . S
C1393 C1392 1.396 . S
C1393 C1394 1.399 . S
C1394 H1380 0.929 . S
C1394 C1393 1.399 . S
C1394 C1395 1.385 . S
C1395 H1381 0.931 . S
C1395 C1394 1.385 . S
C1395 C1396 1.389 . S
C1396 C1395 1.389 . S
C1396 C1397 1.387 . S
C1397 H1382 0.930 . S
C1397 C1392 1.390 . S
C1397 C1396 1.387 . S
H1398 C1410 0.930 . S
H1399 C1412 0.930 . S
H1400 C1413 0.930 . S
H1401 C1417 0.959 . S
H1402 C1417 0.959 . S
H1403 C1417 0.961 . S
H1404 C1418 0.960 . S
H1405 C1418 0.961 . S
H1406 C1418 0.959 . S
H1407 C1421 0.929 . S
H1408 C1422 0.931 . S
H1409 C1424 0.930 . S
C1410 H1398 0.930 . S
C1410 C1411 1.399 . S
C1410 C1415 1.399 . S
C1411 C1410 1.399 . S
C1411 C1412 1.376 . S
C1412 H1399 0.930 . S
C1412 C1411 1.376 . S
C1412 C1413 1.388 . S
C1413 H1400 0.930 . S
C1413 C1412 1.388 . S
C1413 C1414 1.390 . S
C1414 C1413 1.390 . S
C1414 C1415 1.394 . S
C1414 C1420 1.465 . S
C1415 C1410 1.399 . S
C1415 C1414 1.394 . S
C1415 C1416 1.516 . S
C1416 C1415 1.516 . S
C1416 C1417 1.502 . S
C1416 C1418 1.561 . S
C1416 C1419 1.526 . S
C1417 H1401 0.959 . S
C1417 H1402 0.959 . S
C1417 H1403 0.961 . S
C1417 C1416 1.502 . S
C1418 H1404 0.960 . S
C1418 H1405 0.961 . S
C1418 H1406 0.959 . S
C1418 C1416 1.561 . S
C1419 C1416 1.526 . S
C1419 C1420 1.396 . S
C1419 C1424 1.390 . S
C1420 C1414 1.465 . S
C1420 C1419 1.396 . S
C1420 C1421 1.399 . S
C1421 H1407 0.929 . S
C1421 C1420 1.399 . S
C1421 C1422 1.385 . S
C1422 H1408 0.931 . S
C1422 C1421 1.385 . S
C1422 C1423 1.389 . S
C1423 C1422 1.389 . S
C1423 C1424 1.387 . S
C1424 H1409 0.930 . S
C1424 C1419 1.390 . S
C1424 C1423 1.387 . S
H1425 C1437 0.930 . S
H1426 C1439 0.930 . S
H1427 C1440 0.930 . S
H1428 C1444 0.959 . S
H1429 C1444 0.959 . S
H1430 C1444 0.961 . S
H1431 C1445 0.960 . S
H1432 C1445 0.961 . S
H1433 C1445 0.959 . S
H1434 C1448 0.929 . S
H1435 C1449 0.931 . S
H1436 C1451 0.930 . S
C1437 H1425 0.930 . S
C1437 C1438 1.399 . S
C1437 C1442 1.399 . S
C1438 C1437 1.399 . S
C1438 C1439 1.376 . S
C1439 H1426 0.930 . S
C1439 C1438 1.376 . S
C1439 C1440 1.388 . S
C1440 H1427 0.930 . S
C1440 C1439 1.388 . S
C1440 C1441 1.390 . S
C1441 C1440 1.390 . S
C1441 C1442 1.394 . S
C1441 C1447 1.465 . S
C1442 C1437 1.399 . S
C1442 C1441 1.394 . S
C1442 C1443 1.516 . S
C1443 C1442 1.516 . S
C1443 C1444 1.502 . S
C1443 C1445 1.561 . S
C1443 C1446 1.526 . S
C1444 H1428 0.959 . S
C1444 H1429 0.959 . S
C1444 H1430 0.961 . S
C1444 C1443 1.502 . S
C1445 H1431 0.960 . S
C1445 H1432 0.961 . S
C1445 H1433 0.959 . S
C1445 C1443 1.561 . S
C1446 C1443 1.526 . S
C1446 C1447 1.396 . S
C1446 C1451 1.390 . S
C1447 C1441 1.465 . S
C1447 C1446 1.396 . S
C1447 C1448 1.399 . S
C1448 H1434 0.929 . S
C1448 C1447 1.399 . S
C1448 C1449 1.385 . S
C1449 H1435 0.931 . S
C1449 C1448 1.385 . S
C1449 C1450 1.389 . S
C1450 C1449 1.389 . S
C1450 C1451 1.387 . S
C1451 H1436 0.930 . S
C1451 C1446 1.390 . S
C1451 C1450 1.387 . S
H1452 C1464 0.930 . S
H1453 C1466 0.930 . S
H1454 C1467 0.930 . S
H1455 C1471 0.959 . S
H1456 C1471 0.959 . S
H1457 C1471 0.961 . S
H1458 C1472 0.960 . S
H1459 C1472 0.961 . S
H1460 C1472 0.959 . S
H1461 C1475 0.929 . S
H1462 C1476 0.931 . S
H1463 C1478 0.930 . S
C1464 H1452 0.930 . S
C1464 C1465 1.399 . S
C1464 C1469 1.399 . S
C1465 C1464 1.399 . S
C1465 C1466 1.376 . S
C1466 H1453 0.930 . S
C1466 C1465 1.376 . S
C1466 C1467 1.388 . S
C1467 H1454 0.930 . S
C1467 C1466 1.388 . S
C1467 C1468 1.390 . S
C1468 C1467 1.390 . S
C1468 C1469 1.394 . S
C1468 C1474 1.465 . S
C1469 C1464 1.399 . S
C1469 C1468 1.394 . S
C1469 C1470 1.516 . S
C1470 C1469 1.516 . S
C1470 C1471 1.502 . S
C1470 C1472 1.561 . S
C1470 C1473 1.526 . S
C1471 H1455 0.959 . S
C1471 H1456 0.959 . S
C1471 H1457 0.961 . S
C1471 C1470 1.502 . S
C1472 H1458 0.960 . S
C1472 H1459 0.961 . S
C1472 H1460 0.959 . S
C1472 C1470 1.561 . S
C1473 C1470 1.526 . S
C1473 C1474 1.396 . S
C1473 C1478 1.390 . S
C1474 C1468 1.465 . S
C1474 C1473 1.396 . S
C1474 C1475 1.399 . S
C1475 H1461 0.929 . S
C1475 C1474 1.399 . S
C1475 C1476 1.385 . S
C1476 H1462 0.931 . S
C1476 C1475 1.385 . S
C1476 C1477 1.389 . S
C1477 C1476 1.389 . S
C1477 C1478 1.387 . S
C1478 H1463 0.930 . S
C1478 C1473 1.390 . S
C1478 C1477 1.387 . S
H1479 C1491 0.930 . S
H1480 C1493 0.930 . S
H1481 C1494 0.930 . S
H1482 C1498 0.959 . S
H1483 C1498 0.959 . S
H1484 C1498 0.961 . S
H1485 C1499 0.960 . S
H1486 C1499 0.961 . S
H1487 C1499 0.959 . S
H1488 C1502 0.929 . S
H1489 C1503 0.931 . S
H1490 C1505 0.930 . S
C1491 H1479 0.930 . S
C1491 C1492 1.399 . S
C1491 C1496 1.399 . S
C1492 C1491 1.399 . S
C1492 C1493 1.376 . S
C1493 H1480 0.930 . S
C1493 C1492 1.376 . S
C1493 C1494 1.388 . S
C1494 H1481 0.930 . S
C1494 C1493 1.388 . S
C1494 C1495 1.390 . S
C1495 C1494 1.390 . S
C1495 C1496 1.394 . S
C1495 C1501 1.465 . S
C1496 C1491 1.399 . S
C1496 C1495 1.394 . S
C1496 C1497 1.516 . S
C1497 C1496 1.516 . S
C1497 C1498 1.502 . S
C1497 C1499 1.561 . S
C1497 C1500 1.526 . S
C1498 H1482 0.959 . S
C1498 H1483 0.959 . S
C1498 H1484 0.961 . S
C1498 C1497 1.502 . S
C1499 H1485 0.960 . S
C1499 H1486 0.961 . S
C1499 H1487 0.959 . S
C1499 C1497 1.561 . S
C1500 C1497 1.526 . S
C1500 C1501 1.396 . S
C1500 C1505 1.390 . S
C1501 C1495 1.465 . S
C1501 C1500 1.396 . S
C1501 C1502 1.399 . S
C1502 H1488 0.929 . S
C1502 C1501 1.399 . S
C1502 C1503 1.385 . S
C1503 H1489 0.931 . S
C1503 C1502 1.385 . S
C1503 C1504 1.389 . S
C1504 C1503 1.389 . S
C1504 C1505 1.387 . S
C1505 H1490 0.930 . S
C1505 C1500 1.390 . S
C1505 C1504 1.387 . S
H1506 C1518 0.930 . S
H1507 C1520 0.930 . S
H1508 C1521 0.930 . S
H1509 C1525 0.959 . S
H1510 C1525 0.959 . S
H1511 C1525 0.961 . S
H1512 C1526 0.960 . S
H1513 C1526 0.961 . S
H1514 C1526 0.959 . S
H1515 C1529 0.929 . S
H1516 C1530 0.931 . S
H1517 C1532 0.930 . S
C1518 H1506 0.930 . S
C1518 C1519 1.399 . S
C1518 C1523 1.399 . S
C1519 C1518 1.399 . S
C1519 C1520 1.376 . S
C1520 H1507 0.930 . S
C1520 C1519 1.376 . S
C1520 C1521 1.388 . S
C1521 H1508 0.930 . S
C1521 C1520 1.388 . S
C1521 C1522 1.390 . S
C1522 C1521 1.390 . S
C1522 C1523 1.394 . S
C1522 C1528 1.465 . S
C1523 C1518 1.399 . S
C1523 C1522 1.394 . S
C1523 C1524 1.516 . S
C1524 C1523 1.516 . S
C1524 C1525 1.502 . S
C1524 C1526 1.561 . S
C1524 C1527 1.526 . S
C1525 H1509 0.959 . S
C1525 H1510 0.959 . S
C1525 H1511 0.961 . S
C1525 C1524 1.502 . S
C1526 H1512 0.960 . S
C1526 H1513 0.961 . S
C1526 H1514 0.959 . S
C1526 C1524 1.561 . S
C1527 C1524 1.526 . S
C1527 C1528 1.396 . S
C1527 C1532 1.390 . S
C1528 C1522 1.465 . S
C1528 C1527 1.396 . S
C1528 C1529 1.399 . S
C1529 H1515 0.929 . S
C1529 C1528 1.399 . S
C1529 C1530 1.385 . S
C1530 H1516 0.931 . S
C1530 C1529 1.385 . S
C1530 C1531 1.389 . S
C1531 C1530 1.389 . S
C1531 C1532 1.387 . S
C1532 H1517 0.930 . S
C1532 C1527 1.390 . S
C1532 C1531 1.387 . S
H1533 C1545 0.930 . S
H1534 C1547 0.930 . S
H1535 C1548 0.930 . S
H1536 C1552 0.959 . S
H1537 C1552 0.959 . S
H1538 C1552 0.961 . S
H1539 C1553 0.960 . S
H1540 C1553 0.961 . S
H1541 C1553 0.959 . S
H1542 C1556 0.929 . S
H1543 C1557 0.931 . S
H1544 C1559 0.930 . S
C1545 H1533 0.930 . S
C1545 C1546 1.399 . S
C1545 C1550 1.399 . S
C1546 C1545 1.399 . S
C1546 C1547 1.376 . S
C1547 H1534 0.930 . S
C1547 C1546 1.376 . S
C1547 C1548 1.388 . S
C1548 H1535 0.930 . S
C1548 C1547 1.388 . S
C1548 C1549 1.390 . S
C1549 C1548 1.390 . S
C1549 C1550 1.394 . S
C1549 C1555 1.465 . S
C1550 C1545 1.399 . S
C1550 C1549 1.394 . S
C1550 C1551 1.516 . S
C1551 C1550 1.516 . S
C1551 C1552 1.502 . S
C1551 C1553 1.561 . S
C1551 C1554 1.526 . S
C1552 H1536 0.959 . S
C1552 H1537 0.959 . S
C1552 H1538 0.961 . S
C1552 C1551 1.502 . S
C1553 H1539 0.960 . S
C1553 H1540 0.961 . S
C1553 H1541 0.959 . S
C1553 C1551 1.561 . S
C1554 C1551 1.526 . S
C1554 C1555 1.396 . S
C1554 C1559 1.390 . S
C1555 C1549 1.465 . S
C1555 C1554 1.396 . S
C1555 C1556 1.399 . S
C1556 H1542 0.929 . S
C1556 C1555 1.399 . S
C1556 C1557 1.385 . S
C1557 H1543 0.931 . S
C1557 C1556 1.385 . S
C1557 C1558 1.389 . S
C1558 C1557 1.389 . S
C1558 C1559 1.387 . S
C1559 H1544 0.930 . S
C1559 C1554 1.390 . S
C1559 C1558 1.387 . S
C925 C31 1.526 1_455 S
C937 C341 1.408 . S
C952 C73 1.696 . S
C964 C612 1.593 . S
C979 C98 1.677 . S
C991 C243 1.593 . S
C1006 C542 1.521 1_565 S
C1018 C1 1.403 . S
C1033 C113 1.507 1_655 S
C1045 C259 1.447 1_455 S
C1060 C156 1.640 . S
C1072 C529 1.624 . S
C1087 C326 1.593 . S
C1099 C15 1.694 . S
C1114 C457 1.406 . S
C1126 C86 1.527 1_565 S
C1141 C827 1.418 . S
C1153 C58 1.519 1_554 S
C1168 C810 1.651 . S
C1180 C45 1.647 . S
C1195 C729 1.693 . S
C1207 C126 1.583 . S
C1222 C143 1.514 1_556 S
C1234 C742 1.415 . S
C1249 C840 1.606 . S
C1261 C301 1.664 . S
C1276 C229 1.425 . S
C1288 C770 1.519 . S
C1303 C384 1.635 . S
C1315 C757 1.623 . S
C1330 C685 1.484 . S
C1342 C314 1.469 . S
C1357 C599 1.520 . S
C1369 C286 1.408 . S
C1384 C273 1.582 . S
C1396 C582 1.691 . S
C1411 C354 1.697 . S
C1423 C501 1.596 . S
C1438 C514 1.417 . S
C1450 C371 1.523 . S
C1465 C797 1.408 . S
C1477 C487 1.516 . S
C1492 C554 1.590 . S
C1504 C699 1.683 . S
C1519 C715 1.505 . S
C1531 C569 1.445 . S
C1546 C471 1.631 . S
C1558 C782 1.661 . S
