# Generated by pormake.
# Topology rac, (4)-cn, num edge types: 1
# Building blocks:
#     Node 0, Type 0, BuildingBlock: KUFVIS_clean_sbu_0, # of connection points: 4
#     Node 1, Type 0, BuildingBlock: KUFVIS_clean_sbu_0, # of connection points: 4
#     Node 2, Type 0, BuildingBlock: KUFVIS_clean_sbu_0, # of connection points: 4
#     Node 3, Type 0, BuildingBlock: KUFVIS_clean_sbu_0, # of connection points: 4
#     Node 4, Type 0, BuildingBlock: KUFVIS_clean_sbu_0, # of connection points: 4
#     Node 5, Type 0, BuildingBlock: KUFVIS_clean_sbu_0, # of connection points: 4
#     Node 6, Type 0, BuildingBlock: KUFVIS_clean_sbu_0, # of connection points: 4
#     Node 7, Type 0, BuildingBlock: KUFVIS_clean_sbu_0, # of connection points: 4
#     Edge 8, Type (0, 0), BuildingBlock: EZIPEK_clean_linker_0, # of connection points: 2
#     Edge 9, Type (0, 0), BuildingBlock: EZIPEK_clean_linker_0, # of connection points: 2
#     Edge 10, Type (0, 0), BuildingBlock: EZIPEK_clean_linker_0, # of connection points: 2
#     Edge 11, Type (0, 0), BuildingBlock: EZIPEK_clean_linker_0, # of connection points: 2
#     Edge 12, Type (0, 0), BuildingBlock: EZIPEK_clean_linker_0, # of connection points: 2
#     Edge 13, Type (0, 0), BuildingBlock: EZIPEK_clean_linker_0, # of connection points: 2
#     Edge 14, Type (0, 0), BuildingBlock: EZIPEK_clean_linker_0, # of connection points: 2
#     Edge 15, Type (0, 0), BuildingBlock: EZIPEK_clean_linker_0, # of connection points: 2
#     Edge 16, Type (0, 0), BuildingBlock: EZIPEK_clean_linker_0, # of connection points: 2
#     Edge 17, Type (0, 0), BuildingBlock: EZIPEK_clean_linker_0, # of connection points: 2
#     Edge 18, Type (0, 0), BuildingBlock: EZIPEK_clean_linker_0, # of connection points: 2
#     Edge 19, Type (0, 0), BuildingBlock: EZIPEK_clean_linker_0, # of connection points: 2
#     Edge 20, Type (0, 0), BuildingBlock: EZIPEK_clean_linker_0, # of connection points: 2
#     Edge 21, Type (0, 0), BuildingBlock: EZIPEK_clean_linker_0, # of connection points: 2
#     Edge 22, Type (0, 0), BuildingBlock: EZIPEK_clean_linker_0, # of connection points: 2
#     Edge 23, Type (0, 0), BuildingBlock: EZIPEK_clean_linker_0, # of connection points: 2
# Relax obj value: 0.198
# Max RMSD: 0.074
# Mean RMSD: 0.074
data_MOF--net-rac--node1-KUFVIS_clean_sbu_0--edge1-EZIPEK_clean_linker_0
_symmetry_space_group_name_H-M    P1
_symmetry_Int_Tables_number       1
_symmetry_cell_setting            triclinic
loop_
_symmetry_equiv_pos_as_xyz
'x, y, z'
_cell_length_a     29.577437
_cell_length_b     16.155108
_cell_length_c     26.647753
_cell_angle_alpha  89.750917
_cell_angle_beta   89.80334
_cell_angle_gamma 90.086364
loop_
_atom_site_label
_atom_site_type_symbol
_atom_site_fract_x
_atom_site_fract_y
_atom_site_fract_z
_atom_type_partial_charge
Mn0 Mn 0.3882 0.28497 0.05096 0.0
Mn1 Mn 0.29472 0.24267 0.12218 0.0
C2 C 0.32049 0.34879 0.03343 0.0
C3 C 0.45016 0.37721 0.03456 0.0
C4 C 0.33077 0.12583 0.04346 0.0
O5 O 0.41511 0.24093 0.11638 0.0
O6 O 0.35056 0.22122 0.16112 0.0
C7 C 0.29722 0.34891 0.21214 0.0
N8 N 0.2766 0.32624 0.1686 0.0
C9 C 0.20686 0.38949 0.19509 0.0
C10 C 0.22792 0.41588 0.23925 0.0
C11 C 0.27335 0.39546 0.24776 0.0
C12 C 0.23259 0.34459 0.16048 0.0
H13 H 0.33129 0.33034 0.22022 0.0
C14 C 0.39373 0.22564 0.15728 0.0
O15 O 0.44964 0.302 0.01717 0.0
O16 O 0.41679 0.39614 0.06341 0.0
N17 N 0.23949 0.26589 0.08809 0.0
C18 C 0.22431 0.23656 0.04335 0.0
C19 C 0.1803 0.25573 0.02768 0.0
C20 C 0.15208 0.30332 0.0587 0.0
C21 C 0.16857 0.33279 0.10456 0.0
C22 C 0.21334 0.31444 0.11718 0.0
H23 H 0.24564 0.19898 0.01985 0.0
O24 O 0.35091 0.33919 0.99875 0.0
O25 O 0.3293 0.31506 0.07666 0.0
O26 O 0.36568 0.16636 0.02781 0.0
O27 O 0.30586 0.15052 0.0789 0.0
C28 C 0.14213 0.37822 0.13872 0.0
C29 C 0.16104 0.40472 0.18444 0.0
H30 H 0.20943 0.45107 0.26708 0.0
H31 H 0.28973 0.41411 0.28215 0.0
H32 H 0.16792 0.23279 0.99219 0.0
H33 H 0.1178 0.31662 0.04702 0.0
H34 H 0.10709 0.39209 0.13056 0.0
H35 H 0.14014 0.43661 0.21125 0.0
Mn36 Mn 0.14515 0.72137 0.05048 0.0
Mn37 Mn 0.24157 0.73873 0.11999 0.0
C38 C 0.20927 0.64031 0.03225 0.0
C39 C 0.0795 0.63799 0.0348 0.0
C40 C 0.20475 0.86765 0.0478 0.0
O41 O 0.12274 0.76369 0.11924 0.0
O42 O 0.18784 0.75039 0.16436 0.0
C43 C 0.25487 0.6377 0.2109 0.0
N44 N 0.26891 0.66015 0.16401 0.0
C45 C 0.34484 0.61388 0.18147 0.0
C46 C 0.33075 0.5886 0.22941 0.0
C47 C 0.28564 0.60093 0.24422 0.0
C48 C 0.31275 0.65084 0.15 0.0
H49 H 0.2208 0.65022 0.22342 0.0
C50 C 0.14474 0.75943 0.16092 0.0
O51 O 0.0827 0.71342 0.01801 0.0
O52 O 0.11218 0.6141 0.06294 0.0
N53 N 0.29358 0.72408 0.07809 0.0
C54 C 0.30161 0.75186 0.03046 0.0
C55 C 0.34411 0.73891 0.0084 0.0
C56 C 0.3781 0.69846 0.03572 0.0
C57 C 0.36878 0.66951 0.08437 0.0
C58 C 0.32521 0.68163 0.10365 0.0
H59 H 0.27575 0.78295 0.00913 0.0
O60 O 0.18009 0.66025 0.99796 0.0
O61 O 0.20293 0.67371 0.07562 0.0
O62 O 0.16951 0.84285 0.02507 0.0
O63 O 0.21952 0.81574 0.07683 0.0
C64 C 0.40111 0.62981 0.11467 0.0
C65 C 0.3894 0.60365 0.16359 0.0
H66 H 0.35429 0.5601 0.25523 0.0
H67 H 0.27478 0.58326 0.28159 0.0
H68 H 0.35077 0.76074 0.97064 0.0
H69 H 0.41115 0.68971 0.01894 0.0
H70 H 0.43525 0.62029 0.10103 0.0
H71 H 0.41492 0.57557 0.18708 0.0
Mn72 Mn 0.38509 0.20827 0.4661 0.0
Mn73 Mn 0.29205 0.22536 0.39216 0.0
C74 C 0.32117 0.1309 0.48384 0.0
C75 C 0.45056 0.12538 0.48309 0.0
C76 C 0.32193 0.35785 0.46536 0.0
O77 O 0.41066 0.25343 0.39992 0.0
O78 O 0.34742 0.24552 0.35205 0.0
C79 C 0.29289 0.11665 0.30414 0.0
N80 N 0.27346 0.13841 0.34864 0.0
C81 C 0.20086 0.0874 0.32116 0.0
C82 C 0.22046 0.06351 0.27557 0.0
C83 C 0.2666 0.07863 0.26697 0.0
C84 C 0.22859 0.12608 0.3566 0.0
H85 H 0.32774 0.13147 0.29611 0.0
C86 C 0.39021 0.2543 0.35757 0.0
O87 O 0.44682 0.20013 0.50069 0.0
O88 O 0.41842 0.10189 0.4543 0.0
N89 N 0.23778 0.20358 0.42881 0.0
C90 C 0.22384 0.23372 0.47398 0.0
C91 C 0.1796 0.21752 0.49057 0.0
C92 C 0.14994 0.17255 0.45991 0.0
C93 C 0.1653 0.14214 0.41368 0.0
C94 C 0.2104 0.15679 0.40039 0.0
H95 H 0.24621 0.27006 0.49704 0.0
O96 O 0.34999 0.14886 0.5187 0.0
O97 O 0.32882 0.16387 0.44024 0.0
O98 O 0.35625 0.32521 0.48757 0.0
O99 O 0.30226 0.3194 0.4312 0.0
C100 C 0.13737 0.09988 0.37966 0.0
C101 C 0.15488 0.07454 0.33291 0.0
H102 H 0.20037 0.03407 0.24678 0.0
H103 H 0.28171 0.06242 0.23131 0.0
H104 H 0.1681 0.24117 0.52633 0.0
H105 H 0.11537 0.16237 0.472 0.0
H106 H 0.10213 0.08848 0.38851 0.0
H107 H 0.13263 0.04544 0.30625 0.0
Mn108 Mn 0.1435 0.77499 0.46782 0.0
Mn109 Mn 0.23748 0.73154 0.39778 0.0
C110 C 0.21096 0.83906 0.48474 0.0
C111 C 0.08194 0.86634 0.48368 0.0
C112 C 0.20216 0.61962 0.48014 0.0
O113 O 0.1165 0.73116 0.40287 0.0
O114 O 0.18118 0.70556 0.35979 0.0
C115 C 0.23426 0.827 0.30308 0.0
N116 N 0.25504 0.81023 0.34757 0.0
C117 C 0.32436 0.87236 0.31782 0.0
C118 C 0.30326 0.89135 0.27228 0.0
C119 C 0.25797 0.86864 0.26493 0.0
C120 C 0.29908 0.83026 0.35446 0.0
H121 H 0.2003 0.80674 0.29598 0.0
C122 C 0.13801 0.71378 0.36255 0.0
O123 O 0.08249 0.79136 0.50178 0.0
O124 O 0.11515 0.88577 0.4545 0.0
N125 N 0.293 0.75918 0.4302 0.0
C126 C 0.30877 0.73446 0.47585 0.0
C127 C 0.35283 0.75613 0.49016 0.0
C128 C 0.38052 0.80133 0.45697 0.0
C129 C 0.36353 0.82581 0.41016 0.0
C130 C 0.31876 0.80505 0.39877 0.0
H131 H 0.28788 0.69858 0.50115 0.0
O132 O 0.18065 0.82894 0.51952 0.0
O133 O 0.2024 0.80548 0.44151 0.0
O134 O 0.16529 0.65673 0.49232 0.0
O135 O 0.22755 0.64488 0.44521 0.0
C136 C 0.38932 0.86946 0.3742 0.0
C137 C 0.36991 0.8917 0.32778 0.0
H138 H 0.32166 0.92266 0.24253 0.0
H139 H 0.24151 0.88188 0.22964 0.0
H140 H 0.36565 0.737 0.52638 0.0
H141 H 0.41477 0.81678 0.46778 0.0
H142 H 0.42416 0.88587 0.38174 0.0
H143 H 0.3902 0.92396 0.30006 0.0
Mn144 Mn 0.64396 0.72223 0.95964 0.0
Mn145 Mn 0.73535 0.73779 0.88199 0.0
C146 C 0.7085 0.6472 0.97672 0.0
C147 C 0.57853 0.64068 0.98078 0.0
C148 C 0.70956 0.87049 0.95719 0.0
O149 O 0.61641 0.76424 0.8938 0.0
O150 O 0.67898 0.76124 0.84463 0.0
C151 C 0.72661 0.62495 0.79617 0.0
N152 N 0.74944 0.64875 0.83798 0.0
C153 C 0.81736 0.58261 0.8083 0.0
C154 C 0.79411 0.55621 0.7656 0.0
C155 C 0.74835 0.57688 0.75983 0.0
C156 C 0.79368 0.62963 0.84367 0.0
H157 H 0.69246 0.6442 0.78984 0.0
C158 C 0.63616 0.76707 0.85096 0.0
O159 O 0.58295 0.71652 0.99644 0.0
O160 O 0.60999 0.61546 0.95133 0.0
N161 N 0.79108 0.71239 0.9146 0.0
C162 C 0.80862 0.74338 0.95786 0.0
C163 C 0.85308 0.72312 0.97141 0.0
C164 C 0.87933 0.67297 0.93975 0.0
C165 C 0.86044 0.64197 0.89543 0.0
C166 C 0.81531 0.66132 0.8851 0.0
H167 H 0.7889 0.78332 0.98177 0.0
O168 O 0.68013 0.66597 0.01205 0.0
O169 O 0.69969 0.67724 0.93249 0.0
O170 O 0.67416 0.83906 0.97842 0.0
O171 O 0.72892 0.8331 0.92203 0.0
C172 C 0.88471 0.59357 0.86076 0.0
C173 C 0.86335 0.56526 0.81678 0.0
H174 H 0.81117 0.52059 0.73689 0.0
H175 H 0.72985 0.55718 0.72712 0.0
H176 H 0.86734 0.74731 1.00571 0.0
H177 H 0.91395 0.65885 0.94975 0.0
H178 H 0.91985 0.57828 0.86734 0.0
H179 H 0.88236 0.52952 0.78992 0.0
Mn180 Mn 0.88643 0.28823 0.96752 0.0
Mn181 Mn 0.79162 0.24312 0.89957 0.0
C182 C 0.81945 0.35586 0.98304 0.0
C183 C 0.94917 0.37811 0.98292 0.0
C184 C 0.82639 0.13408 0.98294 0.0
O185 O 0.91277 0.24095 0.90289 0.0
O186 O 0.84751 0.21276 0.86169 0.0
C187 C 0.79515 0.32944 0.80188 0.0
N188 N 0.77451 0.31812 0.84726 0.0
C189 C 0.7037 0.3675 0.81383 0.0
C190 C 0.72452 0.37996 0.76716 0.0
C191 C 0.77043 0.36075 0.76118 0.0
C192 C 0.72992 0.33491 0.85293 0.0
H193 H 0.82969 0.31147 0.79594 0.0
C194 C 0.89071 0.22135 0.86338 0.0
O195 O 0.94757 0.30339 1.00128 0.0
O196 O 0.91645 0.39792 0.95339 0.0
N197 N 0.7366 0.27469 0.93182 0.0
C198 C 0.72128 0.25608 0.97881 0.0
C199 C 0.67717 0.27874 0.99262 0.0
C200 C 0.64896 0.31797 0.95749 0.0
C201 C 0.66552 0.3358 0.90926 0.0
C202 C 0.71047 0.31534 0.89854 0.0
H203 H 0.74259 0.22427 1.00545 0.0
O204 O 0.84938 0.34633 0.01811 0.0
O205 O 0.82772 0.31889 0.94084 0.0
O206 O 0.86379 0.17089 0.9933 0.0
O207 O 0.80037 0.15878 0.94876 0.0
C208 C 0.63908 0.37197 0.87117 0.0
C209 C 0.65788 0.38605 0.82315 0.0
H210 H 0.70553 0.40393 0.73561 0.0
H211 H 0.7866 0.36883 0.72498 0.0
H212 H 0.66467 0.26464 0.0299 0.0
H213 H 0.61459 0.3337 0.96787 0.0
H214 H 0.60407 0.38793 0.87816 0.0
H215 H 0.63695 0.41187 0.79377 0.0
Mn216 Mn 0.6408 0.76779 0.54387 0.0
Mn217 Mn 0.73307 0.73715 0.61844 0.0
C218 C 0.70745 0.84638 0.53092 0.0
C219 C 0.57781 0.85883 0.52916 0.0
C220 C 0.69715 0.62386 0.54049 0.0
O221 O 0.61482 0.72091 0.61053 0.0
O222 O 0.67762 0.72927 0.6602 0.0
C223 C 0.74856 0.8232 0.71424 0.0
N224 N 0.76299 0.80386 0.66706 0.0
C225 C 0.83716 0.85802 0.68394 0.0
C226 C 0.82266 0.88087 0.73207 0.0
C227 C 0.77826 0.86278 0.74741 0.0
C228 C 0.80615 0.81806 0.65264 0.0
H229 H 0.71475 0.808 0.72666 0.0
C230 C 0.63463 0.72266 0.65369 0.0
O231 O 0.57991 0.78598 0.5089 0.0
O232 O 0.61014 0.87627 0.55927 0.0
N233 N 0.78695 0.75054 0.57858 0.0
C234 C 0.79507 0.72952 0.52983 0.0
C235 C 0.83756 0.74559 0.50836 0.0
C236 C 0.87124 0.78424 0.53687 0.0
C237 C 0.86175 0.80819 0.58623 0.0
C238 C 0.81858 0.79125 0.60552 0.0
H239 H 0.76912 0.70271 0.50682 0.0
O240 O 0.679 0.83093 0.49516 0.0
O241 O 0.69865 0.81104 0.57361 0.0
O242 O 0.66368 0.64617 0.51436 0.0
O243 O 0.70347 0.67854 0.57096 0.0
C244 C 0.89335 0.84907 0.61684 0.0
C245 C 0.88126 0.87287 0.66592 0.0
H246 H 0.84542 0.91165 0.75771 0.0
H247 H 0.76702 0.87888 0.7848 0.0
H248 H 0.84423 0.72873 0.46978 0.0
H249 H 0.90403 0.79645 0.52025 0.0
H250 H 0.92708 0.86246 0.60301 0.0
H251 H 0.90604 0.90303 0.68937 0.0
Mn252 Mn 0.88495 0.20698 0.55228 0.0
Mn253 Mn 0.79079 0.23844 0.6236 0.0
C254 C 0.81871 0.13901 0.53384 0.0
C255 C 0.94848 0.12064 0.53456 0.0
C256 C 0.82563 0.36397 0.54793 0.0
O257 O 0.91091 0.24781 0.61885 0.0
O258 O 0.84604 0.25784 0.66419 0.0
C259 C 0.79308 0.12307 0.70988 0.0
N260 N 0.77288 0.14923 0.66674 0.0
C261 C 0.7027 0.08409 0.69109 0.0
C262 C 0.72315 0.05556 0.73527 0.0
C263 C 0.76863 0.07487 0.74452 0.0
C264 C 0.72892 0.13139 0.65773 0.0
H265 H 0.82713 0.14095 0.71868 0.0
C266 C 0.88931 0.25653 0.66028 0.0
O267 O 0.94667 0.19667 0.51835 0.0
O268 O 0.91544 0.09736 0.56275 0.0
N269 N 0.73644 0.21588 0.58752 0.0
C270 C 0.72214 0.24695 0.54273 0.0
C271 C 0.679 0.22594 0.525 0.0
C272 C 0.65073 0.17457 0.55402 0.0
C273 C 0.66631 0.1433 0.59998 0.0
C274 C 0.71031 0.16374 0.61462 0.0
H275 H 0.74357 0.287 0.52068 0.0
O276 O 0.84859 0.15333 0.49911 0.0
O277 O 0.82676 0.17152 0.57728 0.0
O278 O 0.86041 0.3251 0.5309 0.0
O279 O 0.80138 0.3364 0.58344 0.0
C280 C 0.63984 0.09333 0.63206 0.0
C281 C 0.65774 0.06537 0.6781 0.0
H282 H 0.70438 0.0183 0.7621 0.0
H283 H 0.78461 0.054 0.77875 0.0
H284 H 0.66737 0.25013 0.48939 0.0
H285 H 0.61714 0.1596 0.5407 0.0
H286 H 0.60554 0.07686 0.62199 0.0
H287 H 0.63698 0.02825 0.70284 0.0
C288 C 0.28194 0.03903 0.98714 0.0
C289 C 0.31583 0.04294 0.02503 0.0
C290 C 0.27071 0.95112 0.0765 0.0
C291 C 0.23748 0.93909 0.03813 0.0
N292 N 0.21879 0.96258 0.95094 0.0
N293 N 0.34999 0.97232 0.09408 0.0
C294 C 0.24532 0.9798 0.99122 0.0
C295 C 0.3134 0.98467 0.06407 0.0
N296 N 0.28365 0.09482 0.94873 0.0
N297 N 0.26066 0.93527 0.12572 0.0
H298 H 0.38083 0.00164 0.08659 0.0
H299 H 0.35016 0.92804 0.12273 0.0
H300 H 0.2279 0.92121 0.13781 0.0
H301 H 0.28335 0.94709 0.1547 0.0
H302 H 0.25769 0.10208 0.92276 0.0
H303 H 0.31067 0.13615 0.94494 0.0
H304 H 0.22584 0.98493 0.91502 0.0
H305 H 0.19137 0.92225 0.953 0.0
C306 C 0.25054 0.52731 0.53435 0.0
C307 C 0.21606 0.53533 0.49707 0.0
C308 C 0.26275 0.45838 0.44098 0.0
C309 C 0.29466 0.435 0.47862 0.0
N310 N 0.31368 0.44518 0.56657 0.0
N311 N 0.18316 0.47311 0.42447 0.0
C312 C 0.28696 0.46817 0.52751 0.0
C313 C 0.21914 0.48274 0.45562 0.0
N314 N 0.24959 0.57885 0.57458 0.0
N315 N 0.2743 0.45803 0.39135 0.0
H316 H 0.1515 0.49762 0.43354 0.0
H317 H 0.18487 0.43594 0.39255 0.0
H318 H 0.30739 0.44619 0.37956 0.0
H319 H 0.25211 0.47789 0.3634 0.0
H320 H 0.27578 0.58228 0.60056 0.0
H321 H 0.22295 0.62036 0.5799 0.0
H322 H 0.30695 0.46268 0.60345 0.0
H323 H 0.34141 0.40626 0.56196 0.0
C324 C 0.74111 0.97895 0.02294 0.0
C325 C 0.73801 0.94491 0.97359 0.0
C326 C 0.81511 -0.00473 0.95836 0.0
C327 C 0.81356 0.0489 0.99938 0.0
N328 N 0.77333 0.09096 0.07323 0.0
N329 N 0.76657 0.96767 0.88878 0.0
C330 C 0.77625 0.03927 0.03316 0.0
C331 C 0.77347 0.96756 0.93942 0.0
N332 N 0.71132 0.9558 0.05943 0.0
N333 N 0.85392 0.98742 0.93123 0.0
H334 H 0.73459 0.95781 0.87333 0.0
H335 H 0.79135 0.98727 0.86338 0.0
H336 H 0.88411 0.01438 0.94327 0.0
H337 H 0.85584 0.94929 0.89974 0.0
H338 H 0.71497 0.97361 0.09675 0.0
H339 H 0.68426 0.9162 0.05272 0.0
H340 H 0.74502 0.09381 0.09654 0.0
H341 H 0.79909 0.13333 0.08103 0.0
C342 C 0.76326 0.54468 0.57517 0.0
C343 C 0.73238 0.55535 0.53446 0.0
C344 C 0.77752 0.44975 0.48904 0.0
C345 C 0.80921 0.4463 0.52918 0.0
N346 N 0.84062 0.51738 0.59932 0.0
N347 N 0.71727 0.52593 0.44707 0.0
C348 C 0.8055 0.50589 0.5671 0.0
C349 C 0.74172 0.51073 0.48934 0.0
N350 N 0.75099 0.56459 0.62301 0.0
N351 N 0.7805 0.39227 0.45191 0.0
H352 H 0.6906 0.56776 0.44598 0.0
H353 H 0.72554 0.50084 0.41228 0.0
H354 H 0.80717 0.35001 0.45045 0.0
H355 H 0.75578 0.38436 0.42458 0.0
H356 H 0.77217 0.55412 0.6535 0.0
H357 H 0.7178 0.57901 0.63298 0.0
H358 H 0.84049 0.56357 0.62659 0.0
H359 H 0.87114 0.48569 0.59479 0.0
C360 C 0.42147 0.16112 0.2365 0.0
C361 C 0.41771 0.23223 0.20583 0.0
C362 C 0.41931 0.32178 0.2801 0.0
C363 C 0.41656 0.2504 0.31046 0.0
N364 N 0.43057 0.10487 0.32054 0.0
N365 N 0.42638 0.37993 0.19648 0.0
C366 C 0.42374 0.17092 0.28944 0.0
C367 C 0.42233 0.3125 0.22713 0.0
N368 N 0.41953 0.08466 0.21493 0.0
N369 N 0.41521 0.39776 0.30197 0.0
H370 H 0.42548 0.37539 0.15762 0.0
H371 H 0.43397 0.43898 0.20929 0.0
H372 H 0.41442 0.40471 0.34092 0.0
H373 H 0.41166 0.45299 0.28219 0.0
H374 H 0.41683 0.02957 0.2351 0.0
H375 H 0.41946 0.07715 0.17602 0.0
H376 H 0.43944 0.04615 0.30806 0.0
H377 H 0.43133 0.11137 0.35939 0.0
C378 C 0.10763 0.80282 0.29373 0.0
C379 C 0.11465 0.72175 0.31336 0.0
C380 C 0.11318 0.66808 0.22784 0.0
C381 C 0.11986 0.74952 0.20908 0.0
N382 N 0.11881 0.89592 0.22261 0.0
N383 N 0.11789 0.57551 0.29978 0.0
C384 C 0.11456 0.81762 0.24147 0.0
C385 C 0.11429 0.6536 0.28051 0.0
N386 N 0.09577 0.86551 0.32518 0.0
N387 N 0.10645 0.60477 0.19517 0.0
H388 H 0.11712 0.56413 0.33839 0.0
H389 H 0.12282 0.52322 0.27781 0.0
H390 H 0.1075 0.61369 0.1565 0.0
H391 H 0.09439 0.54712 0.20653 0.0
H392 H 0.08661 0.92418 0.31259 0.0
H393 H 0.0897 0.85569 0.36322 0.0
H394 H 0.12028 0.94853 0.24485 0.0
H395 H 0.12241 0.90747 0.18421 0.0
C396 C 0.60284 0.82351 0.77188 0.0
C397 C 0.6094 0.7557 0.80449 0.0
C398 C 0.60739 0.65967 0.73343 0.0
C399 C 0.60769 0.72827 0.70055 0.0
N400 N 0.58793 0.87053 0.68679 0.0
N401 N 0.60168 0.60923 0.81909 0.0
C402 C 0.59873 0.80864 0.71944 0.0
C403 C 0.60491 0.67364 0.78604 0.0
N404 N 0.60339 0.90174 0.79097 0.0
N405 N 0.61351 0.58221 0.71428 0.0
H406 H 0.60198 0.61844 0.85769 0.0
H407 H 0.59518 0.54845 0.80851 0.0
H408 H 0.61398 0.57152 0.67564 0.0
H409 H 0.61946 0.52982 0.73611 0.0
H410 H 0.60274 0.95515 0.76909 0.0
H411 H 0.60518 0.91246 0.82954 0.0
H412 H 0.57725 0.92897 0.69797 0.0
H413 H 0.58511 0.85956 0.64848 0.0
C414 C 0.91696 0.16639 0.72936 0.0
C415 C 0.91374 0.2471 0.70853 0.0
C416 C 0.92243 0.30608 0.79222 0.0
C417 C 0.91353 0.22623 0.81348 0.0
N418 N 0.90714 0.07921 0.80325 0.0
N419 N 0.9222 0.39322 0.71696 0.0
C420 C 0.9135 0.15568 0.78228 0.0
C421 C 0.92042 0.31683 0.73908 0.0
N422 N 0.92157 0.1002 0.69817 0.0
N423 N 0.92993 0.37207 0.82286 0.0
H424 H 0.92184 0.40053 0.67799 0.0
H425 H 0.92427 0.44875 0.73627 0.0
H426 H 0.92859 0.36762 0.86166 0.0
H427 H 0.94066 0.42986 0.8103 0.0
H428 H 0.92766 0.04027 0.71081 0.0
H429 H 0.92383 0.10719 0.65937 0.0
H430 H 0.90113 0.02582 0.78259 0.0
H431 H 0.90653 0.07017 0.84208 0.0
C432 C 0.48862 0.47031 0.96974 0.0
C433 C 0.48468 0.44241 0.02033 0.0
C434 C 0.53681 0.55454 0.04683 0.0
C435 C 0.54138 0.58132 0.9961 0.0
N436 N 0.51511 0.57609 0.91105 0.0
N437 N 0.5097 0.44979 0.10588 0.0
C438 C 0.51571 0.54164 0.95803 0.0
C439 C 0.50962 0.48325 0.05865 0.0
N440 N 0.46652 0.42839 0.93267 0.0
N441 N 0.5586 0.59722 0.08377 0.0
H442 H 0.49324 0.39444 0.11453 0.0
H443 H 0.52903 0.47152 0.13554 0.0
H444 H 0.58035 0.64661 0.07655 0.0
H445 H 0.55327 0.58777 0.12195 0.0
H446 H 0.47209 0.43795 0.89453 0.0
H447 H 0.44402 0.38006 0.93969 0.0
H448 H 0.49488 0.55568 0.88177 0.0
H449 H 0.53196 0.63115 0.90246 0.0
C450 C 0.01582 0.54048 0.05881 0.0
C451 C 0.04285 0.57754 0.02052 0.0
C452 C 1.01166 0.47841 0.95909 0.0
C453 C 0.98423 0.44181 0.99712 0.0
N454 N 0.9614 0.43427 0.0839 0.0
N455 N 0.06286 0.58867 0.933 0.0
C456 C 0.98684 0.4717 0.04729 0.0
C457 C 0.03943 0.54876 0.97025 0.0
N458 N 0.01626 0.5746 0.10574 0.0
N459 N 1.0135 0.4418 0.91294 0.0
H460 H 0.08545 0.63682 0.93972 0.0
H461 H 0.05795 0.57818 0.89493 0.0
H462 H 0.99613 0.38733 0.90483 0.0
H463 H 0.03529 0.45971 0.88419 0.0
H464 H 0.99646 0.55488 0.13576 0.0
H465 H 0.03477 0.62771 0.11419 0.0
H466 H 0.96404 0.44658 0.122 0.0
H467 H 0.93804 0.38758 0.0766 0.0
C468 C 0.55003 0.97366 0.47187 0.0
C469 C 0.54359 0.92405 0.5156 0.0
C470 C 0.48261 0.01853 0.54286 0.0
C471 C 0.48682 0.06445 0.49736 0.0
N472 N 0.52141 0.08101 0.41612 0.0
N473 N 0.50027 0.89266 0.58966 0.0
C474 C 0.51969 0.04049 0.46122 0.0
C475 C 0.50898 0.94503 0.55035 0.0
N476 N 0.58628 0.95877 0.44127 0.0
N477 N 0.45333 0.04546 0.57904 0.0
H478 H 0.51827 0.83791 0.5953 0.0
H479 H 0.47304 0.8991 0.61412 0.0
H480 H 0.43311 0.09775 0.57445 0.0
H481 H 0.45144 0.02029 0.61499 0.0
H482 H 0.59642 -0.00156 0.41246 0.0
H483 H 0.60812 0.90891 0.44657 0.0
H484 H 0.54007 0.06032 0.38546 0.0
H485 H 0.50228 0.13379 0.40854 0.0
C486 C 0.97071 0.98881 0.48996 0.0
C487 C 0.9838 0.05901 0.51885 0.0
C488 C 0.06114 0.00279 0.52452 0.0
C489 C 0.04737 0.93035 0.49802 0.0
N490 N 0.98859 0.85107 0.45858 0.0
N491 N 0.03959 0.12862 0.56869 0.0
C492 C 1.00189 0.9223 0.48192 0.0
C493 C 0.02865 0.06514 0.53714 0.0
N494 N 0.92879 0.98752 0.46845 0.0
N495 N 0.10547 0.01192 0.53786 0.0
H496 H 0.01703 0.17578 0.57792 0.0
H497 H 0.06983 0.13242 0.58835 0.0
H498 H 0.12951 0.96547 0.53336 0.0
H499 H 0.11918 0.06664 0.55156 0.0
H500 H 0.91791 0.9427 0.44333 0.0
H501 H 0.90559 0.0355 0.47251 0.0
H502 H 0.95524 0.83671 0.45 0.0
H503 H 1.01085 0.80322 0.44986 0.0
C504 C 0.24527 0.5198 0.0741 0.0
C505 C 0.23507 0.56236 0.02905 0.0
C506 C 0.272 0.44937 0.9841 0.0
C507 C 0.29047 0.42118 0.03028 0.0
N508 N 0.30826 0.46227 0.1156 0.0
N509 N 0.24754 0.5716 0.939 0.0
C510 C 0.28183 0.46691 0.07408 0.0
C511 C 0.25076 0.52845 0.98294 0.0
N512 N 0.22029 0.52445 0.11691 0.0
N513 N 0.27366 0.4012 0.94224 0.0
H514 H 0.23564 0.63214 0.93704 0.0
H515 H 0.26166 0.55028 0.90557 0.0
H516 H 0.28647 0.3411 0.94269 0.0
H517 H 0.25765 0.41783 0.90889 0.0
H518 H 0.18819 0.55074 0.11933 0.0
H519 H 0.18819 0.55074 0.11933 0.0
H520 H 0.2977 0.48789 0.14941 0.0
H521 H 0.34132 0.44009 0.11513 0.0
C522 C 0.28831 0.00691 0.44369 0.0
C523 C 0.29518 0.05368 0.48758 0.0
C524 C 0.25667 0.94356 0.53393 0.0
C525 C 0.24076 0.91165 0.48759 0.0
N526 N 0.22753 0.94673 0.40014 0.0
N527 N 0.27815 0.06977 0.57628 0.0
C528 C 0.2519 0.95383 0.44297 0.0
C529 C 0.27727 0.02318 0.53374 0.0
N530 N 0.31605 0.00834 0.40294 0.0
N531 N 0.25352 0.89835 0.57714 0.0
H532 H 0.28987 0.13059 0.57685 0.0
H533 H 0.26247 0.05074 0.6095 0.0
H534 H 0.24185 0.83742 0.57782 0.0
H535 H 0.2676 0.91822 0.61084 0.0
H536 H 0.34772 0.0367 0.4019 0.0
H537 H 0.34772 0.0367 0.4019 0.0
H538 H 0.24062 0.96743 0.36609 0.0
H539 H 0.19383 0.92776 0.39952 0.0
C540 C 0.75411 0.54424 0.02823 0.0
C541 C 0.73562 0.57142 0.98184 0.0
C542 C 0.77848 0.46902 0.93874 0.0
C543 C 0.79003 0.42926 0.98422 0.0
N544 N 0.77781 0.42248 0.07434 0.0
N545 N 0.71408 0.52506 0.89887 0.0
C546 C 0.77456 0.46459 0.03004 0.0
C547 C 0.74209 0.52224 0.9391 0.0
N548 N 0.75373 0.59388 0.06949 0.0
N549 N 0.8029 0.46406 0.89565 0.0
H550 H 0.68139 0.54897 0.90047 0.0
H551 H 0.72286 0.49664 0.86541 0.0
H552 H 0.83525 0.43894 0.89288 0.0
H553 H 0.83525 0.43894 0.89288 0.0
H554 H 0.76981 0.57736 0.10282 0.0
H555 H 0.74202 0.65468 0.0686 0.0
H556 H 0.76413 0.44502 0.10771 0.0
H557 H 0.78897 0.3614 0.0765 0.0
C558 C 0.75074 0.95705 0.57427 0.0
C559 C 0.73659 0.92082 0.52882 0.0
C560 C 0.77067 0.03851 0.4848 0.0
C561 C 0.79127 0.06337 0.53041 0.0
N562 N 0.8156 0.01079 0.61258 0.0
N563 N 0.74541 0.91924 0.43808 0.0
C564 C 0.78668 0.01165 0.57301 0.0
C565 C 0.75006 0.95896 0.48283 0.0
N566 N 0.72965 0.94315 0.61886 0.0
N567 N 0.76967 0.09024 0.44423 0.0
H568 H 0.73515 0.85772 0.43539 0.0
H569 H 0.7576 0.94407 0.40447 0.0
H570 H 0.78233 0.15049 0.44519 0.0
H571 H 0.75191 0.0759 0.41166 0.0
H572 H 0.74459 0.96127 0.65234 0.0
H573 H 0.69599 0.92463 0.62191 0.0
H574 H 0.84649 0.04174 0.61361 0.0
H575 H 0.84649 0.04174 0.61361 0.0
loop_
_geom_bond_atom_site_label_1
_geom_bond_atom_site_label_2
_geom_bond_distance
_geom_bond_site_symmetry_2
_ccdc_geom_bond_type
Mn0 O5 2.095 . S
Mn0 O15 2.162 1_554 S
Mn0 O16 2.297 . S
Mn0 O24 2.385 1_554 S
Mn0 O25 2.209 . S
Mn0 O26 2.094 . S
Mn1 O6 2.121 . S
Mn1 N8 2.257 . S
Mn1 N17 2.282 . S
Mn1 O25 2.215 . S
Mn1 O27 2.117 . S
C2 O24 1.234 1_554 S
C2 O25 1.283 . S
C3 O15 1.281 1_554 S
C3 O16 1.236 . S
C4 O26 1.240 . S
C4 O27 1.264 . S
O5 Mn0 2.095 . S
O5 C14 1.250 . S
O6 Mn1 2.121 . S
O6 C14 1.258 . S
C7 N8 1.326 . S
C7 C11 1.460 . S
C7 H13 0.929 . S
N8 Mn1 2.257 . S
N8 C7 1.326 . S
N8 C12 1.362 . S
C9 C10 1.258 . S
C9 C12 1.431 . S
C9 C29 1.449 . S
C10 C9 1.258 . S
C10 C11 1.477 . S
C10 H30 0.931 . S
C11 C7 1.460 . S
C11 C10 1.477 . S
C11 H31 0.930 . S
C12 N8 1.362 . S
C12 C9 1.431 . S
C12 C22 1.476 . S
H13 C7 0.929 . S
C14 O5 1.250 . S
C14 O6 1.258 . S
O15 Mn0 2.162 1_556 S
O15 C3 1.281 1_556 S
O16 Mn0 2.297 . S
O16 C3 1.236 . S
N17 Mn1 2.282 . S
N17 C18 1.328 . S
N17 C22 1.318 . S
C18 N17 1.328 . S
C18 C19 1.457 1_554 S
C18 H23 0.929 . S
C19 C18 1.457 1_556 S
C19 C20 1.291 1_556 S
C19 H32 0.931 . S
C20 C19 1.291 1_554 S
C20 C21 1.373 . S
C20 H33 0.929 1_554 S
C21 C20 1.373 . S
C21 C22 1.396 . S
C21 C28 1.403 . S
C22 C12 1.476 . S
C22 N17 1.318 . S
C22 C21 1.396 . S
H23 C18 0.929 . S
O24 Mn0 2.385 1_556 S
O24 C2 1.234 1_556 S
O25 Mn0 2.209 . S
O25 Mn1 2.215 . S
O25 C2 1.283 . S
O26 Mn0 2.094 . S
O26 C4 1.240 . S
O27 Mn1 2.117 . S
O27 C4 1.264 . S
C28 C21 1.403 . S
C28 C29 1.399 . S
C28 H34 0.929 . S
C29 C9 1.449 . S
C29 C28 1.399 . S
C29 H35 0.930 . S
H30 C10 0.931 . S
H31 C11 0.930 . S
H32 C19 0.931 . S
H33 C20 0.929 1_556 S
H34 C28 0.929 . S
H35 C29 0.930 . S
Mn36 O41 2.095 . S
Mn36 O51 2.162 1_554 S
Mn36 O52 2.297 . S
Mn36 O60 2.385 1_554 S
Mn36 O61 2.209 . S
Mn36 O62 2.094 . S
Mn37 O42 2.121 . S
Mn37 N44 2.257 . S
Mn37 N53 2.282 . S
Mn37 O61 2.215 . S
Mn37 O63 2.117 . S
C38 O60 1.234 1_554 S
C38 O61 1.283 . S
C39 O51 1.281 1_554 S
C39 O52 1.236 . S
C40 O62 1.240 . S
C40 O63 1.264 . S
O41 Mn36 2.095 . S
O41 C50 1.250 . S
O42 Mn37 2.121 . S
O42 C50 1.258 . S
C43 N44 1.326 . S
C43 C47 1.460 . S
C43 H49 0.929 . S
N44 Mn37 2.257 . S
N44 C43 1.326 . S
N44 C48 1.362 . S
C45 C46 1.258 . S
C45 C48 1.431 . S
C45 C65 1.449 . S
C46 C45 1.258 . S
C46 C47 1.477 . S
C46 H66 0.931 . S
C47 C43 1.460 . S
C47 C46 1.477 . S
C47 H67 0.930 . S
C48 N44 1.362 . S
C48 C45 1.431 . S
C48 C58 1.476 . S
H49 C43 0.929 . S
C50 O41 1.250 . S
C50 O42 1.258 . S
O51 Mn36 2.162 1_556 S
O51 C39 1.281 1_556 S
O52 Mn36 2.297 . S
O52 C39 1.236 . S
N53 Mn37 2.282 . S
N53 C54 1.328 . S
N53 C58 1.318 . S
C54 N53 1.328 . S
C54 C55 1.457 1_554 S
C54 H59 0.929 . S
C55 C54 1.457 1_556 S
C55 C56 1.291 1_556 S
C55 H68 0.931 . S
C56 C55 1.291 1_554 S
C56 C57 1.373 . S
C56 H69 0.929 1_554 S
C57 C56 1.373 . S
C57 C58 1.396 . S
C57 C64 1.403 . S
C58 C48 1.476 . S
C58 N53 1.318 . S
C58 C57 1.396 . S
H59 C54 0.929 . S
O60 Mn36 2.385 1_556 S
O60 C38 1.234 1_556 S
O61 Mn36 2.209 . S
O61 Mn37 2.215 . S
O61 C38 1.283 . S
O62 Mn36 2.094 . S
O62 C40 1.240 . S
O63 Mn37 2.117 . S
O63 C40 1.264 . S
C64 C57 1.403 . S
C64 C65 1.399 . S
C64 H70 0.929 . S
C65 C45 1.449 . S
C65 C64 1.399 . S
C65 H71 0.930 . S
H66 C46 0.931 . S
H67 C47 0.930 . S
H68 C55 0.931 . S
H69 C56 0.929 1_556 S
H70 C64 0.929 . S
H71 C65 0.930 . S
Mn72 O77 2.095 . S
Mn72 O87 2.162 . S
Mn72 O88 2.297 . S
Mn72 O96 2.385 . S
Mn72 O97 2.209 . S
Mn72 O98 2.094 . S
Mn73 O78 2.121 . S
Mn73 N80 2.257 . S
Mn73 N89 2.282 . S
Mn73 O97 2.215 . S
Mn73 O99 2.117 . S
C74 O96 1.234 . S
C74 O97 1.283 . S
C75 O87 1.281 . S
C75 O88 1.236 . S
C76 O98 1.240 . S
C76 O99 1.264 . S
O77 Mn72 2.095 . S
O77 C86 1.250 . S
O78 Mn73 2.121 . S
O78 C86 1.258 . S
C79 N80 1.326 . S
C79 C83 1.460 . S
C79 H85 0.929 . S
N80 Mn73 2.257 . S
N80 C79 1.326 . S
N80 C84 1.362 . S
C81 C82 1.258 . S
C81 C84 1.431 . S
C81 C101 1.449 . S
C82 C81 1.258 . S
C82 C83 1.477 . S
C82 H102 0.931 1_545 S
C83 C79 1.460 . S
C83 C82 1.477 . S
C83 H103 0.930 . S
C84 N80 1.362 . S
C84 C81 1.431 . S
C84 C94 1.476 . S
H85 C79 0.929 . S
C86 O77 1.250 . S
C86 O78 1.258 . S
O87 Mn72 2.162 . S
O87 C75 1.281 . S
O88 Mn72 2.297 . S
O88 C75 1.236 . S
N89 Mn73 2.282 . S
N89 C90 1.328 . S
N89 C94 1.318 . S
C90 N89 1.328 . S
C90 C91 1.457 . S
C90 H95 0.929 . S
C91 C90 1.457 . S
C91 C92 1.291 . S
C91 H104 0.931 . S
C92 C91 1.291 . S
C92 C93 1.373 . S
C92 H105 0.929 . S
C93 C92 1.373 . S
C93 C94 1.396 . S
C93 C100 1.403 . S
C94 C84 1.476 . S
C94 N89 1.318 . S
C94 C93 1.396 . S
H95 C90 0.929 . S
O96 Mn72 2.385 . S
O96 C74 1.234 . S
O97 Mn72 2.209 . S
O97 Mn73 2.215 . S
O97 C74 1.283 . S
O98 Mn72 2.094 . S
O98 C76 1.240 . S
O99 Mn73 2.117 . S
O99 C76 1.264 . S
C100 C93 1.403 . S
C100 C101 1.399 . S
C100 H106 0.929 . S
C101 C81 1.449 . S
C101 C100 1.399 . S
C101 H107 0.930 1_545 S
H102 C82 0.931 1_565 S
H103 C83 0.930 . S
H104 C91 0.931 . S
H105 C92 0.929 . S
H106 C100 0.929 . S
H107 C101 0.930 1_565 S
Mn108 O113 2.095 . S
Mn108 O123 2.162 . S
Mn108 O124 2.297 . S
Mn108 O132 2.385 . S
Mn108 O133 2.209 . S
Mn108 O134 2.094 . S
Mn109 O114 2.121 . S
Mn109 N116 2.257 . S
Mn109 N125 2.282 . S
Mn109 O133 2.215 . S
Mn109 O135 2.117 . S
C110 O132 1.234 . S
C110 O133 1.283 . S
C111 O123 1.281 . S
C111 O124 1.236 . S
C112 O134 1.240 . S
C112 O135 1.264 . S
O113 Mn108 2.095 . S
O113 C122 1.250 . S
O114 Mn109 2.121 . S
O114 C122 1.258 . S
C115 N116 1.326 . S
C115 C119 1.460 . S
C115 H121 0.929 . S
N116 Mn109 2.257 . S
N116 C115 1.326 . S
N116 C120 1.362 . S
C117 C118 1.258 . S
C117 C120 1.431 . S
C117 C137 1.449 . S
C118 C117 1.258 . S
C118 C119 1.477 . S
C118 H138 0.931 1_565 S
C119 C115 1.460 . S
C119 C118 1.477 . S
C119 H139 0.930 . S
C120 N116 1.362 . S
C120 C117 1.431 . S
C120 C130 1.476 . S
H121 C115 0.929 . S
C122 O113 1.250 . S
C122 O114 1.258 . S
O123 Mn108 2.162 . S
O123 C111 1.281 . S
O124 Mn108 2.297 . S
O124 C111 1.236 . S
N125 Mn109 2.282 . S
N125 C126 1.328 . S
N125 C130 1.318 . S
C126 N125 1.328 . S
C126 C127 1.457 . S
C126 H131 0.929 . S
C127 C126 1.457 . S
C127 C128 1.291 . S
C127 H140 0.931 . S
C128 C127 1.291 . S
C128 C129 1.373 . S
C128 H141 0.929 . S
C129 C128 1.373 . S
C129 C130 1.396 . S
C129 C136 1.403 . S
C130 C120 1.476 . S
C130 N125 1.318 . S
C130 C129 1.396 . S
H131 C126 0.929 . S
O132 Mn108 2.385 . S
O132 C110 1.234 . S
O133 Mn108 2.209 . S
O133 Mn109 2.215 . S
O133 C110 1.283 . S
O134 Mn108 2.094 . S
O134 C112 1.240 . S
O135 Mn109 2.117 . S
O135 C112 1.264 . S
C136 C129 1.403 . S
C136 C137 1.399 . S
C136 H142 0.929 . S
C137 C117 1.449 . S
C137 C136 1.399 . S
C137 H143 0.930 1_565 S
H138 C118 0.931 1_545 S
H139 C119 0.930 . S
H140 C127 0.931 . S
H141 C128 0.929 . S
H142 C136 0.929 . S
H143 C137 0.930 1_545 S
Mn144 O149 2.095 . S
Mn144 O159 2.162 1_556 S
Mn144 O160 2.297 . S
Mn144 O168 2.385 1_556 S
Mn144 O169 2.209 . S
Mn144 O170 2.094 . S
Mn145 O150 2.121 . S
Mn145 N152 2.257 . S
Mn145 N161 2.282 . S
Mn145 O169 2.215 . S
Mn145 O171 2.117 . S
C146 O168 1.234 1_556 S
C146 O169 1.283 . S
C147 O159 1.281 1_556 S
C147 O160 1.236 . S
C148 O170 1.240 . S
C148 O171 1.264 . S
O149 Mn144 2.095 . S
O149 C158 1.250 . S
O150 Mn145 2.121 . S
O150 C158 1.258 . S
C151 N152 1.326 . S
C151 C155 1.460 . S
C151 H157 0.929 . S
N152 Mn145 2.257 . S
N152 C151 1.326 . S
N152 C156 1.362 . S
C153 C154 1.258 . S
C153 C156 1.431 . S
C153 C173 1.449 . S
C154 C153 1.258 . S
C154 C155 1.477 . S
C154 H174 0.931 . S
C155 C151 1.460 . S
C155 C154 1.477 . S
C155 H175 0.930 . S
C156 N152 1.362 . S
C156 C153 1.431 . S
C156 C166 1.476 . S
H157 C151 0.929 . S
C158 O149 1.250 . S
C158 O150 1.258 . S
O159 Mn144 2.162 1_554 S
O159 C147 1.281 1_554 S
O160 Mn144 2.297 . S
O160 C147 1.236 . S
N161 Mn145 2.282 . S
N161 C162 1.328 . S
N161 C166 1.318 . S
C162 N161 1.328 . S
C162 C163 1.457 1_556 S
C162 H167 0.929 . S
C163 C162 1.457 1_554 S
C163 C164 1.291 1_554 S
C163 H176 0.931 . S
C164 C163 1.291 1_556 S
C164 C165 1.373 . S
C164 H177 0.929 1_556 S
C165 C164 1.373 . S
C165 C166 1.396 . S
C165 C172 1.403 . S
C166 C156 1.476 . S
C166 N161 1.318 . S
C166 C165 1.396 . S
H167 C162 0.929 . S
O168 Mn144 2.385 1_554 S
O168 C146 1.234 1_554 S
O169 Mn144 2.209 . S
O169 Mn145 2.215 . S
O169 C146 1.283 . S
O170 Mn144 2.094 . S
O170 C148 1.240 . S
O171 Mn145 2.117 . S
O171 C148 1.264 . S
C172 C165 1.403 . S
C172 C173 1.399 . S
C172 H178 0.929 . S
C173 C153 1.449 . S
C173 C172 1.399 . S
C173 H179 0.930 . S
H174 C154 0.931 . S
H175 C155 0.930 . S
H176 C163 0.931 . S
H177 C164 0.929 1_554 S
H178 C172 0.929 . S
H179 C173 0.930 . S
Mn180 O185 2.095 . S
Mn180 O195 2.162 1_556 S
Mn180 O196 2.297 . S
Mn180 O204 2.385 1_556 S
Mn180 O205 2.209 . S
Mn180 O206 2.094 . S
Mn181 O186 2.121 . S
Mn181 N188 2.257 . S
Mn181 N197 2.282 . S
Mn181 O205 2.215 . S
Mn181 O207 2.117 . S
C182 O204 1.234 1_556 S
C182 O205 1.283 . S
C183 O195 1.281 1_556 S
C183 O196 1.236 . S
C184 O206 1.240 . S
C184 O207 1.264 . S
O185 Mn180 2.095 . S
O185 C194 1.250 . S
O186 Mn181 2.121 . S
O186 C194 1.258 . S
C187 N188 1.326 . S
C187 C191 1.460 . S
C187 H193 0.929 . S
N188 Mn181 2.257 . S
N188 C187 1.326 . S
N188 C192 1.362 . S
C189 C190 1.258 . S
C189 C192 1.431 . S
C189 C209 1.449 . S
C190 C189 1.258 . S
C190 C191 1.477 . S
C190 H210 0.931 . S
C191 C187 1.460 . S
C191 C190 1.477 . S
C191 H211 0.930 . S
C192 N188 1.362 . S
C192 C189 1.431 . S
C192 C202 1.476 . S
H193 C187 0.929 . S
C194 O185 1.250 . S
C194 O186 1.258 . S
O195 Mn180 2.162 1_554 S
O195 C183 1.281 1_554 S
O196 Mn180 2.297 . S
O196 C183 1.236 . S
N197 Mn181 2.282 . S
N197 C198 1.328 . S
N197 C202 1.318 . S
C198 N197 1.328 . S
C198 C199 1.457 1_556 S
C198 H203 0.929 . S
C199 C198 1.457 1_554 S
C199 C200 1.291 1_554 S
C199 H212 0.931 . S
C200 C199 1.291 1_556 S
C200 C201 1.373 . S
C200 H213 0.929 1_556 S
C201 C200 1.373 . S
C201 C202 1.396 . S
C201 C208 1.403 . S
C202 C192 1.476 . S
C202 N197 1.318 . S
C202 C201 1.396 . S
H203 C198 0.929 . S
O204 Mn180 2.385 1_554 S
O204 C182 1.234 1_554 S
O205 Mn180 2.209 . S
O205 Mn181 2.215 . S
O205 C182 1.283 . S
O206 Mn180 2.094 . S
O206 C184 1.240 . S
O207 Mn181 2.117 . S
O207 C184 1.264 . S
C208 C201 1.403 . S
C208 C209 1.399 . S
C208 H214 0.929 . S
C209 C189 1.449 . S
C209 C208 1.399 . S
C209 H215 0.930 . S
H210 C190 0.931 . S
H211 C191 0.930 . S
H212 C199 0.931 . S
H213 C200 0.929 1_554 S
H214 C208 0.929 . S
H215 C209 0.930 . S
Mn216 O221 2.095 . S
Mn216 O231 2.162 . S
Mn216 O232 2.297 . S
Mn216 O240 2.385 . S
Mn216 O241 2.209 . S
Mn216 O242 2.094 . S
Mn217 O222 2.121 . S
Mn217 N224 2.257 . S
Mn217 N233 2.282 . S
Mn217 O241 2.215 . S
Mn217 O243 2.117 . S
C218 O240 1.234 . S
C218 O241 1.283 . S
C219 O231 1.281 . S
C219 O232 1.236 . S
C220 O242 1.240 . S
C220 O243 1.264 . S
O221 Mn216 2.095 . S
O221 C230 1.250 . S
O222 Mn217 2.121 . S
O222 C230 1.258 . S
C223 N224 1.326 . S
C223 C227 1.460 . S
C223 H229 0.929 . S
N224 Mn217 2.257 . S
N224 C223 1.326 . S
N224 C228 1.362 . S
C225 C226 1.258 . S
C225 C228 1.431 . S
C225 C245 1.449 . S
C226 C225 1.258 . S
C226 C227 1.477 . S
C226 H246 0.931 1_565 S
C227 C223 1.460 . S
C227 C226 1.477 . S
C227 H247 0.930 . S
C228 N224 1.362 . S
C228 C225 1.431 . S
C228 C238 1.476 . S
H229 C223 0.929 . S
C230 O221 1.250 . S
C230 O222 1.258 . S
O231 Mn216 2.162 . S
O231 C219 1.281 . S
O232 Mn216 2.297 . S
O232 C219 1.236 . S
N233 Mn217 2.282 . S
N233 C234 1.328 . S
N233 C238 1.318 . S
C234 N233 1.328 . S
C234 C235 1.457 . S
C234 H239 0.929 . S
C235 C234 1.457 . S
C235 C236 1.291 . S
C235 H248 0.931 . S
C236 C235 1.291 . S
C236 C237 1.373 . S
C236 H249 0.929 . S
C237 C236 1.373 . S
C237 C238 1.396 . S
C237 C244 1.403 . S
C238 C228 1.476 . S
C238 N233 1.318 . S
C238 C237 1.396 . S
H239 C234 0.929 . S
O240 Mn216 2.385 . S
O240 C218 1.234 . S
O241 Mn216 2.209 . S
O241 Mn217 2.215 . S
O241 C218 1.283 . S
O242 Mn216 2.094 . S
O242 C220 1.240 . S
O243 Mn217 2.117 . S
O243 C220 1.264 . S
C244 C237 1.403 . S
C244 C245 1.399 . S
C244 H250 0.929 . S
C245 C225 1.449 . S
C245 C244 1.399 . S
C245 H251 0.930 1_565 S
H246 C226 0.931 1_545 S
H247 C227 0.930 . S
H248 C235 0.931 . S
H249 C236 0.929 . S
H250 C244 0.929 . S
H251 C245 0.930 1_545 S
Mn252 O257 2.095 . S
Mn252 O267 2.162 . S
Mn252 O268 2.297 . S
Mn252 O276 2.385 . S
Mn252 O277 2.209 . S
Mn252 O278 2.094 . S
Mn253 O258 2.121 . S
Mn253 N260 2.257 . S
Mn253 N269 2.282 . S
Mn253 O277 2.215 . S
Mn253 O279 2.117 . S
C254 O276 1.234 . S
C254 O277 1.283 . S
C255 O267 1.281 . S
C255 O268 1.236 . S
C256 O278 1.240 . S
C256 O279 1.264 . S
O257 Mn252 2.095 . S
O257 C266 1.250 . S
O258 Mn253 2.121 . S
O258 C266 1.258 . S
C259 N260 1.326 . S
C259 C263 1.460 . S
C259 H265 0.929 . S
N260 Mn253 2.257 . S
N260 C259 1.326 . S
N260 C264 1.362 . S
C261 C262 1.258 . S
C261 C264 1.431 . S
C261 C281 1.449 . S
C262 C261 1.258 . S
C262 C263 1.477 . S
C262 H282 0.931 1_545 S
C263 C259 1.460 . S
C263 C262 1.477 . S
C263 H283 0.930 . S
C264 N260 1.362 . S
C264 C261 1.431 . S
C264 C274 1.476 . S
H265 C259 0.929 . S
C266 O257 1.250 . S
C266 O258 1.258 . S
O267 Mn252 2.162 . S
O267 C255 1.281 . S
O268 Mn252 2.297 . S
O268 C255 1.236 . S
N269 Mn253 2.282 . S
N269 C270 1.328 . S
N269 C274 1.318 . S
C270 N269 1.328 . S
C270 C271 1.457 . S
C270 H275 0.929 . S
C271 C270 1.457 . S
C271 C272 1.291 . S
C271 H284 0.931 . S
C272 C271 1.291 . S
C272 C273 1.373 . S
C272 H285 0.929 . S
C273 C272 1.373 . S
C273 C274 1.396 . S
C273 C280 1.403 . S
C274 C264 1.476 . S
C274 N269 1.318 . S
C274 C273 1.396 . S
H275 C270 0.929 . S
O276 Mn252 2.385 . S
O276 C254 1.234 . S
O277 Mn252 2.209 . S
O277 Mn253 2.215 . S
O277 C254 1.283 . S
O278 Mn252 2.094 . S
O278 C256 1.240 . S
O279 Mn253 2.117 . S
O279 C256 1.264 . S
C280 C273 1.403 . S
C280 C281 1.399 . S
C280 H286 0.929 . S
C281 C261 1.449 . S
C281 C280 1.399 . S
C281 H287 0.930 1_545 S
H282 C262 0.931 1_565 S
H283 C263 0.930 . S
H284 C271 0.931 . S
H285 C272 0.929 . S
H286 C280 0.929 . S
H287 C281 0.930 1_565 S
C288 C289 1.363 1_556 S
C288 C294 1.379 . S
C288 N296 1.356 . S
C289 C288 1.363 1_554 S
C289 C295 1.363 1_545 S
C290 C291 1.363 . S
C290 C295 1.379 . S
C290 N297 1.356 . S
C291 C290 1.363 . S
C291 C294 1.363 1_564 S
N292 C294 1.356 1_565 S
N292 H304 0.984 1_565 S
N292 H305 0.985 . S
N293 C295 1.356 1_545 S
N293 H298 0.984 . S
N293 H299 0.985 1_545 S
C294 C288 1.379 . S
C294 C291 1.363 1_546 S
C294 N292 1.356 1_545 S
C295 C289 1.363 1_565 S
C295 C290 1.379 . S
C295 N293 1.356 1_565 S
N296 C288 1.356 . S
N296 H302 0.984 . S
N296 H303 0.984 . S
N297 C290 1.356 . S
N297 H300 0.984 . S
N297 H301 0.985 . S
H298 N293 0.984 . S
H299 N293 0.985 1_565 S
H300 N297 0.984 . S
H301 N297 0.985 . S
H302 N296 0.984 . S
H303 N296 0.984 . S
H304 N292 0.984 1_545 S
H305 N292 0.985 . S
C306 C307 1.363 . S
C306 C312 1.379 . S
C306 N314 1.356 . S
C307 C306 1.363 . S
C307 C313 1.363 . S
C308 C309 1.363 . S
C308 C313 1.379 . S
C308 N315 1.356 . S
C309 C308 1.363 . S
C309 C312 1.363 . S
N310 C312 1.356 . S
N310 H322 0.984 . S
N310 H323 0.985 . S
N311 C313 1.356 . S
N311 H316 0.984 . S
N311 H317 0.985 . S
C312 C306 1.379 . S
C312 C309 1.363 . S
C312 N310 1.356 . S
C313 C307 1.363 . S
C313 C308 1.379 . S
C313 N311 1.356 . S
N314 C306 1.356 . S
N314 H320 0.984 . S
N314 H321 0.984 . S
N315 C308 1.356 . S
N315 H318 0.984 . S
N315 H319 0.985 . S
H316 N311 0.984 . S
H317 N311 0.985 . S
H318 N315 0.984 . S
H319 N315 0.985 . S
H320 N314 0.984 . S
H321 N314 0.984 . S
H322 N310 0.984 . S
H323 N310 0.985 . S
C324 C325 1.363 1_544 S
C324 C330 1.379 . S
C324 N332 1.356 1_545 S
C325 C324 1.363 1_566 S
C325 C331 1.363 . S
C326 C327 1.363 1_565 S
C326 C331 1.379 . S
C326 N333 1.356 1_565 S
C327 C326 1.363 1_545 S
C327 C330 1.363 1_556 S
N328 C330 1.356 . S
N328 H340 0.984 . S
N328 H341 0.985 . S
N329 C331 1.356 . S
N329 H334 0.984 . S
N329 H335 0.985 . S
C330 C324 1.379 . S
C330 C327 1.363 1_554 S
C330 N328 1.356 . S
C331 C325 1.363 . S
C331 C326 1.379 . S
C331 N329 1.356 . S
N332 C324 1.356 1_565 S
N332 H338 0.984 1_565 S
N332 H339 0.984 . S
N333 C326 1.356 1_545 S
N333 H336 0.984 . S
N333 H337 0.985 1_545 S
H334 N329 0.984 . S
H335 N329 0.985 . S
H336 N333 0.984 . S
H337 N333 0.985 1_565 S
H338 N332 0.984 1_545 S
H339 N332 0.984 . S
H340 N328 0.984 . S
H341 N328 0.985 . S
C342 C343 1.363 . S
C342 C348 1.379 . S
C342 N350 1.356 . S
C343 C342 1.363 . S
C343 C349 1.363 . S
C344 C345 1.363 . S
C344 C349 1.379 . S
C344 N351 1.356 . S
C345 C344 1.363 . S
C345 C348 1.363 . S
N346 C348 1.356 . S
N346 H358 0.984 . S
N346 H359 0.985 . S
N347 C349 1.356 . S
N347 H352 0.984 . S
N347 H353 0.985 . S
C348 C342 1.379 . S
C348 C345 1.363 . S
C348 N346 1.356 . S
C349 C343 1.363 . S
C349 C344 1.379 . S
C349 N347 1.356 . S
N350 C342 1.356 . S
N350 H356 0.984 . S
N350 H357 0.984 . S
N351 C344 1.356 . S
N351 H354 0.984 . S
N351 H355 0.985 . S
H352 N347 0.984 . S
H353 N347 0.985 . S
H354 N351 0.984 . S
H355 N351 0.985 . S
H356 N350 0.984 . S
H357 N350 0.984 . S
H358 N346 0.984 . S
H359 N346 0.985 . S
C360 C361 1.363 . S
C360 C366 1.379 . S
C360 N368 1.356 . S
C361 C360 1.363 . S
C361 C367 1.363 . S
C362 C363 1.363 . S
C362 C367 1.379 . S
C362 N369 1.356 . S
C363 C362 1.363 . S
C363 C366 1.363 . S
N364 C366 1.356 . S
N364 H376 0.984 . S
N364 H377 0.985 . S
N365 C367 1.356 . S
N365 H370 0.984 . S
N365 H371 0.985 . S
C366 C360 1.379 . S
C366 C363 1.363 . S
C366 N364 1.356 . S
C367 C361 1.363 . S
C367 C362 1.379 . S
C367 N365 1.356 . S
N368 C360 1.356 . S
N368 H374 0.984 . S
N368 H375 0.984 . S
N369 C362 1.356 . S
N369 H372 0.984 . S
N369 H373 0.985 . S
H370 N365 0.984 . S
H371 N365 0.985 . S
H372 N369 0.984 . S
H373 N369 0.985 . S
H374 N368 0.984 . S
H375 N368 0.984 . S
H376 N364 0.984 . S
H377 N364 0.985 . S
C378 C379 1.363 . S
C378 C384 1.379 . S
C378 N386 1.356 . S
C379 C378 1.363 . S
C379 C385 1.363 . S
C380 C381 1.363 . S
C380 C385 1.379 . S
C380 N387 1.356 . S
C381 C380 1.363 . S
C381 C384 1.363 . S
N382 C384 1.356 . S
N382 H394 0.984 . S
N382 H395 0.985 . S
N383 C385 1.356 . S
N383 H388 0.984 . S
N383 H389 0.985 . S
C384 C378 1.379 . S
C384 C381 1.363 . S
C384 N382 1.356 . S
C385 C379 1.363 . S
C385 C380 1.379 . S
C385 N383 1.356 . S
N386 C378 1.356 . S
N386 H392 0.984 . S
N386 H393 0.984 . S
N387 C380 1.356 . S
N387 H390 0.984 . S
N387 H391 0.985 . S
H388 N383 0.984 . S
H389 N383 0.985 . S
H390 N387 0.984 . S
H391 N387 0.985 . S
H392 N386 0.984 . S
H393 N386 0.984 . S
H394 N382 0.984 . S
H395 N382 0.985 . S
C396 C397 1.363 . S
C396 C402 1.379 . S
C396 N404 1.356 . S
C397 C396 1.363 . S
C397 C403 1.363 . S
C398 C399 1.363 . S
C398 C403 1.379 . S
C398 N405 1.356 . S
C399 C398 1.363 . S
C399 C402 1.363 . S
N400 C402 1.356 . S
N400 H412 0.984 . S
N400 H413 0.985 . S
N401 C403 1.356 . S
N401 H406 0.984 . S
N401 H407 0.985 . S
C402 C396 1.379 . S
C402 C399 1.363 . S
C402 N400 1.356 . S
C403 C397 1.363 . S
C403 C398 1.379 . S
C403 N401 1.356 . S
N404 C396 1.356 . S
N404 H410 0.984 . S
N404 H411 0.984 . S
N405 C398 1.356 . S
N405 H408 0.984 . S
N405 H409 0.985 . S
H406 N401 0.984 . S
H407 N401 0.985 . S
H408 N405 0.984 . S
H409 N405 0.985 . S
H410 N404 0.984 . S
H411 N404 0.984 . S
H412 N400 0.984 . S
H413 N400 0.985 . S
C414 C415 1.363 . S
C414 C420 1.379 . S
C414 N422 1.356 . S
C415 C414 1.363 . S
C415 C421 1.363 . S
C416 C417 1.363 . S
C416 C421 1.379 . S
C416 N423 1.356 . S
C417 C416 1.363 . S
C417 C420 1.363 . S
N418 C420 1.356 . S
N418 H430 0.984 . S
N418 H431 0.985 . S
N419 C421 1.356 . S
N419 H424 0.984 . S
N419 H425 0.985 . S
C420 C414 1.379 . S
C420 C417 1.363 . S
C420 N418 1.356 . S
C421 C415 1.363 . S
C421 C416 1.379 . S
C421 N419 1.356 . S
N422 C414 1.356 . S
N422 H428 0.984 . S
N422 H429 0.984 . S
N423 C416 1.356 . S
N423 H426 0.984 . S
N423 H427 0.985 . S
H424 N419 0.984 . S
H425 N419 0.985 . S
H426 N423 0.984 . S
H427 N423 0.985 . S
H428 N422 0.984 . S
H429 N422 0.984 . S
H430 N418 0.984 . S
H431 N418 0.985 . S
C432 C433 1.363 . S
C432 C438 1.379 . S
C432 N440 1.356 . S
C433 C432 1.363 . S
C433 C439 1.363 1_556 S
C434 C435 1.363 . S
C434 C439 1.379 . S
C434 N441 1.356 . S
C435 C434 1.363 . S
C435 C438 1.363 1_554 S
N436 C438 1.356 . S
N436 H448 0.984 . S
N436 H449 0.985 . S
N437 C439 1.356 . S
N437 H442 0.984 . S
N437 H443 0.985 . S
C438 C432 1.379 . S
C438 C435 1.363 1_556 S
C438 N436 1.356 . S
C439 C433 1.363 1_554 S
C439 C434 1.379 . S
C439 N437 1.356 . S
N440 C432 1.356 . S
N440 H446 0.984 . S
N440 H447 0.984 . S
N441 C434 1.356 . S
N441 H444 0.984 . S
N441 H445 0.985 . S
H442 N437 0.984 . S
H443 N437 0.985 . S
H444 N441 0.984 . S
H445 N441 0.985 . S
H446 N440 0.984 . S
H447 N440 0.984 . S
H448 N436 0.984 . S
H449 N436 0.985 . S
C450 C451 1.363 1_554 S
C450 C456 1.379 . S
C450 N458 1.356 . S
C451 C450 1.363 1_556 S
C451 C457 1.363 1_455 S
C452 C453 1.363 1_556 S
C452 C457 1.379 . S
C452 N459 1.356 . S
C453 C452 1.363 1_554 S
C453 C456 1.363 1_655 S
N454 C456 1.356 . S
N454 H466 0.984 . S
N454 H467 0.985 1_455 S
N455 C457 1.356 . S
N455 H460 0.984 1_655 S
N455 H461 0.985 . S
C456 C450 1.379 . S
C456 C453 1.363 1_455 S
C456 N454 1.356 . S
C457 C451 1.363 1_655 S
C457 C452 1.379 . S
C457 N455 1.356 . S
N458 C450 1.356 . S
N458 H464 0.984 . S
N458 H465 0.984 . S
N459 C452 1.356 . S
N459 H462 0.984 . S
N459 H463 0.985 . S
H460 N455 0.984 1_455 S
H461 N455 0.985 . S
H462 N459 0.984 . S
H463 N459 0.985 . S
H464 N458 0.984 . S
H465 N458 0.984 . S
H466 N454 0.984 . S
H467 N454 0.985 1_655 S
C468 C469 1.363 . S
C468 C474 1.379 1_565 S
C468 N476 1.356 . S
C469 C468 1.363 . S
C469 C475 1.363 . S
C470 C471 1.363 . S
C470 C475 1.379 1_545 S
C470 N477 1.356 . S
C471 C470 1.363 . S
C471 C474 1.363 . S
N472 C474 1.356 . S
N472 H484 0.984 . S
N472 H485 0.985 . S
N473 C475 1.356 . S
N473 H478 0.984 . S
N473 H479 0.985 . S
C474 C468 1.379 1_545 S
C474 C471 1.363 . S
C474 N472 1.356 . S
C475 C469 1.363 . S
C475 C470 1.379 1_565 S
C475 N473 1.356 . S
N476 C468 1.356 . S
N476 H482 0.984 . S
N476 H483 0.984 . S
N477 C470 1.356 . S
N477 H480 0.984 . S
N477 H481 0.985 . S
H478 N473 0.984 . S
H479 N473 0.985 . S
H480 N477 0.984 . S
H481 N477 0.985 . S
H482 N476 0.984 . S
H483 N476 0.984 . S
H484 N472 0.984 . S
H485 N472 0.985 . S
C486 C487 1.363 . S
C486 C492 1.379 1_545 S
C486 N494 1.356 . S
C487 C486 1.363 . S
C487 C493 1.363 1_655 S
C488 C489 1.363 . S
C488 C493 1.379 1_565 S
C488 N495 1.356 . S
C489 C488 1.363 . S
C489 C492 1.363 1_455 S
N490 C492 1.356 . S
N490 H502 0.984 . S
N490 H503 0.985 1_655 S
N491 C493 1.356 . S
N491 H496 0.984 1_455 S
N491 H497 0.985 . S
C492 C486 1.379 1_565 S
C492 C489 1.363 1_655 S
C492 N490 1.356 . S
C493 C487 1.363 1_455 S
C493 C488 1.379 1_545 S
C493 N491 1.356 . S
N494 C486 1.356 . S
N494 H500 0.984 . S
N494 H501 0.984 . S
N495 C488 1.356 . S
N495 H498 0.984 . S
N495 H499 0.985 . S
H496 N491 0.984 1_655 S
H497 N491 0.985 . S
H498 N495 0.984 . S
H499 N495 0.985 . S
H500 N494 0.984 . S
H501 N494 0.984 . S
H502 N490 0.984 . S
H503 N490 0.985 1_455 S
C504 C505 1.363 . S
C504 C510 1.379 . S
C504 N512 1.356 . S
C505 C504 1.363 . S
C505 C511 1.363 1_554 S
C506 C507 1.363 1_556 S
C506 C511 1.379 . S
C506 N513 1.356 . S
C507 C506 1.363 1_554 S
C507 C510 1.363 . S
N508 C510 1.356 . S
N508 H520 0.984 . S
N508 H521 0.985 . S
N509 C511 1.356 . S
N509 H514 0.984 . S
N509 H515 0.985 . S
C510 C504 1.379 . S
C510 C507 1.363 . S
C510 N508 1.356 . S
C511 C505 1.363 1_556 S
C511 C506 1.379 . S
C511 N509 1.356 . S
N512 C504 1.356 . S
N512 H518 0.984 . S
N512 H519 0.984 . S
N513 C506 1.356 . S
N513 H516 0.984 . S
N513 H517 0.985 . S
H514 N509 0.984 . S
H515 N509 0.985 . S
H516 N513 0.984 . S
H517 N513 0.985 . S
H518 N512 0.984 . S
H519 N512 0.984 . S
H520 N508 0.984 . S
H521 N508 0.985 . S
C522 C523 1.363 . S
C522 C528 1.379 1_545 S
C522 N530 1.356 . S
C523 C522 1.363 . S
C523 C529 1.363 . S
C524 C525 1.363 . S
C524 C529 1.379 1_565 S
C524 N531 1.356 . S
C525 C524 1.363 . S
C525 C528 1.363 . S
N526 C528 1.356 . S
N526 H538 0.984 1_565 S
N526 H539 0.985 . S
N527 C529 1.356 . S
N527 H532 0.984 . S
N527 H533 0.985 1_545 S
C528 C522 1.379 1_565 S
C528 C525 1.363 . S
C528 N526 1.356 . S
C529 C523 1.363 . S
C529 C524 1.379 1_545 S
C529 N527 1.356 . S
N530 C522 1.356 . S
N530 H536 0.984 . S
N530 H537 0.984 . S
N531 C524 1.356 . S
N531 H534 0.984 . S
N531 H535 0.985 . S
H532 N527 0.984 . S
H533 N527 0.985 1_565 S
H534 N531 0.984 . S
H535 N531 0.985 . S
H536 N530 0.984 . S
H537 N530 0.984 . S
H538 N526 0.984 1_545 S
H539 N526 0.985 . S
C540 C541 1.363 1_554 S
C540 C546 1.379 . S
C540 N548 1.356 . S
C541 C540 1.363 1_556 S
C541 C547 1.363 . S
C542 C543 1.363 . S
C542 C547 1.379 . S
C542 N549 1.356 . S
C543 C542 1.363 . S
C543 C546 1.363 1_556 S
N544 C546 1.356 . S
N544 H556 0.984 . S
N544 H557 0.985 . S
N545 C547 1.356 . S
N545 H550 0.984 . S
N545 H551 0.985 . S
C546 C540 1.379 . S
C546 C543 1.363 1_554 S
C546 N544 1.356 . S
C547 C541 1.363 . S
C547 C542 1.379 . S
C547 N545 1.356 . S
N548 C540 1.356 . S
N548 H554 0.984 . S
N548 H555 0.984 . S
N549 C542 1.356 . S
N549 H552 0.984 . S
N549 H553 0.985 . S
H550 N545 0.984 . S
H551 N545 0.985 . S
H552 N549 0.984 . S
H553 N549 0.985 . S
H554 N548 0.984 . S
H555 N548 0.984 . S
H556 N544 0.984 . S
H557 N544 0.985 . S
C558 C559 1.363 . S
C558 C564 1.379 1_565 S
C558 N566 1.356 . S
C559 C558 1.363 . S
C559 C565 1.363 . S
C560 C561 1.363 . S
C560 C565 1.379 1_545 S
C560 N567 1.356 . S
C561 C560 1.363 . S
C561 C564 1.363 . S
N562 C564 1.356 . S
N562 H574 0.984 . S
N562 H575 0.985 . S
N563 C565 1.356 . S
N563 H568 0.984 . S
N563 H569 0.985 . S
C564 C558 1.379 1_545 S
C564 C561 1.363 . S
C564 N562 1.356 . S
C565 C559 1.363 . S
C565 C560 1.379 1_565 S
C565 N563 1.356 . S
N566 C558 1.356 . S
N566 H572 0.984 1_565 S
N566 H573 0.984 . S
N567 C560 1.356 . S
N567 H570 0.984 . S
N567 H571 0.985 1_545 S
H568 N563 0.984 . S
H569 N563 0.985 . S
H570 N567 0.984 . S
H571 N567 0.985 1_565 S
H572 N566 0.984 1_545 S
H573 N566 0.984 . S
H574 N562 0.984 . S
H575 N562 0.985 . S
C289 C4 1.484 . S
C291 C40 1.484 . S
C307 C112 1.484 . S
C309 C76 1.484 . S
C325 C148 1.484 . S
C327 C184 1.484 . S
C343 C220 1.484 . S
C345 C256 1.484 . S
C361 C14 1.522 . S
C363 C86 1.522 . S
C379 C122 1.522 . S
C381 C50 1.522 . S
C397 C158 1.522 . S
C399 C230 1.522 . S
C415 C266 1.522 . S
C417 C194 1.522 . S
C433 C3 1.544 1_556 S
C435 C147 1.544 1_554 S
C451 C39 1.544 1_556 S
C453 C183 1.544 1_554 S
C469 C219 1.544 . S
C471 C75 1.544 . S
C487 C255 1.544 . S
C489 C111 1.544 . S
C505 C38 1.224 . S
C507 C2 1.224 . S
C523 C74 1.224 . S
C525 C110 1.224 . S
C541 C146 1.224 . S
C543 C182 1.224 . S
C559 C218 1.224 . S
C561 C254 1.224 . S
