# Generated by pormake.
# Topology fnz, (5)-cn, num edge types: 1
# Building blocks:
#     Node 0, Type 0, BuildingBlock: BEQFEK_clean_sbu_0, # of connection points: 5
#     Node 1, Type 0, BuildingBlock: BEQFEK_clean_sbu_0, # of connection points: 5
#     Node 2, Type 0, BuildingBlock: BEQFEK_clean_sbu_0, # of connection points: 5
#     Node 3, Type 0, BuildingBlock: BEQFEK_clean_sbu_0, # of connection points: 5
#     Node 4, Type 0, BuildingBlock: BEQFEK_clean_sbu_0, # of connection points: 5
#     Node 5, Type 0, BuildingBlock: BEQFEK_clean_sbu_0, # of connection points: 5
#     Node 6, Type 0, BuildingBlock: BEQFEK_clean_sbu_0, # of connection points: 5
#     Node 7, Type 0, BuildingBlock: BEQFEK_clean_sbu_0, # of connection points: 5
#     Node 8, Type 0, BuildingBlock: BEQFEK_clean_sbu_0, # of connection points: 5
#     Node 9, Type 0, BuildingBlock: BEQFEK_clean_sbu_0, # of connection points: 5
#     Node 10, Type 0, BuildingBlock: BEQFEK_clean_sbu_0, # of connection points: 5
#     Node 11, Type 0, BuildingBlock: BEQFEK_clean_sbu_0, # of connection points: 5
#     Edge 12, Type (0, 0), None
#     Edge 13, Type (0, 0), None
#     Edge 14, Type (0, 0), None
#     Edge 15, Type (0, 0), None
#     Edge 16, Type (0, 0), None
#     Edge 17, Type (0, 0), None
#     Edge 18, Type (0, 0), None
#     Edge 19, Type (0, 0), None
#     Edge 20, Type (0, 0), None
#     Edge 21, Type (0, 0), None
#     Edge 22, Type (0, 0), None
#     Edge 23, Type (0, 0), None
#     Edge 24, Type (0, 0), None
#     Edge 25, Type (0, 0), None
#     Edge 26, Type (0, 0), None
#     Edge 27, Type (0, 0), None
#     Edge 28, Type (0, 0), None
#     Edge 29, Type (0, 0), None
#     Edge 30, Type (0, 0), None
#     Edge 31, Type (0, 0), None
#     Edge 32, Type (0, 0), None
#     Edge 33, Type (0, 0), None
#     Edge 34, Type (0, 0), None
#     Edge 35, Type (0, 0), None
#     Edge 36, Type (0, 0), None
#     Edge 37, Type (0, 0), None
#     Edge 38, Type (0, 0), None
#     Edge 39, Type (0, 0), None
#     Edge 40, Type (0, 0), None
#     Edge 41, Type (0, 0), None
# Relax obj value: 0.324
# Max RMSD: 0.282
# Mean RMSD: 0.237
data_MOF--net-fnz--node1-BEQFEK_clean_sbu_0--edge1-none
_symmetry_space_group_name_H-M    P1
_symmetry_Int_Tables_number       1
_symmetry_cell_setting            triclinic
loop_
_symmetry_equiv_pos_as_xyz
'x, y, z'
_cell_length_a     20.136978
_cell_length_b     20.144434
_cell_length_c     18.193305
_cell_angle_alpha  89.993041
_cell_angle_beta   89.974973
_cell_angle_gamma 120.01216
loop_
_atom_site_label
_atom_site_type_symbol
_atom_site_fract_x
_atom_site_fract_y
_atom_site_fract_z
_atom_type_partial_charge
Co0 Co 0.34964 0.05297 0.19312 0.0
Co1 Co 0.35076 0.0645 1.00678 0.0
C2 C 0.41945 -0.01519 0.09289 0.0
O3 O 0.41158 0.01049 0.15466 0.0
O4 O 0.40748 0.00733 1.03033 0.0
C5 C 0.4223 0.16611 0.32734 0.0
O6 O 0.46984 0.21923 0.28179 0.0
C7 C 0.38351 0.1455 0.84539 0.0
C8 C 0.26325 0.10687 0.81986 0.0
C9 C 0.33647 0.15492 0.79275 0.0
N10 N 0.33916 0.09671 0.90102 0.0
N11 N 0.26739 0.07418 0.883 0.0
C12 C 0.46891 0.18301 0.84199 0.0
H13 H 0.49168 0.16933 0.89177 0.0
H14 H 0.49428 0.24601 0.83656 0.0
H15 H 0.48549 0.16267 0.79234 0.0
C16 C 0.32028 0.16844 0.16681 0.0
N17 N 0.35302 0.12936 0.14159 0.0
N18 N 0.37356 0.14655 0.07256 0.0
C19 C 0.3628 0.20507 1.05501 0.0
C20 C 0.32559 0.21771 0.11291 0.0
C21 C 0.27059 0.1468 0.23418 0.0
H22 H 0.25627 0.08923 0.25436 0.0
H23 H 0.3006 0.19011 0.27786 0.0
H24 H 0.21607 0.14572 0.22185 0.0
O25 O 0.24841 0.96412 0.16538 0.0
O26 O 0.2497 -0.02698 1.04123 0.0
H27 H 0.34318 0.22707 0.94562 0.0
H28 H 0.41202 0.31148 0.9951 0.0
C29 C 0.39097 0.24972 0.98552 0.0
H30 H 0.43917 0.24425 0.96344 0.0
H31 H 0.22039 0.03794 0.91559 0.0
O32 O 0.37566 0.09796 0.30198 0.0
C33 C 0.21931 0.93721 0.10169 0.0
Co34 Co 0.27253 0.37833 0.18584 0.0
Co35 Co 0.28268 0.38515 1.02159 0.0
C36 C 0.41594 0.47202 0.09694 0.0
O37 O 0.38028 0.44231 0.15596 0.0
O38 O 0.38022 0.47584 1.04171 0.0
C39 C 0.23882 0.4663 0.27608 0.0
O40 O 0.2402 0.49686 0.21199 0.0
C41 C 0.25 0.41971 0.88259 0.0
C42 C 0.27805 0.34924 0.81091 0.0
C43 C 0.24005 0.39083 0.81293 0.0
N44 N 0.28328 0.38872 0.92197 0.0
N45 N 0.30505 0.35108 0.87832 0.0
C46 C 0.22295 0.4713 0.91301 0.0
H47 H 0.23102 0.47775 0.97335 0.0
H48 H 0.16228 0.45041 0.89838 0.0
H49 H 0.25724 0.52885 0.88772 0.0
C50 C 0.11144 0.3143 0.15658 0.0
N51 N 0.18415 0.35616 0.13225 0.0
N52 N 0.18468 0.35991 1.06051 0.0
C53 C 0.11064 0.32014 1.03677 0.0
C54 C 0.06187 0.29239 0.09759 0.0
C55 C 0.09058 0.27697 0.23056 0.0
H56 H 0.14188 0.28268 0.25871 0.0
H57 H 0.06321 0.30258 0.26388 0.0
H58 H 0.04795 0.21504 0.22464 0.0
O59 O 0.27662 0.28563 0.17718 0.0
O60 O 0.29908 0.30401 1.05575 0.0
H61 H 0.13301 0.28636 0.93159 0.0
H62 H 0.03512 0.23217 0.96119 0.0
C63 C 0.08667 0.29028 0.96024 0.0
H64 H 0.07142 0.32818 0.92944 0.0
H65 H 0.33286 0.32213 0.89542 0.0
O66 O 0.25743 0.41454 0.28072 0.0
C67 C 0.29614 0.26981 0.11544 0.0
Co68 Co 0.86268 0.27958 0.19355 0.0
Co69 Co 0.85093 0.26914 1.00723 0.0
C70 C 0.93086 0.41754 0.09318 0.0
O71 O 0.90533 0.38401 0.15501 0.0
O72 O 0.9082 0.38304 1.03066 0.0
C73 C 0.74969 0.23913 0.32799 0.0
O74 O 0.69656 0.23366 0.28259 0.0
C75 C 0.76981 0.22077 0.84592 0.0
C76 C 0.8081 0.13888 0.82056 0.0
C77 C 0.76021 0.16417 0.79339 0.0
N78 N 0.81856 0.2252 0.90155 0.0
N79 N 0.84087 0.17578 0.88362 0.0
C80 C 0.73249 0.2688 0.84245 0.0
H81 H 0.74631 0.30537 0.89215 0.0
H82 H 0.66944 0.23126 0.83714 0.0
H83 H 0.75288 0.30561 0.79271 0.0
C84 C 0.74691 0.1348 0.16735 0.0
N85 N 0.78611 0.20664 0.14214 0.0
N86 N 0.76887 0.21006 0.07317 0.0
C87 C 0.71019 0.14085 1.05567 0.0
C88 C 0.69753 0.09093 0.1135 0.0
C89 C 0.76855 0.10663 0.23458 0.0
H90 H 0.82619 0.14983 0.2547 0.0
H91 H 0.72528 0.09332 0.27836 0.0
H92 H 0.76953 0.05318 0.22212 0.0
O93 O -0.04863 0.267 0.16565 0.0
O94 O 0.94241 0.25954 1.04151 0.0
H95 H 0.68819 0.09941 0.94627 0.0
H96 H 0.60373 0.08367 0.99585 0.0
C97 C 0.66551 0.12445 0.98625 0.0
H98 H 0.671 0.17814 0.96426 0.0
H99 H 0.87701 0.16495 0.91624 0.0
O100 O 0.81782 0.26059 0.30249 0.0
C101 C -0.0218 0.2648 0.1019 0.0
Co102 Co 0.53682 0.87696 0.1859 0.0
Co103 Co 0.53064 0.88067 1.02161 0.0
C104 C 0.44346 0.92679 0.09671 0.0
O105 O 0.47296 0.92074 0.15579 0.0
O106 O 0.43977 0.88732 1.04147 0.0
C107 C 0.44879 0.75515 0.27622 0.0
O108 O 0.41862 0.72574 0.2121 0.0
C109 C 0.49671 0.81363 0.88261 0.0
C110 C 0.56756 0.91222 0.81106 0.0
C111 C 0.52594 0.83263 0.81305 0.0
N112 N 0.52749 0.87787 0.92199 0.0
N113 N 0.56536 0.93732 0.87841 0.0
C114 C 0.44497 0.73497 0.91299 0.0
H115 H 0.43824 0.73658 0.97329 0.0
H116 H 0.46594 0.69523 0.89856 0.0
H117 H 0.38751 0.71168 0.88752 0.0
C118 C 0.60101 0.78 0.15664 0.0
N119 N 0.55926 0.81092 0.13229 0.0
N120 N 0.55582 0.80794 1.06053 0.0
C121 C 0.59572 0.7738 1.0368 0.0
C122 C 0.62319 0.75257 0.09764 0.0
C123 C 0.63803 0.79623 0.23072 0.0
H124 H 0.63216 0.84167 0.25896 0.0
H125 H 0.61229 0.74311 0.26386 0.0
H126 H 0.70002 0.81563 0.22498 0.0
O127 O 0.62954 -0.02614 0.17753 0.0
O128 O 0.61156 -0.02181 1.05607 0.0
H129 H 0.63015 0.83048 0.93187 0.0
H130 H 0.68418 0.78669 0.96154 0.0
C131 C 0.62605 0.78009 0.96038 0.0
H132 H 0.58833 0.72708 0.92931 0.0
H133 H 0.59423 -0.00593 0.89554 0.0
O134 O 0.50034 0.82563 0.28078 0.0
C135 C 0.64551 0.00935 0.11586 0.0
Co136 Co 0.63603 0.5662 0.19341 0.0
Co137 Co 0.64653 0.56503 1.00708 0.0
C138 C 0.49805 0.49624 0.09317 0.0
O139 O 0.53158 0.50427 0.15497 0.0
O140 O 0.53259 0.50822 1.03062 0.0
C141 C 0.67644 0.49355 0.32765 0.0
O142 O 0.68202 0.44602 0.28214 0.0
C143 C 0.69481 0.53224 0.8457 0.0
C144 C 0.77663 0.65243 0.82013 0.0
C145 C 0.75134 0.57923 0.79303 0.0
N146 N 0.69042 0.57659 0.90132 0.0
N147 N 0.73979 0.64832 0.88328 0.0
C148 C 0.64678 0.44689 0.84233 0.0
H149 H 0.61025 0.42415 0.89211 0.0
H150 H 0.68436 0.42144 0.83697 0.0
H151 H 0.60991 0.43039 0.79266 0.0
C152 C 0.78091 0.59533 0.16715 0.0
N153 N 0.70908 0.56277 0.14193 0.0
N154 N 0.7057 0.54219 0.07293 0.0
C155 C 0.77494 0.55272 1.05541 0.0
C156 C 0.82482 0.58984 0.11328 0.0
C157 C 0.80906 0.64503 0.23444 0.0
H158 H 0.76585 0.65944 0.25462 0.0
H159 H 0.82232 0.61501 0.27815 0.0
H160 H 0.86256 0.69947 0.22201 0.0
O161 O 0.64852 0.66743 0.1656 0.0
O162 O 0.65608 0.66606 1.04144 0.0
H163 H 0.81651 0.57229 0.94599 0.0
H164 H 0.83202 0.5034 0.9955 0.0
C165 C 0.79134 0.52451 0.98593 0.0
H166 H 0.73762 0.47638 0.96392 0.0
H167 H 0.75064 0.69531 0.91586 0.0
O168 O 0.65495 0.54019 0.30226 0.0
C169 C 0.65077 0.69652 0.10187 0.0
Co170 Co 0.03871 0.64287 0.18585 0.0
Co171 Co 0.03514 0.63285 1.02156 0.0
C172 C -0.01114 0.4996 0.09689 0.0
O173 O -0.0051 0.53521 0.15592 0.0
O174 O 0.02833 0.53533 1.04158 0.0
C175 C 0.16055 0.67662 0.27601 0.0
O176 O 0.18988 0.67568 0.21187 0.0
C177 C 0.10219 0.66613 0.88241 0.0
C178 C 0.00335 0.63786 0.81107 0.0
C179 C 0.08297 0.67618 0.8129 0.0
N180 N 0.03798 0.63241 0.92192 0.0
N181 N -0.02158 0.61051 0.87846 0.0
C182 C 0.18097 0.69335 0.91258 0.0
H183 H 0.17951 0.68513 0.9729 0.0
H184 H 0.22059 0.75406 0.89799 0.0
H185 H 0.20434 0.65926 0.8871 0.0
C186 C 0.13586 0.80394 0.15652 0.0
N187 N 0.10489 0.73127 0.13217 0.0
N188 N 0.1079 0.73081 1.06041 0.0
C189 C 0.14207 0.80484 1.03666 0.0
C190 C 0.16342 0.85352 0.0975 0.0
C191 C 0.11951 0.82475 0.23055 0.0
H192 H 0.07389 0.77345 0.25872 0.0
H193 H 0.17256 0.85201 0.26377 0.0
H194 H 0.10027 0.86743 0.22476 0.0
O195 O 0.94182 0.63874 0.17738 0.0
O196 O 0.93761 0.61637 1.05594 0.0
H197 H 0.08532 0.78252 0.93181 0.0
H198 H 0.12887 0.88027 0.96158 0.0
C199 C 0.13566 0.82888 0.9603 0.0
H200 H 0.18873 0.84442 0.92914 0.0
H201 H 0.92167 0.58236 0.8957 0.0
O202 O 0.09008 0.65781 0.28067 0.0
C203 C 0.90639 0.61924 0.1157 0.0
Co204 Co 0.83132 0.49823 0.59683 0.0
Co205 Co 0.83853 0.64758 0.56941 0.0
C206 C 0.78133 0.56726 0.71942 0.0
O207 O 0.77552 0.5038 0.69633 0.0
O208 O 0.81454 0.62665 0.67846 0.0
C209 C 0.91589 0.43891 0.53046 0.0
O210 O 0.92009 0.48877 0.48151 0.0
C211 C 0.77818 0.74395 0.56477 0.0
C212 C 0.81811 0.80201 0.45682 0.0
C213 C 0.76292 0.78349 0.51066 0.0
N214 N 0.83646 0.7363 0.5415 0.0
N215 N 0.863 0.77387 0.47897 0.0
C216 C 0.72521 0.69123 0.62368 0.0
H217 H 0.71639 0.63298 0.61585 0.0
H218 H 0.66697 0.68249 0.62376 0.0
H219 H 0.75177 0.7127 0.67829 0.0
C220 C 0.74379 0.46696 0.4429 0.0
N221 N 0.77709 0.50577 0.50651 0.0
N222 N 0.76686 0.56516 0.50885 0.0
C223 C 0.72251 0.56235 0.45159 0.0
C224 C 0.70901 0.50318 0.40489 0.0
C225 C 0.74671 0.39785 0.41787 0.0
H226 H 0.75406 0.36773 0.46553 0.0
H227 H 0.69394 0.35839 0.38724 0.0
H228 H 0.79625 0.41615 0.38024 0.0
O229 O 0.94235 0.58044 0.60546 0.0
O230 O 0.94142 0.67189 0.54207 0.0
H231 H 0.72124 0.65968 0.40927 0.0
H232 H 0.62788 0.57629 0.41792 0.0
C233 C 0.68498 0.60927 0.44408 0.0
H234 H 0.67331 0.62431 0.49834 0.0
H235 H 0.90435 0.77118 0.44656 0.0
O236 O 0.86753 0.42044 0.58359 0.0
C237 C -0.02271 0.64055 0.56726 0.0
Co238 Co 0.23448 0.83647 0.43809 0.0
Co239 Co 0.22091 0.83885 0.59662 0.0
C240 C 0.37275 0.94103 0.52688 0.0
O241 O 0.34506 0.90506 0.46681 0.0
O242 O 0.33114 0.92248 0.58411 0.0
C243 C 0.21157 0.72171 0.33511 0.0
O244 O 0.21781 0.6859 0.39259 0.0
C245 C 0.19268 0.7784 0.73798 0.0
C246 C 0.09407 0.79486 0.76163 0.0
C247 C 0.12535 0.74926 0.77662 0.0
N248 N 0.19697 0.83457 0.69562 0.0
N249 N 0.14065 0.84739 0.71358 0.0
C250 C 0.24835 0.74973 0.73541 0.0
H251 H 0.29668 0.78518 0.77305 0.0
H252 H 0.27283 0.75681 0.67953 0.0
H253 H 0.22165 0.68932 0.75394 0.0
C254 C 0.09425 0.71499 0.48654 0.0
N255 N 0.17066 0.7506 0.4959 0.0
N256 N 0.18624 0.73671 0.56239 0.0
C257 C 0.1191 0.68173 0.59233 0.0
C258 C 0.0591 0.67334 0.54847 0.0
C259 C 0.05529 0.72864 0.42305 0.0
H260 H 0.09714 0.76337 0.38038 0.0
H261 H 0.01095 0.67294 0.39987 0.0
H262 H 0.02603 0.75989 0.44163 0.0
O263 O 0.18472 0.90015 0.44091 0.0
O264 O 0.14746 0.86546 0.55514 0.0
H265 H 0.08297 0.60732 0.68628 0.0
H266 H 0.07975 0.56135 0.60173 0.0
C267 C 0.11354 0.61488 0.63377 0.0
H268 H 0.17123 0.62251 0.64368 0.0
H269 H 0.12531 0.88238 0.68503 0.0
O270 O 0.22685 0.79096 0.34066 0.0
C271 C 0.14712 0.89977 0.49747 0.0
Co272 Co 0.4175 0.31612 0.59667 0.0
Co273 Co 0.26816 0.17388 0.56926 0.0
C274 C 0.34843 0.19692 0.71917 0.0
O275 O 0.41188 0.25467 0.69609 0.0
O276 O 0.28903 0.17067 0.67825 0.0
C277 C 0.47685 0.46002 0.53047 0.0
O278 O 0.42699 0.41436 0.48154 0.0
C279 C 0.17168 0.01714 0.56439 0.0
C280 C 0.11405 -0.00071 0.45623 0.0
C281 C 0.13245 0.96257 0.51004 0.0
N282 N 0.17944 0.08312 0.5412 0.0
N283 N 0.1421 0.07224 0.47857 0.0
C284 C 0.22409 0.0167 0.62345 0.0
H285 H 0.28246 0.06605 0.61576 0.0
H286 H 0.23264 -0.03289 0.62359 0.0
H287 H 0.20245 0.02179 0.67799 0.0
C288 C 0.44884 0.26003 0.4426 0.0
N289 N 0.41003 0.25446 0.50628 0.0
N290 N 0.35067 0.18478 0.50866 0.0
C291 C 0.35354 0.14329 0.45138 0.0
C292 C 0.41267 0.18903 0.4046 0.0
C293 C 0.51794 0.33212 0.41752 0.0
H294 H 0.54806 0.3696 0.46517 0.0
H295 H 0.55744 0.31888 0.38684 0.0
H296 H 0.49959 0.3633 0.37992 0.0
O297 O 0.33525 0.34489 0.60541 0.0
O298 O 0.24382 0.25244 0.54208 0.0
H299 H 0.25649 0.04448 0.40903 0.0
H300 H 0.34006 0.03489 0.41793 0.0
C301 C 0.30683 0.05881 0.44398 0.0
H302 H 0.29168 0.03212 0.49825 0.0
H303 H 0.14492 0.11637 0.44623 0.0
O304 O 0.49536 0.43014 0.58353 0.0
C305 C 0.27512 0.31966 0.56727 0.0
Co306 Co 0.07898 0.38046 0.43833 0.0
Co307 Co 0.07695 0.36563 0.59707 0.0
C308 C -0.02547 0.41465 0.5269 0.0
O309 O 0.0103 0.42243 0.46677 0.0
O310 O -0.00666 0.39218 0.58433 0.0
C311 C 0.19351 0.47216 0.33506 0.0
O312 O 0.22915 0.51464 0.39236 0.0
C313 C 0.13797 0.39858 0.73814 0.0
C314 C 0.12075 0.28338 0.76241 0.0
C315 C 0.16691 0.36031 0.77685 0.0
N316 N 0.08136 0.34664 0.69622 0.0
N317 N 0.06811 0.27747 0.71458 0.0
C318 C 0.16707 0.48298 0.73528 0.0
H319 H 0.16021 0.50027 0.6793 0.0
H320 H 0.2275 0.51652 0.75385 0.0
H321 H 0.13172 0.49619 0.77274 0.0
C322 C 0.20051 0.36194 0.48665 0.0
N323 N 0.16502 0.40284 0.49594 0.0
N324 N 0.1791 0.43257 0.56233 0.0
C325 C 0.23408 0.42041 0.59223 0.0
C326 C 0.24225 0.36858 0.54849 0.0
C327 C 0.18668 0.3091 0.42329 0.0
H328 H 0.15196 0.31613 0.38059 0.0
H329 H 0.24234 0.32032 0.40006 0.0
H330 H 0.15534 0.24867 0.44206 0.0
O331 O 0.01551 0.26705 0.44175 0.0
O332 O 0.0499 0.26524 0.55624 0.0
H333 H 0.3087 0.45902 0.68597 0.0
H334 H 0.35459 0.50128 0.60122 0.0
C335 C 0.30112 0.48181 0.63336 0.0
H336 H 0.29373 0.53203 0.64305 0.0
H337 H 0.03267 0.22701 0.68642 0.0
O338 O 0.12435 0.41793 0.34076 0.0
C339 C 0.01585 0.23022 0.49863 0.0
Co340 Co 0.59934 0.08408 0.59718 0.0
Co341 Co 0.74157 0.07686 0.56997 0.0
C342 C 0.71825 0.13413 0.71981 0.0
O343 O 0.66059 0.1399 0.69666 0.0
O344 O 0.74448 0.10092 0.67893 0.0
C345 C 0.45565 -0.00035 0.53063 0.0
O346 O 0.5015 -0.00446 0.48182 0.0
C347 C 0.89837 0.13743 0.56554 0.0
C348 C 0.91673 0.09732 0.45777 0.0
C349 C -0.04682 0.15268 0.51142 0.0
N350 N 0.83251 0.07901 0.54235 0.0
N351 N 0.84369 0.05235 0.47998 0.0
C352 C 0.89847 0.19046 0.62424 0.0
H353 H 0.84898 0.19917 0.61626 0.0
H354 H 0.94794 0.24872 0.62424 0.0
H355 H 0.89337 0.16403 0.67894 0.0
C356 C 0.65576 0.17174 0.44333 0.0
N357 N 0.66121 0.13832 0.50688 0.0
N358 N 0.73082 0.14842 0.50914 0.0
C359 C 0.77239 0.19279 0.45185 0.0
C360 C 0.72676 0.20647 0.40524 0.0
C361 C 0.58376 0.16904 0.41844 0.0
H362 H 0.54626 0.16154 0.46614 0.0
H363 H 0.59718 0.22195 0.38801 0.0
H364 H 0.5525 0.11971 0.38065 0.0
O365 O 0.57047 -0.02697 0.60587 0.0
O366 O 0.66307 -0.02603 0.54275 0.0
H367 H 0.87092 0.19375 0.40966 0.0
H368 H 0.88109 0.2872 0.41793 0.0
C369 C 0.85686 0.23018 0.44428 0.0
H370 H 0.88354 0.24196 0.49854 0.0
H371 H 0.79972 0.01084 0.44767 0.0
O372 O 0.48535 0.04794 0.58378 0.0
C373 C 0.59575 0.93811 0.56783 0.0
Co374 Co 0.53485 0.68137 0.43843 0.0
Co375 Co 0.55036 0.69441 0.59708 0.0
C376 C 0.50107 0.5429 0.52695 0.0
O377 O 0.49297 0.57079 0.46693 0.0
O378 O 0.52385 0.58425 0.58431 0.0
C379 C 0.44297 0.70425 0.33541 0.0
O380 O 0.40083 0.69792 0.39287 0.0
C381 C 0.51803 0.72265 0.73839 0.0
C382 C 0.63329 0.82092 0.76203 0.0
C383 C 0.5564 0.78998 0.77691 0.0
N384 N 0.56986 0.71806 0.69615 0.0
N385 N 0.63909 0.77417 0.71414 0.0
C386 C 0.43362 0.66719 0.7359 0.0
H387 H 0.41616 0.64267 0.68007 0.0
H388 H 0.40004 0.69406 0.75437 0.0
H389 H 0.4206 0.61888 0.77364 0.0
C390 C 0.55333 0.82134 0.48701 0.0
N391 N 0.51256 0.74495 0.49631 0.0
N392 N 0.483 0.72923 0.56279 0.0
C393 C 0.49507 0.79628 0.59278 0.0
C394 C 0.54675 0.85636 0.54897 0.0
C395 C 0.60599 0.86045 0.42351 0.0
H396 H 0.59893 0.81872 0.38078 0.0
H397 H 0.59457 0.90477 0.4004 0.0
H398 H 0.66651 0.88971 0.44208 0.0
O399 O 0.64834 0.73128 0.44136 0.0
O400 O 0.65055 0.76795 0.55576 0.0
H401 H 0.45639 0.83201 0.68672 0.0
H402 H 0.41405 0.83569 0.60208 0.0
C403 C 0.4336 0.80172 0.63408 0.0
H404 H 0.38343 0.74403 0.64375 0.0
H405 H 0.68944 0.78932 0.68567 0.0
O406 O 0.49706 0.68913 0.341 0.0
C407 C 0.68536 0.76867 0.49805 0.0
loop_
_geom_bond_atom_site_label_1
_geom_bond_atom_site_label_2
_geom_bond_distance
_geom_bond_site_symmetry_2
_ccdc_geom_bond_type
Co0 O3 1.970 . S
Co0 N17 1.989 . S
Co0 O25 1.967 . S
Co0 O32 1.920 . S
Co1 O4 1.966 . S
Co1 N10 2.022 . S
Co1 N18 1.993 . S
Co1 O26 1.941 . S
C2 O3 1.258 . S
C2 O4 1.263 1_554 S
O3 Co0 1.970 . S
O3 C2 1.258 . S
O4 Co1 1.966 . S
O4 C2 1.263 1_556 S
C5 O6 1.235 . S
C5 O32 1.289 . S
O6 C5 1.235 . S
C7 C9 1.400 . S
C7 N10 1.351 . S
C7 C12 1.501 . S
C8 C9 1.387 . S
C8 N11 1.341 . S
C9 C7 1.400 . S
C9 C8 1.387 . S
N10 Co1 2.022 . S
N10 C7 1.351 . S
N10 N11 1.365 . S
N11 C8 1.341 . S
N11 N10 1.365 . S
N11 H31 0.862 . S
C12 C7 1.501 . S
C12 H13 0.961 . S
C12 H14 0.961 . S
C12 H15 0.960 . S
H13 C12 0.961 . S
H14 C12 0.961 . S
H15 C12 0.960 . S
C16 N17 1.342 . S
C16 C20 1.401 . S
C16 C21 1.499 . S
N17 Co0 1.989 . S
N17 C16 1.342 . S
N17 N18 1.388 1_554 S
N18 Co1 1.993 . S
N18 N17 1.388 1_556 S
N18 C19 1.346 . S
C19 N18 1.346 . S
C19 C20 1.396 1_556 S
C19 C29 1.510 . S
C20 C16 1.401 . S
C20 C19 1.396 1_554 S
C21 C16 1.499 . S
C21 H22 0.959 . S
C21 H23 0.960 . S
C21 H24 0.961 . S
H22 C21 0.959 . S
H23 C21 0.960 . S
H24 C21 0.961 . S
O25 Co0 1.967 . S
O25 C33 1.258 1_545 S
O26 Co1 1.941 . S
O26 C33 1.266 1_546 S
H27 C29 0.959 . S
H28 C29 0.961 . S
C29 C19 1.510 . S
C29 H27 0.959 . S
C29 H28 0.961 . S
C29 H30 0.960 . S
H30 C29 0.960 . S
H31 N11 0.862 . S
O32 Co0 1.920 . S
O32 C5 1.289 . S
C33 O25 1.258 1_565 S
C33 O26 1.266 1_564 S
Co34 O37 1.970 . S
Co34 N51 1.989 . S
Co34 O59 1.967 . S
Co34 O66 1.920 . S
Co35 O38 1.966 . S
Co35 N44 2.022 . S
Co35 N52 1.993 . S
Co35 O60 1.941 . S
C36 O37 1.258 . S
C36 O38 1.263 1_554 S
O37 Co34 1.970 . S
O37 C36 1.258 . S
O38 Co35 1.966 . S
O38 C36 1.263 1_556 S
C39 O40 1.235 . S
C39 O66 1.289 . S
O40 C39 1.235 . S
C41 C43 1.400 . S
C41 N44 1.351 . S
C41 C46 1.501 . S
C42 C43 1.387 . S
C42 N45 1.341 . S
C43 C41 1.400 . S
C43 C42 1.387 . S
N44 Co35 2.022 . S
N44 C41 1.351 . S
N44 N45 1.365 . S
N45 C42 1.341 . S
N45 N44 1.365 . S
N45 H65 0.862 . S
C46 C41 1.501 . S
C46 H47 0.961 . S
C46 H48 0.961 . S
C46 H49 0.960 . S
H47 C46 0.961 . S
H48 C46 0.961 . S
H49 C46 0.960 . S
C50 N51 1.342 . S
C50 C54 1.401 . S
C50 C55 1.499 . S
N51 Co34 1.989 . S
N51 C50 1.342 . S
N51 N52 1.388 1_554 S
N52 Co35 1.993 . S
N52 N51 1.388 1_556 S
N52 C53 1.346 . S
C53 N52 1.346 . S
C53 C54 1.396 1_556 S
C53 C63 1.510 . S
C54 C50 1.401 . S
C54 C53 1.396 1_554 S
C55 C50 1.499 . S
C55 H56 0.959 . S
C55 H57 0.960 . S
C55 H58 0.961 . S
H56 C55 0.959 . S
H57 C55 0.960 . S
H58 C55 0.961 . S
O59 Co34 1.967 . S
O59 C67 1.258 . S
O60 Co35 1.941 . S
O60 C67 1.266 1_556 S
H61 C63 0.959 . S
H62 C63 0.961 . S
C63 C53 1.510 . S
C63 H61 0.959 . S
C63 H62 0.961 . S
C63 H64 0.960 . S
H64 C63 0.960 . S
H65 N45 0.862 . S
O66 Co34 1.920 . S
O66 C39 1.289 . S
C67 O59 1.258 . S
C67 O60 1.266 1_554 S
Co68 O71 1.970 . S
Co68 N85 1.989 . S
Co68 O93 1.967 . S
Co68 O100 1.920 . S
Co69 O72 1.966 . S
Co69 N78 2.022 . S
Co69 N86 1.993 . S
Co69 O94 1.941 . S
C70 O71 1.258 . S
C70 O72 1.263 1_554 S
O71 Co68 1.970 . S
O71 C70 1.258 . S
O72 Co69 1.966 . S
O72 C70 1.263 1_556 S
C73 O74 1.235 . S
C73 O100 1.289 . S
O74 C73 1.235 . S
C75 C77 1.400 . S
C75 N78 1.351 . S
C75 C80 1.501 . S
C76 C77 1.387 . S
C76 N79 1.341 . S
C77 C75 1.400 . S
C77 C76 1.387 . S
N78 Co69 2.022 . S
N78 C75 1.351 . S
N78 N79 1.365 . S
N79 C76 1.341 . S
N79 N78 1.365 . S
N79 H99 0.862 . S
C80 C75 1.501 . S
C80 H81 0.961 . S
C80 H82 0.961 . S
C80 H83 0.960 . S
H81 C80 0.961 . S
H82 C80 0.961 . S
H83 C80 0.960 . S
C84 N85 1.342 . S
C84 C88 1.401 . S
C84 C89 1.499 . S
N85 Co68 1.989 . S
N85 C84 1.342 . S
N85 N86 1.388 1_554 S
N86 Co69 1.993 . S
N86 N85 1.388 1_556 S
N86 C87 1.346 . S
C87 N86 1.346 . S
C87 C88 1.396 1_556 S
C87 C97 1.510 . S
C88 C84 1.401 . S
C88 C87 1.396 1_554 S
C89 C84 1.499 . S
C89 H90 0.959 . S
C89 H91 0.960 . S
C89 H92 0.961 . S
H90 C89 0.959 . S
H91 C89 0.960 . S
H92 C89 0.961 . S
O93 Co68 1.967 . S
O93 C101 1.258 1_655 S
O94 Co69 1.941 . S
O94 C101 1.266 1_656 S
H95 C97 0.959 . S
H96 C97 0.961 . S
C97 C87 1.510 . S
C97 H95 0.959 . S
C97 H96 0.961 . S
C97 H98 0.960 . S
H98 C97 0.960 . S
H99 N79 0.862 . S
O100 Co68 1.920 . S
O100 C73 1.289 . S
C101 O93 1.258 1_455 S
C101 O94 1.266 1_454 S
Co102 O105 1.970 . S
Co102 N119 1.989 . S
Co102 O127 1.967 1_565 S
Co102 O134 1.920 . S
Co103 O106 1.966 . S
Co103 N112 2.022 . S
Co103 N120 1.993 . S
Co103 O128 1.941 1_565 S
C104 O105 1.258 . S
C104 O106 1.263 1_554 S
O105 Co102 1.970 . S
O105 C104 1.258 . S
O106 Co103 1.966 . S
O106 C104 1.263 1_556 S
C107 O108 1.235 . S
C107 O134 1.289 . S
O108 C107 1.235 . S
C109 C111 1.400 . S
C109 N112 1.351 . S
C109 C114 1.501 . S
C110 C111 1.387 . S
C110 N113 1.341 . S
C111 C109 1.400 . S
C111 C110 1.387 . S
N112 Co103 2.022 . S
N112 C109 1.351 . S
N112 N113 1.365 . S
N113 C110 1.341 . S
N113 N112 1.365 . S
N113 H133 0.862 . S
C114 C109 1.501 . S
C114 H115 0.961 . S
C114 H116 0.961 . S
C114 H117 0.960 . S
H115 C114 0.961 . S
H116 C114 0.961 . S
H117 C114 0.960 . S
C118 N119 1.342 . S
C118 C122 1.401 . S
C118 C123 1.499 . S
N119 Co102 1.989 . S
N119 C118 1.342 . S
N119 N120 1.388 1_554 S
N120 Co103 1.993 . S
N120 N119 1.388 1_556 S
N120 C121 1.346 . S
C121 N120 1.346 . S
C121 C122 1.396 1_556 S
C121 C131 1.510 . S
C122 C118 1.401 . S
C122 C121 1.396 1_554 S
C123 C118 1.499 . S
C123 H124 0.959 . S
C123 H125 0.960 . S
C123 H126 0.961 . S
H124 C123 0.959 . S
H125 C123 0.960 . S
H126 C123 0.961 . S
O127 Co102 1.967 1_545 S
O127 C135 1.258 . S
O128 Co103 1.941 1_545 S
O128 C135 1.266 1_556 S
H129 C131 0.959 . S
H130 C131 0.961 . S
C131 C121 1.510 . S
C131 H129 0.959 . S
C131 H130 0.961 . S
C131 H132 0.960 . S
H132 C131 0.960 . S
H133 N113 0.862 . S
O134 Co102 1.920 . S
O134 C107 1.289 . S
C135 O127 1.258 . S
C135 O128 1.266 1_554 S
Co136 O139 1.970 . S
Co136 N153 1.989 . S
Co136 O161 1.967 . S
Co136 O168 1.920 . S
Co137 O140 1.966 . S
Co137 N146 2.022 . S
Co137 N154 1.993 . S
Co137 O162 1.941 . S
C138 O139 1.258 . S
C138 O140 1.263 1_554 S
O139 Co136 1.970 . S
O139 C138 1.258 . S
O140 Co137 1.966 . S
O140 C138 1.263 1_556 S
C141 O142 1.235 . S
C141 O168 1.289 . S
O142 C141 1.235 . S
C143 C145 1.400 . S
C143 N146 1.351 . S
C143 C148 1.501 . S
C144 C145 1.387 . S
C144 N147 1.341 . S
C145 C143 1.400 . S
C145 C144 1.387 . S
N146 Co137 2.022 . S
N146 C143 1.351 . S
N146 N147 1.365 . S
N147 C144 1.341 . S
N147 N146 1.365 . S
N147 H167 0.862 . S
C148 C143 1.501 . S
C148 H149 0.961 . S
C148 H150 0.961 . S
C148 H151 0.960 . S
H149 C148 0.961 . S
H150 C148 0.961 . S
H151 C148 0.960 . S
C152 N153 1.342 . S
C152 C156 1.401 . S
C152 C157 1.499 . S
N153 Co136 1.989 . S
N153 C152 1.342 . S
N153 N154 1.388 1_554 S
N154 Co137 1.993 . S
N154 N153 1.388 1_556 S
N154 C155 1.346 . S
C155 N154 1.346 . S
C155 C156 1.396 1_556 S
C155 C165 1.510 . S
C156 C152 1.401 . S
C156 C155 1.396 1_554 S
C157 C152 1.499 . S
C157 H158 0.959 . S
C157 H159 0.960 . S
C157 H160 0.961 . S
H158 C157 0.959 . S
H159 C157 0.960 . S
H160 C157 0.961 . S
O161 Co136 1.967 . S
O161 C169 1.258 . S
O162 Co137 1.941 . S
O162 C169 1.266 1_556 S
H163 C165 0.959 . S
H164 C165 0.961 . S
C165 C155 1.510 . S
C165 H163 0.959 . S
C165 H164 0.961 . S
C165 H166 0.960 . S
H166 C165 0.960 . S
H167 N147 0.862 . S
O168 Co136 1.920 . S
O168 C141 1.289 . S
C169 O161 1.258 . S
C169 O162 1.266 1_554 S
Co170 O173 1.970 . S
Co170 N187 1.989 . S
Co170 O195 1.967 1_455 S
Co170 O202 1.920 . S
Co171 O174 1.966 . S
Co171 N180 2.022 . S
Co171 N188 1.993 . S
Co171 O196 1.941 1_455 S
C172 O173 1.258 . S
C172 O174 1.263 1_554 S
O173 Co170 1.970 . S
O173 C172 1.258 . S
O174 Co171 1.966 . S
O174 C172 1.263 1_556 S
C175 O176 1.235 . S
C175 O202 1.289 . S
O176 C175 1.235 . S
C177 C179 1.400 . S
C177 N180 1.351 . S
C177 C182 1.501 . S
C178 C179 1.387 . S
C178 N181 1.341 . S
C179 C177 1.400 . S
C179 C178 1.387 . S
N180 Co171 2.022 . S
N180 C177 1.351 . S
N180 N181 1.365 . S
N181 C178 1.341 . S
N181 N180 1.365 . S
N181 H201 0.862 . S
C182 C177 1.501 . S
C182 H183 0.961 . S
C182 H184 0.961 . S
C182 H185 0.960 . S
H183 C182 0.961 . S
H184 C182 0.961 . S
H185 C182 0.960 . S
C186 N187 1.342 . S
C186 C190 1.401 . S
C186 C191 1.499 . S
N187 Co170 1.989 . S
N187 C186 1.342 . S
N187 N188 1.388 1_554 S
N188 Co171 1.993 . S
N188 N187 1.388 1_556 S
N188 C189 1.346 . S
C189 N188 1.346 . S
C189 C190 1.396 1_556 S
C189 C199 1.510 . S
C190 C186 1.401 . S
C190 C189 1.396 1_554 S
C191 C186 1.499 . S
C191 H192 0.959 . S
C191 H193 0.960 . S
C191 H194 0.961 . S
H192 C191 0.959 . S
H193 C191 0.960 . S
H194 C191 0.961 . S
O195 Co170 1.967 1_655 S
O195 C203 1.258 . S
O196 Co171 1.941 1_655 S
O196 C203 1.266 1_556 S
H197 C199 0.959 . S
H198 C199 0.961 . S
C199 C189 1.510 . S
C199 H197 0.959 . S
C199 H198 0.961 . S
C199 H200 0.960 . S
H200 C199 0.960 . S
H201 N181 0.862 . S
O202 Co170 1.920 . S
O202 C175 1.289 . S
C203 O195 1.258 . S
C203 O196 1.266 1_554 S
Co204 O207 1.970 . S
Co204 N221 1.989 . S
Co204 O229 1.967 . S
Co204 O236 1.920 . S
Co205 O208 1.966 . S
Co205 N214 2.022 . S
Co205 N222 1.993 . S
Co205 O230 1.941 . S
C206 O207 1.258 . S
C206 O208 1.263 . S
O207 Co204 1.970 . S
O207 C206 1.258 . S
O208 Co205 1.966 . S
O208 C206 1.263 . S
C209 O210 1.235 . S
C209 O236 1.289 . S
O210 C209 1.235 . S
C211 C213 1.400 . S
C211 N214 1.351 . S
C211 C216 1.501 . S
C212 C213 1.387 . S
C212 N215 1.341 . S
C213 C211 1.400 . S
C213 C212 1.387 . S
N214 Co205 2.022 . S
N214 C211 1.351 . S
N214 N215 1.365 . S
N215 C212 1.341 . S
N215 N214 1.365 . S
N215 H235 0.862 . S
C216 C211 1.501 . S
C216 H217 0.961 . S
C216 H218 0.961 . S
C216 H219 0.960 . S
H217 C216 0.961 . S
H218 C216 0.961 . S
H219 C216 0.960 . S
C220 N221 1.342 . S
C220 C224 1.401 . S
C220 C225 1.499 . S
N221 Co204 1.989 . S
N221 C220 1.342 . S
N221 N222 1.388 . S
N222 Co205 1.993 . S
N222 N221 1.388 . S
N222 C223 1.346 . S
C223 N222 1.346 . S
C223 C224 1.396 . S
C223 C233 1.510 . S
C224 C220 1.401 . S
C224 C223 1.396 . S
C225 C220 1.499 . S
C225 H226 0.959 . S
C225 H227 0.960 . S
C225 H228 0.961 . S
H226 C225 0.959 . S
H227 C225 0.960 . S
H228 C225 0.961 . S
O229 Co204 1.967 . S
O229 C237 1.258 . S
O230 Co205 1.941 . S
O230 C237 1.266 . S
H231 C233 0.959 . S
H232 C233 0.961 . S
C233 C223 1.510 . S
C233 H231 0.959 . S
C233 H232 0.961 . S
C233 H234 0.960 . S
H234 C233 0.960 . S
H235 N215 0.862 . S
O236 Co204 1.920 . S
O236 C209 1.289 . S
C237 O229 1.258 . S
C237 O230 1.266 . S
Co238 O241 1.970 . S
Co238 N255 1.989 . S
Co238 O263 1.967 . S
Co238 O270 1.920 . S
Co239 O242 1.966 . S
Co239 N248 2.022 . S
Co239 N256 1.993 . S
Co239 O264 1.941 . S
C240 O241 1.258 . S
C240 O242 1.263 . S
O241 Co238 1.970 . S
O241 C240 1.258 . S
O242 Co239 1.966 . S
O242 C240 1.263 . S
C243 O244 1.235 . S
C243 O270 1.289 . S
O244 C243 1.235 . S
C245 C247 1.400 . S
C245 N248 1.351 . S
C245 C250 1.501 . S
C246 C247 1.387 . S
C246 N249 1.341 . S
C247 C245 1.400 . S
C247 C246 1.387 . S
N248 Co239 2.022 . S
N248 C245 1.351 . S
N248 N249 1.365 . S
N249 C246 1.341 . S
N249 N248 1.365 . S
N249 H269 0.862 . S
C250 C245 1.501 . S
C250 H251 0.961 . S
C250 H252 0.961 . S
C250 H253 0.960 . S
H251 C250 0.961 . S
H252 C250 0.961 . S
H253 C250 0.960 . S
C254 N255 1.342 . S
C254 C258 1.401 . S
C254 C259 1.499 . S
N255 Co238 1.989 . S
N255 C254 1.342 . S
N255 N256 1.388 . S
N256 Co239 1.993 . S
N256 N255 1.388 . S
N256 C257 1.346 . S
C257 N256 1.346 . S
C257 C258 1.396 . S
C257 C267 1.510 . S
C258 C254 1.401 . S
C258 C257 1.396 . S
C259 C254 1.499 . S
C259 H260 0.959 . S
C259 H261 0.960 . S
C259 H262 0.961 . S
H260 C259 0.959 . S
H261 C259 0.960 . S
H262 C259 0.961 . S
O263 Co238 1.967 . S
O263 C271 1.258 . S
O264 Co239 1.941 . S
O264 C271 1.266 . S
H265 C267 0.959 . S
H266 C267 0.961 . S
C267 C257 1.510 . S
C267 H265 0.959 . S
C267 H266 0.961 . S
C267 H268 0.960 . S
H268 C267 0.960 . S
H269 N249 0.862 . S
O270 Co238 1.920 . S
O270 C243 1.289 . S
C271 O263 1.258 . S
C271 O264 1.266 . S
Co272 O275 1.970 . S
Co272 N289 1.989 . S
Co272 O297 1.967 . S
Co272 O304 1.920 . S
Co273 O276 1.966 . S
Co273 N282 2.022 . S
Co273 N290 1.993 . S
Co273 O298 1.941 . S
C274 O275 1.258 . S
C274 O276 1.263 . S
O275 Co272 1.970 . S
O275 C274 1.258 . S
O276 Co273 1.966 . S
O276 C274 1.263 . S
C277 O278 1.235 . S
C277 O304 1.289 . S
O278 C277 1.235 . S
C279 C281 1.400 1_545 S
C279 N282 1.351 . S
C279 C284 1.501 . S
C280 C281 1.387 . S
C280 N283 1.341 1_565 S
C281 C279 1.400 1_565 S
C281 C280 1.387 . S
N282 Co273 2.022 . S
N282 C279 1.351 . S
N282 N283 1.365 . S
N283 C280 1.341 1_545 S
N283 N282 1.365 . S
N283 H303 0.862 . S
C284 C279 1.501 . S
C284 H285 0.961 . S
C284 H286 0.961 . S
C284 H287 0.960 . S
H285 C284 0.961 . S
H286 C284 0.961 . S
H287 C284 0.960 . S
C288 N289 1.342 . S
C288 C292 1.401 . S
C288 C293 1.499 . S
N289 Co272 1.989 . S
N289 C288 1.342 . S
N289 N290 1.388 . S
N290 Co273 1.993 . S
N290 N289 1.388 . S
N290 C291 1.346 . S
C291 N290 1.346 . S
C291 C292 1.396 . S
C291 C301 1.510 . S
C292 C288 1.401 . S
C292 C291 1.396 . S
C293 C288 1.499 . S
C293 H294 0.959 . S
C293 H295 0.960 . S
C293 H296 0.961 . S
H294 C293 0.959 . S
H295 C293 0.960 . S
H296 C293 0.961 . S
O297 Co272 1.967 . S
O297 C305 1.258 . S
O298 Co273 1.941 . S
O298 C305 1.266 . S
H299 C301 0.959 . S
H300 C301 0.961 . S
C301 C291 1.510 . S
C301 H299 0.959 . S
C301 H300 0.961 . S
C301 H302 0.960 . S
H302 C301 0.960 . S
H303 N283 0.862 . S
O304 Co272 1.920 . S
O304 C277 1.289 . S
C305 O297 1.258 . S
C305 O298 1.266 . S
Co306 O309 1.970 . S
Co306 N323 1.989 . S
Co306 O331 1.967 . S
Co306 O338 1.920 . S
Co307 O310 1.966 . S
Co307 N316 2.022 . S
Co307 N324 1.993 . S
Co307 O332 1.941 . S
C308 O309 1.258 . S
C308 O310 1.263 . S
O309 Co306 1.970 . S
O309 C308 1.258 . S
O310 Co307 1.966 . S
O310 C308 1.263 . S
C311 O312 1.235 . S
C311 O338 1.289 . S
O312 C311 1.235 . S
C313 C315 1.400 . S
C313 N316 1.351 . S
C313 C318 1.501 . S
C314 C315 1.387 . S
C314 N317 1.341 . S
C315 C313 1.400 . S
C315 C314 1.387 . S
N316 Co307 2.022 . S
N316 C313 1.351 . S
N316 N317 1.365 . S
N317 C314 1.341 . S
N317 N316 1.365 . S
N317 H337 0.862 . S
C318 C313 1.501 . S
C318 H319 0.961 . S
C318 H320 0.961 . S
C318 H321 0.960 . S
H319 C318 0.961 . S
H320 C318 0.961 . S
H321 C318 0.960 . S
C322 N323 1.342 . S
C322 C326 1.401 . S
C322 C327 1.499 . S
N323 Co306 1.989 . S
N323 C322 1.342 . S
N323 N324 1.388 . S
N324 Co307 1.993 . S
N324 N323 1.388 . S
N324 C325 1.346 . S
C325 N324 1.346 . S
C325 C326 1.396 . S
C325 C335 1.510 . S
C326 C322 1.401 . S
C326 C325 1.396 . S
C327 C322 1.499 . S
C327 H328 0.959 . S
C327 H329 0.960 . S
C327 H330 0.961 . S
H328 C327 0.959 . S
H329 C327 0.960 . S
H330 C327 0.961 . S
O331 Co306 1.967 . S
O331 C339 1.258 . S
O332 Co307 1.941 . S
O332 C339 1.266 . S
H333 C335 0.959 . S
H334 C335 0.961 . S
C335 C325 1.510 . S
C335 H333 0.959 . S
C335 H334 0.961 . S
C335 H336 0.960 . S
H336 C335 0.960 . S
H337 N317 0.862 . S
O338 Co306 1.920 . S
O338 C311 1.289 . S
C339 O331 1.258 . S
C339 O332 1.266 . S
Co340 O343 1.970 . S
Co340 N357 1.989 . S
Co340 O365 1.967 . S
Co340 O372 1.920 . S
Co341 O344 1.966 . S
Co341 N350 2.022 . S
Co341 N358 1.993 . S
Co341 O366 1.941 . S
C342 O343 1.258 . S
C342 O344 1.263 . S
O343 Co340 1.970 . S
O343 C342 1.258 . S
O344 Co341 1.966 . S
O344 C342 1.263 . S
C345 O346 1.235 . S
C345 O372 1.289 . S
O346 C345 1.235 . S
C347 C349 1.400 1_655 S
C347 N350 1.351 . S
C347 C352 1.501 . S
C348 C349 1.387 . S
C348 N351 1.341 1_455 S
C349 C347 1.400 1_455 S
C349 C348 1.387 . S
N350 Co341 2.022 . S
N350 C347 1.351 . S
N350 N351 1.365 . S
N351 C348 1.341 1_655 S
N351 N350 1.365 . S
N351 H371 0.862 . S
C352 C347 1.501 . S
C352 H353 0.961 . S
C352 H354 0.961 . S
C352 H355 0.960 . S
H353 C352 0.961 . S
H354 C352 0.961 . S
H355 C352 0.960 . S
C356 N357 1.342 . S
C356 C360 1.401 . S
C356 C361 1.499 . S
N357 Co340 1.989 . S
N357 C356 1.342 . S
N357 N358 1.388 . S
N358 Co341 1.993 . S
N358 N357 1.388 . S
N358 C359 1.346 . S
C359 N358 1.346 . S
C359 C360 1.396 . S
C359 C369 1.510 . S
C360 C356 1.401 . S
C360 C359 1.396 . S
C361 C356 1.499 . S
C361 H362 0.959 . S
C361 H363 0.960 . S
C361 H364 0.961 . S
H362 C361 0.959 . S
H363 C361 0.960 . S
H364 C361 0.961 . S
O365 Co340 1.967 . S
O365 C373 1.258 . S
O366 Co341 1.941 . S
O366 C373 1.266 . S
H367 C369 0.959 . S
H368 C369 0.961 . S
C369 C359 1.510 . S
C369 H367 0.959 . S
C369 H368 0.961 . S
C369 H370 0.960 . S
H370 C369 0.960 . S
H371 N351 0.862 . S
O372 Co340 1.920 . S
O372 C345 1.289 . S
C373 O365 1.258 . S
C373 O366 1.266 . S
Co374 O377 1.970 . S
Co374 N391 1.989 . S
Co374 O399 1.967 . S
Co374 O406 1.920 . S
Co375 O378 1.966 . S
Co375 N384 2.022 . S
Co375 N392 1.993 . S
Co375 O400 1.941 . S
C376 O377 1.258 . S
C376 O378 1.263 . S
O377 Co374 1.970 . S
O377 C376 1.258 . S
O378 Co375 1.966 . S
O378 C376 1.263 . S
C379 O380 1.235 . S
C379 O406 1.289 . S
O380 C379 1.235 . S
C381 C383 1.400 . S
C381 N384 1.351 . S
C381 C386 1.501 . S
C382 C383 1.387 . S
C382 N385 1.341 . S
C383 C381 1.400 . S
C383 C382 1.387 . S
N384 Co375 2.022 . S
N384 C381 1.351 . S
N384 N385 1.365 . S
N385 C382 1.341 . S
N385 N384 1.365 . S
N385 H405 0.862 . S
C386 C381 1.501 . S
C386 H387 0.961 . S
C386 H388 0.961 . S
C386 H389 0.960 . S
H387 C386 0.961 . S
H388 C386 0.961 . S
H389 C386 0.960 . S
C390 N391 1.342 . S
C390 C394 1.401 . S
C390 C395 1.499 . S
N391 Co374 1.989 . S
N391 C390 1.342 . S
N391 N392 1.388 . S
N392 Co375 1.993 . S
N392 N391 1.388 . S
N392 C393 1.346 . S
C393 N392 1.346 . S
C393 C394 1.396 . S
C393 C403 1.510 . S
C394 C390 1.401 . S
C394 C393 1.396 . S
C395 C390 1.499 . S
C395 H396 0.959 . S
C395 H397 0.960 . S
C395 H398 0.961 . S
H396 C395 0.959 . S
H397 C395 0.960 . S
H398 C395 0.961 . S
O399 Co374 1.967 . S
O399 C407 1.258 . S
O400 Co375 1.941 . S
O400 C407 1.266 . S
H401 C403 0.959 . S
H402 C403 0.961 . S
C403 C393 1.510 . S
C403 H401 0.959 . S
C403 H402 0.961 . S
C403 H404 0.960 . S
H404 C403 0.960 . S
H405 N385 0.862 . S
O406 Co374 1.920 . S
O406 C379 1.289 . S
C407 O399 1.258 . S
C407 O400 1.266 . S
C2 C104 3.088 1_545 S
C138 C36 3.088 . S
C172 C70 3.088 1_455 S
C308 C209 4.334 1_455 S
C345 C240 4.334 1_545 S
C277 C376 4.335 . S
C33 C190 1.557 . S
C20 C67 1.311 . S
C101 C54 1.557 . S
C88 C135 1.312 . S
C122 C169 1.557 . S
C156 C203 1.311 . S
C258 C237 1.748 1_455 S
C281 C271 0.435 . S
C326 C305 1.748 . S
C339 C349 0.435 . S
C373 C394 1.748 1_545 S
C407 C213 0.435 . S
C292 C5 2.656 . S
C39 C311 1.645 . S
C73 C360 2.657 . S
C107 C379 1.646 . S
C224 C141 2.656 . S
C175 C243 1.645 . S
C383 C111 0.922 . S
C206 C145 3.129 . S
C247 C179 0.921 . S
C9 C274 3.129 . S
C43 C315 0.921 . S
C77 C342 3.129 . S
