# Generated by pormake.
# Topology uon, (4)-cn, num edge types: 1
# Building blocks:
#     Node 0, Type 0, BuildingBlock: ICAMEG_clean_sbu_1, # of connection points: 4
#     Node 1, Type 0, BuildingBlock: ICAMEG_clean_sbu_1, # of connection points: 4
#     Node 2, Type 0, BuildingBlock: ICAMEG_clean_sbu_1, # of connection points: 4
#     Node 3, Type 0, BuildingBlock: ICAMEG_clean_sbu_1, # of connection points: 4
#     Node 4, Type 0, BuildingBlock: ICAMEG_clean_sbu_1, # of connection points: 4
#     Node 5, Type 0, BuildingBlock: ICAMEG_clean_sbu_1, # of connection points: 4
#     Edge 6, Type (0, 0), BuildingBlock: TEMPAE_clean_linker_10, # of connection points: 2
#     Edge 7, Type (0, 0), BuildingBlock: TEMPAE_clean_linker_10, # of connection points: 2
#     Edge 8, Type (0, 0), BuildingBlock: TEMPAE_clean_linker_10, # of connection points: 2
#     Edge 9, Type (0, 0), BuildingBlock: TEMPAE_clean_linker_10, # of connection points: 2
#     Edge 10, Type (0, 0), BuildingBlock: TEMPAE_clean_linker_10, # of connection points: 2
#     Edge 11, Type (0, 0), BuildingBlock: TEMPAE_clean_linker_10, # of connection points: 2
#     Edge 12, Type (0, 0), BuildingBlock: TEMPAE_clean_linker_10, # of connection points: 2
#     Edge 13, Type (0, 0), BuildingBlock: TEMPAE_clean_linker_10, # of connection points: 2
#     Edge 14, Type (0, 0), BuildingBlock: TEMPAE_clean_linker_10, # of connection points: 2
#     Edge 15, Type (0, 0), BuildingBlock: TEMPAE_clean_linker_10, # of connection points: 2
#     Edge 16, Type (0, 0), BuildingBlock: TEMPAE_clean_linker_10, # of connection points: 2
#     Edge 17, Type (0, 0), BuildingBlock: TEMPAE_clean_linker_10, # of connection points: 2
# Relax obj value: 0.158
# Max RMSD: 0.296
# Mean RMSD: 0.272
data_MOF--net-uon--node1-ICAMEG_clean_sbu_1--edge1-TEMPAE_clean_linker_10
_symmetry_space_group_name_H-M    P1
_symmetry_Int_Tables_number       1
_symmetry_cell_setting            triclinic
loop_
_symmetry_equiv_pos_as_xyz
'x, y, z'
_cell_length_a     37.136072
_cell_length_b     37.107261
_cell_length_c     17.293704
_cell_angle_alpha  89.589567
_cell_angle_beta   90.448261
_cell_angle_gamma 120.01662
loop_
_atom_site_label
_atom_site_type_symbol
_atom_site_fract_x
_atom_site_fract_y
_atom_site_fract_z
_atom_type_partial_charge
Co0 Co 0.17794 0.42458 0.99398 0.0
Co1 Co 0.24524 0.42719 0.13698 0.0
O2 O 0.22283 0.41584 0.03139 0.0
C3 C 0.24711 0.46176 0.87975 0.0
O4 O 0.26296 0.43967 0.90687 0.0
C5 C 0.2221 0.34042 0.10332 0.0
O6 O 0.18602 0.33478 0.07931 0.0
O7 O 0.18845 0.39511 0.1801 0.0
O8 O 0.14605 0.39999 0.09207 0.0
H9 H 0.25168 0.46809 0.4152 0.0
H10 H 0.20383 0.37346 0.89783 0.0
O11 O 0.21004 0.4524 0.89678 0.0
H12 H 0.05385 0.2836 0.94242 0.0
H13 H 0.07934 0.42673 0.79498 0.0
H14 H 0.12683 0.45595 0.06628 0.0
H15 H 0.0911 0.35454 0.99529 0.0
H16 H 0.13552 0.4149 0.84228 0.0
O17 O 0.24879 0.37513 0.13278 0.0
H18 H 0.22476 0.4555 0.28134 0.0
H19 H 0.31216 0.41913 0.2175 0.0
H20 H 0.07042 0.46803 0.02166 0.0
H21 H 0.16799 0.30312 0.84411 0.0
H22 H 0.04624 0.45323 0.88514 0.0
H23 H 0.09228 0.25737 0.86604 0.0
O24 O 0.20584 0.48088 0.03911 0.0
H25 H 0.36318 0.45089 0.96292 0.0
H26 H 0.31823 0.5113 0.1677 0.0
H27 H 0.3888 0.55227 0.11415 0.0
H28 H 0.41158 0.52229 0.01041 0.0
H29 H 0.2929 0.4109 0.01816 0.0
H30 H 0.33985 0.43102 0.3508 0.0
H31 H 0.30966 0.45584 0.45061 0.0
O32 O 0.24257 0.47988 0.1422 0.0
C33 C 0.15293 0.38889 0.15819 0.0
C34 C 0.2652 0.45743 0.37215 0.0
C35 C 0.31465 0.43657 0.33603 0.0
N36 N 0.26716 0.43701 0.24158 0.0
C37 C 0.25018 0.45038 0.29624 0.0
C38 C 0.29881 0.42983 0.2607 0.0
C39 C 0.2977 0.45051 0.392 0.0
C40 C 0.17107 0.35458 0.90696 0.0
N41 N 0.14982 0.36903 0.94861 0.0
C42 C 0.1508 0.31432 0.87666 0.0
C43 C 0.10837 0.28862 0.88917 0.0
C44 C 0.08682 0.3033 0.93203 0.0
C45 C 0.10819 0.34364 0.96177 0.0
C46 C 0.08951 0.43316 0.85465 0.0
C47 C 0.11628 0.44924 0.00693 0.0
C48 C 0.12132 0.4266 0.88168 0.0
N49 N 0.13398 0.43421 0.95717 0.0
C50 C 0.08444 0.45626 0.98192 0.0
C51 C 0.07094 0.44802 0.90528 0.0
C52 C 0.22895 0.49801 0.09766 0.0
C53 C 0.35356 0.46438 0.00786 0.0
C54 C 0.32778 0.49799 0.12243 0.0
C55 C 0.3679 0.52129 0.0926 0.0
C56 C 0.3807 0.50443 0.03452 0.0
N57 N 0.30114 0.45886 0.09544 0.0
C58 C 0.31378 0.44184 0.03952 0.0
Co59 Co 0.79085 0.24303 0.55731 0.0
Co60 Co 0.87404 0.26816 0.67939 0.0
O61 O 0.84807 0.2783 0.59013 0.0
C62 C 0.79648 0.32286 0.59571 0.0
O63 O 0.81611 0.32235 0.65869 0.0
C64 C 0.91867 0.26422 0.54312 0.0
O65 O 0.88186 0.23747 0.51574 0.0
O66 O 0.84646 0.20724 0.6574 0.0
O67 O 0.79537 0.19203 0.57076 0.0
H68 H 0.88019 0.19469 0.92025 0.0
H69 H 0.84841 0.31475 0.46002 0.0
O70 O 0.7849 0.29379 0.54598 0.0
H71 H 0.80243 0.19096 0.29604 0.0
H72 H 0.66493 0.20762 0.39347 0.0
H73 H 0.72024 0.16238 0.61016 0.0
H74 H 0.77555 0.18401 0.42865 0.0
H75 H 0.7382 0.25037 0.43453 0.0
O76 O 0.92216 0.27906 0.61094 0.0
H77 H 0.84582 0.20731 0.80907 0.0
H78 H 0.96134 0.30913 0.73693 0.0
H79 H 0.64693 0.11858 0.57076 0.0
H80 H 0.87599 0.32317 0.32769 0.0
H81 H 0.6188 0.14116 0.46168 0.0
H82 H 0.85309 0.26094 0.24487 0.0
O83 O 0.77111 0.23631 0.66494 0.0
H84 H 0.95386 0.42092 0.61538 0.0
H85 H 0.88319 0.31686 0.82155 0.0
H86 H 0.91553 0.39158 0.852 0.0
H87 H 0.95129 0.44418 0.74852 0.0
H88 H 0.92082 0.34592 0.58731 0.0
H89 H 0.99702 0.29755 0.84714 0.0
H90 H 0.95633 0.24004 0.93981 0.0
O91 O 0.82561 0.25716 0.74684 0.0
C92 C 0.81631 0.18152 0.61492 0.0
C93 C 0.89822 0.21995 0.88042 0.0
C94 C 0.96382 0.27763 0.83931 0.0
N95 N 0.90151 0.25911 0.76699 0.0
C96 C 0.87891 0.22731 0.81751 0.0
C97 C 0.94346 0.284 0.77697 0.0
C98 C 0.94096 0.24537 0.89131 0.0
C99 C 0.83798 0.2876 0.42398 0.0
N100 N 0.81022 0.24898 0.45172 0.0
C101 C 0.85383 0.29253 0.34924 0.0
C102 C 0.84101 0.25759 0.30284 0.0
C103 C 0.81259 0.21831 0.33153 0.0
C104 C 0.79749 0.21456 0.40662 0.0
C105 C 0.67685 0.19739 0.44092 0.0
C106 C 0.70835 0.17225 0.56223 0.0
C107 C 0.71828 0.22148 0.46444 0.0
N108 N 0.73357 0.20866 0.52411 0.0
C109 C 0.66675 0.14739 0.54035 0.0
C110 C 0.65099 0.1601 0.47921 0.0
C111 C 0.78695 0.24281 0.73254 0.0
C112 C 0.93849 0.3983 0.66102 0.0
C113 C 0.8986 0.33957 0.77618 0.0
C114 C 0.91692 0.38183 0.79379 0.0
C115 C 0.93699 0.41133 0.73571 0.0
N116 N 0.90039 0.32704 0.70288 0.0
C117 C 0.91987 0.35578 0.64555 0.0
Co118 Co 0.57773 0.74839 0.64289 0.0
Co119 Co 0.57207 0.8136 0.77941 0.0
O120 O 0.58259 0.80111 0.67521 0.0
C121 C 0.52761 0.76942 0.53407 0.0
O122 O 0.54769 0.80825 0.55631 0.0
C123 C 0.65809 0.87858 0.74141 0.0
O124 O 0.66399 0.84896 0.71451 0.0
O125 O 0.60514 0.78995 0.8253 0.0
O126 O 0.61085 0.74922 0.73565 0.0
H127 H 0.53338 0.78234 0.05946 0.0
H128 H 0.61508 0.82255 0.53276 0.0
O129 O 0.54064 0.74449 0.55272 0.0
H130 H 0.72028 0.77991 0.56227 0.0
H131 H 0.57648 0.64708 0.44942 0.0
H132 H 0.56155 0.67103 0.72449 0.0
H133 H 0.65358 0.74196 0.63054 0.0
H134 H 0.5818 0.71306 0.49149 0.0
O135 O 0.62359 0.86956 0.77265 0.0
H136 H 0.54541 0.76663 0.9269 0.0
H137 H 0.57902 0.88901 0.85416 0.0
H138 H 0.5562 0.60471 0.68521 0.0
H139 H 0.68091 0.86104 0.46368 0.0
H140 H 0.56391 0.59251 0.54675 0.0
H141 H 0.73439 0.83995 0.47786 0.0
O142 O 0.52572 0.71601 0.7018 0.0
H143 H 0.54568 0.90433 0.59704 0.0
H144 H 0.4876 0.80146 0.80855 0.0
H145 H 0.44488 0.82811 0.74953 0.0
H146 H 0.47387 0.87994 0.64291 0.0
H147 H 0.58696 0.87604 0.65629 0.0
H148 H 0.56762 0.90616 0.986 0.0
H149 H 0.54449 0.85255 0.08965 0.0
O150 O 0.52013 0.75819 0.78726 0.0
C151 C 0.61792 0.76555 0.80298 0.0
C152 C 0.54331 0.80592 0.01473 0.0
C153 C 0.56258 0.87543 0.97352 0.0
N154 N 0.56253 0.82675 0.88281 0.0
C155 C 0.55005 0.79716 0.93956 0.0
C156 C 0.56904 0.86556 0.89902 0.0
C157 C 0.54959 0.84533 0.03165 0.0
C158 C 0.63724 0.81234 0.53878 0.0
N159 N 0.62939 0.77909 0.58471 0.0
C160 C 0.67498 0.83466 0.49967 0.0
C161 C 0.70502 0.82291 0.5078 0.0
C162 C 0.69712 0.78927 0.55511 0.0
C163 C 0.65913 0.76783 0.59358 0.0
C164 C 0.57321 0.65209 0.50993 0.0
C165 C 0.56511 0.66599 0.66425 0.0
C166 C 0.5761 0.68931 0.53402 0.0
N167 N 0.57257 0.69605 0.61048 0.0
C168 C 0.56192 0.62834 0.64229 0.0
C169 C 0.56618 0.62149 0.56459 0.0
C170 C 0.5064 0.72304 0.7545 0.0
C171 C 0.53266 0.88168 0.64335 0.0
C172 C 0.5003 0.82356 0.76151 0.0
C173 C 0.47605 0.83881 0.72871 0.0
C174 C 0.49235 0.86794 0.66901 0.0
N175 N 0.53959 0.83665 0.73521 0.0
C176 C 0.556 0.86572 0.67751 0.0
Co177 Co 0.75956 0.55279 0.22954 0.0
Co178 Co 0.73115 0.60942 0.34622 0.0
O179 O 0.72334 0.57416 0.25762 0.0
C180 C 0.67936 0.4779 0.26354 0.0
O181 O 0.67842 0.49758 0.3255 0.0
C182 C 0.73827 0.65975 0.20885 0.0
O183 O 0.76613 0.65062 0.18478 0.0
O184 O 0.79246 0.64332 0.32908 0.0
O185 O 0.80993 0.60842 0.24561 0.0
H186 H 0.79841 0.68738 0.59088 0.0
H187 H 0.68991 0.53876 0.12569 0.0
O188 O 0.70937 0.49592 0.21582 0.0
H189 H 0.81697 0.61839 0.97063 0.0
H190 H 0.79942 0.46406 0.07404 0.0
H191 H 0.83913 0.56297 0.29023 0.0
H192 H 0.82121 0.59784 0.10496 0.0
H193 H 0.75543 0.49389 0.10904 0.0
O194 O 0.72139 0.64699 0.27498 0.0
H195 H 0.78902 0.64162 0.48049 0.0
H196 H 0.68804 0.6544 0.3974 0.0
H197 H 0.88411 0.53414 0.25695 0.0
H198 H 0.68419 0.55853 0.99152 0.0
H199 H 0.86432 0.48427 0.14815 0.0
H200 H 0.74806 0.59875 0.91316 0.0
O201 O 0.76408 0.53907 0.33831 0.0
H202 H 0.58002 0.53596 0.26998 0.0
H203 H 0.67945 0.56843 0.48506 0.0
H204 H 0.60419 0.52553 0.50986 0.0
H205 H 0.55392 0.50915 0.40188 0.0
H206 H 0.6555 0.57852 0.24764 0.0
H207 H 0.6963 0.7003 0.5068 0.0
H208 H 0.75179 0.71701 0.60455 0.0
O209 O 0.74112 0.57174 0.41659 0.0
C210 C 0.81925 0.63942 0.28957 0.0
C211 C 0.77403 0.68022 0.54879 0.0
C212 C 0.71679 0.68755 0.50152 0.0
N213 N 0.73783 0.64512 0.43297 0.0
C214 C 0.76852 0.65426 0.4863 0.0
C215 C 0.7123 0.6616 0.43966 0.0
C216 C 0.74791 0.69689 0.55638 0.0
C217 C 0.71778 0.5559 0.09163 0.0
N218 N 0.75581 0.5669 0.12281 0.0
C219 C 0.71438 0.56715 0.01584 0.0
C220 C 0.75023 0.58977 0.97194 0.0
C221 C 0.78891 0.60081 0.00416 0.0
C222 C 0.79113 0.58911 0.08021 0.0
C223 C 0.80844 0.48586 0.1214 0.0
C224 C 0.83048 0.54158 0.24239 0.0
C225 C 0.78365 0.50282 0.14149 0.0
N226 N 0.79495 0.53048 0.20104 0.0
C227 C 0.856 0.52523 0.22399 0.0
C228 C 0.84485 0.49722 0.16301 0.0
C229 C 0.75612 0.54783 0.40479 0.0
C230 C 0.60161 0.54302 0.31755 0.0
C231 C 0.65776 0.56134 0.43774 0.0
C232 C 0.61519 0.5371 0.45216 0.0
C233 C 0.58699 0.52793 0.39155 0.0
N234 N 0.67185 0.57625 0.36511 0.0
C235 C 0.6444 0.56724 0.30532 0.0
Co236 Co 0.24246 0.82116 0.32656 0.0
Co237 Co 0.18034 0.75362 0.47095 0.0
O238 O 0.18991 0.77582 0.36584 0.0
C239 C 0.21179 0.74836 0.21926 0.0
O240 O 0.17445 0.7323 0.24833 0.0
C241 C 0.1182 0.77955 0.44061 0.0
O242 O 0.14865 0.81457 0.4131 0.0
O243 O 0.20837 0.81096 0.51408 0.0
O244 O 0.24777 0.85537 0.41985 0.0
H245 H 0.22005 0.7459 0.74626 0.0
H246 H 0.16338 0.78782 0.22929 0.0
O247 O 0.23977 0.78571 0.23547 0.0
H248 H 0.21816 0.93839 0.25196 0.0
H249 H 0.33947 0.91462 0.11973 0.0
H250 H 0.32411 0.87972 0.39766 0.0
H251 H 0.25491 0.90601 0.3136 0.0
H252 H 0.27325 0.85766 0.17075 0.0
O253 O 0.1259 0.75269 0.47095 0.0
H254 H 0.23221 0.77252 0.61218 0.0
H255 H 0.10601 0.68851 0.55449 0.0
H256 H 0.39077 0.93706 0.34939 0.0
H257 H 0.12591 0.81873 0.16718 0.0
H258 H 0.39869 0.95492 0.20947 0.0
H259 H 0.1531 0.89471 0.17791 0.0
O260 O 0.27439 0.7988 0.37976 0.0
H261 H 0.07825 0.63717 0.30043 0.0
H262 H 0.18911 0.67868 0.49622 0.0
H263 H 0.15715 0.60865 0.43925 0.0
H264 H 0.1013 0.58745 0.34049 0.0
H265 H 0.11191 0.70735 0.35701 0.0
H266 H 0.09238 0.66112 0.68799 0.0
H267 H 0.1497 0.68978 0.78484 0.0
O268 O 0.23429 0.75359 0.47141 0.0
C269 C 0.23359 0.8475 0.4889 0.0
C270 C 0.19486 0.73305 0.70451 0.0
C271 C 0.12319 0.6855 0.67183 0.0
N272 N 0.16995 0.7318 0.57553 0.0
C273 C 0.2016 0.74792 0.62851 0.0
C274 C 0.13107 0.70116 0.59637 0.0
C275 C 0.15537 0.70159 0.72614 0.0
C276 C 0.17627 0.82072 0.23353 0.0
N277 N 0.21228 0.84484 0.27366 0.0
C278 C 0.15451 0.8382 0.19848 0.0
C279 C 0.16967 0.88078 0.20473 0.0
C280 C 0.20612 0.90526 0.24624 0.0
C281 C 0.22689 0.88665 0.28087 0.0
C282 C 0.33636 0.90722 0.18083 0.0
C283 C 0.32729 0.88748 0.33683 0.0
C284 C 0.29901 0.87497 0.20997 0.0
N285 N 0.29474 0.86579 0.2872 0.0
C286 C 0.36513 0.91988 0.30976 0.0
C287 C 0.36957 0.92984 0.23123 0.0
C288 C 0.26796 0.77257 0.43308 0.0
C289 C 0.10263 0.64606 0.34327 0.0
C290 C 0.16525 0.67001 0.45254 0.0
C291 C 0.14701 0.63012 0.42093 0.0
C292 C 0.11562 0.61821 0.36568 0.0
N293 N 0.15293 0.6975 0.42921 0.0
C294 C 0.12165 0.68573 0.37602 0.0
Co295 Co 0.44944 0.21095 0.8911 0.0
Co296 Co 0.39416 0.12643 0.01136 0.0
O297 O 0.42885 0.15361 0.92186 0.0
C298 C 0.52456 0.20638 0.92719 0.0
O299 O 0.50491 0.18598 0.9896 0.0
C300 C 0.34412 0.08165 0.87516 0.0
O301 O 0.35263 0.11829 0.84888 0.0
O302 O 0.35951 0.15295 0.99192 0.0
O303 O 0.39354 0.205 0.90629 0.0
H304 H 0.31658 0.1165 0.25489 0.0
H305 H 0.46417 0.15526 0.79063 0.0
O306 O 0.50652 0.21819 0.87841 0.0
H307 H 0.383 0.2003 0.63124 0.0
H308 H 0.53668 0.3389 0.73043 0.0
H309 H 0.43817 0.28007 0.94728 0.0
H310 H 0.40357 0.22599 0.76466 0.0
H311 H 0.50781 0.26541 0.76906 0.0
O312 O 0.3569 0.07833 0.94218 0.0
H313 H 0.36192 0.15247 0.14352 0.0
H314 H 0.35029 0.03864 0.06674 0.0
H315 H 0.46602 0.35356 0.91032 0.0
H316 H 0.4444 0.12889 0.65742 0.0
H317 H 0.51569 0.38346 0.80119 0.0
H318 H 0.40341 0.15134 0.57688 0.0
O319 O 0.46327 0.23003 0.99911 0.0
H320 H 0.4698 0.0507 0.9405 0.0
H321 H 0.43616 0.1175 0.1515 0.0
H322 H 0.48065 0.08696 0.17855 0.0
H323 H 0.49766 0.05318 0.07261 0.0
H324 H 0.42574 0.08191 0.91585 0.0
H325 H 0.30469 0.00138 0.1771 0.0
H326 H 0.28765 0.04041 0.27218 0.0
O327 O 0.43159 0.1748 0.07972 0.0
C328 C 0.3628 0.18321 0.95085 0.0
C329 C 0.3239 0.09919 0.21399 0.0
C330 C 0.31717 0.03456 0.17026 0.0
N331 N 0.35897 0.09773 0.0991 0.0
C332 C 0.34964 0.11941 0.15096 0.0
C333 C 0.34294 0.0558 0.10784 0.0
C334 C 0.30764 0.05648 0.22361 0.0
C335 C 0.44669 0.16547 0.75561 0.0
N336 N 0.43527 0.19232 0.78508 0.0
C337 C 0.43544 0.15031 0.68037 0.0
C338 C 0.41239 0.16288 0.63525 0.0
C339 C 0.40091 0.19034 0.66572 0.0
C340 C 0.41262 0.20476 0.74128 0.0
C341 C 0.51496 0.3262 0.77792 0.0
C342 C 0.45948 0.29274 0.89929 0.0
C343 C 0.49855 0.28464 0.80006 0.0
N344 N 0.47101 0.26838 0.85979 0.0
C345 C 0.47527 0.33442 0.87882 0.0
C346 C 0.50317 0.35118 0.81764 0.0
C347 C 0.45498 0.21372 0.06633 0.0
C348 C 0.46249 0.0652 0.9872 0.0
C349 C 0.44348 0.1029 0.10509 0.0
C350 C 0.46863 0.08561 0.12077 0.0
C351 C 0.47815 0.06665 0.06131 0.0
N352 N 0.42809 0.1012 0.03232 0.0
C353 C 0.43739 0.08277 0.97367 0.0
C354 C 0.27216 0.31433 0.11521 0.0
C355 C 0.23474 0.30937 0.08535 0.0
C356 C 0.28761 0.28868 0.0911 0.0
C357 C 0.26516 0.25733 0.0355 0.0
C358 C 0.22652 0.25101 0.00742 0.0
C359 C 0.21168 0.27708 0.03284 0.0
C360 C 0.32884 0.29629 0.1229 0.0
C361 C 0.20176 0.21795 0.94809 0.0
C362 C 0.33527 0.23108 0.92051 0.0
C363 C 0.3316 0.19661 0.9615 0.0
C364 C 0.31179 0.24961 0.94098 0.0
C365 C 0.28384 0.23324 0.00382 0.0
C366 C 0.27763 0.19662 0.04158 0.0
C367 C 0.30153 0.17869 0.01991 0.0
C368 C 0.31913 0.28848 0.89881 0.0
C369 C 0.24794 0.17807 0.10852 0.0
H370 H 0.29008 0.33908 0.15604 0.0
H371 H 0.18281 0.27314 0.00921 0.0
H372 H 0.32563 0.26702 0.14687 0.0
H373 H 0.35202 0.30673 0.07564 0.0
H374 H 0.34117 0.32027 0.16902 0.0
H375 H 0.17066 0.21451 0.93736 0.0
H376 H 0.21899 0.2261 0.89267 0.0
H377 H 0.1976 0.18748 0.96711 0.0
H378 H 0.35807 0.24503 0.87482 0.0
H379 H 0.29816 0.15192 0.05178 0.0
H380 H 0.33556 0.3157 0.93772 0.0
H381 H 0.28912 0.2861 0.88211 0.0
H382 H 0.33819 0.29446 0.846 0.0
H383 H 0.26103 0.19863 0.15963 0.0
H384 H 0.24236 0.14664 0.1245 0.0
H385 H 0.21769 0.17583 0.09449 0.0
C386 C 0.99066 0.31886 0.5054 0.0
C387 C 0.95499 0.28031 0.49128 0.0
C388 C 0.02333 0.3363 0.45176 0.0
C389 C 0.02047 0.31429 0.38324 0.0
C390 C 0.98511 0.27475 0.37003 0.0
C391 C 0.95266 0.25841 0.42388 0.0
C392 C 0.06033 0.37881 0.46731 0.0
C393 C 0.98122 0.24998 0.29839 0.0
C394 C 0.08355 0.37398 0.20753 0.0
C395 C 0.11817 0.36847 0.21368 0.0
C396 C 0.05168 0.35681 0.26272 0.0
C397 C 0.05411 0.33287 0.32459 0.0
C398 C 0.08851 0.32642 0.3301 0.0
C399 C 0.1203 0.34461 0.27502 0.0
C400 C 0.01571 0.3648 0.25548 0.0
C401 C 0.09174 0.3003 0.39418 0.0
H402 H 0.99244 0.33609 0.55702 0.0
H403 H 0.92519 0.22854 0.41275 0.0
H404 H 0.0894 0.3773 0.46669 0.0
H405 H 0.06288 0.40074 0.42086 0.0
H406 H 0.05808 0.39158 0.52383 0.0
H407 H 0.95272 0.21879 0.29881 0.0
H408 H 0.98038 0.26711 0.24622 0.0
H409 H 0.00871 0.24587 0.29311 0.0
H410 H 0.08181 0.39258 0.16061 0.0
H411 H 0.14681 0.33995 0.27985 0.0
H412 H 0.01368 0.38044 0.30837 0.0
H413 H 0.98604 0.33489 0.2503 0.0
H414 H 0.01875 0.38454 0.20455 0.0
H415 H 0.09241 0.31419 0.45112 0.0
H416 H 0.12003 0.29747 0.38915 0.0
H417 H 0.064 0.26863 0.3934 0.0
C418 C 0.81982 0.12247 0.67901 0.0
C419 C 0.80237 0.13653 0.62233 0.0
C420 C 0.80174 0.07994 0.69672 0.0
C421 C 0.76541 0.0508 0.6568 0.0
C422 C 0.74942 0.06447 0.59587 0.0
C423 C 0.76811 0.10712 0.57928 0.0
C424 C 0.8199 0.06656 0.76169 0.0
C425 C 0.71081 0.03437 0.55162 0.0
C426 C 0.72144 0.93388 0.67383 0.0
C427 C 0.68894 0.92283 0.72647 0.0
C428 C 0.74765 0.97566 0.6523 0.0
C429 C 0.7412 0.00697 0.68437 0.0
C430 C 0.70957 0.99612 0.73995 0.0
C431 C 0.68384 0.95424 0.76023 0.0
C432 C 0.78107 0.98606 0.59295 0.0
C433 C 0.70178 0.02859 0.77588 0.0
H434 H 0.84641 0.1448 0.71244 0.0
H435 H 0.75452 0.11746 0.5349 0.0
H436 H 0.79903 0.05726 0.81252 0.0
H437 H 0.82231 0.03911 0.74443 0.0
H438 H 0.85118 0.09189 0.77957 0.0
H439 H 0.70501 0.04925 0.50074 0.0
H440 H 0.71339 0.00744 0.53151 0.0
H441 H 0.68343 0.02211 0.59029 0.0
H442 H 0.72549 0.90979 0.64724 0.0
H443 H 0.65896 0.94602 0.80127 0.0
H444 H 0.81138 0.01169 0.61394 0.0
H445 H 0.77327 0.99704 0.53894 0.0
H446 H 0.7846 0.95881 0.57899 0.0
H447 H 0.73087 0.05375 0.80191 0.0
H448 H 0.67749 0.01532 0.82131 0.0
H449 H 0.69171 0.04303 0.73055 0.0
C450 C 0.74894 0.70459 0.09353 0.0
C451 C 0.72354 0.68072 0.15489 0.0
C452 C 0.73423 0.72135 0.0369 0.0
C453 C 0.69277 0.71319 0.04071 0.0
C454 C 0.66719 0.68975 0.10339 0.0
C455 C 0.68307 0.67418 0.16031 0.0
C456 C 0.76278 0.747 0.97206 0.0
C457 C 0.62257 0.67976 0.10871 0.0
C458 C 0.65875 0.7788 0.92576 0.0
C459 C 0.64025 0.75393 0.86036 0.0
C460 C 0.67688 0.76643 0.98402 0.0
C461 C 0.67567 0.72784 0.97761 0.0
C462 C 0.65764 0.70291 0.91121 0.0
C463 C 0.64064 0.71651 0.85293 0.0
C464 C 0.69685 0.79442 0.05289 0.0
C465 C 0.65521 0.66125 0.90272 0.0
H466 H 0.78033 0.70984 0.08931 0.0
H467 H 0.6632 0.65539 0.20723 0.0
H468 H 0.75091 0.73046 0.91634 0.0
H469 H 0.76352 0.77718 0.96694 0.0
H470 H 0.79506 0.75321 0.98084 0.0
H471 H 0.60709 0.66196 0.16196 0.0
H472 H 0.62102 0.70885 0.1079 0.0
H473 H 0.60483 0.66119 0.05772 0.0
H474 H 0.65887 0.80793 0.93169 0.0
H475 H 0.62633 0.69704 0.80281 0.0
H476 H 0.72928 0.80094 0.06038 0.0
H477 H 0.67971 0.77858 0.10628 0.0
H478 H 0.69729 0.82447 0.04704 0.0
H479 H 0.68684 0.6652 0.90509 0.0
H480 H 0.64011 0.6456 0.84759 0.0
H481 H 0.63732 0.64055 0.9515 0.0
C482 C 0.89444 0.66588 0.26166 0.0
C483 C 0.86396 0.67039 0.30081 0.0
C484 C 0.93653 0.68944 0.28251 0.0
C485 C 0.94855 0.71839 0.34375 0.0
C486 C 0.91846 0.72536 0.3796 0.0
C487 C 0.8765 0.70128 0.35771 0.0
C488 C 0.96771 0.68121 0.24246 0.0
C489 C 0.93009 0.75621 0.44464 0.0
C490 C 0.04202 0.73118 0.45666 0.0
C491 C 0.07445 0.76767 0.42425 0.0
C492 C 0.00069 0.71586 0.43319 0.0
C493 C 0.9915 0.7375 0.37572 0.0
C494 C 0.02381 0.77542 0.34543 0.0
C495 C 0.06496 0.79014 0.37019 0.0
C496 C 0.9671 0.6754 0.46733 0.0
C497 C 0.01522 0.79936 0.28415 0.0
H498 H 0.88529 0.64243 0.21714 0.0
H499 H 0.85334 0.7053 0.38812 0.0
H500 H 0.99519 0.71088 0.22415 0.0
H501 H 0.97883 0.66565 0.28335 0.0
H502 H 0.95421 0.66101 0.19091 0.0
H503 H 0.90444 0.7622 0.45894 0.0
H504 H 0.93773 0.74392 0.49712 0.0
H505 H 0.95813 0.78617 0.4295 0.0
H506 H 0.04905 0.71374 0.49873 0.0
H507 H 0.08984 0.81829 0.3446 0.0
H508 H 0.95387 0.65124 0.42169 0.0
H509 H 0.94136 0.67931 0.48978 0.0
H510 H 0.97897 0.66393 0.51507 0.0
H511 H 0.00608 0.78143 0.22944 0.0
H512 H 0.04282 0.83039 0.27272 0.0
H513 H 0.98892 0.80363 0.30157 0.0
C514 C 0.32964 0.01116 0.83342 0.0
C515 C 0.32382 0.04539 0.82292 0.0
C516 C 0.3142 0.97873 0.77915 0.0
C517 C 0.29168 0.98023 0.71384 0.0
C518 C 0.28455 0.01407 0.70444 0.0
C519 C 0.30109 0.04645 0.75864 0.0
C520 C 0.32306 0.94351 0.79047 0.0
C521 C 0.25995 0.01639 0.63654 0.0
C522 C 0.28594 0.91901 0.53416 0.0
C523 C 0.24755 0.88246 0.54393 0.0
C524 C 0.30079 0.951 0.58923 0.0
C525 C 0.27618 0.94675 0.65462 0.0
C526 C 0.23686 0.91047 0.66354 0.0
C527 C 0.22323 0.87858 0.60859 0.0
C528 C 0.34319 0.98895 0.57828 0.0
C529 C 0.20924 0.90526 0.73132 0.0
H530 H 0.34757 0.01042 0.88257 0.0
H531 H 0.29642 0.07282 0.75036 0.0
H532 H 0.29351 0.91332 0.79227 0.0
H533 H 0.3412 0.94238 0.74079 0.0
H534 H 0.34078 0.94682 0.84455 0.0
H535 H 0.25517 0.04359 0.64006 0.0
H536 H 0.2764 0.01864 0.58189 0.0
H537 H 0.22911 0.9876 0.63348 0.0
H538 H 0.30498 0.92215 0.48459 0.0
H539 H 0.19335 0.85056 0.61617 0.0
H540 H 0.36346 0.99231 0.62841 0.0
H541 H 0.34052 0.0174 0.57578 0.0
H542 H 0.35856 0.98731 0.52462 0.0
H543 H 0.22494 0.90526 0.78614 0.0
H544 H 0.17882 0.87591 0.72813 0.0
H545 H 0.20349 0.93183 0.73371 0.0
C546 C 0.2642 0.72711 0.18613 0.0
C547 C 0.22312 0.71934 0.18354 0.0
C548 C 0.27322 0.69543 0.16912 0.0
C549 C 0.24034 0.65522 0.14973 0.0
C550 C 0.19923 0.64802 0.14306 0.0
C551 C 0.19125 0.68021 0.15945 0.0
C552 C 0.3175 0.70443 0.17603 0.0
C553 C 0.16315 0.60561 0.1227 0.0
C554 C 0.24755 0.56871 0.05168 0.0
C555 C 0.24005 0.54131 0.11366 0.0
C556 C 0.25211 0.60806 0.06366 0.0
C557 C 0.24767 0.61968 0.13915 0.0
C558 C 0.24303 0.5933 0.20269 0.0
C559 C 0.23976 0.55446 0.18918 0.0
C560 C 0.25866 0.63588 0.99478 0.0
C561 C 0.23805 0.60456 0.28411 0.0
H562 H 0.28894 0.75713 0.20561 0.0
H563 H 0.15946 0.67402 0.15716 0.0
H564 H 0.32108 0.69022 0.23007 0.0
H565 H 0.32546 0.69057 0.12706 0.0
H566 H 0.34005 0.73838 0.17782 0.0
H567 H 0.13322 0.60548 0.11857 0.0
H568 H 0.16888 0.59507 0.06664 0.0
H569 H 0.16 0.58258 0.16733 0.0
H570 H 0.24851 0.55879 0.99328 0.0
H571 H 0.23416 0.5333 0.23708 0.0
H572 H 0.28288 0.66843 0.00769 0.0
H573 H 0.22938 0.63587 0.9815 0.0
H574 H 0.26801 0.62535 0.94254 0.0
H575 H 0.26248 0.63688 0.29776 0.0
H576 H 0.23954 0.58321 0.32774 0.0
H577 H 0.20752 0.60301 0.28935 0.0
C578 C 0.58638 0.22976 0.84171 0.0
C579 C 0.56748 0.21514 0.91373 0.0
C580 C 0.62619 0.23595 0.82716 0.0
C581 C 0.64774 0.22768 0.88635 0.0
C582 C 0.62956 0.21462 0.96018 0.0
C583 C 0.58951 0.20825 0.97288 0.0
C584 C 0.64452 0.24984 0.74742 0.0
C585 C 0.65183 0.2061 0.02491 0.0
C586 C 0.72131 0.19747 0.79895 0.0
C587 C 0.75798 0.23602 0.79524 0.0
C588 C 0.68593 0.19344 0.83515 0.0
C589 C 0.68739 0.22904 0.86778 0.0
C590 C 0.72569 0.26708 0.87117 0.0
C591 C 0.76079 0.27016 0.83454 0.0
C592 C 0.6459 0.15221 0.83062 0.0
C593 C 0.72865 0.30559 0.9062 0.0
H594 H 0.56963 0.23534 0.79593 0.0
H595 H 0.57531 0.19746 0.02912 0.0
H596 H 0.67582 0.27794 0.75146 0.0
H597 H 0.64831 0.22501 0.71994 0.0
H598 H 0.62472 0.25701 0.70918 0.0
H599 H 0.63569 0.201 0.08117 0.0
H600 H 0.65377 0.17796 0.01123 0.0
H601 H 0.68414 0.2324 0.031 0.0
H602 H 0.71929 0.17128 0.76761 0.0
H603 H 0.78907 0.30013 0.83028 0.0
H604 H 0.62495 0.15442 0.78711 0.0
H605 H 0.62957 0.14422 0.88695 0.0
H606 H 0.65132 0.1265 0.81355 0.0
H607 H 0.71577 0.31928 0.86482 0.0
H608 H 0.76139 0.32947 0.91918 0.0
H609 H 0.71022 0.29795 0.96014 0.0
C610 C 0.45843 0.64759 0.77571 0.0
C611 C 0.46535 0.68829 0.77671 0.0
C612 C 0.41922 0.61364 0.79237 0.0
C613 C 0.38571 0.62045 0.80796 0.0
C614 C 0.39239 0.66151 0.80854 0.0
C615 C 0.43247 0.69512 0.79428 0.0
C616 C 0.41381 0.57046 0.79392 0.0
C617 C 0.3572 0.66983 0.82332 0.0
C618 C 0.28319 0.52007 0.78504 0.0
C619 C 0.27684 0.50523 0.86103 0.0
C620 C 0.31688 0.55968 0.76732 0.0
C621 C 0.34447 0.58425 0.82716 0.0
C622 C 0.33581 0.57041 0.90477 0.0
C623 C 0.30223 0.53086 0.92057 0.0
C624 C 0.32461 0.57396 0.68412 0.0
C625 C 0.36392 0.5956 0.9706 0.0
H626 H 0.48393 0.64233 0.76264 0.0
H627 H 0.43782 0.72659 0.79466 0.0
H628 H 0.40266 0.55606 0.85168 0.0
H629 H 0.38999 0.55041 0.75084 0.0
H630 H 0.44318 0.57066 0.78117 0.0
H631 H 0.3676 0.70359 0.82178 0.0
H632 H 0.33247 0.65377 0.77911 0.0
H633 H 0.34305 0.6571 0.88049 0.0
H634 H 0.26326 0.50001 0.73931 0.0
H635 H 0.29682 0.51913 0.97943 0.0
H636 H 0.35102 0.57123 0.66153 0.0
H637 H 0.3332 0.60715 0.67943 0.0
H638 H 0.29696 0.55503 0.647 0.0
H639 H 0.39211 0.59244 0.9708 0.0
H640 H 0.34829 0.58484 0.02746 0.0
H641 H 0.37426 0.62911 0.96389 0.0
C642 C 0.72819 0.49243 0.5044 0.0
C643 C 0.76256 0.5258 0.46907 0.0
C644 C 0.73211 0.46057 0.54087 0.0
C645 C 0.77122 0.4625 0.54114 0.0
C646 C 0.80676 0.49857 0.51296 0.0
C647 C 0.80191 0.52979 0.47704 0.0
C648 C 0.69361 0.42294 0.57131 0.0
C649 C 0.84907 0.50209 0.51218 0.0
C650 C 0.79232 0.38407 0.64387 0.0
C651 C 0.78778 0.35724 0.58299 0.0
C652 C 0.78527 0.41754 0.63224 0.0
C653 C 0.77403 0.42462 0.55776 0.0
C654 C 0.76848 0.39705 0.49654 0.0
C655 C 0.77518 0.36354 0.51005 0.0
C656 C 0.79084 0.44585 0.69906 0.0
C657 C 0.75676 0.40369 0.41597 0.0
H658 H 0.69765 0.48911 0.49682 0.0
H659 H 0.8283 0.55551 0.44863 0.0
H660 H 0.68226 0.3976 0.52802 0.0
H661 H 0.70046 0.41131 0.62554 0.0
H662 H 0.66828 0.42991 0.58232 0.0
H663 H 0.87421 0.53437 0.49949 0.0
H664 H 0.85586 0.49217 0.56843 0.0
H665 H 0.84955 0.48125 0.46698 0.0
H666 H 0.80155 0.37906 0.70075 0.0
H667 H 0.7715 0.34286 0.46288 0.0
H668 H 0.76346 0.45017 0.7038 0.0
H669 H 0.81839 0.47699 0.68879 0.0
H670 H 0.79525 0.43357 0.75494 0.0
H671 H 0.72768 0.4052 0.41758 0.0
H672 H 0.75215 0.37856 0.3756 0.0
H673 H 0.78155 0.43383 0.39251 0.0
C674 C 0.34292 0.79737 0.45154 0.0
C675 C 0.30196 0.76417 0.45018 0.0
C676 C 0.37635 0.79052 0.46321 0.0
C677 C 0.3687 0.74926 0.47164 0.0
C678 C 0.32732 0.71545 0.46921 0.0
C679 C 0.29426 0.72337 0.45942 0.0
C680 C 0.41987 0.82761 0.46732 0.0
C681 C 0.31811 0.67106 0.47583 0.0
C682 C 0.46874 0.74773 0.44091 0.0
C683 C 0.4833 0.75235 0.517 0.0
C684 C 0.42907 0.74228 0.42522 0.0
C685 C 0.40437 0.74258 0.48715 0.0
C686 C 0.41802 0.74421 0.56432 0.0
C687 C 0.45732 0.74892 0.57822 0.0
C688 C 0.41515 0.73978 0.34227 0.0
C689 C 0.39298 0.74518 0.63187 0.0
H690 H 0.34879 0.8289 0.44419 0.0
H691 H 0.26255 0.69766 0.45658 0.0
H692 H 0.43458 0.8276 0.52341 0.0
H693 H 0.43927 0.82568 0.4209 0.0
H694 H 0.4203 0.85765 0.46122 0.0
H695 H 0.28428 0.64829 0.47169 0.0
H696 H 0.33434 0.66447 0.42921 0.0
H697 H 0.33002 0.66629 0.53171 0.0
H698 H 0.4892 0.7509 0.39375 0.0
H699 H 0.46909 0.75312 0.637 0.0
H700 H 0.41871 0.77017 0.3244 0.0
H701 H 0.38181 0.71597 0.33581 0.0
H702 H 0.43375 0.73218 0.30252 0.0
H703 H 0.39096 0.77402 0.62923 0.0
H704 H 0.40698 0.74442 0.6883 0.0
H705 H 0.3608 0.7184 0.62922 0.0
C706 C 0.50948 0.24061 0.16799 0.0
C707 C 0.47726 0.24262 0.12949 0.0
C708 C 0.54131 0.27599 0.20498 0.0
C709 C 0.54049 0.31379 0.2027 0.0
C710 C 0.50554 0.31436 0.17088 0.0
C711 C 0.47437 0.2787 0.13441 0.0
C712 C 0.57773 0.27395 0.23924 0.0
C713 C 0.50318 0.35381 0.16744 0.0
C714 C 0.61718 0.41218 0.30869 0.0
C715 C 0.64541 0.43481 0.24959 0.0
C716 C 0.58389 0.3718 0.29564 0.0
C717 C 0.57843 0.35394 0.22148 0.0
C718 C 0.60753 0.37619 0.16226 0.0
C719 C 0.64081 0.41627 0.1772 0.0
C720 C 0.55393 0.34879 0.36046 0.0
C721 C 0.60269 0.35827 0.08213 0.0
H722 H 0.51196 0.21281 0.16283 0.0
H723 H 0.44951 0.28012 0.10371 0.0
H724 H 0.60395 0.28766 0.19776 0.0
H725 H 0.58859 0.29215 0.29353 0.0
H726 H 0.56978 0.24135 0.25138 0.0
H727 H 0.47161 0.34763 0.15095 0.0
H728 H 0.51176 0.36995 0.22399 0.0
H729 H 0.52562 0.37528 0.12394 0.0
H730 H 0.62088 0.4261 0.36521 0.0
H731 H 0.66261 0.4335 0.13143 0.0
H732 H 0.54876 0.31674 0.36592 0.0
H733 H 0.52338 0.34608 0.34731 0.0
H734 H 0.56523 0.36486 0.41686 0.0
H735 H 0.60039 0.32732 0.0854 0.0
H736 H 0.62905 0.37872 0.04376 0.0
H737 H 0.57348 0.35377 0.05527 0.0
loop_
_geom_bond_atom_site_label_1
_geom_bond_atom_site_label_2
_geom_bond_distance
_geom_bond_site_symmetry_2
_ccdc_geom_bond_type
Co0 O2 2.143 . S
Co0 O8 2.074 1_556 S
Co0 O11 2.093 . S
Co0 O24 2.097 1_556 S
Co0 N41 2.151 . S
Co0 N49 2.214 . S
Co1 O2 2.160 1_554 S
Co1 O7 2.058 . S
Co1 O17 2.057 . S
Co1 O32 2.037 . S
Co1 N36 2.145 . S
Co1 N57 2.257 . S
O2 Co0 2.143 . S
O2 Co1 2.160 1_556 S
C3 O4 1.278 . S
C3 O11 1.224 . S
O4 C3 1.278 . S
C5 O6 1.245 1_554 S
C5 O17 1.232 . S
O6 C5 1.245 1_556 S
O7 Co1 2.058 . S
O7 C33 1.269 . S
O8 Co0 2.074 1_554 S
O8 C33 1.257 . S
H9 C34 0.930 . S
H10 C40 0.930 . S
O11 Co0 2.093 . S
O11 C3 1.224 . S
H12 C44 0.929 . S
H13 C46 0.930 . S
H14 C47 0.930 . S
H15 C45 0.929 . S
H16 C48 0.928 . S
O17 Co1 2.057 . S
O17 C5 1.232 . S
H18 C37 0.929 . S
H19 C38 0.929 . S
H20 C50 0.931 . S
H21 C42 0.929 . S
H22 C51 0.930 . S
H23 C43 0.931 . S
O24 Co0 2.097 1_554 S
O24 C52 1.214 . S
H25 C53 0.929 . S
H26 C54 0.929 . S
H27 C55 0.930 . S
H28 C56 0.929 . S
H29 C58 0.930 . S
H30 C35 0.930 . S
H31 C39 0.930 . S
O32 Co1 2.037 . S
O32 C52 1.234 . S
C33 O7 1.269 . S
C33 O8 1.257 . S
C34 H9 0.930 . S
C34 C37 1.388 . S
C34 C39 1.418 . S
C35 H30 0.930 . S
C35 C38 1.404 . S
C35 C39 1.353 . S
N36 Co1 2.145 . S
N36 C37 1.397 . S
N36 C38 1.334 . S
C37 H18 0.929 . S
C37 C34 1.388 . S
C37 N36 1.397 . S
C38 H19 0.929 . S
C38 C35 1.404 . S
C38 N36 1.334 . S
C39 H31 0.930 . S
C39 C34 1.418 . S
C39 C35 1.353 . S
C40 H10 0.930 . S
C40 N41 1.330 . S
C40 C42 1.446 . S
N41 Co0 2.151 . S
N41 C40 1.330 . S
N41 C45 1.418 . S
C42 H21 0.929 . S
C42 C40 1.446 . S
C42 C43 1.332 . S
C43 H23 0.931 . S
C43 C42 1.332 . S
C43 C44 1.267 . S
C44 H12 0.929 . S
C44 C43 1.267 . S
C44 C45 1.251 . S
C45 H15 0.929 . S
C45 N41 1.418 . S
C45 C44 1.251 . S
C46 H13 0.930 . S
C46 C48 1.406 . S
C46 C51 1.261 . S
C47 H14 0.930 . S
C47 N49 1.325 . S
C47 C50 1.357 . S
C48 H16 0.928 . S
C48 C46 1.406 . S
C48 N49 1.261 . S
N49 Co0 2.214 . S
N49 C47 1.325 . S
N49 C48 1.261 . S
C50 H20 0.931 . S
C50 C47 1.357 . S
C50 C51 1.312 . S
C51 H22 0.930 . S
C51 C46 1.261 . S
C51 C50 1.312 . S
C52 O24 1.214 . S
C52 O32 1.234 . S
C53 H25 0.929 . S
C53 C56 1.391 . S
C53 C58 1.391 . S
C54 H26 0.929 . S
C54 C55 1.390 . S
C54 N57 1.391 . S
C55 H27 0.930 . S
C55 C54 1.390 . S
C55 C56 1.392 . S
C56 H28 0.929 . S
C56 C53 1.391 . S
C56 C55 1.392 . S
N57 Co1 2.257 . S
N57 C54 1.391 . S
N57 C58 1.388 . S
C58 H29 0.930 . S
C58 C53 1.391 . S
C58 N57 1.388 . S
Co59 O61 2.143 . S
Co59 O67 2.074 . S
Co59 O70 2.093 . S
Co59 O83 2.097 . S
Co59 N100 2.151 . S
Co59 N108 2.214 . S
Co60 O61 2.160 . S
Co60 O66 2.058 . S
Co60 O76 2.057 . S
Co60 O91 2.037 . S
Co60 N95 2.145 . S
Co60 N116 2.257 . S
O61 Co59 2.143 . S
O61 Co60 2.160 . S
C62 O63 1.278 . S
C62 O70 1.224 . S
O63 C62 1.278 . S
C64 O65 1.245 . S
C64 O76 1.232 . S
O65 C64 1.245 . S
O66 Co60 2.058 . S
O66 C92 1.269 . S
O67 Co59 2.074 . S
O67 C92 1.257 . S
H68 C93 0.930 1_554 S
H69 C99 0.930 . S
O70 Co59 2.093 . S
O70 C62 1.224 . S
H71 C103 0.929 . S
H72 C105 0.930 . S
H73 C106 0.930 . S
H74 C104 0.929 . S
H75 C107 0.928 . S
O76 Co60 2.057 . S
O76 C64 1.232 . S
H77 C96 0.929 . S
H78 C97 0.929 . S
H79 C109 0.931 . S
H80 C101 0.929 . S
H81 C110 0.930 . S
H82 C102 0.931 . S
O83 Co59 2.097 . S
O83 C111 1.214 . S
H84 C112 0.929 . S
H85 C113 0.929 . S
H86 C114 0.930 . S
H87 C115 0.929 . S
H88 C117 0.930 . S
H89 C94 0.930 1_455 S
H90 C98 0.930 1_554 S
O91 Co60 2.037 . S
O91 C111 1.234 . S
C92 O66 1.269 . S
C92 O67 1.257 . S
C93 H68 0.930 1_556 S
C93 C96 1.388 . S
C93 C98 1.418 . S
C94 H89 0.930 1_655 S
C94 C97 1.404 . S
C94 C98 1.353 . S
N95 Co60 2.145 . S
N95 C96 1.397 . S
N95 C97 1.334 . S
C96 H77 0.929 . S
C96 C93 1.388 . S
C96 N95 1.397 . S
C97 H78 0.929 . S
C97 C94 1.404 . S
C97 N95 1.334 . S
C98 H90 0.930 1_556 S
C98 C93 1.418 . S
C98 C94 1.353 . S
C99 H69 0.930 . S
C99 N100 1.330 . S
C99 C101 1.446 . S
N100 Co59 2.151 . S
N100 C99 1.330 . S
N100 C104 1.418 . S
C101 H80 0.929 . S
C101 C99 1.446 . S
C101 C102 1.332 . S
C102 H82 0.931 . S
C102 C101 1.332 . S
C102 C103 1.267 . S
C103 H71 0.929 . S
C103 C102 1.267 . S
C103 C104 1.251 . S
C104 H74 0.929 . S
C104 N100 1.418 . S
C104 C103 1.251 . S
C105 H72 0.930 . S
C105 C107 1.406 . S
C105 C110 1.261 . S
C106 H73 0.930 . S
C106 N108 1.325 . S
C106 C109 1.357 . S
C107 H75 0.928 . S
C107 C105 1.406 . S
C107 N108 1.261 . S
N108 Co59 2.214 . S
N108 C106 1.325 . S
N108 C107 1.261 . S
C109 H79 0.931 . S
C109 C106 1.357 . S
C109 C110 1.312 . S
C110 H81 0.930 . S
C110 C105 1.261 . S
C110 C109 1.312 . S
C111 O83 1.214 . S
C111 O91 1.234 . S
C112 H84 0.929 . S
C112 C115 1.391 . S
C112 C117 1.391 . S
C113 H85 0.929 . S
C113 C114 1.390 . S
C113 N116 1.391 . S
C114 H86 0.930 . S
C114 C113 1.390 . S
C114 C115 1.392 . S
C115 H87 0.929 . S
C115 C112 1.391 . S
C115 C114 1.392 . S
N116 Co60 2.257 . S
N116 C113 1.391 . S
N116 C117 1.388 . S
C117 H88 0.930 . S
C117 C112 1.391 . S
C117 N116 1.388 . S
Co118 O120 2.143 . S
Co118 O126 2.074 . S
Co118 O129 2.093 . S
Co118 O142 2.097 . S
Co118 N159 2.151 . S
Co118 N167 2.214 . S
Co119 O120 2.160 . S
Co119 O125 2.058 . S
Co119 O135 2.057 . S
Co119 O150 2.037 . S
Co119 N154 2.145 . S
Co119 N175 2.257 . S
O120 Co118 2.143 . S
O120 Co119 2.160 . S
C121 O122 1.278 . S
C121 O129 1.224 . S
O122 C121 1.278 . S
C123 O124 1.245 . S
C123 O135 1.232 . S
O124 C123 1.245 . S
O125 Co119 2.058 . S
O125 C151 1.269 . S
O126 Co118 2.074 . S
O126 C151 1.257 . S
H127 C152 0.930 1_554 S
H128 C158 0.930 . S
O129 Co118 2.093 . S
O129 C121 1.224 . S
H130 C162 0.929 . S
H131 C164 0.930 . S
H132 C165 0.930 . S
H133 C163 0.929 . S
H134 C166 0.928 . S
O135 Co119 2.057 . S
O135 C123 1.232 . S
H136 C155 0.929 . S
H137 C156 0.929 . S
H138 C168 0.931 . S
H139 C160 0.929 . S
H140 C169 0.930 . S
H141 C161 0.931 . S
O142 Co118 2.097 . S
O142 C170 1.214 . S
H143 C171 0.929 . S
H144 C172 0.929 . S
H145 C173 0.930 . S
H146 C174 0.929 . S
H147 C176 0.930 . S
H148 C153 0.930 . S
H149 C157 0.930 . S
O150 Co119 2.037 . S
O150 C170 1.234 . S
C151 O125 1.269 . S
C151 O126 1.257 . S
C152 H127 0.930 1_556 S
C152 C155 1.388 . S
C152 C157 1.418 1_556 S
C153 H148 0.930 . S
C153 C156 1.404 . S
C153 C157 1.353 1_556 S
N154 Co119 2.145 . S
N154 C155 1.397 . S
N154 C156 1.334 . S
C155 H136 0.929 . S
C155 C152 1.388 . S
C155 N154 1.397 . S
C156 H137 0.929 . S
C156 C153 1.404 . S
C156 N154 1.334 . S
C157 H149 0.930 . S
C157 C152 1.418 1_554 S
C157 C153 1.353 1_554 S
C158 H128 0.930 . S
C158 N159 1.330 . S
C158 C160 1.446 . S
N159 Co118 2.151 . S
N159 C158 1.330 . S
N159 C163 1.418 . S
C160 H139 0.929 . S
C160 C158 1.446 . S
C160 C161 1.332 . S
C161 H141 0.931 . S
C161 C160 1.332 . S
C161 C162 1.267 . S
C162 H130 0.929 . S
C162 C161 1.267 . S
C162 C163 1.251 . S
C163 H133 0.929 . S
C163 N159 1.418 . S
C163 C162 1.251 . S
C164 H131 0.930 . S
C164 C166 1.406 . S
C164 C169 1.261 . S
C165 H132 0.930 . S
C165 N167 1.325 . S
C165 C168 1.357 . S
C166 H134 0.928 . S
C166 C164 1.406 . S
C166 N167 1.261 . S
N167 Co118 2.214 . S
N167 C165 1.325 . S
N167 C166 1.261 . S
C168 H138 0.931 . S
C168 C165 1.357 . S
C168 C169 1.312 . S
C169 H140 0.930 . S
C169 C164 1.261 . S
C169 C168 1.312 . S
C170 O142 1.214 . S
C170 O150 1.234 . S
C171 H143 0.929 . S
C171 C174 1.391 . S
C171 C176 1.391 . S
C172 H144 0.929 . S
C172 C173 1.390 . S
C172 N175 1.391 . S
C173 H145 0.930 . S
C173 C172 1.390 . S
C173 C174 1.392 . S
C174 H146 0.929 . S
C174 C171 1.391 . S
C174 C173 1.392 . S
N175 Co119 2.257 . S
N175 C172 1.391 . S
N175 C176 1.388 . S
C176 H147 0.930 . S
C176 C171 1.391 . S
C176 N175 1.388 . S
Co177 O179 2.143 . S
Co177 O185 2.074 . S
Co177 O188 2.093 . S
Co177 O201 2.097 . S
Co177 N218 2.151 . S
Co177 N226 2.214 . S
Co178 O179 2.160 . S
Co178 O184 2.058 . S
Co178 O194 2.057 . S
Co178 O209 2.037 . S
Co178 N213 2.145 . S
Co178 N234 2.257 . S
O179 Co177 2.143 . S
O179 Co178 2.160 . S
C180 O181 1.278 . S
C180 O188 1.224 . S
O181 C180 1.278 . S
C182 O183 1.245 . S
C182 O194 1.232 . S
O183 C182 1.245 . S
O184 Co178 2.058 . S
O184 C210 1.269 . S
O185 Co177 2.074 . S
O185 C210 1.257 . S
H186 C211 0.930 . S
H187 C217 0.930 . S
O188 Co177 2.093 . S
O188 C180 1.224 . S
H189 C221 0.929 . S
H190 C223 0.930 . S
H191 C224 0.930 . S
H192 C222 0.929 . S
H193 C225 0.928 . S
O194 Co178 2.057 . S
O194 C182 1.232 . S
H195 C214 0.929 . S
H196 C215 0.929 . S
H197 C227 0.931 . S
H198 C219 0.929 . S
H199 C228 0.930 . S
H200 C220 0.931 1_556 S
O201 Co177 2.097 . S
O201 C229 1.214 . S
H202 C230 0.929 . S
H203 C231 0.929 . S
H204 C232 0.930 . S
H205 C233 0.929 . S
H206 C235 0.930 . S
H207 C212 0.930 . S
H208 C216 0.930 . S
O209 Co178 2.037 . S
O209 C229 1.234 . S
C210 O184 1.269 . S
C210 O185 1.257 . S
C211 H186 0.930 . S
C211 C214 1.388 . S
C211 C216 1.418 . S
C212 H207 0.930 . S
C212 C215 1.404 . S
C212 C216 1.353 . S
N213 Co178 2.145 . S
N213 C214 1.397 . S
N213 C215 1.334 . S
C214 H195 0.929 . S
C214 C211 1.388 . S
C214 N213 1.397 . S
C215 H196 0.929 . S
C215 C212 1.404 . S
C215 N213 1.334 . S
C216 H208 0.930 . S
C216 C211 1.418 . S
C216 C212 1.353 . S
C217 H187 0.930 . S
C217 N218 1.330 . S
C217 C219 1.446 . S
N218 Co177 2.151 . S
N218 C217 1.330 . S
N218 C222 1.418 . S
C219 H198 0.929 . S
C219 C217 1.446 . S
C219 C220 1.332 . S
C220 H200 0.931 1_554 S
C220 C219 1.332 . S
C220 C221 1.267 . S
C221 H189 0.929 . S
C221 C220 1.267 . S
C221 C222 1.251 . S
C222 H192 0.929 . S
C222 N218 1.418 . S
C222 C221 1.251 . S
C223 H190 0.930 . S
C223 C225 1.406 . S
C223 C228 1.261 . S
C224 H191 0.930 . S
C224 N226 1.325 . S
C224 C227 1.357 . S
C225 H193 0.928 . S
C225 C223 1.406 . S
C225 N226 1.261 . S
N226 Co177 2.214 . S
N226 C224 1.325 . S
N226 C225 1.261 . S
C227 H197 0.931 . S
C227 C224 1.357 . S
C227 C228 1.312 . S
C228 H199 0.930 . S
C228 C223 1.261 . S
C228 C227 1.312 . S
C229 O201 1.214 . S
C229 O209 1.234 . S
C230 H202 0.929 . S
C230 C233 1.391 . S
C230 C235 1.391 . S
C231 H203 0.929 . S
C231 C232 1.390 . S
C231 N234 1.391 . S
C232 H204 0.930 . S
C232 C231 1.390 . S
C232 C233 1.392 . S
C233 H205 0.929 . S
C233 C230 1.391 . S
C233 C232 1.392 . S
N234 Co178 2.257 . S
N234 C231 1.391 . S
N234 C235 1.388 . S
C235 H206 0.930 . S
C235 C230 1.391 . S
C235 N234 1.388 . S
Co236 O238 2.143 . S
Co236 O244 2.074 . S
Co236 O247 2.093 . S
Co236 O260 2.097 . S
Co236 N277 2.151 . S
Co236 N285 2.214 . S
Co237 O238 2.160 . S
Co237 O243 2.058 . S
Co237 O253 2.057 . S
Co237 O268 2.037 . S
Co237 N272 2.145 . S
Co237 N293 2.257 . S
O238 Co236 2.143 . S
O238 Co237 2.160 . S
C239 O240 1.278 . S
C239 O247 1.224 . S
O240 C239 1.278 . S
C241 O242 1.245 . S
C241 O253 1.232 . S
O242 C241 1.245 . S
O243 Co237 2.058 . S
O243 C269 1.269 . S
O244 Co236 2.074 . S
O244 C269 1.257 . S
H245 C270 0.930 . S
H246 C276 0.930 . S
O247 Co236 2.093 . S
O247 C239 1.224 . S
H248 C280 0.929 . S
H249 C282 0.930 . S
H250 C283 0.930 . S
H251 C281 0.929 . S
H252 C284 0.928 . S
O253 Co237 2.057 . S
O253 C241 1.232 . S
H254 C273 0.929 . S
H255 C274 0.929 . S
H256 C286 0.931 . S
H257 C278 0.929 1_556 S
H258 C287 0.930 . S
H259 C279 0.931 1_556 S
O260 Co236 2.097 . S
O260 C288 1.214 . S
H261 C289 0.929 . S
H262 C290 0.929 . S
H263 C291 0.930 . S
H264 C292 0.929 . S
H265 C294 0.930 . S
H266 C271 0.930 . S
H267 C275 0.930 . S
O268 Co237 2.037 . S
O268 C288 1.234 . S
C269 O243 1.269 . S
C269 O244 1.257 . S
C270 H245 0.930 . S
C270 C273 1.388 . S
C270 C275 1.418 . S
C271 H266 0.930 . S
C271 C274 1.404 . S
C271 C275 1.353 . S
N272 Co237 2.145 . S
N272 C273 1.397 . S
N272 C274 1.334 . S
C273 H254 0.929 . S
C273 C270 1.388 . S
C273 N272 1.397 . S
C274 H255 0.929 . S
C274 C271 1.404 . S
C274 N272 1.334 . S
C275 H267 0.930 . S
C275 C270 1.418 . S
C275 C271 1.353 . S
C276 H246 0.930 . S
C276 N277 1.330 . S
C276 C278 1.446 . S
N277 Co236 2.151 . S
N277 C276 1.330 . S
N277 C281 1.418 . S
C278 H257 0.929 1_554 S
C278 C276 1.446 . S
C278 C279 1.332 . S
C279 H259 0.931 1_554 S
C279 C278 1.332 . S
C279 C280 1.267 . S
C280 H248 0.929 . S
C280 C279 1.267 . S
C280 C281 1.251 . S
C281 H251 0.929 . S
C281 N277 1.418 . S
C281 C280 1.251 . S
C282 H249 0.930 . S
C282 C284 1.406 . S
C282 C287 1.261 . S
C283 H250 0.930 . S
C283 N285 1.325 . S
C283 C286 1.357 . S
C284 H252 0.928 . S
C284 C282 1.406 . S
C284 N285 1.261 . S
N285 Co236 2.214 . S
N285 C283 1.325 . S
N285 C284 1.261 . S
C286 H256 0.931 . S
C286 C283 1.357 . S
C286 C287 1.312 . S
C287 H258 0.930 . S
C287 C282 1.261 . S
C287 C286 1.312 . S
C288 O260 1.214 . S
C288 O268 1.234 . S
C289 H261 0.929 . S
C289 C292 1.391 . S
C289 C294 1.391 . S
C290 H262 0.929 . S
C290 C291 1.390 . S
C290 N293 1.391 . S
C291 H263 0.930 . S
C291 C290 1.390 . S
C291 C292 1.392 . S
C292 H264 0.929 . S
C292 C289 1.391 . S
C292 C291 1.392 . S
N293 Co237 2.257 . S
N293 C290 1.391 . S
N293 C294 1.388 . S
C294 H265 0.930 . S
C294 C289 1.391 . S
C294 N293 1.388 . S
Co295 O297 2.143 . S
Co295 O303 2.074 . S
Co295 O306 2.093 . S
Co295 O319 2.097 1_556 S
Co295 N336 2.151 . S
Co295 N344 2.214 . S
Co296 O297 2.160 1_554 S
Co296 O302 2.058 . S
Co296 O312 2.057 . S
Co296 O327 2.037 . S
Co296 N331 2.145 . S
Co296 N352 2.257 . S
O297 Co295 2.143 . S
O297 Co296 2.160 1_556 S
C298 O299 1.278 . S
C298 O306 1.224 . S
O299 C298 1.278 . S
C300 O301 1.245 . S
C300 O312 1.232 1_556 S
O301 C300 1.245 . S
O302 Co296 2.058 . S
O302 C328 1.269 1_554 S
O303 Co295 2.074 . S
O303 C328 1.257 . S
H304 C329 0.930 . S
H305 C335 0.930 . S
O306 Co295 2.093 . S
O306 C298 1.224 . S
H307 C339 0.929 . S
H308 C341 0.930 . S
H309 C342 0.930 . S
H310 C340 0.929 . S
H311 C343 0.928 . S
O312 Co296 2.057 . S
O312 C300 1.232 1_554 S
H313 C332 0.929 . S
H314 C333 0.929 . S
H315 C345 0.931 . S
H316 C337 0.929 . S
H317 C346 0.930 . S
H318 C338 0.931 . S
O319 Co295 2.097 1_554 S
O319 C347 1.214 . S
H320 C348 0.929 . S
H321 C349 0.929 . S
H322 C350 0.930 . S
H323 C351 0.929 . S
H324 C353 0.930 . S
H325 C330 0.930 1_565 S
H326 C334 0.930 . S
O327 Co296 2.037 . S
O327 C347 1.234 . S
C328 O302 1.269 1_556 S
C328 O303 1.257 . S
C329 H304 0.930 . S
C329 C332 1.388 . S
C329 C334 1.418 . S
C330 H325 0.930 1_545 S
C330 C333 1.404 . S
C330 C334 1.353 . S
N331 Co296 2.145 . S
N331 C332 1.397 . S
N331 C333 1.334 . S
C332 H313 0.929 . S
C332 C329 1.388 . S
C332 N331 1.397 . S
C333 H314 0.929 . S
C333 C330 1.404 . S
C333 N331 1.334 . S
C334 H326 0.930 . S
C334 C329 1.418 . S
C334 C330 1.353 . S
C335 H305 0.930 . S
C335 N336 1.330 . S
C335 C337 1.446 . S
N336 Co295 2.151 . S
N336 C335 1.330 . S
N336 C340 1.418 . S
C337 H316 0.929 . S
C337 C335 1.446 . S
C337 C338 1.332 . S
C338 H318 0.931 . S
C338 C337 1.332 . S
C338 C339 1.267 . S
C339 H307 0.929 . S
C339 C338 1.267 . S
C339 C340 1.251 . S
C340 H310 0.929 . S
C340 N336 1.418 . S
C340 C339 1.251 . S
C341 H308 0.930 . S
C341 C343 1.406 . S
C341 C346 1.261 . S
C342 H309 0.930 . S
C342 N344 1.325 1_554 S
C342 C345 1.357 . S
C343 H311 0.928 . S
C343 C341 1.406 . S
C343 N344 1.261 . S
N344 Co295 2.214 . S
N344 C342 1.325 1_556 S
N344 C343 1.261 . S
C345 H315 0.931 . S
C345 C342 1.357 . S
C345 C346 1.312 1_554 S
C346 H317 0.930 . S
C346 C341 1.261 . S
C346 C345 1.312 1_556 S
C347 O319 1.214 . S
C347 O327 1.234 . S
C348 H320 0.929 . S
C348 C351 1.391 . S
C348 C353 1.391 . S
C349 H321 0.929 . S
C349 C350 1.390 . S
C349 N352 1.391 . S
C350 H322 0.930 . S
C350 C349 1.390 . S
C350 C351 1.392 . S
C351 H323 0.929 . S
C351 C348 1.391 . S
C351 C350 1.392 . S
N352 Co296 2.257 . S
N352 C349 1.391 . S
N352 C353 1.388 . S
C353 H324 0.930 . S
C353 C348 1.391 . S
C353 N352 1.388 . S
C354 C355 1.391 . S
C354 C356 1.394 . S
C354 H370 0.931 . S
C355 C354 1.391 . S
C355 C359 1.376 . S
C356 C354 1.394 . S
C356 C357 1.369 . S
C356 C360 1.531 . S
C357 C356 1.369 . S
C357 C358 1.410 . S
C357 C365 1.503 . S
C358 C357 1.410 . S
C358 C359 1.392 . S
C358 C361 1.514 . S
C359 C355 1.376 . S
C359 C358 1.392 . S
C359 H371 0.929 . S
C360 C356 1.531 . S
C360 H372 0.960 . S
C360 H373 0.962 . S
C360 H374 0.960 . S
C361 C358 1.514 . S
C361 H375 0.953 1_554 S
C361 H376 0.955 1_554 S
C361 H377 0.972 . S
C362 C363 1.370 1_556 S
C362 C364 1.363 . S
C362 H378 0.931 . S
C363 C362 1.370 1_554 S
C363 C367 1.409 . S
C364 C362 1.363 . S
C364 C365 1.370 1_556 S
C364 C368 1.524 . S
C365 C357 1.503 . S
C365 C364 1.370 1_554 S
C365 C366 1.403 . S
C366 C365 1.403 . S
C366 C367 1.404 . S
C366 C369 1.539 . S
C367 C363 1.409 . S
C367 C366 1.404 . S
C367 H379 0.930 . S
C368 C364 1.524 . S
C368 H380 0.956 . S
C368 H381 0.961 . S
C368 H382 0.961 . S
C369 C366 1.539 . S
C369 H383 0.958 . S
C369 H384 0.961 . S
C369 H385 0.960 . S
H370 C354 0.931 . S
H371 C359 0.929 . S
H372 C360 0.960 . S
H373 C360 0.962 . S
H374 C360 0.960 . S
H375 C361 0.953 1_556 S
H376 C361 0.955 1_556 S
H377 C361 0.972 . S
H378 C362 0.931 . S
H379 C367 0.930 . S
H380 C368 0.956 . S
H381 C368 0.961 . S
H382 C368 0.961 . S
H383 C369 0.958 . S
H384 C369 0.961 . S
H385 C369 0.960 . S
C386 C387 1.391 1_455 S
C386 C388 1.394 . S
C386 H402 0.931 . S
C387 C386 1.391 1_655 S
C387 C391 1.376 . S
C388 C386 1.394 . S
C388 C389 1.369 . S
C388 C392 1.531 . S
C389 C388 1.369 . S
C389 C390 1.410 1_455 S
C389 C397 1.503 . S
C390 C389 1.410 1_655 S
C390 C391 1.392 . S
C390 C393 1.511 . S
C391 C387 1.376 . S
C391 C390 1.392 . S
C391 H403 0.929 . S
C392 C388 1.531 . S
C392 H404 0.960 . S
C392 H405 0.962 . S
C392 H406 0.960 . S
C393 C390 1.511 . S
C393 H407 0.961 . S
C393 H408 0.961 . S
C393 H409 0.961 . S
C394 C395 1.370 . S
C394 C396 1.363 . S
C394 H410 0.931 . S
C395 C394 1.370 . S
C395 C399 1.408 . S
C396 C394 1.363 . S
C396 C397 1.370 . S
C396 C400 1.524 . S
C397 C389 1.503 . S
C397 C396 1.370 . S
C397 C398 1.403 . S
C398 C397 1.403 . S
C398 C399 1.404 . S
C398 C401 1.539 1_455 S
C399 C395 1.408 . S
C399 C398 1.404 . S
C399 H411 0.930 . S
C400 C396 1.524 . S
C400 H412 0.956 . S
C400 H413 0.961 . S
C400 H414 0.961 . S
C401 C398 1.539 1_655 S
C401 H415 0.958 . S
C401 H416 0.961 . S
C401 H417 0.960 . S
H402 C386 0.931 . S
H403 C391 0.929 . S
H404 C392 0.960 . S
H405 C392 0.962 . S
H406 C392 0.960 . S
H407 C393 0.961 . S
H408 C393 0.961 . S
H409 C393 0.961 . S
H410 C394 0.931 . S
H411 C399 0.930 . S
H412 C400 0.956 . S
H413 C400 0.961 . S
H414 C400 0.961 . S
H415 C401 0.958 . S
H416 C401 0.961 . S
H417 C401 0.960 . S
C418 C419 1.391 . S
C418 C420 1.394 . S
C418 H434 0.931 . S
C419 C418 1.391 . S
C419 C423 1.376 . S
C420 C418 1.394 . S
C420 C421 1.369 . S
C420 C424 1.531 . S
C421 C420 1.369 . S
C421 C422 1.410 . S
C421 C429 1.503 . S
C422 C421 1.410 . S
C422 C423 1.392 . S
C422 C425 1.511 . S
C423 C419 1.376 . S
C423 C422 1.392 . S
C423 H435 0.929 . S
C424 C420 1.531 . S
C424 H436 0.960 . S
C424 H437 0.962 . S
C424 H438 0.960 . S
C425 C422 1.511 . S
C425 H439 0.961 . S
C425 H440 0.961 . S
C425 H441 0.961 . S
C426 C427 1.370 . S
C426 C428 1.363 . S
C426 H442 0.931 . S
C427 C426 1.370 . S
C427 C431 1.408 . S
C428 C426 1.363 . S
C428 C429 1.370 1_565 S
C428 C432 1.524 1_565 S
C429 C421 1.503 . S
C429 C428 1.370 1_545 S
C429 C430 1.403 1_545 S
C430 C429 1.403 1_565 S
C430 C431 1.404 . S
C430 C433 1.539 1_565 S
C431 C427 1.408 . S
C431 C430 1.404 . S
C431 H443 0.930 . S
C432 C428 1.524 1_545 S
C432 H444 0.956 . S
C432 H445 0.961 . S
C432 H446 0.961 . S
C433 C430 1.539 1_545 S
C433 H447 0.958 . S
C433 H448 0.961 1_545 S
C433 H449 0.960 . S
H434 C418 0.931 . S
H435 C423 0.929 . S
H436 C424 0.960 . S
H437 C424 0.962 . S
H438 C424 0.960 . S
H439 C425 0.961 . S
H440 C425 0.961 . S
H441 C425 0.961 . S
H442 C426 0.931 . S
H443 C431 0.930 . S
H444 C432 0.956 . S
H445 C432 0.961 . S
H446 C432 0.961 . S
H447 C433 0.958 . S
H448 C433 0.961 1_565 S
H449 C433 0.960 . S
C450 C451 1.391 . S
C450 C452 1.394 . S
C450 H466 0.931 . S
C451 C450 1.391 . S
C451 C455 1.376 . S
C452 C450 1.394 . S
C452 C453 1.369 . S
C452 C456 1.531 . S
C453 C452 1.369 . S
C453 C454 1.410 . S
C453 C461 1.503 1_554 S
C454 C453 1.410 . S
C454 C455 1.392 . S
C454 C457 1.511 . S
C455 C451 1.376 . S
C455 C454 1.392 . S
C455 H467 0.929 . S
C456 C452 1.531 . S
C456 H468 0.960 1_554 S
C456 H469 0.962 . S
C456 H470 0.960 . S
C457 C454 1.511 . S
C457 H471 0.961 . S
C457 H472 0.961 . S
C457 H473 0.961 . S
C458 C459 1.370 . S
C458 C460 1.363 . S
C458 H474 0.931 . S
C459 C458 1.370 . S
C459 C463 1.408 . S
C460 C458 1.363 . S
C460 C461 1.370 . S
C460 C464 1.524 1_556 S
C461 C453 1.503 1_556 S
C461 C460 1.370 . S
C461 C462 1.403 . S
C462 C461 1.403 . S
C462 C463 1.404 . S
C462 C465 1.539 . S
C463 C459 1.408 . S
C463 C462 1.404 . S
C463 H475 0.930 . S
C464 C460 1.524 1_554 S
C464 H476 0.956 . S
C464 H477 0.961 . S
C464 H478 0.961 1_554 S
C465 C462 1.539 . S
C465 H479 0.958 . S
C465 H480 0.961 . S
C465 H481 0.960 . S
H466 C450 0.931 . S
H467 C455 0.929 . S
H468 C456 0.960 1_556 S
H469 C456 0.962 . S
H470 C456 0.960 . S
H471 C457 0.961 . S
H472 C457 0.961 . S
H473 C457 0.961 . S
H474 C458 0.931 . S
H475 C463 0.930 . S
H476 C464 0.956 . S
H477 C464 0.961 . S
H478 C464 0.961 1_556 S
H479 C465 0.958 . S
H480 C465 0.961 . S
H481 C465 0.960 . S
C482 C483 1.391 . S
C482 C484 1.394 . S
C482 H498 0.931 . S
C483 C482 1.391 . S
C483 C487 1.376 . S
C484 C482 1.394 . S
C484 C485 1.369 . S
C484 C488 1.531 . S
C485 C484 1.369 . S
C485 C486 1.410 . S
C485 C493 1.503 . S
C486 C485 1.410 . S
C486 C487 1.392 . S
C486 C489 1.511 . S
C487 C483 1.376 . S
C487 C486 1.392 . S
C487 H499 0.929 . S
C488 C484 1.531 . S
C488 H500 0.960 . S
C488 H501 0.962 . S
C488 H502 0.960 . S
C489 C486 1.511 . S
C489 H503 0.961 . S
C489 H504 0.961 . S
C489 H505 0.961 . S
C490 C491 1.370 . S
C490 C492 1.363 . S
C490 H506 0.931 . S
C491 C490 1.370 . S
C491 C495 1.408 . S
C492 C490 1.363 . S
C492 C493 1.370 1_455 S
C492 C496 1.524 1_455 S
C493 C485 1.503 . S
C493 C492 1.370 1_655 S
C493 C494 1.403 1_655 S
C494 C493 1.403 1_455 S
C494 C495 1.404 . S
C494 C497 1.539 1_455 S
C495 C491 1.408 . S
C495 C494 1.404 . S
C495 H507 0.930 . S
C496 C492 1.524 1_655 S
C496 H508 0.956 . S
C496 H509 0.961 . S
C496 H510 0.961 1_655 S
C497 C494 1.539 1_655 S
C497 H511 0.958 . S
C497 H512 0.961 1_655 S
C497 H513 0.960 . S
H498 C482 0.931 . S
H499 C487 0.929 . S
H500 C488 0.960 . S
H501 C488 0.962 . S
H502 C488 0.960 . S
H503 C489 0.961 . S
H504 C489 0.961 . S
H505 C489 0.961 . S
H506 C490 0.931 . S
H507 C495 0.930 . S
H508 C496 0.956 . S
H509 C496 0.961 . S
H510 C496 0.961 1_455 S
H511 C497 0.958 . S
H512 C497 0.961 1_455 S
H513 C497 0.960 . S
C514 C515 1.391 1_565 S
C514 C516 1.394 . S
C514 H530 0.931 . S
C515 C514 1.391 1_545 S
C515 C519 1.376 . S
C516 C514 1.394 . S
C516 C517 1.369 . S
C516 C520 1.531 . S
C517 C516 1.369 . S
C517 C518 1.410 1_565 S
C517 C525 1.503 . S
C518 C517 1.410 1_545 S
C518 C519 1.392 . S
C518 C521 1.511 . S
C519 C515 1.376 . S
C519 C518 1.392 . S
C519 H531 0.929 . S
C520 C516 1.531 . S
C520 H532 0.960 . S
C520 H533 0.962 . S
C520 H534 0.960 . S
C521 C518 1.511 . S
C521 H535 0.961 . S
C521 H536 0.961 . S
C521 H537 0.961 . S
C522 C523 1.370 . S
C522 C524 1.363 . S
C522 H538 0.931 . S
C523 C522 1.370 . S
C523 C527 1.408 . S
C524 C522 1.363 . S
C524 C525 1.370 . S
C524 C528 1.524 . S
C525 C517 1.503 . S
C525 C524 1.370 . S
C525 C526 1.403 . S
C526 C525 1.403 . S
C526 C527 1.404 . S
C526 C529 1.539 . S
C527 C523 1.408 . S
C527 C526 1.404 . S
C527 H539 0.930 . S
C528 C524 1.524 . S
C528 H540 0.956 . S
C528 H541 0.961 . S
C528 H542 0.961 . S
C529 C526 1.539 . S
C529 H543 0.958 . S
C529 H544 0.961 1_565 S
C529 H545 0.960 1_565 S
H530 C514 0.931 . S
H531 C519 0.929 . S
H532 C520 0.960 . S
H533 C520 0.962 . S
H534 C520 0.960 . S
H535 C521 0.961 . S
H536 C521 0.961 . S
H537 C521 0.961 . S
H538 C522 0.931 . S
H539 C527 0.930 . S
H540 C528 0.956 . S
H541 C528 0.961 . S
H542 C528 0.961 . S
H543 C529 0.958 . S
H544 C529 0.961 1_545 S
H545 C529 0.960 1_545 S
C546 C547 1.391 . S
C546 C548 1.394 . S
C546 H562 0.931 . S
C547 C546 1.391 . S
C547 C551 1.376 . S
C548 C546 1.394 . S
C548 C549 1.369 . S
C548 C552 1.531 . S
C549 C548 1.369 . S
C549 C550 1.410 . S
C549 C557 1.503 . S
C550 C549 1.410 . S
C550 C551 1.392 . S
C550 C553 1.511 . S
C551 C547 1.376 . S
C551 C550 1.392 . S
C551 H563 0.929 . S
C552 C548 1.531 . S
C552 H564 0.960 . S
C552 H565 0.962 . S
C552 H566 0.960 . S
C553 C550 1.511 . S
C553 H567 0.961 1_554 S
C553 H568 0.961 . S
C553 H569 0.961 . S
C554 C555 1.370 . S
C554 C556 1.363 . S
C554 H570 0.931 . S
C555 C554 1.370 . S
C555 C559 1.408 . S
C556 C554 1.363 . S
C556 C557 1.370 . S
C556 C560 1.524 1_554 S
C557 C549 1.503 . S
C557 C556 1.370 . S
C557 C558 1.403 . S
C558 C557 1.403 . S
C558 C559 1.404 . S
C558 C561 1.539 . S
C559 C555 1.408 . S
C559 C558 1.404 . S
C559 H571 0.930 . S
C560 C556 1.524 1_556 S
C560 H572 0.956 1_556 S
C560 H573 0.961 . S
C560 H574 0.961 . S
C561 C558 1.539 . S
C561 H575 0.958 . S
C561 H576 0.961 . S
C561 H577 0.960 . S
H562 C546 0.931 . S
H563 C551 0.929 . S
H564 C552 0.960 . S
H565 C552 0.962 . S
H566 C552 0.960 . S
H567 C553 0.961 1_556 S
H568 C553 0.961 . S
H569 C553 0.961 . S
H570 C554 0.931 . S
H571 C559 0.930 . S
H572 C560 0.956 1_554 S
H573 C560 0.961 . S
H574 C560 0.961 . S
H575 C561 0.958 . S
H576 C561 0.961 . S
H577 C561 0.960 . S
C578 C579 1.391 . S
C578 C580 1.394 . S
C578 H594 0.931 . S
C579 C578 1.391 . S
C579 C583 1.376 . S
C580 C578 1.394 . S
C580 C581 1.369 . S
C580 C584 1.531 . S
C581 C580 1.369 . S
C581 C582 1.410 . S
C581 C589 1.503 . S
C582 C581 1.410 . S
C582 C583 1.392 . S
C582 C585 1.511 . S
C583 C579 1.376 . S
C583 C582 1.392 . S
C583 H595 0.929 . S
C584 C580 1.531 . S
C584 H596 0.960 . S
C584 H597 0.962 . S
C584 H598 0.960 . S
C585 C582 1.511 . S
C585 H599 0.961 1_556 S
C585 H600 0.961 . S
C585 H601 0.961 . S
C586 C587 1.370 . S
C586 C588 1.363 . S
C586 H602 0.931 . S
C587 C586 1.370 . S
C587 C591 1.408 . S
C588 C586 1.363 . S
C588 C589 1.370 . S
C588 C592 1.524 . S
C589 C581 1.503 . S
C589 C588 1.370 . S
C589 C590 1.403 . S
C590 C589 1.403 . S
C590 C591 1.404 . S
C590 C593 1.539 . S
C591 C587 1.408 . S
C591 C590 1.404 . S
C591 H603 0.930 . S
C592 C588 1.524 . S
C592 H604 0.956 . S
C592 H605 0.961 1_556 S
C592 H606 0.961 1_556 S
C593 C590 1.539 . S
C593 H607 0.958 . S
C593 H608 0.961 . S
C593 H609 0.960 . S
H594 C578 0.931 . S
H595 C583 0.929 . S
H596 C584 0.960 . S
H597 C584 0.962 . S
H598 C584 0.960 . S
H599 C585 0.961 1_554 S
H600 C585 0.961 . S
H601 C585 0.961 . S
H602 C586 0.931 . S
H603 C591 0.930 . S
H604 C592 0.956 . S
H605 C592 0.961 1_554 S
H606 C592 0.961 1_554 S
H607 C593 0.958 . S
H608 C593 0.961 . S
H609 C593 0.960 . S
C610 C611 1.391 . S
C610 C612 1.394 . S
C610 H626 0.931 . S
C611 C610 1.391 . S
C611 C615 1.376 . S
C612 C610 1.394 . S
C612 C613 1.369 . S
C612 C616 1.531 . S
C613 C612 1.369 . S
C613 C614 1.410 . S
C613 C621 1.503 . S
C614 C613 1.410 . S
C614 C615 1.392 . S
C614 C617 1.511 . S
C615 C611 1.376 . S
C615 C614 1.392 . S
C615 H627 0.929 . S
C616 C612 1.531 . S
C616 H628 0.960 . S
C616 H629 0.962 . S
C616 H630 0.960 . S
C617 C614 1.511 . S
C617 H631 0.961 . S
C617 H632 0.961 . S
C617 H633 0.961 . S
C618 C619 1.370 . S
C618 C620 1.363 . S
C618 H634 0.931 . S
C619 C618 1.370 . S
C619 C623 1.408 . S
C620 C618 1.363 . S
C620 C621 1.370 . S
C620 C624 1.524 . S
C621 C613 1.503 . S
C621 C620 1.370 . S
C621 C622 1.403 . S
C622 C621 1.403 . S
C622 C623 1.404 . S
C622 C625 1.539 . S
C623 C619 1.408 . S
C623 C622 1.404 . S
C623 H635 0.930 . S
C624 C620 1.524 . S
C624 H636 0.956 . S
C624 H637 0.961 . S
C624 H638 0.961 . S
C625 C622 1.539 . S
C625 H639 0.958 . S
C625 H640 0.961 . S
C625 H641 0.960 . S
H626 C610 0.931 . S
H627 C615 0.929 . S
H628 C616 0.960 . S
H629 C616 0.962 . S
H630 C616 0.960 . S
H631 C617 0.961 . S
H632 C617 0.961 . S
H633 C617 0.961 . S
H634 C618 0.931 . S
H635 C623 0.930 . S
H636 C624 0.956 . S
H637 C624 0.961 . S
H638 C624 0.961 . S
H639 C625 0.958 . S
H640 C625 0.961 . S
H641 C625 0.960 . S
C642 C643 1.391 . S
C642 C644 1.394 . S
C642 H658 0.931 . S
C643 C642 1.391 . S
C643 C647 1.376 . S
C644 C642 1.394 . S
C644 C645 1.369 . S
C644 C648 1.531 . S
C645 C644 1.369 . S
C645 C646 1.410 . S
C645 C653 1.503 . S
C646 C645 1.410 . S
C646 C647 1.392 . S
C646 C649 1.511 . S
C647 C643 1.376 . S
C647 C646 1.392 . S
C647 H659 0.929 . S
C648 C644 1.531 . S
C648 H660 0.960 . S
C648 H661 0.962 . S
C648 H662 0.960 . S
C649 C646 1.511 . S
C649 H663 0.961 . S
C649 H664 0.961 . S
C649 H665 0.961 . S
C650 C651 1.370 . S
C650 C652 1.363 . S
C650 H666 0.931 . S
C651 C650 1.370 . S
C651 C655 1.408 . S
C652 C650 1.363 . S
C652 C653 1.370 . S
C652 C656 1.524 . S
C653 C645 1.503 . S
C653 C652 1.370 . S
C653 C654 1.403 . S
C654 C653 1.403 . S
C654 C655 1.404 . S
C654 C657 1.539 . S
C655 C651 1.408 . S
C655 C654 1.404 . S
C655 H667 0.930 . S
C656 C652 1.524 . S
C656 H668 0.956 . S
C656 H669 0.961 . S
C656 H670 0.961 . S
C657 C654 1.539 . S
C657 H671 0.958 . S
C657 H672 0.961 . S
C657 H673 0.960 . S
H658 C642 0.931 . S
H659 C647 0.929 . S
H660 C648 0.960 . S
H661 C648 0.962 . S
H662 C648 0.960 . S
H663 C649 0.961 . S
H664 C649 0.961 . S
H665 C649 0.961 . S
H666 C650 0.931 . S
H667 C655 0.930 . S
H668 C656 0.956 . S
H669 C656 0.961 . S
H670 C656 0.961 . S
H671 C657 0.958 . S
H672 C657 0.961 . S
H673 C657 0.960 . S
C674 C675 1.391 . S
C674 C676 1.394 . S
C674 H690 0.931 . S
C675 C674 1.391 . S
C675 C679 1.376 . S
C676 C674 1.394 . S
C676 C677 1.369 . S
C676 C680 1.531 . S
C677 C676 1.369 . S
C677 C678 1.410 . S
C677 C685 1.503 . S
C678 C677 1.410 . S
C678 C679 1.392 . S
C678 C681 1.511 . S
C679 C675 1.376 . S
C679 C678 1.392 . S
C679 H691 0.929 . S
C680 C676 1.531 . S
C680 H692 0.960 . S
C680 H693 0.962 . S
C680 H694 0.960 . S
C681 C678 1.511 . S
C681 H695 0.961 . S
C681 H696 0.961 . S
C681 H697 0.961 . S
C682 C683 1.370 . S
C682 C684 1.363 . S
C682 H698 0.931 . S
C683 C682 1.370 . S
C683 C687 1.408 . S
C684 C682 1.363 . S
C684 C685 1.370 . S
C684 C688 1.524 . S
C685 C677 1.503 . S
C685 C684 1.370 . S
C685 C686 1.403 . S
C686 C685 1.403 . S
C686 C687 1.404 . S
C686 C689 1.539 . S
C687 C683 1.408 . S
C687 C686 1.404 . S
C687 H699 0.930 . S
C688 C684 1.524 . S
C688 H700 0.956 . S
C688 H701 0.961 . S
C688 H702 0.961 . S
C689 C686 1.539 . S
C689 H703 0.958 . S
C689 H704 0.961 . S
C689 H705 0.960 . S
H690 C674 0.931 . S
H691 C679 0.929 . S
H692 C680 0.960 . S
H693 C680 0.962 . S
H694 C680 0.960 . S
H695 C681 0.961 . S
H696 C681 0.961 . S
H697 C681 0.961 . S
H698 C682 0.931 . S
H699 C687 0.930 . S
H700 C688 0.956 . S
H701 C688 0.961 . S
H702 C688 0.961 . S
H703 C689 0.958 . S
H704 C689 0.961 . S
H705 C689 0.960 . S
C706 C707 1.391 . S
C706 C708 1.394 . S
C706 H722 0.931 . S
C707 C706 1.391 . S
C707 C711 1.376 . S
C708 C706 1.394 . S
C708 C709 1.369 . S
C708 C712 1.531 . S
C709 C708 1.369 . S
C709 C710 1.410 . S
C709 C717 1.503 . S
C710 C709 1.410 . S
C710 C711 1.392 . S
C710 C713 1.511 . S
C711 C707 1.376 . S
C711 C710 1.392 . S
C711 H723 0.929 . S
C712 C708 1.531 . S
C712 H724 0.960 . S
C712 H725 0.962 . S
C712 H726 0.960 . S
C713 C710 1.511 . S
C713 H727 0.961 . S
C713 H728 0.961 . S
C713 H729 0.961 . S
C714 C715 1.370 . S
C714 C716 1.363 . S
C714 H730 0.931 . S
C715 C714 1.370 . S
C715 C719 1.408 . S
C716 C714 1.363 . S
C716 C717 1.370 . S
C716 C720 1.524 . S
C717 C709 1.503 . S
C717 C716 1.370 . S
C717 C718 1.403 . S
C718 C717 1.403 . S
C718 C719 1.404 . S
C718 C721 1.539 . S
C719 C715 1.408 . S
C719 C718 1.404 . S
C719 H731 0.930 . S
C720 C716 1.524 . S
C720 H732 0.956 . S
C720 H733 0.961 . S
C720 H734 0.961 . S
C721 C718 1.539 . S
C721 H735 0.958 . S
C721 H736 0.961 . S
C721 H737 0.960 . S
H722 C706 0.931 . S
H723 C711 0.929 . S
H724 C712 0.960 . S
H725 C712 0.962 . S
H726 C712 0.960 . S
H727 C713 0.961 . S
H728 C713 0.961 . S
H729 C713 0.961 . S
H730 C714 0.931 . S
H731 C719 0.930 . S
H732 C720 0.956 . S
H733 C720 0.961 . S
H734 C720 0.961 . S
H735 C721 0.958 . S
H736 C721 0.961 . S
H737 C721 0.960 . S
C355 C5 1.384 . S
C363 C328 1.371 1_554 S
C387 C64 2.157 . S
C395 C33 2.198 . S
C419 C92 1.409 . S
C427 C123 1.421 . S
C451 C182 2.160 . S
C459 C151 2.191 . S
C483 C210 1.427 . S
C491 C241 1.424 . S
C515 C300 2.187 . S
C523 C269 2.185 . S
C547 C239 1.446 . S
C555 C52 1.647 . S
C579 C298 1.607 . S
C587 C111 1.485 . S
C611 C170 1.654 . S
C619 C3 1.483 . S
C643 C229 1.480 . S
C651 C62 1.631 . S
C675 C288 1.653 . S
C683 C121 1.476 . S
C707 C347 1.493 . S
C715 C180 1.646 . S
