# Generated by pormake.
# Topology une, (4)-cn, num edge types: 1
# Building blocks:
#     Node 0, Type 0, BuildingBlock: QUQFOY_clean_sbu_1, # of connection points: 4
#     Node 1, Type 0, BuildingBlock: QUQFOY_clean_sbu_1, # of connection points: 4
#     Node 2, Type 0, BuildingBlock: QUQFOY_clean_sbu_1, # of connection points: 4
#     Node 3, Type 0, BuildingBlock: QUQFOY_clean_sbu_1, # of connection points: 4
#     Node 4, Type 0, BuildingBlock: QUQFOY_clean_sbu_1, # of connection points: 4
#     Node 5, Type 0, BuildingBlock: QUQFOY_clean_sbu_1, # of connection points: 4
#     Node 6, Type 0, BuildingBlock: QUQFOY_clean_sbu_1, # of connection points: 4
#     Node 7, Type 0, BuildingBlock: QUQFOY_clean_sbu_1, # of connection points: 4
#     Node 8, Type 0, BuildingBlock: QUQFOY_clean_sbu_1, # of connection points: 4
#     Node 9, Type 0, BuildingBlock: QUQFOY_clean_sbu_1, # of connection points: 4
#     Node 10, Type 0, BuildingBlock: QUQFOY_clean_sbu_1, # of connection points: 4
#     Node 11, Type 0, BuildingBlock: QUQFOY_clean_sbu_1, # of connection points: 4
#     Node 12, Type 0, BuildingBlock: QUQFOY_clean_sbu_1, # of connection points: 4
#     Node 13, Type 0, BuildingBlock: QUQFOY_clean_sbu_1, # of connection points: 4
#     Node 14, Type 0, BuildingBlock: QUQFOY_clean_sbu_1, # of connection points: 4
#     Node 15, Type 0, BuildingBlock: QUQFOY_clean_sbu_1, # of connection points: 4
#     Node 16, Type 0, BuildingBlock: QUQFOY_clean_sbu_1, # of connection points: 4
#     Node 17, Type 0, BuildingBlock: QUQFOY_clean_sbu_1, # of connection points: 4
#     Edge 18, Type (0, 0), BuildingBlock: KIFKEQ_clean_linker_1, # of connection points: 2
#     Edge 19, Type (0, 0), BuildingBlock: KIFKEQ_clean_linker_1, # of connection points: 2
#     Edge 20, Type (0, 0), BuildingBlock: KIFKEQ_clean_linker_1, # of connection points: 2
#     Edge 21, Type (0, 0), BuildingBlock: KIFKEQ_clean_linker_1, # of connection points: 2
#     Edge 22, Type (0, 0), BuildingBlock: KIFKEQ_clean_linker_1, # of connection points: 2
#     Edge 23, Type (0, 0), BuildingBlock: KIFKEQ_clean_linker_1, # of connection points: 2
#     Edge 24, Type (0, 0), BuildingBlock: KIFKEQ_clean_linker_1, # of connection points: 2
#     Edge 25, Type (0, 0), BuildingBlock: KIFKEQ_clean_linker_1, # of connection points: 2
#     Edge 26, Type (0, 0), BuildingBlock: KIFKEQ_clean_linker_1, # of connection points: 2
#     Edge 27, Type (0, 0), BuildingBlock: KIFKEQ_clean_linker_1, # of connection points: 2
#     Edge 28, Type (0, 0), BuildingBlock: KIFKEQ_clean_linker_1, # of connection points: 2
#     Edge 29, Type (0, 0), BuildingBlock: KIFKEQ_clean_linker_1, # of connection points: 2
#     Edge 30, Type (0, 0), BuildingBlock: KIFKEQ_clean_linker_1, # of connection points: 2
#     Edge 31, Type (0, 0), BuildingBlock: KIFKEQ_clean_linker_1, # of connection points: 2
#     Edge 32, Type (0, 0), BuildingBlock: KIFKEQ_clean_linker_1, # of connection points: 2
#     Edge 33, Type (0, 0), BuildingBlock: KIFKEQ_clean_linker_1, # of connection points: 2
#     Edge 34, Type (0, 0), BuildingBlock: KIFKEQ_clean_linker_1, # of connection points: 2
#     Edge 35, Type (0, 0), BuildingBlock: KIFKEQ_clean_linker_1, # of connection points: 2
#     Edge 36, Type (0, 0), BuildingBlock: KIFKEQ_clean_linker_1, # of connection points: 2
#     Edge 37, Type (0, 0), BuildingBlock: KIFKEQ_clean_linker_1, # of connection points: 2
#     Edge 38, Type (0, 0), BuildingBlock: KIFKEQ_clean_linker_1, # of connection points: 2
#     Edge 39, Type (0, 0), BuildingBlock: KIFKEQ_clean_linker_1, # of connection points: 2
#     Edge 40, Type (0, 0), BuildingBlock: KIFKEQ_clean_linker_1, # of connection points: 2
#     Edge 41, Type (0, 0), BuildingBlock: KIFKEQ_clean_linker_1, # of connection points: 2
#     Edge 42, Type (0, 0), BuildingBlock: KIFKEQ_clean_linker_1, # of connection points: 2
#     Edge 43, Type (0, 0), BuildingBlock: KIFKEQ_clean_linker_1, # of connection points: 2
#     Edge 44, Type (0, 0), BuildingBlock: KIFKEQ_clean_linker_1, # of connection points: 2
#     Edge 45, Type (0, 0), BuildingBlock: KIFKEQ_clean_linker_1, # of connection points: 2
#     Edge 46, Type (0, 0), BuildingBlock: KIFKEQ_clean_linker_1, # of connection points: 2
#     Edge 47, Type (0, 0), BuildingBlock: KIFKEQ_clean_linker_1, # of connection points: 2
#     Edge 48, Type (0, 0), BuildingBlock: KIFKEQ_clean_linker_1, # of connection points: 2
#     Edge 49, Type (0, 0), BuildingBlock: KIFKEQ_clean_linker_1, # of connection points: 2
#     Edge 50, Type (0, 0), BuildingBlock: KIFKEQ_clean_linker_1, # of connection points: 2
#     Edge 51, Type (0, 0), BuildingBlock: KIFKEQ_clean_linker_1, # of connection points: 2
#     Edge 52, Type (0, 0), BuildingBlock: KIFKEQ_clean_linker_1, # of connection points: 2
#     Edge 53, Type (0, 0), BuildingBlock: KIFKEQ_clean_linker_1, # of connection points: 2
# Relax obj value: 0.133
# Max RMSD: 0.153
# Mean RMSD: 0.149
data_MOF--net-une--node1-QUQFOY_clean_sbu_1--edge1-KIFKEQ_clean_linker_1
_symmetry_space_group_name_H-M    P1
_symmetry_Int_Tables_number       1
_symmetry_cell_setting            triclinic
loop_
_symmetry_equiv_pos_as_xyz
'x, y, z'
_cell_length_a     41.458643
_cell_length_b     41.342179
_cell_length_c     61.342059
_cell_angle_alpha  89.956631
_cell_angle_beta   90.004567
_cell_angle_gamma 119.93417
loop_
_atom_site_label
_atom_site_type_symbol
_atom_site_fract_x
_atom_site_fract_y
_atom_site_fract_z
_atom_type_partial_charge
O0 O 0.31921 0.08466 0.04177 0.0
Cd1 Cd 0.31015 0.04723 0.06637 0.0
Cd2 Cd 0.34883 0.02523 0.03199 0.0
O3 O 0.34632 0.0681 0.01652 0.0
O4 O 0.2879 0.06335 0.08982 0.0
O5 O 0.34243 0.06652 0.09326 0.0
C6 C 0.3172 0.07264 0.10134 0.0
C7 C 0.39739 0.01643 0.01974 0.0
C8 C 0.33371 0.0888 0.02299 0.0
C9 C 0.27223 0.9677 0.0498 0.0
O10 O 0.30057 0.97624 0.03804 0.0
O11 O 0.27046 -0.00818 0.06179 0.0
O12 O 0.36919 0.00896 0.00768 0.0
O13 O 0.39834 0.02916 0.03908 0.0
O14 O 0.89382 0.20639 0.03492 0.0
Cd15 Cd 0.91814 0.22673 0.06458 0.0
Cd16 Cd 0.95002 0.29745 0.03819 0.0
O17 O 0.91568 0.25833 0.01555 0.0
O18 O 0.89172 0.18207 0.08381 0.0
O19 O 0.89065 0.2343 0.08944 0.0
C20 C 0.88016 0.20041 0.09522 0.0
C21 C 0.9633 0.3582 0.02928 0.0
C22 C 0.89613 0.22307 0.01711 0.0
C23 C 0.00061 0.27132 0.05946 0.0
O24 O -0.00395 0.2955 0.04925 0.0
O25 O 0.97311 0.24146 0.06662 0.0
O26 O 0.97654 0.34107 0.01829 0.0
O27 O 0.94219 0.34092 0.04569 0.0
O28 O 0.75651 0.68659 0.04667 0.0
Cd29 Cd 0.72978 0.69015 0.07393 0.0
Cd30 Cd 0.66514 0.6462 0.04379 0.0
O31 O 0.70826 0.64542 0.02744 0.0
O32 O 0.76998 0.71187 0.0963 0.0
O33 O 0.72118 0.65516 0.09903 0.0
C34 C 0.75248 0.68089 0.10686 0.0
C35 C 0.60602 0.5987 0.03288 0.0
C36 C 0.74317 0.66557 0.03012 0.0
C37 C 0.68489 0.72471 0.06021 0.0
O38 O 0.6663 0.69617 0.04828 0.0
O39 O 0.71061 0.72726 0.07256 0.0
O40 O 0.62739 0.62543 0.02005 0.0
O41 O 0.61822 0.5984 0.05219 0.0
O42 O 0.69635 0.91825 0.95449 0.0
Cd43 Cd 0.69625 0.94016 0.92449 0.0
Cd44 Cd 0.64988 0.96429 0.95098 0.0
O45 O 0.65704 0.92994 0.97243 0.0
O46 O 0.71783 0.91682 0.9054 0.0
O47 O 0.66069 0.9071 0.90128 0.0
C48 C 0.68645 0.90007 0.89528 0.0
C49 C 0.60087 0.97366 0.96188 0.0
C50 C 0.67787 0.91561 0.97156 0.0
C51 C 0.7241 0.02169 0.92873 0.0
O52 O 0.69529 0.01297 0.94012 0.0
O53 O 0.72978 -0.00329 0.92062 0.0
O54 O 0.63176 0.98781 0.97232 0.0
O55 O 0.59737 0.95384 0.94487 0.0
O56 O 0.06095 0.75787 0.95887 0.0
Cd57 Cd 0.02962 0.726 0.93307 0.0
Cd58 Cd 0.01618 0.66651 0.96591 0.0
O59 O 0.05729 0.71383 0.98096 0.0
O60 O 0.04254 0.76329 0.9092 0.0
O61 O 0.0556 0.71767 0.90766 0.0
C62 C 0.05729 0.74685 0.89882 0.0
C63 C 0.01231 0.61064 0.97771 0.0
C64 C 0.07005 0.74806 0.97639 0.0
C65 C 0.95174 0.67655 0.94897 0.0
O66 O 0.96445 0.66105 0.96149 0.0
O67 O 0.9729 0.70214 0.93581 0.0
O68 O 0.0041 0.63032 0.99027 0.0
O69 O 0.02345 0.62288 0.95821 0.0
O70 O 0.21116 0.28639 0.96505 0.0
Cd71 Cd 0.23997 0.29361 0.93652 0.0
Cd72 Cd 0.30062 0.34878 0.96453 0.0
O73 O 0.25299 0.33878 0.98093 0.0
O74 O 0.2024 0.27383 0.91266 0.0
O75 O 0.2453 0.33352 0.91574 0.0
C76 C 0.21677 0.30762 0.90555 0.0
C77 C 0.35471 0.4007 0.97809 0.0
C78 C 0.22071 0.31017 0.9803 0.0
C79 C 0.29925 0.2773 0.94666 0.0
O80 O 0.31165 0.30609 0.95867 0.0
O81 O 0.27093 0.26764 0.93469 0.0
O82 O 0.33607 0.37074 0.98926 0.0
O83 O 0.34212 0.40207 0.95909 0.0
O84 O 0.98076 0.41228 0.37221 0.0
Cd85 Cd 0.97752 0.37635 0.39649 0.0
Cd86 Cd 0.02017 0.36322 0.36034 0.0
O87 O 0.01327 0.40448 0.34617 0.0
O88 O 0.95306 0.38862 0.42053 0.0
O89 O 0.01062 0.399 0.42278 0.0
C90 C 0.98356 0.40157 0.43141 0.0
C91 C 0.07061 0.35759 0.34809 0.0
C92 C -0.00396 0.42034 0.35352 0.0
C93 C 0.94652 0.29891 0.37848 0.0
O94 O 0.97428 0.31205 0.3657 0.0
O95 O 0.94262 0.31968 0.39222 0.0
O96 O 0.0423 0.34915 0.3359 0.0
O97 O 0.07118 0.37076 0.36725 0.0
O98 O 0.57186 0.54838 0.37994 0.0
Cd99 Cd 0.59563 0.57939 0.40747 0.0
Cd100 Cd 0.60818 0.63893 0.37669 0.0
O101 O 0.57227 0.59217 0.3591 0.0
O102 O 0.57843 0.54136 0.43116 0.0
O103 O 0.56265 0.58509 0.42944 0.0
C104 C 0.55982 0.55596 0.43906 0.0
C105 C 0.61004 0.69381 0.36486 0.0
C106 C 0.56326 0.55835 0.36231 0.0
C107 C 0.67397 0.63375 0.39627 0.0
O108 O 0.66073 0.64794 0.38315 0.0
O109 O 0.65275 0.6068 0.40865 0.0
O110 O 0.62109 0.67592 0.35278 0.0
O111 O 0.59708 0.68034 0.38391 0.0
O112 O 0.42711 0.01499 0.38969 0.0
Cd113 Cd 0.40261 0.01691 0.4184 0.0
Cd114 Cd 0.33452 0.97192 0.38831 0.0
O115 O 0.37832 0.97855 0.3692 0.0
O116 O 0.44602 0.0401 0.43867 0.0
O117 O 0.39792 0.98369 0.44383 0.0
C118 C 0.43019 0.00998 0.45011 0.0
C119 C 0.27647 0.92618 0.37453 0.0
C120 C 0.41329 -0.00207 0.37191 0.0
C121 C 0.35212 0.0475 0.40933 0.0
O122 O 0.33253 0.01856 0.39792 0.0
O123 O 0.38124 0.0523 0.41904 0.0
O124 O 0.29684 0.95719 0.36464 0.0
O125 O 0.28912 0.92039 0.39244 0.0
O126 O 0.35561 0.22968 0.29889 0.0
Cd127 Cd 0.36081 0.25706 0.27004 0.0
Cd128 Cd 0.31251 0.27852 0.29556 0.0
O129 O 0.31463 0.23997 0.31599 0.0
O130 O 0.38206 0.23497 0.24967 0.0
O131 O 0.32736 0.2309 0.24448 0.0
C132 C 0.3523 0.22292 0.23811 0.0
C133 C 0.26338 0.28933 0.30387 0.0
C134 C 0.33504 0.22513 0.31528 0.0
C135 C 0.39106 0.33758 0.27932 0.0
O136 O 0.36068 0.32788 0.28925 0.0
O137 O 0.39704 0.31358 0.27009 0.0
O138 O 0.29047 0.29799 0.31707 0.0
O139 O 0.26354 0.27384 0.28566 0.0
O140 O 0.73167 0.09333 0.28779 0.0
Cd141 Cd 0.69449 0.06497 0.26323 0.0
Cd142 Cd 0.67498 0.00409 0.29762 0.0
O143 O 0.71786 0.04974 0.31285 0.0
O144 O 0.71055 0.10316 0.23965 0.0
O145 O 0.71411 0.05179 0.23659 0.0
C146 C 0.72028 0.08317 0.22839 0.0
C147 C 0.66487 0.9462 0.31009 0.0
C148 C 0.73723 0.08323 0.30631 0.0
C149 C 0.61603 0.02217 0.27999 0.0
O150 O 0.6259 0.00302 0.29144 0.0
O151 O 0.63914 0.04865 0.26796 0.0
O152 O 0.65724 0.96717 0.32188 0.0
O153 O 0.67927 0.9584 0.2911 0.0
O154 O 0.87681 0.64047 0.29834 0.0
Cd155 Cd 0.90405 0.6385 0.27081 0.0
Cd156 Cd 0.96847 0.69173 0.30009 0.0
O157 O 0.92277 0.68747 0.31603 0.0
O158 O 0.86307 0.61395 0.24907 0.0
O159 O 0.91005 0.67155 0.24518 0.0
C160 C 0.87891 0.64452 0.238 0.0
C161 C 0.02497 0.741 0.31324 0.0
C162 C 0.88852 0.66333 0.31415 0.0
C163 C 0.95782 0.61506 0.28438 0.0
O164 O 0.97335 0.64505 0.29541 0.0
O165 O 0.92985 0.6071 0.2724 0.0
O166 O 0.00363 0.71269 0.32505 0.0
O167 O 0.0141 0.74213 0.29369 0.0
O168 O 0.6295 0.72527 0.71608 0.0
Cd169 Cd 0.63006 0.69026 0.73964 0.0
Cd170 Cd 0.67429 0.68111 0.70347 0.0
O171 O 0.66719 0.72351 0.6912 0.0
O172 O 0.60819 0.70215 0.76517 0.0
O173 O 0.66676 0.71512 0.76406 0.0
C174 C 0.64056 0.71732 0.77416 0.0
C175 C 0.72547 0.67866 0.68932 0.0
C176 C 0.64712 0.73649 0.6982 0.0
C177 C 0.60184 0.61402 0.72106 0.0
O178 O 0.62916 0.62885 0.70794 0.0
O179 O 0.59728 0.63337 0.73552 0.0
O180 O 0.69689 0.67108 0.67759 0.0
O181 O 0.72554 0.68847 0.70931 0.0
O182 O 0.22082 0.87366 0.70299 0.0
Cd183 Cd 0.24388 0.89852 0.73228 0.0
Cd184 Cd 0.26615 0.96598 0.70363 0.0
O185 O 0.23472 0.92293 0.68245 0.0
O186 O 0.22346 0.85521 0.75275 0.0
O187 O 0.21301 0.90233 0.75653 0.0
C188 C 0.20787 0.87055 0.76341 0.0
C189 C 0.27136 0.02271 0.69236 0.0
C190 C 0.21977 0.88786 0.68481 0.0
C191 C 0.32508 0.95282 0.72639 0.0
O192 O 0.31586 0.97233 0.71474 0.0
O193 O 0.3006 0.92235 0.7349 0.0
O194 O 0.2873 0.0075 0.68208 0.0
O195 O 0.25196 0.00569 0.70937 0.0
O196 O 0.09305 0.37332 0.7206 0.0
Cd197 Cd 0.06799 0.37477 0.74915 0.0
Cd198 Cd 0.00145 0.33112 0.72048 0.0
O199 O 0.04395 0.33692 0.70039 0.0
O200 O 0.11003 0.3946 0.77034 0.0
O201 O 0.06019 0.33871 0.7735 0.0
C202 C 0.09255 0.36339 0.78069 0.0
C203 C 0.94275 0.28178 0.71019 0.0
C204 C 0.07898 0.3562 0.70287 0.0
C205 C 0.0195 0.40733 0.74015 0.0
O206 O -0.00055 0.37827 0.7289 0.0
O207 O 0.04829 0.41153 0.75 0.0
O208 O 0.96044 0.31144 0.69863 0.0
O209 O 0.95847 0.27956 0.72784 0.0
O210 O 0.01838 0.57566 0.62357 0.0
Cd211 Cd 0.0212 0.59819 0.5933 0.0
Cd212 Cd 0.9759 0.62578 0.61809 0.0
O213 O 0.98293 0.59324 0.64096 0.0
O214 O 0.04275 0.57405 0.57477 0.0
O215 O -0.01273 0.5676 0.56879 0.0
C216 C 0.01268 0.55971 0.56336 0.0
C217 C 0.92801 0.6374 0.62847 0.0
C218 C 0.00149 0.57642 0.64067 0.0
C219 C 0.05165 0.68047 0.59672 0.0
O220 O 0.0219 0.67323 0.60667 0.0
O221 O 0.05713 0.65448 0.59016 0.0
O222 O 0.95918 0.65172 0.6386 0.0
O223 O 0.92357 0.61617 0.61201 0.0
O224 O 0.39487 0.42117 0.62433 0.0
Cd225 Cd 0.35771 0.40039 0.59894 0.0
Cd226 Cd 0.32967 0.33367 0.63093 0.0
O227 O 0.37418 0.37452 0.64793 0.0
O228 O 0.37896 0.44462 0.57917 0.0
O229 O 0.37587 0.39147 0.5702 0.0
C230 C 0.38634 0.42575 0.5654 0.0
C231 C 0.31515 0.27304 0.64056 0.0
C232 C 0.39737 0.4078 0.64248 0.0
C233 C 0.27802 0.3623 0.61492 0.0
O234 O 0.28393 0.33922 0.62536 0.0
O235 O 0.30364 0.38875 0.60395 0.0
O236 O 0.30937 0.29391 0.6536 0.0
O237 O 0.32922 0.28647 0.62167 0.0
O238 O 0.54708 0.97113 0.64267 0.0
Cd239 Cd 0.58 0.97405 0.61679 0.0
Cd240 Cd 0.63646 0.02262 0.64904 0.0
O241 O 0.58882 0.0165 0.66335 0.0
O242 O 0.54352 0.94951 0.59264 0.0
O243 O 0.58699 0.00906 0.59199 0.0
C244 C 0.55862 0.98129 0.58283 0.0
C245 C 0.69178 0.07581 0.65992 0.0
C246 C 0.55534 -0.00807 0.65938 0.0
C247 C 0.63053 0.94866 0.63404 0.0
O248 O 0.64289 0.97652 0.6468 0.0
O249 O 0.60679 0.94368 0.61943 0.0
O250 O 0.67214 0.04907 0.67319 0.0
O251 O 0.6797 0.07299 0.64023 0.0
H252 H 0.40712 0.00069 0.97804 0.0
H253 H 0.45509 0.01811 0.04246 0.0
H254 H 0.45598 0.99046 0.9638 0.0
H255 H 0.50342 0.00649 0.02836 0.0
H256 H 0.6063 0.02405 0.99212 0.0
H257 H 0.55731 0.03436 0.00592 0.0
H258 H 0.47795 0.9471 0.96376 0.0
H259 H 0.52762 0.93773 0.94932 0.0
C260 C 0.42801 0.00208 0.98921 0.0
C261 C 0.42733 0.0103 0.01138 0.0
C262 C 0.45589 -0.00408 0.98105 0.0
C263 C 0.48363 -0.00247 0.99491 0.0
C264 C 0.48282 0.00559 0.01715 0.0
C265 C 0.45505 0.0121 0.02528 0.0
C266 C 0.5784 0.00708 0.98574 0.0
C267 C 0.57078 0.98004 0.96963 0.0
C268 C 0.55022 0.01281 0.9938 0.0
C269 C 0.51358 0.9914 0.98611 0.0
C270 C 0.50596 0.96442 0.96987 0.0
C271 C 0.53434 0.95892 0.96164 0.0
H272 H 0.01533 0.40397 0.99997 0.0
H273 H 0.93095 0.39812 0.04374 0.0
H274 H 0.02896 0.46557 0.98803 0.0
H275 H 0.94371 0.4595 0.03123 0.0
H276 H -0.00053 0.58429 0.01932 0.0
H277 H -0.01089 0.52431 0.03236 0.0
H278 H 0.00293 0.49508 0.96673 0.0
H279 H 0.01456 0.55583 0.95381 0.0
C280 C -0.00045 0.41582 0.007 0.0
C281 C 0.97198 0.39615 0.02278 0.0
C282 C 0.00722 0.45108 1.00002 0.0
C283 C -0.0127 0.46748 0.00852 0.0
C284 C 0.95994 0.44793 0.02451 0.0
C285 C 0.95247 0.41268 0.03164 0.0
C286 C 0.00051 0.56514 0.00767 0.0
C287 C 0.00782 0.57478 0.98551 0.0
C288 C -0.00573 0.5306 0.01514 0.0
C289 C -0.00509 0.50468 1.00061 0.0
C290 C 0.00268 0.51453 0.97845 0.0
C291 C 0.00922 0.54929 0.971 0.0
H292 H 0.39296 0.39808 0.01329 0.0
H293 H 0.39671 0.4721 0.96236 0.0
H294 H 0.45282 0.44611 0.02672 0.0
H295 H 0.45629 0.52125 0.97647 0.0
H296 H 0.58064 0.58391 0.99119 0.0
H297 H 0.51932 0.53737 0.97845 0.0
H298 H 0.48487 0.50332 0.04507 0.0
H299 H 0.54708 0.54895 0.05769 0.0
C300 C 0.40636 0.42491 0.00514 0.0
C301 C 0.39014 0.43129 0.98671 0.0
C302 C 0.44068 0.45264 0.01297 0.0
C303 C 0.45954 0.48771 1.00275 0.0
C304 C 0.44289 0.49437 0.98455 0.0
C305 C 0.40864 0.46634 0.97652 0.0
C306 C 0.55998 0.5664 0.00312 0.0
C307 C 0.5687 0.56993 0.02545 0.0
C308 C 0.52464 0.53992 0.99582 0.0
C309 C 0.49692 0.51659 0.01069 0.0
C310 C 0.50564 0.52037 0.03309 0.0
C311 C 0.54125 0.54658 0.04037 0.0
H312 H 0.06747 0.31455 0.31381 0.0
H313 H 0.14007 0.3833 0.36546 0.0
H314 H 0.11339 0.29776 0.30277 0.0
H315 H 0.18717 0.36811 0.35371 0.0
H316 H 0.24503 0.30109 0.34431 0.0
H317 H 0.19915 0.31856 0.3543 0.0
H318 H 0.17108 0.31726 0.28625 0.0
H319 H 0.21596 0.29779 0.27645 0.0
C320 C 0.0936 0.32661 0.32259 0.0
C321 C 0.10013 0.35014 0.34058 0.0
C322 C 0.1201 0.31713 0.31615 0.0
C323 C 0.15407 0.33138 0.32735 0.0
C324 C 0.16101 0.35588 0.34498 0.0
C325 C 0.13418 0.36489 0.35164 0.0
C326 C 0.22888 0.30433 0.33149 0.0
C327 C 0.23399 0.29804 0.3096 0.0
C328 C 0.2028 0.31476 0.3372 0.0
C329 C 0.18158 0.31983 0.3211 0.0
C330 C 0.18655 0.31321 0.29915 0.0
C331 C 0.2123 0.30212 0.29347 0.0
H332 H 0.61377 0.75105 0.38919 0.0
H333 H 0.61568 0.71684 0.32294 0.0
H334 H 0.62737 0.81239 0.37609 0.0
H335 H 0.62742 0.77716 0.30971 0.0
H336 H 0.68985 0.90078 0.29419 0.0
H337 H 0.67538 0.8396 0.30791 0.0
H338 H 0.60426 0.84605 0.35724 0.0
H339 H 0.62019 0.90774 0.34417 0.0
C340 C 0.61638 0.75645 0.37181 0.0
C341 C 0.61389 0.72934 0.3571 0.0
C342 C 0.62411 0.79155 0.36425 0.0
C343 C 0.62892 0.79998 0.3418 0.0
C344 C 0.62494 0.77214 0.32712 0.0
C345 C 0.61782 0.73738 0.33469 0.0
C346 C 0.67122 0.88908 0.30799 0.0
C347 C 0.65626 0.90906 0.31813 0.0
C348 C 0.66266 0.85388 0.31579 0.0
C349 C 0.63847 0.83768 0.33368 0.0
C350 C 0.62345 0.85779 0.3437 0.0
C351 C 0.63244 0.89313 0.33611 0.0
H352 H 0.08487 0.79471 0.29062 0.0
H353 H 0.04687 0.75246 0.35558 0.0
H354 H 0.14621 0.83888 0.30521 0.0
H355 H 0.10735 0.79727 0.37025 0.0
H356 H 0.23015 0.85377 0.38733 0.0
H357 H 0.16959 0.80944 0.37194 0.0
H358 H 0.17889 0.89372 0.32653 0.0
H359 H 0.2397 0.93726 0.3413 0.0
C360 C 0.08948 0.79526 0.30803 0.0
C361 C 0.06115 0.77008 0.32193 0.0
C362 C 0.12458 0.82059 0.31643 0.0
C363 C 0.13188 0.82147 0.33893 0.0
C364 C 0.10309 0.79683 0.35282 0.0
C365 C 0.06825 0.77134 0.3444 0.0
C366 C 0.21922 0.86269 0.37403 0.0
C367 C 0.2397 0.89894 0.36553 0.0
C368 C 0.18442 0.83741 0.36527 0.0
C369 C 0.16924 0.848 0.34798 0.0
C370 C 0.18988 0.88434 0.33955 0.0
C371 C 0.22472 0.90941 0.34815 0.0
H372 H 0.85459 0.60259 0.61621 0.0
H373 H 0.93511 0.68927 0.65812 0.0
H374 H 0.80587 0.61325 0.63091 0.0
H375 H 0.88699 0.70068 0.67225 0.0
H376 H 0.78491 0.68188 0.71079 0.0
H377 H 0.8336 0.67194 0.69548 0.0
H378 H 0.78457 0.65767 0.6315 0.0
H379 H 0.73543 0.66645 0.6469 0.0
C380 C 0.86193 0.62416 0.62836 0.0
C381 C 0.89859 0.64493 0.63608 0.0
C382 C 0.8341 0.63039 0.63674 0.0
C383 C 0.84249 0.6577 0.65288 0.0
C384 C 0.87937 0.67893 0.66019 0.0
C385 C 0.90703 0.67254 0.65195 0.0
C386 C 0.78468 0.6768 0.69345 0.0
C387 C 0.75634 0.67491 0.68007 0.0
C388 C 0.81263 0.67122 0.68464 0.0
C389 C 0.81295 0.66392 0.66224 0.0
C390 C 0.78483 0.66258 0.64886 0.0
C391 C 0.75681 0.66792 0.65768 0.0
H392 H 0.29582 0.24301 0.68119 0.0
H393 H 0.31455 0.21774 0.61566 0.0
H394 H 0.28352 0.18199 0.69335 0.0
H395 H 0.30078 0.15582 0.62766 0.0
H396 H 0.31968 0.06874 0.66167 0.0
H397 H 0.32827 0.128 0.64882 0.0
H398 H 0.24081 0.11675 0.692 0.0
H399 H 0.2332 0.0577 0.70553 0.0
C400 C 0.29691 0.22422 0.6693 0.0
C401 C 0.30638 0.23526 0.64747 0.0
C402 C 0.28955 0.18904 0.67626 0.0
C403 C 0.29115 0.16389 0.66152 0.0
C404 C 0.29991 0.17472 0.63955 0.0
C405 C 0.30764 0.21012 0.63262 0.0
C406 C 0.30221 0.07884 0.66844 0.0
C407 C 0.27579 0.05858 0.68467 0.0
C408 C 0.30694 0.11275 0.66091 0.0
C409 C 0.28512 0.12716 0.66924 0.0
C410 C 0.25844 0.10672 0.6854 0.0
C411 C 0.25394 0.07283 0.69311 0.0
H412 H 0.74759 0.1292 0.63476 0.0
H413 H 0.71698 0.09395 0.70154 0.0
H414 H 0.80845 0.17863 0.64697 0.0
H415 H 0.77703 0.14396 0.71382 0.0
H416 H 0.90186 0.21091 0.7267 0.0
H417 H 0.84112 0.16156 0.7142 0.0
H418 H 0.8388 0.23648 0.66582 0.0
H419 H 0.89979 0.28505 0.67775 0.0
C420 C 0.75368 0.13236 0.65206 0.0
C421 C 0.72757 0.10766 0.66717 0.0
C422 C 0.78852 0.16073 0.65909 0.0
C423 C 0.7978 0.16519 0.68141 0.0
C424 C 0.77122 0.1409 0.6965 0.0
C425 C 0.73662 0.1124 0.68946 0.0
C426 C 0.88831 0.21673 0.7134 0.0
C427 C 0.90565 0.25179 0.70319 0.0
C428 C 0.85341 0.18855 0.70629 0.0
C429 C 0.835 0.195 0.68896 0.0
C430 C 0.85237 0.23025 0.67892 0.0
C431 C 0.8873 0.25821 0.68588 0.0
H432 H 0.38187 0.11476 0.12393 0.0
H433 H 0.2636 0.07359 0.1265 0.0
H434 H 0.39039 0.15098 0.15694 0.0
H435 H 0.27164 0.10817 0.16002 0.0
H436 H 0.30166 0.20602 0.20528 0.0
H437 H 0.29358 0.1689 0.17275 0.0
H438 H 0.38166 0.14948 0.19467 0.0
H439 H 0.3908 0.18809 0.22654 0.0
C440 C 0.35761 0.11292 0.1318 0.0
C441 C 0.32212 0.09148 0.12258 0.0
C442 C 0.36242 0.1336 0.1508 0.0
C443 C 0.33173 0.13286 0.16119 0.0
C444 C 0.29608 0.11029 0.15226 0.0
C445 C 0.29138 0.09012 0.13312 0.0
C446 C 0.3193 0.19385 0.20308 0.0
C447 C 0.34693 0.2001 0.21842 0.0
C448 C 0.31452 0.17228 0.1845 0.0
C449 C 0.33688 0.15594 0.18099 0.0
C450 C 0.36434 0.16207 0.19652 0.0
C451 C 0.36946 0.18407 0.2149 0.0
H452 H 0.84179 0.12642 0.10536 0.0
H453 H 0.86224 0.23404 0.12774 0.0
H454 H 0.80056 0.09649 0.13616 0.0
H455 H 0.82229 0.20437 0.15922 0.0
H456 H 0.72374 0.13929 0.20337 0.0
H457 H 0.76034 0.16641 0.17053 0.0
H458 H 0.8001 0.0877 0.17395 0.0
H459 H 0.76204 0.05956 0.20626 0.0
C460 C 0.83771 0.14375 0.117 0.0
C461 C 0.85531 0.18262 0.11413 0.0
C462 C 0.81419 0.12657 0.13477 0.0
C463 C 0.80802 0.14789 0.15033 0.0
C464 C 0.82575 0.18688 0.14742 0.0
C465 C 0.84891 0.204 0.12945 0.0
C466 C 0.73999 0.12752 0.19695 0.0
C467 C 0.74001 0.09728 0.2074 0.0
C468 C 0.76131 0.14333 0.17821 0.0
C469 C 0.78363 0.12963 0.16961 0.0
C470 C 0.78296 0.09877 0.17986 0.0
C471 C 0.7612 0.08264 0.19846 0.0
H472 H 0.90972 0.69804 0.20622 0.0
H473 H 0.80679 0.60074 0.22541 0.0
H474 H 0.87881 0.70575 0.17447 0.0
H475 H 0.77533 0.60941 0.19445 0.0
H476 H 0.73623 0.61456 0.12585 0.0
H477 H 0.76751 0.60497 0.15676 0.0
H478 H 0.83657 0.72455 0.16408 0.0
H479 H 0.80657 0.73381 0.13254 0.0
C480 C 0.88044 0.67841 0.20369 0.0
C481 C 0.86075 0.64877 0.21829 0.0
C482 C 0.86255 0.68296 0.18558 0.0
C483 C 0.82434 0.65836 0.18184 0.0
C484 C 0.80482 0.62859 0.19647 0.0
C485 C 0.82286 0.62371 0.21435 0.0
C486 C 0.75796 0.63873 0.13419 0.0
C487 C 0.76899 0.67491 0.12676 0.0
C488 C 0.77589 0.6333 0.15198 0.0
C489 C 0.80488 0.66397 0.16297 0.0
C490 C 0.8151 0.70018 0.15578 0.0
C491 C 0.79761 0.70555 0.1378 0.0
H492 H 0.62841 0.86775 0.86644 0.0
H493 H 0.72989 0.86993 0.8852 0.0
H494 H 0.61787 0.82181 0.83834 0.0
H495 H 0.71866 0.82294 0.85784 0.0
H496 H 0.70787 0.76994 0.79048 0.0
H497 H 0.71908 0.81369 0.82001 0.0
H498 H 0.60082 0.75875 0.83286 0.0
H499 H 0.58967 0.71613 0.80274 0.0
C500 C 0.64835 0.85826 0.86463 0.0
C501 C 0.68004 0.87261 0.87796 0.0
C502 C 0.64217 0.83164 0.84865 0.0
C503 C 0.66732 0.8184 0.84582 0.0
C504 C 0.69897 0.8328 0.85926 0.0
C505 C 0.70534 0.8597 0.87504 0.0
C506 C 0.68436 0.76689 0.79985 0.0
C507 C 0.6479 0.73972 0.79423 0.0
C508 C 0.69074 0.79197 0.81682 0.0
C509 C 0.66081 0.79014 0.82873 0.0
C510 C 0.62449 0.76169 0.82372 0.0
C511 C 0.6181 0.73695 0.8066 0.0
H512 H 0.05199 0.79693 0.87238 0.0
H513 H 0.10712 0.73214 0.87824 0.0
H514 H 0.08667 0.82553 0.83917 0.0
H515 H 0.14325 0.76198 0.84553 0.0
H516 H 0.17997 0.79819 0.77589 0.0
H517 H 0.14167 0.76676 0.80751 0.0
H518 H 0.14634 0.86956 0.82693 0.0
H519 H 0.18328 0.90045 0.79464 0.0
C520 C 0.07162 0.78885 0.86656 0.0
C521 C 0.07683 0.76228 0.87792 0.0
C522 C 0.09181 0.80552 0.8476 0.0
C523 C 0.11815 0.79645 0.83966 0.0
C524 C 0.1229 0.76938 0.85091 0.0
C525 C 0.10228 0.7523 0.86974 0.0
C526 C 0.17275 0.81406 0.7869 0.0
C527 C 0.18466 0.85183 0.78277 0.0
C528 C 0.15093 0.79607 0.80516 0.0
C529 C 0.14085 0.81551 0.81993 0.0
C530 C 0.15291 0.8534 0.81577 0.0
C531 C 0.17433 0.87127 0.79732 0.0
H532 H 0.1647 0.25861 0.87712 0.0
H533 H 0.23014 0.3762 0.89184 0.0
H534 H 0.13478 0.27237 0.84725 0.0
H535 H 0.19918 0.38998 0.8625 0.0
H536 H 0.16416 0.40519 0.79468 0.0
H537 H 0.19458 0.39177 0.8243 0.0
H538 H 0.09101 0.29172 0.8396 0.0
H539 H 0.06094 0.30451 0.80924 0.0
C540 C 0.17263 0.28744 0.87401 0.0
C541 C 0.19988 0.31633 0.88682 0.0
C542 C 0.1552 0.29532 0.85698 0.0
C543 C 0.16429 0.33229 0.85246 0.0
C544 C 0.19177 0.36121 0.86525 0.0
C545 C 0.20949 0.35334 0.88214 0.0
C546 C 0.14779 0.38038 0.80441 0.0
C547 C 0.1101 0.35589 0.79959 0.0
C548 C 0.16524 0.37277 0.82152 0.0
C549 C 0.14537 0.34063 0.83443 0.0
C550 C 0.10743 0.3164 0.82979 0.0
C551 C 0.09005 0.32385 0.81249 0.0
H552 H 0.92845 0.39831 0.4571 0.0
H553 H 0.04796 0.44898 0.45289 0.0
H554 H 0.9349 0.43431 0.48979 0.0
H555 H 0.05466 0.48635 0.4851 0.0
H556 H 0.05444 0.52758 0.55349 0.0
H557 H 0.04676 0.48659 0.52309 0.0
H558 H 0.953 0.49583 0.50024 0.0
H559 H 0.95982 0.53557 0.53127 0.0
C560 C 0.95615 0.41713 0.46321 0.0
C561 C -0.01229 0.42085 0.45241 0.0
C562 C 0.95989 0.43808 0.48187 0.0
C563 C -0.00468 0.46369 0.49003 0.0
C564 C 0.02689 0.46665 0.4795 0.0
C565 C 0.0231 0.44529 0.46097 0.0
C566 C 0.03212 0.52078 0.54199 0.0
C567 C 0.00773 0.53484 0.54477 0.0
C568 C 0.02784 0.4974 0.52446 0.0
C569 C -0.0007 0.48783 0.50909 0.0
C570 C 0.9749 0.50197 0.51192 0.0
C571 C 0.97893 0.52502 0.52963 0.0
H572 H 0.55457 0.49994 0.46497 0.0
H573 H 0.50768 0.57165 0.45549 0.0
H574 H 0.51108 0.46831 0.49462 0.0
H575 H 0.4632 0.53916 0.48478 0.0
H576 H 0.41723 0.49889 0.55372 0.0
H577 H 0.45872 0.53068 0.52332 0.0
H578 H 0.44674 0.42585 0.5015 0.0
H579 H 0.40606 0.39417 0.53247 0.0
C580 C 0.53491 0.50894 0.46921 0.0
C581 C 0.53464 0.53838 0.45789 0.0
C582 C 0.50968 0.49052 0.48609 0.0
C583 C 0.4833 0.50086 0.49201 0.0
C584 C 0.48333 0.53064 0.48083 0.0
C585 C 0.50879 0.54927 0.464 0.0
C586 C 0.42317 0.4825 0.54234 0.0
C587 C 0.40843 0.44397 0.54557 0.0
C588 C 0.44689 0.50077 0.52481 0.0
C589 C 0.45634 0.48095 0.50998 0.0
C590 C 0.44065 0.44215 0.51284 0.0
C591 C 0.41705 0.42389 0.53048 0.0
H592 H 0.57184 0.04626 0.5632 0.0
H593 H 0.50803 0.92641 0.5564 0.0
H594 H 0.54056 0.0532 0.53139 0.0
H595 H 0.47786 0.93321 0.5241 0.0
H596 H 0.40113 0.9557 0.48162 0.0
H597 H 0.43302 0.94927 0.51333 0.0
H598 H 0.53476 0.0475 0.49326 0.0
H599 H 0.50246 0.05469 0.46221 0.0
C600 C 0.55158 0.02141 0.55469 0.0
C601 C 0.54236 0.98581 0.56235 0.0
C602 C 0.53366 0.02534 0.53638 0.0
C603 C 0.50641 -0.00625 0.52514 0.0
C604 C 0.49802 0.95817 0.53255 0.0
C605 C 0.51561 0.95426 0.55098 0.0
C606 C 0.43026 0.97594 0.48406 0.0
C607 C 0.44919 0.00576 0.46945 0.0
C608 C 0.44869 0.97214 0.50216 0.0
C609 C 0.48662 -0.00217 0.50593 0.0
C610 C 0.50546 0.02754 0.49118 0.0
C611 C 0.48695 0.03155 0.47326 0.0
H612 H 0.19909 0.94719 0.05522 0.0
H613 H 0.27139 0.90419 0.0374 0.0
H614 H 0.14539 0.88968 0.04198 0.0
H615 H 0.21785 0.84684 0.02437 0.0
H616 H 0.10973 0.74045 0.00971 0.0
H617 H 0.15483 0.78958 0.03365 0.0
H618 H 0.13293 0.8698 1.00178 0.0
H619 H 0.08823 0.82109 0.97781 0.0
C620 C 0.20335 0.92501 0.04915 0.0
C621 C 0.2394 0.93028 0.04706 0.0
C622 C 0.1727 0.89226 0.04146 0.0
C623 C 0.17763 0.86411 0.03195 0.0
C624 C 0.21326 0.86804 0.0317 0.0
C625 C 0.24391 0.90093 0.03906 0.0
C626 C 0.1143 0.76851 0.00797 0.0
C627 C 0.09576 0.77702 0.99172 0.0
C628 C 0.14002 0.79652 0.02168 0.0
C629 C 0.14712 0.83334 0.01962 0.0
C630 C 0.12756 0.84152 0.00393 0.0
C631 C 0.10231 0.81371 0.99004 0.0
H632 H 0.06814 0.33337 0.06625 0.0
H633 H 0.01566 0.21701 0.0488 0.0
H634 H 0.12788 0.34251 0.0537 0.0
H635 H 0.07374 0.22633 0.0342 0.0
H636 H 0.17865 0.24757 0.00406 0.0
H637 H 0.13237 0.23791 0.03162 0.0
H638 H 0.15442 0.35081 0.02074 0.0
H639 H 0.203 0.36093 0.99504 0.0
C640 C 0.06971 0.30961 0.06013 0.0
C641 C 0.03749 0.27459 0.05834 0.0
C642 C 0.10375 0.31488 0.05251 0.0
C643 C 0.10579 0.28561 0.042 0.0
C644 C 0.07393 0.24975 0.04215 0.0
C645 C 0.04029 0.24424 0.05055 0.0
C646 C 0.17369 0.27028 0.00795 0.0
C647 C 0.19381 0.3048 0.99741 0.0
C648 C 0.14701 0.2648 0.02365 0.0
C649 C 0.13882 0.2933 0.02843 0.0
C650 C 0.16005 0.32823 0.0181 0.0
C651 C 0.18766 0.33406 0.00305 0.0
H652 H 0.62363 0.72518 0.04466 0.0
H653 H 0.73603 0.79806 0.06705 0.0
H654 H 0.62207 0.77855 0.02902 0.0
H655 H 0.73445 0.8515 0.0512 0.0
H656 H 0.62775 0.88399 0.00486 0.0
H657 H 0.62821 0.8433 0.03376 0.0
H658 H 0.73318 0.85958 0.00971 0.0
H659 H 0.73264 0.89972 0.98083 0.0
C660 C 0.64754 0.75278 0.04686 0.0
C661 C 0.68018 0.75741 0.05672 0.0
C662 C 0.64657 0.78336 0.03801 0.0
C663 C 0.67835 0.81898 0.03865 0.0
C664 C 0.70972 0.82419 0.05035 0.0
C665 C 0.71052 0.79364 0.0595 0.0
C666 C 0.6512 0.87934 0.006 0.0
C667 C 0.67992 0.89457 0.99043 0.0
C668 C 0.65145 0.85615 0.02253 0.0
C669 C 0.68078 0.84849 0.02398 0.0
C670 C 0.71048 0.86545 0.00916 0.0
C671 C 0.70994 0.88806 0.99246 0.0
H672 H 0.71867 0.08342 0.93771 0.0
H673 H 0.79824 0.04863 0.92149 0.0
H674 H 0.76866 0.14168 0.95235 0.0
H675 H 0.84819 0.10704 0.93618 0.0
H676 H 0.8809 0.15269 0.00873 0.0
H677 H 0.84679 0.11331 0.97807 0.0
H678 H 0.83397 0.20263 0.95088 0.0
H679 H 0.86922 0.24283 0.9817 0.0
C680 C 0.74702 0.08889 0.9364 0.0
C681 C 0.75441 0.06098 0.92911 0.0
C682 C 0.77569 0.1224 0.94468 0.0
C683 C 0.81203 0.1283 0.94586 0.0
C684 C 0.82021 0.10278 0.9357 0.0
C685 C 0.79158 0.06938 0.92723 0.0
C686 C 0.87122 0.16414 0.99611 0.0
C687 C 0.8772 0.20058 0.99771 0.0
C688 C 0.85219 0.14179 0.97837 0.0
C689 C 0.83815 0.15512 0.96198 0.0
C690 C 0.84486 0.19191 0.96323 0.0
C691 C 0.86477 0.21472 0.98085 0.0
H692 H 0.81395 0.7204 0.02186 0.0
H693 H 0.73012 0.61022 1.00096 0.0
H694 H 0.8576 0.71953 0.99564 0.0
H695 H 0.77444 0.60918 0.97484 0.0
H696 H 0.89453 0.61497 0.96798 0.0
H697 H 0.83753 0.60994 0.9827 0.0
H698 H 0.86558 0.71583 0.95353 0.0
H699 H 0.92249 0.72086 0.93856 0.0
C700 C 0.80482 0.69606 0.01158 0.0
C701 C 0.76879 0.66524 0.01357 0.0
C702 C 0.82965 0.69576 0.9964 0.0
C703 C 0.81917 0.66441 0.98314 0.0
C704 C 0.78299 0.63373 0.98484 0.0
C705 C 0.75779 0.63433 0.99977 0.0
C706 C 0.88793 0.6366 0.9641 0.0
C707 C 0.91326 0.66863 0.95246 0.0
C708 C 0.85523 0.6336 0.97244 0.0
C709 C 0.84761 0.66278 0.96947 0.0
C710 C 0.87114 0.69315 0.95615 0.0
C711 C 0.90359 0.6959 0.94753 0.0
H712 H 0.36387 0.29323 0.96696 0.0
H713 H 0.26872 0.20407 0.93413 0.0
H714 H 0.37924 0.24812 0.98201 0.0
H715 H 0.28455 0.15898 0.94921 0.0
H716 H 0.33684 0.09104 0.9784 0.0
H717 H 0.33626 0.13842 0.95447 0.0
H718 H 0.33474 0.19972 0.01103 0.0
H719 H 0.3346 0.15247 0.0348 0.0
C720 C 0.34687 0.26416 0.96239 0.0
C721 C 0.3145 0.25207 0.94981 0.0
C722 C 0.35573 0.23841 0.97104 0.0
C723 C 0.33262 0.20017 0.96709 0.0
C724 C 0.30275 0.1884 0.95248 0.0
C725 C 0.2937 0.21423 0.94387 0.0
C726 C 0.33674 0.11487 0.98565 0.0
C727 C 0.33561 0.11808 0.00844 0.0
C728 C 0.33636 0.14181 0.97199 0.0
C729 C 0.33583 0.17274 0.98097 0.0
C730 C 0.33572 0.17637 0.00372 0.0
C731 C 0.33531 0.14919 0.01732 0.0
H732 H 0.87408 0.2651 0.39287 0.0
H733 H 0.9509 0.24502 0.35558 0.0
H734 H 0.8221 0.20695 0.37867 0.0
H735 H 0.8991 0.18764 0.3414 0.0
H736 H 0.79821 0.14688 0.29297 0.0
H737 H 0.8488 0.19309 0.31526 0.0
H738 H 0.7955 0.1295 0.37321 0.0
H739 H 0.74465 0.08224 0.35073 0.0
C740 C 0.88001 0.24779 0.38225 0.0
C741 C 0.91648 0.26005 0.37495 0.0
C742 C 0.85029 0.21456 0.37417 0.0
C743 C 0.85684 0.19343 0.35875 0.0
C744 C 0.89351 0.20383 0.35313 0.0
C745 C 0.92307 0.23671 0.36123 0.0
C746 C 0.79719 0.1426 0.31044 0.0
C747 C 0.76753 0.11097 0.32012 0.0
C748 C 0.82623 0.16891 0.32315 0.0
C749 C 0.82597 0.1645 0.34584 0.0
C750 C 0.79619 0.13324 0.3557 0.0
C751 C 0.76731 0.10633 0.34287 0.0
H752 H 0.89776 0.71658 0.34397 0.0
H753 H 0.81946 0.60475 0.32244 0.0
H754 H 0.85245 0.71294 0.37094 0.0
H755 H 0.77471 0.60114 0.34937 0.0
H756 H 0.73023 0.69913 0.3803 0.0
H757 H 0.7888 0.70865 0.36538 0.0
H758 H 0.76508 0.60155 0.39073 0.0
H759 H 0.7064 0.59196 0.40579 0.0
C760 C 0.87108 0.69114 0.34514 0.0
C761 C 0.86197 0.66108 0.33095 0.0
C762 C 0.8453 0.68907 0.36059 0.0
C763 C 0.81034 0.65664 0.36237 0.0
C764 C 0.80174 0.62623 0.34862 0.0
C765 C 0.82718 0.6285 0.333 0.0
C766 C 0.73815 0.67822 0.38338 0.0
C767 C 0.71347 0.64451 0.39384 0.0
C768 C 0.77174 0.68374 0.3749 0.0
C769 C 0.78099 0.65549 0.37657 0.0
C770 C 0.75823 0.62352 0.38902 0.0
C771 C 0.7248 0.61818 0.39776 0.0
H772 H 0.28493 0.1951 0.34887 0.0
H773 H 0.38844 0.20743 0.3247 0.0
H774 H 0.28714 0.15852 0.37973 0.0
H775 H 0.39066 0.17144 0.35538 0.0
H776 H 0.40154 0.12187 0.41428 0.0
H777 H 0.39616 0.17194 0.39675 0.0
H778 H 0.2817 0.09408 0.38048 0.0
H779 H 0.28692 0.04406 0.39801 0.0
C780 C 0.30826 0.1903 0.35025 0.0
C781 C 0.33629 0.20373 0.33423 0.0
C782 C 0.30957 0.16957 0.36793 0.0
C783 C 0.3393 0.16262 0.37009 0.0
C784 C 0.3678 0.17703 0.3544 0.0
C785 C 0.36622 0.19716 0.33663 0.0
C786 C 0.37474 0.11575 0.40786 0.0
C787 C 0.34493 0.07888 0.40698 0.0
C788 C 0.37176 0.14438 0.39769 0.0
C789 C 0.33883 0.13657 0.38678 0.0
C790 C 0.30747 0.10084 0.38867 0.0
C791 C 0.31052 0.07217 0.39866 0.0
H792 H 0.52914 0.56561 0.32589 0.0
H793 H 0.55229 0.48778 0.35989 0.0
H794 H 0.49347 0.51779 0.2986 0.0
H795 H 0.51681 0.44035 0.33275 0.0
H796 H 0.46595 0.36382 0.27803 0.0
H797 H 0.51407 0.42324 0.29305 0.0
H798 H 0.43239 0.45779 0.30215 0.0
H799 H 0.38448 0.39872 0.28716 0.0
C800 C 0.52693 0.53847 0.32743 0.0
C801 C 0.54311 0.53029 0.3452 0.0
C802 C 0.50664 0.51122 0.31179 0.0
C803 C 0.50263 0.47551 0.31349 0.0
C804 C 0.51998 0.46784 0.3308 0.0
C805 C 0.53987 0.49487 0.34652 0.0
C806 C 0.4586 0.38468 0.28248 0.0
C807 C 0.4214 0.37646 0.28183 0.0
C808 C 0.48606 0.41853 0.2912 0.0
C809 C 0.47675 0.44473 0.29911 0.0
C810 C 0.44038 0.43814 0.29617 0.0
C811 C 0.41291 0.40422 0.28768 0.0
H812 H 0.5946 0.07471 0.2789 0.0
H813 H 0.55363 0.95756 0.29076 0.0
H814 H 0.53917 0.06929 0.29653 0.0
H815 H 0.49832 0.95214 0.30816 0.0
H816 H 0.39747 0.95358 0.33578 0.0
H817 H 0.44033 0.95954 0.30651 0.0
H818 H 0.52818 0.05759 0.33774 0.0
H819 H 0.48584 0.0516 0.36693 0.0
C820 C 0.57306 0.04752 0.28444 0.0
C821 C 0.57855 0.01666 0.28379 0.0
C822 C 0.54153 0.04449 0.29465 0.0
C823 C 0.51488 0.01044 0.30398 0.0
C824 C 0.5184 0.97869 0.30108 0.0
C825 C 0.55011 0.98183 0.29118 0.0
C826 C 0.42587 0.97655 0.33627 0.0
C827 C 0.43845 0.00186 0.35378 0.0
C828 C 0.45026 0.98 0.3195 0.0
C829 C 0.48737 0.00922 0.31978 0.0
C830 C 0.49952 0.03518 0.33691 0.0
C831 C 0.4754 0.03142 0.35379 0.0
H832 H 0.92379 0.54163 0.27132 0.0
H833 H 0.01974 0.62618 0.30607 0.0
H834 H 0.93746 0.49394 0.28491 0.0
H835 H 0.03265 0.57856 0.3197 0.0
H836 H 0.98648 0.47672 0.36837 0.0
H837 H 0.98238 0.5243 0.34708 0.0
H838 H -0.00431 0.4764 0.28766 0.0
H839 H 0.0007 0.42875 0.30908 0.0
C840 C 0.94828 0.55021 0.28131 0.0
C841 C 0.97021 0.58757 0.28799 0.0
C842 C 0.95608 0.52294 0.28902 0.0
C843 C 0.98575 0.53278 0.30352 0.0
C844 C 0.00942 0.57042 0.30868 0.0
C845 C 0.0019 0.59759 0.30088 0.0
C846 C -0.01135 0.47631 0.35078 0.0
C847 C -0.00605 0.4491 0.34037 0.0
C848 C 0.98649 0.50361 0.33864 0.0
C849 C -0.01105 0.50391 0.31583 0.0
C850 C -0.00617 0.47659 0.30526 0.0
C851 C -0.0032 0.44957 0.3175 0.0
H852 H 0.39934 0.40354 0.68704 0.0
H853 H 0.46443 0.46621 0.63134 0.0
H854 H 0.4496 0.44661 0.71142 0.0
H855 H 0.51431 0.50832 0.65548 0.0
H856 H 0.60955 0.56153 0.69879 0.0
H857 H 0.55961 0.50408 0.68335 0.0
H858 H 0.47858 0.5204 0.71837 0.0
H859 H 0.52869 0.57826 0.73396 0.0
C860 C 0.42453 0.42614 0.68003 0.0
C861 C 0.42803 0.43172 0.65733 0.0
C862 C 0.45309 0.45068 0.69395 0.0
C863 C 0.48581 0.48041 0.68526 0.0
C864 C 0.48956 0.48524 0.66256 0.0
C865 C 0.4609 0.46134 0.64876 0.0
C866 C 0.58118 0.5524 0.70372 0.0
C867 C 0.57293 0.57486 0.71715 0.0
C868 C 0.55266 0.5195 0.69489 0.0
C869 C 0.51539 0.50838 0.69938 0.0
C870 C 0.5072 0.5285 0.7147 0.0
C871 C 0.53586 0.56161 0.72357 0.0
H872 H 0.48521 0.93234 0.66211 0.0
H873 H 0.55821 0.04002 0.69104 0.0
H874 H 0.43495 0.92484 0.68582 0.0
H875 H 0.50743 0.03241 0.71483 0.0
H876 H 0.35368 0.90757 0.73607 0.0
H877 H 0.41495 0.91828 0.72541 0.0
H878 H 0.44664 0.03052 0.70562 0.0
H879 H 0.3856 0.02002 0.71629 0.0
C880 C 0.4906 0.95431 0.67364 0.0
C881 C 0.52554 0.98695 0.67454 0.0
C882 C 0.46194 0.94977 0.68743 0.0
C883 C 0.46744 0.97793 0.70228 0.0
C884 C 0.50257 0.01027 0.70356 0.0
C885 C 0.53151 0.01461 0.68992 0.0
C886 C 0.37414 0.93497 0.73019 0.0
C887 C 0.36457 0.9627 0.72654 0.0
C888 C 0.40912 0.94099 0.72398 0.0
C889 C 0.43514 0.97494 0.71429 0.0
C890 C 0.42709 0.00407 0.71302 0.0
C891 C 0.39204 -0.00203 0.71904 0.0
H892 H 0.07104 0.48138 0.74303 0.0
H893 H 0.95473 0.40546 0.72975 0.0
H894 H 0.06668 0.53109 0.72424 0.0
H895 H 0.95046 0.45516 0.71107 0.0
H896 H 0.9554 0.55418 0.67626 0.0
H897 H 0.95895 0.52122 0.7086 0.0
H898 H 0.058 0.52581 0.6827 0.0
H899 H 0.05433 0.55812 0.65049 0.0
C900 C 0.04414 0.47574 0.73705 0.0
C901 C 0.01344 0.43933 0.73734 0.0
C902 C 0.04174 0.50415 0.72617 0.0
C903 C 0.0085 0.49661 0.71577 0.0
C904 C 0.97647 0.4617 0.71887 0.0
C905 C 0.97895 0.43319 0.72952 0.0
C906 C 0.97812 0.54845 0.67763 0.0
C907 C 0.00432 0.55824 0.66072 0.0
C908 C 0.9802 0.52979 0.69615 0.0
C909 C 0.00896 0.52141 0.69824 0.0
C910 C 0.03593 0.53256 0.68172 0.0
C911 C 0.0335 0.55056 0.66311 0.0
H912 H 0.19445 0.90362 0.64726 0.0
H913 H 0.20463 0.81634 0.67977 0.0
H914 H 0.16133 0.86081 0.61714 0.0
H915 H 0.1721 0.7741 0.64981 0.0
H916 H 0.12599 0.70451 0.5939 0.0
H917 H 0.17519 0.76275 0.60924 0.0
H918 H 0.09701 0.80199 0.61738 0.0
H919 H 0.04786 0.74396 0.60204 0.0
C920 C 0.19006 0.87551 0.64784 0.0
C921 C 0.20164 0.86312 0.666 0.0
C922 C 0.1713 0.85117 0.63059 0.0
C923 C 0.16455 0.81434 0.63105 0.0
C924 C 0.17754 0.80256 0.6488 0.0
C925 C 0.19568 0.82659 0.66613 0.0
C926 C 0.11965 0.7262 0.59802 0.0
C927 C 0.08286 0.71928 0.59739 0.0
C928 C 0.1478 0.75945 0.60693 0.0
C929 C 0.13957 0.78632 0.61501 0.0
C930 C 0.10408 0.78167 0.61138 0.0
C931 C 0.07588 0.74832 0.60266 0.0
H932 H 0.06184 0.31193 0.6666 0.0
H933 H 0.15251 0.40737 0.69831 0.0
H934 H 0.10469 0.31472 0.63823 0.0
H935 H 0.19493 0.41011 0.67007 0.0
H936 H 0.26391 0.42014 0.61357 0.0
H937 H 0.21012 0.42042 0.62973 0.0
H938 H 0.15818 0.30178 0.64126 0.0
H939 H 0.21171 0.30147 0.62521 0.0
C940 C 0.09074 0.33375 0.66737 0.0
C941 C 0.10394 0.35911 0.68485 0.0
C942 C 0.11517 0.33537 0.65112 0.0
C943 C 0.15303 0.36274 0.65191 0.0
C944 C 0.16578 0.38907 0.66885 0.0
C945 C 0.14156 0.38717 0.6852 0.0
C946 C 0.24041 0.39393 0.61883 0.0
C947 C 0.24218 0.36089 0.6185 0.0
C948 C 0.20977 0.39414 0.62819 0.0
C949 C 0.18033 0.36123 0.63703 0.0
C950 C 0.18042 0.32754 0.63454 0.0
C951 C 0.21117 0.3274 0.62545 0.0
H952 H 0.62624 0.78478 0.71377 0.0
H953 H 0.66525 0.75653 0.65537 0.0
H954 H 0.62727 0.83698 0.69475 0.0
H955 H 0.66554 0.80889 0.6362 0.0
H956 H 0.60331 0.88021 0.61427 0.0
H957 H 0.61034 0.828 0.62734 0.0
H958 H 0.6861 0.89874 0.67716 0.0
H959 H 0.67981 0.95089 0.66416 0.0
C960 C 0.63471 0.78948 0.69682 0.0
C961 C 0.64578 0.76663 0.68607 0.0
C962 C 0.63549 0.81947 0.68601 0.0
C963 C 0.6468 0.82692 0.66416 0.0
C964 C 0.65683 0.80358 0.65309 0.0
C965 C 0.65671 0.77381 0.66406 0.0
C966 C 0.62224 0.88489 0.62763 0.0
C967 C 0.64046 0.91952 0.63843 0.0
C968 C 0.62624 0.85505 0.63504 0.0
C969 C 0.64828 0.85949 0.6534 0.0
C970 C 0.66862 0.89471 0.66311 0.0
C971 C 0.66497 0.92451 0.65562 0.0
loop_
_geom_bond_atom_site_label_1
_geom_bond_atom_site_label_2
_geom_bond_distance
_geom_bond_site_symmetry_2
_ccdc_geom_bond_type
O0 Cd1 2.223 . S
O0 C8 1.315 . S
Cd1 O0 2.223 . S
Cd1 O4 2.297 . S
Cd1 O5 2.439 . S
Cd1 O11 2.240 . S
Cd2 O3 2.240 . S
Cd2 O10 2.223 . S
Cd2 O12 2.297 . S
Cd2 O13 2.439 . S
O3 Cd2 2.240 . S
O3 C8 1.279 . S
O4 Cd1 2.297 . S
O4 C6 1.247 . S
O5 Cd1 2.439 . S
O5 C6 1.208 . S
C6 O4 1.247 . S
C6 O5 1.208 . S
C7 O12 1.247 . S
C7 O13 1.208 . S
C8 O0 1.315 . S
C8 O3 1.279 . S
C9 O10 1.315 . S
C9 O11 1.279 . S
O10 Cd2 2.223 . S
O10 C9 1.315 . S
O11 Cd1 2.240 . S
O11 C9 1.279 . S
O12 Cd2 2.297 . S
O12 C7 1.247 . S
O13 Cd2 2.439 . S
O13 C7 1.208 . S
O14 Cd15 2.223 . S
O14 C22 1.315 . S
Cd15 O14 2.223 . S
Cd15 O18 2.297 . S
Cd15 O19 2.439 . S
Cd15 O25 2.240 . S
Cd16 O17 2.240 . S
Cd16 O24 2.223 . S
Cd16 O26 2.297 . S
Cd16 O27 2.439 . S
O17 Cd16 2.240 . S
O17 C22 1.279 . S
O18 Cd15 2.297 . S
O18 C20 1.247 . S
O19 Cd15 2.439 . S
O19 C20 1.208 . S
C20 O18 1.247 . S
C20 O19 1.208 . S
C21 O26 1.247 . S
C21 O27 1.208 . S
C22 O14 1.315 . S
C22 O17 1.279 . S
C23 O24 1.315 . S
C23 O25 1.279 . S
O24 Cd16 2.223 . S
O24 C23 1.315 . S
O25 Cd15 2.240 . S
O25 C23 1.279 . S
O26 Cd16 2.297 . S
O26 C21 1.247 . S
O27 Cd16 2.439 . S
O27 C21 1.208 . S
O28 Cd29 2.223 . S
O28 C36 1.315 . S
Cd29 O28 2.223 . S
Cd29 O32 2.297 . S
Cd29 O33 2.439 . S
Cd29 O39 2.240 . S
Cd30 O31 2.240 . S
Cd30 O38 2.223 . S
Cd30 O40 2.297 . S
Cd30 O41 2.439 . S
O31 Cd30 2.240 . S
O31 C36 1.279 . S
O32 Cd29 2.297 . S
O32 C34 1.247 . S
O33 Cd29 2.439 . S
O33 C34 1.208 . S
C34 O32 1.247 . S
C34 O33 1.208 . S
C35 O40 1.247 . S
C35 O41 1.208 . S
C36 O28 1.315 . S
C36 O31 1.279 . S
C37 O38 1.315 . S
C37 O39 1.279 . S
O38 Cd30 2.223 . S
O38 C37 1.315 . S
O39 Cd29 2.240 . S
O39 C37 1.279 . S
O40 Cd30 2.297 . S
O40 C35 1.247 . S
O41 Cd30 2.439 . S
O41 C35 1.208 . S
O42 Cd43 2.223 . S
O42 C50 1.315 . S
Cd43 O42 2.223 . S
Cd43 O46 2.297 . S
Cd43 O47 2.439 . S
Cd43 O53 2.240 . S
Cd44 O45 2.240 . S
Cd44 O52 2.223 . S
Cd44 O54 2.297 . S
Cd44 O55 2.439 . S
O45 Cd44 2.240 . S
O45 C50 1.279 . S
O46 Cd43 2.297 . S
O46 C48 1.247 . S
O47 Cd43 2.439 . S
O47 C48 1.208 . S
C48 O46 1.247 . S
C48 O47 1.208 . S
C49 O54 1.247 . S
C49 O55 1.208 . S
C50 O42 1.315 . S
C50 O45 1.279 . S
C51 O52 1.315 . S
C51 O53 1.279 . S
O52 Cd44 2.223 . S
O52 C51 1.315 . S
O53 Cd43 2.240 . S
O53 C51 1.279 . S
O54 Cd44 2.297 . S
O54 C49 1.247 . S
O55 Cd44 2.439 . S
O55 C49 1.208 . S
O56 Cd57 2.223 . S
O56 C64 1.315 . S
Cd57 O56 2.223 . S
Cd57 O60 2.297 . S
Cd57 O61 2.439 . S
Cd57 O67 2.240 . S
Cd58 O59 2.240 . S
Cd58 O66 2.223 . S
Cd58 O68 2.297 . S
Cd58 O69 2.439 . S
O59 Cd58 2.240 . S
O59 C64 1.279 . S
O60 Cd57 2.297 . S
O60 C62 1.247 . S
O61 Cd57 2.439 . S
O61 C62 1.208 . S
C62 O60 1.247 . S
C62 O61 1.208 . S
C63 O68 1.247 . S
C63 O69 1.208 . S
C64 O56 1.315 . S
C64 O59 1.279 . S
C65 O66 1.315 . S
C65 O67 1.279 . S
O66 Cd58 2.223 . S
O66 C65 1.315 . S
O67 Cd57 2.240 . S
O67 C65 1.279 . S
O68 Cd58 2.297 . S
O68 C63 1.247 . S
O69 Cd58 2.439 . S
O69 C63 1.208 . S
O70 Cd71 2.223 . S
O70 C78 1.315 . S
Cd71 O70 2.223 . S
Cd71 O74 2.297 . S
Cd71 O75 2.439 . S
Cd71 O81 2.240 . S
Cd72 O73 2.240 . S
Cd72 O80 2.223 . S
Cd72 O82 2.297 . S
Cd72 O83 2.439 . S
O73 Cd72 2.240 . S
O73 C78 1.279 . S
O74 Cd71 2.297 . S
O74 C76 1.247 . S
O75 Cd71 2.439 . S
O75 C76 1.208 . S
C76 O74 1.247 . S
C76 O75 1.208 . S
C77 O82 1.247 . S
C77 O83 1.208 . S
C78 O70 1.315 . S
C78 O73 1.279 . S
C79 O80 1.315 . S
C79 O81 1.279 . S
O80 Cd72 2.223 . S
O80 C79 1.315 . S
O81 Cd71 2.240 . S
O81 C79 1.279 . S
O82 Cd72 2.297 . S
O82 C77 1.247 . S
O83 Cd72 2.439 . S
O83 C77 1.208 . S
O84 Cd85 2.223 . S
O84 C92 1.315 . S
Cd85 O84 2.223 . S
Cd85 O88 2.297 . S
Cd85 O89 2.439 1_655 S
Cd85 O95 2.240 . S
Cd86 O87 2.240 . S
Cd86 O94 2.223 1_455 S
Cd86 O96 2.297 . S
Cd86 O97 2.439 . S
O87 Cd86 2.240 . S
O87 C92 1.279 1_455 S
O88 Cd85 2.297 . S
O88 C90 1.247 1_655 S
O89 Cd85 2.439 1_455 S
O89 C90 1.208 . S
C90 O88 1.247 1_455 S
C90 O89 1.208 . S
C91 O96 1.247 . S
C91 O97 1.208 . S
C92 O84 1.315 . S
C92 O87 1.279 1_655 S
C93 O94 1.315 . S
C93 O95 1.279 . S
O94 Cd86 2.223 1_655 S
O94 C93 1.315 . S
O95 Cd85 2.240 . S
O95 C93 1.279 . S
O96 Cd86 2.297 . S
O96 C91 1.247 . S
O97 Cd86 2.439 . S
O97 C91 1.208 . S
O98 Cd99 2.223 . S
O98 C106 1.315 . S
Cd99 O98 2.223 . S
Cd99 O102 2.297 . S
Cd99 O103 2.439 . S
Cd99 O109 2.240 . S
Cd100 O101 2.240 . S
Cd100 O108 2.223 . S
Cd100 O110 2.297 . S
Cd100 O111 2.439 . S
O101 Cd100 2.240 . S
O101 C106 1.279 . S
O102 Cd99 2.297 . S
O102 C104 1.247 . S
O103 Cd99 2.439 . S
O103 C104 1.208 . S
C104 O102 1.247 . S
C104 O103 1.208 . S
C105 O110 1.247 . S
C105 O111 1.208 . S
C106 O98 1.315 . S
C106 O101 1.279 . S
C107 O108 1.315 . S
C107 O109 1.279 . S
O108 Cd100 2.223 . S
O108 C107 1.315 . S
O109 Cd99 2.240 . S
O109 C107 1.279 . S
O110 Cd100 2.297 . S
O110 C105 1.247 . S
O111 Cd100 2.439 . S
O111 C105 1.208 . S
O112 Cd113 2.223 . S
O112 C120 1.315 . S
Cd113 O112 2.223 . S
Cd113 O116 2.297 . S
Cd113 O117 2.439 1_545 S
Cd113 O123 2.240 . S
Cd114 O115 2.240 . S
Cd114 O122 2.223 1_565 S
Cd114 O124 2.297 . S
Cd114 O125 2.439 . S
O115 Cd114 2.240 . S
O115 C120 1.279 1_565 S
O116 Cd113 2.297 . S
O116 C118 1.247 1_545 S
O117 Cd113 2.439 1_565 S
O117 C118 1.208 . S
C118 O116 1.247 1_565 S
C118 O117 1.208 . S
C119 O124 1.247 . S
C119 O125 1.208 . S
C120 O112 1.315 . S
C120 O115 1.279 1_545 S
C121 O122 1.315 . S
C121 O123 1.279 . S
O122 Cd114 2.223 1_545 S
O122 C121 1.315 . S
O123 Cd113 2.240 . S
O123 C121 1.279 . S
O124 Cd114 2.297 . S
O124 C119 1.247 . S
O125 Cd114 2.439 . S
O125 C119 1.208 . S
O126 Cd127 2.223 . S
O126 C134 1.315 . S
Cd127 O126 2.223 . S
Cd127 O130 2.297 . S
Cd127 O131 2.439 . S
Cd127 O137 2.240 . S
Cd128 O129 2.240 . S
Cd128 O136 2.223 . S
Cd128 O138 2.297 . S
Cd128 O139 2.439 . S
O129 Cd128 2.240 . S
O129 C134 1.279 . S
O130 Cd127 2.297 . S
O130 C132 1.247 . S
O131 Cd127 2.439 . S
O131 C132 1.208 . S
C132 O130 1.247 . S
C132 O131 1.208 . S
C133 O138 1.247 . S
C133 O139 1.208 . S
C134 O126 1.315 . S
C134 O129 1.279 . S
C135 O136 1.315 . S
C135 O137 1.279 . S
O136 Cd128 2.223 . S
O136 C135 1.315 . S
O137 Cd127 2.240 . S
O137 C135 1.279 . S
O138 Cd128 2.297 . S
O138 C133 1.247 . S
O139 Cd128 2.439 . S
O139 C133 1.208 . S
O140 Cd141 2.223 . S
O140 C148 1.315 . S
Cd141 O140 2.223 . S
Cd141 O144 2.297 . S
Cd141 O145 2.439 . S
Cd141 O151 2.240 . S
Cd142 O143 2.240 . S
Cd142 O150 2.223 . S
Cd142 O152 2.297 1_545 S
Cd142 O153 2.439 1_545 S
O143 Cd142 2.240 . S
O143 C148 1.279 . S
O144 Cd141 2.297 . S
O144 C146 1.247 . S
O145 Cd141 2.439 . S
O145 C146 1.208 . S
C146 O144 1.247 . S
C146 O145 1.208 . S
C147 O152 1.247 . S
C147 O153 1.208 . S
C148 O140 1.315 . S
C148 O143 1.279 . S
C149 O150 1.315 . S
C149 O151 1.279 . S
O150 Cd142 2.223 . S
O150 C149 1.315 . S
O151 Cd141 2.240 . S
O151 C149 1.279 . S
O152 Cd142 2.297 1_565 S
O152 C147 1.247 . S
O153 Cd142 2.439 1_565 S
O153 C147 1.208 . S
O154 Cd155 2.223 . S
O154 C162 1.315 . S
Cd155 O154 2.223 . S
Cd155 O158 2.297 . S
Cd155 O159 2.439 . S
Cd155 O165 2.240 . S
Cd156 O157 2.240 . S
Cd156 O164 2.223 . S
Cd156 O166 2.297 1_655 S
Cd156 O167 2.439 1_655 S
O157 Cd156 2.240 . S
O157 C162 1.279 . S
O158 Cd155 2.297 . S
O158 C160 1.247 . S
O159 Cd155 2.439 . S
O159 C160 1.208 . S
C160 O158 1.247 . S
C160 O159 1.208 . S
C161 O166 1.247 . S
C161 O167 1.208 . S
C162 O154 1.315 . S
C162 O157 1.279 . S
C163 O164 1.315 . S
C163 O165 1.279 . S
O164 Cd156 2.223 . S
O164 C163 1.315 . S
O165 Cd155 2.240 . S
O165 C163 1.279 . S
O166 Cd156 2.297 1_455 S
O166 C161 1.247 . S
O167 Cd156 2.439 1_455 S
O167 C161 1.208 . S
O168 Cd169 2.223 . S
O168 C176 1.315 . S
Cd169 O168 2.223 . S
Cd169 O172 2.297 . S
Cd169 O173 2.439 . S
Cd169 O179 2.240 . S
Cd170 O171 2.240 . S
Cd170 O178 2.223 . S
Cd170 O180 2.297 . S
Cd170 O181 2.439 . S
O171 Cd170 2.240 . S
O171 C176 1.279 . S
O172 Cd169 2.297 . S
O172 C174 1.247 . S
O173 Cd169 2.439 . S
O173 C174 1.208 . S
C174 O172 1.247 . S
C174 O173 1.208 . S
C175 O180 1.247 . S
C175 O181 1.208 . S
C176 O168 1.315 . S
C176 O171 1.279 . S
C177 O178 1.315 . S
C177 O179 1.279 . S
O178 Cd170 2.223 . S
O178 C177 1.315 . S
O179 Cd169 2.240 . S
O179 C177 1.279 . S
O180 Cd170 2.297 . S
O180 C175 1.247 . S
O181 Cd170 2.439 . S
O181 C175 1.208 . S
O182 Cd183 2.223 . S
O182 C190 1.315 . S
Cd183 O182 2.223 . S
Cd183 O186 2.297 . S
Cd183 O187 2.439 . S
Cd183 O193 2.240 . S
Cd184 O185 2.240 . S
Cd184 O192 2.223 . S
Cd184 O194 2.297 1_565 S
Cd184 O195 2.439 1_565 S
O185 Cd184 2.240 . S
O185 C190 1.279 . S
O186 Cd183 2.297 . S
O186 C188 1.247 . S
O187 Cd183 2.439 . S
O187 C188 1.208 . S
C188 O186 1.247 . S
C188 O187 1.208 . S
C189 O194 1.247 . S
C189 O195 1.208 . S
C190 O182 1.315 . S
C190 O185 1.279 . S
C191 O192 1.315 . S
C191 O193 1.279 . S
O192 Cd184 2.223 . S
O192 C191 1.315 . S
O193 Cd183 2.240 . S
O193 C191 1.279 . S
O194 Cd184 2.297 1_545 S
O194 C189 1.247 . S
O195 Cd184 2.439 1_545 S
O195 C189 1.208 . S
O196 Cd197 2.223 . S
O196 C204 1.315 . S
Cd197 O196 2.223 . S
Cd197 O200 2.297 . S
Cd197 O201 2.439 . S
Cd197 O207 2.240 . S
Cd198 O199 2.240 . S
Cd198 O206 2.223 . S
Cd198 O208 2.297 1_455 S
Cd198 O209 2.439 1_455 S
O199 Cd198 2.240 . S
O199 C204 1.279 . S
O200 Cd197 2.297 . S
O200 C202 1.247 . S
O201 Cd197 2.439 . S
O201 C202 1.208 . S
C202 O200 1.247 . S
C202 O201 1.208 . S
C203 O208 1.247 . S
C203 O209 1.208 . S
C204 O196 1.315 . S
C204 O199 1.279 . S
C205 O206 1.315 . S
C205 O207 1.279 . S
O206 Cd198 2.223 . S
O206 C205 1.315 . S
O207 Cd197 2.240 . S
O207 C205 1.279 . S
O208 Cd198 2.297 1_655 S
O208 C203 1.247 . S
O209 Cd198 2.439 1_655 S
O209 C203 1.208 . S
O210 Cd211 2.223 . S
O210 C218 1.315 . S
Cd211 O210 2.223 . S
Cd211 O214 2.297 . S
Cd211 O215 2.439 1_455 S
Cd211 O221 2.240 . S
Cd212 O213 2.240 . S
Cd212 O220 2.223 1_655 S
Cd212 O222 2.297 . S
Cd212 O223 2.439 . S
O213 Cd212 2.240 . S
O213 C218 1.279 1_655 S
O214 Cd211 2.297 . S
O214 C216 1.247 1_455 S
O215 Cd211 2.439 1_655 S
O215 C216 1.208 . S
C216 O214 1.247 1_655 S
C216 O215 1.208 . S
C217 O222 1.247 . S
C217 O223 1.208 . S
C218 O210 1.315 . S
C218 O213 1.279 1_455 S
C219 O220 1.315 . S
C219 O221 1.279 . S
O220 Cd212 2.223 1_455 S
O220 C219 1.315 . S
O221 Cd211 2.240 . S
O221 C219 1.279 . S
O222 Cd212 2.297 . S
O222 C217 1.247 . S
O223 Cd212 2.439 . S
O223 C217 1.208 . S
O224 Cd225 2.223 . S
O224 C232 1.315 . S
Cd225 O224 2.223 . S
Cd225 O228 2.297 . S
Cd225 O229 2.439 . S
Cd225 O235 2.240 . S
Cd226 O227 2.240 . S
Cd226 O234 2.223 . S
Cd226 O236 2.297 . S
Cd226 O237 2.439 . S
O227 Cd226 2.240 . S
O227 C232 1.279 . S
O228 Cd225 2.297 . S
O228 C230 1.247 . S
O229 Cd225 2.439 . S
O229 C230 1.208 . S
C230 O228 1.247 . S
C230 O229 1.208 . S
C231 O236 1.247 . S
C231 O237 1.208 . S
C232 O224 1.315 . S
C232 O227 1.279 . S
C233 O234 1.315 . S
C233 O235 1.279 . S
O234 Cd226 2.223 . S
O234 C233 1.315 . S
O235 Cd225 2.240 . S
O235 C233 1.279 . S
O236 Cd226 2.297 . S
O236 C231 1.247 . S
O237 Cd226 2.439 . S
O237 C231 1.208 . S
O238 Cd239 2.223 . S
O238 C246 1.315 . S
Cd239 O238 2.223 . S
Cd239 O242 2.297 . S
Cd239 O243 2.439 1_565 S
Cd239 O249 2.240 . S
Cd240 O241 2.240 . S
Cd240 O248 2.223 1_545 S
Cd240 O250 2.297 . S
Cd240 O251 2.439 . S
O241 Cd240 2.240 . S
O241 C246 1.279 1_545 S
O242 Cd239 2.297 . S
O242 C244 1.247 1_565 S
O243 Cd239 2.439 1_545 S
O243 C244 1.208 . S
C244 O242 1.247 1_545 S
C244 O243 1.208 . S
C245 O250 1.247 . S
C245 O251 1.208 . S
C246 O238 1.315 . S
C246 O241 1.279 1_565 S
C247 O248 1.315 . S
C247 O249 1.279 . S
O248 Cd240 2.223 1_565 S
O248 C247 1.315 . S
O249 Cd239 2.240 . S
O249 C247 1.279 . S
O250 Cd240 2.297 . S
O250 C245 1.247 . S
O251 Cd240 2.439 . S
O251 C245 1.208 . S
H252 C260 0.934 1_556 S
H253 C265 0.950 . S
H254 C262 0.950 . S
H255 C264 0.950 . S
H256 C266 0.934 1_554 S
H257 C268 0.950 . S
H258 C270 0.950 . S
H259 C271 0.950 . S
C260 H252 0.934 1_554 S
C260 C261 1.386 . S
C260 C262 1.391 1_554 S
C261 C260 1.386 . S
C261 C265 1.393 1_545 S
C262 H254 0.950 . S
C262 C260 1.391 1_556 S
C262 C263 1.400 1_556 S
C263 C262 1.400 1_554 S
C263 C264 1.398 1_545 S
C263 C269 1.491 1_544 S
C264 H255 0.950 . S
C264 C263 1.398 1_565 S
C264 C265 1.391 . S
C265 H253 0.950 . S
C265 C261 1.393 1_565 S
C265 C264 1.391 . S
C266 H256 0.934 1_556 S
C266 C267 1.386 . S
C266 C268 1.391 1_556 S
C267 C266 1.386 . S
C267 C271 1.393 1_565 S
C268 H257 0.950 . S
C268 C266 1.391 1_554 S
C268 C269 1.400 1_554 S
C269 C263 1.491 1_566 S
C269 C268 1.400 1_556 S
C269 C270 1.398 1_565 S
C270 H258 0.950 . S
C270 C269 1.398 1_545 S
C270 C271 1.391 . S
C271 H259 0.950 . S
C271 C267 1.393 1_545 S
C271 C270 1.391 . S
H272 C280 0.950 . S
H273 C285 0.950 . S
H274 C282 0.950 . S
H275 C284 0.950 . S
H276 C286 0.950 . S
H277 C288 0.950 . S
H278 C290 0.950 . S
H279 C291 0.950 . S
C280 H272 0.950 . S
C280 C281 1.386 1_455 S
C280 C282 1.391 . S
C281 C280 1.386 1_655 S
C281 C285 1.393 . S
C282 H274 0.950 . S
C282 C280 1.391 . S
C282 C283 1.400 1_455 S
C283 C282 1.400 1_655 S
C283 C284 1.398 . S
C283 C289 1.491 1_654 S
C284 H275 0.950 . S
C284 C283 1.398 . S
C284 C285 1.391 . S
C285 H273 0.950 . S
C285 C281 1.393 . S
C285 C284 1.391 . S
C286 H276 0.950 . S
C286 C287 1.386 1_655 S
C286 C288 1.391 . S
C287 C286 1.386 1_455 S
C287 C291 1.393 . S
C288 H277 0.950 . S
C288 C286 1.391 . S
C288 C289 1.400 1_655 S
C289 C283 1.491 1_456 S
C289 C288 1.400 1_455 S
C289 C290 1.398 . S
C290 H278 0.950 . S
C290 C289 1.398 . S
C290 C291 1.391 . S
C291 H279 0.950 . S
C291 C287 1.393 . S
C291 C290 1.391 . S
H292 C300 0.950 . S
H293 C305 0.950 . S
H294 C302 0.950 . S
H295 C304 0.950 . S
H296 C306 0.950 . S
H297 C308 0.950 . S
H298 C310 0.950 . S
H299 C311 0.950 . S
C300 H292 0.950 . S
C300 C301 1.386 . S
C300 C302 1.391 . S
C301 C300 1.386 . S
C301 C305 1.393 . S
C302 H294 0.950 . S
C302 C300 1.391 . S
C302 C303 1.400 . S
C303 C302 1.400 . S
C303 C304 1.398 . S
C303 C309 1.491 1_556 S
C304 H295 0.950 . S
C304 C303 1.398 . S
C304 C305 1.391 . S
C305 H293 0.950 . S
C305 C301 1.393 . S
C305 C304 1.391 . S
C306 H296 0.950 . S
C306 C307 1.386 . S
C306 C308 1.391 . S
C307 C306 1.386 . S
C307 C311 1.393 . S
C308 H297 0.950 . S
C308 C306 1.391 . S
C308 C309 1.400 . S
C309 C303 1.491 1_554 S
C309 C308 1.400 . S
C309 C310 1.398 . S
C310 H298 0.950 . S
C310 C309 1.398 . S
C310 C311 1.391 . S
C311 H299 0.950 . S
C311 C307 1.393 . S
C311 C310 1.391 . S
H312 C320 0.950 . S
H313 C325 0.950 . S
H314 C322 0.950 . S
H315 C324 0.950 . S
H316 C326 0.950 . S
H317 C328 0.950 . S
H318 C330 0.950 . S
H319 C331 0.950 . S
C320 H312 0.950 . S
C320 C321 1.386 . S
C320 C322 1.391 . S
C321 C320 1.386 . S
C321 C325 1.393 . S
C322 H314 0.950 . S
C322 C320 1.391 . S
C322 C323 1.400 . S
C323 C322 1.400 . S
C323 C324 1.398 . S
C323 C329 1.491 . S
C324 H315 0.950 . S
C324 C323 1.398 . S
C324 C325 1.391 . S
C325 H313 0.950 . S
C325 C321 1.393 . S
C325 C324 1.391 . S
C326 H316 0.950 . S
C326 C327 1.386 . S
C326 C328 1.391 . S
C327 C326 1.386 . S
C327 C331 1.393 . S
C328 H317 0.950 . S
C328 C326 1.391 . S
C328 C329 1.400 . S
C329 C323 1.491 . S
C329 C328 1.400 . S
C329 C330 1.398 . S
C330 H318 0.950 . S
C330 C329 1.398 . S
C330 C331 1.391 . S
C331 H319 0.950 . S
C331 C327 1.393 . S
C331 C330 1.391 . S
H332 C340 0.950 . S
H333 C345 0.950 . S
H334 C342 0.950 . S
H335 C344 0.950 . S
H336 C346 0.950 . S
H337 C348 0.950 . S
H338 C350 0.950 . S
H339 C351 0.950 . S
C340 H332 0.950 . S
C340 C341 1.386 . S
C340 C342 1.391 . S
C341 C340 1.386 . S
C341 C345 1.393 . S
C342 H334 0.950 . S
C342 C340 1.391 . S
C342 C343 1.400 . S
C343 C342 1.400 . S
C343 C344 1.398 . S
C343 C349 1.491 . S
C344 H335 0.950 . S
C344 C343 1.398 . S
C344 C345 1.391 . S
C345 H333 0.950 . S
C345 C341 1.393 . S
C345 C344 1.391 . S
C346 H336 0.950 . S
C346 C347 1.386 . S
C346 C348 1.391 . S
C347 C346 1.386 . S
C347 C351 1.393 . S
C348 H337 0.950 . S
C348 C346 1.391 . S
C348 C349 1.400 . S
C349 C343 1.491 . S
C349 C348 1.400 . S
C349 C350 1.398 . S
C350 H338 0.950 . S
C350 C349 1.398 . S
C350 C351 1.391 . S
C351 H339 0.950 . S
C351 C347 1.393 . S
C351 C350 1.391 . S
H352 C360 0.950 . S
H353 C365 0.950 . S
H354 C362 0.950 . S
H355 C364 0.950 . S
H356 C366 0.950 . S
H357 C368 0.950 . S
H358 C370 0.950 . S
H359 C371 0.950 . S
C360 H352 0.950 . S
C360 C361 1.386 . S
C360 C362 1.391 . S
C361 C360 1.386 . S
C361 C365 1.393 . S
C362 H354 0.950 . S
C362 C360 1.391 . S
C362 C363 1.400 . S
C363 C362 1.400 . S
C363 C364 1.398 . S
C363 C369 1.491 . S
C364 H355 0.950 . S
C364 C363 1.398 . S
C364 C365 1.391 . S
C365 H353 0.950 . S
C365 C361 1.393 . S
C365 C364 1.391 . S
C366 H356 0.950 . S
C366 C367 1.386 . S
C366 C368 1.391 . S
C367 C366 1.386 . S
C367 C371 1.393 . S
C368 H357 0.950 . S
C368 C366 1.391 . S
C368 C369 1.400 . S
C369 C363 1.491 . S
C369 C368 1.400 . S
C369 C370 1.398 . S
C370 H358 0.950 . S
C370 C369 1.398 . S
C370 C371 1.391 . S
C371 H359 0.950 . S
C371 C367 1.393 . S
C371 C370 1.391 . S
H372 C380 0.950 . S
H373 C385 0.950 . S
H374 C382 0.950 . S
H375 C384 0.950 . S
H376 C386 0.950 . S
H377 C388 0.950 . S
H378 C390 0.950 . S
H379 C391 0.950 . S
C380 H372 0.950 . S
C380 C381 1.386 . S
C380 C382 1.391 . S
C381 C380 1.386 . S
C381 C385 1.393 . S
C382 H374 0.950 . S
C382 C380 1.391 . S
C382 C383 1.400 . S
C383 C382 1.400 . S
C383 C384 1.398 . S
C383 C389 1.491 . S
C384 H375 0.950 . S
C384 C383 1.398 . S
C384 C385 1.391 . S
C385 H373 0.950 . S
C385 C381 1.393 . S
C385 C384 1.391 . S
C386 H376 0.950 . S
C386 C387 1.386 . S
C386 C388 1.391 . S
C387 C386 1.386 . S
C387 C391 1.393 . S
C388 H377 0.950 . S
C388 C386 1.391 . S
C388 C389 1.400 . S
C389 C383 1.491 . S
C389 C388 1.400 . S
C389 C390 1.398 . S
C390 H378 0.950 . S
C390 C389 1.398 . S
C390 C391 1.391 . S
C391 H379 0.950 . S
C391 C387 1.393 . S
C391 C390 1.391 . S
H392 C400 0.950 . S
H393 C405 0.950 . S
H394 C402 0.950 . S
H395 C404 0.950 . S
H396 C406 0.950 . S
H397 C408 0.950 . S
H398 C410 0.950 . S
H399 C411 0.950 . S
C400 H392 0.950 . S
C400 C401 1.386 . S
C400 C402 1.391 . S
C401 C400 1.386 . S
C401 C405 1.393 . S
C402 H394 0.950 . S
C402 C400 1.391 . S
C402 C403 1.400 . S
C403 C402 1.400 . S
C403 C404 1.398 . S
C403 C409 1.491 . S
C404 H395 0.950 . S
C404 C403 1.398 . S
C404 C405 1.391 . S
C405 H393 0.950 . S
C405 C401 1.393 . S
C405 C404 1.391 . S
C406 H396 0.950 . S
C406 C407 1.386 . S
C406 C408 1.391 . S
C407 C406 1.386 . S
C407 C411 1.393 . S
C408 H397 0.950 . S
C408 C406 1.391 . S
C408 C409 1.400 . S
C409 C403 1.491 . S
C409 C408 1.400 . S
C409 C410 1.398 . S
C410 H398 0.950 . S
C410 C409 1.398 . S
C410 C411 1.391 . S
C411 H399 0.950 . S
C411 C407 1.393 . S
C411 C410 1.391 . S
H412 C420 0.950 . S
H413 C425 0.950 . S
H414 C422 0.950 . S
H415 C424 0.950 . S
H416 C426 0.950 . S
H417 C428 0.950 . S
H418 C430 0.950 . S
H419 C431 0.950 . S
C420 H412 0.950 . S
C420 C421 1.386 . S
C420 C422 1.391 . S
C421 C420 1.386 . S
C421 C425 1.393 . S
C422 H414 0.950 . S
C422 C420 1.391 . S
C422 C423 1.400 . S
C423 C422 1.400 . S
C423 C424 1.398 . S
C423 C429 1.491 . S
C424 H415 0.950 . S
C424 C423 1.398 . S
C424 C425 1.391 . S
C425 H413 0.950 . S
C425 C421 1.393 . S
C425 C424 1.391 . S
C426 H416 0.950 . S
C426 C427 1.386 . S
C426 C428 1.391 . S
C427 C426 1.386 . S
C427 C431 1.393 . S
C428 H417 0.950 . S
C428 C426 1.391 . S
C428 C429 1.400 . S
C429 C423 1.491 . S
C429 C428 1.400 . S
C429 C430 1.398 . S
C430 H418 0.950 . S
C430 C429 1.398 . S
C430 C431 1.391 . S
C431 H419 0.950 . S
C431 C427 1.393 . S
C431 C430 1.391 . S
H432 C440 0.950 . S
H433 C445 0.950 . S
H434 C442 0.950 . S
H435 C444 0.950 . S
H436 C446 0.950 . S
H437 C448 0.950 . S
H438 C450 0.950 . S
H439 C451 0.950 . S
C440 H432 0.950 . S
C440 C441 1.386 . S
C440 C442 1.391 . S
C441 C440 1.386 . S
C441 C445 1.393 . S
C442 H434 0.950 . S
C442 C440 1.391 . S
C442 C443 1.400 . S
C443 C442 1.400 . S
C443 C444 1.398 . S
C443 C449 1.491 . S
C444 H435 0.950 . S
C444 C443 1.398 . S
C444 C445 1.391 . S
C445 H433 0.950 . S
C445 C441 1.393 . S
C445 C444 1.391 . S
C446 H436 0.950 . S
C446 C447 1.386 . S
C446 C448 1.391 . S
C447 C446 1.386 . S
C447 C451 1.393 . S
C448 H437 0.950 . S
C448 C446 1.391 . S
C448 C449 1.400 . S
C449 C443 1.491 . S
C449 C448 1.400 . S
C449 C450 1.398 . S
C450 H438 0.950 . S
C450 C449 1.398 . S
C450 C451 1.391 . S
C451 H439 0.950 . S
C451 C447 1.393 . S
C451 C450 1.391 . S
H452 C460 0.950 . S
H453 C465 0.950 . S
H454 C462 0.950 . S
H455 C464 0.950 . S
H456 C466 0.950 . S
H457 C468 0.950 . S
H458 C470 0.950 . S
H459 C471 0.950 . S
C460 H452 0.950 . S
C460 C461 1.386 . S
C460 C462 1.391 . S
C461 C460 1.386 . S
C461 C465 1.393 . S
C462 H454 0.950 . S
C462 C460 1.391 . S
C462 C463 1.400 . S
C463 C462 1.400 . S
C463 C464 1.398 . S
C463 C469 1.491 . S
C464 H455 0.950 . S
C464 C463 1.398 . S
C464 C465 1.391 . S
C465 H453 0.950 . S
C465 C461 1.393 . S
C465 C464 1.391 . S
C466 H456 0.950 . S
C466 C467 1.386 . S
C466 C468 1.391 . S
C467 C466 1.386 . S
C467 C471 1.393 . S
C468 H457 0.950 . S
C468 C466 1.391 . S
C468 C469 1.400 . S
C469 C463 1.491 . S
C469 C468 1.400 . S
C469 C470 1.398 . S
C470 H458 0.950 . S
C470 C469 1.398 . S
C470 C471 1.391 . S
C471 H459 0.950 . S
C471 C467 1.393 . S
C471 C470 1.391 . S
H472 C480 0.950 . S
H473 C485 0.950 . S
H474 C482 0.950 . S
H475 C484 0.950 . S
H476 C486 0.950 . S
H477 C488 0.950 . S
H478 C490 0.950 . S
H479 C491 0.950 . S
C480 H472 0.950 . S
C480 C481 1.386 . S
C480 C482 1.391 . S
C481 C480 1.386 . S
C481 C485 1.393 . S
C482 H474 0.950 . S
C482 C480 1.391 . S
C482 C483 1.400 . S
C483 C482 1.400 . S
C483 C484 1.398 . S
C483 C489 1.491 . S
C484 H475 0.950 . S
C484 C483 1.398 . S
C484 C485 1.391 . S
C485 H473 0.950 . S
C485 C481 1.393 . S
C485 C484 1.391 . S
C486 H476 0.950 . S
C486 C487 1.386 . S
C486 C488 1.391 . S
C487 C486 1.386 . S
C487 C491 1.393 . S
C488 H477 0.950 . S
C488 C486 1.391 . S
C488 C489 1.400 . S
C489 C483 1.491 . S
C489 C488 1.400 . S
C489 C490 1.398 . S
C490 H478 0.950 . S
C490 C489 1.398 . S
C490 C491 1.391 . S
C491 H479 0.950 . S
C491 C487 1.393 . S
C491 C490 1.391 . S
H492 C500 0.950 . S
H493 C505 0.950 . S
H494 C502 0.950 . S
H495 C504 0.950 . S
H496 C506 0.950 . S
H497 C508 0.950 . S
H498 C510 0.950 . S
H499 C511 0.950 . S
C500 H492 0.950 . S
C500 C501 1.386 . S
C500 C502 1.391 . S
C501 C500 1.386 . S
C501 C505 1.393 . S
C502 H494 0.950 . S
C502 C500 1.391 . S
C502 C503 1.400 . S
C503 C502 1.400 . S
C503 C504 1.398 . S
C503 C509 1.491 . S
C504 H495 0.950 . S
C504 C503 1.398 . S
C504 C505 1.391 . S
C505 H493 0.950 . S
C505 C501 1.393 . S
C505 C504 1.391 . S
C506 H496 0.950 . S
C506 C507 1.386 . S
C506 C508 1.391 . S
C507 C506 1.386 . S
C507 C511 1.393 . S
C508 H497 0.950 . S
C508 C506 1.391 . S
C508 C509 1.400 . S
C509 C503 1.491 . S
C509 C508 1.400 . S
C509 C510 1.398 . S
C510 H498 0.950 . S
C510 C509 1.398 . S
C510 C511 1.391 . S
C511 H499 0.950 . S
C511 C507 1.393 . S
C511 C510 1.391 . S
H512 C520 0.950 . S
H513 C525 0.950 . S
H514 C522 0.950 . S
H515 C524 0.950 . S
H516 C526 0.950 . S
H517 C528 0.950 . S
H518 C530 0.950 . S
H519 C531 0.950 . S
C520 H512 0.950 . S
C520 C521 1.386 . S
C520 C522 1.391 . S
C521 C520 1.386 . S
C521 C525 1.393 . S
C522 H514 0.950 . S
C522 C520 1.391 . S
C522 C523 1.400 . S
C523 C522 1.400 . S
C523 C524 1.398 . S
C523 C529 1.491 . S
C524 H515 0.950 . S
C524 C523 1.398 . S
C524 C525 1.391 . S
C525 H513 0.950 . S
C525 C521 1.393 . S
C525 C524 1.391 . S
C526 H516 0.950 . S
C526 C527 1.386 . S
C526 C528 1.391 . S
C527 C526 1.386 . S
C527 C531 1.393 . S
C528 H517 0.950 . S
C528 C526 1.391 . S
C528 C529 1.400 . S
C529 C523 1.491 . S
C529 C528 1.400 . S
C529 C530 1.398 . S
C530 H518 0.950 . S
C530 C529 1.398 . S
C530 C531 1.391 . S
C531 H519 0.950 . S
C531 C527 1.393 . S
C531 C530 1.391 . S
H532 C540 0.950 . S
H533 C545 0.950 . S
H534 C542 0.950 . S
H535 C544 0.950 . S
H536 C546 0.950 . S
H537 C548 0.950 . S
H538 C550 0.950 . S
H539 C551 0.950 . S
C540 H532 0.950 . S
C540 C541 1.386 . S
C540 C542 1.391 . S
C541 C540 1.386 . S
C541 C545 1.393 . S
C542 H534 0.950 . S
C542 C540 1.391 . S
C542 C543 1.400 . S
C543 C542 1.400 . S
C543 C544 1.398 . S
C543 C549 1.491 . S
C544 H535 0.950 . S
C544 C543 1.398 . S
C544 C545 1.391 . S
C545 H533 0.950 . S
C545 C541 1.393 . S
C545 C544 1.391 . S
C546 H536 0.950 . S
C546 C547 1.386 . S
C546 C548 1.391 . S
C547 C546 1.386 . S
C547 C551 1.393 . S
C548 H537 0.950 . S
C548 C546 1.391 . S
C548 C549 1.400 . S
C549 C543 1.491 . S
C549 C548 1.400 . S
C549 C550 1.398 . S
C550 H538 0.950 . S
C550 C549 1.398 . S
C550 C551 1.391 . S
C551 H539 0.950 . S
C551 C547 1.393 . S
C551 C550 1.391 . S
H552 C560 0.950 . S
H553 C565 0.950 . S
H554 C562 0.950 . S
H555 C564 0.950 . S
H556 C566 0.950 . S
H557 C568 0.950 . S
H558 C570 0.950 . S
H559 C571 0.950 . S
C560 H552 0.950 . S
C560 C561 1.386 1_655 S
C560 C562 1.391 . S
C561 C560 1.386 1_455 S
C561 C565 1.393 . S
C562 H554 0.950 . S
C562 C560 1.391 . S
C562 C563 1.400 1_655 S
C563 C562 1.400 1_455 S
C563 C564 1.398 . S
C563 C569 1.491 1_455 S
C564 H555 0.950 . S
C564 C563 1.398 . S
C564 C565 1.391 . S
C565 H553 0.950 . S
C565 C561 1.393 . S
C565 C564 1.391 . S
C566 H556 0.950 . S
C566 C567 1.386 1_455 S
C566 C568 1.391 . S
C567 C566 1.386 1_655 S
C567 C571 1.393 . S
C568 H557 0.950 . S
C568 C566 1.391 . S
C568 C569 1.400 1_455 S
C569 C563 1.491 1_655 S
C569 C568 1.400 1_655 S
C569 C570 1.398 . S
C570 H558 0.950 . S
C570 C569 1.398 . S
C570 C571 1.391 . S
C571 H559 0.950 . S
C571 C567 1.393 . S
C571 C570 1.391 . S
H572 C580 0.950 . S
H573 C585 0.950 . S
H574 C582 0.950 . S
H575 C584 0.950 . S
H576 C586 0.950 . S
H577 C588 0.950 . S
H578 C590 0.950 . S
H579 C591 0.950 . S
C580 H572 0.950 . S
C580 C581 1.386 . S
C580 C582 1.391 . S
C581 C580 1.386 . S
C581 C585 1.393 . S
C582 H574 0.950 . S
C582 C580 1.391 . S
C582 C583 1.400 . S
C583 C582 1.400 . S
C583 C584 1.398 . S
C583 C589 1.491 . S
C584 H575 0.950 . S
C584 C583 1.398 . S
C584 C585 1.391 . S
C585 H573 0.950 . S
C585 C581 1.393 . S
C585 C584 1.391 . S
C586 H576 0.950 . S
C586 C587 1.386 . S
C586 C588 1.391 . S
C587 C586 1.386 . S
C587 C591 1.393 . S
C588 H577 0.950 . S
C588 C586 1.391 . S
C588 C589 1.400 . S
C589 C583 1.491 . S
C589 C588 1.400 . S
C589 C590 1.398 . S
C590 H578 0.950 . S
C590 C589 1.398 . S
C590 C591 1.391 . S
C591 H579 0.950 . S
C591 C587 1.393 . S
C591 C590 1.391 . S
H592 C600 0.950 . S
H593 C605 0.950 . S
H594 C602 0.950 . S
H595 C604 0.950 . S
H596 C606 0.950 . S
H597 C608 0.950 . S
H598 C610 0.950 . S
H599 C611 0.950 . S
C600 H592 0.950 . S
C600 C601 1.386 . S
C600 C602 1.391 . S
C601 C600 1.386 . S
C601 C605 1.393 1_545 S
C602 H594 0.950 . S
C602 C600 1.391 . S
C602 C603 1.400 . S
C603 C602 1.400 . S
C603 C604 1.398 1_545 S
C603 C609 1.491 1_545 S
C604 H595 0.950 . S
C604 C603 1.398 1_565 S
C604 C605 1.391 . S
C605 H593 0.950 . S
C605 C601 1.393 1_565 S
C605 C604 1.391 . S
C606 H596 0.950 . S
C606 C607 1.386 . S
C606 C608 1.391 . S
C607 C606 1.386 . S
C607 C611 1.393 1_565 S
C608 H597 0.950 . S
C608 C606 1.391 . S
C608 C609 1.400 . S
C609 C603 1.491 1_565 S
C609 C608 1.400 . S
C609 C610 1.398 1_565 S
C610 H598 0.950 . S
C610 C609 1.398 1_545 S
C610 C611 1.391 . S
C611 H599 0.950 . S
C611 C607 1.393 1_545 S
C611 C610 1.391 . S
H612 C620 0.950 . S
H613 C625 0.950 . S
H614 C622 0.950 . S
H615 C624 0.950 . S
H616 C626 0.950 . S
H617 C628 0.950 . S
H618 C630 0.977 . S
H619 C631 0.950 . S
C620 H612 0.950 . S
C620 C621 1.386 . S
C620 C622 1.391 . S
C621 C620 1.386 . S
C621 C625 1.393 . S
C622 H614 0.950 . S
C622 C620 1.391 . S
C622 C623 1.400 . S
C623 C622 1.400 . S
C623 C624 1.398 1_554 S
C623 C629 1.491 1_554 S
C624 H615 0.950 . S
C624 C623 1.398 1_556 S
C624 C625 1.391 1_556 S
C625 H613 0.950 . S
C625 C621 1.393 . S
C625 C624 1.391 1_554 S
C626 H616 0.950 . S
C626 C627 1.386 . S
C626 C628 1.391 . S
C627 C626 1.386 . S
C627 C631 1.393 . S
C628 H617 0.950 . S
C628 C626 1.391 . S
C628 C629 1.400 . S
C629 C623 1.491 1_556 S
C629 C628 1.400 . S
C629 C630 1.388 1_556 S
C630 H618 0.977 . S
C630 C629 1.388 1_554 S
C630 C631 1.376 1_554 S
C631 H619 0.950 . S
C631 C627 1.393 . S
C631 C630 1.376 1_556 S
H632 C640 0.950 . S
H633 C645 0.950 . S
H634 C642 0.950 . S
H635 C644 0.950 . S
H636 C646 0.950 . S
H637 C648 0.950 . S
H638 C650 0.950 . S
H639 C651 0.950 . S
C640 H632 0.950 . S
C640 C641 1.386 . S
C640 C642 1.391 . S
C641 C640 1.386 . S
C641 C645 1.393 . S
C642 H634 0.950 . S
C642 C640 1.391 . S
C642 C643 1.400 . S
C643 C642 1.400 . S
C643 C644 1.398 . S
C643 C649 1.491 1_554 S
C644 H635 0.950 . S
C644 C643 1.398 . S
C644 C645 1.391 . S
C645 H633 0.950 . S
C645 C641 1.393 . S
C645 C644 1.391 . S
C646 H636 0.950 . S
C646 C647 1.386 . S
C646 C648 1.391 . S
C647 C646 1.386 . S
C647 C651 1.393 . S
C648 H637 0.950 . S
C648 C646 1.391 . S
C648 C649 1.400 . S
C649 C643 1.491 1_556 S
C649 C648 1.400 . S
C649 C650 1.398 . S
C650 H638 0.950 . S
C650 C649 1.398 . S
C650 C651 1.391 . S
C651 H639 0.950 . S
C651 C647 1.393 . S
C651 C650 1.391 . S
H652 C660 0.950 1_556 S
H653 C665 0.950 . S
H654 C662 0.950 . S
H655 C664 0.950 . S
H656 C666 0.950 1_554 S
H657 C668 0.950 . S
H658 C670 0.950 . S
H659 C671 0.950 . S
C660 H652 0.950 1_554 S
C660 C661 1.386 . S
C660 C662 1.391 1_554 S
C661 C660 1.386 . S
C661 C665 1.393 . S
C662 H654 0.950 . S
C662 C660 1.391 1_556 S
C662 C663 1.400 1_556 S
C663 C662 1.400 1_554 S
C663 C664 1.398 . S
C663 C669 1.491 1_554 S
C664 H655 0.950 . S
C664 C663 1.398 . S
C664 C665 1.391 . S
C665 H653 0.950 . S
C665 C661 1.393 . S
C665 C664 1.391 . S
C666 H656 0.950 1_556 S
C666 C667 1.386 . S
C666 C668 1.391 1_556 S
C667 C666 1.386 . S
C667 C671 1.393 . S
C668 H657 0.950 . S
C668 C666 1.391 1_554 S
C668 C669 1.400 1_554 S
C669 C663 1.491 1_556 S
C669 C668 1.400 1_556 S
C669 C670 1.398 . S
C670 H658 0.950 . S
C670 C669 1.398 . S
C670 C671 1.391 . S
C671 H659 0.950 . S
C671 C667 1.393 . S
C671 C670 1.391 . S
H672 C680 0.950 . S
H673 C685 0.950 . S
H674 C682 0.950 . S
H675 C684 0.950 . S
H676 C686 0.950 . S
H677 C688 0.960 . S
H678 C690 0.950 . S
H679 C691 0.950 . S
C680 H672 0.950 . S
C680 C681 1.386 . S
C680 C682 1.391 1_556 S
C681 C680 1.386 . S
C681 C685 1.393 . S
C682 H674 0.950 . S
C682 C680 1.391 1_554 S
C682 C683 1.400 1_554 S
C683 C682 1.400 1_556 S
C683 C684 1.398 . S
C683 C689 1.491 1_556 S
C684 H675 0.950 . S
C684 C683 1.398 . S
C684 C685 1.391 . S
C685 H673 0.950 . S
C685 C681 1.393 . S
C685 C684 1.391 . S
C686 H676 0.950 . S
C686 C687 1.386 . S
C686 C688 1.385 1_554 S
C687 C686 1.386 . S
C687 C691 1.393 . S
C688 H677 0.960 . S
C688 C686 1.385 1_556 S
C688 C689 1.396 1_556 S
C689 C683 1.491 1_554 S
C689 C688 1.396 1_554 S
C689 C690 1.398 . S
C690 H678 0.950 . S
C690 C689 1.398 . S
C690 C691 1.391 . S
C691 H679 0.950 . S
C691 C687 1.393 . S
C691 C690 1.391 . S
H692 C700 0.950 . S
H693 C705 0.950 1_556 S
H694 C702 0.950 . S
H695 C704 0.950 . S
H696 C706 0.950 . S
H697 C708 0.950 . S
H698 C710 0.950 . S
H699 C711 0.949 . S
C700 H692 0.950 . S
C700 C701 1.386 . S
C700 C702 1.391 . S
C701 C700 1.386 . S
C701 C705 1.393 . S
C702 H694 0.950 . S
C702 C700 1.391 . S
C702 C703 1.400 . S
C703 C702 1.400 . S
C703 C704 1.398 1_554 S
C703 C709 1.491 1_554 S
C704 H695 0.950 . S
C704 C703 1.398 1_556 S
C704 C705 1.391 1_556 S
C705 H693 0.950 1_554 S
C705 C701 1.393 . S
C705 C704 1.391 1_554 S
C706 H696 0.950 . S
C706 C707 1.386 . S
C706 C708 1.391 . S
C707 C706 1.386 . S
C707 C711 1.393 1_556 S
C708 H697 0.950 . S
C708 C706 1.391 . S
C708 C709 1.400 . S
C709 C703 1.491 1_556 S
C709 C708 1.400 . S
C709 C710 1.398 1_556 S
C710 H698 0.950 . S
C710 C709 1.398 1_554 S
C710 C711 1.390 . S
C711 H699 0.949 . S
C711 C707 1.393 1_554 S
C711 C710 1.390 . S
H712 C720 0.950 . S
H713 C725 0.950 . S
H714 C722 0.950 . S
H715 C724 0.950 . S
H716 C726 0.950 . S
H717 C728 0.950 . S
H718 C730 0.950 . S
H719 C731 0.950 . S
C720 H712 0.950 . S
C720 C721 1.386 . S
C720 C722 1.391 . S
C721 C720 1.386 . S
C721 C725 1.393 . S
C722 H714 0.950 . S
C722 C720 1.391 . S
C722 C723 1.400 . S
C723 C722 1.400 . S
C723 C724 1.398 . S
C723 C729 1.491 1_556 S
C724 H715 0.950 . S
C724 C723 1.398 . S
C724 C725 1.391 . S
C725 H713 0.950 . S
C725 C721 1.393 . S
C725 C724 1.391 . S
C726 H716 0.950 . S
C726 C727 1.386 . S
C726 C728 1.391 . S
C727 C726 1.386 . S
C727 C731 1.393 . S
C728 H717 0.950 . S
C728 C726 1.391 . S
C728 C729 1.400 . S
C729 C723 1.491 1_554 S
C729 C728 1.400 . S
C729 C730 1.398 . S
C730 H718 0.950 . S
C730 C729 1.398 . S
C730 C731 1.391 . S
C731 H719 0.950 . S
C731 C727 1.393 . S
C731 C730 1.391 . S
H732 C740 0.950 . S
H733 C745 0.950 . S
H734 C742 0.950 . S
H735 C744 0.950 . S
H736 C746 0.950 . S
H737 C748 0.950 . S
H738 C750 0.950 . S
H739 C751 0.950 . S
C740 H732 0.950 . S
C740 C741 1.386 . S
C740 C742 1.391 . S
C741 C740 1.386 . S
C741 C745 1.393 . S
C742 H734 0.950 . S
C742 C740 1.391 . S
C742 C743 1.400 . S
C743 C742 1.400 . S
C743 C744 1.398 . S
C743 C749 1.491 . S
C744 H735 0.950 . S
C744 C743 1.398 . S
C744 C745 1.391 . S
C745 H733 0.950 . S
C745 C741 1.393 . S
C745 C744 1.391 . S
C746 H736 0.950 . S
C746 C747 1.386 . S
C746 C748 1.391 . S
C747 C746 1.386 . S
C747 C751 1.393 . S
C748 H737 0.950 . S
C748 C746 1.391 . S
C748 C749 1.400 . S
C749 C743 1.491 . S
C749 C748 1.400 . S
C749 C750 1.398 . S
C750 H738 0.950 . S
C750 C749 1.398 . S
C750 C751 1.391 . S
C751 H739 0.950 . S
C751 C747 1.393 . S
C751 C750 1.391 . S
H752 C760 0.950 . S
H753 C765 0.950 . S
H754 C762 0.950 . S
H755 C764 0.950 . S
H756 C766 0.950 . S
H757 C768 0.950 . S
H758 C770 0.950 . S
H759 C771 0.950 . S
C760 H752 0.950 . S
C760 C761 1.386 . S
C760 C762 1.391 . S
C761 C760 1.386 . S
C761 C765 1.393 . S
C762 H754 0.950 . S
C762 C760 1.391 . S
C762 C763 1.400 . S
C763 C762 1.400 . S
C763 C764 1.398 . S
C763 C769 1.491 . S
C764 H755 0.950 . S
C764 C763 1.398 . S
C764 C765 1.391 . S
C765 H753 0.950 . S
C765 C761 1.393 . S
C765 C764 1.391 . S
C766 H756 0.950 . S
C766 C767 1.386 . S
C766 C768 1.391 . S
C767 C766 1.386 . S
C767 C771 1.393 . S
C768 H757 0.950 . S
C768 C766 1.391 . S
C768 C769 1.400 . S
C769 C763 1.491 . S
C769 C768 1.400 . S
C769 C770 1.398 . S
C770 H758 0.950 . S
C770 C769 1.398 . S
C770 C771 1.391 . S
C771 H759 0.950 . S
C771 C767 1.393 . S
C771 C770 1.391 . S
H772 C780 0.950 . S
H773 C785 0.950 . S
H774 C782 0.950 . S
H775 C784 0.950 . S
H776 C786 0.950 . S
H777 C788 0.950 . S
H778 C790 0.950 . S
H779 C791 0.950 . S
C780 H772 0.950 . S
C780 C781 1.386 . S
C780 C782 1.391 . S
C781 C780 1.386 . S
C781 C785 1.393 . S
C782 H774 0.950 . S
C782 C780 1.391 . S
C782 C783 1.400 . S
C783 C782 1.400 . S
C783 C784 1.398 . S
C783 C789 1.491 . S
C784 H775 0.950 . S
C784 C783 1.398 . S
C784 C785 1.391 . S
C785 H773 0.950 . S
C785 C781 1.393 . S
C785 C784 1.391 . S
C786 H776 0.950 . S
C786 C787 1.386 . S
C786 C788 1.391 . S
C787 C786 1.386 . S
C787 C791 1.393 . S
C788 H777 0.950 . S
C788 C786 1.391 . S
C788 C789 1.400 . S
C789 C783 1.491 . S
C789 C788 1.400 . S
C789 C790 1.398 . S
C790 H778 0.950 . S
C790 C789 1.398 . S
C790 C791 1.391 . S
C791 H779 0.950 . S
C791 C787 1.393 . S
C791 C790 1.391 . S
H792 C800 0.950 . S
H793 C805 0.950 . S
H794 C802 0.950 . S
H795 C804 0.950 . S
H796 C806 0.950 . S
H797 C808 0.950 . S
H798 C810 0.950 . S
H799 C811 0.950 . S
C800 H792 0.950 . S
C800 C801 1.386 . S
C800 C802 1.391 . S
C801 C800 1.386 . S
C801 C805 1.393 . S
C802 H794 0.950 . S
C802 C800 1.391 . S
C802 C803 1.400 . S
C803 C802 1.400 . S
C803 C804 1.398 . S
C803 C809 1.491 . S
C804 H795 0.950 . S
C804 C803 1.398 . S
C804 C805 1.391 . S
C805 H793 0.950 . S
C805 C801 1.393 . S
C805 C804 1.391 . S
C806 H796 0.950 . S
C806 C807 1.386 . S
C806 C808 1.391 . S
C807 C806 1.386 . S
C807 C811 1.393 . S
C808 H797 0.950 . S
C808 C806 1.391 . S
C808 C809 1.400 . S
C809 C803 1.491 . S
C809 C808 1.400 . S
C809 C810 1.398 . S
C810 H798 0.950 . S
C810 C809 1.398 . S
C810 C811 1.391 . S
C811 H799 0.950 . S
C811 C807 1.393 . S
C811 C810 1.391 . S
H812 C820 0.950 . S
H813 C825 0.950 . S
H814 C822 0.950 . S
H815 C824 0.950 . S
H816 C826 0.950 . S
H817 C828 0.950 . S
H818 C830 0.950 . S
H819 C831 0.950 . S
C820 H812 0.950 . S
C820 C821 1.386 . S
C820 C822 1.391 . S
C821 C820 1.386 . S
C821 C825 1.393 . S
C822 H814 0.950 . S
C822 C820 1.391 . S
C822 C823 1.400 . S
C823 C822 1.400 . S
C823 C824 1.398 . S
C823 C829 1.491 . S
C824 H815 0.950 . S
C824 C823 1.398 . S
C824 C825 1.391 . S
C825 H813 0.950 . S
C825 C821 1.393 . S
C825 C824 1.391 . S
C826 H816 0.950 . S
C826 C827 1.386 . S
C826 C828 1.391 . S
C827 C826 1.386 . S
C827 C831 1.393 . S
C828 H817 0.950 . S
C828 C826 1.391 . S
C828 C829 1.400 . S
C829 C823 1.491 . S
C829 C828 1.400 . S
C829 C830 1.398 . S
C830 H818 0.950 . S
C830 C829 1.398 . S
C830 C831 1.391 . S
C831 H819 0.950 . S
C831 C827 1.393 . S
C831 C830 1.391 . S
H832 C840 0.950 . S
H833 C845 0.950 . S
H834 C842 0.950 . S
H835 C844 0.950 . S
H836 C846 0.950 . S
H837 C848 0.950 . S
H838 C850 0.950 . S
H839 C851 0.950 . S
C840 H832 0.950 . S
C840 C841 1.386 . S
C840 C842 1.391 . S
C841 C840 1.386 . S
C841 C845 1.393 . S
C842 H834 0.950 . S
C842 C840 1.391 . S
C842 C843 1.400 . S
C843 C842 1.400 . S
C843 C844 1.398 . S
C843 C849 1.491 . S
C844 H835 0.950 . S
C844 C843 1.398 . S
C844 C845 1.391 . S
C845 H833 0.950 . S
C845 C841 1.393 . S
C845 C844 1.391 . S
C846 H836 0.950 . S
C846 C847 1.386 . S
C846 C848 1.391 . S
C847 C846 1.386 . S
C847 C851 1.393 . S
C848 H837 0.950 . S
C848 C846 1.391 . S
C848 C849 1.400 . S
C849 C843 1.491 . S
C849 C848 1.400 . S
C849 C850 1.398 . S
C850 H838 0.950 . S
C850 C849 1.398 . S
C850 C851 1.391 . S
C851 H839 0.950 . S
C851 C847 1.393 . S
C851 C850 1.391 . S
H852 C860 0.950 . S
H853 C865 0.950 . S
H854 C862 0.950 . S
H855 C864 0.950 . S
H856 C866 0.950 . S
H857 C868 0.950 . S
H858 C870 0.950 . S
H859 C871 0.950 . S
C860 H852 0.950 . S
C860 C861 1.386 . S
C860 C862 1.391 . S
C861 C860 1.386 . S
C861 C865 1.393 . S
C862 H854 0.950 . S
C862 C860 1.391 . S
C862 C863 1.400 . S
C863 C862 1.400 . S
C863 C864 1.398 . S
C863 C869 1.491 . S
C864 H855 0.950 . S
C864 C863 1.398 . S
C864 C865 1.391 . S
C865 H853 0.950 . S
C865 C861 1.393 . S
C865 C864 1.391 . S
C866 H856 0.950 . S
C866 C867 1.386 . S
C866 C868 1.391 . S
C867 C866 1.386 . S
C867 C871 1.393 . S
C868 H857 0.950 . S
C868 C866 1.391 . S
C868 C869 1.400 . S
C869 C863 1.491 . S
C869 C868 1.400 . S
C869 C870 1.398 . S
C870 H858 0.950 . S
C870 C869 1.398 . S
C870 C871 1.391 . S
C871 H859 0.950 . S
C871 C867 1.393 . S
C871 C870 1.391 . S
H872 C880 0.950 . S
H873 C885 0.950 . S
H874 C882 0.950 . S
H875 C884 0.950 . S
H876 C886 0.950 . S
H877 C888 0.950 . S
H878 C890 0.950 . S
H879 C891 0.950 . S
C880 H872 0.950 . S
C880 C881 1.386 . S
C880 C882 1.391 . S
C881 C880 1.386 . S
C881 C885 1.393 . S
C882 H874 0.950 . S
C882 C880 1.391 . S
C882 C883 1.400 . S
C883 C882 1.400 . S
C883 C884 1.398 . S
C883 C889 1.491 . S
C884 H875 0.950 . S
C884 C883 1.398 . S
C884 C885 1.391 . S
C885 H873 0.950 . S
C885 C881 1.393 . S
C885 C884 1.391 . S
C886 H876 0.950 . S
C886 C887 1.386 . S
C886 C888 1.391 . S
C887 C886 1.386 . S
C887 C891 1.393 . S
C888 H877 0.950 . S
C888 C886 1.391 . S
C888 C889 1.400 . S
C889 C883 1.491 . S
C889 C888 1.400 . S
C889 C890 1.398 . S
C890 H878 0.950 . S
C890 C889 1.398 . S
C890 C891 1.391 . S
C891 H879 0.950 . S
C891 C887 1.393 . S
C891 C890 1.391 . S
H892 C900 0.950 . S
H893 C905 0.954 . S
H894 C902 0.950 . S
H895 C904 0.950 1_655 S
H896 C906 0.950 . S
H897 C908 0.950 1_655 S
H898 C910 0.950 . S
H899 C911 0.950 . S
C900 H892 0.950 . S
C900 C901 1.386 . S
C900 C902 1.391 . S
C901 C900 1.386 . S
C901 C905 1.393 . S
C902 H894 0.950 . S
C902 C900 1.391 . S
C902 C903 1.400 . S
C903 C902 1.400 . S
C903 C904 1.398 . S
C903 C909 1.491 . S
C904 H895 0.950 1_455 S
C904 C903 1.398 . S
C904 C905 1.391 . S
C905 H893 0.954 . S
C905 C901 1.393 . S
C905 C904 1.391 . S
C906 H896 0.950 . S
C906 C907 1.385 1_655 S
C906 C908 1.391 1_655 S
C907 C906 1.385 1_455 S
C907 C911 1.393 . S
C908 H897 0.950 1_455 S
C908 C906 1.391 1_455 S
C908 C909 1.400 . S
C909 C903 1.491 . S
C909 C908 1.400 . S
C909 C910 1.398 . S
C910 H898 0.950 . S
C910 C909 1.398 . S
C910 C911 1.391 . S
C911 H899 0.950 . S
C911 C907 1.393 . S
C911 C910 1.391 . S
H912 C920 0.950 . S
H913 C925 0.950 . S
H914 C922 0.950 . S
H915 C924 0.950 . S
H916 C926 0.950 . S
H917 C928 0.950 . S
H918 C930 0.950 . S
H919 C931 0.950 . S
C920 H912 0.950 . S
C920 C921 1.386 . S
C920 C922 1.391 . S
C921 C920 1.386 . S
C921 C925 1.393 . S
C922 H914 0.950 . S
C922 C920 1.391 . S
C922 C923 1.400 . S
C923 C922 1.400 . S
C923 C924 1.398 . S
C923 C929 1.491 . S
C924 H915 0.950 . S
C924 C923 1.398 . S
C924 C925 1.391 . S
C925 H913 0.950 . S
C925 C921 1.393 . S
C925 C924 1.391 . S
C926 H916 0.950 . S
C926 C927 1.386 . S
C926 C928 1.391 . S
C927 C926 1.386 . S
C927 C931 1.393 . S
C928 H917 0.950 . S
C928 C926 1.391 . S
C928 C929 1.400 . S
C929 C923 1.491 . S
C929 C928 1.400 . S
C929 C930 1.398 . S
C930 H918 0.950 . S
C930 C929 1.398 . S
C930 C931 1.391 . S
C931 H919 0.950 . S
C931 C927 1.393 . S
C931 C930 1.391 . S
H932 C940 0.950 . S
H933 C945 0.950 . S
H934 C942 0.950 . S
H935 C944 0.950 . S
H936 C946 0.950 . S
H937 C948 0.950 . S
H938 C950 0.950 . S
H939 C951 0.950 . S
C940 H932 0.950 . S
C940 C941 1.386 . S
C940 C942 1.391 . S
C941 C940 1.386 . S
C941 C945 1.393 . S
C942 H934 0.950 . S
C942 C940 1.391 . S
C942 C943 1.400 . S
C943 C942 1.400 . S
C943 C944 1.398 . S
C943 C949 1.491 . S
C944 H935 0.950 . S
C944 C943 1.398 . S
C944 C945 1.391 . S
C945 H933 0.950 . S
C945 C941 1.393 . S
C945 C944 1.391 . S
C946 H936 0.950 . S
C946 C947 1.386 . S
C946 C948 1.391 . S
C947 C946 1.386 . S
C947 C951 1.393 . S
C948 H937 0.950 . S
C948 C946 1.391 . S
C948 C949 1.400 . S
C949 C943 1.491 . S
C949 C948 1.400 . S
C949 C950 1.398 . S
C950 H938 0.950 . S
C950 C949 1.398 . S
C950 C951 1.391 . S
C951 H939 0.950 . S
C951 C947 1.393 . S
C951 C950 1.391 . S
H952 C960 0.950 . S
H953 C965 0.950 . S
H954 C962 0.950 . S
H955 C964 0.950 . S
H956 C966 0.950 . S
H957 C968 0.950 . S
H958 C970 0.950 . S
H959 C971 0.950 . S
C960 H952 0.950 . S
C960 C961 1.386 . S
C960 C962 1.391 . S
C961 C960 1.386 . S
C961 C965 1.393 . S
C962 H954 0.950 . S
C962 C960 1.391 . S
C962 C963 1.400 . S
C963 C962 1.400 . S
C963 C964 1.398 . S
C963 C969 1.491 . S
C964 H955 0.950 . S
C964 C963 1.398 . S
C964 C965 1.391 . S
C965 H953 0.950 . S
C965 C961 1.393 . S
C965 C964 1.391 . S
C966 H956 0.950 . S
C966 C967 1.386 . S
C966 C968 1.391 . S
C967 C966 1.386 . S
C967 C971 1.393 . S
C968 H957 0.950 . S
C968 C966 1.391 . S
C968 C969 1.400 . S
C969 C963 1.491 . S
C969 C968 1.400 . S
C969 C970 1.398 . S
C970 H958 0.950 . S
C970 C969 1.398 . S
C970 C971 1.391 . S
C971 H959 0.950 . S
C971 C967 1.393 . S
C971 C970 1.391 . S
C261 C7 1.928 . S
C267 C49 1.928 . S
C281 C21 1.920 . S
C287 C63 1.920 . S
C301 C77 1.914 . S
C307 C35 1.914 . S
C321 C91 1.901 . S
C327 C133 1.899 . S
C341 C105 1.916 . S
C347 C147 1.916 . S
C361 C161 1.881 . S
C367 C119 1.882 . S
C381 C217 1.894 . S
C387 C175 1.892 . S
C401 C231 1.932 . S
C407 C189 1.932 . S
C421 C245 1.899 . S
C427 C203 1.897 . S
C441 C6 1.458 . S
C447 C132 1.457 . S
C461 C20 1.472 . S
C467 C146 1.472 . S
C481 C160 1.470 . S
C487 C34 1.469 . S
C501 C48 1.480 . S
C507 C174 1.480 . S
C521 C62 1.471 . S
C527 C188 1.471 . S
C541 C76 1.472 . S
C547 C202 1.473 . S
C561 C90 1.492 . S
C567 C216 1.493 . S
C581 C104 1.493 . S
C587 C230 1.493 . S
C601 C244 1.482 . S
C607 C118 1.478 . S
C621 C9 0.885 1_565 S
C627 C64 0.899 . S
C641 C23 0.890 1_455 S
C647 C78 0.866 . S
C661 C37 0.881 . S
C667 C50 0.882 . S
C681 C51 0.888 1_545 S
C687 C22 0.896 . S
C701 C36 0.884 . S
C707 C65 0.889 1_655 S
C721 C79 0.894 . S
C727 C8 0.873 . S
C741 C93 0.951 . S
C747 C148 0.929 . S
C761 C162 0.866 . S
C767 C107 0.892 . S
C781 C134 0.915 . S
C787 C121 0.945 . S
C801 C106 0.901 . S
C807 C135 0.882 . S
C821 C149 0.902 . S
C827 C120 0.895 . S
C841 C163 0.846 . S
C847 C92 0.860 . S
C861 C232 0.877 . S
C867 C177 0.901 . S
C881 C246 0.888 . S
C887 C191 0.883 . S
C901 C205 0.848 . S
C907 C218 0.874 . S
C921 C190 0.950 . S
C927 C219 0.930 . S
C941 C204 0.892 . S
C947 C233 0.877 . S
C961 C176 0.925 . S
C967 C247 0.947 . S
