# Generated by pormake.
# Topology ukf, (4)-cn, num edge types: 1
# Building blocks:
#     Node 0, Type 0, BuildingBlock: KUFVIS_clean_sbu_0, # of connection points: 4
#     Node 1, Type 0, BuildingBlock: KUFVIS_clean_sbu_0, # of connection points: 4
#     Node 2, Type 0, BuildingBlock: KUFVIS_clean_sbu_0, # of connection points: 4
#     Node 3, Type 0, BuildingBlock: KUFVIS_clean_sbu_0, # of connection points: 4
#     Node 4, Type 0, BuildingBlock: KUFVIS_clean_sbu_0, # of connection points: 4
#     Node 5, Type 0, BuildingBlock: KUFVIS_clean_sbu_0, # of connection points: 4
#     Node 6, Type 0, BuildingBlock: KUFVIS_clean_sbu_0, # of connection points: 4
#     Node 7, Type 0, BuildingBlock: KUFVIS_clean_sbu_0, # of connection points: 4
#     Node 8, Type 0, BuildingBlock: KUFVIS_clean_sbu_0, # of connection points: 4
#     Node 9, Type 0, BuildingBlock: KUFVIS_clean_sbu_0, # of connection points: 4
#     Node 10, Type 0, BuildingBlock: KUFVIS_clean_sbu_0, # of connection points: 4
#     Node 11, Type 0, BuildingBlock: KUFVIS_clean_sbu_0, # of connection points: 4
#     Edge 12, Type (0, 0), BuildingBlock: TEMPAE_clean_linker_10, # of connection points: 2
#     Edge 13, Type (0, 0), BuildingBlock: TEMPAE_clean_linker_10, # of connection points: 2
#     Edge 14, Type (0, 0), BuildingBlock: TEMPAE_clean_linker_10, # of connection points: 2
#     Edge 15, Type (0, 0), BuildingBlock: TEMPAE_clean_linker_10, # of connection points: 2
#     Edge 16, Type (0, 0), BuildingBlock: TEMPAE_clean_linker_10, # of connection points: 2
#     Edge 17, Type (0, 0), BuildingBlock: TEMPAE_clean_linker_10, # of connection points: 2
#     Edge 18, Type (0, 0), BuildingBlock: TEMPAE_clean_linker_10, # of connection points: 2
#     Edge 19, Type (0, 0), BuildingBlock: TEMPAE_clean_linker_10, # of connection points: 2
#     Edge 20, Type (0, 0), BuildingBlock: TEMPAE_clean_linker_10, # of connection points: 2
#     Edge 21, Type (0, 0), BuildingBlock: TEMPAE_clean_linker_10, # of connection points: 2
#     Edge 22, Type (0, 0), BuildingBlock: TEMPAE_clean_linker_10, # of connection points: 2
#     Edge 23, Type (0, 0), BuildingBlock: TEMPAE_clean_linker_10, # of connection points: 2
#     Edge 24, Type (0, 0), BuildingBlock: TEMPAE_clean_linker_10, # of connection points: 2
#     Edge 25, Type (0, 0), BuildingBlock: TEMPAE_clean_linker_10, # of connection points: 2
#     Edge 26, Type (0, 0), BuildingBlock: TEMPAE_clean_linker_10, # of connection points: 2
#     Edge 27, Type (0, 0), BuildingBlock: TEMPAE_clean_linker_10, # of connection points: 2
#     Edge 28, Type (0, 0), BuildingBlock: TEMPAE_clean_linker_10, # of connection points: 2
#     Edge 29, Type (0, 0), BuildingBlock: TEMPAE_clean_linker_10, # of connection points: 2
#     Edge 30, Type (0, 0), BuildingBlock: TEMPAE_clean_linker_10, # of connection points: 2
#     Edge 31, Type (0, 0), BuildingBlock: TEMPAE_clean_linker_10, # of connection points: 2
#     Edge 32, Type (0, 0), BuildingBlock: TEMPAE_clean_linker_10, # of connection points: 2
#     Edge 33, Type (0, 0), BuildingBlock: TEMPAE_clean_linker_10, # of connection points: 2
#     Edge 34, Type (0, 0), BuildingBlock: TEMPAE_clean_linker_10, # of connection points: 2
#     Edge 35, Type (0, 0), BuildingBlock: TEMPAE_clean_linker_10, # of connection points: 2
# Relax obj value: 0.098
# Max RMSD: 0.095
# Mean RMSD: 0.095
data_MOF--net-ukf--node1-KUFVIS_clean_sbu_0--edge1-TEMPAE_clean_linker_10
_symmetry_space_group_name_H-M    P1
_symmetry_Int_Tables_number       1
_symmetry_cell_setting            triclinic
loop_
_symmetry_equiv_pos_as_xyz
'x, y, z'
_cell_length_a     33.029815
_cell_length_b     32.957304
_cell_length_c     63.745561
_cell_angle_alpha  89.999103
_cell_angle_beta   89.984525
_cell_angle_gamma 120.04548
loop_
_atom_site_label
_atom_site_type_symbol
_atom_site_fract_x
_atom_site_fract_y
_atom_site_fract_z
_atom_type_partial_charge
Mn0 Mn 0.43221 0.23599 0.04889 0.0
Mn1 Mn 0.52719 0.29195 0.08014 0.0
C2 C 0.50614 0.25976 0.03565 0.0
C3 C 0.37168 0.1638 0.03615 0.0
C4 C 0.48056 0.34124 0.0597 0.0
O5 O 0.4029 0.22338 0.07815 0.0
O6 O 0.46923 0.26031 0.09694 0.0
C7 C 0.52066 0.20719 0.09946 0.0
N8 N 0.54578 0.24822 0.08881 0.0
C9 C 0.61447 0.24061 0.08915 0.0
C10 C 0.58942 0.1983 0.10018 0.0
C11 C 0.54222 0.1814 0.10525 0.0
C12 C 0.59088 0.26433 0.0835 0.0
H13 H 0.4845 0.19433 0.10354 0.0
C14 C 0.42468 0.23639 0.09557 0.0
O15 O 0.36867 0.20163 0.03502 0.0
O16 O 0.4088 0.16804 0.045 0.0
N17 N 0.58666 0.32466 0.06655 0.0
C18 C 0.60571 0.36593 0.05581 0.0
C19 C 0.65307 0.38832 0.05007 0.0
C20 C 0.6805 0.36852 0.05577 0.0
C21 C 0.66008 0.32583 0.06666 0.0
C22 C 0.61279 0.30529 0.07206 0.0
H23 H 0.5851 0.38198 0.05191 0.0
O24 O 0.47151 0.25015 0.02319 0.0
O25 O 0.49633 0.25359 0.05554 0.0
O26 O 0.44771 0.30557 0.05013 0.0
O27 O 0.5108 0.33891 0.07134 0.0
C28 C 0.6849 0.30321 0.07266 0.0
C29 C 0.66196 0.26031 0.08365 0.0
H30 H 0.60606 0.17853 0.10483 0.0
H31 H 0.52263 0.14877 0.11374 0.0
H32 H 0.66861 0.42119 0.04161 0.0
H33 H 0.71732 0.3866 0.05182 0.0
H34 H 0.72162 0.31837 0.06883 0.0
H35 H 0.68126 0.24297 0.08794 0.0
Mn36 Mn 0.20125 0.43103 0.38232 0.0
Mn37 Mn 0.23818 0.526 0.41356 0.0
C38 C 0.25158 0.50529 0.36932 0.0
C39 C 0.21326 0.37061 0.36988 0.0
C40 C 0.14337 0.47852 0.39232 0.0
O41 O 0.18355 0.40151 0.41153 0.0
O42 O 0.21097 0.46786 0.43032 0.0
C43 C 0.3153 0.51977 0.43404 0.0
N44 N 0.30001 0.54481 0.42294 0.0
C45 C 0.37633 0.61369 0.42374 0.0
C46 C 0.39296 0.58872 0.43522 0.0
C47 C 0.36234 0.54148 0.4403 0.0
C48 C 0.32931 0.58997 0.41765 0.0
H49 H 0.29176 0.48359 0.43814 0.0
C50 C 0.19087 0.42325 0.42891 0.0
O51 O 0.17249 0.36749 0.36847 0.0
O52 O 0.24594 0.40783 0.37886 0.0
N53 N 0.26559 0.58564 0.39999 0.0
C54 C 0.24389 0.60468 0.38891 0.0
C55 C 0.26918 0.65213 0.38316 0.0
C56 C 0.31618 0.67965 0.3892 0.0
C57 C 0.3379 0.65923 0.40045 0.0
C58 C 0.31086 0.61186 0.40584 0.0
H59 H 0.20739 0.58399 0.38475 0.0
O60 O 0.22724 0.47058 0.35674 0.0
O61 O 0.24716 0.49539 0.38922 0.0
O62 O 0.14701 0.44596 0.38295 0.0
O63 O 0.17523 0.5093 0.4041 0.0
C64 C 0.38507 0.68417 0.40684 0.0
C65 C 0.40444 0.66126 0.41823 0.0
H66 H 0.42912 0.60547 0.44023 0.0
H67 H 0.37489 0.52196 0.44916 0.0
H68 H 0.25227 0.66767 0.37442 0.0
H69 H 0.33515 0.71655 0.38524 0.0
H70 H 0.40684 0.72095 0.40303 0.0
H71 H 0.44087 0.68066 0.42285 0.0
Mn72 Mn 0.77999 0.19328 0.71629 0.0
Mn73 Mn 0.71472 0.22146 0.7474 0.0
C74 C 0.75384 0.24224 0.70404 0.0
C75 C 0.85418 0.20995 0.70454 0.0
C76 C 0.67409 0.13035 0.7234 0.0
O77 O 0.79039 0.1734 0.74521 0.0
O78 O 0.74539 0.19353 0.76385 0.0
C79 C 0.79396 0.29696 0.77093 0.0
N80 N 0.75512 0.2823 0.7588 0.0
C81 C 0.76128 0.35807 0.76071 0.0
C82 C 0.8013 0.37399 0.77324 0.0
C83 C 0.8178 0.34332 0.7783 0.0
C84 C 0.7394 0.3117 0.75357 0.0
H85 H 0.80663 0.27345 0.77497 0.0
C86 C 0.77258 0.1765 0.76246 0.0
O87 O 0.81776 0.16845 0.70222 0.0
O88 O 0.84752 0.2407 0.71416 0.0
N89 N 0.68269 0.24931 0.7341 0.0
C90 C 0.64301 0.22813 0.72228 0.0
C91 C 0.62105 0.25349 0.71646 0.0
C92 C 0.63951 0.29997 0.72324 0.0
C93 C 0.68031 0.32105 0.73542 0.0
C94 C 0.70054 0.29397 0.74081 0.0
H95 H 0.62795 0.19202 0.7175 0.0
O96 O 0.767 0.22076 0.69111 0.0
O97 O 0.75781 0.2359 0.72389 0.0
O98 O 0.71228 0.13678 0.71514 0.0
O99 O 0.67123 0.15949 0.73563 0.0
C100 C 0.70125 0.36759 0.74274 0.0
C101 C 0.74204 0.38627 0.75515 0.0
H102 H 0.81956 0.40962 0.7791 0.0
H103 H 0.84865 0.35531 0.78798 0.0
H104 H 0.58953 0.23699 0.70707 0.0
H105 H 0.62171 0.31896 0.71921 0.0
H106 H 0.68631 0.38937 0.73892 0.0
H107 H 0.75803 0.42221 0.76054 0.0
Mn108 Mn 0.57727 0.77457 0.0495 0.0
Mn109 Mn 0.48207 0.71861 0.08065 0.0
C110 C 0.5035 0.7514 0.03626 0.0
C111 C 0.63812 0.84686 0.03696 0.0
C112 C 0.52806 0.66902 0.05988 0.0
O113 O 0.60645 0.78652 0.07876 0.0
O114 O 0.54 0.74949 0.09748 0.0
C115 C 0.48946 0.80346 0.1003 0.0
N116 N 0.46405 0.76265 0.08953 0.0
C117 C 0.39589 0.77119 0.08994 0.0
C118 C 0.42125 0.81327 0.10109 0.0
C119 C 0.46832 0.8296 0.10619 0.0
C120 C 0.41907 0.7471 0.08419 0.0
H121 H 0.52552 0.81588 0.1044 0.0
C122 C 0.58457 0.77321 0.09615 0.0
O123 O 0.64091 0.80892 0.03568 0.0
O124 O 0.60105 0.84266 0.04585 0.0
N125 N 0.42257 0.68655 0.06707 0.0
C126 C 0.40311 0.64531 0.0563 0.0
C127 C 0.35575 0.62335 0.05062 0.0
C128 C 0.32873 0.64357 0.0564 0.0
C129 C 0.34958 0.68624 0.06729 0.0
C130 C 0.39683 0.7063 0.07266 0.0
H131 H 0.42339 0.62893 0.05234 0.0
O132 O 0.53815 0.76106 0.02379 0.0
O133 O 0.5132 0.75723 0.05616 0.0
O134 O 0.56129 0.7048 0.05051 0.0
O135 O 0.49793 0.67145 0.07158 0.0
C136 C 0.32518 0.70927 0.07335 0.0
C137 C 0.34848 0.75203 0.08442 0.0
H138 H 0.40493 0.83331 0.10582 0.0
H139 H 0.48814 0.86205 0.11477 0.0
H140 H 0.33988 0.59049 0.04215 0.0
H141 H 0.29189 0.62579 0.05251 0.0
H142 H 0.28852 0.69451 0.06952 0.0
H143 H 0.3295 0.76968 0.08877 0.0
Mn144 Mn 0.81007 0.57759 0.38084 0.0
Mn145 Mn 0.77128 0.48233 0.412 0.0
C146 C 0.75778 0.50378 0.36794 0.0
C147 C 0.79931 0.63906 0.36871 0.0
C148 C 0.86498 0.52631 0.38977 0.0
O149 O 0.82933 0.60721 0.40992 0.0
O150 O 0.80174 0.54076 0.4286 0.0
C151 C 0.6978 0.4932 0.43351 0.0
N152 N 0.71073 0.46649 0.42219 0.0
C153 C 0.63298 0.39984 0.42394 0.0
C154 C 0.61878 0.42659 0.43564 0.0
C155 C 0.6513 0.47355 0.44036 0.0
C156 C 0.67956 0.42159 0.41724 0.0
H157 H 0.7228 0.52917 0.43733 0.0
C158 C 0.82269 0.58541 0.42723 0.0
O159 O 0.83959 0.6412 0.36689 0.0
O160 O 0.76654 0.60227 0.37787 0.0
N161 N 0.74068 0.42229 0.39874 0.0
C162 C 0.76016 0.40128 0.38746 0.0
C163 C 0.73304 0.3536 0.38236 0.0
C164 C 0.68641 0.32792 0.38915 0.0
C165 C 0.66678 0.35045 0.40036 0.0
C166 C 0.6957 0.39787 0.40523 0.0
H167 H 0.79628 0.4206 0.3826 0.0
O168 O 0.78261 0.53826 0.35532 0.0
O169 O 0.76281 0.51367 0.38784 0.0
O170 O 0.86309 0.56059 0.3811 0.0
O171 O 0.83264 0.49607 0.40156 0.0
C172 C 0.61993 0.32754 0.40724 0.0
C173 C 0.60288 0.35238 0.41879 0.0
H174 H 0.58305 0.41141 0.44112 0.0
H175 H 0.64065 0.49442 0.4494 0.0
H176 H 0.74826 0.33648 0.37354 0.0
H177 H 0.66608 0.2908 0.38577 0.0
H178 H 0.59667 0.29086 0.40369 0.0
H179 H 0.5667 0.33451 0.42384 0.0
Mn180 Mn 0.23531 0.81773 0.71576 0.0
Mn181 Mn 0.29946 0.78965 0.74764 0.0
C182 C 0.26093 0.76784 0.70422 0.0
C183 C 0.16154 0.80139 0.70358 0.0
C184 C 0.34137 0.87979 0.72285 0.0
O185 O 0.22468 0.8387 0.74436 0.0
O186 O 0.26966 0.81936 0.76347 0.0
C187 C 0.21933 0.71631 0.77161 0.0
N188 N 0.25806 0.72961 0.75956 0.0
C189 C 0.24984 0.65304 0.76224 0.0
C190 C 0.20991 0.63852 0.77471 0.0
C191 C 0.19451 0.67027 0.77935 0.0
C192 C 0.27275 0.69916 0.75474 0.0
H193 H 0.20747 0.74062 0.77532 0.0
C194 C 0.2426 0.83648 0.76172 0.0
O195 O 0.19824 0.84264 0.70111 0.0
O196 O 0.16769 0.77072 0.71358 0.0
N197 N 0.33061 0.76011 0.73503 0.0
C198 C 0.37068 0.78017 0.72345 0.0
C199 C 0.39182 0.75373 0.71818 0.0
C200 C 0.37215 0.70733 0.72526 0.0
C201 C 0.331 0.68742 0.73721 0.0
C202 C 0.31168 0.71558 0.74209 0.0
H203 H 0.38671 0.81623 0.71848 0.0
O204 O 0.24832 0.78924 0.69097 0.0
O205 O 0.25672 0.7748 0.72397 0.0
O206 O 0.30332 0.8738 0.71462 0.0
O207 O 0.34379 0.85069 0.73527 0.0
C208 C 0.30889 0.64105 0.74481 0.0
C209 C 0.26803 0.6237 0.75711 0.0
H210 H 0.19089 0.60314 0.78083 0.0
H211 H 0.16375 0.65937 0.78897 0.0
H212 H 0.42365 0.76935 0.70899 0.0
H213 H 0.38934 0.68753 0.72168 0.0
H214 H 0.32303 0.61841 0.74131 0.0
H215 H 0.25119 0.5879 0.76276 0.0
Mn216 Mn 0.77874 0.58287 0.61819 0.0
Mn217 Mn 0.71242 0.48719 0.58835 0.0
C218 C 0.75255 0.50841 0.63149 0.0
C219 C 0.85305 0.64138 0.62942 0.0
C220 C 0.67269 0.53933 0.61149 0.0
O221 O 0.78879 0.61128 0.58886 0.0
O222 O 0.74244 0.54489 0.57117 0.0
C223 C 0.79102 0.4899 0.56477 0.0
N224 N 0.75247 0.46624 0.57713 0.0
C225 C 0.75812 0.39632 0.57574 0.0
C226 C 0.79785 0.41988 0.56296 0.0
C227 C 0.81447 0.46694 0.55753 0.0
C228 C 0.73667 0.42125 0.58274 0.0
H229 H 0.80374 0.52596 0.56043 0.0
C230 C 0.76996 0.58923 0.57194 0.0
O231 O 0.81667 0.6465 0.6314 0.0
O232 O 0.84629 0.60329 0.62041 0.0
N233 N 0.68081 0.42796 0.60233 0.0
C234 C 0.64152 0.41004 0.6144 0.0
C235 C 0.61936 0.36283 0.62054 0.0
C236 C 0.63725 0.33432 0.61384 0.0
C237 C 0.67778 0.3535 0.60148 0.0
C238 C 0.69818 0.4007 0.59575 0.0
H239 H 0.62682 0.43142 0.61908 0.0
O240 O 0.76592 0.54396 0.64393 0.0
O241 O 0.75624 0.51743 0.6115 0.0
O242 O 0.71123 0.57192 0.61914 0.0
O243 O 0.66924 0.50612 0.59993 0.0
C244 C 0.69825 0.32744 0.59429 0.0
C245 C 0.73875 0.34899 0.58166 0.0
H246 H 0.81579 0.40215 0.5572 0.0
H247 H 0.84509 0.48537 0.54767 0.0
H248 H 0.58808 0.34824 0.63008 0.0
H249 H 0.61923 0.29759 0.61808 0.0
H250 H 0.68318 0.29079 0.59839 0.0
H251 H 0.75439 0.3287 0.57638 0.0
Mn252 Mn 0.19014 0.77992 0.95058 0.0
Mn253 Mn 0.21808 0.71358 0.91997 0.0
C254 C 0.23905 0.75405 0.9631 0.0
C255 C 0.20741 0.855 0.96183 0.0
C256 C 0.12729 0.6734 0.9441 0.0
O257 O 0.17014 0.78951 0.92153 0.0
O258 O 0.1903 0.744 0.90326 0.0
C259 C 0.29346 0.79232 0.89611 0.0
N260 N 0.27878 0.75367 0.90844 0.0
C261 C 0.35428 0.75955 0.90663 0.0
C262 C 0.37021 0.79937 0.8939 0.0
C263 C 0.33969 0.81592 0.88868 0.0
C264 C 0.30803 0.73789 0.91381 0.0
H265 H 0.27008 0.80502 0.89196 0.0
C266 C 0.17332 0.77129 0.9044 0.0
O267 O 0.16593 0.81872 0.96438 0.0
O268 O 0.2377 0.84768 0.95226 0.0
N269 N 0.24583 0.68171 0.93353 0.0
C270 C 0.22467 0.64225 0.94557 0.0
C271 C 0.24986 0.62023 0.95154 0.0
C272 C 0.29618 0.63842 0.94472 0.0
C273 C 0.31726 0.67902 0.93234 0.0
C274 C 0.29032 0.69926 0.92677 0.0
H275 H 0.18868 0.62735 0.95036 0.0
O276 O 0.21776 0.76769 0.97589 0.0
O277 O 0.23256 0.75739 0.94322 0.0
O278 O 0.13368 0.71189 0.95215 0.0
O279 O 0.1563 0.67038 0.9319 0.0
C280 C 0.36369 0.69976 0.92502 0.0
C281 C 0.38235 0.74031 0.91238 0.0
H282 H 0.40575 0.81746 0.88801 0.0
H283 H 0.3517 0.84661 0.87885 0.0
H284 H 0.23337 0.58886 0.96108 0.0
H285 H 0.31503 0.62055 0.94887 0.0
H286 H 0.38538 0.68485 0.92902 0.0
H287 H 0.4182 0.75615 0.90699 0.0
Mn288 Mn 0.41254 0.18661 0.28469 0.0
Mn289 Mn 0.50572 0.21354 0.25358 0.0
C290 C 0.48759 0.23704 0.29648 0.0
C291 C 0.35482 0.20368 0.29592 0.0
C292 C 0.45713 0.12447 0.27909 0.0
O293 O 0.38181 0.16447 0.25598 0.0
O294 O 0.44671 0.18306 0.23743 0.0
C295 C 0.49957 0.28583 0.22843 0.0
N296 N 0.52463 0.27306 0.24102 0.0
C297 C 0.59307 0.34945 0.23801 0.0
C298 C 0.56802 0.36342 0.225 0.0
C299 C 0.52102 0.33149 0.22024 0.0
C300 C 0.56964 0.30369 0.24594 0.0
H301 H 0.46351 0.26136 0.22462 0.0
C302 C 0.40251 0.16591 0.23889 0.0
O303 O 0.35012 0.16249 0.29893 0.0
O304 O 0.39186 0.23375 0.28589 0.0
N305 N 0.56601 0.24361 0.26653 0.0
C306 C 0.5857 0.22402 0.27866 0.0
C307 C 0.63317 0.25057 0.28404 0.0
C308 C 0.66012 0.2966 0.27654 0.0
C309 C 0.63917 0.31609 0.26411 0.0
C310 C 0.59181 0.2878 0.2591 0.0
H311 H 0.56552 0.18821 0.28394 0.0
O312 O 0.4532 0.21614 0.30957 0.0
O313 O 0.47708 0.22927 0.27668 0.0
O314 O 0.42475 0.13064 0.28686 0.0
O315 O 0.48879 0.15309 0.2666 0.0
C316 C 0.66364 0.36214 0.25614 0.0
C317 C 0.64046 0.37898 0.2433 0.0
H318 H 0.58456 0.39852 0.21852 0.0
H319 H 0.50145 0.34196 0.21018 0.0
H320 H 0.64915 0.23531 0.29362 0.0
H321 H 0.69705 0.31643 0.28019 0.0
H322 H 0.70029 0.3849 0.25978 0.0
H323 H 0.65957 0.41452 0.23736 0.0
Mn324 Mn 0.23766 0.42642 0.61959 0.0
Mn325 Mn 0.30372 0.52227 0.58981 0.0
C326 C 0.26341 0.50081 0.6329 0.0
C327 C 0.16341 0.36775 0.63084 0.0
C328 C 0.34388 0.47068 0.61307 0.0
O329 O 0.22779 0.398 0.59027 0.0
O330 O 0.27442 0.46446 0.57269 0.0
C331 C 0.22487 0.5184 0.56598 0.0
N332 N 0.26327 0.5425 0.57838 0.0
C333 C 0.25673 0.6119 0.57671 0.0
C334 C 0.21716 0.58788 0.5639 0.0
C335 C 0.20106 0.54086 0.55858 0.0
C336 C 0.27855 0.58745 0.58388 0.0
H337 H 0.21255 0.48237 0.56173 0.0
C338 C 0.24695 0.4201 0.57341 0.0
O339 O 0.19988 0.36278 0.63286 0.0
O340 O 0.17004 0.40576 0.62179 0.0
N341 N 0.33466 0.58165 0.60368 0.0
C342 C 0.37397 0.60012 0.61574 0.0
C343 C 0.39577 0.64742 0.62168 0.0
C344 C 0.37749 0.67546 0.61481 0.0
C345 C 0.3369 0.65573 0.60249 0.0
C346 C 0.31692 0.60847 0.59693 0.0
H347 H 0.38903 0.57914 0.6205 0.0
O348 O 0.25028 0.46528 0.64533 0.0
O349 O 0.2598 0.49183 0.61292 0.0
O350 O 0.3053 0.43763 0.6205 0.0
O351 O 0.34722 0.50403 0.60165 0.0
C352 C 0.31601 0.68129 0.59517 0.0
C353 C 0.2756 0.65923 0.58252 0.0
H354 H 0.19894 0.60521 0.55802 0.0
H355 H 0.17056 0.52207 0.54869 0.0
H356 H 0.4271 0.66245 0.6312 0.0
H357 H 0.39526 0.71228 0.61889 0.0
H358 H 0.3307 0.71794 0.59919 0.0
H359 H 0.25964 0.67914 0.57713 0.0
Mn360 Mn 0.821 0.23115 0.95148 0.0
Mn361 Mn 0.79354 0.29708 0.92034 0.0
C362 C 0.77156 0.25685 0.9635 0.0
C363 C 0.80362 0.15617 0.96298 0.0
C364 C 0.88353 0.3378 0.94508 0.0
O365 O 0.84187 0.22147 0.92266 0.0
O366 O 0.82263 0.26729 0.90408 0.0
C367 C 0.71975 0.21792 0.89607 0.0
N368 N 0.73346 0.25644 0.90838 0.0
C369 C 0.65747 0.24928 0.90596 0.0
C370 C 0.64254 0.20958 0.89324 0.0
C371 C 0.67379 0.19375 0.88834 0.0
C372 C 0.70349 0.27154 0.91344 0.0
H373 H 0.74368 0.20575 0.89216 0.0
C374 C 0.83958 0.24001 0.90547 0.0
O375 O 0.84498 0.19253 0.96567 0.0
O376 O 0.77354 0.16336 0.95315 0.0
N377 N 0.76463 0.32837 0.93341 0.0
C378 C 0.78498 0.36806 0.9453 0.0
C379 C 0.75906 0.38954 0.95089 0.0
C380 C 0.71283 0.3706 0.94383 0.0
C381 C 0.69259 0.32982 0.93157 0.0
C382 C 0.72027 0.31016 0.92636 0.0
H383 H 0.82091 0.38357 0.95026 0.0
O384 O 0.79264 0.24343 0.97652 0.0
O385 O 0.77857 0.25339 0.94368 0.0
O386 O 0.87732 0.29932 0.95308 0.0
O387 O 0.85462 0.34069 0.93276 0.0
C388 C 0.64634 0.30838 0.92399 0.0
C389 C 0.62862 0.26783 0.9114 0.0
H390 H 0.60721 0.19104 0.88712 0.0
H391 H 0.66257 0.16317 0.87852 0.0
H392 H 0.77492 0.42108 0.96032 0.0
H393 H 0.69343 0.38807 0.94766 0.0
H394 H 0.62407 0.32277 0.92775 0.0
H395 H 0.59291 0.25148 0.90579 0.0
Mn396 Mn 0.59604 0.82147 0.2856 0.0
Mn397 Mn 0.50279 0.79479 0.2546 0.0
C398 C 0.52093 0.77165 0.29756 0.0
C399 C 0.65365 0.80404 0.29669 0.0
C400 C 0.55224 0.88426 0.27977 0.0
O401 O 0.62657 0.84312 0.25682 0.0
O402 O 0.56162 0.82447 0.23831 0.0
C403 C 0.50783 0.72153 0.22973 0.0
N404 N 0.48318 0.7349 0.24228 0.0
C405 C 0.41422 0.65883 0.23958 0.0
C406 C 0.43883 0.64423 0.22661 0.0
C407 C 0.48589 0.6757 0.22171 0.0
C408 C 0.43813 0.70473 0.24732 0.0
H409 H 0.54391 0.74566 0.22581 0.0
C410 C 0.60581 0.84147 0.23972 0.0
O411 O 0.65866 0.84537 0.29965 0.0
O412 O 0.61628 0.77398 0.28686 0.0
N413 N 0.44265 0.76549 0.2677 0.0
C414 C 0.42347 0.78562 0.2798 0.0
C415 C 0.37605 0.75954 0.28535 0.0
C416 C 0.34864 0.71341 0.27804 0.0
C417 C 0.36907 0.69338 0.2656 0.0
C418 C 0.41641 0.72121 0.26045 0.0
H419 H 0.44403 0.82149 0.28497 0.0
O420 O 0.55547 0.79241 0.31059 0.0
O421 O 0.53135 0.77914 0.27775 0.0
O422 O 0.58435 0.8778 0.28765 0.0
O423 O 0.52044 0.85565 0.26734 0.0
C424 C 0.34412 0.64723 0.25779 0.0
C425 C 0.36682 0.62979 0.24498 0.0
H426 H 0.42191 0.60901 0.22027 0.0
H427 H 0.50512 0.66476 0.21168 0.0
H428 H 0.36047 0.77521 0.29493 0.0
H429 H 0.31176 0.69392 0.28183 0.0
H430 H 0.30744 0.62484 0.26152 0.0
H431 H 0.34734 0.59416 0.23917 0.0
C432 C 0.26467 0.94069 0.96482 0.0
C433 C 0.22173 0.90201 0.97079 0.0
C434 C 0.2828 0.98409 0.97505 0.0
C435 C 0.25763 0.98923 0.99185 0.0
C436 C 0.21301 0.95108 0.99721 0.0
C437 C 0.19551 0.90792 0.98658 0.0
C438 C 0.33031 0.02369 0.96863 0.0
C439 C 0.18495 0.955 0.01496 0.0
C440 C 0.33773 0.07744 0.03237 0.0
C441 C 0.33678 0.11814 0.02675 0.0
C442 C 0.31016 0.03479 0.02189 0.0
C443 C 0.28085 0.03248 0.00516 0.0
C444 C 0.27786 0.07283 1.00008 0.0
C445 C 0.30578 0.11521 0.01099 0.0
C446 C 0.31436 0.99278 0.02803 0.0
C447 C 0.24707 0.07191 0.98241 0.0
H448 H 0.28505 0.93666 0.95252 0.0
H449 H 0.16233 0.87826 0.99132 0.0
H450 H 0.32906 0.05638 0.96623 0.0
H451 H 0.35593 0.0305 0.98133 0.0
H452 H 0.34324 0.0157 0.954 0.0
H453 H 0.14857 0.92491 0.01532 0.0
H454 H 0.20201 0.95613 0.03011 0.0
H455 H 0.1838 0.98797 0.01365 0.0
H456 H 0.36124 0.07919 0.04466 0.0
H457 H 0.30489 0.14649 0.00652 0.0
H458 H 0.33125 0.98402 0.01514 0.0
H459 H 0.27921 0.96177 0.03059 0.0
H460 H 0.3354 0.99911 0.04252 0.0
H461 H 0.26206 0.06942 0.96721 0.0
H462 H 0.24382 0.10387 0.98217 0.0
H463 H 0.21163 0.04065 0.98369 0.0
C464 C 0.26633 0.33767 0.36576 0.0
C465 C 0.22406 0.33568 0.36059 0.0
C466 C 0.28099 0.30968 0.35538 0.0
C467 C 0.25289 0.27884 0.33927 0.0
C468 C 0.20902 0.27488 0.33466 0.0
C469 C 0.19503 0.30329 0.34543 0.0
C470 C 0.32785 0.31498 0.36098 0.0
C471 C 0.17796 0.24241 0.31765 0.0
C472 C 0.32573 0.26035 0.29839 0.0
C473 C 0.32236 0.21809 0.30491 0.0
C474 C 0.30097 0.27891 0.30864 0.0
C475 C 0.27214 0.25488 0.32602 0.0
C476 C 0.26646 0.21083 0.33197 0.0
C477 C 0.29157 0.19287 0.3213 0.0
C478 C 0.30793 0.32575 0.3016 0.0
C479 C 0.23603 0.18399 0.35035 0.0
H480 H 0.28885 0.36226 0.37759 0.0
H481 H 0.16236 0.30155 0.34132 0.0
H482 H 0.32423 0.28017 0.364 0.0
H483 H 0.35237 0.33098 0.34762 0.0
H484 H 0.34359 0.33737 0.37504 0.0
H485 H 0.14266 0.23878 0.31778 0.0
H486 H 0.19423 0.25624 0.30212 0.0
H487 H 0.17414 0.20717 0.31941 0.0
H488 H 0.34911 0.27992 0.28562 0.0
H489 H 0.28878 0.16023 0.32647 0.0
H490 H 0.3276 0.35255 0.31379 0.0
H491 H 0.27369 0.3239 0.29958 0.0
H492 H 0.32761 0.33763 0.2866 0.0
H493 H 0.25312 0.20239 0.36513 0.0
H494 H 0.23002 0.14771 0.35117 0.0
H495 H 0.20173 0.1824 0.34944 0.0
C496 C 0.93982 0.26618 0.70132 0.0
C497 C 0.90064 0.22366 0.69532 0.0
C498 C 0.98289 0.2836 0.69097 0.0
C499 C 0.98706 0.25815 0.67401 0.0
C500 C 0.94828 0.21404 0.66853 0.0
C501 C 0.90552 0.1972 0.67931 0.0
C502 C 0.02331 0.33053 0.69753 0.0
C503 C 0.95118 0.18583 0.65056 0.0
C504 C 0.07764 0.33738 0.6341 0.0
C505 C 0.11694 0.33414 0.63983 0.0
C506 C 0.03453 0.31079 0.64432 0.0
C507 C 0.03045 0.28033 0.66089 0.0
C508 C 0.06936 0.27511 0.66608 0.0
C509 C 0.11214 0.30196 0.65542 0.0
C510 C 0.99398 0.31722 0.63808 0.0
C511 C 0.06656 0.24312 0.68364 0.0
H512 H 0.93652 0.2867 0.71379 0.0
H513 H 0.87539 0.16437 0.67455 0.0
H514 H 0.05523 0.32801 0.69997 0.0
H515 H 0.03109 0.3566 0.6849 0.0
H516 H 0.01578 0.34381 0.71218 0.0
H517 H 0.92022 0.14996 0.64989 0.0
H518 H 0.95347 0.2039 0.63554 0.0
H519 H 0.98321 0.18307 0.65187 0.0
H520 H 0.0809 0.36187 0.62195 0.0
H521 H 0.14235 0.29932 0.65997 0.0
H522 H 0.98605 0.33478 0.65098 0.0
H523 H 0.96216 0.28271 0.6354 0.0
H524 H 1.00143 0.33872 0.62365 0.0
H525 H 0.06417 0.25808 0.69888 0.0
H526 H 0.09762 0.23847 0.68404 0.0
H527 H 0.03463 0.20823 0.68207 0.0
C528 C 0.70454 0.89573 0.01205 0.0
C529 C 0.6732 0.89262 0.02769 0.0
C530 C 0.73269 0.93823 0.00125 0.0
C531 C 0.72954 0.97852 0.0063 0.0
C532 C 0.69987 0.97601 0.0229 0.0
C533 C 0.67211 0.93326 0.03329 0.0
C534 C 0.7639 0.93936 0.98372 0.0
C535 C 0.69546 0.01793 0.02901 0.0
C536 C 0.81508 0.10326 0.98794 0.0
C537 C 0.78917 0.10916 0.972 0.0
C538 C 0.79743 0.06006 0.99856 0.0
C539 C 0.75296 0.02187 0.99304 0.0
C540 C 0.7281 0.02702 0.97612 0.0
C541 C 0.74639 0.07045 0.9659 0.0
C542 C 0.82517 0.05612 0.01644 0.0
C543 C 0.68076 0.98739 0.96955 0.0
H544 H 0.70556 0.86452 0.0076 0.0
H545 H 0.64835 0.93139 0.04549 0.0
H546 H 0.74923 0.94195 0.96845 0.0
H547 H 0.79928 0.97065 0.98515 0.0
H548 H 0.76722 0.90744 0.98352 0.0
H549 H 0.67411 0.01145 0.04341 0.0
H550 H 0.73053 0.04895 0.03169 0.0
H551 H 0.67881 0.02675 0.01603 0.0
H552 H 0.84813 0.13294 0.99278 0.0
H553 H 0.72624 0.07447 0.95348 0.0
H554 H 0.82644 0.0232 0.01518 0.0
H555 H 0.80776 0.05485 0.03152 0.0
H556 H 0.8615 0.08626 0.01693 0.0
H557 H 0.68215 0.95477 0.96716 0.0
H558 H 0.66806 0.99544 0.95486 0.0
H559 H 0.65489 0.98042 0.98215 0.0
C560 C 0.71949 0.81625 0.32077 0.0
C561 C 0.6864 0.78962 0.30536 0.0
C562 C 0.74559 0.79889 0.33105 0.0
C563 C 0.73847 0.75396 0.32575 0.0
C564 C 0.70707 0.72831 0.30935 0.0
C565 C 0.68149 0.74637 0.29943 0.0
C566 C 0.77882 0.82749 0.34835 0.0
C567 C 0.69837 0.68041 0.30304 0.0
C568 C 0.81621 0.70507 0.34363 0.0
C569 C 0.78889 0.67449 0.35971 0.0
C570 C 0.80167 0.73326 0.33306 0.0
C571 C 0.759 0.73091 0.33879 0.0
C572 C 0.73293 0.70214 0.35585 0.0
C573 C 0.74809 0.67433 0.366 0.0
C574 C 0.83061 0.76357 0.31504 0.0
C575 C 0.68746 0.69859 0.36267 0.0
H576 H 0.72356 0.8497 0.32546 0.0
H577 H 0.65634 0.72566 0.28741 0.0
H578 H 0.7638 0.81099 0.36372 0.0
H579 H 0.81266 0.82835 0.34661 0.0
H580 H 0.78549 0.86404 0.3486 0.0
H581 H 0.67637 0.66699 0.28873 0.0
H582 H 0.73198 0.68144 0.30012 0.0
H583 H 0.6804 0.65522 0.31601 0.0
H584 H 0.84773 0.70537 0.33865 0.0
H585 H 0.72695 0.65118 0.37855 0.0
H586 H 0.83507 0.79916 0.31626 0.0
H587 H 0.81223 0.74812 0.30005 0.0
H588 H 0.86568 0.7667 0.3144 0.0
H589 H 0.69222 0.73403 0.36518 0.0
H590 H 0.67359 0.67801 0.37735 0.0
H591 H 0.66087 0.68143 0.35014 0.0
C592 C 0.93844 0.67036 0.63344 0.0
C593 C 0.89955 0.675 0.63838 0.0
C594 C 0.98148 0.69727 0.64366 0.0
C595 C 0.98594 0.72962 0.65939 0.0
C596 C 0.9475 0.73619 0.66375 0.0
C597 C 0.90475 0.70887 0.65314 0.0
C598 C 0.02152 0.68928 0.63834 0.0
C599 C 0.95076 0.77027 0.68038 0.0
C600 C 0.07562 0.74635 0.70079 0.0
C601 C 0.11532 0.78776 0.69416 0.0
C602 C 0.03268 0.72861 0.69031 0.0
C603 C 0.02922 0.75256 0.67256 0.0
C604 C 0.06856 0.79567 0.66641 0.0
C605 C 0.11116 0.8129 0.67735 0.0
C606 C 0.99164 0.68283 0.69761 0.0
C607 C 0.06641 0.82225 0.64757 0.0
H608 H 0.93491 0.64455 0.62194 0.0
H609 H 0.87488 0.71266 0.65708 0.0
H610 H 0.05374 0.72316 0.63515 0.0
H611 H 0.0289 0.67288 0.65191 0.0
H612 H 0.01383 0.66612 0.62448 0.0
H613 H 0.92007 0.77555 0.68013 0.0
H614 H 0.95277 0.75684 0.69607 0.0
H615 H 0.98304 0.8047 0.67827 0.0
H616 H 0.07841 0.72688 0.71387 0.0
H617 H 0.14171 0.84485 0.67211 0.0
H618 H 0.98349 0.65528 0.68566 0.0
H619 H 0.9601 0.68629 0.69941 0.0
H620 H 0.99869 0.67092 0.71277 0.0
H621 H 0.06401 0.80249 0.63308 0.0
H622 H 0.09776 0.85776 0.64639 0.0
H623 H 0.03472 0.82572 0.64823 0.0
C624 C 0.74883 0.30069 0.98765 0.0
C625 C 0.73669 0.26806 0.97147 0.0
C626 C 0.71473 0.30706 0.99773 0.0
C627 C 0.66714 0.27877 0.99202 0.0
C628 C 0.65508 0.24701 0.97502 0.0
C629 C 0.69007 0.24176 0.96504 0.0
C630 C 0.72962 0.34224 0.01522 0.0
C631 C 0.60499 0.21695 0.96803 0.0
C632 C 0.57025 0.24151 0.03231 0.0
C633 C 0.5511 0.26941 0.02677 0.0
C634 C 0.6097 0.24607 0.02183 0.0
C635 C 0.62953 0.27847 0.00506 0.0
C636 C 0.61088 0.30764 0.99991 0.0
C637 C 0.5715 0.30235 0.01067 0.0
C638 C 0.62903 0.21498 0.0282 0.0
C639 C 0.63117 0.34307 0.98249 0.0
H640 H 0.78503 0.32066 0.99266 0.0
H641 H 0.68078 0.21581 0.95276 0.0
H642 H 0.71023 0.3616 0.01454 0.0
H643 H 0.72169 0.32331 0.03035 0.0
H644 H 0.76772 0.36793 0.01471 0.0
H645 H 0.6021 0.19743 0.95337 0.0
H646 H 0.58464 0.19132 0.98053 0.0
H647 H 0.58876 0.23893 0.96535 0.0
H648 H 0.55345 0.21507 0.04438 0.0
H649 H 0.55605 0.32342 0.00627 0.0
H650 H 0.66708 0.23653 0.03135 0.0
H651 H 0.62437 0.19067 0.01518 0.0
H652 H 0.61157 0.19399 0.04243 0.0
H653 H 0.66966 0.36457 0.98422 0.0
H654 H 0.61635 0.36679 0.98212 0.0
H655 H 0.62358 0.32437 0.96729 0.0
C656 C 0.33397 0.56985 0.36635 0.0
C657 C 0.28705 0.55051 0.3606 0.0
C658 C 0.36908 0.60938 0.35593 0.0
C659 C 0.35687 0.62924 0.33906 0.0
C660 C 0.30917 0.61051 0.33375 0.0
C661 C 0.27487 0.57095 0.34441 0.0
C662 C 0.41936 0.62872 0.36244 0.0
C663 C 0.29437 0.63096 0.3163 0.0
C664 C 0.45447 0.74882 0.32177 0.0
C665 C 0.47477 0.7367 0.30552 0.0
C666 C 0.41394 0.71464 0.33184 0.0
C667 C 0.39443 0.66696 0.32608 0.0
C668 C 0.41399 0.65491 0.30904 0.0
C669 C 0.45422 0.69001 0.29903 0.0
C670 C 0.3937 0.72951 0.34933 0.0
C671 C 0.39382 0.60472 0.30202 0.0
H672 H 0.34333 0.55305 0.37852 0.0
H673 H 0.23845 0.5554 0.33987 0.0
H674 H 0.43913 0.62407 0.34948 0.0
H675 H 0.43596 0.66685 0.3656 0.0
H676 H 0.42263 0.61118 0.3767 0.0
H677 H 0.25584 0.61587 0.31573 0.0
H678 H 0.31115 0.66947 0.31819 0.0
H679 H 0.30595 0.62379 0.30114 0.0
H680 H 0.47086 0.78508 0.32682 0.0
H681 H 0.47072 0.68073 0.28669 0.0
H682 H 0.407 0.76786 0.34914 0.0
H683 H 0.4036 0.72047 0.36447 0.0
H684 H 0.35502 0.71082 0.3483 0.0
H685 H 0.39882 0.58427 0.31456 0.0
H686 H 0.41053 0.60181 0.28741 0.0
H687 H 0.35567 0.58852 0.29927 0.0
C688 C 0.7693 0.324 0.70197 0.0
C689 C 0.74261 0.27708 0.6959 0.0
C690 C 0.76414 0.3589 0.69178 0.0
C691 C 0.7318 0.34639 0.67502 0.0
C692 C 0.70311 0.29851 0.66969 0.0
C693 C 0.70957 0.26452 0.67991 0.0
C694 C 0.79495 0.40935 0.69826 0.0
C695 C 0.66712 0.28321 0.65258 0.0
C696 C 0.71004 0.44368 0.65684 0.0
C697 C 0.74179 0.46292 0.64026 0.0
C698 C 0.70409 0.40381 0.66747 0.0
C699 C 0.73179 0.38378 0.66184 0.0
C700 C 0.76285 0.40238 0.64456 0.0
C701 C 0.7677 0.44201 0.63406 0.0
C702 C 0.66952 0.38438 0.68522 0.0
C703 C 0.79252 0.38177 0.63774 0.0
H704 H 0.79555 0.3336 0.71411 0.0
H705 H 0.68926 0.22807 0.67519 0.0
H706 H 0.81958 0.42907 0.68535 0.0
H707 H 0.77346 0.42599 0.70125 0.0
H708 H 0.81549 0.41275 0.71262 0.0
H709 H 0.64271 0.24474 0.6527 0.0
H710 H 0.64653 0.30119 0.65419 0.0
H711 H 0.68522 0.29295 0.63723 0.0
H712 H 0.69035 0.46034 0.66166 0.0
H713 H 0.79303 0.45774 0.62149 0.0
H714 H 0.68877 0.39089 0.70019 0.0
H715 H 0.6467 0.34599 0.68335 0.0
H716 H 0.64716 0.40067 0.68613 0.0
H717 H 0.8176 0.38649 0.65039 0.0
H718 H 0.8125 0.39837 0.62318 0.0
H719 H 0.77022 0.34358 0.63496 0.0
C720 C 0.32039 0.76883 0.96504 0.0
C721 C 0.27368 0.74283 0.97139 0.0
C722 C 0.35515 0.76362 0.97527 0.0
C723 C 0.34276 0.73223 0.99244 0.0
C724 C 0.29509 0.7043 0.9981 0.0
C725 C 0.26122 0.7106 0.98776 0.0
C726 C 0.40534 0.7933 0.96832 0.0
C727 C 0.27988 0.66956 0.01579 0.0
C728 C 0.43799 0.70845 0.01143 0.0
C729 C 0.45854 0.7417 0.02738 0.0
C730 C 0.39857 0.70302 0.00066 0.0
C731 C 0.38014 0.73247 0.00562 0.0
C732 C 0.40009 0.76517 0.02227 0.0
C733 C 0.43949 0.76977 0.0328 0.0
C734 C 0.37805 0.66716 0.98343 0.0
C735 C 0.38099 0.79657 0.02843 0.0
H736 H 0.32994 0.79452 0.95262 0.0
H737 H 0.22495 0.69088 0.99271 0.0
H738 H 0.42571 0.81901 0.98079 0.0
H739 H 0.42133 0.77105 0.96581 0.0
H740 H 0.40851 0.81269 0.95359 0.0
H741 H 0.29866 0.64961 0.01518 0.0
H742 H 0.28837 0.68892 0.03082 0.0
H743 H 0.24164 0.64437 0.01545 0.0
H744 H 0.45332 0.6872 0.00715 0.0
H745 H 0.45638 0.79639 0.04479 0.0
H746 H 0.3858 0.68549 0.96814 0.0
H747 H 0.33955 0.64596 0.98518 0.0
H748 H 0.39259 0.6432 0.98328 0.0
H749 H 0.38591 0.82078 0.01532 0.0
H750 H 0.39841 0.81769 0.04264 0.0
H751 H 0.34289 0.77527 0.03154 0.0
C752 C 0.55409 0.31885 0.29779 0.0
C753 C 0.53369 0.27223 0.30437 0.0
C754 C 0.59416 0.35417 0.30782 0.0
C755 C 0.61364 0.3424 0.32498 0.0
C756 C 0.59418 0.2948 0.33087 0.0
C757 C 0.55389 0.26041 0.32075 0.0
C758 C 0.61425 0.40426 0.30067 0.0
C759 C 0.61413 0.28017 0.34855 0.0
C760 C 0.7336 0.43804 0.34303 0.0
C761 C 0.72182 0.45876 0.35924 0.0
C762 C 0.69901 0.39859 0.33244 0.0
C763 C 0.6514 0.38028 0.33781 0.0
C764 C 0.63956 0.40048 0.35468 0.0
C765 C 0.67498 0.43987 0.36506 0.0
C766 C 0.71343 0.37774 0.31501 0.0
C767 C 0.58938 0.38159 0.36125 0.0
H768 H 0.53762 0.32791 0.28536 0.0
H769 H 0.53757 0.22422 0.3259 0.0
H770 H 0.60936 0.42488 0.31316 0.0
H771 H 0.65238 0.42042 0.29785 0.0
H772 H 0.59744 0.40698 0.28605 0.0
H773 H 0.65286 0.29936 0.34783 0.0
H774 H 0.60327 0.28867 0.36359 0.0
H775 H 0.6014 0.24193 0.34831 0.0
H776 H 0.76996 0.45323 0.33844 0.0
H777 H 0.66595 0.45686 0.37727 0.0
H778 H 0.70212 0.38517 0.29984 0.0
H779 H 0.69617 0.33919 0.31692 0.0
H780 H 0.75189 0.39234 0.31447 0.0
H781 H 0.56964 0.38621 0.34828 0.0
H782 H 0.58638 0.39944 0.37546 0.0
H783 H 0.57256 0.34349 0.36454 0.0
C784 C 0.24791 0.56703 0.6353 0.0
C785 C 0.27373 0.54617 0.6417 0.0
C786 C 0.25241 0.60658 0.64575 0.0
C787 C 0.28291 0.62507 0.66321 0.0
C788 C 0.31036 0.60496 0.66912 0.0
C789 C 0.30489 0.56526 0.65849 0.0
C790 C 0.22304 0.62731 0.63862 0.0
C791 C 0.34422 0.62416 0.68713 0.0
C792 C 0.30556 0.74479 0.68072 0.0
C793 C 0.27206 0.73265 0.69648 0.0
C794 C 0.31201 0.7105 0.6708 0.0
C795 C 0.28282 0.66272 0.67616 0.0
C796 C 0.25001 0.6506 0.69271 0.0
C797 C 0.24488 0.68581 0.70262 0.0
C798 C 0.34845 0.72543 0.6539 0.0
C799 C 0.21869 0.60026 0.69923 0.0
H800 H 0.22296 0.55137 0.6226 0.0
H801 H 0.32447 0.54861 0.66349 0.0
H802 H 0.19772 0.6228 0.65112 0.0
H803 H 0.24556 0.66547 0.6358 0.0
H804 H 0.20337 0.61067 0.62401 0.0
H805 H 0.36721 0.66255 0.68534 0.0
H806 H 0.3244 0.6176 0.70195 0.0
H807 H 0.36645 0.60776 0.68831 0.0
H808 H 0.32625 0.78118 0.67594 0.0
H809 H 0.21829 0.67654 0.71457 0.0
H810 H 0.3308 0.71689 0.63845 0.0
H811 H 0.36799 0.70635 0.65542 0.0
H812 H 0.37376 0.76369 0.65437 0.0
H813 H 0.19791 0.59719 0.71347 0.0
H814 H 0.2398 0.58332 0.70244 0.0
H815 H 0.19425 0.58062 0.68626 0.0
C816 C 0.35726 0.17863 0.11785 0.0
C817 C 0.39892 0.22163 0.1157 0.0
C818 C 0.33961 0.16023 0.13791 0.0
C819 C 0.36473 0.18522 0.15599 0.0
C820 C 0.40404 0.23077 0.15373 0.0
C821 C 0.42029 0.24842 0.13366 0.0
C822 C 0.29632 0.1126 0.13955 0.0
C823 C 0.43206 0.25918 0.17246 0.0
C824 C 0.34476 0.16781 0.21412 0.0
C825 C 0.3767 0.15289 0.21884 0.0
C826 C 0.33426 0.17203 0.1931 0.0
C827 C 0.35691 0.16182 0.17677 0.0
C828 C 0.38333 0.14 0.18168 0.0
C829 C 0.39274 0.13567 0.2027 0.0
C830 C 0.30347 0.19259 0.18845 0.0
C831 C 0.40741 0.12749 0.16485 0.0
H832 H 0.3402 0.15795 0.10401 0.0
H833 H 0.45183 0.28228 0.13206 0.0
H834 H 0.30635 0.08516 0.13864 0.0
H835 H 0.27758 0.10824 0.15458 0.0
H836 H 0.27206 0.10673 0.12633 0.0
H837 H 0.45987 0.29506 0.16801 0.0
H838 H 0.40892 0.26229 0.18414 0.0
H839 H 0.44892 0.24127 0.18022 0.0
H840 H 0.3318 0.18066 0.22659 0.0
H841 H 0.41666 0.12314 0.20641 0.0
H842 H 0.28375 0.17821 0.17364 0.0
H843 H 0.32548 0.23113 0.18665 0.0
H844 H 0.27835 0.18555 0.20144 0.0
H845 H 0.38286 0.10818 0.1519 0.0
H846 H 0.42165 0.10565 0.17105 0.0
H847 H 0.43681 0.16009 0.15818 0.0
C848 C 0.1669 0.41642 0.46603 0.0
C849 C 0.17885 0.39756 0.44902 0.0
C850 C 0.16948 0.40336 0.48663 0.0
C851 C 0.18393 0.37012 0.49031 0.0
C852 C 0.18969 0.34623 0.47308 0.0
C853 C 0.18743 0.36054 0.45249 0.0
C854 C 0.16233 0.42954 0.5044 0.0
C855 C 0.20261 0.30882 0.47632 0.0
C856 C 0.26557 0.41566 0.53614 0.0
C857 C 0.23434 0.3956 0.55294 0.0
C858 C 0.25064 0.4035 0.5154 0.0
C859 C 0.20331 0.36977 0.51135 0.0
C860 C 0.1734 0.34463 0.5283 0.0
C861 C 0.18917 0.35815 0.54904 0.0
C862 C 0.2842 0.43107 0.49792 0.0
C863 C 0.12351 0.30662 0.52465 0.0
H864 H 0.15917 0.44433 0.4633 0.0
H865 H 0.19619 0.34548 0.43935 0.0
H866 H 0.13892 0.40475 0.5165 0.0
H867 H 0.19645 0.45325 0.51199 0.0
H868 H 0.14705 0.451 0.49892 0.0
H869 H 0.19037 0.28372 0.46299 0.0
H870 H 0.24121 0.32536 0.47721 0.0
H871 H 0.18758 0.28923 0.49112 0.0
H872 H 0.30094 0.4438 0.53914 0.0
H873 H 0.16499 0.34199 0.56198 0.0
H874 H 0.27332 0.45467 0.49058 0.0
H875 H 0.28371 0.40719 0.48556 0.0
H876 H 0.3207 0.45282 0.50363 0.0
H877 H 0.10076 0.32243 0.52393 0.0
H878 H 0.11078 0.2808 0.5377 0.0
H879 H 0.1198 0.28797 0.50965 0.0
C880 C 0.8422 0.18023 0.88196 0.0
C881 C 0.85152 0.22617 0.88536 0.0
C882 C 0.83864 0.16306 0.8614 0.0
C883 C 0.8436 0.19233 0.84414 0.0
C884 C 0.85913 0.24036 0.84766 0.0
C885 C 0.86331 0.25671 0.86823 0.0
C886 C 0.82496 0.11244 0.85831 0.0
C887 C 0.86548 0.27329 0.82982 0.0
C888 C 0.83224 0.17256 0.78554 0.0
C889 C 0.78691 0.16504 0.78258 0.0
C890 C 0.85003 0.17559 0.80593 0.0
C891 C 0.82202 0.1719 0.82348 0.0
C892 C 0.77445 0.15849 0.82042 0.0
C893 C 0.75746 0.1548 0.80001 0.0
C894 C 0.90004 0.18711 0.80852 0.0
C895 C 0.74284 0.15365 0.83858 0.0
H896 H 0.8337 0.15657 0.89516 0.0
H897 H 0.87175 0.29263 0.87084 0.0
H898 H 0.78628 0.09052 0.85802 0.0
H899 H 0.8387 0.10725 0.84326 0.0
H900 H 0.83802 0.09986 0.8714 0.0
H901 H 0.88168 0.31032 0.83509 0.0
H902 H 0.88773 0.27116 0.81736 0.0
H903 H 0.83093 0.26304 0.82275 0.0
H904 H 0.85504 0.17984 0.77212 0.0
H905 H 0.72194 0.14769 0.79776 0.0
H906 H 0.90525 0.17334 0.82355 0.0
H907 H 0.92334 0.22571 0.80843 0.0
H908 H 0.91081 0.1725 0.79535 0.0
H909 H 0.74391 0.13032 0.8508 0.0
H910 H 0.70592 0.13932 0.83361 0.0
H911 H 0.7551 0.18851 0.84585 0.0
C912 C 0.65196 0.83023 0.11862 0.0
C913 C 0.61023 0.78737 0.11631 0.0
C914 C 0.66947 0.84814 0.13875 0.0
C915 C 0.64413 0.82279 0.15673 0.0
C916 C 0.60477 0.77734 0.1543 0.0
C917 C 0.58866 0.76018 0.13415 0.0
C918 C 0.71283 0.89567 0.14059 0.0
C919 C 0.57653 0.74857 0.17291 0.0
C920 C 0.66345 0.83934 0.21494 0.0
C921 C 0.63157 0.85435 0.21966 0.0
C922 C 0.67411 0.83532 0.19392 0.0
C923 C 0.65169 0.84582 0.17759 0.0
C924 C 0.62527 0.86764 0.18253 0.0
C925 C 0.61569 0.87176 0.20354 0.0
C926 C 0.70487 0.81473 0.18925 0.0
C927 C 0.60141 0.88044 0.1657 0.0
H928 H 0.66917 0.85121 0.10488 0.0
H929 H 0.55707 0.72642 0.13242 0.0
H930 H 0.70292 0.9232 0.13986 0.0
H931 H 0.73144 0.89958 0.15561 0.0
H932 H 0.73716 0.9018 0.12736 0.0
H933 H 0.54875 0.71279 0.16833 0.0
H934 H 0.59954 0.74519 0.18458 0.0
H935 H 0.55963 0.76635 0.18075 0.0
H936 H 0.67628 0.82634 0.22739 0.0
H937 H 0.59183 0.88435 0.20726 0.0
H938 H 0.72467 0.82918 0.17446 0.0
H939 H 0.68282 0.7762 0.1874 0.0
H940 H 0.7299 0.82164 0.20226 0.0
H941 H 0.62613 0.89996 0.15283 0.0
H942 H 0.58709 0.90217 0.17195 0.0
H943 H 0.5721 0.84795 0.15891 0.0
C944 C 0.82842 0.65058 0.54758 0.0
C945 C 0.78291 0.61379 0.55151 0.0
C946 C 0.84424 0.66396 0.52683 0.0
C947 C 0.81397 0.63936 0.5099 0.0
C948 C 0.76643 0.60636 0.514 0.0
C949 C 0.7515 0.5943 0.53475 0.0
C950 C 0.89445 0.70115 0.52315 0.0
C951 C 0.7325 0.5794 0.49654 0.0
C952 C 0.82884 0.64893 0.45104 0.0
C953 C 0.83608 0.6111 0.44733 0.0
C954 C 0.82755 0.66338 0.47171 0.0
C955 C 0.83291 0.63884 0.48877 0.0
C956 C 0.84619 0.60481 0.48482 0.0
C957 C 0.84782 0.59159 0.46415 0.0
C958 C 0.81591 0.70162 0.47524 0.0
C959 C 0.85296 0.578 0.50242 0.0
H960 H 0.85275 0.66625 0.56049 0.0
H961 H 0.71591 0.56666 0.53778 0.0
H962 H 0.9165 0.68455 0.52251 0.0
H963 H 0.89864 0.71984 0.50811 0.0
H964 H 0.90762 0.72705 0.53616 0.0
H965 H 0.69596 0.55822 0.5023 0.0
H966 H 0.73346 0.60364 0.48425 0.0
H967 H 0.74263 0.55533 0.48909 0.0
H968 H 0.82028 0.66451 0.43804 0.0
H969 H 0.85453 0.56305 0.46123 0.0
H970 H 0.83199 0.7212 0.48992 0.0
H971 H 0.77744 0.68586 0.47656 0.0
H972 H 0.82795 0.72659 0.46186 0.0
H973 H 0.87679 0.6024 0.51452 0.0
H974 H 0.86757 0.55608 0.49675 0.0
H975 H 0.81881 0.55466 0.51007 0.0
C976 C 0.17061 0.83109 0.88088 0.0
C977 C 0.16236 0.78546 0.88412 0.0
C978 C 0.17465 0.84876 0.86039 0.0
C979 C 0.17128 0.82034 0.84303 0.0
C980 C 0.15707 0.77252 0.84633 0.0
C981 C 0.15232 0.75565 0.86683 0.0
C982 C 0.18695 0.89906 0.85752 0.0
C983 C 0.15258 0.74049 0.82839 0.0
C984 C 0.18242 0.84004 0.78451 0.0
C985 C 0.22816 0.84866 0.78162 0.0
C986 C 0.16446 0.83689 0.80487 0.0
C987 C 0.19275 0.84159 0.82245 0.0
C988 C 0.24068 0.85644 0.81943 0.0
C989 C 0.25781 0.86017 0.79904 0.0
C990 C 0.11403 0.82393 0.80744 0.0
C991 C 0.27259 0.86255 0.83763 0.0
H992 H 0.17776 0.85419 0.89419 0.0
H993 H 0.14469 0.71993 0.8693 0.0
H994 H 0.22551 0.92201 0.85802 0.0
H995 H 0.17426 0.90445 0.84224 0.0
H996 H 0.17191 0.91021 0.87036 0.0
H997 H 0.13755 0.70347 0.83349 0.0
H998 H 0.13009 0.74185 0.81584 0.0
H999 H 0.1876 0.75223 0.82149 0.0
H1000 H 0.15945 0.83178 0.77108 0.0
H1001 H 0.29361 0.86811 0.79681 0.0
H1002 H 0.10853 0.83824 0.82225 0.0
H1003 H 0.09171 0.78521 0.80788 0.0
H1004 H 0.10228 0.837 0.79403 0.0
H1005 H 0.27032 0.88524 0.84985 0.0
H1006 H 0.30971 0.87824 0.8327 0.0
H1007 H 0.26158 0.82792 0.84489 0.0
C1008 C 0.54941 0.61218 0.04322 0.0
C1009 C 0.52171 0.62117 0.05703 0.0
C1010 C 0.54205 0.56635 0.04078 0.0
C1011 C 0.50634 0.52878 0.05247 0.0
C1012 C 0.47775 0.53758 0.06603 0.0
C1013 C 0.48574 0.58329 0.06812 0.0
C1014 C 0.57314 0.55827 0.0261 0.0
C1015 C 0.43962 0.49891 0.079 0.0
C1016 C 0.46179 0.39884 0.04195 0.0
C1017 C 0.4863 0.38889 0.05717 0.0
C1018 C 0.46933 0.44473 0.03951 0.0
C1019 C 0.50188 0.48135 0.05266 0.0
C1020 C 0.52703 0.47152 0.0678 0.0
C1021 C 0.51897 0.42577 0.06985 0.0
C1022 C 0.44194 0.45393 0.02313 0.0
C1023 C 0.56159 0.5091 0.08238 0.0
H1024 H 0.57691 0.64086 0.0344 0.0
H1025 H 0.46369 0.58921 0.0788 0.0
H1026 H 0.59553 0.54851 0.03528 0.0
H1027 H 0.55165 0.52868 0.01536 0.0
H1028 H 0.59607 0.58987 0.01661 0.0
H1029 H 0.41824 0.51085 0.08763 0.0
H1030 H 0.41607 0.46895 0.06885 0.0
H1031 H 0.45544 0.48579 0.09058 0.0
H1032 H 0.4369 0.37093 0.03191 0.0
H1033 H 0.53835 0.41897 0.0817 0.0
H1034 H 0.46597 0.48403 0.01314 0.0
H1035 H 0.4178 0.46348 0.0309 0.0
H1036 H 0.42109 0.42294 0.01296 0.0
H1037 H 0.58766 0.53977 0.07325 0.0
H1038 H 0.58052 0.49643 0.09239 0.0
H1039 H 0.54296 0.52144 0.09275 0.0
C1040 C 0.90303 0.47746 0.39331 0.0
C1041 C 0.90565 0.51915 0.38616 0.0
C1042 C 0.9408 0.46966 0.39144 0.0
C1043 C 0.98293 0.50442 0.38227 0.0
C1044 C 0.98555 0.54582 0.37418 0.0
C1045 C 0.94681 0.55272 0.37619 0.0
C1046 C 0.93624 0.42505 0.40038 0.0
C1047 C 0.02989 0.58362 0.3642 0.0
C1048 C 0.09071 0.50745 0.40461 0.0
C1049 C 0.10109 0.48301 0.38946 0.0
C1050 C 0.0534 0.51578 0.40205 0.0
C1051 C 0.02541 0.49952 0.3838 0.0
C1052 C 0.03563 0.47498 0.36832 0.0
C1053 C 0.07324 0.46674 0.37138 0.0
C1054 C 0.04337 0.54123 0.4192 0.0
C1055 C 0.00669 0.45731 0.3486 0.0
H1056 H 0.87153 0.45078 0.40089 0.0
H1057 H 0.94924 0.58483 0.37046 0.0
H1058 H 0.9478 0.40794 0.38874 0.0
H1059 H 0.95915 0.43351 0.41434 0.0
H1060 H 0.89979 0.39958 0.40515 0.0
H1061 H 0.02464 0.61074 0.35636 0.0
H1062 H 0.05728 0.60091 0.37638 0.0
H1063 H 0.04319 0.56818 0.3525 0.0
H1064 H 0.11182 0.52006 0.4187 0.0
H1065 H 0.08138 0.44843 0.35948 0.0
H1066 H 0.00845 0.51764 0.42611 0.0
H1067 H 0.04259 0.57198 0.41261 0.0
H1068 H 0.0698 0.55352 0.43196 0.0
H1069 H 0.97022 0.4306 0.35266 0.0
H1070 H 0.02079 0.44145 0.3375 0.0
H1071 H 0.00532 0.48648 0.34058 0.0
C1072 C 0.60938 0.04951 0.73045 0.0
C1073 C 0.62929 0.08916 0.71756 0.0
C1074 C 0.56192 0.0152 0.72842 0.0
C1075 C 0.53371 0.0213 0.71339 0.0
C1076 C 0.55442 0.0604 0.69971 0.0
C1077 C 0.60204 0.09392 0.70199 0.0
C1078 C 0.54139 0.97379 0.74317 0.0
C1079 C 0.52574 0.06839 0.68356 0.0
C1080 C 0.41512 0.91383 0.70269 0.0
C1081 C 0.38646 0.92044 0.71682 0.0
C1082 C 0.46276 0.94737 0.70064 0.0
C1083 C 0.4821 0.98846 0.71308 0.0
C1084 C 0.45247 0.99643 0.7265 0.0
C1085 C 0.40495 0.96206 0.72833 0.0
C1086 C 0.49292 0.93739 0.68618 0.0
C1087 C 0.47155 0.03996 0.73989 0.0
H1088 H 0.63033 0.04658 0.7428 0.0
H1089 H 0.6174 0.12528 0.69237 0.0
H1090 H 0.51639 0.97626 0.75399 0.0
H1091 H 0.52162 0.94063 0.73424 0.0
H1092 H 0.56866 0.97203 0.75267 0.0
H1093 H 0.5479 0.0977 0.67276 0.0
H1094 H 0.50463 0.03618 0.67417 0.0
H1095 H 0.50099 0.07672 0.6916 0.0
H1096 H 0.40074 0.88117 0.69404 0.0
H1097 H 0.38288 0.96656 0.73958 0.0
H1098 H 0.5171 0.93058 0.69563 0.0
H1099 H 0.51467 0.96819 0.67608 0.0
H1100 H 0.47179 0.90646 0.676 0.0
H1101 H 0.49539 0.03923 0.75195 0.0
H1102 H 0.44335 0.04299 0.74795 0.0
H1103 H 0.49224 0.07173 0.73017 0.0
C1104 C 0.61023 0.55853 0.60441 0.0
C1105 C 0.62832 0.53677 0.61708 0.0
C1106 C 0.5633 0.54719 0.60637 0.0
C1107 C 0.53385 0.51286 0.62118 0.0
C1108 C 0.55279 0.49238 0.63463 0.0
C1109 C 0.59985 0.50453 0.63236 0.0
C1110 C 0.5446 0.5701 0.59182 0.0
C1111 C 0.52277 0.45575 0.6506 0.0
C1112 C 0.41852 0.50792 0.63262 0.0
C1113 C 0.38834 0.47329 0.61856 0.0
C1114 C 0.46558 0.51982 0.63436 0.0
C1115 C 0.48278 0.49656 0.62164 0.0
C1116 C 0.45161 0.4597 0.60823 0.0
C1117 C 0.40467 0.44864 0.60677 0.0
C1118 C 0.49744 0.55913 0.64889 0.0
C1119 C 0.46845 0.43381 0.5945 0.0
H1120 H 0.63213 0.58264 0.59229 0.0
H1121 H 0.61386 0.48714 0.64188 0.0
H1122 H 0.51852 0.54343 0.58101 0.0
H1123 H 0.52648 0.58501 0.60092 0.0
H1124 H 0.57269 0.59848 0.5823 0.0
H1125 H 0.54372 0.44646 0.66112 0.0
H1126 H 0.50335 0.46829 0.66031 0.0
H1127 H 0.49648 0.42352 0.64241 0.0
H1128 H 0.40578 0.52724 0.64156 0.0
H1129 H 0.38141 0.42253 0.5956 0.0
H1130 H 0.52287 0.58969 0.6395 0.0
H1131 H 0.5178 0.54821 0.65888 0.0
H1132 H 0.47777 0.57048 0.65917 0.0
H1133 H 0.49301 0.45808 0.58252 0.0
H1134 H 0.43918 0.40357 0.58633 0.0
H1135 H 0.48781 0.42086 0.604 0.0
C1136 C 0.09268 0.60166 0.96584 0.0
C1137 C 0.08669 0.62832 0.95033 0.0
C1138 C 0.06046 0.55357 0.96816 0.0
C1139 C 0.0212 0.53171 0.95466 0.0
C1140 C 0.01367 0.5593 0.93978 0.0
C1141 C 0.04684 0.60724 0.93763 0.0
C1142 C 0.07014 0.52563 0.98411 0.0
C1143 C 0.97197 0.53764 0.92526 0.0
C1144 C 0.96505 0.40285 0.93951 0.0
C1145 C 0.92392 0.38299 0.95137 0.0
C1146 C 0.99838 0.45084 0.94132 0.0
C1147 C 0.98974 0.47966 0.95501 0.0
C1148 C 0.94922 0.45901 0.96779 0.0
C1149 C 0.91687 0.41088 0.96584 0.0
C1150 C 0.04142 0.47122 0.92762 0.0
C1151 C 0.93838 0.48824 0.98248 0.0
H1152 H 0.12418 0.61787 0.97532 0.0
H1153 H 0.04292 0.62766 0.92529 0.0
H1154 H 0.03847 0.50357 0.99365 0.0
H1155 H 0.07937 0.5017 0.97587 0.0
H1156 H 0.09936 0.54848 0.99479 0.0
H1157 H 0.96879 0.56445 0.91599 0.0
H1158 H 0.97524 0.5134 0.91422 0.0
H1159 H 0.93928 0.51673 0.93435 0.0
H1160 H 0.96989 0.38146 0.92797 0.0
H1161 H 0.88454 0.39554 0.97473 0.0
H1162 H 0.07324 0.49297 0.93712 0.0
H1163 H 0.03924 0.49441 0.9156 0.0
H1164 H 0.04541 0.44361 0.91949 0.0
H1165 H 0.96921 0.51089 0.99236 0.0
H1166 H 0.90816 0.46629 0.99286 0.0
H1167 H 0.93011 0.51164 0.97319 0.0
C1168 C 0.51422 0.9178 0.30149 0.0
C1169 C 0.54768 0.92463 0.28627 0.0
C1170 C 0.49798 0.94968 0.30374 0.0
C1171 C 0.5157 0.98934 0.29042 0.0
C1172 C 0.5517 0.9978 0.2759 0.0
C1173 C 0.56693 0.96502 0.27386 0.0
C1174 C 0.45953 0.9391 0.31933 0.0
C1175 C 0.57203 0.03991 0.26156 0.0
C1176 C 0.44209 0.0433 0.27398 0.0
C1177 C 0.46221 0.08453 0.28583 0.0
C1178 C 0.45736 0.01059 0.27623 0.0
C1179 C 0.49426 0.01996 0.29036 0.0
C1180 C 0.51287 0.06052 0.30314 0.0
C1181 C 0.49657 0.0923 0.30071 0.0
C1182 C 0.43608 0.96751 0.26248 0.0
C1183 C 0.55226 0.07207 0.31832 0.0
H1184 H 0.49855 0.88586 0.31073 0.0
H1185 H 0.59189 0.96958 0.26172 0.0
H1186 H 0.46807 0.97066 0.32878 0.0
H1187 H 0.42655 0.92899 0.31078 0.0
H1188 H 0.45338 0.91007 0.33011 0.0
H1189 H 0.60278 0.04393 0.25269 0.0
H1190 H 0.54503 0.03631 0.25017 0.0
H1191 H 0.58276 0.07236 0.27072 0.0
H1192 H 0.41637 0.03796 0.26211 0.0
H1193 H 0.51278 0.12479 0.30955 0.0
H1194 H 0.42595 0.9357 0.27204 0.0
H1195 H 0.4623 0.97029 0.25082 0.0
H1196 H 0.40476 0.96292 0.25392 0.0
H1197 H 0.54422 0.04117 0.32817 0.0
H1198 H 0.5592 0.1019 0.32873 0.0
H1199 H 0.58466 0.08141 0.30942 0.0
loop_
_geom_bond_atom_site_label_1
_geom_bond_atom_site_label_2
_geom_bond_distance
_geom_bond_site_symmetry_2
_ccdc_geom_bond_type
Mn0 O5 2.095 . S
Mn0 O15 2.162 . S
Mn0 O16 2.297 . S
Mn0 O24 2.385 . S
Mn0 O25 2.209 . S
Mn0 O26 2.094 . S
Mn1 O6 2.121 . S
Mn1 N8 2.257 . S
Mn1 N17 2.282 . S
Mn1 O25 2.215 . S
Mn1 O27 2.117 . S
C2 O24 1.234 . S
C2 O25 1.283 . S
C3 O15 1.281 . S
C3 O16 1.236 . S
C4 O26 1.240 . S
C4 O27 1.264 . S
O5 Mn0 2.095 . S
O5 C14 1.250 . S
O6 Mn1 2.121 . S
O6 C14 1.258 . S
C7 N8 1.326 . S
C7 C11 1.460 . S
C7 H13 0.929 . S
N8 Mn1 2.257 . S
N8 C7 1.326 . S
N8 C12 1.362 . S
C9 C10 1.258 . S
C9 C12 1.431 . S
C9 C29 1.449 . S
C10 C9 1.258 . S
C10 C11 1.477 . S
C10 H30 0.931 . S
C11 C7 1.460 . S
C11 C10 1.477 . S
C11 H31 0.930 . S
C12 N8 1.362 . S
C12 C9 1.431 . S
C12 C22 1.476 . S
H13 C7 0.929 . S
C14 O5 1.250 . S
C14 O6 1.258 . S
O15 Mn0 2.162 . S
O15 C3 1.281 . S
O16 Mn0 2.297 . S
O16 C3 1.236 . S
N17 Mn1 2.282 . S
N17 C18 1.328 . S
N17 C22 1.318 . S
C18 N17 1.328 . S
C18 C19 1.457 . S
C18 H23 0.929 . S
C19 C18 1.457 . S
C19 C20 1.291 . S
C19 H32 0.931 . S
C20 C19 1.291 . S
C20 C21 1.373 . S
C20 H33 0.929 . S
C21 C20 1.373 . S
C21 C22 1.396 . S
C21 C28 1.403 . S
C22 C12 1.476 . S
C22 N17 1.318 . S
C22 C21 1.396 . S
H23 C18 0.929 . S
O24 Mn0 2.385 . S
O24 C2 1.234 . S
O25 Mn0 2.209 . S
O25 Mn1 2.215 . S
O25 C2 1.283 . S
O26 Mn0 2.094 . S
O26 C4 1.240 . S
O27 Mn1 2.117 . S
O27 C4 1.264 . S
C28 C21 1.403 . S
C28 C29 1.399 . S
C28 H34 0.929 . S
C29 C9 1.449 . S
C29 C28 1.399 . S
C29 H35 0.930 . S
H30 C10 0.931 . S
H31 C11 0.930 . S
H32 C19 0.931 . S
H33 C20 0.929 . S
H34 C28 0.929 . S
H35 C29 0.930 . S
Mn36 O41 2.095 . S
Mn36 O51 2.162 . S
Mn36 O52 2.297 . S
Mn36 O60 2.385 . S
Mn36 O61 2.209 . S
Mn36 O62 2.094 . S
Mn37 O42 2.121 . S
Mn37 N44 2.257 . S
Mn37 N53 2.282 . S
Mn37 O61 2.215 . S
Mn37 O63 2.117 . S
C38 O60 1.234 . S
C38 O61 1.283 . S
C39 O51 1.281 . S
C39 O52 1.236 . S
C40 O62 1.240 . S
C40 O63 1.264 . S
O41 Mn36 2.095 . S
O41 C50 1.250 . S
O42 Mn37 2.121 . S
O42 C50 1.258 . S
C43 N44 1.326 . S
C43 C47 1.460 . S
C43 H49 0.929 . S
N44 Mn37 2.257 . S
N44 C43 1.326 . S
N44 C48 1.362 . S
C45 C46 1.258 . S
C45 C48 1.431 . S
C45 C65 1.449 . S
C46 C45 1.258 . S
C46 C47 1.477 . S
C46 H66 0.931 . S
C47 C43 1.460 . S
C47 C46 1.477 . S
C47 H67 0.930 . S
C48 N44 1.362 . S
C48 C45 1.431 . S
C48 C58 1.476 . S
H49 C43 0.929 . S
C50 O41 1.250 . S
C50 O42 1.258 . S
O51 Mn36 2.162 . S
O51 C39 1.281 . S
O52 Mn36 2.297 . S
O52 C39 1.236 . S
N53 Mn37 2.282 . S
N53 C54 1.328 . S
N53 C58 1.318 . S
C54 N53 1.328 . S
C54 C55 1.457 . S
C54 H59 0.929 . S
C55 C54 1.457 . S
C55 C56 1.291 . S
C55 H68 0.931 . S
C56 C55 1.291 . S
C56 C57 1.373 . S
C56 H69 0.929 . S
C57 C56 1.373 . S
C57 C58 1.396 . S
C57 C64 1.403 . S
C58 C48 1.476 . S
C58 N53 1.318 . S
C58 C57 1.396 . S
H59 C54 0.929 . S
O60 Mn36 2.385 . S
O60 C38 1.234 . S
O61 Mn36 2.209 . S
O61 Mn37 2.215 . S
O61 C38 1.283 . S
O62 Mn36 2.094 . S
O62 C40 1.240 . S
O63 Mn37 2.117 . S
O63 C40 1.264 . S
C64 C57 1.403 . S
C64 C65 1.399 . S
C64 H70 0.929 . S
C65 C45 1.449 . S
C65 C64 1.399 . S
C65 H71 0.930 . S
H66 C46 0.931 . S
H67 C47 0.930 . S
H68 C55 0.931 . S
H69 C56 0.929 . S
H70 C64 0.929 . S
H71 C65 0.930 . S
Mn72 O77 2.095 . S
Mn72 O87 2.162 . S
Mn72 O88 2.297 . S
Mn72 O96 2.385 . S
Mn72 O97 2.209 . S
Mn72 O98 2.094 . S
Mn73 O78 2.121 . S
Mn73 N80 2.257 . S
Mn73 N89 2.282 . S
Mn73 O97 2.215 . S
Mn73 O99 2.117 . S
C74 O96 1.234 . S
C74 O97 1.283 . S
C75 O87 1.281 . S
C75 O88 1.236 . S
C76 O98 1.240 . S
C76 O99 1.264 . S
O77 Mn72 2.095 . S
O77 C86 1.250 . S
O78 Mn73 2.121 . S
O78 C86 1.258 . S
C79 N80 1.326 . S
C79 C83 1.460 . S
C79 H85 0.929 . S
N80 Mn73 2.257 . S
N80 C79 1.326 . S
N80 C84 1.362 . S
C81 C82 1.258 . S
C81 C84 1.431 . S
C81 C101 1.449 . S
C82 C81 1.258 . S
C82 C83 1.477 . S
C82 H102 0.931 . S
C83 C79 1.460 . S
C83 C82 1.477 . S
C83 H103 0.930 . S
C84 N80 1.362 . S
C84 C81 1.431 . S
C84 C94 1.476 . S
H85 C79 0.929 . S
C86 O77 1.250 . S
C86 O78 1.258 . S
O87 Mn72 2.162 . S
O87 C75 1.281 . S
O88 Mn72 2.297 . S
O88 C75 1.236 . S
N89 Mn73 2.282 . S
N89 C90 1.328 . S
N89 C94 1.318 . S
C90 N89 1.328 . S
C90 C91 1.457 . S
C90 H95 0.929 . S
C91 C90 1.457 . S
C91 C92 1.291 . S
C91 H104 0.931 . S
C92 C91 1.291 . S
C92 C93 1.373 . S
C92 H105 0.929 . S
C93 C92 1.373 . S
C93 C94 1.396 . S
C93 C100 1.403 . S
C94 C84 1.476 . S
C94 N89 1.318 . S
C94 C93 1.396 . S
H95 C90 0.929 . S
O96 Mn72 2.385 . S
O96 C74 1.234 . S
O97 Mn72 2.209 . S
O97 Mn73 2.215 . S
O97 C74 1.283 . S
O98 Mn72 2.094 . S
O98 C76 1.240 . S
O99 Mn73 2.117 . S
O99 C76 1.264 . S
C100 C93 1.403 . S
C100 C101 1.399 . S
C100 H106 0.929 . S
C101 C81 1.449 . S
C101 C100 1.399 . S
C101 H107 0.930 . S
H102 C82 0.931 . S
H103 C83 0.930 . S
H104 C91 0.931 . S
H105 C92 0.929 . S
H106 C100 0.929 . S
H107 C101 0.930 . S
Mn108 O113 2.095 . S
Mn108 O123 2.162 . S
Mn108 O124 2.297 . S
Mn108 O132 2.385 . S
Mn108 O133 2.209 . S
Mn108 O134 2.094 . S
Mn109 O114 2.121 . S
Mn109 N116 2.257 . S
Mn109 N125 2.282 . S
Mn109 O133 2.215 . S
Mn109 O135 2.117 . S
C110 O132 1.234 . S
C110 O133 1.283 . S
C111 O123 1.281 . S
C111 O124 1.236 . S
C112 O134 1.240 . S
C112 O135 1.264 . S
O113 Mn108 2.095 . S
O113 C122 1.250 . S
O114 Mn109 2.121 . S
O114 C122 1.258 . S
C115 N116 1.326 . S
C115 C119 1.460 . S
C115 H121 0.929 . S
N116 Mn109 2.257 . S
N116 C115 1.326 . S
N116 C120 1.362 . S
C117 C118 1.258 . S
C117 C120 1.431 . S
C117 C137 1.449 . S
C118 C117 1.258 . S
C118 C119 1.477 . S
C118 H138 0.931 . S
C119 C115 1.460 . S
C119 C118 1.477 . S
C119 H139 0.930 . S
C120 N116 1.362 . S
C120 C117 1.431 . S
C120 C130 1.476 . S
H121 C115 0.929 . S
C122 O113 1.250 . S
C122 O114 1.258 . S
O123 Mn108 2.162 . S
O123 C111 1.281 . S
O124 Mn108 2.297 . S
O124 C111 1.236 . S
N125 Mn109 2.282 . S
N125 C126 1.328 . S
N125 C130 1.318 . S
C126 N125 1.328 . S
C126 C127 1.457 . S
C126 H131 0.929 . S
C127 C126 1.457 . S
C127 C128 1.291 . S
C127 H140 0.931 . S
C128 C127 1.291 . S
C128 C129 1.373 . S
C128 H141 0.929 . S
C129 C128 1.373 . S
C129 C130 1.396 . S
C129 C136 1.403 . S
C130 C120 1.476 . S
C130 N125 1.318 . S
C130 C129 1.396 . S
H131 C126 0.929 . S
O132 Mn108 2.385 . S
O132 C110 1.234 . S
O133 Mn108 2.209 . S
O133 Mn109 2.215 . S
O133 C110 1.283 . S
O134 Mn108 2.094 . S
O134 C112 1.240 . S
O135 Mn109 2.117 . S
O135 C112 1.264 . S
C136 C129 1.403 . S
C136 C137 1.399 . S
C136 H142 0.929 . S
C137 C117 1.449 . S
C137 C136 1.399 . S
C137 H143 0.930 . S
H138 C118 0.931 . S
H139 C119 0.930 . S
H140 C127 0.931 . S
H141 C128 0.929 . S
H142 C136 0.929 . S
H143 C137 0.930 . S
Mn144 O149 2.095 . S
Mn144 O159 2.162 . S
Mn144 O160 2.297 . S
Mn144 O168 2.385 . S
Mn144 O169 2.209 . S
Mn144 O170 2.094 . S
Mn145 O150 2.121 . S
Mn145 N152 2.257 . S
Mn145 N161 2.282 . S
Mn145 O169 2.215 . S
Mn145 O171 2.117 . S
C146 O168 1.234 . S
C146 O169 1.283 . S
C147 O159 1.281 . S
C147 O160 1.236 . S
C148 O170 1.240 . S
C148 O171 1.264 . S
O149 Mn144 2.095 . S
O149 C158 1.250 . S
O150 Mn145 2.121 . S
O150 C158 1.258 . S
C151 N152 1.326 . S
C151 C155 1.460 . S
C151 H157 0.929 . S
N152 Mn145 2.257 . S
N152 C151 1.326 . S
N152 C156 1.362 . S
C153 C154 1.258 . S
C153 C156 1.431 . S
C153 C173 1.449 . S
C154 C153 1.258 . S
C154 C155 1.477 . S
C154 H174 0.931 . S
C155 C151 1.460 . S
C155 C154 1.477 . S
C155 H175 0.930 . S
C156 N152 1.362 . S
C156 C153 1.431 . S
C156 C166 1.476 . S
H157 C151 0.929 . S
C158 O149 1.250 . S
C158 O150 1.258 . S
O159 Mn144 2.162 . S
O159 C147 1.281 . S
O160 Mn144 2.297 . S
O160 C147 1.236 . S
N161 Mn145 2.282 . S
N161 C162 1.328 . S
N161 C166 1.318 . S
C162 N161 1.328 . S
C162 C163 1.457 . S
C162 H167 0.929 . S
C163 C162 1.457 . S
C163 C164 1.291 . S
C163 H176 0.931 . S
C164 C163 1.291 . S
C164 C165 1.373 . S
C164 H177 0.929 . S
C165 C164 1.373 . S
C165 C166 1.396 . S
C165 C172 1.403 . S
C166 C156 1.476 . S
C166 N161 1.318 . S
C166 C165 1.396 . S
H167 C162 0.929 . S
O168 Mn144 2.385 . S
O168 C146 1.234 . S
O169 Mn144 2.209 . S
O169 Mn145 2.215 . S
O169 C146 1.283 . S
O170 Mn144 2.094 . S
O170 C148 1.240 . S
O171 Mn145 2.117 . S
O171 C148 1.264 . S
C172 C165 1.403 . S
C172 C173 1.399 . S
C172 H178 0.929 . S
C173 C153 1.449 . S
C173 C172 1.399 . S
C173 H179 0.930 . S
H174 C154 0.931 . S
H175 C155 0.930 . S
H176 C163 0.931 . S
H177 C164 0.929 . S
H178 C172 0.929 . S
H179 C173 0.930 . S
Mn180 O185 2.095 . S
Mn180 O195 2.162 . S
Mn180 O196 2.297 . S
Mn180 O204 2.385 . S
Mn180 O205 2.209 . S
Mn180 O206 2.094 . S
Mn181 O186 2.121 . S
Mn181 N188 2.257 . S
Mn181 N197 2.282 . S
Mn181 O205 2.215 . S
Mn181 O207 2.117 . S
C182 O204 1.234 . S
C182 O205 1.283 . S
C183 O195 1.281 . S
C183 O196 1.236 . S
C184 O206 1.240 . S
C184 O207 1.264 . S
O185 Mn180 2.095 . S
O185 C194 1.250 . S
O186 Mn181 2.121 . S
O186 C194 1.258 . S
C187 N188 1.326 . S
C187 C191 1.460 . S
C187 H193 0.929 . S
N188 Mn181 2.257 . S
N188 C187 1.326 . S
N188 C192 1.362 . S
C189 C190 1.258 . S
C189 C192 1.431 . S
C189 C209 1.449 . S
C190 C189 1.258 . S
C190 C191 1.477 . S
C190 H210 0.931 . S
C191 C187 1.460 . S
C191 C190 1.477 . S
C191 H211 0.930 . S
C192 N188 1.362 . S
C192 C189 1.431 . S
C192 C202 1.476 . S
H193 C187 0.929 . S
C194 O185 1.250 . S
C194 O186 1.258 . S
O195 Mn180 2.162 . S
O195 C183 1.281 . S
O196 Mn180 2.297 . S
O196 C183 1.236 . S
N197 Mn181 2.282 . S
N197 C198 1.328 . S
N197 C202 1.318 . S
C198 N197 1.328 . S
C198 C199 1.457 . S
C198 H203 0.929 . S
C199 C198 1.457 . S
C199 C200 1.291 . S
C199 H212 0.931 . S
C200 C199 1.291 . S
C200 C201 1.373 . S
C200 H213 0.929 . S
C201 C200 1.373 . S
C201 C202 1.396 . S
C201 C208 1.403 . S
C202 C192 1.476 . S
C202 N197 1.318 . S
C202 C201 1.396 . S
H203 C198 0.929 . S
O204 Mn180 2.385 . S
O204 C182 1.234 . S
O205 Mn180 2.209 . S
O205 Mn181 2.215 . S
O205 C182 1.283 . S
O206 Mn180 2.094 . S
O206 C184 1.240 . S
O207 Mn181 2.117 . S
O207 C184 1.264 . S
C208 C201 1.403 . S
C208 C209 1.399 . S
C208 H214 0.929 . S
C209 C189 1.449 . S
C209 C208 1.399 . S
C209 H215 0.930 . S
H210 C190 0.931 . S
H211 C191 0.930 . S
H212 C199 0.931 . S
H213 C200 0.929 . S
H214 C208 0.929 . S
H215 C209 0.930 . S
Mn216 O221 2.095 . S
Mn216 O231 2.162 . S
Mn216 O232 2.297 . S
Mn216 O240 2.385 . S
Mn216 O241 2.209 . S
Mn216 O242 2.094 . S
Mn217 O222 2.121 . S
Mn217 N224 2.257 . S
Mn217 N233 2.282 . S
Mn217 O241 2.215 . S
Mn217 O243 2.117 . S
C218 O240 1.234 . S
C218 O241 1.283 . S
C219 O231 1.281 . S
C219 O232 1.236 . S
C220 O242 1.240 . S
C220 O243 1.264 . S
O221 Mn216 2.095 . S
O221 C230 1.250 . S
O222 Mn217 2.121 . S
O222 C230 1.258 . S
C223 N224 1.326 . S
C223 C227 1.460 . S
C223 H229 0.929 . S
N224 Mn217 2.257 . S
N224 C223 1.326 . S
N224 C228 1.362 . S
C225 C226 1.258 . S
C225 C228 1.431 . S
C225 C245 1.449 . S
C226 C225 1.258 . S
C226 C227 1.477 . S
C226 H246 0.931 . S
C227 C223 1.460 . S
C227 C226 1.477 . S
C227 H247 0.930 . S
C228 N224 1.362 . S
C228 C225 1.431 . S
C228 C238 1.476 . S
H229 C223 0.929 . S
C230 O221 1.250 . S
C230 O222 1.258 . S
O231 Mn216 2.162 . S
O231 C219 1.281 . S
O232 Mn216 2.297 . S
O232 C219 1.236 . S
N233 Mn217 2.282 . S
N233 C234 1.328 . S
N233 C238 1.318 . S
C234 N233 1.328 . S
C234 C235 1.457 . S
C234 H239 0.929 . S
C235 C234 1.457 . S
C235 C236 1.291 . S
C235 H248 0.931 . S
C236 C235 1.291 . S
C236 C237 1.373 . S
C236 H249 0.929 . S
C237 C236 1.373 . S
C237 C238 1.396 . S
C237 C244 1.403 . S
C238 C228 1.476 . S
C238 N233 1.318 . S
C238 C237 1.396 . S
H239 C234 0.929 . S
O240 Mn216 2.385 . S
O240 C218 1.234 . S
O241 Mn216 2.209 . S
O241 Mn217 2.215 . S
O241 C218 1.283 . S
O242 Mn216 2.094 . S
O242 C220 1.240 . S
O243 Mn217 2.117 . S
O243 C220 1.264 . S
C244 C237 1.403 . S
C244 C245 1.399 . S
C244 H250 0.929 . S
C245 C225 1.449 . S
C245 C244 1.399 . S
C245 H251 0.930 . S
H246 C226 0.931 . S
H247 C227 0.930 . S
H248 C235 0.931 . S
H249 C236 0.929 . S
H250 C244 0.929 . S
H251 C245 0.930 . S
Mn252 O257 2.095 . S
Mn252 O267 2.162 . S
Mn252 O268 2.297 . S
Mn252 O276 2.385 . S
Mn252 O277 2.209 . S
Mn252 O278 2.094 . S
Mn253 O258 2.121 . S
Mn253 N260 2.257 . S
Mn253 N269 2.282 . S
Mn253 O277 2.215 . S
Mn253 O279 2.117 . S
C254 O276 1.234 . S
C254 O277 1.283 . S
C255 O267 1.281 . S
C255 O268 1.236 . S
C256 O278 1.240 . S
C256 O279 1.264 . S
O257 Mn252 2.095 . S
O257 C266 1.250 . S
O258 Mn253 2.121 . S
O258 C266 1.258 . S
C259 N260 1.326 . S
C259 C263 1.460 . S
C259 H265 0.929 . S
N260 Mn253 2.257 . S
N260 C259 1.326 . S
N260 C264 1.362 . S
C261 C262 1.258 . S
C261 C264 1.431 . S
C261 C281 1.449 . S
C262 C261 1.258 . S
C262 C263 1.477 . S
C262 H282 0.931 . S
C263 C259 1.460 . S
C263 C262 1.477 . S
C263 H283 0.930 . S
C264 N260 1.362 . S
C264 C261 1.431 . S
C264 C274 1.476 . S
H265 C259 0.929 . S
C266 O257 1.250 . S
C266 O258 1.258 . S
O267 Mn252 2.162 . S
O267 C255 1.281 . S
O268 Mn252 2.297 . S
O268 C255 1.236 . S
N269 Mn253 2.282 . S
N269 C270 1.328 . S
N269 C274 1.318 . S
C270 N269 1.328 . S
C270 C271 1.457 . S
C270 H275 0.929 . S
C271 C270 1.457 . S
C271 C272 1.291 . S
C271 H284 0.931 . S
C272 C271 1.291 . S
C272 C273 1.373 . S
C272 H285 0.929 . S
C273 C272 1.373 . S
C273 C274 1.396 . S
C273 C280 1.403 . S
C274 C264 1.476 . S
C274 N269 1.318 . S
C274 C273 1.396 . S
H275 C270 0.929 . S
O276 Mn252 2.385 . S
O276 C254 1.234 . S
O277 Mn252 2.209 . S
O277 Mn253 2.215 . S
O277 C254 1.283 . S
O278 Mn252 2.094 . S
O278 C256 1.240 . S
O279 Mn253 2.117 . S
O279 C256 1.264 . S
C280 C273 1.403 . S
C280 C281 1.399 . S
C280 H286 0.929 . S
C281 C261 1.449 . S
C281 C280 1.399 . S
C281 H287 0.930 . S
H282 C262 0.931 . S
H283 C263 0.930 . S
H284 C271 0.931 . S
H285 C272 0.929 . S
H286 C280 0.929 . S
H287 C281 0.930 . S
Mn288 O293 2.095 . S
Mn288 O303 2.162 . S
Mn288 O304 2.297 . S
Mn288 O312 2.385 . S
Mn288 O313 2.209 . S
Mn288 O314 2.094 . S
Mn289 O294 2.121 . S
Mn289 N296 2.257 . S
Mn289 N305 2.282 . S
Mn289 O313 2.215 . S
Mn289 O315 2.117 . S
C290 O312 1.234 . S
C290 O313 1.283 . S
C291 O303 1.281 . S
C291 O304 1.236 . S
C292 O314 1.240 . S
C292 O315 1.264 . S
O293 Mn288 2.095 . S
O293 C302 1.250 . S
O294 Mn289 2.121 . S
O294 C302 1.258 . S
C295 N296 1.326 . S
C295 C299 1.460 . S
C295 H301 0.929 . S
N296 Mn289 2.257 . S
N296 C295 1.326 . S
N296 C300 1.362 . S
C297 C298 1.258 . S
C297 C300 1.431 . S
C297 C317 1.449 . S
C298 C297 1.258 . S
C298 C299 1.477 . S
C298 H318 0.931 . S
C299 C295 1.460 . S
C299 C298 1.477 . S
C299 H319 0.930 . S
C300 N296 1.362 . S
C300 C297 1.431 . S
C300 C310 1.476 . S
H301 C295 0.929 . S
C302 O293 1.250 . S
C302 O294 1.258 . S
O303 Mn288 2.162 . S
O303 C291 1.281 . S
O304 Mn288 2.297 . S
O304 C291 1.236 . S
N305 Mn289 2.282 . S
N305 C306 1.328 . S
N305 C310 1.318 . S
C306 N305 1.328 . S
C306 C307 1.457 . S
C306 H311 0.929 . S
C307 C306 1.457 . S
C307 C308 1.291 . S
C307 H320 0.931 . S
C308 C307 1.291 . S
C308 C309 1.373 . S
C308 H321 0.929 . S
C309 C308 1.373 . S
C309 C310 1.396 . S
C309 C316 1.403 . S
C310 C300 1.476 . S
C310 N305 1.318 . S
C310 C309 1.396 . S
H311 C306 0.929 . S
O312 Mn288 2.385 . S
O312 C290 1.234 . S
O313 Mn288 2.209 . S
O313 Mn289 2.215 . S
O313 C290 1.283 . S
O314 Mn288 2.094 . S
O314 C292 1.240 . S
O315 Mn289 2.117 . S
O315 C292 1.264 . S
C316 C309 1.403 . S
C316 C317 1.399 . S
C316 H322 0.929 . S
C317 C297 1.449 . S
C317 C316 1.399 . S
C317 H323 0.930 . S
H318 C298 0.931 . S
H319 C299 0.930 . S
H320 C307 0.931 . S
H321 C308 0.929 . S
H322 C316 0.929 . S
H323 C317 0.930 . S
Mn324 O329 2.095 . S
Mn324 O339 2.162 . S
Mn324 O340 2.297 . S
Mn324 O348 2.385 . S
Mn324 O349 2.209 . S
Mn324 O350 2.094 . S
Mn325 O330 2.121 . S
Mn325 N332 2.257 . S
Mn325 N341 2.282 . S
Mn325 O349 2.215 . S
Mn325 O351 2.117 . S
C326 O348 1.234 . S
C326 O349 1.283 . S
C327 O339 1.281 . S
C327 O340 1.236 . S
C328 O350 1.240 . S
C328 O351 1.264 . S
O329 Mn324 2.095 . S
O329 C338 1.250 . S
O330 Mn325 2.121 . S
O330 C338 1.258 . S
C331 N332 1.326 . S
C331 C335 1.460 . S
C331 H337 0.929 . S
N332 Mn325 2.257 . S
N332 C331 1.326 . S
N332 C336 1.362 . S
C333 C334 1.258 . S
C333 C336 1.431 . S
C333 C353 1.449 . S
C334 C333 1.258 . S
C334 C335 1.477 . S
C334 H354 0.931 . S
C335 C331 1.460 . S
C335 C334 1.477 . S
C335 H355 0.930 . S
C336 N332 1.362 . S
C336 C333 1.431 . S
C336 C346 1.476 . S
H337 C331 0.929 . S
C338 O329 1.250 . S
C338 O330 1.258 . S
O339 Mn324 2.162 . S
O339 C327 1.281 . S
O340 Mn324 2.297 . S
O340 C327 1.236 . S
N341 Mn325 2.282 . S
N341 C342 1.328 . S
N341 C346 1.318 . S
C342 N341 1.328 . S
C342 C343 1.457 . S
C342 H347 0.929 . S
C343 C342 1.457 . S
C343 C344 1.291 . S
C343 H356 0.931 . S
C344 C343 1.291 . S
C344 C345 1.373 . S
C344 H357 0.929 . S
C345 C344 1.373 . S
C345 C346 1.396 . S
C345 C352 1.403 . S
C346 C336 1.476 . S
C346 N341 1.318 . S
C346 C345 1.396 . S
H347 C342 0.929 . S
O348 Mn324 2.385 . S
O348 C326 1.234 . S
O349 Mn324 2.209 . S
O349 Mn325 2.215 . S
O349 C326 1.283 . S
O350 Mn324 2.094 . S
O350 C328 1.240 . S
O351 Mn325 2.117 . S
O351 C328 1.264 . S
C352 C345 1.403 . S
C352 C353 1.399 . S
C352 H358 0.929 . S
C353 C333 1.449 . S
C353 C352 1.399 . S
C353 H359 0.930 . S
H354 C334 0.931 . S
H355 C335 0.930 . S
H356 C343 0.931 . S
H357 C344 0.929 . S
H358 C352 0.929 . S
H359 C353 0.930 . S
Mn360 O365 2.095 . S
Mn360 O375 2.162 . S
Mn360 O376 2.297 . S
Mn360 O384 2.385 . S
Mn360 O385 2.209 . S
Mn360 O386 2.094 . S
Mn361 O366 2.121 . S
Mn361 N368 2.257 . S
Mn361 N377 2.282 . S
Mn361 O385 2.215 . S
Mn361 O387 2.117 . S
C362 O384 1.234 . S
C362 O385 1.283 . S
C363 O375 1.281 . S
C363 O376 1.236 . S
C364 O386 1.240 . S
C364 O387 1.264 . S
O365 Mn360 2.095 . S
O365 C374 1.250 . S
O366 Mn361 2.121 . S
O366 C374 1.258 . S
C367 N368 1.326 . S
C367 C371 1.460 . S
C367 H373 0.929 . S
N368 Mn361 2.257 . S
N368 C367 1.326 . S
N368 C372 1.362 . S
C369 C370 1.258 . S
C369 C372 1.431 . S
C369 C389 1.449 . S
C370 C369 1.258 . S
C370 C371 1.477 . S
C370 H390 0.931 . S
C371 C367 1.460 . S
C371 C370 1.477 . S
C371 H391 0.930 . S
C372 N368 1.362 . S
C372 C369 1.431 . S
C372 C382 1.476 . S
H373 C367 0.929 . S
C374 O365 1.250 . S
C374 O366 1.258 . S
O375 Mn360 2.162 . S
O375 C363 1.281 . S
O376 Mn360 2.297 . S
O376 C363 1.236 . S
N377 Mn361 2.282 . S
N377 C378 1.328 . S
N377 C382 1.318 . S
C378 N377 1.328 . S
C378 C379 1.457 . S
C378 H383 0.929 . S
C379 C378 1.457 . S
C379 C380 1.291 . S
C379 H392 0.931 . S
C380 C379 1.291 . S
C380 C381 1.373 . S
C380 H393 0.929 . S
C381 C380 1.373 . S
C381 C382 1.396 . S
C381 C388 1.403 . S
C382 C372 1.476 . S
C382 N377 1.318 . S
C382 C381 1.396 . S
H383 C378 0.929 . S
O384 Mn360 2.385 . S
O384 C362 1.234 . S
O385 Mn360 2.209 . S
O385 Mn361 2.215 . S
O385 C362 1.283 . S
O386 Mn360 2.094 . S
O386 C364 1.240 . S
O387 Mn361 2.117 . S
O387 C364 1.264 . S
C388 C381 1.403 . S
C388 C389 1.399 . S
C388 H394 0.929 . S
C389 C369 1.449 . S
C389 C388 1.399 . S
C389 H395 0.930 . S
H390 C370 0.931 . S
H391 C371 0.930 . S
H392 C379 0.931 . S
H393 C380 0.929 . S
H394 C388 0.929 . S
H395 C389 0.930 . S
Mn396 O401 2.095 . S
Mn396 O411 2.162 . S
Mn396 O412 2.297 . S
Mn396 O420 2.385 . S
Mn396 O421 2.209 . S
Mn396 O422 2.094 . S
Mn397 O402 2.121 . S
Mn397 N404 2.257 . S
Mn397 N413 2.282 . S
Mn397 O421 2.215 . S
Mn397 O423 2.117 . S
C398 O420 1.234 . S
C398 O421 1.283 . S
C399 O411 1.281 . S
C399 O412 1.236 . S
C400 O422 1.240 . S
C400 O423 1.264 . S
O401 Mn396 2.095 . S
O401 C410 1.250 . S
O402 Mn397 2.121 . S
O402 C410 1.258 . S
C403 N404 1.326 . S
C403 C407 1.460 . S
C403 H409 0.929 . S
N404 Mn397 2.257 . S
N404 C403 1.326 . S
N404 C408 1.362 . S
C405 C406 1.258 . S
C405 C408 1.431 . S
C405 C425 1.449 . S
C406 C405 1.258 . S
C406 C407 1.477 . S
C406 H426 0.931 . S
C407 C403 1.460 . S
C407 C406 1.477 . S
C407 H427 0.930 . S
C408 N404 1.362 . S
C408 C405 1.431 . S
C408 C418 1.476 . S
H409 C403 0.929 . S
C410 O401 1.250 . S
C410 O402 1.258 . S
O411 Mn396 2.162 . S
O411 C399 1.281 . S
O412 Mn396 2.297 . S
O412 C399 1.236 . S
N413 Mn397 2.282 . S
N413 C414 1.328 . S
N413 C418 1.318 . S
C414 N413 1.328 . S
C414 C415 1.457 . S
C414 H419 0.929 . S
C415 C414 1.457 . S
C415 C416 1.291 . S
C415 H428 0.931 . S
C416 C415 1.291 . S
C416 C417 1.373 . S
C416 H429 0.929 . S
C417 C416 1.373 . S
C417 C418 1.396 . S
C417 C424 1.403 . S
C418 C408 1.476 . S
C418 N413 1.318 . S
C418 C417 1.396 . S
H419 C414 0.929 . S
O420 Mn396 2.385 . S
O420 C398 1.234 . S
O421 Mn396 2.209 . S
O421 Mn397 2.215 . S
O421 C398 1.283 . S
O422 Mn396 2.094 . S
O422 C400 1.240 . S
O423 Mn397 2.117 . S
O423 C400 1.264 . S
C424 C417 1.403 . S
C424 C425 1.399 . S
C424 H430 0.929 . S
C425 C405 1.449 . S
C425 C424 1.399 . S
C425 H431 0.930 . S
H426 C406 0.931 . S
H427 C407 0.930 . S
H428 C415 0.931 . S
H429 C416 0.929 . S
H430 C424 0.929 . S
H431 C425 0.930 . S
C432 C433 1.391 . S
C432 C434 1.394 . S
C432 H448 0.931 . S
C433 C432 1.391 . S
C433 C437 1.376 . S
C434 C432 1.394 . S
C434 C435 1.369 . S
C434 C438 1.531 . S
C435 C434 1.369 . S
C435 C436 1.410 . S
C435 C443 1.503 1_566 S
C436 C435 1.410 . S
C436 C437 1.392 . S
C436 C439 1.511 . S
C437 C433 1.376 . S
C437 C436 1.392 . S
C437 H449 0.929 . S
C438 C434 1.531 . S
C438 H450 0.960 1_565 S
C438 H451 0.962 . S
C438 H452 0.960 . S
C439 C436 1.511 . S
C439 H453 0.961 1_556 S
C439 H454 0.961 1_556 S
C439 H455 0.961 . S
C440 C441 1.370 . S
C440 C442 1.363 . S
C440 H456 0.931 . S
C441 C440 1.370 . S
C441 C445 1.408 1_554 S
C442 C440 1.363 . S
C442 C443 1.370 . S
C442 C446 1.524 1_545 S
C443 C435 1.503 1_544 S
C443 C442 1.370 . S
C443 C444 1.403 1_554 S
C444 C443 1.403 1_556 S
C444 C445 1.404 . S
C444 C447 1.539 . S
C445 C441 1.408 1_556 S
C445 C444 1.404 . S
C445 H457 0.930 . S
C446 C442 1.524 1_565 S
C446 H458 0.956 . S
C446 H459 0.961 . S
C446 H460 0.961 . S
C447 C444 1.539 . S
C447 H461 0.958 . S
C447 H462 0.961 . S
C447 H463 0.960 . S
H448 C432 0.931 . S
H449 C437 0.929 . S
H450 C438 0.960 1_545 S
H451 C438 0.962 . S
H452 C438 0.960 . S
H453 C439 0.961 1_554 S
H454 C439 0.961 1_554 S
H455 C439 0.961 . S
H456 C440 0.931 . S
H457 C445 0.930 . S
H458 C446 0.956 . S
H459 C446 0.961 . S
H460 C446 0.961 . S
H461 C447 0.958 . S
H462 C447 0.961 . S
H463 C447 0.960 . S
C464 C465 1.391 . S
C464 C466 1.394 . S
C464 H480 0.931 . S
C465 C464 1.391 . S
C465 C469 1.376 . S
C466 C464 1.394 . S
C466 C467 1.369 . S
C466 C470 1.531 . S
C467 C466 1.369 . S
C467 C468 1.410 . S
C467 C475 1.503 . S
C468 C467 1.410 . S
C468 C469 1.392 . S
C468 C471 1.511 . S
C469 C465 1.376 . S
C469 C468 1.392 . S
C469 H481 0.929 . S
C470 C466 1.531 . S
C470 H482 0.960 . S
C470 H483 0.962 . S
C470 H484 0.960 . S
C471 C468 1.511 . S
C471 H485 0.961 . S
C471 H486 0.961 . S
C471 H487 0.961 . S
C472 C473 1.370 . S
C472 C474 1.363 . S
C472 H488 0.931 . S
C473 C472 1.370 . S
C473 C477 1.408 . S
C474 C472 1.363 . S
C474 C475 1.370 . S
C474 C478 1.524 . S
C475 C467 1.503 . S
C475 C474 1.370 . S
C475 C476 1.403 . S
C476 C475 1.403 . S
C476 C477 1.404 . S
C476 C479 1.539 . S
C477 C473 1.408 . S
C477 C476 1.404 . S
C477 H489 0.930 . S
C478 C474 1.524 . S
C478 H490 0.956 . S
C478 H491 0.961 . S
C478 H492 0.961 . S
C479 C476 1.539 . S
C479 H493 0.958 . S
C479 H494 0.961 . S
C479 H495 0.960 . S
H480 C464 0.931 . S
H481 C469 0.929 . S
H482 C470 0.960 . S
H483 C470 0.962 . S
H484 C470 0.960 . S
H485 C471 0.961 . S
H486 C471 0.961 . S
H487 C471 0.961 . S
H488 C472 0.931 . S
H489 C477 0.930 . S
H490 C478 0.956 . S
H491 C478 0.961 . S
H492 C478 0.961 . S
H493 C479 0.958 . S
H494 C479 0.961 . S
H495 C479 0.960 . S
C496 C497 1.391 . S
C496 C498 1.394 . S
C496 H512 0.931 . S
C497 C496 1.391 . S
C497 C501 1.376 . S
C498 C496 1.394 . S
C498 C499 1.369 . S
C498 C502 1.531 . S
C499 C498 1.369 . S
C499 C500 1.410 . S
C499 C507 1.503 1_655 S
C500 C499 1.410 . S
C500 C501 1.392 . S
C500 C503 1.511 . S
C501 C497 1.376 . S
C501 C500 1.392 . S
C501 H513 0.929 . S
C502 C498 1.531 . S
C502 H514 0.960 . S
C502 H515 0.962 . S
C502 H516 0.960 . S
C503 C500 1.511 . S
C503 H517 0.961 . S
C503 H518 0.961 1_655 S
C503 H519 0.961 1_655 S
C504 C505 1.370 . S
C504 C506 1.363 . S
C504 H520 0.931 . S
C505 C504 1.370 . S
C505 C509 1.408 . S
C506 C504 1.363 . S
C506 C507 1.370 . S
C506 C510 1.524 1_455 S
C507 C499 1.503 1_455 S
C507 C506 1.370 . S
C507 C508 1.403 . S
C508 C507 1.403 . S
C508 C509 1.404 . S
C508 C511 1.539 . S
C509 C505 1.408 . S
C509 C508 1.404 . S
C509 H521 0.930 . S
C510 C506 1.524 1_655 S
C510 H522 0.956 . S
C510 H523 0.961 . S
C510 H524 0.961 1_655 S
C511 C508 1.539 . S
C511 H525 0.958 . S
C511 H526 0.961 . S
C511 H527 0.960 . S
H512 C496 0.931 . S
H513 C501 0.929 . S
H514 C502 0.960 . S
H515 C502 0.962 . S
H516 C502 0.960 . S
H517 C503 0.961 . S
H518 C503 0.961 1_455 S
H519 C503 0.961 1_455 S
H520 C504 0.931 . S
H521 C509 0.930 . S
H522 C510 0.956 . S
H523 C510 0.961 . S
H524 C510 0.961 1_455 S
H525 C511 0.958 . S
H526 C511 0.961 . S
H527 C511 0.960 . S
C528 C529 1.391 . S
C528 C530 1.394 1_554 S
C528 H544 0.931 1_554 S
C529 C528 1.391 . S
C529 C533 1.376 . S
C530 C528 1.394 1_556 S
C530 C531 1.369 1_556 S
C530 C534 1.531 . S
C531 C530 1.369 1_554 S
C531 C532 1.410 . S
C531 C539 1.503 1_564 S
C532 C531 1.410 . S
C532 C533 1.392 . S
C532 C535 1.511 . S
C533 C529 1.376 . S
C533 C532 1.392 . S
C533 H545 0.929 . S
C534 C530 1.531 . S
C534 H546 0.960 . S
C534 H547 0.962 . S
C534 H548 0.960 . S
C535 C532 1.511 . S
C535 H549 0.961 . S
C535 H550 0.961 1_565 S
C535 H551 0.961 . S
C536 C537 1.370 . S
C536 C538 1.363 1_556 S
C536 H552 0.932 . S
C537 C536 1.370 . S
C537 C541 1.408 . S
C538 C536 1.363 1_554 S
C538 C539 1.370 1_554 S
C538 C542 1.524 . S
C539 C531 1.503 1_546 S
C539 C538 1.370 1_556 S
C539 C540 1.403 . S
C540 C539 1.403 . S
C540 C541 1.404 . S
C540 C543 1.539 . S
C541 C537 1.408 . S
C541 C540 1.404 . S
C541 H553 0.930 . S
C542 C538 1.524 . S
C542 H554 0.956 . S
C542 H555 0.961 . S
C542 H556 0.961 . S
C543 C540 1.539 . S
C543 H557 0.958 1_545 S
C543 H558 0.961 . S
C543 H559 0.960 1_545 S
H544 C528 0.931 1_556 S
H545 C533 0.929 . S
H546 C534 0.960 . S
H547 C534 0.962 . S
H548 C534 0.960 . S
H549 C535 0.961 . S
H550 C535 0.961 1_545 S
H551 C535 0.961 . S
H552 C536 0.932 . S
H553 C541 0.930 . S
H554 C542 0.956 . S
H555 C542 0.961 . S
H556 C542 0.961 . S
H557 C543 0.958 1_565 S
H558 C543 0.961 . S
H559 C543 0.960 1_565 S
C560 C561 1.391 . S
C560 C562 1.394 . S
C560 H576 0.931 . S
C561 C560 1.391 . S
C561 C565 1.376 . S
C562 C560 1.394 . S
C562 C563 1.369 . S
C562 C566 1.531 . S
C563 C562 1.369 . S
C563 C564 1.410 . S
C563 C571 1.503 . S
C564 C563 1.410 . S
C564 C565 1.392 . S
C564 C567 1.511 . S
C565 C561 1.376 . S
C565 C564 1.392 . S
C565 H577 0.929 . S
C566 C562 1.531 . S
C566 H578 0.960 . S
C566 H579 0.962 . S
C566 H580 0.960 . S
C567 C564 1.511 . S
C567 H581 0.961 . S
C567 H582 0.961 . S
C567 H583 0.961 . S
C568 C569 1.370 . S
C568 C570 1.363 . S
C568 H584 0.931 . S
C569 C568 1.370 . S
C569 C573 1.408 . S
C570 C568 1.363 . S
C570 C571 1.370 . S
C570 C574 1.524 . S
C571 C563 1.503 . S
C571 C570 1.370 . S
C571 C572 1.403 . S
C572 C571 1.403 . S
C572 C573 1.404 . S
C572 C575 1.539 . S
C573 C569 1.408 . S
C573 C572 1.404 . S
C573 H585 0.930 . S
C574 C570 1.524 . S
C574 H586 0.956 . S
C574 H587 0.961 . S
C574 H588 0.961 . S
C575 C572 1.539 . S
C575 H589 0.958 . S
C575 H590 0.961 . S
C575 H591 0.960 . S
H576 C560 0.931 . S
H577 C565 0.929 . S
H578 C566 0.960 . S
H579 C566 0.962 . S
H580 C566 0.960 . S
H581 C567 0.961 . S
H582 C567 0.961 . S
H583 C567 0.961 . S
H584 C568 0.931 . S
H585 C573 0.930 . S
H586 C574 0.956 . S
H587 C574 0.961 . S
H588 C574 0.961 . S
H589 C575 0.958 . S
H590 C575 0.961 . S
H591 C575 0.960 . S
C592 C593 1.391 . S
C592 C594 1.394 . S
C592 H608 0.931 . S
C593 C592 1.391 . S
C593 C597 1.376 . S
C594 C592 1.394 . S
C594 C595 1.369 . S
C594 C598 1.531 . S
C595 C594 1.369 . S
C595 C596 1.410 . S
C595 C603 1.503 1_655 S
C596 C595 1.410 . S
C596 C597 1.392 . S
C596 C599 1.511 1_655 S
C597 C593 1.376 . S
C597 C596 1.392 . S
C597 H609 0.929 . S
C598 C594 1.531 . S
C598 H610 0.960 . S
C598 H611 0.962 . S
C598 H612 0.960 . S
C599 C596 1.511 1_455 S
C599 H613 0.961 1_455 S
C599 H614 0.961 . S
C599 H615 0.961 . S
C600 C601 1.370 . S
C600 C602 1.363 . S
C600 H616 0.931 . S
C601 C600 1.370 . S
C601 C605 1.408 . S
C602 C600 1.363 . S
C602 C603 1.370 . S
C602 C606 1.524 1_455 S
C603 C595 1.503 1_455 S
C603 C602 1.370 . S
C603 C604 1.403 . S
C604 C603 1.403 . S
C604 C605 1.404 . S
C604 C607 1.539 . S
C605 C601 1.408 . S
C605 C604 1.404 . S
C605 H617 0.930 . S
C606 C602 1.524 1_655 S
C606 H618 0.956 . S
C606 H619 0.961 . S
C606 H620 0.961 1_655 S
C607 C604 1.539 . S
C607 H621 0.958 . S
C607 H622 0.961 . S
C607 H623 0.960 . S
H608 C592 0.931 . S
H609 C597 0.929 . S
H610 C598 0.960 . S
H611 C598 0.962 . S
H612 C598 0.960 . S
H613 C599 0.961 1_655 S
H614 C599 0.961 . S
H615 C599 0.961 . S
H616 C600 0.931 . S
H617 C605 0.930 . S
H618 C606 0.956 . S
H619 C606 0.961 . S
H620 C606 0.961 1_455 S
H621 C607 0.958 . S
H622 C607 0.961 . S
H623 C607 0.960 . S
C624 C625 1.391 . S
C624 C626 1.394 1_556 S
C624 H640 0.931 1_556 S
C625 C624 1.391 . S
C625 C629 1.376 . S
C626 C624 1.394 1_554 S
C626 C627 1.369 1_554 S
C626 C630 1.531 . S
C627 C626 1.369 1_556 S
C627 C628 1.410 . S
C627 C635 1.503 1_556 S
C628 C627 1.410 . S
C628 C629 1.392 . S
C628 C631 1.511 . S
C629 C625 1.376 . S
C629 C628 1.392 . S
C629 H641 0.929 . S
C630 C626 1.531 . S
C630 H642 0.960 . S
C630 H643 0.962 . S
C630 H644 0.960 . S
C631 C628 1.511 . S
C631 H645 0.961 . S
C631 H646 0.961 . S
C631 H647 0.961 . S
C632 C633 1.370 . S
C632 C634 1.363 . S
C632 H648 0.931 . S
C633 C632 1.370 . S
C633 C637 1.408 . S
C634 C632 1.363 . S
C634 C635 1.370 . S
C634 C638 1.524 . S
C635 C627 1.503 1_554 S
C635 C634 1.370 . S
C635 C636 1.403 1_554 S
C636 C635 1.403 1_556 S
C636 C637 1.404 1_556 S
C636 C639 1.539 . S
C637 C633 1.408 . S
C637 C636 1.404 1_554 S
C637 H649 0.930 . S
C638 C634 1.524 . S
C638 H650 0.956 . S
C638 H651 0.961 . S
C638 H652 0.961 . S
C639 C636 1.539 . S
C639 H653 0.958 . S
C639 H654 0.961 . S
C639 H655 0.960 . S
H640 C624 0.931 1_554 S
H641 C629 0.929 . S
H642 C630 0.960 . S
H643 C630 0.962 . S
H644 C630 0.960 . S
H645 C631 0.961 . S
H646 C631 0.961 . S
H647 C631 0.961 . S
H648 C632 0.931 . S
H649 C637 0.930 . S
H650 C638 0.956 . S
H651 C638 0.961 . S
H652 C638 0.961 . S
H653 C639 0.958 . S
H654 C639 0.961 . S
H655 C639 0.960 . S
C656 C657 1.391 . S
C656 C658 1.394 . S
C656 H672 0.931 . S
C657 C656 1.391 . S
C657 C661 1.376 . S
C658 C656 1.394 . S
C658 C659 1.369 . S
C658 C662 1.531 . S
C659 C658 1.369 . S
C659 C660 1.410 . S
C659 C667 1.503 . S
C660 C659 1.410 . S
C660 C661 1.392 . S
C660 C663 1.511 . S
C661 C657 1.376 . S
C661 C660 1.392 . S
C661 H673 0.929 . S
C662 C658 1.531 . S
C662 H674 0.960 . S
C662 H675 0.962 . S
C662 H676 0.960 . S
C663 C660 1.511 . S
C663 H677 0.961 . S
C663 H678 0.961 . S
C663 H679 0.961 . S
C664 C665 1.370 . S
C664 C666 1.363 . S
C664 H680 0.931 . S
C665 C664 1.370 . S
C665 C669 1.408 . S
C666 C664 1.363 . S
C666 C667 1.370 . S
C666 C670 1.524 . S
C667 C659 1.503 . S
C667 C666 1.370 . S
C667 C668 1.403 . S
C668 C667 1.403 . S
C668 C669 1.404 . S
C668 C671 1.539 . S
C669 C665 1.408 . S
C669 C668 1.404 . S
C669 H681 0.930 . S
C670 C666 1.524 . S
C670 H682 0.956 . S
C670 H683 0.961 . S
C670 H684 0.961 . S
C671 C668 1.539 . S
C671 H685 0.958 . S
C671 H686 0.961 . S
C671 H687 0.960 . S
H672 C656 0.931 . S
H673 C661 0.929 . S
H674 C662 0.960 . S
H675 C662 0.962 . S
H676 C662 0.960 . S
H677 C663 0.961 . S
H678 C663 0.961 . S
H679 C663 0.961 . S
H680 C664 0.931 . S
H681 C669 0.930 . S
H682 C670 0.956 . S
H683 C670 0.961 . S
H684 C670 0.961 . S
H685 C671 0.958 . S
H686 C671 0.961 . S
H687 C671 0.960 . S
C688 C689 1.391 . S
C688 C690 1.394 . S
C688 H704 0.931 . S
C689 C688 1.391 . S
C689 C693 1.376 . S
C690 C688 1.394 . S
C690 C691 1.369 . S
C690 C694 1.531 . S
C691 C690 1.369 . S
C691 C692 1.410 . S
C691 C699 1.503 . S
C692 C691 1.410 . S
C692 C693 1.392 . S
C692 C695 1.511 . S
C693 C689 1.376 . S
C693 C692 1.392 . S
C693 H705 0.929 . S
C694 C690 1.531 . S
C694 H706 0.960 . S
C694 H707 0.962 . S
C694 H708 0.960 . S
C695 C692 1.511 . S
C695 H709 0.961 . S
C695 H710 0.961 . S
C695 H711 0.961 . S
C696 C697 1.370 . S
C696 C698 1.363 . S
C696 H712 0.931 . S
C697 C696 1.370 . S
C697 C701 1.408 . S
C698 C696 1.363 . S
C698 C699 1.370 . S
C698 C702 1.524 . S
C699 C691 1.503 . S
C699 C698 1.370 . S
C699 C700 1.403 . S
C700 C699 1.403 . S
C700 C701 1.404 . S
C700 C703 1.539 . S
C701 C697 1.408 . S
C701 C700 1.404 . S
C701 H713 0.930 . S
C702 C698 1.524 . S
C702 H714 0.956 . S
C702 H715 0.961 . S
C702 H716 0.961 . S
C703 C700 1.539 . S
C703 H717 0.958 . S
C703 H718 0.961 . S
C703 H719 0.960 . S
H704 C688 0.931 . S
H705 C693 0.929 . S
H706 C694 0.960 . S
H707 C694 0.962 . S
H708 C694 0.960 . S
H709 C695 0.961 . S
H710 C695 0.961 . S
H711 C695 0.961 . S
H712 C696 0.931 . S
H713 C701 0.930 . S
H714 C702 0.956 . S
H715 C702 0.961 . S
H716 C702 0.961 . S
H717 C703 0.958 . S
H718 C703 0.961 . S
H719 C703 0.960 . S
C720 C721 1.391 . S
C720 C722 1.394 . S
C720 H736 0.931 . S
C721 C720 1.391 . S
C721 C725 1.376 1_556 S
C722 C720 1.394 . S
C722 C723 1.369 . S
C722 C726 1.531 . S
C723 C722 1.369 . S
C723 C724 1.410 1_556 S
C723 C731 1.503 1_556 S
C724 C723 1.410 1_554 S
C724 C725 1.392 . S
C724 C727 1.511 . S
C725 C721 1.376 1_554 S
C725 C724 1.392 . S
C725 H737 0.929 . S
C726 C722 1.531 . S
C726 H738 0.960 . S
C726 H739 0.962 . S
C726 H740 0.960 . S
C727 C724 1.511 . S
C727 H741 0.961 . S
C727 H742 0.961 . S
C727 H743 0.961 . S
C728 C729 1.370 . S
C728 C730 1.363 . S
C728 H744 0.931 . S
C729 C728 1.370 . S
C729 C733 1.408 . S
C730 C728 1.363 . S
C730 C731 1.370 . S
C730 C734 1.524 . S
C731 C723 1.503 1_554 S
C731 C730 1.370 . S
C731 C732 1.403 . S
C732 C731 1.403 . S
C732 C733 1.404 . S
C732 C735 1.539 . S
C733 C729 1.408 . S
C733 C732 1.404 . S
C733 H745 0.930 . S
C734 C730 1.524 . S
C734 H746 0.956 1_554 S
C734 H747 0.961 . S
C734 H748 0.961 . S
C735 C732 1.539 . S
C735 H749 0.958 1_554 S
C735 H750 0.961 . S
C735 H751 0.960 . S
H736 C720 0.931 . S
H737 C725 0.929 . S
H738 C726 0.960 . S
H739 C726 0.962 . S
H740 C726 0.960 . S
H741 C727 0.961 . S
H742 C727 0.961 . S
H743 C727 0.961 . S
H744 C728 0.931 . S
H745 C733 0.930 . S
H746 C734 0.956 1_556 S
H747 C734 0.961 . S
H748 C734 0.961 . S
H749 C735 0.958 1_556 S
H750 C735 0.961 . S
H751 C735 0.960 . S
C752 C753 1.391 . S
C752 C754 1.394 . S
C752 H768 0.931 . S
C753 C752 1.391 . S
C753 C757 1.376 . S
C754 C752 1.394 . S
C754 C755 1.369 . S
C754 C758 1.531 . S
C755 C754 1.369 . S
C755 C756 1.410 . S
C755 C763 1.503 . S
C756 C755 1.410 . S
C756 C757 1.392 . S
C756 C759 1.511 . S
C757 C753 1.376 . S
C757 C756 1.392 . S
C757 H769 0.929 . S
C758 C754 1.531 . S
C758 H770 0.960 . S
C758 H771 0.962 . S
C758 H772 0.960 . S
C759 C756 1.511 . S
C759 H773 0.961 . S
C759 H774 0.961 . S
C759 H775 0.961 . S
C760 C761 1.370 . S
C760 C762 1.363 . S
C760 H776 0.931 . S
C761 C760 1.370 . S
C761 C765 1.408 . S
C762 C760 1.363 . S
C762 C763 1.370 . S
C762 C766 1.524 . S
C763 C755 1.503 . S
C763 C762 1.370 . S
C763 C764 1.403 . S
C764 C763 1.403 . S
C764 C765 1.404 . S
C764 C767 1.539 . S
C765 C761 1.408 . S
C765 C764 1.404 . S
C765 H777 0.930 . S
C766 C762 1.524 . S
C766 H778 0.956 . S
C766 H779 0.961 . S
C766 H780 0.961 . S
C767 C764 1.539 . S
C767 H781 0.958 . S
C767 H782 0.961 . S
C767 H783 0.960 . S
H768 C752 0.931 . S
H769 C757 0.929 . S
H770 C758 0.960 . S
H771 C758 0.962 . S
H772 C758 0.960 . S
H773 C759 0.961 . S
H774 C759 0.961 . S
H775 C759 0.961 . S
H776 C760 0.931 . S
H777 C765 0.930 . S
H778 C766 0.956 . S
H779 C766 0.961 . S
H780 C766 0.961 . S
H781 C767 0.958 . S
H782 C767 0.961 . S
H783 C767 0.960 . S
C784 C785 1.391 . S
C784 C786 1.394 . S
C784 H800 0.931 . S
C785 C784 1.391 . S
C785 C789 1.376 . S
C786 C784 1.394 . S
C786 C787 1.369 . S
C786 C790 1.531 . S
C787 C786 1.369 . S
C787 C788 1.410 . S
C787 C795 1.503 . S
C788 C787 1.410 . S
C788 C789 1.392 . S
C788 C791 1.511 . S
C789 C785 1.376 . S
C789 C788 1.392 . S
C789 H801 0.929 . S
C790 C786 1.531 . S
C790 H802 0.960 . S
C790 H803 0.962 . S
C790 H804 0.960 . S
C791 C788 1.511 . S
C791 H805 0.961 . S
C791 H806 0.961 . S
C791 H807 0.961 . S
C792 C793 1.370 . S
C792 C794 1.363 . S
C792 H808 0.931 . S
C793 C792 1.370 . S
C793 C797 1.408 . S
C794 C792 1.363 . S
C794 C795 1.370 . S
C794 C798 1.524 . S
C795 C787 1.503 . S
C795 C794 1.370 . S
C795 C796 1.403 . S
C796 C795 1.403 . S
C796 C797 1.404 . S
C796 C799 1.539 . S
C797 C793 1.408 . S
C797 C796 1.404 . S
C797 H809 0.930 . S
C798 C794 1.524 . S
C798 H810 0.956 . S
C798 H811 0.961 . S
C798 H812 0.961 . S
C799 C796 1.539 . S
C799 H813 0.958 . S
C799 H814 0.961 . S
C799 H815 0.960 . S
H800 C784 0.931 . S
H801 C789 0.929 . S
H802 C790 0.960 . S
H803 C790 0.962 . S
H804 C790 0.960 . S
H805 C791 0.961 . S
H806 C791 0.961 . S
H807 C791 0.961 . S
H808 C792 0.931 . S
H809 C797 0.930 . S
H810 C798 0.956 . S
H811 C798 0.961 . S
H812 C798 0.961 . S
H813 C799 0.958 . S
H814 C799 0.961 . S
H815 C799 0.960 . S
C816 C817 1.391 . S
C816 C818 1.394 . S
C816 H832 0.931 . S
C817 C816 1.391 . S
C817 C821 1.376 . S
C818 C816 1.394 . S
C818 C819 1.369 . S
C818 C822 1.531 . S
C819 C818 1.369 . S
C819 C820 1.410 . S
C819 C827 1.503 . S
C820 C819 1.410 . S
C820 C821 1.392 . S
C820 C823 1.511 . S
C821 C817 1.376 . S
C821 C820 1.392 . S
C821 H833 0.929 . S
C822 C818 1.531 . S
C822 H834 0.960 . S
C822 H835 0.962 . S
C822 H836 0.960 . S
C823 C820 1.511 . S
C823 H837 0.961 . S
C823 H838 0.961 . S
C823 H839 0.961 . S
C824 C825 1.370 . S
C824 C826 1.363 . S
C824 H840 0.931 . S
C825 C824 1.370 . S
C825 C829 1.408 . S
C826 C824 1.363 . S
C826 C827 1.370 . S
C826 C830 1.524 . S
C827 C819 1.503 . S
C827 C826 1.370 . S
C827 C828 1.403 . S
C828 C827 1.403 . S
C828 C829 1.404 . S
C828 C831 1.539 . S
C829 C825 1.408 . S
C829 C828 1.404 . S
C829 H841 0.930 . S
C830 C826 1.524 . S
C830 H842 0.956 . S
C830 H843 0.961 . S
C830 H844 0.961 . S
C831 C828 1.539 . S
C831 H845 0.958 . S
C831 H846 0.961 . S
C831 H847 0.960 . S
H832 C816 0.931 . S
H833 C821 0.929 . S
H834 C822 0.960 . S
H835 C822 0.962 . S
H836 C822 0.960 . S
H837 C823 0.961 . S
H838 C823 0.961 . S
H839 C823 0.961 . S
H840 C824 0.931 . S
H841 C829 0.930 . S
H842 C830 0.956 . S
H843 C830 0.961 . S
H844 C830 0.961 . S
H845 C831 0.958 . S
H846 C831 0.961 . S
H847 C831 0.960 . S
C848 C849 1.391 . S
C848 C850 1.394 . S
C848 H864 0.931 . S
C849 C848 1.391 . S
C849 C853 1.376 . S
C850 C848 1.394 . S
C850 C851 1.369 . S
C850 C854 1.531 . S
C851 C850 1.369 . S
C851 C852 1.410 . S
C851 C859 1.503 . S
C852 C851 1.410 . S
C852 C853 1.392 . S
C852 C855 1.511 . S
C853 C849 1.376 . S
C853 C852 1.392 . S
C853 H865 0.929 . S
C854 C850 1.531 . S
C854 H866 0.960 . S
C854 H867 0.962 . S
C854 H868 0.960 . S
C855 C852 1.511 . S
C855 H869 0.961 . S
C855 H870 0.961 . S
C855 H871 0.961 . S
C856 C857 1.370 . S
C856 C858 1.363 . S
C856 H872 0.931 . S
C857 C856 1.370 . S
C857 C861 1.408 . S
C858 C856 1.363 . S
C858 C859 1.370 . S
C858 C862 1.524 . S
C859 C851 1.503 . S
C859 C858 1.370 . S
C859 C860 1.403 . S
C860 C859 1.403 . S
C860 C861 1.404 . S
C860 C863 1.539 . S
C861 C857 1.408 . S
C861 C860 1.404 . S
C861 H873 0.930 . S
C862 C858 1.524 . S
C862 H874 0.956 . S
C862 H875 0.961 . S
C862 H876 0.961 . S
C863 C860 1.539 . S
C863 H877 0.958 . S
C863 H878 0.961 . S
C863 H879 0.960 . S
H864 C848 0.931 . S
H865 C853 0.929 . S
H866 C854 0.960 . S
H867 C854 0.962 . S
H868 C854 0.960 . S
H869 C855 0.961 . S
H870 C855 0.961 . S
H871 C855 0.961 . S
H872 C856 0.931 . S
H873 C861 0.930 . S
H874 C862 0.956 . S
H875 C862 0.961 . S
H876 C862 0.961 . S
H877 C863 0.958 . S
H878 C863 0.961 . S
H879 C863 0.960 . S
C880 C881 1.391 . S
C880 C882 1.394 . S
C880 H896 0.931 . S
C881 C880 1.391 . S
C881 C885 1.376 . S
C882 C880 1.394 . S
C882 C883 1.369 . S
C882 C886 1.531 . S
C883 C882 1.369 . S
C883 C884 1.410 . S
C883 C891 1.503 . S
C884 C883 1.410 . S
C884 C885 1.392 . S
C884 C887 1.511 . S
C885 C881 1.376 . S
C885 C884 1.392 . S
C885 H897 0.929 . S
C886 C882 1.531 . S
C886 H898 0.960 . S
C886 H899 0.962 . S
C886 H900 0.960 . S
C887 C884 1.511 . S
C887 H901 0.961 . S
C887 H902 0.961 . S
C887 H903 0.961 . S
C888 C889 1.370 . S
C888 C890 1.363 . S
C888 H904 0.931 . S
C889 C888 1.370 . S
C889 C893 1.408 . S
C890 C888 1.363 . S
C890 C891 1.370 . S
C890 C894 1.524 . S
C891 C883 1.503 . S
C891 C890 1.370 . S
C891 C892 1.403 . S
C892 C891 1.403 . S
C892 C893 1.404 . S
C892 C895 1.539 . S
C893 C889 1.408 . S
C893 C892 1.404 . S
C893 H905 0.930 . S
C894 C890 1.524 . S
C894 H906 0.956 . S
C894 H907 0.961 . S
C894 H908 0.961 . S
C895 C892 1.539 . S
C895 H909 0.958 . S
C895 H910 0.961 . S
C895 H911 0.960 . S
H896 C880 0.931 . S
H897 C885 0.929 . S
H898 C886 0.960 . S
H899 C886 0.962 . S
H900 C886 0.960 . S
H901 C887 0.961 . S
H902 C887 0.961 . S
H903 C887 0.961 . S
H904 C888 0.931 . S
H905 C893 0.930 . S
H906 C894 0.956 . S
H907 C894 0.961 . S
H908 C894 0.961 . S
H909 C895 0.958 . S
H910 C895 0.961 . S
H911 C895 0.960 . S
C912 C913 1.391 . S
C912 C914 1.394 . S
C912 H928 0.931 . S
C913 C912 1.391 . S
C913 C917 1.376 . S
C914 C912 1.394 . S
C914 C915 1.369 . S
C914 C918 1.531 . S
C915 C914 1.369 . S
C915 C916 1.410 . S
C915 C923 1.503 . S
C916 C915 1.410 . S
C916 C917 1.392 . S
C916 C919 1.511 . S
C917 C913 1.376 . S
C917 C916 1.392 . S
C917 H929 0.929 . S
C918 C914 1.531 . S
C918 H930 0.960 . S
C918 H931 0.962 . S
C918 H932 0.960 . S
C919 C916 1.511 . S
C919 H933 0.961 . S
C919 H934 0.961 . S
C919 H935 0.961 . S
C920 C921 1.370 . S
C920 C922 1.363 . S
C920 H936 0.931 . S
C921 C920 1.370 . S
C921 C925 1.408 . S
C922 C920 1.363 . S
C922 C923 1.370 . S
C922 C926 1.524 . S
C923 C915 1.503 . S
C923 C922 1.370 . S
C923 C924 1.403 . S
C924 C923 1.403 . S
C924 C925 1.404 . S
C924 C927 1.539 . S
C925 C921 1.408 . S
C925 C924 1.404 . S
C925 H937 0.930 . S
C926 C922 1.524 . S
C926 H938 0.956 . S
C926 H939 0.961 . S
C926 H940 0.961 . S
C927 C924 1.539 . S
C927 H941 0.958 . S
C927 H942 0.961 . S
C927 H943 0.960 . S
H928 C912 0.931 . S
H929 C917 0.929 . S
H930 C918 0.960 . S
H931 C918 0.962 . S
H932 C918 0.960 . S
H933 C919 0.961 . S
H934 C919 0.961 . S
H935 C919 0.961 . S
H936 C920 0.931 . S
H937 C925 0.930 . S
H938 C926 0.956 . S
H939 C926 0.961 . S
H940 C926 0.961 . S
H941 C927 0.958 . S
H942 C927 0.961 . S
H943 C927 0.960 . S
C944 C945 1.391 . S
C944 C946 1.394 . S
C944 H960 0.931 . S
C945 C944 1.391 . S
C945 C949 1.376 . S
C946 C944 1.394 . S
C946 C947 1.369 . S
C946 C950 1.531 . S
C947 C946 1.369 . S
C947 C948 1.410 . S
C947 C955 1.503 . S
C948 C947 1.410 . S
C948 C949 1.392 . S
C948 C951 1.511 . S
C949 C945 1.376 . S
C949 C948 1.392 . S
C949 H961 0.929 . S
C950 C946 1.531 . S
C950 H962 0.960 . S
C950 H963 0.962 . S
C950 H964 0.960 . S
C951 C948 1.511 . S
C951 H965 0.961 . S
C951 H966 0.961 . S
C951 H967 0.961 . S
C952 C953 1.370 . S
C952 C954 1.363 . S
C952 H968 0.931 . S
C953 C952 1.370 . S
C953 C957 1.408 . S
C954 C952 1.363 . S
C954 C955 1.370 . S
C954 C958 1.524 . S
C955 C947 1.503 . S
C955 C954 1.370 . S
C955 C956 1.403 . S
C956 C955 1.403 . S
C956 C957 1.404 . S
C956 C959 1.539 . S
C957 C953 1.408 . S
C957 C956 1.404 . S
C957 H969 0.930 . S
C958 C954 1.524 . S
C958 H970 0.956 . S
C958 H971 0.961 . S
C958 H972 0.961 . S
C959 C956 1.539 . S
C959 H973 0.958 . S
C959 H974 0.961 . S
C959 H975 0.960 . S
H960 C944 0.931 . S
H961 C949 0.929 . S
H962 C950 0.960 . S
H963 C950 0.962 . S
H964 C950 0.960 . S
H965 C951 0.961 . S
H966 C951 0.961 . S
H967 C951 0.961 . S
H968 C952 0.931 . S
H969 C957 0.930 . S
H970 C958 0.956 . S
H971 C958 0.961 . S
H972 C958 0.961 . S
H973 C959 0.958 . S
H974 C959 0.961 . S
H975 C959 0.960 . S
C976 C977 1.391 . S
C976 C978 1.394 . S
C976 H992 0.931 . S
C977 C976 1.391 . S
C977 C981 1.376 . S
C978 C976 1.394 . S
C978 C979 1.369 . S
C978 C982 1.531 . S
C979 C978 1.369 . S
C979 C980 1.410 . S
C979 C987 1.503 . S
C980 C979 1.410 . S
C980 C981 1.392 . S
C980 C983 1.511 . S
C981 C977 1.376 . S
C981 C980 1.392 . S
C981 H993 0.929 . S
C982 C978 1.531 . S
C982 H994 0.960 . S
C982 H995 0.962 . S
C982 H996 0.960 . S
C983 C980 1.511 . S
C983 H997 0.961 . S
C983 H998 0.961 . S
C983 H999 0.961 . S
C984 C985 1.370 . S
C984 C986 1.363 . S
C984 H1000 0.931 . S
C985 C984 1.370 . S
C985 C989 1.408 . S
C986 C984 1.363 . S
C986 C987 1.370 . S
C986 C990 1.524 . S
C987 C979 1.503 . S
C987 C986 1.370 . S
C987 C988 1.403 . S
C988 C987 1.403 . S
C988 C989 1.404 . S
C988 C991 1.539 . S
C989 C985 1.408 . S
C989 C988 1.404 . S
C989 H1001 0.930 . S
C990 C986 1.524 . S
C990 H1002 0.956 . S
C990 H1003 0.961 . S
C990 H1004 0.961 . S
C991 C988 1.539 . S
C991 H1005 0.958 . S
C991 H1006 0.961 . S
C991 H1007 0.960 . S
H992 C976 0.931 . S
H993 C981 0.929 . S
H994 C982 0.960 . S
H995 C982 0.962 . S
H996 C982 0.960 . S
H997 C983 0.961 . S
H998 C983 0.961 . S
H999 C983 0.961 . S
H1000 C984 0.931 . S
H1001 C989 0.930 . S
H1002 C990 0.956 . S
H1003 C990 0.961 . S
H1004 C990 0.961 . S
H1005 C991 0.958 . S
H1006 C991 0.961 . S
H1007 C991 0.960 . S
C1008 C1009 1.391 . S
C1008 C1010 1.394 . S
C1008 H1024 0.931 . S
C1009 C1008 1.391 . S
C1009 C1013 1.376 . S
C1010 C1008 1.394 . S
C1010 C1011 1.369 . S
C1010 C1014 1.531 . S
C1011 C1010 1.369 . S
C1011 C1012 1.410 . S
C1011 C1019 1.503 . S
C1012 C1011 1.410 . S
C1012 C1013 1.392 . S
C1012 C1015 1.511 . S
C1013 C1009 1.376 . S
C1013 C1012 1.392 . S
C1013 H1025 0.929 . S
C1014 C1010 1.531 . S
C1014 H1026 0.960 . S
C1014 H1027 0.962 . S
C1014 H1028 0.960 . S
C1015 C1012 1.511 . S
C1015 H1029 0.961 . S
C1015 H1030 0.961 . S
C1015 H1031 0.961 . S
C1016 C1017 1.370 . S
C1016 C1018 1.363 . S
C1016 H1032 0.931 . S
C1017 C1016 1.370 . S
C1017 C1021 1.408 . S
C1018 C1016 1.363 . S
C1018 C1019 1.370 . S
C1018 C1022 1.524 . S
C1019 C1011 1.503 . S
C1019 C1018 1.370 . S
C1019 C1020 1.403 . S
C1020 C1019 1.403 . S
C1020 C1021 1.404 . S
C1020 C1023 1.539 . S
C1021 C1017 1.408 . S
C1021 C1020 1.404 . S
C1021 H1033 0.930 . S
C1022 C1018 1.524 . S
C1022 H1034 0.956 . S
C1022 H1035 0.961 . S
C1022 H1036 0.961 . S
C1023 C1020 1.539 . S
C1023 H1037 0.958 . S
C1023 H1038 0.961 . S
C1023 H1039 0.960 . S
H1024 C1008 0.931 . S
H1025 C1013 0.929 . S
H1026 C1014 0.960 . S
H1027 C1014 0.962 . S
H1028 C1014 0.960 . S
H1029 C1015 0.961 . S
H1030 C1015 0.961 . S
H1031 C1015 0.961 . S
H1032 C1016 0.931 . S
H1033 C1021 0.930 . S
H1034 C1022 0.956 . S
H1035 C1022 0.961 . S
H1036 C1022 0.961 . S
H1037 C1023 0.958 . S
H1038 C1023 0.961 . S
H1039 C1023 0.960 . S
C1040 C1041 1.391 . S
C1040 C1042 1.394 . S
C1040 H1056 0.931 . S
C1041 C1040 1.391 . S
C1041 C1045 1.376 . S
C1042 C1040 1.394 . S
C1042 C1043 1.369 . S
C1042 C1046 1.531 . S
C1043 C1042 1.369 . S
C1043 C1044 1.410 1_655 S
C1043 C1051 1.503 1_655 S
C1044 C1043 1.410 1_455 S
C1044 C1045 1.392 1_455 S
C1044 C1047 1.511 . S
C1045 C1041 1.376 . S
C1045 C1044 1.392 1_655 S
C1045 H1057 0.929 . S
C1046 C1042 1.531 . S
C1046 H1058 0.960 . S
C1046 H1059 0.962 . S
C1046 H1060 0.960 . S
C1047 C1044 1.511 . S
C1047 H1061 0.961 . S
C1047 H1062 0.961 . S
C1047 H1063 0.961 . S
C1048 C1049 1.370 . S
C1048 C1050 1.363 . S
C1048 H1064 0.931 . S
C1049 C1048 1.370 . S
C1049 C1053 1.408 . S
C1050 C1048 1.363 . S
C1050 C1051 1.370 . S
C1050 C1054 1.524 1_455 S
C1051 C1043 1.503 1_455 S
C1051 C1050 1.370 . S
C1051 C1052 1.403 . S
C1052 C1051 1.403 . S
C1052 C1053 1.404 . S
C1052 C1055 1.539 . S
C1053 C1049 1.408 . S
C1053 C1052 1.404 . S
C1053 H1065 0.930 . S
C1054 C1050 1.524 1_655 S
C1054 H1066 0.956 . S
C1054 H1067 0.961 1_655 S
C1054 H1068 0.961 1_655 S
C1055 C1052 1.539 . S
C1055 H1069 0.958 . S
C1055 H1070 0.961 . S
C1055 H1071 0.960 . S
H1056 C1040 0.931 . S
H1057 C1045 0.929 . S
H1058 C1046 0.960 . S
H1059 C1046 0.962 . S
H1060 C1046 0.960 . S
H1061 C1047 0.961 . S
H1062 C1047 0.961 . S
H1063 C1047 0.961 . S
H1064 C1048 0.931 . S
H1065 C1053 0.930 . S
H1066 C1054 0.956 . S
H1067 C1054 0.961 1_455 S
H1068 C1054 0.961 1_455 S
H1069 C1055 0.958 . S
H1070 C1055 0.961 . S
H1071 C1055 0.960 . S
C1072 C1073 1.391 . S
C1072 C1074 1.393 1_545 S
C1072 H1088 0.931 . S
C1073 C1072 1.391 . S
C1073 C1077 1.376 . S
C1074 C1072 1.393 1_565 S
C1074 C1075 1.355 1_565 S
C1074 C1078 1.545 . S
C1075 C1074 1.355 1_545 S
C1075 C1076 1.410 . S
C1075 C1083 1.503 1_545 S
C1076 C1075 1.410 . S
C1076 C1077 1.392 . S
C1076 C1079 1.511 . S
C1077 C1073 1.376 . S
C1077 C1076 1.392 . S
C1077 H1089 0.929 . S
C1078 C1074 1.545 . S
C1078 H1090 0.960 . S
C1078 H1091 0.962 . S
C1078 H1092 0.960 . S
C1079 C1076 1.511 . S
C1079 H1093 0.961 . S
C1079 H1094 0.961 . S
C1079 H1095 0.961 . S
C1080 C1081 1.370 . S
C1080 C1082 1.363 . S
C1080 H1096 0.931 . S
C1081 C1080 1.370 . S
C1081 C1085 1.408 . S
C1082 C1080 1.363 . S
C1082 C1083 1.370 . S
C1082 C1086 1.524 . S
C1083 C1075 1.503 1_565 S
C1083 C1082 1.370 . S
C1083 C1084 1.403 . S
C1084 C1083 1.403 . S
C1084 C1085 1.404 . S
C1084 C1087 1.539 1_565 S
C1085 C1081 1.408 . S
C1085 C1084 1.404 . S
C1085 H1097 0.930 . S
C1086 C1082 1.524 . S
C1086 H1098 0.956 . S
C1086 H1099 0.961 . S
C1086 H1100 0.961 . S
C1087 C1084 1.539 1_545 S
C1087 H1101 0.958 . S
C1087 H1102 0.961 . S
C1087 H1103 0.960 . S
H1088 C1072 0.931 . S
H1089 C1077 0.929 . S
H1090 C1078 0.960 . S
H1091 C1078 0.962 . S
H1092 C1078 0.960 . S
H1093 C1079 0.961 . S
H1094 C1079 0.961 . S
H1095 C1079 0.961 . S
H1096 C1080 0.931 . S
H1097 C1085 0.930 . S
H1098 C1086 0.956 . S
H1099 C1086 0.961 . S
H1100 C1086 0.961 . S
H1101 C1087 0.958 . S
H1102 C1087 0.961 . S
H1103 C1087 0.960 . S
C1104 C1105 1.391 . S
C1104 C1106 1.394 . S
C1104 H1120 0.931 . S
C1105 C1104 1.391 . S
C1105 C1109 1.376 . S
C1106 C1104 1.394 . S
C1106 C1107 1.369 . S
C1106 C1110 1.531 . S
C1107 C1106 1.369 . S
C1107 C1108 1.410 . S
C1107 C1115 1.503 . S
C1108 C1107 1.410 . S
C1108 C1109 1.392 . S
C1108 C1111 1.511 . S
C1109 C1105 1.376 . S
C1109 C1108 1.392 . S
C1109 H1121 0.929 . S
C1110 C1106 1.531 . S
C1110 H1122 0.960 . S
C1110 H1123 0.962 . S
C1110 H1124 0.960 . S
C1111 C1108 1.511 . S
C1111 H1125 0.961 . S
C1111 H1126 0.961 . S
C1111 H1127 0.961 . S
C1112 C1113 1.370 . S
C1112 C1114 1.363 . S
C1112 H1128 0.931 . S
C1113 C1112 1.370 . S
C1113 C1117 1.408 . S
C1114 C1112 1.363 . S
C1114 C1115 1.370 . S
C1114 C1118 1.524 . S
C1115 C1107 1.503 . S
C1115 C1114 1.370 . S
C1115 C1116 1.403 . S
C1116 C1115 1.403 . S
C1116 C1117 1.404 . S
C1116 C1119 1.539 . S
C1117 C1113 1.408 . S
C1117 C1116 1.404 . S
C1117 H1129 0.930 . S
C1118 C1114 1.524 . S
C1118 H1130 0.956 . S
C1118 H1131 0.961 . S
C1118 H1132 0.961 . S
C1119 C1116 1.539 . S
C1119 H1133 0.958 . S
C1119 H1134 0.961 . S
C1119 H1135 0.960 . S
H1120 C1104 0.931 . S
H1121 C1109 0.929 . S
H1122 C1110 0.960 . S
H1123 C1110 0.962 . S
H1124 C1110 0.960 . S
H1125 C1111 0.961 . S
H1126 C1111 0.961 . S
H1127 C1111 0.961 . S
H1128 C1112 0.931 . S
H1129 C1117 0.930 . S
H1130 C1118 0.956 . S
H1131 C1118 0.961 . S
H1132 C1118 0.961 . S
H1133 C1119 0.958 . S
H1134 C1119 0.961 . S
H1135 C1119 0.960 . S
C1136 C1137 1.391 . S
C1136 C1138 1.394 . S
C1136 H1152 0.931 . S
C1137 C1136 1.391 . S
C1137 C1141 1.376 . S
C1138 C1136 1.394 . S
C1138 C1139 1.369 . S
C1138 C1142 1.531 . S
C1139 C1138 1.369 . S
C1139 C1140 1.410 1_455 S
C1139 C1147 1.503 1_455 S
C1140 C1139 1.410 1_655 S
C1140 C1141 1.392 1_655 S
C1140 C1143 1.511 . S
C1141 C1137 1.376 . S
C1141 C1140 1.392 1_455 S
C1141 H1153 0.929 . S
C1142 C1138 1.531 . S
C1142 H1154 0.960 . S
C1142 H1155 0.962 . S
C1142 H1156 0.960 1_556 S
C1143 C1140 1.511 . S
C1143 H1157 0.961 . S
C1143 H1158 0.961 . S
C1143 H1159 0.961 . S
C1144 C1145 1.370 . S
C1144 C1146 1.363 . S
C1144 H1160 0.931 . S
C1145 C1144 1.370 . S
C1145 C1149 1.408 . S
C1146 C1144 1.363 . S
C1146 C1147 1.370 . S
C1146 C1150 1.524 1_655 S
C1147 C1139 1.503 1_655 S
C1147 C1146 1.370 . S
C1147 C1148 1.403 . S
C1148 C1147 1.403 . S
C1148 C1149 1.404 . S
C1148 C1151 1.539 . S
C1149 C1145 1.408 . S
C1149 C1148 1.404 . S
C1149 H1161 0.930 . S
C1150 C1146 1.524 1_455 S
C1150 H1162 0.956 . S
C1150 H1163 0.961 . S
C1150 H1164 0.961 . S
C1151 C1148 1.539 . S
C1151 H1165 0.958 1_556 S
C1151 H1166 0.961 . S
C1151 H1167 0.960 . S
H1152 C1136 0.931 . S
H1153 C1141 0.929 . S
H1154 C1142 0.960 . S
H1155 C1142 0.962 . S
H1156 C1142 0.960 1_554 S
H1157 C1143 0.961 . S
H1158 C1143 0.961 . S
H1159 C1143 0.961 . S
H1160 C1144 0.931 . S
H1161 C1149 0.930 . S
H1162 C1150 0.956 . S
H1163 C1150 0.961 . S
H1164 C1150 0.961 . S
H1165 C1151 0.958 1_554 S
H1166 C1151 0.961 . S
H1167 C1151 0.960 . S
C1168 C1169 1.391 . S
C1168 C1170 1.394 . S
C1168 H1184 0.931 . S
C1169 C1168 1.391 . S
C1169 C1173 1.376 . S
C1170 C1168 1.394 . S
C1170 C1171 1.369 . S
C1170 C1174 1.531 . S
C1171 C1170 1.369 . S
C1171 C1172 1.410 1_565 S
C1171 C1179 1.503 1_565 S
C1172 C1171 1.410 1_545 S
C1172 C1173 1.392 1_545 S
C1172 C1175 1.511 . S
C1173 C1169 1.376 . S
C1173 C1172 1.392 1_565 S
C1173 H1185 0.929 . S
C1174 C1170 1.531 . S
C1174 H1186 0.960 . S
C1174 H1187 0.962 . S
C1174 H1188 0.960 . S
C1175 C1172 1.511 . S
C1175 H1189 0.961 . S
C1175 H1190 0.961 . S
C1175 H1191 0.961 . S
C1176 C1177 1.370 . S
C1176 C1178 1.363 . S
C1176 H1192 0.931 . S
C1177 C1176 1.370 . S
C1177 C1181 1.408 . S
C1178 C1176 1.363 . S
C1178 C1179 1.370 . S
C1178 C1182 1.524 1_545 S
C1179 C1171 1.503 1_545 S
C1179 C1178 1.370 . S
C1179 C1180 1.403 . S
C1180 C1179 1.403 . S
C1180 C1181 1.404 . S
C1180 C1183 1.539 . S
C1181 C1177 1.408 . S
C1181 C1180 1.404 . S
C1181 H1193 0.930 . S
C1182 C1178 1.524 1_565 S
C1182 H1194 0.956 . S
C1182 H1195 0.961 . S
C1182 H1196 0.961 . S
C1183 C1180 1.539 . S
C1183 H1197 0.958 . S
C1183 H1198 0.961 . S
C1183 H1199 0.960 . S
H1184 C1168 0.931 . S
H1185 C1173 0.929 . S
H1186 C1174 0.960 . S
H1187 C1174 0.962 . S
H1188 C1174 0.960 . S
H1189 C1175 0.961 . S
H1190 C1175 0.961 . S
H1191 C1175 0.961 . S
H1192 C1176 0.931 . S
H1193 C1181 0.930 . S
H1194 C1182 0.956 . S
H1195 C1182 0.961 . S
H1196 C1182 0.961 . S
H1197 C1183 0.958 . S
H1198 C1183 0.961 . S
H1199 C1183 0.960 . S
C433 C255 1.324 . S
C441 C3 1.331 . S
C465 C39 1.326 . S
C473 C291 1.331 . S
C497 C75 1.314 . S
C505 C327 1.326 . S
C529 C111 1.315 . S
C537 C363 1.321 . S
C561 C399 1.331 . S
C569 C147 1.326 . S
C593 C219 1.311 . S
C601 C183 1.325 . S
C625 C362 1.391 . S
C633 C2 1.387 . S
C657 C38 1.385 . S
C665 C398 1.384 . S
C689 C74 1.376 . S
C697 C218 1.389 . S
C721 C254 1.380 . S
C729 C110 1.386 . S
C753 C290 1.378 . S
C761 C146 1.387 . S
C785 C326 1.381 . S
C793 C182 1.390 . S
C817 C14 1.584 . S
C825 C302 1.575 . S
C849 C50 1.610 . S
C857 C338 1.596 . S
C881 C374 1.588 . S
C889 C86 1.576 . S
C913 C122 1.590 . S
C921 C410 1.577 . S
C945 C230 1.585 . S
C953 C158 1.575 . S
C977 C266 1.595 . S
C985 C194 1.578 . S
C1009 C112 1.315 . S
C1017 C4 1.291 . S
C1041 C148 1.317 . S
C1049 C40 1.301 . S
C1073 C76 1.275 . S
C1081 C184 1.308 . S
C1105 C220 1.272 . S
C1113 C328 1.309 . S
C1137 C256 1.332 . S
C1145 C364 1.293 . S
C1169 C400 1.333 . S
C1177 C292 1.292 . S
