# Generated by pormake.
# Topology wiv, (6)-cn, num edge types: 1
# Building blocks:
#     Node 0, Type 0, BuildingBlock: KUMJIN_clean_sbu_1, # of connection points: 6
#     Node 1, Type 0, BuildingBlock: KUMJIN_clean_sbu_1, # of connection points: 6
#     Node 2, Type 0, BuildingBlock: KUMJIN_clean_sbu_1, # of connection points: 6
#     Node 3, Type 0, BuildingBlock: KUMJIN_clean_sbu_1, # of connection points: 6
#     Node 4, Type 0, BuildingBlock: KUMJIN_clean_sbu_1, # of connection points: 6
#     Node 5, Type 0, BuildingBlock: KUMJIN_clean_sbu_1, # of connection points: 6
#     Node 6, Type 0, BuildingBlock: KUMJIN_clean_sbu_1, # of connection points: 6
#     Node 7, Type 0, BuildingBlock: KUMJIN_clean_sbu_1, # of connection points: 6
#     Node 8, Type 0, BuildingBlock: KUMJIN_clean_sbu_1, # of connection points: 6
#     Node 9, Type 0, BuildingBlock: KUMJIN_clean_sbu_1, # of connection points: 6
#     Node 10, Type 0, BuildingBlock: KUMJIN_clean_sbu_1, # of connection points: 6
#     Node 11, Type 0, BuildingBlock: KUMJIN_clean_sbu_1, # of connection points: 6
#     Node 12, Type 0, BuildingBlock: KUMJIN_clean_sbu_1, # of connection points: 6
#     Node 13, Type 0, BuildingBlock: KUMJIN_clean_sbu_1, # of connection points: 6
#     Node 14, Type 0, BuildingBlock: KUMJIN_clean_sbu_1, # of connection points: 6
#     Node 15, Type 0, BuildingBlock: KUMJIN_clean_sbu_1, # of connection points: 6
#     Edge 16, Type (0, 0), BuildingBlock: AJUNOK_clean_linker_0, # of connection points: 2
#     Edge 17, Type (0, 0), BuildingBlock: AJUNOK_clean_linker_0, # of connection points: 2
#     Edge 18, Type (0, 0), BuildingBlock: AJUNOK_clean_linker_0, # of connection points: 2
#     Edge 19, Type (0, 0), BuildingBlock: AJUNOK_clean_linker_0, # of connection points: 2
#     Edge 20, Type (0, 0), BuildingBlock: AJUNOK_clean_linker_0, # of connection points: 2
#     Edge 21, Type (0, 0), BuildingBlock: AJUNOK_clean_linker_0, # of connection points: 2
#     Edge 22, Type (0, 0), BuildingBlock: AJUNOK_clean_linker_0, # of connection points: 2
#     Edge 23, Type (0, 0), BuildingBlock: AJUNOK_clean_linker_0, # of connection points: 2
#     Edge 24, Type (0, 0), BuildingBlock: AJUNOK_clean_linker_0, # of connection points: 2
#     Edge 25, Type (0, 0), BuildingBlock: AJUNOK_clean_linker_0, # of connection points: 2
#     Edge 26, Type (0, 0), BuildingBlock: AJUNOK_clean_linker_0, # of connection points: 2
#     Edge 27, Type (0, 0), BuildingBlock: AJUNOK_clean_linker_0, # of connection points: 2
#     Edge 28, Type (0, 0), BuildingBlock: AJUNOK_clean_linker_0, # of connection points: 2
#     Edge 29, Type (0, 0), BuildingBlock: AJUNOK_clean_linker_0, # of connection points: 2
#     Edge 30, Type (0, 0), BuildingBlock: AJUNOK_clean_linker_0, # of connection points: 2
#     Edge 31, Type (0, 0), BuildingBlock: AJUNOK_clean_linker_0, # of connection points: 2
#     Edge 32, Type (0, 0), BuildingBlock: AJUNOK_clean_linker_0, # of connection points: 2
#     Edge 33, Type (0, 0), BuildingBlock: AJUNOK_clean_linker_0, # of connection points: 2
#     Edge 34, Type (0, 0), BuildingBlock: AJUNOK_clean_linker_0, # of connection points: 2
#     Edge 35, Type (0, 0), BuildingBlock: AJUNOK_clean_linker_0, # of connection points: 2
#     Edge 36, Type (0, 0), BuildingBlock: AJUNOK_clean_linker_0, # of connection points: 2
#     Edge 37, Type (0, 0), BuildingBlock: AJUNOK_clean_linker_0, # of connection points: 2
#     Edge 38, Type (0, 0), BuildingBlock: AJUNOK_clean_linker_0, # of connection points: 2
#     Edge 39, Type (0, 0), BuildingBlock: AJUNOK_clean_linker_0, # of connection points: 2
#     Edge 40, Type (0, 0), BuildingBlock: AJUNOK_clean_linker_0, # of connection points: 2
#     Edge 41, Type (0, 0), BuildingBlock: AJUNOK_clean_linker_0, # of connection points: 2
#     Edge 42, Type (0, 0), BuildingBlock: AJUNOK_clean_linker_0, # of connection points: 2
#     Edge 43, Type (0, 0), BuildingBlock: AJUNOK_clean_linker_0, # of connection points: 2
#     Edge 44, Type (0, 0), BuildingBlock: AJUNOK_clean_linker_0, # of connection points: 2
#     Edge 45, Type (0, 0), BuildingBlock: AJUNOK_clean_linker_0, # of connection points: 2
#     Edge 46, Type (0, 0), BuildingBlock: AJUNOK_clean_linker_0, # of connection points: 2
#     Edge 47, Type (0, 0), BuildingBlock: AJUNOK_clean_linker_0, # of connection points: 2
#     Edge 48, Type (0, 0), BuildingBlock: AJUNOK_clean_linker_0, # of connection points: 2
#     Edge 49, Type (0, 0), BuildingBlock: AJUNOK_clean_linker_0, # of connection points: 2
#     Edge 50, Type (0, 0), BuildingBlock: AJUNOK_clean_linker_0, # of connection points: 2
#     Edge 51, Type (0, 0), BuildingBlock: AJUNOK_clean_linker_0, # of connection points: 2
#     Edge 52, Type (0, 0), BuildingBlock: AJUNOK_clean_linker_0, # of connection points: 2
#     Edge 53, Type (0, 0), BuildingBlock: AJUNOK_clean_linker_0, # of connection points: 2
#     Edge 54, Type (0, 0), BuildingBlock: AJUNOK_clean_linker_0, # of connection points: 2
#     Edge 55, Type (0, 0), BuildingBlock: AJUNOK_clean_linker_0, # of connection points: 2
#     Edge 56, Type (0, 0), BuildingBlock: AJUNOK_clean_linker_0, # of connection points: 2
#     Edge 57, Type (0, 0), BuildingBlock: AJUNOK_clean_linker_0, # of connection points: 2
#     Edge 58, Type (0, 0), BuildingBlock: AJUNOK_clean_linker_0, # of connection points: 2
#     Edge 59, Type (0, 0), BuildingBlock: AJUNOK_clean_linker_0, # of connection points: 2
#     Edge 60, Type (0, 0), BuildingBlock: AJUNOK_clean_linker_0, # of connection points: 2
#     Edge 61, Type (0, 0), BuildingBlock: AJUNOK_clean_linker_0, # of connection points: 2
#     Edge 62, Type (0, 0), BuildingBlock: AJUNOK_clean_linker_0, # of connection points: 2
#     Edge 63, Type (0, 0), BuildingBlock: AJUNOK_clean_linker_0, # of connection points: 2
# Relax obj value: 0.187
# Max RMSD: 0.235
# Mean RMSD: 0.235
data_MOF--net-wiv--node1-KUMJIN_clean_sbu_1--edge1-AJUNOK_clean_linker_0
_symmetry_space_group_name_H-M    P1
_symmetry_Int_Tables_number       1
_symmetry_cell_setting            triclinic
loop_
_symmetry_equiv_pos_as_xyz
'x, y, z'
_cell_length_a     36.684934
_cell_length_b     36.695521
_cell_length_c     20.170341
_cell_angle_alpha  90.043474
_cell_angle_beta   90.130931
_cell_angle_gamma 89.935593
loop_
_atom_site_label
_atom_site_type_symbol
_atom_site_fract_x
_atom_site_fract_y
_atom_site_fract_z
_atom_type_partial_charge
Eu0 Eu 0.38524 0.09792 0.05451 0.0
C1 C 0.23724 0.15791 0.17841 0.0
N2 N 0.27228 0.16449 0.18414 0.0
C3 C 0.25789 0.22894 0.22442 0.0
C4 C 0.19913 0.20098 0.21072 0.0
C5 C 0.28176 0.1984 0.20921 0.0
C6 C 0.21902 0.23107 0.22739 0.0
C7 C 0.16765 0.08452 0.20148 0.0
C8 C 0.22066 0.10318 0.17771 0.0
C9 C 0.12504 0.12726 0.23461 0.0
C10 C 0.14432 0.18478 0.24036 0.0
Eu11 Eu 0.30524 0.10599 0.17902 0.0
N12 N 0.2459 0.07866 0.16543 0.0
C13 C 0.1663 0.04751 0.18629 0.0
C14 C 0.23535 0.0431 0.15775 0.0
C15 C 0.19834 0.02974 0.16193 0.0
H16 H 0.30972 0.20308 0.22308 0.0
H17 H 0.19465 1.00174 0.14699 0.0
H18 H 0.44811 0.03563 0.08129 0.0
H19 H 0.41338 0.23886 0.97268 0.0
H20 H 0.25603 0.02331 0.14524 0.0
H21 H 0.14084 0.03281 0.19008 0.0
H22 H 0.38263 0.17911 0.9658 0.0
H23 H 0.27177 0.2532 0.24169 0.0
H24 H 0.13373 0.10022 0.21969 0.0
H25 H 0.12647 0.20512 0.26166 0.0
H26 H 0.51351 0.03227 0.11226 0.0
H27 H 0.20572 0.2545 0.24911 0.0
H28 H 0.46803 0.24628 0.04362 0.0
N29 N 0.44656 0.09348 0.08404 0.0
C30 C 0.46512 0.12478 0.09231 0.0
C31 C 0.50009 0.05845 0.10765 0.0
C32 C 0.50159 0.12424 0.11281 0.0
C33 C 0.46328 0.0604 0.09027 0.0
C34 C 0.51917 0.09061 0.12044 0.0
N35 N 0.41678 0.15431 0.03884 0.0
C36 C 0.40596 0.18224 0.99822 0.0
C37 C 0.46838 0.1898 0.07471 0.0
C38 C 0.44901 0.15674 0.07139 0.0
C39 C 0.45401 0.22031 0.04228 0.0
C40 C 0.42339 0.21613 1.00167 0.0
H41 H 0.54772 0.0893 0.13379 0.0
H42 H 0.54815 0.15638 0.1343 0.0
H43 H 0.5186 0.21531 0.10715 0.0
O44 O 0.4229 0.08855 0.97456 0.0
O45 O 0.39959 0.08925 0.16288 0.0
O46 O 0.36176 0.12778 0.21728 0.0
O47 O 0.37672 0.05168 0.98746 0.0
O48 O 0.35062 0.15079 0.05676 0.0
O49 O 0.33981 0.15616 0.16626 0.0
O50 O 0.32208 0.07818 0.2718 0.0
O51 O 0.28244 0.10417 0.06567 0.0
O52 O 0.33236 0.10427 0.99436 0.0
O53 O 0.27157 0.10705 0.26696 0.0
O54 O 0.3212 0.04704 0.15104 0.0
O55 O 0.38159 0.04886 0.12676 0.0
C56 C 0.39454 0.11308 0.21023 0.0
C57 C 0.40986 0.05044 0.88595 0.0
C58 C 0.39481 0.06293 0.77231 0.0
C59 C 0.42467 0.04225 0.75154 0.0
C60 C 0.43954 0.02927 0.86514 0.0
C61 C 0.44668 0.02523 0.79783 0.0
C62 C 0.38709 0.06708 0.83962 0.0
C63 C 0.34669 0.17147 0.10956 0.0
C64 C 0.40704 0.05858 0.95573 0.0
C65 C 0.52005 0.15713 0.12043 0.0
C66 C 0.50319 0.19021 0.10379 0.0
C67 C 0.29662 0.10502 1.00339 0.0
C68 C 0.30021 0.10833 0.36891 0.0
C69 C 0.31991 0.11281 0.5424 0.0
C70 C 0.32341 0.15392 0.53523 0.0
C71 C 0.30373 0.14879 0.36602 0.0
C72 C 0.30431 0.08636 0.43323 0.0
C73 C 0.31219 0.17304 0.4245 0.0
C74 C 0.35369 0.03151 0.15299 0.0
C75 C 0.29384 0.08978 0.30511 0.0
H76 H 0.43072 0.03922 0.69929 0.0
H77 H 0.4577 0.01674 0.90096 0.0
H78 H 0.46919 0.00916 0.78063 0.0
H79 H 0.3644 0.08383 0.85564 0.0
H80 H 0.33015 0.16886 0.58105 0.0
H81 H 0.3007 0.16201 0.31861 0.0
H82 H 0.30029 0.05778 0.41812 0.0
H83 H 0.31195 0.2005 0.40238 0.0
Eu84 Eu 0.10001 0.70769 0.83078 0.0
C85 C 0.12939 0.55263 0.91401 0.0
N86 N 0.09717 0.56796 0.92904 0.0
C87 C 0.0654 0.51459 0.89413 0.0
C88 C 0.13098 0.51792 0.88629 0.0
C89 C 0.06521 0.54945 0.92176 0.0
C90 C 0.09849 0.49919 0.87492 0.0
C91 C 0.19499 0.55627 0.91615 0.0
C92 C 0.16064 0.57134 0.9297 0.0
C93 C 0.19681 0.52253 0.88335 0.0
C94 C 0.16473 0.50331 0.86995 0.0
Eu95 Eu 0.09871 0.62936 0.95664 0.0
N96 N 0.15708 0.60178 0.96662 0.0
C97 C 0.22564 0.5734 0.94327 0.0
C98 C 0.18552 0.61293 1.0054 0.0
C99 C 0.22071 0.60029 0.99164 0.0
H100 H 0.03962 0.56235 0.93436 0.0
H101 H 0.24388 0.61069 0.01899 0.0
H102 H 0.19526 0.70764 0.77727 0.0
H103 H 0.98939 0.81264 0.83654 0.0
H104 H 0.18157 0.6337 0.04278 0.0
H105 H 0.25264 0.56267 0.93548 0.0
H106 H 0.01572 0.75357 0.8506 0.0
H107 H 0.04026 0.50018 0.88531 0.0
H108 H 0.22236 0.5094 0.8734 0.0
H109 H 0.16567 0.4766 0.84975 0.0
H110 H 0.24024 0.74652 0.74206 0.0
H111 H 0.09878 0.4737 0.84868 0.0
H112 H 0.02029 0.86948 0.80797 0.0
N113 N 0.15705 0.74368 0.82023 0.0
C114 C 0.14943 0.77853 0.82492 0.0
C115 C 0.21834 0.75994 0.76822 0.0
C116 C 0.19003 0.81782 0.78752 0.0
C117 C 0.19063 0.73527 0.7926 0.0
C118 C 0.21974 0.79878 0.76614 0.0
N119 N 0.07106 0.76686 0.84196 0.0
C120 C 0.03462 0.7755 0.84269 0.0
C121 C 0.07344 0.84575 0.81057 0.0
C122 C 0.09464 0.79336 0.83254 0.0
C123 C 0.03618 0.84512 0.81693 0.0
C124 C 0.01882 0.81141 0.83324 0.0
H125 H 0.2417 0.8126 0.74085 0.0
H126 H 0.18994 0.8901 0.73399 0.0
H127 H 0.10454 0.91632 0.75684 0.0
O128 O 0.07709 0.68396 0.73875 0.0
O129 O 0.09546 0.73131 0.94402 0.0
O130 O 0.09244 0.68215 0.01642 0.0
O131 O 0.08945 0.74064 0.74276 0.0
O132 O 0.04238 0.68761 0.86017 0.0
O133 O 0.05149 0.62774 0.88089 0.0
O134 O 0.09584 0.59489 0.04365 0.0
O135 O 0.09121 0.61213 0.84881 0.0
O136 O 0.12707 0.65192 0.79389 0.0
O137 O 0.04973 0.62961 0.01633 0.0
O138 O 0.14879 0.66856 0.95739 0.0
O139 O 0.15379 0.67904 0.84787 0.0
C140 C 0.09233 0.71772 1.00666 0.0
C141 C 0.10273 0.71182 0.64308 0.0
C142 C 0.12483 0.68964 0.47504 0.0
C143 C 0.16471 0.69841 0.49117 0.0
C144 C 0.14176 0.71929 0.65414 0.0
C145 C 0.17137 0.71691 0.60349 0.0
C146 C 0.0874 0.70044 0.57536 0.0
C147 C 0.03059 0.65369 0.85683 0.0
C148 C 0.08056 0.71384 0.7043 0.0
C149 C 0.17111 0.87191 0.7585 0.0
C150 C 0.11371 0.88951 0.77181 0.0
C151 C 0.1149 0.61789 0.80162 0.0
C152 C 0.05563 0.61354 0.12747 0.0
C153 C 0.07449 0.63166 0.23691 0.0
C154 C 0.03904 0.62446 0.26022 0.0
C155 C 0.02042 0.60656 0.15076 0.0
C156 C 0.08276 0.62666 0.1702 0.0
C157 C 0.01213 0.61226 0.21708 0.0
C158 C 0.16963 0.67482 0.90528 0.0
C159 C 0.06305 0.60611 0.05851 0.0
H160 H 0.18423 0.69489 0.45035 0.0
H161 H 0.14962 0.72642 0.70244 0.0
H162 H 0.19572 0.72503 0.632 0.0
H163 H 0.05793 0.69804 0.58291 0.0
H164 H 0.03217 0.62843 0.31197 0.0
H165 H 0.99942 0.59658 0.11755 0.0
H166 H 0.11012 0.63189 0.15227 0.0
H167 H 0.98495 0.60728 0.23519 0.0
Eu168 Eu 0.62055 0.90381 0.06797 0.0
C169 C 0.75244 0.8293 0.26012 0.0
N170 N 0.71909 0.83228 0.23517 0.0
C171 C 0.71338 0.76638 0.25783 0.0
C172 C 0.77562 0.78686 0.26282 0.0
C173 C 0.69832 0.80189 0.24813 0.0
C174 C 0.75106 0.75851 0.25797 0.0
C175 C 0.84273 0.86173 0.31939 0.0
C176 C 0.77148 0.86903 0.28266 0.0
C177 C 0.85561 0.81426 0.31325 0.0
C178 C 0.82345 0.77934 0.28596 0.0
Eu179 Eu 0.70067 0.89676 0.20523 0.0
N180 N 0.76469 0.90423 0.23916 0.0
C181 C 0.86697 0.90077 0.28861 0.0
C182 C 0.79477 0.93577 0.21978 0.0
C183 C 0.84355 0.93581 0.24078 0.0
H184 H 0.66906 0.80435 0.25174 0.0
H185 H 0.85971 0.95839 0.22292 0.0
H186 H 0.54845 0.95626 0.09897 0.0
H187 H 0.60177 0.76799 0.9551 0.0
H188 H 0.78497 0.95905 0.19204 0.0
H189 H 0.89635 0.90166 0.29272 0.0
H190 H 0.6284 0.82947 0.96343 0.0
H191 H 0.6947 0.74393 0.26485 0.0
H192 H 0.88393 0.80686 0.31968 0.0
H193 H 0.83328 0.75156 0.28483 0.0
H194 H 0.48463 0.94854 0.13811 0.0
H195 H 0.76036 0.73068 0.26318 0.0
H196 H 0.55096 0.74996 0.02978 0.0
N197 N 0.55971 0.89948 0.10141 0.0
C198 C 0.54637 0.86572 0.10974 0.0
C199 C 0.50225 0.92506 0.13248 0.0
C200 C 0.51261 0.86017 0.14002 0.0
C201 C 0.53797 0.92934 0.10956 0.0
C202 C 0.49042 0.89044 0.15204 0.0
N203 N 0.59455 0.84555 0.04408 0.0
C204 C 0.60641 0.82189 0.99629 0.0
C205 C 0.54802 0.80283 0.07661 0.0
C206 C 0.5642 0.83755 0.07916 0.0
C207 C 0.56259 0.77699 0.03315 0.0
C208 C 0.59125 0.787 0.99127 0.0
H209 H 0.46345 0.88679 0.1722 0.0
H210 H 0.47722 0.81962 0.18097 0.0
H211 H 0.506 0.76855 0.11958 0.0
O212 O 0.58119 0.91308 0.99079 0.0
O213 O 0.60575 0.91196 0.17656 0.0
O214 O 0.64255 0.87422 0.2361 0.0
O215 O 0.6247 0.95278 1.00641 0.0
O216 O 0.65943 0.85477 0.06064 0.0
O217 O 0.66721 0.85042 0.16969 0.0
O218 O 0.66811 0.91456 0.28973 0.0
O219 O 0.72374 0.90475 0.09018 0.0
O220 O 0.67516 0.90441 0.01323 0.0
O221 O 0.72584 0.92252 0.29268 0.0
O222 O 0.68589 0.95428 0.16557 0.0
O223 O 0.62489 0.94995 0.14382 0.0
C224 C 0.60941 0.88783 0.22389 0.0
C225 C 0.58757 0.95731 0.91023 0.0
C226 C 0.59695 0.9523 0.79299 0.0
C227 C 0.56446 0.97133 0.7816 0.0
C228 C 0.55587 0.97745 0.89925 0.0
C229 C 0.54436 0.98425 0.83509 0.0
C230 C 0.60835 0.94468 0.85756 0.0
C231 C 0.67111 0.8361 0.1116 0.0
C232 C 0.5941 0.94503 0.97646 0.0
C233 C 0.50077 0.8245 0.15076 0.0
C234 C 0.5176 0.79565 0.11683 0.0
C235 C 0.71058 0.90569 0.02583 0.0
C236 C 0.69772 0.9019 0.39178 0.0
C237 C 0.67675 0.90165 0.56406 0.0
C238 C 0.67498 0.86044 0.56178 0.0
C239 C 0.69638 0.86112 0.39285 0.0
C240 C 0.69255 0.92483 0.45376 0.0
C241 C 0.68836 0.83779 0.45384 0.0
C242 C 0.65273 0.96888 0.1662 0.0
C243 C 0.69624 0.92108 0.32707 0.0
H244 H 0.555 0.97639 0.73154 0.0
H245 H 0.53924 0.9867 0.94035 0.0
H246 H 0.51985 0.99949 0.82768 0.0
H247 H 0.63237 0.92808 0.86668 0.0
H248 H 0.66787 0.84707 0.60893 0.0
H249 H 0.69886 0.84719 0.34686 0.0
H250 H 0.69901 0.952 0.4385 0.0
H251 H 0.69005 0.80963 0.43521 0.0
Eu252 Eu 0.89497 0.29679 0.82623 0.0
C253 C 0.8832 0.45669 0.90942 0.0
N254 N 0.91267 0.43633 0.92427 0.0
C255 C 0.95198 0.48483 0.89026 0.0
C256 C 0.8867 0.49102 0.87985 0.0
C257 C 0.94694 0.45022 0.91787 0.0
C258 C 0.92169 0.50505 0.86976 0.0
C259 C 0.81835 0.46513 0.91934 0.0
C260 C 0.84978 0.44398 0.92885 0.0
C261 C 0.82071 0.49674 0.88073 0.0
C262 C 0.85516 0.51008 0.8621 0.0
Eu263 Eu 0.90127 0.37529 0.95342 0.0
N264 N 0.84893 0.41281 0.96408 0.0
C265 C 0.78635 0.45482 0.95187 0.0
C266 C 0.81957 0.40524 1.00313 0.0
C267 C 0.7874 0.4256 0.99636 0.0
H268 H 0.97021 0.43414 0.93236 0.0
H269 H 0.76344 0.4185 0.02473 0.0
H270 H 0.81117 0.2945 0.76337 0.0
H271 H 0.95686 0.14688 0.75898 0.0
H272 H 0.82048 0.38238 0.03694 0.0
H273 H 0.76162 0.47067 0.94663 0.0
H274 H 0.95804 0.22796 0.77064 0.0
H275 H 0.97902 0.49567 0.88372 0.0
H276 H 0.79631 0.51192 0.86831 0.0
H277 H 0.85756 0.5357 0.8366 0.0
H278 H 0.75029 0.26913 0.78485 0.0
H279 H 0.92552 0.53162 0.84766 0.0
H280 H 0.89446 0.10907 0.81273 0.0
N281 N 0.8368 0.26663 0.84159 0.0
C282 C 0.83597 0.23291 0.8691 0.0
C283 C 0.77368 0.26015 0.81327 0.0
C284 C 0.80261 0.21378 0.87971 0.0
C285 C 0.80765 0.27592 0.80339 0.0
C286 C 0.77094 0.23026 0.8549 0.0
N287 N 0.9015 0.23261 0.82619 0.0
C288 C 0.93585 0.21201 0.78999 0.0
C289 C 0.86145 0.16447 0.8542 0.0
C290 C 0.86593 0.213 0.85661 0.0
C291 C 0.89643 0.13842 0.8159 0.0
C292 C 0.93493 0.16178 0.7825 0.0
H293 H 0.74526 0.21634 0.8554 0.0
H294 H 0.77501 0.16339 0.90598 0.0
H295 H 0.8252 0.12195 0.88473 0.0
O296 O 0.92865 0.30425 0.73793 0.0
O297 O 0.90943 0.27743 0.9382 0.0
O298 O 0.87948 0.32141 0.99604 0.0
O299 O 0.88583 0.26515 0.7374 0.0
O300 O 0.95543 0.30889 0.84919 0.0
O301 O 0.95593 0.36576 0.89863 0.0
O302 O 0.90528 0.40537 0.04488 0.0
O303 O 0.91677 0.39123 0.84804 0.0
O304 O 0.87889 0.35581 0.78688 0.0
O305 O 0.94098 0.35793 0.02786 0.0
O306 O 0.84588 0.3469 0.93806 0.0
O307 O 0.84685 0.33597 0.82825 0.0
C308 C 0.89611 0.28954 0.99664 0.0
C309 C 0.89848 0.29222 0.63502 0.0
C310 C 0.91111 0.31821 0.4657 0.0
C311 C 0.8708 0.32693 0.46227 0.0
C312 C 0.85895 0.3011 0.6275 0.0
C313 C 0.8412 0.31494 0.56478 0.0
C314 C 0.92604 0.29554 0.57787 0.0
C315 C 0.97277 0.33915 0.86631 0.0
C316 C 0.91056 0.28099 0.70197 0.0
C317 C 0.80112 0.1757 0.89526 0.0
C318 C 0.82959 0.15103 0.88121 0.0
C319 C 0.89429 0.38824 0.79801 0.0
C320 C 0.95385 0.39686 0.11983 0.0
C321 C 0.96996 0.39047 0.23494 0.0
C322 C 0.98896 0.42362 0.23239 0.0
C323 C 0.97272 0.42992 0.11626 0.0
C324 C 0.95256 0.37744 0.17843 0.0
C325 C 0.99048 0.44319 0.17286 0.0
C326 C 0.82846 0.34494 0.88116 0.0
C327 C 0.93022 0.38364 0.06817 0.0
H328 H 0.8611 0.33749 0.41424 0.0
H329 H 0.84133 0.29801 0.66976 0.0
H330 H 0.81239 0.31785 0.57919 0.0
H331 H 0.95201 0.28662 0.59905 0.0
H332 H 1.00188 0.43457 0.27641 0.0
H333 H 0.97304 0.44559 0.07079 0.0
H334 H 0.93562 0.35317 0.18112 0.0
H335 H 0.00491 0.46886 0.1709 0.0
Eu336 Eu 0.37826 0.40422 0.21792 0.0
C337 C 0.21215 0.39404 0.10444 0.0
N338 N 0.24266 0.37546 0.11983 0.0
C339 C 0.20549 0.32205 0.14666 0.0
C340 C 0.16923 0.37443 0.11528 0.0
C341 C 0.23943 0.34036 0.14167 0.0
C342 C 0.17127 0.33797 0.1338 0.0
C343 C 0.18124 0.46325 0.04353 0.0
C344 C 0.21761 0.4368 0.07241 0.0
C345 C 0.13602 0.44608 0.04477 0.0
C346 C 0.12602 0.40111 0.09228 0.0
Eu347 Eu 0.29871 0.40871 0.09801 0.0
N348 N 0.25093 0.45142 0.07667 0.0
C349 C 0.18977 0.49955 0.0374 0.0
C350 C 0.25534 0.48717 0.06109 0.0
C351 C 0.22581 0.51088 0.04938 0.0
H352 H 0.26348 0.32512 0.15496 0.0
H353 H 0.23171 0.5394 0.05149 0.0
H354 H 0.35827 0.48556 0.2885 0.0
H355 H 0.51044 0.34728 0.1493 0.0
H356 H 0.28221 0.49851 0.05924 0.0
H357 H 0.16832 0.51927 0.02973 0.0
H358 H 0.44414 0.34727 0.16003 0.0
H359 H 0.2059 0.29375 0.16053 0.0
H360 H 0.11485 0.46343 0.024 0.0
H361 H 0.08484 0.41587 0.19157 0.0
H362 H 0.39064 0.53197 0.35423 0.0
H363 H 0.14691 0.32158 0.13759 0.0
H364 H 0.54655 0.39563 0.20723 0.0
N365 N 0.40644 0.45609 0.26421 0.0
C366 C 0.44326 0.4539 0.27071 0.0
C367 C 0.40574 0.51029 0.33052 0.0
C368 C 0.46263 0.47933 0.30953 0.0
C369 C 0.3875 0.48388 0.2931 0.0
C370 C 0.44342 0.50794 0.33883 0.0
N371 N 0.4422 0.39905 0.20902 0.0
C372 C 0.45952 0.36975 0.18063 0.0
C373 C 0.49947 0.42195 0.24749 0.0
C374 C 0.4616 0.42522 0.24089 0.0
C375 C 0.51732 0.39571 0.20939 0.0
C376 C 0.49724 0.36895 0.17652 0.0
H377 H 0.45742 0.52811 0.36836 0.0
H378 H 0.51536 0.49332 0.35122 0.0
H379 H 0.54757 0.44249 0.29751 0.0
O380 O 0.41359 0.3744 0.28598 0.0
O381 O 0.39959 0.38867 0.1189 0.0
O382 O 0.3531 0.3892 0.04362 0.0
O383 O 0.35664 0.38159 0.3095 0.0
O384 O 0.36222 0.3472 0.18064 0.0
O385 O 0.31662 0.34994 0.10185 0.0
O386 O 0.31403 0.43408 1.00567 0.0
O387 O 0.27896 0.40281 0.21026 0.0
O388 O 0.32637 0.42983 0.26401 0.0
O389 O 0.26853 0.39621 1.00875 0.0
O390 O 0.31973 0.4653 0.13343 0.0
O391 O 0.3801 0.45679 0.15407 0.0
C392 C 0.38819 0.3843 0.05857 0.0
C393 C 0.40081 0.39813 0.38969 0.0
C394 C 0.38318 0.43609 0.48157 0.0
C395 C 0.41959 0.4386 0.50216 0.0
C396 C 0.4375 0.40067 0.40961 0.0
C397 C 0.44693 0.42207 0.46443 0.0
C398 C 0.37486 0.41928 0.42167 0.0
C399 C 0.3401 0.3314 0.13759 0.0
C400 C 0.38962 0.37624 0.33254 0.0
C401 C 0.50018 0.4746 0.32014 0.0
C402 C 0.51848 0.44558 0.28994 0.0
C403 C 0.29322 0.41593 0.26659 0.0
C404 C 0.30335 0.39681 0.91318 0.0
C405 C 0.31088 0.39451 0.78483 0.0
C406 C 0.31889 0.35582 0.80535 0.0
C407 C 0.31428 0.36135 0.92188 0.0
C408 C 0.3027 0.41291 0.8497 0.0
C409 C 0.32158 0.34092 0.86814 0.0
C410 C 0.35361 0.47753 0.13 0.0
C411 C 0.28974 0.41596 0.97131 0.0
H412 H 0.42645 0.45055 0.54961 0.0
H413 H 0.4587 0.38626 0.38301 0.0
H414 H 0.4751 0.42378 0.48016 0.0
H415 H 0.34671 0.41892 0.4051 0.0
H416 H 0.32464 0.33327 0.77452 0.0
H417 H 0.31517 0.34867 0.97013 0.0
H418 H 0.29364 0.44071 0.85379 0.0
H419 H 0.32861 0.31242 0.87502 0.0
Eu420 Eu 0.40871 0.7055 0.93892 0.0
C421 C 0.39892 0.54055 0.86766 0.0
N422 N 0.4246 0.5652 0.85085 0.0
C423 C 0.47106 0.52129 0.87388 0.0
C424 C 0.4085 0.50504 0.88826 0.0
C425 C 0.46045 0.55557 0.85067 0.0
C426 C 0.44508 0.49522 0.88934 0.0
C427 C 0.33573 0.52477 0.87473 0.0
C428 C 0.36289 0.55035 0.86133 0.0
C429 C 0.34503 0.49174 0.90408 0.0
C430 C 0.38135 0.48112 0.90948 0.0
Eu431 Eu 0.40381 0.62449 0.82465 0.0
N432 N 0.35455 0.58325 0.83497 0.0
C433 C 0.30037 0.53182 0.85383 0.0
C434 C 0.32092 0.58847 0.80748 0.0
C435 C 0.29297 0.56347 0.81843 0.0
H436 H 0.48096 0.57463 0.8345 0.0
H437 H 0.266 0.56828 0.79932 0.0
H438 H 0.3465 0.72443 0.819 0.0
H439 H 0.47208 0.85768 0.02453 0.0
H440 H 0.31635 0.6109 0.77428 0.0
H441 H 0.27956 0.51159 0.86072 0.0
H442 H 0.47508 0.7858 0.97967 0.0
H443 H 0.49918 0.51507 0.88246 0.0
H444 H 0.32395 0.47407 0.91974 0.0
H445 H 0.38805 0.45445 0.92915 0.0
H446 H 0.28937 0.753 0.7998 0.0
H447 H 0.45366 0.46851 0.90628 0.0
H448 H 0.40885 0.8935 0.07197 0.0
N449 N 0.35106 0.73776 0.92043 0.0
C450 C 0.33828 0.75902 0.96947 0.0
C451 C 0.30038 0.75559 0.84885 0.0
C452 C 0.29933 0.78725 0.95292 0.0
C453 C 0.33435 0.73885 0.86002 0.0
C454 C 0.28215 0.7777 0.89482 0.0
N455 N 0.41426 0.76554 0.99523 0.0
C456 C 0.44905 0.7948 0.99888 0.0
C457 C 0.3643 0.84178 0.06632 0.0
C458 C 0.37357 0.77244 0.0195 0.0
C459 C 0.40752 0.86454 0.06223 0.0
C460 C 0.44754 0.8417 0.02974 0.0
H461 H 0.25804 0.79243 0.87991 0.0
H462 H 0.26748 0.84756 0.96528 0.0
H463 H 0.3154 0.88806 0.04561 0.0
O464 O 0.43855 0.72769 0.01966 0.0
O465 O 0.41719 0.72608 0.82781 0.0
O466 O 0.4114 0.67519 0.76128 0.0
O467 O 0.44176 0.66975 1.00271 0.0
O468 O 0.46205 0.69748 0.88162 0.0
O469 O 0.4597 0.6363 0.87295 0.0
O470 O 0.38214 0.60479 0.73115 0.0
O471 O 0.41468 0.60772 0.93023 0.0
O472 O 0.3837 0.65076 0.98805 0.0
O473 O 0.44174 0.60996 0.7467 0.0
O474 O 0.34904 0.65508 0.84257 0.0
O475 O 0.35236 0.6783 0.94755 0.0
C476 C 0.41604 0.71047 0.7674 0.0
C477 C 0.43971 0.69213 0.11023 0.0
C478 C 0.43437 0.69219 0.23716 0.0
C479 C 0.43789 0.68793 0.3012 0.0
C480 C 0.40691 0.70241 0.13458 0.0
C481 C 0.41164 0.703 0.21322 0.0
C482 C 0.46281 0.68585 0.16147 0.0
C483 C 0.47909 0.66591 0.88506 0.0
C484 C 0.44964 0.69669 0.04237 0.0
C485 C 0.29105 0.83334 0.9846 0.0
C486 C 0.32131 0.85952 0.03776 0.0
C487 C 0.39313 0.61557 0.97966 0.0
C488 C 0.42103 0.58508 0.64489 0.0
C489 C 0.42132 0.59547 0.52871 0.0
C490 C 0.43358 0.5596 0.51827 0.0
C491 C 0.43345 0.5494 0.63615 0.0
C492 C 0.4138 0.60768 0.59178 0.0
C493 C 0.43946 0.53653 0.57218 0.0
C494 C 0.33262 0.66427 0.89878 0.0
C495 C 0.41486 0.59921 0.70922 0.0
H496 H 0.4523 0.71365 0.35945 0.0
H497 H 0.38454 0.71203 0.1029 0.0
H498 H 0.38221 0.7141 0.20149 0.0
H499 H 0.491 0.67918 0.15103 0.0
H500 H 0.4398 0.55008 0.46896 0.0
H501 H 0.43843 0.53182 0.67839 0.0
H502 H 0.40461 0.6355 0.59981 0.0
H503 H 0.44963 0.50923 0.5645 0.0
Eu504 Eu 0.6316 0.60697 0.1728 0.0
C505 C 0.75466 0.67284 0.97962 0.0
N506 N 0.72108 0.66822 1.00284 0.0
C507 C 0.70966 0.73155 0.96884 0.0
C508 C 0.77435 0.71659 0.97036 0.0
C509 C 0.69747 0.69603 0.98805 0.0
C510 C 0.74683 0.74249 0.96666 0.0
C511 C 0.84591 0.6446 0.91667 0.0
C512 C 0.7762 0.63381 0.96053 0.0
C513 C 0.8555 0.69312 0.91738 0.0
C514 C 0.82123 0.72674 0.94347 0.0
Eu515 Eu 0.71034 0.60573 0.04834 0.0
N516 N 0.77328 0.59984 1.00856 0.0
C517 C 0.87342 0.60819 0.94871 0.0
C518 C 0.80623 0.5717 0.02985 0.0
C519 C 0.85397 0.57376 1.00322 0.0
H520 H 0.66858 0.692 0.99409 0.0
H521 H 0.87222 0.55304 0.02213 0.0
H522 H 0.66994 0.53079 0.23457 0.0
H523 H 0.49095 0.63121 0.08944 0.0
H524 H 0.7994 0.55003 0.06392 0.0
H525 H 0.90248 0.60825 0.93969 0.0
H526 H 0.55416 0.64956 0.11578 0.0
H527 H 0.68911 0.75218 0.96 0.0
H528 H 0.88308 0.70218 0.90831 0.0
H529 H 0.82885 0.75515 0.94052 0.0
H530 H 0.65456 0.46484 0.23551 0.0
H531 H 0.75359 0.77045 0.95505 0.0
H532 H 0.46784 0.57263 0.12777 0.0
N533 N 0.61798 0.54642 0.19728 0.0
C534 C 0.58311 0.53643 0.18439 0.0
C535 C 0.63423 0.4849 0.2219 0.0
C536 C 0.57325 0.49978 0.18594 0.0
C537 C 0.64273 0.52203 0.22168 0.0
C538 C 0.59972 0.47395 0.20054 0.0
N539 N 0.5694 0.59658 0.15022 0.0
C540 C 0.5455 0.62205 0.1261 0.0
C541 C 0.52119 0.55246 0.15433 0.0
C542 C 0.55802 0.56224 0.16293 0.0
C543 C 0.49648 0.57873 0.133 0.0
C544 C 0.50916 0.61277 0.11453 0.0
H545 H 0.59325 0.44586 0.19376 0.0
H546 H 0.53089 0.4618 0.16417 0.0
H547 H 0.48275 0.50777 0.1587 0.0
O548 O 0.5899 0.63362 0.23152 0.0
O549 O 0.6177 0.64652 0.09027 0.0
O550 O 0.65104 0.62063 1.00725 0.0
O551 O 0.64004 0.61568 0.27832 0.0
O552 O 0.65167 0.66165 0.14175 0.0
O553 O 0.71111 0.6597 0.10692 0.0
O554 O 0.67264 0.58492 0.97366 0.0
O555 O 0.73361 0.59122 0.15966 0.0
O556 O 0.68493 0.60155 0.23044 0.0
O557 O 0.73121 0.57503 0.9639 0.0
O558 O 0.6973 0.54891 0.0917 0.0
O559 O 0.63663 0.55915 0.09654 0.0
C560 C 0.62192 0.63967 0.02713 0.0
C561 C 0.58662 0.61302 0.34081 0.0
C562 C 0.58276 0.60211 0.45768 0.0
C563 C 0.5504 0.58243 0.44862 0.0
C564 C 0.55385 0.59386 0.33113 0.0
C565 C 0.53599 0.57838 0.38514 0.0
C566 C 0.60086 0.61708 0.40398 0.0
C567 C 0.68304 0.67755 0.1323 0.0
C568 C 0.60726 0.62869 0.28671 0.0
C569 C 0.5377 0.48983 0.1701 0.0
C570 C 0.51086 0.51617 0.16228 0.0
C571 C 0.71983 0.59456 0.22239 0.0
C572 C 0.69728 0.5858 0.86639 0.0
C573 C 0.68219 0.60513 0.74263 0.0
C574 C 0.67034 0.60981 0.67949 0.0
C575 C 0.70784 0.61909 0.84531 0.0
C576 C 0.68178 0.56925 0.81241 0.0
C577 C 0.69811 0.62206 0.76735 0.0
C578 C 0.66382 0.53621 0.08393 0.0
C579 C 0.69908 0.57321 0.93533 0.0
H580 H 0.53631 0.5705 0.49048 0.0
H581 H 0.54187 0.59104 0.28253 0.0
H582 H 0.51083 0.56365 0.3779 0.0
H583 H 0.62645 0.63147 0.41134 0.0
H584 H 0.68839 0.60984 0.60903 0.0
H585 H 0.72109 0.63853 0.87823 0.0
H586 H 0.66819 0.54349 0.8163 0.0
H587 H 0.72043 0.64446 0.78108 0.0
Eu588 Eu 0.60048 0.30022 0.94411 0.0
C589 C 0.56835 0.45465 0.81301 0.0
N590 N 0.55461 0.42165 0.79543 0.0
C591 C 0.50119 0.44989 0.7506 0.0
C592 C 0.5483 0.48667 0.80175 0.0
C593 C 0.52113 0.41862 0.76629 0.0
C594 C 0.51534 0.48409 0.76669 0.0
C595 C 0.61747 0.49009 0.86117 0.0
C596 C 0.60391 0.45699 0.83676 0.0
C597 C 0.5955 0.52126 0.8587 0.0
C598 C 0.56196 0.52005 0.82525 0.0
Eu599 Eu 0.59457 0.37262 0.81102 0.0
N600 N 0.62517 0.42673 0.83714 0.0
C601 C 0.6528 0.49062 0.88726 0.0
C602 C 0.66148 0.42898 0.8513 0.0
C603 C 0.67577 0.46087 0.878 0.0
H604 H 0.51063 0.39208 0.75283 0.0
H605 H 0.70395 0.46204 0.89355 0.0
H606 H 0.69126 0.2989 1.00714 0.0
H607 H 0.50268 0.18472 0.95033 0.0
H608 H 0.67899 0.40597 0.84484 0.0
H609 H 0.66297 0.51425 0.91271 0.0
H610 H 0.52139 0.2482 0.94301 0.0
H611 H 0.47519 0.44768 0.72549 0.0
H612 H 0.60514 0.5469 0.87881 0.0
H613 H 0.54652 0.54499 0.81886 0.0
H614 H 0.74446 0.26011 1.00564 0.0
H615 H 0.50027 0.50832 0.75287 0.0
H616 H 0.54452 0.13334 0.96911 0.0
N617 N 0.65511 0.263 0.959 0.0
C618 C 0.64886 0.2275 0.95299 0.0
C619 C 0.71911 0.24915 0.98665 0.0
C620 C 0.68521 0.19593 0.95455 0.0
C621 C 0.68839 0.27276 0.98412 0.0
C622 C 0.71812 0.21181 0.97096 0.0
N623 N 0.57806 0.23883 0.95114 0.0
C624 C 0.54243 0.22787 0.94947 0.0
C625 C 0.59233 0.16684 0.9684 0.0
C626 C 0.60409 0.21374 0.95931 0.0
C627 C 0.55516 0.16076 0.96582 0.0
C628 C 0.53143 0.19064 0.95498 0.0
H629 H 0.74158 0.19495 0.98093 0.0
H630 H 0.69689 0.12668 0.96811 0.0
H631 H 0.62085 0.10427 0.97591 0.0
O632 O 0.57628 0.32848 0.03051 0.0
O633 O 0.60362 0.27643 0.83154 0.0
O634 O 0.57122 0.31856 0.77296 0.0
O635 O 0.5918 0.27174 0.03536 0.0
O636 O 0.54056 0.31335 0.913 0.0
O637 O 0.54115 0.37144 0.87178 0.0
O638 O 0.63391 0.38914 0.7366 0.0
O639 O 0.59855 0.39675 0.91513 0.0
O640 O 0.6284 0.35548 0.98028 0.0
O641 O 0.57727 0.37756 0.70854 0.0
O642 O 0.64809 0.3404 0.81866 0.0
O643 O 0.65349 0.32918 0.92819 0.0
C644 C 0.58882 0.28725 0.77325 0.0
C645 C 0.60089 0.30431 0.13103 0.0
C646 C 0.62664 0.31393 0.25258 0.0
C647 C 0.63751 0.32288 0.31639 0.0
C648 C 0.63051 0.2845 0.15006 0.0
C649 C 0.6394 0.2959 0.22605 0.0
C650 C 0.5912 0.32464 0.1843 0.0
C651 C 0.52422 0.34526 0.90453 0.0
C652 C 0.58124 0.29997 0.06849 0.0
C653 C 0.67516 0.14646 0.96318 0.0
C654 C 0.6278 0.13275 0.9708 0.0
C655 C 0.61996 0.39001 0.96602 0.0
C656 C 0.61101 0.4174 0.64013 0.0
C657 C 0.61537 0.42398 0.52275 0.0
C658 C 0.59661 0.45713 0.525 0.0
C659 C 0.59189 0.45045 0.64385 0.0
C660 C 0.62617 0.40668 0.58085 0.0
C661 C 0.58596 0.47103 0.58647 0.0
C662 C 0.66852 0.33724 0.87176 0.0
C663 C 0.60937 0.38894 0.68988 0.0
H664 H 0.66473 0.30955 0.37237 0.0
H665 H 0.64292 0.26447 0.11572 0.0
H666 H 0.65803 0.27147 0.20626 0.0
H667 H 0.56859 0.34313 0.18157 0.0
H668 H 0.58824 0.4707 0.47979 0.0
H669 H 0.58026 0.4597 0.68932 0.0
H670 H 0.64047 0.3807 0.57802 0.0
H671 H 0.57041 0.49603 0.58913 0.0
Eu672 Eu 0.88353 0.59567 0.55426 0.0
C673 C 0.72548 0.63486 0.66759 0.0
N674 N 0.75871 0.64827 0.66951 0.0
C675 C 0.73238 0.70683 0.71601 0.0
C676 C 0.68089 0.66819 0.70053 0.0
C677 C 0.76123 0.68379 0.69116 0.0
C678 C 0.69416 0.70171 0.71681 0.0
C679 C 0.67378 0.54974 0.69863 0.0
C680 C 0.72135 0.57724 0.66986 0.0
C681 C 0.62711 0.58153 0.74867 0.0
C682 C 0.6335 0.64228 0.75049 0.0
Eu683 Eu 0.80402 0.59761 0.66922 0.0
N684 N 0.75068 0.5582 0.65614 0.0
C685 C 0.67952 0.51293 0.69097 0.0
C686 C 0.74612 0.52128 0.6486 0.0
C687 C 0.71353 0.50062 0.6645 0.0
H688 H 0.78726 0.69451 0.70033 0.0
H689 H 0.7155 0.4715 0.65658 0.0
H690 H 0.91296 0.51227 0.51195 0.0
H691 H 0.96078 0.71528 0.63732 0.0
H692 H 0.76818 0.50597 0.62728 0.0
H693 H 0.6584 0.49372 0.70422 0.0
H694 H 0.90922 0.68523 0.58352 0.0
H695 H 0.74134 0.73021 0.74414 0.0
H696 H 0.60262 0.5689 0.76578 0.0
H697 H 0.61342 0.65899 0.7753 0.0
H698 H 0.97202 0.48043 0.49881 0.0
H699 H 0.67681 0.72109 0.74205 0.0
H700 H 0.01693 0.68116 0.65988 0.0
N701 N 0.9371 0.56099 0.54841 0.0
C702 C 0.96806 0.57828 0.5675 0.0
C703 C 0.97119 0.50781 0.51875 0.0
C704 C 1.00188 0.56018 0.56549 0.0
C705 C 0.93793 0.52589 0.52607 0.0
C706 C 0.00337 0.52544 0.53697 0.0
N707 N 0.9341 0.63289 0.58193 0.0
C708 C 0.93284 0.66938 0.59452 0.0
C709 C 0.99738 0.63156 0.61442 0.0
C710 C 0.96621 0.61446 0.58787 0.0
C711 C 0.99458 0.6677 0.63524 0.0
C712 C 0.96269 0.68704 0.62294 0.0
H713 H 0.02918 0.51175 0.52984 0.0
H714 H 0.05886 0.56301 0.59366 0.0
H715 H 0.054 0.62452 0.64192 0.0
O716 O 0.90999 0.62117 0.46883 0.0
O717 O 0.90322 0.58722 0.65914 0.0
O718 O 0.86056 0.62173 0.71101 0.0
O719 O 0.88098 0.56804 0.46125 0.0
O720 O 0.85405 0.65191 0.56061 0.0
O721 O 0.83148 0.65242 0.6657 0.0
O722 O 0.82617 0.5763 0.76273 0.0
O723 O 0.78475 0.60375 0.55523 0.0
O724 O 0.8307 0.5726 0.50647 0.0
O725 O 0.77043 0.59216 0.75703 0.0
O726 O 0.82417 0.5397 0.64345 0.0
O727 O 0.88443 0.5448 0.62178 0.0
C728 C 0.89483 0.60911 0.70756 0.0
C729 C 0.91463 0.58648 0.36808 0.0
C730 C 0.90463 0.59597 0.25227 0.0
C731 C 0.92418 0.56371 0.23843 0.0
C732 C 0.93436 0.5546 0.35513 0.0
C733 C 0.93981 0.54364 0.28985 0.0
C734 C 0.90154 0.608 0.31703 0.0
C735 C 0.84301 0.67013 0.61363 0.0
C736 C 0.89942 0.59381 0.43189 0.0
C737 C 0.03289 0.57708 0.59237 0.0
C738 C 0.03022 0.61215 0.61936 0.0
C739 C 0.79881 0.58906 0.49972 0.0
C740 C 0.80024 0.60683 0.85391 0.0
C741 C 0.82735 0.63191 0.01742 0.0
C742 C 0.8176 0.6713 1.00047 0.0
C743 C 0.79215 0.64575 0.84071 0.0
C744 C 0.81402 0.59286 0.9208 0.0
C745 C 0.79592 0.67611 0.88968 0.0
C746 C 0.85754 0.5267 0.64964 0.0
C747 C 0.79659 0.58285 0.79624 0.0
H748 H 0.92692 0.55376 0.18811 0.0
H749 H 0.9442 0.53758 0.39489 0.0
H750 H 0.95468 0.51883 0.27926 0.0
H751 H 0.88698 0.63295 0.32843 0.0
H752 H 0.82196 0.69141 0.04022 0.0
H753 H 0.78422 0.65336 0.7919 0.0
H754 H 0.81654 0.56364 0.91485 0.0
H755 H 0.78679 0.69997 0.86091 0.0
Eu756 Eu 0.60023 0.19578 0.33102 0.0
C757 C 0.61191 0.04042 0.42932 0.0
N758 N 0.58272 0.06256 0.43717 0.0
C759 C 0.54385 0.01544 0.39583 0.0
C760 C 0.60867 0.00733 0.39548 0.0
C761 C 0.54853 0.05004 0.42343 0.0
C762 C 0.57412 0.99398 0.38194 0.0
C763 C 0.67725 0.03316 0.43329 0.0
C764 C 0.64568 0.05213 0.45122 0.0
C765 C 0.67423 0.00477 0.38736 0.0
C766 C 0.63998 0.9902 0.37203 0.0
Eu767 Eu 0.59782 0.12367 0.46216 0.0
N768 N 0.64796 0.08454 0.48296 0.0
C769 C 0.71072 0.04463 0.45923 0.0
C770 C 0.67953 0.09429 0.51408 0.0
C771 C 0.71155 0.07436 0.50267 0.0
H772 H 0.52485 0.06677 0.43296 0.0
H773 H 0.73705 0.08294 0.52476 0.0
H774 H 0.69537 0.19322 0.26974 0.0
H775 H 0.49025 0.30093 0.33374 0.0
H776 H 0.68051 0.11849 0.54453 0.0
H777 H 0.73573 0.03035 0.44722 0.0
H778 H 0.51455 0.24108 0.34237 0.0
H779 H 0.51705 0.00573 0.38345 0.0
H780 H 0.69841 0.99319 0.36521 0.0
H781 H 0.63758 0.96686 0.33994 0.0
H782 H 0.74344 0.23147 0.24342 0.0
H783 H 0.57094 0.96709 0.36163 0.0
H784 H 0.52284 0.35655 0.31007 0.0
N785 N 0.65793 0.22897 0.31514 0.0
C786 C 0.65044 0.26377 0.32115 0.0
C787 C 0.71987 0.24487 0.26461 0.0
C788 C 0.69159 0.30272 0.28377 0.0
C789 C 0.6907 0.2206 0.28449 0.0
C790 C 0.72154 0.28367 0.26357 0.0
N791 N 0.57067 0.25347 0.33715 0.0
C792 C 0.53432 0.26247 0.33602 0.0
C793 C 0.57479 0.33073 0.29988 0.0
C794 C 0.59519 0.27905 0.32601 0.0
C795 C 0.53787 0.33149 0.31163 0.0
C796 C 0.51952 0.29862 0.32826 0.0
H797 H 0.74415 0.29754 0.24033 0.0
H798 H 0.69168 0.37351 0.2236 0.0
H799 H 0.60601 0.39914 0.2414 0.0
O800 O 0.60143 0.22654 0.23864 0.0
O801 O 0.60659 0.22031 0.44211 0.0
O802 O 0.57186 0.17827 0.49188 0.0
O803 O 0.57398 0.17523 0.24134 0.0
O804 O 0.54241 0.18365 0.367 0.0
O805 O 0.54888 0.12385 0.38998 0.0
O806 O 0.6034 0.13379 0.56607 0.0
O807 O 0.62784 0.10488 0.37065 0.0
O808 O 0.59668 0.13515 0.29171 0.0
O809 O 0.56081 0.09707 0.53068 0.0
O810 O 0.65216 0.15645 0.45741 0.0
O811 O 0.6542 0.1675 0.34701 0.0
C812 C 0.59015 0.2089 0.49784 0.0
C813 C 0.61318 0.18723 0.1536 0.0
C814 C 0.64133 0.18343 0.03448 0.0
C815 C 0.67658 0.17603 0.07711 0.0
C816 C 0.64446 0.17081 0.17861 0.0
C817 C 0.67586 0.16835 0.1431 0.0
C818 C 0.60848 0.19364 0.0856 0.0
C819 C 0.52905 0.15048 0.36521 0.0
C820 C 0.5879 0.20042 0.20361 0.0
C821 C 0.67251 0.35558 0.24782 0.0
C822 C 0.6146 0.37271 0.25527 0.0
C823 C 0.61501 0.10589 0.31074 0.0
C824 C 0.58247 0.08865 0.63952 0.0
C825 C 0.60155 0.09397 0.75266 0.0
C826 C 0.57398 0.06991 0.77223 0.0
C827 C 0.55561 0.06349 0.65769 0.0
C828 C 0.60743 0.10088 0.68616 0.0
C829 C 0.55164 0.05397 0.72408 0.0
C830 C 0.67138 0.16126 0.40256 0.0
C831 C 0.57718 0.11128 0.5816 0.0
H832 H 0.65773 0.17976 0.04685 0.0
H833 H 0.6462 0.16359 0.22988 0.0
H834 H 0.70098 0.16048 0.16741 0.0
H835 H 0.58216 0.20446 0.07182 0.0
H836 H 0.56817 0.06564 0.82427 0.0
H837 H 0.53558 0.05402 0.62209 0.0
H838 H 0.62725 0.12158 0.67275 0.0
H839 H 0.52892 0.03714 0.7383 0.0
Eu840 Eu 0.12287 0.40445 0.58236 0.0
C841 C 0.26925 0.34078 0.68326 0.0
N842 N 0.2345 0.34057 0.70672 0.0
C843 C 0.24305 0.27763 0.73769 0.0
C844 C 0.29059 0.30855 0.67693 0.0
C845 C 0.22354 0.31027 0.74126 0.0
C846 C 0.27612 0.27654 0.70388 0.0
C847 C 0.33559 0.37226 0.68617 0.0
C848 C 0.28702 0.37285 0.68836 0.0
C849 C 0.35071 0.34012 0.66245 0.0
C850 C 0.32808 0.30901 0.65712 0.0
Eu851 Eu 0.20265 0.39943 0.70655 0.0
N852 N 0.26543 0.40882 0.71316 0.0
C853 C 0.3596 0.41062 0.71855 0.0
C854 C 0.28385 0.44634 0.74202 0.0
C855 C 0.33376 0.44871 0.74871 0.0
H856 H 0.19932 0.31088 0.77115 0.0
H857 H 0.34731 0.47252 0.76841 0.0
H858 H 0.08088 0.48751 0.60445 0.0
H859 H 0.06229 0.26928 0.56764 0.0
H860 H 0.26683 0.46889 0.75764 0.0
H861 H 0.38906 0.41089 0.72021 0.0
H862 H 0.1061 0.31711 0.53565 0.0
H863 H 0.23291 0.25349 0.76231 0.0
H864 H 0.37988 0.33774 0.65606 0.0
H865 H 0.34169 0.28329 0.6478 0.0
H866 H 0.02671 0.50888 0.66531 0.0
H867 H 0.2915 0.25131 0.70317 0.0
H868 H 0.00838 0.28599 0.63378 0.0
N869 N 0.0684 0.43132 0.61889 0.0
C870 C 0.04167 0.4067 0.63282 0.0
C871 C 0.03059 0.48013 0.6559 0.0
C872 C 0.00907 0.4181 0.66274 0.0
C873 C 0.06167 0.46779 0.62338 0.0
C874 C 0.00426 0.45527 0.67553 0.0
N875 N 0.07814 0.3591 0.58694 0.0
C876 C 0.08284 0.32422 0.56516 0.0
C877 C 0.02001 0.34398 0.63197 0.0
C878 C 0.04637 0.3699 0.61563 0.0
C879 C 0.02681 0.3071 0.61778 0.0
C880 C 0.05767 0.29738 0.58178 0.0
H881 H 0.98021 0.46568 0.69878 0.0
H882 H 0.95718 0.39938 0.70077 0.0
H883 H 0.96781 0.33616 0.675 0.0
O884 O 0.12923 0.43105 0.48601 0.0
O885 O 0.10957 0.36914 0.67147 0.0
O886 O 0.14309 0.39503 0.75359 0.0
O887 O 0.08032 0.40108 0.50735 0.0
O888 O 0.15783 0.35291 0.57481 0.0
O889 O 0.17311 0.34773 0.68331 0.0
O890 O 0.23251 0.38872 0.79765 0.0
O891 O 0.22548 0.41116 0.59721 0.0
O892 O 0.17669 0.40631 0.52416 0.0
O893 O 0.19396 0.43255 0.79321 0.0
O894 O 0.19109 0.45983 0.6783 0.0
O895 O 0.131 0.45526 0.64892 0.0
C896 C 0.1131 0.37749 0.73395 0.0
C897 C 0.10941 0.38676 0.40893 0.0
C898 C 0.14478 0.37062 0.31278 0.0
C899 C 0.12842 0.33612 0.31079 0.0
C900 C 0.09206 0.35249 0.40577 0.0
C901 C 0.10236 0.32695 0.35803 0.0
C902 C 0.13644 0.39499 0.36362 0.0
C903 C 0.1664 0.33257 0.62606 0.0
C904 C 0.10151 0.41311 0.46162 0.0
C905 C 0.98264 0.39204 0.6786 0.0
C906 C 0.98852 0.35539 0.66411 0.0
C907 C 0.21203 0.40999 0.53475 0.0
C908 C 0.19645 0.39803 0.88964 0.0
C909 C 0.17461 0.40184 0.01314 0.0
C910 C 0.15161 0.36788 0.99047 0.0
C911 C 0.17538 0.36694 0.88014 0.0
C912 C 0.19882 0.41572 0.95093 0.0
C913 C 0.15391 0.35252 0.92866 0.0
C914 C 0.15815 0.47463 0.67359 0.0
C915 C 0.21448 0.41275 0.83154 0.0
H916 H 0.13369 0.31763 0.27001 0.0
H917 H 0.07032 0.34546 0.43945 0.0
H918 H 0.08885 0.30077 0.3557 0.0
H919 H 0.1484 0.42206 0.36411 0.0
H920 H 0.16344 0.3877 1.00983 0.0
H921 H 0.17445 0.35377 0.83243 0.0
H922 H 0.21627 0.43953 0.95077 0.0
H923 H 0.13736 0.32886 0.91773 0.0
Eu924 Eu 0.40067 0.80062 0.33379 0.0
C925 C 0.45401 0.941 0.47315 0.0
N926 N 0.45134 0.90428 0.48062 0.0
C927 C 0.50872 0.90295 0.53772 0.0
C928 C 0.48393 0.96026 0.49942 0.0
C929 C 0.47756 0.8852 0.51402 0.0
C930 C 0.51181 0.9407 0.53076 0.0
C931 C 0.42734 0.99781 0.43502 0.0
C932 C 0.42513 0.95991 0.44478 0.0
C933 C 0.45694 0.01711 0.46131 0.0
C934 C 0.48416 0.99848 0.49656 0.0
Eu935 Eu 0.39433 0.87872 0.45312 0.0
N936 N 0.39362 0.94194 0.4324 0.0
C937 C 0.39839 0.01542 0.40319 0.0
C938 C 0.363 0.96077 0.41445 0.0
C939 C 0.36538 0.99719 0.39546 0.0
H940 H 0.47427 0.85627 0.52213 0.0
H941 H 0.34168 0.01136 0.37661 0.0
H942 H 0.34562 0.79243 0.47189 0.0
H943 H 0.52266 0.67441 0.25986 0.0
H944 H 0.33683 0.94744 0.41514 0.0
H945 H 0.40065 0.04353 0.38776 0.0
H946 H 0.49285 0.75759 0.27589 0.0
H947 H 0.52983 0.88771 0.56304 0.0
H948 H 0.4583 0.04651 0.45698 0.0
H949 H 0.50594 0.01382 0.51974 0.0
H950 H 0.3249 0.74705 0.54917 0.0
H951 H 0.53543 0.95455 0.551 0.0
H952 H 0.46266 0.60719 0.2418 0.0
N953 N 0.3659 0.75553 0.40011 0.0
C954 C 0.36576 0.7199 0.37978 0.0
C955 C 0.33581 0.73795 0.50224 0.0
C956 C 0.3528 0.68705 0.42955 0.0
C957 C 0.34782 0.7643 0.45702 0.0
C958 C 0.33866 0.70053 0.49082 0.0
N959 N 0.42344 0.7451 0.29816 0.0
C960 C 0.47348 0.73541 0.27541 0.0
C961 C 0.39465 0.64708 0.26324 0.0
C962 C 0.38425 0.71224 0.31102 0.0
C963 C 0.45356 0.63503 0.24707 0.0
C964 C 0.49374 0.67967 0.26424 0.0
H965 H 0.3284 0.68293 0.52949 0.0
H966 H 0.35411 0.58579 0.39303 0.0
H967 H 0.38473 0.58523 0.27606 0.0
O968 O 0.4237 0.7945 0.23358 0.0
O969 O 0.42097 0.77804 0.43947 0.0
O970 O 0.40651 0.82599 0.5084 0.0
O971 O 0.3677 0.77952 0.25404 0.0
O972 O 0.45869 0.81798 0.35327 0.0
O973 O 0.4483 0.87659 0.38972 0.0
O974 O 0.36915 0.91685 0.52233 0.0
O975 O 0.3628 0.89208 0.36177 0.0
O976 O 0.40013 0.86228 0.29122 0.0
O977 O 0.38336 0.86286 0.55507 0.0
O978 O 0.33668 0.85851 0.41878 0.0
O979 O 0.34235 0.81407 0.33805 0.0
C980 C 0.41716 0.79204 0.50101 0.0
C981 C 0.38133 0.79009 0.14052 0.0
C982 C 0.39345 0.8238 0.97633 0.0
C983 C 0.35299 0.82087 0.9659 0.0
C984 C 0.34118 0.7866 0.12594 0.0
C985 C 0.32298 0.79695 0.06061 0.0
C986 C 0.40924 0.80266 0.0883 0.0
C987 C 0.46999 0.85146 0.36241 0.0
C988 C 0.39318 0.78184 0.20931 0.0
C989 C 0.36114 0.61211 0.37084 0.0
C990 C 0.37805 0.61143 0.29734 0.0
C991 C 0.37797 0.89061 0.30376 0.0
C992 C 0.39564 0.91114 0.62811 0.0
C993 C 0.42125 0.90443 0.73806 0.0
C994 C 0.44008 0.93721 0.73095 0.0
C995 C 0.41387 0.94471 0.62204 0.0
C996 C 0.39953 0.89105 0.68645 0.0
C997 C 0.43674 0.95707 0.6725 0.0
C998 C 0.3227 0.83492 0.37521 0.0
C999 C 0.37443 0.89578 0.57297 0.0
H1000 H 0.34316 0.82999 0.91693 0.0
H1001 H 0.32336 0.77637 0.16442 0.0
H1002 H 0.29404 0.79046 0.06877 0.0
H1003 H 0.43574 0.80019 0.11226 0.0
H1004 H 0.45721 0.94717 0.77074 0.0
H1005 H 0.41075 0.96141 0.57841 0.0
H1006 H 0.38513 0.86543 0.69231 0.0
H1007 H 0.45182 0.98208 0.66615 0.0
Eu1008 Eu 0.8716 0.90484 0.70884 0.0
C1009 C 0.73379 0.83955 0.53797 0.0
N1010 N 0.76088 0.84413 0.58246 0.0
C1011 C 0.7443 0.78669 0.63453 0.0
C1012 C 0.70206 0.80299 0.54924 0.0
C1013 C 0.76196 0.82053 0.63457 0.0
C1014 C 0.71493 0.77747 0.5934 0.0
C1015 C 0.64927 0.88357 0.4723 0.0
C1016 C 0.72182 0.8802 0.50362 0.0
C1017 C 0.6281 0.84071 0.49183 0.0
C1018 C 0.65351 0.80307 0.52792 0.0
Eu1019 Eu 0.79608 0.90173 0.5769 0.0
N1020 N 0.73556 0.91723 0.53711 0.0
C1021 C 0.63313 0.92827 0.49376 0.0
C1022 C 0.71178 0.95486 0.54987 0.0
C1023 C 0.66336 0.96184 0.53077 0.0
H1024 H 0.77807 0.82689 0.67773 0.0
H1025 H 0.65155 0.98778 0.54438 0.0
H1026 H 0.87767 0.99417 0.74892 0.0
H1027 H 0.98088 0.80593 0.68411 0.0
H1028 H 0.72591 0.97778 0.57182 0.0
H1029 H 0.60425 0.93405 0.49117 0.0
H1030 H 0.91949 0.82651 0.71785 0.0
H1031 H 0.75276 0.76848 0.67234 0.0
H1032 H 0.59871 0.83877 0.48948 0.0
H1033 H 0.63787 0.77948 0.54259 0.0
H1034 H 0.92512 0.0424 0.75068 0.0
H1035 H 0.69952 0.75291 0.60283 0.0
H1036 H 0.02346 0.85074 0.63834 0.0
N1037 N 0.91406 0.95317 0.71499 0.0
C1038 C 0.94886 0.94429 0.6993 0.0
C1039 C 0.93212 0.01491 0.73592 0.0
C1040 C 0.97642 0.97092 0.69698 0.0
C1041 C 0.9054 0.98767 0.73502 0.0
C1042 C 0.96775 0.00658 0.71631 0.0
N1043 N 0.93144 0.8826 0.70151 0.0
C1044 C 0.94014 0.84641 0.70566 0.0
C1045 C 0.99245 0.89755 0.67 0.0
C1046 C 0.95743 0.90799 0.68993 0.0
C1047 C 0.99928 0.86029 0.66195 0.0
C1048 C 0.97437 0.83468 0.68518 0.0
H1049 H 0.98822 0.02786 0.71572 0.0
H1050 H 0.03277 0.98126 0.67062 0.0
H1051 H 0.0461 0.91728 0.6426 0.0
O1052 O 0.88027 0.86781 0.79187 0.0
O1053 O 0.89763 0.87924 0.61982 0.0
O1054 O 0.85615 0.89077 0.53637 0.0
O1055 O 0.87312 0.92615 0.80854 0.0
O1056 O 0.84385 0.84953 0.68659 0.0
O1057 O 0.82406 0.84695 0.57898 0.0
O1058 O 0.77339 0.92574 0.48537 0.0
O1059 O 0.77472 0.89695 0.69134 0.0
O1060 O 0.81783 0.92989 0.74338 0.0
O1061 O 0.82881 0.9068 0.48785 0.0
O1062 O 0.80993 0.95975 0.61255 0.0
O1063 O 0.87019 0.95137 0.63268 0.0
C1064 C 0.88936 0.88049 0.55711 0.0
C1065 C 0.91053 0.89467 0.88275 0.0
C1066 C 0.91832 0.89372 1.00038 0.0
C1067 C 0.95034 0.91421 0.9954 0.0
C1068 C 0.94256 0.91533 0.87619 0.0
C1069 C 0.96322 0.92387 0.9326 0.0
C1070 C 0.90082 0.881 0.94375 0.0
C1071 C 0.84026 0.83143 0.62976 0.0
C1072 C 0.88154 0.89467 0.83389 0.0
C1073 C 0.01148 0.96099 0.67535 0.0
C1074 C 0.01913 0.92447 0.65976 0.0
C1075 C 0.78749 0.91124 0.74862 0.0
C1076 C 0.79675 0.89468 0.39035 0.0
C1077 C 0.82045 0.87668 0.22153 0.0
C1078 C 0.8142 0.83606 0.23498 0.0
C1079 C 0.79101 0.85495 0.40021 0.0
C1080 C 0.80755 0.91119 0.32397 0.0
C1081 C 0.79578 0.82614 0.34721 0.0
C1082 C 0.84372 0.97205 0.60916 0.0
C1083 C 0.80175 0.91694 0.45054 0.0
H1084 H 0.96382 0.92448 0.03942 0.0
H1085 H 0.95047 0.92644 0.82896 0.0
H1086 H 0.98748 0.94042 0.92806 0.0
H1087 H 0.87539 0.86595 0.94852 0.0
H1088 H 0.81901 0.81759 0.19284 0.0
H1089 H 0.78575 0.84544 0.44982 0.0
H1090 H 0.80904 0.94017 0.33326 0.0
H1091 H 0.78925 0.80075 0.37374 0.0
Eu1092 Eu 0.89251 0.20142 0.43789 0.0
C1093 C 0.89637 0.03645 0.36673 0.0
N1094 N 0.92531 0.05849 0.35903 0.0
C1095 C 0.96536 0.01179 0.39723 0.0
C1096 C 0.90002 1.00265 0.39818 0.0
C1097 C 0.95975 0.04659 0.37188 0.0
C1098 C 0.93525 0.99029 0.41307 0.0
C1099 C 0.83391 0.02335 0.34153 0.0
C1100 C 0.86391 0.0463 0.33692 0.0
C1101 C 0.8346 0.99552 0.3889 0.0
C1102 C 0.86828 0.98331 0.41393 0.0
Eu1103 Eu 0.91098 0.11664 0.32108 0.0
N1104 N 0.8632 0.07611 0.29734 0.0
C1105 C 0.80592 0.02746 0.29518 0.0
C1106 C 0.83781 0.07911 0.24802 0.0
C1107 C 0.80885 0.05435 0.24581 0.0
H1108 H 0.98258 0.06378 0.36178 0.0
H1109 H 0.78873 0.05641 0.20675 0.0
H1110 H 0.80135 0.22046 0.36155 0.0
H1111 H 0.99837 0.32783 0.49769 0.0
H1112 H 0.83925 0.10135 0.21296 0.0
H1113 H 0.78374 0.00807 0.29408 0.0
H1114 H 0.9778 0.25722 0.46261 0.0
H1115 H 0.99266 1.00231 0.40735 0.0
H1116 H 0.80953 0.98266 0.40359 0.0
H1117 H 0.86959 0.95929 0.44474 0.0
H1118 H 0.75278 0.26011 0.37278 0.0
H1119 H 0.93996 0.96493 0.43798 0.0
H1120 H 0.95107 0.38207 0.54849 0.0
N1121 N 0.83736 0.24325 0.43592 0.0
C1122 C 0.83924 0.27217 0.47681 0.0
C1123 C 0.77734 0.2669 0.39868 0.0
C1124 C 0.8091 0.31017 0.46427 0.0
C1125 C 0.8063 0.2415 0.39701 0.0
C1126 C 0.77909 0.30122 0.42764 0.0
N1127 N 0.91525 0.25702 0.48803 0.0
C1128 C 0.95672 0.2741 0.48406 0.0
C1129 C 0.89368 0.34569 0.55764 0.0
C1130 C 0.87985 0.27587 0.51775 0.0
C1131 C 0.94109 0.35445 0.54422 0.0
C1132 C 0.9707 0.31991 0.50898 0.0
H1133 H 0.75737 0.32078 0.42011 0.0
H1134 H 0.79607 0.37712 0.47624 0.0
H1135 H 0.85911 0.40382 0.54022 0.0
O1136 O 0.91871 0.20847 0.53514 0.0
O1137 O 0.90203 0.22103 0.32601 0.0
O1138 O 0.89953 0.16911 0.25844 0.0
O1139 O 0.87192 0.17265 0.52248 0.0
O1140 O 0.95413 0.19168 0.41495 0.0
O1141 O 0.95756 0.13041 0.39164 0.0
O1142 O 0.95251 0.12849 0.2462 0.0
O1143 O 0.91951 0.10723 0.43076 0.0
O1144 O 0.87369 0.14181 0.46993 0.0
O1145 O 0.92864 0.07457 0.2541 0.0
O1146 O 0.84989 0.12329 0.34727 0.0
O1147 O 0.84783 0.18356 0.36937 0.0
C1148 C 0.90083 0.20534 0.26515 0.0
C1149 C 0.87929 0.19856 0.62697 0.0
C1150 C 0.88091 0.1896 0.75497 0.0
C1151 C 0.84088 0.19235 0.74057 0.0
C1152 C 0.84392 0.21097 0.62757 0.0
C1153 C 0.82438 0.20671 0.68418 0.0
C1154 C 0.89731 0.19059 0.68679 0.0
C1155 C 0.97294 0.16075 0.41229 0.0
C1156 C 0.89514 0.18704 0.56396 0.0
C1157 C 0.81662 0.35741 0.4902 0.0
C1158 C 0.85622 0.37468 0.53427 0.0
C1159 C 0.89114 0.10997 0.46951 0.0
C1160 C 0.95462 0.08779 0.15372 0.0
C1161 C 0.94819 0.10742 0.04087 0.0
C1162 C 0.9587 0.07283 0.01843 0.0
C1163 C 0.96527 0.05307 0.13177 0.0
C1164 C 0.94531 0.1145 0.10833 0.0
C1165 C 0.96697 0.04554 0.06411 0.0
C1166 C 0.83143 0.15205 0.36658 0.0
C1167 C 0.95226 0.09482 0.22421 0.0
H1168 H 0.81944 0.18461 0.77278 0.0
H1169 H 0.83027 0.21943 0.58257 0.0
H1170 H 0.79523 0.21153 0.68309 0.0
H1171 H 0.92561 0.18582 0.67724 0.0
H1172 H 0.96023 0.06704 0.96584 0.0
H1173 H 0.97199 0.03181 0.167 0.0
H1174 H 0.93614 0.14075 0.12547 0.0
H1175 H 0.97488 0.01869 0.0472 0.0
Eu1176 Eu 0.1188 0.09775 0.69069 0.0
C1177 C 0.26614 0.17649 0.50658 0.0
N1178 N 0.23891 0.17622 0.55092 0.0
C1179 C 0.25216 0.24068 0.57447 0.0
C1180 C 0.29949 0.21213 0.51376 0.0
C1181 C 0.23463 0.20731 0.58793 0.0
C1182 C 0.28554 0.24299 0.5422 0.0
C1183 C 0.34897 0.12636 0.44996 0.0
C1184 C 0.27637 0.13371 0.47744 0.0
C1185 C 0.37195 0.16879 0.46536 0.0
C1186 C 0.34814 0.20882 0.49546 0.0
Eu1187 Eu 0.20356 0.11874 0.56324 0.0
N1188 N 0.26095 0.09881 0.51482 0.0
C1189 C 0.36304 0.08225 0.47764 0.0
C1190 C 0.28285 0.06073 0.53149 0.0
C1191 C 0.33107 0.05119 0.51609 0.0
H1192 H 0.21783 0.20804 0.63062 0.0
H1193 H 0.34166 0.0254 0.53359 0.0
H1194 H 0.05975 0.04891 0.60436 0.0
H1195 H 0.09573 0.21887 0.84372 0.0
H1196 H 0.2678 0.03938 0.55595 0.0
H1197 H 0.39185 0.0766 0.48168 0.0
H1198 H 0.12621 0.16035 0.81476 0.0
H1199 H 0.24119 0.26509 0.59659 0.0
H1200 H 0.40139 0.16935 0.46357 0.0
H1201 H 0.36457 0.23262 0.50579 0.0
H1202 H 0.00799 0.06462 0.53293 0.0
H1203 H 0.30109 0.26799 0.54306 0.0
H1204 H 0.04165 0.23913 0.77953 0.0
N1205 N 0.05811 0.09919 0.65567 0.0
C1206 C 0.04001 0.13065 0.6675 0.0
C1207 C 0.01436 0.08188 0.57454 0.0
C1208 C 0.00802 0.13914 0.63245 0.0
C1209 C 0.04461 0.07368 0.61332 0.0
C1210 C 0.99509 0.11418 0.58548 0.0
N1211 N 0.08755 0.14725 0.73993 0.0
C1212 C 0.10107 0.1681 0.79042 0.0
C1213 C 0.03842 0.18939 0.72212 0.0
C1214 C 0.05502 0.15542 0.7114 0.0
C1215 C 0.05372 0.21277 0.76947 0.0
C1216 C 0.08429 0.2014 0.80579 0.0
H1217 H 0.97182 0.12072 0.55454 0.0
H1218 H 0.97099 0.18246 0.60683 0.0
H1219 H 0.9969 0.22641 0.68602 0.0
O1220 O 0.13502 0.06492 0.77607 0.0
O1221 O 0.11275 0.09331 0.57835 0.0
O1222 O 0.14545 0.13986 0.53693 0.0
O1223 O 0.07868 0.06535 0.74337 0.0
O1224 O 0.12398 0.15789 0.66657 0.0
O1225 O 0.18391 0.15774 0.6431 0.0
O1226 O 0.19296 0.08442 0.47566 0.0
O1227 O 0.2242 0.11113 0.67654 0.0
O1228 O 0.17329 0.10746 0.74667 0.0
O1229 O 0.17859 0.14201 0.47588 0.0
O1230 O 0.19406 0.05697 0.58851 0.0
O1231 O 0.13349 0.05087 0.62073 0.0
C1232 C 0.11392 0.12296 0.542 0.0
C1233 C 0.08827 0.06125 0.85757 0.0
C1234 C 0.09376 0.08744 0.96802 0.0
C1235 C 0.06116 0.07032 0.98636 0.0
C1236 C 0.05571 0.04437 0.8767 0.0
C1237 C 0.04235 0.04884 0.94074 0.0
C1238 C 0.10703 0.08328 0.90316 0.0
C1239 C 0.15268 0.17514 0.64599 0.0
C1240 C 0.10142 0.05572 0.78959 0.0
C1241 C 0.99304 0.17408 0.63881 0.0
C1242 C 0.00818 0.19922 0.68335 0.0
C1243 C 0.20924 0.10927 0.73834 0.0
C1244 C 0.18926 0.11618 0.37134 0.0
C1245 C 0.1843 0.13747 0.24495 0.0
C1246 C 0.17779 0.14696 0.17926 0.0
C1247 C 0.21231 0.14229 0.34883 0.0
C1248 C 0.16876 0.10633 0.31716 0.0
C1249 C 0.20287 0.14942 0.2712 0.0
C1250 C 0.16361 0.03712 0.59477 0.0
C1251 C 0.17922 0.1117 0.44166 0.0
H1252 H 0.05082 0.07272 0.03645 0.0
H1253 H 0.04072 0.02746 0.84207 0.0
H1254 H 0.01777 0.03487 0.95521 0.0
H1255 H 0.13191 0.09696 0.88869 0.0
H1256 H 0.19231 0.17416 0.12372 0.0
H1257 H 0.22982 0.15693 0.38447 0.0
H1258 H 0.14675 0.08669 0.32194 0.0
H1259 H 0.22808 0.16711 0.29111 0.0
Eu1260 Eu 0.0999 0.80727 0.454 0.0
C1261 C 0.10582 0.96686 0.38705 0.0
N1262 N 0.0812 0.93947 0.39689 0.0
C1263 C 0.05058 0.97625 0.47851 0.0
C1264 C 0.10477 0.99884 0.42567 0.0
C1265 C 0.05348 0.94416 0.44171 0.0
C1266 C 0.07627 0.00368 0.47045 0.0
C1267 C 0.16121 0.98858 0.33421 0.0
C1268 C 0.13341 0.9625 0.34015 0.0
C1269 C 0.1614 0.01895 0.37578 0.0
C1270 C 0.13314 0.02421 0.42097 0.0
Eu1271 Eu 0.09321 0.88663 0.33085 0.0
N1272 N 0.13411 0.93199 0.3023 0.0
C1273 C 0.189 0.98256 0.28847 0.0
C1274 C 0.15874 0.92769 0.25279 0.0
C1275 C 0.1872 0.95255 0.24606 0.0
H1276 H 0.03319 0.92387 0.45123 0.0
H1277 H 0.20771 0.94866 0.20838 0.0
H1278 H 0.18781 0.84627 0.49636 0.0
H1279 H 0.0456 0.64582 0.47036 0.0
H1280 H 0.15682 0.9044 0.22016 0.0
H1281 H 0.21133 1.00165 0.28441 0.0
H1282 H 0.04246 0.71977 0.43593 0.0
H1283 H 0.02874 0.97954 0.514 0.0
H1284 H 0.18383 0.038 0.37423 0.0
H1285 H 0.13437 0.04706 0.45457 0.0
H1286 H 0.24812 0.82494 0.5295 0.0
H1287 H 0.0744 0.02819 0.49993 0.0
H1288 H 0.10246 0.61262 0.54586 0.0
N1289 N 0.16282 0.79423 0.49334 0.0
C1290 C 0.16721 0.76061 0.51721 0.0
C1291 C 0.22691 0.80479 0.52258 0.0
C1292 C 0.21084 0.74027 0.52301 0.0
C1293 C 0.19144 0.81745 0.50434 0.0
C1294 C 0.23702 0.76743 0.52621 0.0
N1295 N 0.09333 0.74369 0.4911 0.0
C1296 C 0.06457 0.71175 0.46833 0.0
C1297 C 0.13901 0.66806 0.57335 0.0
C1298 C 0.12808 0.73889 0.5367 0.0
C1299 C 0.10206 0.64192 0.54046 0.0
C1300 C 0.06674 0.6633 0.49007 0.0
H1301 H 0.26481 0.76024 0.53724 0.0
H1302 H 0.2494 0.68472 0.54687 0.0
H1303 H 0.19648 0.63021 0.57582 0.0
O1304 O 0.07498 0.78995 0.54698 0.0
O1305 O 0.08484 0.78656 0.3406 0.0
O1306 O 0.09889 0.83474 0.2702 0.0
O1307 O 0.08531 0.84768 0.52999 0.0
O1308 O 0.0421 0.8125 0.41349 0.0
O1309 O 0.04271 0.87329 0.39224 0.0
O1310 O 0.07211 0.87723 0.23114 0.0
O1311 O 0.14097 0.89442 0.40058 0.0
O1312 O 0.11202 0.86817 0.48609 0.0
O1313 O 0.06634 0.93017 0.27609 0.0
O1314 O 0.14954 0.85886 0.32238 0.0
O1315 O 0.15155 0.80831 0.39295 0.0
C1316 C 0.09052 0.80018 0.27805 0.0
C1317 C 0.09655 0.82441 0.63886 0.0
C1318 C 0.12499 0.83074 0.76124 0.0
C1319 C 0.1367 0.8377 0.82528 0.0
C1320 C 0.12545 0.80381 0.65667 0.0
C1321 C 0.1364 0.8127 0.7331 0.0
C1322 C 0.09006 0.84539 0.69385 0.0
C1323 C 0.02512 0.84415 0.41191 0.0
C1324 C 0.07736 0.8225 0.57376 0.0
C1325 C 0.22101 0.69266 0.54556 0.0
C1326 C 0.18751 0.65807 0.56991 0.0
C1327 C 0.1354 0.89304 0.46418 0.0
C1328 C 0.07425 0.92902 0.16074 0.0
C1329 C 0.09539 0.92472 0.04718 0.0
C1330 C 0.08842 0.96209 0.03852 0.0
C1331 C 0.06834 0.96654 0.15206 0.0
C1332 C 0.08884 0.90852 0.10881 0.0
C1333 C 0.07572 0.98297 0.09131 0.0
C1334 C 0.16636 0.82997 0.34817 0.0
C1335 C 0.06294 0.91117 0.22236 0.0
H1336 H 0.16579 0.82381 0.87759 0.0
H1337 H 0.13874 0.78724 0.61989 0.0
H1338 H 0.15453 0.78839 0.71106 0.0
H1339 H 0.06969 0.8666 0.69413 0.0
H1340 H 0.09229 0.97505 0.99082 0.0
H1341 H 0.05729 0.98303 0.19179 0.0
H1342 H 0.09449 0.87977 0.11589 0.0
H1343 H 0.0707 0.01177 0.08472 0.0
C1344 C 0.39812 0.93987 0.21672 0.0
C1345 C 0.37134 0.9242 0.25842 0.0
C1346 C 0.39243 0.97373 0.18227 0.0
C1347 C 0.35948 0.9942 0.18723 0.0
H1348 H 0.42436 0.92688 0.21299 0.0
H1349 H 0.41447 0.98421 0.15225 0.0
S1350 S 0.2821 0.96858 0.29559 0.0
N1351 N 0.31128 0.93493 0.30511 0.0
N1352 N 0.30106 0.99653 0.24216 0.0
C1353 C 0.33295 0.97909 0.22938 0.0
C1354 C 0.33872 0.945 0.26414 0.0
C1355 C 0.95437 0.59599 0.77053 0.0
C1356 C 0.92668 0.6212 0.75271 0.0
C1357 C 0.98675 0.60641 0.80507 0.0
C1358 C 0.99444 0.64312 0.8225 0.0
H1359 H 0.95132 0.56765 0.75655 0.0
H1360 H 0.00646 0.58534 0.81655 0.0
S1361 S 0.93449 0.72111 0.77995 0.0
N1362 N 0.91203 0.68542 0.75131 0.0
N1363 N 0.97178 0.70479 0.81451 0.0
C1364 C 0.96752 0.66861 0.80373 0.0
C1365 C 0.93423 0.65784 0.76961 0.0
C1366 C 0.60813 0.02037 0.19765 0.0
C1367 C 0.64432 0.00614 0.19708 0.0
C1368 C 0.59879 0.05358 0.23032 0.0
C1369 C 0.62488 0.07429 0.26508 0.0
H1370 H 0.58638 0.00535 0.17377 0.0
H1371 H 0.57065 0.06209 0.23096 0.0
S1372 S 0.72247 0.05116 0.27881 0.0
N1373 N 0.70623 0.01774 0.23278 0.0
N1374 N 0.68787 0.07764 0.2969 0.0
C1375 C 0.6607 0.06059 0.26419 0.0
C1376 C 0.6706 0.02749 0.22968 0.0
C1377 C 0.02776 0.32398 0.79158 0.0
C1378 C 0.01229 0.3453 0.84268 0.0
C1379 C 0.06194 0.33275 0.76214 0.0
C1380 C 0.08255 0.36389 0.78008 0.0
H1381 H 0.01265 0.30109 0.77177 0.0
H1382 H 0.07188 0.3154 0.72282 0.0
S1383 S 0.06268 0.41914 0.92944 0.0
N1384 N 0.0266 0.39261 0.92266 0.0
N1385 N 0.08966 0.40875 0.86671 0.0
C1386 C 0.06994 0.3823 0.83683 0.0
C1387 C 0.03519 0.37332 0.86755 0.0
C1388 C 0.33858 0.545 0.09022 0.0
C1389 C 0.36312 0.51497 0.09747 0.0
C1390 C 0.34807 0.57811 0.05555 0.0
C1391 C 0.38294 0.58359 0.02664 0.0
H1392 H 0.31172 0.54326 0.11185 0.0
H1393 H 0.32751 0.59908 0.04987 0.0
S1394 S 0.45771 0.51557 0.03408 0.0
N1395 N 0.42434 0.49524 0.07357 0.0
N1396 N 0.44195 0.55566 0.01146 0.0
C1397 C 0.40759 0.55433 0.03577 0.0
C1398 C 0.39796 0.52101 0.07032 0.0
C1399 C 0.57783 0.68255 0.9612 0.0
C1400 C 0.58895 0.64718 0.98187 0.0
C1401 C 0.5433 0.68936 0.92888 0.0
C1402 C 0.51726 0.66124 0.91792 0.0
H1403 H 0.59589 0.70518 0.97077 0.0
H1404 H 0.53681 0.71689 0.91364 0.0
S1405 S 0.52926 0.56719 0.97711 0.0
N1406 N 0.56912 0.58542 0.99341 0.0
N1407 N 0.50412 0.59883 0.94367 0.0
C1408 C 0.52778 0.62688 0.94257 0.0
C1409 C 0.56324 0.6197 0.97134 0.0
C1410 C 0.67942 0.46706 0.05373 0.0
C1411 C 0.65457 0.49702 0.05819 0.0
C1412 C 0.66876 0.43148 0.02882 0.0
C1413 C 0.63267 0.42389 1.00628 0.0
H1414 H 0.70746 0.47112 0.06876 0.0
H1415 H 0.68936 0.41052 0.02435 0.0
S1416 S 0.55818 0.49084 1.00415 0.0
N1417 N 0.59219 0.5142 0.03571 0.0
N1418 N 0.57382 0.45007 0.98974 0.0
C1419 C 0.60849 0.45331 0.01139 0.0
C1420 C 0.61885 0.48875 0.03661 0.0
C1421 C 0.42093 0.34507 0.9656 0.0
C1422 C 0.41921 0.3757 1.00887 0.0
C1423 C 0.45415 0.33468 0.9317 0.0
C1424 C 0.48749 0.35433 0.93914 0.0
H1425 H 0.39698 0.32816 0.95977 0.0
H1426 H 0.45369 0.31095 0.89985 0.0
S1427 S 0.49886 0.43214 0.05322 0.0
N1428 N 0.45528 0.42312 0.05885 0.0
N1429 N 0.51582 0.40319 0.99921 0.0
C1430 C 0.48564 0.38407 0.98286 0.0
C1431 C 0.45238 0.39472 0.01625 0.0
C1432 C 0.91037 0.44884 0.74095 0.0
C1433 C 0.88393 0.42281 0.75893 0.0
C1434 C 0.90202 0.48082 0.70349 0.0
C1435 C 0.86578 0.49084 0.68713 0.0
H1436 H 0.93767 0.44502 0.75919 0.0
H1437 H 0.92415 0.49887 0.69024 0.0
S1438 S 0.78483 0.44244 0.75434 0.0
N1439 N 0.81933 0.41608 0.77574 0.0
N1440 N 0.80295 0.47647 0.71272 0.0
C1441 C 0.8387 0.4676 0.71371 0.0
C1442 C 0.84768 0.43399 0.7482 0.0
C1443 C 0.46529 0.16705 0.31695 0.0
C1444 C 0.49377 0.14147 0.32743 0.0
C1445 C 0.43263 0.15787 0.28176 0.0
C1446 C 0.42683 0.12271 0.2547 0.0
H1447 H 0.46806 0.19439 0.33635 0.0
H1448 H 0.41211 0.17871 0.27478 0.0
S1449 S 0.4917 0.04578 0.26751 0.0
N1450 N 0.51308 0.0796 0.30443 0.0
N1451 N 0.452 0.06214 0.24411 0.0
C1452 C 0.4547 0.09707 0.2658 0.0
C1453 C 0.48785 0.10644 0.30032 0.0
C1454 C 0.10254 0.55456 0.75283 0.0
C1455 C 0.12667 0.58442 0.75964 0.0
C1456 C 0.11328 0.52034 0.72575 0.0
C1457 C 0.14881 0.51305 0.70165 0.0
H1458 H 0.07496 0.55704 0.77132 0.0
H1459 H 0.09361 0.49855 0.72735 0.0
S1460 S 0.2212 0.58373 0.69373 0.0
N1461 N 0.18724 0.60519 0.73073 0.0
N1462 N 0.20711 0.54166 0.67959 0.0
C1463 C 0.17285 0.54329 0.70448 0.0
C1464 C 0.16184 0.57849 0.73262 0.0
C1465 C 0.56909 0.84457 0.29291 0.0
C1466 C 0.57614 0.87968 0.26726 0.0
C1467 C 0.53544 0.83576 0.32458 0.0
C1468 C 0.50732 0.86185 0.33438 0.0
H1469 H 0.58911 0.82323 0.28609 0.0
H1470 H 0.5313 0.80798 0.34087 0.0
S1471 S 0.51105 0.95735 0.27657 0.0
N1472 N 0.55095 0.94055 0.25425 0.0
N1473 N 0.48945 0.92425 0.3148 0.0
C1474 C 0.51457 0.89717 0.31092 0.0
C1475 C 0.54829 0.90595 0.27739 0.0
C1476 C 0.82903 0.03494 0.55197 0.0
C1477 C 0.85427 0.00834 0.57508 0.0
C1478 C 0.84051 0.06808 0.52 0.0
C1479 C 0.87788 0.07651 0.50908 0.0
H1480 H 0.80012 0.03008 0.558 0.0
H1481 H 0.81984 0.08677 0.50225 0.0
S1482 S 0.9547 0.0165 0.55821 0.0
N1483 N 0.91852 0.99349 0.58067 0.0
N1484 N 0.93925 0.0548 0.52597 0.0
C1485 C 0.90283 0.05035 0.53265 0.0
C1486 C 0.89136 0.01682 0.56385 0.0
C1487 C 0.06039 0.16781 0.52278 0.0
C1488 C 0.08064 0.13656 0.50366 0.0
C1489 C 0.02683 0.17771 0.49081 0.0
C1490 C 0.01237 0.15723 0.43733 0.0
H1491 H 0.06946 0.18368 0.56498 0.0
H1492 H 0.01131 0.20036 0.5104 0.0
S1493 S 0.06302 0.08329 0.35102 0.0
N1494 N 0.08812 0.09202 0.41701 0.0
N1495 N 0.02812 0.11158 0.35516 0.0
C1496 C 0.03542 0.12947 0.41254 0.0
C1497 C 0.0686 0.11895 0.44594 0.0
C1498 C 0.12379 0.94073 0.55573 0.0
C1499 C 0.14661 0.92631 0.50582 0.0
C1500 C 0.13043 0.97535 0.58563 0.0
C1501 C 0.16082 0.99761 0.5688 0.0
H1502 H 0.09923 0.92621 0.56909 0.0
H1503 H 0.11051 0.9853 0.62083 0.0
S1504 S 0.23291 0.9696 0.45 0.0
N1505 N 0.20352 0.93556 0.44705 0.0
N1506 N 0.21624 0.99921 0.50365 0.0
C1507 C 0.18537 0.98198 0.52292 0.0
C1508 C 0.17823 0.94701 0.49152 0.0
C1509 C 0.96598 0.88112 0.42648 0.0
C1510 C 0.98701 0.84956 0.44128 0.0
C1511 C 0.93232 0.88887 0.45874 0.0
C1512 C 0.91884 0.86697 0.5101 0.0
H1513 H 0.9757 0.9003 0.3898 0.0
H1514 H 0.91685 0.91253 0.44476 0.0
S1515 S 0.95756 0.77719 0.55733 0.0
N1516 N 0.98718 0.79302 0.50316 0.0
N1517 N 0.9258 0.80876 0.56529 0.0
C1518 C 0.93808 0.83423 0.52211 0.0
C1519 C 0.97158 0.82547 0.48775 0.0
C1520 C 0.36959 0.23104 0.15589 0.0
C1521 C 0.34865 0.21235 0.10794 0.0
C1522 C 0.36718 0.2692 0.16435 0.0
C1523 C 0.3432 0.29069 0.1259 0.0
H1524 H 0.38746 0.21581 0.18841 0.0
H1525 H 0.38377 0.28175 0.20252 0.0
S1526 S 0.2823 0.25478 0.99299 0.0
N1527 N 0.30367 0.21822 0.02082 0.0
N1528 N 0.29828 0.28934 0.03664 0.0
C1529 C 0.32255 0.27218 0.07682 0.0
C1530 C 0.32552 0.23333 0.06777 0.0
C1531 C 0.26873 0.65933 0.8477 0.0
C1532 C 0.29098 0.66712 0.90296 0.0
C1533 C 0.23034 0.66037 0.85075 0.0
C1534 C 0.21121 0.67273 0.9071 0.0
H1535 H 0.28067 0.65347 0.8003 0.0
H1536 H 0.21546 0.65221 0.8071 0.0
S1537 S 0.25547 0.7031 0.06314 0.0
N1538 N 0.28997 0.68981 0.0165 0.0
N1539 N 0.2183 0.69698 0.01814 0.0
C1540 C 0.2329 0.68331 0.96158 0.0
C1541 C 0.27229 0.67964 0.96028 0.0
C1542 C 0.70669 0.77801 0.09899 0.0
C1543 C 0.67301 0.79566 0.10901 0.0
C1544 C 0.7111 0.74033 0.1122 0.0
C1545 C 0.68147 0.71855 0.1321 0.0
H1546 H 0.73019 0.79372 0.08372 0.0
H1547 H 0.73757 0.72796 0.10454 0.0
S1548 S 0.59281 0.75495 0.19257 0.0
N1549 N 0.61389 0.79066 0.16132 0.0
N1550 N 0.62025 0.72026 0.17898 0.0
C1551 C 0.64865 0.73686 0.14799 0.0
C1552 C 0.64476 0.7751 0.13724 0.0
C1553 C 0.76631 0.34626 0.93421 0.0
C1554 C 0.78749 0.34776 0.87651 0.0
C1555 C 0.72816 0.34667 0.9314 0.0
C1556 C 0.70897 0.3432 0.87102 0.0
H1557 H 0.77906 0.34436 0.9824 0.0
H1558 H 0.71372 0.34943 0.97766 0.0
S1559 S 0.75001 0.3509 0.70412 0.0
N1560 N 0.78498 0.35291 0.7555 0.0
N1561 N 0.71373 0.34616 0.75144 0.0
C1562 C 0.7293 0.3462 0.81262 0.0
C1563 C 0.76827 0.34964 0.81519 0.0
C1564 C 0.84559 0.73349 0.56076 0.0
C1565 C 0.84525 0.71151 0.61804 0.0
C1566 C 0.84486 0.77205 0.56489 0.0
C1567 C 0.84435 0.7906 0.62651 0.0
H1568 H 0.8454 0.72086 0.51223 0.0
H1569 H 0.84428 0.78748 0.51914 0.0
S1570 S 0.84337 0.74713 0.79118 0.0
N1571 N 0.84507 0.71259 0.7391 0.0
N1572 N 0.84372 0.78404 0.74535 0.0
C1573 C 0.8452 0.76921 0.68374 0.0
C1574 C 0.8458 0.73013 0.67989 0.0
C1575 C 0.76655 0.14119 0.32887 0.0
C1576 C 0.79096 0.14997 0.37988 0.0
C1577 C 0.72852 0.14409 0.33786 0.0
C1578 C 0.71237 0.15537 0.39837 0.0
H1579 H 0.77687 0.1336 0.28052 0.0
H1580 H 0.71167 0.13865 0.29522 0.0
S1581 S 0.76416 0.1791 0.5496 0.0
N1582 N 0.79612 0.16872 0.49512 0.0
N1583 N 0.72484 0.17407 0.51096 0.0
C1584 C 0.73652 0.16291 0.45052 0.0
C1585 C 0.77551 0.16024 0.44148 0.0
C1586 C 0.14919 0.27568 0.68711 0.0
C1587 C 0.15855 0.29273 0.62672 0.0
C1588 C 0.14671 0.23775 0.69254 0.0
C1589 C 0.15055 0.2153 0.63696 0.0
H1590 H 0.14481 0.29163 0.73152 0.0
H1591 H 0.14333 0.22597 0.74112 0.0
S1592 S 0.16738 0.24651 0.46447 0.0
N1593 N 0.16852 0.28426 0.50897 0.0
N1594 N 0.15834 0.21332 0.51717 0.0
C1595 C 0.15568 0.23219 0.57477 0.0
C1596 C 0.16088 0.27077 0.57007 0.0
C1597 C 0.26349 0.8029 0.38701 0.0
C1598 C 0.28309 0.83253 0.36208 0.0
C1599 C 0.22608 0.79877 0.37326 0.0
C1600 C 0.20666 0.8255 0.33766 0.0
H1601 H 0.27715 0.78274 0.41717 0.0
H1602 H 0.21193 0.77571 0.39424 0.0
S1603 S 0.25241 0.88443 0.21513 0.0
N1604 N 0.28559 0.87083 0.26465 0.0
N1605 N 0.21444 0.86762 0.24651 0.0
C1606 C 0.22783 0.84948 0.29966 0.0
C1607 C 0.26639 0.85192 0.31034 0.0
C1608 C 0.21901 0.09237 0.86468 0.0
C1609 C 0.2326 0.1088 0.80511 0.0
C1610 C 0.2384 0.09175 0.92742 0.0
C1611 C 0.27317 0.10796 0.93705 0.0
H1612 H 0.19294 0.07874 0.86276 0.0
H1613 H 0.22638 0.07722 0.96845 0.0
S1614 S 0.32189 0.15706 0.80091 0.0
N1615 N 0.28422 0.14303 0.76384 0.0
N1616 N 0.31946 0.14259 0.87829 0.0
C1617 C 0.28697 0.1249 0.87811 0.0
C1618 C 0.26736 0.12522 0.81409 0.0
C1619 C 0.11192 0.77146 0.0896 0.0
C1620 C 0.0891 0.74141 0.07304 0.0
C1621 C 0.11181 0.78907 0.15418 0.0
C1622 C 0.08935 0.77828 0.20929 0.0
H1623 H 0.13099 0.78116 0.05274 0.0
H1624 H 0.13055 0.81152 0.1613 0.0
S1625 S 0.01985 0.70526 0.19167 0.0
N1626 N 0.04028 0.70464 0.11876 0.0
N1627 N 0.04054 0.73677 0.23644 0.0
C1628 C 0.06563 0.7491 0.19264 0.0
C1629 C 0.06558 0.7312 0.12674 0.0
C1630 C 0.73703 0.87584 0.91526 0.0
C1631 C 0.73441 0.90651 0.95935 0.0
C1632 C 0.75251 0.87726 0.84863 0.0
C1633 C 0.76759 0.90948 0.81959 0.0
H1634 H 0.72608 0.85004 0.93194 0.0
H1635 H 0.7531 0.85233 0.81992 0.0
S1636 S 0.76368 0.99934 0.90634 0.0
N1637 N 0.743 0.97195 0.95922 0.0
N1638 N 0.77745 0.97343 0.84424 0.0
C1639 C 0.76512 0.94019 0.86325 0.0
C1640 C 0.74687 0.93921 0.92863 0.0
C1641 C 0.92148 0.23815 0.07925 0.0
C1642 C 0.89766 0.26792 0.0654 0.0
C1643 C 0.9228 0.2195 0.14266 0.0
C1644 C 0.90073 0.22871 0.19862 0.0
H1645 H 0.94019 0.22943 0.04101 0.0
H1646 H 0.94274 0.19816 0.14866 0.0
S1647 S 0.83605 0.30699 0.19523 0.0
N1648 N 0.8529 0.30692 0.11936 0.0
N1649 N 0.8559 0.27287 0.23467 0.0
C1650 C 0.87802 0.25942 0.18665 0.0
C1651 C 0.8764 0.27835 0.12206 0.0
C1652 C 0.273 0.38382 0.37803 0.0
C1653 C 0.2728 0.41497 0.33564 0.0
C1654 C 0.25544 0.38285 0.44231 0.0
C1655 C 0.23631 0.41305 0.47028 0.0
H1656 H 0.28694 0.3595 0.36129 0.0
H1657 H 0.25638 0.3576 0.47 0.0
S1658 S 0.22436 0.50084 0.38001 0.0
N1659 N 0.25008 0.47688 0.32879 0.0
N1660 N 0.21686 0.4746 0.44511 0.0
C1661 C 0.23552 0.44409 0.42796 0.0
C1662 C 0.25393 0.44533 0.36316 0.0
C1663 C 0.40006 0.76495 0.68867 0.0
C1664 C 0.41912 0.73211 0.70062 0.0
C1665 C 0.39985 0.78275 0.62534 0.0
C1666 C 0.41852 0.76956 0.56771 0.0
H1667 H 0.38432 0.7769 0.72854 0.0
H1668 H 0.38366 0.80719 0.62186 0.0
S1669 S 0.47408 0.68475 0.57096 0.0
N1670 N 0.45819 0.68736 0.6474 0.0
N1671 N 0.45728 0.72014 0.53043 0.0
C1672 C 0.43751 0.73644 0.57886 0.0
C1673 C 0.43789 0.71823 0.64388 0.0
C1674 C 0.72834 0.60958 0.35023 0.0
C1675 C 0.74187 0.59193 0.29141 0.0
C1676 C 0.74576 0.60841 0.41497 0.0
C1677 C 0.77873 0.58917 0.42853 0.0
H1678 H 0.70352 0.62539 0.34645 0.0
H1679 H 0.73299 0.62325 0.45511 0.0
S1680 S 0.82691 0.53632 0.29573 0.0
N1681 N 0.79163 0.55341 0.25527 0.0
N1682 N 0.82339 0.55073 0.37305 0.0
C1683 C 0.79251 0.57099 0.37039 0.0
C1684 C 0.7747 0.57234 0.30412 0.0
C1685 C 0.61985 0.25086 0.59334 0.0
C1686 C 0.59019 0.22973 0.56774 0.0
C1687 C 0.62003 0.26751 0.65907 0.0
C1688 C 0.59067 0.26462 0.70564 0.0
H1689 H 0.64362 0.25449 0.56238 0.0
H1690 H 0.6436 0.28351 0.67311 0.0
S1691 S 0.50509 0.21464 0.6654 0.0
N1692 N 0.52988 0.20848 0.59804 0.0
N1693 N 0.53009 0.2395 0.71642 0.0
C1694 C 0.56086 0.24412 0.68019 0.0
C1695 C 0.56077 0.22687 0.61392 0.0
C1696 C 0.37184 0.11287 0.62089 0.0
C1697 C 0.33653 0.10111 0.60861 0.0
C1698 C 0.38864 0.1032 0.67843 0.0
C1699 C 0.37176 0.07927 0.72249 0.0
H1700 H 0.3868 0.12934 0.58572 0.0
H1701 H 0.41643 0.11221 0.68679 0.0
S1702 S 0.26859 0.04014 0.71958 0.0
N1703 N 0.28454 0.0694 0.66313 0.0
N1704 N 0.30225 0.06678 0.68482 0.0
C1705 C 0.33621 0.06482 0.71839 0.0
C1706 C 0.31828 0.07844 0.66279 0.0
C1707 C 0.11854 0.63386 0.39947 0.0
C1708 C 0.12161 0.67208 0.40719 0.0
C1709 C 0.10638 0.61935 0.34023 0.0
C1710 C 0.10236 0.64184 0.28511 0.0
H1711 H 0.12326 0.61475 0.43886 0.0
H1712 H 0.09778 0.59109 0.33865 0.0
S1713 S 0.1497 0.73002 0.26798 0.0
N1714 N 0.14546 0.7244 0.34873 0.0
N1715 N 0.12849 0.69532 0.2323 0.0
C1716 C 0.11834 0.67653 0.287 0.0
C1717 C 0.12762 0.69206 0.34938 0.0
C1718 C 0.62159 0.90574 0.63521 0.0
C1719 C 0.65876 0.91467 0.62757 0.0
C1720 C 0.60176 0.91781 0.68917 0.0
C1721 C 0.61838 0.93938 0.73741 0.0
H1722 H 0.60741 0.88947 0.59857 0.0
H1723 H 0.57325 0.91042 0.69298 0.0
S1724 S 0.71394 0.96998 0.74375 0.0
N1725 N 0.71206 0.94261 0.67921 0.0
N1726 N 0.67271 0.97034 0.77561 0.0
C1727 C 0.65532 0.948 0.73215 0.0
C1728 C 0.67617 0.93412 0.67871 0.0
C1729 C 0.94574 0.39135 0.34833 0.0
C1730 C 0.96246 0.37173 0.29744 0.0
C1731 C 0.92985 0.37331 0.40131 0.0
C1732 C 0.9304 0.33495 0.40616 0.0
H1733 H 0.94294 0.42071 0.34529 0.0
H1734 H 0.91596 0.38973 0.43803 0.0
S1735 S 0.97006 0.27146 0.28217 0.0
N1736 N 0.97939 0.31245 0.25366 0.0
N1737 N 0.9468 0.27814 0.35098 0.0
C1738 C 0.9466 0.315 0.35447 0.0
C1739 C 0.96369 0.33354 0.30117 0.0
C1740 C 0.32966 0.40939 0.534 0.0
C1741 C 0.35376 0.43832 0.52996 0.0
C1742 C 0.30523 0.40765 0.58509 0.0
C1743 C 0.31216 0.42636 0.64904 0.0
H1744 H 0.3298 0.38713 0.49863 0.0
H1745 H 0.28696 0.385 0.57692 0.0
S1746 S 0.33853 0.5254 0.61489 0.0
N1747 N 0.36011 0.50171 0.55764 0.0
N1748 N 0.31416 0.49551 0.65672 0.0
C1749 C 0.32315 0.46354 0.62612 0.0
C1750 C 0.34736 0.46781 0.571 0.0
C1751 C 0.46238 0.64542 0.38347 0.0
C1752 C 0.43363 0.66584 0.34193 0.0
C1753 C 0.45635 0.62641 0.44295 0.0
C1754 C 0.42295 0.62222 0.47638 0.0
H1755 H 0.4903 0.64433 0.36703 0.0
H1756 H 0.47996 0.61292 0.46391 0.0
S1757 S 0.30858 0.6429 0.40511 0.0
N1758 N 0.34754 0.66357 0.33599 0.0
N1759 N 0.34967 0.6305 0.47419 0.0
C1760 C 0.39199 0.63998 0.45486 0.0
C1761 C 0.39668 0.65936 0.37797 0.0
C1762 C 0.62187 0.576 0.61927 0.0
C1763 C 0.6417 0.60915 0.65206 0.0
C1764 C 0.60596 0.57464 0.55791 0.0
C1765 C 0.59941 0.60551 0.52264 0.0
H1766 H 0.61931 0.54928 0.64101 0.0
H1767 H 0.59768 0.54841 0.53816 0.0
S1768 S 0.60329 0.70085 0.57696 0.0
N1769 N 0.62258 0.67748 0.63671 0.0
N1770 N 0.59363 0.67005 0.52098 0.0
C1771 C 0.60608 0.63907 0.5507 0.0
C1772 C 0.62352 0.64241 0.6142 0.0
C1773 C 0.64211 0.40745 0.41747 0.0
C1774 C 0.61562 0.40154 0.46346 0.0
C1775 C 0.64928 0.38243 0.36814 0.0
C1776 C 0.62839 0.34586 0.35363 0.0
H1777 H 0.65866 0.43191 0.42063 0.0
H1778 H 0.67096 0.39316 0.33839 0.0
S1779 S 0.56643 0.31715 0.50336 0.0
N1780 N 0.57384 0.36059 0.5152 0.0
N1781 N 0.59078 0.30779 0.43761 0.0
C1782 C 0.60541 0.34025 0.41884 0.0
C1783 C 0.59723 0.36863 0.46468 0.0
C1784 C 0.8866 0.63083 0.08341 0.0
C1785 C 0.84809 0.63034 0.08199 0.0
C1786 C 0.90513 0.62073 0.14003 0.0
C1787 C 0.88613 0.61554 0.19887 0.0
H1788 H 0.90302 0.6377 0.04113 0.0
H1789 H 0.93432 0.61647 0.13757 0.0
S1790 S 0.79267 0.65081 0.2285 0.0
N1791 N 0.79586 0.64766 0.14722 0.0
N1792 N 0.83125 0.6345 0.25892 0.0
C1793 C 0.84943 0.6272 0.20195 0.0
C1794 C 0.8302 0.63423 0.14219 0.0
C1795 C 0.5918 0.15085 0.81126 0.0
C1796 C 0.61502 0.1218 0.79741 0.0
C1797 C 0.60558 0.1809 0.84521 0.0
C1798 C 0.63723 0.17616 0.89017 0.0
H1799 H 0.56427 0.15169 0.79153 0.0
H1800 H 0.58683 0.20353 0.84657 0.0
S1801 S 0.71442 0.13464 0.78901 0.0
N1802 N 0.67816 0.11037 0.76975 0.0
N1803 N 0.69952 0.16706 0.8386 0.0
C1804 C 0.66327 0.1595 0.84224 0.0
C1805 C 0.65208 0.12886 0.80381 0.0
C1806 C 0.18726 0.41175 0.25226 0.0
C1807 C 0.15775 0.38729 0.25256 0.0
C1808 C 0.1924 0.43684 0.19942 0.0
C1809 C 0.16755 0.43602 0.1426 0.0
H1810 H 0.20632 0.41073 0.29238 0.0
H1811 H 0.21814 0.45119 0.1975 0.0
S1812 S 0.06215 0.39858 0.10849 0.0
N1813 N 0.09875 0.36878 0.17327 0.0
N1814 N 0.09205 0.4489 0.1268 0.0
C1815 C 0.1301 0.44162 0.17529 0.0
C1816 C 0.13106 0.39556 0.20765 0.0
C1817 C 0.39831 0.88185 0.91302 0.0
C1818 C 0.40987 0.84529 0.91904 0.0
C1819 C 0.40394 0.90155 0.85524 0.0
C1820 C 0.42154 0.88551 0.80139 0.0
H1821 H 0.38225 0.89465 0.9515 0.0
H1822 H 0.39271 0.9288 0.85135 0.0
S1823 S 0.46327 0.7942 0.79282 0.0
N1824 N 0.44226 0.79512 0.86502 0.0
N1825 N 0.4552 0.83409 0.75833 0.0
C1826 C 0.43539 0.85024 0.80703 0.0
C1827 C 0.42886 0.82954 0.86534 0.0
C1828 C 0.8785 0.86308 0.1603 0.0
C1829 C 0.84396 0.88046 0.15957 0.0
C1830 C 0.90414 0.86919 0.11088 0.0
C1831 C 0.89642 0.89365 0.06021 0.0
H1832 H 0.88615 0.84491 0.20014 0.0
H1833 H 0.92963 0.85427 0.11152 0.0
S1834 S 0.8108 0.94343 0.03032 0.0
N1835 N 0.80195 0.91726 0.09433 0.0
N1836 N 0.85348 0.93569 1.01054 0.0
C1837 C 0.86253 0.91124 0.05838 0.0
C1838 C 0.83521 0.90238 0.10498 0.0
C1839 C 0.90987 0.15769 0.99993 0.0
C1840 C 0.94082 0.13657 0.99402 0.0
C1841 C 0.90238 0.18409 0.95277 0.0
C1842 C 0.91882 0.18328 0.88518 0.0
H1843 H 0.89129 0.15408 0.04115 0.0
H1844 H 0.87837 0.19936 0.96693 0.0
S1845 S 0.02095 0.16148 0.89618 0.0
N1846 N 1.00213 0.13637 0.95387 0.0
N1847 N 0.98739 0.1859 0.86501 0.0
C1848 C 0.95791 0.17416 0.90026 0.0
C1849 C 0.96696 0.14777 0.94958 0.0
C1850 C 0.15159 0.09802 0.02628 0.0
C1851 C 0.1155 0.10672 0.01857 0.0
C1852 C 0.17243 0.11295 0.07644 0.0
C1853 C 0.15821 0.13539 0.13814 0.0
H1854 H 0.16427 0.07878 0.99271 0.0
H1855 H 0.20066 0.10615 0.06915 0.0
S1856 S 0.06438 0.18112 0.09774 0.0
N1857 N 0.06763 0.14849 0.04262 0.0
N1858 N 0.10271 0.17866 0.13961 0.0
C1859 C 0.12085 0.15022 0.11152 0.0
C1860 C 0.10103 0.13437 0.05691 0.0
C1861 C 0.10356 0.84628 0.92935 0.0
C1862 C 0.12642 0.85787 0.86694 0.0
C1863 C 0.09359 0.868 0.98199 0.0
C1864 C 0.10794 0.90219 0.99121 0.0
H1865 H 0.0907 0.82021 0.9352 0.0
H1866 H 0.07355 0.85732 0.01635 0.0
S1867 S 0.18594 0.94426 0.90681 0.0
N1868 N 0.17595 0.90818 0.86256 0.0
N1869 N 0.15548 0.94389 0.96581 0.0
C1870 C 0.13576 0.91358 0.95038 0.0
C1871 C 0.14617 0.89344 0.89227 0.0
loop_
_geom_bond_atom_site_label_1
_geom_bond_atom_site_label_2
_geom_bond_distance
_geom_bond_site_symmetry_2
_ccdc_geom_bond_type
Eu0 N29 2.600 . S
Eu0 N35 2.562 . S
Eu0 O44 2.462 1_554 S
Eu0 O45 2.373 . S
Eu0 O47 2.432 1_554 S
Eu0 O48 2.291 . S
Eu0 O52 2.335 . S
Eu0 O55 2.372 . S
Eu0 C64 2.787 1_554 S
C1 N2 1.365 . S
C1 C4 1.405 . S
C1 C8 1.448 . S
N2 C1 1.365 . S
N2 C5 1.319 . S
N2 Eu11 2.600 . S
C3 C5 1.397 . S
C3 C6 1.367 . S
C3 H23 0.931 . S
C4 C1 1.405 . S
C4 C6 1.403 . S
C4 C10 1.439 . S
C5 N2 1.319 . S
C5 C3 1.397 . S
C5 H16 0.930 . S
C6 C3 1.367 . S
C6 C4 1.403 . S
C6 H27 0.929 . S
C7 C8 1.430 . S
C7 C9 1.387 . S
C7 C13 1.404 . S
C8 C1 1.448 . S
C8 C7 1.430 . S
C8 N12 1.351 . S
C9 C7 1.387 . S
C9 C10 1.374 . S
C9 H24 0.931 . S
C10 C4 1.439 . S
C10 C9 1.374 . S
C10 H25 0.931 . S
Eu11 N2 2.600 . S
Eu11 N12 2.562 . S
Eu11 O46 2.335 . S
Eu11 O49 2.372 . S
Eu11 O50 2.462 . S
Eu11 O51 2.373 . S
Eu11 O53 2.432 . S
Eu11 O54 2.291 . S
Eu11 C75 2.787 . S
N12 C8 1.351 . S
N12 Eu11 2.562 . S
N12 C14 1.325 . S
C13 C7 1.404 . S
C13 C15 1.366 . S
C13 H21 0.930 . S
C14 N12 1.325 . S
C14 C15 1.416 . S
C14 H20 0.929 . S
C15 C13 1.366 . S
C15 C14 1.416 . S
C15 H17 0.930 . S
H16 C5 0.930 . S
H17 C15 0.930 . S
H18 C33 0.930 . S
H19 C40 0.930 . S
H20 C14 0.929 . S
H21 C13 0.930 . S
H22 C36 0.929 . S
H23 C3 0.931 . S
H24 C9 0.931 . S
H25 C10 0.931 . S
H26 C31 0.931 . S
H27 C6 0.929 . S
H28 C39 0.930 . S
N29 Eu0 2.600 . S
N29 C30 1.365 . S
N29 C33 1.319 . S
C30 N29 1.365 . S
C30 C32 1.405 . S
C30 C38 1.448 . S
C31 H26 0.931 . S
C31 C33 1.397 1_565 S
C31 C34 1.367 1_565 S
C32 C30 1.405 . S
C32 C34 1.403 . S
C32 C65 1.439 . S
C33 H18 0.930 . S
C33 N29 1.319 . S
C33 C31 1.397 1_545 S
C34 C31 1.367 1_545 S
C34 C32 1.403 . S
C34 H41 0.929 1_545 S
N35 Eu0 2.562 . S
N35 C36 1.325 . S
N35 C38 1.351 . S
C36 H22 0.929 . S
C36 N35 1.325 . S
C36 C40 1.416 . S
C37 C38 1.430 . S
C37 C39 1.404 . S
C37 C66 1.387 . S
C38 C30 1.448 . S
C38 N35 1.351 . S
C38 C37 1.430 . S
C39 H28 0.930 . S
C39 C37 1.404 . S
C39 C40 1.366 . S
C40 H19 0.930 . S
C40 C36 1.416 . S
C40 C39 1.366 . S
H41 C34 0.929 1_565 S
H42 C65 0.931 . S
H43 C66 0.931 . S
O44 Eu0 2.462 1_556 S
O44 C64 1.252 . S
O45 Eu0 2.373 . S
O45 C56 1.249 . S
O46 Eu11 2.335 . S
O46 C56 1.264 . S
O47 Eu0 2.432 1_556 S
O47 C64 1.268 . S
O48 Eu0 2.291 . S
O48 C63 1.255 . S
O49 Eu11 2.372 . S
O49 C63 1.257 . S
O50 Eu11 2.462 . S
O50 C75 1.252 . S
O51 Eu11 2.373 . S
O51 C67 1.249 . S
O52 Eu0 2.335 . S
O52 C67 1.264 . S
O53 Eu11 2.432 . S
O53 C75 1.268 . S
O54 Eu11 2.291 . S
O54 C74 1.255 . S
O55 Eu0 2.372 . S
O55 C74 1.257 . S
C56 O45 1.249 . S
C56 O46 1.264 . S
C57 C60 1.382 . S
C57 C62 1.390 . S
C57 C64 1.506 . S
C58 C59 1.398 . S
C58 C62 1.392 . S
C59 C58 1.398 . S
C59 C61 1.372 . S
C59 H76 0.931 . S
C60 C57 1.382 . S
C60 C61 1.390 . S
C60 H77 0.931 . S
C61 C59 1.372 . S
C61 C60 1.390 . S
C61 H78 0.929 . S
C62 C57 1.390 . S
C62 C58 1.392 . S
C62 H79 0.930 . S
C63 O48 1.255 . S
C63 O49 1.257 . S
C64 Eu0 2.787 1_556 S
C64 O44 1.252 . S
C64 O47 1.268 . S
C64 C57 1.506 . S
C65 C32 1.439 . S
C65 H42 0.931 . S
C65 C66 1.374 . S
C66 C37 1.387 . S
C66 H43 0.931 . S
C66 C65 1.374 . S
C67 O51 1.249 . S
C67 O52 1.264 . S
C68 C71 1.382 . S
C68 C72 1.390 . S
C68 C75 1.506 . S
C69 C70 1.398 . S
C69 C72 1.392 . S
C70 C69 1.398 . S
C70 C73 1.372 . S
C70 H80 0.931 . S
C71 C68 1.382 . S
C71 C73 1.390 . S
C71 H81 0.931 . S
C72 C68 1.390 . S
C72 C69 1.392 . S
C72 H82 0.930 . S
C73 C70 1.372 . S
C73 C71 1.390 . S
C73 H83 0.929 . S
C74 O54 1.255 . S
C74 O55 1.257 . S
C75 Eu11 2.787 . S
C75 O50 1.252 . S
C75 O53 1.268 . S
C75 C68 1.506 . S
H76 C59 0.931 . S
H77 C60 0.931 . S
H78 C61 0.929 . S
H79 C62 0.930 . S
H80 C70 0.931 . S
H81 C71 0.931 . S
H82 C72 0.930 . S
H83 C73 0.929 . S
Eu84 N113 2.600 . S
Eu84 N119 2.562 . S
Eu84 O128 2.462 . S
Eu84 O129 2.373 . S
Eu84 O131 2.432 . S
Eu84 O132 2.291 . S
Eu84 O136 2.335 . S
Eu84 O139 2.372 . S
Eu84 C148 2.787 . S
C85 N86 1.365 . S
C85 C88 1.405 . S
C85 C92 1.448 . S
N86 C85 1.365 . S
N86 C89 1.319 . S
N86 Eu95 2.600 . S
C87 C89 1.397 1_655 S
C87 C90 1.367 1_655 S
C87 H107 0.931 . S
C88 C85 1.405 . S
C88 C90 1.403 . S
C88 C94 1.439 . S
C89 N86 1.319 . S
C89 C87 1.397 1_455 S
C89 H100 0.930 . S
C90 C87 1.367 1_455 S
C90 C88 1.403 . S
C90 H111 0.929 1_455 S
C91 C92 1.430 . S
C91 C93 1.387 . S
C91 C97 1.404 . S
C92 C85 1.448 . S
C92 C91 1.430 . S
C92 N96 1.351 . S
C93 C91 1.387 . S
C93 C94 1.374 . S
C93 H108 0.931 . S
C94 C88 1.439 . S
C94 C93 1.374 . S
C94 H109 0.931 . S
Eu95 N86 2.600 . S
Eu95 N96 2.562 . S
Eu95 O130 2.335 . S
Eu95 O133 2.372 . S
Eu95 O134 2.462 1_556 S
Eu95 O135 2.373 . S
Eu95 O137 2.432 1_556 S
Eu95 O138 2.291 . S
Eu95 C159 2.787 1_556 S
N96 C92 1.351 . S
N96 Eu95 2.562 . S
N96 C98 1.325 . S
C97 C91 1.404 . S
C97 C99 1.366 . S
C97 H105 0.930 . S
C98 N96 1.325 . S
C98 C99 1.416 . S
C98 H104 0.929 . S
C99 C97 1.366 . S
C99 C98 1.416 . S
C99 H101 0.930 . S
H100 C89 0.930 . S
H101 C99 0.930 . S
H102 C117 0.930 . S
H103 C124 0.930 . S
H104 C98 0.929 . S
H105 C97 0.930 . S
H106 C120 0.929 . S
H107 C87 0.931 . S
H108 C93 0.931 . S
H109 C94 0.931 . S
H110 C115 0.931 . S
H111 C90 0.929 1_655 S
H112 C123 0.930 . S
N113 Eu84 2.600 . S
N113 C114 1.365 . S
N113 C117 1.319 . S
C114 N113 1.365 . S
C114 C116 1.405 . S
C114 C122 1.448 . S
C115 H110 0.931 . S
C115 C117 1.397 . S
C115 C118 1.367 . S
C116 C114 1.405 . S
C116 C118 1.403 . S
C116 C149 1.439 . S
C117 H102 0.930 . S
C117 N113 1.319 . S
C117 C115 1.397 . S
C118 C115 1.367 . S
C118 C116 1.403 . S
C118 H125 0.929 . S
N119 Eu84 2.562 . S
N119 C120 1.325 . S
N119 C122 1.351 . S
C120 H106 0.929 . S
C120 N119 1.325 . S
C120 C124 1.416 . S
C121 C122 1.430 . S
C121 C123 1.404 . S
C121 C150 1.387 . S
C122 C114 1.448 . S
C122 N119 1.351 . S
C122 C121 1.430 . S
C123 H112 0.930 . S
C123 C121 1.404 . S
C123 C124 1.366 . S
C124 H103 0.930 . S
C124 C120 1.416 . S
C124 C123 1.366 . S
H125 C118 0.929 . S
H126 C149 0.931 . S
H127 C150 0.931 . S
O128 Eu84 2.462 . S
O128 C148 1.252 . S
O129 Eu84 2.373 . S
O129 C140 1.249 . S
O130 Eu95 2.335 . S
O130 C140 1.264 . S
O131 Eu84 2.432 . S
O131 C148 1.268 . S
O132 Eu84 2.291 . S
O132 C147 1.255 . S
O133 Eu95 2.372 . S
O133 C147 1.257 . S
O134 Eu95 2.462 1_554 S
O134 C159 1.252 . S
O135 Eu95 2.373 . S
O135 C151 1.249 . S
O136 Eu84 2.335 . S
O136 C151 1.264 . S
O137 Eu95 2.432 1_554 S
O137 C159 1.268 . S
O138 Eu95 2.291 . S
O138 C158 1.255 . S
O139 Eu84 2.372 . S
O139 C158 1.257 . S
C140 O129 1.249 . S
C140 O130 1.264 . S
C141 C144 1.382 . S
C141 C146 1.390 . S
C141 C148 1.506 . S
C142 C143 1.398 . S
C142 C146 1.392 . S
C143 C142 1.398 . S
C143 C145 1.372 . S
C143 H160 0.931 . S
C144 C141 1.382 . S
C144 C145 1.390 . S
C144 H161 0.931 . S
C145 C143 1.372 . S
C145 C144 1.390 . S
C145 H162 0.929 . S
C146 C141 1.390 . S
C146 C142 1.392 . S
C146 H163 0.930 . S
C147 O132 1.255 . S
C147 O133 1.257 . S
C148 Eu84 2.787 . S
C148 O128 1.252 . S
C148 O131 1.268 . S
C148 C141 1.506 . S
C149 C116 1.439 . S
C149 H126 0.931 . S
C149 C150 1.374 . S
C150 C121 1.387 . S
C150 H127 0.931 . S
C150 C149 1.374 . S
C151 O135 1.249 . S
C151 O136 1.264 . S
C152 C155 1.382 . S
C152 C156 1.390 . S
C152 C159 1.506 . S
C153 C154 1.398 . S
C153 C156 1.392 . S
C154 C153 1.398 . S
C154 C157 1.372 . S
C154 H164 0.931 . S
C155 C152 1.382 . S
C155 C157 1.390 . S
C155 H165 0.931 . S
C156 C152 1.390 . S
C156 C153 1.392 . S
C156 H166 0.930 . S
C157 C154 1.372 . S
C157 C155 1.390 . S
C157 H167 0.929 . S
C158 O138 1.255 . S
C158 O139 1.257 . S
C159 Eu95 2.787 1_554 S
C159 O134 1.252 . S
C159 O137 1.268 . S
C159 C152 1.506 . S
H160 C143 0.931 . S
H161 C144 0.931 . S
H162 C145 0.929 . S
H163 C146 0.930 . S
H164 C154 0.931 . S
H165 C155 0.931 . S
H166 C156 0.930 . S
H167 C157 0.929 . S
Eu168 N197 2.600 . S
Eu168 N203 2.562 . S
Eu168 O212 2.462 1_554 S
Eu168 O213 2.373 . S
Eu168 O215 2.432 1_554 S
Eu168 O216 2.291 . S
Eu168 O220 2.335 . S
Eu168 O223 2.372 . S
Eu168 C232 2.787 1_554 S
C169 N170 1.365 . S
C169 C172 1.405 . S
C169 C176 1.448 . S
N170 C169 1.365 . S
N170 C173 1.319 . S
N170 Eu179 2.600 . S
C171 C173 1.397 . S
C171 C174 1.367 . S
C171 H191 0.931 . S
C172 C169 1.405 . S
C172 C174 1.403 . S
C172 C178 1.439 . S
C173 N170 1.319 . S
C173 C171 1.397 . S
C173 H184 0.930 . S
C174 C171 1.367 . S
C174 C172 1.403 . S
C174 H195 0.929 . S
C175 C176 1.430 . S
C175 C177 1.387 . S
C175 C181 1.404 . S
C176 C169 1.448 . S
C176 C175 1.430 . S
C176 N180 1.351 . S
C177 C175 1.387 . S
C177 C178 1.374 . S
C177 H192 0.931 . S
C178 C172 1.439 . S
C178 C177 1.374 . S
C178 H193 0.931 . S
Eu179 N170 2.600 . S
Eu179 N180 2.562 . S
Eu179 O214 2.335 . S
Eu179 O217 2.372 . S
Eu179 O218 2.462 . S
Eu179 O219 2.373 . S
Eu179 O221 2.432 . S
Eu179 O222 2.291 . S
Eu179 C243 2.787 . S
N180 C176 1.351 . S
N180 Eu179 2.562 . S
N180 C182 1.325 . S
C181 C175 1.404 . S
C181 C183 1.366 . S
C181 H189 0.930 . S
C182 N180 1.325 . S
C182 C183 1.416 . S
C182 H188 0.929 . S
C183 C181 1.366 . S
C183 C182 1.416 . S
C183 H185 0.930 . S
H184 C173 0.930 . S
H185 C183 0.930 . S
H186 C201 0.930 . S
H187 C208 0.930 . S
H188 C182 0.929 . S
H189 C181 0.930 . S
H190 C204 0.929 . S
H191 C171 0.931 . S
H192 C177 0.931 . S
H193 C178 0.931 . S
H194 C199 0.931 . S
H195 C174 0.929 . S
H196 C207 0.930 . S
N197 Eu168 2.600 . S
N197 C198 1.365 . S
N197 C201 1.319 . S
C198 N197 1.365 . S
C198 C200 1.405 . S
C198 C206 1.448 . S
C199 H194 0.931 . S
C199 C201 1.397 1_545 S
C199 C202 1.367 1_545 S
C200 C198 1.405 . S
C200 C202 1.403 . S
C200 C233 1.439 . S
C201 H186 0.930 . S
C201 N197 1.319 . S
C201 C199 1.397 1_565 S
C202 C199 1.367 1_565 S
C202 C200 1.403 . S
C202 H209 0.929 1_565 S
N203 Eu168 2.562 . S
N203 C204 1.325 . S
N203 C206 1.351 . S
C204 H190 0.929 . S
C204 N203 1.325 . S
C204 C208 1.416 . S
C205 C206 1.430 . S
C205 C207 1.404 . S
C205 C234 1.387 . S
C206 C198 1.448 . S
C206 N203 1.351 . S
C206 C205 1.430 . S
C207 H196 0.930 . S
C207 C205 1.404 . S
C207 C208 1.366 . S
C208 H187 0.930 . S
C208 C204 1.416 . S
C208 C207 1.366 . S
H209 C202 0.929 1_545 S
H210 C233 0.931 . S
H211 C234 0.931 . S
O212 Eu168 2.462 1_556 S
O212 C232 1.252 . S
O213 Eu168 2.373 . S
O213 C224 1.249 . S
O214 Eu179 2.335 . S
O214 C224 1.264 . S
O215 Eu168 2.432 1_556 S
O215 C232 1.268 . S
O216 Eu168 2.291 . S
O216 C231 1.255 . S
O217 Eu179 2.372 . S
O217 C231 1.257 . S
O218 Eu179 2.462 . S
O218 C243 1.252 . S
O219 Eu179 2.373 . S
O219 C235 1.249 . S
O220 Eu168 2.335 . S
O220 C235 1.264 . S
O221 Eu179 2.432 . S
O221 C243 1.268 . S
O222 Eu179 2.291 . S
O222 C242 1.255 . S
O223 Eu168 2.372 . S
O223 C242 1.257 . S
C224 O213 1.249 . S
C224 O214 1.264 . S
C225 C228 1.382 . S
C225 C230 1.390 . S
C225 C232 1.506 . S
C226 C227 1.398 . S
C226 C230 1.392 . S
C227 C226 1.398 . S
C227 C229 1.372 . S
C227 H244 0.931 . S
C228 C225 1.382 . S
C228 C229 1.390 . S
C228 H245 0.931 . S
C229 C227 1.372 . S
C229 C228 1.390 . S
C229 H246 0.929 . S
C230 C225 1.390 . S
C230 C226 1.392 . S
C230 H247 0.930 . S
C231 O216 1.255 . S
C231 O217 1.257 . S
C232 Eu168 2.787 1_556 S
C232 O212 1.252 . S
C232 O215 1.268 . S
C232 C225 1.506 . S
C233 C200 1.439 . S
C233 H210 0.931 . S
C233 C234 1.374 . S
C234 C205 1.387 . S
C234 H211 0.931 . S
C234 C233 1.374 . S
C235 O219 1.249 . S
C235 O220 1.264 . S
C236 C239 1.382 . S
C236 C240 1.390 . S
C236 C243 1.506 . S
C237 C238 1.398 . S
C237 C240 1.392 . S
C238 C237 1.398 . S
C238 C241 1.372 . S
C238 H248 0.931 . S
C239 C236 1.382 . S
C239 C241 1.390 . S
C239 H249 0.931 . S
C240 C236 1.390 . S
C240 C237 1.392 . S
C240 H250 0.930 . S
C241 C238 1.372 . S
C241 C239 1.390 . S
C241 H251 0.929 . S
C242 O222 1.255 . S
C242 O223 1.257 . S
C243 Eu179 2.787 . S
C243 O218 1.252 . S
C243 O221 1.268 . S
C243 C236 1.506 . S
H244 C227 0.931 . S
H245 C228 0.931 . S
H246 C229 0.929 . S
H247 C230 0.930 . S
H248 C238 0.931 . S
H249 C239 0.931 . S
H250 C240 0.930 . S
H251 C241 0.929 . S
Eu252 N281 2.600 . S
Eu252 N287 2.562 . S
Eu252 O296 2.462 . S
Eu252 O297 2.373 . S
Eu252 O299 2.432 . S
Eu252 O300 2.291 . S
Eu252 O304 2.335 . S
Eu252 O307 2.372 . S
Eu252 C316 2.787 . S
C253 N254 1.365 . S
C253 C256 1.405 . S
C253 C260 1.448 . S
N254 C253 1.365 . S
N254 C257 1.319 . S
N254 Eu263 2.600 . S
C255 C257 1.397 1_455 S
C255 C258 1.367 1_455 S
C255 H275 0.931 . S
C256 C253 1.405 . S
C256 C258 1.403 . S
C256 C262 1.439 . S
C257 N254 1.319 . S
C257 C255 1.397 1_655 S
C257 H268 0.930 . S
C258 C255 1.367 1_655 S
C258 C256 1.403 . S
C258 H279 0.929 1_655 S
C259 C260 1.430 . S
C259 C261 1.387 . S
C259 C265 1.404 . S
C260 C253 1.448 . S
C260 C259 1.430 . S
C260 N264 1.351 . S
C261 C259 1.387 . S
C261 C262 1.374 . S
C261 H276 0.931 . S
C262 C256 1.439 . S
C262 C261 1.374 . S
C262 H277 0.931 . S
Eu263 N254 2.600 . S
Eu263 N264 2.562 . S
Eu263 O298 2.335 . S
Eu263 O301 2.372 . S
Eu263 O302 2.462 1_556 S
Eu263 O303 2.373 . S
Eu263 O305 2.432 1_556 S
Eu263 O306 2.291 . S
Eu263 C327 2.787 1_556 S
N264 C260 1.351 . S
N264 Eu263 2.562 . S
N264 C266 1.325 . S
C265 C259 1.404 . S
C265 C267 1.366 . S
C265 H273 0.930 . S
C266 N264 1.325 . S
C266 C267 1.416 . S
C266 H272 0.929 . S
C267 C265 1.366 . S
C267 C266 1.416 . S
C267 H269 0.930 . S
H268 C257 0.930 . S
H269 C267 0.930 . S
H270 C285 0.930 . S
H271 C292 0.930 . S
H272 C266 0.929 . S
H273 C265 0.930 . S
H274 C288 0.929 . S
H275 C255 0.931 . S
H276 C261 0.931 . S
H277 C262 0.931 . S
H278 C283 0.931 . S
H279 C258 0.929 1_455 S
H280 C291 0.930 . S
N281 Eu252 2.600 . S
N281 C282 1.365 . S
N281 C285 1.319 . S
C282 N281 1.365 . S
C282 C284 1.405 . S
C282 C290 1.448 . S
C283 H278 0.931 . S
C283 C285 1.397 . S
C283 C286 1.367 . S
C284 C282 1.405 . S
C284 C286 1.403 . S
C284 C317 1.439 . S
C285 H270 0.930 . S
C285 N281 1.319 . S
C285 C283 1.397 . S
C286 C283 1.367 . S
C286 C284 1.403 . S
C286 H293 0.929 . S
N287 Eu252 2.562 . S
N287 C288 1.325 . S
N287 C290 1.351 . S
C288 H274 0.929 . S
C288 N287 1.325 . S
C288 C292 1.416 . S
C289 C290 1.430 . S
C289 C291 1.404 . S
C289 C318 1.387 . S
C290 C282 1.448 . S
C290 N287 1.351 . S
C290 C289 1.430 . S
C291 H280 0.930 . S
C291 C289 1.404 . S
C291 C292 1.366 . S
C292 H271 0.930 . S
C292 C288 1.416 . S
C292 C291 1.366 . S
H293 C286 0.929 . S
H294 C317 0.931 . S
H295 C318 0.931 . S
O296 Eu252 2.462 . S
O296 C316 1.252 . S
O297 Eu252 2.373 . S
O297 C308 1.249 . S
O298 Eu263 2.335 . S
O298 C308 1.264 . S
O299 Eu252 2.432 . S
O299 C316 1.268 . S
O300 Eu252 2.291 . S
O300 C315 1.255 . S
O301 Eu263 2.372 . S
O301 C315 1.257 . S
O302 Eu263 2.462 1_554 S
O302 C327 1.252 . S
O303 Eu263 2.373 . S
O303 C319 1.249 . S
O304 Eu252 2.335 . S
O304 C319 1.264 . S
O305 Eu263 2.432 1_554 S
O305 C327 1.268 . S
O306 Eu263 2.291 . S
O306 C326 1.255 . S
O307 Eu252 2.372 . S
O307 C326 1.257 . S
C308 O297 1.249 . S
C308 O298 1.264 . S
C309 C312 1.382 . S
C309 C314 1.390 . S
C309 C316 1.506 . S
C310 C311 1.398 . S
C310 C314 1.392 . S
C311 C310 1.398 . S
C311 C313 1.372 . S
C311 H328 0.931 . S
C312 C309 1.382 . S
C312 C313 1.390 . S
C312 H329 0.931 . S
C313 C311 1.372 . S
C313 C312 1.390 . S
C313 H330 0.929 . S
C314 C309 1.390 . S
C314 C310 1.392 . S
C314 H331 0.930 . S
C315 O300 1.255 . S
C315 O301 1.257 . S
C316 Eu252 2.787 . S
C316 O296 1.252 . S
C316 O299 1.268 . S
C316 C309 1.506 . S
C317 C284 1.439 . S
C317 H294 0.931 . S
C317 C318 1.374 . S
C318 C289 1.387 . S
C318 H295 0.931 . S
C318 C317 1.374 . S
C319 O303 1.249 . S
C319 O304 1.264 . S
C320 C323 1.382 . S
C320 C324 1.390 . S
C320 C327 1.506 . S
C321 C322 1.398 . S
C321 C324 1.392 . S
C322 C321 1.398 . S
C322 C325 1.372 . S
C322 H332 0.931 . S
C323 C320 1.382 . S
C323 C325 1.390 . S
C323 H333 0.931 . S
C324 C320 1.390 . S
C324 C321 1.392 . S
C324 H334 0.930 . S
C325 C322 1.372 . S
C325 C323 1.390 . S
C325 H335 0.929 . S
C326 O306 1.255 . S
C326 O307 1.257 . S
C327 Eu263 2.787 1_554 S
C327 O302 1.252 . S
C327 O305 1.268 . S
C327 C320 1.506 . S
H328 C311 0.931 . S
H329 C312 0.931 . S
H330 C313 0.929 . S
H331 C314 0.930 . S
H332 C322 0.931 . S
H333 C323 0.931 . S
H334 C324 0.930 . S
H335 C325 0.929 . S
Eu336 N365 2.600 . S
Eu336 N371 2.562 . S
Eu336 O380 2.462 . S
Eu336 O381 2.373 . S
Eu336 O383 2.432 . S
Eu336 O384 2.291 . S
Eu336 O388 2.335 . S
Eu336 O391 2.372 . S
Eu336 C400 2.787 . S
C337 N338 1.365 . S
C337 C340 1.405 . S
C337 C344 1.448 . S
N338 C337 1.365 . S
N338 C341 1.319 . S
N338 Eu347 2.600 . S
C339 C341 1.397 . S
C339 C342 1.367 . S
C339 H359 0.931 . S
C340 C337 1.405 . S
C340 C342 1.403 . S
C340 C346 1.439 . S
C341 N338 1.319 . S
C341 C339 1.397 . S
C341 H352 0.930 . S
C342 C339 1.367 . S
C342 C340 1.403 . S
C342 H363 0.929 . S
C343 C344 1.430 . S
C343 C345 1.387 . S
C343 C349 1.404 . S
C344 C337 1.448 . S
C344 C343 1.430 . S
C344 N348 1.351 . S
C345 C343 1.387 . S
C345 C346 1.374 . S
C345 H360 0.931 . S
C346 C340 1.439 . S
C346 C345 1.374 . S
C346 H361 0.931 . S
Eu347 N338 2.600 . S
Eu347 N348 2.562 . S
Eu347 O382 2.335 . S
Eu347 O385 2.372 . S
Eu347 O386 2.462 1_554 S
Eu347 O387 2.373 . S
Eu347 O389 2.432 1_554 S
Eu347 O390 2.291 . S
Eu347 C411 2.787 1_554 S
N348 C344 1.351 . S
N348 Eu347 2.562 . S
N348 C350 1.325 . S
C349 C343 1.404 . S
C349 C351 1.366 . S
C349 H357 0.930 . S
C350 N348 1.325 . S
C350 C351 1.416 . S
C350 H356 0.929 . S
C351 C349 1.366 . S
C351 C350 1.416 . S
C351 H353 0.930 . S
H352 C341 0.930 . S
H353 C351 0.930 . S
H354 C369 0.930 . S
H355 C376 0.930 . S
H356 C350 0.929 . S
H357 C349 0.930 . S
H358 C372 0.929 . S
H359 C339 0.931 . S
H360 C345 0.931 . S
H361 C346 0.931 . S
H362 C367 0.931 . S
H363 C342 0.929 . S
H364 C375 0.930 . S
N365 Eu336 2.600 . S
N365 C366 1.365 . S
N365 C369 1.319 . S
C366 N365 1.365 . S
C366 C368 1.405 . S
C366 C374 1.448 . S
C367 H362 0.931 . S
C367 C369 1.397 . S
C367 C370 1.367 . S
C368 C366 1.405 . S
C368 C370 1.403 . S
C368 C401 1.439 . S
C369 H354 0.930 . S
C369 N365 1.319 . S
C369 C367 1.397 . S
C370 C367 1.367 . S
C370 C368 1.403 . S
C370 H377 0.929 . S
N371 Eu336 2.562 . S
N371 C372 1.325 . S
N371 C374 1.351 . S
C372 H358 0.929 . S
C372 N371 1.325 . S
C372 C376 1.416 . S
C373 C374 1.430 . S
C373 C375 1.404 . S
C373 C402 1.387 . S
C374 C366 1.448 . S
C374 N371 1.351 . S
C374 C373 1.430 . S
C375 H364 0.930 . S
C375 C373 1.404 . S
C375 C376 1.366 . S
C376 H355 0.930 . S
C376 C372 1.416 . S
C376 C375 1.366 . S
H377 C370 0.929 . S
H378 C401 0.931 . S
H379 C402 0.931 . S
O380 Eu336 2.462 . S
O380 C400 1.252 . S
O381 Eu336 2.373 . S
O381 C392 1.249 . S
O382 Eu347 2.335 . S
O382 C392 1.264 . S
O383 Eu336 2.432 . S
O383 C400 1.268 . S
O384 Eu336 2.291 . S
O384 C399 1.255 . S
O385 Eu347 2.372 . S
O385 C399 1.257 . S
O386 Eu347 2.462 1_556 S
O386 C411 1.252 . S
O387 Eu347 2.373 . S
O387 C403 1.249 . S
O388 Eu336 2.335 . S
O388 C403 1.264 . S
O389 Eu347 2.432 1_556 S
O389 C411 1.268 . S
O390 Eu347 2.291 . S
O390 C410 1.255 . S
O391 Eu336 2.372 . S
O391 C410 1.257 . S
C392 O381 1.249 . S
C392 O382 1.264 . S
C393 C396 1.382 . S
C393 C398 1.390 . S
C393 C400 1.506 . S
C394 C395 1.398 . S
C394 C398 1.392 . S
C395 C394 1.398 . S
C395 C397 1.372 . S
C395 H412 0.931 . S
C396 C393 1.382 . S
C396 C397 1.390 . S
C396 H413 0.931 . S
C397 C395 1.372 . S
C397 C396 1.390 . S
C397 H414 0.929 . S
C398 C393 1.390 . S
C398 C394 1.392 . S
C398 H415 0.930 . S
C399 O384 1.255 . S
C399 O385 1.257 . S
C400 Eu336 2.787 . S
C400 O380 1.252 . S
C400 O383 1.268 . S
C400 C393 1.506 . S
C401 C368 1.439 . S
C401 H378 0.931 . S
C401 C402 1.374 . S
C402 C373 1.387 . S
C402 H379 0.931 . S
C402 C401 1.374 . S
C403 O387 1.249 . S
C403 O388 1.264 . S
C404 C407 1.382 . S
C404 C408 1.390 . S
C404 C411 1.506 . S
C405 C406 1.398 . S
C405 C408 1.392 . S
C406 C405 1.398 . S
C406 C409 1.372 . S
C406 H416 0.931 . S
C407 C404 1.382 . S
C407 C409 1.390 . S
C407 H417 0.931 . S
C408 C404 1.390 . S
C408 C405 1.392 . S
C408 H418 0.930 . S
C409 C406 1.372 . S
C409 C407 1.390 . S
C409 H419 0.929 . S
C410 O390 1.255 . S
C410 O391 1.257 . S
C411 Eu347 2.787 1_556 S
C411 O386 1.252 . S
C411 O389 1.268 . S
C411 C404 1.506 . S
H412 C395 0.931 . S
H413 C396 0.931 . S
H414 C397 0.929 . S
H415 C398 0.930 . S
H416 C406 0.931 . S
H417 C407 0.931 . S
H418 C408 0.930 . S
H419 C409 0.929 . S
Eu420 N449 2.600 . S
Eu420 N455 2.562 . S
Eu420 O464 2.462 1_556 S
Eu420 O465 2.373 . S
Eu420 O467 2.432 1_556 S
Eu420 O468 2.291 . S
Eu420 O472 2.335 . S
Eu420 O475 2.372 . S
Eu420 C484 2.787 1_556 S
C421 N422 1.365 . S
C421 C424 1.405 . S
C421 C428 1.448 . S
N422 C421 1.365 . S
N422 C425 1.319 . S
N422 Eu431 2.600 . S
C423 C425 1.397 . S
C423 C426 1.367 . S
C423 H443 0.931 . S
C424 C421 1.405 . S
C424 C426 1.403 . S
C424 C430 1.439 . S
C425 N422 1.319 . S
C425 C423 1.397 . S
C425 H436 0.930 . S
C426 C423 1.367 . S
C426 C424 1.403 . S
C426 H447 0.929 . S
C427 C428 1.430 . S
C427 C429 1.387 . S
C427 C433 1.404 . S
C428 C421 1.448 . S
C428 C427 1.430 . S
C428 N432 1.351 . S
C429 C427 1.387 . S
C429 C430 1.374 . S
C429 H444 0.931 . S
C430 C424 1.439 . S
C430 C429 1.374 . S
C430 H445 0.931 . S
Eu431 N422 2.600 . S
Eu431 N432 2.562 . S
Eu431 O466 2.335 . S
Eu431 O469 2.372 . S
Eu431 O470 2.462 . S
Eu431 O471 2.373 . S
Eu431 O473 2.432 . S
Eu431 O474 2.291 . S
Eu431 C495 2.787 . S
N432 C428 1.351 . S
N432 Eu431 2.562 . S
N432 C434 1.325 . S
C433 C427 1.404 . S
C433 C435 1.366 . S
C433 H441 0.930 . S
C434 N432 1.325 . S
C434 C435 1.416 . S
C434 H440 0.929 . S
C435 C433 1.366 . S
C435 C434 1.416 . S
C435 H437 0.930 . S
H436 C425 0.930 . S
H437 C435 0.930 . S
H438 C453 0.930 . S
H439 C460 0.930 . S
H440 C434 0.929 . S
H441 C433 0.930 . S
H442 C456 0.929 . S
H443 C423 0.931 . S
H444 C429 0.931 . S
H445 C430 0.931 . S
H446 C451 0.931 . S
H447 C426 0.929 . S
H448 C459 0.930 . S
N449 Eu420 2.600 . S
N449 C450 1.365 . S
N449 C453 1.319 . S
C450 N449 1.365 . S
C450 C452 1.405 . S
C450 C458 1.448 . S
C451 H446 0.931 . S
C451 C453 1.397 . S
C451 C454 1.367 . S
C452 C450 1.405 . S
C452 C454 1.403 . S
C452 C485 1.439 . S
C453 H438 0.930 . S
C453 N449 1.319 . S
C453 C451 1.397 . S
C454 C451 1.367 . S
C454 C452 1.403 . S
C454 H461 0.929 . S
N455 Eu420 2.562 . S
N455 C456 1.325 . S
N455 C458 1.351 . S
C456 H442 0.929 . S
C456 N455 1.325 . S
C456 C460 1.416 . S
C457 C458 1.430 . S
C457 C459 1.404 . S
C457 C486 1.387 . S
C458 C450 1.448 . S
C458 N455 1.351 . S
C458 C457 1.430 . S
C459 H448 0.930 . S
C459 C457 1.404 . S
C459 C460 1.366 . S
C460 H439 0.930 . S
C460 C456 1.416 . S
C460 C459 1.366 . S
H461 C454 0.929 . S
H462 C485 0.931 . S
H463 C486 0.931 . S
O464 Eu420 2.462 1_554 S
O464 C484 1.252 . S
O465 Eu420 2.373 . S
O465 C476 1.249 . S
O466 Eu431 2.335 . S
O466 C476 1.264 . S
O467 Eu420 2.432 1_554 S
O467 C484 1.268 . S
O468 Eu420 2.291 . S
O468 C483 1.255 . S
O469 Eu431 2.372 . S
O469 C483 1.257 . S
O470 Eu431 2.462 . S
O470 C495 1.252 . S
O471 Eu431 2.373 . S
O471 C487 1.249 . S
O472 Eu420 2.335 . S
O472 C487 1.264 . S
O473 Eu431 2.432 . S
O473 C495 1.268 . S
O474 Eu431 2.291 . S
O474 C494 1.255 . S
O475 Eu420 2.372 . S
O475 C494 1.257 . S
C476 O465 1.249 . S
C476 O466 1.264 . S
C477 C480 1.382 . S
C477 C482 1.390 . S
C477 C484 1.506 . S
C478 C479 1.398 . S
C478 C482 1.392 . S
C479 C478 1.398 . S
C479 C481 1.372 . S
C479 H496 0.931 . S
C480 C477 1.382 . S
C480 C481 1.390 . S
C480 H497 0.931 . S
C481 C479 1.372 . S
C481 C480 1.390 . S
C481 H498 0.929 . S
C482 C477 1.390 . S
C482 C478 1.392 . S
C482 H499 0.930 . S
C483 O468 1.255 . S
C483 O469 1.257 . S
C484 Eu420 2.787 1_554 S
C484 O464 1.252 . S
C484 O467 1.268 . S
C484 C477 1.506 . S
C485 C452 1.439 . S
C485 H462 0.931 . S
C485 C486 1.374 . S
C486 C457 1.387 . S
C486 H463 0.931 . S
C486 C485 1.374 . S
C487 O471 1.249 . S
C487 O472 1.264 . S
C488 C491 1.382 . S
C488 C492 1.390 . S
C488 C495 1.506 . S
C489 C490 1.398 . S
C489 C492 1.392 . S
C490 C489 1.398 . S
C490 C493 1.372 . S
C490 H500 0.931 . S
C491 C488 1.382 . S
C491 C493 1.390 . S
C491 H501 0.931 . S
C492 C488 1.390 . S
C492 C489 1.392 . S
C492 H502 0.930 . S
C493 C490 1.372 . S
C493 C491 1.390 . S
C493 H503 0.929 . S
C494 O474 1.255 . S
C494 O475 1.257 . S
C495 Eu431 2.787 . S
C495 O470 1.252 . S
C495 O473 1.268 . S
C495 C488 1.506 . S
H496 C479 0.931 . S
H497 C480 0.931 . S
H498 C481 0.929 . S
H499 C482 0.930 . S
H500 C490 0.931 . S
H501 C491 0.931 . S
H502 C492 0.930 . S
H503 C493 0.929 . S
Eu504 N533 2.600 . S
Eu504 N539 2.562 . S
Eu504 O548 2.462 . S
Eu504 O549 2.373 . S
Eu504 O551 2.432 . S
Eu504 O552 2.291 . S
Eu504 O556 2.335 . S
Eu504 O559 2.372 . S
Eu504 C568 2.787 . S
C505 N506 1.365 . S
C505 C508 1.405 . S
C505 C512 1.448 . S
N506 C505 1.365 . S
N506 C509 1.319 . S
N506 Eu515 2.600 . S
C507 C509 1.397 . S
C507 C510 1.367 . S
C507 H527 0.931 . S
C508 C505 1.405 . S
C508 C510 1.403 . S
C508 C514 1.439 . S
C509 N506 1.319 . S
C509 C507 1.397 . S
C509 H520 0.930 . S
C510 C507 1.367 . S
C510 C508 1.403 . S
C510 H531 0.929 . S
C511 C512 1.430 . S
C511 C513 1.387 . S
C511 C517 1.404 . S
C512 C505 1.448 . S
C512 C511 1.430 . S
C512 N516 1.351 . S
C513 C511 1.387 . S
C513 C514 1.374 . S
C513 H528 0.931 . S
C514 C508 1.439 . S
C514 C513 1.374 . S
C514 H529 0.931 . S
Eu515 N506 2.600 . S
Eu515 N516 2.562 . S
Eu515 O550 2.335 . S
Eu515 O553 2.372 . S
Eu515 O554 2.462 1_554 S
Eu515 O555 2.373 . S
Eu515 O557 2.432 1_554 S
Eu515 O558 2.291 . S
Eu515 C579 2.787 1_554 S
N516 C512 1.351 . S
N516 Eu515 2.562 . S
N516 C518 1.325 . S
C517 C511 1.404 . S
C517 C519 1.366 . S
C517 H525 0.930 . S
C518 N516 1.325 . S
C518 C519 1.416 . S
C518 H524 0.929 . S
C519 C517 1.366 . S
C519 C518 1.416 . S
C519 H521 0.930 . S
H520 C509 0.930 . S
H521 C519 0.930 . S
H522 C537 0.930 . S
H523 C544 0.930 . S
H524 C518 0.929 . S
H525 C517 0.930 . S
H526 C540 0.929 . S
H527 C507 0.931 . S
H528 C513 0.931 . S
H529 C514 0.931 . S
H530 C535 0.931 . S
H531 C510 0.929 . S
H532 C543 0.930 . S
N533 Eu504 2.600 . S
N533 C534 1.365 . S
N533 C537 1.319 . S
C534 N533 1.365 . S
C534 C536 1.405 . S
C534 C542 1.448 . S
C535 H530 0.931 . S
C535 C537 1.397 . S
C535 C538 1.367 . S
C536 C534 1.405 . S
C536 C538 1.403 . S
C536 C569 1.439 . S
C537 H522 0.930 . S
C537 N533 1.319 . S
C537 C535 1.397 . S
C538 C535 1.367 . S
C538 C536 1.403 . S
C538 H545 0.929 . S
N539 Eu504 2.562 . S
N539 C540 1.325 . S
N539 C542 1.351 . S
C540 H526 0.929 . S
C540 N539 1.325 . S
C540 C544 1.416 . S
C541 C542 1.430 . S
C541 C543 1.404 . S
C541 C570 1.387 . S
C542 C534 1.448 . S
C542 N539 1.351 . S
C542 C541 1.430 . S
C543 H532 0.930 . S
C543 C541 1.404 . S
C543 C544 1.366 . S
C544 H523 0.930 . S
C544 C540 1.416 . S
C544 C543 1.366 . S
H545 C538 0.929 . S
H546 C569 0.931 . S
H547 C570 0.931 . S
O548 Eu504 2.462 . S
O548 C568 1.252 . S
O549 Eu504 2.373 . S
O549 C560 1.249 . S
O550 Eu515 2.335 . S
O550 C560 1.264 . S
O551 Eu504 2.432 . S
O551 C568 1.268 . S
O552 Eu504 2.291 . S
O552 C567 1.255 . S
O553 Eu515 2.372 . S
O553 C567 1.257 . S
O554 Eu515 2.462 1_556 S
O554 C579 1.252 . S
O555 Eu515 2.373 . S
O555 C571 1.249 . S
O556 Eu504 2.335 . S
O556 C571 1.264 . S
O557 Eu515 2.432 1_556 S
O557 C579 1.268 . S
O558 Eu515 2.291 . S
O558 C578 1.255 . S
O559 Eu504 2.372 . S
O559 C578 1.257 . S
C560 O549 1.249 . S
C560 O550 1.264 . S
C561 C564 1.382 . S
C561 C566 1.390 . S
C561 C568 1.506 . S
C562 C563 1.398 . S
C562 C566 1.392 . S
C563 C562 1.398 . S
C563 C565 1.372 . S
C563 H580 0.931 . S
C564 C561 1.382 . S
C564 C565 1.390 . S
C564 H581 0.931 . S
C565 C563 1.372 . S
C565 C564 1.390 . S
C565 H582 0.929 . S
C566 C561 1.390 . S
C566 C562 1.392 . S
C566 H583 0.930 . S
C567 O552 1.255 . S
C567 O553 1.257 . S
C568 Eu504 2.787 . S
C568 O548 1.252 . S
C568 O551 1.268 . S
C568 C561 1.506 . S
C569 C536 1.439 . S
C569 H546 0.931 . S
C569 C570 1.374 . S
C570 C541 1.387 . S
C570 H547 0.931 . S
C570 C569 1.374 . S
C571 O555 1.249 . S
C571 O556 1.264 . S
C572 C575 1.382 . S
C572 C576 1.390 . S
C572 C579 1.506 . S
C573 C574 1.398 . S
C573 C576 1.392 . S
C574 C573 1.398 . S
C574 C577 1.372 . S
C574 H584 0.931 . S
C575 C572 1.382 . S
C575 C577 1.390 . S
C575 H585 0.931 . S
C576 C572 1.390 . S
C576 C573 1.392 . S
C576 H586 0.930 . S
C577 C574 1.372 . S
C577 C575 1.390 . S
C577 H587 0.929 . S
C578 O558 1.255 . S
C578 O559 1.257 . S
C579 Eu515 2.787 1_556 S
C579 O554 1.252 . S
C579 O557 1.268 . S
C579 C572 1.506 . S
H580 C563 0.931 . S
H581 C564 0.931 . S
H582 C565 0.929 . S
H583 C566 0.930 . S
H584 C574 0.931 . S
H585 C575 0.931 . S
H586 C576 0.930 . S
H587 C577 0.929 . S
Eu588 N617 2.600 . S
Eu588 N623 2.562 . S
Eu588 O632 2.462 1_556 S
Eu588 O633 2.373 . S
Eu588 O635 2.432 1_556 S
Eu588 O636 2.291 . S
Eu588 O640 2.335 . S
Eu588 O643 2.372 . S
Eu588 C652 2.787 1_556 S
C589 N590 1.365 . S
C589 C592 1.405 . S
C589 C596 1.448 . S
N590 C589 1.365 . S
N590 C593 1.319 . S
N590 Eu599 2.600 . S
C591 C593 1.397 . S
C591 C594 1.367 . S
C591 H611 0.931 . S
C592 C589 1.405 . S
C592 C594 1.403 . S
C592 C598 1.439 . S
C593 N590 1.319 . S
C593 C591 1.397 . S
C593 H604 0.930 . S
C594 C591 1.367 . S
C594 C592 1.403 . S
C594 H615 0.929 . S
C595 C596 1.430 . S
C595 C597 1.387 . S
C595 C601 1.404 . S
C596 C589 1.448 . S
C596 C595 1.430 . S
C596 N600 1.351 . S
C597 C595 1.387 . S
C597 C598 1.374 . S
C597 H612 0.931 . S
C598 C592 1.439 . S
C598 C597 1.374 . S
C598 H613 0.931 . S
Eu599 N590 2.600 . S
Eu599 N600 2.562 . S
Eu599 O634 2.335 . S
Eu599 O637 2.372 . S
Eu599 O638 2.462 . S
Eu599 O639 2.373 . S
Eu599 O641 2.432 . S
Eu599 O642 2.291 . S
Eu599 C663 2.787 . S
N600 C596 1.351 . S
N600 Eu599 2.562 . S
N600 C602 1.325 . S
C601 C595 1.404 . S
C601 C603 1.366 . S
C601 H609 0.930 . S
C602 N600 1.325 . S
C602 C603 1.416 . S
C602 H608 0.929 . S
C603 C601 1.366 . S
C603 C602 1.416 . S
C603 H605 0.930 . S
H604 C593 0.930 . S
H605 C603 0.930 . S
H606 C621 0.930 . S
H607 C628 0.930 . S
H608 C602 0.929 . S
H609 C601 0.930 . S
H610 C624 0.929 . S
H611 C591 0.931 . S
H612 C597 0.931 . S
H613 C598 0.931 . S
H614 C619 0.931 . S
H615 C594 0.929 . S
H616 C627 0.930 . S
N617 Eu588 2.600 . S
N617 C618 1.365 . S
N617 C621 1.319 . S
C618 N617 1.365 . S
C618 C620 1.405 . S
C618 C626 1.448 . S
C619 H614 0.931 . S
C619 C621 1.397 . S
C619 C622 1.367 . S
C620 C618 1.405 . S
C620 C622 1.403 . S
C620 C653 1.439 . S
C621 H606 0.930 . S
C621 N617 1.319 . S
C621 C619 1.397 . S
C622 C619 1.367 . S
C622 C620 1.403 . S
C622 H629 0.929 . S
N623 Eu588 2.562 . S
N623 C624 1.325 . S
N623 C626 1.351 . S
C624 H610 0.929 . S
C624 N623 1.325 . S
C624 C628 1.416 . S
C625 C626 1.430 . S
C625 C627 1.404 . S
C625 C654 1.387 . S
C626 C618 1.448 . S
C626 N623 1.351 . S
C626 C625 1.430 . S
C627 H616 0.930 . S
C627 C625 1.404 . S
C627 C628 1.366 . S
C628 H607 0.930 . S
C628 C624 1.416 . S
C628 C627 1.366 . S
H629 C622 0.929 . S
H630 C653 0.931 . S
H631 C654 0.931 . S
O632 Eu588 2.462 1_554 S
O632 C652 1.252 . S
O633 Eu588 2.373 . S
O633 C644 1.249 . S
O634 Eu599 2.335 . S
O634 C644 1.264 . S
O635 Eu588 2.432 1_554 S
O635 C652 1.268 . S
O636 Eu588 2.291 . S
O636 C651 1.255 . S
O637 Eu599 2.372 . S
O637 C651 1.257 . S
O638 Eu599 2.462 . S
O638 C663 1.252 . S
O639 Eu599 2.373 . S
O639 C655 1.249 . S
O640 Eu588 2.335 . S
O640 C655 1.264 . S
O641 Eu599 2.432 . S
O641 C663 1.268 . S
O642 Eu599 2.291 . S
O642 C662 1.255 . S
O643 Eu588 2.372 . S
O643 C662 1.257 . S
C644 O633 1.249 . S
C644 O634 1.264 . S
C645 C648 1.382 . S
C645 C650 1.390 . S
C645 C652 1.506 . S
C646 C647 1.398 . S
C646 C650 1.392 . S
C647 C646 1.398 . S
C647 C649 1.372 . S
C647 H664 0.931 . S
C648 C645 1.382 . S
C648 C649 1.390 . S
C648 H665 0.931 . S
C649 C647 1.372 . S
C649 C648 1.390 . S
C649 H666 0.929 . S
C650 C645 1.390 . S
C650 C646 1.392 . S
C650 H667 0.930 . S
C651 O636 1.255 . S
C651 O637 1.257 . S
C652 Eu588 2.787 1_554 S
C652 O632 1.252 . S
C652 O635 1.268 . S
C652 C645 1.506 . S
C653 C620 1.439 . S
C653 H630 0.931 . S
C653 C654 1.374 . S
C654 C625 1.387 . S
C654 H631 0.931 . S
C654 C653 1.374 . S
C655 O639 1.249 . S
C655 O640 1.264 . S
C656 C659 1.382 . S
C656 C660 1.390 . S
C656 C663 1.506 . S
C657 C658 1.398 . S
C657 C660 1.392 . S
C658 C657 1.398 . S
C658 C661 1.372 . S
C658 H668 0.931 . S
C659 C656 1.382 . S
C659 C661 1.390 . S
C659 H669 0.931 . S
C660 C656 1.390 . S
C660 C657 1.392 . S
C660 H670 0.930 . S
C661 C658 1.372 . S
C661 C659 1.390 . S
C661 H671 0.929 . S
C662 O642 1.255 . S
C662 O643 1.257 . S
C663 Eu599 2.787 . S
C663 O638 1.252 . S
C663 O641 1.268 . S
C663 C656 1.506 . S
H664 C647 0.931 . S
H665 C648 0.931 . S
H666 C649 0.929 . S
H667 C650 0.930 . S
H668 C658 0.931 . S
H669 C659 0.931 . S
H670 C660 0.930 . S
H671 C661 0.929 . S
Eu672 N701 2.600 . S
Eu672 N707 2.562 . S
Eu672 O716 2.462 . S
Eu672 O717 2.373 . S
Eu672 O719 2.432 . S
Eu672 O720 2.291 . S
Eu672 O724 2.335 . S
Eu672 O727 2.372 . S
Eu672 C736 2.787 . S
C673 N674 1.365 . S
C673 C676 1.405 . S
C673 C680 1.448 . S
N674 C673 1.365 . S
N674 C677 1.319 . S
N674 Eu683 2.600 . S
C675 C677 1.397 . S
C675 C678 1.367 . S
C675 H695 0.931 . S
C676 C673 1.405 . S
C676 C678 1.403 . S
C676 C682 1.439 . S
C677 N674 1.319 . S
C677 C675 1.397 . S
C677 H688 0.930 . S
C678 C675 1.367 . S
C678 C676 1.403 . S
C678 H699 0.929 . S
C679 C680 1.430 . S
C679 C681 1.387 . S
C679 C685 1.404 . S
C680 C673 1.448 . S
C680 C679 1.430 . S
C680 N684 1.351 . S
C681 C679 1.387 . S
C681 C682 1.374 . S
C681 H696 0.931 . S
C682 C676 1.439 . S
C682 C681 1.374 . S
C682 H697 0.931 . S
Eu683 N674 2.600 . S
Eu683 N684 2.562 . S
Eu683 O718 2.335 . S
Eu683 O721 2.372 . S
Eu683 O722 2.462 . S
Eu683 O723 2.373 . S
Eu683 O725 2.432 . S
Eu683 O726 2.291 . S
Eu683 C747 2.787 . S
N684 C680 1.351 . S
N684 Eu683 2.562 . S
N684 C686 1.325 . S
C685 C679 1.404 . S
C685 C687 1.366 . S
C685 H693 0.930 . S
C686 N684 1.325 . S
C686 C687 1.416 . S
C686 H692 0.929 . S
C687 C685 1.366 . S
C687 C686 1.416 . S
C687 H689 0.930 . S
H688 C677 0.930 . S
H689 C687 0.930 . S
H690 C705 0.930 . S
H691 C712 0.930 . S
H692 C686 0.929 . S
H693 C685 0.930 . S
H694 C708 0.929 . S
H695 C675 0.931 . S
H696 C681 0.931 . S
H697 C682 0.931 . S
H698 C703 0.931 . S
H699 C678 0.929 . S
H700 C711 0.920 1_455 S
N701 Eu672 2.600 . S
N701 C702 1.365 . S
N701 C705 1.319 . S
C702 N701 1.365 . S
C702 C704 1.405 . S
C702 C710 1.448 . S
C703 H698 0.931 . S
C703 C705 1.397 . S
C703 C706 1.367 . S
C704 C702 1.405 . S
C704 C706 1.403 . S
C704 C737 1.439 1_655 S
C705 H690 0.930 . S
C705 N701 1.319 . S
C705 C703 1.397 . S
C706 C703 1.367 . S
C706 C704 1.403 . S
C706 H713 0.929 1_655 S
N707 Eu672 2.562 . S
N707 C708 1.325 . S
N707 C710 1.351 . S
C708 H694 0.929 . S
C708 N707 1.325 . S
C708 C712 1.416 . S
C709 C710 1.430 . S
C709 C711 1.405 . S
C709 C738 1.387 1_655 S
C710 C702 1.448 . S
C710 N707 1.351 . S
C710 C709 1.430 . S
C711 H700 0.920 1_655 S
C711 C709 1.405 . S
C711 C712 1.376 . S
C712 H691 0.930 . S
C712 C708 1.416 . S
C712 C711 1.376 . S
H713 C706 0.929 1_455 S
H714 C737 0.931 . S
H715 C738 0.931 . S
O716 Eu672 2.462 . S
O716 C736 1.252 . S
O717 Eu672 2.373 . S
O717 C728 1.249 . S
O718 Eu683 2.335 . S
O718 C728 1.264 . S
O719 Eu672 2.432 . S
O719 C736 1.268 . S
O720 Eu672 2.291 . S
O720 C735 1.255 . S
O721 Eu683 2.372 . S
O721 C735 1.257 . S
O722 Eu683 2.462 . S
O722 C747 1.252 . S
O723 Eu683 2.373 . S
O723 C739 1.249 . S
O724 Eu672 2.335 . S
O724 C739 1.264 . S
O725 Eu683 2.432 . S
O725 C747 1.268 . S
O726 Eu683 2.291 . S
O726 C746 1.255 . S
O727 Eu672 2.372 . S
O727 C746 1.257 . S
C728 O717 1.249 . S
C728 O718 1.264 . S
C729 C732 1.382 . S
C729 C734 1.390 . S
C729 C736 1.506 . S
C730 C731 1.398 . S
C730 C734 1.392 . S
C731 C730 1.398 . S
C731 C733 1.372 . S
C731 H748 0.931 . S
C732 C729 1.382 . S
C732 C733 1.390 . S
C732 H749 0.931 . S
C733 C731 1.372 . S
C733 C732 1.390 . S
C733 H750 0.929 . S
C734 C729 1.390 . S
C734 C730 1.392 . S
C734 H751 0.930 . S
C735 O720 1.255 . S
C735 O721 1.257 . S
C736 Eu672 2.787 . S
C736 O716 1.252 . S
C736 O719 1.268 . S
C736 C729 1.506 . S
C737 C704 1.439 1_455 S
C737 H714 0.931 . S
C737 C738 1.374 . S
C738 C709 1.387 1_455 S
C738 H715 0.931 . S
C738 C737 1.374 . S
C739 O723 1.249 . S
C739 O724 1.264 . S
C740 C743 1.382 . S
C740 C744 1.390 . S
C740 C747 1.506 . S
C741 C742 1.398 . S
C741 C744 1.392 1_554 S
C742 C741 1.398 . S
C742 C745 1.372 . S
C742 H752 0.931 . S
C743 C740 1.382 . S
C743 C745 1.390 1_556 S
C743 H753 0.931 . S
C744 C740 1.390 . S
C744 C741 1.392 1_556 S
C744 H754 0.930 . S
C745 C742 1.372 . S
C745 C743 1.390 1_554 S
C745 H755 0.929 . S
C746 O726 1.255 . S
C746 O727 1.257 . S
C747 Eu683 2.787 . S
C747 O722 1.252 . S
C747 O725 1.268 . S
C747 C740 1.506 . S
H748 C731 0.931 . S
H749 C732 0.931 . S
H750 C733 0.929 . S
H751 C734 0.930 . S
H752 C742 0.931 . S
H753 C743 0.931 . S
H754 C744 0.930 . S
H755 C745 0.929 . S
Eu756 N785 2.600 . S
Eu756 N791 2.562 . S
Eu756 O800 2.462 . S
Eu756 O801 2.373 . S
Eu756 O803 2.432 . S
Eu756 O804 2.291 . S
Eu756 O808 2.335 . S
Eu756 O811 2.372 . S
Eu756 C820 2.787 . S
C757 N758 1.365 . S
C757 C760 1.405 . S
C757 C764 1.448 . S
N758 C757 1.365 . S
N758 C761 1.319 . S
N758 Eu767 2.600 . S
C759 C761 1.397 . S
C759 C762 1.367 . S
C759 H779 0.931 . S
C760 C757 1.405 . S
C760 C762 1.403 . S
C760 C766 1.439 1_545 S
C761 N758 1.319 . S
C761 C759 1.397 . S
C761 H772 0.930 . S
C762 C759 1.367 . S
C762 C760 1.403 . S
C762 H783 0.929 1_545 S
C763 C764 1.430 . S
C763 C765 1.387 1_545 S
C763 C769 1.405 . S
C764 C757 1.448 . S
C764 C763 1.430 . S
C764 N768 1.351 . S
C765 C763 1.387 1_565 S
C765 C766 1.374 . S
C765 H780 0.931 . S
C766 C760 1.439 1_565 S
C766 C765 1.374 . S
C766 H781 0.931 . S
Eu767 N758 2.600 . S
Eu767 N768 2.562 . S
Eu767 O802 2.335 . S
Eu767 O805 2.372 . S
Eu767 O806 2.462 . S
Eu767 O807 2.373 . S
Eu767 O809 2.432 . S
Eu767 O810 2.291 . S
Eu767 C831 2.787 . S
N768 C764 1.351 . S
N768 Eu767 2.562 . S
N768 C770 1.325 . S
C769 C763 1.405 . S
C769 C771 1.376 . S
C769 H777 0.920 1_545 S
C770 N768 1.325 . S
C770 C771 1.416 . S
C770 H776 0.929 . S
C771 C769 1.376 . S
C771 C770 1.416 . S
C771 H773 0.930 . S
H772 C761 0.930 . S
H773 C771 0.930 . S
H774 C789 0.930 . S
H775 C796 0.930 . S
H776 C770 0.929 . S
H777 C769 0.920 1_565 S
H778 C792 0.929 . S
H779 C759 0.931 . S
H780 C765 0.931 . S
H781 C766 0.931 . S
H782 C787 0.931 . S
H783 C762 0.929 1_565 S
H784 C795 0.930 . S
N785 Eu756 2.600 . S
N785 C786 1.365 . S
N785 C789 1.319 . S
C786 N785 1.365 . S
C786 C788 1.405 . S
C786 C794 1.448 . S
C787 H782 0.931 . S
C787 C789 1.397 . S
C787 C790 1.367 . S
C788 C786 1.405 . S
C788 C790 1.403 . S
C788 C821 1.439 . S
C789 H774 0.930 . S
C789 N785 1.319 . S
C789 C787 1.397 . S
C790 C787 1.367 . S
C790 C788 1.403 . S
C790 H797 0.929 . S
N791 Eu756 2.562 . S
N791 C792 1.325 . S
N791 C794 1.351 . S
C792 H778 0.929 . S
C792 N791 1.325 . S
C792 C796 1.416 . S
C793 C794 1.430 . S
C793 C795 1.404 . S
C793 C822 1.387 . S
C794 C786 1.448 . S
C794 N791 1.351 . S
C794 C793 1.430 . S
C795 H784 0.930 . S
C795 C793 1.404 . S
C795 C796 1.366 . S
C796 H775 0.930 . S
C796 C792 1.416 . S
C796 C795 1.366 . S
H797 C790 0.929 . S
H798 C821 0.931 . S
H799 C822 0.931 . S
O800 Eu756 2.462 . S
O800 C820 1.252 . S
O801 Eu756 2.373 . S
O801 C812 1.249 . S
O802 Eu767 2.335 . S
O802 C812 1.264 . S
O803 Eu756 2.432 . S
O803 C820 1.268 . S
O804 Eu756 2.291 . S
O804 C819 1.255 . S
O805 Eu767 2.372 . S
O805 C819 1.257 . S
O806 Eu767 2.462 . S
O806 C831 1.252 . S
O807 Eu767 2.373 . S
O807 C823 1.249 . S
O808 Eu756 2.335 . S
O808 C823 1.264 . S
O809 Eu767 2.432 . S
O809 C831 1.268 . S
O810 Eu767 2.291 . S
O810 C830 1.255 . S
O811 Eu756 2.372 . S
O811 C830 1.257 . S
C812 O801 1.249 . S
C812 O802 1.264 . S
C813 C816 1.382 . S
C813 C818 1.390 . S
C813 C820 1.506 . S
C814 C815 1.398 . S
C814 C818 1.392 1_556 S
C815 C814 1.398 . S
C815 C817 1.372 . S
C815 H832 0.931 . S
C816 C813 1.382 . S
C816 C817 1.390 1_554 S
C816 H833 0.931 . S
C817 C815 1.372 . S
C817 C816 1.390 1_556 S
C817 H834 0.929 . S
C818 C813 1.390 . S
C818 C814 1.392 1_554 S
C818 H835 0.930 . S
C819 O804 1.255 . S
C819 O805 1.257 . S
C820 Eu756 2.787 . S
C820 O800 1.252 . S
C820 O803 1.268 . S
C820 C813 1.506 . S
C821 C788 1.439 . S
C821 H798 0.931 . S
C821 C822 1.374 . S
C822 C793 1.387 . S
C822 H799 0.931 . S
C822 C821 1.374 . S
C823 O807 1.249 . S
C823 O808 1.264 . S
C824 C827 1.382 . S
C824 C828 1.390 . S
C824 C831 1.506 . S
C825 C826 1.398 . S
C825 C828 1.392 . S
C826 C825 1.398 . S
C826 C829 1.372 . S
C826 H836 0.931 . S
C827 C824 1.382 . S
C827 C829 1.390 . S
C827 H837 0.931 . S
C828 C824 1.390 . S
C828 C825 1.392 . S
C828 H838 0.930 . S
C829 C826 1.372 . S
C829 C827 1.390 . S
C829 H839 0.929 . S
C830 O810 1.255 . S
C830 O811 1.257 . S
C831 Eu767 2.787 . S
C831 O806 1.252 . S
C831 O809 1.268 . S
C831 C824 1.506 . S
H832 C815 0.931 . S
H833 C816 0.931 . S
H834 C817 0.929 . S
H835 C818 0.930 . S
H836 C826 0.931 . S
H837 C827 0.931 . S
H838 C828 0.930 . S
H839 C829 0.929 . S
Eu840 N869 2.600 . S
Eu840 N875 2.562 . S
Eu840 O884 2.462 . S
Eu840 O885 2.373 . S
Eu840 O887 2.432 . S
Eu840 O888 2.291 . S
Eu840 O892 2.335 . S
Eu840 O895 2.372 . S
Eu840 C904 2.787 . S
C841 N842 1.365 . S
C841 C844 1.405 . S
C841 C848 1.448 . S
N842 C841 1.365 . S
N842 C845 1.319 . S
N842 Eu851 2.600 . S
C843 C845 1.397 . S
C843 C846 1.367 . S
C843 H863 0.931 . S
C844 C841 1.405 . S
C844 C846 1.403 . S
C844 C850 1.439 . S
C845 N842 1.319 . S
C845 C843 1.397 . S
C845 H856 0.930 . S
C846 C843 1.367 . S
C846 C844 1.403 . S
C846 H867 0.929 . S
C847 C848 1.430 . S
C847 C849 1.387 . S
C847 C853 1.404 . S
C848 C841 1.448 . S
C848 C847 1.430 . S
C848 N852 1.351 . S
C849 C847 1.387 . S
C849 C850 1.374 . S
C849 H864 0.931 . S
C850 C844 1.439 . S
C850 C849 1.374 . S
C850 H865 0.931 . S
Eu851 N842 2.600 . S
Eu851 N852 2.562 . S
Eu851 O886 2.335 . S
Eu851 O889 2.372 . S
Eu851 O890 2.462 . S
Eu851 O891 2.373 . S
Eu851 O893 2.432 . S
Eu851 O894 2.291 . S
Eu851 C915 2.787 . S
N852 C848 1.351 . S
N852 Eu851 2.562 . S
N852 C854 1.325 . S
C853 C847 1.404 . S
C853 C855 1.366 . S
C853 H861 0.930 . S
C854 N852 1.325 . S
C854 C855 1.416 . S
C854 H860 0.929 . S
C855 C853 1.366 . S
C855 C854 1.416 . S
C855 H857 0.930 . S
H856 C845 0.930 . S
H857 C855 0.930 . S
H858 C873 0.930 . S
H859 C880 0.930 . S
H860 C854 0.929 . S
H861 C853 0.930 . S
H862 C876 0.929 . S
H863 C843 0.931 . S
H864 C849 0.931 . S
H865 C850 0.931 . S
H866 C871 0.931 . S
H867 C846 0.929 . S
H868 C879 0.920 1_655 S
N869 Eu840 2.600 . S
N869 C870 1.365 . S
N869 C873 1.319 . S
C870 N869 1.365 . S
C870 C872 1.405 . S
C870 C878 1.448 . S
C871 H866 0.931 . S
C871 C873 1.397 . S
C871 C874 1.367 . S
C872 C870 1.405 . S
C872 C874 1.403 . S
C872 C905 1.439 1_455 S
C873 H858 0.930 . S
C873 N869 1.319 . S
C873 C871 1.397 . S
C874 C871 1.367 . S
C874 C872 1.403 . S
C874 H881 0.929 1_455 S
N875 Eu840 2.562 . S
N875 C876 1.325 . S
N875 C878 1.351 . S
C876 H862 0.929 . S
C876 N875 1.325 . S
C876 C880 1.416 . S
C877 C878 1.430 . S
C877 C879 1.405 . S
C877 C906 1.387 1_455 S
C878 C870 1.448 . S
C878 N875 1.351 . S
C878 C877 1.430 . S
C879 H868 0.920 1_455 S
C879 C877 1.405 . S
C879 C880 1.376 . S
C880 H859 0.930 . S
C880 C876 1.416 . S
C880 C879 1.376 . S
H881 C874 0.929 1_655 S
H882 C905 0.931 . S
H883 C906 0.931 . S
O884 Eu840 2.462 . S
O884 C904 1.252 . S
O885 Eu840 2.373 . S
O885 C896 1.249 . S
O886 Eu851 2.335 . S
O886 C896 1.264 . S
O887 Eu840 2.432 . S
O887 C904 1.268 . S
O888 Eu840 2.291 . S
O888 C903 1.255 . S
O889 Eu851 2.372 . S
O889 C903 1.257 . S
O890 Eu851 2.462 . S
O890 C915 1.252 . S
O891 Eu851 2.373 . S
O891 C907 1.249 . S
O892 Eu840 2.335 . S
O892 C907 1.264 . S
O893 Eu851 2.432 . S
O893 C915 1.268 . S
O894 Eu851 2.291 . S
O894 C914 1.255 . S
O895 Eu840 2.372 . S
O895 C914 1.257 . S
C896 O885 1.249 . S
C896 O886 1.264 . S
C897 C900 1.382 . S
C897 C902 1.390 . S
C897 C904 1.506 . S
C898 C899 1.398 . S
C898 C902 1.392 . S
C899 C898 1.398 . S
C899 C901 1.372 . S
C899 H916 0.931 . S
C900 C897 1.382 . S
C900 C901 1.390 . S
C900 H917 0.931 . S
C901 C899 1.372 . S
C901 C900 1.390 . S
C901 H918 0.929 . S
C902 C897 1.390 . S
C902 C898 1.392 . S
C902 H919 0.930 . S
C903 O888 1.255 . S
C903 O889 1.257 . S
C904 Eu840 2.787 . S
C904 O884 1.252 . S
C904 O887 1.268 . S
C904 C897 1.506 . S
C905 C872 1.439 1_655 S
C905 H882 0.931 . S
C905 C906 1.374 . S
C906 C877 1.387 1_655 S
C906 H883 0.931 . S
C906 C905 1.374 . S
C907 O891 1.249 . S
C907 O892 1.264 . S
C908 C911 1.382 . S
C908 C912 1.390 . S
C908 C915 1.506 . S
C909 C910 1.398 . S
C909 C912 1.392 1_554 S
C910 C909 1.398 . S
C910 C913 1.372 . S
C910 H920 0.931 . S
C911 C908 1.382 . S
C911 C913 1.390 1_556 S
C911 H921 0.931 . S
C912 C908 1.390 . S
C912 C909 1.392 1_556 S
C912 H922 0.930 . S
C913 C910 1.372 . S
C913 C911 1.390 1_554 S
C913 H923 0.929 . S
C914 O894 1.255 . S
C914 O895 1.257 . S
C915 Eu851 2.787 . S
C915 O890 1.252 . S
C915 O893 1.268 . S
C915 C908 1.506 . S
H916 C899 0.931 . S
H917 C900 0.931 . S
H918 C901 0.929 . S
H919 C902 0.930 . S
H920 C910 0.931 . S
H921 C911 0.931 . S
H922 C912 0.930 . S
H923 C913 0.929 . S
Eu924 N953 2.600 . S
Eu924 N959 2.562 . S
Eu924 O968 2.462 . S
Eu924 O969 2.373 . S
Eu924 O971 2.432 . S
Eu924 O972 2.291 . S
Eu924 O976 2.335 . S
Eu924 O979 2.372 . S
Eu924 C988 2.787 . S
C925 N926 1.365 . S
C925 C928 1.405 . S
C925 C932 1.448 . S
N926 C925 1.365 . S
N926 C929 1.319 . S
N926 Eu935 2.600 . S
C927 C929 1.397 . S
C927 C930 1.367 . S
C927 H947 0.931 . S
C928 C925 1.405 . S
C928 C930 1.403 . S
C928 C934 1.439 1_565 S
C929 N926 1.319 . S
C929 C927 1.397 . S
C929 H940 0.930 . S
C930 C927 1.367 . S
C930 C928 1.403 . S
C930 H951 0.929 1_565 S
C931 C932 1.430 . S
C931 C933 1.387 1_565 S
C931 C937 1.405 . S
C932 C925 1.448 . S
C932 C931 1.430 . S
C932 N936 1.351 . S
C933 C931 1.387 1_545 S
C933 C934 1.374 . S
C933 H948 0.931 . S
C934 C928 1.439 1_545 S
C934 C933 1.374 . S
C934 H949 0.931 . S
Eu935 N926 2.600 . S
Eu935 N936 2.562 . S
Eu935 O970 2.335 . S
Eu935 O973 2.372 . S
Eu935 O974 2.462 . S
Eu935 O975 2.373 . S
Eu935 O977 2.432 . S
Eu935 O978 2.291 . S
Eu935 C999 2.787 . S
N936 C932 1.351 . S
N936 Eu935 2.562 . S
N936 C938 1.325 . S
C937 C931 1.405 . S
C937 C939 1.376 . S
C937 H945 0.920 1_565 S
C938 N936 1.325 . S
C938 C939 1.416 . S
C938 H944 0.929 . S
C939 C937 1.376 . S
C939 C938 1.416 . S
C939 H941 0.930 . S
H940 C929 0.930 . S
H941 C939 0.930 . S
H942 C957 0.930 . S
H943 C964 0.930 . S
H944 C938 0.929 . S
H945 C937 0.920 1_545 S
H946 C960 0.929 . S
H947 C927 0.931 . S
H948 C933 0.931 . S
H949 C934 0.931 . S
H950 C955 0.931 . S
H951 C930 0.929 1_545 S
H952 C963 0.930 . S
N953 Eu924 2.600 . S
N953 C954 1.365 . S
N953 C957 1.319 . S
C954 N953 1.365 . S
C954 C956 1.405 . S
C954 C962 1.448 . S
C955 H950 0.931 . S
C955 C957 1.397 . S
C955 C958 1.367 . S
C956 C954 1.405 . S
C956 C958 1.403 . S
C956 C989 1.439 . S
C957 H942 0.930 . S
C957 N953 1.319 . S
C957 C955 1.397 . S
C958 C955 1.367 . S
C958 C956 1.403 . S
C958 H965 0.929 . S
N959 Eu924 2.562 . S
N959 C960 1.325 . S
N959 C962 1.351 . S
C960 H946 0.929 . S
C960 N959 1.325 . S
C960 C964 1.416 . S
C961 C962 1.430 . S
C961 C963 1.404 . S
C961 C990 1.387 . S
C962 C954 1.448 . S
C962 N959 1.351 . S
C962 C961 1.430 . S
C963 H952 0.930 . S
C963 C961 1.404 . S
C963 C964 1.366 . S
C964 H943 0.930 . S
C964 C960 1.416 . S
C964 C963 1.366 . S
H965 C958 0.929 . S
H966 C989 0.931 . S
H967 C990 0.931 . S
O968 Eu924 2.462 . S
O968 C988 1.252 . S
O969 Eu924 2.373 . S
O969 C980 1.249 . S
O970 Eu935 2.335 . S
O970 C980 1.264 . S
O971 Eu924 2.432 . S
O971 C988 1.268 . S
O972 Eu924 2.291 . S
O972 C987 1.255 . S
O973 Eu935 2.372 . S
O973 C987 1.257 . S
O974 Eu935 2.462 . S
O974 C999 1.252 . S
O975 Eu935 2.373 . S
O975 C991 1.249 . S
O976 Eu924 2.335 . S
O976 C991 1.264 . S
O977 Eu935 2.432 . S
O977 C999 1.268 . S
O978 Eu935 2.291 . S
O978 C998 1.255 . S
O979 Eu924 2.372 . S
O979 C998 1.257 . S
C980 O969 1.249 . S
C980 O970 1.264 . S
C981 C984 1.382 . S
C981 C986 1.390 . S
C981 C988 1.506 . S
C982 C983 1.398 . S
C982 C986 1.392 1_556 S
C983 C982 1.398 . S
C983 C985 1.372 . S
C983 H1000 0.931 . S
C984 C981 1.382 . S
C984 C985 1.390 1_554 S
C984 H1001 0.931 . S
C985 C983 1.372 . S
C985 C984 1.390 1_556 S
C985 H1002 0.929 . S
C986 C981 1.390 . S
C986 C982 1.392 1_554 S
C986 H1003 0.930 . S
C987 O972 1.255 . S
C987 O973 1.257 . S
C988 Eu924 2.787 . S
C988 O968 1.252 . S
C988 O971 1.268 . S
C988 C981 1.506 . S
C989 C956 1.439 . S
C989 H966 0.931 . S
C989 C990 1.374 . S
C990 C961 1.387 . S
C990 H967 0.931 . S
C990 C989 1.374 . S
C991 O975 1.249 . S
C991 O976 1.264 . S
C992 C995 1.382 . S
C992 C996 1.390 . S
C992 C999 1.506 . S
C993 C994 1.398 . S
C993 C996 1.392 . S
C994 C993 1.398 . S
C994 C997 1.372 . S
C994 H1004 0.931 . S
C995 C992 1.382 . S
C995 C997 1.390 . S
C995 H1005 0.931 . S
C996 C992 1.390 . S
C996 C993 1.392 . S
C996 H1006 0.930 . S
C997 C994 1.372 . S
C997 C995 1.390 . S
C997 H1007 0.929 . S
C998 O978 1.255 . S
C998 O979 1.257 . S
C999 Eu935 2.787 . S
C999 O974 1.252 . S
C999 O977 1.268 . S
C999 C992 1.506 . S
H1000 C983 0.931 . S
H1001 C984 0.931 . S
H1002 C985 0.929 . S
H1003 C986 0.930 . S
H1004 C994 0.931 . S
H1005 C995 0.931 . S
H1006 C996 0.930 . S
H1007 C997 0.929 . S
Eu1008 N1037 2.600 . S
Eu1008 N1043 2.562 . S
Eu1008 O1052 2.462 . S
Eu1008 O1053 2.373 . S
Eu1008 O1055 2.432 . S
Eu1008 O1056 2.291 . S
Eu1008 O1060 2.335 . S
Eu1008 O1063 2.372 . S
Eu1008 C1072 2.787 . S
C1009 N1010 1.365 . S
C1009 C1012 1.405 . S
C1009 C1016 1.448 . S
N1010 C1009 1.365 . S
N1010 C1013 1.319 . S
N1010 Eu1019 2.600 . S
C1011 C1013 1.397 . S
C1011 C1014 1.367 . S
C1011 H1031 0.931 . S
C1012 C1009 1.405 . S
C1012 C1014 1.403 . S
C1012 C1018 1.439 . S
C1013 N1010 1.319 . S
C1013 C1011 1.397 . S
C1013 H1024 0.930 . S
C1014 C1011 1.367 . S
C1014 C1012 1.403 . S
C1014 H1035 0.929 . S
C1015 C1016 1.430 . S
C1015 C1017 1.387 . S
C1015 C1021 1.404 . S
C1016 C1009 1.448 . S
C1016 C1015 1.430 . S
C1016 N1020 1.351 . S
C1017 C1015 1.387 . S
C1017 C1018 1.374 . S
C1017 H1032 0.931 . S
C1018 C1012 1.439 . S
C1018 C1017 1.374 . S
C1018 H1033 0.931 . S
Eu1019 N1010 2.600 . S
Eu1019 N1020 2.562 . S
Eu1019 O1054 2.335 . S
Eu1019 O1057 2.372 . S
Eu1019 O1058 2.462 . S
Eu1019 O1059 2.373 . S
Eu1019 O1061 2.432 . S
Eu1019 O1062 2.291 . S
Eu1019 C1083 2.787 . S
N1020 C1016 1.351 . S
N1020 Eu1019 2.562 . S
N1020 C1022 1.325 . S
C1021 C1015 1.404 . S
C1021 C1023 1.366 . S
C1021 H1029 0.930 . S
C1022 N1020 1.325 . S
C1022 C1023 1.416 . S
C1022 H1028 0.929 . S
C1023 C1021 1.366 . S
C1023 C1022 1.416 . S
C1023 H1025 0.930 . S
H1024 C1013 0.930 . S
H1025 C1023 0.930 . S
H1026 C1041 0.930 . S
H1027 C1048 0.930 . S
H1028 C1022 0.929 . S
H1029 C1021 0.930 . S
H1030 C1044 0.929 . S
H1031 C1011 0.931 . S
H1032 C1017 0.931 . S
H1033 C1018 0.931 . S
H1034 C1039 0.931 . S
H1035 C1014 0.929 . S
H1036 C1047 0.920 1_455 S
N1037 Eu1008 2.600 . S
N1037 C1038 1.365 . S
N1037 C1041 1.319 . S
C1038 N1037 1.365 . S
C1038 C1040 1.405 . S
C1038 C1046 1.448 . S
C1039 H1034 0.931 . S
C1039 C1041 1.397 1_545 S
C1039 C1042 1.367 1_545 S
C1040 C1038 1.405 . S
C1040 C1042 1.403 . S
C1040 C1073 1.439 1_655 S
C1041 H1026 0.930 . S
C1041 N1037 1.319 . S
C1041 C1039 1.397 1_565 S
C1042 C1039 1.367 1_565 S
C1042 C1040 1.403 . S
C1042 H1049 0.929 1_665 S
N1043 Eu1008 2.562 . S
N1043 C1044 1.325 . S
N1043 C1046 1.351 . S
C1044 H1030 0.929 . S
C1044 N1043 1.325 . S
C1044 C1048 1.416 . S
C1045 C1046 1.430 . S
C1045 C1047 1.405 . S
C1045 C1074 1.387 1_655 S
C1046 C1038 1.448 . S
C1046 N1043 1.351 . S
C1046 C1045 1.430 . S
C1047 H1036 0.920 1_655 S
C1047 C1045 1.405 . S
C1047 C1048 1.376 . S
C1048 H1027 0.930 . S
C1048 C1044 1.416 . S
C1048 C1047 1.376 . S
H1049 C1042 0.929 1_445 S
H1050 C1073 0.931 . S
H1051 C1074 0.931 . S
O1052 Eu1008 2.462 . S
O1052 C1072 1.252 . S
O1053 Eu1008 2.373 . S
O1053 C1064 1.249 . S
O1054 Eu1019 2.335 . S
O1054 C1064 1.264 . S
O1055 Eu1008 2.432 . S
O1055 C1072 1.268 . S
O1056 Eu1008 2.291 . S
O1056 C1071 1.255 . S
O1057 Eu1019 2.372 . S
O1057 C1071 1.257 . S
O1058 Eu1019 2.462 . S
O1058 C1083 1.252 . S
O1059 Eu1019 2.373 . S
O1059 C1075 1.249 . S
O1060 Eu1008 2.335 . S
O1060 C1075 1.264 . S
O1061 Eu1019 2.432 . S
O1061 C1083 1.268 . S
O1062 Eu1019 2.291 . S
O1062 C1082 1.255 . S
O1063 Eu1008 2.372 . S
O1063 C1082 1.257 . S
C1064 O1053 1.249 . S
C1064 O1054 1.264 . S
C1065 C1068 1.382 . S
C1065 C1070 1.390 . S
C1065 C1072 1.506 . S
C1066 C1067 1.398 . S
C1066 C1070 1.392 1_554 S
C1067 C1066 1.398 . S
C1067 C1069 1.372 . S
C1067 H1084 0.931 . S
C1068 C1065 1.382 . S
C1068 C1069 1.390 1_556 S
C1068 H1085 0.931 . S
C1069 C1067 1.372 . S
C1069 C1068 1.390 1_554 S
C1069 H1086 0.929 . S
C1070 C1065 1.390 . S
C1070 C1066 1.392 1_556 S
C1070 H1087 0.930 . S
C1071 O1056 1.255 . S
C1071 O1057 1.257 . S
C1072 Eu1008 2.787 . S
C1072 O1052 1.252 . S
C1072 O1055 1.268 . S
C1072 C1065 1.506 . S
C1073 C1040 1.439 1_455 S
C1073 H1050 0.931 . S
C1073 C1074 1.374 . S
C1074 C1045 1.387 1_455 S
C1074 H1051 0.931 . S
C1074 C1073 1.374 . S
C1075 O1059 1.249 . S
C1075 O1060 1.264 . S
C1076 C1079 1.382 . S
C1076 C1080 1.390 . S
C1076 C1083 1.506 . S
C1077 C1078 1.398 . S
C1077 C1080 1.392 . S
C1078 C1077 1.398 . S
C1078 C1081 1.372 . S
C1078 H1088 0.931 . S
C1079 C1076 1.382 . S
C1079 C1081 1.390 . S
C1079 H1089 0.931 . S
C1080 C1076 1.390 . S
C1080 C1077 1.392 . S
C1080 H1090 0.930 . S
C1081 C1078 1.372 . S
C1081 C1079 1.390 . S
C1081 H1091 0.929 . S
C1082 O1062 1.255 . S
C1082 O1063 1.257 . S
C1083 Eu1019 2.787 . S
C1083 O1058 1.252 . S
C1083 O1061 1.268 . S
C1083 C1076 1.506 . S
H1084 C1067 0.931 . S
H1085 C1068 0.931 . S
H1086 C1069 0.929 . S
H1087 C1070 0.930 . S
H1088 C1078 0.931 . S
H1089 C1079 0.931 . S
H1090 C1080 0.930 . S
H1091 C1081 0.929 . S
Eu1092 N1121 2.600 . S
Eu1092 N1127 2.562 . S
Eu1092 O1136 2.462 . S
Eu1092 O1137 2.373 . S
Eu1092 O1139 2.432 . S
Eu1092 O1140 2.291 . S
Eu1092 O1144 2.335 . S
Eu1092 O1147 2.372 . S
Eu1092 C1156 2.787 . S
C1093 N1094 1.365 . S
C1093 C1096 1.405 . S
C1093 C1100 1.448 . S
N1094 C1093 1.365 . S
N1094 C1097 1.319 . S
N1094 Eu1103 2.600 . S
C1095 C1097 1.397 1_455 S
C1095 C1098 1.367 1_455 S
C1095 H1115 0.931 . S
C1096 C1093 1.405 . S
C1096 C1098 1.403 . S
C1096 C1102 1.439 1_545 S
C1097 N1094 1.319 . S
C1097 C1095 1.397 1_655 S
C1097 H1108 0.930 . S
C1098 C1095 1.367 1_655 S
C1098 C1096 1.403 . S
C1098 H1119 0.929 1_645 S
C1099 C1100 1.430 . S
C1099 C1101 1.387 1_545 S
C1099 C1105 1.405 . S
C1100 C1093 1.448 . S
C1100 C1099 1.430 . S
C1100 N1104 1.351 . S
C1101 C1099 1.387 1_565 S
C1101 C1102 1.374 . S
C1101 H1116 0.931 . S
C1102 C1096 1.439 1_565 S
C1102 C1101 1.374 . S
C1102 H1117 0.931 . S
Eu1103 N1094 2.600 . S
Eu1103 N1104 2.562 . S
Eu1103 O1138 2.335 . S
Eu1103 O1141 2.372 . S
Eu1103 O1142 2.462 . S
Eu1103 O1143 2.373 . S
Eu1103 O1145 2.432 . S
Eu1103 O1146 2.291 . S
Eu1103 C1167 2.787 . S
N1104 C1100 1.351 . S
N1104 Eu1103 2.562 . S
N1104 C1106 1.325 . S
C1105 C1099 1.405 . S
C1105 C1107 1.376 . S
C1105 H1113 0.920 1_545 S
C1106 N1104 1.325 . S
C1106 C1107 1.416 . S
C1106 H1112 0.929 . S
C1107 C1105 1.376 . S
C1107 C1106 1.416 . S
C1107 H1109 0.930 . S
H1108 C1097 0.930 . S
H1109 C1107 0.930 . S
H1110 C1125 0.930 . S
H1111 C1132 0.930 . S
H1112 C1106 0.929 . S
H1113 C1105 0.920 1_565 S
H1114 C1128 0.929 . S
H1115 C1095 0.931 . S
H1116 C1101 0.931 . S
H1117 C1102 0.931 . S
H1118 C1123 0.931 . S
H1119 C1098 0.929 1_465 S
H1120 C1131 0.930 . S
N1121 Eu1092 2.600 . S
N1121 C1122 1.365 . S
N1121 C1125 1.319 . S
C1122 N1121 1.365 . S
C1122 C1124 1.405 . S
C1122 C1130 1.448 . S
C1123 H1118 0.931 . S
C1123 C1125 1.397 . S
C1123 C1126 1.367 . S
C1124 C1122 1.405 . S
C1124 C1126 1.403 . S
C1124 C1157 1.439 . S
C1125 H1110 0.930 . S
C1125 N1121 1.319 . S
C1125 C1123 1.397 . S
C1126 C1123 1.367 . S
C1126 C1124 1.403 . S
C1126 H1133 0.929 . S
N1127 Eu1092 2.562 . S
N1127 C1128 1.325 . S
N1127 C1130 1.351 . S
C1128 H1114 0.929 . S
C1128 N1127 1.325 . S
C1128 C1132 1.416 . S
C1129 C1130 1.430 . S
C1129 C1131 1.404 . S
C1129 C1158 1.387 . S
C1130 C1122 1.448 . S
C1130 N1127 1.351 . S
C1130 C1129 1.430 . S
C1131 H1120 0.930 . S
C1131 C1129 1.404 . S
C1131 C1132 1.366 . S
C1132 H1111 0.930 . S
C1132 C1128 1.416 . S
C1132 C1131 1.366 . S
H1133 C1126 0.929 . S
H1134 C1157 0.931 . S
H1135 C1158 0.931 . S
O1136 Eu1092 2.462 . S
O1136 C1156 1.252 . S
O1137 Eu1092 2.373 . S
O1137 C1148 1.249 . S
O1138 Eu1103 2.335 . S
O1138 C1148 1.264 . S
O1139 Eu1092 2.432 . S
O1139 C1156 1.268 . S
O1140 Eu1092 2.291 . S
O1140 C1155 1.255 . S
O1141 Eu1103 2.372 . S
O1141 C1155 1.257 . S
O1142 Eu1103 2.462 . S
O1142 C1167 1.252 . S
O1143 Eu1103 2.373 . S
O1143 C1159 1.249 . S
O1144 Eu1092 2.335 . S
O1144 C1159 1.264 . S
O1145 Eu1103 2.432 . S
O1145 C1167 1.268 . S
O1146 Eu1103 2.291 . S
O1146 C1166 1.255 . S
O1147 Eu1092 2.372 . S
O1147 C1166 1.257 . S
C1148 O1137 1.249 . S
C1148 O1138 1.264 . S
C1149 C1152 1.382 . S
C1149 C1154 1.390 . S
C1149 C1156 1.506 . S
C1150 C1151 1.398 . S
C1150 C1154 1.392 . S
C1151 C1150 1.398 . S
C1151 C1153 1.372 . S
C1151 H1168 0.931 . S
C1152 C1149 1.382 . S
C1152 C1153 1.390 . S
C1152 H1169 0.931 . S
C1153 C1151 1.372 . S
C1153 C1152 1.390 . S
C1153 H1170 0.929 . S
C1154 C1149 1.390 . S
C1154 C1150 1.392 . S
C1154 H1171 0.930 . S
C1155 O1140 1.255 . S
C1155 O1141 1.257 . S
C1156 Eu1092 2.787 . S
C1156 O1136 1.252 . S
C1156 O1139 1.268 . S
C1156 C1149 1.506 . S
C1157 C1124 1.439 . S
C1157 H1134 0.931 . S
C1157 C1158 1.374 . S
C1158 C1129 1.387 . S
C1158 H1135 0.931 . S
C1158 C1157 1.374 . S
C1159 O1143 1.249 . S
C1159 O1144 1.264 . S
C1160 C1163 1.382 . S
C1160 C1164 1.390 . S
C1160 C1167 1.506 . S
C1161 C1162 1.398 . S
C1161 C1164 1.392 1_556 S
C1162 C1161 1.398 . S
C1162 C1165 1.372 . S
C1162 H1172 0.931 . S
C1163 C1160 1.382 . S
C1163 C1165 1.390 1_554 S
C1163 H1173 0.931 . S
C1164 C1160 1.390 . S
C1164 C1161 1.392 1_554 S
C1164 H1174 0.930 . S
C1165 C1162 1.372 . S
C1165 C1163 1.390 1_556 S
C1165 H1175 0.929 . S
C1166 O1146 1.255 . S
C1166 O1147 1.257 . S
C1167 Eu1103 2.787 . S
C1167 O1142 1.252 . S
C1167 O1145 1.268 . S
C1167 C1160 1.506 . S
H1168 C1151 0.931 . S
H1169 C1152 0.931 . S
H1170 C1153 0.929 . S
H1171 C1154 0.930 . S
H1172 C1162 0.931 . S
H1173 C1163 0.931 . S
H1174 C1164 0.930 . S
H1175 C1165 0.929 . S
Eu1176 N1205 2.600 . S
Eu1176 N1211 2.562 . S
Eu1176 O1220 2.462 . S
Eu1176 O1221 2.373 . S
Eu1176 O1223 2.432 . S
Eu1176 O1224 2.291 . S
Eu1176 O1228 2.335 . S
Eu1176 O1231 2.372 . S
Eu1176 C1240 2.787 . S
C1177 N1178 1.365 . S
C1177 C1180 1.405 . S
C1177 C1184 1.448 . S
N1178 C1177 1.365 . S
N1178 C1181 1.319 . S
N1178 Eu1187 2.600 . S
C1179 C1181 1.397 . S
C1179 C1182 1.367 . S
C1179 H1199 0.931 . S
C1180 C1177 1.405 . S
C1180 C1182 1.403 . S
C1180 C1186 1.439 . S
C1181 N1178 1.319 . S
C1181 C1179 1.397 . S
C1181 H1192 0.930 . S
C1182 C1179 1.367 . S
C1182 C1180 1.403 . S
C1182 H1203 0.929 . S
C1183 C1184 1.430 . S
C1183 C1185 1.387 . S
C1183 C1189 1.404 . S
C1184 C1177 1.448 . S
C1184 C1183 1.430 . S
C1184 N1188 1.351 . S
C1185 C1183 1.387 . S
C1185 C1186 1.374 . S
C1185 H1200 0.931 . S
C1186 C1180 1.439 . S
C1186 C1185 1.374 . S
C1186 H1201 0.931 . S
Eu1187 N1178 2.600 . S
Eu1187 N1188 2.562 . S
Eu1187 O1222 2.335 . S
Eu1187 O1225 2.372 . S
Eu1187 O1226 2.462 . S
Eu1187 O1227 2.373 . S
Eu1187 O1229 2.432 . S
Eu1187 O1230 2.291 . S
Eu1187 C1251 2.787 . S
N1188 C1184 1.351 . S
N1188 Eu1187 2.562 . S
N1188 C1190 1.325 . S
C1189 C1183 1.404 . S
C1189 C1191 1.366 . S
C1189 H1197 0.930 . S
C1190 N1188 1.325 . S
C1190 C1191 1.416 . S
C1190 H1196 0.929 . S
C1191 C1189 1.366 . S
C1191 C1190 1.416 . S
C1191 H1193 0.930 . S
H1192 C1181 0.930 . S
H1193 C1191 0.930 . S
H1194 C1209 0.930 . S
H1195 C1216 0.930 . S
H1196 C1190 0.929 . S
H1197 C1189 0.930 . S
H1198 C1212 0.929 . S
H1199 C1179 0.931 . S
H1200 C1185 0.931 . S
H1201 C1186 0.931 . S
H1202 C1207 0.931 . S
H1203 C1182 0.929 . S
H1204 C1215 0.920 1_655 S
N1205 Eu1176 2.600 . S
N1205 C1206 1.365 . S
N1205 C1209 1.319 . S
C1206 N1205 1.365 . S
C1206 C1208 1.405 . S
C1206 C1214 1.448 . S
C1207 H1202 0.931 . S
C1207 C1209 1.397 1_565 S
C1207 C1210 1.367 1_565 S
C1208 C1206 1.405 . S
C1208 C1210 1.403 . S
C1208 C1241 1.439 1_455 S
C1209 H1194 0.930 . S
C1209 N1205 1.319 . S
C1209 C1207 1.397 1_545 S
C1210 C1207 1.367 1_545 S
C1210 C1208 1.403 . S
C1210 H1217 0.929 1_445 S
N1211 Eu1176 2.562 . S
N1211 C1212 1.325 . S
N1211 C1214 1.351 . S
C1212 H1198 0.929 . S
C1212 N1211 1.325 . S
C1212 C1216 1.416 . S
C1213 C1214 1.430 . S
C1213 C1215 1.405 . S
C1213 C1242 1.387 1_455 S
C1214 C1206 1.448 . S
C1214 N1211 1.351 . S
C1214 C1213 1.430 . S
C1215 H1204 0.920 1_455 S
C1215 C1213 1.405 . S
C1215 C1216 1.376 . S
C1216 H1195 0.930 . S
C1216 C1212 1.416 . S
C1216 C1215 1.376 . S
H1217 C1210 0.929 1_665 S
H1218 C1241 0.931 . S
H1219 C1242 0.931 . S
O1220 Eu1176 2.462 . S
O1220 C1240 1.252 . S
O1221 Eu1176 2.373 . S
O1221 C1232 1.249 . S
O1222 Eu1187 2.335 . S
O1222 C1232 1.264 . S
O1223 Eu1176 2.432 . S
O1223 C1240 1.268 . S
O1224 Eu1176 2.291 . S
O1224 C1239 1.255 . S
O1225 Eu1187 2.372 . S
O1225 C1239 1.257 . S
O1226 Eu1187 2.462 . S
O1226 C1251 1.252 . S
O1227 Eu1187 2.373 . S
O1227 C1243 1.249 . S
O1228 Eu1176 2.335 . S
O1228 C1243 1.264 . S
O1229 Eu1187 2.432 . S
O1229 C1251 1.268 . S
O1230 Eu1187 2.291 . S
O1230 C1250 1.255 . S
O1231 Eu1176 2.372 . S
O1231 C1250 1.257 . S
C1232 O1221 1.249 . S
C1232 O1222 1.264 . S
C1233 C1236 1.382 . S
C1233 C1238 1.390 . S
C1233 C1240 1.506 . S
C1234 C1235 1.398 . S
C1234 C1238 1.392 1_554 S
C1235 C1234 1.398 . S
C1235 C1237 1.372 . S
C1235 H1252 0.931 . S
C1236 C1233 1.382 . S
C1236 C1237 1.390 1_556 S
C1236 H1253 0.931 . S
C1237 C1235 1.372 . S
C1237 C1236 1.390 1_554 S
C1237 H1254 0.929 . S
C1238 C1233 1.390 . S
C1238 C1234 1.392 1_556 S
C1238 H1255 0.930 . S
C1239 O1224 1.255 . S
C1239 O1225 1.257 . S
C1240 Eu1176 2.787 . S
C1240 O1220 1.252 . S
C1240 O1223 1.268 . S
C1240 C1233 1.506 . S
C1241 C1208 1.439 1_655 S
C1241 H1218 0.931 . S
C1241 C1242 1.374 . S
C1242 C1213 1.387 1_655 S
C1242 H1219 0.931 . S
C1242 C1241 1.374 . S
C1243 O1227 1.249 . S
C1243 O1228 1.264 . S
C1244 C1247 1.382 . S
C1244 C1248 1.390 . S
C1244 C1251 1.506 . S
C1245 C1246 1.398 . S
C1245 C1248 1.392 . S
C1246 C1245 1.398 . S
C1246 C1249 1.372 . S
C1246 H1256 0.931 . S
C1247 C1244 1.382 . S
C1247 C1249 1.390 . S
C1247 H1257 0.931 . S
C1248 C1244 1.390 . S
C1248 C1245 1.392 . S
C1248 H1258 0.930 . S
C1249 C1246 1.372 . S
C1249 C1247 1.390 . S
C1249 H1259 0.929 . S
C1250 O1230 1.255 . S
C1250 O1231 1.257 . S
C1251 Eu1187 2.787 . S
C1251 O1226 1.252 . S
C1251 O1229 1.268 . S
C1251 C1244 1.506 . S
H1252 C1235 0.931 . S
H1253 C1236 0.931 . S
H1254 C1237 0.929 . S
H1255 C1238 0.930 . S
H1256 C1246 0.931 . S
H1257 C1247 0.931 . S
H1258 C1248 0.930 . S
H1259 C1249 0.929 . S
Eu1260 N1289 2.600 . S
Eu1260 N1295 2.562 . S
Eu1260 O1304 2.462 . S
Eu1260 O1305 2.373 . S
Eu1260 O1307 2.432 . S
Eu1260 O1308 2.291 . S
Eu1260 O1312 2.335 . S
Eu1260 O1315 2.372 . S
Eu1260 C1324 2.787 . S
C1261 N1262 1.365 . S
C1261 C1264 1.405 . S
C1261 C1268 1.448 . S
N1262 C1261 1.365 . S
N1262 C1265 1.319 . S
N1262 Eu1271 2.600 . S
C1263 C1265 1.397 1_655 S
C1263 C1266 1.367 1_655 S
C1263 H1283 0.931 . S
C1264 C1261 1.405 . S
C1264 C1266 1.403 . S
C1264 C1270 1.439 1_565 S
C1265 N1262 1.319 . S
C1265 C1263 1.397 1_455 S
C1265 H1276 0.930 . S
C1266 C1263 1.367 1_455 S
C1266 C1264 1.403 . S
C1266 H1287 0.929 1_465 S
C1267 C1268 1.430 . S
C1267 C1269 1.387 1_565 S
C1267 C1273 1.405 . S
C1268 C1261 1.448 . S
C1268 C1267 1.430 . S
C1268 N1272 1.351 . S
C1269 C1267 1.387 1_545 S
C1269 C1270 1.374 . S
C1269 H1284 0.931 . S
C1270 C1264 1.439 1_545 S
C1270 C1269 1.374 . S
C1270 H1285 0.931 . S
Eu1271 N1262 2.600 . S
Eu1271 N1272 2.562 . S
Eu1271 O1306 2.335 . S
Eu1271 O1309 2.372 . S
Eu1271 O1310 2.462 . S
Eu1271 O1311 2.373 . S
Eu1271 O1313 2.432 . S
Eu1271 O1314 2.291 . S
Eu1271 C1335 2.787 . S
N1272 C1268 1.351 . S
N1272 Eu1271 2.562 . S
N1272 C1274 1.325 . S
C1273 C1267 1.405 . S
C1273 C1275 1.376 . S
C1273 H1281 0.920 1_565 S
C1274 N1272 1.325 . S
C1274 C1275 1.416 . S
C1274 H1280 0.929 . S
C1275 C1273 1.376 . S
C1275 C1274 1.416 . S
C1275 H1277 0.930 . S
H1276 C1265 0.930 . S
H1277 C1275 0.930 . S
H1278 C1293 0.930 . S
H1279 C1300 0.930 . S
H1280 C1274 0.929 . S
H1281 C1273 0.920 1_545 S
H1282 C1296 0.929 . S
H1283 C1263 0.931 . S
H1284 C1269 0.931 . S
H1285 C1270 0.931 . S
H1286 C1291 0.931 . S
H1287 C1266 0.929 1_645 S
H1288 C1299 0.930 . S
N1289 Eu1260 2.600 . S
N1289 C1290 1.365 . S
N1289 C1293 1.319 . S
C1290 N1289 1.365 . S
C1290 C1292 1.405 . S
C1290 C1298 1.448 . S
C1291 H1286 0.931 . S
C1291 C1293 1.397 . S
C1291 C1294 1.367 . S
C1292 C1290 1.405 . S
C1292 C1294 1.403 . S
C1292 C1325 1.439 . S
C1293 H1278 0.930 . S
C1293 N1289 1.319 . S
C1293 C1291 1.397 . S
C1294 C1291 1.367 . S
C1294 C1292 1.403 . S
C1294 H1301 0.929 . S
N1295 Eu1260 2.562 . S
N1295 C1296 1.325 . S
N1295 C1298 1.351 . S
C1296 H1282 0.929 . S
C1296 N1295 1.325 . S
C1296 C1300 1.416 . S
C1297 C1298 1.430 . S
C1297 C1299 1.404 . S
C1297 C1326 1.387 . S
C1298 C1290 1.448 . S
C1298 N1295 1.351 . S
C1298 C1297 1.430 . S
C1299 H1288 0.930 . S
C1299 C1297 1.404 . S
C1299 C1300 1.366 . S
C1300 H1279 0.930 . S
C1300 C1296 1.416 . S
C1300 C1299 1.366 . S
H1301 C1294 0.929 . S
H1302 C1325 0.931 . S
H1303 C1326 0.931 . S
O1304 Eu1260 2.462 . S
O1304 C1324 1.252 . S
O1305 Eu1260 2.373 . S
O1305 C1316 1.249 . S
O1306 Eu1271 2.335 . S
O1306 C1316 1.264 . S
O1307 Eu1260 2.432 . S
O1307 C1324 1.268 . S
O1308 Eu1260 2.291 . S
O1308 C1323 1.255 . S
O1309 Eu1271 2.372 . S
O1309 C1323 1.257 . S
O1310 Eu1271 2.462 . S
O1310 C1335 1.252 . S
O1311 Eu1271 2.373 . S
O1311 C1327 1.249 . S
O1312 Eu1260 2.335 . S
O1312 C1327 1.264 . S
O1313 Eu1271 2.432 . S
O1313 C1335 1.268 . S
O1314 Eu1271 2.291 . S
O1314 C1334 1.255 . S
O1315 Eu1260 2.372 . S
O1315 C1334 1.257 . S
C1316 O1305 1.249 . S
C1316 O1306 1.264 . S
C1317 C1320 1.382 . S
C1317 C1322 1.390 . S
C1317 C1324 1.506 . S
C1318 C1319 1.398 . S
C1318 C1322 1.392 . S
C1319 C1318 1.398 . S
C1319 C1321 1.372 . S
C1319 H1336 0.931 . S
C1320 C1317 1.382 . S
C1320 C1321 1.390 . S
C1320 H1337 0.931 . S
C1321 C1319 1.372 . S
C1321 C1320 1.390 . S
C1321 H1338 0.929 . S
C1322 C1317 1.390 . S
C1322 C1318 1.392 . S
C1322 H1339 0.930 . S
C1323 O1308 1.255 . S
C1323 O1309 1.257 . S
C1324 Eu1260 2.787 . S
C1324 O1304 1.252 . S
C1324 O1307 1.268 . S
C1324 C1317 1.506 . S
C1325 C1292 1.439 . S
C1325 H1302 0.931 . S
C1325 C1326 1.374 . S
C1326 C1297 1.387 . S
C1326 H1303 0.931 . S
C1326 C1325 1.374 . S
C1327 O1311 1.249 . S
C1327 O1312 1.264 . S
C1328 C1331 1.382 . S
C1328 C1332 1.390 . S
C1328 C1335 1.506 . S
C1329 C1330 1.398 . S
C1329 C1332 1.392 1_556 S
C1330 C1329 1.398 . S
C1330 C1333 1.372 . S
C1330 H1340 0.931 . S
C1331 C1328 1.382 . S
C1331 C1333 1.390 1_554 S
C1331 H1341 0.931 . S
C1332 C1328 1.390 . S
C1332 C1329 1.392 1_554 S
C1332 H1342 0.930 . S
C1333 C1330 1.372 . S
C1333 C1331 1.390 1_556 S
C1333 H1343 0.929 . S
C1334 O1314 1.255 . S
C1334 O1315 1.257 . S
C1335 Eu1271 2.787 . S
C1335 O1310 1.252 . S
C1335 O1313 1.268 . S
C1335 C1328 1.506 . S
H1336 C1319 0.931 . S
H1337 C1320 0.931 . S
H1338 C1321 0.929 . S
H1339 C1322 0.930 . S
H1340 C1330 0.931 . S
H1341 C1331 0.931 . S
H1342 C1332 0.930 . S
H1343 C1333 0.929 . S
C1344 C1345 1.369 . S
C1344 C1346 1.419 . S
C1344 H1348 0.930 . S
C1345 C1344 1.369 . S
C1345 C1354 1.429 . S
C1346 C1344 1.419 . S
C1346 C1347 1.350 1_565 S
C1346 H1349 0.929 . S
C1347 C1346 1.350 1_545 S
C1347 C1353 1.426 1_545 S
H1348 C1344 0.930 . S
H1349 C1346 0.929 . S
S1350 N1351 1.613 . S
S1350 N1352 1.610 1_565 S
N1351 S1350 1.613 . S
N1351 C1354 1.350 . S
N1352 S1350 1.610 1_545 S
N1352 C1353 1.351 1_545 S
C1353 C1347 1.426 1_565 S
C1353 N1352 1.351 1_565 S
C1353 C1354 1.434 . S
C1354 C1345 1.429 . S
C1354 N1351 1.350 . S
C1354 C1353 1.434 . S
C1355 C1356 1.369 . S
C1355 C1357 1.419 . S
C1355 H1359 0.930 . S
C1356 C1355 1.369 . S
C1356 C1365 1.429 . S
C1357 C1355 1.419 . S
C1357 C1358 1.362 1_655 S
C1357 H1360 0.929 1_655 S
C1358 C1357 1.362 1_455 S
C1358 C1364 1.420 1_455 S
H1359 C1355 0.930 . S
H1360 C1357 0.929 1_455 S
S1361 N1362 1.613 . S
S1361 N1363 1.610 . S
N1362 S1361 1.613 . S
N1362 C1365 1.350 . S
N1363 S1361 1.610 . S
N1363 C1364 1.351 . S
C1364 C1358 1.420 1_655 S
C1364 N1363 1.351 . S
C1364 C1365 1.434 . S
C1365 C1356 1.429 . S
C1365 N1362 1.350 . S
C1365 C1364 1.434 . S
C1366 C1367 1.353 1_545 S
C1366 C1368 1.419 . S
C1366 H1370 0.930 . S
C1367 C1366 1.353 1_565 S
C1367 C1376 1.425 1_565 S
C1368 C1366 1.419 . S
C1368 C1369 1.363 . S
C1368 H1371 0.929 . S
C1369 C1368 1.363 . S
C1369 C1375 1.428 . S
H1370 C1366 0.930 . S
H1371 C1368 0.929 . S
S1372 N1373 1.613 1_545 S
S1372 N1374 1.610 . S
N1373 S1372 1.613 1_565 S
N1373 C1376 1.350 1_565 S
N1374 S1372 1.610 . S
N1374 C1375 1.351 . S
C1375 C1369 1.428 . S
C1375 N1374 1.351 . S
C1375 C1376 1.434 . S
C1376 C1367 1.425 1_545 S
C1376 N1373 1.350 1_545 S
C1376 C1375 1.434 . S
C1377 C1378 1.368 1_455 S
C1377 C1379 1.419 . S
C1377 H1381 0.930 1_455 S
C1378 C1377 1.368 1_655 S
C1378 C1387 1.421 1_655 S
C1379 C1377 1.419 . S
C1379 C1380 1.363 . S
C1379 H1382 0.929 . S
C1380 C1379 1.363 . S
C1380 C1386 1.428 . S
H1381 C1377 0.930 1_655 S
H1382 C1379 0.929 . S
S1383 N1384 1.613 . S
S1383 N1385 1.610 . S
N1384 S1383 1.613 . S
N1384 C1387 1.350 . S
N1385 S1383 1.610 . S
N1385 C1386 1.351 . S
C1386 C1380 1.428 . S
C1386 N1385 1.351 . S
C1386 C1387 1.434 . S
C1387 C1378 1.421 1_455 S
C1387 N1384 1.350 . S
C1387 C1386 1.434 . S
C1388 C1389 1.369 . S
C1388 C1390 1.419 . S
C1388 H1392 0.930 . S
C1389 C1388 1.369 . S
C1389 C1398 1.429 1_554 S
C1390 C1388 1.419 . S
C1390 C1391 1.363 1_554 S
C1390 H1393 0.929 . S
C1391 C1390 1.363 1_556 S
C1391 C1397 1.428 . S
H1392 C1388 0.930 . S
H1393 C1390 0.929 . S
S1394 N1395 1.613 . S
S1394 N1396 1.610 . S
N1395 S1394 1.613 . S
N1395 C1398 1.350 . S
N1396 S1394 1.610 . S
N1396 C1397 1.351 . S
C1397 C1391 1.428 . S
C1397 N1396 1.351 . S
C1397 C1398 1.434 . S
C1398 C1389 1.429 1_556 S
C1398 N1395 1.350 . S
C1398 C1397 1.434 . S
C1399 C1400 1.369 1_556 S
C1399 C1401 1.419 . S
C1399 H1403 0.930 . S
C1400 C1399 1.369 1_554 S
C1400 C1409 1.429 . S
C1401 C1399 1.419 . S
C1401 C1402 1.363 . S
C1401 H1404 0.929 . S
C1402 C1401 1.363 . S
C1402 C1408 1.428 1_556 S
H1403 C1399 0.930 . S
H1404 C1401 0.929 . S
S1405 N1406 1.613 . S
S1405 N1407 1.610 . S
N1406 S1405 1.613 . S
N1406 C1409 1.350 . S
N1407 S1405 1.610 . S
N1407 C1408 1.351 . S
C1408 C1402 1.428 1_554 S
C1408 N1407 1.351 . S
C1408 C1409 1.434 . S
C1409 C1400 1.429 . S
C1409 N1406 1.350 . S
C1409 C1408 1.434 . S
C1410 C1411 1.369 . S
C1410 C1412 1.419 . S
C1410 H1414 0.930 . S
C1411 C1410 1.369 . S
C1411 C1420 1.429 1_554 S
C1412 C1410 1.419 . S
C1412 C1413 1.363 1_554 S
C1412 H1415 0.929 . S
C1413 C1412 1.363 1_556 S
C1413 C1419 1.428 . S
H1414 C1410 0.930 . S
H1415 C1412 0.929 . S
S1416 N1417 1.613 . S
S1416 N1418 1.610 . S
N1417 S1416 1.613 . S
N1417 C1420 1.350 . S
N1418 S1416 1.610 . S
N1418 C1419 1.351 . S
C1419 C1413 1.428 . S
C1419 N1418 1.351 . S
C1419 C1420 1.434 . S
C1420 C1411 1.429 1_556 S
C1420 N1417 1.350 . S
C1420 C1419 1.434 . S
C1421 C1422 1.369 1_556 S
C1421 C1423 1.419 . S
C1421 H1425 0.930 . S
C1422 C1421 1.369 1_554 S
C1422 C1431 1.429 . S
C1423 C1421 1.419 . S
C1423 C1424 1.363 . S
C1423 H1426 0.929 . S
C1424 C1423 1.363 . S
C1424 C1430 1.428 . S
H1425 C1421 0.930 . S
H1426 C1423 0.929 . S
S1427 N1428 1.613 . S
S1427 N1429 1.610 . S
N1428 S1427 1.613 . S
N1428 C1431 1.350 . S
N1429 S1427 1.610 . S
N1429 C1430 1.351 1_554 S
C1430 C1424 1.428 . S
C1430 N1429 1.351 1_556 S
C1430 C1431 1.434 1_556 S
C1431 C1422 1.429 . S
C1431 N1428 1.350 . S
C1431 C1430 1.434 1_554 S
C1432 C1433 1.369 . S
C1432 C1434 1.419 . S
C1432 H1436 0.930 . S
C1433 C1432 1.369 . S
C1433 C1442 1.429 . S
C1434 C1432 1.419 . S
C1434 C1435 1.363 . S
C1434 H1437 0.929 . S
C1435 C1434 1.363 . S
C1435 C1441 1.428 . S
H1436 C1432 0.930 . S
H1437 C1434 0.929 . S
S1438 N1439 1.613 . S
S1438 N1440 1.610 . S
N1439 S1438 1.613 . S
N1439 C1442 1.350 . S
N1440 S1438 1.610 . S
N1440 C1441 1.351 . S
C1441 C1435 1.428 . S
C1441 N1440 1.351 . S
C1441 C1442 1.434 . S
C1442 C1433 1.429 . S
C1442 N1439 1.350 . S
C1442 C1441 1.434 . S
C1443 C1444 1.369 . S
C1443 C1445 1.419 . S
C1443 H1447 0.930 . S
C1444 C1443 1.369 . S
C1444 C1453 1.429 . S
C1445 C1443 1.419 . S
C1445 C1446 1.363 . S
C1445 H1448 0.929 . S
C1446 C1445 1.363 . S
C1446 C1452 1.428 . S
H1447 C1443 0.930 . S
H1448 C1445 0.929 . S
S1449 N1450 1.613 . S
S1449 N1451 1.610 . S
N1450 S1449 1.613 . S
N1450 C1453 1.350 . S
N1451 S1449 1.610 . S
N1451 C1452 1.351 . S
C1452 C1446 1.428 . S
C1452 N1451 1.351 . S
C1452 C1453 1.434 . S
C1453 C1444 1.429 . S
C1453 N1450 1.350 . S
C1453 C1452 1.434 . S
C1454 C1455 1.369 . S
C1454 C1456 1.419 . S
C1454 H1458 0.930 . S
C1455 C1454 1.369 . S
C1455 C1464 1.429 . S
C1456 C1454 1.419 . S
C1456 C1457 1.363 . S
C1456 H1459 0.929 . S
C1457 C1456 1.363 . S
C1457 C1463 1.428 . S
H1458 C1454 0.930 . S
H1459 C1456 0.929 . S
S1460 N1461 1.613 . S
S1460 N1462 1.610 . S
N1461 S1460 1.613 . S
N1461 C1464 1.350 . S
N1462 S1460 1.610 . S
N1462 C1463 1.351 . S
C1463 C1457 1.428 . S
C1463 N1462 1.351 . S
C1463 C1464 1.434 . S
C1464 C1455 1.429 . S
C1464 N1461 1.350 . S
C1464 C1463 1.434 . S
C1465 C1466 1.369 . S
C1465 C1467 1.419 . S
C1465 H1469 0.930 . S
C1466 C1465 1.369 . S
C1466 C1475 1.429 . S
C1467 C1465 1.419 . S
C1467 C1468 1.363 . S
C1467 H1470 0.929 . S
C1468 C1467 1.363 . S
C1468 C1474 1.428 . S
H1469 C1465 0.930 . S
H1470 C1467 0.929 . S
S1471 N1472 1.613 . S
S1471 N1473 1.610 . S
N1472 S1471 1.613 . S
N1472 C1475 1.350 . S
N1473 S1471 1.610 . S
N1473 C1474 1.351 . S
C1474 C1468 1.428 . S
C1474 N1473 1.351 . S
C1474 C1475 1.434 . S
C1475 C1466 1.429 . S
C1475 N1472 1.350 . S
C1475 C1474 1.434 . S
C1476 C1477 1.363 1_545 S
C1476 C1478 1.419 . S
C1476 H1480 0.930 . S
C1477 C1476 1.363 1_565 S
C1477 C1486 1.424 1_565 S
C1478 C1476 1.419 . S
C1478 C1479 1.363 . S
C1478 H1481 0.929 . S
C1479 C1478 1.363 . S
C1479 C1485 1.428 . S
H1480 C1476 0.930 . S
H1481 C1478 0.929 . S
S1482 N1483 1.613 . S
S1482 N1484 1.610 . S
N1483 S1482 1.613 . S
N1483 C1486 1.350 . S
N1484 S1482 1.610 . S
N1484 C1485 1.351 . S
C1485 C1479 1.428 . S
C1485 N1484 1.351 . S
C1485 C1486 1.434 . S
C1486 C1477 1.424 1_545 S
C1486 N1483 1.350 . S
C1486 C1485 1.434 . S
C1487 C1488 1.369 . S
C1487 C1489 1.419 . S
C1487 H1491 0.930 . S
C1488 C1487 1.369 . S
C1488 C1497 1.429 . S
C1489 C1487 1.419 . S
C1489 C1490 1.361 1_455 S
C1489 H1492 0.929 1_455 S
C1490 C1489 1.361 1_655 S
C1490 C1496 1.422 1_655 S
H1491 C1487 0.930 . S
H1492 C1489 0.929 1_655 S
S1493 N1494 1.613 . S
S1493 N1495 1.610 . S
N1494 S1493 1.613 . S
N1494 C1497 1.350 . S
N1495 S1493 1.610 . S
N1495 C1496 1.351 . S
C1496 C1490 1.422 1_455 S
C1496 N1495 1.351 . S
C1496 C1497 1.434 . S
C1497 C1488 1.429 . S
C1497 N1494 1.350 . S
C1497 C1496 1.434 . S
C1498 C1499 1.369 . S
C1498 C1500 1.419 . S
C1498 H1502 0.930 . S
C1499 C1498 1.369 . S
C1499 C1508 1.429 . S
C1500 C1498 1.419 . S
C1500 C1501 1.357 1_565 S
C1500 H1503 0.929 . S
C1501 C1500 1.357 1_545 S
C1501 C1507 1.423 1_545 S
H1502 C1498 0.930 . S
H1503 C1500 0.929 . S
S1504 N1505 1.613 . S
S1504 N1506 1.610 . S
N1505 S1504 1.613 . S
N1505 C1508 1.350 . S
N1506 S1504 1.610 . S
N1506 C1507 1.351 . S
C1507 C1501 1.423 1_565 S
C1507 N1506 1.351 . S
C1507 C1508 1.434 . S
C1508 C1499 1.429 . S
C1508 N1505 1.350 . S
C1508 C1507 1.434 . S
C1509 C1510 1.356 1_655 S
C1509 C1511 1.419 . S
C1509 H1513 0.930 . S
C1510 C1509 1.356 1_455 S
C1510 C1519 1.426 1_455 S
C1511 C1509 1.419 . S
C1511 C1512 1.363 . S
C1511 H1514 0.929 . S
C1512 C1511 1.363 . S
C1512 C1518 1.428 . S
H1513 C1509 0.930 . S
H1514 C1511 0.929 . S
S1515 N1516 1.613 1_655 S
S1515 N1517 1.610 . S
N1516 S1515 1.613 1_455 S
N1516 C1519 1.350 1_455 S
N1517 S1515 1.610 . S
N1517 C1518 1.351 . S
C1518 C1512 1.428 . S
C1518 N1517 1.351 . S
C1518 C1519 1.434 . S
C1519 C1510 1.426 1_655 S
C1519 N1516 1.350 1_655 S
C1519 C1518 1.434 . S
C1520 C1521 1.369 . S
C1520 C1522 1.419 . S
C1520 H1524 0.930 . S
C1521 C1520 1.369 . S
C1521 C1530 1.429 . S
C1522 C1520 1.419 . S
C1522 C1523 1.363 . S
C1522 H1525 0.929 . S
C1523 C1522 1.363 . S
C1523 C1529 1.428 . S
H1524 C1520 0.930 . S
H1525 C1522 0.929 . S
S1526 N1527 1.613 . S
S1526 N1528 1.610 . S
N1527 S1526 1.613 . S
N1527 C1530 1.350 . S
N1528 S1526 1.610 . S
N1528 C1529 1.351 . S
C1529 C1523 1.428 . S
C1529 N1528 1.351 . S
C1529 C1530 1.434 . S
C1530 C1521 1.429 . S
C1530 N1527 1.350 . S
C1530 C1529 1.434 . S
C1531 C1532 1.369 . S
C1531 C1533 1.419 . S
C1531 H1535 0.930 . S
C1532 C1531 1.369 . S
C1532 C1541 1.429 . S
C1533 C1531 1.419 . S
C1533 C1534 1.363 . S
C1533 H1536 0.929 . S
C1534 C1533 1.363 . S
C1534 C1540 1.428 . S
H1535 C1531 0.930 . S
H1536 C1533 0.929 . S
S1537 N1538 1.613 1_554 S
S1537 N1539 1.610 . S
N1538 S1537 1.613 1_556 S
N1538 C1541 1.350 . S
N1539 S1537 1.610 . S
N1539 C1540 1.351 1_554 S
C1540 C1534 1.428 . S
C1540 N1539 1.351 1_556 S
C1540 C1541 1.434 . S
C1541 C1532 1.429 . S
C1541 N1538 1.350 . S
C1541 C1540 1.434 . S
C1542 C1543 1.369 . S
C1542 C1544 1.419 . S
C1542 H1546 0.930 . S
C1543 C1542 1.369 . S
C1543 C1552 1.429 . S
C1544 C1542 1.419 . S
C1544 C1545 1.363 . S
C1544 H1547 0.929 . S
C1545 C1544 1.363 . S
C1545 C1551 1.428 . S
H1546 C1542 0.930 . S
H1547 C1544 0.929 . S
S1548 N1549 1.613 . S
S1548 N1550 1.610 . S
N1549 S1548 1.613 . S
N1549 C1552 1.350 . S
N1550 S1548 1.610 . S
N1550 C1551 1.351 . S
C1551 C1545 1.428 . S
C1551 N1550 1.351 . S
C1551 C1552 1.434 . S
C1552 C1543 1.429 . S
C1552 N1549 1.350 . S
C1552 C1551 1.434 . S
C1553 C1554 1.369 . S
C1553 C1555 1.419 . S
C1553 H1557 0.930 . S
C1554 C1553 1.369 . S
C1554 C1563 1.429 . S
C1555 C1553 1.419 . S
C1555 C1556 1.363 . S
C1555 H1558 0.929 . S
C1556 C1555 1.363 . S
C1556 C1562 1.428 . S
H1557 C1553 0.930 . S
H1558 C1555 0.929 . S
S1559 N1560 1.613 . S
S1559 N1561 1.610 . S
N1560 S1559 1.613 . S
N1560 C1563 1.350 . S
N1561 S1559 1.610 . S
N1561 C1562 1.351 . S
C1562 C1556 1.428 . S
C1562 N1561 1.351 . S
C1562 C1563 1.434 . S
C1563 C1554 1.429 . S
C1563 N1560 1.350 . S
C1563 C1562 1.434 . S
C1564 C1565 1.369 . S
C1564 C1566 1.419 . S
C1564 H1568 0.930 . S
C1565 C1564 1.369 . S
C1565 C1574 1.429 . S
C1566 C1564 1.419 . S
C1566 C1567 1.363 . S
C1566 H1569 0.929 . S
C1567 C1566 1.363 . S
C1567 C1573 1.428 . S
H1568 C1564 0.930 . S
H1569 C1566 0.929 . S
S1570 N1571 1.613 . S
S1570 N1572 1.610 . S
N1571 S1570 1.613 . S
N1571 C1574 1.350 . S
N1572 S1570 1.610 . S
N1572 C1573 1.351 . S
C1573 C1567 1.428 . S
C1573 N1572 1.351 . S
C1573 C1574 1.434 . S
C1574 C1565 1.429 . S
C1574 N1571 1.350 . S
C1574 C1573 1.434 . S
C1575 C1576 1.369 . S
C1575 C1577 1.419 . S
C1575 H1579 0.930 . S
C1576 C1575 1.369 . S
C1576 C1585 1.429 . S
C1577 C1575 1.419 . S
C1577 C1578 1.363 . S
C1577 H1580 0.929 . S
C1578 C1577 1.363 . S
C1578 C1584 1.428 . S
H1579 C1575 0.930 . S
H1580 C1577 0.929 . S
S1581 N1582 1.613 . S
S1581 N1583 1.610 . S
N1582 S1581 1.613 . S
N1582 C1585 1.350 . S
N1583 S1581 1.610 . S
N1583 C1584 1.351 . S
C1584 C1578 1.428 . S
C1584 N1583 1.351 . S
C1584 C1585 1.434 . S
C1585 C1576 1.429 . S
C1585 N1582 1.350 . S
C1585 C1584 1.434 . S
C1586 C1587 1.369 . S
C1586 C1588 1.419 . S
C1586 H1590 0.930 . S
C1587 C1586 1.369 . S
C1587 C1596 1.429 . S
C1588 C1586 1.419 . S
C1588 C1589 1.363 . S
C1588 H1591 0.929 . S
C1589 C1588 1.363 . S
C1589 C1595 1.428 . S
H1590 C1586 0.930 . S
H1591 C1588 0.929 . S
S1592 N1593 1.613 . S
S1592 N1594 1.610 . S
N1593 S1592 1.613 . S
N1593 C1596 1.350 . S
N1594 S1592 1.610 . S
N1594 C1595 1.351 . S
C1595 C1589 1.428 . S
C1595 N1594 1.351 . S
C1595 C1596 1.434 . S
C1596 C1587 1.429 . S
C1596 N1593 1.350 . S
C1596 C1595 1.434 . S
C1597 C1598 1.369 . S
C1597 C1599 1.419 . S
C1597 H1601 0.930 . S
C1598 C1597 1.369 . S
C1598 C1607 1.429 . S
C1599 C1597 1.419 . S
C1599 C1600 1.363 . S
C1599 H1602 0.929 . S
C1600 C1599 1.363 . S
C1600 C1606 1.428 . S
H1601 C1597 0.930 . S
H1602 C1599 0.929 . S
S1603 N1604 1.613 . S
S1603 N1605 1.610 . S
N1604 S1603 1.613 . S
N1604 C1607 1.350 . S
N1605 S1603 1.610 . S
N1605 C1606 1.351 . S
C1606 C1600 1.428 . S
C1606 N1605 1.351 . S
C1606 C1607 1.434 . S
C1607 C1598 1.429 . S
C1607 N1604 1.350 . S
C1607 C1606 1.434 . S
C1608 C1609 1.369 . S
C1608 C1610 1.419 . S
C1608 H1612 0.930 . S
C1609 C1608 1.369 . S
C1609 C1618 1.429 . S
C1610 C1608 1.419 . S
C1610 C1611 1.363 . S
C1610 H1613 0.929 . S
C1611 C1610 1.363 . S
C1611 C1617 1.428 . S
H1612 C1608 0.930 . S
H1613 C1610 0.929 . S
S1614 N1615 1.613 . S
S1614 N1616 1.610 . S
N1615 S1614 1.613 . S
N1615 C1618 1.350 . S
N1616 S1614 1.610 . S
N1616 C1617 1.351 . S
C1617 C1611 1.428 . S
C1617 N1616 1.351 . S
C1617 C1618 1.434 . S
C1618 C1609 1.429 . S
C1618 N1615 1.350 . S
C1618 C1617 1.434 . S
C1619 C1620 1.369 . S
C1619 C1621 1.419 . S
C1619 H1623 0.930 . S
C1620 C1619 1.369 . S
C1620 C1629 1.429 . S
C1621 C1619 1.419 . S
C1621 C1622 1.363 . S
C1621 H1624 0.929 . S
C1622 C1621 1.363 . S
C1622 C1628 1.428 . S
H1623 C1619 0.930 . S
H1624 C1621 0.929 . S
S1625 N1626 1.613 1_655 S
S1625 N1627 1.610 1_655 S
N1626 S1625 1.613 1_455 S
N1626 C1629 1.350 . S
N1627 S1625 1.610 1_455 S
N1627 C1628 1.351 . S
C1628 C1622 1.428 . S
C1628 N1627 1.351 . S
C1628 C1629 1.434 . S
C1629 C1620 1.429 . S
C1629 N1626 1.350 . S
C1629 C1628 1.434 . S
C1630 C1631 1.369 . S
C1630 C1632 1.419 . S
C1630 H1634 0.930 . S
C1631 C1630 1.369 . S
C1631 C1640 1.429 . S
C1632 C1630 1.419 . S
C1632 C1633 1.363 . S
C1632 H1635 0.929 . S
C1633 C1632 1.363 . S
C1633 C1639 1.428 . S
H1634 C1630 0.930 . S
H1635 C1632 0.929 . S
S1636 N1637 1.613 . S
S1636 N1638 1.610 . S
N1637 S1636 1.613 . S
N1637 C1640 1.350 . S
N1638 S1636 1.610 . S
N1638 C1639 1.351 . S
C1639 C1633 1.428 . S
C1639 N1638 1.351 . S
C1639 C1640 1.434 . S
C1640 C1631 1.429 . S
C1640 N1637 1.350 . S
C1640 C1639 1.434 . S
C1641 C1642 1.369 . S
C1641 C1643 1.419 . S
C1641 H1645 0.930 . S
C1642 C1641 1.369 . S
C1642 C1651 1.429 . S
C1643 C1641 1.419 . S
C1643 C1644 1.363 . S
C1643 H1646 0.929 . S
C1644 C1643 1.363 . S
C1644 C1650 1.428 . S
H1645 C1641 0.930 . S
H1646 C1643 0.929 . S
S1647 N1648 1.613 . S
S1647 N1649 1.610 . S
N1648 S1647 1.613 . S
N1648 C1651 1.350 . S
N1649 S1647 1.610 . S
N1649 C1650 1.351 . S
C1650 C1644 1.428 . S
C1650 N1649 1.351 . S
C1650 C1651 1.434 . S
C1651 C1642 1.429 . S
C1651 N1648 1.350 . S
C1651 C1650 1.434 . S
C1652 C1653 1.369 . S
C1652 C1654 1.419 . S
C1652 H1656 0.930 . S
C1653 C1652 1.369 . S
C1653 C1662 1.429 . S
C1654 C1652 1.419 . S
C1654 C1655 1.363 . S
C1654 H1657 0.929 . S
C1655 C1654 1.363 . S
C1655 C1661 1.428 . S
H1656 C1652 0.930 . S
H1657 C1654 0.929 . S
S1658 N1659 1.613 . S
S1658 N1660 1.610 . S
N1659 S1658 1.613 . S
N1659 C1662 1.350 . S
N1660 S1658 1.610 . S
N1660 C1661 1.351 . S
C1661 C1655 1.428 . S
C1661 N1660 1.351 . S
C1661 C1662 1.434 . S
C1662 C1653 1.429 . S
C1662 N1659 1.350 . S
C1662 C1661 1.434 . S
C1663 C1664 1.369 . S
C1663 C1665 1.419 . S
C1663 H1667 0.930 . S
C1664 C1663 1.369 . S
C1664 C1673 1.429 . S
C1665 C1663 1.419 . S
C1665 C1666 1.363 . S
C1665 H1668 0.929 . S
C1666 C1665 1.363 . S
C1666 C1672 1.428 . S
H1667 C1663 0.930 . S
H1668 C1665 0.929 . S
S1669 N1670 1.613 . S
S1669 N1671 1.610 . S
N1670 S1669 1.613 . S
N1670 C1673 1.350 . S
N1671 S1669 1.610 . S
N1671 C1672 1.351 . S
C1672 C1666 1.428 . S
C1672 N1671 1.351 . S
C1672 C1673 1.434 . S
C1673 C1664 1.429 . S
C1673 N1670 1.350 . S
C1673 C1672 1.434 . S
C1674 C1675 1.369 . S
C1674 C1676 1.419 . S
C1674 H1678 0.930 . S
C1675 C1674 1.369 . S
C1675 C1684 1.429 . S
C1676 C1674 1.419 . S
C1676 C1677 1.363 . S
C1676 H1679 0.929 . S
C1677 C1676 1.363 . S
C1677 C1683 1.428 . S
H1678 C1674 0.930 . S
H1679 C1676 0.929 . S
S1680 N1681 1.613 . S
S1680 N1682 1.610 . S
N1681 S1680 1.613 . S
N1681 C1684 1.350 . S
N1682 S1680 1.610 . S
N1682 C1683 1.351 . S
C1683 C1677 1.428 . S
C1683 N1682 1.351 . S
C1683 C1684 1.434 . S
C1684 C1675 1.429 . S
C1684 N1681 1.350 . S
C1684 C1683 1.434 . S
C1685 C1686 1.369 . S
C1685 C1687 1.419 . S
C1685 H1689 0.930 . S
C1686 C1685 1.369 . S
C1686 C1695 1.429 . S
C1687 C1685 1.419 . S
C1687 C1688 1.363 . S
C1687 H1690 0.929 . S
C1688 C1687 1.363 . S
C1688 C1694 1.428 . S
H1689 C1685 0.930 . S
H1690 C1687 0.929 . S
S1691 N1692 1.613 . S
S1691 N1693 1.610 . S
N1692 S1691 1.613 . S
N1692 C1695 1.350 . S
N1693 S1691 1.610 . S
N1693 C1694 1.351 . S
C1694 C1688 1.428 . S
C1694 N1693 1.351 . S
C1694 C1695 1.434 . S
C1695 C1686 1.429 . S
C1695 N1692 1.350 . S
C1695 C1694 1.434 . S
C1696 C1697 1.369 . S
C1696 C1698 1.419 . S
C1696 H1700 0.930 . S
C1697 C1696 1.369 . S
C1697 C1706 1.429 . S
C1698 C1696 1.419 . S
C1698 C1699 1.363 . S
C1698 H1701 0.929 . S
C1699 C1698 1.363 . S
C1699 C1705 1.428 . S
H1700 C1696 0.930 . S
H1701 C1698 0.929 . S
S1702 N1703 1.613 . S
S1702 N1704 1.610 . S
N1703 S1702 1.613 . S
N1703 C1706 1.350 . S
N1704 S1702 1.610 . S
N1704 C1705 1.351 . S
C1705 C1699 1.428 . S
C1705 N1704 1.351 . S
C1705 C1706 1.434 . S
C1706 C1697 1.429 . S
C1706 N1703 1.350 . S
C1706 C1705 1.434 . S
C1707 C1708 1.369 . S
C1707 C1709 1.419 . S
C1707 H1711 0.930 . S
C1708 C1707 1.369 . S
C1708 C1717 1.429 . S
C1709 C1707 1.419 . S
C1709 C1710 1.363 . S
C1709 H1712 0.929 . S
C1710 C1709 1.363 . S
C1710 C1716 1.428 . S
H1711 C1707 0.930 . S
H1712 C1709 0.929 . S
S1713 N1714 1.613 . S
S1713 N1715 1.610 . S
N1714 S1713 1.613 . S
N1714 C1717 1.350 . S
N1715 S1713 1.610 . S
N1715 C1716 1.351 . S
C1716 C1710 1.428 . S
C1716 N1715 1.351 . S
C1716 C1717 1.434 . S
C1717 C1708 1.429 . S
C1717 N1714 1.350 . S
C1717 C1716 1.434 . S
C1718 C1719 1.369 . S
C1718 C1720 1.419 . S
C1718 H1722 0.930 . S
C1719 C1718 1.369 . S
C1719 C1728 1.429 . S
C1720 C1718 1.419 . S
C1720 C1721 1.363 . S
C1720 H1723 0.929 . S
C1721 C1720 1.363 . S
C1721 C1727 1.428 . S
H1722 C1718 0.930 . S
H1723 C1720 0.929 . S
S1724 N1725 1.613 . S
S1724 N1726 1.610 . S
N1725 S1724 1.613 . S
N1725 C1728 1.350 . S
N1726 S1724 1.610 . S
N1726 C1727 1.351 . S
C1727 C1721 1.428 . S
C1727 N1726 1.351 . S
C1727 C1728 1.434 . S
C1728 C1719 1.429 . S
C1728 N1725 1.350 . S
C1728 C1727 1.434 . S
C1729 C1730 1.369 . S
C1729 C1731 1.419 . S
C1729 H1733 0.930 . S
C1730 C1729 1.369 . S
C1730 C1739 1.429 . S
C1731 C1729 1.419 . S
C1731 C1732 1.363 . S
C1731 H1734 0.929 . S
C1732 C1731 1.363 . S
C1732 C1738 1.428 . S
H1733 C1729 0.930 . S
H1734 C1731 0.929 . S
S1735 N1736 1.613 . S
S1735 N1737 1.610 . S
N1736 S1735 1.613 . S
N1736 C1739 1.350 . S
N1737 S1735 1.610 . S
N1737 C1738 1.351 . S
C1738 C1732 1.428 . S
C1738 N1737 1.351 . S
C1738 C1739 1.434 . S
C1739 C1730 1.429 . S
C1739 N1736 1.350 . S
C1739 C1738 1.434 . S
C1740 C1741 1.369 . S
C1740 C1742 1.419 . S
C1740 H1744 0.930 . S
C1741 C1740 1.369 . S
C1741 C1750 1.429 . S
C1742 C1740 1.419 . S
C1742 C1743 1.363 . S
C1742 H1745 0.929 . S
C1743 C1742 1.363 . S
C1743 C1749 1.428 . S
H1744 C1740 0.930 . S
H1745 C1742 0.929 . S
S1746 N1747 1.613 . S
S1746 N1748 1.610 . S
N1747 S1746 1.613 . S
N1747 C1750 1.350 . S
N1748 S1746 1.610 . S
N1748 C1749 1.351 . S
C1749 C1743 1.428 . S
C1749 N1748 1.351 . S
C1749 C1750 1.434 . S
C1750 C1741 1.429 . S
C1750 N1747 1.350 . S
C1750 C1749 1.434 . S
C1751 C1752 1.369 . S
C1751 C1753 1.419 . S
C1751 H1755 0.930 . S
C1752 C1751 1.369 . S
C1752 C1761 1.429 . S
C1753 C1751 1.419 . S
C1753 C1754 1.363 . S
C1753 H1756 0.929 . S
C1754 C1753 1.363 . S
C1754 C1760 1.428 . S
H1755 C1751 0.930 . S
H1756 C1753 0.929 . S
S1757 N1758 1.613 . S
S1757 N1759 1.610 . S
N1758 S1757 1.613 . S
N1758 C1761 1.350 . S
N1759 S1757 1.610 . S
N1759 C1760 1.351 . S
C1760 C1754 1.428 . S
C1760 N1759 1.351 . S
C1760 C1761 1.434 . S
C1761 C1752 1.429 . S
C1761 N1758 1.350 . S
C1761 C1760 1.434 . S
C1762 C1763 1.369 . S
C1762 C1764 1.419 . S
C1762 H1766 0.930 . S
C1763 C1762 1.369 . S
C1763 C1772 1.429 . S
C1764 C1762 1.419 . S
C1764 C1765 1.363 . S
C1764 H1767 0.929 . S
C1765 C1764 1.363 . S
C1765 C1771 1.428 . S
H1766 C1762 0.930 . S
H1767 C1764 0.929 . S
S1768 N1769 1.613 . S
S1768 N1770 1.610 . S
N1769 S1768 1.613 . S
N1769 C1772 1.350 . S
N1770 S1768 1.610 . S
N1770 C1771 1.351 . S
C1771 C1765 1.428 . S
C1771 N1770 1.351 . S
C1771 C1772 1.434 . S
C1772 C1763 1.429 . S
C1772 N1769 1.350 . S
C1772 C1771 1.434 . S
C1773 C1774 1.369 . S
C1773 C1775 1.419 . S
C1773 H1777 0.930 . S
C1774 C1773 1.369 . S
C1774 C1783 1.429 . S
C1775 C1773 1.419 . S
C1775 C1776 1.363 . S
C1775 H1778 0.929 . S
C1776 C1775 1.363 . S
C1776 C1782 1.428 . S
H1777 C1773 0.930 . S
H1778 C1775 0.929 . S
S1779 N1780 1.613 . S
S1779 N1781 1.610 . S
N1780 S1779 1.613 . S
N1780 C1783 1.350 . S
N1781 S1779 1.610 . S
N1781 C1782 1.351 . S
C1782 C1776 1.428 . S
C1782 N1781 1.351 . S
C1782 C1783 1.434 . S
C1783 C1774 1.429 . S
C1783 N1780 1.350 . S
C1783 C1782 1.434 . S
C1784 C1785 1.369 . S
C1784 C1786 1.419 . S
C1784 H1788 0.930 . S
C1785 C1784 1.369 . S
C1785 C1794 1.429 . S
C1786 C1784 1.419 . S
C1786 C1787 1.363 . S
C1786 H1789 0.929 . S
C1787 C1786 1.363 . S
C1787 C1793 1.428 . S
H1788 C1784 0.930 . S
H1789 C1786 0.929 . S
S1790 N1791 1.613 . S
S1790 N1792 1.610 . S
N1791 S1790 1.613 . S
N1791 C1794 1.350 . S
N1792 S1790 1.610 . S
N1792 C1793 1.351 . S
C1793 C1787 1.428 . S
C1793 N1792 1.351 . S
C1793 C1794 1.434 . S
C1794 C1785 1.429 . S
C1794 N1791 1.350 . S
C1794 C1793 1.434 . S
C1795 C1796 1.369 . S
C1795 C1797 1.419 . S
C1795 H1799 0.930 . S
C1796 C1795 1.369 . S
C1796 C1805 1.429 . S
C1797 C1795 1.419 . S
C1797 C1798 1.363 . S
C1797 H1800 0.929 . S
C1798 C1797 1.363 . S
C1798 C1804 1.428 . S
H1799 C1795 0.930 . S
H1800 C1797 0.929 . S
S1801 N1802 1.613 . S
S1801 N1803 1.610 . S
N1802 S1801 1.613 . S
N1802 C1805 1.350 . S
N1803 S1801 1.610 . S
N1803 C1804 1.351 . S
C1804 C1798 1.428 . S
C1804 N1803 1.351 . S
C1804 C1805 1.434 . S
C1805 C1796 1.429 . S
C1805 N1802 1.350 . S
C1805 C1804 1.434 . S
C1806 C1807 1.369 . S
C1806 C1808 1.419 . S
C1806 H1810 0.930 . S
C1807 C1806 1.369 . S
C1807 C1816 1.429 . S
C1808 C1806 1.419 . S
C1808 C1809 1.363 . S
C1808 H1811 0.929 . S
C1809 C1808 1.363 . S
C1809 C1815 1.428 . S
H1810 C1806 0.930 . S
H1811 C1808 0.929 . S
S1812 N1813 1.613 . S
S1812 N1814 1.610 . S
N1813 S1812 1.613 . S
N1813 C1816 1.350 . S
N1814 S1812 1.610 . S
N1814 C1815 1.351 . S
C1815 C1809 1.428 . S
C1815 N1814 1.351 . S
C1815 C1816 1.434 . S
C1816 C1807 1.429 . S
C1816 N1813 1.350 . S
C1816 C1815 1.434 . S
C1817 C1818 1.369 . S
C1817 C1819 1.419 . S
C1817 H1821 0.930 . S
C1818 C1817 1.369 . S
C1818 C1827 1.429 . S
C1819 C1817 1.419 . S
C1819 C1820 1.363 . S
C1819 H1822 0.929 . S
C1820 C1819 1.363 . S
C1820 C1826 1.428 . S
H1821 C1817 0.930 . S
H1822 C1819 0.929 . S
S1823 N1824 1.613 . S
S1823 N1825 1.610 . S
N1824 S1823 1.613 . S
N1824 C1827 1.350 . S
N1825 S1823 1.610 . S
N1825 C1826 1.351 . S
C1826 C1820 1.428 . S
C1826 N1825 1.351 . S
C1826 C1827 1.434 . S
C1827 C1818 1.429 . S
C1827 N1824 1.350 . S
C1827 C1826 1.434 . S
C1828 C1829 1.369 . S
C1828 C1830 1.419 . S
C1828 H1832 0.930 . S
C1829 C1828 1.369 . S
C1829 C1838 1.429 . S
C1830 C1828 1.419 . S
C1830 C1831 1.363 . S
C1830 H1833 0.929 . S
C1831 C1830 1.363 . S
C1831 C1837 1.428 . S
H1832 C1828 0.930 . S
H1833 C1830 0.929 . S
S1834 N1835 1.613 . S
S1834 N1836 1.610 . S
N1835 S1834 1.613 . S
N1835 C1838 1.350 . S
N1836 S1834 1.610 . S
N1836 C1837 1.351 . S
C1837 C1831 1.428 . S
C1837 N1836 1.351 . S
C1837 C1838 1.434 . S
C1838 C1829 1.429 . S
C1838 N1835 1.350 . S
C1838 C1837 1.434 . S
C1839 C1840 1.369 . S
C1839 C1841 1.419 . S
C1839 H1843 0.930 . S
C1840 C1839 1.369 . S
C1840 C1849 1.429 . S
C1841 C1839 1.419 . S
C1841 C1842 1.363 . S
C1841 H1844 0.929 . S
C1842 C1841 1.363 . S
C1842 C1848 1.428 . S
H1843 C1839 0.930 . S
H1844 C1841 0.929 . S
S1845 N1846 1.613 . S
S1845 N1847 1.610 . S
N1846 S1845 1.613 . S
N1846 C1849 1.350 . S
N1847 S1845 1.610 . S
N1847 C1848 1.351 . S
C1848 C1842 1.428 . S
C1848 N1847 1.351 . S
C1848 C1849 1.434 . S
C1849 C1840 1.429 . S
C1849 N1846 1.350 . S
C1849 C1848 1.434 . S
C1850 C1851 1.369 . S
C1850 C1852 1.419 . S
C1850 H1854 0.930 . S
C1851 C1850 1.369 . S
C1851 C1860 1.429 . S
C1852 C1850 1.419 . S
C1852 C1853 1.363 . S
C1852 H1855 0.929 . S
C1853 C1852 1.363 . S
C1853 C1859 1.428 . S
H1854 C1850 0.930 . S
H1855 C1852 0.929 . S
S1856 N1857 1.613 . S
S1856 N1858 1.610 . S
N1857 S1856 1.613 . S
N1857 C1860 1.350 . S
N1858 S1856 1.610 . S
N1858 C1859 1.351 . S
C1859 C1853 1.428 . S
C1859 N1858 1.351 . S
C1859 C1860 1.434 . S
C1860 C1851 1.429 . S
C1860 N1857 1.350 . S
C1860 C1859 1.434 . S
C1861 C1862 1.369 . S
C1861 C1863 1.419 . S
C1861 H1865 0.930 . S
C1862 C1861 1.369 . S
C1862 C1871 1.429 . S
C1863 C1861 1.419 . S
C1863 C1864 1.363 . S
C1863 H1866 0.929 . S
C1864 C1863 1.363 . S
C1864 C1870 1.428 . S
H1865 C1861 0.930 . S
H1866 C1863 0.929 . S
S1867 N1868 1.613 . S
S1867 N1869 1.610 . S
N1868 S1867 1.613 . S
N1868 C1871 1.350 . S
N1869 S1867 1.610 . S
N1869 C1870 1.351 . S
C1870 C1864 1.428 . S
C1870 N1869 1.351 . S
C1870 C1871 1.434 . S
C1871 C1862 1.429 . S
C1871 N1868 1.350 . S
C1871 C1870 1.434 . S
C1345 C991 1.692 . S
C1347 C74 1.699 . S
C1356 C728 1.692 . S
C1358 C147 1.693 . S
C1367 C242 1.703 . S
C1369 C823 1.691 . S
C1378 C315 1.691 . S
C1380 C896 1.692 . S
C1389 C410 1.684 . S
C1391 C487 1.691 . S
C1400 C560 1.691 . S
C1402 C483 1.684 . S
C1411 C578 1.684 . S
C1413 C655 1.691 . S
C1422 C392 1.691 . S
C1424 C651 1.683 . S
C1433 C319 1.692 . S
C1435 C746 1.685 . S
C1444 C819 1.683 . S
C1446 C56 1.691 . S
C1455 C151 1.693 . S
C1457 C914 1.684 . S
C1466 C224 1.692 . S
C1468 C987 1.683 . S
C1477 C1082 1.692 . S
C1479 C1159 1.692 . S
C1488 C1232 1.692 . S
C1490 C1155 1.690 . S
C1499 C1327 1.692 . S
C1501 C1250 1.695 . S
C1510 C1323 1.700 . S
C1512 C1064 1.692 . S
C1521 C63 1.393 . S
C1523 C399 1.387 . S
C1532 C494 1.381 . S
C1534 C158 1.394 . S
C1543 C231 1.383 . S
C1545 C567 1.392 . S
C1554 C326 1.386 . S
C1556 C662 1.390 . S
C1565 C735 1.381 . S
C1567 C1071 1.395 . S
C1576 C1166 1.380 . S
C1578 C830 1.395 . S
C1587 C903 1.395 . S
C1589 C1239 1.383 . S
C1598 C998 1.389 . S
C1600 C1334 1.387 . S
C1609 C1243 2.406 . S
C1611 C67 2.405 1_556 S
C1620 C140 2.410 1_554 S
C1622 C1316 2.407 . S
C1631 C235 2.410 1_556 S
C1633 C1075 2.406 . S
C1642 C308 2.403 1_554 S
C1644 C1148 2.409 . S
C1653 C403 2.409 . S
C1655 C907 2.407 . S
C1664 C476 2.407 . S
C1666 C980 2.409 . S
C1675 C571 2.410 . S
C1677 C739 2.406 . S
C1686 C812 2.411 . S
C1688 C644 2.405 . S
C1697 C69 1.225 . S
C1699 C58 1.206 . S
C1708 C142 1.218 . S
C1710 C153 1.213 . S
C1719 C237 1.213 . S
C1721 C226 1.215 . S
C1730 C321 1.205 . S
C1732 C310 1.222 . S
C1741 C394 1.209 . S
C1743 C405 1.220 . S
C1752 C478 1.205 . S
C1754 C489 1.222 . S
C1763 C573 1.204 . S
C1765 C562 1.223 . S
C1774 C657 1.211 . S
C1776 C646 1.218 . S
C1785 C741 1.208 . S
C1787 C730 1.219 . S
C1796 C825 1.223 . S
C1798 C814 1.208 . S
C1807 C898 1.225 . S
C1809 C909 1.206 . S
C1818 C982 1.224 . S
C1820 C993 1.207 . S
C1829 C1077 1.215 . S
C1831 C1066 1.213 . S
C1840 C1161 1.204 . S
C1842 C1150 1.222 . S
C1851 C1234 1.222 . S
C1853 C1245 1.209 . S
C1862 C1318 1.204 . S
C1864 C1329 1.222 . S
