# Generated by pormake.
# Topology wlq, (5)-cn, num edge types: 1
# Building blocks:
#     Node 0, Type 0, BuildingBlock: BEQFEK_clean_sbu_0, # of connection points: 5
#     Node 1, Type 0, BuildingBlock: BEQFEK_clean_sbu_0, # of connection points: 5
#     Node 2, Type 0, BuildingBlock: BEQFEK_clean_sbu_0, # of connection points: 5
#     Node 3, Type 0, BuildingBlock: BEQFEK_clean_sbu_0, # of connection points: 5
#     Node 4, Type 0, BuildingBlock: BEQFEK_clean_sbu_0, # of connection points: 5
#     Node 5, Type 0, BuildingBlock: BEQFEK_clean_sbu_0, # of connection points: 5
#     Node 6, Type 0, BuildingBlock: BEQFEK_clean_sbu_0, # of connection points: 5
#     Node 7, Type 0, BuildingBlock: BEQFEK_clean_sbu_0, # of connection points: 5
#     Node 8, Type 0, BuildingBlock: BEQFEK_clean_sbu_0, # of connection points: 5
#     Node 9, Type 0, BuildingBlock: BEQFEK_clean_sbu_0, # of connection points: 5
#     Node 10, Type 0, BuildingBlock: BEQFEK_clean_sbu_0, # of connection points: 5
#     Node 11, Type 0, BuildingBlock: BEQFEK_clean_sbu_0, # of connection points: 5
#     Node 12, Type 0, BuildingBlock: BEQFEK_clean_sbu_0, # of connection points: 5
#     Node 13, Type 0, BuildingBlock: BEQFEK_clean_sbu_0, # of connection points: 5
#     Node 14, Type 0, BuildingBlock: BEQFEK_clean_sbu_0, # of connection points: 5
#     Node 15, Type 0, BuildingBlock: BEQFEK_clean_sbu_0, # of connection points: 5
#     Node 16, Type 0, BuildingBlock: BEQFEK_clean_sbu_0, # of connection points: 5
#     Node 17, Type 0, BuildingBlock: BEQFEK_clean_sbu_0, # of connection points: 5
#     Node 18, Type 0, BuildingBlock: BEQFEK_clean_sbu_0, # of connection points: 5
#     Node 19, Type 0, BuildingBlock: BEQFEK_clean_sbu_0, # of connection points: 5
#     Node 20, Type 0, BuildingBlock: BEQFEK_clean_sbu_0, # of connection points: 5
#     Node 21, Type 0, BuildingBlock: BEQFEK_clean_sbu_0, # of connection points: 5
#     Node 22, Type 0, BuildingBlock: BEQFEK_clean_sbu_0, # of connection points: 5
#     Node 23, Type 0, BuildingBlock: BEQFEK_clean_sbu_0, # of connection points: 5
#     Node 24, Type 0, BuildingBlock: BEQFEK_clean_sbu_0, # of connection points: 5
#     Node 25, Type 0, BuildingBlock: BEQFEK_clean_sbu_0, # of connection points: 5
#     Node 26, Type 0, BuildingBlock: BEQFEK_clean_sbu_0, # of connection points: 5
#     Node 27, Type 0, BuildingBlock: BEQFEK_clean_sbu_0, # of connection points: 5
#     Node 28, Type 0, BuildingBlock: BEQFEK_clean_sbu_0, # of connection points: 5
#     Node 29, Type 0, BuildingBlock: BEQFEK_clean_sbu_0, # of connection points: 5
#     Node 30, Type 0, BuildingBlock: BEQFEK_clean_sbu_0, # of connection points: 5
#     Node 31, Type 0, BuildingBlock: BEQFEK_clean_sbu_0, # of connection points: 5
#     Node 32, Type 0, BuildingBlock: BEQFEK_clean_sbu_0, # of connection points: 5
#     Node 33, Type 0, BuildingBlock: BEQFEK_clean_sbu_0, # of connection points: 5
#     Node 34, Type 0, BuildingBlock: BEQFEK_clean_sbu_0, # of connection points: 5
#     Node 35, Type 0, BuildingBlock: BEQFEK_clean_sbu_0, # of connection points: 5
#     Edge 36, Type (0, 0), BuildingBlock: EZIPEK_clean_linker_0, # of connection points: 2
#     Edge 37, Type (0, 0), BuildingBlock: EZIPEK_clean_linker_0, # of connection points: 2
#     Edge 38, Type (0, 0), BuildingBlock: EZIPEK_clean_linker_0, # of connection points: 2
#     Edge 39, Type (0, 0), BuildingBlock: EZIPEK_clean_linker_0, # of connection points: 2
#     Edge 40, Type (0, 0), BuildingBlock: EZIPEK_clean_linker_0, # of connection points: 2
#     Edge 41, Type (0, 0), BuildingBlock: EZIPEK_clean_linker_0, # of connection points: 2
#     Edge 42, Type (0, 0), BuildingBlock: EZIPEK_clean_linker_0, # of connection points: 2
#     Edge 43, Type (0, 0), BuildingBlock: EZIPEK_clean_linker_0, # of connection points: 2
#     Edge 44, Type (0, 0), BuildingBlock: EZIPEK_clean_linker_0, # of connection points: 2
#     Edge 45, Type (0, 0), BuildingBlock: EZIPEK_clean_linker_0, # of connection points: 2
#     Edge 46, Type (0, 0), BuildingBlock: EZIPEK_clean_linker_0, # of connection points: 2
#     Edge 47, Type (0, 0), BuildingBlock: EZIPEK_clean_linker_0, # of connection points: 2
#     Edge 48, Type (0, 0), BuildingBlock: EZIPEK_clean_linker_0, # of connection points: 2
#     Edge 49, Type (0, 0), BuildingBlock: EZIPEK_clean_linker_0, # of connection points: 2
#     Edge 50, Type (0, 0), BuildingBlock: EZIPEK_clean_linker_0, # of connection points: 2
#     Edge 51, Type (0, 0), BuildingBlock: EZIPEK_clean_linker_0, # of connection points: 2
#     Edge 52, Type (0, 0), BuildingBlock: EZIPEK_clean_linker_0, # of connection points: 2
#     Edge 53, Type (0, 0), BuildingBlock: EZIPEK_clean_linker_0, # of connection points: 2
#     Edge 54, Type (0, 0), BuildingBlock: EZIPEK_clean_linker_0, # of connection points: 2
#     Edge 55, Type (0, 0), BuildingBlock: EZIPEK_clean_linker_0, # of connection points: 2
#     Edge 56, Type (0, 0), BuildingBlock: EZIPEK_clean_linker_0, # of connection points: 2
#     Edge 57, Type (0, 0), BuildingBlock: EZIPEK_clean_linker_0, # of connection points: 2
#     Edge 58, Type (0, 0), BuildingBlock: EZIPEK_clean_linker_0, # of connection points: 2
#     Edge 59, Type (0, 0), BuildingBlock: EZIPEK_clean_linker_0, # of connection points: 2
#     Edge 60, Type (0, 0), BuildingBlock: EZIPEK_clean_linker_0, # of connection points: 2
#     Edge 61, Type (0, 0), BuildingBlock: EZIPEK_clean_linker_0, # of connection points: 2
#     Edge 62, Type (0, 0), BuildingBlock: EZIPEK_clean_linker_0, # of connection points: 2
#     Edge 63, Type (0, 0), BuildingBlock: EZIPEK_clean_linker_0, # of connection points: 2
#     Edge 64, Type (0, 0), BuildingBlock: EZIPEK_clean_linker_0, # of connection points: 2
#     Edge 65, Type (0, 0), BuildingBlock: EZIPEK_clean_linker_0, # of connection points: 2
#     Edge 66, Type (0, 0), BuildingBlock: EZIPEK_clean_linker_0, # of connection points: 2
#     Edge 67, Type (0, 0), BuildingBlock: EZIPEK_clean_linker_0, # of connection points: 2
#     Edge 68, Type (0, 0), BuildingBlock: EZIPEK_clean_linker_0, # of connection points: 2
#     Edge 69, Type (0, 0), BuildingBlock: EZIPEK_clean_linker_0, # of connection points: 2
#     Edge 70, Type (0, 0), BuildingBlock: EZIPEK_clean_linker_0, # of connection points: 2
#     Edge 71, Type (0, 0), BuildingBlock: EZIPEK_clean_linker_0, # of connection points: 2
#     Edge 72, Type (0, 0), BuildingBlock: EZIPEK_clean_linker_0, # of connection points: 2
#     Edge 73, Type (0, 0), BuildingBlock: EZIPEK_clean_linker_0, # of connection points: 2
#     Edge 74, Type (0, 0), BuildingBlock: EZIPEK_clean_linker_0, # of connection points: 2
#     Edge 75, Type (0, 0), BuildingBlock: EZIPEK_clean_linker_0, # of connection points: 2
#     Edge 76, Type (0, 0), BuildingBlock: EZIPEK_clean_linker_0, # of connection points: 2
#     Edge 77, Type (0, 0), BuildingBlock: EZIPEK_clean_linker_0, # of connection points: 2
#     Edge 78, Type (0, 0), BuildingBlock: EZIPEK_clean_linker_0, # of connection points: 2
#     Edge 79, Type (0, 0), BuildingBlock: EZIPEK_clean_linker_0, # of connection points: 2
#     Edge 80, Type (0, 0), BuildingBlock: EZIPEK_clean_linker_0, # of connection points: 2
#     Edge 81, Type (0, 0), BuildingBlock: EZIPEK_clean_linker_0, # of connection points: 2
#     Edge 82, Type (0, 0), BuildingBlock: EZIPEK_clean_linker_0, # of connection points: 2
#     Edge 83, Type (0, 0), BuildingBlock: EZIPEK_clean_linker_0, # of connection points: 2
#     Edge 84, Type (0, 0), BuildingBlock: EZIPEK_clean_linker_0, # of connection points: 2
#     Edge 85, Type (0, 0), BuildingBlock: EZIPEK_clean_linker_0, # of connection points: 2
#     Edge 86, Type (0, 0), BuildingBlock: EZIPEK_clean_linker_0, # of connection points: 2
#     Edge 87, Type (0, 0), BuildingBlock: EZIPEK_clean_linker_0, # of connection points: 2
#     Edge 88, Type (0, 0), BuildingBlock: EZIPEK_clean_linker_0, # of connection points: 2
#     Edge 89, Type (0, 0), BuildingBlock: EZIPEK_clean_linker_0, # of connection points: 2
#     Edge 90, Type (0, 0), BuildingBlock: EZIPEK_clean_linker_0, # of connection points: 2
#     Edge 91, Type (0, 0), BuildingBlock: EZIPEK_clean_linker_0, # of connection points: 2
#     Edge 92, Type (0, 0), BuildingBlock: EZIPEK_clean_linker_0, # of connection points: 2
#     Edge 93, Type (0, 0), BuildingBlock: EZIPEK_clean_linker_0, # of connection points: 2
#     Edge 94, Type (0, 0), BuildingBlock: EZIPEK_clean_linker_0, # of connection points: 2
#     Edge 95, Type (0, 0), BuildingBlock: EZIPEK_clean_linker_0, # of connection points: 2
#     Edge 96, Type (0, 0), BuildingBlock: EZIPEK_clean_linker_0, # of connection points: 2
#     Edge 97, Type (0, 0), BuildingBlock: EZIPEK_clean_linker_0, # of connection points: 2
#     Edge 98, Type (0, 0), BuildingBlock: EZIPEK_clean_linker_0, # of connection points: 2
#     Edge 99, Type (0, 0), BuildingBlock: EZIPEK_clean_linker_0, # of connection points: 2
#     Edge 100, Type (0, 0), BuildingBlock: EZIPEK_clean_linker_0, # of connection points: 2
#     Edge 101, Type (0, 0), BuildingBlock: EZIPEK_clean_linker_0, # of connection points: 2
#     Edge 102, Type (0, 0), BuildingBlock: EZIPEK_clean_linker_0, # of connection points: 2
#     Edge 103, Type (0, 0), BuildingBlock: EZIPEK_clean_linker_0, # of connection points: 2
#     Edge 104, Type (0, 0), BuildingBlock: EZIPEK_clean_linker_0, # of connection points: 2
#     Edge 105, Type (0, 0), BuildingBlock: EZIPEK_clean_linker_0, # of connection points: 2
#     Edge 106, Type (0, 0), BuildingBlock: EZIPEK_clean_linker_0, # of connection points: 2
#     Edge 107, Type (0, 0), BuildingBlock: EZIPEK_clean_linker_0, # of connection points: 2
#     Edge 108, Type (0, 0), BuildingBlock: EZIPEK_clean_linker_0, # of connection points: 2
#     Edge 109, Type (0, 0), BuildingBlock: EZIPEK_clean_linker_0, # of connection points: 2
#     Edge 110, Type (0, 0), BuildingBlock: EZIPEK_clean_linker_0, # of connection points: 2
#     Edge 111, Type (0, 0), BuildingBlock: EZIPEK_clean_linker_0, # of connection points: 2
#     Edge 112, Type (0, 0), BuildingBlock: EZIPEK_clean_linker_0, # of connection points: 2
#     Edge 113, Type (0, 0), BuildingBlock: EZIPEK_clean_linker_0, # of connection points: 2
#     Edge 114, Type (0, 0), BuildingBlock: EZIPEK_clean_linker_0, # of connection points: 2
#     Edge 115, Type (0, 0), BuildingBlock: EZIPEK_clean_linker_0, # of connection points: 2
#     Edge 116, Type (0, 0), BuildingBlock: EZIPEK_clean_linker_0, # of connection points: 2
#     Edge 117, Type (0, 0), BuildingBlock: EZIPEK_clean_linker_0, # of connection points: 2
#     Edge 118, Type (0, 0), BuildingBlock: EZIPEK_clean_linker_0, # of connection points: 2
#     Edge 119, Type (0, 0), BuildingBlock: EZIPEK_clean_linker_0, # of connection points: 2
#     Edge 120, Type (0, 0), BuildingBlock: EZIPEK_clean_linker_0, # of connection points: 2
#     Edge 121, Type (0, 0), BuildingBlock: EZIPEK_clean_linker_0, # of connection points: 2
#     Edge 122, Type (0, 0), BuildingBlock: EZIPEK_clean_linker_0, # of connection points: 2
#     Edge 123, Type (0, 0), BuildingBlock: EZIPEK_clean_linker_0, # of connection points: 2
#     Edge 124, Type (0, 0), BuildingBlock: EZIPEK_clean_linker_0, # of connection points: 2
#     Edge 125, Type (0, 0), BuildingBlock: EZIPEK_clean_linker_0, # of connection points: 2
# Relax obj value: 0.146
# Max RMSD: 0.152
# Mean RMSD: 0.152
data_MOF--net-wlq--node1-BEQFEK_clean_sbu_0--edge1-EZIPEK_clean_linker_0
_symmetry_space_group_name_H-M    P1
_symmetry_Int_Tables_number       1
_symmetry_cell_setting            triclinic
loop_
_symmetry_equiv_pos_as_xyz
'x, y, z'
_cell_length_a     55.304715
_cell_length_b     55.309008
_cell_length_c     30.185599
_cell_angle_alpha  89.942836
_cell_angle_beta   90.033006
_cell_angle_gamma 119.97246
loop_
_atom_site_label
_atom_site_type_symbol
_atom_site_fract_x
_atom_site_fract_y
_atom_site_fract_z
_atom_type_partial_charge
Co0 Co 0.2193 0.19637 0.95002 0.0
Co1 Co 0.23883 0.21303 0.04882 0.0
C2 C 0.27876 0.23937 0.97574 0.0
O3 O 0.25906 0.22439 0.94922 0.0
O4 O 0.27482 0.23858 0.01756 0.0
C5 C 0.21345 0.21447 0.86686 0.0
O6 O 0.22244 0.23782 0.88916 0.0
C7 C 0.25466 0.2391 0.13974 0.0
C8 C 0.22681 0.2018 0.17949 0.0
C9 C 0.24595 0.22994 0.18292 0.0
N10 N 0.24075 0.21722 0.11213 0.0
N11 N 0.22441 0.19505 0.13638 0.0
C12 C 0.27568 0.26786 0.1249 0.0
H13 H 0.26706 0.27424 0.09692 0.0
H14 H 0.28183 0.28309 0.15246 0.0
H15 H 0.29444 0.26765 0.11243 0.0
C16 C 0.1752 0.20789 0.97926 0.0
N17 N 0.19909 0.2076 0.98623 0.0
N18 N 0.20802 0.21627 0.02675 0.0
C19 C 0.19029 0.22308 0.04636 0.0
C20 C 0.16901 0.21793 0.01688 0.0
C21 C 0.15757 0.19677 0.93868 0.0
H22 H 0.15759 0.17769 0.92751 0.0
H23 H 0.16646 0.21266 0.91202 0.0
H24 H 0.13581 0.19185 0.94489 0.0
O25 O 0.21585 0.16139 0.97083 0.0
O26 O 0.23138 0.174 0.03969 0.0
H27 H 0.18898 0.21598 0.11606 0.0
H28 H 0.17771 0.24025 0.10005 0.0
C29 C 0.19285 0.23313 0.09294 0.0
H30 H 0.21434 0.2506 0.09839 0.0
H31 H 0.21107 0.1753 0.12329 0.0
O32 O 0.2082 0.19235 0.88743 0.0
C33 C 0.2225 0.15613 0.00842 0.0
Co34 Co 0.807 0.02268 0.95517 0.0
Co35 Co 0.79226 0.02501 0.0545 0.0
C36 C 0.76307 0.03729 0.98557 0.0
O37 O 0.77866 0.03442 0.95774 0.0
O38 O 0.76415 0.0329 0.02683 0.0
C39 C 0.78487 0.99874 0.8741 0.0
O40 O 0.76222 0.98622 0.89849 0.0
C41 C 0.76818 0.01419 0.14633 0.0
C42 C 0.80613 0.02351 0.18413 0.0
C43 C 0.77796 0.01417 0.18882 0.0
N44 N 0.78968 0.02264 0.11781 0.0
N45 N 0.81227 0.02843 0.14085 0.0
C46 C 0.73915 0.00642 0.13298 0.0
H47 H 0.73294 0.99292 0.10314 0.0
H48 H 0.72411 0.99571 0.16035 0.0
H49 H 0.73876 0.02568 0.12396 0.0
C50 C 0.79729 0.96709 0.98355 0.0
N51 N 0.79754 0.99124 0.99092 0.0
N52 N 0.78949 0.99142 0.03191 0.0
C53 C 0.78289 0.96685 0.05122 0.0
C54 C 0.78769 0.95082 0.02122 0.0
C55 C 0.80748 0.95996 0.94249 0.0
H56 H 0.8176 0.97795 0.91963 0.0
H57 H 0.78966 0.942 0.92598 0.0
H58 H 0.82267 0.95322 0.95149 0.0
O59 O 0.84266 0.0542 0.97356 0.0
O60 O 0.83051 0.05779 0.04249 0.0
H61 H 0.78935 0.97198 0.1211 0.0
H62 H 0.76545 0.93659 0.10425 0.0
C63 C 0.77246 0.95886 0.09753 0.0
H64 H 0.7548 0.96263 0.10268 0.0
H65 H 0.83185 0.03513 0.1268 0.0
O66 O 0.80818 0.01502 0.89217 0.0
C67 C 0.84809 0.06658 0.01073 0.0
Co68 Co 0.97397 0.78029 0.95048 0.0
Co69 Co 0.97359 0.76597 0.05105 0.0
C70 C 0.96072 0.72299 0.98458 0.0
O71 O 0.96286 0.74054 0.95552 0.0
O72 O 0.9656 0.72954 0.0254 0.0
C73 C 0.99657 0.77996 0.86922 0.0
O74 O 0.00922 0.77023 0.89424 0.0
C75 C 0.98695 0.75402 0.14177 0.0
C76 C 0.97703 0.78159 0.18123 0.0
C77 C 0.98729 0.76342 0.18461 0.0
N78 N 0.97737 0.76658 0.11427 0.0
N79 N 0.9713 0.78281 0.13829 0.0
C80 C 0.99541 0.73349 0.12717 0.0
H81 H 0.00745 0.74067 0.09582 0.0
H82 H 0.00786 0.73039 0.15307 0.0
H83 H 0.97634 0.7132 0.1204 0.0
C84 C 0.02959 0.82729 0.97526 0.0
N85 N 0.00588 0.80333 0.98444 0.0
N86 N 0.00653 0.79634 0.02597 0.0
C87 C 0.03122 0.81519 0.04385 0.0
C88 C 0.04643 0.83527 0.01231 0.0
C89 C 0.03549 0.84371 0.93336 0.0
H90 H 0.01713 0.83485 0.9112 0.0
H91 H 0.05356 0.8443 0.91646 0.0
H92 H 0.04157 0.86562 0.94135 0.0
O93 O 0.94261 0.78455 0.96937 0.0
O94 O 0.9404 0.77099 0.03953 0.0
H95 H 0.02653 0.81823 0.11348 0.0
H96 H 0.06205 0.8306 0.09621 0.0
C97 C 0.03992 0.81451 0.09044 0.0
H98 H 0.03713 0.7936 0.0973 0.0
H99 H 0.96369 0.79518 0.12515 0.0
O100 O 0.98061 0.78758 0.88684 0.0
C101 C 0.931 0.77879 0.0072 0.0
Co102 Co 0.19435 0.22108 0.59136 0.0
Co103 Co 0.21078 0.23817 0.49187 0.0
C104 C 0.23949 0.27906 0.56257 0.0
O105 O 0.22347 0.26075 0.59029 0.0
O106 O 0.23852 0.27368 0.52128 0.0
C107 C 0.21201 0.21543 0.67522 0.0
O108 O 0.23517 0.22316 0.65298 0.0
C109 C 0.23727 0.25283 0.40155 0.0
C110 C 0.20018 0.22559 0.36101 0.0
C111 C 0.22847 0.24436 0.35823 0.0
N112 N 0.21507 0.23921 0.42866 0.0
N113 N 0.19302 0.2232 0.40398 0.0
C114 C 0.26602 0.27343 0.41697 0.0
H115 H 0.27166 0.26478 0.44581 0.0
H116 H 0.28157 0.27893 0.39003 0.0
H117 H 0.26622 0.29261 0.42829 0.0
C118 C 0.20383 0.17505 0.56471 0.0
N119 N 0.20416 0.19912 0.55637 0.0
N120 N 0.21251 0.20695 0.51533 0.0
C121 C 0.21863 0.18844 0.49687 0.0
C122 C 0.21324 0.16771 0.52757 0.0
C123 C 0.19274 0.15832 0.60616 0.0
H124 H 0.17398 0.15904 0.61708 0.0
H125 H 0.20884 0.1674 0.63245 0.0
H126 H 0.18726 0.13629 0.60101 0.0
O127 O 0.15962 0.21794 0.57031 0.0
O128 O 0.17241 0.233 0.50121 0.0
H129 H 0.21171 0.18621 0.42705 0.0
H130 H 0.2353 0.17438 0.44446 0.0
C131 C 0.2287 0.19004 0.45047 0.0
H132 H 0.24652 0.21124 0.44429 0.0
H133 H 0.17306 0.2102 0.41666 0.0
O134 O 0.19022 0.21102 0.65447 0.0
C135 C 0.15459 0.22461 0.5326 0.0
Co136 Co 0.78178 0.97471 0.60016 0.0
Co137 Co 0.76817 0.96995 0.49842 0.0
C138 C 0.72466 0.95907 0.56478 0.0
O139 O 0.74199 0.96277 0.59521 0.0
O140 O 0.73162 0.96226 0.524 0.0
C141 C 0.77906 0.99498 0.68364 0.0
O142 O 0.76342 0.00261 0.66183 0.0
C143 C 0.75518 0.98155 0.40754 0.0
C144 C 0.77991 0.96824 0.36748 0.0
C145 C 0.7631 0.98012 0.3643 0.0
N146 N 0.76741 0.97156 0.43495 0.0
N147 N 0.78185 0.96337 0.41061 0.0
C148 C 0.73635 0.99203 0.42272 0.0
H149 H 0.71731 0.97448 0.4376 0.0
H150 H 0.74693 0.00793 0.44899 0.0
H151 H 0.73027 0.001 0.39485 0.0
C152 C 0.82722 0.02998 0.57255 0.0
N153 N 0.80415 0.00544 0.56372 0.0
N154 N 0.79881 0.0037 0.52098 0.0
C155 C 0.81857 0.02723 0.50128 0.0
C156 C 0.83709 0.04465 0.5333 0.0
C157 C 0.83974 0.03883 0.61765 0.0
H158 H 0.82528 0.04216 0.63859 0.0
H159 H 0.86016 0.05847 0.61666 0.0
H160 H 0.84229 0.022 0.63295 0.0
O161 O 0.7864 0.94283 0.58442 0.0
O162 O 0.77383 0.93776 0.51333 0.0
H163 H 0.82095 0.0157 0.43458 0.0
H164 H 0.83884 0.05288 0.44368 0.0
C165 C 0.82019 0.03272 0.45264 0.0
H166 H 0.80117 0.0331 0.44251 0.0
H167 H 0.79357 0.95498 0.4236 0.0
O168 O 0.79078 0.98355 0.6631 0.0
C169 C 0.78144 0.9299 0.54776 0.0
Co170 Co 0.0226 0.7995 0.59588 0.0
Co171 Co 0.03056 0.79183 0.49474 0.0
C172 C 0.04146 0.75991 0.56284 0.0
O173 O 0.03612 0.77294 0.59223 0.0
O174 O 0.03959 0.76388 0.52162 0.0
C175 C 0.00107 0.77608 0.679 0.0
O176 O 0.9943 0.75284 0.65774 0.0
C177 C 0.02101 0.76849 0.40279 0.0
C178 C 0.03375 0.80699 0.36425 0.0
C179 C 0.02235 0.77843 0.35988 0.0
N180 N 0.03041 0.79022 0.43108 0.0
N181 N 0.03838 0.81315 0.40758 0.0
C182 C 0.01101 0.73907 0.41691 0.0
H183 H 0.02805 0.73812 0.43482 0.0
H184 H 0.99339 0.73237 0.44048 0.0
H185 H 0.00435 0.72472 0.38807 0.0
C186 C 0.96778 0.78862 0.56461 0.0
N187 N 0.99254 0.79018 0.55758 0.0
N188 N 0.99563 0.78737 0.515 0.0
C189 C 0.97284 0.78431 0.49356 0.0
C190 C 0.95442 0.7848 0.52428 0.0
C191 C 0.95788 0.79213 0.60893 0.0
H192 H 0.95544 0.77505 0.6309 0.0
H193 H 0.93759 0.79158 0.60681 0.0
H194 H 0.9738 0.81215 0.62385 0.0
O195 O 0.05376 0.83677 0.5816 0.0
O196 O 0.06121 0.8302 0.51119 0.0
H197 H 0.98673 0.80202 0.42932 0.0
H198 H 0.94932 0.78094 0.43412 0.0
C199 C 0.96948 0.78291 0.44443 0.0
H200 H 0.9706 0.76467 0.43236 0.0
H201 H 0.04618 0.83298 0.42133 0.0
O202 O 0.01234 0.79913 0.65821 0.0
C203 C 0.06757 0.84543 0.54578 0.0
Co204 Co 0.77406 0.79657 0.09451 0.0
Co205 Co 0.75808 0.78626 0.99336 0.0
C206 C 0.71593 0.75591 0.06364 0.0
O207 O 0.73398 0.7698 0.09297 0.0
O208 O 0.72223 0.75848 0.0226 0.0
C209 C 0.7737 0.77542 0.17937 0.0
O210 O 0.75801 0.75153 0.15923 0.0
C211 C 0.75144 0.76402 0.90032 0.0
C212 C 0.75162 0.79868 0.86374 0.0
C213 C 0.75113 0.77363 0.85784 0.0
N214 N 0.75289 0.78299 0.92989 0.0
N215 N 0.75217 0.8032 0.90756 0.0
C216 C 0.751 0.73757 0.91224 0.0
H217 H 0.75612 0.7375 0.94778 0.0
H218 H 0.76569 0.7347 0.89084 0.0
H219 H 0.72979 0.71969 0.90599 0.0
C220 C 0.81857 0.78621 0.06542 0.0
N221 N 0.79496 0.7867 0.05679 0.0
N222 N 0.7898 0.7836 0.01383 0.0
C223 C 0.81073 0.78169 0.99392 0.0
C224 C 0.82905 0.78262 0.02611 0.0
C225 C 0.83227 0.79179 0.10983 0.0
H226 H 0.83354 0.81079 0.12438 0.0
H227 H 0.81935 0.77396 0.13189 0.0
H228 H 0.85352 0.79448 0.1078 0.0
O229 O 0.77956 0.83331 0.07763 0.0
O230 O 0.76509 0.82452 0.0076 0.0
H231 H 0.80528 0.79311 0.92827 0.0
H232 H 0.83866 0.79576 0.93818 0.0
C233 C 0.81594 0.78332 0.94518 0.0
H234 H 0.8085 0.76204 0.93211 0.0
H235 H 0.7532 0.82078 0.92216 0.0
O236 O 0.78455 0.79799 0.15727 0.0
C237 C 0.77399 0.84078 0.04097 0.0
Co238 Co 0.19311 0.97671 0.09673 0.0
Co239 Co 0.21172 0.9751 0.99871 0.0
C240 C 0.23747 0.96155 0.07221 0.0
O241 O 0.22154 0.96548 0.09777 0.0
O242 O 0.2375 0.9651 0.03037 0.0
C243 C 0.21155 0.99961 0.17996 0.0
O244 O 0.23516 0.01271 0.15799 0.0
C245 C 0.23863 0.98627 0.90824 0.0
C246 C 0.20172 0.97751 0.86796 0.0
C247 C 0.22986 0.98637 0.86497 0.0
N248 N 0.21654 0.97814 0.93549 0.0
N249 N 0.19462 0.97274 0.91092 0.0
C250 C 0.26722 0.99363 0.92346 0.0
H251 H 0.27301 0.00733 0.95304 0.0
H252 H 0.28287 0.00398 0.89674 0.0
H253 H 0.26703 0.97424 0.93359 0.0
C254 C 0.2038 0.03213 0.06759 0.0
N255 N 0.20425 0.0083 0.06103 0.0
N256 N 0.21413 0.00867 0.02116 0.0
C257 C 0.22117 0.03336 0.00184 0.0
C258 C 0.21477 0.0488 0.03069 0.0
C259 C 0.19128 0.03834 0.10675 0.0
H260 H 0.17999 0.01988 0.1284 0.0
H261 H 0.20807 0.05596 0.1255 0.0
H262 H 0.17657 0.0452 0.09535 0.0
O263 O 0.15846 0.94538 0.07474 0.0
O264 O 0.17265 0.94321 0.00663 0.0
H265 H 0.21617 0.0292 0.93165 0.0
H266 H 0.24048 0.06414 0.94997 0.0
C267 C 0.23273 0.04165 0.95613 0.0
H268 H 0.25003 0.03725 0.95168 0.0
H269 H 0.17478 0.96631 0.92369 0.0
O270 O 0.18911 0.98353 0.15945 0.0
C271 C 0.15407 0.93391 0.03689 0.0
Co272 Co 0.02548 0.22335 0.09526 0.0
Co273 Co 0.02705 0.23833 0.9948 0.0
C274 C 0.03927 0.28096 0.06206 0.0
O275 O 0.0367 0.26314 0.09096 0.0
O276 O 0.03483 0.27467 0.02106 0.0
C277 C 0.00235 0.2229 0.17677 0.0
O278 O 0.99066 0.23402 0.1526 0.0
C279 C 0.01543 0.25066 0.90289 0.0
C280 C 0.02645 0.22338 0.8649 0.0
C281 C 0.01618 0.24146 0.86028 0.0
N282 N 0.02444 0.23807 0.93139 0.0
N283 N 0.0312 0.22203 0.90824 0.0
C284 C 0.00644 0.27097 0.91638 0.0
H285 H 0.99265 0.26293 0.94585 0.0
H286 H 0.9956 0.27504 0.88889 0.0
H287 H 0.02516 0.2909 0.92606 0.0
C288 C 0.9705 0.17622 0.06873 0.0
N289 N 0.99404 0.20048 0.06025 0.0
N290 N 0.99384 0.20756 0.01863 0.0
C291 C 0.9696 0.18838 0.99989 0.0
C292 C 0.95417 0.16801 0.03103 0.0
C293 C 0.96431 0.15996 0.11086 0.0
H294 H 0.94783 0.1616 0.12915 0.0
H295 H 0.956 0.13752 0.10344 0.0
H296 H 0.98319 0.16761 0.13168 0.0
O297 O 0.05718 0.21933 0.07727 0.0
O298 O 0.06002 0.23319 0.00721 0.0
H299 H 0.93974 0.17259 0.94616 0.0
H300 H 0.96435 0.2097 0.94532 0.0
C301 C 0.96168 0.1889 0.95276 0.0
H302 H 0.97565 0.18538 0.93071 0.0
H303 H 0.03859 0.2097 0.92223 0.0
O304 O 0.01795 0.21506 0.1585 0.0
C305 C 0.06917 0.2253 0.03973 0.0
Co306 Co 0.80127 0.77718 0.45209 0.0
Co307 Co 0.79281 0.75806 0.55197 0.0
C308 C 0.76083 0.71821 0.47957 0.0
O309 O 0.7742 0.73732 0.45143 0.0
O310 O 0.76475 0.72281 0.52105 0.0
C311 C 0.77858 0.77997 0.3703 0.0
O312 O 0.7552 0.76653 0.39276 0.0
C313 C 0.77079 0.74882 0.64503 0.0
C314 C 0.80524 0.74776 0.68023 0.0
C315 C 0.78027 0.74733 0.68707 0.0
N316 N 0.78976 0.75094 0.6149 0.0
N317 N 0.80986 0.74948 0.6363 0.0
C318 C 0.74444 0.74885 0.63404 0.0
H319 H 0.74477 0.75555 0.59928 0.0
H320 H 0.74122 0.76247 0.65741 0.0
H321 H 0.72654 0.72737 0.63805 0.0
C322 C 0.79049 0.82023 0.48818 0.0
N323 N 0.79179 0.79675 0.4934 0.0
N324 N 0.7899 0.79041 0.53591 0.0
C325 C 0.78842 0.81065 0.55894 0.0
C326 C 0.78796 0.82956 0.52929 0.0
C327 C 0.79295 0.83426 0.44479 0.0
H328 H 0.80962 0.83425 0.42446 0.0
H329 H 0.77281 0.82236 0.42722 0.0
H330 H 0.79742 0.85602 0.44913 0.0
O331 O 0.83832 0.78212 0.46613 0.0
O332 O 0.83101 0.76586 0.53528 0.0
H333 H 0.80483 0.8374 0.61574 0.0
H334 H 0.77126 0.80729 0.62349 0.0
C335 C 0.79194 0.81484 0.6079 0.0
H336 H 0.80221 0.80375 0.62174 0.0
H337 H 0.82743 0.75084 0.62107 0.0
O338 O 0.80176 0.78872 0.39006 0.0
C339 C 0.84655 0.77566 0.50122 0.0
Co340 Co 0.21826 0.0229 0.45574 0.0
Co341 Co 0.23743 0.0282 0.5556 0.0
C342 C 0.27713 0.03876 0.48233 0.0
O343 O 0.25767 0.03401 0.45538 0.0
O344 O 0.27311 0.03676 0.52419 0.0
C345 C 0.21664 0.00198 0.37083 0.0
O346 O 0.23238 0.99356 0.39032 0.0
C347 C 0.25322 0.01733 0.64593 0.0
C348 C 0.22953 0.03133 0.6872 0.0
C349 C 0.24623 0.01933 0.68966 0.0
N350 N 0.24053 0.02715 0.61907 0.0
N351 N 0.22676 0.03577 0.64421 0.0
C352 C 0.27153 0.00646 0.6298 0.0
H353 H 0.28942 0.02322 0.61136 0.0
H354 H 0.25968 0.98908 0.60621 0.0
H355 H 0.2794 0.9992 0.65769 0.0
C356 C 0.17398 0.96848 0.48696 0.0
N357 N 0.19784 0.99264 0.49371 0.0
N358 N 0.2055 0.9943 0.53543 0.0
C359 C 0.18636 0.97103 0.5566 0.0
C360 C 0.1659 0.9539 0.52652 0.0
C361 C 0.15893 0.96009 0.4436 0.0
H362 H 0.17209 0.957 0.41936 0.0
H363 H 0.13861 0.94045 0.44614 0.0
H364 H 0.15564 0.97711 0.43113 0.0
O365 O 0.2154 0.05536 0.47449 0.0
O366 O 0.23072 0.06002 0.54397 0.0
H367 H 0.1688 0.94551 0.61526 0.0
H368 H 0.20645 0.96582 0.6127 0.0
C369 C 0.18687 0.96577 0.60502 0.0
H370 H 0.18656 0.98272 0.62408 0.0
H371 H 0.21481 0.04407 0.63187 0.0
O372 O 0.20625 0.01393 0.3935 0.0
C373 C 0.22199 0.06823 0.51135 0.0
Co374 Co 0.97478 0.19696 0.44925 0.0
Co375 Co 0.97274 0.21079 0.54937 0.0
C376 C 0.9583 0.2391 0.48147 0.0
O377 O 0.9617 0.22398 0.45342 0.0
O378 O 0.96256 0.23781 0.52273 0.0
C379 C 0.99618 0.22022 0.36723 0.0
O380 O 0.00544 0.24312 0.39079 0.0
C381 C 0.98382 0.23481 0.64123 0.0
C382 C 0.97485 0.19698 0.6791 0.0
C383 C 0.98379 0.22507 0.68378 0.0
N384 N 0.97563 0.21335 0.61271 0.0
N385 N 0.97013 0.19085 0.63579 0.0
C386 C 0.99134 0.26376 0.62782 0.0
H387 H 0.97196 0.26404 0.61931 0.0
H388 H 0.0046 0.26994 0.59768 0.0
H389 H 0.00223 0.27888 0.65499 0.0
C390 C 0.03071 0.20827 0.47488 0.0
N391 N 0.00661 0.20769 0.48385 0.0
N392 N 0.00676 0.21522 0.52525 0.0
C393 C 0.03158 0.22168 0.54348 0.0
C394 C 0.04741 0.21747 0.51211 0.0
C395 C 0.03684 0.19825 0.43267 0.0
H396 H 0.04788 0.21617 0.40984 0.0
H397 H 0.05064 0.18937 0.43877 0.0
H398 H 0.01724 0.18229 0.4168 0.0
O399 O 0.94469 0.16045 0.46789 0.0
O400 O 0.94141 0.1716 0.53766 0.0
H401 H 0.06185 0.23724 0.59662 0.0
H402 H 0.03571 0.24781 0.59806 0.0
C403 C 0.03956 0.23043 0.59048 0.0
H404 H 0.02642 0.2127 0.61274 0.0
H405 H 0.96361 0.1713 0.62178 0.0
O406 O 0.98283 0.19659 0.38611 0.0
C407 C 0.93301 0.15419 0.50566 0.0
Co408 Co 0.88741 0.53024 0.28688 0.0
Co409 Co 0.90851 0.54515 0.38594 0.0
C410 C 0.9466 0.57288 0.30936 0.0
O411 O 0.92666 0.55822 0.28321 0.0
O412 O 0.94318 0.5712 0.35131 0.0
C413 C 0.88089 0.54824 0.20371 0.0
O414 O 0.89035 0.57174 0.22575 0.0
C415 C 0.9186 0.56962 0.47862 0.0
C416 C 0.92068 0.536 0.51475 0.0
C417 C 0.92061 0.56074 0.52096 0.0
N418 N 0.91658 0.55043 0.44894 0.0
N419 N 0.91875 0.53092 0.471 0.0
C420 C 0.91811 0.59565 0.46708 0.0
H421 H 0.91217 0.59536 0.43187 0.0
H422 H 0.90366 0.59825 0.48946 0.0
H423 H 0.93926 0.61387 0.47234 0.0
C424 C 0.84377 0.54104 0.31944 0.0
N425 N 0.86788 0.54111 0.32585 0.0
N426 N 0.87545 0.54659 0.36785 0.0
C427 C 0.85553 0.54945 0.38942 0.0
C428 C 0.83544 0.54673 0.3592 0.0
C429 C 0.82748 0.53274 0.27719 0.0
H430 H 0.82713 0.51396 0.26361 0.0
H431 H 0.8377 0.54995 0.25284 0.0
H432 H 0.80575 0.52824 0.28218 0.0
O433 O 0.88442 0.49499 0.30626 0.0
O434 O 0.90092 0.50647 0.37488 0.0
H435 H 0.83051 0.53802 0.44844 0.0
H436 H 0.86056 0.57211 0.44904 0.0
C437 C 0.85279 0.55026 0.43851 0.0
H438 H 0.86446 0.54151 0.45525 0.0
H439 H 0.91771 0.51334 0.4564 0.0
O440 O 0.87519 0.5261 0.22465 0.0
C441 C 0.89142 0.48907 0.34305 0.0
Co442 Co 0.47169 0.35442 0.2876 0.0
Co443 Co 0.45681 0.35706 0.38676 0.0
C444 C 0.42784 0.36925 0.31715 0.0
O445 O 0.44342 0.36624 0.28947 0.0
O446 O 0.42894 0.36508 0.35849 0.0
C447 C 0.45 0.33038 0.20633 0.0
O448 O 0.42724 0.31773 0.23044 0.0
C449 C 0.43235 0.34698 0.47822 0.0
C450 C 0.47008 0.35649 0.51681 0.0
C451 C 0.44193 0.34738 0.521 0.0
N452 N 0.45396 0.35502 0.45003 0.0
N453 N 0.47641 0.36092 0.47354 0.0
C454 C 0.40343 0.3392 0.46426 0.0
H455 H 0.40339 0.35825 0.45279 0.0
H456 H 0.39694 0.32457 0.43582 0.0
H457 H 0.3884 0.32971 0.49202 0.0
C458 C 0.46195 0.29894 0.31664 0.0
N459 N 0.46202 0.32304 0.32365 0.0
N460 N 0.45402 0.32337 0.36463 0.0
C461 C 0.44766 0.29897 0.38431 0.0
C462 C 0.45254 0.28287 0.35453 0.0
C463 C 0.47222 0.29175 0.27574 0.0
H464 H 0.45447 0.27366 0.25936 0.0
H465 H 0.48755 0.2852 0.28487 0.0
H466 H 0.48224 0.30965 0.2527 0.0
O467 O 0.50739 0.3858 0.30622 0.0
O468 O 0.4952 0.38956 0.37505 0.0
H469 H 0.43076 0.26912 0.43798 0.0
H470 H 0.42002 0.2951 0.43637 0.0
C471 C 0.43765 0.29133 0.4309 0.0
H472 H 0.45475 0.30467 0.45402 0.0
H473 H 0.49604 0.36742 0.45983 0.0
O474 O 0.4732 0.34672 0.22468 0.0
C475 C 0.51285 0.39816 0.3434 0.0
Co476 Co 0.64438 0.11315 0.2839 0.0
Co477 Co 0.63593 0.09632 0.38497 0.0
C478 C 0.62682 0.055 0.31478 0.0
O479 O 0.63142 0.07313 0.28533 0.0
O480 O 0.62929 0.06097 0.35592 0.0
C481 C 0.66515 0.1122 0.19945 0.0
O482 O 0.67057 0.09427 0.21915 0.0
C483 C 0.65052 0.08787 0.47709 0.0
C484 C 0.61714 0.0894 0.51486 0.0
C485 C 0.64094 0.08734 0.51986 0.0
N486 N 0.63348 0.09074 0.44825 0.0
N487 N 0.61323 0.09096 0.4712 0.0
C488 C 0.67586 0.08644 0.46417 0.0
H489 H 0.6814 0.09263 0.42901 0.0
H490 H 0.69359 0.09984 0.48631 0.0
H491 H 0.67144 0.06467 0.46834 0.0
C492 C 0.69865 0.15686 0.31655 0.0
N493 N 0.67396 0.13364 0.32365 0.0
N494 N 0.67043 0.12832 0.36651 0.0
C495 C 0.69271 0.14888 0.38796 0.0
C496 C 0.71141 0.16707 0.35689 0.0
C497 C 0.70883 0.17012 0.27221 0.0
H498 H 0.69279 0.17374 0.25641 0.0
H499 H 0.71198 0.15566 0.25096 0.0
H500 H 0.72878 0.19019 0.27469 0.0
O501 O 0.6123 0.11784 0.29852 0.0
O502 O 0.60444 0.10249 0.36827 0.0
H503 H 0.67392 0.14346 0.45202 0.0
H504 H 0.70597 0.17613 0.44448 0.0
C505 C 0.69491 0.15346 0.43689 0.0
H506 H 0.70736 0.14475 0.45136 0.0
H507 H 0.59722 0.0932 0.45714 0.0
O508 O 0.65517 0.12469 0.22171 0.0
C509 C 0.59801 0.11156 0.334 0.0
Co510 Co 0.86335 0.55492 0.92782 0.0
Co511 Co 0.87784 0.5754 0.82841 0.0
C512 C 0.90567 0.61399 0.90445 0.0
O513 O 0.89125 0.59422 0.93103 0.0
O514 O 0.90378 0.61028 0.86258 0.0
C515 C 0.88109 0.54908 0.01173 0.0
O516 O 0.90487 0.55913 0.99029 0.0
C517 C 0.90256 0.58529 0.73593 0.0
C518 C 0.86919 0.58759 0.69941 0.0
C519 C 0.89391 0.58743 0.69349 0.0
N520 N 0.88327 0.58332 0.7654 0.0
N521 N 0.86392 0.58562 0.74311 0.0
C522 C 0.92849 0.58469 0.74779 0.0
H523 H 0.92806 0.57877 0.78305 0.0
H524 H 0.93109 0.57017 0.72557 0.0
H525 H 0.94679 0.60579 0.74257 0.0
C526 C 0.87487 0.51157 0.89616 0.0
N527 N 0.87441 0.53537 0.88922 0.0
N528 N 0.8796 0.5426 0.84705 0.0
C529 C 0.88273 0.52272 0.82589 0.0
C530 C 0.88057 0.50307 0.85657 0.0
C531 C 0.86709 0.4957 0.93882 0.0
H532 H 0.84789 0.49463 0.95202 0.0
H533 H 0.88417 0.5067 0.96313 0.0
H534 H 0.86349 0.47423 0.93454 0.0
O535 O 0.82802 0.55171 0.90829 0.0
O536 O 0.83908 0.56773 0.83934 0.0
H537 H 0.87083 0.49717 0.76751 0.0
H538 H 0.90499 0.52706 0.76604 0.0
C539 C 0.88324 0.51953 0.77686 0.0
H540 H 0.87448 0.53114 0.75987 0.0
H541 H 0.84632 0.58466 0.75752 0.0
O542 O 0.85901 0.54285 0.99019 0.0
C543 C 0.82185 0.5584 0.87143 0.0
Co544 Co 0.44603 0.30728 0.93172 0.0
Co545 Co 0.43169 0.30444 0.83072 0.0
C546 C 0.38846 0.29207 0.89764 0.0
O547 O 0.40603 0.29521 0.92739 0.0
O548 O 0.3951 0.29599 0.85674 0.0
C549 C 0.44385 0.32686 0.01585 0.0
O550 O 0.42837 0.33493 0.99461 0.0
C551 C 0.41836 0.31583 0.73973 0.0
C552 C 0.44541 0.30519 0.70027 0.0
C553 C 0.42708 0.31524 0.69673 0.0
N554 N 0.43147 0.30697 0.76742 0.0
N555 N 0.44736 0.30043 0.74343 0.0
C556 C 0.39801 0.32451 0.75437 0.0
H557 H 0.40668 0.33891 0.78303 0.0
H558 H 0.39287 0.33462 0.72701 0.0
H559 H 0.37859 0.30578 0.7657 0.0
C560 C 0.49123 0.36301 0.90574 0.0
N561 N 0.46801 0.33871 0.89647 0.0
N562 N 0.46169 0.33822 0.85431 0.0
C563 C 0.48053 0.36266 0.83569 0.0
C564 C 0.49976 0.37905 0.86767 0.0
C565 C 0.50562 0.37014 0.94967 0.0
H566 H 0.49395 0.37614 0.97267 0.0
H567 H 0.52733 0.38783 0.947 0.0
H568 H 0.50574 0.35164 0.96362 0.0
O569 O 0.45134 0.27622 0.91418 0.0
O570 O 0.43812 0.27233 0.84361 0.0
H571 H 0.49735 0.39168 0.78084 0.0
H572 H 0.46013 0.3677 0.77975 0.0
C573 C 0.48067 0.36999 0.78804 0.0
H574 H 0.48389 0.3554 0.76709 0.0
H575 H 0.45999 0.29317 0.75669 0.0
O576 O 0.45524 0.31534 0.99472 0.0
C577 C 0.44627 0.26401 0.87688 0.0
Co578 Co 0.69249 0.13397 0.92395 0.0
Co579 Co 0.70115 0.12198 0.82452 0.0
C580 C 0.71139 0.09332 0.90021 0.0
O581 O 0.70546 0.10726 0.92681 0.0
O582 O 0.70989 0.09558 0.85834 0.0
C583 C 0.67135 0.11422 0.00875 0.0
O584 O 0.66538 0.09044 0.99008 0.0
C585 C 0.68661 0.09912 0.73149 0.0
C586 C 0.72321 0.13206 0.69616 0.0
C587 C 0.6976 0.10831 0.68935 0.0
N588 N 0.70442 0.11731 0.76165 0.0
N589 N 0.72664 0.13636 0.74011 0.0
C590 C 0.65943 0.07369 0.74245 0.0
H591 H 0.65362 0.07408 0.77751 0.0
H592 H 0.64282 0.0718 0.71964 0.0
H593 H 0.66155 0.05497 0.73742 0.0
C594 C 0.63827 0.12207 0.89001 0.0
N595 N 0.66274 0.12289 0.88385 0.0
N596 N 0.66616 0.11969 0.84139 0.0
C597 C 0.64406 0.11806 0.81919 0.0
C598 C 0.62552 0.11862 0.84947 0.0
C599 C 0.62872 0.12746 0.93328 0.0
H600 H 0.6452 0.14759 0.94709 0.0
H601 H 0.6253 0.11071 0.95675 0.0
H602 H 0.60903 0.12804 0.92982 0.0
O603 O 0.72439 0.17033 0.90632 0.0
O604 O 0.73142 0.16072 0.83749 0.0
H605 H 0.66335 0.12971 0.75518 0.0
H606 H 0.63408 0.13506 0.76277 0.0
C607 C 0.64247 0.12098 0.77027 0.0
H608 H 0.62775 0.10036 0.75579 0.0
H609 H 0.74367 0.15322 0.75525 0.0
O610 O 0.68176 0.13638 0.98559 0.0
C611 C 0.73809 0.17742 0.87018 0.0
Co612 Co 0.44332 0.12975 0.42355 0.0
Co613 Co 0.42453 0.11929 0.32336 0.0
C614 C 0.3846 0.08876 0.39686 0.0
O615 O 0.40341 0.10272 0.42515 0.0
O616 O 0.38975 0.09141 0.35538 0.0
C617 C 0.44572 0.11075 0.50929 0.0
O618 O 0.42878 0.08632 0.49161 0.0
C619 C 0.41685 0.09708 0.22998 0.0
C620 C 0.41346 0.13024 0.19478 0.0
C621 C 0.41501 0.10632 0.18788 0.0
N622 N 0.41737 0.1153 0.26022 0.0
N623 N 0.41443 0.13453 0.23874 0.0
C624 C 0.41858 0.07161 0.24085 0.0
H625 H 0.42462 0.07188 0.27598 0.0
H626 H 0.43344 0.06987 0.21823 0.0
H627 H 0.39779 0.0529 0.23545 0.0
C628 C 0.48674 0.11902 0.39013 0.0
N629 N 0.46307 0.11977 0.38356 0.0
N630 N 0.45717 0.11739 0.34085 0.0
C631 C 0.47792 0.11618 0.31897 0.0
C632 C 0.49668 0.1164 0.34961 0.0
C633 C 0.50075 0.12307 0.43403 0.0
H634 H 0.50428 0.14286 0.44909 0.0
H635 H 0.48681 0.1057 0.45617 0.0
H636 H 0.52097 0.12351 0.43109 0.0
O637 O 0.44775 0.16618 0.40709 0.0
O638 O 0.43136 0.15741 0.33807 0.0
H639 H 0.50535 0.13367 0.26319 0.0
H640 H 0.47694 0.0991 0.25519 0.0
C641 C 0.48282 0.1196 0.27015 0.0
H642 H 0.47083 0.12854 0.25507 0.0
H643 H 0.41437 0.15143 0.25396 0.0
O644 O 0.45622 0.13252 0.48523 0.0
C645 C 0.44105 0.17361 0.37142 0.0
Co646 Co 0.86265 0.30921 0.43103 0.0
Co647 Co 0.87503 0.30604 0.3304 0.0
C648 C 0.90553 0.29411 0.39837 0.0
O649 O 0.89087 0.29759 0.42723 0.0
O650 O 0.90296 0.29736 0.35711 0.0
C651 C 0.88554 0.33212 0.51274 0.0
O652 O 0.90854 0.34287 0.48911 0.0
C653 C 0.89906 0.31716 0.23854 0.0
C654 C 0.86115 0.30756 0.20046 0.0
C655 C 0.88938 0.31716 0.19595 0.0
N656 N 0.87745 0.30846 0.26693 0.0
N657 N 0.85488 0.30252 0.24371 0.0
C658 C 0.92812 0.32518 0.25212 0.0
H659 H 0.92863 0.30605 0.26163 0.0
H660 H 0.93422 0.33887 0.28172 0.0
H661 H 0.94317 0.33578 0.22473 0.0
C662 C 0.87211 0.36444 0.40313 0.0
N663 N 0.87172 0.34031 0.39513 0.0
N664 N 0.87875 0.3399 0.35357 0.0
C665 C 0.88476 0.36432 0.33438 0.0
C666 C 0.88069 0.38047 0.36516 0.0
C667 C 0.86294 0.3716 0.44525 0.0
H668 H 0.84981 0.35265 0.46516 0.0
H669 H 0.88164 0.38624 0.46449 0.0
H670 H 0.85103 0.3824 0.43793 0.0
O671 O 0.8266 0.27783 0.4138 0.0
O672 O 0.83634 0.27415 0.34336 0.0
H673 H 0.87633 0.35838 0.26501 0.0
H674 H 0.90011 0.39411 0.28052 0.0
C675 C 0.89375 0.372 0.28742 0.0
H676 H 0.91156 0.36867 0.28088 0.0
H677 H 0.83523 0.29561 0.25761 0.0
O678 O 0.86207 0.31741 0.494 0.0
C679 C 0.8197 0.26573 0.37641 0.0
Co680 Co 0.69064 0.55183 0.43233 0.0
Co681 Co 0.69429 0.56718 0.33152 0.0
C682 C 0.70573 0.60966 0.39901 0.0
O683 O 0.70239 0.59175 0.42824 0.0
O684 O 0.70233 0.60356 0.35789 0.0
C685 C 0.66824 0.55256 0.51436 0.0
O686 O 0.65875 0.56617 0.49116 0.0
C687 C 0.68355 0.58082 0.2402 0.0
C688 C 0.69434 0.55381 0.20097 0.0
C689 C 0.68426 0.57212 0.19721 0.0
N690 N 0.69231 0.56769 0.26807 0.0
N691 N 0.69896 0.55184 0.24419 0.0
C692 C 0.6748 0.60114 0.25469 0.0
H693 H 0.65984 0.59218 0.28262 0.0
H694 H 0.66531 0.60675 0.22699 0.0
H695 H 0.69338 0.62031 0.26707 0.0
C696 C 0.63581 0.50594 0.40445 0.0
N697 N 0.6598 0.52974 0.39618 0.0
N698 N 0.66045 0.53667 0.35428 0.0
C699 C 0.63632 0.51772 0.33495 0.0
C700 C 0.62006 0.49776 0.36613 0.0
C701 C 0.62872 0.49053 0.44751 0.0
H702 H 0.61855 0.49889 0.4693 0.0
H703 H 0.61397 0.46793 0.44256 0.0
H704 H 0.64792 0.49345 0.46399 0.0
O705 O 0.72222 0.54723 0.41567 0.0
O706 O 0.72666 0.56126 0.3454 0.0
H707 H 0.60746 0.50169 0.27989 0.0
H708 H 0.63166 0.53888 0.27977 0.0
C709 C 0.62919 0.51819 0.2874 0.0
H710 H 0.64375 0.51505 0.26621 0.0
H711 H 0.70615 0.53918 0.25759 0.0
O712 O 0.68187 0.5427 0.4952 0.0
C713 C 0.73485 0.55296 0.37868 0.0
Co714 Co 0.47469 0.11522 0.78248 0.0
Co715 Co 0.46393 0.09571 0.88258 0.0
C716 C 0.43373 0.05621 0.8083 0.0
O717 O 0.44678 0.07576 0.7807 0.0
O718 O 0.4373 0.06042 0.84995 0.0
C719 C 0.45401 0.11909 0.69976 0.0
O720 O 0.43039 0.10684 0.72181 0.0
C721 C 0.43945 0.085 0.97455 0.0
C722 C 0.47421 0.08608 0.01213 0.0
C723 C 0.44838 0.08403 0.0173 0.0
N724 N 0.45952 0.08836 0.94564 0.0
N725 N 0.47982 0.08816 0.96851 0.0
C726 C 0.41256 0.08339 0.96178 0.0
H727 H 0.4132 0.08987 0.92678 0.0
H728 H 0.40795 0.09639 0.98437 0.0
H729 H 0.39539 0.0615 0.96542 0.0
C730 C 0.46347 0.15845 0.8169 0.0
N731 N 0.46494 0.1351 0.8228 0.0
N732 N 0.46113 0.12804 0.86513 0.0
C733 C 0.45784 0.14751 0.88729 0.0
C734 C 0.45855 0.16679 0.85721 0.0
C735 C 0.46764 0.17328 0.7738 0.0
H736 H 0.48325 0.17149 0.75328 0.0
H737 H 0.44736 0.16354 0.75623 0.0
H738 H 0.47452 0.19567 0.77898 0.0
O739 O 0.51063 0.11822 0.79866 0.0
O740 O 0.50252 0.10362 0.86868 0.0
H741 H 0.46811 0.13988 0.9523 0.0
H742 H 0.46876 0.17261 0.9462 0.0
C743 C 0.45772 0.15027 0.93646 0.0
H744 H 0.43591 0.14102 0.9482 0.0
H745 H 0.49816 0.09063 0.9545 0.0
O746 O 0.47685 0.12698 0.72015 0.0
C747 C 0.51837 0.11229 0.83478 0.0
Co748 Co 0.88709 0.35917 0.78513 0.0
Co749 Co 0.90269 0.36259 0.88577 0.0
C750 C 0.94517 0.3746 0.81804 0.0
O751 O 0.92713 0.37121 0.78903 0.0
O752 O 0.93913 0.37085 0.85919 0.0
C753 C 0.88776 0.33673 0.70332 0.0
O754 O 0.90079 0.32675 0.72685 0.0
C755 C 0.91553 0.35123 0.97747 0.0
C756 C 0.88815 0.36187 0.01598 0.0
C757 C 0.90627 0.3516 0.0202 0.0
N758 N 0.9029 0.36038 0.94928 0.0
N759 N 0.88683 0.36694 0.97275 0.0
C760 C 0.93594 0.34245 0.96358 0.0
H761 H 0.92848 0.32966 0.933 0.0
H762 H 0.93937 0.33069 0.9903 0.0
H763 H 0.95614 0.36137 0.95564 0.0
C764 C 0.84152 0.30387 0.81303 0.0
N765 N 0.86508 0.32813 0.82119 0.0
N766 N 0.87232 0.32872 0.8629 0.0
C767 C 0.85392 0.30429 0.88209 0.0
C768 C 0.83393 0.28793 0.85113 0.0
C769 C 0.82581 0.29639 0.77028 0.0
H770 H 0.83002 0.31542 0.75179 0.0
H771 H 0.83241 0.28402 0.75004 0.0
H772 H 0.80304 0.28328 0.77637 0.0
O773 O 0.88229 0.39053 0.80207 0.0
O774 O 0.89659 0.39491 0.87216 0.0
H775 H 0.85241 0.31082 0.9515 0.0
H776 H 0.83907 0.27476 0.93635 0.0
C777 C 0.85531 0.29663 0.92904 0.0
H778 H 0.87619 0.29916 0.93506 0.0
H779 H 0.87439 0.3743 0.95904 0.0
O780 O 0.87819 0.35071 0.7222 0.0
C781 C 0.88813 0.40311 0.83909 0.0
Co782 Co 0.64083 0.52828 0.78734 0.0
Co783 Co 0.63941 0.54349 0.88696 0.0
C784 C 0.6265 0.57227 0.81794 0.0
O785 O 0.62917 0.55659 0.7901 0.0
O786 O 0.63093 0.57122 0.85921 0.0
C787 C 0.66318 0.5498 0.705 0.0
O788 O 0.67477 0.57295 0.72827 0.0
C789 C 0.65106 0.56777 0.97888 0.0
C790 C 0.64142 0.52968 0.01655 0.0
C791 C 0.651 0.55788 0.02133 0.0
N792 N 0.64233 0.54627 0.95029 0.0
N793 N 0.6364 0.52362 0.97329 0.0
C794 C 0.65914 0.5969 0.96566 0.0
H795 H 0.63991 0.59784 0.95886 0.0
H796 H 0.67153 0.60259 0.9346 0.0
H797 H 0.67109 0.612 0.99234 0.0
C798 C 0.6965 0.53815 0.81422 0.0
N799 N 0.67254 0.53812 0.82229 0.0
N800 N 0.67279 0.5463 0.86334 0.0
C801 C 0.69748 0.55276 0.882 0.0
C802 C 0.7131 0.54772 0.85148 0.0
C803 C 0.70297 0.52755 0.77297 0.0
H804 H 0.68421 0.51597 0.75198 0.0
H805 H 0.71956 0.54542 0.75436 0.0
H806 H 0.7113 0.5136 0.78173 0.0
O807 O 0.60978 0.49265 0.80689 0.0
O808 O 0.60687 0.50502 0.876 0.0
H809 H 0.69283 0.54592 0.95185 0.0
H810 H 0.72813 0.56984 0.93448 0.0
C811 C 0.70582 0.56293 0.92835 0.0
H812 H 0.70214 0.58059 0.93421 0.0
H813 H 0.62946 0.50401 0.9592 0.0
O814 O 0.64805 0.52657 0.72421 0.0
C815 C 0.59793 0.48729 0.84451 0.0
Co816 Co 0.55558 0.86254 0.61825 0.0
Co817 Co 0.57629 0.87646 0.71783 0.0
C818 C 0.61465 0.90483 0.64149 0.0
O819 O 0.59492 0.89057 0.61476 0.0
O820 O 0.61095 0.90258 0.68336 0.0
C821 C 0.54874 0.88062 0.53493 0.0
O822 O 0.55875 0.90426 0.55674 0.0
C823 C 0.58641 0.90099 0.81053 0.0
C824 C 0.58862 0.86748 0.84675 0.0
C825 C 0.58845 0.89218 0.85293 0.0
N826 N 0.58442 0.88178 0.78089 0.0
N827 N 0.58669 0.86235 0.803 0.0
C828 C 0.58595 0.92702 0.79888 0.0
H829 H 0.57992 0.92665 0.76371 0.0
H830 H 0.57161 0.92974 0.82135 0.0
H831 H 0.60714 0.94522 0.80391 0.0
C832 C 0.5121 0.87356 0.65142 0.0
N833 N 0.53599 0.87317 0.65774 0.0
N834 N 0.54343 0.87824 0.69985 0.0
C835 C 0.52366 0.88131 0.72151 0.0
C836 C 0.50383 0.87918 0.69128 0.0
C837 C 0.49579 0.86559 0.60922 0.0
H838 H 0.49499 0.84659 0.5957 0.0
H839 H 0.50626 0.88276 0.58487 0.0
H840 H 0.4742 0.86152 0.61434 0.0
O841 O 0.55282 0.82723 0.63707 0.0
O842 O 0.56863 0.83771 0.7062 0.0
H843 H 0.49845 0.86948 0.78033 0.0
H844 H 0.52844 0.90356 0.78153 0.0
C845 C 0.52076 0.8818 0.77062 0.0
H846 H 0.53236 0.87292 0.78722 0.0
H847 H 0.58568 0.84477 0.78844 0.0
O848 O 0.54308 0.85852 0.55599 0.0
C849 C 0.55949 0.82078 0.67371 0.0
Co850 Co 0.14074 0.69344 0.61607 0.0
Co851 Co 0.12495 0.69417 0.71547 0.0
C852 C 0.09605 0.70691 0.64648 0.0
O853 O 0.11205 0.70459 0.61886 0.0
O854 O 0.0972 0.70275 0.68781 0.0
C855 C 0.11882 0.67048 0.53462 0.0
O856 O 0.09611 0.65833 0.55896 0.0
C857 C 0.10015 0.68224 0.807 0.0
C858 C 0.13799 0.69175 0.84528 0.0
C859 C 0.10979 0.68232 0.84963 0.0
N860 N 0.12181 0.6909 0.77873 0.0
N861 N 0.14431 0.69673 0.80207 0.0
C862 C 0.07112 0.67423 0.79334 0.0
H863 H 0.06582 0.66249 0.76167 0.0
H864 H 0.05579 0.66167 0.81942 0.0
H865 H 0.07007 0.6935 0.78761 0.0
C866 C 0.13104 0.63767 0.64229 0.0
N867 N 0.13089 0.66152 0.65058 0.0
N868 N 0.12224 0.66089 0.69144 0.0
C869 C 0.11562 0.63606 0.70972 0.0
C870 C 0.12104 0.62073 0.67913 0.0
C871 C 0.14256 0.63174 0.60159 0.0
H872 H 0.15262 0.65009 0.57944 0.0
H873 H 0.12553 0.61366 0.58401 0.0
H874 H 0.15817 0.62566 0.61122 0.0
O875 O 0.17636 0.72451 0.63605 0.0
O876 O 0.16361 0.7267 0.70521 0.0
H877 H 0.12206 0.64013 0.77967 0.0
H878 H 0.09806 0.60501 0.7616 0.0
C879 C 0.10514 0.6274 0.75587 0.0
H880 H 0.08755 0.6312 0.76177 0.0
H881 H 0.16399 0.70364 0.78828 0.0
O882 O 0.14222 0.68637 0.5528 0.0
C883 C 0.18158 0.73594 0.67401 0.0
Co884 Co 0.30712 0.44583 0.61947 0.0
Co885 Co 0.30504 0.42725 0.71872 0.0
C886 C 0.29183 0.3868 0.64722 0.0
O887 O 0.29604 0.40633 0.62071 0.0
O888 O 0.29507 0.39091 0.68897 0.0
C889 C 0.33052 0.44816 0.5377 0.0
O890 O 0.34277 0.43747 0.56152 0.0
C891 C 0.31678 0.4127 0.80959 0.0
C892 C 0.30674 0.44 0.8496 0.0
C893 C 0.31647 0.4214 0.85281 0.0
N894 N 0.30798 0.42604 0.78217 0.0
N895 N 0.30184 0.44208 0.80657 0.0
C896 C 0.32509 0.39214 0.79461 0.0
H897 H 0.33671 0.39913 0.76287 0.0
H898 H 0.33783 0.38916 0.82013 0.0
H899 H 0.30594 0.37179 0.7885 0.0
C900 C 0.36233 0.49102 0.64774 0.0
N901 N 0.33844 0.46695 0.65518 0.0
N902 N 0.33876 0.45815 0.69564 0.0
C903 C 0.3635 0.47608 0.71453 0.0
C904 C 0.37904 0.49734 0.6847 0.0
C905 C 0.36856 0.509 0.60756 0.0
H906 H 0.35002 0.5016 0.586 0.0
H907 H 0.38601 0.50928 0.58909 0.0
H908 H 0.37567 0.53082 0.61776 0.0
O909 O 0.27542 0.44915 0.6396 0.0
O910 O 0.27295 0.43414 0.70886 0.0
H911 H 0.35871 0.47702 0.78455 0.0
H912 H 0.39411 0.48893 0.76696 0.0
C913 C 0.37183 0.47352 0.76057 0.0
H914 H 0.36827 0.45214 0.76548 0.0
H915 H 0.29479 0.45496 0.79364 0.0
O916 O 0.31459 0.45544 0.55641 0.0
C917 C 0.26367 0.44266 0.67734 0.0
Co918 Co 0.5276 0.88734 0.25941 0.0
Co919 Co 0.54296 0.90706 0.15953 0.0
C920 C 0.57111 0.94589 0.23497 0.0
O921 O 0.55613 0.92647 0.26175 0.0
O922 O 0.56937 0.94192 0.19317 0.0
C923 C 0.54554 0.88109 0.34292 0.0
O924 O 0.56888 0.89003 0.3206 0.0
C925 C 0.56829 0.91657 0.06743 0.0
C926 C 0.53476 0.9178 0.02965 0.0
C927 C 0.55984 0.91825 0.02459 0.0
N928 N 0.5486 0.91433 0.09628 0.0
N929 N 0.52911 0.91595 0.07321 0.0
C930 C 0.59442 0.91663 0.08023 0.0
H931 H 0.59389 0.91112 0.11573 0.0
H932 H 0.59742 0.90205 0.05879 0.0
H933 H 0.61252 0.93781 0.07469 0.0
C934 C 0.53735 0.84267 0.22896 0.0
N935 N 0.53784 0.86688 0.22139 0.0
N936 N 0.54391 0.87406 0.17933 0.0
C937 C 0.54702 0.85392 0.15903 0.0
C938 C 0.54356 0.83397 0.1901 0.0
C939 C 0.52813 0.82657 0.27133 0.0
H940 H 0.50968 0.82715 0.28424 0.0
H941 H 0.54522 0.83624 0.29597 0.0
H942 H 0.5227 0.80453 0.2666 0.0
O943 O 0.49277 0.88495 0.23938 0.0
O944 O 0.50435 0.90021 0.17011 0.0
H945 H 0.53804 0.82897 0.10021 0.0
H946 H 0.57168 0.85964 0.10157 0.0
C947 C 0.54944 0.85125 0.11025 0.0
H948 H 0.54075 0.8625 0.09203 0.0
H949 H 0.51122 0.91466 0.08702 0.0
O950 O 0.52344 0.87578 0.3222 0.0
C951 C 0.487 0.89155 0.2021 0.0
Co952 Co 0.11269 0.64218 0.26122 0.0
Co953 Co 0.09799 0.63962 0.16035 0.0
C954 C 0.05507 0.6275 0.22739 0.0
O955 O 0.07278 0.63052 0.25681 0.0
O956 O 0.06152 0.63155 0.1864 0.0
C957 C 0.11174 0.66365 0.34422 0.0
O958 O 0.09743 0.6727 0.32194 0.0
C959 C 0.08497 0.65031 0.06847 0.0
C960 C 0.11321 0.64058 0.03048 0.0
C961 C 0.09434 0.64989 0.02585 0.0
N962 N 0.09821 0.64204 0.09697 0.0
N963 N 0.11482 0.63605 0.07384 0.0
C964 C 0.0639 0.65829 0.08198 0.0
H965 H 0.04471 0.63933 0.09335 0.0
H966 H 0.07203 0.67295 0.11039 0.0
H967 H 0.05857 0.66784 0.05404 0.0
C968 C 0.15852 0.69756 0.23472 0.0
N969 N 0.13503 0.67343 0.22575 0.0
N970 N 0.12824 0.67324 0.1839 0.0
C971 C 0.14689 0.6978 0.16535 0.0
C972 C 0.16657 0.71388 0.19697 0.0
C973 C 0.17376 0.70438 0.2779 0.0
H974 H 0.1652 0.71425 0.29994 0.0
H975 H 0.19634 0.71933 0.27317 0.0
H976 H 0.17098 0.68512 0.29396 0.0
O977 O 0.11716 0.61062 0.24392 0.0
O978 O 0.10377 0.60712 0.17351 0.0
H979 H 0.16221 0.72767 0.11157 0.0
H980 H 0.1253 0.70231 0.11048 0.0
C981 C 0.1463 0.70558 0.11815 0.0
H982 H 0.15034 0.69191 0.09624 0.0
H983 H 0.12771 0.62933 0.08784 0.0
O984 O 0.12183 0.65049 0.32421 0.0
C985 C 0.11163 0.59838 0.20661 0.0
Co986 Co 0.35777 0.46684 0.2633 0.0
Co987 Co 0.36035 0.45189 0.16336 0.0
C988 C 0.37457 0.42457 0.23429 0.0
O989 O 0.37001 0.43925 0.26163 0.0
O990 O 0.37114 0.42585 0.19264 0.0
C991 C 0.33646 0.44626 0.34716 0.0
O992 O 0.32735 0.42249 0.32613 0.0
C993 C 0.34926 0.42687 0.07154 0.0
C994 C 0.35876 0.46464 0.03308 0.0
C995 C 0.34948 0.43647 0.02873 0.0
N996 N 0.35763 0.4485 0.09982 0.0
N997 N 0.36347 0.47096 0.07632 0.0
C998 C 0.34135 0.39789 0.08541 0.0
H999 H 0.36029 0.39777 0.09722 0.0
H1000 H 0.32654 0.39136 0.11364 0.0
H1001 H 0.33199 0.38295 0.05753 0.0
C1002 C 0.30256 0.45627 0.23587 0.0
N1003 N 0.32642 0.45622 0.22771 0.0
N1004 N 0.32633 0.44815 0.18666 0.0
C1005 C 0.30173 0.442 0.16786 0.0
C1006 C 0.28602 0.44697 0.1985 0.0
C1007 C 0.29661 0.46706 0.27743 0.0
H1008 H 0.31622 0.48433 0.29134 0.0
H1009 H 0.28726 0.44995 0.30202 0.0
H1010 H 0.28159 0.47445 0.27126 0.0
O1011 O 0.38883 0.5025 0.24357 0.0
O1012 O 0.39168 0.4911 0.17382 0.0
H1013 H 0.30722 0.4505 0.09848 0.0
H1014 H 0.27167 0.42629 0.11447 0.0
C1015 C 0.29389 0.43296 0.12093 0.0
H1016 H 0.29759 0.41542 0.11392 0.0
H1017 H 0.37016 0.49061 0.09002 0.0
O1018 O 0.34957 0.4691 0.32599 0.0
C1019 C 0.40052 0.50853 0.20577 0.0
Co1020 Co 0.11328 0.47261 0.7624 0.0
Co1021 Co 0.09419 0.45472 0.66342 0.0
C1022 C 0.05397 0.42898 0.73646 0.0
O1023 O 0.07353 0.44446 0.76286 0.0
O1024 O 0.05804 0.42931 0.6947 0.0
C1025 C 0.11982 0.45563 0.8464 0.0
O1026 O 0.11155 0.43223 0.82456 0.0
C1027 C 0.07924 0.42801 0.57242 0.0
C1028 C 0.10753 0.46513 0.53272 0.0
C1029 C 0.08838 0.43699 0.52928 0.0
N1030 N 0.09288 0.44999 0.6 0.0
N1031 N 0.10951 0.47203 0.57573 0.0
C1032 C 0.05802 0.39931 0.58719 0.0
H1033 H 0.03866 0.39933 0.59679 0.0
H1034 H 0.06573 0.39347 0.617 0.0
H1035 H 0.05307 0.3838 0.56039 0.0
C1036 C 0.15758 0.46096 0.73511 0.0
N1037 N 0.13366 0.46102 0.72733 0.0
N1038 N 0.12485 0.45173 0.68697 0.0
C1039 C 0.14266 0.44464 0.66843 0.0
C1040 C 0.16387 0.45032 0.69836 0.0
C1041 C 0.17532 0.4731 0.77536 0.0
H1042 H 0.17464 0.49196 0.7858 0.0
H1043 H 0.16708 0.45754 0.80255 0.0
H1044 H 0.19727 0.47868 0.76897 0.0
O1045 O 0.11707 0.50738 0.73996 0.0
O1046 O 0.10177 0.49399 0.67117 0.0
H1047 H 0.14461 0.45078 0.59842 0.0
H1048 H 0.15522 0.42635 0.61645 0.0
C1049 C 0.14026 0.43387 0.62234 0.0
H1050 H 0.1187 0.41655 0.61679 0.0
H1051 H 0.12274 0.49183 0.58875 0.0
O1052 O 0.12415 0.4773 0.82534 0.0
C1053 C 0.11069 0.51227 0.70188 0.0
Co1054 Co 0.52787 0.64047 0.75857 0.0
Co1055 Co 0.54384 0.63712 0.65933 0.0
C1056 C 0.57097 0.62416 0.73201 0.0
O1057 O 0.55572 0.62854 0.75839 0.0
O1058 O 0.57017 0.62731 0.69017 0.0
C1059 C 0.54659 0.65955 0.84406 0.0
O1060 O 0.57052 0.66576 0.82566 0.0
C1061 C 0.56971 0.64875 0.56803 0.0
C1062 C 0.5319 0.63785 0.52866 0.0
C1063 C 0.56032 0.64827 0.52497 0.0
N1064 N 0.5477 0.63946 0.59581 0.0
N1065 N 0.52524 0.63276 0.57175 0.0
C1066 C 0.59883 0.6577 0.58255 0.0
H1067 H 0.60371 0.67005 0.61354 0.0
H1068 H 0.6142 0.66991 0.55631 0.0
H1069 H 0.60033 0.63883 0.58998 0.0
C1070 C 0.53894 0.69552 0.72948 0.0
N1071 N 0.53852 0.67136 0.72199 0.0
N1072 N 0.54687 0.67111 0.68125 0.0
C1073 C 0.55357 0.69572 0.66194 0.0
C1074 C 0.54871 0.7118 0.6919 0.0
C1075 C 0.52901 0.70232 0.77117 0.0
H1076 H 0.51002 0.68352 0.78349 0.0
H1077 H 0.54547 0.70891 0.79673 0.0
H1078 H 0.52447 0.71952 0.76591 0.0
O1079 O 0.49272 0.60891 0.7388 0.0
O1080 O 0.5048 0.60533 0.6698 0.0
H1081 H 0.54738 0.68967 0.59211 0.0
H1082 H 0.56993 0.72558 0.60824 0.0
C1083 C 0.56391 0.70361 0.61558 0.0
H1084 H 0.58225 0.70085 0.61103 0.0
H1085 H 0.50533 0.62534 0.58498 0.0
O1086 O 0.52458 0.64927 0.82065 0.0
C1087 C 0.48717 0.59663 0.70152 0.0
Co1088 Co 0.3614 0.88753 0.76732 0.0
Co1089 Co 0.36388 0.90233 0.66648 0.0
C1090 C 0.37707 0.94551 0.73306 0.0
O1091 O 0.37391 0.92774 0.76248 0.0
O1092 O 0.37245 0.93891 0.69223 0.0
C1093 C 0.33771 0.88774 0.84798 0.0
O1094 O 0.32616 0.89854 0.82275 0.0
C1095 C 0.35257 0.91552 0.57514 0.0
C1096 C 0.36241 0.88774 0.53611 0.0
C1097 C 0.3527 0.90634 0.53227 0.0
N1098 N 0.36131 0.90239 0.60304 0.0
N1099 N 0.36741 0.88608 0.57927 0.0
C1100 C 0.34439 0.93631 0.58944 0.0
H1101 H 0.33071 0.92839 0.61904 0.0
H1102 H 0.33372 0.94094 0.56236 0.0
H1103 H 0.36346 0.95591 0.59919 0.0
C1104 C 0.30577 0.84126 0.74008 0.0
N1105 N 0.32984 0.86513 0.73195 0.0
N1106 N 0.33017 0.8723 0.69023 0.0
C1107 C 0.30582 0.85369 0.67114 0.0
C1108 C 0.28976 0.83352 0.70206 0.0
C1109 C 0.29873 0.82474 0.78205 0.0
H1110 H 0.31676 0.83305 0.80487 0.0
H1111 H 0.2808 0.82491 0.79812 0.0
H1112 H 0.29199 0.80264 0.77434 0.0
O1113 O 0.39244 0.88224 0.74992 0.0
O1114 O 0.39609 0.89604 0.67962 0.0
H1115 H 0.27622 0.83871 0.61699 0.0
H1116 H 0.30127 0.87567 0.61706 0.0
C1117 C 0.29822 0.85468 0.624 0.0
H1118 H 0.3121 0.85104 0.60194 0.0
H1119 H 0.37444 0.87331 0.59271 0.0
O1120 O 0.35344 0.87972 0.83073 0.0
C1121 C 0.40458 0.88773 0.7125 0.0
Co1122 Co 0.14084 0.44803 0.12089 0.0
Co1123 Co 0.1233 0.42794 0.21959 0.0
C1124 C 0.09596 0.38897 0.1456 0.0
O1125 O 0.11165 0.40873 0.11965 0.0
O1126 O 0.09677 0.39248 0.18755 0.0
C1127 C 0.12317 0.45489 0.03806 0.0
O1128 O 0.10004 0.44648 0.06075 0.0
C1129 C 0.09644 0.41246 0.31034 0.0
C1130 C 0.13382 0.43892 0.35082 0.0
C1131 C 0.10542 0.42069 0.35378 0.0
N1132 N 0.11867 0.42576 0.28309 0.0
N1133 N 0.14086 0.44126 0.30781 0.0
C1134 C 0.06751 0.39237 0.29496 0.0
H1135 H 0.06247 0.40081 0.26519 0.0
H1136 H 0.05196 0.38791 0.32153 0.0
H1137 H 0.06655 0.37258 0.28513 0.0
C1138 C 0.13078 0.49293 0.1506 0.0
N1139 N 0.13057 0.4688 0.1575 0.0
N1140 N 0.12148 0.45971 0.19784 0.0
C1141 C 0.11487 0.47762 0.21734 0.0
C1142 C 0.12058 0.49915 0.188 0.0
C1143 C 0.14208 0.51055 0.11001 0.0
H1144 H 0.16059 0.50969 0.09811 0.0
H1145 H 0.1259 0.50232 0.08377 0.0
H1146 H 0.14796 0.53255 0.11663 0.0
O1147 O 0.17514 0.44996 0.14177 0.0
O1148 O 0.16199 0.43397 0.21037 0.0
H1149 H 0.12042 0.47745 0.2873 0.0
H1150 H 0.09759 0.49039 0.27063 0.0
C1151 C 0.10399 0.4747 0.26345 0.0
H1152 H 0.08584 0.45346 0.26771 0.0
H1153 H 0.16087 0.45403 0.29512 0.0
O1154 O 0.14519 0.45946 0.05826 0.0
C1155 C 0.17995 0.44263 0.17914 0.0
Co1156 Co 0.54743 0.68948 0.11728 0.0
Co1157 Co 0.56684 0.69317 0.21636 0.0
C1158 C 0.60689 0.7058 0.14406 0.0
O1159 O 0.58731 0.70143 0.11751 0.0
O1160 O 0.60284 0.70274 0.18584 0.0
C1161 C 0.54682 0.6681 0.03423 0.0
O1162 O 0.56236 0.66019 0.05568 0.0
C1163 C 0.58288 0.68254 0.30658 0.0
C1164 C 0.55536 0.69174 0.34759 0.0
C1165 C 0.57443 0.68256 0.35007 0.0
N1166 N 0.56889 0.69086 0.27973 0.0
N1167 N 0.55274 0.69655 0.30471 0.0
C1168 C 0.60378 0.67489 0.29072 0.0
H1169 H 0.59506 0.66031 0.26229 0.0
H1170 H 0.60998 0.66539 0.31764 0.0
H1171 H 0.62255 0.69399 0.2786 0.0
C1172 C 0.50343 0.63441 0.14697 0.0
N1173 N 0.52715 0.65865 0.15411 0.0
N1174 N 0.53598 0.65903 0.19475 0.0
C1175 C 0.51836 0.6344 0.21425 0.0
C1176 C 0.49729 0.61817 0.18454 0.0
C1177 C 0.48618 0.62744 0.10581 0.0
H1178 H 0.48834 0.64665 0.09051 0.0
H1179 H 0.49348 0.61728 0.08197 0.0
H1180 H 0.46386 0.61266 0.1131 0.0
O1181 O 0.54362 0.72107 0.13657 0.0
O1182 O 0.55952 0.72494 0.20556 0.0
H1183 H 0.51783 0.6401 0.2841 0.0
H1184 H 0.50583 0.60448 0.26773 0.0
C1185 C 0.52117 0.62667 0.26057 0.0
H1186 H 0.54258 0.6303 0.2653 0.0
H1187 H 0.53938 0.70315 0.29228 0.0
O1188 O 0.53603 0.68036 0.05499 0.0
C1189 C 0.55041 0.73347 0.17377 0.0
Co1190 Co 0.30692 0.86531 0.12121 0.0
Co1191 Co 0.30566 0.87834 0.22216 0.0
C1192 C 0.29266 0.90856 0.15536 0.0
O1193 O 0.29535 0.8936 0.12609 0.0
O1194 O 0.29709 0.90649 0.19632 0.0
C1195 C 0.32841 0.8877 0.03815 0.0
O1196 O 0.33786 0.91102 0.06062 0.0
C1197 C 0.31804 0.90185 0.31444 0.0
C1198 C 0.30812 0.86344 0.35137 0.0
C1199 C 0.3181 0.89169 0.35663 0.0
N1200 N 0.30887 0.88047 0.28553 0.0
N1201 N 0.30278 0.85762 0.30808 0.0
C1202 C 0.32643 0.93113 0.30173 0.0
H1203 H 0.30735 0.93224 0.29431 0.0
H1204 H 0.33923 0.93704 0.2711 0.0
H1205 H 0.33807 0.94597 0.32888 0.0
C1206 C 0.36222 0.87423 0.14643 0.0
N1207 N 0.33848 0.87432 0.15578 0.0
N1208 N 0.33893 0.88154 0.19744 0.0
C1209 C 0.36358 0.88726 0.21537 0.0
C1210 C 0.37897 0.88277 0.18361 0.0
C1211 C 0.36808 0.86438 0.10382 0.0
H1212 H 0.34836 0.84913 0.0874 0.0
H1213 H 0.37984 0.88254 0.08168 0.0
H1214 H 0.38118 0.85467 0.10968 0.0
O1215 O 0.2758 0.82936 0.13965 0.0
O1216 O 0.27318 0.83996 0.21002 0.0
H1217 H 0.35874 0.87874 0.28478 0.0
H1218 H 0.39426 0.90235 0.26793 0.0
C1219 C 0.37208 0.89617 0.26216 0.0
H1220 H 0.36901 0.91404 0.26957 0.0
H1221 H 0.2955 0.83804 0.29367 0.0
O1222 O 0.31474 0.86441 0.05796 0.0
C1223 C 0.26413 0.82302 0.17743 0.0
C1224 C 0.34078 0.25127 0.90643 0.0
C1225 C 0.3591 0.28028 0.91185 0.0
C1226 C 0.32423 0.28337 0.95847 0.0
C1227 C 0.30732 0.2539 0.95676 0.0
N1228 N 0.30219 0.20926 0.93669 0.0
N1229 N 0.36977 0.32409 0.94512 0.0
C1230 C 0.31629 0.23772 0.93263 0.0
C1231 C 0.35124 0.2964 0.93853 0.0
N1232 N 0.34683 0.23653 0.87644 0.0
N1233 N 0.31413 0.29889 0.97772 0.0
H1234 H 0.38889 0.33458 0.92864 0.0
H1235 H 0.3668 0.33631 0.96826 0.0
H1236 H 0.2946 0.28993 0.99295 0.0
H1237 H 0.32417 0.32057 0.97604 0.0
H1238 H 0.33275 0.21599 0.86759 0.0
H1239 H 0.36488 0.24546 0.8572 0.0
H1240 H 0.30951 0.19659 0.92405 0.0
H1241 H 0.2846 0.19837 0.95662 0.0
C1242 C 0.74819 0.0932 0.94745 0.0
C1243 C 0.72445 0.07799 0.9199 0.0
C1244 C 0.72424 0.03467 0.93857 0.0
C1245 C 0.74652 0.04976 0.96886 0.0
N1246 N 0.77592 0.0924 0.00875 0.0
N1247 N 0.68723 0.03382 0.89384 0.0
C1248 C 0.75715 0.07867 0.97558 0.0
C1249 C 0.71173 0.04855 0.91656 0.0
N1250 N 0.76309 0.12172 0.94515 0.0
N1251 N 0.71527 0.00715 0.93062 0.0
H1252 H 0.67779 0.04341 0.87699 0.0
H1253 H 0.67532 0.01213 0.8941 0.0
H1254 H 0.72267 0.99598 0.94841 0.0
H1255 H 0.7015 0.99578 0.90524 0.0
H1256 H 0.78228 0.13381 0.9607 0.0
H1257 H 0.75784 0.13325 0.92388 0.0
H1258 H 0.78205 0.11279 0.01815 0.0
H1259 H 0.78341 0.08274 0.02986 0.0
C1260 C 0.90544 0.65125 0.95025 0.0
C1261 C 0.92085 0.64242 0.92379 0.0
C1262 C 0.96391 0.68607 0.94078 0.0
C1263 C 0.94863 0.69368 0.96994 0.0
N1264 N 0.90596 0.68093 0.00941 0.0
N1265 N 0.96518 0.64926 0.89867 0.0
C1266 C 0.9198 0.67532 0.97713 0.0
C1267 C 0.95026 0.65925 0.92026 0.0
N1268 N 0.87691 0.63748 0.94781 0.0
N1269 N 0.99135 0.70468 0.93237 0.0
H1270 H 0.95575 0.62987 0.883 0.0
H1271 H 0.98688 0.65926 0.89886 0.0
H1272 H 0.00235 0.72365 0.94913 0.0
H1273 H 0.00282 0.70191 0.90756 0.0
H1274 H 0.86473 0.64476 0.96249 0.0
H1275 H 0.86545 0.62036 0.9272 0.0
H1276 H 0.88564 0.66675 0.01922 0.0
H1277 H 0.91551 0.69861 0.02942 0.0
C1278 C 0.24589 0.32647 0.57234 0.0
C1279 C 0.25626 0.30798 0.57926 0.0
C1280 C 0.29114 0.34139 0.63151 0.0
C1281 C 0.27863 0.35832 0.62795 0.0
N1282 N 0.23958 0.36308 0.60355 0.0
N1283 N 0.28684 0.29605 0.61846 0.0
C1284 C 0.25476 0.34976 0.60066 0.0
C1285 C 0.27834 0.31491 0.60986 0.0
N1286 N 0.22735 0.32176 0.53892 0.0
N1287 N 0.31568 0.35099 0.65406 0.0
H1288 H 0.27909 0.27728 0.60119 0.0
H1289 H 0.30043 0.29834 0.64412 0.0
H1290 H 0.32544 0.37014 0.67045 0.0
H1291 H 0.32734 0.34093 0.65396 0.0
H1292 H 0.22147 0.33623 0.52954 0.0
H1293 H 0.21989 0.30473 0.5176 0.0
H1294 H 0.22038 0.35592 0.58796 0.0
H1295 H 0.24449 0.37944 0.62548 0.0
C1296 C 0.6593 0.94928 0.62305 0.0
C1297 C 0.64314 0.91974 0.62241 0.0
C1298 C 0.67755 0.91748 0.57386 0.0
C1299 C 0.6951 0.94673 0.57816 0.0
N1300 N 0.70419 0.99069 0.6088 0.0
N1301 N 0.63897 0.87531 0.60395 0.0
C1302 C 0.68637 0.96273 0.60331 0.0
C1303 C 0.65278 0.90374 0.59943 0.0
N1304 N 0.64844 0.96441 0.64127 0.0
N1305 N 0.68464 0.9027 0.54558 0.0
H1306 H 0.62095 0.86431 0.62294 0.0
H1307 H 0.64673 0.86276 0.59248 0.0
H1308 H 0.70307 0.91169 0.52728 0.0
H1309 H 0.67116 0.88192 0.53725 0.0
H1310 H 0.65785 0.98602 0.63876 0.0
H1311 H 0.62893 0.9551 0.65659 0.0
H1312 H 0.7006 0.00303 0.63082 0.0
H1313 H 0.72336 0.00136 0.59249 0.0
C1314 C 0.09253 0.74847 0.62723 0.0
C1315 C 0.07933 0.71906 0.62954 0.0
C1316 C 0.04075 0.7153 0.58388 0.0
C1317 C 0.05553 0.74468 0.57848 0.0
N1318 N 0.09887 0.788 0.58405 0.0
N1319 N 0.0428 0.67397 0.60534 0.0
C1320 C 0.08248 0.76088 0.59689 0.0
C1321 C 0.05394 0.70224 0.60639 0.0
N1322 N 0.1145 0.76459 0.65444 0.0
N1323 N 0.01406 0.70008 0.56845 0.0
H1324 H 0.05127 0.66382 0.6233 0.0
H1325 H 0.02624 0.6609 0.58483 0.0
H1326 H 0.00444 0.70909 0.55047 0.0
H1327 H 0.00112 0.67897 0.57536 0.0
H1328 H 0.12351 0.7862 0.65661 0.0
H1329 H 0.12157 0.75599 0.6784 0.0
H1330 H 0.11967 0.80026 0.59355 0.0
H1331 H 0.09254 0.797 0.55958 0.0
C1332 C 0.67792 0.71665 0.10745 0.0
C1333 C 0.68649 0.7398 0.07845 0.0
C1334 C 0.64508 0.74257 0.09833 0.0
C1335 C 0.63533 0.71817 0.12479 0.0
N1336 N 0.64018 0.67934 0.14939 0.0
N1337 N 0.67552 0.77129 0.03948 0.0
C1338 C 0.65114 0.70446 0.12809 0.0
C1339 C 0.66909 0.75148 0.0715 0.0
N1340 N 0.69554 0.70653 0.11551 0.0
N1341 N 0.63222 0.75821 0.10067 0.0
H1342 H 0.69325 0.77907 0.01965 0.0
H1343 H 0.66193 0.77819 0.02965 0.0
H1344 H 0.61509 0.75304 0.12098 0.0
H1345 H 0.64024 0.77783 0.08618 0.0
H1346 H 0.69219 0.69206 0.14027 0.0
H1347 H 0.71433 0.71364 0.09849 0.0
H1348 H 0.64934 0.66685 0.14895 0.0
H1349 H 0.62077 0.66996 0.16502 0.0
C1350 C 0.25132 0.91439 0.14576 0.0
C1351 C 0.28043 0.92565 0.14056 0.0
C1352 C 0.28233 0.96201 0.09119 0.0
C1353 C 0.25276 0.94861 0.09244 0.0
N1354 N 0.20878 0.90848 0.11334 0.0
N1355 N 0.32383 0.95881 0.10621 0.0
C1356 C 0.23718 0.92387 0.11782 0.0
C1357 C 0.29602 0.94913 0.11262 0.0
N1358 N 0.23705 0.89441 0.17716 0.0
N1359 N 0.29731 0.9874 0.07098 0.0
H1360 H 0.33474 0.95097 0.12366 0.0
H1361 H 0.33573 0.97362 0.08233 0.0
H1362 H 0.28791 0.99725 0.05478 0.0
H1363 H 0.31895 0.99959 0.07287 0.0
H1364 H 0.21636 0.88759 0.18553 0.0
H1365 H 0.24655 0.88658 0.19798 0.0
H1366 H 0.19665 0.88877 0.12731 0.0
H1367 H 0.19756 0.91391 0.09173 0.0
C1368 C 0.08071 0.32817 0.07078 0.0
C1369 C 0.05172 0.31025 0.07721 0.0
C1370 C 0.05074 0.34451 0.12816 0.0
C1371 C 0.08026 0.36073 0.12549 0.0
N1372 N 0.12379 0.3644 0.10223 0.0
N1373 N 0.00905 0.29978 0.11442 0.0
C1374 C 0.09535 0.3516 0.09885 0.0
C1375 C 0.03668 0.31799 0.10666 0.0
N1376 N 0.09444 0.32274 0.0381 0.0
N1377 N 0.03613 0.35481 0.14983 0.0
H1378 H 0.99782 0.2811 0.097 0.0
H1379 H 0.99766 0.30257 0.13933 0.0
H1380 H 0.04581 0.374 0.16612 0.0
H1381 H 0.01446 0.34532 0.14908 0.0
H1382 H 0.11499 0.33672 0.02903 0.0
H1383 H 0.08464 0.30562 0.017 0.0
H1384 H 0.13561 0.35676 0.0873 0.0
H1385 H 0.1354 0.38088 0.12391 0.0
C1386 C 0.70218 0.64794 0.43804 0.0
C1387 C 0.71834 0.63893 0.41399 0.0
C1388 C 0.76116 0.6787 0.44185 0.0
C1389 C 0.74535 0.68935 0.46222 0.0
N1390 N 0.701 0.68612 0.47611 0.0
N1391 N 0.76306 0.6489 0.38517 0.0
C1392 C 0.71583 0.67453 0.45937 0.0
C1393 C 0.74779 0.65544 0.41323 0.0
N1394 N 0.67393 0.63089 0.44096 0.0
N1395 N 0.78886 0.69013 0.45162 0.0
H1396 H 0.75396 0.63209 0.36331 0.0
H1397 H 0.78445 0.66176 0.38038 0.0
H1398 H 0.7988 0.70608 0.47484 0.0
H1399 H 0.80101 0.6817 0.44096 0.0
H1400 H 0.66128 0.63476 0.46186 0.0
H1401 H 0.66332 0.61204 0.42377 0.0
H1402 H 0.67966 0.67776 0.47112 0.0
H1403 H 0.71049 0.7051 0.49306 0.0
C1404 C 0.32144 0.03777 0.46509 0.0
C1405 C 0.30559 0.05147 0.46314 0.0
C1406 C 0.33817 0.08465 0.40858 0.0
C1407 C 0.35558 0.0728 0.41365 0.0
N1408 N 0.36544 0.03965 0.44921 0.0
N1409 N 0.30218 0.09162 0.44096 0.0
C1410 C 0.34768 0.04979 0.44274 0.0
C1411 C 0.31489 0.07592 0.43702 0.0
N1412 N 0.31099 0.01287 0.48688 0.0
N1413 N 0.34382 0.10437 0.37672 0.0
H1414 H 0.28551 0.08643 0.46238 0.0
H1415 H 0.30993 0.11127 0.42667 0.0
H1416 H 0.36093 0.11196 0.35556 0.0
H1417 H 0.33007 0.11137 0.36838 0.0
H1418 H 0.32005 0.0003 0.48559 0.0
H1419 H 0.29214 0.00386 0.50414 0.0
H1420 H 0.36261 0.02522 0.47374 0.0
H1421 H 0.38382 0.0467 0.43106 0.0
C1422 C 0.94717 0.29784 0.43846 0.0
C1423 C 0.92213 0.28158 0.41415 0.0
C1424 C 0.91836 0.23901 0.44465 0.0
C1425 C 0.94488 0.25475 0.46478 0.0
N1426 N 0.98634 0.29908 0.47737 0.0
N1427 N 0.88745 0.23663 0.38619 0.0
C1428 C 0.95987 0.28425 0.46086 0.0
C1429 C 0.90895 0.25213 0.41458 0.0
N1430 N 0.95852 0.32613 0.44053 0.0
N1431 N 0.90164 0.21163 0.45591 0.0
H1432 H 0.88057 0.24567 0.36271 0.0
H1433 H 0.87862 0.21511 0.38266 0.0
H1434 H 0.90732 0.20218 0.48055 0.0
H1435 H 0.88108 0.19957 0.44512 0.0
H1436 H 0.97497 0.33888 0.46151 0.0
H1437 H 0.95048 0.33667 0.42257 0.0
H1438 H 0.99946 0.32031 0.47154 0.0
H1439 H 0.99571 0.28969 0.49497 0.0
C1440 C 0.99145 0.61746 0.29166 0.0
C1441 C 0.97487 0.58798 0.28941 0.0
C1442 C 0.00754 0.58647 0.23604 0.0
C1443 C 0.02575 0.61545 0.24209 0.0
N1444 N 0.03647 0.6587 0.27747 0.0
N1445 N 0.97007 0.54387 0.26686 0.0
C1446 C 0.01809 0.63102 0.27047 0.0
C1447 C 0.98368 0.57235 0.26346 0.0
N1448 N 0.98139 0.63248 0.31271 0.0
N1449 N 0.01308 0.57229 0.20428 0.0
H1450 H 0.95304 0.5326 0.28775 0.0
H1451 H 0.97738 0.53158 0.25264 0.0
H1452 H 0.03054 0.5817 0.18378 0.0
H1453 H 0.99898 0.55179 0.19527 0.0
H1454 H 0.99114 0.65416 0.31162 0.0
H1455 H 0.96217 0.6231 0.32892 0.0
H1456 H 0.03373 0.67052 0.30167 0.0
H1457 H 0.05523 0.66957 0.2601 0.0
C1458 C 0.41272 0.42495 0.27843 0.0
C1459 C 0.38826 0.40945 0.2525 0.0
C1460 C 0.38858 0.36635 0.27091 0.0
C1461 C 0.41135 0.38172 0.30025 0.0
N1462 N 0.44177 0.42487 0.33819 0.0
N1463 N 0.3506 0.36499 0.22823 0.0
C1464 C 0.42223 0.41073 0.30615 0.0
C1465 C 0.37555 0.37999 0.24966 0.0
N1466 N 0.42772 0.45341 0.27492 0.0
N1467 N 0.3796 0.33881 0.26314 0.0
H1468 H 0.34075 0.37436 0.21197 0.0
H1469 H 0.33877 0.3433 0.22903 0.0
H1470 H 0.38746 0.32784 0.28032 0.0
H1471 H 0.36541 0.32726 0.23833 0.0
H1472 H 0.44729 0.46563 0.28928 0.0
H1473 H 0.42211 0.46466 0.25368 0.0
H1474 H 0.44817 0.44539 0.34708 0.0
H1475 H 0.44972 0.41544 0.35892 0.0
C1476 C 0.61597 0.9902 0.25325 0.0
C1477 C 0.5864 0.97442 0.25377 0.0
C1478 C 0.58469 0.0085 0.30368 0.0
C1479 C 0.61402 0.02569 0.29982 0.0
N1480 N 0.65776 0.03457 0.26847 0.0
N1481 N 0.54236 0.97125 0.27175 0.0
C1482 C 0.62974 0.017 0.27383 0.0
C1483 C 0.57071 0.98429 0.27701 0.0
N1484 N 0.63081 0.97919 0.23443 0.0
N1485 N 0.57004 0.01534 0.33265 0.0
H1486 H 0.53124 0.95379 0.25164 0.0
H1487 H 0.53012 0.97929 0.28359 0.0
H1488 H 0.57915 0.03336 0.35193 0.0
H1489 H 0.54915 0.00194 0.34053 0.0
H1490 H 0.65239 0.98828 0.23697 0.0
H1491 H 0.62127 0.95987 0.21851 0.0
H1492 H 0.66991 0.03105 0.24591 0.0
H1493 H 0.66869 0.05348 0.28541 0.0
C1494 C 0.37512 0.98317 0.77686 0.0
C1495 C 0.38979 0.97502 0.74731 0.0
C1496 C 0.43322 0.01837 0.76285 0.0
C1497 C 0.41833 0.02748 0.79005 0.0
N1498 N 0.37465 0.02061 0.81837 0.0
N1499 N 0.43166 0.98692 0.70589 0.0
C1500 C 0.38911 0.01041 0.79595 0.0
C1501 C 0.41842 0.99338 0.73809 0.0
N1502 N 0.34787 0.96471 0.78686 0.0
N1503 N 0.4618 0.03286 0.76258 0.0
H1504 H 0.42211 0.96836 0.688 0.0
H1505 H 0.45151 0.00105 0.69411 0.0
H1506 H 0.47367 0.05092 0.78105 0.0
H1507 H 0.47389 0.02554 0.74769 0.0
H1508 H 0.33691 0.96785 0.81209 0.0
H1509 H 0.33647 0.9455 0.7709 0.0
H1510 H 0.35296 0.01045 0.81994 0.0
H1511 H 0.38436 0.04031 0.83307 0.0
C1512 C 0.99212 0.41612 0.80687 0.0
C1513 C 0.97441 0.38691 0.80268 0.0
C1514 C 0.00917 0.38444 0.75488 0.0
C1515 C 0.02542 0.41399 0.75555 0.0
N1516 N 0.02925 0.45825 0.77419 0.0
N1517 N 0.96436 0.34314 0.76998 0.0
C1518 C 0.01605 0.4299 0.77948 0.0
C1519 C 0.98245 0.37101 0.77582 0.0
N1520 N 0.98605 0.43082 0.83689 0.0
N1521 N 0.01965 0.36923 0.73569 0.0
H1522 H 0.94549 0.33242 0.7871 0.0
H1523 H 0.96741 0.33099 0.74681 0.0
H1524 H 0.03895 0.37845 0.7197 0.0
H1525 H 0.01017 0.34761 0.73815 0.0
H1526 H 0.99978 0.45164 0.8447 0.0
H1527 H 0.96846 0.42166 0.85717 0.0
H1528 H 0.02158 0.47062 0.78685 0.0
H1529 H 0.04629 0.46917 0.75317 0.0
C1530 C 0.57071 0.58642 0.7772 0.0
C1531 C 0.58628 0.61105 0.7516 0.0
C1532 C 0.62959 0.61194 0.77276 0.0
C1533 C 0.61401 0.58876 0.80127 0.0
N1534 N 0.57047 0.55735 0.83727 0.0
N1535 N 0.63077 0.6497 0.72968 0.0
C1536 C 0.58482 0.57723 0.80576 0.0
C1537 C 0.61584 0.62451 0.7505 0.0
N1538 N 0.54233 0.57098 0.77259 0.0
N1539 N 0.65743 0.62167 0.76662 0.0
H1540 H 0.62132 0.65921 0.71264 0.0
H1541 H 0.6524 0.66203 0.73175 0.0
H1542 H 0.66836 0.61404 0.78452 0.0
H1543 H 0.66933 0.63627 0.74249 0.0
H1544 H 0.53017 0.5513 0.78663 0.0
H1545 H 0.53116 0.57643 0.75088 0.0
H1546 H 0.54966 0.55032 0.84514 0.0
H1547 H 0.57995 0.54974 0.8586 0.0
C1548 C 0.23759 0.26582 0.28332 0.0
C1549 C 0.24429 0.25167 0.31586 0.0
C1550 C 0.26599 0.23741 0.25859 0.0
C1551 C 0.25295 0.24525 0.22575 0.0
N1552 N 0.22783 0.26887 0.20586 0.0
N1553 N 0.26667 0.22534 0.33564 0.0
C1554 C 0.23988 0.2608 0.2377 0.0
C1555 C 0.25978 0.23853 0.30403 0.0
N1556 N 0.22843 0.28349 0.29641 0.0
N1557 N 0.2837 0.22821 0.24584 0.0
H1558 H 0.26305 0.22638 0.36924 0.0
H1559 H 0.27485 0.21243 0.32849 0.0
H1560 H 0.28836 0.2274 0.21253 0.0
H1561 H 0.29564 0.22406 0.26793 0.0
H1562 H 0.22514 0.2962 0.27469 0.0
H1563 H 0.22677 0.28732 0.32984 0.0
H1564 H 0.21492 0.27708 0.21277 0.0
H1565 H 0.22991 0.2663 0.1722 0.0
C1566 C 0.77001 0.01808 0.31045 0.0
C1567 C 0.75669 0.98931 0.3217 0.0
C1568 C 0.74769 0.97662 0.24326 0.0
C1569 C 0.76314 0.00534 0.23197 0.0
N1570 N 0.78001 0.05286 0.2533 0.0
N1571 N 0.72459 0.94192 0.3011 0.0
C1572 C 0.77101 0.02586 0.26529 0.0
C1573 C 0.74254 0.96884 0.28868 0.0
N1574 N 0.78348 0.03791 0.34219 0.0
N1575 N 0.73971 0.95683 0.21098 0.0
H1576 H 0.72051 0.93604 0.33436 0.0
H1577 H 0.71185 0.92626 0.27895 0.0
H1578 H 0.7423 0.9618 0.17744 0.0
H1579 H 0.73163 0.93567 0.21743 0.0
H1580 H 0.79661 0.05899 0.33522 0.0
H1581 H 0.7825 0.03308 0.37562 0.0
H1582 H 0.78402 0.06865 0.27589 0.0
H1583 H 0.78074 0.0587 0.22019 0.0
C1584 C 0.02552 0.77067 0.23773 0.0
C1585 C 0.99672 0.75709 0.22696 0.0
C1586 C 0.98444 0.74786 0.30548 0.0
C1587 C 0.01324 0.76366 0.31653 0.0
N1588 N 0.06073 0.781 0.29421 0.0
N1589 N 0.94955 0.72463 0.24795 0.0
C1590 C 0.03361 0.77177 0.28277 0.0
C1591 C 0.97647 0.74276 0.26013 0.0
N1592 N 0.04505 0.78417 0.20553 0.0
N1593 N 0.96467 0.73945 0.33786 0.0
H1594 H 0.94352 0.72066 0.21474 0.0
H1595 H 0.93404 0.71165 0.27015 0.0
H1596 H 0.9696 0.74146 0.37131 0.0
H1597 H 0.94349 0.73137 0.33159 0.0
H1598 H 0.06617 0.79739 0.21203 0.0
H1599 H 0.03986 0.78307 0.17218 0.0
H1600 H 0.07643 0.78526 0.27129 0.0
H1601 H 0.0668 0.78167 0.32717 0.0
C1602 C 0.74645 0.73368 0.75141 0.0
C1603 C 0.77159 0.75352 0.73029 0.0
C1604 C 0.78482 0.78317 0.79618 0.0
C1605 C 0.75841 0.7651 0.81543 0.0
N1606 N 0.71247 0.72473 0.80942 0.0
N1607 N 0.81123 0.80039 0.72864 0.0
C1608 C 0.73872 0.74069 0.79255 0.0
C1609 C 0.78977 0.77919 0.75155 0.0
N1610 N 0.73043 0.70795 0.73283 0.0
N1611 N 0.80565 0.80374 0.82092 0.0
H1612 H 0.81526 0.79891 0.69536 0.0
H1613 H 0.82316 0.8205 0.74132 0.0
H1614 H 0.80328 0.80709 0.85419 0.0
H1615 H 0.82616 0.81549 0.80977 0.0
H1616 H 0.71338 0.6916 0.7487 0.0
H1617 H 0.73548 0.7023 0.70274 0.0
H1618 H 0.69628 0.70833 0.79218 0.0
H1619 H 0.70634 0.72919 0.83957 0.0
C1620 C 0.23778 0.97403 0.78946 0.0
C1621 C 0.24547 0.99478 0.82239 0.0
C1622 C 0.26698 0.03085 0.76515 0.0
C1623 C 0.2529 0.01024 0.73224 0.0
N1624 N 0.22586 0.96154 0.7125 0.0
N1625 N 0.26913 0.04341 0.84257 0.0
C1626 C 0.23926 0.98154 0.74403 0.0
C1627 C 0.26132 0.02339 0.81067 0.0
N1628 N 0.22837 0.94706 0.80208 0.0
N1629 N 0.28523 0.05763 0.75247 0.0
H1630 H 0.26598 0.03863 0.87619 0.0
H1631 H 0.27759 0.06456 0.83566 0.0
H1632 H 0.28959 0.06323 0.71915 0.0
H1633 H 0.29787 0.07338 0.77455 0.0
H1634 H 0.22442 0.93108 0.77992 0.0
H1635 H 0.22726 0.94143 0.83538 0.0
H1636 H 0.21251 0.94055 0.71974 0.0
H1637 H 0.22715 0.96616 0.67893 0.0
C1638 C 0.97124 0.23206 0.75981 0.0
C1639 C 0.99211 0.23989 0.72698 0.0
C1640 C 0.02811 0.26137 0.7843 0.0
C1641 C 0.00737 0.24752 0.81708 0.0
N1642 N 0.95873 0.22064 0.837 0.0
N1643 N 0.0408 0.26348 0.70698 0.0
C1644 C 0.97871 0.23378 0.80527 0.0
C1645 C 0.02072 0.25569 0.73879 0.0
N1646 N 0.94425 0.22247 0.7471 0.0
N1647 N 0.0549 0.27948 0.79706 0.0
H1648 H 0.03611 0.26037 0.67336 0.0
H1649 H 0.06194 0.2719 0.71395 0.0
H1650 H 0.06048 0.28386 0.83038 0.0
H1651 H 0.07076 0.29203 0.77504 0.0
H1652 H 0.9282 0.21841 0.76918 0.0
H1653 H 0.93861 0.22124 0.71379 0.0
H1654 H 0.93772 0.2073 0.82994 0.0
H1655 H 0.96342 0.22213 0.87061 0.0
C1656 C 0.93409 0.59369 0.58645 0.0
C1657 C 0.91407 0.56921 0.56412 0.0
C1658 C 0.88405 0.55502 0.62975 0.0
C1659 C 0.90247 0.58081 0.65046 0.0
N1660 N 0.94352 0.62638 0.64677 0.0
N1661 N 0.86703 0.53003 0.56092 0.0
C1662 C 0.92716 0.60067 0.62836 0.0
C1663 C 0.88818 0.55091 0.58473 0.0
N1664 N 0.95992 0.60977 0.56828 0.0
N1665 N 0.86306 0.5339 0.6535 0.0
H1666 H 0.86879 0.52651 0.52749 0.0
H1667 H 0.84678 0.51807 0.57307 0.0
H1668 H 0.8596 0.53562 0.68698 0.0
H1669 H 0.85097 0.5137 0.64126 0.0
H1670 H 0.97642 0.62606 0.58515 0.0
H1671 H 0.96542 0.60549 0.53744 0.0
H1672 H 0.96019 0.64279 0.6303 0.0
H1673 H 0.93918 0.6319 0.67755 0.0
C1674 C 0.43472 0.35989 0.59679 0.0
C1675 C 0.42691 0.33903 0.56402 0.0
C1676 C 0.40615 0.30307 0.62152 0.0
C1677 C 0.42022 0.32387 0.65407 0.0
N1678 N 0.44657 0.37256 0.67381 0.0
N1679 N 0.40333 0.29033 0.54414 0.0
C1680 C 0.43346 0.35251 0.64222 0.0
C1681 C 0.41133 0.31042 0.57595 0.0
N1682 N 0.44394 0.3868 0.58402 0.0
N1683 N 0.38833 0.27625 0.63456 0.0
H1684 H 0.40599 0.29499 0.51049 0.0
H1685 H 0.3951 0.26921 0.55109 0.0
H1686 H 0.38433 0.27073 0.66797 0.0
H1687 H 0.37565 0.26032 0.61278 0.0
H1688 H 0.44802 0.40286 0.60608 0.0
H1689 H 0.44484 0.39233 0.55071 0.0
H1690 H 0.45959 0.39362 0.66665 0.0
H1691 H 0.44532 0.36789 0.7074 0.0
C1692 C 0.676 0.12158 0.62804 0.0
C1693 C 0.68206 0.10161 0.64665 0.0
C1694 C 0.6598 0.07095 0.58256 0.0
C1695 C 0.6565 0.09231 0.56224 0.0
N1696 N 0.66792 0.14057 0.56138 0.0
N1697 N 0.68299 0.05871 0.63949 0.0
C1698 C 0.66649 0.11838 0.58375 0.0
C1699 C 0.67484 0.07661 0.62332 0.0
N1700 N 0.6783 0.14321 0.65312 0.0
N1701 N 0.64787 0.04509 0.56363 0.0
H1702 H 0.69368 0.06214 0.6694 0.0
H1703 H 0.68096 0.04162 0.62186 0.0
H1704 H 0.63698 0.04041 0.53373 0.0
H1705 H 0.64704 0.02782 0.579 0.0
H1706 H 0.67108 0.15644 0.64262 0.0
H1707 H 0.68467 0.1463 0.68609 0.0
H1708 H 0.67795 0.16081 0.57398 0.0
H1709 H 0.66181 0.1395 0.52847 0.0
C1710 C 0.45485 0.11542 0.08124 0.0
C1711 C 0.43823 0.08939 0.05987 0.0
C1712 C 0.40487 0.0743 0.12182 0.0
C1713 C 0.4232 0.09922 0.14492 0.0
N1714 N 0.46896 0.14027 0.15057 0.0
N1715 N 0.39908 0.04251 0.0618 0.0
C1716 C 0.44915 0.11882 0.12577 0.0
C1717 C 0.4136 0.06835 0.08066 0.0
N1718 N 0.47561 0.13742 0.05857 0.0
N1719 N 0.37892 0.05676 0.13861 0.0
H1720 H 0.40482 0.03766 0.03162 0.0
H1721 H 0.38261 0.02543 0.07741 0.0
H1722 H 0.37214 0.06042 0.16879 0.0
H1723 H 0.36351 0.03974 0.12132 0.0
H1724 H 0.4862 0.15766 0.07112 0.0
H1725 H 0.48031 0.13623 0.02553 0.0
H1726 H 0.48934 0.15323 0.1396 0.0
H1727 H 0.46612 0.14341 0.18372 0.0
C1728 C 0.92584 0.36275 0.09644 0.0
C1729 C 0.91222 0.34237 0.06314 0.0
C1730 C 0.89682 0.30563 0.11948 0.0
C1731 C 0.90437 0.3261 0.15287 0.0
N1732 N 0.92766 0.37458 0.17407 0.0
N1733 N 0.88572 0.29391 0.04207 0.0
C1734 C 0.92005 0.35485 0.14177 0.0
C1735 C 0.89862 0.31358 0.07424 0.0
N1736 N 0.9439 0.38971 0.08436 0.0
N1737 N 0.88744 0.27855 0.13143 0.0
H1738 H 0.88741 0.29896 0.00862 0.0
H1739 H 0.87242 0.27281 0.04861 0.0
H1740 H 0.88617 0.27257 0.16456 0.0
H1741 H 0.88361 0.26279 0.10888 0.0
H1742 H 0.95632 0.40534 0.10677 0.0
H1743 H 0.94837 0.39567 0.05119 0.0
H1744 H 0.9359 0.39576 0.16767 0.0
H1745 H 0.9246 0.36953 0.20756 0.0
C1746 C 0.63937 0.56522 0.0977 0.0
C1747 C 0.65994 0.57262 0.06453 0.0
C1748 C 0.69633 0.59251 0.1215 0.0
C1749 C 0.67563 0.57888 0.15441 0.0
N1750 N 0.62696 0.55323 0.17472 0.0
N1751 N 0.70847 0.59495 0.04386 0.0
C1752 C 0.64694 0.56618 0.14297 0.0
C1753 C 0.68865 0.58747 0.07602 0.0
N1754 N 0.61251 0.55671 0.08546 0.0
N1755 N 0.72336 0.60983 0.13407 0.0
H1756 H 0.70357 0.59237 0.01028 0.0
H1757 H 0.72954 0.60259 0.05044 0.0
H1758 H 0.72916 0.61378 0.16737 0.0
H1759 H 0.73927 0.6222 0.11202 0.0
H1760 H 0.59674 0.55305 0.10788 0.0
H1761 H 0.60682 0.55602 0.05228 0.0
H1762 H 0.60582 0.54055 0.16775 0.0
H1763 H 0.63171 0.55417 0.20822 0.0
C1764 C 0.60109 0.92517 0.91838 0.0
C1765 C 0.58152 0.90046 0.896 0.0
C1766 C 0.55118 0.88585 0.96128 0.0
C1767 C 0.56905 0.91181 0.98198 0.0
N1768 N 0.60951 0.9578 0.97841 0.0
N1769 N 0.53478 0.86077 0.89243 0.0
C1770 C 0.59369 0.93198 0.96007 0.0
C1771 C 0.55565 0.88184 0.91638 0.0
N1772 N 0.62693 0.94168 0.90044 0.0
N1773 N 0.53033 0.86452 0.98492 0.0
H1774 H 0.53671 0.85735 0.85902 0.0
H1775 H 0.51452 0.84854 0.90443 0.0
H1776 H 0.52664 0.86618 0.01831 0.0
H1777 H 0.51866 0.84426 0.97271 0.0
H1778 H 0.64315 0.95835 0.91718 0.0
H1779 H 0.63275 0.93744 0.86983 0.0
H1780 H 0.62608 0.97438 0.96205 0.0
H1781 H 0.60481 0.9632 0.00902 0.0
C1782 C 0.10032 0.68681 0.97087 0.0
C1783 C 0.08772 0.65819 0.98266 0.0
C1784 C 0.08 0.64483 0.90437 0.0
C1785 C 0.09477 0.6735 0.89261 0.0
N1786 N 0.1102 0.72096 0.91268 0.0
N1787 N 0.05739 0.6103 0.96262 0.0
C1788 C 0.10171 0.69419 0.92541 0.0
C1789 C 0.07458 0.63732 0.94987 0.0
N1790 N 0.11276 0.70691 0.0026 0.0
N1791 N 0.07299 0.62493 0.87249 0.0
H1792 H 0.0532 0.60462 0.99594 0.0
H1793 H 0.04537 0.59423 0.9406 0.0
H1794 H 0.0759 0.62971 0.83887 0.0
H1795 H 0.0654 0.6039 0.87938 0.0
H1796 H 0.12533 0.72805 0.99554 0.0
H1797 H 0.11152 0.70226 0.0362 0.0
H1798 H 0.11355 0.7368 0.93474 0.0
H1799 H 0.11121 0.72651 0.87936 0.0
C1800 C 0.30476 0.40058 0.92829 0.0
C1801 C 0.32538 0.41466 0.89541 0.0
C1802 C 0.36169 0.42957 0.95236 0.0
C1803 C 0.34097 0.42158 0.98549 0.0
N1804 N 0.29233 0.39788 0.00587 0.0
N1805 N 0.37395 0.44157 0.8752 0.0
C1806 C 0.31231 0.40589 0.97383 0.0
C1807 C 0.35407 0.42822 0.90699 0.0
N1808 N 0.27791 0.38264 0.9156 0.0
N1809 N 0.38871 0.439 0.96471 0.0
H1810 H 0.36912 0.44038 0.84166 0.0
H1811 H 0.395 0.4548 0.88215 0.0
H1812 H 0.39443 0.43995 0.99792 0.0
H1813 H 0.40468 0.44319 0.94237 0.0
H1814 H 0.26211 0.36994 0.93759 0.0
H1815 H 0.27223 0.37857 0.88227 0.0
H1816 H 0.27118 0.38954 0.99913 0.0
H1817 H 0.29713 0.40071 0.03947 0.0
C1818 C 0.09453 0.40586 0.47502 0.0
C1819 C 0.08158 0.42159 0.48647 0.0
C1820 C 0.07462 0.4276 0.40788 0.0
C1821 C 0.08978 0.41404 0.39642 0.0
N1822 N 0.10542 0.38221 0.41712 0.0
N1823 N 0.05099 0.43868 0.46556 0.0
C1824 C 0.09652 0.40021 0.42954 0.0
C1825 C 0.06857 0.42923 0.45326 0.0
N1826 N 0.10673 0.39815 0.50715 0.0
N1827 N 0.0679 0.44075 0.37596 0.0
H1828 H 0.04643 0.43988 0.49878 0.0
H1829 H 0.03903 0.44263 0.44322 0.0
H1830 H 0.07137 0.43937 0.34243 0.0
H1831 H 0.06006 0.45398 0.3828 0.0
H1832 H 0.11952 0.38977 0.50052 0.0
H1833 H 0.10498 0.40129 0.54072 0.0
H1834 H 0.1087 0.36972 0.43931 0.0
H1835 H 0.10685 0.37791 0.38384 0.0
C1836 C 0.56878 0.63749 0.44861 0.0
C1837 C 0.57557 0.65776 0.48211 0.0
C1838 C 0.5951 0.69451 0.42555 0.0
C1839 C 0.58189 0.67396 0.39233 0.0
N1840 N 0.55732 0.62543 0.37131 0.0
N1841 N 0.59695 0.70614 0.50329 0.0
C1842 C 0.56975 0.64527 0.40339 0.0
C1843 C 0.59 0.68655 0.47094 0.0
N1844 N 0.56078 0.6107 0.46049 0.0
N1845 N 0.61201 0.72169 0.41332 0.0
H1846 H 0.59438 0.70107 0.53678 0.0
H1847 H 0.60418 0.72716 0.49694 0.0
H1848 H 0.61594 0.72768 0.38009 0.0
H1849 H 0.62409 0.73758 0.43558 0.0
H1850 H 0.55756 0.59516 0.43787 0.0
H1851 H 0.56008 0.60488 0.49361 0.0
H1852 H 0.54503 0.60419 0.37794 0.0
H1853 H 0.55833 0.63039 0.33787 0.0
C1854 C 0.35618 0.92111 0.41093 0.0
C1855 C 0.32738 0.90624 0.39996 0.0
C1856 C 0.31498 0.90008 0.47866 0.0
C1857 C 0.34375 0.91286 0.48956 0.0
N1858 N 0.39132 0.94369 0.46832 0.0
N1859 N 0.28009 0.89033 0.42184 0.0
C1860 C 0.36421 0.92633 0.45625 0.0
C1861 C 0.30705 0.89891 0.43353 0.0
N1862 N 0.37577 0.92847 0.37841 0.0
N1863 N 0.29526 0.8873 0.51084 0.0
H1864 H 0.27412 0.88951 0.3888 0.0
H1865 H 0.26449 0.88673 0.44458 0.0
H1866 H 0.3003 0.88847 0.54424 0.0
H1867 H 0.27407 0.87456 0.50431 0.0
H1868 H 0.39688 0.93612 0.38461 0.0
H1869 H 0.37064 0.92576 0.34493 0.0
H1870 H 0.40707 0.95598 0.44596 0.0
H1871 H 0.39739 0.94776 0.5015 0.0
C1872 C 0.24482 0.12735 0.02641 0.0
C1873 C 0.22054 0.12871 0.01532 0.0
C1874 C 0.19365 0.07778 0.0085 0.0
C1875 C 0.21721 0.07637 0.02333 0.0
N1876 N 0.26402 0.09895 0.05253 0.0
N1877 N 0.17071 0.10527 0.00397 0.0
C1878 C 0.24247 0.10092 0.03408 0.0
C1879 C 0.19462 0.10392 0.00845 0.0
N1880 N 0.27035 0.15115 0.02765 0.0
N1881 N 0.17048 0.05417 0.99391 0.0
H1882 H 0.17045 0.12399 0.00505 0.0
H1883 H 0.15082 0.08774 0.00346 0.0
H1884 H 0.16888 0.03456 0.99415 0.0
H1885 H 0.15379 0.05434 0.97821 0.0
H1886 H 0.2891 0.15112 0.03024 0.0
H1887 H 0.27315 0.17101 0.02249 0.0
H1888 H 0.28167 0.11591 0.06606 0.0
H1889 H 0.26343 0.07998 0.05726 0.0
C1890 C 0.90193 0.14305 0.02858 0.0
C1891 C 0.92699 0.1421 0.02496 0.0
C1892 C 0.90023 0.09128 0.01629 0.0
C1893 C 0.87521 0.09249 0.01649 0.0
N1894 N 0.85214 0.11972 0.01472 0.0
N1895 N 0.95063 0.1165 0.00861 0.0
C1896 C 0.876 0.11844 0.02054 0.0
C1897 C 0.92633 0.11654 0.01681 0.0
N1898 N 0.90289 0.16735 0.04061 0.0
N1899 N 0.899 0.06597 0.01721 0.0
H1900 H 0.97017 0.13458 0.00927 0.0
H1901 H 0.95133 0.09901 0.99774 0.0
H1902 H 0.88023 0.04703 0.01703 0.0
H1903 H 0.91639 0.06365 0.02192 0.0
H1904 H 0.88525 0.1686 0.04873 0.0
H1905 H 0.92155 0.18599 0.04572 0.0
H1906 H 0.85184 0.13836 0.01248 0.0
H1907 H 0.83282 0.10218 0.00818 0.0
C1908 C 0.881 0.80696 0.01604 0.0
C1909 C 0.85517 0.78171 0.01997 0.0
C1910 C 0.87899 0.75457 0.0134 0.0
C1911 C 0.905 0.77982 0.01288 0.0
N1912 N 0.93159 0.82991 0.01909 0.0
N1913 N 0.82928 0.73166 0.02819 0.0
C1914 C 0.90625 0.80603 0.01558 0.0
C1915 C 0.85407 0.75554 0.02029 0.0
N1916 N 0.88129 0.83172 0.01196 0.0
N1917 N 0.87805 0.72976 0.00558 0.0
H1918 H 0.81041 0.73141 0.03192 0.0
H1919 H 0.82763 0.71234 0.0341 0.0
H1920 H 0.89588 0.72822 0.00055 0.0
H1921 H 0.85961 0.71096 0.00061 0.0
H1922 H 0.89907 0.85056 0.00425 0.0
H1923 H 0.86321 0.83319 0.01309 0.0
H1924 H 0.93399 0.84944 0.02584 0.0
H1925 H 0.95048 0.82995 0.01861 0.0
C1926 C 0.10258 0.19642 0.52738 0.0
C1927 C 0.1273 0.22285 0.5256 0.0
C1928 C 0.09964 0.24562 0.51244 0.0
C1929 C 0.07494 0.2195 0.51798 0.0
N1930 N 0.05235 0.17069 0.53713 0.0
N1931 N 0.14963 0.27309 0.52373 0.0
C1932 C 0.07625 0.19506 0.52735 0.0
C1933 C 0.12595 0.24763 0.51993 0.0
N1934 N 0.1043 0.17259 0.52746 0.0
N1935 N 0.09793 0.26838 0.4992 0.0
H1936 H 0.16926 0.27539 0.52951 0.0
H1937 H 0.1496 0.29189 0.52485 0.0
H1938 H 0.07898 0.26786 0.4946 0.0
H1939 H 0.11518 0.28721 0.4897 0.0
H1940 H 0.08708 0.15268 0.52399 0.0
H1941 H 0.12327 0.17279 0.52704 0.0
H1942 H 0.05222 0.15293 0.54894 0.0
H1943 H 0.03262 0.16881 0.53684 0.0
C1944 C 0.76065 0.85326 0.54761 0.0
C1945 C 0.78679 0.85525 0.53895 0.0
C1946 C 0.80945 0.90627 0.53563 0.0
C1947 C 0.78349 0.90432 0.54564 0.0
N1948 N 0.7355 0.87699 0.56885 0.0
N1949 N 0.83682 0.88302 0.53303 0.0
C1950 C 0.7594 0.87808 0.55404 0.0
C1951 C 0.81146 0.88163 0.53555 0.0
N1952 N 0.73689 0.82768 0.54798 0.0
N1953 N 0.83193 0.9316 0.52499 0.0
H1954 H 0.83894 0.8653 0.53291 0.0
H1955 H 0.85582 0.90157 0.53478 0.0
H1956 H 0.83133 0.95016 0.52575 0.0
H1957 H 0.85059 0.93409 0.51256 0.0
H1958 H 0.71685 0.82493 0.54878 0.0
H1959 H 0.73704 0.80899 0.54467 0.0
H1960 H 0.71814 0.85881 0.58014 0.0
H1961 H 0.73367 0.89473 0.57305 0.0
C1962 C 0.11364 0.92368 0.52904 0.0
C1963 C 0.14044 0.92654 0.53485 0.0
C1964 C 0.11855 0.87768 0.5577 0.0
C1965 C 0.09223 0.87374 0.54465 0.0
N1966 N 0.06444 0.89231 0.51472 0.0
N1967 N 0.16857 0.90505 0.54826 0.0
C1968 C 0.08966 0.89657 0.52938 0.0
C1969 C 0.14299 0.90322 0.54754 0.0
N1970 N 0.11107 0.94688 0.52454 0.0
N1971 N 0.12014 0.85733 0.58093 0.0
H1972 H 0.18702 0.92325 0.54026 0.0
H1973 H 0.17116 0.88781 0.55289 0.0
H1974 H 0.10241 0.83904 0.59096 0.0
H1975 H 0.13863 0.86002 0.5946 0.0
H1976 H 0.09192 0.94622 0.52432 0.0
H1977 H 0.12816 0.9671 0.52524 0.0
H1978 H 0.06197 0.90761 0.49861 0.0
H1979 H 0.04624 0.87287 0.51599 0.0
C1980 C 0.8045 0.89285 0.04016 0.0
C1981 C 0.77746 0.86899 0.03713 0.0
C1982 C 0.75732 0.89881 0.02181 0.0
C1983 C 0.78403 0.92266 0.02788 0.0
N1984 N 0.8322 0.94301 0.04983 0.0
N1985 N 0.7275 0.8491 0.0335 0.0
C1986 C 0.80739 0.91986 0.03921 0.0
C1987 C 0.75365 0.87191 0.03021 0.0
N1988 N 0.82748 0.88969 0.04201 0.0
N1989 N 0.73561 0.90185 0.00703 0.0
H1990 H 0.72401 0.82912 0.04039 0.0
H1991 H 0.70929 0.85027 0.03344 0.0
H1992 H 0.73732 0.92128 0.00155 0.0
H1993 H 0.7165 0.88519 0.99707 0.0
H1994 H 0.84786 0.90624 0.03936 0.0
H1995 H 0.82622 0.87023 0.0425 0.0
H1996 H 0.84914 0.94213 0.06303 0.0
H1997 H 0.83519 0.96318 0.04879 0.0
C1998 C 0.07561 0.88606 0.03032 0.0
C1999 C 0.07403 0.86067 0.01753 0.0
C2000 C 0.125 0.88303 0.01818 0.0
C2001 C 0.12665 0.90892 0.02812 0.0
N2002 N 0.10402 0.93641 0.03488 0.0
N2003 N 0.09651 0.83548 0.99212 0.0
C2004 C 0.10207 0.91082 0.03181 0.0
C2005 C 0.09854 0.85932 0.00922 0.0
N2006 N 0.05187 0.88639 0.04187 0.0
N2007 N 0.1485 0.88075 0.01941 0.0
H2008 H 0.07744 0.81742 0.98625 0.0
H2009 H 0.11359 0.83424 0.98055 0.0
H2010 H 0.16833 0.89756 0.02575 0.0
H2011 H 0.14814 0.86177 0.01768 0.0
H2012 H 0.05199 0.90353 0.05632 0.0
H2013 H 0.03202 0.86878 0.0401 0.0
H2014 H 0.08688 0.93936 0.03306 0.0
H2015 H 0.12306 0.95508 0.03504 0.0
C2016 C 0.11829 0.1959 0.03603 0.0
C2017 C 0.14375 0.22016 0.02478 0.0
C2018 C 0.12079 0.24823 0.02725 0.0
C2019 C 0.0948 0.22351 0.03411 0.0
N2020 N 0.0678 0.17331 0.03879 0.0
N2021 N 0.16914 0.26878 0.00436 0.0
C2022 C 0.09326 0.19717 0.03698 0.0
C2023 C 0.145 0.24618 0.0189 0.0
N2024 N 0.11816 0.17178 0.04655 0.0
N2025 N 0.12255 0.27372 0.03056 0.0
H2026 H 0.18752 0.26827 0.99912 0.0
H2027 H 0.17047 0.28746 0.99451 0.0
H2028 H 0.10532 0.27604 0.03717 0.0
H2029 H 0.14135 0.29256 0.03063 0.0
H2030 H 0.10086 0.15424 0.05961 0.0
H2031 H 0.13606 0.17 0.0457 0.0
H2032 H 0.06514 0.15336 0.03607 0.0
H2033 H 0.04898 0.1734 0.03921 0.0
C2034 C 0.924 0.80669 0.52507 0.0
C2035 C 0.92728 0.78335 0.51555 0.0
C2036 C 0.87963 0.7582 0.48653 0.0
C2037 C 0.87498 0.77954 0.50277 0.0
N2038 N 0.89188 0.82347 0.54052 0.0
N2039 N 0.90686 0.73515 0.49305 0.0
C2040 C 0.89694 0.80365 0.52295 0.0
C2041 C 0.90473 0.7586 0.49774 0.0
N2042 N 0.94683 0.83196 0.53463 0.0
N2043 N 0.86037 0.73792 0.45953 0.0
H2044 H 0.92475 0.73441 0.50152 0.0
H2045 H 0.89002 0.71577 0.48454 0.0
H2046 H 0.84244 0.73795 0.44901 0.0
H2047 H 0.86372 0.72315 0.4436 0.0
H2048 H 0.94606 0.85032 0.5377 0.0
H2049 H 0.96707 0.83513 0.53535 0.0
H2050 H 0.90625 0.83989 0.56011 0.0
H2051 H 0.8726 0.82251 0.53784 0.0
C2052 C 0.19239 0.11723 0.50782 0.0
C2053 C 0.21584 0.14252 0.52191 0.0
C2054 C 0.24391 0.11963 0.52646 0.0
C2055 C 0.21979 0.09372 0.51607 0.0
N2056 N 0.16996 0.0668 0.50487 0.0
N2057 N 0.26275 0.16753 0.55057 0.0
C2058 C 0.19371 0.09222 0.50874 0.0
C2059 C 0.24127 0.14364 0.53298 0.0
N2060 N 0.16899 0.11719 0.49311 0.0
N2061 N 0.26954 0.1216 0.52815 0.0
H2062 H 0.26198 0.18588 0.55436 0.0
H2063 H 0.28054 0.16863 0.56433 0.0
H2064 H 0.27251 0.10458 0.52373 0.0
H2065 H 0.28821 0.14048 0.53034 0.0
H2066 H 0.15238 0.10008 0.47781 0.0
H2067 H 0.16705 0.13501 0.49294 0.0
H2068 H 0.14997 0.0642 0.50413 0.0
H2069 H 0.16992 0.04794 0.50661 0.0
C2070 C 0.91234 0.10478 0.5319 0.0
C2071 C 0.90869 0.12604 0.51233 0.0
C2072 C 0.85811 0.09489 0.51127 0.0
C2073 C 0.86186 0.07278 0.52676 0.0
N2074 N 0.8929 0.0551 0.54341 0.0
N2075 N 0.87901 0.13938 0.47355 0.0
C2076 C 0.8891 0.07725 0.53483 0.0
C2077 C 0.88183 0.12052 0.49904 0.0
N2078 N 0.93792 0.11088 0.54779 0.0
N2079 N 0.83199 0.09173 0.50943 0.0
H2080 H 0.8961 0.15788 0.46253 0.0
H2081 H 0.86015 0.1353 0.45943 0.0
H2082 H 0.81406 0.0734 0.51889 0.0
H2083 H 0.82839 0.10814 0.50258 0.0
H2084 H 0.94114 0.09698 0.56671 0.0
H2085 H 0.95563 0.13059 0.54477 0.0
H2086 H 0.91247 0.05675 0.54511 0.0
H2087 H 0.87644 0.03456 0.54494 0.0
C2088 C 0.91271 0.45917 0.35866 0.0
C2089 C 0.8887 0.46128 0.3489 0.0
C2090 C 0.86012 0.41032 0.34524 0.0
C2091 C 0.88359 0.40828 0.35869 0.0
N2092 N 0.93118 0.43004 0.3843 0.0
N2093 N 0.83867 0.43919 0.34085 0.0
C2094 C 0.9096 0.43251 0.36723 0.0
C2095 C 0.86213 0.43693 0.34416 0.0
N2096 N 0.93864 0.48247 0.35782 0.0
N2097 N 0.83603 0.38684 0.333 0.0
H2098 H 0.83918 0.4583 0.34103 0.0
H2099 H 0.81849 0.42215 0.34205 0.0
H2100 H 0.83354 0.36688 0.33451 0.0
H2101 H 0.81927 0.38731 0.31814 0.0
H2102 H 0.95711 0.48183 0.3596 0.0
H2103 H 0.94193 0.50242 0.3516 0.0
H2104 H 0.94956 0.44689 0.39618 0.0
H2105 H 0.92998 0.41083 0.38966 0.0
C2106 C 0.56475 0.42151 0.35139 0.0
C2107 C 0.54024 0.42362 0.34958 0.0
C2108 C 0.56796 0.47417 0.36107 0.0
C2109 C 0.59259 0.4723 0.35955 0.0
N2110 N 0.61527 0.44537 0.34662 0.0
N2111 N 0.5185 0.452 0.34488 0.0
C2112 C 0.59124 0.44629 0.35275 0.0
C2113 C 0.54181 0.44997 0.35238 0.0
N2114 N 0.56263 0.39581 0.35339 0.0
N2115 N 0.56954 0.49893 0.37178 0.0
H2116 H 0.49904 0.43473 0.33797 0.0
H2117 H 0.51883 0.47091 0.3417 0.0
H2118 H 0.5884 0.51726 0.37737 0.0
H2119 H 0.55212 0.50091 0.37835 0.0
H2120 H 0.57949 0.39286 0.35961 0.0
H2121 H 0.54354 0.3772 0.35247 0.0
H2122 H 0.61559 0.4275 0.33677 0.0
H2123 H 0.63507 0.46307 0.34798 0.0
C2124 C 0.5462 0.08874 0.32783 0.0
C2125 C 0.57226 0.11332 0.33468 0.0
C2126 C 0.5488 0.14071 0.34286 0.0
C2127 C 0.52267 0.11563 0.3411 0.0
N2128 N 0.49587 0.06546 0.33566 0.0
N2129 N 0.59902 0.16236 0.35178 0.0
C2130 C 0.52117 0.08955 0.33432 0.0
C2131 C 0.57378 0.13929 0.34278 0.0
N2132 N 0.54546 0.06481 0.31413 0.0
N2133 N 0.54961 0.16582 0.34384 0.0
H2134 H 0.61778 0.16216 0.351 0.0
H2135 H 0.6013 0.18121 0.3628 0.0
H2136 H 0.53165 0.1675 0.34416 0.0
H2137 H 0.56789 0.18498 0.34074 0.0
H2138 H 0.52732 0.04695 0.30414 0.0
H2139 H 0.56343 0.0635 0.30915 0.0
H2140 H 0.4936 0.04562 0.33632 0.0
H2141 H 0.47699 0.06523 0.33907 0.0
C2142 C 0.74309 0.52722 0.871 0.0
C2143 C 0.74096 0.55064 0.85755 0.0
C2144 C 0.79187 0.57968 0.85634 0.0
C2145 C 0.79402 0.55568 0.86601 0.0
N2146 N 0.77193 0.5057 0.87473 0.0
N2147 N 0.76258 0.5981 0.83129 0.0
C2148 C 0.76968 0.52917 0.87139 0.0
C2149 C 0.76515 0.57658 0.8484 0.0
N2150 N 0.71971 0.50325 0.88398 0.0
N2151 N 0.8152 0.60559 0.85669 0.0
H2152 H 0.74334 0.59689 0.82629 0.0
H2153 H 0.77936 0.6164 0.819 0.0
H2154 H 0.83519 0.60887 0.86251 0.0
H2155 H 0.81457 0.62407 0.85494 0.0
H2156 H 0.72029 0.48654 0.8988 0.0
H2157 H 0.69977 0.50086 0.88318 0.0
H2158 H 0.75485 0.48554 0.874 0.0
H2159 H 0.79102 0.50618 0.87412 0.0
C2160 C 0.47642 0.24212 0.8731 0.0
C2161 C 0.44937 0.23906 0.87258 0.0
C2162 C 0.4283 0.1885 0.86269 0.0
C2163 C 0.45522 0.19139 0.86561 0.0
N2164 N 0.5045 0.21976 0.87975 0.0
N2165 N 0.39935 0.20942 0.87459 0.0
C2166 C 0.47918 0.21788 0.87278 0.0
C2167 C 0.42521 0.21225 0.86945 0.0
N2168 N 0.49945 0.26824 0.87214 0.0
N2169 N 0.40576 0.16314 0.85235 0.0
H2170 H 0.39629 0.22636 0.87955 0.0
H2171 H 0.38106 0.19025 0.87753 0.0
H2172 H 0.40698 0.14501 0.84894 0.0
H2173 H 0.38621 0.16033 0.84436 0.0
H2174 H 0.5197 0.272 0.86767 0.0
H2175 H 0.4982 0.28645 0.87239 0.0
H2176 H 0.52227 0.23796 0.8898 0.0
H2177 H 0.50732 0.20247 0.87881 0.0
C2178 C 0.78931 0.20889 0.85661 0.0
C2179 C 0.76271 0.20575 0.86602 0.0
C2180 C 0.78361 0.25658 0.87056 0.0
C2181 C 0.80956 0.25964 0.85721 0.0
N2182 N 0.83679 0.23937 0.83169 0.0
N2183 N 0.73344 0.22637 0.87433 0.0
C2184 C 0.81232 0.23597 0.8485 0.0
C2185 C 0.75955 0.22954 0.87117 0.0
N2186 N 0.79288 0.18614 0.85728 0.0
N2187 N 0.78205 0.27951 0.8831 0.0
H2188 H 0.71522 0.20695 0.87384 0.0
H2189 H 0.72963 0.24299 0.87335 0.0
H2190 H 0.7991 0.29975 0.8819 0.0
H2191 H 0.76449 0.27833 0.8979 0.0
H2192 H 0.81232 0.18749 0.85569 0.0
H2193 H 0.77665 0.16593 0.86331 0.0
H2194 H 0.83902 0.22296 0.81964 0.0
H2195 H 0.85443 0.25891 0.8267 0.0
C2196 C 0.47085 0.22577 0.37067 0.0
C2197 C 0.44395 0.20164 0.36894 0.0
C2198 C 0.42268 0.2308 0.35718 0.0
C2199 C 0.44937 0.25492 0.36157 0.0
N2200 N 0.49809 0.27596 0.38042 0.0
N2201 N 0.39387 0.18107 0.36982 0.0
C2202 C 0.47325 0.25258 0.37078 0.0
C2203 C 0.41971 0.20411 0.36476 0.0
N2204 N 0.49413 0.22308 0.37024 0.0
N2205 N 0.4003 0.23337 0.34465 0.0
H2206 H 0.39095 0.16127 0.37631 0.0
H2207 H 0.37552 0.18193 0.37174 0.0
H2208 H 0.40151 0.25263 0.33984 0.0
H2209 H 0.38103 0.21647 0.3359 0.0
H2210 H 0.5143 0.23988 0.36652 0.0
H2211 H 0.49323 0.20379 0.36993 0.0
H2212 H 0.51553 0.27538 0.39201 0.0
H2213 H 0.50064 0.29597 0.38038 0.0
C2214 C 0.74114 0.21911 0.3632 0.0
C2215 C 0.73883 0.19239 0.36474 0.0
C2216 C 0.78956 0.21381 0.37236 0.0
C2217 C 0.79187 0.24055 0.3719 0.0
N2218 N 0.77045 0.26928 0.37209 0.0
N2219 N 0.75951 0.1635 0.37634 0.0
C2220 C 0.76778 0.24338 0.36892 0.0
C2221 C 0.76269 0.18951 0.37098 0.0
N2222 N 0.71788 0.22118 0.3553 0.0
N2223 N 0.8132 0.21176 0.37364 0.0
H2224 H 0.74026 0.14517 0.37414 0.0
H2225 H 0.77551 0.15987 0.38579 0.0
H2226 H 0.83306 0.22902 0.37743 0.0
H2227 H 0.81349 0.19329 0.36877 0.0
H2228 H 0.71833 0.23985 0.34857 0.0
H2229 H 0.69785 0.20385 0.35335 0.0
H2230 H 0.75368 0.27273 0.37516 0.0
H2231 H 0.78973 0.28761 0.37406 0.0
C2232 C 0.78691 0.57601 0.37729 0.0
C2233 C 0.76058 0.55121 0.37507 0.0
C2234 C 0.78362 0.52325 0.37042 0.0
C2235 C 0.8098 0.54821 0.36758 0.0
N2236 N 0.83668 0.59844 0.36358 0.0
N2237 N 0.73318 0.50137 0.36551 0.0
C2238 C 0.81156 0.57465 0.36987 0.0
C2239 C 0.75872 0.52481 0.37072 0.0
N2240 N 0.78837 0.60072 0.38802 0.0
N2241 N 0.7827 0.49814 0.37364 0.0
H2242 H 0.71451 0.50175 0.36614 0.0
H2243 H 0.73052 0.4819 0.35738 0.0
H2244 H 0.80059 0.49632 0.37329 0.0
H2245 H 0.76454 0.47938 0.38025 0.0
H2246 H 0.80698 0.61902 0.39472 0.0
H2247 H 0.7707 0.60237 0.39413 0.0
H2248 H 0.8388 0.61811 0.35959 0.0
H2249 H 0.85536 0.59837 0.35923 0.0
C2250 C 0.54743 0.08922 0.84004 0.0
C2251 C 0.54601 0.11412 0.8367 0.0
C2252 C 0.59718 0.14224 0.83882 0.0
C2253 C 0.59848 0.11729 0.84083 0.0
N2254 N 0.57591 0.06723 0.83565 0.0
N2255 N 0.56894 0.16414 0.82804 0.0
C2256 C 0.57389 0.09083 0.83904 0.0
C2257 C 0.57076 0.1406 0.83437 0.0
N2258 N 0.52349 0.06403 0.84495 0.0
N2259 N 0.62121 0.16745 0.84254 0.0
H2260 H 0.55003 0.16403 0.8277 0.0
H2261 H 0.58597 0.18365 0.82092 0.0
H2262 H 0.64097 0.16941 0.84363 0.0
H2263 H 0.62171 0.18636 0.84672 0.0
H2264 H 0.52321 0.0456 0.85305 0.0
H2265 H 0.50358 0.06162 0.84378 0.0
H2266 H 0.55903 0.0475 0.8292 0.0
H2267 H 0.59494 0.06756 0.83571 0.0
C2268 C 0.9108 0.45515 0.84044 0.0
C2269 C 0.88616 0.42868 0.84295 0.0
C2270 C 0.85767 0.45121 0.8467 0.0
C2271 C 0.88244 0.47758 0.8488 0.0
N2272 N 0.93265 0.50507 0.85232 0.0
N2273 N 0.83639 0.40089 0.85306 0.0
C2274 C 0.90906 0.4797 0.84679 0.0
C2275 C 0.85961 0.42652 0.84719 0.0
N2276 N 0.93572 0.45681 0.83057 0.0
N2277 N 0.83238 0.44989 0.84342 0.0
H2278 H 0.83705 0.38237 0.85317 0.0
H2279 H 0.81684 0.39805 0.86114 0.0
H2280 H 0.83028 0.46762 0.84319 0.0
H2281 H 0.81372 0.43153 0.83731 0.0
H2282 H 0.9539 0.47545 0.82346 0.0
H2283 H 0.93778 0.43925 0.82591 0.0
H2284 H 0.95246 0.50757 0.85649 0.0
H2285 H 0.93229 0.52365 0.85577 0.0
C2286 C 0.57579 0.43584 0.85649 0.0
C2287 C 0.57287 0.45974 0.85157 0.0
C2288 C 0.52219 0.431 0.86055 0.0
C2289 C 0.52493 0.40685 0.86186 0.0
N2290 N 0.55341 0.38535 0.85464 0.0
N2291 N 0.54353 0.48013 0.8421 0.0
C2292 C 0.5515 0.40899 0.85805 0.0
C2293 C 0.54612 0.45737 0.85183 0.0
N2294 N 0.6018 0.43892 0.86098 0.0
N2295 N 0.49683 0.42876 0.86867 0.0
H2296 H 0.56064 0.4998 0.83565 0.0
H2297 H 0.52445 0.47916 0.83692 0.0
H2298 H 0.47874 0.40971 0.87445 0.0
H2299 H 0.49404 0.44589 0.87301 0.0
H2300 H 0.60525 0.42265 0.86953 0.0
H2301 H 0.62008 0.45829 0.85973 0.0
H2302 H 0.57184 0.3855 0.84699 0.0
H2303 H 0.53608 0.3653 0.85602 0.0
C2304 C 0.58075 0.79068 0.68881 0.0
C2305 C 0.55686 0.7929 0.67841 0.0
C2306 C 0.52876 0.74204 0.6709 0.0
C2307 C 0.55195 0.73978 0.68519 0.0
N2308 N 0.59892 0.7611 0.71346 0.0
N2309 N 0.50703 0.77069 0.66751 0.0
C2310 C 0.57765 0.76387 0.6958 0.0
C2311 C 0.53055 0.76857 0.67139 0.0
N2312 N 0.60659 0.81407 0.69016 0.0
N2313 N 0.50512 0.71886 0.65645 0.0
H2314 H 0.50732 0.78967 0.66901 0.0
H2315 H 0.48692 0.75352 0.66703 0.0
H2316 H 0.50285 0.69896 0.65653 0.0
H2317 H 0.48866 0.71962 0.64104 0.0
H2318 H 0.62508 0.81349 0.69238 0.0
H2319 H 0.6099 0.83415 0.68538 0.0
H2320 H 0.61691 0.77767 0.72694 0.0
H2321 H 0.5978 0.74183 0.71755 0.0
C2322 C 0.23773 0.81075 0.69828 0.0
C2323 C 0.26204 0.8084 0.69545 0.0
C2324 C 0.23338 0.75803 0.68296 0.0
C2325 C 0.20924 0.76081 0.68196 0.0
N2326 N 0.18862 0.79027 0.68086 0.0
N2327 N 0.2839 0.78109 0.67907 0.0
C2328 C 0.21143 0.7873 0.68766 0.0
C2329 C 0.26014 0.78238 0.68608 0.0
N2330 N 0.23974 0.83527 0.71188 0.0
N2331 N 0.23065 0.73206 0.68247 0.0
H2332 H 0.30387 0.79843 0.68183 0.0
H2333 H 0.28385 0.76339 0.66729 0.0
H2334 H 0.21137 0.71374 0.68027 0.0
H2335 H 0.24719 0.72847 0.68793 0.0
H2336 H 0.2225 0.83736 0.71934 0.0
H2337 H 0.25875 0.85309 0.7191 0.0
H2338 H 0.18946 0.80949 0.67982 0.0
H2339 H 0.16919 0.7736 0.67218 0.0
C2340 C 0.23938 0.47061 0.6777 0.0
C2341 C 0.2382 0.44461 0.68422 0.0
C2342 C 0.18835 0.42261 0.70212 0.0
C2343 C 0.18913 0.44797 0.6917 0.0
N2344 N 0.21394 0.49499 0.66343 0.0
N2345 N 0.21082 0.39477 0.6958 0.0
C2346 C 0.21424 0.47165 0.67757 0.0
C2347 C 0.2125 0.42029 0.69478 0.0
N2348 N 0.26468 0.4945 0.67367 0.0
N2349 N 0.16469 0.40091 0.71988 0.0
H2350 H 0.22795 0.39205 0.6908 0.0
H2351 H 0.19205 0.37599 0.69808 0.0
H2352 H 0.14629 0.4015 0.72434 0.0
H2353 H 0.16386 0.38311 0.73311 0.0
H2354 H 0.2671 0.51442 0.67346 0.0
H2355 H 0.28362 0.49468 0.67476 0.0
H2356 H 0.23089 0.5118 0.64816 0.0
H2357 H 0.19598 0.49669 0.66365 0.0
C2358 C 0.45761 0.9133 0.185 0.0
C2359 C 0.45938 0.88924 0.19601 0.0
C2360 C 0.40846 0.86166 0.20281 0.0
C2361 C 0.40666 0.88513 0.18858 0.0
N2362 N 0.42861 0.93201 0.15971 0.0
N2363 N 0.43659 0.83938 0.20687 0.0
C2364 C 0.43098 0.91058 0.17769 0.0
C2365 C 0.43481 0.86308 0.20272 0.0
N2366 N 0.48123 0.93896 0.18354 0.0
N2367 N 0.385 0.83812 0.21689 0.0
H2368 H 0.45548 0.83945 0.20572 0.0
H2369 H 0.41928 0.81936 0.2072 0.0
H2370 H 0.36517 0.836 0.21617 0.0
H2371 H 0.38544 0.82152 0.2324 0.0
H2372 H 0.48096 0.9576 0.18094 0.0
H2373 H 0.50119 0.94199 0.18852 0.0
H2374 H 0.44536 0.94983 0.14616 0.0
H2375 H 0.40949 0.93116 0.15532 0.0
C2376 C 0.0894 0.54677 0.19434 0.0
C2377 C 0.11381 0.57289 0.20207 0.0
C2378 C 0.14168 0.54974 0.20732 0.0
C2379 C 0.11784 0.52418 0.19517 0.0
N2380 N 0.06978 0.49848 0.17179 0.0
N2381 N 0.16386 0.6002 0.20963 0.0
C2382 C 0.09188 0.52271 0.18719 0.0
C2383 C 0.14016 0.57465 0.20705 0.0
N2384 N 0.06373 0.54475 0.19575 0.0
N2385 N 0.16563 0.55009 0.21976 0.0
H2386 H 0.16361 0.61894 0.20904 0.0
H2387 H 0.18392 0.60301 0.2085 0.0
H2388 H 0.16757 0.53227 0.21979 0.0
H2389 H 0.18277 0.56746 0.23349 0.0
H2390 H 0.04501 0.52584 0.19514 0.0
H2391 H 0.06105 0.56184 0.2015 0.0
H2392 H 0.05132 0.49702 0.16038 0.0
H2393 H 0.07055 0.48017 0.16745 0.0
C2394 C 0.45135 0.53916 0.18754 0.0
C2395 C 0.42525 0.53654 0.19917 0.0
C2396 C 0.44739 0.58737 0.20652 0.0
C2397 C 0.47284 0.59002 0.19135 0.0
N2398 N 0.49863 0.56927 0.1614 0.0
N2399 N 0.39715 0.55806 0.21168 0.0
C2400 C 0.4747 0.56614 0.18006 0.0
C2401 C 0.42292 0.56064 0.20662 0.0
N2402 N 0.45419 0.516 0.18562 0.0
N2403 N 0.4467 0.61038 0.22131 0.0
H2404 H 0.37865 0.53889 0.21072 0.0
H2405 H 0.39385 0.57501 0.2126 0.0
H2406 H 0.46411 0.63041 0.22079 0.0
H2407 H 0.42956 0.60936 0.23734 0.0
H2408 H 0.47337 0.51687 0.18249 0.0
H2409 H 0.43768 0.49581 0.19073 0.0
H2410 H 0.50014 0.55285 0.14751 0.0
H2411 H 0.51653 0.58867 0.15691 0.0
C2412 C 0.14169 0.59087 0.69876 0.0
C2413 C 0.1183 0.59289 0.68483 0.0
C2414 C 0.08954 0.54195 0.68268 0.0
C2415 C 0.11347 0.53992 0.69357 0.0
N2416 N 0.16335 0.56218 0.70335 0.0
N2417 N 0.07127 0.57118 0.65665 0.0
C2418 C 0.13986 0.56433 0.69929 0.0
C2419 C 0.0926 0.56866 0.67467 0.0
N2420 N 0.16548 0.61426 0.71221 0.0
N2421 N 0.0637 0.51854 0.68209 0.0
H2422 H 0.07244 0.5904 0.65155 0.0
H2423 H 0.05323 0.55442 0.64368 0.0
H2424 H 0.06044 0.49853 0.68757 0.0
H2425 H 0.0452 0.51908 0.67964 0.0
H2426 H 0.18212 0.61373 0.72741 0.0
H2427 H 0.16779 0.63417 0.71136 0.0
H2428 H 0.1835 0.5793 0.70306 0.0
H2429 H 0.16292 0.54311 0.70276 0.0
C2430 C 0.43112 0.52123 0.67938 0.0
C2431 C 0.40686 0.52236 0.69083 0.0
C2432 C 0.43499 0.57273 0.70298 0.0
C2433 C 0.45956 0.57125 0.69553 0.0
N2434 N 0.48146 0.54337 0.68341 0.0
N2435 N 0.38549 0.5478 0.71975 0.0
C2436 C 0.45779 0.54532 0.68536 0.0
C2437 C 0.40875 0.54771 0.7046 0.0
N2438 N 0.42864 0.49729 0.66191 0.0
N2439 N 0.43662 0.59817 0.70643 0.0
H2440 H 0.36582 0.5299 0.72069 0.0
H2441 H 0.38607 0.56502 0.73475 0.0
H2442 H 0.45539 0.61701 0.70404 0.0
H2443 H 0.41921 0.60072 0.70733 0.0
H2444 H 0.44525 0.49617 0.64788 0.0
H2445 H 0.40952 0.47889 0.65855 0.0
H2446 H 0.48124 0.52446 0.68146 0.0
H2447 H 0.50145 0.56042 0.68726 0.0
C2448 C 0.4807 0.90803 0.69828 0.0
C2449 C 0.47859 0.8814 0.69957 0.0
C2450 C 0.42771 0.85879 0.70665 0.0
C2451 C 0.42999 0.88549 0.70777 0.0
N2452 N 0.4585 0.93557 0.71258 0.0
N2453 N 0.45129 0.83178 0.71145 0.0
C2454 C 0.45646 0.91016 0.70575 0.0
C2455 C 0.45241 0.85685 0.70576 0.0
N2456 N 0.50575 0.9312 0.68871 0.0
N2457 N 0.40192 0.83535 0.70479 0.0
H2458 H 0.46897 0.82961 0.71029 0.0
H2459 H 0.4333 0.81352 0.72067 0.0
H2460 H 0.3834 0.83602 0.70557 0.0
H2461 H 0.39875 0.81542 0.69913 0.0
H2462 H 0.50801 0.95068 0.68198 0.0
H2463 H 0.52419 0.93063 0.68453 0.0
H2464 H 0.47739 0.95407 0.71637 0.0
H2465 H 0.44119 0.93794 0.71812 0.0
C2466 C 0.23378 0.42024 0.20158 0.0
C2467 C 0.25874 0.44544 0.19208 0.0
C2468 C 0.2322 0.46946 0.1802 0.0
C2469 C 0.20701 0.4437 0.18578 0.0
N2470 N 0.18344 0.39361 0.19492 0.0
N2471 N 0.28202 0.49304 0.16625 0.0
C2472 C 0.20766 0.41881 0.19482 0.0
C2473 C 0.25803 0.46976 0.17947 0.0
N2474 N 0.23508 0.39784 0.2179 0.0
N2475 N 0.23149 0.49379 0.17761 0.0
H2476 H 0.30144 0.4942 0.16612 0.0
H2477 H 0.28239 0.51039 0.15206 0.0
H2478 H 0.213 0.49448 0.17918 0.0
H2479 H 0.24928 0.51348 0.17815 0.0
H2480 H 0.21785 0.38004 0.2305 0.0
H2481 H 0.2538 0.39778 0.22179 0.0
H2482 H 0.18289 0.37453 0.19604 0.0
H2483 H 0.16382 0.39153 0.19032 0.0
C2484 C 0.57332 0.78515 0.18639 0.0
C2485 C 0.54861 0.75912 0.17934 0.0
C2486 C 0.52126 0.78285 0.17354 0.0
C2487 C 0.54557 0.80847 0.18378 0.0
N2488 N 0.59392 0.83405 0.20571 0.0
N2489 N 0.49847 0.73229 0.17342 0.0
C2490 C 0.57138 0.80963 0.19184 0.0
C2491 C 0.52239 0.75772 0.1747 0.0
N2492 N 0.59879 0.78669 0.18598 0.0
N2493 N 0.49719 0.78262 0.16231 0.0
H2494 H 0.49847 0.71345 0.17511 0.0
H2495 H 0.47851 0.72972 0.17466 0.0
H2496 H 0.49548 0.80057 0.16222 0.0
H2497 H 0.47959 0.76516 0.14983 0.0
H2498 H 0.61768 0.80542 0.18527 0.0
H2499 H 0.60123 0.76927 0.18306 0.0
H2500 H 0.61226 0.83545 0.21755 0.0
H2501 H 0.59373 0.85277 0.20822 0.0
C2502 C 0.24211 0.7711 0.18238 0.0
C2503 C 0.23921 0.79517 0.18341 0.0
C2504 C 0.18888 0.76598 0.19603 0.0
C2505 C 0.1915 0.74188 0.19148 0.0
N2506 N 0.21941 0.72081 0.1743 0.0
N2507 N 0.20978 0.81584 0.18427 0.0
C2508 C 0.2178 0.74424 0.18289 0.0
C2509 C 0.21257 0.79273 0.18848 0.0
N2510 N 0.26815 0.77397 0.18251 0.0
N2511 N 0.16388 0.7633 0.20848 0.0
H2512 H 0.22667 0.83577 0.17868 0.0
H2513 H 0.19059 0.81505 0.18273 0.0
H2514 H 0.14589 0.744 0.21319 0.0
H2515 H 0.16139 0.78012 0.21725 0.0
H2516 H 0.27175 0.75734 0.18661 0.0
H2517 H 0.28644 0.79335 0.18224 0.0
H2518 H 0.23744 0.72131 0.16304 0.0
H2519 H 0.20208 0.70073 0.17515 0.0
C2520 C 0.1905 0.19218 0.74788 0.0
C2521 C 0.21209 0.21495 0.72427 0.0
C2522 C 0.23606 0.23529 0.79403 0.0
C2523 C 0.21272 0.21462 0.81785 0.0
N2524 N 0.16505 0.17649 0.81671 0.0
N2525 N 0.25123 0.26221 0.72664 0.0
C2526 C 0.18914 0.1939 0.7946 0.0
C2527 C 0.23371 0.23771 0.74778 0.0
N2528 N 0.1719 0.16842 0.72615 0.0
N2529 N 0.26097 0.25176 0.81487 0.0
H2530 H 0.24909 0.26579 0.69334 0.0
H2531 H 0.26569 0.28009 0.7435 0.0
H2532 H 0.26439 0.24954 0.84822 0.0
H2533 H 0.27914 0.26533 0.79774 0.0
H2534 H 0.15766 0.1502 0.74249 0.0
H2535 H 0.17255 0.16591 0.69213 0.0
H2536 H 0.1464 0.16303 0.80065 0.0
H2537 H 0.16288 0.17748 0.85076 0.0
C2538 C 0.77361 0.9719 0.8032 0.0
C2539 C 0.78254 0.99751 0.82549 0.0
C2540 C 0.78974 0.02179 0.75471 0.0
C2541 C 0.77973 0.99596 0.73244 0.0
N2542 N 0.75535 0.94555 0.73553 0.0
N2543 N 0.79249 0.04527 0.82375 0.0
C2544 C 0.76978 0.97072 0.75666 0.0
C2545 C 0.78878 0.02207 0.80164 0.0
N2546 N 0.76941 0.94887 0.82633 0.0
N2547 N 0.80089 0.04616 0.73121 0.0
H2548 H 0.79132 0.04615 0.85814 0.0
H2549 H 0.79402 0.06272 0.80793 0.0
H2550 H 0.80111 0.04688 0.69674 0.0
H2551 H 0.81169 0.0658 0.74584 0.0
H2552 H 0.76624 0.93058 0.81127 0.0
H2553 H 0.77109 0.9487 0.86068 0.0
H2554 H 0.7451 0.92652 0.75215 0.0
H2555 H 0.75109 0.94368 0.70165 0.0
C2556 C 0.97382 0.76094 0.7498 0.0
C2557 C 0.99983 0.77605 0.72775 0.0
C2558 C 0.02369 0.79434 0.79849 0.0
C2559 C 0.99787 0.77841 0.82066 0.0
N2560 N 0.9497 0.74151 0.819 0.0
N2561 N 0.05021 0.80125 0.73128 0.0
C2562 C 0.97325 0.76029 0.79679 0.0
C2563 C 0.02501 0.79115 0.75212 0.0
N2564 N 0.94959 0.74782 0.72596 0.0
N2565 N 0.04682 0.81305 0.82152 0.0
H2566 H 0.05213 0.79856 0.69753 0.0
H2567 H 0.06917 0.80982 0.74808 0.0
H2568 H 0.0469 0.81534 0.85576 0.0
H2569 H 0.06534 0.82769 0.80639 0.0
H2570 H 0.92987 0.7395 0.74017 0.0
H2571 H 0.94914 0.74682 0.6915 0.0
H2572 H 0.9321 0.72572 0.80336 0.0
H2573 H 0.94859 0.73989 0.85346 0.0
C2574 C 0.78542 0.7616 0.29867 0.0
C2575 C 0.77767 0.77917 0.32144 0.0
C2576 C 0.76404 0.7912 0.25137 0.0
C2577 C 0.77495 0.77641 0.22823 0.0
N2578 N 0.79849 0.74959 0.22909 0.0
N2579 N 0.76265 0.81324 0.31974 0.0
C2580 C 0.78629 0.76212 0.25166 0.0
C2581 C 0.76783 0.7947 0.29787 0.0
N2582 N 0.79064 0.74342 0.32187 0.0
N2583 N 0.74867 0.80057 0.22932 0.0
H2584 H 0.76458 0.81587 0.35392 0.0
H2585 H 0.75864 0.82755 0.30372 0.0
H2586 H 0.74447 0.7976 0.19546 0.0
H2587 H 0.73767 0.80879 0.24522 0.0
H2588 H 0.79323 0.7279 0.30694 0.0
H2589 H 0.78989 0.74204 0.35634 0.0
H2590 H 0.81021 0.74195 0.24437 0.0
H2591 H 0.79861 0.74854 0.19467 0.0
C2592 C 0.22446 0.0265 0.29805 0.0
C2593 C 0.21449 0.00116 0.32203 0.0
C2594 C 0.20507 0.97527 0.25245 0.0
C2595 C 0.21193 7e-05 0.22879 0.0
N2596 N 0.22462 0.04858 0.22874 0.0
N2597 N 0.19205 0.95085 0.32258 0.0
C2598 C 0.22058 0.02549 0.25151 0.0
C2599 C 0.20385 0.97535 0.29938 0.0
N2600 N 0.2392 0.05161 0.31923 0.0
N2601 N 0.20122 0.95203 0.23026 0.0
H2602 H 0.19141 0.94997 0.35703 0.0
H2603 H 0.18097 0.93132 0.30764 0.0
H2604 H 0.20255 0.95117 0.19589 0.0
H2605 H 0.19936 0.93443 0.24608 0.0
H2606 H 0.24953 0.07064 0.3026 0.0
H2607 H 0.24366 0.05347 0.35303 0.0
H2608 H 0.22774 0.06677 0.24413 0.0
H2609 H 0.22257 0.04878 0.19446 0.0
C2610 C 0.97428 0.20783 0.24668 0.0
C2611 C 0.00053 0.2231 0.22543 0.0
C2612 C 0.02417 0.23635 0.29726 0.0
C2613 C 0.99782 0.22194 0.31851 0.0
N2614 N 0.94763 0.20037 0.31391 0.0
N2615 N 0.04951 0.25763 0.22971 0.0
C2616 C 0.97277 0.20942 0.29338 0.0
C2617 C 0.02526 0.23898 0.25047 0.0
N2618 N 0.95087 0.19123 0.22242 0.0
N2619 N 0.04818 0.24687 0.32157 0.0
H2620 H 0.05101 0.26084 0.19552 0.0
H2621 H 0.06742 0.27194 0.2466 0.0
H2622 H 0.04837 0.24628 0.35604 0.0
H2623 H 0.06785 0.25444 0.30749 0.0
H2624 H 0.93181 0.17696 0.23659 0.0
H2625 H 0.95092 0.19021 0.18799 0.0
H2626 H 0.92902 0.1938 0.2968 0.0
H2627 H 0.94566 0.20207 0.34796 0.0
C2628 C 0.90127 0.57186 0.08477 0.0
C2629 C 0.88065 0.54855 0.06086 0.0
C2630 C 0.85752 0.52698 0.13089 0.0
C2631 C 0.88049 0.54827 0.15458 0.0
N2632 N 0.92834 0.58639 0.15191 0.0
N2633 N 0.84213 0.50104 0.06245 0.0
C2634 C 0.9036 0.56943 0.13099 0.0
C2635 C 0.85956 0.52524 0.08424 0.0
N2636 N 0.91781 0.59682 0.0641 0.0
N2637 N 0.83339 0.50905 0.15242 0.0
H2638 H 0.84358 0.49845 0.02861 0.0
H2639 H 0.82826 0.48265 0.07879 0.0
H2640 H 0.83058 0.51029 0.18626 0.0
H2641 H 0.81519 0.49495 0.13587 0.0
H2642 H 0.93146 0.61487 0.08142 0.0
H2643 H 0.91542 0.60046 0.03093 0.0
H2644 H 0.9463 0.60049 0.13479 0.0
H2645 H 0.932 0.584 0.18507 0.0
C2646 C 0.45398 0.3538 0.13392 0.0
C2647 C 0.44791 0.32927 0.1577 0.0
C2648 C 0.43529 0.30256 0.0888 0.0
C2649 C 0.44493 0.32778 0.06464 0.0
N2650 N 0.46616 0.378 0.06358 0.0
N2651 N 0.43549 0.28083 0.15829 0.0
C2652 C 0.45496 0.35359 0.087 0.0
C2653 C 0.43928 0.30376 0.1353 0.0
N2654 N 0.45751 0.37692 0.15608 0.0
N2655 N 0.42094 0.27738 0.06769 0.0
H2656 H 0.43738 0.28069 0.1926 0.0
H2657 H 0.43254 0.26265 0.14309 0.0
H2658 H 0.41649 0.27545 0.03388 0.0
H2659 H 0.41093 0.25834 0.08434 0.0
H2660 H 0.45888 0.39431 0.14028 0.0
H2661 H 0.45635 0.37778 0.19049 0.0
H2662 H 0.47687 0.39761 0.07833 0.0
H2663 H 0.46667 0.37878 0.0291 0.0
C2664 C 0.64328 0.10172 0.07864 0.0
C2665 C 0.66969 0.11556 0.05742 0.0
C2666 C 0.69328 0.12665 0.12955 0.0
C2667 C 0.66687 0.11461 0.15071 0.0
N2668 N 0.61663 0.09283 0.14632 0.0
N2669 N 0.72 0.14327 0.06167 0.0
C2670 C 0.64185 0.10299 0.12549 0.0
C2671 C 0.69474 0.12885 0.0826 0.0
N2672 N 0.6196 0.08643 0.05412 0.0
N2673 N 0.71689 0.13504 0.15427 0.0
H2674 H 0.72243 0.14342 0.02742 0.0
H2675 H 0.7386 0.15644 0.078 0.0
H2676 H 0.71681 0.13437 0.18874 0.0
H2677 H 0.73636 0.14081 0.14082 0.0
H2678 H 0.60011 0.07305 0.0678 0.0
H2679 H 0.61962 0.0854 0.0197 0.0
H2680 H 0.59813 0.08763 0.12979 0.0
H2681 H 0.61417 0.09097 0.1806 0.0
C2682 C 0.44427 0.13413 0.62692 0.0
C2683 C 0.45338 0.11814 0.6509 0.0
C2684 C 0.46006 0.09921 0.58152 0.0
C2685 C 0.44873 0.11344 0.55792 0.0
N2686 N 0.42407 0.13926 0.55902 0.0
N2687 N 0.46484 0.08129 0.6522 0.0
C2688 C 0.43927 0.12959 0.58079 0.0
C2689 C 0.46 0.09958 0.62856 0.0
N2690 N 0.44092 0.15408 0.64804 0.0
N2691 N 0.47142 0.08584 0.55907 0.0
H2692 H 0.46471 0.08056 0.68673 0.0
H2693 H 0.46654 0.06513 0.6377 0.0
H2694 H 0.47122 0.08447 0.52465 0.0
H2695 H 0.48295 0.07797 0.57435 0.0
H2696 H 0.43732 0.16851 0.63146 0.0
H2697 H 0.44427 0.15785 0.68186 0.0
H2698 H 0.41406 0.14849 0.57509 0.0
H2699 H 0.41894 0.13557 0.52552 0.0
C2700 C 0.90172 0.36067 0.62994 0.0
C2701 C 0.88807 0.33544 0.65458 0.0
C2702 C 0.87712 0.30841 0.58607 0.0
C2703 C 0.88719 0.3335 0.56145 0.0
N2704 N 0.90708 0.3835 0.55928 0.0
N2705 N 0.86071 0.28515 0.65667 0.0
C2706 C 0.89904 0.35967 0.58317 0.0
C2707 C 0.87527 0.30924 0.63284 0.0
N2708 N 0.91844 0.38544 0.65102 0.0
N2709 N 0.87062 0.28402 0.56495 0.0
H2710 H 0.85962 0.28476 0.69112 0.0
H2711 H 0.84807 0.26572 0.64219 0.0
H2712 H 0.87251 0.28266 0.53079 0.0
H2713 H 0.86605 0.26572 0.58159 0.0
H2714 H 0.93123 0.40404 0.63434 0.0
H2715 H 0.92181 0.38701 0.68516 0.0
H2716 H 0.91257 0.40266 0.57372 0.0
H2717 H 0.90638 0.38378 0.52482 0.0
C2718 C 0.69199 0.56529 0.58795 0.0
C2719 C 0.66682 0.5525 0.56313 0.0
C2720 C 0.63967 0.54187 0.63153 0.0
C2721 C 0.66461 0.55116 0.65627 0.0
N2722 N 0.71434 0.56929 0.65861 0.0
N2723 N 0.61646 0.52641 0.56072 0.0
C2724 C 0.69076 0.56227 0.63467 0.0
C2725 C 0.64056 0.54024 0.58473 0.0
N2726 N 0.71698 0.58158 0.56715 0.0
N2727 N 0.61542 0.53596 0.65258 0.0
H2728 H 0.61613 0.52555 0.52626 0.0
H2729 H 0.5969 0.51411 0.57506 0.0
H2730 H 0.61401 0.53766 0.68677 0.0
H2731 H 0.59733 0.53204 0.63588 0.0
H2732 H 0.73563 0.59379 0.58405 0.0
H2733 H 0.71877 0.58526 0.53309 0.0
H2734 H 0.73337 0.57422 0.64419 0.0
H2735 H 0.71445 0.56817 0.69304 0.0
C2736 C 0.56734 0.90367 0.41533 0.0
C2737 C 0.54584 0.88066 0.39208 0.0
C2738 C 0.52381 0.85945 0.46294 0.0
C2739 C 0.54747 0.88042 0.4858 0.0
N2740 N 0.59558 0.91781 0.48132 0.0
N2741 N 0.5064 0.8337 0.39467 0.0
C2742 C 0.57038 0.90123 0.46137 0.0
C2743 C 0.5248 0.85767 0.41609 0.0
N2744 N 0.5841 0.92841 0.39423 0.0
N2745 N 0.49997 0.84188 0.48548 0.0
H2746 H 0.50693 0.83112 0.36063 0.0
H2747 H 0.49255 0.81542 0.41128 0.0
H2748 H 0.49797 0.84307 0.51954 0.0
H2749 H 0.4813 0.82814 0.46973 0.0
H2750 H 0.59843 0.94636 0.41111 0.0
H2751 H 0.58135 0.93206 0.36122 0.0
H2752 H 0.61339 0.93158 0.46357 0.0
H2753 H 0.59966 0.9154 0.51426 0.0
C2754 C 0.12415 0.69312 0.46094 0.0
C2755 C 0.11656 0.66863 0.48599 0.0
C2756 C 0.10181 0.64059 0.41838 0.0
C2757 C 0.11292 0.6655 0.39298 0.0
N2758 N 0.13706 0.71585 0.38943 0.0
N2759 N 0.10074 0.61935 0.48899 0.0
C2760 C 0.12469 0.6919 0.41405 0.0
C2761 C 0.10606 0.64241 0.46485 0.0
N2762 N 0.12948 0.71723 0.48186 0.0
N2763 N 0.08589 0.61522 0.39847 0.0
H2764 H 0.10279 0.61967 0.52331 0.0
H2765 H 0.09633 0.60044 0.4747 0.0
H2766 H 0.08127 0.61295 0.36471 0.0
H2767 H 0.07483 0.5966 0.416 0.0
H2768 H 0.13207 0.73485 0.46512 0.0
H2769 H 0.12861 0.71888 0.51617 0.0
H2770 H 0.14903 0.73563 0.40319 0.0
H2771 H 0.1371 0.71594 0.35495 0.0
C2772 C 0.30848 0.43218 0.41735 0.0
C2773 C 0.3348 0.44648 0.39593 0.0
C2774 C 0.35815 0.46339 0.46743 0.0
C2775 C 0.33204 0.44781 0.48898 0.0
N2776 N 0.2834 0.41211 0.48557 0.0
N2777 N 0.38511 0.46973 0.40099 0.0
C2778 C 0.30743 0.43076 0.46429 0.0
C2779 C 0.3598 0.46053 0.42104 0.0
N2780 N 0.28444 0.4205 0.39298 0.0
N2781 N 0.38128 0.4814 0.49112 0.0
H2782 H 0.38728 0.46705 0.36732 0.0
H2783 H 0.40378 0.47741 0.41842 0.0
H2784 H 0.38106 0.48353 0.52536 0.0
H2785 H 0.40013 0.49575 0.47647 0.0
H2786 H 0.26472 0.41286 0.40692 0.0
H2787 H 0.28422 0.42025 0.35849 0.0
H2788 H 0.26573 0.39699 0.46912 0.0
H2789 H 0.28185 0.40981 0.51992 0.0
C2790 C 0.09837 0.43455 0.9197 0.0
C2791 C 0.12096 0.45588 0.89546 0.0
C2792 C 0.14333 0.47877 0.96521 0.0
C2793 C 0.12264 0.45545 0.98903 0.0
N2794 N 0.0849 0.40747 0.98701 0.0
N2795 N 0.16778 0.49562 0.89576 0.0
C2796 C 0.1014 0.43224 0.96579 0.0
C2797 C 0.14428 0.4773 0.91834 0.0
N2798 N 0.07348 0.41727 0.89941 0.0
N2799 N 0.16147 0.50272 0.98695 0.0
H2800 H 0.16969 0.49493 0.86158 0.0
H2801 H 0.18636 0.50968 0.91141 0.0
H2802 H 0.16112 0.50494 0.02112 0.0
H2803 H 0.17496 0.52127 0.97065 0.0
H2804 H 0.05574 0.4031 0.91691 0.0
H2805 H 0.06949 0.41935 0.86628 0.0
H2806 H 0.07087 0.38934 0.97024 0.0
H2807 H 0.08752 0.40406 0.0202 0.0
C2808 C 0.53052 0.63721 0.91835 0.0
C2809 C 0.54506 0.66188 0.89251 0.0
C2810 C 0.5584 0.69069 0.95957 0.0
C2811 C 0.54511 0.66594 0.98551 0.0
N2812 N 0.52155 0.61573 0.99103 0.0
N2813 N 0.57534 0.71175 0.88744 0.0
C2814 C 0.53191 0.63921 0.96529 0.0
C2815 C 0.55961 0.68855 0.91281 0.0
N2816 N 0.51563 0.6118 0.89803 0.0
N2817 N 0.57019 0.71627 0.97967 0.0
H2818 H 0.57591 0.71129 0.85297 0.0
H2819 H 0.58925 0.73132 0.90027 0.0
H2820 H 0.57242 0.71906 0.01387 0.0
H2821 H 0.57676 0.73492 0.96272 0.0
H2822 H 0.50154 0.59359 0.91445 0.0
H2823 H 0.51617 0.60886 0.86403 0.0
H2824 H 0.51481 0.59582 0.97866 0.0
H2825 H 0.5213 0.6162 0.0255 0.0
C2826 C 0.30863 0.87309 0.91686 0.0
C2827 C 0.33521 0.8882 0.89654 0.0
C2828 C 0.3576 0.90257 0.96922 0.0
C2829 C 0.33088 0.88854 0.98944 0.0
N2830 N 0.28078 0.86658 0.98232 0.0
N2831 N 0.38412 0.92276 0.90216 0.0
C2832 C 0.3063 0.87545 0.96324 0.0
C2833 C 0.3595 0.90445 0.92235 0.0
N2834 N 0.28569 0.85591 0.89207 0.0
N2835 N 0.38119 0.91344 0.99463 0.0
H2836 H 0.38627 0.92537 0.86789 0.0
H2837 H 0.40172 0.93735 0.91939 0.0
H2838 H 0.38082 0.91342 0.02911 0.0
H2839 H 0.40108 0.92071 0.98158 0.0
H2840 H 0.26643 0.8418 0.90581 0.0
H2841 H 0.28639 0.85421 0.85781 0.0
H2842 H 0.26246 0.85959 0.96418 0.0
H2843 H 0.27819 0.86883 0.01599 0.0
loop_
_geom_bond_atom_site_label_1
_geom_bond_atom_site_label_2
_geom_bond_distance
_geom_bond_site_symmetry_2
_ccdc_geom_bond_type
Co0 O3 1.970 . S
Co0 N17 1.989 . S
Co0 O25 1.967 . S
Co0 O32 1.920 . S
Co1 O4 1.966 . S
Co1 N10 2.022 . S
Co1 N18 1.993 . S
Co1 O26 1.941 . S
C2 O3 1.258 . S
C2 O4 1.263 1_556 S
O3 Co0 1.970 . S
O3 C2 1.258 . S
O4 Co1 1.966 . S
O4 C2 1.263 1_554 S
C5 O6 1.235 . S
C5 O32 1.289 . S
O6 C5 1.235 . S
C7 C9 1.400 . S
C7 N10 1.351 . S
C7 C12 1.501 . S
C8 C9 1.387 . S
C8 N11 1.341 . S
C9 C7 1.400 . S
C9 C8 1.387 . S
N10 Co1 2.022 . S
N10 C7 1.351 . S
N10 N11 1.365 . S
N11 C8 1.341 . S
N11 N10 1.365 . S
N11 H31 0.862 . S
C12 C7 1.501 . S
C12 H13 0.961 . S
C12 H14 0.961 . S
C12 H15 0.960 . S
H13 C12 0.961 . S
H14 C12 0.961 . S
H15 C12 0.960 . S
C16 N17 1.342 . S
C16 C20 1.401 1_556 S
C16 C21 1.499 . S
N17 Co0 1.989 . S
N17 C16 1.342 . S
N17 N18 1.388 1_556 S
N18 Co1 1.993 . S
N18 N17 1.388 1_554 S
N18 C19 1.346 . S
C19 N18 1.346 . S
C19 C20 1.396 . S
C19 C29 1.510 . S
C20 C16 1.401 1_554 S
C20 C19 1.396 . S
C21 C16 1.499 . S
C21 H22 0.959 . S
C21 H23 0.960 . S
C21 H24 0.961 . S
H22 C21 0.959 . S
H23 C21 0.960 . S
H24 C21 0.961 . S
O25 Co0 1.967 . S
O25 C33 1.258 1_556 S
O26 Co1 1.941 . S
O26 C33 1.266 . S
H27 C29 0.959 . S
H28 C29 0.961 . S
C29 C19 1.510 . S
C29 H27 0.959 . S
C29 H28 0.961 . S
C29 H30 0.960 . S
H30 C29 0.960 . S
H31 N11 0.862 . S
O32 Co0 1.920 . S
O32 C5 1.289 . S
C33 O25 1.258 1_554 S
C33 O26 1.266 . S
Co34 O37 1.970 . S
Co34 N51 1.989 1_545 S
Co34 O59 1.967 . S
Co34 O66 1.920 . S
Co35 O38 1.966 . S
Co35 N44 2.022 . S
Co35 N52 1.993 1_545 S
Co35 O60 1.941 . S
C36 O37 1.258 . S
C36 O38 1.263 1_556 S
O37 Co34 1.970 . S
O37 C36 1.258 . S
O38 Co35 1.966 . S
O38 C36 1.263 1_554 S
C39 O40 1.231 1_545 S
C39 O66 1.296 . S
O40 C39 1.231 1_565 S
C41 C43 1.400 . S
C41 N44 1.351 . S
C41 C46 1.501 . S
C42 C43 1.387 . S
C42 N45 1.341 . S
C43 C41 1.400 . S
C43 C42 1.387 . S
N44 Co35 2.022 . S
N44 C41 1.351 . S
N44 N45 1.365 . S
N45 C42 1.341 . S
N45 N44 1.365 . S
N45 H65 0.862 . S
C46 C41 1.501 . S
C46 H47 0.961 . S
C46 H48 0.941 1_545 S
C46 H49 0.960 . S
H47 C46 0.961 . S
H48 C46 0.941 1_565 S
H49 C46 0.960 . S
C50 N51 1.342 . S
C50 C54 1.401 1_556 S
C50 C55 1.499 . S
N51 Co34 1.989 1_565 S
N51 C50 1.342 . S
N51 N52 1.388 1_556 S
N52 Co35 1.993 1_565 S
N52 N51 1.388 1_554 S
N52 C53 1.346 . S
C53 N52 1.346 . S
C53 C54 1.396 . S
C53 C63 1.510 . S
C54 C50 1.401 1_554 S
C54 C53 1.396 . S
C55 C50 1.499 . S
C55 H56 0.959 . S
C55 H57 0.960 . S
C55 H58 0.961 . S
H56 C55 0.959 . S
H57 C55 0.960 . S
H58 C55 0.961 . S
O59 Co34 1.967 . S
O59 C67 1.258 1_556 S
O60 Co35 1.941 . S
O60 C67 1.266 . S
H61 C63 0.959 . S
H62 C63 0.961 . S
C63 C53 1.510 . S
C63 H61 0.959 . S
C63 H62 0.961 . S
C63 H64 0.960 . S
H64 C63 0.960 . S
H65 N45 0.862 . S
O66 Co34 1.920 . S
O66 C39 1.296 . S
C67 O59 1.258 1_554 S
C67 O60 1.266 . S
Co68 O71 1.970 . S
Co68 N85 1.989 1_655 S
Co68 O93 1.967 . S
Co68 O100 1.920 . S
Co69 O72 1.966 . S
Co69 N78 2.022 . S
Co69 N86 1.993 1_655 S
Co69 O94 1.941 . S
C70 O71 1.258 . S
C70 O72 1.263 1_556 S
O71 Co68 1.970 . S
O71 C70 1.258 . S
O72 Co69 1.966 . S
O72 C70 1.263 1_554 S
C73 O74 1.224 1_655 S
C73 O100 1.298 . S
O74 C73 1.224 1_455 S
C75 C77 1.400 . S
C75 N78 1.351 . S
C75 C80 1.501 . S
C76 C77 1.387 . S
C76 N79 1.341 . S
C77 C75 1.400 . S
C77 C76 1.387 . S
N78 Co69 2.022 . S
N78 C75 1.351 . S
N78 N79 1.365 . S
N79 C76 1.341 . S
N79 N78 1.365 . S
N79 H99 0.862 . S
C80 C75 1.501 . S
C80 H81 0.961 . S
C80 H82 0.961 1_655 S
C80 H83 0.960 . S
H81 C80 0.961 . S
H82 C80 0.961 1_455 S
H83 C80 0.960 . S
C84 N85 1.342 . S
C84 C88 1.401 1_556 S
C84 C89 1.499 . S
N85 Co68 1.989 1_455 S
N85 C84 1.342 . S
N85 N86 1.388 1_556 S
N86 Co69 1.993 1_455 S
N86 N85 1.388 1_554 S
N86 C87 1.346 . S
C87 N86 1.346 . S
C87 C88 1.396 . S
C87 C97 1.510 . S
C88 C84 1.401 1_554 S
C88 C87 1.396 . S
C89 C84 1.499 . S
C89 H90 0.959 . S
C89 H91 0.960 . S
C89 H92 0.961 . S
H90 C89 0.959 . S
H91 C89 0.960 . S
H92 C89 0.961 . S
O93 Co68 1.967 . S
O93 C101 1.258 1_556 S
O94 Co69 1.941 . S
O94 C101 1.266 . S
H95 C97 0.959 . S
H96 C97 0.961 . S
C97 C87 1.510 . S
C97 H95 0.959 . S
C97 H96 0.961 . S
C97 H98 0.960 . S
H98 C97 0.960 . S
H99 N79 0.862 . S
O100 Co68 1.920 . S
O100 C73 1.298 . S
C101 O93 1.258 1_554 S
C101 O94 1.266 . S
Co102 O105 1.970 . S
Co102 N119 1.989 . S
Co102 O127 1.967 . S
Co102 O134 1.920 . S
Co103 O106 1.966 . S
Co103 N112 2.022 . S
Co103 N120 1.993 . S
Co103 O128 1.941 . S
C104 O105 1.258 . S
C104 O106 1.263 . S
O105 Co102 1.970 . S
O105 C104 1.258 . S
O106 Co103 1.966 . S
O106 C104 1.263 . S
C107 O108 1.235 . S
C107 O134 1.289 . S
O108 C107 1.235 . S
C109 C111 1.400 . S
C109 N112 1.351 . S
C109 C114 1.501 . S
C110 C111 1.387 . S
C110 N113 1.341 . S
C111 C109 1.400 . S
C111 C110 1.387 . S
N112 Co103 2.022 . S
N112 C109 1.351 . S
N112 N113 1.365 . S
N113 C110 1.341 . S
N113 N112 1.365 . S
N113 H133 0.862 . S
C114 C109 1.501 . S
C114 H115 0.961 . S
C114 H116 0.961 . S
C114 H117 0.960 . S
H115 C114 0.961 . S
H116 C114 0.961 . S
H117 C114 0.960 . S
C118 N119 1.342 . S
C118 C122 1.401 . S
C118 C123 1.499 . S
N119 Co102 1.989 . S
N119 C118 1.342 . S
N119 N120 1.388 . S
N120 Co103 1.993 . S
N120 N119 1.388 . S
N120 C121 1.346 . S
C121 N120 1.346 . S
C121 C122 1.396 . S
C121 C131 1.510 . S
C122 C118 1.401 . S
C122 C121 1.396 . S
C123 C118 1.499 . S
C123 H124 0.959 . S
C123 H125 0.960 . S
C123 H126 0.961 . S
H124 C123 0.959 . S
H125 C123 0.960 . S
H126 C123 0.961 . S
O127 Co102 1.967 . S
O127 C135 1.258 . S
O128 Co103 1.941 . S
O128 C135 1.266 . S
H129 C131 0.959 . S
H130 C131 0.961 . S
C131 C121 1.510 . S
C131 H129 0.959 . S
C131 H130 0.961 . S
C131 H132 0.960 . S
H132 C131 0.960 . S
H133 N113 0.862 . S
O134 Co102 1.920 . S
O134 C107 1.289 . S
C135 O127 1.258 . S
C135 O128 1.266 . S
Co136 O139 1.970 . S
Co136 N153 1.989 1_565 S
Co136 O161 1.967 . S
Co136 O168 1.920 . S
Co137 O140 1.966 . S
Co137 N146 2.022 . S
Co137 N154 1.993 1_565 S
Co137 O162 1.941 . S
C138 O139 1.258 . S
C138 O140 1.263 . S
O139 Co136 1.970 . S
O139 C138 1.258 . S
O140 Co137 1.966 . S
O140 C138 1.263 . S
C141 O142 1.191 1_565 S
C141 O168 1.327 . S
O142 C141 1.191 1_545 S
C143 C145 1.400 . S
C143 N146 1.351 . S
C143 C148 1.501 . S
C144 C145 1.387 . S
C144 N147 1.341 . S
C145 C143 1.400 . S
C145 C144 1.387 . S
N146 Co137 2.022 . S
N146 C143 1.351 . S
N146 N147 1.365 . S
N147 C144 1.341 . S
N147 N146 1.365 . S
N147 H167 0.862 . S
C148 C143 1.501 . S
C148 H149 0.961 . S
C148 H150 0.946 1_565 S
C148 H151 0.960 . S
H149 C148 0.961 . S
H150 C148 0.946 1_545 S
H151 C148 0.960 . S
C152 N153 1.342 . S
C152 C156 1.401 . S
C152 C157 1.499 . S
N153 Co136 1.989 1_545 S
N153 C152 1.342 . S
N153 N154 1.388 . S
N154 Co137 1.993 1_545 S
N154 N153 1.388 . S
N154 C155 1.346 . S
C155 N154 1.346 . S
C155 C156 1.396 . S
C155 C165 1.510 . S
C156 C152 1.401 . S
C156 C155 1.396 . S
C157 C152 1.499 . S
C157 H158 0.959 . S
C157 H159 0.960 . S
C157 H160 0.961 . S
H158 C157 0.959 . S
H159 C157 0.960 . S
H160 C157 0.961 . S
O161 Co136 1.967 . S
O161 C169 1.258 . S
O162 Co137 1.941 . S
O162 C169 1.266 . S
H163 C165 0.959 . S
H164 C165 0.961 . S
C165 C155 1.510 . S
C165 H163 0.959 . S
C165 H164 0.961 . S
C165 H166 0.960 . S
H166 C165 0.960 . S
H167 N147 0.862 . S
O168 Co136 1.920 . S
O168 C141 1.327 . S
C169 O161 1.258 . S
C169 O162 1.266 . S
Co170 O173 1.970 . S
Co170 N187 1.989 1_455 S
Co170 O195 1.967 . S
Co170 O202 1.920 . S
Co171 O174 1.966 . S
Co171 N180 2.022 . S
Co171 N188 1.993 1_455 S
Co171 O196 1.941 . S
C172 O173 1.258 . S
C172 O174 1.263 . S
O173 Co170 1.970 . S
O173 C172 1.258 . S
O174 Co171 1.966 . S
O174 C172 1.263 . S
C175 O176 1.235 1_455 S
C175 O202 1.289 . S
O176 C175 1.235 1_655 S
C177 C179 1.400 . S
C177 N180 1.351 . S
C177 C182 1.501 . S
C178 C179 1.387 . S
C178 N181 1.341 . S
C179 C177 1.400 . S
C179 C178 1.387 . S
N180 Co171 2.022 . S
N180 C177 1.351 . S
N180 N181 1.365 . S
N181 C178 1.341 . S
N181 N180 1.365 . S
N181 H201 0.862 . S
C182 C177 1.501 . S
C182 H183 0.961 . S
C182 H184 0.960 1_455 S
C182 H185 0.960 . S
H183 C182 0.961 . S
H184 C182 0.960 1_655 S
H185 C182 0.960 . S
C186 N187 1.342 . S
C186 C190 1.401 . S
C186 C191 1.499 . S
N187 Co170 1.989 1_655 S
N187 C186 1.342 . S
N187 N188 1.388 . S
N188 Co171 1.993 1_655 S
N188 N187 1.388 . S
N188 C189 1.346 . S
C189 N188 1.346 . S
C189 C190 1.396 . S
C189 C199 1.510 . S
C190 C186 1.401 . S
C190 C189 1.396 . S
C191 C186 1.499 . S
C191 H192 0.959 . S
C191 H193 0.960 . S
C191 H194 0.961 . S
H192 C191 0.959 . S
H193 C191 0.960 . S
H194 C191 0.961 . S
O195 Co170 1.967 . S
O195 C203 1.258 . S
O196 Co171 1.941 . S
O196 C203 1.266 . S
H197 C199 0.959 . S
H198 C199 0.961 . S
C199 C189 1.510 . S
C199 H197 0.959 . S
C199 H198 0.961 . S
C199 H200 0.960 . S
H200 C199 0.960 . S
H201 N181 0.862 . S
O202 Co170 1.920 . S
O202 C175 1.289 . S
C203 O195 1.258 . S
C203 O196 1.266 . S
Co204 O207 1.970 . S
Co204 N221 1.989 . S
Co204 O229 1.967 . S
Co204 O236 1.920 . S
Co205 O208 1.966 1_556 S
Co205 N214 2.022 . S
Co205 N222 1.993 1_556 S
Co205 O230 1.941 1_556 S
C206 O207 1.258 . S
C206 O208 1.263 . S
O207 Co204 1.970 . S
O207 C206 1.258 . S
O208 Co205 1.966 1_554 S
O208 C206 1.263 . S
C209 O210 1.235 . S
C209 O236 1.289 . S
O210 C209 1.235 . S
C211 C213 1.400 . S
C211 N214 1.351 . S
C211 C216 1.501 . S
C212 C213 1.387 . S
C212 N215 1.341 . S
C213 C211 1.400 . S
C213 C212 1.387 . S
N214 Co205 2.022 . S
N214 C211 1.351 . S
N214 N215 1.365 . S
N215 C212 1.341 . S
N215 N214 1.365 . S
N215 H235 0.862 . S
C216 C211 1.501 . S
C216 H217 0.961 . S
C216 H218 0.961 . S
C216 H219 0.960 . S
H217 C216 0.961 . S
H218 C216 0.961 . S
H219 C216 0.960 . S
C220 N221 1.342 . S
C220 C224 1.401 . S
C220 C225 1.499 . S
N221 Co204 1.989 . S
N221 C220 1.342 . S
N221 N222 1.388 . S
N222 Co205 1.993 1_554 S
N222 N221 1.388 . S
N222 C223 1.346 1_554 S
C223 N222 1.346 1_556 S
C223 C224 1.396 1_556 S
C223 C233 1.510 . S
C224 C220 1.401 . S
C224 C223 1.396 1_554 S
C225 C220 1.499 . S
C225 H226 0.959 . S
C225 H227 0.960 . S
C225 H228 0.961 . S
H226 C225 0.959 . S
H227 C225 0.960 . S
H228 C225 0.961 . S
O229 Co204 1.967 . S
O229 C237 1.258 . S
O230 Co205 1.941 1_554 S
O230 C237 1.266 . S
H231 C233 0.959 . S
H232 C233 0.961 . S
C233 C223 1.510 . S
C233 H231 0.959 . S
C233 H232 0.961 . S
C233 H234 0.960 . S
H234 C233 0.960 . S
H235 N215 0.862 . S
O236 Co204 1.920 . S
O236 C209 1.289 . S
C237 O229 1.258 . S
C237 O230 1.266 . S
Co238 O241 1.970 . S
Co238 N255 1.989 1_565 S
Co238 O263 1.967 . S
Co238 O270 1.920 . S
Co239 O242 1.966 1_556 S
Co239 N248 2.022 . S
Co239 N256 1.993 1_566 S
Co239 O264 1.941 1_556 S
C240 O241 1.258 . S
C240 O242 1.263 . S
O241 Co238 1.970 . S
O241 C240 1.258 . S
O242 Co239 1.966 1_554 S
O242 C240 1.263 . S
C243 O244 1.227 1_565 S
C243 O270 1.302 . S
O244 C243 1.227 1_545 S
C245 C247 1.400 . S
C245 N248 1.351 . S
C245 C250 1.501 . S
C246 C247 1.387 . S
C246 N249 1.341 . S
C247 C245 1.400 . S
C247 C246 1.387 . S
N248 Co239 2.022 . S
N248 C245 1.351 . S
N248 N249 1.365 . S
N249 C246 1.341 . S
N249 N248 1.365 . S
N249 H269 0.862 . S
C250 C245 1.501 . S
C250 H251 0.961 . S
C250 H252 0.954 1_565 S
C250 H253 0.960 . S
H251 C250 0.961 . S
H252 C250 0.954 1_545 S
H253 C250 0.960 . S
C254 N255 1.342 . S
C254 C258 1.401 . S
C254 C259 1.499 . S
N255 Co238 1.989 1_545 S
N255 C254 1.342 . S
N255 N256 1.388 . S
N256 Co239 1.993 1_544 S
N256 N255 1.388 . S
N256 C257 1.346 1_554 S
C257 N256 1.346 1_556 S
C257 C258 1.396 1_556 S
C257 C267 1.510 . S
C258 C254 1.401 . S
C258 C257 1.396 1_554 S
C259 C254 1.499 . S
C259 H260 0.959 . S
C259 H261 0.960 . S
C259 H262 0.961 . S
H260 C259 0.959 . S
H261 C259 0.960 . S
H262 C259 0.961 . S
O263 Co238 1.967 . S
O263 C271 1.258 . S
O264 Co239 1.941 1_554 S
O264 C271 1.266 . S
H265 C267 0.959 . S
H266 C267 0.961 . S
C267 C257 1.510 . S
C267 H265 0.959 . S
C267 H266 0.961 . S
C267 H268 0.960 . S
H268 C267 0.960 . S
H269 N249 0.862 . S
O270 Co238 1.920 . S
O270 C243 1.302 . S
C271 O263 1.258 . S
C271 O264 1.266 . S
Co272 O275 1.970 . S
Co272 N289 1.989 1_455 S
Co272 O297 1.967 . S
Co272 O304 1.920 . S
Co273 O276 1.966 1_556 S
Co273 N282 2.022 . S
Co273 N290 1.993 1_456 S
Co273 O298 1.941 1_556 S
C274 O275 1.258 . S
C274 O276 1.263 . S
O275 Co272 1.970 . S
O275 C274 1.258 . S
O276 Co273 1.966 1_554 S
O276 C274 1.263 . S
C277 O278 1.235 1_455 S
C277 O304 1.289 . S
O278 C277 1.235 1_655 S
C279 C281 1.400 . S
C279 N282 1.351 . S
C279 C284 1.501 . S
C280 C281 1.387 . S
C280 N283 1.341 . S
C281 C279 1.400 . S
C281 C280 1.387 . S
N282 Co273 2.022 . S
N282 C279 1.351 . S
N282 N283 1.365 . S
N283 C280 1.341 . S
N283 N282 1.365 . S
N283 H303 0.862 . S
C284 C279 1.501 . S
C284 H285 0.961 . S
C284 H286 0.959 1_455 S
C284 H287 0.960 . S
H285 C284 0.961 . S
H286 C284 0.959 1_655 S
H287 C284 0.960 . S
C288 N289 1.342 . S
C288 C292 1.401 . S
C288 C293 1.499 . S
N289 Co272 1.989 1_655 S
N289 C288 1.342 . S
N289 N290 1.388 . S
N290 Co273 1.993 1_654 S
N290 N289 1.388 . S
N290 C291 1.346 1_554 S
C291 N290 1.346 1_556 S
C291 C292 1.396 1_556 S
C291 C301 1.510 . S
C292 C288 1.401 . S
C292 C291 1.396 1_554 S
C293 C288 1.499 . S
C293 H294 0.959 . S
C293 H295 0.960 . S
C293 H296 0.961 . S
H294 C293 0.959 . S
H295 C293 0.960 . S
H296 C293 0.961 . S
O297 Co272 1.967 . S
O297 C305 1.258 . S
O298 Co273 1.941 1_554 S
O298 C305 1.266 . S
H299 C301 0.959 . S
H300 C301 0.961 . S
C301 C291 1.510 . S
C301 H299 0.959 . S
C301 H300 0.961 . S
C301 H302 0.960 . S
H302 C301 0.960 . S
H303 N283 0.862 . S
O304 Co272 1.920 . S
O304 C277 1.289 . S
C305 O297 1.258 . S
C305 O298 1.266 . S
Co306 O309 1.970 . S
Co306 N323 1.989 . S
Co306 O331 1.967 . S
Co306 O338 1.920 . S
Co307 O310 1.966 . S
Co307 N316 2.022 . S
Co307 N324 1.993 . S
Co307 O332 1.941 . S
C308 O309 1.258 . S
C308 O310 1.263 . S
O309 Co306 1.970 . S
O309 C308 1.258 . S
O310 Co307 1.966 . S
O310 C308 1.263 . S
C311 O312 1.235 . S
C311 O338 1.289 . S
O312 C311 1.235 . S
C313 C315 1.400 . S
C313 N316 1.351 . S
C313 C318 1.501 . S
C314 C315 1.387 . S
C314 N317 1.341 . S
C315 C313 1.400 . S
C315 C314 1.387 . S
N316 Co307 2.022 . S
N316 C313 1.351 . S
N316 N317 1.365 . S
N317 C314 1.341 . S
N317 N316 1.365 . S
N317 H337 0.862 . S
C318 C313 1.501 . S
C318 H319 0.961 . S
C318 H320 0.961 . S
C318 H321 0.960 . S
H319 C318 0.961 . S
H320 C318 0.961 . S
H321 C318 0.960 . S
C322 N323 1.342 . S
C322 C326 1.401 . S
C322 C327 1.499 . S
N323 Co306 1.989 . S
N323 C322 1.342 . S
N323 N324 1.388 . S
N324 Co307 1.993 . S
N324 N323 1.388 . S
N324 C325 1.346 . S
C325 N324 1.346 . S
C325 C326 1.396 . S
C325 C335 1.510 . S
C326 C322 1.401 . S
C326 C325 1.396 . S
C327 C322 1.499 . S
C327 H328 0.959 . S
C327 H329 0.960 . S
C327 H330 0.961 . S
H328 C327 0.959 . S
H329 C327 0.960 . S
H330 C327 0.961 . S
O331 Co306 1.967 . S
O331 C339 1.258 . S
O332 Co307 1.941 . S
O332 C339 1.266 . S
H333 C335 0.959 . S
H334 C335 0.961 . S
C335 C325 1.510 . S
C335 H333 0.959 . S
C335 H334 0.961 . S
C335 H336 0.960 . S
H336 C335 0.960 . S
H337 N317 0.862 . S
O338 Co306 1.920 . S
O338 C311 1.289 . S
C339 O331 1.258 . S
C339 O332 1.266 . S
Co340 O343 1.970 . S
Co340 N357 1.989 1_545 S
Co340 O365 1.967 . S
Co340 O372 1.920 . S
Co341 O344 1.966 . S
Co341 N350 2.022 . S
Co341 N358 1.993 1_545 S
Co341 O366 1.941 . S
C342 O343 1.258 . S
C342 O344 1.263 . S
O343 Co340 1.970 . S
O343 C342 1.258 . S
O344 Co341 1.966 . S
O344 C342 1.263 . S
C345 O346 1.213 1_545 S
C345 O372 1.308 . S
O346 C345 1.213 1_565 S
C347 C349 1.400 . S
C347 N350 1.351 . S
C347 C352 1.501 . S
C348 C349 1.387 . S
C348 N351 1.341 . S
C349 C347 1.400 . S
C349 C348 1.387 . S
N350 Co341 2.022 . S
N350 C347 1.351 . S
N350 N351 1.365 . S
N351 C348 1.341 . S
N351 N350 1.365 . S
N351 H371 0.862 . S
C352 C347 1.501 . S
C352 H353 0.961 . S
C352 H354 0.922 1_545 S
C352 H355 0.960 . S
H353 C352 0.961 . S
H354 C352 0.922 1_565 S
H355 C352 0.960 . S
C356 N357 1.342 . S
C356 C360 1.401 . S
C356 C361 1.499 . S
N357 Co340 1.989 1_565 S
N357 C356 1.342 . S
N357 N358 1.388 . S
N358 Co341 1.993 1_565 S
N358 N357 1.388 . S
N358 C359 1.346 . S
C359 N358 1.346 . S
C359 C360 1.396 . S
C359 C369 1.510 . S
C360 C356 1.401 . S
C360 C359 1.396 . S
C361 C356 1.499 . S
C361 H362 0.959 . S
C361 H363 0.960 . S
C361 H364 0.961 . S
H362 C361 0.959 . S
H363 C361 0.960 . S
H364 C361 0.961 . S
O365 Co340 1.967 . S
O365 C373 1.258 . S
O366 Co341 1.941 . S
O366 C373 1.266 . S
H367 C369 0.959 . S
H368 C369 0.961 . S
C369 C359 1.510 . S
C369 H367 0.959 . S
C369 H368 0.961 . S
C369 H370 0.960 . S
H370 C369 0.960 . S
H371 N351 0.862 . S
O372 Co340 1.920 . S
O372 C345 1.308 . S
C373 O365 1.258 . S
C373 O366 1.266 . S
Co374 O377 1.970 . S
Co374 N391 1.989 1_655 S
Co374 O399 1.967 . S
Co374 O406 1.920 . S
Co375 O378 1.966 . S
Co375 N384 2.022 . S
Co375 N392 1.993 1_655 S
Co375 O400 1.941 . S
C376 O377 1.258 . S
C376 O378 1.263 . S
O377 Co374 1.970 . S
O377 C376 1.258 . S
O378 Co375 1.966 . S
O378 C376 1.263 . S
C379 O380 1.233 1_655 S
C379 O406 1.292 . S
O380 C379 1.233 1_455 S
C381 C383 1.400 . S
C381 N384 1.351 . S
C381 C386 1.501 . S
C382 C383 1.387 . S
C382 N385 1.341 . S
C383 C381 1.400 . S
C383 C382 1.387 . S
N384 Co375 2.022 . S
N384 C381 1.351 . S
N384 N385 1.365 . S
N385 C382 1.341 . S
N385 N384 1.365 . S
N385 H405 0.862 . S
C386 C381 1.501 . S
C386 H387 0.961 . S
C386 H388 0.961 1_655 S
C386 H389 0.960 . S
H387 C386 0.961 . S
H388 C386 0.961 1_455 S
H389 C386 0.960 . S
C390 N391 1.342 . S
C390 C394 1.401 . S
C390 C395 1.499 . S
N391 Co374 1.989 1_455 S
N391 C390 1.342 . S
N391 N392 1.388 . S
N392 Co375 1.993 1_455 S
N392 N391 1.388 . S
N392 C393 1.346 . S
C393 N392 1.346 . S
C393 C394 1.396 . S
C393 C403 1.510 . S
C394 C390 1.401 . S
C394 C393 1.396 . S
C395 C390 1.499 . S
C395 H396 0.959 . S
C395 H397 0.960 . S
C395 H398 0.961 . S
H396 C395 0.959 . S
H397 C395 0.960 . S
H398 C395 0.961 . S
O399 Co374 1.967 . S
O399 C407 1.258 . S
O400 Co375 1.941 . S
O400 C407 1.266 . S
H401 C403 0.959 . S
H402 C403 0.961 . S
C403 C393 1.510 . S
C403 H401 0.959 . S
C403 H402 0.961 . S
C403 H404 0.960 . S
H404 C403 0.960 . S
H405 N385 0.862 . S
O406 Co374 1.920 . S
O406 C379 1.292 . S
C407 O399 1.258 . S
C407 O400 1.266 . S
Co408 O411 1.970 . S
Co408 N425 1.989 . S
Co408 O433 1.967 . S
Co408 O440 1.920 . S
Co409 O412 1.966 . S
Co409 N418 2.022 . S
Co409 N426 1.993 . S
Co409 O434 1.941 . S
C410 O411 1.258 . S
C410 O412 1.263 . S
O411 Co408 1.970 . S
O411 C410 1.258 . S
O412 Co409 1.966 . S
O412 C410 1.263 . S
C413 O414 1.235 . S
C413 O440 1.289 . S
O414 C413 1.235 . S
C415 C417 1.400 . S
C415 N418 1.351 . S
C415 C420 1.501 . S
C416 C417 1.387 . S
C416 N419 1.341 . S
C417 C415 1.400 . S
C417 C416 1.387 . S
N418 Co409 2.022 . S
N418 C415 1.351 . S
N418 N419 1.365 . S
N419 C416 1.341 . S
N419 N418 1.365 . S
N419 H439 0.862 . S
C420 C415 1.501 . S
C420 H421 0.961 . S
C420 H422 0.961 . S
C420 H423 0.960 . S
H421 C420 0.961 . S
H422 C420 0.961 . S
H423 C420 0.960 . S
C424 N425 1.342 . S
C424 C428 1.401 . S
C424 C429 1.499 . S
N425 Co408 1.989 . S
N425 C424 1.342 . S
N425 N426 1.388 . S
N426 Co409 1.993 . S
N426 N425 1.388 . S
N426 C427 1.346 . S
C427 N426 1.346 . S
C427 C428 1.396 . S
C427 C437 1.510 . S
C428 C424 1.401 . S
C428 C427 1.396 . S
C429 C424 1.499 . S
C429 H430 0.959 . S
C429 H431 0.960 . S
C429 H432 0.961 . S
H430 C429 0.959 . S
H431 C429 0.960 . S
H432 C429 0.961 . S
O433 Co408 1.967 . S
O433 C441 1.258 . S
O434 Co409 1.941 . S
O434 C441 1.266 . S
H435 C437 0.959 . S
H436 C437 0.961 . S
C437 C427 1.510 . S
C437 H435 0.959 . S
C437 H436 0.961 . S
C437 H438 0.960 . S
H438 C437 0.960 . S
H439 N419 0.862 . S
O440 Co408 1.920 . S
O440 C413 1.289 . S
C441 O433 1.258 . S
C441 O434 1.266 . S
Co442 O445 1.970 . S
Co442 N459 1.989 . S
Co442 O467 1.967 . S
Co442 O474 1.920 . S
Co443 O446 1.966 . S
Co443 N452 2.022 . S
Co443 N460 1.993 . S
Co443 O468 1.941 . S
C444 O445 1.258 . S
C444 O446 1.263 . S
O445 Co442 1.970 . S
O445 C444 1.258 . S
O446 Co443 1.966 . S
O446 C444 1.263 . S
C447 O448 1.235 . S
C447 O474 1.289 . S
O448 C447 1.235 . S
C449 C451 1.400 . S
C449 N452 1.351 . S
C449 C454 1.501 . S
C450 C451 1.387 . S
C450 N453 1.341 . S
C451 C449 1.400 . S
C451 C450 1.387 . S
N452 Co443 2.022 . S
N452 C449 1.351 . S
N452 N453 1.365 . S
N453 C450 1.341 . S
N453 N452 1.365 . S
N453 H473 0.862 . S
C454 C449 1.501 . S
C454 H455 0.961 . S
C454 H456 0.961 . S
C454 H457 0.960 . S
H455 C454 0.961 . S
H456 C454 0.961 . S
H457 C454 0.960 . S
C458 N459 1.342 . S
C458 C462 1.401 . S
C458 C463 1.499 . S
N459 Co442 1.989 . S
N459 C458 1.342 . S
N459 N460 1.388 . S
N460 Co443 1.993 . S
N460 N459 1.388 . S
N460 C461 1.346 . S
C461 N460 1.346 . S
C461 C462 1.396 . S
C461 C471 1.510 . S
C462 C458 1.401 . S
C462 C461 1.396 . S
C463 C458 1.499 . S
C463 H464 0.959 . S
C463 H465 0.960 . S
C463 H466 0.961 . S
H464 C463 0.959 . S
H465 C463 0.960 . S
H466 C463 0.961 . S
O467 Co442 1.967 . S
O467 C475 1.258 . S
O468 Co443 1.941 . S
O468 C475 1.266 . S
H469 C471 0.959 . S
H470 C471 0.961 . S
C471 C461 1.510 . S
C471 H469 0.959 . S
C471 H470 0.961 . S
C471 H472 0.960 . S
H472 C471 0.960 . S
H473 N453 0.862 . S
O474 Co442 1.920 . S
O474 C447 1.289 . S
C475 O467 1.258 . S
C475 O468 1.266 . S
Co476 O479 1.970 . S
Co476 N493 1.989 . S
Co476 O501 1.967 . S
Co476 O508 1.920 . S
Co477 O480 1.966 . S
Co477 N486 2.022 . S
Co477 N494 1.993 . S
Co477 O502 1.941 . S
C478 O479 1.258 . S
C478 O480 1.263 . S
O479 Co476 1.970 . S
O479 C478 1.258 . S
O480 Co477 1.966 . S
O480 C478 1.263 . S
C481 O482 1.235 . S
C481 O508 1.289 . S
O482 C481 1.235 . S
C483 C485 1.400 . S
C483 N486 1.351 . S
C483 C488 1.501 . S
C484 C485 1.387 . S
C484 N487 1.341 . S
C485 C483 1.400 . S
C485 C484 1.387 . S
N486 Co477 2.022 . S
N486 C483 1.351 . S
N486 N487 1.365 . S
N487 C484 1.341 . S
N487 N486 1.365 . S
N487 H507 0.862 . S
C488 C483 1.501 . S
C488 H489 0.961 . S
C488 H490 0.961 . S
C488 H491 0.960 . S
H489 C488 0.961 . S
H490 C488 0.961 . S
H491 C488 0.960 . S
C492 N493 1.342 . S
C492 C496 1.401 . S
C492 C497 1.499 . S
N493 Co476 1.989 . S
N493 C492 1.342 . S
N493 N494 1.388 . S
N494 Co477 1.993 . S
N494 N493 1.388 . S
N494 C495 1.346 . S
C495 N494 1.346 . S
C495 C496 1.396 . S
C495 C505 1.510 . S
C496 C492 1.401 . S
C496 C495 1.396 . S
C497 C492 1.499 . S
C497 H498 0.959 . S
C497 H499 0.960 . S
C497 H500 0.961 . S
H498 C497 0.959 . S
H499 C497 0.960 . S
H500 C497 0.961 . S
O501 Co476 1.967 . S
O501 C509 1.258 . S
O502 Co477 1.941 . S
O502 C509 1.266 . S
H503 C505 0.959 . S
H504 C505 0.961 . S
C505 C495 1.510 . S
C505 H503 0.959 . S
C505 H504 0.961 . S
C505 H506 0.960 . S
H506 C505 0.960 . S
H507 N487 0.862 . S
O508 Co476 1.920 . S
O508 C481 1.289 . S
C509 O501 1.258 . S
C509 O502 1.266 . S
Co510 O513 1.970 . S
Co510 N527 1.989 . S
Co510 O535 1.967 . S
Co510 O542 1.920 . S
Co511 O514 1.966 . S
Co511 N520 2.022 . S
Co511 N528 1.993 . S
Co511 O536 1.941 . S
C512 O513 1.258 . S
C512 O514 1.263 . S
O513 Co510 1.970 . S
O513 C512 1.258 . S
O514 Co511 1.966 . S
O514 C512 1.263 . S
C515 O516 1.235 . S
C515 O542 1.289 1_554 S
O516 C515 1.235 . S
C517 C519 1.400 . S
C517 N520 1.351 . S
C517 C522 1.501 . S
C518 C519 1.387 . S
C518 N521 1.341 . S
C519 C517 1.400 . S
C519 C518 1.387 . S
N520 Co511 2.022 . S
N520 C517 1.351 . S
N520 N521 1.365 . S
N521 C518 1.341 . S
N521 N520 1.365 . S
N521 H541 0.862 . S
C522 C517 1.501 . S
C522 H523 0.961 . S
C522 H524 0.961 . S
C522 H525 0.960 . S
H523 C522 0.961 . S
H524 C522 0.961 . S
H525 C522 0.960 . S
C526 N527 1.342 . S
C526 C530 1.401 . S
C526 C531 1.499 . S
N527 Co510 1.989 . S
N527 C526 1.342 . S
N527 N528 1.388 . S
N528 Co511 1.993 . S
N528 N527 1.388 . S
N528 C529 1.346 . S
C529 N528 1.346 . S
C529 C530 1.396 . S
C529 C539 1.510 . S
C530 C526 1.401 . S
C530 C529 1.396 . S
C531 C526 1.499 . S
C531 H532 0.959 . S
C531 H533 0.960 . S
C531 H534 0.961 . S
H532 C531 0.959 . S
H533 C531 0.960 . S
H534 C531 0.961 . S
O535 Co510 1.967 . S
O535 C543 1.258 . S
O536 Co511 1.941 . S
O536 C543 1.266 . S
H537 C539 0.959 . S
H538 C539 0.961 . S
C539 C529 1.510 . S
C539 H537 0.959 . S
C539 H538 0.961 . S
C539 H540 0.960 . S
H540 C539 0.960 . S
H541 N521 0.862 . S
O542 Co510 1.920 . S
O542 C515 1.289 1_556 S
C543 O535 1.258 . S
C543 O536 1.266 . S
Co544 O547 1.970 . S
Co544 N561 1.989 . S
Co544 O569 1.967 . S
Co544 O576 1.920 . S
Co545 O548 1.966 . S
Co545 N554 2.022 . S
Co545 N562 1.993 . S
Co545 O570 1.941 . S
C546 O547 1.258 . S
C546 O548 1.263 . S
O547 Co544 1.970 . S
O547 C546 1.258 . S
O548 Co545 1.966 . S
O548 C546 1.263 . S
C549 O550 1.235 . S
C549 O576 1.289 1_554 S
O550 C549 1.235 . S
C551 C553 1.400 . S
C551 N554 1.351 . S
C551 C556 1.501 . S
C552 C553 1.387 . S
C552 N555 1.341 . S
C553 C551 1.400 . S
C553 C552 1.387 . S
N554 Co545 2.022 . S
N554 C551 1.351 . S
N554 N555 1.365 . S
N555 C552 1.341 . S
N555 N554 1.365 . S
N555 H575 0.862 . S
C556 C551 1.501 . S
C556 H557 0.961 . S
C556 H558 0.961 . S
C556 H559 0.960 . S
H557 C556 0.961 . S
H558 C556 0.961 . S
H559 C556 0.960 . S
C560 N561 1.342 . S
C560 C564 1.401 . S
C560 C565 1.499 . S
N561 Co544 1.989 . S
N561 C560 1.342 . S
N561 N562 1.388 . S
N562 Co545 1.993 . S
N562 N561 1.388 . S
N562 C563 1.346 . S
C563 N562 1.346 . S
C563 C564 1.396 . S
C563 C573 1.510 . S
C564 C560 1.401 . S
C564 C563 1.396 . S
C565 C560 1.499 . S
C565 H566 0.959 . S
C565 H567 0.960 . S
C565 H568 0.961 . S
H566 C565 0.959 . S
H567 C565 0.960 . S
H568 C565 0.961 . S
O569 Co544 1.967 . S
O569 C577 1.258 . S
O570 Co545 1.941 . S
O570 C577 1.266 . S
H571 C573 0.959 . S
H572 C573 0.961 . S
C573 C563 1.510 . S
C573 H571 0.959 . S
C573 H572 0.961 . S
C573 H574 0.960 . S
H574 C573 0.960 . S
H575 N555 0.862 . S
O576 Co544 1.920 . S
O576 C549 1.289 1_556 S
C577 O569 1.258 . S
C577 O570 1.266 . S
Co578 O581 1.970 . S
Co578 N595 1.989 . S
Co578 O603 1.967 . S
Co578 O610 1.920 . S
Co579 O582 1.966 . S
Co579 N588 2.022 . S
Co579 N596 1.993 . S
Co579 O604 1.941 . S
C580 O581 1.258 . S
C580 O582 1.263 . S
O581 Co578 1.970 . S
O581 C580 1.258 . S
O582 Co579 1.966 . S
O582 C580 1.263 . S
C583 O584 1.235 . S
C583 O610 1.289 1_554 S
O584 C583 1.235 . S
C585 C587 1.400 . S
C585 N588 1.351 . S
C585 C590 1.501 . S
C586 C587 1.387 . S
C586 N589 1.341 . S
C587 C585 1.400 . S
C587 C586 1.387 . S
N588 Co579 2.022 . S
N588 C585 1.351 . S
N588 N589 1.365 . S
N589 C586 1.341 . S
N589 N588 1.365 . S
N589 H609 0.862 . S
C590 C585 1.501 . S
C590 H591 0.961 . S
C590 H592 0.961 . S
C590 H593 0.960 . S
H591 C590 0.961 . S
H592 C590 0.961 . S
H593 C590 0.960 . S
C594 N595 1.342 . S
C594 C598 1.401 . S
C594 C599 1.499 . S
N595 Co578 1.989 . S
N595 C594 1.342 . S
N595 N596 1.388 . S
N596 Co579 1.993 . S
N596 N595 1.388 . S
N596 C597 1.346 . S
C597 N596 1.346 . S
C597 C598 1.396 . S
C597 C607 1.510 . S
C598 C594 1.401 . S
C598 C597 1.396 . S
C599 C594 1.499 . S
C599 H600 0.959 . S
C599 H601 0.960 . S
C599 H602 0.961 . S
H600 C599 0.959 . S
H601 C599 0.960 . S
H602 C599 0.961 . S
O603 Co578 1.967 . S
O603 C611 1.258 . S
O604 Co579 1.941 . S
O604 C611 1.266 . S
H605 C607 0.959 . S
H606 C607 0.961 . S
C607 C597 1.510 . S
C607 H605 0.959 . S
C607 H606 0.961 . S
C607 H608 0.960 . S
H608 C607 0.960 . S
H609 N589 0.862 . S
O610 Co578 1.920 . S
O610 C583 1.289 1_556 S
C611 O603 1.258 . S
C611 O604 1.266 . S
Co612 O615 1.970 . S
Co612 N629 1.989 . S
Co612 O637 1.967 . S
Co612 O644 1.920 . S
Co613 O616 1.966 . S
Co613 N622 2.022 . S
Co613 N630 1.993 . S
Co613 O638 1.941 . S
C614 O615 1.258 . S
C614 O616 1.263 . S
O615 Co612 1.970 . S
O615 C614 1.258 . S
O616 Co613 1.966 . S
O616 C614 1.263 . S
C617 O618 1.235 . S
C617 O644 1.289 . S
O618 C617 1.235 . S
C619 C621 1.400 . S
C619 N622 1.351 . S
C619 C624 1.501 . S
C620 C621 1.387 . S
C620 N623 1.341 . S
C621 C619 1.400 . S
C621 C620 1.387 . S
N622 Co613 2.022 . S
N622 C619 1.351 . S
N622 N623 1.365 . S
N623 C620 1.341 . S
N623 N622 1.365 . S
N623 H643 0.862 . S
C624 C619 1.501 . S
C624 H625 0.961 . S
C624 H626 0.961 . S
C624 H627 0.960 . S
H625 C624 0.961 . S
H626 C624 0.961 . S
H627 C624 0.960 . S
C628 N629 1.342 . S
C628 C632 1.401 . S
C628 C633 1.499 . S
N629 Co612 1.989 . S
N629 C628 1.342 . S
N629 N630 1.388 . S
N630 Co613 1.993 . S
N630 N629 1.388 . S
N630 C631 1.346 . S
C631 N630 1.346 . S
C631 C632 1.396 . S
C631 C641 1.510 . S
C632 C628 1.401 . S
C632 C631 1.396 . S
C633 C628 1.499 . S
C633 H634 0.959 . S
C633 H635 0.960 . S
C633 H636 0.961 . S
H634 C633 0.959 . S
H635 C633 0.960 . S
H636 C633 0.961 . S
O637 Co612 1.967 . S
O637 C645 1.258 . S
O638 Co613 1.941 . S
O638 C645 1.266 . S
H639 C641 0.959 . S
H640 C641 0.961 . S
C641 C631 1.510 . S
C641 H639 0.959 . S
C641 H640 0.961 . S
C641 H642 0.960 . S
H642 C641 0.960 . S
H643 N623 0.862 . S
O644 Co612 1.920 . S
O644 C617 1.289 . S
C645 O637 1.258 . S
C645 O638 1.266 . S
Co646 O649 1.970 . S
Co646 N663 1.989 . S
Co646 O671 1.967 . S
Co646 O678 1.920 . S
Co647 O650 1.966 . S
Co647 N656 2.022 . S
Co647 N664 1.993 . S
Co647 O672 1.941 . S
C648 O649 1.258 . S
C648 O650 1.263 . S
O649 Co646 1.970 . S
O649 C648 1.258 . S
O650 Co647 1.966 . S
O650 C648 1.263 . S
C651 O652 1.235 . S
C651 O678 1.289 . S
O652 C651 1.235 . S
C653 C655 1.400 . S
C653 N656 1.351 . S
C653 C658 1.501 . S
C654 C655 1.387 . S
C654 N657 1.341 . S
C655 C653 1.400 . S
C655 C654 1.387 . S
N656 Co647 2.022 . S
N656 C653 1.351 . S
N656 N657 1.365 . S
N657 C654 1.341 . S
N657 N656 1.365 . S
N657 H677 0.862 . S
C658 C653 1.501 . S
C658 H659 0.961 . S
C658 H660 0.961 . S
C658 H661 0.960 . S
H659 C658 0.961 . S
H660 C658 0.961 . S
H661 C658 0.960 . S
C662 N663 1.342 . S
C662 C666 1.401 . S
C662 C667 1.499 . S
N663 Co646 1.989 . S
N663 C662 1.342 . S
N663 N664 1.388 . S
N664 Co647 1.993 . S
N664 N663 1.388 . S
N664 C665 1.346 . S
C665 N664 1.346 . S
C665 C666 1.396 . S
C665 C675 1.510 . S
C666 C662 1.401 . S
C666 C665 1.396 . S
C667 C662 1.499 . S
C667 H668 0.959 . S
C667 H669 0.960 . S
C667 H670 0.961 . S
H668 C667 0.959 . S
H669 C667 0.960 . S
H670 C667 0.961 . S
O671 Co646 1.967 . S
O671 C679 1.258 . S
O672 Co647 1.941 . S
O672 C679 1.266 . S
H673 C675 0.959 . S
H674 C675 0.961 . S
C675 C665 1.510 . S
C675 H673 0.959 . S
C675 H674 0.961 . S
C675 H676 0.960 . S
H676 C675 0.960 . S
H677 N657 0.862 . S
O678 Co646 1.920 . S
O678 C651 1.289 . S
C679 O671 1.258 . S
C679 O672 1.266 . S
Co680 O683 1.970 . S
Co680 N697 1.989 . S
Co680 O705 1.967 . S
Co680 O712 1.920 . S
Co681 O684 1.966 . S
Co681 N690 2.022 . S
Co681 N698 1.993 . S
Co681 O706 1.941 . S
C682 O683 1.258 . S
C682 O684 1.263 . S
O683 Co680 1.970 . S
O683 C682 1.258 . S
O684 Co681 1.966 . S
O684 C682 1.263 . S
C685 O686 1.235 . S
C685 O712 1.289 . S
O686 C685 1.235 . S
C687 C689 1.400 . S
C687 N690 1.351 . S
C687 C692 1.501 . S
C688 C689 1.387 . S
C688 N691 1.341 . S
C689 C687 1.400 . S
C689 C688 1.387 . S
N690 Co681 2.022 . S
N690 C687 1.351 . S
N690 N691 1.365 . S
N691 C688 1.341 . S
N691 N690 1.365 . S
N691 H711 0.862 . S
C692 C687 1.501 . S
C692 H693 0.961 . S
C692 H694 0.961 . S
C692 H695 0.960 . S
H693 C692 0.961 . S
H694 C692 0.961 . S
H695 C692 0.960 . S
C696 N697 1.342 . S
C696 C700 1.401 . S
C696 C701 1.499 . S
N697 Co680 1.989 . S
N697 C696 1.342 . S
N697 N698 1.388 . S
N698 Co681 1.993 . S
N698 N697 1.388 . S
N698 C699 1.346 . S
C699 N698 1.346 . S
C699 C700 1.396 . S
C699 C709 1.510 . S
C700 C696 1.401 . S
C700 C699 1.396 . S
C701 C696 1.499 . S
C701 H702 0.959 . S
C701 H703 0.960 . S
C701 H704 0.961 . S
H702 C701 0.959 . S
H703 C701 0.960 . S
H704 C701 0.961 . S
O705 Co680 1.967 . S
O705 C713 1.258 . S
O706 Co681 1.941 . S
O706 C713 1.266 . S
H707 C709 0.959 . S
H708 C709 0.961 . S
C709 C699 1.510 . S
C709 H707 0.959 . S
C709 H708 0.961 . S
C709 H710 0.960 . S
H710 C709 0.960 . S
H711 N691 0.862 . S
O712 Co680 1.920 . S
O712 C685 1.289 . S
C713 O705 1.258 . S
C713 O706 1.266 . S
Co714 O717 1.970 . S
Co714 N731 1.989 . S
Co714 O739 1.967 . S
Co714 O746 1.920 . S
Co715 O718 1.966 . S
Co715 N724 2.022 . S
Co715 N732 1.993 . S
Co715 O740 1.941 . S
C716 O717 1.258 . S
C716 O718 1.263 . S
O717 Co714 1.970 . S
O717 C716 1.258 . S
O718 Co715 1.966 . S
O718 C716 1.263 . S
C719 O720 1.235 . S
C719 O746 1.289 . S
O720 C719 1.235 . S
C721 C723 1.400 1_556 S
C721 N724 1.351 . S
C721 C726 1.501 . S
C722 C723 1.387 . S
C722 N725 1.341 1_554 S
C723 C721 1.400 1_554 S
C723 C722 1.387 . S
N724 Co715 2.022 . S
N724 C721 1.351 . S
N724 N725 1.365 . S
N725 C722 1.341 1_556 S
N725 N724 1.365 . S
N725 H745 0.862 . S
C726 C721 1.501 . S
C726 H727 0.961 . S
C726 H728 0.961 . S
C726 H729 0.960 . S
H727 C726 0.961 . S
H728 C726 0.961 . S
H729 C726 0.960 . S
C730 N731 1.342 . S
C730 C734 1.401 . S
C730 C735 1.499 . S
N731 Co714 1.989 . S
N731 C730 1.342 . S
N731 N732 1.388 . S
N732 Co715 1.993 . S
N732 N731 1.388 . S
N732 C733 1.346 . S
C733 N732 1.346 . S
C733 C734 1.396 . S
C733 C743 1.510 . S
C734 C730 1.401 . S
C734 C733 1.396 . S
C735 C730 1.499 . S
C735 H736 0.959 . S
C735 H737 0.960 . S
C735 H738 0.961 . S
H736 C735 0.959 . S
H737 C735 0.960 . S
H738 C735 0.961 . S
O739 Co714 1.967 . S
O739 C747 1.258 . S
O740 Co715 1.941 . S
O740 C747 1.266 . S
H741 C743 0.959 . S
H742 C743 0.961 . S
C743 C733 1.510 . S
C743 H741 0.959 . S
C743 H742 0.961 . S
C743 H744 0.960 . S
H744 C743 0.960 . S
H745 N725 0.862 . S
O746 Co714 1.920 . S
O746 C719 1.289 . S
C747 O739 1.258 . S
C747 O740 1.266 . S
Co748 O751 1.970 . S
Co748 N765 1.989 . S
Co748 O773 1.967 . S
Co748 O780 1.920 . S
Co749 O752 1.966 . S
Co749 N758 2.022 . S
Co749 N766 1.993 . S
Co749 O774 1.941 . S
C750 O751 1.258 . S
C750 O752 1.263 . S
O751 Co748 1.970 . S
O751 C750 1.258 . S
O752 Co749 1.966 . S
O752 C750 1.263 . S
C753 O754 1.235 . S
C753 O780 1.289 . S
O754 C753 1.235 . S
C755 C757 1.400 1_556 S
C755 N758 1.351 . S
C755 C760 1.501 . S
C756 C757 1.387 . S
C756 N759 1.341 1_554 S
C757 C755 1.400 1_554 S
C757 C756 1.387 . S
N758 Co749 2.022 . S
N758 C755 1.351 . S
N758 N759 1.365 . S
N759 C756 1.341 1_556 S
N759 N758 1.365 . S
N759 H779 0.862 . S
C760 C755 1.501 . S
C760 H761 0.961 . S
C760 H762 0.961 . S
C760 H763 0.960 . S
H761 C760 0.961 . S
H762 C760 0.961 . S
H763 C760 0.960 . S
C764 N765 1.342 . S
C764 C768 1.401 . S
C764 C769 1.499 . S
N765 Co748 1.989 . S
N765 C764 1.342 . S
N765 N766 1.388 . S
N766 Co749 1.993 . S
N766 N765 1.388 . S
N766 C767 1.346 . S
C767 N766 1.346 . S
C767 C768 1.396 . S
C767 C777 1.510 . S
C768 C764 1.401 . S
C768 C767 1.396 . S
C769 C764 1.499 . S
C769 H770 0.959 . S
C769 H771 0.960 . S
C769 H772 0.961 . S
H770 C769 0.959 . S
H771 C769 0.960 . S
H772 C769 0.961 . S
O773 Co748 1.967 . S
O773 C781 1.258 . S
O774 Co749 1.941 . S
O774 C781 1.266 . S
H775 C777 0.959 . S
H776 C777 0.961 . S
C777 C767 1.510 . S
C777 H775 0.959 . S
C777 H776 0.961 . S
C777 H778 0.960 . S
H778 C777 0.960 . S
H779 N759 0.862 . S
O780 Co748 1.920 . S
O780 C753 1.289 . S
C781 O773 1.258 . S
C781 O774 1.266 . S
Co782 O785 1.970 . S
Co782 N799 1.989 . S
Co782 O807 1.967 . S
Co782 O814 1.920 . S
Co783 O786 1.966 . S
Co783 N792 2.022 . S
Co783 N800 1.993 . S
Co783 O808 1.941 . S
C784 O785 1.258 . S
C784 O786 1.263 . S
O785 Co782 1.970 . S
O785 C784 1.258 . S
O786 Co783 1.966 . S
O786 C784 1.263 . S
C787 O788 1.235 . S
C787 O814 1.289 . S
O788 C787 1.235 . S
C789 C791 1.400 1_556 S
C789 N792 1.351 . S
C789 C794 1.501 . S
C790 C791 1.387 . S
C790 N793 1.341 1_554 S
C791 C789 1.400 1_554 S
C791 C790 1.387 . S
N792 Co783 2.022 . S
N792 C789 1.351 . S
N792 N793 1.365 . S
N793 C790 1.341 1_556 S
N793 N792 1.365 . S
N793 H813 0.862 . S
C794 C789 1.501 . S
C794 H795 0.961 . S
C794 H796 0.961 . S
C794 H797 0.960 . S
H795 C794 0.961 . S
H796 C794 0.961 . S
H797 C794 0.960 . S
C798 N799 1.342 . S
C798 C802 1.401 . S
C798 C803 1.499 . S
N799 Co782 1.989 . S
N799 C798 1.342 . S
N799 N800 1.388 . S
N800 Co783 1.993 . S
N800 N799 1.388 . S
N800 C801 1.346 . S
C801 N800 1.346 . S
C801 C802 1.396 . S
C801 C811 1.510 . S
C802 C798 1.401 . S
C802 C801 1.396 . S
C803 C798 1.499 . S
C803 H804 0.959 . S
C803 H805 0.960 . S
C803 H806 0.961 . S
H804 C803 0.959 . S
H805 C803 0.960 . S
H806 C803 0.961 . S
O807 Co782 1.967 . S
O807 C815 1.258 . S
O808 Co783 1.941 . S
O808 C815 1.266 . S
H809 C811 0.959 . S
H810 C811 0.961 . S
C811 C801 1.510 . S
C811 H809 0.959 . S
C811 H810 0.961 . S
C811 H812 0.960 . S
H812 C811 0.960 . S
H813 N793 0.862 . S
O814 Co782 1.920 . S
O814 C787 1.289 . S
C815 O807 1.258 . S
C815 O808 1.266 . S
Co816 O819 1.970 . S
Co816 N833 1.989 . S
Co816 O841 1.967 . S
Co816 O848 1.920 . S
Co817 O820 1.966 . S
Co817 N826 2.022 . S
Co817 N834 1.993 . S
Co817 O842 1.941 . S
C818 O819 1.258 . S
C818 O820 1.263 . S
O819 Co816 1.970 . S
O819 C818 1.258 . S
O820 Co817 1.966 . S
O820 C818 1.263 . S
C821 O822 1.235 . S
C821 O848 1.289 . S
O822 C821 1.235 . S
C823 C825 1.400 . S
C823 N826 1.351 . S
C823 C828 1.501 . S
C824 C825 1.387 . S
C824 N827 1.341 . S
C825 C823 1.400 . S
C825 C824 1.387 . S
N826 Co817 2.022 . S
N826 C823 1.351 . S
N826 N827 1.365 . S
N827 C824 1.341 . S
N827 N826 1.365 . S
N827 H847 0.862 . S
C828 C823 1.501 . S
C828 H829 0.961 . S
C828 H830 0.961 . S
C828 H831 0.960 . S
H829 C828 0.961 . S
H830 C828 0.961 . S
H831 C828 0.960 . S
C832 N833 1.342 . S
C832 C836 1.401 . S
C832 C837 1.499 . S
N833 Co816 1.989 . S
N833 C832 1.342 . S
N833 N834 1.388 . S
N834 Co817 1.993 . S
N834 N833 1.388 . S
N834 C835 1.346 . S
C835 N834 1.346 . S
C835 C836 1.396 . S
C835 C845 1.510 . S
C836 C832 1.401 . S
C836 C835 1.396 . S
C837 C832 1.499 . S
C837 H838 0.959 . S
C837 H839 0.960 . S
C837 H840 0.961 . S
H838 C837 0.959 . S
H839 C837 0.960 . S
H840 C837 0.961 . S
O841 Co816 1.967 . S
O841 C849 1.258 . S
O842 Co817 1.941 . S
O842 C849 1.266 . S
H843 C845 0.959 . S
H844 C845 0.961 . S
C845 C835 1.510 . S
C845 H843 0.959 . S
C845 H844 0.961 . S
C845 H846 0.960 . S
H846 C845 0.960 . S
H847 N827 0.862 . S
O848 Co816 1.920 . S
O848 C821 1.289 . S
C849 O841 1.258 . S
C849 O842 1.266 . S
Co850 O853 1.970 . S
Co850 N867 1.989 . S
Co850 O875 1.967 . S
Co850 O882 1.920 . S
Co851 O854 1.966 . S
Co851 N860 2.022 . S
Co851 N868 1.993 . S
Co851 O876 1.941 . S
C852 O853 1.258 . S
C852 O854 1.263 . S
O853 Co850 1.970 . S
O853 C852 1.258 . S
O854 Co851 1.966 . S
O854 C852 1.263 . S
C855 O856 1.235 . S
C855 O882 1.289 . S
O856 C855 1.235 . S
C857 C859 1.400 . S
C857 N860 1.351 . S
C857 C862 1.501 . S
C858 C859 1.387 . S
C858 N861 1.341 . S
C859 C857 1.400 . S
C859 C858 1.387 . S
N860 Co851 2.022 . S
N860 C857 1.351 . S
N860 N861 1.365 . S
N861 C858 1.341 . S
N861 N860 1.365 . S
N861 H881 0.862 . S
C862 C857 1.501 . S
C862 H863 0.961 . S
C862 H864 0.961 . S
C862 H865 0.960 . S
H863 C862 0.961 . S
H864 C862 0.961 . S
H865 C862 0.960 . S
C866 N867 1.342 . S
C866 C870 1.401 . S
C866 C871 1.499 . S
N867 Co850 1.989 . S
N867 C866 1.342 . S
N867 N868 1.388 . S
N868 Co851 1.993 . S
N868 N867 1.388 . S
N868 C869 1.346 . S
C869 N868 1.346 . S
C869 C870 1.396 . S
C869 C879 1.510 . S
C870 C866 1.401 . S
C870 C869 1.396 . S
C871 C866 1.499 . S
C871 H872 0.959 . S
C871 H873 0.960 . S
C871 H874 0.961 . S
H872 C871 0.959 . S
H873 C871 0.960 . S
H874 C871 0.961 . S
O875 Co850 1.967 . S
O875 C883 1.258 . S
O876 Co851 1.941 . S
O876 C883 1.266 . S
H877 C879 0.959 . S
H878 C879 0.961 . S
C879 C869 1.510 . S
C879 H877 0.959 . S
C879 H878 0.961 . S
C879 H880 0.960 . S
H880 C879 0.960 . S
H881 N861 0.862 . S
O882 Co850 1.920 . S
O882 C855 1.289 . S
C883 O875 1.258 . S
C883 O876 1.266 . S
Co884 O887 1.970 . S
Co884 N901 1.989 . S
Co884 O909 1.967 . S
Co884 O916 1.920 . S
Co885 O888 1.966 . S
Co885 N894 2.022 . S
Co885 N902 1.993 . S
Co885 O910 1.941 . S
C886 O887 1.258 . S
C886 O888 1.263 . S
O887 Co884 1.970 . S
O887 C886 1.258 . S
O888 Co885 1.966 . S
O888 C886 1.263 . S
C889 O890 1.235 . S
C889 O916 1.289 . S
O890 C889 1.235 . S
C891 C893 1.400 . S
C891 N894 1.351 . S
C891 C896 1.501 . S
C892 C893 1.387 . S
C892 N895 1.341 . S
C893 C891 1.400 . S
C893 C892 1.387 . S
N894 Co885 2.022 . S
N894 C891 1.351 . S
N894 N895 1.365 . S
N895 C892 1.341 . S
N895 N894 1.365 . S
N895 H915 0.862 . S
C896 C891 1.501 . S
C896 H897 0.961 . S
C896 H898 0.961 . S
C896 H899 0.960 . S
H897 C896 0.961 . S
H898 C896 0.961 . S
H899 C896 0.960 . S
C900 N901 1.342 . S
C900 C904 1.401 . S
C900 C905 1.499 . S
N901 Co884 1.989 . S
N901 C900 1.342 . S
N901 N902 1.388 . S
N902 Co885 1.993 . S
N902 N901 1.388 . S
N902 C903 1.346 . S
C903 N902 1.346 . S
C903 C904 1.396 . S
C903 C913 1.510 . S
C904 C900 1.401 . S
C904 C903 1.396 . S
C905 C900 1.499 . S
C905 H906 0.959 . S
C905 H907 0.960 . S
C905 H908 0.961 . S
H906 C905 0.959 . S
H907 C905 0.960 . S
H908 C905 0.961 . S
O909 Co884 1.967 . S
O909 C917 1.258 . S
O910 Co885 1.941 . S
O910 C917 1.266 . S
H911 C913 0.959 . S
H912 C913 0.961 . S
C913 C903 1.510 . S
C913 H911 0.959 . S
C913 H912 0.961 . S
C913 H914 0.960 . S
H914 C913 0.960 . S
H915 N895 0.862 . S
O916 Co884 1.920 . S
O916 C889 1.289 . S
C917 O909 1.258 . S
C917 O910 1.266 . S
Co918 O921 1.970 . S
Co918 N935 1.989 . S
Co918 O943 1.967 . S
Co918 O950 1.920 . S
Co919 O922 1.966 . S
Co919 N928 2.022 . S
Co919 N936 1.993 . S
Co919 O944 1.941 . S
C920 O921 1.258 . S
C920 O922 1.263 . S
O921 Co918 1.970 . S
O921 C920 1.258 . S
O922 Co919 1.966 . S
O922 C920 1.263 . S
C923 O924 1.235 . S
C923 O950 1.289 . S
O924 C923 1.235 . S
C925 C927 1.400 . S
C925 N928 1.351 . S
C925 C930 1.501 . S
C926 C927 1.387 . S
C926 N929 1.341 . S
C927 C925 1.400 . S
C927 C926 1.387 . S
N928 Co919 2.022 . S
N928 C925 1.351 . S
N928 N929 1.365 . S
N929 C926 1.341 . S
N929 N928 1.365 . S
N929 H949 0.862 . S
C930 C925 1.501 . S
C930 H931 0.961 . S
C930 H932 0.961 . S
C930 H933 0.960 . S
H931 C930 0.961 . S
H932 C930 0.961 . S
H933 C930 0.960 . S
C934 N935 1.342 . S
C934 C938 1.401 . S
C934 C939 1.499 . S
N935 Co918 1.989 . S
N935 C934 1.342 . S
N935 N936 1.388 . S
N936 Co919 1.993 . S
N936 N935 1.388 . S
N936 C937 1.346 . S
C937 N936 1.346 . S
C937 C938 1.396 . S
C937 C947 1.510 . S
C938 C934 1.401 . S
C938 C937 1.396 . S
C939 C934 1.499 . S
C939 H940 0.959 . S
C939 H941 0.960 . S
C939 H942 0.961 . S
H940 C939 0.959 . S
H941 C939 0.960 . S
H942 C939 0.961 . S
O943 Co918 1.967 . S
O943 C951 1.258 . S
O944 Co919 1.941 . S
O944 C951 1.266 . S
H945 C947 0.959 . S
H946 C947 0.961 . S
C947 C937 1.510 . S
C947 H945 0.959 . S
C947 H946 0.961 . S
C947 H948 0.960 . S
H948 C947 0.960 . S
H949 N929 0.862 . S
O950 Co918 1.920 . S
O950 C923 1.289 . S
C951 O943 1.258 . S
C951 O944 1.266 . S
Co952 O955 1.970 . S
Co952 N969 1.989 . S
Co952 O977 1.967 . S
Co952 O984 1.920 . S
Co953 O956 1.966 . S
Co953 N962 2.022 . S
Co953 N970 1.993 . S
Co953 O978 1.941 . S
C954 O955 1.258 . S
C954 O956 1.263 . S
O955 Co952 1.970 . S
O955 C954 1.258 . S
O956 Co953 1.966 . S
O956 C954 1.263 . S
C957 O958 1.235 . S
C957 O984 1.289 . S
O958 C957 1.235 . S
C959 C961 1.400 . S
C959 N962 1.351 . S
C959 C964 1.501 . S
C960 C961 1.387 . S
C960 N963 1.341 . S
C961 C959 1.400 . S
C961 C960 1.387 . S
N962 Co953 2.022 . S
N962 C959 1.351 . S
N962 N963 1.365 . S
N963 C960 1.341 . S
N963 N962 1.365 . S
N963 H983 0.862 . S
C964 C959 1.501 . S
C964 H965 0.961 . S
C964 H966 0.961 . S
C964 H967 0.960 . S
H965 C964 0.961 . S
H966 C964 0.961 . S
H967 C964 0.960 . S
C968 N969 1.342 . S
C968 C972 1.401 . S
C968 C973 1.499 . S
N969 Co952 1.989 . S
N969 C968 1.342 . S
N969 N970 1.388 . S
N970 Co953 1.993 . S
N970 N969 1.388 . S
N970 C971 1.346 . S
C971 N970 1.346 . S
C971 C972 1.396 . S
C971 C981 1.510 . S
C972 C968 1.401 . S
C972 C971 1.396 . S
C973 C968 1.499 . S
C973 H974 0.959 . S
C973 H975 0.960 . S
C973 H976 0.961 . S
H974 C973 0.959 . S
H975 C973 0.960 . S
H976 C973 0.961 . S
O977 Co952 1.967 . S
O977 C985 1.258 . S
O978 Co953 1.941 . S
O978 C985 1.266 . S
H979 C981 0.959 . S
H980 C981 0.961 . S
C981 C971 1.510 . S
C981 H979 0.959 . S
C981 H980 0.961 . S
C981 H982 0.960 . S
H982 C981 0.960 . S
H983 N963 0.862 . S
O984 Co952 1.920 . S
O984 C957 1.289 . S
C985 O977 1.258 . S
C985 O978 1.266 . S
Co986 O989 1.970 . S
Co986 N1003 1.989 . S
Co986 O1011 1.967 . S
Co986 O1018 1.920 . S
Co987 O990 1.966 . S
Co987 N996 2.022 . S
Co987 N1004 1.993 . S
Co987 O1012 1.941 . S
C988 O989 1.258 . S
C988 O990 1.263 . S
O989 Co986 1.970 . S
O989 C988 1.258 . S
O990 Co987 1.966 . S
O990 C988 1.263 . S
C991 O992 1.235 . S
C991 O1018 1.289 . S
O992 C991 1.235 . S
C993 C995 1.400 . S
C993 N996 1.351 . S
C993 C998 1.501 . S
C994 C995 1.387 . S
C994 N997 1.341 . S
C995 C993 1.400 . S
C995 C994 1.387 . S
N996 Co987 2.022 . S
N996 C993 1.351 . S
N996 N997 1.365 . S
N997 C994 1.341 . S
N997 N996 1.365 . S
N997 H1017 0.862 . S
C998 C993 1.501 . S
C998 H999 0.961 . S
C998 H1000 0.961 . S
C998 H1001 0.960 . S
H999 C998 0.961 . S
H1000 C998 0.961 . S
H1001 C998 0.960 . S
C1002 N1003 1.342 . S
C1002 C1006 1.401 . S
C1002 C1007 1.499 . S
N1003 Co986 1.989 . S
N1003 C1002 1.342 . S
N1003 N1004 1.388 . S
N1004 Co987 1.993 . S
N1004 N1003 1.388 . S
N1004 C1005 1.346 . S
C1005 N1004 1.346 . S
C1005 C1006 1.396 . S
C1005 C1015 1.510 . S
C1006 C1002 1.401 . S
C1006 C1005 1.396 . S
C1007 C1002 1.499 . S
C1007 H1008 0.959 . S
C1007 H1009 0.960 . S
C1007 H1010 0.961 . S
H1008 C1007 0.959 . S
H1009 C1007 0.960 . S
H1010 C1007 0.961 . S
O1011 Co986 1.967 . S
O1011 C1019 1.258 . S
O1012 Co987 1.941 . S
O1012 C1019 1.266 . S
H1013 C1015 0.959 . S
H1014 C1015 0.961 . S
C1015 C1005 1.510 . S
C1015 H1013 0.959 . S
C1015 H1014 0.961 . S
C1015 H1016 0.960 . S
H1016 C1015 0.960 . S
H1017 N997 0.862 . S
O1018 Co986 1.920 . S
O1018 C991 1.289 . S
C1019 O1011 1.258 . S
C1019 O1012 1.266 . S
Co1020 O1023 1.970 . S
Co1020 N1037 1.989 . S
Co1020 O1045 1.967 . S
Co1020 O1052 1.920 . S
Co1021 O1024 1.966 . S
Co1021 N1030 2.022 . S
Co1021 N1038 1.993 . S
Co1021 O1046 1.941 . S
C1022 O1023 1.258 . S
C1022 O1024 1.263 . S
O1023 Co1020 1.970 . S
O1023 C1022 1.258 . S
O1024 Co1021 1.966 . S
O1024 C1022 1.263 . S
C1025 O1026 1.235 . S
C1025 O1052 1.289 . S
O1026 C1025 1.235 . S
C1027 C1029 1.400 . S
C1027 N1030 1.351 . S
C1027 C1032 1.501 . S
C1028 C1029 1.387 . S
C1028 N1031 1.341 . S
C1029 C1027 1.400 . S
C1029 C1028 1.387 . S
N1030 Co1021 2.022 . S
N1030 C1027 1.351 . S
N1030 N1031 1.365 . S
N1031 C1028 1.341 . S
N1031 N1030 1.365 . S
N1031 H1051 0.862 . S
C1032 C1027 1.501 . S
C1032 H1033 0.961 . S
C1032 H1034 0.961 . S
C1032 H1035 0.960 . S
H1033 C1032 0.961 . S
H1034 C1032 0.961 . S
H1035 C1032 0.960 . S
C1036 N1037 1.342 . S
C1036 C1040 1.401 . S
C1036 C1041 1.499 . S
N1037 Co1020 1.989 . S
N1037 C1036 1.342 . S
N1037 N1038 1.388 . S
N1038 Co1021 1.993 . S
N1038 N1037 1.388 . S
N1038 C1039 1.346 . S
C1039 N1038 1.346 . S
C1039 C1040 1.396 . S
C1039 C1049 1.510 . S
C1040 C1036 1.401 . S
C1040 C1039 1.396 . S
C1041 C1036 1.499 . S
C1041 H1042 0.959 . S
C1041 H1043 0.960 . S
C1041 H1044 0.961 . S
H1042 C1041 0.959 . S
H1043 C1041 0.960 . S
H1044 C1041 0.961 . S
O1045 Co1020 1.967 . S
O1045 C1053 1.258 . S
O1046 Co1021 1.941 . S
O1046 C1053 1.266 . S
H1047 C1049 0.959 . S
H1048 C1049 0.961 . S
C1049 C1039 1.510 . S
C1049 H1047 0.959 . S
C1049 H1048 0.961 . S
C1049 H1050 0.960 . S
H1050 C1049 0.960 . S
H1051 N1031 0.862 . S
O1052 Co1020 1.920 . S
O1052 C1025 1.289 . S
C1053 O1045 1.258 . S
C1053 O1046 1.266 . S
Co1054 O1057 1.970 . S
Co1054 N1071 1.989 . S
Co1054 O1079 1.967 . S
Co1054 O1086 1.920 . S
Co1055 O1058 1.966 . S
Co1055 N1064 2.022 . S
Co1055 N1072 1.993 . S
Co1055 O1080 1.941 . S
C1056 O1057 1.258 . S
C1056 O1058 1.263 . S
O1057 Co1054 1.970 . S
O1057 C1056 1.258 . S
O1058 Co1055 1.966 . S
O1058 C1056 1.263 . S
C1059 O1060 1.235 . S
C1059 O1086 1.289 . S
O1060 C1059 1.235 . S
C1061 C1063 1.400 . S
C1061 N1064 1.351 . S
C1061 C1066 1.501 . S
C1062 C1063 1.387 . S
C1062 N1065 1.341 . S
C1063 C1061 1.400 . S
C1063 C1062 1.387 . S
N1064 Co1055 2.022 . S
N1064 C1061 1.351 . S
N1064 N1065 1.365 . S
N1065 C1062 1.341 . S
N1065 N1064 1.365 . S
N1065 H1085 0.862 . S
C1066 C1061 1.501 . S
C1066 H1067 0.961 . S
C1066 H1068 0.961 . S
C1066 H1069 0.960 . S
H1067 C1066 0.961 . S
H1068 C1066 0.961 . S
H1069 C1066 0.960 . S
C1070 N1071 1.342 . S
C1070 C1074 1.401 . S
C1070 C1075 1.499 . S
N1071 Co1054 1.989 . S
N1071 C1070 1.342 . S
N1071 N1072 1.388 . S
N1072 Co1055 1.993 . S
N1072 N1071 1.388 . S
N1072 C1073 1.346 . S
C1073 N1072 1.346 . S
C1073 C1074 1.396 . S
C1073 C1083 1.510 . S
C1074 C1070 1.401 . S
C1074 C1073 1.396 . S
C1075 C1070 1.499 . S
C1075 H1076 0.959 . S
C1075 H1077 0.960 . S
C1075 H1078 0.961 . S
H1076 C1075 0.959 . S
H1077 C1075 0.960 . S
H1078 C1075 0.961 . S
O1079 Co1054 1.967 . S
O1079 C1087 1.258 . S
O1080 Co1055 1.941 . S
O1080 C1087 1.266 . S
H1081 C1083 0.959 . S
H1082 C1083 0.961 . S
C1083 C1073 1.510 . S
C1083 H1081 0.959 . S
C1083 H1082 0.961 . S
C1083 H1084 0.960 . S
H1084 C1083 0.960 . S
H1085 N1065 0.862 . S
O1086 Co1054 1.920 . S
O1086 C1059 1.289 . S
C1087 O1079 1.258 . S
C1087 O1080 1.266 . S
Co1088 O1091 1.970 . S
Co1088 N1105 1.989 . S
Co1088 O1113 1.967 . S
Co1088 O1120 1.920 . S
Co1089 O1092 1.966 . S
Co1089 N1098 2.022 . S
Co1089 N1106 1.993 . S
Co1089 O1114 1.941 . S
C1090 O1091 1.258 . S
C1090 O1092 1.263 . S
O1091 Co1088 1.970 . S
O1091 C1090 1.258 . S
O1092 Co1089 1.966 . S
O1092 C1090 1.263 . S
C1093 O1094 1.235 . S
C1093 O1120 1.289 . S
O1094 C1093 1.235 . S
C1095 C1097 1.400 . S
C1095 N1098 1.351 . S
C1095 C1100 1.501 . S
C1096 C1097 1.387 . S
C1096 N1099 1.341 . S
C1097 C1095 1.400 . S
C1097 C1096 1.387 . S
N1098 Co1089 2.022 . S
N1098 C1095 1.351 . S
N1098 N1099 1.365 . S
N1099 C1096 1.341 . S
N1099 N1098 1.365 . S
N1099 H1119 0.862 . S
C1100 C1095 1.501 . S
C1100 H1101 0.961 . S
C1100 H1102 0.961 . S
C1100 H1103 0.960 . S
H1101 C1100 0.961 . S
H1102 C1100 0.961 . S
H1103 C1100 0.960 . S
C1104 N1105 1.342 . S
C1104 C1108 1.401 . S
C1104 C1109 1.499 . S
N1105 Co1088 1.989 . S
N1105 C1104 1.342 . S
N1105 N1106 1.388 . S
N1106 Co1089 1.993 . S
N1106 N1105 1.388 . S
N1106 C1107 1.346 . S
C1107 N1106 1.346 . S
C1107 C1108 1.396 . S
C1107 C1117 1.510 . S
C1108 C1104 1.401 . S
C1108 C1107 1.396 . S
C1109 C1104 1.499 . S
C1109 H1110 0.959 . S
C1109 H1111 0.960 . S
C1109 H1112 0.961 . S
H1110 C1109 0.959 . S
H1111 C1109 0.960 . S
H1112 C1109 0.961 . S
O1113 Co1088 1.967 . S
O1113 C1121 1.258 . S
O1114 Co1089 1.941 . S
O1114 C1121 1.266 . S
H1115 C1117 0.959 . S
H1116 C1117 0.961 . S
C1117 C1107 1.510 . S
C1117 H1115 0.959 . S
C1117 H1116 0.961 . S
C1117 H1118 0.960 . S
H1118 C1117 0.960 . S
H1119 N1099 0.862 . S
O1120 Co1088 1.920 . S
O1120 C1093 1.289 . S
C1121 O1113 1.258 . S
C1121 O1114 1.266 . S
Co1122 O1125 1.970 . S
Co1122 N1139 1.989 . S
Co1122 O1147 1.967 . S
Co1122 O1154 1.920 . S
Co1123 O1126 1.966 . S
Co1123 N1132 2.022 . S
Co1123 N1140 1.993 . S
Co1123 O1148 1.941 . S
C1124 O1125 1.258 . S
C1124 O1126 1.263 . S
O1125 Co1122 1.970 . S
O1125 C1124 1.258 . S
O1126 Co1123 1.966 . S
O1126 C1124 1.263 . S
C1127 O1128 1.235 . S
C1127 O1154 1.289 . S
O1128 C1127 1.235 . S
C1129 C1131 1.400 . S
C1129 N1132 1.351 . S
C1129 C1134 1.501 . S
C1130 C1131 1.387 . S
C1130 N1133 1.341 . S
C1131 C1129 1.400 . S
C1131 C1130 1.387 . S
N1132 Co1123 2.022 . S
N1132 C1129 1.351 . S
N1132 N1133 1.365 . S
N1133 C1130 1.341 . S
N1133 N1132 1.365 . S
N1133 H1153 0.862 . S
C1134 C1129 1.501 . S
C1134 H1135 0.961 . S
C1134 H1136 0.961 . S
C1134 H1137 0.960 . S
H1135 C1134 0.961 . S
H1136 C1134 0.961 . S
H1137 C1134 0.960 . S
C1138 N1139 1.342 . S
C1138 C1142 1.401 . S
C1138 C1143 1.499 . S
N1139 Co1122 1.989 . S
N1139 C1138 1.342 . S
N1139 N1140 1.388 . S
N1140 Co1123 1.993 . S
N1140 N1139 1.388 . S
N1140 C1141 1.346 . S
C1141 N1140 1.346 . S
C1141 C1142 1.396 . S
C1141 C1151 1.510 . S
C1142 C1138 1.401 . S
C1142 C1141 1.396 . S
C1143 C1138 1.499 . S
C1143 H1144 0.959 . S
C1143 H1145 0.960 . S
C1143 H1146 0.961 . S
H1144 C1143 0.959 . S
H1145 C1143 0.960 . S
H1146 C1143 0.961 . S
O1147 Co1122 1.967 . S
O1147 C1155 1.258 . S
O1148 Co1123 1.941 . S
O1148 C1155 1.266 . S
H1149 C1151 0.959 . S
H1150 C1151 0.961 . S
C1151 C1141 1.510 . S
C1151 H1149 0.959 . S
C1151 H1150 0.961 . S
C1151 H1152 0.960 . S
H1152 C1151 0.960 . S
H1153 N1133 0.862 . S
O1154 Co1122 1.920 . S
O1154 C1127 1.289 . S
C1155 O1147 1.258 . S
C1155 O1148 1.266 . S
Co1156 O1159 1.970 . S
Co1156 N1173 1.989 . S
Co1156 O1181 1.967 . S
Co1156 O1188 1.920 . S
Co1157 O1160 1.966 . S
Co1157 N1166 2.022 . S
Co1157 N1174 1.993 . S
Co1157 O1182 1.941 . S
C1158 O1159 1.258 . S
C1158 O1160 1.263 . S
O1159 Co1156 1.970 . S
O1159 C1158 1.258 . S
O1160 Co1157 1.966 . S
O1160 C1158 1.263 . S
C1161 O1162 1.235 . S
C1161 O1188 1.289 . S
O1162 C1161 1.235 . S
C1163 C1165 1.400 . S
C1163 N1166 1.351 . S
C1163 C1168 1.501 . S
C1164 C1165 1.387 . S
C1164 N1167 1.341 . S
C1165 C1163 1.400 . S
C1165 C1164 1.387 . S
N1166 Co1157 2.022 . S
N1166 C1163 1.351 . S
N1166 N1167 1.365 . S
N1167 C1164 1.341 . S
N1167 N1166 1.365 . S
N1167 H1187 0.862 . S
C1168 C1163 1.501 . S
C1168 H1169 0.961 . S
C1168 H1170 0.961 . S
C1168 H1171 0.960 . S
H1169 C1168 0.961 . S
H1170 C1168 0.961 . S
H1171 C1168 0.960 . S
C1172 N1173 1.342 . S
C1172 C1176 1.401 . S
C1172 C1177 1.499 . S
N1173 Co1156 1.989 . S
N1173 C1172 1.342 . S
N1173 N1174 1.388 . S
N1174 Co1157 1.993 . S
N1174 N1173 1.388 . S
N1174 C1175 1.346 . S
C1175 N1174 1.346 . S
C1175 C1176 1.396 . S
C1175 C1185 1.510 . S
C1176 C1172 1.401 . S
C1176 C1175 1.396 . S
C1177 C1172 1.499 . S
C1177 H1178 0.959 . S
C1177 H1179 0.960 . S
C1177 H1180 0.961 . S
H1178 C1177 0.959 . S
H1179 C1177 0.960 . S
H1180 C1177 0.961 . S
O1181 Co1156 1.967 . S
O1181 C1189 1.258 . S
O1182 Co1157 1.941 . S
O1182 C1189 1.266 . S
H1183 C1185 0.959 . S
H1184 C1185 0.961 . S
C1185 C1175 1.510 . S
C1185 H1183 0.959 . S
C1185 H1184 0.961 . S
C1185 H1186 0.960 . S
H1186 C1185 0.960 . S
H1187 N1167 0.862 . S
O1188 Co1156 1.920 . S
O1188 C1161 1.289 . S
C1189 O1181 1.258 . S
C1189 O1182 1.266 . S
Co1190 O1193 1.970 . S
Co1190 N1207 1.989 . S
Co1190 O1215 1.967 . S
Co1190 O1222 1.920 . S
Co1191 O1194 1.966 . S
Co1191 N1200 2.022 . S
Co1191 N1208 1.993 . S
Co1191 O1216 1.941 . S
C1192 O1193 1.258 . S
C1192 O1194 1.263 . S
O1193 Co1190 1.970 . S
O1193 C1192 1.258 . S
O1194 Co1191 1.966 . S
O1194 C1192 1.263 . S
C1195 O1196 1.235 . S
C1195 O1222 1.289 . S
O1196 C1195 1.235 . S
C1197 C1199 1.400 . S
C1197 N1200 1.351 . S
C1197 C1202 1.501 . S
C1198 C1199 1.387 . S
C1198 N1201 1.341 . S
C1199 C1197 1.400 . S
C1199 C1198 1.387 . S
N1200 Co1191 2.022 . S
N1200 C1197 1.351 . S
N1200 N1201 1.365 . S
N1201 C1198 1.341 . S
N1201 N1200 1.365 . S
N1201 H1221 0.862 . S
C1202 C1197 1.501 . S
C1202 H1203 0.961 . S
C1202 H1204 0.961 . S
C1202 H1205 0.960 . S
H1203 C1202 0.961 . S
H1204 C1202 0.961 . S
H1205 C1202 0.960 . S
C1206 N1207 1.342 . S
C1206 C1210 1.401 . S
C1206 C1211 1.499 . S
N1207 Co1190 1.989 . S
N1207 C1206 1.342 . S
N1207 N1208 1.388 . S
N1208 Co1191 1.993 . S
N1208 N1207 1.388 . S
N1208 C1209 1.346 . S
C1209 N1208 1.346 . S
C1209 C1210 1.396 . S
C1209 C1219 1.510 . S
C1210 C1206 1.401 . S
C1210 C1209 1.396 . S
C1211 C1206 1.499 . S
C1211 H1212 0.959 . S
C1211 H1213 0.960 . S
C1211 H1214 0.961 . S
H1212 C1211 0.959 . S
H1213 C1211 0.960 . S
H1214 C1211 0.961 . S
O1215 Co1190 1.967 . S
O1215 C1223 1.258 . S
O1216 Co1191 1.941 . S
O1216 C1223 1.266 . S
H1217 C1219 0.959 . S
H1218 C1219 0.961 . S
C1219 C1209 1.510 . S
C1219 H1217 0.959 . S
C1219 H1218 0.961 . S
C1219 H1220 0.960 . S
H1220 C1219 0.960 . S
H1221 N1201 0.862 . S
O1222 Co1190 1.920 . S
O1222 C1195 1.289 . S
C1223 O1215 1.258 . S
C1223 O1216 1.266 . S
C1224 C1225 1.363 . S
C1224 C1230 1.379 . S
C1224 N1232 1.356 . S
C1225 C1224 1.363 . S
C1225 C1231 1.363 . S
C1226 C1227 1.363 . S
C1226 C1231 1.379 . S
C1226 N1233 1.356 1_556 S
C1227 C1226 1.363 . S
C1227 C1230 1.363 . S
N1228 C1230 1.356 . S
N1228 H1240 0.984 . S
N1228 H1241 0.985 . S
N1229 C1231 1.356 . S
N1229 H1234 0.984 . S
N1229 H1235 0.985 . S
C1230 C1224 1.379 . S
C1230 C1227 1.363 . S
C1230 N1228 1.356 . S
C1231 C1225 1.363 . S
C1231 C1226 1.379 . S
C1231 N1229 1.356 . S
N1232 C1224 1.356 . S
N1232 H1238 0.984 . S
N1232 H1239 0.984 . S
N1233 C1226 1.356 1_554 S
N1233 H1236 0.984 . S
N1233 H1237 0.985 . S
H1234 N1229 0.984 . S
H1235 N1229 0.985 . S
H1236 N1233 0.984 . S
H1237 N1233 0.985 . S
H1238 N1232 0.984 . S
H1239 N1232 0.984 . S
H1240 N1228 0.984 . S
H1241 N1228 0.985 . S
C1242 C1243 1.363 . S
C1242 C1248 1.379 . S
C1242 N1250 1.356 . S
C1243 C1242 1.363 . S
C1243 C1249 1.363 . S
C1244 C1245 1.363 . S
C1244 C1249 1.379 . S
C1244 N1251 1.356 . S
C1245 C1244 1.363 . S
C1245 C1248 1.363 . S
N1246 C1248 1.356 . S
N1246 H1258 0.984 . S
N1246 H1259 0.985 . S
N1247 C1249 1.356 . S
N1247 H1252 0.984 . S
N1247 H1253 0.985 . S
C1248 C1242 1.379 . S
C1248 C1245 1.363 . S
C1248 N1246 1.356 . S
C1249 C1243 1.363 . S
C1249 C1244 1.379 . S
C1249 N1247 1.356 . S
N1250 C1242 1.356 . S
N1250 H1256 0.984 . S
N1250 H1257 0.984 . S
N1251 C1244 1.356 . S
N1251 H1254 0.984 1_556 S
N1251 H1255 0.995 . S
H1252 N1247 0.984 . S
H1253 N1247 0.985 . S
H1254 N1251 0.984 1_554 S
H1255 N1251 0.995 . S
H1256 N1250 0.984 . S
H1257 N1250 0.984 . S
H1258 N1246 0.984 . S
H1259 N1246 0.985 . S
C1260 C1261 1.363 . S
C1260 C1266 1.379 . S
C1260 N1268 1.356 . S
C1261 C1260 1.363 . S
C1261 C1267 1.363 . S
C1262 C1263 1.363 . S
C1262 C1267 1.379 . S
C1262 N1269 1.356 . S
C1263 C1262 1.363 . S
C1263 C1266 1.363 . S
N1264 C1266 1.356 1_554 S
N1264 H1276 0.984 . S
N1264 H1277 0.985 . S
N1265 C1267 1.356 . S
N1265 H1270 0.984 . S
N1265 H1271 0.985 . S
C1266 C1260 1.379 . S
C1266 C1263 1.363 . S
C1266 N1264 1.356 1_556 S
C1267 C1261 1.363 . S
C1267 C1262 1.379 . S
C1267 N1265 1.356 . S
N1268 C1260 1.356 . S
N1268 H1274 0.984 . S
N1268 H1275 0.984 . S
N1269 C1262 1.356 . S
N1269 H1272 0.984 . S
N1269 H1273 0.985 . S
H1270 N1265 0.984 . S
H1271 N1265 0.985 . S
H1272 N1269 0.984 . S
H1273 N1269 0.985 . S
H1274 N1268 0.984 . S
H1275 N1268 0.984 . S
H1276 N1264 0.984 . S
H1277 N1264 0.985 . S
C1278 C1279 1.363 . S
C1278 C1284 1.379 . S
C1278 N1286 1.356 . S
C1279 C1278 1.363 . S
C1279 C1285 1.363 . S
C1280 C1281 1.363 . S
C1280 C1285 1.379 . S
C1280 N1287 1.356 . S
C1281 C1280 1.363 . S
C1281 C1284 1.363 . S
N1282 C1284 1.356 . S
N1282 H1294 0.984 . S
N1282 H1295 0.985 . S
N1283 C1285 1.356 . S
N1283 H1288 0.984 . S
N1283 H1289 0.985 . S
C1284 C1278 1.379 . S
C1284 C1281 1.363 . S
C1284 N1282 1.356 . S
C1285 C1279 1.363 . S
C1285 C1280 1.379 . S
C1285 N1283 1.356 . S
N1286 C1278 1.356 . S
N1286 H1292 0.984 . S
N1286 H1293 0.984 . S
N1287 C1280 1.356 . S
N1287 H1290 0.984 . S
N1287 H1291 0.985 . S
H1288 N1283 0.984 . S
H1289 N1283 0.985 . S
H1290 N1287 0.984 . S
H1291 N1287 0.985 . S
H1292 N1286 0.984 . S
H1293 N1286 0.984 . S
H1294 N1282 0.984 . S
H1295 N1282 0.985 . S
C1296 C1297 1.363 . S
C1296 C1302 1.379 . S
C1296 N1304 1.356 . S
C1297 C1296 1.363 . S
C1297 C1303 1.363 . S
C1298 C1299 1.363 . S
C1298 C1303 1.379 . S
C1298 N1305 1.356 . S
C1299 C1298 1.363 . S
C1299 C1302 1.363 . S
N1300 C1302 1.356 . S
N1300 H1312 0.984 1_565 S
N1300 H1313 0.985 . S
N1301 C1303 1.356 . S
N1301 H1306 0.984 . S
N1301 H1307 0.985 . S
C1302 C1296 1.379 . S
C1302 C1299 1.363 . S
C1302 N1300 1.356 . S
C1303 C1297 1.363 . S
C1303 C1298 1.379 . S
C1303 N1301 1.356 . S
N1304 C1296 1.356 . S
N1304 H1310 0.984 . S
N1304 H1311 0.984 . S
N1305 C1298 1.356 . S
N1305 H1308 0.984 . S
N1305 H1309 0.985 . S
H1306 N1301 0.984 . S
H1307 N1301 0.985 . S
H1308 N1305 0.984 . S
H1309 N1305 0.985 . S
H1310 N1304 0.984 . S
H1311 N1304 0.984 . S
H1312 N1300 0.984 1_545 S
H1313 N1300 0.985 . S
C1314 C1315 1.363 . S
C1314 C1320 1.379 . S
C1314 N1322 1.356 . S
C1315 C1314 1.363 . S
C1315 C1321 1.363 . S
C1316 C1317 1.363 . S
C1316 C1321 1.379 . S
C1316 N1323 1.356 . S
C1317 C1316 1.363 . S
C1317 C1320 1.363 . S
N1318 C1320 1.356 . S
N1318 H1330 0.984 . S
N1318 H1331 0.985 . S
N1319 C1321 1.356 . S
N1319 H1324 0.984 . S
N1319 H1325 0.985 . S
C1320 C1314 1.379 . S
C1320 C1317 1.363 . S
C1320 N1318 1.356 . S
C1321 C1315 1.363 . S
C1321 C1316 1.379 . S
C1321 N1319 1.356 . S
N1322 C1314 1.356 . S
N1322 H1328 0.984 . S
N1322 H1329 0.984 . S
N1323 C1316 1.356 . S
N1323 H1326 0.984 . S
N1323 H1327 0.985 . S
H1324 N1319 0.984 . S
H1325 N1319 0.985 . S
H1326 N1323 0.984 . S
H1327 N1323 0.985 . S
H1328 N1322 0.984 . S
H1329 N1322 0.984 . S
H1330 N1318 0.984 . S
H1331 N1318 0.985 . S
C1332 C1333 1.363 . S
C1332 C1338 1.379 . S
C1332 N1340 1.356 . S
C1333 C1332 1.363 . S
C1333 C1339 1.363 . S
C1334 C1335 1.363 . S
C1334 C1339 1.379 . S
C1334 N1341 1.356 . S
C1335 C1334 1.363 . S
C1335 C1338 1.363 . S
N1336 C1338 1.356 . S
N1336 H1348 0.984 . S
N1336 H1349 0.985 . S
N1337 C1339 1.356 . S
N1337 H1342 0.984 . S
N1337 H1343 0.985 1_554 S
C1338 C1332 1.379 . S
C1338 C1335 1.363 . S
C1338 N1336 1.356 . S
C1339 C1333 1.363 . S
C1339 C1334 1.379 . S
C1339 N1337 1.356 . S
N1340 C1332 1.356 . S
N1340 H1346 0.984 . S
N1340 H1347 0.984 . S
N1341 C1334 1.356 . S
N1341 H1344 0.984 . S
N1341 H1345 0.985 . S
H1342 N1337 0.984 . S
H1343 N1337 0.985 1_556 S
H1344 N1341 0.984 . S
H1345 N1341 0.985 . S
H1346 N1340 0.984 . S
H1347 N1340 0.984 . S
H1348 N1336 0.984 . S
H1349 N1336 0.985 . S
C1350 C1351 1.363 . S
C1350 C1356 1.379 . S
C1350 N1358 1.356 . S
C1351 C1350 1.363 . S
C1351 C1357 1.363 . S
C1352 C1353 1.363 . S
C1352 C1357 1.379 . S
C1352 N1359 1.356 . S
C1353 C1352 1.363 . S
C1353 C1356 1.363 . S
N1354 C1356 1.356 . S
N1354 H1366 0.984 . S
N1354 H1367 0.985 . S
N1355 C1357 1.356 . S
N1355 H1360 0.984 . S
N1355 H1361 0.985 . S
C1356 C1350 1.379 . S
C1356 C1353 1.363 . S
C1356 N1354 1.356 . S
C1357 C1351 1.363 . S
C1357 C1352 1.379 . S
C1357 N1355 1.356 . S
N1358 C1350 1.356 . S
N1358 H1364 0.984 . S
N1358 H1365 0.984 . S
N1359 C1352 1.356 . S
N1359 H1362 0.984 . S
N1359 H1363 0.985 . S
H1360 N1355 0.984 . S
H1361 N1355 0.985 . S
H1362 N1359 0.984 . S
H1363 N1359 0.985 . S
H1364 N1358 0.984 . S
H1365 N1358 0.984 . S
H1366 N1354 0.984 . S
H1367 N1354 0.985 . S
C1368 C1369 1.363 . S
C1368 C1374 1.379 . S
C1368 N1376 1.356 . S
C1369 C1368 1.363 . S
C1369 C1375 1.363 . S
C1370 C1371 1.363 . S
C1370 C1375 1.379 . S
C1370 N1377 1.356 . S
C1371 C1370 1.363 . S
C1371 C1374 1.363 . S
N1372 C1374 1.356 . S
N1372 H1384 0.984 . S
N1372 H1385 0.985 . S
N1373 C1375 1.356 . S
N1373 H1378 0.984 . S
N1373 H1379 0.985 . S
C1374 C1368 1.379 . S
C1374 C1371 1.363 . S
C1374 N1372 1.356 . S
C1375 C1369 1.363 . S
C1375 C1370 1.379 . S
C1375 N1373 1.356 . S
N1376 C1368 1.356 . S
N1376 H1382 0.984 1_554 S
N1376 H1383 0.984 . S
N1377 C1370 1.356 . S
N1377 H1380 0.984 . S
N1377 H1381 0.985 . S
H1378 N1373 0.984 . S
H1379 N1373 0.985 . S
H1380 N1377 0.984 . S
H1381 N1377 0.985 . S
H1382 N1376 0.984 1_556 S
H1383 N1376 0.984 . S
H1384 N1372 0.984 . S
H1385 N1372 0.985 . S
C1386 C1387 1.363 . S
C1386 C1392 1.379 . S
C1386 N1394 1.356 . S
C1387 C1386 1.363 . S
C1387 C1393 1.363 . S
C1388 C1389 1.363 . S
C1388 C1393 1.379 . S
C1388 N1395 1.356 . S
C1389 C1388 1.363 . S
C1389 C1392 1.363 . S
N1390 C1392 1.356 . S
N1390 H1402 0.984 . S
N1390 H1403 0.985 . S
N1391 C1393 1.356 . S
N1391 H1396 0.984 . S
N1391 H1397 0.985 . S
C1392 C1386 1.379 . S
C1392 C1389 1.363 . S
C1392 N1390 1.356 . S
C1393 C1387 1.363 . S
C1393 C1388 1.379 . S
C1393 N1391 1.356 . S
N1394 C1386 1.356 . S
N1394 H1400 0.984 . S
N1394 H1401 0.984 . S
N1395 C1388 1.356 . S
N1395 H1398 0.984 . S
N1395 H1399 0.985 . S
H1396 N1391 0.984 . S
H1397 N1391 0.985 . S
H1398 N1395 0.984 . S
H1399 N1395 0.985 . S
H1400 N1394 0.984 . S
H1401 N1394 0.984 . S
H1402 N1390 0.984 . S
H1403 N1390 0.985 . S
C1404 C1405 1.363 . S
C1404 C1410 1.379 . S
C1404 N1412 1.356 . S
C1405 C1404 1.363 . S
C1405 C1411 1.363 . S
C1406 C1407 1.363 . S
C1406 C1411 1.379 . S
C1406 N1413 1.356 . S
C1407 C1406 1.363 . S
C1407 C1410 1.363 . S
N1408 C1410 1.356 . S
N1408 H1420 0.984 . S
N1408 H1421 0.985 . S
N1409 C1411 1.356 . S
N1409 H1414 0.984 . S
N1409 H1415 0.985 . S
C1410 C1404 1.379 . S
C1410 C1407 1.363 . S
C1410 N1408 1.356 . S
C1411 C1405 1.363 . S
C1411 C1406 1.379 . S
C1411 N1409 1.356 . S
N1412 C1404 1.356 . S
N1412 H1418 0.984 . S
N1412 H1419 0.984 . S
N1413 C1406 1.356 . S
N1413 H1416 0.984 . S
N1413 H1417 0.985 . S
H1414 N1409 0.984 . S
H1415 N1409 0.985 . S
H1416 N1413 0.984 . S
H1417 N1413 0.985 . S
H1418 N1412 0.984 . S
H1419 N1412 0.984 . S
H1420 N1408 0.984 . S
H1421 N1408 0.985 . S
C1422 C1423 1.363 . S
C1422 C1428 1.379 . S
C1422 N1430 1.356 . S
C1423 C1422 1.363 . S
C1423 C1429 1.363 . S
C1424 C1425 1.363 . S
C1424 C1429 1.379 . S
C1424 N1431 1.356 . S
C1425 C1424 1.363 . S
C1425 C1428 1.363 . S
N1426 C1428 1.356 . S
N1426 H1438 0.984 . S
N1426 H1439 0.985 . S
N1427 C1429 1.356 . S
N1427 H1432 0.984 . S
N1427 H1433 0.985 . S
C1428 C1422 1.379 . S
C1428 C1425 1.363 . S
C1428 N1426 1.356 . S
C1429 C1423 1.363 . S
C1429 C1424 1.379 . S
C1429 N1427 1.356 . S
N1430 C1422 1.356 . S
N1430 H1436 0.984 . S
N1430 H1437 0.984 . S
N1431 C1424 1.356 . S
N1431 H1434 0.984 . S
N1431 H1435 0.985 . S
H1432 N1427 0.984 . S
H1433 N1427 0.985 . S
H1434 N1431 0.984 . S
H1435 N1431 0.985 . S
H1436 N1430 0.984 . S
H1437 N1430 0.984 . S
H1438 N1426 0.984 . S
H1439 N1426 0.985 . S
C1440 C1441 1.363 1_455 S
C1440 C1446 1.379 . S
C1440 N1448 1.356 1_455 S
C1441 C1440 1.363 1_655 S
C1441 C1447 1.363 . S
C1442 C1443 1.363 1_655 S
C1442 C1447 1.379 . S
C1442 N1449 1.356 1_655 S
C1443 C1442 1.363 1_455 S
C1443 C1446 1.363 . S
N1444 C1446 1.356 . S
N1444 H1456 0.984 . S
N1444 H1457 0.985 . S
N1445 C1447 1.356 . S
N1445 H1450 0.984 . S
N1445 H1451 0.985 . S
C1446 C1440 1.379 . S
C1446 C1443 1.363 . S
C1446 N1444 1.356 . S
C1447 C1441 1.363 . S
C1447 C1442 1.379 . S
C1447 N1445 1.356 . S
N1448 C1440 1.356 1_655 S
N1448 H1454 0.984 1_655 S
N1448 H1455 0.984 . S
N1449 C1442 1.356 1_455 S
N1449 H1452 0.984 . S
N1449 H1453 0.985 1_455 S
H1450 N1445 0.984 . S
H1451 N1445 0.985 . S
H1452 N1449 0.984 . S
H1453 N1449 0.985 1_655 S
H1454 N1448 0.984 1_455 S
H1455 N1448 0.984 . S
H1456 N1444 0.984 . S
H1457 N1444 0.985 . S
C1458 C1459 1.363 . S
C1458 C1464 1.379 . S
C1458 N1466 1.356 . S
C1459 C1458 1.363 . S
C1459 C1465 1.363 . S
C1460 C1461 1.363 . S
C1460 C1465 1.379 . S
C1460 N1467 1.356 . S
C1461 C1460 1.363 . S
C1461 C1464 1.363 . S
N1462 C1464 1.356 . S
N1462 H1474 0.984 . S
N1462 H1475 0.985 . S
N1463 C1465 1.356 . S
N1463 H1468 0.984 . S
N1463 H1469 0.985 . S
C1464 C1458 1.379 . S
C1464 C1461 1.363 . S
C1464 N1462 1.356 . S
C1465 C1459 1.363 . S
C1465 C1460 1.379 . S
C1465 N1463 1.356 . S
N1466 C1458 1.356 . S
N1466 H1472 0.984 . S
N1466 H1473 0.984 . S
N1467 C1460 1.356 . S
N1467 H1470 0.984 . S
N1467 H1471 0.985 . S
H1468 N1463 0.984 . S
H1469 N1463 0.985 . S
H1470 N1467 0.984 . S
H1471 N1467 0.985 . S
H1472 N1466 0.984 . S
H1473 N1466 0.984 . S
H1474 N1462 0.984 . S
H1475 N1462 0.985 . S
C1476 C1477 1.363 1_545 S
C1476 C1482 1.379 . S
C1476 N1484 1.356 . S
C1477 C1476 1.363 1_565 S
C1477 C1483 1.363 . S
C1478 C1479 1.363 1_565 S
C1478 C1483 1.379 . S
C1478 N1485 1.356 . S
C1479 C1478 1.363 1_545 S
C1479 C1482 1.363 . S
N1480 C1482 1.356 . S
N1480 H1492 0.984 . S
N1480 H1493 0.985 . S
N1481 C1483 1.356 . S
N1481 H1486 0.984 . S
N1481 H1487 0.985 . S
C1482 C1476 1.379 . S
C1482 C1479 1.363 . S
C1482 N1480 1.356 . S
C1483 C1477 1.363 . S
C1483 C1478 1.379 . S
C1483 N1481 1.356 . S
N1484 C1476 1.356 . S
N1484 H1490 0.984 . S
N1484 H1491 0.984 1_545 S
N1485 C1478 1.356 . S
N1485 H1488 0.984 1_565 S
N1485 H1489 0.985 . S
H1486 N1481 0.984 . S
H1487 N1481 0.985 . S
H1488 N1485 0.984 1_545 S
H1489 N1485 0.985 . S
H1490 N1484 0.984 . S
H1491 N1484 0.984 1_565 S
H1492 N1480 0.984 . S
H1493 N1480 0.985 . S
C1494 C1495 1.363 . S
C1494 C1500 1.379 . S
C1494 N1502 1.356 . S
C1495 C1494 1.363 . S
C1495 C1501 1.363 1_565 S
C1496 C1497 1.363 . S
C1496 C1501 1.379 . S
C1496 N1503 1.356 . S
C1497 C1496 1.363 . S
C1497 C1500 1.363 1_545 S
N1498 C1500 1.356 1_545 S
N1498 H1510 0.984 1_545 S
N1498 H1511 0.985 . S
N1499 C1501 1.356 1_565 S
N1499 H1504 0.984 . S
N1499 H1505 0.985 1_565 S
C1500 C1494 1.379 . S
C1500 C1497 1.363 1_565 S
C1500 N1498 1.356 1_565 S
C1501 C1495 1.363 1_545 S
C1501 C1496 1.379 . S
C1501 N1499 1.356 1_545 S
N1502 C1494 1.356 . S
N1502 H1508 0.984 . S
N1502 H1509 0.984 . S
N1503 C1496 1.356 . S
N1503 H1506 0.984 . S
N1503 H1507 0.985 . S
H1504 N1499 0.984 . S
H1505 N1499 0.985 1_545 S
H1506 N1503 0.984 . S
H1507 N1503 0.985 . S
H1508 N1502 0.984 . S
H1509 N1502 0.984 . S
H1510 N1498 0.984 1_565 S
H1511 N1498 0.985 . S
C1512 C1513 1.363 . S
C1512 C1518 1.379 1_655 S
C1512 N1520 1.356 . S
C1513 C1512 1.363 . S
C1513 C1519 1.363 . S
C1514 C1515 1.363 . S
C1514 C1519 1.379 1_455 S
C1514 N1521 1.356 . S
C1515 C1514 1.363 . S
C1515 C1518 1.363 . S
N1516 C1518 1.356 . S
N1516 H1528 0.984 . S
N1516 H1529 0.985 . S
N1517 C1519 1.356 . S
N1517 H1522 0.984 . S
N1517 H1523 0.985 . S
C1518 C1512 1.379 1_455 S
C1518 C1515 1.363 . S
C1518 N1516 1.356 . S
C1519 C1513 1.363 . S
C1519 C1514 1.379 1_655 S
C1519 N1517 1.356 . S
N1520 C1512 1.356 . S
N1520 H1526 0.984 . S
N1520 H1527 0.984 . S
N1521 C1514 1.356 . S
N1521 H1524 0.984 . S
N1521 H1525 0.985 . S
H1522 N1517 0.984 . S
H1523 N1517 0.985 . S
H1524 N1521 0.984 . S
H1525 N1521 0.985 . S
H1526 N1520 0.984 . S
H1527 N1520 0.984 . S
H1528 N1516 0.984 . S
H1529 N1516 0.985 . S
C1530 C1531 1.363 . S
C1530 C1536 1.379 . S
C1530 N1538 1.356 . S
C1531 C1530 1.363 . S
C1531 C1537 1.363 . S
C1532 C1533 1.363 . S
C1532 C1537 1.379 . S
C1532 N1539 1.356 . S
C1533 C1532 1.363 . S
C1533 C1536 1.363 . S
N1534 C1536 1.356 . S
N1534 H1546 0.984 . S
N1534 H1547 0.985 . S
N1535 C1537 1.356 . S
N1535 H1540 0.984 . S
N1535 H1541 0.985 . S
C1536 C1530 1.379 . S
C1536 C1533 1.363 . S
C1536 N1534 1.356 . S
C1537 C1531 1.363 . S
C1537 C1532 1.379 . S
C1537 N1535 1.356 . S
N1538 C1530 1.356 . S
N1538 H1544 0.984 . S
N1538 H1545 0.984 . S
N1539 C1532 1.356 . S
N1539 H1542 0.984 . S
N1539 H1543 0.985 . S
H1540 N1535 0.984 . S
H1541 N1535 0.985 . S
H1542 N1539 0.984 . S
H1543 N1539 0.985 . S
H1544 N1538 0.984 . S
H1545 N1538 0.984 . S
H1546 N1534 0.984 . S
H1547 N1534 0.985 . S
C1548 C1549 1.363 . S
C1548 C1554 1.379 . S
C1548 N1556 1.356 . S
C1549 C1548 1.363 . S
C1549 C1555 1.363 . S
C1550 C1551 1.363 . S
C1550 C1555 1.379 . S
C1550 N1557 1.356 . S
C1551 C1550 1.363 . S
C1551 C1554 1.363 . S
N1552 C1554 1.356 . S
N1552 H1564 0.984 . S
N1552 H1565 0.985 . S
N1553 C1555 1.356 . S
N1553 H1558 0.984 . S
N1553 H1559 0.985 . S
C1554 C1548 1.379 . S
C1554 C1551 1.363 . S
C1554 N1552 1.356 . S
C1555 C1549 1.363 . S
C1555 C1550 1.379 . S
C1555 N1553 1.356 . S
N1556 C1548 1.356 . S
N1556 H1562 0.984 . S
N1556 H1563 0.984 . S
N1557 C1550 1.356 . S
N1557 H1560 0.984 . S
N1557 H1561 0.985 . S
H1558 N1553 0.984 . S
H1559 N1553 0.985 . S
H1560 N1557 0.984 . S
H1561 N1557 0.985 . S
H1562 N1556 0.984 . S
H1563 N1556 0.984 . S
H1564 N1552 0.984 . S
H1565 N1552 0.985 . S
C1566 C1567 1.345 1_545 S
C1566 C1572 1.379 . S
C1566 N1574 1.356 . S
C1567 C1566 1.345 1_565 S
C1567 C1573 1.381 . S
C1568 C1569 1.365 1_565 S
C1568 C1573 1.379 . S
C1568 N1575 1.356 . S
C1569 C1568 1.365 1_545 S
C1569 C1572 1.361 . S
N1570 C1572 1.356 . S
N1570 H1582 0.984 . S
N1570 H1583 0.985 . S
N1571 C1573 1.356 . S
N1571 H1576 0.984 . S
N1571 H1577 0.985 . S
C1572 C1566 1.379 . S
C1572 C1569 1.361 . S
C1572 N1570 1.356 . S
C1573 C1567 1.381 . S
C1573 C1568 1.379 . S
C1573 N1571 1.356 . S
N1574 C1566 1.356 . S
N1574 H1580 0.984 . S
N1574 H1581 0.984 . S
N1575 C1568 1.356 . S
N1575 H1578 0.984 . S
N1575 H1579 0.985 . S
H1576 N1571 0.984 . S
H1577 N1571 0.985 . S
H1578 N1575 0.984 . S
H1579 N1575 0.985 . S
H1580 N1574 0.984 . S
H1581 N1574 0.984 . S
H1582 N1570 0.984 . S
H1583 N1570 0.985 . S
C1584 C1585 1.365 . S
C1584 C1590 1.379 . S
C1584 N1592 1.356 . S
C1585 C1584 1.365 . S
C1585 C1591 1.361 1_455 S
C1586 C1587 1.346 1_655 S
C1586 C1591 1.379 . S
C1586 N1593 1.356 . S
C1587 C1586 1.346 1_455 S
C1587 C1590 1.380 . S
N1588 C1590 1.356 . S
N1588 H1600 0.984 . S
N1588 H1601 0.985 . S
N1589 C1591 1.356 . S
N1589 H1594 0.984 . S
N1589 H1595 0.985 . S
C1590 C1584 1.379 . S
C1590 C1587 1.380 . S
C1590 N1588 1.356 . S
C1591 C1585 1.361 1_655 S
C1591 C1586 1.379 . S
C1591 N1589 1.356 . S
N1592 C1584 1.356 . S
N1592 H1598 0.984 . S
N1592 H1599 0.984 . S
N1593 C1586 1.356 . S
N1593 H1596 0.984 . S
N1593 H1597 0.985 . S
H1594 N1589 0.984 . S
H1595 N1589 0.985 . S
H1596 N1593 0.984 . S
H1597 N1593 0.985 . S
H1598 N1592 0.984 . S
H1599 N1592 0.984 . S
H1600 N1588 0.984 . S
H1601 N1588 0.985 . S
C1602 C1603 1.363 . S
C1602 C1608 1.379 . S
C1602 N1610 1.356 . S
C1603 C1602 1.363 . S
C1603 C1609 1.363 . S
C1604 C1605 1.363 . S
C1604 C1609 1.379 . S
C1604 N1611 1.356 . S
C1605 C1604 1.363 . S
C1605 C1608 1.363 . S
N1606 C1608 1.356 . S
N1606 H1618 0.984 . S
N1606 H1619 0.985 . S
N1607 C1609 1.356 . S
N1607 H1612 0.984 . S
N1607 H1613 0.985 . S
C1608 C1602 1.379 . S
C1608 C1605 1.363 . S
C1608 N1606 1.356 . S
C1609 C1603 1.363 . S
C1609 C1604 1.379 . S
C1609 N1607 1.356 . S
N1610 C1602 1.356 . S
N1610 H1616 0.984 . S
N1610 H1617 0.984 . S
N1611 C1604 1.356 . S
N1611 H1614 0.984 . S
N1611 H1615 0.985 . S
H1612 N1607 0.984 . S
H1613 N1607 0.985 . S
H1614 N1611 0.984 . S
H1615 N1611 0.985 . S
H1616 N1610 0.984 . S
H1617 N1610 0.984 . S
H1618 N1606 0.984 . S
H1619 N1606 0.985 . S
C1620 C1621 1.382 . S
C1620 C1626 1.379 . S
C1620 N1628 1.356 . S
C1621 C1620 1.382 . S
C1621 C1627 1.344 1_565 S
C1622 C1623 1.361 . S
C1622 C1627 1.379 . S
C1622 N1629 1.356 . S
C1623 C1622 1.361 . S
C1623 C1626 1.365 1_545 S
N1624 C1626 1.356 . S
N1624 H1636 0.984 . S
N1624 H1637 0.985 . S
N1625 C1627 1.356 . S
N1625 H1630 0.984 . S
N1625 H1631 0.985 . S
C1626 C1620 1.379 . S
C1626 C1623 1.365 1_565 S
C1626 N1624 1.356 . S
C1627 C1621 1.344 1_545 S
C1627 C1622 1.379 . S
C1627 N1625 1.356 . S
N1628 C1620 1.356 . S
N1628 H1634 0.984 . S
N1628 H1635 0.984 . S
N1629 C1622 1.356 . S
N1629 H1632 0.984 . S
N1629 H1633 0.985 . S
H1630 N1625 0.984 . S
H1631 N1625 0.985 . S
H1632 N1629 0.984 . S
H1633 N1629 0.985 . S
H1634 N1628 0.984 . S
H1635 N1628 0.984 . S
H1636 N1624 0.984 . S
H1637 N1624 0.985 . S
C1638 C1639 1.361 1_655 S
C1638 C1644 1.379 . S
C1638 N1646 1.356 . S
C1639 C1638 1.361 1_455 S
C1639 C1645 1.365 . S
C1640 C1641 1.380 . S
C1640 C1645 1.379 . S
C1640 N1647 1.356 . S
C1641 C1640 1.380 . S
C1641 C1644 1.346 1_455 S
N1642 C1644 1.356 . S
N1642 H1654 0.984 . S
N1642 H1655 0.985 . S
N1643 C1645 1.356 . S
N1643 H1648 0.984 . S
N1643 H1649 0.985 . S
C1644 C1638 1.379 . S
C1644 C1641 1.346 1_655 S
C1644 N1642 1.356 . S
C1645 C1639 1.365 . S
C1645 C1640 1.379 . S
C1645 N1643 1.356 . S
N1646 C1638 1.356 . S
N1646 H1652 0.984 . S
N1646 H1653 0.984 . S
N1647 C1640 1.356 . S
N1647 H1650 0.984 . S
N1647 H1651 0.985 . S
H1648 N1643 0.984 . S
H1649 N1643 0.985 . S
H1650 N1647 0.984 . S
H1651 N1647 0.985 . S
H1652 N1646 0.984 . S
H1653 N1646 0.984 . S
H1654 N1642 0.984 . S
H1655 N1642 0.985 . S
C1656 C1657 1.363 . S
C1656 C1662 1.379 . S
C1656 N1664 1.356 . S
C1657 C1656 1.363 . S
C1657 C1663 1.363 . S
C1658 C1659 1.363 . S
C1658 C1663 1.379 . S
C1658 N1665 1.356 . S
C1659 C1658 1.363 . S
C1659 C1662 1.363 . S
N1660 C1662 1.356 . S
N1660 H1672 0.984 . S
N1660 H1673 0.985 . S
N1661 C1663 1.356 . S
N1661 H1666 0.984 . S
N1661 H1667 0.985 . S
C1662 C1656 1.379 . S
C1662 C1659 1.363 . S
C1662 N1660 1.356 . S
C1663 C1657 1.363 . S
C1663 C1658 1.379 . S
C1663 N1661 1.356 . S
N1664 C1656 1.356 . S
N1664 H1670 0.984 . S
N1664 H1671 0.984 . S
N1665 C1658 1.356 . S
N1665 H1668 0.984 . S
N1665 H1669 0.985 . S
H1666 N1661 0.984 . S
H1667 N1661 0.985 . S
H1668 N1665 0.984 . S
H1669 N1665 0.985 . S
H1670 N1664 0.984 . S
H1671 N1664 0.984 . S
H1672 N1660 0.984 . S
H1673 N1660 0.985 . S
C1674 C1675 1.363 . S
C1674 C1680 1.379 . S
C1674 N1682 1.356 . S
C1675 C1674 1.363 . S
C1675 C1681 1.363 . S
C1676 C1677 1.363 . S
C1676 C1681 1.379 . S
C1676 N1683 1.356 . S
C1677 C1676 1.363 . S
C1677 C1680 1.363 . S
N1678 C1680 1.356 . S
N1678 H1690 0.984 . S
N1678 H1691 0.985 . S
N1679 C1681 1.356 . S
N1679 H1684 0.984 . S
N1679 H1685 0.985 . S
C1680 C1674 1.379 . S
C1680 C1677 1.363 . S
C1680 N1678 1.356 . S
C1681 C1675 1.363 . S
C1681 C1676 1.379 . S
C1681 N1679 1.356 . S
N1682 C1674 1.356 . S
N1682 H1688 0.984 . S
N1682 H1689 0.984 . S
N1683 C1676 1.356 . S
N1683 H1686 0.984 . S
N1683 H1687 0.985 . S
H1684 N1679 0.984 . S
H1685 N1679 0.985 . S
H1686 N1683 0.984 . S
H1687 N1683 0.985 . S
H1688 N1682 0.984 . S
H1689 N1682 0.984 . S
H1690 N1678 0.984 . S
H1691 N1678 0.985 . S
C1692 C1693 1.363 . S
C1692 C1698 1.379 . S
C1692 N1700 1.356 . S
C1693 C1692 1.363 . S
C1693 C1699 1.363 . S
C1694 C1695 1.363 . S
C1694 C1699 1.379 . S
C1694 N1701 1.356 . S
C1695 C1694 1.363 . S
C1695 C1698 1.363 . S
N1696 C1698 1.356 . S
N1696 H1708 0.984 . S
N1696 H1709 0.985 . S
N1697 C1699 1.356 . S
N1697 H1702 0.984 . S
N1697 H1703 0.985 . S
C1698 C1692 1.379 . S
C1698 C1695 1.363 . S
C1698 N1696 1.356 . S
C1699 C1693 1.363 . S
C1699 C1694 1.379 . S
C1699 N1697 1.356 . S
N1700 C1692 1.356 . S
N1700 H1706 0.984 . S
N1700 H1707 0.984 . S
N1701 C1694 1.356 . S
N1701 H1704 0.984 . S
N1701 H1705 0.985 . S
H1702 N1697 0.984 . S
H1703 N1697 0.985 . S
H1704 N1701 0.984 . S
H1705 N1701 0.985 . S
H1706 N1700 0.984 . S
H1707 N1700 0.984 . S
H1708 N1696 0.984 . S
H1709 N1696 0.985 . S
C1710 C1711 1.363 . S
C1710 C1716 1.379 . S
C1710 N1718 1.356 . S
C1711 C1710 1.363 . S
C1711 C1717 1.363 . S
C1712 C1713 1.363 . S
C1712 C1717 1.379 . S
C1712 N1719 1.356 . S
C1713 C1712 1.363 . S
C1713 C1716 1.363 . S
N1714 C1716 1.356 . S
N1714 H1726 0.984 . S
N1714 H1727 0.985 . S
N1715 C1717 1.356 . S
N1715 H1720 0.984 . S
N1715 H1721 0.985 . S
C1716 C1710 1.379 . S
C1716 C1713 1.363 . S
C1716 N1714 1.356 . S
C1717 C1711 1.363 . S
C1717 C1712 1.379 . S
C1717 N1715 1.356 . S
N1718 C1710 1.356 . S
N1718 H1724 0.984 . S
N1718 H1725 0.984 . S
N1719 C1712 1.356 . S
N1719 H1722 0.984 . S
N1719 H1723 0.985 . S
H1720 N1715 0.984 . S
H1721 N1715 0.985 . S
H1722 N1719 0.984 . S
H1723 N1719 0.985 . S
H1724 N1718 0.984 . S
H1725 N1718 0.984 . S
H1726 N1714 0.984 . S
H1727 N1714 0.985 . S
C1728 C1729 1.363 . S
C1728 C1734 1.379 . S
C1728 N1736 1.356 . S
C1729 C1728 1.363 . S
C1729 C1735 1.363 . S
C1730 C1731 1.363 . S
C1730 C1735 1.379 . S
C1730 N1737 1.356 . S
C1731 C1730 1.363 . S
C1731 C1734 1.363 . S
N1732 C1734 1.356 . S
N1732 H1744 0.984 . S
N1732 H1745 0.985 . S
N1733 C1735 1.356 . S
N1733 H1738 0.984 . S
N1733 H1739 0.985 . S
C1734 C1728 1.379 . S
C1734 C1731 1.363 . S
C1734 N1732 1.356 . S
C1735 C1729 1.363 . S
C1735 C1730 1.379 . S
C1735 N1733 1.356 . S
N1736 C1728 1.356 . S
N1736 H1742 0.984 . S
N1736 H1743 0.984 . S
N1737 C1730 1.356 . S
N1737 H1740 0.984 . S
N1737 H1741 0.985 . S
H1738 N1733 0.984 . S
H1739 N1733 0.985 . S
H1740 N1737 0.984 . S
H1741 N1737 0.985 . S
H1742 N1736 0.984 . S
H1743 N1736 0.984 . S
H1744 N1732 0.984 . S
H1745 N1732 0.985 . S
C1746 C1747 1.363 . S
C1746 C1752 1.379 . S
C1746 N1754 1.356 . S
C1747 C1746 1.363 . S
C1747 C1753 1.363 . S
C1748 C1749 1.363 . S
C1748 C1753 1.379 . S
C1748 N1755 1.356 . S
C1749 C1748 1.363 . S
C1749 C1752 1.363 . S
N1750 C1752 1.356 . S
N1750 H1762 0.984 . S
N1750 H1763 0.985 . S
N1751 C1753 1.356 . S
N1751 H1756 0.984 . S
N1751 H1757 0.985 . S
C1752 C1746 1.379 . S
C1752 C1749 1.363 . S
C1752 N1750 1.356 . S
C1753 C1747 1.363 . S
C1753 C1748 1.379 . S
C1753 N1751 1.356 . S
N1754 C1746 1.356 . S
N1754 H1760 0.984 . S
N1754 H1761 0.984 . S
N1755 C1748 1.356 . S
N1755 H1758 0.984 . S
N1755 H1759 0.985 . S
H1756 N1751 0.984 . S
H1757 N1751 0.985 . S
H1758 N1755 0.984 . S
H1759 N1755 0.985 . S
H1760 N1754 0.984 . S
H1761 N1754 0.984 . S
H1762 N1750 0.984 . S
H1763 N1750 0.985 . S
C1764 C1765 1.363 . S
C1764 C1770 1.379 . S
C1764 N1772 1.356 . S
C1765 C1764 1.363 . S
C1765 C1771 1.363 . S
C1766 C1767 1.363 . S
C1766 C1771 1.379 . S
C1766 N1773 1.356 . S
C1767 C1766 1.363 . S
C1767 C1770 1.363 . S
N1768 C1770 1.356 . S
N1768 H1780 0.984 . S
N1768 H1781 0.985 1_556 S
N1769 C1771 1.356 . S
N1769 H1774 0.984 . S
N1769 H1775 0.985 . S
C1770 C1764 1.379 . S
C1770 C1767 1.363 . S
C1770 N1768 1.356 . S
C1771 C1765 1.363 . S
C1771 C1766 1.379 . S
C1771 N1769 1.356 . S
N1772 C1764 1.356 . S
N1772 H1778 0.984 . S
N1772 H1779 0.984 . S
N1773 C1766 1.356 . S
N1773 H1776 0.984 1_556 S
N1773 H1777 0.985 . S
H1774 N1769 0.984 . S
H1775 N1769 0.985 . S
H1776 N1773 0.984 1_554 S
H1777 N1773 0.985 . S
H1778 N1772 0.984 . S
H1779 N1772 0.984 . S
H1780 N1768 0.984 . S
H1781 N1768 0.985 1_554 S
C1782 C1783 1.363 . S
C1782 C1788 1.379 . S
C1782 N1790 1.356 . S
C1783 C1782 1.363 . S
C1783 C1789 1.363 . S
C1784 C1785 1.363 . S
C1784 C1789 1.379 . S
C1784 N1791 1.356 . S
C1785 C1784 1.363 . S
C1785 C1788 1.363 . S
N1786 C1788 1.356 . S
N1786 H1798 0.984 . S
N1786 H1799 0.985 . S
N1787 C1789 1.356 . S
N1787 H1792 0.984 1_556 S
N1787 H1793 0.985 . S
C1788 C1782 1.379 . S
C1788 C1785 1.363 . S
C1788 N1786 1.356 . S
C1789 C1783 1.363 . S
C1789 C1784 1.379 . S
C1789 N1787 1.356 . S
N1790 C1782 1.356 . S
N1790 H1796 0.984 . S
N1790 H1797 0.984 1_556 S
N1791 C1784 1.356 . S
N1791 H1794 0.984 . S
N1791 H1795 0.985 . S
H1792 N1787 0.984 1_554 S
H1793 N1787 0.985 . S
H1794 N1791 0.984 . S
H1795 N1791 0.985 . S
H1796 N1790 0.984 . S
H1797 N1790 0.984 1_554 S
H1798 N1786 0.984 . S
H1799 N1786 0.985 . S
C1800 C1801 1.363 . S
C1800 C1806 1.379 . S
C1800 N1808 1.356 . S
C1801 C1800 1.363 . S
C1801 C1807 1.363 . S
C1802 C1803 1.363 . S
C1802 C1807 1.379 . S
C1802 N1809 1.356 . S
C1803 C1802 1.363 . S
C1803 C1806 1.363 . S
N1804 C1806 1.356 . S
N1804 H1816 0.984 . S
N1804 H1817 0.985 1_556 S
N1805 C1807 1.356 . S
N1805 H1810 0.984 . S
N1805 H1811 0.985 . S
C1806 C1800 1.379 . S
C1806 C1803 1.363 . S
C1806 N1804 1.356 . S
C1807 C1801 1.363 . S
C1807 C1802 1.379 . S
C1807 N1805 1.356 . S
N1808 C1800 1.356 . S
N1808 H1814 0.984 . S
N1808 H1815 0.984 . S
N1809 C1802 1.356 . S
N1809 H1812 0.984 1_556 S
N1809 H1813 0.985 . S
H1810 N1805 0.984 . S
H1811 N1805 0.985 . S
H1812 N1809 0.984 1_554 S
H1813 N1809 0.985 . S
H1814 N1808 0.984 . S
H1815 N1808 0.984 . S
H1816 N1804 0.984 . S
H1817 N1804 0.985 1_554 S
C1818 C1819 1.363 . S
C1818 C1824 1.379 . S
C1818 N1826 1.356 . S
C1819 C1818 1.363 . S
C1819 C1825 1.363 . S
C1820 C1821 1.363 . S
C1820 C1825 1.379 . S
C1820 N1827 1.356 . S
C1821 C1820 1.363 . S
C1821 C1824 1.363 . S
N1822 C1824 1.356 . S
N1822 H1834 0.984 . S
N1822 H1835 0.985 . S
N1823 C1825 1.356 . S
N1823 H1828 0.984 . S
N1823 H1829 0.985 . S
C1824 C1818 1.379 . S
C1824 C1821 1.363 . S
C1824 N1822 1.356 . S
C1825 C1819 1.363 . S
C1825 C1820 1.379 . S
C1825 N1823 1.356 . S
N1826 C1818 1.356 . S
N1826 H1832 0.984 . S
N1826 H1833 0.984 . S
N1827 C1820 1.356 . S
N1827 H1830 0.984 . S
N1827 H1831 0.985 . S
H1828 N1823 0.984 . S
H1829 N1823 0.985 . S
H1830 N1827 0.984 . S
H1831 N1827 0.985 . S
H1832 N1826 0.984 . S
H1833 N1826 0.984 . S
H1834 N1822 0.984 . S
H1835 N1822 0.985 . S
C1836 C1837 1.363 . S
C1836 C1842 1.379 . S
C1836 N1844 1.356 . S
C1837 C1836 1.363 . S
C1837 C1843 1.363 . S
C1838 C1839 1.363 . S
C1838 C1843 1.379 . S
C1838 N1845 1.356 . S
C1839 C1838 1.363 . S
C1839 C1842 1.363 . S
N1840 C1842 1.356 . S
N1840 H1852 0.984 . S
N1840 H1853 0.985 . S
N1841 C1843 1.356 . S
N1841 H1846 0.984 . S
N1841 H1847 0.985 . S
C1842 C1836 1.379 . S
C1842 C1839 1.363 . S
C1842 N1840 1.356 . S
C1843 C1837 1.363 . S
C1843 C1838 1.379 . S
C1843 N1841 1.356 . S
N1844 C1836 1.356 . S
N1844 H1850 0.984 . S
N1844 H1851 0.984 . S
N1845 C1838 1.356 . S
N1845 H1848 0.984 . S
N1845 H1849 0.985 . S
H1846 N1841 0.984 . S
H1847 N1841 0.985 . S
H1848 N1845 0.984 . S
H1849 N1845 0.985 . S
H1850 N1844 0.984 . S
H1851 N1844 0.984 . S
H1852 N1840 0.984 . S
H1853 N1840 0.985 . S
C1854 C1855 1.363 . S
C1854 C1860 1.379 . S
C1854 N1862 1.356 . S
C1855 C1854 1.363 . S
C1855 C1861 1.363 . S
C1856 C1857 1.363 . S
C1856 C1861 1.379 . S
C1856 N1863 1.356 . S
C1857 C1856 1.363 . S
C1857 C1860 1.363 . S
N1858 C1860 1.356 . S
N1858 H1870 0.984 . S
N1858 H1871 0.985 . S
N1859 C1861 1.356 . S
N1859 H1864 0.984 . S
N1859 H1865 0.985 . S
C1860 C1854 1.379 . S
C1860 C1857 1.363 . S
C1860 N1858 1.356 . S
C1861 C1855 1.363 . S
C1861 C1856 1.379 . S
C1861 N1859 1.356 . S
N1862 C1854 1.356 . S
N1862 H1868 0.984 . S
N1862 H1869 0.984 . S
N1863 C1856 1.356 . S
N1863 H1866 0.984 . S
N1863 H1867 0.985 . S
H1864 N1859 0.984 . S
H1865 N1859 0.985 . S
H1866 N1863 0.984 . S
H1867 N1863 0.985 . S
H1868 N1862 0.984 . S
H1869 N1862 0.984 . S
H1870 N1858 0.984 . S
H1871 N1858 0.985 . S
C1872 C1873 1.363 . S
C1872 C1878 1.379 . S
C1872 N1880 1.356 . S
C1873 C1872 1.363 . S
C1873 C1879 1.363 1_554 S
C1874 C1875 1.363 1_556 S
C1874 C1879 1.379 . S
C1874 N1881 1.356 . S
C1875 C1874 1.363 1_554 S
C1875 C1878 1.363 . S
N1876 C1878 1.356 . S
N1876 H1888 0.984 . S
N1876 H1889 0.985 . S
N1877 C1879 1.356 . S
N1877 H1882 0.984 . S
N1877 H1883 0.985 . S
C1878 C1872 1.379 . S
C1878 C1875 1.363 . S
C1878 N1876 1.356 . S
C1879 C1873 1.363 1_556 S
C1879 C1874 1.379 . S
C1879 N1877 1.356 . S
N1880 C1872 1.356 . S
N1880 H1886 0.984 . S
N1880 H1887 0.984 . S
N1881 C1874 1.356 . S
N1881 H1884 0.984 . S
N1881 H1885 0.985 . S
H1882 N1877 0.984 . S
H1883 N1877 0.985 . S
H1884 N1881 0.984 . S
H1885 N1881 0.985 . S
H1886 N1880 0.984 . S
H1887 N1880 0.984 . S
H1888 N1876 0.984 . S
H1889 N1876 0.985 . S
C1890 C1891 1.363 1_556 S
C1890 C1896 1.379 . S
C1890 N1898 1.356 . S
C1891 C1890 1.363 1_554 S
C1891 C1897 1.363 . S
C1892 C1893 1.363 . S
C1892 C1897 1.379 . S
C1892 N1899 1.356 . S
C1893 C1892 1.363 . S
C1893 C1896 1.363 1_554 S
N1894 C1896 1.356 . S
N1894 H1906 0.984 . S
N1894 H1907 0.985 . S
N1895 C1897 1.356 . S
N1895 H1900 0.984 . S
N1895 H1901 0.985 . S
C1896 C1890 1.379 . S
C1896 C1893 1.363 1_556 S
C1896 N1894 1.356 . S
C1897 C1891 1.363 . S
C1897 C1892 1.379 . S
C1897 N1895 1.356 . S
N1898 C1890 1.356 . S
N1898 H1904 0.984 . S
N1898 H1905 0.984 . S
N1899 C1892 1.356 . S
N1899 H1902 0.984 . S
N1899 H1903 0.985 . S
H1900 N1895 0.984 . S
H1901 N1895 0.985 . S
H1902 N1899 0.984 . S
H1903 N1899 0.985 . S
H1904 N1898 0.984 . S
H1905 N1898 0.984 . S
H1906 N1894 0.984 . S
H1907 N1894 0.985 . S
C1908 C1909 1.363 1_556 S
C1908 C1914 1.379 . S
C1908 N1916 1.356 . S
C1909 C1908 1.363 1_554 S
C1909 C1915 1.363 . S
C1910 C1911 1.363 . S
C1910 C1915 1.379 . S
C1910 N1917 1.356 . S
C1911 C1910 1.363 . S
C1911 C1914 1.363 1_554 S
N1912 C1914 1.356 . S
N1912 H1924 0.984 . S
N1912 H1925 0.985 . S
N1913 C1915 1.356 . S
N1913 H1918 0.984 . S
N1913 H1919 0.985 . S
C1914 C1908 1.379 . S
C1914 C1911 1.363 1_556 S
C1914 N1912 1.356 . S
C1915 C1909 1.363 . S
C1915 C1910 1.379 . S
C1915 N1913 1.356 . S
N1916 C1908 1.356 . S
N1916 H1922 0.984 . S
N1916 H1923 0.984 . S
N1917 C1910 1.356 . S
N1917 H1920 0.984 . S
N1917 H1921 0.985 . S
H1918 N1913 0.984 . S
H1919 N1913 0.985 . S
H1920 N1917 0.984 . S
H1921 N1917 0.985 . S
H1922 N1916 0.984 . S
H1923 N1916 0.984 . S
H1924 N1912 0.984 . S
H1925 N1912 0.985 . S
C1926 C1927 1.363 . S
C1926 C1932 1.379 . S
C1926 N1934 1.356 . S
C1927 C1926 1.363 . S
C1927 C1933 1.363 . S
C1928 C1929 1.363 . S
C1928 C1933 1.379 . S
C1928 N1935 1.356 . S
C1929 C1928 1.363 . S
C1929 C1932 1.363 . S
N1930 C1932 1.356 . S
N1930 H1942 0.984 . S
N1930 H1943 0.985 . S
N1931 C1933 1.356 . S
N1931 H1936 0.984 . S
N1931 H1937 0.985 . S
C1932 C1926 1.379 . S
C1932 C1929 1.363 . S
C1932 N1930 1.356 . S
C1933 C1927 1.363 . S
C1933 C1928 1.379 . S
C1933 N1931 1.356 . S
N1934 C1926 1.356 . S
N1934 H1940 0.984 . S
N1934 H1941 0.984 . S
N1935 C1928 1.356 . S
N1935 H1938 0.984 . S
N1935 H1939 0.985 . S
H1936 N1931 0.984 . S
H1937 N1931 0.985 . S
H1938 N1935 0.984 . S
H1939 N1935 0.985 . S
H1940 N1934 0.984 . S
H1941 N1934 0.984 . S
H1942 N1930 0.984 . S
H1943 N1930 0.985 . S
C1944 C1945 1.363 . S
C1944 C1950 1.379 . S
C1944 N1952 1.356 . S
C1945 C1944 1.363 . S
C1945 C1951 1.363 . S
C1946 C1947 1.363 . S
C1946 C1951 1.379 . S
C1946 N1953 1.356 . S
C1947 C1946 1.363 . S
C1947 C1950 1.363 . S
N1948 C1950 1.356 . S
N1948 H1960 0.984 . S
N1948 H1961 0.985 . S
N1949 C1951 1.356 . S
N1949 H1954 0.984 . S
N1949 H1955 0.985 . S
C1950 C1944 1.379 . S
C1950 C1947 1.363 . S
C1950 N1948 1.356 . S
C1951 C1945 1.363 . S
C1951 C1946 1.379 . S
C1951 N1949 1.356 . S
N1952 C1944 1.356 . S
N1952 H1958 0.984 . S
N1952 H1959 0.984 . S
N1953 C1946 1.356 . S
N1953 H1956 0.984 . S
N1953 H1957 0.985 . S
H1954 N1949 0.984 . S
H1955 N1949 0.985 . S
H1956 N1953 0.984 . S
H1957 N1953 0.985 . S
H1958 N1952 0.984 . S
H1959 N1952 0.984 . S
H1960 N1948 0.984 . S
H1961 N1948 0.985 . S
C1962 C1963 1.363 . S
C1962 C1968 1.379 . S
C1962 N1970 1.356 . S
C1963 C1962 1.363 . S
C1963 C1969 1.363 . S
C1964 C1965 1.363 . S
C1964 C1969 1.379 . S
C1964 N1971 1.356 . S
C1965 C1964 1.363 . S
C1965 C1968 1.363 . S
N1966 C1968 1.356 . S
N1966 H1978 0.984 . S
N1966 H1979 0.985 . S
N1967 C1969 1.356 . S
N1967 H1972 0.984 . S
N1967 H1973 0.985 . S
C1968 C1962 1.379 . S
C1968 C1965 1.363 . S
C1968 N1966 1.356 . S
C1969 C1963 1.363 . S
C1969 C1964 1.379 . S
C1969 N1967 1.356 . S
N1970 C1962 1.356 . S
N1970 H1976 0.984 . S
N1970 H1977 0.984 . S
N1971 C1964 1.356 . S
N1971 H1974 0.984 . S
N1971 H1975 0.985 . S
H1972 N1967 0.984 . S
H1973 N1967 0.985 . S
H1974 N1971 0.984 . S
H1975 N1971 0.985 . S
H1976 N1970 0.984 . S
H1977 N1970 0.984 . S
H1978 N1966 0.984 . S
H1979 N1966 0.985 . S
C1980 C1981 1.363 . S
C1980 C1986 1.379 . S
C1980 N1988 1.356 . S
C1981 C1980 1.363 . S
C1981 C1987 1.363 . S
C1982 C1983 1.363 . S
C1982 C1987 1.379 . S
C1982 N1989 1.356 . S
C1983 C1982 1.363 . S
C1983 C1986 1.363 . S
N1984 C1986 1.356 . S
N1984 H1996 0.984 1_554 S
N1984 H1997 0.986 . S
N1985 C1987 1.356 . S
N1985 H1990 0.984 . S
N1985 H1991 0.985 . S
C1986 C1980 1.379 . S
C1986 C1983 1.363 . S
C1986 N1984 1.356 . S
C1987 C1981 1.363 . S
C1987 C1982 1.379 . S
C1987 N1985 1.356 . S
N1988 C1980 1.356 . S
N1988 H1994 0.984 . S
N1988 H1995 0.984 . S
N1989 C1982 1.356 . S
N1989 H1992 0.984 . S
N1989 H1993 0.985 . S
H1990 N1985 0.984 . S
H1991 N1985 0.985 . S
H1992 N1989 0.984 . S
H1993 N1989 0.985 . S
H1994 N1988 0.984 . S
H1995 N1988 0.984 . S
H1996 N1984 0.984 1_556 S
H1997 N1984 0.986 . S
C1998 C1999 1.363 . S
C1998 C2004 1.379 . S
C1998 N2006 1.356 . S
C1999 C1998 1.363 . S
C1999 C2005 1.363 1_554 S
C2000 C2001 1.362 . S
C2000 C2005 1.379 1_554 S
C2000 N2007 1.357 1_554 S
C2001 C2000 1.362 . S
C2001 C2004 1.363 . S
N2002 C2004 1.356 . S
N2002 H2014 0.984 . S
N2002 H2015 0.985 . S
N2003 C2005 1.356 . S
N2003 H2008 0.984 . S
N2003 H2009 0.985 . S
C2004 C1998 1.379 . S
C2004 C2001 1.363 . S
C2004 N2002 1.356 . S
C2005 C1999 1.363 1_556 S
C2005 C2000 1.379 1_556 S
C2005 N2003 1.356 . S
N2006 C1998 1.356 . S
N2006 H2012 0.984 . S
N2006 H2013 0.984 . S
N2007 C2000 1.357 1_556 S
N2007 H2010 0.984 . S
N2007 H2011 0.985 . S
H2008 N2003 0.984 . S
H2009 N2003 0.985 . S
H2010 N2007 0.984 . S
H2011 N2007 0.985 . S
H2012 N2006 0.984 . S
H2013 N2006 0.984 . S
H2014 N2002 0.984 . S
H2015 N2002 0.985 . S
C2016 C2017 1.363 . S
C2016 C2022 1.379 . S
C2016 N2024 1.356 1_554 S
C2017 C2016 1.363 . S
C2017 C2023 1.363 . S
C2018 C2019 1.363 . S
C2018 C2023 1.379 . S
C2018 N2025 1.356 . S
C2019 C2018 1.363 . S
C2019 C2022 1.363 . S
N2020 C2022 1.356 . S
N2020 H2032 0.984 . S
N2020 H2033 0.985 . S
N2021 C2023 1.356 . S
N2021 H2026 0.984 . S
N2021 H2027 0.985 . S
C2022 C2016 1.379 . S
C2022 C2019 1.363 . S
C2022 N2020 1.356 . S
C2023 C2017 1.363 . S
C2023 C2018 1.379 . S
C2023 N2021 1.356 . S
N2024 C2016 1.356 1_556 S
N2024 H2030 0.984 . S
N2024 H2031 0.984 . S
N2025 C2018 1.356 . S
N2025 H2028 0.984 . S
N2025 H2029 0.985 . S
H2026 N2021 0.984 . S
H2027 N2021 0.985 . S
H2028 N2025 0.984 . S
H2029 N2025 0.985 . S
H2030 N2024 0.984 . S
H2031 N2024 0.984 . S
H2032 N2020 0.984 . S
H2033 N2020 0.985 . S
C2034 C2035 1.363 . S
C2034 C2040 1.379 . S
C2034 N2042 1.356 . S
C2035 C2034 1.363 . S
C2035 C2041 1.363 . S
C2036 C2037 1.363 . S
C2036 C2041 1.379 . S
C2036 N2043 1.356 . S
C2037 C2036 1.363 . S
C2037 C2040 1.363 . S
N2038 C2040 1.356 . S
N2038 H2050 0.984 . S
N2038 H2051 0.985 . S
N2039 C2041 1.356 . S
N2039 H2044 0.984 . S
N2039 H2045 0.985 . S
C2040 C2034 1.379 . S
C2040 C2037 1.363 . S
C2040 N2038 1.356 . S
C2041 C2035 1.363 . S
C2041 C2036 1.379 . S
C2041 N2039 1.356 . S
N2042 C2034 1.356 . S
N2042 H2048 0.984 . S
N2042 H2049 0.984 . S
N2043 C2036 1.356 . S
N2043 H2046 0.984 . S
N2043 H2047 0.985 . S
H2044 N2039 0.984 . S
H2045 N2039 0.985 . S
H2046 N2043 0.984 . S
H2047 N2043 0.985 . S
H2048 N2042 0.984 . S
H2049 N2042 0.984 . S
H2050 N2038 0.984 . S
H2051 N2038 0.985 . S
C2052 C2053 1.363 . S
C2052 C2058 1.379 . S
C2052 N2060 1.356 . S
C2053 C2052 1.363 . S
C2053 C2059 1.363 . S
C2054 C2055 1.363 . S
C2054 C2059 1.379 . S
C2054 N2061 1.356 . S
C2055 C2054 1.363 . S
C2055 C2058 1.363 . S
N2056 C2058 1.356 . S
N2056 H2068 0.984 . S
N2056 H2069 0.985 . S
N2057 C2059 1.356 . S
N2057 H2062 0.984 . S
N2057 H2063 0.985 . S
C2058 C2052 1.379 . S
C2058 C2055 1.363 . S
C2058 N2056 1.356 . S
C2059 C2053 1.363 . S
C2059 C2054 1.379 . S
C2059 N2057 1.356 . S
N2060 C2052 1.356 . S
N2060 H2066 0.984 . S
N2060 H2067 0.984 . S
N2061 C2054 1.356 . S
N2061 H2064 0.984 . S
N2061 H2065 0.985 . S
H2062 N2057 0.984 . S
H2063 N2057 0.985 . S
H2064 N2061 0.984 . S
H2065 N2061 0.985 . S
H2066 N2060 0.984 . S
H2067 N2060 0.984 . S
H2068 N2056 0.984 . S
H2069 N2056 0.985 . S
C2070 C2071 1.363 . S
C2070 C2076 1.379 . S
C2070 N2078 1.356 . S
C2071 C2070 1.363 . S
C2071 C2077 1.363 . S
C2072 C2073 1.363 . S
C2072 C2077 1.379 . S
C2072 N2079 1.356 . S
C2073 C2072 1.363 . S
C2073 C2076 1.363 . S
N2074 C2076 1.356 . S
N2074 H2086 0.984 . S
N2074 H2087 0.985 . S
N2075 C2077 1.356 . S
N2075 H2080 0.984 . S
N2075 H2081 0.985 . S
C2076 C2070 1.379 . S
C2076 C2073 1.363 . S
C2076 N2074 1.356 . S
C2077 C2071 1.363 . S
C2077 C2072 1.379 . S
C2077 N2075 1.356 . S
N2078 C2070 1.356 . S
N2078 H2084 0.984 . S
N2078 H2085 0.984 . S
N2079 C2072 1.356 . S
N2079 H2082 0.984 . S
N2079 H2083 0.985 . S
H2080 N2075 0.984 . S
H2081 N2075 0.985 . S
H2082 N2079 0.984 . S
H2083 N2079 0.985 . S
H2084 N2078 0.984 . S
H2085 N2078 0.984 . S
H2086 N2074 0.984 . S
H2087 N2074 0.985 . S
C2088 C2089 1.363 . S
C2088 C2094 1.379 . S
C2088 N2096 1.356 . S
C2089 C2088 1.363 . S
C2089 C2095 1.363 . S
C2090 C2091 1.363 . S
C2090 C2095 1.379 . S
C2090 N2097 1.356 . S
C2091 C2090 1.363 . S
C2091 C2094 1.363 . S
N2092 C2094 1.356 . S
N2092 H2104 0.984 . S
N2092 H2105 0.985 . S
N2093 C2095 1.356 . S
N2093 H2098 0.984 . S
N2093 H2099 0.985 . S
C2094 C2088 1.379 . S
C2094 C2091 1.363 . S
C2094 N2092 1.356 . S
C2095 C2089 1.363 . S
C2095 C2090 1.379 . S
C2095 N2093 1.356 . S
N2096 C2088 1.356 . S
N2096 H2102 0.984 . S
N2096 H2103 0.984 . S
N2097 C2090 1.356 . S
N2097 H2100 0.984 . S
N2097 H2101 0.985 . S
H2098 N2093 0.984 . S
H2099 N2093 0.985 . S
H2100 N2097 0.984 . S
H2101 N2097 0.985 . S
H2102 N2096 0.984 . S
H2103 N2096 0.984 . S
H2104 N2092 0.984 . S
H2105 N2092 0.985 . S
C2106 C2107 1.363 . S
C2106 C2112 1.379 . S
C2106 N2114 1.356 . S
C2107 C2106 1.363 . S
C2107 C2113 1.363 . S
C2108 C2109 1.363 . S
C2108 C2113 1.379 . S
C2108 N2115 1.356 . S
C2109 C2108 1.363 . S
C2109 C2112 1.363 . S
N2110 C2112 1.356 . S
N2110 H2122 0.984 . S
N2110 H2123 0.985 . S
N2111 C2113 1.356 . S
N2111 H2116 0.984 . S
N2111 H2117 0.985 . S
C2112 C2106 1.379 . S
C2112 C2109 1.363 . S
C2112 N2110 1.356 . S
C2113 C2107 1.363 . S
C2113 C2108 1.379 . S
C2113 N2111 1.356 . S
N2114 C2106 1.356 . S
N2114 H2120 0.984 . S
N2114 H2121 0.984 . S
N2115 C2108 1.356 . S
N2115 H2118 0.984 . S
N2115 H2119 0.985 . S
H2116 N2111 0.984 . S
H2117 N2111 0.985 . S
H2118 N2115 0.984 . S
H2119 N2115 0.985 . S
H2120 N2114 0.984 . S
H2121 N2114 0.984 . S
H2122 N2110 0.984 . S
H2123 N2110 0.985 . S
C2124 C2125 1.363 . S
C2124 C2130 1.379 . S
C2124 N2132 1.356 . S
C2125 C2124 1.363 . S
C2125 C2131 1.363 . S
C2126 C2127 1.363 . S
C2126 C2131 1.379 . S
C2126 N2133 1.356 . S
C2127 C2126 1.363 . S
C2127 C2130 1.363 . S
N2128 C2130 1.356 . S
N2128 H2140 0.984 . S
N2128 H2141 0.985 . S
N2129 C2131 1.356 . S
N2129 H2134 0.984 . S
N2129 H2135 0.985 . S
C2130 C2124 1.379 . S
C2130 C2127 1.363 . S
C2130 N2128 1.356 . S
C2131 C2125 1.363 . S
C2131 C2126 1.379 . S
C2131 N2129 1.356 . S
N2132 C2124 1.356 . S
N2132 H2138 0.984 . S
N2132 H2139 0.984 . S
N2133 C2126 1.356 . S
N2133 H2136 0.984 . S
N2133 H2137 0.985 . S
H2134 N2129 0.984 . S
H2135 N2129 0.985 . S
H2136 N2133 0.984 . S
H2137 N2133 0.985 . S
H2138 N2132 0.984 . S
H2139 N2132 0.984 . S
H2140 N2128 0.984 . S
H2141 N2128 0.985 . S
C2142 C2143 1.363 . S
C2142 C2148 1.379 . S
C2142 N2150 1.356 . S
C2143 C2142 1.363 . S
C2143 C2149 1.363 . S
C2144 C2145 1.363 . S
C2144 C2149 1.379 . S
C2144 N2151 1.356 . S
C2145 C2144 1.363 . S
C2145 C2148 1.363 . S
N2146 C2148 1.356 . S
N2146 H2158 0.984 . S
N2146 H2159 0.985 . S
N2147 C2149 1.356 . S
N2147 H2152 0.984 . S
N2147 H2153 0.985 . S
C2148 C2142 1.379 . S
C2148 C2145 1.363 . S
C2148 N2146 1.356 . S
C2149 C2143 1.363 . S
C2149 C2144 1.379 . S
C2149 N2147 1.356 . S
N2150 C2142 1.356 . S
N2150 H2156 0.984 . S
N2150 H2157 0.984 . S
N2151 C2144 1.356 . S
N2151 H2154 0.984 . S
N2151 H2155 0.985 . S
H2152 N2147 0.984 . S
H2153 N2147 0.985 . S
H2154 N2151 0.984 . S
H2155 N2151 0.985 . S
H2156 N2150 0.984 . S
H2157 N2150 0.984 . S
H2158 N2146 0.984 . S
H2159 N2146 0.985 . S
C2160 C2161 1.363 . S
C2160 C2166 1.379 . S
C2160 N2168 1.356 . S
C2161 C2160 1.363 . S
C2161 C2167 1.363 . S
C2162 C2163 1.363 . S
C2162 C2167 1.379 . S
C2162 N2169 1.356 . S
C2163 C2162 1.363 . S
C2163 C2166 1.363 . S
N2164 C2166 1.356 . S
N2164 H2176 0.984 . S
N2164 H2177 0.985 . S
N2165 C2167 1.356 . S
N2165 H2170 0.984 . S
N2165 H2171 0.985 . S
C2166 C2160 1.379 . S
C2166 C2163 1.363 . S
C2166 N2164 1.356 . S
C2167 C2161 1.363 . S
C2167 C2162 1.379 . S
C2167 N2165 1.356 . S
N2168 C2160 1.356 . S
N2168 H2174 0.984 . S
N2168 H2175 0.984 . S
N2169 C2162 1.356 . S
N2169 H2172 0.984 . S
N2169 H2173 0.985 . S
H2170 N2165 0.984 . S
H2171 N2165 0.985 . S
H2172 N2169 0.984 . S
H2173 N2169 0.985 . S
H2174 N2168 0.984 . S
H2175 N2168 0.984 . S
H2176 N2164 0.984 . S
H2177 N2164 0.985 . S
C2178 C2179 1.363 . S
C2178 C2184 1.379 . S
C2178 N2186 1.356 . S
C2179 C2178 1.363 . S
C2179 C2185 1.363 . S
C2180 C2181 1.363 . S
C2180 C2185 1.379 . S
C2180 N2187 1.356 . S
C2181 C2180 1.363 . S
C2181 C2184 1.363 . S
N2182 C2184 1.356 . S
N2182 H2194 0.984 . S
N2182 H2195 0.985 . S
N2183 C2185 1.356 . S
N2183 H2188 0.984 . S
N2183 H2189 0.985 . S
C2184 C2178 1.379 . S
C2184 C2181 1.363 . S
C2184 N2182 1.356 . S
C2185 C2179 1.363 . S
C2185 C2180 1.379 . S
C2185 N2183 1.356 . S
N2186 C2178 1.356 . S
N2186 H2192 0.984 . S
N2186 H2193 0.984 . S
N2187 C2180 1.356 . S
N2187 H2190 0.984 . S
N2187 H2191 0.985 . S
H2188 N2183 0.984 . S
H2189 N2183 0.985 . S
H2190 N2187 0.984 . S
H2191 N2187 0.985 . S
H2192 N2186 0.984 . S
H2193 N2186 0.984 . S
H2194 N2182 0.984 . S
H2195 N2182 0.985 . S
C2196 C2197 1.363 . S
C2196 C2202 1.379 . S
C2196 N2204 1.356 . S
C2197 C2196 1.363 . S
C2197 C2203 1.363 . S
C2198 C2199 1.363 . S
C2198 C2203 1.379 . S
C2198 N2205 1.356 . S
C2199 C2198 1.363 . S
C2199 C2202 1.363 . S
N2200 C2202 1.356 . S
N2200 H2212 0.984 . S
N2200 H2213 0.985 . S
N2201 C2203 1.356 . S
N2201 H2206 0.984 . S
N2201 H2207 0.985 . S
C2202 C2196 1.379 . S
C2202 C2199 1.363 . S
C2202 N2200 1.356 . S
C2203 C2197 1.363 . S
C2203 C2198 1.379 . S
C2203 N2201 1.356 . S
N2204 C2196 1.356 . S
N2204 H2210 0.984 . S
N2204 H2211 0.984 . S
N2205 C2198 1.356 . S
N2205 H2208 0.984 . S
N2205 H2209 0.985 . S
H2206 N2201 0.984 . S
H2207 N2201 0.985 . S
H2208 N2205 0.984 . S
H2209 N2205 0.985 . S
H2210 N2204 0.984 . S
H2211 N2204 0.984 . S
H2212 N2200 0.984 . S
H2213 N2200 0.985 . S
C2214 C2215 1.363 . S
C2214 C2220 1.379 . S
C2214 N2222 1.356 . S
C2215 C2214 1.363 . S
C2215 C2221 1.363 . S
C2216 C2217 1.363 . S
C2216 C2221 1.379 . S
C2216 N2223 1.356 . S
C2217 C2216 1.363 . S
C2217 C2220 1.363 . S
N2218 C2220 1.356 . S
N2218 H2230 0.984 . S
N2218 H2231 0.985 . S
N2219 C2221 1.356 . S
N2219 H2224 0.984 . S
N2219 H2225 0.985 . S
C2220 C2214 1.379 . S
C2220 C2217 1.363 . S
C2220 N2218 1.356 . S
C2221 C2215 1.363 . S
C2221 C2216 1.379 . S
C2221 N2219 1.356 . S
N2222 C2214 1.356 . S
N2222 H2228 0.984 . S
N2222 H2229 0.984 . S
N2223 C2216 1.356 . S
N2223 H2226 0.984 . S
N2223 H2227 0.985 . S
H2224 N2219 0.984 . S
H2225 N2219 0.985 . S
H2226 N2223 0.984 . S
H2227 N2223 0.985 . S
H2228 N2222 0.984 . S
H2229 N2222 0.984 . S
H2230 N2218 0.984 . S
H2231 N2218 0.985 . S
C2232 C2233 1.363 . S
C2232 C2238 1.379 . S
C2232 N2240 1.356 . S
C2233 C2232 1.363 . S
C2233 C2239 1.363 . S
C2234 C2235 1.363 . S
C2234 C2239 1.379 . S
C2234 N2241 1.356 . S
C2235 C2234 1.363 . S
C2235 C2238 1.363 . S
N2236 C2238 1.356 . S
N2236 H2248 0.984 . S
N2236 H2249 0.985 . S
N2237 C2239 1.356 . S
N2237 H2242 0.984 . S
N2237 H2243 0.985 . S
C2238 C2232 1.379 . S
C2238 C2235 1.363 . S
C2238 N2236 1.356 . S
C2239 C2233 1.363 . S
C2239 C2234 1.379 . S
C2239 N2237 1.356 . S
N2240 C2232 1.356 . S
N2240 H2246 0.984 . S
N2240 H2247 0.984 . S
N2241 C2234 1.356 . S
N2241 H2244 0.984 . S
N2241 H2245 0.985 . S
H2242 N2237 0.984 . S
H2243 N2237 0.985 . S
H2244 N2241 0.984 . S
H2245 N2241 0.985 . S
H2246 N2240 0.984 . S
H2247 N2240 0.984 . S
H2248 N2236 0.984 . S
H2249 N2236 0.985 . S
C2250 C2251 1.363 . S
C2250 C2256 1.379 . S
C2250 N2258 1.356 . S
C2251 C2250 1.363 . S
C2251 C2257 1.363 . S
C2252 C2253 1.363 . S
C2252 C2257 1.379 . S
C2252 N2259 1.356 . S
C2253 C2252 1.363 . S
C2253 C2256 1.363 . S
N2254 C2256 1.356 . S
N2254 H2266 0.984 . S
N2254 H2267 0.985 . S
N2255 C2257 1.356 . S
N2255 H2260 0.984 . S
N2255 H2261 0.985 . S
C2256 C2250 1.379 . S
C2256 C2253 1.363 . S
C2256 N2254 1.356 . S
C2257 C2251 1.363 . S
C2257 C2252 1.379 . S
C2257 N2255 1.356 . S
N2258 C2250 1.356 . S
N2258 H2264 0.984 . S
N2258 H2265 0.984 . S
N2259 C2252 1.356 . S
N2259 H2262 0.984 . S
N2259 H2263 0.985 . S
H2260 N2255 0.984 . S
H2261 N2255 0.985 . S
H2262 N2259 0.984 . S
H2263 N2259 0.985 . S
H2264 N2258 0.984 . S
H2265 N2258 0.984 . S
H2266 N2254 0.984 . S
H2267 N2254 0.985 . S
C2268 C2269 1.363 . S
C2268 C2274 1.379 . S
C2268 N2276 1.356 . S
C2269 C2268 1.363 . S
C2269 C2275 1.363 . S
C2270 C2271 1.363 . S
C2270 C2275 1.379 . S
C2270 N2277 1.356 . S
C2271 C2270 1.363 . S
C2271 C2274 1.363 . S
N2272 C2274 1.356 . S
N2272 H2284 0.984 . S
N2272 H2285 0.985 . S
N2273 C2275 1.356 . S
N2273 H2278 0.984 . S
N2273 H2279 0.985 . S
C2274 C2268 1.379 . S
C2274 C2271 1.363 . S
C2274 N2272 1.356 . S
C2275 C2269 1.363 . S
C2275 C2270 1.379 . S
C2275 N2273 1.356 . S
N2276 C2268 1.356 . S
N2276 H2282 0.984 . S
N2276 H2283 0.984 . S
N2277 C2270 1.356 . S
N2277 H2280 0.984 . S
N2277 H2281 0.985 . S
H2278 N2273 0.984 . S
H2279 N2273 0.985 . S
H2280 N2277 0.984 . S
H2281 N2277 0.985 . S
H2282 N2276 0.984 . S
H2283 N2276 0.984 . S
H2284 N2272 0.984 . S
H2285 N2272 0.985 . S
C2286 C2287 1.363 . S
C2286 C2292 1.379 . S
C2286 N2294 1.356 . S
C2287 C2286 1.363 . S
C2287 C2293 1.363 . S
C2288 C2289 1.363 . S
C2288 C2293 1.379 . S
C2288 N2295 1.356 . S
C2289 C2288 1.363 . S
C2289 C2292 1.363 . S
N2290 C2292 1.356 . S
N2290 H2302 0.984 . S
N2290 H2303 0.985 . S
N2291 C2293 1.356 . S
N2291 H2296 0.984 . S
N2291 H2297 0.985 . S
C2292 C2286 1.379 . S
C2292 C2289 1.363 . S
C2292 N2290 1.356 . S
C2293 C2287 1.363 . S
C2293 C2288 1.379 . S
C2293 N2291 1.356 . S
N2294 C2286 1.356 . S
N2294 H2300 0.984 . S
N2294 H2301 0.984 . S
N2295 C2288 1.356 . S
N2295 H2298 0.984 . S
N2295 H2299 0.985 . S
H2296 N2291 0.984 . S
H2297 N2291 0.985 . S
H2298 N2295 0.984 . S
H2299 N2295 0.985 . S
H2300 N2294 0.984 . S
H2301 N2294 0.984 . S
H2302 N2290 0.984 . S
H2303 N2290 0.985 . S
C2304 C2305 1.363 . S
C2304 C2310 1.379 . S
C2304 N2312 1.356 . S
C2305 C2304 1.363 . S
C2305 C2311 1.363 . S
C2306 C2307 1.363 . S
C2306 C2311 1.379 . S
C2306 N2313 1.356 . S
C2307 C2306 1.363 . S
C2307 C2310 1.363 . S
N2308 C2310 1.356 . S
N2308 H2320 0.984 . S
N2308 H2321 0.985 . S
N2309 C2311 1.356 . S
N2309 H2314 0.984 . S
N2309 H2315 0.985 . S
C2310 C2304 1.379 . S
C2310 C2307 1.363 . S
C2310 N2308 1.356 . S
C2311 C2305 1.363 . S
C2311 C2306 1.379 . S
C2311 N2309 1.356 . S
N2312 C2304 1.356 . S
N2312 H2318 0.984 . S
N2312 H2319 0.984 . S
N2313 C2306 1.356 . S
N2313 H2316 0.984 . S
N2313 H2317 0.985 . S
H2314 N2309 0.984 . S
H2315 N2309 0.985 . S
H2316 N2313 0.984 . S
H2317 N2313 0.985 . S
H2318 N2312 0.984 . S
H2319 N2312 0.984 . S
H2320 N2308 0.984 . S
H2321 N2308 0.985 . S
C2322 C2323 1.363 . S
C2322 C2328 1.379 . S
C2322 N2330 1.356 . S
C2323 C2322 1.363 . S
C2323 C2329 1.363 . S
C2324 C2325 1.363 . S
C2324 C2329 1.379 . S
C2324 N2331 1.356 . S
C2325 C2324 1.363 . S
C2325 C2328 1.363 . S
N2326 C2328 1.356 . S
N2326 H2338 0.984 . S
N2326 H2339 0.985 . S
N2327 C2329 1.356 . S
N2327 H2332 0.984 . S
N2327 H2333 0.985 . S
C2328 C2322 1.379 . S
C2328 C2325 1.363 . S
C2328 N2326 1.356 . S
C2329 C2323 1.363 . S
C2329 C2324 1.379 . S
C2329 N2327 1.356 . S
N2330 C2322 1.356 . S
N2330 H2336 0.984 . S
N2330 H2337 0.984 . S
N2331 C2324 1.356 . S
N2331 H2334 0.984 . S
N2331 H2335 0.985 . S
H2332 N2327 0.984 . S
H2333 N2327 0.985 . S
H2334 N2331 0.984 . S
H2335 N2331 0.985 . S
H2336 N2330 0.984 . S
H2337 N2330 0.984 . S
H2338 N2326 0.984 . S
H2339 N2326 0.985 . S
C2340 C2341 1.363 . S
C2340 C2346 1.379 . S
C2340 N2348 1.356 . S
C2341 C2340 1.363 . S
C2341 C2347 1.363 . S
C2342 C2343 1.363 . S
C2342 C2347 1.379 . S
C2342 N2349 1.356 . S
C2343 C2342 1.363 . S
C2343 C2346 1.363 . S
N2344 C2346 1.356 . S
N2344 H2356 0.984 . S
N2344 H2357 0.985 . S
N2345 C2347 1.356 . S
N2345 H2350 0.984 . S
N2345 H2351 0.985 . S
C2346 C2340 1.379 . S
C2346 C2343 1.363 . S
C2346 N2344 1.356 . S
C2347 C2341 1.363 . S
C2347 C2342 1.379 . S
C2347 N2345 1.356 . S
N2348 C2340 1.356 . S
N2348 H2354 0.984 . S
N2348 H2355 0.984 . S
N2349 C2342 1.356 . S
N2349 H2352 0.984 . S
N2349 H2353 0.985 . S
H2350 N2345 0.984 . S
H2351 N2345 0.985 . S
H2352 N2349 0.984 . S
H2353 N2349 0.985 . S
H2354 N2348 0.984 . S
H2355 N2348 0.984 . S
H2356 N2344 0.984 . S
H2357 N2344 0.985 . S
C2358 C2359 1.363 . S
C2358 C2364 1.379 . S
C2358 N2366 1.356 . S
C2359 C2358 1.363 . S
C2359 C2365 1.363 . S
C2360 C2361 1.363 . S
C2360 C2365 1.379 . S
C2360 N2367 1.356 . S
C2361 C2360 1.363 . S
C2361 C2364 1.363 . S
N2362 C2364 1.356 . S
N2362 H2374 0.984 . S
N2362 H2375 0.985 . S
N2363 C2365 1.356 . S
N2363 H2368 0.984 . S
N2363 H2369 0.985 . S
C2364 C2358 1.379 . S
C2364 C2361 1.363 . S
C2364 N2362 1.356 . S
C2365 C2359 1.363 . S
C2365 C2360 1.379 . S
C2365 N2363 1.356 . S
N2366 C2358 1.356 . S
N2366 H2372 0.984 . S
N2366 H2373 0.984 . S
N2367 C2360 1.356 . S
N2367 H2370 0.984 . S
N2367 H2371 0.985 . S
H2368 N2363 0.984 . S
H2369 N2363 0.985 . S
H2370 N2367 0.984 . S
H2371 N2367 0.985 . S
H2372 N2366 0.984 . S
H2373 N2366 0.984 . S
H2374 N2362 0.984 . S
H2375 N2362 0.985 . S
C2376 C2377 1.363 . S
C2376 C2382 1.379 . S
C2376 N2384 1.356 . S
C2377 C2376 1.363 . S
C2377 C2383 1.363 . S
C2378 C2379 1.363 . S
C2378 C2383 1.379 . S
C2378 N2385 1.356 . S
C2379 C2378 1.363 . S
C2379 C2382 1.363 . S
N2380 C2382 1.356 . S
N2380 H2392 0.984 . S
N2380 H2393 0.985 . S
N2381 C2383 1.356 . S
N2381 H2386 0.984 . S
N2381 H2387 0.985 . S
C2382 C2376 1.379 . S
C2382 C2379 1.363 . S
C2382 N2380 1.356 . S
C2383 C2377 1.363 . S
C2383 C2378 1.379 . S
C2383 N2381 1.356 . S
N2384 C2376 1.356 . S
N2384 H2390 0.984 . S
N2384 H2391 0.984 . S
N2385 C2378 1.356 . S
N2385 H2388 0.984 . S
N2385 H2389 0.985 . S
H2386 N2381 0.984 . S
H2387 N2381 0.985 . S
H2388 N2385 0.984 . S
H2389 N2385 0.985 . S
H2390 N2384 0.984 . S
H2391 N2384 0.984 . S
H2392 N2380 0.984 . S
H2393 N2380 0.985 . S
C2394 C2395 1.363 . S
C2394 C2400 1.379 . S
C2394 N2402 1.356 . S
C2395 C2394 1.363 . S
C2395 C2401 1.363 . S
C2396 C2397 1.363 . S
C2396 C2401 1.379 . S
C2396 N2403 1.356 . S
C2397 C2396 1.363 . S
C2397 C2400 1.363 . S
N2398 C2400 1.356 . S
N2398 H2410 0.984 . S
N2398 H2411 0.985 . S
N2399 C2401 1.356 . S
N2399 H2404 0.984 . S
N2399 H2405 0.985 . S
C2400 C2394 1.379 . S
C2400 C2397 1.363 . S
C2400 N2398 1.356 . S
C2401 C2395 1.363 . S
C2401 C2396 1.379 . S
C2401 N2399 1.356 . S
N2402 C2394 1.356 . S
N2402 H2408 0.984 . S
N2402 H2409 0.984 . S
N2403 C2396 1.356 . S
N2403 H2406 0.984 . S
N2403 H2407 0.985 . S
H2404 N2399 0.984 . S
H2405 N2399 0.985 . S
H2406 N2403 0.984 . S
H2407 N2403 0.985 . S
H2408 N2402 0.984 . S
H2409 N2402 0.984 . S
H2410 N2398 0.984 . S
H2411 N2398 0.985 . S
C2412 C2413 1.363 . S
C2412 C2418 1.379 . S
C2412 N2420 1.356 . S
C2413 C2412 1.363 . S
C2413 C2419 1.363 . S
C2414 C2415 1.363 . S
C2414 C2419 1.379 . S
C2414 N2421 1.356 . S
C2415 C2414 1.363 . S
C2415 C2418 1.363 . S
N2416 C2418 1.356 . S
N2416 H2428 0.984 . S
N2416 H2429 0.985 . S
N2417 C2419 1.356 . S
N2417 H2422 0.984 . S
N2417 H2423 0.985 . S
C2418 C2412 1.379 . S
C2418 C2415 1.363 . S
C2418 N2416 1.356 . S
C2419 C2413 1.363 . S
C2419 C2414 1.379 . S
C2419 N2417 1.356 . S
N2420 C2412 1.356 . S
N2420 H2426 0.984 . S
N2420 H2427 0.984 . S
N2421 C2414 1.356 . S
N2421 H2424 0.984 . S
N2421 H2425 0.985 . S
H2422 N2417 0.984 . S
H2423 N2417 0.985 . S
H2424 N2421 0.984 . S
H2425 N2421 0.985 . S
H2426 N2420 0.984 . S
H2427 N2420 0.984 . S
H2428 N2416 0.984 . S
H2429 N2416 0.985 . S
C2430 C2431 1.363 . S
C2430 C2436 1.379 . S
C2430 N2438 1.356 . S
C2431 C2430 1.363 . S
C2431 C2437 1.363 . S
C2432 C2433 1.363 . S
C2432 C2437 1.379 . S
C2432 N2439 1.356 . S
C2433 C2432 1.363 . S
C2433 C2436 1.363 . S
N2434 C2436 1.356 . S
N2434 H2446 0.984 . S
N2434 H2447 0.985 . S
N2435 C2437 1.356 . S
N2435 H2440 0.984 . S
N2435 H2441 0.985 . S
C2436 C2430 1.379 . S
C2436 C2433 1.363 . S
C2436 N2434 1.356 . S
C2437 C2431 1.363 . S
C2437 C2432 1.379 . S
C2437 N2435 1.356 . S
N2438 C2430 1.356 . S
N2438 H2444 0.984 . S
N2438 H2445 0.984 . S
N2439 C2432 1.356 . S
N2439 H2442 0.984 . S
N2439 H2443 0.985 . S
H2440 N2435 0.984 . S
H2441 N2435 0.985 . S
H2442 N2439 0.984 . S
H2443 N2439 0.985 . S
H2444 N2438 0.984 . S
H2445 N2438 0.984 . S
H2446 N2434 0.984 . S
H2447 N2434 0.985 . S
C2448 C2449 1.363 . S
C2448 C2454 1.379 . S
C2448 N2456 1.356 . S
C2449 C2448 1.363 . S
C2449 C2455 1.363 . S
C2450 C2451 1.363 . S
C2450 C2455 1.379 . S
C2450 N2457 1.356 . S
C2451 C2450 1.363 . S
C2451 C2454 1.363 . S
N2452 C2454 1.356 . S
N2452 H2464 0.984 . S
N2452 H2465 0.985 . S
N2453 C2455 1.356 . S
N2453 H2458 0.984 . S
N2453 H2459 0.985 . S
C2454 C2448 1.379 . S
C2454 C2451 1.363 . S
C2454 N2452 1.356 . S
C2455 C2449 1.363 . S
C2455 C2450 1.379 . S
C2455 N2453 1.356 . S
N2456 C2448 1.356 . S
N2456 H2462 0.984 . S
N2456 H2463 0.984 . S
N2457 C2450 1.356 . S
N2457 H2460 0.984 . S
N2457 H2461 0.985 . S
H2458 N2453 0.984 . S
H2459 N2453 0.985 . S
H2460 N2457 0.984 . S
H2461 N2457 0.985 . S
H2462 N2456 0.984 . S
H2463 N2456 0.984 . S
H2464 N2452 0.984 . S
H2465 N2452 0.985 . S
C2466 C2467 1.363 . S
C2466 C2472 1.379 . S
C2466 N2474 1.356 . S
C2467 C2466 1.363 . S
C2467 C2473 1.363 . S
C2468 C2469 1.363 . S
C2468 C2473 1.379 . S
C2468 N2475 1.356 . S
C2469 C2468 1.363 . S
C2469 C2472 1.363 . S
N2470 C2472 1.356 . S
N2470 H2482 0.984 . S
N2470 H2483 0.985 . S
N2471 C2473 1.356 . S
N2471 H2476 0.984 . S
N2471 H2477 0.985 . S
C2472 C2466 1.379 . S
C2472 C2469 1.363 . S
C2472 N2470 1.356 . S
C2473 C2467 1.363 . S
C2473 C2468 1.379 . S
C2473 N2471 1.356 . S
N2474 C2466 1.356 . S
N2474 H2480 0.984 . S
N2474 H2481 0.984 . S
N2475 C2468 1.356 . S
N2475 H2478 0.984 . S
N2475 H2479 0.985 . S
H2476 N2471 0.984 . S
H2477 N2471 0.985 . S
H2478 N2475 0.984 . S
H2479 N2475 0.985 . S
H2480 N2474 0.984 . S
H2481 N2474 0.984 . S
H2482 N2470 0.984 . S
H2483 N2470 0.985 . S
C2484 C2485 1.363 . S
C2484 C2490 1.379 . S
C2484 N2492 1.356 . S
C2485 C2484 1.363 . S
C2485 C2491 1.363 . S
C2486 C2487 1.363 . S
C2486 C2491 1.379 . S
C2486 N2493 1.356 . S
C2487 C2486 1.363 . S
C2487 C2490 1.363 . S
N2488 C2490 1.356 . S
N2488 H2500 0.984 . S
N2488 H2501 0.985 . S
N2489 C2491 1.356 . S
N2489 H2494 0.984 . S
N2489 H2495 0.985 . S
C2490 C2484 1.379 . S
C2490 C2487 1.363 . S
C2490 N2488 1.356 . S
C2491 C2485 1.363 . S
C2491 C2486 1.379 . S
C2491 N2489 1.356 . S
N2492 C2484 1.356 . S
N2492 H2498 0.984 . S
N2492 H2499 0.984 . S
N2493 C2486 1.356 . S
N2493 H2496 0.984 . S
N2493 H2497 0.985 . S
H2494 N2489 0.984 . S
H2495 N2489 0.985 . S
H2496 N2493 0.984 . S
H2497 N2493 0.985 . S
H2498 N2492 0.984 . S
H2499 N2492 0.984 . S
H2500 N2488 0.984 . S
H2501 N2488 0.985 . S
C2502 C2503 1.363 . S
C2502 C2508 1.379 . S
C2502 N2510 1.356 . S
C2503 C2502 1.363 . S
C2503 C2509 1.363 . S
C2504 C2505 1.363 . S
C2504 C2509 1.379 . S
C2504 N2511 1.356 . S
C2505 C2504 1.363 . S
C2505 C2508 1.363 . S
N2506 C2508 1.356 . S
N2506 H2518 0.984 . S
N2506 H2519 0.985 . S
N2507 C2509 1.356 . S
N2507 H2512 0.984 . S
N2507 H2513 0.985 . S
C2508 C2502 1.379 . S
C2508 C2505 1.363 . S
C2508 N2506 1.356 . S
C2509 C2503 1.363 . S
C2509 C2504 1.379 . S
C2509 N2507 1.356 . S
N2510 C2502 1.356 . S
N2510 H2516 0.984 . S
N2510 H2517 0.984 . S
N2511 C2504 1.356 . S
N2511 H2514 0.984 . S
N2511 H2515 0.985 . S
H2512 N2507 0.984 . S
H2513 N2507 0.985 . S
H2514 N2511 0.984 . S
H2515 N2511 0.985 . S
H2516 N2510 0.984 . S
H2517 N2510 0.984 . S
H2518 N2506 0.984 . S
H2519 N2506 0.985 . S
C2520 C2521 1.363 . S
C2520 C2526 1.379 . S
C2520 N2528 1.356 . S
C2521 C2520 1.363 . S
C2521 C2527 1.363 . S
C2522 C2523 1.363 . S
C2522 C2527 1.379 . S
C2522 N2529 1.356 . S
C2523 C2522 1.363 . S
C2523 C2526 1.363 . S
N2524 C2526 1.356 . S
N2524 H2536 0.984 . S
N2524 H2537 0.985 . S
N2525 C2527 1.356 . S
N2525 H2530 0.984 . S
N2525 H2531 0.985 . S
C2526 C2520 1.379 . S
C2526 C2523 1.363 . S
C2526 N2524 1.356 . S
C2527 C2521 1.363 . S
C2527 C2522 1.379 . S
C2527 N2525 1.356 . S
N2528 C2520 1.356 . S
N2528 H2534 0.984 . S
N2528 H2535 0.984 . S
N2529 C2522 1.356 . S
N2529 H2532 0.984 . S
N2529 H2533 0.985 . S
H2530 N2525 0.984 . S
H2531 N2525 0.985 . S
H2532 N2529 0.984 . S
H2533 N2529 0.985 . S
H2534 N2528 0.984 . S
H2535 N2528 0.984 . S
H2536 N2524 0.984 . S
H2537 N2524 0.985 . S
C2538 C2539 1.363 1_565 S
C2538 C2544 1.379 . S
C2538 N2546 1.356 . S
C2539 C2538 1.363 1_545 S
C2539 C2545 1.363 . S
C2540 C2541 1.363 1_545 S
C2540 C2545 1.379 . S
C2540 N2547 1.356 . S
C2541 C2540 1.363 1_565 S
C2541 C2544 1.363 . S
N2542 C2544 1.356 . S
N2542 H2554 0.984 . S
N2542 H2555 0.985 . S
N2543 C2545 1.356 . S
N2543 H2548 0.984 . S
N2543 H2549 0.985 . S
C2544 C2538 1.379 . S
C2544 C2541 1.363 . S
C2544 N2542 1.356 . S
C2545 C2539 1.363 . S
C2545 C2540 1.379 . S
C2545 N2543 1.356 . S
N2546 C2538 1.356 . S
N2546 H2552 0.984 . S
N2546 H2553 0.984 . S
N2547 C2540 1.356 . S
N2547 H2550 0.984 . S
N2547 H2551 0.985 . S
H2548 N2543 0.984 . S
H2549 N2543 0.985 . S
H2550 N2547 0.984 . S
H2551 N2547 0.985 . S
H2552 N2546 0.984 . S
H2553 N2546 0.984 . S
H2554 N2542 0.984 . S
H2555 N2542 0.985 . S
C2556 C2557 1.363 1_655 S
C2556 C2562 1.379 . S
C2556 N2564 1.356 . S
C2557 C2556 1.363 1_455 S
C2557 C2563 1.363 . S
C2558 C2559 1.344 1_455 S
C2558 C2563 1.379 . S
C2558 N2565 1.356 . S
C2559 C2558 1.344 1_655 S
C2559 C2562 1.381 . S
N2560 C2562 1.356 . S
N2560 H2572 0.984 . S
N2560 H2573 0.985 . S
N2561 C2563 1.356 . S
N2561 H2566 0.984 . S
N2561 H2567 0.985 . S
C2562 C2556 1.379 . S
C2562 C2559 1.381 . S
C2562 N2560 1.356 . S
C2563 C2557 1.363 . S
C2563 C2558 1.379 . S
C2563 N2561 1.356 . S
N2564 C2556 1.356 . S
N2564 H2570 0.984 . S
N2564 H2571 0.984 . S
N2565 C2558 1.356 . S
N2565 H2568 0.984 . S
N2565 H2569 0.985 . S
H2566 N2561 0.984 . S
H2567 N2561 0.985 . S
H2568 N2565 0.984 . S
H2569 N2565 0.985 . S
H2570 N2564 0.984 . S
H2571 N2564 0.984 . S
H2572 N2560 0.984 . S
H2573 N2560 0.985 . S
C2574 C2575 1.363 . S
C2574 C2580 1.379 . S
C2574 N2582 1.356 . S
C2575 C2574 1.363 . S
C2575 C2581 1.363 . S
C2576 C2577 1.363 . S
C2576 C2581 1.379 . S
C2576 N2583 1.356 . S
C2577 C2576 1.363 . S
C2577 C2580 1.363 . S
N2578 C2580 1.356 . S
N2578 H2590 0.984 . S
N2578 H2591 0.985 . S
N2579 C2581 1.356 . S
N2579 H2584 0.984 . S
N2579 H2585 0.985 . S
C2580 C2574 1.379 . S
C2580 C2577 1.363 . S
C2580 N2578 1.356 . S
C2581 C2575 1.363 . S
C2581 C2576 1.379 . S
C2581 N2579 1.356 . S
N2582 C2574 1.356 . S
N2582 H2588 0.984 . S
N2582 H2589 0.984 . S
N2583 C2576 1.356 . S
N2583 H2586 0.984 . S
N2583 H2587 0.985 . S
H2584 N2579 0.984 . S
H2585 N2579 0.985 . S
H2586 N2583 0.984 . S
H2587 N2583 0.985 . S
H2588 N2582 0.984 . S
H2589 N2582 0.984 . S
H2590 N2578 0.984 . S
H2591 N2578 0.985 . S
C2592 C2593 1.404 . S
C2592 C2598 1.379 . S
C2592 N2600 1.356 . S
C2593 C2592 1.404 . S
C2593 C2599 1.320 1_545 S
C2594 C2595 1.363 . S
C2594 C2599 1.379 . S
C2594 N2601 1.356 . S
C2595 C2594 1.363 . S
C2595 C2598 1.363 1_565 S
N2596 C2598 1.356 . S
N2596 H2608 0.984 . S
N2596 H2609 0.985 . S
N2597 C2599 1.356 . S
N2597 H2602 0.984 . S
N2597 H2603 0.985 . S
C2598 C2592 1.379 . S
C2598 C2595 1.363 1_545 S
C2598 N2596 1.356 . S
C2599 C2593 1.320 1_565 S
C2599 C2594 1.379 . S
C2599 N2597 1.356 . S
N2600 C2592 1.356 . S
N2600 H2606 0.984 . S
N2600 H2607 0.984 . S
N2601 C2594 1.356 . S
N2601 H2604 0.984 . S
N2601 H2605 0.985 . S
H2602 N2597 0.984 . S
H2603 N2597 0.985 . S
H2604 N2601 0.984 . S
H2605 N2601 0.985 . S
H2606 N2600 0.984 . S
H2607 N2600 0.984 . S
H2608 N2596 0.984 . S
H2609 N2596 0.985 . S
C2610 C2611 1.363 1_655 S
C2610 C2616 1.379 . S
C2610 N2618 1.356 . S
C2611 C2610 1.363 1_455 S
C2611 C2617 1.363 . S
C2612 C2613 1.344 1_455 S
C2612 C2617 1.379 . S
C2612 N2619 1.356 . S
C2613 C2612 1.344 1_655 S
C2613 C2616 1.381 . S
N2614 C2616 1.356 . S
N2614 H2626 0.984 . S
N2614 H2627 0.985 . S
N2615 C2617 1.356 . S
N2615 H2620 0.984 . S
N2615 H2621 0.985 . S
C2616 C2610 1.379 . S
C2616 C2613 1.381 . S
C2616 N2614 1.356 . S
C2617 C2611 1.363 . S
C2617 C2612 1.379 . S
C2617 N2615 1.356 . S
N2618 C2610 1.356 . S
N2618 H2624 0.984 . S
N2618 H2625 0.984 . S
N2619 C2612 1.356 . S
N2619 H2622 0.984 . S
N2619 H2623 0.985 . S
H2620 N2615 0.984 . S
H2621 N2615 0.985 . S
H2622 N2619 0.984 . S
H2623 N2619 0.985 . S
H2624 N2618 0.984 . S
H2625 N2618 0.984 . S
H2626 N2614 0.984 . S
H2627 N2614 0.985 . S
C2628 C2629 1.363 . S
C2628 C2634 1.379 . S
C2628 N2636 1.356 . S
C2629 C2628 1.363 . S
C2629 C2635 1.363 . S
C2630 C2631 1.363 . S
C2630 C2635 1.379 . S
C2630 N2637 1.356 . S
C2631 C2630 1.363 . S
C2631 C2634 1.363 . S
N2632 C2634 1.356 . S
N2632 H2644 0.984 . S
N2632 H2645 0.985 . S
N2633 C2635 1.356 . S
N2633 H2638 0.984 . S
N2633 H2639 0.985 . S
C2634 C2628 1.379 . S
C2634 C2631 1.363 . S
C2634 N2632 1.356 . S
C2635 C2629 1.363 . S
C2635 C2630 1.379 . S
C2635 N2633 1.356 . S
N2636 C2628 1.356 . S
N2636 H2642 0.984 . S
N2636 H2643 0.984 . S
N2637 C2630 1.356 . S
N2637 H2640 0.984 . S
N2637 H2641 0.985 . S
H2638 N2633 0.984 . S
H2639 N2633 0.985 . S
H2640 N2637 0.984 . S
H2641 N2637 0.985 . S
H2642 N2636 0.984 . S
H2643 N2636 0.984 . S
H2644 N2632 0.984 . S
H2645 N2632 0.985 . S
C2646 C2647 1.363 . S
C2646 C2652 1.379 . S
C2646 N2654 1.356 . S
C2647 C2646 1.363 . S
C2647 C2653 1.363 . S
C2648 C2649 1.363 . S
C2648 C2653 1.379 . S
C2648 N2655 1.356 . S
C2649 C2648 1.363 . S
C2649 C2652 1.363 . S
N2650 C2652 1.356 . S
N2650 H2662 0.984 . S
N2650 H2663 0.985 . S
N2651 C2653 1.356 . S
N2651 H2656 0.984 . S
N2651 H2657 0.985 . S
C2652 C2646 1.379 . S
C2652 C2649 1.363 . S
C2652 N2650 1.356 . S
C2653 C2647 1.363 . S
C2653 C2648 1.379 . S
C2653 N2651 1.356 . S
N2654 C2646 1.356 . S
N2654 H2660 0.984 . S
N2654 H2661 0.984 . S
N2655 C2648 1.356 . S
N2655 H2658 0.984 . S
N2655 H2659 0.985 . S
H2656 N2651 0.984 . S
H2657 N2651 0.985 . S
H2658 N2655 0.984 . S
H2659 N2655 0.985 . S
H2660 N2654 0.984 . S
H2661 N2654 0.984 . S
H2662 N2650 0.984 . S
H2663 N2650 0.985 . S
C2664 C2665 1.363 . S
C2664 C2670 1.379 . S
C2664 N2672 1.356 . S
C2665 C2664 1.363 . S
C2665 C2671 1.363 . S
C2666 C2667 1.363 . S
C2666 C2671 1.379 . S
C2666 N2673 1.356 . S
C2667 C2666 1.363 . S
C2667 C2670 1.363 . S
N2668 C2670 1.356 . S
N2668 H2680 0.984 . S
N2668 H2681 0.985 . S
N2669 C2671 1.356 . S
N2669 H2674 0.984 . S
N2669 H2675 0.985 . S
C2670 C2664 1.379 . S
C2670 C2667 1.363 . S
C2670 N2668 1.356 . S
C2671 C2665 1.363 . S
C2671 C2666 1.379 . S
C2671 N2669 1.356 . S
N2672 C2664 1.356 . S
N2672 H2678 0.984 . S
N2672 H2679 0.984 . S
N2673 C2666 1.356 . S
N2673 H2676 0.984 . S
N2673 H2677 0.985 . S
H2674 N2669 0.984 . S
H2675 N2669 0.985 . S
H2676 N2673 0.984 . S
H2677 N2673 0.985 . S
H2678 N2672 0.984 . S
H2679 N2672 0.984 . S
H2680 N2668 0.984 . S
H2681 N2668 0.985 . S
C2682 C2683 1.363 . S
C2682 C2688 1.379 . S
C2682 N2690 1.356 . S
C2683 C2682 1.363 . S
C2683 C2689 1.363 . S
C2684 C2685 1.363 . S
C2684 C2689 1.379 . S
C2684 N2691 1.356 . S
C2685 C2684 1.363 . S
C2685 C2688 1.363 . S
N2686 C2688 1.356 . S
N2686 H2698 0.984 . S
N2686 H2699 0.985 . S
N2687 C2689 1.356 . S
N2687 H2692 0.984 . S
N2687 H2693 0.985 . S
C2688 C2682 1.379 . S
C2688 C2685 1.363 . S
C2688 N2686 1.356 . S
C2689 C2683 1.363 . S
C2689 C2684 1.379 . S
C2689 N2687 1.356 . S
N2690 C2682 1.356 . S
N2690 H2696 0.984 . S
N2690 H2697 0.984 . S
N2691 C2684 1.356 . S
N2691 H2694 0.984 . S
N2691 H2695 0.985 . S
H2692 N2687 0.984 . S
H2693 N2687 0.985 . S
H2694 N2691 0.984 . S
H2695 N2691 0.985 . S
H2696 N2690 0.984 . S
H2697 N2690 0.984 . S
H2698 N2686 0.984 . S
H2699 N2686 0.985 . S
C2700 C2701 1.363 . S
C2700 C2706 1.379 . S
C2700 N2708 1.356 . S
C2701 C2700 1.363 . S
C2701 C2707 1.363 . S
C2702 C2703 1.363 . S
C2702 C2707 1.379 . S
C2702 N2709 1.356 . S
C2703 C2702 1.363 . S
C2703 C2706 1.363 . S
N2704 C2706 1.356 . S
N2704 H2716 0.984 . S
N2704 H2717 0.985 . S
N2705 C2707 1.356 . S
N2705 H2710 0.984 . S
N2705 H2711 0.985 . S
C2706 C2700 1.379 . S
C2706 C2703 1.363 . S
C2706 N2704 1.356 . S
C2707 C2701 1.363 . S
C2707 C2702 1.379 . S
C2707 N2705 1.356 . S
N2708 C2700 1.356 . S
N2708 H2714 0.984 . S
N2708 H2715 0.984 . S
N2709 C2702 1.356 . S
N2709 H2712 0.984 . S
N2709 H2713 0.985 . S
H2710 N2705 0.984 . S
H2711 N2705 0.985 . S
H2712 N2709 0.984 . S
H2713 N2709 0.985 . S
H2714 N2708 0.984 . S
H2715 N2708 0.984 . S
H2716 N2704 0.984 . S
H2717 N2704 0.985 . S
C2718 C2719 1.363 . S
C2718 C2724 1.379 . S
C2718 N2726 1.356 . S
C2719 C2718 1.363 . S
C2719 C2725 1.363 . S
C2720 C2721 1.363 . S
C2720 C2725 1.379 . S
C2720 N2727 1.356 . S
C2721 C2720 1.363 . S
C2721 C2724 1.363 . S
N2722 C2724 1.356 . S
N2722 H2734 0.984 . S
N2722 H2735 0.985 . S
N2723 C2725 1.356 . S
N2723 H2728 0.984 . S
N2723 H2729 0.985 . S
C2724 C2718 1.379 . S
C2724 C2721 1.363 . S
C2724 N2722 1.356 . S
C2725 C2719 1.363 . S
C2725 C2720 1.379 . S
C2725 N2723 1.356 . S
N2726 C2718 1.356 . S
N2726 H2732 0.984 . S
N2726 H2733 0.984 . S
N2727 C2720 1.356 . S
N2727 H2730 0.984 . S
N2727 H2731 0.985 . S
H2728 N2723 0.984 . S
H2729 N2723 0.985 . S
H2730 N2727 0.984 . S
H2731 N2727 0.985 . S
H2732 N2726 0.984 . S
H2733 N2726 0.984 . S
H2734 N2722 0.984 . S
H2735 N2722 0.985 . S
C2736 C2737 1.363 . S
C2736 C2742 1.379 . S
C2736 N2744 1.356 . S
C2737 C2736 1.363 . S
C2737 C2743 1.363 . S
C2738 C2739 1.363 . S
C2738 C2743 1.379 . S
C2738 N2745 1.356 . S
C2739 C2738 1.363 . S
C2739 C2742 1.363 . S
N2740 C2742 1.356 . S
N2740 H2752 0.984 . S
N2740 H2753 0.985 . S
N2741 C2743 1.356 . S
N2741 H2746 0.984 . S
N2741 H2747 0.985 . S
C2742 C2736 1.379 . S
C2742 C2739 1.363 . S
C2742 N2740 1.356 . S
C2743 C2737 1.363 . S
C2743 C2738 1.379 . S
C2743 N2741 1.356 . S
N2744 C2736 1.356 . S
N2744 H2750 0.984 . S
N2744 H2751 0.984 . S
N2745 C2738 1.356 . S
N2745 H2748 0.984 . S
N2745 H2749 0.985 . S
H2746 N2741 0.984 . S
H2747 N2741 0.985 . S
H2748 N2745 0.984 . S
H2749 N2745 0.985 . S
H2750 N2744 0.984 . S
H2751 N2744 0.984 . S
H2752 N2740 0.984 . S
H2753 N2740 0.985 . S
C2754 C2755 1.363 . S
C2754 C2760 1.379 . S
C2754 N2762 1.356 . S
C2755 C2754 1.363 . S
C2755 C2761 1.363 . S
C2756 C2757 1.363 . S
C2756 C2761 1.379 . S
C2756 N2763 1.356 . S
C2757 C2756 1.363 . S
C2757 C2760 1.363 . S
N2758 C2760 1.356 . S
N2758 H2770 0.984 . S
N2758 H2771 0.985 . S
N2759 C2761 1.356 . S
N2759 H2764 0.984 . S
N2759 H2765 0.985 . S
C2760 C2754 1.379 . S
C2760 C2757 1.363 . S
C2760 N2758 1.356 . S
C2761 C2755 1.363 . S
C2761 C2756 1.379 . S
C2761 N2759 1.356 . S
N2762 C2754 1.356 . S
N2762 H2768 0.984 . S
N2762 H2769 0.984 . S
N2763 C2756 1.356 . S
N2763 H2766 0.984 . S
N2763 H2767 0.985 . S
H2764 N2759 0.984 . S
H2765 N2759 0.985 . S
H2766 N2763 0.984 . S
H2767 N2763 0.985 . S
H2768 N2762 0.984 . S
H2769 N2762 0.984 . S
H2770 N2758 0.984 . S
H2771 N2758 0.985 . S
C2772 C2773 1.363 . S
C2772 C2778 1.379 . S
C2772 N2780 1.356 . S
C2773 C2772 1.363 . S
C2773 C2779 1.363 . S
C2774 C2775 1.363 . S
C2774 C2779 1.379 . S
C2774 N2781 1.356 . S
C2775 C2774 1.363 . S
C2775 C2778 1.363 . S
N2776 C2778 1.356 . S
N2776 H2788 0.984 . S
N2776 H2789 0.985 . S
N2777 C2779 1.356 . S
N2777 H2782 0.984 . S
N2777 H2783 0.985 . S
C2778 C2772 1.379 . S
C2778 C2775 1.363 . S
C2778 N2776 1.356 . S
C2779 C2773 1.363 . S
C2779 C2774 1.379 . S
C2779 N2777 1.356 . S
N2780 C2772 1.356 . S
N2780 H2786 0.984 . S
N2780 H2787 0.984 . S
N2781 C2774 1.356 . S
N2781 H2784 0.984 . S
N2781 H2785 0.985 . S
H2782 N2777 0.984 . S
H2783 N2777 0.985 . S
H2784 N2781 0.984 . S
H2785 N2781 0.985 . S
H2786 N2780 0.984 . S
H2787 N2780 0.984 . S
H2788 N2776 0.984 . S
H2789 N2776 0.985 . S
C2790 C2791 1.363 . S
C2790 C2796 1.379 . S
C2790 N2798 1.356 . S
C2791 C2790 1.363 . S
C2791 C2797 1.363 . S
C2792 C2793 1.363 . S
C2792 C2797 1.379 . S
C2792 N2799 1.356 . S
C2793 C2792 1.363 . S
C2793 C2796 1.363 . S
N2794 C2796 1.356 . S
N2794 H2806 0.984 . S
N2794 H2807 0.985 1_556 S
N2795 C2797 1.356 . S
N2795 H2800 0.984 . S
N2795 H2801 0.985 . S
C2796 C2790 1.379 . S
C2796 C2793 1.363 . S
C2796 N2794 1.356 . S
C2797 C2791 1.363 . S
C2797 C2792 1.379 . S
C2797 N2795 1.356 . S
N2798 C2790 1.356 . S
N2798 H2804 0.984 . S
N2798 H2805 0.984 . S
N2799 C2792 1.356 . S
N2799 H2802 0.984 1_556 S
N2799 H2803 0.985 . S
H2800 N2795 0.984 . S
H2801 N2795 0.985 . S
H2802 N2799 0.984 1_554 S
H2803 N2799 0.985 . S
H2804 N2798 0.984 . S
H2805 N2798 0.984 . S
H2806 N2794 0.984 . S
H2807 N2794 0.985 1_554 S
C2808 C2809 1.363 . S
C2808 C2814 1.379 . S
C2808 N2816 1.356 . S
C2809 C2808 1.363 . S
C2809 C2815 1.363 . S
C2810 C2811 1.363 . S
C2810 C2815 1.379 . S
C2810 N2817 1.356 . S
C2811 C2810 1.363 . S
C2811 C2814 1.363 . S
N2812 C2814 1.356 . S
N2812 H2824 0.984 . S
N2812 H2825 0.985 1_556 S
N2813 C2815 1.356 . S
N2813 H2818 0.984 . S
N2813 H2819 0.985 . S
C2814 C2808 1.379 . S
C2814 C2811 1.363 . S
C2814 N2812 1.356 . S
C2815 C2809 1.363 . S
C2815 C2810 1.379 . S
C2815 N2813 1.356 . S
N2816 C2808 1.356 . S
N2816 H2822 0.984 . S
N2816 H2823 0.984 . S
N2817 C2810 1.356 . S
N2817 H2820 0.984 1_556 S
N2817 H2821 0.985 . S
H2818 N2813 0.984 . S
H2819 N2813 0.985 . S
H2820 N2817 0.984 1_554 S
H2821 N2817 0.985 . S
H2822 N2816 0.984 . S
H2823 N2816 0.984 . S
H2824 N2812 0.984 . S
H2825 N2812 0.985 1_554 S
C2826 C2827 1.363 . S
C2826 C2832 1.379 . S
C2826 N2834 1.356 . S
C2827 C2826 1.363 . S
C2827 C2833 1.363 . S
C2828 C2829 1.363 . S
C2828 C2833 1.379 . S
C2828 N2835 1.356 . S
C2829 C2828 1.363 . S
C2829 C2832 1.363 . S
N2830 C2832 1.356 . S
N2830 H2842 0.984 . S
N2830 H2843 0.985 1_556 S
N2831 C2833 1.356 . S
N2831 H2836 0.984 . S
N2831 H2837 0.985 . S
C2832 C2826 1.379 . S
C2832 C2829 1.363 . S
C2832 N2830 1.356 . S
C2833 C2827 1.363 . S
C2833 C2828 1.379 . S
C2833 N2831 1.356 . S
N2834 C2826 1.356 . S
N2834 H2840 0.984 . S
N2834 H2841 0.984 . S
N2835 C2828 1.356 . S
N2835 H2838 0.984 1_556 S
N2835 H2839 0.985 . S
H2836 N2831 0.984 . S
H2837 N2831 0.985 . S
H2838 N2835 0.984 1_554 S
H2839 N2835 0.985 . S
H2840 N2834 0.984 . S
H2841 N2834 0.984 . S
H2842 N2830 0.984 . S
H2843 N2830 0.985 1_554 S
C1225 C546 1.645 . S
C1227 C2 1.645 . S
C1243 C580 1.645 . S
C1245 C36 1.645 . S
C1261 C512 1.645 . S
C1263 C70 1.645 . S
C1279 C104 1.645 . S
C1281 C886 1.645 . S
C1297 C818 1.645 . S
C1299 C138 1.645 . S
C1315 C852 1.645 . S
C1317 C172 1.645 . S
C1333 C206 1.645 . S
C1335 C1158 1.645 . S
C1351 C1192 1.645 . S
C1353 C240 1.645 . S
C1369 C274 1.645 . S
C1371 C1124 1.645 . S
C1387 C682 1.645 . S
C1389 C308 1.645 . S
C1405 C342 1.645 . S
C1407 C614 1.645 . S
C1423 C648 1.645 . S
C1425 C376 1.645 . S
C1441 C410 1.645 . S
C1443 C954 1.645 . S
C1459 C988 1.645 . S
C1461 C444 1.645 . S
C1477 C920 1.645 . S
C1479 C478 1.645 . S
C1495 C1090 1.645 . S
C1497 C716 1.645 . S
C1513 C750 1.645 . S
C1515 C1022 1.645 . S
C1531 C1056 1.645 . S
C1533 C784 1.645 . S
C1549 C111 1.312 . S
C1551 C9 1.312 . S
C1567 C145 1.320 . S
C1569 C43 1.312 . S
C1585 C77 1.311 1_455 S
C1587 C179 1.312 . S
C1603 C315 1.312 . S
C1605 C213 1.312 . S
C1621 C247 1.312 . S
C1623 C349 1.311 . S
C1639 C383 1.313 1_455 S
C1641 C281 1.325 . S
C1657 C417 1.312 . S
C1659 C519 1.312 . S
C1675 C451 1.312 . S
C1677 C553 1.312 . S
C1693 C587 1.312 . S
C1695 C485 1.312 . S
C1711 C723 1.312 . S
C1713 C621 1.312 . S
C1729 C757 1.312 . S
C1731 C655 1.312 . S
C1747 C791 1.312 . S
C1749 C689 1.312 . S
C1765 C825 1.312 . S
C1767 C927 1.312 1_556 S
C1783 C961 1.312 1_556 S
C1785 C859 1.312 . S
C1801 C893 1.313 . S
C1803 C995 1.312 1_556 S
C1819 C1029 1.312 . S
C1821 C1131 1.312 . S
C1837 C1063 1.312 . S
C1839 C1165 1.312 . S
C1855 C1199 1.312 . S
C1857 C1097 1.312 . S
C1873 C33 1.534 . S
C1875 C258 1.547 . S
C1891 C292 1.548 . S
C1893 C67 1.534 . S
C1909 C224 1.548 . S
C1911 C101 1.534 . S
C1927 C135 1.534 . S
C1929 C394 1.547 . S
C1945 C326 1.548 . S
C1947 C169 1.534 . S
C1963 C360 1.548 . S
C1965 C203 1.534 . S
C1981 C237 1.534 . S
C1983 C54 1.547 . S
C1999 C88 1.548 . S
C2001 C271 1.534 . S
C2017 C20 1.548 . S
C2019 C305 1.534 . S
C2035 C190 1.547 . S
C2037 C339 1.534 . S
C2053 C122 1.548 . S
C2055 C373 1.534 . S
C2071 C407 1.534 . S
C2073 C156 1.548 . S
C2089 C441 1.534 . S
C2091 C666 1.547 . S
C2107 C475 1.534 . S
C2109 C700 1.548 . S
C2125 C509 1.534 . S
C2127 C632 1.548 . S
C2143 C802 1.548 . S
C2145 C543 1.534 . S
C2161 C577 1.534 . S
C2163 C734 1.548 . S
C2179 C611 1.534 . S
C2181 C768 1.548 . S
C2197 C645 1.534 . S
C2199 C462 1.548 . S
C2215 C496 1.548 . S
C2217 C679 1.534 . S
C2233 C713 1.534 . S
C2235 C428 1.548 . S
C2251 C747 1.534 . S
C2253 C598 1.548 . S
C2269 C781 1.534 . S
C2271 C530 1.548 . S
C2287 C815 1.534 . S
C2289 C564 1.548 . S
C2305 C849 1.534 . S
C2307 C1074 1.548 . S
C2323 C1108 1.548 . S
C2325 C883 1.534 . S
C2341 C917 1.534 . S
C2343 C1040 1.547 . S
C2359 C951 1.534 . S
C2361 C1210 1.548 . S
C2377 C985 1.534 . S
C2379 C1142 1.547 . S
C2395 C1019 1.534 . S
C2397 C1176 1.548 . S
C2413 C870 1.548 . S
C2415 C1053 1.534 . S
C2431 C904 1.548 . S
C2433 C1087 1.534 . S
C2449 C836 1.548 . S
C2451 C1121 1.534 . S
C2467 C1006 1.548 . S
C2469 C1155 1.535 . S
C2485 C1189 1.534 . S
C2487 C938 1.548 . S
C2503 C1223 1.534 . S
C2505 C972 1.548 . S
C2521 C107 1.269 . S
C2523 C5 1.269 . S
C2539 C39 1.268 . S
C2541 C141 1.275 . S
C2557 C175 1.269 . S
C2559 C73 1.267 . S
C2575 C311 1.269 . S
C2577 C209 1.269 . S
C2593 C345 1.267 . S
C2595 C243 1.267 . S
C2611 C277 1.269 . S
C2613 C379 1.271 . S
C2629 C515 1.269 . S
C2631 C413 1.269 . S
C2647 C447 1.269 . S
C2649 C549 1.269 . S
C2665 C583 1.269 . S
C2667 C481 1.269 . S
C2683 C719 1.269 . S
C2685 C617 1.269 . S
C2701 C753 1.269 . S
C2703 C651 1.269 . S
C2719 C685 1.269 . S
C2721 C787 1.269 . S
C2737 C923 1.269 . S
C2739 C821 1.269 . S
C2755 C855 1.269 . S
C2757 C957 1.269 . S
C2773 C991 1.269 . S
C2775 C889 1.269 . S
C2791 C1025 1.269 . S
C2793 C1127 1.269 1_556 S
C2809 C1059 1.269 . S
C2811 C1161 1.269 1_556 S
C2827 C1093 1.269 . S
C2829 C1195 1.269 1_556 S
