# Generated by pormake.
# Topology neb, (4)-cn, num edge types: 1
# Building blocks:
#     Node 0, Type 0, BuildingBlock: TATPOV_clean_sbu_0, # of connection points: 4
#     Node 1, Type 0, BuildingBlock: TATPOV_clean_sbu_0, # of connection points: 4
#     Node 2, Type 0, BuildingBlock: TATPOV_clean_sbu_0, # of connection points: 4
#     Node 3, Type 0, BuildingBlock: TATPOV_clean_sbu_0, # of connection points: 4
#     Node 4, Type 0, BuildingBlock: TATPOV_clean_sbu_0, # of connection points: 4
#     Node 5, Type 0, BuildingBlock: TATPOV_clean_sbu_0, # of connection points: 4
#     Node 6, Type 0, BuildingBlock: TATPOV_clean_sbu_0, # of connection points: 4
#     Node 7, Type 0, BuildingBlock: TATPOV_clean_sbu_0, # of connection points: 4
#     Node 8, Type 0, BuildingBlock: TATPOV_clean_sbu_0, # of connection points: 4
#     Node 9, Type 0, BuildingBlock: TATPOV_clean_sbu_0, # of connection points: 4
#     Node 10, Type 0, BuildingBlock: TATPOV_clean_sbu_0, # of connection points: 4
#     Node 11, Type 0, BuildingBlock: TATPOV_clean_sbu_0, # of connection points: 4
#     Node 12, Type 0, BuildingBlock: TATPOV_clean_sbu_0, # of connection points: 4
#     Node 13, Type 0, BuildingBlock: TATPOV_clean_sbu_0, # of connection points: 4
#     Node 14, Type 0, BuildingBlock: TATPOV_clean_sbu_0, # of connection points: 4
#     Node 15, Type 0, BuildingBlock: TATPOV_clean_sbu_0, # of connection points: 4
#     Edge 16, Type (0, 0), BuildingBlock: AJUNOK_clean_linker_0, # of connection points: 2
#     Edge 17, Type (0, 0), BuildingBlock: AJUNOK_clean_linker_0, # of connection points: 2
#     Edge 18, Type (0, 0), BuildingBlock: AJUNOK_clean_linker_0, # of connection points: 2
#     Edge 19, Type (0, 0), BuildingBlock: AJUNOK_clean_linker_0, # of connection points: 2
#     Edge 20, Type (0, 0), BuildingBlock: AJUNOK_clean_linker_0, # of connection points: 2
#     Edge 21, Type (0, 0), BuildingBlock: AJUNOK_clean_linker_0, # of connection points: 2
#     Edge 22, Type (0, 0), BuildingBlock: AJUNOK_clean_linker_0, # of connection points: 2
#     Edge 23, Type (0, 0), BuildingBlock: AJUNOK_clean_linker_0, # of connection points: 2
#     Edge 24, Type (0, 0), BuildingBlock: AJUNOK_clean_linker_0, # of connection points: 2
#     Edge 25, Type (0, 0), BuildingBlock: AJUNOK_clean_linker_0, # of connection points: 2
#     Edge 26, Type (0, 0), BuildingBlock: AJUNOK_clean_linker_0, # of connection points: 2
#     Edge 27, Type (0, 0), BuildingBlock: AJUNOK_clean_linker_0, # of connection points: 2
#     Edge 28, Type (0, 0), BuildingBlock: AJUNOK_clean_linker_0, # of connection points: 2
#     Edge 29, Type (0, 0), BuildingBlock: AJUNOK_clean_linker_0, # of connection points: 2
#     Edge 30, Type (0, 0), BuildingBlock: AJUNOK_clean_linker_0, # of connection points: 2
#     Edge 31, Type (0, 0), BuildingBlock: AJUNOK_clean_linker_0, # of connection points: 2
#     Edge 32, Type (0, 0), BuildingBlock: AJUNOK_clean_linker_0, # of connection points: 2
#     Edge 33, Type (0, 0), BuildingBlock: AJUNOK_clean_linker_0, # of connection points: 2
#     Edge 34, Type (0, 0), BuildingBlock: AJUNOK_clean_linker_0, # of connection points: 2
#     Edge 35, Type (0, 0), BuildingBlock: AJUNOK_clean_linker_0, # of connection points: 2
#     Edge 36, Type (0, 0), BuildingBlock: AJUNOK_clean_linker_0, # of connection points: 2
#     Edge 37, Type (0, 0), BuildingBlock: AJUNOK_clean_linker_0, # of connection points: 2
#     Edge 38, Type (0, 0), BuildingBlock: AJUNOK_clean_linker_0, # of connection points: 2
#     Edge 39, Type (0, 0), BuildingBlock: AJUNOK_clean_linker_0, # of connection points: 2
#     Edge 40, Type (0, 0), BuildingBlock: AJUNOK_clean_linker_0, # of connection points: 2
#     Edge 41, Type (0, 0), BuildingBlock: AJUNOK_clean_linker_0, # of connection points: 2
#     Edge 42, Type (0, 0), BuildingBlock: AJUNOK_clean_linker_0, # of connection points: 2
#     Edge 43, Type (0, 0), BuildingBlock: AJUNOK_clean_linker_0, # of connection points: 2
#     Edge 44, Type (0, 0), BuildingBlock: AJUNOK_clean_linker_0, # of connection points: 2
#     Edge 45, Type (0, 0), BuildingBlock: AJUNOK_clean_linker_0, # of connection points: 2
#     Edge 46, Type (0, 0), BuildingBlock: AJUNOK_clean_linker_0, # of connection points: 2
#     Edge 47, Type (0, 0), BuildingBlock: AJUNOK_clean_linker_0, # of connection points: 2
# Relax obj value: 0.058
# Max RMSD: 0.116
# Mean RMSD: 0.116
data_MOF--net-neb--node1-TATPOV_clean_sbu_0--edge1-AJUNOK_clean_linker_0
_symmetry_space_group_name_H-M    P1
_symmetry_Int_Tables_number       1
_symmetry_cell_setting            triclinic
loop_
_symmetry_equiv_pos_as_xyz
'x, y, z'
_cell_length_a     33.184406
_cell_length_b     16.625546
_cell_length_c     51.330359
_cell_angle_alpha  89.935059
_cell_angle_beta   95.115983
_cell_angle_gamma 90.244895
loop_
_atom_site_label
_atom_site_type_symbol
_atom_site_fract_x
_atom_site_fract_y
_atom_site_fract_z
_atom_type_partial_charge
Zn0 Zn 0.23211 0.02996 0.42961 0.0
Zn1 Zn 0.16589 0.01441 0.45667 0.0
O2 O 0.20544 0.08437 0.48013 0.0
O3 O 0.25992 0.0965 0.45892 0.0
O4 O 0.11922 -0.01056 0.47844 0.0
O5 O 0.23919 0.91018 0.42666 0.0
O6 O 0.1826 0.90212 0.44569 0.0
C7 C 0.2408 0.11325 0.47849 0.0
C8 C 0.15725 0.10015 0.40463 0.0
O9 O 0.14157 0.07777 0.42521 0.0
O10 O 0.1942 0.08567 0.40206 0.0
C11 C 0.09031 0.0375 0.48156 0.0
O12 O 0.09071 0.10904 0.4707 0.0
C13 C 0.21075 0.86819 0.4345 0.0
Zn14 Zn 0.06909 0.03113 0.84657 0.0
Zn15 Zn 0.13291 0.0237 0.81738 0.0
O16 O 0.08973 0.0892 0.79551 0.0
O17 O 0.03721 0.09596 0.81863 0.0
O18 O 0.17777 0.01277 0.79324 0.0
O19 O 0.06581 0.91059 0.84883 0.0
O20 O 0.12079 0.90773 0.82797 0.0
C21 C 0.05413 0.11439 0.79829 0.0
C22 C 0.1433 0.10642 0.87009 0.0
O23 O 0.15776 0.08713 0.8488 0.0
O24 O 0.10697 0.08895 0.87362 0.0
C25 C 0.21335 -0.0087 0.8016 0.0
O26 O 0.22103 0.97553 0.82663 0.0
C27 C 0.09427 0.8712 0.84015 0.0
Zn28 Zn 0.81696 0.92579 0.59483 0.0
Zn29 Zn 0.88202 0.94231 0.56665 0.0
O30 O 0.84216 0.87126 0.54381 0.0
O31 O 0.78864 0.85826 0.56591 0.0
O32 O 0.92736 0.97031 0.54413 0.0
O33 O 0.80912 0.04548 0.59777 0.0
O34 O 0.86485 0.05384 0.57786 0.0
C35 C 0.80709 0.84167 0.54604 0.0
C36 C 0.89324 0.85723 0.61864 0.0
O37 O 0.908 0.87954 0.59773 0.0
O38 O 0.85642 0.87128 0.6218 0.0
C39 C 0.9581 0.92701 0.54115 0.0
O40 O 0.96098 0.8562 0.55254 0.0
C41 C 0.83703 0.08768 0.58937 0.0
Zn42 Zn 0.98271 0.9242 0.17456 0.0
Zn43 Zn 0.91913 0.93654 0.20356 0.0
O44 O 0.96091 0.86839 0.22623 0.0
O45 O 1.01293 0.85825 0.20273 0.0
O46 O 0.87381 0.95953 0.22688 0.0
O47 O 0.98972 0.0436 0.1715 0.0
O48 O 0.93445 0.05008 0.19191 0.0
C49 C 0.99612 0.84112 0.22322 0.0
C50 C 0.90774 0.85182 0.15116 0.0
O51 O 0.89342 0.8721 0.17241 0.0
O52 O 0.94417 0.8682 0.14757 0.0
C53 C 0.84163 0.91765 0.22715 0.0
O54 O 0.83732 0.8537 0.21215 0.0
C55 C 0.96169 0.08485 0.17988 0.0
Zn56 Zn 0.23271 0.53064 0.92372 0.0
Zn57 Zn 0.16822 0.52022 0.95228 0.0
O58 O 0.20987 0.58821 0.97503 0.0
O59 O 0.2628 0.59615 0.95221 0.0
O60 O 0.12283 0.4968 0.97538 0.0
O61 O 0.23846 0.41082 0.92087 0.0
O62 O 0.18281 0.40685 0.94098 0.0
C63 C 0.24548 0.61444 0.97237 0.0
C64 C 0.15838 0.60491 0.89993 0.0
O65 O 0.1434 0.58452 0.92099 0.0
O66 O 0.19478 0.58768 0.89664 0.0
C67 C 0.09259 0.54197 0.97794 0.0
O68 O 0.09005 0.61078 0.96532 0.0
C69 C 0.20983 0.37085 0.92932 0.0
Zn70 Zn 0.07639 0.52912 0.3487 0.0
Zn71 Zn 0.14314 0.51408 0.32237 0.0
O72 O 0.1043 0.58203 0.29781 0.0
O73 O 0.04972 0.59451 0.31884 0.0
O74 O 0.19102 0.4884 0.30188 0.0
O75 O 0.0688 0.40947 0.35191 0.0
O76 O 0.12582 0.40186 0.33345 0.0
C77 C 0.06889 0.61041 0.29918 0.0
C78 C 0.15035 0.60085 0.37432 0.0
O79 O 0.1665 0.57919 0.35385 0.0
O80 O 0.11336 0.58557 0.37661 0.0
C81 C 0.20919 0.53907 0.28845 0.0
O82 O 0.19661 0.6139 0.28747 0.0
C83 C 0.0974 0.36767 0.34449 0.0
Zn84 Zn 0.82485 0.4232 0.09578 0.0
Zn85 Zn 0.89065 0.44083 0.06855 0.0
O86 O 0.85132 0.37088 0.04493 0.0
O87 O 0.79709 0.35754 0.06629 0.0
O88 O 0.93583 0.47059 0.04605 0.0
O89 O 0.81678 0.54238 0.09962 0.0
O90 O 0.87312 0.55171 0.08038 0.0
C91 C 0.81605 0.34163 0.04658 0.0
C92 C 0.90034 0.35284 0.12009 0.0
O93 O 0.91598 0.37618 0.09957 0.0
O94 O 0.86339 0.36696 0.12277 0.0
C95 C 0.96698 0.42893 0.04267 0.0
O96 O 0.97127 0.35847 0.05418 0.0
C97 C 0.84502 0.58493 0.09181 0.0
Zn98 Zn 0.97423 0.42637 0.67271 0.0
Zn99 Zn 0.90832 0.44315 0.69976 0.0
O100 O 0.94692 0.37412 0.72373 0.0
O101 O 1.00112 0.36035 0.70245 0.0
O102 O 0.86211 0.46861 0.72145 0.0
O103 O 0.98209 0.54617 0.66954 0.0
O104 O 0.92589 0.55513 0.68885 0.0
C105 C 0.98204 0.34484 0.72218 0.0
C106 C 0.89898 0.35654 0.64791 0.0
O107 O 0.88348 0.37908 0.66851 0.0
O108 O 0.936 0.37053 0.64526 0.0
C109 C 0.83828 0.41575 0.72941 0.0
O110 O 0.84369 0.34004 0.72337 0.0
C111 C 0.95414 0.58867 0.67748 0.0
Zn112 Zn 0.73147 0.01863 0.92372 0.0
Zn113 Zn 0.6688 0.00406 0.95361 0.0
O114 O 0.7097 0.07494 0.97586 0.0
O115 O 0.76087 0.0876 0.95168 0.0
O116 O 0.62354 -0.0197 0.97653 0.0
O117 O 0.7394 0.89903 0.9216 0.0
O118 O 0.68507 0.89097 0.94296 0.0
C119 C 0.7444 0.10429 0.97231 0.0
C120 C 0.65525 0.08645 0.90094 0.0
O121 O 0.64195 0.06607 0.92253 0.0
O122 O 0.69158 0.07159 0.89681 0.0
C123 C 0.59801 0.03264 0.98236 0.0
O124 O 0.60155 0.10653 0.97375 0.0
C125 C 0.71233 0.85689 0.93097 0.0
Zn126 Zn 0.56901 0.02386 0.34102 0.0
Zn127 Zn 0.63556 0.0119 0.31465 0.0
O128 O 0.59594 0.08244 0.29142 0.0
O129 O 0.54103 0.09132 0.31225 0.0
O130 O 0.68146 -0.01349 0.29216 0.0
O131 O 0.56134 0.90433 0.34372 0.0
O132 O 0.61877 0.89906 0.32569 0.0
C133 C 0.56042 0.11006 0.29296 0.0
C134 C 0.64327 0.09532 0.36693 0.0
O135 O 0.65968 0.0749 0.34642 0.0
O136 O 0.6063 0.07908 0.369 0.0
C137 C 0.71483 0.02425 0.29167 0.0
O138 O 0.72137 0.08831 0.30643 0.0
C139 C 0.59045 0.86366 0.33649 0.0
Zn140 Zn 0.32366 0.93638 0.09564 0.0
Zn141 Zn 0.38986 0.95345 0.06874 0.0
O142 O 0.35171 0.88182 0.04501 0.0
O143 O 0.29737 0.86809 0.06626 0.0
O144 O 0.43677 -0.01936 0.04759 0.0
O145 O 0.31509 0.0559 0.09805 0.0
O146 O 0.37151 0.06527 0.07897 0.0
C147 C 0.31664 0.85174 0.04672 0.0
C148 C 0.39875 0.86956 0.12113 0.0
O149 O 0.41435 0.89151 0.10046 0.0
O150 O 0.36168 0.88289 0.12359 0.0
C151 C 0.4633 0.93132 0.04114 0.0
O152 O 0.46039 0.85542 0.04791 0.0
C153 C 0.34301 0.09869 0.08997 0.0
Zn154 Zn 0.48152 0.93354 0.68133 0.0
Zn155 Zn 0.41726 0.93631 0.70983 0.0
O156 O 0.46035 0.86855 0.73097 0.0
O157 O 0.51344 0.86558 0.70832 0.0
O158 O 0.37291 0.94449 0.73441 0.0
O159 O 0.48489 0.05414 0.68052 0.0
O160 O 0.42901 0.05348 0.70045 0.0
C161 C 0.49605 0.84405 0.72816 0.0
C162 C 0.40793 0.85888 0.65642 0.0
O163 O 0.39286 0.87559 0.67773 0.0
O164 O 0.44424 0.87816 0.65339 0.0
C165 C 0.33658 0.96411 0.7273 0.0
O166 O 0.32642 -0.0207 0.70246 0.0
C167 C 0.45583 0.09192 0.68912 0.0
Zn168 Zn 0.72309 0.52321 0.42258 0.0
Zn169 Zn 0.65787 0.51159 0.44989 0.0
O170 O 0.69797 0.57915 0.47439 0.0
O171 O 0.75097 0.58895 0.45165 0.0
O172 O 0.60842 0.487 0.46943 0.0
O173 O 0.73056 0.40423 0.41989 0.0
O174 O 0.67406 0.39809 0.43899 0.0
C175 C 0.73356 0.60602 0.47188 0.0
C176 C 0.65076 0.59695 0.39726 0.0
O177 O 0.63532 0.57705 0.41819 0.0
O178 O 0.68718 0.57913 0.39432 0.0
C179 C 0.5962 0.52322 0.48906 0.0
O180 O 0.61701 0.58504 0.49901 0.0
C181 C 0.70196 0.36306 0.42779 0.0
Zn182 Zn 0.57364 0.51801 0.85025 0.0
Zn183 Zn 0.63881 0.5004 0.8224 0.0
O184 O 0.60071 0.57216 0.7991 0.0
O185 O 0.54707 0.58631 0.82092 0.0
O186 O 0.6839 0.47155 0.80023 0.0
O187 O 0.5645 0.39836 0.85305 0.0
O188 O 0.62009 0.38927 0.83307 0.0
C189 C 0.56594 0.60251 0.80115 0.0
C190 C 0.65017 0.58509 0.87443 0.0
O191 O 0.66501 0.56275 0.85357 0.0
O192 O 0.6132 0.57175 0.87743 0.0
C193 C 0.70919 0.52074 0.7919 0.0
O194 O 0.70653 0.59734 0.79776 0.0
C195 C 0.59186 0.35575 0.84441 0.0
Zn196 Zn 0.32262 0.43312 0.60224 0.0
Zn197 Zn 0.38922 0.44109 0.57562 0.0
O198 O 0.34888 0.37377 0.55131 0.0
O199 O 0.29479 0.36728 0.57312 0.0
O200 O 0.43912 0.4616 0.556 0.0
O201 O 0.31699 0.55287 0.60423 0.0
O202 O 0.37396 0.55576 0.58556 0.0
C203 C 0.3129 0.34843 0.55334 0.0
C204 C 0.39391 0.35819 0.6287 0.0
O205 O 0.41027 0.37713 0.60799 0.0
O206 O 0.35737 0.37664 0.63101 0.0
C207 C 0.44962 0.42254 0.53641 0.0
O208 O 0.42707 0.36184 0.52741 0.0
C209 C 0.34615 0.59245 0.59634 0.0
Zn210 Zn 0.47845 0.43957 0.1718 0.0
Zn211 Zn 0.41489 0.45163 0.20065 0.0
O212 O 0.45475 0.38077 0.22374 0.0
O213 O 0.50646 0.37009 0.19995 0.0
O214 O 0.36812 0.47849 0.22194 0.0
O215 O 0.48759 0.5588 0.16989 0.0
O216 O 0.43213 0.56455 0.19008 0.0
C217 C 0.48958 0.35221 0.22035 0.0
C218 C 0.40335 0.36972 0.14784 0.0
O219 O 0.38935 0.38879 0.16929 0.0
O220 O 0.43967 0.38693 0.14413 0.0
C221 C 0.34711 0.42999 0.23435 0.0
O222 O 0.35626 0.35316 0.23475 0.0
C223 C 0.4599 0.59987 0.17877 0.0
C224 C 0.31581 0.25663 0.5148 0.0
C225 C 0.29325 0.29122 0.53382 0.0
C226 C 0.29883 0.19822 0.49739 0.0
C227 C 0.25857 0.17171 0.49825 0.0
H228 H 0.34706 0.27392 0.51348 0.0
H229 H 0.31758 0.1737 0.48312 0.0
S230 S 0.18582 0.24548 0.54367 0.0
N231 N 0.22787 0.29612 0.55195 0.0
N232 N 0.1962 0.18642 0.51937 0.0
C233 C 0.23552 0.20621 0.51705 0.0
C234 C 0.25276 0.26593 0.53473 0.0
C235 C 1.02403 0.90697 0.52161 0.0
C236 C 0.99103 0.95699 0.52566 0.0
C237 C 0.05583 0.93364 0.50746 0.0
C238 C 0.05618 0.01166 0.49672 0.0
H239 H 1.02546 0.8464 0.52942 0.0
H240 H 0.08034 0.89235 0.50494 0.0
S241 S 0.97721 0.16728 0.50191 0.0
N242 N 0.96088 0.0891 0.51784 0.0
N243 N 1.02049 0.13904 0.49132 0.0
C244 C 1.0234 0.06253 0.50064 0.0
C245 C 0.99093 0.0353 0.51506 0.0
C246 C 0.26526 -0.01362 0.73831 0.0
C247 C 0.30598 0.97037 0.74678 0.0
C248 C 0.23572 -0.00696 0.75613 0.0
C249 C 0.24551 -0.01606 0.78324 0.0
H250 H 0.25592 -0.00623 0.71769 0.0
H251 H 0.20487 0.00522 0.74847 0.0
S252 S 0.34796 0.94312 0.8158 0.0
N253 N 0.35463 0.94664 0.78434 0.0
N254 N 0.29927 0.95911 0.81771 0.0
C255 C 0.28616 0.96813 0.79203 0.0
C256 C 0.31629 0.96136 0.77387 0.0
C257 C 0.05562 0.20001 0.75827 0.0
C258 C 0.03413 0.17085 0.77878 0.0
C259 C 0.03879 0.25713 0.74049 0.0
C260 C 0.99965 0.28774 0.74235 0.0
H261 H 0.08601 0.17926 0.756 0.0
H262 H 0.05676 0.27718 0.72509 0.0
S263 S 0.93002 0.23 0.7921 0.0
N264 N 0.97109 0.17623 0.79967 0.0
N265 N 0.93947 0.2835 0.76623 0.0
C266 C 0.97763 0.25894 0.76269 0.0
C267 C 0.9948 0.20054 0.78084 0.0
C268 C 0.7488 0.75601 0.52785 0.0
C269 C 0.78895 0.78274 0.52656 0.0
C270 C 0.73147 0.69745 0.51061 0.0
C271 C 0.75357 0.66296 0.49134 0.0
H272 H 0.73039 0.78057 0.54231 0.0
H273 H 0.7003 0.68008 0.51221 0.0
S274 S 0.86064 0.70876 0.48048 0.0
N275 N 0.85077 0.76798 0.50485 0.0
N276 N 0.81849 0.65801 0.47261 0.0
C277 C 0.79399 0.6883 0.49005 0.0
C278 C 0.81156 0.74815 0.50755 0.0
C279 C 0.783 0.03854 0.2743 0.0
C280 C 0.74647 -0.00459 0.275 0.0
C281 C 0.81349 0.01274 0.25897 0.0
C282 C 0.80893 0.94254 0.24361 0.0
H283 H 0.78824 0.09299 0.28569 0.0
H284 H 0.84085 0.04856 0.25916 0.0
S285 S 0.71924 0.80683 0.23861 0.0
N286 N 0.70769 0.87814 0.25897 0.0
N287 N 0.76478 0.82982 0.23028 0.0
C288 C 0.77259 0.89855 0.24418 0.0
C289 C 0.74149 0.92488 0.25979 0.0
C290 C 0.99511 0.75616 0.2635 0.0
C291 C 1.01611 0.7842 0.24264 0.0
C292 C 1.01212 0.69898 0.28124 0.0
C293 C 0.05096 0.66719 0.27897 0.0
H294 H 0.96501 0.77792 0.26612 0.0
H295 H 0.99456 0.67995 0.29696 0.0
S296 S 0.11913 0.7211 0.22799 0.0
N297 N 0.07832 0.77604 0.22087 0.0
N298 N 0.11014 0.66867 0.25417 0.0
C299 C 0.07241 0.69467 0.25822 0.0
C300 C 0.05509 0.75312 0.24012 0.0
C301 C 0.25975 0.76292 0.02867 0.0
C302 C 0.29926 0.7927 0.02704 0.0
C303 C 0.24309 0.70406 1.01137 0.0
C304 C 0.26518 0.67226 0.99163 0.0
H305 H 0.24132 0.78512 0.04348 0.0
H306 H 0.21239 0.68419 0.01335 0.0
S307 S 0.37055 0.72766 0.97941 0.0
N308 N 0.36045 0.78443 1.00433 0.0
N309 N 0.32926 0.67388 0.97185 0.0
C310 C 0.30492 0.70093 0.98988 0.0
C311 C 0.32188 0.76111 1.00751 0.0
C312 C 0.0625 0.4395 1.00666 0.0
C313 C 0.0602 0.51561 0.99451 0.0
C314 C 0.03233 0.41226 0.02209 0.0
C315 C 0.99842 0.45981 0.0261 0.0
H316 H 0.08779 0.40008 1.00421 0.0
H317 H 0.03573 0.35316 0.03089 0.0
S318 S 0.97792 0.66458 0.99902 0.0
N319 N 1.02111 0.63863 0.98782 0.0
N320 N 0.9646 0.58768 0.01675 0.0
C321 C 0.99574 0.53629 0.01416 0.0
C322 C 1.02652 0.56406 0.99841 0.0
C323 C 0.29253 0.40831 0.26456 0.0
C324 C 0.31218 0.45983 0.24792 0.0
C325 C 0.25944 0.43449 0.27749 0.0
C326 C 0.24438 0.51338 0.27434 0.0
H327 H 0.30283 0.34707 0.26777 0.0
H328 H 0.24565 0.39223 0.29013 0.0
S329 S 0.28404 0.67179 0.23223 0.0
N330 N 0.31347 0.59358 0.22859 0.0
N331 N 0.25138 0.64248 0.25278 0.0
C332 C 0.26357 0.56553 0.25763 0.0
C333 C 0.29738 0.53891 0.24448 0.0
C334 C 0.7429 0.19166 0.01195 0.0
C335 C 0.76406 0.1631 0.99128 0.0
C336 C 0.75961 0.25049 0.02925 0.0
C337 C 0.79826 0.28345 0.02672 0.0
H338 H 0.71294 0.169 0.01473 0.0
H339 H 0.74198 0.26982 0.04486 0.0
S340 S 0.86665 0.22884 0.97608 0.0
N341 N 0.82614 0.17209 0.96939 0.0
N342 N 0.85742 0.28253 1.00188 0.0
C343 C 0.81983 0.25552 1.00613 0.0
C344 C 0.80281 0.19542 0.98849 0.0
C345 C 0.76984 0.54673 0.76721 0.0
C346 C 0.74155 0.49185 0.77592 0.0
C347 C 0.80081 0.52147 0.75225 0.0
C348 C 0.80494 0.44013 0.74531 0.0
H349 H 0.76822 0.61 0.77198 0.0
H350 H 0.82172 0.56645 0.74614 0.0
S351 S 0.73853 0.27178 0.76296 0.0
N352 N 0.71959 0.35186 0.77631 0.0
N353 N 0.77768 0.3046 0.74825 0.0
C354 C 0.77681 0.38445 0.75383 0.0
C355 C 0.7452 0.4102 0.76908 0.0
C356 C 0.55731 0.92757 1.00363 0.0
C357 C 0.56382 0.00918 0.99779 0.0
C358 C 0.52487 0.9032 0.01759 0.0
C359 C 0.49745 0.95929 0.02637 0.0
H360 H 0.57725 0.88165 0.99721 0.0
H361 H 0.52125 0.8396 0.02139 0.0
S362 S 0.50164 0.18089 0.01706 0.0
N363 N 0.54044 0.1465 1.00249 0.0
N364 N 0.47964 0.10092 0.02866 0.0
C365 C 0.50376 0.04129 0.02087 0.0
C366 C 0.53684 0.06612 1.00663 0.0
C367 C 0.48752 0.2615 0.25928 0.0
C368 C 0.50901 0.2926 0.23907 0.0
C369 C 0.50404 0.20142 0.27613 0.0
C370 C 0.54283 0.16973 0.27357 0.0
H371 H 0.45742 0.28302 0.26201 0.0
H372 H 0.48616 0.18006 0.29139 0.0
S373 S 0.61213 0.23123 0.22408 0.0
N374 N 0.57163 0.28752 0.21765 0.0
N375 N 0.60248 0.17475 0.24925 0.0
C376 C 0.56475 0.20031 0.25347 0.0
C377 C 0.54795 0.26167 0.23631 0.0
C378 C 0.49405 0.75483 0.76731 0.0
C379 C 0.51552 0.78464 0.74689 0.0
C380 C 0.51027 0.69498 0.7843 0.0
C381 C 0.54875 0.66213 0.78167 0.0
H382 H 0.46417 0.7773 0.77017 0.0
H383 H 0.49239 0.67467 0.7997 0.0
S384 S 0.61791 0.71987 0.73164 0.0
N385 N 0.57773 0.77705 0.72515 0.0
N386 N 0.6082 0.66464 0.75708 0.0
C387 C 0.5707 0.6914 0.76137 0.0
C388 C 0.55416 0.75263 0.74404 0.0
C389 C 0.51124 0.51016 0.53434 0.0
C390 C 0.48686 0.44627 0.52389 0.0
C391 C 0.54633 0.53436 0.52299 0.0
C392 C 0.55874 0.49585 0.50065 0.0
H393 H 0.50326 0.5421 0.55151 0.0
H394 H 0.56384 0.58383 0.53192 0.0
S395 S 0.50559 0.32534 0.46535 0.0
N396 N 0.47776 0.34503 0.48963 0.0
N397 N 0.54346 0.39028 0.46837 0.0
C398 C 0.53466 0.43179 0.48994 0.0
C399 C 0.49887 0.40712 0.50152 0.0
C400 C 0.20725 0.69554 0.38726 0.0
C401 C 0.17295 0.65296 0.39398 0.0
C402 C 0.22281 0.76031 0.40247 0.0
C403 C 0.20448 0.78481 0.42485 0.0
H404 H 0.22023 0.68324 0.36905 0.0
H405 H 0.24693 0.79567 0.39521 0.0
S406 S 0.1218 0.67808 0.4549 0.0
N407 N 0.12693 0.62845 0.42755 0.0
N408 N 0.15608 0.75052 0.45604 0.0
C409 C 0.17373 0.73599 0.43361 0.0
C410 C 0.1579 0.67002 0.41815 0.0
C411 C 0.15315 0.1774 0.36285 0.0
C412 C 0.13445 0.15205 0.38502 0.0
C413 C 0.13791 0.24199 0.34763 0.0
C414 C 0.10345 0.28403 0.35406 0.0
H415 H 0.18146 0.15112 0.3582 0.0
H416 H 0.15531 0.26314 0.33209 0.0
S417 S 0.03679 0.22646 0.40551 0.0
N418 N 0.07477 0.16247 0.40917 0.0
N419 N 0.04607 0.28435 0.38057 0.0
C420 C 0.08132 0.25217 0.3739 0.0
C421 C 0.09689 0.1861 0.38945 0.0
C422 C 0.20185 0.19791 0.88222 0.0
C423 C 0.1671 0.15784 0.8894 0.0
C424 C 0.21899 0.2617 0.89721 0.0
C425 C 0.20182 0.2878 0.91984 0.0
H426 H 0.21412 0.18433 0.86386 0.0
H427 H 0.24346 0.29516 0.88962 0.0
S428 S 0.11846 0.18738 0.9511 0.0
N429 N 0.12184 0.13702 0.92369 0.0
N430 N 0.15395 0.25741 0.95174 0.0
C431 C 0.17057 0.24131 0.92905 0.0
C432 C 0.15314 0.17625 0.91382 0.0
C433 C 0.15482 0.68662 0.85899 0.0
C434 C 0.13552 0.65727 0.88045 0.0
C435 C 0.13865 0.75062 0.84385 0.0
C436 C 0.10253 0.78798 0.84959 0.0
H437 H 0.18416 0.66397 0.85487 0.0
H438 H 0.15639 0.77493 0.82895 0.0
S439 S 0.03444 0.71863 0.89884 0.0
N440 N 0.07413 0.65902 0.90309 0.0
N441 N 0.04354 0.77948 0.87459 0.0
C442 C 0.08022 0.7522 0.8687 0.0
C443 C 0.09681 0.6869 0.88421 0.0
C444 C 0.84166 0.26197 0.63597 0.0
C445 C 0.87564 0.30437 0.62863 0.0
C446 C 0.82571 0.19665 0.62118 0.0
C447 C 0.84332 0.17148 0.5986 0.0
H448 H 0.82934 0.27476 0.65437 0.0
H449 H 0.80197 0.16138 0.62892 0.0
S450 S 0.9247 0.27747 0.56699 0.0
N451 N 0.92043 0.32794 0.59429 0.0
N452 N 0.8905 0.20498 0.56655 0.0
C453 C 0.87361 0.22018 0.58921 0.0
C454 C 0.88986 0.28664 0.60426 0.0
C455 C 0.91473 0.7157 0.67546 0.0
C456 C 0.94841 0.6727 0.66823 0.0
C457 C 0.89919 0.78071 0.66056 0.0
C458 C 0.91683 0.8055 0.63792 0.0
H459 H 0.89803 0.69494 0.69139 0.0
H460 H 0.87137 0.80766 0.66581 0.0
S461 S 1.0127 0.72884 0.61536 0.0
N462 N 1.0043 0.67107 0.64051 0.0
N463 N 0.97508 0.79378 0.61251 0.0
C464 C 0.95385 0.77063 0.63271 0.0
C465 C 0.96972 0.70413 0.64793 0.0
C466 C 0.83467 0.6909 0.12481 0.0
C467 C 0.85123 0.66808 0.10161 0.0
C468 C 0.85082 0.75569 0.13979 0.0
C469 C 0.88394 0.7999 0.13201 0.0
H470 H 0.81169 0.65417 0.1328 0.0
H471 H 0.83939 0.76671 0.15858 0.0
S472 S 0.92991 0.77903 0.06899 0.0
N473 N 0.8964 0.70531 0.06877 0.0
N474 N 0.92662 0.82749 0.09678 0.0
C475 C 0.897 0.78439 0.10714 0.0
C476 C 0.8806 0.71839 0.09194 0.0
C477 C 0.91969 0.20872 0.17656 0.0
C478 C 0.95474 0.16838 0.17034 0.0
C479 C 0.90419 0.27336 0.16146 0.0
C480 C 0.92315 0.30042 0.13957 0.0
H481 H 0.90213 0.18632 0.19185 0.0
H482 H 0.87552 0.29839 0.16597 0.0
S483 S 1.02204 0.23066 0.11976 0.0
N484 N 1.01276 0.17147 0.14439 0.0
N485 N 0.98345 0.29317 0.11594 0.0
C486 C 0.96109 0.26787 0.13533 0.0
C487 C 0.97698 0.20184 0.15079 0.0
C488 C 0.70776 0.67952 0.88563 0.0
C489 C 0.67401 0.63736 0.89343 0.0
C490 C 0.72366 0.74587 0.89991 0.0
C491 C 0.70623 0.77237 0.9224 0.0
H492 H 0.71982 0.66585 0.86721 0.0
H493 H 0.74717 0.78081 0.89179 0.0
S494 S 0.62593 0.66718 0.95527 0.0
N495 N 0.62996 0.61515 0.92826 0.0
N496 N 0.65978 0.74016 0.95502 0.0
C497 C 0.67636 0.72383 0.93234 0.0
C498 C 0.66018 0.65625 0.91782 0.0
C499 C 0.59779 0.18114 0.89078 0.0
C500 C 0.63053 0.13794 0.88224 0.0
C501 C 0.58138 0.24682 0.87646 0.0
C502 C 0.59729 0.27147 0.8532 0.0
H503 H 0.58707 0.16889 0.90972 0.0
H504 H 0.55895 0.28294 0.88508 0.0
S505 S 0.6741 0.16311 0.81856 0.0
N506 N 0.67167 0.11281 0.84613 0.0
N507 N 0.6409 0.23656 0.81931 0.0
C508 C 0.62592 0.2218 0.84267 0.0
C509 C 0.64262 0.15495 0.85722 0.0
C510 C 0.64458 0.17472 0.40817 0.0
C511 C 0.66511 0.14724 0.38705 0.0
C512 C 0.65941 0.23939 0.42358 0.0
C513 C 0.69532 0.27926 0.41845 0.0
H514 H 0.61527 0.15023 0.41174 0.0
H515 H 0.64071 0.26232 0.43814 0.0
S516 S 0.76657 0.21485 0.37069 0.0
N517 N 0.72764 0.15293 0.36567 0.0
N518 N 0.75568 0.27471 0.3947 0.0
C519 C 0.71899 0.24508 0.39987 0.0
C520 C 0.70378 0.17906 0.38409 0.0
C521 C 0.64778 0.6758 0.35578 0.0
C522 C 0.62841 0.6493 0.37756 0.0
C523 C 0.63244 0.73992 0.34037 0.0
C524 C 0.59716 0.78029 0.34618 0.0
H525 H 0.6766 0.65079 0.35158 0.0
H526 H 0.65027 0.762 0.32517 0.0
S527 S 0.5289 0.71913 0.39632 0.0
N528 N 0.56755 0.65689 0.40064 0.0
N529 N 0.5386 0.77773 0.37164 0.0
C530 C 0.57458 0.74731 0.36562 0.0
C531 C 0.5903 0.68183 0.38139 0.0
C532 C 0.39744 0.29258 0.10606 0.0
C533 C 0.37975 0.31747 0.12863 0.0
C534 C 0.38205 0.22682 0.0914 0.0
C535 C 0.34844 0.18325 0.09877 0.0
H536 H 0.42524 0.31992 0.10074 0.0
H537 H 0.39884 0.20592 0.07557 0.0
S538 S 0.28388 0.23956 0.15133 0.0
N539 N 0.32144 0.30528 0.15401 0.0
N540 N 0.29242 0.1813 0.1264 0.0
C541 C 0.327 0.21483 0.11891 0.0
C542 C 0.34276 0.28201 0.13392 0.0
C543 C 0.47224 0.71188 0.14817 0.0
C544 C 0.45378 0.68429 0.17019 0.0
C545 C 0.45653 0.77757 0.13357 0.0
C546 C 0.42195 0.818 0.14058 0.0
H547 H 0.49651 0.67814 0.14061 0.0
H548 H 0.46952 0.79204 0.1155 0.0
S549 S 0.3708 0.78534 0.20119 0.0
N550 N 0.40529 0.71395 0.20169 0.0
N551 N 0.37584 0.8378 0.17433 0.0
C552 C 0.40697 0.79825 0.1646 0.0
C553 C 0.42295 0.73132 0.17944 0.0
C554 C 0.40539 0.77906 0.61521 0.0
C555 C 0.38543 0.80757 0.63644 0.0
C556 C 0.38972 0.71475 0.59995 0.0
C557 C 0.35353 0.67636 0.60535 0.0
H558 H 0.43488 0.80224 0.6115 0.0
H559 H 0.40799 0.69079 0.58532 0.0
S560 S 0.28352 0.74464 0.65334 0.0
N561 N 0.32312 0.80496 0.65812 0.0
N562 N 0.29351 0.68386 0.62935 0.0
C563 C 0.33043 0.71185 0.62399 0.0
C564 C 0.34649 0.77743 0.63963 0.0
C565 C 0.39408 0.27369 0.66892 0.0
C566 C 0.41544 0.30603 0.64881 0.0
C567 C 0.40972 0.20976 0.68432 0.0
C568 C 0.44731 0.1755 0.68016 0.0
H569 H 0.36371 0.29374 0.67164 0.0
H570 H 0.39057 0.18288 0.698 0.0
S571 S 0.52031 0.25417 0.63545 0.0
N572 N 0.47982 0.31092 0.62954 0.0
N573 N 0.50939 0.19066 0.65857 0.0
C574 C 0.47133 0.21452 0.66264 0.0
C575 C 0.45529 0.27969 0.64687 0.0
loop_
_geom_bond_atom_site_label_1
_geom_bond_atom_site_label_2
_geom_bond_distance
_geom_bond_site_symmetry_2
_ccdc_geom_bond_type
Zn0 O3 2.031 . S
Zn0 O5 2.049 . S
Zn0 O10 2.067 . S
Zn1 O2 1.962 . S
Zn1 O4 1.986 . S
Zn1 O6 1.996 . S
Zn1 O9 1.943 . S
O2 Zn1 1.962 . S
O2 C7 1.254 . S
O3 Zn0 2.031 . S
O3 C7 1.269 . S
O4 Zn1 1.986 . S
O4 C11 1.262 . S
O5 Zn0 2.049 . S
O5 C13 1.260 1_545 S
O6 Zn1 1.996 . S
O6 C13 1.257 1_545 S
C7 O2 1.254 . S
C7 O3 1.269 . S
C8 O9 1.249 . S
C8 O10 1.270 . S
O9 Zn1 1.943 . S
O9 C8 1.249 . S
O10 Zn0 2.067 . S
O10 C8 1.270 . S
C11 O4 1.262 . S
C11 O12 1.232 . S
O12 C11 1.232 . S
C13 O5 1.260 1_565 S
C13 O6 1.257 1_565 S
Zn14 O17 2.031 . S
Zn14 O19 2.049 . S
Zn14 O24 2.067 . S
Zn15 O16 1.962 . S
Zn15 O18 1.986 . S
Zn15 O20 1.996 . S
Zn15 O23 1.943 . S
O16 Zn15 1.962 . S
O16 C21 1.254 . S
O17 Zn14 2.031 . S
O17 C21 1.269 . S
O18 Zn15 1.986 . S
O18 C25 1.262 . S
O19 Zn14 2.049 . S
O19 C27 1.260 1_545 S
O20 Zn15 1.996 . S
O20 C27 1.257 1_545 S
C21 O16 1.254 . S
C21 O17 1.269 . S
C22 O23 1.249 . S
C22 O24 1.270 . S
O23 Zn15 1.943 . S
O23 C22 1.249 . S
O24 Zn14 2.067 . S
O24 C22 1.270 . S
C25 O18 1.262 . S
C25 O26 1.232 . S
O26 C25 1.232 . S
C27 O19 1.260 1_565 S
C27 O20 1.257 1_565 S
Zn28 O31 2.031 . S
Zn28 O33 2.049 . S
Zn28 O38 2.067 . S
Zn29 O30 1.962 . S
Zn29 O32 1.986 . S
Zn29 O34 1.996 . S
Zn29 O37 1.943 . S
O30 Zn29 1.962 . S
O30 C35 1.254 . S
O31 Zn28 2.031 . S
O31 C35 1.269 . S
O32 Zn29 1.986 . S
O32 C39 1.262 . S
O33 Zn28 2.049 . S
O33 C41 1.260 1_565 S
O34 Zn29 1.996 . S
O34 C41 1.257 1_565 S
C35 O30 1.254 . S
C35 O31 1.269 . S
C36 O37 1.249 . S
C36 O38 1.270 . S
O37 Zn29 1.943 . S
O37 C36 1.249 . S
O38 Zn28 2.067 . S
O38 C36 1.270 . S
C39 O32 1.262 . S
C39 O40 1.232 . S
O40 C39 1.232 . S
C41 O33 1.260 1_545 S
C41 O34 1.257 1_545 S
Zn42 O45 2.031 . S
Zn42 O47 2.049 . S
Zn42 O52 2.067 . S
Zn43 O44 1.962 . S
Zn43 O46 1.986 . S
Zn43 O48 1.996 . S
Zn43 O51 1.943 . S
O44 Zn43 1.962 . S
O44 C49 1.254 . S
O45 Zn42 2.031 . S
O45 C49 1.269 . S
O46 Zn43 1.986 . S
O46 C53 1.262 . S
O47 Zn42 2.049 . S
O47 C55 1.260 1_565 S
O48 Zn43 1.996 . S
O48 C55 1.257 1_565 S
C49 O44 1.254 . S
C49 O45 1.269 . S
C50 O51 1.249 . S
C50 O52 1.270 . S
O51 Zn43 1.943 . S
O51 C50 1.249 . S
O52 Zn42 2.067 . S
O52 C50 1.270 . S
C53 O46 1.262 . S
C53 O54 1.232 . S
O54 C53 1.232 . S
C55 O47 1.260 1_545 S
C55 O48 1.257 1_545 S
Zn56 O59 2.031 . S
Zn56 O61 2.049 . S
Zn56 O66 2.067 . S
Zn57 O58 1.962 . S
Zn57 O60 1.986 . S
Zn57 O62 1.996 . S
Zn57 O65 1.943 . S
O58 Zn57 1.962 . S
O58 C63 1.254 . S
O59 Zn56 2.031 . S
O59 C63 1.269 . S
O60 Zn57 1.986 . S
O60 C67 1.262 . S
O61 Zn56 2.049 . S
O61 C69 1.260 . S
O62 Zn57 1.996 . S
O62 C69 1.257 . S
C63 O58 1.254 . S
C63 O59 1.269 . S
C64 O65 1.249 . S
C64 O66 1.270 . S
O65 Zn57 1.943 . S
O65 C64 1.249 . S
O66 Zn56 2.067 . S
O66 C64 1.270 . S
C67 O60 1.262 . S
C67 O68 1.232 . S
O68 C67 1.232 . S
C69 O61 1.260 . S
C69 O62 1.257 . S
Zn70 O73 2.031 . S
Zn70 O75 2.049 . S
Zn70 O80 2.067 . S
Zn71 O72 1.962 . S
Zn71 O74 1.986 . S
Zn71 O76 1.996 . S
Zn71 O79 1.943 . S
O72 Zn71 1.962 . S
O72 C77 1.254 . S
O73 Zn70 2.031 . S
O73 C77 1.269 . S
O74 Zn71 1.986 . S
O74 C81 1.262 . S
O75 Zn70 2.049 . S
O75 C83 1.260 . S
O76 Zn71 1.996 . S
O76 C83 1.257 . S
C77 O72 1.254 . S
C77 O73 1.269 . S
C78 O79 1.249 . S
C78 O80 1.270 . S
O79 Zn71 1.943 . S
O79 C78 1.249 . S
O80 Zn70 2.067 . S
O80 C78 1.270 . S
C81 O74 1.262 . S
C81 O82 1.232 . S
O82 C81 1.232 . S
C83 O75 1.260 . S
C83 O76 1.257 . S
Zn84 O87 2.031 . S
Zn84 O89 2.049 . S
Zn84 O94 2.067 . S
Zn85 O86 1.962 . S
Zn85 O88 1.986 . S
Zn85 O90 1.996 . S
Zn85 O93 1.943 . S
O86 Zn85 1.962 . S
O86 C91 1.254 . S
O87 Zn84 2.031 . S
O87 C91 1.269 . S
O88 Zn85 1.986 . S
O88 C95 1.262 . S
O89 Zn84 2.049 . S
O89 C97 1.260 . S
O90 Zn85 1.996 . S
O90 C97 1.257 . S
C91 O86 1.254 . S
C91 O87 1.269 . S
C92 O93 1.249 . S
C92 O94 1.270 . S
O93 Zn85 1.943 . S
O93 C92 1.249 . S
O94 Zn84 2.067 . S
O94 C92 1.270 . S
C95 O88 1.262 . S
C95 O96 1.232 . S
O96 C95 1.232 . S
C97 O89 1.260 . S
C97 O90 1.257 . S
Zn98 O101 2.031 . S
Zn98 O103 2.049 . S
Zn98 O108 2.067 . S
Zn99 O100 1.962 . S
Zn99 O102 1.986 . S
Zn99 O104 1.996 . S
Zn99 O107 1.943 . S
O100 Zn99 1.962 . S
O100 C105 1.254 . S
O101 Zn98 2.031 . S
O101 C105 1.269 . S
O102 Zn99 1.986 . S
O102 C109 1.262 . S
O103 Zn98 2.049 . S
O103 C111 1.260 . S
O104 Zn99 1.996 . S
O104 C111 1.257 . S
C105 O100 1.254 . S
C105 O101 1.269 . S
C106 O107 1.249 . S
C106 O108 1.270 . S
O107 Zn99 1.943 . S
O107 C106 1.249 . S
O108 Zn98 2.067 . S
O108 C106 1.270 . S
C109 O102 1.262 . S
C109 O110 1.232 . S
O110 C109 1.232 . S
C111 O103 1.260 . S
C111 O104 1.257 . S
Zn112 O115 2.031 . S
Zn112 O117 2.049 . S
Zn112 O122 2.067 . S
Zn113 O114 1.962 . S
Zn113 O116 1.986 . S
Zn113 O118 1.996 . S
Zn113 O121 1.943 . S
O114 Zn113 1.962 . S
O114 C119 1.254 . S
O115 Zn112 2.031 . S
O115 C119 1.269 . S
O116 Zn113 1.986 . S
O116 C123 1.262 . S
O117 Zn112 2.049 . S
O117 C125 1.260 1_545 S
O118 Zn113 1.996 . S
O118 C125 1.257 1_545 S
C119 O114 1.254 . S
C119 O115 1.269 . S
C120 O121 1.249 . S
C120 O122 1.270 . S
O121 Zn113 1.943 . S
O121 C120 1.249 . S
O122 Zn112 2.067 . S
O122 C120 1.270 . S
C123 O116 1.262 . S
C123 O124 1.232 . S
O124 C123 1.232 . S
C125 O117 1.260 1_565 S
C125 O118 1.257 1_565 S
Zn126 O129 2.031 . S
Zn126 O131 2.049 . S
Zn126 O136 2.067 . S
Zn127 O128 1.962 . S
Zn127 O130 1.986 . S
Zn127 O132 1.996 . S
Zn127 O135 1.943 . S
O128 Zn127 1.962 . S
O128 C133 1.254 . S
O129 Zn126 2.031 . S
O129 C133 1.269 . S
O130 Zn127 1.986 . S
O130 C137 1.262 . S
O131 Zn126 2.049 . S
O131 C139 1.260 1_545 S
O132 Zn127 1.996 . S
O132 C139 1.257 1_545 S
C133 O128 1.254 . S
C133 O129 1.269 . S
C134 O135 1.249 . S
C134 O136 1.270 . S
O135 Zn127 1.943 . S
O135 C134 1.249 . S
O136 Zn126 2.067 . S
O136 C134 1.270 . S
C137 O130 1.262 . S
C137 O138 1.232 . S
O138 C137 1.232 . S
C139 O131 1.260 1_565 S
C139 O132 1.257 1_565 S
Zn140 O143 2.031 . S
Zn140 O145 2.049 . S
Zn140 O150 2.067 . S
Zn141 O142 1.962 . S
Zn141 O144 1.986 . S
Zn141 O146 1.996 . S
Zn141 O149 1.943 . S
O142 Zn141 1.962 . S
O142 C147 1.254 . S
O143 Zn140 2.031 . S
O143 C147 1.269 . S
O144 Zn141 1.986 . S
O144 C151 1.262 . S
O145 Zn140 2.049 . S
O145 C153 1.260 1_565 S
O146 Zn141 1.996 . S
O146 C153 1.257 1_565 S
C147 O142 1.254 . S
C147 O143 1.269 . S
C148 O149 1.249 . S
C148 O150 1.270 . S
O149 Zn141 1.943 . S
O149 C148 1.249 . S
O150 Zn140 2.067 . S
O150 C148 1.270 . S
C151 O144 1.262 . S
C151 O152 1.232 . S
O152 C151 1.232 . S
C153 O145 1.260 1_545 S
C153 O146 1.257 1_545 S
Zn154 O157 2.031 . S
Zn154 O159 2.049 . S
Zn154 O164 2.067 . S
Zn155 O156 1.962 . S
Zn155 O158 1.986 . S
Zn155 O160 1.996 . S
Zn155 O163 1.943 . S
O156 Zn155 1.962 . S
O156 C161 1.254 . S
O157 Zn154 2.031 . S
O157 C161 1.269 . S
O158 Zn155 1.986 . S
O158 C165 1.262 . S
O159 Zn154 2.049 . S
O159 C167 1.260 1_565 S
O160 Zn155 1.996 . S
O160 C167 1.257 1_565 S
C161 O156 1.254 . S
C161 O157 1.269 . S
C162 O163 1.249 . S
C162 O164 1.270 . S
O163 Zn155 1.943 . S
O163 C162 1.249 . S
O164 Zn154 2.067 . S
O164 C162 1.270 . S
C165 O158 1.262 . S
C165 O166 1.232 . S
O166 C165 1.232 . S
C167 O159 1.260 1_545 S
C167 O160 1.257 1_545 S
Zn168 O171 2.031 . S
Zn168 O173 2.049 . S
Zn168 O178 2.067 . S
Zn169 O170 1.962 . S
Zn169 O172 1.986 . S
Zn169 O174 1.996 . S
Zn169 O177 1.943 . S
O170 Zn169 1.962 . S
O170 C175 1.254 . S
O171 Zn168 2.031 . S
O171 C175 1.269 . S
O172 Zn169 1.986 . S
O172 C179 1.262 . S
O173 Zn168 2.049 . S
O173 C181 1.260 . S
O174 Zn169 1.996 . S
O174 C181 1.257 . S
C175 O170 1.254 . S
C175 O171 1.269 . S
C176 O177 1.249 . S
C176 O178 1.270 . S
O177 Zn169 1.943 . S
O177 C176 1.249 . S
O178 Zn168 2.067 . S
O178 C176 1.270 . S
C179 O172 1.262 . S
C179 O180 1.232 . S
O180 C179 1.232 . S
C181 O173 1.260 . S
C181 O174 1.257 . S
Zn182 O185 2.031 . S
Zn182 O187 2.049 . S
Zn182 O192 2.067 . S
Zn183 O184 1.962 . S
Zn183 O186 1.986 . S
Zn183 O188 1.996 . S
Zn183 O191 1.943 . S
O184 Zn183 1.962 . S
O184 C189 1.254 . S
O185 Zn182 2.031 . S
O185 C189 1.269 . S
O186 Zn183 1.986 . S
O186 C193 1.262 . S
O187 Zn182 2.049 . S
O187 C195 1.260 . S
O188 Zn183 1.996 . S
O188 C195 1.257 . S
C189 O184 1.254 . S
C189 O185 1.269 . S
C190 O191 1.249 . S
C190 O192 1.270 . S
O191 Zn183 1.943 . S
O191 C190 1.249 . S
O192 Zn182 2.067 . S
O192 C190 1.270 . S
C193 O186 1.262 . S
C193 O194 1.232 . S
O194 C193 1.232 . S
C195 O187 1.260 . S
C195 O188 1.257 . S
Zn196 O199 2.031 . S
Zn196 O201 2.049 . S
Zn196 O206 2.067 . S
Zn197 O198 1.962 . S
Zn197 O200 1.986 . S
Zn197 O202 1.996 . S
Zn197 O205 1.943 . S
O198 Zn197 1.962 . S
O198 C203 1.254 . S
O199 Zn196 2.031 . S
O199 C203 1.269 . S
O200 Zn197 1.986 . S
O200 C207 1.262 . S
O201 Zn196 2.049 . S
O201 C209 1.260 . S
O202 Zn197 1.996 . S
O202 C209 1.257 . S
C203 O198 1.254 . S
C203 O199 1.269 . S
C204 O205 1.249 . S
C204 O206 1.270 . S
O205 Zn197 1.943 . S
O205 C204 1.249 . S
O206 Zn196 2.067 . S
O206 C204 1.270 . S
C207 O200 1.262 . S
C207 O208 1.232 . S
O208 C207 1.232 . S
C209 O201 1.260 . S
C209 O202 1.257 . S
Zn210 O213 2.031 . S
Zn210 O215 2.049 . S
Zn210 O220 2.067 . S
Zn211 O212 1.962 . S
Zn211 O214 1.986 . S
Zn211 O216 1.996 . S
Zn211 O219 1.943 . S
O212 Zn211 1.962 . S
O212 C217 1.254 . S
O213 Zn210 2.031 . S
O213 C217 1.269 . S
O214 Zn211 1.986 . S
O214 C221 1.262 . S
O215 Zn210 2.049 . S
O215 C223 1.260 . S
O216 Zn211 1.996 . S
O216 C223 1.257 . S
C217 O212 1.254 . S
C217 O213 1.269 . S
C218 O219 1.249 . S
C218 O220 1.270 . S
O219 Zn211 1.943 . S
O219 C218 1.249 . S
O220 Zn210 2.067 . S
O220 C218 1.270 . S
C221 O214 1.262 . S
C221 O222 1.232 . S
O222 C221 1.232 . S
C223 O215 1.260 . S
C223 O216 1.257 . S
C224 C225 1.369 . S
C224 C226 1.419 . S
C224 H228 0.930 . S
C225 C224 1.369 . S
C225 C234 1.429 . S
C226 C224 1.419 . S
C226 C227 1.363 . S
C226 H229 0.929 . S
C227 C226 1.363 . S
C227 C233 1.428 . S
H228 C224 0.930 . S
H229 C226 0.929 . S
S230 N231 1.613 . S
S230 N232 1.610 . S
N231 S230 1.613 . S
N231 C234 1.350 . S
N232 S230 1.610 . S
N232 C233 1.351 . S
C233 C227 1.428 . S
C233 N232 1.351 . S
C233 C234 1.434 . S
C234 C225 1.429 . S
C234 N231 1.350 . S
C234 C233 1.434 . S
C235 C236 1.369 . S
C235 C237 1.419 1_655 S
C235 H239 0.930 . S
C236 C235 1.369 . S
C236 C245 1.429 1_565 S
C237 C235 1.419 1_455 S
C237 C238 1.363 1_565 S
C237 H240 0.929 . S
C238 C237 1.363 1_545 S
C238 C244 1.428 . S
H239 C235 0.930 . S
H240 C237 0.929 . S
S241 N242 1.613 . S
S241 N243 1.608 . S
N242 S241 1.613 . S
N242 C245 1.350 . S
N243 S241 1.608 . S
N243 C244 1.351 1_655 S
C244 C238 1.428 . S
C244 N243 1.351 1_455 S
C244 C245 1.434 1_455 S
C245 C236 1.429 1_545 S
C245 N242 1.350 . S
C245 C244 1.434 1_655 S
C246 C247 1.369 . S
C246 C248 1.419 . S
C246 H250 0.930 . S
C247 C246 1.369 . S
C247 C256 1.429 1_565 S
C248 C246 1.419 . S
C248 C249 1.363 1_565 S
C248 H251 0.929 . S
C249 C248 1.363 1_545 S
C249 C255 1.428 . S
H250 C246 0.930 . S
H251 C248 0.929 . S
S252 N253 1.613 . S
S252 N254 1.610 . S
N253 S252 1.613 . S
N253 C256 1.350 . S
N254 S252 1.610 . S
N254 C255 1.351 . S
C255 C249 1.428 . S
C255 N254 1.351 . S
C255 C256 1.434 . S
C256 C247 1.429 1_545 S
C256 N253 1.350 . S
C256 C255 1.434 . S
C257 C258 1.369 . S
C257 C259 1.419 . S
C257 H261 0.930 . S
C258 C257 1.369 . S
C258 C267 1.429 1_455 S
C259 C257 1.419 . S
C259 C260 1.363 1_455 S
C259 H262 0.929 . S
C260 C259 1.363 1_655 S
C260 C266 1.428 . S
H261 C257 0.930 . S
H262 C259 0.929 . S
S263 N264 1.613 . S
S263 N265 1.610 . S
N264 S263 1.613 . S
N264 C267 1.350 . S
N265 S263 1.610 . S
N265 C266 1.351 . S
C266 C260 1.428 . S
C266 N265 1.351 . S
C266 C267 1.434 . S
C267 C258 1.429 1_655 S
C267 N264 1.350 . S
C267 C266 1.434 . S
C268 C269 1.369 . S
C268 C270 1.419 . S
C268 H272 0.930 . S
C269 C268 1.369 . S
C269 C278 1.429 . S
C270 C268 1.419 . S
C270 C271 1.363 . S
C270 H273 0.929 . S
C271 C270 1.363 . S
C271 C277 1.428 . S
H272 C268 0.930 . S
H273 C270 0.929 . S
S274 N275 1.613 . S
S274 N276 1.610 . S
N275 S274 1.613 . S
N275 C278 1.350 . S
N276 S274 1.610 . S
N276 C277 1.351 . S
C277 C271 1.428 . S
C277 N276 1.351 . S
C277 C278 1.434 . S
C278 C269 1.429 . S
C278 N275 1.350 . S
C278 C277 1.434 . S
C279 C280 1.369 . S
C279 C281 1.419 . S
C279 H283 0.930 . S
C280 C279 1.369 . S
C280 C289 1.429 1_545 S
C281 C279 1.419 . S
C281 C282 1.363 1_545 S
C281 H284 0.929 . S
C282 C281 1.363 1_565 S
C282 C288 1.428 . S
H283 C279 0.930 . S
H284 C281 0.929 . S
S285 N286 1.613 . S
S285 N287 1.610 . S
N286 S285 1.613 . S
N286 C289 1.350 . S
N287 S285 1.610 . S
N287 C288 1.351 . S
C288 C282 1.428 . S
C288 N287 1.351 . S
C288 C289 1.434 . S
C289 C280 1.429 1_565 S
C289 N286 1.350 . S
C289 C288 1.434 . S
C290 C291 1.369 1_455 S
C290 C292 1.419 . S
C290 H294 0.930 . S
C291 C290 1.369 1_655 S
C291 C300 1.429 . S
C292 C290 1.419 . S
C292 C293 1.363 . S
C292 H295 0.929 . S
C293 C292 1.363 . S
C293 C299 1.428 1_455 S
H294 C290 0.930 . S
H295 C292 0.929 . S
S296 N297 1.613 . S
S296 N298 1.610 . S
N297 S296 1.613 . S
N297 C300 1.350 . S
N298 S296 1.610 . S
N298 C299 1.351 . S
C299 C293 1.428 1_655 S
C299 N298 1.351 . S
C299 C300 1.434 . S
C300 C291 1.429 . S
C300 N297 1.350 . S
C300 C299 1.434 . S
C301 C302 1.369 . S
C301 C303 1.419 . S
C301 H305 0.930 . S
C302 C301 1.369 . S
C302 C311 1.429 1_554 S
C303 C301 1.419 . S
C303 C304 1.363 1_554 S
C303 H306 0.929 . S
C304 C303 1.363 1_556 S
C304 C310 1.428 . S
H305 C301 0.930 . S
H306 C303 0.929 . S
S307 N308 1.613 . S
S307 N309 1.610 . S
N308 S307 1.613 . S
N308 C311 1.350 . S
N309 S307 1.610 . S
N309 C310 1.351 . S
C310 C304 1.428 . S
C310 N309 1.351 . S
C310 C311 1.434 . S
C311 C302 1.429 1_556 S
C311 N308 1.350 . S
C311 C310 1.434 . S
C312 C313 1.369 . S
C312 C314 1.419 1_556 S
C312 H316 0.930 . S
C313 C312 1.369 . S
C313 C322 1.429 1_455 S
C314 C312 1.419 1_554 S
C314 C315 1.363 1_455 S
C314 H317 0.929 . S
C315 C314 1.363 1_655 S
C315 C321 1.428 . S
H316 C312 0.930 . S
H317 C314 0.929 . S
S318 N319 1.613 1_554 S
S318 N320 1.610 . S
N319 S318 1.613 1_556 S
N319 C322 1.350 . S
N320 S318 1.610 . S
N320 C321 1.351 . S
C321 C315 1.428 . S
C321 N320 1.351 . S
C321 C322 1.434 1_554 S
C322 C313 1.429 1_655 S
C322 N319 1.350 . S
C322 C321 1.434 1_556 S
C323 C324 1.369 . S
C323 C325 1.419 . S
C323 H327 0.930 . S
C324 C323 1.369 . S
C324 C333 1.429 . S
C325 C323 1.419 . S
C325 C326 1.363 . S
C325 H328 0.929 . S
C326 C325 1.363 . S
C326 C332 1.428 . S
H327 C323 0.930 . S
H328 C325 0.929 . S
S329 N330 1.613 . S
S329 N331 1.610 . S
N330 S329 1.613 . S
N330 C333 1.350 . S
N331 S329 1.610 . S
N331 C332 1.351 . S
C332 C326 1.428 . S
C332 N331 1.351 . S
C332 C333 1.434 . S
C333 C324 1.429 . S
C333 N330 1.350 . S
C333 C332 1.434 . S
C334 C335 1.369 1_554 S
C334 C336 1.419 . S
C334 H338 0.930 . S
C335 C334 1.369 1_556 S
C335 C344 1.429 . S
C336 C334 1.419 . S
C336 C337 1.363 . S
C336 H339 0.929 . S
C337 C336 1.363 . S
C337 C343 1.428 1_554 S
H338 C334 0.930 . S
H339 C336 0.929 . S
S340 N341 1.613 . S
S340 N342 1.610 . S
N341 S340 1.613 . S
N341 C344 1.350 . S
N342 S340 1.610 . S
N342 C343 1.351 . S
C343 C337 1.428 1_556 S
C343 N342 1.351 . S
C343 C344 1.434 . S
C344 C335 1.429 . S
C344 N341 1.350 . S
C344 C343 1.434 . S
C345 C346 1.369 . S
C345 C347 1.419 . S
C345 H349 0.930 . S
C346 C345 1.369 . S
C346 C355 1.429 . S
C347 C345 1.419 . S
C347 C348 1.363 . S
C347 H350 0.929 . S
C348 C347 1.363 . S
C348 C354 1.428 . S
H349 C345 0.930 . S
H350 C347 0.929 . S
S351 N352 1.613 . S
S351 N353 1.610 . S
N352 S351 1.613 . S
N352 C355 1.350 . S
N353 S351 1.610 . S
N353 C354 1.351 . S
C354 C348 1.428 . S
C354 N353 1.351 . S
C354 C355 1.434 . S
C355 C346 1.429 . S
C355 N352 1.350 . S
C355 C354 1.434 . S
C356 C357 1.369 1_565 S
C356 C358 1.419 . S
C356 H360 0.930 . S
C357 C356 1.369 1_545 S
C357 C366 1.429 1_556 S
C358 C356 1.419 . S
C358 C359 1.363 1_556 S
C358 H361 0.929 . S
C359 C358 1.363 1_554 S
C359 C365 1.428 1_565 S
H360 C356 0.930 . S
H361 C358 0.929 . S
S362 N363 1.613 . S
S362 N364 1.610 . S
N363 S362 1.613 . S
N363 C366 1.350 . S
N364 S362 1.610 . S
N364 C365 1.351 . S
C365 C359 1.428 1_545 S
C365 N364 1.351 . S
C365 C366 1.434 . S
C366 C357 1.429 1_554 S
C366 N363 1.350 . S
C366 C365 1.434 . S
C367 C368 1.369 . S
C367 C369 1.419 . S
C367 H371 0.930 . S
C368 C367 1.369 . S
C368 C377 1.429 . S
C369 C367 1.419 . S
C369 C370 1.363 . S
C369 H372 0.929 . S
C370 C369 1.363 . S
C370 C376 1.428 . S
H371 C367 0.930 . S
H372 C369 0.929 . S
S373 N374 1.613 . S
S373 N375 1.610 . S
N374 S373 1.613 . S
N374 C377 1.350 . S
N375 S373 1.610 . S
N375 C376 1.351 . S
C376 C370 1.428 . S
C376 N375 1.351 . S
C376 C377 1.434 . S
C377 C368 1.429 . S
C377 N374 1.350 . S
C377 C376 1.434 . S
C378 C379 1.369 . S
C378 C380 1.419 . S
C378 H382 0.930 . S
C379 C378 1.369 . S
C379 C388 1.429 . S
C380 C378 1.419 . S
C380 C381 1.363 . S
C380 H383 0.929 . S
C381 C380 1.363 . S
C381 C387 1.428 . S
H382 C378 0.930 . S
H383 C380 0.929 . S
S384 N385 1.613 . S
S384 N386 1.610 . S
N385 S384 1.613 . S
N385 C388 1.350 . S
N386 S384 1.610 . S
N386 C387 1.351 . S
C387 C381 1.428 . S
C387 N386 1.351 . S
C387 C388 1.434 . S
C388 C379 1.429 . S
C388 N385 1.350 . S
C388 C387 1.434 . S
C389 C390 1.369 . S
C389 C391 1.419 . S
C389 H393 0.930 . S
C390 C389 1.369 . S
C390 C399 1.429 . S
C391 C389 1.419 . S
C391 C392 1.363 . S
C391 H394 0.929 . S
C392 C391 1.363 . S
C392 C398 1.428 . S
H393 C389 0.930 . S
H394 C391 0.929 . S
S395 N396 1.613 . S
S395 N397 1.610 . S
N396 S395 1.613 . S
N396 C399 1.350 . S
N397 S395 1.610 . S
N397 C398 1.351 . S
C398 C392 1.428 . S
C398 N397 1.351 . S
C398 C399 1.434 . S
C399 C390 1.429 . S
C399 N396 1.350 . S
C399 C398 1.434 . S
C400 C401 1.369 . S
C400 C402 1.419 . S
C400 H404 0.930 . S
C401 C400 1.369 . S
C401 C410 1.429 . S
C402 C400 1.419 . S
C402 C403 1.363 . S
C402 H405 0.929 . S
C403 C402 1.363 . S
C403 C409 1.428 . S
H404 C400 0.930 . S
H405 C402 0.929 . S
S406 N407 1.613 . S
S406 N408 1.610 . S
N407 S406 1.613 . S
N407 C410 1.350 . S
N408 S406 1.610 . S
N408 C409 1.351 . S
C409 C403 1.428 . S
C409 N408 1.351 . S
C409 C410 1.434 . S
C410 C401 1.429 . S
C410 N407 1.350 . S
C410 C409 1.434 . S
C411 C412 1.369 . S
C411 C413 1.419 . S
C411 H415 0.930 . S
C412 C411 1.369 . S
C412 C421 1.429 . S
C413 C411 1.419 . S
C413 C414 1.363 . S
C413 H416 0.929 . S
C414 C413 1.363 . S
C414 C420 1.428 . S
H415 C411 0.930 . S
H416 C413 0.929 . S
S417 N418 1.613 . S
S417 N419 1.610 . S
N418 S417 1.613 . S
N418 C421 1.350 . S
N419 S417 1.610 . S
N419 C420 1.351 . S
C420 C414 1.428 . S
C420 N419 1.351 . S
C420 C421 1.434 . S
C421 C412 1.429 . S
C421 N418 1.350 . S
C421 C420 1.434 . S
C422 C423 1.369 . S
C422 C424 1.419 . S
C422 H426 0.930 . S
C423 C422 1.369 . S
C423 C432 1.429 . S
C424 C422 1.419 . S
C424 C425 1.363 . S
C424 H427 0.929 . S
C425 C424 1.363 . S
C425 C431 1.428 . S
H426 C422 0.930 . S
H427 C424 0.929 . S
S428 N429 1.613 . S
S428 N430 1.610 . S
N429 S428 1.613 . S
N429 C432 1.350 . S
N430 S428 1.610 . S
N430 C431 1.351 . S
C431 C425 1.428 . S
C431 N430 1.351 . S
C431 C432 1.434 . S
C432 C423 1.429 . S
C432 N429 1.350 . S
C432 C431 1.434 . S
C433 C434 1.369 . S
C433 C435 1.419 . S
C433 H437 0.930 . S
C434 C433 1.369 . S
C434 C443 1.429 . S
C435 C433 1.419 . S
C435 C436 1.363 . S
C435 H438 0.929 . S
C436 C435 1.363 . S
C436 C442 1.428 . S
H437 C433 0.930 . S
H438 C435 0.929 . S
S439 N440 1.613 . S
S439 N441 1.610 . S
N440 S439 1.613 . S
N440 C443 1.350 . S
N441 S439 1.610 . S
N441 C442 1.351 . S
C442 C436 1.428 . S
C442 N441 1.351 . S
C442 C443 1.434 . S
C443 C434 1.429 . S
C443 N440 1.350 . S
C443 C442 1.434 . S
C444 C445 1.369 . S
C444 C446 1.419 . S
C444 H448 0.930 . S
C445 C444 1.369 . S
C445 C454 1.429 . S
C446 C444 1.419 . S
C446 C447 1.363 . S
C446 H449 0.929 . S
C447 C446 1.363 . S
C447 C453 1.428 . S
H448 C444 0.930 . S
H449 C446 0.929 . S
S450 N451 1.613 . S
S450 N452 1.610 . S
N451 S450 1.613 . S
N451 C454 1.350 . S
N452 S450 1.610 . S
N452 C453 1.351 . S
C453 C447 1.428 . S
C453 N452 1.351 . S
C453 C454 1.434 . S
C454 C445 1.429 . S
C454 N451 1.350 . S
C454 C453 1.434 . S
C455 C456 1.369 . S
C455 C457 1.419 . S
C455 H459 0.930 . S
C456 C455 1.369 . S
C456 C465 1.429 . S
C457 C455 1.419 . S
C457 C458 1.363 . S
C457 H460 0.929 . S
C458 C457 1.363 . S
C458 C464 1.428 . S
H459 C455 0.930 . S
H460 C457 0.929 . S
S461 N462 1.613 . S
S461 N463 1.610 . S
N462 S461 1.613 . S
N462 C465 1.350 . S
N463 S461 1.610 . S
N463 C464 1.351 . S
C464 C458 1.428 . S
C464 N463 1.351 . S
C464 C465 1.434 . S
C465 C456 1.429 . S
C465 N462 1.350 . S
C465 C464 1.434 . S
C466 C467 1.369 . S
C466 C468 1.419 . S
C466 H470 0.930 . S
C467 C466 1.369 . S
C467 C476 1.429 . S
C468 C466 1.419 . S
C468 C469 1.363 . S
C468 H471 0.929 . S
C469 C468 1.363 . S
C469 C475 1.428 . S
H470 C466 0.930 . S
H471 C468 0.929 . S
S472 N473 1.613 . S
S472 N474 1.610 . S
N473 S472 1.613 . S
N473 C476 1.350 . S
N474 S472 1.610 . S
N474 C475 1.351 . S
C475 C469 1.428 . S
C475 N474 1.351 . S
C475 C476 1.434 . S
C476 C467 1.429 . S
C476 N473 1.350 . S
C476 C475 1.434 . S
C477 C478 1.369 . S
C477 C479 1.419 . S
C477 H481 0.930 . S
C478 C477 1.369 . S
C478 C487 1.429 . S
C479 C477 1.419 . S
C479 C480 1.363 . S
C479 H482 0.929 . S
C480 C479 1.363 . S
C480 C486 1.428 . S
H481 C477 0.930 . S
H482 C479 0.929 . S
S483 N484 1.613 . S
S483 N485 1.611 1_565 S
N484 S483 1.613 . S
N484 C487 1.350 1_565 S
N485 S483 1.611 1_545 S
N485 C486 1.351 . S
C486 C480 1.428 . S
C486 N485 1.351 . S
C486 C487 1.434 . S
C487 C478 1.429 . S
C487 N484 1.350 1_545 S
C487 C486 1.434 . S
C488 C489 1.369 . S
C488 C490 1.419 . S
C488 H492 0.930 . S
C489 C488 1.369 . S
C489 C498 1.429 . S
C490 C488 1.419 . S
C490 C491 1.363 . S
C490 H493 0.929 . S
C491 C490 1.363 . S
C491 C497 1.428 . S
H492 C488 0.930 . S
H493 C490 0.929 . S
S494 N495 1.613 . S
S494 N496 1.610 . S
N495 S494 1.613 . S
N495 C498 1.350 . S
N496 S494 1.610 . S
N496 C497 1.351 . S
C497 C491 1.428 . S
C497 N496 1.351 . S
C497 C498 1.434 . S
C498 C489 1.429 . S
C498 N495 1.350 . S
C498 C497 1.434 . S
C499 C500 1.369 . S
C499 C501 1.419 . S
C499 H503 0.930 . S
C500 C499 1.369 . S
C500 C509 1.429 . S
C501 C499 1.419 . S
C501 C502 1.363 . S
C501 H504 0.929 . S
C502 C501 1.363 . S
C502 C508 1.428 . S
H503 C499 0.930 . S
H504 C501 0.929 . S
S505 N506 1.613 . S
S505 N507 1.610 . S
N506 S505 1.613 . S
N506 C509 1.350 . S
N507 S505 1.610 . S
N507 C508 1.351 . S
C508 C502 1.428 . S
C508 N507 1.351 . S
C508 C509 1.434 . S
C509 C500 1.429 . S
C509 N506 1.350 . S
C509 C508 1.434 . S
C510 C511 1.369 . S
C510 C512 1.419 . S
C510 H514 0.930 . S
C511 C510 1.369 . S
C511 C520 1.429 . S
C512 C510 1.419 . S
C512 C513 1.363 . S
C512 H515 0.929 . S
C513 C512 1.363 . S
C513 C519 1.428 . S
H514 C510 0.930 . S
H515 C512 0.929 . S
S516 N517 1.613 . S
S516 N518 1.610 . S
N517 S516 1.613 . S
N517 C520 1.350 . S
N518 S516 1.610 . S
N518 C519 1.351 . S
C519 C513 1.428 . S
C519 N518 1.351 . S
C519 C520 1.434 . S
C520 C511 1.429 . S
C520 N517 1.350 . S
C520 C519 1.434 . S
C521 C522 1.369 . S
C521 C523 1.419 . S
C521 H525 0.930 . S
C522 C521 1.369 . S
C522 C531 1.429 . S
C523 C521 1.419 . S
C523 C524 1.363 . S
C523 H526 0.929 . S
C524 C523 1.363 . S
C524 C530 1.428 . S
H525 C521 0.930 . S
H526 C523 0.929 . S
S527 N528 1.613 . S
S527 N529 1.610 . S
N528 S527 1.613 . S
N528 C531 1.350 . S
N529 S527 1.610 . S
N529 C530 1.351 . S
C530 C524 1.428 . S
C530 N529 1.351 . S
C530 C531 1.434 . S
C531 C522 1.429 . S
C531 N528 1.350 . S
C531 C530 1.434 . S
C532 C533 1.369 . S
C532 C534 1.419 . S
C532 H536 0.930 . S
C533 C532 1.369 . S
C533 C542 1.429 . S
C534 C532 1.419 . S
C534 C535 1.363 . S
C534 H537 0.929 . S
C535 C534 1.363 . S
C535 C541 1.428 . S
H536 C532 0.930 . S
H537 C534 0.929 . S
S538 N539 1.613 . S
S538 N540 1.610 . S
N539 S538 1.613 . S
N539 C542 1.350 . S
N540 S538 1.610 . S
N540 C541 1.351 . S
C541 C535 1.428 . S
C541 N540 1.351 . S
C541 C542 1.434 . S
C542 C533 1.429 . S
C542 N539 1.350 . S
C542 C541 1.434 . S
C543 C544 1.369 . S
C543 C545 1.419 . S
C543 H547 0.930 . S
C544 C543 1.369 . S
C544 C553 1.429 . S
C545 C543 1.419 . S
C545 C546 1.363 . S
C545 H548 0.929 . S
C546 C545 1.363 . S
C546 C552 1.428 . S
H547 C543 0.930 . S
H548 C545 0.929 . S
S549 N550 1.613 . S
S549 N551 1.610 . S
N550 S549 1.613 . S
N550 C553 1.350 . S
N551 S549 1.610 . S
N551 C552 1.351 . S
C552 C546 1.428 . S
C552 N551 1.351 . S
C552 C553 1.434 . S
C553 C544 1.429 . S
C553 N550 1.350 . S
C553 C552 1.434 . S
C554 C555 1.369 . S
C554 C556 1.419 . S
C554 H558 0.930 . S
C555 C554 1.369 . S
C555 C564 1.429 . S
C556 C554 1.419 . S
C556 C557 1.363 . S
C556 H559 0.929 . S
C557 C556 1.363 . S
C557 C563 1.428 . S
H558 C554 0.930 . S
H559 C556 0.929 . S
S560 N561 1.613 . S
S560 N562 1.610 . S
N561 S560 1.613 . S
N561 C564 1.350 . S
N562 S560 1.610 . S
N562 C563 1.351 . S
C563 C557 1.428 . S
C563 N562 1.351 . S
C563 C564 1.434 . S
C564 C555 1.429 . S
C564 N561 1.350 . S
C564 C563 1.434 . S
C565 C566 1.369 . S
C565 C567 1.419 . S
C565 H569 0.930 . S
C566 C565 1.369 . S
C566 C575 1.429 . S
C567 C565 1.419 . S
C567 C568 1.363 . S
C567 H570 0.929 . S
C568 C567 1.363 . S
C568 C574 1.428 . S
H569 C565 0.930 . S
H570 C567 0.929 . S
S571 N572 1.613 . S
S571 N573 1.610 . S
N572 S571 1.613 . S
N572 C575 1.350 . S
N573 S571 1.610 . S
N573 C574 1.351 . S
C574 C568 1.428 . S
C574 N573 1.351 . S
C574 C575 1.434 . S
C575 C566 1.429 . S
C575 N572 1.350 . S
C575 C574 1.434 . S
C225 C203 1.528 . S
C227 C7 1.529 . S
C236 C39 1.516 . S
C238 C11 1.520 . S
C247 C165 1.516 . S
C249 C25 1.520 . S
C258 C21 1.529 . S
C260 C105 1.529 . S
C269 C35 1.529 . S
C271 C175 1.528 . S
C280 C137 1.519 . S
C282 C53 1.518 . S
C291 C49 1.527 . S
C293 C77 1.529 . S
C302 C147 1.530 . S
C304 C63 1.527 . S
C313 C67 1.520 . S
C315 C95 1.517 . S
C324 C221 1.519 . S
C326 C81 1.518 . S
C335 C119 1.528 . S
C337 C91 1.529 . S
C346 C193 1.516 . S
C348 C109 1.520 . S
C357 C123 1.517 . S
C359 C151 1.520 . S
C368 C217 1.527 . S
C370 C133 1.530 . S
C379 C161 1.526 . S
C381 C189 1.530 . S
C390 C207 1.517 . S
C392 C179 1.519 . S
C401 C78 1.247 . S
C403 C13 1.236 . S
C412 C8 1.252 . S
C414 C83 1.228 . S
C423 C22 1.253 . S
C425 C69 1.231 . S
C434 C64 1.255 . S
C436 C27 1.227 . S
C445 C106 1.244 . S
C447 C41 1.237 . S
C456 C111 1.232 . S
C458 C36 1.248 . S
C467 C97 1.237 . S
C469 C50 1.247 . S
C478 C55 1.226 . S
C480 C92 1.254 . S
C489 C190 1.246 . S
C491 C125 1.233 . S
C500 C120 1.243 . S
C502 C195 1.236 . S
C511 C134 1.253 . S
C513 C181 1.227 . S
C522 C176 1.248 . S
C524 C139 1.231 . S
C533 C218 1.256 . S
C535 C153 1.227 . S
C544 C223 1.238 . S
C546 C148 1.245 . S
C555 C162 1.256 . S
C557 C209 1.227 . S
C566 C204 1.251 . S
C568 C167 1.229 . S
