# Generated by pormake.
# Topology zfi, (5)-cn, num edge types: 1
# Building blocks:
#     Node 0, Type 0, BuildingBlock: XOMCOT_clean_sbu_1, # of connection points: 5
#     Node 1, Type 0, BuildingBlock: XOMCOT_clean_sbu_1, # of connection points: 5
#     Node 2, Type 0, BuildingBlock: XOMCOT_clean_sbu_1, # of connection points: 5
#     Node 3, Type 0, BuildingBlock: XOMCOT_clean_sbu_1, # of connection points: 5
#     Node 4, Type 0, BuildingBlock: XOMCOT_clean_sbu_1, # of connection points: 5
#     Node 5, Type 0, BuildingBlock: XOMCOT_clean_sbu_1, # of connection points: 5
#     Node 6, Type 0, BuildingBlock: XOMCOT_clean_sbu_1, # of connection points: 5
#     Node 7, Type 0, BuildingBlock: XOMCOT_clean_sbu_1, # of connection points: 5
#     Node 8, Type 0, BuildingBlock: XOMCOT_clean_sbu_1, # of connection points: 5
#     Node 9, Type 0, BuildingBlock: XOMCOT_clean_sbu_1, # of connection points: 5
#     Node 10, Type 0, BuildingBlock: XOMCOT_clean_sbu_1, # of connection points: 5
#     Node 11, Type 0, BuildingBlock: XOMCOT_clean_sbu_1, # of connection points: 5
#     Node 12, Type 0, BuildingBlock: XOMCOT_clean_sbu_1, # of connection points: 5
#     Node 13, Type 0, BuildingBlock: XOMCOT_clean_sbu_1, # of connection points: 5
#     Node 14, Type 0, BuildingBlock: XOMCOT_clean_sbu_1, # of connection points: 5
#     Node 15, Type 0, BuildingBlock: XOMCOT_clean_sbu_1, # of connection points: 5
#     Edge 16, Type (0, 0), BuildingBlock: EZIPEK_clean_linker_0, # of connection points: 2
#     Edge 17, Type (0, 0), BuildingBlock: EZIPEK_clean_linker_0, # of connection points: 2
#     Edge 18, Type (0, 0), BuildingBlock: EZIPEK_clean_linker_0, # of connection points: 2
#     Edge 19, Type (0, 0), BuildingBlock: EZIPEK_clean_linker_0, # of connection points: 2
#     Edge 20, Type (0, 0), BuildingBlock: EZIPEK_clean_linker_0, # of connection points: 2
#     Edge 21, Type (0, 0), BuildingBlock: EZIPEK_clean_linker_0, # of connection points: 2
#     Edge 22, Type (0, 0), BuildingBlock: EZIPEK_clean_linker_0, # of connection points: 2
#     Edge 23, Type (0, 0), BuildingBlock: EZIPEK_clean_linker_0, # of connection points: 2
#     Edge 24, Type (0, 0), BuildingBlock: EZIPEK_clean_linker_0, # of connection points: 2
#     Edge 25, Type (0, 0), BuildingBlock: EZIPEK_clean_linker_0, # of connection points: 2
#     Edge 26, Type (0, 0), BuildingBlock: EZIPEK_clean_linker_0, # of connection points: 2
#     Edge 27, Type (0, 0), BuildingBlock: EZIPEK_clean_linker_0, # of connection points: 2
#     Edge 28, Type (0, 0), BuildingBlock: EZIPEK_clean_linker_0, # of connection points: 2
#     Edge 29, Type (0, 0), BuildingBlock: EZIPEK_clean_linker_0, # of connection points: 2
#     Edge 30, Type (0, 0), BuildingBlock: EZIPEK_clean_linker_0, # of connection points: 2
#     Edge 31, Type (0, 0), BuildingBlock: EZIPEK_clean_linker_0, # of connection points: 2
#     Edge 32, Type (0, 0), BuildingBlock: EZIPEK_clean_linker_0, # of connection points: 2
#     Edge 33, Type (0, 0), BuildingBlock: EZIPEK_clean_linker_0, # of connection points: 2
#     Edge 34, Type (0, 0), BuildingBlock: EZIPEK_clean_linker_0, # of connection points: 2
#     Edge 35, Type (0, 0), BuildingBlock: EZIPEK_clean_linker_0, # of connection points: 2
#     Edge 36, Type (0, 0), BuildingBlock: EZIPEK_clean_linker_0, # of connection points: 2
#     Edge 37, Type (0, 0), BuildingBlock: EZIPEK_clean_linker_0, # of connection points: 2
#     Edge 38, Type (0, 0), BuildingBlock: EZIPEK_clean_linker_0, # of connection points: 2
#     Edge 39, Type (0, 0), BuildingBlock: EZIPEK_clean_linker_0, # of connection points: 2
#     Edge 40, Type (0, 0), BuildingBlock: EZIPEK_clean_linker_0, # of connection points: 2
#     Edge 41, Type (0, 0), BuildingBlock: EZIPEK_clean_linker_0, # of connection points: 2
#     Edge 42, Type (0, 0), BuildingBlock: EZIPEK_clean_linker_0, # of connection points: 2
#     Edge 43, Type (0, 0), BuildingBlock: EZIPEK_clean_linker_0, # of connection points: 2
#     Edge 44, Type (0, 0), BuildingBlock: EZIPEK_clean_linker_0, # of connection points: 2
#     Edge 45, Type (0, 0), BuildingBlock: EZIPEK_clean_linker_0, # of connection points: 2
#     Edge 46, Type (0, 0), BuildingBlock: EZIPEK_clean_linker_0, # of connection points: 2
#     Edge 47, Type (0, 0), BuildingBlock: EZIPEK_clean_linker_0, # of connection points: 2
#     Edge 48, Type (0, 0), BuildingBlock: EZIPEK_clean_linker_0, # of connection points: 2
#     Edge 49, Type (0, 0), BuildingBlock: EZIPEK_clean_linker_0, # of connection points: 2
#     Edge 50, Type (0, 0), BuildingBlock: EZIPEK_clean_linker_0, # of connection points: 2
#     Edge 51, Type (0, 0), BuildingBlock: EZIPEK_clean_linker_0, # of connection points: 2
#     Edge 52, Type (0, 0), BuildingBlock: EZIPEK_clean_linker_0, # of connection points: 2
#     Edge 53, Type (0, 0), BuildingBlock: EZIPEK_clean_linker_0, # of connection points: 2
#     Edge 54, Type (0, 0), BuildingBlock: EZIPEK_clean_linker_0, # of connection points: 2
#     Edge 55, Type (0, 0), BuildingBlock: EZIPEK_clean_linker_0, # of connection points: 2
# Relax obj value: 0.118
# Max RMSD: 0.131
# Mean RMSD: 0.131
data_MOF--net-zfi--node1-XOMCOT_clean_sbu_1--edge1-EZIPEK_clean_linker_0
_symmetry_space_group_name_H-M    P1
_symmetry_Int_Tables_number       1
_symmetry_cell_setting            triclinic
loop_
_symmetry_equiv_pos_as_xyz
'x, y, z'
_cell_length_a     30.002849
_cell_length_b     29.930915
_cell_length_c     35.440039
_cell_angle_alpha  90.212042
_cell_angle_beta   89.605448
_cell_angle_gamma 90.0939
loop_
_atom_site_label
_atom_site_type_symbol
_atom_site_fract_x
_atom_site_fract_y
_atom_site_fract_z
_atom_type_partial_charge
C0 C 0.65544 0.14781 0.07994 0.0
C1 C 0.67735 0.18806 0.07594 0.0
N2 N 0.69342 0.20039 0.10977 0.0
N3 N 0.65756 0.13413 0.11616 0.0
C4 C 0.68038 0.16752 0.13372 0.0
H5 H 0.642 0.12824 0.05703 0.0
Co6 Co 0.64643 0.07397 0.13122 0.0
C7 C 0.6297 0.07415 0.21489 0.0
O8 O 0.653 0.03704 0.21579 0.0
N9 N 0.63538 0.01388 0.14452 0.0
C10 C 0.63381 0.93966 0.14559 0.0
C11 C 0.65898 0.97651 0.13671 0.0
C12 C 0.59608 0.9985 0.15846 0.0
N13 N 0.59397 0.95351 0.15871 0.0
O14 O 0.58679 0.0738 0.10792 0.0
H15 H 0.69115 0.97512 0.12312 0.0
H16 H 0.56891 0.0201 0.16695 0.0
O17 O 0.62358 0.09387 0.1829 0.0
C18 C 0.58802 0.05276 0.07605 0.0
O19 O 0.62731 0.04295 0.06166 0.0
N20 N 0.70573 0.07049 0.14785 0.0
C21 C 0.79368 0.04636 0.16092 0.0
C22 C 0.7708 0.07362 0.18689 0.0
C23 C 0.72629 0.08497 0.18001 0.0
C24 C 0.73011 0.05086 0.11992 0.0
C25 C 0.77342 0.03673 0.12637 0.0
H26 H 0.70876 0.10474 0.20075 0.0
H27 H 0.71439 0.04283 0.09336 0.0
H28 H 0.69107 0.16613 0.16263 0.0
H29 H 0.6834 0.2056 0.04972 0.0
H30 H 0.64324 0.90512 0.14111 0.0
H31 H 0.7863 0.08375 0.21308 0.0
H32 H 0.79034 0.01705 0.10493 0.0
C33 C 0.37299 0.65649 0.07354 0.0
C34 C 0.33256 0.67794 0.07095 0.0
N35 N 0.32727 0.70406 0.10155 0.0
N36 N 0.39391 0.66892 0.10563 0.0
C37 C 0.36426 0.69728 0.12249 0.0
H38 H 0.38698 0.63541 0.0518 0.0
Co39 Co 0.45623 0.66051 0.1157 0.0
C40 C 0.46332 0.62964 0.19672 0.0
O41 O 0.50237 0.64917 0.19899 0.0
N42 N 0.51923 0.65327 0.12402 0.0
C43 C 0.592 0.66605 0.13279 0.0
C44 C 0.54986 0.68378 0.13552 0.0
C45 C 0.54446 0.61709 0.11504 0.0
N46 N 0.58847 0.62437 0.11904 0.0
O47 O 0.45649 0.60254 0.0895 0.0
H48 H 0.54289 0.71728 0.14509 0.0
H49 H 0.53157 0.58561 0.10513 0.0
O50 O 0.44144 0.63134 0.16558 0.0
C51 C 0.47003 0.60273 0.05494 0.0
O52 O 0.47115 0.64107 0.03701 0.0
N53 N 0.45828 0.71822 0.13669 0.0
C54 C 0.4823 0.80445 0.15713 0.0
C55 C 0.46271 0.77593 0.18372 0.0
C56 C 0.45126 0.73247 0.17297 0.0
C57 C 0.47164 0.74764 0.10963 0.0
C58 C 0.48459 0.79083 0.11934 0.0
H59 H 0.43757 0.71072 0.19406 0.0
H60 H 0.47579 0.73616 0.08084 0.0
H61 H 0.3706 0.71538 0.14828 0.0
H62 H 0.30979 0.67634 0.04741 0.0
H63 H 0.62301 0.6831 0.13884 0.0
H64 H 0.45895 0.78626 0.21289 0.0
H65 H 0.49854 0.81255 0.09789 0.0
C66 C 0.88689 0.37666 0.12037 0.0
C67 C 0.86403 0.33744 0.11382 0.0
N68 N 0.82148 0.34273 0.12536 0.0
N69 N 0.8588 0.40736 0.13505 0.0
C70 C 0.81931 0.38536 0.13845 0.0
H71 H 0.92201 0.38213 0.11516 0.0
Co72 Co 0.87246 0.46702 0.14885 0.0
C73 C 0.89789 0.4391 0.21465 0.0
O74 O 0.85458 0.4454 0.21644 0.0
N75 N 0.88596 0.52677 0.16192 0.0
C76 C 0.90411 0.59023 0.191 0.0
C77 C 0.89187 0.54618 0.19598 0.0
C78 C 0.89324 0.56014 0.13686 0.0
N79 N 0.90509 0.59876 0.15374 0.0
O80 O 0.91658 0.47439 0.10769 0.0
H81 H 0.88826 0.52952 0.2228 0.0
H82 H 0.89111 0.55602 0.10657 0.0
O83 O 0.91754 0.44579 0.18299 0.0
C84 C 0.93269 0.46496 0.07508 0.0
O85 O 0.91427 0.43364 0.05431 0.0
N86 N 0.82489 0.48741 0.12096 0.0
C87 C 0.74409 0.52331 0.09867 0.0
C88 C 0.75457 0.51974 0.13681 0.0
C89 C 0.79459 0.50107 0.14725 0.0
C90 C 0.81557 0.48936 0.08337 0.0
C91 C 0.77456 0.50717 0.07146 0.0
H92 H 0.80213 0.49812 0.17691 0.0
H93 H 0.83927 0.47724 0.06275 0.0
H94 H 0.78949 0.40027 0.15033 0.0
H95 H 0.87783 0.30694 0.10213 0.0
H96 H 0.91232 0.61402 0.21297 0.0
H97 H 0.73178 0.53141 0.15857 0.0
H98 H 0.76693 0.50882 0.04169 0.0
C99 C 0.14007 0.88368 0.08362 0.0
C100 C 0.17947 0.86109 0.07729 0.0
N101 N 0.1868 0.83405 0.10677 0.0
N102 N 0.12172 0.87055 0.11677 0.0
C103 C 0.15212 0.84125 0.13067 0.0
H104 H 0.1261 0.90768 0.06456 0.0
Co105 Co 0.06482 0.88483 0.13917 0.0
C106 C 0.09617 0.90527 0.20499 0.0
O107 O 0.08385 0.86311 0.20575 0.0
N108 N 1.01026 0.89848 0.16187 0.0
C109 C 0.94153 0.892 0.18458 0.0
C110 C 0.98082 0.86979 0.17751 0.0
C111 C 0.98922 0.93827 0.16182 0.0
N112 N 0.94691 0.93506 0.1745 0.0
O113 O 0.0524 0.93359 0.10047 0.0
H114 H 0.98659 0.83442 0.18121 0.0
H115 H 1.00375 0.96871 0.15081 0.0
O116 O 0.09336 0.92623 0.17355 0.0
C117 C 0.04398 0.93555 0.06488 0.0
O118 O 0.04373 0.89778 0.04602 0.0
N119 N 0.03618 0.83888 0.11131 0.0
C120 C 0.98316 0.76221 0.10501 0.0
C121 C 0.02583 0.76003 0.12024 0.0
C122 C 0.05134 0.79852 0.12347 0.0
C123 C 0.99527 0.84145 0.0944 0.0
C124 C 0.96864 0.80303 0.09001 0.0
H125 H 0.08056 0.7965 0.14061 0.0
H126 H 0.98067 0.87358 0.08831 0.0
H127 H 0.1481 0.82393 0.15722 0.0
H128 H 0.20062 0.8635 0.0525 0.0
H129 H 0.91081 0.87736 0.19499 0.0
H130 H 0.03796 0.72936 0.13267 0.0
H131 H 0.9355 0.80599 0.07839 0.0
C132 C 0.15244 0.87361 0.48368 0.0
C133 C 0.17551 0.83406 0.48691 0.0
N134 N 0.20227 0.82958 0.45657 0.0
N135 N 0.16445 0.89448 0.45141 0.0
C136 C 0.19437 0.86605 0.43518 0.0
H137 H 0.13078 0.88748 0.50513 0.0
Co138 Co 0.15379 0.95592 0.44106 0.0
C139 C 0.13864 0.96379 0.35723 0.0
O140 O 0.16066 1.00178 0.35785 0.0
N141 N 0.14328 0.01653 0.43246 0.0
C142 C 0.14206 0.09061 0.43578 0.0
C143 C 0.16615 0.05294 0.44405 0.0
C144 C 0.10537 0.03304 0.41759 0.0
N145 N 0.10375 0.07785 0.41943 0.0
O146 O 0.09275 0.95305 0.46155 0.0
H147 H 0.19721 0.05267 0.45914 0.0
H148 H 0.07892 1.0124 0.40635 0.0
O149 O 0.13353 0.94131 0.38803 0.0
C150 C 0.09014 0.96899 0.49529 0.0
O151 O 0.12742 0.9749 0.51395 0.0
N152 N 0.21393 0.9622 0.42631 0.0
C153 C 0.30053 0.99213 0.41618 0.0
C154 C 0.27814 0.97151 0.38635 0.0
C155 C 0.23467 0.95614 0.39215 0.0
C156 C 0.23788 0.9762 0.45664 0.0
C157 C 0.28114 0.99219 0.45213 0.0
H158 H 0.21814 0.94017 0.36897 0.0
H159 H 0.22184 0.97837 0.48402 0.0
H160 H 0.21292 0.87321 0.40975 0.0
H161 H 0.17472 0.81156 0.51074 0.0
H162 H 0.15141 0.1248 0.442 0.0
H163 H 0.29328 0.96931 0.35857 0.0
H164 H 0.2983 1.00677 0.476 0.0
C165 C 0.65915 0.13996 0.48584 0.0
C166 C 0.6994 0.1617 0.48979 0.0
N167 N 0.70308 0.19247 0.46239 0.0
N168 N 0.63692 0.15678 0.45606 0.0
C169 C 0.6652 0.18843 0.44203 0.0
H170 H 0.64608 0.11539 0.5052 0.0
Co171 Co 0.57478 0.14792 0.446 0.0
C172 C 0.62003 0.11505 0.37332 0.0
O173 O 0.66059 0.11602 0.38689 0.0
N174 N 0.51467 0.14018 0.43756 0.0
C175 C 0.44176 0.14254 0.44745 0.0
C176 C 0.48173 0.16323 0.45472 0.0
C177 C 0.4942 0.10624 0.41941 0.0
N178 N 0.44989 0.10641 0.42575 0.0
O179 O 0.57415 0.08824 0.46846 0.0
H180 H 0.48691 0.19113 0.47362 0.0
H181 H 0.51165 0.07999 0.40432 0.0
O182 O 0.5867 0.12501 0.39439 0.0
C183 C 0.55865 0.08829 0.50244 0.0
O184 O 0.55754 0.12652 0.52077 0.0
N185 N 0.57027 0.20602 0.4278 0.0
C186 C 0.5356 0.29046 0.41567 0.0
C187 C 0.53452 0.25823 0.38694 0.0
C188 C 0.55242 0.216 0.39348 0.0
C189 C 0.57413 0.23797 0.45506 0.0
C190 C 0.55829 0.28105 0.4491 0.0
H191 H 0.5474 0.19029 0.37248 0.0
H192 H 0.58629 0.22893 0.48265 0.0
H193 H 0.65709 0.21025 0.41881 0.0
H194 H 0.72325 0.15681 0.51218 0.0
H195 H 0.40949 0.15175 0.4589 0.0
H196 H 0.51679 0.26446 0.36097 0.0
H197 H 0.55933 0.30524 0.4719 0.0
C198 C 0.39161 0.65099 0.47098 0.0
C199 C 0.37013 0.69117 0.47672 0.0
N200 N 0.33958 0.69622 0.44952 0.0
N201 N 0.37444 0.62999 0.44047 0.0
C202 C 0.34371 0.6595 0.42741 0.0
H203 H 0.41622 0.63724 0.48965 0.0
Co204 Co 0.38043 0.56807 0.42705 0.0
C205 C 0.40654 0.56523 0.34425 0.0
O206 O 0.38883 0.52529 0.34117 0.0
N207 N 0.38548 0.50652 0.41473 0.0
C208 C 0.37158 0.43437 0.40365 0.0
C209 C 0.35292 0.47568 0.40935 0.0
C210 C 0.42368 0.48258 0.41203 0.0
N211 N 0.41598 0.43893 0.4057 0.0
O212 O 0.4397 0.56396 0.45009 0.0
H213 H 0.31759 0.48177 0.41042 0.0
H214 H 0.45675 0.49625 0.41569 0.0
O215 O 0.40572 0.58573 0.3763 0.0
C216 C 0.43833 0.55041 0.48451 0.0
O217 O 0.40006 0.55415 0.50248 0.0
N218 N 0.32139 0.56819 0.41025 0.0
C219 C 0.23373 0.54199 0.39991 0.0
C220 C 0.25877 0.55833 0.36937 0.0
C221 C 0.30323 0.57071 0.37504 0.0
C222 C 0.29527 0.5589 0.4408 0.0
C223 C 0.25143 0.54504 0.43625 0.0
H224 H 0.3228 0.5802 0.35094 0.0
H225 H 0.31004 0.558 0.46855 0.0
H226 H 0.32198 0.653 0.40384 0.0
H227 H 0.37481 0.71376 0.5003 0.0
H228 H 0.35398 0.403 0.40044 0.0
H229 H 0.24532 0.5578 0.34109 0.0
H230 H 0.23264 0.53369 0.46063 0.0
C231 C 0.89004 0.37009 0.4924 0.0
C232 C 0.85015 0.34776 0.49677 0.0
N233 N 0.84261 0.32379 0.46534 0.0
N234 N 0.908 0.36049 0.45824 0.0
C235 C 0.87759 0.33257 0.44223 0.0
H236 H 0.90609 0.38957 0.5141 0.0
Co237 Co 0.96842 0.37192 0.4441 0.0
C238 C 0.96889 0.39582 0.36185 0.0
O239 O 1.00673 0.37413 0.35824 0.0
N240 N 0.02836 0.38313 0.43172 0.0
C241 C 0.10242 0.38297 0.42992 0.0
C242 C 0.06503 0.35844 0.43872 0.0
C243 C 0.04453 0.42256 0.41889 0.0
N244 N 0.08937 0.42336 0.41768 0.0
O245 O 0.96827 0.43018 0.46928 0.0
H246 H 0.06525 0.32561 0.45112 0.0
H247 H 0.02372 0.45064 0.41146 0.0
O248 O 0.94929 0.39779 0.39435 0.0
C249 C 0.98783 0.42771 0.5014 0.0
O250 O 0.99577 0.38782 0.5152 0.0
N251 N 0.97216 0.31369 0.42449 0.0
C252 C 0.99538 0.22642 0.40773 0.0
C253 C 0.97374 0.25232 0.38075 0.0
C254 C 0.96208 0.29621 0.38983 0.0
C255 C 0.98764 0.28669 0.45225 0.0
C256 C 1.00032 0.24306 0.44434 0.0
H257 H 0.9451 0.3154 0.36887 0.0
H258 H 0.99299 0.30028 0.48018 0.0
H259 H 0.88211 0.31612 0.41537 0.0
H260 H 0.82947 0.34712 0.5219 0.0
H261 H 0.13669 0.37242 0.43305 0.0
H262 H 0.96773 0.23938 0.35266 0.0
H263 H 0.01572 0.22317 0.46615 0.0
C264 C 0.37171 0.88261 0.99227 0.0
C265 C 0.35095 0.84183 0.99703 0.0
N266 N 0.32754 0.83271 0.96575 0.0
N267 N 0.36157 0.89945 0.95804 0.0
C268 C 0.33507 0.86755 0.94241 0.0
H269 H 0.39062 0.8999 1.01363 0.0
Co270 Co 0.37086 0.95969 0.94263 0.0
C271 C 0.38625 0.95666 0.8586 0.0
O272 O 0.36069 0.99211 0.85581 0.0
N273 N 0.38018 0.01939 0.92853 0.0
C274 C 0.38098 0.09363 0.92672 0.0
C275 C 0.3573 0.05672 0.93803 0.0
C276 C 0.41771 0.03477 0.9116 0.0
N277 N 0.41911 0.07964 0.91054 0.0
O278 O 0.43119 0.96128 0.96395 0.0
H279 H 0.32691 0.058 0.95435 0.0
H280 H 0.44456 0.01347 0.90181 0.0
O281 O 0.39302 0.93937 0.8914 0.0
C282 C 0.43151 0.98084 0.99641 0.0
O283 O 0.39299 0.98806 1.01322 0.0
N284 N 0.31099 0.96232 0.92736 0.0
C285 C 0.22387 0.98982 0.91569 0.0
C286 C 0.24523 0.9621 0.88916 0.0
C287 C 0.28943 0.94918 0.89527 0.0
C288 C 0.2877 0.98194 0.95596 0.0
C289 C 0.24491 0.9979 0.95019 0.0
H290 H 0.30602 0.9295 0.87392 0.0
H291 H 0.30424 0.98911 0.98233 0.0
H292 H 0.31881 0.87067 0.91558 0.0
H293 H 0.35105 0.82155 1.02223 0.0
H294 H 0.37198 0.1282 0.93157 0.0
H295 H 0.22904 0.95322 0.86295 0.0
H296 H 0.22915 0.01795 0.97199 0.0
C297 C 0.61557 0.33675 0.98817 0.0
C298 C 0.65392 0.31263 0.99267 0.0
N299 N 0.67743 0.31461 0.96043 0.0
N300 N 0.61462 0.35548 0.95354 0.0
C301 C 0.65298 0.34064 0.93697 0.0
H302 H 0.58746 0.3356 1.00735 0.0
Co303 Co 0.55795 0.37392 0.93584 0.0
C304 C 0.61076 0.41118 0.86698 0.0
O305 O 0.64489 0.42845 0.88488 0.0
N306 N 0.5013 0.38937 0.92 0.0
C307 C 0.43729 0.39658 0.88934 0.0
C308 C 0.48056 0.3812 0.88695 0.0
C309 C 0.47038 0.40961 0.94169 0.0
N310 N 0.43135 0.41446 0.92392 0.0
O311 O 0.56364 0.43531 0.9567 0.0
H312 H 0.49568 0.36459 0.86292 0.0
H313 H 0.47589 0.42002 0.97021 0.0
O314 O 0.57957 0.39182 0.88539 0.0
C315 C 0.56062 0.44448 0.99217 0.0
O316 O 0.5719 0.41416 1.01684 0.0
N317 N 0.54867 0.31613 0.91884 0.0
C318 C 0.52295 0.23028 0.89986 0.0
C319 C 0.55307 0.25338 0.87679 0.0
C320 C 0.56563 0.29674 0.88685 0.0
C321 C 0.52064 0.29331 0.94211 0.0
C322 C 0.50716 0.25024 0.93306 0.0
H323 H 0.58866 0.31441 0.86886 0.0
H324 H 0.50799 0.30926 0.96744 0.0
H325 H 0.66065 0.34451 0.90745 0.0
H326 H 0.66197 0.29164 1.01647 0.0
H327 H 0.41223 0.39496 0.86755 0.0
H328 H 0.56617 0.23826 0.85122 0.0
H329 H 0.48409 0.2328 0.95152 0.0
C330 C 0.14888 0.64737 0.99052 0.0
C331 C 0.17274 0.68658 0.99329 0.0
N332 N 0.20099 0.68923 0.96371 0.0
N333 N 0.16218 0.62454 0.95945 0.0
C334 C 0.19312 0.65177 0.94305 0.0
H335 H 0.12489 0.63577 1.01107 0.0
Co336 Co 0.14716 0.56484 0.94483 0.0
C337 C 0.12941 0.59076 0.87391 0.0
O338 O 0.17224 0.58181 0.87309 0.0
N339 N 0.13107 0.50689 0.92841 0.0
C340 C 0.13221 0.44048 0.89992 0.0
C341 C 0.15069 0.48275 0.90069 0.0
C342 C 0.10009 0.47891 0.94327 0.0
N343 N 0.10119 0.438 0.92752 0.0
O344 O 0.09654 0.56262 0.98189 0.0
H345 H 0.17826 0.49427 0.8835 0.0
H346 H 0.07954 0.48643 0.96749 0.0
O347 O 0.10868 0.58839 0.90563 0.0
C348 C 0.09334 0.5518 1.01687 0.0
O349 O 0.13016 0.54245 0.03489 0.0
N350 N 0.1907 0.53969 0.98031 0.0
C351 C 0.27336 0.49831 0.98283 0.0
C352 C 0.27003 0.54418 0.98955 0.0
C353 C 0.22797 0.56414 0.98893 0.0
C354 C 0.19333 0.49428 0.9851 0.0
C355 C 0.23451 0.47267 0.98434 0.0
H356 H 0.2267 0.59949 0.99295 0.0
H357 H 0.16414 0.47365 0.9862 0.0
H358 H 0.21168 0.64294 0.91784 0.0
H359 H 0.17043 0.71089 1.01592 0.0
H360 H 0.14287 0.41281 0.8823 0.0
H361 H 0.29962 0.56484 0.99151 0.0
H362 H 0.23582 0.43659 0.98215 0.0
C363 C 0.85993 0.12746 0.95295 0.0
C364 C 0.81888 0.14728 0.95908 0.0
N365 N 0.82147 0.19005 0.94773 0.0
N366 N 0.88868 0.15779 0.93847 0.0
C367 C 0.86358 0.19534 0.93493 0.0
H368 H 0.86795 0.09283 0.9581 0.0
Co369 Co 0.94883 0.14854 0.92256 0.0
C370 C 0.92787 0.1242 0.85561 0.0
O371 O 0.93624 0.16724 0.85547 0.0
N372 N 1.00764 0.13944 0.90648 0.0
C373 C 0.07911 0.14803 0.89127 0.0
C374 C 0.03871 0.16929 0.89505 0.0
C375 C 0.02955 0.10012 0.90789 0.0
N376 N 0.07313 0.10457 0.89953 0.0
O377 O 0.96129 0.10379 0.9634 0.0
H378 H 0.03306 0.20451 0.89083 0.0
H379 H 0.01427 0.06888 0.91627 0.0
O380 O 0.92959 0.10335 0.88713 0.0
C381 C 0.9531 0.09084 0.99729 0.0
O382 O 0.92277 0.11179 1.01753 0.0
N383 N 0.96778 0.19717 0.95122 0.0
C384 C 1.01058 0.27773 0.9663 0.0
C385 C 0.98223 0.27348 0.93556 0.0
C386 C 0.96165 0.23313 0.92847 0.0
C387 C 0.99362 0.20055 0.98269 0.0
C388 C 0.01493 0.2414 0.99124 0.0
H389 H 0.94435 0.22925 0.90213 0.0
H390 H 1.00053 0.17143 0.99953 0.0
H391 H 0.875 0.22617 0.92258 0.0
H392 H 0.78928 0.13142 0.97046 0.0
H393 H 0.11065 0.16335 0.88379 0.0
H394 H 0.9785 0.30034 0.91539 0.0
H395 H 0.0369 0.24367 1.01528 0.0
C396 C 0.86866 0.13652 0.5728 0.0
C397 C 0.84843 0.1774 0.5676 0.0
N398 N 0.82593 0.18801 0.59931 0.0
N399 N 0.85914 0.12115 0.60774 0.0
C400 C 0.83343 0.15386 0.62332 0.0
H401 H 0.88579 0.11766 0.55112 0.0
Co402 Co 0.86513 0.06084 0.62356 0.0
C403 C 0.89362 0.06147 0.70518 0.0
O404 O 0.87626 0.02161 0.70962 0.0
N405 N 0.86974 0.99996 0.63813 0.0
C406 C 0.8548 0.93001 0.65596 0.0
C407 C 0.83681 0.97067 0.64715 0.0
C408 C 0.9075 0.97556 0.64147 0.0
N409 N 0.89914 0.93304 0.65164 0.0
O410 O 0.92469 0.05617 0.59996 0.0
H411 H 0.80163 0.97752 0.6475 0.0
H412 H 0.94073 0.98823 0.63624 0.0
O413 O 0.89132 0.08112 0.67295 0.0
C414 C 0.92601 0.03538 0.56812 0.0
O415 O 0.88807 0.02531 0.55181 0.0
N416 N 0.80646 0.06299 0.64215 0.0
C417 C 0.7197 0.04027 0.6607 0.0
C418 C 0.74728 0.05969 0.68785 0.0
C419 C 0.7911 0.0704 0.67805 0.0
C420 C 0.77772 0.05098 0.6143 0.0
C421 C 0.73412 0.03871 0.62306 0.0
H422 H 0.81239 0.08266 0.69983 0.0
H423 H 0.79013 0.04656 0.5858 0.0
H424 H 0.81679 0.15104 0.65032 0.0
H425 H 0.84746 0.19624 0.54161 0.0
H426 H 0.83669 0.89995 0.66342 0.0
H427 H 0.73627 0.06286 0.71691 0.0
H428 H 0.71301 0.02501 0.60119 0.0
C429 C 0.3839 0.8611 0.57761 0.0
C430 C 0.3437 0.83914 0.57435 0.0
N431 N 0.33058 0.82596 0.60892 0.0
N432 N 0.3965 0.86182 0.61411 0.0
C433 C 0.36251 0.84108 0.63262 0.0
H434 H 0.40434 0.87202 0.55421 0.0
Co435 Co 0.45594 0.87167 0.62989 0.0
C436 C 0.45305 0.88616 0.71417 0.0
O437 O 0.49066 0.86392 0.71629 0.0
N438 N 0.51541 0.88163 0.64444 0.0
C439 C 0.58943 0.88394 0.64531 0.0
C440 C 0.55292 0.85867 0.63584 0.0
C441 C 0.53033 0.92034 0.65975 0.0
N442 N 0.5751 0.92305 0.65969 0.0
O443 O 0.45704 0.93217 0.60845 0.0
H444 H 0.55455 0.82724 0.62101 0.0
H445 H 0.50865 0.94697 0.66919 0.0
O446 O 0.43479 0.89218 0.68163 0.0
C447 C 0.47788 0.93147 0.57648 0.0
O448 O 0.48601 0.89238 0.56093 0.0
N449 N 0.45866 0.81175 0.64454 0.0
C450 C 0.4804 0.72279 0.65558 0.0
C451 C 0.45326 0.74521 0.68187 0.0
C452 C 0.44265 0.79016 0.6757 0.0
C453 C 0.47861 0.78814 0.61629 0.0
C454 C 0.49115 0.74404 0.62164 0.0
H455 H 0.42167 0.80721 0.69574 0.0
H456 H 0.48764 0.8048 0.59031 0.0
H457 H 0.36286 0.83339 0.66235 0.0
H458 H 0.32717 0.83034 0.54827 0.0
H459 H 0.62398 0.87528 0.64018 0.0
H460 H 0.44224 0.72883 0.70748 0.0
H461 H 0.51056 0.72722 0.59997 0.0
C462 C 0.64729 0.37484 0.57776 0.0
C463 C 0.66971 0.33517 0.57242 0.0
N464 N 0.69576 0.3281 0.6025 0.0
N465 N 0.65871 0.39295 0.6113 0.0
C466 C 0.68807 0.36314 0.62592 0.0
H467 H 0.62622 0.3907 0.55717 0.0
Co468 Co 0.64596 0.45269 0.62601 0.0
C469 C 0.62087 0.45196 0.70882 0.0
O470 O 0.63775 0.49232 0.71163 0.0
N471 N 0.63379 0.51258 0.63925 0.0
C472 C 0.63677 0.58663 0.64461 0.0
C473 C 0.66081 0.5487 0.63673 0.0
C474 C 0.59344 0.52965 0.64871 0.0
N475 N 0.5945 0.57446 0.65186 0.0
O476 O 0.58734 0.45023 0.60054 0.0
H477 H 0.69538 0.54834 0.62828 0.0
H478 H 0.56351 0.50979 0.65205 0.0
O479 O 0.62132 0.43166 0.67654 0.0
C480 C 0.58742 0.47538 0.57109 0.0
O481 O 0.62484 0.49648 0.5634 0.0
N482 N 0.70433 0.45799 0.64445 0.0
C483 C 0.79118 0.4849 0.65798 0.0
C484 C 0.76573 0.46584 0.68698 0.0
C485 C 0.72205 0.4523 0.67956 0.0
C486 C 0.73089 0.47098 0.61514 0.0
C487 C 0.77433 0.48532 0.62134 0.0
H488 H 0.70315 0.43807 0.70226 0.0
H489 H 0.71691 0.47352 0.58718 0.0
H490 H 0.70602 0.36829 0.6519 0.0
H491 H 0.66864 0.31412 0.5476 0.0
H492 H 0.64892 0.6207 0.6438 0.0
H493 H 0.77869 0.46364 0.71536 0.0
H494 H 0.7937 0.49889 0.59814 0.0
C495 C 0.15706 0.63278 0.60463 0.0
C496 C 0.19644 0.65599 0.60037 0.0
N497 N 0.19531 0.69174 0.62339 0.0
N498 N 0.13062 0.65371 0.63018 0.0
C499 C 0.15567 0.68917 0.6417 0.0
H500 H 0.1478 0.60382 0.58825 0.0
Co501 Co 0.06849 0.64277 0.63876 0.0
C502 C 0.05958 0.62248 0.72321 0.0
O503 O 0.01812 0.63651 0.72384 0.0
N504 N 1.00773 0.63223 0.64544 0.0
C505 C 0.93512 0.63298 0.63373 0.0
C506 C 0.97469 0.65544 0.62902 0.0
C507 C 0.98758 0.59517 0.6592 0.0
N508 N 0.94345 0.59498 0.6525 0.0
O509 O 0.07195 0.58214 0.61859 0.0
H510 H 0.97955 0.68446 0.61159 0.0
H511 H 1.00521 0.56794 0.67243 0.0
O512 O 0.08204 0.62299 0.69201 0.0
C513 C 0.06052 0.58198 0.58365 0.0
O514 O 0.0613 0.62015 0.56543 0.0
N515 N 0.06076 0.70302 0.65259 0.0
C516 C 0.02316 0.78748 0.65544 0.0
C517 C 0.03211 0.76443 0.68882 0.0
C518 C 0.05202 0.72234 0.68684 0.0
C519 C 0.05735 0.72751 0.62039 0.0
C520 C 0.0389 0.77014 0.62116 0.0
H521 H 0.05814 0.70542 0.7128 0.0
H522 H 0.06524 0.71215 0.5935 0.0
H523 H 0.14426 0.71446 0.66135 0.0
H524 H 0.22305 0.64841 0.58059 0.0
H525 H 0.90299 0.64266 0.62274 0.0
H526 H 0.02136 0.77759 0.7159 0.0
H527 H 0.03304 0.7875 0.59489 0.0
C528 C 0.51632 0.92488 0.14925 0.0
C529 C 0.55754 0.92423 0.16893 0.0
C530 C 0.5432 0.84782 0.18965 0.0
C531 C 0.50331 0.84742 0.16825 0.0
N532 N 0.44451 0.88918 0.13924 0.0
N533 N 0.60009 0.89332 0.21934 0.0
C534 C 0.48729 0.88744 0.15213 0.0
C535 C 0.56707 0.88844 0.19338 0.0
N536 N 0.50594 0.95947 0.12602 0.0
N537 N 0.56044 0.80912 0.20371 0.0
H538 H 0.6175 0.92337 0.22237 0.0
H539 H 0.60664 0.86971 0.24011 0.0
H540 H 0.54508 0.77809 0.20088 0.0
H541 H 0.59199 0.80723 0.21569 0.0
H542 H 0.47937 0.95868 0.10727 0.0
H543 H 0.52489 0.98832 0.12391 0.0
H544 H 0.42936 0.91845 0.1301 0.0
H545 H 0.42276 0.86202 0.14134 0.0
C546 C 0.66197 0.52334 0.10499 0.0
C547 C 0.70047 0.54394 0.08961 0.0
C548 C 0.65798 0.6129 0.08197 0.0
C549 C 0.62434 0.59572 0.10633 0.0
N550 N 0.59705 0.53466 0.14443 0.0
N551 N 0.7357 0.60959 0.06355 0.0
C552 C 0.62644 0.55055 0.11814 0.0
C553 C 0.69847 0.58891 0.07738 0.0
N554 N 0.66075 0.47799 0.10873 0.0
N555 N 0.65084 0.65157 0.06267 0.0
H556 H 0.76571 0.59291 0.05893 0.0
H557 H 0.73734 0.64387 0.05868 0.0
H558 H 0.62052 0.66852 0.0638 0.0
H559 H 0.67284 0.66368 0.04225 0.0
H560 H 0.63229 0.46067 0.11729 0.0
H561 H 0.68701 0.45778 0.09943 0.0
H562 H 0.59969 0.50304 0.1564 0.0
H563 H 0.57304 0.55468 0.15737 0.0
C564 C 0.91781 0.72179 0.13553 0.0
C565 C 0.95388 0.72206 0.10917 0.0
C566 C 0.95603 0.64036 0.11072 0.0
C567 C 0.91906 0.63987 0.13585 0.0
N568 N 0.85689 0.67919 0.16302 0.0
N569 N 0.99731 0.68148 0.06318 0.0
C570 C 0.8973 0.6804 0.14515 0.0
C571 C 0.96917 0.68115 0.09363 0.0
N572 N 0.90502 0.76021 0.15345 0.0
N573 N 0.9812 0.60292 0.1057 0.0
H574 H 1.00729 0.71114 0.05017 0.0
H575 H 1.00676 0.65254 0.04877 0.0
H576 H 0.97486 0.57307 0.11977 0.0
H577 H 0.0114 0.60335 0.09109 0.0
H578 H 0.88258 0.76063 0.17602 0.0
H579 H 0.91908 0.79131 0.14788 0.0
H580 H 0.83748 0.70754 0.16767 0.0
H581 H 0.84088 0.64918 0.16954 0.0
C582 C 0.88436 0.97454 0.20548 0.0
C583 C 0.91273 0.96894 0.17376 0.0
C584 C 0.87216 0.02845 0.14194 0.0
C585 C 0.83768 0.02568 0.1694 0.0
N586 N 0.80871 0.98831 0.22525 0.0
N587 N 0.92637 0.98496 0.10762 0.0
C588 C 0.84322 0.99708 0.20104 0.0
C589 C 0.90526 0.9948 0.14086 0.0
N590 N 0.89674 0.95843 0.23979 0.0
N591 N 0.87268 0.06248 0.1164 0.0
H592 H 0.94658 0.95705 0.10391 0.0
H593 H 0.91901 1.00117 0.08243 0.0
H594 H 0.84925 0.08823 0.11718 0.0
H595 H 0.89898 0.06741 0.09746 0.0
H596 H 0.8785 0.96459 0.26441 0.0
H597 H 0.92774 0.94362 0.24413 0.0
H598 H 0.81079 0.96433 0.24643 0.0
H599 H 0.77672 1.00099 0.22195 0.0
C600 C 0.05722 0.18119 0.37928 0.0
C601 C 0.01548 0.18279 0.39829 0.0
C602 C 0.02625 0.10734 0.42235 0.0
C603 C 0.0696 0.10733 0.40596 0.0
N604 N 0.11864 0.1348 0.35775 0.0
N605 N 0.95391 0.14365 0.42646 0.0
C606 C 0.08221 0.14116 0.38039 0.0
C607 C 0.99773 0.14421 0.4157 0.0
N608 N 0.07454 0.21864 0.36277 0.0
N609 N 0.01339 0.07389 0.44606 0.0
H610 H 0.93276 0.17066 0.42153 0.0
H611 H 0.93763 0.11543 0.43675 0.0
H612 H 0.03253 0.04565 0.45067 0.0
H613 H 0.98444 0.07486 0.46238 0.0
H614 H 0.10715 0.22065 0.35264 0.0
H615 H 0.05724 0.2487 0.36103 0.0
H616 H 0.12787 0.15666 0.33626 0.0
H617 H 0.13677 0.10504 0.35812 0.0
C618 C 0.38254 0.99999 0.42507 0.0
C619 C 0.34254 0.01702 0.40996 0.0
C620 C 0.38052 0.08678 0.39376 0.0
C621 C 0.41743 0.0732 0.41536 0.0
N622 N 0.4539 0.01703 0.45289 0.0
N623 N 0.30188 0.07764 0.38131 0.0
C624 C 0.41903 0.02946 0.43079 0.0
C625 C 0.34121 0.06045 0.394 0.0
N626 N 0.38531 0.95572 0.43408 0.0
N627 N 0.3834 0.12516 0.37319 0.0
H628 H 0.27217 0.05956 0.38089 0.0
H629 H 0.29795 0.11092 0.37358 0.0
H630 H 0.41235 0.14456 0.3725 0.0
H631 H 0.35915 0.13523 0.35414 0.0
H632 H 0.41477 0.94017 0.44208 0.0
H633 H 0.35883 0.93358 0.43006 0.0
H634 H 0.45436 0.9877 0.46858 0.0
H635 H 0.48142 0.03729 0.45757 0.0
C636 C 0.47005 0.33434 0.4394 0.0
C637 C 0.50629 0.33025 0.41356 0.0
C638 C 0.48081 0.39725 0.38068 0.0
C639 C 0.44773 0.40338 0.40884 0.0
N640 N 0.41862 0.38479 0.47021 0.0
N641 N 0.55083 0.36203 0.36341 0.0
C642 C 0.44483 0.37409 0.43987 0.0
C643 C 0.51316 0.36305 0.38525 0.0
N644 N 0.45789 0.29941 0.46199 0.0
N645 N 0.48007 0.42299 0.34901 0.0
H646 H 0.57541 0.33771 0.36646 0.0
H647 H 0.55949 0.38737 0.34467 0.0
H648 H 0.45578 0.44732 0.34479 0.0
H649 H 0.50083 0.4176 0.32577 0.0
H650 H 0.42906 0.29961 0.47857 0.0
H651 H 0.47354 0.26841 0.46106 0.0
H652 H 0.41874 0.36664 0.49526 0.0
H653 H 0.40045 0.4144 0.47179 0.0
C654 C 0.15121 0.44904 0.37783 0.0
C655 C 0.1185 0.4589 0.40542 0.0
C656 C 0.15292 0.53229 0.4149 0.0
C657 C 0.19109 0.51747 0.39473 0.0
N658 N 0.22802 0.45835 0.35936 0.0
N659 N 0.0886 0.51043 0.45178 0.0
C660 C 0.19045 0.4753 0.37605 0.0
C661 C 0.11876 0.50111 0.42389 0.0
N662 N 0.14472 0.41405 0.35368 0.0
N663 N 0.1499 0.57596 0.42593 0.0
H664 H 0.06312 0.48872 0.45937 0.0
H665 H 0.0908 0.53841 0.46924 0.0
H666 H 0.17457 0.59938 0.41932 0.0
H667 H 0.12129 0.58968 0.43808 0.0
H668 H 0.1658 0.40732 0.33087 0.0
H669 H 0.11549 0.39506 0.35417 0.0
H670 H 0.23006 0.42564 0.34934 0.0
H671 H 0.25838 0.47513 0.35828 0.0
C672 C 0.49524 0.11116 0.91716 0.0
C673 C 0.45432 0.10835 0.89736 0.0
C674 C 0.46859 0.18027 0.86734 0.0
C675 C 0.50682 0.18512 0.8902 0.0
N676 N 0.56492 0.15124 0.92634 0.0
N677 N 0.40993 0.13093 0.84496 0.0
C678 C 0.52319 0.14879 0.91127 0.0
C679 C 0.44403 0.13982 0.86916 0.0
N680 N 0.50579 0.07982 0.94344 0.0
N681 N 0.45424 0.21533 0.84607 0.0
H682 H 0.39194 0.10106 0.8463 0.0
H683 H 0.40225 0.1508 0.82187 0.0
H684 H 0.47234 0.24494 0.84343 0.0
H685 H 0.42376 0.21579 0.83221 0.0
H686 H 0.53225 0.08295 0.9621 0.0
H687 H 0.48708 0.05107 0.9477 0.0
H688 H 0.58061 0.12466 0.93964 0.0
H689 H 0.5855 0.179 0.92234 0.0
C690 C 0.37187 0.41922 0.97249 0.0
C691 C 0.39215 0.43579 0.93909 0.0
C692 C 0.33354 0.49173 0.93353 0.0
C693 C 0.31572 0.47825 0.96903 0.0
N694 N 0.32328 0.43494 1.02583 0.0
N695 N 0.39921 0.49501 0.89372 0.0
C696 C 0.33656 0.4437 0.98966 0.0
C697 C 0.37504 0.47424 0.92134 0.0
N698 N 0.38506 0.37912 0.9868 0.0
N699 N 0.30997 0.51939 0.91043 0.0
H700 H 0.43066 0.484 0.88515 0.0
H701 H 0.3902 0.52575 0.88236 0.0
H702 H 0.27831 0.53147 0.91708 0.0
H703 H 0.31986 0.5265 0.88285 0.0
H704 H 0.36879 0.36337 1.00916 0.0
H705 H 0.40947 0.35946 0.97388 0.0
H706 H 0.34017 0.41305 0.04346 0.0
H707 H 0.2979 0.45279 0.03934 0.0
C708 C 0.01415 0.36069 0.96866 0.0
C709 C 0.03751 0.31955 0.9683 0.0
C710 C 0.10566 0.36018 0.95149 0.0
C711 C 0.07993 0.39849 0.94274 0.0
N712 N 1.00752 0.43322 0.93945 0.0
N713 N 0.10612 0.2797 0.95499 0.0
C714 C 0.03357 0.39852 0.95091 0.0
C715 C 0.08365 0.3191 0.959 0.0
N716 N 0.97279 0.36291 0.98483 0.0
N717 N 0.15092 0.36327 0.95403 0.0
H718 H 0.0917 0.24859 0.95988 0.0
H719 H 0.13839 0.27797 0.94399 0.0
H720 H 0.16789 0.39353 0.95162 0.0
H721 H 0.17074 0.33695 0.96324 0.0
H722 H 0.95548 0.39279 0.98848 0.0
H723 H 0.95814 0.33534 0.99802 0.0
H724 H 0.97291 0.43317 0.94204 0.0
H725 H 0.01993 0.45986 0.92369 0.0
C726 C 0.17692 0.04147 0.8757 0.0
C727 C 0.18102 0.01288 0.90752 0.0
C728 C 0.11321 0.04535 0.93466 0.0
C729 C 0.10715 0.07077 0.90136 0.0
N730 N 0.12555 0.08144 0.83586 0.0
N731 N 0.14528 0.97849 0.96131 0.0
C732 C 0.13646 0.06483 0.87037 0.0
C733 C 0.14628 1.01158 0.93489 0.0
N734 N 0.21233 0.04953 0.85223 0.0
N735 N 0.09002 0.05543 0.96685 0.0
H736 H 0.16793 0.95205 0.96103 0.0
H737 H 0.11962 0.97508 0.98101 0.0
H738 H 0.06829 0.08242 0.96898 0.0
H739 H 0.09635 0.04025 0.99268 0.0
H740 H 0.21136 0.07338 0.83089 0.0
H741 H 0.24406 0.03658 0.85646 0.0
H742 H 0.14434 0.07493 0.8116 0.0
H743 H 0.09517 0.09722 0.83091 0.0
C744 C 1.0011 0.86573 0.67485 0.0
C745 C 0.99141 0.82542 0.65545 0.0
C746 C 0.92375 0.85868 0.6301 0.0
C747 C 0.93054 0.89689 0.65289 0.0
N748 N 0.96977 0.93199 0.70395 0.0
N749 N 0.93581 0.77955 0.6248 0.0
C750 C 0.96771 0.89921 0.67724 0.0
C751 C 0.95047 0.82068 0.63596 0.0
N752 N 0.04216 0.87245 0.69027 0.0
N753 N 0.89273 0.85893 0.6021 0.0
H754 H 0.95257 0.75034 0.63162 0.0
H755 H 0.90436 0.77415 0.61329 0.0
H756 H 0.87385 0.88701 0.59557 0.0
H757 H 0.88958 0.83297 0.5826 0.0
H758 H 0.05205 0.90298 0.70174 0.0
H759 H 0.06759 0.84879 0.68853 0.0
H760 H 0.99426 0.93319 0.72463 0.0
H761 H 0.94393 0.95479 0.70789 0.0
C762 C 0.67886 0.97646 0.69159 0.0
C763 C 0.6777 0.01734 0.67131 0.0
C764 C 0.60136 1.0019 0.65155 0.0
C765 C 0.60349 0.95992 0.67027 0.0
N766 N 0.63579 0.91629 0.71947 0.0
N767 N 0.63405 0.07561 0.64346 0.0
C768 C 0.63941 0.95069 0.69448 0.0
C769 C 0.63738 0.03238 0.65538 0.0
N770 N 0.71804 0.96021 0.70538 0.0
N771 N 0.56684 1.01172 0.62823 0.0
H772 H 0.66027 0.09838 0.64615 0.0
H773 H 0.60434 0.08996 0.63456 0.0
H774 H 0.53897 0.99162 0.62534 0.0
H775 H 0.5668 0.03904 0.61011 0.0
H776 H 0.7212 0.92811 0.71629 0.0
H777 H 0.74829 0.9771 0.70347 0.0
H778 H 0.65946 0.90984 0.74012 0.0
H779 H 0.6066 0.89742 0.72192 0.0
C780 C 0.5244 0.60983 0.63094 0.0
C781 C 0.55797 0.60454 0.65843 0.0
C782 C 0.53363 0.67271 0.69045 0.0
C783 C 0.49984 0.67805 0.66283 0.0
N784 N 0.45419 0.64443 0.61484 0.0
N785 N 0.58585 0.62199 0.71993 0.0
C786 C 0.49194 0.64366 0.6361 0.0
C787 C 0.55928 0.63293 0.69028 0.0
N788 N 0.52578 0.58541 0.59838 0.0
N789 N 0.54394 0.70673 0.71471 0.0
H790 H 0.60479 0.59274 0.72007 0.0
H791 H 0.58556 0.63932 0.74548 0.0
H792 H 0.52698 0.737 0.71561 0.0
H793 H 0.57171 0.70618 0.73218 0.0
H794 H 0.50467 0.59106 0.57567 0.0
H795 H 0.55087 0.56241 0.59258 0.0
H796 H 0.44496 0.61838 0.59691 0.0
H797 H 0.4301 0.66925 0.61814 0.0
C798 C 0.91142 0.51863 0.64577 0.0
C799 C 0.91067 0.5618 0.6625 0.0
C800 C 0.83371 0.55062 0.68326 0.0
C801 C 0.8339 0.50792 0.66564 0.0
N802 N 0.8753 0.44625 0.63956 0.0
N803 N 0.87784 0.61232 0.70724 0.0
C804 C 0.87378 0.49018 0.65017 0.0
C805 C 0.87394 0.57536 0.68482 0.0
N806 N 0.94677 0.50583 0.62392 0.0
N807 N 0.79471 0.56899 0.69605 0.0
H808 H 0.90754 0.63043 0.70897 0.0
H809 H 0.85359 0.62208 0.72676 0.0
H810 H 0.76415 0.55247 0.69514 0.0
H811 H 0.79202 0.60206 0.70502 0.0
H812 H 0.94696 0.47711 0.60725 0.0
H813 H 0.97533 0.52513 0.62089 0.0
H814 H 0.90438 0.43007 0.63102 0.0
H815 H 0.84801 0.42486 0.64267 0.0
C816 C 0.76703 0.22921 0.1322 0.0
C817 C 0.72426 0.23716 0.11663 0.0
C818 C 0.74613 0.31553 0.10548 0.0
C819 C 0.7869 0.30852 0.12474 0.0
N820 N 0.82974 0.26118 0.16549 0.0
N821 N 0.66986 0.29078 0.09633 0.0
C822 C 0.79527 0.26608 0.14095 0.0
C823 C 0.71284 0.28131 0.10568 0.0
N824 N 0.78215 0.18653 0.13632 0.0
N825 N 0.73999 0.35373 0.08527 0.0
H826 H 0.64459 0.26683 0.09744 0.0
H827 H 0.65861 0.32311 0.09124 0.0
H828 H 0.76428 0.3785 0.08297 0.0
H829 H 0.71269 0.35868 0.06775 0.0
H830 H 0.81459 0.17914 0.14456 0.0
H831 H 0.76433 0.15869 0.12715 0.0
H832 H 0.83517 0.23186 0.18056 0.0
H833 H 0.84956 0.28802 0.17397 0.0
C834 C 0.30217 0.78345 0.1071 0.0
C835 C 0.29218 0.73697 0.10696 0.0
C836 C 0.21205 0.75478 0.10625 0.0
C837 C 0.22203 0.80101 0.10942 0.0
N838 N 0.27599 0.85892 0.11976 0.0
N839 N 0.23788 0.67844 0.11364 0.0
C840 C 0.26702 0.81512 0.11207 0.0
C841 C 0.24708 0.72273 0.10879 0.0
N842 N 0.34476 0.7975 0.10015 0.0
N843 N 0.16944 0.74159 0.09873 0.0
H844 H 0.26293 0.65453 0.11631 0.0
H845 H 0.2059 0.66611 0.1186 0.0
H846 H 0.14337 0.76419 0.09547 0.0
H847 H 0.16072 0.70875 0.0923 0.0
H848 H 0.35342 0.8309 0.0964 0.0
H849 H 0.37087 0.7756 0.09435 0.0
H850 H 0.30782 0.87089 0.12564 0.0
H851 H 0.25079 0.88251 0.12368 0.0
C852 C 0.31617 0.77571 0.44646 0.0
C853 C 0.30471 0.72981 0.44879 0.0
C854 C 0.22536 0.75046 0.44981 0.0
C855 C 0.237 0.7963 0.45185 0.0
N856 N 0.29429 0.85196 0.46038 0.0
N857 N 0.24829 0.67426 0.46154 0.0
C858 C 0.28269 0.80888 0.45225 0.0
C859 C 0.25918 0.71728 0.45267 0.0
N860 N 0.35901 0.78755 0.43799 0.0
N861 N 0.18186 0.7387 0.44462 0.0
H862 H 0.27216 0.64981 0.46656 0.0
H863 H 0.21594 0.66406 0.46806 0.0
H864 H 0.1566 0.76238 0.4419 0.0
H865 H 0.17165 0.70598 0.43939 0.0
H866 H 0.3687 0.82034 0.43246 0.0
H867 H 0.38391 0.76394 0.43294 0.0
H868 H 0.32708 0.86206 0.46485 0.0
H869 H 0.27092 0.87667 0.46658 0.0
C870 C 0.76255 0.30464 0.46014 0.0
C871 C 0.80765 0.29075 0.46057 0.0
C872 C 0.78299 0.21259 0.45489 0.0
C873 C 0.73795 0.22609 0.45937 0.0
N874 N 0.68564 0.28503 0.47321 0.0
N875 N 0.86086 0.2308 0.46475 0.0
C876 C 0.72783 0.27225 0.46355 0.0
C877 C 0.81797 0.24447 0.45943 0.0
N878 N 0.7531 0.34897 0.45625 0.0
N879 N 0.79219 0.1693 0.44547 0.0
H880 H 0.88704 0.25299 0.46947 0.0
H881 H 0.86975 0.19743 0.46811 0.0
H882 H 0.76716 0.14565 0.44108 0.0
H883 H 0.82403 0.15809 0.43841 0.0
H884 H 0.72102 0.36119 0.45218 0.0
H885 H 0.77802 0.37313 0.45352 0.0
H886 H 0.67669 0.31793 0.47907 0.0
H887 H 0.66054 0.26212 0.47933 0.0
C888 C 0.28028 0.71582 0.95959 0.0
C889 C 0.23367 0.72461 0.95791 0.0
C890 C 0.24937 0.80536 0.96102 0.0
C891 C 0.29582 0.79656 0.96103 0.0
N892 N 0.35583 0.74457 0.95303 0.0
N893 N 0.17497 0.77754 0.94786 0.0
C894 C 0.31129 0.75203 0.95804 0.0
C895 C 0.21869 0.76946 0.95572 0.0
N896 N 0.29504 0.67321 0.96454 0.0
N897 N 0.23446 0.84768 0.96811 0.0
H898 H 0.15226 0.75177 0.94284 0.0
H899 H 0.16241 0.8093 0.94255 0.0
H900 H 0.25589 0.87443 0.97322 0.0
H901 H 0.20098 0.8555 0.97232 0.0
H902 H 0.32789 0.66526 0.97096 0.0
H903 H 0.27393 0.64577 0.96454 0.0
H904 H 0.36927 0.71332 0.94687 0.0
H905 H 0.379 0.77057 0.95175 0.0
C906 C 0.75564 0.29403 0.97296 0.0
C907 C 0.71585 0.28665 0.95246 0.0
C908 C 0.74893 0.2187 0.92476 0.0
C909 C 0.78643 0.22338 0.94856 0.0
N910 N 0.82329 0.26234 0.99894 0.0
N911 N 0.67153 0.23757 0.91387 0.0
C912 C 0.78936 0.26046 0.9735 0.0
C913 C 0.71175 0.24794 0.9294 0.0
N914 N 0.76096 0.33352 0.99182 0.0
N915 N 0.74932 0.1867 0.89722 0.0
H916 H 0.64333 0.25727 0.9178 0.0
H917 H 0.66514 0.20752 0.9 0.0
H918 H 0.77629 0.16524 0.89304 0.0
H919 H 0.72494 0.18419 0.87653 0.0
H920 H 0.79048 0.34303 1.00488 0.0
H921 H 0.73673 0.3585 0.99155 0.0
H922 H 0.82505 0.28592 1.02056 0.0
H923 H 0.84792 0.23786 1.00038 0.0
C924 C 0.74692 0.21303 0.6024 0.0
C925 C 0.79313 0.22332 0.60309 0.0
C926 C 0.77518 0.30357 0.60345 0.0
C927 C 0.72898 0.29315 0.60555 0.0
N928 N 0.67115 0.23851 0.61378 0.0
N929 N 0.85157 0.27747 0.60975 0.0
C930 C 0.71504 0.24792 0.60711 0.0
C931 C 0.80728 0.26845 0.60536 0.0
N932 N 0.73354 0.17022 0.59526 0.0
N933 N 0.78825 0.34675 0.59763 0.0
H934 H 0.87548 0.25224 0.611 0.0
H935 H 0.86413 0.30927 0.61516 0.0
H936 H 0.7657 0.37291 0.59467 0.0
H937 H 0.82114 0.35627 0.59264 0.0
H938 H 0.70048 0.16119 0.59066 0.0
H939 H 0.75595 0.14425 0.59039 0.0
H940 H 0.65915 0.2064 0.61881 0.0
H941 H 0.64736 0.26352 0.61774 0.0
C942 C 0.30671 0.74944 0.62787 0.0
C943 C 0.2957 0.79354 0.61661 0.0
C944 C 0.21729 0.77063 0.61005 0.0
C945 C 0.22793 0.72755 0.62411 0.0
N946 N 0.28058 0.67911 0.65389 0.0
N947 N 0.23982 0.84831 0.60303 0.0
C948 C 0.27204 0.71812 0.6355 0.0
C949 C 0.25061 0.80478 0.60971 0.0
N950 N 0.35027 0.73646 0.62873 0.0
N951 N 0.1762 0.77815 0.59504 0.0
H952 H 0.26372 0.87369 0.60275 0.0
H953 H 0.20717 0.85976 0.60108 0.0
H954 H 0.15177 0.75348 0.59333 0.0
H955 H 0.16754 0.80759 0.5814 0.0
H956 H 0.3601 0.70366 0.63355 0.0
H957 H 0.37642 0.75734 0.62068 0.0
H958 H 0.31118 0.6719 0.66616 0.0
H959 H 0.25558 0.65591 0.66006 0.0
C960 C 0.54563 0.98857 0.04524 0.0
C961 C 0.5472 0.03464 0.05632 0.0
C962 C 0.47378 0.04548 1.0268 0.0
C963 C 0.47305 0.99981 1.01443 0.0
N964 N 0.51134 0.92949 1.00817 0.0
N965 N 0.51668 0.10847 0.05068 0.0
C966 C 0.51011 0.97207 1.02224 0.0
C967 C 0.51209 0.06339 0.04552 0.0
N968 N 0.57658 0.95949 0.05898 0.0
N969 N 0.4381 0.07248 1.01983 0.0
H970 H 0.54422 0.12291 0.06375 0.0
H971 H 0.49531 0.13207 0.03917 0.0
H972 H 0.41253 0.06378 1.00155 0.0
H973 H 0.43317 0.10325 1.03298 0.0
H974 H 0.5742 0.92491 0.05656 0.0
H975 H 0.60254 0.96929 0.07634 0.0
H976 H 0.53988 0.90975 1.00799 0.0
H977 H 0.48466 0.91445 0.99441 0.0
C978 C 0.53428 0.56641 1.01825 0.0
C979 C 0.49223 0.56238 0.03732 0.0
C980 C 0.49678 0.48084 1.02913 0.0
C981 C 0.53617 0.48533 1.00631 0.0
N982 N 0.5881 0.53411 0.97457 0.0
N983 N 0.42896 0.51591 0.05206 0.0
C984 C 0.55314 0.52871 0.99905 0.0
C985 C 0.4723 0.51962 0.04031 0.0
N986 N 0.55828 0.60517 1.02072 0.0
N987 N 0.48234 0.43971 0.04066 0.0
H988 H 0.40938 0.54346 0.05923 0.0
H989 H 0.411 0.48612 0.05065 0.0
H990 H 0.49613 0.40964 1.03157 0.0
H991 H 0.45768 0.4355 0.06121 0.0
H992 H 0.59086 0.60825 1.01075 0.0
H993 H 0.54828 0.63275 0.03655 0.0
H994 H 0.59832 0.56523 0.96464 0.0
H995 H 0.60481 0.50742 0.9619 0.0
C996 C 0.01186 0.49218 0.08266 0.0
C997 C 0.97251 0.49045 0.0607 0.0
C998 C 1.00807 0.54136 1.01438 0.0
C999 C 0.04873 0.53941 0.03482 0.0
N1000 N 0.07787 0.53444 0.09797 0.0
N1001 N 0.93258 0.51364 1.00525 0.0
C1002 C 0.04755 0.52082 0.07173 0.0
C1003 C 0.97048 0.51513 1.02639 0.0
N1004 N 0.01621 0.46502 0.11334 0.0
N1005 N 1.00376 0.57205 0.98619 0.0
H1006 H 0.90305 0.49892 1.0146 0.0
H1007 H 0.93081 0.52512 0.97762 0.0
H1008 H 0.02753 0.59679 0.98124 0.0
H1009 H 0.97448 0.57761 0.97142 0.0
H1010 H 0.0461 0.46146 0.12783 0.0
H1011 H 0.9916 0.44257 0.12198 0.0
H1012 H 0.07639 0.52487 0.12619 0.0
H1013 H 0.09956 0.56111 0.09318 0.0
C1014 C 1.00124 0.05706 0.04979 0.0
C1015 C 0.97938 0.05254 1.01422 0.0
C1016 C 0.01306 0.97775 1.00738 0.0
C1017 C 0.02875 0.97876 0.0454 0.0
N1018 N 0.05466 0.02762 0.09477 0.0
N1019 N 0.95832 1.00393 0.9629 0.0
C1020 C 0.02714 0.02069 0.06472 0.0
C1021 C 0.98377 1.01168 0.9941 0.0
N1022 N 0.99763 0.09634 0.06936 0.0
N1023 N 0.02958 0.94714 0.98226 0.0
H1024 H 0.93521 0.02679 0.9527 0.0
H1025 H 0.9566 0.9728 0.94969 0.0
H1026 H 0.05683 0.92691 0.98807 0.0
H1027 H 0.02194 0.9475 0.95362 0.0
H1028 H 1.00599 0.09996 0.09764 0.0
H1029 H 0.98461 0.12541 0.0578 0.0
H1030 H 0.05757 0.05771 0.10928 0.0
H1031 H 0.07972 1.00529 0.10204 0.0
C1032 C 1.00446 0.04807 0.54256 0.0
C1033 C 0.96882 0.01839 0.55067 0.0
C1034 C 1.01023 0.95747 0.51807 0.0
C1035 C 0.04731 0.98626 0.51259 0.0
N1036 N 0.08105 0.05892 0.52292 0.0
N1037 N 0.94117 0.94249 0.55159 0.0
C1038 C 0.04492 0.03131 0.52627 0.0
C1039 C 0.97255 0.97253 0.53965 0.0
N1040 N 0.99865 0.09299 0.54787 0.0
N1041 N 0.01096 0.91537 0.50298 0.0
H1042 H 0.91334 0.95137 0.56754 0.0
H1043 H 0.94462 0.90805 0.54873 0.0
H1044 H 0.03891 0.90166 0.48977 0.0
H1045 H 0.98295 0.89489 0.50136 0.0
H1046 H 0.02076 0.11708 0.53782 0.0
H1047 H 0.96967 0.10678 0.55928 0.0
H1048 H 0.08391 0.08919 0.53728 0.0
H1049 H 0.10912 0.05113 0.50689 0.0
C1050 C 0.56201 1.00749 0.52434 0.0
C1051 C 0.53753 0.04767 0.52048 0.0
C1052 C 0.47245 1.0109 0.55129 0.0
C1053 C 0.49833 0.97236 0.55836 0.0
N1054 N 0.57131 0.93791 0.55764 0.0
N1055 N 0.46971 0.08894 0.53445 0.0
C1056 C 0.54391 0.97155 0.54609 0.0
C1057 C 0.49307 0.04984 0.53557 0.0
N1058 N 0.60315 1.00358 0.50783 0.0
N1059 N 0.42736 1.00945 0.55711 0.0
H1060 H 0.48033 0.11705 0.51989 0.0
H1061 H 0.4404 0.09427 0.54973 0.0
H1062 H 0.41087 0.98148 0.56775 0.0
H1063 H 0.40565 0.03417 0.54791 0.0
H1064 H 0.61975 0.97322 0.50491 0.0
H1065 H 0.61977 0.03002 0.49487 0.0
H1066 H 0.60579 0.9384 0.55414 0.0
H1067 H 0.56061 0.91165 0.57443 0.0
C1068 C 0.52189 0.53249 0.49341 0.0
C1069 C 0.47651 0.52625 0.50379 0.0
C1070 C 0.50201 0.48223 0.55869 0.0
C1071 C 0.54725 0.4856 0.54646 0.0
N1072 N 0.5935 0.49606 0.49081 0.0
N1073 N 0.42645 0.47542 0.53666 0.0
C1074 C 0.5551 0.50509 0.51023 0.0
C1075 C 0.46733 0.49524 0.53356 0.0
N1076 N 0.53437 0.56528 0.46887 0.0
N1077 N 0.49101 0.46801 0.59409 0.0
H1078 H 0.40194 0.47849 0.51616 0.0
H1079 H 0.41968 0.45042 0.55633 0.0
H1080 H 0.51385 0.458 0.61417 0.0
H1081 H 0.45845 0.46987 0.60451 0.0
H1082 H 0.56777 0.57231 0.46301 0.0
H1083 H 0.51238 0.58879 0.45815 0.0
H1084 H 0.59914 0.50744 0.4634 0.0
H1085 H 0.61626 0.47211 0.49984 0.0
C1086 C 0.99806 0.5441 0.54703 0.0
C1087 C 0.04114 0.54163 0.56414 0.0
C1088 C 0.05081 0.46707 0.53581 0.0
C1089 C 1.00619 0.46784 0.52185 0.0
N1090 N 0.93453 0.50381 0.52187 0.0
N1091 N 0.10582 0.49744 0.57875 0.0
C1092 C 0.97916 0.5056 0.52932 0.0
C1093 C 0.06638 0.5019 0.56007 0.0
N1094 N 0.97438 0.58303 0.54804 0.0
N1095 N 0.07973 0.43476 0.52363 0.0
H1096 H 0.12021 0.52301 0.59453 0.0
H1097 H 0.12274 0.46719 0.58081 0.0
H1098 H 0.07106 0.41009 0.50431 0.0
H1099 H 0.11378 0.43537 0.52907 0.0
H1100 H 0.94623 0.58852 0.53165 0.0
H1101 H 0.9838 0.61091 0.56355 0.0
H1102 H 0.91194 0.52793 0.53114 0.0
H1103 H 0.91908 0.47605 0.50984 0.0
C1104 C 0.62748 0.14277 0.30638 0.0
C1105 C 0.61371 0.10867 0.33176 0.0
C1106 C 0.59265 0.0617 0.27762 0.0
C1107 C 0.61398 0.0921 0.2525 0.0
N1108 N 0.6486 0.16378 0.24262 0.0
N1109 N 0.58231 0.0357 0.34205 0.0
C1110 C 0.62975 0.13368 0.26672 0.0
C1111 C 0.59532 0.06841 0.31749 0.0
N1112 N 0.63747 0.18427 0.32025 0.0
N1113 N 0.56929 0.02654 0.26299 0.0
H1114 H 0.58288 0.03989 0.37128 0.0
H1115 H 0.57349 1.00352 0.33372 0.0
H1116 H 0.56588 0.02179 0.234 0.0
H1117 H 0.54974 1.00497 0.27907 0.0
H1118 H 0.64331 0.21207 0.30337 0.0
H1119 H 0.63633 0.19193 0.34897 0.0
H1120 H 0.66709 0.19137 0.2513 0.0
H1121 H 0.6461 0.16072 0.21353 0.0
C1122 C 0.40057 0.62028 0.29047 0.0
C1123 C 0.42471 0.58593 0.30878 0.0
C1124 C 0.47146 0.57699 0.25157 0.0
C1125 C 0.44506 0.60911 0.23235 0.0
N1126 N 0.37798 0.65345 0.23128 0.0
N1127 N 0.48296 0.53093 0.30714 0.0
C1128 C 0.40764 0.62836 0.25112 0.0
C1129 C 0.46014 0.56414 0.2893 0.0
N1130 N 0.37166 0.64617 0.31087 0.0
N1131 N 0.50763 0.55885 0.23354 0.0
H1132 H 0.47878 0.52425 0.33583 0.0
H1133 H 0.50522 0.50939 0.29374 0.0
H1134 H 0.51409 0.56385 0.20491 0.0
H1135 H 0.5318 0.53973 0.24678 0.0
H1136 H 0.35621 0.67448 0.30013 0.0
H1137 H 0.36707 0.64252 0.33984 0.0
H1138 H 0.34787 0.6648 0.24249 0.0
H1139 H 0.38074 0.65865 0.20237 0.0
C1140 C 0.89994 0.39299 0.27293 0.0
C1141 C 0.92101 0.42584 0.25015 0.0
C1142 C 0.9728 0.44143 0.30222 0.0
C1143 C 0.94805 0.41227 0.32625 0.0
N1144 N 0.88104 0.36879 0.33594 0.0
N1145 N 0.97502 0.48556 0.24496 0.0
C1146 C 0.90939 0.39079 0.31211 0.0
C1147 C 0.95702 0.45109 0.26515 0.0
N1148 N 0.87182 0.36261 0.25669 0.0
N1149 N 0.01168 0.45992 0.3148 0.0
H1150 H 0.96626 0.49272 0.2173 0.0
H1151 H 0.99698 0.50885 0.2564 0.0
H1152 H 0.02231 0.45715 0.34263 0.0
H1153 H 0.03437 0.47626 0.29725 0.0
H1154 H 0.85876 0.33522 0.27111 0.0
H1155 H 0.86582 0.36181 0.22771 0.0
H1156 H 0.85041 0.35593 0.32743 0.0
H1157 H 0.8854 0.36807 0.36497 0.0
C1158 C 0.09674 0.9747 0.29635 0.0
C1159 C 0.12401 0.94698 0.31933 0.0
C1160 C 0.14199 0.90141 0.26339 0.0
C1161 C 0.11098 0.92576 0.24148 0.0
N1162 N 0.05484 0.98323 0.23856 0.0
N1163 N 0.16582 0.87849 0.32542 0.0
C1164 C 0.08751 0.96204 0.25824 0.0
C1165 C 0.14447 0.90862 0.30309 0.0
N1166 N 0.07956 0.01342 0.3109 0.0
N1167 N 0.17034 0.87217 0.2458 0.0
H1168 H 0.16772 0.8817 0.35455 0.0
H1169 H 0.17747 0.8478 0.31557 0.0
H1170 H 0.17057 0.8675 0.2166 0.0
H1171 H 0.19674 0.85656 0.25937 0.0
H1172 H 0.06494 0.03808 0.29445 0.0
H1173 H 0.08173 0.02201 0.33932 0.0
H1174 H 0.03212 1.00527 0.25083 0.0
H1175 H 0.04887 0.97715 0.21016 0.0
C1176 C 0.42202 0.96669 0.79428 0.0
C1177 C 0.40542 0.93731 0.82269 0.0
C1178 C 0.42286 0.87391 0.78072 0.0
C1179 C 0.43308 0.90365 0.75039 0.0
N1180 N 0.43544 0.97968 0.72775 0.0
N1181 N 0.38086 0.86264 0.83832 0.0
C1182 C 0.43004 0.95042 0.75691 0.0
C1183 C 0.40339 0.89082 0.8147 0.0
N1184 N 0.43277 1.00977 0.80344 0.0
N1185 N 0.43218 0.82937 0.77781 0.0
H1186 H 0.36485 0.8733 0.86279 0.0
H1187 H 0.37403 0.82944 0.83151 0.0
H1188 H 0.44576 0.81452 0.75388 0.0
H1189 H 0.43022 0.80768 0.80071 0.0
H1190 H 0.44898 0.03143 0.78493 0.0
H1191 H 0.43058 0.02225 0.83087 0.0
H1192 H 0.42886 0.01374 0.7303 0.0
H1193 H 0.4425 0.96969 0.70021 0.0
C1194 C 0.57724 0.45395 0.7691 0.0
C1195 C 0.60744 0.43027 0.74539 0.0
C1196 C 0.63235 0.38696 0.80053 0.0
C1197 C 0.60737 0.41562 0.82486 0.0
N1198 N 0.55475 0.47569 0.83268 0.0
N1199 N 0.6601 0.37043 0.73731 0.0
C1200 C 0.57883 0.44844 0.80915 0.0
C1201 C 0.63328 0.39502 0.76069 0.0
N1202 N 0.54678 0.48164 0.75281 0.0
N1203 N 0.65473 0.35159 0.81555 0.0
H1204 H 0.65789 0.37205 0.70807 0.0
H1205 H 0.68482 0.34882 0.74651 0.0
H1206 H 0.65603 0.34572 0.84441 0.0
H1207 H 0.66976 0.32643 0.79968 0.0
H1208 H 0.52122 0.49765 0.76747 0.0
H1209 H 0.54471 0.48532 0.72358 0.0
H1210 H 0.537 0.50346 0.82368 0.0
H1211 H 0.55433 0.47205 0.86195 0.0
C1212 C 0.11413 0.6394 0.77583 0.0
C1213 C 0.08027 0.61147 0.76053 0.0
C1214 C 0.07581 0.57101 0.82127 0.0
C1215 C 0.10719 0.60114 0.83722 0.0
N1216 N 0.14955 0.66911 0.83208 0.0
N1217 N 0.02596 0.55287 0.76971 0.0
C1218 C 0.12448 0.63669 0.81505 0.0
C1219 C 0.0602 0.57805 0.78369 0.0
N1220 N 0.13679 0.66846 0.75303 0.0
N1221 N 0.0625 0.53431 0.84126 0.0
H1222 H 0.01644 0.55368 0.74148 0.0
H1223 H 1.0057 0.53257 0.78637 0.0
H1224 H 0.0716 0.52876 0.86914 0.0
H1225 H 0.04455 0.5079 0.82965 0.0
H1226 H 0.16511 0.68586 0.76149 0.0
H1227 H 0.13002 0.67252 0.72453 0.0
H1228 H 0.15939 0.69853 0.81882 0.0
H1229 H 0.15668 0.6688 0.86086 0.0
C1230 C 0.94815 0.07361 0.80082 0.0
C1231 C 0.91732 0.1031 0.81858 0.0
C1232 C 0.88263 0.11757 0.75719 0.0
C1233 C 0.90946 0.08414 0.74024 0.0
N1234 N 0.97032 0.0326 0.74431 0.0
N1235 N 0.85016 0.14673 0.81498 0.0
C1236 C 0.94306 0.06288 0.76175 0.0
C1237 C 0.88304 0.12308 0.79703 0.0
N1238 N 0.98307 0.05715 0.82095 0.0
N1239 N 0.85814 0.1454 0.73512 0.0
H1240 H 0.84888 0.15037 0.84429 0.0
H1241 H 0.82191 0.15857 0.80135 0.0
H1242 H 0.86018 0.14449 0.70581 0.0
H1243 H 0.84057 0.17279 0.74562 0.0
H1244 H 1.00993 0.0401 0.80907 0.0
H1245 H 0.98578 0.0616 0.84994 0.0
H1246 H 0.99205 1.01151 0.75844 0.0
H1247 H 0.97063 0.02852 0.71504 0.0
loop_
_geom_bond_atom_site_label_1
_geom_bond_atom_site_label_2
_geom_bond_distance
_geom_bond_site_symmetry_2
_ccdc_geom_bond_type
C0 C1 1.351 . S
C0 N3 1.368 . S
C0 H5 0.931 . S
C1 C0 1.351 . S
C1 N2 1.373 . S
C1 H29 0.930 . S
N2 C1 1.373 . S
N2 C4 1.340 . S
N3 C0 1.368 . S
N3 C4 1.321 . S
N3 Co6 2.135 . S
C4 N2 1.340 . S
C4 N3 1.321 . S
C4 H28 0.930 . S
H5 C0 0.931 . S
Co6 N3 2.135 . S
Co6 N9 2.121 1_545 S
Co6 O14 2.055 . S
Co6 O17 2.039 . S
Co6 N20 2.140 . S
C7 O8 1.227 . S
C7 O17 1.265 . S
O8 C7 1.227 . S
N9 Co6 2.121 1_565 S
N9 C11 1.375 . S
N9 C12 1.313 . S
C10 C11 1.338 . S
C10 N13 1.377 . S
C10 H30 0.930 . S
C11 N9 1.375 . S
C11 C10 1.338 . S
C11 H15 0.931 . S
C12 N9 1.313 . S
C12 N13 1.344 . S
C12 H16 0.930 . S
N13 C10 1.377 . S
N13 C12 1.344 . S
O14 Co6 2.055 . S
O14 C18 1.253 . S
H15 C11 0.931 . S
H16 C12 0.930 . S
O17 Co6 2.039 . S
O17 C7 1.265 . S
C18 O14 1.253 . S
C18 O19 1.227 . S
O19 C18 1.227 . S
N20 Co6 2.140 . S
N20 C23 1.346 . S
N20 C24 1.345 1_545 S
C21 C22 1.387 1_565 S
C21 C25 1.391 . S
C22 C21 1.387 1_545 S
C22 C23 1.369 . S
C22 H31 0.929 . S
C23 N20 1.346 . S
C23 C22 1.369 . S
C23 H26 0.928 . S
C24 N20 1.345 1_565 S
C24 C25 1.371 . S
C24 H27 0.931 . S
C25 C21 1.391 . S
C25 C24 1.371 . S
C25 H32 0.930 . S
H26 C23 0.928 . S
H27 C24 0.931 . S
H28 C4 0.930 . S
H29 C1 0.930 . S
H30 C10 0.930 . S
H31 C22 0.929 . S
H32 C25 0.930 . S
C33 C34 1.351 . S
C33 N36 1.368 . S
C33 H38 0.931 . S
C34 C33 1.351 . S
C34 N35 1.373 . S
C34 H62 0.930 . S
N35 C34 1.373 . S
N35 C37 1.340 . S
N36 C33 1.368 . S
N36 C37 1.321 . S
N36 Co39 2.135 . S
C37 N35 1.340 . S
C37 N36 1.321 . S
C37 H61 0.930 . S
H38 C33 0.931 . S
Co39 N36 2.135 . S
Co39 N42 2.121 . S
Co39 O47 2.055 . S
Co39 O50 2.039 . S
Co39 N53 2.140 . S
C40 O41 1.227 . S
C40 O50 1.265 . S
O41 C40 1.227 . S
N42 Co39 2.121 . S
N42 C44 1.375 . S
N42 C45 1.313 . S
C43 C44 1.338 . S
C43 N46 1.377 . S
C43 H63 0.930 . S
C44 N42 1.375 . S
C44 C43 1.338 . S
C44 H48 0.931 . S
C45 N42 1.313 . S
C45 N46 1.344 . S
C45 H49 0.930 . S
N46 C43 1.377 . S
N46 C45 1.344 . S
O47 Co39 2.055 . S
O47 C51 1.253 . S
H48 C44 0.931 . S
H49 C45 0.930 . S
O50 Co39 2.039 . S
O50 C40 1.265 . S
C51 O47 1.253 . S
C51 O52 1.227 . S
O52 C51 1.227 . S
N53 Co39 2.140 . S
N53 C56 1.346 . S
N53 C57 1.345 . S
C54 C55 1.387 . S
C54 C58 1.391 . S
C55 C54 1.387 . S
C55 C56 1.369 . S
C55 H64 0.929 . S
C56 N53 1.346 . S
C56 C55 1.369 . S
C56 H59 0.928 . S
C57 N53 1.345 . S
C57 C58 1.371 . S
C57 H60 0.931 . S
C58 C54 1.391 . S
C58 C57 1.371 . S
C58 H65 0.930 . S
H59 C56 0.928 . S
H60 C57 0.931 . S
H61 C37 0.930 . S
H62 C34 0.930 . S
H63 C43 0.930 . S
H64 C55 0.929 . S
H65 C58 0.930 . S
C66 C67 1.351 . S
C66 N69 1.368 . S
C66 H71 0.931 . S
C67 C66 1.351 . S
C67 N68 1.373 . S
C67 H95 0.930 . S
N68 C67 1.373 . S
N68 C70 1.340 . S
N69 C66 1.368 . S
N69 C70 1.321 . S
N69 Co72 2.135 . S
C70 N68 1.340 . S
C70 N69 1.321 . S
C70 H94 0.930 . S
H71 C66 0.931 . S
Co72 N69 2.135 . S
Co72 N75 2.121 . S
Co72 O80 2.055 . S
Co72 O83 2.039 . S
Co72 N86 2.140 . S
C73 O74 1.227 . S
C73 O83 1.265 . S
O74 C73 1.227 . S
N75 Co72 2.121 . S
N75 C77 1.375 . S
N75 C78 1.313 . S
C76 C77 1.338 . S
C76 N79 1.377 . S
C76 H96 0.930 . S
C77 N75 1.375 . S
C77 C76 1.338 . S
C77 H81 0.931 . S
C78 N75 1.313 . S
C78 N79 1.344 . S
C78 H82 0.930 . S
N79 C76 1.377 . S
N79 C78 1.344 . S
O80 Co72 2.055 . S
O80 C84 1.253 . S
H81 C77 0.931 . S
H82 C78 0.930 . S
O83 Co72 2.039 . S
O83 C73 1.265 . S
C84 O80 1.253 . S
C84 O85 1.227 . S
O85 C84 1.227 . S
N86 Co72 2.140 . S
N86 C89 1.346 . S
N86 C90 1.345 . S
C87 C88 1.387 . S
C87 C91 1.391 . S
C88 C87 1.387 . S
C88 C89 1.369 . S
C88 H97 0.929 . S
C89 N86 1.346 . S
C89 C88 1.369 . S
C89 H92 0.928 . S
C90 N86 1.345 . S
C90 C91 1.371 . S
C90 H93 0.931 . S
C91 C87 1.391 . S
C91 C90 1.371 . S
C91 H98 0.930 . S
H92 C89 0.928 . S
H93 C90 0.931 . S
H94 C70 0.930 . S
H95 C67 0.930 . S
H96 C76 0.930 . S
H97 C88 0.929 . S
H98 C91 0.930 . S
C99 C100 1.351 . S
C99 N102 1.368 . S
C99 H104 0.931 . S
C100 C99 1.351 . S
C100 N101 1.373 . S
C100 H128 0.930 . S
N101 C100 1.373 . S
N101 C103 1.340 . S
N102 C99 1.368 . S
N102 C103 1.321 . S
N102 Co105 2.135 . S
C103 N101 1.340 . S
C103 N102 1.321 . S
C103 H127 0.930 . S
H104 C99 0.931 . S
Co105 N102 2.135 . S
Co105 N108 2.121 1_455 S
Co105 O113 2.055 . S
Co105 O116 2.039 . S
Co105 N119 2.140 . S
C106 O107 1.227 . S
C106 O116 1.265 . S
O107 C106 1.227 . S
N108 Co105 2.121 1_655 S
N108 C110 1.375 . S
N108 C111 1.313 . S
C109 C110 1.338 . S
C109 N112 1.377 . S
C109 H129 0.930 . S
C110 N108 1.375 . S
C110 C109 1.338 . S
C110 H114 0.931 . S
C111 N108 1.313 . S
C111 N112 1.344 . S
C111 H115 0.930 . S
N112 C109 1.377 . S
N112 C111 1.344 . S
O113 Co105 2.055 . S
O113 C117 1.253 . S
H114 C110 0.931 . S
H115 C111 0.930 . S
O116 Co105 2.039 . S
O116 C106 1.265 . S
C117 O113 1.253 . S
C117 O118 1.227 . S
O118 C117 1.227 . S
N119 Co105 2.140 . S
N119 C122 1.346 . S
N119 C123 1.345 1_455 S
C120 C121 1.387 1_655 S
C120 C124 1.391 . S
C121 C120 1.387 1_455 S
C121 C122 1.369 . S
C121 H130 0.929 . S
C122 N119 1.346 . S
C122 C121 1.369 . S
C122 H125 0.928 . S
C123 N119 1.345 1_655 S
C123 C124 1.371 . S
C123 H126 0.931 . S
C124 C120 1.391 . S
C124 C123 1.371 . S
C124 H131 0.930 . S
H125 C122 0.928 . S
H126 C123 0.931 . S
H127 C103 0.930 . S
H128 C100 0.930 . S
H129 C109 0.930 . S
H130 C121 0.929 . S
H131 C124 0.930 . S
C132 C133 1.351 . S
C132 N135 1.368 . S
C132 H137 0.931 . S
C133 C132 1.351 . S
C133 N134 1.373 . S
C133 H161 0.930 . S
N134 C133 1.373 . S
N134 C136 1.340 . S
N135 C132 1.368 . S
N135 C136 1.321 . S
N135 Co138 2.135 . S
C136 N134 1.340 . S
C136 N135 1.321 . S
C136 H160 0.930 . S
H137 C132 0.931 . S
Co138 N135 2.135 . S
Co138 N141 2.121 1_565 S
Co138 O146 2.055 . S
Co138 O149 2.039 . S
Co138 N152 2.140 . S
C139 O140 1.227 . S
C139 O149 1.265 . S
O140 C139 1.227 . S
N141 Co138 2.121 1_545 S
N141 C143 1.375 . S
N141 C144 1.313 . S
C142 C143 1.338 . S
C142 N145 1.377 . S
C142 H162 0.930 . S
C143 N141 1.375 . S
C143 C142 1.338 . S
C143 H147 0.931 . S
C144 N141 1.313 . S
C144 N145 1.344 . S
C144 H148 0.930 . S
N145 C142 1.377 . S
N145 C144 1.344 . S
O146 Co138 2.055 . S
O146 C150 1.253 . S
H147 C143 0.931 . S
H148 C144 0.930 . S
O149 Co138 2.039 . S
O149 C139 1.265 . S
C150 O146 1.253 . S
C150 O151 1.227 . S
O151 C150 1.227 . S
N152 Co138 2.140 . S
N152 C155 1.346 . S
N152 C156 1.345 1_565 S
C153 C154 1.387 1_545 S
C153 C157 1.391 . S
C154 C153 1.387 1_565 S
C154 C155 1.369 . S
C154 H163 0.929 . S
C155 N152 1.346 . S
C155 C154 1.369 . S
C155 H158 0.928 . S
C156 N152 1.345 1_545 S
C156 C157 1.371 . S
C156 H159 0.931 . S
C157 C153 1.391 . S
C157 C156 1.371 . S
C157 H164 0.930 . S
H158 C155 0.928 . S
H159 C156 0.931 . S
H160 C136 0.930 . S
H161 C133 0.930 . S
H162 C142 0.930 . S
H163 C154 0.929 . S
H164 C157 0.930 . S
C165 C166 1.351 . S
C165 N168 1.368 . S
C165 H170 0.931 . S
C166 C165 1.351 . S
C166 N167 1.373 . S
C166 H194 0.930 . S
N167 C166 1.373 . S
N167 C169 1.340 . S
N168 C165 1.368 . S
N168 C169 1.321 . S
N168 Co171 2.135 . S
C169 N167 1.340 . S
C169 N168 1.321 . S
C169 H193 0.930 . S
H170 C165 0.931 . S
Co171 N168 2.135 . S
Co171 N174 2.121 . S
Co171 O179 2.055 . S
Co171 O182 2.039 . S
Co171 N185 2.140 . S
C172 O173 1.227 . S
C172 O182 1.265 . S
O173 C172 1.227 . S
N174 Co171 2.121 . S
N174 C176 1.375 . S
N174 C177 1.313 . S
C175 C176 1.338 . S
C175 N178 1.377 . S
C175 H195 0.930 . S
C176 N174 1.375 . S
C176 C175 1.338 . S
C176 H180 0.931 . S
C177 N174 1.313 . S
C177 N178 1.344 . S
C177 H181 0.930 . S
N178 C175 1.377 . S
N178 C177 1.344 . S
O179 Co171 2.055 . S
O179 C183 1.253 . S
H180 C176 0.931 . S
H181 C177 0.930 . S
O182 Co171 2.039 . S
O182 C172 1.265 . S
C183 O179 1.253 . S
C183 O184 1.227 . S
O184 C183 1.227 . S
N185 Co171 2.140 . S
N185 C188 1.346 . S
N185 C189 1.345 . S
C186 C187 1.387 . S
C186 C190 1.391 . S
C187 C186 1.387 . S
C187 C188 1.369 . S
C187 H196 0.929 . S
C188 N185 1.346 . S
C188 C187 1.369 . S
C188 H191 0.928 . S
C189 N185 1.345 . S
C189 C190 1.371 . S
C189 H192 0.931 . S
C190 C186 1.391 . S
C190 C189 1.371 . S
C190 H197 0.930 . S
H191 C188 0.928 . S
H192 C189 0.931 . S
H193 C169 0.930 . S
H194 C166 0.930 . S
H195 C175 0.930 . S
H196 C187 0.929 . S
H197 C190 0.930 . S
C198 C199 1.351 . S
C198 N201 1.368 . S
C198 H203 0.931 . S
C199 C198 1.351 . S
C199 N200 1.373 . S
C199 H227 0.930 . S
N200 C199 1.373 . S
N200 C202 1.340 . S
N201 C198 1.368 . S
N201 C202 1.321 . S
N201 Co204 2.135 . S
C202 N200 1.340 . S
C202 N201 1.321 . S
C202 H226 0.930 . S
H203 C198 0.931 . S
Co204 N201 2.135 . S
Co204 N207 2.121 . S
Co204 O212 2.055 . S
Co204 O215 2.039 . S
Co204 N218 2.140 . S
C205 O206 1.227 . S
C205 O215 1.265 . S
O206 C205 1.227 . S
N207 Co204 2.121 . S
N207 C209 1.375 . S
N207 C210 1.313 . S
C208 C209 1.338 . S
C208 N211 1.377 . S
C208 H228 0.930 . S
C209 N207 1.375 . S
C209 C208 1.338 . S
C209 H213 0.931 . S
C210 N207 1.313 . S
C210 N211 1.344 . S
C210 H214 0.930 . S
N211 C208 1.377 . S
N211 C210 1.344 . S
O212 Co204 2.055 . S
O212 C216 1.253 . S
H213 C209 0.931 . S
H214 C210 0.930 . S
O215 Co204 2.039 . S
O215 C205 1.265 . S
C216 O212 1.253 . S
C216 O217 1.227 . S
O217 C216 1.227 . S
N218 Co204 2.140 . S
N218 C221 1.346 . S
N218 C222 1.345 . S
C219 C220 1.387 . S
C219 C223 1.391 . S
C220 C219 1.387 . S
C220 C221 1.369 . S
C220 H229 0.929 . S
C221 N218 1.346 . S
C221 C220 1.369 . S
C221 H224 0.928 . S
C222 N218 1.345 . S
C222 C223 1.371 . S
C222 H225 0.931 . S
C223 C219 1.391 . S
C223 C222 1.371 . S
C223 H230 0.930 . S
H224 C221 0.928 . S
H225 C222 0.931 . S
H226 C202 0.930 . S
H227 C199 0.930 . S
H228 C208 0.930 . S
H229 C220 0.929 . S
H230 C223 0.930 . S
C231 C232 1.351 . S
C231 N234 1.368 . S
C231 H236 0.931 . S
C232 C231 1.351 . S
C232 N233 1.373 . S
C232 H260 0.930 . S
N233 C232 1.373 . S
N233 C235 1.340 . S
N234 C231 1.368 . S
N234 C235 1.321 . S
N234 Co237 2.135 . S
C235 N233 1.340 . S
C235 N234 1.321 . S
C235 H259 0.930 . S
H236 C231 0.931 . S
Co237 N234 2.135 . S
Co237 N240 2.121 1_655 S
Co237 O245 2.055 . S
Co237 O248 2.039 . S
Co237 N251 2.140 . S
C238 O239 1.227 . S
C238 O248 1.265 . S
O239 C238 1.227 . S
N240 Co237 2.121 1_455 S
N240 C242 1.375 . S
N240 C243 1.313 . S
C241 C242 1.338 . S
C241 N244 1.377 . S
C241 H261 0.930 . S
C242 N240 1.375 . S
C242 C241 1.338 . S
C242 H246 0.931 . S
C243 N240 1.313 . S
C243 N244 1.344 . S
C243 H247 0.930 . S
N244 C241 1.377 . S
N244 C243 1.344 . S
O245 Co237 2.055 . S
O245 C249 1.253 . S
H246 C242 0.931 . S
H247 C243 0.930 . S
O248 Co237 2.039 . S
O248 C238 1.265 . S
C249 O245 1.253 . S
C249 O250 1.227 . S
O250 C249 1.227 . S
N251 Co237 2.140 . S
N251 C254 1.346 . S
N251 C255 1.345 1_655 S
C252 C253 1.387 1_455 S
C252 C256 1.391 . S
C253 C252 1.387 1_655 S
C253 C254 1.369 . S
C253 H262 0.929 . S
C254 N251 1.346 . S
C254 C253 1.369 . S
C254 H257 0.928 . S
C255 N251 1.345 1_455 S
C255 C256 1.371 . S
C255 H258 0.931 . S
C256 C252 1.391 . S
C256 C255 1.371 . S
C256 H263 0.930 . S
H257 C254 0.928 . S
H258 C255 0.931 . S
H259 C235 0.930 . S
H260 C232 0.930 . S
H261 C241 0.930 . S
H262 C253 0.929 . S
H263 C256 0.930 . S
C264 C265 1.351 . S
C264 N267 1.368 . S
C264 H269 0.931 . S
C265 C264 1.351 . S
C265 N266 1.373 . S
C265 H293 0.930 . S
N266 C265 1.373 . S
N266 C268 1.340 . S
N267 C264 1.368 . S
N267 C268 1.321 . S
N267 Co270 2.135 . S
C268 N266 1.340 . S
C268 N267 1.321 . S
C268 H292 0.930 . S
H269 C264 0.931 . S
Co270 N267 2.135 . S
Co270 N273 2.121 1_565 S
Co270 O278 2.055 . S
Co270 O281 2.039 . S
Co270 N284 2.140 . S
C271 O272 1.227 . S
C271 O281 1.265 . S
O272 C271 1.227 . S
N273 Co270 2.121 1_545 S
N273 C275 1.375 . S
N273 C276 1.313 . S
C274 C275 1.338 . S
C274 N277 1.377 . S
C274 H294 0.930 . S
C275 N273 1.375 . S
C275 C274 1.338 . S
C275 H279 0.931 . S
C276 N273 1.313 . S
C276 N277 1.344 . S
C276 H280 0.930 . S
N277 C274 1.377 . S
N277 C276 1.344 . S
O278 Co270 2.055 . S
O278 C282 1.253 . S
H279 C275 0.931 . S
H280 C276 0.930 . S
O281 Co270 2.039 . S
O281 C271 1.265 . S
C282 O278 1.253 . S
C282 O283 1.227 . S
O283 C282 1.227 . S
N284 Co270 2.140 . S
N284 C287 1.346 . S
N284 C288 1.345 1_565 S
C285 C286 1.387 1_545 S
C285 C289 1.391 . S
C286 C285 1.387 1_565 S
C286 C287 1.369 . S
C286 H295 0.929 . S
C287 N284 1.346 . S
C287 C286 1.369 . S
C287 H290 0.928 . S
C288 N284 1.345 1_545 S
C288 C289 1.371 . S
C288 H291 0.931 . S
C289 C285 1.391 . S
C289 C288 1.371 . S
C289 H296 0.930 . S
H290 C287 0.928 . S
H291 C288 0.931 . S
H292 C268 0.930 . S
H293 C265 0.930 . S
H294 C274 0.930 . S
H295 C286 0.929 . S
H296 C289 0.930 . S
C297 C298 1.351 . S
C297 N300 1.368 . S
C297 H302 0.931 . S
C298 C297 1.351 . S
C298 N299 1.373 . S
C298 H326 0.930 . S
N299 C298 1.373 . S
N299 C301 1.340 . S
N300 C297 1.368 . S
N300 C301 1.321 . S
N300 Co303 2.135 . S
C301 N299 1.340 . S
C301 N300 1.321 . S
C301 H325 0.930 . S
H302 C297 0.931 . S
Co303 N300 2.135 . S
Co303 N306 2.121 . S
Co303 O311 2.055 . S
Co303 O314 2.039 . S
Co303 N317 2.140 . S
C304 O305 1.227 . S
C304 O314 1.265 . S
O305 C304 1.227 . S
N306 Co303 2.121 . S
N306 C308 1.375 . S
N306 C309 1.313 . S
C307 C308 1.338 . S
C307 N310 1.377 . S
C307 H327 0.930 . S
C308 N306 1.375 . S
C308 C307 1.338 . S
C308 H312 0.931 . S
C309 N306 1.313 . S
C309 N310 1.344 . S
C309 H313 0.930 . S
N310 C307 1.377 . S
N310 C309 1.344 . S
O311 Co303 2.055 . S
O311 C315 1.253 . S
H312 C308 0.931 . S
H313 C309 0.930 . S
O314 Co303 2.039 . S
O314 C304 1.265 . S
C315 O311 1.253 . S
C315 O316 1.227 . S
O316 C315 1.227 . S
N317 Co303 2.140 . S
N317 C320 1.346 . S
N317 C321 1.345 . S
C318 C319 1.387 . S
C318 C322 1.391 . S
C319 C318 1.387 . S
C319 C320 1.369 . S
C319 H328 0.929 . S
C320 N317 1.346 . S
C320 C319 1.369 . S
C320 H323 0.928 . S
C321 N317 1.345 . S
C321 C322 1.371 . S
C321 H324 0.931 . S
C322 C318 1.391 . S
C322 C321 1.371 . S
C322 H329 0.930 . S
H323 C320 0.928 . S
H324 C321 0.931 . S
H325 C301 0.930 . S
H326 C298 0.930 . S
H327 C307 0.930 . S
H328 C319 0.929 . S
H329 C322 0.930 . S
C330 C331 1.351 . S
C330 N333 1.368 . S
C330 H335 0.931 . S
C331 C330 1.351 . S
C331 N332 1.373 . S
C331 H359 0.930 . S
N332 C331 1.373 . S
N332 C334 1.340 . S
N333 C330 1.368 . S
N333 C334 1.321 . S
N333 Co336 2.135 . S
C334 N332 1.340 . S
C334 N333 1.321 . S
C334 H358 0.930 . S
H335 C330 0.931 . S
Co336 N333 2.135 . S
Co336 N339 2.121 . S
Co336 O344 2.055 . S
Co336 O347 2.039 . S
Co336 N350 2.140 . S
C337 O338 1.227 . S
C337 O347 1.265 . S
O338 C337 1.227 . S
N339 Co336 2.121 . S
N339 C341 1.375 . S
N339 C342 1.313 . S
C340 C341 1.338 . S
C340 N343 1.377 . S
C340 H360 0.930 . S
C341 N339 1.375 . S
C341 C340 1.338 . S
C341 H345 0.931 . S
C342 N339 1.313 . S
C342 N343 1.344 . S
C342 H346 0.930 . S
N343 C340 1.377 . S
N343 C342 1.344 . S
O344 Co336 2.055 . S
O344 C348 1.253 . S
H345 C341 0.931 . S
H346 C342 0.930 . S
O347 Co336 2.039 . S
O347 C337 1.265 . S
C348 O344 1.253 . S
C348 O349 1.227 . S
O349 C348 1.227 . S
N350 Co336 2.140 . S
N350 C353 1.346 . S
N350 C354 1.345 . S
C351 C352 1.387 . S
C351 C355 1.391 . S
C352 C351 1.387 . S
C352 C353 1.369 . S
C352 H361 0.929 . S
C353 N350 1.346 . S
C353 C352 1.369 . S
C353 H356 0.928 . S
C354 N350 1.345 . S
C354 C355 1.371 . S
C354 H357 0.931 . S
C355 C351 1.391 . S
C355 C354 1.371 . S
C355 H362 0.930 . S
H356 C353 0.928 . S
H357 C354 0.931 . S
H358 C334 0.930 . S
H359 C331 0.930 . S
H360 C340 0.930 . S
H361 C352 0.929 . S
H362 C355 0.930 . S
C363 C364 1.351 . S
C363 N366 1.368 . S
C363 H368 0.931 . S
C364 C363 1.351 . S
C364 N365 1.373 . S
C364 H392 0.930 . S
N365 C364 1.373 . S
N365 C367 1.340 . S
N366 C363 1.368 . S
N366 C367 1.321 . S
N366 Co369 2.135 . S
C367 N365 1.340 . S
C367 N366 1.321 . S
C367 H391 0.930 . S
H368 C363 0.931 . S
Co369 N366 2.135 . S
Co369 N372 2.121 1_655 S
Co369 O377 2.055 . S
Co369 O380 2.039 . S
Co369 N383 2.140 . S
C370 O371 1.227 . S
C370 O380 1.265 . S
O371 C370 1.227 . S
N372 Co369 2.121 1_455 S
N372 C374 1.375 . S
N372 C375 1.313 . S
C373 C374 1.338 . S
C373 N376 1.377 . S
C373 H393 0.930 . S
C374 N372 1.375 . S
C374 C373 1.338 . S
C374 H378 0.931 . S
C375 N372 1.313 . S
C375 N376 1.344 . S
C375 H379 0.930 . S
N376 C373 1.377 . S
N376 C375 1.344 . S
O377 Co369 2.055 . S
O377 C381 1.253 . S
H378 C374 0.931 . S
H379 C375 0.930 . S
O380 Co369 2.039 . S
O380 C370 1.265 . S
C381 O377 1.253 . S
C381 O382 1.227 . S
O382 C381 1.227 . S
N383 Co369 2.140 . S
N383 C386 1.346 . S
N383 C387 1.345 1_655 S
C384 C385 1.387 1_455 S
C384 C388 1.391 . S
C385 C384 1.387 1_655 S
C385 C386 1.369 . S
C385 H394 0.929 . S
C386 N383 1.346 . S
C386 C385 1.369 . S
C386 H389 0.928 . S
C387 N383 1.345 1_455 S
C387 C388 1.371 . S
C387 H390 0.931 . S
C388 C384 1.391 . S
C388 C387 1.371 . S
C388 H395 0.930 . S
H389 C386 0.928 . S
H390 C387 0.931 . S
H391 C367 0.930 . S
H392 C364 0.930 . S
H393 C373 0.930 . S
H394 C385 0.929 . S
H395 C388 0.930 . S
C396 C397 1.351 . S
C396 N399 1.368 . S
C396 H401 0.931 . S
C397 C396 1.351 . S
C397 N398 1.373 . S
C397 H425 0.930 . S
N398 C397 1.373 . S
N398 C400 1.340 . S
N399 C396 1.368 . S
N399 C400 1.321 . S
N399 Co402 2.135 . S
C400 N398 1.340 . S
C400 N399 1.321 . S
C400 H424 0.930 . S
H401 C396 0.931 . S
Co402 N399 2.135 . S
Co402 N405 2.121 1_545 S
Co402 O410 2.055 . S
Co402 O413 2.039 . S
Co402 N416 2.140 . S
C403 O404 1.227 . S
C403 O413 1.265 . S
O404 C403 1.227 . S
N405 Co402 2.121 1_565 S
N405 C407 1.375 . S
N405 C408 1.313 . S
C406 C407 1.338 . S
C406 N409 1.377 . S
C406 H426 0.930 . S
C407 N405 1.375 . S
C407 C406 1.338 . S
C407 H411 0.931 . S
C408 N405 1.313 . S
C408 N409 1.344 . S
C408 H412 0.930 . S
N409 C406 1.377 . S
N409 C408 1.344 . S
O410 Co402 2.055 . S
O410 C414 1.253 . S
H411 C407 0.931 . S
H412 C408 0.930 . S
O413 Co402 2.039 . S
O413 C403 1.265 . S
C414 O410 1.253 . S
C414 O415 1.227 . S
O415 C414 1.227 . S
N416 Co402 2.140 . S
N416 C419 1.346 . S
N416 C420 1.345 1_545 S
C417 C418 1.387 1_565 S
C417 C421 1.391 . S
C418 C417 1.387 1_545 S
C418 C419 1.369 . S
C418 H427 0.929 . S
C419 N416 1.346 . S
C419 C418 1.369 . S
C419 H422 0.928 . S
C420 N416 1.345 1_565 S
C420 C421 1.371 . S
C420 H423 0.931 . S
C421 C417 1.391 . S
C421 C420 1.371 . S
C421 H428 0.930 . S
H422 C419 0.928 . S
H423 C420 0.931 . S
H424 C400 0.930 . S
H425 C397 0.930 . S
H426 C406 0.930 . S
H427 C418 0.929 . S
H428 C421 0.930 . S
C429 C430 1.351 . S
C429 N432 1.368 . S
C429 H434 0.931 . S
C430 C429 1.351 . S
C430 N431 1.373 . S
C430 H458 0.930 . S
N431 C430 1.373 . S
N431 C433 1.340 . S
N432 C429 1.368 . S
N432 C433 1.321 . S
N432 Co435 2.135 . S
C433 N431 1.340 . S
C433 N432 1.321 . S
C433 H457 0.930 . S
H434 C429 0.931 . S
Co435 N432 2.135 . S
Co435 N438 2.121 . S
Co435 O443 2.055 . S
Co435 O446 2.039 . S
Co435 N449 2.140 . S
C436 O437 1.227 . S
C436 O446 1.265 . S
O437 C436 1.227 . S
N438 Co435 2.121 . S
N438 C440 1.375 . S
N438 C441 1.313 . S
C439 C440 1.338 . S
C439 N442 1.377 . S
C439 H459 0.930 . S
C440 N438 1.375 . S
C440 C439 1.338 . S
C440 H444 0.931 . S
C441 N438 1.313 . S
C441 N442 1.344 . S
C441 H445 0.930 . S
N442 C439 1.377 . S
N442 C441 1.344 . S
O443 Co435 2.055 . S
O443 C447 1.253 . S
H444 C440 0.931 . S
H445 C441 0.930 . S
O446 Co435 2.039 . S
O446 C436 1.265 . S
C447 O443 1.253 . S
C447 O448 1.227 . S
O448 C447 1.227 . S
N449 Co435 2.140 . S
N449 C452 1.346 . S
N449 C453 1.345 . S
C450 C451 1.387 . S
C450 C454 1.391 . S
C451 C450 1.387 . S
C451 C452 1.369 . S
C451 H460 0.929 . S
C452 N449 1.346 . S
C452 C451 1.369 . S
C452 H455 0.928 . S
C453 N449 1.345 . S
C453 C454 1.371 . S
C453 H456 0.931 . S
C454 C450 1.391 . S
C454 C453 1.371 . S
C454 H461 0.930 . S
H455 C452 0.928 . S
H456 C453 0.931 . S
H457 C433 0.930 . S
H458 C430 0.930 . S
H459 C439 0.930 . S
H460 C451 0.929 . S
H461 C454 0.930 . S
C462 C463 1.351 . S
C462 N465 1.368 . S
C462 H467 0.931 . S
C463 C462 1.351 . S
C463 N464 1.373 . S
C463 H491 0.930 . S
N464 C463 1.373 . S
N464 C466 1.340 . S
N465 C462 1.368 . S
N465 C466 1.321 . S
N465 Co468 2.135 . S
C466 N464 1.340 . S
C466 N465 1.321 . S
C466 H490 0.930 . S
H467 C462 0.931 . S
Co468 N465 2.135 . S
Co468 N471 2.121 . S
Co468 O476 2.055 . S
Co468 O479 2.039 . S
Co468 N482 2.140 . S
C469 O470 1.227 . S
C469 O479 1.265 . S
O470 C469 1.227 . S
N471 Co468 2.121 . S
N471 C473 1.375 . S
N471 C474 1.313 . S
C472 C473 1.338 . S
C472 N475 1.377 . S
C472 H492 0.930 . S
C473 N471 1.375 . S
C473 C472 1.338 . S
C473 H477 0.931 . S
C474 N471 1.313 . S
C474 N475 1.344 . S
C474 H478 0.930 . S
N475 C472 1.377 . S
N475 C474 1.344 . S
O476 Co468 2.055 . S
O476 C480 1.253 . S
H477 C473 0.931 . S
H478 C474 0.930 . S
O479 Co468 2.039 . S
O479 C469 1.265 . S
C480 O476 1.253 . S
C480 O481 1.227 . S
O481 C480 1.227 . S
N482 Co468 2.140 . S
N482 C485 1.346 . S
N482 C486 1.345 . S
C483 C484 1.387 . S
C483 C487 1.391 . S
C484 C483 1.387 . S
C484 C485 1.369 . S
C484 H493 0.929 . S
C485 N482 1.346 . S
C485 C484 1.369 . S
C485 H488 0.928 . S
C486 N482 1.345 . S
C486 C487 1.371 . S
C486 H489 0.931 . S
C487 C483 1.391 . S
C487 C486 1.371 . S
C487 H494 0.930 . S
H488 C485 0.928 . S
H489 C486 0.931 . S
H490 C466 0.930 . S
H491 C463 0.930 . S
H492 C472 0.930 . S
H493 C484 0.929 . S
H494 C487 0.930 . S
C495 C496 1.351 . S
C495 N498 1.368 . S
C495 H500 0.931 . S
C496 C495 1.351 . S
C496 N497 1.373 . S
C496 H524 0.930 . S
N497 C496 1.373 . S
N497 C499 1.340 . S
N498 C495 1.368 . S
N498 C499 1.321 . S
N498 Co501 2.135 . S
C499 N497 1.340 . S
C499 N498 1.321 . S
C499 H523 0.930 . S
H500 C495 0.931 . S
Co501 N498 2.135 . S
Co501 N504 2.121 1_455 S
Co501 O509 2.055 . S
Co501 O512 2.039 . S
Co501 N515 2.140 . S
C502 O503 1.227 . S
C502 O512 1.265 . S
O503 C502 1.227 . S
N504 Co501 2.121 1_655 S
N504 C506 1.375 . S
N504 C507 1.313 . S
C505 C506 1.338 . S
C505 N508 1.377 . S
C505 H525 0.930 . S
C506 N504 1.375 . S
C506 C505 1.338 . S
C506 H510 0.931 . S
C507 N504 1.313 . S
C507 N508 1.344 . S
C507 H511 0.930 . S
N508 C505 1.377 . S
N508 C507 1.344 . S
O509 Co501 2.055 . S
O509 C513 1.253 . S
H510 C506 0.931 . S
H511 C507 0.930 . S
O512 Co501 2.039 . S
O512 C502 1.265 . S
C513 O509 1.253 . S
C513 O514 1.227 . S
O514 C513 1.227 . S
N515 Co501 2.140 . S
N515 C518 1.346 . S
N515 C519 1.345 1_455 S
C516 C517 1.387 1_655 S
C516 C520 1.391 . S
C517 C516 1.387 1_455 S
C517 C518 1.369 . S
C517 H526 0.929 . S
C518 N515 1.346 . S
C518 C517 1.369 . S
C518 H521 0.928 . S
C519 N515 1.345 1_655 S
C519 C520 1.371 . S
C519 H522 0.931 . S
C520 C516 1.391 . S
C520 C519 1.371 . S
C520 H527 0.930 . S
H521 C518 0.928 . S
H522 C519 0.931 . S
H523 C499 0.930 . S
H524 C496 0.930 . S
H525 C505 0.930 . S
H526 C517 0.929 . S
H527 C520 0.930 . S
C528 C529 1.363 . S
C528 C534 1.379 . S
C528 N536 1.356 . S
C529 C528 1.363 . S
C529 C535 1.363 . S
C530 C531 1.363 . S
C530 C535 1.379 . S
C530 N537 1.356 . S
C531 C530 1.363 . S
C531 C534 1.363 . S
N532 C534 1.356 . S
N532 H544 0.984 . S
N532 H545 0.985 . S
N533 C535 1.356 . S
N533 H538 0.984 . S
N533 H539 0.985 . S
C534 C528 1.379 . S
C534 C531 1.363 . S
C534 N532 1.356 . S
C535 C529 1.363 . S
C535 C530 1.379 . S
C535 N533 1.356 . S
N536 C528 1.356 . S
N536 H542 0.984 . S
N536 H543 0.984 . S
N537 C530 1.356 . S
N537 H540 0.984 . S
N537 H541 0.985 . S
H538 N533 0.984 . S
H539 N533 0.985 . S
H540 N537 0.984 . S
H541 N537 0.985 . S
H542 N536 0.984 . S
H543 N536 0.984 . S
H544 N532 0.984 . S
H545 N532 0.985 . S
C546 C547 1.363 . S
C546 C552 1.379 . S
C546 N554 1.356 . S
C547 C546 1.363 . S
C547 C553 1.363 . S
C548 C549 1.363 . S
C548 C553 1.379 . S
C548 N555 1.356 . S
C549 C548 1.363 . S
C549 C552 1.363 . S
N550 C552 1.356 . S
N550 H562 0.984 . S
N550 H563 0.985 . S
N551 C553 1.356 . S
N551 H556 0.984 . S
N551 H557 0.985 . S
C552 C546 1.379 . S
C552 C549 1.363 . S
C552 N550 1.356 . S
C553 C547 1.363 . S
C553 C548 1.379 . S
C553 N551 1.356 . S
N554 C546 1.356 . S
N554 H560 0.984 . S
N554 H561 0.984 . S
N555 C548 1.356 . S
N555 H558 0.984 . S
N555 H559 0.985 . S
H556 N551 0.984 . S
H557 N551 0.985 . S
H558 N555 0.984 . S
H559 N555 0.985 . S
H560 N554 0.984 . S
H561 N554 0.984 . S
H562 N550 0.984 . S
H563 N550 0.985 . S
C564 C565 1.363 . S
C564 C570 1.379 . S
C564 N572 1.356 . S
C565 C564 1.363 . S
C565 C571 1.363 . S
C566 C567 1.363 . S
C566 C571 1.379 . S
C566 N573 1.356 . S
C567 C566 1.363 . S
C567 C570 1.363 . S
N568 C570 1.356 . S
N568 H580 0.984 . S
N568 H581 0.985 . S
N569 C571 1.356 1_455 S
N569 H574 0.984 . S
N569 H575 0.985 . S
C570 C564 1.379 . S
C570 C567 1.363 . S
C570 N568 1.356 . S
C571 C565 1.363 . S
C571 C566 1.379 . S
C571 N569 1.356 1_655 S
N572 C564 1.356 . S
N572 H578 0.984 . S
N572 H579 0.984 . S
N573 C566 1.356 . S
N573 H576 0.984 . S
N573 H577 0.985 1_655 S
H574 N569 0.984 . S
H575 N569 0.985 . S
H576 N573 0.984 . S
H577 N573 0.985 1_455 S
H578 N572 0.984 . S
H579 N572 0.984 . S
H580 N568 0.984 . S
H581 N568 0.985 . S
C582 C583 1.363 . S
C582 C588 1.379 . S
C582 N590 1.356 . S
C583 C582 1.363 . S
C583 C589 1.363 . S
C584 C585 1.363 . S
C584 C589 1.379 . S
C584 N591 1.356 . S
C585 C584 1.363 . S
C585 C588 1.363 . S
N586 C588 1.356 . S
N586 H598 0.984 . S
N586 H599 0.985 . S
N587 C589 1.356 . S
N587 H592 0.984 . S
N587 H593 0.985 . S
C588 C582 1.379 . S
C588 C585 1.363 . S
C588 N586 1.356 . S
C589 C583 1.363 . S
C589 C584 1.379 . S
C589 N587 1.356 . S
N590 C582 1.356 . S
N590 H596 0.984 . S
N590 H597 0.984 . S
N591 C584 1.356 . S
N591 H594 0.984 . S
N591 H595 0.985 . S
H592 N587 0.984 . S
H593 N587 0.985 . S
H594 N591 0.984 . S
H595 N591 0.985 . S
H596 N590 0.984 . S
H597 N590 0.984 . S
H598 N586 0.984 . S
H599 N586 0.985 . S
C600 C601 1.363 . S
C600 C606 1.379 . S
C600 N608 1.355 . S
C601 C600 1.363 . S
C601 C607 1.363 . S
C602 C603 1.363 . S
C602 C607 1.379 . S
C602 N609 1.356 . S
C603 C602 1.363 . S
C603 C606 1.363 . S
N604 C606 1.356 . S
N604 H616 0.984 . S
N604 H617 0.985 . S
N605 C607 1.356 . S
N605 H610 0.984 . S
N605 H611 0.985 . S
C606 C600 1.379 . S
C606 C603 1.363 . S
C606 N604 1.356 . S
C607 C601 1.363 . S
C607 C602 1.379 . S
C607 N605 1.356 . S
N608 C600 1.355 . S
N608 H614 0.985 1_455 S
N608 H615 0.985 1_455 S
N609 C602 1.356 . S
N609 H612 0.984 . S
N609 H613 0.985 . S
H610 N605 0.984 . S
H611 N605 0.985 . S
H612 N609 0.984 . S
H613 N609 0.985 . S
H614 N608 0.985 1_655 S
H615 N608 0.985 1_655 S
H616 N604 0.984 . S
H617 N604 0.985 . S
C618 C619 1.363 . S
C618 C624 1.379 . S
C618 N626 1.356 . S
C619 C618 1.363 . S
C619 C625 1.363 . S
C620 C621 1.363 . S
C620 C625 1.379 . S
C620 N627 1.356 . S
C621 C620 1.363 . S
C621 C624 1.363 . S
N622 C624 1.356 . S
N622 H634 0.984 . S
N622 H635 0.985 . S
N623 C625 1.356 1_565 S
N623 H628 0.984 . S
N623 H629 0.985 . S
C624 C618 1.379 . S
C624 C621 1.363 . S
C624 N622 1.356 . S
C625 C619 1.363 . S
C625 C620 1.379 . S
C625 N623 1.356 1_545 S
N626 C618 1.356 . S
N626 H632 0.984 . S
N626 H633 0.984 . S
N627 C620 1.356 . S
N627 H630 0.984 . S
N627 H631 0.985 1_545 S
H628 N623 0.984 . S
H629 N623 0.985 . S
H630 N627 0.984 . S
H631 N627 0.985 1_565 S
H632 N626 0.984 . S
H633 N626 0.984 . S
H634 N622 0.984 . S
H635 N622 0.985 . S
C636 C637 1.363 . S
C636 C642 1.379 . S
C636 N644 1.356 . S
C637 C636 1.363 . S
C637 C643 1.363 . S
C638 C639 1.363 . S
C638 C643 1.379 . S
C638 N645 1.356 . S
C639 C638 1.363 . S
C639 C642 1.363 . S
N640 C642 1.356 . S
N640 H652 0.984 . S
N640 H653 0.985 . S
N641 C643 1.356 . S
N641 H646 0.984 . S
N641 H647 0.985 . S
C642 C636 1.379 . S
C642 C639 1.363 . S
C642 N640 1.356 . S
C643 C637 1.363 . S
C643 C638 1.379 . S
C643 N641 1.356 . S
N644 C636 1.356 . S
N644 H650 0.984 . S
N644 H651 0.984 . S
N645 C638 1.356 . S
N645 H648 0.984 . S
N645 H649 0.985 . S
H646 N641 0.984 . S
H647 N641 0.985 . S
H648 N645 0.984 . S
H649 N645 0.985 . S
H650 N644 0.984 . S
H651 N644 0.984 . S
H652 N640 0.984 . S
H653 N640 0.985 . S
C654 C655 1.363 . S
C654 C660 1.379 . S
C654 N662 1.356 . S
C655 C654 1.363 . S
C655 C661 1.363 . S
C656 C657 1.363 . S
C656 C661 1.379 . S
C656 N663 1.356 . S
C657 C656 1.363 . S
C657 C660 1.363 . S
N658 C660 1.356 . S
N658 H670 0.984 . S
N658 H671 0.985 . S
N659 C661 1.356 . S
N659 H664 0.984 . S
N659 H665 0.985 . S
C660 C654 1.379 . S
C660 C657 1.363 . S
C660 N658 1.356 . S
C661 C655 1.363 . S
C661 C656 1.379 . S
C661 N659 1.356 . S
N662 C654 1.356 . S
N662 H668 0.984 . S
N662 H669 0.984 . S
N663 C656 1.356 . S
N663 H666 0.984 . S
N663 H667 0.985 . S
H664 N659 0.984 . S
H665 N659 0.985 . S
H666 N663 0.984 . S
H667 N663 0.985 . S
H668 N662 0.984 . S
H669 N662 0.984 . S
H670 N658 0.984 . S
H671 N658 0.985 . S
C672 C673 1.363 . S
C672 C678 1.379 . S
C672 N680 1.356 . S
C673 C672 1.363 . S
C673 C679 1.363 . S
C674 C675 1.363 . S
C674 C679 1.379 . S
C674 N681 1.356 . S
C675 C674 1.363 . S
C675 C678 1.363 . S
N676 C678 1.356 . S
N676 H688 0.984 . S
N676 H689 0.985 . S
N677 C679 1.356 . S
N677 H682 0.984 . S
N677 H683 0.985 . S
C678 C672 1.379 . S
C678 C675 1.363 . S
C678 N676 1.356 . S
C679 C673 1.363 . S
C679 C674 1.379 . S
C679 N677 1.356 . S
N680 C672 1.356 . S
N680 H686 0.984 . S
N680 H687 0.984 . S
N681 C674 1.356 . S
N681 H684 0.984 . S
N681 H685 0.985 . S
H682 N677 0.984 . S
H683 N677 0.985 . S
H684 N681 0.984 . S
H685 N681 0.985 . S
H686 N680 0.984 . S
H687 N680 0.984 . S
H688 N676 0.984 . S
H689 N676 0.985 . S
C690 C691 1.363 . S
C690 C696 1.379 . S
C690 N698 1.356 . S
C691 C690 1.363 . S
C691 C697 1.363 . S
C692 C693 1.363 . S
C692 C697 1.379 . S
C692 N699 1.356 . S
C693 C692 1.363 . S
C693 C696 1.363 . S
N694 C696 1.356 . S
N694 H706 0.984 . S
N694 H707 0.985 . S
N695 C697 1.356 . S
N695 H700 0.984 . S
N695 H701 0.985 . S
C696 C690 1.379 . S
C696 C693 1.363 . S
C696 N694 1.356 . S
C697 C691 1.363 . S
C697 C692 1.379 . S
C697 N695 1.356 . S
N698 C690 1.356 . S
N698 H704 0.984 . S
N698 H705 0.984 . S
N699 C692 1.356 . S
N699 H702 0.984 . S
N699 H703 0.985 . S
H700 N695 0.984 . S
H701 N695 0.985 . S
H702 N699 0.984 . S
H703 N699 0.985 . S
H704 N698 0.984 . S
H705 N698 0.984 . S
H706 N694 0.984 . S
H707 N694 0.985 . S
C708 C709 1.363 . S
C708 C714 1.379 . S
C708 N716 1.356 1_455 S
C709 C708 1.363 . S
C709 C715 1.363 . S
C710 C711 1.363 . S
C710 C715 1.379 . S
C710 N717 1.356 . S
C711 C710 1.363 . S
C711 C714 1.363 . S
N712 C714 1.356 . S
N712 H724 0.984 1_455 S
N712 H725 0.985 . S
N713 C715 1.356 . S
N713 H718 0.984 . S
N713 H719 0.985 . S
C714 C708 1.379 . S
C714 C711 1.363 . S
C714 N712 1.356 . S
C715 C709 1.363 . S
C715 C710 1.379 . S
C715 N713 1.356 . S
N716 C708 1.356 1_655 S
N716 H722 0.984 . S
N716 H723 0.984 . S
N717 C710 1.356 . S
N717 H720 0.984 . S
N717 H721 0.985 . S
H718 N713 0.984 . S
H719 N713 0.985 . S
H720 N717 0.984 . S
H721 N717 0.985 . S
H722 N716 0.984 . S
H723 N716 0.984 . S
H724 N712 0.984 1_655 S
H725 N712 0.985 . S
C726 C727 1.363 . S
C726 C732 1.379 . S
C726 N734 1.356 . S
C727 C726 1.363 . S
C727 C733 1.363 . S
C728 C729 1.363 . S
C728 C733 1.379 . S
C728 N735 1.356 . S
C729 C728 1.363 . S
C729 C732 1.363 . S
N730 C732 1.356 . S
N730 H742 0.984 . S
N730 H743 0.985 . S
N731 C733 1.356 . S
N731 H736 0.984 . S
N731 H737 0.985 . S
C732 C726 1.379 . S
C732 C729 1.363 . S
C732 N730 1.356 . S
C733 C727 1.363 . S
C733 C728 1.379 . S
C733 N731 1.356 . S
N734 C726 1.356 . S
N734 H740 0.984 . S
N734 H741 0.984 . S
N735 C728 1.356 . S
N735 H738 0.984 . S
N735 H739 0.985 . S
H736 N731 0.984 . S
H737 N731 0.985 . S
H738 N735 0.984 . S
H739 N735 0.985 . S
H740 N734 0.984 . S
H741 N734 0.984 . S
H742 N730 0.984 . S
H743 N730 0.985 . S
C744 C745 1.363 . S
C744 C750 1.379 . S
C744 N752 1.356 1_655 S
C745 C744 1.363 . S
C745 C751 1.363 . S
C746 C747 1.363 . S
C746 C751 1.379 . S
C746 N753 1.356 . S
C747 C746 1.363 . S
C747 C750 1.363 . S
N748 C750 1.356 . S
N748 H760 0.984 1_655 S
N748 H761 0.985 . S
N749 C751 1.356 . S
N749 H754 0.984 . S
N749 H755 0.985 . S
C750 C744 1.379 . S
C750 C747 1.363 . S
C750 N748 1.356 . S
C751 C745 1.363 . S
C751 C746 1.379 . S
C751 N749 1.356 . S
N752 C744 1.356 1_455 S
N752 H758 0.984 . S
N752 H759 0.984 . S
N753 C746 1.356 . S
N753 H756 0.984 . S
N753 H757 0.985 . S
H754 N749 0.984 . S
H755 N749 0.985 . S
H756 N753 0.984 . S
H757 N753 0.985 . S
H758 N752 0.984 . S
H759 N752 0.984 . S
H760 N748 0.984 1_455 S
H761 N748 0.985 . S
C762 C763 1.363 . S
C762 C768 1.379 . S
C762 N770 1.356 . S
C763 C762 1.363 . S
C763 C769 1.363 . S
C764 C765 1.363 . S
C764 C769 1.379 . S
C764 N771 1.356 . S
C765 C764 1.363 . S
C765 C768 1.363 . S
N766 C768 1.356 . S
N766 H778 0.984 . S
N766 H779 0.985 . S
N767 C769 1.356 . S
N767 H772 0.984 . S
N767 H773 0.985 . S
C768 C762 1.379 . S
C768 C765 1.363 . S
C768 N766 1.356 . S
C769 C763 1.363 . S
C769 C764 1.379 . S
C769 N767 1.356 . S
N770 C762 1.356 . S
N770 H776 0.984 . S
N770 H777 0.984 . S
N771 C764 1.356 . S
N771 H774 0.984 . S
N771 H775 0.985 . S
H772 N767 0.984 . S
H773 N767 0.985 . S
H774 N771 0.984 . S
H775 N771 0.985 . S
H776 N770 0.984 . S
H777 N770 0.984 . S
H778 N766 0.984 . S
H779 N766 0.985 . S
C780 C781 1.363 . S
C780 C786 1.379 . S
C780 N788 1.356 . S
C781 C780 1.363 . S
C781 C787 1.363 . S
C782 C783 1.363 . S
C782 C787 1.379 . S
C782 N789 1.356 . S
C783 C782 1.363 . S
C783 C786 1.363 . S
N784 C786 1.356 . S
N784 H796 0.984 . S
N784 H797 0.985 . S
N785 C787 1.356 . S
N785 H790 0.984 . S
N785 H791 0.985 . S
C786 C780 1.379 . S
C786 C783 1.363 . S
C786 N784 1.356 . S
C787 C781 1.363 . S
C787 C782 1.379 . S
C787 N785 1.356 . S
N788 C780 1.356 . S
N788 H794 0.984 . S
N788 H795 0.984 . S
N789 C782 1.356 . S
N789 H792 0.984 . S
N789 H793 0.985 . S
H790 N785 0.984 . S
H791 N785 0.985 . S
H792 N789 0.984 . S
H793 N789 0.985 . S
H794 N788 0.984 . S
H795 N788 0.984 . S
H796 N784 0.984 . S
H797 N784 0.985 . S
C798 C799 1.363 . S
C798 C804 1.379 . S
C798 N806 1.356 . S
C799 C798 1.363 . S
C799 C805 1.363 . S
C800 C801 1.363 . S
C800 C805 1.379 . S
C800 N807 1.356 . S
C801 C800 1.363 . S
C801 C804 1.363 . S
N802 C804 1.356 . S
N802 H814 0.984 . S
N802 H815 0.985 . S
N803 C805 1.356 . S
N803 H808 0.984 . S
N803 H809 0.985 . S
C804 C798 1.379 . S
C804 C801 1.363 . S
C804 N802 1.356 . S
C805 C799 1.363 . S
C805 C800 1.379 . S
C805 N803 1.356 . S
N806 C798 1.356 . S
N806 H812 0.984 . S
N806 H813 0.984 . S
N807 C800 1.356 . S
N807 H810 0.984 . S
N807 H811 0.985 . S
H808 N803 0.984 . S
H809 N803 0.985 . S
H810 N807 0.984 . S
H811 N807 0.985 . S
H812 N806 0.984 . S
H813 N806 0.984 . S
H814 N802 0.984 . S
H815 N802 0.985 . S
C816 C817 1.363 . S
C816 C822 1.379 . S
C816 N824 1.356 . S
C817 C816 1.363 . S
C817 C823 1.363 . S
C818 C819 1.363 . S
C818 C823 1.379 . S
C818 N825 1.356 . S
C819 C818 1.363 . S
C819 C822 1.363 . S
N820 C822 1.356 . S
N820 H832 0.984 . S
N820 H833 0.985 . S
N821 C823 1.356 . S
N821 H826 0.984 . S
N821 H827 0.985 . S
C822 C816 1.379 . S
C822 C819 1.363 . S
C822 N820 1.356 . S
C823 C817 1.363 . S
C823 C818 1.379 . S
C823 N821 1.356 . S
N824 C816 1.356 . S
N824 H830 0.984 . S
N824 H831 0.984 . S
N825 C818 1.356 . S
N825 H828 0.984 . S
N825 H829 0.985 . S
H826 N821 0.984 . S
H827 N821 0.985 . S
H828 N825 0.984 . S
H829 N825 0.985 . S
H830 N824 0.984 . S
H831 N824 0.984 . S
H832 N820 0.984 . S
H833 N820 0.985 . S
C834 C835 1.363 . S
C834 C840 1.379 . S
C834 N842 1.356 . S
C835 C834 1.363 . S
C835 C841 1.363 . S
C836 C837 1.363 . S
C836 C841 1.379 . S
C836 N843 1.356 . S
C837 C836 1.363 . S
C837 C840 1.363 . S
N838 C840 1.356 . S
N838 H850 0.984 . S
N838 H851 0.985 . S
N839 C841 1.356 . S
N839 H844 0.984 . S
N839 H845 0.985 . S
C840 C834 1.379 . S
C840 C837 1.363 . S
C840 N838 1.356 . S
C841 C835 1.363 . S
C841 C836 1.379 . S
C841 N839 1.356 . S
N842 C834 1.356 . S
N842 H848 0.984 . S
N842 H849 0.984 . S
N843 C836 1.356 . S
N843 H846 0.984 . S
N843 H847 0.985 . S
H844 N839 0.984 . S
H845 N839 0.985 . S
H846 N843 0.984 . S
H847 N843 0.985 . S
H848 N842 0.984 . S
H849 N842 0.984 . S
H850 N838 0.984 . S
H851 N838 0.985 . S
C852 C853 1.363 . S
C852 C858 1.379 . S
C852 N860 1.356 . S
C853 C852 1.363 . S
C853 C859 1.363 . S
C854 C855 1.363 . S
C854 C859 1.379 . S
C854 N861 1.356 . S
C855 C854 1.363 . S
C855 C858 1.363 . S
N856 C858 1.356 . S
N856 H868 0.984 . S
N856 H869 0.985 . S
N857 C859 1.356 . S
N857 H862 0.984 . S
N857 H863 0.985 . S
C858 C852 1.379 . S
C858 C855 1.363 . S
C858 N856 1.356 . S
C859 C853 1.363 . S
C859 C854 1.379 . S
C859 N857 1.356 . S
N860 C852 1.356 . S
N860 H866 0.984 . S
N860 H867 0.984 . S
N861 C854 1.356 . S
N861 H864 0.984 . S
N861 H865 0.985 . S
H862 N857 0.984 . S
H863 N857 0.985 . S
H864 N861 0.984 . S
H865 N861 0.985 . S
H866 N860 0.984 . S
H867 N860 0.984 . S
H868 N856 0.984 . S
H869 N856 0.985 . S
C870 C871 1.363 . S
C870 C876 1.379 . S
C870 N878 1.356 . S
C871 C870 1.363 . S
C871 C877 1.363 . S
C872 C873 1.363 . S
C872 C877 1.379 . S
C872 N879 1.356 . S
C873 C872 1.363 . S
C873 C876 1.363 . S
N874 C876 1.356 . S
N874 H886 0.984 . S
N874 H887 0.985 . S
N875 C877 1.356 . S
N875 H880 0.984 . S
N875 H881 0.985 . S
C876 C870 1.379 . S
C876 C873 1.363 . S
C876 N874 1.356 . S
C877 C871 1.363 . S
C877 C872 1.379 . S
C877 N875 1.356 . S
N878 C870 1.356 . S
N878 H884 0.984 . S
N878 H885 0.984 . S
N879 C872 1.356 . S
N879 H882 0.984 . S
N879 H883 0.985 . S
H880 N875 0.984 . S
H881 N875 0.985 . S
H882 N879 0.984 . S
H883 N879 0.985 . S
H884 N878 0.984 . S
H885 N878 0.984 . S
H886 N874 0.984 . S
H887 N874 0.985 . S
C888 C889 1.363 . S
C888 C894 1.379 . S
C888 N896 1.356 . S
C889 C888 1.363 . S
C889 C895 1.363 . S
C890 C891 1.363 . S
C890 C895 1.379 . S
C890 N897 1.356 . S
C891 C890 1.363 . S
C891 C894 1.363 . S
N892 C894 1.356 . S
N892 H904 0.984 . S
N892 H905 0.985 . S
N893 C895 1.356 . S
N893 H898 0.984 . S
N893 H899 0.985 . S
C894 C888 1.379 . S
C894 C891 1.363 . S
C894 N892 1.356 . S
C895 C889 1.363 . S
C895 C890 1.379 . S
C895 N893 1.356 . S
N896 C888 1.356 . S
N896 H902 0.984 . S
N896 H903 0.984 . S
N897 C890 1.356 . S
N897 H900 0.984 . S
N897 H901 0.985 . S
H898 N893 0.984 . S
H899 N893 0.985 . S
H900 N897 0.984 . S
H901 N897 0.985 . S
H902 N896 0.984 . S
H903 N896 0.984 . S
H904 N892 0.984 . S
H905 N892 0.985 . S
C906 C907 1.363 . S
C906 C912 1.379 . S
C906 N914 1.356 . S
C907 C906 1.363 . S
C907 C913 1.363 . S
C908 C909 1.363 . S
C908 C913 1.379 . S
C908 N915 1.356 . S
C909 C908 1.363 . S
C909 C912 1.363 . S
N910 C912 1.356 . S
N910 H922 0.984 . S
N910 H923 0.985 . S
N911 C913 1.356 . S
N911 H916 0.984 . S
N911 H917 0.985 . S
C912 C906 1.379 . S
C912 C909 1.363 . S
C912 N910 1.356 . S
C913 C907 1.363 . S
C913 C908 1.379 . S
C913 N911 1.356 . S
N914 C906 1.356 . S
N914 H920 0.984 . S
N914 H921 0.984 . S
N915 C908 1.356 . S
N915 H918 0.984 . S
N915 H919 0.985 . S
H916 N911 0.984 . S
H917 N911 0.985 . S
H918 N915 0.984 . S
H919 N915 0.985 . S
H920 N914 0.984 . S
H921 N914 0.984 . S
H922 N910 0.984 . S
H923 N910 0.985 . S
C924 C925 1.363 . S
C924 C930 1.379 . S
C924 N932 1.356 . S
C925 C924 1.363 . S
C925 C931 1.363 . S
C926 C927 1.363 . S
C926 C931 1.379 . S
C926 N933 1.356 . S
C927 C926 1.363 . S
C927 C930 1.363 . S
N928 C930 1.356 . S
N928 H940 0.984 . S
N928 H941 0.985 . S
N929 C931 1.356 . S
N929 H934 0.984 . S
N929 H935 0.985 . S
C930 C924 1.379 . S
C930 C927 1.363 . S
C930 N928 1.356 . S
C931 C925 1.363 . S
C931 C926 1.379 . S
C931 N929 1.356 . S
N932 C924 1.356 . S
N932 H938 0.984 . S
N932 H939 0.984 . S
N933 C926 1.356 . S
N933 H936 0.984 . S
N933 H937 0.985 . S
H934 N929 0.984 . S
H935 N929 0.985 . S
H936 N933 0.984 . S
H937 N933 0.985 . S
H938 N932 0.984 . S
H939 N932 0.984 . S
H940 N928 0.984 . S
H941 N928 0.985 . S
C942 C943 1.363 . S
C942 C948 1.379 . S
C942 N950 1.356 . S
C943 C942 1.363 . S
C943 C949 1.363 . S
C944 C945 1.363 . S
C944 C949 1.379 . S
C944 N951 1.356 . S
C945 C944 1.363 . S
C945 C948 1.363 . S
N946 C948 1.356 . S
N946 H958 0.984 . S
N946 H959 0.985 . S
N947 C949 1.356 . S
N947 H952 0.984 . S
N947 H953 0.985 . S
C948 C942 1.379 . S
C948 C945 1.363 . S
C948 N946 1.356 . S
C949 C943 1.363 . S
C949 C944 1.379 . S
C949 N947 1.356 . S
N950 C942 1.356 . S
N950 H956 0.984 . S
N950 H957 0.984 . S
N951 C944 1.356 . S
N951 H954 0.984 . S
N951 H955 0.985 . S
H952 N947 0.984 . S
H953 N947 0.985 . S
H954 N951 0.984 . S
H955 N951 0.985 . S
H956 N950 0.984 . S
H957 N950 0.984 . S
H958 N946 0.984 . S
H959 N946 0.985 . S
C960 C961 1.363 1_565 S
C960 C966 1.379 1_554 S
C960 N968 1.356 . S
C961 C960 1.363 1_545 S
C961 C967 1.363 . S
C962 C963 1.363 1_545 S
C962 C967 1.379 1_556 S
C962 N969 1.356 . S
C963 C962 1.363 1_565 S
C963 C966 1.363 . S
N964 C966 1.356 . S
N964 H976 0.984 . S
N964 H977 0.985 . S
N965 C967 1.356 . S
N965 H970 0.984 . S
N965 H971 0.985 . S
C966 C960 1.379 1_556 S
C966 C963 1.363 . S
C966 N964 1.356 . S
C967 C961 1.363 . S
C967 C962 1.379 1_554 S
C967 N965 1.356 . S
N968 C960 1.356 . S
N968 H974 0.984 . S
N968 H975 0.984 . S
N969 C962 1.356 . S
N969 H972 0.984 . S
N969 H973 0.985 . S
H970 N965 0.984 . S
H971 N965 0.985 . S
H972 N969 0.984 . S
H973 N969 0.985 . S
H974 N968 0.984 . S
H975 N968 0.984 . S
H976 N964 0.984 . S
H977 N964 0.985 . S
C978 C979 1.363 . S
C978 C984 1.379 . S
C978 N986 1.356 . S
C979 C978 1.363 . S
C979 C985 1.363 1_554 S
C980 C981 1.363 . S
C980 C985 1.379 . S
C980 N987 1.356 . S
C981 C980 1.363 . S
C981 C984 1.363 1_556 S
N982 C984 1.356 1_556 S
N982 H994 0.984 1_556 S
N982 H995 0.985 . S
N983 C985 1.356 1_554 S
N983 H988 0.984 . S
N983 H989 0.985 1_554 S
C984 C978 1.379 . S
C984 C981 1.363 1_554 S
C984 N982 1.356 1_554 S
C985 C979 1.363 1_556 S
C985 C980 1.379 . S
C985 N983 1.356 1_556 S
N986 C978 1.356 . S
N986 H992 0.984 . S
N986 H993 0.984 . S
N987 C980 1.356 . S
N987 H990 0.984 . S
N987 H991 0.985 . S
H988 N983 0.984 . S
H989 N983 0.985 1_556 S
H990 N987 0.984 . S
H991 N987 0.985 . S
H992 N986 0.984 . S
H993 N986 0.984 . S
H994 N982 0.984 1_554 S
H995 N982 0.985 . S
C996 C997 1.363 . S
C996 C1002 1.379 1_655 S
C996 N1004 1.356 . S
C997 C996 1.363 . S
C997 C1003 1.363 1_554 S
C998 C999 1.363 . S
C998 C1003 1.379 1_455 S
C998 N1005 1.356 . S
C999 C998 1.363 . S
C999 C1002 1.363 1_556 S
N1000 C1002 1.356 . S
N1000 H1012 0.984 . S
N1000 H1013 0.985 . S
N1001 C1003 1.356 . S
N1001 H1006 0.984 . S
N1001 H1007 0.985 . S
C1002 C996 1.379 1_455 S
C1002 C999 1.363 1_554 S
C1002 N1000 1.356 . S
C1003 C997 1.363 1_556 S
C1003 C998 1.379 1_655 S
C1003 N1001 1.356 . S
N1004 C996 1.356 . S
N1004 H1010 0.984 1_655 S
N1004 H1011 0.984 . S
N1005 C998 1.356 . S
N1005 H1008 0.984 . S
N1005 H1009 0.985 1_455 S
H1006 N1001 0.984 . S
H1007 N1001 0.985 . S
H1008 N1005 0.984 . S
H1009 N1005 0.985 1_655 S
H1010 N1004 0.984 1_455 S
H1011 N1004 0.984 . S
H1012 N1000 0.984 . S
H1013 N1000 0.985 . S
C1014 C1015 1.370 1_554 S
C1014 C1020 1.372 1_655 S
C1014 N1022 1.359 . S
C1015 C1014 1.370 1_556 S
C1015 C1021 1.363 1_545 S
C1016 C1017 1.370 1_556 S
C1016 C1021 1.372 1_455 S
C1016 N1023 1.359 . S
C1017 C1016 1.370 1_554 S
C1017 C1020 1.363 1_565 S
N1018 C1020 1.356 1_565 S
N1018 H1030 0.984 1_565 S
N1018 H1031 0.985 . S
N1019 C1021 1.356 1_545 S
N1019 H1024 0.984 . S
N1019 H1025 0.985 1_545 S
C1020 C1014 1.372 1_455 S
C1020 C1017 1.363 1_545 S
C1020 N1018 1.356 1_545 S
C1021 C1015 1.363 1_565 S
C1021 C1016 1.372 1_655 S
C1021 N1019 1.356 1_565 S
N1022 C1014 1.359 . S
N1022 H1028 0.984 1_655 S
N1022 H1029 0.984 . S
N1023 C1016 1.359 . S
N1023 H1026 0.984 . S
N1023 H1027 0.985 1_455 S
H1024 N1019 0.984 . S
H1025 N1019 0.985 1_565 S
H1026 N1023 0.984 . S
H1027 N1023 0.985 1_655 S
H1028 N1022 0.984 1_455 S
H1029 N1022 0.984 . S
H1030 N1018 0.984 1_545 S
H1031 N1018 0.985 . S
C1032 C1033 1.363 . S
C1032 C1038 1.379 1_655 S
C1032 N1040 1.356 . S
C1033 C1032 1.363 . S
C1033 C1039 1.363 1_545 S
C1034 C1035 1.363 . S
C1034 C1039 1.379 1_455 S
C1034 N1041 1.356 . S
C1035 C1034 1.363 . S
C1035 C1038 1.363 1_565 S
N1036 C1038 1.356 . S
N1036 H1048 0.984 . S
N1036 H1049 0.985 . S
N1037 C1039 1.356 . S
N1037 H1042 0.984 . S
N1037 H1043 0.985 . S
C1038 C1032 1.379 1_455 S
C1038 C1035 1.363 1_545 S
C1038 N1036 1.356 . S
C1039 C1033 1.363 1_565 S
C1039 C1034 1.379 1_655 S
C1039 N1037 1.356 . S
N1040 C1032 1.356 . S
N1040 H1046 0.984 . S
N1040 H1047 0.984 . S
N1041 C1034 1.356 . S
N1041 H1044 0.984 . S
N1041 H1045 0.985 . S
H1042 N1037 0.984 . S
H1043 N1037 0.985 . S
H1044 N1041 0.984 . S
H1045 N1041 0.985 . S
H1046 N1040 0.984 . S
H1047 N1040 0.984 . S
H1048 N1036 0.984 . S
H1049 N1036 0.985 . S
C1050 C1051 1.363 . S
C1050 C1056 1.379 1_545 S
C1050 N1058 1.356 . S
C1051 C1050 1.363 . S
C1051 C1057 1.363 . S
C1052 C1053 1.363 . S
C1052 C1057 1.379 1_565 S
C1052 N1059 1.356 . S
C1053 C1052 1.363 . S
C1053 C1056 1.363 . S
N1054 C1056 1.356 . S
N1054 H1066 0.984 . S
N1054 H1067 0.985 . S
N1055 C1057 1.356 . S
N1055 H1060 0.984 . S
N1055 H1061 0.985 . S
C1056 C1050 1.379 1_565 S
C1056 C1053 1.363 . S
C1056 N1054 1.356 . S
C1057 C1051 1.363 . S
C1057 C1052 1.379 1_545 S
C1057 N1055 1.356 . S
N1058 C1050 1.356 . S
N1058 H1064 0.984 . S
N1058 H1065 0.984 . S
N1059 C1052 1.356 . S
N1059 H1062 0.984 . S
N1059 H1063 0.985 . S
H1060 N1055 0.984 . S
H1061 N1055 0.985 . S
H1062 N1059 0.984 . S
H1063 N1059 0.985 . S
H1064 N1058 0.984 . S
H1065 N1058 0.984 . S
H1066 N1054 0.984 . S
H1067 N1054 0.985 . S
C1068 C1069 1.363 . S
C1068 C1074 1.379 . S
C1068 N1076 1.356 . S
C1069 C1068 1.363 . S
C1069 C1075 1.363 . S
C1070 C1071 1.363 . S
C1070 C1075 1.379 . S
C1070 N1077 1.356 . S
C1071 C1070 1.363 . S
C1071 C1074 1.363 . S
N1072 C1074 1.356 . S
N1072 H1084 0.984 . S
N1072 H1085 0.985 . S
N1073 C1075 1.356 . S
N1073 H1078 0.984 . S
N1073 H1079 0.985 . S
C1074 C1068 1.379 . S
C1074 C1071 1.363 . S
C1074 N1072 1.356 . S
C1075 C1069 1.363 . S
C1075 C1070 1.379 . S
C1075 N1073 1.356 . S
N1076 C1068 1.356 . S
N1076 H1082 0.984 . S
N1076 H1083 0.984 . S
N1077 C1070 1.356 . S
N1077 H1080 0.984 . S
N1077 H1081 0.985 . S
H1078 N1073 0.984 . S
H1079 N1073 0.985 . S
H1080 N1077 0.984 . S
H1081 N1077 0.985 . S
H1082 N1076 0.984 . S
H1083 N1076 0.984 . S
H1084 N1072 0.984 . S
H1085 N1072 0.985 . S
C1086 C1087 1.363 1_655 S
C1086 C1092 1.379 . S
C1086 N1094 1.356 . S
C1087 C1086 1.363 1_455 S
C1087 C1093 1.363 . S
C1088 C1089 1.363 1_455 S
C1088 C1093 1.379 . S
C1088 N1095 1.356 . S
C1089 C1088 1.363 1_655 S
C1089 C1092 1.363 . S
N1090 C1092 1.356 . S
N1090 H1102 0.984 . S
N1090 H1103 0.985 . S
N1091 C1093 1.356 . S
N1091 H1096 0.984 . S
N1091 H1097 0.985 . S
C1092 C1086 1.379 . S
C1092 C1089 1.363 . S
C1092 N1090 1.356 . S
C1093 C1087 1.363 . S
C1093 C1088 1.379 . S
C1093 N1091 1.356 . S
N1094 C1086 1.356 . S
N1094 H1100 0.984 . S
N1094 H1101 0.984 . S
N1095 C1088 1.356 . S
N1095 H1098 0.984 . S
N1095 H1099 0.985 . S
H1096 N1091 0.984 . S
H1097 N1091 0.985 . S
H1098 N1095 0.984 . S
H1099 N1095 0.985 . S
H1100 N1094 0.984 . S
H1101 N1094 0.984 . S
H1102 N1090 0.984 . S
H1103 N1090 0.985 . S
C1104 C1105 1.363 . S
C1104 C1110 1.379 . S
C1104 N1112 1.356 . S
C1105 C1104 1.363 . S
C1105 C1111 1.363 . S
C1106 C1107 1.363 . S
C1106 C1111 1.379 . S
C1106 N1113 1.356 . S
C1107 C1106 1.363 . S
C1107 C1110 1.363 . S
N1108 C1110 1.356 . S
N1108 H1120 0.984 . S
N1108 H1121 0.985 . S
N1109 C1111 1.356 . S
N1109 H1114 0.984 . S
N1109 H1115 0.985 . S
C1110 C1104 1.379 . S
C1110 C1107 1.363 . S
C1110 N1108 1.356 . S
C1111 C1105 1.363 . S
C1111 C1106 1.379 . S
C1111 N1109 1.356 . S
N1112 C1104 1.356 . S
N1112 H1118 0.984 . S
N1112 H1119 0.984 . S
N1113 C1106 1.356 . S
N1113 H1116 0.984 . S
N1113 H1117 0.985 . S
H1114 N1109 0.984 . S
H1115 N1109 0.985 . S
H1116 N1113 0.984 . S
H1117 N1113 0.985 . S
H1118 N1112 0.984 . S
H1119 N1112 0.984 . S
H1120 N1108 0.984 . S
H1121 N1108 0.985 . S
C1122 C1123 1.363 . S
C1122 C1128 1.379 . S
C1122 N1130 1.356 . S
C1123 C1122 1.363 . S
C1123 C1129 1.363 . S
C1124 C1125 1.363 . S
C1124 C1129 1.379 . S
C1124 N1131 1.356 . S
C1125 C1124 1.363 . S
C1125 C1128 1.363 . S
N1126 C1128 1.356 . S
N1126 H1138 0.984 . S
N1126 H1139 0.985 . S
N1127 C1129 1.356 . S
N1127 H1132 0.984 . S
N1127 H1133 0.985 . S
C1128 C1122 1.379 . S
C1128 C1125 1.363 . S
C1128 N1126 1.356 . S
C1129 C1123 1.363 . S
C1129 C1124 1.379 . S
C1129 N1127 1.356 . S
N1130 C1122 1.356 . S
N1130 H1136 0.984 . S
N1130 H1137 0.984 . S
N1131 C1124 1.356 . S
N1131 H1134 0.984 . S
N1131 H1135 0.985 . S
H1132 N1127 0.984 . S
H1133 N1127 0.985 . S
H1134 N1131 0.984 . S
H1135 N1131 0.985 . S
H1136 N1130 0.984 . S
H1137 N1130 0.984 . S
H1138 N1126 0.984 . S
H1139 N1126 0.985 . S
C1140 C1141 1.363 . S
C1140 C1146 1.379 . S
C1140 N1148 1.356 . S
C1141 C1140 1.363 . S
C1141 C1147 1.363 . S
C1142 C1143 1.363 . S
C1142 C1147 1.379 . S
C1142 N1149 1.356 . S
C1143 C1142 1.363 . S
C1143 C1146 1.363 . S
N1144 C1146 1.356 . S
N1144 H1156 0.984 . S
N1144 H1157 0.985 . S
N1145 C1147 1.356 . S
N1145 H1150 0.984 . S
N1145 H1151 0.985 . S
C1146 C1140 1.379 . S
C1146 C1143 1.363 . S
C1146 N1144 1.356 . S
C1147 C1141 1.363 . S
C1147 C1142 1.379 . S
C1147 N1145 1.356 . S
N1148 C1140 1.356 . S
N1148 H1154 0.984 . S
N1148 H1155 0.984 . S
N1149 C1142 1.356 . S
N1149 H1152 0.984 . S
N1149 H1153 0.985 . S
H1150 N1145 0.984 . S
H1151 N1145 0.985 . S
H1152 N1149 0.984 . S
H1153 N1149 0.985 . S
H1154 N1148 0.984 . S
H1155 N1148 0.984 . S
H1156 N1144 0.984 . S
H1157 N1144 0.985 . S
C1158 C1159 1.363 . S
C1158 C1164 1.379 . S
C1158 N1166 1.356 . S
C1159 C1158 1.363 . S
C1159 C1165 1.363 . S
C1160 C1161 1.363 . S
C1160 C1165 1.379 . S
C1160 N1167 1.356 . S
C1161 C1160 1.363 . S
C1161 C1164 1.363 . S
N1162 C1164 1.356 . S
N1162 H1174 0.984 . S
N1162 H1175 0.985 . S
N1163 C1165 1.356 . S
N1163 H1168 0.984 . S
N1163 H1169 0.985 . S
C1164 C1158 1.379 . S
C1164 C1161 1.363 . S
C1164 N1162 1.356 . S
C1165 C1159 1.363 . S
C1165 C1160 1.379 . S
C1165 N1163 1.356 . S
N1166 C1158 1.356 . S
N1166 H1172 0.984 1_565 S
N1166 H1173 0.984 . S
N1167 C1160 1.356 . S
N1167 H1170 0.984 . S
N1167 H1171 0.985 . S
H1168 N1163 0.984 . S
H1169 N1163 0.985 . S
H1170 N1167 0.984 . S
H1171 N1167 0.985 . S
H1172 N1166 0.984 1_545 S
H1173 N1166 0.984 . S
H1174 N1162 0.984 . S
H1175 N1162 0.985 . S
C1176 C1177 1.363 . S
C1176 C1182 1.379 . S
C1176 N1184 1.356 . S
C1177 C1176 1.363 . S
C1177 C1183 1.363 . S
C1178 C1179 1.363 . S
C1178 C1183 1.379 . S
C1178 N1185 1.356 . S
C1179 C1178 1.363 . S
C1179 C1182 1.363 . S
N1180 C1182 1.356 . S
N1180 H1192 0.984 . S
N1180 H1193 0.985 . S
N1181 C1183 1.356 . S
N1181 H1186 0.984 . S
N1181 H1187 0.985 . S
C1182 C1176 1.379 . S
C1182 C1179 1.363 . S
C1182 N1180 1.356 . S
C1183 C1177 1.363 . S
C1183 C1178 1.379 . S
C1183 N1181 1.356 . S
N1184 C1176 1.356 . S
N1184 H1190 0.984 . S
N1184 H1191 0.984 . S
N1185 C1178 1.356 . S
N1185 H1188 0.984 . S
N1185 H1189 0.985 . S
H1186 N1181 0.984 . S
H1187 N1181 0.985 . S
H1188 N1185 0.984 . S
H1189 N1185 0.985 . S
H1190 N1184 0.984 . S
H1191 N1184 0.984 . S
H1192 N1180 0.984 . S
H1193 N1180 0.985 . S
C1194 C1195 1.363 . S
C1194 C1200 1.379 . S
C1194 N1202 1.356 . S
C1195 C1194 1.363 . S
C1195 C1201 1.363 . S
C1196 C1197 1.363 . S
C1196 C1201 1.379 . S
C1196 N1203 1.356 . S
C1197 C1196 1.363 . S
C1197 C1200 1.363 . S
N1198 C1200 1.356 . S
N1198 H1210 0.984 . S
N1198 H1211 0.985 . S
N1199 C1201 1.356 . S
N1199 H1204 0.984 . S
N1199 H1205 0.985 . S
C1200 C1194 1.379 . S
C1200 C1197 1.363 . S
C1200 N1198 1.356 . S
C1201 C1195 1.363 . S
C1201 C1196 1.379 . S
C1201 N1199 1.356 . S
N1202 C1194 1.356 . S
N1202 H1208 0.984 . S
N1202 H1209 0.984 . S
N1203 C1196 1.356 . S
N1203 H1206 0.984 . S
N1203 H1207 0.985 . S
H1204 N1199 0.984 . S
H1205 N1199 0.985 . S
H1206 N1203 0.984 . S
H1207 N1203 0.985 . S
H1208 N1202 0.984 . S
H1209 N1202 0.984 . S
H1210 N1198 0.984 . S
H1211 N1198 0.985 . S
C1212 C1213 1.363 . S
C1212 C1218 1.379 . S
C1212 N1220 1.356 . S
C1213 C1212 1.363 . S
C1213 C1219 1.363 . S
C1214 C1215 1.363 . S
C1214 C1219 1.379 . S
C1214 N1221 1.356 . S
C1215 C1214 1.363 . S
C1215 C1218 1.363 . S
N1216 C1218 1.356 . S
N1216 H1228 0.984 . S
N1216 H1229 0.985 . S
N1217 C1219 1.356 . S
N1217 H1222 0.984 . S
N1217 H1223 0.985 . S
C1218 C1212 1.379 . S
C1218 C1215 1.363 . S
C1218 N1216 1.356 . S
C1219 C1213 1.363 . S
C1219 C1214 1.379 . S
C1219 N1217 1.356 . S
N1220 C1212 1.356 . S
N1220 H1226 0.984 . S
N1220 H1227 0.984 . S
N1221 C1214 1.356 . S
N1221 H1224 0.984 . S
N1221 H1225 0.985 . S
H1222 N1217 0.984 . S
H1223 N1217 0.985 . S
H1224 N1221 0.984 . S
H1225 N1221 0.985 . S
H1226 N1220 0.984 . S
H1227 N1220 0.984 . S
H1228 N1216 0.984 . S
H1229 N1216 0.985 . S
C1230 C1231 1.363 . S
C1230 C1236 1.379 . S
C1230 N1238 1.356 . S
C1231 C1230 1.363 . S
C1231 C1237 1.363 . S
C1232 C1233 1.363 . S
C1232 C1237 1.379 . S
C1232 N1239 1.356 . S
C1233 C1232 1.363 . S
C1233 C1236 1.363 . S
N1234 C1236 1.356 . S
N1234 H1246 0.984 1_545 S
N1234 H1247 0.985 . S
N1235 C1237 1.356 . S
N1235 H1240 0.984 . S
N1235 H1241 0.985 . S
C1236 C1230 1.379 . S
C1236 C1233 1.363 . S
C1236 N1234 1.356 . S
C1237 C1231 1.363 . S
C1237 C1232 1.379 . S
C1237 N1235 1.356 . S
N1238 C1230 1.356 . S
N1238 H1244 0.984 . S
N1238 H1245 0.984 . S
N1239 C1232 1.356 . S
N1239 H1242 0.984 . S
N1239 H1243 0.985 . S
H1240 N1235 0.984 . S
H1241 N1235 0.985 . S
H1242 N1239 0.984 . S
H1243 N1239 0.985 . S
H1244 N1238 0.984 . S
H1245 N1238 0.984 . S
H1246 N1234 0.984 1_565 S
H1247 N1234 0.985 . S
C529 N13 0.997 . S
C531 C54 0.992 . S
C547 C87 0.992 . S
C549 N46 0.997 . S
C565 C120 0.992 . S
C567 N79 0.997 . S
C583 N112 0.997 . S
C585 C21 0.992 . S
C601 C252 0.992 . S
C603 N145 0.997 . S
C619 C153 0.992 . S
C621 N178 0.997 . S
C637 C186 0.992 . S
C639 N211 0.997 . S
C655 N244 0.997 . S
C657 C219 0.992 . S
C673 N277 0.997 . S
C675 C318 0.992 . S
C691 N310 0.997 . S
C693 C351 0.992 . S
C709 C384 0.992 . S
C711 N343 0.997 . S
C727 C285 0.992 . S
C729 N376 0.997 . S
C745 C516 0.992 . S
C747 N409 0.997 . S
C763 C417 0.992 . S
C765 N442 0.997 . S
C781 N475 0.997 . S
C783 C450 0.992 . S
C799 N508 0.997 . S
C801 C483 0.992 . S
C817 N2 1.903 . S
C819 N68 1.903 . S
C835 N35 1.903 . S
C837 N101 1.903 . S
C853 N200 1.903 . S
C855 N134 1.903 . S
C871 N233 1.903 . S
C873 N167 1.903 . S
C889 N332 1.903 . S
C891 N266 1.903 . S
C907 N299 1.903 . S
C909 N365 1.903 . S
C925 N398 1.903 . S
C927 N464 1.903 . S
C943 N431 1.903 . S
C945 N497 1.903 . S
C961 C18 1.849 . S
C963 C282 1.849 . S
C979 C51 1.849 . S
C981 C315 1.849 . S
C997 C84 1.849 . S
C999 C348 1.849 . S
C1015 C381 1.849 . S
C1017 C117 1.849 . S
C1033 C414 1.849 . S
C1035 C150 1.849 . S
C1051 C183 1.849 . S
C1053 C447 1.849 . S
C1069 C216 1.849 . S
C1071 C480 1.849 . S
C1087 C513 1.849 . S
C1089 C249 1.849 . S
C1105 C172 1.588 . S
C1107 C7 1.588 . S
C1123 C205 1.588 . S
C1125 C40 1.588 . S
C1141 C73 1.588 . S
C1143 C238 1.588 . S
C1159 C139 1.588 . S
C1161 C106 1.588 . S
C1177 C271 1.588 . S
C1179 C436 1.588 . S
C1195 C469 1.588 . S
C1197 C304 1.588 . S
C1213 C502 1.588 . S
C1215 C337 1.588 . S
C1231 C370 1.588 . S
C1233 C403 1.588 . S
