# Generated by pormake.
# Topology vbr, (6)-cn, num edge types: 1
# Building blocks:
#     Node 0, Type 0, BuildingBlock: IZENUY_clean_sbu_0, # of connection points: 6
#     Node 1, Type 0, BuildingBlock: IZENUY_clean_sbu_0, # of connection points: 6
#     Node 2, Type 0, BuildingBlock: IZENUY_clean_sbu_0, # of connection points: 6
#     Node 3, Type 0, BuildingBlock: IZENUY_clean_sbu_0, # of connection points: 6
#     Node 4, Type 0, BuildingBlock: IZENUY_clean_sbu_0, # of connection points: 6
#     Node 5, Type 0, BuildingBlock: IZENUY_clean_sbu_0, # of connection points: 6
#     Node 6, Type 0, BuildingBlock: IZENUY_clean_sbu_0, # of connection points: 6
#     Node 7, Type 0, BuildingBlock: IZENUY_clean_sbu_0, # of connection points: 6
#     Node 8, Type 0, BuildingBlock: IZENUY_clean_sbu_0, # of connection points: 6
#     Node 9, Type 0, BuildingBlock: IZENUY_clean_sbu_0, # of connection points: 6
#     Node 10, Type 0, BuildingBlock: IZENUY_clean_sbu_0, # of connection points: 6
#     Node 11, Type 0, BuildingBlock: IZENUY_clean_sbu_0, # of connection points: 6
#     Node 12, Type 0, BuildingBlock: IZENUY_clean_sbu_0, # of connection points: 6
#     Node 13, Type 0, BuildingBlock: IZENUY_clean_sbu_0, # of connection points: 6
#     Node 14, Type 0, BuildingBlock: IZENUY_clean_sbu_0, # of connection points: 6
#     Node 15, Type 0, BuildingBlock: IZENUY_clean_sbu_0, # of connection points: 6
#     Edge 16, Type (0, 0), BuildingBlock: TEMPAE_clean_linker_10, # of connection points: 2
#     Edge 17, Type (0, 0), BuildingBlock: TEMPAE_clean_linker_10, # of connection points: 2
#     Edge 18, Type (0, 0), BuildingBlock: TEMPAE_clean_linker_10, # of connection points: 2
#     Edge 19, Type (0, 0), BuildingBlock: TEMPAE_clean_linker_10, # of connection points: 2
#     Edge 20, Type (0, 0), BuildingBlock: TEMPAE_clean_linker_10, # of connection points: 2
#     Edge 21, Type (0, 0), BuildingBlock: TEMPAE_clean_linker_10, # of connection points: 2
#     Edge 22, Type (0, 0), BuildingBlock: TEMPAE_clean_linker_10, # of connection points: 2
#     Edge 23, Type (0, 0), BuildingBlock: TEMPAE_clean_linker_10, # of connection points: 2
#     Edge 24, Type (0, 0), BuildingBlock: TEMPAE_clean_linker_10, # of connection points: 2
#     Edge 25, Type (0, 0), BuildingBlock: TEMPAE_clean_linker_10, # of connection points: 2
#     Edge 26, Type (0, 0), BuildingBlock: TEMPAE_clean_linker_10, # of connection points: 2
#     Edge 27, Type (0, 0), BuildingBlock: TEMPAE_clean_linker_10, # of connection points: 2
#     Edge 28, Type (0, 0), BuildingBlock: TEMPAE_clean_linker_10, # of connection points: 2
#     Edge 29, Type (0, 0), BuildingBlock: TEMPAE_clean_linker_10, # of connection points: 2
#     Edge 30, Type (0, 0), BuildingBlock: TEMPAE_clean_linker_10, # of connection points: 2
#     Edge 31, Type (0, 0), BuildingBlock: TEMPAE_clean_linker_10, # of connection points: 2
#     Edge 32, Type (0, 0), BuildingBlock: TEMPAE_clean_linker_10, # of connection points: 2
#     Edge 33, Type (0, 0), BuildingBlock: TEMPAE_clean_linker_10, # of connection points: 2
#     Edge 34, Type (0, 0), BuildingBlock: TEMPAE_clean_linker_10, # of connection points: 2
#     Edge 35, Type (0, 0), BuildingBlock: TEMPAE_clean_linker_10, # of connection points: 2
#     Edge 36, Type (0, 0), BuildingBlock: TEMPAE_clean_linker_10, # of connection points: 2
#     Edge 37, Type (0, 0), BuildingBlock: TEMPAE_clean_linker_10, # of connection points: 2
#     Edge 38, Type (0, 0), BuildingBlock: TEMPAE_clean_linker_10, # of connection points: 2
#     Edge 39, Type (0, 0), BuildingBlock: TEMPAE_clean_linker_10, # of connection points: 2
#     Edge 40, Type (0, 0), BuildingBlock: TEMPAE_clean_linker_10, # of connection points: 2
#     Edge 41, Type (0, 0), BuildingBlock: TEMPAE_clean_linker_10, # of connection points: 2
#     Edge 42, Type (0, 0), BuildingBlock: TEMPAE_clean_linker_10, # of connection points: 2
#     Edge 43, Type (0, 0), BuildingBlock: TEMPAE_clean_linker_10, # of connection points: 2
#     Edge 44, Type (0, 0), BuildingBlock: TEMPAE_clean_linker_10, # of connection points: 2
#     Edge 45, Type (0, 0), BuildingBlock: TEMPAE_clean_linker_10, # of connection points: 2
#     Edge 46, Type (0, 0), BuildingBlock: TEMPAE_clean_linker_10, # of connection points: 2
#     Edge 47, Type (0, 0), BuildingBlock: TEMPAE_clean_linker_10, # of connection points: 2
#     Edge 48, Type (0, 0), BuildingBlock: TEMPAE_clean_linker_10, # of connection points: 2
#     Edge 49, Type (0, 0), BuildingBlock: TEMPAE_clean_linker_10, # of connection points: 2
#     Edge 50, Type (0, 0), BuildingBlock: TEMPAE_clean_linker_10, # of connection points: 2
#     Edge 51, Type (0, 0), BuildingBlock: TEMPAE_clean_linker_10, # of connection points: 2
#     Edge 52, Type (0, 0), BuildingBlock: TEMPAE_clean_linker_10, # of connection points: 2
#     Edge 53, Type (0, 0), BuildingBlock: TEMPAE_clean_linker_10, # of connection points: 2
#     Edge 54, Type (0, 0), BuildingBlock: TEMPAE_clean_linker_10, # of connection points: 2
#     Edge 55, Type (0, 0), BuildingBlock: TEMPAE_clean_linker_10, # of connection points: 2
#     Edge 56, Type (0, 0), BuildingBlock: TEMPAE_clean_linker_10, # of connection points: 2
#     Edge 57, Type (0, 0), BuildingBlock: TEMPAE_clean_linker_10, # of connection points: 2
#     Edge 58, Type (0, 0), BuildingBlock: TEMPAE_clean_linker_10, # of connection points: 2
#     Edge 59, Type (0, 0), BuildingBlock: TEMPAE_clean_linker_10, # of connection points: 2
#     Edge 60, Type (0, 0), BuildingBlock: TEMPAE_clean_linker_10, # of connection points: 2
#     Edge 61, Type (0, 0), BuildingBlock: TEMPAE_clean_linker_10, # of connection points: 2
#     Edge 62, Type (0, 0), BuildingBlock: TEMPAE_clean_linker_10, # of connection points: 2
#     Edge 63, Type (0, 0), BuildingBlock: TEMPAE_clean_linker_10, # of connection points: 2
# Relax obj value: 0.289
# Max RMSD: 0.272
# Mean RMSD: 0.272
data_MOF--net-vbr--node1-IZENUY_clean_sbu_0--edge1-TEMPAE_clean_linker_10
_symmetry_space_group_name_H-M    P1
_symmetry_Int_Tables_number       1
_symmetry_cell_setting            triclinic
loop_
_symmetry_equiv_pos_as_xyz
'x, y, z'
_cell_length_a     43.68627
_cell_length_b     28.789689
_cell_length_c     55.198387
_cell_angle_alpha  90.047849
_cell_angle_beta   90.134277
_cell_angle_gamma 89.934423
loop_
_atom_site_label
_atom_site_type_symbol
_atom_site_fract_x
_atom_site_fract_y
_atom_site_fract_z
_atom_type_partial_charge
Fe0 Fe 0.34999 0.18226 0.11136 0.0
Fe1 Fe 0.3424 0.08739 0.13653 0.0
O2 O 0.32729 0.14247 0.12801 0.0
Fe3 Fe 0.2891 0.15783 0.13542 0.0
O4 O 0.27851 0.16419 0.10363 0.0
O5 O 0.31804 0.20801 0.09488 0.0
O6 O 0.35325 0.14153 0.08664 0.0
C7 C 0.3621 0.09994 0.0879 0.0
C8 C 0.32165 0.24343 0.14106 0.0
O9 O 0.36492 0.07967 0.10827 0.0
C10 C 0.30637 0.11632 0.17754 0.0
O11 O 0.3866 0.16391 0.1245 0.0
O12 O 0.37475 0.11303 0.15254 0.0
O13 O 0.29722 0.22022 0.13833 0.0
O14 O 0.34719 0.22648 0.13481 0.0
C15 C 0.28378 0.06103 0.12547 0.0
O16 O 0.32162 0.08572 0.166 0.0
O17 O 0.29703 0.15276 0.16727 0.0
C18 C 0.39359 0.14098 0.14324 0.0
O19 O 0.31188 0.05632 0.12115 0.0
O20 O 0.27367 0.0984 0.13446 0.0
C21 C 0.29152 0.19332 0.09004 0.0
Fe22 Fe 0.23006 0.88061 0.62894 0.0
Fe23 Fe 0.16437 0.86702 0.60975 0.0
O24 O 0.19131 0.89845 0.62747 0.0
Fe25 Fe 0.17932 0.94924 0.64309 0.0
O26 O 0.21599 0.97917 0.64147 0.0
O27 O 0.24376 0.93628 0.61708 0.0
O28 O 0.23142 0.85779 0.59794 0.0
C29 C 0.21383 0.86186 0.5798 0.0
C30 C 0.21681 0.91065 0.67728 0.0
O31 O 0.18643 0.87449 0.58233 0.0
C32 C 0.12726 0.88994 0.64707 0.0
O33 O 0.21974 0.82347 0.64069 0.0
O34 O 0.18187 0.81007 0.61526 0.0
O35 O 0.1897 0.92442 0.67263 0.0
O36 O 0.23505 0.89996 0.66028 0.0
C37 C 0.15307 0.95951 0.59804 0.0
O38 O 0.14 0.85701 0.63591 0.0
O39 O 0.13955 0.92977 0.64736 0.0
C40 C 0.20205 0.79543 0.62989 0.0
O41 O 0.14262 0.91881 0.60048 0.0
O42 O 0.17011 0.97671 0.61425 0.0
C43 C 0.23752 0.97519 0.62648 0.0
Fe44 Fe 0.35298 0.92968 0.88301 0.0
Fe45 Fe 0.29896 0.86137 0.88807 0.0
O46 O 0.33798 0.87558 0.89306 0.0
Fe47 Fe 0.36148 0.83555 0.90906 0.0
O48 O 0.36712 0.87713 0.93298 0.0
O49 O 0.37675 0.93882 0.91059 0.0
O50 O 0.32393 0.96285 0.89872 0.0
C51 C 0.29556 0.95924 0.89573 0.0
C52 C 0.40339 0.87427 0.87529 0.0
O53 O 0.28417 0.92148 0.8883 0.0
C54 C 0.32959 0.77407 0.88197 0.0
O55 O 0.3305 0.92906 0.85412 0.0
O56 O 0.30422 0.8635 0.85586 0.0
O57 O 0.39724 0.85174 0.89424 0.0
O58 O 0.3844 0.90267 0.86647 0.0
C59 C 0.3054 0.82905 0.93385 0.0
O60 O 0.30591 0.79845 0.88605 0.0
O61 O 0.35597 0.79039 0.8863 0.0
C62 C 0.31408 0.89776 0.84401 0.0
O63 O 0.29142 0.8579 0.92057 0.0
O64 O 0.33068 0.81204 0.92734 0.0
C65 C 0.37461 0.91921 0.93121 0.0
Fe66 Fe 0.16999 0.19098 0.41111 0.0
Fe67 Fe 0.1773 0.09803 0.38402 0.0
O68 O 0.1923 0.15271 0.39309 0.0
Fe69 Fe 0.22983 0.16941 0.38452 0.0
O70 O 0.24221 0.17488 0.41599 0.0
O71 O 0.20255 0.21687 0.42681 0.0
O72 O 0.16814 0.14906 0.43529 0.0
C73 C 0.15924 0.10759 0.43339 0.0
C74 C 0.19583 0.25414 0.38111 0.0
O75 O 0.15653 0.08806 0.4128 0.0
C76 C 0.21066 0.12969 0.34229 0.0
O77 O 0.13295 0.172 0.39919 0.0
O78 O 0.1439 0.12437 0.36943 0.0
O79 O 0.22073 0.23164 0.3827 0.0
O80 O 0.17095 0.23628 0.38817 0.0
C81 C 0.23656 0.0722 0.39299 0.0
O82 O 0.19657 0.09817 0.35398 0.0
O83 O 0.22013 0.16574 0.35286 0.0
C84 C 0.12498 0.15004 0.38038 0.0
O85 O 0.20871 0.06675 0.39793 0.0
O86 O 0.24598 0.11017 0.38421 0.0
C87 C 0.22969 0.20329 0.43034 0.0
Fe88 Fe 0.68274 0.91725 0.87783 0.0
Fe89 Fe 0.67752 0.82817 0.90856 0.0
O90 O 0.6989 0.8649 0.88909 0.0
Fe91 Fe 0.73688 0.84907 0.88135 0.0
O92 O 0.75158 0.90876 0.8784 0.0
O93 O 0.71336 0.95211 0.89046 0.0
O94 O 0.66163 0.93048 0.90611 0.0
C95 C 0.66442 0.91393 0.92737 0.0
C96 C 0.717 0.88044 0.83759 0.0
O97 O 0.67427 0.87339 0.931 0.0
C98 C 0.70519 0.76239 0.88102 0.0
O99 O 0.64995 0.8873 0.86439 0.0
O100 O 0.64007 0.84337 0.89587 0.0
O101 O 0.72726 0.84672 0.84967 0.0
O102 O 0.70222 0.91317 0.84789 0.0
C103 C 0.73673 0.82517 0.92887 0.0
O104 O 0.67982 0.77966 0.88744 0.0
O105 O 0.72955 0.78622 0.88234 0.0
C106 C 0.6315 0.86292 0.87651 0.0
O107 O 0.71081 0.80695 0.92537 0.0
O108 O 0.74895 0.85031 0.91291 0.0
C109 C 0.74138 0.94723 0.88596 0.0
Fe110 Fe 0.85953 0.16143 0.40449 0.0
Fe111 Fe 0.79359 0.14888 0.38589 0.0
O112 O 0.83189 0.12942 0.38787 0.0
Fe113 Fe 0.84272 0.0765 0.37377 0.0
O114 O 0.85092 0.05138 0.40352 0.0
O115 O 0.8798 0.10934 0.41541 0.0
O116 O 0.83755 0.15821 0.43203 0.0
C117 C 0.81037 0.17181 0.43438 0.0
C118 C 0.89636 0.13214 0.36824 0.0
O119 O 0.79264 0.17488 0.41627 0.0
C120 C 0.80678 0.11465 0.33837 0.0
O121 O 0.84327 0.21886 0.39719 0.0
O122 O 0.80501 0.20368 0.3725 0.0
O123 O 0.88316 0.09297 0.36925 0.0
O124 O 0.88407 0.16698 0.3781 0.0
C125 C 0.78288 0.05603 0.38971 0.0
O126 O 0.78838 0.1269 0.355 0.0
O127 O 0.83339 0.09933 0.34357 0.0
C128 C 0.82305 0.2324 0.38224 0.0
O129 O 0.77865 0.09535 0.39922 0.0
O130 O 0.80502 0.04934 0.37552 0.0
C131 C 0.86829 0.0696 0.41927 0.0
Fe132 Fe 0.67136 0.07756 0.13378 0.0
Fe133 Fe 0.66393 0.16534 0.10218 0.0
O134 O 0.68705 0.12839 0.12045 0.0
Fe135 Fe 0.72628 0.14256 0.12473 0.0
O136 O 0.74034 0.08238 0.12777 0.0
O137 O 0.69986 0.04023 0.12015 0.0
O138 O 0.64755 0.06301 0.10695 0.0
C139 C 0.64818 0.07882 0.0854 0.0
C140 C 0.71108 0.11579 0.17063 0.0
O141 O 0.65711 0.11941 0.08083 0.0
C142 C 0.69651 0.23093 0.1261 0.0
O143 O 0.64032 0.10937 0.14862 0.0
O144 O 0.62801 0.15285 0.11755 0.0
O145 O 0.72119 0.1473 0.15696 0.0
O146 O 0.6939 0.08355 0.16236 0.0
C147 C 0.71932 0.1625 0.07687 0.0
O148 O 0.67001 0.21467 0.12231 0.0
O149 O 0.72 0.20559 0.12308 0.0
C150 C 0.62113 0.13416 0.13743 0.0
O151 O 0.69504 0.18356 0.08252 0.0
O152 O 0.73385 0.13881 0.09234 0.0
C153 C 0.72836 0.04381 0.12234 0.0
Fe154 Fe 0.8616 0.84548 0.60258 0.0
Fe155 Fe 0.79629 0.85925 0.622 0.0
O156 O 0.83486 0.87752 0.62007 0.0
Fe157 Fe 0.84675 0.92915 0.63499 0.0
O158 O 0.85556 0.95561 0.60571 0.0
O159 O 0.88281 0.89706 0.59251 0.0
O160 O 0.83911 0.85159 0.57537 0.0
C161 C 0.81181 0.83862 0.57308 0.0
C162 C 0.89904 0.87006 0.63959 0.0
O163 O 0.79455 0.83466 0.59134 0.0
C164 C 0.80992 0.89169 0.6698 0.0
O165 O 0.84456 0.78841 0.60913 0.0
O166 O 0.8073 0.80347 0.63469 0.0
O167 O 0.88672 0.90998 0.63972 0.0
O168 O 0.88649 0.83697 0.62844 0.0
C169 C 0.78751 0.95286 0.61868 0.0
O170 O 0.79148 0.88022 0.65304 0.0
O171 O 0.83685 0.90556 0.66486 0.0
C172 C 0.82497 0.77478 0.62447 0.0
O173 O 0.78195 0.9137 0.60941 0.0
O174 O 0.80967 0.95829 0.63308 0.0
C175 C 0.87213 0.93755 0.58947 0.0
Fe176 Fe 0.85782 0.6531 0.10894 0.0
Fe177 Fe 0.83936 0.56865 0.13937 0.0
O178 O 0.82939 0.62159 0.12486 0.0
Fe179 Fe 0.7911 0.64156 0.12583 0.0
O180 O 0.79134 0.66782 0.09553 0.0
O181 O 0.8367 0.65069 0.08089 0.0
O182 O 0.87801 0.60057 0.09827 0.0
C183 C 0.86654 0.56064 0.0947 0.0
C184 C 0.82108 0.72461 0.13046 0.0
O185 O 0.84861 0.54318 0.11014 0.0
C186 C 0.80203 0.60619 0.17356 0.0
O187 O 0.88158 0.65824 0.13587 0.0
O188 O 0.87969 0.5845 0.14506 0.0
O189 O 0.80235 0.69626 0.13965 0.0
O190 O 0.84178 0.71069 0.11608 0.0
C191 C 0.78048 0.54867 0.12116 0.0
O192 O 0.82899 0.59177 0.16917 0.0
O193 O 0.78447 0.61927 0.15648 0.0
C194 C 0.89312 0.62343 0.14626 0.0
O195 O 0.80161 0.54185 0.13634 0.0
O196 O 0.77652 0.58829 0.11192 0.0
C197 C 0.80979 0.66514 0.07794 0.0
Fe198 Fe 0.67489 0.32859 0.60718 0.0
Fe199 Fe 0.67951 0.42156 0.63415 0.0
O200 O 0.69647 0.36853 0.62464 0.0
Fe201 Fe 0.73502 0.35509 0.6318 0.0
O202 O 0.74557 0.35024 0.5999 0.0
O203 O 0.7074 0.30404 0.59111 0.0
O204 O 0.67177 0.37009 0.58301 0.0
C205 C 0.66154 0.41086 0.58489 0.0
C206 C 0.70366 0.26796 0.63663 0.0
O207 O 0.65711 0.42923 0.60564 0.0
C208 C 0.71717 0.39379 0.6746 0.0
O209 O 0.63767 0.3455 0.61927 0.0
O210 O 0.64805 0.39197 0.64952 0.0
O211 O 0.72786 0.2921 0.63424 0.0
O212 O 0.67789 0.2844 0.63049 0.0
C213 C 0.73716 0.45274 0.62303 0.0
O214 O 0.70022 0.42327 0.66373 0.0
O215 O 0.72753 0.35868 0.66373 0.0
C216 C 0.62958 0.36576 0.63848 0.0
O217 O 0.70877 0.45588 0.61957 0.0
O218 O 0.74891 0.41564 0.63117 0.0
C219 C 0.73334 0.32049 0.58616 0.0
Fe220 Fe 0.85811 0.32533 0.90781 0.0
Fe221 Fe 0.84962 0.418 0.88066 0.0
O222 O 0.83514 0.36319 0.88997 0.0
Fe223 Fe 0.79746 0.34588 0.882 0.0
O224 O 0.78615 0.34049 0.91373 0.0
O225 O 0.82626 0.2986 0.92362 0.0
O226 O 0.85989 0.36737 0.93203 0.0
C227 C 0.86795 0.40926 0.93011 0.0
C228 C 0.83215 0.26213 0.87769 0.0
O229 O 0.87041 0.42872 0.90948 0.0
C230 C 0.81535 0.38525 0.83933 0.0
O231 O 0.89472 0.34509 0.89589 0.0
O232 O 0.88323 0.39217 0.86607 0.0
O233 O 0.80709 0.28395 0.88 0.0
O234 O 0.8571 0.28002 0.88476 0.0
C235 C 0.79022 0.44302 0.89008 0.0
O236 O 0.82999 0.4169 0.85064 0.0
O237 O 0.80607 0.3495 0.85021 0.0
C238 C 0.90243 0.36707 0.87712 0.0
O239 O 0.81816 0.44909 0.8945 0.0
O240 O 0.78074 0.40468 0.8818 0.0
C241 C 0.79944 0.31247 0.92788 0.0
Fe242 Fe 0.66827 0.67713 0.40795 0.0
Fe243 Fe 0.67101 0.58391 0.38033 0.0
O244 O 0.68846 0.63663 0.38978 0.0
Fe245 Fe 0.72679 0.64887 0.38163 0.0
O246 O 0.73898 0.64928 0.41314 0.0
O247 O 0.70223 0.69684 0.4244 0.0
O248 O 0.66388 0.63483 0.43153 0.0
C249 C 0.65411 0.59391 0.42971 0.0
C250 C 0.69855 0.73867 0.38012 0.0
O251 O 0.64973 0.57525 0.40907 0.0
C252 C 0.70508 0.61554 0.33892 0.0
O253 O 0.6304 0.66411 0.39519 0.0
O254 O 0.63896 0.6137 0.36608 0.0
O255 O 0.72174 0.71225 0.38157 0.0
O256 O 0.67238 0.72328 0.38564 0.0
C257 C 0.7288 0.55106 0.3886 0.0
O258 O 0.69033 0.58394 0.35017 0.0
O259 O 0.71658 0.64948 0.35011 0.0
C260 C 0.6216 0.64255 0.37644 0.0
O261 O 0.70091 0.54885 0.39395 0.0
O262 O 0.73968 0.58793 0.37968 0.0
C263 C 0.72779 0.67748 0.42824 0.0
Fe264 Fe 0.18451 0.43564 0.8762 0.0
Fe265 Fe 0.16736 0.35221 0.90779 0.0
O266 O 0.19523 0.38336 0.89102 0.0
Fe267 Fe 0.23359 0.36379 0.88961 0.0
O268 O 0.24857 0.41817 0.90208 0.0
O269 O 0.22209 0.46316 0.8779 0.0
O270 O 0.17603 0.46208 0.90551 0.0
C271 C 0.15826 0.44476 0.92115 0.0
C272 C 0.22027 0.3949 0.84163 0.0
O273 O 0.14689 0.40478 0.91776 0.0
C274 C 0.20415 0.27983 0.88715 0.0
O275 O 0.14421 0.41888 0.87145 0.0
O276 O 0.14302 0.34531 0.88121 0.0
O277 O 0.23884 0.38355 0.85837 0.0
O278 O 0.19396 0.41144 0.8465 0.0
C279 C 0.21642 0.34412 0.93833 0.0
O280 O 0.18366 0.29437 0.90152 0.0
O281 O 0.22234 0.30791 0.87716 0.0
C282 C 0.13105 0.37968 0.87063 0.0
O283 O 0.18911 0.35689 0.93551 0.0
O284 O 0.23434 0.3401 0.92045 0.0
C285 C 0.24402 0.45726 0.89241 0.0
Fe286 Fe 0.28807 0.66914 0.38514 0.0
Fe287 Fe 0.34094 0.59813 0.38196 0.0
O288 O 0.32627 0.65253 0.39191 0.0
Fe289 Fe 0.34968 0.69071 0.40918 0.0
O290 O 0.31826 0.71688 0.42605 0.0
O291 O 0.2782 0.67439 0.41712 0.0
O292 O 0.27203 0.60997 0.38552 0.0
C293 C 0.28237 0.57165 0.39322 0.0
C294 C 0.32182 0.7538 0.38018 0.0
O295 O 0.31059 0.56611 0.39667 0.0
C296 C 0.39289 0.65005 0.37702 0.0
O297 O 0.29497 0.6655 0.35311 0.0
O298 O 0.31984 0.59877 0.35258 0.0
O299 O 0.34722 0.73602 0.3863 0.0
O300 O 0.29706 0.73136 0.38288 0.0
C301 C 0.36175 0.60709 0.43079 0.0
O302 O 0.37338 0.6249 0.36641 0.0
O303 O 0.38598 0.6715 0.39617 0.0
C304 C 0.30375 0.62966 0.342 0.0
O305 O 0.36335 0.58781 0.41005 0.0
O306 O 0.35296 0.64857 0.43316 0.0
C307 C 0.29158 0.703 0.43086 0.0
Fe308 Fe 0.17325 0.58812 0.13542 0.0
Fe309 Fe 0.16563 0.67889 0.10614 0.0
O310 O 0.18834 0.64144 0.12445 0.0
Fe311 Fe 0.22665 0.65767 0.1312 0.0
O312 O 0.24215 0.59832 0.13345 0.0
O313 O 0.20397 0.55436 0.12216 0.0
O314 O 0.15189 0.57498 0.10709 0.0
C315 C 0.1534 0.5933 0.08612 0.0
C316 C 0.20884 0.6248 0.17527 0.0
O317 O 0.16148 0.63489 0.08326 0.0
C318 C 0.19457 0.74382 0.13338 0.0
O319 O 0.14019 0.61612 0.1496 0.0
O320 O 0.12906 0.66304 0.1196 0.0
O321 O 0.21858 0.6587 0.16308 0.0
O322 O 0.19342 0.59233 0.16524 0.0
C323 C 0.223 0.68202 0.08374 0.0
O324 O 0.16889 0.7266 0.12771 0.0
O325 O 0.21889 0.72028 0.13091 0.0
C326 C 0.12126 0.6416 0.13851 0.0
O327 O 0.19763 0.70072 0.08856 0.0
O328 O 0.23702 0.65778 0.09928 0.0
C329 C 0.23202 0.55963 0.12626 0.0
Fe330 Fe 0.35022 0.44795 0.64044 0.0
Fe331 Fe 0.36415 0.36656 0.60631 0.0
O332 O 0.3377 0.39774 0.62456 0.0
Fe333 Fe 0.29895 0.38023 0.62645 0.0
O334 O 0.28498 0.4365 0.61539 0.0
O335 O 0.31355 0.47804 0.63984 0.0
O336 O 0.35854 0.47631 0.61168 0.0
C337 C 0.37505 0.45933 0.5951 0.0
C338 C 0.31449 0.40615 0.67469 0.0
O339 O 0.38559 0.41855 0.59717 0.0
C340 C 0.32702 0.29481 0.62655 0.0
O341 O 0.39 0.42826 0.64408 0.0
O342 O 0.38927 0.35585 0.63207 0.0
O343 O 0.29507 0.39807 0.65809 0.0
O344 O 0.34096 0.42184 0.66975 0.0
C345 C 0.3138 0.36251 0.57696 0.0
O346 O 0.34683 0.3095 0.61171 0.0
O347 O 0.30945 0.3227 0.63751 0.0
C348 C 0.40205 0.38826 0.64368 0.0
O349 O 0.34136 0.3746 0.57919 0.0
O350 O 0.29662 0.35861 0.59529 0.0
C351 C 0.29157 0.47496 0.62515 0.0
C352 C 0.25329 0.1939 0.05614 0.0
C353 C 0.27461 0.21721 0.07064 0.0
C354 C 0.24064 0.21582 0.03569 0.0
C355 C 0.24952 0.2619 0.02997 0.0
C356 C 0.26956 0.28637 0.04551 0.0
C357 C 0.2818 0.26372 0.06567 0.0
C358 C 0.21908 0.18897 0.01952 0.0
C359 C 0.27938 0.33563 0.04017 0.0
C360 C 0.25215 0.29828 0.96422 0.0
C361 C 0.22584 0.32591 0.96221 0.0
C362 C 0.25974 0.27664 0.98611 0.0
C363 C 0.24065 0.28304 1.00654 0.0
C364 C 0.21429 0.31142 1.00479 0.0
C365 C 0.2072 0.33262 0.98261 0.0
C366 C 0.28824 0.2469 0.98738 0.0
C367 C 0.1936 0.31934 0.02628 0.0
H368 H 0.24768 0.15803 0.06011 0.0
H369 H 0.29777 0.2822 0.07726 0.0
H370 H 0.19844 0.21003 0.01537 0.0
H371 H 0.23054 0.1812 1.00206 0.0
H372 H 0.21181 0.15567 0.02786 0.0
H373 H 0.25904 0.35857 0.0388 0.0
H374 H 0.29494 0.34979 0.0543 0.0
H375 H 0.29137 0.33697 0.02248 0.0
H376 H 0.26653 0.29261 0.94851 0.0
H377 H 0.18685 0.35406 0.9812 0.0
H378 H 0.28225 0.21121 0.99325 0.0
H379 H 0.30431 0.26134 1.00104 0.0
H380 H 0.30025 0.24472 0.9697 0.0
H381 H 0.18709 0.28568 0.03456 0.0
H382 H 0.17242 0.33848 0.02127 0.0
H383 H 0.20592 0.33965 0.04032 0.0
C384 C 0.28319 0.7738 0.45541 0.0
C385 C 0.27481 0.72785 0.45006 0.0
C386 C 0.27039 0.79753 0.475 0.0
C387 C 0.2486 0.77479 0.48966 0.0
C388 C 0.23871 0.72931 0.4836 0.0
C389 C 0.2519 0.70629 0.46368 0.0
C390 C 0.28134 0.84614 0.48068 0.0
C391 C 0.2153 0.70427 0.49881 0.0
C392 C 0.24893 0.81256 0.55528 0.0
C393 C 0.22355 0.84237 0.55625 0.0
C394 C 0.25677 0.78957 0.53383 0.0
C395 C 0.23899 0.79688 0.51271 0.0
C396 C 0.2135 0.82726 0.51342 0.0
C397 C 0.20605 0.84968 0.53524 0.0
C398 C 0.2842 0.75752 0.53379 0.0
C399 C 0.19423 0.83632 0.49118 0.0
H400 H 0.30035 0.79109 0.44449 0.0
H401 H 0.24527 0.67093 0.45942 0.0
H402 H 0.26163 0.87042 0.48122 0.0
H403 H 0.29233 0.84685 0.49882 0.0
H404 H 0.29809 0.85909 0.46716 0.0
H405 H 0.20772 0.67123 0.4903 0.0
H406 H 0.22524 0.69629 0.51686 0.0
H407 H 0.19501 0.72674 0.50181 0.0
H408 H 0.26236 0.8062 0.57149 0.0
H409 H 0.18639 0.87268 0.53587 0.0
H410 H 0.3016 0.77052 0.52085 0.0
H411 H 0.27733 0.72232 0.52766 0.0
H412 H 0.295 0.75448 0.55196 0.0
H413 H 0.20745 0.85758 0.47812 0.0
H414 H 0.17274 0.85514 0.49558 0.0
H415 H 0.18831 0.80322 0.48199 0.0
C416 C 0.21905 0.69659 0.04006 0.0
C417 C 0.23731 0.69552 0.06092 0.0
C418 C 0.22932 0.71808 0.01892 0.0
C419 C 0.25838 0.73957 0.0189 0.0
C420 C 0.2774 0.73723 0.03972 0.0
C421 C 0.26664 0.71481 0.06059 0.0
C422 C 0.20875 0.71887 0.99689 0.0
C423 C 0.30871 0.75935 0.04008 0.0
C424 C 0.29573 0.75924 0.95837 0.0
C425 C 0.29041 0.80676 0.95456 0.0
C426 C 0.28553 0.73711 0.97929 0.0
C427 C 0.26925 0.76304 0.99673 0.0
C428 C 0.26302 0.81084 0.99276 0.0
C429 C 0.27366 0.83228 0.97151 0.0
C430 C 0.29231 0.68601 0.98267 0.0
C431 C 0.24575 0.83936 0.01117 0.0
H432 H 0.19624 0.6817 0.04055 0.0
H433 H 0.2804 0.71456 0.07696 0.0
H434 H 0.20312 0.7553 0.99206 0.0
H435 H 0.22072 0.70329 0.98115 0.0
H436 H 0.18705 0.6996 0.99985 0.0
H437 H 0.32067 0.75418 0.05766 0.0
H438 H 0.32305 0.74451 0.02541 0.0
H439 H 0.30663 0.79719 0.03661 0.0
H440 H 0.30836 0.7393 0.94501 0.0
H441 H 0.26988 0.86908 0.96859 0.0
H442 H 0.27089 0.66578 0.98046 0.0
H443 H 0.30124 0.67908 1.00114 0.0
H444 H 0.30932 0.67304 0.96936 0.0
H445 H 0.22295 0.8237 0.01453 0.0
H446 H 0.2425 0.8759 1.00523 0.0
H447 H 0.25831 0.83934 0.02867 0.0
C448 C 0.27759 0.31424 0.55286 0.0
C449 C 0.30331 0.34335 0.55351 0.0
C450 C 0.26902 0.29131 0.53156 0.0
C451 C 0.28637 0.29799 0.51022 0.0
C452 C 0.31213 0.32776 0.51058 0.0
C453 C 0.32035 0.35011 0.53228 0.0
C454 C 0.24128 0.25997 0.5319 0.0
C455 C 0.3309 0.33621 0.48808 0.0
C456 C 0.27107 0.20673 0.46196 0.0
C457 C 0.24777 0.22843 0.44871 0.0
C458 C 0.28527 0.22997 0.4814 0.0
C459 C 0.27599 0.27582 0.48736 0.0
C460 C 0.25384 0.2987 0.47298 0.0
C461 C 0.24007 0.27476 0.45385 0.0
C462 C 0.30897 0.20471 0.49635 0.0
C463 C 0.24349 0.34767 0.47858 0.0
H464 H 0.26448 0.30833 0.56922 0.0
H465 H 0.34026 0.37256 0.53265 0.0
H466 H 0.2237 0.27332 0.51913 0.0
H467 H 0.24767 0.22455 0.52578 0.0
H468 H 0.23089 0.25736 0.5502 0.0
H469 H 0.35264 0.35461 0.49218 0.0
H470 H 0.33633 0.30291 0.47891 0.0
H471 H 0.31751 0.35763 0.47514 0.0
H472 H 0.27715 0.17106 0.45786 0.0
H473 H 0.22258 0.29211 0.44318 0.0
H474 H 0.29948 0.197 0.51453 0.0
H475 H 0.32946 0.22688 0.49903 0.0
H476 H 0.31615 0.17149 0.4878 0.0
H477 H 0.22584 0.36031 0.46564 0.0
H478 H 0.26333 0.37164 0.47803 0.0
H479 H 0.23382 0.34933 0.49713 0.0
C480 C 0.76104 0.83254 0.9694 0.0
C481 C 0.7553 0.80632 0.94857 0.0
C482 C 0.77293 0.81119 0.99028 0.0
C483 C 0.77902 0.76279 0.99001 0.0
C484 C 0.7751 0.73711 0.96836 0.0
C485 C 0.76292 0.75918 0.94796 0.0
C486 C 0.77746 0.83978 0.01294 0.0
C487 C 0.78173 0.68574 0.96672 0.0
C488 C 0.825 0.70442 0.03961 0.0
C489 C 0.80176 0.68754 0.05476 0.0
C490 C 0.81796 0.73006 0.01878 0.0
C491 C 0.78698 0.73818 0.01273 0.0
C492 C 0.7634 0.72037 0.02763 0.0
C493 C 0.7711 0.69568 0.04866 0.0
C494 C 0.8436 0.74793 1.00306 0.0
C495 C 0.73007 0.7269 0.02117 0.0
H496 H 0.75469 0.86896 0.96976 0.0
H497 H 0.75816 0.73902 0.93175 0.0
H498 H 0.7604 0.82936 0.02677 0.0
H499 H 0.80051 0.83332 0.02073 0.0
H500 H 0.77485 0.87758 0.00944 0.0
H501 H 0.79237 0.67765 0.94898 0.0
H502 H 0.7972 0.67292 0.98118 0.0
H503 H 0.75984 0.66634 0.96785 0.0
H504 H 0.8488 0.69866 0.04435 0.0
H505 H 0.75311 0.68266 0.06032 0.0
H506 H 0.84101 0.78588 1.00017 0.0
H507 H 0.84248 0.73099 0.98501 0.0
H508 H 0.86652 0.74112 0.01108 0.0
H509 H 0.72471 0.76445 0.01953 0.0
H510 H 0.71453 0.71136 0.03484 0.0
H511 H 0.72532 0.71063 1.00332 0.0
C512 C 0.77272 0.32222 0.55309 0.0
C513 C 0.75039 0.29836 0.56626 0.0
C514 C 0.78585 0.30193 0.53236 0.0
C515 C 0.77628 0.25704 0.52494 0.0
C516 C 0.75492 0.23208 0.53897 0.0
C517 C 0.74242 0.25292 0.5595 0.0
C518 C 0.80891 0.32913 0.51786 0.0
C519 C 0.74422 0.18407 0.53174 0.0
C520 C 0.77613 0.22266 0.45886 0.0
C521 C 0.80112 0.19216 0.45779 0.0
C522 C 0.7686 0.24544 0.48045 0.0
C523 C 0.78635 0.23723 0.50151 0.0
C524 C 0.81167 0.20661 0.50057 0.0
C525 C 0.81875 0.18436 0.47869 0.0
C526 C 0.74122 0.27758 0.48083 0.0
C527 C 0.83096 0.19672 0.52271 0.0
H528 H 0.77898 0.35722 0.55838 0.0
H529 H 0.72569 0.23381 0.57001 0.0
H530 H 0.8294 0.30748 0.51414 0.0
H531 H 0.79881 0.33884 0.5001 0.0
H532 H 0.81622 0.36135 0.52732 0.0
H533 H 0.72655 0.17018 0.54422 0.0
H534 H 0.73445 0.18477 0.51317 0.0
H535 H 0.7639 0.15971 0.53154 0.0
H536 H 0.76267 0.22935 0.44271 0.0
H537 H 0.83814 0.16085 0.47795 0.0
H538 H 0.72344 0.26327 0.49305 0.0
H539 H 0.73099 0.2824 0.46256 0.0
H540 H 0.74786 0.31211 0.48805 0.0
H541 H 0.83693 0.22947 0.53221 0.0
H542 H 0.85243 0.178 0.51811 0.0
H543 H 0.81775 0.175 0.53556 0.0
C544 C 0.76189 0.19188 0.05144 0.0
C545 C 0.73244 0.17337 0.05319 0.0
C546 C 0.77157 0.21298 0.02987 0.0
C547 C 0.75136 0.21474 0.00974 0.0
C548 C 0.72232 0.19334 0.01108 0.0
C549 C 0.71307 0.17331 0.03294 0.0
C550 C 0.80288 0.23506 0.02892 0.0
C551 C 0.70051 0.19336 0.9898 0.0
C552 C 0.76522 0.31107 0.96408 0.0
C553 C 0.78259 0.28749 0.94677 0.0
C554 C 0.75416 0.28745 0.98455 0.0
C555 C 0.76057 0.2394 0.98738 0.0
C556 C 0.77684 0.21518 0.96925 0.0
C557 C 0.78756 0.23954 0.94913 0.0
C558 C 0.73691 0.31426 1.00367 0.0
C559 C 0.78371 0.16387 0.97139 0.0
H560 H 0.77655 0.19248 0.06732 0.0
H561 H 0.69019 0.159 0.03452 0.0
H562 H 0.8161 0.22073 0.01349 0.0
H563 H 0.80052 0.27301 0.0259 0.0
H564 H 0.81614 0.22939 0.04586 0.0
H565 H 0.67961 0.17252 0.99338 0.0
H566 H 0.69352 0.22953 0.98559 0.0
H567 H 0.71198 0.1792 0.97347 0.0
H568 H 0.76169 0.34819 0.96225 0.0
H569 H 0.80075 0.22126 0.93547 0.0
H570 H 0.75027 0.31449 0.02079 0.0
H571 H 0.71471 0.29713 1.00752 0.0
H572 H 0.73246 0.35076 0.99816 0.0
H573 H 0.79994 0.15174 0.95727 0.0
H574 H 0.76215 0.14383 0.9696 0.0
H575 H 0.79364 0.15572 0.98941 0.0
C576 C 0.75178 0.74688 0.44563 0.0
C577 C 0.74753 0.69876 0.44649 0.0
C578 C 0.76569 0.77044 0.4648 0.0
C579 C 0.77499 0.74515 0.48549 0.0
C580 C 0.77241 0.69603 0.48582 0.0
C581 C 0.75867 0.67319 0.46611 0.0
C582 C 0.76818 0.82268 0.46344 0.0
C583 C 0.7825 0.668 0.50751 0.0
C584 C 0.8238 0.80743 0.532 0.0
C585 C 0.80196 0.81892 0.54966 0.0
C586 C 0.81543 0.78299 0.51107 0.0
C587 C 0.78446 0.77058 0.50756 0.0
C588 C 0.76213 0.78357 0.52484 0.0
C589 C 0.7712 0.80734 0.5458 0.0
C590 C 0.83973 0.76993 0.49287 0.0
C591 C 0.7287 0.77201 0.52129 0.0
H592 H 0.74309 0.7664 0.43026 0.0
H593 H 0.75505 0.63595 0.46664 0.0
H594 H 0.74823 0.83847 0.47276 0.0
H595 H 0.78923 0.83565 0.47241 0.0
H596 H 0.76816 0.83476 0.44433 0.0
H597 H 0.78229 0.63007 0.50377 0.0
H598 H 0.80591 0.6783 0.51321 0.0
H599 H 0.76695 0.67504 0.52296 0.0
H600 H 0.84767 0.81611 0.53488 0.0
H601 H 0.75423 0.81632 0.55932 0.0
H602 H 0.8342 0.78534 0.47497 0.0
H603 H 0.84025 0.73166 0.4905 0.0
H604 H 0.86289 0.78183 0.49844 0.0
H605 H 0.72033 0.7874 0.50407 0.0
H606 H 0.71421 0.78505 0.53635 0.0
H607 H 0.72573 0.73383 0.5199 0.0
C608 C 0.35987 0.93239 0.97416 0.0
C609 C 0.37745 0.94618 0.95411 0.0
C610 C 0.35986 0.95784 0.99582 0.0
C611 C 0.37859 0.99769 0.99798 0.0
C612 C 0.39713 0.01122 0.97808 0.0
C613 C 0.39592 0.98577 0.95618 0.0
C614 C 0.33886 0.94286 0.01609 0.0
C615 C 0.41799 0.0528 0.97986 0.0
C616 C 0.35174 0.08739 0.04393 0.0
C617 C 0.3682 0.07489 0.06482 0.0
C618 C 0.35548 0.06336 0.02198 0.0
C619 C 0.37691 0.02652 0.02054 0.0
C620 C 0.39445 0.01477 0.04135 0.0
C621 C 0.38951 0.03855 0.06338 0.0
C622 C 0.33545 0.07616 1.00064 0.0
C623 C 0.41808 0.97655 0.04044 0.0
H624 H 0.34508 0.90228 0.97265 0.0
H625 H 0.40954 0.9966 0.94081 0.0
H626 H 0.35227 0.93615 0.0328 0.0
H627 H 0.32238 0.97112 0.02025 0.0
H628 H 0.32572 0.91099 0.0115 0.0
H629 H 0.43308 0.05613 0.96378 0.0
H630 H 0.40415 0.08495 0.98152 0.0
H631 H 0.43246 0.05023 0.99636 0.0
H632 H 0.33498 0.11515 0.04494 0.0
H633 H 0.40246 0.02895 0.07939 0.0
H634 H 0.3206 0.04629 0.99579 0.0
H635 H 0.34972 0.08405 0.98458 0.0
H636 H 0.32062 0.10666 1.00447 0.0
H637 H 0.40657 0.94252 0.03812 0.0
H638 H 0.43224 0.97524 0.05717 0.0
H639 H 0.43338 0.98151 0.02462 0.0
C640 C 0.12448 0.97297 0.55909 0.0
C641 C 0.149 0.98384 0.57455 0.0
C642 C 0.12273 0.99166 0.53555 0.0
C643 C 0.14645 0.02097 0.52707 0.0
C644 C 0.17109 0.03229 0.54272 0.0
C645 C 0.17191 0.01389 0.56625 0.0
C646 C 0.09574 0.97958 0.51964 0.0
C647 C 0.19715 0.06278 0.5344 0.0
C648 C 0.16193 0.03674 0.4596 0.0
C649 C 0.15162 0.08231 0.45591 0.0
C650 C 0.15952 0.01557 0.48252 0.0
C651 C 0.14572 0.0402 0.50194 0.0
C652 C 0.13357 0.08511 0.49776 0.0
C653 C 0.13711 0.10586 0.47493 0.0
C654 C 0.17333 0.96801 0.4863 0.0
C655 C 0.11804 0.11214 0.51771 0.0
H656 H 0.10682 0.94943 0.56531 0.0
H657 H 0.19137 0.0213 0.57776 0.0
H658 H 0.08468 0.01177 0.51285 0.0
H659 H 0.10364 0.9597 0.50361 0.0
H660 H 0.07837 0.95856 0.52937 0.0
H661 H 0.21463 0.06818 0.54878 0.0
H662 H 0.20844 0.04684 0.51843 0.0
H663 H 0.18829 0.0972 0.52868 0.0
H664 H 0.17351 0.01874 0.44499 0.0
H665 H 0.12904 0.14107 0.47207 0.0
H666 H 0.15642 0.94441 0.49478 0.0
H667 H 0.1931 0.97064 0.4989 0.0
H668 H 0.18135 0.95219 0.46908 0.0
H669 H 0.1007 0.09023 0.52688 0.0
H670 H 0.10665 0.14404 0.51082 0.0
H671 H 0.13519 0.12244 0.53155 0.0
C672 C 0.67234 0.98033 0.95552 0.0
C673 C 0.65527 0.94136 0.94869 0.0
C674 C 0.66776 1.0016 0.97818 0.0
C675 C 0.64501 0.98402 0.99405 0.0
C676 C 0.62662 0.94614 0.98654 0.0
C677 C 0.6324 0.92467 0.96413 0.0
C678 C 0.68827 0.04137 0.98561 0.0
C679 C 0.60143 0.92746 1.00245 0.0
C680 C 0.65731 1.00721 0.06132 0.0
C681 C 0.64121 0.04883 0.06443 0.0
C682 C 0.65808 0.98494 0.03863 0.0
C683 C 0.64151 1.00405 0.01886 0.0
C684 C 0.62329 0.04414 0.02253 0.0
C685 C 0.62385 0.06656 0.04514 0.0
C686 C 0.6784 0.94293 0.03542 0.0
C687 C 0.60446 0.06481 1.00226 0.0
H688 H 0.69041 0.99256 0.94369 0.0
H689 H 0.61939 0.89424 0.95881 0.0
H690 H 0.67435 0.07221 0.99048 0.0
H691 H 0.70163 0.03147 1.00194 0.0
H692 H 0.7045 0.05137 0.97105 0.0
H693 H 0.58712 0.9013 0.9929 0.0
H694 H 0.61151 0.91097 0.01878 0.0
H695 H 0.58647 0.95621 0.00872 0.0
H696 H 0.67125 0.99412 0.07607 0.0
H697 H 0.61165 0.09908 0.0475 0.0
H698 H 0.6971 0.95129 0.02256 0.0
H699 H 0.6652 0.9137 0.02753 0.0
H700 H 0.68877 0.93128 0.05278 0.0
H701 H 0.61983 0.08152 0.98889 0.0
H702 H 0.58807 0.09137 0.00897 0.0
H703 H 0.59149 0.03729 0.99261 0.0
C704 C 0.85785 0.99912 0.55902 0.0
C705 C 0.87615 0.96092 0.56553 0.0
C706 C 0.85792 0.01681 0.53521 0.0
C707 C 0.87691 0.99609 0.51738 0.0
C708 C 0.89626 0.9587 0.52408 0.0
C709 C 0.89557 0.94152 0.54794 0.0
C710 C 0.83681 0.05662 0.52892 0.0
C711 C 0.91714 0.93592 0.50583 0.0
C712 C 0.85435 0.00998 0.45076 0.0
C713 C 0.87298 0.04707 0.44336 0.0
C714 C 0.85557 0.9928 0.47466 0.0
C715 C 0.87609 0.01288 0.49165 0.0
C716 C 0.89558 0.04937 0.48409 0.0
C717 C 0.89371 0.06608 0.46017 0.0
C718 C 0.83424 0.95399 0.48191 0.0
C719 C 0.91795 0.07159 0.50146 0.0
H720 H 0.84251 0.01415 0.57231 0.0
H721 H 0.90975 0.91195 0.55265 0.0
H722 H 0.84986 0.08518 0.5203 0.0
H723 H 0.81943 0.04477 0.5156 0.0
H724 H 0.82476 0.07063 0.54506 0.0
H725 H 0.93209 0.90908 0.51418 0.0
H726 H 0.90327 0.91927 0.49137 0.0
H727 H 0.93182 0.9624 0.49702 0.0
H728 H 0.83796 0.99536 0.43811 0.0
H729 H 0.90814 0.09487 0.45478 0.0
H730 H 0.81888 0.96604 0.49662 0.0
H731 H 0.84757 0.9242 0.48912 0.0
H732 H 0.81995 0.94163 0.46653 0.0
H733 H 0.90527 0.08897 0.51633 0.0
H734 H 0.93273 0.09773 0.49245 0.0
H735 H 0.93277 0.04468 0.50984 0.0
C736 C 0.84992 0.50403 0.06289 0.0
C737 C 0.87146 0.53661 0.07114 0.0
C738 C 0.85155 0.4853 0.03941 0.0
C739 C 0.87577 0.49848 0.02383 0.0
C740 C 0.89819 0.53019 0.0323 0.0
C741 C 0.89553 0.54936 0.05571 0.0
C742 C 0.8268 0.45231 0.03107 0.0
C743 C 0.92481 0.54419 0.01655 0.0
C744 C 0.88916 0.41344 0.97208 0.0
C745 C 0.87428 0.43546 0.95269 0.0
C746 C 0.8914 0.43482 0.99492 0.0
C747 C 0.87748 0.47867 0.99877 0.0
C748 C 0.86317 0.50169 0.97902 0.0
C749 C 0.86214 0.48006 0.9561 0.0
C750 C 0.90762 0.40955 0.01519 0.0
C751 C 0.84737 0.5479 0.98239 0.0
H752 H 0.83096 0.49445 0.07449 0.0
H753 H 0.91221 0.57461 0.06188 0.0
H754 H 0.81529 0.46646 0.01472 0.0
H755 H 0.83699 0.4184 0.02596 0.0
H756 H 0.80923 0.44621 0.04524 0.0
H757 H 0.94119 0.56715 0.02625 0.0
H758 H 0.93723 0.51283 0.01019 0.0
H759 H 0.91631 0.56268 1.00025 0.0
H760 H 0.89858 0.37893 0.96948 0.0
H761 H 0.85022 0.49684 0.94124 0.0
H762 H 0.89068 0.39797 0.02884 0.0
H763 H 0.92393 0.43314 0.0245 0.0
H764 H 0.92033 0.37861 0.00858 0.0
H765 H 0.82777 0.54373 0.99496 0.0
H766 H 0.83868 0.56238 0.96503 0.0
H767 H 0.86325 0.57338 0.99072 0.0
C768 C 0.62993 0.52961 0.45432 0.0
C769 C 0.65004 0.56734 0.45252 0.0
C770 C 0.62743 0.50439 0.47614 0.0
C771 C 0.64618 0.51634 0.49625 0.0
C772 C 0.66634 0.55457 0.49445 0.0
C773 C 0.66773 0.57978 0.4728 0.0
C774 C 0.60517 0.46448 0.47756 0.0
C775 C 0.68752 0.56777 0.51504 0.0
C776 C 0.63473 0.47399 0.56113 0.0
C777 C 0.65543 0.4368 0.56214 0.0
C778 C 0.63006 0.49868 0.53936 0.0
C779 C 0.64716 0.48669 0.51842 0.0
C780 C 0.6678 0.44884 0.51939 0.0
C781 C 0.6714 0.42418 0.54107 0.0
C782 C 0.60735 0.53817 0.53888 0.0
C783 C 0.68725 0.43563 0.49783 0.0
H784 H 0.61614 0.51997 0.43876 0.0
H785 H 0.68367 0.60853 0.47152 0.0
H786 H 0.61792 0.43123 0.47884 0.0
H787 H 0.59095 0.46756 0.49412 0.0
H788 H 0.58985 0.46292 0.46149 0.0
H789 H 0.70135 0.59915 0.5109 0.0
H790 H 0.67419 0.57447 0.53174 0.0
H791 H 0.7034 0.53859 0.51896 0.0
H792 H 0.62217 0.48369 0.57727 0.0
H793 H 0.68769 0.39576 0.54172 0.0
H794 H 0.59192 0.53479 0.52298 0.0
H795 H 0.61967 0.57164 0.53704 0.0
H796 H 0.59326 0.53951 0.5556 0.0
H797 H 0.67262 0.42923 0.48173 0.0
H798 H 0.70128 0.40408 0.50125 0.0
H799 H 0.70287 0.46471 0.49327 0.0
C800 C 0.13152 0.5877 0.04456 0.0
C801 C 0.14678 0.56615 0.06391 0.0
C802 C 0.13035 0.56707 0.02151 0.0
C803 C 0.14559 0.52435 0.01744 0.0
C804 C 0.16009 0.50149 0.03718 0.0
C805 C 0.16021 0.52248 0.06028 0.0
C806 C 0.114 0.59217 1.00125 0.0
C807 C 0.17706 0.4563 0.03358 0.0
C808 C 0.12907 0.45477 0.95998 0.0
C809 C 0.15301 0.46872 0.94468 0.0
C810 C 0.12609 0.47301 0.98352 0.0
C811 C 0.14794 0.50529 0.99227 0.0
C812 C 0.17195 0.51994 0.97681 0.0
C813 C 0.17401 0.50184 0.95317 0.0
C814 C 0.09973 0.45736 0.99914 0.0
C815 C 0.19598 0.55388 0.98543 0.0
H816 H 0.12126 0.62163 0.0473 0.0
H817 H 0.17257 0.50621 0.07508 0.0
H818 H 0.13098 0.60532 0.98802 0.0
H819 H 0.09855 0.56805 0.99141 0.0
H820 H 0.10033 0.62207 0.00797 0.0
H821 H 0.18543 0.44143 0.05095 0.0
H822 H 0.1621 0.43043 0.02454 0.0
H823 H 0.19701 0.46212 0.02154 0.0
H824 H 0.11278 0.4291 0.95362 0.0
H825 H 0.19284 0.51233 0.94166 0.0
H826 H 0.08661 0.48794 1.00564 0.0
H827 H 0.10858 0.43897 0.01536 0.0
H828 H 0.08388 0.43379 0.98929 0.0
H829 H 0.18507 0.58721 0.99067 0.0
H830 H 0.21351 0.56105 0.97137 0.0
H831 H 0.20763 0.53996 1.00177 0.0
C832 C 0.35569 0.51526 0.56409 0.0
C833 C 0.37839 0.48396 0.57163 0.0
C834 C 0.35555 0.53362 0.54053 0.0
C835 C 0.379 0.52097 0.5241 0.0
C836 C 0.40259 0.49054 0.53183 0.0
C837 C 0.40181 0.47197 0.55541 0.0
C838 C 0.32968 0.56541 0.53302 0.0
C839 C 0.42835 0.47702 0.51506 0.0
C840 C 0.35969 0.53657 0.45719 0.0
C841 C 0.37062 0.58155 0.45296 0.0
C842 C 0.36312 0.51558 0.48008 0.0
C843 C 0.37856 0.5398 0.49889 0.0
C844 C 0.39136 0.584 0.49409 0.0
C845 C 0.38681 0.60461 0.47132 0.0
C846 C 0.34862 0.46879 0.48455 0.0
C847 C 0.40866 0.6105 0.51335 0.0
H848 H 0.33709 0.5237 0.57621 0.0
H849 H 0.41931 0.44751 0.56104 0.0
H850 H 0.33891 0.59926 0.52686 0.0
H851 H 0.31707 0.5499 0.51753 0.0
H852 H 0.31324 0.57189 0.54799 0.0
H853 H 0.44596 0.45547 0.5243 0.0
H854 H 0.41912 0.45712 0.49946 0.0
H855 H 0.4395 0.50857 0.50767 0.0
H856 H 0.34681 0.51899 0.44309 0.0
H857 H 0.39534 0.63939 0.46802 0.0
H858 H 0.32956 0.47265 0.49766 0.0
H859 H 0.36548 0.44457 0.49272 0.0
H860 H 0.33945 0.45298 0.46766 0.0
H861 H 0.39258 0.62195 0.5277 0.0
H862 H 0.42029 0.64166 0.5059 0.0
H863 H 0.42605 0.58783 0.52204 0.0
C864 C 0.30967 0.09392 0.22164 0.0
C865 C 0.29225 0.10542 0.20119 0.0
C866 C 0.29581 0.09112 0.24469 0.0
C867 C 0.26388 0.09942 0.24709 0.0
C868 C 0.24605 0.10758 0.2261 0.0
C869 C 0.26047 0.1108 0.20352 0.0
C870 C 0.31563 0.08228 0.26662 0.0
C871 C 0.21198 0.11602 0.2276 0.0
C872 C 0.2219 0.07698 0.30676 0.0
C873 C 0.22142 0.12163 0.31703 0.0
C874 C 0.23587 0.06887 0.28411 0.0
C875 C 0.24971 0.10622 0.27149 0.0
C876 C 0.24877 0.15139 0.28162 0.0
C877 C 0.2346 0.15851 0.30409 0.0
C878 C 0.23614 0.02031 0.27381 0.0
C879 C 0.26299 0.19238 0.2688 0.0
H880 H 0.33422 0.08968 0.21983 0.0
H881 H 0.2469 0.11903 0.1876 0.0
H882 H 0.31773 0.11479 0.27731 0.0
H883 H 0.305 0.05583 0.27852 0.0
H884 H 0.33896 0.0704 0.26155 0.0
H885 H 0.20089 0.11557 0.20947 0.0
H886 H 0.20091 0.08942 0.23916 0.0
H887 H 0.20768 0.1504 0.23605 0.0
H888 H 0.21213 0.04815 0.31669 0.0
H889 H 0.23438 0.19319 0.31176 0.0
H890 H 0.2601 0.00843 0.27135 0.0
H891 H 0.22512 0.02005 0.25568 0.0
H892 H 0.22407 0.99514 0.28566 0.0
H893 H 0.28756 0.18544 0.26523 0.0
H894 H 0.26112 0.22501 0.27946 0.0
H895 H 0.25163 0.19778 0.25102 0.0
C896 C 0.28817 0.86488 0.80747 0.0
C897 C 0.30198 0.90322 0.8189 0.0
C898 C 0.27305 0.8692 0.78516 0.0
C899 C 0.27174 0.91295 0.77357 0.0
C900 C 0.28601 0.95182 0.78471 0.0
C901 C 0.30097 0.94652 0.80726 0.0
C902 C 0.25851 0.82666 0.77395 0.0
C903 C 0.28535 0.99897 0.77282 0.0
C904 C 0.26156 0.90489 0.70544 0.0
C905 C 0.22998 0.91281 0.70227 0.0
C906 C 0.27544 0.90683 0.72832 0.0
C907 C 0.25747 0.91654 0.74896 0.0
C908 C 0.22566 0.92534 0.74605 0.0
C909 C 0.21227 0.92353 0.72272 0.0
C910 C 0.30937 0.89717 0.73043 0.0
C911 C 0.20569 0.93558 0.76765 0.0
H912 H 0.28881 0.83115 0.81618 0.0
H913 H 0.31119 0.97645 0.81601 0.0
H914 H 0.23394 0.83331 0.77017 0.0
H915 H 0.26966 0.81867 0.75639 0.0
H916 H 0.26037 0.7956 0.78579 0.0
H917 H 0.2968 0.02594 0.78402 0.0
H918 H 0.29688 0.99725 0.75495 0.0
H919 H 0.26132 0.00977 0.76948 0.0
H920 H 0.27578 0.89696 0.68991 0.0
H921 H 0.18798 0.92998 0.72055 0.0
H922 H 0.3131 0.86459 0.74075 0.0
H923 H 0.32087 0.92553 0.74055 0.0
H924 H 0.32054 0.89354 0.71247 0.0
H925 H 0.20482 0.90466 0.77962 0.0
H926 H 0.18194 0.94495 0.7623 0.0
H927 H 0.21556 0.96448 0.77843 0.0
C928 C 0.76548 0.88835 0.69815 0.0
C929 C 0.79719 0.89432 0.69484 0.0
C930 C 0.75211 0.88974 0.72117 0.0
C931 C 0.77073 0.89709 0.74176 0.0
C932 C 0.80267 0.90422 0.7387 0.0
C933 C 0.81555 0.90287 0.71525 0.0
C934 C 0.71801 0.88206 0.72345 0.0
C935 C 0.82328 0.9122 0.76027 0.0
C936 C 0.72951 0.92827 0.80064 0.0
C937 C 0.72786 0.88488 0.81215 0.0
C938 C 0.74389 0.93308 0.77793 0.0
C939 C 0.75683 0.8936 0.76643 0.0
C940 C 0.75469 0.84968 0.77779 0.0
C941 C 0.74027 0.84589 0.80039 0.0
C942 C 0.74553 0.98046 0.76633 0.0
C943 C 0.76775 0.80653 0.76612 0.0
H944 H 0.75078 0.88231 0.68262 0.0
H945 H 0.83996 0.9078 0.71295 0.0
H946 H 0.71365 0.84942 0.73353 0.0
H947 H 0.7074 0.91078 0.73389 0.0
H948 H 0.70644 0.87968 0.70554 0.0
H949 H 0.84716 0.92027 0.75483 0.0
H950 H 0.81437 0.94122 0.77146 0.0
H951 H 0.82354 0.88073 0.77186 0.0
H952 H 0.72042 0.9587 0.8097 0.0
H953 H 0.73915 0.81217 0.80908 0.0
H954 H 0.73385 0.97986 0.74846 0.0
H955 H 0.76977 0.98998 0.76304 0.0
H956 H 0.7348 0.0078 0.77772 0.0
H957 H 0.75619 0.80007 0.74851 0.0
H958 H 0.76503 0.77522 0.77766 0.0
H959 H 0.79246 0.81148 0.76233 0.0
C960 C 0.72051 0.07416 0.21033 0.0
C961 C 0.72371 0.1138 0.19576 0.0
C962 C 0.73513 0.07114 0.23311 0.0
C963 C 0.75344 0.10856 0.24152 0.0
C964 C 0.75659 0.14863 0.22693 0.0
C965 C 0.74168 0.15082 0.20442 0.0
C966 C 0.73094 0.028 0.24824 0.0
C967 C 0.77563 0.18953 0.23517 0.0
C968 C 0.76424 0.12895 0.30894 0.0
C969 C 0.79425 0.11291 0.31318 0.0
C970 C 0.75063 0.12649 0.28597 0.0
C971 C 0.76732 0.10786 0.26634 0.0
C972 C 0.79762 0.09154 0.27029 0.0
C973 C 0.81075 0.09418 0.29369 0.0
C974 C 0.71835 0.14446 0.28271 0.0
C975 C 0.81623 0.07172 0.24974 0.0
H976 H 0.70699 0.04518 0.20379 0.0
H977 H 0.74444 0.18172 0.19344 0.0
H978 H 0.75355 0.01266 0.25273 0.0
H979 H 0.7197 0.03712 0.26562 0.0
H980 H 0.71685 1.00135 0.23887 0.0
H981 H 0.77703 0.21717 0.22118 0.0
H982 H 0.76564 0.20474 0.25184 0.0
H983 H 0.79918 0.17795 0.2397 0.0
H984 H 0.75106 0.14358 0.3237 0.0
H985 H 0.83381 0.08149 0.29669 0.0
H986 H 0.70365 0.1171 0.27464 0.0
H987 H 0.71834 0.17431 0.27001 0.0
H988 H 0.70794 0.15592 0.30006 0.0
H989 H 0.80366 0.04265 0.24106 0.0
H990 H 0.83895 0.05888 0.25587 0.0
H991 H 0.81976 0.0987 0.23568 0.0
C992 C 0.72361 0.64877 0.30006 0.0
C993 C 0.71475 0.6095 0.31336 0.0
C994 C 0.73815 0.64457 0.27757 0.0
C995 C 0.74405 0.59989 0.26793 0.0
C996 C 0.73428 0.55999 0.28084 0.0
C997 C 0.71966 0.56526 0.30343 0.0
C998 C 0.74775 0.6881 0.26433 0.0
C999 C 0.73999 0.5118 0.27107 0.0
C1000 C 0.756 0.60017 0.2 0.0
C1001 C 0.7881 0.60102 0.19798 0.0
C1002 C 0.74151 0.59735 0.22255 0.0
C1003 C 0.7594 0.59572 0.24388 0.0
C1004 C 0.79183 0.59486 0.24206 0.0
C1005 C 0.80584 0.59728 0.21908 0.0
C1006 C 0.70695 0.598 0.22353 0.0
C1007 C 0.81169 0.59315 0.26444 0.0
H1008 H 0.71988 0.68309 0.30762 0.0
H1009 H 0.71333 0.53476 0.31377 0.0
H1010 H 0.77286 0.68779 0.26139 0.0
H1011 H 0.73667 0.68936 0.24624 0.0
H1012 H 0.74162 0.72022 0.27439 0.0
H1013 H 0.73015 0.48442 0.28289 0.0
H1014 H 0.72998 0.50833 0.25267 0.0
H1015 H 0.76498 0.50573 0.2694 0.0
H1016 H 0.74193 0.60209 0.18383 0.0
H1017 H 0.83058 0.59757 0.2177 0.0
H1018 H 0.69907 0.63104 0.23181 0.0
H1019 H 0.69842 0.56927 0.23505 0.0
H1020 H 0.69638 0.59479 0.20527 0.0
H1021 H 0.80903 0.62594 0.27481 0.0
H1022 H 0.83629 0.58848 0.25999 0.0
H1023 H 0.80436 0.56435 0.27643 0.0
C1024 C 0.79029 0.35527 0.8017 0.0
C1025 C 0.80398 0.39253 0.81411 0.0
C1026 C 0.77554 0.36159 0.77935 0.0
C1027 C 0.77453 0.40629 0.76873 0.0
C1028 C 0.78883 0.44404 0.78081 0.0
C1029 C 0.80334 0.43676 0.80339 0.0
C1030 C 0.76086 0.32018 0.76715 0.0
C1031 C 0.78854 0.49213 0.76997 0.0
C1032 C 0.76314 0.39875 0.70081 0.0
C1033 C 0.73137 0.40459 0.69837 0.0
C1034 C 0.77773 0.40266 0.72335 0.0
C1035 C 0.76012 0.41204 0.74426 0.0
C1036 C 0.72821 0.42064 0.74176 0.0
C1037 C 0.71418 0.41717 0.71872 0.0
C1038 C 0.81177 0.39384 0.72492 0.0
C1039 C 0.70861 0.4307 0.7636 0.0
H1040 H 0.7906 0.32089 0.80969 0.0
H1041 H 0.81347 0.4659 0.8129 0.0
H1042 H 0.7363 0.32735 0.76356 0.0
H1043 H 0.77198 0.31363 0.74942 0.0
H1044 H 0.76261 0.2881 0.77824 0.0
H1045 H 0.80073 0.51777 0.78153 0.0
H1046 H 0.79944 0.49153 0.75184 0.0
H1047 H 0.76458 0.50398 0.76739 0.0
H1048 H 0.77662 0.38985 0.68499 0.0
H1049 H 0.68966 0.42186 0.71687 0.0
H1050 H 0.81595 0.35998 0.73394 0.0
H1051 H 0.82309 0.42103 0.73601 0.0
H1052 H 0.82271 0.39298 0.70678 0.0
H1053 H 0.70649 0.39875 0.7747 0.0
H1054 H 0.68528 0.44252 0.75843 0.0
H1055 H 0.71944 0.45764 0.77516 0.0
C1056 C 0.22098 0.42449 0.79864 0.0
C1057 C 0.23227 0.39436 0.81649 0.0
C1058 C 0.23514 0.42729 0.77576 0.0
C1059 C 0.26096 0.399 0.77061 0.0
C1060 C 0.27191 0.3678 0.7884 0.0
C1061 C 0.25751 0.36593 0.81104 0.0
C1062 C 0.22277 0.46092 0.7572 0.0
C1063 C 0.29898 0.33644 0.78359 0.0
C1064 C 0.27911 0.37174 0.70493 0.0
C1065 C 0.30351 0.40202 0.70001 0.0
C1066 C 0.26521 0.37044 0.72776 0.0
C1067 C 0.2758 0.40032 0.7463 0.0
C1068 C 0.30093 0.43025 0.74171 0.0
C1069 C 0.31464 0.4306 0.7186 0.0
C1070 C 0.23889 0.3374 0.73192 0.0
C1071 C 0.3129 0.46252 0.76109 0.0
H1072 H 0.20171 0.44685 0.80278 0.0
H1073 H 0.26629 0.3423 0.82468 0.0
H1074 H 0.24095 0.48572 0.75184 0.0
H1075 H 0.21571 0.44185 0.74063 0.0
H1076 H 0.20281 0.48088 0.76408 0.0
H1077 H 0.30472 0.3142 0.7994 0.0
H1078 H 0.29411 0.31365 0.76783 0.0
H1079 H 0.31935 0.35758 0.77895 0.0
H1080 H 0.27052 0.34925 0.69069 0.0
H1081 H 0.33328 0.45433 0.71486 0.0
H1082 H 0.21804 0.35719 0.73694 0.0
H1083 H 0.24426 0.31377 0.74721 0.0
H1084 H 0.23366 0.31603 0.71566 0.0
H1085 H 0.29443 0.48648 0.76696 0.0
H1086 H 0.33266 0.48345 0.75474 0.0
H1087 H 0.32008 0.44227 0.77723 0.0
C1088 C 0.21505 0.5809 0.21483 0.0
C1089 C 0.22046 0.62052 0.20064 0.0
C1090 C 0.22854 0.57608 0.23799 0.0
C1091 C 0.24816 0.61138 0.24702 0.0
C1092 C 0.25369 0.65122 0.23273 0.0
C1093 C 0.23965 0.65546 0.21 0.0
C1094 C 0.22168 0.53343 0.25287 0.0
C1095 C 0.2744 0.6898 0.24151 0.0
C1096 C 0.2597 0.63726 0.31368 0.0
C1097 C 0.28946 0.62061 0.31799 0.0
C1098 C 0.2453 0.63154 0.29117 0.0
C1099 C 0.26115 0.60929 0.2721 0.0
C1100 C 0.29078 0.59067 0.27653 0.0
C1101 C 0.3045 0.59608 0.29958 0.0
C1102 C 0.21357 0.65133 0.28753 0.0
C1103 C 0.30856 0.5671 0.25661 0.0
H1104 H 0.20052 0.55353 0.20779 0.0
H1105 H 0.24421 0.6863 0.19936 0.0
H1106 H 0.24329 0.51545 0.25777 0.0
H1107 H 0.21038 0.5437 0.27005 0.0
H1108 H 0.20659 0.5086 0.24311 0.0
H1109 H 0.27791 0.71709 0.22757 0.0
H1110 H 0.26442 0.70634 0.25785 0.0
H1111 H 0.29707 0.67551 0.24674 0.0
H1112 H 0.24753 0.65521 0.32801 0.0
H1113 H 0.32734 0.58274 0.30288 0.0
H1114 H 0.19842 0.6253 0.27881 0.0
H1115 H 0.21475 0.68183 0.2753 0.0
H1116 H 0.20297 0.66254 0.30486 0.0
H1117 H 0.29417 0.54073 0.24739 0.0
H1118 H 0.32966 0.55002 0.26352 0.0
H1119 H 0.31519 0.5932 0.24281 0.0
C1120 C 0.44382 0.18145 0.14781 0.0
C1121 C 0.42604 0.14151 0.15136 0.0
C1122 C 0.47579 0.18043 0.1507 0.0
C1123 C 0.49056 0.1381 0.15668 0.0
C1124 C 0.47251 0.09844 0.16194 0.0
C1125 C 0.44042 0.10074 0.15944 0.0
C1126 C 0.49391 0.22386 0.14544 0.0
C1127 C 0.48718 0.05245 0.16808 0.0
C1128 C 0.56704 0.12392 0.12512 0.0
C1129 C 0.58817 0.13234 0.14377 0.0
C1130 C 0.53546 0.12385 0.12944 0.0
C1131 C 0.52438 0.13357 0.15299 0.0
C1132 C 0.54561 0.14124 0.17212 0.0
C1133 C 0.5774 0.13992 0.16734 0.0
C1134 C 0.51393 0.11438 0.10853 0.0
C1135 C 0.53474 0.15246 0.19737 0.0
H1136 H 0.43282 0.21319 0.14177 0.0
H1137 H 0.42686 0.06965 0.16209 0.0
H1138 H 0.51219 0.22882 0.15919 0.0
H1139 H 0.50514 0.22046 0.12752 0.0
H1140 H 0.47916 0.25532 0.14512 0.0
H1141 H 0.47037 0.02746 0.17565 0.0
H1142 H 0.49713 0.03711 0.1514 0.0
H1143 H 0.5061 0.05711 0.18128 0.0
H1144 H 0.5753 0.11728 0.10692 0.0
H1145 H 0.59371 0.14645 0.18177 0.0
H1146 H 0.50028 0.14597 0.10451 0.0
H1147 H 0.49765 0.08635 0.11337 0.0
H1148 H 0.52628 0.10399 0.09181 0.0
H1149 H 0.52319 0.1868 0.19733 0.0
H1150 H 0.55389 0.1535 0.21063 0.0
H1151 H 0.51769 0.12649 0.20346 0.0
C1152 C 0.07446 0.92088 0.64294 0.0
C1153 C 0.09405 0.88643 0.65205 0.0
C1154 C 0.04255 0.91581 0.64388 0.0
C1155 C 0.02974 0.87612 0.65511 0.0
C1156 C 0.04945 0.84246 0.66563 0.0
C1157 C 0.08144 0.84741 0.66342 0.0
C1158 C 0.02264 0.95171 0.63156 0.0
C1159 C 0.03677 0.80067 0.67864 0.0
C1160 C 0.94408 0.88977 0.66608 0.0
C1161 C 0.93182 0.86567 0.64623 0.0
C1162 C 0.97589 0.89041 0.67037 0.0
C1163 C 0.99594 0.86837 0.65375 0.0
C1164 C 0.9835 0.84299 0.63405 0.0
C1165 C 0.95163 0.84123 0.63084 0.0
C1166 C 0.9881 0.91615 0.69215 0.0
C1167 C 1.00386 0.82042 0.61533 0.0
H1168 H 0.08414 0.9507 0.63375 0.0
H1169 H 0.09657 0.82072 0.67042 0.0
H1170 H 1.0093 0.93508 0.61678 0.0
H1171 H 1.006 0.96647 0.6446 0.0
H1172 H 0.0362 0.98063 0.62373 0.0
H1173 H 0.05473 0.78194 0.68906 0.0
H1174 H 0.01825 0.81129 0.69123 0.0
H1175 H 0.02666 0.77621 0.66533 0.0
H1176 H 0.92882 0.90863 0.67804 0.0
H1177 H 0.94231 0.82311 0.61525 0.0
H1178 H 0.99865 0.94929 0.68629 0.0
H1179 H 1.00614 0.89543 0.70134 0.0
H1180 H 0.96974 0.92423 0.70541 0.0
H1181 H 0.01731 0.84753 0.60584 0.0
H1182 H 0.9906 0.80052 0.60162 0.0
H1183 H 0.0204 0.79658 0.62415 0.0
C1184 C 0.57782 0.8676 0.8912 0.0
C1185 C 0.59807 0.86527 0.87153 0.0
C1186 C 0.54608 0.87066 0.88775 0.0
C1187 C 0.53386 0.87007 0.86396 0.0
C1188 C 0.55413 0.86769 0.84392 0.0
C1189 C 0.5861 0.8661 0.84793 0.0
C1190 C 0.52561 0.8744 0.90971 0.0
C1191 C 0.54202 0.86581 0.81833 0.0
C1192 C 0.4512 0.83013 0.86628 0.0
C1193 C 0.43534 0.87249 0.86629 0.0
C1194 C 0.48311 0.82853 0.86306 0.0
C1195 C 0.49979 0.87046 0.86066 0.0
C1196 C 0.48361 0.91315 0.85916 0.0
C1197 C 0.4515 0.91357 0.86169 0.0
C1198 C 0.49915 0.78211 0.86408 0.0
C1199 C 0.50035 0.95879 0.85716 0.0
H1200 H 0.58691 0.86787 0.9095 0.0
H1201 H 0.60165 0.86439 0.83269 0.0
H1202 H 0.51035 0.90506 0.90801 0.0
H1203 H 0.51083 0.8432 0.91097 0.0
H1204 H 0.53885 0.8776 0.92684 0.0
H1205 H 0.56068 0.86528 0.8047 0.0
H1206 H 0.5278 0.8342 0.81595 0.0
H1207 H 0.52703 0.89616 0.81473 0.0
H1208 H 0.43876 0.79827 0.86979 0.0
H1209 H 0.43939 0.94646 0.86201 0.0
H1210 H 0.51059 0.77813 0.88193 0.0
H1211 H 0.51709 0.77987 0.84993 0.0
H1212 H 0.48294 0.75277 0.86165 0.0
H1213 H 0.51144 0.96686 0.87478 0.0
H1214 H 0.48467 0.98783 0.85245 0.0
H1215 H 0.51867 0.95677 0.84333 0.0
C1216 C 0.94755 0.09386 0.36331 0.0
C1217 C 0.92952 0.13424 0.36203 0.0
C1218 C 0.9797 0.09611 0.36255 0.0
C1219 C 0.99433 0.13969 0.35984 0.0
C1220 C 0.97619 0.18006 0.35647 0.0
C1221 C 0.94406 0.17697 0.35793 0.0
C1222 C 0.99794 0.05226 0.36673 0.0
C1223 C 0.99075 0.22703 0.35283 0.0
C1224 C 0.07021 0.15579 0.39263 0.0
C1225 C 0.0918 0.14859 0.37419 0.0
C1226 C 0.03867 0.15293 0.38809 0.0
C1227 C 0.02807 0.14383 0.36429 0.0
C1228 C 0.04967 0.13746 0.3454 0.0
C1229 C 0.08133 0.13919 0.35063 0.0
C1230 C 0.01669 0.15876 0.40898 0.0
C1231 C 0.03931 0.1289 0.31969 0.0
H1232 H 0.93667 0.06064 0.36657 0.0
H1233 H 0.93037 0.20832 0.35672 0.0
H1234 H 0.01665 0.04913 0.35329 0.0
H1235 H 1.00868 0.05365 0.38496 0.0
H1236 H 0.98346 0.02062 0.36569 0.0
H1237 H 0.97395 0.25322 0.34631 0.0
H1238 H 1.00047 0.23942 0.37026 0.0
H1239 H 1.00982 0.22471 0.33964 0.0
H1240 H 0.078 0.16248 0.41096 0.0
H1241 H 0.09785 0.13375 0.33629 0.0
H1242 H 1.00216 0.12735 0.41071 0.0
H1243 H 1.00123 0.18864 0.40555 0.0
H1244 H 0.02867 0.16463 0.42649 0.0
H1245 H 0.02642 0.09579 0.31864 0.0
H1246 H 0.05882 0.12718 0.30685 0.0
H1247 H 0.02352 0.15697 0.31383 0.0
C1248 C 0.94398 0.58499 0.15277 0.0
C1249 C 0.92589 0.62532 0.15372 0.0
C1250 C 0.97607 0.58729 0.15455 0.0
C1251 C 0.99053 0.63086 0.15795 0.0
C1252 C 0.9722 0.67108 0.16114 0.0
C1253 C 0.94017 0.66796 0.15865 0.0
C1254 C 0.99452 0.5436 0.15052 0.0
C1255 C 0.98653 0.71802 0.16551 0.0
C1256 C 0.07746 0.63066 0.16804 0.0
C1257 C 0.08808 0.64055 0.14463 0.0
C1258 C 0.04574 0.62874 0.17299 0.0
C1259 C 0.02429 0.63537 0.15393 0.0
C1260 C 0.03505 0.64508 0.13031 0.0
C1261 C 0.0666 0.64813 0.12607 0.0
C1262 C 0.03517 0.61957 0.19853 0.0
C1263 C 0.01325 0.65128 0.10924 0.0
H1264 H 0.93327 0.55185 0.14889 0.0
H1265 H 0.9264 0.69926 0.15963 0.0
H1266 H 1.00553 0.54518 0.13243 0.0
H1267 H 0.01303 0.54051 0.1642 0.0
H1268 H 0.98011 0.51187 0.15128 0.0
H1269 H 0.96952 0.74378 0.1721 0.0
H1270 H 1.00541 0.71538 0.17892 0.0
H1271 H 0.99644 0.73117 0.14835 0.0
H1272 H 0.09388 0.62485 0.18247 0.0
H1273 H 0.07447 0.65516 0.10783 0.0
H1274 H 0.02263 0.58613 0.19928 0.0
H1275 H 0.01901 0.64715 0.20435 0.0
H1276 H 0.05455 0.61813 0.21157 0.0
H1277 H 0.99881 0.61984 0.10714 0.0
H1278 H 0.02537 0.65759 0.09188 0.0
H1279 H 0.99771 0.68101 0.11271 0.0
C1280 C 0.58534 0.37081 0.66786 0.0
C1281 C 0.5964 0.36687 0.64412 0.0
C1282 C 0.55355 0.37173 0.67245 0.0
C1283 C 0.53258 0.3703 0.65278 0.0
C1284 C 0.54383 0.36679 0.62882 0.0
C1285 C 0.57542 0.3645 0.62486 0.0
C1286 C 0.54239 0.37417 0.69825 0.0
C1287 C 0.52252 0.36649 0.60719 0.0
C1288 C 0.4482 0.3391 0.65338 0.0
C1289 C 0.43458 0.38308 0.65126 0.0
C1290 C 0.48007 0.33441 0.65638 0.0
C1291 C 0.49884 0.37456 0.65657 0.0
C1292 C 0.48498 0.41903 0.65606 0.0
C1293 C 0.45306 0.42272 0.65374 0.0
C1294 C 0.49382 0.28637 0.65763 0.0
C1295 C 0.50398 0.46282 0.65564 0.0
H1296 H 0.60148 0.37247 0.68278 0.0
H1297 H 0.58377 0.36211 0.60642 0.0
H1298 H 0.52979 0.40713 0.70125 0.0
H1299 H 0.52614 0.34537 0.7018 0.0
H1300 H 0.56147 0.3721 0.71155 0.0
H1301 H 0.53504 0.36463 0.58972 0.0
H1302 H 0.5068 0.33635 0.60826 0.0
H1303 H 0.50823 0.3984 0.60717 0.0
H1304 H 0.4341 0.30828 0.6518 0.0
H1305 H 0.44287 0.45693 0.65218 0.0
H1306 H 0.51236 0.28501 0.67139 0.0
H1307 H 0.50405 0.27739 0.63986 0.0
H1308 H 0.47637 0.25969 0.66209 0.0
H1309 H 0.52202 0.46176 0.66977 0.0
H1310 H 0.48983 0.49447 0.65841 0.0
H1311 H 0.51559 0.46571 0.63784 0.0
C1312 C 0.08088 0.41853 0.86162 0.0
C1313 C 0.09819 0.37745 0.86331 0.0
C1314 C 0.0488 0.41735 0.85964 0.0
C1315 C 0.03349 0.37403 0.85879 0.0
C1316 C 0.05101 0.33254 0.8583 0.0
C1317 C 0.08309 0.33469 0.86085 0.0
C1318 C 0.03121 0.46249 0.8607 0.0
C1319 C 0.03575 0.28564 0.85676 0.0
C1320 C 0.95672 0.36649 0.89064 0.0
C1321 C 0.93565 0.36947 0.87146 0.0
C1322 C 0.98835 0.36827 0.88663 0.0
C1323 C 0.9996 0.37204 0.86269 0.0
C1324 C 0.97852 0.3748 0.84311 0.0
C1325 C 0.9467 0.37418 0.84775 0.0
C1326 C 1.00973 0.36649 0.9082 0.0
C1327 C 0.98962 0.37783 0.81731 0.0
H1328 H 0.09218 0.45185 0.86346 0.0
H1329 H 0.0962 0.30276 0.86187 0.0
H1330 H 0.01283 0.46315 0.84683 0.0
H1331 H 0.02011 0.46576 0.87869 0.0
H1332 H 0.04627 0.4931 0.85796 0.0
H1333 H 0.05231 0.25769 0.85216 0.0
H1334 H 0.02519 0.27718 0.87447 0.0
H1335 H 0.01722 0.28598 0.84298 0.0
H1336 H 0.94841 0.36351 0.90907 0.0
H1337 H 0.93054 0.37632 0.83287 0.0
H1338 H 0.02474 0.39756 0.90834 0.0
H1339 H 0.02475 0.3355 0.90691 0.0
H1340 H 0.99725 0.36502 0.92569 0.0
H1341 H 1.00393 0.40927 0.81491 0.0
H1342 H 0.97042 0.37907 0.80409 0.0
H1343 H 1.00425 0.34736 0.8131 0.0
C1344 C 0.44526 0.62923 0.39022 0.0
C1345 C 0.42587 0.64465 0.37163 0.0
C1346 C 0.4771 0.62782 0.38721 0.0
C1347 C 0.49017 0.64328 0.36519 0.0
C1348 C 0.47062 0.65782 0.34603 0.0
C1349 C 0.43855 0.65793 0.34941 0.0
C1350 C 0.4968 0.61114 0.408 0.0
C1351 C 0.4836 0.67514 0.32242 0.0
C1352 C 0.57156 0.68518 0.3757 0.0
C1353 C 0.58884 0.64603 0.36916 0.0
C1354 C 0.5396 0.68614 0.37262 0.0
C1355 C 0.5243 0.64661 0.36324 0.0
C1356 C 0.5418 0.60801 0.3553 0.0
C1357 C 0.57387 0.60834 0.35816 0.0
C1358 C 0.52203 0.72846 0.38087 0.0
C1359 C 0.52653 0.56492 0.34549 0.0
H1360 H 0.4354 0.61875 0.40739 0.0
H1361 H 0.42354 0.67021 0.33511 0.0
H1362 H 0.51285 0.58381 0.4017 0.0
H1363 H 0.51077 0.64035 0.41505 0.0
H1364 H 0.48299 0.59692 0.42315 0.0
H1365 H 0.46551 0.68105 0.30858 0.0
H1366 H 0.49586 0.70834 0.32559 0.0
H1367 H 0.50051 0.65002 0.31514 0.0
H1368 H 0.58295 0.71463 0.384 0.0
H1369 H 0.58697 0.57784 0.35313 0.0
H1370 H 0.50952 0.72027 0.39781 0.0
H1371 H 0.5048 0.73866 0.36706 0.0
H1372 H 0.53733 0.75852 0.38442 0.0
H1373 H 0.51501 0.54632 0.36052 0.0
H1374 H 0.54321 0.54085 0.33692 0.0
H1375 H 0.5087 0.57413 0.33198 0.0
C1376 C 0.23817 0.01592 0.13968 0.0
C1377 C 0.26376 0.01939 0.12443 0.0
C1378 C 0.22191 0.97398 0.14188 0.0
C1379 C 0.23116 0.93474 0.12822 0.0
C1380 C 0.25578 0.93896 0.11168 0.0
C1381 C 0.27194 0.98104 0.11016 0.0
C1382 C 0.19602 0.97094 0.15986 0.0
C1383 C 0.26605 0.8983 0.09639 0.0
C1384 C 0.22195 0.81135 0.15109 0.0
C1385 C 0.19821 0.79458 0.13639 0.0
C1386 C 0.2315 0.85779 0.14971 0.0
C1387 C 0.21736 0.88812 0.13286 0.0
C1388 C 0.19207 0.87215 0.11904 0.0
C1389 C 0.18262 0.82554 0.1211 0.0
C1390 C 0.25813 0.87347 0.16517 0.0
C1391 C 0.17648 0.90317 0.10077 0.0
H1392 H 0.23179 0.04525 0.15093 0.0
H1393 H 0.29155 0.98355 0.09822 0.0
H1394 H 0.17563 0.9546 0.15142 0.0
H1395 H 0.20306 0.94865 0.17529 0.0
H1396 H 0.18943 1.00559 0.16705 0.0
H1397 H 0.28342 0.90848 0.08272 0.0
H1398 H 0.27612 0.87112 0.10822 0.0
H1399 H 0.24621 0.8826 0.08686 0.0
H1400 H 0.2341 0.78741 0.16285 0.0
H1401 H 0.16461 0.81253 0.10939 0.0
H1402 H 0.25269 0.90684 0.17427 0.0
H1403 H 0.27841 0.87939 0.15352 0.0
H1404 H 0.2643 0.84742 0.17921 0.0
H1405 H 0.17175 0.93788 0.10866 0.0
H1406 H 0.15464 0.88803 0.09411 0.0
H1407 H 0.19187 0.90835 0.08503 0.0
C1408 C 0.24057 0.05775 0.61464 0.0
C1409 C 0.25587 0.01715 0.62165 0.0
C1410 C 0.25553 0.10076 0.61423 0.0
C1411 C 0.28628 0.10378 0.62222 0.0
C1412 C 0.30218 0.06262 0.62879 0.0
C1413 C 0.28683 0.01953 0.62815 0.0
C1414 C 0.23787 0.14329 0.60629 0.0
C1415 C 0.33477 0.06445 0.63783 0.0
C1416 C 0.32682 0.21671 0.60672 0.0
C1417 C 0.32035 0.24422 0.62712 0.0
C1418 C 0.31696 0.17036 0.60522 0.0
C1419 C 0.30082 0.1505 0.62484 0.0
C1420 C 0.2957 0.17731 0.64604 0.0
C1421 C 0.30512 0.22405 0.64679 0.0
C1422 C 0.32209 0.14371 0.582 0.0
C1423 C 0.27909 0.15722 0.66756 0.0
H1424 H 0.21641 0.05612 0.61027 0.0
H1425 H 0.29841 0.98829 0.63421 0.0
H1426 H 0.23366 0.16611 0.62214 0.0
H1427 H 0.25131 0.16357 0.59295 0.0
H1428 H 0.21546 0.1342 0.59801 0.0
H1429 H 0.34472 0.02924 0.64032 0.0
H1430 H 0.34933 0.08422 0.62504 0.0
H1431 H 0.33547 0.08297 0.65547 0.0
H1432 H 0.33822 0.23213 0.59127 0.0
H1433 H 0.3001 0.24504 0.66261 0.0
H1434 H 0.29982 0.13827 0.57271 0.0
H1435 H 0.33186 0.10892 0.58588 0.0
H1436 H 0.33763 0.16231 0.5694 0.0
H1437 H 0.25467 0.15163 0.66284 0.0
H1438 H 0.28023 0.18043 0.68363 0.0
H1439 H 0.28894 0.12294 0.67247 0.0
C1440 C 0.23299 0.21189 0.86976 0.0
C1441 C 0.21104 0.2291 0.88602 0.0
C1442 C 0.24351 0.16575 0.87123 0.0
C1443 C 0.23205 0.13594 0.88951 0.0
C1444 C 0.20885 0.15238 0.90523 0.0
C1445 C 0.19855 0.19858 0.90324 0.0
C1446 C 0.26798 0.14957 0.85388 0.0
C1447 C 0.19606 0.12198 0.92503 0.0
C1448 C 0.24976 1.00649 0.88309 0.0
C1449 C 0.27665 1.00223 0.8969 0.0
C1450 C 0.23445 0.04943 0.88102 0.0
C1451 C 0.24608 0.08899 0.89326 0.0
C1452 C 0.27231 0.08424 0.90823 0.0
C1453 C 0.28734 0.04113 0.90973 0.0
C1454 C 0.20662 0.05292 0.86487 0.0
C1455 C 0.28525 0.12518 0.92197 0.0
H1456 H 0.24276 0.23498 0.85635 0.0
H1457 H 0.18172 0.21137 0.91601 0.0
H1458 H 0.28956 0.14312 0.86398 0.0
H1459 H 0.26116 0.11632 0.84526 0.0
H1460 H 0.27259 0.17547 0.83944 0.0
H1461 H 0.17594 0.13805 0.93404 0.0
H1462 H 0.18923 0.08767 0.91764 0.0
H1463 H 0.21399 0.11569 0.93892 0.0
H1464 H 0.24145 0.97679 0.87295 0.0
H1465 H 0.308 0.03814 0.92054 0.0
H1466 H 0.21195 0.07511 0.84901 0.0
H1467 H 0.18743 0.06963 0.87471 0.0
H1468 H 0.19897 0.0184 0.8582 0.0
H1469 H 0.29383 0.1515 0.90898 0.0
H1470 H 0.30435 0.11501 0.93419 0.0
H1471 H 0.26711 0.142 0.93295 0.0
C1472 C 0.33577 0.8348 0.39217 0.0
C1473 C 0.31903 0.8047 0.37717 0.0
C1474 C 0.32719 0.8817 0.39473 0.0
C1475 C 0.30158 0.89889 0.38171 0.0
C1476 C 0.28627 0.86947 0.36505 0.0
C1477 C 0.295 0.82267 0.36316 0.0
C1478 C 0.34395 0.91165 0.41285 0.0
C1479 C 0.25919 0.88645 0.35047 0.0
C1480 C 0.24914 0.99197 0.40729 0.0
C1481 C 0.25674 0.03067 0.39311 0.0
C1482 C 0.26484 0.94966 0.40475 0.0
C1483 C 0.28846 0.94561 0.3873 0.0
C1484 C 0.29731 0.9852 0.37381 0.0
C1485 C 0.28147 0.02736 0.37699 0.0
C1486 C 0.25493 0.90858 0.41983 0.0
C1487 C 0.32225 0.98236 0.355 0.0
H1488 H 0.354 0.82091 0.4034 0.0
H1489 H 0.28194 0.79942 0.35165 0.0
H1490 H 0.34836 0.9467 0.4053 0.0
H1491 H 0.32952 0.91612 0.42921 0.0
H1492 H 0.36608 0.89591 0.41847 0.0
H1493 H 0.25213 0.86107 0.33636 0.0
H1494 H 0.23949 0.89253 0.36274 0.0
H1495 H 0.2646 0.91997 0.34157 0.0
H1496 H 0.23019 0.99432 0.41989 0.0
H1497 H 0.28737 0.05698 0.36583 0.0
H1498 H 0.2751 0.89051 0.42762 0.0
H1499 H 0.24269 0.88327 0.40814 0.0
H1500 H 0.23944 0.91893 0.43484 0.0
H1501 H 0.34283 0.96498 0.36256 0.0
H1502 H 0.32889 0.01717 0.34813 0.0
H1503 H 0.31418 0.96111 0.33947 0.0
C1504 C 0.80797 0.19439 0.85754 0.0
C1505 C 0.82977 0.21146 0.87393 0.0
C1506 C 0.79819 0.14801 0.85851 0.0
C1507 C 0.81002 0.11821 0.87667 0.0
C1508 C 0.83363 0.1344 0.89218 0.0
C1509 C 0.84344 0.18085 0.89048 0.0
C1510 C 0.77338 0.13209 0.84133 0.0
C1511 C 0.84655 0.104 0.91198 0.0
C1512 C 0.75211 0.02925 0.8984 0.0
C1513 C 0.76128 0.98904 0.88599 0.0
C1514 C 0.76865 0.07084 0.89638 0.0
C1515 C 0.79485 0.07263 0.8813 0.0
C1516 C 0.80492 0.03174 0.86945 0.0
C1517 C 0.78812 0.99035 0.87205 0.0
C1518 C 0.75702 0.11345 0.90947 0.0
C1519 C 0.83252 0.03224 0.85306 0.0
H1520 H 0.79721 0.21816 0.84487 0.0
H1521 H 0.85981 0.19418 0.90353 0.0
H1522 H 0.77914 0.09764 0.83354 0.0
H1523 H 0.75155 0.12834 0.85137 0.0
H1524 H 0.76972 0.15707 0.82626 0.0
H1525 H 0.86695 0.1198 0.92075 0.0
H1526 H 0.8288 0.09834 0.92602 0.0
H1527 H 0.85294 0.06944 0.90467 0.0
H1528 H 0.73151 0.02853 0.90932 0.0
H1529 H 0.79529 0.95955 0.86228 0.0
H1530 H 0.74541 0.13668 0.89631 0.0
H1531 H 0.77617 0.13325 0.91766 0.0
H1532 H 0.74042 0.10447 0.92395 0.0
H1533 H 0.82737 0.05329 0.83672 0.0
H1534 H 0.83924 0.99677 0.84717 0.0
H1535 H 0.85228 0.04871 0.86234 0.0
C1536 C 0.75336 0.9949 0.41158 0.0
C1537 C 0.75903 0.01998 0.39041 0.0
C1538 C 0.73749 0.95237 0.41065 0.0
C1539 C 0.72706 0.935 0.38796 0.0
C1540 C 0.73005 0.963 0.36702 0.0
C1541 C 0.74632 1.00485 0.36846 0.0
C1542 C 0.73428 0.92537 0.43389 0.0
C1543 C 0.71861 0.94681 0.34261 0.0
C1544 C 0.73431 0.80569 0.37604 0.0
C1545 C 0.70421 0.78966 0.37914 0.0
C1546 C 0.74185 0.85257 0.37922 0.0
C1547 C 0.71865 0.88504 0.38501 0.0
C1548 C 0.68801 0.86965 0.38743 0.0
C1549 C 0.68112 0.82208 0.38454 0.0
C1550 C 0.77498 0.86709 0.37713 0.0
C1551 C 0.66281 0.90322 0.39389 0.0
H1552 H 0.7633 1.00659 0.42855 0.0
H1553 H 0.75071 0.02452 0.35207 0.0
H1554 H 0.72192 0.89201 0.43175 0.0
H1555 H 0.75737 0.91846 0.44153 0.0
H1556 H 0.7219 0.94693 0.44739 0.0
H1557 H 0.71791 0.97556 0.3292 0.0
H1558 H 0.73405 0.91931 0.33558 0.0
H1559 H 0.69537 0.93162 0.34419 0.0
H1560 H 0.75245 0.78118 0.37199 0.0
H1561 H 0.65786 0.81015 0.38728 0.0
H1562 H 0.78263 0.88325 0.39438 0.0
H1563 H 0.77753 0.89346 0.36263 0.0
H1564 H 0.79037 0.8374 0.37299 0.0
H1565 H 0.66749 0.91844 0.41201 0.0
H1566 H 0.63998 0.8863 0.39422 0.0
H1567 H 0.66224 0.93229 0.3807 0.0
C1568 C 0.73595 0.96093 0.11003 0.0
C1569 C 0.74707 1.00065 0.12188 0.0
C1570 C 0.75129 0.91816 0.11168 0.0
C1571 C 0.77828 0.91459 0.12585 0.0
C1572 C 0.79019 0.95487 0.13725 0.0
C1573 C 0.77456 0.9975 0.13499 0.0
C1574 C 0.73808 0.87641 0.09878 0.0
C1575 C 0.81881 0.95255 0.15257 0.0
C1576 C 0.79333 0.79222 0.14914 0.0
C1577 C 0.81439 0.77526 0.13213 0.0
C1578 C 0.78269 0.83833 0.14811 0.0
C1579 C 0.79303 0.86818 0.12943 0.0
C1580 C 0.81544 0.85199 0.11296 0.0
C1581 C 0.82598 0.80592 0.1146 0.0
C1582 C 0.75913 0.85433 0.16627 0.0
C1583 C 0.82689 0.88235 0.09262 0.0
H1584 H 0.71485 0.96309 0.09974 0.0
H1585 H 0.7832 0.0279 0.14436 0.0
H1586 H 0.75559 0.86052 0.08683 0.0
H1587 H 0.73131 0.84974 0.11223 0.0
H1588 H 0.71772 0.88541 0.08764 0.0
H1589 H 0.8262 0.98738 0.15897 0.0
H1590 H 0.81464 0.9302 0.1686 0.0
H1591 H 0.83778 0.93653 0.14216 0.0
H1592 H 0.7843 0.76896 0.1628 0.0
H1593 H 0.84209 0.79325 0.10122 0.0
H1594 H 0.73686 0.85977 0.15698 0.0
H1595 H 0.766 0.88806 0.17434 0.0
H1596 H 0.75579 0.82874 0.18108 0.0
H1597 H 0.80833 0.8874 0.07912 0.0
H1598 H 0.84693 0.86684 0.08325 0.0
H1599 H 0.83337 0.91717 0.09954 0.0
C1600 C 0.6872 0.18675 0.62676 0.0
C1601 C 0.70748 0.21695 0.63869 0.0
C1602 C 0.69478 0.13977 0.62309 0.0
C1603 C 0.72314 0.12261 0.63175 0.0
C1604 C 0.74257 0.15212 0.6454 0.0
C1605 C 0.73455 0.1989 0.64863 0.0
C1606 C 0.67346 0.10946 0.60848 0.0
C1607 C 0.77281 0.13509 0.65533 0.0
C1608 C 0.74436 0.99528 0.63711 0.0
C1609 C 0.76473 0.99028 0.61774 0.0
C1610 C 0.72876 0.03729 0.64098 0.0
C1611 C 0.73394 0.07513 0.62514 0.0
C1612 C 0.75289 0.06894 0.60452 0.0
C1613 C 0.7683 0.02656 0.60118 0.0
C1614 C 0.70886 0.04232 0.66314 0.0
C1615 C 0.7589 0.10823 0.58708 0.0
H1616 H 0.66636 0.20044 0.61879 0.0
H1617 H 0.75027 0.22201 0.65791 0.0
H1618 H 0.68354 0.10314 0.59034 0.0
H1619 H 0.67046 0.07517 0.61731 0.0
H1620 H 0.65061 0.12578 0.60601 0.0
H1621 H 0.78399 0.16119 0.66725 0.0
H1622 H 0.76953 0.1026 0.6658 0.0
H1623 H 0.78853 0.12704 0.64013 0.0
H1624 H 0.74227 0.96737 0.6502 0.0
H1625 H 0.78462 0.02283 0.58653 0.0
H1626 H 0.68711 0.06022 0.65856 0.0
H1627 H 0.7209 0.0639 0.67682 0.0
H1628 H 0.70349 0.00816 0.67146 0.0
H1629 H 0.73726 0.1263 0.58237 0.0
H1630 H 0.76995 0.09591 0.57014 0.0
H1631 H 0.77422 0.13407 0.59579 0.0
C1632 C 0.73005 0.29817 0.13603 0.0
C1633 C 0.70143 0.28181 0.12826 0.0
C1634 C 0.73787 0.34522 0.13418 0.0
C1635 C 0.71651 0.37715 0.12436 0.0
C1636 C 0.68697 0.36142 0.11759 0.0
C1637 C 0.67973 0.31385 0.11963 0.0
C1638 C 0.76954 0.3604 0.1419 0.0
C1639 C 0.66351 0.39443 0.10725 0.0
C1640 C 0.73957 0.50068 0.13903 0.0
C1641 C 0.75719 0.51212 0.11873 0.0
C1642 C 0.72367 0.45841 0.14021 0.0
C1643 C 0.72596 0.4265 0.12076 0.0
C1644 C 0.74187 0.43961 0.09943 0.0
C1645 C 0.75739 0.4824 0.09869 0.0
C1646 C 0.70686 0.44625 0.1632 0.0
C1647 C 0.74493 0.40673 0.07826 0.0
H1648 H 0.74689 0.27374 0.14287 0.0
H1649 H 0.65763 0.30152 0.11341 0.0
H1650 H 0.78216 0.37423 0.12605 0.0
H1651 H 0.76795 0.38875 0.15546 0.0
H1652 H 0.78309 0.3315 0.14987 0.0
H1653 H 0.64071 0.37785 0.10514 0.0
H1654 H 0.66114 0.42545 0.11905 0.0
H1655 H 0.67123 0.40676 0.08924 0.0
H1656 H 0.73984 0.52357 0.15466 0.0
H1657 H 0.7715 0.49101 0.08319 0.0
H1658 H 0.72064 0.421 0.1738 0.0
H1659 H 0.68457 0.42962 0.15903 0.0
H1660 H 0.70274 0.47732 0.17471 0.0
H1661 H 0.76148 0.37887 0.08296 0.0
H1662 H 0.75325 0.4247 0.06174 0.0
H1663 H 0.7227 0.3899 0.07411 0.0
C1664 C 0.74495 0.53322 0.60725 0.0
C1665 C 0.75573 0.49575 0.62111 0.0
C1666 C 0.7596 0.57658 0.60786 0.0
C1667 C 0.78556 0.58297 0.62293 0.0
C1668 C 0.79736 0.54477 0.63619 0.0
C1669 C 0.78239 0.50152 0.63504 0.0
C1670 C 0.74652 0.61607 0.59308 0.0
C1671 C 0.82497 0.55011 0.65243 0.0
C1672 C 0.83168 0.69242 0.61041 0.0
C1673 C 0.81857 0.72418 0.62675 0.0
C1674 C 0.82214 0.6458 0.60964 0.0
C1675 C 0.79908 0.63033 0.62568 0.0
C1676 C 0.78704 0.66149 0.64313 0.0
C1677 C 0.79685 0.70798 0.64342 0.0
C1678 C 0.83554 0.61385 0.59072 0.0
C1679 C 0.76262 0.64632 0.66074 0.0
H1680 H 0.72449 0.52896 0.59631 0.0
H1681 H 0.79075 0.47287 0.64594 0.0
H1682 H 0.73778 0.64355 0.60537 0.0
H1683 H 0.76463 0.63194 0.58173 0.0
H1684 H 0.72751 0.60464 0.58109 0.0
H1685 H 0.83281 0.51634 0.65995 0.0
H1686 H 0.84415 0.5662 0.64233 0.0
H1687 H 0.81931 0.57362 0.66771 0.0
H1688 H 0.84844 0.7044 0.5974 0.0
H1689 H 0.78667 0.73204 0.6562 0.0
H1690 H 0.81794 0.60613 0.57677 0.0
H1691 H 0.84247 0.58032 0.59897 0.0
H1692 H 0.85572 0.6294 0.5816 0.0
H1693 H 0.74118 0.63853 0.65072 0.0
H1694 H 0.75763 0.67337 0.67455 0.0
H1695 H 0.76973 0.61402 0.67016 0.0
C1696 C 0.69107 0.68048 0.89175 0.0
C1697 C 0.70856 0.71148 0.87791 0.0
C1698 C 0.69919 0.6332 0.89339 0.0
C1699 C 0.72514 0.61657 0.88066 0.0
C1700 C 0.7413 0.6471 0.86516 0.0
C1701 C 0.73297 0.69415 0.86414 0.0
C1702 C 0.68141 0.60198 0.91017 0.0
C1703 C 0.76878 0.63085 0.85092 0.0
C1704 C 0.77666 0.52174 0.90568 0.0
C1705 C 0.76973 0.48412 0.89053 0.0
C1706 C 0.76089 0.56404 0.90361 0.0
C1707 C 0.73792 0.56933 0.88565 0.0
C1708 C 0.72971 0.53071 0.87111 0.0
C1709 C 0.74559 0.4884 0.87383 0.0
C1710 C 0.77008 0.60389 0.9198 0.0
C1711 C 0.70553 0.53483 0.85167 0.0
H1712 H 0.67238 0.69372 0.90265 0.0
H1713 H 0.74649 0.71797 0.85336 0.0
H1714 H 0.67686 0.5679 0.9015 0.0
H1715 H 0.69518 0.59535 0.92674 0.0
H1716 H 0.65928 0.61778 0.91567 0.0
H1717 H 0.77648 0.6572 0.83757 0.0
H1718 H 0.788 0.62351 0.86353 0.0
H1719 H 0.76349 0.59814 0.84114 0.0
H1720 H 0.79517 0.51855 0.91872 0.0
H1721 H 0.74028 0.45958 0.8619 0.0
H1722 H 0.74954 0.62031 0.92792 0.0
H1723 H 0.78192 0.63077 0.9089 0.0
H1724 H 0.78567 0.59266 0.93462 0.0
H1725 H 0.68482 0.55239 0.85883 0.0
H1726 H 0.69887 0.50042 0.84423 0.0
H1727 H 0.71442 0.55644 0.83661 0.0
C1728 C 0.73714 0.46884 0.40207 0.0
C1729 C 0.74741 0.50775 0.38912 0.0
C1730 C 0.75259 0.42608 0.40072 0.0
C1731 C 0.77886 0.42178 0.38586 0.0
C1732 C 0.78994 0.46127 0.37336 0.0
C1733 C 0.77418 0.50381 0.37522 0.0
C1734 C 0.7402 0.38507 0.41465 0.0
C1735 C 0.81782 0.45819 0.35734 0.0
C1736 C 0.82788 0.31444 0.3973 0.0
C1737 C 0.81589 0.28287 0.38032 0.0
C1738 C 0.81697 0.36036 0.39869 0.0
C1739 C 0.79366 0.37534 0.38262 0.0
C1740 C 0.7828 0.34453 0.36451 0.0
C1741 C 0.79396 0.29873 0.36362 0.0
C1742 C 0.82918 0.39198 0.41828 0.0
C1743 C 0.7582 0.35918 0.34683 0.0
H1744 H 0.71662 0.47158 0.41298 0.0
H1745 H 0.78224 0.53355 0.36505 0.0
H1746 H 0.73241 0.35785 0.40181 0.0
H1747 H 0.75846 0.36955 0.42607 0.0
H1748 H 0.72067 0.39479 0.42649 0.0
H1749 H 0.82476 0.49264 0.35017 0.0
H1750 H 0.83735 0.44302 0.36751 0.0
H1751 H 0.81301 0.4348 0.34181 0.0
H1752 H 0.84472 0.30267 0.41038 0.0
H1753 H 0.78461 0.2748 0.35037 0.0
H1754 H 0.8354 0.4263 0.41063 0.0
H1755 H 0.84956 0.37706 0.42751 0.0
H1756 H 0.81112 0.398 0.43204 0.0
H1757 H 0.73643 0.36505 0.3567 0.0
H1758 H 0.75417 0.33267 0.33255 0.0
H1759 H 0.76449 0.39243 0.33802 0.0
C1760 C 0.29671 0.70686 0.87063 0.0
C1761 C 0.32497 0.72319 0.87922 0.0
C1762 C 0.28836 0.66004 0.87296 0.0
C1763 C 0.3088 0.62834 0.88413 0.0
C1764 C 0.33817 0.6439 0.8915 0.0
C1765 C 0.34594 0.6912 0.88895 0.0
C1766 C 0.25693 0.64509 0.86458 0.0
C1767 C 0.36072 0.6112 0.90327 0.0
C1768 C 0.26612 0.52703 0.91246 0.0
C1769 C 0.26713 0.49436 0.89372 0.0
C1770 C 0.28164 0.56967 0.91039 0.0
C1771 C 0.29837 0.57976 0.889 0.0
C1772 C 0.30117 0.54525 0.87084 0.0
C1773 C 0.28528 0.50311 0.87334 0.0
C1774 C 0.27807 0.60533 0.93023 0.0
C1775 C 0.31882 0.55421 0.84784 0.0
H1776 H 0.28041 0.73131 0.86303 0.0
H1777 H 0.3677 0.7035 0.89589 0.0
H1778 H 0.25874 0.61495 0.85214 0.0
H1779 H 0.24317 0.63389 0.88041 0.0
H1780 H 0.2444 0.6734 0.85513 0.0
H1781 H 0.38384 0.6269 0.90497 0.0
H1782 H 0.35251 0.60196 0.92165 0.0
H1783 H 0.36256 0.57848 0.89273 0.0
H1784 H 0.25153 0.52058 0.92797 0.0
H1785 H 0.28553 0.47806 0.85864 0.0
H1786 H 0.26295 0.63383 0.92383 0.0
H1787 H 0.30056 0.62086 0.93479 0.0
H1788 H 0.26798 0.59023 0.94691 0.0
H1789 H 0.30574 0.57865 0.83622 0.0
H1790 H 0.32285 0.52177 0.8374 0.0
H1791 H 0.34121 0.5706 0.85195 0.0
C1792 C 0.23601 0.52763 0.3793 0.0
C1793 C 0.26233 0.53005 0.39389 0.0
C1794 C 0.21998 0.48561 0.37637 0.0
C1795 C 0.2303 0.44523 0.38857 0.0
C1796 C 0.25568 0.44828 0.40454 0.0
C1797 C 0.2715 0.49048 0.40684 0.0
C1798 C 0.19317 0.48382 0.35911 0.0
C1799 C 0.26736 0.40631 0.41815 0.0
C1800 C 0.18335 0.33458 0.39484 0.0
C1801 C 0.1984 0.3051 0.37848 0.0
C1802 C 0.19234 0.38125 0.3975 0.0
C1803 C 0.21654 0.39889 0.38316 0.0
C1804 C 0.22999 0.37018 0.36523 0.0
C1805 C 0.22098 0.32353 0.3633 0.0
C1806 C 0.17774 0.41036 0.41706 0.0
C1807 C 0.25549 0.3877 0.34925 0.0
H1808 H 0.22889 0.55792 0.36907 0.0
H1809 H 0.29173 0.4921 0.41825 0.0
H1810 H 0.19957 0.46332 0.34285 0.0
H1811 H 0.17341 0.46615 0.36766 0.0
H1812 H 0.18589 0.519 0.35315 0.0
H1813 H 0.28339 0.41605 0.43296 0.0
H1814 H 0.24814 0.38628 0.42601 0.0
H1815 H 0.27961 0.383 0.40542 0.0
H1816 H 0.16632 0.32027 0.40697 0.0
H1817 H 0.23277 0.30071 0.35075 0.0
H1818 H 0.17203 0.44549 0.41014 0.0
H1819 H 0.1942 0.4148 0.43224 0.0
H1820 H 0.1566 0.39406 0.42428 0.0
H1821 H 0.24932 0.42182 0.34127 0.0
H1822 H 0.26084 0.36309 0.33433 0.0
H1823 H 0.27648 0.39277 0.36029 0.0
C1824 C 0.27751 0.51581 0.14214 0.0
C1825 C 0.252 0.51785 0.12666 0.0
C1826 C 0.29371 0.47403 0.14558 0.0
C1827 C 0.28448 0.43353 0.13295 0.0
C1828 C 0.25989 0.43618 0.11619 0.0
C1829 C 0.24379 0.47812 0.11344 0.0
C1830 C 0.31963 0.47266 0.1637 0.0
C1831 C 0.24956 0.39412 0.10198 0.0
C1832 C 0.33346 0.3244 0.12793 0.0
C1833 C 0.31811 0.2943 0.14374 0.0
C1834 C 0.32382 0.37075 0.12504 0.0
C1835 C 0.29858 0.38747 0.1386 0.0
C1836 C 0.2847 0.35818 0.15601 0.0
C1837 C 0.29441 0.31185 0.15817 0.0
C1838 C 0.33897 0.40048 0.10604 0.0
C1839 C 0.25812 0.37473 0.17118 0.0
H1840 H 0.28388 0.54626 0.15256 0.0
H1841 H 0.22422 0.4795 0.10133 0.0
H1842 H 0.31277 0.4514 0.17953 0.0
H1843 H 0.34012 0.45599 0.15563 0.0
H1844 H 0.32598 0.50789 0.17021 0.0
H1845 H 0.23331 0.40341 0.08724 0.0
H1846 H 0.26946 0.37588 0.09393 0.0
H1847 H 0.23804 0.36933 0.11434 0.0
H1848 H 0.35136 0.31077 0.11634 0.0
H1849 H 0.28235 0.28854 0.17026 0.0
H1850 H 0.34362 0.43581 0.11317 0.0
H1851 H 0.32333 0.40427 0.09029 0.0
H1852 H 0.3608 0.38503 0.09958 0.0
H1853 H 0.26337 0.40892 0.1795 0.0
H1854 H 0.25233 0.34977 0.18581 0.0
H1855 H 0.23766 0.37934 0.15947 0.0
C1856 C 0.22495 0.72409 0.64922 0.0
C1857 C 0.20917 0.7449 0.62993 0.0
C1858 C 0.2345 0.67738 0.64789 0.0
C1859 C 0.22896 0.65128 0.62649 0.0
C1860 C 0.2124 0.67186 0.60722 0.0
C1861 C 0.20241 0.71808 0.6093 0.0
C1862 C 0.25158 0.65651 0.66904 0.0
C1863 C 0.20686 0.64608 0.58378 0.0
C1864 C 0.28858 0.55814 0.61444 0.0
C1865 C 0.27326 0.51739 0.62108 0.0
C1866 C 0.27385 0.6014 0.61487 0.0
C1867 C 0.24333 0.6045 0.62329 0.0
C1868 C 0.2274 0.56323 0.6295 0.0
C1869 C 0.24251 0.51994 0.62806 0.0
C1870 C 0.2915 0.64405 0.60726 0.0
C1871 C 0.19505 0.56509 0.63894 0.0
H1872 H 0.23023 0.74452 0.66519 0.0
H1873 H 0.19063 0.73398 0.59411 0.0
H1874 H 0.24179 0.62214 0.67376 0.0
H1875 H 0.27587 0.6509 0.66402 0.0
H1876 H 0.25084 0.6792 0.68532 0.0
H1877 H 0.19123 0.6653 0.57142 0.0
H1878 H 0.22898 0.64066 0.57434 0.0
H1879 H 0.19699 0.6113 0.58738 0.0
H1880 H 0.3126 0.55636 0.6097 0.0
H1881 H 0.23092 0.48858 0.63384 0.0
H1882 H 0.29606 0.66621 0.62332 0.0
H1883 H 0.27789 0.665 0.59425 0.0
H1884 H 0.31375 0.63508 0.59872 0.0
H1885 H 0.19481 0.58319 0.6567 0.0
H1886 H 0.18509 0.5299 0.64131 0.0
H1887 H 0.18023 0.58527 0.62645 0.0
loop_
_geom_bond_atom_site_label_1
_geom_bond_atom_site_label_2
_geom_bond_distance
_geom_bond_site_symmetry_2
_ccdc_geom_bond_type
Fe0 O2 1.918 . S
Fe0 O5 1.997 . S
Fe0 O6 2.002 . S
Fe0 O11 1.976 . S
Fe0 O14 1.996 . S
Fe1 O2 1.918 . S
Fe1 O9 1.997 . S
Fe1 O12 1.996 . S
Fe1 O16 1.976 . S
Fe1 O19 2.002 . S
O2 Fe0 1.918 . S
O2 Fe1 1.918 . S
O2 Fe3 1.918 . S
Fe3 O2 1.918 . S
Fe3 O4 2.002 . S
Fe3 O13 1.976 . S
Fe3 O17 1.996 . S
Fe3 O20 1.997 . S
O4 Fe3 2.002 . S
O4 C21 1.295 . S
O5 Fe0 1.997 . S
O5 C21 1.235 . S
O6 Fe0 2.002 . S
O6 C7 1.295 . S
C7 O6 1.295 . S
C7 O9 1.235 . S
C8 O13 1.287 . S
C8 O14 1.255 . S
O9 Fe1 1.997 . S
O9 C7 1.235 . S
C10 O16 1.287 . S
C10 O17 1.255 . S
O11 Fe0 1.976 . S
O11 C18 1.287 . S
O12 Fe1 1.996 . S
O12 C18 1.255 . S
O13 Fe3 1.976 . S
O13 C8 1.287 . S
O14 Fe0 1.996 . S
O14 C8 1.255 . S
C15 O19 1.295 . S
C15 O20 1.235 . S
O16 Fe1 1.976 . S
O16 C10 1.287 . S
O17 Fe3 1.996 . S
O17 C10 1.255 . S
C18 O11 1.287 . S
C18 O12 1.255 . S
O19 Fe1 2.002 . S
O19 C15 1.295 . S
O20 Fe3 1.997 . S
O20 C15 1.235 . S
C21 O4 1.295 . S
C21 O5 1.235 . S
Fe22 O24 1.918 . S
Fe22 O27 1.997 . S
Fe22 O28 2.002 . S
Fe22 O33 1.976 . S
Fe22 O36 1.996 . S
Fe23 O24 1.918 . S
Fe23 O31 1.997 . S
Fe23 O34 1.996 . S
Fe23 O38 1.976 . S
Fe23 O41 2.002 . S
O24 Fe22 1.918 . S
O24 Fe23 1.918 . S
O24 Fe25 1.918 . S
Fe25 O24 1.918 . S
Fe25 O26 2.002 . S
Fe25 O35 1.976 . S
Fe25 O39 1.996 . S
Fe25 O42 1.997 . S
O26 Fe25 2.002 . S
O26 C43 1.295 . S
O27 Fe22 1.997 . S
O27 C43 1.235 . S
O28 Fe22 2.002 . S
O28 C29 1.295 . S
C29 O28 1.295 . S
C29 O31 1.235 . S
C30 O35 1.287 . S
C30 O36 1.255 . S
O31 Fe23 1.997 . S
O31 C29 1.235 . S
C32 O38 1.287 . S
C32 O39 1.255 . S
O33 Fe22 1.976 . S
O33 C40 1.287 . S
O34 Fe23 1.996 . S
O34 C40 1.255 . S
O35 Fe25 1.976 . S
O35 C30 1.287 . S
O36 Fe22 1.996 . S
O36 C30 1.255 . S
C37 O41 1.295 . S
C37 O42 1.235 . S
O38 Fe23 1.976 . S
O38 C32 1.287 . S
O39 Fe25 1.996 . S
O39 C32 1.255 . S
C40 O33 1.287 . S
C40 O34 1.255 . S
O41 Fe23 2.002 . S
O41 C37 1.295 . S
O42 Fe25 1.997 . S
O42 C37 1.235 . S
C43 O26 1.295 . S
C43 O27 1.235 . S
Fe44 O46 1.918 . S
Fe44 O49 1.997 . S
Fe44 O50 2.002 . S
Fe44 O55 1.976 . S
Fe44 O58 1.996 . S
Fe45 O46 1.918 . S
Fe45 O53 1.997 . S
Fe45 O56 1.996 . S
Fe45 O60 1.976 . S
Fe45 O63 2.002 . S
O46 Fe44 1.918 . S
O46 Fe45 1.918 . S
O46 Fe47 1.918 . S
Fe47 O46 1.918 . S
Fe47 O48 2.002 . S
Fe47 O57 1.976 . S
Fe47 O61 1.996 . S
Fe47 O64 1.997 . S
O48 Fe47 2.002 . S
O48 C65 1.295 . S
O49 Fe44 1.997 . S
O49 C65 1.235 . S
O50 Fe44 2.002 . S
O50 C51 1.295 . S
C51 O50 1.295 . S
C51 O53 1.235 . S
C52 O57 1.287 . S
C52 O58 1.255 . S
O53 Fe45 1.997 . S
O53 C51 1.235 . S
C54 O60 1.287 . S
C54 O61 1.255 . S
O55 Fe44 1.976 . S
O55 C62 1.287 . S
O56 Fe45 1.996 . S
O56 C62 1.255 . S
O57 Fe47 1.976 . S
O57 C52 1.287 . S
O58 Fe44 1.996 . S
O58 C52 1.255 . S
C59 O63 1.295 . S
C59 O64 1.235 . S
O60 Fe45 1.976 . S
O60 C54 1.287 . S
O61 Fe47 1.996 . S
O61 C54 1.255 . S
C62 O55 1.287 . S
C62 O56 1.255 . S
O63 Fe45 2.002 . S
O63 C59 1.295 . S
O64 Fe47 1.997 . S
O64 C59 1.235 . S
C65 O48 1.295 . S
C65 O49 1.235 . S
Fe66 O68 1.918 . S
Fe66 O71 1.997 . S
Fe66 O72 2.002 . S
Fe66 O77 1.976 . S
Fe66 O80 1.996 . S
Fe67 O68 1.918 . S
Fe67 O75 1.997 . S
Fe67 O78 1.996 . S
Fe67 O82 1.976 . S
Fe67 O85 2.002 . S
O68 Fe66 1.918 . S
O68 Fe67 1.918 . S
O68 Fe69 1.918 . S
Fe69 O68 1.918 . S
Fe69 O70 2.002 . S
Fe69 O79 1.976 . S
Fe69 O83 1.996 . S
Fe69 O86 1.997 . S
O70 Fe69 2.002 . S
O70 C87 1.295 . S
O71 Fe66 1.997 . S
O71 C87 1.235 . S
O72 Fe66 2.002 . S
O72 C73 1.295 . S
C73 O72 1.295 . S
C73 O75 1.235 . S
C74 O79 1.287 . S
C74 O80 1.255 . S
O75 Fe67 1.997 . S
O75 C73 1.235 . S
C76 O82 1.287 . S
C76 O83 1.255 . S
O77 Fe66 1.976 . S
O77 C84 1.287 . S
O78 Fe67 1.996 . S
O78 C84 1.255 . S
O79 Fe69 1.976 . S
O79 C74 1.287 . S
O80 Fe66 1.996 . S
O80 C74 1.255 . S
C81 O85 1.295 . S
C81 O86 1.235 . S
O82 Fe67 1.976 . S
O82 C76 1.287 . S
O83 Fe69 1.996 . S
O83 C76 1.255 . S
C84 O77 1.287 . S
C84 O78 1.255 . S
O85 Fe67 2.002 . S
O85 C81 1.295 . S
O86 Fe69 1.997 . S
O86 C81 1.235 . S
C87 O70 1.295 . S
C87 O71 1.235 . S
Fe88 O90 1.918 . S
Fe88 O93 1.997 . S
Fe88 O94 2.002 . S
Fe88 O99 1.976 . S
Fe88 O102 1.996 . S
Fe89 O90 1.918 . S
Fe89 O97 1.997 . S
Fe89 O100 1.996 . S
Fe89 O104 1.976 . S
Fe89 O107 2.002 . S
O90 Fe88 1.918 . S
O90 Fe89 1.918 . S
O90 Fe91 1.918 . S
Fe91 O90 1.918 . S
Fe91 O92 2.002 . S
Fe91 O101 1.976 . S
Fe91 O105 1.996 . S
Fe91 O108 1.997 . S
O92 Fe91 2.002 . S
O92 C109 1.295 . S
O93 Fe88 1.997 . S
O93 C109 1.235 . S
O94 Fe88 2.002 . S
O94 C95 1.295 . S
C95 O94 1.295 . S
C95 O97 1.235 . S
C96 O101 1.287 . S
C96 O102 1.255 . S
O97 Fe89 1.997 . S
O97 C95 1.235 . S
C98 O104 1.287 . S
C98 O105 1.255 . S
O99 Fe88 1.976 . S
O99 C106 1.287 . S
O100 Fe89 1.996 . S
O100 C106 1.255 . S
O101 Fe91 1.976 . S
O101 C96 1.287 . S
O102 Fe88 1.996 . S
O102 C96 1.255 . S
C103 O107 1.295 . S
C103 O108 1.235 . S
O104 Fe89 1.976 . S
O104 C98 1.287 . S
O105 Fe91 1.996 . S
O105 C98 1.255 . S
C106 O99 1.287 . S
C106 O100 1.255 . S
O107 Fe89 2.002 . S
O107 C103 1.295 . S
O108 Fe91 1.997 . S
O108 C103 1.235 . S
C109 O92 1.295 . S
C109 O93 1.235 . S
Fe110 O112 1.918 . S
Fe110 O115 1.997 . S
Fe110 O116 2.002 . S
Fe110 O121 1.976 . S
Fe110 O124 1.996 . S
Fe111 O112 1.918 . S
Fe111 O119 1.997 . S
Fe111 O122 1.996 . S
Fe111 O126 1.976 . S
Fe111 O129 2.002 . S
O112 Fe110 1.918 . S
O112 Fe111 1.918 . S
O112 Fe113 1.918 . S
Fe113 O112 1.918 . S
Fe113 O114 2.002 . S
Fe113 O123 1.976 . S
Fe113 O127 1.996 . S
Fe113 O130 1.997 . S
O114 Fe113 2.002 . S
O114 C131 1.295 . S
O115 Fe110 1.997 . S
O115 C131 1.235 . S
O116 Fe110 2.002 . S
O116 C117 1.295 . S
C117 O116 1.295 . S
C117 O119 1.235 . S
C118 O123 1.287 . S
C118 O124 1.255 . S
O119 Fe111 1.997 . S
O119 C117 1.235 . S
C120 O126 1.287 . S
C120 O127 1.255 . S
O121 Fe110 1.976 . S
O121 C128 1.287 . S
O122 Fe111 1.996 . S
O122 C128 1.255 . S
O123 Fe113 1.976 . S
O123 C118 1.287 . S
O124 Fe110 1.996 . S
O124 C118 1.255 . S
C125 O129 1.295 . S
C125 O130 1.235 . S
O126 Fe111 1.976 . S
O126 C120 1.287 . S
O127 Fe113 1.996 . S
O127 C120 1.255 . S
C128 O121 1.287 . S
C128 O122 1.255 . S
O129 Fe111 2.002 . S
O129 C125 1.295 . S
O130 Fe113 1.997 . S
O130 C125 1.235 . S
C131 O114 1.295 . S
C131 O115 1.235 . S
Fe132 O134 1.918 . S
Fe132 O137 1.997 . S
Fe132 O138 2.002 . S
Fe132 O143 1.976 . S
Fe132 O146 1.996 . S
Fe133 O134 1.918 . S
Fe133 O141 1.997 . S
Fe133 O144 1.996 . S
Fe133 O148 1.976 . S
Fe133 O151 2.002 . S
O134 Fe132 1.918 . S
O134 Fe133 1.918 . S
O134 Fe135 1.918 . S
Fe135 O134 1.918 . S
Fe135 O136 2.002 . S
Fe135 O145 1.976 . S
Fe135 O149 1.996 . S
Fe135 O152 1.997 . S
O136 Fe135 2.002 . S
O136 C153 1.295 . S
O137 Fe132 1.997 . S
O137 C153 1.235 . S
O138 Fe132 2.002 . S
O138 C139 1.295 . S
C139 O138 1.295 . S
C139 O141 1.235 . S
C140 O145 1.287 . S
C140 O146 1.255 . S
O141 Fe133 1.997 . S
O141 C139 1.235 . S
C142 O148 1.287 . S
C142 O149 1.255 . S
O143 Fe132 1.976 . S
O143 C150 1.287 . S
O144 Fe133 1.996 . S
O144 C150 1.255 . S
O145 Fe135 1.976 . S
O145 C140 1.287 . S
O146 Fe132 1.996 . S
O146 C140 1.255 . S
C147 O151 1.295 . S
C147 O152 1.235 . S
O148 Fe133 1.976 . S
O148 C142 1.287 . S
O149 Fe135 1.996 . S
O149 C142 1.255 . S
C150 O143 1.287 . S
C150 O144 1.255 . S
O151 Fe133 2.002 . S
O151 C147 1.295 . S
O152 Fe135 1.997 . S
O152 C147 1.235 . S
C153 O136 1.295 . S
C153 O137 1.235 . S
Fe154 O156 1.918 . S
Fe154 O159 1.997 . S
Fe154 O160 2.002 . S
Fe154 O165 1.976 . S
Fe154 O168 1.996 . S
Fe155 O156 1.918 . S
Fe155 O163 1.997 . S
Fe155 O166 1.996 . S
Fe155 O170 1.976 . S
Fe155 O173 2.002 . S
O156 Fe154 1.918 . S
O156 Fe155 1.918 . S
O156 Fe157 1.918 . S
Fe157 O156 1.918 . S
Fe157 O158 2.002 . S
Fe157 O167 1.976 . S
Fe157 O171 1.996 . S
Fe157 O174 1.997 . S
O158 Fe157 2.002 . S
O158 C175 1.295 . S
O159 Fe154 1.997 . S
O159 C175 1.235 . S
O160 Fe154 2.002 . S
O160 C161 1.295 . S
C161 O160 1.295 . S
C161 O163 1.235 . S
C162 O167 1.287 . S
C162 O168 1.255 . S
O163 Fe155 1.997 . S
O163 C161 1.235 . S
C164 O170 1.287 . S
C164 O171 1.255 . S
O165 Fe154 1.976 . S
O165 C172 1.287 . S
O166 Fe155 1.996 . S
O166 C172 1.255 . S
O167 Fe157 1.976 . S
O167 C162 1.287 . S
O168 Fe154 1.996 . S
O168 C162 1.255 . S
C169 O173 1.295 . S
C169 O174 1.235 . S
O170 Fe155 1.976 . S
O170 C164 1.287 . S
O171 Fe157 1.996 . S
O171 C164 1.255 . S
C172 O165 1.287 . S
C172 O166 1.255 . S
O173 Fe155 2.002 . S
O173 C169 1.295 . S
O174 Fe157 1.997 . S
O174 C169 1.235 . S
C175 O158 1.295 . S
C175 O159 1.235 . S
Fe176 O178 1.918 . S
Fe176 O181 1.997 . S
Fe176 O182 2.002 . S
Fe176 O187 1.976 . S
Fe176 O190 1.996 . S
Fe177 O178 1.918 . S
Fe177 O185 1.997 . S
Fe177 O188 1.996 . S
Fe177 O192 1.976 . S
Fe177 O195 2.002 . S
O178 Fe176 1.918 . S
O178 Fe177 1.918 . S
O178 Fe179 1.918 . S
Fe179 O178 1.918 . S
Fe179 O180 2.002 . S
Fe179 O189 1.976 . S
Fe179 O193 1.996 . S
Fe179 O196 1.997 . S
O180 Fe179 2.002 . S
O180 C197 1.295 . S
O181 Fe176 1.997 . S
O181 C197 1.235 . S
O182 Fe176 2.002 . S
O182 C183 1.295 . S
C183 O182 1.295 . S
C183 O185 1.235 . S
C184 O189 1.287 . S
C184 O190 1.255 . S
O185 Fe177 1.997 . S
O185 C183 1.235 . S
C186 O192 1.287 . S
C186 O193 1.255 . S
O187 Fe176 1.976 . S
O187 C194 1.287 . S
O188 Fe177 1.996 . S
O188 C194 1.255 . S
O189 Fe179 1.976 . S
O189 C184 1.287 . S
O190 Fe176 1.996 . S
O190 C184 1.255 . S
C191 O195 1.295 . S
C191 O196 1.235 . S
O192 Fe177 1.976 . S
O192 C186 1.287 . S
O193 Fe179 1.996 . S
O193 C186 1.255 . S
C194 O187 1.287 . S
C194 O188 1.255 . S
O195 Fe177 2.002 . S
O195 C191 1.295 . S
O196 Fe179 1.997 . S
O196 C191 1.235 . S
C197 O180 1.295 . S
C197 O181 1.235 . S
Fe198 O200 1.918 . S
Fe198 O203 1.997 . S
Fe198 O204 2.002 . S
Fe198 O209 1.976 . S
Fe198 O212 1.996 . S
Fe199 O200 1.918 . S
Fe199 O207 1.997 . S
Fe199 O210 1.996 . S
Fe199 O214 1.976 . S
Fe199 O217 2.002 . S
O200 Fe198 1.918 . S
O200 Fe199 1.918 . S
O200 Fe201 1.918 . S
Fe201 O200 1.918 . S
Fe201 O202 2.002 . S
Fe201 O211 1.976 . S
Fe201 O215 1.996 . S
Fe201 O218 1.997 . S
O202 Fe201 2.002 . S
O202 C219 1.295 . S
O203 Fe198 1.997 . S
O203 C219 1.235 . S
O204 Fe198 2.002 . S
O204 C205 1.295 . S
C205 O204 1.295 . S
C205 O207 1.235 . S
C206 O211 1.287 . S
C206 O212 1.255 . S
O207 Fe199 1.997 . S
O207 C205 1.235 . S
C208 O214 1.287 . S
C208 O215 1.255 . S
O209 Fe198 1.976 . S
O209 C216 1.287 . S
O210 Fe199 1.996 . S
O210 C216 1.255 . S
O211 Fe201 1.976 . S
O211 C206 1.287 . S
O212 Fe198 1.996 . S
O212 C206 1.255 . S
C213 O217 1.295 . S
C213 O218 1.235 . S
O214 Fe199 1.976 . S
O214 C208 1.287 . S
O215 Fe201 1.996 . S
O215 C208 1.255 . S
C216 O209 1.287 . S
C216 O210 1.255 . S
O217 Fe199 2.002 . S
O217 C213 1.295 . S
O218 Fe201 1.997 . S
O218 C213 1.235 . S
C219 O202 1.295 . S
C219 O203 1.235 . S
Fe220 O222 1.918 . S
Fe220 O225 1.997 . S
Fe220 O226 2.002 . S
Fe220 O231 1.976 . S
Fe220 O234 1.996 . S
Fe221 O222 1.918 . S
Fe221 O229 1.997 . S
Fe221 O232 1.996 . S
Fe221 O236 1.976 . S
Fe221 O239 2.002 . S
O222 Fe220 1.918 . S
O222 Fe221 1.918 . S
O222 Fe223 1.918 . S
Fe223 O222 1.918 . S
Fe223 O224 2.002 . S
Fe223 O233 1.976 . S
Fe223 O237 1.996 . S
Fe223 O240 1.997 . S
O224 Fe223 2.002 . S
O224 C241 1.295 . S
O225 Fe220 1.997 . S
O225 C241 1.235 . S
O226 Fe220 2.002 . S
O226 C227 1.295 . S
C227 O226 1.295 . S
C227 O229 1.235 . S
C228 O233 1.287 . S
C228 O234 1.255 . S
O229 Fe221 1.997 . S
O229 C227 1.235 . S
C230 O236 1.287 . S
C230 O237 1.255 . S
O231 Fe220 1.976 . S
O231 C238 1.287 . S
O232 Fe221 1.996 . S
O232 C238 1.255 . S
O233 Fe223 1.976 . S
O233 C228 1.287 . S
O234 Fe220 1.996 . S
O234 C228 1.255 . S
C235 O239 1.295 . S
C235 O240 1.235 . S
O236 Fe221 1.976 . S
O236 C230 1.287 . S
O237 Fe223 1.996 . S
O237 C230 1.255 . S
C238 O231 1.287 . S
C238 O232 1.255 . S
O239 Fe221 2.002 . S
O239 C235 1.295 . S
O240 Fe223 1.997 . S
O240 C235 1.235 . S
C241 O224 1.295 . S
C241 O225 1.235 . S
Fe242 O244 1.918 . S
Fe242 O247 1.997 . S
Fe242 O248 2.002 . S
Fe242 O253 1.976 . S
Fe242 O256 1.996 . S
Fe243 O244 1.918 . S
Fe243 O251 1.997 . S
Fe243 O254 1.996 . S
Fe243 O258 1.976 . S
Fe243 O261 2.002 . S
O244 Fe242 1.918 . S
O244 Fe243 1.918 . S
O244 Fe245 1.918 . S
Fe245 O244 1.918 . S
Fe245 O246 2.002 . S
Fe245 O255 1.976 . S
Fe245 O259 1.996 . S
Fe245 O262 1.997 . S
O246 Fe245 2.002 . S
O246 C263 1.295 . S
O247 Fe242 1.997 . S
O247 C263 1.235 . S
O248 Fe242 2.002 . S
O248 C249 1.295 . S
C249 O248 1.295 . S
C249 O251 1.235 . S
C250 O255 1.287 . S
C250 O256 1.255 . S
O251 Fe243 1.997 . S
O251 C249 1.235 . S
C252 O258 1.287 . S
C252 O259 1.255 . S
O253 Fe242 1.976 . S
O253 C260 1.287 . S
O254 Fe243 1.996 . S
O254 C260 1.255 . S
O255 Fe245 1.976 . S
O255 C250 1.287 . S
O256 Fe242 1.996 . S
O256 C250 1.255 . S
C257 O261 1.295 . S
C257 O262 1.235 . S
O258 Fe243 1.976 . S
O258 C252 1.287 . S
O259 Fe245 1.996 . S
O259 C252 1.255 . S
C260 O253 1.287 . S
C260 O254 1.255 . S
O261 Fe243 2.002 . S
O261 C257 1.295 . S
O262 Fe245 1.997 . S
O262 C257 1.235 . S
C263 O246 1.295 . S
C263 O247 1.235 . S
Fe264 O266 1.918 . S
Fe264 O269 1.997 . S
Fe264 O270 2.002 . S
Fe264 O275 1.976 . S
Fe264 O278 1.996 . S
Fe265 O266 1.918 . S
Fe265 O273 1.997 . S
Fe265 O276 1.996 . S
Fe265 O280 1.976 . S
Fe265 O283 2.002 . S
O266 Fe264 1.918 . S
O266 Fe265 1.918 . S
O266 Fe267 1.918 . S
Fe267 O266 1.918 . S
Fe267 O268 2.002 . S
Fe267 O277 1.976 . S
Fe267 O281 1.996 . S
Fe267 O284 1.997 . S
O268 Fe267 2.002 . S
O268 C285 1.295 . S
O269 Fe264 1.997 . S
O269 C285 1.235 . S
O270 Fe264 2.002 . S
O270 C271 1.295 . S
C271 O270 1.295 . S
C271 O273 1.235 . S
C272 O277 1.287 . S
C272 O278 1.255 . S
O273 Fe265 1.997 . S
O273 C271 1.235 . S
C274 O280 1.287 . S
C274 O281 1.255 . S
O275 Fe264 1.976 . S
O275 C282 1.287 . S
O276 Fe265 1.996 . S
O276 C282 1.255 . S
O277 Fe267 1.976 . S
O277 C272 1.287 . S
O278 Fe264 1.996 . S
O278 C272 1.255 . S
C279 O283 1.295 . S
C279 O284 1.235 . S
O280 Fe265 1.976 . S
O280 C274 1.287 . S
O281 Fe267 1.996 . S
O281 C274 1.255 . S
C282 O275 1.287 . S
C282 O276 1.255 . S
O283 Fe265 2.002 . S
O283 C279 1.295 . S
O284 Fe267 1.997 . S
O284 C279 1.235 . S
C285 O268 1.295 . S
C285 O269 1.235 . S
Fe286 O288 1.918 . S
Fe286 O291 1.997 . S
Fe286 O292 2.002 . S
Fe286 O297 1.976 . S
Fe286 O300 1.996 . S
Fe287 O288 1.918 . S
Fe287 O295 1.997 . S
Fe287 O298 1.996 . S
Fe287 O302 1.976 . S
Fe287 O305 2.002 . S
O288 Fe286 1.918 . S
O288 Fe287 1.918 . S
O288 Fe289 1.918 . S
Fe289 O288 1.918 . S
Fe289 O290 2.002 . S
Fe289 O299 1.976 . S
Fe289 O303 1.996 . S
Fe289 O306 1.997 . S
O290 Fe289 2.002 . S
O290 C307 1.295 . S
O291 Fe286 1.997 . S
O291 C307 1.235 . S
O292 Fe286 2.002 . S
O292 C293 1.295 . S
C293 O292 1.295 . S
C293 O295 1.235 . S
C294 O299 1.287 . S
C294 O300 1.255 . S
O295 Fe287 1.997 . S
O295 C293 1.235 . S
C296 O302 1.287 . S
C296 O303 1.255 . S
O297 Fe286 1.976 . S
O297 C304 1.287 . S
O298 Fe287 1.996 . S
O298 C304 1.255 . S
O299 Fe289 1.976 . S
O299 C294 1.287 . S
O300 Fe286 1.996 . S
O300 C294 1.255 . S
C301 O305 1.295 . S
C301 O306 1.235 . S
O302 Fe287 1.976 . S
O302 C296 1.287 . S
O303 Fe289 1.996 . S
O303 C296 1.255 . S
C304 O297 1.287 . S
C304 O298 1.255 . S
O305 Fe287 2.002 . S
O305 C301 1.295 . S
O306 Fe289 1.997 . S
O306 C301 1.235 . S
C307 O290 1.295 . S
C307 O291 1.235 . S
Fe308 O310 1.918 . S
Fe308 O313 1.997 . S
Fe308 O314 2.002 . S
Fe308 O319 1.976 . S
Fe308 O322 1.996 . S
Fe309 O310 1.918 . S
Fe309 O317 1.997 . S
Fe309 O320 1.996 . S
Fe309 O324 1.976 . S
Fe309 O327 2.002 . S
O310 Fe308 1.918 . S
O310 Fe309 1.918 . S
O310 Fe311 1.918 . S
Fe311 O310 1.918 . S
Fe311 O312 2.002 . S
Fe311 O321 1.976 . S
Fe311 O325 1.996 . S
Fe311 O328 1.997 . S
O312 Fe311 2.002 . S
O312 C329 1.295 . S
O313 Fe308 1.997 . S
O313 C329 1.235 . S
O314 Fe308 2.002 . S
O314 C315 1.295 . S
C315 O314 1.295 . S
C315 O317 1.235 . S
C316 O321 1.287 . S
C316 O322 1.255 . S
O317 Fe309 1.997 . S
O317 C315 1.235 . S
C318 O324 1.287 . S
C318 O325 1.255 . S
O319 Fe308 1.976 . S
O319 C326 1.287 . S
O320 Fe309 1.996 . S
O320 C326 1.255 . S
O321 Fe311 1.976 . S
O321 C316 1.287 . S
O322 Fe308 1.996 . S
O322 C316 1.255 . S
C323 O327 1.295 . S
C323 O328 1.235 . S
O324 Fe309 1.976 . S
O324 C318 1.287 . S
O325 Fe311 1.996 . S
O325 C318 1.255 . S
C326 O319 1.287 . S
C326 O320 1.255 . S
O327 Fe309 2.002 . S
O327 C323 1.295 . S
O328 Fe311 1.997 . S
O328 C323 1.235 . S
C329 O312 1.295 . S
C329 O313 1.235 . S
Fe330 O332 1.918 . S
Fe330 O335 1.997 . S
Fe330 O336 2.002 . S
Fe330 O341 1.976 . S
Fe330 O344 1.996 . S
Fe331 O332 1.918 . S
Fe331 O339 1.997 . S
Fe331 O342 1.996 . S
Fe331 O346 1.976 . S
Fe331 O349 2.002 . S
O332 Fe330 1.918 . S
O332 Fe331 1.918 . S
O332 Fe333 1.918 . S
Fe333 O332 1.918 . S
Fe333 O334 2.002 . S
Fe333 O343 1.976 . S
Fe333 O347 1.996 . S
Fe333 O350 1.997 . S
O334 Fe333 2.002 . S
O334 C351 1.295 . S
O335 Fe330 1.997 . S
O335 C351 1.235 . S
O336 Fe330 2.002 . S
O336 C337 1.295 . S
C337 O336 1.295 . S
C337 O339 1.235 . S
C338 O343 1.287 . S
C338 O344 1.255 . S
O339 Fe331 1.997 . S
O339 C337 1.235 . S
C340 O346 1.287 . S
C340 O347 1.255 . S
O341 Fe330 1.976 . S
O341 C348 1.287 . S
O342 Fe331 1.996 . S
O342 C348 1.255 . S
O343 Fe333 1.976 . S
O343 C338 1.287 . S
O344 Fe330 1.996 . S
O344 C338 1.255 . S
C345 O349 1.295 . S
C345 O350 1.235 . S
O346 Fe331 1.976 . S
O346 C340 1.287 . S
O347 Fe333 1.996 . S
O347 C340 1.255 . S
C348 O341 1.287 . S
C348 O342 1.255 . S
O349 Fe331 2.002 . S
O349 C345 1.295 . S
O350 Fe333 1.997 . S
O350 C345 1.235 . S
C351 O334 1.295 . S
C351 O335 1.235 . S
C352 C353 1.391 . S
C352 C354 1.394 . S
C352 H368 0.931 . S
C353 C352 1.391 . S
C353 C357 1.376 . S
C354 C352 1.394 . S
C354 C355 1.369 . S
C354 C358 1.531 1_554 S
C355 C354 1.369 . S
C355 C356 1.410 . S
C355 C363 1.503 1_554 S
C356 C355 1.410 . S
C356 C357 1.392 . S
C356 C359 1.511 . S
C357 C353 1.376 . S
C357 C356 1.392 . S
C357 H369 0.929 . S
C358 C354 1.531 1_556 S
C358 H370 0.960 . S
C358 H371 0.962 . S
C358 H372 0.960 . S
C359 C356 1.511 . S
C359 H373 0.961 . S
C359 H374 0.961 . S
C359 H375 0.961 . S
C360 C361 1.370 . S
C360 C362 1.363 . S
C360 H376 0.931 . S
C361 C360 1.370 . S
C361 C365 1.408 . S
C362 C360 1.363 . S
C362 C363 1.370 . S
C362 C366 1.513 1_556 S
C363 C355 1.503 1_556 S
C363 C362 1.370 . S
C363 C364 1.403 . S
C364 C363 1.403 . S
C364 C365 1.404 . S
C364 C367 1.539 . S
C365 C361 1.408 . S
C365 C364 1.404 . S
C365 H377 0.930 . S
C366 C362 1.513 1_554 S
C366 H378 0.958 . S
C366 H379 0.975 . S
C366 H380 0.955 1_554 S
C367 C364 1.539 . S
C367 H381 0.958 . S
C367 H382 0.961 . S
C367 H383 0.960 . S
H368 C352 0.931 . S
H369 C357 0.929 . S
H370 C358 0.960 . S
H371 C358 0.962 . S
H372 C358 0.960 . S
H373 C359 0.961 . S
H374 C359 0.961 . S
H375 C359 0.961 . S
H376 C360 0.931 . S
H377 C365 0.930 . S
H378 C366 0.958 . S
H379 C366 0.975 . S
H380 C366 0.955 1_556 S
H381 C367 0.958 . S
H382 C367 0.961 . S
H383 C367 0.960 . S
C384 C385 1.391 . S
C384 C386 1.394 . S
C384 H400 0.931 . S
C385 C384 1.391 . S
C385 C389 1.376 . S
C386 C384 1.394 . S
C386 C387 1.369 . S
C386 C390 1.531 . S
C387 C386 1.369 . S
C387 C388 1.410 . S
C387 C395 1.503 . S
C388 C387 1.410 . S
C388 C389 1.392 . S
C388 C391 1.511 . S
C389 C385 1.376 . S
C389 C388 1.392 . S
C389 H401 0.929 . S
C390 C386 1.531 . S
C390 H402 0.960 . S
C390 H403 0.962 . S
C390 H404 0.960 . S
C391 C388 1.511 . S
C391 H405 0.961 . S
C391 H406 0.961 . S
C391 H407 0.961 . S
C392 C393 1.370 . S
C392 C394 1.363 . S
C392 H408 0.931 . S
C393 C392 1.370 . S
C393 C397 1.408 . S
C394 C392 1.363 . S
C394 C395 1.370 . S
C394 C398 1.524 . S
C395 C387 1.503 . S
C395 C394 1.370 . S
C395 C396 1.403 . S
C396 C395 1.403 . S
C396 C397 1.404 . S
C396 C399 1.539 . S
C397 C393 1.408 . S
C397 C396 1.404 . S
C397 H409 0.930 . S
C398 C394 1.524 . S
C398 H410 0.956 . S
C398 H411 0.961 . S
C398 H412 0.961 . S
C399 C396 1.539 . S
C399 H413 0.958 . S
C399 H414 0.961 . S
C399 H415 0.960 . S
H400 C384 0.931 . S
H401 C389 0.929 . S
H402 C390 0.960 . S
H403 C390 0.962 . S
H404 C390 0.960 . S
H405 C391 0.961 . S
H406 C391 0.961 . S
H407 C391 0.961 . S
H408 C392 0.931 . S
H409 C397 0.930 . S
H410 C398 0.956 . S
H411 C398 0.961 . S
H412 C398 0.961 . S
H413 C399 0.958 . S
H414 C399 0.961 . S
H415 C399 0.960 . S
C416 C417 1.391 . S
C416 C418 1.394 . S
C416 H432 0.931 . S
C417 C416 1.391 . S
C417 C421 1.376 . S
C418 C416 1.394 . S
C418 C419 1.369 . S
C418 C422 1.508 1_554 S
C419 C418 1.369 . S
C419 C420 1.410 . S
C419 C427 1.503 1_554 S
C420 C419 1.410 . S
C420 C421 1.392 . S
C420 C423 1.511 . S
C421 C417 1.376 . S
C421 C420 1.392 . S
C421 H433 0.929 . S
C422 C418 1.508 1_556 S
C422 H434 0.979 . S
C422 H435 0.981 . S
C422 H436 0.946 1_556 S
C423 C420 1.511 . S
C423 H437 0.961 . S
C423 H438 0.961 . S
C423 H439 0.961 . S
C424 C425 1.370 . S
C424 C426 1.363 . S
C424 H440 0.931 . S
C425 C424 1.370 . S
C425 C429 1.408 . S
C426 C424 1.363 . S
C426 C427 1.370 . S
C426 C430 1.524 . S
C427 C419 1.503 1_556 S
C427 C426 1.370 . S
C427 C428 1.403 . S
C428 C427 1.403 . S
C428 C429 1.404 . S
C428 C431 1.539 1_556 S
C429 C425 1.408 . S
C429 C428 1.404 . S
C429 H441 0.930 . S
C430 C426 1.524 . S
C430 H442 0.956 . S
C430 H443 0.961 . S
C430 H444 0.961 . S
C431 C428 1.539 1_554 S
C431 H445 0.958 . S
C431 H446 0.957 1_554 S
C431 H447 0.960 . S
H432 C416 0.931 . S
H433 C421 0.929 . S
H434 C422 0.979 . S
H435 C422 0.981 . S
H436 C422 0.946 1_554 S
H437 C423 0.961 . S
H438 C423 0.961 . S
H439 C423 0.961 . S
H440 C424 0.931 . S
H441 C429 0.930 . S
H442 C430 0.956 . S
H443 C430 0.961 . S
H444 C430 0.961 . S
H445 C431 0.958 . S
H446 C431 0.957 1_556 S
H447 C431 0.960 . S
C448 C449 1.391 . S
C448 C450 1.394 . S
C448 H464 0.931 . S
C449 C448 1.391 . S
C449 C453 1.376 . S
C450 C448 1.394 . S
C450 C451 1.369 . S
C450 C454 1.531 . S
C451 C450 1.369 . S
C451 C452 1.410 . S
C451 C459 1.503 . S
C452 C451 1.410 . S
C452 C453 1.392 . S
C452 C455 1.511 . S
C453 C449 1.376 . S
C453 C452 1.392 . S
C453 H465 0.929 . S
C454 C450 1.531 . S
C454 H466 0.960 . S
C454 H467 0.962 . S
C454 H468 0.960 . S
C455 C452 1.511 . S
C455 H469 0.961 . S
C455 H470 0.961 . S
C455 H471 0.961 . S
C456 C457 1.370 . S
C456 C458 1.363 . S
C456 H472 0.931 . S
C457 C456 1.370 . S
C457 C461 1.408 . S
C458 C456 1.363 . S
C458 C459 1.370 . S
C458 C462 1.524 . S
C459 C451 1.503 . S
C459 C458 1.370 . S
C459 C460 1.403 . S
C460 C459 1.403 . S
C460 C461 1.404 . S
C460 C463 1.539 . S
C461 C457 1.408 . S
C461 C460 1.404 . S
C461 H473 0.930 . S
C462 C458 1.524 . S
C462 H474 0.956 . S
C462 H475 0.961 . S
C462 H476 0.961 . S
C463 C460 1.539 . S
C463 H477 0.958 . S
C463 H478 0.961 . S
C463 H479 0.960 . S
H464 C448 0.931 . S
H465 C453 0.929 . S
H466 C454 0.960 . S
H467 C454 0.962 . S
H468 C454 0.960 . S
H469 C455 0.961 . S
H470 C455 0.961 . S
H471 C455 0.961 . S
H472 C456 0.931 . S
H473 C461 0.930 . S
H474 C462 0.956 . S
H475 C462 0.961 . S
H476 C462 0.961 . S
H477 C463 0.958 . S
H478 C463 0.961 . S
H479 C463 0.960 . S
C480 C481 1.391 . S
C480 C482 1.394 . S
C480 H496 0.931 . S
C481 C480 1.391 . S
C481 C485 1.376 . S
C482 C480 1.394 . S
C482 C483 1.369 . S
C482 C486 1.531 1_556 S
C483 C482 1.369 . S
C483 C484 1.410 . S
C483 C491 1.503 1_556 S
C484 C483 1.410 . S
C484 C485 1.392 . S
C484 C487 1.511 . S
C485 C481 1.376 . S
C485 C484 1.392 . S
C485 H497 0.929 . S
C486 C482 1.531 1_554 S
C486 H498 0.960 . S
C486 H499 0.962 . S
C486 H500 0.975 . S
C487 C484 1.511 . S
C487 H501 0.961 . S
C487 H502 0.961 . S
C487 H503 0.961 . S
C488 C489 1.370 . S
C488 C490 1.363 . S
C488 H504 0.931 . S
C489 C488 1.370 . S
C489 C493 1.408 . S
C490 C488 1.363 . S
C490 C491 1.370 . S
C490 C494 1.524 . S
C491 C483 1.503 1_554 S
C491 C490 1.370 . S
C491 C492 1.403 . S
C492 C491 1.403 . S
C492 C493 1.404 . S
C492 C495 1.539 . S
C493 C489 1.408 . S
C493 C492 1.404 . S
C493 H505 0.930 . S
C494 C490 1.524 . S
C494 H506 0.956 . S
C494 H507 0.997 . S
C494 H508 0.961 . S
C495 C492 1.539 . S
C495 H509 0.958 . S
C495 H510 0.961 . S
C495 H511 0.960 1_554 S
H496 C480 0.931 . S
H497 C485 0.929 . S
H498 C486 0.960 . S
H499 C486 0.962 . S
H500 C486 0.975 . S
H501 C487 0.961 . S
H502 C487 0.961 . S
H503 C487 0.961 . S
H504 C488 0.931 . S
H505 C493 0.930 . S
H506 C494 0.956 . S
H507 C494 0.997 . S
H508 C494 0.961 . S
H509 C495 0.958 . S
H510 C495 0.961 . S
H511 C495 0.960 1_556 S
C512 C513 1.391 . S
C512 C514 1.394 . S
C512 H528 0.931 . S
C513 C512 1.391 . S
C513 C517 1.376 . S
C514 C512 1.394 . S
C514 C515 1.369 . S
C514 C518 1.531 . S
C515 C514 1.369 . S
C515 C516 1.410 . S
C515 C523 1.503 . S
C516 C515 1.410 . S
C516 C517 1.392 . S
C516 C519 1.511 . S
C517 C513 1.376 . S
C517 C516 1.392 . S
C517 H529 0.929 . S
C518 C514 1.531 . S
C518 H530 0.960 . S
C518 H531 0.962 . S
C518 H532 0.960 . S
C519 C516 1.511 . S
C519 H533 0.961 . S
C519 H534 0.961 . S
C519 H535 0.961 . S
C520 C521 1.370 . S
C520 C522 1.363 . S
C520 H536 0.931 . S
C521 C520 1.370 . S
C521 C525 1.408 . S
C522 C520 1.363 . S
C522 C523 1.370 . S
C522 C526 1.524 . S
C523 C515 1.503 . S
C523 C522 1.370 . S
C523 C524 1.403 . S
C524 C523 1.403 . S
C524 C525 1.404 . S
C524 C527 1.539 . S
C525 C521 1.408 . S
C525 C524 1.404 . S
C525 H537 0.930 . S
C526 C522 1.524 . S
C526 H538 0.956 . S
C526 H539 0.961 . S
C526 H540 0.961 . S
C527 C524 1.539 . S
C527 H541 0.958 . S
C527 H542 0.961 . S
C527 H543 0.960 . S
H528 C512 0.931 . S
H529 C517 0.929 . S
H530 C518 0.960 . S
H531 C518 0.962 . S
H532 C518 0.960 . S
H533 C519 0.961 . S
H534 C519 0.961 . S
H535 C519 0.961 . S
H536 C520 0.931 . S
H537 C525 0.930 . S
H538 C526 0.956 . S
H539 C526 0.961 . S
H540 C526 0.961 . S
H541 C527 0.958 . S
H542 C527 0.961 . S
H543 C527 0.960 . S
C544 C545 1.391 . S
C544 C546 1.394 . S
C544 H560 0.931 . S
C545 C544 1.391 . S
C545 C549 1.376 . S
C546 C544 1.394 . S
C546 C547 1.369 . S
C546 C550 1.531 . S
C547 C546 1.369 . S
C547 C548 1.410 . S
C547 C555 1.503 1_554 S
C548 C547 1.410 . S
C548 C549 1.392 . S
C548 C551 1.533 . S
C549 C545 1.376 . S
C549 C548 1.392 . S
C549 H561 0.929 . S
C550 C546 1.531 . S
C550 H562 0.918 1_554 S
C550 H563 0.962 . S
C550 H564 0.960 . S
C551 C548 1.533 . S
C551 H565 0.981 . S
C551 H566 0.940 1_554 S
C551 H567 0.941 1_554 S
C552 C553 1.370 . S
C552 C554 1.363 . S
C552 H568 0.931 . S
C553 C552 1.370 . S
C553 C557 1.408 . S
C554 C552 1.363 . S
C554 C555 1.370 . S
C554 C558 1.524 1_556 S
C555 C547 1.503 1_556 S
C555 C554 1.370 . S
C555 C556 1.403 . S
C556 C555 1.403 . S
C556 C557 1.404 . S
C556 C559 1.539 . S
C557 C553 1.408 . S
C557 C556 1.404 . S
C557 H569 0.930 . S
C558 C554 1.524 1_554 S
C558 H570 0.956 . S
C558 H571 0.961 . S
C558 H572 0.961 . S
C559 C556 1.539 . S
C559 H573 0.958 . S
C559 H574 0.961 . S
C559 H575 0.960 . S
H560 C544 0.931 . S
H561 C549 0.929 . S
H562 C550 0.918 1_556 S
H563 C550 0.962 . S
H564 C550 0.960 . S
H565 C551 0.981 . S
H566 C551 0.940 1_556 S
H567 C551 0.941 1_556 S
H568 C552 0.931 . S
H569 C557 0.930 . S
H570 C558 0.956 . S
H571 C558 0.961 . S
H572 C558 0.961 . S
H573 C559 0.958 . S
H574 C559 0.961 . S
H575 C559 0.960 . S
C576 C577 1.391 . S
C576 C578 1.394 . S
C576 H592 0.931 . S
C577 C576 1.391 . S
C577 C581 1.376 . S
C578 C576 1.394 . S
C578 C579 1.369 . S
C578 C582 1.531 . S
C579 C578 1.369 . S
C579 C580 1.410 . S
C579 C587 1.503 . S
C580 C579 1.410 . S
C580 C581 1.392 . S
C580 C583 1.511 . S
C581 C577 1.376 . S
C581 C580 1.392 . S
C581 H593 0.929 . S
C582 C578 1.531 . S
C582 H594 0.960 . S
C582 H595 0.962 . S
C582 H596 0.960 . S
C583 C580 1.511 . S
C583 H597 0.961 . S
C583 H598 0.961 . S
C583 H599 0.961 . S
C584 C585 1.370 . S
C584 C586 1.363 . S
C584 H600 0.931 . S
C585 C584 1.370 . S
C585 C589 1.408 . S
C586 C584 1.363 . S
C586 C587 1.370 . S
C586 C590 1.524 . S
C587 C579 1.503 . S
C587 C586 1.370 . S
C587 C588 1.403 . S
C588 C587 1.403 . S
C588 C589 1.404 . S
C588 C591 1.539 . S
C589 C585 1.408 . S
C589 C588 1.404 . S
C589 H601 0.930 . S
C590 C586 1.524 . S
C590 H602 0.956 . S
C590 H603 0.961 . S
C590 H604 0.961 . S
C591 C588 1.539 . S
C591 H605 0.958 . S
C591 H606 0.961 . S
C591 H607 0.960 . S
H592 C576 0.931 . S
H593 C581 0.929 . S
H594 C582 0.960 . S
H595 C582 0.962 . S
H596 C582 0.960 . S
H597 C583 0.961 . S
H598 C583 0.961 . S
H599 C583 0.961 . S
H600 C584 0.931 . S
H601 C589 0.930 . S
H602 C590 0.956 . S
H603 C590 0.961 . S
H604 C590 0.961 . S
H605 C591 0.958 . S
H606 C591 0.961 . S
H607 C591 0.960 . S
C608 C609 1.391 . S
C608 C610 1.394 . S
C608 H624 0.931 . S
C609 C608 1.391 . S
C609 C613 1.376 . S
C610 C608 1.394 . S
C610 C611 1.369 . S
C610 C614 1.531 1_556 S
C611 C610 1.369 . S
C611 C612 1.410 1_565 S
C611 C619 1.503 1_566 S
C612 C611 1.410 1_545 S
C612 C613 1.392 1_545 S
C612 C615 1.511 . S
C613 C609 1.376 . S
C613 C612 1.392 1_565 S
C613 H625 0.929 . S
C614 C610 1.531 1_554 S
C614 H626 0.960 . S
C614 H627 0.962 . S
C614 H628 0.960 . S
C615 C612 1.511 . S
C615 H629 0.961 . S
C615 H630 0.961 . S
C615 H631 0.961 . S
C616 C617 1.370 . S
C616 C618 1.363 . S
C616 H632 0.931 . S
C617 C616 1.370 . S
C617 C621 1.408 . S
C618 C616 1.363 . S
C618 C619 1.370 . S
C618 C622 1.524 . S
C619 C611 1.503 1_544 S
C619 C618 1.370 . S
C619 C620 1.403 . S
C620 C619 1.403 . S
C620 C621 1.404 . S
C620 C623 1.539 . S
C621 C617 1.408 . S
C621 C620 1.404 . S
C621 H633 0.930 . S
C622 C618 1.524 . S
C622 H634 0.956 1_545 S
C622 H635 0.961 1_554 S
C622 H636 0.961 . S
C623 C620 1.539 . S
C623 H637 0.958 1_545 S
C623 H638 0.961 . S
C623 H639 0.960 1_554 S
H624 C608 0.931 . S
H625 C613 0.929 . S
H626 C614 0.960 . S
H627 C614 0.962 . S
H628 C614 0.960 . S
H629 C615 0.961 . S
H630 C615 0.961 . S
H631 C615 0.961 . S
H632 C616 0.931 . S
H633 C621 0.930 . S
H634 C622 0.956 1_565 S
H635 C622 0.961 1_556 S
H636 C622 0.961 . S
H637 C623 0.958 1_565 S
H638 C623 0.961 . S
H639 C623 0.960 1_556 S
C640 C641 1.391 . S
C640 C642 1.394 . S
C640 H656 0.931 . S
C641 C640 1.391 . S
C641 C645 1.376 . S
C642 C640 1.394 . S
C642 C643 1.369 . S
C642 C646 1.531 . S
C643 C642 1.369 . S
C643 C644 1.410 1_565 S
C643 C651 1.503 1_565 S
C644 C643 1.410 1_545 S
C644 C645 1.392 1_545 S
C644 C647 1.511 . S
C645 C641 1.376 . S
C645 C644 1.392 1_565 S
C645 H657 0.929 . S
C646 C642 1.531 . S
C646 H658 0.960 . S
C646 H659 0.962 . S
C646 H660 0.960 . S
C647 C644 1.511 . S
C647 H661 0.961 . S
C647 H662 0.961 . S
C647 H663 0.961 . S
C648 C649 1.370 . S
C648 C650 1.363 . S
C648 H664 0.931 . S
C649 C648 1.370 . S
C649 C653 1.408 . S
C650 C648 1.363 . S
C650 C651 1.370 . S
C650 C654 1.524 1_545 S
C651 C643 1.503 1_545 S
C651 C650 1.370 . S
C651 C652 1.403 . S
C652 C651 1.403 . S
C652 C653 1.404 . S
C652 C655 1.539 . S
C653 C649 1.408 . S
C653 C652 1.404 . S
C653 H665 0.930 . S
C654 C650 1.524 1_565 S
C654 H666 0.956 . S
C654 H667 0.961 . S
C654 H668 0.961 . S
C655 C652 1.539 . S
C655 H669 0.958 . S
C655 H670 0.961 . S
C655 H671 0.960 . S
H656 C640 0.931 . S
H657 C645 0.929 . S
H658 C646 0.960 . S
H659 C646 0.962 . S
H660 C646 0.960 . S
H661 C647 0.961 . S
H662 C647 0.961 . S
H663 C647 0.961 . S
H664 C648 0.931 . S
H665 C653 0.930 . S
H666 C654 0.956 . S
H667 C654 0.961 . S
H668 C654 0.961 . S
H669 C655 0.958 . S
H670 C655 0.961 . S
H671 C655 0.960 . S
C672 C673 1.391 . S
C672 C674 1.394 . S
C672 H688 0.931 . S
C673 C672 1.391 . S
C673 C677 1.376 . S
C674 C672 1.394 . S
C674 C675 1.369 . S
C674 C678 1.531 1_565 S
C675 C674 1.369 . S
C675 C676 1.410 . S
C675 C683 1.503 1_566 S
C676 C675 1.410 . S
C676 C677 1.392 . S
C676 C679 1.511 . S
C677 C673 1.376 . S
C677 C676 1.392 . S
C677 H689 0.929 . S
C678 C674 1.531 1_545 S
C678 H690 0.960 . S
C678 H691 0.962 1_545 S
C678 H692 0.960 . S
C679 C676 1.511 . S
C679 H693 0.961 . S
C679 H694 0.961 1_556 S
C679 H695 0.961 1_565 S
C680 C681 1.370 . S
C680 C682 1.359 1_545 S
C680 H696 0.931 . S
C681 C680 1.370 . S
C681 C685 1.408 . S
C682 C680 1.359 1_565 S
C682 C683 1.367 1_565 S
C682 C686 1.531 . S
C683 C675 1.503 1_544 S
C683 C682 1.367 1_545 S
C683 C684 1.403 . S
C684 C683 1.403 . S
C684 C685 1.404 . S
C684 C687 1.539 1_554 S
C685 C681 1.408 . S
C685 C684 1.404 . S
C685 H697 0.930 . S
C686 C682 1.531 . S
C686 H698 0.956 . S
C686 H699 0.961 . S
C686 H700 0.961 . S
C687 C684 1.539 1_556 S
C687 H701 0.958 . S
C687 H702 0.961 . S
C687 H703 0.960 . S
H688 C672 0.931 . S
H689 C677 0.929 . S
H690 C678 0.960 . S
H691 C678 0.962 1_565 S
H692 C678 0.960 . S
H693 C679 0.961 . S
H694 C679 0.961 1_554 S
H695 C679 0.961 1_545 S
H696 C680 0.931 . S
H697 C685 0.930 . S
H698 C686 0.956 . S
H699 C686 0.961 . S
H700 C686 0.961 . S
H701 C687 0.958 . S
H702 C687 0.961 . S
H703 C687 0.960 . S
C704 C705 1.391 . S
C704 C706 1.394 . S
C704 H720 0.931 . S
C705 C704 1.391 . S
C705 C709 1.376 . S
C706 C704 1.394 . S
C706 C707 1.369 . S
C706 C710 1.531 1_565 S
C707 C706 1.369 . S
C707 C708 1.410 . S
C707 C715 1.503 1_565 S
C708 C707 1.410 . S
C708 C709 1.392 . S
C708 C711 1.511 . S
C709 C705 1.376 . S
C709 C708 1.392 . S
C709 H721 0.929 . S
C710 C706 1.531 1_545 S
C710 H722 0.960 . S
C710 H723 0.962 1_545 S
C710 H724 0.960 . S
C711 C708 1.511 . S
C711 H725 0.961 . S
C711 H726 0.961 . S
C711 H727 0.961 1_565 S
C712 C713 1.370 . S
C712 C714 1.361 1_545 S
C712 H728 0.931 . S
C713 C712 1.370 . S
C713 C717 1.408 . S
C714 C712 1.361 1_565 S
C714 C715 1.368 1_565 S
C714 C718 1.529 . S
C715 C707 1.503 1_545 S
C715 C714 1.368 1_545 S
C715 C716 1.403 . S
C716 C715 1.403 . S
C716 C717 1.404 . S
C716 C719 1.539 . S
C717 C713 1.408 . S
C717 C716 1.404 . S
C717 H729 0.930 . S
C718 C714 1.529 . S
C718 H730 0.956 . S
C718 H731 0.961 . S
C718 H732 0.961 . S
C719 C716 1.539 . S
C719 H733 0.958 . S
C719 H734 0.961 . S
C719 H735 0.960 . S
H720 C704 0.931 . S
H721 C709 0.929 . S
H722 C710 0.960 . S
H723 C710 0.962 1_565 S
H724 C710 0.960 . S
H725 C711 0.961 . S
H726 C711 0.961 . S
H727 C711 0.961 1_545 S
H728 C712 0.931 . S
H729 C717 0.930 . S
H730 C718 0.956 . S
H731 C718 0.961 . S
H732 C718 0.961 . S
H733 C719 0.958 . S
H734 C719 0.961 . S
H735 C719 0.960 . S
C736 C737 1.391 . S
C736 C738 1.394 . S
C736 H752 0.931 . S
C737 C736 1.391 . S
C737 C741 1.376 . S
C738 C736 1.394 . S
C738 C739 1.369 . S
C738 C742 1.531 . S
C739 C738 1.369 . S
C739 C740 1.410 . S
C739 C747 1.503 1_554 S
C740 C739 1.410 . S
C740 C741 1.392 . S
C740 C743 1.511 . S
C741 C737 1.376 . S
C741 C740 1.392 . S
C741 H753 0.929 . S
C742 C738 1.531 . S
C742 H754 0.960 1_554 S
C742 H755 0.962 . S
C742 H756 0.960 . S
C743 C740 1.511 . S
C743 H757 0.961 . S
C743 H758 0.961 1_554 S
C743 H759 0.961 1_554 S
C744 C745 1.370 . S
C744 C746 1.363 . S
C744 H760 0.931 . S
C745 C744 1.370 . S
C745 C749 1.408 . S
C746 C744 1.363 . S
C746 C747 1.370 . S
C746 C750 1.524 1_556 S
C747 C739 1.503 1_556 S
C747 C746 1.370 . S
C747 C748 1.403 . S
C748 C747 1.403 . S
C748 C749 1.404 . S
C748 C751 1.539 . S
C749 C745 1.408 . S
C749 C748 1.404 . S
C749 H761 0.930 . S
C750 C746 1.524 1_554 S
C750 H762 0.956 . S
C750 H763 0.961 . S
C750 H764 0.961 . S
C751 C748 1.539 . S
C751 H765 0.958 . S
C751 H766 0.961 . S
C751 H767 0.960 . S
H752 C736 0.931 . S
H753 C741 0.929 . S
H754 C742 0.960 1_556 S
H755 C742 0.962 . S
H756 C742 0.960 . S
H757 C743 0.961 . S
H758 C743 0.961 1_556 S
H759 C743 0.961 1_556 S
H760 C744 0.931 . S
H761 C749 0.930 . S
H762 C750 0.956 . S
H763 C750 0.961 . S
H764 C750 0.961 . S
H765 C751 0.958 . S
H766 C751 0.961 . S
H767 C751 0.960 . S
C768 C769 1.391 . S
C768 C770 1.394 . S
C768 H784 0.931 . S
C769 C768 1.391 . S
C769 C773 1.376 . S
C770 C768 1.394 . S
C770 C771 1.369 . S
C770 C774 1.531 . S
C771 C770 1.369 . S
C771 C772 1.410 . S
C771 C779 1.503 . S
C772 C771 1.410 . S
C772 C773 1.392 . S
C772 C775 1.511 . S
C773 C769 1.376 . S
C773 C772 1.392 . S
C773 H785 0.929 . S
C774 C770 1.531 . S
C774 H786 0.960 . S
C774 H787 0.962 . S
C774 H788 0.960 . S
C775 C772 1.511 . S
C775 H789 0.961 . S
C775 H790 0.961 . S
C775 H791 0.961 . S
C776 C777 1.370 . S
C776 C778 1.363 . S
C776 H792 0.931 . S
C777 C776 1.370 . S
C777 C781 1.408 . S
C778 C776 1.363 . S
C778 C779 1.370 . S
C778 C782 1.524 . S
C779 C771 1.503 . S
C779 C778 1.370 . S
C779 C780 1.403 . S
C780 C779 1.403 . S
C780 C781 1.404 . S
C780 C783 1.539 . S
C781 C777 1.408 . S
C781 C780 1.404 . S
C781 H793 0.930 . S
C782 C778 1.524 . S
C782 H794 0.956 . S
C782 H795 0.961 . S
C782 H796 0.961 . S
C783 C780 1.539 . S
C783 H797 0.958 . S
C783 H798 0.961 . S
C783 H799 0.960 . S
H784 C768 0.931 . S
H785 C773 0.929 . S
H786 C774 0.960 . S
H787 C774 0.962 . S
H788 C774 0.960 . S
H789 C775 0.961 . S
H790 C775 0.961 . S
H791 C775 0.961 . S
H792 C776 0.931 . S
H793 C781 0.930 . S
H794 C782 0.956 . S
H795 C782 0.961 . S
H796 C782 0.961 . S
H797 C783 0.958 . S
H798 C783 0.961 . S
H799 C783 0.960 . S
C800 C801 1.391 . S
C800 C802 1.394 . S
C800 H816 0.931 . S
C801 C800 1.391 . S
C801 C805 1.376 . S
C802 C800 1.394 . S
C802 C803 1.369 . S
C802 C806 1.531 1_554 S
C803 C802 1.369 . S
C803 C804 1.410 . S
C803 C811 1.503 1_554 S
C804 C803 1.410 . S
C804 C805 1.392 . S
C804 C807 1.511 . S
C805 C801 1.376 . S
C805 C804 1.392 . S
C805 H817 0.929 . S
C806 C802 1.531 1_556 S
C806 H818 0.960 . S
C806 H819 0.962 . S
C806 H820 0.960 . S
C807 C804 1.511 . S
C807 H821 0.961 . S
C807 H822 0.961 . S
C807 H823 0.961 . S
C808 C809 1.370 . S
C808 C810 1.363 . S
C808 H824 0.931 . S
C809 C808 1.370 . S
C809 C813 1.408 . S
C810 C808 1.363 . S
C810 C811 1.370 . S
C810 C814 1.524 . S
C811 C803 1.503 1_556 S
C811 C810 1.370 . S
C811 C812 1.403 . S
C812 C811 1.403 . S
C812 C813 1.404 . S
C812 C815 1.519 1_556 S
C813 C809 1.408 . S
C813 C812 1.404 . S
C813 H825 0.930 . S
C814 C810 1.524 . S
C814 H826 0.956 . S
C814 H827 0.961 . S
C814 H828 0.961 . S
C815 C812 1.519 1_554 S
C815 H829 0.949 1_554 S
C815 H830 0.960 1_554 S
C815 H831 0.992 . S
H816 C800 0.931 . S
H817 C805 0.929 . S
H818 C806 0.960 . S
H819 C806 0.962 . S
H820 C806 0.960 . S
H821 C807 0.961 . S
H822 C807 0.961 . S
H823 C807 0.961 . S
H824 C808 0.931 . S
H825 C813 0.930 . S
H826 C814 0.956 . S
H827 C814 0.961 . S
H828 C814 0.961 . S
H829 C815 0.949 1_556 S
H830 C815 0.960 1_556 S
H831 C815 0.992 . S
C832 C833 1.391 . S
C832 C834 1.394 . S
C832 H848 0.931 . S
C833 C832 1.391 . S
C833 C837 1.376 . S
C834 C832 1.394 . S
C834 C835 1.369 . S
C834 C838 1.531 . S
C835 C834 1.369 . S
C835 C836 1.410 . S
C835 C843 1.503 . S
C836 C835 1.410 . S
C836 C837 1.392 . S
C836 C839 1.511 . S
C837 C833 1.376 . S
C837 C836 1.392 . S
C837 H849 0.929 . S
C838 C834 1.531 . S
C838 H850 0.960 . S
C838 H851 0.962 . S
C838 H852 0.960 . S
C839 C836 1.511 . S
C839 H853 0.961 . S
C839 H854 0.961 . S
C839 H855 0.961 . S
C840 C841 1.370 . S
C840 C842 1.363 . S
C840 H856 0.931 . S
C841 C840 1.370 . S
C841 C845 1.408 . S
C842 C840 1.363 . S
C842 C843 1.370 . S
C842 C846 1.524 . S
C843 C835 1.503 . S
C843 C842 1.370 . S
C843 C844 1.403 . S
C844 C843 1.403 . S
C844 C845 1.404 . S
C844 C847 1.539 . S
C845 C841 1.408 . S
C845 C844 1.404 . S
C845 H857 0.930 . S
C846 C842 1.524 . S
C846 H858 0.956 . S
C846 H859 0.961 . S
C846 H860 0.961 . S
C847 C844 1.539 . S
C847 H861 0.958 . S
C847 H862 0.961 . S
C847 H863 0.960 . S
H848 C832 0.931 . S
H849 C837 0.929 . S
H850 C838 0.960 . S
H851 C838 0.962 . S
H852 C838 0.960 . S
H853 C839 0.961 . S
H854 C839 0.961 . S
H855 C839 0.961 . S
H856 C840 0.931 . S
H857 C845 0.930 . S
H858 C846 0.956 . S
H859 C846 0.961 . S
H860 C846 0.961 . S
H861 C847 0.958 . S
H862 C847 0.961 . S
H863 C847 0.960 . S
C864 C865 1.391 . S
C864 C866 1.394 . S
C864 H880 0.931 . S
C865 C864 1.391 . S
C865 C869 1.376 . S
C866 C864 1.394 . S
C866 C867 1.369 . S
C866 C870 1.531 . S
C867 C866 1.369 . S
C867 C868 1.410 . S
C867 C875 1.503 . S
C868 C867 1.410 . S
C868 C869 1.392 . S
C868 C871 1.511 . S
C869 C865 1.376 . S
C869 C868 1.392 . S
C869 H881 0.929 . S
C870 C866 1.531 . S
C870 H882 0.960 . S
C870 H883 0.962 . S
C870 H884 0.960 . S
C871 C868 1.511 . S
C871 H885 0.961 . S
C871 H886 0.961 . S
C871 H887 0.961 . S
C872 C873 1.370 . S
C872 C874 1.363 . S
C872 H888 0.931 . S
C873 C872 1.370 . S
C873 C877 1.408 . S
C874 C872 1.363 . S
C874 C875 1.370 . S
C874 C878 1.524 . S
C875 C867 1.503 . S
C875 C874 1.370 . S
C875 C876 1.403 . S
C876 C875 1.403 . S
C876 C877 1.404 . S
C876 C879 1.539 . S
C877 C873 1.408 . S
C877 C876 1.404 . S
C877 H889 0.930 . S
C878 C874 1.524 . S
C878 H890 0.956 . S
C878 H891 0.961 . S
C878 H892 0.961 . S
C879 C876 1.539 . S
C879 H893 0.958 . S
C879 H894 0.961 . S
C879 H895 0.960 . S
H880 C864 0.931 . S
H881 C869 0.929 . S
H882 C870 0.960 . S
H883 C870 0.962 . S
H884 C870 0.960 . S
H885 C871 0.961 . S
H886 C871 0.961 . S
H887 C871 0.961 . S
H888 C872 0.931 . S
H889 C877 0.930 . S
H890 C878 0.956 . S
H891 C878 0.961 . S
H892 C878 0.961 . S
H893 C879 0.958 . S
H894 C879 0.961 . S
H895 C879 0.960 . S
C896 C897 1.391 . S
C896 C898 1.394 . S
C896 H912 0.931 . S
C897 C896 1.391 . S
C897 C901 1.376 . S
C898 C896 1.394 . S
C898 C899 1.369 . S
C898 C902 1.531 . S
C899 C898 1.369 . S
C899 C900 1.410 . S
C899 C907 1.503 . S
C900 C899 1.410 . S
C900 C901 1.392 . S
C900 C903 1.511 . S
C901 C897 1.376 . S
C901 C900 1.392 . S
C901 H913 0.929 . S
C902 C898 1.531 . S
C902 H914 0.960 . S
C902 H915 0.962 . S
C902 H916 0.960 . S
C903 C900 1.511 . S
C903 H917 0.961 . S
C903 H918 0.961 . S
C903 H919 0.961 . S
C904 C905 1.370 . S
C904 C906 1.363 . S
C904 H920 0.931 . S
C905 C904 1.370 . S
C905 C909 1.408 . S
C906 C904 1.363 . S
C906 C907 1.370 . S
C906 C910 1.524 . S
C907 C899 1.503 . S
C907 C906 1.370 . S
C907 C908 1.403 . S
C908 C907 1.403 . S
C908 C909 1.404 . S
C908 C911 1.539 . S
C909 C905 1.408 . S
C909 C908 1.404 . S
C909 H921 0.930 . S
C910 C906 1.524 . S
C910 H922 0.956 . S
C910 H923 0.961 . S
C910 H924 0.961 . S
C911 C908 1.539 . S
C911 H925 0.958 . S
C911 H926 0.961 . S
C911 H927 0.960 . S
H912 C896 0.931 . S
H913 C901 0.929 . S
H914 C902 0.960 . S
H915 C902 0.962 . S
H916 C902 0.960 . S
H917 C903 0.961 . S
H918 C903 0.961 . S
H919 C903 0.961 . S
H920 C904 0.931 . S
H921 C909 0.930 . S
H922 C910 0.956 . S
H923 C910 0.961 . S
H924 C910 0.961 . S
H925 C911 0.958 . S
H926 C911 0.961 . S
H927 C911 0.960 . S
C928 C929 1.391 . S
C928 C930 1.394 . S
C928 H944 0.931 . S
C929 C928 1.391 . S
C929 C933 1.376 . S
C930 C928 1.394 . S
C930 C931 1.369 . S
C930 C934 1.531 . S
C931 C930 1.369 . S
C931 C932 1.410 . S
C931 C939 1.503 . S
C932 C931 1.410 . S
C932 C933 1.392 . S
C932 C935 1.511 . S
C933 C929 1.376 . S
C933 C932 1.392 . S
C933 H945 0.929 . S
C934 C930 1.531 . S
C934 H946 0.960 . S
C934 H947 0.962 . S
C934 H948 0.960 . S
C935 C932 1.511 . S
C935 H949 0.961 . S
C935 H950 0.961 . S
C935 H951 0.961 . S
C936 C937 1.370 . S
C936 C938 1.363 . S
C936 H952 0.931 . S
C937 C936 1.370 . S
C937 C941 1.408 . S
C938 C936 1.363 . S
C938 C939 1.370 . S
C938 C942 1.524 . S
C939 C931 1.503 . S
C939 C938 1.370 . S
C939 C940 1.403 . S
C940 C939 1.403 . S
C940 C941 1.404 . S
C940 C943 1.539 . S
C941 C937 1.408 . S
C941 C940 1.404 . S
C941 H953 0.930 . S
C942 C938 1.524 . S
C942 H954 0.956 . S
C942 H955 0.961 . S
C942 H956 0.961 . S
C943 C940 1.539 . S
C943 H957 0.958 . S
C943 H958 0.961 . S
C943 H959 0.960 . S
H944 C928 0.931 . S
H945 C933 0.929 . S
H946 C934 0.960 . S
H947 C934 0.962 . S
H948 C934 0.960 . S
H949 C935 0.961 . S
H950 C935 0.961 . S
H951 C935 0.961 . S
H952 C936 0.931 . S
H953 C941 0.930 . S
H954 C942 0.956 . S
H955 C942 0.961 . S
H956 C942 0.961 . S
H957 C943 0.958 . S
H958 C943 0.961 . S
H959 C943 0.960 . S
C960 C961 1.391 . S
C960 C962 1.394 . S
C960 H976 0.931 . S
C961 C960 1.391 . S
C961 C965 1.376 . S
C962 C960 1.394 . S
C962 C963 1.369 . S
C962 C966 1.531 . S
C963 C962 1.369 . S
C963 C964 1.410 . S
C963 C971 1.503 . S
C964 C963 1.410 . S
C964 C965 1.392 . S
C964 C967 1.511 . S
C965 C961 1.376 . S
C965 C964 1.392 . S
C965 H977 0.929 . S
C966 C962 1.531 . S
C966 H978 0.960 . S
C966 H979 0.962 . S
C966 H980 0.960 . S
C967 C964 1.511 . S
C967 H981 0.961 . S
C967 H982 0.961 . S
C967 H983 0.961 . S
C968 C969 1.370 . S
C968 C970 1.363 . S
C968 H984 0.931 . S
C969 C968 1.370 . S
C969 C973 1.408 . S
C970 C968 1.363 . S
C970 C971 1.370 . S
C970 C974 1.524 . S
C971 C963 1.503 . S
C971 C970 1.370 . S
C971 C972 1.403 . S
C972 C971 1.403 . S
C972 C973 1.404 . S
C972 C975 1.539 . S
C973 C969 1.408 . S
C973 C972 1.404 . S
C973 H985 0.930 . S
C974 C970 1.524 . S
C974 H986 0.956 . S
C974 H987 0.961 . S
C974 H988 0.961 . S
C975 C972 1.539 . S
C975 H989 0.958 . S
C975 H990 0.961 . S
C975 H991 0.960 . S
H976 C960 0.931 . S
H977 C965 0.929 . S
H978 C966 0.960 . S
H979 C966 0.962 . S
H980 C966 0.960 . S
H981 C967 0.961 . S
H982 C967 0.961 . S
H983 C967 0.961 . S
H984 C968 0.931 . S
H985 C973 0.930 . S
H986 C974 0.956 . S
H987 C974 0.961 . S
H988 C974 0.961 . S
H989 C975 0.958 . S
H990 C975 0.961 . S
H991 C975 0.960 . S
C992 C993 1.391 . S
C992 C994 1.394 . S
C992 H1008 0.931 . S
C993 C992 1.391 . S
C993 C997 1.376 . S
C994 C992 1.394 . S
C994 C995 1.369 . S
C994 C998 1.531 . S
C995 C994 1.369 . S
C995 C996 1.410 . S
C995 C1003 1.503 . S
C996 C995 1.410 . S
C996 C997 1.392 . S
C996 C999 1.511 . S
C997 C993 1.376 . S
C997 C996 1.392 . S
C997 H1009 0.929 . S
C998 C994 1.531 . S
C998 H1010 0.960 . S
C998 H1011 0.962 . S
C998 H1012 0.960 . S
C999 C996 1.511 . S
C999 H1013 0.961 . S
C999 H1014 0.961 . S
C999 H1015 0.961 . S
C1000 C1001 1.370 . S
C1000 C1002 1.363 . S
C1000 H1016 0.931 . S
C1001 C1000 1.370 . S
C1001 C1005 1.408 . S
C1002 C1000 1.363 . S
C1002 C1003 1.370 . S
C1002 C1006 1.524 . S
C1003 C995 1.503 . S
C1003 C1002 1.370 . S
C1003 C1004 1.403 . S
C1004 C1003 1.403 . S
C1004 C1005 1.404 . S
C1004 C1007 1.539 . S
C1005 C1001 1.408 . S
C1005 C1004 1.404 . S
C1005 H1017 0.930 . S
C1006 C1002 1.524 . S
C1006 H1018 0.956 . S
C1006 H1019 0.961 . S
C1006 H1020 0.961 . S
C1007 C1004 1.539 . S
C1007 H1021 0.958 . S
C1007 H1022 0.961 . S
C1007 H1023 0.960 . S
H1008 C992 0.931 . S
H1009 C997 0.929 . S
H1010 C998 0.960 . S
H1011 C998 0.962 . S
H1012 C998 0.960 . S
H1013 C999 0.961 . S
H1014 C999 0.961 . S
H1015 C999 0.961 . S
H1016 C1000 0.931 . S
H1017 C1005 0.930 . S
H1018 C1006 0.956 . S
H1019 C1006 0.961 . S
H1020 C1006 0.961 . S
H1021 C1007 0.958 . S
H1022 C1007 0.961 . S
H1023 C1007 0.960 . S
C1024 C1025 1.391 . S
C1024 C1026 1.394 . S
C1024 H1040 0.931 . S
C1025 C1024 1.391 . S
C1025 C1029 1.376 . S
C1026 C1024 1.394 . S
C1026 C1027 1.369 . S
C1026 C1030 1.531 . S
C1027 C1026 1.369 . S
C1027 C1028 1.410 . S
C1027 C1035 1.503 . S
C1028 C1027 1.410 . S
C1028 C1029 1.392 . S
C1028 C1031 1.511 . S
C1029 C1025 1.376 . S
C1029 C1028 1.392 . S
C1029 H1041 0.929 . S
C1030 C1026 1.531 . S
C1030 H1042 0.960 . S
C1030 H1043 0.962 . S
C1030 H1044 0.960 . S
C1031 C1028 1.511 . S
C1031 H1045 0.961 . S
C1031 H1046 0.961 . S
C1031 H1047 0.961 . S
C1032 C1033 1.370 . S
C1032 C1034 1.363 . S
C1032 H1048 0.931 . S
C1033 C1032 1.370 . S
C1033 C1037 1.408 . S
C1034 C1032 1.363 . S
C1034 C1035 1.370 . S
C1034 C1038 1.524 . S
C1035 C1027 1.503 . S
C1035 C1034 1.370 . S
C1035 C1036 1.403 . S
C1036 C1035 1.403 . S
C1036 C1037 1.404 . S
C1036 C1039 1.539 . S
C1037 C1033 1.408 . S
C1037 C1036 1.404 . S
C1037 H1049 0.930 . S
C1038 C1034 1.524 . S
C1038 H1050 0.956 . S
C1038 H1051 0.961 . S
C1038 H1052 0.961 . S
C1039 C1036 1.539 . S
C1039 H1053 0.958 . S
C1039 H1054 0.961 . S
C1039 H1055 0.960 . S
H1040 C1024 0.931 . S
H1041 C1029 0.929 . S
H1042 C1030 0.960 . S
H1043 C1030 0.962 . S
H1044 C1030 0.960 . S
H1045 C1031 0.961 . S
H1046 C1031 0.961 . S
H1047 C1031 0.961 . S
H1048 C1032 0.931 . S
H1049 C1037 0.930 . S
H1050 C1038 0.956 . S
H1051 C1038 0.961 . S
H1052 C1038 0.961 . S
H1053 C1039 0.958 . S
H1054 C1039 0.961 . S
H1055 C1039 0.960 . S
C1056 C1057 1.391 . S
C1056 C1058 1.394 . S
C1056 H1072 0.931 . S
C1057 C1056 1.391 . S
C1057 C1061 1.376 . S
C1058 C1056 1.394 . S
C1058 C1059 1.369 . S
C1058 C1062 1.531 . S
C1059 C1058 1.369 . S
C1059 C1060 1.410 . S
C1059 C1067 1.503 . S
C1060 C1059 1.410 . S
C1060 C1061 1.392 . S
C1060 C1063 1.511 . S
C1061 C1057 1.376 . S
C1061 C1060 1.392 . S
C1061 H1073 0.929 . S
C1062 C1058 1.531 . S
C1062 H1074 0.960 . S
C1062 H1075 0.962 . S
C1062 H1076 0.960 . S
C1063 C1060 1.511 . S
C1063 H1077 0.961 . S
C1063 H1078 0.961 . S
C1063 H1079 0.961 . S
C1064 C1065 1.370 . S
C1064 C1066 1.363 . S
C1064 H1080 0.931 . S
C1065 C1064 1.370 . S
C1065 C1069 1.408 . S
C1066 C1064 1.363 . S
C1066 C1067 1.370 . S
C1066 C1070 1.524 . S
C1067 C1059 1.503 . S
C1067 C1066 1.370 . S
C1067 C1068 1.403 . S
C1068 C1067 1.403 . S
C1068 C1069 1.404 . S
C1068 C1071 1.539 . S
C1069 C1065 1.408 . S
C1069 C1068 1.404 . S
C1069 H1081 0.930 . S
C1070 C1066 1.524 . S
C1070 H1082 0.956 . S
C1070 H1083 0.961 . S
C1070 H1084 0.961 . S
C1071 C1068 1.539 . S
C1071 H1085 0.958 . S
C1071 H1086 0.961 . S
C1071 H1087 0.960 . S
H1072 C1056 0.931 . S
H1073 C1061 0.929 . S
H1074 C1062 0.960 . S
H1075 C1062 0.962 . S
H1076 C1062 0.960 . S
H1077 C1063 0.961 . S
H1078 C1063 0.961 . S
H1079 C1063 0.961 . S
H1080 C1064 0.931 . S
H1081 C1069 0.930 . S
H1082 C1070 0.956 . S
H1083 C1070 0.961 . S
H1084 C1070 0.961 . S
H1085 C1071 0.958 . S
H1086 C1071 0.961 . S
H1087 C1071 0.960 . S
C1088 C1089 1.391 . S
C1088 C1090 1.394 . S
C1088 H1104 0.931 . S
C1089 C1088 1.391 . S
C1089 C1093 1.376 . S
C1090 C1088 1.394 . S
C1090 C1091 1.369 . S
C1090 C1094 1.531 . S
C1091 C1090 1.369 . S
C1091 C1092 1.410 . S
C1091 C1099 1.503 . S
C1092 C1091 1.410 . S
C1092 C1093 1.392 . S
C1092 C1095 1.511 . S
C1093 C1089 1.376 . S
C1093 C1092 1.392 . S
C1093 H1105 0.929 . S
C1094 C1090 1.531 . S
C1094 H1106 0.960 . S
C1094 H1107 0.962 . S
C1094 H1108 0.960 . S
C1095 C1092 1.511 . S
C1095 H1109 0.961 . S
C1095 H1110 0.961 . S
C1095 H1111 0.961 . S
C1096 C1097 1.370 . S
C1096 C1098 1.363 . S
C1096 H1112 0.931 . S
C1097 C1096 1.370 . S
C1097 C1101 1.408 . S
C1098 C1096 1.363 . S
C1098 C1099 1.370 . S
C1098 C1102 1.524 . S
C1099 C1091 1.503 . S
C1099 C1098 1.370 . S
C1099 C1100 1.403 . S
C1100 C1099 1.403 . S
C1100 C1101 1.404 . S
C1100 C1103 1.539 . S
C1101 C1097 1.408 . S
C1101 C1100 1.404 . S
C1101 H1113 0.930 . S
C1102 C1098 1.524 . S
C1102 H1114 0.956 . S
C1102 H1115 0.961 . S
C1102 H1116 0.961 . S
C1103 C1100 1.539 . S
C1103 H1117 0.958 . S
C1103 H1118 0.961 . S
C1103 H1119 0.960 . S
H1104 C1088 0.931 . S
H1105 C1093 0.929 . S
H1106 C1094 0.960 . S
H1107 C1094 0.962 . S
H1108 C1094 0.960 . S
H1109 C1095 0.961 . S
H1110 C1095 0.961 . S
H1111 C1095 0.961 . S
H1112 C1096 0.931 . S
H1113 C1101 0.930 . S
H1114 C1102 0.956 . S
H1115 C1102 0.961 . S
H1116 C1102 0.961 . S
H1117 C1103 0.958 . S
H1118 C1103 0.961 . S
H1119 C1103 0.960 . S
C1120 C1121 1.391 . S
C1120 C1122 1.394 . S
C1120 H1136 0.931 . S
C1121 C1120 1.391 . S
C1121 C1125 1.376 . S
C1122 C1120 1.394 . S
C1122 C1123 1.369 . S
C1122 C1126 1.531 . S
C1123 C1122 1.369 . S
C1123 C1124 1.410 . S
C1123 C1131 1.503 . S
C1124 C1123 1.410 . S
C1124 C1125 1.392 . S
C1124 C1127 1.511 . S
C1125 C1121 1.376 . S
C1125 C1124 1.392 . S
C1125 H1137 0.929 . S
C1126 C1122 1.531 . S
C1126 H1138 0.960 . S
C1126 H1139 0.962 . S
C1126 H1140 0.960 . S
C1127 C1124 1.511 . S
C1127 H1141 0.961 . S
C1127 H1142 0.961 . S
C1127 H1143 0.961 . S
C1128 C1129 1.370 . S
C1128 C1130 1.363 . S
C1128 H1144 0.931 . S
C1129 C1128 1.370 . S
C1129 C1133 1.408 . S
C1130 C1128 1.363 . S
C1130 C1131 1.370 . S
C1130 C1134 1.524 . S
C1131 C1123 1.503 . S
C1131 C1130 1.370 . S
C1131 C1132 1.403 . S
C1132 C1131 1.403 . S
C1132 C1133 1.404 . S
C1132 C1135 1.539 . S
C1133 C1129 1.408 . S
C1133 C1132 1.404 . S
C1133 H1145 0.930 . S
C1134 C1130 1.524 . S
C1134 H1146 0.956 . S
C1134 H1147 0.961 . S
C1134 H1148 0.961 . S
C1135 C1132 1.539 . S
C1135 H1149 0.958 . S
C1135 H1150 0.961 . S
C1135 H1151 0.960 . S
H1136 C1120 0.931 . S
H1137 C1125 0.929 . S
H1138 C1126 0.960 . S
H1139 C1126 0.962 . S
H1140 C1126 0.960 . S
H1141 C1127 0.961 . S
H1142 C1127 0.961 . S
H1143 C1127 0.961 . S
H1144 C1128 0.931 . S
H1145 C1133 0.930 . S
H1146 C1134 0.956 . S
H1147 C1134 0.961 . S
H1148 C1134 0.961 . S
H1149 C1135 0.958 . S
H1150 C1135 0.961 . S
H1151 C1135 0.960 . S
C1152 C1153 1.391 . S
C1152 C1154 1.394 . S
C1152 H1168 0.931 . S
C1153 C1152 1.391 . S
C1153 C1157 1.376 . S
C1154 C1152 1.394 . S
C1154 C1155 1.369 . S
C1154 C1158 1.531 . S
C1155 C1154 1.369 . S
C1155 C1156 1.410 . S
C1155 C1163 1.503 1_455 S
C1156 C1155 1.410 . S
C1156 C1157 1.392 . S
C1156 C1159 1.511 . S
C1157 C1153 1.376 . S
C1157 C1156 1.392 . S
C1157 H1169 0.929 . S
C1158 C1154 1.531 . S
C1158 H1170 0.960 1_455 S
C1158 H1171 0.962 . S
C1158 H1172 0.960 . S
C1159 C1156 1.511 . S
C1159 H1173 0.961 . S
C1159 H1174 0.961 1_455 S
C1159 H1175 0.961 . S
C1160 C1161 1.370 . S
C1160 C1162 1.363 . S
C1160 H1176 0.931 . S
C1161 C1160 1.370 . S
C1161 C1165 1.408 . S
C1162 C1160 1.363 . S
C1162 C1163 1.370 . S
C1162 C1166 1.524 . S
C1163 C1155 1.503 1_655 S
C1163 C1162 1.370 . S
C1163 C1164 1.403 . S
C1164 C1163 1.403 . S
C1164 C1165 1.404 . S
C1164 C1167 1.539 . S
C1165 C1161 1.408 . S
C1165 C1164 1.404 . S
C1165 H1177 0.930 . S
C1166 C1162 1.524 . S
C1166 H1178 0.956 . S
C1166 H1179 0.961 1_655 S
C1166 H1180 0.961 . S
C1167 C1164 1.539 . S
C1167 H1181 0.958 . S
C1167 H1182 0.961 . S
C1167 H1183 0.973 . S
H1168 C1152 0.931 . S
H1169 C1157 0.929 . S
H1170 C1158 0.960 1_655 S
H1171 C1158 0.962 . S
H1172 C1158 0.960 . S
H1173 C1159 0.961 . S
H1174 C1159 0.961 1_655 S
H1175 C1159 0.961 . S
H1176 C1160 0.931 . S
H1177 C1165 0.930 . S
H1178 C1166 0.956 . S
H1179 C1166 0.961 1_455 S
H1180 C1166 0.961 . S
H1181 C1167 0.958 . S
H1182 C1167 0.961 . S
H1183 C1167 0.973 . S
C1184 C1185 1.391 . S
C1184 C1186 1.394 . S
C1184 H1200 0.931 . S
C1185 C1184 1.391 . S
C1185 C1189 1.376 . S
C1186 C1184 1.394 . S
C1186 C1187 1.369 . S
C1186 C1190 1.531 . S
C1187 C1186 1.369 . S
C1187 C1188 1.410 . S
C1187 C1195 1.503 . S
C1188 C1187 1.410 . S
C1188 C1189 1.392 . S
C1188 C1191 1.511 . S
C1189 C1185 1.376 . S
C1189 C1188 1.392 . S
C1189 H1201 0.929 . S
C1190 C1186 1.531 . S
C1190 H1202 0.960 . S
C1190 H1203 0.962 . S
C1190 H1204 0.960 . S
C1191 C1188 1.511 . S
C1191 H1205 0.961 . S
C1191 H1206 0.961 . S
C1191 H1207 0.961 . S
C1192 C1193 1.370 . S
C1192 C1194 1.363 . S
C1192 H1208 0.931 . S
C1193 C1192 1.370 . S
C1193 C1197 1.408 . S
C1194 C1192 1.363 . S
C1194 C1195 1.370 . S
C1194 C1198 1.524 . S
C1195 C1187 1.503 . S
C1195 C1194 1.370 . S
C1195 C1196 1.403 . S
C1196 C1195 1.403 . S
C1196 C1197 1.404 . S
C1196 C1199 1.539 . S
C1197 C1193 1.408 . S
C1197 C1196 1.404 . S
C1197 H1209 0.930 . S
C1198 C1194 1.524 . S
C1198 H1210 0.956 . S
C1198 H1211 0.961 . S
C1198 H1212 0.961 . S
C1199 C1196 1.539 . S
C1199 H1213 0.958 . S
C1199 H1214 0.961 . S
C1199 H1215 0.960 . S
H1200 C1184 0.931 . S
H1201 C1189 0.929 . S
H1202 C1190 0.960 . S
H1203 C1190 0.962 . S
H1204 C1190 0.960 . S
H1205 C1191 0.961 . S
H1206 C1191 0.961 . S
H1207 C1191 0.961 . S
H1208 C1192 0.931 . S
H1209 C1197 0.930 . S
H1210 C1198 0.956 . S
H1211 C1198 0.961 . S
H1212 C1198 0.961 . S
H1213 C1199 0.958 . S
H1214 C1199 0.961 . S
H1215 C1199 0.960 . S
C1216 C1217 1.391 . S
C1216 C1218 1.394 . S
C1216 H1232 0.931 . S
C1217 C1216 1.391 . S
C1217 C1221 1.376 . S
C1218 C1216 1.394 . S
C1218 C1219 1.369 . S
C1218 C1222 1.531 . S
C1219 C1218 1.369 . S
C1219 C1220 1.410 . S
C1219 C1227 1.503 1_655 S
C1220 C1219 1.410 . S
C1220 C1221 1.392 . S
C1220 C1223 1.511 . S
C1221 C1217 1.376 . S
C1221 C1220 1.392 . S
C1221 H1233 0.929 . S
C1222 C1218 1.531 . S
C1222 H1234 0.960 1_655 S
C1222 H1235 0.962 . S
C1222 H1236 0.960 . S
C1223 C1220 1.511 . S
C1223 H1237 0.961 . S
C1223 H1238 0.961 1_655 S
C1223 H1239 0.961 . S
C1224 C1225 1.370 . S
C1224 C1226 1.363 . S
C1224 H1240 0.931 . S
C1225 C1224 1.370 . S
C1225 C1229 1.408 . S
C1226 C1224 1.363 . S
C1226 C1227 1.370 . S
C1226 C1230 1.524 . S
C1227 C1219 1.503 1_455 S
C1227 C1226 1.370 . S
C1227 C1228 1.403 . S
C1228 C1227 1.403 . S
C1228 C1229 1.404 . S
C1228 C1231 1.539 . S
C1229 C1225 1.408 . S
C1229 C1228 1.404 . S
C1229 H1241 0.930 . S
C1230 C1226 1.524 . S
C1230 H1242 0.956 . S
C1230 H1243 0.961 1_455 S
C1230 H1244 0.961 . S
C1231 C1228 1.539 . S
C1231 H1245 0.958 . S
C1231 H1246 0.961 . S
C1231 H1247 0.967 . S
H1232 C1216 0.931 . S
H1233 C1221 0.929 . S
H1234 C1222 0.960 1_455 S
H1235 C1222 0.962 . S
H1236 C1222 0.960 . S
H1237 C1223 0.961 . S
H1238 C1223 0.961 1_455 S
H1239 C1223 0.961 . S
H1240 C1224 0.931 . S
H1241 C1229 0.930 . S
H1242 C1230 0.956 . S
H1243 C1230 0.961 1_655 S
H1244 C1230 0.961 . S
H1245 C1231 0.958 . S
H1246 C1231 0.961 . S
H1247 C1231 0.967 . S
C1248 C1249 1.391 . S
C1248 C1250 1.394 . S
C1248 H1264 0.931 . S
C1249 C1248 1.391 . S
C1249 C1253 1.376 . S
C1250 C1248 1.394 . S
C1250 C1251 1.369 . S
C1250 C1254 1.531 . S
C1251 C1250 1.369 . S
C1251 C1252 1.410 . S
C1251 C1259 1.503 1_655 S
C1252 C1251 1.410 . S
C1252 C1253 1.392 . S
C1252 C1255 1.511 . S
C1253 C1249 1.376 . S
C1253 C1252 1.392 . S
C1253 H1265 0.929 . S
C1254 C1250 1.531 . S
C1254 H1266 0.960 1_655 S
C1254 H1267 0.962 . S
C1254 H1268 0.960 . S
C1255 C1252 1.511 . S
C1255 H1269 0.961 . S
C1255 H1270 0.961 1_655 S
C1255 H1271 0.961 . S
C1256 C1257 1.370 . S
C1256 C1258 1.363 . S
C1256 H1272 0.931 . S
C1257 C1256 1.370 . S
C1257 C1261 1.408 . S
C1258 C1256 1.363 . S
C1258 C1259 1.370 . S
C1258 C1262 1.524 . S
C1259 C1251 1.503 1_455 S
C1259 C1258 1.370 . S
C1259 C1260 1.403 . S
C1260 C1259 1.403 . S
C1260 C1261 1.404 . S
C1260 C1263 1.539 . S
C1261 C1257 1.408 . S
C1261 C1260 1.404 . S
C1261 H1273 0.930 . S
C1262 C1258 1.524 . S
C1262 H1274 0.956 . S
C1262 H1275 0.961 1_455 S
C1262 H1276 0.961 . S
C1263 C1260 1.539 . S
C1263 H1277 0.958 . S
C1263 H1278 0.961 . S
C1263 H1279 0.974 . S
H1264 C1248 0.931 . S
H1265 C1253 0.929 . S
H1266 C1254 0.960 1_455 S
H1267 C1254 0.962 . S
H1268 C1254 0.960 . S
H1269 C1255 0.961 . S
H1270 C1255 0.961 1_455 S
H1271 C1255 0.961 . S
H1272 C1256 0.931 . S
H1273 C1261 0.930 . S
H1274 C1262 0.956 . S
H1275 C1262 0.961 1_655 S
H1276 C1262 0.961 . S
H1277 C1263 0.958 . S
H1278 C1263 0.961 . S
H1279 C1263 0.974 . S
C1280 C1281 1.391 . S
C1280 C1282 1.394 . S
C1280 H1296 0.931 . S
C1281 C1280 1.391 . S
C1281 C1285 1.376 . S
C1282 C1280 1.394 . S
C1282 C1283 1.369 . S
C1282 C1286 1.531 . S
C1283 C1282 1.369 . S
C1283 C1284 1.410 . S
C1283 C1291 1.503 . S
C1284 C1283 1.410 . S
C1284 C1285 1.392 . S
C1284 C1287 1.511 . S
C1285 C1281 1.376 . S
C1285 C1284 1.392 . S
C1285 H1297 0.929 . S
C1286 C1282 1.531 . S
C1286 H1298 0.960 . S
C1286 H1299 0.962 . S
C1286 H1300 0.960 . S
C1287 C1284 1.511 . S
C1287 H1301 0.961 . S
C1287 H1302 0.961 . S
C1287 H1303 0.961 . S
C1288 C1289 1.370 . S
C1288 C1290 1.363 . S
C1288 H1304 0.931 . S
C1289 C1288 1.370 . S
C1289 C1293 1.408 . S
C1290 C1288 1.363 . S
C1290 C1291 1.370 . S
C1290 C1294 1.524 . S
C1291 C1283 1.503 . S
C1291 C1290 1.370 . S
C1291 C1292 1.403 . S
C1292 C1291 1.403 . S
C1292 C1293 1.404 . S
C1292 C1295 1.539 . S
C1293 C1289 1.408 . S
C1293 C1292 1.404 . S
C1293 H1305 0.930 . S
C1294 C1290 1.524 . S
C1294 H1306 0.956 . S
C1294 H1307 0.961 . S
C1294 H1308 0.961 . S
C1295 C1292 1.539 . S
C1295 H1309 0.958 . S
C1295 H1310 0.961 . S
C1295 H1311 0.960 . S
H1296 C1280 0.931 . S
H1297 C1285 0.929 . S
H1298 C1286 0.960 . S
H1299 C1286 0.962 . S
H1300 C1286 0.960 . S
H1301 C1287 0.961 . S
H1302 C1287 0.961 . S
H1303 C1287 0.961 . S
H1304 C1288 0.931 . S
H1305 C1293 0.930 . S
H1306 C1294 0.956 . S
H1307 C1294 0.961 . S
H1308 C1294 0.961 . S
H1309 C1295 0.958 . S
H1310 C1295 0.961 . S
H1311 C1295 0.960 . S
C1312 C1313 1.391 . S
C1312 C1314 1.394 . S
C1312 H1328 0.931 . S
C1313 C1312 1.391 . S
C1313 C1317 1.376 . S
C1314 C1312 1.394 . S
C1314 C1315 1.369 . S
C1314 C1318 1.531 . S
C1315 C1314 1.369 . S
C1315 C1316 1.410 . S
C1315 C1323 1.503 1_455 S
C1316 C1315 1.410 . S
C1316 C1317 1.392 . S
C1316 C1319 1.511 . S
C1317 C1313 1.376 . S
C1317 C1316 1.392 . S
C1317 H1329 0.929 . S
C1318 C1314 1.531 . S
C1318 H1330 0.960 1_455 S
C1318 H1331 0.962 . S
C1318 H1332 0.960 . S
C1319 C1316 1.511 . S
C1319 H1333 0.961 . S
C1319 H1334 0.961 1_455 S
C1319 H1335 0.961 . S
C1320 C1321 1.370 . S
C1320 C1322 1.363 . S
C1320 H1336 0.931 . S
C1321 C1320 1.370 . S
C1321 C1325 1.408 . S
C1322 C1320 1.363 . S
C1322 C1323 1.370 . S
C1322 C1326 1.524 . S
C1323 C1315 1.503 1_655 S
C1323 C1322 1.370 . S
C1323 C1324 1.403 . S
C1324 C1323 1.403 . S
C1324 C1325 1.404 . S
C1324 C1327 1.539 . S
C1325 C1321 1.408 . S
C1325 C1324 1.404 . S
C1325 H1337 0.930 . S
C1326 C1322 1.524 . S
C1326 H1338 0.956 . S
C1326 H1339 0.961 1_655 S
C1326 H1340 0.961 . S
C1327 C1324 1.539 . S
C1327 H1341 0.958 . S
C1327 H1342 0.961 . S
C1327 H1343 0.962 . S
H1328 C1312 0.931 . S
H1329 C1317 0.929 . S
H1330 C1318 0.960 1_655 S
H1331 C1318 0.962 . S
H1332 C1318 0.960 . S
H1333 C1319 0.961 . S
H1334 C1319 0.961 1_655 S
H1335 C1319 0.961 . S
H1336 C1320 0.931 . S
H1337 C1325 0.930 . S
H1338 C1326 0.956 . S
H1339 C1326 0.961 1_455 S
H1340 C1326 0.961 . S
H1341 C1327 0.958 . S
H1342 C1327 0.961 . S
H1343 C1327 0.962 . S
C1344 C1345 1.391 . S
C1344 C1346 1.394 . S
C1344 H1360 0.931 . S
C1345 C1344 1.391 . S
C1345 C1349 1.376 . S
C1346 C1344 1.394 . S
C1346 C1347 1.369 . S
C1346 C1350 1.531 . S
C1347 C1346 1.369 . S
C1347 C1348 1.410 . S
C1347 C1355 1.503 . S
C1348 C1347 1.410 . S
C1348 C1349 1.392 . S
C1348 C1351 1.511 . S
C1349 C1345 1.376 . S
C1349 C1348 1.392 . S
C1349 H1361 0.929 . S
C1350 C1346 1.531 . S
C1350 H1362 0.960 . S
C1350 H1363 0.962 . S
C1350 H1364 0.960 . S
C1351 C1348 1.511 . S
C1351 H1365 0.961 . S
C1351 H1366 0.961 . S
C1351 H1367 0.961 . S
C1352 C1353 1.370 . S
C1352 C1354 1.363 . S
C1352 H1368 0.931 . S
C1353 C1352 1.370 . S
C1353 C1357 1.408 . S
C1354 C1352 1.363 . S
C1354 C1355 1.370 . S
C1354 C1358 1.524 . S
C1355 C1347 1.503 . S
C1355 C1354 1.370 . S
C1355 C1356 1.403 . S
C1356 C1355 1.403 . S
C1356 C1357 1.404 . S
C1356 C1359 1.539 . S
C1357 C1353 1.408 . S
C1357 C1356 1.404 . S
C1357 H1369 0.930 . S
C1358 C1354 1.524 . S
C1358 H1370 0.956 . S
C1358 H1371 0.961 . S
C1358 H1372 0.961 . S
C1359 C1356 1.539 . S
C1359 H1373 0.958 . S
C1359 H1374 0.961 . S
C1359 H1375 0.960 . S
H1360 C1344 0.931 . S
H1361 C1349 0.929 . S
H1362 C1350 0.960 . S
H1363 C1350 0.962 . S
H1364 C1350 0.960 . S
H1365 C1351 0.961 . S
H1366 C1351 0.961 . S
H1367 C1351 0.961 . S
H1368 C1352 0.931 . S
H1369 C1357 0.930 . S
H1370 C1358 0.956 . S
H1371 C1358 0.961 . S
H1372 C1358 0.961 . S
H1373 C1359 0.958 . S
H1374 C1359 0.961 . S
H1375 C1359 0.960 . S
C1376 C1377 1.391 . S
C1376 C1378 1.394 1_545 S
C1376 H1392 0.931 . S
C1377 C1376 1.391 . S
C1377 C1381 1.393 . S
C1378 C1376 1.394 1_565 S
C1378 C1379 1.369 . S
C1378 C1382 1.531 . S
C1379 C1378 1.369 . S
C1379 C1380 1.410 . S
C1379 C1387 1.503 . S
C1380 C1379 1.410 . S
C1380 C1381 1.373 1_565 S
C1380 C1383 1.511 . S
C1381 C1377 1.393 . S
C1381 C1380 1.373 1_545 S
C1381 H1393 0.932 . S
C1382 C1378 1.531 . S
C1382 H1394 0.960 . S
C1382 H1395 0.962 . S
C1382 H1396 0.960 1_565 S
C1383 C1380 1.511 . S
C1383 H1397 0.961 . S
C1383 H1398 0.961 . S
C1383 H1399 0.961 . S
C1384 C1385 1.370 . S
C1384 C1386 1.363 . S
C1384 H1400 0.931 . S
C1385 C1384 1.370 . S
C1385 C1389 1.408 . S
C1386 C1384 1.363 . S
C1386 C1387 1.370 . S
C1386 C1390 1.524 . S
C1387 C1379 1.503 . S
C1387 C1386 1.370 . S
C1387 C1388 1.403 . S
C1388 C1387 1.403 . S
C1388 C1389 1.404 . S
C1388 C1391 1.539 . S
C1389 C1385 1.408 . S
C1389 C1388 1.404 . S
C1389 H1401 0.930 . S
C1390 C1386 1.524 . S
C1390 H1402 0.956 . S
C1390 H1403 0.961 . S
C1390 H1404 0.961 . S
C1391 C1388 1.539 . S
C1391 H1405 0.958 . S
C1391 H1406 0.961 . S
C1391 H1407 0.960 . S
H1392 C1376 0.931 . S
H1393 C1381 0.932 . S
H1394 C1382 0.960 . S
H1395 C1382 0.962 . S
H1396 C1382 0.960 1_545 S
H1397 C1383 0.961 . S
H1398 C1383 0.961 . S
H1399 C1383 0.961 . S
H1400 C1384 0.931 . S
H1401 C1389 0.930 . S
H1402 C1390 0.956 . S
H1403 C1390 0.961 . S
H1404 C1390 0.961 . S
H1405 C1391 0.958 . S
H1406 C1391 0.961 . S
H1407 C1391 0.960 . S
C1408 C1409 1.391 . S
C1408 C1410 1.394 1_565 S
C1408 H1424 0.931 . S
C1409 C1408 1.391 . S
C1409 C1413 1.376 . S
C1410 C1408 1.394 1_545 S
C1410 C1411 1.369 . S
C1410 C1414 1.531 . S
C1411 C1410 1.369 . S
C1411 C1412 1.410 . S
C1411 C1419 1.503 . S
C1412 C1411 1.410 . S
C1412 C1413 1.392 1_545 S
C1412 C1415 1.511 . S
C1413 C1409 1.376 . S
C1413 C1412 1.392 1_565 S
C1413 H1425 0.929 . S
C1414 C1410 1.531 . S
C1414 H1426 0.960 . S
C1414 H1427 0.962 . S
C1414 H1428 0.960 . S
C1415 C1412 1.511 . S
C1415 H1429 0.961 1_545 S
C1415 H1430 0.961 . S
C1415 H1431 0.961 . S
C1416 C1417 1.370 . S
C1416 C1418 1.363 . S
C1416 H1432 0.931 . S
C1417 C1416 1.370 . S
C1417 C1421 1.408 . S
C1418 C1416 1.363 . S
C1418 C1419 1.370 . S
C1418 C1422 1.524 . S
C1419 C1411 1.503 . S
C1419 C1418 1.370 . S
C1419 C1420 1.403 . S
C1420 C1419 1.403 . S
C1420 C1421 1.404 . S
C1420 C1423 1.539 . S
C1421 C1417 1.408 . S
C1421 C1420 1.404 . S
C1421 H1433 0.930 . S
C1422 C1418 1.524 . S
C1422 H1434 0.956 . S
C1422 H1435 0.961 . S
C1422 H1436 0.961 . S
C1423 C1420 1.539 . S
C1423 H1437 0.958 . S
C1423 H1438 0.961 . S
C1423 H1439 0.960 . S
H1424 C1408 0.931 . S
H1425 C1413 0.929 . S
H1426 C1414 0.960 . S
H1427 C1414 0.962 . S
H1428 C1414 0.960 . S
H1429 C1415 0.961 1_565 S
H1430 C1415 0.961 . S
H1431 C1415 0.961 . S
H1432 C1416 0.931 . S
H1433 C1421 0.930 . S
H1434 C1422 0.956 . S
H1435 C1422 0.961 . S
H1436 C1422 0.961 . S
H1437 C1423 0.958 . S
H1438 C1423 0.961 . S
H1439 C1423 0.960 . S
C1440 C1441 1.391 . S
C1440 C1442 1.394 . S
C1440 H1456 0.931 . S
C1441 C1440 1.391 . S
C1441 C1445 1.376 . S
C1442 C1440 1.394 . S
C1442 C1443 1.369 . S
C1442 C1446 1.531 . S
C1443 C1442 1.369 . S
C1443 C1444 1.410 . S
C1443 C1451 1.503 . S
C1444 C1443 1.410 . S
C1444 C1445 1.392 . S
C1444 C1447 1.511 . S
C1445 C1441 1.376 . S
C1445 C1444 1.392 . S
C1445 H1457 0.929 . S
C1446 C1442 1.531 . S
C1446 H1458 0.960 . S
C1446 H1459 0.962 . S
C1446 H1460 0.960 . S
C1447 C1444 1.511 . S
C1447 H1461 0.961 . S
C1447 H1462 0.961 . S
C1447 H1463 0.961 . S
C1448 C1449 1.370 . S
C1448 C1450 1.363 1_565 S
C1448 H1464 0.931 . S
C1449 C1448 1.370 . S
C1449 C1453 1.408 . S
C1450 C1448 1.363 1_545 S
C1450 C1451 1.370 . S
C1450 C1454 1.524 . S
C1451 C1443 1.503 . S
C1451 C1450 1.370 . S
C1451 C1452 1.403 . S
C1452 C1451 1.403 . S
C1452 C1453 1.404 1_545 S
C1452 C1455 1.539 . S
C1453 C1449 1.408 . S
C1453 C1452 1.404 1_565 S
C1453 H1465 0.930 . S
C1454 C1450 1.524 . S
C1454 H1466 0.956 . S
C1454 H1467 0.961 . S
C1454 H1468 0.961 . S
C1455 C1452 1.539 . S
C1455 H1469 0.958 . S
C1455 H1470 0.961 . S
C1455 H1471 0.960 . S
H1456 C1440 0.931 . S
H1457 C1445 0.929 . S
H1458 C1446 0.960 . S
H1459 C1446 0.962 . S
H1460 C1446 0.960 . S
H1461 C1447 0.961 . S
H1462 C1447 0.961 . S
H1463 C1447 0.961 . S
H1464 C1448 0.931 . S
H1465 C1453 0.930 . S
H1466 C1454 0.956 . S
H1467 C1454 0.961 . S
H1468 C1454 0.961 . S
H1469 C1455 0.958 . S
H1470 C1455 0.961 . S
H1471 C1455 0.960 . S
C1472 C1473 1.391 . S
C1472 C1474 1.394 . S
C1472 H1488 0.931 . S
C1473 C1472 1.391 . S
C1473 C1477 1.376 . S
C1474 C1472 1.394 . S
C1474 C1475 1.369 . S
C1474 C1478 1.531 . S
C1475 C1474 1.369 . S
C1475 C1476 1.410 . S
C1475 C1483 1.503 . S
C1476 C1475 1.410 . S
C1476 C1477 1.392 . S
C1476 C1479 1.511 . S
C1477 C1473 1.376 . S
C1477 C1476 1.392 . S
C1477 H1489 0.929 . S
C1478 C1474 1.531 . S
C1478 H1490 0.960 . S
C1478 H1491 0.962 . S
C1478 H1492 0.960 . S
C1479 C1476 1.511 . S
C1479 H1493 0.961 . S
C1479 H1494 0.961 . S
C1479 H1495 0.961 . S
C1480 C1481 1.370 . S
C1480 C1482 1.363 1_545 S
C1480 H1496 0.931 . S
C1481 C1480 1.370 . S
C1481 C1485 1.408 . S
C1482 C1480 1.363 1_565 S
C1482 C1483 1.370 . S
C1482 C1486 1.524 . S
C1483 C1475 1.503 . S
C1483 C1482 1.370 . S
C1483 C1484 1.403 . S
C1484 C1483 1.403 . S
C1484 C1485 1.404 1_565 S
C1484 C1487 1.539 . S
C1485 C1481 1.408 . S
C1485 C1484 1.404 1_545 S
C1485 H1497 0.930 . S
C1486 C1482 1.524 . S
C1486 H1498 0.956 . S
C1486 H1499 0.961 . S
C1486 H1500 0.961 . S
C1487 C1484 1.539 . S
C1487 H1501 0.958 . S
C1487 H1502 0.961 . S
C1487 H1503 0.960 . S
H1488 C1472 0.931 . S
H1489 C1477 0.929 . S
H1490 C1478 0.960 . S
H1491 C1478 0.962 . S
H1492 C1478 0.960 . S
H1493 C1479 0.961 . S
H1494 C1479 0.961 . S
H1495 C1479 0.961 . S
H1496 C1480 0.931 . S
H1497 C1485 0.930 . S
H1498 C1486 0.956 . S
H1499 C1486 0.961 . S
H1500 C1486 0.961 . S
H1501 C1487 0.958 . S
H1502 C1487 0.961 . S
H1503 C1487 0.960 . S
C1504 C1505 1.391 . S
C1504 C1506 1.394 . S
C1504 H1520 0.931 . S
C1505 C1504 1.391 . S
C1505 C1509 1.376 . S
C1506 C1504 1.394 . S
C1506 C1507 1.369 . S
C1506 C1510 1.531 . S
C1507 C1506 1.369 . S
C1507 C1508 1.410 . S
C1507 C1515 1.503 . S
C1508 C1507 1.410 . S
C1508 C1509 1.392 . S
C1508 C1511 1.511 . S
C1509 C1505 1.376 . S
C1509 C1508 1.392 . S
C1509 H1521 0.929 . S
C1510 C1506 1.531 . S
C1510 H1522 0.960 . S
C1510 H1523 0.962 . S
C1510 H1524 0.960 . S
C1511 C1508 1.511 . S
C1511 H1525 0.961 . S
C1511 H1526 0.961 . S
C1511 H1527 0.961 . S
C1512 C1513 1.370 . S
C1512 C1514 1.363 1_565 S
C1512 H1528 0.931 . S
C1513 C1512 1.370 . S
C1513 C1517 1.408 . S
C1514 C1512 1.363 1_545 S
C1514 C1515 1.370 . S
C1514 C1518 1.524 . S
C1515 C1507 1.503 . S
C1515 C1514 1.370 . S
C1515 C1516 1.403 . S
C1516 C1515 1.403 . S
C1516 C1517 1.404 1_545 S
C1516 C1519 1.539 . S
C1517 C1513 1.408 . S
C1517 C1516 1.404 1_565 S
C1517 H1529 0.930 . S
C1518 C1514 1.524 . S
C1518 H1530 0.956 . S
C1518 H1531 0.961 . S
C1518 H1532 0.961 . S
C1519 C1516 1.539 . S
C1519 H1533 0.958 . S
C1519 H1534 0.961 1_545 S
C1519 H1535 0.960 . S
H1520 C1504 0.931 . S
H1521 C1509 0.929 . S
H1522 C1510 0.960 . S
H1523 C1510 0.962 . S
H1524 C1510 0.960 . S
H1525 C1511 0.961 . S
H1526 C1511 0.961 . S
H1527 C1511 0.961 . S
H1528 C1512 0.931 . S
H1529 C1517 0.930 . S
H1530 C1518 0.956 . S
H1531 C1518 0.961 . S
H1532 C1518 0.961 . S
H1533 C1519 0.958 . S
H1534 C1519 0.961 1_565 S
H1535 C1519 0.960 . S
C1536 C1537 1.391 . S
C1536 C1538 1.394 1_545 S
C1536 H1552 0.931 . S
C1537 C1536 1.391 . S
C1537 C1541 1.376 . S
C1538 C1536 1.394 1_565 S
C1538 C1539 1.369 . S
C1538 C1542 1.531 . S
C1539 C1538 1.369 . S
C1539 C1540 1.410 . S
C1539 C1547 1.503 . S
C1540 C1539 1.410 . S
C1540 C1541 1.392 1_565 S
C1540 C1543 1.511 . S
C1541 C1537 1.376 . S
C1541 C1540 1.392 1_545 S
C1541 H1553 0.929 . S
C1542 C1538 1.531 . S
C1542 H1554 0.960 . S
C1542 H1555 0.962 . S
C1542 H1556 0.960 1_565 S
C1543 C1540 1.511 . S
C1543 H1557 0.961 . S
C1543 H1558 0.961 . S
C1543 H1559 0.961 . S
C1544 C1545 1.370 . S
C1544 C1546 1.363 . S
C1544 H1560 0.931 . S
C1545 C1544 1.370 . S
C1545 C1549 1.408 . S
C1546 C1544 1.363 . S
C1546 C1547 1.370 . S
C1546 C1550 1.524 . S
C1547 C1539 1.503 . S
C1547 C1546 1.370 . S
C1547 C1548 1.403 . S
C1548 C1547 1.403 . S
C1548 C1549 1.404 . S
C1548 C1551 1.539 . S
C1549 C1545 1.408 . S
C1549 C1548 1.404 . S
C1549 H1561 0.930 . S
C1550 C1546 1.524 . S
C1550 H1562 0.956 . S
C1550 H1563 0.961 . S
C1550 H1564 0.961 . S
C1551 C1548 1.539 . S
C1551 H1565 0.958 . S
C1551 H1566 0.961 . S
C1551 H1567 0.960 . S
H1552 C1536 0.931 . S
H1553 C1541 0.929 . S
H1554 C1542 0.960 . S
H1555 C1542 0.962 . S
H1556 C1542 0.960 1_545 S
H1557 C1543 0.961 . S
H1558 C1543 0.961 . S
H1559 C1543 0.961 . S
H1560 C1544 0.931 . S
H1561 C1549 0.930 . S
H1562 C1550 0.956 . S
H1563 C1550 0.961 . S
H1564 C1550 0.961 . S
H1565 C1551 0.958 . S
H1566 C1551 0.961 . S
H1567 C1551 0.960 . S
C1568 C1569 1.391 . S
C1568 C1570 1.394 1_545 S
C1568 H1584 0.931 . S
C1569 C1568 1.391 . S
C1569 C1573 1.376 . S
C1570 C1568 1.394 1_565 S
C1570 C1571 1.369 . S
C1570 C1574 1.531 . S
C1571 C1570 1.369 . S
C1571 C1572 1.410 . S
C1571 C1579 1.503 . S
C1572 C1571 1.410 . S
C1572 C1573 1.392 1_565 S
C1572 C1575 1.511 . S
C1573 C1569 1.376 . S
C1573 C1572 1.392 1_545 S
C1573 H1585 0.929 . S
C1574 C1570 1.531 . S
C1574 H1586 0.960 . S
C1574 H1587 0.962 . S
C1574 H1588 0.960 . S
C1575 C1572 1.511 . S
C1575 H1589 0.961 . S
C1575 H1590 0.961 . S
C1575 H1591 0.961 . S
C1576 C1577 1.370 . S
C1576 C1578 1.363 . S
C1576 H1592 0.931 . S
C1577 C1576 1.370 . S
C1577 C1581 1.408 . S
C1578 C1576 1.363 . S
C1578 C1579 1.370 . S
C1578 C1582 1.524 . S
C1579 C1571 1.503 . S
C1579 C1578 1.370 . S
C1579 C1580 1.403 . S
C1580 C1579 1.403 . S
C1580 C1581 1.404 . S
C1580 C1583 1.539 . S
C1581 C1577 1.408 . S
C1581 C1580 1.404 . S
C1581 H1593 0.930 . S
C1582 C1578 1.524 . S
C1582 H1594 0.956 . S
C1582 H1595 0.961 . S
C1582 H1596 0.961 . S
C1583 C1580 1.539 . S
C1583 H1597 0.958 . S
C1583 H1598 0.961 . S
C1583 H1599 0.960 . S
H1584 C1568 0.931 . S
H1585 C1573 0.929 . S
H1586 C1574 0.960 . S
H1587 C1574 0.962 . S
H1588 C1574 0.960 . S
H1589 C1575 0.961 . S
H1590 C1575 0.961 . S
H1591 C1575 0.961 . S
H1592 C1576 0.931 . S
H1593 C1581 0.930 . S
H1594 C1582 0.956 . S
H1595 C1582 0.961 . S
H1596 C1582 0.961 . S
H1597 C1583 0.958 . S
H1598 C1583 0.961 . S
H1599 C1583 0.960 . S
C1600 C1601 1.391 . S
C1600 C1602 1.394 . S
C1600 H1616 0.931 . S
C1601 C1600 1.391 . S
C1601 C1605 1.376 . S
C1602 C1600 1.394 . S
C1602 C1603 1.369 . S
C1602 C1606 1.531 . S
C1603 C1602 1.369 . S
C1603 C1604 1.410 . S
C1603 C1611 1.503 . S
C1604 C1603 1.410 . S
C1604 C1605 1.392 . S
C1604 C1607 1.511 . S
C1605 C1601 1.376 . S
C1605 C1604 1.392 . S
C1605 H1617 0.929 . S
C1606 C1602 1.531 . S
C1606 H1618 0.960 . S
C1606 H1619 0.962 . S
C1606 H1620 0.960 . S
C1607 C1604 1.511 . S
C1607 H1621 0.961 . S
C1607 H1622 0.961 . S
C1607 H1623 0.961 . S
C1608 C1609 1.370 . S
C1608 C1610 1.363 1_565 S
C1608 H1624 0.931 . S
C1609 C1608 1.370 . S
C1609 C1613 1.408 . S
C1610 C1608 1.363 1_545 S
C1610 C1611 1.370 . S
C1610 C1614 1.524 . S
C1611 C1603 1.503 . S
C1611 C1610 1.370 . S
C1611 C1612 1.403 . S
C1612 C1611 1.403 . S
C1612 C1613 1.404 1_545 S
C1612 C1615 1.539 . S
C1613 C1609 1.408 . S
C1613 C1612 1.404 1_565 S
C1613 H1625 0.930 . S
C1614 C1610 1.524 . S
C1614 H1626 0.956 . S
C1614 H1627 0.961 . S
C1614 H1628 0.961 . S
C1615 C1612 1.539 . S
C1615 H1629 0.958 . S
C1615 H1630 0.961 . S
C1615 H1631 0.960 . S
H1616 C1600 0.931 . S
H1617 C1605 0.929 . S
H1618 C1606 0.960 . S
H1619 C1606 0.962 . S
H1620 C1606 0.960 . S
H1621 C1607 0.961 . S
H1622 C1607 0.961 . S
H1623 C1607 0.961 . S
H1624 C1608 0.931 . S
H1625 C1613 0.930 . S
H1626 C1614 0.956 . S
H1627 C1614 0.961 . S
H1628 C1614 0.961 . S
H1629 C1615 0.958 . S
H1630 C1615 0.961 . S
H1631 C1615 0.960 . S
C1632 C1633 1.391 . S
C1632 C1634 1.394 . S
C1632 H1648 0.931 . S
C1633 C1632 1.391 . S
C1633 C1637 1.376 . S
C1634 C1632 1.394 . S
C1634 C1635 1.369 . S
C1634 C1638 1.531 . S
C1635 C1634 1.369 . S
C1635 C1636 1.410 . S
C1635 C1643 1.503 . S
C1636 C1635 1.410 . S
C1636 C1637 1.392 . S
C1636 C1639 1.511 . S
C1637 C1633 1.376 . S
C1637 C1636 1.392 . S
C1637 H1649 0.929 . S
C1638 C1634 1.531 . S
C1638 H1650 0.960 . S
C1638 H1651 0.962 . S
C1638 H1652 0.960 . S
C1639 C1636 1.511 . S
C1639 H1653 0.961 . S
C1639 H1654 0.961 . S
C1639 H1655 0.961 . S
C1640 C1641 1.370 . S
C1640 C1642 1.363 . S
C1640 H1656 0.931 . S
C1641 C1640 1.370 . S
C1641 C1645 1.408 . S
C1642 C1640 1.363 . S
C1642 C1643 1.370 . S
C1642 C1646 1.524 . S
C1643 C1635 1.503 . S
C1643 C1642 1.370 . S
C1643 C1644 1.403 . S
C1644 C1643 1.403 . S
C1644 C1645 1.404 . S
C1644 C1647 1.539 . S
C1645 C1641 1.408 . S
C1645 C1644 1.404 . S
C1645 H1657 0.930 . S
C1646 C1642 1.524 . S
C1646 H1658 0.956 . S
C1646 H1659 0.961 . S
C1646 H1660 0.961 . S
C1647 C1644 1.539 . S
C1647 H1661 0.958 . S
C1647 H1662 0.961 . S
C1647 H1663 0.960 . S
H1648 C1632 0.931 . S
H1649 C1637 0.929 . S
H1650 C1638 0.960 . S
H1651 C1638 0.962 . S
H1652 C1638 0.960 . S
H1653 C1639 0.961 . S
H1654 C1639 0.961 . S
H1655 C1639 0.961 . S
H1656 C1640 0.931 . S
H1657 C1645 0.930 . S
H1658 C1646 0.956 . S
H1659 C1646 0.961 . S
H1660 C1646 0.961 . S
H1661 C1647 0.958 . S
H1662 C1647 0.961 . S
H1663 C1647 0.960 . S
C1664 C1665 1.391 . S
C1664 C1666 1.394 . S
C1664 H1680 0.931 . S
C1665 C1664 1.391 . S
C1665 C1669 1.376 . S
C1666 C1664 1.394 . S
C1666 C1667 1.369 . S
C1666 C1670 1.531 . S
C1667 C1666 1.369 . S
C1667 C1668 1.410 . S
C1667 C1675 1.503 . S
C1668 C1667 1.410 . S
C1668 C1669 1.392 . S
C1668 C1671 1.511 . S
C1669 C1665 1.376 . S
C1669 C1668 1.392 . S
C1669 H1681 0.929 . S
C1670 C1666 1.531 . S
C1670 H1682 0.960 . S
C1670 H1683 0.962 . S
C1670 H1684 0.960 . S
C1671 C1668 1.511 . S
C1671 H1685 0.961 . S
C1671 H1686 0.961 . S
C1671 H1687 0.961 . S
C1672 C1673 1.370 . S
C1672 C1674 1.363 . S
C1672 H1688 0.931 . S
C1673 C1672 1.370 . S
C1673 C1677 1.408 . S
C1674 C1672 1.363 . S
C1674 C1675 1.370 . S
C1674 C1678 1.524 . S
C1675 C1667 1.503 . S
C1675 C1674 1.370 . S
C1675 C1676 1.403 . S
C1676 C1675 1.403 . S
C1676 C1677 1.404 . S
C1676 C1679 1.539 . S
C1677 C1673 1.408 . S
C1677 C1676 1.404 . S
C1677 H1689 0.930 . S
C1678 C1674 1.524 . S
C1678 H1690 0.956 . S
C1678 H1691 0.961 . S
C1678 H1692 0.961 . S
C1679 C1676 1.539 . S
C1679 H1693 0.958 . S
C1679 H1694 0.961 . S
C1679 H1695 0.960 . S
H1680 C1664 0.931 . S
H1681 C1669 0.929 . S
H1682 C1670 0.960 . S
H1683 C1670 0.962 . S
H1684 C1670 0.960 . S
H1685 C1671 0.961 . S
H1686 C1671 0.961 . S
H1687 C1671 0.961 . S
H1688 C1672 0.931 . S
H1689 C1677 0.930 . S
H1690 C1678 0.956 . S
H1691 C1678 0.961 . S
H1692 C1678 0.961 . S
H1693 C1679 0.958 . S
H1694 C1679 0.961 . S
H1695 C1679 0.960 . S
C1696 C1697 1.391 . S
C1696 C1698 1.394 . S
C1696 H1712 0.931 . S
C1697 C1696 1.391 . S
C1697 C1701 1.376 . S
C1698 C1696 1.394 . S
C1698 C1699 1.369 . S
C1698 C1702 1.531 . S
C1699 C1698 1.369 . S
C1699 C1700 1.410 . S
C1699 C1707 1.503 . S
C1700 C1699 1.410 . S
C1700 C1701 1.392 . S
C1700 C1703 1.511 . S
C1701 C1697 1.376 . S
C1701 C1700 1.392 . S
C1701 H1713 0.929 . S
C1702 C1698 1.531 . S
C1702 H1714 0.960 . S
C1702 H1715 0.962 . S
C1702 H1716 0.960 . S
C1703 C1700 1.511 . S
C1703 H1717 0.961 . S
C1703 H1718 0.961 . S
C1703 H1719 0.961 . S
C1704 C1705 1.370 . S
C1704 C1706 1.363 . S
C1704 H1720 0.931 . S
C1705 C1704 1.370 . S
C1705 C1709 1.408 . S
C1706 C1704 1.363 . S
C1706 C1707 1.370 . S
C1706 C1710 1.524 . S
C1707 C1699 1.503 . S
C1707 C1706 1.370 . S
C1707 C1708 1.403 . S
C1708 C1707 1.403 . S
C1708 C1709 1.404 . S
C1708 C1711 1.539 . S
C1709 C1705 1.408 . S
C1709 C1708 1.404 . S
C1709 H1721 0.930 . S
C1710 C1706 1.524 . S
C1710 H1722 0.956 . S
C1710 H1723 0.961 . S
C1710 H1724 0.961 . S
C1711 C1708 1.539 . S
C1711 H1725 0.958 . S
C1711 H1726 0.961 . S
C1711 H1727 0.960 . S
H1712 C1696 0.931 . S
H1713 C1701 0.929 . S
H1714 C1702 0.960 . S
H1715 C1702 0.962 . S
H1716 C1702 0.960 . S
H1717 C1703 0.961 . S
H1718 C1703 0.961 . S
H1719 C1703 0.961 . S
H1720 C1704 0.931 . S
H1721 C1709 0.930 . S
H1722 C1710 0.956 . S
H1723 C1710 0.961 . S
H1724 C1710 0.961 . S
H1725 C1711 0.958 . S
H1726 C1711 0.961 . S
H1727 C1711 0.960 . S
C1728 C1729 1.391 . S
C1728 C1730 1.394 . S
C1728 H1744 0.931 . S
C1729 C1728 1.391 . S
C1729 C1733 1.376 . S
C1730 C1728 1.394 . S
C1730 C1731 1.369 . S
C1730 C1734 1.531 . S
C1731 C1730 1.369 . S
C1731 C1732 1.410 . S
C1731 C1739 1.503 . S
C1732 C1731 1.410 . S
C1732 C1733 1.392 . S
C1732 C1735 1.511 . S
C1733 C1729 1.376 . S
C1733 C1732 1.392 . S
C1733 H1745 0.929 . S
C1734 C1730 1.531 . S
C1734 H1746 0.960 . S
C1734 H1747 0.962 . S
C1734 H1748 0.960 . S
C1735 C1732 1.511 . S
C1735 H1749 0.961 . S
C1735 H1750 0.961 . S
C1735 H1751 0.961 . S
C1736 C1737 1.370 . S
C1736 C1738 1.363 . S
C1736 H1752 0.931 . S
C1737 C1736 1.370 . S
C1737 C1741 1.408 . S
C1738 C1736 1.363 . S
C1738 C1739 1.370 . S
C1738 C1742 1.524 . S
C1739 C1731 1.503 . S
C1739 C1738 1.370 . S
C1739 C1740 1.403 . S
C1740 C1739 1.403 . S
C1740 C1741 1.404 . S
C1740 C1743 1.539 . S
C1741 C1737 1.408 . S
C1741 C1740 1.404 . S
C1741 H1753 0.930 . S
C1742 C1738 1.524 . S
C1742 H1754 0.956 . S
C1742 H1755 0.961 . S
C1742 H1756 0.961 . S
C1743 C1740 1.539 . S
C1743 H1757 0.958 . S
C1743 H1758 0.961 . S
C1743 H1759 0.960 . S
H1744 C1728 0.931 . S
H1745 C1733 0.929 . S
H1746 C1734 0.960 . S
H1747 C1734 0.962 . S
H1748 C1734 0.960 . S
H1749 C1735 0.961 . S
H1750 C1735 0.961 . S
H1751 C1735 0.961 . S
H1752 C1736 0.931 . S
H1753 C1741 0.930 . S
H1754 C1742 0.956 . S
H1755 C1742 0.961 . S
H1756 C1742 0.961 . S
H1757 C1743 0.958 . S
H1758 C1743 0.961 . S
H1759 C1743 0.960 . S
C1760 C1761 1.391 . S
C1760 C1762 1.394 . S
C1760 H1776 0.931 . S
C1761 C1760 1.391 . S
C1761 C1765 1.376 . S
C1762 C1760 1.394 . S
C1762 C1763 1.369 . S
C1762 C1766 1.531 . S
C1763 C1762 1.369 . S
C1763 C1764 1.410 . S
C1763 C1771 1.503 . S
C1764 C1763 1.410 . S
C1764 C1765 1.392 . S
C1764 C1767 1.511 . S
C1765 C1761 1.376 . S
C1765 C1764 1.392 . S
C1765 H1777 0.929 . S
C1766 C1762 1.531 . S
C1766 H1778 0.960 . S
C1766 H1779 0.962 . S
C1766 H1780 0.960 . S
C1767 C1764 1.511 . S
C1767 H1781 0.961 . S
C1767 H1782 0.961 . S
C1767 H1783 0.961 . S
C1768 C1769 1.370 . S
C1768 C1770 1.363 . S
C1768 H1784 0.931 . S
C1769 C1768 1.370 . S
C1769 C1773 1.408 . S
C1770 C1768 1.363 . S
C1770 C1771 1.370 . S
C1770 C1774 1.524 . S
C1771 C1763 1.503 . S
C1771 C1770 1.370 . S
C1771 C1772 1.403 . S
C1772 C1771 1.403 . S
C1772 C1773 1.404 . S
C1772 C1775 1.539 . S
C1773 C1769 1.408 . S
C1773 C1772 1.404 . S
C1773 H1785 0.930 . S
C1774 C1770 1.524 . S
C1774 H1786 0.956 . S
C1774 H1787 0.961 . S
C1774 H1788 0.961 . S
C1775 C1772 1.539 . S
C1775 H1789 0.958 . S
C1775 H1790 0.961 . S
C1775 H1791 0.960 . S
H1776 C1760 0.931 . S
H1777 C1765 0.929 . S
H1778 C1766 0.960 . S
H1779 C1766 0.962 . S
H1780 C1766 0.960 . S
H1781 C1767 0.961 . S
H1782 C1767 0.961 . S
H1783 C1767 0.961 . S
H1784 C1768 0.931 . S
H1785 C1773 0.930 . S
H1786 C1774 0.956 . S
H1787 C1774 0.961 . S
H1788 C1774 0.961 . S
H1789 C1775 0.958 . S
H1790 C1775 0.961 . S
H1791 C1775 0.960 . S
C1792 C1793 1.391 . S
C1792 C1794 1.394 . S
C1792 H1808 0.931 . S
C1793 C1792 1.391 . S
C1793 C1797 1.376 . S
C1794 C1792 1.394 . S
C1794 C1795 1.369 . S
C1794 C1798 1.531 . S
C1795 C1794 1.369 . S
C1795 C1796 1.410 . S
C1795 C1803 1.503 . S
C1796 C1795 1.410 . S
C1796 C1797 1.392 . S
C1796 C1799 1.511 . S
C1797 C1793 1.376 . S
C1797 C1796 1.392 . S
C1797 H1809 0.929 . S
C1798 C1794 1.531 . S
C1798 H1810 0.960 . S
C1798 H1811 0.962 . S
C1798 H1812 0.960 . S
C1799 C1796 1.511 . S
C1799 H1813 0.961 . S
C1799 H1814 0.961 . S
C1799 H1815 0.961 . S
C1800 C1801 1.370 . S
C1800 C1802 1.363 . S
C1800 H1816 0.931 . S
C1801 C1800 1.370 . S
C1801 C1805 1.408 . S
C1802 C1800 1.363 . S
C1802 C1803 1.370 . S
C1802 C1806 1.524 . S
C1803 C1795 1.503 . S
C1803 C1802 1.370 . S
C1803 C1804 1.403 . S
C1804 C1803 1.403 . S
C1804 C1805 1.404 . S
C1804 C1807 1.539 . S
C1805 C1801 1.408 . S
C1805 C1804 1.404 . S
C1805 H1817 0.930 . S
C1806 C1802 1.524 . S
C1806 H1818 0.956 . S
C1806 H1819 0.961 . S
C1806 H1820 0.961 . S
C1807 C1804 1.539 . S
C1807 H1821 0.958 . S
C1807 H1822 0.961 . S
C1807 H1823 0.960 . S
H1808 C1792 0.931 . S
H1809 C1797 0.929 . S
H1810 C1798 0.960 . S
H1811 C1798 0.962 . S
H1812 C1798 0.960 . S
H1813 C1799 0.961 . S
H1814 C1799 0.961 . S
H1815 C1799 0.961 . S
H1816 C1800 0.931 . S
H1817 C1805 0.930 . S
H1818 C1806 0.956 . S
H1819 C1806 0.961 . S
H1820 C1806 0.961 . S
H1821 C1807 0.958 . S
H1822 C1807 0.961 . S
H1823 C1807 0.960 . S
C1824 C1825 1.391 . S
C1824 C1826 1.394 . S
C1824 H1840 0.931 . S
C1825 C1824 1.391 . S
C1825 C1829 1.376 . S
C1826 C1824 1.394 . S
C1826 C1827 1.369 . S
C1826 C1830 1.531 . S
C1827 C1826 1.369 . S
C1827 C1828 1.410 . S
C1827 C1835 1.503 . S
C1828 C1827 1.410 . S
C1828 C1829 1.392 . S
C1828 C1831 1.511 . S
C1829 C1825 1.376 . S
C1829 C1828 1.392 . S
C1829 H1841 0.929 . S
C1830 C1826 1.531 . S
C1830 H1842 0.960 . S
C1830 H1843 0.962 . S
C1830 H1844 0.960 . S
C1831 C1828 1.511 . S
C1831 H1845 0.961 . S
C1831 H1846 0.961 . S
C1831 H1847 0.961 . S
C1832 C1833 1.370 . S
C1832 C1834 1.363 . S
C1832 H1848 0.931 . S
C1833 C1832 1.370 . S
C1833 C1837 1.408 . S
C1834 C1832 1.363 . S
C1834 C1835 1.370 . S
C1834 C1838 1.524 . S
C1835 C1827 1.503 . S
C1835 C1834 1.370 . S
C1835 C1836 1.403 . S
C1836 C1835 1.403 . S
C1836 C1837 1.404 . S
C1836 C1839 1.539 . S
C1837 C1833 1.408 . S
C1837 C1836 1.404 . S
C1837 H1849 0.930 . S
C1838 C1834 1.524 . S
C1838 H1850 0.956 . S
C1838 H1851 0.961 . S
C1838 H1852 0.961 . S
C1839 C1836 1.539 . S
C1839 H1853 0.958 . S
C1839 H1854 0.961 . S
C1839 H1855 0.960 . S
H1840 C1824 0.931 . S
H1841 C1829 0.929 . S
H1842 C1830 0.960 . S
H1843 C1830 0.962 . S
H1844 C1830 0.960 . S
H1845 C1831 0.961 . S
H1846 C1831 0.961 . S
H1847 C1831 0.961 . S
H1848 C1832 0.931 . S
H1849 C1837 0.930 . S
H1850 C1838 0.956 . S
H1851 C1838 0.961 . S
H1852 C1838 0.961 . S
H1853 C1839 0.958 . S
H1854 C1839 0.961 . S
H1855 C1839 0.960 . S
C1856 C1857 1.391 . S
C1856 C1858 1.394 . S
C1856 H1872 0.931 . S
C1857 C1856 1.391 . S
C1857 C1861 1.376 . S
C1858 C1856 1.394 . S
C1858 C1859 1.369 . S
C1858 C1862 1.531 . S
C1859 C1858 1.369 . S
C1859 C1860 1.410 . S
C1859 C1867 1.503 . S
C1860 C1859 1.410 . S
C1860 C1861 1.392 . S
C1860 C1863 1.511 . S
C1861 C1857 1.376 . S
C1861 C1860 1.392 . S
C1861 H1873 0.929 . S
C1862 C1858 1.531 . S
C1862 H1874 0.960 . S
C1862 H1875 0.962 . S
C1862 H1876 0.960 . S
C1863 C1860 1.511 . S
C1863 H1877 0.961 . S
C1863 H1878 0.961 . S
C1863 H1879 0.961 . S
C1864 C1865 1.370 . S
C1864 C1866 1.363 . S
C1864 H1880 0.931 . S
C1865 C1864 1.370 . S
C1865 C1869 1.408 . S
C1866 C1864 1.363 . S
C1866 C1867 1.370 . S
C1866 C1870 1.524 . S
C1867 C1859 1.503 . S
C1867 C1866 1.370 . S
C1867 C1868 1.403 . S
C1868 C1867 1.403 . S
C1868 C1869 1.404 . S
C1868 C1871 1.539 . S
C1869 C1865 1.408 . S
C1869 C1868 1.404 . S
C1869 H1881 0.930 . S
C1870 C1866 1.524 . S
C1870 H1882 0.956 . S
C1870 H1883 0.961 . S
C1870 H1884 0.961 . S
C1871 C1868 1.539 . S
C1871 H1885 0.958 . S
C1871 H1886 0.961 . S
C1871 H1887 0.960 . S
H1872 C1856 0.931 . S
H1873 C1861 0.929 . S
H1874 C1862 0.960 . S
H1875 C1862 0.962 . S
H1876 C1862 0.960 . S
H1877 C1863 0.961 . S
H1878 C1863 0.961 . S
H1879 C1863 0.961 . S
H1880 C1864 0.931 . S
H1881 C1869 0.930 . S
H1882 C1870 0.956 . S
H1883 C1870 0.961 . S
H1884 C1870 0.961 . S
H1885 C1871 0.958 . S
H1886 C1871 0.961 . S
H1887 C1871 0.960 . S
C353 C21 0.947 . S
C361 C279 0.873 . S
C385 C307 0.847 . S
C393 C29 0.916 . S
C417 C323 0.851 . S
C425 C59 0.914 . S
C449 C345 0.907 . S
C457 C87 0.897 . S
C481 C103 0.840 . S
C489 C197 0.919 . S
C513 C219 0.868 . S
C521 C117 0.911 . S
C545 C147 0.923 . S
C553 C241 0.890 . S
C577 C263 0.846 . S
C585 C161 0.918 . S
C609 C65 1.577 . S
C617 C7 1.572 . S
C641 C37 1.577 . S
C649 C73 1.570 . S
C673 C95 1.562 . S
C681 C139 1.563 . S
C705 C175 1.562 . S
C713 C131 1.563 . S
C737 C183 1.558 . S
C745 C227 1.570 . S
C769 C249 1.567 . S
C777 C205 1.564 . S
C801 C315 1.547 . S
C809 C271 1.557 . S
C833 C337 1.571 . S
C841 C301 1.567 . S
C865 C10 1.788 . S
C873 C76 1.793 . S
C897 C62 1.779 . S
C905 C30 1.795 . S
C929 C164 1.824 . S
C937 C96 1.802 . S
C961 C140 1.788 . S
C969 C120 1.818 . S
C993 C252 1.761 . S
C1001 C186 1.803 . S
C1025 C230 1.766 . S
C1033 C208 1.800 . S
C1057 C272 1.786 . S
C1065 C338 1.819 . S
C1089 C316 1.782 . S
C1097 C304 1.820 . S
C1121 C18 1.455 . S
C1129 C150 1.447 . S
C1153 C32 1.440 . S
C1161 C162 1.441 . S
C1185 C106 1.432 . S
C1193 C52 1.438 . S
C1217 C118 1.452 . S
C1225 C84 1.446 . S
C1249 C194 1.416 . S
C1257 C326 1.431 . S
C1281 C216 1.429 . S
C1289 C348 1.437 . S
C1313 C282 1.455 . S
C1321 C238 1.448 . S
C1345 C296 1.436 . S
C1353 C260 1.439 . S
C1377 C15 1.364 . S
C1385 C318 1.339 . S
C1409 C43 1.358 . S
C1417 C340 1.357 . S
C1441 C274 1.337 . S
C1449 C51 1.352 . S
C1473 C294 1.357 . S
C1481 C81 1.356 . S
C1505 C228 1.373 . S
C1513 C109 1.370 . S
C1537 C125 1.370 . S
C1545 C250 1.362 . S
C1569 C153 1.381 . S
C1577 C184 1.359 . S
C1601 C206 1.323 . S
C1609 C169 1.364 . S
C1633 C142 1.344 . S
C1641 C191 1.368 . S
C1665 C213 1.365 . S
C1673 C172 1.358 . S
C1697 C98 1.363 . S
C1705 C235 1.358 . S
C1729 C257 1.360 . S
C1737 C128 1.357 . S
C1761 C54 1.373 . S
C1769 C285 1.373 . S
C1793 C293 1.348 . S
C1801 C74 1.350 . S
C1825 C329 1.352 . S
C1833 C8 1.342 . S
C1857 C40 1.374 . S
C1865 C351 1.372 . S
