# Generated by pormake.
# Topology sxg, (6)-cn, num edge types: 1
# Building blocks:
#     Node 0, Type 0, BuildingBlock: IZENUY_clean_sbu_0, # of connection points: 6
#     Node 1, Type 0, BuildingBlock: IZENUY_clean_sbu_0, # of connection points: 6
#     Node 2, Type 0, BuildingBlock: IZENUY_clean_sbu_0, # of connection points: 6
#     Node 3, Type 0, BuildingBlock: IZENUY_clean_sbu_0, # of connection points: 6
#     Node 4, Type 0, BuildingBlock: IZENUY_clean_sbu_0, # of connection points: 6
#     Node 5, Type 0, BuildingBlock: IZENUY_clean_sbu_0, # of connection points: 6
#     Node 6, Type 0, BuildingBlock: IZENUY_clean_sbu_0, # of connection points: 6
#     Node 7, Type 0, BuildingBlock: IZENUY_clean_sbu_0, # of connection points: 6
#     Node 8, Type 0, BuildingBlock: IZENUY_clean_sbu_0, # of connection points: 6
#     Node 9, Type 0, BuildingBlock: IZENUY_clean_sbu_0, # of connection points: 6
#     Node 10, Type 0, BuildingBlock: IZENUY_clean_sbu_0, # of connection points: 6
#     Node 11, Type 0, BuildingBlock: IZENUY_clean_sbu_0, # of connection points: 6
#     Node 12, Type 0, BuildingBlock: IZENUY_clean_sbu_0, # of connection points: 6
#     Node 13, Type 0, BuildingBlock: IZENUY_clean_sbu_0, # of connection points: 6
#     Node 14, Type 0, BuildingBlock: IZENUY_clean_sbu_0, # of connection points: 6
#     Node 15, Type 0, BuildingBlock: IZENUY_clean_sbu_0, # of connection points: 6
#     Node 16, Type 0, BuildingBlock: IZENUY_clean_sbu_0, # of connection points: 6
#     Node 17, Type 0, BuildingBlock: IZENUY_clean_sbu_0, # of connection points: 6
#     Node 18, Type 0, BuildingBlock: IZENUY_clean_sbu_0, # of connection points: 6
#     Node 19, Type 0, BuildingBlock: IZENUY_clean_sbu_0, # of connection points: 6
#     Node 20, Type 0, BuildingBlock: IZENUY_clean_sbu_0, # of connection points: 6
#     Node 21, Type 0, BuildingBlock: IZENUY_clean_sbu_0, # of connection points: 6
#     Node 22, Type 0, BuildingBlock: IZENUY_clean_sbu_0, # of connection points: 6
#     Node 23, Type 0, BuildingBlock: IZENUY_clean_sbu_0, # of connection points: 6
#     Edge 24, Type (0, 0), BuildingBlock: KIFKEQ_clean_linker_1, # of connection points: 2
#     Edge 25, Type (0, 0), BuildingBlock: KIFKEQ_clean_linker_1, # of connection points: 2
#     Edge 26, Type (0, 0), BuildingBlock: KIFKEQ_clean_linker_1, # of connection points: 2
#     Edge 27, Type (0, 0), BuildingBlock: KIFKEQ_clean_linker_1, # of connection points: 2
#     Edge 28, Type (0, 0), BuildingBlock: KIFKEQ_clean_linker_1, # of connection points: 2
#     Edge 29, Type (0, 0), BuildingBlock: KIFKEQ_clean_linker_1, # of connection points: 2
#     Edge 30, Type (0, 0), BuildingBlock: KIFKEQ_clean_linker_1, # of connection points: 2
#     Edge 31, Type (0, 0), BuildingBlock: KIFKEQ_clean_linker_1, # of connection points: 2
#     Edge 32, Type (0, 0), BuildingBlock: KIFKEQ_clean_linker_1, # of connection points: 2
#     Edge 33, Type (0, 0), BuildingBlock: KIFKEQ_clean_linker_1, # of connection points: 2
#     Edge 34, Type (0, 0), BuildingBlock: KIFKEQ_clean_linker_1, # of connection points: 2
#     Edge 35, Type (0, 0), BuildingBlock: KIFKEQ_clean_linker_1, # of connection points: 2
#     Edge 36, Type (0, 0), BuildingBlock: KIFKEQ_clean_linker_1, # of connection points: 2
#     Edge 37, Type (0, 0), BuildingBlock: KIFKEQ_clean_linker_1, # of connection points: 2
#     Edge 38, Type (0, 0), BuildingBlock: KIFKEQ_clean_linker_1, # of connection points: 2
#     Edge 39, Type (0, 0), BuildingBlock: KIFKEQ_clean_linker_1, # of connection points: 2
#     Edge 40, Type (0, 0), BuildingBlock: KIFKEQ_clean_linker_1, # of connection points: 2
#     Edge 41, Type (0, 0), BuildingBlock: KIFKEQ_clean_linker_1, # of connection points: 2
#     Edge 42, Type (0, 0), BuildingBlock: KIFKEQ_clean_linker_1, # of connection points: 2
#     Edge 43, Type (0, 0), BuildingBlock: KIFKEQ_clean_linker_1, # of connection points: 2
#     Edge 44, Type (0, 0), BuildingBlock: KIFKEQ_clean_linker_1, # of connection points: 2
#     Edge 45, Type (0, 0), BuildingBlock: KIFKEQ_clean_linker_1, # of connection points: 2
#     Edge 46, Type (0, 0), BuildingBlock: KIFKEQ_clean_linker_1, # of connection points: 2
#     Edge 47, Type (0, 0), BuildingBlock: KIFKEQ_clean_linker_1, # of connection points: 2
#     Edge 48, Type (0, 0), BuildingBlock: KIFKEQ_clean_linker_1, # of connection points: 2
#     Edge 49, Type (0, 0), BuildingBlock: KIFKEQ_clean_linker_1, # of connection points: 2
#     Edge 50, Type (0, 0), BuildingBlock: KIFKEQ_clean_linker_1, # of connection points: 2
#     Edge 51, Type (0, 0), BuildingBlock: KIFKEQ_clean_linker_1, # of connection points: 2
#     Edge 52, Type (0, 0), BuildingBlock: KIFKEQ_clean_linker_1, # of connection points: 2
#     Edge 53, Type (0, 0), BuildingBlock: KIFKEQ_clean_linker_1, # of connection points: 2
#     Edge 54, Type (0, 0), BuildingBlock: KIFKEQ_clean_linker_1, # of connection points: 2
#     Edge 55, Type (0, 0), BuildingBlock: KIFKEQ_clean_linker_1, # of connection points: 2
#     Edge 56, Type (0, 0), BuildingBlock: KIFKEQ_clean_linker_1, # of connection points: 2
#     Edge 57, Type (0, 0), BuildingBlock: KIFKEQ_clean_linker_1, # of connection points: 2
#     Edge 58, Type (0, 0), BuildingBlock: KIFKEQ_clean_linker_1, # of connection points: 2
#     Edge 59, Type (0, 0), BuildingBlock: KIFKEQ_clean_linker_1, # of connection points: 2
#     Edge 60, Type (0, 0), BuildingBlock: KIFKEQ_clean_linker_1, # of connection points: 2
#     Edge 61, Type (0, 0), BuildingBlock: KIFKEQ_clean_linker_1, # of connection points: 2
#     Edge 62, Type (0, 0), BuildingBlock: KIFKEQ_clean_linker_1, # of connection points: 2
#     Edge 63, Type (0, 0), BuildingBlock: KIFKEQ_clean_linker_1, # of connection points: 2
#     Edge 64, Type (0, 0), BuildingBlock: KIFKEQ_clean_linker_1, # of connection points: 2
#     Edge 65, Type (0, 0), BuildingBlock: KIFKEQ_clean_linker_1, # of connection points: 2
#     Edge 66, Type (0, 0), BuildingBlock: KIFKEQ_clean_linker_1, # of connection points: 2
#     Edge 67, Type (0, 0), BuildingBlock: KIFKEQ_clean_linker_1, # of connection points: 2
#     Edge 68, Type (0, 0), BuildingBlock: KIFKEQ_clean_linker_1, # of connection points: 2
#     Edge 69, Type (0, 0), BuildingBlock: KIFKEQ_clean_linker_1, # of connection points: 2
#     Edge 70, Type (0, 0), BuildingBlock: KIFKEQ_clean_linker_1, # of connection points: 2
#     Edge 71, Type (0, 0), BuildingBlock: KIFKEQ_clean_linker_1, # of connection points: 2
#     Edge 72, Type (0, 0), BuildingBlock: KIFKEQ_clean_linker_1, # of connection points: 2
#     Edge 73, Type (0, 0), BuildingBlock: KIFKEQ_clean_linker_1, # of connection points: 2
#     Edge 74, Type (0, 0), BuildingBlock: KIFKEQ_clean_linker_1, # of connection points: 2
#     Edge 75, Type (0, 0), BuildingBlock: KIFKEQ_clean_linker_1, # of connection points: 2
#     Edge 76, Type (0, 0), BuildingBlock: KIFKEQ_clean_linker_1, # of connection points: 2
#     Edge 77, Type (0, 0), BuildingBlock: KIFKEQ_clean_linker_1, # of connection points: 2
#     Edge 78, Type (0, 0), BuildingBlock: KIFKEQ_clean_linker_1, # of connection points: 2
#     Edge 79, Type (0, 0), BuildingBlock: KIFKEQ_clean_linker_1, # of connection points: 2
#     Edge 80, Type (0, 0), BuildingBlock: KIFKEQ_clean_linker_1, # of connection points: 2
#     Edge 81, Type (0, 0), BuildingBlock: KIFKEQ_clean_linker_1, # of connection points: 2
#     Edge 82, Type (0, 0), BuildingBlock: KIFKEQ_clean_linker_1, # of connection points: 2
#     Edge 83, Type (0, 0), BuildingBlock: KIFKEQ_clean_linker_1, # of connection points: 2
#     Edge 84, Type (0, 0), BuildingBlock: KIFKEQ_clean_linker_1, # of connection points: 2
#     Edge 85, Type (0, 0), BuildingBlock: KIFKEQ_clean_linker_1, # of connection points: 2
#     Edge 86, Type (0, 0), BuildingBlock: KIFKEQ_clean_linker_1, # of connection points: 2
#     Edge 87, Type (0, 0), BuildingBlock: KIFKEQ_clean_linker_1, # of connection points: 2
#     Edge 88, Type (0, 0), BuildingBlock: KIFKEQ_clean_linker_1, # of connection points: 2
#     Edge 89, Type (0, 0), BuildingBlock: KIFKEQ_clean_linker_1, # of connection points: 2
#     Edge 90, Type (0, 0), BuildingBlock: KIFKEQ_clean_linker_1, # of connection points: 2
#     Edge 91, Type (0, 0), BuildingBlock: KIFKEQ_clean_linker_1, # of connection points: 2
#     Edge 92, Type (0, 0), BuildingBlock: KIFKEQ_clean_linker_1, # of connection points: 2
#     Edge 93, Type (0, 0), BuildingBlock: KIFKEQ_clean_linker_1, # of connection points: 2
#     Edge 94, Type (0, 0), BuildingBlock: KIFKEQ_clean_linker_1, # of connection points: 2
#     Edge 95, Type (0, 0), BuildingBlock: KIFKEQ_clean_linker_1, # of connection points: 2
# Relax obj value: 0.224
# Max RMSD: 0.255
# Mean RMSD: 0.255
data_MOF--net-sxg--node1-IZENUY_clean_sbu_0--edge1-KIFKEQ_clean_linker_1
_symmetry_space_group_name_H-M    P1
_symmetry_Int_Tables_number       1
_symmetry_cell_setting            triclinic
loop_
_symmetry_equiv_pos_as_xyz
'x, y, z'
_cell_length_a     45.492615
_cell_length_b     45.523876
_cell_length_c     45.47273
_cell_angle_alpha  90.01213
_cell_angle_beta   90.021869
_cell_angle_gamma 90.002634
loop_
_atom_site_label
_atom_site_type_symbol
_atom_site_fract_x
_atom_site_fract_y
_atom_site_fract_z
_atom_type_partial_charge
Fe0 Fe 0.07476 0.36975 0.18526 0.0
Fe1 Fe 0.0588 0.35397 0.24895 0.0
O2 O 0.06597 0.34315 0.21229 0.0
Fe3 Fe 0.06513 0.30554 0.20278 0.0
O4 O 0.03616 0.31158 0.17644 0.0
O5 O 0.05726 0.34922 0.15465 0.0
O6 O 0.04009 0.38806 0.19018 0.0
C7 C 0.03063 0.3978 0.21428 0.0
C8 C 0.11473 0.32701 0.1724 0.0
O9 O 0.04158 0.3894 0.23861 0.0
C10 C 0.09191 0.30116 0.25558 0.0
O11 O 0.09384 0.39477 0.211 0.0
O12 O 0.09508 0.36991 0.25236 0.0
O13 O 0.09424 0.30821 0.17451 0.0
O14 O 0.11016 0.35339 0.179 0.0
C15 C 0.01763 0.31132 0.24381 0.0
O16 O 0.0742 0.32012 0.26585 0.0
O17 O 0.09416 0.29748 0.22833 0.0
C18 C 0.10601 0.38893 0.23545 0.0
O19 O 0.02225 0.33833 0.24773 0.0
O20 O 0.03622 0.29575 0.2299 0.0
C21 C 0.03802 0.32891 0.15493 0.0
Fe22 Fe 0.44298 0.64394 0.68681 0.0
Fe23 Fe 0.4576 0.65974 0.75093 0.0
O24 O 0.44993 0.67053 0.7143 0.0
Fe25 Fe 0.44898 0.70818 0.70494 0.0
O26 O 0.47911 0.70385 0.67931 0.0
O27 O 0.45938 0.66591 0.65678 0.0
O28 O 0.47885 0.62827 0.69178 0.0
C29 C 0.48972 0.61942 0.71562 0.0
C30 C 0.40132 0.68437 0.67314 0.0
O31 O 0.47788 0.62594 0.74014 0.0
C32 C 0.4198 0.70949 0.75686 0.0
O33 O 0.42537 0.61721 0.71179 0.0
O34 O 0.42294 0.64052 0.75403 0.0
O35 O 0.42102 0.70394 0.67578 0.0
O36 O 0.4066 0.65823 0.68029 0.0
C37 C 0.49545 0.70558 0.74714 0.0
O38 O 0.43875 0.69202 0.76782 0.0
O39 O 0.41889 0.7141 0.72962 0.0
C40 C 0.41353 0.62102 0.73677 0.0
O41 O 0.49279 0.67828 0.75053 0.0
O42 O 0.47612 0.71989 0.73303 0.0
C43 C 0.47815 0.68661 0.6576 0.0
Fe44 Fe 0.56082 0.15952 0.76588 0.0
Fe45 Fe 0.56222 0.20622 0.81432 0.0
O46 O 0.56476 0.16909 0.80338 0.0
Fe47 Fe 0.57176 0.14169 0.83014 0.0
O48 O 0.53776 0.12365 0.82202 0.0
O49 O 0.54244 0.12384 0.77372 0.0
O50 O 0.52444 0.17516 0.76418 0.0
C51 C 0.51902 0.20189 0.76861 0.0
C52 C 0.6064 0.12346 0.78171 0.0
O53 O 0.53576 0.21705 0.78507 0.0
C54 C 0.6096 0.18417 0.84806 0.0
O55 O 0.57818 0.19383 0.75165 0.0
O56 O 0.59314 0.21575 0.79203 0.0
O57 O 0.59272 0.11727 0.80522 0.0
O58 O 0.59713 0.14342 0.76496 0.0
C59 C 0.53209 0.18072 0.85891 0.0
O60 O 0.58893 0.2027 0.84492 0.0
O61 O 0.6064 0.1581 0.8396 0.0
C62 C 0.59469 0.21228 0.76469 0.0
O63 O 0.53106 0.19844 0.83765 0.0
O64 O 0.55204 0.16116 0.86007 0.0
C65 C 0.53008 0.11451 0.79707 0.0
Fe66 Fe 0.95713 0.85761 0.26643 0.0
Fe67 Fe 0.9507 0.80762 0.31105 0.0
O68 O 0.95004 0.8455 0.30273 0.0
Fe69 Fe 0.94177 0.87108 0.33081 0.0
O70 O 0.97673 0.88869 0.3264 0.0
O71 O 0.97552 0.89228 0.27815 0.0
O72 O 0.99327 0.841 0.2665 0.0
C73 C 0.99752 0.81382 0.26951 0.0
C74 C 0.91084 0.8933 0.28156 0.0
O75 O 0.97884 0.79813 0.28309 0.0
C76 C 0.90189 0.82849 0.34325 0.0
O77 O 0.94034 0.82476 0.24857 0.0
O78 O 0.9211 0.80087 0.28588 0.0
O79 O 0.92305 0.89752 0.3063 0.0
O80 O 0.92125 0.87474 0.26382 0.0
C81 C 0.97853 0.82914 0.35922 0.0
O82 O 0.92227 0.80973 0.33999 0.0
O83 O 0.90614 0.85497 0.33679 0.0
C84 C 0.92218 0.80609 0.25879 0.0
O85 O 0.98029 0.81258 0.33707 0.0
O86 O 0.95909 0.84919 0.36043 0.0
C87 C 0.98664 0.89936 0.3029 0.0
Fe88 Fe 0.20718 0.06326 0.3104 0.0
Fe89 Fe 0.18937 0.07389 0.37441 0.0
O90 O 0.21671 0.06519 0.3481 0.0
Fe91 Fe 0.2535 0.05891 0.35916 0.0
O92 O 0.2532 0.02249 0.34363 0.0
O93 O 0.23511 0.03508 0.3008 0.0
O94 O 0.18168 0.03361 0.31708 0.0
C95 C 0.15992 0.03567 0.3341 0.0
C96 C 0.25902 0.09237 0.30641 0.0
O97 O 0.15927 0.05533 0.35402 0.0
C98 C 0.23917 0.10575 0.39436 0.0
O99 O 0.17796 0.09139 0.31259 0.0
O100 O 0.18241 0.1088 0.35726 0.0
O101 O 0.27002 0.07494 0.3253 0.0
O102 O 0.2318 0.09291 0.30181 0.0
C103 C 0.21911 0.03058 0.40328 0.0
O104 O 0.21435 0.09403 0.39928 0.0
O105 O 0.2564 0.09506 0.37549 0.0
C106 C 0.17514 0.11226 0.33087 0.0
O107 O 0.19491 0.03976 0.39351 0.0
O108 O 0.24336 0.0414 0.39453 0.0
C109 C 0.24962 0.0173 0.3167 0.0
Fe110 Fe 0.26565 0.95477 0.85508 0.0
Fe111 Fe 0.30786 0.95083 0.80257 0.0
O112 O 0.30148 0.94913 0.84096 0.0
Fe113 Fe 0.331 0.94115 0.86524 0.0
O114 O 0.31674 0.96378 0.89552 0.0
O115 O 0.2782 0.98594 0.8767 0.0
O116 O 0.25504 0.98122 0.82663 0.0
C117 C 0.26983 0.99675 0.8089 0.0
C118 C 0.28707 0.90751 0.88925 0.0
O119 O 0.29501 0.98872 0.80022 0.0
C120 C 0.34005 0.90233 0.81847 0.0
O121 O 0.2507 0.92407 0.83388 0.0
O122 O 0.27168 0.93718 0.79229 0.0
O123 O 0.31269 0.90824 0.8787 0.0
O124 O 0.26989 0.92921 0.8861 0.0
C125 C 0.3582 0.97844 0.82672 0.0
O126 O 0.31996 0.9128 0.80249 0.0
O127 O 0.35068 0.91716 0.83941 0.0
C128 C 0.25321 0.922 0.80629 0.0
O129 O 0.34557 0.96502 0.80583 0.0
O130 O 0.35116 0.97336 0.85309 0.0
C131 C 0.29923 0.98541 0.89482 0.0
Fe132 Fe 0.75242 0.44926 0.65712 0.0
Fe133 Fe 0.71135 0.45316 0.71039 0.0
O134 O 0.71649 0.44762 0.67212 0.0
Fe135 Fe 0.68592 0.43985 0.64893 0.0
O136 O 0.70095 0.4599 0.61733 0.0
O137 O 0.74195 0.47989 0.63363 0.0
O138 O 0.76606 0.47611 0.68368 0.0
C139 C 0.75386 0.494 0.70113 0.0
C140 C 0.72712 0.40204 0.62623 0.0
O141 O 0.72757 0.48997 0.70933 0.0
C142 C 0.67559 0.40552 0.69904 0.0
O143 O 0.76494 0.41874 0.68008 0.0
O144 O 0.74646 0.43699 0.72094 0.0
O145 O 0.70172 0.40512 0.6368 0.0
O146 O 0.74582 0.42246 0.62789 0.0
C147 C 0.66164 0.48149 0.68526 0.0
O148 O 0.69607 0.41659 0.71408 0.0
O149 O 0.66568 0.41856 0.67659 0.0
C150 C 0.76284 0.41888 0.70779 0.0
O151 O 0.67492 0.47014 0.70691 0.0
O152 O 0.66755 0.47371 0.65928 0.0
C153 C 0.72023 0.48 0.61626 0.0
Fe154 Fe 0.81367 0.56662 0.20577 0.0
Fe155 Fe 0.8327 0.57478 0.14172 0.0
O156 O 0.80487 0.56757 0.16793 0.0
Fe157 Fe 0.76816 0.56197 0.15636 0.0
O158 O 0.76728 0.52577 0.17249 0.0
O159 O 0.78496 0.53904 0.2154 0.0
O160 O 0.83896 0.53647 0.20062 0.0
C161 C 0.86068 0.53733 0.18343 0.0
C162 C 0.76225 0.59646 0.20833 0.0
O163 O 0.86203 0.55629 0.16295 0.0
C164 C 0.78437 0.60779 0.12089 0.0
O165 O 0.84328 0.59437 0.20326 0.0
O166 O 0.84045 0.6101 0.15774 0.0
O167 O 0.7513 0.57878 0.18966 0.0
O168 O 0.78944 0.59687 0.21298 0.0
C169 C 0.80247 0.53137 0.11378 0.0
O170 O 0.80835 0.59451 0.11574 0.0
O171 O 0.76676 0.59808 0.1399 0.0
C172 C 0.84714 0.61441 0.1842 0.0
O173 O 0.82655 0.54005 0.1242 0.0
O174 O 0.77846 0.54371 0.1212 0.0
C175 C 0.77021 0.5212 0.19965 0.0
Fe176 Fe 0.30529 0.20398 0.06276 0.0
Fe177 Fe 0.36867 0.18328 0.07483 0.0
O178 O 0.34322 0.21193 0.06707 0.0
Fe179 Fe 0.35579 0.24874 0.06388 0.0
O180 O 0.32752 0.26005 0.03763 0.0
O181 O 0.30417 0.21955 0.02563 0.0
O182 O 0.31092 0.16774 0.04616 0.0
C183 C 0.3331 0.15588 0.03428 0.0
C184 C 0.30562 0.25595 0.09623 0.0
O185 O 0.35881 0.16344 0.04149 0.0
C186 C 0.38959 0.2268 0.11097 0.0
O187 O 0.3034 0.18882 0.09962 0.0
O188 O 0.3432 0.16165 0.0973 0.0
O189 O 0.333 0.26059 0.0948 0.0
O190 O 0.29293 0.23843 0.07886 0.0
C191 C 0.3975 0.21807 0.03261 0.0
O192 O 0.38048 0.20075 0.10888 0.0
O193 O 0.38622 0.24472 0.09 0.0
C194 C 0.32016 0.16968 0.11061 0.0
O195 O 0.39857 0.20001 0.05376 0.0
O196 O 0.37891 0.23878 0.03259 0.0
C197 C 0.31097 0.24598 0.02034 0.0
Fe198 Fe 0.86851 0.32926 0.94062 0.0
Fe199 Fe 0.85376 0.26558 0.95639 0.0
O200 O 0.8422 0.30183 0.94867 0.0
Fe201 Fe 0.8044 0.31062 0.94833 0.0
O202 O 0.80902 0.33763 0.97711 0.0
O203 O 0.84659 0.35968 0.9563 0.0
O204 O 0.8849 0.32529 0.97628 0.0
C205 C 0.89546 0.30175 0.9862 0.0
C206 C 0.82727 0.34049 0.89882 0.0
O207 O 0.88852 0.27714 0.97475 0.0
C208 C 0.80238 0.25757 0.92141 0.0
O209 O 0.89518 0.30393 0.92327 0.0
O210 O 0.87091 0.2624 0.92063 0.0
O211 O 0.80758 0.33827 0.91856 0.0
O212 O 0.8536 0.33448 0.9045 0.0
C213 C 0.80972 0.26976 0.99625 0.0
O214 O 0.82082 0.24765 0.93992 0.0
O215 O 0.7977 0.28464 0.91946 0.0
C216 C 0.89025 0.27953 0.9107 0.0
O217 O 0.83694 0.26658 0.99225 0.0
O218 O 0.79427 0.28369 0.9775 0.0
C219 C 0.82592 0.35946 0.97509 0.0
Fe220 Fe 0.64594 0.68135 0.44204 0.0
Fe221 Fe 0.66173 0.74515 0.45742 0.0
O222 O 0.67252 0.70854 0.45019 0.0
Fe223 Fe 0.71013 0.69908 0.45061 0.0
O224 O 0.7044 0.6735 0.48045 0.0
O225 O 0.66695 0.65115 0.45947 0.0
O226 O 0.62851 0.6865 0.47707 0.0
C227 C 0.61886 0.71042 0.48702 0.0
C228 C 0.68803 0.66748 0.40197 0.0
O229 O 0.62674 0.73478 0.47574 0.0
C230 C 0.71288 0.75107 0.42184 0.0
O231 O 0.62036 0.70671 0.42315 0.0
O232 O 0.64479 0.74824 0.42166 0.0
O233 O 0.70694 0.67004 0.42234 0.0
O234 O 0.66175 0.67469 0.40637 0.0
C235 C 0.70569 0.74115 0.49721 0.0
O236 O 0.69498 0.76185 0.44043 0.0
O237 O 0.71742 0.72386 0.42079 0.0
C238 C 0.62588 0.73115 0.41091 0.0
O239 O 0.67846 0.74446 0.49354 0.0
O240 O 0.72073 0.72703 0.47839 0.0
C241 C 0.68703 0.65195 0.47896 0.0
Fe242 Fe 0.16077 0.7657 0.55938 0.0
Fe243 Fe 0.20967 0.8109 0.56915 0.0
O244 O 0.17187 0.80204 0.56768 0.0
Fe245 Fe 0.1452 0.82932 0.57516 0.0
O246 O 0.12935 0.82504 0.5393 0.0
O247 O 0.12636 0.77689 0.54037 0.0
O248 O 0.1785 0.76712 0.52384 0.0
C249 C 0.20578 0.77083 0.52063 0.0
C250 C 0.12341 0.77924 0.60467 0.0
O251 O 0.22064 0.78405 0.54033 0.0
C252 C 0.18564 0.8413 0.61774 0.0
O253 O 0.19333 0.74792 0.57656 0.0
O254 O 0.21545 0.78485 0.59821 0.0
O255 O 0.1186 0.80382 0.59238 0.0
O256 O 0.14277 0.76215 0.59468 0.0
C257 C 0.18846 0.85942 0.54133 0.0
O258 O 0.20574 0.83867 0.59855 0.0
O259 O 0.15944 0.83515 0.61159 0.0
C260 C 0.21082 0.75777 0.59598 0.0
O261 O 0.20595 0.83797 0.54035 0.0
O262 O 0.16705 0.85968 0.55929 0.0
C263 C 0.11936 0.80145 0.52898 0.0
Fe264 Fe 0.94442 0.64483 0.83428 0.0
Fe265 Fe 0.95499 0.65914 0.76933 0.0
O266 O 0.95084 0.67088 0.80615 0.0
Fe267 Fe 0.95271 0.70854 0.81494 0.0
O268 O 0.98369 0.70264 0.83924 0.0
O269 O 0.96309 0.66627 0.86333 0.0
O270 O 0.97938 0.62778 0.82724 0.0
C271 C 0.98727 0.61765 0.80274 0.0
C272 C 0.9052 0.68737 0.84911 0.0
O273 O 0.97319 0.62391 0.77936 0.0
C274 C 0.921 0.71138 0.76446 0.0
O275 O 0.92436 0.61866 0.8104 0.0
O276 O 0.91862 0.64318 0.76933 0.0
O277 O 0.92554 0.70617 0.84521 0.0
O278 O 0.90921 0.66082 0.84257 0.0
C279 C 0.99657 0.7018 0.77008 0.0
O280 O 0.93798 0.69244 0.75293 0.0
O281 O 0.9219 0.71646 0.79158 0.0
C282 C 0.90977 0.62405 0.78721 0.0
O283 O 0.99134 0.6748 0.76703 0.0
O284 O 0.97957 0.71779 0.7855 0.0
C285 C 0.98276 0.68596 0.86134 0.0
Fe286 Fe 0.5661 0.30897 0.30997 0.0
Fe287 Fe 0.57485 0.3731 0.3282 0.0
O288 O 0.56658 0.34669 0.30081 0.0
Fe289 Fe 0.55933 0.3579 0.2643 0.0
O290 O 0.5233 0.3414 0.26496 0.0
O291 O 0.53744 0.29884 0.28259 0.0
O292 O 0.53687 0.31446 0.33628 0.0
C293 C 0.53885 0.33146 0.35807 0.0
C294 C 0.59388 0.30599 0.25736 0.0
O295 O 0.55799 0.35182 0.35851 0.0
C296 C 0.60548 0.39409 0.27836 0.0
O297 O 0.59503 0.31191 0.33844 0.0
O298 O 0.61059 0.35736 0.33438 0.0
O299 O 0.57581 0.32463 0.247 0.0
O300 O 0.59541 0.30147 0.28455 0.0
C301 C 0.52979 0.40046 0.29977 0.0
O302 O 0.59321 0.39912 0.30291 0.0
O303 O 0.59523 0.37486 0.26126 0.0
C304 C 0.61516 0.33104 0.34135 0.0
O305 O 0.53972 0.39048 0.32358 0.0
O306 O 0.54094 0.3928 0.27522 0.0
C307 C 0.51899 0.31429 0.26836 0.0
Fe308 Fe 0.45482 0.85391 0.25366 0.0
Fe309 Fe 0.45483 0.80268 0.20969 0.0
O310 O 0.45101 0.84083 0.21719 0.0
Fe311 Fe 0.44285 0.86577 0.18822 0.0
O312 O 0.4641 0.89624 0.20383 0.0
O313 O 0.48543 0.87745 0.24288 0.0
O314 O 0.48225 0.82658 0.26409 0.0
C315 C 0.49927 0.81021 0.24939 0.0
C316 C 0.4071 0.8871 0.23189 0.0
O317 O 0.4925 0.80176 0.22371 0.0
C318 C 0.40591 0.81789 0.17737 0.0
O319 O 0.42458 0.83077 0.26669 0.0
O320 O 0.4407 0.79064 0.2451 0.0
O321 O 0.40912 0.878 0.20582 0.0
O322 O 0.42797 0.88366 0.24993 0.0
C323 C 0.48213 0.8295 0.16051 0.0
O324 O 0.41713 0.80103 0.19635 0.0
O325 O 0.42018 0.83966 0.16769 0.0
C326 C 0.42388 0.80324 0.26314 0.0
O327 O 0.46983 0.80765 0.17253 0.0
O328 O 0.4758 0.85535 0.16829 0.0
C329 C 0.48514 0.89583 0.22205 0.0
Fe330 Fe 0.07482 0.14531 0.68527 0.0
Fe331 Fe 0.05954 0.15878 0.74964 0.0
O332 O 0.0663 0.17086 0.71328 0.0
Fe333 Fe 0.06499 0.20871 0.70475 0.0
O334 O 0.0353 0.20313 0.6789 0.0
O335 O 0.05715 0.16687 0.65562 0.0
O336 O 0.04008 0.1272 0.68984 0.0
C337 C 0.03031 0.11666 0.71347 0.0
C338 C 0.11413 0.18841 0.67277 0.0
O339 O 0.04144 0.12397 0.73813 0.0
C340 C 0.09401 0.21069 0.75681 0.0
O341 O 0.09397 0.11919 0.70967 0.0
O342 O 0.09542 0.1419 0.75223 0.0
O343 O 0.09334 0.2068 0.67563 0.0
O344 O 0.11023 0.1619 0.67932 0.0
C345 C 0.0188 0.2021 0.74702 0.0
O346 O 0.0762 0.19181 0.76727 0.0
O347 O 0.09462 0.21605 0.72971 0.0
C348 C 0.10589 0.1234 0.73452 0.0
O349 O 0.02333 0.17496 0.74966 0.0
O350 O 0.03693 0.21799 0.73294 0.0
C351 C 0.03731 0.18652 0.65679 0.0
Fe352 Fe 0.83077 0.94021 0.64321 0.0
Fe353 Fe 0.76634 0.95534 0.65687 0.0
O354 O 0.80274 0.94847 0.66886 0.0
Fe355 Fe 0.81124 0.94943 0.70679 0.0
O356 O 0.83704 0.9792 0.70156 0.0
O357 O 0.86033 0.9579 0.66493 0.0
O358 O 0.82603 0.97499 0.62524 0.0
C359 C 0.80234 0.98478 0.61482 0.0
C360 C 0.84352 0.90069 0.68613 0.0
O361 O 0.77774 0.97369 0.62222 0.0
C362 C 0.75923 0.92041 0.70845 0.0
O363 O 0.80642 0.92103 0.61696 0.0
O364 O 0.76375 0.91969 0.63952 0.0
O365 O 0.84039 0.92125 0.70472 0.0
O366 O 0.83702 0.90475 0.6596 0.0
C367 C 0.76888 0.99558 0.70074 0.0
O368 O 0.74878 0.93838 0.68973 0.0
O369 O 0.78632 0.9197 0.71378 0.0
C370 C 0.78139 0.90936 0.62085 0.0
O371 O 0.76621 0.9914 0.6735 0.0
O372 O 0.78304 0.97729 0.71637 0.0
C373 C 0.85917 0.9774 0.68496 0.0
Fe374 Fe 0.68296 0.07357 0.1472 0.0
Fe375 Fe 0.74892 0.06445 0.15952 0.0
O376 O 0.71215 0.06679 0.1724 0.0
Fe377 Fe 0.70485 0.06267 0.2105 0.0
O378 O 0.66881 0.04545 0.20564 0.0
O379 O 0.66376 0.04006 0.15789 0.0
O380 O 0.69974 0.05229 0.11727 0.0
C381 C 0.71912 0.03228 0.11797 0.0
C382 C 0.66952 0.10978 0.19563 0.0
O383 O 0.73958 0.03281 0.13682 0.0
C384 C 0.75596 0.09735 0.20924 0.0
O385 O 0.69953 0.10775 0.13458 0.0
O386 O 0.74402 0.0901 0.12885 0.0
O387 O 0.68902 0.0992 0.21227 0.0
O388 O 0.66137 0.09617 0.17274 0.0
C389 C 0.74764 0.02113 0.20456 0.0
O390 O 0.76019 0.09586 0.18181 0.0
O391 O 0.7392 0.07952 0.22229 0.0
C392 C 0.72546 0.11044 0.12526 0.0
O393 O 0.76118 0.03876 0.18792 0.0
O394 O 0.72114 0.02586 0.21161 0.0
C395 C 0.65666 0.03317 0.18386 0.0
Fe396 Fe 0.30577 0.56317 0.30412 0.0
Fe397 Fe 0.32792 0.57529 0.36696 0.0
O398 O 0.29875 0.56706 0.34237 0.0
Fe399 Fe 0.26247 0.5633 0.35585 0.0
O400 O 0.25167 0.53601 0.32846 0.0
O401 O 0.29191 0.52541 0.30361 0.0
O402 O 0.34311 0.54849 0.30861 0.0
C403 C 0.35545 0.53606 0.33024 0.0
C404 C 0.25252 0.59425 0.30526 0.0
O405 O 0.34789 0.54226 0.35625 0.0
C406 C 0.28451 0.61074 0.38959 0.0
O407 O 0.3189 0.60089 0.30218 0.0
O408 O 0.348 0.59804 0.34057 0.0
O409 O 0.24937 0.59371 0.33289 0.0
O410 O 0.27011 0.57708 0.2925 0.0
C411 C 0.29417 0.53324 0.39766 0.0
O412 O 0.31025 0.60906 0.37943 0.0
O413 O 0.26659 0.5898 0.38595 0.0
C414 C 0.33802 0.61221 0.31882 0.0
O415 O 0.31271 0.55399 0.39767 0.0
O416 O 0.27343 0.53268 0.37916 0.0
C417 C 0.26631 0.51868 0.31235 0.0
Fe418 Fe 0.24938 0.4559 0.85817 0.0
Fe419 Fe 0.18486 0.44189 0.87282 0.0
O420 O 0.2128 0.44923 0.84673 0.0
Fe421 Fe 0.20407 0.44941 0.80891 0.0
O422 O 0.22841 0.41906 0.80243 0.0
O423 O 0.26639 0.43819 0.82535 0.0
O424 O 0.25159 0.42035 0.87588 0.0
C425 C 0.23391 0.41032 0.89468 0.0
C426 C 0.24694 0.49521 0.8136 0.0
O427 O 0.20934 0.42281 0.89908 0.0
C428 C 0.15698 0.47884 0.83065 0.0
O429 O 0.23864 0.47502 0.89266 0.0
O430 O 0.19029 0.47688 0.89026 0.0
O431 O 0.23274 0.47651 0.7985 0.0
O432 O 0.24973 0.49176 0.84093 0.0
C433 C 0.17094 0.40173 0.83083 0.0
O434 O 0.15534 0.45967 0.85096 0.0
O435 O 0.17899 0.47978 0.81382 0.0
C436 C 0.21424 0.48642 0.90031 0.0
O437 O 0.17784 0.40623 0.85718 0.0
O438 O 0.17438 0.42179 0.81176 0.0
C439 C 0.25562 0.41989 0.8071 0.0
Fe440 Fe 0.64528 0.83333 0.94213 0.0
Fe441 Fe 0.66056 0.76906 0.95579 0.0
O442 O 0.67174 0.80567 0.94895 0.0
Fe443 Fe 0.7095 0.81472 0.94875 0.0
O444 O 0.70495 0.8402 0.97888 0.0
O445 O 0.66698 0.86303 0.95948 0.0
O446 O 0.62907 0.82776 0.97767 0.0
C447 C 0.61976 0.80376 0.98768 0.0
C448 C 0.68642 0.8472 0.90107 0.0
O449 O 0.62618 0.7796 0.97517 0.0
C450 C 0.7116 0.7629 0.9197 0.0
O451 O 0.61882 0.80864 0.92357 0.0
O452 O 0.64239 0.7666 0.92055 0.0
O453 O 0.70593 0.84397 0.92079 0.0
O454 O 0.66013 0.84046 0.90613 0.0
C455 C 0.70532 0.77216 0.99496 0.0
O456 O 0.69335 0.75216 0.93798 0.0
O457 O 0.71595 0.79012 0.91857 0.0
C458 C 0.6229 0.78392 0.91126 0.0
O459 O 0.67806 0.76908 0.9914 0.0
O460 O 0.72034 0.78649 0.97626 0.0
C461 C 0.68765 0.86183 0.97829 0.0
Fe462 Fe 0.15107 0.68929 0.07539 0.0
Fe463 Fe 0.16342 0.75415 0.06162 0.0
O464 O 0.17623 0.71774 0.06664 0.0
Fe465 Fe 0.21436 0.7098 0.06349 0.0
O466 O 0.20931 0.67215 0.04977 0.0
O467 O 0.16169 0.66834 0.04301 0.0
O468 O 0.12098 0.70437 0.05326 0.0
C469 C 0.12152 0.72221 0.03191 0.0
C470 C 0.19856 0.67922 0.11324 0.0
O471 O 0.14005 0.74286 0.03114 0.0
C472 C 0.21389 0.76408 0.09277 0.0
O473 O 0.13863 0.70811 0.1085 0.0
O474 O 0.13309 0.7514 0.08809 0.0
O475 O 0.21562 0.69776 0.10164 0.0
O476 O 0.17678 0.66932 0.09906 0.0
C477 C 0.20737 0.7479 0.01761 0.0
O478 O 0.18637 0.76777 0.09179 0.0
O479 O 0.2265 0.74559 0.07647 0.0
C480 C 0.12892 0.73405 0.10943 0.0
O481 O 0.19122 0.76346 0.03411 0.0
O482 O 0.21562 0.72246 0.02536 0.0
C483 C 0.18757 0.66017 0.03719 0.0
Fe484 Fe 0.30839 0.31584 0.565 0.0
Fe485 Fe 0.37241 0.33437 0.57395 0.0
O486 O 0.34613 0.3069 0.56576 0.0
Fe487 Fe 0.35747 0.27035 0.55889 0.0
O488 O 0.3416 0.27091 0.52237 0.0
O489 O 0.29881 0.28817 0.53646 0.0
O490 O 0.31379 0.34187 0.53564 0.0
C491 C 0.33092 0.36357 0.53704 0.0
C492 C 0.30474 0.26341 0.59231 0.0
O493 O 0.35143 0.36441 0.55608 0.0
C494 C 0.39272 0.28475 0.60558 0.0
O495 O 0.31086 0.34458 0.59365 0.0
O496 O 0.3563 0.34121 0.60942 0.0
O497 O 0.32382 0.25318 0.57464 0.0
O498 O 0.301 0.29062 0.59447 0.0
C499 C 0.40047 0.30531 0.52983 0.0
O500 O 0.39802 0.30921 0.59321 0.0
O501 O 0.37364 0.26759 0.59512 0.0
C502 C 0.32988 0.3479 0.61383 0.0
O503 O 0.39009 0.32914 0.53913 0.0
O504 O 0.39286 0.281 0.54139 0.0
C505 C 0.31445 0.27425 0.51792 0.0
Fe506 Fe 0.85589 0.24947 0.45619 0.0
Fe507 Fe 0.80633 0.20444 0.44857 0.0
O508 O 0.84419 0.21321 0.44834 0.0
Fe509 Fe 0.87015 0.18559 0.43976 0.0
O510 O 0.88751 0.1895 0.47505 0.0
O511 O 0.89038 0.23779 0.47467 0.0
O512 O 0.83892 0.24858 0.49203 0.0
C513 C 0.81175 0.2453 0.49611 0.0
C514 C 0.89237 0.23562 0.41029 0.0
O515 O 0.79629 0.23159 0.47731 0.0
C516 C 0.82791 0.17442 0.39892 0.0
O517 O 0.82314 0.2673 0.4393 0.0
O518 O 0.79941 0.23014 0.41953 0.0
O519 O 0.89651 0.21056 0.42172 0.0
O520 O 0.87354 0.25299 0.42075 0.0
C521 C 0.82823 0.15596 0.47551 0.0
O522 O 0.80902 0.17631 0.41938 0.0
O523 O 0.85439 0.18043 0.40385 0.0
C524 C 0.80477 0.25716 0.42079 0.0
O525 O 0.8114 0.17785 0.47762 0.0
O526 O 0.8484 0.1554 0.45617 0.0
C527 C 0.89765 0.21303 0.4855 0.0
H528 H 0.13275 0.43655 0.20924 0.0
H529 H 0.14071 0.37726 0.28299 0.0
H530 H 0.17613 0.46334 0.22636 0.0
H531 H 0.18423 0.40339 0.29952 0.0
H532 H 0.22912 0.48371 0.34208 0.0
H533 H 0.19316 0.4499 0.3219 0.0
H534 H 0.22959 0.46272 0.23508 0.0
H535 H 0.26568 0.49732 0.25566 0.0
C536 C 0.14381 0.4291 0.22897 0.0
C537 C 0.13283 0.40507 0.24502 0.0
C538 C 0.1689 0.44427 0.23862 0.0
C539 C 0.18366 0.43567 0.26446 0.0
C540 C 0.17318 0.41101 0.27985 0.0
C541 C 0.14812 0.396 0.27034 0.0
C542 C 0.22998 0.47871 0.31879 0.0
C543 C 0.25027 0.49303 0.30047 0.0
C544 C 0.20934 0.45926 0.30716 0.0
C545 C 0.20825 0.45365 0.27677 0.0
C546 C 0.22959 0.46681 0.25854 0.0
C547 C 0.25056 0.48624 0.27033 0.0
H548 H 0.26608 0.54796 0.83462 0.0
H549 H 0.27372 0.48995 0.76 0.0
H550 H 0.30449 0.57921 0.81438 0.0
H551 H 0.31341 0.5201 0.74043 0.0
H552 H 0.37407 0.59073 0.70256 0.0
H553 H 0.33114 0.56288 0.7188 0.0
H554 H 0.35479 0.58 0.80934 0.0
H555 H 0.39645 0.60894 0.79296 0.0
C556 C 0.27585 0.54205 0.81371 0.0
C557 C 0.26676 0.51656 0.79889 0.0
C558 C 0.29826 0.55974 0.80222 0.0
C559 C 0.31279 0.55205 0.77593 0.0
C560 C 0.30277 0.52709 0.76053 0.0
C561 C 0.2799 0.50972 0.77175 0.0
C562 C 0.37008 0.58837 0.72592 0.0
C563 C 0.3887 0.60208 0.74644 0.0
C564 C 0.34543 0.57233 0.73531 0.0
C565 C 0.339 0.56923 0.76551 0.0
C566 C 0.35821 0.58245 0.78592 0.0
C567 C 0.38246 0.59885 0.77653 0.0
H568 H 0.62556 0.06974 0.80215 0.0
H569 H 0.64724 0.13876 0.74075 0.0
H570 H 0.66752 0.04109 0.78452 0.0
H571 H 0.68953 0.1109 0.72401 0.0
H572 H 0.73646 0.03812 0.67361 0.0
H573 H 0.69915 0.06948 0.69498 0.0
H574 H 0.71997 0.03585 0.78138 0.0
H575 H 0.7569 1.00342 0.75964 0.0
C576 C 0.63944 0.07893 0.78513 0.0
C577 C 0.63271 0.10634 0.77255 0.0
C578 C 0.66366 0.06261 0.77514 0.0
C579 C 0.6819 0.07346 0.75255 0.0
C580 C 0.67568 0.10139 0.74087 0.0
C581 C 0.65139 0.11748 0.75058 0.0
C582 C 0.73344 0.0376 0.69723 0.0
C583 C 0.74974 0.01809 0.71482 0.0
C584 C 0.71202 0.05579 0.70959 0.0
C585 C 0.7063 0.05527 0.74001 0.0
C586 C 0.72339 0.03657 0.75783 0.0
C587 C 0.74486 0.01822 0.74539 0.0
H588 H 0.87841 0.88881 0.23092 0.0
H589 H 0.88317 0.93719 0.31253 0.0
H590 H 0.83562 0.91749 0.21629 0.0
H591 H 0.84003 0.96562 0.29801 0.0
H592 H 0.79161 0.03547 0.24116 0.0
H593 H 0.82882 1.00329 0.26218 0.0
H594 H 0.78357 0.9279 0.2263 0.0
H595 H 0.7462 0.96068 0.20492 0.0
C596 C 0.87032 0.90551 0.24583 0.0
C597 C 0.88459 0.91088 0.2728 0.0
C598 C 0.8455 0.92176 0.23754 0.0
C599 C 0.83424 0.9439 0.25594 0.0
C600 C 0.84823 0.94896 0.28312 0.0
C601 C 0.87302 0.93263 0.29147 0.0
C602 C 0.78925 0.01194 0.2384 0.0
C603 C 0.76594 1.00049 0.22169 0.0
C604 C 0.81057 0.99345 0.25049 0.0
C605 C 0.80937 0.96293 0.2459 0.0
C606 C 0.78533 0.95133 0.23004 0.0
C607 C 0.76373 0.96996 0.2181 0.0
H608 H 0.25876 0.25133 0.51844 0.0
H609 H 0.33848 0.25289 0.46718 0.0
H610 H 0.23982 0.2117 0.48818 0.0
H611 H 0.31882 0.2147 0.43531 0.0
H612 H 0.29525 0.12231 0.40757 0.0
H613 H 0.31144 0.16509 0.43498 0.0
H614 H 0.22093 0.19233 0.44559 0.0
H615 H 0.20486 0.14824 0.41965 0.0
C616 C 0.27192 0.2438 0.50014 0.0
C617 C 0.3003 0.25509 0.49551 0.0
C618 C 0.26098 0.22098 0.48256 0.0
C619 C 0.27789 0.20923 0.45938 0.0
C620 C 0.30543 0.22219 0.45349 0.0
C621 C 0.31662 0.2445 0.47152 0.0
C622 C 0.27881 0.1374 0.41589 0.0
C623 C 0.24877 0.13175 0.41161 0.0
C624 C 0.2881 0.16228 0.43139 0.0
C625 C 0.26765 0.18274 0.44249 0.0
C626 C 0.23748 0.17707 0.43795 0.0
C627 C 0.22818 0.15177 0.42297 0.0
H628 H 0.31377 0.85348 0.89476 0.0
H629 H 0.23742 0.90263 0.92249 0.0
H630 H 0.29543 0.81034 0.92119 0.0
H631 H 0.21964 0.86019 0.94928 0.0
H632 H 0.17823 0.77747 0.97541 0.0
H633 H 0.19863 0.81328 0.94127 0.0
H634 H 0.2863 0.79069 0.97011 0.0
H635 H 0.26557 0.7538 1.0035 0.0
C636 C 0.29323 0.85518 0.90668 0.0
C637 C 0.27707 0.88157 0.90645 0.0
C638 C 0.28272 0.83044 0.92184 0.0
C639 C 0.2558 0.83153 0.93708 0.0
C640 C 0.24002 0.85813 0.93717 0.0
C641 C 0.2504 0.88269 0.92199 0.0
C642 C 0.20191 0.77948 0.97365 0.0
C643 C 0.22034 0.7628 0.99188 0.0
C644 C 0.21364 0.80032 0.95444 0.0
C645 C 0.24411 0.80555 0.95347 0.0
C646 C 0.26274 0.78729 0.97021 0.0
C647 C 0.25093 0.76601 0.98922 0.0
H648 H 0.83828 0.28329 0.53401 0.0
H649 H 0.75299 0.24831 0.51115 0.0
H650 H 0.8156 0.31781 0.56703 0.0
H651 H 0.72998 0.28218 0.54603 0.0
H652 H 0.6987 0.37328 0.58142 0.0
H653 H 0.71749 0.33175 0.55273 0.0
H654 H 0.7928 0.32661 0.61069 0.0
H655 H 0.77499 0.36923 0.63745 0.0
C656 C 0.81462 0.28243 0.53655 0.0
C657 C 0.79752 0.26297 0.51969 0.0
C658 C 0.80148 0.30226 0.55587 0.0
C659 C 0.77076 0.303 0.55954 0.0
C660 C 0.75364 0.28269 0.54355 0.0
C661 C 0.76685 0.263 0.52376 0.0
C662 C 0.71913 0.36296 0.58797 0.0
C663 C 0.73568 0.37459 0.61126 0.0
C664 C 0.72989 0.33903 0.57169 0.0
C665 C 0.7571 0.32593 0.57887 0.0
C666 C 0.77239 0.33659 0.60363 0.0
C667 C 0.76208 0.36089 0.61923 0.0
H668 H 0.74589 0.65025 0.13742 0.0
H669 H 0.80426 0.62607 0.06662 0.0
H670 H 0.73041 0.69339 0.11022 0.0
H671 H 0.78765 0.6688 0.03845 0.0
H672 H 0.76413 0.75823 1.0002 0.0
H673 H 0.78597 0.72095 0.03228 0.0
H674 H 0.70052 0.70426 0.07032 0.0
H675 H 0.67927 0.74195 0.03954 0.0
C676 C 0.75525 0.65403 0.11584 0.0
C677 C 0.77598 0.63443 0.104 0.0
C678 C 0.74628 0.67881 0.10013 0.0
C679 C 0.75734 0.68454 0.0718 0.0
C680 C 0.77877 0.66535 0.06026 0.0
C681 C 0.78815 0.64069 0.07629 0.0
C682 C 0.75022 0.74707 0.01596 0.0
C683 C 0.71992 0.75317 0.01724 0.0
C684 C 0.76266 0.72538 0.0341 0.0
C685 C 0.74508 0.7093 0.05391 0.0
C686 C 0.71501 0.71631 0.05581 0.0
C687 C 0.70269 0.73796 0.03791 0.0
H688 H 0.38137 0.2779 0.13979 0.0
H689 H 0.43258 0.19832 0.14245 0.0
H690 H 0.40801 0.29684 0.18197 0.0
H691 H 0.46137 0.21812 0.18343 0.0
H692 H 0.50219 0.2559 0.26653 0.0
H693 H 0.4679 0.2329 0.23201 0.0
H694 H 0.45175 0.31776 0.19236 0.0
H695 H 0.4839 0.3405 0.22758 0.0
C696 C 0.39863 0.26458 0.14937 0.0
C697 C 0.40518 0.23685 0.13768 0.0
C698 C 0.4142 0.27551 0.17347 0.0
C699 C 0.43761 0.2595 0.18598 0.0
C700 C 0.44348 0.23117 0.17475 0.0
C701 C 0.42716 0.21982 0.15109 0.0
C702 C 0.49074 0.26962 0.2508 0.0
C703 C 0.49584 0.3001 0.25002 0.0
C704 C 0.47129 0.25639 0.2307 0.0
C705 C 0.45677 0.27328 0.20909 0.0
C706 C 0.46163 0.30382 0.2089 0.0
C707 C 0.48049 0.317 0.22917 0.0
H708 H 0.87603 0.23754 0.87059 0.0
H709 H 0.94336 0.30114 0.89124 0.0
H710 H 0.90376 0.22174 0.82785 0.0
H711 H 0.97204 0.28434 0.84898 0.0
H712 H 0.97674 0.17398 0.77908 0.0
H713 H 0.94535 0.19424 0.81686 0.0
H714 H 0.97719 0.28144 0.79685 0.0
H715 H 0.00989 0.26074 0.75951 0.0
C716 C 0.89698 0.24796 0.86617 0.0
C717 C 0.90766 0.27033 0.88462 0.0
C718 C 0.913 0.23882 0.84161 0.0
C719 C 0.94046 0.25142 0.83496 0.0
C720 C 0.95089 0.27428 0.85311 0.0
C721 C 0.93458 0.28375 0.87755 0.0
C722 C 0.97688 0.19755 0.78237 0.0
C723 C 0.99603 0.21566 0.76622 0.0
C724 C 0.95863 0.20928 0.80408 0.0
C725 C 0.95864 0.23959 0.81019 0.0
C726 C 0.97688 0.25795 0.79317 0.0
C727 C 0.99538 0.24612 0.77145 0.0
H728 H 0.53548 0.83896 0.28617 0.0
H729 H 0.51816 0.75281 0.2507 0.0
H730 H 0.56825 0.81783 0.32256 0.0
H731 H 0.55169 0.73124 0.28725 0.0
H732 H 0.57699 0.70614 0.38495 0.0
H733 H 0.55072 0.72343 0.34117 0.0
H734 H 0.61388 0.79357 0.33125 0.0
H735 H 0.6394 0.777 0.37502 0.0
C736 C 0.53949 0.8155 0.28562 0.0
C737 C 0.52448 0.79756 0.26549 0.0
C738 C 0.5583 0.80331 0.30652 0.0
C739 C 0.56255 0.77275 0.30803 0.0
C740 C 0.54866 0.75483 0.28689 0.0
C741 C 0.52988 0.76718 0.26566 0.0
C742 C 0.58521 0.72524 0.37337 0.0
C743 C 0.60994 0.74052 0.38392 0.0
C744 C 0.57035 0.73497 0.34809 0.0
C745 C 0.58003 0.76007 0.33276 0.0
C746 C 0.60542 0.77455 0.34277 0.0
C747 C 0.62006 0.76501 0.36799 0.0
H748 H 0.13723 0.73635 0.64394 0.0
H749 H 0.07075 0.80135 0.625 0.0
H750 H 0.10978 0.72046 0.68679 0.0
H751 H 0.04232 0.78448 0.66744 0.0
H752 H 1.00597 0.76046 0.7578 0.0
H753 H 0.03802 0.78104 0.71979 0.0
H754 H 0.06786 0.69355 0.69803 0.0
H755 H 0.03714 0.67341 0.73641 0.0
C756 C 0.1165 0.74706 0.64873 0.0
C757 C 0.106 0.76986 0.63072 0.0
C758 C 0.10065 0.73786 0.67337 0.0
C759 C 0.07351 0.75084 0.68059 0.0
C760 C 0.06323 0.77409 0.66286 0.0
C761 C 0.07939 0.78361 0.63832 0.0
C762 C 0.0199 0.74574 0.74531 0.0
C763 C 0.0189 0.71524 0.75026 0.0
C764 C 0.03801 0.7575 0.72321 0.0
C765 C 0.05554 0.73903 0.70554 0.0
C766 C 0.05515 0.70866 0.7113 0.0
C767 C 0.03728 0.69701 0.73336 0.0
H768 H 0.89419 0.56928 0.80712 0.0
H769 H 0.86554 0.63931 0.74979 0.0
H770 H 0.85286 0.53905 0.79039 0.0
H771 H 0.82412 0.60923 0.73349 0.0
H772 H 0.74081 0.54763 0.72719 0.0
H773 H 0.7757 0.58071 0.75248 0.0
H774 H 0.8456 0.51849 0.73723 0.0
H775 H 0.81173 0.4864 0.71171 0.0
C776 C 0.87887 0.57838 0.79133 0.0
C777 C 0.88343 0.60647 0.77942 0.0
C778 C 0.8552 0.56113 0.7818 0.0
C779 C 0.8353 0.57185 0.76065 0.0
C780 C 0.83894 0.60052 0.74998 0.0
C781 C 0.86286 0.61757 0.75909 0.0
C782 C 0.76362 0.54115 0.72937 0.0
C783 C 0.7735 0.51454 0.71719 0.0
C784 C 0.78352 0.55998 0.7438 0.0
C785 C 0.81328 0.55196 0.74702 0.0
C786 C 0.82277 0.52509 0.73545 0.0
C787 C 0.80329 0.50682 0.72055 0.0
H788 H 0.64504 0.37985 0.23577 0.0
H789 H 0.62569 0.44695 0.29999 0.0
H790 H 0.68783 0.4073 0.21966 0.0
H791 H 0.66798 0.47538 0.28289 0.0
H792 H 0.75759 0.51276 0.25847 0.0
H793 H 0.71994 0.48055 0.27941 0.0
H794 H 0.69939 0.4486 0.19227 0.0
H795 H 0.73746 0.47946 0.17182 0.0
C796 C 0.64975 0.40069 0.24627 0.0
C797 C 0.63163 0.41135 0.26893 0.0
C798 C 0.67434 0.41657 0.23693 0.0
C799 C 0.6814 0.44391 0.24961 0.0
C800 C 0.66357 0.45433 0.27273 0.0
C801 C 0.6391 0.43815 0.2824 0.0
C802 C 0.74546 0.49832 0.24393 0.0
C803 C 0.75068 0.49878 0.21342 0.0
C804 C 0.72355 0.48011 0.25588 0.0
C805 C 0.70628 0.46193 0.23763 0.0
C806 C 0.71233 0.46179 0.20727 0.0
C807 C 0.73422 0.47975 0.19542 0.0
H808 H 0.37866 0.87975 0.28339 0.0
H809 H 0.37527 0.92914 0.20261 0.0
H810 H 0.3363 0.90639 0.30186 0.0
H811 H 0.33411 0.95791 0.22188 0.0
H812 H 0.25092 0.99866 0.25886 0.0
H813 H 0.28542 0.96391 0.23663 0.0
H814 H 0.32596 0.95075 0.32171 0.0
H815 H 0.29077 0.98337 0.34375 0.0
C816 C 0.3689 0.89663 0.26971 0.0
C817 C 0.38042 0.90272 0.2418 0.0
C818 C 0.34468 0.91216 0.28036 0.0
C819 C 0.33193 0.93504 0.26381 0.0
C820 C 0.34299 0.94041 0.23532 0.0
C821 C 0.36677 0.92413 0.22428 0.0
C822 C 0.26685 0.98777 0.2728 0.0
C823 C 0.26794 0.99386 0.30312 0.0
C824 C 0.28692 0.96807 0.26002 0.0
C825 C 0.30877 0.95429 0.2772 0.0
C826 C 0.30923 0.96008 0.30761 0.0
C827 C 0.28899 0.97921 0.32036 0.0
H828 H 0.24365 0.99204 0.75593 0.0
H829 H 0.25737 0.05185 0.82802 0.0
H830 H 0.20545 0.02403 0.73622 0.0
H831 H 0.22037 0.08505 0.80766 0.0
H832 H 0.12641 0.11397 0.79012 0.0
H833 H 0.16947 0.08634 0.80515 0.0
H834 H 0.18893 0.06723 0.71404 0.0
H835 H 0.14477 0.09386 0.69919 0.0
C836 C 0.23934 0.01282 0.76676 0.0
C837 C 0.25373 0.01988 0.79311 0.0
C838 C 0.21733 0.03118 0.75556 0.0
C839 C 0.20933 0.05713 0.77045 0.0
C840 C 0.22528 0.06497 0.7959 0.0
C841 C 0.24692 0.0463 0.80734 0.0
C842 C 0.13982 0.1038 0.77328 0.0
C843 C 0.13198 0.10593 0.74346 0.0
C844 C 0.16485 0.08818 0.78187 0.0
C845 C 0.18312 0.07462 0.76087 0.0
C846 C 0.17532 0.07696 0.73095 0.0
C847 C 0.14997 0.09226 0.72238 0.0
H848 H 0.72543 0.89136 0.60917 0.0
H849 H 0.81607 0.86925 0.59203 0.0
H850 H 0.70953 0.84888 0.58118 0.0
H851 H 0.80028 0.82556 0.5651 0.0
H852 H 0.75935 0.76766 0.49207 0.0
H853 H 0.77885 0.80742 0.52218 0.0
H854 H 0.70501 0.79844 0.5814 0.0
H855 H 0.68484 0.75991 0.55019 0.0
C856 C 0.74202 0.87724 0.59956 0.0
C857 C 0.77203 0.88381 0.60276 0.0
C858 C 0.7329 0.85255 0.58371 0.0
C859 C 0.75352 0.83324 0.57101 0.0
C860 C 0.78364 0.83992 0.57416 0.0
C861 C 0.79276 0.865 0.58967 0.0
C862 C 0.74764 0.7738 0.51188 0.0
C863 C 0.72052 0.76065 0.51875 0.0
C864 C 0.75881 0.79671 0.52922 0.0
C865 C 0.74336 0.80676 0.55414 0.0
C866 C 0.71717 0.79214 0.56194 0.0
C867 C 0.70574 0.76968 0.54429 0.0
H868 H 0.83657 0.23109 0.03314 0.0
H869 H 0.75085 0.2656 0.01129 0.0
H870 H 0.81445 0.19536 0.06503 0.0
H871 H 0.72833 0.23058 0.04538 0.0
H872 H 0.69683 0.14002 0.08099 0.0
H873 H 0.71557 0.18155 0.05232 0.0
H874 H 0.79267 0.18434 0.10808 0.0
H875 H 0.77494 0.14162 0.13458 0.0
C876 C 0.8129 0.23161 0.03571 0.0
C877 C 0.79557 0.25137 0.01941 0.0
C878 C 0.80006 0.21104 0.05444 0.0
C879 C 0.76938 0.20981 0.05825 0.0
C880 C 0.75198 0.23036 0.04282 0.0
C881 C 0.76491 0.25077 0.02349 0.0
C882 C 0.71776 0.1497 0.08694 0.0
C883 C 0.73474 0.13735 0.10957 0.0
C884 C 0.72848 0.17369 0.07069 0.0
C885 C 0.75609 0.18629 0.07727 0.0
C886 C 0.77196 0.1748 0.10131 0.0
C887 C 0.7617 0.15038 0.11681 0.0
H888 H 0.18177 0.74973 0.46998 0.0
H889 H 0.26328 0.7521 0.51861 0.0
H890 H 0.20276 0.71387 0.43632 0.0
H891 H 0.28423 0.7156 0.48505 0.0
H892 H 0.31684 0.65968 0.40552 0.0
H893 H 0.30012 0.70212 0.43432 0.0
H894 H 0.21431 0.6624 0.44253 0.0
H895 H 0.23065 0.62065 0.41385 0.0
C896 C 0.20435 0.74291 0.47325 0.0
C897 C 0.22072 0.75363 0.49718 0.0
C898 C 0.21634 0.72215 0.45404 0.0
C899 C 0.24499 0.71132 0.4583 0.0
C900 C 0.26211 0.72346 0.48107 0.0
C901 C 0.25011 0.74443 0.50031 0.0
C902 C 0.29441 0.66007 0.4135 0.0
C903 C 0.27514 0.63664 0.40732 0.0
C904 C 0.28486 0.68436 0.43005 0.0
C905 C 0.25576 0.68588 0.44052 0.0
C906 C 0.23667 0.66237 0.43436 0.0
C907 C 0.24618 0.63819 0.41804 0.0
H908 H 0.27113 0.28694 0.03471 0.0
H909 H 0.313 0.24659 0.95994 0.0
H910 H 0.24995 0.32451 1.00306 0.0
H911 H 0.2913 0.28411 0.92764 0.0
H912 H 0.28532 0.37919 0.89146 0.0
H913 H 0.29972 0.336 0.91942 0.0
H914 H 0.2162 0.33731 0.96455 0.0
H915 H 0.20194 0.38104 0.93689 0.0
C916 C 0.27499 0.28566 0.01122 0.0
C917 C 0.29338 0.26374 0.99965 0.0
C918 C 0.26283 0.3072 0.99302 0.0
C919 C 0.26898 0.30758 0.96273 0.0
C920 C 0.28637 0.28473 0.95093 0.0
C921 C 0.29848 0.26299 0.96926 0.0
C922 C 0.26996 0.37036 0.90736 0.0
C923 C 0.24254 0.38394 0.91211 0.0
C924 C 0.27813 0.34528 0.92319 0.0
C925 C 0.25914 0.33296 0.94425 0.0
C926 C 0.23155 0.34631 0.94874 0.0
C927 C 0.22335 0.37144 0.93287 0.0
H928 H 0.54982 0.6868 0.76362 0.0
H929 H 0.48906 0.75871 0.77446 0.0
H930 H 0.58168 0.70786 0.80113 0.0
H931 H 0.51996 0.7791 0.81328 0.0
H932 H 0.59128 0.81818 0.87281 0.0
H933 H 0.56297 0.80199 0.83003 0.0
H934 H 0.58278 0.71163 0.85172 0.0
H935 H 0.612 0.72793 0.89319 0.0
C936 C 0.54346 0.70733 0.77388 0.0
C937 C 0.517 0.72111 0.76603 0.0
C938 C 0.56151 0.71926 0.79574 0.0
C939 C 0.55323 0.74494 0.81097 0.0
C940 C 0.52734 0.75947 0.80207 0.0
C941 C 0.50956 0.7478 0.77972 0.0
C942 C 0.58944 0.79487 0.86838 0.0
C943 C 0.60395 0.77437 0.88639 0.0
C944 C 0.57316 0.78552 0.84384 0.0
C945 C 0.57069 0.75541 0.83694 0.0
C946 C 0.58475 0.73502 0.85553 0.0
C947 C 0.60133 0.74436 0.87966 0.0
H948 H 0.04536 0.84013 0.24465 0.0
H949 H 1.00222 0.756 0.25262 0.0
H950 H 0.07899 0.81955 0.20851 0.0
H951 H 0.03559 0.73548 0.21584 0.0
H952 H 0.11463 0.70382 0.16006 0.0
H953 H 0.08581 0.72157 0.20196 0.0
H954 H 0.07388 0.80486 0.15809 0.0
H955 H 0.1028 0.78751 0.11683 0.0
C956 C 0.04325 0.81712 0.23894 0.0
C957 C 0.0209 0.79981 0.25143 0.0
C958 C 0.06242 0.80534 0.218 0.0
C959 C 0.0597 0.77596 0.20875 0.0
C960 C 0.03843 0.75816 0.22246 0.0
C961 C 0.01927 0.76994 0.24359 0.0
C962 C 0.10583 0.72592 0.1594 0.0
C963 C 0.11107 0.74419 0.13496 0.0
C964 C 0.08925 0.73607 0.18341 0.0
C965 C 0.07768 0.76477 0.1836 0.0
C966 C 0.0829 0.78287 0.15909 0.0
C967 C 0.09935 0.77278 0.1352 0.0
H968 H 0.51008 0.26104 0.75848 0.0
H969 H 0.47801 0.17508 0.73419 0.0
H970 H 0.47799 0.28324 0.72136 0.0
H971 H 0.44716 0.19686 0.69677 0.0
H972 H 0.37796 0.2419 0.64455 0.0
H973 H 0.40526 0.2248 0.68705 0.0
H974 H 0.47359 0.28821 0.66887 0.0
H975 H 0.44537 0.30624 0.62671 0.0
C976 C 0.49593 0.24691 0.74556 0.0
C977 C 0.4967 0.21624 0.7494 0.0
C978 C 0.47779 0.2596 0.72398 0.0
C979 C 0.45996 0.24193 0.7058 0.0
C980 C 0.46011 0.21137 0.71048 0.0
C981 C 0.47805 0.19877 0.73197 0.0
C982 C 0.39881 0.25227 0.64956 0.0
C983 C 0.40966 0.27518 0.63189 0.0
C984 C 0.41458 0.24236 0.67399 0.0
C985 C 0.44196 0.25474 0.68135 0.0
C986 C 0.4525 0.27824 0.66413 0.0
C987 C 0.43645 0.28846 0.63977 0.0
H988 H 0.91722 0.2014 0.36752 0.0
H989 H 0.90718 0.29155 0.39497 0.0
H990 H 0.94353 0.21758 0.32366 0.0
H991 H 0.93493 0.3078 0.35241 0.0
H992 H 0.96692 0.33549 0.2649 0.0
H993 H 0.93468 0.31564 0.30267 0.0
H994 H 0.98667 0.23609 0.30482 0.0
H995 H 0.01734 0.25525 0.2656 0.0
C996 C 0.92111 0.22467 0.3644 0.0
C997 C 0.91021 0.24519 0.38473 0.0
C998 C 0.93627 0.23403 0.33923 0.0
C999 C 0.9414 0.26415 0.33405 0.0
C1000 C 0.93084 0.28452 0.35488 0.0
C1001 C 0.91518 0.27519 0.37963 0.0
C1002 C 0.97097 0.31347 0.27299 0.0
C1003 C 0.99487 0.29707 0.26237 0.0
C1004 C 0.95274 0.30218 0.29505 0.0
C1005 C 0.95834 0.27444 0.30768 0.0
C1006 C 0.98133 0.25742 0.29579 0.0
C1007 C 0.99913 0.26847 0.27321 0.0
H1008 H 0.1517 0.12702 0.2774 0.0
H1009 H 0.16938 0.16196 0.36407 0.0
H1010 H 0.13069 0.1741 0.26291 0.0
H1011 H 0.148 0.20889 0.34957 0.0
H1012 H 0.13765 0.29719 0.29485 0.0
H1013 H 0.15773 0.25126 0.3153 0.0
H1014 H 0.08661 0.20274 0.27512 0.0
H1015 H 0.06751 0.24803 0.25433 0.0
C1016 C 0.15096 0.14464 0.2934 0.0
C1017 C 0.16195 0.1406 0.32194 0.0
C1018 C 0.13882 0.17159 0.28516 0.0
C1019 C 0.13749 0.19511 0.30523 0.0
C1020 C 0.14884 0.19122 0.33363 0.0
C1021 C 0.16087 0.16424 0.34193 0.0
C1022 C 0.12604 0.27672 0.29126 0.0
C1023 C 0.10085 0.27598 0.27354 0.0
C1024 C 0.1375 0.2505 0.30275 0.0
C1025 C 0.12393 0.22337 0.29638 0.0
C1026 C 0.09785 0.22316 0.27996 0.0
C1027 C 0.08659 0.24913 0.26851 0.0
H1028 H 0.30699 0.85576 0.80238 0.0
H1029 H 0.39555 0.88014 0.82545 0.0
H1030 H 0.32215 0.80501 0.7964 0.0
H1031 H 0.4117 0.82964 0.81716 0.0
H1032 H 0.43562 0.73533 0.80926 0.0
H1033 H 0.41383 0.78004 0.82985 0.0
H1034 H 0.34608 0.77692 0.76304 0.0
H1035 H 0.36666 0.73197 0.74419 0.0
C1036 C 0.32989 0.85025 0.80558 0.0
C1037 C 0.35019 0.87192 0.81371 0.0
C1038 C 0.3387 0.82109 0.80217 0.0
C1039 C 0.36836 0.81295 0.80581 0.0
C1040 C 0.38861 0.83474 0.81453 0.0
C1041 C 0.37952 0.86383 0.81885 0.0
C1042 C 0.4153 0.74362 0.8 0.0
C1043 C 0.40285 0.73028 0.7751 0.0
C1044 C 0.40312 0.7696 0.81135 0.0
C1045 C 0.37843 0.7827 0.79783 0.0
C1046 C 0.3648 0.76771 0.77445 0.0
C1047 C 0.3767 0.7418 0.76345 0.0
H1048 H 0.62219 0.38058 0.68567 0.0
H1049 H 0.70522 0.36287 0.72785 0.0
H1050 H 0.60586 0.3307 0.69692 0.0
H1051 H 0.69053 0.31261 0.73647 0.0
H1052 H 0.64215 0.24103 0.78502 0.0
H1053 H 0.66219 0.28638 0.76707 0.0
H1054 H 0.60747 0.28005 0.68939 0.0
H1055 H 0.58552 0.23495 0.70906 0.0
C1056 C 0.63702 0.36591 0.69714 0.0
C1057 C 0.66479 0.37577 0.70638 0.0
C1058 C 0.6279 0.33712 0.70318 0.0
C1059 C 0.64671 0.31732 0.71784 0.0
C1060 C 0.67491 0.32717 0.726 0.0
C1061 C 0.68352 0.35609 0.72091 0.0
C1062 C 0.63471 0.24897 0.76381 0.0
C1063 C 0.612 0.23458 0.74863 0.0
C1064 C 0.64645 0.2751 0.75327 0.0
C1065 C 0.63641 0.28741 0.72674 0.0
C1066 C 0.6153 0.2717 0.71025 0.0
C1067 C 0.60309 0.24552 0.72117 0.0
H1068 H 0.86739 0.65779 0.14784 0.0
H1069 H 0.85423 0.63681 0.2396 0.0
H1070 H 0.88342 0.70715 0.16138 0.0
H1071 H 0.87042 0.68613 0.25304 0.0
H1072 H 0.94301 0.77953 0.20888 0.0
H1073 H 0.92466 0.73321 0.18825 0.0
H1074 H 0.85019 0.73669 0.24702 0.0
H1075 H 0.86854 0.78257 0.26758 0.0
C1076 C 0.86816 0.6636 0.17093 0.0
C1077 C 0.8595 0.64332 0.19268 0.0
C1078 C 0.87739 0.69188 0.17862 0.0
C1079 C 0.87782 0.70063 0.20819 0.0
C1080 C 0.8698 0.68017 0.22998 0.0
C1081 C 0.86083 0.65181 0.22233 0.0
C1082 C 0.92212 0.77096 0.21646 0.0
C1083 C 0.90717 0.78455 0.2398 0.0
C1084 C 0.91177 0.74431 0.2049 0.0
C1085 C 0.88641 0.73098 0.21661 0.0
C1086 C 0.8702 0.74604 0.23811 0.0
C1087 C 0.88047 0.77251 0.24957 0.0
H1088 H 0.25488 0.14853 0.28802 0.0
H1089 H 0.30196 0.06779 0.27274 0.0
H1090 H 0.27302 0.16815 0.2416 0.0
H1091 H 0.31918 0.0867 0.22545 0.0
H1092 H 0.35597 0.1364 0.14577 0.0
H1093 H 0.34681 0.12024 0.19606 0.0
H1094 H 0.26002 0.15872 0.19227 0.0
H1095 H 0.26958 0.17571 0.14255 0.0
C1096 C 0.26989 0.13536 0.27503 0.0
C1097 C 0.27729 0.10683 0.28399 0.0
C1098 C 0.27985 0.14633 0.24816 0.0
C1099 C 0.29688 0.12872 0.22928 0.0
C1100 C 0.30616 0.10094 0.23937 0.0
C1101 C 0.29652 0.09013 0.26659 0.0
C1102 C 0.33484 0.14121 0.15561 0.0
C1103 C 0.31347 0.15731 0.14005 0.0
C1104 C 0.3296 0.13195 0.18451 0.0
C1105 C 0.30283 0.13846 0.19851 0.0
C1106 C 0.28124 0.15396 0.1826 0.0
C1107 C 0.28655 0.16341 0.15386 0.0
H1108 H 0.25675 0.86411 0.79368 0.0
H1109 H 0.20644 0.94236 0.77635 0.0
H1110 H 0.23743 0.84166 0.74867 0.0
H1111 H 0.18656 0.91994 0.73175 0.0
H1112 H 0.14725 0.86305 0.65835 0.0
H1113 H 0.15765 0.87804 0.70881 0.0
H1114 H 0.24942 0.85763 0.69597 0.0
H1115 H 0.23912 0.84264 0.64534 0.0
C1116 C 0.24045 0.87586 0.78098 0.0
C1117 C 0.23273 0.90469 0.78852 0.0
C1118 C 0.22973 0.86325 0.75505 0.0
C1119 C 0.2109 0.87928 0.73651 0.0
C1120 C 0.20094 0.90703 0.74567 0.0
C1121 C 0.212 0.91974 0.77135 0.0
C1122 C 0.16969 0.86183 0.66623 0.0
C1123 C 0.19245 0.85191 0.64774 0.0
C1124 C 0.17557 0.87034 0.69515 0.0
C1125 C 0.20424 0.8687 0.70639 0.0
C1126 C 0.227 0.85865 0.688 0.0
C1127 C 0.2212 0.85049 0.65891 0.0
H1128 H 0.80998 0.43757 0.73798 0.0
H1129 H 0.75628 0.36135 0.72173 0.0
H1130 H 0.8281 0.41553 0.78332 0.0
H1131 H 0.77373 0.33929 0.76781 0.0
H1132 H 0.77329 0.34228 0.87175 0.0
H1133 H 0.76291 0.35606 0.82067 0.0
H1134 H 0.85508 0.37376 0.80664 0.0
H1135 H 0.86547 0.3603 0.85733 0.0
C1136 C 0.80317 0.41544 0.74349 0.0
C1137 C 0.78198 0.40097 0.72642 0.0
C1138 C 0.81324 0.40294 0.76962 0.0
C1139 C 0.80186 0.37596 0.77937 0.0
C1140 C 0.78247 0.36036 0.76101 0.0
C1141 C 0.77279 0.37273 0.73454 0.0
C1142 C 0.79124 0.34934 0.8578 0.0
C1143 C 0.82011 0.35051 0.8687 0.0
C1144 C 0.7854 0.35677 0.82847 0.0
C1145 C 0.80828 0.36574 0.80965 0.0
C1146 C 0.83705 0.36696 0.82063 0.0
C1147 C 0.84291 0.35932 0.84973 0.0
H1148 H 0.71103 0.5772 0.23353 0.0
H1149 H 0.77365 0.64845 0.23446 0.0
H1150 H 0.69054 0.59481 0.2802 0.0
H1151 H 0.75321 0.66607 0.2807 0.0
H1152 H 0.6516 0.65094 0.35704 0.0
H1153 H 0.66534 0.63625 0.30727 0.0
H1154 H 0.75705 0.64386 0.33058 0.0
H1155 H 0.74342 0.65872 0.38029 0.0
C1156 C 0.71959 0.59726 0.24308 0.0
C1157 C 0.74395 0.61143 0.2305 0.0
C1158 C 0.70808 0.60719 0.26991 0.0
C1159 C 0.72083 0.63137 0.28444 0.0
C1160 C 0.74346 0.64694 0.27042 0.0
C1161 C 0.7549 0.63708 0.24377 0.0
C1162 C 0.67473 0.64927 0.35163 0.0
C1163 C 0.69646 0.65601 0.37267 0.0
C1164 C 0.68253 0.64082 0.32312 0.0
C1165 C 0.71222 0.63926 0.31492 0.0
C1166 C 0.73394 0.64539 0.33612 0.0
C1167 C 0.72616 0.6536 0.36469 0.0
H1168 H 0.28031 0.23633 0.14574 0.0
H1169 H 0.28527 0.31122 0.08805 0.0
H1170 H 0.23483 0.25539 0.16698 0.0
H1171 H 0.23945 0.33026 0.10873 0.0
H1172 H 0.16202 0.36288 0.1637 0.0
H1173 H 0.21201 0.34902 0.15086 0.0
H1174 H 0.18544 0.25805 0.14599 0.0
H1175 H 0.13535 0.27182 0.15943 0.0
C1176 C 0.27227 0.25758 0.13861 0.0
C1177 C 0.28646 0.27273 0.11583 0.0
C1178 C 0.24596 0.2682 0.15028 0.0
C1179 C 0.2332 0.29402 0.13912 0.0
C1180 C 0.24875 0.31038 0.11793 0.0
C1181 C 0.27515 0.29973 0.10629 0.0
C1182 C 0.16672 0.33989 0.15976 0.0
C1183 C 0.14455 0.31844 0.16245 0.0
C1184 C 0.19545 0.332 0.15241 0.0
C1185 C 0.20281 0.30245 0.14766 0.0
C1186 C 0.18062 0.28099 0.15009 0.0
C1187 C 0.15181 0.28889 0.15741 0.0
H1188 H 0.7752 0.20881 0.94393 0.0
H1189 H 0.77836 0.26534 0.8678 0.0
H1190 H 0.72814 0.18874 0.92681 0.0
H1191 H 0.7317 0.24539 0.85073 0.0
H1192 H 0.63186 0.23953 0.85533 0.0
H1193 H 0.68127 0.25281 0.87168 0.0
H1194 H 0.70147 0.16128 0.88619 0.0
H1195 H 0.65209 0.14794 0.87001 0.0
C1196 C 0.76647 0.216 0.92296 0.0
C1197 C 0.78034 0.2386 0.90717 0.0
C1198 C 0.7394 0.2048 0.91333 0.0
C1199 C 0.72591 0.21615 0.88787 0.0
C1200 C 0.74118 0.23683 0.87084 0.0
C1201 C 0.76809 0.24791 0.88037 0.0
C1202 C 0.64667 0.2223 0.86244 0.0
C1203 C 0.63805 0.19273 0.86134 0.0
C1204 C 0.67507 0.22984 0.87147 0.0
C1205 C 0.69536 0.208 0.87981 0.0
C1206 C 0.68635 0.17854 0.87988 0.0
C1207 C 0.65806 0.17097 0.87057 0.0
H1208 H 0.7367 0.74019 0.36866 0.0
H1209 H 0.73831 0.80244 0.4403 0.0
H1210 H 0.7815 0.76163 0.34874 0.0
H1211 H 0.78357 0.8239 0.42039 0.0
H1212 H 0.8812 0.77285 0.35217 0.0
H1213 H 0.83237 0.75846 0.36886 0.0
H1214 H 0.80797 0.84973 0.37749 0.0
H1215 H 0.85691 0.86426 0.36095 0.0
C1216 C 0.74625 0.75903 0.37967 0.0
C1217 C 0.73419 0.7696 0.40606 0.0
C1218 C 0.77205 0.77107 0.36846 0.0
C1219 C 0.7864 0.7939 0.38344 0.0
C1220 C 0.77298 0.80623 0.40846 0.0
C1221 C 0.74699 0.79414 0.41972 0.0
C1222 C 0.86554 0.78986 0.35783 0.0
C1223 C 0.87298 0.81966 0.35524 0.0
C1224 C 0.83747 0.78164 0.36711 0.0
C1225 C 0.81626 0.80302 0.37413 0.0
C1226 C 0.82388 0.83282 0.37224 0.0
C1227 C 0.8519 0.84107 0.36273 0.0
H1228 H 0.35795 0.64683 0.65474 0.0
H1229 H 0.37812 0.73904 0.66522 0.0
H1230 H 0.30829 0.65953 0.63841 0.0
H1231 H 0.32864 0.75156 0.64898 0.0
H1232 H 0.23761 0.70788 0.57549 0.0
H1233 H 0.28313 0.68662 0.59519 0.0
H1234 H 0.27775 0.74466 0.67011 0.0
H1235 H 0.23265 0.76581 0.6505 0.0
C1236 C 0.35187 0.6698 0.65339 0.0
C1237 C 0.37201 0.69197 0.66124 0.0
C1238 C 0.32346 0.67699 0.64403 0.0
C1239 C 0.31453 0.70646 0.6428 0.0
C1240 C 0.33479 0.7286 0.65021 0.0
C1241 C 0.36323 0.72146 0.65922 0.0
C1242 C 0.24556 0.71516 0.59674 0.0
C1243 C 0.2318 0.73856 0.61144 0.0
C1244 C 0.2717 0.7032 0.60789 0.0
C1245 C 0.28428 0.71457 0.63378 0.0
C1246 C 0.2689 0.73599 0.64976 0.0
C1247 C 0.24294 0.74785 0.6387 0.0
H1248 H 0.85463 0.88131 0.74195 0.0
H1249 H 0.85827 0.85426 0.65086 0.0
H1250 H 0.87072 0.8325 0.75694 0.0
H1251 H 0.8741 0.80534 0.666 0.0
H1252 H 0.93666 0.73471 0.71118 0.0
H1253 H 0.91693 0.78003 0.68976 0.0
H1254 H 0.84983 0.78241 0.7569 0.0
H1255 H 0.86967 0.73761 0.77835 0.0
C1256 C 0.85901 0.86504 0.72512 0.0
C1257 C 0.85519 0.87174 0.69524 0.0
C1258 C 0.86794 0.83697 0.73371 0.0
C1259 C 0.87332 0.81498 0.71262 0.0
C1260 C 0.87017 0.82183 0.68271 0.0
C1261 C 0.86107 0.84987 0.67411 0.0
C1262 C 0.91708 0.7444 0.72064 0.0
C1263 C 0.90476 0.73284 0.74648 0.0
C1264 C 0.90591 0.77044 0.70855 0.0
C1265 C 0.88231 0.78513 0.72215 0.0
C1266 C 0.86852 0.77202 0.74643 0.0
C1267 C 0.87966 0.7462 0.75849 0.0
H1268 H 0.63516 0.14448 0.16019 0.0
H1269 H 0.6762 0.14208 0.24586 0.0
H1270 H 0.61908 0.19483 0.16932 0.0
H1271 H 0.65943 0.19182 0.25533 0.0
H1272 H 0.65019 0.2875 0.25976 0.0
H1273 H 0.66906 0.2409 0.24139 0.0
H1274 H 0.58618 0.22478 0.19772 0.0
H1275 H 0.56794 0.27223 0.21521 0.0
C1276 C 0.64037 0.1545 0.18116 0.0
C1277 C 0.65697 0.13916 0.20231 0.0
C1278 C 0.63117 0.18343 0.18637 0.0
C1279 C 0.63829 0.19769 0.21288 0.0
C1280 C 0.65421 0.18196 0.2343 0.0
C1281 C 0.66353 0.1532 0.22903 0.0
C1282 C 0.63651 0.27449 0.24521 0.0
C1283 C 0.60777 0.28352 0.23864 0.0
C1284 C 0.64706 0.24751 0.23513 0.0
C1285 C 0.62886 0.22858 0.21878 0.0
C1286 C 0.60086 0.23873 0.21023 0.0
C1287 C 0.59044 0.26605 0.22001 0.0
H1288 H 0.44398 0.76772 0.30562 0.0
H1289 H 0.36521 0.79306 0.25957 0.0
H1290 H 0.42027 0.72288 0.32216 0.0
H1291 H 0.34068 0.74831 0.27678 0.0
H1292 H 0.32896 0.64718 0.2704 0.0
H1293 H 0.34545 0.69767 0.26309 0.0
H1294 H 0.38471 0.69733 0.34968 0.0
H1295 H 0.36934 0.6467 0.35642 0.0
C1296 C 0.42097 0.76434 0.30043 0.0
C1297 C 0.40616 0.78399 0.28191 0.0
C1298 C 0.40735 0.7385 0.30971 0.0
C1299 C 0.37861 0.73167 0.3005 0.0
C1300 C 0.36299 0.75262 0.28387 0.0
C1301 C 0.37673 0.77856 0.27455 0.0
C1302 C 0.3413 0.65786 0.28776 0.0
C1303 C 0.3484 0.64265 0.3137 0.0
C1304 C 0.35038 0.68699 0.28378 0.0
C1305 C 0.36647 0.7017 0.30581 0.0
C1306 C 0.37284 0.68663 0.33203 0.0
C1307 C 0.36408 0.65749 0.33585 0.0
H1308 H 0.14759 0.23394 0.74724 0.0
H1309 H 0.07416 0.23707 0.80723 0.0
H1310 H 0.1666 0.27956 0.76779 0.0
H1311 H 0.09318 0.28314 0.82786 0.0
H1312 H 0.15173 0.35813 0.86752 0.0
H1313 H 0.1353 0.30883 0.85414 0.0
H1314 H 0.14624 0.33023 0.76229 0.0
H1315 H 0.16277 0.37947 0.77556 0.0
C1316 C 0.13604 0.24397 0.76551 0.0
C1317 C 0.10942 0.23205 0.77565 0.0
C1318 C 0.14669 0.27027 0.77699 0.0
C1319 C 0.13096 0.2853 0.79886 0.0
C1320 C 0.10571 0.27206 0.81092 0.0
C1321 C 0.09497 0.24556 0.79935 0.0
C1322 C 0.15043 0.35241 0.84443 0.0
C1323 C 0.15858 0.37277 0.82255 0.0
C1324 C 0.14098 0.32417 0.83684 0.0
C1325 C 0.13984 0.31555 0.80724 0.0
C1326 C 0.1474 0.33609 0.78536 0.0
C1327 C 0.15658 0.3644 0.79292 0.0
H1328 H 0.74136 0.85512 0.87812 0.0
H1329 H 0.64917 0.86513 0.8573 0.0
H1330 H 0.75407 0.87042 0.82835 0.0
H1331 H 0.66203 0.88036 0.80742 0.0
H1332 H 0.76872 0.86705 0.73227 0.0
H1333 H 0.74814 0.84868 0.77815 0.0
H1334 H 0.68812 0.92214 0.78073 0.0
H1335 H 0.70875 0.9405 0.73439 0.0
C1336 C 0.72383 0.86083 0.86305 0.0
C1337 C 0.69429 0.85891 0.87172 0.0
C1338 C 0.73108 0.86929 0.83443 0.0
C1339 C 0.70898 0.87619 0.81389 0.0
C1340 C 0.67948 0.87515 0.82277 0.0
C1341 C 0.67218 0.86641 0.85134 0.0
C1342 C 0.75043 0.87873 0.74212 0.0
C1343 C 0.74034 0.9052 0.72989 0.0
C1344 C 0.73893 0.86843 0.76856 0.0
C1345 C 0.7171 0.88441 0.78338 0.0
C1346 C 0.70503 0.90944 0.76979 0.0
C1347 C 0.71661 0.9198 0.74316 0.0
H1348 H 0.73587 0.14689 0.23408 0.0
H1349 H 0.81165 0.09035 0.2289 0.0
H1350 H 0.75535 0.16922 0.27889 0.0
H1351 H 0.83108 0.11207 0.27409 0.0
H1352 H 0.8636 0.16716 0.3512 0.0
H1353 H 0.84951 0.15466 0.30111 0.0
H1354 H 0.75872 0.14854 0.32828 0.0
H1355 H 0.7727 0.16161 0.37838 0.0
C1356 C 0.75737 0.14024 0.24191 0.0
C1357 C 0.77265 0.11744 0.22792 0.0
C1358 C 0.76826 0.15256 0.26782 0.0
C1359 C 0.79445 0.14199 0.28037 0.0
C1360 C 0.81092 0.12083 0.26493 0.0
C1361 C 0.80002 0.10856 0.23891 0.0
C1362 C 0.84061 0.16305 0.34657 0.0
C1363 C 0.81927 0.16516 0.36891 0.0
C1364 C 0.83258 0.15591 0.31781 0.0
C1365 C 0.80301 0.15082 0.31063 0.0
C1366 C 0.78166 0.15289 0.33296 0.0
C1367 C 0.78969 0.16 0.36178 0.0
H1368 H 0.24714 0.68756 0.14822 0.0
H1369 H 0.16013 0.64954 0.14826 0.0
H1370 H 0.25408 0.67154 0.19896 0.0
H1371 H 0.16652 0.63464 0.19914 0.0
H1372 H 0.20903 0.57509 0.27036 0.0
H1373 H 0.19293 0.59875 0.22528 0.0
H1374 H 0.24083 0.67715 0.24957 0.0
H1375 H 0.25759 0.65265 0.29453 0.0
C1376 C 0.22947 0.67587 0.15907 0.0
C1377 C 0.20336 0.66926 0.14393 0.0
C1378 C 0.23325 0.66704 0.18835 0.0
C1379 C 0.21085 0.65173 0.20329 0.0
C1380 C 0.18446 0.64589 0.18828 0.0
C1381 C 0.18083 0.65439 0.15899 0.0
C1382 C 0.21486 0.59789 0.2667 0.0
C1383 C 0.23395 0.61232 0.28611 0.0
C1384 C 0.20584 0.61147 0.2407 0.0
C1385 C 0.21589 0.6398 0.23345 0.0
C1386 C 0.23309 0.65514 0.25418 0.0
C1387 C 0.24215 0.64143 0.28026 0.0
H1388 H 0.24494 0.36742 0.78163 0.0
H1389 H 0.30641 0.43967 0.78146 0.0
H1390 H 0.26533 0.34972 0.73539 0.0
H1391 H 0.32683 0.42198 0.7348 0.0
H1392 H 0.36624 0.36558 0.65838 0.0
H1393 H 0.35253 0.38065 0.70802 0.0
H1394 H 0.26083 0.37145 0.68527 0.0
H1395 H 0.27443 0.35621 0.63566 0.0
C1396 C 0.26345 0.379 0.77209 0.0
C1397 C 0.27407 0.40493 0.78506 0.0
C1398 C 0.27484 0.36909 0.74544 0.0
C1399 C 0.29711 0.38491 0.73111 0.0
C1400 C 0.30958 0.40941 0.74533 0.0
C1401 C 0.29811 0.41938 0.77216 0.0
C1402 C 0.34311 0.36697 0.66387 0.0
C1403 C 0.32139 0.35963 0.64302 0.0
C1404 C 0.33533 0.37565 0.69232 0.0
C1405 C 0.30567 0.37686 0.70065 0.0
C1406 C 0.28393 0.37018 0.67963 0.0
C1407 C 0.29169 0.36175 0.65111 0.0
H1408 H 0.86078 0.6517 0.86822 0.0
H1409 H 0.88371 0.74308 0.85638 0.0
H1410 H 0.81127 0.66592 0.88304 0.0
H1411 H 0.83422 0.75723 0.87149 0.0
H1412 H 0.73732 0.71247 0.9402 0.0
H1413 H 0.78418 0.69203 0.92321 0.0
H1414 H 0.78424 0.75292 0.85038 0.0
H1415 H 0.7378 0.77335 0.86744 0.0
C1416 C 0.85538 0.67485 0.86908 0.0
C1417 C 0.87625 0.69629 0.8611 0.0
C1418 C 0.82698 0.68294 0.87761 0.0
C1419 C 0.81871 0.71263 0.87807 0.0
C1420 C 0.83979 0.7341 0.87081 0.0
C1421 C 0.86825 0.72604 0.86249 0.0
C1422 C 0.74682 0.72064 0.91995 0.0
C1423 C 0.73399 0.7445 0.90515 0.0
C1424 C 0.77378 0.70917 0.91037 0.0
C1425 C 0.78824 0.72143 0.88589 0.0
C1426 C 0.77405 0.74357 0.86976 0.0
C1427 C 0.74726 0.75498 0.87929 0.0
H1428 H 0.22416 0.76104 0.15142 0.0
H1429 H 0.24942 0.80631 0.07219 0.0
H1430 H 0.26927 0.77791 0.17556 0.0
H1431 H 0.29465 0.82248 0.0955 0.0
H1432 H 0.37191 0.85569 0.14577 0.0
H1433 H 0.32107 0.84965 0.13068 0.0
H1434 H 0.3196 0.76339 0.17039 0.0
H1435 H 0.3703 0.77001 0.18662 0.0
C1436 C 0.23872 0.77582 0.13972 0.0
C1437 C 0.23316 0.78303 0.11027 0.0
C1438 C 0.26487 0.78493 0.15323 0.0
C1439 C 0.28593 0.80116 0.13735 0.0
C1440 C 0.27897 0.81032 0.10862 0.0
C1441 C 0.2529 0.80127 0.09523 0.0
C1442 C 0.36083 0.83534 0.15119 0.0
C1443 C 0.3754 0.81309 0.16696 0.0
C1444 C 0.33157 0.83192 0.14259 0.0
C1445 C 0.31611 0.80602 0.14921 0.0
C1446 C 0.33058 0.78387 0.1653 0.0
C1447 C 0.35983 0.78744 0.17423 0.0
H1448 H 0.2516 0.2655 0.56791 0.0
H1449 H 0.30025 0.22344 0.63752 0.0
H1450 H 0.20606 0.24488 0.58653 0.0
H1451 H 0.25399 0.20315 0.65715 0.0
H1452 H 0.16374 0.15497 0.66715 0.0
H1453 H 0.21114 0.16945 0.64671 0.0
H1454 H 0.17731 0.25662 0.63064 0.0
H1455 H 0.1298 0.24216 0.65073 0.0
C1456 C 0.25255 0.25102 0.58677 0.0
C1457 C 0.27935 0.24551 0.60098 0.0
C1458 C 0.22641 0.23967 0.59777 0.0
C1459 C 0.22636 0.22285 0.62359 0.0
C1460 C 0.25342 0.21602 0.63713 0.0
C1461 C 0.27983 0.22742 0.62591 0.0
C1462 C 0.16634 0.17722 0.65912 0.0
C1463 C 0.14282 0.19735 0.66025 0.0
C1464 C 0.1936 0.18551 0.64764 0.0
C1465 C 0.19789 0.21405 0.63686 0.0
C1466 C 0.17451 0.23428 0.63832 0.0
C1467 C 0.1473 0.22605 0.64992 0.0
H1468 H 0.63774 0.27597 0.3493 0.0
H1469 H 0.65854 0.36794 0.36064 0.0
H1470 H 0.68696 0.26298 0.36623 0.0
H1471 H 0.70779 0.35483 0.3775 0.0
H1472 H 0.7781 0.30744 0.44042 0.0
H1473 H 0.73256 0.32831 0.42037 0.0
H1474 H 0.73807 0.2691 0.34636 0.0
H1475 H 0.78318 0.24833 0.36637 0.0
C1476 C 0.6527 0.29338 0.35561 0.0
C1477 C 0.6442 0.32294 0.35361 0.0
C1478 C 0.68098 0.28599 0.36502 0.0
C1479 C 0.70131 0.30796 0.37283 0.0
C1480 C 0.69259 0.33748 0.37162 0.0
C1481 C 0.66439 0.34491 0.36191 0.0
C1482 C 0.77017 0.29983 0.41929 0.0
C1483 C 0.784 0.27626 0.40496 0.0
C1484 C 0.74399 0.31153 0.40795 0.0
C1485 C 0.73143 0.29972 0.38222 0.0
C1486 C 0.74686 0.27808 0.3666 0.0
C1487 C 0.77286 0.26648 0.37785 0.0
H1488 H 0.03614 0.35971 0.10301 0.0
H1489 H 0.99646 0.28602 0.14789 0.0
H1490 H 1.00388 0.35124 0.06095 0.0
H1491 H 0.96398 0.27796 0.10616 0.0
H1492 H 0.92518 0.25726 0.01505 0.0
H1493 H 0.96164 0.26256 0.05447 0.0
H1494 H 0.95211 0.35687 0.05048 0.0
H1495 H 0.91651 0.35177 0.01134 0.0
C1496 C 0.02059 0.34172 0.10394 0.0
C1497 C 0.01888 0.32368 0.12895 0.0
C1498 C 1.00201 0.33689 0.07986 0.0
C1499 C 0.98125 0.31393 0.08019 0.0
C1500 C 0.97992 0.29558 0.10497 0.0
C1501 C 0.99845 0.30041 0.12904 0.0
C1502 C 0.93103 0.27908 0.02253 0.0
C1503 C 0.9179 0.30402 0.00989 0.0
C1504 C 0.95182 0.28214 0.04518 0.0
C1505 C 0.95997 0.31019 0.05552 0.0
C1506 C 0.94686 0.33499 0.04274 0.0
C1507 C 0.92617 0.33196 0.02033 0.0
H1508 H 0.59663 0.66129 0.51274 0.0
H1509 H 0.59175 0.75607 0.51672 0.0
H1510 H 0.56215 0.65755 0.55292 0.0
H1511 H 0.55628 0.75215 0.55723 0.0
H1512 H 0.52096 0.7287 0.65132 0.0
H1513 H 0.55357 0.73644 0.60936 0.0
H1514 H 0.51084 0.66535 0.56319 0.0
H1515 H 0.47877 0.65718 0.60518 0.0
C1516 C 0.58801 0.68145 0.52199 0.0
C1517 C 0.59696 0.70905 0.51125 0.0
C1518 C 0.56799 0.67923 0.54504 0.0
C1519 C 0.55615 0.70451 0.55816 0.0
C1520 C 0.56509 0.73223 0.54765 0.0
C1521 C 0.58526 0.73449 0.52435 0.0
C1522 C 0.51845 0.71478 0.63217 0.0
C1523 C 0.49735 0.69215 0.63176 0.0
C1524 C 0.53703 0.71939 0.60803 0.0
C1525 C 0.53496 0.70143 0.58296 0.0
C1526 C 0.51338 0.67928 0.58233 0.0
C1527 C 0.49489 0.67465 0.60641 0.0
H1528 H 0.4111 0.25666 0.98784 0.0
H1529 H 0.43046 0.16975 0.02066 0.0
H1530 H 0.44425 0.24817 0.94637 0.0
H1531 H 0.46223 0.16077 0.97897 0.0
H1532 H 0.53852 0.16094 0.91545 0.0
H1533 H 0.50746 0.1717 0.95768 0.0
H1534 H 0.44914 0.22195 0.90192 0.0
H1535 H 0.481 0.21223 0.86003 0.0
C1536 C 0.42241 0.23579 0.98623 0.0
C1537 C 0.41833 0.21406 1.00778 0.0
C1538 C 0.44125 0.23077 0.96231 0.0
C1539 C 0.45611 0.20374 0.95918 0.0
C1540 C 0.45184 0.18209 0.98081 0.0
C1541 C 0.43341 0.18724 1.00478 0.0
C1542 C 0.51901 0.17418 0.9122 0.0
C1543 C 0.51227 0.18569 0.88435 0.0
C1544 C 0.50106 0.18032 0.93644 0.0
C1545 C 0.47563 0.19777 0.9334 0.0
C1546 C 0.46877 0.20896 0.90538 0.0
C1547 C 0.48693 0.20313 0.88124 0.0
H1548 H 0.09899 0.85129 0.50309 0.0
H1549 H 0.09075 0.75672 0.49937 0.0
H1550 H 0.06418 0.85615 0.46324 0.0
H1551 H 0.0551 0.7618 0.45913 0.0
H1552 H 0.02059 0.78642 0.3652 0.0
H1553 H 0.05317 0.77789 0.40694 0.0
H1554 H 0.01215 0.84966 0.45356 0.0
H1555 H 0.97993 0.85857 0.41171 0.0
C1556 C 0.08959 0.83142 0.49394 0.0
C1557 C 0.09765 0.80354 0.50466 0.0
C1558 C 0.0694 0.8343 0.4711 0.0
C1559 C 0.05659 0.80942 0.45817 0.0
C1560 C 0.06468 0.78142 0.46861 0.0
C1561 C 0.08498 0.7785 0.49171 0.0
C1562 C 0.01843 0.80035 0.38439 0.0
C1563 C 0.99773 0.82335 0.38498 0.0
C1564 C 0.03698 0.79527 0.40841 0.0
C1565 C 0.03535 0.81314 0.43354 0.0
C1566 C 0.01426 0.83574 0.43436 0.0
C1567 C 0.9957 0.8408 0.41038 0.0
H1568 H 0.10634 0.03723 0.36177 0.0
H1569 H 0.15385 0.99189 0.29314 0.0
H1570 H 0.06334 1.00683 0.35191 0.0
H1571 H 0.11105 0.9611 0.28374 0.0
H1572 H 0.01956 0.9255 0.25881 0.0
H1573 H 0.06048 0.96018 0.26493 0.0
H1574 H 0.04922 0.95666 0.35917 0.0
H1575 H 0.00862 0.92304 0.35322 0.0
C1576 C 0.10769 0.02073 0.34466 0.0
C1577 C 0.13368 0.01698 0.32841 0.0
C1578 C 0.08302 1.00323 0.33901 0.0
C1579 C 0.0837 0.98141 0.31704 0.0
C1580 C 0.10957 0.97791 0.30053 0.0
C1581 C 0.13424 0.99544 0.30615 0.0
C1582 C 0.0257 0.93241 0.28076 0.0
C1583 C 0.01067 0.92144 0.30543 0.0
C1584 C 0.04925 0.95212 0.28431 0.0
C1585 C 0.0581 0.96135 0.31258 0.0
C1586 C 0.04278 0.95055 0.33707 0.0
C1587 C 0.0195 0.93097 0.33357 0.0
H1588 H 0.48583 0.10574 0.75662 0.0
H1589 H 0.52319 0.07094 0.83662 0.0
H1590 H 0.44374 0.07225 0.76197 0.0
H1591 H 0.4821 0.03736 0.84158 0.0
H1592 H 0.38949 0.01218 0.8654 0.0
H1593 H 0.43142 0.04361 0.85509 0.0
H1594 H 0.42631 0.02087 0.76299 0.0
H1595 H 0.38375 0.98977 0.7732 0.0
C1596 C 0.48539 0.09044 0.77486 0.0
C1597 C 0.50756 0.09112 0.79635 0.0
C1598 C 0.46131 0.07135 0.77802 0.0
C1599 C 0.45922 0.0526 0.80262 0.0
C1600 C 0.48249 0.0521 0.8229 0.0
C1601 C 0.5062 0.07119 0.8199 0.0
C1602 C 0.39724 0.01382 0.84293 0.0
C1603 C 0.38336 0.99818 0.82021 0.0
C1604 C 0.42143 0.03175 0.83701 0.0
C1605 C 0.43254 0.03446 0.80823 0.0
C1606 C 0.41828 0.01936 0.78536 0.0
C1607 C 0.39397 1.00142 0.79128 0.0
H1608 H 0.62167 0.50274 0.64561 0.0
H1609 H 0.64568 0.50717 0.73745 0.0
H1610 H 0.58059 0.53557 0.65478 0.0
H1611 H 0.60504 0.54096 0.74647 0.0
H1612 H 0.51038 0.57868 0.75579 0.0
H1613 H 0.55226 0.54526 0.74937 0.0
H1614 H 0.57097 0.58528 0.66525 0.0
H1615 H 0.52909 0.61748 0.67118 0.0
C1616 C 0.61837 0.51093 0.66773 0.0
C1617 C 0.63708 0.5023 0.69074 0.0
C1618 C 0.59483 0.52994 0.67301 0.0
C1619 C 0.5895 0.54118 0.70139 0.0
C1620 C 0.6082 0.53253 0.72444 0.0
C1621 C 0.63167 0.51329 0.71919 0.0
C1622 C 0.52358 0.58028 0.73604 0.0
C1623 C 0.51611 0.60038 0.71381 0.0
C1624 C 0.54763 0.56123 0.73235 0.0
C1625 C 0.56478 0.56217 0.70651 0.0
C1626 C 0.55784 0.58319 0.68499 0.0
C1627 C 0.53382 0.60184 0.68851 0.0
H1628 H 0.98182 0.40288 0.24894 0.0
H1629 H 0.0276 0.44386 0.17681 0.0
H1630 H 0.94065 0.43667 0.24206 0.0
H1631 H 0.98783 0.47899 0.17107 0.0
H1632 H 0.90023 0.51618 0.14371 0.0
H1633 H 0.94134 0.48325 0.15273 0.0
H1634 H 0.92058 0.48293 0.24562 0.0
H1635 H 0.8783 0.51426 0.23599 0.0
C1636 C 0.98333 0.41969 0.23214 0.0
C1637 C 1.00774 0.42076 0.21334 0.0
C1638 C 0.95978 0.43917 0.22814 0.0
C1639 C 0.96046 0.46057 0.20566 0.0
C1640 C 0.98579 0.46236 0.18795 0.0
C1641 C 0.00887 0.44245 0.19146 0.0
C1642 C 0.90453 0.50901 0.16603 0.0
C1643 C 0.88606 0.51778 0.1891 0.0
C1644 C 0.92831 0.49027 0.17135 0.0
C1645 C 0.93476 0.48039 0.20006 0.0
C1646 C 0.91625 0.48948 0.22316 0.0
C1647 C 0.89204 0.50766 0.21769 0.0
H1648 H 0.37465 0.12349 1.00456 0.0
H1649 H 0.28079 0.13247 0.01625 0.0
H1650 H 0.36633 0.08266 0.97068 0.0
H1651 H 0.2726 0.09149 0.98301 0.0
H1652 H 0.34118 0.99076 0.9377 0.0
H1653 H 0.34951 0.03203 0.97075 0.0
H1654 H 0.27604 0.0779 0.93185 0.0
H1655 H 0.26731 0.03637 0.89913 0.0
C1656 C 0.35227 0.11675 1.0 0.0
C1657 C 0.32843 0.13128 0.01326 0.0
C1658 C 0.34749 0.09322 0.98069 0.0
C1659 C 0.31877 0.0837 0.97412 0.0
C1660 C 0.29498 0.09842 0.98722 0.0
C1661 C 0.29973 0.12187 1.00648 0.0
C1662 C 0.32664 0.00955 0.93628 0.0
C1663 C 0.30342 0.01009 0.91583 0.0
C1664 C 0.33162 0.03336 0.95509 0.0
C1665 C 0.31353 0.05838 0.95396 0.0
C1666 C 0.2902 0.05886 0.93361 0.0
C1667 C 0.28521 0.03503 0.91478 0.0
H1668 H 0.85435 0.41243 0.97342 0.0
H1669 H 0.78419 0.36655 0.01809 0.0
H1670 H 0.84589 0.45526 1.00433 0.0
H1671 H 0.77619 0.4093 0.04949 0.0
H1672 H 0.75638 0.50169 0.08724 0.0
H1673 H 0.75989 0.46123 0.05161 0.0
H1674 H 0.85462 0.46658 0.05527 0.0
H1675 H 0.85126 0.50663 0.08986 0.0
C1676 C 0.83711 0.41144 0.98981 0.0
C1677 C 0.82014 0.3859 0.99336 0.0
C1678 C 0.83229 0.43601 1.00762 0.0
C1679 C 0.81048 0.43567 0.02957 0.0
C1680 C 0.79296 0.41043 0.03263 0.0
C1681 C 0.79774 0.38583 0.01475 0.0
C1682 C 0.77788 0.49433 0.08017 0.0
C1683 C 0.80347 0.50757 0.0914 0.0
C1684 C 0.77992 0.47107 0.05992 0.0
C1685 C 0.80757 0.4608 0.05039 0.0
C1686 C 0.83297 0.47424 0.06157 0.0
C1687 C 0.83097 0.4972 0.0817 0.0
H1688 H 0.72056 0.6496 0.52873 0.0
H1689 H 0.66534 0.59608 0.47302 0.0
H1690 H 0.72927 0.60766 0.56068 0.0
H1691 H 0.67501 0.55371 0.50428 0.0
H1692 H 0.76074 0.52154 0.59938 0.0
H1693 H 0.75356 0.56207 0.56499 0.0
H1694 H 0.66395 0.53387 0.55059 0.0
H1695 H 0.67153 0.49291 0.58383 0.0
C1696 C 0.71047 0.62878 0.52315 0.0
C1697 C 0.6922 0.62623 0.49832 0.0
C1698 C 0.71567 0.60459 0.54138 0.0
C1699 C 0.70298 0.5771 0.53513 0.0
C1700 C 0.68482 0.57457 0.51015 0.0
C1701 C 0.67934 0.59887 0.49209 0.0
C1702 C 0.73962 0.52386 0.58861 0.0
C1703 C 0.7168 0.50385 0.59427 0.0
C1704 C 0.73539 0.54727 0.56905 0.0
C1705 C 0.70811 0.55144 0.55495 0.0
C1706 C 0.68543 0.53119 0.5605 0.0
C1707 C 0.68976 0.50767 0.57975 0.0
H1708 H 0.24131 0.87826 0.51988 0.0
H1709 H 0.14881 0.89913 0.52034 0.0
H1710 H 0.25102 0.92102 0.48922 0.0
H1711 H 0.15795 0.94075 0.48813 0.0
H1712 H 0.18136 0.02718 0.44915 0.0
H1713 H 0.17583 0.98744 0.48433 0.0
H1714 H 0.24789 0.94121 0.44286 0.0
H1715 H 0.25452 0.98235 0.40898 0.0
C1716 C 0.22299 0.89192 0.51318 0.0
C1717 C 0.1943 0.88545 0.52266 0.0
C1718 C 0.22851 0.91639 0.49537 0.0
C1719 C 0.20537 0.93471 0.48601 0.0
C1720 C 0.17659 0.92787 0.49537 0.0
C1721 C 0.17121 0.9038 0.51372 0.0
C1722 C 0.1963 0.00868 0.44793 0.0
C1723 C 0.21838 0.0078 0.42641 0.0
C1724 C 0.19291 0.98562 0.46789 0.0
C1725 C 0.21097 0.96053 0.46633 0.0
C1726 C 0.23369 0.96013 0.44517 0.0
C1727 C 0.23754 0.98368 0.42563 0.0
H1728 H 0.03369 0.71791 0.86142 0.0
H1729 H 0.97709 0.66707 0.91815 0.0
H1730 H 0.06661 0.72732 0.90263 0.0
H1731 H 0.00918 0.67752 0.95965 0.0
H1732 H 0.08788 0.67407 0.02059 0.0
H1733 H 0.0549 0.66569 0.97958 0.0
H1734 H 0.07287 0.75315 0.94716 0.0
H1735 H 0.10712 0.76102 0.9878 0.0
C1736 C 0.02815 0.70894 0.88277 0.0
C1737 C 1.00281 0.69164 0.88645 0.0
C1738 C 0.04693 0.71453 0.90651 0.0
C1739 C 0.04068 0.70325 0.93465 0.0
C1740 C 0.01513 0.68615 0.93828 0.0
C1741 C 0.99658 0.68024 0.91447 0.0
C1742 C 0.08466 0.69166 1.00487 0.0
C1743 C 0.10004 0.71832 1.00763 0.0
C1744 C 0.06556 0.68688 0.98131 0.0
C1745 C 0.06094 0.70875 0.95995 0.0
C1746 C 0.07612 0.73559 0.96288 0.0
C1747 C 0.09559 0.74025 0.98634 0.0
H1748 H 0.49523 0.29039 0.36445 0.0
H1749 H 0.54075 0.35929 0.41143 0.0
H1750 H 0.46399 0.28191 0.40718 0.0
H1751 H 0.50997 0.35032 0.4543 0.0
H1752 H 0.42487 0.35463 0.50667 0.0
H1753 H 0.45935 0.3589 0.46659 0.0
H1754 H 0.46225 0.2644 0.45849 0.0
H1755 H 0.42671 0.25997 0.4989 0.0
C1756 C 0.49876 0.30359 0.38396 0.0
C1757 C 0.52038 0.32574 0.38438 0.0
C1758 C 0.48098 0.29852 0.40856 0.0
C1759 C 0.48437 0.31547 0.43415 0.0
C1760 C 0.50646 0.33714 0.43478 0.0
C1761 C 0.52417 0.34226 0.4102 0.0
C1762 C 0.43285 0.33458 0.49661 0.0
C1763 C 0.42293 0.30687 0.50615 0.0
C1764 C 0.45291 0.33711 0.47365 0.0
C1765 C 0.4638 0.31203 0.4594 0.0
C1766 C 0.45414 0.28418 0.46893 0.0
C1767 C 0.43395 0.28162 0.49217 0.0
H1768 H 0.61784 0.84688 0.02845 0.0
H1769 H 0.57824 0.76351 1.00635 0.0
H1770 H 0.58534 0.85166 0.07026 0.0
H1771 H 0.54446 0.76882 0.04811 0.0
H1772 H 0.50639 0.7776 0.14198 0.0
H1773 H 0.53987 0.7697 0.10081 0.0
H1774 H 0.53581 0.86229 0.08016 0.0
H1775 H 0.50338 0.87029 0.12182 0.0
C1776 C 0.60193 0.8296 0.03241 0.0
C1777 C 0.60036 0.80496 0.01382 0.0
C1778 C 0.5831 0.83246 0.05638 0.0
C1779 C 0.56178 0.81095 0.06235 0.0
C1780 C 0.56067 0.7858 0.04424 0.0
C1781 C 0.57992 0.78275 0.02027 0.0
C1782 C 0.51271 0.79627 0.12865 0.0
C1783 C 0.50231 0.82463 0.13533 0.0
C1784 C 0.53176 0.79169 0.1049 0.0
C1785 C 0.54076 0.81534 0.08716 0.0
C1786 C 0.52994 0.8436 0.09366 0.0
C1787 C 0.51116 0.84822 0.11752 0.0
H1788 H 0.92473 0.25769 0.51649 0.0
H1789 H 0.91977 0.16307 0.50989 0.0
H1790 H 0.95986 0.25269 0.55712 0.0
H1791 H 0.95404 0.15824 0.55029 0.0
H1792 H 0.99389 0.22792 0.65075 0.0
H1793 H 0.96158 0.23589 0.60867 0.0
H1794 H 1.00524 0.16577 0.56192 0.0
H1795 H 0.03715 0.15739 0.6041 0.0
C1796 C 0.93114 0.2359 0.52358 0.0
C1797 C 0.91947 0.21084 0.50976 0.0
C1798 C 0.95112 0.23302 0.54696 0.0
C1799 C 0.95992 0.20504 0.55686 0.0
C1800 C 0.94824 0.18011 0.54293 0.0
C1801 C 0.92835 0.18296 0.51978 0.0
C1802 C 0.99667 0.21422 0.63147 0.0
C1803 C 0.01807 0.19187 0.63092 0.0
C1804 C 0.97826 0.21897 0.60724 0.0
C1805 C 0.98073 0.20144 0.58192 0.0
C1806 C 1.00244 0.17942 0.58123 0.0
C1807 C 0.02084 0.17467 0.60541 0.0
H1808 H 0.91246 0.97688 0.65698 0.0
H1809 H 0.86484 0.02085 0.72645 0.0
H1810 H 0.9548 0.00827 0.66624 0.0
H1811 H 0.90708 0.0527 0.73526 0.0
H1812 H 0.99887 0.08993 0.75819 0.0
H1813 H 0.95836 0.05465 0.75298 0.0
H1814 H 0.96684 0.05909 0.65848 0.0
H1815 H 1.00705 0.09337 0.66353 0.0
C1816 C 0.91097 0.99326 0.6742 0.0
C1817 C 0.88512 0.99639 0.69082 0.0
C1818 C 0.93525 0.01135 0.67947 0.0
C1819 C 0.93434 0.03315 0.70142 0.0
C1820 C 0.90869 0.03594 0.71842 0.0
C1821 C 0.88437 0.01781 0.71317 0.0
C1822 C 0.9922 0.08312 0.73637 0.0
C1823 C 1.00638 0.09447 0.71135 0.0
C1824 C 0.96888 0.06307 0.73335 0.0
C1825 C 0.95944 0.05387 0.70528 0.0
C1826 C 0.97381 0.06517 0.68043 0.0
C1827 C 0.99687 0.0851 0.6834 0.0
H1828 H 0.63544 0.01474 0.23698 0.0
H1829 H 0.62224 1.00393 0.14348 0.0
H1830 H 0.5943 0.98214 0.2467 0.0
H1831 H 0.58124 0.97066 0.15332 0.0
H1832 H 0.53674 0.89947 0.2534 0.0
H1833 H 0.5787 0.93154 0.24384 0.0
H1834 H 0.53147 0.9719 0.17201 0.0
H1835 H 0.48989 0.93963 0.18115 0.0
C1836 C 0.62389 1.00527 0.21842 0.0
C1837 C 0.63216 0.01218 0.18938 0.0
C1838 C 0.60033 0.98636 0.22406 0.0
C1839 C 0.58431 0.97375 0.20085 0.0
C1840 C 0.59279 0.98031 0.17177 0.0
C1841 C 0.61643 0.99927 0.1661 0.0
C1842 C 0.5352 0.91537 0.23574 0.0
C1843 C 0.50981 0.91696 0.21815 0.0
C1844 C 0.55928 0.9338 0.23025 0.0
C1845 C 0.55861 0.95425 0.207 0.0
C1846 C 0.53304 0.9561 0.18974 0.0
C1847 C 0.50901 0.93773 0.19522 0.0
H1848 H 0.51719 0.4362 0.34583 0.0
H1849 H 0.48761 0.4142 0.25835 0.0
H1850 H 0.47564 0.46887 0.35205 0.0
H1851 H 0.44491 0.44643 0.26493 0.0
H1852 H 0.38501 0.527 0.27851 0.0
H1853 H 0.42739 0.49551 0.26971 0.0
H1854 H 0.42482 0.46719 0.36038 0.0
H1855 H 0.38316 0.49953 0.3694 0.0
C1856 C 0.50172 0.43834 0.32784 0.0
C1857 C 0.50571 0.42245 0.3016 0.0
C1858 C 0.47762 0.45694 0.33154 0.0
C1859 C 0.45642 0.46002 0.30927 0.0
C1860 C 0.46081 0.4448 0.28257 0.0
C1861 C 0.48529 0.4263 0.27873 0.0
C1862 C 0.39349 0.51406 0.29661 0.0
C1863 C 0.38076 0.51604 0.32478 0.0
C1864 C 0.41775 0.4958 0.29147 0.0
C1865 C 0.42986 0.47883 0.31431 0.0
C1866 C 0.41667 0.48039 0.34234 0.0
C1867 C 0.39258 0.49885 0.34754 0.0
H1868 H 0.15859 0.53244 0.80423 0.0
H1869 H 0.09861 0.46991 0.84299 0.0
H1870 H 0.11746 0.56561 0.79418 0.0
H1871 H 0.05733 0.50296 0.83208 0.0
H1872 H 0.99344 0.56499 0.7736 0.0
H1873 H 0.03453 0.52992 0.77864 0.0
H1874 H 0.07928 0.59064 0.83611 0.0
H1875 H 0.03816 0.62494 0.83197 0.0
C1876 C 0.1366 0.52567 0.81036 0.0
C1877 C 0.13184 0.49863 0.82454 0.0
C1878 C 0.11313 0.54462 0.80454 0.0
C1879 C 0.08432 0.53663 0.81211 0.0
C1880 C 0.07936 0.5094 0.82576 0.0
C1881 C 0.10297 0.49068 0.83222 0.0
C1882 C 0.01225 0.57084 0.78699 0.0
C1883 C 0.01275 0.59758 0.80239 0.0
C1884 C 0.03554 0.5508 0.79004 0.0
C1885 C 0.05991 0.5577 0.80781 0.0
C1886 C 0.06076 0.58488 0.82226 0.0
C1887 C 0.03728 0.60444 0.81988 0.0
H1888 H 0.64995 0.90634 0.99279 0.0
H1889 H 0.73786 0.87441 0.00896 0.0
H1890 H 0.65876 0.94732 0.02608 0.0
H1891 H 0.74723 0.91603 0.04121 0.0
H1892 H 0.7439 0.9775 0.12109 0.0
H1893 H 0.73661 0.93642 0.08742 0.0
H1894 H 0.68374 0.99192 0.03122 0.0
H1895 H 0.69 0.03239 0.06552 0.0
C1896 C 0.67129 0.90827 1.0032 0.0
C1897 C 0.69318 0.88711 0.99816 0.0
C1898 C 0.67646 0.93191 0.0222 0.0
C1899 C 0.70382 0.93525 0.03637 0.0
C1900 C 0.72574 0.91407 0.03116 0.0
C1901 C 0.72042 0.89023 0.01247 0.0
C1902 C 0.73097 0.98095 0.10138 0.0
C1903 C 0.71747 0.00819 0.09605 0.0
C1904 C 0.7268 0.95739 0.08197 0.0
C1905 C 0.70933 0.96061 0.05656 0.0
C1906 C 0.69671 0.98825 0.05084 0.0
C1907 C 0.70053 0.01162 0.07042 0.0
H1908 H 0.25664 0.52731 0.91469 0.0
H1909 H 0.1682 0.50007 0.93569 0.0
H1910 H 0.25109 0.56975 0.94744 0.0
H1911 H 0.163 0.54135 0.96888 0.0
H1912 H 0.14814 0.634 0.99998 0.0
H1913 H 0.15627 0.59242 0.96736 0.0
H1914 H 0.24639 0.58667 0.99696 0.0
H1915 H 0.23849 0.62902 0.02881 0.0
C1916 C 0.23625 0.5301 0.92666 0.0
C1917 C 0.21282 0.51044 0.92239 0.0
C1918 C 0.23301 0.55441 0.94546 0.0
C1919 C 0.20637 0.55937 0.96057 0.0
C1920 C 0.1835 0.53891 0.95705 0.0
C1921 C 0.1866 0.51498 0.93814 0.0
C1922 C 0.16969 0.62387 0.99956 0.0
C1923 C 0.19257 0.63479 0.0172 0.0
C1924 C 0.17437 0.59985 0.98093 0.0
C1925 C 0.20196 0.58581 0.97964 0.0
C1926 C 0.22494 0.59698 0.99707 0.0
C1927 C 0.22033 0.62122 0.01552 0.0
H1928 H 0.36831 0.40857 0.52242 0.0
H1929 H 0.2801 0.37661 0.50802 0.0
H1930 H 0.35868 0.44967 0.4893 0.0
H1931 H 0.26995 0.41816 0.47618 0.0
H1932 H 0.27041 0.47804 0.39594 0.0
H1933 H 0.27948 0.43751 0.42969 0.0
H1934 H 0.33359 0.49427 0.48342 0.0
H1935 H 0.32556 0.5343 0.44891 0.0
C1936 C 0.34677 0.41052 0.51245 0.0
C1937 C 0.32506 0.38925 0.51779 0.0
C1938 C 0.34112 0.43419 0.49356 0.0
C1939 C 0.31347 0.43739 0.47987 0.0
C1940 C 0.29169 0.41625 0.48569 0.0
C1941 C 0.29747 0.39243 0.50419 0.0
C1942 C 0.28401 0.48191 0.41512 0.0
C1943 C 0.29723 0.50941 0.41971 0.0
C1944 C 0.2892 0.45865 0.4346 0.0
C1945 C 0.30741 0.46241 0.45941 0.0
C1946 C 0.31998 0.49023 0.46431 0.0
C1947 C 0.31513 0.51333 0.44463 0.0
H1948 H 0.85727 0.10325 0.4749 0.0
H1949 H 0.78655 0.1493 0.51853 0.0
H1950 H 0.84881 0.06075 0.50632 0.0
H1951 H 0.77854 0.10696 0.55036 0.0
H1952 H 0.85205 0.00895 0.59197 0.0
H1953 H 0.85653 0.04903 0.5574 0.0
H1954 H 0.76195 0.05548 0.5521 0.0
H1955 H 0.75731 0.01516 0.5876 0.0
C1956 C 0.83992 0.10435 0.49117 0.0
C1957 C 0.82272 0.1298 0.49423 0.0
C1958 C 0.83512 0.07999 0.50928 0.0
C1959 C 0.81307 0.08047 0.53099 0.0
C1960 C 0.79547 0.10569 0.53367 0.0
C1961 C 0.80025 0.13007 0.51554 0.0
C1962 C 0.83206 0.01868 0.58344 0.0
C1963 C 0.80424 0.00867 0.59262 0.0
C1964 C 0.8347 0.04163 0.56336 0.0
C1965 C 0.80964 0.05538 0.55176 0.0
C1966 C 0.78172 0.04544 0.56077 0.0
C1967 C 0.77904 0.02225 0.58096 0.0
loop_
_geom_bond_atom_site_label_1
_geom_bond_atom_site_label_2
_geom_bond_distance
_geom_bond_site_symmetry_2
_ccdc_geom_bond_type
Fe0 O2 1.918 . S
Fe0 O5 1.997 . S
Fe0 O6 2.002 . S
Fe0 O11 1.976 . S
Fe0 O14 1.996 . S
Fe1 O2 1.918 . S
Fe1 O9 1.997 . S
Fe1 O12 1.996 . S
Fe1 O16 1.976 . S
Fe1 O19 2.002 . S
O2 Fe0 1.918 . S
O2 Fe1 1.918 . S
O2 Fe3 1.918 . S
Fe3 O2 1.918 . S
Fe3 O4 2.002 . S
Fe3 O13 1.976 . S
Fe3 O17 1.996 . S
Fe3 O20 1.997 . S
O4 Fe3 2.002 . S
O4 C21 1.295 . S
O5 Fe0 1.997 . S
O5 C21 1.235 . S
O6 Fe0 2.002 . S
O6 C7 1.295 . S
C7 O6 1.295 . S
C7 O9 1.235 . S
C8 O13 1.287 . S
C8 O14 1.255 . S
O9 Fe1 1.997 . S
O9 C7 1.235 . S
C10 O16 1.287 . S
C10 O17 1.255 . S
O11 Fe0 1.976 . S
O11 C18 1.287 . S
O12 Fe1 1.996 . S
O12 C18 1.255 . S
O13 Fe3 1.976 . S
O13 C8 1.287 . S
O14 Fe0 1.996 . S
O14 C8 1.255 . S
C15 O19 1.308 . S
C15 O20 1.248 . S
O16 Fe1 1.976 . S
O16 C10 1.287 . S
O17 Fe3 1.996 . S
O17 C10 1.255 . S
C18 O11 1.287 . S
C18 O12 1.255 . S
O19 Fe1 2.002 . S
O19 C15 1.308 . S
O20 Fe3 1.997 . S
O20 C15 1.248 . S
C21 O4 1.295 . S
C21 O5 1.235 . S
Fe22 O24 1.918 . S
Fe22 O27 1.997 . S
Fe22 O28 2.002 . S
Fe22 O33 1.976 . S
Fe22 O36 1.996 . S
Fe23 O24 1.918 . S
Fe23 O31 1.997 . S
Fe23 O34 1.996 . S
Fe23 O38 1.976 . S
Fe23 O41 2.002 . S
O24 Fe22 1.918 . S
O24 Fe23 1.918 . S
O24 Fe25 1.918 . S
Fe25 O24 1.918 . S
Fe25 O26 2.002 . S
Fe25 O35 1.976 . S
Fe25 O39 1.996 . S
Fe25 O42 1.997 . S
O26 Fe25 2.002 . S
O26 C43 1.295 . S
O27 Fe22 1.997 . S
O27 C43 1.235 . S
O28 Fe22 2.002 . S
O28 C29 1.295 . S
C29 O28 1.295 . S
C29 O31 1.235 . S
C30 O35 1.287 . S
C30 O36 1.255 . S
O31 Fe23 1.997 . S
O31 C29 1.235 . S
C32 O38 1.287 . S
C32 O39 1.255 . S
O33 Fe22 1.976 . S
O33 C40 1.287 . S
O34 Fe23 1.996 . S
O34 C40 1.255 . S
O35 Fe25 1.976 . S
O35 C30 1.287 . S
O36 Fe22 1.996 . S
O36 C30 1.255 . S
C37 O41 1.295 . S
C37 O42 1.235 . S
O38 Fe23 1.976 . S
O38 C32 1.287 . S
O39 Fe25 1.996 . S
O39 C32 1.255 . S
C40 O33 1.287 . S
C40 O34 1.255 . S
O41 Fe23 2.002 . S
O41 C37 1.295 . S
O42 Fe25 1.997 . S
O42 C37 1.235 . S
C43 O26 1.295 . S
C43 O27 1.235 . S
Fe44 O46 1.918 . S
Fe44 O49 1.997 . S
Fe44 O50 2.002 . S
Fe44 O55 1.976 . S
Fe44 O58 1.996 . S
Fe45 O46 1.918 . S
Fe45 O53 1.997 . S
Fe45 O56 1.996 . S
Fe45 O60 1.976 . S
Fe45 O63 2.002 . S
O46 Fe44 1.918 . S
O46 Fe45 1.918 . S
O46 Fe47 1.918 . S
Fe47 O46 1.918 . S
Fe47 O48 2.002 . S
Fe47 O57 1.976 . S
Fe47 O61 1.996 . S
Fe47 O64 1.997 . S
O48 Fe47 2.002 . S
O48 C65 1.295 . S
O49 Fe44 1.997 . S
O49 C65 1.235 . S
O50 Fe44 2.002 . S
O50 C51 1.295 . S
C51 O50 1.295 . S
C51 O53 1.235 . S
C52 O57 1.287 . S
C52 O58 1.255 . S
O53 Fe45 1.997 . S
O53 C51 1.235 . S
C54 O60 1.287 . S
C54 O61 1.255 . S
O55 Fe44 1.976 . S
O55 C62 1.287 . S
O56 Fe45 1.996 . S
O56 C62 1.255 . S
O57 Fe47 1.976 . S
O57 C52 1.287 . S
O58 Fe44 1.996 . S
O58 C52 1.255 . S
C59 O63 1.295 . S
C59 O64 1.235 . S
O60 Fe45 1.976 . S
O60 C54 1.287 . S
O61 Fe47 1.996 . S
O61 C54 1.255 . S
C62 O55 1.287 . S
C62 O56 1.255 . S
O63 Fe45 2.002 . S
O63 C59 1.295 . S
O64 Fe47 1.997 . S
O64 C59 1.235 . S
C65 O48 1.295 . S
C65 O49 1.235 . S
Fe66 O68 1.918 . S
Fe66 O71 1.997 . S
Fe66 O72 2.002 . S
Fe66 O77 1.976 . S
Fe66 O80 1.996 . S
Fe67 O68 1.918 . S
Fe67 O75 1.997 . S
Fe67 O78 1.996 . S
Fe67 O82 1.976 . S
Fe67 O85 2.002 . S
O68 Fe66 1.918 . S
O68 Fe67 1.918 . S
O68 Fe69 1.918 . S
Fe69 O68 1.918 . S
Fe69 O70 2.002 . S
Fe69 O79 1.976 . S
Fe69 O83 1.996 . S
Fe69 O86 1.997 . S
O70 Fe69 2.002 . S
O70 C87 1.295 . S
O71 Fe66 1.997 . S
O71 C87 1.235 . S
O72 Fe66 2.002 . S
O72 C73 1.307 . S
C73 O72 1.307 . S
C73 O75 1.247 . S
C74 O79 1.287 . S
C74 O80 1.255 . S
O75 Fe67 1.997 . S
O75 C73 1.247 . S
C76 O82 1.287 . S
C76 O83 1.255 . S
O77 Fe66 1.976 . S
O77 C84 1.287 . S
O78 Fe67 1.996 . S
O78 C84 1.255 . S
O79 Fe69 1.976 . S
O79 C74 1.287 . S
O80 Fe66 1.996 . S
O80 C74 1.255 . S
C81 O85 1.295 . S
C81 O86 1.235 . S
O82 Fe67 1.976 . S
O82 C76 1.287 . S
O83 Fe69 1.996 . S
O83 C76 1.255 . S
C84 O77 1.287 . S
C84 O78 1.255 . S
O85 Fe67 2.002 . S
O85 C81 1.295 . S
O86 Fe69 1.997 . S
O86 C81 1.235 . S
C87 O70 1.295 . S
C87 O71 1.235 . S
Fe88 O90 1.918 . S
Fe88 O93 1.997 . S
Fe88 O94 2.002 . S
Fe88 O99 1.976 . S
Fe88 O102 1.996 . S
Fe89 O90 1.918 . S
Fe89 O97 1.997 . S
Fe89 O100 1.996 . S
Fe89 O104 1.976 . S
Fe89 O107 2.002 . S
O90 Fe88 1.918 . S
O90 Fe89 1.918 . S
O90 Fe91 1.918 . S
Fe91 O90 1.918 . S
Fe91 O92 2.002 . S
Fe91 O101 1.976 . S
Fe91 O105 1.996 . S
Fe91 O108 1.997 . S
O92 Fe91 2.002 . S
O92 C109 1.308 . S
O93 Fe88 1.997 . S
O93 C109 1.248 . S
O94 Fe88 2.002 . S
O94 C95 1.295 . S
C95 O94 1.295 . S
C95 O97 1.235 . S
C96 O101 1.287 . S
C96 O102 1.255 . S
O97 Fe89 1.997 . S
O97 C95 1.235 . S
C98 O104 1.287 . S
C98 O105 1.255 . S
O99 Fe88 1.976 . S
O99 C106 1.287 . S
O100 Fe89 1.996 . S
O100 C106 1.255 . S
O101 Fe91 1.976 . S
O101 C96 1.287 . S
O102 Fe88 1.996 . S
O102 C96 1.255 . S
C103 O107 1.295 . S
C103 O108 1.235 . S
O104 Fe89 1.976 . S
O104 C98 1.287 . S
O105 Fe91 1.996 . S
O105 C98 1.255 . S
C106 O99 1.287 . S
C106 O100 1.255 . S
O107 Fe89 2.002 . S
O107 C103 1.295 . S
O108 Fe91 1.997 . S
O108 C103 1.235 . S
C109 O92 1.308 . S
C109 O93 1.248 . S
Fe110 O112 1.918 . S
Fe110 O115 1.997 . S
Fe110 O116 2.002 . S
Fe110 O121 1.976 . S
Fe110 O124 1.996 . S
Fe111 O112 1.918 . S
Fe111 O119 1.997 . S
Fe111 O122 1.996 . S
Fe111 O126 1.976 . S
Fe111 O129 2.002 . S
O112 Fe110 1.918 . S
O112 Fe111 1.918 . S
O112 Fe113 1.918 . S
Fe113 O112 1.918 . S
Fe113 O114 2.002 . S
Fe113 O123 1.976 . S
Fe113 O127 1.996 . S
Fe113 O130 1.997 . S
O114 Fe113 2.002 . S
O114 C131 1.295 . S
O115 Fe110 1.997 . S
O115 C131 1.235 . S
O116 Fe110 2.002 . S
O116 C117 1.311 . S
C117 O116 1.311 . S
C117 O119 1.251 . S
C118 O123 1.287 . S
C118 O124 1.255 . S
O119 Fe111 1.997 . S
O119 C117 1.251 . S
C120 O126 1.287 . S
C120 O127 1.255 . S
O121 Fe110 1.976 . S
O121 C128 1.287 . S
O122 Fe111 1.996 . S
O122 C128 1.255 . S
O123 Fe113 1.976 . S
O123 C118 1.287 . S
O124 Fe110 1.996 . S
O124 C118 1.255 . S
C125 O129 1.295 . S
C125 O130 1.235 . S
O126 Fe111 1.976 . S
O126 C120 1.287 . S
O127 Fe113 1.996 . S
O127 C120 1.255 . S
C128 O121 1.287 . S
C128 O122 1.255 . S
O129 Fe111 2.002 . S
O129 C125 1.295 . S
O130 Fe113 1.997 . S
O130 C125 1.235 . S
C131 O114 1.295 . S
C131 O115 1.235 . S
Fe132 O134 1.918 . S
Fe132 O137 1.997 . S
Fe132 O138 2.002 . S
Fe132 O143 1.976 . S
Fe132 O146 1.996 . S
Fe133 O134 1.918 . S
Fe133 O141 1.997 . S
Fe133 O144 1.996 . S
Fe133 O148 1.976 . S
Fe133 O151 2.002 . S
O134 Fe132 1.918 . S
O134 Fe133 1.918 . S
O134 Fe135 1.918 . S
Fe135 O134 1.918 . S
Fe135 O136 2.002 . S
Fe135 O145 1.976 . S
Fe135 O149 1.996 . S
Fe135 O152 1.997 . S
O136 Fe135 2.002 . S
O136 C153 1.295 . S
O137 Fe132 1.997 . S
O137 C153 1.235 . S
O138 Fe132 2.002 . S
O138 C139 1.295 . S
C139 O138 1.295 . S
C139 O141 1.235 . S
C140 O145 1.287 . S
C140 O146 1.255 . S
O141 Fe133 1.997 . S
O141 C139 1.235 . S
C142 O148 1.287 . S
C142 O149 1.255 . S
O143 Fe132 1.976 . S
O143 C150 1.287 . S
O144 Fe133 1.996 . S
O144 C150 1.255 . S
O145 Fe135 1.976 . S
O145 C140 1.287 . S
O146 Fe132 1.996 . S
O146 C140 1.255 . S
C147 O151 1.295 . S
C147 O152 1.235 . S
O148 Fe133 1.976 . S
O148 C142 1.287 . S
O149 Fe135 1.996 . S
O149 C142 1.255 . S
C150 O143 1.287 . S
C150 O144 1.255 . S
O151 Fe133 2.002 . S
O151 C147 1.295 . S
O152 Fe135 1.997 . S
O152 C147 1.235 . S
C153 O136 1.295 . S
C153 O137 1.235 . S
Fe154 O156 1.918 . S
Fe154 O159 1.997 . S
Fe154 O160 2.002 . S
Fe154 O165 1.976 . S
Fe154 O168 1.996 . S
Fe155 O156 1.918 . S
Fe155 O163 1.997 . S
Fe155 O166 1.996 . S
Fe155 O170 1.976 . S
Fe155 O173 2.002 . S
O156 Fe154 1.918 . S
O156 Fe155 1.918 . S
O156 Fe157 1.918 . S
Fe157 O156 1.918 . S
Fe157 O158 2.002 . S
Fe157 O167 1.976 . S
Fe157 O171 1.996 . S
Fe157 O174 1.997 . S
O158 Fe157 2.002 . S
O158 C175 1.295 . S
O159 Fe154 1.997 . S
O159 C175 1.235 . S
O160 Fe154 2.002 . S
O160 C161 1.295 . S
C161 O160 1.295 . S
C161 O163 1.235 . S
C162 O167 1.287 . S
C162 O168 1.255 . S
O163 Fe155 1.997 . S
O163 C161 1.235 . S
C164 O170 1.287 . S
C164 O171 1.255 . S
O165 Fe154 1.976 . S
O165 C172 1.287 . S
O166 Fe155 1.996 . S
O166 C172 1.255 . S
O167 Fe157 1.976 . S
O167 C162 1.287 . S
O168 Fe154 1.996 . S
O168 C162 1.255 . S
C169 O173 1.295 . S
C169 O174 1.235 . S
O170 Fe155 1.976 . S
O170 C164 1.287 . S
O171 Fe157 1.996 . S
O171 C164 1.255 . S
C172 O165 1.287 . S
C172 O166 1.255 . S
O173 Fe155 2.002 . S
O173 C169 1.295 . S
O174 Fe157 1.997 . S
O174 C169 1.235 . S
C175 O158 1.295 . S
C175 O159 1.235 . S
Fe176 O178 1.918 . S
Fe176 O181 1.997 . S
Fe176 O182 2.002 . S
Fe176 O187 1.976 . S
Fe176 O190 1.996 . S
Fe177 O178 1.918 . S
Fe177 O185 1.997 . S
Fe177 O188 1.996 . S
Fe177 O192 1.976 . S
Fe177 O195 2.002 . S
O178 Fe176 1.918 . S
O178 Fe177 1.918 . S
O178 Fe179 1.918 . S
Fe179 O178 1.918 . S
Fe179 O180 2.002 . S
Fe179 O189 1.976 . S
Fe179 O193 1.996 . S
Fe179 O196 1.997 . S
O180 Fe179 2.002 . S
O180 C197 1.295 1_554 S
O181 Fe176 1.997 . S
O181 C197 1.236 1_554 S
O182 Fe176 2.002 . S
O182 C183 1.295 . S
C183 O182 1.295 . S
C183 O185 1.235 . S
C184 O189 1.287 . S
C184 O190 1.255 . S
O185 Fe177 1.997 . S
O185 C183 1.235 . S
C186 O192 1.287 . S
C186 O193 1.255 . S
O187 Fe176 1.976 . S
O187 C194 1.287 . S
O188 Fe177 1.996 . S
O188 C194 1.255 . S
O189 Fe179 1.976 . S
O189 C184 1.287 . S
O190 Fe176 1.996 . S
O190 C184 1.255 . S
C191 O195 1.295 . S
C191 O196 1.235 . S
O192 Fe177 1.976 . S
O192 C186 1.287 . S
O193 Fe179 1.996 . S
O193 C186 1.255 . S
C194 O187 1.287 . S
C194 O188 1.255 . S
O195 Fe177 2.002 . S
O195 C191 1.295 . S
O196 Fe179 1.997 . S
O196 C191 1.235 . S
C197 O180 1.295 1_556 S
C197 O181 1.236 1_556 S
Fe198 O200 1.918 . S
Fe198 O203 1.997 . S
Fe198 O204 2.002 . S
Fe198 O209 1.976 . S
Fe198 O212 1.996 . S
Fe199 O200 1.918 . S
Fe199 O207 1.997 . S
Fe199 O210 1.996 . S
Fe199 O214 1.976 . S
Fe199 O217 2.002 . S
O200 Fe198 1.918 . S
O200 Fe199 1.918 . S
O200 Fe201 1.918 . S
Fe201 O200 1.918 . S
Fe201 O202 2.002 . S
Fe201 O211 1.976 . S
Fe201 O215 1.996 . S
Fe201 O218 1.997 . S
O202 Fe201 2.002 . S
O202 C219 1.295 . S
O203 Fe198 1.997 . S
O203 C219 1.235 . S
O204 Fe198 2.002 . S
O204 C205 1.295 . S
C205 O204 1.295 . S
C205 O207 1.235 . S
C206 O211 1.287 . S
C206 O212 1.255 . S
O207 Fe199 1.997 . S
O207 C205 1.235 . S
C208 O214 1.287 . S
C208 O215 1.255 . S
O209 Fe198 1.976 . S
O209 C216 1.287 . S
O210 Fe199 1.996 . S
O210 C216 1.255 . S
O211 Fe201 1.976 . S
O211 C206 1.287 . S
O212 Fe198 1.996 . S
O212 C206 1.255 . S
C213 O217 1.305 . S
C213 O218 1.245 . S
O214 Fe199 1.976 . S
O214 C208 1.287 . S
O215 Fe201 1.996 . S
O215 C208 1.255 . S
C216 O209 1.287 . S
C216 O210 1.255 . S
O217 Fe199 2.002 . S
O217 C213 1.305 . S
O218 Fe201 1.997 . S
O218 C213 1.245 . S
C219 O202 1.295 . S
C219 O203 1.235 . S
Fe220 O222 1.918 . S
Fe220 O225 1.997 . S
Fe220 O226 2.002 . S
Fe220 O231 1.976 . S
Fe220 O234 1.996 . S
Fe221 O222 1.918 . S
Fe221 O229 1.997 . S
Fe221 O232 1.996 . S
Fe221 O236 1.976 . S
Fe221 O239 2.002 . S
O222 Fe220 1.918 . S
O222 Fe221 1.918 . S
O222 Fe223 1.918 . S
Fe223 O222 1.918 . S
Fe223 O224 2.002 . S
Fe223 O233 1.976 . S
Fe223 O237 1.996 . S
Fe223 O240 1.997 . S
O224 Fe223 2.002 . S
O224 C241 1.295 . S
O225 Fe220 1.997 . S
O225 C241 1.235 . S
O226 Fe220 2.002 . S
O226 C227 1.295 . S
C227 O226 1.295 . S
C227 O229 1.235 . S
C228 O233 1.287 . S
C228 O234 1.255 . S
O229 Fe221 1.997 . S
O229 C227 1.235 . S
C230 O236 1.287 . S
C230 O237 1.255 . S
O231 Fe220 1.976 . S
O231 C238 1.287 . S
O232 Fe221 1.996 . S
O232 C238 1.255 . S
O233 Fe223 1.976 . S
O233 C228 1.287 . S
O234 Fe220 1.996 . S
O234 C228 1.255 . S
C235 O239 1.295 . S
C235 O240 1.235 . S
O236 Fe221 1.976 . S
O236 C230 1.287 . S
O237 Fe223 1.996 . S
O237 C230 1.255 . S
C238 O231 1.287 . S
C238 O232 1.255 . S
O239 Fe221 2.002 . S
O239 C235 1.295 . S
O240 Fe223 1.997 . S
O240 C235 1.235 . S
C241 O224 1.295 . S
C241 O225 1.235 . S
Fe242 O244 1.918 . S
Fe242 O247 1.997 . S
Fe242 O248 2.002 . S
Fe242 O253 1.976 . S
Fe242 O256 1.996 . S
Fe243 O244 1.918 . S
Fe243 O251 1.997 . S
Fe243 O254 1.996 . S
Fe243 O258 1.976 . S
Fe243 O261 2.002 . S
O244 Fe242 1.918 . S
O244 Fe243 1.918 . S
O244 Fe245 1.918 . S
Fe245 O244 1.918 . S
Fe245 O246 2.002 . S
Fe245 O255 1.976 . S
Fe245 O259 1.996 . S
Fe245 O262 1.997 . S
O246 Fe245 2.002 . S
O246 C263 1.295 . S
O247 Fe242 1.997 . S
O247 C263 1.235 . S
O248 Fe242 2.002 . S
O248 C249 1.295 . S
C249 O248 1.295 . S
C249 O251 1.235 . S
C250 O255 1.287 . S
C250 O256 1.255 . S
O251 Fe243 1.997 . S
O251 C249 1.235 . S
C252 O258 1.287 . S
C252 O259 1.255 . S
O253 Fe242 1.976 . S
O253 C260 1.287 . S
O254 Fe243 1.996 . S
O254 C260 1.255 . S
O255 Fe245 1.976 . S
O255 C250 1.287 . S
O256 Fe242 1.996 . S
O256 C250 1.255 . S
C257 O261 1.295 . S
C257 O262 1.235 . S
O258 Fe243 1.976 . S
O258 C252 1.287 . S
O259 Fe245 1.996 . S
O259 C252 1.255 . S
C260 O253 1.287 . S
C260 O254 1.255 . S
O261 Fe243 2.002 . S
O261 C257 1.295 . S
O262 Fe245 1.997 . S
O262 C257 1.235 . S
C263 O246 1.295 . S
C263 O247 1.235 . S
Fe264 O266 1.918 . S
Fe264 O269 1.997 . S
Fe264 O270 2.002 . S
Fe264 O275 1.976 . S
Fe264 O278 1.996 . S
Fe265 O266 1.918 . S
Fe265 O273 1.997 . S
Fe265 O276 1.996 . S
Fe265 O280 1.976 . S
Fe265 O283 2.002 . S
O266 Fe264 1.918 . S
O266 Fe265 1.918 . S
O266 Fe267 1.918 . S
Fe267 O266 1.918 . S
Fe267 O268 2.002 . S
Fe267 O277 1.976 . S
Fe267 O281 1.996 . S
Fe267 O284 1.997 . S
O268 Fe267 2.002 . S
O268 C285 1.295 . S
O269 Fe264 1.997 . S
O269 C285 1.235 . S
O270 Fe264 2.002 . S
O270 C271 1.295 . S
C271 O270 1.295 . S
C271 O273 1.235 . S
C272 O277 1.287 . S
C272 O278 1.255 . S
O273 Fe265 1.997 . S
O273 C271 1.235 . S
C274 O280 1.287 . S
C274 O281 1.255 . S
O275 Fe264 1.976 . S
O275 C282 1.287 . S
O276 Fe265 1.996 . S
O276 C282 1.255 . S
O277 Fe267 1.976 . S
O277 C272 1.287 . S
O278 Fe264 1.996 . S
O278 C272 1.255 . S
C279 O283 1.295 . S
C279 O284 1.235 . S
O280 Fe265 1.976 . S
O280 C274 1.287 . S
O281 Fe267 1.996 . S
O281 C274 1.255 . S
C282 O275 1.287 . S
C282 O276 1.255 . S
O283 Fe265 2.002 . S
O283 C279 1.295 . S
O284 Fe267 1.997 . S
O284 C279 1.235 . S
C285 O268 1.295 . S
C285 O269 1.235 . S
Fe286 O288 1.918 . S
Fe286 O291 1.997 . S
Fe286 O292 2.002 . S
Fe286 O297 1.976 . S
Fe286 O300 1.996 . S
Fe287 O288 1.918 . S
Fe287 O295 1.997 . S
Fe287 O298 1.996 . S
Fe287 O302 1.976 . S
Fe287 O305 2.002 . S
O288 Fe286 1.918 . S
O288 Fe287 1.918 . S
O288 Fe289 1.918 . S
Fe289 O288 1.918 . S
Fe289 O290 2.002 . S
Fe289 O299 1.976 . S
Fe289 O303 1.996 . S
Fe289 O306 1.997 . S
O290 Fe289 2.002 . S
O290 C307 1.295 . S
O291 Fe286 1.997 . S
O291 C307 1.235 . S
O292 Fe286 2.002 . S
O292 C293 1.295 . S
C293 O292 1.295 . S
C293 O295 1.235 . S
C294 O299 1.287 . S
C294 O300 1.255 . S
O295 Fe287 1.997 . S
O295 C293 1.235 . S
C296 O302 1.287 . S
C296 O303 1.255 . S
O297 Fe286 1.976 . S
O297 C304 1.287 . S
O298 Fe287 1.996 . S
O298 C304 1.255 . S
O299 Fe289 1.976 . S
O299 C294 1.287 . S
O300 Fe286 1.996 . S
O300 C294 1.255 . S
C301 O305 1.295 . S
C301 O306 1.235 . S
O302 Fe287 1.976 . S
O302 C296 1.287 . S
O303 Fe289 1.996 . S
O303 C296 1.255 . S
C304 O297 1.287 . S
C304 O298 1.255 . S
O305 Fe287 2.002 . S
O305 C301 1.295 . S
O306 Fe289 1.997 . S
O306 C301 1.235 . S
C307 O290 1.295 . S
C307 O291 1.235 . S
Fe308 O310 1.918 . S
Fe308 O313 1.997 . S
Fe308 O314 2.002 . S
Fe308 O319 1.976 . S
Fe308 O322 1.996 . S
Fe309 O310 1.918 . S
Fe309 O317 1.997 . S
Fe309 O320 1.996 . S
Fe309 O324 1.976 . S
Fe309 O327 2.002 . S
O310 Fe308 1.918 . S
O310 Fe309 1.918 . S
O310 Fe311 1.918 . S
Fe311 O310 1.918 . S
Fe311 O312 2.002 . S
Fe311 O321 1.976 . S
Fe311 O325 1.996 . S
Fe311 O328 1.997 . S
O312 Fe311 2.002 . S
O312 C329 1.295 . S
O313 Fe308 1.997 . S
O313 C329 1.235 . S
O314 Fe308 2.002 . S
O314 C315 1.295 . S
C315 O314 1.295 . S
C315 O317 1.235 . S
C316 O321 1.287 . S
C316 O322 1.255 . S
O317 Fe309 1.997 . S
O317 C315 1.235 . S
C318 O324 1.287 . S
C318 O325 1.255 . S
O319 Fe308 1.976 . S
O319 C326 1.287 . S
O320 Fe309 1.996 . S
O320 C326 1.255 . S
O321 Fe311 1.976 . S
O321 C316 1.287 . S
O322 Fe308 1.996 . S
O322 C316 1.255 . S
C323 O327 1.295 . S
C323 O328 1.235 . S
O324 Fe309 1.976 . S
O324 C318 1.287 . S
O325 Fe311 1.996 . S
O325 C318 1.255 . S
C326 O319 1.287 . S
C326 O320 1.255 . S
O327 Fe309 2.002 . S
O327 C323 1.295 . S
O328 Fe311 1.997 . S
O328 C323 1.235 . S
C329 O312 1.295 . S
C329 O313 1.235 . S
Fe330 O332 1.918 . S
Fe330 O335 1.997 . S
Fe330 O336 2.002 . S
Fe330 O341 1.976 . S
Fe330 O344 1.996 . S
Fe331 O332 1.918 . S
Fe331 O339 1.997 . S
Fe331 O342 1.996 . S
Fe331 O346 1.976 . S
Fe331 O349 2.002 . S
O332 Fe330 1.918 . S
O332 Fe331 1.918 . S
O332 Fe333 1.918 . S
Fe333 O332 1.918 . S
Fe333 O334 2.002 . S
Fe333 O343 1.976 . S
Fe333 O347 1.996 . S
Fe333 O350 1.997 . S
O334 Fe333 2.002 . S
O334 C351 1.295 . S
O335 Fe330 1.997 . S
O335 C351 1.235 . S
O336 Fe330 2.002 . S
O336 C337 1.295 . S
C337 O336 1.295 . S
C337 O339 1.235 . S
C338 O343 1.287 . S
C338 O344 1.255 . S
O339 Fe331 1.997 . S
O339 C337 1.235 . S
C340 O346 1.287 . S
C340 O347 1.255 . S
O341 Fe330 1.976 . S
O341 C348 1.287 . S
O342 Fe331 1.996 . S
O342 C348 1.255 . S
O343 Fe333 1.976 . S
O343 C338 1.287 . S
O344 Fe330 1.996 . S
O344 C338 1.255 . S
C345 O349 1.295 . S
C345 O350 1.235 . S
O346 Fe331 1.976 . S
O346 C340 1.287 . S
O347 Fe333 1.996 . S
O347 C340 1.255 . S
C348 O341 1.287 . S
C348 O342 1.255 . S
O349 Fe331 2.002 . S
O349 C345 1.295 . S
O350 Fe333 1.997 . S
O350 C345 1.235 . S
C351 O334 1.295 . S
C351 O335 1.235 . S
Fe352 O354 1.918 . S
Fe352 O357 1.997 . S
Fe352 O358 2.002 . S
Fe352 O363 1.976 . S
Fe352 O366 1.996 . S
Fe353 O354 1.918 . S
Fe353 O361 1.997 . S
Fe353 O364 1.996 . S
Fe353 O368 1.976 . S
Fe353 O371 2.002 . S
O354 Fe352 1.918 . S
O354 Fe353 1.918 . S
O354 Fe355 1.918 . S
Fe355 O354 1.918 . S
Fe355 O356 2.002 . S
Fe355 O365 1.976 . S
Fe355 O369 1.996 . S
Fe355 O372 1.997 . S
O356 Fe355 2.002 . S
O356 C373 1.295 . S
O357 Fe352 1.997 . S
O357 C373 1.235 . S
O358 Fe352 2.002 . S
O358 C359 1.295 . S
C359 O358 1.295 . S
C359 O361 1.235 . S
C360 O365 1.287 . S
C360 O366 1.255 . S
O361 Fe353 1.997 . S
O361 C359 1.235 . S
C362 O368 1.287 . S
C362 O369 1.255 . S
O363 Fe352 1.976 . S
O363 C370 1.287 . S
O364 Fe353 1.996 . S
O364 C370 1.255 . S
O365 Fe355 1.976 . S
O365 C360 1.287 . S
O366 Fe352 1.996 . S
O366 C360 1.255 . S
C367 O371 1.304 . S
C367 O372 1.244 . S
O368 Fe353 1.976 . S
O368 C362 1.287 . S
O369 Fe355 1.996 . S
O369 C362 1.255 . S
C370 O363 1.287 . S
C370 O364 1.255 . S
O371 Fe353 2.002 . S
O371 C367 1.304 . S
O372 Fe355 1.997 . S
O372 C367 1.244 . S
C373 O356 1.295 . S
C373 O357 1.235 . S
Fe374 O376 1.918 . S
Fe374 O379 1.997 . S
Fe374 O380 2.002 . S
Fe374 O385 1.976 . S
Fe374 O388 1.996 . S
Fe375 O376 1.918 . S
Fe375 O383 1.997 . S
Fe375 O386 1.996 . S
Fe375 O390 1.976 . S
Fe375 O393 2.002 . S
O376 Fe374 1.918 . S
O376 Fe375 1.918 . S
O376 Fe377 1.918 . S
Fe377 O376 1.918 . S
Fe377 O378 2.002 . S
Fe377 O387 1.976 . S
Fe377 O391 1.996 . S
Fe377 O394 1.997 . S
O378 Fe377 2.002 . S
O378 C395 1.295 . S
O379 Fe374 1.997 . S
O379 C395 1.235 . S
O380 Fe374 2.002 . S
O380 C381 1.295 . S
C381 O380 1.295 . S
C381 O383 1.235 . S
C382 O387 1.287 . S
C382 O388 1.255 . S
O383 Fe375 1.997 . S
O383 C381 1.235 . S
C384 O390 1.287 . S
C384 O391 1.255 . S
O385 Fe374 1.976 . S
O385 C392 1.287 . S
O386 Fe375 1.996 . S
O386 C392 1.255 . S
O387 Fe377 1.976 . S
O387 C382 1.287 . S
O388 Fe374 1.996 . S
O388 C382 1.255 . S
C389 O393 1.308 . S
C389 O394 1.248 . S
O390 Fe375 1.976 . S
O390 C384 1.287 . S
O391 Fe377 1.996 . S
O391 C384 1.255 . S
C392 O385 1.287 . S
C392 O386 1.255 . S
O393 Fe375 2.002 . S
O393 C389 1.308 . S
O394 Fe377 1.997 . S
O394 C389 1.248 . S
C395 O378 1.295 . S
C395 O379 1.235 . S
Fe396 O398 1.918 . S
Fe396 O401 1.997 . S
Fe396 O402 2.002 . S
Fe396 O407 1.976 . S
Fe396 O410 1.996 . S
Fe397 O398 1.918 . S
Fe397 O405 1.997 . S
Fe397 O408 1.996 . S
Fe397 O412 1.976 . S
Fe397 O415 2.002 . S
O398 Fe396 1.918 . S
O398 Fe397 1.918 . S
O398 Fe399 1.918 . S
Fe399 O398 1.918 . S
Fe399 O400 2.002 . S
Fe399 O409 1.976 . S
Fe399 O413 1.996 . S
Fe399 O416 1.997 . S
O400 Fe399 2.002 . S
O400 C417 1.295 . S
O401 Fe396 1.997 . S
O401 C417 1.235 . S
O402 Fe396 2.002 . S
O402 C403 1.295 . S
C403 O402 1.295 . S
C403 O405 1.235 . S
C404 O409 1.287 . S
C404 O410 1.255 . S
O405 Fe397 1.997 . S
O405 C403 1.235 . S
C406 O412 1.287 . S
C406 O413 1.255 . S
O407 Fe396 1.976 . S
O407 C414 1.287 . S
O408 Fe397 1.996 . S
O408 C414 1.255 . S
O409 Fe399 1.976 . S
O409 C404 1.287 . S
O410 Fe396 1.996 . S
O410 C404 1.255 . S
C411 O415 1.295 . S
C411 O416 1.235 . S
O412 Fe397 1.976 . S
O412 C406 1.287 . S
O413 Fe399 1.996 . S
O413 C406 1.255 . S
C414 O407 1.287 . S
C414 O408 1.255 . S
O415 Fe397 2.002 . S
O415 C411 1.295 . S
O416 Fe399 1.997 . S
O416 C411 1.235 . S
C417 O400 1.295 . S
C417 O401 1.235 . S
Fe418 O420 1.918 . S
Fe418 O423 1.997 . S
Fe418 O424 2.002 . S
Fe418 O429 1.976 . S
Fe418 O432 1.996 . S
Fe419 O420 1.918 . S
Fe419 O427 1.997 . S
Fe419 O430 1.996 . S
Fe419 O434 1.976 . S
Fe419 O437 2.002 . S
O420 Fe418 1.918 . S
O420 Fe419 1.918 . S
O420 Fe421 1.918 . S
Fe421 O420 1.918 . S
Fe421 O422 2.002 . S
Fe421 O431 1.976 . S
Fe421 O435 1.996 . S
Fe421 O438 1.997 . S
O422 Fe421 2.002 . S
O422 C439 1.295 . S
O423 Fe418 1.997 . S
O423 C439 1.235 . S
O424 Fe418 2.002 . S
O424 C425 1.295 . S
C425 O424 1.295 . S
C425 O427 1.235 . S
C426 O431 1.287 . S
C426 O432 1.255 . S
O427 Fe419 1.997 . S
O427 C425 1.235 . S
C428 O434 1.287 . S
C428 O435 1.255 . S
O429 Fe418 1.976 . S
O429 C436 1.287 . S
O430 Fe419 1.996 . S
O430 C436 1.255 . S
O431 Fe421 1.976 . S
O431 C426 1.287 . S
O432 Fe418 1.996 . S
O432 C426 1.255 . S
C433 O437 1.295 . S
C433 O438 1.235 . S
O434 Fe419 1.976 . S
O434 C428 1.287 . S
O435 Fe421 1.996 . S
O435 C428 1.255 . S
C436 O429 1.287 . S
C436 O430 1.255 . S
O437 Fe419 2.002 . S
O437 C433 1.295 . S
O438 Fe421 1.997 . S
O438 C433 1.235 . S
C439 O422 1.295 . S
C439 O423 1.235 . S
Fe440 O442 1.918 . S
Fe440 O445 1.997 . S
Fe440 O446 2.002 . S
Fe440 O451 1.976 . S
Fe440 O454 1.996 . S
Fe441 O442 1.918 . S
Fe441 O449 1.997 . S
Fe441 O452 1.996 . S
Fe441 O456 1.976 . S
Fe441 O459 2.002 . S
O442 Fe440 1.918 . S
O442 Fe441 1.918 . S
O442 Fe443 1.918 . S
Fe443 O442 1.918 . S
Fe443 O444 2.002 . S
Fe443 O453 1.976 . S
Fe443 O457 1.996 . S
Fe443 O460 1.997 . S
O444 Fe443 2.002 . S
O444 C461 1.295 . S
O445 Fe440 1.997 . S
O445 C461 1.235 . S
O446 Fe440 2.002 . S
O446 C447 1.295 . S
C447 O446 1.295 . S
C447 O449 1.235 . S
C448 O453 1.287 . S
C448 O454 1.255 . S
O449 Fe441 1.997 . S
O449 C447 1.235 . S
C450 O456 1.287 . S
C450 O457 1.255 . S
O451 Fe440 1.976 . S
O451 C458 1.287 . S
O452 Fe441 1.996 . S
O452 C458 1.255 . S
O453 Fe443 1.976 . S
O453 C448 1.287 . S
O454 Fe440 1.996 . S
O454 C448 1.255 . S
C455 O459 1.306 . S
C455 O460 1.246 . S
O456 Fe441 1.976 . S
O456 C450 1.287 . S
O457 Fe443 1.996 . S
O457 C450 1.255 . S
C458 O451 1.287 . S
C458 O452 1.255 . S
O459 Fe441 2.002 . S
O459 C455 1.306 . S
O460 Fe443 1.997 . S
O460 C455 1.246 . S
C461 O444 1.295 . S
C461 O445 1.235 . S
Fe462 O464 1.918 . S
Fe462 O467 1.997 . S
Fe462 O468 2.002 . S
Fe462 O473 1.976 . S
Fe462 O476 1.996 . S
Fe463 O464 1.918 . S
Fe463 O471 1.997 . S
Fe463 O474 1.996 . S
Fe463 O478 1.976 . S
Fe463 O481 2.002 . S
O464 Fe462 1.918 . S
O464 Fe463 1.918 . S
O464 Fe465 1.918 . S
Fe465 O464 1.918 . S
Fe465 O466 2.002 . S
Fe465 O475 1.976 . S
Fe465 O479 1.996 . S
Fe465 O482 1.997 . S
O466 Fe465 2.002 . S
O466 C483 1.295 . S
O467 Fe462 1.997 . S
O467 C483 1.235 . S
O468 Fe462 2.002 . S
O468 C469 1.295 . S
C469 O468 1.295 . S
C469 O471 1.235 . S
C470 O475 1.287 . S
C470 O476 1.255 . S
O471 Fe463 1.997 . S
O471 C469 1.235 . S
C472 O478 1.287 . S
C472 O479 1.255 . S
O473 Fe462 1.976 . S
O473 C480 1.287 . S
O474 Fe463 1.996 . S
O474 C480 1.255 . S
O475 Fe465 1.976 . S
O475 C470 1.287 . S
O476 Fe462 1.996 . S
O476 C470 1.255 . S
C477 O481 1.295 . S
C477 O482 1.235 . S
O478 Fe463 1.976 . S
O478 C472 1.287 . S
O479 Fe465 1.996 . S
O479 C472 1.255 . S
C480 O473 1.287 . S
C480 O474 1.255 . S
O481 Fe463 2.002 . S
O481 C477 1.295 . S
O482 Fe465 1.997 . S
O482 C477 1.235 . S
C483 O466 1.295 . S
C483 O467 1.235 . S
Fe484 O486 1.918 . S
Fe484 O489 1.997 . S
Fe484 O490 2.002 . S
Fe484 O495 1.976 . S
Fe484 O498 1.996 . S
Fe485 O486 1.918 . S
Fe485 O493 1.997 . S
Fe485 O496 1.996 . S
Fe485 O500 1.976 . S
Fe485 O503 2.002 . S
O486 Fe484 1.918 . S
O486 Fe485 1.918 . S
O486 Fe487 1.918 . S
Fe487 O486 1.918 . S
Fe487 O488 2.002 . S
Fe487 O497 1.976 . S
Fe487 O501 1.996 . S
Fe487 O504 1.997 . S
O488 Fe487 2.002 . S
O488 C505 1.295 . S
O489 Fe484 1.997 . S
O489 C505 1.235 . S
O490 Fe484 2.002 . S
O490 C491 1.295 . S
C491 O490 1.295 . S
C491 O493 1.235 . S
C492 O497 1.287 . S
C492 O498 1.255 . S
O493 Fe485 1.997 . S
O493 C491 1.235 . S
C494 O500 1.287 . S
C494 O501 1.255 . S
O495 Fe484 1.976 . S
O495 C502 1.287 . S
O496 Fe485 1.996 . S
O496 C502 1.255 . S
O497 Fe487 1.976 . S
O497 C492 1.287 . S
O498 Fe484 1.996 . S
O498 C492 1.255 . S
C499 O503 1.295 . S
C499 O504 1.235 . S
O500 Fe485 1.976 . S
O500 C494 1.287 . S
O501 Fe487 1.996 . S
O501 C494 1.255 . S
C502 O495 1.287 . S
C502 O496 1.255 . S
O503 Fe485 2.002 . S
O503 C499 1.295 . S
O504 Fe487 1.997 . S
O504 C499 1.235 . S
C505 O488 1.295 . S
C505 O489 1.235 . S
Fe506 O508 1.918 . S
Fe506 O511 1.997 . S
Fe506 O512 2.002 . S
Fe506 O517 1.976 . S
Fe506 O520 1.996 . S
Fe507 O508 1.918 . S
Fe507 O515 1.997 . S
Fe507 O518 1.996 . S
Fe507 O522 1.976 . S
Fe507 O525 2.002 . S
O508 Fe506 1.918 . S
O508 Fe507 1.918 . S
O508 Fe509 1.918 . S
Fe509 O508 1.918 . S
Fe509 O510 2.002 . S
Fe509 O519 1.976 . S
Fe509 O523 1.996 . S
Fe509 O526 1.997 . S
O510 Fe509 2.002 . S
O510 C527 1.295 . S
O511 Fe506 1.997 . S
O511 C527 1.235 . S
O512 Fe506 2.002 . S
O512 C513 1.295 . S
C513 O512 1.295 . S
C513 O515 1.235 . S
C514 O519 1.287 . S
C514 O520 1.255 . S
O515 Fe507 1.997 . S
O515 C513 1.235 . S
C516 O522 1.287 . S
C516 O523 1.255 . S
O517 Fe506 1.976 . S
O517 C524 1.287 . S
O518 Fe507 1.996 . S
O518 C524 1.255 . S
O519 Fe509 1.976 . S
O519 C514 1.287 . S
O520 Fe506 1.996 . S
O520 C514 1.255 . S
C521 O525 1.295 . S
C521 O526 1.235 . S
O522 Fe507 1.976 . S
O522 C516 1.287 . S
O523 Fe509 1.996 . S
O523 C516 1.255 . S
C524 O517 1.287 . S
C524 O518 1.255 . S
O525 Fe507 2.002 . S
O525 C521 1.295 . S
O526 Fe509 1.997 . S
O526 C521 1.235 . S
C527 O510 1.295 . S
C527 O511 1.235 . S
H528 C536 0.950 . S
H529 C541 0.950 . S
H530 C538 0.950 . S
H531 C540 0.950 . S
H532 C542 0.950 . S
H533 C544 0.950 . S
H534 C546 0.950 . S
H535 C547 0.950 . S
C536 H528 0.950 . S
C536 C537 1.386 . S
C536 C538 1.391 . S
C537 C536 1.386 . S
C537 C541 1.393 . S
C538 H530 0.950 . S
C538 C536 1.391 . S
C538 C539 1.400 . S
C539 C538 1.400 . S
C539 C540 1.398 . S
C539 C545 1.491 . S
C540 H531 0.950 . S
C540 C539 1.398 . S
C540 C541 1.391 . S
C541 H529 0.950 . S
C541 C537 1.393 . S
C541 C540 1.391 . S
C542 H532 0.950 . S
C542 C543 1.386 . S
C542 C544 1.391 . S
C543 C542 1.386 . S
C543 C547 1.393 . S
C544 H533 0.950 . S
C544 C542 1.391 . S
C544 C545 1.400 . S
C545 C539 1.491 . S
C545 C544 1.400 . S
C545 C546 1.398 . S
C546 H534 0.950 . S
C546 C545 1.398 . S
C546 C547 1.391 . S
C547 H535 0.950 . S
C547 C543 1.393 . S
C547 C546 1.391 . S
H548 C556 0.950 . S
H549 C561 0.950 . S
H550 C558 0.950 . S
H551 C560 0.950 . S
H552 C562 0.950 . S
H553 C564 0.950 . S
H554 C566 0.950 . S
H555 C567 0.950 . S
C556 H548 0.950 . S
C556 C557 1.386 . S
C556 C558 1.391 . S
C557 C556 1.386 . S
C557 C561 1.393 . S
C558 H550 0.950 . S
C558 C556 1.391 . S
C558 C559 1.400 . S
C559 C558 1.400 . S
C559 C560 1.398 . S
C559 C565 1.491 . S
C560 H551 0.950 . S
C560 C559 1.398 . S
C560 C561 1.391 . S
C561 H549 0.950 . S
C561 C557 1.393 . S
C561 C560 1.391 . S
C562 H552 0.950 . S
C562 C563 1.386 . S
C562 C564 1.391 . S
C563 C562 1.386 . S
C563 C567 1.393 . S
C564 H553 0.950 . S
C564 C562 1.391 . S
C564 C565 1.400 . S
C565 C559 1.491 . S
C565 C564 1.400 . S
C565 C566 1.398 . S
C566 H554 0.950 . S
C566 C565 1.398 . S
C566 C567 1.391 . S
C567 H555 0.950 . S
C567 C563 1.393 . S
C567 C566 1.391 . S
H568 C576 0.950 . S
H569 C581 0.950 . S
H570 C578 0.950 . S
H571 C580 0.950 . S
H572 C582 0.950 . S
H573 C584 0.950 . S
H574 C586 0.950 . S
H575 C587 0.950 . S
C576 H568 0.950 . S
C576 C577 1.386 . S
C576 C578 1.391 . S
C577 C576 1.386 . S
C577 C581 1.393 . S
C578 H570 0.950 . S
C578 C576 1.391 . S
C578 C579 1.400 . S
C579 C578 1.400 . S
C579 C580 1.398 . S
C579 C585 1.491 . S
C580 H571 0.950 . S
C580 C579 1.398 . S
C580 C581 1.391 . S
C581 H569 0.950 . S
C581 C577 1.393 . S
C581 C580 1.391 . S
C582 H572 0.950 . S
C582 C583 1.386 . S
C582 C584 1.391 . S
C583 C582 1.386 . S
C583 C587 1.393 . S
C584 H573 0.950 . S
C584 C582 1.391 . S
C584 C585 1.400 . S
C585 C579 1.491 . S
C585 C584 1.400 . S
C585 C586 1.398 . S
C586 H574 0.950 . S
C586 C585 1.398 . S
C586 C587 1.391 . S
C587 H575 0.950 . S
C587 C583 1.393 . S
C587 C586 1.391 . S
H588 C596 0.950 . S
H589 C601 0.950 . S
H590 C598 0.950 . S
H591 C600 0.950 . S
H592 C602 0.950 1_545 S
H593 C604 0.950 . S
H594 C606 0.950 . S
H595 C607 0.950 . S
C596 H588 0.950 . S
C596 C597 1.386 . S
C596 C598 1.391 . S
C597 C596 1.386 . S
C597 C601 1.393 . S
C598 H590 0.950 . S
C598 C596 1.391 . S
C598 C599 1.400 . S
C599 C598 1.400 . S
C599 C600 1.398 . S
C599 C605 1.491 . S
C600 H591 0.950 . S
C600 C599 1.398 . S
C600 C601 1.391 . S
C601 H589 0.950 . S
C601 C597 1.393 . S
C601 C600 1.391 . S
C602 H592 0.950 1_565 S
C602 C603 1.386 . S
C602 C604 1.391 . S
C603 C602 1.386 . S
C603 C607 1.393 . S
C604 H593 0.950 . S
C604 C602 1.391 . S
C604 C605 1.400 . S
C605 C599 1.491 . S
C605 C604 1.400 . S
C605 C606 1.398 . S
C606 H594 0.950 . S
C606 C605 1.398 . S
C606 C607 1.391 . S
C607 H595 0.950 . S
C607 C603 1.393 . S
C607 C606 1.391 . S
H608 C616 0.950 . S
H609 C621 0.950 . S
H610 C618 0.950 . S
H611 C620 0.950 . S
H612 C622 0.950 . S
H613 C624 0.950 . S
H614 C626 0.950 . S
H615 C627 0.950 . S
C616 H608 0.950 . S
C616 C617 1.386 . S
C616 C618 1.391 . S
C617 C616 1.386 . S
C617 C621 1.393 . S
C618 H610 0.950 . S
C618 C616 1.391 . S
C618 C619 1.400 . S
C619 C618 1.400 . S
C619 C620 1.398 . S
C619 C625 1.491 . S
C620 H611 0.950 . S
C620 C619 1.398 . S
C620 C621 1.391 . S
C621 H609 0.950 . S
C621 C617 1.393 . S
C621 C620 1.391 . S
C622 H612 0.950 . S
C622 C623 1.386 . S
C622 C624 1.391 . S
C623 C622 1.386 . S
C623 C627 1.393 . S
C624 H613 0.950 . S
C624 C622 1.391 . S
C624 C625 1.400 . S
C625 C619 1.491 . S
C625 C624 1.400 . S
C625 C626 1.398 . S
C626 H614 0.950 . S
C626 C625 1.398 . S
C626 C627 1.391 . S
C627 H615 0.950 . S
C627 C623 1.393 . S
C627 C626 1.391 . S
H628 C636 0.950 . S
H629 C641 0.950 . S
H630 C638 0.950 . S
H631 C640 0.950 . S
H632 C642 0.950 . S
H633 C644 0.950 . S
H634 C646 0.950 . S
H635 C647 0.950 . S
C636 H628 0.950 . S
C636 C637 1.386 . S
C636 C638 1.391 . S
C637 C636 1.386 . S
C637 C641 1.393 . S
C638 H630 0.950 . S
C638 C636 1.391 . S
C638 C639 1.400 . S
C639 C638 1.400 . S
C639 C640 1.398 . S
C639 C645 1.491 . S
C640 H631 0.950 . S
C640 C639 1.398 . S
C640 C641 1.391 . S
C641 H629 0.950 . S
C641 C637 1.393 . S
C641 C640 1.391 . S
C642 H632 0.950 . S
C642 C643 1.386 . S
C642 C644 1.391 . S
C643 C642 1.386 . S
C643 C647 1.393 . S
C644 H633 0.950 . S
C644 C642 1.391 . S
C644 C645 1.400 . S
C645 C639 1.491 . S
C645 C644 1.400 . S
C645 C646 1.398 . S
C646 H634 0.950 . S
C646 C645 1.398 . S
C646 C647 1.391 . S
C647 H635 0.950 . S
C647 C643 1.393 . S
C647 C646 1.391 . S
H648 C656 0.950 . S
H649 C661 0.950 . S
H650 C658 0.950 . S
H651 C660 0.950 . S
H652 C662 0.950 . S
H653 C664 0.950 . S
H654 C666 0.950 . S
H655 C667 0.950 . S
C656 H648 0.950 . S
C656 C657 1.386 . S
C656 C658 1.391 . S
C657 C656 1.386 . S
C657 C661 1.393 . S
C658 H650 0.950 . S
C658 C656 1.391 . S
C658 C659 1.400 . S
C659 C658 1.400 . S
C659 C660 1.398 . S
C659 C665 1.491 . S
C660 H651 0.950 . S
C660 C659 1.398 . S
C660 C661 1.391 . S
C661 H649 0.950 . S
C661 C657 1.393 . S
C661 C660 1.391 . S
C662 H652 0.950 . S
C662 C663 1.386 . S
C662 C664 1.391 . S
C663 C662 1.386 . S
C663 C667 1.393 . S
C664 H653 0.950 . S
C664 C662 1.391 . S
C664 C665 1.400 . S
C665 C659 1.491 . S
C665 C664 1.400 . S
C665 C666 1.398 . S
C666 H654 0.950 . S
C666 C665 1.398 . S
C666 C667 1.391 . S
C667 H655 0.950 . S
C667 C663 1.393 . S
C667 C666 1.391 . S
H668 C676 0.950 . S
H669 C681 0.950 . S
H670 C678 0.950 . S
H671 C680 0.950 . S
H672 C682 0.950 . S
H673 C684 0.950 . S
H674 C686 0.950 . S
H675 C687 0.950 . S
C676 H668 0.950 . S
C676 C677 1.386 . S
C676 C678 1.391 . S
C677 C676 1.386 . S
C677 C681 1.393 . S
C678 H670 0.950 . S
C678 C676 1.391 . S
C678 C679 1.400 . S
C679 C678 1.400 . S
C679 C680 1.398 . S
C679 C685 1.491 . S
C680 H671 0.950 . S
C680 C679 1.398 . S
C680 C681 1.391 . S
C681 H669 0.950 . S
C681 C677 1.393 . S
C681 C680 1.391 . S
C682 H672 0.950 . S
C682 C683 1.386 . S
C682 C684 1.391 . S
C683 C682 1.386 . S
C683 C687 1.393 . S
C684 H673 0.950 . S
C684 C682 1.391 . S
C684 C685 1.400 . S
C685 C679 1.491 . S
C685 C684 1.400 . S
C685 C686 1.398 . S
C686 H674 0.950 . S
C686 C685 1.398 . S
C686 C687 1.391 . S
C687 H675 0.950 . S
C687 C683 1.393 . S
C687 C686 1.391 . S
H688 C696 0.950 . S
H689 C701 0.950 . S
H690 C698 0.950 . S
H691 C700 0.950 . S
H692 C702 0.950 . S
H693 C704 0.950 . S
H694 C706 0.950 . S
H695 C707 0.950 . S
C696 H688 0.950 . S
C696 C697 1.386 . S
C696 C698 1.391 . S
C697 C696 1.386 . S
C697 C701 1.393 . S
C698 H690 0.950 . S
C698 C696 1.391 . S
C698 C699 1.400 . S
C699 C698 1.400 . S
C699 C700 1.398 . S
C699 C705 1.491 . S
C700 H691 0.950 . S
C700 C699 1.398 . S
C700 C701 1.391 . S
C701 H689 0.950 . S
C701 C697 1.393 . S
C701 C700 1.391 . S
C702 H692 0.950 . S
C702 C703 1.386 . S
C702 C704 1.391 . S
C703 C702 1.386 . S
C703 C707 1.393 . S
C704 H693 0.950 . S
C704 C702 1.391 . S
C704 C705 1.400 . S
C705 C699 1.491 . S
C705 C704 1.400 . S
C705 C706 1.398 . S
C706 H694 0.950 . S
C706 C705 1.398 . S
C706 C707 1.391 . S
C707 H695 0.950 . S
C707 C703 1.393 . S
C707 C706 1.391 . S
H708 C716 0.950 . S
H709 C721 0.950 . S
H710 C718 0.950 . S
H711 C720 0.950 . S
H712 C722 0.950 . S
H713 C724 0.950 . S
H714 C726 0.950 . S
H715 C727 0.950 . S
C716 H708 0.950 . S
C716 C717 1.386 . S
C716 C718 1.391 . S
C717 C716 1.386 . S
C717 C721 1.393 . S
C718 H710 0.950 . S
C718 C716 1.391 . S
C718 C719 1.400 . S
C719 C718 1.400 . S
C719 C720 1.398 . S
C719 C725 1.491 . S
C720 H711 0.950 . S
C720 C719 1.398 . S
C720 C721 1.391 . S
C721 H709 0.950 . S
C721 C717 1.393 . S
C721 C720 1.391 . S
C722 H712 0.950 . S
C722 C723 1.386 . S
C722 C724 1.391 . S
C723 C722 1.386 . S
C723 C727 1.393 . S
C724 H713 0.950 . S
C724 C722 1.391 . S
C724 C725 1.400 . S
C725 C719 1.491 . S
C725 C724 1.400 . S
C725 C726 1.398 . S
C726 H714 0.950 . S
C726 C725 1.398 . S
C726 C727 1.391 . S
C727 H715 0.950 . S
C727 C723 1.393 . S
C727 C726 1.391 . S
H728 C736 0.950 . S
H729 C741 0.950 . S
H730 C738 0.950 . S
H731 C740 0.950 . S
H732 C742 0.950 . S
H733 C744 0.950 . S
H734 C746 0.950 . S
H735 C747 0.950 . S
C736 H728 0.950 . S
C736 C737 1.386 . S
C736 C738 1.391 . S
C737 C736 1.386 . S
C737 C741 1.393 . S
C738 H730 0.950 . S
C738 C736 1.391 . S
C738 C739 1.400 . S
C739 C738 1.400 . S
C739 C740 1.398 . S
C739 C745 1.491 . S
C740 H731 0.950 . S
C740 C739 1.398 . S
C740 C741 1.391 . S
C741 H729 0.950 . S
C741 C737 1.393 . S
C741 C740 1.391 . S
C742 H732 0.950 . S
C742 C743 1.386 . S
C742 C744 1.391 . S
C743 C742 1.386 . S
C743 C747 1.393 . S
C744 H733 0.950 . S
C744 C742 1.391 . S
C744 C745 1.400 . S
C745 C739 1.491 . S
C745 C744 1.400 . S
C745 C746 1.398 . S
C746 H734 0.950 . S
C746 C745 1.398 . S
C746 C747 1.391 . S
C747 H735 0.950 . S
C747 C743 1.393 . S
C747 C746 1.391 . S
H748 C756 0.950 . S
H749 C761 0.950 . S
H750 C758 0.950 . S
H751 C760 0.950 . S
H752 C762 0.950 1_655 S
H753 C764 0.950 . S
H754 C766 0.950 . S
H755 C767 0.950 . S
C756 H748 0.950 . S
C756 C757 1.386 . S
C756 C758 1.391 . S
C757 C756 1.386 . S
C757 C761 1.393 . S
C758 H750 0.950 . S
C758 C756 1.391 . S
C758 C759 1.400 . S
C759 C758 1.400 . S
C759 C760 1.398 . S
C759 C765 1.491 . S
C760 H751 0.950 . S
C760 C759 1.398 . S
C760 C761 1.391 . S
C761 H749 0.950 . S
C761 C757 1.393 . S
C761 C760 1.391 . S
C762 H752 0.950 1_455 S
C762 C763 1.386 . S
C762 C764 1.391 . S
C763 C762 1.386 . S
C763 C767 1.393 . S
C764 H753 0.950 . S
C764 C762 1.391 . S
C764 C765 1.400 . S
C765 C759 1.491 . S
C765 C764 1.400 . S
C765 C766 1.398 . S
C766 H754 0.950 . S
C766 C765 1.398 . S
C766 C767 1.391 . S
C767 H755 0.950 . S
C767 C763 1.393 . S
C767 C766 1.391 . S
H768 C776 0.950 . S
H769 C781 0.950 . S
H770 C778 0.950 . S
H771 C780 0.950 . S
H772 C782 0.950 . S
H773 C784 0.950 . S
H774 C786 0.950 . S
H775 C787 0.950 . S
C776 H768 0.950 . S
C776 C777 1.386 . S
C776 C778 1.391 . S
C777 C776 1.386 . S
C777 C781 1.393 . S
C778 H770 0.950 . S
C778 C776 1.391 . S
C778 C779 1.400 . S
C779 C778 1.400 . S
C779 C780 1.398 . S
C779 C785 1.491 . S
C780 H771 0.950 . S
C780 C779 1.398 . S
C780 C781 1.391 . S
C781 H769 0.950 . S
C781 C777 1.393 . S
C781 C780 1.391 . S
C782 H772 0.950 . S
C782 C783 1.386 . S
C782 C784 1.391 . S
C783 C782 1.386 . S
C783 C787 1.393 . S
C784 H773 0.950 . S
C784 C782 1.391 . S
C784 C785 1.400 . S
C785 C779 1.491 . S
C785 C784 1.400 . S
C785 C786 1.398 . S
C786 H774 0.950 . S
C786 C785 1.398 . S
C786 C787 1.391 . S
C787 H775 0.950 . S
C787 C783 1.393 . S
C787 C786 1.391 . S
H788 C796 0.950 . S
H789 C801 0.950 . S
H790 C798 0.950 . S
H791 C800 0.950 . S
H792 C802 0.950 . S
H793 C804 0.950 . S
H794 C806 0.950 . S
H795 C807 0.950 . S
C796 H788 0.950 . S
C796 C797 1.386 . S
C796 C798 1.391 . S
C797 C796 1.386 . S
C797 C801 1.393 . S
C798 H790 0.950 . S
C798 C796 1.391 . S
C798 C799 1.400 . S
C799 C798 1.400 . S
C799 C800 1.398 . S
C799 C805 1.491 . S
C800 H791 0.950 . S
C800 C799 1.398 . S
C800 C801 1.391 . S
C801 H789 0.950 . S
C801 C797 1.393 . S
C801 C800 1.391 . S
C802 H792 0.950 . S
C802 C803 1.386 . S
C802 C804 1.391 . S
C803 C802 1.386 . S
C803 C807 1.393 . S
C804 H793 0.950 . S
C804 C802 1.391 . S
C804 C805 1.400 . S
C805 C799 1.491 . S
C805 C804 1.400 . S
C805 C806 1.398 . S
C806 H794 0.950 . S
C806 C805 1.398 . S
C806 C807 1.391 . S
C807 H795 0.950 . S
C807 C803 1.393 . S
C807 C806 1.391 . S
H808 C816 0.950 . S
H809 C821 0.950 . S
H810 C818 0.950 . S
H811 C820 0.950 . S
H812 C822 0.959 . S
H813 C824 0.950 . S
H814 C826 0.950 . S
H815 C827 0.950 . S
C816 H808 0.950 . S
C816 C817 1.386 . S
C816 C818 1.391 . S
C817 C816 1.386 . S
C817 C821 1.393 . S
C818 H810 0.950 . S
C818 C816 1.391 . S
C818 C819 1.400 . S
C819 C818 1.400 . S
C819 C820 1.398 . S
C819 C825 1.491 . S
C820 H811 0.950 . S
C820 C819 1.398 . S
C820 C821 1.391 . S
C821 H809 0.950 . S
C821 C817 1.393 . S
C821 C820 1.391 . S
C822 H812 0.959 . S
C822 C823 1.386 . S
C822 C824 1.391 . S
C823 C822 1.386 . S
C823 C827 1.393 . S
C824 H813 0.950 . S
C824 C822 1.391 . S
C824 C825 1.400 . S
C825 C819 1.491 . S
C825 C824 1.400 . S
C825 C826 1.398 . S
C826 H814 0.950 . S
C826 C825 1.398 . S
C826 C827 1.391 . S
C827 H815 0.950 . S
C827 C823 1.393 . S
C827 C826 1.391 . S
H828 C836 0.950 1_565 S
H829 C841 0.950 . S
H830 C838 0.950 . S
H831 C840 0.950 . S
H832 C842 0.950 . S
H833 C844 0.950 . S
H834 C846 0.950 . S
H835 C847 0.950 . S
C836 H828 0.950 1_545 S
C836 C837 1.386 . S
C836 C838 1.391 . S
C837 C836 1.386 . S
C837 C841 1.393 . S
C838 H830 0.950 . S
C838 C836 1.391 . S
C838 C839 1.400 . S
C839 C838 1.400 . S
C839 C840 1.398 . S
C839 C845 1.491 . S
C840 H831 0.950 . S
C840 C839 1.398 . S
C840 C841 1.391 . S
C841 H829 0.950 . S
C841 C837 1.393 . S
C841 C840 1.391 . S
C842 H832 0.950 . S
C842 C843 1.386 . S
C842 C844 1.391 . S
C843 C842 1.386 . S
C843 C847 1.393 . S
C844 H833 0.950 . S
C844 C842 1.391 . S
C844 C845 1.400 . S
C845 C839 1.491 . S
C845 C844 1.400 . S
C845 C846 1.398 . S
C846 H834 0.950 . S
C846 C845 1.398 . S
C846 C847 1.391 . S
C847 H835 0.950 . S
C847 C843 1.393 . S
C847 C846 1.391 . S
H848 C856 0.950 . S
H849 C861 0.950 . S
H850 C858 0.950 . S
H851 C860 0.950 . S
H852 C862 0.950 . S
H853 C864 0.950 . S
H854 C866 0.950 . S
H855 C867 0.950 . S
C856 H848 0.950 . S
C856 C857 1.386 . S
C856 C858 1.391 . S
C857 C856 1.386 . S
C857 C861 1.393 . S
C858 H850 0.950 . S
C858 C856 1.391 . S
C858 C859 1.400 . S
C859 C858 1.400 . S
C859 C860 1.398 . S
C859 C865 1.491 . S
C860 H851 0.950 . S
C860 C859 1.398 . S
C860 C861 1.391 . S
C861 H849 0.950 . S
C861 C857 1.393 . S
C861 C860 1.391 . S
C862 H852 0.950 . S
C862 C863 1.386 . S
C862 C864 1.391 . S
C863 C862 1.386 . S
C863 C867 1.393 . S
C864 H853 0.950 . S
C864 C862 1.391 . S
C864 C865 1.400 . S
C865 C859 1.491 . S
C865 C864 1.400 . S
C865 C866 1.398 . S
C866 H854 0.950 . S
C866 C865 1.398 . S
C866 C867 1.391 . S
C867 H855 0.950 . S
C867 C863 1.393 . S
C867 C866 1.391 . S
H868 C876 0.950 1_556 S
H869 C881 0.950 . S
H870 C878 0.950 . S
H871 C880 0.950 . S
H872 C882 0.950 . S
H873 C884 0.950 . S
H874 C886 0.950 . S
H875 C887 0.950 . S
C876 H868 0.950 1_554 S
C876 C877 1.386 . S
C876 C878 1.391 . S
C877 C876 1.386 . S
C877 C881 1.393 . S
C878 H870 0.950 . S
C878 C876 1.391 . S
C878 C879 1.400 . S
C879 C878 1.400 . S
C879 C880 1.398 . S
C879 C885 1.491 . S
C880 H871 0.950 . S
C880 C879 1.398 . S
C880 C881 1.391 . S
C881 H869 0.950 . S
C881 C877 1.393 . S
C881 C880 1.391 . S
C882 H872 0.950 . S
C882 C883 1.386 . S
C882 C884 1.391 . S
C883 C882 1.386 . S
C883 C887 1.393 . S
C884 H873 0.950 . S
C884 C882 1.391 . S
C884 C885 1.400 . S
C885 C879 1.491 . S
C885 C884 1.400 . S
C885 C886 1.398 . S
C886 H874 0.950 . S
C886 C885 1.398 . S
C886 C887 1.391 . S
C887 H875 0.950 . S
C887 C883 1.393 . S
C887 C886 1.391 . S
H888 C896 0.950 . S
H889 C901 0.950 . S
H890 C898 0.950 . S
H891 C900 0.950 . S
H892 C902 0.950 . S
H893 C904 0.950 . S
H894 C906 0.950 . S
H895 C907 0.950 . S
C896 H888 0.950 . S
C896 C897 1.386 . S
C896 C898 1.391 . S
C897 C896 1.386 . S
C897 C901 1.393 . S
C898 H890 0.950 . S
C898 C896 1.391 . S
C898 C899 1.400 . S
C899 C898 1.400 . S
C899 C900 1.398 . S
C899 C905 1.491 . S
C900 H891 0.950 . S
C900 C899 1.398 . S
C900 C901 1.391 . S
C901 H889 0.950 . S
C901 C897 1.393 . S
C901 C900 1.391 . S
C902 H892 0.950 . S
C902 C903 1.386 . S
C902 C904 1.391 . S
C903 C902 1.386 . S
C903 C907 1.393 . S
C904 H893 0.950 . S
C904 C902 1.391 . S
C904 C905 1.400 . S
C905 C899 1.491 . S
C905 C904 1.400 . S
C905 C906 1.398 . S
C906 H894 0.950 . S
C906 C905 1.398 . S
C906 C907 1.391 . S
C907 H895 0.950 . S
C907 C903 1.393 . S
C907 C906 1.391 . S
H908 C916 0.981 . S
H909 C921 0.950 . S
H910 C918 0.950 . S
H911 C920 0.950 . S
H912 C922 0.950 . S
H913 C924 0.950 . S
H914 C926 0.950 . S
H915 C927 0.950 . S
C916 H908 0.981 . S
C916 C917 1.386 . S
C916 C918 1.391 . S
C917 C916 1.386 . S
C917 C921 1.393 . S
C918 H910 0.950 . S
C918 C916 1.391 . S
C918 C919 1.400 . S
C919 C918 1.400 . S
C919 C920 1.398 . S
C919 C925 1.491 . S
C920 H911 0.950 . S
C920 C919 1.398 . S
C920 C921 1.391 . S
C921 H909 0.950 . S
C921 C917 1.393 . S
C921 C920 1.391 . S
C922 H912 0.950 . S
C922 C923 1.386 . S
C922 C924 1.391 . S
C923 C922 1.386 . S
C923 C927 1.393 . S
C924 H913 0.950 . S
C924 C922 1.391 . S
C924 C925 1.400 . S
C925 C919 1.491 . S
C925 C924 1.400 . S
C925 C926 1.398 . S
C926 H914 0.950 . S
C926 C925 1.398 . S
C926 C927 1.391 . S
C927 H915 0.950 . S
C927 C923 1.393 . S
C927 C926 1.391 . S
H928 C936 0.950 . S
H929 C941 0.950 . S
H930 C938 0.950 . S
H931 C940 0.950 . S
H932 C942 0.950 . S
H933 C944 0.950 . S
H934 C946 0.950 . S
H935 C947 0.950 . S
C936 H928 0.950 . S
C936 C937 1.386 . S
C936 C938 1.391 . S
C937 C936 1.386 . S
C937 C941 1.393 . S
C938 H930 0.950 . S
C938 C936 1.391 . S
C938 C939 1.400 . S
C939 C938 1.400 . S
C939 C940 1.398 . S
C939 C945 1.491 . S
C940 H931 0.950 . S
C940 C939 1.398 . S
C940 C941 1.391 . S
C941 H929 0.950 . S
C941 C937 1.393 . S
C941 C940 1.391 . S
C942 H932 0.950 . S
C942 C943 1.386 . S
C942 C944 1.391 . S
C943 C942 1.386 . S
C943 C947 1.393 . S
C944 H933 0.950 . S
C944 C942 1.391 . S
C944 C945 1.400 . S
C945 C939 1.491 . S
C945 C944 1.400 . S
C945 C946 1.398 . S
C946 H934 0.950 . S
C946 C945 1.398 . S
C946 C947 1.391 . S
C947 H935 0.950 . S
C947 C943 1.393 . S
C947 C946 1.391 . S
H948 C956 0.950 . S
H949 C961 0.950 . S
H950 C958 0.950 . S
H951 C960 0.950 . S
H952 C962 0.950 . S
H953 C964 0.950 . S
H954 C966 0.950 . S
H955 C967 0.950 . S
C956 H948 0.950 . S
C956 C957 1.386 . S
C956 C958 1.391 . S
C957 C956 1.386 . S
C957 C961 1.393 . S
C958 H950 0.950 . S
C958 C956 1.391 . S
C958 C959 1.400 . S
C959 C958 1.400 . S
C959 C960 1.398 . S
C959 C965 1.491 . S
C960 H951 0.950 . S
C960 C959 1.398 . S
C960 C961 1.391 . S
C961 H949 0.950 . S
C961 C957 1.393 . S
C961 C960 1.391 . S
C962 H952 0.950 . S
C962 C963 1.386 . S
C962 C964 1.391 . S
C963 C962 1.386 . S
C963 C967 1.393 . S
C964 H953 0.950 . S
C964 C962 1.391 . S
C964 C965 1.400 . S
C965 C959 1.491 . S
C965 C964 1.400 . S
C965 C966 1.398 . S
C966 H954 0.950 . S
C966 C965 1.398 . S
C966 C967 1.391 . S
C967 H955 0.950 . S
C967 C963 1.393 . S
C967 C966 1.391 . S
H968 C976 0.950 . S
H969 C981 0.950 . S
H970 C978 0.950 . S
H971 C980 0.950 . S
H972 C982 0.950 . S
H973 C984 0.950 . S
H974 C986 0.950 . S
H975 C987 0.950 . S
C976 H968 0.950 . S
C976 C977 1.386 . S
C976 C978 1.391 . S
C977 C976 1.386 . S
C977 C981 1.393 . S
C978 H970 0.950 . S
C978 C976 1.391 . S
C978 C979 1.400 . S
C979 C978 1.400 . S
C979 C980 1.398 . S
C979 C985 1.491 . S
C980 H971 0.950 . S
C980 C979 1.398 . S
C980 C981 1.391 . S
C981 H969 0.950 . S
C981 C977 1.393 . S
C981 C980 1.391 . S
C982 H972 0.950 . S
C982 C983 1.386 . S
C982 C984 1.391 . S
C983 C982 1.386 . S
C983 C987 1.393 . S
C984 H973 0.950 . S
C984 C982 1.391 . S
C984 C985 1.400 . S
C985 C979 1.491 . S
C985 C984 1.400 . S
C985 C986 1.398 . S
C986 H974 0.950 . S
C986 C985 1.398 . S
C986 C987 1.391 . S
C987 H975 0.950 . S
C987 C983 1.393 . S
C987 C986 1.391 . S
H988 C996 0.950 . S
H989 C1001 0.950 . S
H990 C998 0.950 . S
H991 C1000 0.950 . S
H992 C1002 0.950 . S
H993 C1004 0.950 . S
H994 C1006 0.950 . S
H995 C1007 0.950 1_455 S
C996 H988 0.950 . S
C996 C997 1.386 . S
C996 C998 1.391 . S
C997 C996 1.386 . S
C997 C1001 1.393 . S
C998 H990 0.950 . S
C998 C996 1.391 . S
C998 C999 1.400 . S
C999 C998 1.400 . S
C999 C1000 1.398 . S
C999 C1005 1.491 . S
C1000 H991 0.950 . S
C1000 C999 1.398 . S
C1000 C1001 1.391 . S
C1001 H989 0.950 . S
C1001 C997 1.393 . S
C1001 C1000 1.391 . S
C1002 H992 0.950 . S
C1002 C1003 1.386 . S
C1002 C1004 1.391 . S
C1003 C1002 1.386 . S
C1003 C1007 1.393 . S
C1004 H993 0.950 . S
C1004 C1002 1.391 . S
C1004 C1005 1.400 . S
C1005 C999 1.491 . S
C1005 C1004 1.400 . S
C1005 C1006 1.398 . S
C1006 H994 0.950 . S
C1006 C1005 1.398 . S
C1006 C1007 1.391 . S
C1007 H995 0.950 1_655 S
C1007 C1003 1.393 . S
C1007 C1006 1.391 . S
H1008 C1016 0.950 . S
H1009 C1021 0.950 . S
H1010 C1018 0.950 . S
H1011 C1020 0.950 . S
H1012 C1022 0.950 . S
H1013 C1024 0.950 . S
H1014 C1026 0.950 . S
H1015 C1027 0.950 . S
C1016 H1008 0.950 . S
C1016 C1017 1.386 . S
C1016 C1018 1.391 . S
C1017 C1016 1.386 . S
C1017 C1021 1.393 . S
C1018 H1010 0.950 . S
C1018 C1016 1.391 . S
C1018 C1019 1.400 . S
C1019 C1018 1.400 . S
C1019 C1020 1.398 . S
C1019 C1025 1.491 . S
C1020 H1011 0.950 . S
C1020 C1019 1.398 . S
C1020 C1021 1.391 . S
C1021 H1009 0.950 . S
C1021 C1017 1.393 . S
C1021 C1020 1.391 . S
C1022 H1012 0.950 . S
C1022 C1023 1.386 . S
C1022 C1024 1.391 . S
C1023 C1022 1.386 . S
C1023 C1027 1.393 . S
C1024 H1013 0.950 . S
C1024 C1022 1.391 . S
C1024 C1025 1.400 . S
C1025 C1019 1.491 . S
C1025 C1024 1.400 . S
C1025 C1026 1.398 . S
C1026 H1014 0.950 . S
C1026 C1025 1.398 . S
C1026 C1027 1.391 . S
C1027 H1015 0.950 . S
C1027 C1023 1.393 . S
C1027 C1026 1.391 . S
H1028 C1036 0.950 . S
H1029 C1041 0.950 . S
H1030 C1038 0.950 . S
H1031 C1040 0.950 . S
H1032 C1042 0.950 . S
H1033 C1044 0.950 . S
H1034 C1046 0.950 . S
H1035 C1047 0.950 . S
C1036 H1028 0.950 . S
C1036 C1037 1.386 . S
C1036 C1038 1.391 . S
C1037 C1036 1.386 . S
C1037 C1041 1.393 . S
C1038 H1030 0.950 . S
C1038 C1036 1.391 . S
C1038 C1039 1.400 . S
C1039 C1038 1.400 . S
C1039 C1040 1.398 . S
C1039 C1045 1.491 . S
C1040 H1031 0.950 . S
C1040 C1039 1.398 . S
C1040 C1041 1.391 . S
C1041 H1029 0.950 . S
C1041 C1037 1.393 . S
C1041 C1040 1.391 . S
C1042 H1032 0.950 . S
C1042 C1043 1.386 . S
C1042 C1044 1.391 . S
C1043 C1042 1.386 . S
C1043 C1047 1.393 . S
C1044 H1033 0.950 . S
C1044 C1042 1.391 . S
C1044 C1045 1.400 . S
C1045 C1039 1.491 . S
C1045 C1044 1.400 . S
C1045 C1046 1.398 . S
C1046 H1034 0.950 . S
C1046 C1045 1.398 . S
C1046 C1047 1.391 . S
C1047 H1035 0.950 . S
C1047 C1043 1.393 . S
C1047 C1046 1.391 . S
H1048 C1056 0.950 . S
H1049 C1061 0.950 . S
H1050 C1058 0.950 . S
H1051 C1060 0.950 . S
H1052 C1062 0.950 . S
H1053 C1064 0.950 . S
H1054 C1066 0.950 . S
H1055 C1067 0.950 . S
C1056 H1048 0.950 . S
C1056 C1057 1.386 . S
C1056 C1058 1.391 . S
C1057 C1056 1.386 . S
C1057 C1061 1.393 . S
C1058 H1050 0.950 . S
C1058 C1056 1.391 . S
C1058 C1059 1.400 . S
C1059 C1058 1.400 . S
C1059 C1060 1.398 . S
C1059 C1065 1.491 . S
C1060 H1051 0.950 . S
C1060 C1059 1.398 . S
C1060 C1061 1.391 . S
C1061 H1049 0.950 . S
C1061 C1057 1.393 . S
C1061 C1060 1.391 . S
C1062 H1052 0.950 . S
C1062 C1063 1.386 . S
C1062 C1064 1.391 . S
C1063 C1062 1.386 . S
C1063 C1067 1.393 . S
C1064 H1053 0.950 . S
C1064 C1062 1.391 . S
C1064 C1065 1.400 . S
C1065 C1059 1.491 . S
C1065 C1064 1.400 . S
C1065 C1066 1.398 . S
C1066 H1054 0.950 . S
C1066 C1065 1.398 . S
C1066 C1067 1.391 . S
C1067 H1055 0.950 . S
C1067 C1063 1.393 . S
C1067 C1066 1.391 . S
H1068 C1076 0.950 . S
H1069 C1081 0.950 . S
H1070 C1078 0.950 . S
H1071 C1080 0.950 . S
H1072 C1082 0.950 . S
H1073 C1084 0.950 . S
H1074 C1086 0.950 . S
H1075 C1087 0.950 . S
C1076 H1068 0.950 . S
C1076 C1077 1.386 . S
C1076 C1078 1.391 . S
C1077 C1076 1.386 . S
C1077 C1081 1.393 . S
C1078 H1070 0.950 . S
C1078 C1076 1.391 . S
C1078 C1079 1.400 . S
C1079 C1078 1.400 . S
C1079 C1080 1.398 . S
C1079 C1085 1.491 . S
C1080 H1071 0.950 . S
C1080 C1079 1.398 . S
C1080 C1081 1.391 . S
C1081 H1069 0.950 . S
C1081 C1077 1.393 . S
C1081 C1080 1.391 . S
C1082 H1072 0.950 . S
C1082 C1083 1.386 . S
C1082 C1084 1.391 . S
C1083 C1082 1.386 . S
C1083 C1087 1.393 . S
C1084 H1073 0.950 . S
C1084 C1082 1.391 . S
C1084 C1085 1.400 . S
C1085 C1079 1.491 . S
C1085 C1084 1.400 . S
C1085 C1086 1.398 . S
C1086 H1074 0.950 . S
C1086 C1085 1.398 . S
C1086 C1087 1.391 . S
C1087 H1075 0.950 . S
C1087 C1083 1.393 . S
C1087 C1086 1.391 . S
H1088 C1096 0.950 . S
H1089 C1101 0.950 . S
H1090 C1098 0.950 . S
H1091 C1100 0.950 . S
H1092 C1102 0.950 . S
H1093 C1104 0.950 . S
H1094 C1106 0.950 . S
H1095 C1107 0.950 . S
C1096 H1088 0.950 . S
C1096 C1097 1.386 . S
C1096 C1098 1.391 . S
C1097 C1096 1.386 . S
C1097 C1101 1.393 . S
C1098 H1090 0.950 . S
C1098 C1096 1.391 . S
C1098 C1099 1.400 . S
C1099 C1098 1.400 . S
C1099 C1100 1.398 . S
C1099 C1105 1.491 . S
C1100 H1091 0.950 . S
C1100 C1099 1.398 . S
C1100 C1101 1.391 . S
C1101 H1089 0.950 . S
C1101 C1097 1.393 . S
C1101 C1100 1.391 . S
C1102 H1092 0.950 . S
C1102 C1103 1.386 . S
C1102 C1104 1.391 . S
C1103 C1102 1.386 . S
C1103 C1107 1.393 . S
C1104 H1093 0.950 . S
C1104 C1102 1.391 . S
C1104 C1105 1.400 . S
C1105 C1099 1.491 . S
C1105 C1104 1.400 . S
C1105 C1106 1.398 . S
C1106 H1094 0.950 . S
C1106 C1105 1.398 . S
C1106 C1107 1.391 . S
C1107 H1095 0.950 . S
C1107 C1103 1.393 . S
C1107 C1106 1.391 . S
H1108 C1116 0.950 . S
H1109 C1121 0.950 . S
H1110 C1118 0.950 . S
H1111 C1120 0.950 . S
H1112 C1122 0.950 . S
H1113 C1124 0.950 . S
H1114 C1126 0.950 . S
H1115 C1127 0.950 . S
C1116 H1108 0.950 . S
C1116 C1117 1.386 . S
C1116 C1118 1.391 . S
C1117 C1116 1.386 . S
C1117 C1121 1.393 . S
C1118 H1110 0.950 . S
C1118 C1116 1.391 . S
C1118 C1119 1.400 . S
C1119 C1118 1.400 . S
C1119 C1120 1.398 . S
C1119 C1125 1.491 . S
C1120 H1111 0.950 . S
C1120 C1119 1.398 . S
C1120 C1121 1.391 . S
C1121 H1109 0.950 . S
C1121 C1117 1.393 . S
C1121 C1120 1.391 . S
C1122 H1112 0.950 . S
C1122 C1123 1.386 . S
C1122 C1124 1.391 . S
C1123 C1122 1.386 . S
C1123 C1127 1.393 . S
C1124 H1113 0.950 . S
C1124 C1122 1.391 . S
C1124 C1125 1.400 . S
C1125 C1119 1.491 . S
C1125 C1124 1.400 . S
C1125 C1126 1.398 . S
C1126 H1114 0.950 . S
C1126 C1125 1.398 . S
C1126 C1127 1.391 . S
C1127 H1115 0.950 . S
C1127 C1123 1.393 . S
C1127 C1126 1.391 . S
H1128 C1136 0.950 . S
H1129 C1141 0.950 . S
H1130 C1138 0.950 . S
H1131 C1140 0.950 . S
H1132 C1142 0.950 . S
H1133 C1144 0.950 . S
H1134 C1146 0.950 . S
H1135 C1147 0.950 . S
C1136 H1128 0.950 . S
C1136 C1137 1.386 . S
C1136 C1138 1.391 . S
C1137 C1136 1.386 . S
C1137 C1141 1.393 . S
C1138 H1130 0.950 . S
C1138 C1136 1.391 . S
C1138 C1139 1.400 . S
C1139 C1138 1.400 . S
C1139 C1140 1.398 . S
C1139 C1145 1.491 . S
C1140 H1131 0.950 . S
C1140 C1139 1.398 . S
C1140 C1141 1.391 . S
C1141 H1129 0.950 . S
C1141 C1137 1.393 . S
C1141 C1140 1.391 . S
C1142 H1132 0.950 . S
C1142 C1143 1.386 . S
C1142 C1144 1.391 . S
C1143 C1142 1.386 . S
C1143 C1147 1.393 . S
C1144 H1133 0.950 . S
C1144 C1142 1.391 . S
C1144 C1145 1.400 . S
C1145 C1139 1.491 . S
C1145 C1144 1.400 . S
C1145 C1146 1.398 . S
C1146 H1134 0.950 . S
C1146 C1145 1.398 . S
C1146 C1147 1.391 . S
C1147 H1135 0.950 . S
C1147 C1143 1.393 . S
C1147 C1146 1.391 . S
H1148 C1156 0.950 . S
H1149 C1161 0.950 . S
H1150 C1158 0.950 . S
H1151 C1160 0.950 . S
H1152 C1162 0.950 . S
H1153 C1164 0.950 . S
H1154 C1166 0.950 . S
H1155 C1167 0.950 . S
C1156 H1148 0.950 . S
C1156 C1157 1.386 . S
C1156 C1158 1.391 . S
C1157 C1156 1.386 . S
C1157 C1161 1.393 . S
C1158 H1150 0.950 . S
C1158 C1156 1.391 . S
C1158 C1159 1.400 . S
C1159 C1158 1.400 . S
C1159 C1160 1.398 . S
C1159 C1165 1.491 . S
C1160 H1151 0.950 . S
C1160 C1159 1.398 . S
C1160 C1161 1.391 . S
C1161 H1149 0.950 . S
C1161 C1157 1.393 . S
C1161 C1160 1.391 . S
C1162 H1152 0.950 . S
C1162 C1163 1.386 . S
C1162 C1164 1.391 . S
C1163 C1162 1.386 . S
C1163 C1167 1.393 . S
C1164 H1153 0.950 . S
C1164 C1162 1.391 . S
C1164 C1165 1.400 . S
C1165 C1159 1.491 . S
C1165 C1164 1.400 . S
C1165 C1166 1.398 . S
C1166 H1154 0.950 . S
C1166 C1165 1.398 . S
C1166 C1167 1.391 . S
C1167 H1155 0.950 . S
C1167 C1163 1.393 . S
C1167 C1166 1.391 . S
H1168 C1176 0.950 . S
H1169 C1181 0.950 . S
H1170 C1178 0.950 . S
H1171 C1180 0.950 . S
H1172 C1182 0.950 . S
H1173 C1184 0.950 . S
H1174 C1186 0.950 . S
H1175 C1187 0.950 . S
C1176 H1168 0.950 . S
C1176 C1177 1.386 . S
C1176 C1178 1.391 . S
C1177 C1176 1.386 . S
C1177 C1181 1.393 . S
C1178 H1170 0.950 . S
C1178 C1176 1.391 . S
C1178 C1179 1.400 . S
C1179 C1178 1.400 . S
C1179 C1180 1.398 . S
C1179 C1185 1.491 . S
C1180 H1171 0.950 . S
C1180 C1179 1.398 . S
C1180 C1181 1.391 . S
C1181 H1169 0.950 . S
C1181 C1177 1.393 . S
C1181 C1180 1.391 . S
C1182 H1172 0.950 . S
C1182 C1183 1.386 . S
C1182 C1184 1.391 . S
C1183 C1182 1.386 . S
C1183 C1187 1.393 . S
C1184 H1173 0.950 . S
C1184 C1182 1.391 . S
C1184 C1185 1.400 . S
C1185 C1179 1.491 . S
C1185 C1184 1.400 . S
C1185 C1186 1.398 . S
C1186 H1174 0.950 . S
C1186 C1185 1.398 . S
C1186 C1187 1.391 . S
C1187 H1175 0.950 . S
C1187 C1183 1.393 . S
C1187 C1186 1.391 . S
H1188 C1196 0.950 . S
H1189 C1201 0.950 . S
H1190 C1198 0.950 . S
H1191 C1200 0.950 . S
H1192 C1202 0.950 . S
H1193 C1204 0.950 . S
H1194 C1206 0.950 . S
H1195 C1207 0.950 . S
C1196 H1188 0.950 . S
C1196 C1197 1.386 . S
C1196 C1198 1.391 . S
C1197 C1196 1.386 . S
C1197 C1201 1.393 . S
C1198 H1190 0.950 . S
C1198 C1196 1.391 . S
C1198 C1199 1.400 . S
C1199 C1198 1.400 . S
C1199 C1200 1.398 . S
C1199 C1205 1.491 . S
C1200 H1191 0.950 . S
C1200 C1199 1.398 . S
C1200 C1201 1.391 . S
C1201 H1189 0.950 . S
C1201 C1197 1.393 . S
C1201 C1200 1.391 . S
C1202 H1192 0.950 . S
C1202 C1203 1.386 . S
C1202 C1204 1.391 . S
C1203 C1202 1.386 . S
C1203 C1207 1.393 . S
C1204 H1193 0.950 . S
C1204 C1202 1.391 . S
C1204 C1205 1.400 . S
C1205 C1199 1.491 . S
C1205 C1204 1.400 . S
C1205 C1206 1.398 . S
C1206 H1194 0.950 . S
C1206 C1205 1.398 . S
C1206 C1207 1.391 . S
C1207 H1195 0.950 . S
C1207 C1203 1.393 . S
C1207 C1206 1.391 . S
H1208 C1216 0.950 . S
H1209 C1221 0.950 . S
H1210 C1218 0.950 . S
H1211 C1220 0.950 . S
H1212 C1222 0.950 . S
H1213 C1224 0.950 . S
H1214 C1226 0.950 . S
H1215 C1227 0.950 . S
C1216 H1208 0.950 . S
C1216 C1217 1.386 . S
C1216 C1218 1.391 . S
C1217 C1216 1.386 . S
C1217 C1221 1.393 . S
C1218 H1210 0.950 . S
C1218 C1216 1.391 . S
C1218 C1219 1.400 . S
C1219 C1218 1.400 . S
C1219 C1220 1.398 . S
C1219 C1225 1.491 . S
C1220 H1211 0.950 . S
C1220 C1219 1.398 . S
C1220 C1221 1.391 . S
C1221 H1209 0.950 . S
C1221 C1217 1.393 . S
C1221 C1220 1.391 . S
C1222 H1212 0.950 . S
C1222 C1223 1.386 . S
C1222 C1224 1.391 . S
C1223 C1222 1.386 . S
C1223 C1227 1.393 . S
C1224 H1213 0.950 . S
C1224 C1222 1.391 . S
C1224 C1225 1.400 . S
C1225 C1219 1.491 . S
C1225 C1224 1.400 . S
C1225 C1226 1.398 . S
C1226 H1214 0.950 . S
C1226 C1225 1.398 . S
C1226 C1227 1.391 . S
C1227 H1215 0.950 . S
C1227 C1223 1.393 . S
C1227 C1226 1.391 . S
H1228 C1236 0.950 . S
H1229 C1241 0.950 . S
H1230 C1238 0.950 . S
H1231 C1240 0.950 . S
H1232 C1242 0.950 . S
H1233 C1244 0.950 . S
H1234 C1246 0.950 . S
H1235 C1247 0.950 . S
C1236 H1228 0.950 . S
C1236 C1237 1.386 . S
C1236 C1238 1.391 . S
C1237 C1236 1.386 . S
C1237 C1241 1.393 . S
C1238 H1230 0.950 . S
C1238 C1236 1.391 . S
C1238 C1239 1.400 . S
C1239 C1238 1.400 . S
C1239 C1240 1.398 . S
C1239 C1245 1.491 . S
C1240 H1231 0.950 . S
C1240 C1239 1.398 . S
C1240 C1241 1.391 . S
C1241 H1229 0.950 . S
C1241 C1237 1.393 . S
C1241 C1240 1.391 . S
C1242 H1232 0.950 . S
C1242 C1243 1.386 . S
C1242 C1244 1.391 . S
C1243 C1242 1.386 . S
C1243 C1247 1.393 . S
C1244 H1233 0.950 . S
C1244 C1242 1.391 . S
C1244 C1245 1.400 . S
C1245 C1239 1.491 . S
C1245 C1244 1.400 . S
C1245 C1246 1.398 . S
C1246 H1234 0.950 . S
C1246 C1245 1.398 . S
C1246 C1247 1.391 . S
C1247 H1235 0.950 . S
C1247 C1243 1.393 . S
C1247 C1246 1.391 . S
H1248 C1256 0.950 . S
H1249 C1261 0.950 . S
H1250 C1258 0.950 . S
H1251 C1260 0.950 . S
H1252 C1262 0.950 . S
H1253 C1264 0.950 . S
H1254 C1266 0.950 . S
H1255 C1267 0.950 . S
C1256 H1248 0.950 . S
C1256 C1257 1.386 . S
C1256 C1258 1.391 . S
C1257 C1256 1.386 . S
C1257 C1261 1.393 . S
C1258 H1250 0.950 . S
C1258 C1256 1.391 . S
C1258 C1259 1.400 . S
C1259 C1258 1.400 . S
C1259 C1260 1.398 . S
C1259 C1265 1.491 . S
C1260 H1251 0.950 . S
C1260 C1259 1.398 . S
C1260 C1261 1.391 . S
C1261 H1249 0.950 . S
C1261 C1257 1.393 . S
C1261 C1260 1.391 . S
C1262 H1252 0.950 . S
C1262 C1263 1.386 . S
C1262 C1264 1.391 . S
C1263 C1262 1.386 . S
C1263 C1267 1.393 . S
C1264 H1253 0.950 . S
C1264 C1262 1.391 . S
C1264 C1265 1.400 . S
C1265 C1259 1.491 . S
C1265 C1264 1.400 . S
C1265 C1266 1.398 . S
C1266 H1254 0.950 . S
C1266 C1265 1.398 . S
C1266 C1267 1.391 . S
C1267 H1255 0.950 . S
C1267 C1263 1.393 . S
C1267 C1266 1.391 . S
H1268 C1276 0.950 . S
H1269 C1281 0.950 . S
H1270 C1278 0.950 . S
H1271 C1280 0.950 . S
H1272 C1282 0.950 . S
H1273 C1284 0.950 . S
H1274 C1286 0.950 . S
H1275 C1287 0.950 . S
C1276 H1268 0.950 . S
C1276 C1277 1.386 . S
C1276 C1278 1.391 . S
C1277 C1276 1.386 . S
C1277 C1281 1.393 . S
C1278 H1270 0.950 . S
C1278 C1276 1.391 . S
C1278 C1279 1.400 . S
C1279 C1278 1.400 . S
C1279 C1280 1.398 . S
C1279 C1285 1.491 . S
C1280 H1271 0.950 . S
C1280 C1279 1.398 . S
C1280 C1281 1.391 . S
C1281 H1269 0.950 . S
C1281 C1277 1.393 . S
C1281 C1280 1.391 . S
C1282 H1272 0.950 . S
C1282 C1283 1.386 . S
C1282 C1284 1.391 . S
C1283 C1282 1.386 . S
C1283 C1287 1.393 . S
C1284 H1273 0.950 . S
C1284 C1282 1.391 . S
C1284 C1285 1.400 . S
C1285 C1279 1.491 . S
C1285 C1284 1.400 . S
C1285 C1286 1.398 . S
C1286 H1274 0.950 . S
C1286 C1285 1.398 . S
C1286 C1287 1.391 . S
C1287 H1275 0.950 . S
C1287 C1283 1.393 . S
C1287 C1286 1.391 . S
H1288 C1296 0.950 . S
H1289 C1301 0.950 . S
H1290 C1298 0.950 . S
H1291 C1300 0.950 . S
H1292 C1302 0.950 . S
H1293 C1304 0.950 . S
H1294 C1306 0.950 . S
H1295 C1307 0.950 . S
C1296 H1288 0.950 . S
C1296 C1297 1.386 . S
C1296 C1298 1.391 . S
C1297 C1296 1.386 . S
C1297 C1301 1.393 . S
C1298 H1290 0.950 . S
C1298 C1296 1.391 . S
C1298 C1299 1.400 . S
C1299 C1298 1.400 . S
C1299 C1300 1.398 . S
C1299 C1305 1.491 . S
C1300 H1291 0.950 . S
C1300 C1299 1.398 . S
C1300 C1301 1.391 . S
C1301 H1289 0.950 . S
C1301 C1297 1.393 . S
C1301 C1300 1.391 . S
C1302 H1292 0.950 . S
C1302 C1303 1.386 . S
C1302 C1304 1.391 . S
C1303 C1302 1.386 . S
C1303 C1307 1.393 . S
C1304 H1293 0.950 . S
C1304 C1302 1.391 . S
C1304 C1305 1.400 . S
C1305 C1299 1.491 . S
C1305 C1304 1.400 . S
C1305 C1306 1.398 . S
C1306 H1294 0.950 . S
C1306 C1305 1.398 . S
C1306 C1307 1.391 . S
C1307 H1295 0.950 . S
C1307 C1303 1.393 . S
C1307 C1306 1.391 . S
H1308 C1316 0.950 . S
H1309 C1321 0.950 . S
H1310 C1318 0.950 . S
H1311 C1320 0.950 . S
H1312 C1322 0.950 . S
H1313 C1324 0.950 . S
H1314 C1326 0.950 . S
H1315 C1327 0.950 . S
C1316 H1308 0.950 . S
C1316 C1317 1.386 . S
C1316 C1318 1.391 . S
C1317 C1316 1.386 . S
C1317 C1321 1.393 . S
C1318 H1310 0.950 . S
C1318 C1316 1.391 . S
C1318 C1319 1.400 . S
C1319 C1318 1.400 . S
C1319 C1320 1.398 . S
C1319 C1325 1.491 . S
C1320 H1311 0.950 . S
C1320 C1319 1.398 . S
C1320 C1321 1.391 . S
C1321 H1309 0.950 . S
C1321 C1317 1.393 . S
C1321 C1320 1.391 . S
C1322 H1312 0.950 . S
C1322 C1323 1.386 . S
C1322 C1324 1.391 . S
C1323 C1322 1.386 . S
C1323 C1327 1.393 . S
C1324 H1313 0.950 . S
C1324 C1322 1.391 . S
C1324 C1325 1.400 . S
C1325 C1319 1.491 . S
C1325 C1324 1.400 . S
C1325 C1326 1.398 . S
C1326 H1314 0.950 . S
C1326 C1325 1.398 . S
C1326 C1327 1.391 . S
C1327 H1315 0.950 . S
C1327 C1323 1.393 . S
C1327 C1326 1.391 . S
H1328 C1336 0.950 . S
H1329 C1341 0.950 . S
H1330 C1338 0.950 . S
H1331 C1340 0.950 . S
H1332 C1342 0.950 . S
H1333 C1344 0.950 . S
H1334 C1346 0.950 . S
H1335 C1347 0.950 . S
C1336 H1328 0.950 . S
C1336 C1337 1.386 . S
C1336 C1338 1.391 . S
C1337 C1336 1.386 . S
C1337 C1341 1.393 . S
C1338 H1330 0.950 . S
C1338 C1336 1.391 . S
C1338 C1339 1.400 . S
C1339 C1338 1.400 . S
C1339 C1340 1.398 . S
C1339 C1345 1.491 . S
C1340 H1331 0.950 . S
C1340 C1339 1.398 . S
C1340 C1341 1.391 . S
C1341 H1329 0.950 . S
C1341 C1337 1.393 . S
C1341 C1340 1.391 . S
C1342 H1332 0.950 . S
C1342 C1343 1.386 . S
C1342 C1344 1.391 . S
C1343 C1342 1.386 . S
C1343 C1347 1.393 . S
C1344 H1333 0.950 . S
C1344 C1342 1.391 . S
C1344 C1345 1.400 . S
C1345 C1339 1.491 . S
C1345 C1344 1.400 . S
C1345 C1346 1.398 . S
C1346 H1334 0.950 . S
C1346 C1345 1.398 . S
C1346 C1347 1.391 . S
C1347 H1335 0.950 . S
C1347 C1343 1.393 . S
C1347 C1346 1.391 . S
H1348 C1356 0.950 . S
H1349 C1361 0.950 . S
H1350 C1358 0.950 . S
H1351 C1360 0.950 . S
H1352 C1362 0.950 . S
H1353 C1364 0.950 . S
H1354 C1366 0.950 . S
H1355 C1367 0.950 . S
C1356 H1348 0.950 . S
C1356 C1357 1.386 . S
C1356 C1358 1.391 . S
C1357 C1356 1.386 . S
C1357 C1361 1.393 . S
C1358 H1350 0.950 . S
C1358 C1356 1.391 . S
C1358 C1359 1.400 . S
C1359 C1358 1.400 . S
C1359 C1360 1.398 . S
C1359 C1365 1.491 . S
C1360 H1351 0.950 . S
C1360 C1359 1.398 . S
C1360 C1361 1.391 . S
C1361 H1349 0.950 . S
C1361 C1357 1.393 . S
C1361 C1360 1.391 . S
C1362 H1352 0.950 . S
C1362 C1363 1.386 . S
C1362 C1364 1.391 . S
C1363 C1362 1.386 . S
C1363 C1367 1.393 . S
C1364 H1353 0.950 . S
C1364 C1362 1.391 . S
C1364 C1365 1.400 . S
C1365 C1359 1.491 . S
C1365 C1364 1.400 . S
C1365 C1366 1.398 . S
C1366 H1354 0.950 . S
C1366 C1365 1.398 . S
C1366 C1367 1.391 . S
C1367 H1355 0.950 . S
C1367 C1363 1.393 . S
C1367 C1366 1.391 . S
H1368 C1376 0.950 . S
H1369 C1381 0.950 . S
H1370 C1378 0.950 . S
H1371 C1380 0.950 . S
H1372 C1382 0.950 . S
H1373 C1384 0.950 . S
H1374 C1386 0.950 . S
H1375 C1387 0.950 . S
C1376 H1368 0.950 . S
C1376 C1377 1.386 . S
C1376 C1378 1.391 . S
C1377 C1376 1.386 . S
C1377 C1381 1.393 . S
C1378 H1370 0.950 . S
C1378 C1376 1.391 . S
C1378 C1379 1.400 . S
C1379 C1378 1.400 . S
C1379 C1380 1.398 . S
C1379 C1385 1.491 . S
C1380 H1371 0.950 . S
C1380 C1379 1.398 . S
C1380 C1381 1.391 . S
C1381 H1369 0.950 . S
C1381 C1377 1.393 . S
C1381 C1380 1.391 . S
C1382 H1372 0.950 . S
C1382 C1383 1.386 . S
C1382 C1384 1.391 . S
C1383 C1382 1.386 . S
C1383 C1387 1.393 . S
C1384 H1373 0.950 . S
C1384 C1382 1.391 . S
C1384 C1385 1.400 . S
C1385 C1379 1.491 . S
C1385 C1384 1.400 . S
C1385 C1386 1.398 . S
C1386 H1374 0.950 . S
C1386 C1385 1.398 . S
C1386 C1387 1.391 . S
C1387 H1375 0.950 . S
C1387 C1383 1.393 . S
C1387 C1386 1.391 . S
H1388 C1396 0.950 . S
H1389 C1401 0.950 . S
H1390 C1398 0.950 . S
H1391 C1400 0.950 . S
H1392 C1402 0.950 . S
H1393 C1404 0.950 . S
H1394 C1406 0.950 . S
H1395 C1407 0.950 . S
C1396 H1388 0.950 . S
C1396 C1397 1.386 . S
C1396 C1398 1.391 . S
C1397 C1396 1.386 . S
C1397 C1401 1.393 . S
C1398 H1390 0.950 . S
C1398 C1396 1.391 . S
C1398 C1399 1.400 . S
C1399 C1398 1.400 . S
C1399 C1400 1.398 . S
C1399 C1405 1.491 . S
C1400 H1391 0.950 . S
C1400 C1399 1.398 . S
C1400 C1401 1.391 . S
C1401 H1389 0.950 . S
C1401 C1397 1.393 . S
C1401 C1400 1.391 . S
C1402 H1392 0.950 . S
C1402 C1403 1.386 . S
C1402 C1404 1.391 . S
C1403 C1402 1.386 . S
C1403 C1407 1.393 . S
C1404 H1393 0.950 . S
C1404 C1402 1.391 . S
C1404 C1405 1.400 . S
C1405 C1399 1.491 . S
C1405 C1404 1.400 . S
C1405 C1406 1.398 . S
C1406 H1394 0.950 . S
C1406 C1405 1.398 . S
C1406 C1407 1.391 . S
C1407 H1395 0.950 . S
C1407 C1403 1.393 . S
C1407 C1406 1.391 . S
H1408 C1416 0.950 . S
H1409 C1421 0.950 . S
H1410 C1418 0.950 . S
H1411 C1420 0.950 . S
H1412 C1422 0.950 . S
H1413 C1424 0.950 . S
H1414 C1426 0.950 . S
H1415 C1427 0.950 . S
C1416 H1408 0.950 . S
C1416 C1417 1.386 . S
C1416 C1418 1.391 . S
C1417 C1416 1.386 . S
C1417 C1421 1.393 . S
C1418 H1410 0.950 . S
C1418 C1416 1.391 . S
C1418 C1419 1.400 . S
C1419 C1418 1.400 . S
C1419 C1420 1.398 . S
C1419 C1425 1.491 . S
C1420 H1411 0.950 . S
C1420 C1419 1.398 . S
C1420 C1421 1.391 . S
C1421 H1409 0.950 . S
C1421 C1417 1.393 . S
C1421 C1420 1.391 . S
C1422 H1412 0.950 . S
C1422 C1423 1.386 . S
C1422 C1424 1.391 . S
C1423 C1422 1.386 . S
C1423 C1427 1.393 . S
C1424 H1413 0.950 . S
C1424 C1422 1.391 . S
C1424 C1425 1.400 . S
C1425 C1419 1.491 . S
C1425 C1424 1.400 . S
C1425 C1426 1.398 . S
C1426 H1414 0.950 . S
C1426 C1425 1.398 . S
C1426 C1427 1.391 . S
C1427 H1415 0.950 . S
C1427 C1423 1.393 . S
C1427 C1426 1.391 . S
H1428 C1436 0.950 . S
H1429 C1441 0.950 . S
H1430 C1438 0.950 . S
H1431 C1440 0.950 . S
H1432 C1442 0.950 . S
H1433 C1444 0.950 . S
H1434 C1446 0.950 . S
H1435 C1447 0.950 . S
C1436 H1428 0.950 . S
C1436 C1437 1.386 . S
C1436 C1438 1.391 . S
C1437 C1436 1.386 . S
C1437 C1441 1.393 . S
C1438 H1430 0.950 . S
C1438 C1436 1.391 . S
C1438 C1439 1.400 . S
C1439 C1438 1.400 . S
C1439 C1440 1.398 . S
C1439 C1445 1.491 . S
C1440 H1431 0.950 . S
C1440 C1439 1.398 . S
C1440 C1441 1.391 . S
C1441 H1429 0.950 . S
C1441 C1437 1.393 . S
C1441 C1440 1.391 . S
C1442 H1432 0.950 . S
C1442 C1443 1.386 . S
C1442 C1444 1.391 . S
C1443 C1442 1.386 . S
C1443 C1447 1.393 . S
C1444 H1433 0.950 . S
C1444 C1442 1.391 . S
C1444 C1445 1.400 . S
C1445 C1439 1.491 . S
C1445 C1444 1.400 . S
C1445 C1446 1.398 . S
C1446 H1434 0.950 . S
C1446 C1445 1.398 . S
C1446 C1447 1.391 . S
C1447 H1435 0.950 . S
C1447 C1443 1.393 . S
C1447 C1446 1.391 . S
H1448 C1456 0.950 . S
H1449 C1461 0.950 . S
H1450 C1458 0.950 . S
H1451 C1460 0.950 . S
H1452 C1462 0.950 . S
H1453 C1464 0.950 . S
H1454 C1466 0.950 . S
H1455 C1467 0.950 . S
C1456 H1448 0.950 . S
C1456 C1457 1.386 . S
C1456 C1458 1.391 . S
C1457 C1456 1.386 . S
C1457 C1461 1.393 . S
C1458 H1450 0.950 . S
C1458 C1456 1.391 . S
C1458 C1459 1.400 . S
C1459 C1458 1.400 . S
C1459 C1460 1.398 . S
C1459 C1465 1.491 . S
C1460 H1451 0.950 . S
C1460 C1459 1.398 . S
C1460 C1461 1.391 . S
C1461 H1449 0.950 . S
C1461 C1457 1.393 . S
C1461 C1460 1.391 . S
C1462 H1452 0.950 . S
C1462 C1463 1.386 . S
C1462 C1464 1.391 . S
C1463 C1462 1.386 . S
C1463 C1467 1.393 . S
C1464 H1453 0.950 . S
C1464 C1462 1.391 . S
C1464 C1465 1.400 . S
C1465 C1459 1.491 . S
C1465 C1464 1.400 . S
C1465 C1466 1.398 . S
C1466 H1454 0.950 . S
C1466 C1465 1.398 . S
C1466 C1467 1.391 . S
C1467 H1455 0.950 . S
C1467 C1463 1.393 . S
C1467 C1466 1.391 . S
H1468 C1476 0.950 . S
H1469 C1481 0.950 . S
H1470 C1478 0.950 . S
H1471 C1480 0.950 . S
H1472 C1482 0.950 . S
H1473 C1484 0.950 . S
H1474 C1486 0.950 . S
H1475 C1487 0.950 . S
C1476 H1468 0.950 . S
C1476 C1477 1.386 . S
C1476 C1478 1.391 . S
C1477 C1476 1.386 . S
C1477 C1481 1.393 . S
C1478 H1470 0.950 . S
C1478 C1476 1.391 . S
C1478 C1479 1.400 . S
C1479 C1478 1.400 . S
C1479 C1480 1.398 . S
C1479 C1485 1.491 . S
C1480 H1471 0.950 . S
C1480 C1479 1.398 . S
C1480 C1481 1.391 . S
C1481 H1469 0.950 . S
C1481 C1477 1.393 . S
C1481 C1480 1.391 . S
C1482 H1472 0.950 . S
C1482 C1483 1.386 . S
C1482 C1484 1.391 . S
C1483 C1482 1.386 . S
C1483 C1487 1.393 . S
C1484 H1473 0.950 . S
C1484 C1482 1.391 . S
C1484 C1485 1.400 . S
C1485 C1479 1.491 . S
C1485 C1484 1.400 . S
C1485 C1486 1.398 . S
C1486 H1474 0.950 . S
C1486 C1485 1.398 . S
C1486 C1487 1.391 . S
C1487 H1475 0.950 . S
C1487 C1483 1.393 . S
C1487 C1486 1.391 . S
H1488 C1496 0.950 . S
H1489 C1501 0.950 1_455 S
H1490 C1498 0.950 . S
H1491 C1500 0.950 . S
H1492 C1502 0.950 1_556 S
H1493 C1504 0.950 . S
H1494 C1506 0.950 . S
H1495 C1507 0.950 . S
C1496 H1488 0.950 . S
C1496 C1497 1.386 . S
C1496 C1498 1.391 . S
C1497 C1496 1.386 . S
C1497 C1501 1.393 . S
C1498 H1490 0.950 . S
C1498 C1496 1.391 . S
C1498 C1499 1.400 . S
C1499 C1498 1.400 . S
C1499 C1500 1.398 . S
C1499 C1505 1.491 . S
C1500 H1491 0.950 . S
C1500 C1499 1.398 . S
C1500 C1501 1.391 . S
C1501 H1489 0.950 1_655 S
C1501 C1497 1.393 . S
C1501 C1500 1.391 . S
C1502 H1492 0.950 1_554 S
C1502 C1503 1.386 . S
C1502 C1504 1.391 . S
C1503 C1502 1.386 . S
C1503 C1507 1.393 . S
C1504 H1493 0.950 . S
C1504 C1502 1.391 . S
C1504 C1505 1.400 . S
C1505 C1499 1.491 . S
C1505 C1504 1.400 . S
C1505 C1506 1.398 . S
C1506 H1494 0.950 . S
C1506 C1505 1.398 . S
C1506 C1507 1.391 . S
C1507 H1495 0.950 . S
C1507 C1503 1.393 . S
C1507 C1506 1.391 . S
H1508 C1516 0.950 . S
H1509 C1521 0.950 . S
H1510 C1518 0.950 . S
H1511 C1520 0.950 . S
H1512 C1522 0.950 . S
H1513 C1524 0.950 . S
H1514 C1526 0.950 . S
H1515 C1527 0.950 . S
C1516 H1508 0.950 . S
C1516 C1517 1.386 . S
C1516 C1518 1.391 . S
C1517 C1516 1.386 . S
C1517 C1521 1.393 . S
C1518 H1510 0.950 . S
C1518 C1516 1.391 . S
C1518 C1519 1.400 . S
C1519 C1518 1.400 . S
C1519 C1520 1.398 . S
C1519 C1525 1.491 . S
C1520 H1511 0.950 . S
C1520 C1519 1.398 . S
C1520 C1521 1.391 . S
C1521 H1509 0.950 . S
C1521 C1517 1.393 . S
C1521 C1520 1.391 . S
C1522 H1512 0.950 . S
C1522 C1523 1.386 . S
C1522 C1524 1.391 . S
C1523 C1522 1.386 . S
C1523 C1527 1.393 . S
C1524 H1513 0.950 . S
C1524 C1522 1.391 . S
C1524 C1525 1.400 . S
C1525 C1519 1.491 . S
C1525 C1524 1.400 . S
C1525 C1526 1.398 . S
C1526 H1514 0.950 . S
C1526 C1525 1.398 . S
C1526 C1527 1.391 . S
C1527 H1515 0.950 . S
C1527 C1523 1.393 . S
C1527 C1526 1.391 . S
H1528 C1536 0.950 . S
H1529 C1541 0.918 1_554 S
H1530 C1538 0.950 . S
H1531 C1540 0.950 . S
H1532 C1542 0.950 . S
H1533 C1544 0.950 . S
H1534 C1546 0.950 . S
H1535 C1547 0.950 . S
C1536 H1528 0.950 . S
C1536 C1537 1.386 . S
C1536 C1538 1.391 . S
C1537 C1536 1.386 . S
C1537 C1541 1.399 . S
C1538 H1530 0.950 . S
C1538 C1536 1.391 . S
C1538 C1539 1.400 . S
C1539 C1538 1.400 . S
C1539 C1540 1.398 . S
C1539 C1545 1.491 . S
C1540 H1531 0.950 . S
C1540 C1539 1.398 . S
C1540 C1541 1.417 . S
C1541 H1529 0.918 1_556 S
C1541 C1537 1.399 . S
C1541 C1540 1.417 . S
C1542 H1532 0.950 . S
C1542 C1543 1.386 . S
C1542 C1544 1.391 . S
C1543 C1542 1.386 . S
C1543 C1547 1.393 . S
C1544 H1533 0.950 . S
C1544 C1542 1.391 . S
C1544 C1545 1.400 . S
C1545 C1539 1.491 . S
C1545 C1544 1.400 . S
C1545 C1546 1.398 . S
C1546 H1534 0.950 . S
C1546 C1545 1.398 . S
C1546 C1547 1.391 . S
C1547 H1535 0.950 . S
C1547 C1543 1.393 . S
C1547 C1546 1.391 . S
H1548 C1556 0.950 . S
H1549 C1561 0.950 . S
H1550 C1558 0.950 . S
H1551 C1560 0.950 . S
H1552 C1562 0.950 . S
H1553 C1564 0.950 . S
H1554 C1566 0.950 . S
H1555 C1567 0.950 . S
C1556 H1548 0.950 . S
C1556 C1557 1.386 . S
C1556 C1558 1.391 . S
C1557 C1556 1.386 . S
C1557 C1561 1.393 . S
C1558 H1550 0.950 . S
C1558 C1556 1.391 . S
C1558 C1559 1.400 . S
C1559 C1558 1.400 . S
C1559 C1560 1.398 . S
C1559 C1565 1.491 . S
C1560 H1551 0.950 . S
C1560 C1559 1.398 . S
C1560 C1561 1.391 . S
C1561 H1549 0.950 . S
C1561 C1557 1.393 . S
C1561 C1560 1.391 . S
C1562 H1552 0.950 . S
C1562 C1563 1.386 . S
C1562 C1564 1.391 . S
C1563 C1562 1.386 . S
C1563 C1567 1.393 . S
C1564 H1553 0.950 . S
C1564 C1562 1.391 . S
C1564 C1565 1.400 . S
C1565 C1559 1.491 . S
C1565 C1564 1.400 . S
C1565 C1566 1.398 . S
C1566 H1554 0.950 . S
C1566 C1565 1.398 . S
C1566 C1567 1.391 . S
C1567 H1555 0.950 . S
C1567 C1563 1.393 . S
C1567 C1566 1.391 . S
H1568 C1576 0.950 . S
H1569 C1581 0.950 1_545 S
H1570 C1578 0.950 . S
H1571 C1580 0.950 . S
H1572 C1582 0.950 . S
H1573 C1584 0.950 . S
H1574 C1586 0.950 . S
H1575 C1587 0.950 . S
C1576 H1568 0.950 . S
C1576 C1577 1.386 . S
C1576 C1578 1.391 . S
C1577 C1576 1.386 . S
C1577 C1581 1.393 . S
C1578 H1570 0.950 . S
C1578 C1576 1.391 . S
C1578 C1579 1.400 . S
C1579 C1578 1.400 . S
C1579 C1580 1.398 . S
C1579 C1585 1.491 . S
C1580 H1571 0.950 . S
C1580 C1579 1.398 . S
C1580 C1581 1.391 . S
C1581 H1569 0.950 1_565 S
C1581 C1577 1.393 . S
C1581 C1580 1.391 . S
C1582 H1572 0.950 . S
C1582 C1583 1.386 . S
C1582 C1584 1.391 . S
C1583 C1582 1.386 . S
C1583 C1587 1.393 . S
C1584 H1573 0.950 . S
C1584 C1582 1.391 . S
C1584 C1585 1.400 . S
C1585 C1579 1.491 . S
C1585 C1584 1.400 . S
C1585 C1586 1.398 . S
C1586 H1574 0.950 . S
C1586 C1585 1.398 . S
C1586 C1587 1.391 . S
C1587 H1575 0.950 . S
C1587 C1583 1.393 . S
C1587 C1586 1.391 . S
H1588 C1596 0.950 . S
H1589 C1601 0.950 . S
H1590 C1598 0.950 . S
H1591 C1600 0.950 . S
H1592 C1602 0.950 1_565 S
H1593 C1604 0.950 . S
H1594 C1606 0.950 . S
H1595 C1607 0.950 . S
C1596 H1588 0.950 . S
C1596 C1597 1.386 . S
C1596 C1598 1.391 . S
C1597 C1596 1.386 . S
C1597 C1601 1.393 . S
C1598 H1590 0.950 . S
C1598 C1596 1.391 . S
C1598 C1599 1.400 . S
C1599 C1598 1.400 . S
C1599 C1600 1.398 . S
C1599 C1605 1.491 . S
C1600 H1591 0.950 . S
C1600 C1599 1.398 . S
C1600 C1601 1.391 . S
C1601 H1589 0.950 . S
C1601 C1597 1.393 . S
C1601 C1600 1.391 . S
C1602 H1592 0.950 1_545 S
C1602 C1603 1.386 . S
C1602 C1604 1.391 . S
C1603 C1602 1.386 . S
C1603 C1607 1.393 . S
C1604 H1593 0.950 . S
C1604 C1602 1.391 . S
C1604 C1605 1.400 . S
C1605 C1599 1.491 . S
C1605 C1604 1.400 . S
C1605 C1606 1.398 . S
C1606 H1594 0.950 . S
C1606 C1605 1.398 . S
C1606 C1607 1.391 . S
C1607 H1595 0.950 . S
C1607 C1603 1.393 . S
C1607 C1606 1.391 . S
H1608 C1616 0.950 . S
H1609 C1621 0.950 . S
H1610 C1618 0.950 . S
H1611 C1620 0.950 . S
H1612 C1622 0.950 . S
H1613 C1624 0.950 . S
H1614 C1626 0.950 . S
H1615 C1627 0.950 . S
C1616 H1608 0.950 . S
C1616 C1617 1.386 . S
C1616 C1618 1.391 . S
C1617 C1616 1.386 . S
C1617 C1621 1.393 . S
C1618 H1610 0.950 . S
C1618 C1616 1.391 . S
C1618 C1619 1.400 . S
C1619 C1618 1.400 . S
C1619 C1620 1.398 . S
C1619 C1625 1.491 . S
C1620 H1611 0.950 . S
C1620 C1619 1.398 . S
C1620 C1621 1.391 . S
C1621 H1609 0.950 . S
C1621 C1617 1.393 . S
C1621 C1620 1.391 . S
C1622 H1612 0.950 . S
C1622 C1623 1.386 . S
C1622 C1624 1.391 . S
C1623 C1622 1.386 . S
C1623 C1627 1.393 . S
C1624 H1613 0.950 . S
C1624 C1622 1.391 . S
C1624 C1625 1.400 . S
C1625 C1619 1.491 . S
C1625 C1624 1.400 . S
C1625 C1626 1.398 . S
C1626 H1614 0.950 . S
C1626 C1625 1.398 . S
C1626 C1627 1.391 . S
C1627 H1615 0.950 . S
C1627 C1623 1.393 . S
C1627 C1626 1.391 . S
H1628 C1636 0.950 . S
H1629 C1641 0.920 1_455 S
H1630 C1638 0.950 . S
H1631 C1640 0.950 . S
H1632 C1642 0.950 . S
H1633 C1644 0.950 . S
H1634 C1646 0.950 . S
H1635 C1647 0.950 . S
C1636 H1628 0.950 . S
C1636 C1637 1.386 . S
C1636 C1638 1.391 . S
C1637 C1636 1.386 . S
C1637 C1641 1.398 . S
C1638 H1630 0.950 . S
C1638 C1636 1.391 . S
C1638 C1639 1.400 . S
C1639 C1638 1.400 . S
C1639 C1640 1.398 . S
C1639 C1645 1.491 . S
C1640 H1631 0.950 . S
C1640 C1639 1.398 . S
C1640 C1641 1.415 . S
C1641 H1629 0.920 1_655 S
C1641 C1637 1.398 . S
C1641 C1640 1.415 . S
C1642 H1632 0.950 . S
C1642 C1643 1.386 . S
C1642 C1644 1.391 . S
C1643 C1642 1.386 . S
C1643 C1647 1.393 . S
C1644 H1633 0.950 . S
C1644 C1642 1.391 . S
C1644 C1645 1.400 . S
C1645 C1639 1.491 . S
C1645 C1644 1.400 . S
C1645 C1646 1.398 . S
C1646 H1634 0.950 . S
C1646 C1645 1.398 . S
C1646 C1647 1.391 . S
C1647 H1635 0.950 . S
C1647 C1643 1.393 . S
C1647 C1646 1.391 . S
H1648 C1656 0.950 . S
H1649 C1661 0.947 . S
H1650 C1658 0.950 . S
H1651 C1660 0.950 . S
H1652 C1662 0.950 1_565 S
H1653 C1664 0.950 . S
H1654 C1666 0.950 . S
H1655 C1667 0.950 . S
C1656 H1648 0.950 . S
C1656 C1657 1.386 . S
C1656 C1658 1.391 . S
C1657 C1656 1.386 . S
C1657 C1661 1.393 1_556 S
C1658 H1650 0.950 . S
C1658 C1656 1.391 . S
C1658 C1659 1.400 . S
C1659 C1658 1.400 . S
C1659 C1660 1.398 . S
C1659 C1665 1.491 . S
C1660 H1651 0.950 . S
C1660 C1659 1.398 . S
C1660 C1661 1.392 1_556 S
C1661 H1649 0.947 . S
C1661 C1657 1.393 1_554 S
C1661 C1660 1.392 1_554 S
C1662 H1652 0.950 1_545 S
C1662 C1663 1.386 . S
C1662 C1664 1.391 . S
C1663 C1662 1.386 . S
C1663 C1667 1.393 . S
C1664 H1653 0.950 . S
C1664 C1662 1.391 . S
C1664 C1665 1.400 . S
C1665 C1659 1.491 . S
C1665 C1664 1.400 . S
C1665 C1666 1.398 . S
C1666 H1654 0.950 . S
C1666 C1665 1.398 . S
C1666 C1667 1.391 . S
C1667 H1655 0.950 . S
C1667 C1663 1.393 . S
C1667 C1666 1.391 . S
H1668 C1676 0.950 1_556 S
H1669 C1681 0.950 . S
H1670 C1678 0.950 . S
H1671 C1680 0.950 . S
H1672 C1682 0.950 . S
H1673 C1684 0.950 . S
H1674 C1686 0.950 . S
H1675 C1687 0.950 . S
C1676 H1668 0.950 1_554 S
C1676 C1677 1.386 . S
C1676 C1678 1.391 . S
C1677 C1676 1.386 . S
C1677 C1681 1.393 . S
C1678 H1670 0.950 . S
C1678 C1676 1.391 . S
C1678 C1679 1.400 . S
C1679 C1678 1.400 . S
C1679 C1680 1.398 . S
C1679 C1685 1.491 . S
C1680 H1671 0.950 . S
C1680 C1679 1.398 . S
C1680 C1681 1.391 . S
C1681 H1669 0.950 . S
C1681 C1677 1.393 . S
C1681 C1680 1.391 . S
C1682 H1672 0.950 . S
C1682 C1683 1.386 . S
C1682 C1684 1.391 . S
C1683 C1682 1.386 . S
C1683 C1687 1.393 . S
C1684 H1673 0.950 . S
C1684 C1682 1.391 . S
C1684 C1685 1.400 . S
C1685 C1679 1.491 . S
C1685 C1684 1.400 . S
C1685 C1686 1.398 . S
C1686 H1674 0.950 . S
C1686 C1685 1.398 . S
C1686 C1687 1.391 . S
C1687 H1675 0.950 . S
C1687 C1683 1.393 . S
C1687 C1686 1.391 . S
H1688 C1696 0.950 . S
H1689 C1701 0.950 . S
H1690 C1698 0.950 . S
H1691 C1700 0.950 . S
H1692 C1702 0.950 . S
H1693 C1704 0.950 . S
H1694 C1706 0.950 . S
H1695 C1707 0.950 . S
C1696 H1688 0.950 . S
C1696 C1697 1.386 . S
C1696 C1698 1.391 . S
C1697 C1696 1.386 . S
C1697 C1701 1.393 . S
C1698 H1690 0.950 . S
C1698 C1696 1.391 . S
C1698 C1699 1.400 . S
C1699 C1698 1.400 . S
C1699 C1700 1.398 . S
C1699 C1705 1.491 . S
C1700 H1691 0.950 . S
C1700 C1699 1.398 . S
C1700 C1701 1.391 . S
C1701 H1689 0.950 . S
C1701 C1697 1.393 . S
C1701 C1700 1.391 . S
C1702 H1692 0.950 . S
C1702 C1703 1.386 . S
C1702 C1704 1.391 . S
C1703 C1702 1.386 . S
C1703 C1707 1.393 . S
C1704 H1693 0.950 . S
C1704 C1702 1.391 . S
C1704 C1705 1.400 . S
C1705 C1699 1.491 . S
C1705 C1704 1.400 . S
C1705 C1706 1.398 . S
C1706 H1694 0.950 . S
C1706 C1705 1.398 . S
C1706 C1707 1.391 . S
C1707 H1695 0.950 . S
C1707 C1703 1.393 . S
C1707 C1706 1.391 . S
H1708 C1716 0.950 . S
H1709 C1721 0.950 . S
H1710 C1718 0.950 . S
H1711 C1720 0.950 . S
H1712 C1722 0.950 1_545 S
H1713 C1724 0.950 . S
H1714 C1726 0.950 . S
H1715 C1727 0.950 . S
C1716 H1708 0.950 . S
C1716 C1717 1.386 . S
C1716 C1718 1.391 . S
C1717 C1716 1.386 . S
C1717 C1721 1.393 . S
C1718 H1710 0.950 . S
C1718 C1716 1.391 . S
C1718 C1719 1.400 . S
C1719 C1718 1.400 . S
C1719 C1720 1.398 . S
C1719 C1725 1.491 . S
C1720 H1711 0.950 . S
C1720 C1719 1.398 . S
C1720 C1721 1.391 . S
C1721 H1709 0.950 . S
C1721 C1717 1.393 . S
C1721 C1720 1.391 . S
C1722 H1712 0.950 1_565 S
C1722 C1723 1.386 . S
C1722 C1724 1.391 . S
C1723 C1722 1.386 . S
C1723 C1727 1.393 . S
C1724 H1713 0.950 . S
C1724 C1722 1.391 . S
C1724 C1725 1.400 . S
C1725 C1719 1.491 . S
C1725 C1724 1.400 . S
C1725 C1726 1.398 . S
C1726 H1714 0.950 . S
C1726 C1725 1.398 . S
C1726 C1727 1.391 . S
C1727 H1715 0.950 . S
C1727 C1723 1.393 . S
C1727 C1726 1.391 . S
H1728 C1736 0.950 . S
H1729 C1741 0.950 . S
H1730 C1738 0.950 . S
H1731 C1740 0.950 . S
H1732 C1742 0.936 1_554 S
H1733 C1744 0.950 . S
H1734 C1746 0.950 . S
H1735 C1747 0.950 . S
C1736 H1728 0.950 . S
C1736 C1737 1.386 . S
C1736 C1738 1.391 . S
C1737 C1736 1.386 . S
C1737 C1741 1.393 1_455 S
C1738 H1730 0.950 . S
C1738 C1736 1.391 . S
C1738 C1739 1.400 . S
C1739 C1738 1.400 . S
C1739 C1740 1.398 . S
C1739 C1745 1.491 . S
C1740 H1731 0.950 . S
C1740 C1739 1.398 . S
C1740 C1741 1.391 1_455 S
C1741 H1729 0.950 . S
C1741 C1737 1.393 1_655 S
C1741 C1740 1.391 1_655 S
C1742 H1732 0.936 1_556 S
C1742 C1743 1.388 . S
C1742 C1744 1.402 . S
C1743 C1742 1.388 . S
C1743 C1747 1.393 . S
C1744 H1733 0.950 . S
C1744 C1742 1.402 . S
C1744 C1745 1.400 . S
C1745 C1739 1.491 . S
C1745 C1744 1.400 . S
C1745 C1746 1.398 . S
C1746 H1734 0.950 . S
C1746 C1745 1.398 . S
C1746 C1747 1.391 . S
C1747 H1735 0.950 . S
C1747 C1743 1.393 . S
C1747 C1746 1.391 . S
H1748 C1756 0.950 . S
H1749 C1761 0.950 . S
H1750 C1758 0.950 . S
H1751 C1760 0.950 . S
H1752 C1762 0.950 . S
H1753 C1764 0.950 . S
H1754 C1766 0.950 . S
H1755 C1767 0.950 . S
C1756 H1748 0.950 . S
C1756 C1757 1.386 . S
C1756 C1758 1.391 . S
C1757 C1756 1.386 . S
C1757 C1761 1.393 . S
C1758 H1750 0.950 . S
C1758 C1756 1.391 . S
C1758 C1759 1.400 . S
C1759 C1758 1.400 . S
C1759 C1760 1.398 . S
C1759 C1765 1.491 . S
C1760 H1751 0.950 . S
C1760 C1759 1.398 . S
C1760 C1761 1.391 . S
C1761 H1749 0.950 . S
C1761 C1757 1.393 . S
C1761 C1760 1.391 . S
C1762 H1752 0.950 . S
C1762 C1763 1.386 . S
C1762 C1764 1.391 . S
C1763 C1762 1.386 . S
C1763 C1767 1.393 . S
C1764 H1753 0.950 . S
C1764 C1762 1.391 . S
C1764 C1765 1.400 . S
C1765 C1759 1.491 . S
C1765 C1764 1.400 . S
C1765 C1766 1.398 . S
C1766 H1754 0.950 . S
C1766 C1765 1.398 . S
C1766 C1767 1.391 . S
C1767 H1755 0.950 . S
C1767 C1763 1.393 . S
C1767 C1766 1.391 . S
H1768 C1776 0.950 . S
H1769 C1781 0.950 1_556 S
H1770 C1778 0.950 . S
H1771 C1780 0.950 . S
H1772 C1782 0.950 . S
H1773 C1784 0.950 . S
H1774 C1786 0.950 . S
H1775 C1787 0.950 . S
C1776 H1768 0.950 . S
C1776 C1777 1.386 . S
C1776 C1778 1.391 . S
C1777 C1776 1.386 . S
C1777 C1781 1.393 . S
C1778 H1770 0.950 . S
C1778 C1776 1.391 . S
C1778 C1779 1.400 . S
C1779 C1778 1.400 . S
C1779 C1780 1.398 . S
C1779 C1785 1.491 . S
C1780 H1771 0.950 . S
C1780 C1779 1.398 . S
C1780 C1781 1.391 . S
C1781 H1769 0.950 1_554 S
C1781 C1777 1.393 . S
C1781 C1780 1.391 . S
C1782 H1772 0.950 . S
C1782 C1783 1.386 . S
C1782 C1784 1.391 . S
C1783 C1782 1.386 . S
C1783 C1787 1.393 . S
C1784 H1773 0.950 . S
C1784 C1782 1.391 . S
C1784 C1785 1.400 . S
C1785 C1779 1.491 . S
C1785 C1784 1.400 . S
C1785 C1786 1.398 . S
C1786 H1774 0.950 . S
C1786 C1785 1.398 . S
C1786 C1787 1.391 . S
C1787 H1775 0.950 . S
C1787 C1783 1.393 . S
C1787 C1786 1.391 . S
H1788 C1796 0.950 . S
H1789 C1801 0.950 . S
H1790 C1798 0.950 . S
H1791 C1800 0.950 . S
H1792 C1802 0.950 . S
H1793 C1804 0.950 . S
H1794 C1806 0.950 . S
H1795 C1807 0.950 . S
C1796 H1788 0.950 . S
C1796 C1797 1.386 . S
C1796 C1798 1.391 . S
C1797 C1796 1.386 . S
C1797 C1801 1.393 . S
C1798 H1790 0.950 . S
C1798 C1796 1.391 . S
C1798 C1799 1.400 . S
C1799 C1798 1.400 . S
C1799 C1800 1.398 . S
C1799 C1805 1.491 . S
C1800 H1791 0.950 . S
C1800 C1799 1.398 . S
C1800 C1801 1.391 . S
C1801 H1789 0.950 . S
C1801 C1797 1.393 . S
C1801 C1800 1.391 . S
C1802 H1792 0.950 . S
C1802 C1803 1.386 . S
C1802 C1804 1.391 . S
C1803 C1802 1.386 . S
C1803 C1807 1.393 1_655 S
C1804 H1793 0.950 . S
C1804 C1802 1.391 . S
C1804 C1805 1.400 . S
C1805 C1799 1.491 . S
C1805 C1804 1.400 . S
C1805 C1806 1.398 . S
C1806 H1794 0.950 . S
C1806 C1805 1.398 . S
C1806 C1807 1.391 1_655 S
C1807 H1795 0.950 . S
C1807 C1803 1.393 1_455 S
C1807 C1806 1.391 1_455 S
H1808 C1816 0.950 . S
H1809 C1821 0.950 1_565 S
H1810 C1818 0.950 . S
H1811 C1820 0.950 . S
H1812 C1822 0.950 1_455 S
H1813 C1824 0.950 . S
H1814 C1826 0.950 . S
H1815 C1827 0.950 . S
C1816 H1808 0.950 . S
C1816 C1817 1.386 . S
C1816 C1818 1.391 . S
C1817 C1816 1.386 . S
C1817 C1821 1.393 . S
C1818 H1810 0.950 . S
C1818 C1816 1.391 . S
C1818 C1819 1.400 . S
C1819 C1818 1.400 . S
C1819 C1820 1.398 . S
C1819 C1825 1.491 . S
C1820 H1811 0.950 . S
C1820 C1819 1.398 . S
C1820 C1821 1.391 . S
C1821 H1809 0.950 1_545 S
C1821 C1817 1.393 . S
C1821 C1820 1.391 . S
C1822 H1812 0.950 1_655 S
C1822 C1823 1.386 . S
C1822 C1824 1.391 . S
C1823 C1822 1.386 . S
C1823 C1827 1.393 . S
C1824 H1813 0.950 . S
C1824 C1822 1.391 . S
C1824 C1825 1.400 . S
C1825 C1819 1.491 . S
C1825 C1824 1.400 . S
C1825 C1826 1.398 . S
C1826 H1814 0.950 . S
C1826 C1825 1.398 . S
C1826 C1827 1.391 . S
C1827 H1815 0.950 . S
C1827 C1823 1.393 . S
C1827 C1826 1.391 . S
H1828 C1836 0.950 . S
H1829 C1841 0.950 . S
H1830 C1838 0.950 . S
H1831 C1840 0.950 . S
H1832 C1842 0.950 . S
H1833 C1844 0.950 . S
H1834 C1846 0.950 . S
H1835 C1847 0.950 . S
C1836 H1828 0.950 . S
C1836 C1837 1.386 1_545 S
C1836 C1838 1.391 1_545 S
C1837 C1836 1.386 1_565 S
C1837 C1841 1.393 . S
C1838 H1830 0.950 . S
C1838 C1836 1.391 1_565 S
C1838 C1839 1.400 . S
C1839 C1838 1.400 . S
C1839 C1840 1.398 . S
C1839 C1845 1.491 . S
C1840 H1831 0.950 . S
C1840 C1839 1.398 . S
C1840 C1841 1.391 . S
C1841 H1829 0.950 . S
C1841 C1837 1.393 . S
C1841 C1840 1.391 . S
C1842 H1832 0.950 . S
C1842 C1843 1.386 . S
C1842 C1844 1.391 . S
C1843 C1842 1.386 . S
C1843 C1847 1.393 . S
C1844 H1833 0.950 . S
C1844 C1842 1.391 . S
C1844 C1845 1.400 . S
C1845 C1839 1.491 . S
C1845 C1844 1.400 . S
C1845 C1846 1.398 . S
C1846 H1834 0.950 . S
C1846 C1845 1.398 . S
C1846 C1847 1.391 . S
C1847 H1835 0.950 . S
C1847 C1843 1.393 . S
C1847 C1846 1.391 . S
H1848 C1856 0.950 . S
H1849 C1861 0.950 . S
H1850 C1858 0.950 . S
H1851 C1860 0.950 . S
H1852 C1862 0.950 . S
H1853 C1864 0.950 . S
H1854 C1866 0.950 . S
H1855 C1867 0.950 . S
C1856 H1848 0.950 . S
C1856 C1857 1.386 . S
C1856 C1858 1.391 . S
C1857 C1856 1.386 . S
C1857 C1861 1.393 . S
C1858 H1850 0.950 . S
C1858 C1856 1.391 . S
C1858 C1859 1.400 . S
C1859 C1858 1.400 . S
C1859 C1860 1.398 . S
C1859 C1865 1.491 . S
C1860 H1851 0.950 . S
C1860 C1859 1.398 . S
C1860 C1861 1.391 . S
C1861 H1849 0.950 . S
C1861 C1857 1.393 . S
C1861 C1860 1.391 . S
C1862 H1852 0.950 . S
C1862 C1863 1.386 . S
C1862 C1864 1.391 . S
C1863 C1862 1.386 . S
C1863 C1867 1.393 . S
C1864 H1853 0.950 . S
C1864 C1862 1.391 . S
C1864 C1865 1.400 . S
C1865 C1859 1.491 . S
C1865 C1864 1.400 . S
C1865 C1866 1.398 . S
C1866 H1854 0.950 . S
C1866 C1865 1.398 . S
C1866 C1867 1.391 . S
C1867 H1855 0.950 . S
C1867 C1863 1.393 . S
C1867 C1866 1.391 . S
H1868 C1876 0.950 . S
H1869 C1881 0.950 . S
H1870 C1878 0.950 . S
H1871 C1880 0.950 . S
H1872 C1882 0.964 . S
H1873 C1884 0.950 . S
H1874 C1886 0.950 . S
H1875 C1887 0.950 . S
C1876 H1868 0.950 . S
C1876 C1877 1.386 . S
C1876 C1878 1.391 . S
C1877 C1876 1.386 . S
C1877 C1881 1.393 . S
C1878 H1870 0.950 . S
C1878 C1876 1.391 . S
C1878 C1879 1.400 . S
C1879 C1878 1.400 . S
C1879 C1880 1.398 . S
C1879 C1885 1.491 . S
C1880 H1871 0.950 . S
C1880 C1879 1.398 . S
C1880 C1881 1.391 . S
C1881 H1869 0.950 . S
C1881 C1877 1.393 . S
C1881 C1880 1.391 . S
C1882 H1872 0.964 . S
C1882 C1883 1.383 1_655 S
C1882 C1884 1.380 1_655 S
C1883 C1882 1.383 1_455 S
C1883 C1887 1.393 . S
C1884 H1873 0.950 . S
C1884 C1882 1.380 1_455 S
C1884 C1885 1.400 . S
C1885 C1879 1.491 . S
C1885 C1884 1.400 . S
C1885 C1886 1.398 . S
C1886 H1874 0.950 . S
C1886 C1885 1.398 . S
C1886 C1887 1.391 . S
C1887 H1875 0.950 . S
C1887 C1883 1.393 . S
C1887 C1886 1.391 . S
H1888 C1896 0.950 . S
H1889 C1901 0.950 . S
H1890 C1898 0.950 . S
H1891 C1900 0.950 . S
H1892 C1902 0.950 . S
H1893 C1904 0.950 . S
H1894 C1906 0.950 . S
H1895 C1907 0.950 1_545 S
C1896 H1888 0.950 . S
C1896 C1897 1.386 1_556 S
C1896 C1898 1.391 1_556 S
C1897 C1896 1.386 1_554 S
C1897 C1901 1.393 . S
C1898 H1890 0.950 . S
C1898 C1896 1.391 1_554 S
C1898 C1899 1.400 . S
C1899 C1898 1.400 . S
C1899 C1900 1.398 . S
C1899 C1905 1.491 . S
C1900 H1891 0.950 . S
C1900 C1899 1.398 . S
C1900 C1901 1.391 . S
C1901 H1889 0.950 . S
C1901 C1897 1.393 . S
C1901 C1900 1.391 . S
C1902 H1892 0.950 . S
C1902 C1903 1.386 . S
C1902 C1904 1.391 . S
C1903 C1902 1.386 . S
C1903 C1907 1.393 . S
C1904 H1893 0.950 . S
C1904 C1902 1.391 . S
C1904 C1905 1.400 . S
C1905 C1899 1.491 . S
C1905 C1904 1.400 . S
C1905 C1906 1.398 . S
C1906 H1894 0.950 . S
C1906 C1905 1.398 . S
C1906 C1907 1.391 . S
C1907 H1895 0.950 1_565 S
C1907 C1903 1.393 . S
C1907 C1906 1.391 . S
H1908 C1916 0.950 . S
H1909 C1921 0.950 . S
H1910 C1918 0.950 . S
H1911 C1920 0.950 . S
H1912 C1922 0.950 1_554 S
H1913 C1924 0.950 . S
H1914 C1926 0.950 . S
H1915 C1927 0.950 . S
C1916 H1908 0.950 . S
C1916 C1917 1.386 . S
C1916 C1918 1.391 . S
C1917 C1916 1.386 . S
C1917 C1921 1.393 . S
C1918 H1910 0.950 . S
C1918 C1916 1.391 . S
C1918 C1919 1.400 . S
C1919 C1918 1.400 . S
C1919 C1920 1.398 . S
C1919 C1925 1.491 . S
C1920 H1911 0.950 . S
C1920 C1919 1.398 . S
C1920 C1921 1.391 . S
C1921 H1909 0.950 . S
C1921 C1917 1.393 . S
C1921 C1920 1.391 . S
C1922 H1912 0.950 1_556 S
C1922 C1923 1.386 . S
C1922 C1924 1.391 . S
C1923 C1922 1.386 . S
C1923 C1927 1.393 . S
C1924 H1913 0.950 . S
C1924 C1922 1.391 . S
C1924 C1925 1.400 . S
C1925 C1919 1.491 . S
C1925 C1924 1.400 . S
C1925 C1926 1.398 . S
C1926 H1914 0.950 . S
C1926 C1925 1.398 . S
C1926 C1927 1.391 . S
C1927 H1915 0.950 . S
C1927 C1923 1.393 . S
C1927 C1926 1.391 . S
H1928 C1936 0.950 . S
H1929 C1941 0.950 . S
H1930 C1938 0.950 . S
H1931 C1940 0.950 . S
H1932 C1942 0.950 . S
H1933 C1944 0.950 . S
H1934 C1946 0.950 . S
H1935 C1947 0.950 . S
C1936 H1928 0.950 . S
C1936 C1937 1.386 . S
C1936 C1938 1.391 . S
C1937 C1936 1.386 . S
C1937 C1941 1.393 . S
C1938 H1930 0.950 . S
C1938 C1936 1.391 . S
C1938 C1939 1.400 . S
C1939 C1938 1.400 . S
C1939 C1940 1.398 . S
C1939 C1945 1.491 . S
C1940 H1931 0.950 . S
C1940 C1939 1.398 . S
C1940 C1941 1.391 . S
C1941 H1929 0.950 . S
C1941 C1937 1.393 . S
C1941 C1940 1.391 . S
C1942 H1932 0.950 . S
C1942 C1943 1.386 . S
C1942 C1944 1.391 . S
C1943 C1942 1.386 . S
C1943 C1947 1.393 . S
C1944 H1933 0.950 . S
C1944 C1942 1.391 . S
C1944 C1945 1.400 . S
C1945 C1939 1.491 . S
C1945 C1944 1.400 . S
C1945 C1946 1.398 . S
C1946 H1934 0.950 . S
C1946 C1945 1.398 . S
C1946 C1947 1.391 . S
C1947 H1935 0.950 . S
C1947 C1943 1.393 . S
C1947 C1946 1.391 . S
H1948 C1956 0.950 . S
H1949 C1961 0.950 . S
H1950 C1958 0.950 . S
H1951 C1960 0.950 . S
H1952 C1962 0.950 . S
H1953 C1964 0.950 . S
H1954 C1966 0.950 . S
H1955 C1967 0.950 1_565 S
C1956 H1948 0.950 . S
C1956 C1957 1.386 . S
C1956 C1958 1.391 . S
C1957 C1956 1.386 . S
C1957 C1961 1.393 . S
C1958 H1950 0.950 . S
C1958 C1956 1.391 . S
C1958 C1959 1.400 . S
C1959 C1958 1.400 . S
C1959 C1960 1.398 . S
C1959 C1965 1.491 . S
C1960 H1951 0.950 . S
C1960 C1959 1.398 . S
C1960 C1961 1.391 . S
C1961 H1949 0.950 . S
C1961 C1957 1.393 . S
C1961 C1960 1.391 . S
C1962 H1952 0.950 . S
C1962 C1963 1.386 . S
C1962 C1964 1.391 . S
C1963 C1962 1.386 . S
C1963 C1967 1.393 . S
C1964 H1953 0.950 . S
C1964 C1962 1.391 . S
C1964 C1965 1.400 . S
C1965 C1959 1.491 . S
C1965 C1964 1.400 . S
C1965 C1966 1.398 . S
C1966 H1954 0.950 . S
C1966 C1965 1.398 . S
C1966 C1967 1.391 . S
C1967 H1955 0.950 1_545 S
C1967 C1963 1.393 . S
C1967 C1966 1.391 . S
C537 C18 1.669 . S
C543 C417 1.624 . S
C557 C426 1.575 . S
C563 C40 1.620 . S
C577 C52 1.669 . S
C583 C367 1.609 1_545 S
C597 C74 1.670 . S
C603 C389 1.586 1_565 S
C617 C505 1.619 . S
C623 C98 1.668 . S
C637 C118 1.676 . S
C643 C477 1.631 1_556 S
C657 C513 1.610 . S
C663 C140 1.664 . S
C677 C164 1.668 . S
C683 C455 1.583 1_554 S
C697 C186 1.681 . S
C703 C307 1.619 . S
C717 C216 1.674 . S
C723 C345 1.622 1_655 S
C737 C315 1.610 . S
C743 C238 1.665 . S
C757 C250 1.677 . S
C763 C279 1.611 1_455 S
C777 C282 1.659 . S
C783 C139 1.594 . S
C797 C296 1.672 . S
C803 C175 1.626 . S
C817 C316 1.672 . S
C823 C109 1.605 1_565 S
C837 C117 1.574 1_545 S
C843 C348 1.664 . S
C857 C370 1.672 . S
C863 C235 1.618 . S
C877 C213 1.597 1_554 S
C883 C392 1.669 . S
C897 C249 1.622 . S
C903 C406 1.670 . S
C917 C197 1.659 . S
C923 C425 1.708 . S
C937 C37 1.614 . S
C943 C458 1.664 . S
C957 C73 1.593 1_455 S
C963 C480 1.664 . S
C977 C51 1.594 . S
C983 C494 1.656 . S
C997 C514 1.668 . S
C1003 C15 1.583 1_655 S
C1017 C106 1.064 . S
C1023 C10 1.034 . S
C1037 C120 1.068 . S
C1043 C32 1.057 . S
C1057 C142 1.052 . S
C1063 C62 1.039 . S
C1077 C172 1.067 . S
C1083 C84 1.056 . S
C1097 C96 1.068 . S
C1103 C194 1.081 . S
C1117 C128 1.045 . S
C1123 C252 1.069 . S
C1137 C150 1.017 . S
C1143 C206 1.043 . S
C1157 C162 1.023 . S
C1163 C228 1.055 . S
C1177 C184 1.059 . S
C1183 C8 1.072 . S
C1197 C208 1.020 . S
C1203 C54 1.052 . S
C1217 C230 1.040 . S
C1223 C76 1.052 . S
C1237 C30 1.075 . S
C1243 C260 1.064 . S
C1257 C360 1.048 . S
C1263 C274 1.017 . S
C1277 C382 1.073 . S
C1283 C294 1.048 . S
C1297 C326 1.050 . S
C1303 C414 1.075 . S
C1317 C340 1.063 . S
C1323 C433 1.096 . S
C1337 C448 1.058 . S
C1343 C362 1.047 . S
C1357 C384 1.026 . S
C1363 C516 1.045 . S
C1377 C470 1.036 . S
C1383 C404 1.009 . S
C1397 C439 1.063 . S
C1403 C502 1.095 . S
C1417 C272 1.058 . S
C1423 C450 1.029 . S
C1437 C472 1.023 . S
C1443 C318 1.045 . S
C1457 C492 1.040 . S
C1463 C338 1.050 . S
C1477 C304 1.053 . S
C1483 C524 1.023 . S
C1497 C21 1.297 1_655 S
C1503 C205 1.297 1_554 S
C1517 C227 1.282 . S
C1523 C43 1.288 . S
C1537 C191 1.302 1_556 S
C1543 C59 1.302 . S
C1557 C263 1.297 . S
C1563 C81 1.298 1_455 S
C1577 C95 1.300 1_565 S
C1583 C87 1.300 1_455 S
C1597 C65 1.307 . S
C1603 C125 1.309 1_545 S
C1617 C147 1.295 . S
C1623 C29 1.296 . S
C1637 C7 1.310 1_655 S
C1643 C161 1.311 . S
C1657 C183 1.294 1_556 S
C1663 C131 1.295 1_545 S
C1677 C219 1.302 1_554 S
C1683 C169 1.296 . S
C1697 C241 1.304 . S
C1703 C153 1.304 . S
C1717 C257 1.310 . S
C1723 C103 1.308 1_565 S
C1737 C285 1.316 1_455 S
C1743 C469 1.309 1_556 S
C1757 C293 1.312 . S
C1763 C499 1.307 . S
C1777 C447 1.302 1_554 S
C1783 C323 1.310 . S
C1797 C527 1.313 . S
C1803 C351 1.312 1_655 S
C1817 C373 1.312 1_545 S
C1823 C337 1.304 1_655 S
C1837 C395 1.307 1_565 S
C1843 C329 1.307 . S
C1857 C301 1.304 . S
C1863 C403 1.303 . S
C1877 C428 1.263 . S
C1883 C271 1.251 1_455 S
C1897 C461 1.305 1_554 S
C1903 C381 1.306 1_565 S
C1917 C436 1.248 . S
C1923 C483 1.267 1_556 S
C1937 C491 1.315 . S
C1943 C411 1.310 . S
C1957 C521 1.303 . S
C1963 C359 1.304 1_545 S
