# Generated by pormake.
# Topology uow, (4)-cn, num edge types: 1
# Building blocks:
#     Node 0, Type 0, BuildingBlock: ESEHIV_clean_sbu_0, # of connection points: 4
#     Node 1, Type 0, BuildingBlock: ESEHIV_clean_sbu_0, # of connection points: 4
#     Node 2, Type 0, BuildingBlock: ESEHIV_clean_sbu_0, # of connection points: 4
#     Node 3, Type 0, BuildingBlock: ESEHIV_clean_sbu_0, # of connection points: 4
#     Node 4, Type 0, BuildingBlock: ESEHIV_clean_sbu_0, # of connection points: 4
#     Node 5, Type 0, BuildingBlock: ESEHIV_clean_sbu_0, # of connection points: 4
#     Node 6, Type 0, BuildingBlock: ESEHIV_clean_sbu_0, # of connection points: 4
#     Node 7, Type 0, BuildingBlock: ESEHIV_clean_sbu_0, # of connection points: 4
#     Node 8, Type 0, BuildingBlock: ESEHIV_clean_sbu_0, # of connection points: 4
#     Node 9, Type 0, BuildingBlock: ESEHIV_clean_sbu_0, # of connection points: 4
#     Node 10, Type 0, BuildingBlock: ESEHIV_clean_sbu_0, # of connection points: 4
#     Node 11, Type 0, BuildingBlock: ESEHIV_clean_sbu_0, # of connection points: 4
#     Node 12, Type 0, BuildingBlock: ESEHIV_clean_sbu_0, # of connection points: 4
#     Node 13, Type 0, BuildingBlock: ESEHIV_clean_sbu_0, # of connection points: 4
#     Node 14, Type 0, BuildingBlock: ESEHIV_clean_sbu_0, # of connection points: 4
#     Node 15, Type 0, BuildingBlock: ESEHIV_clean_sbu_0, # of connection points: 4
#     Node 16, Type 0, BuildingBlock: ESEHIV_clean_sbu_0, # of connection points: 4
#     Node 17, Type 0, BuildingBlock: ESEHIV_clean_sbu_0, # of connection points: 4
#     Node 18, Type 0, BuildingBlock: ESEHIV_clean_sbu_0, # of connection points: 4
#     Node 19, Type 0, BuildingBlock: ESEHIV_clean_sbu_0, # of connection points: 4
#     Node 20, Type 0, BuildingBlock: ESEHIV_clean_sbu_0, # of connection points: 4
#     Node 21, Type 0, BuildingBlock: ESEHIV_clean_sbu_0, # of connection points: 4
#     Node 22, Type 0, BuildingBlock: ESEHIV_clean_sbu_0, # of connection points: 4
#     Node 23, Type 0, BuildingBlock: ESEHIV_clean_sbu_0, # of connection points: 4
#     Node 24, Type 0, BuildingBlock: ESEHIV_clean_sbu_0, # of connection points: 4
#     Node 25, Type 0, BuildingBlock: ESEHIV_clean_sbu_0, # of connection points: 4
#     Node 26, Type 0, BuildingBlock: ESEHIV_clean_sbu_0, # of connection points: 4
#     Node 27, Type 0, BuildingBlock: ESEHIV_clean_sbu_0, # of connection points: 4
#     Node 28, Type 0, BuildingBlock: ESEHIV_clean_sbu_0, # of connection points: 4
#     Node 29, Type 0, BuildingBlock: ESEHIV_clean_sbu_0, # of connection points: 4
#     Node 30, Type 0, BuildingBlock: ESEHIV_clean_sbu_0, # of connection points: 4
#     Node 31, Type 0, BuildingBlock: ESEHIV_clean_sbu_0, # of connection points: 4
#     Edge 32, Type (0, 0), BuildingBlock: XUDNAN_clean_linker_2, # of connection points: 2
#     Edge 33, Type (0, 0), BuildingBlock: XUDNAN_clean_linker_2, # of connection points: 2
#     Edge 34, Type (0, 0), BuildingBlock: XUDNAN_clean_linker_2, # of connection points: 2
#     Edge 35, Type (0, 0), BuildingBlock: XUDNAN_clean_linker_2, # of connection points: 2
#     Edge 36, Type (0, 0), BuildingBlock: XUDNAN_clean_linker_2, # of connection points: 2
#     Edge 37, Type (0, 0), BuildingBlock: XUDNAN_clean_linker_2, # of connection points: 2
#     Edge 38, Type (0, 0), BuildingBlock: XUDNAN_clean_linker_2, # of connection points: 2
#     Edge 39, Type (0, 0), BuildingBlock: XUDNAN_clean_linker_2, # of connection points: 2
#     Edge 40, Type (0, 0), BuildingBlock: XUDNAN_clean_linker_2, # of connection points: 2
#     Edge 41, Type (0, 0), BuildingBlock: XUDNAN_clean_linker_2, # of connection points: 2
#     Edge 42, Type (0, 0), BuildingBlock: XUDNAN_clean_linker_2, # of connection points: 2
#     Edge 43, Type (0, 0), BuildingBlock: XUDNAN_clean_linker_2, # of connection points: 2
#     Edge 44, Type (0, 0), BuildingBlock: XUDNAN_clean_linker_2, # of connection points: 2
#     Edge 45, Type (0, 0), BuildingBlock: XUDNAN_clean_linker_2, # of connection points: 2
#     Edge 46, Type (0, 0), BuildingBlock: XUDNAN_clean_linker_2, # of connection points: 2
#     Edge 47, Type (0, 0), BuildingBlock: XUDNAN_clean_linker_2, # of connection points: 2
#     Edge 48, Type (0, 0), BuildingBlock: XUDNAN_clean_linker_2, # of connection points: 2
#     Edge 49, Type (0, 0), BuildingBlock: XUDNAN_clean_linker_2, # of connection points: 2
#     Edge 50, Type (0, 0), BuildingBlock: XUDNAN_clean_linker_2, # of connection points: 2
#     Edge 51, Type (0, 0), BuildingBlock: XUDNAN_clean_linker_2, # of connection points: 2
#     Edge 52, Type (0, 0), BuildingBlock: XUDNAN_clean_linker_2, # of connection points: 2
#     Edge 53, Type (0, 0), BuildingBlock: XUDNAN_clean_linker_2, # of connection points: 2
#     Edge 54, Type (0, 0), BuildingBlock: XUDNAN_clean_linker_2, # of connection points: 2
#     Edge 55, Type (0, 0), BuildingBlock: XUDNAN_clean_linker_2, # of connection points: 2
#     Edge 56, Type (0, 0), BuildingBlock: XUDNAN_clean_linker_2, # of connection points: 2
#     Edge 57, Type (0, 0), BuildingBlock: XUDNAN_clean_linker_2, # of connection points: 2
#     Edge 58, Type (0, 0), BuildingBlock: XUDNAN_clean_linker_2, # of connection points: 2
#     Edge 59, Type (0, 0), BuildingBlock: XUDNAN_clean_linker_2, # of connection points: 2
#     Edge 60, Type (0, 0), BuildingBlock: XUDNAN_clean_linker_2, # of connection points: 2
#     Edge 61, Type (0, 0), BuildingBlock: XUDNAN_clean_linker_2, # of connection points: 2
#     Edge 62, Type (0, 0), BuildingBlock: XUDNAN_clean_linker_2, # of connection points: 2
#     Edge 63, Type (0, 0), BuildingBlock: XUDNAN_clean_linker_2, # of connection points: 2
#     Edge 64, Type (0, 0), BuildingBlock: XUDNAN_clean_linker_2, # of connection points: 2
#     Edge 65, Type (0, 0), BuildingBlock: XUDNAN_clean_linker_2, # of connection points: 2
#     Edge 66, Type (0, 0), BuildingBlock: XUDNAN_clean_linker_2, # of connection points: 2
#     Edge 67, Type (0, 0), BuildingBlock: XUDNAN_clean_linker_2, # of connection points: 2
#     Edge 68, Type (0, 0), BuildingBlock: XUDNAN_clean_linker_2, # of connection points: 2
#     Edge 69, Type (0, 0), BuildingBlock: XUDNAN_clean_linker_2, # of connection points: 2
#     Edge 70, Type (0, 0), BuildingBlock: XUDNAN_clean_linker_2, # of connection points: 2
#     Edge 71, Type (0, 0), BuildingBlock: XUDNAN_clean_linker_2, # of connection points: 2
#     Edge 72, Type (0, 0), BuildingBlock: XUDNAN_clean_linker_2, # of connection points: 2
#     Edge 73, Type (0, 0), BuildingBlock: XUDNAN_clean_linker_2, # of connection points: 2
#     Edge 74, Type (0, 0), BuildingBlock: XUDNAN_clean_linker_2, # of connection points: 2
#     Edge 75, Type (0, 0), BuildingBlock: XUDNAN_clean_linker_2, # of connection points: 2
#     Edge 76, Type (0, 0), BuildingBlock: XUDNAN_clean_linker_2, # of connection points: 2
#     Edge 77, Type (0, 0), BuildingBlock: XUDNAN_clean_linker_2, # of connection points: 2
#     Edge 78, Type (0, 0), BuildingBlock: XUDNAN_clean_linker_2, # of connection points: 2
#     Edge 79, Type (0, 0), BuildingBlock: XUDNAN_clean_linker_2, # of connection points: 2
#     Edge 80, Type (0, 0), BuildingBlock: XUDNAN_clean_linker_2, # of connection points: 2
#     Edge 81, Type (0, 0), BuildingBlock: XUDNAN_clean_linker_2, # of connection points: 2
#     Edge 82, Type (0, 0), BuildingBlock: XUDNAN_clean_linker_2, # of connection points: 2
#     Edge 83, Type (0, 0), BuildingBlock: XUDNAN_clean_linker_2, # of connection points: 2
#     Edge 84, Type (0, 0), BuildingBlock: XUDNAN_clean_linker_2, # of connection points: 2
#     Edge 85, Type (0, 0), BuildingBlock: XUDNAN_clean_linker_2, # of connection points: 2
#     Edge 86, Type (0, 0), BuildingBlock: XUDNAN_clean_linker_2, # of connection points: 2
#     Edge 87, Type (0, 0), BuildingBlock: XUDNAN_clean_linker_2, # of connection points: 2
#     Edge 88, Type (0, 0), BuildingBlock: XUDNAN_clean_linker_2, # of connection points: 2
#     Edge 89, Type (0, 0), BuildingBlock: XUDNAN_clean_linker_2, # of connection points: 2
#     Edge 90, Type (0, 0), BuildingBlock: XUDNAN_clean_linker_2, # of connection points: 2
#     Edge 91, Type (0, 0), BuildingBlock: XUDNAN_clean_linker_2, # of connection points: 2
#     Edge 92, Type (0, 0), BuildingBlock: XUDNAN_clean_linker_2, # of connection points: 2
#     Edge 93, Type (0, 0), BuildingBlock: XUDNAN_clean_linker_2, # of connection points: 2
#     Edge 94, Type (0, 0), BuildingBlock: XUDNAN_clean_linker_2, # of connection points: 2
#     Edge 95, Type (0, 0), BuildingBlock: XUDNAN_clean_linker_2, # of connection points: 2
# Relax obj value: 0.062
# Max RMSD: 0.244
# Mean RMSD: 0.222
data_MOF--net-uow--node1-ESEHIV_clean_sbu_0--edge1-XUDNAN_clean_linker_2
_symmetry_space_group_name_H-M    P1
_symmetry_Int_Tables_number       1
_symmetry_cell_setting            triclinic
loop_
_symmetry_equiv_pos_as_xyz
'x, y, z'
_cell_length_a     63.62534
_cell_length_b     69.265627
_cell_length_c     48.67629
_cell_angle_alpha  90.006282
_cell_angle_beta   89.895702
_cell_angle_gamma 89.941469
loop_
_atom_site_label
_atom_site_type_symbol
_atom_site_fract_x
_atom_site_fract_y
_atom_site_fract_z
_atom_type_partial_charge
Cu0 Cu 0.08741 0.38202 0.30133 0.0
N1 N 0.10497 0.3691 0.32583 0.0
N2 N 0.11575 0.34756 0.35691 0.0
C3 C 0.09906 0.35578 0.34442 0.0
C4 C 0.13282 0.35606 0.34574 0.0
C5 C 0.1261 0.36939 0.32659 0.0
O6 O 0.0587 0.37586 0.31144 0.0
C7 C 0.08275 0.37553 0.24377 0.0
O8 O 0.06519 0.38536 0.24624 0.0
H9 H 0.08289 0.35153 0.34778 0.0
H10 H 0.13591 0.37825 0.31352 0.0
N11 N 0.09203 0.40866 0.30339 0.0
N12 N 0.09218 0.44016 0.29303 0.0
C13 C 0.08627 0.42225 0.28508 0.0
C14 C 0.10189 0.41825 0.32363 0.0
C15 C 0.102 0.43765 0.31735 0.0
C16 C 0.05163 0.38228 0.33414 0.0
O17 O 0.06356 0.39377 0.34887 0.0
H18 H 0.07779 0.41906 0.26641 0.0
H19 H 0.10863 0.41155 0.34166 0.0
O20 O 0.09409 0.37261 0.26484 0.0
H21 H 0.14898 0.35269 0.35077 0.0
H22 H 0.10918 0.44895 0.32948 0.0
Cu23 Cu 0.87994 0.81161 0.53448 0.0
N24 N 0.8964 0.81321 0.50263 0.0
N25 N 0.90949 0.82218 0.4618 0.0
C26 C 0.89451 0.82537 0.4811 0.0
C27 C 0.9212 0.80749 0.47176 0.0
C28 C 0.91312 0.80204 0.49683 0.0
O29 O 0.85133 0.81995 0.52609 0.0
C30 C 0.89218 0.8237 0.58818 0.0
O31 O 0.88114 0.80881 0.59655 0.0
H32 H 0.88227 0.83618 0.47955 0.0
H33 H 0.91911 0.79077 0.51005 0.0
N34 N 0.88003 0.78587 0.54648 0.0
N35 N 0.89026 0.75872 0.56756 0.0
C36 C 0.89562 0.77687 0.56016 0.0
C37 C 0.86439 0.77287 0.54474 0.0
C38 C 0.87061 0.75615 0.55782 0.0
C39 C 0.83604 0.81772 0.54272 0.0
O40 O 0.83961 0.81003 0.56693 0.0
H41 H 0.91028 0.78382 0.5655 0.0
H42 H 0.84937 0.77549 0.53504 0.0
O43 O 0.8928 0.8278 0.56266 0.0
H44 H 0.9349 0.80131 0.4619 0.0
H45 H 0.86135 0.74314 0.56001 0.0
Cu46 Cu 0.44396 0.62844 0.80387 0.0
N47 N 0.42563 0.64404 0.82436 0.0
N48 N 0.41403 0.6664 0.85402 0.0
C49 C 0.43035 0.65508 0.84634 0.0
C50 C 0.39837 0.66207 0.83638 0.0
C51 C 0.40555 0.64827 0.8182 0.0
O52 O 0.47215 0.63051 0.81871 0.0
C53 C 0.4393 0.65212 0.75561 0.0
O54 O 0.4372 0.66674 0.77259 0.0
H55 H 0.44573 0.65547 0.85574 0.0
H56 H 0.397 0.64225 0.80103 0.0
N57 N 0.43594 0.60252 0.80568 0.0
N58 N 0.43216 0.57168 0.7927 0.0
C59 C 0.43973 0.5893 0.786 0.0
C60 C 0.42566 0.59302 0.82568 0.0
C61 C 0.42332 0.57397 0.81776 0.0
C62 C 0.48171 0.64646 0.8222 0.0
O63 O 0.47286 0.66258 0.81396 0.0
H64 H 0.44811 0.59262 0.76723 0.0
H65 H 0.42016 0.59951 0.8446 0.0
O66 O 0.44293 0.63535 0.76515 0.0
H67 H 0.38293 0.66864 0.83628 0.0
H68 H 0.41538 0.56281 0.82935 0.0
Cu69 Cu 0.64504 0.20002 0.04006 0.0
N70 N 0.63176 0.2011 1.00585 0.0
N71 N 0.62092 0.194 0.96331 0.0
C72 C 0.63214 0.18801 0.98534 0.0
C73 C 0.61318 0.21146 0.97042 0.0
C74 C 0.61987 0.21577 0.99658 0.0
O75 O 0.67406 0.19128 0.03566 0.0
C76 C 0.62824 0.18609 0.09036 0.0
O77 O 0.64103 0.19878 0.10136 0.0
H78 H 0.64078 0.17457 0.98641 0.0
H79 H 0.61634 0.22874 1.00807 0.0
N80 N 0.64508 0.22482 0.05519 0.0
N81 N 0.63455 0.25036 0.07975 0.0
C82 C 0.62888 0.23342 0.06816 0.0
C83 C 0.66152 0.2368 0.05827 0.0
C84 C 0.65507 0.25259 0.07335 0.0
C85 C 0.68537 0.19856 0.01666 0.0
O86 O 0.67693 0.21139 1.00012 0.0
H87 H 0.61344 0.22699 0.06975 0.0
H88 H 0.6773 0.23389 0.05107 0.0
O89 O 0.62857 0.18345 0.06443 0.0
H90 H 0.60316 0.22043 0.95778 0.0
H91 H 0.66503 0.26429 0.08019 0.0
Cu92 Cu 0.08048 0.62961 0.23715 0.0
N93 N 0.09816 0.6463 0.21798 0.0
N94 N 0.10943 0.66746 0.18661 0.0
C95 C 0.09317 0.65655 0.19542 0.0
C96 C 0.12524 0.66387 0.20438 0.0
C97 C 0.11824 0.65077 0.22367 0.0
O98 O 0.05189 0.63654 0.22667 0.0
C99 C 0.08494 0.65011 0.28649 0.0
O100 O 0.08061 0.66478 0.27034 0.0
H101 H 0.07778 0.65626 0.18601 0.0
H102 H 0.12711 0.64494 0.24071 0.0
N103 N 0.08713 0.60438 0.22656 0.0
N104 N 0.08922 0.57223 0.22357 0.0
C105 C 0.08218 0.58739 0.23853 0.0
C106 C 0.09779 0.59977 0.20359 0.0
C107 C 0.09905 0.58001 0.20164 0.0
C108 C 0.04313 0.62928 0.20555 0.0
O109 O 0.05279 0.61548 0.19199 0.0
H110 H 0.07323 0.58617 0.25738 0.0
H111 H 0.10398 0.61012 0.18905 0.0
O112 O 0.08515 0.63317 0.27633 0.0
H113 H 0.14081 0.67011 0.2034 0.0
H114 H 0.10673 0.57197 0.18539 0.0
Cu115 Cu 0.64409 0.82226 0.48494 0.0
N116 N 0.62724 0.82553 0.51627 0.0
N117 N 0.61527 0.83356 0.55804 0.0
C118 C 0.63155 0.83459 0.54015 0.0
C119 C 0.60019 0.82353 0.54481 0.0
C120 C 0.60763 0.81858 0.51918 0.0
O121 O 0.67291 0.83109 0.49067 0.0
C122 C 0.61652 0.84714 0.4543 0.0
O123 O 0.61078 0.85393 0.47837 0.0
H124 H 0.64626 0.84186 0.54427 0.0
H125 H 0.59937 0.81035 0.5037 0.0
N126 N 0.64505 0.79603 0.47633 0.0
N127 N 0.63632 0.76787 0.45714 0.0
C128 C 0.63002 0.78601 0.46312 0.0
C129 C 0.6614 0.78381 0.47885 0.0
C130 C 0.65605 0.76642 0.46706 0.0
C131 C 0.68371 0.82495 0.51091 0.0
O132 O 0.67467 0.81362 0.52908 0.0
H133 H 0.61517 0.79224 0.45688 0.0
H134 H 0.67643 0.78744 0.48773 0.0
O135 O 0.63114 0.83459 0.45304 0.0
H136 H 0.58505 0.81961 0.55328 0.0
H137 H 0.66604 0.75381 0.46551 0.0
Cu138 Cu 0.4387 0.38496 0.72062 0.0
N139 N 0.41966 0.36906 0.70206 0.0
N140 N 0.40635 0.34708 0.67322 0.0
C141 C 0.42394 0.35587 0.68242 0.0
C142 C 0.39043 0.35514 0.68762 0.0
C143 C 0.39868 0.36866 0.70534 0.0
O144 O 0.46678 0.37789 0.70846 0.0
C145 C 0.42913 0.36658 0.77135 0.0
O146 O 0.4252 0.35154 0.75576 0.0
H147 H 0.4396 0.35302 0.67471 0.0
H148 H 0.39003 0.37758 0.71969 0.0
N149 N 0.43342 0.41052 0.71049 0.0
N150 N 0.43135 0.44279 0.70996 0.0
C151 C 0.43678 0.42698 0.7247 0.0
C152 C 0.42551 0.41608 0.68617 0.0
C153 C 0.42421 0.4359 0.68575 0.0
C154 C 0.47389 0.36091 0.71208 0.0
O155 O 0.46272 0.34853 0.72636 0.0
H156 H 0.44345 0.42735 0.74514 0.0
H157 H 0.42106 0.40633 0.66982 0.0
O158 O 0.43529 0.38224 0.76026 0.0
H159 H 0.37399 0.35136 0.6858 0.0
H160 H 0.41829 0.44455 0.66894 0.0
Cu161 Cu 0.88118 0.1952 0.98192 0.0
N162 N 0.8974 0.19093 1.01319 0.0
N163 N 0.90755 0.18314 0.05575 0.0
C164 C 0.89125 0.1844 0.03801 0.0
C165 C 0.92452 0.18916 0.04141 0.0
C166 C 0.9182 0.19395 0.01524 0.0
O167 O 0.85216 0.18783 0.98971 0.0
C168 C 0.89399 0.18524 0.92705 0.0
O169 O 0.88325 0.20048 0.91928 0.0
H170 H 0.87519 0.18049 0.04278 0.0
H171 H 0.92803 0.19936 0.99881 0.0
N172 N 0.8826 0.22156 0.97385 0.0
N173 N 0.89287 0.24967 0.95567 0.0
C174 C 0.89713 0.23065 0.95841 0.0
C175 C 0.86897 0.23533 0.98175 0.0
C176 C 0.87519 0.25266 0.97049 0.0
C177 C 0.83672 0.19343 0.97511 0.0
O178 O 0.84043 0.20364 0.95287 0.0
H179 H 0.91013 0.22328 0.94859 0.0
H180 H 0.85528 0.23286 0.99447 0.0
O181 O 0.89384 0.18019 0.95222 0.0
H182 H 0.94034 0.19036 0.04934 0.0
H183 H 0.8672 0.26636 0.97293 0.0
Cu184 Cu 0.98679 0.64152 0.75281 0.0
N185 N 0.96553 0.64729 0.72769 0.0
N186 N 0.94854 0.6633 0.6945 0.0
C187 C 0.96597 0.66235 0.71024 0.0
C188 C 0.9366 0.64818 0.70252 0.0
C189 C 0.94715 0.63831 0.72297 0.0
O190 O 0.01327 0.64487 0.73344 0.0
C191 C 0.96692 0.65478 0.79947 0.0
O192 O 0.95356 0.64168 0.79079 0.0
H193 H 0.97877 0.67261 0.70951 0.0
H194 H 0.94181 0.62552 0.73366 0.0
N195 N 0.98566 0.61595 0.76539 0.0
N196 N 0.98241 0.58391 0.76983 0.0
C197 C 0.98081 0.59922 0.75258 0.0
C198 C 0.99072 0.61096 0.79125 0.0
C199 C 0.98866 0.59135 0.79408 0.0
C200 C 0.02287 0.6608 0.73007 0.0
O201 O 0.0158 0.67641 0.74235 0.0
H202 H 0.97613 0.5983 0.73126 0.0
H203 H 0.99576 0.62097 0.80696 0.0
O204 O 0.98331 0.65808 0.7851 0.0
H205 H 0.92145 0.64437 0.69403 0.0
H206 H 0.99198 0.58314 0.81249 0.0
Cu207 Cu 0.12519 0.19525 0.49638 0.0
N208 N 0.10889 0.1777 0.47664 0.0
N209 N 0.08591 0.16461 0.44742 0.0
C210 C 0.09564 0.18099 0.45556 0.0
C211 C 0.09344 0.15057 0.46393 0.0
C212 C 0.10753 0.15868 0.48189 0.0
O213 O 0.12056 0.22103 0.48193 0.0
C214 C 0.12057 0.18038 0.55031 0.0
O215 O 0.13432 0.1675 0.54192 0.0
H216 H 0.09279 0.19515 0.44692 0.0
H217 H 0.11617 0.15123 0.49779 0.0
N218 N 0.15346 0.188 0.49301 0.0
N219 N 0.18852 0.18655 0.49601 0.0
C220 C 0.17089 0.19608 0.50384 0.0
C221 C 0.16034 0.17308 0.47775 0.0
C222 C 0.18184 0.17212 0.47959 0.0
C223 C 0.13059 0.22759 0.46132 0.0
O224 O 0.14494 0.21676 0.44946 0.0
H225 H 0.17062 0.20855 0.51721 0.0
H226 H 0.15041 0.16367 0.46574 0.0
O227 O 0.11546 0.19411 0.53426 0.0
H228 H 0.08913 0.13547 0.46308 0.0
H229 H 0.19182 0.16183 0.46908 0.0
Cu230 Cu 0.53127 0.38322 0.23793 0.0
N231 N 0.5542 0.37105 0.22153 0.0
N232 N 0.57314 0.3497 0.19758 0.0
C233 C 0.55393 0.35434 0.20744 0.0
C234 C 0.58594 0.36413 0.20577 0.0
C235 C 0.5742 0.37727 0.22057 0.0
O236 O 0.50612 0.37154 0.22253 0.0
C237 C 0.53967 0.36465 0.28842 0.0
O238 O 0.54426 0.35011 0.27214 0.0
H239 H 0.53983 0.34593 0.20416 0.0
H240 H 0.57978 0.39047 0.22992 0.0
N241 N 0.53119 0.40897 0.22628 0.0
N242 N 0.53529 0.44087 0.22127 0.0
C243 C 0.53764 0.42553 0.23831 0.0
C244 C 0.52454 0.41407 0.20112 0.0
C245 C 0.52696 0.43361 0.19799 0.0
C246 C 0.48813 0.37952 0.22425 0.0
O247 O 0.48584 0.3948 0.23997 0.0
H248 H 0.54428 0.42625 0.25873 0.0
H249 H 0.5184 0.40412 0.186 0.0
O250 O 0.53314 0.38042 0.27785 0.0
H251 H 0.60263 0.36503 0.20167 0.0
H252 H 0.52273 0.44186 0.17994 0.0
Cu253 Cu 0.40031 0.81499 1.00164 0.0
N254 N 0.41694 0.8326 0.98242 0.0
N255 N 0.43543 0.84768 0.94985 0.0
C256 C 0.42698 0.83074 0.9581 0.0
C257 C 0.43068 0.86052 0.96975 0.0
C258 C 0.41936 0.85117 0.98979 0.0
O259 O 0.40636 0.78876 0.98913 0.0
C260 C 0.42321 0.81686 0.0523 0.0
O261 O 0.43852 0.80843 0.03867 0.0
H262 H 0.42737 0.81754 0.94621 0.0
H263 H 0.41276 0.85756 1.00817 0.0
N264 N 0.3722 0.82121 0.99434 0.0
N265 N 0.33702 0.82236 0.99472 0.0
C266 C 0.35442 0.81423 1.00582 0.0
C267 C 0.36582 0.83419 0.97557 0.0
C268 C 0.34424 0.83492 0.97573 0.0
C269 C 0.39936 0.78354 0.96575 0.0
O270 O 0.38829 0.79592 0.95131 0.0
H271 H 0.35428 0.80327 0.02166 0.0
H272 H 0.3762 0.84254 0.96259 0.0
O273 O 0.40557 0.81954 0.04054 0.0
H274 H 0.43495 0.87565 0.96966 0.0
H275 H 0.33463 0.84422 0.96303 0.0
Cu276 Cu 0.9691 0.38616 0.77721 0.0
N277 N 0.95012 0.37136 0.79752 0.0
N278 N 0.93671 0.34965 0.8267 0.0
C279 C 0.9544 0.35807 0.81695 0.0
C280 C 0.92079 0.35801 0.81275 0.0
C281 C 0.9291 0.37132 0.7948 0.0
O282 O 0.99721 0.38066 0.79096 0.0
C283 C 0.9507 0.38301 0.72454 0.0
O284 O 0.93723 0.39557 0.73456 0.0
H285 H 0.97016 0.3547 0.82373 0.0
H286 H 0.92042 0.38025 0.78056 0.0
N287 N 0.96224 0.4123 0.78177 0.0
N288 N 0.96118 0.44457 0.77911 0.0
C289 C 0.96992 0.42816 0.7691 0.0
C290 C 0.94818 0.41892 0.80017 0.0
C291 C 0.94747 0.4387 0.79858 0.0
C292 C 1.00358 0.38766 0.81366 0.0
O293 O 0.99133 0.39964 0.82719 0.0
H294 H 0.98197 0.42768 0.75338 0.0
H295 H 0.9392 0.40996 0.81406 0.0
O296 O 0.96634 0.37792 0.73914 0.0
H297 H 0.9043 0.35446 0.81478 0.0
H298 H 0.93751 0.44804 0.8108 0.0
Cu299 Cu 0.40264 0.19902 0.52534 0.0
N300 N 0.41984 0.1823 0.54543 0.0
N301 N 0.43796 0.16734 0.5784 0.0
C302 C 0.42722 0.18345 0.57138 0.0
C303 C 0.43736 0.15576 0.5562 0.0
C304 C 0.42628 0.16502 0.53595 0.0
O305 O 0.40177 0.22491 0.54098 0.0
C306 C 0.40789 0.18503 0.47126 0.0
O307 O 0.39385 0.17242 0.47956 0.0
H308 H 0.42438 0.19551 0.58503 0.0
H309 H 0.42284 0.15939 0.51575 0.0
N310 N 0.37524 0.18924 0.52706 0.0
N311 N 0.3402 0.18658 0.52566 0.0
C312 C 0.35695 0.19821 0.52117 0.0
C313 C 0.36986 0.17149 0.53576 0.0
C314 C 0.34835 0.16978 0.53484 0.0
C315 C 0.41675 0.23404 0.55247 0.0
O316 O 0.43559 0.2263 0.55331 0.0
H317 H 0.356 0.21289 0.51364 0.0
H318 H 0.38084 0.16057 0.54254 0.0
O319 O 0.4132 0.19864 0.48748 0.0
H320 H 0.44461 0.14164 0.5547 0.0
H321 H 0.33939 0.15723 0.54103 0.0
Cu322 Cu 0.54927 0.63265 0.28735 0.0
N323 N 0.57048 0.64506 0.30707 0.0
N324 N 0.5863 0.66571 0.33564 0.0
C325 C 0.56845 0.66129 0.32204 0.0
C326 C 0.60016 0.65176 0.32858 0.0
C327 C 0.59035 0.63906 0.31097 0.0
O328 O 0.52228 0.64017 0.30361 0.0
C329 C 0.55683 0.65675 0.24086 0.0
O330 O 0.55806 0.67051 0.25936 0.0
H331 H 0.55401 0.66952 0.32311 0.0
H332 H 0.59702 0.62607 0.30221 0.0
N333 N 0.55272 0.60592 0.29139 0.0
N334 N 0.55324 0.57412 0.28307 0.0
C335 C 0.54919 0.59189 0.27274 0.0
C336 C 0.55932 0.59671 0.31415 0.0
C337 C 0.5596 0.57715 0.30913 0.0
C338 C 0.52059 0.63877 0.32966 0.0
O339 O 0.53656 0.63197 0.34371 0.0
H340 H 0.5436 0.59468 0.25213 0.0
H341 H 0.56384 0.60376 0.33306 0.0
O342 O 0.55218 0.63967 0.24858 0.0
H343 H 0.61604 0.6504 0.33626 0.0
H344 H 0.56454 0.56606 0.32339 0.0
Cu345 Cu 0.12198 0.80248 0.01656 0.0
N346 N 0.11637 0.82081 0.04373 0.0
N347 N 0.10017 0.83461 0.07956 0.0
C348 C 0.10086 0.81928 0.06243 0.0
C349 C 0.1159 0.8463 0.07115 0.0
C350 C 0.12592 0.83772 0.04907 0.0
O351 O 0.11697 0.77728 0.03264 0.0
C352 C 0.10581 0.82237 0.97167 0.0
O353 O 0.12021 0.83475 0.97962 0.0
H354 H 0.09007 0.80722 0.06306 0.0
H355 H 0.13916 0.84339 0.03769 0.0
N356 N 0.14967 0.80364 1.00348 0.0
N357 N 0.18461 0.80612 0.99914 0.0
C358 C 0.16799 0.80718 0.01654 0.0
C359 C 0.15494 0.80011 0.9772 0.0
C360 C 0.17634 0.80167 0.97442 0.0
C361 C 0.12663 0.77296 0.05467 0.0
O362 O 0.14009 0.78538 0.06494 0.0
H363 H 0.1691 0.81051 0.03821 0.0
H364 H 0.1439 0.79642 0.96117 0.0
O365 O 0.1033 0.80695 0.98551 0.0
H366 H 0.12003 0.85998 0.08042 0.0
H367 H 0.18518 0.79923 0.95572 0.0
Cu368 Cu 0.57946 0.88679 0.8013 0.0
N369 N 0.59347 0.87364 0.82957 0.0
N370 N 0.59933 0.85364 0.86497 0.0
C371 C 0.58475 0.86318 0.85001 0.0
C372 C 0.61798 0.85863 0.85376 0.0
C373 C 0.61431 0.87091 0.83195 0.0
O374 O 0.5495 0.88315 0.80674 0.0
C375 C 0.57854 0.8766 0.74423 0.0
O376 O 0.55893 0.88252 0.74497 0.0
H377 H 0.56801 0.86226 0.85356 0.0
H378 H 0.62595 0.87682 0.8181 0.0
N379 N 0.58531 0.91323 0.80325 0.0
N380 N 0.58922 0.94428 0.79127 0.0
C381 C 0.58428 0.92624 0.78269 0.0
C382 C 0.59107 0.9233 0.82561 0.0
C383 C 0.59349 0.94242 0.81832 0.0
C384 C 0.54117 0.86654 0.80921 0.0
O385 O 0.55265 0.85107 0.80471 0.0
H386 H 0.57973 0.92252 0.76195 0.0
H387 H 0.59337 0.91714 0.8458 0.0
O388 O 0.58945 0.877 0.76612 0.0
H389 H 0.63315 0.85304 0.85992 0.0
H390 H 0.59837 0.95396 0.83186 0.0
Cu391 Cu 0.37031 0.32257 0.03396 0.0
N392 N 0.38781 0.3224 1.00307 0.0
N393 N 0.4018 0.32958 0.96219 0.0
C394 C 0.38873 0.33542 0.98251 0.0
C395 C 0.4094 0.31234 0.97039 0.0
C396 C 0.40076 0.30796 0.99555 0.0
O397 O 0.34225 0.32989 0.02187 0.0
C398 C 0.40149 0.33839 0.06774 0.0
O399 O 0.41367 0.32846 0.05112 0.0
H400 H 0.37937 0.34847 0.98194 0.0
H401 H 0.40336 0.29492 1.00727 0.0
N402 N 0.36925 0.29751 0.04788 0.0
N403 N 0.37913 0.27032 0.06891 0.0
C404 C 0.38467 0.2884 0.06164 0.0
C405 C 0.35333 0.28479 0.0464 0.0
C406 C 0.35935 0.26799 0.05945 0.0
C407 C 0.3265 0.33262 0.03755 0.0
O408 O 0.32903 0.33181 0.06431 0.0
H409 H 0.39958 0.295 0.06653 0.0
H410 H 0.33842 0.28755 0.03649 0.0
O411 O 0.38179 0.33893 0.06299 0.0
H412 H 0.42028 0.30343 0.95887 0.0
H413 H 0.35001 0.25502 0.06151 0.0
Cu414 Cu 0.92953 0.12968 0.30123 0.0
N415 N 0.91235 0.14215 0.32684 0.0
N416 N 0.90198 0.16379 0.35816 0.0
C417 C 0.91846 0.15588 0.34473 0.0
C418 C 0.88483 0.15467 0.34834 0.0
C419 C 0.89129 0.14129 0.32905 0.0
O420 O 0.95836 0.1363 0.31034 0.0
C421 C 0.93361 0.13909 0.24426 0.0
O422 O 0.95298 0.13275 0.24666 0.0
H423 H 0.93456 0.16065 0.34687 0.0
H424 H 0.88131 0.13205 0.31681 0.0
N425 N 0.92575 0.10287 0.30268 0.0
N426 N 0.92567 0.07171 0.29046 0.0
C427 C 0.92959 0.09006 0.28244 0.0
C428 C 0.91905 0.09231 0.32417 0.0
C429 C 0.91907 0.07308 0.31675 0.0
C430 C 0.96563 0.13001 0.33297 0.0
O431 O 0.95385 0.11853 0.34797 0.0
H432 H 0.93542 0.09412 0.26235 0.0
H433 H 0.91452 0.0982 0.3439 0.0
O434 O 0.92156 0.13899 0.26514 0.0
H435 H 0.86877 0.15767 0.35437 0.0
H436 H 0.91426 0.0611 0.32956 0.0
Cu437 Cu 0.14653 0.71074 0.54392 0.0
N438 N 0.13266 0.70994 0.51005 0.0
N439 N 0.12076 0.70064 0.46884 0.0
C440 C 0.13276 0.69591 0.49081 0.0
C441 C 0.11284 0.71826 0.47471 0.0
C442 C 0.12018 0.72392 0.50001 0.0
O443 O 0.17547 0.70181 0.53997 0.0
C444 C 0.13062 0.69896 0.59587 0.0
O445 O 0.14221 0.71318 0.60526 0.0
H446 H 0.14166 0.68266 0.49278 0.0
H447 H 0.11659 0.7373 0.51045 0.0
N448 N 0.1466 0.7363 0.55637 0.0
N449 N 0.13578 0.76386 0.5758 0.0
C450 C 0.13021 0.74604 0.56716 0.0
C451 C 0.16309 0.74838 0.55802 0.0
C452 C 0.15648 0.76538 0.56999 0.0
C453 C 0.1869 0.70793 0.5203 0.0
O454 O 0.1787 0.71993 0.50237 0.0
H455 H 0.11472 0.73983 0.56953 0.0
H456 H 0.1789 0.74494 0.55144 0.0
O457 O 0.13099 0.695 0.5703 0.0
H458 H 0.10218 0.72642 0.46186 0.0
H459 H 0.16621 0.77784 0.57416 0.0
Cu460 Cu 0.58716 0.1316 0.72422 0.0
N461 N 0.60286 0.14959 0.70394 0.0
N462 N 0.61208 0.17188 0.67278 0.0
C463 C 0.59715 0.15922 0.68101 0.0
C464 C 0.62787 0.16987 0.69108 0.0
C465 C 0.62217 0.15612 0.71015 0.0
O466 O 0.5577 0.13378 0.71428 0.0
C467 C 0.59248 0.15227 0.77437 0.0
O468 O 0.5904 0.16763 0.75878 0.0
H469 H 0.5821 0.15737 0.67106 0.0
H470 H 0.63131 0.15141 0.72762 0.0
N471 N 0.59622 0.10668 0.71522 0.0
N472 N 0.59991 0.07452 0.71426 0.0
C473 C 0.59092 0.08976 0.72715 0.0
C474 C 0.60904 0.102 0.69427 0.0
C475 C 0.61134 0.08224 0.6936 0.0
C476 C 0.54812 0.14981 0.71156 0.0
O477 O 0.55796 0.16597 0.71725 0.0
H478 H 0.5803 0.08865 0.74448 0.0
H479 H 0.61608 0.11228 0.68028 0.0
O480 O 0.59127 0.13559 0.76349 0.0
H481 H 0.64252 0.17778 0.6908 0.0
H482 H 0.62081 0.0742 0.67907 0.0
Cu483 Cu 0.13469 0.32511 0.97834 0.0
N484 N 0.11996 0.33629 1.00773 0.0
N485 N 0.10914 0.34378 0.0503 0.0
C486 C 0.1244 0.33553 0.03479 0.0
C487 C 0.09438 0.34955 0.03214 0.0
C488 C 0.101 0.3448 1.0061 0.0
O489 O 0.16514 0.32942 0.97925 0.0
C490 C 0.11756 0.35119 0.93835 0.0
O491 O 0.12185 0.36484 0.95621 0.0
H492 H 0.13844 0.3288 0.04281 0.0
H493 H 0.09221 0.34683 0.98734 0.0
N494 N 0.12999 0.29861 0.9801 0.0
N495 N 0.1197 0.26892 0.96834 0.0
C496 C 0.1229 0.28722 0.95972 0.0
C497 C 0.13141 0.28717 1.00235 0.0
C498 C 0.12504 0.26883 0.99517 0.0
C499 C 0.17529 0.33982 0.99628 0.0
O500 O 0.16508 0.34996 0.01476 0.0
H501 H 0.11951 0.29241 0.93923 0.0
H502 H 0.13638 0.29194 0.02247 0.0
O503 O 0.12265 0.33382 0.9437 0.0
H504 H 0.07947 0.35618 0.03719 0.0
H505 H 0.1244 0.25641 1.00865 0.0
Cu506 Cu 0.94954 0.88507 0.22483 0.0
N507 N 0.92822 0.87221 0.20603 0.0
N508 N 0.91149 0.85111 0.17898 0.0
C509 C 0.92991 0.85593 0.19103 0.0
C510 C 0.8978 0.86501 0.18682 0.0
C511 C 0.90816 0.87797 0.20344 0.0
O512 O 0.97582 0.87265 0.21396 0.0
C513 C 0.94564 0.86652 0.27599 0.0
O514 O 0.95181 0.8515 0.26157 0.0
H515 H 0.94438 0.84783 0.18904 0.0
H516 H 0.90166 0.89089 0.21261 0.0
N517 N 0.94911 0.91087 0.21334 0.0
N518 N 0.94504 0.94298 0.21104 0.0
C519 C 0.94449 0.92715 0.22742 0.0
C520 C 0.95259 0.91655 0.18735 0.0
C521 C 0.95027 0.93624 0.18588 0.0
C522 C 0.99249 0.88149 0.20678 0.0
O523 O 0.99342 0.90035 0.2091 0.0
H524 H 0.94035 0.92727 0.24899 0.0
H525 H 0.95655 0.90694 0.17059 0.0
O526 O 0.94417 0.88285 0.26412 0.0
H527 H 0.88155 0.8661 0.18051 0.0
H528 H 0.95244 0.94488 0.16758 0.0
Cu529 Cu 0.38277 0.70216 0.49246 0.0
N530 N 0.39746 0.70243 0.52576 0.0
N531 N 0.40958 0.69505 0.56759 0.0
C532 C 0.39809 0.68901 0.54584 0.0
C533 C 0.41644 0.71285 0.5608 0.0
C534 C 0.40896 0.71733 0.53508 0.0
O535 O 0.3538 0.69432 0.49948 0.0
C536 C 0.41686 0.68545 0.46411 0.0
O537 O 0.42766 0.69454 0.48308 0.0
H538 H 0.38987 0.67536 0.54479 0.0
H539 H 0.4116 0.73064 0.52398 0.0
N540 N 0.38285 0.72731 0.47889 0.0
N541 N 0.39184 0.75319 0.45413 0.0
C542 C 0.39453 0.73402 0.45791 0.0
C543 C 0.37235 0.74266 0.48879 0.0
C544 C 0.37782 0.75866 0.47352 0.0
C545 C 0.33873 0.69951 0.48393 0.0
O546 O 0.34299 0.7092 0.4614 0.0
H547 H 0.40481 0.72496 0.44575 0.0
H548 H 0.36177 0.74227 0.50619 0.0
O549 O 0.39685 0.68604 0.46504 0.0
H550 H 0.42629 0.72196 0.57344 0.0
H551 H 0.37231 0.77324 0.47697 0.0
Cu552 Cu 0.47401 0.13803 0.23812 0.0
N553 N 0.45461 0.15536 0.2234 0.0
N554 N 0.43831 0.17659 0.19622 0.0
C555 C 0.45588 0.16594 0.20023 0.0
C556 C 0.42565 0.17253 0.21772 0.0
C557 C 0.43572 0.15947 0.23438 0.0
O558 O 0.50044 0.14005 0.21807 0.0
C559 C 0.46166 0.1383 0.29353 0.0
O560 O 0.44764 0.126 0.28429 0.0
H561 H 0.46926 0.16563 0.18647 0.0
H562 H 0.42966 0.15338 0.25322 0.0
N563 N 0.46362 0.11313 0.23204 0.0
N564 N 0.46088 0.08108 0.2284 0.0
C565 C 0.47144 0.0959 0.24004 0.0
C566 C 0.44759 0.10899 0.21504 0.0
C567 C 0.44588 0.08927 0.21272 0.0
C568 C 0.51176 0.15513 0.21603 0.0
O569 O 0.50647 0.17073 0.22976 0.0
H570 H 0.48513 0.09425 0.25303 0.0
H571 H 0.43825 0.11962 0.20429 0.0
O572 O 0.47593 0.14427 0.2772 0.0
H573 H 0.41031 0.17878 0.22144 0.0
H574 H 0.43471 0.08153 0.20011 0.0
Cu575 Cu 0.62044 0.70905 1.00541 0.0
N576 N 0.61461 0.69003 0.97945 0.0
N577 N 0.59879 0.6722 0.9473 0.0
C578 C 0.59728 0.68781 0.9639 0.0
C579 C 0.61783 0.66445 0.95264 0.0
C580 C 0.62752 0.67547 0.97242 0.0
O581 O 0.60487 0.73215 0.99461 0.0
C582 C 0.60721 0.70736 0.0628 0.0
O583 O 0.60774 0.72632 0.06308 0.0
H584 H 0.58377 0.69729 0.96506 0.0
H585 H 0.64296 0.6731 0.98108 0.0
N586 N 0.6492 0.71422 1.00205 0.0
N587 N 0.68428 0.71356 1.00472 0.0
C588 C 0.66597 0.70825 0.0168 0.0
C589 C 0.65723 0.72353 0.98018 0.0
C590 C 0.67874 0.72323 0.9818 0.0
C591 C 0.61227 0.74907 0.998 0.0
O592 O 0.62932 0.75132 1.01283 0.0
H593 H 0.66483 0.69951 0.03517 0.0
H594 H 0.64796 0.72967 0.96373 0.0
O595 O 0.61248 0.69832 0.04105 0.0
H596 H 0.62446 0.65185 0.94273 0.0
H597 H 0.68953 0.72943 0.96701 0.0
Cu598 Cu 0.03105 0.883 0.74948 0.0
N599 N 0.0525 0.87796 0.72428 0.0
N600 N 0.07069 0.86228 0.69188 0.0
C601 C 0.05282 0.86289 0.70685 0.0
C602 C 0.08208 0.87762 0.70028 0.0
C603 C 0.07077 0.88731 0.72024 0.0
O604 O 1.00464 0.87994 0.72999 0.0
C605 C 0.05176 0.86774 0.79389 0.0
O606 O 0.06551 0.88033 0.78468 0.0
H607 H 0.0404 0.85226 0.70577 0.0
H608 H 0.07563 0.90009 0.73129 0.0
N609 N 0.03249 0.90815 0.76339 0.0
N610 N 0.03675 0.93995 0.76905 0.0
C611 C 0.03719 0.92506 0.75101 0.0
C612 C 0.02875 0.91259 0.78985 0.0
C613 C 0.03142 0.93208 0.79343 0.0
C614 C 0.99539 0.86388 0.72623 0.0
O615 O 1.00278 0.84826 0.7381 0.0
H616 H 0.04109 0.92638 0.72944 0.0
H617 H 0.02434 0.90227 0.8055 0.0
O618 O 0.03459 0.86566 0.78076 0.0
H619 H 0.09744 0.88159 0.69254 0.0
H620 H 0.02925 0.93993 0.81247 0.0
Cu621 Cu 0.8913 0.31676 0.49694 0.0
N622 N 0.90779 0.33434 0.47745 0.0
N623 N 0.93103 0.34753 0.44858 0.0
C624 C 0.92107 0.33115 0.45631 0.0
C625 C 0.92362 0.36145 0.46541 0.0
C626 C 0.90936 0.35327 0.48316 0.0
O627 O 0.8964 0.29086 0.48281 0.0
C628 C 0.8943 0.33243 0.55058 0.0
O629 O 0.88004 0.34458 0.54152 0.0
H630 H 0.92379 0.31706 0.44735 0.0
H631 H 0.90079 0.36063 0.49924 0.0
N632 N 0.86307 0.32388 0.49274 0.0
N633 N 0.82796 0.32525 0.49475 0.0
C634 C 0.84544 0.31566 0.50285 0.0
C635 C 0.85647 0.33897 0.47766 0.0
C636 C 0.83495 0.33988 0.47888 0.0
C637 C 0.88643 0.28405 0.46232 0.0
O638 O 0.87184 0.2946 0.45056 0.0
H639 H 0.84546 0.30301 0.51591 0.0
H640 H 0.86663 0.34856 0.46622 0.0
O641 O 0.90028 0.31865 0.53509 0.0
H642 H 0.92812 0.37651 0.46493 0.0
H643 H 0.82517 0.35027 0.46828 0.0
Cu644 Cu 0.47735 0.88726 0.28035 0.0
N645 N 0.45661 0.87399 0.29969 0.0
N646 N 0.44047 0.85202 0.32586 0.0
C647 C 0.45898 0.85812 0.31532 0.0
C648 C 0.42596 0.86458 0.31633 0.0
C649 C 0.43597 0.87808 0.30017 0.0
O650 O 0.50479 0.87957 0.29486 0.0
C651 C 0.47535 0.86527 0.23027 0.0
O652 O 0.48422 0.85124 0.24425 0.0
H653 H 0.47404 0.85133 0.31898 0.0
H654 H 0.42871 0.88996 0.28931 0.0
N655 N 0.47338 0.91376 0.28605 0.0
N656 N 0.47224 0.94572 0.27939 0.0
C657 C 0.47764 0.92838 0.26863 0.0
C658 C 0.46489 0.9221 0.30844 0.0
C659 C 0.46425 0.94177 0.30447 0.0
C660 C 0.50793 0.88291 0.32031 0.0
O661 O 0.4929 0.89124 0.33455 0.0
H662 H 0.48447 0.9263 0.24847 0.0
H663 H 0.45918 0.91437 0.32625 0.0
O664 O 0.47267 0.88166 0.24161 0.0
H665 H 0.40923 0.86391 0.32026 0.0
H666 H 0.45774 0.95227 0.31859 0.0
Cu667 Cu 0.89757 0.70325 0.03029 0.0
N668 N 0.90803 0.6852 0.05542 0.0
N669 N 0.92729 0.67125 0.08826 0.0
C670 C 0.92336 0.68767 0.07418 0.0
C671 C 0.91387 0.65801 0.07808 0.0
C672 C 0.90192 0.66669 0.05798 0.0
O673 O 0.89495 0.72807 0.04862 0.0
C674 C 0.92107 0.68829 0.98642 0.0
O675 O 0.91593 0.67206 0.99861 0.0
H676 H 0.93179 0.70107 0.07705 0.0
H677 H 0.88978 0.65993 0.0458 0.0
N678 N 0.87061 0.69562 0.01929 0.0
N679 N 0.83561 0.6931 0.01613 0.0
C680 C 0.85192 0.70045 0.03056 0.0
C681 C 0.86592 0.6848 0.99717 0.0
C682 C 0.84444 0.68322 0.99518 0.0
C683 C 0.91018 0.739 0.05531 0.0
O684 O 0.92942 0.73416 0.04827 0.0
H685 H 0.85031 0.70966 0.04841 0.0
H686 H 0.87727 0.67874 0.98308 0.0
O687 O 0.91549 0.7042 0.99746 0.0
H688 H 0.91271 0.64315 0.0848 0.0
H689 H 0.83598 0.67543 0.97942 0.0
Cu690 Cu 0.04802 0.13618 0.78212 0.0
N691 N 0.06652 0.15253 0.80062 0.0
N692 N 0.0804 0.17305 0.83099 0.0
C693 C 0.06396 0.16144 0.82503 0.0
C694 C 0.09379 0.17125 0.80962 0.0
C695 C 0.08521 0.15861 0.79099 0.0
O696 O 0.02035 0.13788 0.79903 0.0
C697 C 0.06372 0.13806 0.72843 0.0
O698 O 0.07735 0.12578 0.73868 0.0
H699 H 0.0501 0.15982 0.83776 0.0
H700 H 0.09204 0.15431 0.77159 0.0
N701 N 0.05736 0.11074 0.78595 0.0
N702 N 0.0601 0.07868 0.78189 0.0
C703 C 0.04979 0.09475 0.77367 0.0
C704 C 0.07297 0.10463 0.80239 0.0
C705 C 0.07469 0.08488 0.79996 0.0
C706 C 1.00979 0.15338 0.80178 0.0
O707 O 0.01701 0.16947 0.79107 0.0
H708 H 0.03674 0.09489 0.75944 0.0
H709 H 0.08236 0.11391 0.81534 0.0
O710 O 0.0486 0.14388 0.74356 0.0
H711 H 0.10878 0.1785 0.80763 0.0
H712 H 0.08591 0.07582 0.81058 0.0
Cu713 Cu 0.61269 0.31338 0.51191 0.0
N714 N 0.6038 0.32837 0.54168 0.0
N715 N 0.58599 0.33755 0.57901 0.0
C716 C 0.58837 0.32388 0.5595 0.0
C717 C 0.60047 0.35119 0.57325 0.0
C718 C 0.61157 0.34539 0.55032 0.0
O719 O 0.61138 0.28651 0.52416 0.0
C720 C 0.58722 0.33565 0.47642 0.0
O721 O 0.59062 0.34875 0.49537 0.0
H722 H 0.57902 0.31087 0.55808 0.0
H723 H 0.62441 0.35302 0.54059 0.0
N724 N 0.64019 0.32048 0.50277 0.0
N725 N 0.67523 0.32267 0.49999 0.0
C726 C 0.65875 0.31248 0.50997 0.0
C727 C 0.64513 0.33605 0.4876 0.0
C728 C 0.66663 0.33745 0.48584 0.0
C729 C 0.61975 0.28244 0.54725 0.0
O730 O 0.62982 0.29611 0.56052 0.0
H731 H 0.66016 0.29973 0.52264 0.0
H732 H 0.63381 0.34584 0.47862 0.0
O733 O 0.59491 0.31877 0.4797 0.0
H734 H 0.60308 0.3642 0.58507 0.0
H735 H 0.67524 0.34846 0.47478 0.0
H736 H 0.06696 0.38484 0.19296 0.0
H737 H 0.11409 0.34943 0.23322 0.0
H738 H 0.12578 0.33718 0.18808 0.0
H739 H 0.05354 0.35109 0.13945 0.0
H740 H 0.05052 0.36947 0.11355 0.0
H741 H 0.04555 0.37514 0.14908 0.0
H742 H 0.07256 0.40307 0.14659 0.0
H743 H 0.07759 0.3975 0.11104 0.0
H744 H 0.09901 0.39812 0.13522 0.0
H745 H 0.13216 0.32858 0.13843 0.0
H746 H 0.13338 0.32491 0.0882 0.0
H747 H 0.08313 0.36713 0.08042 0.0
C748 C 0.07966 0.37443 0.19232 0.0
C749 C 0.08955 0.36804 0.21666 0.0
C750 C 0.10627 0.35455 0.21486 0.0
C751 C 0.11301 0.34747 0.18931 0.0
C752 C 0.10297 0.35411 0.16572 0.0
C753 C 0.08673 0.36735 0.16698 0.0
C754 C 0.07893 0.37249 0.13852 0.0
C755 C 0.05576 0.36669 0.13495 0.0
C756 C 0.08223 0.39407 0.1325 0.0
C757 C 0.09327 0.36002 0.12109 0.0
C758 C 0.10697 0.34948 0.13714 0.0
C759 C 0.12157 0.33685 0.12562 0.0
C760 C 0.12221 0.33495 0.09692 0.0
C761 C 0.10839 0.34572 0.07991 0.0
C762 C 0.0938 0.35844 0.09246 0.0
H763 H 0.95038 0.83434 0.30824 0.0
H764 H 0.92647 0.89304 0.30989 0.0
H765 H 0.91446 0.88818 0.35777 0.0
H766 H 0.90912 0.81275 0.34695 0.0
H767 H 0.92615 0.7963 0.36504 0.0
H768 H 0.93323 0.80461 0.33123 0.0
H769 H 0.96886 0.81705 0.34987 0.0
H770 H 0.96193 0.80871 0.38374 0.0
H771 H 0.96912 0.8336 0.37846 0.0
H772 H 0.90403 0.87628 0.40547 0.0
H773 H 0.89771 0.85899 0.44917 0.0
H774 H 0.92858 0.80827 0.41571 0.0
C775 C 0.94271 0.84624 0.31865 0.0
C776 C 0.93936 0.86408 0.30522 0.0
C777 C 0.92928 0.87926 0.31972 0.0
C778 C 0.92235 0.87661 0.34692 0.0
C779 C 0.92572 0.85876 0.35943 0.0
C780 C 0.93581 0.84389 0.34579 0.0
C781 C 0.93758 0.82611 0.36376 0.0
C782 C 0.92581 0.80893 0.35098 0.0
C783 C 0.96075 0.82108 0.36928 0.0
C784 C 0.92673 0.83319 0.38959 0.0
C785 C 0.91997 0.85204 0.38674 0.0
C786 C 0.90932 0.86153 0.4079 0.0
C787 C 0.90567 0.85153 0.43262 0.0
C788 C 0.91269 0.83225 0.43608 0.0
C789 C 0.92327 0.82306 0.41405 0.0
H790 H 0.43379 0.68617 0.72738 0.0
H791 H 0.43692 0.62405 0.71603 0.0
H792 H 0.42945 0.62822 0.66665 0.0
H793 H 0.39157 0.69495 0.68077 0.0
H794 H 0.40222 0.71735 0.66805 0.0
H795 H 0.40816 0.70952 0.70245 0.0
H796 H 0.44802 0.71175 0.69186 0.0
H797 H 0.4422 0.71967 0.65746 0.0
H798 H 0.45866 0.69882 0.66285 0.0
H799 H 0.4203 0.63916 0.61849 0.0
H800 H 0.41239 0.65625 0.57505 0.0
H801 H 0.41578 0.71105 0.61791 0.0
C802 C 0.43302 0.67343 0.71452 0.0
C803 C 0.43594 0.65478 0.72567 0.0
C804 C 0.43481 0.63851 0.70803 0.0
C805 C 0.43051 0.64071 0.67992 0.0
C806 C 0.4275 0.65929 0.66966 0.0
C807 C 0.42887 0.67537 0.68638 0.0
C808 C 0.42509 0.69374 0.67023 0.0
C809 C 0.4056 0.70452 0.68102 0.0
C810 C 0.44466 0.70676 0.67062 0.0
C811 C 0.42128 0.68547 0.64186 0.0
C812 C 0.42262 0.66557 0.64195 0.0
C813 C 0.4193 0.65475 0.61818 0.0
C814 C 0.41468 0.66456 0.59364 0.0
C815 C 0.41357 0.68498 0.59301 0.0
C816 C 0.41684 0.69546 0.61758 0.0
H817 H 0.59527 0.18588 0.80396 0.0
H818 H 0.59974 0.12361 0.81225 0.0
H819 H 0.60783 0.12743 0.86161 0.0
H820 H 0.63745 0.19765 0.84967 0.0
H821 H 0.62451 0.21867 0.86353 0.0
H822 H 0.61896 0.21095 0.82897 0.0
H823 H 0.57923 0.20925 0.84059 0.0
H824 H 0.58466 0.21699 0.87518 0.0
H825 H 0.57057 0.19481 0.86927 0.0
H826 H 0.61589 0.13829 0.91034 0.0
H827 H 0.62211 0.15519 0.95433 0.0
H828 H 0.61249 0.2102 0.91358 0.0
C829 C 0.5979 0.17301 0.81611 0.0
C830 C 0.59686 0.15443 0.80416 0.0
C831 C 0.60042 0.138 0.82089 0.0
C832 C 0.60506 0.14002 0.84897 0.0
C833 C 0.60605 0.15857 0.86003 0.0
C834 C 0.6025 0.17476 0.84411 0.0
C835 C 0.60442 0.19307 0.86092 0.0
C836 C 0.62241 0.20583 0.85013 0.0
C837 C 0.58347 0.20418 0.86152 0.0
C838 C 0.6096 0.18468 0.88881 0.0
C839 C 0.61054 0.16477 0.88792 0.0
C840 C 0.61519 0.15389 0.91125 0.0
C841 C 0.61883 0.16362 0.93613 0.0
C842 C 0.61775 0.18405 0.93755 0.0
C843 C 0.61315 0.19459 0.9134 0.0
H844 H 0.08757 0.68483 0.31321 0.0
H845 H 0.09523 0.62319 0.32588 0.0
H846 H 0.10561 0.6293 0.37409 0.0
H847 H 0.13156 0.6997 0.35372 0.0
H848 H 0.11857 0.72089 0.36697 0.0
H849 H 0.11151 0.71155 0.33373 0.0
H850 H 0.07257 0.70918 0.34914 0.0
H851 H 0.07951 0.71857 0.38241 0.0
H852 H 0.06602 0.69577 0.37973 0.0
H853 H 0.11556 0.64252 0.42126 0.0
H854 H 0.12322 0.66151 0.46309 0.0
H855 H 0.10948 0.71428 0.41851 0.0
C856 C 0.09133 0.67256 0.32608 0.0
C857 C 0.09054 0.65351 0.31571 0.0
C858 C 0.09568 0.63792 0.33333 0.0
C859 C 0.10162 0.64125 0.36075 0.0
C860 C 0.10237 0.66024 0.37023 0.0
C861 C 0.09731 0.67562 0.35339 0.0
C862 C 0.0994 0.69466 0.36839 0.0
C863 C 0.11626 0.70745 0.3549 0.0
C864 C 0.07811 0.70516 0.37001 0.0
C865 C 0.10637 0.68765 0.39638 0.0
C866 C 0.10806 0.66777 0.3971 0.0
C867 C 0.11429 0.6581 0.42087 0.0
C868 C 0.11875 0.66903 0.44452 0.0
C869 C 0.11691 0.68944 0.44428 0.0
C870 C 0.11075 0.69873 0.41968 0.0
H871 H 0.58037 0.845 0.58611 0.0
H872 H 0.64791 0.83816 0.59339 0.0
H873 H 0.64597 0.84877 0.64183 0.0
H874 H 0.57608 0.88765 0.62892 0.0
H875 H 0.55136 0.88037 0.64379 0.0
H876 H 0.55825 0.87272 0.60957 0.0
H877 H 0.55282 0.83703 0.62383 0.0
H878 H 0.546 0.84456 0.65812 0.0
H879 H 0.56705 0.82752 0.65284 0.0
H880 H 0.63631 0.85867 0.69025 0.0
H881 H 0.62009 0.86885 0.73404 0.0
H882 H 0.55883 0.86967 0.6949 0.0
C883 C 0.59476 0.84571 0.59788 0.0
C884 C 0.61431 0.8407 0.5859 0.0
C885 C 0.6328 0.84211 0.60197 0.0
C886 C 0.63182 0.848 0.62957 0.0
C887 C 0.61226 0.8526 0.64078 0.0
C888 C 0.59408 0.85168 0.62536 0.0
C889 C 0.57503 0.85742 0.64227 0.0
C890 C 0.56457 0.87562 0.63043 0.0
C891 C 0.5593 0.84063 0.64439 0.0
C892 C 0.58528 0.86152 0.66972 0.0
C893 C 0.60676 0.8586 0.66846 0.0
C894 C 0.61953 0.8611 0.69141 0.0
C895 C 0.61014 0.86684 0.71624 0.0
C896 C 0.58817 0.87012 0.71797 0.0
C897 C 0.57566 0.86739 0.69429 0.0
H898 H 0.40877 0.31223 0.91314 0.0
H899 H 0.40356 0.36816 0.95251 0.0
H900 H 0.41084 0.38414 0.90791 0.0
H901 H 0.45078 0.32409 0.86654 0.0
H902 H 0.44023 0.30985 0.83882 0.0
H903 H 0.43506 0.30307 0.8739 0.0
H904 H 0.39499 0.30397 0.8644 0.0
H905 H 0.40003 0.31072 0.82929 0.0
H906 H 0.38334 0.32559 0.85051 0.0
H907 H 0.41953 0.39377 0.85862 0.0
H908 H 0.42637 0.39629 0.80864 0.0
H909 H 0.42458 0.33383 0.80208 0.0
C910 C 0.40937 0.32784 0.91244 0.0
C911 C 0.40578 0.33898 0.9363 0.0
C912 C 0.40619 0.35938 0.93442 0.0
C913 C 0.41042 0.36855 0.90924 0.0
C914 C 0.41399 0.35709 0.88611 0.0
C915 C 0.41331 0.33717 0.88751 0.0
C916 C 0.41699 0.32808 0.85964 0.0
C917 C 0.43695 0.31554 0.85974 0.0
C918 C 0.39769 0.31641 0.85042 0.0
C919 C 0.41989 0.34598 0.84226 0.0
C920 C 0.4183 0.36259 0.85787 0.0
C921 C 0.42072 0.38085 0.84621 0.0
C922 C 0.42465 0.38214 0.81783 0.0
C923 C 0.42591 0.36527 0.80144 0.0
C924 C 0.42357 0.34701 0.81398 0.0
H925 H 0.94 0.16826 0.08557 0.0
H926 H 0.87406 0.18406 0.09062 0.0
H927 H 0.87345 0.17407 0.13926 0.0
H928 H 0.93721 0.12649 0.12931 0.0
H929 H 0.96241 0.13083 0.14501 0.0
H930 H 0.95753 0.13888 0.11042 0.0
H931 H 0.96771 0.17376 0.12424 0.0
H932 H 0.97262 0.16583 0.15887 0.0
H933 H 0.95435 0.18523 0.15257 0.0
H934 H 0.88025 0.16307 0.18774 0.0
H935 H 0.89373 0.15132 0.23219 0.0
H936 H 0.95538 0.14294 0.19561 0.0
C937 C 0.92544 0.16976 0.09686 0.0
C938 C 0.90706 0.17699 0.08411 0.0
C939 C 0.88828 0.17837 0.0997 0.0
C940 C 0.88781 0.17283 0.12743 0.0
C941 C 0.90623 0.16589 0.13933 0.0
C942 C 0.92469 0.16429 0.12453 0.0
C943 C 0.94234 0.15646 0.1422 0.0
C944 C 0.95034 0.13701 0.13107 0.0
C945 C 0.96032 0.1712 0.14461 0.0
C946 C 0.93096 0.15397 0.16932 0.0
C947 C 0.91014 0.1595 0.16722 0.0
C948 C 0.89651 0.15866 0.18961 0.0
C949 C 0.90434 0.15198 0.2148 0.0
C950 C 0.92563 0.14618 0.21746 0.0
C951 C 0.93904 0.14721 0.1943 0.0
H952 H 0.945 0.63962 0.84206 0.0
H953 H 0.98127 0.68998 0.81877 0.0
H954 H 0.97379 0.70469 0.8644 0.0
H955 H 0.90493 0.66351 0.87986 0.0
H956 H 0.90316 0.64493 0.90567 0.0
H957 H 0.91142 0.63888 0.87134 0.0
H958 H 0.94566 0.62374 0.89053 0.0
H959 H 0.93749 0.6297 0.92494 0.0
H960 H 0.96254 0.63799 0.91224 0.0
H961 H 0.95991 0.71433 0.91288 0.0
H962 H 0.94412 0.71648 0.95958 0.0
H963 H 0.91953 0.6585 0.95029 0.0
C964 C 0.95136 0.65379 0.84645 0.0
C965 C 0.96352 0.66378 0.82677 0.0
C966 C 0.97187 0.68211 0.83356 0.0
C967 C 0.96764 0.69056 0.85938 0.0
C968 C 0.95537 0.68031 0.87826 0.0
C969 C 0.94765 0.66218 0.87209 0.0
C970 C 0.93538 0.65373 0.89581 0.0
C971 C 0.91236 0.65006 0.88768 0.0
C972 C 0.9459 0.63519 0.90651 0.0
C973 C 0.93711 0.66997 0.91637 0.0
C974 C 0.94849 0.68533 0.90599 0.0
C975 C 0.95121 0.70226 0.92123 0.0
C976 C 0.94216 0.70339 0.94769 0.0
C977 C 0.93085 0.68757 0.95873 0.0
C978 C 0.92841 0.67073 0.94271 0.0
H979 H 0.12792 0.15263 0.58931 0.0
H980 H 0.08811 0.20201 0.57158 0.0
H981 H 0.06834 0.19612 0.61454 0.0
H982 H 0.08786 0.12243 0.61733 0.0
H983 H 0.10457 0.11215 0.64339 0.0
H984 H 0.11578 0.12048 0.61153 0.0
H985 H 0.14116 0.14289 0.63824 0.0
H986 H 0.13018 0.13448 0.67019 0.0
H987 H 0.13061 0.15995 0.66262 0.0
H988 H 0.05233 0.18415 0.65948 0.0
H989 H 0.04314 0.16843 0.7036 0.0
H990 H 0.09367 0.12716 0.69122 0.0
C991 C 0.11513 0.16231 0.59448 0.0
C992 C 0.1096 0.17779 0.57701 0.0
C993 C 0.09272 0.19008 0.58463 0.0
C994 C 0.08132 0.18681 0.60896 0.0
C995 C 0.08702 0.17123 0.6255 0.0
C996 C 0.10365 0.15929 0.61865 0.0
C997 C 0.10674 0.14362 0.63992 0.0
C998 C 0.10354 0.12348 0.62728 0.0
C999 C 0.12846 0.14535 0.65355 0.0
C1000 C 0.08926 0.14857 0.65985 0.0
C1001 C 0.07796 0.16447 0.65119 0.0
C1002 C 0.0611 0.1717 0.66645 0.0
C1003 C 0.05593 0.16262 0.69142 0.0
C1004 C 0.06765 0.14655 0.70091 0.0
C1005 C 0.08435 0.13939 0.68462 0.0
H1006 H 0.58623 0.31718 0.42581 0.0
H1007 H 0.56297 0.3676 0.46932 0.0
H1008 H 0.54686 0.37961 0.4267 0.0
H1009 H 0.59998 0.34162 0.36468 0.0
H1010 H 0.59204 0.32256 0.34173 0.0
H1011 H 0.60032 0.31687 0.37613 0.0
H1012 H 0.5651 0.2992 0.38505 0.0
H1013 H 0.55676 0.30475 0.35057 0.0
H1014 H 0.54067 0.31178 0.37941 0.0
H1015 H 0.53542 0.3876 0.3788 0.0
H1016 H 0.52861 0.39032 0.32897 0.0
H1017 H 0.55885 0.33483 0.31607 0.0
C1018 C 0.57739 0.33054 0.42646 0.0
C1019 C 0.57584 0.34139 0.45103 0.0
C1020 C 0.56443 0.359 0.45083 0.0
C1021 C 0.55516 0.36597 0.42669 0.0
C1022 C 0.55734 0.3552 0.40272 0.0
C1023 C 0.56804 0.3378 0.40238 0.0
C1024 C 0.56881 0.32957 0.37349 0.0
C1025 C 0.59165 0.32754 0.36342 0.0
C1026 C 0.55714 0.31017 0.37205 0.0
C1027 C 0.55717 0.34518 0.35771 0.0
C1028 C 0.55063 0.3598 0.375 0.0
C1029 C 0.54027 0.37614 0.36507 0.0
C1030 C 0.53651 0.37759 0.33671 0.0
C1031 C 0.54306 0.36278 0.31853 0.0
C1032 C 0.55343 0.34634 0.32937 0.0
H1033 H 0.48527 0.83638 0.19326 0.0
H1034 H 0.44334 0.88506 0.20591 0.0
H1035 H 0.42495 0.87721 0.16279 0.0
H1036 H 0.48956 0.84267 0.11894 0.0
H1037 H 0.49062 0.81711 0.11209 0.0
H1038 H 0.50043 0.82643 0.14415 0.0
H1039 H 0.47567 0.80331 0.17065 0.0
H1040 H 0.46562 0.79406 0.13868 0.0
H1041 H 0.44782 0.80394 0.16388 0.0
H1042 H 0.40965 0.86304 0.11994 0.0
H1043 H 0.40134 0.84613 0.07673 0.0
H1044 H 0.45456 0.80789 0.08939 0.0
C1045 C 0.47231 0.84544 0.18684 0.0
C1046 C 0.46573 0.86132 0.20305 0.0
C1047 C 0.44877 0.8729 0.19383 0.0
C1048 C 0.43812 0.86848 0.16942 0.0
C1049 C 0.44479 0.85261 0.15413 0.0
C1050 C 0.46173 0.84147 0.16214 0.0
C1051 C 0.46608 0.82562 0.14131 0.0
C1052 C 0.48797 0.82811 0.12836 0.0
C1053 C 0.46365 0.80554 0.15442 0.0
C1054 C 0.44879 0.82948 0.12054 0.0
C1055 C 0.43654 0.84497 0.12859 0.0
C1056 C 0.41925 0.851 0.11329 0.0
C1057 C 0.41457 0.8412 0.08883 0.0
C1058 C 0.4273 0.82569 0.07959 0.0
C1059 C 0.44458 0.81974 0.09583 0.0
H1060 H 0.91889 0.39094 0.68821 0.0
H1061 H 0.97237 0.353 0.70074 0.0
H1062 H 0.96335 0.33538 0.65821 0.0
H1063 H 0.88368 0.35523 0.66275 0.0
H1064 H 0.87163 0.37095 0.63781 0.0
H1065 H 0.88258 0.38089 0.66883 0.0
H1066 H 0.90622 0.40373 0.64012 0.0
H1067 H 0.89519 0.39401 0.60901 0.0
H1068 H 0.92324 0.39371 0.6141 0.0
H1069 H 0.94765 0.3212 0.61482 0.0
H1070 H 0.92806 0.3131 0.57257 0.0
H1071 H 0.88511 0.36057 0.58849 0.0
C1072 C 0.92884 0.37902 0.68195 0.0
C1073 C 0.94637 0.37338 0.69788 0.0
C1074 C 0.95891 0.35766 0.68888 0.0
C1075 C 0.95386 0.34751 0.66479 0.0
C1076 C 0.93626 0.35327 0.64984 0.0
C1077 C 0.92406 0.36878 0.65795 0.0
C1078 C 0.90603 0.37212 0.63823 0.0
C1079 C 0.88472 0.36965 0.65278 0.0
C1080 C 0.90778 0.39208 0.62455 0.0
C1081 C 0.90992 0.35603 0.61776 0.0
C1082 C 0.92737 0.34525 0.62486 0.0
C1083 C 0.93399 0.32959 0.60904 0.0
C1084 C 0.9227 0.32505 0.58512 0.0
C1085 C 0.90501 0.33617 0.57714 0.0
C1086 C 0.89852 0.35174 0.59396 0.0
H1087 H 0.43207 0.12881 0.332 0.0
H1088 H 0.48387 0.16819 0.31722 0.0
H1089 H 0.47588 0.18487 0.36106 0.0
H1090 H 0.39687 0.16319 0.35953 0.0
H1091 H 0.38574 0.14698 0.38459 0.0
H1092 H 0.39635 0.13757 0.35299 0.0
H1093 H 0.42121 0.115 0.38032 0.0
H1094 H 0.41049 0.12415 0.41202 0.0
H1095 H 0.43842 0.12514 0.40593 0.0
H1096 H 0.46071 0.19814 0.40631 0.0
H1097 H 0.44127 0.20537 0.44929 0.0
H1098 H 0.39954 0.1572 0.43301 0.0
C1099 C 0.44196 0.14078 0.33805 0.0
C1100 C 0.45866 0.14713 0.32112 0.0
C1101 C 0.47107 0.16296 0.32988 0.0
C1102 C 0.46658 0.17258 0.35471 0.0
C1103 C 0.44967 0.16618 0.37058 0.0
C1104 C 0.43769 0.15051 0.36262 0.0
C1105 C 0.42015 0.14657 0.38289 0.0
C1106 C 0.3985 0.14871 0.36917 0.0
C1107 C 0.42273 0.12653 0.39607 0.0
C1108 C 0.42398 0.16252 0.40351 0.0
C1109 C 0.44103 0.17373 0.39616 0.0
C1110 C 0.44737 0.18938 0.41223 0.0
C1111 C 0.43618 0.19344 0.43656 0.0
C1112 C 0.41884 0.1819 0.4446 0.0
C1113 C 0.41268 0.16637 0.42756 0.0
H1114 H 0.56798 0.69163 0.21796 0.0
H1115 H 0.55917 0.6311 0.19789 0.0
H1116 H 0.57097 0.63753 0.15039 0.0
H1117 H 0.55034 0.71086 0.15248 0.0
H1118 H 0.56948 0.73003 0.15221 0.0
H1119 H 0.55983 0.72073 0.1844 0.0
H1120 H 0.59802 0.71358 0.19971 0.0
H1121 H 0.60778 0.72275 0.16751 0.0
H1122 H 0.61459 0.69867 0.17838 0.0
H1123 H 0.58514 0.6503 0.10549 0.0
H1124 H 0.59885 0.66864 0.06594 0.0
H1125 H 0.59799 0.72109 0.11481 0.0
C1126 C 0.56834 0.67972 0.20355 0.0
C1127 C 0.56258 0.66082 0.21177 0.0
C1128 C 0.56341 0.64569 0.19218 0.0
C1129 C 0.57015 0.6492 0.16512 0.0
C1130 C 0.57597 0.66793 0.15785 0.0
C1131 C 0.57498 0.68298 0.17644 0.0
C1132 C 0.58226 0.70175 0.16342 0.0
C1133 C 0.56441 0.71672 0.16311 0.0
C1134 C 0.60183 0.70965 0.17814 0.0
C1135 C 0.58757 0.69491 0.13462 0.0
C1136 C 0.58389 0.67534 0.13189 0.0
C1137 C 0.58796 0.66565 0.10737 0.0
C1138 C 0.59583 0.67622 0.085 0.0
C1139 C 0.5995 0.69637 0.08712 0.0
C1140 C 0.5953 0.70575 0.1124 0.0
H1141 H 0.08324 0.8753 0.83001 0.0
H1142 H 0.02977 0.8375 0.81751 0.0
H1143 H 0.03746 0.82136 0.86195 0.0
H1144 H 0.11751 0.84067 0.86092 0.0
H1145 H 0.12857 0.85786 0.88461 0.0
H1146 H 0.11882 0.86587 0.85184 0.0
H1147 H 0.09424 0.89032 0.87636 0.0
H1148 H 0.10388 0.88236 0.90922 0.0
H1149 H 0.07609 0.88181 0.90213 0.0
H1150 H 0.05208 0.80912 0.90832 0.0
H1151 H 0.07116 0.80287 0.95184 0.0
H1152 H 0.11378 0.84993 0.93307 0.0
C1153 C 0.07314 0.86356 0.83642 0.0
C1154 C 0.05596 0.85758 0.82015 0.0
C1155 C 0.04305 0.84229 0.8296 0.0
C1156 C 0.04732 0.83305 0.8548 0.0
C1157 C 0.06443 0.8394 0.87033 0.0
C1158 C 0.07703 0.85439 0.86143 0.0
C1159 C 0.09422 0.8589 0.88183 0.0
C1160 C 0.11607 0.85562 0.86903 0.0
C1161 C 0.09196 0.87957 0.89304 0.0
C1162 C 0.08948 0.84407 0.90372 0.0
C1163 C 0.07234 0.83283 0.89681 0.0
C1164 C 0.06545 0.81792 0.9139 0.0
C1165 C 0.07638 0.81447 0.93857 0.0
C1166 C 0.09389 0.82598 0.94599 0.0
C1167 C 0.10036 0.84096 0.92822 0.0
H1168 H 0.14393 0.31826 0.3614 0.0
H1169 H 0.08624 0.34117 0.396 0.0
H1170 H 0.08446 0.3135 0.42805 0.0
H1171 H 0.12849 0.2691 0.36287 0.0
H1172 H 0.1542 0.25999 0.37145 0.0
H1173 H 0.15167 0.28222 0.35259 0.0
H1174 H 0.17371 0.29997 0.38949 0.0
H1175 H 0.17637 0.27776 0.40844 0.0
H1176 H 0.16568 0.29889 0.425 0.0
H1177 H 0.08866 0.28295 0.45563 0.0
H1178 H 0.0977 0.2512 0.47546 0.0
H1179 H 0.15219 0.24781 0.42183 0.0
C1180 C 0.13114 0.31761 0.37605 0.0
C1181 C 0.11528 0.33191 0.37638 0.0
C1182 C 0.09849 0.33032 0.39538 0.0
C1183 C 0.09741 0.31472 0.41372 0.0
C1184 C 0.1132 0.30077 0.41268 0.0
C1185 C 0.12971 0.30203 0.39428 0.0
C1186 C 0.14407 0.28464 0.39641 0.0
C1187 C 0.14463 0.27332 0.36921 0.0
C1188 C 0.16627 0.29068 0.40538 0.0
C1189 C 0.13299 0.27333 0.41878 0.0
C1190 C 0.11533 0.28296 0.42807 0.0
C1191 C 0.10248 0.27529 0.44855 0.0
C1192 C 0.10776 0.25725 0.4597 0.0
C1193 C 0.12563 0.24698 0.45019 0.0
C1194 C 0.1384 0.25525 0.42953 0.0
H1195 H 0.9083 0.81015 0.63647 0.0
H1196 H 0.90709 0.8607 0.58391 0.0
H1197 H 0.93121 0.87748 0.61582 0.0
H1198 H 0.91217 0.83513 0.70262 0.0
H1199 H 0.93015 0.81759 0.7166 0.0
H1200 H 0.91113 0.81039 0.69122 0.0
H1201 H 0.94103 0.79688 0.66052 0.0
H1202 H 0.96013 0.80404 0.68576 0.0
H1203 H 0.96251 0.81244 0.65085 0.0
H1204 H 0.95637 0.88827 0.65272 0.0
H1205 H 0.98275 0.89147 0.6895 0.0
H1206 H 0.9691 0.83307 0.71654 0.0
C1207 C 0.91277 0.82489 0.63196 0.0
C1208 C 0.90559 0.83426 0.60793 0.0
C1209 C 0.9123 0.85334 0.60231 0.0
C1210 C 0.92593 0.86298 0.62036 0.0
C1211 C 0.93288 0.85326 0.64375 0.0
C1212 C 0.92665 0.83458 0.64946 0.0
C1213 C 0.93772 0.82679 0.67471 0.0
C1214 C 0.92184 0.82221 0.69765 0.0
C1215 C 0.95114 0.80899 0.66752 0.0
C1216 C 0.95132 0.84393 0.68219 0.0
C1217 C 0.94804 0.85916 0.66433 0.0
C1218 C 0.95902 0.87646 0.66686 0.0
C1219 C 0.97395 0.87814 0.6879 0.0
C1220 C 0.97804 0.86252 0.70596 0.0
C1221 C 0.96635 0.84529 0.70313 0.0
H1222 H 0.38299 0.76764 0.91907 0.0
H1223 H 0.42588 0.75544 0.98609 0.0
H1224 H 0.43389 0.72359 0.96534 0.0
H1225 H 0.3624 0.71931 0.91215 0.0
H1226 H 0.36057 0.72079 0.87526 0.0
H1227 H 0.35809 0.74232 0.89578 0.0
H1228 H 0.38837 0.75825 0.86828 0.0
H1229 H 0.39096 0.73679 0.84768 0.0
H1230 H 0.4134 0.74613 0.86587 0.0
H1231 H 0.43809 0.69334 0.93567 0.0
H1232 H 0.43724 0.66727 0.90092 0.0
H1233 H 0.3912 0.69964 0.85413 0.0
C1234 C 0.39402 0.75829 0.92953 0.0
C1235 C 0.40383 0.76409 0.95424 0.0
C1236 C 0.41813 0.75132 0.96719 0.0
C1237 C 0.42279 0.73321 0.95553 0.0
C1238 C 0.41291 0.72803 0.93101 0.0
C1239 C 0.39873 0.7402 0.91829 0.0
C1240 C 0.39031 0.73142 0.89204 0.0
C1241 C 0.36643 0.72827 0.89393 0.0
C1242 C 0.39612 0.74389 0.86699 0.0
C1243 C 0.40204 0.7124 0.89178 0.0
C1244 C 0.41505 0.71069 0.91436 0.0
C1245 C 0.42786 0.69454 0.91802 0.0
C1246 C 0.42735 0.67983 0.8981 0.0
C1247 C 0.41406 0.68129 0.87483 0.0
C1248 C 0.40123 0.69784 0.87187 0.0
H1249 H 0.61086 0.20032 0.13759 0.0
H1250 H 0.6077 0.15189 0.08126 0.0
H1251 H 0.57881 0.13779 0.10891 0.0
H1252 H 0.59859 0.17433 0.20065 0.0
H1253 H 0.58265 0.19363 0.21427 0.0
H1254 H 0.60414 0.199 0.19137 0.0
H1255 H 0.57867 0.21728 0.15902 0.0
H1256 H 0.55711 0.21196 0.18179 0.0
H1257 H 0.5557 0.20507 0.14613 0.0
H1258 H 0.54992 0.12931 0.14245 0.0
H1259 H 0.52164 0.12804 0.17712 0.0
H1260 H 0.54231 0.18307 0.21008 0.0
C1261 C 0.60436 0.18655 0.13135 0.0
C1262 C 0.61174 0.17699 0.10753 0.0
C1263 C 0.60238 0.15934 0.09956 0.0
C1264 C 0.58601 0.15123 0.11517 0.0
C1265 C 0.57899 0.1611 0.13845 0.0
C1266 C 0.58776 0.17847 0.14638 0.0
C1267 C 0.57643 0.18684 0.17111 0.0
C1268 C 0.59134 0.18854 0.19581 0.0
C1269 C 0.56638 0.20644 0.16408 0.0
C1270 C 0.55987 0.17147 0.17591 0.0
C1271 C 0.56179 0.15665 0.15704 0.0
C1272 C 0.54828 0.14084 0.15731 0.0
C1273 C 0.53227 0.14024 0.17717 0.0
C1274 C 0.52968 0.15546 0.19639 0.0
C1275 C 0.54382 0.17121 0.19572 0.0
H1276 H 0.13371 0.69946 0.18023 0.0
H1277 H 0.08552 0.66517 0.14044 0.0
H1278 H 0.08525 0.68796 0.10144 0.0
H1279 H 0.11378 0.74535 0.16068 0.0
H1280 H 0.13931 0.75599 0.15546 0.0
H1281 H 0.13611 0.73663 0.17977 0.0
H1282 H 0.16497 0.7169 0.15464 0.0
H1283 H 0.16827 0.73623 0.13024 0.0
H1284 H 0.16239 0.71218 0.11838 0.0
H1285 H 0.08985 0.71505 0.06702 0.0
H1286 H 0.09858 0.74447 0.04055 0.0
H1287 H 0.14395 0.76059 0.10299 0.0
C1288 C 0.1233 0.69656 0.16318 0.0
C1289 C 0.10965 0.68048 0.16347 0.0
C1290 C 0.09596 0.67748 0.1409 0.0
C1291 C 0.09579 0.69029 0.11854 0.0
C1292 C 0.1094 0.70603 0.11902 0.0
C1293 C 0.1229 0.7092 0.14077 0.0
C1294 C 0.13557 0.72745 0.13667 0.0
C1295 C 0.1309 0.74222 0.1595 0.0
C1296 C 0.1592 0.72291 0.13487 0.0
C1297 C 0.12704 0.73412 0.10926 0.0
C1298 C 0.11201 0.72156 0.09933 0.0
C1299 C 0.10166 0.72495 0.07456 0.0
C1300 C 0.10673 0.74169 0.05965 0.0
C1301 C 0.12197 0.75483 0.06963 0.0
C1302 C 0.13228 0.75083 0.09469 0.0
H1303 H 0.51873 0.89046 0.37341 0.0
H1304 H 0.54144 0.86187 0.29977 0.0
H1305 H 0.5731 0.85106 0.32522 0.0
H1306 H 0.5695 0.90662 0.39857 0.0
H1307 H 0.56251 0.9025 0.43398 0.0
H1308 H 0.54248 0.90872 0.4094 0.0
H1309 H 0.52167 0.8779 0.42245 0.0
H1310 H 0.54159 0.87159 0.44705 0.0
H1311 H 0.53447 0.8547 0.42048 0.0
H1312 H 0.60147 0.84193 0.36029 0.0
H1313 H 0.62353 0.83534 0.40104 0.0
H1314 H 0.58172 0.8704 0.45092 0.0
C1315 C 0.5304 0.88206 0.36243 0.0
C1316 C 0.52758 0.87703 0.33451 0.0
C1317 C 0.54328 0.86597 0.3211 0.0
C1318 C 0.5613 0.85977 0.33541 0.0
C1319 C 0.56343 0.86487 0.36305 0.0
C1320 C 0.54838 0.87584 0.37632 0.0
C1321 C 0.55384 0.87893 0.40625 0.0
C1322 C 0.55729 0.90047 0.4124 0.0
C1323 C 0.53689 0.87026 0.42516 0.0
C1324 C 0.57422 0.86774 0.40803 0.0
C1325 C 0.5796 0.85979 0.38293 0.0
C1326 C 0.59745 0.84825 0.37995 0.0
C1327 C 0.60991 0.84459 0.40324 0.0
C1328 C 0.60447 0.85242 0.42924 0.0
C1329 C 0.58649 0.86433 0.43138 0.0
H1330 H 0.4425 0.25452 0.58756 0.0
H1331 H 0.38082 0.2556 0.54951 0.0
H1332 H 0.37225 0.28539 0.57485 0.0
H1333 H 0.42574 0.26998 0.65351 0.0
H1334 H 0.44858 0.28459 0.66032 0.0
H1335 H 0.45061 0.26406 0.63779 0.0
H1336 H 0.46536 0.286 0.59923 0.0
H1337 H 0.46342 0.3066 0.62171 0.0
H1338 H 0.45066 0.30699 0.58868 0.0
H1339 H 0.36951 0.31404 0.60582 0.0
H1340 H 0.37294 0.33996 0.6402 0.0
H1341 H 0.43614 0.32041 0.65897 0.0
C1342 C 0.42731 0.26118 0.58424 0.0
C1343 C 0.41237 0.2527 0.5664 0.0
C1344 C 0.39256 0.26177 0.56298 0.0
C1345 C 0.38753 0.27874 0.57727 0.0
C1346 C 0.40247 0.28655 0.59495 0.0
C1347 C 0.42198 0.27814 0.59846 0.0
C1348 C 0.43481 0.28911 0.61959 0.0
C1349 C 0.44024 0.27616 0.64426 0.0
C1350 C 0.45474 0.29769 0.60652 0.0
C1351 C 0.41934 0.30484 0.6276 0.0
C1352 C 0.40083 0.30311 0.61303 0.0
C1353 C 0.38396 0.31559 0.6173 0.0
C1354 C 0.38601 0.3302 0.63704 0.0
C1355 C 0.40477 0.33227 0.65241 0.0
C1356 C 0.42169 0.31942 0.64737 0.0
H1357 H 0.98195 0.18333 0.81031 0.0
H1358 H 0.99447 0.12389 0.83346 0.0
H1359 H 0.96453 0.12481 0.86566 0.0
H1360 H 0.96864 0.20023 0.87617 0.0
H1361 H 0.94796 0.21613 0.86485 0.0
H1362 H 0.9694 0.21041 0.8421 0.0
H1363 H 0.94303 0.19833 0.80543 0.0
H1364 H 0.92147 0.20405 0.82809 0.0
H1365 H 0.92417 0.17997 0.81445 0.0
H1366 H 0.93562 0.13322 0.89892 0.0
H1367 H 0.90855 0.14808 0.92878 0.0
H1368 H 0.91345 0.20137 0.88245 0.0
C1369 C 0.97822 0.17041 0.82184 0.0
C1370 C 0.99062 0.15353 0.81928 0.0
C1371 C 0.98521 0.13698 0.83491 0.0
C1372 C 0.96821 0.13735 0.85331 0.0
C1373 C 0.95654 0.1543 0.85566 0.0
C1374 C 0.96115 0.17047 0.84013 0.0
C1375 C 0.9465 0.18704 0.84721 0.0
C1376 C 0.95887 0.20447 0.85824 0.0
C1377 C 0.93299 0.19267 0.82231 0.0
C1378 C 0.93328 0.1778 0.86956 0.0
C1379 C 0.93933 0.15891 0.87415 0.0
C1380 C 0.93047 0.14788 0.89516 0.0
C1381 C 0.91514 0.15643 0.91205 0.0
C1382 C 0.90865 0.17573 0.90763 0.0
C1383 C 0.91769 0.18641 0.88586 0.0
H1384 H 0.90981 0.67455 0.67623 0.0
H1385 H 0.97665 0.68458 0.66525 0.0
H1386 H 0.96889 0.70978 0.63107 0.0
H1387 H 0.89539 0.68115 0.60458 0.0
H1388 H 0.87095 0.69307 0.61263 0.0
H1389 H 0.88172 0.67554 0.63605 0.0
H1390 H 0.88068 0.70084 0.67526 0.0
H1391 H 0.86992 0.71844 0.65196 0.0
H1392 H 0.89368 0.72372 0.67061 0.0
H1393 H 0.95396 0.73454 0.59884 0.0
H1394 H 0.93281 0.75669 0.57033 0.0
H1395 H 0.8757 0.73044 0.60164 0.0
C1396 C 0.92284 0.68186 0.66643 0.0
C1397 C 0.94387 0.67757 0.67368 0.0
C1398 C 0.9604 0.68774 0.66051 0.0
C1399 C 0.95616 0.70203 0.64088 0.0
C1400 C 0.93529 0.706 0.63444 0.0
C1401 C 0.91889 0.69618 0.64673 0.0
C1402 C 0.89785 0.70347 0.63637 0.0
C1403 C 0.88577 0.68735 0.62152 0.0
C1404 C 0.88477 0.71213 0.65996 0.0
C1405 C 0.90502 0.71896 0.61643 0.0
C1406 C 0.92668 0.72018 0.61565 0.0
C1407 C 0.93698 0.73368 0.59923 0.0
C1408 C 0.92483 0.74629 0.58321 0.0
C1409 C 0.90258 0.74534 0.58364 0.0
C1410 C 0.89265 0.73138 0.60047 0.0
H1411 H 0.98575 0.11722 0.37887 0.0
H1412 H 0.99108 0.15887 0.31263 0.0
H1413 H 0.02322 0.17215 0.33419 0.0
H1414 H 1.00093 0.14837 0.4324 0.0
H1415 H 0.0152 0.13015 0.45112 0.0
H1416 H 0.99351 0.12334 0.42954 0.0
H1417 H 0.01763 0.09969 0.40276 0.0
H1418 H 0.03939 0.10634 0.4244 0.0
H1419 H 0.04165 0.10851 0.38761 0.0
H1420 H 0.05387 0.18203 0.3652 0.0
H1421 H 0.081 0.18629 0.40116 0.0
H1422 H 0.05468 0.13804 0.4463 0.0
C1423 C 0.99376 0.129 0.36865 0.0
C1424 C 0.98591 0.137 0.34404 0.0
C1425 C 0.99688 0.15244 0.33143 0.0
C1426 C 0.0151 0.16011 0.34357 0.0
C1427 C 0.02217 0.15208 0.36818 0.0
C1428 C 0.01189 0.13675 0.38039 0.0
C1429 C 0.02224 0.13089 0.40705 0.0
C1430 C 1.00707 0.13334 0.43146 0.0
C1431 C 0.03074 0.11013 0.40534 0.0
C1432 C 0.0399 0.14543 0.40816 0.0
C1433 C 0.03967 0.15758 0.38565 0.0
C1434 C 0.05425 0.17249 0.3828 0.0
C1435 C 0.06951 0.1749 0.4034 0.0
C1436 C 0.07009 0.16241 0.42646 0.0
C1437 C 0.05498 0.14758 0.42871 0.0
H1438 H 0.64054 0.28852 0.09083 0.0
H1439 H 0.60027 0.23971 0.10982 0.0
H1440 H 0.57959 0.26015 0.14121 0.0
H1441 H 0.64231 0.30743 0.1591 0.0
H1442 H 0.64216 0.33232 0.14831 0.0
H1443 H 0.65322 0.31408 0.12623 0.0
H1444 H 0.62826 0.32464 0.08697 0.0
H1445 H 0.61716 0.34296 0.10891 0.0
H1446 H 0.60031 0.32529 0.09303 0.0
H1447 H 0.56367 0.28582 0.17146 0.0
H1448 H 0.55404 0.31464 0.19854 0.0
H1449 H 0.60508 0.34649 0.16053 0.0
C1450 C 0.62741 0.28208 0.10157 0.0
C1451 C 0.62202 0.26248 0.09756 0.0
C1452 C 0.60455 0.25473 0.11199 0.0
C1453 C 0.59275 0.26622 0.13007 0.0
C1454 C 0.59859 0.28544 0.1336 0.0
C1455 C 0.61551 0.29331 0.11977 0.0
C1456 C 0.61878 0.31425 0.12766 0.0
C1457 C 0.6404 0.31718 0.14113 0.0
C1458 C 0.61595 0.32757 0.10265 0.0
C1459 C 0.60114 0.31689 0.14824 0.0
C1460 C 0.58961 0.30013 0.15127 0.0
C1461 C 0.57254 0.29905 0.16917 0.0
C1462 C 0.56712 0.31554 0.18437 0.0
C1463 C 0.57877 0.33287 0.18169 0.0
C1464 C 0.596 0.33344 0.16331 0.0
H1465 H 0.46456 0.8253 0.92413 0.0
H1466 H 0.43124 0.87975 0.91899 0.0
H1467 H 0.45192 0.8886 0.87793 0.0
H1468 H 0.51406 0.84401 0.90806 0.0
H1469 H 0.5229 0.82354 0.88829 0.0
H1470 H 0.50357 0.82031 0.91488 0.0
H1471 H 0.4783 0.80465 0.8796 0.0
H1472 H 0.49763 0.80795 0.85288 0.0
H1473 H 0.47151 0.81762 0.84875 0.0
H1474 H 0.47849 0.89319 0.84108 0.0
H1475 H 0.51004 0.89362 0.81148 0.0
H1476 H 0.52648 0.83618 0.83983 0.0
C1477 C 0.46132 0.83883 0.91384 0.0
C1478 C 0.44627 0.85183 0.92456 0.0
C1479 C 0.44277 0.86966 0.9111 0.0
C1480 C 0.45432 0.87473 0.88768 0.0
C1481 C 0.46936 0.86181 0.87792 0.0
C1482 C 0.47293 0.84421 0.89052 0.0
C1483 C 0.49139 0.83383 0.87736 0.0
C1484 C 0.50901 0.83022 0.8984 0.0
C1485 C 0.48427 0.81489 0.86384 0.0
C1486 C 0.49795 0.84858 0.85596 0.0
C1487 C 0.48484 0.86449 0.85642 0.0
C1488 C 0.48866 0.88068 0.84015 0.0
C1489 C 0.50661 0.8808 0.82342 0.0
C1490 C 0.52054 0.86486 0.82306 0.0
C1491 C 0.51583 0.84837 0.83909 0.0
H1492 H 0.87677 0.28234 0.93275 0.0
H1493 H 0.93381 0.24823 0.93928 0.0
H1494 H 0.95187 0.27089 0.90801 0.0
H1495 H 0.88143 0.29346 0.86242 0.0
H1496 H 0.87129 0.31766 0.86567 0.0
H1497 H 0.86322 0.29929 0.88961 0.0
H1498 H 0.87565 0.32057 0.93026 0.0
H1499 H 0.88367 0.33907 0.90644 0.0
H1500 H 0.90228 0.32943 0.93072 0.0
H1501 H 0.96327 0.29685 0.87444 0.0
H1502 H 0.96687 0.32357 0.84123 0.0
H1503 H 0.90255 0.34095 0.85812 0.0
C1504 C 0.89317 0.27977 0.9281 0.0
C1505 C 0.90383 0.26346 0.93862 0.0
C1506 C 0.92519 0.26049 0.93134 0.0
C1507 C 0.93564 0.27335 0.91371 0.0
C1508 C 0.92456 0.28918 0.90357 0.0
C1509 C 0.9038 0.29244 0.91059 0.0
C1510 C 0.89518 0.31013 0.89623 0.0
C1511 C 0.87669 0.30481 0.87736 0.0
C1512 C 0.88883 0.32572 0.91716 0.0
C1513 C 0.91426 0.31622 0.87979 0.0
C1514 C 0.93109 0.30404 0.88436 0.0
C1515 C 0.95023 0.30657 0.87088 0.0
C1516 C 0.95216 0.32188 0.85212 0.0
C1517 C 0.93501 0.33446 0.84692 0.0
C1518 C 0.91592 0.33156 0.86126 0.0
H1519 H 0.52897 0.1805 0.68627 0.0
H1520 H 0.52046 0.11992 0.70607 0.0
H1521 H 0.48774 0.11948 0.67897 0.0
H1522 H 0.47173 0.19396 0.68407 0.0
H1523 H 0.47574 0.20988 0.65524 0.0
H1524 H 0.49639 0.20644 0.68009 0.0
H1525 H 0.5219 0.19636 0.64109 0.0
H1526 H 0.50138 0.19968 0.61621 0.0
H1527 H 0.51475 0.17679 0.61855 0.0
H1528 H 0.45937 0.1241 0.64479 0.0
H1529 H 0.43712 0.13352 0.60545 0.0
H1530 H 0.46343 0.19111 0.60741 0.0
C1531 C 0.51985 0.16731 0.68563 0.0
C1532 C 0.52715 0.15027 0.69849 0.0
C1533 C 0.51511 0.13315 0.69651 0.0
C1534 C 0.49645 0.1328 0.68125 0.0
C1535 C 0.49 0.14968 0.66817 0.0
C1536 C 0.50125 0.16668 0.6703 0.0
C1537 C 0.49215 0.1822 0.65179 0.0
C1538 C 0.48348 0.19912 0.66882 0.0
C1539 C 0.50852 0.18915 0.63066 0.0
C1540 C 0.47454 0.17104 0.63814 0.0
C1541 C 0.47341 0.15239 0.64824 0.0
C1542 C 0.45978 0.13876 0.63713 0.0
C1543 C 0.44729 0.14419 0.61477 0.0
C1544 C 0.44847 0.16305 0.60376 0.0
C1545 C 0.46188 0.17678 0.61603 0.0
H1546 H 0.65296 0.74052 0.42347 0.0
H1547 H 0.59405 0.76308 0.45498 0.0
H1548 H 0.5746 0.7391 0.42726 0.0
H1549 H 0.63513 0.73192 0.35503 0.0
H1550 H 0.65021 0.71008 0.3507 0.0
H1551 H 0.65941 0.72869 0.37352 0.0
H1552 H 0.66103 0.70397 0.41345 0.0
H1553 H 0.65187 0.68527 0.39073 0.0
H1554 H 0.63789 0.69027 0.42218 0.0
H1555 H 0.56172 0.71245 0.39628 0.0
H1556 H 0.55622 0.68571 0.36379 0.0
H1557 H 0.6237 0.68135 0.35149 0.0
C1558 C 0.63599 0.74027 0.42483 0.0
C1559 C 0.62501 0.75362 0.44149 0.0
C1560 C 0.60276 0.75308 0.44221 0.0
C1561 C 0.5916 0.73946 0.42665 0.0
C1562 C 0.60293 0.72656 0.41037 0.0
C1563 C 0.62463 0.72689 0.4093 0.0
C1564 C 0.63305 0.71176 0.38969 0.0
C1565 C 0.64516 0.72118 0.36582 0.0
C1566 C 0.64677 0.69694 0.40493 0.0
C1567 C 0.6127 0.70282 0.37993 0.0
C1568 C 0.59551 0.71151 0.39215 0.0
C1569 C 0.57506 0.70562 0.38645 0.0
C1570 C 0.5721 0.69046 0.36774 0.0
C1571 C 0.5895 0.68138 0.35477 0.0
C1572 C 0.61004 0.68777 0.3611 0.0
H1573 H 0.08724 0.86918 0.10062 0.0
H1574 H 0.07931 0.80722 0.10881 0.0
H1575 H 0.05245 0.81248 0.14457 0.0
H1576 H 0.08026 0.8807 0.17386 0.0
H1577 H 0.06617 0.90273 0.16676 0.0
H1578 H 0.08572 0.89408 0.1429 0.0
H1579 H 0.05816 0.89466 0.10378 0.0
H1580 H 0.03856 0.90329 0.12749 0.0
H1581 H 0.03387 0.8816 0.10797 0.0
H1582 H 0.02467 0.82444 0.17716 0.0
H1583 H 0.99825 0.84231 0.20439 0.0
H1584 H 0.02495 0.89648 0.17626 0.0
C1585 C 0.08016 0.8567 0.11027 0.0
C1586 C 0.08539 0.83777 0.10171 0.0
C1587 C 0.0754 0.82187 0.11462 0.0
C1588 C 0.06022 0.8247 0.13516 0.0
C1589 C 0.05523 0.84353 0.1428 0.0
C1590 C 0.06497 0.85927 0.13087 0.0
C1591 C 0.05609 0.87803 0.14202 0.0
C1592 C 0.07308 0.88956 0.1573 0.0
C1593 C 0.04607 0.8901 0.11894 0.0
C1594 C 0.0396 0.87037 0.16172 0.0
C1595 C 0.03943 0.85043 0.16195 0.0
C1596 C 0.02483 0.84006 0.17742 0.0
C1597 C 1.00987 0.85034 0.19281 0.0
C1598 C 1.00962 0.8708 0.1927 0.0
C1599 C 0.02492 0.88086 0.17719 0.0
H1600 H 0.6329 0.78244 0.98481 0.0
H1601 H 0.57419 0.75202 0.97175 0.0
H1602 H 0.56299 0.77743 0.93913 0.0
H1603 H 0.61235 0.83218 0.97788 0.0
H1604 H 0.63548 0.84022 0.95977 0.0
H1605 H 0.63747 0.82114 0.98481 0.0
H1606 H 0.65454 0.79894 0.94817 0.0
H1607 H 0.65247 0.81785 0.92299 0.0
H1608 H 0.64093 0.79457 0.91631 0.0
H1609 H 0.55949 0.80497 0.90516 0.0
H1610 H 0.56449 0.83123 0.87158 0.0
H1611 H 0.62605 0.843 0.90594 0.0
C1612 C 0.61742 0.78137 0.97571 0.0
C1613 C 0.60427 0.76536 0.98117 0.0
C1614 C 0.58443 0.76424 0.96811 0.0
C1615 C 0.57794 0.77862 0.94957 0.0
C1616 C 0.59151 0.79398 0.94418 0.0
C1617 C 0.61085 0.79542 0.9569 0.0
C1618 C 0.62334 0.81235 0.94578 0.0
C1619 C 0.62739 0.82736 0.96841 0.0
C1620 C 0.64403 0.80551 0.93253 0.0
C1621 C 0.60819 0.82002 0.92442 0.0
C1622 C 0.58979 0.80943 0.92409 0.0
C1623 C 0.57376 0.81346 0.90546 0.0
C1624 C 0.57672 0.82851 0.88649 0.0
C1625 C 0.59568 0.83929 0.88604 0.0
C1626 C 0.61145 0.83502 0.90558 0.0
H1627 H 0.49092 0.35538 0.1797 0.0
H1628 H 0.44688 0.39114 0.22509 0.0
H1629 H 0.41948 0.38427 0.19046 0.0
H1630 H 0.47533 0.37061 0.11379 0.0
H1631 H 0.47867 0.34732 0.09784 0.0
H1632 H 0.49421 0.3537 0.12734 0.0
H1633 H 0.48108 0.32322 0.15301 0.0
H1634 H 0.46568 0.31661 0.12346 0.0
H1635 H 0.45324 0.3191 0.15656 0.0
H1636 H 0.39717 0.3743 0.14935 0.0
H1637 H 0.38202 0.36176 0.10601 0.0
H1638 H 0.44138 0.33367 0.0874 0.0
C1639 C 0.47541 0.36149 0.1827 0.0
C1640 C 0.47102 0.37369 0.20528 0.0
C1641 C 0.4506 0.38167 0.20806 0.0
C1642 C 0.43493 0.37787 0.18846 0.0
C1643 C 0.43994 0.36612 0.16612 0.0
C1644 C 0.45969 0.358 0.16324 0.0
C1645 C 0.46142 0.34656 0.13682 0.0
C1646 C 0.47841 0.35507 0.11783 0.0
C1647 C 0.46559 0.3251 0.14283 0.0
C1648 C 0.43963 0.34962 0.12514 0.0
C1649 C 0.42738 0.36083 0.14235 0.0
C1650 C 0.40664 0.3655 0.13575 0.0
C1651 C 0.39818 0.35836 0.11106 0.0
C1652 C 0.41051 0.34683 0.09317 0.0
C1653 C 0.43153 0.34256 0.10043 0.0
H1654 H 0.86448 0.26306 0.42411 0.0
H1655 H 0.92042 0.26133 0.47498 0.0
H1656 H 0.92997 0.22978 0.45477 0.0
H1657 H 0.8527 0.21176 0.42833 0.0
H1658 H 0.84364 0.2104 0.39332 0.0
H1659 H 0.84099 0.23261 0.41228 0.0
H1660 H 0.86145 0.25077 0.37417 0.0
H1661 H 0.86417 0.22864 0.35511 0.0
H1662 H 0.88718 0.24237 0.3642 0.0
H1663 H 0.93444 0.19921 0.42697 0.0
H1664 H 0.93252 0.1713 0.39533 0.0
H1665 H 0.87314 0.19251 0.36385 0.0
C1666 C 0.87869 0.25602 0.43113 0.0
C1667 C 0.89172 0.26471 0.45113 0.0
C1668 C 0.91015 0.25495 0.45977 0.0
C1669 C 0.91573 0.23703 0.44837 0.0
C1670 C 0.90261 0.22894 0.42856 0.0
C1671 C 0.88438 0.23805 0.42018 0.0
C1672 C 0.87307 0.22635 0.39845 0.0
C1673 C 0.85131 0.2199 0.40872 0.0
C1674 C 0.87138 0.23771 0.37138 0.0
C1675 C 0.8879 0.20934 0.39564 0.0
C1676 C 0.90489 0.21113 0.41312 0.0
C1677 C 0.92111 0.19759 0.41338 0.0
C1678 C 0.91995 0.18184 0.39528 0.0
C1679 C 0.90263 0.17967 0.3773 0.0
C1680 C 0.88637 0.19359 0.37771 0.0
H1681 H 0.11355 0.71276 0.64358 0.0
H1682 H 0.11377 0.6628 0.58984 0.0
H1683 H 0.08796 0.64669 0.62029 0.0
H1684 H 0.10704 0.68733 0.70865 0.0
H1685 H 0.08951 0.70531 0.72259 0.0
H1686 H 0.1093 0.71215 0.69792 0.0
H1687 H 0.08057 0.72702 0.66673 0.0
H1688 H 0.06072 0.72025 0.69128 0.0
H1689 H 0.05866 0.71234 0.65611 0.0
H1690 H 0.06167 0.63637 0.65622 0.0
H1691 H 0.03479 0.63347 0.69254 0.0
H1692 H 0.0502 0.69105 0.7214 0.0
C1693 C 0.10844 0.69829 0.63846 0.0
C1694 C 0.11587 0.68888 0.61455 0.0
C1695 C 0.10836 0.67019 0.60815 0.0
C1696 C 0.09377 0.66093 0.62537 0.0
C1697 C 0.08666 0.67066 0.6487 0.0
C1698 C 0.0936 0.689 0.65513 0.0
C1699 C 0.08239 0.69687 0.68027 0.0
C1700 C 0.098 0.70063 0.70375 0.0
C1701 C 0.06984 0.7152 0.67316 0.0
C1702 C 0.06794 0.68013 0.68695 0.0
C1703 C 0.07088 0.66506 0.66872 0.0
C1704 C 0.05926 0.64808 0.67061 0.0
C1705 C 0.04405 0.64656 0.6914 0.0
C1706 C 0.04034 0.66204 0.70988 0.0
C1707 C 0.05264 0.67896 0.70765 0.0
H1708 H 0.63744 0.26991 0.59513 0.0
H1709 H 0.59558 0.25169 0.52981 0.0
H1710 H 0.58948 0.2208 0.5543 0.0
H1711 H 0.66074 0.2231 0.60857 0.0
H1712 H 0.66211 0.22718 0.64509 0.0
H1713 H 0.66366 0.24729 0.62171 0.0
H1714 H 0.6323 0.26365 0.64662 0.0
H1715 H 0.6306 0.24358 0.67 0.0
H1716 H 0.6079 0.25069 0.65033 0.0
H1717 H 0.58685 0.1923 0.58782 0.0
H1718 H 0.58896 0.16868 0.62585 0.0
H1719 H 0.63249 0.20628 0.66859 0.0
C1720 C 0.62712 0.2594 0.58574 0.0
C1721 C 0.61701 0.26325 0.56046 0.0
C1722 C 0.60359 0.24905 0.54907 0.0
C1723 C 0.6 0.23148 0.56288 0.0
C1724 C 0.61002 0.22831 0.58798 0.0
C1725 C 0.62342 0.24188 0.59916 0.0
C1726 C 0.63201 0.23529 0.62659 0.0
C1727 C 0.65605 0.23308 0.6254 0.0
C1728 C 0.6253 0.24912 0.64974 0.0
C1729 C 0.6213 0.2159 0.62931 0.0
C1730 C 0.60864 0.21207 0.60691 0.0
C1731 C 0.59681 0.19516 0.60535 0.0
C1732 C 0.59801 0.18186 0.62716 0.0
C1733 C 0.61099 0.18548 0.65025 0.0
C1734 C 0.62273 0.2028 0.65111 0.0
H1735 H 0.02338 0.40229 0.85916 0.0
H1736 H 0.02893 0.35783 0.7967 0.0
H1737 H 0.06054 0.34508 0.81993 0.0
H1738 H 0.08021 0.41009 0.86856 0.0
H1739 H 0.07751 0.41382 0.90505 0.0
H1740 H 0.05633 0.4203 0.88229 0.0
H1741 H 0.03089 0.39861 0.91019 0.0
H1742 H 0.05196 0.39204 0.93295 0.0
H1743 H 0.03734 0.37352 0.91537 0.0
H1744 H 0.08932 0.33514 0.85275 0.0
H1745 H 0.11392 0.32979 0.8913 0.0
H1746 H 0.09053 0.38158 0.93114 0.0
C1747 C 0.0314 0.39004 0.8501 0.0
C1748 C 0.02365 0.38108 0.82606 0.0
C1749 C 0.0346 0.36502 0.815 0.0
C1750 C 0.05258 0.35766 0.82807 0.0
C1751 C 0.05958 0.36666 0.85199 0.0
C1752 C 0.04946 0.38263 0.86273 0.0
C1753 C 0.05968 0.38921 0.88923 0.0
C1754 C 0.06899 0.40956 0.88608 0.0
C1755 C 0.04404 0.38828 0.91335 0.0
C1756 C 0.07683 0.37416 0.89211 0.0
C1757 C 0.07654 0.36128 0.87041 0.0
C1758 C 0.08993 0.34533 0.86958 0.0
C1759 C 0.10382 0.34239 0.89158 0.0
C1760 C 0.10436 0.35541 0.91402 0.0
C1761 C 0.09085 0.37163 0.91398 0.0
H1762 H 0.93914 0.76451 0.07674 0.0
H1763 H 0.8722 0.75248 0.07354 0.0
H1764 H 0.86543 0.78 0.1044 0.0
H1765 H 0.94092 0.77765 0.14757 0.0
H1766 H 0.95989 0.79669 0.14295 0.0
H1767 H 0.95962 0.77645 0.11974 0.0
H1768 H 0.95569 0.7997 0.07837 0.0
H1769 H 0.95609 0.82003 0.10147 0.0
H1770 H 0.93444 0.81694 0.07804 0.0
H1771 H 0.86588 0.80794 0.13695 0.0
H1772 H 0.87337 0.83512 0.16791 0.0
H1773 H 0.93995 0.82977 0.14944 0.0
C1774 C 0.92304 0.76775 0.08232 0.0
C1775 C 0.9062 0.75628 0.07262 0.0
C1776 C 0.88538 0.76101 0.08061 0.0
C1777 C 0.88136 0.77663 0.09818 0.0
C1778 C 0.8983 0.78747 0.1076 0.0
C1779 C 0.91872 0.78334 0.09987 0.0
C1780 C 0.93407 0.7972 0.11327 0.0
C1781 C 0.94953 0.78635 0.13199 0.0
C1782 C 0.94576 0.80918 0.09149 0.0
C1783 C 0.91907 0.80964 0.12987 0.0
C1784 C 0.89853 0.80376 0.12627 0.0
C1785 C 0.8819 0.8128 0.13974 0.0
C1786 C 0.88633 0.82835 0.15723 0.0
C1787 C 0.90726 0.83484 0.16115 0.0
C1788 C 0.9238 0.82521 0.14721 0.0
H1789 H 0.45828 0.67534 0.46162 0.0
H1790 H 0.40111 0.67578 0.41323 0.0
H1791 H 0.42115 0.66386 0.37291 0.0
H1792 H 0.49283 0.69155 0.4095 0.0
H1793 H 0.51435 0.67629 0.41989 0.0
H1794 H 0.49533 0.68422 0.44489 0.0
H1795 H 0.48768 0.64869 0.4583 0.0
H1796 H 0.50684 0.64064 0.43354 0.0
H1797 H 0.48029 0.63167 0.43202 0.0
H1798 H 0.44873 0.65381 0.33673 0.0
H1799 H 0.48021 0.64377 0.30999 0.0
H1800 H 0.51823 0.64898 0.38348 0.0
C1801 C 0.44989 0.67278 0.44263 0.0
C1802 C 0.42811 0.6765 0.44058 0.0
C1803 C 0.41776 0.6729 0.41534 0.0
C1804 C 0.42905 0.66623 0.39229 0.0
C1805 C 0.45062 0.66304 0.39492 0.0
C1806 C 0.46082 0.66596 0.41963 0.0
C1807 C 0.48402 0.66143 0.41737 0.0
C1808 C 0.49741 0.67945 0.42326 0.0
C1809 C 0.49005 0.64461 0.43643 0.0
C1810 C 0.48541 0.65562 0.38748 0.0
C1811 C 0.46608 0.65676 0.37467 0.0
C1812 C 0.46387 0.65269 0.34669 0.0
C1813 C 0.48182 0.64708 0.33163 0.0
C1814 C 0.50161 0.6454 0.34469 0.0
C1815 C 0.50328 0.64984 0.37294 0.0
H1816 H 0.39987 0.18663 0.17667 0.0
H1817 H 0.46664 0.19683 0.1658 0.0
H1818 H 0.45876 0.22097 0.12984 0.0
H1819 H 0.38496 0.19222 0.10497 0.0
H1820 H 0.36057 0.20415 0.11326 0.0
H1821 H 0.37162 0.1868 0.13675 0.0
H1822 H 0.3709 0.21236 0.17564 0.0
H1823 H 0.35986 0.22977 0.15231 0.0
H1824 H 0.3838 0.23524 0.17046 0.0
H1825 H 0.44333 0.2455 0.09721 0.0
H1826 H 0.42174 0.26788 0.06966 0.0
H1827 H 0.36509 0.24181 0.10266 0.0
C1828 C 0.41287 0.1939 0.16675 0.0
C1829 C 0.4339 0.18984 0.17413 0.0
C1830 C 0.45043 0.19952 0.16031 0.0
C1831 C 0.44609 0.21331 0.13994 0.0
C1832 C 0.42515 0.21715 0.13352 0.0
C1833 C 0.40882 0.20763 0.14642 0.0
C1834 C 0.38768 0.21477 0.13641 0.0
C1835 C 0.3755 0.19851 0.12199 0.0
C1836 C 0.37481 0.22356 0.16012 0.0
C1837 C 0.39463 0.23006 0.11618 0.0
C1838 C 0.4163 0.23117 0.11471 0.0
C1839 C 0.42636 0.24468 0.09809 0.0
C1840 C 0.41395 0.25743 0.08267 0.0
C1841 C 0.3917 0.25663 0.08399 0.0
C1842 C 0.38202 0.24261 0.10085 0.0
H1843 H 0.50052 0.67786 0.84634 0.0
H1844 H 0.50719 0.61598 0.83504 0.0
H1845 H 0.53853 0.61615 0.86483 0.0
H1846 H 0.55664 0.6893 0.84825 0.0
H1847 H 0.55344 0.70745 0.87447 0.0
H1848 H 0.53239 0.70268 0.85071 0.0
H1849 H 0.50717 0.69631 0.89156 0.0
H1850 H 0.52817 0.7009 0.91543 0.0
H1851 H 0.51405 0.67837 0.91684 0.0
H1852 H 0.56806 0.62269 0.89734 0.0
H1853 H 0.59406 0.63515 0.93027 0.0
H1854 H 0.56826 0.69282 0.92093 0.0
C1855 C 0.50877 0.6644 0.84975 0.0
C1856 C 0.50147 0.64691 0.8382 0.0
C1857 C 0.51251 0.62955 0.84359 0.0
C1858 C 0.53034 0.6295 0.86048 0.0
C1859 C 0.5369 0.64692 0.87191 0.0
C1860 C 0.52651 0.66406 0.86675 0.0
C1861 C 0.53633 0.68063 0.88254 0.0
C1862 C 0.54524 0.69592 0.86281 0.0
C1863 C 0.52048 0.68957 0.90279 0.0
C1864 C 0.55375 0.67007 0.89754 0.0
C1865 C 0.55384 0.65066 0.89098 0.0
C1866 C 0.56826 0.63789 0.90247 0.0
C1867 C 0.58305 0.64514 0.92109 0.0
C1868 C 0.58335 0.665 0.92816 0.0
C1869 C 0.5684 0.67756 0.91617 0.0
H1870 H 0.11022 0.8502 0.67866 0.0
H1871 H 0.0443 0.84139 0.65984 0.0
H1872 H 0.05392 0.81565 0.62707 0.0
H1873 H 0.13013 0.84214 0.60944 0.0
H1874 H 0.15338 0.82974 0.62111 0.0
H1875 H 0.14133 0.84793 0.64242 0.0
H1876 H 0.13836 0.82329 0.6823 0.0
H1877 H 0.15037 0.80503 0.66111 0.0
H1878 H 0.12506 0.80068 0.67659 0.0
H1879 H 0.07065 0.79033 0.59714 0.0
H1880 H 0.09328 0.76722 0.5723 0.0
H1881 H 0.14829 0.7923 0.61097 0.0
C1882 C 0.09783 0.84306 0.66736 0.0
C1883 C 0.07648 0.84783 0.67187 0.0
C1884 C 0.06073 0.83786 0.657 0.0
C1885 C 0.06605 0.82329 0.63821 0.0
C1886 C 0.08721 0.81883 0.63447 0.0
C1887 C 0.10286 0.82842 0.6486 0.0
C1888 C 0.12436 0.82043 0.64138 0.0
C1889 C 0.13811 0.83599 0.62777 0.0
C1890 C 0.13516 0.81185 0.66686 0.0
C1891 C 0.11834 0.80482 0.62106 0.0
C1892 C 0.09684 0.80417 0.61732 0.0
C1893 C 0.08752 0.79072 0.59989 0.0
C1894 C 0.10051 0.77756 0.58599 0.0
C1895 C 0.12262 0.77785 0.58961 0.0
C1896 C 0.13154 0.7918 0.60735 0.0
H1897 H 0.96272 0.37365 0.44825 0.0
H1898 H 0.93562 0.32649 0.40169 0.0
H1899 H 0.96284 0.33092 0.36577 0.0
H1900 H 0.9762 0.40386 0.39058 0.0
H1901 H 1.00033 0.41214 0.40592 0.0
H1902 H 0.9785 0.40534 0.42743 0.0
H1903 H 1.00221 0.38085 0.45317 0.0
H1904 H 0.02412 0.38763 0.43183 0.0
H1905 H 0.0162 0.36269 0.43386 0.0
H1906 H 0.99348 0.34084 0.33493 0.0
H1907 H 0.02569 0.35405 0.31341 0.0
H1908 H 0.03201 0.39457 0.38091 0.0
C1909 C 0.96229 0.36439 0.43036 0.0
C1910 C 0.94693 0.34981 0.42768 0.0
C1911 C 0.94731 0.33768 0.40424 0.0
C1912 C 0.96262 0.34018 0.38367 0.0
C1913 C 0.97745 0.35483 0.38694 0.0
C1914 C 0.97743 0.36664 0.40982 0.0
C1915 C 0.99536 0.38093 0.40903 0.0
C1916 C 0.9871 0.4018 0.40818 0.0
C1917 C 0.01035 0.37783 0.43341 0.0
C1918 C 1.00559 0.37533 0.38215 0.0
C1919 C 0.99501 0.36034 0.36955 0.0
C1920 C 1.00184 0.35261 0.34462 0.0
C1921 C 0.02011 0.36024 0.33251 0.0
C1922 C 0.03138 0.37536 0.34545 0.0
C1923 C 0.02378 0.38305 0.37043 0.0
H1924 H 0.40737 0.84611 0.36052 0.0
H1925 H 0.46536 0.82019 0.33104 0.0
H1926 H 0.45929 0.7921 0.36107 0.0
H1927 H 0.41142 0.83033 0.43025 0.0
H1928 H 0.38368 0.82572 0.43397 0.0
H1929 H 0.39268 0.84393 0.41033 0.0
H1930 H 0.37265 0.82708 0.3707 0.0
H1931 H 0.36354 0.80884 0.39424 0.0
H1932 H 0.37763 0.80194 0.36361 0.0
H1933 H 0.44689 0.76677 0.39437 0.0
H1934 H 0.42912 0.74611 0.42836 0.0
H1935 H 0.37852 0.78803 0.43466 0.0
C1936 C 0.41874 0.8345 0.36011 0.0
C1937 C 0.4369 0.8355 0.34335 0.0
C1938 C 0.45149 0.82 0.34391 0.0
C1939 C 0.44812 0.80389 0.3608 0.0
C1940 C 0.43006 0.80342 0.377 0.0
C1941 C 0.41559 0.8183 0.37676 0.0
C1942 C 0.39743 0.81423 0.39605 0.0
C1943 C 0.39625 0.82946 0.41901 0.0
C1944 C 0.37658 0.81294 0.3802 0.0
C1945 C 0.40395 0.79473 0.4072 0.0
C1946 C 0.42281 0.78875 0.39596 0.0
C1947 C 0.43205 0.77125 0.4032 0.0
C1948 C 0.42172 0.75954 0.42244 0.0
C1949 C 0.40229 0.76532 0.43423 0.0
C1950 C 0.3934 0.7832 0.42636 0.0
H1951 H 0.01756 0.61414 0.16589 0.0
H1952 H 0.02528 0.66424 0.21845 0.0
H1953 H 0.99546 0.68019 0.19508 0.0
H1954 H 1.00593 0.63914 0.10518 0.0
H1955 H 0.98663 0.62212 0.0931 0.0
H1956 H 1.00754 0.61412 0.11521 0.0
H1957 H 0.9803 0.60039 0.14969 0.0
H1958 H 0.95928 0.6082 0.12755 0.0
H1959 H 0.95989 0.61592 0.1629 0.0
H1960 H 0.9669 0.69183 0.16273 0.0
H1961 H 0.93991 0.69699 0.12683 0.0
H1962 H 0.95027 0.63885 0.09682 0.0
C1963 C 0.01279 0.62835 0.1728 0.0
C1964 C 0.02375 0.63793 0.19403 0.0
C1965 C 0.01703 0.65655 0.20238 0.0
C1966 C 1.00016 0.66576 0.18915 0.0
C1967 C 0.99001 0.65606 0.16786 0.0
C1968 C 0.99589 0.63764 0.16004 0.0
C1969 C 0.98274 0.63048 0.13623 0.0
C1970 C 0.99654 0.62622 0.11094 0.0
C1971 C 0.96978 0.61269 0.1446 0.0
C1972 C 0.96878 0.64787 0.1315 0.0
C1973 C 0.97325 0.66252 0.14987 0.0
C1974 C 0.9631 0.68036 0.1485 0.0
C1975 C 0.94791 0.68321 0.12797 0.0
C1976 C 0.9429 0.66827 0.10924 0.0
C1977 C 0.95349 0.65039 0.1112 0.0
H1978 H 0.12478 0.26299 0.9136 0.0
H1979 H 0.0964 0.23876 0.98694 0.0
H1980 H 0.08245 0.21162 0.95949 0.0
H1981 H 0.08307 0.2505 0.86672 0.0
H1982 H 0.10075 0.2449 0.83886 0.0
H1983 H 0.10814 0.2625 0.86431 0.0
H1984 H 0.14224 0.24326 0.87434 0.0
H1985 H 0.13496 0.22561 0.84894 0.0
H1986 H 0.14048 0.21812 0.88365 0.0
H1987 H 0.07128 0.1872 0.92355 0.0
H1988 H 0.06548 0.16673 0.88256 0.0
H1989 H 0.10146 0.20706 0.83323 0.0
C1990 C 0.11547 0.25208 0.92385 0.0
C1991 C 0.11164 0.25303 0.95241 0.0
C1992 C 0.09971 0.23824 0.96514 0.0
C1993 C 0.0916 0.22284 0.94968 0.0
C1994 C 0.09566 0.22238 0.92155 0.0
C1995 C 0.10742 0.23657 0.90879 0.0
C1996 C 0.11 0.2325 0.87843 0.0
C1997 C 0.09988 0.24856 0.86106 0.0
C1998 C 0.1333 0.22971 0.87091 0.0
C1999 C 0.0979 0.21378 0.87607 0.0
C2000 C 0.0896 0.20822 0.90109 0.0
C2001 C 0.07772 0.19142 0.90386 0.0
C2002 C 0.07441 0.17993 0.88047 0.0
C2003 C 0.0831 0.18523 0.85474 0.0
C2004 C 0.09487 0.20246 0.85266 0.0
H2005 H 0.56587 0.36849 0.60093 0.0
H2006 H 0.57245 0.30637 0.60742 0.0
H2007 H 0.54625 0.30597 0.645 0.0
H2008 H 0.55816 0.37838 0.6742 0.0
H2009 H 0.53885 0.39694 0.66805 0.0
H2010 H 0.55928 0.39251 0.64312 0.0
H2011 H 0.53114 0.38729 0.60541 0.0
H2012 H 0.51067 0.39175 0.63017 0.0
H2013 H 0.51077 0.3696 0.61074 0.0
H2014 H 0.51856 0.31221 0.68059 0.0
H2015 H 0.48968 0.32421 0.70977 0.0
H2016 H 0.50042 0.38234 0.67942 0.0
C2017 C 0.56202 0.35488 0.61061 0.0
C2018 C 0.57121 0.33746 0.60142 0.0
C2019 C 0.56546 0.31984 0.61408 0.0
C2020 C 0.55074 0.3195 0.63555 0.0
C2021 C 0.54185 0.33692 0.64401 0.0
C2022 C 0.54717 0.35427 0.63185 0.0
C2023 C 0.53431 0.37076 0.64359 0.0
C2024 C 0.5485 0.38552 0.65811 0.0
C2025 C 0.52093 0.38041 0.62114 0.0
C2026 C 0.52074 0.35993 0.66401 0.0
C2027 C 0.52554 0.34047 0.66416 0.0
C2028 C 0.51474 0.32744 0.68077 0.0
C2029 C 0.49837 0.33442 0.69732 0.0
C2030 C 0.49278 0.35424 0.69697 0.0
C2031 C 0.50437 0.36715 0.68032 0.0
H2032 H 0.0913 0.47667 0.31428 0.0
H2033 H 0.08704 0.44451 0.23792 0.0
H2034 H 0.08344 0.475 0.21236 0.0
H2035 H 0.05432 0.51483 0.29579 0.0
H2036 H 0.06928 0.53347 0.31262 0.0
H2037 H 0.0702 0.50904 0.3253 0.0
H2038 H 0.11078 0.50906 0.3208 0.0
H2039 H 0.10999 0.53348 0.30817 0.0
H2040 H 0.12266 0.51489 0.28818 0.0
H2041 H 0.08254 0.50883 0.19466 0.0
H2042 H 0.08411 0.54389 0.18603 0.0
H2043 H 0.0891 0.5545 0.27356 0.0
C2044 C 0.08959 0.476 0.2922 0.0
C2045 C 0.08938 0.45806 0.2782 0.0
C2046 C 0.08692 0.45793 0.24926 0.0
C2047 C 0.08496 0.47522 0.2345 0.0
C2048 C 0.08538 0.49259 0.24892 0.0
C2049 C 0.08756 0.49314 0.27712 0.0
C2050 C 0.0882 0.51379 0.28751 0.0
C2051 C 0.06938 0.51803 0.30642 0.0
C2052 C 0.10915 0.51805 0.30202 0.0
C2053 C 0.08643 0.52476 0.26065 0.0
C2054 C 0.08473 0.51221 0.23868 0.0
C2055 C 0.08374 0.5188 0.2117 0.0
C2056 C 0.08476 0.53873 0.20699 0.0
C2057 C 0.08674 0.55191 0.2291 0.0
C2058 C 0.08728 0.54478 0.25631 0.0
H2059 H 0.79935 0.80903 0.56971 0.0
H2060 H 0.82331 0.83731 0.49653 0.0
H2061 H 0.7869 0.84428 0.48182 0.0
H2062 H 0.75642 0.78603 0.53747 0.0
H2063 H 0.7388 0.78882 0.56624 0.0
H2064 H 0.7667 0.78742 0.5719 0.0
H2065 H 0.76558 0.82006 0.59789 0.0
H2066 H 0.73764 0.82157 0.59227 0.0
H2067 H 0.75452 0.84098 0.58126 0.0
H2068 H 0.74749 0.84692 0.47418 0.0
H2069 H 0.70876 0.84391 0.4735 0.0
H2070 H 0.71091 0.81348 0.5514 0.0
C2071 C 0.79699 0.81692 0.55075 0.0
C2072 C 0.81425 0.82272 0.53436 0.0
C2073 C 0.81038 0.83275 0.50949 0.0
C2074 C 0.78974 0.83682 0.50099 0.0
C2075 C 0.77309 0.83075 0.51755 0.0
C2076 C 0.77652 0.82098 0.54189 0.0
C2077 C 0.75597 0.81514 0.55527 0.0
C2078 C 0.75439 0.79304 0.55786 0.0
C2079 C 0.75327 0.82503 0.58334 0.0
C2080 C 0.74041 0.82292 0.5345 0.0
C2081 C 0.75055 0.83204 0.513 0.0
C2082 C 0.7394 0.8399 0.49101 0.0
C2083 C 0.71738 0.83815 0.49082 0.0
C2084 C 0.70672 0.82849 0.5124 0.0
C2085 C 0.7185 0.82103 0.53463 0.0
H2086 H 0.42932 0.45823 0.76167 0.0
H2087 H 0.43745 0.47308 0.67569 0.0
H2088 H 0.43878 0.50753 0.68788 0.0
H2089 H 0.39612 0.49807 0.77913 0.0
H2090 H 0.4074 0.50188 0.81263 0.0
H2091 H 0.40771 0.47814 0.79751 0.0
H2092 H 0.44815 0.47657 0.80312 0.0
H2093 H 0.44795 0.50026 0.81841 0.0
H2094 H 0.46421 0.4955 0.7888 0.0
H2095 H 0.43825 0.54032 0.70875 0.0
H2096 H 0.43644 0.56959 0.73719 0.0
H2097 H 0.42947 0.53414 0.81025 0.0
C2098 C 0.43163 0.46872 0.74548 0.0
C2099 C 0.43313 0.46288 0.71765 0.0
C2100 C 0.4359 0.47713 0.69706 0.0
C2101 C 0.43681 0.49677 0.70379 0.0
C2102 C 0.43497 0.50205 0.73128 0.0
C2103 C 0.43252 0.4885 0.75185 0.0
C2104 C 0.43058 0.49823 0.77972 0.0
C2105 C 0.40918 0.49381 0.79303 0.0
C2106 C 0.44881 0.49228 0.79863 0.0
C2107 C 0.43222 0.51933 0.77149 0.0
C2108 C 0.43479 0.52114 0.74344 0.0
C2109 C 0.43643 0.5391 0.73079 0.0
C2110 C 0.4355 0.55569 0.74722 0.0
C2111 C 0.43298 0.55434 0.77612 0.0
C2112 C 0.43127 0.5358 0.78828 0.0
H2113 H 0.80045 0.20791 0.95263 0.0
H2114 H 0.82319 0.17148 0.01876 0.0
H2115 H 0.78674 0.1674 0.0355 0.0
H2116 H 0.76213 0.23266 0.99174 0.0
H2117 H 0.74322 0.23406 0.96429 0.0
H2118 H 0.77085 0.23293 0.95648 0.0
H2119 H 0.76455 0.20287 0.92589 0.0
H2120 H 0.73687 0.20393 0.93356 0.0
H2121 H 0.75143 0.1821 0.94017 0.0
H2122 H 0.74751 0.16853 0.04615 0.0
H2123 H 0.70936 0.17512 0.04995 0.0
H2124 H 0.71283 0.21113 0.97711 0.0
C2125 C 0.79779 0.19885 0.97042 0.0
C2126 C 0.81474 0.18992 0.98427 0.0
C2127 C 0.8105 0.17841 1.00771 0.0
C2128 C 0.78982 0.176 0.01738 0.0
C2129 C 0.77351 0.18519 1.00341 0.0
C2130 C 0.7773 0.19637 0.9804 0.0
C2131 C 0.75721 0.20539 0.96974 0.0
C2132 C 0.75843 0.22757 0.97063 0.0
C2133 C 0.75223 0.19813 0.94061 0.0
C2134 C 0.74153 0.19774 0.99048 0.0
C2135 C 0.75116 0.186 1.00966 0.0
C2136 C 0.73982 0.17762 0.03114 0.0
C2137 C 0.71814 0.18144 0.03313 0.0
C2138 C 0.70802 0.19363 0.01385 0.0
C2139 C 0.71999 0.20171 0.99219 0.0
H2140 H 0.95799 0.476 0.81205 0.0
H2141 H 0.97466 0.45814 0.72946 0.0
H2142 H 0.98097 0.49238 0.71688 0.0
H2143 H 0.93043 0.51929 0.79355 0.0
H2144 H 0.93977 0.53256 0.82294 0.0
H2145 H 0.93668 0.50676 0.82496 0.0
H2146 H 0.97564 0.50322 0.83967 0.0
H2147 H 0.97883 0.529 0.83781 0.0
H2148 H 0.99601 0.51342 0.81838 0.0
H2149 H 0.98489 0.52946 0.71376 0.0
H2150 H 0.98832 0.56477 0.7214 0.0
H2151 H 0.96843 0.55712 0.8059 0.0
C2152 C 0.96276 0.47921 0.7912 0.0
C2153 C 0.96565 0.46435 0.77168 0.0
C2154 C 0.97244 0.46926 0.74482 0.0
C2155 C 0.97592 0.48868 0.73746 0.0
C2156 C 0.97261 0.50299 0.75723 0.0
C2157 C 0.96631 0.49838 0.78361 0.0
C2158 C 0.96422 0.51617 0.8014 0.0
C2159 C 0.94142 0.51885 0.81129 0.0
C2160 C 0.97959 0.5154 0.82574 0.0
C2161 C 0.97037 0.53161 0.78101 0.0
C2162 C 0.97506 0.52388 0.75556 0.0
C2163 C 0.98124 0.53561 0.73364 0.0
C2164 C 0.98302 0.55566 0.73809 0.0
C2165 C 0.97878 0.56371 0.76429 0.0
C2166 C 0.97209 0.55143 0.78575 0.0
H2167 H 0.30905 0.16109 0.51432 0.0
H2168 H 0.32123 0.22188 0.52835 0.0
H2169 H 0.28323 0.22881 0.52328 0.0
H2170 H 0.26915 0.1672 0.46357 0.0
H2171 H 0.25383 0.14697 0.47548 0.0
H2172 H 0.28189 0.14711 0.48024 0.0
H2173 H 0.2767 0.14202 0.53259 0.0
H2174 H 0.24862 0.14191 0.528 0.0
H2175 H 0.26049 0.15865 0.55169 0.0
H2176 H 0.24313 0.22866 0.51724 0.0
H2177 H 0.20555 0.22163 0.50831 0.0
H2178 H 0.22061 0.1609 0.49922 0.0
C2179 C 0.30379 0.17586 0.51658 0.0
C2180 C 0.31818 0.19092 0.52189 0.0
C2181 C 0.31057 0.21011 0.52407 0.0
C2182 C 0.28898 0.21416 0.5214 0.0
C2183 C 0.27522 0.19887 0.51646 0.0
C2184 C 0.28242 0.18012 0.51394 0.0
C2185 C 0.26464 0.16622 0.50825 0.0
C2186 C 0.26756 0.1563 0.48022 0.0
C2187 C 0.26249 0.15133 0.53152 0.0
C2188 C 0.24624 0.18004 0.50792 0.0
C2189 C 0.25253 0.19881 0.51281 0.0
C2190 C 0.23808 0.21399 0.51339 0.0
C2191 C 0.21675 0.20986 0.50848 0.0
C2192 C 0.21011 0.19073 0.5029 0.0
C2193 C 0.22515 0.17571 0.50298 0.0
H2194 H 0.54504 0.53903 0.30609 0.0
H2195 H 0.55813 0.56744 0.22849 0.0
H2196 H 0.55627 0.53601 0.20473 0.0
H2197 H 0.57505 0.49553 0.29277 0.0
H2198 H 0.55638 0.47984 0.30945 0.0
H2199 H 0.55905 0.50453 0.32058 0.0
H2200 H 0.51924 0.51011 0.31277 0.0
H2201 H 0.51643 0.48543 0.30175 0.0
H2202 H 0.50799 0.50481 0.27965 0.0
H2203 H 0.55321 0.50172 0.18944 0.0
H2204 H 0.54715 0.46696 0.18286 0.0
H2205 H 0.53542 0.46035 0.27021 0.0
C2206 C 0.5477 0.53862 0.28413 0.0
C2207 C 0.55178 0.55576 0.26915 0.0
C2208 C 0.55477 0.5546 0.24036 0.0
C2209 C 0.55391 0.53678 0.22672 0.0
C2210 C 0.54996 0.5202 0.24213 0.0
C2211 C 0.54677 0.52095 0.27017 0.0
C2212 C 0.54218 0.50101 0.28171 0.0
C2213 C 0.55918 0.49487 0.30235 0.0
C2214 C 0.52015 0.5003 0.29473 0.0
C2215 C 0.54323 0.48895 0.25573 0.0
C2216 C 0.54787 0.50035 0.23321 0.0
C2217 C 0.54947 0.49267 0.20689 0.0
C2218 C 0.54588 0.47288 0.20336 0.0
C2219 C 0.54059 0.46089 0.22596 0.0
C2220 C 0.53959 0.46906 0.25257 0.0
H2221 H 0.2148 0.81852 0.96396 0.0
H2222 H 0.20467 0.79918 0.04765 0.0
H2223 H 0.24299 0.80134 0.0563 0.0
H2224 H 0.26192 0.79228 0.95195 0.0
H2225 H 0.27382 0.81101 0.93149 0.0
H2226 H 0.24565 0.80869 0.93262 0.0
H2227 H 0.24231 0.84431 0.94845 0.0
H2228 H 0.27047 0.84677 0.94726 0.0
H2229 H 0.25641 0.85226 0.97848 0.0
H2230 H 0.28328 0.80435 0.05456 0.0
H2231 H 0.32086 0.8097 0.04346 0.0
H2232 H 0.30355 0.82639 0.96066 0.0
C2233 C 0.22057 0.81468 0.98412 0.0
C2234 C 0.20669 0.80857 1.00508 0.0
C2235 C 0.21495 0.80405 0.03133 0.0
C2236 C 0.23672 0.80512 0.03636 0.0
C2237 C 0.24998 0.81085 0.01498 0.0
C2238 C 0.24211 0.81569 0.98945 0.0
C2239 C 0.25946 0.82131 0.96974 0.0
C2240 C 0.26025 0.80749 0.945 0.0
C2241 C 0.25702 0.84241 0.96045 0.0
C2242 C 0.27844 0.81877 0.98804 0.0
C2243 C 0.27276 0.8127 0.01406 0.0
C2244 C 0.28783 0.80917 0.03426 0.0
C2245 C 0.30916 0.81212 0.02772 0.0
C2246 C 0.31523 0.81859 1.00124 0.0
C2247 C 0.29952 0.82179 0.98124 0.0
H2248 H 0.58605 0.98158 0.80942 0.0
H2249 H 0.59481 0.94693 0.73593 0.0
H2250 H 0.59712 0.9766 0.7082 0.0
H2251 H 0.55471 0.01925 0.77801 0.0
H2252 H 0.56659 0.03836 0.79775 0.0
H2253 H 0.56485 0.01436 0.81187 0.0
H2254 H 0.6051 0.01406 0.81973 0.0
H2255 H 0.60696 0.03805 0.8057 0.0
H2256 H 0.62251 0.01879 0.79125 0.0
H2257 H 0.59976 0.00999 0.68853 0.0
H2258 H 0.60223 0.04474 0.6782 0.0
H2259 H 0.59229 0.05805 0.76435 0.0
C2260 C 0.58852 0.98016 0.78753 0.0
C2261 C 0.59019 0.96175 0.77496 0.0
C2262 C 0.59317 0.96072 0.74612 0.0
C2263 C 0.59462 0.97755 0.73016 0.0
C2264 C 0.59301 0.99539 0.74324 0.0
C2265 C 0.58999 0.99683 0.77126 0.0
C2266 C 0.58911 0.01781 0.78025 0.0
C2267 C 0.56753 0.02273 0.7927 0.0
C2268 C 0.60699 0.02245 0.80042 0.0
C2269 C 0.59232 0.02794 0.75292 0.0
C2270 C 0.5945 0.0147 0.73186 0.0
C2271 C 0.59806 0.02048 0.70486 0.0
C2272 C 0.59958 0.04029 0.69922 0.0
C2273 C 0.59755 0.05421 0.72044 0.0
C2274 C 0.59369 0.04784 0.74763 0.0
H2275 H 0.28974 0.34299 0.06386 0.0
H2276 H 0.31486 0.32699 0.98404 0.0
H2277 H 0.27918 0.3283 0.96443 0.0
H2278 H 0.24269 0.31588 0.05986 0.0
H2279 H 0.2265 0.33373 0.07662 0.0
H2280 H 0.25414 0.33239 0.08424 0.0
H2281 H 0.25848 0.3684 0.07106 0.0
H2282 H 0.23082 0.36988 0.06347 0.0
H2283 H 0.24988 0.37656 0.03775 0.0
H2284 H 0.24038 0.32873 0.95425 0.0
H2285 H 0.20155 0.33049 0.95366 0.0
H2286 H 0.2017 0.34791 0.03928 0.0
C2287 C 0.28777 0.33995 0.0422 0.0
C2288 C 0.30517 0.33487 0.02553 0.0
C2289 C 0.30186 0.33099 0.99726 0.0
C2290 C 0.28161 0.33166 0.9859 0.0
C2291 C 0.26479 0.33647 1.00295 0.0
C2292 C 0.26767 0.34078 0.03042 0.0
C2293 C 0.24687 0.34535 0.04428 0.0
C2294 C 0.24229 0.33098 0.06763 0.0
C2295 C 0.2465 0.36629 0.05475 0.0
C2296 C 0.23184 0.34261 0.02045 0.0
C2297 C 0.24249 0.33741 0.99682 0.0
C2298 C 0.23189 0.33306 0.97253 0.0
C2299 C 0.20984 0.33405 0.9724 0.0
C2300 C 0.19861 0.33955 0.9963 0.0
C2301 C 0.20985 0.34401 0.02054 0.0
H2302 H 0.93501 0.03544 0.30863 0.0
H2303 H 0.92069 0.06854 0.23535 0.0
H2304 H 0.92359 0.03894 0.20736 0.0
H2305 H 0.97327 1.00407 0.277 0.0
H2306 H 0.96558 0.98308 0.29644 0.0
H2307 H 0.96211 1.00682 0.31085 0.0
H2308 H 0.92255 0.99978 0.31844 0.0
H2309 H 0.92589 0.97603 0.30397 0.0
H2310 H 0.90662 0.99229 0.28977 0.0
H2311 H 0.92729 1.00587 0.18748 0.0
H2312 H 0.93324 0.97177 0.17627 0.0
H2313 H 0.94644 0.95972 0.26213 0.0
C2314 C 0.93234 0.03642 0.28673 0.0
C2315 C 0.92759 0.05436 0.27418 0.0
C2316 C 0.92455 0.05506 0.24538 0.0
C2317 C 0.92603 0.03829 0.22934 0.0
C2318 C 0.93069 0.02088 0.24235 0.0
C2319 C 0.93394 0.01981 0.27035 0.0
C2320 C 0.93922 0.99931 0.27902 0.0
C2321 C 0.96136 0.99827 0.29157 0.0
C2322 C 0.92258 0.99139 0.29898 0.0
C2323 C 0.93835 0.98902 0.25152 0.0
C2324 C 0.9333 1.00177 0.23072 0.0
C2325 C 0.93143 0.99578 0.20357 0.0
C2326 C 0.93501 0.9763 0.19739 0.0
C2327 C 0.94062 0.96288 0.21819 0.0
C2328 C 0.94211 0.96945 0.2457 0.0
H2329 H 0.30317 0.71356 0.45919 0.0
H2330 H 0.32401 0.67877 0.52814 0.0
H2331 H 0.28716 0.6756 0.54379 0.0
H2332 H 0.26468 0.7399 0.49543 0.0
H2333 H 0.24627 0.7408 0.46736 0.0
H2334 H 0.274 0.73899 0.46046 0.0
H2335 H 0.26764 0.70815 0.4315 0.0
H2336 H 0.23985 0.7099 0.43824 0.0
H2337 H 0.25385 0.68804 0.4466 0.0
H2338 H 0.24788 0.67773 0.55317 0.0
H2339 H 0.20987 0.68515 0.55556 0.0
H2340 H 0.2152 0.71884 0.48069 0.0
C2341 C 0.30001 0.70502 0.47736 0.0
C2342 C 0.31654 0.69632 0.49234 0.0
C2343 C 0.31165 0.68551 0.51624 0.0
C2344 C 0.29075 0.68362 0.52528 0.0
C2345 C 0.27488 0.69262 0.51023 0.0
C2346 C 0.27929 0.70307 0.48673 0.0
C2347 C 0.25958 0.71209 0.47492 0.0
C2348 C 0.26124 0.73426 0.47453 0.0
C2349 C 0.25496 0.70406 0.44611 0.0
C2350 C 0.24339 0.70532 0.49561 0.0
C2351 C 0.25246 0.69399 0.51574 0.0
C2352 C 0.24062 0.68649 0.53741 0.0
C2353 C 0.21903 0.69079 0.5386 0.0
C2354 C 0.20948 0.70256 0.51832 0.0
C2355 C 0.22192 0.70974 0.49649 0.0
H2356 H 0.47011 0.06067 0.27448 0.0
H2357 H 0.46097 0.05556 0.18664 0.0
H2358 H 0.46577 0.02021 0.18976 0.0
H2359 H 0.50906 0.02131 0.2819 0.0
H2360 H 0.49814 0.01322 0.31409 0.0
H2361 H 0.49634 0.0383 0.30454 0.0
H2362 H 0.45591 0.03703 0.31068 0.0
H2363 H 0.45758 0.01195 0.32012 0.0
H2364 H 0.44096 0.01925 0.29202 0.0
H2365 H 0.46951 0.98539 0.20266 0.0
H2366 H 0.47029 0.95332 0.22471 0.0
H2367 H 0.47611 0.98068 0.30454 0.0
C2368 C 0.4696 0.05207 0.25592 0.0
C2369 C 0.46533 0.06075 0.23029 0.0
C2370 C 0.4642 0.04909 0.20644 0.0
C2371 C 0.46701 0.02906 0.20801 0.0
C2372 C 0.47081 0.02085 0.23364 0.0
C2373 C 0.47206 0.03195 0.25721 0.0
C2374 C 0.47466 0.01933 0.28244 0.0
C2375 C 0.49581 0.02327 0.29657 0.0
C2376 C 0.45617 0.02205 0.30249 0.0
C2377 C 0.47432 0.99944 0.26938 0.0
C2378 C 0.4724 1.00067 0.24119 0.0
C2379 C 0.4712 0.98424 0.22472 0.0
C2380 C 0.47175 0.96606 0.23742 0.0
C2381 C 0.47327 0.96442 0.26636 0.0
C2382 C 0.47479 0.98141 0.28241 0.0
H2383 H 0.80509 0.69448 0.97745 0.0
H2384 H 0.81574 0.69846 0.06519 0.0
H2385 H 0.77743 0.70283 0.07266 0.0
H2386 H 0.76532 0.73038 0.97379 0.0
H2387 H 0.75049 0.71794 0.94773 0.0
H2388 H 0.77849 0.71456 0.94989 0.0
H2389 H 0.77311 0.67756 0.95387 0.0
H2390 H 0.74507 0.68084 0.9518 0.0
H2391 H 0.75633 0.6681 0.98053 0.0
H2392 H 0.73714 0.70648 0.06987 0.0
H2393 H 0.6998 0.71157 0.05673 0.0
H2394 H 0.71684 0.70539 0.97098 0.0
C2395 C 0.7994 0.69602 0.9983 0.0
C2396 C 0.81341 0.69595 0.02077 0.0
C2397 C 0.8053 0.69855 0.04766 0.0
C2398 C 0.78356 0.70091 0.05209 0.0
C2399 C 0.77018 0.70075 0.02938 0.0
C2400 C 0.7779 0.69851 1.00301 0.0
C2401 C 0.76055 0.69953 0.98188 0.0
C2402 C 0.76392 0.71662 0.96217 0.0
C2403 C 0.75866 0.68037 0.9661 0.0
C2404 C 0.74179 0.7028 1.00038 0.0
C2405 C 0.74749 0.70328 0.02776 0.0
C2406 C 0.73257 0.70614 0.04847 0.0
C2407 C 0.71141 0.70891 0.04089 0.0
C2408 C 0.70549 0.70903 1.01287 0.0
C2409 C 0.72093 0.70566 0.99255 0.0
H2410 H 0.06643 0.04658 0.81272 0.0
H2411 H 0.04443 0.06599 0.73312 0.0
H2412 H 0.03751 0.03208 0.7198 0.0
H2413 H 0.09224 1.0029 0.7893 0.0
H2414 H 0.08449 0.98925 0.81918 0.0
H2415 H 0.08836 0.01495 0.82175 0.0
H2416 H 0.0506 0.01892 0.84109 0.0
H2417 H 0.04664 0.99326 0.83862 0.0
H2418 H 0.02868 0.00956 0.82184 0.0
H2419 H 0.03279 0.99549 0.71564 0.0
H2420 H 0.02862 0.96018 0.72231 0.0
H2421 H 0.05374 0.96554 0.80466 0.0
C2422 C 0.06043 0.04372 0.79234 0.0
C2423 C 0.05609 0.05896 0.77391 0.0
C2424 C 0.04775 0.05457 0.74765 0.0
C2425 C 0.04391 0.03534 0.73985 0.0
C2426 C 0.04843 0.02067 0.75857 0.0
C2427 C 0.05642 0.0247 0.78433 0.0
C2428 C 0.05918 1.00652 0.80115 0.0
C2429 C 0.08245 1.00322 0.80825 0.0
C2430 C 0.04545 1.00711 0.8272 0.0
C2431 C 0.05134 0.99159 0.78097 0.0
C2432 C 0.04539 0.99992 0.75639 0.0
C2433 C 0.03745 0.98884 0.73481 0.0
C2434 C 0.03525 0.9688 0.73869 0.0
C2435 C 0.04074 0.96014 0.76403 0.0
C2436 C 0.04915 0.97176 0.78518 0.0
H2437 H 0.7066 0.34915 0.49948 0.0
H2438 H 0.69432 0.28793 0.50877 0.0
H2439 H 0.7326 0.28181 0.51222 0.0
H2440 H 0.75055 0.34465 0.45645 0.0
H2441 H 0.76446 0.36482 0.47114 0.0
H2442 H 0.7362 0.36429 0.47198 0.0
H2443 H 0.73683 0.3684 0.52492 0.0
H2444 H 0.76514 0.36894 0.52425 0.0
H2445 H 0.75166 0.35163 0.54556 0.0
H2446 H 0.77296 0.2825 0.51117 0.0
H2447 H 0.81082 0.28993 0.50538 0.0
H2448 H 0.79562 0.35068 0.49703 0.0
C2449 C 0.71188 0.33444 0.50227 0.0
C2450 C 0.6974 0.31902 0.50372 0.0
C2451 C 0.70507 0.30001 0.50784 0.0
C2452 C 0.7268 0.2964 0.50975 0.0
C2453 C 0.74064 0.31197 0.50774 0.0
C2454 C 0.73338 0.33062 0.50425 0.0
C2455 C 0.75129 0.34482 0.50154 0.0
C2456 C 0.75058 0.35525 0.47362 0.0
C2457 C 0.75122 0.3593 0.5255 0.0
C2458 C 0.76983 0.33124 0.50331 0.0
C2459 C 0.7635 0.31236 0.50717 0.0
C2460 C 0.77805 0.29728 0.50841 0.0
C2461 C 0.79954 0.30163 0.50523 0.0
C2462 C 0.80622 0.32088 0.50063 0.0
C2463 C 0.79107 0.3358 0.50018 0.0
loop_
_geom_bond_atom_site_label_1
_geom_bond_atom_site_label_2
_geom_bond_distance
_geom_bond_site_symmetry_2
_ccdc_geom_bond_type
Cu0 N1 1.999 . S
Cu0 O6 1.974 . S
Cu0 N11 1.985 . S
Cu0 O20 1.959 . S
N1 Cu0 1.999 . S
N1 C3 1.263 . S
N1 C5 1.389 . S
N2 C3 1.358 . S
N2 C4 1.400 . S
C3 N1 1.263 . S
C3 N2 1.358 . S
C3 H9 0.930 . S
C4 N2 1.400 . S
C4 C5 1.351 . S
C4 H21 0.930 . S
C5 N1 1.389 . S
C5 C4 1.351 . S
C5 H10 0.930 . S
O6 Cu0 1.974 . S
O6 C16 1.282 . S
C7 O8 1.261 . S
C7 O20 1.251 . S
O8 C7 1.261 . S
H9 C3 0.930 . S
H10 C5 0.930 . S
N11 Cu0 1.985 . S
N11 C13 1.335 . S
N11 C14 1.390 . S
N12 C13 1.345 . S
N12 C15 1.336 . S
C13 N11 1.335 . S
C13 N12 1.345 . S
C13 H18 0.930 . S
C14 N11 1.390 . S
C14 C15 1.346 . S
C14 H19 0.930 . S
C15 N12 1.336 . S
C15 C14 1.346 . S
C15 H22 0.929 . S
C16 O6 1.282 . S
C16 O17 1.216 . S
O17 C16 1.216 . S
H18 C13 0.930 . S
H19 C14 0.930 . S
O20 Cu0 1.959 . S
O20 C7 1.251 . S
H21 C4 0.930 . S
H22 C15 0.929 . S
Cu23 N24 1.999 . S
Cu23 O29 1.974 . S
Cu23 N34 1.985 . S
Cu23 O43 1.959 . S
N24 Cu23 1.999 . S
N24 C26 1.263 . S
N24 C28 1.389 . S
N25 C26 1.358 . S
N25 C27 1.400 . S
C26 N24 1.263 . S
C26 N25 1.358 . S
C26 H32 0.930 . S
C27 N25 1.400 . S
C27 C28 1.351 . S
C27 H44 0.930 . S
C28 N24 1.389 . S
C28 C27 1.351 . S
C28 H33 0.930 . S
O29 Cu23 1.974 . S
O29 C39 1.282 . S
C30 O31 1.261 . S
C30 O43 1.251 . S
O31 C30 1.261 . S
H32 C26 0.930 . S
H33 C28 0.930 . S
N34 Cu23 1.985 . S
N34 C36 1.335 . S
N34 C37 1.390 . S
N35 C36 1.345 . S
N35 C38 1.336 . S
C36 N34 1.335 . S
C36 N35 1.345 . S
C36 H41 0.930 . S
C37 N34 1.390 . S
C37 C38 1.346 . S
C37 H42 0.930 . S
C38 N35 1.336 . S
C38 C37 1.346 . S
C38 H45 0.929 . S
C39 O29 1.282 . S
C39 O40 1.216 . S
O40 C39 1.216 . S
H41 C36 0.930 . S
H42 C37 0.930 . S
O43 Cu23 1.959 . S
O43 C30 1.251 . S
H44 C27 0.930 . S
H45 C38 0.929 . S
Cu46 N47 1.999 . S
Cu46 O52 1.974 . S
Cu46 N57 1.985 . S
Cu46 O66 1.959 . S
N47 Cu46 1.999 . S
N47 C49 1.263 . S
N47 C51 1.389 . S
N48 C49 1.358 . S
N48 C50 1.400 . S
C49 N47 1.263 . S
C49 N48 1.358 . S
C49 H55 0.930 . S
C50 N48 1.400 . S
C50 C51 1.351 . S
C50 H67 0.930 . S
C51 N47 1.389 . S
C51 C50 1.351 . S
C51 H56 0.930 . S
O52 Cu46 1.974 . S
O52 C62 1.282 . S
C53 O54 1.261 . S
C53 O66 1.251 . S
O54 C53 1.261 . S
H55 C49 0.930 . S
H56 C51 0.930 . S
N57 Cu46 1.985 . S
N57 C59 1.335 . S
N57 C60 1.390 . S
N58 C59 1.345 . S
N58 C61 1.336 . S
C59 N57 1.335 . S
C59 N58 1.345 . S
C59 H64 0.930 . S
C60 N57 1.390 . S
C60 C61 1.346 . S
C60 H65 0.930 . S
C61 N58 1.336 . S
C61 C60 1.346 . S
C61 H68 0.929 . S
C62 O52 1.282 . S
C62 O63 1.216 . S
O63 C62 1.216 . S
H64 C59 0.930 . S
H65 C60 0.930 . S
O66 Cu46 1.959 . S
O66 C53 1.251 . S
H67 C50 0.930 . S
H68 C61 0.929 . S
Cu69 N70 1.999 . S
Cu69 O75 1.974 . S
Cu69 N80 1.985 . S
Cu69 O89 1.959 . S
N70 Cu69 1.999 . S
N70 C72 1.263 1_554 S
N70 C74 1.389 1_554 S
N71 C72 1.358 . S
N71 C73 1.400 . S
C72 N70 1.263 1_556 S
C72 N71 1.358 . S
C72 H78 0.930 . S
C73 N71 1.400 . S
C73 C74 1.351 . S
C73 H90 0.930 . S
C74 N70 1.389 1_556 S
C74 C73 1.351 . S
C74 H79 0.930 . S
O75 Cu69 1.974 . S
O75 C85 1.282 . S
C76 O77 1.261 . S
C76 O89 1.251 . S
O77 C76 1.261 . S
H78 C72 0.930 . S
H79 C74 0.930 . S
N80 Cu69 1.985 . S
N80 C82 1.335 . S
N80 C83 1.390 . S
N81 C82 1.345 . S
N81 C84 1.336 . S
C82 N80 1.335 . S
C82 N81 1.345 . S
C82 H87 0.930 . S
C83 N80 1.390 . S
C83 C84 1.346 . S
C83 H88 0.930 . S
C84 N81 1.336 . S
C84 C83 1.346 . S
C84 H91 0.929 . S
C85 O75 1.282 . S
C85 O86 1.216 . S
O86 C85 1.216 . S
H87 C82 0.930 . S
H88 C83 0.930 . S
O89 Cu69 1.959 . S
O89 C76 1.251 . S
H90 C73 0.930 . S
H91 C84 0.929 . S
Cu92 N93 1.999 . S
Cu92 O98 1.974 . S
Cu92 N103 1.985 . S
Cu92 O112 1.959 . S
N93 Cu92 1.999 . S
N93 C95 1.263 . S
N93 C97 1.389 . S
N94 C95 1.358 . S
N94 C96 1.400 . S
C95 N93 1.263 . S
C95 N94 1.358 . S
C95 H101 0.930 . S
C96 N94 1.400 . S
C96 C97 1.351 . S
C96 H113 0.930 . S
C97 N93 1.389 . S
C97 C96 1.351 . S
C97 H102 0.930 . S
O98 Cu92 1.974 . S
O98 C108 1.282 . S
C99 O100 1.261 . S
C99 O112 1.251 . S
O100 C99 1.261 . S
H101 C95 0.930 . S
H102 C97 0.930 . S
N103 Cu92 1.985 . S
N103 C105 1.335 . S
N103 C106 1.390 . S
N104 C105 1.345 . S
N104 C107 1.336 . S
C105 N103 1.335 . S
C105 N104 1.345 . S
C105 H110 0.930 . S
C106 N103 1.390 . S
C106 C107 1.346 . S
C106 H111 0.930 . S
C107 N104 1.336 . S
C107 C106 1.346 . S
C107 H114 0.929 . S
C108 O98 1.282 . S
C108 O109 1.216 . S
O109 C108 1.216 . S
H110 C105 0.930 . S
H111 C106 0.930 . S
O112 Cu92 1.959 . S
O112 C99 1.251 . S
H113 C96 0.930 . S
H114 C107 0.929 . S
Cu115 N116 1.999 . S
Cu115 O121 1.974 . S
Cu115 N126 1.985 . S
Cu115 O135 1.959 . S
N116 Cu115 1.999 . S
N116 C118 1.263 . S
N116 C120 1.389 . S
N117 C118 1.358 . S
N117 C119 1.400 . S
C118 N116 1.263 . S
C118 N117 1.358 . S
C118 H124 0.930 . S
C119 N117 1.400 . S
C119 C120 1.351 . S
C119 H136 0.930 . S
C120 N116 1.389 . S
C120 C119 1.351 . S
C120 H125 0.930 . S
O121 Cu115 1.974 . S
O121 C131 1.282 . S
C122 O123 1.261 . S
C122 O135 1.251 . S
O123 C122 1.261 . S
H124 C118 0.930 . S
H125 C120 0.930 . S
N126 Cu115 1.985 . S
N126 C128 1.335 . S
N126 C129 1.390 . S
N127 C128 1.345 . S
N127 C130 1.336 . S
C128 N126 1.335 . S
C128 N127 1.345 . S
C128 H133 0.930 . S
C129 N126 1.390 . S
C129 C130 1.346 . S
C129 H134 0.930 . S
C130 N127 1.336 . S
C130 C129 1.346 . S
C130 H137 0.929 . S
C131 O121 1.282 . S
C131 O132 1.216 . S
O132 C131 1.216 . S
H133 C128 0.930 . S
H134 C129 0.930 . S
O135 Cu115 1.959 . S
O135 C122 1.251 . S
H136 C119 0.930 . S
H137 C130 0.929 . S
Cu138 N139 1.999 . S
Cu138 O144 1.974 . S
Cu138 N149 1.985 . S
Cu138 O158 1.959 . S
N139 Cu138 1.999 . S
N139 C141 1.263 . S
N139 C143 1.389 . S
N140 C141 1.358 . S
N140 C142 1.400 . S
C141 N139 1.263 . S
C141 N140 1.358 . S
C141 H147 0.930 . S
C142 N140 1.400 . S
C142 C143 1.351 . S
C142 H159 0.930 . S
C143 N139 1.389 . S
C143 C142 1.351 . S
C143 H148 0.930 . S
O144 Cu138 1.974 . S
O144 C154 1.282 . S
C145 O146 1.261 . S
C145 O158 1.251 . S
O146 C145 1.261 . S
H147 C141 0.930 . S
H148 C143 0.930 . S
N149 Cu138 1.985 . S
N149 C151 1.335 . S
N149 C152 1.390 . S
N150 C151 1.345 . S
N150 C153 1.336 . S
C151 N149 1.335 . S
C151 N150 1.345 . S
C151 H156 0.930 . S
C152 N149 1.390 . S
C152 C153 1.346 . S
C152 H157 0.930 . S
C153 N150 1.336 . S
C153 C152 1.346 . S
C153 H160 0.929 . S
C154 O144 1.282 . S
C154 O155 1.216 . S
O155 C154 1.216 . S
H156 C151 0.930 . S
H157 C152 0.930 . S
O158 Cu138 1.959 . S
O158 C145 1.251 . S
H159 C142 0.930 . S
H160 C153 0.929 . S
Cu161 N162 1.999 . S
Cu161 O167 1.974 . S
Cu161 N172 1.985 . S
Cu161 O181 1.959 . S
N162 Cu161 1.999 . S
N162 C164 1.263 1_556 S
N162 C166 1.389 1_556 S
N163 C164 1.358 . S
N163 C165 1.400 . S
C164 N162 1.263 1_554 S
C164 N163 1.358 . S
C164 H170 0.930 . S
C165 N163 1.400 . S
C165 C166 1.351 . S
C165 H182 0.930 . S
C166 N162 1.389 1_554 S
C166 C165 1.351 . S
C166 H171 0.930 . S
O167 Cu161 1.974 . S
O167 C177 1.282 . S
C168 O169 1.261 . S
C168 O181 1.251 . S
O169 C168 1.261 . S
H170 C164 0.930 . S
H171 C166 0.930 . S
N172 Cu161 1.985 . S
N172 C174 1.335 . S
N172 C175 1.390 . S
N173 C174 1.345 . S
N173 C176 1.336 . S
C174 N172 1.335 . S
C174 N173 1.345 . S
C174 H179 0.930 . S
C175 N172 1.390 . S
C175 C176 1.346 . S
C175 H180 0.930 . S
C176 N173 1.336 . S
C176 C175 1.346 . S
C176 H183 0.929 . S
C177 O167 1.282 . S
C177 O178 1.216 . S
O178 C177 1.216 . S
H179 C174 0.930 . S
H180 C175 0.930 . S
O181 Cu161 1.959 . S
O181 C168 1.251 . S
H182 C165 0.930 . S
H183 C176 0.929 . S
Cu184 N185 1.999 . S
Cu184 O190 1.974 . S
Cu184 N195 1.985 . S
Cu184 O204 1.959 . S
N185 Cu184 1.999 . S
N185 C187 1.263 . S
N185 C189 1.389 . S
N186 C187 1.358 . S
N186 C188 1.400 . S
C187 N185 1.263 . S
C187 N186 1.358 . S
C187 H193 0.930 . S
C188 N186 1.400 . S
C188 C189 1.351 . S
C188 H205 0.930 . S
C189 N185 1.389 . S
C189 C188 1.351 . S
C189 H194 0.930 . S
O190 Cu184 1.974 . S
O190 C200 1.282 . S
C191 O192 1.261 . S
C191 O204 1.251 . S
O192 C191 1.261 . S
H193 C187 0.930 . S
H194 C189 0.930 . S
N195 Cu184 1.985 . S
N195 C197 1.335 . S
N195 C198 1.390 . S
N196 C197 1.345 . S
N196 C199 1.336 . S
C197 N195 1.335 . S
C197 N196 1.345 . S
C197 H202 0.930 . S
C198 N195 1.390 . S
C198 C199 1.346 . S
C198 H203 0.930 . S
C199 N196 1.336 . S
C199 C198 1.346 . S
C199 H206 0.929 . S
C200 O190 1.282 . S
C200 O201 1.216 . S
O201 C200 1.216 . S
H202 C197 0.930 . S
H203 C198 0.930 . S
O204 Cu184 1.959 . S
O204 C191 1.251 . S
H205 C188 0.930 . S
H206 C199 0.929 . S
Cu207 N208 1.999 . S
Cu207 O213 1.974 . S
Cu207 N218 1.985 . S
Cu207 O227 1.959 . S
N208 Cu207 1.999 . S
N208 C210 1.263 . S
N208 C212 1.389 . S
N209 C210 1.358 . S
N209 C211 1.400 . S
C210 N208 1.263 . S
C210 N209 1.358 . S
C210 H216 0.930 . S
C211 N209 1.400 . S
C211 C212 1.351 . S
C211 H228 0.930 . S
C212 N208 1.389 . S
C212 C211 1.351 . S
C212 H217 0.930 . S
O213 Cu207 1.974 . S
O213 C223 1.282 . S
C214 O215 1.261 . S
C214 O227 1.251 . S
O215 C214 1.261 . S
H216 C210 0.930 . S
H217 C212 0.930 . S
N218 Cu207 1.985 . S
N218 C220 1.335 . S
N218 C221 1.390 . S
N219 C220 1.345 . S
N219 C222 1.336 . S
C220 N218 1.335 . S
C220 N219 1.345 . S
C220 H225 0.930 . S
C221 N218 1.390 . S
C221 C222 1.346 . S
C221 H226 0.930 . S
C222 N219 1.336 . S
C222 C221 1.346 . S
C222 H229 0.929 . S
C223 O213 1.282 . S
C223 O224 1.216 . S
O224 C223 1.216 . S
H225 C220 0.930 . S
H226 C221 0.930 . S
O227 Cu207 1.959 . S
O227 C214 1.251 . S
H228 C211 0.930 . S
H229 C222 0.929 . S
Cu230 N231 1.999 . S
Cu230 O236 1.974 . S
Cu230 N241 1.985 . S
Cu230 O250 1.959 . S
N231 Cu230 1.999 . S
N231 C233 1.263 . S
N231 C235 1.389 . S
N232 C233 1.358 . S
N232 C234 1.400 . S
C233 N231 1.263 . S
C233 N232 1.358 . S
C233 H239 0.930 . S
C234 N232 1.400 . S
C234 C235 1.351 . S
C234 H251 0.930 . S
C235 N231 1.389 . S
C235 C234 1.351 . S
C235 H240 0.930 . S
O236 Cu230 1.974 . S
O236 C246 1.282 . S
C237 O238 1.261 . S
C237 O250 1.251 . S
O238 C237 1.261 . S
H239 C233 0.930 . S
H240 C235 0.930 . S
N241 Cu230 1.985 . S
N241 C243 1.335 . S
N241 C244 1.390 . S
N242 C243 1.345 . S
N242 C245 1.336 . S
C243 N241 1.335 . S
C243 N242 1.345 . S
C243 H248 0.930 . S
C244 N241 1.390 . S
C244 C245 1.346 . S
C244 H249 0.930 . S
C245 N242 1.336 . S
C245 C244 1.346 . S
C245 H252 0.929 . S
C246 O236 1.282 . S
C246 O247 1.216 . S
O247 C246 1.216 . S
H248 C243 0.930 . S
H249 C244 0.930 . S
O250 Cu230 1.959 . S
O250 C237 1.251 . S
H251 C234 0.930 . S
H252 C245 0.929 . S
Cu253 N254 1.999 . S
Cu253 O259 1.974 . S
Cu253 N264 1.985 . S
Cu253 O273 1.959 . S
N254 Cu253 1.999 . S
N254 C256 1.263 . S
N254 C258 1.389 . S
N255 C256 1.358 . S
N255 C257 1.400 . S
C256 N254 1.263 . S
C256 N255 1.358 . S
C256 H262 0.930 . S
C257 N255 1.400 . S
C257 C258 1.351 . S
C257 H274 0.930 . S
C258 N254 1.389 . S
C258 C257 1.351 . S
C258 H263 0.930 . S
O259 Cu253 1.974 . S
O259 C269 1.282 . S
C260 O261 1.261 . S
C260 O273 1.251 1_554 S
O261 C260 1.261 . S
H262 C256 0.930 . S
H263 C258 0.930 . S
N264 Cu253 1.985 . S
N264 C266 1.335 . S
N264 C267 1.390 . S
N265 C266 1.345 . S
N265 C268 1.336 . S
C266 N264 1.335 . S
C266 N265 1.345 . S
C266 H271 0.930 . S
C267 N264 1.390 . S
C267 C268 1.346 . S
C267 H272 0.930 . S
C268 N265 1.336 . S
C268 C267 1.346 . S
C268 H275 0.929 . S
C269 O259 1.282 . S
C269 O270 1.216 . S
O270 C269 1.216 . S
H271 C266 0.930 . S
H272 C267 0.930 . S
O273 Cu253 1.959 . S
O273 C260 1.251 1_556 S
H274 C257 0.930 . S
H275 C268 0.929 . S
Cu276 N277 1.999 . S
Cu276 O282 1.974 . S
Cu276 N287 1.985 . S
Cu276 O296 1.959 . S
N277 Cu276 1.999 . S
N277 C279 1.263 . S
N277 C281 1.389 . S
N278 C279 1.358 . S
N278 C280 1.400 . S
C279 N277 1.263 . S
C279 N278 1.358 . S
C279 H285 0.930 . S
C280 N278 1.400 . S
C280 C281 1.351 . S
C280 H297 0.930 . S
C281 N277 1.389 . S
C281 C280 1.351 . S
C281 H286 0.930 . S
O282 Cu276 1.974 . S
O282 C292 1.282 . S
C283 O284 1.261 . S
C283 O296 1.251 . S
O284 C283 1.261 . S
H285 C279 0.930 . S
H286 C281 0.930 . S
N287 Cu276 1.985 . S
N287 C289 1.335 . S
N287 C290 1.390 . S
N288 C289 1.345 . S
N288 C291 1.336 . S
C289 N287 1.335 . S
C289 N288 1.345 . S
C289 H294 0.930 . S
C290 N287 1.390 . S
C290 C291 1.346 . S
C290 H295 0.930 . S
C291 N288 1.336 . S
C291 C290 1.346 . S
C291 H298 0.929 . S
C292 O282 1.282 . S
C292 O293 1.216 . S
O293 C292 1.216 . S
H294 C289 0.930 . S
H295 C290 0.930 . S
O296 Cu276 1.959 . S
O296 C283 1.251 . S
H297 C280 0.930 . S
H298 C291 0.929 . S
Cu299 N300 1.999 . S
Cu299 O305 1.974 . S
Cu299 N310 1.985 . S
Cu299 O319 1.959 . S
N300 Cu299 1.999 . S
N300 C302 1.263 . S
N300 C304 1.389 . S
N301 C302 1.358 . S
N301 C303 1.400 . S
C302 N300 1.263 . S
C302 N301 1.358 . S
C302 H308 0.930 . S
C303 N301 1.400 . S
C303 C304 1.351 . S
C303 H320 0.930 . S
C304 N300 1.389 . S
C304 C303 1.351 . S
C304 H309 0.930 . S
O305 Cu299 1.974 . S
O305 C315 1.282 . S
C306 O307 1.261 . S
C306 O319 1.251 . S
O307 C306 1.261 . S
H308 C302 0.930 . S
H309 C304 0.930 . S
N310 Cu299 1.985 . S
N310 C312 1.335 . S
N310 C313 1.390 . S
N311 C312 1.345 . S
N311 C314 1.336 . S
C312 N310 1.335 . S
C312 N311 1.345 . S
C312 H317 0.930 . S
C313 N310 1.390 . S
C313 C314 1.346 . S
C313 H318 0.930 . S
C314 N311 1.336 . S
C314 C313 1.346 . S
C314 H321 0.929 . S
C315 O305 1.282 . S
C315 O316 1.216 . S
O316 C315 1.216 . S
H317 C312 0.930 . S
H318 C313 0.930 . S
O319 Cu299 1.959 . S
O319 C306 1.251 . S
H320 C303 0.930 . S
H321 C314 0.929 . S
Cu322 N323 1.999 . S
Cu322 O328 1.974 . S
Cu322 N333 1.985 . S
Cu322 O342 1.959 . S
N323 Cu322 1.999 . S
N323 C325 1.263 . S
N323 C327 1.389 . S
N324 C325 1.358 . S
N324 C326 1.400 . S
C325 N323 1.263 . S
C325 N324 1.358 . S
C325 H331 0.930 . S
C326 N324 1.400 . S
C326 C327 1.351 . S
C326 H343 0.930 . S
C327 N323 1.389 . S
C327 C326 1.351 . S
C327 H332 0.930 . S
O328 Cu322 1.974 . S
O328 C338 1.282 . S
C329 O330 1.261 . S
C329 O342 1.251 . S
O330 C329 1.261 . S
H331 C325 0.930 . S
H332 C327 0.930 . S
N333 Cu322 1.985 . S
N333 C335 1.335 . S
N333 C336 1.390 . S
N334 C335 1.345 . S
N334 C337 1.336 . S
C335 N333 1.335 . S
C335 N334 1.345 . S
C335 H340 0.930 . S
C336 N333 1.390 . S
C336 C337 1.346 . S
C336 H341 0.930 . S
C337 N334 1.336 . S
C337 C336 1.346 . S
C337 H344 0.929 . S
C338 O328 1.282 . S
C338 O339 1.216 . S
O339 C338 1.216 . S
H340 C335 0.930 . S
H341 C336 0.930 . S
O342 Cu322 1.959 . S
O342 C329 1.251 . S
H343 C326 0.930 . S
H344 C337 0.929 . S
Cu345 N346 1.999 . S
Cu345 O351 1.974 . S
Cu345 N356 1.985 . S
Cu345 O365 1.959 . S
N346 Cu345 1.999 . S
N346 C348 1.263 . S
N346 C350 1.389 . S
N347 C348 1.358 . S
N347 C349 1.400 . S
C348 N346 1.263 . S
C348 N347 1.358 . S
C348 H354 0.930 . S
C349 N347 1.400 . S
C349 C350 1.351 . S
C349 H366 0.930 . S
C350 N346 1.389 . S
C350 C349 1.351 . S
C350 H355 0.930 . S
O351 Cu345 1.974 . S
O351 C361 1.282 . S
C352 O353 1.261 . S
C352 O365 1.251 1_556 S
O353 C352 1.261 . S
H354 C348 0.930 . S
H355 C350 0.930 . S
N356 Cu345 1.985 . S
N356 C358 1.335 . S
N356 C359 1.390 . S
N357 C358 1.345 . S
N357 C360 1.336 . S
C358 N356 1.335 . S
C358 N357 1.345 . S
C358 H363 0.930 . S
C359 N356 1.390 . S
C359 C360 1.346 . S
C359 H364 0.930 . S
C360 N357 1.336 . S
C360 C359 1.346 . S
C360 H367 0.929 . S
C361 O351 1.282 . S
C361 O362 1.216 . S
O362 C361 1.216 . S
H363 C358 0.930 . S
H364 C359 0.930 . S
O365 Cu345 1.959 . S
O365 C352 1.251 1_554 S
H366 C349 0.930 . S
H367 C360 0.929 . S
Cu368 N369 1.999 . S
Cu368 O374 1.974 . S
Cu368 N379 1.985 . S
Cu368 O388 1.959 . S
N369 Cu368 1.999 . S
N369 C371 1.263 . S
N369 C373 1.389 . S
N370 C371 1.358 . S
N370 C372 1.400 . S
C371 N369 1.263 . S
C371 N370 1.358 . S
C371 H377 0.930 . S
C372 N370 1.400 . S
C372 C373 1.351 . S
C372 H389 0.930 . S
C373 N369 1.389 . S
C373 C372 1.351 . S
C373 H378 0.930 . S
O374 Cu368 1.974 . S
O374 C384 1.282 . S
C375 O376 1.261 . S
C375 O388 1.251 . S
O376 C375 1.261 . S
H377 C371 0.930 . S
H378 C373 0.930 . S
N379 Cu368 1.985 . S
N379 C381 1.335 . S
N379 C382 1.390 . S
N380 C381 1.345 . S
N380 C383 1.336 . S
C381 N379 1.335 . S
C381 N380 1.345 . S
C381 H386 0.930 . S
C382 N379 1.390 . S
C382 C383 1.346 . S
C382 H387 0.930 . S
C383 N380 1.336 . S
C383 C382 1.346 . S
C383 H390 0.929 . S
C384 O374 1.282 . S
C384 O385 1.216 . S
O385 C384 1.216 . S
H386 C381 0.930 . S
H387 C382 0.930 . S
O388 Cu368 1.959 . S
O388 C375 1.251 . S
H389 C372 0.930 . S
H390 C383 0.929 . S
Cu391 N392 1.999 . S
Cu391 O397 1.974 . S
Cu391 N402 1.985 . S
Cu391 O411 1.959 . S
N392 Cu391 1.999 . S
N392 C394 1.263 1_554 S
N392 C396 1.389 1_554 S
N393 C394 1.358 . S
N393 C395 1.400 . S
C394 N392 1.263 1_556 S
C394 N393 1.358 . S
C394 H400 0.930 . S
C395 N393 1.400 . S
C395 C396 1.351 . S
C395 H412 0.930 . S
C396 N392 1.389 1_556 S
C396 C395 1.351 . S
C396 H401 0.930 . S
O397 Cu391 1.974 . S
O397 C407 1.282 . S
C398 O399 1.261 . S
C398 O411 1.251 . S
O399 C398 1.261 . S
H400 C394 0.930 . S
H401 C396 0.930 . S
N402 Cu391 1.985 . S
N402 C404 1.335 . S
N402 C405 1.390 . S
N403 C404 1.345 . S
N403 C406 1.336 . S
C404 N402 1.335 . S
C404 N403 1.345 . S
C404 H409 0.930 . S
C405 N402 1.390 . S
C405 C406 1.346 . S
C405 H410 0.930 . S
C406 N403 1.336 . S
C406 C405 1.346 . S
C406 H413 0.929 . S
C407 O397 1.282 . S
C407 O408 1.216 . S
O408 C407 1.216 . S
H409 C404 0.930 . S
H410 C405 0.930 . S
O411 Cu391 1.959 . S
O411 C398 1.251 . S
H412 C395 0.930 . S
H413 C406 0.929 . S
Cu414 N415 1.999 . S
Cu414 O420 1.974 . S
Cu414 N425 1.985 . S
Cu414 O434 1.959 . S
N415 Cu414 1.999 . S
N415 C417 1.263 . S
N415 C419 1.389 . S
N416 C417 1.358 . S
N416 C418 1.400 . S
C417 N415 1.263 . S
C417 N416 1.358 . S
C417 H423 0.930 . S
C418 N416 1.400 . S
C418 C419 1.351 . S
C418 H435 0.930 . S
C419 N415 1.389 . S
C419 C418 1.351 . S
C419 H424 0.930 . S
O420 Cu414 1.974 . S
O420 C430 1.282 . S
C421 O422 1.261 . S
C421 O434 1.251 . S
O422 C421 1.261 . S
H423 C417 0.930 . S
H424 C419 0.930 . S
N425 Cu414 1.985 . S
N425 C427 1.335 . S
N425 C428 1.390 . S
N426 C427 1.345 . S
N426 C429 1.336 . S
C427 N425 1.335 . S
C427 N426 1.345 . S
C427 H432 0.930 . S
C428 N425 1.390 . S
C428 C429 1.346 . S
C428 H433 0.930 . S
C429 N426 1.336 . S
C429 C428 1.346 . S
C429 H436 0.929 . S
C430 O420 1.282 . S
C430 O431 1.216 . S
O431 C430 1.216 . S
H432 C427 0.930 . S
H433 C428 0.930 . S
O434 Cu414 1.959 . S
O434 C421 1.251 . S
H435 C418 0.930 . S
H436 C429 0.929 . S
Cu437 N438 1.999 . S
Cu437 O443 1.974 . S
Cu437 N448 1.985 . S
Cu437 O457 1.959 . S
N438 Cu437 1.999 . S
N438 C440 1.263 . S
N438 C442 1.389 . S
N439 C440 1.358 . S
N439 C441 1.400 . S
C440 N438 1.263 . S
C440 N439 1.358 . S
C440 H446 0.930 . S
C441 N439 1.400 . S
C441 C442 1.351 . S
C441 H458 0.930 . S
C442 N438 1.389 . S
C442 C441 1.351 . S
C442 H447 0.930 . S
O443 Cu437 1.974 . S
O443 C453 1.282 . S
C444 O445 1.261 . S
C444 O457 1.251 . S
O445 C444 1.261 . S
H446 C440 0.930 . S
H447 C442 0.930 . S
N448 Cu437 1.985 . S
N448 C450 1.335 . S
N448 C451 1.390 . S
N449 C450 1.345 . S
N449 C452 1.336 . S
C450 N448 1.335 . S
C450 N449 1.345 . S
C450 H455 0.930 . S
C451 N448 1.390 . S
C451 C452 1.346 . S
C451 H456 0.930 . S
C452 N449 1.336 . S
C452 C451 1.346 . S
C452 H459 0.929 . S
C453 O443 1.282 . S
C453 O454 1.216 . S
O454 C453 1.216 . S
H455 C450 0.930 . S
H456 C451 0.930 . S
O457 Cu437 1.959 . S
O457 C444 1.251 . S
H458 C441 0.930 . S
H459 C452 0.929 . S
Cu460 N461 1.999 . S
Cu460 O466 1.974 . S
Cu460 N471 1.985 . S
Cu460 O480 1.959 . S
N461 Cu460 1.999 . S
N461 C463 1.263 . S
N461 C465 1.389 . S
N462 C463 1.358 . S
N462 C464 1.400 . S
C463 N461 1.263 . S
C463 N462 1.358 . S
C463 H469 0.930 . S
C464 N462 1.400 . S
C464 C465 1.351 . S
C464 H481 0.930 . S
C465 N461 1.389 . S
C465 C464 1.351 . S
C465 H470 0.930 . S
O466 Cu460 1.974 . S
O466 C476 1.282 . S
C467 O468 1.261 . S
C467 O480 1.251 . S
O468 C467 1.261 . S
H469 C463 0.930 . S
H470 C465 0.930 . S
N471 Cu460 1.985 . S
N471 C473 1.335 . S
N471 C474 1.390 . S
N472 C473 1.345 . S
N472 C475 1.336 . S
C473 N471 1.335 . S
C473 N472 1.345 . S
C473 H478 0.930 . S
C474 N471 1.390 . S
C474 C475 1.346 . S
C474 H479 0.930 . S
C475 N472 1.336 . S
C475 C474 1.346 . S
C475 H482 0.929 . S
C476 O466 1.282 . S
C476 O477 1.216 . S
O477 C476 1.216 . S
H478 C473 0.930 . S
H479 C474 0.930 . S
O480 Cu460 1.959 . S
O480 C467 1.251 . S
H481 C464 0.930 . S
H482 C475 0.929 . S
Cu483 N484 1.999 . S
Cu483 O489 1.974 . S
Cu483 N494 1.985 . S
Cu483 O503 1.959 . S
N484 Cu483 1.999 . S
N484 C486 1.263 1_556 S
N484 C488 1.389 1_556 S
N485 C486 1.358 . S
N485 C487 1.400 . S
C486 N484 1.263 1_554 S
C486 N485 1.358 . S
C486 H492 0.930 . S
C487 N485 1.400 . S
C487 C488 1.351 . S
C487 H504 0.930 . S
C488 N484 1.389 1_554 S
C488 C487 1.351 . S
C488 H493 0.930 . S
O489 Cu483 1.974 . S
O489 C499 1.282 . S
C490 O491 1.261 . S
C490 O503 1.251 . S
O491 C490 1.261 . S
H492 C486 0.930 . S
H493 C488 0.930 . S
N494 Cu483 1.985 . S
N494 C496 1.335 . S
N494 C497 1.390 . S
N495 C496 1.345 . S
N495 C498 1.336 . S
C496 N494 1.335 . S
C496 N495 1.345 . S
C496 H501 0.930 . S
C497 N494 1.390 . S
C497 C498 1.346 . S
C497 H502 0.930 . S
C498 N495 1.336 . S
C498 C497 1.346 . S
C498 H505 0.929 . S
C499 O489 1.282 . S
C499 O500 1.216 . S
O500 C499 1.216 . S
H501 C496 0.930 . S
H502 C497 0.930 . S
O503 Cu483 1.959 . S
O503 C490 1.251 . S
H504 C487 0.930 . S
H505 C498 0.929 . S
Cu506 N507 1.999 . S
Cu506 O512 1.974 . S
Cu506 N517 1.985 . S
Cu506 O526 1.959 . S
N507 Cu506 1.999 . S
N507 C509 1.263 . S
N507 C511 1.389 . S
N508 C509 1.358 . S
N508 C510 1.400 . S
C509 N507 1.263 . S
C509 N508 1.358 . S
C509 H515 0.930 . S
C510 N508 1.400 . S
C510 C511 1.351 . S
C510 H527 0.930 . S
C511 N507 1.389 . S
C511 C510 1.351 . S
C511 H516 0.930 . S
O512 Cu506 1.974 . S
O512 C522 1.282 . S
C513 O514 1.261 . S
C513 O526 1.251 . S
O514 C513 1.261 . S
H515 C509 0.930 . S
H516 C511 0.930 . S
N517 Cu506 1.985 . S
N517 C519 1.335 . S
N517 C520 1.390 . S
N518 C519 1.345 . S
N518 C521 1.336 . S
C519 N517 1.335 . S
C519 N518 1.345 . S
C519 H524 0.930 . S
C520 N517 1.390 . S
C520 C521 1.346 . S
C520 H525 0.930 . S
C521 N518 1.336 . S
C521 C520 1.346 . S
C521 H528 0.929 . S
C522 O512 1.282 . S
C522 O523 1.216 . S
O523 C522 1.216 . S
H524 C519 0.930 . S
H525 C520 0.930 . S
O526 Cu506 1.959 . S
O526 C513 1.251 . S
H527 C510 0.930 . S
H528 C521 0.929 . S
Cu529 N530 1.999 . S
Cu529 O535 1.974 . S
Cu529 N540 1.985 . S
Cu529 O549 1.959 . S
N530 Cu529 1.999 . S
N530 C532 1.263 . S
N530 C534 1.389 . S
N531 C532 1.358 . S
N531 C533 1.400 . S
C532 N530 1.263 . S
C532 N531 1.358 . S
C532 H538 0.930 . S
C533 N531 1.400 . S
C533 C534 1.351 . S
C533 H550 0.930 . S
C534 N530 1.389 . S
C534 C533 1.351 . S
C534 H539 0.930 . S
O535 Cu529 1.974 . S
O535 C545 1.282 . S
C536 O537 1.261 . S
C536 O549 1.251 . S
O537 C536 1.261 . S
H538 C532 0.930 . S
H539 C534 0.930 . S
N540 Cu529 1.985 . S
N540 C542 1.335 . S
N540 C543 1.390 . S
N541 C542 1.345 . S
N541 C544 1.336 . S
C542 N540 1.335 . S
C542 N541 1.345 . S
C542 H547 0.930 . S
C543 N540 1.390 . S
C543 C544 1.346 . S
C543 H548 0.930 . S
C544 N541 1.336 . S
C544 C543 1.346 . S
C544 H551 0.929 . S
C545 O535 1.282 . S
C545 O546 1.216 . S
O546 C545 1.216 . S
H547 C542 0.930 . S
H548 C543 0.930 . S
O549 Cu529 1.959 . S
O549 C536 1.251 . S
H550 C533 0.930 . S
H551 C544 0.929 . S
Cu552 N553 1.999 . S
Cu552 O558 1.974 . S
Cu552 N563 1.985 . S
Cu552 O572 1.959 . S
N553 Cu552 1.999 . S
N553 C555 1.263 . S
N553 C557 1.389 . S
N554 C555 1.358 . S
N554 C556 1.400 . S
C555 N553 1.263 . S
C555 N554 1.358 . S
C555 H561 0.930 . S
C556 N554 1.400 . S
C556 C557 1.351 . S
C556 H573 0.930 . S
C557 N553 1.389 . S
C557 C556 1.351 . S
C557 H562 0.930 . S
O558 Cu552 1.974 . S
O558 C568 1.282 . S
C559 O560 1.261 . S
C559 O572 1.251 . S
O560 C559 1.261 . S
H561 C555 0.930 . S
H562 C557 0.930 . S
N563 Cu552 1.985 . S
N563 C565 1.335 . S
N563 C566 1.390 . S
N564 C565 1.345 . S
N564 C567 1.336 . S
C565 N563 1.335 . S
C565 N564 1.345 . S
C565 H570 0.930 . S
C566 N563 1.390 . S
C566 C567 1.346 . S
C566 H571 0.930 . S
C567 N564 1.336 . S
C567 C566 1.346 . S
C567 H574 0.929 . S
C568 O558 1.282 . S
C568 O569 1.216 . S
O569 C568 1.216 . S
H570 C565 0.930 . S
H571 C566 0.930 . S
O572 Cu552 1.959 . S
O572 C559 1.251 . S
H573 C556 0.930 . S
H574 C567 0.929 . S
Cu575 N576 1.999 . S
Cu575 O581 1.974 . S
Cu575 N586 1.985 . S
Cu575 O595 1.959 . S
N576 Cu575 1.999 . S
N576 C578 1.263 . S
N576 C580 1.389 . S
N577 C578 1.358 . S
N577 C579 1.400 . S
C578 N576 1.263 . S
C578 N577 1.358 . S
C578 H584 0.930 . S
C579 N577 1.400 . S
C579 C580 1.351 . S
C579 H596 0.930 . S
C580 N576 1.389 . S
C580 C579 1.351 . S
C580 H585 0.930 . S
O581 Cu575 1.974 . S
O581 C591 1.282 . S
C582 O583 1.261 . S
C582 O595 1.251 1_554 S
O583 C582 1.261 . S
H584 C578 0.930 . S
H585 C580 0.930 . S
N586 Cu575 1.985 . S
N586 C588 1.335 . S
N586 C589 1.390 . S
N587 C588 1.345 . S
N587 C590 1.336 . S
C588 N586 1.335 . S
C588 N587 1.345 . S
C588 H593 0.930 . S
C589 N586 1.390 . S
C589 C590 1.346 . S
C589 H594 0.930 . S
C590 N587 1.336 . S
C590 C589 1.346 . S
C590 H597 0.929 . S
C591 O581 1.282 . S
C591 O592 1.216 . S
O592 C591 1.216 . S
H593 C588 0.930 . S
H594 C589 0.930 . S
O595 Cu575 1.959 . S
O595 C582 1.251 1_556 S
H596 C579 0.930 . S
H597 C590 0.929 . S
Cu598 N599 1.999 . S
Cu598 O604 1.974 . S
Cu598 N609 1.985 . S
Cu598 O618 1.959 . S
N599 Cu598 1.999 . S
N599 C601 1.263 . S
N599 C603 1.389 . S
N600 C601 1.358 . S
N600 C602 1.400 . S
C601 N599 1.263 . S
C601 N600 1.358 . S
C601 H607 0.930 . S
C602 N600 1.400 . S
C602 C603 1.351 . S
C602 H619 0.930 . S
C603 N599 1.389 . S
C603 C602 1.351 . S
C603 H608 0.930 . S
O604 Cu598 1.974 . S
O604 C614 1.282 . S
C605 O606 1.261 . S
C605 O618 1.251 . S
O606 C605 1.261 . S
H607 C601 0.930 . S
H608 C603 0.930 . S
N609 Cu598 1.985 . S
N609 C611 1.335 . S
N609 C612 1.390 . S
N610 C611 1.345 . S
N610 C613 1.336 . S
C611 N609 1.335 . S
C611 N610 1.345 . S
C611 H616 0.930 . S
C612 N609 1.390 . S
C612 C613 1.346 . S
C612 H617 0.930 . S
C613 N610 1.336 . S
C613 C612 1.346 . S
C613 H620 0.929 . S
C614 O604 1.282 . S
C614 O615 1.216 . S
O615 C614 1.216 . S
H616 C611 0.930 . S
H617 C612 0.930 . S
O618 Cu598 1.959 . S
O618 C605 1.251 . S
H619 C602 0.930 . S
H620 C613 0.929 . S
Cu621 N622 1.999 . S
Cu621 O627 1.974 . S
Cu621 N632 1.985 . S
Cu621 O641 1.959 . S
N622 Cu621 1.999 . S
N622 C624 1.263 . S
N622 C626 1.389 . S
N623 C624 1.358 . S
N623 C625 1.400 . S
C624 N622 1.263 . S
C624 N623 1.358 . S
C624 H630 0.930 . S
C625 N623 1.400 . S
C625 C626 1.351 . S
C625 H642 0.930 . S
C626 N622 1.389 . S
C626 C625 1.351 . S
C626 H631 0.930 . S
O627 Cu621 1.974 . S
O627 C637 1.282 . S
C628 O629 1.261 . S
C628 O641 1.251 . S
O629 C628 1.261 . S
H630 C624 0.930 . S
H631 C626 0.930 . S
N632 Cu621 1.985 . S
N632 C634 1.335 . S
N632 C635 1.390 . S
N633 C634 1.345 . S
N633 C636 1.336 . S
C634 N632 1.335 . S
C634 N633 1.345 . S
C634 H639 0.930 . S
C635 N632 1.390 . S
C635 C636 1.346 . S
C635 H640 0.930 . S
C636 N633 1.336 . S
C636 C635 1.346 . S
C636 H643 0.929 . S
C637 O627 1.282 . S
C637 O638 1.216 . S
O638 C637 1.216 . S
H639 C634 0.930 . S
H640 C635 0.930 . S
O641 Cu621 1.959 . S
O641 C628 1.251 . S
H642 C625 0.930 . S
H643 C636 0.929 . S
Cu644 N645 1.999 . S
Cu644 O650 1.974 . S
Cu644 N655 1.985 . S
Cu644 O664 1.959 . S
N645 Cu644 1.999 . S
N645 C647 1.263 . S
N645 C649 1.389 . S
N646 C647 1.358 . S
N646 C648 1.400 . S
C647 N645 1.263 . S
C647 N646 1.358 . S
C647 H653 0.930 . S
C648 N646 1.400 . S
C648 C649 1.351 . S
C648 H665 0.930 . S
C649 N645 1.389 . S
C649 C648 1.351 . S
C649 H654 0.930 . S
O650 Cu644 1.974 . S
O650 C660 1.282 . S
C651 O652 1.261 . S
C651 O664 1.251 . S
O652 C651 1.261 . S
H653 C647 0.930 . S
H654 C649 0.930 . S
N655 Cu644 1.985 . S
N655 C657 1.335 . S
N655 C658 1.390 . S
N656 C657 1.345 . S
N656 C659 1.336 . S
C657 N655 1.335 . S
C657 N656 1.345 . S
C657 H662 0.930 . S
C658 N655 1.390 . S
C658 C659 1.346 . S
C658 H663 0.930 . S
C659 N656 1.336 . S
C659 C658 1.346 . S
C659 H666 0.929 . S
C660 O650 1.282 . S
C660 O661 1.216 . S
O661 C660 1.216 . S
H662 C657 0.930 . S
H663 C658 0.930 . S
O664 Cu644 1.959 . S
O664 C651 1.251 . S
H665 C648 0.930 . S
H666 C659 0.929 . S
Cu667 N668 1.999 . S
Cu667 O673 1.974 . S
Cu667 N678 1.985 . S
Cu667 O687 1.959 . S
N668 Cu667 1.999 . S
N668 C670 1.263 . S
N668 C672 1.389 . S
N669 C670 1.358 . S
N669 C671 1.400 . S
C670 N668 1.263 . S
C670 N669 1.358 . S
C670 H676 0.930 . S
C671 N669 1.400 . S
C671 C672 1.351 . S
C671 H688 0.930 . S
C672 N668 1.389 . S
C672 C671 1.351 . S
C672 H677 0.930 . S
O673 Cu667 1.974 . S
O673 C683 1.282 . S
C674 O675 1.261 . S
C674 O687 1.251 1_556 S
O675 C674 1.261 . S
H676 C670 0.930 . S
H677 C672 0.930 . S
N678 Cu667 1.985 . S
N678 C680 1.335 . S
N678 C681 1.390 . S
N679 C680 1.345 . S
N679 C682 1.336 . S
C680 N678 1.335 . S
C680 N679 1.345 . S
C680 H685 0.930 . S
C681 N678 1.390 . S
C681 C682 1.346 . S
C681 H686 0.930 . S
C682 N679 1.336 . S
C682 C681 1.346 . S
C682 H689 0.929 . S
C683 O673 1.282 . S
C683 O684 1.216 . S
O684 C683 1.216 . S
H685 C680 0.930 . S
H686 C681 0.930 . S
O687 Cu667 1.959 . S
O687 C674 1.251 1_554 S
H688 C671 0.930 . S
H689 C682 0.929 . S
Cu690 N691 1.999 . S
Cu690 O696 1.974 . S
Cu690 N701 1.985 . S
Cu690 O710 1.959 . S
N691 Cu690 1.999 . S
N691 C693 1.263 . S
N691 C695 1.389 . S
N692 C693 1.358 . S
N692 C694 1.400 . S
C693 N691 1.263 . S
C693 N692 1.358 . S
C693 H699 0.930 . S
C694 N692 1.400 . S
C694 C695 1.351 . S
C694 H711 0.930 . S
C695 N691 1.389 . S
C695 C694 1.351 . S
C695 H700 0.930 . S
O696 Cu690 1.974 . S
O696 C706 1.282 . S
C697 O698 1.261 . S
C697 O710 1.251 . S
O698 C697 1.261 . S
H699 C693 0.930 . S
H700 C695 0.930 . S
N701 Cu690 1.985 . S
N701 C703 1.335 . S
N701 C704 1.390 . S
N702 C703 1.345 . S
N702 C705 1.336 . S
C703 N701 1.335 . S
C703 N702 1.345 . S
C703 H708 0.930 . S
C704 N701 1.390 . S
C704 C705 1.346 . S
C704 H709 0.930 . S
C705 N702 1.336 . S
C705 C704 1.346 . S
C705 H712 0.929 . S
C706 O696 1.282 . S
C706 O707 1.216 . S
O707 C706 1.216 . S
H708 C703 0.930 . S
H709 C704 0.930 . S
O710 Cu690 1.959 . S
O710 C697 1.251 . S
H711 C694 0.930 . S
H712 C705 0.929 . S
Cu713 N714 1.999 . S
Cu713 O719 1.974 . S
Cu713 N724 1.985 . S
Cu713 O733 1.959 . S
N714 Cu713 1.999 . S
N714 C716 1.263 . S
N714 C718 1.389 . S
N715 C716 1.358 . S
N715 C717 1.400 . S
C716 N714 1.263 . S
C716 N715 1.358 . S
C716 H722 0.930 . S
C717 N715 1.400 . S
C717 C718 1.351 . S
C717 H734 0.930 . S
C718 N714 1.389 . S
C718 C717 1.351 . S
C718 H723 0.930 . S
O719 Cu713 1.974 . S
O719 C729 1.282 . S
C720 O721 1.261 . S
C720 O733 1.251 . S
O721 C720 1.261 . S
H722 C716 0.930 . S
H723 C718 0.930 . S
N724 Cu713 1.985 . S
N724 C726 1.335 . S
N724 C727 1.390 . S
N725 C726 1.345 . S
N725 C728 1.336 . S
C726 N724 1.335 . S
C726 N725 1.345 . S
C726 H731 0.930 . S
C727 N724 1.390 . S
C727 C728 1.346 . S
C727 H732 0.930 . S
C728 N725 1.336 . S
C728 C727 1.346 . S
C728 H735 0.929 . S
C729 O719 1.282 . S
C729 O730 1.216 . S
O730 C729 1.216 . S
H731 C726 0.930 . S
H732 C727 0.930 . S
O733 Cu713 1.959 . S
O733 C720 1.251 . S
H734 C717 0.930 . S
H735 C728 0.929 . S
H736 C748 0.930 . S
H737 C750 0.930 . S
H738 C751 0.930 . S
H739 C755 0.959 . S
H740 C755 0.959 . S
H741 C755 0.961 . S
H742 C756 0.960 . S
H743 C756 0.961 . S
H744 C756 0.959 . S
H745 C759 0.929 . S
H746 C760 0.931 . S
H747 C762 0.930 . S
C748 H736 0.930 . S
C748 C749 1.399 . S
C748 C753 1.399 . S
C749 C748 1.399 . S
C749 C750 1.376 . S
C750 H737 0.930 . S
C750 C749 1.376 . S
C750 C751 1.388 . S
C751 H738 0.930 . S
C751 C750 1.388 . S
C751 C752 1.390 . S
C752 C751 1.390 . S
C752 C753 1.394 . S
C752 C758 1.465 . S
C753 C748 1.399 . S
C753 C752 1.394 . S
C753 C754 1.516 . S
C754 C753 1.516 . S
C754 C755 1.502 . S
C754 C756 1.561 . S
C754 C757 1.526 . S
C755 H739 0.959 . S
C755 H740 0.959 . S
C755 H741 0.961 . S
C755 C754 1.502 . S
C756 H742 0.960 . S
C756 H743 0.961 . S
C756 H744 0.959 . S
C756 C754 1.561 . S
C757 C754 1.526 . S
C757 C758 1.396 . S
C757 C762 1.390 . S
C758 C752 1.465 . S
C758 C757 1.396 . S
C758 C759 1.399 . S
C759 H745 0.929 . S
C759 C758 1.399 . S
C759 C760 1.385 . S
C760 H746 0.931 . S
C760 C759 1.385 . S
C760 C761 1.389 . S
C761 C760 1.389 . S
C761 C762 1.387 . S
C762 H747 0.930 . S
C762 C757 1.390 . S
C762 C761 1.387 . S
H763 C775 0.930 . S
H764 C777 0.930 . S
H765 C778 0.930 . S
H766 C782 0.959 . S
H767 C782 0.959 . S
H768 C782 0.961 . S
H769 C783 0.960 . S
H770 C783 0.961 . S
H771 C783 0.959 . S
H772 C786 0.929 . S
H773 C787 0.931 . S
H774 C789 0.930 . S
C775 H763 0.930 . S
C775 C776 1.399 . S
C775 C780 1.399 . S
C776 C775 1.399 . S
C776 C777 1.376 . S
C777 H764 0.930 . S
C777 C776 1.376 . S
C777 C778 1.388 . S
C778 H765 0.930 . S
C778 C777 1.388 . S
C778 C779 1.390 . S
C779 C778 1.390 . S
C779 C780 1.394 . S
C779 C785 1.465 . S
C780 C775 1.399 . S
C780 C779 1.394 . S
C780 C781 1.516 . S
C781 C780 1.516 . S
C781 C782 1.502 . S
C781 C783 1.561 . S
C781 C784 1.526 . S
C782 H766 0.959 . S
C782 H767 0.959 . S
C782 H768 0.961 . S
C782 C781 1.502 . S
C783 H769 0.960 . S
C783 H770 0.961 . S
C783 H771 0.959 . S
C783 C781 1.561 . S
C784 C781 1.526 . S
C784 C785 1.396 . S
C784 C789 1.390 . S
C785 C779 1.465 . S
C785 C784 1.396 . S
C785 C786 1.399 . S
C786 H772 0.929 . S
C786 C785 1.399 . S
C786 C787 1.385 . S
C787 H773 0.931 . S
C787 C786 1.385 . S
C787 C788 1.389 . S
C788 C787 1.389 . S
C788 C789 1.387 . S
C789 H774 0.930 . S
C789 C784 1.390 . S
C789 C788 1.387 . S
H790 C802 0.930 . S
H791 C804 0.930 . S
H792 C805 0.930 . S
H793 C809 0.959 . S
H794 C809 0.959 . S
H795 C809 0.961 . S
H796 C810 0.960 . S
H797 C810 0.961 . S
H798 C810 0.959 . S
H799 C813 0.929 . S
H800 C814 0.931 . S
H801 C816 0.930 . S
C802 H790 0.930 . S
C802 C803 1.399 . S
C802 C807 1.399 . S
C803 C802 1.399 . S
C803 C804 1.376 . S
C804 H791 0.930 . S
C804 C803 1.376 . S
C804 C805 1.388 . S
C805 H792 0.930 . S
C805 C804 1.388 . S
C805 C806 1.390 . S
C806 C805 1.390 . S
C806 C807 1.394 . S
C806 C812 1.465 . S
C807 C802 1.399 . S
C807 C806 1.394 . S
C807 C808 1.516 . S
C808 C807 1.516 . S
C808 C809 1.502 . S
C808 C810 1.561 . S
C808 C811 1.526 . S
C809 H793 0.959 . S
C809 H794 0.959 . S
C809 H795 0.961 . S
C809 C808 1.502 . S
C810 H796 0.960 . S
C810 H797 0.961 . S
C810 H798 0.959 . S
C810 C808 1.561 . S
C811 C808 1.526 . S
C811 C812 1.396 . S
C811 C816 1.390 . S
C812 C806 1.465 . S
C812 C811 1.396 . S
C812 C813 1.399 . S
C813 H799 0.929 . S
C813 C812 1.399 . S
C813 C814 1.385 . S
C814 H800 0.931 . S
C814 C813 1.385 . S
C814 C815 1.389 . S
C815 C814 1.389 . S
C815 C816 1.387 . S
C816 H801 0.930 . S
C816 C811 1.390 . S
C816 C815 1.387 . S
H817 C829 0.930 . S
H818 C831 0.930 . S
H819 C832 0.930 . S
H820 C836 0.959 . S
H821 C836 0.959 . S
H822 C836 0.961 . S
H823 C837 0.960 . S
H824 C837 0.961 . S
H825 C837 0.959 . S
H826 C840 0.929 . S
H827 C841 0.931 . S
H828 C843 0.930 . S
C829 H817 0.930 . S
C829 C830 1.399 . S
C829 C834 1.399 . S
C830 C829 1.399 . S
C830 C831 1.376 . S
C831 H818 0.930 . S
C831 C830 1.376 . S
C831 C832 1.388 . S
C832 H819 0.930 . S
C832 C831 1.388 . S
C832 C833 1.390 . S
C833 C832 1.390 . S
C833 C834 1.394 . S
C833 C839 1.465 . S
C834 C829 1.399 . S
C834 C833 1.394 . S
C834 C835 1.516 . S
C835 C834 1.516 . S
C835 C836 1.502 . S
C835 C837 1.561 . S
C835 C838 1.526 . S
C836 H820 0.959 . S
C836 H821 0.959 . S
C836 H822 0.961 . S
C836 C835 1.502 . S
C837 H823 0.960 . S
C837 H824 0.961 . S
C837 H825 0.959 . S
C837 C835 1.561 . S
C838 C835 1.526 . S
C838 C839 1.396 . S
C838 C843 1.390 . S
C839 C833 1.465 . S
C839 C838 1.396 . S
C839 C840 1.399 . S
C840 H826 0.929 . S
C840 C839 1.399 . S
C840 C841 1.385 . S
C841 H827 0.931 . S
C841 C840 1.385 . S
C841 C842 1.389 . S
C842 C841 1.389 . S
C842 C843 1.387 . S
C843 H828 0.930 . S
C843 C838 1.390 . S
C843 C842 1.387 . S
H844 C856 0.930 . S
H845 C858 0.930 . S
H846 C859 0.930 . S
H847 C863 0.959 . S
H848 C863 0.959 . S
H849 C863 0.961 . S
H850 C864 0.960 . S
H851 C864 0.961 . S
H852 C864 0.959 . S
H853 C867 0.929 . S
H854 C868 0.931 . S
H855 C870 0.930 . S
C856 H844 0.930 . S
C856 C857 1.399 . S
C856 C861 1.399 . S
C857 C856 1.399 . S
C857 C858 1.376 . S
C858 H845 0.930 . S
C858 C857 1.376 . S
C858 C859 1.388 . S
C859 H846 0.930 . S
C859 C858 1.388 . S
C859 C860 1.390 . S
C860 C859 1.390 . S
C860 C861 1.394 . S
C860 C866 1.465 . S
C861 C856 1.399 . S
C861 C860 1.394 . S
C861 C862 1.516 . S
C862 C861 1.516 . S
C862 C863 1.502 . S
C862 C864 1.561 . S
C862 C865 1.526 . S
C863 H847 0.959 . S
C863 H848 0.959 . S
C863 H849 0.961 . S
C863 C862 1.502 . S
C864 H850 0.960 . S
C864 H851 0.961 . S
C864 H852 0.959 . S
C864 C862 1.561 . S
C865 C862 1.526 . S
C865 C866 1.396 . S
C865 C870 1.390 . S
C866 C860 1.465 . S
C866 C865 1.396 . S
C866 C867 1.399 . S
C867 H853 0.929 . S
C867 C866 1.399 . S
C867 C868 1.385 . S
C868 H854 0.931 . S
C868 C867 1.385 . S
C868 C869 1.389 . S
C869 C868 1.389 . S
C869 C870 1.387 . S
C870 H855 0.930 . S
C870 C865 1.390 . S
C870 C869 1.387 . S
H871 C883 0.930 . S
H872 C885 0.930 . S
H873 C886 0.930 . S
H874 C890 0.959 . S
H875 C890 0.959 . S
H876 C890 0.961 . S
H877 C891 0.960 . S
H878 C891 0.961 . S
H879 C891 0.959 . S
H880 C894 0.929 . S
H881 C895 0.931 . S
H882 C897 0.930 . S
C883 H871 0.930 . S
C883 C884 1.399 . S
C883 C888 1.399 . S
C884 C883 1.399 . S
C884 C885 1.376 . S
C885 H872 0.930 . S
C885 C884 1.376 . S
C885 C886 1.388 . S
C886 H873 0.930 . S
C886 C885 1.388 . S
C886 C887 1.390 . S
C887 C886 1.390 . S
C887 C888 1.394 . S
C887 C893 1.465 . S
C888 C883 1.399 . S
C888 C887 1.394 . S
C888 C889 1.516 . S
C889 C888 1.516 . S
C889 C890 1.502 . S
C889 C891 1.561 . S
C889 C892 1.526 . S
C890 H874 0.959 . S
C890 H875 0.959 . S
C890 H876 0.961 . S
C890 C889 1.502 . S
C891 H877 0.960 . S
C891 H878 0.961 . S
C891 H879 0.959 . S
C891 C889 1.561 . S
C892 C889 1.526 . S
C892 C893 1.396 . S
C892 C897 1.390 . S
C893 C887 1.465 . S
C893 C892 1.396 . S
C893 C894 1.399 . S
C894 H880 0.929 . S
C894 C893 1.399 . S
C894 C895 1.385 . S
C895 H881 0.931 . S
C895 C894 1.385 . S
C895 C896 1.389 . S
C896 C895 1.389 . S
C896 C897 1.387 . S
C897 H882 0.930 . S
C897 C892 1.390 . S
C897 C896 1.387 . S
H898 C910 0.930 . S
H899 C912 0.930 . S
H900 C913 0.930 . S
H901 C917 0.959 . S
H902 C917 0.959 . S
H903 C917 0.961 . S
H904 C918 0.960 . S
H905 C918 0.961 . S
H906 C918 0.959 . S
H907 C921 0.929 . S
H908 C922 0.931 . S
H909 C924 0.930 . S
C910 H898 0.930 . S
C910 C911 1.399 . S
C910 C915 1.399 . S
C911 C910 1.399 . S
C911 C912 1.376 . S
C912 H899 0.930 . S
C912 C911 1.376 . S
C912 C913 1.388 . S
C913 H900 0.930 . S
C913 C912 1.388 . S
C913 C914 1.390 . S
C914 C913 1.390 . S
C914 C915 1.394 . S
C914 C920 1.465 . S
C915 C910 1.399 . S
C915 C914 1.394 . S
C915 C916 1.516 . S
C916 C915 1.516 . S
C916 C917 1.502 . S
C916 C918 1.561 . S
C916 C919 1.526 . S
C917 H901 0.959 . S
C917 H902 0.959 . S
C917 H903 0.961 . S
C917 C916 1.502 . S
C918 H904 0.960 . S
C918 H905 0.961 . S
C918 H906 0.959 . S
C918 C916 1.561 . S
C919 C916 1.526 . S
C919 C920 1.396 . S
C919 C924 1.390 . S
C920 C914 1.465 . S
C920 C919 1.396 . S
C920 C921 1.399 . S
C921 H907 0.929 . S
C921 C920 1.399 . S
C921 C922 1.385 . S
C922 H908 0.931 . S
C922 C921 1.385 . S
C922 C923 1.389 . S
C923 C922 1.389 . S
C923 C924 1.387 . S
C924 H909 0.930 . S
C924 C919 1.390 . S
C924 C923 1.387 . S
H925 C937 0.930 . S
H926 C939 0.930 . S
H927 C940 0.930 . S
H928 C944 0.959 . S
H929 C944 0.959 . S
H930 C944 0.961 . S
H931 C945 0.960 . S
H932 C945 0.961 . S
H933 C945 0.959 . S
H934 C948 0.929 . S
H935 C949 0.931 . S
H936 C951 0.930 . S
C937 H925 0.930 . S
C937 C938 1.399 . S
C937 C942 1.399 . S
C938 C937 1.399 . S
C938 C939 1.376 . S
C939 H926 0.930 . S
C939 C938 1.376 . S
C939 C940 1.388 . S
C940 H927 0.930 . S
C940 C939 1.388 . S
C940 C941 1.390 . S
C941 C940 1.390 . S
C941 C942 1.394 . S
C941 C947 1.465 . S
C942 C937 1.399 . S
C942 C941 1.394 . S
C942 C943 1.516 . S
C943 C942 1.516 . S
C943 C944 1.502 . S
C943 C945 1.561 . S
C943 C946 1.526 . S
C944 H928 0.959 . S
C944 H929 0.959 . S
C944 H930 0.961 . S
C944 C943 1.502 . S
C945 H931 0.960 . S
C945 H932 0.961 . S
C945 H933 0.959 . S
C945 C943 1.561 . S
C946 C943 1.526 . S
C946 C947 1.396 . S
C946 C951 1.390 . S
C947 C941 1.465 . S
C947 C946 1.396 . S
C947 C948 1.399 . S
C948 H934 0.929 . S
C948 C947 1.399 . S
C948 C949 1.385 . S
C949 H935 0.931 . S
C949 C948 1.385 . S
C949 C950 1.389 . S
C950 C949 1.389 . S
C950 C951 1.387 . S
C951 H936 0.930 . S
C951 C946 1.390 . S
C951 C950 1.387 . S
H952 C964 0.930 . S
H953 C966 0.930 . S
H954 C967 0.930 . S
H955 C971 0.959 . S
H956 C971 0.959 . S
H957 C971 0.961 . S
H958 C972 0.960 . S
H959 C972 0.961 . S
H960 C972 0.959 . S
H961 C975 0.929 . S
H962 C976 0.931 . S
H963 C978 0.930 . S
C964 H952 0.930 . S
C964 C965 1.399 . S
C964 C969 1.399 . S
C965 C964 1.399 . S
C965 C966 1.376 . S
C966 H953 0.930 . S
C966 C965 1.376 . S
C966 C967 1.388 . S
C967 H954 0.930 . S
C967 C966 1.388 . S
C967 C968 1.390 . S
C968 C967 1.390 . S
C968 C969 1.394 . S
C968 C974 1.465 . S
C969 C964 1.399 . S
C969 C968 1.394 . S
C969 C970 1.516 . S
C970 C969 1.516 . S
C970 C971 1.502 . S
C970 C972 1.561 . S
C970 C973 1.526 . S
C971 H955 0.959 . S
C971 H956 0.959 . S
C971 H957 0.961 . S
C971 C970 1.502 . S
C972 H958 0.960 . S
C972 H959 0.961 . S
C972 H960 0.959 . S
C972 C970 1.561 . S
C973 C970 1.526 . S
C973 C974 1.396 . S
C973 C978 1.390 . S
C974 C968 1.465 . S
C974 C973 1.396 . S
C974 C975 1.399 . S
C975 H961 0.929 . S
C975 C974 1.399 . S
C975 C976 1.385 . S
C976 H962 0.931 . S
C976 C975 1.385 . S
C976 C977 1.389 . S
C977 C976 1.389 . S
C977 C978 1.387 . S
C978 H963 0.930 . S
C978 C973 1.390 . S
C978 C977 1.387 . S
H979 C991 0.930 . S
H980 C993 0.930 . S
H981 C994 0.930 . S
H982 C998 0.959 . S
H983 C998 0.959 . S
H984 C998 0.961 . S
H985 C999 0.960 . S
H986 C999 0.961 . S
H987 C999 0.959 . S
H988 C1002 0.929 . S
H989 C1003 0.931 . S
H990 C1005 0.930 . S
C991 H979 0.930 . S
C991 C992 1.399 . S
C991 C996 1.399 . S
C992 C991 1.399 . S
C992 C993 1.376 . S
C993 H980 0.930 . S
C993 C992 1.376 . S
C993 C994 1.388 . S
C994 H981 0.930 . S
C994 C993 1.388 . S
C994 C995 1.390 . S
C995 C994 1.390 . S
C995 C996 1.394 . S
C995 C1001 1.465 . S
C996 C991 1.399 . S
C996 C995 1.394 . S
C996 C997 1.516 . S
C997 C996 1.516 . S
C997 C998 1.502 . S
C997 C999 1.561 . S
C997 C1000 1.526 . S
C998 H982 0.959 . S
C998 H983 0.959 . S
C998 H984 0.961 . S
C998 C997 1.502 . S
C999 H985 0.960 . S
C999 H986 0.961 . S
C999 H987 0.959 . S
C999 C997 1.561 . S
C1000 C997 1.526 . S
C1000 C1001 1.396 . S
C1000 C1005 1.390 . S
C1001 C995 1.465 . S
C1001 C1000 1.396 . S
C1001 C1002 1.399 . S
C1002 H988 0.929 . S
C1002 C1001 1.399 . S
C1002 C1003 1.385 . S
C1003 H989 0.931 . S
C1003 C1002 1.385 . S
C1003 C1004 1.389 . S
C1004 C1003 1.389 . S
C1004 C1005 1.387 . S
C1005 H990 0.930 . S
C1005 C1000 1.390 . S
C1005 C1004 1.387 . S
H1006 C1018 0.930 . S
H1007 C1020 0.930 . S
H1008 C1021 0.930 . S
H1009 C1025 0.959 . S
H1010 C1025 0.959 . S
H1011 C1025 0.961 . S
H1012 C1026 0.960 . S
H1013 C1026 0.961 . S
H1014 C1026 0.959 . S
H1015 C1029 0.929 . S
H1016 C1030 0.931 . S
H1017 C1032 0.930 . S
C1018 H1006 0.930 . S
C1018 C1019 1.399 . S
C1018 C1023 1.399 . S
C1019 C1018 1.399 . S
C1019 C1020 1.376 . S
C1020 H1007 0.930 . S
C1020 C1019 1.376 . S
C1020 C1021 1.388 . S
C1021 H1008 0.930 . S
C1021 C1020 1.388 . S
C1021 C1022 1.390 . S
C1022 C1021 1.390 . S
C1022 C1023 1.394 . S
C1022 C1028 1.465 . S
C1023 C1018 1.399 . S
C1023 C1022 1.394 . S
C1023 C1024 1.516 . S
C1024 C1023 1.516 . S
C1024 C1025 1.502 . S
C1024 C1026 1.561 . S
C1024 C1027 1.526 . S
C1025 H1009 0.959 . S
C1025 H1010 0.959 . S
C1025 H1011 0.961 . S
C1025 C1024 1.502 . S
C1026 H1012 0.960 . S
C1026 H1013 0.961 . S
C1026 H1014 0.959 . S
C1026 C1024 1.561 . S
C1027 C1024 1.526 . S
C1027 C1028 1.396 . S
C1027 C1032 1.390 . S
C1028 C1022 1.465 . S
C1028 C1027 1.396 . S
C1028 C1029 1.399 . S
C1029 H1015 0.929 . S
C1029 C1028 1.399 . S
C1029 C1030 1.385 . S
C1030 H1016 0.931 . S
C1030 C1029 1.385 . S
C1030 C1031 1.389 . S
C1031 C1030 1.389 . S
C1031 C1032 1.387 . S
C1032 H1017 0.930 . S
C1032 C1027 1.390 . S
C1032 C1031 1.387 . S
H1033 C1045 0.930 . S
H1034 C1047 0.930 . S
H1035 C1048 0.930 . S
H1036 C1052 0.959 . S
H1037 C1052 0.959 . S
H1038 C1052 0.961 . S
H1039 C1053 0.960 . S
H1040 C1053 0.961 . S
H1041 C1053 0.959 . S
H1042 C1056 0.929 . S
H1043 C1057 0.931 . S
H1044 C1059 0.930 . S
C1045 H1033 0.930 . S
C1045 C1046 1.399 . S
C1045 C1050 1.399 . S
C1046 C1045 1.399 . S
C1046 C1047 1.376 . S
C1047 H1034 0.930 . S
C1047 C1046 1.376 . S
C1047 C1048 1.388 . S
C1048 H1035 0.930 . S
C1048 C1047 1.388 . S
C1048 C1049 1.390 . S
C1049 C1048 1.390 . S
C1049 C1050 1.394 . S
C1049 C1055 1.465 . S
C1050 C1045 1.399 . S
C1050 C1049 1.394 . S
C1050 C1051 1.516 . S
C1051 C1050 1.516 . S
C1051 C1052 1.502 . S
C1051 C1053 1.561 . S
C1051 C1054 1.526 . S
C1052 H1036 0.959 . S
C1052 H1037 0.959 . S
C1052 H1038 0.961 . S
C1052 C1051 1.502 . S
C1053 H1039 0.960 . S
C1053 H1040 0.961 . S
C1053 H1041 0.959 . S
C1053 C1051 1.561 . S
C1054 C1051 1.526 . S
C1054 C1055 1.396 . S
C1054 C1059 1.390 . S
C1055 C1049 1.465 . S
C1055 C1054 1.396 . S
C1055 C1056 1.399 . S
C1056 H1042 0.929 . S
C1056 C1055 1.399 . S
C1056 C1057 1.385 . S
C1057 H1043 0.931 . S
C1057 C1056 1.385 . S
C1057 C1058 1.389 . S
C1058 C1057 1.389 . S
C1058 C1059 1.387 . S
C1059 H1044 0.930 . S
C1059 C1054 1.390 . S
C1059 C1058 1.387 . S
H1060 C1072 0.930 . S
H1061 C1074 0.930 . S
H1062 C1075 0.930 . S
H1063 C1079 0.959 . S
H1064 C1079 0.959 . S
H1065 C1079 0.961 . S
H1066 C1080 0.960 . S
H1067 C1080 0.961 . S
H1068 C1080 0.959 . S
H1069 C1083 0.929 . S
H1070 C1084 0.931 . S
H1071 C1086 0.930 . S
C1072 H1060 0.930 . S
C1072 C1073 1.399 . S
C1072 C1077 1.399 . S
C1073 C1072 1.399 . S
C1073 C1074 1.376 . S
C1074 H1061 0.930 . S
C1074 C1073 1.376 . S
C1074 C1075 1.388 . S
C1075 H1062 0.930 . S
C1075 C1074 1.388 . S
C1075 C1076 1.390 . S
C1076 C1075 1.390 . S
C1076 C1077 1.394 . S
C1076 C1082 1.465 . S
C1077 C1072 1.399 . S
C1077 C1076 1.394 . S
C1077 C1078 1.516 . S
C1078 C1077 1.516 . S
C1078 C1079 1.502 . S
C1078 C1080 1.561 . S
C1078 C1081 1.526 . S
C1079 H1063 0.959 . S
C1079 H1064 0.959 . S
C1079 H1065 0.961 . S
C1079 C1078 1.502 . S
C1080 H1066 0.960 . S
C1080 H1067 0.961 . S
C1080 H1068 0.959 . S
C1080 C1078 1.561 . S
C1081 C1078 1.526 . S
C1081 C1082 1.396 . S
C1081 C1086 1.390 . S
C1082 C1076 1.465 . S
C1082 C1081 1.396 . S
C1082 C1083 1.399 . S
C1083 H1069 0.929 . S
C1083 C1082 1.399 . S
C1083 C1084 1.385 . S
C1084 H1070 0.931 . S
C1084 C1083 1.385 . S
C1084 C1085 1.389 . S
C1085 C1084 1.389 . S
C1085 C1086 1.387 . S
C1086 H1071 0.930 . S
C1086 C1081 1.390 . S
C1086 C1085 1.387 . S
H1087 C1099 0.930 . S
H1088 C1101 0.930 . S
H1089 C1102 0.930 . S
H1090 C1106 0.959 . S
H1091 C1106 0.959 . S
H1092 C1106 0.961 . S
H1093 C1107 0.960 . S
H1094 C1107 0.961 . S
H1095 C1107 0.959 . S
H1096 C1110 0.929 . S
H1097 C1111 0.931 . S
H1098 C1113 0.930 . S
C1099 H1087 0.930 . S
C1099 C1100 1.399 . S
C1099 C1104 1.399 . S
C1100 C1099 1.399 . S
C1100 C1101 1.376 . S
C1101 H1088 0.930 . S
C1101 C1100 1.376 . S
C1101 C1102 1.388 . S
C1102 H1089 0.930 . S
C1102 C1101 1.388 . S
C1102 C1103 1.390 . S
C1103 C1102 1.390 . S
C1103 C1104 1.394 . S
C1103 C1109 1.465 . S
C1104 C1099 1.399 . S
C1104 C1103 1.394 . S
C1104 C1105 1.516 . S
C1105 C1104 1.516 . S
C1105 C1106 1.502 . S
C1105 C1107 1.561 . S
C1105 C1108 1.526 . S
C1106 H1090 0.959 . S
C1106 H1091 0.959 . S
C1106 H1092 0.961 . S
C1106 C1105 1.502 . S
C1107 H1093 0.960 . S
C1107 H1094 0.961 . S
C1107 H1095 0.959 . S
C1107 C1105 1.561 . S
C1108 C1105 1.526 . S
C1108 C1109 1.396 . S
C1108 C1113 1.390 . S
C1109 C1103 1.465 . S
C1109 C1108 1.396 . S
C1109 C1110 1.399 . S
C1110 H1096 0.929 . S
C1110 C1109 1.399 . S
C1110 C1111 1.385 . S
C1111 H1097 0.931 . S
C1111 C1110 1.385 . S
C1111 C1112 1.389 . S
C1112 C1111 1.389 . S
C1112 C1113 1.387 . S
C1113 H1098 0.930 . S
C1113 C1108 1.390 . S
C1113 C1112 1.387 . S
H1114 C1126 0.930 . S
H1115 C1128 0.930 . S
H1116 C1129 0.930 . S
H1117 C1133 0.959 . S
H1118 C1133 0.959 . S
H1119 C1133 0.961 . S
H1120 C1134 0.960 . S
H1121 C1134 0.961 . S
H1122 C1134 0.959 . S
H1123 C1137 0.929 . S
H1124 C1138 0.931 . S
H1125 C1140 0.930 . S
C1126 H1114 0.930 . S
C1126 C1127 1.399 . S
C1126 C1131 1.399 . S
C1127 C1126 1.399 . S
C1127 C1128 1.376 . S
C1128 H1115 0.930 . S
C1128 C1127 1.376 . S
C1128 C1129 1.388 . S
C1129 H1116 0.930 . S
C1129 C1128 1.388 . S
C1129 C1130 1.390 . S
C1130 C1129 1.390 . S
C1130 C1131 1.394 . S
C1130 C1136 1.465 . S
C1131 C1126 1.399 . S
C1131 C1130 1.394 . S
C1131 C1132 1.516 . S
C1132 C1131 1.516 . S
C1132 C1133 1.502 . S
C1132 C1134 1.561 . S
C1132 C1135 1.526 . S
C1133 H1117 0.959 . S
C1133 H1118 0.959 . S
C1133 H1119 0.961 . S
C1133 C1132 1.502 . S
C1134 H1120 0.960 . S
C1134 H1121 0.961 . S
C1134 H1122 0.959 . S
C1134 C1132 1.561 . S
C1135 C1132 1.526 . S
C1135 C1136 1.396 . S
C1135 C1140 1.390 . S
C1136 C1130 1.465 . S
C1136 C1135 1.396 . S
C1136 C1137 1.399 . S
C1137 H1123 0.929 . S
C1137 C1136 1.399 . S
C1137 C1138 1.385 . S
C1138 H1124 0.931 . S
C1138 C1137 1.385 . S
C1138 C1139 1.389 . S
C1139 C1138 1.389 . S
C1139 C1140 1.387 . S
C1140 H1125 0.930 . S
C1140 C1135 1.390 . S
C1140 C1139 1.387 . S
H1141 C1153 0.930 . S
H1142 C1155 0.930 . S
H1143 C1156 0.930 . S
H1144 C1160 0.959 . S
H1145 C1160 0.959 . S
H1146 C1160 0.961 . S
H1147 C1161 0.960 . S
H1148 C1161 0.961 . S
H1149 C1161 0.959 . S
H1150 C1164 0.929 . S
H1151 C1165 0.931 . S
H1152 C1167 0.930 . S
C1153 H1141 0.930 . S
C1153 C1154 1.399 . S
C1153 C1158 1.399 . S
C1154 C1153 1.399 . S
C1154 C1155 1.376 . S
C1155 H1142 0.930 . S
C1155 C1154 1.376 . S
C1155 C1156 1.388 . S
C1156 H1143 0.930 . S
C1156 C1155 1.388 . S
C1156 C1157 1.390 . S
C1157 C1156 1.390 . S
C1157 C1158 1.394 . S
C1157 C1163 1.465 . S
C1158 C1153 1.399 . S
C1158 C1157 1.394 . S
C1158 C1159 1.516 . S
C1159 C1158 1.516 . S
C1159 C1160 1.502 . S
C1159 C1161 1.561 . S
C1159 C1162 1.526 . S
C1160 H1144 0.959 . S
C1160 H1145 0.959 . S
C1160 H1146 0.961 . S
C1160 C1159 1.502 . S
C1161 H1147 0.960 . S
C1161 H1148 0.961 . S
C1161 H1149 0.959 . S
C1161 C1159 1.561 . S
C1162 C1159 1.526 . S
C1162 C1163 1.396 . S
C1162 C1167 1.390 . S
C1163 C1157 1.465 . S
C1163 C1162 1.396 . S
C1163 C1164 1.399 . S
C1164 H1150 0.929 . S
C1164 C1163 1.399 . S
C1164 C1165 1.385 . S
C1165 H1151 0.931 . S
C1165 C1164 1.385 . S
C1165 C1166 1.389 . S
C1166 C1165 1.389 . S
C1166 C1167 1.387 . S
C1167 H1152 0.930 . S
C1167 C1162 1.390 . S
C1167 C1166 1.387 . S
H1168 C1180 0.930 . S
H1169 C1182 0.930 . S
H1170 C1183 0.930 . S
H1171 C1187 0.959 . S
H1172 C1187 0.959 . S
H1173 C1187 0.961 . S
H1174 C1188 0.960 . S
H1175 C1188 0.961 . S
H1176 C1188 0.959 . S
H1177 C1191 0.929 . S
H1178 C1192 0.931 . S
H1179 C1194 0.930 . S
C1180 H1168 0.930 . S
C1180 C1181 1.399 . S
C1180 C1185 1.399 . S
C1181 C1180 1.399 . S
C1181 C1182 1.376 . S
C1182 H1169 0.930 . S
C1182 C1181 1.376 . S
C1182 C1183 1.388 . S
C1183 H1170 0.930 . S
C1183 C1182 1.388 . S
C1183 C1184 1.390 . S
C1184 C1183 1.390 . S
C1184 C1185 1.394 . S
C1184 C1190 1.465 . S
C1185 C1180 1.399 . S
C1185 C1184 1.394 . S
C1185 C1186 1.516 . S
C1186 C1185 1.516 . S
C1186 C1187 1.502 . S
C1186 C1188 1.561 . S
C1186 C1189 1.526 . S
C1187 H1171 0.959 . S
C1187 H1172 0.959 . S
C1187 H1173 0.961 . S
C1187 C1186 1.502 . S
C1188 H1174 0.960 . S
C1188 H1175 0.961 . S
C1188 H1176 0.959 . S
C1188 C1186 1.561 . S
C1189 C1186 1.526 . S
C1189 C1190 1.396 . S
C1189 C1194 1.390 . S
C1190 C1184 1.465 . S
C1190 C1189 1.396 . S
C1190 C1191 1.399 . S
C1191 H1177 0.929 . S
C1191 C1190 1.399 . S
C1191 C1192 1.385 . S
C1192 H1178 0.931 . S
C1192 C1191 1.385 . S
C1192 C1193 1.389 . S
C1193 C1192 1.389 . S
C1193 C1194 1.387 . S
C1194 H1179 0.930 . S
C1194 C1189 1.390 . S
C1194 C1193 1.387 . S
H1195 C1207 0.930 . S
H1196 C1209 0.930 . S
H1197 C1210 0.930 . S
H1198 C1214 0.959 . S
H1199 C1214 0.959 . S
H1200 C1214 0.961 . S
H1201 C1215 0.960 . S
H1202 C1215 0.961 . S
H1203 C1215 0.959 . S
H1204 C1218 0.929 . S
H1205 C1219 0.931 . S
H1206 C1221 0.935 . S
C1207 H1195 0.930 . S
C1207 C1208 1.399 . S
C1207 C1212 1.399 . S
C1208 C1207 1.399 . S
C1208 C1209 1.376 . S
C1209 H1196 0.930 . S
C1209 C1208 1.376 . S
C1209 C1210 1.388 . S
C1210 H1197 0.930 . S
C1210 C1209 1.388 . S
C1210 C1211 1.390 . S
C1211 C1210 1.390 . S
C1211 C1212 1.394 . S
C1211 C1217 1.465 . S
C1212 C1207 1.399 . S
C1212 C1211 1.394 . S
C1212 C1213 1.516 . S
C1213 C1212 1.516 . S
C1213 C1214 1.502 . S
C1213 C1215 1.561 . S
C1213 C1216 1.526 . S
C1214 H1198 0.959 . S
C1214 H1199 0.959 . S
C1214 H1200 0.961 . S
C1214 C1213 1.502 . S
C1215 H1201 0.960 . S
C1215 H1202 0.961 . S
C1215 H1203 0.959 . S
C1215 C1213 1.561 . S
C1216 C1213 1.526 . S
C1216 C1217 1.396 . S
C1216 C1221 1.390 1_655 S
C1217 C1211 1.465 . S
C1217 C1216 1.396 . S
C1217 C1218 1.399 1_655 S
C1218 H1204 0.929 . S
C1218 C1217 1.399 1_455 S
C1218 C1219 1.385 . S
C1219 H1205 0.931 . S
C1219 C1218 1.385 . S
C1219 C1220 1.389 . S
C1220 C1219 1.389 . S
C1220 C1221 1.387 . S
C1221 H1206 0.935 . S
C1221 C1216 1.390 1_455 S
C1221 C1220 1.387 . S
H1222 C1234 0.930 . S
H1223 C1236 0.930 . S
H1224 C1237 0.930 . S
H1225 C1241 0.959 . S
H1226 C1241 0.959 . S
H1227 C1241 0.961 . S
H1228 C1242 0.960 . S
H1229 C1242 0.961 . S
H1230 C1242 0.959 . S
H1231 C1245 0.929 . S
H1232 C1246 0.931 . S
H1233 C1248 0.930 . S
C1234 H1222 0.930 . S
C1234 C1235 1.399 . S
C1234 C1239 1.399 . S
C1235 C1234 1.399 . S
C1235 C1236 1.376 . S
C1236 H1223 0.930 . S
C1236 C1235 1.376 . S
C1236 C1237 1.388 . S
C1237 H1224 0.930 . S
C1237 C1236 1.388 . S
C1237 C1238 1.390 . S
C1238 C1237 1.390 . S
C1238 C1239 1.394 . S
C1238 C1244 1.465 . S
C1239 C1234 1.399 . S
C1239 C1238 1.394 . S
C1239 C1240 1.516 . S
C1240 C1239 1.516 . S
C1240 C1241 1.502 . S
C1240 C1242 1.561 . S
C1240 C1243 1.526 . S
C1241 H1225 0.959 . S
C1241 H1226 0.959 . S
C1241 H1227 0.961 . S
C1241 C1240 1.502 . S
C1242 H1228 0.960 . S
C1242 H1229 0.961 . S
C1242 H1230 0.959 . S
C1242 C1240 1.561 . S
C1243 C1240 1.526 . S
C1243 C1244 1.396 . S
C1243 C1248 1.390 . S
C1244 C1238 1.465 . S
C1244 C1243 1.396 . S
C1244 C1245 1.399 . S
C1245 H1231 0.929 . S
C1245 C1244 1.399 . S
C1245 C1246 1.385 . S
C1246 H1232 0.931 . S
C1246 C1245 1.385 . S
C1246 C1247 1.389 . S
C1247 C1246 1.389 . S
C1247 C1248 1.387 . S
C1248 H1233 0.930 . S
C1248 C1243 1.390 . S
C1248 C1247 1.387 . S
H1249 C1261 0.930 . S
H1250 C1263 0.930 . S
H1251 C1264 0.930 . S
H1252 C1268 0.959 . S
H1253 C1268 0.959 . S
H1254 C1268 0.961 . S
H1255 C1269 0.960 . S
H1256 C1269 0.961 . S
H1257 C1269 0.959 . S
H1258 C1272 0.929 . S
H1259 C1273 0.931 . S
H1260 C1275 0.930 . S
C1261 H1249 0.930 . S
C1261 C1262 1.399 . S
C1261 C1266 1.399 . S
C1262 C1261 1.399 . S
C1262 C1263 1.376 . S
C1263 H1250 0.930 . S
C1263 C1262 1.376 . S
C1263 C1264 1.388 . S
C1264 H1251 0.930 . S
C1264 C1263 1.388 . S
C1264 C1265 1.390 . S
C1265 C1264 1.390 . S
C1265 C1266 1.394 . S
C1265 C1271 1.465 . S
C1266 C1261 1.399 . S
C1266 C1265 1.394 . S
C1266 C1267 1.516 . S
C1267 C1266 1.516 . S
C1267 C1268 1.502 . S
C1267 C1269 1.561 . S
C1267 C1270 1.526 . S
C1268 H1252 0.959 . S
C1268 H1253 0.959 . S
C1268 H1254 0.961 . S
C1268 C1267 1.502 . S
C1269 H1255 0.960 . S
C1269 H1256 0.961 . S
C1269 H1257 0.959 . S
C1269 C1267 1.561 . S
C1270 C1267 1.526 . S
C1270 C1271 1.396 . S
C1270 C1275 1.390 . S
C1271 C1265 1.465 . S
C1271 C1270 1.396 . S
C1271 C1272 1.399 . S
C1272 H1258 0.929 . S
C1272 C1271 1.399 . S
C1272 C1273 1.385 . S
C1273 H1259 0.931 . S
C1273 C1272 1.385 . S
C1273 C1274 1.389 . S
C1274 C1273 1.389 . S
C1274 C1275 1.387 . S
C1275 H1260 0.930 . S
C1275 C1270 1.390 . S
C1275 C1274 1.387 . S
H1276 C1288 0.930 . S
H1277 C1290 0.930 . S
H1278 C1291 0.930 . S
H1279 C1295 0.959 . S
H1280 C1295 0.959 . S
H1281 C1295 0.961 . S
H1282 C1296 0.960 . S
H1283 C1296 0.961 . S
H1284 C1296 0.959 . S
H1285 C1299 0.929 . S
H1286 C1300 0.931 . S
H1287 C1302 0.930 . S
C1288 H1276 0.930 . S
C1288 C1289 1.399 . S
C1288 C1293 1.399 . S
C1289 C1288 1.399 . S
C1289 C1290 1.376 . S
C1290 H1277 0.930 . S
C1290 C1289 1.376 . S
C1290 C1291 1.388 . S
C1291 H1278 0.930 . S
C1291 C1290 1.388 . S
C1291 C1292 1.390 . S
C1292 C1291 1.390 . S
C1292 C1293 1.394 . S
C1292 C1298 1.465 . S
C1293 C1288 1.399 . S
C1293 C1292 1.394 . S
C1293 C1294 1.516 . S
C1294 C1293 1.516 . S
C1294 C1295 1.502 . S
C1294 C1296 1.561 . S
C1294 C1297 1.526 . S
C1295 H1279 0.959 . S
C1295 H1280 0.959 . S
C1295 H1281 0.961 . S
C1295 C1294 1.502 . S
C1296 H1282 0.960 . S
C1296 H1283 0.961 . S
C1296 H1284 0.959 . S
C1296 C1294 1.561 . S
C1297 C1294 1.526 . S
C1297 C1298 1.396 . S
C1297 C1302 1.390 . S
C1298 C1292 1.465 . S
C1298 C1297 1.396 . S
C1298 C1299 1.399 . S
C1299 H1285 0.929 . S
C1299 C1298 1.399 . S
C1299 C1300 1.385 . S
C1300 H1286 0.931 . S
C1300 C1299 1.385 . S
C1300 C1301 1.389 . S
C1301 C1300 1.389 . S
C1301 C1302 1.387 . S
C1302 H1287 0.930 . S
C1302 C1297 1.390 . S
C1302 C1301 1.387 . S
H1303 C1315 0.930 . S
H1304 C1317 0.930 . S
H1305 C1318 0.930 . S
H1306 C1322 0.959 . S
H1307 C1322 0.959 . S
H1308 C1322 0.961 . S
H1309 C1323 0.960 . S
H1310 C1323 0.961 . S
H1311 C1323 0.959 . S
H1312 C1326 0.929 . S
H1313 C1327 0.931 . S
H1314 C1329 0.930 . S
C1315 H1303 0.930 . S
C1315 C1316 1.399 . S
C1315 C1320 1.399 . S
C1316 C1315 1.399 . S
C1316 C1317 1.376 . S
C1317 H1304 0.930 . S
C1317 C1316 1.376 . S
C1317 C1318 1.388 . S
C1318 H1305 0.930 . S
C1318 C1317 1.388 . S
C1318 C1319 1.390 . S
C1319 C1318 1.390 . S
C1319 C1320 1.394 . S
C1319 C1325 1.465 . S
C1320 C1315 1.399 . S
C1320 C1319 1.394 . S
C1320 C1321 1.516 . S
C1321 C1320 1.516 . S
C1321 C1322 1.502 . S
C1321 C1323 1.561 . S
C1321 C1324 1.526 . S
C1322 H1306 0.959 . S
C1322 H1307 0.959 . S
C1322 H1308 0.961 . S
C1322 C1321 1.502 . S
C1323 H1309 0.960 . S
C1323 H1310 0.961 . S
C1323 H1311 0.959 . S
C1323 C1321 1.561 . S
C1324 C1321 1.526 . S
C1324 C1325 1.396 . S
C1324 C1329 1.390 . S
C1325 C1319 1.465 . S
C1325 C1324 1.396 . S
C1325 C1326 1.399 . S
C1326 H1312 0.929 . S
C1326 C1325 1.399 . S
C1326 C1327 1.385 . S
C1327 H1313 0.931 . S
C1327 C1326 1.385 . S
C1327 C1328 1.389 . S
C1328 C1327 1.389 . S
C1328 C1329 1.387 . S
C1329 H1314 0.930 . S
C1329 C1324 1.390 . S
C1329 C1328 1.387 . S
H1330 C1342 0.930 . S
H1331 C1344 0.930 . S
H1332 C1345 0.930 . S
H1333 C1349 0.959 . S
H1334 C1349 0.959 . S
H1335 C1349 0.961 . S
H1336 C1350 0.960 . S
H1337 C1350 0.961 . S
H1338 C1350 0.959 . S
H1339 C1353 0.929 . S
H1340 C1354 0.931 . S
H1341 C1356 0.930 . S
C1342 H1330 0.930 . S
C1342 C1343 1.399 . S
C1342 C1347 1.399 . S
C1343 C1342 1.399 . S
C1343 C1344 1.376 . S
C1344 H1331 0.930 . S
C1344 C1343 1.376 . S
C1344 C1345 1.388 . S
C1345 H1332 0.930 . S
C1345 C1344 1.388 . S
C1345 C1346 1.390 . S
C1346 C1345 1.390 . S
C1346 C1347 1.394 . S
C1346 C1352 1.465 . S
C1347 C1342 1.399 . S
C1347 C1346 1.394 . S
C1347 C1348 1.516 . S
C1348 C1347 1.516 . S
C1348 C1349 1.502 . S
C1348 C1350 1.561 . S
C1348 C1351 1.526 . S
C1349 H1333 0.959 . S
C1349 H1334 0.959 . S
C1349 H1335 0.961 . S
C1349 C1348 1.502 . S
C1350 H1336 0.960 . S
C1350 H1337 0.961 . S
C1350 H1338 0.959 . S
C1350 C1348 1.561 . S
C1351 C1348 1.526 . S
C1351 C1352 1.396 . S
C1351 C1356 1.390 . S
C1352 C1346 1.465 . S
C1352 C1351 1.396 . S
C1352 C1353 1.399 . S
C1353 H1339 0.929 . S
C1353 C1352 1.399 . S
C1353 C1354 1.385 . S
C1354 H1340 0.931 . S
C1354 C1353 1.385 . S
C1354 C1355 1.389 . S
C1355 C1354 1.389 . S
C1355 C1356 1.387 . S
C1356 H1341 0.930 . S
C1356 C1351 1.390 . S
C1356 C1355 1.387 . S
H1357 C1369 0.930 . S
H1358 C1371 0.930 . S
H1359 C1372 0.930 . S
H1360 C1376 0.959 . S
H1361 C1376 0.959 . S
H1362 C1376 0.961 . S
H1363 C1377 0.960 . S
H1364 C1377 0.961 . S
H1365 C1377 0.959 . S
H1366 C1380 0.929 . S
H1367 C1381 0.931 . S
H1368 C1383 0.930 . S
C1369 H1357 0.930 . S
C1369 C1370 1.399 . S
C1369 C1374 1.399 1_455 S
C1370 C1369 1.399 . S
C1370 C1371 1.376 . S
C1371 H1358 0.930 . S
C1371 C1370 1.376 . S
C1371 C1372 1.388 1_455 S
C1372 H1359 0.930 . S
C1372 C1371 1.388 1_655 S
C1372 C1373 1.390 . S
C1373 C1372 1.390 . S
C1373 C1374 1.394 . S
C1373 C1379 1.465 . S
C1374 C1369 1.399 1_655 S
C1374 C1373 1.394 . S
C1374 C1375 1.516 . S
C1375 C1374 1.516 . S
C1375 C1376 1.502 . S
C1375 C1377 1.561 . S
C1375 C1378 1.526 . S
C1376 H1360 0.959 . S
C1376 H1361 0.959 . S
C1376 H1362 0.961 . S
C1376 C1375 1.502 . S
C1377 H1363 0.960 . S
C1377 H1364 0.961 . S
C1377 H1365 0.959 . S
C1377 C1375 1.561 . S
C1378 C1375 1.526 . S
C1378 C1379 1.396 . S
C1378 C1383 1.390 . S
C1379 C1373 1.465 . S
C1379 C1378 1.396 . S
C1379 C1380 1.399 . S
C1380 H1366 0.929 . S
C1380 C1379 1.399 . S
C1380 C1381 1.385 . S
C1381 H1367 0.931 . S
C1381 C1380 1.385 . S
C1381 C1382 1.389 . S
C1382 C1381 1.389 . S
C1382 C1383 1.387 . S
C1383 H1368 0.930 . S
C1383 C1378 1.390 . S
C1383 C1382 1.387 . S
H1384 C1396 0.930 . S
H1385 C1398 0.930 . S
H1386 C1399 0.930 . S
H1387 C1403 0.959 . S
H1388 C1403 0.959 . S
H1389 C1403 0.961 . S
H1390 C1404 0.960 . S
H1391 C1404 0.961 . S
H1392 C1404 0.959 . S
H1393 C1407 0.929 . S
H1394 C1408 0.931 . S
H1395 C1410 0.930 . S
C1396 H1384 0.930 . S
C1396 C1397 1.399 . S
C1396 C1401 1.399 . S
C1397 C1396 1.399 . S
C1397 C1398 1.376 . S
C1398 H1385 0.930 . S
C1398 C1397 1.376 . S
C1398 C1399 1.388 . S
C1399 H1386 0.930 . S
C1399 C1398 1.388 . S
C1399 C1400 1.390 . S
C1400 C1399 1.390 . S
C1400 C1401 1.394 . S
C1400 C1406 1.465 . S
C1401 C1396 1.399 . S
C1401 C1400 1.394 . S
C1401 C1402 1.516 . S
C1402 C1401 1.516 . S
C1402 C1403 1.502 . S
C1402 C1404 1.561 . S
C1402 C1405 1.526 . S
C1403 H1387 0.959 . S
C1403 H1388 0.959 . S
C1403 H1389 0.961 . S
C1403 C1402 1.502 . S
C1404 H1390 0.960 . S
C1404 H1391 0.961 . S
C1404 H1392 0.959 . S
C1404 C1402 1.561 . S
C1405 C1402 1.526 . S
C1405 C1406 1.396 . S
C1405 C1410 1.390 . S
C1406 C1400 1.465 . S
C1406 C1405 1.396 . S
C1406 C1407 1.399 . S
C1407 H1393 0.929 . S
C1407 C1406 1.399 . S
C1407 C1408 1.385 . S
C1408 H1394 0.931 . S
C1408 C1407 1.385 . S
C1408 C1409 1.389 . S
C1409 C1408 1.389 . S
C1409 C1410 1.387 . S
C1410 H1395 0.930 . S
C1410 C1405 1.390 . S
C1410 C1409 1.387 . S
H1411 C1423 0.930 . S
H1412 C1425 0.930 . S
H1413 C1426 0.930 . S
H1414 C1430 0.959 1_655 S
H1415 C1430 0.959 . S
H1416 C1430 0.961 1_655 S
H1417 C1431 0.960 . S
H1418 C1431 0.961 . S
H1419 C1431 0.959 . S
H1420 C1434 0.929 . S
H1421 C1435 0.931 . S
H1422 C1437 0.930 . S
C1423 H1411 0.930 . S
C1423 C1424 1.399 . S
C1423 C1428 1.399 . S
C1424 C1423 1.399 . S
C1424 C1425 1.376 . S
C1425 H1412 0.930 . S
C1425 C1424 1.376 . S
C1425 C1426 1.388 . S
C1426 H1413 0.930 . S
C1426 C1425 1.388 . S
C1426 C1427 1.390 . S
C1427 C1426 1.390 . S
C1427 C1428 1.394 . S
C1427 C1433 1.465 1_655 S
C1428 C1423 1.399 . S
C1428 C1427 1.394 . S
C1428 C1429 1.516 1_655 S
C1429 C1428 1.516 1_455 S
C1429 C1430 1.502 . S
C1429 C1431 1.561 . S
C1429 C1432 1.526 . S
C1430 H1414 0.959 1_455 S
C1430 H1415 0.959 . S
C1430 H1416 0.961 1_455 S
C1430 C1429 1.502 . S
C1431 H1417 0.960 . S
C1431 H1418 0.961 . S
C1431 H1419 0.959 . S
C1431 C1429 1.561 . S
C1432 C1429 1.526 . S
C1432 C1433 1.396 . S
C1432 C1437 1.390 . S
C1433 C1427 1.465 1_455 S
C1433 C1432 1.396 . S
C1433 C1434 1.399 . S
C1434 H1420 0.929 . S
C1434 C1433 1.399 . S
C1434 C1435 1.385 . S
C1435 H1421 0.931 . S
C1435 C1434 1.385 . S
C1435 C1436 1.389 . S
C1436 C1435 1.389 . S
C1436 C1437 1.387 . S
C1437 H1422 0.930 . S
C1437 C1432 1.390 . S
C1437 C1436 1.387 . S
H1438 C1450 0.930 . S
H1439 C1452 0.930 . S
H1440 C1453 0.930 . S
H1441 C1457 0.959 . S
H1442 C1457 0.959 . S
H1443 C1457 0.961 . S
H1444 C1458 0.960 . S
H1445 C1458 0.961 . S
H1446 C1458 0.959 . S
H1447 C1461 0.929 . S
H1448 C1462 0.931 . S
H1449 C1464 0.930 . S
C1450 H1438 0.930 . S
C1450 C1451 1.399 . S
C1450 C1455 1.399 . S
C1451 C1450 1.399 . S
C1451 C1452 1.376 . S
C1452 H1439 0.930 . S
C1452 C1451 1.376 . S
C1452 C1453 1.388 . S
C1453 H1440 0.930 . S
C1453 C1452 1.388 . S
C1453 C1454 1.390 . S
C1454 C1453 1.390 . S
C1454 C1455 1.394 . S
C1454 C1460 1.465 . S
C1455 C1450 1.399 . S
C1455 C1454 1.394 . S
C1455 C1456 1.516 . S
C1456 C1455 1.516 . S
C1456 C1457 1.502 . S
C1456 C1458 1.561 . S
C1456 C1459 1.526 . S
C1457 H1441 0.959 . S
C1457 H1442 0.959 . S
C1457 H1443 0.961 . S
C1457 C1456 1.502 . S
C1458 H1444 0.960 . S
C1458 H1445 0.961 . S
C1458 H1446 0.959 . S
C1458 C1456 1.561 . S
C1459 C1456 1.526 . S
C1459 C1460 1.396 . S
C1459 C1464 1.390 . S
C1460 C1454 1.465 . S
C1460 C1459 1.396 . S
C1460 C1461 1.399 . S
C1461 H1447 0.929 . S
C1461 C1460 1.399 . S
C1461 C1462 1.385 . S
C1462 H1448 0.931 . S
C1462 C1461 1.385 . S
C1462 C1463 1.389 . S
C1463 C1462 1.389 . S
C1463 C1464 1.387 . S
C1464 H1449 0.930 . S
C1464 C1459 1.390 . S
C1464 C1463 1.387 . S
H1465 C1477 0.930 . S
H1466 C1479 0.930 . S
H1467 C1480 0.930 . S
H1468 C1484 0.959 . S
H1469 C1484 0.959 . S
H1470 C1484 0.961 . S
H1471 C1485 0.960 . S
H1472 C1485 0.961 . S
H1473 C1485 0.959 . S
H1474 C1488 0.929 . S
H1475 C1489 0.931 . S
H1476 C1491 0.930 . S
C1477 H1465 0.930 . S
C1477 C1478 1.399 . S
C1477 C1482 1.399 . S
C1478 C1477 1.399 . S
C1478 C1479 1.376 . S
C1479 H1466 0.930 . S
C1479 C1478 1.376 . S
C1479 C1480 1.388 . S
C1480 H1467 0.930 . S
C1480 C1479 1.388 . S
C1480 C1481 1.390 . S
C1481 C1480 1.390 . S
C1481 C1482 1.394 . S
C1481 C1487 1.465 . S
C1482 C1477 1.399 . S
C1482 C1481 1.394 . S
C1482 C1483 1.516 . S
C1483 C1482 1.516 . S
C1483 C1484 1.502 . S
C1483 C1485 1.561 . S
C1483 C1486 1.526 . S
C1484 H1468 0.959 . S
C1484 H1469 0.959 . S
C1484 H1470 0.961 . S
C1484 C1483 1.502 . S
C1485 H1471 0.960 . S
C1485 H1472 0.961 . S
C1485 H1473 0.959 . S
C1485 C1483 1.561 . S
C1486 C1483 1.526 . S
C1486 C1487 1.396 . S
C1486 C1491 1.390 . S
C1487 C1481 1.465 . S
C1487 C1486 1.396 . S
C1487 C1488 1.399 . S
C1488 H1474 0.929 . S
C1488 C1487 1.399 . S
C1488 C1489 1.385 . S
C1489 H1475 0.931 . S
C1489 C1488 1.385 . S
C1489 C1490 1.389 . S
C1490 C1489 1.389 . S
C1490 C1491 1.387 . S
C1491 H1476 0.930 . S
C1491 C1486 1.390 . S
C1491 C1490 1.387 . S
H1492 C1504 0.930 . S
H1493 C1506 0.930 . S
H1494 C1507 0.930 . S
H1495 C1511 0.959 . S
H1496 C1511 0.959 . S
H1497 C1511 0.961 . S
H1498 C1512 0.960 . S
H1499 C1512 0.961 . S
H1500 C1512 0.959 . S
H1501 C1515 0.929 . S
H1502 C1516 0.931 . S
H1503 C1518 0.930 . S
C1504 H1492 0.930 . S
C1504 C1505 1.399 . S
C1504 C1509 1.399 . S
C1505 C1504 1.399 . S
C1505 C1506 1.376 . S
C1506 H1493 0.930 . S
C1506 C1505 1.376 . S
C1506 C1507 1.388 . S
C1507 H1494 0.930 . S
C1507 C1506 1.388 . S
C1507 C1508 1.390 . S
C1508 C1507 1.390 . S
C1508 C1509 1.394 . S
C1508 C1514 1.465 . S
C1509 C1504 1.399 . S
C1509 C1508 1.394 . S
C1509 C1510 1.516 . S
C1510 C1509 1.516 . S
C1510 C1511 1.502 . S
C1510 C1512 1.561 . S
C1510 C1513 1.526 . S
C1511 H1495 0.959 . S
C1511 H1496 0.959 . S
C1511 H1497 0.961 . S
C1511 C1510 1.502 . S
C1512 H1498 0.960 . S
C1512 H1499 0.961 . S
C1512 H1500 0.959 . S
C1512 C1510 1.561 . S
C1513 C1510 1.526 . S
C1513 C1514 1.396 . S
C1513 C1518 1.390 . S
C1514 C1508 1.465 . S
C1514 C1513 1.396 . S
C1514 C1515 1.399 . S
C1515 H1501 0.929 . S
C1515 C1514 1.399 . S
C1515 C1516 1.385 . S
C1516 H1502 0.931 . S
C1516 C1515 1.385 . S
C1516 C1517 1.389 . S
C1517 C1516 1.389 . S
C1517 C1518 1.387 . S
C1518 H1503 0.930 . S
C1518 C1513 1.390 . S
C1518 C1517 1.387 . S
H1519 C1531 0.930 . S
H1520 C1533 0.930 . S
H1521 C1534 0.930 . S
H1522 C1538 0.959 . S
H1523 C1538 0.959 . S
H1524 C1538 0.961 . S
H1525 C1539 0.960 . S
H1526 C1539 0.961 . S
H1527 C1539 0.959 . S
H1528 C1542 0.929 . S
H1529 C1543 0.931 . S
H1530 C1545 0.930 . S
C1531 H1519 0.930 . S
C1531 C1532 1.399 . S
C1531 C1536 1.399 . S
C1532 C1531 1.399 . S
C1532 C1533 1.376 . S
C1533 H1520 0.930 . S
C1533 C1532 1.376 . S
C1533 C1534 1.388 . S
C1534 H1521 0.930 . S
C1534 C1533 1.388 . S
C1534 C1535 1.390 . S
C1535 C1534 1.390 . S
C1535 C1536 1.394 . S
C1535 C1541 1.465 . S
C1536 C1531 1.399 . S
C1536 C1535 1.394 . S
C1536 C1537 1.516 . S
C1537 C1536 1.516 . S
C1537 C1538 1.502 . S
C1537 C1539 1.561 . S
C1537 C1540 1.526 . S
C1538 H1522 0.959 . S
C1538 H1523 0.959 . S
C1538 H1524 0.961 . S
C1538 C1537 1.502 . S
C1539 H1525 0.960 . S
C1539 H1526 0.961 . S
C1539 H1527 0.959 . S
C1539 C1537 1.561 . S
C1540 C1537 1.526 . S
C1540 C1541 1.396 . S
C1540 C1545 1.390 . S
C1541 C1535 1.465 . S
C1541 C1540 1.396 . S
C1541 C1542 1.399 . S
C1542 H1528 0.929 . S
C1542 C1541 1.399 . S
C1542 C1543 1.385 . S
C1543 H1529 0.931 . S
C1543 C1542 1.385 . S
C1543 C1544 1.389 . S
C1544 C1543 1.389 . S
C1544 C1545 1.387 . S
C1545 H1530 0.930 . S
C1545 C1540 1.390 . S
C1545 C1544 1.387 . S
H1546 C1558 0.930 . S
H1547 C1560 0.930 . S
H1548 C1561 0.930 . S
H1549 C1565 0.959 . S
H1550 C1565 0.959 . S
H1551 C1565 0.961 . S
H1552 C1566 0.960 . S
H1553 C1566 0.961 . S
H1554 C1566 0.959 . S
H1555 C1569 0.929 . S
H1556 C1570 0.931 . S
H1557 C1572 0.930 . S
C1558 H1546 0.930 . S
C1558 C1559 1.399 . S
C1558 C1563 1.399 . S
C1559 C1558 1.399 . S
C1559 C1560 1.376 . S
C1560 H1547 0.930 . S
C1560 C1559 1.376 . S
C1560 C1561 1.388 . S
C1561 H1548 0.930 . S
C1561 C1560 1.388 . S
C1561 C1562 1.390 . S
C1562 C1561 1.390 . S
C1562 C1563 1.394 . S
C1562 C1568 1.465 . S
C1563 C1558 1.399 . S
C1563 C1562 1.394 . S
C1563 C1564 1.516 . S
C1564 C1563 1.516 . S
C1564 C1565 1.502 . S
C1564 C1566 1.561 . S
C1564 C1567 1.526 . S
C1565 H1549 0.959 . S
C1565 H1550 0.959 . S
C1565 H1551 0.961 . S
C1565 C1564 1.502 . S
C1566 H1552 0.960 . S
C1566 H1553 0.961 . S
C1566 H1554 0.959 . S
C1566 C1564 1.561 . S
C1567 C1564 1.526 . S
C1567 C1568 1.396 . S
C1567 C1572 1.390 . S
C1568 C1562 1.465 . S
C1568 C1567 1.396 . S
C1568 C1569 1.399 . S
C1569 H1555 0.929 . S
C1569 C1568 1.399 . S
C1569 C1570 1.385 . S
C1570 H1556 0.931 . S
C1570 C1569 1.385 . S
C1570 C1571 1.389 . S
C1571 C1570 1.389 . S
C1571 C1572 1.387 . S
C1572 H1557 0.930 . S
C1572 C1567 1.390 . S
C1572 C1571 1.387 . S
H1573 C1585 0.930 . S
H1574 C1587 0.930 . S
H1575 C1588 0.930 1_655 S
H1576 C1592 0.959 . S
H1577 C1592 0.959 . S
H1578 C1592 0.961 . S
H1579 C1593 0.936 1_455 S
H1580 C1593 0.974 . S
H1581 C1593 0.976 . S
H1582 C1596 0.929 . S
H1583 C1597 0.931 . S
H1584 C1599 0.930 . S
C1585 H1573 0.930 . S
C1585 C1586 1.399 . S
C1585 C1590 1.399 . S
C1586 C1585 1.399 . S
C1586 C1587 1.376 . S
C1587 H1574 0.930 . S
C1587 C1586 1.376 . S
C1587 C1588 1.388 . S
C1588 H1575 0.930 1_455 S
C1588 C1587 1.388 . S
C1588 C1589 1.390 . S
C1589 C1588 1.390 . S
C1589 C1590 1.394 . S
C1589 C1595 1.465 1_455 S
C1590 C1585 1.399 . S
C1590 C1589 1.394 . S
C1590 C1591 1.516 . S
C1591 C1590 1.516 . S
C1591 C1592 1.502 . S
C1591 C1593 1.556 1_455 S
C1591 C1594 1.526 1_455 S
C1592 H1576 0.959 . S
C1592 H1577 0.959 . S
C1592 H1578 0.961 . S
C1592 C1591 1.502 . S
C1593 H1579 0.936 1_655 S
C1593 H1580 0.974 . S
C1593 H1581 0.976 . S
C1593 C1591 1.556 1_655 S
C1594 C1591 1.526 1_655 S
C1594 C1595 1.396 . S
C1594 C1599 1.390 . S
C1595 C1589 1.465 1_655 S
C1595 C1594 1.396 . S
C1595 C1596 1.399 . S
C1596 H1582 0.929 . S
C1596 C1595 1.399 . S
C1596 C1597 1.385 . S
C1597 H1583 0.931 . S
C1597 C1596 1.385 . S
C1597 C1598 1.389 . S
C1598 C1597 1.389 . S
C1598 C1599 1.387 . S
C1599 H1584 0.930 . S
C1599 C1594 1.390 . S
C1599 C1598 1.387 . S
H1600 C1612 0.930 . S
H1601 C1614 0.930 . S
H1602 C1615 0.930 . S
H1603 C1619 0.959 . S
H1604 C1619 0.959 . S
H1605 C1619 0.961 . S
H1606 C1620 0.960 . S
H1607 C1620 0.961 . S
H1608 C1620 0.959 . S
H1609 C1623 0.929 . S
H1610 C1624 0.931 . S
H1611 C1626 0.930 . S
C1612 H1600 0.930 . S
C1612 C1613 1.399 . S
C1612 C1617 1.399 . S
C1613 C1612 1.399 . S
C1613 C1614 1.376 . S
C1614 H1601 0.930 . S
C1614 C1613 1.376 . S
C1614 C1615 1.388 . S
C1615 H1602 0.930 . S
C1615 C1614 1.388 . S
C1615 C1616 1.390 . S
C1616 C1615 1.390 . S
C1616 C1617 1.394 . S
C1616 C1622 1.465 . S
C1617 C1612 1.399 . S
C1617 C1616 1.394 . S
C1617 C1618 1.516 . S
C1618 C1617 1.516 . S
C1618 C1619 1.502 . S
C1618 C1620 1.561 . S
C1618 C1621 1.526 . S
C1619 H1603 0.959 . S
C1619 H1604 0.959 . S
C1619 H1605 0.961 . S
C1619 C1618 1.502 . S
C1620 H1606 0.960 . S
C1620 H1607 0.961 . S
C1620 H1608 0.959 . S
C1620 C1618 1.561 . S
C1621 C1618 1.526 . S
C1621 C1622 1.396 . S
C1621 C1626 1.390 . S
C1622 C1616 1.465 . S
C1622 C1621 1.396 . S
C1622 C1623 1.399 . S
C1623 H1609 0.929 . S
C1623 C1622 1.399 . S
C1623 C1624 1.385 . S
C1624 H1610 0.931 . S
C1624 C1623 1.385 . S
C1624 C1625 1.389 . S
C1625 C1624 1.389 . S
C1625 C1626 1.387 . S
C1626 H1611 0.930 . S
C1626 C1621 1.390 . S
C1626 C1625 1.387 . S
H1627 C1639 0.930 . S
H1628 C1641 0.930 . S
H1629 C1642 0.930 . S
H1630 C1646 0.959 . S
H1631 C1646 0.959 . S
H1632 C1646 0.961 . S
H1633 C1647 0.960 . S
H1634 C1647 0.961 . S
H1635 C1647 0.959 . S
H1636 C1650 0.929 . S
H1637 C1651 0.931 . S
H1638 C1653 0.930 . S
C1639 H1627 0.930 . S
C1639 C1640 1.399 . S
C1639 C1644 1.399 . S
C1640 C1639 1.399 . S
C1640 C1641 1.376 . S
C1641 H1628 0.930 . S
C1641 C1640 1.376 . S
C1641 C1642 1.388 . S
C1642 H1629 0.930 . S
C1642 C1641 1.388 . S
C1642 C1643 1.390 . S
C1643 C1642 1.390 . S
C1643 C1644 1.394 . S
C1643 C1649 1.465 . S
C1644 C1639 1.399 . S
C1644 C1643 1.394 . S
C1644 C1645 1.516 . S
C1645 C1644 1.516 . S
C1645 C1646 1.502 . S
C1645 C1647 1.561 . S
C1645 C1648 1.526 . S
C1646 H1630 0.959 . S
C1646 H1631 0.959 . S
C1646 H1632 0.961 . S
C1646 C1645 1.502 . S
C1647 H1633 0.960 . S
C1647 H1634 0.961 . S
C1647 H1635 0.959 . S
C1647 C1645 1.561 . S
C1648 C1645 1.526 . S
C1648 C1649 1.396 . S
C1648 C1653 1.390 . S
C1649 C1643 1.465 . S
C1649 C1648 1.396 . S
C1649 C1650 1.399 . S
C1650 H1636 0.929 . S
C1650 C1649 1.399 . S
C1650 C1651 1.385 . S
C1651 H1637 0.931 . S
C1651 C1650 1.385 . S
C1651 C1652 1.389 . S
C1652 C1651 1.389 . S
C1652 C1653 1.387 . S
C1653 H1638 0.930 . S
C1653 C1648 1.390 . S
C1653 C1652 1.387 . S
H1654 C1666 0.930 . S
H1655 C1668 0.930 . S
H1656 C1669 0.930 . S
H1657 C1673 0.959 . S
H1658 C1673 0.959 . S
H1659 C1673 0.961 . S
H1660 C1674 0.960 . S
H1661 C1674 0.961 . S
H1662 C1674 0.959 . S
H1663 C1677 0.929 . S
H1664 C1678 0.931 . S
H1665 C1680 0.930 . S
C1666 H1654 0.930 . S
C1666 C1667 1.399 . S
C1666 C1671 1.399 . S
C1667 C1666 1.399 . S
C1667 C1668 1.376 . S
C1668 H1655 0.930 . S
C1668 C1667 1.376 . S
C1668 C1669 1.388 . S
C1669 H1656 0.930 . S
C1669 C1668 1.388 . S
C1669 C1670 1.390 . S
C1670 C1669 1.390 . S
C1670 C1671 1.394 . S
C1670 C1676 1.465 . S
C1671 C1666 1.399 . S
C1671 C1670 1.394 . S
C1671 C1672 1.516 . S
C1672 C1671 1.516 . S
C1672 C1673 1.502 . S
C1672 C1674 1.561 . S
C1672 C1675 1.526 . S
C1673 H1657 0.959 . S
C1673 H1658 0.959 . S
C1673 H1659 0.961 . S
C1673 C1672 1.502 . S
C1674 H1660 0.960 . S
C1674 H1661 0.961 . S
C1674 H1662 0.959 . S
C1674 C1672 1.561 . S
C1675 C1672 1.526 . S
C1675 C1676 1.396 . S
C1675 C1680 1.390 . S
C1676 C1670 1.465 . S
C1676 C1675 1.396 . S
C1676 C1677 1.399 . S
C1677 H1663 0.929 . S
C1677 C1676 1.399 . S
C1677 C1678 1.385 . S
C1678 H1664 0.931 . S
C1678 C1677 1.385 . S
C1678 C1679 1.389 . S
C1679 C1678 1.389 . S
C1679 C1680 1.387 . S
C1680 H1665 0.930 . S
C1680 C1675 1.390 . S
C1680 C1679 1.387 . S
H1681 C1693 0.930 . S
H1682 C1695 0.930 . S
H1683 C1696 0.930 . S
H1684 C1700 0.959 . S
H1685 C1700 0.959 . S
H1686 C1700 0.961 . S
H1687 C1701 0.960 . S
H1688 C1701 0.961 . S
H1689 C1701 0.959 . S
H1690 C1704 0.929 1_455 S
H1691 C1705 0.931 . S
H1692 C1707 0.930 . S
C1693 H1681 0.930 . S
C1693 C1694 1.399 . S
C1693 C1698 1.399 . S
C1694 C1693 1.399 . S
C1694 C1695 1.376 . S
C1695 H1682 0.930 . S
C1695 C1694 1.376 . S
C1695 C1696 1.388 . S
C1696 H1683 0.930 . S
C1696 C1695 1.388 . S
C1696 C1697 1.390 . S
C1697 C1696 1.390 . S
C1697 C1698 1.394 . S
C1697 C1703 1.465 . S
C1698 C1693 1.399 . S
C1698 C1697 1.394 . S
C1698 C1699 1.516 . S
C1699 C1698 1.516 . S
C1699 C1700 1.502 . S
C1699 C1701 1.561 . S
C1699 C1702 1.526 . S
C1700 H1684 0.959 . S
C1700 H1685 0.959 . S
C1700 H1686 0.961 . S
C1700 C1699 1.502 . S
C1701 H1687 0.960 . S
C1701 H1688 0.961 . S
C1701 H1689 0.959 . S
C1701 C1699 1.561 . S
C1702 C1699 1.526 . S
C1702 C1703 1.396 . S
C1702 C1707 1.390 1_455 S
C1703 C1697 1.465 . S
C1703 C1702 1.396 . S
C1703 C1704 1.396 1_455 S
C1704 H1690 0.929 1_655 S
C1704 C1703 1.396 1_655 S
C1704 C1705 1.388 . S
C1705 H1691 0.931 . S
C1705 C1704 1.388 . S
C1705 C1706 1.389 . S
C1706 C1705 1.389 . S
C1706 C1707 1.387 . S
C1707 H1692 0.930 . S
C1707 C1702 1.390 1_655 S
C1707 C1706 1.387 . S
H1708 C1720 0.930 . S
H1709 C1722 0.930 . S
H1710 C1723 0.930 . S
H1711 C1727 0.959 . S
H1712 C1727 0.959 . S
H1713 C1727 0.961 . S
H1714 C1728 0.960 . S
H1715 C1728 0.961 . S
H1716 C1728 0.959 . S
H1717 C1731 0.929 . S
H1718 C1732 0.931 . S
H1719 C1734 0.930 . S
C1720 H1708 0.930 . S
C1720 C1721 1.399 . S
C1720 C1725 1.399 . S
C1721 C1720 1.399 . S
C1721 C1722 1.376 . S
C1722 H1709 0.930 . S
C1722 C1721 1.376 . S
C1722 C1723 1.388 . S
C1723 H1710 0.930 . S
C1723 C1722 1.388 . S
C1723 C1724 1.390 . S
C1724 C1723 1.390 . S
C1724 C1725 1.394 . S
C1724 C1730 1.465 . S
C1725 C1720 1.399 . S
C1725 C1724 1.394 . S
C1725 C1726 1.516 . S
C1726 C1725 1.516 . S
C1726 C1727 1.502 . S
C1726 C1728 1.561 . S
C1726 C1729 1.526 . S
C1727 H1711 0.959 . S
C1727 H1712 0.959 . S
C1727 H1713 0.961 . S
C1727 C1726 1.502 . S
C1728 H1714 0.960 . S
C1728 H1715 0.961 . S
C1728 H1716 0.959 . S
C1728 C1726 1.561 . S
C1729 C1726 1.526 . S
C1729 C1730 1.396 . S
C1729 C1734 1.390 . S
C1730 C1724 1.465 . S
C1730 C1729 1.396 . S
C1730 C1731 1.399 . S
C1731 H1717 0.929 . S
C1731 C1730 1.399 . S
C1731 C1732 1.385 . S
C1732 H1718 0.931 . S
C1732 C1731 1.385 . S
C1732 C1733 1.389 . S
C1733 C1732 1.389 . S
C1733 C1734 1.387 . S
C1734 H1719 0.930 . S
C1734 C1729 1.390 . S
C1734 C1733 1.387 . S
H1735 C1747 0.930 . S
H1736 C1749 0.930 . S
H1737 C1750 0.930 . S
H1738 C1754 0.959 . S
H1739 C1754 0.959 . S
H1740 C1754 0.961 . S
H1741 C1755 0.960 . S
H1742 C1755 0.961 . S
H1743 C1755 0.959 . S
H1744 C1758 0.929 . S
H1745 C1759 0.931 . S
H1746 C1761 0.930 . S
C1747 H1735 0.930 . S
C1747 C1748 1.399 . S
C1747 C1752 1.399 1_655 S
C1748 C1747 1.399 . S
C1748 C1749 1.376 . S
C1749 H1736 0.930 . S
C1749 C1748 1.376 . S
C1749 C1750 1.388 . S
C1750 H1737 0.930 . S
C1750 C1749 1.388 . S
C1750 C1751 1.390 1_655 S
C1751 C1750 1.390 1_455 S
C1751 C1752 1.394 . S
C1751 C1757 1.465 . S
C1752 C1747 1.399 1_455 S
C1752 C1751 1.394 . S
C1752 C1753 1.516 . S
C1753 C1752 1.516 . S
C1753 C1754 1.502 . S
C1753 C1755 1.561 . S
C1753 C1756 1.526 . S
C1754 H1738 0.959 . S
C1754 H1739 0.959 . S
C1754 H1740 0.961 . S
C1754 C1753 1.502 . S
C1755 H1741 0.960 . S
C1755 H1742 0.961 . S
C1755 H1743 0.959 . S
C1755 C1753 1.561 . S
C1756 C1753 1.526 . S
C1756 C1757 1.396 . S
C1756 C1761 1.390 . S
C1757 C1751 1.465 . S
C1757 C1756 1.396 . S
C1757 C1758 1.399 . S
C1758 H1744 0.929 . S
C1758 C1757 1.399 . S
C1758 C1759 1.385 . S
C1759 H1745 0.931 . S
C1759 C1758 1.385 . S
C1759 C1760 1.389 . S
C1760 C1759 1.389 . S
C1760 C1761 1.387 . S
C1761 H1746 0.930 . S
C1761 C1756 1.390 . S
C1761 C1760 1.387 . S
H1762 C1774 0.930 . S
H1763 C1776 0.930 . S
H1764 C1777 0.930 . S
H1765 C1781 0.959 . S
H1766 C1781 0.959 . S
H1767 C1781 0.961 . S
H1768 C1782 0.960 . S
H1769 C1782 0.961 . S
H1770 C1782 0.959 . S
H1771 C1785 0.929 . S
H1772 C1786 0.931 . S
H1773 C1788 0.930 . S
C1774 H1762 0.930 . S
C1774 C1775 1.399 . S
C1774 C1779 1.399 . S
C1775 C1774 1.399 . S
C1775 C1776 1.376 . S
C1776 H1763 0.930 . S
C1776 C1775 1.376 . S
C1776 C1777 1.388 . S
C1777 H1764 0.930 . S
C1777 C1776 1.388 . S
C1777 C1778 1.390 . S
C1778 C1777 1.390 . S
C1778 C1779 1.394 . S
C1778 C1784 1.465 . S
C1779 C1774 1.399 . S
C1779 C1778 1.394 . S
C1779 C1780 1.516 . S
C1780 C1779 1.516 . S
C1780 C1781 1.502 . S
C1780 C1782 1.561 . S
C1780 C1783 1.526 . S
C1781 H1765 0.959 . S
C1781 H1766 0.959 . S
C1781 H1767 0.961 . S
C1781 C1780 1.502 . S
C1782 H1768 0.960 . S
C1782 H1769 0.961 . S
C1782 H1770 0.959 . S
C1782 C1780 1.561 . S
C1783 C1780 1.526 . S
C1783 C1784 1.396 . S
C1783 C1788 1.390 . S
C1784 C1778 1.465 . S
C1784 C1783 1.396 . S
C1784 C1785 1.399 . S
C1785 H1771 0.929 . S
C1785 C1784 1.399 . S
C1785 C1786 1.385 . S
C1786 H1772 0.931 . S
C1786 C1785 1.385 . S
C1786 C1787 1.389 . S
C1787 C1786 1.389 . S
C1787 C1788 1.387 . S
C1788 H1773 0.930 . S
C1788 C1783 1.390 . S
C1788 C1787 1.387 . S
H1789 C1801 0.930 . S
H1790 C1803 0.930 . S
H1791 C1804 0.930 . S
H1792 C1808 0.959 . S
H1793 C1808 0.959 . S
H1794 C1808 0.961 . S
H1795 C1809 0.960 . S
H1796 C1809 0.961 . S
H1797 C1809 0.959 . S
H1798 C1812 0.929 . S
H1799 C1813 0.931 . S
H1800 C1815 0.930 . S
C1801 H1789 0.930 . S
C1801 C1802 1.399 . S
C1801 C1806 1.399 . S
C1802 C1801 1.399 . S
C1802 C1803 1.376 . S
C1803 H1790 0.930 . S
C1803 C1802 1.376 . S
C1803 C1804 1.388 . S
C1804 H1791 0.930 . S
C1804 C1803 1.388 . S
C1804 C1805 1.390 . S
C1805 C1804 1.390 . S
C1805 C1806 1.394 . S
C1805 C1811 1.465 . S
C1806 C1801 1.399 . S
C1806 C1805 1.394 . S
C1806 C1807 1.516 . S
C1807 C1806 1.516 . S
C1807 C1808 1.502 . S
C1807 C1809 1.561 . S
C1807 C1810 1.526 . S
C1808 H1792 0.959 . S
C1808 H1793 0.959 . S
C1808 H1794 0.961 . S
C1808 C1807 1.502 . S
C1809 H1795 0.960 . S
C1809 H1796 0.961 . S
C1809 H1797 0.959 . S
C1809 C1807 1.561 . S
C1810 C1807 1.526 . S
C1810 C1811 1.396 . S
C1810 C1815 1.390 . S
C1811 C1805 1.465 . S
C1811 C1810 1.396 . S
C1811 C1812 1.399 . S
C1812 H1798 0.929 . S
C1812 C1811 1.399 . S
C1812 C1813 1.385 . S
C1813 H1799 0.931 . S
C1813 C1812 1.385 . S
C1813 C1814 1.389 . S
C1814 C1813 1.389 . S
C1814 C1815 1.387 . S
C1815 H1800 0.930 . S
C1815 C1810 1.390 . S
C1815 C1814 1.387 . S
H1816 C1828 0.930 . S
H1817 C1830 0.930 . S
H1818 C1831 0.930 . S
H1819 C1835 0.959 . S
H1820 C1835 0.959 . S
H1821 C1835 0.961 . S
H1822 C1836 0.960 . S
H1823 C1836 0.961 . S
H1824 C1836 0.959 . S
H1825 C1839 0.929 . S
H1826 C1840 0.931 . S
H1827 C1842 0.930 . S
C1828 H1816 0.930 . S
C1828 C1829 1.399 . S
C1828 C1833 1.399 . S
C1829 C1828 1.399 . S
C1829 C1830 1.376 . S
C1830 H1817 0.930 . S
C1830 C1829 1.376 . S
C1830 C1831 1.388 . S
C1831 H1818 0.930 . S
C1831 C1830 1.388 . S
C1831 C1832 1.390 . S
C1832 C1831 1.390 . S
C1832 C1833 1.394 . S
C1832 C1838 1.465 . S
C1833 C1828 1.399 . S
C1833 C1832 1.394 . S
C1833 C1834 1.516 . S
C1834 C1833 1.516 . S
C1834 C1835 1.502 . S
C1834 C1836 1.561 . S
C1834 C1837 1.526 . S
C1835 H1819 0.959 . S
C1835 H1820 0.959 . S
C1835 H1821 0.961 . S
C1835 C1834 1.502 . S
C1836 H1822 0.960 . S
C1836 H1823 0.961 . S
C1836 H1824 0.959 . S
C1836 C1834 1.561 . S
C1837 C1834 1.526 . S
C1837 C1838 1.396 . S
C1837 C1842 1.390 . S
C1838 C1832 1.465 . S
C1838 C1837 1.396 . S
C1838 C1839 1.399 . S
C1839 H1825 0.929 . S
C1839 C1838 1.399 . S
C1839 C1840 1.385 . S
C1840 H1826 0.931 . S
C1840 C1839 1.385 . S
C1840 C1841 1.389 . S
C1841 C1840 1.389 . S
C1841 C1842 1.387 . S
C1842 H1827 0.930 . S
C1842 C1837 1.390 . S
C1842 C1841 1.387 . S
H1843 C1855 0.930 . S
H1844 C1857 0.930 . S
H1845 C1858 0.930 . S
H1846 C1862 0.959 . S
H1847 C1862 0.959 . S
H1848 C1862 0.961 . S
H1849 C1863 0.960 . S
H1850 C1863 0.961 . S
H1851 C1863 0.959 . S
H1852 C1866 0.929 . S
H1853 C1867 0.931 . S
H1854 C1869 0.930 . S
C1855 H1843 0.930 . S
C1855 C1856 1.399 . S
C1855 C1860 1.399 . S
C1856 C1855 1.399 . S
C1856 C1857 1.376 . S
C1857 H1844 0.930 . S
C1857 C1856 1.376 . S
C1857 C1858 1.388 . S
C1858 H1845 0.930 . S
C1858 C1857 1.388 . S
C1858 C1859 1.390 . S
C1859 C1858 1.390 . S
C1859 C1860 1.394 . S
C1859 C1865 1.465 . S
C1860 C1855 1.399 . S
C1860 C1859 1.394 . S
C1860 C1861 1.516 . S
C1861 C1860 1.516 . S
C1861 C1862 1.502 . S
C1861 C1863 1.561 . S
C1861 C1864 1.526 . S
C1862 H1846 0.959 . S
C1862 H1847 0.959 . S
C1862 H1848 0.961 . S
C1862 C1861 1.502 . S
C1863 H1849 0.960 . S
C1863 H1850 0.961 . S
C1863 H1851 0.959 . S
C1863 C1861 1.561 . S
C1864 C1861 1.526 . S
C1864 C1865 1.396 . S
C1864 C1869 1.390 . S
C1865 C1859 1.465 . S
C1865 C1864 1.396 . S
C1865 C1866 1.399 . S
C1866 H1852 0.929 . S
C1866 C1865 1.399 . S
C1866 C1867 1.385 . S
C1867 H1853 0.931 . S
C1867 C1866 1.385 . S
C1867 C1868 1.389 . S
C1868 C1867 1.389 . S
C1868 C1869 1.387 . S
C1869 H1854 0.930 . S
C1869 C1864 1.390 . S
C1869 C1868 1.387 . S
H1870 C1882 0.930 . S
H1871 C1884 0.930 . S
H1872 C1885 0.930 . S
H1873 C1889 0.959 . S
H1874 C1889 0.959 . S
H1875 C1889 0.961 . S
H1876 C1890 0.960 . S
H1877 C1890 0.961 . S
H1878 C1890 0.959 . S
H1879 C1893 0.929 . S
H1880 C1894 0.931 . S
H1881 C1896 0.930 . S
C1882 H1870 0.930 . S
C1882 C1883 1.399 . S
C1882 C1887 1.399 . S
C1883 C1882 1.399 . S
C1883 C1884 1.376 . S
C1884 H1871 0.930 . S
C1884 C1883 1.376 . S
C1884 C1885 1.388 . S
C1885 H1872 0.930 . S
C1885 C1884 1.388 . S
C1885 C1886 1.390 . S
C1886 C1885 1.390 . S
C1886 C1887 1.394 . S
C1886 C1892 1.465 . S
C1887 C1882 1.399 . S
C1887 C1886 1.394 . S
C1887 C1888 1.516 . S
C1888 C1887 1.516 . S
C1888 C1889 1.502 . S
C1888 C1890 1.561 . S
C1888 C1891 1.526 . S
C1889 H1873 0.959 . S
C1889 H1874 0.959 . S
C1889 H1875 0.961 . S
C1889 C1888 1.502 . S
C1890 H1876 0.960 . S
C1890 H1877 0.961 . S
C1890 H1878 0.959 . S
C1890 C1888 1.561 . S
C1891 C1888 1.526 . S
C1891 C1892 1.396 . S
C1891 C1896 1.390 . S
C1892 C1886 1.465 . S
C1892 C1891 1.396 . S
C1892 C1893 1.399 . S
C1893 H1879 0.929 . S
C1893 C1892 1.399 . S
C1893 C1894 1.385 . S
C1894 H1880 0.931 . S
C1894 C1893 1.385 . S
C1894 C1895 1.389 . S
C1895 C1894 1.389 . S
C1895 C1896 1.387 . S
C1896 H1881 0.930 . S
C1896 C1891 1.390 . S
C1896 C1895 1.387 . S
H1897 C1909 0.930 . S
H1898 C1911 0.930 . S
H1899 C1912 0.930 . S
H1900 C1916 0.959 . S
H1901 C1916 0.959 1_455 S
H1902 C1916 0.961 . S
H1903 C1917 0.960 . S
H1904 C1917 0.961 . S
H1905 C1917 0.959 . S
H1906 C1920 0.929 . S
H1907 C1921 0.931 . S
H1908 C1923 0.930 . S
C1909 H1897 0.930 . S
C1909 C1910 1.399 . S
C1909 C1914 1.399 . S
C1910 C1909 1.399 . S
C1910 C1911 1.376 . S
C1911 H1898 0.930 . S
C1911 C1910 1.376 . S
C1911 C1912 1.388 . S
C1912 H1899 0.930 . S
C1912 C1911 1.388 . S
C1912 C1913 1.390 . S
C1913 C1912 1.390 . S
C1913 C1914 1.394 . S
C1913 C1919 1.465 1_655 S
C1914 C1909 1.399 . S
C1914 C1913 1.394 . S
C1914 C1915 1.516 1_655 S
C1915 C1914 1.516 1_455 S
C1915 C1916 1.502 1_455 S
C1915 C1917 1.561 . S
C1915 C1918 1.526 . S
C1916 H1900 0.959 . S
C1916 H1901 0.959 1_655 S
C1916 H1902 0.961 . S
C1916 C1915 1.502 1_655 S
C1917 H1903 0.960 . S
C1917 H1904 0.961 . S
C1917 H1905 0.959 . S
C1917 C1915 1.561 . S
C1918 C1915 1.526 . S
C1918 C1919 1.396 . S
C1918 C1923 1.390 . S
C1919 C1913 1.465 1_455 S
C1919 C1918 1.396 . S
C1919 C1920 1.399 . S
C1920 H1906 0.929 . S
C1920 C1919 1.399 . S
C1920 C1921 1.385 . S
C1921 H1907 0.931 . S
C1921 C1920 1.385 . S
C1921 C1922 1.389 . S
C1922 C1921 1.389 . S
C1922 C1923 1.387 . S
C1923 H1908 0.930 . S
C1923 C1918 1.390 . S
C1923 C1922 1.387 . S
H1924 C1936 0.930 . S
H1925 C1938 0.930 . S
H1926 C1939 0.930 . S
H1927 C1943 0.959 . S
H1928 C1943 0.959 . S
H1929 C1943 0.961 . S
H1930 C1944 0.960 . S
H1931 C1944 0.961 . S
H1932 C1944 0.959 . S
H1933 C1947 0.929 . S
H1934 C1948 0.931 . S
H1935 C1950 0.930 . S
C1936 H1924 0.930 . S
C1936 C1937 1.399 . S
C1936 C1941 1.399 . S
C1937 C1936 1.399 . S
C1937 C1938 1.376 . S
C1938 H1925 0.930 . S
C1938 C1937 1.376 . S
C1938 C1939 1.388 . S
C1939 H1926 0.930 . S
C1939 C1938 1.388 . S
C1939 C1940 1.390 . S
C1940 C1939 1.390 . S
C1940 C1941 1.394 . S
C1940 C1946 1.465 . S
C1941 C1936 1.399 . S
C1941 C1940 1.394 . S
C1941 C1942 1.516 . S
C1942 C1941 1.516 . S
C1942 C1943 1.502 . S
C1942 C1944 1.561 . S
C1942 C1945 1.526 . S
C1943 H1927 0.959 . S
C1943 H1928 0.959 . S
C1943 H1929 0.961 . S
C1943 C1942 1.502 . S
C1944 H1930 0.960 . S
C1944 H1931 0.961 . S
C1944 H1932 0.959 . S
C1944 C1942 1.561 . S
C1945 C1942 1.526 . S
C1945 C1946 1.396 . S
C1945 C1950 1.390 . S
C1946 C1940 1.465 . S
C1946 C1945 1.396 . S
C1946 C1947 1.399 . S
C1947 H1933 0.929 . S
C1947 C1946 1.399 . S
C1947 C1948 1.385 . S
C1948 H1934 0.931 . S
C1948 C1947 1.385 . S
C1948 C1949 1.389 . S
C1949 C1948 1.389 . S
C1949 C1950 1.387 . S
C1950 H1935 0.930 . S
C1950 C1945 1.390 . S
C1950 C1949 1.387 . S
H1951 C1963 0.930 . S
H1952 C1965 0.930 . S
H1953 C1966 0.930 . S
H1954 C1970 0.959 . S
H1955 C1970 0.959 . S
H1956 C1970 0.961 . S
H1957 C1971 0.960 1_455 S
H1958 C1971 0.961 . S
H1959 C1971 0.959 . S
H1960 C1974 0.929 . S
H1961 C1975 0.931 . S
H1962 C1977 0.930 . S
C1963 H1951 0.930 . S
C1963 C1964 1.399 . S
C1963 C1968 1.399 . S
C1964 C1963 1.399 . S
C1964 C1965 1.376 . S
C1965 H1952 0.930 . S
C1965 C1964 1.376 . S
C1965 C1966 1.388 . S
C1966 H1953 0.930 . S
C1966 C1965 1.388 . S
C1966 C1967 1.390 . S
C1967 C1966 1.390 . S
C1967 C1968 1.394 . S
C1967 C1973 1.465 1_455 S
C1968 C1963 1.399 . S
C1968 C1967 1.394 . S
C1968 C1969 1.516 . S
C1969 C1968 1.516 . S
C1969 C1970 1.502 . S
C1969 C1971 1.561 1_455 S
C1969 C1972 1.526 1_455 S
C1970 H1954 0.959 . S
C1970 H1955 0.959 . S
C1970 H1956 0.961 . S
C1970 C1969 1.502 . S
C1971 H1957 0.960 1_655 S
C1971 H1958 0.961 . S
C1971 H1959 0.959 . S
C1971 C1969 1.561 1_655 S
C1972 C1969 1.526 1_655 S
C1972 C1973 1.396 . S
C1972 C1977 1.390 . S
C1973 C1967 1.465 1_655 S
C1973 C1972 1.396 . S
C1973 C1974 1.399 . S
C1974 H1960 0.929 . S
C1974 C1973 1.399 . S
C1974 C1975 1.385 . S
C1975 H1961 0.931 . S
C1975 C1974 1.385 . S
C1975 C1976 1.389 . S
C1976 C1975 1.389 . S
C1976 C1977 1.387 . S
C1977 H1962 0.930 . S
C1977 C1972 1.390 . S
C1977 C1976 1.387 . S
H1978 C1990 0.930 . S
H1979 C1992 0.930 . S
H1980 C1993 0.930 . S
H1981 C1997 0.959 . S
H1982 C1997 0.959 . S
H1983 C1997 0.961 . S
H1984 C1998 0.960 . S
H1985 C1998 0.961 . S
H1986 C1998 0.959 . S
H1987 C2001 0.929 . S
H1988 C2002 0.931 . S
H1989 C2004 0.930 . S
C1990 H1978 0.930 . S
C1990 C1991 1.399 . S
C1990 C1995 1.399 . S
C1991 C1990 1.399 . S
C1991 C1992 1.376 . S
C1992 H1979 0.930 . S
C1992 C1991 1.376 . S
C1992 C1993 1.388 . S
C1993 H1980 0.930 . S
C1993 C1992 1.388 . S
C1993 C1994 1.390 . S
C1994 C1993 1.390 . S
C1994 C1995 1.394 . S
C1994 C2000 1.465 . S
C1995 C1990 1.399 . S
C1995 C1994 1.394 . S
C1995 C1996 1.516 . S
C1996 C1995 1.516 . S
C1996 C1997 1.502 . S
C1996 C1998 1.561 . S
C1996 C1999 1.526 . S
C1997 H1981 0.959 . S
C1997 H1982 0.959 . S
C1997 H1983 0.961 . S
C1997 C1996 1.502 . S
C1998 H1984 0.960 . S
C1998 H1985 0.961 . S
C1998 H1986 0.959 . S
C1998 C1996 1.561 . S
C1999 C1996 1.526 . S
C1999 C2000 1.396 . S
C1999 C2004 1.390 . S
C2000 C1994 1.465 . S
C2000 C1999 1.396 . S
C2000 C2001 1.399 . S
C2001 H1987 0.929 . S
C2001 C2000 1.399 . S
C2001 C2002 1.385 . S
C2002 H1988 0.931 . S
C2002 C2001 1.385 . S
C2002 C2003 1.389 . S
C2003 C2002 1.389 . S
C2003 C2004 1.387 . S
C2004 H1989 0.930 . S
C2004 C1999 1.390 . S
C2004 C2003 1.387 . S
H2005 C2017 0.930 . S
H2006 C2019 0.930 . S
H2007 C2020 0.930 . S
H2008 C2024 0.959 . S
H2009 C2024 0.959 . S
H2010 C2024 0.961 . S
H2011 C2025 0.960 . S
H2012 C2025 0.961 . S
H2013 C2025 0.959 . S
H2014 C2028 0.929 . S
H2015 C2029 0.931 . S
H2016 C2031 0.930 . S
C2017 H2005 0.930 . S
C2017 C2018 1.399 . S
C2017 C2022 1.399 . S
C2018 C2017 1.399 . S
C2018 C2019 1.376 . S
C2019 H2006 0.930 . S
C2019 C2018 1.376 . S
C2019 C2020 1.388 . S
C2020 H2007 0.930 . S
C2020 C2019 1.388 . S
C2020 C2021 1.390 . S
C2021 C2020 1.390 . S
C2021 C2022 1.394 . S
C2021 C2027 1.465 . S
C2022 C2017 1.399 . S
C2022 C2021 1.394 . S
C2022 C2023 1.516 . S
C2023 C2022 1.516 . S
C2023 C2024 1.502 . S
C2023 C2025 1.561 . S
C2023 C2026 1.526 . S
C2024 H2008 0.959 . S
C2024 H2009 0.959 . S
C2024 H2010 0.961 . S
C2024 C2023 1.502 . S
C2025 H2011 0.960 . S
C2025 H2012 0.961 . S
C2025 H2013 0.959 . S
C2025 C2023 1.561 . S
C2026 C2023 1.526 . S
C2026 C2027 1.396 . S
C2026 C2031 1.390 . S
C2027 C2021 1.465 . S
C2027 C2026 1.396 . S
C2027 C2028 1.399 . S
C2028 H2014 0.929 . S
C2028 C2027 1.399 . S
C2028 C2029 1.385 . S
C2029 H2015 0.931 . S
C2029 C2028 1.385 . S
C2029 C2030 1.389 . S
C2030 C2029 1.389 . S
C2030 C2031 1.387 . S
C2031 H2016 0.930 . S
C2031 C2026 1.390 . S
C2031 C2030 1.387 . S
H2032 C2044 0.930 . S
H2033 C2046 0.930 . S
H2034 C2047 0.930 . S
H2035 C2051 0.959 . S
H2036 C2051 0.959 . S
H2037 C2051 0.961 . S
H2038 C2052 0.960 . S
H2039 C2052 0.961 . S
H2040 C2052 0.959 . S
H2041 C2055 0.929 . S
H2042 C2056 0.931 . S
H2043 C2058 0.930 . S
C2044 H2032 0.930 . S
C2044 C2045 1.399 . S
C2044 C2049 1.399 . S
C2045 C2044 1.399 . S
C2045 C2046 1.376 . S
C2046 H2033 0.930 . S
C2046 C2045 1.376 . S
C2046 C2047 1.388 . S
C2047 H2034 0.930 . S
C2047 C2046 1.388 . S
C2047 C2048 1.390 . S
C2048 C2047 1.390 . S
C2048 C2049 1.394 . S
C2048 C2054 1.465 . S
C2049 C2044 1.399 . S
C2049 C2048 1.394 . S
C2049 C2050 1.516 . S
C2050 C2049 1.516 . S
C2050 C2051 1.502 . S
C2050 C2052 1.561 . S
C2050 C2053 1.526 . S
C2051 H2035 0.959 . S
C2051 H2036 0.959 . S
C2051 H2037 0.961 . S
C2051 C2050 1.502 . S
C2052 H2038 0.960 . S
C2052 H2039 0.961 . S
C2052 H2040 0.959 . S
C2052 C2050 1.561 . S
C2053 C2050 1.526 . S
C2053 C2054 1.396 . S
C2053 C2058 1.390 . S
C2054 C2048 1.465 . S
C2054 C2053 1.396 . S
C2054 C2055 1.399 . S
C2055 H2041 0.929 . S
C2055 C2054 1.399 . S
C2055 C2056 1.385 . S
C2056 H2042 0.931 . S
C2056 C2055 1.385 . S
C2056 C2057 1.389 . S
C2057 C2056 1.389 . S
C2057 C2058 1.387 . S
C2058 H2043 0.930 . S
C2058 C2053 1.390 . S
C2058 C2057 1.387 . S
H2059 C2071 0.930 . S
H2060 C2073 0.930 . S
H2061 C2074 0.930 . S
H2062 C2078 0.959 . S
H2063 C2078 0.959 . S
H2064 C2078 0.961 . S
H2065 C2079 0.960 . S
H2066 C2079 0.961 . S
H2067 C2079 0.959 . S
H2068 C2082 0.929 . S
H2069 C2083 0.931 . S
H2070 C2085 0.930 . S
C2071 H2059 0.930 . S
C2071 C2072 1.399 . S
C2071 C2076 1.399 . S
C2072 C2071 1.399 . S
C2072 C2073 1.376 . S
C2073 H2060 0.930 . S
C2073 C2072 1.376 . S
C2073 C2074 1.388 . S
C2074 H2061 0.930 . S
C2074 C2073 1.388 . S
C2074 C2075 1.390 . S
C2075 C2074 1.390 . S
C2075 C2076 1.394 . S
C2075 C2081 1.465 . S
C2076 C2071 1.399 . S
C2076 C2075 1.394 . S
C2076 C2077 1.516 . S
C2077 C2076 1.516 . S
C2077 C2078 1.502 . S
C2077 C2079 1.561 . S
C2077 C2080 1.526 . S
C2078 H2062 0.959 . S
C2078 H2063 0.959 . S
C2078 H2064 0.961 . S
C2078 C2077 1.502 . S
C2079 H2065 0.960 . S
C2079 H2066 0.961 . S
C2079 H2067 0.959 . S
C2079 C2077 1.561 . S
C2080 C2077 1.526 . S
C2080 C2081 1.396 . S
C2080 C2085 1.390 . S
C2081 C2075 1.465 . S
C2081 C2080 1.396 . S
C2081 C2082 1.399 . S
C2082 H2068 0.929 . S
C2082 C2081 1.399 . S
C2082 C2083 1.385 . S
C2083 H2069 0.931 . S
C2083 C2082 1.385 . S
C2083 C2084 1.389 . S
C2084 C2083 1.389 . S
C2084 C2085 1.387 . S
C2085 H2070 0.930 . S
C2085 C2080 1.390 . S
C2085 C2084 1.387 . S
H2086 C2098 0.930 . S
H2087 C2100 0.930 . S
H2088 C2101 0.930 . S
H2089 C2105 0.959 . S
H2090 C2105 0.959 . S
H2091 C2105 0.961 . S
H2092 C2106 0.960 . S
H2093 C2106 0.961 . S
H2094 C2106 0.959 . S
H2095 C2109 0.929 . S
H2096 C2110 0.931 . S
H2097 C2112 0.930 . S
C2098 H2086 0.930 . S
C2098 C2099 1.399 . S
C2098 C2103 1.399 . S
C2099 C2098 1.399 . S
C2099 C2100 1.376 . S
C2100 H2087 0.930 . S
C2100 C2099 1.376 . S
C2100 C2101 1.388 . S
C2101 H2088 0.930 . S
C2101 C2100 1.388 . S
C2101 C2102 1.390 . S
C2102 C2101 1.390 . S
C2102 C2103 1.394 . S
C2102 C2108 1.465 . S
C2103 C2098 1.399 . S
C2103 C2102 1.394 . S
C2103 C2104 1.516 . S
C2104 C2103 1.516 . S
C2104 C2105 1.502 . S
C2104 C2106 1.561 . S
C2104 C2107 1.526 . S
C2105 H2089 0.959 . S
C2105 H2090 0.959 . S
C2105 H2091 0.961 . S
C2105 C2104 1.502 . S
C2106 H2092 0.960 . S
C2106 H2093 0.961 . S
C2106 H2094 0.959 . S
C2106 C2104 1.561 . S
C2107 C2104 1.526 . S
C2107 C2108 1.396 . S
C2107 C2112 1.390 . S
C2108 C2102 1.465 . S
C2108 C2107 1.396 . S
C2108 C2109 1.399 . S
C2109 H2095 0.929 . S
C2109 C2108 1.399 . S
C2109 C2110 1.385 . S
C2110 H2096 0.931 . S
C2110 C2109 1.385 . S
C2110 C2111 1.389 . S
C2111 C2110 1.389 . S
C2111 C2112 1.387 . S
C2112 H2097 0.930 . S
C2112 C2107 1.390 . S
C2112 C2111 1.387 . S
H2113 C2125 0.930 . S
H2114 C2127 0.930 1_554 S
H2115 C2128 0.930 . S
H2116 C2132 0.959 . S
H2117 C2132 0.959 . S
H2118 C2132 0.961 . S
H2119 C2133 0.960 . S
H2120 C2133 0.961 . S
H2121 C2133 0.959 . S
H2122 C2136 0.929 . S
H2123 C2137 0.931 . S
H2124 C2139 0.930 . S
C2125 H2113 0.930 . S
C2125 C2126 1.399 . S
C2125 C2130 1.399 . S
C2126 C2125 1.399 . S
C2126 C2127 1.376 . S
C2127 H2114 0.930 1_556 S
C2127 C2126 1.376 . S
C2127 C2128 1.388 1_556 S
C2128 H2115 0.930 . S
C2128 C2127 1.388 1_554 S
C2128 C2129 1.390 . S
C2129 C2128 1.390 . S
C2129 C2130 1.394 1_554 S
C2129 C2135 1.465 . S
C2130 C2125 1.399 . S
C2130 C2129 1.394 1_556 S
C2130 C2131 1.516 . S
C2131 C2130 1.516 . S
C2131 C2132 1.502 . S
C2131 C2133 1.561 1_556 S
C2131 C2134 1.526 1_556 S
C2132 H2116 0.959 . S
C2132 H2117 0.959 . S
C2132 H2118 0.961 . S
C2132 C2131 1.502 . S
C2133 H2119 0.960 . S
C2133 H2120 0.961 . S
C2133 H2121 0.959 . S
C2133 C2131 1.561 1_554 S
C2134 C2131 1.526 1_554 S
C2134 C2135 1.396 . S
C2134 C2139 1.390 . S
C2135 C2129 1.465 . S
C2135 C2134 1.396 . S
C2135 C2136 1.399 . S
C2136 H2122 0.929 . S
C2136 C2135 1.399 . S
C2136 C2137 1.385 . S
C2137 H2123 0.931 . S
C2137 C2136 1.385 . S
C2137 C2138 1.389 . S
C2138 C2137 1.389 . S
C2138 C2139 1.387 . S
C2139 H2124 0.930 . S
C2139 C2134 1.390 . S
C2139 C2138 1.387 . S
H2140 C2152 0.930 . S
H2141 C2154 0.930 . S
H2142 C2155 0.930 . S
H2143 C2159 0.959 . S
H2144 C2159 0.959 . S
H2145 C2159 0.961 . S
H2146 C2160 0.960 . S
H2147 C2160 0.961 . S
H2148 C2160 0.959 . S
H2149 C2163 0.929 . S
H2150 C2164 0.931 . S
H2151 C2166 0.930 . S
C2152 H2140 0.930 . S
C2152 C2153 1.399 . S
C2152 C2157 1.399 . S
C2153 C2152 1.399 . S
C2153 C2154 1.376 . S
C2154 H2141 0.930 . S
C2154 C2153 1.376 . S
C2154 C2155 1.388 . S
C2155 H2142 0.930 . S
C2155 C2154 1.388 . S
C2155 C2156 1.390 . S
C2156 C2155 1.390 . S
C2156 C2157 1.394 . S
C2156 C2162 1.465 . S
C2157 C2152 1.399 . S
C2157 C2156 1.394 . S
C2157 C2158 1.516 . S
C2158 C2157 1.516 . S
C2158 C2159 1.502 . S
C2158 C2160 1.561 . S
C2158 C2161 1.526 . S
C2159 H2143 0.959 . S
C2159 H2144 0.959 . S
C2159 H2145 0.961 . S
C2159 C2158 1.502 . S
C2160 H2146 0.960 . S
C2160 H2147 0.961 . S
C2160 H2148 0.959 . S
C2160 C2158 1.561 . S
C2161 C2158 1.526 . S
C2161 C2162 1.396 . S
C2161 C2166 1.390 . S
C2162 C2156 1.465 . S
C2162 C2161 1.396 . S
C2162 C2163 1.399 . S
C2163 H2149 0.929 . S
C2163 C2162 1.399 . S
C2163 C2164 1.385 . S
C2164 H2150 0.931 . S
C2164 C2163 1.385 . S
C2164 C2165 1.389 . S
C2165 C2164 1.389 . S
C2165 C2166 1.387 . S
C2166 H2151 0.930 . S
C2166 C2161 1.390 . S
C2166 C2165 1.387 . S
H2167 C2179 0.930 . S
H2168 C2181 0.930 . S
H2169 C2182 0.930 . S
H2170 C2186 0.959 . S
H2171 C2186 0.959 . S
H2172 C2186 0.961 . S
H2173 C2187 0.960 . S
H2174 C2187 0.961 . S
H2175 C2187 0.959 . S
H2176 C2190 0.929 . S
H2177 C2191 0.931 . S
H2178 C2193 0.930 . S
C2179 H2167 0.930 . S
C2179 C2180 1.399 . S
C2179 C2184 1.399 . S
C2180 C2179 1.399 . S
C2180 C2181 1.376 . S
C2181 H2168 0.930 . S
C2181 C2180 1.376 . S
C2181 C2182 1.388 . S
C2182 H2169 0.930 . S
C2182 C2181 1.388 . S
C2182 C2183 1.390 . S
C2183 C2182 1.390 . S
C2183 C2184 1.394 . S
C2183 C2189 1.465 . S
C2184 C2179 1.399 . S
C2184 C2183 1.394 . S
C2184 C2185 1.516 . S
C2185 C2184 1.516 . S
C2185 C2186 1.502 . S
C2185 C2187 1.561 . S
C2185 C2188 1.526 . S
C2186 H2170 0.959 . S
C2186 H2171 0.959 . S
C2186 H2172 0.961 . S
C2186 C2185 1.502 . S
C2187 H2173 0.960 . S
C2187 H2174 0.961 . S
C2187 H2175 0.959 . S
C2187 C2185 1.561 . S
C2188 C2185 1.526 . S
C2188 C2189 1.396 . S
C2188 C2193 1.390 . S
C2189 C2183 1.465 . S
C2189 C2188 1.396 . S
C2189 C2190 1.399 . S
C2190 H2176 0.929 . S
C2190 C2189 1.399 . S
C2190 C2191 1.385 . S
C2191 H2177 0.931 . S
C2191 C2190 1.385 . S
C2191 C2192 1.389 . S
C2192 C2191 1.389 . S
C2192 C2193 1.387 . S
C2193 H2178 0.930 . S
C2193 C2188 1.390 . S
C2193 C2192 1.387 . S
H2194 C2206 0.930 . S
H2195 C2208 0.930 . S
H2196 C2209 0.930 . S
H2197 C2213 0.959 . S
H2198 C2213 0.959 . S
H2199 C2213 0.961 . S
H2200 C2214 0.960 . S
H2201 C2214 0.961 . S
H2202 C2214 0.959 . S
H2203 C2217 0.929 . S
H2204 C2218 0.931 . S
H2205 C2220 0.930 . S
C2206 H2194 0.930 . S
C2206 C2207 1.399 . S
C2206 C2211 1.399 . S
C2207 C2206 1.399 . S
C2207 C2208 1.376 . S
C2208 H2195 0.930 . S
C2208 C2207 1.376 . S
C2208 C2209 1.388 . S
C2209 H2196 0.930 . S
C2209 C2208 1.388 . S
C2209 C2210 1.390 . S
C2210 C2209 1.390 . S
C2210 C2211 1.394 . S
C2210 C2216 1.465 . S
C2211 C2206 1.399 . S
C2211 C2210 1.394 . S
C2211 C2212 1.516 . S
C2212 C2211 1.516 . S
C2212 C2213 1.502 . S
C2212 C2214 1.561 . S
C2212 C2215 1.526 . S
C2213 H2197 0.959 . S
C2213 H2198 0.959 . S
C2213 H2199 0.961 . S
C2213 C2212 1.502 . S
C2214 H2200 0.960 . S
C2214 H2201 0.961 . S
C2214 H2202 0.959 . S
C2214 C2212 1.561 . S
C2215 C2212 1.526 . S
C2215 C2216 1.396 . S
C2215 C2220 1.390 . S
C2216 C2210 1.465 . S
C2216 C2215 1.396 . S
C2216 C2217 1.399 . S
C2217 H2203 0.929 . S
C2217 C2216 1.399 . S
C2217 C2218 1.385 . S
C2218 H2204 0.931 . S
C2218 C2217 1.385 . S
C2218 C2219 1.389 . S
C2219 C2218 1.389 . S
C2219 C2220 1.387 . S
C2220 H2205 0.930 . S
C2220 C2215 1.390 . S
C2220 C2219 1.387 . S
H2221 C2233 0.930 . S
H2222 C2235 0.930 . S
H2223 C2236 0.930 . S
H2224 C2240 0.959 . S
H2225 C2240 0.959 . S
H2226 C2240 0.961 . S
H2227 C2241 0.960 . S
H2228 C2241 0.961 1_556 S
H2229 C2241 0.959 . S
H2230 C2244 0.929 . S
H2231 C2245 0.931 . S
H2232 C2247 0.930 . S
C2233 H2221 0.930 . S
C2233 C2234 1.399 1_556 S
C2233 C2238 1.399 . S
C2234 C2233 1.399 1_554 S
C2234 C2235 1.376 . S
C2235 H2222 0.930 . S
C2235 C2234 1.376 . S
C2235 C2236 1.388 . S
C2236 H2223 0.930 . S
C2236 C2235 1.388 . S
C2236 C2237 1.390 . S
C2237 C2236 1.390 . S
C2237 C2238 1.394 1_554 S
C2237 C2243 1.465 . S
C2238 C2233 1.399 . S
C2238 C2237 1.394 1_556 S
C2238 C2239 1.516 . S
C2239 C2238 1.516 . S
C2239 C2240 1.502 . S
C2239 C2241 1.561 1_556 S
C2239 C2242 1.526 . S
C2240 H2224 0.959 . S
C2240 H2225 0.959 . S
C2240 H2226 0.961 . S
C2240 C2239 1.502 . S
C2241 H2227 0.960 . S
C2241 H2228 0.961 1_554 S
C2241 H2229 0.959 . S
C2241 C2239 1.561 1_554 S
C2242 C2239 1.526 . S
C2242 C2243 1.396 1_556 S
C2242 C2247 1.390 . S
C2243 C2237 1.465 . S
C2243 C2242 1.396 1_554 S
C2243 C2244 1.399 . S
C2244 H2230 0.929 . S
C2244 C2243 1.399 . S
C2244 C2245 1.385 . S
C2245 H2231 0.931 . S
C2245 C2244 1.385 . S
C2245 C2246 1.389 . S
C2246 C2245 1.389 . S
C2246 C2247 1.387 1_554 S
C2247 H2232 0.930 . S
C2247 C2242 1.390 . S
C2247 C2246 1.387 1_556 S
H2248 C2260 0.930 . S
H2249 C2262 0.930 . S
H2250 C2263 0.930 . S
H2251 C2267 0.959 . S
H2252 C2267 0.959 . S
H2253 C2267 0.961 1_565 S
H2254 C2268 0.960 1_565 S
H2255 C2268 0.961 . S
H2256 C2268 0.959 . S
H2257 C2271 0.929 . S
H2258 C2272 0.931 . S
H2259 C2274 0.930 . S
C2260 H2248 0.930 . S
C2260 C2261 1.399 . S
C2260 C2265 1.399 . S
C2261 C2260 1.399 . S
C2261 C2262 1.376 . S
C2262 H2249 0.930 . S
C2262 C2261 1.376 . S
C2262 C2263 1.388 . S
C2263 H2250 0.930 . S
C2263 C2262 1.388 . S
C2263 C2264 1.390 . S
C2264 C2263 1.390 . S
C2264 C2265 1.394 . S
C2264 C2270 1.465 1_565 S
C2265 C2260 1.399 . S
C2265 C2264 1.394 . S
C2265 C2266 1.516 1_565 S
C2266 C2265 1.516 1_545 S
C2266 C2267 1.502 . S
C2266 C2268 1.561 . S
C2266 C2269 1.526 . S
C2267 H2251 0.959 . S
C2267 H2252 0.959 . S
C2267 H2253 0.961 1_545 S
C2267 C2266 1.502 . S
C2268 H2254 0.960 1_545 S
C2268 H2255 0.961 . S
C2268 H2256 0.959 . S
C2268 C2266 1.561 . S
C2269 C2266 1.526 . S
C2269 C2270 1.396 . S
C2269 C2274 1.390 . S
C2270 C2264 1.465 1_545 S
C2270 C2269 1.396 . S
C2270 C2271 1.399 . S
C2271 H2257 0.929 . S
C2271 C2270 1.399 . S
C2271 C2272 1.385 . S
C2272 H2258 0.931 . S
C2272 C2271 1.385 . S
C2272 C2273 1.389 . S
C2273 C2272 1.389 . S
C2273 C2274 1.387 . S
C2274 H2259 0.930 . S
C2274 C2269 1.390 . S
C2274 C2273 1.387 . S
H2275 C2287 0.930 . S
H2276 C2289 0.930 . S
H2277 C2290 0.930 1_556 S
H2278 C2294 0.959 . S
H2279 C2294 0.959 . S
H2280 C2294 0.961 . S
H2281 C2295 0.960 . S
H2282 C2295 0.961 . S
H2283 C2295 0.959 . S
H2284 C2298 0.929 . S
H2285 C2299 0.931 . S
H2286 C2301 0.930 . S
C2287 H2275 0.930 . S
C2287 C2288 1.399 . S
C2287 C2292 1.399 . S
C2288 C2287 1.399 . S
C2288 C2289 1.376 . S
C2289 H2276 0.930 . S
C2289 C2288 1.376 . S
C2289 C2290 1.388 . S
C2290 H2277 0.930 1_554 S
C2290 C2289 1.388 . S
C2290 C2291 1.390 1_554 S
C2291 C2290 1.390 1_556 S
C2291 C2292 1.394 1_556 S
C2291 C2297 1.465 . S
C2292 C2287 1.399 . S
C2292 C2291 1.394 1_554 S
C2292 C2293 1.512 1_554 S
C2293 C2292 1.512 1_556 S
C2293 C2294 1.476 1_556 S
C2293 C2295 1.590 . S
C2293 C2296 1.532 . S
C2294 H2278 0.959 . S
C2294 H2279 0.959 . S
C2294 H2280 0.961 . S
C2294 C2293 1.476 1_554 S
C2295 H2281 0.960 . S
C2295 H2282 0.961 . S
C2295 H2283 0.959 . S
C2295 C2293 1.590 . S
C2296 C2293 1.532 . S
C2296 C2297 1.396 . S
C2296 C2301 1.390 . S
C2297 C2291 1.465 . S
C2297 C2296 1.396 . S
C2297 C2298 1.399 . S
C2298 H2284 0.929 . S
C2298 C2297 1.399 . S
C2298 C2299 1.385 . S
C2299 H2285 0.931 . S
C2299 C2298 1.385 . S
C2299 C2300 1.389 . S
C2300 C2299 1.389 . S
C2300 C2301 1.387 . S
C2301 H2286 0.930 . S
C2301 C2296 1.390 . S
C2301 C2300 1.387 . S
H2302 C2314 0.930 . S
H2303 C2316 0.930 . S
H2304 C2317 0.930 . S
H2305 C2321 0.959 . S
H2306 C2321 0.959 . S
H2307 C2321 0.961 1_545 S
H2308 C2322 0.960 1_545 S
H2309 C2322 0.961 . S
H2310 C2322 0.959 . S
H2311 C2325 0.929 . S
H2312 C2326 0.931 . S
H2313 C2328 0.930 . S
C2314 H2302 0.930 . S
C2314 C2315 1.399 . S
C2314 C2319 1.399 . S
C2315 C2314 1.399 . S
C2315 C2316 1.376 . S
C2316 H2303 0.930 . S
C2316 C2315 1.376 . S
C2316 C2317 1.388 . S
C2317 H2304 0.930 . S
C2317 C2316 1.388 . S
C2317 C2318 1.390 . S
C2318 C2317 1.390 . S
C2318 C2319 1.394 . S
C2318 C2324 1.465 1_545 S
C2319 C2314 1.399 . S
C2319 C2318 1.394 . S
C2319 C2320 1.516 1_545 S
C2320 C2319 1.516 1_565 S
C2320 C2321 1.502 . S
C2320 C2322 1.561 . S
C2320 C2323 1.526 . S
C2321 H2305 0.959 . S
C2321 H2306 0.959 . S
C2321 H2307 0.961 1_565 S
C2321 C2320 1.502 . S
C2322 H2308 0.960 1_565 S
C2322 H2309 0.961 . S
C2322 H2310 0.959 . S
C2322 C2320 1.561 . S
C2323 C2320 1.526 . S
C2323 C2324 1.396 . S
C2323 C2328 1.390 . S
C2324 C2318 1.465 1_565 S
C2324 C2323 1.396 . S
C2324 C2325 1.399 . S
C2325 H2311 0.929 . S
C2325 C2324 1.399 . S
C2325 C2326 1.385 . S
C2326 H2312 0.931 . S
C2326 C2325 1.385 . S
C2326 C2327 1.389 . S
C2327 C2326 1.389 . S
C2327 C2328 1.387 . S
C2328 H2313 0.930 . S
C2328 C2323 1.390 . S
C2328 C2327 1.387 . S
H2329 C2341 0.930 . S
H2330 C2343 0.930 . S
H2331 C2344 0.930 . S
H2332 C2348 0.959 . S
H2333 C2348 0.959 . S
H2334 C2348 0.961 . S
H2335 C2349 0.960 . S
H2336 C2349 0.961 . S
H2337 C2349 0.959 . S
H2338 C2352 0.929 . S
H2339 C2353 0.931 . S
H2340 C2355 0.930 . S
C2341 H2329 0.930 . S
C2341 C2342 1.399 . S
C2341 C2346 1.399 . S
C2342 C2341 1.399 . S
C2342 C2343 1.376 . S
C2343 H2330 0.930 . S
C2343 C2342 1.376 . S
C2343 C2344 1.388 . S
C2344 H2331 0.930 . S
C2344 C2343 1.388 . S
C2344 C2345 1.390 . S
C2345 C2344 1.390 . S
C2345 C2346 1.394 . S
C2345 C2351 1.465 . S
C2346 C2341 1.399 . S
C2346 C2345 1.394 . S
C2346 C2347 1.516 . S
C2347 C2346 1.516 . S
C2347 C2348 1.502 . S
C2347 C2349 1.561 . S
C2347 C2350 1.526 . S
C2348 H2332 0.959 . S
C2348 H2333 0.959 . S
C2348 H2334 0.961 . S
C2348 C2347 1.502 . S
C2349 H2335 0.960 . S
C2349 H2336 0.961 . S
C2349 H2337 0.959 . S
C2349 C2347 1.561 . S
C2350 C2347 1.526 . S
C2350 C2351 1.396 . S
C2350 C2355 1.390 . S
C2351 C2345 1.465 . S
C2351 C2350 1.396 . S
C2351 C2352 1.399 . S
C2352 H2338 0.929 . S
C2352 C2351 1.399 . S
C2352 C2353 1.385 . S
C2353 H2339 0.931 . S
C2353 C2352 1.385 . S
C2353 C2354 1.389 . S
C2354 C2353 1.389 . S
C2354 C2355 1.387 . S
C2355 H2340 0.930 . S
C2355 C2350 1.390 . S
C2355 C2354 1.387 . S
H2356 C2368 0.930 . S
H2357 C2370 0.930 . S
H2358 C2371 0.930 . S
H2359 C2375 0.953 1_565 S
H2360 C2375 0.926 1_565 S
H2361 C2375 1.000 . S
H2362 C2376 0.960 . S
H2363 C2376 0.961 1_565 S
H2364 C2376 0.960 . S
H2365 C2379 0.929 . S
H2366 C2380 0.931 . S
H2367 C2382 0.930 . S
C2368 H2356 0.930 . S
C2368 C2369 1.399 . S
C2368 C2373 1.399 . S
C2369 C2368 1.399 . S
C2369 C2370 1.376 . S
C2370 H2357 0.930 . S
C2370 C2369 1.376 . S
C2370 C2371 1.388 . S
C2371 H2358 0.930 . S
C2371 C2370 1.388 . S
C2371 C2372 1.390 . S
C2372 C2371 1.390 . S
C2372 C2373 1.394 . S
C2372 C2378 1.465 1_545 S
C2373 C2368 1.399 . S
C2373 C2372 1.394 . S
C2373 C2374 1.555 . S
C2374 C2373 1.555 . S
C2374 C2375 1.502 . S
C2374 C2376 1.564 . S
C2374 C2377 1.485 1_545 S
C2375 H2359 0.953 1_545 S
C2375 H2360 0.926 1_545 S
C2375 H2361 1.000 . S
C2375 C2374 1.502 . S
C2376 H2362 0.960 . S
C2376 H2363 0.961 1_545 S
C2376 H2364 0.960 . S
C2376 C2374 1.564 . S
C2377 C2374 1.485 1_565 S
C2377 C2378 1.396 . S
C2377 C2382 1.390 . S
C2378 C2372 1.465 1_565 S
C2378 C2377 1.396 . S
C2378 C2379 1.399 . S
C2379 H2365 0.929 . S
C2379 C2378 1.399 . S
C2379 C2380 1.385 . S
C2380 H2366 0.931 . S
C2380 C2379 1.385 . S
C2380 C2381 1.389 . S
C2381 C2380 1.389 . S
C2381 C2382 1.387 . S
C2382 H2367 0.930 . S
C2382 C2377 1.390 . S
C2382 C2381 1.387 . S
H2383 C2395 0.930 . S
H2384 C2397 0.930 . S
H2385 C2398 0.930 . S
H2386 C2402 0.959 . S
H2387 C2402 0.959 . S
H2388 C2402 0.961 . S
H2389 C2403 0.956 1_556 S
H2390 C2403 0.952 1_556 S
H2391 C2403 0.987 . S
H2392 C2406 0.929 . S
H2393 C2407 0.931 . S
H2394 C2409 0.930 . S
C2395 H2383 0.930 . S
C2395 C2396 1.399 1_556 S
C2395 C2400 1.399 . S
C2396 C2395 1.399 1_554 S
C2396 C2397 1.376 . S
C2397 H2384 0.930 . S
C2397 C2396 1.376 . S
C2397 C2398 1.388 . S
C2398 H2385 0.930 . S
C2398 C2397 1.388 . S
C2398 C2399 1.390 . S
C2399 C2398 1.390 . S
C2399 C2400 1.394 1_554 S
C2399 C2405 1.465 . S
C2400 C2395 1.399 . S
C2400 C2399 1.394 1_556 S
C2400 C2401 1.516 . S
C2401 C2400 1.516 . S
C2401 C2402 1.502 . S
C2401 C2403 1.548 1_556 S
C2401 C2404 1.526 . S
C2402 H2386 0.959 . S
C2402 H2387 0.959 . S
C2402 H2388 0.961 . S
C2402 C2401 1.502 . S
C2403 H2389 0.956 1_554 S
C2403 H2390 0.952 1_554 S
C2403 H2391 0.987 . S
C2403 C2401 1.548 1_554 S
C2404 C2401 1.526 . S
C2404 C2405 1.396 1_556 S
C2404 C2409 1.390 . S
C2405 C2399 1.465 . S
C2405 C2404 1.396 1_554 S
C2405 C2406 1.399 . S
C2406 H2392 0.929 . S
C2406 C2405 1.399 . S
C2406 C2407 1.385 . S
C2407 H2393 0.931 . S
C2407 C2406 1.385 . S
C2407 C2408 1.389 . S
C2408 C2407 1.389 . S
C2408 C2409 1.387 1_554 S
C2409 H2394 0.930 . S
C2409 C2404 1.390 . S
C2409 C2408 1.387 1_556 S
H2410 C2422 0.930 . S
H2411 C2424 0.930 . S
H2412 C2425 0.930 . S
H2413 C2429 0.959 . S
H2414 C2429 0.959 . S
H2415 C2429 0.961 1_545 S
H2416 C2430 0.960 1_545 S
H2417 C2430 0.961 . S
H2418 C2430 0.959 . S
H2419 C2433 0.929 . S
H2420 C2434 0.931 . S
H2421 C2436 0.930 . S
C2422 H2410 0.930 . S
C2422 C2423 1.399 . S
C2422 C2427 1.399 . S
C2423 C2422 1.399 . S
C2423 C2424 1.376 . S
C2424 H2411 0.930 . S
C2424 C2423 1.376 . S
C2424 C2425 1.388 . S
C2425 H2412 0.930 . S
C2425 C2424 1.388 . S
C2425 C2426 1.390 . S
C2426 C2425 1.390 . S
C2426 C2427 1.394 . S
C2426 C2432 1.465 1_545 S
C2427 C2422 1.399 . S
C2427 C2426 1.394 . S
C2427 C2428 1.467 1_545 S
C2428 C2427 1.467 1_565 S
C2428 C2429 1.505 . S
C2428 C2430 1.565 . S
C2428 C2431 1.573 . S
C2429 H2413 0.959 . S
C2429 H2414 0.959 . S
C2429 H2415 0.961 1_565 S
C2429 C2428 1.505 . S
C2430 H2416 0.960 1_565 S
C2430 H2417 0.961 . S
C2430 H2418 0.959 . S
C2430 C2428 1.565 . S
C2431 C2428 1.573 . S
C2431 C2432 1.396 . S
C2431 C2436 1.390 . S
C2432 C2426 1.465 1_565 S
C2432 C2431 1.396 . S
C2432 C2433 1.399 . S
C2433 H2419 0.929 . S
C2433 C2432 1.399 . S
C2433 C2434 1.385 . S
C2434 H2420 0.931 . S
C2434 C2433 1.385 . S
C2434 C2435 1.389 . S
C2435 C2434 1.389 . S
C2435 C2436 1.387 . S
C2436 H2421 0.930 . S
C2436 C2431 1.390 . S
C2436 C2435 1.387 . S
H2437 C2449 0.930 . S
H2438 C2451 0.930 . S
H2439 C2452 0.930 . S
H2440 C2456 0.959 . S
H2441 C2456 0.959 . S
H2442 C2456 0.961 . S
H2443 C2457 0.960 . S
H2444 C2457 0.961 . S
H2445 C2457 0.959 . S
H2446 C2460 0.929 . S
H2447 C2461 0.931 . S
H2448 C2463 0.930 . S
C2449 H2437 0.930 . S
C2449 C2450 1.399 . S
C2449 C2454 1.399 . S
C2450 C2449 1.399 . S
C2450 C2451 1.376 . S
C2451 H2438 0.930 . S
C2451 C2450 1.376 . S
C2451 C2452 1.388 . S
C2452 H2439 0.930 . S
C2452 C2451 1.388 . S
C2452 C2453 1.390 . S
C2453 C2452 1.390 . S
C2453 C2454 1.394 . S
C2453 C2459 1.465 . S
C2454 C2449 1.399 . S
C2454 C2453 1.394 . S
C2454 C2455 1.516 . S
C2455 C2454 1.516 . S
C2455 C2456 1.502 . S
C2455 C2457 1.561 . S
C2455 C2458 1.526 . S
C2456 H2440 0.959 . S
C2456 H2441 0.959 . S
C2456 H2442 0.961 . S
C2456 C2455 1.502 . S
C2457 H2443 0.960 . S
C2457 H2444 0.961 . S
C2457 H2445 0.959 . S
C2457 C2455 1.561 . S
C2458 C2455 1.526 . S
C2458 C2459 1.396 . S
C2458 C2463 1.390 . S
C2459 C2453 1.465 . S
C2459 C2458 1.396 . S
C2459 C2460 1.399 . S
C2460 H2446 0.929 . S
C2460 C2459 1.399 . S
C2460 C2461 1.385 . S
C2461 H2447 0.931 . S
C2461 C2460 1.385 . S
C2461 C2462 1.389 . S
C2462 C2461 1.389 . S
C2462 C2463 1.387 . S
C2463 H2448 0.930 . S
C2463 C2458 1.390 . S
C2463 C2462 1.387 . S
C749 C7 2.160 . S
C761 N485 1.959 . S
C776 C513 2.160 . S
C788 N25 1.959 . S
C803 C53 2.126 . S
C815 N531 1.991 . S
C830 C467 2.136 . S
C842 N71 2.007 . S
C857 C99 2.131 . S
C869 N439 2.000 . S
C884 N117 1.926 . S
C896 C375 2.126 . S
C911 N393 2.016 . S
C923 C145 2.153 . S
C938 N163 1.924 . S
C950 C421 2.128 . S
C965 C191 2.376 . S
C977 C674 2.364 . S
C992 C214 2.392 . S
C1004 C697 2.392 . S
C1019 C720 2.399 . S
C1031 C237 2.399 . S
C1046 C651 2.418 . S
C1058 C260 2.403 . S
C1073 C283 2.376 . S
C1085 C628 2.365 . S
C1100 C559 2.375 . S
C1112 C306 2.366 . S
C1127 C329 2.416 . S
C1139 C582 2.408 . S
C1154 C605 2.376 . S
C1166 C352 2.364 . S
C1181 N2 1.875 . S
C1193 C223 1.833 . S
C1208 C30 2.046 . S
C1220 C614 1.977 . S
C1235 C269 1.765 . S
C1247 N48 1.859 . S
C1262 C76 2.040 . S
C1274 C568 1.963 . S
C1289 N94 1.874 . S
C1301 C361 1.833 . S
C1316 C660 1.960 . S
C1328 C122 2.049 . S
C1343 C315 1.821 . S
C1355 N140 1.838 . S
C1370 C706 1.935 . S
C1382 C168 2.036 . S
C1397 N186 1.622 . S
C1409 N35 1.611 . S
C1424 C430 1.365 . S
C1436 N209 1.453 . S
C1451 N81 1.674 . S
C1463 N232 1.609 . S
C1478 N255 1.364 . S
C1490 C384 1.408 . S
C1505 N173 1.616 . S
C1517 N278 1.577 . S
C1532 C476 1.427 . S
C1544 N301 1.367 . S
C1559 N127 1.611 . S
C1571 N324 1.622 . S
C1586 N347 1.446 . S
C1598 C522 1.403 . S
C1613 C591 1.832 . S
C1625 N370 1.848 . S
C1640 C246 1.913 . S
C1652 C398 2.042 . S
C1667 C637 1.777 . S
C1679 N416 1.870 . S
C1694 C444 2.041 . S
C1706 C200 1.968 . S
C1721 C729 1.838 . S
C1733 N462 1.867 . S
C1748 C292 1.955 . S
C1760 C490 2.049 . S
C1775 C683 1.831 . S
C1787 N508 1.848 . S
C1802 C536 2.044 . S
C1814 C338 1.924 . S
C1829 N554 1.641 . S
C1841 N403 1.625 . S
C1856 C62 1.441 . S
C1868 N577 1.382 . S
C1883 N600 1.636 . S
C1895 N449 1.661 . S
C1910 N623 1.455 . S
C1922 C16 1.375 . S
C1937 N646 1.607 . S
C1949 N541 1.674 . S
C1964 C108 1.342 . S
C1976 N669 1.432 . S
C1991 N495 1.622 . S
C2003 N692 1.571 . S
C2018 N715 1.454 . S
C2030 C154 1.370 . S
C2045 N12 1.580 . S
C2057 N104 1.530 . S
C2072 C39 1.751 . S
C2084 C131 1.708 . S
C2099 N150 1.510 . S
C2111 N58 1.565 . S
C2126 C177 1.750 . S
C2138 C85 1.726 . S
C2153 N288 1.467 . S
C2165 N196 1.408 . S
C2180 N311 1.295 . S
C2192 N219 1.338 . S
C2207 N334 1.456 . S
C2219 N242 1.410 . S
C2234 N357 1.291 . S
C2246 N265 1.353 1_554 S
C2261 N380 1.581 . S
C2273 N472 1.528 . S
C2288 C407 1.747 . S
C2300 C499 1.731 . S
C2315 N426 1.580 . S
C2327 N518 1.535 . S
C2342 C545 1.751 . S
C2354 C453 1.723 . S
C2369 N564 1.441 . S
C2381 N656 1.494 . S
C2396 N679 1.291 . S
C2408 N587 1.356 1_554 S
C2423 N702 1.464 . S
C2435 N610 1.408 . S
C2450 N725 1.292 . S
C2462 N633 1.350 . S
