# Generated by pormake.
# Topology sqp, (5)-cn, num edge types: 1
# Building blocks:
#     Node 0, Type 0, BuildingBlock: BEQFEK_clean_sbu_0, # of connection points: 5
#     Node 1, Type 0, BuildingBlock: BEQFEK_clean_sbu_0, # of connection points: 5
#     Node 2, Type 0, BuildingBlock: BEQFEK_clean_sbu_0, # of connection points: 5
#     Node 3, Type 0, BuildingBlock: BEQFEK_clean_sbu_0, # of connection points: 5
#     Edge 4, Type (0, 0), BuildingBlock: XUDNAN_clean_linker_2, # of connection points: 2
#     Edge 5, Type (0, 0), BuildingBlock: XUDNAN_clean_linker_2, # of connection points: 2
#     Edge 6, Type (0, 0), BuildingBlock: XUDNAN_clean_linker_2, # of connection points: 2
#     Edge 7, Type (0, 0), BuildingBlock: XUDNAN_clean_linker_2, # of connection points: 2
#     Edge 8, Type (0, 0), BuildingBlock: XUDNAN_clean_linker_2, # of connection points: 2
#     Edge 9, Type (0, 0), BuildingBlock: XUDNAN_clean_linker_2, # of connection points: 2
#     Edge 10, Type (0, 0), BuildingBlock: XUDNAN_clean_linker_2, # of connection points: 2
#     Edge 11, Type (0, 0), BuildingBlock: XUDNAN_clean_linker_2, # of connection points: 2
#     Edge 12, Type (0, 0), BuildingBlock: XUDNAN_clean_linker_2, # of connection points: 2
#     Edge 13, Type (0, 0), BuildingBlock: XUDNAN_clean_linker_2, # of connection points: 2
# Relax obj value: 0.030
# Max RMSD: 0.082
# Mean RMSD: 0.082
data_MOF--net-sqp--node1-BEQFEK_clean_sbu_0--edge1-XUDNAN_clean_linker_2
_symmetry_space_group_name_H-M    P1
_symmetry_Int_Tables_number       1
_symmetry_cell_setting            triclinic
loop_
_symmetry_equiv_pos_as_xyz
'x, y, z'
_cell_length_a     24.431145
_cell_length_b     24.323118
_cell_length_c     38.342729
_cell_angle_alpha  97.556588
_cell_angle_beta   97.800747
_cell_angle_gamma 101.69459
loop_
_atom_site_label
_atom_site_type_symbol
_atom_site_fract_x
_atom_site_fract_y
_atom_site_fract_z
_atom_type_partial_charge
Co0 Co 0.08153 0.96514 0.31025 0.0
Co1 Co 0.98466 0.03144 0.29658 0.0
C2 C 0.96315 0.90847 0.2696 0.0
O3 O 0.01367 0.90812 0.28309 0.0
O4 O 0.94587 0.95449 0.27139 0.0
C5 C 0.15713 0.90887 0.27919 0.0
O6 O 0.12779 0.91919 0.25039 0.0
C7 C 0.901 0.08827 0.26151 0.0
C8 C 0.89763 0.15455 0.306 0.0
C9 C 0.87664 0.13411 0.27022 0.0
N10 N 0.93569 0.08287 0.29068 0.0
N11 N 0.93291 0.12224 0.31722 0.0
C12 C 0.89051 0.04928 0.22647 0.0
H13 H 0.89446 1.00599 0.23057 0.0
H14 H 0.92261 0.06533 0.21019 0.0
H15 H 0.84766 0.04703 0.21157 0.0
C16 C 0.14638 0.06627 0.2858 0.0
N17 N 0.09706 0.03334 0.29026 0.0
N18 N 0.05595 0.05991 0.28326 0.0
C19 C 0.07779 0.11024 0.2738 0.0
C20 C 0.13582 0.11612 0.27521 0.0
C21 C 0.20339 0.05409 0.29655 0.0
H22 H 0.20308 0.0313 0.31976 0.0
H23 H 0.21347 0.0266 0.27395 0.0
H24 H 0.23705 0.09382 0.3034 0.0
O25 O 0.06681 0.98258 0.35983 0.0
O26 O 0.99641 0.02612 0.34786 0.0
H27 H 0.03123 0.17165 0.29053 0.0
H28 H 0.06941 0.18863 0.25469 0.0
C29 C 0.04445 0.15364 0.26575 0.0
H30 H 1.00599 0.13308 0.24601 0.0
H31 H 0.95589 0.12765 0.34293 0.0
O32 O 0.1456 0.92621 0.30951 0.0
C33 C 0.02867 0.0069 0.36987 0.0
Co34 Co 0.06719 0.98574 0.69232 0.0
Co35 Co 0.96924 0.05408 0.69041 0.0
C36 C 0.08918 0.11294 0.71759 0.0
O37 O 0.10647 0.06711 0.71143 0.0
O38 O 0.0368 0.11299 0.71156 0.0
C39 C 0.14283 0.948 0.73838 0.0
O40 O 0.12624 0.98703 0.75884 0.0
C41 C 0.89051 0.12037 0.71755 0.0
C42 C 0.82696 0.11252 0.66928 0.0
C43 C 0.84096 0.13643 0.70504 0.0
N44 N 0.90471 0.08789 0.6905 0.0
N45 N 0.86658 0.08358 0.66171 0.0
C46 C 0.92583 0.13871 0.75395 0.0
H47 H 0.96869 0.13024 0.754 0.0
H48 H 0.90556 0.11482 0.77326 0.0
H49 H 0.92905 0.18468 0.76305 0.0
C50 C 0.98338 0.91186 0.72614 0.0
N51 N 1.00138 0.96031 0.71328 0.0
N52 N 0.96198 0.99016 0.71373 0.0
C53 C 0.91837 0.96211 0.72721 0.0
C54 C 0.93091 0.91216 0.73587 0.0
C55 C 0.01347 0.86409 0.72663 0.0
H56 H 0.04576 0.87317 0.75117 0.0
H57 H 0.98363 0.8232 0.72689 0.0
H58 H 0.03489 0.85993 0.70304 0.0
O59 O 0.04429 0.98053 0.63959 0.0
O60 O 0.9766 0.02969 0.64062 0.0
H61 H 0.83024 0.94467 0.73428 0.0
H62 H 0.86856 0.01746 0.74773 0.0
C63 C 0.86274 0.97885 0.72758 0.0
H64 H 0.84721 0.98858 0.70107 0.0
H65 H 0.86769 0.06098 0.6368 0.0
O66 O 0.12357 0.93877 0.70508 0.0
C67 C 1.00636 1.00195 0.6235 0.0
Co68 Co 0.53461 0.46456 0.78637 0.0
Co69 Co 0.46844 0.56133 0.80538 0.0
C70 C 0.40863 0.44511 0.76577 0.0
O71 O 0.4546 0.42798 0.76576 0.0
O72 O 0.40855 0.49573 0.77951 0.0
C73 C 0.58796 0.37218 0.7905 0.0
O74 O 0.55765 0.36601 0.8161 0.0
C75 C 0.39713 0.6473 0.79621 0.0
C76 C 0.42614 0.7032 0.84846 0.0
C77 C 0.38884 0.69588 0.81668 0.0
N78 N 0.43743 0.62742 0.81523 0.0
N79 N 0.45453 0.66136 0.84632 0.0
C80 C 0.36595 0.61896 0.75995 0.0
H81 H 0.37126 0.57474 0.75407 0.0
H82 H 0.38337 0.64283 0.73968 0.0
H83 H 0.32021 0.61911 0.75789 0.0
C84 C 0.60832 0.56015 0.76388 0.0
N85 N 0.55872 0.53686 0.77333 0.0
N86 N 0.53126 0.57704 0.78098 0.0
C87 C 0.56242 0.62707 0.77626 0.0
C88 C 0.61258 0.61829 0.76571 0.0
C89 C 0.65455 0.52895 0.75977 0.0
H90 H 0.66652 0.5132 0.78497 0.0
H91 H 0.63858 0.49138 0.73839 0.0
H92 H 0.6926 0.55633 0.75313 0.0
O93 O 0.54053 0.47384 0.83867 0.0
O94 O 0.49414 0.54107 0.8526 0.0
H95 H 0.55077 0.69358 0.81493 0.0
H96 H 0.57618 0.71784 0.77622 0.0
C97 C 0.54755 0.68332 0.78557 0.0
H98 H 0.50332 0.68092 0.77306 0.0
H99 H 0.48531 0.65556 0.86635 0.0
O100 O 0.58416 0.41204 0.77251 0.0
C101 C 0.52226 0.50497 0.86168 0.0
Co102 Co 0.57951 0.4599 0.18746 0.0
Co103 Co 0.50995 0.55491 0.18247 0.0
C104 C 0.63503 0.58289 0.2118 0.0
O105 O 0.63607 0.5304 0.20734 0.0
O106 O 0.58897 0.599 0.20394 0.0
C107 C 0.64633 0.37991 0.17181 0.0
O108 O 0.6513 0.40569 0.144 0.0
C109 C 0.45085 0.64041 0.21175 0.0
C110 C 0.39061 0.64462 0.16425 0.0
C111 C 0.40662 0.66572 0.20044 0.0
N112 N 0.45937 0.60557 0.18367 0.0
N113 N 0.42354 0.60872 0.15534 0.0
C114 C 0.48603 0.64997 0.24806 0.0
H115 H 0.52743 0.63874 0.24635 0.0
H116 H 0.46385 0.62222 0.26493 0.0
H117 H 0.49302 0.69501 0.26091 0.0
C118 C 0.48709 0.41134 0.2238 0.0
N119 N 0.51431 0.45389 0.20904 0.0
N120 N 0.48322 0.4918 0.20579 0.0
C121 C 0.43413 0.47352 0.21765 0.0
C122 C 0.43507 0.42199 0.22961 0.0
C123 C 0.51053 0.36111 0.23152 0.0
H124 H 0.55608 0.37548 0.24336 0.0
H125 H 0.48766 0.33794 0.25021 0.0
H126 H 0.50696 0.33177 0.20616 0.0
O127 O 0.55908 0.45898 0.1358 0.0
O128 O 0.51114 0.52691 0.13149 0.0
H129 H 0.34416 0.47012 0.214 0.0
H130 H 0.39042 0.53741 0.23447 0.0
C131 C 0.38423 0.50045 0.21294 0.0
H132 H 0.38037 0.51557 0.1869 0.0
H133 H 0.42086 0.58551 0.13 0.0
O134 O 0.61652 0.39586 0.19421 0.0
C135 C 0.53286 0.48808 0.11706 0.0
H136 H 0.08977 0.97578 0.42757 0.0
H137 H 0.94268 0.04446 0.39648 0.0
H138 H 0.91943 0.04454 0.45665 0.0
H139 H 0.02631 0.88454 0.48536 0.0
H140 H 0.08936 0.89843 0.51853 0.0
H141 H 0.09524 0.9024 0.47254 0.0
H142 H 0.15543 1.00556 0.4908 0.0
H143 H 0.15023 1.00168 0.53686 0.0
H144 H 0.12798 0.05805 0.51656 0.0
H145 H 0.90986 0.03625 0.51847 0.0
H146 H 0.91969 0.02926 0.58207 0.0
H147 H 0.07438 0.96866 0.57606 0.0
C148 C 0.0528 0.99096 0.43349 0.0
C149 C 0.01799 0.00986 0.4071 0.0
C150 C 0.97012 0.02969 0.41604 0.0
C151 C 0.95626 0.02968 0.45017 0.0
C152 C 0.99077 0.01007 0.47529 0.0
C153 C 0.03843 0.99172 0.46774 0.0
C154 C 0.069 0.97473 0.50044 0.0
C155 C 0.07002 0.91125 0.49381 0.0
C156 C 0.12923 0.01226 0.51184 0.0
C157 C 0.03103 0.98676 0.52741 0.0
C158 C 0.9859 0.00647 0.51196 0.0
C159 C 0.94508 0.02106 0.53102 0.0
C160 C 0.95114 0.01687 0.56721 0.0
C161 C 0.99799 0.99864 0.58424 0.0
C162 C 0.03795 0.98239 0.56382 0.0
H163 H 0.49001 0.54807 0.06776 0.0
H164 H 0.57453 0.40859 0.07798 0.0
H165 H 0.5816 0.39907 0.0142 0.0
H166 H 0.40894 0.48923 0.97884 0.0
H167 H 0.41634 0.55774 0.96465 0.0
H168 H 0.41595 0.55239 0.01103 0.0
H169 H 0.51257 0.62518 0.02787 0.0
H170 H 0.51358 0.63026 0.98151 0.0
H171 H 0.5719 0.61129 0.00766 0.0
H172 H 0.58412 0.4072 0.95058 0.0
H173 H 0.57542 0.4277 0.88922 0.0
H174 H 0.48808 0.5611 0.91927 0.0
C175 C 0.50938 0.51506 0.05652 0.0
C176 C 0.5318 0.47917 0.07801 0.0
C177 C 0.55707 0.4367 0.0622 0.0
C178 C 0.56143 0.43096 0.02596 0.0
C179 C 0.54009 0.46778 0.00578 0.0
C180 C 0.51401 0.5086 0.02028 0.0
C181 C 0.49505 0.54291 0.99255 0.0
C182 C 0.43022 0.53507 0.9864 0.0
C183 C 0.52508 0.60615 0.00303 0.0
C184 C 0.51496 0.51515 0.96032 0.0
C185 C 0.54098 0.47207 0.96867 0.0
C186 C 0.56351 0.44058 0.94359 0.0
C187 C 0.55847 0.45274 0.90879 0.0
C188 C 0.53089 0.49594 0.89928 0.0
C189 C 0.50935 0.52781 0.92561 0.0
H190 H 0.21903 0.1285 0.23375 0.0
H191 H 0.14794 0.2212 0.31398 0.0
H192 H 0.21731 0.30957 0.31155 0.0
H193 H 0.3656 0.20229 0.26446 0.0
H194 H 0.38249 0.20243 0.22015 0.0
H195 H 0.32781 0.14632 0.22859 0.0
H196 H 0.25617 0.16875 0.17912 0.0
H197 H 0.31063 0.22484 0.17049 0.0
H198 H 0.24506 0.24007 0.18116 0.0
H199 H 0.29404 0.38788 0.30014 0.0
H200 H 0.37266 0.45078 0.28012 0.0
H201 H 0.39234 0.30781 0.2063 0.0
C202 C 0.21839 0.1675 0.2508 0.0
C203 C 0.17803 0.16851 0.27379 0.0
C204 C 0.17816 0.22002 0.29583 0.0
C205 C 0.2175 0.27024 0.29475 0.0
C206 C 0.25647 0.26813 0.27151 0.0
C207 C 0.25725 0.21814 0.24991 0.0
C208 C 0.30302 0.22774 0.22694 0.0
C209 C 0.34736 0.19261 0.23556 0.0
C210 C 0.27716 0.21458 0.18707 0.0
C211 C 0.32774 0.29086 0.23897 0.0
C212 C 0.30043 0.31332 0.26479 0.0
C213 C 0.31574 0.37077 0.27992 0.0
C214 C 0.36019 0.40618 0.26835 0.0
C215 C 0.38859 0.38404 0.24188 0.0
C216 C 0.37192 0.32567 0.227 0.0
H217 H 0.7932 0.18562 0.28859 0.0
H218 H 0.88041 0.14698 0.20029 0.0
H219 H 0.82391 0.19812 0.16358 0.0
H220 H 0.6536 0.17829 0.23526 0.0
H221 H 0.64118 0.23761 0.26414 0.0
H222 H 0.68357 0.19197 0.28203 0.0
H223 H 0.76612 0.27965 0.30671 0.0
H224 H 0.72413 0.32545 0.28883 0.0
H225 H 0.79291 0.32565 0.27669 0.0
H226 H 0.76442 0.26073 0.13835 0.0
H227 H 0.70629 0.33031 0.12646 0.0
H228 H 0.65876 0.32966 0.23153 0.0
C229 C 0.79954 0.18695 0.26127 0.0
C230 C 0.83984 0.16058 0.24692 0.0
C231 C 0.84803 0.16448 0.21139 0.0
C232 C 0.8165 0.19404 0.19041 0.0
C233 C 0.77719 0.21966 0.20542 0.0
C234 C 0.7685 0.21633 0.24002 0.0
C235 C 0.7266 0.25091 0.25063 0.0
C236 C 0.67306 0.21238 0.25846 0.0
C237 C 0.75411 0.29821 0.28259 0.0
C238 C 0.71405 0.27526 0.21685 0.0
C239 C 0.74333 0.25639 0.19101 0.0
C240 C 0.74077 0.27531 0.15821 0.0
C241 C 0.70775 0.31495 0.15175 0.0
C242 C 0.67786 0.3353 0.17801 0.0
C243 C 0.68064 0.31451 0.21078 0.0
H244 H 0.65484 0.70052 0.21961 0.0
H245 H 0.73994 0.56112 0.22836 0.0
H246 H 0.83228 0.62887 0.24024 0.0
H247 H 0.75532 0.78285 0.17599 0.0
H248 H 0.75193 0.85073 0.19987 0.0
H249 H 0.69135 0.79174 0.19237 0.0
H250 H 0.68964 0.80201 0.2603 0.0
H251 H 0.74959 0.86161 0.26793 0.0
H252 H 0.75289 0.80154 0.29046 0.0
H253 H 0.91557 0.71009 0.24925 0.0
H254 H 0.98503 0.80196 0.2619 0.0
H255 H 0.8475 0.8901 0.24847 0.0
C256 C 0.69285 0.6843 0.22438 0.0
C257 C 0.68982 0.62527 0.22289 0.0
C258 C 0.74078 0.60598 0.22927 0.0
C259 C 0.79366 0.64413 0.23588 0.0
C260 C 0.79519 0.70165 0.23626 0.0
C261 C 0.74629 0.72195 0.23122 0.0
C262 C 0.76029 0.78621 0.23381 0.0
C263 C 0.73842 0.8039 0.19839 0.0
C264 C 0.73672 0.8145 0.26499 0.0
C265 C 0.8246 0.79858 0.24108 0.0
C266 C 0.8437 0.74904 0.24204 0.0
C267 C 0.90122 0.74928 0.24868 0.0
C268 C 0.94039 0.80176 0.25569 0.0
C269 C 0.92194 0.85344 0.25622 0.0
C270 C 0.86317 0.85147 0.24803 0.0
H271 H 0.20196 0.88009 0.21957 0.0
H272 H 0.21229 0.86292 0.33139 0.0
H273 H 0.28191 0.8029 0.32463 0.0
H274 H 0.20817 0.73984 0.18693 0.0
H275 H 0.25088 0.75902 0.1537 0.0
H276 H 0.20473 0.80334 0.16799 0.0
H277 H 0.28994 0.89035 0.18483 0.0
H278 H 0.3364 0.84628 0.1705 0.0
H279 H 0.35172 0.88625 0.21508 0.0
H280 H 0.3434 0.73724 0.30389 0.0
H281 H 0.39502 0.67561 0.27203 0.0
H282 H 0.34919 0.74087 0.17468 0.0
C283 C 0.21921 0.86419 0.24276 0.0
C284 C 0.20159 0.87609 0.27601 0.0
C285 C 0.22529 0.85449 0.30568 0.0
C286 C 0.26482 0.82033 0.30209 0.0
C287 C 0.28069 0.80881 0.26878 0.0
C288 C 0.25901 0.83058 0.23974 0.0
C289 C 0.28182 0.8108 0.20665 0.0
C290 C 0.23352 0.77619 0.17709 0.0
C291 C 0.31707 0.86145 0.1935 0.0
C292 C 0.31887 0.77353 0.22141 0.0
C293 C 0.31776 0.77293 0.25727 0.0
C294 C 0.34588 0.73864 0.27604 0.0
C295 C 0.37594 0.70416 0.25769 0.0
C296 C 0.37839 0.70474 0.221 0.0
C297 C 0.34925 0.74008 0.20286 0.0
H298 H 0.34455 0.7249 0.75199 0.0
H299 H 0.34067 0.75092 0.86586 0.0
H300 H 0.27717 0.81615 0.8574 0.0
H301 H 0.34472 0.86676 0.73913 0.0
H302 H 0.29867 0.84799 0.69643 0.0
H303 H 0.34247 0.801 0.71052 0.0
H304 H 0.25379 0.7184 0.70169 0.0
H305 H 0.20972 0.76501 0.68726 0.0
H306 H 0.19501 0.72788 0.72383 0.0
H307 H 0.21876 0.88144 0.83827 0.0
H308 H 0.16377 0.9413 0.80879 0.0
H309 H 0.19993 0.87241 0.70616 0.0
C310 C 0.32925 0.74299 0.77501 0.0
C311 C 0.34735 0.73193 0.80963 0.0
C312 C 0.32768 0.75857 0.83911 0.0
C313 C 0.29137 0.79566 0.8346 0.0
C314 C 0.27471 0.80592 0.80037 0.0
C315 C 0.29246 0.78023 0.77097 0.0
C316 C 0.26856 0.80004 0.73725 0.0
C317 C 0.31647 0.83077 0.71982 0.0
C318 C 0.22944 0.74984 0.71095 0.0
C319 C 0.23518 0.84116 0.75253 0.0
C320 C 0.23971 0.84373 0.78905 0.0
C321 C 0.2145 0.87958 0.80965 0.0
C322 C 0.18349 0.91369 0.79257 0.0
C323 C 0.1774 0.91174 0.75511 0.0
C324 C 0.20357 0.87471 0.7348 0.0
H325 H 0.20559 0.13463 0.72313 0.0
H326 H 0.06575 0.21718 0.73538 0.0
H327 H 0.13181 0.31083 0.74566 0.0
H328 H 0.3096 0.23511 0.79144 0.0
H329 H 0.36701 0.23204 0.76679 0.0
H330 H 0.30867 0.17128 0.76133 0.0
H331 H 0.29216 0.17135 0.69312 0.0
H332 H 0.34977 0.2328 0.69848 0.0
H333 H 0.28022 0.2347 0.67658 0.0
H334 H 0.21148 0.3955 0.75217 0.0
H335 H 0.30218 0.46614 0.76151 0.0
H336 H 0.39082 0.32928 0.74553 0.0
C337 C 0.18895 0.17233 0.72846 0.0
C338 C 0.13036 0.16838 0.7283 0.0
C339 C 0.11038 0.21893 0.73524 0.0
C340 C 0.14751 0.27245 0.74097 0.0
C341 C 0.20459 0.27486 0.73984 0.0
C342 C 0.22548 0.22627 0.7343 0.0
C343 C 0.28891 0.24102 0.73475 0.0
C344 C 0.3204 0.21854 0.76541 0.0
C345 C 0.3036 0.21863 0.69857 0.0
C346 C 0.30022 0.30544 0.74136 0.0
C347 C 0.25089 0.32399 0.74393 0.0
C348 C 0.2505 0.38158 0.75034 0.0
C349 C 0.30226 0.42139 0.75544 0.0
C350 C 0.35376 0.4034 0.75427 0.0
C351 C 0.35228 0.34457 0.74633 0.0
H352 H 0.79028 0.2192 0.68289 0.0
H353 H 0.8132 0.12674 0.77109 0.0
H354 H 0.75363 0.1793 0.80304 0.0
H355 H 0.79177 0.35521 0.73695 0.0
H356 H 0.73826 0.37174 0.70537 0.0
H357 H 0.78484 0.32857 0.69004 0.0
H358 H 0.69784 0.24906 0.6591 0.0
H359 H 0.651 0.29183 0.67444 0.0
H360 H 0.64546 0.22102 0.68492 0.0
H361 H 0.68731 0.23738 0.82383 0.0
H362 H 0.62198 0.30069 0.83369 0.0
H363 H 0.64276 0.35783 0.73265 0.0
C364 C 0.78314 0.21055 0.7091 0.0
C365 C 0.8075 0.16992 0.72494 0.0
C366 C 0.79677 0.15913 0.75904 0.0
C367 C 0.7624 0.18834 0.77721 0.0
C368 C 0.73917 0.22827 0.76094 0.0
C369 C 0.74933 0.23977 0.72777 0.0
C370 C 0.71856 0.28429 0.71613 0.0
C371 C 0.76089 0.33815 0.71188 0.0
C372 C 0.67567 0.26008 0.6816 0.0
C373 C 0.68887 0.29539 0.74773 0.0
C374 C 0.70129 0.26245 0.77319 0.0
C375 C 0.6776 0.26372 0.80423 0.0
C376 C 0.64035 0.29972 0.80951 0.0
C377 C 0.62729 0.33435 0.78399 0.0
C378 C 0.65218 0.33218 0.75276 0.0
H379 H 0.67726 0.64073 0.71402 0.0
H380 H 0.6658 0.69407 0.82465 0.0
H381 H 0.75199 0.77036 0.83046 0.0
H382 H 0.83347 0.67022 0.7259 0.0
H383 H 0.836 0.69576 0.68396 0.0
H384 H 0.77583 0.64257 0.68914 0.0
H385 H 0.70846 0.70686 0.66981 0.0
H386 H 0.76832 0.76003 0.66447 0.0
H387 H 0.72022 0.77855 0.69337 0.0
H388 H 0.8338 0.8449 0.82312 0.0
H389 H 0.90683 0.91403 0.80265 0.0
H390 H 0.86756 0.812 0.69729 0.0
C391 C 0.69355 0.66822 0.73947 0.0
C392 C 0.66521 0.66216 0.76887 0.0
C393 C 0.68701 0.69873 0.80181 0.0
C394 C 0.73599 0.7418 0.8054 0.0
C395 C 0.7628 0.7473 0.77584 0.0
C396 C 0.74257 0.71152 0.74351 0.0
C397 C 0.77787 0.72867 0.71549 0.0
C398 C 0.80756 0.68149 0.70289 0.0
C399 C 0.74155 0.74447 0.68393 0.0
C400 C 0.82018 0.78038 0.73691 0.0
C401 C 0.81097 0.79003 0.77176 0.0
C402 C 0.84218 0.83728 0.79611 0.0
C403 C 0.88347 0.87614 0.78439 0.0
C404 C 0.89313 0.86714 0.74884 0.0
C405 C 0.86164 0.81854 0.7249 0.0
loop_
_geom_bond_atom_site_label_1
_geom_bond_atom_site_label_2
_geom_bond_distance
_geom_bond_site_symmetry_2
_ccdc_geom_bond_type
Co0 O3 1.970 1_455 S
Co0 N17 1.989 1_565 S
Co0 O25 1.967 . S
Co0 O32 1.920 . S
Co1 O4 1.966 1_545 S
Co1 N10 2.022 . S
Co1 N18 1.993 1_655 S
Co1 O26 1.941 . S
C2 O3 1.258 . S
C2 O4 1.263 . S
O3 Co0 1.970 1_655 S
O3 C2 1.258 . S
O4 Co1 1.966 1_565 S
O4 C2 1.263 . S
C5 O6 1.235 . S
C5 O32 1.289 . S
O6 C5 1.235 . S
C7 C9 1.400 . S
C7 N10 1.351 . S
C7 C12 1.501 . S
C8 C9 1.387 . S
C8 N11 1.341 . S
C9 C7 1.400 . S
C9 C8 1.387 . S
N10 Co1 2.022 . S
N10 C7 1.351 . S
N10 N11 1.365 . S
N11 C8 1.341 . S
N11 N10 1.365 . S
N11 H31 0.862 . S
C12 C7 1.501 . S
C12 H13 0.961 . S
C12 H14 0.961 . S
C12 H15 0.960 . S
H13 C12 0.961 . S
H14 C12 0.961 . S
H15 C12 0.960 . S
C16 N17 1.342 . S
C16 C20 1.401 . S
C16 C21 1.499 . S
N17 Co0 1.989 1_545 S
N17 C16 1.342 . S
N17 N18 1.388 . S
N18 Co1 1.993 1_455 S
N18 N17 1.388 . S
N18 C19 1.346 . S
C19 N18 1.346 . S
C19 C20 1.396 . S
C19 C29 1.510 . S
C20 C16 1.401 . S
C20 C19 1.396 . S
C21 C16 1.499 . S
C21 H22 0.959 1_545 S
C21 H23 0.960 . S
C21 H24 0.961 . S
H22 C21 0.959 1_565 S
H23 C21 0.960 . S
H24 C21 0.961 . S
O25 Co0 1.967 . S
O25 C33 1.258 1_565 S
O26 Co1 1.941 . S
O26 C33 1.266 1_655 S
H27 C29 0.959 . S
H28 C29 0.961 . S
C29 C19 1.510 . S
C29 H27 0.959 . S
C29 H28 0.961 . S
C29 H30 0.960 1_455 S
H30 C29 0.960 1_655 S
H31 N11 0.862 . S
O32 Co0 1.920 . S
O32 C5 1.289 . S
C33 O25 1.258 1_545 S
C33 O26 1.266 1_455 S
Co34 O37 1.970 1_565 S
Co34 N51 1.989 1_455 S
Co34 O59 1.967 . S
Co34 O66 1.920 . S
Co35 O38 1.966 1_655 S
Co35 N44 2.022 . S
Co35 N52 1.993 1_545 S
Co35 O60 1.941 . S
C36 O37 1.258 . S
C36 O38 1.263 . S
O37 Co34 1.970 1_545 S
O37 C36 1.258 . S
O38 Co35 1.966 1_455 S
O38 C36 1.263 . S
C39 O40 1.235 . S
C39 O66 1.289 . S
O40 C39 1.235 . S
C41 C43 1.400 . S
C41 N44 1.351 . S
C41 C46 1.501 . S
C42 C43 1.387 . S
C42 N45 1.341 . S
C43 C41 1.400 . S
C43 C42 1.387 . S
N44 Co35 2.022 . S
N44 C41 1.351 . S
N44 N45 1.365 . S
N45 C42 1.341 . S
N45 N44 1.365 . S
N45 H65 0.862 . S
C46 C41 1.501 . S
C46 H47 0.961 1_655 S
C46 H48 0.961 . S
C46 H49 0.960 . S
H47 C46 0.961 1_455 S
H48 C46 0.961 . S
H49 C46 0.960 . S
C50 N51 1.342 . S
C50 C54 1.401 . S
C50 C55 1.499 . S
N51 Co34 1.989 1_655 S
N51 C50 1.342 . S
N51 N52 1.388 . S
N52 Co35 1.993 1_565 S
N52 N51 1.388 . S
N52 C53 1.346 . S
C53 N52 1.346 . S
C53 C54 1.396 . S
C53 C63 1.510 . S
C54 C50 1.401 . S
C54 C53 1.396 . S
C55 C50 1.499 . S
C55 H56 0.959 1_655 S
C55 H57 0.960 . S
C55 H58 0.961 . S
H56 C55 0.959 1_455 S
H57 C55 0.960 . S
H58 C55 0.961 . S
O59 Co34 1.967 . S
O59 C67 1.258 1_565 S
O60 Co35 1.941 . S
O60 C67 1.266 1_655 S
H61 C63 0.959 . S
H62 C63 0.961 . S
C63 C53 1.510 . S
C63 H61 0.959 . S
C63 H62 0.961 . S
C63 H64 0.960 1_565 S
H64 C63 0.960 1_545 S
H65 N45 0.862 . S
O66 Co34 1.920 . S
O66 C39 1.289 . S
C67 O59 1.258 1_545 S
C67 O60 1.266 1_455 S
Co68 O71 1.970 . S
Co68 N85 1.989 . S
Co68 O93 1.967 . S
Co68 O100 1.920 . S
Co69 O72 1.966 . S
Co69 N78 2.022 . S
Co69 N86 1.993 . S
Co69 O94 1.941 . S
C70 O71 1.258 . S
C70 O72 1.263 . S
O71 Co68 1.970 . S
O71 C70 1.258 . S
O72 Co69 1.966 . S
O72 C70 1.263 . S
C73 O74 1.235 . S
C73 O100 1.289 . S
O74 C73 1.235 . S
C75 C77 1.400 . S
C75 N78 1.351 . S
C75 C80 1.501 . S
C76 C77 1.387 . S
C76 N79 1.341 . S
C77 C75 1.400 . S
C77 C76 1.387 . S
N78 Co69 2.022 . S
N78 C75 1.351 . S
N78 N79 1.365 . S
N79 C76 1.341 . S
N79 N78 1.365 . S
N79 H99 0.862 . S
C80 C75 1.501 . S
C80 H81 0.961 . S
C80 H82 0.961 . S
C80 H83 0.960 . S
H81 C80 0.961 . S
H82 C80 0.961 . S
H83 C80 0.960 . S
C84 N85 1.342 . S
C84 C88 1.401 . S
C84 C89 1.499 . S
N85 Co68 1.989 . S
N85 C84 1.342 . S
N85 N86 1.388 . S
N86 Co69 1.993 . S
N86 N85 1.388 . S
N86 C87 1.346 . S
C87 N86 1.346 . S
C87 C88 1.396 . S
C87 C97 1.510 . S
C88 C84 1.401 . S
C88 C87 1.396 . S
C89 C84 1.499 . S
C89 H90 0.959 . S
C89 H91 0.960 . S
C89 H92 0.961 . S
H90 C89 0.959 . S
H91 C89 0.960 . S
H92 C89 0.961 . S
O93 Co68 1.967 . S
O93 C101 1.258 . S
O94 Co69 1.941 . S
O94 C101 1.266 . S
H95 C97 0.959 . S
H96 C97 0.961 . S
C97 C87 1.510 . S
C97 H95 0.959 . S
C97 H96 0.961 . S
C97 H98 0.960 . S
H98 C97 0.960 . S
H99 N79 0.862 . S
O100 Co68 1.920 . S
O100 C73 1.289 . S
C101 O93 1.258 . S
C101 O94 1.266 . S
Co102 O105 1.970 . S
Co102 N119 1.989 . S
Co102 O127 1.967 . S
Co102 O134 1.920 . S
Co103 O106 1.966 . S
Co103 N112 2.022 . S
Co103 N120 1.993 . S
Co103 O128 1.941 . S
C104 O105 1.258 . S
C104 O106 1.263 . S
O105 Co102 1.970 . S
O105 C104 1.258 . S
O106 Co103 1.966 . S
O106 C104 1.263 . S
C107 O108 1.235 . S
C107 O134 1.289 . S
O108 C107 1.235 . S
C109 C111 1.400 . S
C109 N112 1.351 . S
C109 C114 1.501 . S
C110 C111 1.387 . S
C110 N113 1.341 . S
C111 C109 1.400 . S
C111 C110 1.387 . S
N112 Co103 2.022 . S
N112 C109 1.351 . S
N112 N113 1.365 . S
N113 C110 1.341 . S
N113 N112 1.365 . S
N113 H133 0.862 . S
C114 C109 1.501 . S
C114 H115 0.961 . S
C114 H116 0.961 . S
C114 H117 0.960 . S
H115 C114 0.961 . S
H116 C114 0.961 . S
H117 C114 0.960 . S
C118 N119 1.342 . S
C118 C122 1.401 . S
C118 C123 1.499 . S
N119 Co102 1.989 . S
N119 C118 1.342 . S
N119 N120 1.388 . S
N120 Co103 1.993 . S
N120 N119 1.388 . S
N120 C121 1.346 . S
C121 N120 1.346 . S
C121 C122 1.396 . S
C121 C131 1.510 . S
C122 C118 1.401 . S
C122 C121 1.396 . S
C123 C118 1.499 . S
C123 H124 0.959 . S
C123 H125 0.960 . S
C123 H126 0.961 . S
H124 C123 0.959 . S
H125 C123 0.960 . S
H126 C123 0.961 . S
O127 Co102 1.967 . S
O127 C135 1.258 . S
O128 Co103 1.941 . S
O128 C135 1.266 . S
H129 C131 0.959 . S
H130 C131 0.961 . S
C131 C121 1.510 . S
C131 H129 0.959 . S
C131 H130 0.961 . S
C131 H132 0.960 . S
H132 C131 0.960 . S
H133 N113 0.862 . S
O134 Co102 1.920 . S
O134 C107 1.289 . S
C135 O127 1.258 . S
C135 O128 1.266 . S
H136 C148 0.930 . S
H137 C150 0.930 1_655 S
H138 C151 0.930 1_655 S
H139 C155 0.959 1_655 S
H140 C155 0.959 . S
H141 C155 0.961 . S
H142 C156 0.960 . S
H143 C156 0.961 . S
H144 C156 0.959 . S
H145 C159 0.935 . S
H146 C160 0.930 1_655 S
H147 C162 0.930 . S
C148 H136 0.930 . S
C148 C149 1.399 1_565 S
C148 C153 1.399 . S
C149 C148 1.399 1_545 S
C149 C150 1.376 . S
C150 H137 0.930 1_455 S
C150 C149 1.376 . S
C150 C151 1.388 . S
C151 H138 0.930 1_455 S
C151 C150 1.388 . S
C151 C152 1.390 . S
C152 C151 1.390 . S
C152 C153 1.394 1_545 S
C152 C158 1.465 . S
C153 C148 1.399 . S
C153 C152 1.394 1_565 S
C153 C154 1.516 . S
C154 C153 1.516 . S
C154 C155 1.502 . S
C154 C156 1.561 . S
C154 C157 1.526 . S
C155 H139 0.959 1_455 S
C155 H140 0.959 . S
C155 H141 0.961 . S
C155 C154 1.502 . S
C156 H142 0.960 . S
C156 H143 0.961 . S
C156 H144 0.959 . S
C156 C154 1.561 . S
C157 C154 1.526 . S
C157 C158 1.396 1_565 S
C157 C162 1.390 . S
C158 C152 1.465 . S
C158 C157 1.396 1_545 S
C158 C159 1.392 1_455 S
C159 H145 0.935 . S
C159 C158 1.392 1_655 S
C159 C160 1.386 1_655 S
C160 H146 0.930 1_455 S
C160 C159 1.386 1_455 S
C160 C161 1.390 . S
C161 C160 1.390 . S
C161 C162 1.387 1_545 S
C162 H147 0.930 . S
C162 C157 1.390 . S
C162 C161 1.387 1_565 S
H163 C175 0.930 . S
H164 C177 0.930 . S
H165 C178 0.930 . S
H166 C182 0.959 1_556 S
H167 C182 0.955 1_556 S
H168 C182 0.966 . S
H169 C183 0.960 . S
H170 C183 0.961 1_556 S
H171 C183 0.959 . S
H172 C186 0.929 . S
H173 C187 0.931 . S
H174 C189 0.930 . S
C175 H163 0.930 . S
C175 C176 1.399 . S
C175 C180 1.399 . S
C176 C175 1.399 . S
C176 C177 1.376 . S
C177 H164 0.930 . S
C177 C176 1.376 . S
C177 C178 1.388 . S
C178 H165 0.930 . S
C178 C177 1.388 . S
C178 C179 1.390 . S
C179 C178 1.390 . S
C179 C180 1.394 . S
C179 C185 1.465 1_554 S
C180 C175 1.399 . S
C180 C179 1.394 . S
C180 C181 1.516 . S
C181 C180 1.516 . S
C181 C182 1.502 . S
C181 C183 1.561 . S
C181 C184 1.526 1_554 S
C182 H166 0.959 1_554 S
C182 H167 0.955 1_554 S
C182 H168 0.966 . S
C182 C181 1.502 . S
C183 H169 0.960 . S
C183 H170 0.961 1_554 S
C183 H171 0.959 . S
C183 C181 1.561 . S
C184 C181 1.526 1_556 S
C184 C185 1.396 . S
C184 C189 1.390 . S
C185 C179 1.465 1_556 S
C185 C184 1.396 . S
C185 C186 1.399 . S
C186 H172 0.929 . S
C186 C185 1.399 . S
C186 C187 1.385 . S
C187 H173 0.931 . S
C187 C186 1.385 . S
C187 C188 1.389 . S
C188 C187 1.389 . S
C188 C189 1.387 . S
C189 H174 0.930 . S
C189 C184 1.390 . S
C189 C188 1.387 . S
H190 C202 0.930 . S
H191 C204 0.930 . S
H192 C205 0.930 . S
H193 C209 0.959 . S
H194 C209 0.959 . S
H195 C209 0.961 . S
H196 C210 0.960 . S
H197 C210 0.961 . S
H198 C210 0.959 . S
H199 C213 0.929 . S
H200 C214 0.931 . S
H201 C216 0.930 . S
C202 H190 0.930 . S
C202 C203 1.399 . S
C202 C207 1.399 . S
C203 C202 1.399 . S
C203 C204 1.376 . S
C204 H191 0.930 . S
C204 C203 1.376 . S
C204 C205 1.388 . S
C205 H192 0.930 . S
C205 C204 1.388 . S
C205 C206 1.390 . S
C206 C205 1.390 . S
C206 C207 1.394 . S
C206 C212 1.465 . S
C207 C202 1.399 . S
C207 C206 1.394 . S
C207 C208 1.516 . S
C208 C207 1.516 . S
C208 C209 1.502 . S
C208 C210 1.561 . S
C208 C211 1.526 . S
C209 H193 0.959 . S
C209 H194 0.959 . S
C209 H195 0.961 . S
C209 C208 1.502 . S
C210 H196 0.960 . S
C210 H197 0.961 . S
C210 H198 0.959 . S
C210 C208 1.561 . S
C211 C208 1.526 . S
C211 C212 1.396 . S
C211 C216 1.390 . S
C212 C206 1.465 . S
C212 C211 1.396 . S
C212 C213 1.399 . S
C213 H199 0.929 . S
C213 C212 1.399 . S
C213 C214 1.385 . S
C214 H200 0.931 . S
C214 C213 1.385 . S
C214 C215 1.389 . S
C215 C214 1.389 . S
C215 C216 1.387 . S
C216 H201 0.930 . S
C216 C211 1.390 . S
C216 C215 1.387 . S
H217 C229 0.930 . S
H218 C231 0.930 . S
H219 C232 0.930 . S
H220 C236 0.959 . S
H221 C236 0.959 . S
H222 C236 0.961 . S
H223 C237 0.960 . S
H224 C237 0.961 . S
H225 C237 0.959 . S
H226 C240 0.929 . S
H227 C241 0.931 . S
H228 C243 0.930 . S
C229 H217 0.930 . S
C229 C230 1.399 . S
C229 C234 1.399 . S
C230 C229 1.399 . S
C230 C231 1.376 . S
C231 H218 0.930 . S
C231 C230 1.376 . S
C231 C232 1.388 . S
C232 H219 0.930 . S
C232 C231 1.388 . S
C232 C233 1.390 . S
C233 C232 1.390 . S
C233 C234 1.394 . S
C233 C239 1.465 . S
C234 C229 1.399 . S
C234 C233 1.394 . S
C234 C235 1.516 . S
C235 C234 1.516 . S
C235 C236 1.502 . S
C235 C237 1.561 . S
C235 C238 1.526 . S
C236 H220 0.959 . S
C236 H221 0.959 . S
C236 H222 0.961 . S
C236 C235 1.502 . S
C237 H223 0.960 . S
C237 H224 0.961 . S
C237 H225 0.959 . S
C237 C235 1.561 . S
C238 C235 1.526 . S
C238 C239 1.396 . S
C238 C243 1.390 . S
C239 C233 1.465 . S
C239 C238 1.396 . S
C239 C240 1.399 . S
C240 H226 0.929 . S
C240 C239 1.399 . S
C240 C241 1.385 . S
C241 H227 0.931 . S
C241 C240 1.385 . S
C241 C242 1.389 . S
C242 C241 1.389 . S
C242 C243 1.387 . S
C243 H228 0.930 . S
C243 C238 1.390 . S
C243 C242 1.387 . S
H244 C256 0.930 . S
H245 C258 0.930 . S
H246 C259 0.930 . S
H247 C263 0.959 . S
H248 C263 0.959 . S
H249 C263 0.961 . S
H250 C264 0.960 . S
H251 C264 0.961 . S
H252 C264 0.959 . S
H253 C267 0.929 . S
H254 C268 0.931 . S
H255 C270 0.930 . S
C256 H244 0.930 . S
C256 C257 1.399 . S
C256 C261 1.399 . S
C257 C256 1.399 . S
C257 C258 1.376 . S
C258 H245 0.930 . S
C258 C257 1.376 . S
C258 C259 1.388 . S
C259 H246 0.930 . S
C259 C258 1.388 . S
C259 C260 1.390 . S
C260 C259 1.390 . S
C260 C261 1.394 . S
C260 C266 1.465 . S
C261 C256 1.399 . S
C261 C260 1.394 . S
C261 C262 1.516 . S
C262 C261 1.516 . S
C262 C263 1.502 . S
C262 C264 1.561 . S
C262 C265 1.526 . S
C263 H247 0.959 . S
C263 H248 0.959 . S
C263 H249 0.961 . S
C263 C262 1.502 . S
C264 H250 0.960 . S
C264 H251 0.961 . S
C264 H252 0.959 . S
C264 C262 1.561 . S
C265 C262 1.526 . S
C265 C266 1.396 . S
C265 C270 1.390 . S
C266 C260 1.465 . S
C266 C265 1.396 . S
C266 C267 1.399 . S
C267 H253 0.929 . S
C267 C266 1.399 . S
C267 C268 1.385 . S
C268 H254 0.931 . S
C268 C267 1.385 . S
C268 C269 1.389 . S
C269 C268 1.389 . S
C269 C270 1.387 . S
C270 H255 0.930 . S
C270 C265 1.390 . S
C270 C269 1.387 . S
H271 C283 0.930 . S
H272 C285 0.930 . S
H273 C286 0.930 . S
H274 C290 0.959 . S
H275 C290 0.959 . S
H276 C290 0.961 . S
H277 C291 0.960 . S
H278 C291 0.961 . S
H279 C291 0.959 . S
H280 C294 0.929 . S
H281 C295 0.931 . S
H282 C297 0.930 . S
C283 H271 0.930 . S
C283 C284 1.399 . S
C283 C288 1.399 . S
C284 C283 1.399 . S
C284 C285 1.376 . S
C285 H272 0.930 . S
C285 C284 1.376 . S
C285 C286 1.388 . S
C286 H273 0.930 . S
C286 C285 1.388 . S
C286 C287 1.390 . S
C287 C286 1.390 . S
C287 C288 1.394 . S
C287 C293 1.465 . S
C288 C283 1.399 . S
C288 C287 1.394 . S
C288 C289 1.516 . S
C289 C288 1.516 . S
C289 C290 1.502 . S
C289 C291 1.561 . S
C289 C292 1.526 . S
C290 H274 0.959 . S
C290 H275 0.959 . S
C290 H276 0.961 . S
C290 C289 1.502 . S
C291 H277 0.960 . S
C291 H278 0.961 . S
C291 H279 0.959 . S
C291 C289 1.561 . S
C292 C289 1.526 . S
C292 C293 1.396 . S
C292 C297 1.390 . S
C293 C287 1.465 . S
C293 C292 1.396 . S
C293 C294 1.399 . S
C294 H280 0.929 . S
C294 C293 1.399 . S
C294 C295 1.385 . S
C295 H281 0.931 . S
C295 C294 1.385 . S
C295 C296 1.389 . S
C296 C295 1.389 . S
C296 C297 1.387 . S
C297 H282 0.930 . S
C297 C292 1.390 . S
C297 C296 1.387 . S
H298 C310 0.930 . S
H299 C312 0.930 . S
H300 C313 0.930 . S
H301 C317 0.959 . S
H302 C317 0.959 . S
H303 C317 0.961 . S
H304 C318 0.960 . S
H305 C318 0.961 . S
H306 C318 0.959 . S
H307 C321 0.929 . S
H308 C322 0.931 . S
H309 C324 0.930 . S
C310 H298 0.930 . S
C310 C311 1.399 . S
C310 C315 1.399 . S
C311 C310 1.399 . S
C311 C312 1.376 . S
C312 H299 0.930 . S
C312 C311 1.376 . S
C312 C313 1.388 . S
C313 H300 0.930 . S
C313 C312 1.388 . S
C313 C314 1.390 . S
C314 C313 1.390 . S
C314 C315 1.394 . S
C314 C320 1.465 . S
C315 C310 1.399 . S
C315 C314 1.394 . S
C315 C316 1.516 . S
C316 C315 1.516 . S
C316 C317 1.502 . S
C316 C318 1.561 . S
C316 C319 1.526 . S
C317 H301 0.959 . S
C317 H302 0.959 . S
C317 H303 0.961 . S
C317 C316 1.502 . S
C318 H304 0.960 . S
C318 H305 0.961 . S
C318 H306 0.959 . S
C318 C316 1.561 . S
C319 C316 1.526 . S
C319 C320 1.396 . S
C319 C324 1.390 . S
C320 C314 1.465 . S
C320 C319 1.396 . S
C320 C321 1.399 . S
C321 H307 0.929 . S
C321 C320 1.399 . S
C321 C322 1.385 . S
C322 H308 0.931 . S
C322 C321 1.385 . S
C322 C323 1.389 . S
C323 C322 1.389 . S
C323 C324 1.387 . S
C324 H309 0.930 . S
C324 C319 1.390 . S
C324 C323 1.387 . S
H325 C337 0.930 . S
H326 C339 0.930 . S
H327 C340 0.930 . S
H328 C344 0.959 . S
H329 C344 0.959 . S
H330 C344 0.961 . S
H331 C345 0.960 . S
H332 C345 0.961 . S
H333 C345 0.959 . S
H334 C348 0.929 . S
H335 C349 0.931 . S
H336 C351 0.930 . S
C337 H325 0.930 . S
C337 C338 1.399 . S
C337 C342 1.399 . S
C338 C337 1.399 . S
C338 C339 1.376 . S
C339 H326 0.930 . S
C339 C338 1.376 . S
C339 C340 1.388 . S
C340 H327 0.930 . S
C340 C339 1.388 . S
C340 C341 1.390 . S
C341 C340 1.390 . S
C341 C342 1.394 . S
C341 C347 1.465 . S
C342 C337 1.399 . S
C342 C341 1.394 . S
C342 C343 1.516 . S
C343 C342 1.516 . S
C343 C344 1.502 . S
C343 C345 1.561 . S
C343 C346 1.526 . S
C344 H328 0.959 . S
C344 H329 0.959 . S
C344 H330 0.961 . S
C344 C343 1.502 . S
C345 H331 0.960 . S
C345 H332 0.961 . S
C345 H333 0.959 . S
C345 C343 1.561 . S
C346 C343 1.526 . S
C346 C347 1.396 . S
C346 C351 1.390 . S
C347 C341 1.465 . S
C347 C346 1.396 . S
C347 C348 1.399 . S
C348 H334 0.929 . S
C348 C347 1.399 . S
C348 C349 1.385 . S
C349 H335 0.931 . S
C349 C348 1.385 . S
C349 C350 1.389 . S
C350 C349 1.389 . S
C350 C351 1.387 . S
C351 H336 0.930 . S
C351 C346 1.390 . S
C351 C350 1.387 . S
H352 C364 0.930 . S
H353 C366 0.930 . S
H354 C367 0.930 . S
H355 C371 0.959 . S
H356 C371 0.959 . S
H357 C371 0.961 . S
H358 C372 0.960 . S
H359 C372 0.961 . S
H360 C372 0.959 . S
H361 C375 0.929 . S
H362 C376 0.931 . S
H363 C378 0.930 . S
C364 H352 0.930 . S
C364 C365 1.399 . S
C364 C369 1.399 . S
C365 C364 1.399 . S
C365 C366 1.376 . S
C366 H353 0.930 . S
C366 C365 1.376 . S
C366 C367 1.388 . S
C367 H354 0.930 . S
C367 C366 1.388 . S
C367 C368 1.390 . S
C368 C367 1.390 . S
C368 C369 1.394 . S
C368 C374 1.465 . S
C369 C364 1.399 . S
C369 C368 1.394 . S
C369 C370 1.516 . S
C370 C369 1.516 . S
C370 C371 1.502 . S
C370 C372 1.561 . S
C370 C373 1.526 . S
C371 H355 0.959 . S
C371 H356 0.959 . S
C371 H357 0.961 . S
C371 C370 1.502 . S
C372 H358 0.960 . S
C372 H359 0.961 . S
C372 H360 0.959 . S
C372 C370 1.561 . S
C373 C370 1.526 . S
C373 C374 1.396 . S
C373 C378 1.390 . S
C374 C368 1.465 . S
C374 C373 1.396 . S
C374 C375 1.399 . S
C375 H361 0.929 . S
C375 C374 1.399 . S
C375 C376 1.385 . S
C376 H362 0.931 . S
C376 C375 1.385 . S
C376 C377 1.389 . S
C377 C376 1.389 . S
C377 C378 1.387 . S
C378 H363 0.930 . S
C378 C373 1.390 . S
C378 C377 1.387 . S
H379 C391 0.930 . S
H380 C393 0.930 . S
H381 C394 0.930 . S
H382 C398 0.959 . S
H383 C398 0.959 . S
H384 C398 0.961 . S
H385 C399 0.960 . S
H386 C399 0.961 . S
H387 C399 0.959 . S
H388 C402 0.929 . S
H389 C403 0.931 . S
H390 C405 0.930 . S
C391 H379 0.930 . S
C391 C392 1.399 . S
C391 C396 1.399 . S
C392 C391 1.399 . S
C392 C393 1.376 . S
C393 H380 0.930 . S
C393 C392 1.376 . S
C393 C394 1.388 . S
C394 H381 0.930 . S
C394 C393 1.388 . S
C394 C395 1.390 . S
C395 C394 1.390 . S
C395 C396 1.394 . S
C395 C401 1.465 . S
C396 C391 1.399 . S
C396 C395 1.394 . S
C396 C397 1.516 . S
C397 C396 1.516 . S
C397 C398 1.502 . S
C397 C399 1.561 . S
C397 C400 1.526 . S
C398 H382 0.959 . S
C398 H383 0.959 . S
C398 H384 0.961 . S
C398 C397 1.502 . S
C399 H385 0.960 . S
C399 H386 0.961 . S
C399 H387 0.959 . S
C399 C397 1.561 . S
C400 C397 1.526 . S
C400 C401 1.396 . S
C400 C405 1.390 . S
C401 C395 1.465 . S
C401 C400 1.396 . S
C401 C402 1.399 . S
C402 H388 0.929 . S
C402 C401 1.399 . S
C402 C403 1.385 . S
C403 H389 0.931 . S
C403 C402 1.385 . S
C403 C404 1.389 . S
C404 C403 1.389 . S
C404 C405 1.387 . S
C405 H390 0.930 . S
C405 C400 1.390 . S
C405 C404 1.387 . S
C149 C33 1.500 . S
C161 C67 1.493 . S
C176 C135 1.513 . S
C188 C101 1.511 . S
C203 C20 1.278 . S
C215 C122 1.282 . S
C230 C9 1.481 . S
C242 C107 1.524 . S
C257 C104 1.582 . S
C269 C2 1.557 . S
C284 C5 1.557 . S
C296 C111 1.542 . S
C311 C77 1.504 . S
C323 C39 1.507 . S
C338 C36 1.582 . S
C350 C70 1.558 . S
C365 C43 1.478 . S
C377 C73 1.518 . S
C392 C88 1.277 . S
C404 C54 1.282 . S
