# Generated by pormake.
# Topology wiy, (3)-cn, num edge types: 1
# Building blocks:
#     Node 0, Type 0, BuildingBlock: OLANEW_clean_sbu_2, # of connection points: 3
#     Node 1, Type 0, BuildingBlock: OLANEW_clean_sbu_2, # of connection points: 3
#     Node 2, Type 0, BuildingBlock: OLANEW_clean_sbu_2, # of connection points: 3
#     Node 3, Type 0, BuildingBlock: OLANEW_clean_sbu_2, # of connection points: 3
#     Node 4, Type 0, BuildingBlock: OLANEW_clean_sbu_2, # of connection points: 3
#     Node 5, Type 0, BuildingBlock: OLANEW_clean_sbu_2, # of connection points: 3
#     Node 6, Type 0, BuildingBlock: OLANEW_clean_sbu_2, # of connection points: 3
#     Node 7, Type 0, BuildingBlock: OLANEW_clean_sbu_2, # of connection points: 3
#     Node 8, Type 0, BuildingBlock: OLANEW_clean_sbu_2, # of connection points: 3
#     Node 9, Type 0, BuildingBlock: OLANEW_clean_sbu_2, # of connection points: 3
#     Node 10, Type 0, BuildingBlock: OLANEW_clean_sbu_2, # of connection points: 3
#     Node 11, Type 0, BuildingBlock: OLANEW_clean_sbu_2, # of connection points: 3
#     Edge 12, Type (0, 0), BuildingBlock: EZIPEK_clean_linker_0, # of connection points: 2
#     Edge 13, Type (0, 0), BuildingBlock: EZIPEK_clean_linker_0, # of connection points: 2
#     Edge 14, Type (0, 0), BuildingBlock: EZIPEK_clean_linker_0, # of connection points: 2
#     Edge 15, Type (0, 0), BuildingBlock: EZIPEK_clean_linker_0, # of connection points: 2
#     Edge 16, Type (0, 0), BuildingBlock: EZIPEK_clean_linker_0, # of connection points: 2
#     Edge 17, Type (0, 0), BuildingBlock: EZIPEK_clean_linker_0, # of connection points: 2
#     Edge 18, Type (0, 0), BuildingBlock: EZIPEK_clean_linker_0, # of connection points: 2
#     Edge 19, Type (0, 0), BuildingBlock: EZIPEK_clean_linker_0, # of connection points: 2
#     Edge 20, Type (0, 0), BuildingBlock: EZIPEK_clean_linker_0, # of connection points: 2
#     Edge 21, Type (0, 0), BuildingBlock: EZIPEK_clean_linker_0, # of connection points: 2
#     Edge 22, Type (0, 0), BuildingBlock: EZIPEK_clean_linker_0, # of connection points: 2
#     Edge 23, Type (0, 0), BuildingBlock: EZIPEK_clean_linker_0, # of connection points: 2
#     Edge 24, Type (0, 0), BuildingBlock: EZIPEK_clean_linker_0, # of connection points: 2
#     Edge 25, Type (0, 0), BuildingBlock: EZIPEK_clean_linker_0, # of connection points: 2
#     Edge 26, Type (0, 0), BuildingBlock: EZIPEK_clean_linker_0, # of connection points: 2
#     Edge 27, Type (0, 0), BuildingBlock: EZIPEK_clean_linker_0, # of connection points: 2
#     Edge 28, Type (0, 0), BuildingBlock: EZIPEK_clean_linker_0, # of connection points: 2
#     Edge 29, Type (0, 0), BuildingBlock: EZIPEK_clean_linker_0, # of connection points: 2
# Relax obj value: 0.010
# Max RMSD: 0.007
# Mean RMSD: 0.007
data_MOF--net-wiy--node1-OLANEW_clean_sbu_2--edge1-EZIPEK_clean_linker_0
_symmetry_space_group_name_H-M    P1
_symmetry_Int_Tables_number       1
_symmetry_cell_setting            triclinic
loop_
_symmetry_equiv_pos_as_xyz
'x, y, z'
_cell_length_a     43.460137
_cell_length_b     43.463357
_cell_length_c     21.19203
_cell_angle_alpha  90.00713
_cell_angle_beta   89.994874
_cell_angle_gamma 119.97346
loop_
_atom_site_label
_atom_site_type_symbol
_atom_site_fract_x
_atom_site_fract_y
_atom_site_fract_z
_atom_type_partial_charge
O0 O 0.14251 0.5021 0.09008 0.0
Cd1 Cd 0.13246 0.44182 0.07957 0.0
O2 O 0.08993 0.48937 0.05316 0.0
Cd3 Cd 0.07254 0.43555 0.02028 0.0
O4 O 0.03814 0.39973 0.94674 0.0
C5 C 0.01218 0.36867 0.95607 0.0
O6 O 0.00641 0.35454 0.01268 0.0
C7 C 0.11972 0.51132 0.07722 0.0
C8 C 0.17529 0.43374 0.16786 0.0
O9 O 0.14395 0.42705 0.18259 0.0
O10 O 0.18606 0.44321 0.11111 0.0
O11 O 0.66551 0.13353 0.16467 0.0
Cd12 Cd 0.72886 0.15289 0.16351 0.0
O13 O 0.65338 0.09196 0.23568 0.0
Cd14 Cd 0.70019 0.0899 0.20538 0.0
O15 O 0.70373 0.06712 0.11593 0.0
C16 C 0.67408 0.04079 0.09971 0.0
O17 O 0.64709 0.02899 0.13883 0.0
C18 C 0.64395 0.1105 0.20341 0.0
C19 C 0.75715 0.18282 0.28074 0.0
O20 O 0.75406 0.20133 0.23677 0.0
O21 O 0.74789 0.15044 0.26889 0.0
O22 O 0.52274 0.66639 0.36204 0.0
Cd23 Cd 0.57657 0.72397 0.34949 0.0
O24 O 0.55262 0.64264 0.40322 0.0
Cd25 Cd 0.60259 0.68187 0.35994 0.0
O26 O 0.63206 0.68037 0.27768 0.0
C27 C 0.66523 0.69182 0.27466 0.0
O28 O 0.68585 0.70919 0.32251 0.0
C29 C 0.52321 0.64091 0.39052 0.0
C30 C 0.58029 0.76421 0.45447 0.0
O31 O 0.59538 0.74533 0.45487 0.0
O32 O 0.5646 0.76516 0.40393 0.0
O33 O 0.8402 0.50066 0.50774 0.0
Cd34 Cd 0.83842 0.55572 0.49867 0.0
O35 O 0.88817 0.5264 0.56726 0.0
Cd36 Cd 0.90186 0.57929 0.53424 0.0
O37 O 0.93097 0.61788 0.46008 0.0
C38 C 0.9579 0.61646 0.44068 0.0
O39 O 0.96663 0.59502 0.46896 0.0
C40 C 0.86259 0.4985 0.54333 0.0
C41 C 0.81072 0.56408 0.61159 0.0
O42 O 0.84435 0.57845 0.60393 0.0
O43 O 0.79025 0.54678 0.56553 0.0
O44 O 0.34411 0.84749 0.67696 0.0
Cd45 Cd 0.2848 0.84034 0.66877 0.0
O46 O 0.36461 0.89788 0.72906 0.0
Cd47 Cd 0.3209 0.90481 0.69614 0.0
O48 O 0.30661 0.92329 0.61137 0.0
C49 C 0.31975 0.91808 0.56171 0.0
O50 O 0.33677 0.90028 0.56581 0.0
C51 C 0.36875 0.87273 0.70829 0.0
C52 C 0.25137 0.81574 0.78482 0.0
O53 O 0.26901 0.8491 0.77312 0.0
O54 O 0.24867 0.79402 0.74136 0.0
O55 O 0.48239 0.36175 0.95238 0.0
Cd56 Cd 0.42179 0.31652 0.98079 0.0
O57 O 0.47371 0.40167 0.00088 0.0
Cd58 Cd 0.41597 0.36935 0.99547 0.0
O59 O 0.37231 0.3591 0.93204 0.0
C60 C 0.38247 0.36708 0.87518 0.0
O61 O 0.41563 0.37735 0.86083 0.0
C62 C 0.49443 0.39305 0.97378 0.0
C63 C 0.41912 0.25684 0.03674 0.0
O64 O 0.43429 0.28715 0.06408 0.0
O65 O 0.40507 0.25471 0.98261 0.0
O66 O 0.50953 0.86255 0.78494 0.0
Cd67 Cd 0.56628 0.86393 0.79326 0.0
O68 O 0.53239 0.91072 0.72588 0.0
Cd69 Cd 0.5863 0.92588 0.7549 0.0
O70 O 0.62538 0.95169 0.82988 0.0
C71 C 0.61984 0.97299 0.86244 0.0
O72 O 0.5939 0.97863 0.84618 0.0
C73 C 0.50553 0.88429 0.7506 0.0
C74 C 0.57496 0.83358 0.68393 0.0
O75 O 0.55872 0.81442 0.73197 0.0
O76 O 0.58797 0.86725 0.68772 0.0
O77 O 0.66388 0.51555 0.97937 0.0
Cd78 Cd 0.72216 0.56909 0.97011 0.0
O79 O 0.63714 0.53916 0.9263 0.0
Cd80 Cd 0.68199 0.59289 0.93752 0.0
O81 O 0.69883 0.63616 0.00541 0.0
C82 C 0.68421 0.62509 0.0589 0.0
O83 O 0.66394 0.59076 0.06792 0.0
C84 C 0.63615 0.51258 0.95339 0.0
C85 C 0.75229 0.56966 0.85387 0.0
O86 O 0.75731 0.55493 0.90209 0.0
O87 O 0.73344 0.58458 0.86045 0.0
O88 O 0.15835 0.67417 0.14841 0.0
Cd89 Cd 0.16319 0.73256 0.14849 0.0
O90 O 0.10843 0.65143 0.09416 0.0
Cd91 Cd 0.09796 0.69347 0.12318 0.0
O92 O 0.06734 0.69743 0.20114 0.0
C93 C 0.04275 0.66707 0.21883 0.0
O94 O 0.03729 0.6388 0.18712 0.0
C95 C 0.13399 0.64873 0.1171 0.0
C96 C 0.19141 0.76323 0.03203 0.0
O97 O 0.21168 0.76812 0.07938 0.0
O98 O 0.15772 0.74484 0.03998 0.0
O99 O 0.48737 0.09772 0.23032 0.0
Cd100 Cd 0.42533 0.08092 0.21238 0.0
O101 O 0.47433 0.04298 0.20811 0.0
Cd102 Cd 0.41854 0.02094 0.23344 0.0
O103 O 0.38413 0.99648 0.31489 0.0
C104 C 0.35042 0.9794 0.31716 0.0
O105 O 0.33165 0.97589 0.26633 0.0
C106 C 0.49727 0.07537 0.21791 0.0
C107 C 0.42041 0.13671 0.15641 0.0
O108 O 0.4336 0.12031 0.12682 0.0
O109 O 0.40916 0.12645 0.21266 0.0
O110 O 0.37462 0.48985 0.42277 0.0
Cd111 Cd 0.31936 0.43485 0.44463 0.0
O112 O 0.38747 0.50809 0.52142 0.0
Cd113 Cd 0.3466 0.45941 0.56583 0.0
O114 O 0.34345 0.42875 0.64954 0.0
C115 C 0.32357 0.39567 0.65895 0.0
O116 O 0.29975 0.37581 0.61671 0.0
C117 C 0.39436 0.51314 0.46285 0.0
C118 C 0.26931 0.43024 0.35758 0.0
O119 O 0.2717 0.44393 0.41219 0.0
O120 O 0.2897 0.4177 0.34463 0.0
O121 O 0.83148 0.34081 0.62881 0.0
Cd122 Cd 0.82478 0.28201 0.64312 0.0
O123 O 0.88222 0.36142 0.57785 0.0
Cd124 Cd 0.89074 0.31936 0.61446 0.0
O125 O 0.91625 0.30929 0.69417 0.0
C126 C 0.92421 0.33222 0.73757 0.0
O127 O 0.91492 0.35655 0.73126 0.0
C128 C 0.85651 0.36515 0.59672 0.0
C129 C 0.80444 0.24675 0.52758 0.0
O130 O 0.78138 0.24645 0.56564 0.0
O131 O 0.83706 0.26277 0.54481 0.0
C132 C 0.19166 0.39955 0.24305 0.0
C133 C 0.19928 0.43258 0.21629 0.0
C134 C 0.25199 0.46405 0.28389 0.0
C135 C 0.24504 0.43089 0.30914 0.0
N136 N 0.21054 0.36696 0.311 0.0
N137 N 0.23695 0.49611 0.20747 0.0
C138 C 0.2155 0.39857 0.28813 0.0
C139 C 0.22956 0.4648 0.23568 0.0
N140 N 0.16138 0.3692 0.22564 0.0
N141 N 0.27999 0.49487 0.30651 0.0
H142 H 0.21983 0.49831 0.17571 0.0
H143 H 0.2606 0.51994 0.21318 0.0
H144 H 0.29872 0.49547 0.33798 0.0
H145 H 0.28428 0.52012 0.29641 0.0
H146 H 0.15186 0.34478 0.24788 0.0
H147 H 0.14449 0.36856 0.19007 0.0
H148 H 0.19212 0.34222 0.29307 0.0
H149 H 0.22611 0.36528 0.34676 0.0
C150 C 0.81115 0.24903 0.40931 0.0
C151 C 0.7936 0.22969 0.46458 0.0
C152 C 0.75042 0.18065 0.39893 0.0
C153 C 0.77027 0.19834 0.34419 0.0
N154 N 0.82443 0.24573 0.29952 0.0
N155 N 0.75169 0.17357 0.5119 0.0
C156 C 0.80212 0.23148 0.35 0.0
C157 C 0.76474 0.19443 0.4594 0.0
N158 N 0.83509 0.28459 0.41261 0.0
N159 N 0.71708 0.1518 0.39352 0.0
H160 H 0.7623 0.18217 0.55686 0.0
H161 H 0.73297 0.14658 0.5098 0.0
H162 H 0.70474 0.1416 0.35028 0.0
H163 H 0.70021 0.14032 0.43199 0.0
H164 H 0.84574 0.3005 0.37275 0.0
H165 H 0.8415 0.29905 0.45451 0.0
H166 H 0.84963 0.26809 0.30305 0.0
H167 H 0.81945 0.23312 0.25578 0.0
C168 C 0.61005 0.82386 0.59982 0.0
C169 C 0.57676 0.81685 0.62424 0.0
C170 C 0.54594 0.77382 0.53967 0.0
C171 C 0.57924 0.78288 0.51226 0.0
N172 N 0.64288 0.82084 0.50972 0.0
N173 N 0.51349 0.79108 0.61045 0.0
C174 C 0.61133 0.80911 0.54055 0.0
C175 C 0.54482 0.7935 0.59218 0.0
N176 N 0.64029 0.84351 0.6343 0.0
N177 N 0.51545 0.74535 0.51745 0.0
H178 H 0.51155 0.80544 0.64818 0.0
H179 H 0.49007 0.77751 0.58455 0.0
H180 H 0.51498 0.72981 0.47958 0.0
H181 H 0.49102 0.73507 0.54021 0.0
H182 H 0.66478 0.84625 0.62235 0.0
H183 H 0.64039 0.85474 0.67785 0.0
H184 H 0.66669 0.84252 0.52466 0.0
H185 H 0.64479 0.81093 0.46597 0.0
C186 C 0.80319 0.59905 0.69859 0.0
C187 C 0.79574 0.56579 0.67337 0.0
C188 C 0.75694 0.53516 0.7633 0.0
C189 C 0.76709 0.5685 0.79152 0.0
N190 N 0.80433 0.63229 0.7913 0.0
N191 N 0.77132 0.50267 0.68734 0.0
C192 C 0.7914 0.60054 0.76056 0.0
C193 C 0.77418 0.53393 0.70723 0.0
N194 N 0.82046 0.62905 0.66254 0.0
N195 N 0.72982 0.5047 0.7886 0.0
H196 H 0.78399 0.50065 0.64706 0.0
H197 H 0.75921 0.47943 0.71398 0.0
H198 H 0.71598 0.50445 0.829 0.0
H199 H 0.71874 0.48011 0.76619 0.0
H200 H 0.82324 0.6534 0.67568 0.0
H201 H 0.82935 0.62896 0.61686 0.0
H202 H 0.82498 0.6561 0.77387 0.0
H203 H 0.79663 0.63446 0.83693 0.0
C204 C 0.19838 0.80044 0.93639 0.0
C205 C 0.20665 0.77691 0.96879 0.0
C206 C 0.24701 0.78209 0.88347 0.0
C207 C 0.23595 0.80259 0.84815 0.0
N208 N 0.19676 0.82655 0.83623 0.0
N209 N 0.23298 0.73937 0.96734 0.0
C210 C 0.21045 0.81055 0.87331 0.0
C211 C 0.22937 0.76607 0.94077 0.0
N212 N 0.18014 0.81419 0.96661 0.0
N213 N 0.27538 0.77911 0.86378 0.0
H214 H 0.21994 0.72629 0.00861 0.0
H215 H 0.2461 0.7278 0.94515 0.0
H216 H 0.2897 0.79115 0.82285 0.0
H217 H 0.28694 0.76771 0.89124 0.0
H218 H 0.17664 0.83436 0.94777 0.0
H219 H 0.17122 0.80776 0.01303 0.0
H220 H 0.17538 0.82956 0.84972 0.0
H221 H 0.20465 0.83399 0.7896 0.0
C222 C 0.41587 0.2216 0.13395 0.0
C223 C 0.41795 0.22527 0.06717 0.0
C224 C 0.41322 0.16685 0.06003 0.0
C225 C 0.41852 0.16679 0.12623 0.0
N226 N 0.43516 0.20129 0.22309 0.0
N227 N 0.42884 0.20423 0.9681 0.0
C228 C 0.42277 0.19618 0.16257 0.0
C229 C 0.41953 0.19873 0.03037 0.0
N230 N 0.40592 0.24109 0.17035 0.0
N231 N 0.40082 0.13643 0.02539 0.0
H232 H 0.43726 0.22837 0.94534 0.0
H233 H 0.43273 0.18625 0.94154 0.0
H234 H 0.39251 0.11166 0.04567 0.0
H235 H 0.39431 0.13522 0.97772 0.0
H236 H 0.40174 0.23706 0.21885 0.0
H237 H 0.39722 0.25754 0.15144 0.0
H238 H 0.44097 0.22402 0.24884 0.0
H239 H 0.44414 0.18566 0.2445 0.0
C240 C 0.14743 0.57553 0.04799 0.0
C241 C 0.12728 0.54774 0.09136 0.0
C242 C 0.11731 0.58838 0.15707 0.0
C243 C 0.13404 0.61497 0.1102 0.0
N244 N 0.16373 0.63452 0.01001 0.0
N245 N 0.09176 0.52626 0.18566 0.0
C246 C 0.14902 0.60884 0.05552 0.0
C247 C 0.11204 0.55383 0.14576 0.0
N248 N 0.1651 0.57001 0.99989 0.0
N249 N 0.10686 0.5964 0.21264 0.0
H250 H 0.08886 0.50106 0.18066 0.0
H251 H 0.07632 0.52763 0.22187 0.0
H252 H 0.10956 0.62121 0.22187 0.0
H253 H 0.09786 0.57952 0.25149 0.0
H254 H 0.18308 0.59 0.97023 0.0
H255 H 0.16373 0.54565 0.99216 0.0
H256 H 0.17158 0.63057 0.9658 0.0
H257 H 0.1664 0.65962 0.01514 0.0
C258 C 0.55728 0.09915 0.26835 0.0
C259 C 0.5355 0.08682 0.21371 0.0
C260 C 0.58442 0.08846 0.15355 0.0
C261 C 0.60691 0.10313 0.20684 0.0
N262 N 0.61703 0.12821 0.31134 0.0
N263 N 0.53 0.07662 0.10137 0.0
C264 C 0.594 0.11017 0.26328 0.0
C265 C 0.54957 0.08349 0.1554 0.0
N266 N 0.54259 0.09886 0.32556 0.0
N267 N 0.59575 0.07776 0.10218 0.0
H268 H 0.50448 0.07322 0.10074 0.0
H269 H 0.54024 0.07764 0.05649 0.0
H270 H 0.62098 0.08057 0.09899 0.0
H271 H 0.57914 0.06322 0.06504 0.0
H272 H 0.5562 0.1037 0.36813 0.0
H273 H 0.51582 0.09101 0.33126 0.0
H274 H 0.61001 0.13749 0.35098 0.0
H275 H 0.64408 0.13661 0.3092 0.0
C276 C 0.4644 0.61071 0.44677 0.0
C277 C 0.48947 0.60847 0.40698 0.0
C278 C 0.45307 0.54357 0.40662 0.0
C279 C 0.42649 0.54596 0.44165 0.0
N280 N 0.40357 0.58213 0.48381 0.0
N281 N 0.50378 0.57348 0.33716 0.0
C282 C 0.43119 0.57966 0.4585 0.0
C283 C 0.48268 0.57509 0.3834 0.0
N284 N 0.47286 0.6421 0.47565 0.0
N285 N 0.45104 0.51142 0.39806 0.0
H286 H 0.52529 0.596 0.31769 0.0
H287 H 0.4978 0.55009 0.31364 0.0
H288 H 0.43034 0.48766 0.41567 0.0
H289 H 0.47166 0.50875 0.37888 0.0
H290 H 0.45711 0.64436 0.51032 0.0
H291 H 0.49722 0.66526 0.4694 0.0
H292 H 0.40435 0.60622 0.49102 0.0
H293 H 0.37859 0.56003 0.49185 0.0
C294 C 0.85687 0.42026 0.63327 0.0
C295 C 0.85638 0.39847 0.58289 0.0
C296 C 0.86166 0.44315 0.50641 0.0
C297 C 0.85922 0.46351 0.55652 0.0
N298 N 0.847 0.46803 0.66612 0.0
N299 N 0.85106 0.38558 0.4714 0.0
C300 C 0.85462 0.45107 0.61958 0.0
C301 C 0.85668 0.40888 0.51934 0.0
N302 N 0.86119 0.41253 0.69405 0.0
N303 N 0.8703 0.45713 0.44696 0.0
H304 H 0.84679 0.36004 0.4791 0.0
H305 H 0.84726 0.39029 0.42464 0.0
H306 H 0.87461 0.48232 0.43554 0.0
H307 H 0.87632 0.44511 0.4102 0.0
H308 H 0.86565 0.42962 0.73179 0.0
H309 H 0.86365 0.39061 0.70622 0.0
H310 H 0.83965 0.45796 0.71165 0.0
H311 H 0.84464 0.49042 0.65775 0.0
C312 C 0.42413 0.87528 0.66697 0.0
C313 C 0.40279 0.87352 0.71913 0.0
C314 C 0.44947 0.8802 0.7921 0.0
C315 C 0.46962 0.87925 0.74014 0.0
N316 N 0.47291 0.8682 0.6295 0.0
N317 N 0.39164 0.86669 0.83117 0.0
C318 C 0.456 0.87452 0.67791 0.0
C319 C 0.41443 0.87374 0.78173 0.0
N320 N 0.41492 0.87938 0.60716 0.0
N321 N 0.46434 0.8889 0.85092 0.0
H322 H 0.36557 0.86131 0.8253 0.0
H323 H 0.39739 0.8628 0.8772 0.0
H324 H 0.49011 0.89435 0.86052 0.0
H325 H 0.45231 0.89385 0.88906 0.0
H326 H 0.43151 0.88478 0.56829 0.0
H327 H 0.3921 0.88063 0.59698 0.0
H328 H 0.46219 0.86083 0.58438 0.0
H329 H 0.49606 0.86694 0.63585 0.0
C330 C 0.55282 0.43479 0.02314 0.0
C331 C 0.53254 0.41993 0.96767 0.0
C332 C 0.5836 0.46079 0.90305 0.0
C333 C 0.60182 0.47897 0.95859 0.0
N334 N 0.60206 0.48611 0.07179 0.0
N335 N 0.527 0.42058 0.85438 0.0
C336 C 0.58618 0.46654 0.01886 0.0
C337 C 0.54758 0.43312 0.90733 0.0
N338 N 0.5404 0.41815 0.07986 0.0
N339 N 0.601 0.46956 0.84643 0.0
H340 H 0.50055 0.40028 0.85537 0.0
H341 H 0.5353 0.43206 0.80998 0.0
H342 H 0.62749 0.4895 0.84188 0.0
H343 H 0.59034 0.45498 0.80525 0.0
H344 H 0.55556 0.42567 0.12097 0.0
H345 H 0.51617 0.39459 0.08449 0.0
H346 H 0.5898 0.48044 0.11583 0.0
H347 H 0.62625 0.50985 0.07108 0.0
C348 C 0.95137 0.34437 0.90837 0.0
C349 C 0.98669 0.3507 0.9039 0.0
C350 C 0.9792 0.33876 0.79022 0.0
C351 C 0.94393 0.33251 0.7948 0.0
N352 N 0.89321 0.31871 0.85976 0.0
N353 N 0.03065 0.3443 0.84549 0.0
C354 C 0.92896 0.33172 0.85457 0.0
C355 C 0.99936 0.3446 0.8463 0.0
N356 N 0.93992 0.35278 0.9623 0.0
N357 N 0.99433 0.34153 0.73242 0.0
H358 H 0.04575 0.34822 0.88612 0.0
H359 H 0.03974 0.33672 0.80629 0.0
H360 H 0.98066 0.33749 0.69008 0.0
H361 H 0.02124 0.35031 0.72617 0.0
H362 H 0.916 0.35279 0.96527 0.0
H363 H 0.95537 0.36252 0.00284 0.0
H364 H 0.88016 0.31431 0.90289 0.0
H365 H 0.87609 0.30882 0.8211 0.0
C366 C 0.63995 0.97057 0.97286 0.0
C367 C 0.64116 0.9908 0.91932 0.0
C368 C 0.66931 0.04535 0.98233 0.0
C369 C 0.66827 0.02517 0.03578 0.0
N370 N 0.66162 0.97089 0.07854 0.0
N371 N 0.66567 0.04778 0.86843 0.0
C372 C 0.6566 0.98849 0.02976 0.0
C373 C 0.65879 0.02837 0.92262 0.0
N374 N 0.62095 0.93429 0.97085 0.0
N375 N 0.678 0.08006 0.98909 0.0
H376 H 0.65862 0.036 0.8239 0.0
H377 H 0.6814 0.07534 0.86703 0.0
H378 H 0.6858 0.09366 0.03187 0.0
H379 H 0.67491 0.09469 0.95324 0.0
H380 H 0.61558 0.9183 0.01059 0.0
H381 H 0.60823 0.91997 0.93035 0.0
H382 H 0.6568 0.94495 0.07505 0.0
H383 H 0.67396 0.9835 0.12063 0.0
C384 C 0.69298 0.65881 0.22515 0.0
C385 C 0.67924 0.68224 0.21883 0.0
C386 C 0.67496 0.67349 0.10422 0.0
C387 C 0.68834 0.64978 0.11068 0.0
N388 N 0.71995 0.62838 0.17321 0.0
N389 N 0.66709 0.71977 0.15235 0.0
C390 C 0.70072 0.64539 0.16995 0.0
C391 C 0.67364 0.69225 0.15816 0.0
N392 N 0.69626 0.6473 0.28346 0.0
N393 N 0.66125 0.67631 0.04788 0.0
H394 H 0.66629 0.73411 0.19123 0.0
H395 H 0.66603 0.73059 0.10911 0.0
H396 H 0.66163 0.66315 0.00707 0.0
H397 H 0.64721 0.68978 0.04258 0.0
H398 H 0.70192 0.62691 0.29022 0.0
H399 H 0.69077 0.65615 0.32534 0.0
H400 H 0.7326 0.62719 0.21414 0.0
H401 H 0.7263 0.61862 0.13324 0.0
C402 C 0.03745 0.67013 0.33659 0.0
C403 C 0.02132 0.66246 0.27604 0.0
C404 C 0.96231 0.62934 0.3242 0.0
C405 C 0.97845 0.63678 0.38477 0.0
N406 N 0.02968 0.67221 0.44959 0.0
N407 N 0.96904 0.64403 0.21273 0.0
C408 C 0.01554 0.65992 0.39118 0.0
C409 C 0.98388 0.64517 0.27015 0.0
N410 N 0.07345 0.68495 0.34219 0.0
N411 N 0.92693 0.60532 0.31765 0.0
H412 H 0.98434 0.65574 0.17249 0.0
H413 H 0.94205 0.63478 0.20633 0.0
H414 H 0.91003 0.59294 0.35573 0.0
H415 H 0.91475 0.59565 0.27415 0.0
H416 H 0.08616 0.68705 0.38495 0.0
H417 H 0.0906 0.69296 0.30363 0.0
H418 H 0.05602 0.69177 0.45689 0.0
H419 H 0.0141 0.66538 0.4903 0.0
C420 C 0.30467 0.91121 0.44719 0.0
C421 C 0.31883 0.93387 0.50029 0.0
C422 C 0.34082 0.98574 0.43101 0.0
C423 C 0.33318 0.96323 0.37799 0.0
N424 N 0.30832 0.9042 0.33451 0.0
N425 N 0.35221 0.99326 0.54324 0.0
C426 C 0.31454 0.92578 0.38552 0.0
C427 C 0.33676 0.97135 0.49263 0.0
N428 N 0.28172 0.87577 0.45603 0.0
N429 N 0.35207 0.02093 0.42213 0.0
H430 H 0.35019 0.9841 0.5893 0.0
H431 H 0.36929 0.02053 0.53905 0.0
H432 H 0.35498 0.032 0.37727 0.0
H433 H 0.35495 0.03818 0.45872 0.0
H434 H 0.2679 0.85827 0.41942 0.0
H435 H 0.27383 0.86457 0.50085 0.0
H436 H 0.29884 0.87703 0.33816 0.0
H437 H 0.31471 0.91373 0.28848 0.0
C438 C 0.34274 0.35646 0.71324 0.0
C439 C 0.32919 0.38012 0.71699 0.0
C440 C 0.34439 0.39017 0.82926 0.0
C441 C 0.35852 0.36698 0.82531 0.0
N442 N 0.36149 0.32016 0.77005 0.0
N443 N 0.30708 0.41052 0.7811 0.0
C444 C 0.35437 0.34744 0.76932 0.0
C445 C 0.32659 0.39387 0.77609 0.0
N446 N 0.34682 0.34453 0.65591 0.0
N447 N 0.35014 0.41063 0.88176 0.0
H448 H 0.29354 0.41326 0.74278 0.0
H449 H 0.30137 0.41826 0.82401 0.0
H450 H 0.36321 0.40913 0.92181 0.0
H451 H 0.34424 0.43107 0.88396 0.0
H452 H 0.36062 0.33088 0.64972 0.0
H453 H 0.33855 0.35028 0.61362 0.0
H454 H 0.35591 0.30275 0.7324 0.0
H455 H 0.36965 0.31277 0.81084 0.0
loop_
_geom_bond_atom_site_label_1
_geom_bond_atom_site_label_2
_geom_bond_distance
_geom_bond_site_symmetry_2
_ccdc_geom_bond_type
O0 Cd1 2.300 . S
O0 C7 1.275 . S
Cd1 O0 2.300 . S
Cd1 O9 2.381 . S
Cd1 O10 2.378 . S
O2 Cd3 2.385 1_455 S
O2 C7 1.255 . S
Cd3 O2 2.385 1_655 S
Cd3 O4 2.317 1_655 S
O4 Cd3 2.317 1_455 S
O4 C5 1.232 1_554 S
C5 O4 1.232 1_556 S
C5 O6 1.218 1_455 S
O6 C5 1.218 1_655 S
C7 O0 1.275 . S
C7 O2 1.255 . S
C8 O9 1.258 . S
C8 O10 1.256 . S
O9 Cd1 2.381 . S
O9 C8 1.258 . S
O10 Cd1 2.378 . S
O10 C8 1.256 . S
O11 Cd12 2.300 . S
O11 C18 1.275 . S
Cd12 O11 2.300 . S
Cd12 O20 2.381 . S
Cd12 O21 2.378 . S
O13 Cd14 2.385 1_545 S
O13 C18 1.255 . S
Cd14 O13 2.385 1_565 S
Cd14 O15 2.317 1_565 S
O15 Cd14 2.317 1_545 S
O15 C16 1.232 . S
C16 O15 1.232 . S
C16 O17 1.218 1_545 S
O17 C16 1.218 1_565 S
C18 O11 1.275 . S
C18 O13 1.255 . S
C19 O20 1.258 . S
C19 O21 1.256 . S
O20 Cd12 2.381 . S
O20 C19 1.258 . S
O21 Cd12 2.378 . S
O21 C19 1.256 . S
O22 Cd23 2.300 . S
O22 C29 1.275 . S
Cd23 O22 2.300 . S
Cd23 O31 2.381 . S
Cd23 O32 2.378 . S
O24 Cd25 2.385 . S
O24 C29 1.255 . S
Cd25 O24 2.385 . S
Cd25 O26 2.317 . S
O26 Cd25 2.317 . S
O26 C27 1.232 . S
C27 O26 1.232 . S
C27 O28 1.218 . S
O28 C27 1.218 . S
C29 O22 1.275 . S
C29 O24 1.255 . S
C30 O31 1.258 . S
C30 O32 1.256 . S
O31 Cd23 2.381 . S
O31 C30 1.258 . S
O32 Cd23 2.378 . S
O32 C30 1.256 . S
O33 Cd34 2.300 . S
O33 C40 1.275 . S
Cd34 O33 2.300 . S
Cd34 O42 2.381 . S
Cd34 O43 2.378 . S
O35 Cd36 2.385 1_655 S
O35 C40 1.255 . S
Cd36 O35 2.385 1_455 S
Cd36 O37 2.317 1_455 S
O37 Cd36 2.317 1_655 S
O37 C38 1.232 . S
C38 O37 1.232 . S
C38 O39 1.218 1_655 S
O39 C38 1.218 1_455 S
C40 O33 1.275 . S
C40 O35 1.255 . S
C41 O42 1.258 . S
C41 O43 1.256 . S
O42 Cd34 2.381 . S
O42 C41 1.258 . S
O43 Cd34 2.378 . S
O43 C41 1.256 . S
O44 Cd45 2.300 . S
O44 C51 1.275 . S
Cd45 O44 2.300 . S
Cd45 O53 2.381 . S
Cd45 O54 2.378 . S
O46 Cd47 2.385 1_565 S
O46 C51 1.255 . S
Cd47 O46 2.385 1_545 S
Cd47 O48 2.317 1_545 S
O48 Cd47 2.317 1_565 S
O48 C49 1.232 . S
C49 O48 1.232 . S
C49 O50 1.218 1_565 S
O50 C49 1.218 1_545 S
C51 O44 1.275 . S
C51 O46 1.255 . S
C52 O53 1.258 . S
C52 O54 1.256 . S
O53 Cd45 2.381 . S
O53 C52 1.258 . S
O54 Cd45 2.378 . S
O54 C52 1.256 . S
O55 Cd56 2.300 . S
O55 C62 1.275 . S
Cd56 O55 2.300 . S
Cd56 O64 2.381 1_556 S
Cd56 O65 2.378 1_556 S
O57 Cd58 2.385 . S
O57 C62 1.255 . S
Cd58 O57 2.385 . S
Cd58 O59 2.317 . S
O59 Cd58 2.317 . S
O59 C60 1.232 . S
C60 O59 1.232 . S
C60 O61 1.218 . S
O61 C60 1.218 . S
C62 O55 1.275 . S
C62 O57 1.255 . S
C63 O64 1.258 . S
C63 O65 1.256 . S
O64 Cd56 2.381 1_554 S
O64 C63 1.258 . S
O65 Cd56 2.378 1_554 S
O65 C63 1.256 . S
O66 Cd67 2.300 . S
O66 C73 1.275 . S
Cd67 O66 2.300 . S
Cd67 O75 2.381 . S
Cd67 O76 2.378 . S
O68 Cd69 2.385 1_565 S
O68 C73 1.255 . S
Cd69 O68 2.385 1_545 S
Cd69 O70 2.317 1_545 S
O70 Cd69 2.317 1_565 S
O70 C71 1.232 . S
C71 O70 1.232 . S
C71 O72 1.218 1_565 S
O72 C71 1.218 1_545 S
C73 O66 1.275 . S
C73 O68 1.255 . S
C74 O75 1.258 . S
C74 O76 1.256 . S
O75 Cd67 2.381 . S
O75 C74 1.258 . S
O76 Cd67 2.378 . S
O76 C74 1.256 . S
O77 Cd78 2.300 . S
O77 C84 1.275 . S
Cd78 O77 2.300 . S
Cd78 O86 2.381 . S
Cd78 O87 2.378 . S
O79 Cd80 2.385 . S
O79 C84 1.255 . S
Cd80 O79 2.385 . S
Cd80 O81 2.317 . S
O81 Cd80 2.317 . S
O81 C82 1.232 1_556 S
C82 O81 1.232 1_554 S
C82 O83 1.218 . S
O83 C82 1.218 . S
C84 O77 1.275 . S
C84 O79 1.255 . S
C85 O86 1.258 . S
C85 O87 1.256 . S
O86 Cd78 2.381 . S
O86 C85 1.258 . S
O87 Cd78 2.378 . S
O87 C85 1.256 . S
O88 Cd89 2.300 . S
O88 C95 1.275 . S
Cd89 O88 2.300 . S
Cd89 O97 2.381 1_554 S
Cd89 O98 2.378 1_554 S
O90 Cd91 2.385 1_455 S
O90 C95 1.255 . S
Cd91 O90 2.385 1_655 S
Cd91 O92 2.317 1_655 S
O92 Cd91 2.317 1_455 S
O92 C93 1.232 . S
C93 O92 1.232 . S
C93 O94 1.218 1_455 S
O94 C93 1.218 1_655 S
C95 O88 1.275 . S
C95 O90 1.255 . S
C96 O97 1.258 . S
C96 O98 1.256 . S
O97 Cd89 2.381 1_556 S
O97 C96 1.258 . S
O98 Cd89 2.378 1_556 S
O98 C96 1.256 . S
O99 Cd100 2.300 . S
O99 C106 1.275 . S
Cd100 O99 2.300 . S
Cd100 O108 2.381 . S
Cd100 O109 2.378 . S
O101 Cd102 2.385 1_545 S
O101 C106 1.255 . S
Cd102 O101 2.385 1_565 S
Cd102 O103 2.317 1_565 S
O103 Cd102 2.317 1_545 S
O103 C104 1.232 . S
C104 O103 1.232 . S
C104 O105 1.218 1_545 S
O105 C104 1.218 1_565 S
C106 O99 1.275 . S
C106 O101 1.255 . S
C107 O108 1.258 . S
C107 O109 1.256 . S
O108 Cd100 2.381 . S
O108 C107 1.258 . S
O109 Cd100 2.378 . S
O109 C107 1.256 . S
O110 Cd111 2.300 . S
O110 C117 1.275 . S
Cd111 O110 2.300 . S
Cd111 O119 2.381 . S
Cd111 O120 2.378 . S
O112 Cd113 2.385 . S
O112 C117 1.255 . S
Cd113 O112 2.385 . S
Cd113 O114 2.317 . S
O114 Cd113 2.317 . S
O114 C115 1.232 . S
C115 O114 1.232 . S
C115 O116 1.218 . S
O116 C115 1.218 . S
C117 O110 1.275 . S
C117 O112 1.255 . S
C118 O119 1.258 . S
C118 O120 1.256 . S
O119 Cd111 2.381 . S
O119 C118 1.258 . S
O120 Cd111 2.378 . S
O120 C118 1.256 . S
O121 Cd122 2.300 . S
O121 C128 1.275 . S
Cd122 O121 2.300 . S
Cd122 O130 2.381 . S
Cd122 O131 2.378 . S
O123 Cd124 2.385 1_655 S
O123 C128 1.255 . S
Cd124 O123 2.385 1_455 S
Cd124 O125 2.317 1_455 S
O125 Cd124 2.317 1_655 S
O125 C126 1.232 . S
C126 O125 1.232 . S
C126 O127 1.218 1_655 S
O127 C126 1.218 1_455 S
C128 O121 1.275 . S
C128 O123 1.255 . S
C129 O130 1.258 . S
C129 O131 1.256 . S
O130 Cd122 2.381 . S
O130 C129 1.258 . S
O131 Cd122 2.378 . S
O131 C129 1.256 . S
C132 C133 1.363 . S
C132 C138 1.379 . S
C132 N140 1.356 . S
C133 C132 1.363 . S
C133 C139 1.363 . S
C134 C135 1.363 . S
C134 C139 1.379 . S
C134 N141 1.356 . S
C135 C134 1.363 . S
C135 C138 1.363 . S
N136 C138 1.356 . S
N136 H148 0.984 . S
N136 H149 0.985 . S
N137 C139 1.356 . S
N137 H142 0.984 . S
N137 H143 0.985 . S
C138 C132 1.379 . S
C138 C135 1.363 . S
C138 N136 1.356 . S
C139 C133 1.363 . S
C139 C134 1.379 . S
C139 N137 1.356 . S
N140 C132 1.356 . S
N140 H146 0.984 . S
N140 H147 0.984 . S
N141 C134 1.356 . S
N141 H144 0.984 . S
N141 H145 0.985 . S
H142 N137 0.984 . S
H143 N137 0.985 . S
H144 N141 0.984 . S
H145 N141 0.985 . S
H146 N140 0.984 . S
H147 N140 0.984 . S
H148 N136 0.984 . S
H149 N136 0.985 . S
C150 C151 1.363 . S
C150 C156 1.379 . S
C150 N158 1.356 . S
C151 C150 1.363 . S
C151 C157 1.363 . S
C152 C153 1.363 . S
C152 C157 1.379 . S
C152 N159 1.356 . S
C153 C152 1.363 . S
C153 C156 1.363 . S
N154 C156 1.356 . S
N154 H166 0.984 . S
N154 H167 0.985 . S
N155 C157 1.356 . S
N155 H160 0.984 . S
N155 H161 0.985 . S
C156 C150 1.379 . S
C156 C153 1.363 . S
C156 N154 1.356 . S
C157 C151 1.363 . S
C157 C152 1.379 . S
C157 N155 1.356 . S
N158 C150 1.356 . S
N158 H164 0.984 . S
N158 H165 0.984 . S
N159 C152 1.356 . S
N159 H162 0.984 . S
N159 H163 0.985 . S
H160 N155 0.984 . S
H161 N155 0.985 . S
H162 N159 0.984 . S
H163 N159 0.985 . S
H164 N158 0.984 . S
H165 N158 0.984 . S
H166 N154 0.984 . S
H167 N154 0.985 . S
C168 C169 1.363 . S
C168 C174 1.379 . S
C168 N176 1.356 . S
C169 C168 1.363 . S
C169 C175 1.363 . S
C170 C171 1.363 . S
C170 C175 1.379 . S
C170 N177 1.356 . S
C171 C170 1.363 . S
C171 C174 1.363 . S
N172 C174 1.356 . S
N172 H184 0.984 . S
N172 H185 0.985 . S
N173 C175 1.356 . S
N173 H178 0.984 . S
N173 H179 0.985 . S
C174 C168 1.379 . S
C174 C171 1.363 . S
C174 N172 1.356 . S
C175 C169 1.363 . S
C175 C170 1.379 . S
C175 N173 1.356 . S
N176 C168 1.356 . S
N176 H182 0.984 . S
N176 H183 0.984 . S
N177 C170 1.356 . S
N177 H180 0.984 . S
N177 H181 0.985 . S
H178 N173 0.984 . S
H179 N173 0.985 . S
H180 N177 0.984 . S
H181 N177 0.985 . S
H182 N176 0.984 . S
H183 N176 0.984 . S
H184 N172 0.984 . S
H185 N172 0.985 . S
C186 C187 1.363 . S
C186 C192 1.379 . S
C186 N194 1.356 . S
C187 C186 1.363 . S
C187 C193 1.363 . S
C188 C189 1.363 . S
C188 C193 1.379 . S
C188 N195 1.356 . S
C189 C188 1.363 . S
C189 C192 1.363 . S
N190 C192 1.356 . S
N190 H202 0.984 . S
N190 H203 0.985 . S
N191 C193 1.356 . S
N191 H196 0.984 . S
N191 H197 0.985 . S
C192 C186 1.379 . S
C192 C189 1.363 . S
C192 N190 1.356 . S
C193 C187 1.363 . S
C193 C188 1.379 . S
C193 N191 1.356 . S
N194 C186 1.356 . S
N194 H200 0.984 . S
N194 H201 0.984 . S
N195 C188 1.356 . S
N195 H198 0.984 . S
N195 H199 0.985 . S
H196 N191 0.984 . S
H197 N191 0.985 . S
H198 N195 0.984 . S
H199 N195 0.985 . S
H200 N194 0.984 . S
H201 N194 0.984 . S
H202 N190 0.984 . S
H203 N190 0.985 . S
C204 C205 1.363 . S
C204 C210 1.379 . S
C204 N212 1.357 1_556 S
C205 C204 1.363 . S
C205 C211 1.363 . S
C206 C207 1.363 . S
C206 C211 1.379 . S
C206 N213 1.356 . S
C207 C206 1.363 . S
C207 C210 1.363 . S
N208 C210 1.356 . S
N208 H220 0.984 . S
N208 H221 0.985 . S
N209 C211 1.356 . S
N209 H214 0.984 . S
N209 H215 0.985 . S
C210 C204 1.379 . S
C210 C207 1.363 . S
C210 N208 1.356 . S
C211 C205 1.363 . S
C211 C206 1.379 . S
C211 N209 1.356 . S
N212 C204 1.357 1_554 S
N212 H218 0.984 . S
N212 H219 0.984 . S
N213 C206 1.356 . S
N213 H216 0.984 . S
N213 H217 0.985 . S
H214 N209 0.984 . S
H215 N209 0.985 . S
H216 N213 0.984 . S
H217 N213 0.985 . S
H218 N212 0.984 . S
H219 N212 0.984 . S
H220 N208 0.984 . S
H221 N208 0.985 . S
C222 C223 1.363 . S
C222 C228 1.379 . S
C222 N230 1.356 . S
C223 C222 1.363 . S
C223 C229 1.363 . S
C224 C225 1.363 . S
C224 C229 1.379 . S
C224 N231 1.356 . S
C225 C224 1.363 . S
C225 C228 1.363 . S
N226 C228 1.356 . S
N226 H238 0.984 . S
N226 H239 0.985 . S
N227 C229 1.356 1_556 S
N227 H232 0.984 . S
N227 H233 0.985 . S
C228 C222 1.379 . S
C228 C225 1.363 . S
C228 N226 1.356 . S
C229 C223 1.363 . S
C229 C224 1.379 . S
C229 N227 1.356 1_554 S
N230 C222 1.356 . S
N230 H236 0.984 . S
N230 H237 0.984 . S
N231 C224 1.356 . S
N231 H234 0.984 . S
N231 H235 0.985 1_554 S
H232 N227 0.984 . S
H233 N227 0.985 . S
H234 N231 0.984 . S
H235 N231 0.985 1_556 S
H236 N230 0.984 . S
H237 N230 0.984 . S
H238 N226 0.984 . S
H239 N226 0.985 . S
C240 C241 1.363 . S
C240 C246 1.379 . S
C240 N248 1.356 . S
C241 C240 1.363 . S
C241 C247 1.363 . S
C242 C243 1.363 . S
C242 C247 1.379 . S
C242 N249 1.356 . S
C243 C242 1.363 . S
C243 C246 1.363 . S
N244 C246 1.356 . S
N244 H256 0.984 1_554 S
N244 H257 0.985 . S
N245 C247 1.356 . S
N245 H250 0.984 . S
N245 H251 0.985 . S
C246 C240 1.379 . S
C246 C243 1.363 . S
C246 N244 1.356 . S
C247 C241 1.363 . S
C247 C242 1.379 . S
C247 N245 1.356 . S
N248 C240 1.356 . S
N248 H254 0.984 . S
N248 H255 0.984 . S
N249 C242 1.356 . S
N249 H252 0.984 . S
N249 H253 0.985 . S
H250 N245 0.984 . S
H251 N245 0.985 . S
H252 N249 0.984 . S
H253 N249 0.985 . S
H254 N248 0.984 . S
H255 N248 0.984 . S
H256 N244 0.984 1_556 S
H257 N244 0.985 . S
C258 C259 1.363 . S
C258 C264 1.379 . S
C258 N266 1.356 . S
C259 C258 1.363 . S
C259 C265 1.363 . S
C260 C261 1.363 . S
C260 C265 1.379 . S
C260 N267 1.356 . S
C261 C260 1.363 . S
C261 C264 1.363 . S
N262 C264 1.356 . S
N262 H274 0.984 1_545 S
N262 H275 0.985 . S
N263 C265 1.356 . S
N263 H268 0.984 . S
N263 H269 0.985 . S
C264 C258 1.379 . S
C264 C261 1.363 . S
C264 N262 1.356 . S
C265 C259 1.363 . S
C265 C260 1.379 . S
C265 N263 1.356 . S
N266 C258 1.356 . S
N266 H272 0.984 1_545 S
N266 H273 0.984 . S
N267 C260 1.356 . S
N267 H270 0.984 . S
N267 H271 0.985 . S
H268 N263 0.984 . S
H269 N263 0.985 . S
H270 N267 0.984 . S
H271 N267 0.985 . S
H272 N266 0.984 1_565 S
H273 N266 0.984 . S
H274 N262 0.984 1_565 S
H275 N262 0.985 . S
C276 C277 1.363 . S
C276 C282 1.379 . S
C276 N284 1.356 . S
C277 C276 1.363 . S
C277 C283 1.363 . S
C278 C279 1.363 . S
C278 C283 1.379 . S
C278 N285 1.356 . S
C279 C278 1.363 . S
C279 C282 1.363 . S
N280 C282 1.356 . S
N280 H292 0.984 . S
N280 H293 0.985 . S
N281 C283 1.356 . S
N281 H286 0.984 . S
N281 H287 0.985 . S
C282 C276 1.379 . S
C282 C279 1.363 . S
C282 N280 1.356 . S
C283 C277 1.363 . S
C283 C278 1.379 . S
C283 N281 1.356 . S
N284 C276 1.356 . S
N284 H290 0.984 . S
N284 H291 0.984 . S
N285 C278 1.356 . S
N285 H288 0.984 . S
N285 H289 0.985 . S
H286 N281 0.984 . S
H287 N281 0.985 . S
H288 N285 0.984 . S
H289 N285 0.985 . S
H290 N284 0.984 . S
H291 N284 0.984 . S
H292 N280 0.984 . S
H293 N280 0.985 . S
C294 C295 1.363 . S
C294 C300 1.379 . S
C294 N302 1.356 . S
C295 C294 1.363 . S
C295 C301 1.363 . S
C296 C297 1.363 . S
C296 C301 1.379 . S
C296 N303 1.356 . S
C297 C296 1.363 . S
C297 C300 1.363 . S
N298 C300 1.356 . S
N298 H310 0.984 . S
N298 H311 0.985 . S
N299 C301 1.356 . S
N299 H304 0.984 . S
N299 H305 0.985 1_655 S
C300 C294 1.379 . S
C300 C297 1.363 . S
C300 N298 1.356 . S
C301 C295 1.363 . S
C301 C296 1.379 . S
C301 N299 1.356 . S
N302 C294 1.356 . S
N302 H308 0.984 . S
N302 H309 0.984 . S
N303 C296 1.356 . S
N303 H306 0.984 . S
N303 H307 0.985 1_655 S
H304 N299 0.984 . S
H305 N299 0.985 1_455 S
H306 N303 0.984 . S
H307 N303 0.985 1_455 S
H308 N302 0.984 . S
H309 N302 0.984 . S
H310 N298 0.984 . S
H311 N298 0.985 . S
C312 C313 1.363 . S
C312 C318 1.379 . S
C312 N320 1.356 . S
C313 C312 1.363 . S
C313 C319 1.363 . S
C314 C315 1.363 . S
C314 C319 1.379 . S
C314 N321 1.356 . S
C315 C314 1.363 . S
C315 C318 1.363 . S
N316 C318 1.356 . S
N316 H328 0.984 1_565 S
N316 H329 0.985 . S
N317 C319 1.356 . S
N317 H322 0.984 . S
N317 H323 0.985 . S
C318 C312 1.379 . S
C318 C315 1.363 . S
C318 N316 1.356 . S
C319 C313 1.363 . S
C319 C314 1.379 . S
C319 N317 1.356 . S
N320 C312 1.356 . S
N320 H326 0.984 1_565 S
N320 H327 0.984 . S
N321 C314 1.356 . S
N321 H324 0.984 . S
N321 H325 0.985 . S
H322 N317 0.984 . S
H323 N317 0.985 . S
H324 N321 0.984 . S
H325 N321 0.985 . S
H326 N320 0.984 1_545 S
H327 N320 0.984 . S
H328 N316 0.984 1_545 S
H329 N316 0.985 . S
C330 C331 1.363 . S
C330 C336 1.379 . S
C330 N338 1.356 . S
C331 C330 1.363 . S
C331 C337 1.363 . S
C332 C333 1.363 . S
C332 C337 1.379 . S
C332 N339 1.356 . S
C333 C332 1.363 . S
C333 C336 1.363 . S
N334 C336 1.356 . S
N334 H346 0.984 1_556 S
N334 H347 0.985 . S
N335 C337 1.356 . S
N335 H340 0.984 . S
N335 H341 0.985 . S
C336 C330 1.379 . S
C336 C333 1.363 . S
C336 N334 1.356 . S
C337 C331 1.363 . S
C337 C332 1.379 . S
C337 N335 1.356 . S
N338 C330 1.356 . S
N338 H344 0.984 1_556 S
N338 H345 0.984 . S
N339 C332 1.356 . S
N339 H342 0.984 . S
N339 H343 0.985 . S
H340 N335 0.984 . S
H341 N335 0.985 . S
H342 N339 0.984 . S
H343 N339 0.985 . S
H344 N338 0.984 1_554 S
H345 N338 0.984 . S
H346 N334 0.984 1_554 S
H347 N334 0.985 . S
C348 C349 1.338 1_655 S
C348 C354 1.387 . S
C348 N356 1.378 1_655 S
C349 C348 1.338 1_455 S
C349 C355 1.363 . S
C350 C351 1.363 1_455 S
C350 C355 1.379 . S
C350 N357 1.363 1_455 S
C351 C350 1.363 1_655 S
C351 C354 1.363 . S
N352 C354 1.356 . S
N352 H364 0.984 . S
N352 H365 0.985 . S
N353 C355 1.356 . S
N353 H358 0.984 . S
N353 H359 0.985 . S
C354 C348 1.387 . S
C354 C351 1.363 . S
C354 N352 1.356 . S
C355 C349 1.363 . S
C355 C350 1.379 . S
C355 N353 1.356 . S
N356 C348 1.378 1_455 S
N356 H362 0.965 1_455 S
N356 H363 0.996 . S
N357 C350 1.363 1_655 S
N357 H360 0.994 . S
N357 H361 0.969 1_655 S
H358 N353 0.984 . S
H359 N353 0.985 . S
H360 N357 0.994 . S
H361 N357 0.969 1_455 S
H362 N356 0.965 1_655 S
H363 N356 0.996 . S
H364 N352 0.984 . S
H365 N352 0.985 . S
C366 C367 1.363 . S
C366 C372 1.379 1_556 S
C366 N374 1.356 . S
C367 C366 1.363 . S
C367 C373 1.363 1_565 S
C368 C369 1.363 . S
C368 C373 1.379 1_554 S
C368 N375 1.356 . S
C369 C368 1.363 . S
C369 C372 1.363 1_545 S
N370 C372 1.356 . S
N370 H382 0.984 . S
N370 H383 0.985 . S
N371 C373 1.356 . S
N371 H376 0.984 . S
N371 H377 0.985 . S
C372 C366 1.379 1_554 S
C372 C369 1.363 1_565 S
C372 N370 1.356 . S
C373 C367 1.363 1_545 S
C373 C368 1.379 1_556 S
C373 N371 1.356 . S
N374 C366 1.356 . S
N374 H380 0.984 . S
N374 H381 0.984 . S
N375 C368 1.356 . S
N375 H378 0.984 . S
N375 H379 0.985 . S
H376 N371 0.984 . S
H377 N371 0.985 . S
H378 N375 0.984 . S
H379 N375 0.985 . S
H380 N374 0.984 . S
H381 N374 0.984 . S
H382 N370 0.984 . S
H383 N370 0.985 . S
C384 C385 1.363 . S
C384 C390 1.379 . S
C384 N392 1.356 . S
C385 C384 1.363 . S
C385 C391 1.363 . S
C386 C387 1.363 . S
C386 C391 1.379 . S
C386 N393 1.356 . S
C387 C386 1.363 . S
C387 C390 1.363 . S
N388 C390 1.356 . S
N388 H400 0.984 . S
N388 H401 0.985 . S
N389 C391 1.356 . S
N389 H394 0.984 . S
N389 H395 0.985 . S
C390 C384 1.379 . S
C390 C387 1.363 . S
C390 N388 1.356 . S
C391 C385 1.363 . S
C391 C386 1.379 . S
C391 N389 1.356 . S
N392 C384 1.356 . S
N392 H398 0.984 . S
N392 H399 0.984 . S
N393 C386 1.356 . S
N393 H396 0.984 . S
N393 H397 0.985 . S
H394 N389 0.984 . S
H395 N389 0.985 . S
H396 N393 0.984 . S
H397 N393 0.985 . S
H398 N392 0.984 . S
H399 N392 0.984 . S
H400 N388 0.984 . S
H401 N388 0.985 . S
C402 C403 1.363 . S
C402 C408 1.379 . S
C402 N410 1.356 . S
C403 C402 1.363 . S
C403 C409 1.363 1_455 S
C404 C405 1.363 . S
C404 C409 1.379 . S
C404 N411 1.356 . S
C405 C404 1.363 . S
C405 C408 1.363 1_655 S
N406 C408 1.356 . S
N406 H418 0.984 . S
N406 H419 0.985 . S
N407 C409 1.356 . S
N407 H412 0.984 . S
N407 H413 0.985 . S
C408 C402 1.379 . S
C408 C405 1.363 1_455 S
C408 N406 1.356 . S
C409 C403 1.363 1_655 S
C409 C404 1.379 . S
C409 N407 1.356 . S
N410 C402 1.356 . S
N410 H416 0.984 . S
N410 H417 0.984 . S
N411 C404 1.356 . S
N411 H414 0.984 . S
N411 H415 0.985 . S
H412 N407 0.984 . S
H413 N407 0.985 . S
H414 N411 0.984 . S
H415 N411 0.985 . S
H416 N410 0.984 . S
H417 N410 0.984 . S
H418 N406 0.984 . S
H419 N406 0.985 . S
C420 C421 1.363 . S
C420 C426 1.379 . S
C420 N428 1.356 . S
C421 C420 1.363 . S
C421 C427 1.363 1_565 S
C422 C423 1.363 . S
C422 C427 1.379 . S
C422 N429 1.356 . S
C423 C422 1.363 . S
C423 C426 1.363 1_545 S
N424 C426 1.356 . S
N424 H436 0.984 . S
N424 H437 0.985 . S
N425 C427 1.356 . S
N425 H430 0.984 . S
N425 H431 0.985 . S
C426 C420 1.379 . S
C426 C423 1.363 1_565 S
C426 N424 1.356 . S
C427 C421 1.363 1_545 S
C427 C422 1.379 . S
C427 N425 1.356 . S
N428 C420 1.356 . S
N428 H434 0.984 . S
N428 H435 0.984 . S
N429 C422 1.356 . S
N429 H432 0.984 . S
N429 H433 0.985 . S
H430 N425 0.984 . S
H431 N425 0.985 . S
H432 N429 0.984 . S
H433 N429 0.985 . S
H434 N428 0.984 . S
H435 N428 0.984 . S
H436 N424 0.984 . S
H437 N424 0.985 . S
C438 C439 1.363 . S
C438 C444 1.379 . S
C438 N446 1.356 . S
C439 C438 1.363 . S
C439 C445 1.363 . S
C440 C441 1.363 . S
C440 C445 1.379 . S
C440 N447 1.356 . S
C441 C440 1.363 . S
C441 C444 1.363 . S
N442 C444 1.356 . S
N442 H454 0.984 . S
N442 H455 0.985 . S
N443 C445 1.356 . S
N443 H448 0.984 . S
N443 H449 0.985 . S
C444 C438 1.379 . S
C444 C441 1.363 . S
C444 N442 1.356 . S
C445 C439 1.363 . S
C445 C440 1.379 . S
C445 N443 1.356 . S
N446 C438 1.356 . S
N446 H452 0.984 . S
N446 H453 0.984 . S
N447 C440 1.356 . S
N447 H450 0.984 . S
N447 H451 0.985 . S
H448 N443 0.984 . S
H449 N443 0.985 . S
H450 N447 0.984 . S
H451 N447 0.985 . S
H452 N446 0.984 . S
H453 N446 0.984 . S
H454 N442 0.984 . S
H455 N442 0.985 . S
C133 C8 1.639 . S
C135 C118 1.639 . S
C151 C129 1.639 . S
C153 C19 1.639 . S
C169 C74 1.639 . S
C171 C30 1.639 . S
C187 C41 1.639 . S
C189 C85 1.639 . S
C205 C96 1.639 . S
C207 C52 1.639 . S
C223 C63 1.639 . S
C225 C107 1.639 . S
C241 C7 1.670 . S
C243 C95 1.670 . S
C259 C106 1.669 . S
C261 C18 1.669 . S
C277 C29 1.670 . S
C279 C117 1.670 . S
C295 C128 1.670 . S
C297 C40 1.670 . S
C313 C51 1.670 . S
C315 C73 1.670 . S
C331 C62 1.670 . S
C333 C84 1.670 . S
C349 C5 1.516 . S
C351 C126 1.516 . S
C367 C71 1.516 . S
C369 C16 1.516 . S
C385 C27 1.516 . S
C387 C82 1.516 . S
C403 C93 1.516 . S
C405 C38 1.516 . S
C421 C49 1.516 . S
C423 C104 1.516 . S
C439 C115 1.516 . S
C441 C60 1.516 . S
