# Generated by pormake.
# Topology wgd, (5)-cn, num edge types: 1
# Building blocks:
#     Node 0, Type 0, BuildingBlock: BEQFEK_clean_sbu_0, # of connection points: 5
#     Node 1, Type 0, BuildingBlock: BEQFEK_clean_sbu_0, # of connection points: 5
#     Node 2, Type 0, BuildingBlock: BEQFEK_clean_sbu_0, # of connection points: 5
#     Node 3, Type 0, BuildingBlock: BEQFEK_clean_sbu_0, # of connection points: 5
#     Node 4, Type 0, BuildingBlock: BEQFEK_clean_sbu_0, # of connection points: 5
#     Node 5, Type 0, BuildingBlock: BEQFEK_clean_sbu_0, # of connection points: 5
#     Node 6, Type 0, BuildingBlock: BEQFEK_clean_sbu_0, # of connection points: 5
#     Node 7, Type 0, BuildingBlock: BEQFEK_clean_sbu_0, # of connection points: 5
#     Node 8, Type 0, BuildingBlock: BEQFEK_clean_sbu_0, # of connection points: 5
#     Node 9, Type 0, BuildingBlock: BEQFEK_clean_sbu_0, # of connection points: 5
#     Node 10, Type 0, BuildingBlock: BEQFEK_clean_sbu_0, # of connection points: 5
#     Node 11, Type 0, BuildingBlock: BEQFEK_clean_sbu_0, # of connection points: 5
#     Node 12, Type 0, BuildingBlock: BEQFEK_clean_sbu_0, # of connection points: 5
#     Node 13, Type 0, BuildingBlock: BEQFEK_clean_sbu_0, # of connection points: 5
#     Node 14, Type 0, BuildingBlock: BEQFEK_clean_sbu_0, # of connection points: 5
#     Node 15, Type 0, BuildingBlock: BEQFEK_clean_sbu_0, # of connection points: 5
#     Node 16, Type 0, BuildingBlock: BEQFEK_clean_sbu_0, # of connection points: 5
#     Node 17, Type 0, BuildingBlock: BEQFEK_clean_sbu_0, # of connection points: 5
#     Node 18, Type 0, BuildingBlock: BEQFEK_clean_sbu_0, # of connection points: 5
#     Node 19, Type 0, BuildingBlock: BEQFEK_clean_sbu_0, # of connection points: 5
#     Node 20, Type 0, BuildingBlock: BEQFEK_clean_sbu_0, # of connection points: 5
#     Node 21, Type 0, BuildingBlock: BEQFEK_clean_sbu_0, # of connection points: 5
#     Node 22, Type 0, BuildingBlock: BEQFEK_clean_sbu_0, # of connection points: 5
#     Node 23, Type 0, BuildingBlock: BEQFEK_clean_sbu_0, # of connection points: 5
#     Node 24, Type 0, BuildingBlock: BEQFEK_clean_sbu_0, # of connection points: 5
#     Node 25, Type 0, BuildingBlock: BEQFEK_clean_sbu_0, # of connection points: 5
#     Node 26, Type 0, BuildingBlock: BEQFEK_clean_sbu_0, # of connection points: 5
#     Node 27, Type 0, BuildingBlock: BEQFEK_clean_sbu_0, # of connection points: 5
#     Node 28, Type 0, BuildingBlock: BEQFEK_clean_sbu_0, # of connection points: 5
#     Node 29, Type 0, BuildingBlock: BEQFEK_clean_sbu_0, # of connection points: 5
#     Node 30, Type 0, BuildingBlock: BEQFEK_clean_sbu_0, # of connection points: 5
#     Node 31, Type 0, BuildingBlock: BEQFEK_clean_sbu_0, # of connection points: 5
#     Edge 32, Type (0, 0), BuildingBlock: XUDNAN_clean_linker_2, # of connection points: 2
#     Edge 33, Type (0, 0), BuildingBlock: XUDNAN_clean_linker_2, # of connection points: 2
#     Edge 34, Type (0, 0), BuildingBlock: XUDNAN_clean_linker_2, # of connection points: 2
#     Edge 35, Type (0, 0), BuildingBlock: XUDNAN_clean_linker_2, # of connection points: 2
#     Edge 36, Type (0, 0), BuildingBlock: XUDNAN_clean_linker_2, # of connection points: 2
#     Edge 37, Type (0, 0), BuildingBlock: XUDNAN_clean_linker_2, # of connection points: 2
#     Edge 38, Type (0, 0), BuildingBlock: XUDNAN_clean_linker_2, # of connection points: 2
#     Edge 39, Type (0, 0), BuildingBlock: XUDNAN_clean_linker_2, # of connection points: 2
#     Edge 40, Type (0, 0), BuildingBlock: XUDNAN_clean_linker_2, # of connection points: 2
#     Edge 41, Type (0, 0), BuildingBlock: XUDNAN_clean_linker_2, # of connection points: 2
#     Edge 42, Type (0, 0), BuildingBlock: XUDNAN_clean_linker_2, # of connection points: 2
#     Edge 43, Type (0, 0), BuildingBlock: XUDNAN_clean_linker_2, # of connection points: 2
#     Edge 44, Type (0, 0), BuildingBlock: XUDNAN_clean_linker_2, # of connection points: 2
#     Edge 45, Type (0, 0), BuildingBlock: XUDNAN_clean_linker_2, # of connection points: 2
#     Edge 46, Type (0, 0), BuildingBlock: XUDNAN_clean_linker_2, # of connection points: 2
#     Edge 47, Type (0, 0), BuildingBlock: XUDNAN_clean_linker_2, # of connection points: 2
#     Edge 48, Type (0, 0), BuildingBlock: XUDNAN_clean_linker_2, # of connection points: 2
#     Edge 49, Type (0, 0), BuildingBlock: XUDNAN_clean_linker_2, # of connection points: 2
#     Edge 50, Type (0, 0), BuildingBlock: XUDNAN_clean_linker_2, # of connection points: 2
#     Edge 51, Type (0, 0), BuildingBlock: XUDNAN_clean_linker_2, # of connection points: 2
#     Edge 52, Type (0, 0), BuildingBlock: XUDNAN_clean_linker_2, # of connection points: 2
#     Edge 53, Type (0, 0), BuildingBlock: XUDNAN_clean_linker_2, # of connection points: 2
#     Edge 54, Type (0, 0), BuildingBlock: XUDNAN_clean_linker_2, # of connection points: 2
#     Edge 55, Type (0, 0), BuildingBlock: XUDNAN_clean_linker_2, # of connection points: 2
#     Edge 56, Type (0, 0), BuildingBlock: XUDNAN_clean_linker_2, # of connection points: 2
#     Edge 57, Type (0, 0), BuildingBlock: XUDNAN_clean_linker_2, # of connection points: 2
#     Edge 58, Type (0, 0), BuildingBlock: XUDNAN_clean_linker_2, # of connection points: 2
#     Edge 59, Type (0, 0), BuildingBlock: XUDNAN_clean_linker_2, # of connection points: 2
#     Edge 60, Type (0, 0), BuildingBlock: XUDNAN_clean_linker_2, # of connection points: 2
#     Edge 61, Type (0, 0), BuildingBlock: XUDNAN_clean_linker_2, # of connection points: 2
#     Edge 62, Type (0, 0), BuildingBlock: XUDNAN_clean_linker_2, # of connection points: 2
#     Edge 63, Type (0, 0), BuildingBlock: XUDNAN_clean_linker_2, # of connection points: 2
#     Edge 64, Type (0, 0), BuildingBlock: XUDNAN_clean_linker_2, # of connection points: 2
#     Edge 65, Type (0, 0), BuildingBlock: XUDNAN_clean_linker_2, # of connection points: 2
#     Edge 66, Type (0, 0), BuildingBlock: XUDNAN_clean_linker_2, # of connection points: 2
#     Edge 67, Type (0, 0), BuildingBlock: XUDNAN_clean_linker_2, # of connection points: 2
#     Edge 68, Type (0, 0), BuildingBlock: XUDNAN_clean_linker_2, # of connection points: 2
#     Edge 69, Type (0, 0), BuildingBlock: XUDNAN_clean_linker_2, # of connection points: 2
#     Edge 70, Type (0, 0), BuildingBlock: XUDNAN_clean_linker_2, # of connection points: 2
#     Edge 71, Type (0, 0), BuildingBlock: XUDNAN_clean_linker_2, # of connection points: 2
#     Edge 72, Type (0, 0), BuildingBlock: XUDNAN_clean_linker_2, # of connection points: 2
#     Edge 73, Type (0, 0), BuildingBlock: XUDNAN_clean_linker_2, # of connection points: 2
#     Edge 74, Type (0, 0), BuildingBlock: XUDNAN_clean_linker_2, # of connection points: 2
#     Edge 75, Type (0, 0), BuildingBlock: XUDNAN_clean_linker_2, # of connection points: 2
#     Edge 76, Type (0, 0), BuildingBlock: XUDNAN_clean_linker_2, # of connection points: 2
#     Edge 77, Type (0, 0), BuildingBlock: XUDNAN_clean_linker_2, # of connection points: 2
#     Edge 78, Type (0, 0), BuildingBlock: XUDNAN_clean_linker_2, # of connection points: 2
#     Edge 79, Type (0, 0), BuildingBlock: XUDNAN_clean_linker_2, # of connection points: 2
#     Edge 80, Type (0, 0), BuildingBlock: XUDNAN_clean_linker_2, # of connection points: 2
#     Edge 81, Type (0, 0), BuildingBlock: XUDNAN_clean_linker_2, # of connection points: 2
#     Edge 82, Type (0, 0), BuildingBlock: XUDNAN_clean_linker_2, # of connection points: 2
#     Edge 83, Type (0, 0), BuildingBlock: XUDNAN_clean_linker_2, # of connection points: 2
#     Edge 84, Type (0, 0), BuildingBlock: XUDNAN_clean_linker_2, # of connection points: 2
#     Edge 85, Type (0, 0), BuildingBlock: XUDNAN_clean_linker_2, # of connection points: 2
#     Edge 86, Type (0, 0), BuildingBlock: XUDNAN_clean_linker_2, # of connection points: 2
#     Edge 87, Type (0, 0), BuildingBlock: XUDNAN_clean_linker_2, # of connection points: 2
#     Edge 88, Type (0, 0), BuildingBlock: XUDNAN_clean_linker_2, # of connection points: 2
#     Edge 89, Type (0, 0), BuildingBlock: XUDNAN_clean_linker_2, # of connection points: 2
#     Edge 90, Type (0, 0), BuildingBlock: XUDNAN_clean_linker_2, # of connection points: 2
#     Edge 91, Type (0, 0), BuildingBlock: XUDNAN_clean_linker_2, # of connection points: 2
#     Edge 92, Type (0, 0), BuildingBlock: XUDNAN_clean_linker_2, # of connection points: 2
#     Edge 93, Type (0, 0), BuildingBlock: XUDNAN_clean_linker_2, # of connection points: 2
#     Edge 94, Type (0, 0), BuildingBlock: XUDNAN_clean_linker_2, # of connection points: 2
#     Edge 95, Type (0, 0), BuildingBlock: XUDNAN_clean_linker_2, # of connection points: 2
#     Edge 96, Type (0, 0), BuildingBlock: XUDNAN_clean_linker_2, # of connection points: 2
#     Edge 97, Type (0, 0), BuildingBlock: XUDNAN_clean_linker_2, # of connection points: 2
#     Edge 98, Type (0, 0), BuildingBlock: XUDNAN_clean_linker_2, # of connection points: 2
#     Edge 99, Type (0, 0), BuildingBlock: XUDNAN_clean_linker_2, # of connection points: 2
#     Edge 100, Type (0, 0), BuildingBlock: XUDNAN_clean_linker_2, # of connection points: 2
#     Edge 101, Type (0, 0), BuildingBlock: XUDNAN_clean_linker_2, # of connection points: 2
#     Edge 102, Type (0, 0), BuildingBlock: XUDNAN_clean_linker_2, # of connection points: 2
#     Edge 103, Type (0, 0), BuildingBlock: XUDNAN_clean_linker_2, # of connection points: 2
#     Edge 104, Type (0, 0), BuildingBlock: XUDNAN_clean_linker_2, # of connection points: 2
#     Edge 105, Type (0, 0), BuildingBlock: XUDNAN_clean_linker_2, # of connection points: 2
#     Edge 106, Type (0, 0), BuildingBlock: XUDNAN_clean_linker_2, # of connection points: 2
#     Edge 107, Type (0, 0), BuildingBlock: XUDNAN_clean_linker_2, # of connection points: 2
#     Edge 108, Type (0, 0), BuildingBlock: XUDNAN_clean_linker_2, # of connection points: 2
#     Edge 109, Type (0, 0), BuildingBlock: XUDNAN_clean_linker_2, # of connection points: 2
#     Edge 110, Type (0, 0), BuildingBlock: XUDNAN_clean_linker_2, # of connection points: 2
#     Edge 111, Type (0, 0), BuildingBlock: XUDNAN_clean_linker_2, # of connection points: 2
# Relax obj value: 0.283
# Max RMSD: 0.229
# Mean RMSD: 0.229
data_MOF--net-wgd--node1-BEQFEK_clean_sbu_0--edge1-XUDNAN_clean_linker_2
_symmetry_space_group_name_H-M    P1
_symmetry_Int_Tables_number       1
_symmetry_cell_setting            triclinic
loop_
_symmetry_equiv_pos_as_xyz
'x, y, z'
_cell_length_a     100.5165
_cell_length_b     100.41702
_cell_length_c     18.320762
_cell_angle_alpha  89.960479
_cell_angle_beta   89.969645
_cell_angle_gamma 89.998322
loop_
_atom_site_label
_atom_site_type_symbol
_atom_site_fract_x
_atom_site_fract_y
_atom_site_fract_z
_atom_type_partial_charge
Co0 Co 0.17837 0.17473 0.13068 0.0
Co1 Co 0.19433 0.17743 0.98459 0.0
C2 C 0.17882 0.20034 0.05357 0.0
O3 O 0.17411 0.19317 0.10452 0.0
O4 O 0.18687 0.19551 0.00685 0.0
C5 C 0.16359 0.1788 0.26147 0.0
O6 O 0.15868 0.18901 0.22571 0.0
C7 C 0.19052 0.18281 0.83257 0.0
C8 C 0.20869 0.17545 0.77826 0.0
C9 C 0.19628 0.18101 0.76446 0.0
N10 N 0.19905 0.17854 0.88387 0.0
N11 N 0.21 0.17431 0.85137 0.0
C12 C 0.17649 0.1869 0.84903 0.0
H13 H 0.17331 0.18309 0.90307 0.0
H14 H 0.16956 0.18314 0.80665 0.0
H15 H 0.1759 0.19793 0.85027 0.0
C16 C 0.16489 0.15321 0.04873 0.0
N17 N 0.17393 0.16302 0.05492 0.0
N18 N 0.18126 0.1635 -0.00463 0.0
C19 C 0.17735 0.15362 0.95027 0.0
C20 C 0.16679 0.14689 0.98221 0.0
C21 C 0.15506 0.14972 0.10696 0.0
H22 H 0.16047 0.14564 0.15478 0.0
H23 H 0.14985 0.15888 0.12522 0.0
H24 H 0.14772 0.14225 0.08766 0.0
O25 O 0.19753 0.17326 0.15009 0.0
O26 O 0.20996 0.17415 0.05025 0.0
H27 H 0.19433 0.15249 0.87942 0.0
H28 H 0.18159 0.14037 0.85985 0.0
C29 C 0.18345 0.15076 0.87737 0.0
H30 H 0.17899 0.15744 0.83592 0.0
H31 H 0.21811 0.17018 0.87867 0.0
O32 O 0.17054 0.1703 0.22701 0.0
C33 C 0.20887 0.1729 0.11935 0.0
Co34 Co 0.07594 0.92753 0.37541 0.0
Co35 Co 0.07276 0.94357 0.23071 0.0
C36 C 0.05023 0.92764 0.30325 0.0
O37 O 0.05753 0.92274 0.35314 0.0
O38 O 0.05492 0.93586 0.25682 0.0
C39 C 0.07481 0.91226 0.50851 0.0
O40 O 0.06459 0.906 0.48008 0.0
C41 C 0.06685 0.94082 0.07781 0.0
C42 C 0.07917 0.95638 0.0263 0.0
C43 C 0.07176 0.94506 0.01088 0.0
N44 N 0.07176 0.94874 0.13035 0.0
N45 N 0.07872 0.95834 0.0991 0.0
C46 C 0.05779 0.92927 0.09272 0.0
H47 H 0.04937 0.93266 0.1269 0.0
H48 H 0.06329 0.92147 0.12329 0.0
H49 H 0.05351 0.92508 0.04195 0.0
C50 C 0.09715 0.9141 0.29268 0.0
N51 N 0.08735 0.92315 0.29878 0.0
N52 N 0.08672 0.93039 0.23895 0.0
C53 C 0.09649 0.92631 0.19342 0.0
C54 C 0.10331 0.91584 0.22573 0.0
C55 C 0.10086 0.90447 0.35157 0.0
H56 H 0.09175 0.89956 0.37281 0.0
H57 H 0.10799 0.89686 0.33165 0.0
H58 H 0.10545 0.91003 0.39742 0.0
O59 O 0.07705 0.9467 0.39535 0.0
O60 O 0.07624 0.95921 0.29605 0.0
H61 H 0.09932 0.94316 0.12372 0.0
H62 H 0.10896 0.9288 0.09764 0.0
C63 C 0.09928 0.93216 0.11992 0.0
H64 H 0.09143 0.92896 0.08148 0.0
H65 H 0.08411 0.96552 0.12775 0.0
O66 O 0.0816 0.92016 0.46936 0.0
C67 C 0.07737 0.95808 0.3651 0.0
Co68 Co 0.31949 0.82271 0.58419 0.0
Co69 Co 0.30603 0.82482 0.43274 0.0
C70 C 0.31579 0.79863 0.49639 0.0
O71 O 0.32077 0.80382 0.5534 0.0
O72 O 0.30984 0.80576 0.44935 0.0
C73 C 0.33426 0.81555 0.71173 0.0
O74 O 0.33752 0.80482 0.67481 0.0
C75 C 0.3097 0.81987 0.28165 0.0
C76 C 0.29329 0.83044 0.22626 0.0
C77 C 0.30446 0.82263 0.21362 0.0
N78 N 0.302 0.82565 0.33222 0.0
N79 N 0.2921 0.83187 0.29922 0.0
C80 C 0.32268 0.8132 0.29861 0.0
H81 H 0.32646 0.81637 0.35269 0.0
H82 H 0.33022 0.81557 0.25627 0.0
H83 H 0.32121 0.80226 0.29978 0.0
C84 C 0.33708 0.84344 0.51848 0.0
N85 N 0.32706 0.83453 0.51516 0.0
N86 N 0.32096 0.83576 0.45208 0.0
C87 C 0.32671 0.84565 0.41369 0.0
C88 C 0.33716 0.85079 0.45421 0.0
C89 C 0.34554 0.84561 0.5845 0.0
H90 H 0.34965 0.83593 0.60313 0.0
H91 H 0.35377 0.85268 0.57323 0.0
H92 H 0.33926 0.84961 0.62924 0.0
O93 O 0.30043 0.82729 0.60203 0.0
O94 O 0.29083 0.83021 0.49401 0.0
H95 H 0.3265 0.86001 0.32482 0.0
H96 H 0.32486 0.84292 0.29858 0.0
C97 C 0.32201 0.85034 0.34047 0.0
H98 H 0.31102 0.85128 0.34063 0.0
H99 H 0.28475 0.8373 0.32623 0.0
O100 O 0.32778 0.82474 0.68017 0.0
C101 C 0.29029 0.83023 0.56352 0.0
Co102 Co 0.42619 0.07464 0.88576 0.0
Co103 Co 0.43067 0.06001 0.73817 0.0
C104 C 0.45303 0.07345 0.82263 0.0
O105 O 0.4453 0.07783 0.87196 0.0
O106 O 0.44861 0.06635 0.77043 0.0
C107 C 0.4272 0.09069 0.01521 0.0
O108 O 0.43692 0.09727 0.98362 0.0
C109 C 0.4375 0.06316 0.58662 0.0
C110 C 0.42546 0.04765 0.53271 0.0
C111 C 0.43297 0.05898 0.51881 0.0
N112 N 0.43226 0.05519 0.63801 0.0
N113 N 0.42548 0.04562 0.60543 0.0
C114 C 0.44636 0.07475 0.60357 0.0
H115 H 0.45418 0.0716 0.64245 0.0
H116 H 0.44044 0.08277 0.62968 0.0
H117 H 0.45143 0.07857 0.55405 0.0
C118 C 0.40666 0.08986 0.79957 0.0
N119 N 0.41626 0.08059 0.80609 0.0
N120 N 0.4174 0.07392 0.74456 0.0
C121 C 0.40819 0.07862 0.69732 0.0
C122 C 0.40122 0.0889 0.73038 0.0
C123 C 0.40218 0.09868 0.86053 0.0
H124 H 0.3973 0.09251 0.90305 0.0
H125 H 0.41096 0.10352 0.88589 0.0
H126 H 0.39509 0.10639 0.84121 0.0
O127 O 0.42271 0.05557 0.90134 0.0
O128 O 0.42548 0.04424 0.79856 0.0
H129 H 0.40555 0.0622 0.62435 0.0
H130 H 0.39624 0.07684 0.59917 0.0
C131 C 0.40575 0.07322 0.62246 0.0
H132 H 0.41385 0.07654 0.58587 0.0
H133 H 0.41992 0.03842 0.63299 0.0
O134 O 0.42053 0.0823 0.97874 0.0
C135 C 0.42254 0.04466 0.86619 0.0
Co136 Co 0.17882 0.82741 0.8411 0.0
Co137 Co 0.1944 0.82477 0.98843 0.0
C138 C 0.1809 0.8013 0.91416 0.0
O139 O 0.17614 0.80851 0.86351 0.0
O140 O 0.18826 0.8063 0.96361 0.0
C141 C 0.16377 0.82297 0.71164 0.0
O142 O 0.15907 0.81274 0.74814 0.0
C143 C 0.19078 0.81895 0.14033 0.0
C144 C 0.20841 0.82745 0.19488 0.0
C145 C 0.19634 0.82118 0.20855 0.0
N146 N 0.19909 0.8237 0.08915 0.0
N147 N 0.20974 0.82859 0.12182 0.0
C148 C 0.17703 0.81404 0.12358 0.0
H149 H 0.17379 0.81741 0.06882 0.0
H150 H 0.16982 0.81762 0.16503 0.0
H151 H 0.17703 0.80299 0.1239 0.0
C152 C 0.16389 0.84772 0.92459 0.0
N153 N 0.17327 0.83822 0.91859 0.0
N154 N 0.1804 0.83781 0.97884 0.0
C155 C 0.17599 0.84742 0.02433 0.0
C156 C 0.16532 0.85388 0.99183 0.0
C157 C 0.15447 0.8514 0.86479 0.0
H158 H 0.16001 0.85683 0.82167 0.0
H159 H 0.15032 0.84223 0.83983 0.0
H160 H 0.14629 0.85782 0.88522 0.0
O161 O 0.19776 0.83085 0.82333 0.0
O162 O 0.20989 0.82957 0.92428 0.0
H163 H 0.19297 0.84958 0.09427 0.0
H164 H 0.1795 0.86085 0.1149 0.0
C165 C 0.18201 0.85061 0.09697 0.0
H166 H 0.17807 0.84362 0.13846 0.0
H167 H 0.2176 0.83322 0.09459 0.0
O168 O 0.17071 0.83159 0.74526 0.0
C169 C 0.20891 0.83168 0.85576 0.0
Co170 Co 0.42972 0.93345 0.14802 0.0
Co171 Co 0.42635 0.94942 0.29657 0.0
C172 C 0.45302 0.93928 0.24262 0.0
O173 O 0.44827 0.93367 0.18602 0.0
O174 O 0.44554 0.94559 0.2867 0.0
C175 C 0.42872 0.91603 0.00018 0.0
O176 O 0.42996 0.90315 0.98961 0.0
C177 C 0.42772 0.95083 0.45667 0.0
C178 C 0.4134 0.96681 0.4826 0.0
C179 C 0.42139 0.95718 0.5146 0.0
N180 N 0.42328 0.95611 0.39364 0.0
N181 N 0.41491 0.96585 0.40964 0.0
C182 C 0.4378 0.93985 0.46069 0.0
H183 H 0.44516 0.94083 0.41641 0.0
H184 H 0.43276 0.9301 0.45399 0.0
H185 H 0.44317 0.94 0.51355 0.0
C186 C 0.40892 0.91684 0.22028 0.0
N187 N 0.41759 0.92712 0.22068 0.0
N188 N 0.41603 0.93389 0.28164 0.0
C189 C 0.40618 0.92828 0.32112 0.0
C190 C 0.40143 0.91727 0.28383 0.0
C191 C 0.40714 0.90747 0.15765 0.0
H192 H 0.40475 0.91324 0.10769 0.0
H193 H 0.4166 0.90206 0.14785 0.0
H194 H 0.39908 0.90016 0.16816 0.0
O195 O 0.42491 0.95202 0.11775 0.0
O196 O 0.42146 0.96289 0.22224 0.0
H197 H 0.39896 0.94431 0.38729 0.0
H198 H 0.392 0.92832 0.41094 0.0
C199 C 0.40111 0.93353 0.39241 0.0
H200 H 0.40879 0.93207 0.43486 0.0
H201 H 0.40981 0.97146 0.37073 0.0
O202 O 0.42954 0.92029 0.06558 0.0
C203 C 0.42171 0.96256 0.15259 0.0
Co204 Co 0.32299 0.1772 0.35667 0.0
Co205 Co 0.31131 0.18165 0.5113 0.0
C206 C 0.32448 0.20376 0.42658 0.0
O207 O 0.3273 0.19605 0.37385 0.0
O208 O 0.31818 0.19949 0.48207 0.0
C209 C 0.33998 0.1789 0.23286 0.0
O210 O 0.34654 0.18756 0.27279 0.0
C211 C 0.31614 0.18734 0.66197 0.0
C212 C 0.29815 0.17991 0.71803 0.0
C213 C 0.31064 0.18536 0.73049 0.0
N214 N 0.30739 0.18315 0.61178 0.0
N215 N 0.29653 0.17895 0.64524 0.0
C216 C 0.33008 0.19149 0.64379 0.0
H217 H 0.33282 0.18825 0.58794 0.0
H218 H 0.33725 0.18724 0.68351 0.0
H219 H 0.33077 0.20251 0.64609 0.0
C220 C 0.33829 0.15625 0.4345 0.0
N221 N 0.32944 0.16632 0.4327 0.0
N222 N 0.32405 0.16774 0.4977 0.0
C223 C 0.32902 0.15827 0.54239 0.0
C224 C 0.33831 0.15086 0.50412 0.0
C225 C 0.34611 0.1516 0.36993 0.0
H226 H 0.33915 0.14835 0.32644 0.0
H227 H 0.35202 0.16003 0.34793 0.0
H228 H 0.35285 0.14325 0.38442 0.0
O229 O 0.30339 0.17516 0.34482 0.0
O230 O 0.29494 0.17762 0.45599 0.0
H231 H 0.31376 0.15762 0.62441 0.0
H232 H 0.32686 0.14553 0.63695 0.0
C233 C 0.3246 0.15586 0.61932 0.0
H234 H 0.32996 0.16273 0.65629 0.0
H235 H 0.28832 0.17486 0.61864 0.0
O236 O 0.33051 0.17237 0.26153 0.0
C237 C 0.29346 0.17542 0.38799 0.0
Co238 Co 0.07595 0.07281 0.59906 0.0
Co239 Co 0.07152 0.0614 0.75425 0.0
C240 C 0.04967 0.07527 0.67084 0.0
O241 O 0.0572 0.07775 0.61686 0.0
O242 O 0.054 0.06895 0.72608 0.0
C243 C 0.07475 0.08994 0.47554 0.0
O244 O 0.06632 0.09675 0.51567 0.0
C245 C 0.06611 0.06655 0.90484 0.0
C246 C 0.07298 0.04836 0.96127 0.0
C247 C 0.06793 0.06104 0.97344 0.0
N248 N 0.07001 0.05762 0.85484 0.0
N249 N 0.07387 0.04665 0.88851 0.0
C250 C 0.0624 0.08061 0.88641 0.0
H251 H 0.06578 0.08324 0.83063 0.0
H252 H 0.06681 0.08767 0.92615 0.0
H253 H 0.05141 0.08162 0.88839 0.0
C254 C 0.09761 0.08744 0.67546 0.0
N255 N 0.08723 0.07895 0.67436 0.0
N256 N 0.08578 0.07361 0.73948 0.0
C257 C 0.09549 0.07823 0.78351 0.0
C258 C 0.10315 0.08725 0.74473 0.0
C259 C 0.10241 0.09509 0.61059 0.0
H260 H 0.10531 0.08802 0.56687 0.0
H261 H 0.09417 0.10132 0.58919 0.0
H262 H 0.11103 0.10152 0.62454 0.0
O263 O 0.07734 0.05308 0.58741 0.0
O264 O 0.07479 0.04487 0.69909 0.0
H265 H 0.09578 0.06296 0.86563 0.0
H266 H 0.10824 0.07571 0.87771 0.0
C267 C 0.09785 0.07375 0.86041 0.0
H268 H 0.09117 0.07932 0.89756 0.0
H269 H 0.07768 0.03828 0.86206 0.0
O270 O 0.0809 0.08017 0.5038 0.0
C271 C 0.07681 0.04321 0.63104 0.0
Co272 Co 0.81976 0.82473 0.88609 0.0
Co273 Co 0.80622 0.82795 0.03668 0.0
C274 C 0.81595 0.80126 0.97847 0.0
O275 O 0.82103 0.80603 0.92055 0.0
O276 O 0.80999 0.80876 0.02371 0.0
C277 C 0.83394 0.81681 0.75762 0.0
O278 O 0.83657 0.80583 0.79381 0.0
C279 C 0.81021 0.8237 0.18778 0.0
C280 C 0.79369 0.83406 0.24329 0.0
C281 C 0.80495 0.82639 0.25577 0.0
N282 N 0.8024 0.82933 0.13723 0.0
N283 N 0.79246 0.83547 0.17031 0.0
C284 C 0.82319 0.81703 0.17081 0.0
H285 H 0.82701 0.82024 0.11685 0.0
H286 H 0.8307 0.81933 0.21335 0.0
H287 H 0.8217 0.80609 0.16932 0.0
C288 C 0.83743 0.84577 0.94735 0.0
N289 N 0.82733 0.83698 0.95241 0.0
N290 N 0.82115 0.83875 0.01487 0.0
C291 C 0.82693 0.84888 0.05105 0.0
C292 C 0.83749 0.85358 0.00982 0.0
C293 C 0.84612 0.84728 0.88165 0.0
H294 H 0.84986 0.83736 0.86459 0.0
H295 H 0.85462 0.85405 0.89266 0.0
H296 H 0.84013 0.85136 0.83599 0.0
O297 O 0.80071 0.82926 0.8678 0.0
O298 O 0.79096 0.8329 0.97476 0.0
H299 H 0.82638 0.86427 0.134 0.0
H300 H 0.82519 0.84746 0.16694 0.0
C301 C 0.82213 0.8543 0.12248 0.0
H302 H 0.81111 0.85494 0.12227 0.0
H303 H 0.78498 0.84073 0.1433 0.0
O304 O 0.82801 0.8263 0.78979 0.0
C305 C 0.79051 0.83246 0.90526 0.0
Co306 Co 0.92566 0.07198 0.62298 0.0
Co307 Co 0.93298 0.05915 0.77628 0.0
C308 C 0.9529 0.07484 0.6922 0.0
O309 O 0.94468 0.07681 0.64026 0.0
O310 O 0.94957 0.06838 0.7492 0.0
C311 C 0.91792 0.08703 0.4752 0.0
O312 O 0.91098 0.09783 0.46116 0.0
C313 C 0.94017 0.05767 0.93237 0.0
C314 C 0.92994 0.03927 0.96702 0.0
C315 C 0.93717 0.04998 0.99346 0.0
N316 N 0.93464 0.05196 0.87326 0.0
N317 N 0.92881 0.0408 0.89421 0.0
C318 C 0.94837 0.07013 0.92924 0.0
H319 H 0.95738 0.06816 0.89595 0.0
H320 H 0.94276 0.07815 0.90122 0.0
H321 H 0.95156 0.07346 0.98419 0.0
C322 C 0.90405 0.08354 0.71456 0.0
N323 N 0.91503 0.07592 0.70693 0.0
N324 N 0.91818 0.07084 0.77089 0.0
C325 C 0.90934 0.07511 0.82122 0.0
C326 C 0.90007 0.08329 0.78719 0.0
C327 C 0.89714 0.09035 0.6526 0.0
H328 H 0.89608 0.08333 0.60625 0.0
H329 H 0.90326 0.09891 0.63406 0.0
H330 H 0.88713 0.09399 0.66863 0.0
O331 O 0.92463 0.05263 0.59937 0.0
O332 O 0.93045 0.04418 0.70708 0.0
H333 H 0.90947 0.06112 0.90948 0.0
H334 H 0.90244 0.07708 0.93359 0.0
C335 C 0.91022 0.07202 0.9011 0.0
H336 H 0.91994 0.07544 0.92203 0.0
H337 H 0.92351 0.03454 0.85929 0.0
O338 O 0.91908 0.08359 0.54186 0.0
C339 C 0.92721 0.04266 0.64021 0.0
Co340 Co 0.68021 0.17918 0.35863 0.0
Co341 Co 0.69111 0.18323 0.51486 0.0
C342 C 0.67905 0.20576 0.42985 0.0
O343 O 0.67629 0.19811 0.37677 0.0
O344 O 0.68503 0.20138 0.48605 0.0
C345 C 0.66298 0.18133 0.23618 0.0
O346 O 0.65657 0.18991 0.27734 0.0
C347 C 0.68606 0.18883 0.66528 0.0
C348 C 0.70358 0.18054 0.72216 0.0
C349 C 0.69128 0.18646 0.73398 0.0
N350 N 0.69478 0.18442 0.61551 0.0
N351 N 0.70537 0.1797 0.64946 0.0
C352 C 0.67236 0.1936 0.64641 0.0
H353 H 0.66963 0.19059 0.59016 0.0
H354 H 0.66491 0.18957 0.68537 0.0
H355 H 0.67212 0.20463 0.6494 0.0
C356 C 0.66442 0.15818 0.43221 0.0
N357 N 0.6732 0.1683 0.43302 0.0
N358 N 0.67786 0.16983 0.49958 0.0
C359 C 0.67223 0.16055 0.54327 0.0
C360 C 0.66345 0.15301 0.5022 0.0
C361 C 0.65721 0.15359 0.3654 0.0
H362 H 0.65179 0.16213 0.34105 0.0
H363 H 0.65003 0.14551 0.3779 0.0
H364 H 0.66454 0.15004 0.32451 0.0
O365 O 0.69973 0.17653 0.34847 0.0
O366 O 0.70756 0.17857 0.46122 0.0
H367 H 0.67362 0.14759 0.6373 0.0
H368 H 0.67072 0.16483 0.65725 0.0
C369 C 0.67616 0.15791 0.62079 0.0
H370 H 0.68699 0.15943 0.62782 0.0
H371 H 0.71349 0.17534 0.62319 0.0
O372 O 0.67265 0.17484 0.26307 0.0
C373 C 0.70938 0.17637 0.39345 0.0
Co374 Co 0.57407 0.93278 0.15326 0.0
Co375 Co 0.57709 0.94954 0.29651 0.0
C376 C 0.55067 0.9379 0.24268 0.0
O377 O 0.55549 0.93152 0.18895 0.0
O378 O 0.55806 0.94504 0.2831 0.0
C379 C 0.56575 0.92109 0.01996 0.0
O380 O 0.55428 0.92022 0.05398 0.0
C381 C 0.57234 0.94677 0.44931 0.0
C382 C 0.58237 0.96379 0.50191 0.0
C383 C 0.5749 0.95246 0.51664 0.0
N384 N 0.57789 0.95435 0.39717 0.0
N385 N 0.58381 0.9646 0.42867 0.0
C386 C 0.56611 0.93346 0.43486 0.0
H387 H 0.56947 0.92939 0.3818 0.0
H388 H 0.56863 0.9263 0.4789 0.0
H389 H 0.55515 0.93457 0.43292 0.0
C390 C 0.59547 0.91685 0.22408 0.0
N391 N 0.58657 0.92688 0.22294 0.0
N392 N 0.58828 0.9344 0.28102 0.0
C393 C 0.59843 0.92947 0.3207 0.0
C394 C 0.60332 0.91817 0.28615 0.0
C395 C 0.59701 0.90696 0.1637 0.0
H396 H 0.60002 0.91227 0.11316 0.0
H397 H 0.58727 0.90215 0.15279 0.0
H398 H 0.60457 0.89927 0.17682 0.0
O399 O 0.57807 0.9515 0.1306 0.0
O400 O 0.58163 0.9643 0.22724 0.0
H401 H 0.60364 0.94636 0.38639 0.0
H402 H 0.61289 0.93147 0.4087 0.0
C403 C 0.60309 0.93537 0.39135 0.0
H404 H 0.59586 0.93285 0.43484 0.0
H405 H 0.58904 0.97197 0.40049 0.0
O406 O 0.57603 0.92438 0.05606 0.0
C407 C 0.58103 0.96274 0.15815 0.0
Co408 Co 0.82577 0.17456 0.16136 0.0
Co409 Co 0.8111 0.17703 0.01192 0.0
C410 C 0.82498 0.20037 0.08445 0.0
O411 O 0.82935 0.19328 0.13666 0.0
O412 O 0.81766 0.19534 0.03499 0.0
C413 C 0.84129 0.17865 0.28963 0.0
O414 O 0.84638 0.18862 0.25246 0.0
C415 C 0.81501 0.1825 0.86037 0.0
C416 C 0.79731 0.1742 0.80554 0.0
C417 C 0.80945 0.18034 0.7922 0.0
N418 N 0.8066 0.17787 0.91134 0.0
N419 N 0.79592 0.17308 0.87856 0.0
C420 C 0.82878 0.18731 0.87728 0.0
H421 H 0.83203 0.18378 0.93175 0.0
H422 H 0.83597 0.1838 0.83551 0.0
H423 H 0.82883 0.19836 0.87771 0.0
C424 C 0.84011 0.15314 0.08401 0.0
N425 N 0.83113 0.16306 0.08659 0.0
N426 N 0.82475 0.16375 0.02397 0.0
C427 C 0.82952 0.15415 0.97945 0.0
C428 C 0.83944 0.14724 0.01583 0.0
C429 C 0.84894 0.14933 0.14625 0.0
H430 H 0.84285 0.14447 0.18919 0.0
H431 H 0.85342 0.15842 0.17037 0.0
H432 H 0.8569 0.14239 0.12852 0.0
O433 O 0.80665 0.17222 0.17865 0.0
O434 O 0.79525 0.17308 0.07514 0.0
H435 H 0.81316 0.15215 0.90493 0.0
H436 H 0.82662 0.14056 0.8894 0.0
C437 C 0.82411 0.15092 0.90544 0.0
H438 H 0.82857 0.15775 0.86465 0.0
H439 H 0.78798 0.16858 0.90572 0.0
O440 O 0.83371 0.17045 0.25722 0.0
C441 C 0.79568 0.1716 0.14431 0.0
Co442 Co 0.57766 0.07399 0.88201 0.0
Co443 Co 0.57257 0.06014 0.7323 0.0
C444 C 0.55056 0.07383 0.81135 0.0
O445 O 0.55846 0.07733 0.86231 0.0
O446 O 0.55464 0.06703 0.75705 0.0
C447 C 0.57457 0.0852 0.02202 0.0
O448 O 0.56241 0.08825 0.002 0.0
C449 C 0.56645 0.05566 0.5763 0.0
C450 C 0.58248 0.04147 0.54891 0.0
C451 C 0.57249 0.04913 0.51795 0.0
N452 N 0.57304 0.05243 0.63767 0.0
N453 N 0.58233 0.04364 0.62115 0.0
C454 C 0.55464 0.06474 0.57489 0.0
H455 H 0.54852 0.0632 0.62445 0.0
H456 H 0.55803 0.07525 0.57457 0.0
H457 H 0.54836 0.06284 0.52619 0.0
C458 C 0.59853 0.08784 0.79473 0.0
N459 N 0.58832 0.07921 0.80178 0.0
N460 N 0.58573 0.07384 0.73787 0.0
C461 C 0.594 0.07915 0.68768 0.0
C462 C 0.60252 0.08806 0.72204 0.0
C463 C 0.60467 0.09516 0.85732 0.0
H464 H 0.60545 0.08845 0.90524 0.0
H465 H 0.59815 0.10363 0.87257 0.0
H466 H 0.6147 0.09899 0.84325 0.0
O467 O 0.58032 0.05489 0.9054 0.0
O468 O 0.57705 0.04524 0.79856 0.0
H469 H 0.59721 0.06654 0.5953 0.0
H470 H 0.59858 0.08409 0.57506 0.0
C471 C 0.59309 0.07654 0.60739 0.0
H472 H 0.58255 0.07684 0.59026 0.0
H473 H 0.58907 0.03971 0.65871 0.0
O474 O 0.58318 0.08274 0.97314 0.0
C475 C 0.57984 0.04449 0.86609 0.0
Co476 Co 0.68179 0.82271 0.60341 0.0
Co477 Co 0.69789 0.82652 0.46042 0.0
C478 C 0.68723 0.79956 0.51415 0.0
O479 O 0.68091 0.80414 0.56869 0.0
O480 O 0.69404 0.8072 0.4732 0.0
C481 C 0.6641 0.82303 0.74174 0.0
O482 O 0.65244 0.82018 0.71345 0.0
C483 C 0.69267 0.82583 0.3075 0.0
C484 C 0.71011 0.8353 0.25585 0.0
C485 C 0.69748 0.83038 0.24137 0.0
N486 N 0.70176 0.82837 0.35932 0.0
N487 N 0.71229 0.83384 0.32817 0.0
C488 C 0.67942 0.81947 0.32192 0.0
H489 H 0.67204 0.82726 0.33622 0.0
H490 H 0.67583 0.81404 0.27302 0.0
H491 H 0.68 0.81248 0.36831 0.0
C492 C 0.66507 0.8442 0.53692 0.0
N493 N 0.67508 0.83524 0.53602 0.0
N494 N 0.6828 0.83765 0.4795 0.0
C495 C 0.67824 0.84854 0.44431 0.0
C496 C 0.66674 0.85289 0.47865 0.0
C497 C 0.65488 0.84516 0.5961 0.0
H498 H 0.64905 0.8358 0.5977 0.0
H499 H 0.64805 0.8537 0.58739 0.0
H500 H 0.65996 0.84633 0.64944 0.0
O501 O 0.70044 0.82769 0.62408 0.0
O502 O 0.71287 0.83144 0.52617 0.0
H503 H 0.68322 0.86582 0.37832 0.0
H504 H 0.68114 0.85068 0.32926 0.0
C505 C 0.68506 0.85497 0.38057 0.0
H506 H 0.69594 0.8533 0.38356 0.0
H507 H 0.72069 0.83708 0.35653 0.0
O508 O 0.67432 0.82402 0.70163 0.0
C509 C 0.71146 0.83105 0.59532 0.0
Co510 Co 0.92738 0.92807 0.36657 0.0
Co511 Co 0.93157 0.94506 0.22038 0.0
C512 C 0.95319 0.92773 0.28771 0.0
O513 O 0.9457 0.92339 0.33852 0.0
O514 O 0.94898 0.9361 0.24069 0.0
C515 C 0.92018 0.91279 0.51667 0.0
O516 O 0.91552 0.90081 0.53016 0.0
C517 C 0.93639 0.94632 0.06103 0.0
C518 C 0.92574 0.96469 0.03023 0.0
C519 C 0.93219 0.95372 0.00074 0.0
N520 N 0.9321 0.95236 0.12246 0.0
N521 N 0.92603 0.96352 0.10351 0.0
C522 C 0.94442 0.93375 0.06095 0.0
H523 H 0.95179 0.93399 0.10581 0.0
H524 H 0.93777 0.9251 0.0702 0.0
H525 H 0.94985 0.93246 0.00871 0.0
C526 C 0.90568 0.91671 0.27767 0.0
N527 N 0.91582 0.92533 0.28637 0.0
N528 N 0.91715 0.93254 0.22667 0.0
C529 C 0.90761 0.92885 0.17869 0.0
C530 C 0.90014 0.91864 0.20924 0.0
C531 C 0.90119 0.90706 0.33492 0.0
H532 H 0.8986 0.91261 0.3853 0.0
H533 H 0.90948 0.90018 0.34821 0.0
H534 H 0.89241 0.90123 0.31705 0.0
O535 O 0.9275 0.947 0.39459 0.0
O536 O 0.92943 0.95963 0.2951 0.0
H537 H 0.90628 0.94555 0.10628 0.0
H538 H 0.89651 0.93145 0.0779 0.0
C539 C 0.90598 0.93454 0.10367 0.0
H540 H 0.91417 0.93096 0.06847 0.0
H541 H 0.92144 0.96996 0.14041 0.0
O542 O 0.92189 0.91606 0.44988 0.0
C543 C 0.92834 0.95841 0.36429 0.0
Co544 Co 0.68461 0.67813 0.59873 0.0
Co545 Co 0.69984 0.67526 0.45147 0.0
C546 C 0.68938 0.7018 0.50911 0.0
O547 O 0.68379 0.69687 0.56517 0.0
O548 O 0.69581 0.69444 0.46502 0.0
C549 C 0.67142 0.68625 0.72929 0.0
O550 O 0.66962 0.69752 0.69421 0.0
C551 C 0.69632 0.67964 0.29954 0.0
C552 C 0.71296 0.6693 0.24514 0.0
C553 C 0.70169 0.67691 0.23175 0.0
N554 N 0.70406 0.67409 0.35077 0.0
N555 N 0.71407 0.66796 0.31827 0.0
C556 C 0.68324 0.68621 0.3156 0.0
H557 H 0.67932 0.68298 0.36928 0.0
H558 H 0.67585 0.68385 0.27255 0.0
H559 H 0.68464 0.69716 0.31721 0.0
C560 C 0.66769 0.65723 0.53208 0.0
N561 N 0.6777 0.66614 0.52977 0.0
N562 N 0.68468 0.6643 0.46989 0.0
C563 C 0.67946 0.65398 0.43268 0.0
C564 C 0.6685 0.64921 0.47058 0.0
C565 C 0.65848 0.65561 0.59557 0.0
H566 H 0.65503 0.66553 0.61431 0.0
H567 H 0.64981 0.64928 0.58132 0.0
H568 H 0.66398 0.65089 0.64131 0.0
O569 O 0.70326 0.67302 0.61863 0.0
O570 O 0.71491 0.67027 0.5166 0.0
H571 H 0.68112 0.63852 0.35036 0.0
H572 H 0.68254 0.6553 0.31763 0.0
C573 C 0.68513 0.64853 0.36325 0.0
H574 H 0.69613 0.648 0.36734 0.0
H575 H 0.7215 0.6627 0.34575 0.0
O576 O 0.67615 0.67633 0.69513 0.0
C577 C 0.71405 0.67006 0.58605 0.0
Co578 Co 0.57522 0.42628 0.89854 0.0
Co579 Co 0.57163 0.44108 0.74674 0.0
C580 C 0.54852 0.42887 0.82714 0.0
O581 O 0.55589 0.42494 0.87943 0.0
O582 O 0.55335 0.43513 0.77268 0.0
C583 C 0.57998 0.41007 0.04655 0.0
O584 O 0.58449 0.39803 0.06012 0.0
C585 C 0.56553 0.44318 0.58999 0.0
C586 C 0.57783 0.46034 0.55632 0.0
C587 C 0.5696 0.45044 0.52917 0.0
N588 N 0.57139 0.44834 0.64965 0.0
N589 N 0.5785 0.45877 0.62928 0.0
C590 C 0.55596 0.43175 0.59244 0.0
H591 H 0.54786 0.43411 0.63147 0.0
H592 H 0.56104 0.42271 0.6131 0.0
H593 H 0.55147 0.42974 0.53829 0.0
C594 C 0.59338 0.41001 0.80652 0.0
N595 N 0.58498 0.42037 0.81502 0.0
N596 N 0.58387 0.42669 0.75227 0.0
C597 C 0.59185 0.42075 0.70263 0.0
C598 C 0.59801 0.40992 0.73524 0.0
C599 C 0.59692 0.40037 0.86571 0.0
H600 H 0.601 0.4059 0.91303 0.0
H601 H 0.5878 0.39509 0.88396 0.0
H602 H 0.60439 0.39298 0.84713 0.0
O603 O 0.5798 0.44511 0.92302 0.0
O604 O 0.57722 0.45518 0.81553 0.0
H605 H 0.59419 0.43596 0.62144 0.0
H606 H 0.60197 0.42037 0.59801 0.0
C607 C 0.59321 0.42499 0.6246 0.0
H608 H 0.58425 0.42191 0.59391 0.0
H609 H 0.58428 0.46447 0.66478 0.0
O610 O 0.57935 0.41368 0.97997 0.0
C611 C 0.58007 0.45555 0.88333 0.0
Co612 Co 0.82234 0.3247 0.11693 0.0
Co613 Co 0.81185 0.31995 0.96042 0.0
C614 C 0.8232 0.29769 0.05063 0.0
O615 O 0.82558 0.30561 0.10297 0.0
O616 O 0.81775 0.30182 0.99217 0.0
C617 C 0.83953 0.32246 0.2389 0.0
O618 O 0.84589 0.31399 0.1969 0.0
C619 C 0.81642 0.31347 0.80984 0.0
C620 C 0.79922 0.32257 0.75377 0.0
C621 C 0.8112 0.31606 0.74131 0.0
N622 N 0.80805 0.31841 0.85998 0.0
N623 N 0.79763 0.32357 0.8265 0.0
C624 C 0.82988 0.30797 0.82816 0.0
H625 H 0.8329 0.31098 0.88396 0.0
H626 H 0.83746 0.31143 0.78841 0.0
H627 H 0.82946 0.29693 0.82607 0.0
C628 C 0.84048 0.34322 0.0389 0.0
N629 N 0.83018 0.33464 0.04076 0.0
N630 N 0.82529 0.33328 0.97457 0.0
C631 C 0.83199 0.34151 0.92908 0.0
C632 C 0.84196 0.34786 0.96811 0.0
C633 C 0.84889 0.34666 0.10348 0.0
H634 H 0.85466 0.33775 0.1202 0.0
H635 H 0.85587 0.35492 0.09092 0.0
H636 H 0.84241 0.34956 0.14984 0.0
O637 O 0.80282 0.32806 0.12492 0.0
O638 O 0.79536 0.32494 0.01228 0.0
H639 H 0.83239 0.35311 0.82977 0.0
H640 H 0.83492 0.33563 0.8181 0.0
C641 C 0.82922 0.34315 0.8493 0.0
H642 H 0.81847 0.34196 0.83825 0.0
H643 H 0.78981 0.32839 0.85306 0.0
O644 O 0.8299 0.3291 0.21255 0.0
C645 C 0.79331 0.32782 0.07901 0.0
Co646 Co 0.93071 0.57223 0.36607 0.0
Co647 Co 0.92577 0.55601 0.22365 0.0
C648 C 0.9533 0.56538 0.27183 0.0
O649 O 0.9491 0.57142 0.32841 0.0
O650 O 0.94534 0.55915 0.22975 0.0
C651 C 0.93759 0.57756 0.50817 0.0
O652 O 0.94742 0.56972 0.48836 0.0
C653 C 0.92718 0.555 0.0664 0.0
C654 C 0.91126 0.54081 0.03728 0.0
C655 C 0.92037 0.54967 0.00777 0.0
N656 N 0.92229 0.54964 0.12792 0.0
N657 N 0.913 0.5409 0.11024 0.0
C658 C 0.93668 0.5665 0.06483 0.0
H659 H 0.93637 0.57204 0.11716 0.0
H660 H 0.93432 0.5734 0.0193 0.0
H661 H 0.94691 0.56265 0.05636 0.0
C662 C 0.91269 0.59124 0.29279 0.0
N663 N 0.91905 0.57947 0.29628 0.0
N664 N 0.91621 0.57237 0.238 0.0
C665 C 0.90758 0.57935 0.19628 0.0
C666 C 0.90519 0.59158 0.22927 0.0
C667 C 0.91386 0.60188 0.34956 0.0
H668 H 0.91047 0.59786 0.40284 0.0
H669 H 0.92447 0.60473 0.35563 0.0
H670 H 0.90784 0.61078 0.33567 0.0
O671 O 0.92466 0.5543 0.39485 0.0
O672 O 0.92065 0.54216 0.2964 0.0
H673 H 0.90001 0.56409 0.12584 0.0
H674 H 0.89332 0.58035 0.10749 0.0
C675 C 0.90238 0.57484 0.12381 0.0
H676 H 0.91004 0.57663 0.08144 0.0
H677 H 0.90726 0.53568 0.14811 0.0
O678 O 0.9297 0.58183 0.45937 0.0
C679 C 0.92096 0.54346 0.36548 0.0
Co680 Co 0.67617 0.32797 0.31578 0.0
Co681 Co 0.6923 0.32715 0.46032 0.0
C682 C 0.67776 0.30299 0.40029 0.0
O683 O 0.67309 0.30961 0.34695 0.0
O684 O 0.68549 0.3084 0.44693 0.0
C685 C 0.66798 0.32261 0.1751 0.0
O686 O 0.67237 0.31082 0.19492 0.0
C687 C 0.69297 0.32439 0.61705 0.0
C688 C 0.70987 0.33727 0.64786 0.0
C689 C 0.69936 0.33 0.67643 0.0
N690 N 0.69926 0.32834 0.55619 0.0
N691 N 0.70961 0.33571 0.57488 0.0
C692 C 0.6799 0.3172 0.61698 0.0
H693 H 0.67461 0.31881 0.56458 0.0
H694 H 0.67349 0.32053 0.66278 0.0
H695 H 0.68177 0.30638 0.62347 0.0
C696 C 0.66032 0.34756 0.3968 0.0
N697 N 0.67107 0.33969 0.38986 0.0
N698 N 0.67817 0.34011 0.45012 0.0
C699 C 0.67233 0.34887 0.49629 0.0
C700 C 0.66076 0.35369 0.46444 0.0
C701 C 0.6494 0.34835 0.34154 0.0
H702 H 0.65351 0.35219 0.2894 0.0
H703 H 0.64547 0.33821 0.33098 0.0
H704 H 0.64122 0.35497 0.35992 0.0
O705 O 0.69502 0.33048 0.28924 0.0
O706 O 0.7071 0.33052 0.3901 0.0
H707 H 0.68809 0.35213 0.57323 0.0
H708 H 0.67341 0.36198 0.5893 0.0
C709 C 0.67709 0.35208 0.5716 0.0
H710 H 0.67319 0.34459 0.61049 0.0
H711 H 0.71584 0.3405 0.53765 0.0
O712 O 0.667 0.33165 0.22321 0.0
C713 C 0.70622 0.33142 0.32097 0.0
Co714 Co 0.93152 0.43419 0.64174 0.0
Co715 Co 0.92538 0.44637 0.79086 0.0
C716 C 0.95353 0.43897 0.73983 0.0
O717 O 0.94975 0.43376 0.68018 0.0
O718 O 0.94514 0.44422 0.78335 0.0
C719 C 0.93571 0.41779 0.50555 0.0
O720 O 0.94305 0.40838 0.53482 0.0
C721 C 0.92604 0.44178 0.94376 0.0
C722 C 0.91056 0.45521 0.98768 0.0
C723 C 0.91893 0.44476 0.00614 0.0
N724 N 0.92164 0.44963 0.88989 0.0
N725 N 0.91259 0.45787 0.91641 0.0
C726 C 0.9368 0.43157 0.93406 0.0
H727 H 0.93342 0.42381 0.89521 0.0
H728 H 0.93989 0.42694 0.9862 0.0
H729 H 0.94571 0.4364 0.9106 0.0
C730 C 0.91274 0.41327 0.69524 0.0
N731 N 0.91936 0.4249 0.70168 0.0
N732 N 0.91595 0.43065 0.7633 0.0
C733 C 0.90663 0.42309 0.79663 0.0
C734 C 0.90444 0.41177 0.75511 0.0
C735 C 0.91438 0.40376 0.63318 0.0
H736 H 0.91222 0.40897 0.58113 0.0
H737 H 0.92483 0.40024 0.63157 0.0
H738 H 0.90762 0.39507 0.63855 0.0
O739 O 0.92581 0.45305 0.62505 0.0
O740 O 0.91986 0.46164 0.73134 0.0
H741 H 0.89846 0.43711 0.87263 0.0
H742 H 0.89063 0.42103 0.87508 0.0
C743 C 0.90025 0.42627 0.86833 0.0
H744 H 0.90688 0.42299 0.91309 0.0
H745 H 0.90729 0.46474 0.88509 0.0
O746 O 0.93119 0.42725 0.54387 0.0
C747 C 0.92124 0.46269 0.66259 0.0
Co748 Co 0.82249 0.68094 0.87618 0.0
Co749 Co 0.8083 0.67581 0.02347 0.0
C750 C 0.81658 0.70345 0.97484 0.0
O751 O 0.8219 0.69922 0.91619 0.0
O752 O 0.81093 0.69549 0.01937 0.0
C753 C 0.82689 0.6886 0.73566 0.0
O754 O 0.8184 0.69772 0.75759 0.0
C755 C 0.80598 0.67652 0.18083 0.0
C756 C 0.79374 0.65871 0.20399 0.0
C757 C 0.80095 0.6688 0.23686 0.0
N758 N 0.80197 0.67123 0.1174 0.0
N759 N 0.79437 0.6608 0.13143 0.0
C760 C 0.81606 0.68745 0.18701 0.0
H761 H 0.82242 0.68781 0.13757 0.0
H762 H 0.82243 0.68608 0.23589 0.0
H763 H 0.81078 0.6971 0.19243 0.0
C764 C 0.84217 0.66228 0.94069 0.0
N765 N 0.83058 0.66901 0.9426 0.0
N766 N 0.82454 0.66663 0.00495 0.0
C767 C 0.83206 0.65816 0.04459 0.0
C768 C 0.84349 0.65514 0.00521 0.0
C769 C 0.85165 0.66268 0.87777 0.0
H770 H 0.84632 0.65984 0.8271 0.0
H771 H 0.85533 0.67302 0.87053 0.0
H772 H 0.86019 0.65584 0.88598 0.0
O773 O 0.80428 0.67507 0.84857 0.0
O774 O 0.79443 0.67048 0.95357 0.0
H775 H 0.81881 0.64944 0.12262 0.0
H776 H 0.83612 0.64657 0.14269 0.0
C777 C 0.82889 0.65388 0.12099 0.0
H778 H 0.82907 0.66268 0.15724 0.0
H779 H 0.79033 0.65461 0.09142 0.0
O780 O 0.83182 0.68077 0.78277 0.0
C781 C 0.79422 0.67101 0.88428 0.0
Co782 Co 0.5786 0.57046 0.14194 0.0
Co783 Co 0.57535 0.55427 0.2859 0.0
C784 C 0.55288 0.5705 0.22004 0.0
O785 O 0.56029 0.57479 0.16897 0.0
O786 O 0.55725 0.56229 0.26755 0.0
C787 C 0.5747 0.57988 0.00049 0.0
O788 O 0.56226 0.57771 0.01898 0.0
C789 C 0.57232 0.55431 0.44275 0.0
C790 C 0.58231 0.5356 0.47473 0.0
C791 C 0.57685 0.54721 0.50268 0.0
N792 N 0.57525 0.54735 0.38229 0.0
N793 N 0.58083 0.53598 0.40172 0.0
C794 C 0.56725 0.56834 0.44175 0.0
H795 H 0.56858 0.57286 0.38696 0.0
H796 H 0.57243 0.5745 0.48323 0.0
H797 H 0.55649 0.56828 0.45517 0.0
C798 C 0.59995 0.58357 0.22442 0.0
N799 N 0.59012 0.57456 0.21857 0.0
N800 N 0.58946 0.56736 0.27853 0.0
C801 C 0.59932 0.57135 0.3238 0.0
C802 C 0.60613 0.58186 0.29135 0.0
C803 C 0.60365 0.59313 0.16513 0.0
H804 H 0.60673 0.58744 0.11604 0.0
H805 H 0.59479 0.59913 0.14997 0.0
H806 H 0.61189 0.59983 0.18172 0.0
O807 O 0.58032 0.55149 0.11702 0.0
O808 O 0.57855 0.53921 0.21688 0.0
H809 H 0.60068 0.55444 0.39506 0.0
H810 H 0.61254 0.56735 0.41472 0.0
C811 C 0.60222 0.56534 0.3969 0.0
H812 H 0.5955 0.56977 0.43818 0.0
H813 H 0.58458 0.52899 0.36498 0.0
O814 O 0.58361 0.57919 0.04951 0.0
C815 C 0.58037 0.54019 0.14832 0.0
Co816 Co 0.32547 0.32723 0.33797 0.0
Co817 Co 0.31105 0.32393 0.48777 0.0
C818 C 0.32515 0.3011 0.4118 0.0
O819 O 0.32925 0.30848 0.36019 0.0
O820 O 0.31786 0.30578 0.46249 0.0
C821 C 0.34123 0.3238 0.21 0.0
O822 O 0.34675 0.31412 0.24751 0.0
C823 C 0.31512 0.31831 0.63922 0.0
C824 C 0.29725 0.32623 0.69424 0.0
C825 C 0.30954 0.32037 0.70748 0.0
N826 N 0.30661 0.32275 0.58835 0.0
N827 N 0.29583 0.3273 0.62125 0.0
C828 C 0.32899 0.3138 0.62209 0.0
H829 H 0.33208 0.31724 0.56716 0.0
H830 H 0.33613 0.31762 0.66325 0.0
H831 H 0.32933 0.30276 0.62265 0.0
C832 C 0.33968 0.34847 0.41715 0.0
N833 N 0.33084 0.33844 0.41394 0.0
N834 N 0.32455 0.33744 0.47674 0.0
C835 C 0.32923 0.34697 0.52203 0.0
C836 C 0.33902 0.35414 0.48596 0.0
C837 C 0.34833 0.35265 0.35479 0.0
H838 H 0.35273 0.34372 0.32854 0.0
H839 H 0.35636 0.35947 0.37304 0.0
H840 H 0.34212 0.3578 0.31342 0.0
O841 O 0.30632 0.32956 0.32201 0.0
O842 O 0.29505 0.32796 0.42575 0.0
H843 H 0.326 0.3604 0.61247 0.0
H844 H 0.32839 0.34325 0.63677 0.0
C845 C 0.32376 0.34999 0.59618 0.0
H846 H 0.31284 0.34848 0.59676 0.0
H847 H 0.28779 0.33165 0.5942 0.0
O848 O 0.33327 0.33168 0.24215 0.0
C849 C 0.29538 0.32988 0.35688 0.0
Co850 Co 0.43182 0.57871 0.098 0.0
Co851 Co 0.43115 0.56161 0.23995 0.0
C852 C 0.45616 0.57561 0.18525 0.0
O853 O 0.45012 0.58109 0.13214 0.0
O854 O 0.45015 0.56769 0.22866 0.0
C855 C 0.43744 0.5855 0.95606 0.0
O856 O 0.44867 0.57992 0.97625 0.0
C857 C 0.43367 0.56072 0.3969 0.0
C858 C 0.42033 0.54415 0.42751 0.0
C859 C 0.42788 0.55443 0.45626 0.0
N860 N 0.42956 0.55457 0.33588 0.0
N861 N 0.4219 0.54442 0.35448 0.0
C862 C 0.44121 0.57359 0.39707 0.0
H863 H 0.43968 0.57901 0.34498 0.0
H864 H 0.43811 0.58002 0.4433 0.0
H865 H 0.45198 0.57141 0.40297 0.0
C866 C 0.41203 0.5946 0.1781 0.0
N867 N 0.41985 0.58382 0.17112 0.0
N868 N 0.41888 0.57636 0.22998 0.0
C869 C 0.4099 0.58204 0.27539 0.0
C870 C 0.40545 0.59387 0.2445 0.0
C871 C 0.41131 0.60556 0.12291 0.0
H872 H 0.40857 0.60132 0.06908 0.0
H873 H 0.42127 0.6102 0.11714 0.0
H874 H 0.4039 0.61325 0.13845 0.0
O875 O 0.42878 0.56008 0.06996 0.0
O876 O 0.42731 0.54722 0.16759 0.0
H877 H 0.40586 0.56579 0.34822 0.0
H878 H 0.39638 0.58053 0.36711 0.0
C879 C 0.40621 0.5768 0.3492 0.0
H880 H 0.41365 0.58016 0.38975 0.0
H881 H 0.41695 0.53833 0.31719 0.0
O882 O 0.42874 0.58796 0.00459 0.0
C883 C 0.42699 0.5487 0.09858 0.0
Co884 Co 0.18049 0.67679 0.86612 0.0
Co885 Co 0.19449 0.68091 0.01657 0.0
C886 C 0.18193 0.70364 0.933 0.0
O887 O 0.17795 0.6959 0.88281 0.0
O888 O 0.18863 0.69922 0.98678 0.0
C889 C 0.16445 0.6802 0.73933 0.0
O890 O 0.15891 0.68975 0.77773 0.0
C891 C 0.19047 0.68723 0.16785 0.0
C892 C 0.20796 0.67861 0.22334 0.0
C893 C 0.19587 0.68488 0.23637 0.0
N894 N 0.19887 0.68245 0.11722 0.0
N895 N 0.20945 0.67754 0.15043 0.0
C896 C 0.17678 0.69219 0.15023 0.0
H897 H 0.17378 0.68911 0.09453 0.0
H898 H 0.16942 0.68836 0.19024 0.0
H899 H 0.17673 0.70323 0.15247 0.0
C900 C 0.16494 0.65704 0.94942 0.0
N901 N 0.1741 0.66677 0.94475 0.0
N902 N 0.1805 0.66781 0.00719 0.0
C903 C 0.17578 0.65841 0.05323 0.0
C904 C 0.1657 0.65139 0.01839 0.0
C905 C 0.15663 0.6525 0.8865 0.0
H906 H 0.16324 0.6485 0.84322 0.0
H907 H 0.15125 0.66115 0.8631 0.0
H908 H 0.14941 0.64469 0.90294 0.0
O909 O 0.19946 0.67271 0.85313 0.0
O910 O 0.21038 0.67543 0.95741 0.0
H911 H 0.19203 0.65678 0.12868 0.0
H912 H 0.17822 0.64594 0.14931 0.0
C913 C 0.18104 0.6559 0.12849 0.0
H914 H 0.17682 0.66337 0.16641 0.0
H915 H 0.21733 0.67286 0.12364 0.0
O916 O 0.17252 0.67232 0.77065 0.0
C917 C 0.21018 0.6723 0.88992 0.0
Co918 Co 0.0745 0.4342 0.66277 0.0
Co919 Co 0.07814 0.44992 0.8123 0.0
C920 C 0.05128 0.44042 0.75905 0.0
O921 O 0.05605 0.43495 0.70205 0.0
O922 O 0.05878 0.44644 0.8043 0.0
C923 C 0.07483 0.4167 0.51563 0.0
O924 O 0.0727 0.40394 0.50474 0.0
C925 C 0.0771 0.45198 0.97276 0.0
C926 C 0.09345 0.46598 -0.0035 0.0
C927 C 0.08447 0.45743 0.02987 0.0
N928 N 0.08192 0.45663 0.909 0.0
N929 N 0.09148 0.46525 0.92379 0.0
C930 C 0.06566 0.44247 0.97802 0.0
H931 H 0.05813 0.44487 0.93632 0.0
H932 H 0.06924 0.43218 0.96792 0.0
H933 H 0.06076 0.44301 0.0322 0.0
C934 C 0.09522 0.41734 0.73256 0.0
N935 N 0.08662 0.42767 0.73437 0.0
N936 N 0.08819 0.43417 0.7962 0.0
C937 C 0.09793 0.42823 0.83512 0.0
C938 C 0.10264 0.41739 0.79627 0.0
C939 C 0.09699 0.40825 0.66867 0.0
H940 H 0.09914 0.41425 0.61917 0.0
H941 H 0.08761 0.40271 0.65913 0.0
H942 H 0.1052 0.40105 0.67769 0.0
O943 O 0.07959 0.45256 0.63162 0.0
O944 O 0.08291 0.46333 0.73661 0.0
H945 H 0.10624 0.44345 0.90281 0.0
H946 H 0.11137 0.42684 0.92761 0.0
C947 C 0.10295 0.43295 0.9075 0.0
H948 H 0.09484 0.43232 0.94818 0.0
H949 H 0.09714 0.47012 0.88413 0.0
O950 O 0.07409 0.42099 0.58094 0.0
C951 C 0.08274 0.46307 0.66686 0.0
Co952 Co 0.32154 0.67882 0.62218 0.0
Co953 Co 0.30725 0.67324 0.47587 0.0
C954 C 0.31602 0.70098 0.52196 0.0
O955 O 0.3214 0.69701 0.58096 0.0
O956 O 0.3102 0.69286 0.47912 0.0
C957 C 0.3265 0.68643 0.76341 0.0
O958 O 0.31829 0.69591 0.74303 0.0
C959 C 0.30569 0.67397 0.31863 0.0
C960 C 0.29249 0.65699 0.29335 0.0
C961 C 0.30044 0.66666 0.26175 0.0
N962 N 0.30109 0.66888 0.38138 0.0
N963 N 0.29294 0.65892 0.36609 0.0
C964 C 0.31644 0.68427 0.31393 0.0
H965 H 0.32232 0.68454 0.36509 0.0
H966 H 0.3232 0.68224 0.2673 0.0
H967 H 0.31181 0.69417 0.30506 0.0
C968 C 0.34117 0.66001 0.55818 0.0
N969 N 0.32948 0.66657 0.55669 0.0
N970 N 0.32329 0.66386 0.49526 0.0
C971 C 0.33075 0.65526 0.45615 0.0
C972 C 0.34236 0.65258 0.49458 0.0
C973 C 0.35101 0.66106 0.61911 0.0
H974 H 0.34616 0.65802 0.67094 0.0
H975 H 0.35416 0.67159 0.6251 0.0
H976 H 0.35985 0.65467 0.60961 0.0
O977 O 0.30309 0.67351 0.64993 0.0
O978 O 0.29328 0.66824 0.54572 0.0
H979 H 0.33397 0.64249 0.36174 0.0
H980 H 0.32851 0.65904 0.34211 0.0
C981 C 0.32739 0.65062 0.38065 0.0
H982 H 0.31696 0.6471 0.37911 0.0
H983 H 0.28834 0.65296 0.40538 0.0
O984 O 0.33091 0.67848 0.71542 0.0
C985 C 0.29302 0.66929 0.61482 0.0
Co986 Co 0.07457 0.57127 0.35166 0.0
Co987 Co 0.07739 0.55364 0.20734 0.0
C988 C 0.05097 0.56459 0.26142 0.0
O989 O 0.05584 0.57043 0.31699 0.0
O990 O 0.05832 0.55805 0.21769 0.0
C991 C 0.07621 0.58792 0.50095 0.0
O992 O 0.07649 0.60076 0.51489 0.0
C993 C 0.07622 0.55356 0.04679 0.0
C994 C 0.08497 0.53421 0.01635 0.0
C995 C 0.07977 0.54583 0.98679 0.0
N996 N 0.07942 0.54697 0.10853 0.0
N997 N 0.08456 0.53534 0.08979 0.0
C998 C 0.06938 0.56682 0.04564 0.0
H999 H 0.06408 0.56866 0.0976 0.0
H1000 H 0.07683 0.57486 0.03867 0.0
H1001 H 0.06227 0.56736 -0.0006 0.0
C1002 C 0.09479 0.58721 0.27214 0.0
N1003 N 0.08617 0.57694 0.27559 0.0
N1004 N 0.08814 0.56908 0.21903 0.0
C1005 C 0.09843 0.57384 0.17955 0.0
C1006 C 0.10282 0.58557 0.21124 0.0
C1007 C 0.09612 0.59766 0.32984 0.0
H1008 H 0.08625 0.60221 0.3404 0.0
H1009 H 0.10331 0.60552 0.3138 0.0
H1010 H 0.09955 0.59293 0.38124 0.0
O1011 O 0.08037 0.55345 0.38393 0.0
O1012 O 0.08197 0.54036 0.28555 0.0
H1013 H 0.11512 0.56956 0.10824 0.0
H1014 H 0.09924 0.56983 0.06495 0.0
C1015 C 0.10452 0.56686 0.11541 0.0
H1016 H 0.10375 0.55592 0.12226 0.0
H1017 H 0.08793 0.52824 0.12705 0.0
O1018 O 0.07542 0.58443 0.43407 0.0
C1019 C 0.08281 0.5422 0.35458 0.0
Co1020 Co 0.18055 0.32348 0.11803 0.0
Co1021 Co 0.19373 0.32044 0.96609 0.0
C1022 C 0.17982 0.29755 0.03976 0.0
O1023 O 0.17656 0.30482 0.09366 0.0
O1024 O 0.18665 0.3022 0.98699 0.0
C1025 C 0.1675 0.3196 0.25465 0.0
O1026 O 0.167 0.30707 0.23419 0.0
C1027 C 0.19245 0.31739 0.81006 0.0
C1028 C 0.21027 0.32843 0.77343 0.0
C1029 C 0.19876 0.32232 0.74865 0.0
N1030 N 0.19974 0.32068 0.86855 0.0
N1031 N 0.21061 0.32688 0.84637 0.0
C1032 C 0.17871 0.31165 0.81453 0.0
H1033 H 0.17458 0.31282 0.87031 0.0
H1034 H 0.17199 0.31647 0.7744 0.0
H1035 H 0.17919 0.30087 0.80138 0.0
C1036 C 0.16579 0.34486 0.04167 0.0
N1037 N 0.17475 0.33489 0.04274 0.0
N1038 N 0.18062 0.33408 0.97871 0.0
C1039 C 0.17588 0.34393 0.93558 0.0
C1040 C 0.16623 0.35092 0.97377 0.0
C1041 C 0.15757 0.34893 0.10598 0.0
H1042 H 0.15214 0.34014 0.12739 0.0
H1043 H 0.15038 0.3569 0.09161 0.0
H1044 H 0.16425 0.35256 0.14992 0.0
O1045 O 0.19998 0.32578 0.13812 0.0
O1046 O 0.20917 0.32425 0.02847 0.0
H1047 H 0.17782 0.35712 0.84235 0.0
H1048 H 0.17627 0.33983 0.82123 0.0
C1049 C 0.18073 0.34698 0.86011 0.0
H1050 H 0.1917 0.34614 0.85791 0.0
H1051 H 0.21768 0.33101 0.88136 0.0
O1052 O 0.17192 0.32827 0.21043 0.0
C1053 C 0.21018 0.32605 0.09693 0.0
Co1054 Co 0.42383 0.43488 0.86126 0.0
Co1055 Co 0.43067 0.44586 0.70818 0.0
C1056 C 0.45122 0.43237 0.80092 0.0
O1057 O 0.44279 0.42985 0.85079 0.0
O1058 O 0.44785 0.43864 0.74347 0.0
C1059 C 0.42345 0.41846 0.98747 0.0
O1060 O 0.43145 0.41052 0.95111 0.0
C1061 C 0.4393 0.44384 0.55759 0.0
C1062 C 0.42584 0.45814 0.50351 0.0
C1063 C 0.43485 0.44798 0.4896 0.0
N1064 N 0.43261 0.45065 0.60882 0.0
N1065 N 0.42497 0.45955 0.57632 0.0
C1066 C 0.44938 0.4333 0.57456 0.0
H1067 H 0.44436 0.42455 0.59937 0.0
H1068 H 0.45501 0.43025 0.52524 0.0
H1069 H 0.4566 0.43723 0.61477 0.0
C1070 C 0.40288 0.42053 0.77829 0.0
N1071 N 0.41344 0.42878 0.78259 0.0
N1072 N 0.41651 0.43311 0.71696 0.0
C1073 C 0.40806 0.42757 0.66845 0.0
C1074 C 0.39905 0.41954 0.70568 0.0
C1075 C 0.3963 0.41431 0.84314 0.0
H1076 H 0.39519 0.42182 0.88705 0.0
H1077 H 0.40273 0.40619 0.86426 0.0
H1078 H 0.38639 0.41018 0.82915 0.0
O1079 O 0.42251 0.45441 0.87321 0.0
O1080 O 0.42653 0.46239 0.76271 0.0
H1081 H 0.40676 0.43956 0.57223 0.0
H1082 H 0.40236 0.42234 0.55757 0.0
C1083 C 0.40911 0.42914 0.58741 0.0
H1084 H 0.41937 0.42679 0.57011 0.0
H1085 H 0.41837 0.46583 0.60373 0.0
O1086 O 0.41775 0.42799 0.95462 0.0
C1087 C 0.4237 0.46419 0.82968 0.0
H1088 H 0.19065 0.27699 0.96019 0.0
H1089 H 0.16063 0.28589 0.12352 0.0
H1090 H 0.15561 0.26197 0.13505 0.0
H1091 H 0.17323 0.24814 0.87585 0.0
H1092 H 0.1885 0.23901 0.86317 0.0
H1093 H 0.1886 0.25696 0.86045 0.0
H1094 H 0.20655 0.25737 0.96187 0.0
H1095 H 0.20647 0.23946 0.96508 0.0
H1096 H 0.20339 0.24891 0.04699 0.0
H1097 H 0.15529 0.23727 0.13832 0.0
H1098 H 0.15982 0.21319 0.13381 0.0
H1099 H 0.19016 0.21998 0.96896 0.0
C1100 C 0.18281 0.27392 -0.00292 0.0
C1101 C 0.176 0.28332 0.04075 0.0
C1102 C 0.16599 0.27888 0.08953 0.0
C1103 C 0.16301 0.26532 0.09625 0.0
C1104 C 0.17011 0.25629 0.05373 0.0
C1105 C 0.17977 0.26037 0.00488 0.0
C1106 C 0.18665 0.24852 0.97017 0.0
C1107 C 0.18409 0.24814 0.8875 0.0
C1108 C 0.20165 0.24857 0.98708 0.0
C1109 C 0.17961 0.23718 0.00879 0.0
C1110 C 0.16999 0.2419 0.05604 0.0
C1111 C 0.16268 0.23342 0.10086 0.0
C1112 C 0.16536 0.21975 0.09805 0.0
C1113 C 0.17533 0.21466 0.05096 0.0
C1114 C 0.18238 0.22352 0.00495 0.0
H1115 H 0.03048 0.93934 0.22165 0.0
H1116 H 0.03759 0.90801 0.38049 0.0
H1117 H 0.01358 0.90302 0.38303 0.0
H1118 H 1.00148 0.95151 0.30132 0.0
H1119 H 0.99312 0.95524 0.21675 0.0
H1120 H 0.011 0.95529 0.22045 0.0
H1121 H 0.01187 0.93811 0.11504 0.0
H1122 H 0.99394 0.93801 0.11098 0.0
H1123 H 0.00291 0.92264 0.12359 0.0
H1124 H 0.98878 0.90279 0.37744 0.0
H1125 H 0.96484 0.90765 0.36604 0.0
H1126 H 0.97373 0.93909 0.21053 0.0
C1127 C 0.02704 0.93124 0.25586 0.0
C1128 C 0.03595 0.92403 0.30062 0.0
C1129 C 0.03098 0.91367 0.34562 0.0
C1130 C 0.01735 0.91071 0.34721 0.0
C1131 C 0.00883 0.91815 0.3033 0.0
C1132 C 0.01346 0.92818 0.25831 0.0
C1133 C 0.00209 0.93535 0.22081 0.0
C1134 C 0.00191 0.95022 0.24109 0.0
C1135 C 0.00274 0.93341 0.13767 0.0
C1136 C 0.99032 0.92803 0.25344 0.0
C1137 C 0.99444 0.91804 0.30016 0.0
C1138 C 0.98542 0.91047 0.34026 0.0
C1139 C 0.97183 0.91333 0.33351 0.0
C1140 C 0.96738 0.92372 0.28719 0.0
C1141 C 0.97678 0.93096 0.24559 0.0
H1142 H 0.32428 0.77917 0.59228 0.0
H1143 H 0.30848 0.78505 0.37386 0.0
H1144 H 0.30809 0.76083 0.35509 0.0
H1145 H 0.34505 0.75008 0.54856 0.0
H1146 H 0.34151 0.74191 0.634 0.0
H1147 H 0.34155 0.75983 0.6289 0.0
H1148 H 0.31757 0.76038 0.6807 0.0
H1149 H 0.31743 0.74248 0.68569 0.0
H1150 H 0.30464 0.75109 0.63538 0.0
H1151 H 0.30785 0.73621 0.36195 0.0
H1152 H 0.30817 0.7124 0.39358 0.0
H1153 H 0.32424 0.72205 0.60723 0.0
C1154 C 0.32093 0.77537 0.54014 0.0
C1155 C 0.31647 0.78406 0.48448 0.0
C1156 C 0.31199 0.77865 0.41735 0.0
C1157 C 0.31174 0.76488 0.40601 0.0
C1158 C 0.31601 0.75661 0.46221 0.0
C1159 C 0.32057 0.7616 0.52786 0.0
C1160 C 0.32401 0.75042 0.58026 0.0
C1161 C 0.33892 0.75057 0.59901 0.0
C1162 C 0.3154 0.75114 0.64959 0.0
C1163 C 0.32044 0.73841 0.53408 0.0
C1164 C 0.31591 0.74225 0.46609 0.0
C1165 C 0.31152 0.73305 0.41472 0.0
C1166 C 0.31172 0.71953 0.43332 0.0
C1167 C 0.31631 0.71531 0.50271 0.0
C1168 C 0.3208 0.72492 0.55347 0.0
H1169 H 0.47313 0.06384 0.73521 0.0
H1170 H 0.46564 0.08967 0.9209 0.0
H1171 H 0.48972 0.09386 0.93223 0.0
H1172 H 0.50201 0.04874 0.80552 0.0
H1173 H 0.51055 0.04783 0.71914 0.0
H1174 H 0.49266 0.04769 0.72176 0.0
H1175 H 0.49202 0.06803 0.63469 0.0
H1176 H 0.50994 0.06823 0.63181 0.0
H1177 H 0.50095 0.08296 0.65875 0.0
H1178 H 0.51461 0.09415 0.92863 0.0
H1179 H 0.53863 0.0903 0.91105 0.0
H1180 H 0.52995 0.06436 0.7275 0.0
C1181 C 0.47651 0.07053 0.77767 0.0
C1182 C 0.46745 0.07645 0.82703 0.0
C1183 C 0.47235 0.08501 0.88234 0.0
C1184 C 0.48602 0.0875 0.88913 0.0
C1185 C 0.49467 0.08139 0.84008 0.0
C1186 C 0.49013 0.07311 0.78532 0.0
C1187 C 0.50157 0.06727 0.74204 0.0
C1188 C 0.5017 0.05198 0.74749 0.0
C1189 C 0.50109 0.07191 0.66208 0.0
C1190 C 0.51327 0.07337 0.78199 0.0
C1191 C 0.50907 0.08156 0.83798 0.0
C1192 C 0.51803 0.08785 0.88453 0.0
C1193 C 0.53167 0.08558 0.87416 0.0
C1194 C 0.53622 0.07706 0.81775 0.0
C1195 C 0.52684 0.07105 0.77059 0.0
H1196 H 0.19275 0.7245 0.01129 0.0
H1197 H 0.16425 0.71539 0.84026 0.0
H1198 H 0.15987 0.73928 0.82377 0.0
H1199 H 0.17486 0.75345 0.08698 0.0
H1200 H 0.18994 0.76266 0.1039 0.0
H1201 H 0.19009 0.74472 0.10725 0.0
H1202 H 0.20902 0.74427 0.01124 0.0
H1203 H 0.2089 0.76218 0.00749 0.0
H1204 H 0.2067 0.75264 0.92509 0.0
H1205 H 0.15953 0.76391 0.81925 0.0
H1206 H 0.16338 0.78805 0.82645 0.0
H1207 H 0.19216 0.7817 -3e-05 0.0
C1208 C 0.18544 0.72753 0.97119 0.0
C1209 C 0.17883 0.71803 0.92717 0.0
C1210 C 0.16947 0.72243 0.87459 0.0
C1211 C 0.16686 0.736 0.86493 0.0
C1212 C 0.17367 0.74509 0.90827 0.0
C1213 C 0.18275 0.74109 0.96048 0.0
C1214 C 0.18921 0.75303 -0.00319 0.0
C1215 C 0.18582 0.75349 0.07859 0.0
C1216 C 0.20435 0.75303 0.98438 0.0
C1217 C 0.18253 0.76431 0.95572 0.0
C1218 C 0.17352 0.75947 0.90541 0.0
C1219 C 0.16647 0.76785 0.85886 0.0
C1220 C 0.16877 0.78157 0.86329 0.0
C1221 C 0.17807 0.78682 0.9138 0.0
C1222 C 0.18491 0.77803 0.96117 0.0
H1223 H 0.53039 0.92803 0.15626 0.0
H1224 H 0.5382 0.94727 0.36428 0.0
H1225 H 0.51423 0.9482 0.38909 0.0
H1226 H 0.50229 0.94739 0.11115 0.0
H1227 H 0.49304 0.93404 0.06932 0.0
H1228 H 0.51094 0.93358 0.06987 0.0
H1229 H 0.5104 0.9105 0.13297 0.0
H1230 H 0.49247 0.91086 0.13235 0.0
H1231 H 0.50128 0.90847 0.21702 0.0
H1232 H 0.48978 0.94875 0.3886 0.0
H1233 H 0.46582 0.94867 0.36346 0.0
H1234 H 0.4731 0.92907 0.15572 0.0
C1235 C 0.52705 0.93222 0.20755 0.0
C1236 C 0.53623 0.93748 0.25853 0.0
C1237 C 0.53143 0.94309 0.32448 0.0
C1238 C 0.5178 0.94367 0.33923 0.0
C1239 C 0.50904 0.93861 0.28755 0.0
C1240 C 0.5134 0.93295 0.22312 0.0
C1241 C 0.50173 0.92895 0.17537 0.0
C1242 C 0.50202 0.93644 0.10211 0.0
C1243 C 0.50145 0.91379 0.16377 0.0
C1244 C 0.49018 0.93349 0.22264 0.0
C1245 C 0.49469 0.93894 0.28725 0.0
C1246 C 0.48608 0.94436 0.33864 0.0
C1247 C 0.47245 0.94426 0.3237 0.0
C1248 C 0.46749 0.93875 0.25785 0.0
C1249 C 0.47653 0.93322 0.20689 0.0
H1250 H 0.31543 0.22442 0.5115 0.0
H1251 H 0.34134 0.21541 0.3283 0.0
H1252 H 0.34588 0.23935 0.31229 0.0
H1253 H 0.30058 0.25245 0.43361 0.0
H1254 H 0.29946 0.26189 0.51703 0.0
H1255 H 0.29947 0.24399 0.52022 0.0
H1256 H 0.31966 0.24439 0.60803 0.0
H1257 H 0.3197 0.26233 0.60532 0.0
H1258 H 0.33454 0.25321 0.58185 0.0
H1259 H 0.34613 0.26413 0.30893 0.0
H1260 H 0.34191 0.28823 0.31762 0.0
H1261 H 0.31568 0.28137 0.50243 0.0
C1262 C 0.32227 0.22746 0.46897 0.0
C1263 C 0.32807 0.21802 0.42134 0.0
C1264 C 0.33679 0.22244 0.36553 0.0
C1265 C 0.33948 0.23602 0.35613 0.0
C1266 C 0.33339 0.24507 0.40303 0.0
C1267 C 0.325 0.241 0.45851 0.0
C1268 C 0.319 0.25284 0.49787 0.0
C1269 C 0.30373 0.25278 0.49177 0.0
C1270 C 0.3235 0.25321 0.57802 0.0
C1271 C 0.32506 0.26418 0.45458 0.0
C1272 C 0.33345 0.25947 0.40071 0.0
C1273 C 0.3397 0.26797 0.35141 0.0
C1274 C 0.3372 0.28165 0.35672 0.0
C1275 C 0.32847 0.28673 0.41077 0.0
C1276 C 0.32249 0.27784 0.46091 0.0
H1277 H 0.97377 0.06967 0.78409 0.0
H1278 H 0.96392 0.08914 0.57938 0.0
H1279 H 0.98776 0.09361 0.55809 0.0
H1280 H 0.00247 0.09127 0.83305 0.0
H1281 H 0.01165 0.07741 0.87017 0.0
H1282 H 0.99373 0.07751 0.87424 0.0
H1283 H 0.99313 0.05471 0.80819 0.0
H1284 H 0.011 0.05457 0.80346 0.0
H1285 H 1.00132 0.05293 0.72114 0.0
H1286 H 0.01277 0.09357 0.55216 0.0
H1287 H 0.03685 0.08916 0.56251 0.0
H1288 H 0.03019 0.06968 0.77111 0.0
C1289 C 0.97655 0.07518 0.73564 0.0
C1290 C 0.96693 0.0791 0.68359 0.0
C1291 C 0.97108 0.08608 0.62028 0.0
C1292 C 0.98461 0.0887 0.60775 0.0
C1293 C 0.99385 0.08436 0.65925 0.0
C1294 C 0.98997 0.07784 0.72223 0.0
C1295 C 0.00188 0.0732 0.76595 0.0
C1296 C 0.00246 0.08027 0.84026 0.0
C1297 C 0.00182 0.05795 0.77516 0.0
C1298 C 0.01306 0.07772 0.71651 0.0
C1299 C 0.00825 0.08429 0.65571 0.0
C1300 C 0.01667 0.08862 0.60009 0.0
C1301 C 0.03034 0.08604 0.60639 0.0
C1302 C 0.03544 0.0791 0.6677 0.0
C1303 C 0.02666 0.07512 0.72387 0.0
H1304 H 0.82478 0.72396 0.8856 0.0
H1305 H 0.80843 0.7157 0.10052 0.0
H1306 H 0.80781 0.73975 0.12658 0.0
H1307 H 0.84528 0.75242 0.93894 0.0
H1308 H 0.84193 0.76149 0.856 0.0
H1309 H 0.84192 0.74354 0.85548 0.0
H1310 H 0.81803 0.74357 0.80241 0.0
H1311 H 0.81797 0.76149 0.80278 0.0
H1312 H 0.80505 0.75245 0.84973 0.0
H1313 H 0.80783 0.76449 0.12759 0.0
H1314 H 0.80826 0.78856 0.10334 0.0
H1315 H 0.8246 0.7811 0.88755 0.0
C1316 C 0.82121 0.72718 0.93849 0.0
C1317 C 0.81671 0.7179 0.99116 0.0
C1318 C 0.81197 0.72258 0.05934 0.0
C1319 C 0.81159 0.73623 0.07476 0.0
C1320 C 0.816 0.7451 0.02151 0.0
C1321 C 0.82072 0.7408 0.95476 0.0
C1322 C 0.82431 0.75248 0.90603 0.0
C1323 C 0.83925 0.75248 0.88808 0.0
C1324 C 0.81583 0.75249 0.83612 0.0
C1325 C 0.82068 0.76401 0.95556 0.0
C1326 C 0.81599 0.75949 0.02203 0.0
C1327 C 0.81159 0.76817 0.07601 0.0
C1328 C 0.81187 0.78185 0.06157 0.0
C1329 C 0.81653 0.78678 0.99361 0.0
C1330 C 0.8211 0.77768 0.94025 0.0
H1331 H 0.68915 0.28386 0.48901 0.0
H1332 H 0.65913 0.28955 0.32126 0.0
H1333 H 0.65494 0.26545 0.31917 0.0
H1334 H 0.70286 0.25483 0.41601 0.0
H1335 H 0.70585 0.24667 0.50211 0.0
H1336 H 0.70554 0.26456 0.49736 0.0
H1337 H 0.68725 0.26524 0.59695 0.0
H1338 H 0.68754 0.24732 0.60228 0.0
H1339 H 0.67213 0.25587 0.58415 0.0
H1340 H 0.65557 0.24086 0.32449 0.0
H1341 H 0.66055 0.21701 0.34023 0.0
H1342 H 0.68978 0.22676 0.50624 0.0
C1343 C 0.6815 0.28006 0.45297 0.0
C1344 C 0.67448 0.28864 0.40533 0.0
C1345 C 0.66468 0.28322 0.35824 0.0
C1346 C 0.66218 0.26953 0.35674 0.0
C1347 C 0.66947 0.26133 0.40298 0.0
C1348 C 0.67887 0.26635 0.4507 0.0
C1349 C 0.68587 0.25518 0.49121 0.0
C1350 C 0.70092 0.25532 0.4757 0.0
C1351 C 0.68302 0.25595 0.57354 0.0
C1352 C 0.6792 0.24314 0.45712 0.0
C1353 C 0.66972 0.24696 0.40675 0.0
C1354 C 0.66283 0.23772 0.36459 0.0
C1355 C 0.66577 0.2242 0.3737 0.0
C1356 C 0.67549 0.22002 0.42473 0.0
C1357 C 0.68215 0.22964 0.46765 0.0
H1358 H 0.81535 0.21938 0.98975 0.0
H1359 H 0.84119 0.21413 0.17763 0.0
H1360 H 0.84486 0.23835 0.18247 0.0
H1361 H 0.83391 0.24734 0.90684 0.0
H1362 H 0.81895 0.25567 0.87756 0.0
H1363 H 0.81932 0.23776 0.88413 0.0
H1364 H 0.79886 0.23837 0.97013 0.0
H1365 H 0.79845 0.25625 0.96408 0.0
H1366 H 0.79951 0.24828 0.05208 0.0
H1367 H 0.84421 0.26302 0.17458 0.0
H1368 H 0.83957 0.28676 0.15318 0.0
H1369 H 0.81433 0.27635 0.96944 0.0
C1370 C 0.82196 0.22329 0.03118 0.0
C1371 C 0.82799 0.21481 0.08329 0.0
C1372 C 0.83646 0.22038 0.13706 0.0
C1373 C 0.83864 0.23414 0.14019 0.0
C1374 C 0.83236 0.24222 0.08896 0.0
C1375 C 0.82425 0.23703 0.03517 0.0
C1376 C 0.81811 0.24802 0.98938 0.0
C1377 C 0.82286 0.24715 0.90975 0.0
C1378 C 0.80283 0.24771 0.99426 0.0
C1379 C 0.82378 0.26019 0.02711 0.0
C1380 C 0.83205 0.25658 0.08405 0.0
C1381 C 0.83789 0.26599 0.1296 0.0
C1382 C 0.83514 0.27946 0.1171 0.0
C1383 C 0.82662 0.28344 0.05945 0.0
C1384 C 0.82102 0.27364 0.01334 0.0
H1385 H 0.68002 0.7217 0.5996 0.0
H1386 H 0.69742 0.71476 0.38579 0.0
H1387 H 0.69728 0.73885 0.3618 0.0
H1388 H 0.65882 0.74987 0.54642 0.0
H1389 H 0.66165 0.75875 0.63045 0.0
H1390 H 0.66213 0.74081 0.62944 0.0
H1391 H 0.68582 0.7413 0.68502 0.0
H1392 H 0.68542 0.75922 0.68615 0.0
H1393 H 0.69873 0.75066 0.63982 0.0
H1394 H 0.69653 0.76348 0.36258 0.0
H1395 H 0.69545 0.78748 0.38877 0.0
H1396 H 0.67868 0.77895 0.6024 0.0
C1397 C 0.68363 0.72524 0.54737 0.0
C1398 C 0.68865 0.71629 0.49444 0.0
C1399 C 0.69347 0.72136 0.42717 0.0
C1400 C 0.69341 0.73505 0.41287 0.0
C1401 C 0.68853 0.74358 0.46632 0.0
C1402 C 0.68372 0.73893 0.53223 0.0
C1403 C 0.67967 0.75037 0.58152 0.0
C1404 C 0.66468 0.74992 0.5979 0.0
C1405 C 0.6879 0.75038 0.6523 0.0
C1406 C 0.68316 0.76216 0.53331 0.0
C1407 C 0.68817 0.75796 0.46695 0.0
C1408 C 0.69255 0.76691 0.41413 0.0
C1409 C 0.69193 0.78053 0.4297 0.0
C1410 C 0.68698 0.78512 0.49765 0.0
C1411 C 0.6824 0.77577 0.54973 0.0
H1412 H 0.47266 0.43962 0.71707 0.0
H1413 H 0.46184 0.41713 0.9108 0.0
H1414 H 0.48559 0.41253 0.93416 0.0
H1415 H 0.50093 0.41869 0.66191 0.0
H1416 H 0.51057 0.4328 0.63173 0.0
H1417 H 0.49267 0.43329 0.62689 0.0
H1418 H 0.49258 0.45498 0.70348 0.0
H1419 H 0.51045 0.45452 0.7089 0.0
H1420 H 0.50066 0.45516 0.79131 0.0
H1421 H 0.51056 0.41176 0.9412 0.0
H1422 H 0.53485 0.41475 0.93116 0.0
H1423 H 0.52924 0.43775 0.73262 0.0
C1424 C 0.47522 0.43349 0.76361 0.0
C1425 C 0.46535 0.42866 0.8118 0.0
C1426 C 0.46921 0.42091 0.87291 0.0
C1427 C 0.48268 0.41822 0.88659 0.0
C1428 C 0.49215 0.42331 0.83855 0.0
C1429 C 0.4886 0.43073 0.77811 0.0
C1430 C 0.50073 0.43567 0.73719 0.0
C1431 C 0.50125 0.42976 0.65985 0.0
C1432 C 0.50112 0.45099 0.73515 0.0
C1433 C 0.51168 0.43008 0.78484 0.0
C1434 C 0.50653 0.4229 0.84272 0.0
C1435 C 0.51471 0.41724 0.8957 0.0
C1436 C 0.5285 0.41903 0.88956 0.0
C1437 C 0.53399 0.42645 0.83096 0.0
C1438 C 0.52541 0.43193 0.77772 0.0
H1439 H 0.03104 0.57369 0.35228 0.0
H1440 H 0.03805 0.5563 0.13855 0.0
H1441 H 0.01392 0.55568 0.1163 0.0
H1442 H 0.00265 0.55443 0.39558 0.0
H1443 H 0.99388 0.56766 0.44144 0.0
H1444 H 0.01179 0.56765 0.43928 0.0
H1445 H 0.01168 0.59124 0.38184 0.0
H1446 H 0.99376 0.59134 0.38404 0.0
H1447 H 0.0024 0.59417 0.2992 0.0
H1448 H 0.98921 0.55562 0.11935 0.0
H1449 H 0.96525 0.55645 0.14702 0.0
H1450 H 0.97398 0.57406 0.35822 0.0
C1451 C 0.02751 0.56991 0.30044 0.0
C1452 C 0.03647 0.56504 0.24723 0.0
C1453 C 0.03142 0.56005 0.18035 0.0
C1454 C 0.01771 0.55969 0.16701 0.0
C1455 C 0.00916 0.56438 0.2209 0.0
C1456 C 0.01382 0.56945 0.28616 0.0
C1457 C 0.00242 0.57337 0.33588 0.0
C1458 C 0.00271 0.56529 0.40725 0.0
C1459 C 0.00258 0.58843 0.35111 0.0
C1460 C 0.99065 0.56952 0.2887 0.0
C1461 C 0.99479 0.56441 0.2225 0.0
C1462 C 0.98582 0.55971 0.17072 0.0
C1463 C 0.97222 0.56021 0.18707 0.0
C1464 C 0.96769 0.56537 0.25466 0.0
C1465 C 0.97709 0.57017 0.3058 0.0
H1466 H 0.03161 0.43006 0.67078 0.0
H1467 H 0.03783 0.45083 0.87593 0.0
H1468 H 0.01365 0.45155 0.89584 0.0
H1469 H 0.00329 0.44859 0.61643 0.0
H1470 H 0.99477 0.43468 0.57553 0.0
H1471 H 0.01266 0.43485 0.57943 0.0
H1472 H 0.01247 0.41215 0.6467 0.0
H1473 H 0.99456 0.41189 0.64288 0.0
H1474 H 0.00293 0.41034 0.72946 0.0
H1475 H 0.98888 0.45111 0.8913 0.0
H1476 H 0.96502 0.44965 0.86199 0.0
H1477 H 0.97461 0.42934 0.6593 0.0
C1478 C 0.02792 0.43461 0.72035 0.0
C1479 C 0.03671 0.44026 0.77211 0.0
C1480 C 0.03139 0.44629 0.83575 0.0
C1481 C 0.01763 0.44677 0.84761 0.0
C1482 C 0.00927 0.44122 0.79534 0.0
C1483 C 0.01418 0.43524 0.73298 0.0
C1484 C 0.00296 0.43055 0.68402 0.0
C1485 C 0.00346 0.43759 0.60945 0.0
C1486 C 0.00325 0.41533 0.67528 0.0
C1487 C 0.991 0.43499 0.72825 0.0
C1488 C 0.99489 0.44104 0.79246 0.0
C1489 C 0.98569 0.44629 0.84145 0.0
C1490 C 0.97214 0.4454 0.82425 0.0
C1491 C 0.96788 0.43931 0.75848 0.0
C1492 C 0.9775 0.43398 0.71022 0.0
H1493 H 0.4745 0.5611 0.26405 0.0
H1494 H 0.47036 0.5961 0.12653 0.0
H1495 H 0.49451 0.59985 0.13311 0.0
H1496 H 0.5023 0.57395 0.37862 0.0
H1497 H 0.51042 0.55796 0.38203 0.0
H1498 H 0.49255 0.5589 0.37483 0.0
H1499 H 0.49333 0.54423 0.25862 0.0
H1500 H 0.51116 0.54327 0.26536 0.0
H1501 H 0.50355 0.54932 0.18266 0.0
H1502 H 0.51894 0.59869 0.14318 0.0
H1503 H 0.54251 0.59248 0.15466 0.0
H1504 H 0.53143 0.55816 0.28561 0.0
C1505 C 0.47865 0.56972 0.23671 0.0
C1506 C 0.47052 0.57834 0.195 0.0
C1507 C 0.47637 0.58935 0.15878 0.0
C1508 C 0.49008 0.59162 0.16249 0.0
C1509 C 0.49785 0.5828 0.20274 0.0
C1510 C 0.49239 0.57208 0.2394 0.0
C1511 C 0.50318 0.56353 0.27358 0.0
C1512 C 0.50204 0.56359 0.35724 0.0
C1513 C 0.50278 0.54925 0.24321 0.0
C1514 C 0.51553 0.5709 0.24835 0.0
C1515 C 0.51216 0.58209 0.20841 0.0
C1516 C 0.52172 0.59007 0.17519 0.0
C1517 C 0.53509 0.58642 0.18184 0.0
C1518 C 0.53883 0.57486 0.22128 0.0
C1519 C 0.5289 0.56716 0.25617 0.0
H1520 H 0.17838 0.16275 0.35205 0.0
H1521 H 0.15148 0.19662 0.3528 0.0
H1522 H 0.15677 0.20065 0.48233 0.0
H1523 H 0.1716 0.15175 0.54198 0.0
H1524 H 0.18871 0.1471 0.55666 0.0
H1525 H 0.18161 0.14602 0.46658 0.0
H1526 H 0.20056 0.161 0.41701 0.0
H1527 H 0.20756 0.16241 0.50708 0.0
H1528 H 0.2032 0.1772 0.45676 0.0
H1529 H 0.16715 0.20283 0.60576 0.0
H1530 H 0.17954 0.20112 0.72135 0.0
H1531 H 0.19912 0.16538 0.64283 0.0
C1532 C 0.17328 0.17078 0.37991 0.0
C1533 C 0.16448 0.17936 0.34211 0.0
C1534 C 0.15821 0.18988 0.38051 0.0
C1535 C 0.1612 0.19229 0.45406 0.0
C1536 C 0.17039 0.18404 0.48858 0.0
C1537 C 0.17615 0.17333 0.45331 0.0
C1538 C 0.18614 0.16634 0.50208 0.0
C1539 C 0.18175 0.15195 0.51776 0.0
C1540 C 0.20019 0.16677 0.46873 0.0
C1541 C 0.18524 0.17492 0.56989 0.0
C1542 C 0.17613 0.1851 0.56074 0.0
C1543 C 0.17402 0.19468 0.61436 0.0
C1544 C 0.18106 0.19358 0.68006 0.0
C1545 C 0.18993 0.18285 0.69216 0.0
C1546 C 0.19226 0.17359 0.63551 0.0
H1547 H 0.07698 0.93558 0.58025 0.0
H1548 H 0.07342 0.89302 0.61473 0.0
H1549 H 0.0732 0.89676 0.74886 0.0
H1550 H 0.09726 0.94371 0.73826 0.0
H1551 H 0.08846 0.95904 0.75544 0.0
H1552 H 0.08978 0.95273 0.6637 0.0
H1553 H 0.06415 0.9534 0.65172 0.0
H1554 H 0.06269 0.95951 0.7437 0.0
H1555 H 0.05403 0.94457 0.7171 0.0
H1556 H 0.07421 0.90536 0.87809 0.0
H1557 H 0.07358 0.9179 0.99291 0.0
H1558 H 0.07308 0.95508 0.87213 0.0
C1559 C 0.07646 0.92702 0.61616 0.0
C1560 C 0.07558 0.91397 0.58794 0.0
C1561 C 0.07433 0.90304 0.63596 0.0
C1562 C 0.07421 0.90509 0.71182 0.0
C1563 C 0.07501 0.91814 0.73787 0.0
C1564 C 0.07594 0.92893 0.69138 0.0
C1565 C 0.07552 0.942 0.73249 0.0
C1566 C 0.08853 0.94983 0.72185 0.0
C1567 C 0.06337 0.95035 0.70991 0.0
C1568 C 0.0742 0.9369 0.80983 0.0
C1569 C 0.07418 0.92313 0.81173 0.0
C1570 C 0.07376 0.91613 0.87712 0.0
C1571 C 0.07311 0.92338 0.9422 0.0
C1572 C 0.07231 0.9375 0.94152 0.0
C1573 C 0.07317 0.9443 0.87429 0.0
H1574 H 0.32609 0.83532 0.80333 0.0
H1575 H 0.3424 0.79526 0.80159 0.0
H1576 H 0.33753 0.79318 0.93315 0.0
H1577 H 0.33655 0.84442 0.9925 0.0
H1578 H 0.32131 0.85345 0.00785 0.0
H1579 H 0.32831 0.85257 0.91739 0.0
H1580 H 0.30592 0.84317 0.86943 0.0
H1581 H 0.29897 0.84366 0.95985 0.0
H1582 H 0.2992 0.82823 0.9097 0.0
H1583 H 0.32751 0.79406 0.05797 0.0
H1584 H 0.31573 0.79897 0.17297 0.0
H1585 H 0.30606 0.83847 0.0931 0.0
C1586 C 0.32906 0.82626 0.83097 0.0
C1587 C 0.3346 0.81544 0.79219 0.0
C1588 C 0.3382 0.80371 0.83028 0.0
C1589 C 0.33542 0.80241 0.90492 0.0
C1590 C 0.32918 0.81297 0.94039 0.0
C1591 C 0.32629 0.82478 0.90506 0.0
C1592 C 0.3186 0.83421 0.95376 0.0
C1593 C 0.32668 0.84691 0.96878 0.0
C1594 C 0.30487 0.8375 0.92122 0.0
C1595 C 0.31732 0.82573 0.02149 0.0
C1596 C 0.32352 0.81353 0.01275 0.0
C1597 C 0.32297 0.80371 0.06628 0.0
C1598 C 0.31629 0.8066 0.13138 0.0
C1599 C 0.31035 0.81923 0.14245 0.0
C1600 C 0.31065 0.82879 0.08621 0.0
H1601 H 0.42554 0.06761 0.08974 0.0
H1602 H 0.42968 0.11026 0.11909 0.0
H1603 H 0.43123 0.10688 0.25331 0.0
H1604 H 0.40675 0.06007 0.25249 0.0
H1605 H 0.41558 0.04474 0.26908 0.0
H1606 H 0.4136 0.05077 0.17715 0.0
H1607 H 0.43914 0.04998 0.15903 0.0
H1608 H 0.44125 0.04406 0.25108 0.0
H1609 H 0.44979 0.05889 0.22132 0.0
H1610 H 0.43129 0.09856 0.38375 0.0
H1611 H 0.43216 0.08628 0.49924 0.0
H1612 H 0.43139 0.04883 0.38111 0.0
C1613 C 0.42648 0.07628 0.12455 0.0
C1614 C 0.42714 0.08925 0.09491 0.0
C1615 C 0.42893 0.1003 0.14148 0.0
C1616 C 0.42983 0.09845 0.21736 0.0
C1617 C 0.42925 0.08548 0.24475 0.0
C1618 C 0.42778 0.07459 0.19956 0.0
C1619 C 0.42844 0.06162 0.24149 0.0
C1620 C 0.41531 0.05385 0.23465 0.0
C1621 C 0.44037 0.05314 0.21675 0.0
C1622 C 0.43041 0.06689 0.31788 0.0
C1623 C 0.43067 0.08066 0.31872 0.0
C1624 C 0.43157 0.08779 0.3835 0.0
C1625 C 0.43237 0.08066 0.44903 0.0
C1626 C 0.43278 0.06652 0.44927 0.0
C1627 C 0.43159 0.05961 0.3826 0.0
H1628 H 0.17755 0.83959 0.61943 0.0
H1629 H 0.15234 0.80446 0.62181 0.0
H1630 H 0.15764 0.80045 0.49224 0.0
H1631 H 0.17005 0.84984 0.4287 0.0
H1632 H 0.1869 0.85529 0.41328 0.0
H1633 H 0.17979 0.85625 0.50343 0.0
H1634 H 0.19949 0.84235 0.55369 0.0
H1635 H 0.20651 0.84108 0.46358 0.0
H1636 H 0.20291 0.82621 0.51506 0.0
H1637 H 0.16807 0.79848 0.36864 0.0
H1638 H 0.18045 0.80044 0.25301 0.0
H1639 H 0.19828 0.83727 0.32873 0.0
C1640 C 0.17281 0.83128 0.59225 0.0
C1641 C 0.16451 0.82234 0.63096 0.0
C1642 C 0.15868 0.81148 0.59339 0.0
C1643 C 0.16169 0.80907 0.51983 0.0
C1644 C 0.17043 0.8177 0.48442 0.0
C1645 C 0.1757 0.82873 0.51885 0.0
C1646 C 0.18531 0.83609 0.46937 0.0
C1647 C 0.1802 0.85021 0.4527 0.0
C1648 C 0.19938 0.83645 0.50242 0.0
C1649 C 0.1848 0.82731 0.40224 0.0
C1650 C 0.17618 0.81674 0.4122 0.0
C1651 C 0.17455 0.80692 0.35937 0.0
C1652 C 0.18158 0.80817 0.29364 0.0
C1653 C 0.18997 0.81925 0.28077 0.0
C1654 C 0.19181 0.82877 0.33662 0.0
H1655 H 0.42934 0.90896 0.85663 0.0
H1656 H 0.42285 0.94289 -0.00223 0.0
H1657 H 0.41964 0.95725 0.88975 0.0
H1658 H 0.44757 0.9254 0.71818 0.0
H1659 H 0.44002 0.91625 0.64443 0.0
H1660 H 0.44147 0.90874 0.73331 0.0
H1661 H 0.41602 0.90449 0.73601 0.0
H1662 H 0.41451 0.91189 0.64684 0.0
H1663 H 0.40475 0.91821 0.72174 0.0
H1664 H 0.41859 0.96811 0.76259 0.0
H1665 H 0.41841 0.97398 0.63121 0.0
H1666 H 0.42374 0.93229 0.5768 0.0
C1667 C 0.42729 0.91943 0.86522 0.0
C1668 C 0.42659 0.92488 0.93627 0.0
C1669 C 0.42375 0.93859 0.94436 0.0
C1670 C 0.42191 0.94681 0.88302 0.0
C1671 C 0.42293 0.94113 0.81376 0.0
C1672 C 0.4254 0.9277 0.80481 0.0
C1673 C 0.42583 0.92388 0.72503 0.0
C1674 C 0.43954 0.91824 0.70404 0.0
C1675 C 0.41461 0.91404 0.70633 0.0
C1676 C 0.42348 0.93732 0.69017 0.0
C1677 C 0.42185 0.94718 0.74191 0.0
C1678 C 0.41989 0.96044 0.72184 0.0
C1679 C 0.41978 0.96368 0.64711 0.0
C1680 C 0.42159 0.95369 0.59341 0.0
C1681 C 0.42308 0.94032 0.61582 0.0
H1682 H 0.30789 0.16845 0.84547 0.0
H1683 H 0.32835 0.20441 0.77736 0.0
H1684 H 0.34091 0.20454 0.8931 0.0
H1685 H 0.30358 0.17834 0.02969 0.0
H1686 H 0.30568 0.16178 0.06575 0.0
H1687 H 0.29931 0.16406 0.97492 0.0
H1688 H 0.31816 0.14894 0.92474 0.0
H1689 H 0.32475 0.14686 0.01552 0.0
H1690 H 0.33527 0.1531 0.94351 0.0
H1691 H 0.3505 0.20125 0.01828 0.0
H1692 H 0.35403 0.19667 0.14919 0.0
H1693 H 0.32699 0.16304 0.13538 0.0
C1694 C 0.31502 0.17635 0.85487 0.0
C1695 C 0.31744 0.1862 0.80167 0.0
C1696 C 0.32671 0.19647 0.81628 0.0
C1697 C 0.33387 0.19664 0.88191 0.0
C1698 C 0.33154 0.18653 0.93235 0.0
C1699 C 0.32219 0.17669 0.92003 0.0
C1700 C 0.32078 0.16757 0.98521 0.0
C1701 C 0.3065 0.16797 0.01569 0.0
C1702 C 0.32499 0.15327 0.96607 0.0
C1703 C 0.33059 0.174 0.03683 0.0
C1704 C 0.33687 0.18478 0.00498 0.0
C1705 C 0.34573 0.19276 0.0437 0.0
C1706 C 0.34774 0.19004 0.11795 0.0
C1707 C 0.34076 0.17952 0.15252 0.0
C1708 C 0.33254 0.1711 0.11045 0.0
H1709 H 0.09051 0.07687 0.37801 0.0
H1710 H 0.05743 0.10455 0.39212 0.0
H1711 H 0.05296 0.10132 0.26091 0.0
H1712 H 0.10072 0.08524 0.18578 0.0
H1713 H 0.10464 0.06806 0.16724 0.0
H1714 H 0.10677 0.07464 0.25798 0.0
H1715 H 0.09167 0.05583 0.30833 0.0
H1716 H 0.08915 0.04941 0.21784 0.0
H1717 H 0.07503 0.05399 0.27305 0.0
H1718 H 0.04954 0.09189 0.13563 0.0
H1719 H 0.04934 0.07925 0.0201 0.0
H1720 H 0.08482 0.058 0.08804 0.0
C1721 C 0.08262 0.08263 0.35304 0.0
C1722 C 0.07429 0.09093 0.39527 0.0
C1723 C 0.06399 0.09819 0.36073 0.0
C1724 C 0.06133 0.09638 0.28629 0.0
C1725 C 0.0692 0.08743 0.24735 0.0
C1726 C 0.07983 0.0809 0.27914 0.0
C1727 C 0.08604 0.07096 0.2274 0.0
C1728 C 0.10039 0.07497 0.20846 0.0
C1729 C 0.08543 0.05671 0.25854 0.0
C1730 C 0.07693 0.07253 0.16246 0.0
C1731 C 0.06733 0.08213 0.17474 0.0
C1732 C 0.05726 0.08466 0.12443 0.0
C1733 C 0.05724 0.07745 0.05895 0.0
C1734 C 0.06728 0.06793 0.0444 0.0
C1735 C 0.0771 0.06533 0.09742 0.0
H1736 H 0.82657 0.83712 0.66746 0.0
H1737 H 0.84141 0.7965 0.66633 0.0
H1738 H 0.83669 0.79501 0.5344 0.0
H1739 H 0.7996 0.83126 0.55975 0.0
H1740 H 0.79993 0.84685 0.51105 0.0
H1741 H 0.80675 0.84584 0.6016 0.0
H1742 H 0.82949 0.85465 0.55512 0.0
H1743 H 0.82264 0.85605 0.46455 0.0
H1744 H 0.83756 0.84647 0.47953 0.0
H1745 H 0.82697 0.79667 0.40928 0.0
H1746 H 0.81548 0.80232 0.29444 0.0
H1747 H 0.80695 0.84184 0.37756 0.0
C1748 C 0.82926 0.82805 0.63915 0.0
C1749 C 0.83434 0.81691 0.67718 0.0
C1750 C 0.83757 0.80518 0.63823 0.0
C1751 C 0.83487 0.80422 0.56337 0.0
C1752 C 0.82907 0.81512 0.5286 0.0
C1753 C 0.82654 0.8269 0.56487 0.0
C1754 C 0.81924 0.83674 0.51682 0.0
C1755 C 0.80558 0.84038 0.54926 0.0
C1756 C 0.82775 0.84922 0.50318 0.0
C1757 C 0.81775 0.82853 0.4483 0.0
C1758 C 0.82354 0.81611 0.45613 0.0
C1759 C 0.82275 0.80649 0.40173 0.0
C1760 C 0.81623 0.8098 0.33674 0.0
C1761 C 0.81069 0.82263 0.32672 0.0
C1762 C 0.81124 0.832 0.38374 0.0
H1763 H 0.93069 0.07384 0.05436 0.0
H1764 H 0.94405 0.03407 0.10887 0.0
H1765 H 0.94246 0.03957 0.24073 0.0
H1766 H 0.94692 0.09167 0.20639 0.0
H1767 H 0.93295 0.10275 0.21723 0.0
H1768 H 0.93683 0.09602 0.12859 0.0
H1769 H 0.91284 0.08672 0.1185 0.0
H1770 H 0.90892 0.09331 0.20718 0.0
H1771 H 0.90661 0.07583 0.1889 0.0
H1772 H 0.93811 0.04952 0.36828 0.0
H1773 H 0.93019 0.06225 0.47581 0.0
H1774 H 0.91907 0.09491 0.3335 0.0
C1775 C 0.93381 0.06647 0.09391 0.0
C1776 C 0.93798 0.0537 0.07157 0.0
C1777 C 0.94116 0.04403 0.12512 0.0
C1778 C 0.94028 0.04707 0.19999 0.0
C1779 C 0.93607 0.0598 0.22026 0.0
C1780 C 0.93288 0.06931 0.16843 0.0
C1781 C 0.92745 0.08181 0.20336 0.0
C1782 C 0.93658 0.09377 0.18799 0.0
C1783 C 0.91311 0.08457 0.17799 0.0
C1784 C 0.92789 0.07783 0.28294 0.0
C1785 C 0.93304 0.06519 0.29216 0.0
C1786 C 0.93406 0.05942 0.36141 0.0
C1787 C 0.92953 0.0667 0.42232 0.0
C1788 C 0.92387 0.07951 0.41339 0.0
C1789 C 0.92328 0.08512 0.34264 0.0
H1790 H 0.67418 0.16446 0.13751 0.0
H1791 H 0.64942 0.19974 0.15455 0.0
H1792 H 0.65241 0.2039 0.02284 0.0
H1793 H 0.69776 0.17789 0.0309 0.0
H1794 H 0.70099 0.16351 0.97477 0.0
H1795 H 0.69459 0.16138 0.06563 0.0
H1796 H 0.67445 0.14803 0.01623 0.0
H1797 H 0.68099 0.14974 0.92505 0.0
H1798 H 0.66426 0.15508 0.94509 0.0
H1799 H 0.66179 0.2067 0.89709 0.0
H1800 H 0.67442 0.20621 0.78149 0.0
H1801 H 0.69279 0.16897 0.84676 0.0
C1802 C 0.66896 0.17278 0.11305 0.0
C1803 C 0.6616 0.1818 0.15617 0.0
C1804 C 0.65504 0.19265 0.12241 0.0
C1805 C 0.65673 0.19513 0.04768 0.0
C1806 C 0.66482 0.18654 0.00771 0.0
C1807 C 0.67056 0.17539 0.03884 0.0
C1808 C 0.67982 0.16843 0.98615 0.0
C1809 C 0.69413 0.16778 0.01618 0.0
C1810 C 0.67456 0.15449 0.96698 0.0
C1811 C 0.67888 0.17775 0.92169 0.0
C1812 C 0.67008 0.18806 0.93478 0.0
C1813 C 0.66836 0.19844 0.88521 0.0
C1814 C 0.67556 0.19807 0.81973 0.0
C1815 C 0.6843 0.18737 0.80455 0.0
C1816 C 0.68607 0.1772 0.85668 0.0
H1817 H 0.58552 0.93137 0.93297 0.0
H1818 H 0.54601 0.91392 0.9255 0.0
H1819 H 0.54427 0.91992 0.79528 0.0
H1820 H 0.57836 0.95898 0.82564 0.0
H1821 H 0.59407 0.9595 0.77827 0.0
H1822 H 0.59312 0.95246 0.8685 0.0
H1823 H 0.60324 0.93031 0.82189 0.0
H1824 H 0.60453 0.93736 0.7317 0.0
H1825 H 0.5957 0.92194 0.74534 0.0
H1826 H 0.54563 0.9301 0.67151 0.0
H1827 H 0.55115 0.94136 0.55593 0.0
H1828 H 0.59 0.95183 0.64145 0.0
C1829 C 0.57667 0.92842 0.90347 0.0
C1830 C 0.56591 0.9221 0.93941 0.0
C1831 C 0.55439 0.9187 0.89908 0.0
C1832 C 0.55328 0.92212 0.82517 0.0
C1833 C 0.56381 0.92888 0.79236 0.0
C1834 C 0.57537 0.93181 0.82969 0.0
C1835 C 0.58494 0.9397 0.78238 0.0
C1836 C 0.58778 0.95347 0.81569 0.0
C1837 C 0.59787 0.93185 0.76956 0.0
C1838 C 0.57686 0.94088 0.71289 0.0
C1839 C 0.56469 0.93459 0.72008 0.0
C1840 C 0.55526 0.93476 0.66454 0.0
C1841 C 0.55852 0.94112 0.59895 0.0
C1842 C 0.57116 0.94708 0.58897 0.0
C1843 C 0.58032 0.94723 0.64739 0.0
H1844 H 0.82834 0.16172 0.383 0.0
H1845 H 0.85291 0.19729 0.37821 0.0
H1846 H 0.84796 0.20119 0.50833 0.0
H1847 H 0.8031 0.1747 0.48723 0.0
H1848 H 0.79974 0.15986 0.53947 0.0
H1849 H 0.80673 0.15854 0.44932 0.0
H1850 H 0.82669 0.14503 0.49975 0.0
H1851 H 0.8196 0.146 0.58996 0.0
H1852 H 0.83636 0.15169 0.5741 0.0
H1853 H 0.83766 0.2031 0.63233 0.0
H1854 H 0.8252 0.20115 0.74784 0.0
H1855 H 0.80782 0.16404 0.67316 0.0
C1856 C 0.83304 0.17011 0.40975 0.0
C1857 C 0.84101 0.17921 0.37028 0.0
C1858 C 0.84681 0.19015 0.40728 0.0
C1859 C 0.84401 0.19248 0.48114 0.0
C1860 C 0.83552 0.18371 0.51726 0.0
C1861 C 0.83034 0.17259 0.4833 0.0
C1862 C 0.82087 0.16514 0.53309 0.0
C1863 C 0.80678 0.16453 0.5003 0.0
C1864 C 0.8262 0.15114 0.55025 0.0
C1865 C 0.82128 0.17401 0.59974 0.0
C1866 C 0.82979 0.18466 0.58949 0.0
C1867 C 0.83127 0.19459 0.64185 0.0
C1868 C 0.82419 0.19338 0.7074 0.0
C1869 C 0.81589 0.18223 0.72035 0.0
C1870 C 0.81422 0.17259 0.66507 0.0
H1871 H 0.56398 0.07205 0.44632 0.0
H1872 H 0.57983 0.03235 0.4091 0.0
H1873 H 0.58262 0.03771 0.27878 0.0
H1874 H 0.54497 0.07328 0.27141 0.0
H1875 H 0.54789 0.0909 0.2617 0.0
H1876 H 0.54658 0.08362 0.35133 0.0
H1877 H 0.56957 0.09359 0.38419 0.0
H1878 H 0.57119 0.10054 0.29403 0.0
H1879 H 0.58384 0.08952 0.32885 0.0
H1880 H 0.58673 0.04842 0.15919 0.0
H1881 H 0.58713 0.06176 0.04669 0.0
H1882 H 0.56552 0.09339 0.15641 0.0
C1883 C 0.56736 0.06416 0.41098 0.0
C1884 C 0.57145 0.05163 0.43846 0.0
C1885 C 0.57659 0.04199 0.38948 0.0
C1886 C 0.57825 0.04495 0.31542 0.0
C1887 C 0.57446 0.0575 0.29089 0.0
C1888 C 0.5687 0.06679 0.33644 0.0
C1889 C 0.56541 0.07951 0.29559 0.0
C1890 C 0.55031 0.08197 0.29495 0.0
C1891 C 0.57295 0.09149 0.3276 0.0
C1892 C 0.57053 0.076 0.22032 0.0
C1893 C 0.57595 0.06335 0.21956 0.0
C1894 C 0.58223 0.05818 0.1583 0.0
C1895 C 0.58253 0.06592 0.09499 0.0
C1896 C 0.57628 0.07856 0.09295 0.0
C1897 C 0.57031 0.08372 0.15664 0.0
H1898 H 0.6872 0.82011 0.81594 0.0
H1899 H 0.64542 0.82959 0.8461 0.0
H1900 H 0.64964 0.83349 0.97796 0.0
H1901 H 0.6914 0.8024 0.98392 0.0
H1902 H 0.70814 0.80835 -0.00253 0.0
H1903 H 0.70166 0.80655 0.90642 0.0
H1904 H 0.70717 0.83125 0.87983 0.0
H1905 H 0.7136 0.83321 0.97091 0.0
H1906 H 0.7006 0.84407 0.93847 0.0
H1907 H 0.65887 0.83713 0.10486 0.0
H1908 H 0.67161 0.83802 0.21956 0.0
H1909 H 0.7071 0.82503 0.10523 0.0
C1910 C 0.67889 0.82303 0.85007 0.0
C1911 C 0.66597 0.82466 0.82096 0.0
C1912 C 0.65537 0.82828 0.86759 0.0
C1913 C 0.6577 0.83058 0.94219 0.0
C1914 C 0.67065 0.82907 0.96869 0.0
C1915 C 0.68101 0.82521 0.92407 0.0
C1916 C 0.69393 0.82386 0.96573 0.0
C1917 C 0.69908 0.80943 0.96324 0.0
C1918 C 0.70444 0.83369 0.93705 0.0
C1919 C 0.68927 0.82759 0.0413 0.0
C1920 C 0.67584 0.83067 0.04177 0.0
C1921 C 0.66932 0.83452 0.10529 0.0
C1922 C 0.67662 0.83485 0.1703 0.0
C1923 C 0.69022 0.83111 0.17151 0.0
C1924 C 0.69668 0.82779 0.10583 0.0
H1925 H 0.93057 0.92866 0.93813 0.0
H1926 H 0.93249 0.97067 0.88385 0.0
H1927 H 0.93033 0.96503 0.75285 0.0
H1928 H 0.95031 0.91707 0.78145 0.0
H1929 H 0.94052 0.90213 0.77199 0.0
H1930 H 0.94265 0.90962 0.86056 0.0
H1931 H 0.91705 0.91078 0.87591 0.0
H1932 H 0.91483 0.90343 0.7872 0.0
H1933 H 0.90722 0.91923 0.80788 0.0
H1934 H 0.926 0.95456 0.62782 0.0
H1935 H 0.92167 0.94019 0.52018 0.0
H1936 H 0.92476 0.90526 0.65738 0.0
C1937 C 0.93115 0.9367 0.89905 0.0
C1938 C 0.93218 0.95012 0.92171 0.0
C1939 C 0.93192 0.9603 0.86796 0.0
C1940 C 0.9307 0.95719 0.79336 0.0
C1941 C 0.9298 0.94384 0.77307 0.0
C1942 C 0.93016 0.93376 0.82448 0.0
C1943 C 0.92876 0.92021 0.78903 0.0
C1944 C 0.94131 0.91176 0.80149 0.0
C1945 C 0.91622 0.91299 0.81665 0.0
C1946 C 0.92738 0.92421 0.70966 0.0
C1947 C 0.92793 0.93787 0.70134 0.0
C1948 C 0.92603 0.94384 0.63329 0.0
C1949 C 0.92372 0.93564 0.57221 0.0
C1950 C 0.92339 0.92163 0.57939 0.0
C1951 C 0.92521 0.91593 0.64941 0.0
H1952 H 0.70006 0.6615 0.10902 0.0
H1953 H 0.69108 0.70089 0.19252 0.0
H1954 H 0.67974 0.70653 0.07732 0.0
H1955 H 0.70747 0.67225 0.92648 0.0
H1956 H 0.70042 0.65767 0.88426 0.0
H1957 H 0.7072 0.65662 0.97494 0.0
H1958 H 0.68469 0.64728 0.02167 0.0
H1959 H 0.67776 0.64856 0.93123 0.0
H1960 H 0.66965 0.65668 0.00685 0.0
H1961 H 0.66978 0.70809 0.95292 0.0
H1962 H 0.66436 0.70646 0.8219 0.0
H1963 H 0.67998 0.66612 0.81853 0.0
C1964 C 0.69572 0.67131 0.10277 0.0
C1965 C 0.69608 0.68063 0.16022 0.0
C1966 C 0.69047 0.69344 0.15004 0.0
C1967 C 0.68405 0.69675 0.08477 0.0
C1968 C 0.68344 0.68718 0.03003 0.0
C1969 C 0.68929 0.67479 0.03778 0.0
C1970 C 0.68783 0.66661 0.96893 0.0
C1971 C 0.70154 0.66309 0.93676 0.0
C1972 C 0.67948 0.65404 0.98305 0.0
C1973 C 0.68042 0.67641 0.92107 0.0
C1974 C 0.67783 0.68815 0.95765 0.0
C1975 C 0.67168 0.69893 0.92367 0.0
C1976 C 0.66858 0.69788 0.84932 0.0
C1977 C 0.67174 0.68617 0.80989 0.0
C1978 C 0.6773 0.67516 0.84716 0.0
H1979 H 0.57783 0.40268 0.18862 0.0
H1980 H 0.57314 0.43685 0.04636 0.0
H1981 H 0.56852 0.45104 0.15421 0.0
H1982 H 0.55174 0.41165 0.31808 0.0
H1983 H 0.56098 0.40527 0.3948 0.0
H1984 H 0.5631 0.39793 0.30582 0.0
H1985 H 0.58852 0.40214 0.31313 0.0
H1986 H 0.58649 0.40945 0.40202 0.0
H1987 H 0.59452 0.41877 0.33035 0.0
H1988 H 0.56643 0.46167 0.28173 0.0
H1989 H 0.56604 0.46738 0.41357 0.0
H1990 H 0.57167 0.42577 0.46786 0.0
C1991 C 0.57571 0.41312 0.17958 0.0
C1992 C 0.57601 0.41869 0.10872 0.0
C1993 C 0.5731 0.43239 0.09992 0.0
C1994 C 0.57042 0.4405 0.16099 0.0
C1995 C 0.57048 0.43467 0.23029 0.0
C1996 C 0.57292 0.42123 0.23945 0.0
C1997 C 0.57283 0.4173 0.31914 0.0
C1998 C 0.56149 0.40745 0.33539 0.0
C1999 C 0.58639 0.41159 0.34249 0.0
C2000 C 0.57024 0.43066 0.35403 0.0
C2001 C 0.56885 0.4406 0.30224 0.0
C2002 C 0.56722 0.4539 0.32248 0.0
C2003 C 0.56701 0.45706 0.39735 0.0
C2004 C 0.56833 0.44696 0.4509 0.0
C2005 C 0.56998 0.43363 0.42849 0.0
H2006 H 0.80997 0.33386 0.63008 0.0
H2007 H 0.82755 0.29602 0.6914 0.0
H2008 H 0.84002 0.29559 0.57517 0.0
H2009 H 0.80454 0.32549 0.44635 0.0
H2010 H 0.80792 0.34201 0.41246 0.0
H2011 H 0.80169 0.33981 0.50362 0.0
H2012 H 0.82192 0.353 0.55378 0.0
H2013 H 0.82836 0.35498 0.46256 0.0
H2014 H 0.83854 0.3475 0.53238 0.0
H2015 H 0.84948 0.29871 0.44937 0.0
H2016 H 0.85265 0.30343 0.31832 0.0
H2017 H 0.82851 0.33906 0.33966 0.0
C2018 C 0.81648 0.3255 0.61921 0.0
C2019 C 0.81807 0.31513 0.67038 0.0
C2020 C 0.82654 0.30428 0.6539 0.0
C2021 C 0.83365 0.30396 0.58807 0.0
C2022 C 0.83211 0.31453 0.5395 0.0
C2023 C 0.82359 0.32501 0.55395 0.0
C2024 C 0.82274 0.33454 0.49032 0.0
C2025 C 0.80837 0.33551 0.46148 0.0
C2026 C 0.82822 0.34832 0.51103 0.0
C2027 C 0.83179 0.32756 0.43674 0.0
C2028 C 0.83734 0.3162 0.46655 0.0
C2029 C 0.84531 0.30766 0.42561 0.0
C2030 C 0.84712 0.31046 0.35128 0.0
C2031 C 0.8408 0.3216 0.31888 0.0
C2032 C 0.83354 0.33052 0.36304 0.0
H2033 H 0.94168 0.55193 0.91671 0.0
H2034 H 0.89928 0.55921 0.93138 0.0
H2035 H 0.89968 0.56988 0.80942 0.0
H2036 H 0.95074 0.58207 0.82036 0.0
H2037 H 0.96288 0.57394 0.76332 0.0
H2038 H 0.95941 0.56755 0.8533 0.0
H2039 H 0.95382 0.54437 0.79886 0.0
H2040 H 0.95753 0.55063 0.70909 0.0
H2041 H 0.94157 0.54314 0.7273 0.0
H2042 H 0.90479 0.57975 0.6867 0.0
H2043 H 0.91329 0.58471 0.5634 0.0
H2044 H 0.95227 0.57011 0.62693 0.0
C2045 C 0.93251 0.55577 0.89387 0.0
C2046 C 0.92045 0.55482 0.93269 0.0
C2047 C 0.90857 0.5598 0.90163 0.0
C2048 C 0.90875 0.56599 0.83304 0.0
C2049 C 0.92087 0.56699 0.79639 0.0
C2050 C 0.93248 0.56178 0.82508 0.0
C2051 C 0.94397 0.56325 0.77232 0.0
C2052 C 0.95489 0.57224 0.80425 0.0
C2053 C 0.94954 0.54954 0.75059 0.0
C2054 C 0.93698 0.56995 0.70905 0.0
C2055 C 0.92373 0.57228 0.72465 0.0
C2056 C 0.91515 0.578 0.67384 0.0
C2057 C 0.92011 0.58087 0.60405 0.0
C2058 C 0.93345 0.57778 0.58551 0.0
C2059 C 0.94205 0.57266 0.6396 0.0
H2060 H 0.69139 0.31025 0.76908 0.0
H2061 H 0.6947 0.35312 0.74841 0.0
H2062 H 0.68378 0.35593 0.86846 0.0
H2063 H 0.65941 0.30945 0.86356 0.0
H2064 H 0.66421 0.29592 0.9227 0.0
H2065 H 0.67133 0.29727 0.83268 0.0
H2066 H 0.6951 0.29715 0.8879 0.0
H2067 H 0.68803 0.29553 0.97767 0.0
H2068 H 0.69927 0.30905 0.95789 0.0
H2069 H 0.67308 0.35404 0.99113 0.0
H2070 H 0.66666 0.34766 0.1162 0.0
H2071 H 0.67083 0.30594 0.05836 0.0
C2072 C 0.68976 0.3202 0.79007 0.0
C2073 C 0.69382 0.33149 0.75018 0.0
C2074 C 0.69171 0.34438 0.77896 0.0
C2075 C 0.68538 0.34606 0.84643 0.0
C2076 C 0.6813 0.33474 0.88424 0.0
C2077 C 0.6836 0.32205 0.8577 0.0
C2078 C 0.67927 0.31154 0.91188 0.0
C2079 C 0.66788 0.30304 0.88083 0.0
C2080 C 0.69112 0.30281 0.93523 0.0
C2081 C 0.67446 0.3203 0.97371 0.0
C2082 C 0.67543 0.33364 0.95599 0.0
C2083 C 0.6722 0.34363 0.00561 0.0
C2084 C 0.66849 0.3399 0.07645 0.0
C2085 C 0.66828 0.3263 0.09711 0.0
C2086 C 0.67081 0.31641 0.0441 0.0
H2087 H 0.91822 0.45564 0.14118 0.0
H2088 H 0.91949 0.41775 0.02815 0.0
H2089 H 0.9235 0.40616 0.14495 0.0
H2090 H 0.94294 0.45031 0.26597 0.0
H2091 H 0.9347 0.45808 0.34231 0.0
H2092 H 0.93077 0.46323 0.2509 0.0
H2093 H 0.90596 0.45834 0.27458 0.0
H2094 H 0.90953 0.45276 0.36606 0.0
H2095 H 0.90086 0.44197 0.30377 0.0
H2096 H 0.9304 0.39923 0.27281 0.0
H2097 H 0.9363 0.39735 0.40433 0.0
H2098 H 0.92892 0.43971 0.42992 0.0
C2099 C 0.91911 0.44489 0.14138 0.0
C2100 C 0.9192 0.43762 0.076 0.0
C2101 C 0.92008 0.42354 0.07786 0.0
C2102 C 0.9222 0.41685 0.14383 0.0
C2103 C 0.9229 0.4244 0.20727 0.0
C2104 C 0.92098 0.43807 0.20675 0.0
C2105 C 0.92225 0.44391 0.28204 0.0
C2106 C 0.93333 0.4545 0.28544 0.0
C2107 C 0.90886 0.44958 0.30811 0.0
C2108 C 0.92594 0.43154 0.32401 0.0
C2109 C 0.92617 0.42032 0.28062 0.0
C2110 C 0.93 0.4079 0.30782 0.0
C2111 C 0.93344 0.40692 0.38203 0.0
C2112 C 0.93293 0.41833 0.42706 0.0
C2113 C 0.9292 0.43073 0.39716 0.0
H2114 H 0.79824 0.68916 0.33307 0.0
H2115 H 0.81427 0.64936 0.30874 0.0
H2116 H 0.82479 0.65106 0.43065 0.0
H2117 H 0.82575 0.70367 0.42658 0.0
H2118 H 0.81569 0.71351 0.48762 0.0
H2119 H 0.80949 0.70923 0.39841 0.0
H2120 H 0.7885 0.69852 0.45628 0.0
H2121 H 0.79448 0.70297 0.54559 0.0
H2122 H 0.79044 0.68589 0.52534 0.0
H2123 H 0.83409 0.65748 0.55237 0.0
H2124 H 0.83834 0.66643 0.67542 0.0
H2125 H 0.81557 0.70185 0.62125 0.0
C2126 C 0.80384 0.68078 0.3542 0.0
C2127 C 0.80547 0.66911 0.31272 0.0
C2128 C 0.81284 0.65829 0.34092 0.0
C2129 C 0.81895 0.65925 0.40938 0.0
C2130 C 0.81744 0.67104 0.44853 0.0
C2131 C 0.80982 0.6815 0.42274 0.0
C2132 C 0.80921 0.69279 0.47712 0.0
C2133 C 0.81541 0.70555 0.44552 0.0
C2134 C 0.79481 0.69518 0.50261 0.0
C2135 C 0.8177 0.68706 0.53754 0.0
C2136 C 0.82252 0.6746 0.5195 0.0
C2137 C 0.83036 0.66721 0.5673 0.0
C2138 C 0.83279 0.67243 0.63687 0.0
C2139 C 0.82724 0.68482 0.658 0.0
C2140 C 0.82 0.69239 0.60664 0.0
H2141 H 0.55908 0.55984 0.5924 0.0
H2142 H 0.60006 0.54661 0.5781 0.0
H2143 H 0.60475 0.55673 0.69828 0.0
H2144 H 0.56553 0.59138 0.68693 0.0
H2145 H 0.55095 0.58999 0.74373 0.0
H2146 H 0.55104 0.58272 0.65378 0.0
H2147 H 0.5449 0.55968 0.70842 0.0
H2148 H 0.54456 0.56694 0.79809 0.0
H2149 H 0.55507 0.55277 0.78011 0.0
H2150 H 0.60485 0.56766 0.82053 0.0
H2151 H 0.59959 0.57539 0.9448 0.0
H2152 H 0.55835 0.58103 0.88139 0.0
C2153 C 0.56905 0.55919 0.61457 0.0
C2154 C 0.57924 0.55254 0.57634 0.0
C2155 C 0.59212 0.55162 0.60712 0.0
C2156 C 0.59491 0.55748 0.67474 0.0
C2157 C 0.58469 0.56415 0.7108 0.0
C2158 C 0.57197 0.56487 0.68238 0.0
C2159 C 0.56253 0.5716 0.73506 0.0
C2160 C 0.5572 0.5847 0.70294 0.0
C2161 C 0.5511 0.56218 0.75672 0.0
C2162 C 0.57184 0.5742 0.79841 0.0
C2163 C 0.58466 0.57014 0.78249 0.0
C2164 C 0.59488 0.57095 0.83358 0.0
C2165 C 0.5918 0.57543 0.90399 0.0
C2166 C 0.57854 0.57879 0.92288 0.0
C2167 C 0.56858 0.57863 0.86846 0.0
H2168 H 0.30733 0.33672 0.82592 0.0
H2169 H 0.32605 0.30018 0.75249 0.0
H2170 H 0.33853 0.29881 0.86809 0.0
H2171 H 0.33531 0.35023 0.92464 0.0
H2172 H 0.32531 0.35662 -0.00156 0.0
H2173 H 0.31834 0.35521 0.90815 0.0
H2174 H 0.29904 0.34071 0.9585 0.0
H2175 H 0.3058 0.34231 0.04898 0.0
H2176 H 0.30285 0.32602 0.01107 0.0
H2177 H 0.34874 0.30123 0.99212 0.0
H2178 H 0.35352 0.30548 0.12208 0.0
H2179 H 0.32766 0.34012 0.11598 0.0
C2180 C 0.31404 0.32842 0.83427 0.0
C2181 C 0.31606 0.31879 0.77931 0.0
C2182 C 0.32476 0.30797 0.79263 0.0
C2183 C 0.33185 0.30707 0.85826 0.0
C2184 C 0.33 0.317 0.91032 0.0
C2185 C 0.32113 0.32734 0.89965 0.0
C2186 C 0.32035 0.33623 0.96615 0.0
C2187 C 0.32511 0.35041 0.94824 0.0
C2188 C 0.30618 0.33631 -0.00194 0.0
C2189 C 0.33004 0.32917 0.01621 0.0
C2190 C 0.33564 0.31821 0.9826 0.0
C2191 C 0.34446 0.30982 0.01901 0.0
C2192 C 0.34717 0.31236 0.09277 0.0
C2193 C 0.34096 0.32312 0.12937 0.0
C2194 C 0.33266 0.33187 0.08958 0.0
H2195 H 0.44805 0.56144 0.54844 0.0
H2196 H 0.4051 0.55979 0.53015 0.0
H2197 H 0.40292 0.57048 0.65125 0.0
H2198 H 0.44924 0.55306 0.73744 0.0
H2199 H 0.46321 0.56374 0.75689 0.0
H2200 H 0.46118 0.55687 0.66694 0.0
H2201 H 0.4619 0.58071 0.6125 0.0
H2202 H 0.46369 0.58766 0.70267 0.0
H2203 H 0.45027 0.59307 0.64451 0.0
H2204 H 0.40545 0.58106 0.77441 0.0
H2205 H 0.41234 0.58747 0.89871 0.0
H2206 H 0.45369 0.58152 0.83847 0.0
C2207 C 0.43822 0.56338 0.57019 0.0
C2208 C 0.42673 0.55986 0.53058 0.0
C2209 C 0.414 0.56236 0.56041 0.0
C2210 C 0.41267 0.56856 0.62854 0.0
C2211 C 0.4242 0.57208 0.66608 0.0
C2212 C 0.43673 0.56939 0.63854 0.0
C2213 C 0.44748 0.57323 0.69229 0.0
C2214 C 0.45576 0.561 0.71473 0.0
C2215 C 0.45636 0.58433 0.66111 0.0
C2216 C 0.43904 0.57829 0.75488 0.0
C2217 C 0.42565 0.57782 0.73803 0.0
C2218 C 0.41591 0.58152 0.7882 0.0
C2219 C 0.41993 0.58524 0.85858 0.0
C2220 C 0.43356 0.585 0.87832 0.0
C2221 C 0.44321 0.5819 0.82488 0.0
H2222 H 0.1777 0.66399 0.64337 0.0
H2223 H 0.15218 0.69884 0.65328 0.0
H2224 H 0.15678 0.70338 0.52338 0.0
H2225 H 0.20238 0.67798 0.53944 0.0
H2226 H 0.20601 0.66345 0.48528 0.0
H2227 H 0.1992 0.66157 0.57552 0.0
H2228 H 0.17951 0.64779 0.52431 0.0
H2229 H 0.18643 0.64933 0.43393 0.0
H2230 H 0.16956 0.65453 0.45124 0.0
H2231 H 0.16688 0.70608 0.39888 0.0
H2232 H 0.17936 0.70501 0.28308 0.0
H2233 H 0.19778 0.66808 0.35312 0.0
C2234 C 0.17272 0.67234 0.61777 0.0
C2235 C 0.16458 0.68107 0.65868 0.0
C2236 C 0.1584 0.69197 0.62313 0.0
C2237 C 0.16101 0.69468 0.54937 0.0
C2238 C 0.16966 0.68628 0.5118 0.0
C2239 C 0.1752 0.67517 0.5443 0.0
C2240 C 0.18477 0.66818 0.49321 0.0
C2241 C 0.19892 0.66778 0.5253 0.0
C2242 C 0.17976 0.65413 0.47455 0.0
C2243 C 0.18405 0.67732 0.42766 0.0
C2244 C 0.17526 0.68769 0.43939 0.0
C2245 C 0.17348 0.6978 0.38822 0.0
C2246 C 0.18058 0.69708 0.32244 0.0
C2247 C 0.18923 0.68625 0.30811 0.0
C2248 C 0.19113 0.67641 0.36216 0.0
H2249 H 0.07855 0.43311 0.09271 0.0
H2250 H 0.09152 0.47312 0.14604 0.0
H2251 H 0.09183 0.46699 0.27698 0.0
H2252 H 0.05514 0.43036 0.23963 0.0
H2253 H 0.05825 0.41284 0.25251 0.0
H2254 H 0.06033 0.42021 0.16365 0.0
H2255 H 0.08456 0.41139 0.15882 0.0
H2256 H 0.08259 0.40408 0.24794 0.0
H2257 H 0.09597 0.41564 0.23107 0.0
H2258 H 0.09024 0.45601 0.40502 0.0
H2259 H 0.08555 0.44207 0.51354 0.0
H2260 H 0.07131 0.41053 0.37259 0.0
C2261 C 0.0809 0.44085 0.13146 0.0
C2262 C 0.08441 0.45383 0.10874 0.0
C2263 C 0.08851 0.46319 0.16208 0.0
C2264 C 0.08867 0.45981 0.23668 0.0
C2265 C 0.08456 0.44707 0.25722 0.0
C2266 C 0.08069 0.4378 0.2058 0.0
C2267 C 0.07629 0.42492 0.24101 0.0
C2268 C 0.06163 0.42192 0.22315 0.0
C2269 C 0.0854 0.41333 0.21836 0.0
C2270 C 0.07809 0.42841 0.32059 0.0
C2271 C 0.08309 0.44113 0.3293 0.0
C2272 C 0.08589 0.44624 0.39851 0.0
C2273 C 0.08316 0.43829 0.46008 0.0
C2274 C 0.07772 0.42538 0.45201 0.0
C2275 C 0.07532 0.42042 0.38105 0.0
H2276 H 0.29959 0.68776 0.16927 0.0
H2277 H 0.31207 0.64657 0.18622 0.0
H2278 H 0.32267 0.6481 0.06434 0.0
H2279 H 0.29121 0.68641 0.97886 0.0
H2280 H 0.29676 0.70315 0.96043 0.0
H2281 H 0.29074 0.69881 0.04985 0.0
H2282 H 0.31283 0.70717 0.10648 0.0
H2283 H 0.31906 0.71135 0.01709 0.0
H2284 H 0.32839 0.7003 0.07531 0.0
H2285 H 0.33224 0.65434 0.94308 0.0
H2286 H 0.33658 0.66332 0.82023 0.0
H2287 H 0.31701 0.70028 0.88079 0.0
C2288 C 0.30447 0.67907 0.14667 0.0
C2289 C 0.30506 0.66705 0.18602 0.0
C2290 C 0.31145 0.6558 0.15574 0.0
C2291 C 0.31762 0.65665 0.08733 0.0
C2292 C 0.31715 0.66877 0.05033 0.0
C2293 C 0.31049 0.67969 0.07817 0.0
C2294 C 0.31072 0.69127 0.02546 0.0
C2295 C 0.29652 0.69513 0.00225 0.0
C2296 C 0.3182 0.70323 0.05805 0.0
C2297 C 0.31843 0.68511 0.96317 0.0
C2298 C 0.3223 0.67223 0.97932 0.0
C2299 C 0.32926 0.6644 0.92964 0.0
C2300 C 0.33175 0.66964 0.86015 0.0
C2301 C 0.32706 0.68248 0.84084 0.0
C2302 C 0.32076 0.69046 0.89402 0.0
H2303 H 0.085 0.56988 0.92093 0.0
H2304 H 0.07345 0.52926 0.8729 0.0
H2305 H 0.07203 0.53494 0.74121 0.0
H2306 H 0.06337 0.58581 0.79359 0.0
H2307 H 0.07522 0.59861 0.77065 0.0
H2308 H 0.07561 0.591 0.85957 0.0
H2309 H 0.10036 0.58465 0.83988 0.0
H2310 H 0.10002 0.59217 0.75063 0.0
H2311 H 0.10501 0.57503 0.76082 0.0
H2312 H 0.07086 0.54592 0.6128 0.0
H2313 H 0.07039 0.56082 0.50456 0.0
H2314 H 0.08325 0.59371 0.64046 0.0
C2315 C 0.0819 0.56222 0.88321 0.0
C2316 C 0.07897 0.54921 0.90766 0.0
C2317 C 0.07561 0.53934 0.85549 0.0
C2318 C 0.07477 0.54248 0.78059 0.0
C2319 C 0.0775 0.55552 0.7585 0.0
C2320 C 0.08108 0.56517 0.80861 0.0
C2321 C 0.08354 0.57843 0.77186 0.0
C2322 C 0.07386 0.58909 0.80062 0.0
C2323 C 0.09809 0.58283 0.78137 0.0
C2324 C 0.08058 0.57486 0.69329 0.0
C2325 C 0.07716 0.5616 0.68603 0.0
C2326 C 0.07367 0.55628 0.61808 0.0
C2327 C 0.07355 0.56478 0.55656 0.0
C2328 C 0.07699 0.5784 0.56329 0.0
C2329 C 0.08061 0.58335 0.63283 0.0
H2330 H 0.16674 0.30245 0.37038 0.0
H2331 H 0.16776 0.34447 0.31474 0.0
H2332 H 0.17359 0.34989 0.44176 0.0
H2333 H 0.15483 0.30701 0.56755 0.0
H2334 H 0.16524 0.29343 0.59725 0.0
H2335 H 0.15792 0.29314 0.50741 0.0
H2336 H 0.18138 0.28992 0.4517 0.0
H2337 H 0.18884 0.29062 0.54067 0.0
H2338 H 0.19418 0.30202 0.4705 0.0
H2339 H 0.18428 0.35033 0.56319 0.0
H2340 H 0.19585 0.34602 0.67987 0.0
H2341 H 0.1876 0.30384 0.65853 0.0
C2342 C 0.16756 0.31283 0.38565 0.0
C2343 C 0.16686 0.32303 0.33273 0.0
C2344 C 0.16827 0.33649 0.35449 0.0
C2345 C 0.17158 0.33967 0.42652 0.0
C2346 C 0.17321 0.3293 0.47614 0.0
C2347 C 0.17089 0.31617 0.45736 0.0
C2348 C 0.17475 0.30681 0.51863 0.0
C2349 C 0.16245 0.29968 0.54955 0.0
C2350 C 0.18542 0.29676 0.49384 0.0
C2351 C 0.18034 0.31666 0.57285 0.0
C2352 C 0.17924 0.32959 0.54754 0.0
C2353 C 0.18488 0.3403 0.58459 0.0
C2354 C 0.19158 0.33775 0.65002 0.0
C2355 C 0.19253 0.32463 0.67743 0.0
C2356 C 0.18682 0.31397 0.63861 0.0
H2357 H 0.42293 0.44119 0.06587 0.0
H2358 H 0.42794 0.39844 0.08693 0.0
H2359 H 0.43243 0.40129 0.21941 0.0
H2360 H 0.4497 0.44977 0.18371 0.0
H2361 H 0.44147 0.46432 0.21952 0.0
H2362 H 0.43785 0.4587 0.12837 0.0
H2363 H 0.41275 0.45737 0.15988 0.0
H2364 H 0.41627 0.46313 0.25079 0.0
H2365 H 0.40744 0.4477 0.23758 0.0
H2366 H 0.43511 0.40908 0.34982 0.0
H2367 H 0.43662 0.42086 0.46663 0.0
H2368 H 0.43286 0.45875 0.35432 0.0
C2369 C 0.4247 0.43236 0.09844 0.0
C2370 C 0.42479 0.41953 0.06698 0.0
C2371 C 0.42763 0.4083 0.11076 0.0
C2372 C 0.43025 0.40985 0.18559 0.0
C2373 C 0.43029 0.42271 0.21449 0.0
C2374 C 0.42767 0.43376 0.172 0.0
C2375 C 0.42885 0.44656 0.21477 0.0
C2376 C 0.44014 0.45535 0.1848 0.0
C2377 C 0.41554 0.45412 0.21584 0.0
C2378 C 0.43227 0.441 0.2889 0.0
C2379 C 0.43301 0.42724 0.28777 0.0
C2380 C 0.43501 0.41986 0.351 0.0
C2381 C 0.43614 0.42671 0.41721 0.0
C2382 C 0.43564 0.44083 0.41936 0.0
C2383 C 0.43374 0.448 0.35408 0.0
H2384 H 0.28524 0.17723 0.24491 0.0
H2385 H 0.27103 0.169 0.46433 0.0
H2386 H 0.24831 0.16604 0.41651 0.0
H2387 H 0.25729 0.19645 0.19021 0.0
H2388 H 0.25707 0.19044 0.09752 0.0
H2389 H 0.27248 0.19092 0.14746 0.0
H2390 H 0.276 0.16579 0.12294 0.0
H2391 H 0.26058 0.1652 0.07293 0.0
H2392 H 0.26324 0.15409 0.14885 0.0
H2393 H 0.22731 0.16477 0.34785 0.0
H2394 H 0.20858 0.16615 0.26296 0.0
H2395 H 0.23575 0.17579 0.08577 0.0
C2396 C 0.27737 0.17464 0.28274 0.0
C2397 C 0.27993 0.17327 0.35844 0.0
C2398 C 0.26932 0.1701 0.40627 0.0
C2399 C 0.2564 0.16834 0.37957 0.0
C2400 C 0.25421 0.16984 0.30495 0.0
C2401 C 0.26435 0.17298 0.25708 0.0
C2402 C 0.25906 0.17476 0.17996 0.0
C2403 C 0.26163 0.18899 0.15219 0.0
C2404 C 0.26508 0.16434 0.12812 0.0
C2405 C 0.24433 0.17228 0.19233 0.0
C2406 C 0.24187 0.16934 0.26485 0.0
C2407 C 0.22911 0.167 0.29088 0.0
C2408 C 0.21851 0.16786 0.24189 0.0
C2409 C 0.22064 0.17112 0.1673 0.0
C2410 C 0.23379 0.17319 0.14212 0.0
H2411 H 0.07548 0.03487 0.48775 0.0
H2412 H 0.08151 0.02053 0.70912 0.0
H2413 H 0.08343 0.9976 0.66278 0.0
H2414 H 0.05518 0.00782 0.42976 0.0
H2415 H 0.06185 0.00713 0.3385 0.0
H2416 H 0.0618 0.02265 0.38773 0.0
H2417 H 0.08721 0.02484 0.36872 0.0
H2418 H 0.08738 0.00932 0.3194 0.0
H2419 H 0.09802 0.01151 0.39764 0.0
H2420 H 0.08397 0.97645 0.59535 0.0
H2421 H 0.08254 0.95769 0.5107 0.0
H2422 H 0.0757 0.98507 0.33048 0.0
C2423 C 0.07736 0.02692 0.52637 0.0
C2424 C 0.0784 0.02952 0.60218 0.0
C2425 C 0.08066 0.01881 0.65094 0.0
C2426 C 0.08182 0.00575 0.62513 0.0
C2427 C 0.08065 0.00353 0.55039 0.0
C2428 C 0.07844 0.01376 0.50154 0.0
C2429 C 0.07697 0.00845 0.42427 0.0
C2430 C 0.06312 0.0117 0.39327 0.0
C2431 C 0.08806 0.01385 0.37459 0.0
C2432 C 0.07858 0.99362 0.43767 0.0
C2433 C 0.08079 0.9911 0.51089 0.0
C2434 C 0.0823 0.97827 0.53784 0.0
C2435 C 0.08144 0.96766 0.48893 0.0
C2436 C 0.07898 0.96984 0.41348 0.0
C2437 C 0.07766 0.98305 0.38753 0.0
H2438 H 0.2832 0.82484 0.7055 0.0
H2439 H 0.26858 0.84263 0.50483 0.0
H2440 H 0.24703 0.84709 0.56438 0.0
H2441 H 0.25372 0.80801 0.74968 0.0
H2442 H 0.25497 0.81044 0.84692 0.0
H2443 H 0.2698 0.81003 0.79189 0.0
H2444 H 0.27667 0.83319 0.84129 0.0
H2445 H 0.26186 0.83364 0.89683 0.0
H2446 H 0.26527 0.84698 0.83363 0.0
H2447 H 0.22686 0.84816 0.64048 0.0
H2448 H 0.20852 0.84486 0.72688 0.0
H2449 H 0.23558 0.82593 0.87988 0.0
C2450 C 0.27554 0.82989 0.67448 0.0
C2451 C 0.2776 0.83347 0.60052 0.0
C2452 C 0.26724 0.83982 0.56144 0.0
C2453 C 0.255 0.84246 0.59494 0.0
C2454 C 0.25326 0.83869 0.66753 0.0
C2455 C 0.26319 0.8325 0.70694 0.0
C2456 C 0.25831 0.82852 0.78237 0.0
C2457 C 0.25925 0.81335 0.79331 0.0
C2458 C 0.26598 0.83603 0.84207 0.0
C2459 C 0.24395 0.83312 0.77836 0.0
C2460 C 0.24138 0.83914 0.71187 0.0
C2461 C 0.22877 0.8436 0.69299 0.0
C2462 C 0.2184 0.84162 0.74254 0.0
C2463 C 0.2206 0.83513 0.81031 0.0
C2464 C 0.23364 0.83109 0.8291 0.0
H2465 H 0.43182 0.97079 0.02042 0.0
H2466 H 0.40476 0.98224 0.19405 0.0
H2467 H 0.40036 0.00352 0.13121 0.0
H2468 H 0.44627 0.00294 0.00345 0.0
H2469 H 0.44865 0.00201 0.90606 0.0
H2470 H 0.44854 0.98701 0.9599 0.0
H2471 H 0.4304 0.97784 0.87675 0.0
H2472 H 0.42922 0.99294 0.82452 0.0
H2473 H 0.41461 0.98631 0.8687 0.0
H2474 H 0.4002 0.02402 0.05697 0.0
H2475 H 0.40479 0.04315 0.97675 0.0
H2476 H 0.43226 0.0191 0.85023 0.0
C2477 C 0.42475 0.97767 0.04421 0.0
C2478 C 0.41849 0.97483 0.11169 0.0
C2479 C 0.4096 0.98422 0.14233 0.0
C2480 C 0.407 0.99629 0.10689 0.0
C2481 C 0.41347 0.9989 0.04115 0.0
C2482 C 0.42223 0.98993 0.01012 0.0
C2483 C 0.42883 0.99585 0.94284 0.0
C2484 C 0.44397 0.99702 0.95375 0.0
C2485 C 0.42554 0.98775 0.87416 0.0
C2486 C 0.4223 0.00946 0.94068 0.0
C2487 C 0.41348 0.01096 -0.00198 0.0
C2488 C 0.40693 0.02292 0.01125 0.0
C2489 C 0.40963 0.03373 0.96543 0.0
C2490 C 0.41875 0.03253 0.9068 0.0
C2491 C 0.42499 0.02017 0.89349 0.0
H2492 H 0.78488 0.82898 0.7596 0.0
H2493 H 0.76735 0.842 0.96432 0.0
H2494 H 0.74586 0.84532 0.90215 0.0
H2495 H 0.76555 0.85155 0.63873 0.0
H2496 H 0.76411 0.83905 0.56854 0.0
H2497 H 0.77845 0.83927 0.62759 0.0
H2498 H 0.77377 0.8147 0.66283 0.0
H2499 H 0.75932 0.81455 0.60496 0.0
H2500 H 0.75776 0.81029 0.70019 0.0
H2501 H 0.7261 0.8454 0.8223 0.0
H2502 H 0.70873 0.84156 0.73036 0.0
H2503 H 0.73868 0.82851 0.57519 0.0
C2504 C 0.77659 0.83277 0.79118 0.0
C2505 C 0.77784 0.83529 0.86696 0.0
C2506 C 0.76668 0.84003 0.90634 0.0
C2507 C 0.75444 0.842 0.8714 0.0
C2508 C 0.75352 0.83926 0.79701 0.0
C2509 C 0.76428 0.83476 0.75719 0.0
C2510 C 0.76033 0.83165 0.67902 0.0
C2511 C 0.76754 0.84093 0.62527 0.0
C2512 C 0.76295 0.81692 0.66073 0.0
C2513 C 0.74556 0.83467 0.68187 0.0
C2514 C 0.74194 0.83923 0.75033 0.0
C2515 C 0.7288 0.84196 0.76833 0.0
C2516 C 0.71901 0.83971 0.71565 0.0
C2517 C 0.72237 0.83477 0.64548 0.0
C2518 C 0.73587 0.83249 0.62788 0.0
H2519 H 0.92119 0.03452 0.499 0.0
H2520 H 0.93365 0.01979 0.71164 0.0
H2521 H 0.93547 0.99725 0.66168 0.0
H2522 H 0.90128 0.00529 0.45171 0.0
H2523 H 0.90585 0.00563 0.35656 0.0
H2524 H 0.90535 0.02088 0.40825 0.0
H2525 H 0.92967 0.02573 0.37157 0.0
H2526 H 0.93043 0.01041 0.32068 0.0
H2527 H 0.94243 0.01365 0.39154 0.0
H2528 H 0.93742 0.9769 0.5907 0.0
H2529 H 0.93712 0.95849 0.50321 0.0
H2530 H 0.92211 0.98501 0.335 0.0
C2531 C 0.9242 0.02653 0.5351 0.0
C2532 C 0.92731 0.029 0.60941 0.0
C2533 C 0.93122 0.01824 0.65468 0.0
C2534 C 0.93233 0.00536 0.6268 0.0
C2535 C 0.92941 0.0033 0.55354 0.0
C2536 C 0.92526 0.01347 0.5082 0.0
C2537 C 0.92259 0.00824 0.4316 0.0
C2538 C 0.90789 0.01012 0.41083 0.0
C2539 C 0.93184 0.0149 0.37555 0.0
C2540 C 0.92598 0.99358 0.44141 0.0
C2541 C 0.92998 0.99111 0.51232 0.0
C2542 C 0.93401 0.9786 0.53544 0.0
C2543 C 0.93367 0.96816 0.48537 0.0
C2544 C 0.92911 0.97015 0.41302 0.0
C2545 C 0.92545 0.98314 0.39023 0.0
H2546 H 0.71879 0.17869 0.25291 0.0
H2547 H 0.73075 0.16799 0.47303 0.0
H2548 H 0.75357 0.16379 0.42928 0.0
H2549 H 0.74006 0.15489 0.15575 0.0
H2550 H 0.74398 0.16641 0.0834 0.0
H2551 H 0.72824 0.16755 0.13014 0.0
H2552 H 0.73307 0.1922 0.1619 0.0
H2553 H 0.74878 0.19117 0.11512 0.0
H2554 H 0.74822 0.19642 0.20914 0.0
H2555 H 0.77498 0.16163 0.36466 0.0
H2556 H 0.79447 0.16294 0.28461 0.0
H2557 H 0.76929 0.1757 0.10484 0.0
C2558 C 0.72617 0.17529 0.29168 0.0
C2559 C 0.72297 0.17358 0.3664 0.0
C2560 C 0.73297 0.16936 0.41565 0.0
C2561 C 0.74594 0.16688 0.39123 0.0
C2562 C 0.74877 0.16873 0.31748 0.0
C2563 C 0.73924 0.17291 0.26835 0.0
C2564 C 0.74522 0.17498 0.193 0.0
C2565 C 0.739 0.16538 0.13729 0.0
C2566 C 0.74374 0.18956 0.16838 0.0
C2567 C 0.75965 0.17149 0.20787 0.0
C2568 C 0.76137 0.16775 0.27993 0.0
C2569 C 0.77377 0.16448 0.30807 0.0
C2570 C 0.7848 0.1653 0.26191 0.0
C2571 C 0.78346 0.16946 0.1882 0.0
C2572 C 0.77064 0.17237 0.16056 0.0
H2573 H 0.58142 0.03796 0.01241 0.0
H2574 H 0.58365 0.02098 0.79463 0.0
H2575 H 0.58642 0.99868 0.84797 0.0
H2576 H 0.60571 0.01374 0.09875 0.0
H2577 H 0.59635 0.01383 0.18273 0.0
H2578 H 0.59672 0.02842 0.12541 0.0
H2579 H 0.57066 0.02786 0.12484 0.0
H2580 H 0.57072 0.01288 0.17873 0.0
H2581 H 0.56233 0.01315 0.09176 0.0
H2582 H 0.58736 0.97834 0.92186 0.0
H2583 H 0.58548 0.96055 0.01255 0.0
H2584 H 0.58216 0.99 0.18552 0.0
C2585 C 0.58275 0.02958 0.97599 0.0
C2586 C 0.58235 0.03126 0.89918 0.0
C2587 C 0.58391 0.01999 0.85349 0.0
C2588 C 0.58557 0.00727 0.88327 0.0
C2589 C 0.58572 0.00595 0.9589 0.0
C2590 C 0.58442 0.01675 0.0049 0.0
C2591 C 0.58409 0.01233 0.0843 0.0
C2592 C 0.59644 0.01738 0.12526 0.0
C2593 C 0.57118 0.01682 0.12209 0.0
C2594 C 0.58464 0.99731 0.0752 0.0
C2595 C 0.58595 0.99396 0.00236 0.0
C2596 C 0.58642 0.98082 0.97911 0.0
C2597 C 0.58529 0.97077 0.03139 0.0
C2598 C 0.58358 0.97384 0.1065 0.0
C2599 C 0.58351 0.98733 0.12876 0.0
H2600 H 0.78791 0.67574 0.74019 0.0
H2601 H 0.77249 0.65824 0.94003 0.0
H2602 H 0.75123 0.65367 0.87847 0.0
H2603 H 0.75906 0.6925 0.69121 0.0
H2604 H 0.76054 0.68976 0.5943 0.0
H2605 H 0.77521 0.69004 0.65043 0.0
H2606 H 0.78176 0.66652 0.60395 0.0
H2607 H 0.76715 0.66639 0.5469 0.0
H2608 H 0.76996 0.65308 0.61111 0.0
H2609 H 0.73112 0.6533 0.80246 0.0
H2610 H 0.71293 0.65723 0.71551 0.0
H2611 H 0.74083 0.67477 0.56216 0.0
C2612 C 0.78016 0.67068 0.77051 0.0
C2613 C 0.78189 0.66731 0.84499 0.0
C2614 C 0.77142 0.66092 0.88305 0.0
C2615 C 0.75931 0.65821 0.84843 0.0
C2616 C 0.75784 0.66189 0.77558 0.0
C2617 C 0.76795 0.66793 0.73675 0.0
C2618 C 0.76333 0.67181 0.66071 0.0
C2619 C 0.76461 0.68692 0.64851 0.0
C2620 C 0.771 0.66398 0.6022 0.0
C2621 C 0.74887 0.66747 0.66414 0.0
C2622 C 0.74604 0.6616 0.7307 0.0
C2623 C 0.73324 0.65766 0.74967 0.0
C2624 C 0.72296 0.65999 0.69997 0.0
C2625 C 0.7255 0.66621 0.63194 0.0
C2626 C 0.73868 0.66973 0.6131 0.0
H2627 H 0.57645 0.4636 0.02585 0.0
H2628 H 0.59048 0.47707 0.81409 0.0
H2629 H 0.59381 0.4996 0.86358 0.0
H2630 H 0.55775 0.49209 0.06524 0.0
H2631 H 0.5614 0.49254 0.16154 0.0
H2632 H 0.56172 0.47693 0.11336 0.0
H2633 H 0.58586 0.47281 0.15631 0.0
H2634 H 0.58562 0.48838 0.20518 0.0
H2635 H 0.59845 0.4852 0.13861 0.0
H2636 H 0.59369 0.52075 0.92988 0.0
H2637 H 0.59032 0.53992 0.01055 0.0
H2638 H 0.57605 0.51354 0.18181 0.0
C2639 C 0.58054 0.47123 0.99058 0.0
C2640 C 0.58331 0.46858 0.91621 0.0
C2641 C 0.58832 0.47888 0.87116 0.0
C2642 C 0.59028 0.4917 0.89883 0.0
C2643 C 0.58717 0.49409 0.97168 0.0
C2644 C 0.58244 0.48419 0.01725 0.0
C2645 C 0.5789 0.48981 0.09182 0.0
C2646 C 0.56406 0.48772 0.10895 0.0
C2647 C 0.58774 0.48368 0.1515 0.0
C2648 C 0.5821 0.50444 0.08015 0.0
C2649 C 0.58698 0.50657 0.01054 0.0
C2650 C 0.59004 0.51923 0.98482 0.0
C2651 C 0.588 0.53007 0.03116 0.0
C2652 C 0.58292 0.52827 0.10272 0.0
C2653 C 0.58007 0.51523 0.12775 0.0
H2654 H 0.73268 0.32973 0.3621 0.0
H2655 H 0.70702 0.33681 0.17518 0.0
H2656 H 0.72662 0.3381 0.0954 0.0
H2657 H 0.76018 0.35157 0.30187 0.0
H2658 H 0.77284 0.34042 0.33543 0.0
H2659 H 0.75685 0.34112 0.37982 0.0
H2660 H 0.75408 0.31568 0.36177 0.0
H2661 H 0.77002 0.31494 0.31718 0.0
H2662 H 0.75542 0.30875 0.27129 0.0
H2663 H 0.74854 0.3369 0.03371 0.0
H2664 H 0.77176 0.33369 0.99414 0.0
H2665 H 0.78363 0.32772 0.21975 0.0
C2666 C 0.73121 0.33178 0.30463 0.0
C2667 C 0.71827 0.33319 0.27515 0.0
C2668 C 0.71679 0.33568 0.19934 0.0
C2669 C 0.72788 0.33647 0.15339 0.0
C2670 C 0.74044 0.33482 0.18382 0.0
C2671 C 0.74222 0.3326 0.25765 0.0
C2672 C 0.75683 0.33054 0.27532 0.0
C2673 C 0.76198 0.34157 0.32611 0.0
C2674 C 0.75922 0.31665 0.30832 0.0
C2675 C 0.76289 0.3317 0.19968 0.0
C2676 C 0.75324 0.33423 0.14788 0.0
C2677 C 0.75623 0.33507 0.07379 0.0
C2678 C 0.76945 0.33319 0.05183 0.0
C2679 C 0.77954 0.33053 0.10378 0.0
C2680 C 0.77618 0.32992 0.17878 0.0
H2681 H 0.92496 0.46931 0.51809 0.0
H2682 H 0.91053 0.48509 0.72427 0.0
H2683 H 0.90674 0.50686 0.66581 0.0
H2684 H 0.94284 0.49759 0.46576 0.0
H2685 H 0.93902 0.49641 0.36985 0.0
H2686 H 0.93924 0.48162 0.42529 0.0
H2687 H 0.91522 0.47623 0.38557 0.0
H2688 H 0.91481 0.49101 0.32991 0.0
H2689 H 0.90223 0.48837 0.39866 0.0
H2690 H 0.90674 0.52733 0.59014 0.0
H2691 H 0.91027 0.54535 0.50096 0.0
H2692 H 0.92419 0.51655 0.34176 0.0
C2693 C 0.92078 0.47727 0.55072 0.0
C2694 C 0.91801 0.47545 0.62592 0.0
C2695 C 0.91271 0.4862 0.66669 0.0
C2696 C 0.91047 0.49861 0.63389 0.0
C2697 C 0.9135 0.50011 0.56013 0.0
C2698 C 0.91847 0.48974 0.51882 0.0
C2699 C 0.92171 0.49429 0.44177 0.0
C2700 C 0.93658 0.49237 0.42473 0.0
C2701 C 0.91296 0.48705 0.38566 0.0
C2702 C 0.9181 0.50892 0.44689 0.0
C2703 C 0.9133 0.512 0.51562 0.0
C2704 C 0.91024 0.52501 0.53575 0.0
C2705 C 0.91232 0.53517 0.48476 0.0
C2706 C 0.91735 0.53231 0.41423 0.0
C2707 C 0.92003 0.51897 0.39466 0.0
H2708 H 0.26905 0.32422 0.3927 0.0
H2709 H 0.2941 0.34093 0.22218 0.0
H2710 H 0.27476 0.3429 0.14172 0.0
H2711 H 0.24919 0.30464 0.27736 0.0
H2712 H 0.23371 0.30739 0.32472 0.0
H2713 H 0.24921 0.30842 0.37356 0.0
H2714 H 0.24331 0.33227 0.41635 0.0
H2715 H 0.22772 0.33128 0.36803 0.0
H2716 H 0.23907 0.34477 0.34958 0.0
H2717 H 0.25382 0.34096 0.0745 0.0
H2718 H 0.23144 0.33654 0.0258 0.0
H2719 H 0.21896 0.3218 0.23801 0.0
C2720 C 0.27037 0.32857 0.33909 0.0
C2721 C 0.28314 0.33238 0.31392 0.0
C2722 C 0.28448 0.33785 0.24285 0.0
C2723 C 0.27353 0.33907 0.19654 0.0
C2724 C 0.2612 0.33489 0.22194 0.0
C2725 C 0.25944 0.32989 0.29163 0.0
C2726 C 0.24509 0.32557 0.30305 0.0
C2727 C 0.24426 0.31062 0.3207 0.0
C2728 C 0.23841 0.33398 0.3628 0.0
C2729 C 0.23926 0.32862 0.22834 0.0
C2730 C 0.24879 0.33402 0.18273 0.0
C2731 C 0.24618 0.33694 0.10986 0.0
C2732 C 0.23346 0.33431 0.0826 0.0
C2733 C 0.22344 0.3289 0.12814 0.0
C2734 C 0.22637 0.32612 0.20222 0.0
H2735 H 0.42427 0.47234 0.97292 0.0
H2736 H 0.42035 0.48709 0.751 0.0
H2737 H 0.41932 0.5101 0.79776 0.0
H2738 H 0.40257 0.49695 0.06048 0.0
H2739 H 0.41296 0.49837 0.14024 0.0
H2740 H 0.41236 0.48292 0.09036 0.0
H2741 H 0.43792 0.48346 0.07499 0.0
H2742 H 0.43865 0.49888 0.12482 0.0
H2743 H 0.4457 0.49786 0.0345 0.0
H2744 H 0.41992 0.5313 0.86628 0.0
H2745 H 0.42249 0.54982 0.95222 0.0
H2746 H 0.4264 0.52172 0.13157 0.0
C2747 C 0.42298 0.48039 0.93421 0.0
C2748 C 0.4223 0.47791 0.8582 0.0
C2749 C 0.42087 0.48875 0.80935 0.0
C2750 C 0.42023 0.50184 0.83542 0.0
C2751 C 0.42109 0.50394 0.91043 0.0
C2752 C 0.42244 0.49355 0.95927 0.0
C2753 C 0.42389 0.49866 0.03687 0.0
C2754 C 0.41225 0.49394 0.0848 0.0
C2755 C 0.43734 0.49446 0.06969 0.0
C2756 C 0.42331 0.51357 0.02377 0.0
C2757 C 0.42159 0.51633 0.95041 0.0
C2758 C 0.42118 0.52928 0.9239 0.0
C2759 C 0.42269 0.53975 0.97342 0.0
C2760 C 0.42465 0.53727 0.04897 0.0
C2761 C 0.42482 0.52396 0.07441 0.0
H2762 H 0.23644 0.6794 0.9158 0.0
H2763 H 0.21121 0.65556 0.77477 0.0
H2764 H 0.23044 0.65019 0.69764 0.0
H2765 H 0.25502 0.69394 0.77823 0.0
H2766 H 0.27082 0.69371 0.82477 0.0
H2767 H 0.25563 0.69411 0.8766 0.0
H2768 H 0.26298 0.67293 0.94571 0.0
H2769 H 0.27813 0.67217 0.8931 0.0
H2770 H 0.26707 0.65807 0.89527 0.0
H2771 H 0.25107 0.64975 0.62652 0.0
H2772 H 0.2726 0.65383 0.56638 0.0
H2773 H 0.28525 0.67765 0.75155 0.0
C2774 C 0.2351 0.67273 0.86996 0.0
C2775 C 0.22234 0.66788 0.85139 0.0
C2776 C 0.22088 0.65943 0.78996 0.0
C2777 C 0.23176 0.65625 0.74591 0.0
C2778 C 0.24411 0.66151 0.764 0.0
C2779 C 0.24594 0.66948 0.82478 0.0
C2780 C 0.26012 0.6747 0.8276 0.0
C2781 C 0.26041 0.69002 0.82671 0.0
C2782 C 0.26751 0.66913 0.89443 0.0
C2783 C 0.26567 0.66892 0.7573 0.0
C2784 C 0.25629 0.66119 0.72225 0.0
C2785 C 0.25862 0.65557 0.65395 0.0
C2786 C 0.27085 0.658 0.62004 0.0
C2787 C 0.28062 0.66598 0.65438 0.0
C2788 C 0.27805 0.67132 0.72451 0.0
H2789 H 0.07542 0.51597 0.34288 0.0
H2790 H 0.0971 0.54368 0.47987 0.0
H2791 H 0.10075 0.52593 0.57089 0.0
H2792 H 0.05851 0.50084 0.49165 0.0
H2793 H 0.05829 0.48438 0.45255 0.0
H2794 H 0.05859 0.49877 0.3939 0.0
H2795 H 0.08035 0.49044 0.3299 0.0
H2796 H 0.07872 0.47576 0.38521 0.0
H2797 H 0.09409 0.48509 0.38608 0.0
H2798 H 0.10067 0.50584 0.65072 0.0
H2799 H 0.09684 0.48458 0.71504 0.0
H2800 H 0.07498 0.46973 0.52759 0.0
C2801 C 0.08127 0.51815 0.39104 0.0
C2802 C 0.08623 0.53108 0.40379 0.0
C2803 C 0.09337 0.53376 0.46879 0.0
C2804 C 0.09549 0.52376 0.52077 0.0
C2805 C 0.09029 0.51115 0.5073 0.0
C2806 C 0.08327 0.50831 0.44429 0.0
C2807 C 0.07767 0.49431 0.44655 0.0
C2808 C 0.06236 0.4946 0.44615 0.0
C2809 C 0.08307 0.48591 0.38321 0.0
C2810 C 0.08297 0.48959 0.51966 0.0
C2811 C 0.09011 0.49953 0.55403 0.0
C2812 C 0.09525 0.49791 0.62407 0.0
C2813 C 0.09299 0.48581 0.66022 0.0
C2814 C 0.08574 0.47545 0.62614 0.0
C2815 C 0.08079 0.47736 0.55456 0.0
H2816 H 0.14081 0.14733 0.9398 0.0
H2817 H 0.17556 0.12191 0.95144 0.0
H2818 H 0.16323 0.10398 0.88772 0.0
H2819 H 0.11621 0.1213 0.96858 0.0
H2820 H 0.10443 0.1285 0.90582 0.0
H2821 H 0.11595 0.13905 0.95397 0.0
H2822 H 0.12422 0.14862 0.83057 0.0
H2823 H 0.11285 0.13797 0.78201 0.0
H2824 H 0.13038 0.13743 0.76146 0.0
H2825 H 0.14721 0.08903 0.8215 0.0
H2826 H 0.12816 0.07766 0.76219 0.0
H2827 H 0.10396 0.11291 0.79195 0.0
C2828 C 0.14571 0.1379 0.92956 0.0
C2829 C 0.15906 0.13587 0.95022 0.0
C2830 C 0.1653 0.12354 0.93569 0.0
C2831 C 0.1584 0.11336 0.89951 0.0
C2832 C 0.14529 0.11574 0.87839 0.0
C2833 C 0.13897 0.12766 0.89327 0.0
C2834 C 0.12485 0.12769 0.86431 0.0
C2835 C 0.11477 0.12922 0.92691 0.0
C2836 C 0.12297 0.13858 0.80613 0.0
C2837 C 0.12422 0.11392 0.83084 0.0
C2838 C 0.13612 0.10719 0.83944 0.0
C2839 C 0.13787 0.09421 0.81417 0.0
C2840 C 0.12708 0.08787 0.78034 0.0
C2841 C 0.11481 0.09455 0.77202 0.0
C2842 C 0.11338 0.10775 0.79688 0.0
H2843 H 0.13958 0.85389 0.03859 0.0
H2844 H 0.17426 0.87907 0.01332 0.0
H2845 H 0.16224 0.89771 0.07266 0.0
H2846 H 0.11475 0.87962 0.00589 0.0
H2847 H 0.10336 0.87313 0.07309 0.0
H2848 H 0.11458 0.86206 0.02628 0.0
H2849 H 0.12362 0.85381 0.15085 0.0
H2850 H 0.11253 0.86497 0.19802 0.0
H2851 H 0.13018 0.86572 0.21505 0.0
H2852 H 0.14663 0.91334 0.13666 0.0
H2853 H 0.1281 0.92525 0.19751 0.0
H2854 H 0.10368 0.88982 0.18326 0.0
C2855 C 0.14452 0.86341 0.04491 0.0
C2856 C 0.15775 0.8652 0.02152 0.0
C2857 C 0.16407 0.87765 0.031 0.0
C2858 C 0.15735 0.88823 0.06468 0.0
C2859 C 0.14434 0.88612 0.08849 0.0
C2860 C 0.13795 0.87405 0.07876 0.0
C2861 C 0.12402 0.87435 0.11034 0.0
C2862 C 0.11356 0.87216 0.05031 0.0
C2863 C 0.12251 0.8641 0.17224 0.0
C2864 C 0.12358 0.88846 0.13941 0.0
C2865 C 0.1354 0.89507 0.12621 0.0
C2866 C 0.13733 0.90827 0.14732 0.0
C2867 C 0.12682 0.91493 0.18189 0.0
C2868 C 0.11461 0.90837 0.19496 0.0
C2869 C 0.11301 0.89495 0.17422 0.0
H2870 H 0.36382 0.8519 0.42477 0.0
H2871 H 0.32828 0.87612 0.44102 0.0
H2872 H 0.34085 0.89571 0.39661 0.0
H2873 H 0.38732 0.87784 0.48189 0.0
H2874 H 0.40006 0.87247 0.41921 0.0
H2875 H 0.38837 0.86058 0.45549 0.0
H2876 H 0.38194 0.85372 0.32381 0.0
H2877 H 0.39346 0.86574 0.28712 0.0
H2878 H 0.37619 0.86625 0.26073 0.0
H2879 H 0.3568 0.91222 0.34503 0.0
H2880 H 0.37585 0.92535 0.29865 0.0
H2881 H 0.40127 0.89065 0.31601 0.0
C2882 C 0.35882 0.86141 0.42001 0.0
C2883 C 0.34516 0.86264 0.43614 0.0
C2884 C 0.33878 0.87511 0.42883 0.0
C2885 C 0.34581 0.88623 0.40348 0.0
C2886 C 0.35921 0.88467 0.38605 0.0
C2887 C 0.36572 0.87264 0.39471 0.0
C2888 C 0.38015 0.87368 0.37116 0.0
C2889 C 0.38953 0.87099 0.4358 0.0
C2890 C 0.3831 0.86429 0.30688 0.0
C2891 C 0.3807 0.88814 0.34759 0.0
C2892 C 0.36848 0.89426 0.35645 0.0
C2893 C 0.36643 0.90758 0.33824 0.0
C2894 C 0.37725 0.91493 0.3118 0.0
C2895 C 0.38991 0.90896 0.30425 0.0
C2896 C 0.39162 0.89536 0.32122 0.0
H2897 H 0.40046 0.11507 0.69081 0.0
H2898 H 0.37663 0.07919 0.70047 0.0
H2899 H 0.35791 0.09105 0.64101 0.0
H2900 H 0.37362 0.13849 0.72566 0.0
H2901 H 0.38003 0.15082 0.66329 0.0
H2902 H 0.39126 0.13956 0.70866 0.0
H2903 H 0.40058 0.13213 0.58316 0.0
H2904 H 0.38927 0.14327 0.53737 0.0
H2905 H 0.38934 0.12579 0.51485 0.0
H2906 H 0.342 0.10674 0.5794 0.0
H2907 H 0.32968 0.12549 0.52264 0.0
H2908 H 0.36402 0.15102 0.55042 0.0
C2909 C 0.39122 0.10982 0.68097 0.0
C2910 C 0.38983 0.0963 0.70006 0.0
C2911 C 0.37774 0.08959 0.6861 0.0
C2912 C 0.36713 0.09623 0.65232 0.0
C2913 C 0.36884 0.10954 0.63288 0.0
C2914 C 0.38056 0.11629 0.64691 0.0
C2915 C 0.37987 0.13052 0.61959 0.0
C2916 C 0.38128 0.14043 0.68309 0.0
C2917 C 0.39039 0.13307 0.56022 0.0
C2918 C 0.36595 0.13072 0.58805 0.0
C2919 C 0.35975 0.11852 0.59628 0.0
C2920 C 0.34676 0.11633 0.5724 0.0
C2921 C 0.33988 0.12695 0.54009 0.0
C2922 C 0.34604 0.1395 0.53184 0.0
C2923 C 0.35924 0.1414 0.55554 0.0
H2924 H 0.86301 0.85382 0.05977 0.0
H2925 H 0.83014 0.87946 7e-05 0.0
H2926 H 0.84288 0.89918 0.04172 0.0
H2927 H 0.8714 0.87058 0.22242 0.0
H2928 H 0.88913 0.86849 0.21316 0.0
H2929 H 0.87799 0.85655 0.17275 0.0
H2930 H 0.88885 0.86038 0.04613 0.0
H2931 H 0.90016 0.87221 0.08634 0.0
H2932 H 0.88994 0.87704 0.00993 0.0
H2933 H 0.85854 0.91577 0.09749 0.0
H2934 H 0.87655 0.92833 0.159 0.0
H2935 H 0.89927 0.89192 0.18266 0.0
C2936 C 0.8587 0.86365 0.05412 0.0
C2937 C 0.84575 0.8653 0.02609 0.0
C2938 C 0.84015 0.87817 0.02073 0.0
C2939 C 0.84728 0.88936 0.04441 0.0
C2940 C 0.85997 0.88743 0.07328 0.0
C2941 C 0.86568 0.87492 0.07778 0.0
C2942 C 0.87922 0.87554 0.11391 0.0
C2943 C 0.87944 0.8673 0.18476 0.0
C2944 C 0.89019 0.87103 0.0609 0.0
C2945 C 0.88017 0.89031 0.12974 0.0
C2946 C 0.86897 0.89699 0.10572 0.0
C2947 C 0.86741 0.91067 0.11582 0.0
C2948 C 0.87765 0.91771 0.1507 0.0
C2949 C 0.88924 0.91106 0.17474 0.0
C2950 C 0.89047 0.89719 0.16452 0.0
H2951 H 0.85849 0.14724 0.91039 0.0
H2952 H 0.8373 0.12153 0.06051 0.0
H2953 H 0.84947 0.10195 0.0117 0.0
H2954 H 0.86045 0.12436 0.75796 0.0
H2955 H 0.87711 0.1292 0.73295 0.0
H2956 H 0.86621 0.14101 0.77661 0.0
H2957 H 0.88368 0.14483 0.8785 0.0
H2958 H 0.89467 0.13313 0.83483 0.0
H2959 H 0.88997 0.13075 0.92891 0.0
H2960 H 0.86364 0.08528 0.94475 0.0
H2961 H 0.8808 0.07293 0.87548 0.0
H2962 H 0.89409 0.10982 0.77641 0.0
C2963 C 0.85645 0.13745 0.93259 0.0
C2964 C 0.84701 0.13572 0.98867 0.0
C2965 C 0.84456 0.1229 0.01742 0.0
C2966 C 0.85135 0.11178 0.98979 0.0
C2967 C 0.86061 0.11376 0.9341 0.0
C2968 C 0.86332 0.1263 0.90654 0.0
C2969 C 0.87432 0.12582 0.85003 0.0
C2970 C 0.86921 0.13037 0.77494 0.0
C2971 C 0.88637 0.13412 0.87456 0.0
C2972 C 0.87743 0.11106 0.85035 0.0
C2973 C 0.86925 0.10426 0.89827 0.0
C2974 C 0.87018 0.09052 0.90762 0.0
C2975 C 0.87996 0.08361 0.86833 0.0
C2976 C 0.88885 0.09048 0.82173 0.0
C2977 C 0.88739 0.10434 0.81166 0.0
H2978 H 0.64419 0.15263 0.60687 0.0
H2979 H 0.66539 0.12746 0.45409 0.0
H2980 H 0.65296 0.10779 0.49943 0.0
H2981 H 0.64213 0.12902 0.75574 0.0
H2982 H 0.62551 0.13382 0.78175 0.0
H2983 H 0.63644 0.14579 0.73959 0.0
H2984 H 0.61893 0.1502 0.63864 0.0
H2985 H 0.60791 0.13834 0.68081 0.0
H2986 H 0.61254 0.13641 0.58633 0.0
H2987 H 0.63859 0.09098 0.56285 0.0
H2988 H 0.62152 0.07832 0.63068 0.0
H2989 H 0.60846 0.11467 0.73644 0.0
C2990 C 0.64617 0.14294 0.58324 0.0
C2991 C 0.65567 0.14142 0.52719 0.0
C2992 C 0.65805 0.12871 0.49686 0.0
C2993 C 0.65112 0.11753 0.52256 0.0
C2994 C 0.6418 0.11932 0.57813 0.0
C2995 C 0.63918 0.13172 0.60752 0.0
C2996 C 0.62821 0.13101 0.66418 0.0
C2997 C 0.63339 0.13515 0.73979 0.0
C2998 C 0.61618 0.13949 0.64108 0.0
C2999 C 0.62501 0.11627 0.66183 0.0
C3000 C 0.63311 0.1097 0.61261 0.0
C3001 C 0.63211 0.09603 0.60105 0.0
C3002 C 0.62237 0.08895 0.63958 0.0
C3003 C 0.6136 0.09556 0.68797 0.0
C3004 C 0.61509 0.10936 0.70004 0.0
H3005 H 0.60379 0.89138 0.31514 0.0
H3006 H 0.6286 0.92665 0.30922 0.0
H3007 H 0.64716 0.91394 0.36397 0.0
H3008 H 0.61536 0.87815 0.48322 0.0
H3009 H 0.61534 0.861 0.45424 0.0
H3010 H 0.60397 0.87269 0.4134 0.0
H3011 H 0.613 0.86693 0.28471 0.0
H3012 H 0.62422 0.85503 0.32505 0.0
H3013 H 0.63061 0.86807 0.26722 0.0
H3014 H 0.66227 0.89804 0.42764 0.0
H3015 H 0.67457 0.87878 0.47799 0.0
H3016 H 0.64075 0.85323 0.43472 0.0
C3017 C 0.61321 0.89631 0.32445 0.0
C3018 C 0.61479 0.91 0.30935 0.0
C3019 C 0.62722 0.9162 0.32179 0.0
C3020 C 0.63777 0.90908 0.35287 0.0
C3021 C 0.63578 0.89571 0.36977 0.0
C3022 C 0.62394 0.88927 0.35453 0.0
C3023 C 0.62461 0.87472 0.37641 0.0
C3024 C 0.6142 0.87146 0.43532 0.0
C3025 C 0.62302 0.86565 0.30935 0.0
C3026 C 0.63861 0.87404 0.40697 0.0
C3027 C 0.64479 0.88632 0.40335 0.0
C3028 C 0.65763 0.88833 0.42968 0.0
C3029 C 0.66452 0.87738 0.45815 0.0
C3030 C 0.65865 0.86459 0.4587 0.0
C3031 C 0.64543 0.86295 0.43445 0.0
H3032 H 0.60624 0.60849 0.31937 0.0
H3033 H 0.63073 0.57306 0.33121 0.0
H3034 H 0.64905 0.58631 0.38503 0.0
H3035 H 0.63248 0.6308 0.26741 0.0
H3036 H 0.62612 0.6446 0.31975 0.0
H3037 H 0.61488 0.63219 0.28484 0.0
H3038 H 0.60595 0.62804 0.41564 0.0
H3039 H 0.61724 0.64038 0.45105 0.0
H3040 H 0.61742 0.6237 0.48744 0.0
H3041 H 0.66477 0.6035 0.43457 0.0
H3042 H 0.67716 0.62365 0.47287 0.0
H3043 H 0.64251 0.64796 0.42841 0.0
C3044 C 0.61548 0.60358 0.33352 0.0
C3045 C 0.61712 0.58978 0.32229 0.0
C3046 C 0.6293 0.58361 0.34074 0.0
C3047 C 0.63972 0.59105 0.37108 0.0
C3048 C 0.63777 0.60464 0.38219 0.0
C3049 C 0.62598 0.61087 0.36371 0.0
C3050 C 0.62658 0.62568 0.37928 0.0
C3051 C 0.62492 0.63379 0.30861 0.0
C3052 C 0.61618 0.62968 0.43678 0.0
C3053 C 0.64057 0.62682 0.40917 0.0
C3054 C 0.64684 0.61456 0.41058 0.0
C3055 C 0.65995 0.61313 0.43405 0.0
C3056 C 0.66689 0.62457 0.45571 0.0
C3057 C 0.66069 0.6372 0.45365 0.0
C3058 C 0.64735 0.63833 0.43101 0.0
H3059 H 0.65908 0.37965 0.50948 0.0
H3060 H 0.63769 0.34221 0.50684 0.0
H3061 H 0.61939 0.35244 0.578 0.0
H3062 H 0.65015 0.38951 0.69082 0.0
H3063 H 0.64828 0.40691 0.66887 0.0
H3064 H 0.65962 0.39671 0.61714 0.0
H3065 H 0.64761 0.40338 0.49736 0.0
H3066 H 0.63629 0.41365 0.5487 0.0
H3067 H 0.62992 0.40083 0.48947 0.0
H3068 H 0.60385 0.36649 0.65227 0.0
H3069 H 0.59128 0.38397 0.71828 0.0
H3070 H 0.62245 0.41248 0.67059 0.0
C3071 C 0.65047 0.3737 0.52368 0.0
C3072 C 0.64965 0.36021 0.50292 0.0
C3073 C 0.63834 0.35261 0.52218 0.0
C3074 C 0.62798 0.35831 0.56268 0.0
C3075 C 0.62908 0.37163 0.58296 0.0
C3076 C 0.63997 0.37929 0.56358 0.0
C3077 C 0.63858 0.39342 0.5916 0.0
C3078 C 0.64983 0.39683 0.64531 0.0
C3079 C 0.63807 0.40341 0.52798 0.0
C3080 C 0.62528 0.39248 0.63017 0.0
C3081 C 0.62 0.37981 0.6248 0.0
C3082 C 0.60785 0.37646 0.6566 0.0
C3083 C 0.60082 0.38639 0.6941 0.0
C3084 C 0.60594 0.39947 0.69899 0.0
C3085 C 0.61834 0.40253 0.66709 0.0
H3086 H 0.87758 0.40958 0.77452 0.0
H3087 H 0.91448 0.38747 0.78888 0.0
H3088 H 0.9024 0.36836 0.84321 0.0
H3089 H 0.86426 0.39923 0.94247 0.0
H3090 H 0.8473 0.39803 0.91135 0.0
H3091 H 0.85859 0.40947 0.86785 0.0
H3092 H 0.85386 0.39859 0.74228 0.0
H3093 H 0.84241 0.3872 0.78523 0.0
H3094 H 0.85604 0.38087 0.73146 0.0
H3095 H 0.88662 0.3526 0.90582 0.0
H3096 H 0.86783 0.34036 0.9623 0.0
H3097 H 0.84113 0.37261 0.90577 0.0
C3098 C 0.88301 0.40059 0.788 0.0
C3099 C 0.89689 0.39986 0.77764 0.0
C3100 C 0.9038 0.38807 0.79605 0.0
C3101 C 0.89704 0.37724 0.82717 0.0
C3102 C 0.88337 0.37839 0.83878 0.0
C3103 C 0.87639 0.38969 0.8188 0.0
C3104 C 0.86182 0.38853 0.83897 0.0
C3105 C 0.85776 0.39946 0.8934 0.0
C3106 C 0.85301 0.38881 0.77039 0.0
C3107 C 0.86172 0.37491 0.87451 0.0
C3108 C 0.87426 0.36924 0.87397 0.0
C3109 C 0.87674 0.35688 0.90584 0.0
C3110 C 0.86607 0.35005 0.93809 0.0
C3111 C 0.85315 0.35558 0.93779 0.0
C3112 C 0.85096 0.36818 0.90599 0.0
H3113 H 0.87893 0.59284 0.19174 0.0
H3114 H 0.91533 0.61591 0.19521 0.0
H3115 H 0.90372 0.63465 0.13426 0.0
H3116 H 0.868 0.60343 0.01463 0.0
H3117 H 0.85064 0.60389 0.03907 0.0
H3118 H 0.86172 0.59254 0.0849 0.0
H3119 H 0.85487 0.60245 0.21007 0.0
H3120 H 0.84369 0.61376 0.16467 0.0
H3121 H 0.85633 0.62014 0.22496 0.0
H3122 H 0.88807 0.65069 0.07147 0.0
H3123 H 0.86925 0.66327 0.01758 0.0
H3124 H 0.84339 0.62931 0.05126 0.0
C3125 C 0.8844 0.60187 0.17962 0.0
C3126 C 0.89798 0.60303 0.19772 0.0
C3127 C 0.90488 0.61496 0.1819 0.0
C3128 C 0.89839 0.62557 0.14701 0.0
C3129 C 0.88503 0.62404 0.12842 0.0
C3130 C 0.8781 0.61251 0.14455 0.0
C3131 C 0.86382 0.61336 0.11877 0.0
C3132 C 0.86088 0.60267 0.0609 0.0
C3133 C 0.85411 0.61237 0.18348 0.0
C3134 C 0.86378 0.62717 0.08575 0.0
C3135 C 0.87611 0.63318 0.09169 0.0
C3136 C 0.87839 0.64608 0.06633 0.0
C3137 C 0.86771 0.65311 0.03547 0.0
C3138 C 0.85498 0.6472 0.03042 0.0
C3139 C 0.85307 0.63401 0.05469 0.0
H3140 H 0.35732 0.35485 0.59553 0.0
H3141 H 0.33701 0.37958 0.43711 0.0
H3142 H 0.34886 0.39945 0.48418 0.0
H3143 H 0.35866 0.37893 0.74412 0.0
H3144 H 0.37518 0.37419 0.77207 0.0
H3145 H 0.36438 0.36211 0.72992 0.0
H3146 H 0.38223 0.35743 0.63108 0.0
H3147 H 0.39311 0.3694 0.67322 0.0
H3148 H 0.3888 0.37107 0.57817 0.0
H3149 H 0.36287 0.41644 0.548 0.0
H3150 H 0.38008 0.42918 0.61422 0.0
H3151 H 0.39263 0.39318 0.72521 0.0
C3152 C 0.35537 0.3645 0.57136 0.0
C3153 C 0.34628 0.36586 0.51325 0.0
C3154 C 0.34398 0.37849 0.48179 0.0
C3155 C 0.35059 0.38978 0.50842 0.0
C3156 C 0.35953 0.38817 0.56595 0.0
C3157 C 0.36208 0.37583 0.59644 0.0
C3158 C 0.37287 0.37669 0.65405 0.0
C3159 C 0.36744 0.37275 0.72951 0.0
C3160 C 0.38497 0.36814 0.63283 0.0
C3161 C 0.37608 0.39142 0.65073 0.0
C3162 C 0.36809 0.39788 0.60047 0.0
C3163 C 0.36923 0.41148 0.58719 0.0
C3164 C 0.37902 0.41862 0.62485 0.0
C3165 C 0.38773 0.41211 0.67396 0.0
C3166 C 0.38605 0.39839 0.68816 0.0
H3167 H 0.37987 0.59286 0.29561 0.0
H3168 H 0.41416 0.61877 0.27667 0.0
H3169 H 0.40215 0.63639 0.34466 0.0
H3170 H 0.35495 0.61825 0.27415 0.0
H3171 H 0.3437 0.61092 0.33943 0.0
H3172 H 0.35504 0.6005 0.28922 0.0
H3173 H 0.36433 0.59116 0.41095 0.0
H3174 H 0.35308 0.60164 0.46153 0.0
H3175 H 0.37072 0.6025 0.47862 0.0
H3176 H 0.38632 0.65114 0.41421 0.0
H3177 H 0.36731 0.66242 0.4741 0.0
H3178 H 0.34367 0.62659 0.45144 0.0
C3179 C 0.38482 0.60225 0.30609 0.0
C3180 C 0.3979 0.60454 0.2814 0.0
C3181 C 0.40408 0.61694 0.29506 0.0
C3182 C 0.39738 0.62693 0.33393 0.0
C3183 C 0.38454 0.62431 0.35872 0.0
C3184 C 0.37828 0.6123 0.34502 0.0
C3185 C 0.36437 0.61207 0.37675 0.0
C3186 C 0.3539 0.61034 0.31628 0.0
C3187 C 0.36305 0.6012 0.43545 0.0
C3188 C 0.36374 0.62585 0.41002 0.0
C3189 C 0.37549 0.63274 0.39932 0.0
C3190 C 0.37711 0.64582 0.42327 0.0
C3191 C 0.36632 0.65211 0.45755 0.0
C3192 C 0.35413 0.64531 0.46733 0.0
C3193 C 0.35294 0.63195 0.4446 0.0
H3194 H 0.1022 0.61101 0.15942 0.0
H3195 H 0.12894 0.57856 0.21175 0.0
H3196 H 0.14801 0.5918 0.16599 0.0
H3197 H 0.11816 0.62103 0.99357 0.0
H3198 H 0.1156 0.6386 0.00786 0.0
H3199 H 0.10411 0.62673 0.04619 0.0
H3200 H 0.10798 0.63659 0.17517 0.0
H3201 H 0.11939 0.64857 0.13715 0.0
H3202 H 0.12469 0.63779 0.21027 0.0
H3203 H 0.16393 0.60823 0.1114 0.0
H3204 H 0.17596 0.62739 0.05744 0.0
H3205 H 0.13897 0.64933 0.04191 0.0
C3206 C 0.11211 0.6068 0.16159 0.0
C3207 C 0.11422 0.59381 0.18834 0.0
C3208 C 0.12723 0.5885 0.19067 0.0
C3209 C 0.13807 0.59593 0.16489 0.0
C3210 C 0.13567 0.60865 0.13743 0.0
C3211 C 0.12304 0.6141 0.13607 0.0
C3212 C 0.12319 0.62798 0.10363 0.0
C3213 C 0.11476 0.62861 0.03366 0.0
C3214 C 0.11854 0.63834 0.15992 0.0
C3215 C 0.13787 0.62947 0.08683 0.0
C3216 C 0.14488 0.61818 0.1066 0.0
C3217 C 0.15857 0.61715 0.09613 0.0
C3218 C 0.16531 0.62803 0.0656 0.0
C3219 C 0.15835 0.63976 0.04646 0.0
C3220 C 0.14446 0.64043 0.05634 0.0
H3221 H 0.1397 0.35237 0.94375 0.0
H3222 H 0.176 0.37561 0.94617 0.0
H3223 H 0.16374 0.39506 0.8969 0.0
H3224 H 0.12677 0.36564 0.77568 0.0
H3225 H 0.10969 0.36568 0.80581 0.0
H3226 H 0.12122 0.35369 0.84256 0.0
H3227 H 0.11578 0.3616 0.97387 0.0
H3228 H 0.10414 0.37352 0.93757 0.0
H3229 H 0.11742 0.379 -0.0036 0.0
H3230 H 0.1476 0.41184 0.84799 0.0
H3231 H 0.12838 0.42518 0.80546 0.0
H3232 H 0.10259 0.39096 0.83185 0.0
C3233 C 0.14498 0.36162 0.93426 0.0
C3234 C 0.15872 0.36264 0.94848 0.0
C3235 C 0.16543 0.37477 0.93534 0.0
C3236 C 0.15858 0.3858 0.90732 0.0
C3237 C 0.14503 0.38446 0.89273 0.0
C3238 C 0.13828 0.3727 0.9059 0.0
C3239 C 0.12373 0.37391 0.88521 0.0
C3240 C 0.12015 0.36415 0.82365 0.0
C3241 C 0.11474 0.37189 0.95226 0.0
C3242 C 0.12334 0.3882 0.8587 0.0
C3243 C 0.13575 0.39409 0.86345 0.0
C3244 C 0.13786 0.40733 0.84373 0.0
C3245 C 0.12695 0.4148 0.81955 0.0
C3246 C 0.11416 0.409 0.81519 0.0
C3247 C 0.11235 0.39551 0.83409 0.0
loop_
_geom_bond_atom_site_label_1
_geom_bond_atom_site_label_2
_geom_bond_distance
_geom_bond_site_symmetry_2
_ccdc_geom_bond_type
Co0 O3 1.970 . S
Co0 N17 1.989 . S
Co0 O25 1.967 . S
Co0 O32 1.920 . S
Co1 O4 1.966 . S
Co1 N10 2.022 . S
Co1 N18 1.993 . S
Co1 O26 1.941 . S
C2 O3 1.258 . S
C2 O4 1.263 1_554 S
O3 Co0 1.970 . S
O3 C2 1.258 . S
O4 Co1 1.966 . S
O4 C2 1.263 1_556 S
C5 O6 1.235 . S
C5 O32 1.289 . S
O6 C5 1.235 . S
C7 C9 1.400 . S
C7 N10 1.351 . S
C7 C12 1.501 . S
C8 C9 1.387 . S
C8 N11 1.341 . S
C9 C7 1.400 . S
C9 C8 1.387 . S
N10 Co1 2.022 . S
N10 C7 1.351 . S
N10 N11 1.365 . S
N11 C8 1.341 . S
N11 N10 1.365 . S
N11 H31 0.862 . S
C12 C7 1.501 . S
C12 H13 0.961 . S
C12 H14 0.961 . S
C12 H15 0.960 . S
H13 C12 0.961 . S
H14 C12 0.961 . S
H15 C12 0.960 . S
C16 N17 1.342 . S
C16 C20 1.401 1_554 S
C16 C21 1.499 . S
N17 Co0 1.989 . S
N17 C16 1.342 . S
N17 N18 1.388 1_554 S
N18 Co1 1.993 . S
N18 N17 1.388 1_556 S
N18 C19 1.346 . S
C19 N18 1.346 . S
C19 C20 1.396 . S
C19 C29 1.510 . S
C20 C16 1.401 1_556 S
C20 C19 1.396 . S
C21 C16 1.499 . S
C21 H22 0.959 . S
C21 H23 0.960 . S
C21 H24 0.961 . S
H22 C21 0.959 . S
H23 C21 0.960 . S
H24 C21 0.961 . S
O25 Co0 1.967 . S
O25 C33 1.258 . S
O26 Co1 1.941 . S
O26 C33 1.266 1_556 S
H27 C29 0.959 . S
H28 C29 0.961 . S
C29 C19 1.510 . S
C29 H27 0.959 . S
C29 H28 0.961 . S
C29 H30 0.960 . S
H30 C29 0.960 . S
H31 N11 0.862 . S
O32 Co0 1.920 . S
O32 C5 1.289 . S
C33 O25 1.258 . S
C33 O26 1.266 1_554 S
Co34 O37 1.970 . S
Co34 N51 1.989 . S
Co34 O59 1.967 . S
Co34 O66 1.920 . S
Co35 O38 1.966 . S
Co35 N44 2.022 . S
Co35 N52 1.993 . S
Co35 O60 1.941 . S
C36 O37 1.258 . S
C36 O38 1.263 . S
O37 Co34 1.970 . S
O37 C36 1.258 . S
O38 Co35 1.966 . S
O38 C36 1.263 . S
C39 O40 1.235 . S
C39 O66 1.289 . S
O40 C39 1.235 . S
C41 C43 1.400 1_554 S
C41 N44 1.351 . S
C41 C46 1.501 . S
C42 C43 1.387 . S
C42 N45 1.341 1_556 S
C43 C41 1.400 1_556 S
C43 C42 1.387 . S
N44 Co35 2.022 . S
N44 C41 1.351 . S
N44 N45 1.365 . S
N45 C42 1.341 1_554 S
N45 N44 1.365 . S
N45 H65 0.862 . S
C46 C41 1.501 . S
C46 H47 0.961 . S
C46 H48 0.961 . S
C46 H49 0.960 . S
H47 C46 0.961 . S
H48 C46 0.961 . S
H49 C46 0.960 . S
C50 N51 1.342 . S
C50 C54 1.401 . S
C50 C55 1.499 . S
N51 Co34 1.989 . S
N51 C50 1.342 . S
N51 N52 1.388 . S
N52 Co35 1.993 . S
N52 N51 1.388 . S
N52 C53 1.346 . S
C53 N52 1.346 . S
C53 C54 1.396 . S
C53 C63 1.510 . S
C54 C50 1.401 . S
C54 C53 1.396 . S
C55 C50 1.499 . S
C55 H56 0.959 . S
C55 H57 0.960 . S
C55 H58 0.961 . S
H56 C55 0.959 . S
H57 C55 0.960 . S
H58 C55 0.961 . S
O59 Co34 1.967 . S
O59 C67 1.258 . S
O60 Co35 1.941 . S
O60 C67 1.266 . S
H61 C63 0.959 . S
H62 C63 0.961 . S
C63 C53 1.510 . S
C63 H61 0.959 . S
C63 H62 0.961 . S
C63 H64 0.960 . S
H64 C63 0.960 . S
H65 N45 0.862 . S
O66 Co34 1.920 . S
O66 C39 1.289 . S
C67 O59 1.258 . S
C67 O60 1.266 . S
Co68 O71 1.970 . S
Co68 N85 1.989 . S
Co68 O93 1.967 . S
Co68 O100 1.920 . S
Co69 O72 1.966 . S
Co69 N78 2.022 . S
Co69 N86 1.993 . S
Co69 O94 1.941 . S
C70 O71 1.258 . S
C70 O72 1.263 . S
O71 Co68 1.970 . S
O71 C70 1.258 . S
O72 Co69 1.966 . S
O72 C70 1.263 . S
C73 O74 1.235 . S
C73 O100 1.289 . S
O74 C73 1.235 . S
C75 C77 1.400 . S
C75 N78 1.351 . S
C75 C80 1.501 . S
C76 C77 1.387 . S
C76 N79 1.341 . S
C77 C75 1.400 . S
C77 C76 1.387 . S
N78 Co69 2.022 . S
N78 C75 1.351 . S
N78 N79 1.365 . S
N79 C76 1.341 . S
N79 N78 1.365 . S
N79 H99 0.862 . S
C80 C75 1.501 . S
C80 H81 0.961 . S
C80 H82 0.961 . S
C80 H83 0.960 . S
H81 C80 0.961 . S
H82 C80 0.961 . S
H83 C80 0.960 . S
C84 N85 1.342 . S
C84 C88 1.401 . S
C84 C89 1.499 . S
N85 Co68 1.989 . S
N85 C84 1.342 . S
N85 N86 1.388 . S
N86 Co69 1.993 . S
N86 N85 1.388 . S
N86 C87 1.346 . S
C87 N86 1.346 . S
C87 C88 1.396 . S
C87 C97 1.510 . S
C88 C84 1.401 . S
C88 C87 1.396 . S
C89 C84 1.499 . S
C89 H90 0.959 . S
C89 H91 0.960 . S
C89 H92 0.961 . S
H90 C89 0.959 . S
H91 C89 0.960 . S
H92 C89 0.961 . S
O93 Co68 1.967 . S
O93 C101 1.258 . S
O94 Co69 1.941 . S
O94 C101 1.266 . S
H95 C97 0.959 . S
H96 C97 0.961 . S
C97 C87 1.510 . S
C97 H95 0.959 . S
C97 H96 0.961 . S
C97 H98 0.960 . S
H98 C97 0.960 . S
H99 N79 0.862 . S
O100 Co68 1.920 . S
O100 C73 1.289 . S
C101 O93 1.258 . S
C101 O94 1.266 . S
Co102 O105 1.970 . S
Co102 N119 1.989 . S
Co102 O127 1.967 . S
Co102 O134 1.920 . S
Co103 O106 1.966 . S
Co103 N112 2.022 . S
Co103 N120 1.993 . S
Co103 O128 1.941 . S
C104 O105 1.258 . S
C104 O106 1.263 . S
O105 Co102 1.970 . S
O105 C104 1.258 . S
O106 Co103 1.966 . S
O106 C104 1.263 . S
C107 O108 1.239 . S
C107 O134 1.292 . S
O108 C107 1.239 . S
C109 C111 1.400 . S
C109 N112 1.351 . S
C109 C114 1.501 . S
C110 C111 1.387 . S
C110 N113 1.341 . S
C111 C109 1.400 . S
C111 C110 1.387 . S
N112 Co103 2.022 . S
N112 C109 1.351 . S
N112 N113 1.365 . S
N113 C110 1.341 . S
N113 N112 1.365 . S
N113 H133 0.862 . S
C114 C109 1.501 . S
C114 H115 0.961 . S
C114 H116 0.961 . S
C114 H117 0.960 . S
H115 C114 0.961 . S
H116 C114 0.961 . S
H117 C114 0.960 . S
C118 N119 1.342 . S
C118 C122 1.401 . S
C118 C123 1.499 . S
N119 Co102 1.989 . S
N119 C118 1.342 . S
N119 N120 1.388 . S
N120 Co103 1.993 . S
N120 N119 1.388 . S
N120 C121 1.346 . S
C121 N120 1.346 . S
C121 C122 1.396 . S
C121 C131 1.510 . S
C122 C118 1.401 . S
C122 C121 1.396 . S
C123 C118 1.499 . S
C123 H124 0.959 . S
C123 H125 0.960 . S
C123 H126 0.961 . S
H124 C123 0.959 . S
H125 C123 0.960 . S
H126 C123 0.961 . S
O127 Co102 1.967 . S
O127 C135 1.258 . S
O128 Co103 1.941 . S
O128 C135 1.266 . S
H129 C131 0.959 . S
H130 C131 0.961 . S
C131 C121 1.510 . S
C131 H129 0.959 . S
C131 H130 0.961 . S
C131 H132 0.960 . S
H132 C131 0.960 . S
H133 N113 0.862 . S
O134 Co102 1.920 . S
O134 C107 1.292 . S
C135 O127 1.258 . S
C135 O128 1.266 . S
Co136 O139 1.970 . S
Co136 N153 1.989 . S
Co136 O161 1.967 . S
Co136 O168 1.920 . S
Co137 O140 1.966 . S
Co137 N146 2.022 . S
Co137 N154 1.993 . S
Co137 O162 1.941 . S
C138 O139 1.258 . S
C138 O140 1.263 1_556 S
O139 Co136 1.970 . S
O139 C138 1.258 . S
O140 Co137 1.966 . S
O140 C138 1.263 1_554 S
C141 O142 1.235 . S
C141 O168 1.289 . S
O142 C141 1.235 . S
C143 C145 1.400 . S
C143 N146 1.351 . S
C143 C148 1.501 . S
C144 C145 1.387 . S
C144 N147 1.341 . S
C145 C143 1.400 . S
C145 C144 1.387 . S
N146 Co137 2.022 . S
N146 C143 1.351 . S
N146 N147 1.365 . S
N147 C144 1.341 . S
N147 N146 1.365 . S
N147 H167 0.862 . S
C148 C143 1.501 . S
C148 H149 0.961 . S
C148 H150 0.961 . S
C148 H151 0.960 . S
H149 C148 0.961 . S
H150 C148 0.961 . S
H151 C148 0.960 . S
C152 N153 1.342 . S
C152 C156 1.401 1_556 S
C152 C157 1.499 . S
N153 Co136 1.989 . S
N153 C152 1.342 . S
N153 N154 1.388 1_556 S
N154 Co137 1.993 . S
N154 N153 1.388 1_554 S
N154 C155 1.346 . S
C155 N154 1.346 . S
C155 C156 1.396 . S
C155 C165 1.510 . S
C156 C152 1.401 1_554 S
C156 C155 1.396 . S
C157 C152 1.499 . S
C157 H158 0.959 . S
C157 H159 0.960 . S
C157 H160 0.961 . S
H158 C157 0.959 . S
H159 C157 0.960 . S
H160 C157 0.961 . S
O161 Co136 1.967 . S
O161 C169 1.258 . S
O162 Co137 1.941 . S
O162 C169 1.266 1_554 S
H163 C165 0.959 . S
H164 C165 0.961 . S
C165 C155 1.510 . S
C165 H163 0.959 . S
C165 H164 0.961 . S
C165 H166 0.960 . S
H166 C165 0.960 . S
H167 N147 0.862 . S
O168 Co136 1.920 . S
O168 C141 1.289 . S
C169 O161 1.258 . S
C169 O162 1.266 1_556 S
Co170 O173 1.970 . S
Co170 N187 1.989 . S
Co170 O195 1.967 . S
Co170 O202 1.920 . S
Co171 O174 1.966 . S
Co171 N180 2.022 . S
Co171 N188 1.993 . S
Co171 O196 1.941 . S
C172 O173 1.258 . S
C172 O174 1.263 . S
O173 Co170 1.970 . S
O173 C172 1.258 . S
O174 Co171 1.966 . S
O174 C172 1.263 . S
C175 O176 1.239 . S
C175 O202 1.292 . S
O176 C175 1.239 . S
C177 C179 1.400 . S
C177 N180 1.351 . S
C177 C182 1.501 . S
C178 C179 1.387 . S
C178 N181 1.341 . S
C179 C177 1.400 . S
C179 C178 1.387 . S
N180 Co171 2.022 . S
N180 C177 1.351 . S
N180 N181 1.365 . S
N181 C178 1.341 . S
N181 N180 1.365 . S
N181 H201 0.862 . S
C182 C177 1.501 . S
C182 H183 0.961 . S
C182 H184 0.961 . S
C182 H185 0.960 . S
H183 C182 0.961 . S
H184 C182 0.961 . S
H185 C182 0.960 . S
C186 N187 1.342 . S
C186 C190 1.401 . S
C186 C191 1.499 . S
N187 Co170 1.989 . S
N187 C186 1.342 . S
N187 N188 1.388 . S
N188 Co171 1.993 . S
N188 N187 1.388 . S
N188 C189 1.346 . S
C189 N188 1.346 . S
C189 C190 1.396 . S
C189 C199 1.510 . S
C190 C186 1.401 . S
C190 C189 1.396 . S
C191 C186 1.499 . S
C191 H192 0.959 . S
C191 H193 0.960 . S
C191 H194 0.961 . S
H192 C191 0.959 . S
H193 C191 0.960 . S
H194 C191 0.961 . S
O195 Co170 1.967 . S
O195 C203 1.258 . S
O196 Co171 1.941 . S
O196 C203 1.266 . S
H197 C199 0.959 . S
H198 C199 0.961 . S
C199 C189 1.510 . S
C199 H197 0.959 . S
C199 H198 0.961 . S
C199 H200 0.960 . S
H200 C199 0.960 . S
H201 N181 0.862 . S
O202 Co170 1.920 . S
O202 C175 1.292 . S
C203 O195 1.258 . S
C203 O196 1.266 . S
Co204 O207 1.970 . S
Co204 N221 1.989 . S
Co204 O229 1.967 . S
Co204 O236 1.920 . S
Co205 O208 1.966 . S
Co205 N214 2.022 . S
Co205 N222 1.993 . S
Co205 O230 1.941 . S
C206 O207 1.258 . S
C206 O208 1.263 . S
O207 Co204 1.970 . S
O207 C206 1.258 . S
O208 Co205 1.966 . S
O208 C206 1.263 . S
C209 O210 1.235 . S
C209 O236 1.289 . S
O210 C209 1.235 . S
C211 C213 1.400 . S
C211 N214 1.351 . S
C211 C216 1.501 . S
C212 C213 1.387 . S
C212 N215 1.341 . S
C213 C211 1.400 . S
C213 C212 1.387 . S
N214 Co205 2.022 . S
N214 C211 1.351 . S
N214 N215 1.365 . S
N215 C212 1.341 . S
N215 N214 1.365 . S
N215 H235 0.862 . S
C216 C211 1.501 . S
C216 H217 0.961 . S
C216 H218 0.961 . S
C216 H219 0.960 . S
H217 C216 0.961 . S
H218 C216 0.961 . S
H219 C216 0.960 . S
C220 N221 1.342 . S
C220 C224 1.401 . S
C220 C225 1.499 . S
N221 Co204 1.989 . S
N221 C220 1.342 . S
N221 N222 1.388 . S
N222 Co205 1.993 . S
N222 N221 1.388 . S
N222 C223 1.346 . S
C223 N222 1.346 . S
C223 C224 1.396 . S
C223 C233 1.510 . S
C224 C220 1.401 . S
C224 C223 1.396 . S
C225 C220 1.499 . S
C225 H226 0.959 . S
C225 H227 0.960 . S
C225 H228 0.961 . S
H226 C225 0.959 . S
H227 C225 0.960 . S
H228 C225 0.961 . S
O229 Co204 1.967 . S
O229 C237 1.258 . S
O230 Co205 1.941 . S
O230 C237 1.266 . S
H231 C233 0.959 . S
H232 C233 0.961 . S
C233 C223 1.510 . S
C233 H231 0.959 . S
C233 H232 0.961 . S
C233 H234 0.960 . S
H234 C233 0.960 . S
H235 N215 0.862 . S
O236 Co204 1.920 . S
O236 C209 1.289 . S
C237 O229 1.258 . S
C237 O230 1.266 . S
Co238 O241 1.970 . S
Co238 N255 1.989 . S
Co238 O263 1.967 . S
Co238 O270 1.920 . S
Co239 O242 1.966 . S
Co239 N248 2.022 . S
Co239 N256 1.993 . S
Co239 O264 1.941 . S
C240 O241 1.258 . S
C240 O242 1.263 . S
O241 Co238 1.970 . S
O241 C240 1.258 . S
O242 Co239 1.966 . S
O242 C240 1.263 . S
C243 O244 1.235 . S
C243 O270 1.289 . S
O244 C243 1.235 . S
C245 C247 1.400 1_556 S
C245 N248 1.351 . S
C245 C250 1.501 . S
C246 C247 1.387 . S
C246 N249 1.341 1_554 S
C247 C245 1.400 1_554 S
C247 C246 1.387 . S
N248 Co239 2.022 . S
N248 C245 1.351 . S
N248 N249 1.365 . S
N249 C246 1.341 1_556 S
N249 N248 1.365 . S
N249 H269 0.862 . S
C250 C245 1.501 . S
C250 H251 0.961 . S
C250 H252 0.961 . S
C250 H253 0.960 . S
H251 C250 0.961 . S
H252 C250 0.961 . S
H253 C250 0.960 . S
C254 N255 1.342 . S
C254 C258 1.401 . S
C254 C259 1.499 . S
N255 Co238 1.989 . S
N255 C254 1.342 . S
N255 N256 1.388 . S
N256 Co239 1.993 . S
N256 N255 1.388 . S
N256 C257 1.346 . S
C257 N256 1.346 . S
C257 C258 1.396 . S
C257 C267 1.510 . S
C258 C254 1.401 . S
C258 C257 1.396 . S
C259 C254 1.499 . S
C259 H260 0.959 . S
C259 H261 0.960 . S
C259 H262 0.961 . S
H260 C259 0.959 . S
H261 C259 0.960 . S
H262 C259 0.961 . S
O263 Co238 1.967 . S
O263 C271 1.258 . S
O264 Co239 1.941 . S
O264 C271 1.266 . S
H265 C267 0.959 . S
H266 C267 0.961 . S
C267 C257 1.510 . S
C267 H265 0.959 . S
C267 H266 0.961 . S
C267 H268 0.960 . S
H268 C267 0.960 . S
H269 N249 0.862 . S
O270 Co238 1.920 . S
O270 C243 1.289 . S
C271 O263 1.258 . S
C271 O264 1.266 . S
Co272 O275 1.970 . S
Co272 N289 1.989 . S
Co272 O297 1.967 . S
Co272 O304 1.920 . S
Co273 O276 1.966 . S
Co273 N282 2.022 . S
Co273 N290 1.993 . S
Co273 O298 1.941 . S
C274 O275 1.258 . S
C274 O276 1.263 1_556 S
O275 Co272 1.970 . S
O275 C274 1.258 . S
O276 Co273 1.966 . S
O276 C274 1.263 1_554 S
C277 O278 1.235 . S
C277 O304 1.289 . S
O278 C277 1.235 . S
C279 C281 1.400 . S
C279 N282 1.351 . S
C279 C284 1.501 . S
C280 C281 1.387 . S
C280 N283 1.341 . S
C281 C279 1.400 . S
C281 C280 1.387 . S
N282 Co273 2.022 . S
N282 C279 1.351 . S
N282 N283 1.365 . S
N283 C280 1.341 . S
N283 N282 1.365 . S
N283 H303 0.862 . S
C284 C279 1.501 . S
C284 H285 0.961 . S
C284 H286 0.961 . S
C284 H287 0.960 . S
H285 C284 0.961 . S
H286 C284 0.961 . S
H287 C284 0.960 . S
C288 N289 1.342 . S
C288 C292 1.401 1_556 S
C288 C293 1.499 . S
N289 Co272 1.989 . S
N289 C288 1.342 . S
N289 N290 1.388 1_556 S
N290 Co273 1.993 . S
N290 N289 1.388 1_554 S
N290 C291 1.346 . S
C291 N290 1.346 . S
C291 C292 1.396 . S
C291 C301 1.510 . S
C292 C288 1.401 1_554 S
C292 C291 1.396 . S
C293 C288 1.499 . S
C293 H294 0.959 . S
C293 H295 0.960 . S
C293 H296 0.961 . S
H294 C293 0.959 . S
H295 C293 0.960 . S
H296 C293 0.961 . S
O297 Co272 1.967 . S
O297 C305 1.258 . S
O298 Co273 1.941 . S
O298 C305 1.266 1_554 S
H299 C301 0.959 . S
H300 C301 0.961 . S
C301 C291 1.510 . S
C301 H299 0.959 . S
C301 H300 0.961 . S
C301 H302 0.960 . S
H302 C301 0.960 . S
H303 N283 0.862 . S
O304 Co272 1.920 . S
O304 C277 1.289 . S
C305 O297 1.258 . S
C305 O298 1.266 1_556 S
Co306 O309 1.970 . S
Co306 N323 1.989 . S
Co306 O331 1.967 . S
Co306 O338 1.920 . S
Co307 O310 1.966 . S
Co307 N316 2.022 . S
Co307 N324 1.993 . S
Co307 O332 1.941 . S
C308 O309 1.258 . S
C308 O310 1.263 . S
O309 Co306 1.970 . S
O309 C308 1.258 . S
O310 Co307 1.966 . S
O310 C308 1.263 . S
C311 O312 1.235 . S
C311 O338 1.289 . S
O312 C311 1.235 . S
C313 C315 1.400 1_556 S
C313 N316 1.351 . S
C313 C318 1.501 . S
C314 C315 1.387 . S
C314 N317 1.341 1_554 S
C315 C313 1.400 1_554 S
C315 C314 1.387 . S
N316 Co307 2.022 . S
N316 C313 1.351 . S
N316 N317 1.365 . S
N317 C314 1.341 1_556 S
N317 N316 1.365 . S
N317 H337 0.862 . S
C318 C313 1.501 . S
C318 H319 0.961 . S
C318 H320 0.961 . S
C318 H321 0.960 . S
H319 C318 0.961 . S
H320 C318 0.961 . S
H321 C318 0.960 . S
C322 N323 1.342 . S
C322 C326 1.401 . S
C322 C327 1.499 . S
N323 Co306 1.989 . S
N323 C322 1.342 . S
N323 N324 1.388 . S
N324 Co307 1.993 . S
N324 N323 1.388 . S
N324 C325 1.346 . S
C325 N324 1.346 . S
C325 C326 1.396 . S
C325 C335 1.510 . S
C326 C322 1.401 . S
C326 C325 1.396 . S
C327 C322 1.499 . S
C327 H328 0.959 . S
C327 H329 0.960 . S
C327 H330 0.961 . S
H328 C327 0.959 . S
H329 C327 0.960 . S
H330 C327 0.961 . S
O331 Co306 1.967 . S
O331 C339 1.258 . S
O332 Co307 1.941 . S
O332 C339 1.266 . S
H333 C335 0.959 . S
H334 C335 0.961 . S
C335 C325 1.510 . S
C335 H333 0.959 . S
C335 H334 0.961 . S
C335 H336 0.960 . S
H336 C335 0.960 . S
H337 N317 0.862 . S
O338 Co306 1.920 . S
O338 C311 1.289 . S
C339 O331 1.258 . S
C339 O332 1.266 . S
Co340 O343 1.970 . S
Co340 N357 1.989 . S
Co340 O365 1.967 . S
Co340 O372 1.920 . S
Co341 O344 1.966 . S
Co341 N350 2.022 . S
Co341 N358 1.993 . S
Co341 O366 1.941 . S
C342 O343 1.258 . S
C342 O344 1.263 . S
O343 Co340 1.970 . S
O343 C342 1.258 . S
O344 Co341 1.966 . S
O344 C342 1.263 . S
C345 O346 1.235 . S
C345 O372 1.289 . S
O346 C345 1.235 . S
C347 C349 1.400 . S
C347 N350 1.351 . S
C347 C352 1.501 . S
C348 C349 1.387 . S
C348 N351 1.341 . S
C349 C347 1.400 . S
C349 C348 1.387 . S
N350 Co341 2.022 . S
N350 C347 1.351 . S
N350 N351 1.365 . S
N351 C348 1.341 . S
N351 N350 1.365 . S
N351 H371 0.862 . S
C352 C347 1.501 . S
C352 H353 0.961 . S
C352 H354 0.961 . S
C352 H355 0.960 . S
H353 C352 0.961 . S
H354 C352 0.961 . S
H355 C352 0.960 . S
C356 N357 1.342 . S
C356 C360 1.401 . S
C356 C361 1.499 . S
N357 Co340 1.989 . S
N357 C356 1.342 . S
N357 N358 1.388 . S
N358 Co341 1.993 . S
N358 N357 1.388 . S
N358 C359 1.346 . S
C359 N358 1.346 . S
C359 C360 1.396 . S
C359 C369 1.510 . S
C360 C356 1.401 . S
C360 C359 1.396 . S
C361 C356 1.499 . S
C361 H362 0.959 . S
C361 H363 0.960 . S
C361 H364 0.961 . S
H362 C361 0.959 . S
H363 C361 0.960 . S
H364 C361 0.961 . S
O365 Co340 1.967 . S
O365 C373 1.258 . S
O366 Co341 1.941 . S
O366 C373 1.266 . S
H367 C369 0.959 . S
H368 C369 0.961 . S
C369 C359 1.510 . S
C369 H367 0.959 . S
C369 H368 0.961 . S
C369 H370 0.960 . S
H370 C369 0.960 . S
H371 N351 0.862 . S
O372 Co340 1.920 . S
O372 C345 1.289 . S
C373 O365 1.258 . S
C373 O366 1.266 . S
Co374 O377 1.970 . S
Co374 N391 1.989 . S
Co374 O399 1.967 . S
Co374 O406 1.920 . S
Co375 O378 1.966 . S
Co375 N384 2.022 . S
Co375 N392 1.993 . S
Co375 O400 1.941 . S
C376 O377 1.258 . S
C376 O378 1.263 . S
O377 Co374 1.970 . S
O377 C376 1.258 . S
O378 Co375 1.966 . S
O378 C376 1.263 . S
C379 O380 1.239 . S
C379 O406 1.292 . S
O380 C379 1.239 . S
C381 C383 1.400 . S
C381 N384 1.351 . S
C381 C386 1.501 . S
C382 C383 1.387 . S
C382 N385 1.341 . S
C383 C381 1.400 . S
C383 C382 1.387 . S
N384 Co375 2.022 . S
N384 C381 1.351 . S
N384 N385 1.365 . S
N385 C382 1.341 . S
N385 N384 1.365 . S
N385 H405 0.862 . S
C386 C381 1.501 . S
C386 H387 0.961 . S
C386 H388 0.961 . S
C386 H389 0.960 . S
H387 C386 0.961 . S
H388 C386 0.961 . S
H389 C386 0.960 . S
C390 N391 1.342 . S
C390 C394 1.401 . S
C390 C395 1.499 . S
N391 Co374 1.989 . S
N391 C390 1.342 . S
N391 N392 1.388 . S
N392 Co375 1.993 . S
N392 N391 1.388 . S
N392 C393 1.346 . S
C393 N392 1.346 . S
C393 C394 1.396 . S
C393 C403 1.510 . S
C394 C390 1.401 . S
C394 C393 1.396 . S
C395 C390 1.499 . S
C395 H396 0.959 . S
C395 H397 0.960 . S
C395 H398 0.961 . S
H396 C395 0.959 . S
H397 C395 0.960 . S
H398 C395 0.961 . S
O399 Co374 1.967 . S
O399 C407 1.258 . S
O400 Co375 1.941 . S
O400 C407 1.266 . S
H401 C403 0.959 . S
H402 C403 0.961 . S
C403 C393 1.510 . S
C403 H401 0.959 . S
C403 H402 0.961 . S
C403 H404 0.960 . S
H404 C403 0.960 . S
H405 N385 0.862 . S
O406 Co374 1.920 . S
O406 C379 1.292 . S
C407 O399 1.258 . S
C407 O400 1.266 . S
Co408 O411 1.970 . S
Co408 N425 1.989 . S
Co408 O433 1.967 . S
Co408 O440 1.920 . S
Co409 O412 1.966 . S
Co409 N418 2.022 . S
Co409 N426 1.993 . S
Co409 O434 1.941 . S
C410 O411 1.258 . S
C410 O412 1.263 1_554 S
O411 Co408 1.970 . S
O411 C410 1.258 . S
O412 Co409 1.966 . S
O412 C410 1.263 1_556 S
C413 O414 1.235 . S
C413 O440 1.289 . S
O414 C413 1.235 . S
C415 C417 1.400 . S
C415 N418 1.351 . S
C415 C420 1.501 . S
C416 C417 1.387 . S
C416 N419 1.341 . S
C417 C415 1.400 . S
C417 C416 1.387 . S
N418 Co409 2.022 . S
N418 C415 1.351 . S
N418 N419 1.365 . S
N419 C416 1.341 . S
N419 N418 1.365 . S
N419 H439 0.862 . S
C420 C415 1.501 . S
C420 H421 0.961 . S
C420 H422 0.961 . S
C420 H423 0.960 . S
H421 C420 0.961 . S
H422 C420 0.961 . S
H423 C420 0.960 . S
C424 N425 1.342 . S
C424 C428 1.401 1_554 S
C424 C429 1.499 . S
N425 Co408 1.989 . S
N425 C424 1.342 . S
N425 N426 1.388 1_554 S
N426 Co409 1.993 . S
N426 N425 1.388 1_556 S
N426 C427 1.346 . S
C427 N426 1.346 . S
C427 C428 1.396 . S
C427 C437 1.510 . S
C428 C424 1.401 1_556 S
C428 C427 1.396 . S
C429 C424 1.499 . S
C429 H430 0.959 . S
C429 H431 0.960 . S
C429 H432 0.961 . S
H430 C429 0.959 . S
H431 C429 0.960 . S
H432 C429 0.961 . S
O433 Co408 1.967 . S
O433 C441 1.258 . S
O434 Co409 1.941 . S
O434 C441 1.266 1_556 S
H435 C437 0.959 . S
H436 C437 0.961 . S
C437 C427 1.510 . S
C437 H435 0.959 . S
C437 H436 0.961 . S
C437 H438 0.960 . S
H438 C437 0.960 . S
H439 N419 0.862 . S
O440 Co408 1.920 . S
O440 C413 1.289 . S
C441 O433 1.258 . S
C441 O434 1.266 1_554 S
Co442 O445 1.970 . S
Co442 N459 1.989 . S
Co442 O467 1.967 . S
Co442 O474 1.920 . S
Co443 O446 1.966 . S
Co443 N452 2.022 . S
Co443 N460 1.993 . S
Co443 O468 1.941 . S
C444 O445 1.258 . S
C444 O446 1.263 . S
O445 Co442 1.970 . S
O445 C444 1.258 . S
O446 Co443 1.966 . S
O446 C444 1.263 . S
C447 O448 1.239 . S
C447 O474 1.292 . S
O448 C447 1.239 . S
C449 C451 1.400 . S
C449 N452 1.351 . S
C449 C454 1.501 . S
C450 C451 1.387 . S
C450 N453 1.341 . S
C451 C449 1.400 . S
C451 C450 1.387 . S
N452 Co443 2.022 . S
N452 C449 1.351 . S
N452 N453 1.365 . S
N453 C450 1.341 . S
N453 N452 1.365 . S
N453 H473 0.862 . S
C454 C449 1.501 . S
C454 H455 0.961 . S
C454 H456 0.961 . S
C454 H457 0.960 . S
H455 C454 0.961 . S
H456 C454 0.961 . S
H457 C454 0.960 . S
C458 N459 1.342 . S
C458 C462 1.401 . S
C458 C463 1.499 . S
N459 Co442 1.989 . S
N459 C458 1.342 . S
N459 N460 1.388 . S
N460 Co443 1.993 . S
N460 N459 1.388 . S
N460 C461 1.346 . S
C461 N460 1.346 . S
C461 C462 1.396 . S
C461 C471 1.510 . S
C462 C458 1.401 . S
C462 C461 1.396 . S
C463 C458 1.499 . S
C463 H464 0.959 . S
C463 H465 0.960 . S
C463 H466 0.961 . S
H464 C463 0.959 . S
H465 C463 0.960 . S
H466 C463 0.961 . S
O467 Co442 1.967 . S
O467 C475 1.258 . S
O468 Co443 1.941 . S
O468 C475 1.266 . S
H469 C471 0.959 . S
H470 C471 0.961 . S
C471 C461 1.510 . S
C471 H469 0.959 . S
C471 H470 0.961 . S
C471 H472 0.960 . S
H472 C471 0.960 . S
H473 N453 0.862 . S
O474 Co442 1.920 . S
O474 C447 1.292 . S
C475 O467 1.258 . S
C475 O468 1.266 . S
Co476 O479 1.970 . S
Co476 N493 1.989 . S
Co476 O501 1.967 . S
Co476 O508 1.920 . S
Co477 O480 1.966 . S
Co477 N486 2.022 . S
Co477 N494 1.993 . S
Co477 O502 1.941 . S
C478 O479 1.258 . S
C478 O480 1.263 . S
O479 Co476 1.970 . S
O479 C478 1.258 . S
O480 Co477 1.966 . S
O480 C478 1.263 . S
C481 O482 1.235 . S
C481 O508 1.289 . S
O482 C481 1.235 . S
C483 C485 1.400 . S
C483 N486 1.351 . S
C483 C488 1.501 . S
C484 C485 1.387 . S
C484 N487 1.341 . S
C485 C483 1.400 . S
C485 C484 1.387 . S
N486 Co477 2.022 . S
N486 C483 1.351 . S
N486 N487 1.365 . S
N487 C484 1.341 . S
N487 N486 1.365 . S
N487 H507 0.862 . S
C488 C483 1.501 . S
C488 H489 0.961 . S
C488 H490 0.961 . S
C488 H491 0.960 . S
H489 C488 0.961 . S
H490 C488 0.961 . S
H491 C488 0.960 . S
C492 N493 1.342 . S
C492 C496 1.401 . S
C492 C497 1.499 . S
N493 Co476 1.989 . S
N493 C492 1.342 . S
N493 N494 1.388 . S
N494 Co477 1.993 . S
N494 N493 1.388 . S
N494 C495 1.346 . S
C495 N494 1.346 . S
C495 C496 1.396 . S
C495 C505 1.510 . S
C496 C492 1.401 . S
C496 C495 1.396 . S
C497 C492 1.499 . S
C497 H498 0.959 . S
C497 H499 0.960 . S
C497 H500 0.961 . S
H498 C497 0.959 . S
H499 C497 0.960 . S
H500 C497 0.961 . S
O501 Co476 1.967 . S
O501 C509 1.258 . S
O502 Co477 1.941 . S
O502 C509 1.266 . S
H503 C505 0.959 . S
H504 C505 0.961 . S
C505 C495 1.510 . S
C505 H503 0.959 . S
C505 H504 0.961 . S
C505 H506 0.960 . S
H506 C505 0.960 . S
H507 N487 0.862 . S
O508 Co476 1.920 . S
O508 C481 1.289 . S
C509 O501 1.258 . S
C509 O502 1.266 . S
Co510 O513 1.970 . S
Co510 N527 1.989 . S
Co510 O535 1.967 . S
Co510 O542 1.920 . S
Co511 O514 1.966 . S
Co511 N520 2.022 . S
Co511 N528 1.993 . S
Co511 O536 1.941 . S
C512 O513 1.258 . S
C512 O514 1.263 . S
O513 Co510 1.970 . S
O513 C512 1.258 . S
O514 Co511 1.966 . S
O514 C512 1.263 . S
C515 O516 1.235 . S
C515 O542 1.289 . S
O516 C515 1.235 . S
C517 C519 1.400 1_554 S
C517 N520 1.351 . S
C517 C522 1.501 . S
C518 C519 1.387 . S
C518 N521 1.341 1_556 S
C519 C517 1.400 1_556 S
C519 C518 1.387 . S
N520 Co511 2.022 . S
N520 C517 1.351 . S
N520 N521 1.365 . S
N521 C518 1.341 1_554 S
N521 N520 1.365 . S
N521 H541 0.862 . S
C522 C517 1.501 . S
C522 H523 0.961 . S
C522 H524 0.961 . S
C522 H525 0.960 . S
H523 C522 0.961 . S
H524 C522 0.961 . S
H525 C522 0.960 . S
C526 N527 1.342 . S
C526 C530 1.401 . S
C526 C531 1.499 . S
N527 Co510 1.989 . S
N527 C526 1.342 . S
N527 N528 1.388 . S
N528 Co511 1.993 . S
N528 N527 1.388 . S
N528 C529 1.346 . S
C529 N528 1.346 . S
C529 C530 1.396 . S
C529 C539 1.510 . S
C530 C526 1.401 . S
C530 C529 1.396 . S
C531 C526 1.499 . S
C531 H532 0.959 . S
C531 H533 0.960 . S
C531 H534 0.961 . S
H532 C531 0.959 . S
H533 C531 0.960 . S
H534 C531 0.961 . S
O535 Co510 1.967 . S
O535 C543 1.258 . S
O536 Co511 1.941 . S
O536 C543 1.266 . S
H537 C539 0.959 . S
H538 C539 0.961 . S
C539 C529 1.510 . S
C539 H537 0.959 . S
C539 H538 0.961 . S
C539 H540 0.960 . S
H540 C539 0.960 . S
H541 N521 0.862 . S
O542 Co510 1.920 . S
O542 C515 1.289 . S
C543 O535 1.258 . S
C543 O536 1.266 . S
Co544 O547 1.970 . S
Co544 N561 1.989 . S
Co544 O569 1.967 . S
Co544 O576 1.920 . S
Co545 O548 1.966 . S
Co545 N554 2.022 . S
Co545 N562 1.993 . S
Co545 O570 1.941 . S
C546 O547 1.258 . S
C546 O548 1.263 . S
O547 Co544 1.970 . S
O547 C546 1.258 . S
O548 Co545 1.966 . S
O548 C546 1.263 . S
C549 O550 1.235 . S
C549 O576 1.289 . S
O550 C549 1.235 . S
C551 C553 1.400 . S
C551 N554 1.351 . S
C551 C556 1.501 . S
C552 C553 1.387 . S
C552 N555 1.341 . S
C553 C551 1.400 . S
C553 C552 1.387 . S
N554 Co545 2.022 . S
N554 C551 1.351 . S
N554 N555 1.365 . S
N555 C552 1.341 . S
N555 N554 1.365 . S
N555 H575 0.862 . S
C556 C551 1.501 . S
C556 H557 0.961 . S
C556 H558 0.961 . S
C556 H559 0.960 . S
H557 C556 0.961 . S
H558 C556 0.961 . S
H559 C556 0.960 . S
C560 N561 1.342 . S
C560 C564 1.401 . S
C560 C565 1.499 . S
N561 Co544 1.989 . S
N561 C560 1.342 . S
N561 N562 1.388 . S
N562 Co545 1.993 . S
N562 N561 1.388 . S
N562 C563 1.346 . S
C563 N562 1.346 . S
C563 C564 1.396 . S
C563 C573 1.510 . S
C564 C560 1.401 . S
C564 C563 1.396 . S
C565 C560 1.499 . S
C565 H566 0.959 . S
C565 H567 0.960 . S
C565 H568 0.961 . S
H566 C565 0.959 . S
H567 C565 0.960 . S
H568 C565 0.961 . S
O569 Co544 1.967 . S
O569 C577 1.258 . S
O570 Co545 1.941 . S
O570 C577 1.266 . S
H571 C573 0.959 . S
H572 C573 0.961 . S
C573 C563 1.510 . S
C573 H571 0.959 . S
C573 H572 0.961 . S
C573 H574 0.960 . S
H574 C573 0.960 . S
H575 N555 0.862 . S
O576 Co544 1.920 . S
O576 C549 1.289 . S
C577 O569 1.258 . S
C577 O570 1.266 . S
Co578 O581 1.970 . S
Co578 N595 1.989 . S
Co578 O603 1.967 . S
Co578 O610 1.920 . S
Co579 O582 1.966 . S
Co579 N588 2.022 . S
Co579 N596 1.993 . S
Co579 O604 1.941 . S
C580 O581 1.258 . S
C580 O582 1.263 . S
O581 Co578 1.970 . S
O581 C580 1.258 . S
O582 Co579 1.966 . S
O582 C580 1.263 . S
C583 O584 1.239 . S
C583 O610 1.292 . S
O584 C583 1.239 . S
C585 C587 1.400 . S
C585 N588 1.351 . S
C585 C590 1.501 . S
C586 C587 1.387 . S
C586 N589 1.341 . S
C587 C585 1.400 . S
C587 C586 1.387 . S
N588 Co579 2.022 . S
N588 C585 1.351 . S
N588 N589 1.365 . S
N589 C586 1.341 . S
N589 N588 1.365 . S
N589 H609 0.862 . S
C590 C585 1.501 . S
C590 H591 0.961 . S
C590 H592 0.961 . S
C590 H593 0.960 . S
H591 C590 0.961 . S
H592 C590 0.961 . S
H593 C590 0.960 . S
C594 N595 1.342 . S
C594 C598 1.401 . S
C594 C599 1.499 . S
N595 Co578 1.989 . S
N595 C594 1.342 . S
N595 N596 1.388 . S
N596 Co579 1.993 . S
N596 N595 1.388 . S
N596 C597 1.346 . S
C597 N596 1.346 . S
C597 C598 1.396 . S
C597 C607 1.510 . S
C598 C594 1.401 . S
C598 C597 1.396 . S
C599 C594 1.499 . S
C599 H600 0.959 . S
C599 H601 0.960 . S
C599 H602 0.961 . S
H600 C599 0.959 . S
H601 C599 0.960 . S
H602 C599 0.961 . S
O603 Co578 1.967 . S
O603 C611 1.258 . S
O604 Co579 1.941 . S
O604 C611 1.266 . S
H605 C607 0.959 . S
H606 C607 0.961 . S
C607 C597 1.510 . S
C607 H605 0.959 . S
C607 H606 0.961 . S
C607 H608 0.960 . S
H608 C607 0.960 . S
H609 N589 0.862 . S
O610 Co578 1.920 . S
O610 C583 1.292 . S
C611 O603 1.258 . S
C611 O604 1.266 . S
Co612 O615 1.970 . S
Co612 N629 1.989 . S
Co612 O637 1.967 . S
Co612 O644 1.920 . S
Co613 O616 1.966 . S
Co613 N622 2.022 . S
Co613 N630 1.993 . S
Co613 O638 1.941 . S
C614 O615 1.258 . S
C614 O616 1.263 1_554 S
O615 Co612 1.970 . S
O615 C614 1.258 . S
O616 Co613 1.966 . S
O616 C614 1.263 1_556 S
C617 O618 1.235 . S
C617 O644 1.289 . S
O618 C617 1.235 . S
C619 C621 1.400 . S
C619 N622 1.351 . S
C619 C624 1.501 . S
C620 C621 1.387 . S
C620 N623 1.341 . S
C621 C619 1.400 . S
C621 C620 1.387 . S
N622 Co613 2.022 . S
N622 C619 1.351 . S
N622 N623 1.365 . S
N623 C620 1.341 . S
N623 N622 1.365 . S
N623 H643 0.862 . S
C624 C619 1.501 . S
C624 H625 0.961 . S
C624 H626 0.961 . S
C624 H627 0.960 . S
H625 C624 0.961 . S
H626 C624 0.961 . S
H627 C624 0.960 . S
C628 N629 1.342 . S
C628 C632 1.401 1_554 S
C628 C633 1.499 . S
N629 Co612 1.989 . S
N629 C628 1.342 . S
N629 N630 1.388 1_554 S
N630 Co613 1.993 . S
N630 N629 1.388 1_556 S
N630 C631 1.346 . S
C631 N630 1.346 . S
C631 C632 1.396 . S
C631 C641 1.510 . S
C632 C628 1.401 1_556 S
C632 C631 1.396 . S
C633 C628 1.499 . S
C633 H634 0.959 . S
C633 H635 0.960 . S
C633 H636 0.961 . S
H634 C633 0.959 . S
H635 C633 0.960 . S
H636 C633 0.961 . S
O637 Co612 1.967 . S
O637 C645 1.258 . S
O638 Co613 1.941 . S
O638 C645 1.266 1_556 S
H639 C641 0.959 . S
H640 C641 0.961 . S
C641 C631 1.510 . S
C641 H639 0.959 . S
C641 H640 0.961 . S
C641 H642 0.960 . S
H642 C641 0.960 . S
H643 N623 0.862 . S
O644 Co612 1.920 . S
O644 C617 1.289 . S
C645 O637 1.258 . S
C645 O638 1.266 1_554 S
Co646 O649 1.970 . S
Co646 N663 1.989 . S
Co646 O671 1.967 . S
Co646 O678 1.920 . S
Co647 O650 1.966 . S
Co647 N656 2.022 . S
Co647 N664 1.993 . S
Co647 O672 1.941 . S
C648 O649 1.258 . S
C648 O650 1.263 . S
O649 Co646 1.970 . S
O649 C648 1.258 . S
O650 Co647 1.966 . S
O650 C648 1.263 . S
C651 O652 1.235 . S
C651 O678 1.289 . S
O652 C651 1.235 . S
C653 C655 1.400 1_554 S
C653 N656 1.351 . S
C653 C658 1.501 . S
C654 C655 1.387 . S
C654 N657 1.341 1_556 S
C655 C653 1.400 1_556 S
C655 C654 1.387 . S
N656 Co647 2.022 . S
N656 C653 1.351 . S
N656 N657 1.365 . S
N657 C654 1.341 1_554 S
N657 N656 1.365 . S
N657 H677 0.862 . S
C658 C653 1.501 . S
C658 H659 0.961 . S
C658 H660 0.961 . S
C658 H661 0.960 . S
H659 C658 0.961 . S
H660 C658 0.961 . S
H661 C658 0.960 . S
C662 N663 1.342 . S
C662 C666 1.401 . S
C662 C667 1.499 . S
N663 Co646 1.989 . S
N663 C662 1.342 . S
N663 N664 1.388 . S
N664 Co647 1.993 . S
N664 N663 1.388 . S
N664 C665 1.346 . S
C665 N664 1.346 . S
C665 C666 1.396 . S
C665 C675 1.510 . S
C666 C662 1.401 . S
C666 C665 1.396 . S
C667 C662 1.499 . S
C667 H668 0.959 . S
C667 H669 0.960 . S
C667 H670 0.961 . S
H668 C667 0.959 . S
H669 C667 0.960 . S
H670 C667 0.961 . S
O671 Co646 1.967 . S
O671 C679 1.258 . S
O672 Co647 1.941 . S
O672 C679 1.266 . S
H673 C675 0.959 . S
H674 C675 0.961 . S
C675 C665 1.510 . S
C675 H673 0.959 . S
C675 H674 0.961 . S
C675 H676 0.960 . S
H676 C675 0.960 . S
H677 N657 0.862 . S
O678 Co646 1.920 . S
O678 C651 1.289 . S
C679 O671 1.258 . S
C679 O672 1.266 . S
Co680 O683 1.970 . S
Co680 N697 1.989 . S
Co680 O705 1.967 . S
Co680 O712 1.920 . S
Co681 O684 1.966 . S
Co681 N690 2.022 . S
Co681 N698 1.993 . S
Co681 O706 1.941 . S
C682 O683 1.258 . S
C682 O684 1.263 . S
O683 Co680 1.970 . S
O683 C682 1.258 . S
O684 Co681 1.966 . S
O684 C682 1.263 . S
C685 O686 1.235 . S
C685 O712 1.289 . S
O686 C685 1.235 . S
C687 C689 1.400 . S
C687 N690 1.351 . S
C687 C692 1.501 . S
C688 C689 1.387 . S
C688 N691 1.341 . S
C689 C687 1.400 . S
C689 C688 1.387 . S
N690 Co681 2.022 . S
N690 C687 1.351 . S
N690 N691 1.365 . S
N691 C688 1.341 . S
N691 N690 1.365 . S
N691 H711 0.862 . S
C692 C687 1.501 . S
C692 H693 0.961 . S
C692 H694 0.961 . S
C692 H695 0.960 . S
H693 C692 0.961 . S
H694 C692 0.961 . S
H695 C692 0.960 . S
C696 N697 1.342 . S
C696 C700 1.401 . S
C696 C701 1.499 . S
N697 Co680 1.989 . S
N697 C696 1.342 . S
N697 N698 1.388 . S
N698 Co681 1.993 . S
N698 N697 1.388 . S
N698 C699 1.346 . S
C699 N698 1.346 . S
C699 C700 1.396 . S
C699 C709 1.510 . S
C700 C696 1.401 . S
C700 C699 1.396 . S
C701 C696 1.499 . S
C701 H702 0.959 . S
C701 H703 0.960 . S
C701 H704 0.961 . S
H702 C701 0.959 . S
H703 C701 0.960 . S
H704 C701 0.961 . S
O705 Co680 1.967 . S
O705 C713 1.258 . S
O706 Co681 1.941 . S
O706 C713 1.266 . S
H707 C709 0.959 . S
H708 C709 0.961 . S
C709 C699 1.510 . S
C709 H707 0.959 . S
C709 H708 0.961 . S
C709 H710 0.960 . S
H710 C709 0.960 . S
H711 N691 0.862 . S
O712 Co680 1.920 . S
O712 C685 1.289 . S
C713 O705 1.258 . S
C713 O706 1.266 . S
Co714 O717 1.970 . S
Co714 N731 1.989 . S
Co714 O739 1.967 . S
Co714 O746 1.920 . S
Co715 O718 1.966 . S
Co715 N724 2.022 . S
Co715 N732 1.993 . S
Co715 O740 1.941 . S
C716 O717 1.258 . S
C716 O718 1.263 . S
O717 Co714 1.970 . S
O717 C716 1.258 . S
O718 Co715 1.966 . S
O718 C716 1.263 . S
C719 O720 1.235 . S
C719 O746 1.289 . S
O720 C719 1.235 . S
C721 C723 1.400 1_556 S
C721 N724 1.351 . S
C721 C726 1.501 . S
C722 C723 1.387 . S
C722 N725 1.341 1_554 S
C723 C721 1.400 1_554 S
C723 C722 1.387 . S
N724 Co715 2.022 . S
N724 C721 1.351 . S
N724 N725 1.365 . S
N725 C722 1.341 1_556 S
N725 N724 1.365 . S
N725 H745 0.862 . S
C726 C721 1.501 . S
C726 H727 0.961 . S
C726 H728 0.961 . S
C726 H729 0.960 . S
H727 C726 0.961 . S
H728 C726 0.961 . S
H729 C726 0.960 . S
C730 N731 1.342 . S
C730 C734 1.401 . S
C730 C735 1.499 . S
N731 Co714 1.989 . S
N731 C730 1.342 . S
N731 N732 1.388 . S
N732 Co715 1.993 . S
N732 N731 1.388 . S
N732 C733 1.346 . S
C733 N732 1.346 . S
C733 C734 1.396 . S
C733 C743 1.510 . S
C734 C730 1.401 . S
C734 C733 1.396 . S
C735 C730 1.499 . S
C735 H736 0.959 . S
C735 H737 0.960 . S
C735 H738 0.961 . S
H736 C735 0.959 . S
H737 C735 0.960 . S
H738 C735 0.961 . S
O739 Co714 1.967 . S
O739 C747 1.258 . S
O740 Co715 1.941 . S
O740 C747 1.266 . S
H741 C743 0.959 . S
H742 C743 0.961 . S
C743 C733 1.510 . S
C743 H741 0.959 . S
C743 H742 0.961 . S
C743 H744 0.960 . S
H744 C743 0.960 . S
H745 N725 0.862 . S
O746 Co714 1.920 . S
O746 C719 1.289 . S
C747 O739 1.258 . S
C747 O740 1.266 . S
Co748 O751 1.970 . S
Co748 N765 1.989 . S
Co748 O773 1.967 . S
Co748 O780 1.920 . S
Co749 O752 1.966 . S
Co749 N758 2.022 . S
Co749 N766 1.993 . S
Co749 O774 1.941 . S
C750 O751 1.258 . S
C750 O752 1.263 1_556 S
O751 Co748 1.970 . S
O751 C750 1.258 . S
O752 Co749 1.966 . S
O752 C750 1.263 1_554 S
C753 O754 1.235 . S
C753 O780 1.289 . S
O754 C753 1.235 . S
C755 C757 1.400 . S
C755 N758 1.351 . S
C755 C760 1.501 . S
C756 C757 1.387 . S
C756 N759 1.341 . S
C757 C755 1.400 . S
C757 C756 1.387 . S
N758 Co749 2.022 . S
N758 C755 1.351 . S
N758 N759 1.365 . S
N759 C756 1.341 . S
N759 N758 1.365 . S
N759 H779 0.862 . S
C760 C755 1.501 . S
C760 H761 0.961 . S
C760 H762 0.961 . S
C760 H763 0.960 . S
H761 C760 0.961 . S
H762 C760 0.961 . S
H763 C760 0.960 . S
C764 N765 1.342 . S
C764 C768 1.401 1_556 S
C764 C769 1.499 . S
N765 Co748 1.989 . S
N765 C764 1.342 . S
N765 N766 1.388 1_556 S
N766 Co749 1.993 . S
N766 N765 1.388 1_554 S
N766 C767 1.346 . S
C767 N766 1.346 . S
C767 C768 1.396 . S
C767 C777 1.510 . S
C768 C764 1.401 1_554 S
C768 C767 1.396 . S
C769 C764 1.499 . S
C769 H770 0.959 . S
C769 H771 0.960 . S
C769 H772 0.961 . S
H770 C769 0.959 . S
H771 C769 0.960 . S
H772 C769 0.961 . S
O773 Co748 1.967 . S
O773 C781 1.258 . S
O774 Co749 1.941 . S
O774 C781 1.266 1_554 S
H775 C777 0.959 . S
H776 C777 0.961 . S
C777 C767 1.510 . S
C777 H775 0.959 . S
C777 H776 0.961 . S
C777 H778 0.960 . S
H778 C777 0.960 . S
H779 N759 0.862 . S
O780 Co748 1.920 . S
O780 C753 1.289 . S
C781 O773 1.258 . S
C781 O774 1.266 1_556 S
Co782 O785 1.970 . S
Co782 N799 1.989 . S
Co782 O807 1.967 . S
Co782 O814 1.920 . S
Co783 O786 1.966 . S
Co783 N792 2.022 . S
Co783 N800 1.993 . S
Co783 O808 1.941 . S
C784 O785 1.258 . S
C784 O786 1.263 . S
O785 Co782 1.970 . S
O785 C784 1.258 . S
O786 Co783 1.966 . S
O786 C784 1.263 . S
C787 O788 1.239 . S
C787 O814 1.292 . S
O788 C787 1.239 . S
C789 C791 1.400 . S
C789 N792 1.351 . S
C789 C794 1.501 . S
C790 C791 1.387 . S
C790 N793 1.341 . S
C791 C789 1.400 . S
C791 C790 1.387 . S
N792 Co783 2.022 . S
N792 C789 1.351 . S
N792 N793 1.365 . S
N793 C790 1.341 . S
N793 N792 1.365 . S
N793 H813 0.862 . S
C794 C789 1.501 . S
C794 H795 0.961 . S
C794 H796 0.961 . S
C794 H797 0.960 . S
H795 C794 0.961 . S
H796 C794 0.961 . S
H797 C794 0.960 . S
C798 N799 1.342 . S
C798 C802 1.401 . S
C798 C803 1.499 . S
N799 Co782 1.989 . S
N799 C798 1.342 . S
N799 N800 1.388 . S
N800 Co783 1.993 . S
N800 N799 1.388 . S
N800 C801 1.346 . S
C801 N800 1.346 . S
C801 C802 1.396 . S
C801 C811 1.510 . S
C802 C798 1.401 . S
C802 C801 1.396 . S
C803 C798 1.499 . S
C803 H804 0.959 . S
C803 H805 0.960 . S
C803 H806 0.961 . S
H804 C803 0.959 . S
H805 C803 0.960 . S
H806 C803 0.961 . S
O807 Co782 1.967 . S
O807 C815 1.258 . S
O808 Co783 1.941 . S
O808 C815 1.266 . S
H809 C811 0.959 . S
H810 C811 0.961 . S
C811 C801 1.510 . S
C811 H809 0.959 . S
C811 H810 0.961 . S
C811 H812 0.960 . S
H812 C811 0.960 . S
H813 N793 0.862 . S
O814 Co782 1.920 . S
O814 C787 1.292 . S
C815 O807 1.258 . S
C815 O808 1.266 . S
Co816 O819 1.970 . S
Co816 N833 1.989 . S
Co816 O841 1.967 . S
Co816 O848 1.920 . S
Co817 O820 1.966 . S
Co817 N826 2.022 . S
Co817 N834 1.993 . S
Co817 O842 1.941 . S
C818 O819 1.258 . S
C818 O820 1.263 . S
O819 Co816 1.970 . S
O819 C818 1.258 . S
O820 Co817 1.966 . S
O820 C818 1.263 . S
C821 O822 1.235 . S
C821 O848 1.289 . S
O822 C821 1.235 . S
C823 C825 1.400 . S
C823 N826 1.351 . S
C823 C828 1.501 . S
C824 C825 1.387 . S
C824 N827 1.341 . S
C825 C823 1.400 . S
C825 C824 1.387 . S
N826 Co817 2.022 . S
N826 C823 1.351 . S
N826 N827 1.365 . S
N827 C824 1.341 . S
N827 N826 1.365 . S
N827 H847 0.862 . S
C828 C823 1.501 . S
C828 H829 0.961 . S
C828 H830 0.961 . S
C828 H831 0.960 . S
H829 C828 0.961 . S
H830 C828 0.961 . S
H831 C828 0.960 . S
C832 N833 1.342 . S
C832 C836 1.401 . S
C832 C837 1.499 . S
N833 Co816 1.989 . S
N833 C832 1.342 . S
N833 N834 1.388 . S
N834 Co817 1.993 . S
N834 N833 1.388 . S
N834 C835 1.346 . S
C835 N834 1.346 . S
C835 C836 1.396 . S
C835 C845 1.510 . S
C836 C832 1.401 . S
C836 C835 1.396 . S
C837 C832 1.499 . S
C837 H838 0.959 . S
C837 H839 0.960 . S
C837 H840 0.961 . S
H838 C837 0.959 . S
H839 C837 0.960 . S
H840 C837 0.961 . S
O841 Co816 1.967 . S
O841 C849 1.258 . S
O842 Co817 1.941 . S
O842 C849 1.266 . S
H843 C845 0.959 . S
H844 C845 0.961 . S
C845 C835 1.510 . S
C845 H843 0.959 . S
C845 H844 0.961 . S
C845 H846 0.960 . S
H846 C845 0.960 . S
H847 N827 0.862 . S
O848 Co816 1.920 . S
O848 C821 1.289 . S
C849 O841 1.258 . S
C849 O842 1.266 . S
Co850 O853 1.970 . S
Co850 N867 1.989 . S
Co850 O875 1.967 . S
Co850 O882 1.920 . S
Co851 O854 1.966 . S
Co851 N860 2.022 . S
Co851 N868 1.993 . S
Co851 O876 1.941 . S
C852 O853 1.258 . S
C852 O854 1.263 . S
O853 Co850 1.970 . S
O853 C852 1.258 . S
O854 Co851 1.966 . S
O854 C852 1.263 . S
C855 O856 1.239 . S
C855 O882 1.292 . S
O856 C855 1.239 . S
C857 C859 1.400 . S
C857 N860 1.351 . S
C857 C862 1.501 . S
C858 C859 1.387 . S
C858 N861 1.341 . S
C859 C857 1.400 . S
C859 C858 1.387 . S
N860 Co851 2.022 . S
N860 C857 1.351 . S
N860 N861 1.365 . S
N861 C858 1.341 . S
N861 N860 1.365 . S
N861 H881 0.862 . S
C862 C857 1.501 . S
C862 H863 0.961 . S
C862 H864 0.961 . S
C862 H865 0.960 . S
H863 C862 0.961 . S
H864 C862 0.961 . S
H865 C862 0.960 . S
C866 N867 1.342 . S
C866 C870 1.401 . S
C866 C871 1.499 . S
N867 Co850 1.989 . S
N867 C866 1.342 . S
N867 N868 1.388 . S
N868 Co851 1.993 . S
N868 N867 1.388 . S
N868 C869 1.346 . S
C869 N868 1.346 . S
C869 C870 1.396 . S
C869 C879 1.510 . S
C870 C866 1.401 . S
C870 C869 1.396 . S
C871 C866 1.499 . S
C871 H872 0.959 . S
C871 H873 0.960 . S
C871 H874 0.961 . S
H872 C871 0.959 . S
H873 C871 0.960 . S
H874 C871 0.961 . S
O875 Co850 1.967 . S
O875 C883 1.258 . S
O876 Co851 1.941 . S
O876 C883 1.266 . S
H877 C879 0.959 . S
H878 C879 0.961 . S
C879 C869 1.510 . S
C879 H877 0.959 . S
C879 H878 0.961 . S
C879 H880 0.960 . S
H880 C879 0.960 . S
H881 N861 0.862 . S
O882 Co850 1.920 . S
O882 C855 1.292 . S
C883 O875 1.258 . S
C883 O876 1.266 . S
Co884 O887 1.970 . S
Co884 N901 1.989 . S
Co884 O909 1.967 . S
Co884 O916 1.920 . S
Co885 O888 1.966 . S
Co885 N894 2.022 . S
Co885 N902 1.993 . S
Co885 O910 1.941 . S
C886 O887 1.258 . S
C886 O888 1.263 1_556 S
O887 Co884 1.970 . S
O887 C886 1.258 . S
O888 Co885 1.966 . S
O888 C886 1.263 1_554 S
C889 O890 1.235 . S
C889 O916 1.289 . S
O890 C889 1.235 . S
C891 C893 1.400 . S
C891 N894 1.351 . S
C891 C896 1.501 . S
C892 C893 1.387 . S
C892 N895 1.341 . S
C893 C891 1.400 . S
C893 C892 1.387 . S
N894 Co885 2.022 . S
N894 C891 1.351 . S
N894 N895 1.365 . S
N895 C892 1.341 . S
N895 N894 1.365 . S
N895 H915 0.862 . S
C896 C891 1.501 . S
C896 H897 0.961 . S
C896 H898 0.961 . S
C896 H899 0.960 . S
H897 C896 0.961 . S
H898 C896 0.961 . S
H899 C896 0.960 . S
C900 N901 1.342 . S
C900 C904 1.401 1_556 S
C900 C905 1.499 . S
N901 Co884 1.989 . S
N901 C900 1.342 . S
N901 N902 1.388 1_556 S
N902 Co885 1.993 . S
N902 N901 1.388 1_554 S
N902 C903 1.346 . S
C903 N902 1.346 . S
C903 C904 1.396 . S
C903 C913 1.510 . S
C904 C900 1.401 1_554 S
C904 C903 1.396 . S
C905 C900 1.499 . S
C905 H906 0.959 . S
C905 H907 0.960 . S
C905 H908 0.961 . S
H906 C905 0.959 . S
H907 C905 0.960 . S
H908 C905 0.961 . S
O909 Co884 1.967 . S
O909 C917 1.258 . S
O910 Co885 1.941 . S
O910 C917 1.266 1_554 S
H911 C913 0.959 . S
H912 C913 0.961 . S
C913 C903 1.510 . S
C913 H911 0.959 . S
C913 H912 0.961 . S
C913 H914 0.960 . S
H914 C913 0.960 . S
H915 N895 0.862 . S
O916 Co884 1.920 . S
O916 C889 1.289 . S
C917 O909 1.258 . S
C917 O910 1.266 1_556 S
Co918 O921 1.970 . S
Co918 N935 1.989 . S
Co918 O943 1.967 . S
Co918 O950 1.920 . S
Co919 O922 1.966 . S
Co919 N928 2.022 . S
Co919 N936 1.993 . S
Co919 O944 1.941 . S
C920 O921 1.258 . S
C920 O922 1.263 . S
O921 Co918 1.970 . S
O921 C920 1.258 . S
O922 Co919 1.966 . S
O922 C920 1.263 . S
C923 O924 1.235 . S
C923 O950 1.289 . S
O924 C923 1.235 . S
C925 C927 1.400 1_556 S
C925 N928 1.351 . S
C925 C930 1.501 . S
C926 C927 1.387 . S
C926 N929 1.341 1_554 S
C927 C925 1.400 1_554 S
C927 C926 1.387 . S
N928 Co919 2.022 . S
N928 C925 1.351 . S
N928 N929 1.365 . S
N929 C926 1.341 1_556 S
N929 N928 1.365 . S
N929 H949 0.862 . S
C930 C925 1.501 . S
C930 H931 0.961 . S
C930 H932 0.961 . S
C930 H933 0.960 . S
H931 C930 0.961 . S
H932 C930 0.961 . S
H933 C930 0.960 . S
C934 N935 1.342 . S
C934 C938 1.401 . S
C934 C939 1.499 . S
N935 Co918 1.989 . S
N935 C934 1.342 . S
N935 N936 1.388 . S
N936 Co919 1.993 . S
N936 N935 1.388 . S
N936 C937 1.346 . S
C937 N936 1.346 . S
C937 C938 1.396 . S
C937 C947 1.510 . S
C938 C934 1.401 . S
C938 C937 1.396 . S
C939 C934 1.499 . S
C939 H940 0.959 . S
C939 H941 0.960 . S
C939 H942 0.961 . S
H940 C939 0.959 . S
H941 C939 0.960 . S
H942 C939 0.961 . S
O943 Co918 1.967 . S
O943 C951 1.258 . S
O944 Co919 1.941 . S
O944 C951 1.266 . S
H945 C947 0.959 . S
H946 C947 0.961 . S
C947 C937 1.510 . S
C947 H945 0.959 . S
C947 H946 0.961 . S
C947 H948 0.960 . S
H948 C947 0.960 . S
H949 N929 0.862 . S
O950 Co918 1.920 . S
O950 C923 1.289 . S
C951 O943 1.258 . S
C951 O944 1.266 . S
Co952 O955 1.970 . S
Co952 N969 1.989 . S
Co952 O977 1.967 . S
Co952 O984 1.920 . S
Co953 O956 1.966 . S
Co953 N962 2.022 . S
Co953 N970 1.993 . S
Co953 O978 1.941 . S
C954 O955 1.258 . S
C954 O956 1.263 . S
O955 Co952 1.970 . S
O955 C954 1.258 . S
O956 Co953 1.966 . S
O956 C954 1.263 . S
C957 O958 1.235 . S
C957 O984 1.289 . S
O958 C957 1.235 . S
C959 C961 1.400 . S
C959 N962 1.351 . S
C959 C964 1.501 . S
C960 C961 1.387 . S
C960 N963 1.341 . S
C961 C959 1.400 . S
C961 C960 1.387 . S
N962 Co953 2.022 . S
N962 C959 1.351 . S
N962 N963 1.365 . S
N963 C960 1.341 . S
N963 N962 1.365 . S
N963 H983 0.862 . S
C964 C959 1.501 . S
C964 H965 0.961 . S
C964 H966 0.961 . S
C964 H967 0.960 . S
H965 C964 0.961 . S
H966 C964 0.961 . S
H967 C964 0.960 . S
C968 N969 1.342 . S
C968 C972 1.401 . S
C968 C973 1.499 . S
N969 Co952 1.989 . S
N969 C968 1.342 . S
N969 N970 1.388 . S
N970 Co953 1.993 . S
N970 N969 1.388 . S
N970 C971 1.346 . S
C971 N970 1.346 . S
C971 C972 1.396 . S
C971 C981 1.510 . S
C972 C968 1.401 . S
C972 C971 1.396 . S
C973 C968 1.499 . S
C973 H974 0.959 . S
C973 H975 0.960 . S
C973 H976 0.961 . S
H974 C973 0.959 . S
H975 C973 0.960 . S
H976 C973 0.961 . S
O977 Co952 1.967 . S
O977 C985 1.258 . S
O978 Co953 1.941 . S
O978 C985 1.266 . S
H979 C981 0.959 . S
H980 C981 0.961 . S
C981 C971 1.510 . S
C981 H979 0.959 . S
C981 H980 0.961 . S
C981 H982 0.960 . S
H982 C981 0.960 . S
H983 N963 0.862 . S
O984 Co952 1.920 . S
O984 C957 1.289 . S
C985 O977 1.258 . S
C985 O978 1.266 . S
Co986 O989 1.970 . S
Co986 N1003 1.989 . S
Co986 O1011 1.967 . S
Co986 O1018 1.920 . S
Co987 O990 1.966 . S
Co987 N996 2.022 . S
Co987 N1004 1.993 . S
Co987 O1012 1.941 . S
C988 O989 1.258 . S
C988 O990 1.263 . S
O989 Co986 1.970 . S
O989 C988 1.258 . S
O990 Co987 1.966 . S
O990 C988 1.263 . S
C991 O992 1.235 . S
C991 O1018 1.289 . S
O992 C991 1.235 . S
C993 C995 1.400 1_554 S
C993 N996 1.351 . S
C993 C998 1.501 . S
C994 C995 1.387 . S
C994 N997 1.341 1_556 S
C995 C993 1.400 1_556 S
C995 C994 1.387 . S
N996 Co987 2.022 . S
N996 C993 1.351 . S
N996 N997 1.365 . S
N997 C994 1.341 1_554 S
N997 N996 1.365 . S
N997 H1017 0.862 . S
C998 C993 1.501 . S
C998 H999 0.961 . S
C998 H1000 0.961 . S
C998 H1001 0.960 . S
H999 C998 0.961 . S
H1000 C998 0.961 . S
H1001 C998 0.960 . S
C1002 N1003 1.342 . S
C1002 C1006 1.401 . S
C1002 C1007 1.499 . S
N1003 Co986 1.989 . S
N1003 C1002 1.342 . S
N1003 N1004 1.388 . S
N1004 Co987 1.993 . S
N1004 N1003 1.388 . S
N1004 C1005 1.346 . S
C1005 N1004 1.346 . S
C1005 C1006 1.396 . S
C1005 C1015 1.510 . S
C1006 C1002 1.401 . S
C1006 C1005 1.396 . S
C1007 C1002 1.499 . S
C1007 H1008 0.959 . S
C1007 H1009 0.960 . S
C1007 H1010 0.961 . S
H1008 C1007 0.959 . S
H1009 C1007 0.960 . S
H1010 C1007 0.961 . S
O1011 Co986 1.967 . S
O1011 C1019 1.258 . S
O1012 Co987 1.941 . S
O1012 C1019 1.266 . S
H1013 C1015 0.959 . S
H1014 C1015 0.961 . S
C1015 C1005 1.510 . S
C1015 H1013 0.959 . S
C1015 H1014 0.961 . S
C1015 H1016 0.960 . S
H1016 C1015 0.960 . S
H1017 N997 0.862 . S
O1018 Co986 1.920 . S
O1018 C991 1.289 . S
C1019 O1011 1.258 . S
C1019 O1012 1.266 . S
Co1020 O1023 1.970 . S
Co1020 N1037 1.989 . S
Co1020 O1045 1.967 . S
Co1020 O1052 1.920 . S
Co1021 O1024 1.966 . S
Co1021 N1030 2.022 . S
Co1021 N1038 1.993 . S
Co1021 O1046 1.941 . S
C1022 O1023 1.258 . S
C1022 O1024 1.263 1_554 S
O1023 Co1020 1.970 . S
O1023 C1022 1.258 . S
O1024 Co1021 1.966 . S
O1024 C1022 1.263 1_556 S
C1025 O1026 1.235 . S
C1025 O1052 1.289 . S
O1026 C1025 1.235 . S
C1027 C1029 1.400 . S
C1027 N1030 1.351 . S
C1027 C1032 1.501 . S
C1028 C1029 1.387 . S
C1028 N1031 1.341 . S
C1029 C1027 1.400 . S
C1029 C1028 1.387 . S
N1030 Co1021 2.022 . S
N1030 C1027 1.351 . S
N1030 N1031 1.365 . S
N1031 C1028 1.341 . S
N1031 N1030 1.365 . S
N1031 H1051 0.862 . S
C1032 C1027 1.501 . S
C1032 H1033 0.961 . S
C1032 H1034 0.961 . S
C1032 H1035 0.960 . S
H1033 C1032 0.961 . S
H1034 C1032 0.961 . S
H1035 C1032 0.960 . S
C1036 N1037 1.342 . S
C1036 C1040 1.401 1_554 S
C1036 C1041 1.499 . S
N1037 Co1020 1.989 . S
N1037 C1036 1.342 . S
N1037 N1038 1.388 1_554 S
N1038 Co1021 1.993 . S
N1038 N1037 1.388 1_556 S
N1038 C1039 1.346 . S
C1039 N1038 1.346 . S
C1039 C1040 1.396 . S
C1039 C1049 1.510 . S
C1040 C1036 1.401 1_556 S
C1040 C1039 1.396 . S
C1041 C1036 1.499 . S
C1041 H1042 0.959 . S
C1041 H1043 0.960 . S
C1041 H1044 0.961 . S
H1042 C1041 0.959 . S
H1043 C1041 0.960 . S
H1044 C1041 0.961 . S
O1045 Co1020 1.967 . S
O1045 C1053 1.258 . S
O1046 Co1021 1.941 . S
O1046 C1053 1.266 1_556 S
H1047 C1049 0.959 . S
H1048 C1049 0.961 . S
C1049 C1039 1.510 . S
C1049 H1047 0.959 . S
C1049 H1048 0.961 . S
C1049 H1050 0.960 . S
H1050 C1049 0.960 . S
H1051 N1031 0.862 . S
O1052 Co1020 1.920 . S
O1052 C1025 1.289 . S
C1053 O1045 1.258 . S
C1053 O1046 1.266 1_554 S
Co1054 O1057 1.970 . S
Co1054 N1071 1.989 . S
Co1054 O1079 1.967 . S
Co1054 O1086 1.920 . S
Co1055 O1058 1.966 . S
Co1055 N1064 2.022 . S
Co1055 N1072 1.993 . S
Co1055 O1080 1.941 . S
C1056 O1057 1.258 . S
C1056 O1058 1.263 . S
O1057 Co1054 1.970 . S
O1057 C1056 1.258 . S
O1058 Co1055 1.966 . S
O1058 C1056 1.263 . S
C1059 O1060 1.239 . S
C1059 O1086 1.292 . S
O1060 C1059 1.239 . S
C1061 C1063 1.400 . S
C1061 N1064 1.351 . S
C1061 C1066 1.501 . S
C1062 C1063 1.387 . S
C1062 N1065 1.341 . S
C1063 C1061 1.400 . S
C1063 C1062 1.387 . S
N1064 Co1055 2.022 . S
N1064 C1061 1.351 . S
N1064 N1065 1.365 . S
N1065 C1062 1.341 . S
N1065 N1064 1.365 . S
N1065 H1085 0.862 . S
C1066 C1061 1.501 . S
C1066 H1067 0.961 . S
C1066 H1068 0.961 . S
C1066 H1069 0.960 . S
H1067 C1066 0.961 . S
H1068 C1066 0.961 . S
H1069 C1066 0.960 . S
C1070 N1071 1.342 . S
C1070 C1074 1.401 . S
C1070 C1075 1.499 . S
N1071 Co1054 1.989 . S
N1071 C1070 1.342 . S
N1071 N1072 1.388 . S
N1072 Co1055 1.993 . S
N1072 N1071 1.388 . S
N1072 C1073 1.346 . S
C1073 N1072 1.346 . S
C1073 C1074 1.396 . S
C1073 C1083 1.510 . S
C1074 C1070 1.401 . S
C1074 C1073 1.396 . S
C1075 C1070 1.499 . S
C1075 H1076 0.959 . S
C1075 H1077 0.960 . S
C1075 H1078 0.961 . S
H1076 C1075 0.959 . S
H1077 C1075 0.960 . S
H1078 C1075 0.961 . S
O1079 Co1054 1.967 . S
O1079 C1087 1.258 . S
O1080 Co1055 1.941 . S
O1080 C1087 1.266 . S
H1081 C1083 0.959 . S
H1082 C1083 0.961 . S
C1083 C1073 1.510 . S
C1083 H1081 0.959 . S
C1083 H1082 0.961 . S
C1083 H1084 0.960 . S
H1084 C1083 0.960 . S
H1085 N1065 0.862 . S
O1086 Co1054 1.920 . S
O1086 C1059 1.292 . S
C1087 O1079 1.258 . S
C1087 O1080 1.266 . S
H1088 C1100 0.930 . S
H1089 C1102 0.930 . S
H1090 C1103 0.930 . S
H1091 C1107 0.959 . S
H1092 C1107 0.959 . S
H1093 C1107 0.961 . S
H1094 C1108 0.960 . S
H1095 C1108 0.961 . S
H1096 C1108 0.959 . S
H1097 C1111 0.929 . S
H1098 C1112 0.931 . S
H1099 C1114 0.930 . S
C1100 H1088 0.930 . S
C1100 C1101 1.399 1_556 S
C1100 C1105 1.399 . S
C1101 C1100 1.399 1_554 S
C1101 C1102 1.376 . S
C1102 H1089 0.930 . S
C1102 C1101 1.376 . S
C1102 C1103 1.388 . S
C1103 H1090 0.930 . S
C1103 C1102 1.388 . S
C1103 C1104 1.390 . S
C1104 C1103 1.390 . S
C1104 C1105 1.394 1_554 S
C1104 C1110 1.465 . S
C1105 C1100 1.399 . S
C1105 C1104 1.394 1_556 S
C1105 C1106 1.516 . S
C1106 C1105 1.516 . S
C1106 C1107 1.502 . S
C1106 C1108 1.561 . S
C1106 C1109 1.526 . S
C1107 H1091 0.959 . S
C1107 H1092 0.959 . S
C1107 H1093 0.961 . S
C1107 C1106 1.502 . S
C1108 H1094 0.960 . S
C1108 H1095 0.961 . S
C1108 H1096 0.959 . S
C1108 C1106 1.561 . S
C1109 C1106 1.526 . S
C1109 C1110 1.396 1_556 S
C1109 C1114 1.390 . S
C1110 C1104 1.465 . S
C1110 C1109 1.396 1_554 S
C1110 C1111 1.399 . S
C1111 H1097 0.929 . S
C1111 C1110 1.399 . S
C1111 C1112 1.385 . S
C1112 H1098 0.931 . S
C1112 C1111 1.385 . S
C1112 C1113 1.389 . S
C1113 C1112 1.389 . S
C1113 C1114 1.387 1_554 S
C1114 H1099 0.930 . S
C1114 C1109 1.390 . S
C1114 C1113 1.387 1_556 S
H1115 C1127 0.930 . S
H1116 C1129 0.930 . S
H1117 C1130 0.930 . S
H1118 C1134 0.961 . S
H1119 C1134 0.975 . S
H1120 C1134 0.943 1_455 S
H1121 C1135 0.961 1_455 S
H1122 C1135 0.960 . S
H1123 C1135 0.955 . S
H1124 C1138 0.929 . S
H1125 C1139 0.931 . S
H1126 C1141 0.930 . S
C1127 H1115 0.930 . S
C1127 C1128 1.399 . S
C1127 C1132 1.399 . S
C1128 C1127 1.399 . S
C1128 C1129 1.376 . S
C1129 H1116 0.930 . S
C1129 C1128 1.376 . S
C1129 C1130 1.388 . S
C1130 H1117 0.930 . S
C1130 C1129 1.388 . S
C1130 C1131 1.390 . S
C1131 C1130 1.390 . S
C1131 C1132 1.394 . S
C1131 C1137 1.465 1_455 S
C1132 C1127 1.399 . S
C1132 C1131 1.394 . S
C1132 C1133 1.520 1_455 S
C1133 C1132 1.520 1_655 S
C1133 C1134 1.502 . S
C1133 C1135 1.561 . S
C1133 C1136 1.522 . S
C1134 H1118 0.961 . S
C1134 H1119 0.975 . S
C1134 H1120 0.943 1_655 S
C1134 C1133 1.502 . S
C1135 H1121 0.961 1_655 S
C1135 H1122 0.960 . S
C1135 H1123 0.955 . S
C1135 C1133 1.561 . S
C1136 C1133 1.522 . S
C1136 C1137 1.396 . S
C1136 C1141 1.390 . S
C1137 C1131 1.465 1_655 S
C1137 C1136 1.396 . S
C1137 C1138 1.399 . S
C1138 H1124 0.929 . S
C1138 C1137 1.399 . S
C1138 C1139 1.385 . S
C1139 H1125 0.931 . S
C1139 C1138 1.385 . S
C1139 C1140 1.389 . S
C1140 C1139 1.389 . S
C1140 C1141 1.387 . S
C1141 H1126 0.930 . S
C1141 C1136 1.390 . S
C1141 C1140 1.387 . S
H1142 C1154 0.930 . S
H1143 C1156 0.930 . S
H1144 C1157 0.930 . S
H1145 C1161 0.959 . S
H1146 C1161 0.959 . S
H1147 C1161 0.961 . S
H1148 C1162 0.960 . S
H1149 C1162 0.961 . S
H1150 C1162 0.959 . S
H1151 C1165 0.929 . S
H1152 C1166 0.931 . S
H1153 C1168 0.930 . S
C1154 H1142 0.930 . S
C1154 C1155 1.399 . S
C1154 C1159 1.399 . S
C1155 C1154 1.399 . S
C1155 C1156 1.376 . S
C1156 H1143 0.930 . S
C1156 C1155 1.376 . S
C1156 C1157 1.388 . S
C1157 H1144 0.930 . S
C1157 C1156 1.388 . S
C1157 C1158 1.390 . S
C1158 C1157 1.390 . S
C1158 C1159 1.394 . S
C1158 C1164 1.465 . S
C1159 C1154 1.399 . S
C1159 C1158 1.394 . S
C1159 C1160 1.516 . S
C1160 C1159 1.516 . S
C1160 C1161 1.502 . S
C1160 C1162 1.561 . S
C1160 C1163 1.526 . S
C1161 H1145 0.959 . S
C1161 H1146 0.959 . S
C1161 H1147 0.961 . S
C1161 C1160 1.502 . S
C1162 H1148 0.960 . S
C1162 H1149 0.961 . S
C1162 H1150 0.959 . S
C1162 C1160 1.561 . S
C1163 C1160 1.526 . S
C1163 C1164 1.396 . S
C1163 C1168 1.390 . S
C1164 C1158 1.465 . S
C1164 C1163 1.396 . S
C1164 C1165 1.399 . S
C1165 H1151 0.929 . S
C1165 C1164 1.399 . S
C1165 C1166 1.385 . S
C1166 H1152 0.931 . S
C1166 C1165 1.385 . S
C1166 C1167 1.389 . S
C1167 C1166 1.389 . S
C1167 C1168 1.387 . S
C1168 H1153 0.930 . S
C1168 C1163 1.390 . S
C1168 C1167 1.387 . S
H1169 C1181 0.930 . S
H1170 C1183 0.930 . S
H1171 C1184 0.930 . S
H1172 C1188 0.959 . S
H1173 C1188 0.959 . S
H1174 C1188 0.961 . S
H1175 C1189 0.960 . S
H1176 C1189 0.961 . S
H1177 C1189 0.959 . S
H1178 C1192 0.929 . S
H1179 C1193 0.931 . S
H1180 C1195 0.930 . S
C1181 H1169 0.930 . S
C1181 C1182 1.399 . S
C1181 C1186 1.399 . S
C1182 C1181 1.399 . S
C1182 C1183 1.376 . S
C1183 H1170 0.930 . S
C1183 C1182 1.376 . S
C1183 C1184 1.388 . S
C1184 H1171 0.930 . S
C1184 C1183 1.388 . S
C1184 C1185 1.390 . S
C1185 C1184 1.390 . S
C1185 C1186 1.394 . S
C1185 C1191 1.465 . S
C1186 C1181 1.399 . S
C1186 C1185 1.394 . S
C1186 C1187 1.516 . S
C1187 C1186 1.516 . S
C1187 C1188 1.502 . S
C1187 C1189 1.561 . S
C1187 C1190 1.526 . S
C1188 H1172 0.959 . S
C1188 H1173 0.959 . S
C1188 H1174 0.961 . S
C1188 C1187 1.502 . S
C1189 H1175 0.960 . S
C1189 H1176 0.961 . S
C1189 H1177 0.959 . S
C1189 C1187 1.561 . S
C1190 C1187 1.526 . S
C1190 C1191 1.396 . S
C1190 C1195 1.390 . S
C1191 C1185 1.465 . S
C1191 C1190 1.396 . S
C1191 C1192 1.399 . S
C1192 H1178 0.929 . S
C1192 C1191 1.399 . S
C1192 C1193 1.385 . S
C1193 H1179 0.931 . S
C1193 C1192 1.385 . S
C1193 C1194 1.389 . S
C1194 C1193 1.389 . S
C1194 C1195 1.387 . S
C1195 H1180 0.930 . S
C1195 C1190 1.390 . S
C1195 C1194 1.387 . S
H1196 C1208 0.930 . S
H1197 C1210 0.930 . S
H1198 C1211 0.930 . S
H1199 C1215 0.959 . S
H1200 C1215 0.959 . S
H1201 C1215 0.961 . S
H1202 C1216 0.960 . S
H1203 C1216 0.961 . S
H1204 C1216 0.959 . S
H1205 C1219 0.929 . S
H1206 C1220 0.931 . S
H1207 C1222 0.930 . S
C1208 H1196 0.930 . S
C1208 C1209 1.399 1_554 S
C1208 C1213 1.399 . S
C1209 C1208 1.399 1_556 S
C1209 C1210 1.376 . S
C1210 H1197 0.930 . S
C1210 C1209 1.376 . S
C1210 C1211 1.388 . S
C1211 H1198 0.930 . S
C1211 C1210 1.388 . S
C1211 C1212 1.390 . S
C1212 C1211 1.390 . S
C1212 C1213 1.394 1_556 S
C1212 C1218 1.465 . S
C1213 C1208 1.399 . S
C1213 C1212 1.394 1_554 S
C1213 C1214 1.516 . S
C1214 C1213 1.516 . S
C1214 C1215 1.502 . S
C1214 C1216 1.561 . S
C1214 C1217 1.526 . S
C1215 H1199 0.959 . S
C1215 H1200 0.959 . S
C1215 H1201 0.961 . S
C1215 C1214 1.502 . S
C1216 H1202 0.960 . S
C1216 H1203 0.961 . S
C1216 H1204 0.959 . S
C1216 C1214 1.561 . S
C1217 C1214 1.526 . S
C1217 C1218 1.396 1_554 S
C1217 C1222 1.390 . S
C1218 C1212 1.465 . S
C1218 C1217 1.396 1_556 S
C1218 C1219 1.399 . S
C1219 H1205 0.929 . S
C1219 C1218 1.399 . S
C1219 C1220 1.385 . S
C1220 H1206 0.931 . S
C1220 C1219 1.385 . S
C1220 C1221 1.389 . S
C1221 C1220 1.389 . S
C1221 C1222 1.387 1_556 S
C1222 H1207 0.930 . S
C1222 C1217 1.390 . S
C1222 C1221 1.387 1_554 S
H1223 C1235 0.930 . S
H1224 C1237 0.930 . S
H1225 C1238 0.930 . S
H1226 C1242 0.959 . S
H1227 C1242 0.959 . S
H1228 C1242 0.961 . S
H1229 C1243 0.960 . S
H1230 C1243 0.961 . S
H1231 C1243 0.959 . S
H1232 C1246 0.929 . S
H1233 C1247 0.931 . S
H1234 C1249 0.930 . S
C1235 H1223 0.930 . S
C1235 C1236 1.399 . S
C1235 C1240 1.399 . S
C1236 C1235 1.399 . S
C1236 C1237 1.376 . S
C1237 H1224 0.930 . S
C1237 C1236 1.376 . S
C1237 C1238 1.388 . S
C1238 H1225 0.930 . S
C1238 C1237 1.388 . S
C1238 C1239 1.390 . S
C1239 C1238 1.390 . S
C1239 C1240 1.394 . S
C1239 C1245 1.465 . S
C1240 C1235 1.399 . S
C1240 C1239 1.394 . S
C1240 C1241 1.516 . S
C1241 C1240 1.516 . S
C1241 C1242 1.502 . S
C1241 C1243 1.561 . S
C1241 C1244 1.526 . S
C1242 H1226 0.959 . S
C1242 H1227 0.959 . S
C1242 H1228 0.961 . S
C1242 C1241 1.502 . S
C1243 H1229 0.960 . S
C1243 H1230 0.961 . S
C1243 H1231 0.959 . S
C1243 C1241 1.561 . S
C1244 C1241 1.526 . S
C1244 C1245 1.396 . S
C1244 C1249 1.390 . S
C1245 C1239 1.465 . S
C1245 C1244 1.396 . S
C1245 C1246 1.399 . S
C1246 H1232 0.929 . S
C1246 C1245 1.399 . S
C1246 C1247 1.385 . S
C1247 H1233 0.931 . S
C1247 C1246 1.385 . S
C1247 C1248 1.389 . S
C1248 C1247 1.389 . S
C1248 C1249 1.387 . S
C1249 H1234 0.930 . S
C1249 C1244 1.390 . S
C1249 C1248 1.387 . S
H1250 C1262 0.930 . S
H1251 C1264 0.930 . S
H1252 C1265 0.930 . S
H1253 C1269 0.959 . S
H1254 C1269 0.959 . S
H1255 C1269 0.961 . S
H1256 C1270 0.960 . S
H1257 C1270 0.961 . S
H1258 C1270 0.959 . S
H1259 C1273 0.929 . S
H1260 C1274 0.931 . S
H1261 C1276 0.930 . S
C1262 H1250 0.930 . S
C1262 C1263 1.399 . S
C1262 C1267 1.399 . S
C1263 C1262 1.399 . S
C1263 C1264 1.376 . S
C1264 H1251 0.930 . S
C1264 C1263 1.376 . S
C1264 C1265 1.388 . S
C1265 H1252 0.930 . S
C1265 C1264 1.388 . S
C1265 C1266 1.390 . S
C1266 C1265 1.390 . S
C1266 C1267 1.394 . S
C1266 C1272 1.465 . S
C1267 C1262 1.399 . S
C1267 C1266 1.394 . S
C1267 C1268 1.516 . S
C1268 C1267 1.516 . S
C1268 C1269 1.502 . S
C1268 C1270 1.561 . S
C1268 C1271 1.526 . S
C1269 H1253 0.959 . S
C1269 H1254 0.959 . S
C1269 H1255 0.961 . S
C1269 C1268 1.502 . S
C1270 H1256 0.960 . S
C1270 H1257 0.961 . S
C1270 H1258 0.959 . S
C1270 C1268 1.561 . S
C1271 C1268 1.526 . S
C1271 C1272 1.396 . S
C1271 C1276 1.390 . S
C1272 C1266 1.465 . S
C1272 C1271 1.396 . S
C1272 C1273 1.399 . S
C1273 H1259 0.929 . S
C1273 C1272 1.399 . S
C1273 C1274 1.385 . S
C1274 H1260 0.931 . S
C1274 C1273 1.385 . S
C1274 C1275 1.389 . S
C1275 C1274 1.389 . S
C1275 C1276 1.387 . S
C1276 H1261 0.930 . S
C1276 C1271 1.390 . S
C1276 C1275 1.387 . S
H1277 C1289 0.930 . S
H1278 C1291 0.930 . S
H1279 C1292 0.930 . S
H1280 C1296 0.961 . S
H1281 C1296 0.975 . S
H1282 C1296 0.943 1_655 S
H1283 C1297 0.961 1_655 S
H1284 C1297 0.960 . S
H1285 C1297 0.955 . S
H1286 C1300 0.929 . S
H1287 C1301 0.931 . S
H1288 C1303 0.930 . S
C1289 H1277 0.930 . S
C1289 C1290 1.399 . S
C1289 C1294 1.399 . S
C1290 C1289 1.399 . S
C1290 C1291 1.376 . S
C1291 H1278 0.930 . S
C1291 C1290 1.376 . S
C1291 C1292 1.388 . S
C1292 H1279 0.930 . S
C1292 C1291 1.388 . S
C1292 C1293 1.390 . S
C1293 C1292 1.390 . S
C1293 C1294 1.394 . S
C1293 C1299 1.465 1_655 S
C1294 C1289 1.399 . S
C1294 C1293 1.394 . S
C1294 C1295 1.520 1_655 S
C1295 C1294 1.520 1_455 S
C1295 C1296 1.502 . S
C1295 C1297 1.561 . S
C1295 C1298 1.522 . S
C1296 H1280 0.961 . S
C1296 H1281 0.975 . S
C1296 H1282 0.943 1_455 S
C1296 C1295 1.502 . S
C1297 H1283 0.961 1_455 S
C1297 H1284 0.960 . S
C1297 H1285 0.955 . S
C1297 C1295 1.561 . S
C1298 C1295 1.522 . S
C1298 C1299 1.396 . S
C1298 C1303 1.390 . S
C1299 C1293 1.465 1_455 S
C1299 C1298 1.396 . S
C1299 C1300 1.399 . S
C1300 H1286 0.929 . S
C1300 C1299 1.399 . S
C1300 C1301 1.385 . S
C1301 H1287 0.931 . S
C1301 C1300 1.385 . S
C1301 C1302 1.389 . S
C1302 C1301 1.389 . S
C1302 C1303 1.387 . S
C1303 H1288 0.930 . S
C1303 C1298 1.390 . S
C1303 C1302 1.387 . S
H1304 C1316 0.930 . S
H1305 C1318 0.930 . S
H1306 C1319 0.930 . S
H1307 C1323 0.959 . S
H1308 C1323 0.959 . S
H1309 C1323 0.961 . S
H1310 C1324 0.960 . S
H1311 C1324 0.961 . S
H1312 C1324 0.959 . S
H1313 C1327 0.929 . S
H1314 C1328 0.931 . S
H1315 C1330 0.930 . S
C1316 H1304 0.930 . S
C1316 C1317 1.399 . S
C1316 C1321 1.399 . S
C1317 C1316 1.399 . S
C1317 C1318 1.376 1_556 S
C1318 H1305 0.930 . S
C1318 C1317 1.376 1_554 S
C1318 C1319 1.388 . S
C1319 H1306 0.930 . S
C1319 C1318 1.388 . S
C1319 C1320 1.390 . S
C1320 C1319 1.390 . S
C1320 C1321 1.394 1_554 S
C1320 C1326 1.465 . S
C1321 C1316 1.399 . S
C1321 C1320 1.394 1_556 S
C1321 C1322 1.516 . S
C1322 C1321 1.516 . S
C1322 C1323 1.502 . S
C1322 C1324 1.561 . S
C1322 C1325 1.526 . S
C1323 H1307 0.959 . S
C1323 H1308 0.959 . S
C1323 H1309 0.961 . S
C1323 C1322 1.502 . S
C1324 H1310 0.960 . S
C1324 H1311 0.961 . S
C1324 H1312 0.959 . S
C1324 C1322 1.561 . S
C1325 C1322 1.526 . S
C1325 C1326 1.396 1_556 S
C1325 C1330 1.390 . S
C1326 C1320 1.465 . S
C1326 C1325 1.396 1_554 S
C1326 C1327 1.399 . S
C1327 H1313 0.929 . S
C1327 C1326 1.399 . S
C1327 C1328 1.385 . S
C1328 H1314 0.931 . S
C1328 C1327 1.385 . S
C1328 C1329 1.389 1_554 S
C1329 C1328 1.389 1_556 S
C1329 C1330 1.387 . S
C1330 H1315 0.930 . S
C1330 C1325 1.390 . S
C1330 C1329 1.387 . S
H1331 C1343 0.930 . S
H1332 C1345 0.930 . S
H1333 C1346 0.930 . S
H1334 C1350 0.959 . S
H1335 C1350 0.959 . S
H1336 C1350 0.961 . S
H1337 C1351 0.960 . S
H1338 C1351 0.961 . S
H1339 C1351 0.959 . S
H1340 C1354 0.929 . S
H1341 C1355 0.931 . S
H1342 C1357 0.930 . S
C1343 H1331 0.930 . S
C1343 C1344 1.399 . S
C1343 C1348 1.399 . S
C1344 C1343 1.399 . S
C1344 C1345 1.376 . S
C1345 H1332 0.930 . S
C1345 C1344 1.376 . S
C1345 C1346 1.388 . S
C1346 H1333 0.930 . S
C1346 C1345 1.388 . S
C1346 C1347 1.390 . S
C1347 C1346 1.390 . S
C1347 C1348 1.394 . S
C1347 C1353 1.465 . S
C1348 C1343 1.399 . S
C1348 C1347 1.394 . S
C1348 C1349 1.516 . S
C1349 C1348 1.516 . S
C1349 C1350 1.502 . S
C1349 C1351 1.561 . S
C1349 C1352 1.526 . S
C1350 H1334 0.959 . S
C1350 H1335 0.959 . S
C1350 H1336 0.961 . S
C1350 C1349 1.502 . S
C1351 H1337 0.960 . S
C1351 H1338 0.961 . S
C1351 H1339 0.959 . S
C1351 C1349 1.561 . S
C1352 C1349 1.526 . S
C1352 C1353 1.396 . S
C1352 C1357 1.390 . S
C1353 C1347 1.465 . S
C1353 C1352 1.396 . S
C1353 C1354 1.399 . S
C1354 H1340 0.929 . S
C1354 C1353 1.399 . S
C1354 C1355 1.385 . S
C1355 H1341 0.931 . S
C1355 C1354 1.385 . S
C1355 C1356 1.389 . S
C1356 C1355 1.389 . S
C1356 C1357 1.387 . S
C1357 H1342 0.930 . S
C1357 C1352 1.390 . S
C1357 C1356 1.387 . S
H1358 C1370 0.930 . S
H1359 C1372 0.930 . S
H1360 C1373 0.930 . S
H1361 C1377 0.959 . S
H1362 C1377 0.959 . S
H1363 C1377 0.961 . S
H1364 C1378 0.960 . S
H1365 C1378 0.961 . S
H1366 C1378 0.959 . S
H1367 C1381 0.929 . S
H1368 C1382 0.931 . S
H1369 C1384 0.930 . S
C1370 H1358 0.930 . S
C1370 C1371 1.399 1_556 S
C1370 C1375 1.399 . S
C1371 C1370 1.399 1_554 S
C1371 C1372 1.376 . S
C1372 H1359 0.930 . S
C1372 C1371 1.376 . S
C1372 C1373 1.388 . S
C1373 H1360 0.930 . S
C1373 C1372 1.388 . S
C1373 C1374 1.390 . S
C1374 C1373 1.390 . S
C1374 C1375 1.394 1_554 S
C1374 C1380 1.465 . S
C1375 C1370 1.399 . S
C1375 C1374 1.394 1_556 S
C1375 C1376 1.516 . S
C1376 C1375 1.516 . S
C1376 C1377 1.502 . S
C1376 C1378 1.561 . S
C1376 C1379 1.526 . S
C1377 H1361 0.959 . S
C1377 H1362 0.959 . S
C1377 H1363 0.961 . S
C1377 C1376 1.502 . S
C1378 H1364 0.960 . S
C1378 H1365 0.961 . S
C1378 H1366 0.959 . S
C1378 C1376 1.561 . S
C1379 C1376 1.526 . S
C1379 C1380 1.396 1_556 S
C1379 C1384 1.390 . S
C1380 C1374 1.465 . S
C1380 C1379 1.396 1_554 S
C1380 C1381 1.399 . S
C1381 H1367 0.929 . S
C1381 C1380 1.399 . S
C1381 C1382 1.385 . S
C1382 H1368 0.931 . S
C1382 C1381 1.385 . S
C1382 C1383 1.389 . S
C1383 C1382 1.389 . S
C1383 C1384 1.387 1_554 S
C1384 H1369 0.930 . S
C1384 C1379 1.390 . S
C1384 C1383 1.387 1_556 S
H1385 C1397 0.930 . S
H1386 C1399 0.930 . S
H1387 C1400 0.930 . S
H1388 C1404 0.959 . S
H1389 C1404 0.959 . S
H1390 C1404 0.961 . S
H1391 C1405 0.960 . S
H1392 C1405 0.961 . S
H1393 C1405 0.959 . S
H1394 C1408 0.929 . S
H1395 C1409 0.931 . S
H1396 C1411 0.930 . S
C1397 H1385 0.930 . S
C1397 C1398 1.399 . S
C1397 C1402 1.399 . S
C1398 C1397 1.399 . S
C1398 C1399 1.376 . S
C1399 H1386 0.930 . S
C1399 C1398 1.376 . S
C1399 C1400 1.388 . S
C1400 H1387 0.930 . S
C1400 C1399 1.388 . S
C1400 C1401 1.390 . S
C1401 C1400 1.390 . S
C1401 C1402 1.394 . S
C1401 C1407 1.465 . S
C1402 C1397 1.399 . S
C1402 C1401 1.394 . S
C1402 C1403 1.516 . S
C1403 C1402 1.516 . S
C1403 C1404 1.502 . S
C1403 C1405 1.561 . S
C1403 C1406 1.526 . S
C1404 H1388 0.959 . S
C1404 H1389 0.959 . S
C1404 H1390 0.961 . S
C1404 C1403 1.502 . S
C1405 H1391 0.960 . S
C1405 H1392 0.961 . S
C1405 H1393 0.959 . S
C1405 C1403 1.561 . S
C1406 C1403 1.526 . S
C1406 C1407 1.396 . S
C1406 C1411 1.390 . S
C1407 C1401 1.465 . S
C1407 C1406 1.396 . S
C1407 C1408 1.399 . S
C1408 H1394 0.929 . S
C1408 C1407 1.399 . S
C1408 C1409 1.385 . S
C1409 H1395 0.931 . S
C1409 C1408 1.385 . S
C1409 C1410 1.389 . S
C1410 C1409 1.389 . S
C1410 C1411 1.387 . S
C1411 H1396 0.930 . S
C1411 C1406 1.390 . S
C1411 C1410 1.387 . S
H1412 C1424 0.930 . S
H1413 C1426 0.930 . S
H1414 C1427 0.930 . S
H1415 C1431 0.959 . S
H1416 C1431 0.959 . S
H1417 C1431 0.961 . S
H1418 C1432 0.960 . S
H1419 C1432 0.961 . S
H1420 C1432 0.959 . S
H1421 C1435 0.929 . S
H1422 C1436 0.931 . S
H1423 C1438 0.930 . S
C1424 H1412 0.930 . S
C1424 C1425 1.399 . S
C1424 C1429 1.399 . S
C1425 C1424 1.399 . S
C1425 C1426 1.376 . S
C1426 H1413 0.930 . S
C1426 C1425 1.376 . S
C1426 C1427 1.388 . S
C1427 H1414 0.930 . S
C1427 C1426 1.388 . S
C1427 C1428 1.390 . S
C1428 C1427 1.390 . S
C1428 C1429 1.394 . S
C1428 C1434 1.465 . S
C1429 C1424 1.399 . S
C1429 C1428 1.394 . S
C1429 C1430 1.516 . S
C1430 C1429 1.516 . S
C1430 C1431 1.502 . S
C1430 C1432 1.561 . S
C1430 C1433 1.526 . S
C1431 H1415 0.959 . S
C1431 H1416 0.959 . S
C1431 H1417 0.961 . S
C1431 C1430 1.502 . S
C1432 H1418 0.960 . S
C1432 H1419 0.961 . S
C1432 H1420 0.959 . S
C1432 C1430 1.561 . S
C1433 C1430 1.526 . S
C1433 C1434 1.396 . S
C1433 C1438 1.390 . S
C1434 C1428 1.465 . S
C1434 C1433 1.396 . S
C1434 C1435 1.399 . S
C1435 H1421 0.929 . S
C1435 C1434 1.399 . S
C1435 C1436 1.385 . S
C1436 H1422 0.931 . S
C1436 C1435 1.385 . S
C1436 C1437 1.389 . S
C1437 C1436 1.389 . S
C1437 C1438 1.387 . S
C1438 H1423 0.930 . S
C1438 C1433 1.390 . S
C1438 C1437 1.387 . S
H1439 C1451 0.930 . S
H1440 C1453 0.930 . S
H1441 C1454 0.930 . S
H1442 C1458 0.961 . S
H1443 C1458 0.975 . S
H1444 C1458 0.943 1_455 S
H1445 C1459 0.961 1_455 S
H1446 C1459 0.960 . S
H1447 C1459 0.955 . S
H1448 C1462 0.929 . S
H1449 C1463 0.931 . S
H1450 C1465 0.930 . S
C1451 H1439 0.930 . S
C1451 C1452 1.399 . S
C1451 C1456 1.399 . S
C1452 C1451 1.399 . S
C1452 C1453 1.376 . S
C1453 H1440 0.930 . S
C1453 C1452 1.376 . S
C1453 C1454 1.388 . S
C1454 H1441 0.930 . S
C1454 C1453 1.388 . S
C1454 C1455 1.390 . S
C1455 C1454 1.390 . S
C1455 C1456 1.394 . S
C1455 C1461 1.465 1_455 S
C1456 C1451 1.399 . S
C1456 C1455 1.394 . S
C1456 C1457 1.520 1_455 S
C1457 C1456 1.520 1_655 S
C1457 C1458 1.502 . S
C1457 C1459 1.561 . S
C1457 C1460 1.522 . S
C1458 H1442 0.961 . S
C1458 H1443 0.975 . S
C1458 H1444 0.943 1_655 S
C1458 C1457 1.502 . S
C1459 H1445 0.961 1_655 S
C1459 H1446 0.960 . S
C1459 H1447 0.955 . S
C1459 C1457 1.561 . S
C1460 C1457 1.522 . S
C1460 C1461 1.396 . S
C1460 C1465 1.390 . S
C1461 C1455 1.465 1_655 S
C1461 C1460 1.396 . S
C1461 C1462 1.399 . S
C1462 H1448 0.929 . S
C1462 C1461 1.399 . S
C1462 C1463 1.385 . S
C1463 H1449 0.931 . S
C1463 C1462 1.385 . S
C1463 C1464 1.389 . S
C1464 C1463 1.389 . S
C1464 C1465 1.387 . S
C1465 H1450 0.930 . S
C1465 C1460 1.390 . S
C1465 C1464 1.387 . S
H1466 C1478 0.930 . S
H1467 C1480 0.930 . S
H1468 C1481 0.930 . S
H1469 C1485 0.961 . S
H1470 C1485 0.975 . S
H1471 C1485 0.943 1_455 S
H1472 C1486 0.961 1_455 S
H1473 C1486 0.960 . S
H1474 C1486 0.955 . S
H1475 C1489 0.929 . S
H1476 C1490 0.931 . S
H1477 C1492 0.930 . S
C1478 H1466 0.930 . S
C1478 C1479 1.399 . S
C1478 C1483 1.399 . S
C1479 C1478 1.399 . S
C1479 C1480 1.376 . S
C1480 H1467 0.930 . S
C1480 C1479 1.376 . S
C1480 C1481 1.388 . S
C1481 H1468 0.930 . S
C1481 C1480 1.388 . S
C1481 C1482 1.390 . S
C1482 C1481 1.390 . S
C1482 C1483 1.394 . S
C1482 C1488 1.465 1_455 S
C1483 C1478 1.399 . S
C1483 C1482 1.394 . S
C1483 C1484 1.520 1_455 S
C1484 C1483 1.520 1_655 S
C1484 C1485 1.502 . S
C1484 C1486 1.561 . S
C1484 C1487 1.522 . S
C1485 H1469 0.961 . S
C1485 H1470 0.975 . S
C1485 H1471 0.943 1_655 S
C1485 C1484 1.502 . S
C1486 H1472 0.961 1_655 S
C1486 H1473 0.960 . S
C1486 H1474 0.955 . S
C1486 C1484 1.561 . S
C1487 C1484 1.522 . S
C1487 C1488 1.396 . S
C1487 C1492 1.390 . S
C1488 C1482 1.465 1_655 S
C1488 C1487 1.396 . S
C1488 C1489 1.399 . S
C1489 H1475 0.929 . S
C1489 C1488 1.399 . S
C1489 C1490 1.385 . S
C1490 H1476 0.931 . S
C1490 C1489 1.385 . S
C1490 C1491 1.389 . S
C1491 C1490 1.389 . S
C1491 C1492 1.387 . S
C1492 H1477 0.930 . S
C1492 C1487 1.390 . S
C1492 C1491 1.387 . S
H1493 C1505 0.930 . S
H1494 C1507 0.930 . S
H1495 C1508 0.930 . S
H1496 C1512 0.959 . S
H1497 C1512 0.959 . S
H1498 C1512 0.961 . S
H1499 C1513 0.960 . S
H1500 C1513 0.961 . S
H1501 C1513 0.959 . S
H1502 C1516 0.929 . S
H1503 C1517 0.931 . S
H1504 C1519 0.930 . S
C1505 H1493 0.930 . S
C1505 C1506 1.399 . S
C1505 C1510 1.399 . S
C1506 C1505 1.399 . S
C1506 C1507 1.376 . S
C1507 H1494 0.930 . S
C1507 C1506 1.376 . S
C1507 C1508 1.388 . S
C1508 H1495 0.930 . S
C1508 C1507 1.388 . S
C1508 C1509 1.390 . S
C1509 C1508 1.390 . S
C1509 C1510 1.394 . S
C1509 C1515 1.465 . S
C1510 C1505 1.399 . S
C1510 C1509 1.394 . S
C1510 C1511 1.516 . S
C1511 C1510 1.516 . S
C1511 C1512 1.502 . S
C1511 C1513 1.561 . S
C1511 C1514 1.526 . S
C1512 H1496 0.959 . S
C1512 H1497 0.959 . S
C1512 H1498 0.961 . S
C1512 C1511 1.502 . S
C1513 H1499 0.960 . S
C1513 H1500 0.961 . S
C1513 H1501 0.959 . S
C1513 C1511 1.561 . S
C1514 C1511 1.526 . S
C1514 C1515 1.396 . S
C1514 C1519 1.390 . S
C1515 C1509 1.465 . S
C1515 C1514 1.396 . S
C1515 C1516 1.399 . S
C1516 H1502 0.929 . S
C1516 C1515 1.399 . S
C1516 C1517 1.385 . S
C1517 H1503 0.931 . S
C1517 C1516 1.385 . S
C1517 C1518 1.389 . S
C1518 C1517 1.389 . S
C1518 C1519 1.387 . S
C1519 H1504 0.930 . S
C1519 C1514 1.390 . S
C1519 C1518 1.387 . S
H1520 C1532 0.930 . S
H1521 C1534 0.930 . S
H1522 C1535 0.930 . S
H1523 C1539 0.959 . S
H1524 C1539 0.959 . S
H1525 C1539 0.961 . S
H1526 C1540 0.960 . S
H1527 C1540 0.961 . S
H1528 C1540 0.959 . S
H1529 C1543 0.929 . S
H1530 C1544 0.931 . S
H1531 C1546 0.930 . S
C1532 H1520 0.930 . S
C1532 C1533 1.399 . S
C1532 C1537 1.399 . S
C1533 C1532 1.399 . S
C1533 C1534 1.376 . S
C1534 H1521 0.930 . S
C1534 C1533 1.376 . S
C1534 C1535 1.388 . S
C1535 H1522 0.930 . S
C1535 C1534 1.388 . S
C1535 C1536 1.390 . S
C1536 C1535 1.390 . S
C1536 C1537 1.394 . S
C1536 C1542 1.465 . S
C1537 C1532 1.399 . S
C1537 C1536 1.394 . S
C1537 C1538 1.516 . S
C1538 C1537 1.516 . S
C1538 C1539 1.502 . S
C1538 C1540 1.561 . S
C1538 C1541 1.526 . S
C1539 H1523 0.959 . S
C1539 H1524 0.959 . S
C1539 H1525 0.961 . S
C1539 C1538 1.502 . S
C1540 H1526 0.960 . S
C1540 H1527 0.961 . S
C1540 H1528 0.959 . S
C1540 C1538 1.561 . S
C1541 C1538 1.526 . S
C1541 C1542 1.396 . S
C1541 C1546 1.390 . S
C1542 C1536 1.465 . S
C1542 C1541 1.396 . S
C1542 C1543 1.399 . S
C1543 H1529 0.929 . S
C1543 C1542 1.399 . S
C1543 C1544 1.385 . S
C1544 H1530 0.931 . S
C1544 C1543 1.385 . S
C1544 C1545 1.389 . S
C1545 C1544 1.389 . S
C1545 C1546 1.387 . S
C1546 H1531 0.930 . S
C1546 C1541 1.390 . S
C1546 C1545 1.387 . S
H1547 C1559 0.930 . S
H1548 C1561 0.930 . S
H1549 C1562 0.930 . S
H1550 C1566 0.959 . S
H1551 C1566 0.959 . S
H1552 C1566 0.961 . S
H1553 C1567 0.960 . S
H1554 C1567 0.961 . S
H1555 C1567 0.959 . S
H1556 C1570 0.929 . S
H1557 C1571 0.931 . S
H1558 C1573 0.930 . S
C1559 H1547 0.930 . S
C1559 C1560 1.399 . S
C1559 C1564 1.399 . S
C1560 C1559 1.399 . S
C1560 C1561 1.376 . S
C1561 H1548 0.930 . S
C1561 C1560 1.376 . S
C1561 C1562 1.388 . S
C1562 H1549 0.930 . S
C1562 C1561 1.388 . S
C1562 C1563 1.390 . S
C1563 C1562 1.390 . S
C1563 C1564 1.394 . S
C1563 C1569 1.465 . S
C1564 C1559 1.399 . S
C1564 C1563 1.394 . S
C1564 C1565 1.516 . S
C1565 C1564 1.516 . S
C1565 C1566 1.502 . S
C1565 C1567 1.561 . S
C1565 C1568 1.526 . S
C1566 H1550 0.959 . S
C1566 H1551 0.959 . S
C1566 H1552 0.961 . S
C1566 C1565 1.502 . S
C1567 H1553 0.960 . S
C1567 H1554 0.961 . S
C1567 H1555 0.959 . S
C1567 C1565 1.561 . S
C1568 C1565 1.526 . S
C1568 C1569 1.396 . S
C1568 C1573 1.390 . S
C1569 C1563 1.465 . S
C1569 C1568 1.396 . S
C1569 C1570 1.399 . S
C1570 H1556 0.929 . S
C1570 C1569 1.399 . S
C1570 C1571 1.385 . S
C1571 H1557 0.931 . S
C1571 C1570 1.385 . S
C1571 C1572 1.389 . S
C1572 C1571 1.389 . S
C1572 C1573 1.387 . S
C1573 H1558 0.930 . S
C1573 C1568 1.390 . S
C1573 C1572 1.387 . S
H1574 C1586 0.930 . S
H1575 C1588 0.930 . S
H1576 C1589 0.930 . S
H1577 C1593 0.959 . S
H1578 C1593 0.959 . S
H1579 C1593 0.961 1_556 S
H1580 C1594 0.960 . S
H1581 C1594 0.961 1_554 S
H1582 C1594 0.959 . S
H1583 C1597 0.929 . S
H1584 C1598 0.931 . S
H1585 C1600 0.930 . S
C1586 H1574 0.930 . S
C1586 C1587 1.399 . S
C1586 C1591 1.399 . S
C1587 C1586 1.399 . S
C1587 C1588 1.376 . S
C1588 H1575 0.930 . S
C1588 C1587 1.376 . S
C1588 C1589 1.388 . S
C1589 H1576 0.930 . S
C1589 C1588 1.388 . S
C1589 C1590 1.390 . S
C1590 C1589 1.390 . S
C1590 C1591 1.394 . S
C1590 C1596 1.465 1_556 S
C1591 C1586 1.399 . S
C1591 C1590 1.394 . S
C1591 C1592 1.516 . S
C1592 C1591 1.516 . S
C1592 C1593 1.502 1_556 S
C1592 C1594 1.561 . S
C1592 C1595 1.526 1_556 S
C1593 H1577 0.959 . S
C1593 H1578 0.959 . S
C1593 H1579 0.961 1_554 S
C1593 C1592 1.502 1_554 S
C1594 H1580 0.960 . S
C1594 H1581 0.961 1_556 S
C1594 H1582 0.959 . S
C1594 C1592 1.561 . S
C1595 C1592 1.526 1_554 S
C1595 C1596 1.396 . S
C1595 C1600 1.390 . S
C1596 C1590 1.465 1_554 S
C1596 C1595 1.396 . S
C1596 C1597 1.399 . S
C1597 H1583 0.929 . S
C1597 C1596 1.399 . S
C1597 C1598 1.385 . S
C1598 H1584 0.931 . S
C1598 C1597 1.385 . S
C1598 C1599 1.389 . S
C1599 C1598 1.389 . S
C1599 C1600 1.387 . S
C1600 H1585 0.930 . S
C1600 C1595 1.390 . S
C1600 C1599 1.387 . S
H1601 C1613 0.930 . S
H1602 C1615 0.930 . S
H1603 C1616 0.930 . S
H1604 C1620 0.959 . S
H1605 C1620 0.959 . S
H1606 C1620 0.961 . S
H1607 C1621 0.960 . S
H1608 C1621 0.961 . S
H1609 C1621 0.959 . S
H1610 C1624 0.929 . S
H1611 C1625 0.931 . S
H1612 C1627 0.930 . S
C1613 H1601 0.930 . S
C1613 C1614 1.399 . S
C1613 C1618 1.399 . S
C1614 C1613 1.399 . S
C1614 C1615 1.376 . S
C1615 H1602 0.930 . S
C1615 C1614 1.376 . S
C1615 C1616 1.388 . S
C1616 H1603 0.930 . S
C1616 C1615 1.388 . S
C1616 C1617 1.390 . S
C1617 C1616 1.390 . S
C1617 C1618 1.394 . S
C1617 C1623 1.465 . S
C1618 C1613 1.399 . S
C1618 C1617 1.394 . S
C1618 C1619 1.516 . S
C1619 C1618 1.516 . S
C1619 C1620 1.502 . S
C1619 C1621 1.561 . S
C1619 C1622 1.526 . S
C1620 H1604 0.959 . S
C1620 H1605 0.959 . S
C1620 H1606 0.961 . S
C1620 C1619 1.502 . S
C1621 H1607 0.960 . S
C1621 H1608 0.961 . S
C1621 H1609 0.959 . S
C1621 C1619 1.561 . S
C1622 C1619 1.526 . S
C1622 C1623 1.396 . S
C1622 C1627 1.390 . S
C1623 C1617 1.465 . S
C1623 C1622 1.396 . S
C1623 C1624 1.399 . S
C1624 H1610 0.929 . S
C1624 C1623 1.399 . S
C1624 C1625 1.385 . S
C1625 H1611 0.931 . S
C1625 C1624 1.385 . S
C1625 C1626 1.389 . S
C1626 C1625 1.389 . S
C1626 C1627 1.387 . S
C1627 H1612 0.930 . S
C1627 C1622 1.390 . S
C1627 C1626 1.387 . S
H1628 C1640 0.930 . S
H1629 C1642 0.930 . S
H1630 C1643 0.930 . S
H1631 C1647 0.959 . S
H1632 C1647 0.959 . S
H1633 C1647 0.961 . S
H1634 C1648 0.960 . S
H1635 C1648 0.961 . S
H1636 C1648 0.959 . S
H1637 C1651 0.929 . S
H1638 C1652 0.931 . S
H1639 C1654 0.930 . S
C1640 H1628 0.930 . S
C1640 C1641 1.399 . S
C1640 C1645 1.399 . S
C1641 C1640 1.399 . S
C1641 C1642 1.376 . S
C1642 H1629 0.930 . S
C1642 C1641 1.376 . S
C1642 C1643 1.388 . S
C1643 H1630 0.930 . S
C1643 C1642 1.388 . S
C1643 C1644 1.390 . S
C1644 C1643 1.390 . S
C1644 C1645 1.394 . S
C1644 C1650 1.465 . S
C1645 C1640 1.399 . S
C1645 C1644 1.394 . S
C1645 C1646 1.516 . S
C1646 C1645 1.516 . S
C1646 C1647 1.502 . S
C1646 C1648 1.561 . S
C1646 C1649 1.526 . S
C1647 H1631 0.959 . S
C1647 H1632 0.959 . S
C1647 H1633 0.961 . S
C1647 C1646 1.502 . S
C1648 H1634 0.960 . S
C1648 H1635 0.961 . S
C1648 H1636 0.959 . S
C1648 C1646 1.561 . S
C1649 C1646 1.526 . S
C1649 C1650 1.396 . S
C1649 C1654 1.390 . S
C1650 C1644 1.465 . S
C1650 C1649 1.396 . S
C1650 C1651 1.399 . S
C1651 H1637 0.929 . S
C1651 C1650 1.399 . S
C1651 C1652 1.385 . S
C1652 H1638 0.931 . S
C1652 C1651 1.385 . S
C1652 C1653 1.389 . S
C1653 C1652 1.389 . S
C1653 C1654 1.387 . S
C1654 H1639 0.930 . S
C1654 C1649 1.390 . S
C1654 C1653 1.387 . S
H1655 C1667 0.930 . S
H1656 C1669 0.930 . S
H1657 C1670 0.930 . S
H1658 C1674 0.959 . S
H1659 C1674 0.959 . S
H1660 C1674 0.961 . S
H1661 C1675 0.960 . S
H1662 C1675 0.961 . S
H1663 C1675 0.959 . S
H1664 C1678 0.929 . S
H1665 C1679 0.931 . S
H1666 C1681 0.930 . S
C1667 H1655 0.930 . S
C1667 C1668 1.399 . S
C1667 C1672 1.399 . S
C1668 C1667 1.399 . S
C1668 C1669 1.376 . S
C1669 H1656 0.930 . S
C1669 C1668 1.376 . S
C1669 C1670 1.388 . S
C1670 H1657 0.930 . S
C1670 C1669 1.388 . S
C1670 C1671 1.390 . S
C1671 C1670 1.390 . S
C1671 C1672 1.394 . S
C1671 C1677 1.465 . S
C1672 C1667 1.399 . S
C1672 C1671 1.394 . S
C1672 C1673 1.516 . S
C1673 C1672 1.516 . S
C1673 C1674 1.502 . S
C1673 C1675 1.561 . S
C1673 C1676 1.526 . S
C1674 H1658 0.959 . S
C1674 H1659 0.959 . S
C1674 H1660 0.961 . S
C1674 C1673 1.502 . S
C1675 H1661 0.960 . S
C1675 H1662 0.961 . S
C1675 H1663 0.959 . S
C1675 C1673 1.561 . S
C1676 C1673 1.526 . S
C1676 C1677 1.396 . S
C1676 C1681 1.390 . S
C1677 C1671 1.465 . S
C1677 C1676 1.396 . S
C1677 C1678 1.399 . S
C1678 H1664 0.929 . S
C1678 C1677 1.399 . S
C1678 C1679 1.385 . S
C1679 H1665 0.931 . S
C1679 C1678 1.385 . S
C1679 C1680 1.389 . S
C1680 C1679 1.389 . S
C1680 C1681 1.387 . S
C1681 H1666 0.930 . S
C1681 C1676 1.390 . S
C1681 C1680 1.387 . S
H1682 C1694 0.930 . S
H1683 C1696 0.930 . S
H1684 C1697 0.930 . S
H1685 C1701 0.959 . S
H1686 C1701 0.959 . S
H1687 C1701 0.961 . S
H1688 C1702 0.960 1_556 S
H1689 C1702 0.961 . S
H1690 C1702 0.959 1_556 S
H1691 C1705 0.929 . S
H1692 C1706 0.931 . S
H1693 C1708 0.930 . S
C1694 H1682 0.930 . S
C1694 C1695 1.399 . S
C1694 C1699 1.399 . S
C1695 C1694 1.399 . S
C1695 C1696 1.376 . S
C1696 H1683 0.930 . S
C1696 C1695 1.376 . S
C1696 C1697 1.388 . S
C1697 H1684 0.930 . S
C1697 C1696 1.388 . S
C1697 C1698 1.390 . S
C1698 C1697 1.390 . S
C1698 C1699 1.394 . S
C1698 C1704 1.465 1_556 S
C1699 C1694 1.399 . S
C1699 C1698 1.394 . S
C1699 C1700 1.516 1_556 S
C1700 C1699 1.516 1_554 S
C1700 C1701 1.502 . S
C1700 C1702 1.561 . S
C1700 C1703 1.526 . S
C1701 H1685 0.959 . S
C1701 H1686 0.959 . S
C1701 H1687 0.961 . S
C1701 C1700 1.502 . S
C1702 H1688 0.960 1_554 S
C1702 H1689 0.961 . S
C1702 H1690 0.959 1_554 S
C1702 C1700 1.561 . S
C1703 C1700 1.526 . S
C1703 C1704 1.396 . S
C1703 C1708 1.390 . S
C1704 C1698 1.465 1_554 S
C1704 C1703 1.396 . S
C1704 C1705 1.399 . S
C1705 H1691 0.929 . S
C1705 C1704 1.399 . S
C1705 C1706 1.385 . S
C1706 H1692 0.931 . S
C1706 C1705 1.385 . S
C1706 C1707 1.389 . S
C1707 C1706 1.389 . S
C1707 C1708 1.387 . S
C1708 H1693 0.930 . S
C1708 C1703 1.390 . S
C1708 C1707 1.387 . S
H1709 C1721 0.930 . S
H1710 C1723 0.930 . S
H1711 C1724 0.930 . S
H1712 C1728 0.959 . S
H1713 C1728 0.959 . S
H1714 C1728 0.961 . S
H1715 C1729 0.960 . S
H1716 C1729 0.961 . S
H1717 C1729 0.959 . S
H1718 C1732 0.929 . S
H1719 C1733 0.931 . S
H1720 C1735 0.930 . S
C1721 H1709 0.930 . S
C1721 C1722 1.399 . S
C1721 C1726 1.399 . S
C1722 C1721 1.399 . S
C1722 C1723 1.376 . S
C1723 H1710 0.930 . S
C1723 C1722 1.376 . S
C1723 C1724 1.388 . S
C1724 H1711 0.930 . S
C1724 C1723 1.388 . S
C1724 C1725 1.390 . S
C1725 C1724 1.390 . S
C1725 C1726 1.394 . S
C1725 C1731 1.465 . S
C1726 C1721 1.399 . S
C1726 C1725 1.394 . S
C1726 C1727 1.516 . S
C1727 C1726 1.516 . S
C1727 C1728 1.502 . S
C1727 C1729 1.561 . S
C1727 C1730 1.526 . S
C1728 H1712 0.959 . S
C1728 H1713 0.959 . S
C1728 H1714 0.961 . S
C1728 C1727 1.502 . S
C1729 H1715 0.960 . S
C1729 H1716 0.961 . S
C1729 H1717 0.959 . S
C1729 C1727 1.561 . S
C1730 C1727 1.526 . S
C1730 C1731 1.396 . S
C1730 C1735 1.390 . S
C1731 C1725 1.465 . S
C1731 C1730 1.396 . S
C1731 C1732 1.399 . S
C1732 H1718 0.929 . S
C1732 C1731 1.399 . S
C1732 C1733 1.385 . S
C1733 H1719 0.931 . S
C1733 C1732 1.385 . S
C1733 C1734 1.389 . S
C1734 C1733 1.389 . S
C1734 C1735 1.387 . S
C1735 H1720 0.930 . S
C1735 C1730 1.390 . S
C1735 C1734 1.387 . S
H1736 C1748 0.930 . S
H1737 C1750 0.930 . S
H1738 C1751 0.930 . S
H1739 C1755 0.959 . S
H1740 C1755 0.959 . S
H1741 C1755 0.961 . S
H1742 C1756 0.960 . S
H1743 C1756 0.961 . S
H1744 C1756 0.959 . S
H1745 C1759 0.929 . S
H1746 C1760 0.931 . S
H1747 C1762 0.930 . S
C1748 H1736 0.930 . S
C1748 C1749 1.399 . S
C1748 C1753 1.399 . S
C1749 C1748 1.399 . S
C1749 C1750 1.376 . S
C1750 H1737 0.930 . S
C1750 C1749 1.376 . S
C1750 C1751 1.388 . S
C1751 H1738 0.930 . S
C1751 C1750 1.388 . S
C1751 C1752 1.390 . S
C1752 C1751 1.390 . S
C1752 C1753 1.394 . S
C1752 C1758 1.465 . S
C1753 C1748 1.399 . S
C1753 C1752 1.394 . S
C1753 C1754 1.516 . S
C1754 C1753 1.516 . S
C1754 C1755 1.502 . S
C1754 C1756 1.561 . S
C1754 C1757 1.526 . S
C1755 H1739 0.959 . S
C1755 H1740 0.959 . S
C1755 H1741 0.961 . S
C1755 C1754 1.502 . S
C1756 H1742 0.960 . S
C1756 H1743 0.961 . S
C1756 H1744 0.959 . S
C1756 C1754 1.561 . S
C1757 C1754 1.526 . S
C1757 C1758 1.396 . S
C1757 C1762 1.390 . S
C1758 C1752 1.465 . S
C1758 C1757 1.396 . S
C1758 C1759 1.399 . S
C1759 H1745 0.929 . S
C1759 C1758 1.399 . S
C1759 C1760 1.385 . S
C1760 H1746 0.931 . S
C1760 C1759 1.385 . S
C1760 C1761 1.389 . S
C1761 C1760 1.389 . S
C1761 C1762 1.387 . S
C1762 H1747 0.930 . S
C1762 C1757 1.390 . S
C1762 C1761 1.387 . S
H1763 C1775 0.930 . S
H1764 C1777 0.930 . S
H1765 C1778 0.930 . S
H1766 C1782 0.959 . S
H1767 C1782 0.959 . S
H1768 C1782 0.961 . S
H1769 C1783 0.960 . S
H1770 C1783 0.961 . S
H1771 C1783 0.959 . S
H1772 C1786 0.929 . S
H1773 C1787 0.931 . S
H1774 C1789 0.930 . S
C1775 H1763 0.930 . S
C1775 C1776 1.399 . S
C1775 C1780 1.399 . S
C1776 C1775 1.399 . S
C1776 C1777 1.376 . S
C1777 H1764 0.930 . S
C1777 C1776 1.376 . S
C1777 C1778 1.388 . S
C1778 H1765 0.930 . S
C1778 C1777 1.388 . S
C1778 C1779 1.390 . S
C1779 C1778 1.390 . S
C1779 C1780 1.394 . S
C1779 C1785 1.465 . S
C1780 C1775 1.399 . S
C1780 C1779 1.394 . S
C1780 C1781 1.516 . S
C1781 C1780 1.516 . S
C1781 C1782 1.502 . S
C1781 C1783 1.561 . S
C1781 C1784 1.526 . S
C1782 H1766 0.959 . S
C1782 H1767 0.959 . S
C1782 H1768 0.961 . S
C1782 C1781 1.502 . S
C1783 H1769 0.960 . S
C1783 H1770 0.961 . S
C1783 H1771 0.959 . S
C1783 C1781 1.561 . S
C1784 C1781 1.526 . S
C1784 C1785 1.396 . S
C1784 C1789 1.390 . S
C1785 C1779 1.465 . S
C1785 C1784 1.396 . S
C1785 C1786 1.399 . S
C1786 H1772 0.929 . S
C1786 C1785 1.399 . S
C1786 C1787 1.385 . S
C1787 H1773 0.931 . S
C1787 C1786 1.385 . S
C1787 C1788 1.389 . S
C1788 C1787 1.389 . S
C1788 C1789 1.387 . S
C1789 H1774 0.930 . S
C1789 C1784 1.390 . S
C1789 C1788 1.387 . S
H1790 C1802 0.930 . S
H1791 C1804 0.930 . S
H1792 C1805 0.930 . S
H1793 C1809 0.959 . S
H1794 C1809 0.959 . S
H1795 C1809 0.961 . S
H1796 C1810 0.960 . S
H1797 C1810 0.961 1_556 S
H1798 C1810 0.959 1_556 S
H1799 C1813 0.929 . S
H1800 C1814 0.931 . S
H1801 C1816 0.930 . S
C1802 H1790 0.930 . S
C1802 C1803 1.399 . S
C1802 C1807 1.399 . S
C1803 C1802 1.399 . S
C1803 C1804 1.376 . S
C1804 H1791 0.930 . S
C1804 C1803 1.376 . S
C1804 C1805 1.388 . S
C1805 H1792 0.930 . S
C1805 C1804 1.388 . S
C1805 C1806 1.390 . S
C1806 C1805 1.390 . S
C1806 C1807 1.394 . S
C1806 C1812 1.465 1_554 S
C1807 C1802 1.399 . S
C1807 C1806 1.394 . S
C1807 C1808 1.516 . S
C1808 C1807 1.516 . S
C1808 C1809 1.502 . S
C1808 C1810 1.561 . S
C1808 C1811 1.526 1_554 S
C1809 H1793 0.959 . S
C1809 H1794 0.959 . S
C1809 H1795 0.961 . S
C1809 C1808 1.502 . S
C1810 H1796 0.960 . S
C1810 H1797 0.961 1_554 S
C1810 H1798 0.959 1_554 S
C1810 C1808 1.561 . S
C1811 C1808 1.526 1_556 S
C1811 C1812 1.396 . S
C1811 C1816 1.390 . S
C1812 C1806 1.465 1_556 S
C1812 C1811 1.396 . S
C1812 C1813 1.399 . S
C1813 H1799 0.929 . S
C1813 C1812 1.399 . S
C1813 C1814 1.385 . S
C1814 H1800 0.931 . S
C1814 C1813 1.385 . S
C1814 C1815 1.389 . S
C1815 C1814 1.389 . S
C1815 C1816 1.387 . S
C1816 H1801 0.930 . S
C1816 C1811 1.390 . S
C1816 C1815 1.387 . S
H1817 C1829 0.930 . S
H1818 C1831 0.930 . S
H1819 C1832 0.930 . S
H1820 C1836 0.959 . S
H1821 C1836 0.959 . S
H1822 C1836 0.961 . S
H1823 C1837 0.960 . S
H1824 C1837 0.961 . S
H1825 C1837 0.959 . S
H1826 C1840 0.929 . S
H1827 C1841 0.931 . S
H1828 C1843 0.930 . S
C1829 H1817 0.930 . S
C1829 C1830 1.399 . S
C1829 C1834 1.399 . S
C1830 C1829 1.399 . S
C1830 C1831 1.376 . S
C1831 H1818 0.930 . S
C1831 C1830 1.376 . S
C1831 C1832 1.388 . S
C1832 H1819 0.930 . S
C1832 C1831 1.388 . S
C1832 C1833 1.390 . S
C1833 C1832 1.390 . S
C1833 C1834 1.394 . S
C1833 C1839 1.465 . S
C1834 C1829 1.399 . S
C1834 C1833 1.394 . S
C1834 C1835 1.516 . S
C1835 C1834 1.516 . S
C1835 C1836 1.502 . S
C1835 C1837 1.561 . S
C1835 C1838 1.526 . S
C1836 H1820 0.959 . S
C1836 H1821 0.959 . S
C1836 H1822 0.961 . S
C1836 C1835 1.502 . S
C1837 H1823 0.960 . S
C1837 H1824 0.961 . S
C1837 H1825 0.959 . S
C1837 C1835 1.561 . S
C1838 C1835 1.526 . S
C1838 C1839 1.396 . S
C1838 C1843 1.390 . S
C1839 C1833 1.465 . S
C1839 C1838 1.396 . S
C1839 C1840 1.399 . S
C1840 H1826 0.929 . S
C1840 C1839 1.399 . S
C1840 C1841 1.385 . S
C1841 H1827 0.931 . S
C1841 C1840 1.385 . S
C1841 C1842 1.389 . S
C1842 C1841 1.389 . S
C1842 C1843 1.387 . S
C1843 H1828 0.930 . S
C1843 C1838 1.390 . S
C1843 C1842 1.387 . S
H1844 C1856 0.930 . S
H1845 C1858 0.930 . S
H1846 C1859 0.930 . S
H1847 C1863 0.959 . S
H1848 C1863 0.959 . S
H1849 C1863 0.961 . S
H1850 C1864 0.960 . S
H1851 C1864 0.961 . S
H1852 C1864 0.959 . S
H1853 C1867 0.929 . S
H1854 C1868 0.931 . S
H1855 C1870 0.930 . S
C1856 H1844 0.930 . S
C1856 C1857 1.399 . S
C1856 C1861 1.399 . S
C1857 C1856 1.399 . S
C1857 C1858 1.376 . S
C1858 H1845 0.930 . S
C1858 C1857 1.376 . S
C1858 C1859 1.388 . S
C1859 H1846 0.930 . S
C1859 C1858 1.388 . S
C1859 C1860 1.390 . S
C1860 C1859 1.390 . S
C1860 C1861 1.394 . S
C1860 C1866 1.465 . S
C1861 C1856 1.399 . S
C1861 C1860 1.394 . S
C1861 C1862 1.516 . S
C1862 C1861 1.516 . S
C1862 C1863 1.502 . S
C1862 C1864 1.561 . S
C1862 C1865 1.526 . S
C1863 H1847 0.959 . S
C1863 H1848 0.959 . S
C1863 H1849 0.961 . S
C1863 C1862 1.502 . S
C1864 H1850 0.960 . S
C1864 H1851 0.961 . S
C1864 H1852 0.959 . S
C1864 C1862 1.561 . S
C1865 C1862 1.526 . S
C1865 C1866 1.396 . S
C1865 C1870 1.390 . S
C1866 C1860 1.465 . S
C1866 C1865 1.396 . S
C1866 C1867 1.399 . S
C1867 H1853 0.929 . S
C1867 C1866 1.399 . S
C1867 C1868 1.385 . S
C1868 H1854 0.931 . S
C1868 C1867 1.385 . S
C1868 C1869 1.389 . S
C1869 C1868 1.389 . S
C1869 C1870 1.387 . S
C1870 H1855 0.930 . S
C1870 C1865 1.390 . S
C1870 C1869 1.387 . S
H1871 C1883 0.930 . S
H1872 C1885 0.930 . S
H1873 C1886 0.930 . S
H1874 C1890 0.959 . S
H1875 C1890 0.959 . S
H1876 C1890 0.961 . S
H1877 C1891 0.960 . S
H1878 C1891 0.961 . S
H1879 C1891 0.959 . S
H1880 C1894 0.929 . S
H1881 C1895 0.931 . S
H1882 C1897 0.930 . S
C1883 H1871 0.930 . S
C1883 C1884 1.399 . S
C1883 C1888 1.399 . S
C1884 C1883 1.399 . S
C1884 C1885 1.376 . S
C1885 H1872 0.930 . S
C1885 C1884 1.376 . S
C1885 C1886 1.388 . S
C1886 H1873 0.930 . S
C1886 C1885 1.388 . S
C1886 C1887 1.390 . S
C1887 C1886 1.390 . S
C1887 C1888 1.394 . S
C1887 C1893 1.465 . S
C1888 C1883 1.399 . S
C1888 C1887 1.394 . S
C1888 C1889 1.516 . S
C1889 C1888 1.516 . S
C1889 C1890 1.502 . S
C1889 C1891 1.561 . S
C1889 C1892 1.526 . S
C1890 H1874 0.959 . S
C1890 H1875 0.959 . S
C1890 H1876 0.961 . S
C1890 C1889 1.502 . S
C1891 H1877 0.960 . S
C1891 H1878 0.961 . S
C1891 H1879 0.959 . S
C1891 C1889 1.561 . S
C1892 C1889 1.526 . S
C1892 C1893 1.396 . S
C1892 C1897 1.390 . S
C1893 C1887 1.465 . S
C1893 C1892 1.396 . S
C1893 C1894 1.399 . S
C1894 H1880 0.929 . S
C1894 C1893 1.399 . S
C1894 C1895 1.385 . S
C1895 H1881 0.931 . S
C1895 C1894 1.385 . S
C1895 C1896 1.389 . S
C1896 C1895 1.389 . S
C1896 C1897 1.387 . S
C1897 H1882 0.930 . S
C1897 C1892 1.390 . S
C1897 C1896 1.387 . S
H1898 C1910 0.930 . S
H1899 C1912 0.930 . S
H1900 C1913 0.930 . S
H1901 C1917 0.959 . S
H1902 C1917 0.959 . S
H1903 C1917 0.961 . S
H1904 C1918 0.960 . S
H1905 C1918 0.961 . S
H1906 C1918 0.959 . S
H1907 C1921 0.929 . S
H1908 C1922 0.931 . S
H1909 C1924 0.930 . S
C1910 H1898 0.930 . S
C1910 C1911 1.399 . S
C1910 C1915 1.399 . S
C1911 C1910 1.399 . S
C1911 C1912 1.376 . S
C1912 H1899 0.930 . S
C1912 C1911 1.376 . S
C1912 C1913 1.388 . S
C1913 H1900 0.930 . S
C1913 C1912 1.388 . S
C1913 C1914 1.390 . S
C1914 C1913 1.390 . S
C1914 C1915 1.394 . S
C1914 C1920 1.465 1_556 S
C1915 C1910 1.399 . S
C1915 C1914 1.394 . S
C1915 C1916 1.516 . S
C1916 C1915 1.516 . S
C1916 C1917 1.502 . S
C1916 C1918 1.561 . S
C1916 C1919 1.526 1_556 S
C1917 H1901 0.959 . S
C1917 H1902 0.959 . S
C1917 H1903 0.961 . S
C1917 C1916 1.502 . S
C1918 H1904 0.960 . S
C1918 H1905 0.961 . S
C1918 H1906 0.959 . S
C1918 C1916 1.561 . S
C1919 C1916 1.526 1_554 S
C1919 C1920 1.396 . S
C1919 C1924 1.390 . S
C1920 C1914 1.465 1_554 S
C1920 C1919 1.396 . S
C1920 C1921 1.399 . S
C1921 H1907 0.929 . S
C1921 C1920 1.399 . S
C1921 C1922 1.385 . S
C1922 H1908 0.931 . S
C1922 C1921 1.385 . S
C1922 C1923 1.389 . S
C1923 C1922 1.389 . S
C1923 C1924 1.387 . S
C1924 H1909 0.930 . S
C1924 C1919 1.390 . S
C1924 C1923 1.387 . S
H1925 C1937 0.930 . S
H1926 C1939 0.930 . S
H1927 C1940 0.930 . S
H1928 C1944 0.959 . S
H1929 C1944 0.959 . S
H1930 C1944 0.961 . S
H1931 C1945 0.960 . S
H1932 C1945 0.961 . S
H1933 C1945 0.959 . S
H1934 C1948 0.929 . S
H1935 C1949 0.931 . S
H1936 C1951 0.930 . S
C1937 H1925 0.930 . S
C1937 C1938 1.399 . S
C1937 C1942 1.399 . S
C1938 C1937 1.399 . S
C1938 C1939 1.376 . S
C1939 H1926 0.930 . S
C1939 C1938 1.376 . S
C1939 C1940 1.388 . S
C1940 H1927 0.930 . S
C1940 C1939 1.388 . S
C1940 C1941 1.390 . S
C1941 C1940 1.390 . S
C1941 C1942 1.394 . S
C1941 C1947 1.465 . S
C1942 C1937 1.399 . S
C1942 C1941 1.394 . S
C1942 C1943 1.516 . S
C1943 C1942 1.516 . S
C1943 C1944 1.502 . S
C1943 C1945 1.561 . S
C1943 C1946 1.526 . S
C1944 H1928 0.959 . S
C1944 H1929 0.959 . S
C1944 H1930 0.961 . S
C1944 C1943 1.502 . S
C1945 H1931 0.960 . S
C1945 H1932 0.961 . S
C1945 H1933 0.959 . S
C1945 C1943 1.561 . S
C1946 C1943 1.526 . S
C1946 C1947 1.396 . S
C1946 C1951 1.390 . S
C1947 C1941 1.465 . S
C1947 C1946 1.396 . S
C1947 C1948 1.399 . S
C1948 H1934 0.929 . S
C1948 C1947 1.399 . S
C1948 C1949 1.385 . S
C1949 H1935 0.931 . S
C1949 C1948 1.385 . S
C1949 C1950 1.389 . S
C1950 C1949 1.389 . S
C1950 C1951 1.387 . S
C1951 H1936 0.930 . S
C1951 C1946 1.390 . S
C1951 C1950 1.387 . S
H1952 C1964 0.930 . S
H1953 C1966 0.930 . S
H1954 C1967 0.930 . S
H1955 C1971 0.959 . S
H1956 C1971 0.959 . S
H1957 C1971 0.961 1_554 S
H1958 C1972 0.960 1_554 S
H1959 C1972 0.961 . S
H1960 C1972 0.959 1_554 S
H1961 C1975 0.929 . S
H1962 C1976 0.931 . S
H1963 C1978 0.930 . S
C1964 H1952 0.930 . S
C1964 C1965 1.399 . S
C1964 C1969 1.399 . S
C1965 C1964 1.399 . S
C1965 C1966 1.376 . S
C1966 H1953 0.930 . S
C1966 C1965 1.376 . S
C1966 C1967 1.388 . S
C1967 H1954 0.930 . S
C1967 C1966 1.388 . S
C1967 C1968 1.390 . S
C1968 C1967 1.390 . S
C1968 C1969 1.394 . S
C1968 C1974 1.465 1_554 S
C1969 C1964 1.399 . S
C1969 C1968 1.394 . S
C1969 C1970 1.516 1_554 S
C1970 C1969 1.516 1_556 S
C1970 C1971 1.502 . S
C1970 C1972 1.561 . S
C1970 C1973 1.526 . S
C1971 H1955 0.959 . S
C1971 H1956 0.959 . S
C1971 H1957 0.961 1_556 S
C1971 C1970 1.502 . S
C1972 H1958 0.960 1_556 S
C1972 H1959 0.961 . S
C1972 H1960 0.959 1_556 S
C1972 C1970 1.561 . S
C1973 C1970 1.526 . S
C1973 C1974 1.396 . S
C1973 C1978 1.390 . S
C1974 C1968 1.465 1_556 S
C1974 C1973 1.396 . S
C1974 C1975 1.399 . S
C1975 H1961 0.929 . S
C1975 C1974 1.399 . S
C1975 C1976 1.385 . S
C1976 H1962 0.931 . S
C1976 C1975 1.385 . S
C1976 C1977 1.389 . S
C1977 C1976 1.389 . S
C1977 C1978 1.387 . S
C1978 H1963 0.930 . S
C1978 C1973 1.390 . S
C1978 C1977 1.387 . S
H1979 C1991 0.930 . S
H1980 C1993 0.930 . S
H1981 C1994 0.930 . S
H1982 C1998 0.959 . S
H1983 C1998 0.959 . S
H1984 C1998 0.961 . S
H1985 C1999 0.960 . S
H1986 C1999 0.961 . S
H1987 C1999 0.959 . S
H1988 C2002 0.929 . S
H1989 C2003 0.931 . S
H1990 C2005 0.930 . S
C1991 H1979 0.930 . S
C1991 C1992 1.399 . S
C1991 C1996 1.399 . S
C1992 C1991 1.399 . S
C1992 C1993 1.376 . S
C1993 H1980 0.930 . S
C1993 C1992 1.376 . S
C1993 C1994 1.388 . S
C1994 H1981 0.930 . S
C1994 C1993 1.388 . S
C1994 C1995 1.390 . S
C1995 C1994 1.390 . S
C1995 C1996 1.394 . S
C1995 C2001 1.465 . S
C1996 C1991 1.399 . S
C1996 C1995 1.394 . S
C1996 C1997 1.516 . S
C1997 C1996 1.516 . S
C1997 C1998 1.502 . S
C1997 C1999 1.561 . S
C1997 C2000 1.526 . S
C1998 H1982 0.959 . S
C1998 H1983 0.959 . S
C1998 H1984 0.961 . S
C1998 C1997 1.502 . S
C1999 H1985 0.960 . S
C1999 H1986 0.961 . S
C1999 H1987 0.959 . S
C1999 C1997 1.561 . S
C2000 C1997 1.526 . S
C2000 C2001 1.396 . S
C2000 C2005 1.390 . S
C2001 C1995 1.465 . S
C2001 C2000 1.396 . S
C2001 C2002 1.399 . S
C2002 H1988 0.929 . S
C2002 C2001 1.399 . S
C2002 C2003 1.385 . S
C2003 H1989 0.931 . S
C2003 C2002 1.385 . S
C2003 C2004 1.389 . S
C2004 C2003 1.389 . S
C2004 C2005 1.387 . S
C2005 H1990 0.930 . S
C2005 C2000 1.390 . S
C2005 C2004 1.387 . S
H2006 C2018 0.930 . S
H2007 C2020 0.930 . S
H2008 C2021 0.930 . S
H2009 C2025 0.959 . S
H2010 C2025 0.959 . S
H2011 C2025 0.961 . S
H2012 C2026 0.960 . S
H2013 C2026 0.961 . S
H2014 C2026 0.959 . S
H2015 C2029 0.929 . S
H2016 C2030 0.931 . S
H2017 C2032 0.930 . S
C2018 H2006 0.930 . S
C2018 C2019 1.399 . S
C2018 C2023 1.399 . S
C2019 C2018 1.399 . S
C2019 C2020 1.376 . S
C2020 H2007 0.930 . S
C2020 C2019 1.376 . S
C2020 C2021 1.388 . S
C2021 H2008 0.930 . S
C2021 C2020 1.388 . S
C2021 C2022 1.390 . S
C2022 C2021 1.390 . S
C2022 C2023 1.394 . S
C2022 C2028 1.465 . S
C2023 C2018 1.399 . S
C2023 C2022 1.394 . S
C2023 C2024 1.516 . S
C2024 C2023 1.516 . S
C2024 C2025 1.502 . S
C2024 C2026 1.561 . S
C2024 C2027 1.526 . S
C2025 H2009 0.959 . S
C2025 H2010 0.959 . S
C2025 H2011 0.961 . S
C2025 C2024 1.502 . S
C2026 H2012 0.960 . S
C2026 H2013 0.961 . S
C2026 H2014 0.959 . S
C2026 C2024 1.561 . S
C2027 C2024 1.526 . S
C2027 C2028 1.396 . S
C2027 C2032 1.390 . S
C2028 C2022 1.465 . S
C2028 C2027 1.396 . S
C2028 C2029 1.399 . S
C2029 H2015 0.929 . S
C2029 C2028 1.399 . S
C2029 C2030 1.385 . S
C2030 H2016 0.931 . S
C2030 C2029 1.385 . S
C2030 C2031 1.389 . S
C2031 C2030 1.389 . S
C2031 C2032 1.387 . S
C2032 H2017 0.930 . S
C2032 C2027 1.390 . S
C2032 C2031 1.387 . S
H2033 C2045 0.930 . S
H2034 C2047 0.930 . S
H2035 C2048 0.930 . S
H2036 C2052 0.959 . S
H2037 C2052 0.959 . S
H2038 C2052 0.961 . S
H2039 C2053 0.960 . S
H2040 C2053 0.961 . S
H2041 C2053 0.959 . S
H2042 C2056 0.929 . S
H2043 C2057 0.931 . S
H2044 C2059 0.930 . S
C2045 H2033 0.930 . S
C2045 C2046 1.399 . S
C2045 C2050 1.399 . S
C2046 C2045 1.399 . S
C2046 C2047 1.376 . S
C2047 H2034 0.930 . S
C2047 C2046 1.376 . S
C2047 C2048 1.388 . S
C2048 H2035 0.930 . S
C2048 C2047 1.388 . S
C2048 C2049 1.390 . S
C2049 C2048 1.390 . S
C2049 C2050 1.394 . S
C2049 C2055 1.465 . S
C2050 C2045 1.399 . S
C2050 C2049 1.394 . S
C2050 C2051 1.516 . S
C2051 C2050 1.516 . S
C2051 C2052 1.502 . S
C2051 C2053 1.561 . S
C2051 C2054 1.526 . S
C2052 H2036 0.959 . S
C2052 H2037 0.959 . S
C2052 H2038 0.961 . S
C2052 C2051 1.502 . S
C2053 H2039 0.960 . S
C2053 H2040 0.961 . S
C2053 H2041 0.959 . S
C2053 C2051 1.561 . S
C2054 C2051 1.526 . S
C2054 C2055 1.396 . S
C2054 C2059 1.390 . S
C2055 C2049 1.465 . S
C2055 C2054 1.396 . S
C2055 C2056 1.399 . S
C2056 H2042 0.929 . S
C2056 C2055 1.399 . S
C2056 C2057 1.385 . S
C2057 H2043 0.931 . S
C2057 C2056 1.385 . S
C2057 C2058 1.389 . S
C2058 C2057 1.389 . S
C2058 C2059 1.387 . S
C2059 H2044 0.930 . S
C2059 C2054 1.390 . S
C2059 C2058 1.387 . S
H2060 C2072 0.930 . S
H2061 C2074 0.930 . S
H2062 C2075 0.930 . S
H2063 C2079 0.959 . S
H2064 C2079 0.959 1_554 S
H2065 C2079 0.961 . S
H2066 C2080 0.960 1_556 S
H2067 C2080 0.961 . S
H2068 C2080 0.959 . S
H2069 C2083 0.929 . S
H2070 C2084 0.931 . S
H2071 C2086 0.930 . S
C2072 H2060 0.930 . S
C2072 C2073 1.399 . S
C2072 C2077 1.399 . S
C2073 C2072 1.399 . S
C2073 C2074 1.376 . S
C2074 H2061 0.930 . S
C2074 C2073 1.376 . S
C2074 C2075 1.388 . S
C2075 H2062 0.930 . S
C2075 C2074 1.388 . S
C2075 C2076 1.390 . S
C2076 C2075 1.390 . S
C2076 C2077 1.394 . S
C2076 C2082 1.465 1_556 S
C2077 C2072 1.399 . S
C2077 C2076 1.394 . S
C2077 C2078 1.516 1_556 S
C2078 C2077 1.516 1_554 S
C2078 C2079 1.502 1_554 S
C2078 C2080 1.561 . S
C2078 C2081 1.526 . S
C2079 H2063 0.959 . S
C2079 H2064 0.959 1_556 S
C2079 H2065 0.961 . S
C2079 C2078 1.502 1_556 S
C2080 H2066 0.960 1_554 S
C2080 H2067 0.961 . S
C2080 H2068 0.959 . S
C2080 C2078 1.561 . S
C2081 C2078 1.526 . S
C2081 C2082 1.396 . S
C2081 C2086 1.390 . S
C2082 C2076 1.465 1_554 S
C2082 C2081 1.396 . S
C2082 C2083 1.399 . S
C2083 H2069 0.929 . S
C2083 C2082 1.399 . S
C2083 C2084 1.385 . S
C2084 H2070 0.931 . S
C2084 C2083 1.385 . S
C2084 C2085 1.389 . S
C2085 C2084 1.389 . S
C2085 C2086 1.387 . S
C2086 H2071 0.930 . S
C2086 C2081 1.390 . S
C2086 C2085 1.387 . S
H2087 C2099 0.930 . S
H2088 C2101 0.930 . S
H2089 C2102 0.930 . S
H2090 C2106 0.959 . S
H2091 C2106 0.959 . S
H2092 C2106 0.961 . S
H2093 C2107 0.960 . S
H2094 C2107 0.961 . S
H2095 C2107 0.959 . S
H2096 C2110 0.929 . S
H2097 C2111 0.931 . S
H2098 C2113 0.930 . S
C2099 H2087 0.930 . S
C2099 C2100 1.399 . S
C2099 C2104 1.399 . S
C2100 C2099 1.399 . S
C2100 C2101 1.376 . S
C2101 H2088 0.930 . S
C2101 C2100 1.376 . S
C2101 C2102 1.388 . S
C2102 H2089 0.930 . S
C2102 C2101 1.388 . S
C2102 C2103 1.390 . S
C2103 C2102 1.390 . S
C2103 C2104 1.394 . S
C2103 C2109 1.465 . S
C2104 C2099 1.399 . S
C2104 C2103 1.394 . S
C2104 C2105 1.516 . S
C2105 C2104 1.516 . S
C2105 C2106 1.502 . S
C2105 C2107 1.561 . S
C2105 C2108 1.526 . S
C2106 H2090 0.959 . S
C2106 H2091 0.959 . S
C2106 H2092 0.961 . S
C2106 C2105 1.502 . S
C2107 H2093 0.960 . S
C2107 H2094 0.961 . S
C2107 H2095 0.959 . S
C2107 C2105 1.561 . S
C2108 C2105 1.526 . S
C2108 C2109 1.396 . S
C2108 C2113 1.390 . S
C2109 C2103 1.465 . S
C2109 C2108 1.396 . S
C2109 C2110 1.399 . S
C2110 H2096 0.929 . S
C2110 C2109 1.399 . S
C2110 C2111 1.385 . S
C2111 H2097 0.931 . S
C2111 C2110 1.385 . S
C2111 C2112 1.389 . S
C2112 C2111 1.389 . S
C2112 C2113 1.387 . S
C2113 H2098 0.930 . S
C2113 C2108 1.390 . S
C2113 C2112 1.387 . S
H2114 C2126 0.930 . S
H2115 C2128 0.930 . S
H2116 C2129 0.930 . S
H2117 C2133 0.959 . S
H2118 C2133 0.959 . S
H2119 C2133 0.961 . S
H2120 C2134 0.960 . S
H2121 C2134 0.961 . S
H2122 C2134 0.959 . S
H2123 C2137 0.929 . S
H2124 C2138 0.931 . S
H2125 C2140 0.930 . S
C2126 H2114 0.930 . S
C2126 C2127 1.399 . S
C2126 C2131 1.399 . S
C2127 C2126 1.399 . S
C2127 C2128 1.376 . S
C2128 H2115 0.930 . S
C2128 C2127 1.376 . S
C2128 C2129 1.388 . S
C2129 H2116 0.930 . S
C2129 C2128 1.388 . S
C2129 C2130 1.390 . S
C2130 C2129 1.390 . S
C2130 C2131 1.394 . S
C2130 C2136 1.465 . S
C2131 C2126 1.399 . S
C2131 C2130 1.394 . S
C2131 C2132 1.516 . S
C2132 C2131 1.516 . S
C2132 C2133 1.502 . S
C2132 C2134 1.561 . S
C2132 C2135 1.526 . S
C2133 H2117 0.959 . S
C2133 H2118 0.959 . S
C2133 H2119 0.961 . S
C2133 C2132 1.502 . S
C2134 H2120 0.960 . S
C2134 H2121 0.961 . S
C2134 H2122 0.959 . S
C2134 C2132 1.561 . S
C2135 C2132 1.526 . S
C2135 C2136 1.396 . S
C2135 C2140 1.390 . S
C2136 C2130 1.465 . S
C2136 C2135 1.396 . S
C2136 C2137 1.399 . S
C2137 H2123 0.929 . S
C2137 C2136 1.399 . S
C2137 C2138 1.385 . S
C2138 H2124 0.931 . S
C2138 C2137 1.385 . S
C2138 C2139 1.389 . S
C2139 C2138 1.389 . S
C2139 C2140 1.387 . S
C2140 H2125 0.930 . S
C2140 C2135 1.390 . S
C2140 C2139 1.387 . S
H2141 C2153 0.930 . S
H2142 C2155 0.930 . S
H2143 C2156 0.930 . S
H2144 C2160 0.959 . S
H2145 C2160 0.959 . S
H2146 C2160 0.961 . S
H2147 C2161 0.960 . S
H2148 C2161 0.961 . S
H2149 C2161 0.959 . S
H2150 C2164 0.929 . S
H2151 C2165 0.931 . S
H2152 C2167 0.930 . S
C2153 H2141 0.930 . S
C2153 C2154 1.399 . S
C2153 C2158 1.399 . S
C2154 C2153 1.399 . S
C2154 C2155 1.376 . S
C2155 H2142 0.930 . S
C2155 C2154 1.376 . S
C2155 C2156 1.388 . S
C2156 H2143 0.930 . S
C2156 C2155 1.388 . S
C2156 C2157 1.390 . S
C2157 C2156 1.390 . S
C2157 C2158 1.394 . S
C2157 C2163 1.465 . S
C2158 C2153 1.399 . S
C2158 C2157 1.394 . S
C2158 C2159 1.516 . S
C2159 C2158 1.516 . S
C2159 C2160 1.502 . S
C2159 C2161 1.561 . S
C2159 C2162 1.526 . S
C2160 H2144 0.959 . S
C2160 H2145 0.959 . S
C2160 H2146 0.961 . S
C2160 C2159 1.502 . S
C2161 H2147 0.960 . S
C2161 H2148 0.961 . S
C2161 H2149 0.959 . S
C2161 C2159 1.561 . S
C2162 C2159 1.526 . S
C2162 C2163 1.396 . S
C2162 C2167 1.390 . S
C2163 C2157 1.465 . S
C2163 C2162 1.396 . S
C2163 C2164 1.399 . S
C2164 H2150 0.929 . S
C2164 C2163 1.399 . S
C2164 C2165 1.385 . S
C2165 H2151 0.931 . S
C2165 C2164 1.385 . S
C2165 C2166 1.389 . S
C2166 C2165 1.389 . S
C2166 C2167 1.387 . S
C2167 H2152 0.930 . S
C2167 C2162 1.390 . S
C2167 C2166 1.387 . S
H2168 C2180 0.930 . S
H2169 C2182 0.930 . S
H2170 C2183 0.930 . S
H2171 C2187 0.959 . S
H2172 C2187 0.959 1_554 S
H2173 C2187 0.961 . S
H2174 C2188 0.960 1_556 S
H2175 C2188 0.961 . S
H2176 C2188 0.959 . S
H2177 C2191 0.929 . S
H2178 C2192 0.931 . S
H2179 C2194 0.930 . S
C2180 H2168 0.930 . S
C2180 C2181 1.399 . S
C2180 C2185 1.399 . S
C2181 C2180 1.399 . S
C2181 C2182 1.376 . S
C2182 H2169 0.930 . S
C2182 C2181 1.376 . S
C2182 C2183 1.388 . S
C2183 H2170 0.930 . S
C2183 C2182 1.388 . S
C2183 C2184 1.390 . S
C2184 C2183 1.390 . S
C2184 C2185 1.394 . S
C2184 C2190 1.465 1_556 S
C2185 C2180 1.399 . S
C2185 C2184 1.394 . S
C2185 C2186 1.526 . S
C2186 C2185 1.526 . S
C2186 C2187 1.505 . S
C2186 C2188 1.560 1_556 S
C2186 C2189 1.513 1_556 S
C2187 H2171 0.959 . S
C2187 H2172 0.959 1_556 S
C2187 H2173 0.961 . S
C2187 C2186 1.505 . S
C2188 H2174 0.960 1_554 S
C2188 H2175 0.961 . S
C2188 H2176 0.959 . S
C2188 C2186 1.560 1_554 S
C2189 C2186 1.513 1_554 S
C2189 C2190 1.396 . S
C2189 C2194 1.390 . S
C2190 C2184 1.465 1_554 S
C2190 C2189 1.396 . S
C2190 C2191 1.399 . S
C2191 H2177 0.929 . S
C2191 C2190 1.399 . S
C2191 C2192 1.385 . S
C2192 H2178 0.931 . S
C2192 C2191 1.385 . S
C2192 C2193 1.389 . S
C2193 C2192 1.389 . S
C2193 C2194 1.387 . S
C2194 H2179 0.930 . S
C2194 C2189 1.390 . S
C2194 C2193 1.387 . S
H2195 C2207 0.930 . S
H2196 C2209 0.930 . S
H2197 C2210 0.930 . S
H2198 C2214 0.959 . S
H2199 C2214 0.959 . S
H2200 C2214 0.961 . S
H2201 C2215 0.960 . S
H2202 C2215 0.961 . S
H2203 C2215 0.959 . S
H2204 C2218 0.929 . S
H2205 C2219 0.931 . S
H2206 C2221 0.930 . S
C2207 H2195 0.930 . S
C2207 C2208 1.399 . S
C2207 C2212 1.399 . S
C2208 C2207 1.399 . S
C2208 C2209 1.376 . S
C2209 H2196 0.930 . S
C2209 C2208 1.376 . S
C2209 C2210 1.388 . S
C2210 H2197 0.930 . S
C2210 C2209 1.388 . S
C2210 C2211 1.390 . S
C2211 C2210 1.390 . S
C2211 C2212 1.394 . S
C2211 C2217 1.465 . S
C2212 C2207 1.399 . S
C2212 C2211 1.394 . S
C2212 C2213 1.516 . S
C2213 C2212 1.516 . S
C2213 C2214 1.502 . S
C2213 C2215 1.561 . S
C2213 C2216 1.526 . S
C2214 H2198 0.959 . S
C2214 H2199 0.959 . S
C2214 H2200 0.961 . S
C2214 C2213 1.502 . S
C2215 H2201 0.960 . S
C2215 H2202 0.961 . S
C2215 H2203 0.959 . S
C2215 C2213 1.561 . S
C2216 C2213 1.526 . S
C2216 C2217 1.396 . S
C2216 C2221 1.390 . S
C2217 C2211 1.465 . S
C2217 C2216 1.396 . S
C2217 C2218 1.399 . S
C2218 H2204 0.929 . S
C2218 C2217 1.399 . S
C2218 C2219 1.385 . S
C2219 H2205 0.931 . S
C2219 C2218 1.385 . S
C2219 C2220 1.389 . S
C2220 C2219 1.389 . S
C2220 C2221 1.387 . S
C2221 H2206 0.930 . S
C2221 C2216 1.390 . S
C2221 C2220 1.387 . S
H2222 C2234 0.930 . S
H2223 C2236 0.930 . S
H2224 C2237 0.930 . S
H2225 C2241 0.959 . S
H2226 C2241 0.959 . S
H2227 C2241 0.961 . S
H2228 C2242 0.960 . S
H2229 C2242 0.961 . S
H2230 C2242 0.959 . S
H2231 C2245 0.929 . S
H2232 C2246 0.931 . S
H2233 C2248 0.930 . S
C2234 H2222 0.930 . S
C2234 C2235 1.399 . S
C2234 C2239 1.399 . S
C2235 C2234 1.399 . S
C2235 C2236 1.376 . S
C2236 H2223 0.930 . S
C2236 C2235 1.376 . S
C2236 C2237 1.388 . S
C2237 H2224 0.930 . S
C2237 C2236 1.388 . S
C2237 C2238 1.390 . S
C2238 C2237 1.390 . S
C2238 C2239 1.394 . S
C2238 C2244 1.465 . S
C2239 C2234 1.399 . S
C2239 C2238 1.394 . S
C2239 C2240 1.516 . S
C2240 C2239 1.516 . S
C2240 C2241 1.502 . S
C2240 C2242 1.561 . S
C2240 C2243 1.526 . S
C2241 H2225 0.959 . S
C2241 H2226 0.959 . S
C2241 H2227 0.961 . S
C2241 C2240 1.502 . S
C2242 H2228 0.960 . S
C2242 H2229 0.961 . S
C2242 H2230 0.959 . S
C2242 C2240 1.561 . S
C2243 C2240 1.526 . S
C2243 C2244 1.396 . S
C2243 C2248 1.390 . S
C2244 C2238 1.465 . S
C2244 C2243 1.396 . S
C2244 C2245 1.399 . S
C2245 H2231 0.929 . S
C2245 C2244 1.399 . S
C2245 C2246 1.385 . S
C2246 H2232 0.931 . S
C2246 C2245 1.385 . S
C2246 C2247 1.389 . S
C2247 C2246 1.389 . S
C2247 C2248 1.387 . S
C2248 H2233 0.930 . S
C2248 C2243 1.390 . S
C2248 C2247 1.387 . S
H2249 C2261 0.930 . S
H2250 C2263 0.930 . S
H2251 C2264 0.930 . S
H2252 C2268 0.959 . S
H2253 C2268 0.959 . S
H2254 C2268 0.961 . S
H2255 C2269 0.960 . S
H2256 C2269 0.961 . S
H2257 C2269 0.959 . S
H2258 C2272 0.929 . S
H2259 C2273 0.931 . S
H2260 C2275 0.930 . S
C2261 H2249 0.930 . S
C2261 C2262 1.399 . S
C2261 C2266 1.399 . S
C2262 C2261 1.399 . S
C2262 C2263 1.376 . S
C2263 H2250 0.930 . S
C2263 C2262 1.376 . S
C2263 C2264 1.388 . S
C2264 H2251 0.930 . S
C2264 C2263 1.388 . S
C2264 C2265 1.390 . S
C2265 C2264 1.390 . S
C2265 C2266 1.394 . S
C2265 C2271 1.465 . S
C2266 C2261 1.399 . S
C2266 C2265 1.394 . S
C2266 C2267 1.516 . S
C2267 C2266 1.516 . S
C2267 C2268 1.502 . S
C2267 C2269 1.561 . S
C2267 C2270 1.526 . S
C2268 H2252 0.959 . S
C2268 H2253 0.959 . S
C2268 H2254 0.961 . S
C2268 C2267 1.502 . S
C2269 H2255 0.960 . S
C2269 H2256 0.961 . S
C2269 H2257 0.959 . S
C2269 C2267 1.561 . S
C2270 C2267 1.526 . S
C2270 C2271 1.396 . S
C2270 C2275 1.390 . S
C2271 C2265 1.465 . S
C2271 C2270 1.396 . S
C2271 C2272 1.399 . S
C2272 H2258 0.929 . S
C2272 C2271 1.399 . S
C2272 C2273 1.385 . S
C2273 H2259 0.931 . S
C2273 C2272 1.385 . S
C2273 C2274 1.389 . S
C2274 C2273 1.389 . S
C2274 C2275 1.387 . S
C2275 H2260 0.930 . S
C2275 C2270 1.390 . S
C2275 C2274 1.387 . S
H2276 C2288 0.930 . S
H2277 C2290 0.930 . S
H2278 C2291 0.930 . S
H2279 C2295 0.959 . S
H2280 C2295 0.959 . S
H2281 C2295 0.961 1_554 S
H2282 C2296 0.964 . S
H2283 C2296 0.957 1_556 S
H2284 C2296 0.960 . S
H2285 C2299 0.929 . S
H2286 C2300 0.931 . S
H2287 C2302 0.930 . S
C2288 H2276 0.930 . S
C2288 C2289 1.399 . S
C2288 C2293 1.399 . S
C2289 C2288 1.399 . S
C2289 C2290 1.376 . S
C2290 H2277 0.930 . S
C2290 C2289 1.376 . S
C2290 C2291 1.388 . S
C2291 H2278 0.930 . S
C2291 C2290 1.388 . S
C2291 C2292 1.390 . S
C2292 C2291 1.390 . S
C2292 C2293 1.394 . S
C2292 C2298 1.465 1_554 S
C2293 C2288 1.399 . S
C2293 C2292 1.394 . S
C2293 C2294 1.516 1_554 S
C2294 C2293 1.516 1_556 S
C2294 C2295 1.502 . S
C2294 C2296 1.560 1_556 S
C2294 C2297 1.526 . S
C2295 H2279 0.959 . S
C2295 H2280 0.959 . S
C2295 H2281 0.961 1_556 S
C2295 C2294 1.502 . S
C2296 H2282 0.964 . S
C2296 H2283 0.957 1_554 S
C2296 H2284 0.960 . S
C2296 C2294 1.560 1_554 S
C2297 C2294 1.526 . S
C2297 C2298 1.396 . S
C2297 C2302 1.390 . S
C2298 C2292 1.465 1_556 S
C2298 C2297 1.396 . S
C2298 C2299 1.399 . S
C2299 H2285 0.929 . S
C2299 C2298 1.399 . S
C2299 C2300 1.385 . S
C2300 H2286 0.931 . S
C2300 C2299 1.385 . S
C2300 C2301 1.389 . S
C2301 C2300 1.389 . S
C2301 C2302 1.387 . S
C2302 H2287 0.930 . S
C2302 C2297 1.390 . S
C2302 C2301 1.387 . S
H2303 C2315 0.930 . S
H2304 C2317 0.930 . S
H2305 C2318 0.930 . S
H2306 C2322 0.959 . S
H2307 C2322 0.959 . S
H2308 C2322 0.961 . S
H2309 C2323 0.960 . S
H2310 C2323 0.961 . S
H2311 C2323 0.959 . S
H2312 C2326 0.929 . S
H2313 C2327 0.931 . S
H2314 C2329 0.930 . S
C2315 H2303 0.930 . S
C2315 C2316 1.399 . S
C2315 C2320 1.399 . S
C2316 C2315 1.399 . S
C2316 C2317 1.376 . S
C2317 H2304 0.930 . S
C2317 C2316 1.376 . S
C2317 C2318 1.388 . S
C2318 H2305 0.930 . S
C2318 C2317 1.388 . S
C2318 C2319 1.390 . S
C2319 C2318 1.390 . S
C2319 C2320 1.394 . S
C2319 C2325 1.465 . S
C2320 C2315 1.399 . S
C2320 C2319 1.394 . S
C2320 C2321 1.516 . S
C2321 C2320 1.516 . S
C2321 C2322 1.502 . S
C2321 C2323 1.561 . S
C2321 C2324 1.526 . S
C2322 H2306 0.959 . S
C2322 H2307 0.959 . S
C2322 H2308 0.961 . S
C2322 C2321 1.502 . S
C2323 H2309 0.960 . S
C2323 H2310 0.961 . S
C2323 H2311 0.959 . S
C2323 C2321 1.561 . S
C2324 C2321 1.526 . S
C2324 C2325 1.396 . S
C2324 C2329 1.390 . S
C2325 C2319 1.465 . S
C2325 C2324 1.396 . S
C2325 C2326 1.399 . S
C2326 H2312 0.929 . S
C2326 C2325 1.399 . S
C2326 C2327 1.385 . S
C2327 H2313 0.931 . S
C2327 C2326 1.385 . S
C2327 C2328 1.389 . S
C2328 C2327 1.389 . S
C2328 C2329 1.387 . S
C2329 H2314 0.930 . S
C2329 C2324 1.390 . S
C2329 C2328 1.387 . S
H2330 C2342 0.930 . S
H2331 C2344 0.930 . S
H2332 C2345 0.930 . S
H2333 C2349 0.959 . S
H2334 C2349 0.959 . S
H2335 C2349 0.961 . S
H2336 C2350 0.960 . S
H2337 C2350 0.961 . S
H2338 C2350 0.959 . S
H2339 C2353 0.929 . S
H2340 C2354 0.931 . S
H2341 C2356 0.930 . S
C2342 H2330 0.930 . S
C2342 C2343 1.399 . S
C2342 C2347 1.399 . S
C2343 C2342 1.399 . S
C2343 C2344 1.376 . S
C2344 H2331 0.930 . S
C2344 C2343 1.376 . S
C2344 C2345 1.388 . S
C2345 H2332 0.930 . S
C2345 C2344 1.388 . S
C2345 C2346 1.390 . S
C2346 C2345 1.390 . S
C2346 C2347 1.394 . S
C2346 C2352 1.465 . S
C2347 C2342 1.399 . S
C2347 C2346 1.394 . S
C2347 C2348 1.516 . S
C2348 C2347 1.516 . S
C2348 C2349 1.502 . S
C2348 C2350 1.561 . S
C2348 C2351 1.526 . S
C2349 H2333 0.959 . S
C2349 H2334 0.959 . S
C2349 H2335 0.961 . S
C2349 C2348 1.502 . S
C2350 H2336 0.960 . S
C2350 H2337 0.961 . S
C2350 H2338 0.959 . S
C2350 C2348 1.561 . S
C2351 C2348 1.526 . S
C2351 C2352 1.396 . S
C2351 C2356 1.390 . S
C2352 C2346 1.465 . S
C2352 C2351 1.396 . S
C2352 C2353 1.399 . S
C2353 H2339 0.929 . S
C2353 C2352 1.399 . S
C2353 C2354 1.385 . S
C2354 H2340 0.931 . S
C2354 C2353 1.385 . S
C2354 C2355 1.389 . S
C2355 C2354 1.389 . S
C2355 C2356 1.387 . S
C2356 H2341 0.930 . S
C2356 C2351 1.390 . S
C2356 C2355 1.387 . S
H2357 C2369 0.930 . S
H2358 C2371 0.930 . S
H2359 C2372 0.930 . S
H2360 C2376 0.959 . S
H2361 C2376 0.959 . S
H2362 C2376 0.961 . S
H2363 C2377 0.960 . S
H2364 C2377 0.961 . S
H2365 C2377 0.959 . S
H2366 C2380 0.929 . S
H2367 C2381 0.931 . S
H2368 C2383 0.930 . S
C2369 H2357 0.930 . S
C2369 C2370 1.399 . S
C2369 C2374 1.399 . S
C2370 C2369 1.399 . S
C2370 C2371 1.376 . S
C2371 H2358 0.930 . S
C2371 C2370 1.376 . S
C2371 C2372 1.388 . S
C2372 H2359 0.930 . S
C2372 C2371 1.388 . S
C2372 C2373 1.390 . S
C2373 C2372 1.390 . S
C2373 C2374 1.394 . S
C2373 C2379 1.465 . S
C2374 C2369 1.399 . S
C2374 C2373 1.394 . S
C2374 C2375 1.516 . S
C2375 C2374 1.516 . S
C2375 C2376 1.502 . S
C2375 C2377 1.561 . S
C2375 C2378 1.526 . S
C2376 H2360 0.959 . S
C2376 H2361 0.959 . S
C2376 H2362 0.961 . S
C2376 C2375 1.502 . S
C2377 H2363 0.960 . S
C2377 H2364 0.961 . S
C2377 H2365 0.959 . S
C2377 C2375 1.561 . S
C2378 C2375 1.526 . S
C2378 C2379 1.396 . S
C2378 C2383 1.390 . S
C2379 C2373 1.465 . S
C2379 C2378 1.396 . S
C2379 C2380 1.399 . S
C2380 H2366 0.929 . S
C2380 C2379 1.399 . S
C2380 C2381 1.385 . S
C2381 H2367 0.931 . S
C2381 C2380 1.385 . S
C2381 C2382 1.389 . S
C2382 C2381 1.389 . S
C2382 C2383 1.387 . S
C2383 H2368 0.930 . S
C2383 C2378 1.390 . S
C2383 C2382 1.387 . S
H2384 C2396 0.930 . S
H2385 C2398 0.930 . S
H2386 C2399 0.930 . S
H2387 C2403 0.959 . S
H2388 C2403 0.959 . S
H2389 C2403 0.961 . S
H2390 C2404 0.960 . S
H2391 C2404 0.961 . S
H2392 C2404 0.959 . S
H2393 C2407 0.929 . S
H2394 C2408 0.931 . S
H2395 C2410 0.930 . S
C2396 H2384 0.930 . S
C2396 C2397 1.399 . S
C2396 C2401 1.399 . S
C2397 C2396 1.399 . S
C2397 C2398 1.376 . S
C2398 H2385 0.930 . S
C2398 C2397 1.376 . S
C2398 C2399 1.388 . S
C2399 H2386 0.930 . S
C2399 C2398 1.388 . S
C2399 C2400 1.390 . S
C2400 C2399 1.390 . S
C2400 C2401 1.394 . S
C2400 C2406 1.465 . S
C2401 C2396 1.399 . S
C2401 C2400 1.394 . S
C2401 C2402 1.516 . S
C2402 C2401 1.516 . S
C2402 C2403 1.502 . S
C2402 C2404 1.561 . S
C2402 C2405 1.526 . S
C2403 H2387 0.959 . S
C2403 H2388 0.959 . S
C2403 H2389 0.961 . S
C2403 C2402 1.502 . S
C2404 H2390 0.960 . S
C2404 H2391 0.961 . S
C2404 H2392 0.959 . S
C2404 C2402 1.561 . S
C2405 C2402 1.526 . S
C2405 C2406 1.396 . S
C2405 C2410 1.390 . S
C2406 C2400 1.465 . S
C2406 C2405 1.396 . S
C2406 C2407 1.399 . S
C2407 H2393 0.929 . S
C2407 C2406 1.399 . S
C2407 C2408 1.385 . S
C2408 H2394 0.931 . S
C2408 C2407 1.385 . S
C2408 C2409 1.389 . S
C2409 C2408 1.389 . S
C2409 C2410 1.387 . S
C2410 H2395 0.930 . S
C2410 C2405 1.390 . S
C2410 C2409 1.387 . S
H2411 C2423 0.930 . S
H2412 C2425 0.930 . S
H2413 C2426 0.930 . S
H2414 C2430 0.959 . S
H2415 C2430 0.959 . S
H2416 C2430 0.961 . S
H2417 C2431 0.960 . S
H2418 C2431 0.961 . S
H2419 C2431 0.959 . S
H2420 C2434 0.929 . S
H2421 C2435 0.931 . S
H2422 C2437 0.930 . S
C2423 H2411 0.930 . S
C2423 C2424 1.399 . S
C2423 C2428 1.399 . S
C2424 C2423 1.399 . S
C2424 C2425 1.376 . S
C2425 H2412 0.930 . S
C2425 C2424 1.376 . S
C2425 C2426 1.388 1_545 S
C2426 H2413 0.930 . S
C2426 C2425 1.388 1_565 S
C2426 C2427 1.395 . S
C2427 C2426 1.395 . S
C2427 C2428 1.366 1_565 S
C2427 C2433 1.485 . S
C2428 C2423 1.399 . S
C2428 C2427 1.366 1_545 S
C2428 C2429 1.516 . S
C2429 C2428 1.516 . S
C2429 C2430 1.502 . S
C2429 C2431 1.561 . S
C2429 C2432 1.526 1_545 S
C2430 H2414 0.959 . S
C2430 H2415 0.959 . S
C2430 H2416 0.961 . S
C2430 C2429 1.502 . S
C2431 H2417 0.960 . S
C2431 H2418 0.961 . S
C2431 H2419 0.959 . S
C2431 C2429 1.561 . S
C2432 C2429 1.526 1_565 S
C2432 C2433 1.396 . S
C2432 C2437 1.390 . S
C2433 C2427 1.485 . S
C2433 C2432 1.396 . S
C2433 C2434 1.399 . S
C2434 H2420 0.929 . S
C2434 C2433 1.399 . S
C2434 C2435 1.385 . S
C2435 H2421 0.931 . S
C2435 C2434 1.385 . S
C2435 C2436 1.389 . S
C2436 C2435 1.389 . S
C2436 C2437 1.387 . S
C2437 H2422 0.930 . S
C2437 C2432 1.390 . S
C2437 C2436 1.387 . S
H2438 C2450 0.930 . S
H2439 C2452 0.930 . S
H2440 C2453 0.930 . S
H2441 C2457 0.959 . S
H2442 C2457 0.959 . S
H2443 C2457 0.961 . S
H2444 C2458 0.960 . S
H2445 C2458 0.961 . S
H2446 C2458 0.959 . S
H2447 C2461 0.929 . S
H2448 C2462 0.931 . S
H2449 C2464 0.930 . S
C2450 H2438 0.930 . S
C2450 C2451 1.399 . S
C2450 C2455 1.399 . S
C2451 C2450 1.399 . S
C2451 C2452 1.376 . S
C2452 H2439 0.930 . S
C2452 C2451 1.376 . S
C2452 C2453 1.388 . S
C2453 H2440 0.930 . S
C2453 C2452 1.388 . S
C2453 C2454 1.390 . S
C2454 C2453 1.390 . S
C2454 C2455 1.394 . S
C2454 C2460 1.465 . S
C2455 C2450 1.399 . S
C2455 C2454 1.394 . S
C2455 C2456 1.516 . S
C2456 C2455 1.516 . S
C2456 C2457 1.502 . S
C2456 C2458 1.561 . S
C2456 C2459 1.526 . S
C2457 H2441 0.959 . S
C2457 H2442 0.959 . S
C2457 H2443 0.961 . S
C2457 C2456 1.502 . S
C2458 H2444 0.960 . S
C2458 H2445 0.961 . S
C2458 H2446 0.959 . S
C2458 C2456 1.561 . S
C2459 C2456 1.526 . S
C2459 C2460 1.396 . S
C2459 C2464 1.390 . S
C2460 C2454 1.465 . S
C2460 C2459 1.396 . S
C2460 C2461 1.399 . S
C2461 H2447 0.929 . S
C2461 C2460 1.399 . S
C2461 C2462 1.385 . S
C2462 H2448 0.931 . S
C2462 C2461 1.385 . S
C2462 C2463 1.389 . S
C2463 C2462 1.389 . S
C2463 C2464 1.387 . S
C2464 H2449 0.930 . S
C2464 C2459 1.390 . S
C2464 C2463 1.387 . S
H2465 C2477 0.930 . S
H2466 C2479 0.930 . S
H2467 C2480 0.942 . S
H2468 C2484 0.959 . S
H2469 C2484 0.959 . S
H2470 C2484 0.961 . S
H2471 C2485 0.960 . S
H2472 C2485 0.961 . S
H2473 C2485 0.959 . S
H2474 C2488 0.929 1_554 S
H2475 C2489 0.931 . S
H2476 C2491 0.930 . S
C2477 H2465 0.930 . S
C2477 C2478 1.399 . S
C2477 C2482 1.399 . S
C2478 C2477 1.399 . S
C2478 C2479 1.376 . S
C2479 H2466 0.930 . S
C2479 C2478 1.376 . S
C2479 C2480 1.377 1_565 S
C2480 H2467 0.942 . S
C2480 C2479 1.377 1_545 S
C2480 C2481 1.386 1_545 S
C2481 C2480 1.386 1_565 S
C2481 C2482 1.450 . S
C2481 C2487 1.421 1_564 S
C2482 C2477 1.399 . S
C2482 C2481 1.450 . S
C2482 C2483 1.516 1_554 S
C2483 C2482 1.516 1_556 S
C2483 C2484 1.502 . S
C2483 C2485 1.561 . S
C2483 C2486 1.526 1_565 S
C2484 H2468 0.959 . S
C2484 H2469 0.959 . S
C2484 H2470 0.961 . S
C2484 C2483 1.502 . S
C2485 H2471 0.960 . S
C2485 H2472 0.961 . S
C2485 H2473 0.959 . S
C2485 C2483 1.561 . S
C2486 C2483 1.526 1_545 S
C2486 C2487 1.396 . S
C2486 C2491 1.390 . S
C2487 C2481 1.421 1_546 S
C2487 C2486 1.396 . S
C2487 C2488 1.399 . S
C2488 H2474 0.929 1_556 S
C2488 C2487 1.399 . S
C2488 C2489 1.385 . S
C2489 H2475 0.931 . S
C2489 C2488 1.385 . S
C2489 C2490 1.389 . S
C2490 C2489 1.389 . S
C2490 C2491 1.387 . S
C2491 H2476 0.930 . S
C2491 C2486 1.390 . S
C2491 C2490 1.387 . S
H2492 C2504 0.930 . S
H2493 C2506 0.930 . S
H2494 C2507 0.930 . S
H2495 C2511 0.959 . S
H2496 C2511 0.959 . S
H2497 C2511 0.961 . S
H2498 C2512 0.960 . S
H2499 C2512 0.961 . S
H2500 C2512 0.959 . S
H2501 C2515 0.929 . S
H2502 C2516 0.931 . S
H2503 C2518 0.930 . S
C2504 H2492 0.930 . S
C2504 C2505 1.399 . S
C2504 C2509 1.399 . S
C2505 C2504 1.399 . S
C2505 C2506 1.376 . S
C2506 H2493 0.930 . S
C2506 C2505 1.376 . S
C2506 C2507 1.388 . S
C2507 H2494 0.930 . S
C2507 C2506 1.388 . S
C2507 C2508 1.390 . S
C2508 C2507 1.390 . S
C2508 C2509 1.394 . S
C2508 C2514 1.465 . S
C2509 C2504 1.399 . S
C2509 C2508 1.394 . S
C2509 C2510 1.516 . S
C2510 C2509 1.516 . S
C2510 C2511 1.502 . S
C2510 C2512 1.561 . S
C2510 C2513 1.526 . S
C2511 H2495 0.959 . S
C2511 H2496 0.959 . S
C2511 H2497 0.961 . S
C2511 C2510 1.502 . S
C2512 H2498 0.960 . S
C2512 H2499 0.961 . S
C2512 H2500 0.959 . S
C2512 C2510 1.561 . S
C2513 C2510 1.526 . S
C2513 C2514 1.396 . S
C2513 C2518 1.390 . S
C2514 C2508 1.465 . S
C2514 C2513 1.396 . S
C2514 C2515 1.399 . S
C2515 H2501 0.929 . S
C2515 C2514 1.399 . S
C2515 C2516 1.385 . S
C2516 H2502 0.931 . S
C2516 C2515 1.385 . S
C2516 C2517 1.389 . S
C2517 C2516 1.389 . S
C2517 C2518 1.387 . S
C2518 H2503 0.930 . S
C2518 C2513 1.390 . S
C2518 C2517 1.387 . S
H2519 C2531 0.930 . S
H2520 C2533 0.930 . S
H2521 C2534 0.930 . S
H2522 C2538 0.959 1_565 S
H2523 C2538 0.960 . S
H2524 C2538 0.961 . S
H2525 C2539 0.960 . S
H2526 C2539 0.961 . S
H2527 C2539 0.959 . S
H2528 C2542 0.929 . S
H2529 C2543 0.931 . S
H2530 C2545 0.930 . S
C2531 H2519 0.930 . S
C2531 C2532 1.399 . S
C2531 C2536 1.399 . S
C2532 C2531 1.399 . S
C2532 C2533 1.376 . S
C2533 H2520 0.930 . S
C2533 C2532 1.376 . S
C2533 C2534 1.388 . S
C2534 H2521 0.930 . S
C2534 C2533 1.388 . S
C2534 C2535 1.390 . S
C2535 C2534 1.390 . S
C2535 C2536 1.394 . S
C2535 C2541 1.465 1_545 S
C2536 C2531 1.399 . S
C2536 C2535 1.394 . S
C2536 C2537 1.516 . S
C2537 C2536 1.516 . S
C2537 C2538 1.502 . S
C2537 C2539 1.561 . S
C2537 C2540 1.526 1_545 S
C2538 H2522 0.959 1_545 S
C2538 H2523 0.960 . S
C2538 H2524 0.961 . S
C2538 C2537 1.502 . S
C2539 H2525 0.960 . S
C2539 H2526 0.961 . S
C2539 H2527 0.959 . S
C2539 C2537 1.561 . S
C2540 C2537 1.526 1_565 S
C2540 C2541 1.396 . S
C2540 C2545 1.390 . S
C2541 C2535 1.465 1_565 S
C2541 C2540 1.396 . S
C2541 C2542 1.399 . S
C2542 H2528 0.929 . S
C2542 C2541 1.399 . S
C2542 C2543 1.385 . S
C2543 H2529 0.931 . S
C2543 C2542 1.385 . S
C2543 C2544 1.389 . S
C2544 C2543 1.389 . S
C2544 C2545 1.387 . S
C2545 H2530 0.930 . S
C2545 C2540 1.390 . S
C2545 C2544 1.387 . S
H2546 C2558 0.930 . S
H2547 C2560 0.930 . S
H2548 C2561 0.930 . S
H2549 C2565 0.959 . S
H2550 C2565 0.959 . S
H2551 C2565 0.961 . S
H2552 C2566 0.960 . S
H2553 C2566 0.961 . S
H2554 C2566 0.959 . S
H2555 C2569 0.929 . S
H2556 C2570 0.931 . S
H2557 C2572 0.930 . S
C2558 H2546 0.930 . S
C2558 C2559 1.399 . S
C2558 C2563 1.399 . S
C2559 C2558 1.399 . S
C2559 C2560 1.376 . S
C2560 H2547 0.930 . S
C2560 C2559 1.376 . S
C2560 C2561 1.388 . S
C2561 H2548 0.930 . S
C2561 C2560 1.388 . S
C2561 C2562 1.390 . S
C2562 C2561 1.390 . S
C2562 C2563 1.394 . S
C2562 C2568 1.465 . S
C2563 C2558 1.399 . S
C2563 C2562 1.394 . S
C2563 C2564 1.516 . S
C2564 C2563 1.516 . S
C2564 C2565 1.502 . S
C2564 C2566 1.561 . S
C2564 C2567 1.526 . S
C2565 H2549 0.959 . S
C2565 H2550 0.959 . S
C2565 H2551 0.961 . S
C2565 C2564 1.502 . S
C2566 H2552 0.960 . S
C2566 H2553 0.961 . S
C2566 H2554 0.959 . S
C2566 C2564 1.561 . S
C2567 C2564 1.526 . S
C2567 C2568 1.396 . S
C2567 C2572 1.390 . S
C2568 C2562 1.465 . S
C2568 C2567 1.396 . S
C2568 C2569 1.399 . S
C2569 H2555 0.929 . S
C2569 C2568 1.399 . S
C2569 C2570 1.385 . S
C2570 H2556 0.931 . S
C2570 C2569 1.385 . S
C2570 C2571 1.389 . S
C2571 C2570 1.389 . S
C2571 C2572 1.387 . S
C2572 H2557 0.930 . S
C2572 C2567 1.390 . S
C2572 C2571 1.387 . S
H2573 C2585 0.930 . S
H2574 C2587 0.930 . S
H2575 C2588 0.930 . S
H2576 C2592 0.959 1_566 S
H2577 C2592 0.945 1_565 S
H2578 C2592 0.961 1_556 S
H2579 C2593 0.960 . S
H2580 C2593 0.961 . S
H2581 C2593 0.959 . S
H2582 C2596 0.929 . S
H2583 C2597 0.931 . S
H2584 C2599 0.930 . S
C2585 H2573 0.930 . S
C2585 C2586 1.399 . S
C2585 C2590 1.399 . S
C2586 C2585 1.399 . S
C2586 C2587 1.376 . S
C2587 H2574 0.930 . S
C2587 C2586 1.376 . S
C2587 C2588 1.388 . S
C2588 H2575 0.930 . S
C2588 C2587 1.388 . S
C2588 C2589 1.390 . S
C2589 C2588 1.390 . S
C2589 C2590 1.394 . S
C2589 C2595 1.465 1_546 S
C2590 C2585 1.399 . S
C2590 C2589 1.394 . S
C2590 C2591 1.516 1_556 S
C2591 C2590 1.516 1_554 S
C2591 C2592 1.502 . S
C2591 C2593 1.561 . S
C2591 C2594 1.526 1_545 S
C2592 H2576 0.959 1_544 S
C2592 H2577 0.945 1_545 S
C2592 H2578 0.961 1_554 S
C2592 C2591 1.502 . S
C2593 H2579 0.960 . S
C2593 H2580 0.961 . S
C2593 H2581 0.959 . S
C2593 C2591 1.561 . S
C2594 C2591 1.526 1_565 S
C2594 C2595 1.396 . S
C2594 C2599 1.390 . S
C2595 C2589 1.465 1_564 S
C2595 C2594 1.396 . S
C2595 C2596 1.399 . S
C2596 H2582 0.929 . S
C2596 C2595 1.399 . S
C2596 C2597 1.385 . S
C2597 H2583 0.931 . S
C2597 C2596 1.385 . S
C2597 C2598 1.389 . S
C2598 C2597 1.389 . S
C2598 C2599 1.387 . S
C2599 H2584 0.930 . S
C2599 C2594 1.390 . S
C2599 C2598 1.387 . S
H2600 C2612 0.930 . S
H2601 C2614 0.930 . S
H2602 C2615 0.930 . S
H2603 C2619 0.959 . S
H2604 C2619 0.959 . S
H2605 C2619 0.961 . S
H2606 C2620 0.960 . S
H2607 C2620 0.961 . S
H2608 C2620 0.959 . S
H2609 C2623 0.929 . S
H2610 C2624 0.931 . S
H2611 C2626 0.930 . S
C2612 H2600 0.930 . S
C2612 C2613 1.399 . S
C2612 C2617 1.399 . S
C2613 C2612 1.399 . S
C2613 C2614 1.376 . S
C2614 H2601 0.930 . S
C2614 C2613 1.376 . S
C2614 C2615 1.388 . S
C2615 H2602 0.930 . S
C2615 C2614 1.388 . S
C2615 C2616 1.390 . S
C2616 C2615 1.390 . S
C2616 C2617 1.394 . S
C2616 C2622 1.465 . S
C2617 C2612 1.399 . S
C2617 C2616 1.394 . S
C2617 C2618 1.516 . S
C2618 C2617 1.516 . S
C2618 C2619 1.502 . S
C2618 C2620 1.561 . S
C2618 C2621 1.526 . S
C2619 H2603 0.959 . S
C2619 H2604 0.959 . S
C2619 H2605 0.961 . S
C2619 C2618 1.502 . S
C2620 H2606 0.960 . S
C2620 H2607 0.961 . S
C2620 H2608 0.959 . S
C2620 C2618 1.561 . S
C2621 C2618 1.526 . S
C2621 C2622 1.396 . S
C2621 C2626 1.390 . S
C2622 C2616 1.465 . S
C2622 C2621 1.396 . S
C2622 C2623 1.399 . S
C2623 H2609 0.929 . S
C2623 C2622 1.399 . S
C2623 C2624 1.385 . S
C2624 H2610 0.931 . S
C2624 C2623 1.385 . S
C2624 C2625 1.389 . S
C2625 C2624 1.389 . S
C2625 C2626 1.387 . S
C2626 H2611 0.930 . S
C2626 C2621 1.390 . S
C2626 C2625 1.387 . S
H2627 C2639 0.930 . S
H2628 C2641 0.930 . S
H2629 C2642 0.930 . S
H2630 C2646 0.959 . S
H2631 C2646 0.959 . S
H2632 C2646 0.961 . S
H2633 C2647 0.960 . S
H2634 C2647 0.961 . S
H2635 C2647 0.959 . S
H2636 C2650 0.929 1_556 S
H2637 C2651 0.931 . S
H2638 C2653 0.930 . S
C2639 H2627 0.930 . S
C2639 C2640 1.399 . S
C2639 C2644 1.399 . S
C2640 C2639 1.399 . S
C2640 C2641 1.376 . S
C2641 H2628 0.930 . S
C2641 C2640 1.376 . S
C2641 C2642 1.388 . S
C2642 H2629 0.930 . S
C2642 C2641 1.388 . S
C2642 C2643 1.390 . S
C2643 C2642 1.390 . S
C2643 C2644 1.394 . S
C2643 C2649 1.465 1_556 S
C2644 C2639 1.399 . S
C2644 C2643 1.394 . S
C2644 C2645 1.516 1_556 S
C2645 C2644 1.516 1_554 S
C2645 C2646 1.502 . S
C2645 C2647 1.561 . S
C2645 C2648 1.526 . S
C2646 H2630 0.959 . S
C2646 H2631 0.959 . S
C2646 H2632 0.961 . S
C2646 C2645 1.502 . S
C2647 H2633 0.960 . S
C2647 H2634 0.961 . S
C2647 H2635 0.959 . S
C2647 C2645 1.561 . S
C2648 C2645 1.526 . S
C2648 C2649 1.396 . S
C2648 C2653 1.390 . S
C2649 C2643 1.465 1_554 S
C2649 C2648 1.396 . S
C2649 C2650 1.399 . S
C2650 H2636 0.929 1_554 S
C2650 C2649 1.399 . S
C2650 C2651 1.385 . S
C2651 H2637 0.931 . S
C2651 C2650 1.385 . S
C2651 C2652 1.389 . S
C2652 C2651 1.389 . S
C2652 C2653 1.387 . S
C2653 H2638 0.930 . S
C2653 C2648 1.390 . S
C2653 C2652 1.387 . S
H2654 C2666 0.930 . S
H2655 C2668 0.930 . S
H2656 C2669 0.930 . S
H2657 C2673 0.959 . S
H2658 C2673 0.959 . S
H2659 C2673 0.961 . S
H2660 C2674 0.960 . S
H2661 C2674 0.961 . S
H2662 C2674 0.959 . S
H2663 C2677 0.929 . S
H2664 C2678 0.931 . S
H2665 C2680 0.930 . S
C2666 H2654 0.930 . S
C2666 C2667 1.399 . S
C2666 C2671 1.399 . S
C2667 C2666 1.399 . S
C2667 C2668 1.376 . S
C2668 H2655 0.930 . S
C2668 C2667 1.376 . S
C2668 C2669 1.388 . S
C2669 H2656 0.930 . S
C2669 C2668 1.388 . S
C2669 C2670 1.390 . S
C2670 C2669 1.390 . S
C2670 C2671 1.394 . S
C2670 C2676 1.465 . S
C2671 C2666 1.399 . S
C2671 C2670 1.394 . S
C2671 C2672 1.516 . S
C2672 C2671 1.516 . S
C2672 C2673 1.502 . S
C2672 C2674 1.561 . S
C2672 C2675 1.526 . S
C2673 H2657 0.959 . S
C2673 H2658 0.959 . S
C2673 H2659 0.961 . S
C2673 C2672 1.502 . S
C2674 H2660 0.960 . S
C2674 H2661 0.961 . S
C2674 H2662 0.959 . S
C2674 C2672 1.561 . S
C2675 C2672 1.526 . S
C2675 C2676 1.396 . S
C2675 C2680 1.390 . S
C2676 C2670 1.465 . S
C2676 C2675 1.396 . S
C2676 C2677 1.399 . S
C2677 H2663 0.929 . S
C2677 C2676 1.399 . S
C2677 C2678 1.385 . S
C2678 H2664 0.931 . S
C2678 C2677 1.385 . S
C2678 C2679 1.389 . S
C2679 C2678 1.389 . S
C2679 C2680 1.387 . S
C2680 H2665 0.930 . S
C2680 C2675 1.390 . S
C2680 C2679 1.387 . S
H2681 C2693 0.930 . S
H2682 C2695 0.930 . S
H2683 C2696 0.930 . S
H2684 C2700 0.959 . S
H2685 C2700 0.959 . S
H2686 C2700 0.961 . S
H2687 C2701 0.960 . S
H2688 C2701 0.961 . S
H2689 C2701 0.959 . S
H2690 C2704 0.929 . S
H2691 C2705 0.931 . S
H2692 C2707 0.930 . S
C2693 H2681 0.930 . S
C2693 C2694 1.399 . S
C2693 C2698 1.399 . S
C2694 C2693 1.399 . S
C2694 C2695 1.376 . S
C2695 H2682 0.930 . S
C2695 C2694 1.376 . S
C2695 C2696 1.388 . S
C2696 H2683 0.930 . S
C2696 C2695 1.388 . S
C2696 C2697 1.390 . S
C2697 C2696 1.390 . S
C2697 C2698 1.394 . S
C2697 C2703 1.465 . S
C2698 C2693 1.399 . S
C2698 C2697 1.394 . S
C2698 C2699 1.516 . S
C2699 C2698 1.516 . S
C2699 C2700 1.502 . S
C2699 C2701 1.561 . S
C2699 C2702 1.526 . S
C2700 H2684 0.959 . S
C2700 H2685 0.959 . S
C2700 H2686 0.961 . S
C2700 C2699 1.502 . S
C2701 H2687 0.960 . S
C2701 H2688 0.961 . S
C2701 H2689 0.959 . S
C2701 C2699 1.561 . S
C2702 C2699 1.526 . S
C2702 C2703 1.396 . S
C2702 C2707 1.390 . S
C2703 C2697 1.465 . S
C2703 C2702 1.396 . S
C2703 C2704 1.399 . S
C2704 H2690 0.929 . S
C2704 C2703 1.399 . S
C2704 C2705 1.385 . S
C2705 H2691 0.931 . S
C2705 C2704 1.385 . S
C2705 C2706 1.389 . S
C2706 C2705 1.389 . S
C2706 C2707 1.387 . S
C2707 H2692 0.930 . S
C2707 C2702 1.390 . S
C2707 C2706 1.387 . S
H2708 C2720 0.930 . S
H2709 C2722 0.930 . S
H2710 C2723 0.930 . S
H2711 C2727 0.959 . S
H2712 C2727 0.959 . S
H2713 C2727 0.961 . S
H2714 C2728 0.960 . S
H2715 C2728 0.961 . S
H2716 C2728 0.959 . S
H2717 C2731 0.929 . S
H2718 C2732 0.931 . S
H2719 C2734 0.930 . S
C2720 H2708 0.930 . S
C2720 C2721 1.399 . S
C2720 C2725 1.399 . S
C2721 C2720 1.399 . S
C2721 C2722 1.376 . S
C2722 H2709 0.930 . S
C2722 C2721 1.376 . S
C2722 C2723 1.388 . S
C2723 H2710 0.930 . S
C2723 C2722 1.388 . S
C2723 C2724 1.390 . S
C2724 C2723 1.390 . S
C2724 C2725 1.394 . S
C2724 C2730 1.465 . S
C2725 C2720 1.399 . S
C2725 C2724 1.394 . S
C2725 C2726 1.516 . S
C2726 C2725 1.516 . S
C2726 C2727 1.502 . S
C2726 C2728 1.561 . S
C2726 C2729 1.526 . S
C2727 H2711 0.959 . S
C2727 H2712 0.959 . S
C2727 H2713 0.961 . S
C2727 C2726 1.502 . S
C2728 H2714 0.960 . S
C2728 H2715 0.961 . S
C2728 H2716 0.959 . S
C2728 C2726 1.561 . S
C2729 C2726 1.526 . S
C2729 C2730 1.396 . S
C2729 C2734 1.390 . S
C2730 C2724 1.465 . S
C2730 C2729 1.396 . S
C2730 C2731 1.399 . S
C2731 H2717 0.929 . S
C2731 C2730 1.399 . S
C2731 C2732 1.385 . S
C2732 H2718 0.931 . S
C2732 C2731 1.385 . S
C2732 C2733 1.389 . S
C2733 C2732 1.389 . S
C2733 C2734 1.387 . S
C2734 H2719 0.930 . S
C2734 C2729 1.390 . S
C2734 C2733 1.387 . S
H2735 C2747 0.930 . S
H2736 C2749 0.930 . S
H2737 C2750 0.930 . S
H2738 C2754 0.959 . S
H2739 C2754 0.959 . S
H2740 C2754 0.961 . S
H2741 C2755 0.960 . S
H2742 C2755 0.961 . S
H2743 C2755 0.959 . S
H2744 C2758 0.929 1_556 S
H2745 C2759 0.931 . S
H2746 C2761 0.930 . S
C2747 H2735 0.930 . S
C2747 C2748 1.399 . S
C2747 C2752 1.399 . S
C2748 C2747 1.399 . S
C2748 C2749 1.376 . S
C2749 H2736 0.930 . S
C2749 C2748 1.376 . S
C2749 C2750 1.388 . S
C2750 H2737 0.930 . S
C2750 C2749 1.388 . S
C2750 C2751 1.390 . S
C2751 C2750 1.390 . S
C2751 C2752 1.394 . S
C2751 C2757 1.465 1_556 S
C2752 C2747 1.399 . S
C2752 C2751 1.394 . S
C2752 C2753 1.516 1_556 S
C2753 C2752 1.516 1_554 S
C2753 C2754 1.502 . S
C2753 C2755 1.561 . S
C2753 C2756 1.526 . S
C2754 H2738 0.959 . S
C2754 H2739 0.959 . S
C2754 H2740 0.961 . S
C2754 C2753 1.502 . S
C2755 H2741 0.960 . S
C2755 H2742 0.961 . S
C2755 H2743 0.959 . S
C2755 C2753 1.561 . S
C2756 C2753 1.526 . S
C2756 C2757 1.396 . S
C2756 C2761 1.390 . S
C2757 C2751 1.465 1_554 S
C2757 C2756 1.396 . S
C2757 C2758 1.399 . S
C2758 H2744 0.929 1_554 S
C2758 C2757 1.399 . S
C2758 C2759 1.385 . S
C2759 H2745 0.931 . S
C2759 C2758 1.385 . S
C2759 C2760 1.389 . S
C2760 C2759 1.389 . S
C2760 C2761 1.387 . S
C2761 H2746 0.930 . S
C2761 C2756 1.390 . S
C2761 C2760 1.387 . S
H2762 C2774 0.930 . S
H2763 C2776 0.930 . S
H2764 C2777 0.930 . S
H2765 C2781 0.959 . S
H2766 C2781 0.959 . S
H2767 C2781 0.961 . S
H2768 C2782 0.960 . S
H2769 C2782 0.961 . S
H2770 C2782 0.959 . S
H2771 C2785 0.929 . S
H2772 C2786 0.931 . S
H2773 C2788 0.930 . S
C2774 H2762 0.930 . S
C2774 C2775 1.399 . S
C2774 C2779 1.399 . S
C2775 C2774 1.399 . S
C2775 C2776 1.376 . S
C2776 H2763 0.930 . S
C2776 C2775 1.376 . S
C2776 C2777 1.388 . S
C2777 H2764 0.930 . S
C2777 C2776 1.388 . S
C2777 C2778 1.390 . S
C2778 C2777 1.390 . S
C2778 C2779 1.394 . S
C2778 C2784 1.465 . S
C2779 C2774 1.399 . S
C2779 C2778 1.394 . S
C2779 C2780 1.516 . S
C2780 C2779 1.516 . S
C2780 C2781 1.502 . S
C2780 C2782 1.561 . S
C2780 C2783 1.526 . S
C2781 H2765 0.959 . S
C2781 H2766 0.959 . S
C2781 H2767 0.961 . S
C2781 C2780 1.502 . S
C2782 H2768 0.960 . S
C2782 H2769 0.961 . S
C2782 H2770 0.959 . S
C2782 C2780 1.561 . S
C2783 C2780 1.526 . S
C2783 C2784 1.396 . S
C2783 C2788 1.390 . S
C2784 C2778 1.465 . S
C2784 C2783 1.396 . S
C2784 C2785 1.399 . S
C2785 H2771 0.929 . S
C2785 C2784 1.399 . S
C2785 C2786 1.385 . S
C2786 H2772 0.931 . S
C2786 C2785 1.385 . S
C2786 C2787 1.389 . S
C2787 C2786 1.389 . S
C2787 C2788 1.387 . S
C2788 H2773 0.930 . S
C2788 C2783 1.390 . S
C2788 C2787 1.387 . S
H2789 C2801 0.930 . S
H2790 C2803 0.930 . S
H2791 C2804 0.930 . S
H2792 C2808 0.959 . S
H2793 C2808 0.959 . S
H2794 C2808 0.961 . S
H2795 C2809 0.960 . S
H2796 C2809 0.961 . S
H2797 C2809 0.959 . S
H2798 C2812 0.929 . S
H2799 C2813 0.931 . S
H2800 C2815 0.930 . S
C2801 H2789 0.930 . S
C2801 C2802 1.399 . S
C2801 C2806 1.399 . S
C2802 C2801 1.399 . S
C2802 C2803 1.376 . S
C2803 H2790 0.930 . S
C2803 C2802 1.376 . S
C2803 C2804 1.388 . S
C2804 H2791 0.930 . S
C2804 C2803 1.388 . S
C2804 C2805 1.390 . S
C2805 C2804 1.390 . S
C2805 C2806 1.394 . S
C2805 C2811 1.465 . S
C2806 C2801 1.399 . S
C2806 C2805 1.394 . S
C2806 C2807 1.516 . S
C2807 C2806 1.516 . S
C2807 C2808 1.502 . S
C2807 C2809 1.561 . S
C2807 C2810 1.526 . S
C2808 H2792 0.959 . S
C2808 H2793 0.959 . S
C2808 H2794 0.961 . S
C2808 C2807 1.502 . S
C2809 H2795 0.960 . S
C2809 H2796 0.961 . S
C2809 H2797 0.959 . S
C2809 C2807 1.561 . S
C2810 C2807 1.526 . S
C2810 C2811 1.396 . S
C2810 C2815 1.390 . S
C2811 C2805 1.465 . S
C2811 C2810 1.396 . S
C2811 C2812 1.399 . S
C2812 H2798 0.929 . S
C2812 C2811 1.399 . S
C2812 C2813 1.385 . S
C2813 H2799 0.931 . S
C2813 C2812 1.385 . S
C2813 C2814 1.389 . S
C2814 C2813 1.389 . S
C2814 C2815 1.387 . S
C2815 H2800 0.930 . S
C2815 C2810 1.390 . S
C2815 C2814 1.387 . S
H2816 C2828 0.930 . S
H2817 C2830 0.930 1_554 S
H2818 C2831 0.930 . S
H2819 C2835 0.959 . S
H2820 C2835 0.959 . S
H2821 C2835 0.961 . S
H2822 C2836 0.960 . S
H2823 C2836 0.961 . S
H2824 C2836 0.959 . S
H2825 C2839 0.929 . S
H2826 C2840 0.931 . S
H2827 C2842 0.930 . S
C2828 H2816 0.930 . S
C2828 C2829 1.399 . S
C2828 C2833 1.399 . S
C2829 C2828 1.399 . S
C2829 C2830 1.376 . S
C2830 H2817 0.930 1_556 S
C2830 C2829 1.376 . S
C2830 C2831 1.388 . S
C2831 H2818 0.930 . S
C2831 C2830 1.388 . S
C2831 C2832 1.390 . S
C2832 C2831 1.390 . S
C2832 C2833 1.394 . S
C2832 C2838 1.465 . S
C2833 C2828 1.399 . S
C2833 C2832 1.394 . S
C2833 C2834 1.516 . S
C2834 C2833 1.516 . S
C2834 C2835 1.502 . S
C2834 C2836 1.561 . S
C2834 C2837 1.526 . S
C2835 H2819 0.959 . S
C2835 H2820 0.959 . S
C2835 H2821 0.961 . S
C2835 C2834 1.502 . S
C2836 H2822 0.960 . S
C2836 H2823 0.961 . S
C2836 H2824 0.959 . S
C2836 C2834 1.561 . S
C2837 C2834 1.526 . S
C2837 C2838 1.396 . S
C2837 C2842 1.390 . S
C2838 C2832 1.465 . S
C2838 C2837 1.396 . S
C2838 C2839 1.399 . S
C2839 H2825 0.929 . S
C2839 C2838 1.399 . S
C2839 C2840 1.385 . S
C2840 H2826 0.931 . S
C2840 C2839 1.385 . S
C2840 C2841 1.389 . S
C2841 C2840 1.389 . S
C2841 C2842 1.387 . S
C2842 H2827 0.930 . S
C2842 C2837 1.390 . S
C2842 C2841 1.387 . S
H2843 C2855 0.930 1_556 S
H2844 C2857 0.930 . S
H2845 C2858 0.930 . S
H2846 C2862 0.959 1_556 S
H2847 C2862 0.959 . S
H2848 C2862 0.961 1_556 S
H2849 C2863 0.960 . S
H2850 C2863 0.961 . S
H2851 C2863 0.959 . S
H2852 C2866 0.929 . S
H2853 C2867 0.931 . S
H2854 C2869 0.930 . S
C2855 H2843 0.930 1_554 S
C2855 C2856 1.399 . S
C2855 C2860 1.399 . S
C2856 C2855 1.399 . S
C2856 C2857 1.376 . S
C2857 H2844 0.930 . S
C2857 C2856 1.376 . S
C2857 C2858 1.388 . S
C2858 H2845 0.930 . S
C2858 C2857 1.388 . S
C2858 C2859 1.390 . S
C2859 C2858 1.390 . S
C2859 C2860 1.394 . S
C2859 C2865 1.465 . S
C2860 C2855 1.399 . S
C2860 C2859 1.394 . S
C2860 C2861 1.516 . S
C2861 C2860 1.516 . S
C2861 C2862 1.502 . S
C2861 C2863 1.561 . S
C2861 C2864 1.526 . S
C2862 H2846 0.959 1_554 S
C2862 H2847 0.959 . S
C2862 H2848 0.961 1_554 S
C2862 C2861 1.502 . S
C2863 H2849 0.960 . S
C2863 H2850 0.961 . S
C2863 H2851 0.959 . S
C2863 C2861 1.561 . S
C2864 C2861 1.526 . S
C2864 C2865 1.396 . S
C2864 C2869 1.390 . S
C2865 C2859 1.465 . S
C2865 C2864 1.396 . S
C2865 C2866 1.399 . S
C2866 H2852 0.929 . S
C2866 C2865 1.399 . S
C2866 C2867 1.385 . S
C2867 H2853 0.931 . S
C2867 C2866 1.385 . S
C2867 C2868 1.389 . S
C2868 C2867 1.389 . S
C2868 C2869 1.387 . S
C2869 H2854 0.930 . S
C2869 C2864 1.390 . S
C2869 C2868 1.387 . S
H2870 C2882 0.930 . S
H2871 C2884 0.930 . S
H2872 C2885 0.930 . S
H2873 C2889 0.959 . S
H2874 C2889 0.959 . S
H2875 C2889 0.961 . S
H2876 C2890 0.960 . S
H2877 C2890 0.961 . S
H2878 C2890 0.959 . S
H2879 C2893 0.929 . S
H2880 C2894 0.931 . S
H2881 C2896 0.930 . S
C2882 H2870 0.930 . S
C2882 C2883 1.399 . S
C2882 C2887 1.399 . S
C2883 C2882 1.399 . S
C2883 C2884 1.376 . S
C2884 H2871 0.930 . S
C2884 C2883 1.376 . S
C2884 C2885 1.388 . S
C2885 H2872 0.930 . S
C2885 C2884 1.388 . S
C2885 C2886 1.390 . S
C2886 C2885 1.390 . S
C2886 C2887 1.394 . S
C2886 C2892 1.465 . S
C2887 C2882 1.399 . S
C2887 C2886 1.394 . S
C2887 C2888 1.516 . S
C2888 C2887 1.516 . S
C2888 C2889 1.502 . S
C2888 C2890 1.561 . S
C2888 C2891 1.526 . S
C2889 H2873 0.959 . S
C2889 H2874 0.959 . S
C2889 H2875 0.961 . S
C2889 C2888 1.502 . S
C2890 H2876 0.960 . S
C2890 H2877 0.961 . S
C2890 H2878 0.959 . S
C2890 C2888 1.561 . S
C2891 C2888 1.526 . S
C2891 C2892 1.396 . S
C2891 C2896 1.390 . S
C2892 C2886 1.465 . S
C2892 C2891 1.396 . S
C2892 C2893 1.399 . S
C2893 H2879 0.929 . S
C2893 C2892 1.399 . S
C2893 C2894 1.385 . S
C2894 H2880 0.931 . S
C2894 C2893 1.385 . S
C2894 C2895 1.389 . S
C2895 C2894 1.389 . S
C2895 C2896 1.387 . S
C2896 H2881 0.930 . S
C2896 C2891 1.390 . S
C2896 C2895 1.387 . S
H2897 C2909 0.930 . S
H2898 C2911 0.930 . S
H2899 C2912 0.930 . S
H2900 C2916 0.959 . S
H2901 C2916 0.959 . S
H2902 C2916 0.961 . S
H2903 C2917 0.960 . S
H2904 C2917 0.961 . S
H2905 C2917 0.959 . S
H2906 C2920 0.929 . S
H2907 C2921 0.931 . S
H2908 C2923 0.930 . S
C2909 H2897 0.930 . S
C2909 C2910 1.399 . S
C2909 C2914 1.399 . S
C2910 C2909 1.399 . S
C2910 C2911 1.376 . S
C2911 H2898 0.930 . S
C2911 C2910 1.376 . S
C2911 C2912 1.388 . S
C2912 H2899 0.930 . S
C2912 C2911 1.388 . S
C2912 C2913 1.390 . S
C2913 C2912 1.390 . S
C2913 C2914 1.394 . S
C2913 C2919 1.465 . S
C2914 C2909 1.399 . S
C2914 C2913 1.394 . S
C2914 C2915 1.516 . S
C2915 C2914 1.516 . S
C2915 C2916 1.502 . S
C2915 C2917 1.561 . S
C2915 C2918 1.526 . S
C2916 H2900 0.959 . S
C2916 H2901 0.959 . S
C2916 H2902 0.961 . S
C2916 C2915 1.502 . S
C2917 H2903 0.960 . S
C2917 H2904 0.961 . S
C2917 H2905 0.959 . S
C2917 C2915 1.561 . S
C2918 C2915 1.526 . S
C2918 C2919 1.396 . S
C2918 C2923 1.390 . S
C2919 C2913 1.465 . S
C2919 C2918 1.396 . S
C2919 C2920 1.399 . S
C2920 H2906 0.929 . S
C2920 C2919 1.399 . S
C2920 C2921 1.385 . S
C2921 H2907 0.931 . S
C2921 C2920 1.385 . S
C2921 C2922 1.389 . S
C2922 C2921 1.389 . S
C2922 C2923 1.387 . S
C2923 H2908 0.930 . S
C2923 C2918 1.390 . S
C2923 C2922 1.387 . S
H2924 C2936 0.930 . S
H2925 C2938 0.930 . S
H2926 C2939 0.937 . S
H2927 C2943 0.959 . S
H2928 C2943 0.959 . S
H2929 C2943 0.961 . S
H2930 C2944 0.960 . S
H2931 C2944 0.961 . S
H2932 C2944 0.959 . S
H2933 C2947 0.929 . S
H2934 C2948 0.931 . S
H2935 C2950 0.930 . S
C2936 H2924 0.930 . S
C2936 C2937 1.399 . S
C2936 C2941 1.399 . S
C2937 C2936 1.399 . S
C2937 C2938 1.376 1_554 S
C2938 H2925 0.930 . S
C2938 C2937 1.376 1_556 S
C2938 C2939 1.391 . S
C2939 H2926 0.937 . S
C2939 C2938 1.391 . S
C2939 C2940 1.380 1_556 S
C2940 C2939 1.380 1_554 S
C2940 C2941 1.394 . S
C2940 C2946 1.465 . S
C2941 C2936 1.399 . S
C2941 C2940 1.394 . S
C2941 C2942 1.516 . S
C2942 C2941 1.516 . S
C2942 C2943 1.502 . S
C2942 C2944 1.561 . S
C2942 C2945 1.526 . S
C2943 H2927 0.959 . S
C2943 H2928 0.959 . S
C2943 H2929 0.961 . S
C2943 C2942 1.502 . S
C2944 H2930 0.960 . S
C2944 H2931 0.961 . S
C2944 H2932 0.959 . S
C2944 C2942 1.561 . S
C2945 C2942 1.526 . S
C2945 C2946 1.396 . S
C2945 C2950 1.390 . S
C2946 C2940 1.465 . S
C2946 C2945 1.396 . S
C2946 C2947 1.399 . S
C2947 H2933 0.929 . S
C2947 C2946 1.399 . S
C2947 C2948 1.385 . S
C2948 H2934 0.931 . S
C2948 C2947 1.385 . S
C2948 C2949 1.389 . S
C2949 C2948 1.389 . S
C2949 C2950 1.387 . S
C2950 H2935 0.930 . S
C2950 C2945 1.390 . S
C2950 C2949 1.387 . S
H2951 C2963 0.930 . S
H2952 C2965 0.930 1_554 S
H2953 C2966 0.930 . S
H2954 C2970 0.959 . S
H2955 C2970 0.959 . S
H2956 C2970 0.961 . S
H2957 C2971 0.960 . S
H2958 C2971 0.961 . S
H2959 C2971 0.959 . S
H2960 C2974 0.929 . S
H2961 C2975 0.931 . S
H2962 C2977 0.930 . S
C2963 H2951 0.930 . S
C2963 C2964 1.399 . S
C2963 C2968 1.399 . S
C2964 C2963 1.399 . S
C2964 C2965 1.376 . S
C2965 H2952 0.930 1_556 S
C2965 C2964 1.376 . S
C2965 C2966 1.388 . S
C2966 H2953 0.930 . S
C2966 C2965 1.388 . S
C2966 C2967 1.390 . S
C2967 C2966 1.390 . S
C2967 C2968 1.394 . S
C2967 C2973 1.465 . S
C2968 C2963 1.399 . S
C2968 C2967 1.394 . S
C2968 C2969 1.516 . S
C2969 C2968 1.516 . S
C2969 C2970 1.502 . S
C2969 C2971 1.561 . S
C2969 C2972 1.526 . S
C2970 H2954 0.959 . S
C2970 H2955 0.959 . S
C2970 H2956 0.961 . S
C2970 C2969 1.502 . S
C2971 H2957 0.960 . S
C2971 H2958 0.961 . S
C2971 H2959 0.959 . S
C2971 C2969 1.561 . S
C2972 C2969 1.526 . S
C2972 C2973 1.396 . S
C2972 C2977 1.390 . S
C2973 C2967 1.465 . S
C2973 C2972 1.396 . S
C2973 C2974 1.399 . S
C2974 H2960 0.929 . S
C2974 C2973 1.399 . S
C2974 C2975 1.385 . S
C2975 H2961 0.931 . S
C2975 C2974 1.385 . S
C2975 C2976 1.389 . S
C2976 C2975 1.389 . S
C2976 C2977 1.387 . S
C2977 H2962 0.930 . S
C2977 C2972 1.390 . S
C2977 C2976 1.387 . S
H2978 C2990 0.930 . S
H2979 C2992 0.930 . S
H2980 C2993 0.930 . S
H2981 C2997 0.959 . S
H2982 C2997 0.959 . S
H2983 C2997 0.961 . S
H2984 C2998 0.960 . S
H2985 C2998 0.961 . S
H2986 C2998 0.959 . S
H2987 C3001 0.929 . S
H2988 C3002 0.931 . S
H2989 C3004 0.930 . S
C2990 H2978 0.930 . S
C2990 C2991 1.399 . S
C2990 C2995 1.399 . S
C2991 C2990 1.399 . S
C2991 C2992 1.376 . S
C2992 H2979 0.930 . S
C2992 C2991 1.376 . S
C2992 C2993 1.388 . S
C2993 H2980 0.930 . S
C2993 C2992 1.388 . S
C2993 C2994 1.390 . S
C2994 C2993 1.390 . S
C2994 C2995 1.394 . S
C2994 C3000 1.465 . S
C2995 C2990 1.399 . S
C2995 C2994 1.394 . S
C2995 C2996 1.516 . S
C2996 C2995 1.516 . S
C2996 C2997 1.502 . S
C2996 C2998 1.561 . S
C2996 C2999 1.526 . S
C2997 H2981 0.959 . S
C2997 H2982 0.959 . S
C2997 H2983 0.961 . S
C2997 C2996 1.502 . S
C2998 H2984 0.960 . S
C2998 H2985 0.961 . S
C2998 H2986 0.959 . S
C2998 C2996 1.561 . S
C2999 C2996 1.526 . S
C2999 C3000 1.396 . S
C2999 C3004 1.390 . S
C3000 C2994 1.465 . S
C3000 C2999 1.396 . S
C3000 C3001 1.399 . S
C3001 H2987 0.929 . S
C3001 C3000 1.399 . S
C3001 C3002 1.385 . S
C3002 H2988 0.931 . S
C3002 C3001 1.385 . S
C3002 C3003 1.389 . S
C3003 C3002 1.389 . S
C3003 C3004 1.387 . S
C3004 H2989 0.930 . S
C3004 C2999 1.390 . S
C3004 C3003 1.387 . S
H3005 C3017 0.930 . S
H3006 C3019 0.930 . S
H3007 C3020 0.930 . S
H3008 C3024 0.959 . S
H3009 C3024 0.959 . S
H3010 C3024 0.961 . S
H3011 C3025 0.960 . S
H3012 C3025 0.961 . S
H3013 C3025 0.959 . S
H3014 C3028 0.929 . S
H3015 C3029 0.931 . S
H3016 C3031 0.930 . S
C3017 H3005 0.930 . S
C3017 C3018 1.399 . S
C3017 C3022 1.399 . S
C3018 C3017 1.399 . S
C3018 C3019 1.376 . S
C3019 H3006 0.930 . S
C3019 C3018 1.376 . S
C3019 C3020 1.388 . S
C3020 H3007 0.930 . S
C3020 C3019 1.388 . S
C3020 C3021 1.390 . S
C3021 C3020 1.390 . S
C3021 C3022 1.394 . S
C3021 C3027 1.465 . S
C3022 C3017 1.399 . S
C3022 C3021 1.394 . S
C3022 C3023 1.516 . S
C3023 C3022 1.516 . S
C3023 C3024 1.502 . S
C3023 C3025 1.561 . S
C3023 C3026 1.526 . S
C3024 H3008 0.959 . S
C3024 H3009 0.959 . S
C3024 H3010 0.961 . S
C3024 C3023 1.502 . S
C3025 H3011 0.960 . S
C3025 H3012 0.961 . S
C3025 H3013 0.959 . S
C3025 C3023 1.561 . S
C3026 C3023 1.526 . S
C3026 C3027 1.396 . S
C3026 C3031 1.390 . S
C3027 C3021 1.465 . S
C3027 C3026 1.396 . S
C3027 C3028 1.399 . S
C3028 H3014 0.929 . S
C3028 C3027 1.399 . S
C3028 C3029 1.385 . S
C3029 H3015 0.931 . S
C3029 C3028 1.385 . S
C3029 C3030 1.389 . S
C3030 C3029 1.389 . S
C3030 C3031 1.387 . S
C3031 H3016 0.930 . S
C3031 C3026 1.390 . S
C3031 C3030 1.387 . S
H3032 C3044 0.930 . S
H3033 C3046 0.930 . S
H3034 C3047 0.930 . S
H3035 C3051 0.959 . S
H3036 C3051 0.959 . S
H3037 C3051 0.961 . S
H3038 C3052 0.960 . S
H3039 C3052 0.961 . S
H3040 C3052 0.959 . S
H3041 C3055 0.929 . S
H3042 C3056 0.931 . S
H3043 C3058 0.930 . S
C3044 H3032 0.930 . S
C3044 C3045 1.399 . S
C3044 C3049 1.399 . S
C3045 C3044 1.399 . S
C3045 C3046 1.376 . S
C3046 H3033 0.930 . S
C3046 C3045 1.376 . S
C3046 C3047 1.388 . S
C3047 H3034 0.930 . S
C3047 C3046 1.388 . S
C3047 C3048 1.390 . S
C3048 C3047 1.390 . S
C3048 C3049 1.394 . S
C3048 C3054 1.465 . S
C3049 C3044 1.399 . S
C3049 C3048 1.394 . S
C3049 C3050 1.516 . S
C3050 C3049 1.516 . S
C3050 C3051 1.502 . S
C3050 C3052 1.561 . S
C3050 C3053 1.526 . S
C3051 H3035 0.959 . S
C3051 H3036 0.959 . S
C3051 H3037 0.961 . S
C3051 C3050 1.502 . S
C3052 H3038 0.960 . S
C3052 H3039 0.961 . S
C3052 H3040 0.959 . S
C3052 C3050 1.561 . S
C3053 C3050 1.526 . S
C3053 C3054 1.396 . S
C3053 C3058 1.390 . S
C3054 C3048 1.465 . S
C3054 C3053 1.396 . S
C3054 C3055 1.399 . S
C3055 H3041 0.929 . S
C3055 C3054 1.399 . S
C3055 C3056 1.385 . S
C3056 H3042 0.931 . S
C3056 C3055 1.385 . S
C3056 C3057 1.389 . S
C3057 C3056 1.389 . S
C3057 C3058 1.387 . S
C3058 H3043 0.930 . S
C3058 C3053 1.390 . S
C3058 C3057 1.387 . S
H3059 C3071 0.930 . S
H3060 C3073 0.930 . S
H3061 C3074 0.930 . S
H3062 C3078 0.959 . S
H3063 C3078 0.959 . S
H3064 C3078 0.961 . S
H3065 C3079 0.960 . S
H3066 C3079 0.961 . S
H3067 C3079 0.959 . S
H3068 C3082 0.929 . S
H3069 C3083 0.931 . S
H3070 C3085 0.930 . S
C3071 H3059 0.930 . S
C3071 C3072 1.399 . S
C3071 C3076 1.399 . S
C3072 C3071 1.399 . S
C3072 C3073 1.376 . S
C3073 H3060 0.930 . S
C3073 C3072 1.376 . S
C3073 C3074 1.388 . S
C3074 H3061 0.930 . S
C3074 C3073 1.388 . S
C3074 C3075 1.390 . S
C3075 C3074 1.390 . S
C3075 C3076 1.394 . S
C3075 C3081 1.465 . S
C3076 C3071 1.399 . S
C3076 C3075 1.394 . S
C3076 C3077 1.516 . S
C3077 C3076 1.516 . S
C3077 C3078 1.502 . S
C3077 C3079 1.561 . S
C3077 C3080 1.526 . S
C3078 H3062 0.959 . S
C3078 H3063 0.959 . S
C3078 H3064 0.961 . S
C3078 C3077 1.502 . S
C3079 H3065 0.960 . S
C3079 H3066 0.961 . S
C3079 H3067 0.959 . S
C3079 C3077 1.561 . S
C3080 C3077 1.526 . S
C3080 C3081 1.396 . S
C3080 C3085 1.390 . S
C3081 C3075 1.465 . S
C3081 C3080 1.396 . S
C3081 C3082 1.399 . S
C3082 H3068 0.929 . S
C3082 C3081 1.399 . S
C3082 C3083 1.385 . S
C3083 H3069 0.931 . S
C3083 C3082 1.385 . S
C3083 C3084 1.389 . S
C3084 C3083 1.389 . S
C3084 C3085 1.387 . S
C3085 H3070 0.930 . S
C3085 C3080 1.390 . S
C3085 C3084 1.387 . S
H3086 C3098 0.930 . S
H3087 C3100 0.930 . S
H3088 C3101 0.930 . S
H3089 C3105 0.959 . S
H3090 C3105 0.959 . S
H3091 C3105 0.961 . S
H3092 C3106 0.960 . S
H3093 C3106 0.961 1_554 S
H3094 C3106 0.959 . S
H3095 C3109 0.929 . S
H3096 C3110 0.931 . S
H3097 C3112 0.930 1_554 S
C3098 H3086 0.930 . S
C3098 C3099 1.399 . S
C3098 C3103 1.399 . S
C3099 C3098 1.399 . S
C3099 C3100 1.376 . S
C3100 H3087 0.930 . S
C3100 C3099 1.376 . S
C3100 C3101 1.388 . S
C3101 H3088 0.930 . S
C3101 C3100 1.388 . S
C3101 C3102 1.390 . S
C3102 C3101 1.390 . S
C3102 C3103 1.394 . S
C3102 C3108 1.465 . S
C3103 C3098 1.399 . S
C3103 C3102 1.394 . S
C3103 C3104 1.516 . S
C3104 C3103 1.516 . S
C3104 C3105 1.502 1_556 S
C3104 C3106 1.561 . S
C3104 C3107 1.526 . S
C3105 H3089 0.959 . S
C3105 H3090 0.959 . S
C3105 H3091 0.961 . S
C3105 C3104 1.502 1_554 S
C3106 H3092 0.960 . S
C3106 H3093 0.961 1_556 S
C3106 H3094 0.959 . S
C3106 C3104 1.561 . S
C3107 C3104 1.526 . S
C3107 C3108 1.396 . S
C3107 C3112 1.390 . S
C3108 C3102 1.465 . S
C3108 C3107 1.396 . S
C3108 C3109 1.399 . S
C3109 H3095 0.929 . S
C3109 C3108 1.399 . S
C3109 C3110 1.385 . S
C3110 H3096 0.931 . S
C3110 C3109 1.385 . S
C3110 C3111 1.389 . S
C3111 C3110 1.389 . S
C3111 C3112 1.387 . S
C3112 H3097 0.930 1_556 S
C3112 C3107 1.390 . S
C3112 C3111 1.387 . S
H3113 C3125 0.930 . S
H3114 C3127 0.930 . S
H3115 C3128 0.930 . S
H3116 C3132 0.959 . S
H3117 C3132 0.959 . S
H3118 C3132 0.961 . S
H3119 C3133 0.960 . S
H3120 C3133 0.961 . S
H3121 C3133 0.959 . S
H3122 C3136 0.929 . S
H3123 C3137 0.931 . S
H3124 C3139 0.930 . S
C3125 H3113 0.930 . S
C3125 C3126 1.399 . S
C3125 C3130 1.399 . S
C3126 C3125 1.399 . S
C3126 C3127 1.376 . S
C3127 H3114 0.930 . S
C3127 C3126 1.376 . S
C3127 C3128 1.388 . S
C3128 H3115 0.930 . S
C3128 C3127 1.388 . S
C3128 C3129 1.390 . S
C3129 C3128 1.390 . S
C3129 C3130 1.394 . S
C3129 C3135 1.465 . S
C3130 C3125 1.399 . S
C3130 C3129 1.394 . S
C3130 C3131 1.516 . S
C3131 C3130 1.516 . S
C3131 C3132 1.502 . S
C3131 C3133 1.561 . S
C3131 C3134 1.526 . S
C3132 H3116 0.959 . S
C3132 H3117 0.959 . S
C3132 H3118 0.961 . S
C3132 C3131 1.502 . S
C3133 H3119 0.960 . S
C3133 H3120 0.961 . S
C3133 H3121 0.959 . S
C3133 C3131 1.561 . S
C3134 C3131 1.526 . S
C3134 C3135 1.396 . S
C3134 C3139 1.390 . S
C3135 C3129 1.465 . S
C3135 C3134 1.396 . S
C3135 C3136 1.399 . S
C3136 H3122 0.929 . S
C3136 C3135 1.399 . S
C3136 C3137 1.385 . S
C3137 H3123 0.931 . S
C3137 C3136 1.385 . S
C3137 C3138 1.389 . S
C3138 C3137 1.389 . S
C3138 C3139 1.387 . S
C3139 H3124 0.930 . S
C3139 C3134 1.390 . S
C3139 C3138 1.387 . S
H3140 C3152 0.930 . S
H3141 C3154 0.930 . S
H3142 C3155 0.930 . S
H3143 C3159 0.959 . S
H3144 C3159 0.959 . S
H3145 C3159 0.961 . S
H3146 C3160 0.960 . S
H3147 C3160 0.961 . S
H3148 C3160 0.959 . S
H3149 C3163 0.929 . S
H3150 C3164 0.931 . S
H3151 C3166 0.930 . S
C3152 H3140 0.930 . S
C3152 C3153 1.399 . S
C3152 C3157 1.399 . S
C3153 C3152 1.399 . S
C3153 C3154 1.376 . S
C3154 H3141 0.930 . S
C3154 C3153 1.376 . S
C3154 C3155 1.388 . S
C3155 H3142 0.930 . S
C3155 C3154 1.388 . S
C3155 C3156 1.390 . S
C3156 C3155 1.390 . S
C3156 C3157 1.394 . S
C3156 C3162 1.465 . S
C3157 C3152 1.399 . S
C3157 C3156 1.394 . S
C3157 C3158 1.516 . S
C3158 C3157 1.516 . S
C3158 C3159 1.502 . S
C3158 C3160 1.561 . S
C3158 C3161 1.526 . S
C3159 H3143 0.959 . S
C3159 H3144 0.959 . S
C3159 H3145 0.961 . S
C3159 C3158 1.502 . S
C3160 H3146 0.960 . S
C3160 H3147 0.961 . S
C3160 H3148 0.959 . S
C3160 C3158 1.561 . S
C3161 C3158 1.526 . S
C3161 C3162 1.396 . S
C3161 C3166 1.390 . S
C3162 C3156 1.465 . S
C3162 C3161 1.396 . S
C3162 C3163 1.399 . S
C3163 H3149 0.929 . S
C3163 C3162 1.399 . S
C3163 C3164 1.385 . S
C3164 H3150 0.931 . S
C3164 C3163 1.385 . S
C3164 C3165 1.389 . S
C3165 C3164 1.389 . S
C3165 C3166 1.387 . S
C3166 H3151 0.930 . S
C3166 C3161 1.390 . S
C3166 C3165 1.387 . S
H3167 C3179 0.930 . S
H3168 C3181 0.930 . S
H3169 C3182 0.930 . S
H3170 C3186 0.959 . S
H3171 C3186 0.959 . S
H3172 C3186 0.961 . S
H3173 C3187 0.960 . S
H3174 C3187 0.961 . S
H3175 C3187 0.959 . S
H3176 C3190 0.929 . S
H3177 C3191 0.931 . S
H3178 C3193 0.930 . S
C3179 H3167 0.930 . S
C3179 C3180 1.399 . S
C3179 C3184 1.399 . S
C3180 C3179 1.399 . S
C3180 C3181 1.376 . S
C3181 H3168 0.930 . S
C3181 C3180 1.376 . S
C3181 C3182 1.388 . S
C3182 H3169 0.930 . S
C3182 C3181 1.388 . S
C3182 C3183 1.390 . S
C3183 C3182 1.390 . S
C3183 C3184 1.394 . S
C3183 C3189 1.465 . S
C3184 C3179 1.399 . S
C3184 C3183 1.394 . S
C3184 C3185 1.516 . S
C3185 C3184 1.516 . S
C3185 C3186 1.502 . S
C3185 C3187 1.561 . S
C3185 C3188 1.526 . S
C3186 H3170 0.959 . S
C3186 H3171 0.959 . S
C3186 H3172 0.961 . S
C3186 C3185 1.502 . S
C3187 H3173 0.960 . S
C3187 H3174 0.961 . S
C3187 H3175 0.959 . S
C3187 C3185 1.561 . S
C3188 C3185 1.526 . S
C3188 C3189 1.396 . S
C3188 C3193 1.390 . S
C3189 C3183 1.465 . S
C3189 C3188 1.396 . S
C3189 C3190 1.399 . S
C3190 H3176 0.929 . S
C3190 C3189 1.399 . S
C3190 C3191 1.385 . S
C3191 H3177 0.931 . S
C3191 C3190 1.385 . S
C3191 C3192 1.389 . S
C3192 C3191 1.389 . S
C3192 C3193 1.387 . S
C3193 H3178 0.930 . S
C3193 C3188 1.390 . S
C3193 C3192 1.387 . S
H3194 C3206 0.930 . S
H3195 C3208 0.930 . S
H3196 C3209 0.930 . S
H3197 C3213 0.959 1_554 S
H3198 C3213 0.959 . S
H3199 C3213 0.961 . S
H3200 C3214 0.960 . S
H3201 C3214 0.961 1_556 S
H3202 C3214 0.959 . S
H3203 C3217 0.929 . S
H3204 C3218 0.931 . S
H3205 C3220 0.930 1_556 S
C3206 H3194 0.930 . S
C3206 C3207 1.399 . S
C3206 C3211 1.399 . S
C3207 C3206 1.399 . S
C3207 C3208 1.376 . S
C3208 H3195 0.930 . S
C3208 C3207 1.376 . S
C3208 C3209 1.388 . S
C3209 H3196 0.930 . S
C3209 C3208 1.388 . S
C3209 C3210 1.390 . S
C3210 C3209 1.390 . S
C3210 C3211 1.394 . S
C3210 C3216 1.465 . S
C3211 C3206 1.399 . S
C3211 C3210 1.394 . S
C3211 C3212 1.516 . S
C3212 C3211 1.516 . S
C3212 C3213 1.502 1_554 S
C3212 C3214 1.561 . S
C3212 C3215 1.526 . S
C3213 H3197 0.959 1_556 S
C3213 H3198 0.959 . S
C3213 H3199 0.961 . S
C3213 C3212 1.502 1_556 S
C3214 H3200 0.960 . S
C3214 H3201 0.961 1_554 S
C3214 H3202 0.959 . S
C3214 C3212 1.561 . S
C3215 C3212 1.526 . S
C3215 C3216 1.396 . S
C3215 C3220 1.390 . S
C3216 C3210 1.465 . S
C3216 C3215 1.396 . S
C3216 C3217 1.399 . S
C3217 H3203 0.929 . S
C3217 C3216 1.399 . S
C3217 C3218 1.385 . S
C3218 H3204 0.931 . S
C3218 C3217 1.385 . S
C3218 C3219 1.389 . S
C3219 C3218 1.389 . S
C3219 C3220 1.387 . S
C3220 H3205 0.930 1_554 S
C3220 C3215 1.390 . S
C3220 C3219 1.387 . S
H3221 C3233 0.930 . S
H3222 C3235 0.930 . S
H3223 C3236 0.930 . S
H3224 C3240 0.959 . S
H3225 C3240 0.959 . S
H3226 C3240 0.961 . S
H3227 C3241 0.960 . S
H3228 C3241 0.961 . S
H3229 C3241 0.959 . S
H3230 C3244 0.929 . S
H3231 C3245 0.931 . S
H3232 C3247 0.930 . S
C3233 H3221 0.930 . S
C3233 C3234 1.399 . S
C3233 C3238 1.399 . S
C3234 C3233 1.399 . S
C3234 C3235 1.376 1_556 S
C3235 H3222 0.930 . S
C3235 C3234 1.376 1_554 S
C3235 C3236 1.388 . S
C3236 H3223 0.930 . S
C3236 C3235 1.388 . S
C3236 C3237 1.390 1_554 S
C3237 C3236 1.390 1_556 S
C3237 C3238 1.394 . S
C3237 C3243 1.465 . S
C3238 C3233 1.399 . S
C3238 C3237 1.394 . S
C3238 C3239 1.516 . S
C3239 C3238 1.516 . S
C3239 C3240 1.502 . S
C3239 C3241 1.561 . S
C3239 C3242 1.526 . S
C3240 H3224 0.959 . S
C3240 H3225 0.959 . S
C3240 H3226 0.961 . S
C3240 C3239 1.502 . S
C3241 H3227 0.960 . S
C3241 H3228 0.961 . S
C3241 H3229 0.959 . S
C3241 C3239 1.561 . S
C3242 C3239 1.526 . S
C3242 C3243 1.396 . S
C3242 C3247 1.390 . S
C3243 C3237 1.465 . S
C3243 C3242 1.396 . S
C3243 C3244 1.399 . S
C3244 H3230 0.929 . S
C3244 C3243 1.399 . S
C3244 C3245 1.385 . S
C3245 H3231 0.931 . S
C3245 C3244 1.385 . S
C3245 C3246 1.389 . S
C3246 C3245 1.389 . S
C3246 C3247 1.387 . S
C3247 H3232 0.930 . S
C3247 C3242 1.390 . S
C3247 C3246 1.387 . S
C1101 C1022 1.734 . S
C1113 C2 1.733 . S
C1128 C36 1.732 . S
C1140 C512 1.732 . S
C1155 C70 1.738 . S
C1167 C954 1.738 . S
C1182 C104 1.732 . S
C1194 C444 1.733 . S
C1209 C886 1.734 . S
C1221 C138 1.733 . S
C1236 C376 1.738 . S
C1248 C172 1.738 . S
C1263 C206 1.732 . S
C1275 C818 1.732 . S
C1290 C308 1.732 . S
C1302 C240 1.733 . S
C1317 C750 1.738 . S
C1329 C274 1.738 . S
C1344 C682 1.732 . S
C1356 C342 1.732 . S
C1371 C410 1.734 . S
C1383 C614 1.734 . S
C1398 C546 1.738 . S
C1410 C478 1.738 . S
C1425 C1056 1.735 . S
C1437 C580 1.735 . S
C1452 C988 1.736 . S
C1464 C648 1.737 . S
C1479 C920 1.738 . S
C1491 C716 1.739 . S
C1506 C852 1.734 . S
C1518 C784 1.734 . S
C1533 C5 0.956 . S
C1545 C9 1.019 . S
C1560 C39 1.019 . S
C1572 C43 1.011 . S
C1587 C73 0.958 . S
C1599 C77 1.021 . S
C1614 C107 0.991 1_554 S
C1626 C111 1.027 . S
C1641 C141 0.957 . S
C1653 C145 1.020 . S
C1668 C175 0.973 1_556 S
C1680 C179 0.955 . S
C1695 C213 1.025 . S
C1707 C209 1.003 . S
C1722 C243 0.982 . S
C1734 C247 1.032 . S
C1749 C277 1.002 . S
C1761 C281 1.032 . S
C1776 C315 0.949 . S
C1788 C311 0.968 . S
C1803 C345 1.015 . S
C1815 C349 1.030 . S
C1830 C379 0.976 1_556 S
C1842 C383 1.027 . S
C1857 C413 1.008 . S
C1869 C417 1.032 . S
C1884 C451 0.946 . S
C1896 C447 0.970 1_554 S
C1911 C481 1.025 . S
C1923 C485 0.977 . S
C1938 C519 0.950 . S
C1950 C515 0.967 . S
C1965 C553 1.028 . S
C1977 C549 0.998 . S
C1992 C583 0.973 1_554 S
C2004 C587 0.955 . S
C2019 C621 1.025 . S
C2031 C617 0.961 . S
C2046 C655 0.948 . S
C2058 C651 1.018 . S
C2073 C689 0.957 . S
C2085 C685 0.978 . S
C2100 C723 0.971 . S
C2112 C719 1.031 . S
C2127 C757 0.949 . S
C2139 C753 0.990 . S
C2154 C791 0.998 . S
C2166 C787 0.946 1_556 S
C2181 C825 0.995 . S
C2193 C821 0.957 . S
C2208 C859 0.999 . S
C2220 C855 1.023 1_556 S
C2235 C889 1.015 . S
C2247 C893 1.030 . S
C2262 C927 0.948 . S
C2274 C923 0.971 . S
C2289 C961 0.964 . S
C2301 C957 1.016 . S
C2316 C995 0.949 . S
C2328 C991 0.968 . S
C2343 C1025 0.973 . S
C2355 C1029 0.947 . S
C2370 C1059 1.017 1_554 S
C2382 C1063 0.977 . S
C2397 C237 1.361 . S
C2409 C33 1.339 . S
C2424 C271 1.382 . S
C2436 C67 1.304 . S
C2451 C101 1.367 . S
C2463 C169 1.331 . S
C2478 C203 1.376 . S
C2490 C135 1.319 . S
C2505 C305 1.382 . S
C2517 C509 1.325 . S
C2532 C339 1.326 . S
C2544 C543 1.315 . S
C2559 C373 1.377 . S
C2571 C441 1.340 . S
C2586 C475 1.324 . S
C2598 C407 1.316 . S
C2613 C781 1.336 . S
C2625 C577 1.363 . S
C2640 C611 1.378 . S
C2652 C815 1.316 . S
C2667 C713 1.328 . S
C2679 C645 1.369 . S
C2694 C747 1.354 . S
C2706 C679 1.346 . S
C2721 C849 1.303 . S
C2733 C1053 1.343 . S
C2748 C1087 1.371 . S
C2760 C883 1.301 . S
C2775 C917 1.299 . S
C2787 C985 1.359 . S
C2802 C1019 1.341 . S
C2814 C951 1.377 . S
C2829 C20 1.672 . S
C2841 C258 1.657 . S
C2856 C156 1.639 . S
C2868 C54 1.679 . S
C2883 C88 1.677 . S
C2895 C190 1.649 . S
C2910 C122 1.660 . S
C2922 C224 1.669 . S
C2937 C292 1.672 . S
C2949 C530 1.637 . S
C2964 C428 1.678 . S
C2976 C326 1.659 . S
C2991 C360 1.676 . S
C3003 C462 1.644 . S
C3018 C394 1.649 . S
C3030 C496 1.678 . S
C3045 C802 1.629 . S
C3057 C564 1.672 . S
C3072 C700 1.637 . S
C3084 C598 1.649 . S
C3099 C734 1.676 . S
C3111 C632 1.633 . S
C3126 C666 1.659 . S
C3138 C768 1.632 . S
C3153 C836 1.676 . S
C3165 C1074 1.643 . S
C3180 C870 1.654 . S
C3192 C972 1.629 . S
C3207 C1006 1.665 . S
C3219 C904 1.632 . S
C3234 C1040 1.671 . S
C3246 C938 1.636 . S
