# Generated by pormake.
# Topology smc, (6)-cn, num edge types: 1
# Building blocks:
#     Node 0, Type 0, BuildingBlock: GEDQOX_clean_sbu_0, # of connection points: 6
#     Node 1, Type 0, BuildingBlock: GEDQOX_clean_sbu_0, # of connection points: 6
#     Node 2, Type 0, BuildingBlock: GEDQOX_clean_sbu_0, # of connection points: 6
#     Node 3, Type 0, BuildingBlock: GEDQOX_clean_sbu_0, # of connection points: 6
#     Node 4, Type 0, BuildingBlock: GEDQOX_clean_sbu_0, # of connection points: 6
#     Node 5, Type 0, BuildingBlock: GEDQOX_clean_sbu_0, # of connection points: 6
#     Node 6, Type 0, BuildingBlock: GEDQOX_clean_sbu_0, # of connection points: 6
#     Node 7, Type 0, BuildingBlock: GEDQOX_clean_sbu_0, # of connection points: 6
#     Node 8, Type 0, BuildingBlock: GEDQOX_clean_sbu_0, # of connection points: 6
#     Edge 9, Type (0, 0), BuildingBlock: UVAHIK_clean_linker_0, # of connection points: 2
#     Edge 10, Type (0, 0), BuildingBlock: UVAHIK_clean_linker_0, # of connection points: 2
#     Edge 11, Type (0, 0), BuildingBlock: UVAHIK_clean_linker_0, # of connection points: 2
#     Edge 12, Type (0, 0), BuildingBlock: UVAHIK_clean_linker_0, # of connection points: 2
#     Edge 13, Type (0, 0), BuildingBlock: UVAHIK_clean_linker_0, # of connection points: 2
#     Edge 14, Type (0, 0), BuildingBlock: UVAHIK_clean_linker_0, # of connection points: 2
#     Edge 15, Type (0, 0), BuildingBlock: UVAHIK_clean_linker_0, # of connection points: 2
#     Edge 16, Type (0, 0), BuildingBlock: UVAHIK_clean_linker_0, # of connection points: 2
#     Edge 17, Type (0, 0), BuildingBlock: UVAHIK_clean_linker_0, # of connection points: 2
#     Edge 18, Type (0, 0), BuildingBlock: UVAHIK_clean_linker_0, # of connection points: 2
#     Edge 19, Type (0, 0), BuildingBlock: UVAHIK_clean_linker_0, # of connection points: 2
#     Edge 20, Type (0, 0), BuildingBlock: UVAHIK_clean_linker_0, # of connection points: 2
#     Edge 21, Type (0, 0), BuildingBlock: UVAHIK_clean_linker_0, # of connection points: 2
#     Edge 22, Type (0, 0), BuildingBlock: UVAHIK_clean_linker_0, # of connection points: 2
#     Edge 23, Type (0, 0), BuildingBlock: UVAHIK_clean_linker_0, # of connection points: 2
#     Edge 24, Type (0, 0), BuildingBlock: UVAHIK_clean_linker_0, # of connection points: 2
#     Edge 25, Type (0, 0), BuildingBlock: UVAHIK_clean_linker_0, # of connection points: 2
#     Edge 26, Type (0, 0), BuildingBlock: UVAHIK_clean_linker_0, # of connection points: 2
#     Edge 27, Type (0, 0), BuildingBlock: UVAHIK_clean_linker_0, # of connection points: 2
#     Edge 28, Type (0, 0), BuildingBlock: UVAHIK_clean_linker_0, # of connection points: 2
#     Edge 29, Type (0, 0), BuildingBlock: UVAHIK_clean_linker_0, # of connection points: 2
#     Edge 30, Type (0, 0), BuildingBlock: UVAHIK_clean_linker_0, # of connection points: 2
#     Edge 31, Type (0, 0), BuildingBlock: UVAHIK_clean_linker_0, # of connection points: 2
#     Edge 32, Type (0, 0), BuildingBlock: UVAHIK_clean_linker_0, # of connection points: 2
#     Edge 33, Type (0, 0), BuildingBlock: UVAHIK_clean_linker_0, # of connection points: 2
#     Edge 34, Type (0, 0), BuildingBlock: UVAHIK_clean_linker_0, # of connection points: 2
#     Edge 35, Type (0, 0), BuildingBlock: UVAHIK_clean_linker_0, # of connection points: 2
# Relax obj value: 0.153
# Max RMSD: 0.294
# Mean RMSD: 0.294
data_MOF--net-smc--node1-GEDQOX_clean_sbu_0--edge1-UVAHIK_clean_linker_0
_symmetry_space_group_name_H-M    P1
_symmetry_Int_Tables_number       1
_symmetry_cell_setting            triclinic
loop_
_symmetry_equiv_pos_as_xyz
'x, y, z'
_cell_length_a     48.880993
_cell_length_b     48.62343
_cell_length_c     50.985501
_cell_angle_alpha  89.991394
_cell_angle_beta   89.973128
_cell_angle_gamma 120.07373
loop_
_atom_site_label
_atom_site_type_symbol
_atom_site_fract_x
_atom_site_fract_y
_atom_site_fract_z
_atom_type_partial_charge
Nd0 Nd 0.04299 0.42932 0.03002 0.0
Nd1 Nd 0.99439 0.45532 0.03221 0.0
C2 C 0.08538 0.41297 0.04295 0.0
C3 C 0.12031 0.42811 0.04118 0.0
C4 C 0.13959 0.44496 0.06259 0.0
C5 C 0.17255 0.45949 0.06081 0.0
C6 C 0.187 0.45737 0.03762 0.0
C7 C 0.16766 0.44041 1.01627 0.0
C8 C 0.13477 0.42589 1.01805 0.0
C9 C 0.02066 0.42854 0.98013 0.0
C10 C 0.07059 0.5053 1.02059 0.0
C11 C 0.9617 0.4846 1.02525 0.0
C12 C 0.93278 0.48656 0.0292 0.0
C13 C 0.91609 0.48715 1.00705 0.0
C14 C 0.89171 0.49405 1.00948 0.0
C15 C 0.88345 0.5006 0.03417 0.0
C16 C 0.89942 0.49885 0.05652 0.0
C17 C 0.9239 0.49194 0.05406 0.0
C18 C 0.01293 0.44194 0.07926 0.0
C19 C 0.9655 0.37991 0.0328 0.0
O20 O 0.07403 0.42515 0.05961 0.0
O21 O 0.06964 0.40469 1.02089 0.0
O22 O 0.04214 0.42118 0.98543 0.0
O23 O 0.01368 0.43796 1.0008 0.0
O24 O 0.07795 0.48291 1.02496 0.0
O25 O 0.04106 0.4993 1.02025 0.0
O26 O 0.9607 0.46334 1.00886 0.0
O27 O 0.98077 0.49025 0.04513 0.0
O28 O 0.98424 0.43613 0.07498 0.0
O29 O 0.03008 0.45501 0.05952 0.0
O30 O 0.96076 0.40315 1.02528 0.0
O31 O 0.99383 0.38475 0.04001 0.0
H32 H 0.12922 0.44689 0.08079 0.0
H33 H 0.18667 0.47198 0.07776 0.0
H34 H 0.17796 0.43861 0.99799 0.0
H35 H 0.12071 0.41302 1.00118 0.0
H36 H 0.92279 0.48361 0.98762 0.0
H37 H 0.88035 0.49567 0.99179 0.0
H38 H 0.89337 0.50337 0.07586 0.0
H39 H 0.93646 0.4918 0.07151 0.0
Nd40 Nd 0.59675 0.61562 1.0258 0.0
Nd41 Nd 0.56684 0.54642 0.0372 0.0
C42 C 0.62078 0.67789 0.02667 0.0
C43 C 0.60635 0.69834 1.02423 0.0
C44 C 0.5827 0.69515 0.0418 0.0
C45 C 0.56875 0.71402 0.0392 0.0
C46 C 0.57784 0.73647 1.01885 0.0
C47 C 0.60149 0.73962 1.00125 0.0
C48 C 0.61561 0.7208 1.00396 0.0
C49 C 0.58303 0.58024 0.97998 0.0
C50 C 0.52095 0.5725 1.02434 0.0
C51 C 0.54304 0.48461 0.04433 0.0
C52 C 0.54082 0.45327 0.04126 0.0
C53 C 0.53622 0.4385 1.01667 0.0
C54 C 0.52909 0.40677 1.01493 0.0
C55 C 0.52622 0.3891 0.03773 0.0
C56 C 0.53182 0.40442 0.06219 0.0
C57 C 0.53904 0.43605 0.06389 0.0
C58 C 0.57309 0.58499 0.07985 0.0
C59 C 0.64354 0.58596 0.03059 0.0
O60 O 0.61352 0.66036 0.04779 0.0
O61 O 0.62113 0.66267 1.00563 0.0
O62 O 0.57623 0.60247 0.98415 0.0
O63 O 0.59341 0.57515 1.00105 0.0
O64 O 0.54416 0.59977 0.03319 0.0
O65 O 0.52641 0.54946 1.01828 0.0
O66 O 0.53523 0.49668 1.02469 0.0
O67 O 0.56432 0.50601 0.05994 0.0
O68 O 0.54739 0.55851 0.07503 0.0
O69 O 0.59315 0.5897 0.06265 0.0
O70 O 0.61764 0.55775 0.03092 0.0
O71 O 0.6425 0.6127 0.0302 0.0
H72 H 0.57484 0.67802 0.05766 0.0
H73 H 0.55107 0.71123 0.05341 0.0
H74 H 0.60882 0.75633 0.98513 0.0
H75 H 0.63364 0.72364 0.99007 0.0
H76 H 0.53726 0.45112 0.99885 0.0
H77 H 0.52542 0.39597 0.99572 0.0
H78 H 0.52936 0.39162 0.08023 0.0
H79 H 0.54193 0.44668 0.08312 0.0
Nd80 Nd 0.41393 0.98382 1.02545 0.0
Nd81 Nd 0.48228 0.02756 0.0333 0.0
C82 C 0.35198 0.9448 0.02771 0.0
C83 C 0.33102 0.90992 0.02824 0.0
C84 C 0.34007 0.89004 0.04088 0.0
C85 C 0.32057 0.85692 0.03995 0.0
C86 C 0.29171 0.84293 1.02615 0.0
C87 C 0.28291 0.86309 1.01347 0.0
C88 C 0.3023 0.89616 1.01457 0.0
C89 C 0.44474 1.00993 0.97886 0.0
C90 C 0.45829 0.95354 1.01911 0.0
C91 C 0.54507 0.05941 0.03243 0.0
C92 C 0.57621 0.0889 0.03495 0.0
C93 C 0.59513 0.10158 1.01252 0.0
C94 C 0.6266 0.12592 1.01463 0.0
C95 C 0.64013 0.1383 0.0393 0.0
C96 C 0.62081 0.12634 0.06172 0.0
C97 C 0.58924 0.10185 0.05959 0.0
C98 C 0.44814 1.00205 0.07877 0.0
C99 C 0.44109 0.06095 0.03721 0.0
O100 O 0.36944 0.95818 0.04845 0.0
O101 O 0.36736 0.95647 1.00582 0.0
O102 O 0.42488 0.97994 0.98247 0.0
O103 O 0.44958 0.02488 1.00028 0.0
O104 O 0.42992 0.94677 0.02694 0.0
O105 O 0.4806 0.98327 1.01573 0.0
O106 O 0.52765 0.05555 1.01176 0.0
O107 O 0.52843 0.04587 0.05348 0.0
O108 O 0.46879 0.03196 0.07598 0.0
O109 O 0.44583 0.987 0.05802 0.0
O110 O 0.46988 0.06627 0.03309 0.0
O111 O 0.41612 0.03169 0.03728 0.0
H112 H 0.36234 0.90009 0.05132 0.0
H113 H 0.32807 0.84232 0.0502 0.0
H114 H 0.26128 0.85337 1.00219 0.0
H115 H 0.29508 0.91102 1.00436 0.0
H116 H 0.58599 0.09171 0.99332 0.0
H117 H 0.6407 0.13399 0.99693 0.0
H118 H 0.63021 0.13554 0.08101 0.0
H119 H 0.57542 0.09242 0.07732 0.0
Nd120 Nd 0.70378 0.76577 0.36044 0.0
Nd121 Nd 0.65931 0.78872 0.37124 0.0
C122 C 0.74383 0.74401 0.36037 0.0
C123 C 0.77894 0.759 0.35996 0.0
C124 C 0.79603 0.76415 0.3834 0.0
C125 C 0.82907 0.77853 0.38304 0.0
C126 C 0.84593 0.78812 0.35924 0.0
C127 C 0.82882 0.78291 0.33581 0.0
C128 C 0.7958 0.76845 0.33615 0.0
C129 C 0.67843 0.77422 0.31472 0.0
C130 C 0.73347 0.84141 0.36015 0.0
C131 C 0.62668 0.8187 0.37519 0.0
C132 C 0.59868 0.82281 0.37315 0.0
C133 C 0.58707 0.8259 0.34877 0.0
C134 C 0.56409 0.83508 0.34746 0.0
C135 C 0.55244 0.84165 0.37049 0.0
C136 C 0.56335 0.83744 0.39484 0.0
C137 C 0.58619 0.82819 0.39613 0.0
C138 C 0.68425 0.77639 0.41538 0.0
C139 C 0.62733 0.71423 0.3673 0.0
O140 O 0.7309 0.74722 0.38177 0.0
O141 O 0.73037 0.74677 0.33918 0.0
O142 O 0.7082 0.7841 0.3184 0.0
O143 O 0.6633 0.76243 0.33577 0.0
O144 O 0.74054 0.81885 0.36347 0.0
O145 O 0.70387 0.83469 0.35918 0.0
O146 O 0.64214 0.81929 0.35404 0.0
O147 O 0.62823 0.80128 0.39401 0.0
O148 O 0.65469 0.76796 0.41286 0.0
O149 O 0.69951 0.79109 0.39526 0.0
O150 O 0.62271 0.73801 0.36174 0.0
O151 O 0.65633 0.71915 0.3714 0.0
H152 H 0.78387 0.75715 0.40209 0.0
H153 H 0.84145 0.78241 0.40149 0.0
H154 H 0.84092 0.7895 0.31709 0.0
H155 H 0.7835 0.76466 0.31767 0.0
H156 H 0.59648 0.82231 0.33068 0.0
H157 H 0.55642 0.8383 0.32836 0.0
H158 H 0.55458 0.84178 0.41297 0.0
H159 H 0.59496 0.82638 0.4152 0.0
Nd160 Nd 0.25922 0.95014 0.35626 0.0
Nd161 Nd 0.23313 0.87915 0.36678 0.0
C162 C 0.28155 0.01173 0.36345 0.0
C163 C 0.26876 0.0332 0.36745 0.0
C164 C 0.24289 0.0253 0.38404 0.0
C165 C 0.22937 0.04481 0.38517 0.0
C166 C 0.24123 0.07236 0.36951 0.0
C167 C 0.26737 0.08016 0.35318 0.0
C168 C 0.28101 0.06091 0.35229 0.0
C169 C 0.25919 0.92438 0.30847 0.0
C170 C 0.1824 0.90445 0.3579 0.0
C171 C 0.20182 0.8163 0.36996 0.0
C172 C 0.20044 0.7854 0.36665 0.0
C173 C 0.17977 0.76381 0.34796 0.0
C174 C 0.17364 0.73249 0.34745 0.0
C175 C 0.18795 0.72196 0.36574 0.0
C176 C 0.20965 0.74397 0.38378 0.0
C177 C 0.21579 0.77535 0.38428 0.0
C178 C 0.25119 0.91798 0.41013 0.0
C179 C 0.30685 0.92015 0.35788 0.0
O180 O 0.27899 0.99248 0.38249 0.0
O181 O 0.27572 0.99821 0.34046 0.0
O182 O 0.2661 0.95341 0.3122 0.0
O183 O 0.24981 0.90825 0.32955 0.0
O184 O 0.20591 0.93385 0.35435 0.0
O185 O 0.1874 0.88069 0.36263 0.0
O186 O 0.20128 0.83174 0.34911 0.0
O187 O 0.21887 0.83498 0.38904 0.0
O188 O 0.25807 0.89565 0.40691 0.0
O189 O 0.23553 0.91901 0.3909 0.0
O190 O 0.2819 0.89226 0.35305 0.0
O191 O 0.30399 0.9452 0.36416 0.0
H192 H 0.23274 1.00381 0.3957 0.0
H193 H 0.20952 0.03818 0.39819 0.0
H194 H 0.27681 0.10067 0.34037 0.0
H195 H 0.30063 0.06718 0.33905 0.0
H196 H 0.1672 0.77073 0.33444 0.0
H197 H 0.1565 0.71615 0.3335 0.0
H198 H 0.22144 0.73679 0.39789 0.0
H199 H 0.2317 0.79133 0.39908 0.0
Nd200 Nd 0.07595 0.3184 0.36091 0.0
Nd201 Nd 0.14442 0.36263 0.36781 0.0
C202 C 0.01419 0.27965 0.3638 0.0
C203 C 0.99376 0.24467 0.36324 0.0
C204 C 0.97423 0.22877 0.38473 0.0
C205 C 0.95531 0.19563 0.38469 0.0
C206 C 0.95552 0.1777 0.3631 0.0
C207 C 0.9752 0.19367 0.34164 0.0
C208 C 0.99414 0.22675 0.34171 0.0
C209 C 0.1059 0.34284 0.31368 0.0
C210 C 0.12017 0.28773 0.35632 0.0
C211 C 0.20716 0.39455 0.36642 0.0
C212 C 0.2384 0.42406 0.36757 0.0
C213 C 0.25739 0.43421 0.34499 0.0
C214 C 0.28902 0.45836 0.34639 0.0
C215 C 0.30258 0.47297 0.37047 0.0
C216 C 0.28319 0.46364 0.39293 0.0
C217 C 0.25148 0.4394 0.39152 0.0
C218 C 0.11076 0.33929 0.41385 0.0
C219 C 0.10255 0.39521 0.37055 0.0
O220 O 0.03203 0.29171 0.38453 0.0
O221 O 0.02888 0.29334 0.34207 0.0
O222 O 0.08639 0.31292 0.31809 0.0
O223 O 0.11113 0.3585 0.33476 0.0
O224 O 0.09161 0.28121 0.36328 0.0
O225 O 0.14268 0.31733 0.35259 0.0
O226 O 0.18958 0.38843 0.34548 0.0
O227 O 0.19073 0.38338 0.38796 0.0
O228 O 0.13226 0.36885 0.41049 0.0
O229 O 0.10823 0.32336 0.39359 0.0
O230 O 0.1311 0.40071 0.36489 0.0
O231 O 0.07815 0.36592 0.37292 0.0
H232 H 0.97373 0.242 0.40165 0.0
H233 H 0.94072 0.18403 0.40167 0.0
H234 H 0.97562 0.18063 0.32457 0.0
H235 H 1.00905 0.23822 0.32485 0.0
H236 H 0.24818 0.42245 0.32636 0.0
H237 H 0.30321 0.46449 0.32873 0.0
H238 H 0.29267 0.47466 0.41174 0.0
H239 H 0.23759 0.43198 0.40937 0.0
Nd240 Nd 0.37453 0.09901 0.69272 0.0
Nd241 Nd 0.32891 0.12136 0.70094 0.0
C242 C 0.41438 0.07709 0.69449 0.0
C243 C 0.44932 0.09157 0.69465 0.0
C244 C 0.4675 0.10745 0.71686 0.0
C245 C 0.5005 0.12149 0.71636 0.0
C246 C 0.51616 0.12002 0.69366 0.0
C247 C 0.49786 0.1041 0.67151 0.0
C248 C 0.46492 0.08995 0.67206 0.0
C249 C 0.34982 0.10572 0.64603 0.0
C250 C 0.40329 0.1744 0.69082 0.0
C251 C 0.29555 0.15078 0.70132 0.0
C252 C 0.266 0.15232 0.70034 0.0
C253 C 0.25492 0.15751 0.67645 0.0
C254 C 0.23094 0.16532 0.67609 0.0
C255 C 0.21771 0.16843 0.69964 0.0
C256 C 0.22781 0.1618 0.72342 0.0
C257 C 0.25169 0.15393 0.72378 0.0
C258 C 0.3528 0.11051 0.74636 0.0
C259 C 0.29817 0.04683 0.70073 0.0
O260 O 0.40096 0.08077 0.71537 0.0
O261 O 0.40185 0.07993 0.67277 0.0
O262 O 0.37964 0.11633 0.65027 0.0
O263 O 0.33428 0.09403 0.66694 0.0
O264 O 0.41067 0.1523 0.69567 0.0
O265 O 0.37361 0.16706 0.68837 0.0
O266 O 0.30696 0.14556 0.67987 0.0
O267 O 0.30204 0.13985 0.7224 0.0
O268 O 0.32322 0.10175 0.7431 0.0
O269 O 0.36859 0.12483 0.7263 0.0
O270 O 0.29243 0.06976 0.6948 0.0
O271 O 0.3275 0.05244 0.70413 0.0
H272 H 0.4563 0.10909 0.73466 0.0
H273 H 0.51369 0.13312 0.73392 0.0
H274 H 0.50901 0.10284 0.65354 0.0
H275 H 0.45162 0.0779 0.65463 0.0
H276 H 0.26576 0.15698 0.65806 0.0
H277 H 0.22392 0.17049 0.65743 0.0
H278 H 0.21779 0.16345 0.7419 0.0
H279 H 0.25988 0.15048 0.74256 0.0
Nd280 Nd 0.92857 0.28244 0.69066 0.0
Nd281 Nd 0.8977 0.21342 0.70149 0.0
C282 C 0.95387 0.34491 0.69287 0.0
C283 C 0.9416 0.3669 0.68894 0.0
C284 C 0.94993 0.39177 0.7068 0.0
C285 C 0.93632 0.41108 0.70513 0.0
C286 C 0.91403 0.40601 0.68547 0.0
C287 C 0.90593 0.38117 0.66741 0.0
C288 C 0.91948 0.36174 0.66918 0.0
C289 C 0.91512 0.2481 0.64474 0.0
C290 C 0.85252 0.23984 0.68706 0.0
C291 C 0.8726 0.15131 0.70772 0.0
C292 C 0.87169 0.12052 0.70575 0.0
C293 C 0.87283 0.10738 0.68151 0.0
C294 C 0.86681 0.076 0.68011 0.0
C295 C 0.85934 0.05712 0.70288 0.0
C296 C 0.85928 0.07087 0.72715 0.0
C297 C 0.86541 0.10215 0.72853 0.0
C298 C 0.90247 0.2515 0.74399 0.0
C299 C 0.97456 0.25179 0.69906 0.0
O300 O 0.94243 0.32634 0.7133 0.0
O301 O 0.95632 0.33018 0.67227 0.0
O302 O 0.90849 0.27045 0.64909 0.0
O303 O 0.92546 0.24224 0.66556 0.0
O304 O 0.87557 0.26704 0.69622 0.0
O305 O 0.85805 0.21676 0.6815 0.0
O306 O 0.86864 0.16423 0.68659 0.0
O307 O 0.89063 0.172 0.72536 0.0
O308 O 0.87662 0.22547 0.73833 0.0
O309 O 0.92324 0.2561 0.72752 0.0
O310 O 0.94852 0.22388 0.70077 0.0
O311 O 0.97387 0.27847 0.69526 0.0
H312 H 0.96647 0.39581 0.7225 0.0
H313 H 0.94272 0.42952 0.7197 0.0
H314 H 0.88914 0.37674 0.65186 0.0
H315 H 0.91227 0.34238 0.65538 0.0
H316 H 0.87748 0.12097 0.66358 0.0
H317 H 0.86755 0.0664 0.66113 0.0
H318 H 0.85314 0.05708 0.74507 0.0
H319 H 0.86389 0.11155 0.74741 0.0
Nd320 Nd 0.74688 0.65225 0.69234 0.0
Nd321 Nd 0.81403 0.69632 0.70315 0.0
C322 C 0.68489 0.61363 0.69187 0.0
C323 C 0.66407 0.57863 0.69169 0.0
C324 C 0.64299 0.56347 0.71252 0.0
C325 C 0.62354 0.53037 0.71281 0.0
C326 C 0.62474 0.51171 0.69223 0.0
C327 C 0.64592 0.52694 0.67142 0.0
C328 C 0.66538 0.55999 0.67115 0.0
C329 C 0.78045 0.67859 0.64684 0.0
C330 C 0.79175 0.62166 0.69149 0.0
C331 C 0.87671 0.72853 0.70497 0.0
C332 C 0.90782 0.75806 0.70307 0.0
C333 C 0.92824 0.76146 0.68237 0.0
C334 C 0.95971 0.78608 0.68245 0.0
C335 C 0.97164 0.80788 0.70334 0.0
C336 C 0.95085 0.80518 0.7236 0.0
C337 C 0.9193 0.7805 0.72351 0.0
C338 C 0.77737 0.67152 0.7476 0.0
C339 C 0.77251 0.72905 0.70198 0.0
O340 O 0.70088 0.6262 0.71337 0.0
O341 O 0.70159 0.62663 0.67076 0.0
O342 O 0.76107 0.64847 0.65035 0.0
O343 O 0.7838 0.6935 0.66806 0.0
O344 O 0.76219 0.61455 0.69487 0.0
O345 O 0.81463 0.65144 0.69062 0.0
O346 O 0.86076 0.71538 0.68353 0.0
O347 O 0.85867 0.72419 0.72529 0.0
O348 O 0.79945 0.70096 0.74521 0.0
O349 O 0.77593 0.65598 0.72732 0.0
O350 O 0.80127 0.73447 0.69761 0.0
O351 O 0.74801 0.69968 0.70355 0.0
H352 H 0.64167 0.57724 0.72868 0.0
H353 H 0.60779 0.51937 0.7293 0.0
H354 H 0.64716 0.51337 0.65509 0.0
H355 H 0.68142 0.57086 0.6548 0.0
H356 H 0.92026 0.74421 0.66661 0.0
H357 H 0.97505 0.7871 0.66669 0.0
H358 H 0.9591 0.82182 0.7398 0.0
H359 H 0.90427 0.77841 0.7399 0.0
C360 C 0.47905 0.58674 0.03451 0.0
C361 C 0.488 0.56621 1.02288 0.0
C362 C 0.44719 0.57875 0.03488 0.0
C363 C 0.36965 0.52552 1.00325 0.0
H364 H 0.33398 0.53412 0.06857 0.0
C365 C 0.23574 0.45676 1.02273 0.0
C366 C 0.22205 0.47245 0.03569 0.0
C367 C 0.26855 0.47091 1.02054 0.0
C368 C 0.34363 0.53195 0.05007 0.0
H369 H 0.47058 0.52166 1.00189 0.0
H370 H 0.41559 0.50786 1.00264 0.0
H371 H 0.39091 0.55508 0.06517 0.0
H372 H 0.23238 0.51554 0.05645 0.0
H373 H 0.28977 0.54018 0.05274 0.0
H374 H 0.32243 0.50192 0.98825 0.0
C375 C 0.43298 0.53022 1.0113 0.0
C376 C 0.37629 0.54403 0.04811 0.0
C377 C 0.46461 0.53808 1.01103 0.0
C378 C 0.24211 0.5026 0.04661 0.0
C379 C 0.27501 0.51676 0.04446 0.0
C380 C 0.33708 0.51344 1.00522 0.0
C381 C 0.42375 0.55024 1.02343 0.0
C382 C 0.38961 0.54045 1.0248 0.0
C383 C 0.28862 0.50113 0.03128 0.0
C384 C 0.32357 0.516 0.02878 0.0
H385 H 0.49649 0.60855 0.04385 0.0
H386 H 0.44088 0.59482 0.0442 0.0
H387 H 0.37918 0.52289 0.98484 0.0
H388 H 0.22109 0.43327 1.01453 0.0
H389 H 0.27822 0.45791 1.01072 0.0
C390 C 0.44511 0.89638 1.02208 0.0
C391 C 0.46643 0.92819 1.01545 0.0
C392 C 0.45426 0.8733 1.02035 0.0
C393 C 0.51555 0.85841 0.99093 0.0
H394 H 0.49371 0.79829 0.04802 0.0
C395 C 0.58088 0.78873 1.00881 0.0
C396 C 0.56286 0.75662 1.01628 0.0
C397 C 0.56702 0.80782 1.00715 0.0
C398 C 0.49969 0.81465 0.03174 0.0
H399 H 0.5139 0.96046 1.00126 0.0
H400 H 0.52976 0.92069 0.99856 0.0
H401 H 0.47256 0.83434 0.04747 0.0
H402 H 0.51571 0.71935 0.02716 0.0
H403 H 0.49176 0.75282 1.02461 0.0
H404 H 0.54322 0.8392 0.97551 0.0
C405 C 0.50585 0.91327 1.00477 0.0
C406 C 0.48749 0.83528 0.03139 0.0
C407 C 0.49676 0.93621 1.0065 0.0
C408 C 0.53052 0.7441 1.02182 0.0
C409 C 0.51672 0.76326 1.02031 0.0
C410 C 0.52783 0.83791 0.99135 0.0
C411 C 0.48488 0.88155 1.01185 0.0
C412 C 0.49561 0.85774 1.01115 0.0
C413 C 0.53482 0.79538 1.01302 0.0
C414 C 0.52038 0.81604 1.01192 0.0
H415 H 0.42157 0.8894 0.02906 0.0
H416 H 0.43739 0.84903 1.02571 0.0
H417 H 0.52183 0.87495 0.97475 0.0
H418 H 0.60592 0.79939 1.00481 0.0
H419 H 0.58176 0.8326 1.00184 0.0
C420 C 0.28388 0.78745 1.023 0.0
C421 C 0.27093 0.80757 1.02474 0.0
C422 C 0.26425 0.75439 1.02111 0.0
C423 C 0.18399 0.69327 1.00098 0.0
H424 H 0.19806 0.63576 0.04401 0.0
C425 C 0.08773 0.56278 1.01426 0.0
C426 C 0.09598 0.53909 1.01742 0.0
C427 C 0.11084 0.59487 1.01326 0.0
C428 C 0.19406 0.65138 0.03148 0.0
H429 H 0.22681 0.80808 0.02667 0.0
H430 H 0.19285 0.75079 1.02281 0.0
H431 H 0.23503 0.69296 0.04628 0.0
H432 H 0.1355 0.53093 1.02147 0.0
H433 H 0.17615 0.58723 1.01909 0.0
H434 H 0.1433 0.65206 0.98598 0.0
C435 C 0.21824 0.76065 1.02262 0.0
C436 C 0.21523 0.68422 0.03288 0.0
C437 C 0.23779 0.79359 1.02476 0.0
C438 C 0.12824 0.54847 1.01899 0.0
C439 C 0.15154 0.5808 1.01785 0.0
C440 C 0.16306 0.66053 0.99939 0.0
C441 C 0.23119 0.74063 1.02065 0.0
C442 C 0.21008 0.70559 1.018 0.0
C443 C 0.1431 0.60447 1.01513 0.0
C444 C 0.16737 0.63911 1.01501 0.0
H445 H 0.30924 0.79722 1.02253 0.0
H446 H 0.27498 0.73964 1.01941 0.0
H447 H 0.1797 0.70902 0.98885 0.0
H448 H 0.0632 0.55672 1.01313 0.0
H449 H 0.10321 0.61222 1.01172 0.0
C450 C 0.45684 0.11071 0.06121 0.0
C451 C 0.43817 0.08932 0.04158 0.0
C452 C 0.4626 0.14186 0.06131 0.0
C453 C 0.44006 0.1981 0.03341 0.0
H454 H 0.52899 0.25873 0.04412 0.0
C455 C 0.49301 0.33421 1.01831 0.0
C456 C 0.51619 0.35457 0.03633 0.0
C457 C 0.48233 0.30152 1.01814 0.0
C458 C 0.504 0.24226 0.04142 0.0
H459 H 0.40982 0.08316 1.00716 0.0
H460 H 0.41971 0.138 1.00731 0.0
H461 H 0.51032 0.20221 0.04678 0.0
H462 H 0.54679 0.35621 0.06784 0.0
H463 H 0.52762 0.2995 0.06809 0.0
H464 H 0.4338 0.23839 0.02827 0.0
C465 C 0.42957 0.13048 1.02288 0.0
C466 C 0.49325 0.20973 0.04294 0.0
C467 C 0.42366 0.09904 1.02289 0.0
C468 C 0.52866 0.34135 0.05388 0.0
C469 C 0.5179 0.30873 0.0538 0.0
C470 C 0.45082 0.23081 0.03204 0.0
C471 C 0.45018 0.15258 0.04151 0.0
C472 C 0.46111 0.18719 0.03927 0.0
C473 C 0.4945 0.28827 0.03599 0.0
C474 C 0.48293 0.25336 0.03629 0.0
H475 H 0.46857 0.10382 0.07565 0.0
H476 H 0.47799 0.158 0.07628 0.0
H477 H 0.41516 0.18138 0.03049 0.0
H478 H 0.48253 0.34337 1.00469 0.0
H479 H 0.46459 0.28666 1.00392 0.0
C480 C 0.68977 0.18559 1.02196 0.0
C481 C 0.67459 0.16225 0.04145 0.0
C482 C 0.7225 0.20607 1.02251 0.0
C483 C 0.79305 0.24104 0.06473 0.0
H484 H 0.8372 0.25303 0.99879 0.0
C485 C 0.92882 0.32768 0.05492 0.0
C486 C 0.93706 0.3479 0.03307 0.0
C487 C 0.8983 0.30089 0.05688 0.0
C488 C 0.8253 0.25012 1.01738 0.0
H489 H 0.68235 0.14305 0.07733 0.0
H490 H 0.73945 0.17944 0.07855 0.0
H491 H 0.78049 0.21641 1.00107 0.0
H492 H 0.92061 0.35519 0.9957 0.0
H493 H 0.86831 0.30915 0.99887 0.0
H494 H 0.8378 0.27573 0.08079 0.0
C495 C 0.72583 0.18166 0.06279 0.0
C496 C 0.79273 0.22911 1.01865 0.0
C497 C 0.69303 0.1609 0.06212 0.0
C498 C 0.91504 0.33994 1.0127 0.0
C499 C 0.88494 0.31334 1.01451 0.0
C500 C 0.82573 0.26239 0.0634 0.0
C501 C 0.74101 0.20405 0.04269 0.0
C502 C 0.77607 0.22479 0.04217 0.0
C503 C 0.87577 0.2938 0.03686 0.0
C504 C 0.84216 0.26775 0.03952 0.0
H505 H 0.67639 0.18795 1.00608 0.0
H506 H 0.73339 0.22353 1.00703 0.0
H507 H 0.78086 0.23822 0.08315 0.0
H508 H 0.9452 0.33356 0.07108 0.0
H509 H 0.8921 0.28621 0.07429 0.0
C510 C 0.83274 0.49747 1.01993 0.0
C511 C 0.85965 0.51109 0.03611 0.0
C512 C 0.81212 0.5095 1.01966 0.0
C513 C 0.78646 0.55778 0.05672 0.0
H514 H 0.75673 0.56667 0.98846 0.0
C515 C 0.70008 0.60636 0.04364 0.0
C516 C 0.67374 0.58634 0.02822 0.0
C517 C 0.72655 0.60226 0.04404 0.0
C518 C 0.76483 0.56435 1.00767 0.0
H519 H 0.88536 0.5476 0.06529 0.0
H520 H 0.84901 0.5683 0.06506 0.0
H521 H 0.79426 0.54771 0.99149 0.0
H522 H 0.65483 0.54779 1.00008 0.0
H523 H 0.70074 0.54097 1.00041 0.0
H524 H 0.75632 0.57378 0.07287 0.0
C525 C 0.84394 0.54825 0.0526 0.0
C526 C 0.7862 0.55334 1.00942 0.0
C527 C 0.8647 0.53628 0.0528 0.0
C528 C 0.67486 0.56347 1.01221 0.0
C529 C 0.70126 0.5597 1.01229 0.0
C530 C 0.76497 0.5688 0.05497 0.0
C531 C 0.81778 0.5354 0.03562 0.0
C532 C 0.79675 0.54925 0.03397 0.0
C533 C 0.72715 0.57851 0.02861 0.0
C534 C 0.7534 0.57153 0.03043 0.0
H535 H 0.82776 0.47764 1.00723 0.0
H536 H 0.79175 0.49857 1.00681 0.0
H537 H 0.79407 0.55479 0.07593 0.0
H538 H 0.69957 0.624 0.05629 0.0
H539 H 0.74627 0.61721 0.0567 0.0
C540 C 0.89614 0.79085 0.37481 0.0
C541 C 0.8811 0.80281 0.35876 0.0
C542 C 0.92896 0.80382 0.37383 0.0
C543 C 1.00408 0.87505 0.35474 0.0
H544 H 0.03531 0.81589 0.3538 0.0
C545 C 0.13855 0.91489 0.34403 0.0
C546 C 0.14892 0.89693 0.35807 0.0
C547 C 0.10615 0.90526 0.34313 0.0
C548 C 0.02716 0.83288 0.35442 0.0
H549 H 0.88918 0.83853 0.32952 0.0
H550 H 0.94655 0.86111 0.32777 0.0
H551 H 0.97874 0.79577 0.35462 0.0
H552 H 0.13363 0.85598 0.3835 0.0
H553 H 0.07823 0.84007 0.38268 0.0
H554 H 0.05272 0.91222 0.35504 0.0
C555 C 0.93283 0.84165 0.34113 0.0
C556 C 0.99459 0.82125 0.35482 0.0
C557 C 0.89991 0.82849 0.34197 0.0
C558 C 0.12649 0.87006 0.372 0.0
C559 C 0.09449 0.86075 0.37139 0.0
C560 C 0.03685 0.88677 0.35458 0.0
C561 C 0.94773 0.82925 0.35687 0.0
C562 C 0.98257 0.84212 0.35533 0.0
C563 C 0.08362 0.87766 0.35647 0.0
C564 C 0.04885 0.8658 0.35484 0.0
H565 H 0.88247 0.77095 0.38781 0.0
H566 H 0.93968 0.79391 0.38644 0.0
H567 H 0.9956 0.89179 0.35517 0.0
H568 H 0.15526 0.93572 0.33311 0.0
H569 H 0.09871 0.91891 0.3314 0.0
C570 C 0.15944 0.27016 0.34782 0.0
C571 C 0.1284 0.26226 0.35442 0.0
C572 C 0.16855 0.24719 0.34811 0.0
C573 C 0.14697 0.16879 0.37641 0.0
H574 H 0.20988 0.17442 0.32693 0.0
C575 C 0.19301 0.07875 0.37135 0.0
C576 C 0.22607 0.09248 0.36936 0.0
C577 C 0.17883 0.09759 0.36939 0.0
C578 C 0.1924 0.17263 0.34096 0.0
H579 H 0.08235 0.22361 0.3659 0.0
H580 H 0.09816 0.18313 0.36588 0.0
H581 H 0.18812 0.20954 0.3221 0.0
H582 H 0.27006 0.13724 0.36505 0.0
H583 H 0.24528 0.16969 0.36093 0.0
H584 H 0.15129 0.13154 0.39507 0.0
C585 C 0.11558 0.20736 0.3609 0.0
C586 C 0.17995 0.19281 0.33825 0.0
C587 C 0.10643 0.2305 0.3607 0.0
C588 C 0.24453 0.12561 0.36601 0.0
C589 C 0.23035 0.1443 0.36372 0.0
C590 C 0.15924 0.14832 0.37895 0.0
C591 C 0.14688 0.21551 0.35483 0.0
C592 C 0.15756 0.19167 0.35625 0.0
C593 C 0.19735 0.13048 0.36509 0.0
C594 C 0.18254 0.15049 0.36154 0.0
H595 H 0.17711 0.29437 0.34299 0.0
H596 H 0.19298 0.25461 0.34379 0.0
H597 H 0.13004 0.16742 0.39081 0.0
H598 H 0.17793 0.05332 0.3736 0.0
H599 H 0.15332 0.08629 0.37043 0.0
C600 C 0.94576 0.12286 0.35267 0.0
C601 C 0.93474 0.14255 0.36263 0.0
C602 C 0.92575 0.08989 0.35144 0.0
C603 C 0.84178 0.02958 0.34778 0.0
H604 H 0.86743 0.97054 0.37276 0.0
C605 C 0.75061 0.8988 0.36433 0.0
C606 C 0.75851 0.87526 0.35908 0.0
C607 C 0.77354 0.93088 0.3636 0.0
C608 C 0.86004 0.98664 0.36528 0.0
H609 H 0.89404 0.14293 0.37916 0.0
H610 H 0.85927 0.08549 0.37716 0.0
H611 H 0.90502 0.0277 0.3738 0.0
H612 H 0.79685 0.86696 0.34905 0.0
H613 H 0.83711 0.92348 0.34692 0.0
H614 H 0.79713 0.989 0.33886 0.0
C615 C 0.88335 0.0956 0.37019 0.0
C616 C 0.88156 0.01939 0.36599 0.0
C617 C 0.90338 0.12847 0.37158 0.0
C618 C 0.79007 0.88459 0.35318 0.0
C619 C 0.81312 0.91695 0.3521 0.0
C620 C 0.82046 0.99698 0.3468 0.0
C621 C 0.89423 0.07597 0.35993 0.0
C622 C 0.87239 0.04118 0.35772 0.0
C623 C 0.80505 0.94051 0.35717 0.0
C624 C 0.82902 0.97505 0.35608 0.0
H625 H 0.9699 0.13294 0.34585 0.0
H626 H 0.93473 0.07535 0.34336 0.0
H627 H 0.83427 0.04578 0.34075 0.0
H628 H 0.72664 0.89248 0.3694 0.0
H629 H 0.7665 0.94814 0.36842 0.0
C630 C 0.17312 0.67002 0.34373 0.0
C631 C 0.17876 0.68778 0.36687 0.0
C632 C 0.16244 0.63746 0.34482 0.0
C633 C 0.12303 0.56765 0.38925 0.0
H634 H 0.15285 0.52969 0.33812 0.0
C635 C 0.10414 0.43965 0.39568 0.0
C636 C 0.09837 0.42296 0.37202 0.0
C637 C 0.10978 0.47088 0.39575 0.0
C638 C 0.14395 0.53985 0.35232 0.0
H639 H 0.17772 0.68507 0.40938 0.0
H640 H 0.16013 0.62855 0.41127 0.0
H641 H 0.17318 0.5867 0.33716 0.0
H642 H 0.09281 0.42481 0.33011 0.0
H643 H 0.10229 0.4792 0.33012 0.0
H644 H 0.09434 0.52059 0.40473 0.0
C645 C 0.16343 0.63968 0.39224 0.0
C646 C 0.15563 0.57259 0.35178 0.0
C647 C 0.17401 0.67225 0.39115 0.0
C648 C 0.09667 0.43715 0.34862 0.0
C649 C 0.1025 0.46835 0.34862 0.0
C650 C 0.11152 0.53486 0.38991 0.0
C651 C 0.15725 0.6218 0.36909 0.0
C652 C 0.14522 0.58694 0.37014 0.0
C653 C 0.11025 0.48595 0.37205 0.0
C654 C 0.1217 0.52059 0.37132 0.0
H655 H 0.17682 0.68124 0.3247 0.0
H656 H 0.15764 0.62446 0.32657 0.0
H657 H 0.11415 0.57779 0.40348 0.0
H658 H 0.10636 0.42932 0.41383 0.0
H659 H 0.11589 0.48389 0.41406 0.0
C660 C 0.3552 0.49621 0.39362 0.0
C661 C 0.33713 0.49648 0.37221 0.0
C662 C 0.38803 0.51665 0.39424 0.0
C663 C 0.45585 0.56274 0.35002 0.0
H664 H 0.49957 0.60968 0.41248 0.0
C665 C 0.5775 0.67476 0.34617 0.0
C666 C 0.59924 0.68209 0.36665 0.0
C667 C 0.54756 0.64786 0.34733 0.0
C668 C 0.48785 0.59624 0.39503 0.0
H669 H 0.33955 0.51967 0.33523 0.0
H670 H 0.3966 0.55502 0.33624 0.0
H671 H 0.44263 0.57233 0.41411 0.0
H672 H 0.60714 0.66659 0.40421 0.0
H673 H 0.55417 0.61887 0.4064 0.0
H674 H 0.50076 0.58685 0.33078 0.0
C675 C 0.38546 0.53857 0.35234 0.0
C676 C 0.45517 0.57495 0.39593 0.0
C677 C 0.35269 0.51829 0.35178 0.0
C678 C 0.59094 0.66112 0.38796 0.0
C679 C 0.56054 0.63413 0.38933 0.0
C680 C 0.48843 0.58384 0.34915 0.0
C681 C 0.40361 0.53773 0.3734 0.0
C682 C 0.43867 0.55853 0.37325 0.0
C683 C 0.53829 0.62759 0.36921 0.0
C684 C 0.50475 0.60148 0.37144 0.0
H685 H 0.34417 0.47947 0.40955 0.0
H686 H 0.40132 0.51527 0.41068 0.0
H687 H 0.44403 0.54991 0.33236 0.0
H688 H 0.58315 0.69069 0.32965 0.0
H689 H 0.53106 0.64399 0.33166 0.0
C690 C 0.3405 0.89879 0.34172 0.0
C691 C 0.33794 0.92165 0.35677 0.0
C692 C 0.36768 0.8964 0.3425 0.0
C693 C 0.43261 0.90918 0.38514 0.0
H694 H 0.46373 0.88991 0.32179 0.0
C695 C 0.5335 0.87851 0.38603 0.0
C696 C 0.52999 0.85401 0.36916 0.0
C697 C 0.51285 0.89058 0.38454 0.0
C698 C 0.45521 0.89498 0.33972 0.0
H699 H 0.3624 0.96026 0.38438 0.0
H700 H 0.41047 0.95577 0.38606 0.0
H701 H 0.42443 0.90653 0.31867 0.0
H702 H 0.50149 0.82268 0.33779 0.0
H703 H 0.46539 0.84347 0.33528 0.0
H704 H 0.46275 0.89666 0.40624 0.0
C705 C 0.39114 0.93991 0.37344 0.0
C706 C 0.43281 0.90474 0.33791 0.0
C707 C 0.36381 0.94268 0.37231 0.0
C708 C 0.5052 0.84183 0.35083 0.0
C709 C 0.48452 0.85385 0.34936 0.0
C710 C 0.45505 0.8993 0.38697 0.0
C711 C 0.39319 0.9165 0.35862 0.0
C712 C 0.42066 0.91125 0.3606 0.0
C713 C 0.48813 0.8785 0.36611 0.0
C714 C 0.46611 0.89137 0.36428 0.0
H715 H 0.32101 0.88187 0.32976 0.0
H716 H 0.36813 0.87776 0.33119 0.0
H717 H 0.42349 0.91367 0.403 0.0
H718 H 0.55264 0.88886 0.40011 0.0
H719 H 0.51665 0.9098 0.39752 0.0
C720 C 0.79721 0.20617 0.67115 0.0
C721 C 0.81943 0.23313 0.6851 0.0
C722 C 0.76513 0.19655 0.67187 0.0
C723 C 0.70668 0.22114 0.68776 0.0
H724 H 0.65106 0.13039 0.69667 0.0
C725 C 0.57115 0.16376 0.7057 0.0
C726 C 0.55131 0.13463 0.6931 0.0
C727 C 0.6041 0.17724 0.70516 0.0
C728 C 0.66613 0.15574 0.69386 0.0
H729 H 0.8254 0.272 0.70981 0.0
H730 H 0.76887 0.25504 0.71113 0.0
H731 H 0.70784 0.15197 0.69439 0.0
H732 H 0.55097 0.09684 0.6702 0.0
H733 H 0.60807 0.12063 0.66863 0.0
H734 H 0.6647 0.22474 0.68708 0.0
C735 C 0.77652 0.24144 0.69956 0.0
C736 C 0.69879 0.16816 0.69258 0.0
C737 C 0.80889 0.25118 0.6988 0.0
C738 C 0.56537 0.11945 0.67988 0.0
C739 C 0.59822 0.13293 0.67928 0.0
C740 C 0.67386 0.20865 0.68898 0.0
C741 C 0.75419 0.21349 0.68664 0.0
C742 C 0.7195 0.20095 0.68917 0.0
C743 C 0.61808 0.16192 0.69202 0.0
C744 C 0.65312 0.17571 0.69174 0.0
H745 H 0.80449 0.1919 0.66009 0.0
H746 H 0.74876 0.17542 0.66111 0.0
H747 H 0.72195 0.24648 0.68501 0.0
H748 H 0.56125 0.17636 0.71582 0.0
H749 H 0.61859 0.19945 0.71536 0.0
C750 C 0.86697 0.41338 0.67788 0.0
C751 C 0.89921 0.42641 0.68409 0.0
C752 C 0.8531 0.43258 0.67713 0.0
C753 C 0.87355 0.51662 0.67051 0.0
H754 H 0.79177 0.48877 0.70251 0.0
C755 C 0.83261 0.60537 0.69324 0.0
C756 C 0.80073 0.59668 0.68975 0.0
C757 C 0.84227 0.58292 0.69133 0.0
C758 C 0.8144 0.49674 0.69312 0.0
H759 H 0.9421 0.47017 0.69397 0.0
H760 H 0.91791 0.50334 0.69312 0.0
H761 H 0.81319 0.45281 0.70125 0.0
H762 H 0.75384 0.55718 0.68188 0.0
H763 H 0.77094 0.51763 0.67797 0.0
H764 H 0.875 0.5604 0.66234 0.0
C765 C 0.90335 0.47831 0.68859 0.0
C766 C 0.82672 0.47613 0.69245 0.0
C767 C 0.91717 0.45916 0.68939 0.0
C768 C 0.77857 0.56464 0.68464 0.0
C769 C 0.78838 0.542 0.6825 0.0
C770 C 0.86124 0.53706 0.67107 0.0
C771 C 0.87115 0.46532 0.68243 0.0
C772 C 0.85675 0.48608 0.68158 0.0
C773 C 0.82048 0.551 0.68556 0.0
C774 C 0.83181 0.52772 0.68288 0.0
H775 H 0.85228 0.38821 0.67397 0.0
H776 H 0.82829 0.42183 0.67214 0.0
H777 H 0.89639 0.52482 0.66142 0.0
H778 H 0.85035 0.62968 0.69769 0.0
H779 H 0.86698 0.59068 0.69462 0.0
C780 C 0.57177 0.46296 0.69981 0.0
C781 C 0.60358 0.47655 0.69216 0.0
C782 C 0.55155 0.43006 0.69887 0.0
C783 C 0.54957 0.35343 0.69835 0.0
H784 H 0.46642 0.32217 0.66813 0.0
C785 C 0.45998 0.21823 0.68552 0.0
C786 C 0.42797 0.20844 0.68972 0.0
C787 C 0.48272 0.25072 0.68459 0.0
C788 C 0.48937 0.33038 0.67697 0.0
H789 H 0.63924 0.46598 0.67819 0.0
H790 H 0.60379 0.40844 0.67647 0.0
H791 H 0.50328 0.37903 0.6698 0.0
H792 H 0.3949 0.22503 0.69712 0.0
H793 H 0.43416 0.2809 0.69647 0.0
H794 H 0.53536 0.30478 0.70619 0.0
C795 C 0.59459 0.42335 0.68319 0.0
C796 C 0.51054 0.36306 0.67783 0.0
C797 C 0.61479 0.45633 0.68395 0.0
C798 C 0.41927 0.23168 0.69337 0.0
C799 C 0.44188 0.2639 0.69284 0.0
C800 C 0.5282 0.32064 0.69777 0.0
C801 C 0.56267 0.40989 0.69042 0.0
C802 C 0.54076 0.375 0.68876 0.0
C803 C 0.4739 0.274 0.68818 0.0
C804 C 0.49763 0.30869 0.68736 0.0
H805 H 0.56227 0.47781 0.70601 0.0
H806 H 0.52715 0.42036 0.70484 0.0
H807 H 0.57268 0.36195 0.70699 0.0
H808 H 0.46739 0.20086 0.68263 0.0
H809 H 0.50709 0.25754 0.68074 0.0
C810 C 0.75969 0.76885 0.68389 0.0
C811 C 0.76901 0.75715 0.70517 0.0
C812 C 0.7659 0.80034 0.68398 0.0
C813 C 0.82432 0.87724 0.712 0.0
H814 H 0.7701 0.90787 0.6856 0.0
C815 C 0.85862 1.00877 0.72155 0.0
C816 C 0.85007 0.02283 0.70145 0.0
C817 C 0.84788 0.97617 0.72138 0.0
C818 C 0.78573 0.89976 0.6927 0.0
H819 H 0.79091 0.76823 0.74346 0.0
H820 H 0.80091 0.82272 0.74408 0.0
H821 H 0.75047 0.8507 0.68737 0.0
H822 H 0.82372 0.01328 0.66511 0.0
H823 H 0.80604 0.95667 0.66429 0.0
H824 H 0.85979 0.92594 0.7169 0.0
C825 C 0.78912 0.80794 0.72721 0.0
C826 C 0.77438 0.86696 0.69382 0.0
C827 C 0.78297 0.77663 0.72707 0.0
C828 C 0.83112 1.00344 0.6808 0.0
C829 C 0.82052 0.9708 0.68054 0.0
C830 C 0.83572 0.90991 0.71071 0.0
C831 C 0.78183 0.82059 0.70525 0.0
C832 C 0.79344 0.85533 0.70378 0.0
C833 C 0.8285 0.95664 0.70097 0.0
C834 C 0.81653 0.92169 0.70128 0.0
H835 H 0.74977 0.75447 0.66647 0.0
H836 H 0.76018 0.8094 0.6667 0.0
H837 H 0.83995 0.86914 0.71914 0.0
H838 H 0.87351 0.02291 0.73761 0.0
H839 H 0.85429 0.9662 0.73763 0.0
C840 C 0.02271 0.83925 0.72828 0.0
C841 C 1.00593 0.83227 0.70448 0.0
C842 C 0.05527 0.86091 0.72906 0.0
C843 C 0.11968 0.92653 0.69093 0.0
H844 H 0.17503 0.90954 0.73394 0.0
C845 C 0.25325 1.00138 0.67893 0.0
C846 C 0.27063 0.01455 0.70195 0.0
C847 C 0.2221 0.97634 0.68015 0.0
C848 C 0.15982 0.91465 0.72196 0.0
H849 H 1.01036 0.84322 0.66292 0.0
H850 H 0.06698 0.88028 0.66415 0.0
H851 H 0.1179 0.87249 0.73452 0.0
H852 H 0.26981 0.01122 0.74426 0.0
H853 H 0.21512 0.96673 0.74652 0.0
H854 H 0.16142 0.96844 0.6782 0.0
C855 C 0.05499 0.86934 0.68233 0.0
C856 C 0.12708 0.89353 0.72235 0.0
C857 C 0.0225 0.84777 0.68156 0.0
C858 C 0.25707 1.00087 0.72622 0.0
C859 C 0.22573 0.97564 0.72748 0.0
C860 C 0.15227 0.94743 0.69042 0.0
C861 C 0.07187 0.87616 0.70606 0.0
C862 C 0.10661 0.89907 0.70662 0.0
C863 C 0.20751 0.96407 0.70448 0.0
C864 C 0.1728 0.94161 0.70568 0.0
H865 H 1.01084 0.82747 0.74627 0.0
H866 H 0.06737 0.8658 0.74773 0.0
H867 H 0.10468 0.93207 0.67909 0.0
H868 H 0.26311 0.01176 0.66004 0.0
H869 H 0.20891 0.96757 0.66206 0.0
C870 C 0.19758 0.20282 0.71837 0.0
C871 C 0.19495 0.18042 0.69958 0.0
C872 C 0.17674 0.21464 0.71826 0.0
C873 C 0.11892 0.22306 0.67653 0.0
H874 H 0.08719 0.23303 0.74344 0.0
C875 C 0.03088 0.27063 0.6854 0.0
C876 C 1.00471 0.25178 0.70148 0.0
C877 C 0.05721 0.26621 0.6855 0.0
C878 C 0.09587 0.23047 0.72457 0.0
H879 H 0.16813 0.15292 0.66592 0.0
H880 H 0.13147 0.1733 0.66588 0.0
H881 H 0.12572 0.21533 0.74232 0.0
H882 H 0.98603 0.21472 0.73101 0.0
H883 H 0.03161 0.20742 0.73149 0.0
H884 H 0.08799 0.23714 0.65883 0.0
C885 C 0.15005 0.18212 0.68047 0.0
C886 C 0.1182 0.22055 0.72392 0.0
C887 C 0.171 0.17032 0.68054 0.0
C888 C 1.00589 0.2296 0.7184 0.0
C889 C 0.03213 0.22552 0.71876 0.0
C890 C 0.09655 0.23307 0.67719 0.0
C891 C 0.1526 0.20438 0.69938 0.0
C892 C 0.12977 0.21632 0.6999 0.0
C893 C 0.05791 0.24329 0.70202 0.0
C894 C 0.08439 0.23641 0.70122 0.0
H895 H 0.21616 0.2117 0.73296 0.0
H896 H 0.17982 0.23216 0.73284 0.0
H897 H 0.12761 0.22047 0.65768 0.0
H898 H 0.0304 0.28764 0.67197 0.0
H899 H 0.07681 0.28039 0.67245 0.0
C900 C 0.09389 0.33666 0.26554 0.0
C901 C 0.10536 0.35648 0.28767 0.0
C902 C 0.08699 0.34734 0.2423 0.0
C903 C 0.09657 0.41962 0.20749 0.0
H904 H 0.02028 0.35762 0.17189 0.0
C905 C 0.05665 0.44747 0.10854 0.0
C906 C 0.02412 0.43379 0.10357 0.0
C907 C 0.06753 0.43889 0.13076 0.0
C908 C 0.04146 0.37541 0.18167 0.0
H909 H 0.12048 0.40388 0.3021 0.0
H910 H 0.10798 0.42242 0.26182 0.0
H911 H 0.03859 0.34186 0.21023 0.0
H912 H 0.97742 0.40129 0.11865 0.0
H913 H 0.99622 0.38688 0.15788 0.0
H914 H 0.09875 0.45345 0.17942 0.0
C915 C 0.10447 0.3986 0.26223 0.0
C916 C 0.05234 0.3662 0.20352 0.0
C917 C 0.11163 0.38796 0.28544 0.0
C918 C 1.00264 0.41206 0.12182 0.0
C919 C 0.0135 0.40359 0.1442 0.0
C920 C 0.08559 0.42888 0.18567 0.0
C921 C 0.09114 0.37813 0.24054 0.0
C922 C 0.08011 0.38811 0.21679 0.0
C923 C 0.04615 0.41665 0.14891 0.0
C924 C 0.05784 0.40692 0.1724 0.0
H925 H 0.08899 0.31234 0.26651 0.0
H926 H 0.07767 0.33111 0.22587 0.0
H927 H 0.11813 0.43719 0.21695 0.0
H928 H 0.07382 0.46477 0.09509 0.0
H929 H 0.09279 0.44931 0.13339 0.0
C930 C 0.63164 0.73924 0.28617 0.0
C931 C 0.66408 0.76142 0.28858 0.0
C932 C 0.61946 0.72171 0.26296 0.0
C933 C 0.64721 0.69461 0.20612 0.0
H934 H 0.56376 0.66634 0.17757 0.0
C935 C 0.61085 0.63168 0.1065 0.0
C936 C 0.58029 0.60541 0.10347 0.0
C937 C 0.61901 0.65086 0.12879 0.0
C938 C 0.587 0.67375 0.18547 0.0
H939 H 0.7086 0.78468 0.26754 0.0
H940 H 0.68739 0.75505 0.22699 0.0
H941 H 0.58175 0.70107 0.21614 0.0
H942 H 0.53406 0.57894 0.12144 0.0
H943 H 0.54844 0.61249 0.16092 0.0
H944 H 0.65257 0.66736 0.17577 0.0
C945 C 0.67141 0.75021 0.24331 0.0
C946 C 0.59737 0.69375 0.20757 0.0
C947 C 0.68355 0.76753 0.26651 0.0
C948 C 0.55781 0.59902 0.12323 0.0
C949 C 0.56603 0.61834 0.14575 0.0
C950 C 0.6369 0.67475 0.18414 0.0
C951 C 0.63945 0.72617 0.24151 0.0
C952 C 0.6278 0.70475 0.21803 0.0
C953 C 0.59693 0.64431 0.14895 0.0
C954 C 0.60682 0.66429 0.17327 0.0
H955 H 0.61594 0.73429 0.30268 0.0
H956 H 0.59473 0.70355 0.26237 0.0
H957 H 0.67039 0.70169 0.21397 0.0
H958 H 0.6288 0.63734 0.09168 0.0
H959 H 0.6428 0.67094 0.1302 0.0
C960 C 0.4262 0.9663 0.11789 0.0
C961 C 0.4258 0.98885 0.10098 0.0
C962 C 0.40556 0.95463 0.13946 0.0
C963 C 0.35216 0.97291 0.1798 0.0
H964 H 0.32276 0.88871 0.20834 0.0
C965 C 0.25867 0.92575 0.26013 0.0
C966 C 0.26627 0.91485 0.28295 0.0
C967 C 0.27471 0.92893 0.23662 0.0
C968 C 0.33083 0.9123 0.2006 0.0
H969 H 0.40287 0.01596 0.09244 0.0
H970 H 0.36557 0.99437 0.12876 0.0
H971 H 0.35748 0.90643 0.16993 0.0
H972 H 0.29522 0.89674 0.29857 0.0
H973 H 0.32341 0.90205 0.25728 0.0
H974 H 0.32515 0.97857 0.21011 0.0
C975 C 0.38268 0.98662 0.12653 0.0
C976 C 0.35096 0.92264 0.1786 0.0
C977 C 0.40388 0.99888 0.10546 0.0
C978 C 0.28839 0.90451 0.28118 0.0
C979 C 0.30473 0.90788 0.25755 0.0
C980 C 0.33177 0.96241 0.20139 0.0
C981 C 0.38348 0.96469 0.14425 0.0
C982 C 0.36191 0.95315 0.16776 0.0
C983 C 0.29913 0.92166 0.23535 0.0
C984 C 0.32066 0.93195 0.21206 0.0
H985 H 0.44302 0.95829 0.11479 0.0
H986 H 0.40749 0.93824 0.15265 0.0
H987 H 0.36064 0.99689 0.1729 0.0
H988 H 0.24199 0.93424 0.26098 0.0
H989 H 0.26927 0.93893 0.21978 0.0
C990 C 0.45144 0.05584 0.95114 0.0
C991 C 0.44566 0.02449 0.953 0.0
C992 C 0.44566 0.06709 0.9276 0.0
C993 C 0.39546 0.03565 0.86854 0.0
H994 H 0.44379 0.12214 0.8428 0.0
C995 C 0.34538 0.08372 0.78985 0.0
C996 C 0.36574 0.10276 0.76976 0.0
C997 C 0.35715 0.0754 0.81162 0.0
C998 C 0.43014 0.09783 0.84962 0.0
H999 H 0.43153 0.98125 0.93109 0.0
H1000 H 0.42211 1.00095 0.89008 0.0
H1001 H 0.46261 0.10587 0.88102 0.0
H1002 H 0.41455 0.12834 0.75688 0.0
H1003 H 0.43519 0.11374 0.79493 0.0
H1004 H 0.36307 0.02745 0.83727 0.0
C1005 C 0.43031 0.01665 0.9069 0.0
C1006 C 0.4408 0.08857 0.87169 0.0
C1007 C 0.43602 1.00544 0.93036 0.0
C1008 C 0.39826 0.11365 0.77207 0.0
C1009 C 0.4101 0.10541 0.79395 0.0
C1010 C 0.38476 0.04492 0.84666 0.0
C1011 C 0.43401 0.04724 0.9054 0.0
C1012 C 0.42357 0.05732 0.88145 0.0
C1013 C 0.38964 0.08595 0.81394 0.0
C1014 C 0.40181 0.07616 0.83694 0.0
H1015 H 0.45868 0.07109 0.96825 0.0
H1016 H 0.44871 0.09073 0.92724 0.0
H1017 H 0.38126 0.01153 0.87565 0.0
H1018 H 0.32022 0.075 0.78867 0.0
H1019 H 0.34074 0.0608 0.82677 0.0
C1020 C 0.97117 0.40336 0.95274 0.0
C1021 C 1.00432 0.42082 0.95448 0.0
C1022 C 0.95638 0.3869 0.92951 0.0
C1023 C 0.97662 0.35219 0.87322 0.0
H1024 H 0.89697 0.33539 0.84292 0.0
C1025 C 0.94013 0.29685 0.77173 0.0
C1026 C 0.90929 0.27133 0.76794 0.0
C1027 C 0.94828 0.31513 0.79451 0.0
C1028 C 0.91909 0.33965 0.85136 0.0
H1029 H 0.0478 0.43752 0.93274 0.0
H1030 H 0.02238 0.41085 0.89211 0.0
H1031 H 0.91774 0.36944 0.88201 0.0
H1032 H 0.86244 0.2456 0.78496 0.0
H1033 H 0.87686 0.27787 0.82535 0.0
H1034 H 0.97834 0.32287 0.84283 0.0
C1035 C 1.00758 0.40839 0.90878 0.0
C1036 C 0.93102 0.35919 0.87372 0.0
C1037 C 0.0222 0.42416 0.93197 0.0
C1038 C 0.88642 0.26506 0.78736 0.0
C1039 C 0.89464 0.28361 0.81038 0.0
C1040 C 0.96485 0.33295 0.85104 0.0
C1041 C 0.97461 0.38805 0.90763 0.0
C1042 C 0.96036 0.36627 0.88459 0.0
C1043 C 0.92591 0.30849 0.8144 0.0
C1044 C 0.93628 0.32687 0.83945 0.0
H1045 H 0.95686 0.40029 0.96989 0.0
H1046 H 0.93094 0.37166 0.92934 0.0
H1047 H 0.99865 0.356 0.88149 0.0
H1048 H 0.95838 0.30249 0.75719 0.0
H1049 H 0.9724 0.33442 0.79667 0.0
C1050 C 0.72988 0.62771 0.7709 0.0
C1051 C 0.75617 0.65863 0.7708 0.0
C1052 C 0.70899 0.61669 0.79236 0.0
C1053 C 0.6877 0.64665 0.85286 0.0
H1054 H 0.6427 0.55756 0.87236 0.0
C1055 C 0.63283 0.59831 0.95489 0.0
C1056 C 0.59957 0.58217 0.95505 0.0
C1057 C 0.64958 0.60489 0.93132 0.0
C1058 C 0.65494 0.58245 0.86693 0.0
H1059 H 0.78196 0.70167 0.79366 0.0
H1060 H 0.74708 0.68217 0.83141 0.0
H1061 H 0.67747 0.57482 0.83395 0.0
H1062 H 0.55779 0.55979 0.93065 0.0
H1063 H 0.58741 0.57013 0.88906 0.0
H1064 H 0.66632 0.65424 0.88681 0.0
C1065 C 0.74132 0.66667 0.81458 0.0
C1066 C 0.67483 0.59245 0.84482 0.0
C1067 C 0.76172 0.67784 0.79296 0.0
C1068 C 0.58337 0.57187 0.93108 0.0
C1069 C 0.60026 0.57784 0.90738 0.0
C1070 C 0.66835 0.63672 0.87515 0.0
C1071 C 0.71424 0.63609 0.81455 0.0
C1072 C 0.69185 0.62484 0.83754 0.0
C1073 C 0.63354 0.59498 0.90733 0.0
C1074 C 0.65191 0.6046 0.88248 0.0
H1075 H 0.72514 0.61216 0.75424 0.0
H1076 H 0.68843 0.59315 0.79123 0.0
H1077 H 0.69941 0.6716 0.84774 0.0
H1078 H 0.646 0.60715 0.97298 0.0
H1079 H 0.67519 0.61831 0.93178 0.0
C1080 C 0.67791 0.74961 0.45871 0.0
C1081 C 0.69777 0.76859 0.43835 0.0
C1082 C 0.69021 0.74141 0.48018 0.0
C1083 C 0.76393 0.76454 0.51714 0.0
H1084 H 0.71613 0.67838 0.54369 0.0
C1085 C 0.78669 0.72403 0.61872 0.0
C1086 C 0.78136 0.69285 0.62079 0.0
C1087 C 0.78061 0.73489 0.59512 0.0
C1088 C 0.73003 0.70247 0.53642 0.0
H1089 H 0.74626 0.79415 0.42467 0.0
H1090 H 0.76784 0.77981 0.46226 0.0
H1091 H 0.69709 0.69372 0.50547 0.0
H1092 H 0.7677 0.64954 0.59913 0.0
H1093 H 0.75769 0.66857 0.55801 0.0
H1094 H 0.79689 0.77317 0.54827 0.0
C1095 C 0.74272 0.77141 0.46168 0.0
C1096 C 0.71886 0.71139 0.51464 0.0
C1097 C 0.73035 0.7795 0.44008 0.0
C1098 C 0.77189 0.67361 0.59826 0.0
C1099 C 0.76583 0.68444 0.57473 0.0
C1100 C 0.77505 0.75564 0.53912 0.0
C1101 C 0.72276 0.75206 0.48196 0.0
C1102 C 0.7355 0.74258 0.50475 0.0
C1103 C 0.76906 0.71482 0.57305 0.0
C1104 C 0.75821 0.72446 0.54909 0.0
H1105 H 0.65272 0.74087 0.45798 0.0
H1106 H 0.67416 0.72687 0.49556 0.0
H1107 H 0.77727 0.78882 0.51019 0.0
H1108 H 0.7938 0.73944 0.63573 0.0
H1109 H 0.78329 0.75838 0.59463 0.0
C1110 C 0.28131 0.93892 0.45209 0.0
C1111 C 0.2604 0.93919 0.43335 0.0
C1112 C 0.29018 0.95894 0.47402 0.0
C1113 C 0.26562 1.00581 0.51514 0.0
H1114 H 0.35241 0.04651 0.53927 0.0
C1115 C 0.35587 0.10345 0.59738 0.0
C1116 C 0.33638 0.09292 0.6197 0.0
C1117 C 0.34548 0.08725 0.57348 0.0
C1118 C 0.32813 0.0357 0.5327 0.0
H1119 H 0.23201 0.96033 0.42308 0.0
H1120 H 0.2477 0.99559 0.46121 0.0
H1121 H 0.33707 0.01356 0.50008 0.0
H1122 H 0.28989 0.05834 0.63391 0.0
H1123 H 0.27198 0.02951 0.59252 0.0
H1124 H 0.25675 0.02818 0.54769 0.0
C1125 C 0.25714 0.97977 0.45909 0.0
C1126 C 0.31923 0.01638 0.51034 0.0
C1127 C 0.24834 0.95976 0.43711 0.0
C1128 C 0.30552 0.06697 0.61713 0.0
C1129 C 0.29523 0.0505 0.59329 0.0
C1130 C 0.27452 0.02511 0.53757 0.0
C1131 C 0.27826 0.97969 0.47784 0.0
C1132 C 0.28781 1.001 0.50131 0.0
C1133 C 0.3154 0.05988 0.57129 0.0
C1134 C 0.30591 0.04028 0.54675 0.0
H1135 H 0.29091 0.92324 0.44981 0.0
H1136 H 0.3061 0.95784 0.48819 0.0
H1137 H 0.24116 0.99415 0.50892 0.0
H1138 H 0.37968 0.12353 0.59865 0.0
H1139 H 0.36141 0.09577 0.55685 0.0
C1140 C 0.95152 0.23858 0.61602 0.0
C1141 C 0.92777 0.24673 0.61849 0.0
C1142 C 0.96873 0.24457 0.59259 0.0
C1143 C 0.99625 0.25108 0.53719 0.0
H1144 H 0.01858 0.33186 0.50487 0.0
C1145 C 0.06722 0.29419 0.43927 0.0
C1146 C 0.0898 0.32668 0.43718 0.0
C1147 C 0.04664 0.2826 0.46085 0.0
C1148 C 0.0128 0.30932 0.51369 0.0
H1149 H 0.90195 0.26532 0.59757 0.0
H1150 H 0.93126 0.27496 0.55665 0.0
H1151 H 0.98345 0.31359 0.54261 0.0
H1152 H 0.10879 0.3724 0.45632 0.0
H1153 H 0.07331 0.35229 0.49404 0.0
H1154 H 0.02638 0.24733 0.50852 0.0
C1155 C 0.93728 0.26478 0.57299 0.0
C1156 C 0.99219 0.29856 0.53519 0.0
C1157 C 0.92017 0.25888 0.59639 0.0
C1158 C 0.09162 0.34725 0.45731 0.0
C1159 C 0.07106 0.33571 0.47886 0.0
C1160 C 0.01686 0.26184 0.51557 0.0
C1161 C 0.96256 0.25878 0.57103 0.0
C1162 C 0.98363 0.26933 0.54735 0.0
C1163 C 0.0481 0.30325 0.48088 0.0
C1164 C 0.0256 0.29124 0.50361 0.0
H1165 H 0.95818 0.22939 0.63269 0.0
H1166 H 0.98804 0.23969 0.59194 0.0
H1167 H 0.99012 0.22839 0.54589 0.0
H1168 H 0.06524 0.27771 0.42408 0.0
H1169 H 0.02913 0.25755 0.46154 0.0
loop_
_geom_bond_atom_site_label_1
_geom_bond_atom_site_label_2
_geom_bond_distance
_geom_bond_site_symmetry_2
_ccdc_geom_bond_type
Nd0 C2 2.836 . S
Nd0 O20 2.500 1_556 S
Nd0 O21 2.492 . S
Nd0 O22 2.487 . S
Nd0 O23 2.682 1_455 S
Nd0 O24 2.410 . S
Nd0 O29 2.414 1_556 S
Nd0 O31 2.424 1_456 S
Nd1 C11 2.836 . S
Nd1 O23 2.414 1_554 S
Nd1 O25 2.424 1_655 S
Nd1 O26 2.500 1_554 S
Nd1 O27 2.492 . S
Nd1 O28 2.487 . S
Nd1 O29 2.682 1_655 S
Nd1 O30 2.410 . S
C2 Nd0 2.836 . S
C2 C3 1.498 . S
C2 O20 1.258 1_556 S
C2 O21 1.239 . S
C3 C2 1.498 . S
C3 C4 1.366 1_556 S
C3 C8 1.407 . S
C4 C3 1.366 1_554 S
C4 C5 1.392 . S
C4 H32 0.930 . S
C5 C4 1.392 . S
C5 C6 1.398 1_554 S
C5 H33 0.929 . S
C6 C5 1.398 1_556 S
C6 C7 1.352 . S
C7 C6 1.352 . S
C7 C8 1.384 . S
C7 H34 0.930 . S
C8 C3 1.407 . S
C8 C7 1.384 . S
C8 H35 0.929 . S
C9 O22 1.241 1_655 S
C9 O23 1.273 . S
C10 O24 1.251 . S
C10 O25 1.268 1_556 S
C11 Nd1 2.836 . S
C11 C12 1.498 . S
C11 O26 1.258 1_554 S
C11 O27 1.239 . S
C12 C11 1.498 . S
C12 C13 1.366 1_554 S
C12 C17 1.407 . S
C13 C12 1.366 1_556 S
C13 C14 1.392 . S
C13 H36 0.930 . S
C14 C13 1.392 . S
C14 C15 1.398 1_556 S
C14 H37 0.929 . S
C15 C14 1.398 1_554 S
C15 C16 1.352 . S
C16 C15 1.352 . S
C16 C17 1.384 . S
C16 H38 0.930 . S
C17 C12 1.407 . S
C17 C16 1.384 . S
C17 H39 0.929 . S
C18 O28 1.241 1_455 S
C18 O29 1.273 . S
C19 O30 1.251 . S
C19 O31 1.268 . S
O20 Nd0 2.500 1_554 S
O20 C2 1.258 1_554 S
O21 Nd0 2.492 . S
O21 C2 1.239 . S
O22 Nd0 2.487 . S
O22 C9 1.241 1_455 S
O23 Nd0 2.682 1_655 S
O23 Nd1 2.414 1_556 S
O23 C9 1.273 . S
O24 Nd0 2.410 . S
O24 C10 1.251 . S
O25 Nd1 2.424 1_455 S
O25 C10 1.268 1_554 S
O26 Nd1 2.500 1_556 S
O26 C11 1.258 1_556 S
O27 Nd1 2.492 . S
O27 C11 1.239 . S
O28 Nd1 2.487 . S
O28 C18 1.241 1_655 S
O29 Nd0 2.414 1_554 S
O29 Nd1 2.682 1_455 S
O29 C18 1.273 . S
O30 Nd1 2.410 . S
O30 C19 1.251 . S
O31 Nd0 2.424 1_654 S
O31 C19 1.268 . S
H32 C4 0.930 . S
H33 C5 0.929 . S
H34 C7 0.930 . S
H35 C8 0.929 . S
H36 C13 0.930 . S
H37 C14 0.929 . S
H38 C16 0.930 . S
H39 C17 0.929 . S
Nd40 C42 2.836 . S
Nd40 O60 2.500 1_556 S
Nd40 O61 2.492 . S
Nd40 O62 2.487 . S
Nd40 O63 2.682 . S
Nd40 O64 2.410 . S
Nd40 O69 2.414 1_556 S
Nd40 O71 2.424 1_556 S
Nd41 C51 2.836 . S
Nd41 O63 2.414 1_554 S
Nd41 O65 2.424 . S
Nd41 O66 2.500 1_554 S
Nd41 O67 2.492 . S
Nd41 O68 2.487 . S
Nd41 O69 2.682 . S
Nd41 O70 2.410 . S
C42 Nd40 2.836 . S
C42 C43 1.498 . S
C42 O60 1.258 1_556 S
C42 O61 1.239 . S
C43 C42 1.498 . S
C43 C44 1.366 1_556 S
C43 C48 1.407 . S
C44 C43 1.366 1_554 S
C44 C45 1.392 . S
C44 H72 0.930 . S
C45 C44 1.392 . S
C45 C46 1.398 1_554 S
C45 H73 0.929 . S
C46 C45 1.398 1_556 S
C46 C47 1.352 . S
C47 C46 1.352 . S
C47 C48 1.384 . S
C47 H74 0.930 . S
C48 C43 1.407 . S
C48 C47 1.384 . S
C48 H75 0.929 . S
C49 O62 1.241 . S
C49 O63 1.273 . S
C50 O64 1.251 . S
C50 O65 1.268 1_556 S
C51 Nd41 2.836 . S
C51 C52 1.498 . S
C51 O66 1.258 1_554 S
C51 O67 1.239 . S
C52 C51 1.498 . S
C52 C53 1.366 1_554 S
C52 C57 1.407 . S
C53 C52 1.366 1_556 S
C53 C54 1.392 . S
C53 H76 0.930 . S
C54 C53 1.392 . S
C54 C55 1.398 1_556 S
C54 H77 0.929 . S
C55 C54 1.398 1_554 S
C55 C56 1.352 . S
C56 C55 1.352 . S
C56 C57 1.384 . S
C56 H78 0.930 . S
C57 C52 1.407 . S
C57 C56 1.384 . S
C57 H79 0.929 . S
C58 O68 1.241 . S
C58 O69 1.273 . S
C59 O70 1.251 . S
C59 O71 1.268 . S
O60 Nd40 2.500 1_554 S
O60 C42 1.258 1_554 S
O61 Nd40 2.492 . S
O61 C42 1.239 . S
O62 Nd40 2.487 . S
O62 C49 1.241 . S
O63 Nd40 2.682 . S
O63 Nd41 2.414 1_556 S
O63 C49 1.273 . S
O64 Nd40 2.410 . S
O64 C50 1.251 . S
O65 Nd41 2.424 . S
O65 C50 1.268 1_554 S
O66 Nd41 2.500 1_556 S
O66 C51 1.258 1_556 S
O67 Nd41 2.492 . S
O67 C51 1.239 . S
O68 Nd41 2.487 . S
O68 C58 1.241 . S
O69 Nd40 2.414 1_554 S
O69 Nd41 2.682 . S
O69 C58 1.273 . S
O70 Nd41 2.410 . S
O70 C59 1.251 . S
O71 Nd40 2.424 1_554 S
O71 C59 1.268 . S
H72 C44 0.930 . S
H73 C45 0.929 . S
H74 C47 0.930 . S
H75 C48 0.929 . S
H76 C53 0.930 . S
H77 C54 0.929 . S
H78 C56 0.930 . S
H79 C57 0.929 . S
Nd80 C82 2.836 . S
Nd80 O100 2.500 1_556 S
Nd80 O101 2.492 . S
Nd80 O102 2.487 . S
Nd80 O103 2.682 1_565 S
Nd80 O104 2.410 . S
Nd80 O109 2.414 1_556 S
Nd80 O111 2.424 1_566 S
Nd81 C91 2.836 . S
Nd81 O103 2.414 1_554 S
Nd81 O105 2.424 1_545 S
Nd81 O106 2.500 1_554 S
Nd81 O107 2.492 . S
Nd81 O108 2.487 . S
Nd81 O109 2.682 1_545 S
Nd81 O110 2.410 . S
C82 Nd80 2.836 . S
C82 C83 1.498 . S
C82 O100 1.258 1_556 S
C82 O101 1.239 . S
C83 C82 1.498 . S
C83 C84 1.366 1_556 S
C83 C88 1.407 . S
C84 C83 1.366 1_554 S
C84 C85 1.392 . S
C84 H112 0.930 . S
C85 C84 1.392 . S
C85 C86 1.398 1_554 S
C85 H113 0.929 . S
C86 C85 1.398 1_556 S
C86 C87 1.352 . S
C87 C86 1.352 . S
C87 C88 1.384 . S
C87 H114 0.930 . S
C88 C83 1.407 . S
C88 C87 1.384 . S
C88 H115 0.929 . S
C89 O102 1.241 1_545 S
C89 O103 1.273 . S
C90 O104 1.251 . S
C90 O105 1.268 1_556 S
C91 Nd81 2.836 . S
C91 C92 1.498 . S
C91 O106 1.258 1_554 S
C91 O107 1.239 . S
C92 C91 1.498 . S
C92 C93 1.366 1_554 S
C92 C97 1.407 . S
C93 C92 1.366 1_556 S
C93 C94 1.392 . S
C93 H116 0.930 . S
C94 C93 1.392 . S
C94 C95 1.398 1_556 S
C94 H117 0.929 . S
C95 C94 1.398 1_554 S
C95 C96 1.352 . S
C96 C95 1.352 . S
C96 C97 1.384 . S
C96 H118 0.930 . S
C97 C92 1.407 . S
C97 C96 1.384 . S
C97 H119 0.929 . S
C98 O108 1.241 1_565 S
C98 O109 1.273 . S
C99 O110 1.251 . S
C99 O111 1.268 . S
O100 Nd80 2.500 1_554 S
O100 C82 1.258 1_554 S
O101 Nd80 2.492 . S
O101 C82 1.239 . S
O102 Nd80 2.487 . S
O102 C89 1.241 1_565 S
O103 Nd80 2.682 1_545 S
O103 Nd81 2.414 1_556 S
O103 C89 1.273 . S
O104 Nd80 2.410 . S
O104 C90 1.251 . S
O105 Nd81 2.424 1_565 S
O105 C90 1.268 1_554 S
O106 Nd81 2.500 1_556 S
O106 C91 1.258 1_556 S
O107 Nd81 2.492 . S
O107 C91 1.239 . S
O108 Nd81 2.487 . S
O108 C98 1.241 1_545 S
O109 Nd80 2.414 1_554 S
O109 Nd81 2.682 1_565 S
O109 C98 1.273 . S
O110 Nd81 2.410 . S
O110 C99 1.251 . S
O111 Nd80 2.424 1_544 S
O111 C99 1.268 . S
H112 C84 0.930 . S
H113 C85 0.929 . S
H114 C87 0.930 . S
H115 C88 0.929 . S
H116 C93 0.930 . S
H117 C94 0.929 . S
H118 C96 0.930 . S
H119 C97 0.929 . S
Nd120 C122 2.836 . S
Nd120 O140 2.500 . S
Nd120 O141 2.492 . S
Nd120 O142 2.487 . S
Nd120 O143 2.682 . S
Nd120 O144 2.410 . S
Nd120 O149 2.414 . S
Nd120 O151 2.424 . S
Nd121 C131 2.836 . S
Nd121 O143 2.414 . S
Nd121 O145 2.424 . S
Nd121 O146 2.500 . S
Nd121 O147 2.492 . S
Nd121 O148 2.487 . S
Nd121 O149 2.682 . S
Nd121 O150 2.410 . S
C122 Nd120 2.836 . S
C122 C123 1.498 . S
C122 O140 1.258 . S
C122 O141 1.239 . S
C123 C122 1.498 . S
C123 C124 1.366 . S
C123 C128 1.407 . S
C124 C123 1.366 . S
C124 C125 1.392 . S
C124 H152 0.930 . S
C125 C124 1.392 . S
C125 C126 1.398 . S
C125 H153 0.929 . S
C126 C125 1.398 . S
C126 C127 1.352 . S
C127 C126 1.352 . S
C127 C128 1.384 . S
C127 H154 0.930 . S
C128 C123 1.407 . S
C128 C127 1.384 . S
C128 H155 0.929 . S
C129 O142 1.241 . S
C129 O143 1.273 . S
C130 O144 1.251 . S
C130 O145 1.268 . S
C131 Nd121 2.836 . S
C131 C132 1.498 . S
C131 O146 1.258 . S
C131 O147 1.239 . S
C132 C131 1.498 . S
C132 C133 1.366 . S
C132 C137 1.407 . S
C133 C132 1.366 . S
C133 C134 1.392 . S
C133 H156 0.930 . S
C134 C133 1.392 . S
C134 C135 1.398 . S
C134 H157 0.929 . S
C135 C134 1.398 . S
C135 C136 1.352 . S
C136 C135 1.352 . S
C136 C137 1.384 . S
C136 H158 0.930 . S
C137 C132 1.407 . S
C137 C136 1.384 . S
C137 H159 0.929 . S
C138 O148 1.241 . S
C138 O149 1.273 . S
C139 O150 1.251 . S
C139 O151 1.268 . S
O140 Nd120 2.500 . S
O140 C122 1.258 . S
O141 Nd120 2.492 . S
O141 C122 1.239 . S
O142 Nd120 2.487 . S
O142 C129 1.241 . S
O143 Nd120 2.682 . S
O143 Nd121 2.414 . S
O143 C129 1.273 . S
O144 Nd120 2.410 . S
O144 C130 1.251 . S
O145 Nd121 2.424 . S
O145 C130 1.268 . S
O146 Nd121 2.500 . S
O146 C131 1.258 . S
O147 Nd121 2.492 . S
O147 C131 1.239 . S
O148 Nd121 2.487 . S
O148 C138 1.241 . S
O149 Nd120 2.414 . S
O149 Nd121 2.682 . S
O149 C138 1.273 . S
O150 Nd121 2.410 . S
O150 C139 1.251 . S
O151 Nd120 2.424 . S
O151 C139 1.268 . S
H152 C124 0.930 . S
H153 C125 0.929 . S
H154 C127 0.930 . S
H155 C128 0.929 . S
H156 C133 0.930 . S
H157 C134 0.929 . S
H158 C136 0.930 . S
H159 C137 0.929 . S
Nd160 C162 2.836 . S
Nd160 O180 2.500 . S
Nd160 O181 2.492 . S
Nd160 O182 2.487 . S
Nd160 O183 2.682 . S
Nd160 O184 2.410 . S
Nd160 O189 2.414 . S
Nd160 O191 2.424 . S
Nd161 C171 2.836 . S
Nd161 O183 2.414 . S
Nd161 O185 2.424 . S
Nd161 O186 2.500 . S
Nd161 O187 2.492 . S
Nd161 O188 2.487 . S
Nd161 O189 2.682 . S
Nd161 O190 2.410 . S
C162 Nd160 2.836 . S
C162 C163 1.498 1_565 S
C162 O180 1.258 . S
C162 O181 1.239 . S
C163 C162 1.498 1_545 S
C163 C164 1.366 . S
C163 C168 1.407 . S
C164 C163 1.366 . S
C164 C165 1.392 . S
C164 H192 0.930 1_545 S
C165 C164 1.392 . S
C165 C166 1.398 . S
C165 H193 0.929 . S
C166 C165 1.398 . S
C166 C167 1.352 . S
C167 C166 1.352 . S
C167 C168 1.384 . S
C167 H194 0.930 . S
C168 C163 1.407 . S
C168 C167 1.384 . S
C168 H195 0.929 . S
C169 O182 1.241 . S
C169 O183 1.273 . S
C170 O184 1.251 . S
C170 O185 1.268 . S
C171 Nd161 2.836 . S
C171 C172 1.498 . S
C171 O186 1.258 . S
C171 O187 1.239 . S
C172 C171 1.498 . S
C172 C173 1.366 . S
C172 C177 1.407 . S
C173 C172 1.366 . S
C173 C174 1.392 . S
C173 H196 0.930 . S
C174 C173 1.392 . S
C174 C175 1.398 . S
C174 H197 0.929 . S
C175 C174 1.398 . S
C175 C176 1.352 . S
C176 C175 1.352 . S
C176 C177 1.384 . S
C176 H198 0.930 . S
C177 C172 1.407 . S
C177 C176 1.384 . S
C177 H199 0.929 . S
C178 O188 1.241 . S
C178 O189 1.273 . S
C179 O190 1.251 . S
C179 O191 1.268 . S
O180 Nd160 2.500 . S
O180 C162 1.258 . S
O181 Nd160 2.492 . S
O181 C162 1.239 . S
O182 Nd160 2.487 . S
O182 C169 1.241 . S
O183 Nd160 2.682 . S
O183 Nd161 2.414 . S
O183 C169 1.273 . S
O184 Nd160 2.410 . S
O184 C170 1.251 . S
O185 Nd161 2.424 . S
O185 C170 1.268 . S
O186 Nd161 2.500 . S
O186 C171 1.258 . S
O187 Nd161 2.492 . S
O187 C171 1.239 . S
O188 Nd161 2.487 . S
O188 C178 1.241 . S
O189 Nd160 2.414 . S
O189 Nd161 2.682 . S
O189 C178 1.273 . S
O190 Nd161 2.410 . S
O190 C179 1.251 . S
O191 Nd160 2.424 . S
O191 C179 1.268 . S
H192 C164 0.930 1_565 S
H193 C165 0.929 . S
H194 C167 0.930 . S
H195 C168 0.929 . S
H196 C173 0.930 . S
H197 C174 0.929 . S
H198 C176 0.930 . S
H199 C177 0.929 . S
Nd200 C202 2.836 . S
Nd200 O220 2.500 . S
Nd200 O221 2.492 . S
Nd200 O222 2.487 . S
Nd200 O223 2.682 . S
Nd200 O224 2.410 . S
Nd200 O229 2.414 . S
Nd200 O231 2.424 . S
Nd201 C211 2.836 . S
Nd201 O223 2.414 . S
Nd201 O225 2.424 . S
Nd201 O226 2.500 . S
Nd201 O227 2.492 . S
Nd201 O228 2.487 . S
Nd201 O229 2.682 . S
Nd201 O230 2.410 . S
C202 Nd200 2.836 . S
C202 C203 1.499 . S
C202 O220 1.258 . S
C202 O221 1.239 . S
C203 C202 1.499 . S
C203 C204 1.368 1_455 S
C203 C208 1.404 1_455 S
C204 C203 1.368 1_655 S
C204 C205 1.392 . S
C204 H232 0.930 1_655 S
C205 C204 1.392 . S
C205 C206 1.398 . S
C205 H233 0.929 . S
C206 C205 1.398 . S
C206 C207 1.352 . S
C207 C206 1.352 . S
C207 C208 1.384 . S
C207 H234 0.930 . S
C208 C203 1.404 1_655 S
C208 C207 1.384 . S
C208 H235 0.929 . S
C209 O222 1.241 . S
C209 O223 1.273 . S
C210 O224 1.251 . S
C210 O225 1.268 . S
C211 Nd201 2.836 . S
C211 C212 1.498 . S
C211 O226 1.258 . S
C211 O227 1.239 . S
C212 C211 1.498 . S
C212 C213 1.366 . S
C212 C217 1.407 . S
C213 C212 1.366 . S
C213 C214 1.392 . S
C213 H236 0.930 . S
C214 C213 1.392 . S
C214 C215 1.398 . S
C214 H237 0.929 . S
C215 C214 1.398 . S
C215 C216 1.352 . S
C216 C215 1.352 . S
C216 C217 1.384 . S
C216 H238 0.930 . S
C217 C212 1.407 . S
C217 C216 1.384 . S
C217 H239 0.929 . S
C218 O228 1.241 . S
C218 O229 1.273 . S
C219 O230 1.251 . S
C219 O231 1.268 . S
O220 Nd200 2.500 . S
O220 C202 1.258 . S
O221 Nd200 2.492 . S
O221 C202 1.239 . S
O222 Nd200 2.487 . S
O222 C209 1.241 . S
O223 Nd200 2.682 . S
O223 Nd201 2.414 . S
O223 C209 1.273 . S
O224 Nd200 2.410 . S
O224 C210 1.251 . S
O225 Nd201 2.424 . S
O225 C210 1.268 . S
O226 Nd201 2.500 . S
O226 C211 1.258 . S
O227 Nd201 2.492 . S
O227 C211 1.239 . S
O228 Nd201 2.487 . S
O228 C218 1.241 . S
O229 Nd200 2.414 . S
O229 Nd201 2.682 . S
O229 C218 1.273 . S
O230 Nd201 2.410 . S
O230 C219 1.251 . S
O231 Nd200 2.424 . S
O231 C219 1.268 . S
H232 C204 0.930 1_455 S
H233 C205 0.929 . S
H234 C207 0.930 . S
H235 C208 0.929 . S
H236 C213 0.930 . S
H237 C214 0.929 . S
H238 C216 0.930 . S
H239 C217 0.929 . S
Nd240 C242 2.836 . S
Nd240 O260 2.500 . S
Nd240 O261 2.492 . S
Nd240 O262 2.487 . S
Nd240 O263 2.682 . S
Nd240 O264 2.410 . S
Nd240 O269 2.414 . S
Nd240 O271 2.424 . S
Nd241 C251 2.836 . S
Nd241 O263 2.414 . S
Nd241 O265 2.424 . S
Nd241 O266 2.500 . S
Nd241 O267 2.492 . S
Nd241 O268 2.487 . S
Nd241 O269 2.682 . S
Nd241 O270 2.410 . S
C242 Nd240 2.836 . S
C242 C243 1.498 . S
C242 O260 1.258 . S
C242 O261 1.239 . S
C243 C242 1.498 . S
C243 C244 1.366 . S
C243 C248 1.407 . S
C244 C243 1.366 . S
C244 C245 1.392 . S
C244 H272 0.930 . S
C245 C244 1.392 . S
C245 C246 1.398 . S
C245 H273 0.929 . S
C246 C245 1.398 . S
C246 C247 1.352 . S
C247 C246 1.352 . S
C247 C248 1.384 . S
C247 H274 0.930 . S
C248 C243 1.407 . S
C248 C247 1.384 . S
C248 H275 0.929 . S
C249 O262 1.241 . S
C249 O263 1.273 . S
C250 O264 1.251 . S
C250 O265 1.268 . S
C251 Nd241 2.836 . S
C251 C252 1.498 . S
C251 O266 1.258 . S
C251 O267 1.239 . S
C252 C251 1.498 . S
C252 C253 1.366 . S
C252 C257 1.407 . S
C253 C252 1.366 . S
C253 C254 1.392 . S
C253 H276 0.930 . S
C254 C253 1.392 . S
C254 C255 1.398 . S
C254 H277 0.929 . S
C255 C254 1.398 . S
C255 C256 1.352 . S
C256 C255 1.352 . S
C256 C257 1.384 . S
C256 H278 0.930 . S
C257 C252 1.407 . S
C257 C256 1.384 . S
C257 H279 0.929 . S
C258 O268 1.241 . S
C258 O269 1.273 . S
C259 O270 1.251 . S
C259 O271 1.268 . S
O260 Nd240 2.500 . S
O260 C242 1.258 . S
O261 Nd240 2.492 . S
O261 C242 1.239 . S
O262 Nd240 2.487 . S
O262 C249 1.241 . S
O263 Nd240 2.682 . S
O263 Nd241 2.414 . S
O263 C249 1.273 . S
O264 Nd240 2.410 . S
O264 C250 1.251 . S
O265 Nd241 2.424 . S
O265 C250 1.268 . S
O266 Nd241 2.500 . S
O266 C251 1.258 . S
O267 Nd241 2.492 . S
O267 C251 1.239 . S
O268 Nd241 2.487 . S
O268 C258 1.241 . S
O269 Nd240 2.414 . S
O269 Nd241 2.682 . S
O269 C258 1.273 . S
O270 Nd241 2.410 . S
O270 C259 1.251 . S
O271 Nd240 2.424 . S
O271 C259 1.268 . S
H272 C244 0.930 . S
H273 C245 0.929 . S
H274 C247 0.930 . S
H275 C248 0.929 . S
H276 C253 0.930 . S
H277 C254 0.929 . S
H278 C256 0.930 . S
H279 C257 0.929 . S
Nd280 C282 2.836 . S
Nd280 O300 2.500 . S
Nd280 O301 2.492 . S
Nd280 O302 2.487 . S
Nd280 O303 2.682 . S
Nd280 O304 2.410 . S
Nd280 O309 2.414 . S
Nd280 O311 2.424 . S
Nd281 C291 2.836 . S
Nd281 O303 2.414 . S
Nd281 O305 2.424 . S
Nd281 O306 2.500 . S
Nd281 O307 2.492 . S
Nd281 O308 2.487 . S
Nd281 O309 2.682 . S
Nd281 O310 2.410 . S
C282 Nd280 2.836 . S
C282 C283 1.498 . S
C282 O300 1.258 . S
C282 O301 1.239 . S
C283 C282 1.498 . S
C283 C284 1.366 . S
C283 C288 1.407 . S
C284 C283 1.366 . S
C284 C285 1.392 . S
C284 H312 0.930 . S
C285 C284 1.392 . S
C285 C286 1.398 . S
C285 H313 0.929 . S
C286 C285 1.398 . S
C286 C287 1.352 . S
C287 C286 1.352 . S
C287 C288 1.384 . S
C287 H314 0.930 . S
C288 C283 1.407 . S
C288 C287 1.384 . S
C288 H315 0.929 . S
C289 O302 1.241 . S
C289 O303 1.273 . S
C290 O304 1.251 . S
C290 O305 1.268 . S
C291 Nd281 2.836 . S
C291 C292 1.498 . S
C291 O306 1.258 . S
C291 O307 1.239 . S
C292 C291 1.498 . S
C292 C293 1.366 . S
C292 C297 1.407 . S
C293 C292 1.366 . S
C293 C294 1.392 . S
C293 H316 0.930 . S
C294 C293 1.392 . S
C294 C295 1.398 . S
C294 H317 0.929 . S
C295 C294 1.398 . S
C295 C296 1.352 . S
C296 C295 1.352 . S
C296 C297 1.384 . S
C296 H318 0.930 . S
C297 C292 1.407 . S
C297 C296 1.384 . S
C297 H319 0.929 . S
C298 O308 1.241 . S
C298 O309 1.273 . S
C299 O310 1.251 . S
C299 O311 1.268 . S
O300 Nd280 2.500 . S
O300 C282 1.258 . S
O301 Nd280 2.492 . S
O301 C282 1.239 . S
O302 Nd280 2.487 . S
O302 C289 1.241 . S
O303 Nd280 2.682 . S
O303 Nd281 2.414 . S
O303 C289 1.273 . S
O304 Nd280 2.410 . S
O304 C290 1.251 . S
O305 Nd281 2.424 . S
O305 C290 1.268 . S
O306 Nd281 2.500 . S
O306 C291 1.258 . S
O307 Nd281 2.492 . S
O307 C291 1.239 . S
O308 Nd281 2.487 . S
O308 C298 1.241 . S
O309 Nd280 2.414 . S
O309 Nd281 2.682 . S
O309 C298 1.273 . S
O310 Nd281 2.410 . S
O310 C299 1.251 . S
O311 Nd280 2.424 . S
O311 C299 1.268 . S
H312 C284 0.930 . S
H313 C285 0.929 . S
H314 C287 0.930 . S
H315 C288 0.929 . S
H316 C293 0.930 . S
H317 C294 0.929 . S
H318 C296 0.930 . S
H319 C297 0.929 . S
Nd320 C322 2.836 . S
Nd320 O340 2.500 . S
Nd320 O341 2.492 . S
Nd320 O342 2.487 . S
Nd320 O343 2.682 . S
Nd320 O344 2.410 . S
Nd320 O349 2.414 . S
Nd320 O351 2.424 . S
Nd321 C331 2.836 . S
Nd321 O343 2.414 . S
Nd321 O345 2.424 . S
Nd321 O346 2.500 . S
Nd321 O347 2.492 . S
Nd321 O348 2.487 . S
Nd321 O349 2.682 . S
Nd321 O350 2.410 . S
C322 Nd320 2.836 . S
C322 C323 1.498 . S
C322 O340 1.258 . S
C322 O341 1.239 . S
C323 C322 1.498 . S
C323 C324 1.366 . S
C323 C328 1.407 . S
C324 C323 1.366 . S
C324 C325 1.392 . S
C324 H352 0.930 . S
C325 C324 1.392 . S
C325 C326 1.398 . S
C325 H353 0.929 . S
C326 C325 1.398 . S
C326 C327 1.352 . S
C327 C326 1.352 . S
C327 C328 1.384 . S
C327 H354 0.930 . S
C328 C323 1.407 . S
C328 C327 1.384 . S
C328 H355 0.929 . S
C329 O342 1.241 . S
C329 O343 1.273 . S
C330 O344 1.251 . S
C330 O345 1.268 . S
C331 Nd321 2.836 . S
C331 C332 1.498 . S
C331 O346 1.258 . S
C331 O347 1.239 . S
C332 C331 1.498 . S
C332 C333 1.366 . S
C332 C337 1.407 . S
C333 C332 1.366 . S
C333 C334 1.392 . S
C333 H356 0.930 . S
C334 C333 1.392 . S
C334 C335 1.398 . S
C334 H357 0.929 . S
C335 C334 1.398 . S
C335 C336 1.352 . S
C336 C335 1.352 . S
C336 C337 1.384 . S
C336 H358 0.930 . S
C337 C332 1.407 . S
C337 C336 1.384 . S
C337 H359 0.929 . S
C338 O348 1.241 . S
C338 O349 1.273 . S
C339 O350 1.251 . S
C339 O351 1.268 . S
O340 Nd320 2.500 . S
O340 C322 1.258 . S
O341 Nd320 2.492 . S
O341 C322 1.239 . S
O342 Nd320 2.487 . S
O342 C329 1.241 . S
O343 Nd320 2.682 . S
O343 Nd321 2.414 . S
O343 C329 1.273 . S
O344 Nd320 2.410 . S
O344 C330 1.251 . S
O345 Nd321 2.424 . S
O345 C330 1.268 . S
O346 Nd321 2.500 . S
O346 C331 1.258 . S
O347 Nd321 2.492 . S
O347 C331 1.239 . S
O348 Nd321 2.487 . S
O348 C338 1.241 . S
O349 Nd320 2.414 . S
O349 Nd321 2.682 . S
O349 C338 1.273 . S
O350 Nd321 2.410 . S
O350 C339 1.251 . S
O351 Nd320 2.424 . S
O351 C339 1.268 . S
H352 C324 0.930 . S
H353 C325 0.929 . S
H354 C327 0.930 . S
H355 C328 0.929 . S
H356 C333 0.930 . S
H357 C334 0.929 . S
H358 C336 0.930 . S
H359 C337 0.929 . S
C360 C361 1.335 1_554 S
C360 C362 1.327 . S
C360 H385 0.950 . S
C361 C360 1.335 1_556 S
C361 C377 1.363 . S
C362 C360 1.327 . S
C362 C381 1.429 1_554 S
C362 H386 0.950 . S
C363 C380 1.574 . S
C363 C382 1.368 . S
C363 H387 0.949 . S
H364 C368 0.949 . S
C365 C366 1.349 . S
C365 C367 1.327 . S
C365 H388 0.950 . S
C366 C365 1.349 . S
C366 C378 1.349 1_556 S
C367 C365 1.327 . S
C367 C383 1.429 . S
C367 H389 0.950 . S
C368 H364 0.949 . S
C368 C376 1.574 . S
C368 C384 1.368 1_554 S
H369 C377 0.950 . S
H370 C375 0.950 . S
H371 C376 0.949 . S
H372 C378 0.950 . S
H373 C379 0.950 . S
H374 C380 0.949 . S
C375 H370 0.950 . S
C375 C377 1.327 . S
C375 C381 1.429 . S
C376 C368 1.574 . S
C376 H371 0.949 . S
C376 C382 1.368 1_554 S
C377 C361 1.363 . S
C377 H369 0.950 . S
C377 C375 1.327 . S
C378 C366 1.349 1_554 S
C378 H372 0.950 . S
C378 C379 1.327 . S
C379 H373 0.950 . S
C379 C378 1.327 . S
C379 C383 1.429 1_554 S
C380 C363 1.574 . S
C380 H374 0.949 . S
C380 C384 1.368 . S
C381 C362 1.429 1_556 S
C381 C375 1.429 . S
C381 C382 1.523 . S
C382 C363 1.368 . S
C382 C376 1.368 1_556 S
C382 C381 1.523 . S
C383 C367 1.429 . S
C383 C379 1.429 1_556 S
C383 C384 1.523 . S
C384 C368 1.368 1_556 S
C384 C380 1.368 . S
C384 C383 1.523 . S
H385 C360 0.950 . S
H386 C362 0.950 . S
H387 C363 0.949 . S
H388 C365 0.950 . S
H389 C367 0.950 . S
C390 C391 1.338 1_554 S
C390 C392 1.327 . S
C390 H415 0.950 . S
C391 C390 1.338 1_556 S
C391 C407 1.361 . S
C392 C390 1.327 . S
C392 C411 1.429 1_554 S
C392 H416 0.950 . S
C393 C410 1.574 . S
C393 C412 1.368 . S
C393 H417 0.949 . S
H394 C398 0.949 . S
C395 C396 1.349 . S
C395 C397 1.327 . S
C395 H418 0.950 . S
C396 C395 1.349 . S
C396 C408 1.349 1_556 S
C397 C395 1.327 . S
C397 C413 1.429 . S
C397 H419 0.950 . S
C398 H394 0.949 . S
C398 C406 1.574 . S
C398 C414 1.368 1_554 S
H399 C407 0.950 . S
H400 C405 0.950 . S
H401 C406 0.949 . S
H402 C408 0.950 . S
H403 C409 0.950 . S
H404 C410 0.949 . S
C405 H400 0.950 . S
C405 C407 1.327 . S
C405 C411 1.429 . S
C406 C398 1.574 . S
C406 H401 0.949 . S
C406 C412 1.368 1_554 S
C407 C391 1.361 . S
C407 H399 0.950 . S
C407 C405 1.327 . S
C408 C396 1.349 1_554 S
C408 H402 0.950 . S
C408 C409 1.327 . S
C409 H403 0.950 . S
C409 C408 1.327 . S
C409 C413 1.429 1_554 S
C410 C393 1.574 . S
C410 H404 0.949 . S
C410 C414 1.368 . S
C411 C392 1.429 1_556 S
C411 C405 1.429 . S
C411 C412 1.523 . S
C412 C393 1.368 . S
C412 C406 1.368 1_556 S
C412 C411 1.523 . S
C413 C397 1.429 . S
C413 C409 1.429 1_556 S
C413 C414 1.523 . S
C414 C398 1.368 1_556 S
C414 C410 1.368 . S
C414 C413 1.523 . S
H415 C390 0.950 . S
H416 C392 0.950 . S
H417 C393 0.949 . S
H418 C395 0.950 . S
H419 C397 0.950 . S
C420 C421 1.349 . S
C420 C422 1.327 . S
C420 H445 0.950 . S
C421 C420 1.349 . S
C421 C437 1.356 . S
C422 C420 1.327 . S
C422 C441 1.429 . S
C422 H446 0.950 . S
C423 C440 1.574 . S
C423 C442 1.368 1_554 S
C423 H447 0.949 . S
H424 C428 0.949 . S
C425 C426 1.345 1_554 S
C425 C427 1.327 . S
C425 H448 0.950 . S
C426 C425 1.345 1_556 S
C426 C438 1.354 . S
C427 C425 1.327 . S
C427 C443 1.429 1_554 S
C427 H449 0.950 . S
C428 H424 0.949 . S
C428 C436 1.574 . S
C428 C444 1.368 . S
H429 C437 0.944 1_554 S
H430 C435 0.953 . S
H431 C436 0.949 . S
H432 C438 0.950 . S
H433 C439 0.950 . S
H434 C440 0.949 . S
C435 H430 0.953 . S
C435 C437 1.326 1_554 S
C435 C441 1.426 1_554 S
C436 C428 1.574 . S
C436 H431 0.949 . S
C436 C442 1.368 . S
C437 C421 1.356 . S
C437 H429 0.944 1_556 S
C437 C435 1.326 1_556 S
C438 C426 1.354 . S
C438 H432 0.950 . S
C438 C439 1.327 . S
C439 H433 0.950 . S
C439 C438 1.327 . S
C439 C443 1.429 . S
C440 C423 1.574 . S
C440 H434 0.949 . S
C440 C444 1.368 1_554 S
C441 C422 1.429 . S
C441 C435 1.426 1_556 S
C441 C442 1.523 . S
C442 C423 1.368 1_556 S
C442 C436 1.368 . S
C442 C441 1.523 . S
C443 C427 1.429 1_556 S
C443 C439 1.429 . S
C443 C444 1.523 . S
C444 C428 1.368 . S
C444 C440 1.368 1_556 S
C444 C443 1.523 . S
H445 C420 0.950 . S
H446 C422 0.950 . S
H447 C423 0.949 . S
H448 C425 0.950 . S
H449 C427 0.950 . S
C450 C451 1.349 . S
C450 C452 1.327 . S
C450 H475 0.950 . S
C451 C450 1.349 . S
C451 C467 1.349 1_554 S
C452 C450 1.327 . S
C452 C471 1.429 . S
C452 H476 0.950 . S
C453 C470 1.574 . S
C453 C472 1.368 1_556 S
C453 H477 0.949 . S
H454 C458 0.949 . S
C455 C456 1.349 1_556 S
C455 C457 1.327 . S
C455 H478 0.950 . S
C456 C455 1.349 1_554 S
C456 C468 1.349 . S
C457 C455 1.327 . S
C457 C473 1.429 1_556 S
C457 H479 0.950 . S
C458 H454 0.949 . S
C458 C466 1.574 . S
C458 C474 1.368 . S
H459 C467 0.950 . S
H460 C465 0.950 . S
H461 C466 0.949 . S
H462 C468 0.950 . S
H463 C469 0.950 . S
H464 C470 0.949 . S
C465 H460 0.950 . S
C465 C467 1.327 . S
C465 C471 1.429 1_556 S
C466 C458 1.574 . S
C466 H461 0.949 . S
C466 C472 1.368 . S
C467 C451 1.349 1_556 S
C467 H459 0.950 . S
C467 C465 1.327 . S
C468 C456 1.349 . S
C468 H462 0.950 . S
C468 C469 1.327 . S
C469 H463 0.950 . S
C469 C468 1.327 . S
C469 C473 1.429 . S
C470 C453 1.574 . S
C470 H464 0.949 . S
C470 C474 1.368 1_556 S
C471 C452 1.429 . S
C471 C465 1.429 1_554 S
C471 C472 1.523 . S
C472 C453 1.368 1_554 S
C472 C466 1.368 . S
C472 C471 1.523 . S
C473 C457 1.429 1_554 S
C473 C469 1.429 . S
C473 C474 1.523 . S
C474 C458 1.368 . S
C474 C470 1.368 1_554 S
C474 C473 1.523 . S
H475 C450 0.950 . S
H476 C452 0.950 . S
H477 C453 0.949 . S
H478 C455 0.950 . S
H479 C457 0.950 . S
C480 C481 1.349 1_556 S
C480 C482 1.327 . S
C480 H505 0.950 . S
C481 C480 1.349 1_554 S
C481 C497 1.349 . S
C482 C480 1.327 . S
C482 C501 1.429 1_556 S
C482 H506 0.950 . S
C483 C500 1.574 . S
C483 C502 1.368 . S
C483 H507 0.949 . S
H484 C488 0.949 . S
C485 C486 1.349 . S
C485 C487 1.327 . S
C485 H508 0.950 . S
C486 C485 1.349 . S
C486 C498 1.349 1_554 S
C487 C485 1.327 . S
C487 C503 1.429 . S
C487 H509 0.950 . S
C488 H484 0.949 . S
C488 C496 1.574 . S
C488 C504 1.368 1_556 S
H489 C497 0.950 . S
H490 C495 0.950 . S
H491 C496 0.949 . S
H492 C498 0.950 . S
H493 C499 0.950 . S
H494 C500 0.949 . S
C495 H490 0.950 . S
C495 C497 1.327 . S
C495 C501 1.429 . S
C496 C488 1.574 . S
C496 H491 0.949 . S
C496 C502 1.368 1_556 S
C497 C481 1.349 . S
C497 H489 0.950 . S
C497 C495 1.327 . S
C498 C486 1.349 1_556 S
C498 H492 0.950 . S
C498 C499 1.327 . S
C499 H493 0.950 . S
C499 C498 1.327 . S
C499 C503 1.429 1_556 S
C500 C483 1.574 . S
C500 H494 0.949 . S
C500 C504 1.368 . S
C501 C482 1.429 1_554 S
C501 C495 1.429 . S
C501 C502 1.523 . S
C502 C483 1.368 . S
C502 C496 1.368 1_554 S
C502 C501 1.523 . S
C503 C487 1.429 . S
C503 C499 1.429 1_554 S
C503 C504 1.523 . S
C504 C488 1.368 1_554 S
C504 C500 1.368 . S
C504 C503 1.523 . S
H505 C480 0.950 . S
H506 C482 0.950 . S
H507 C483 0.949 . S
H508 C485 0.950 . S
H509 C487 0.950 . S
C510 C511 1.349 1_556 S
C510 C512 1.327 . S
C510 H535 0.950 . S
C511 C510 1.349 1_554 S
C511 C527 1.349 . S
C512 C510 1.327 . S
C512 C531 1.429 1_556 S
C512 H536 0.950 . S
C513 C530 1.574 . S
C513 C532 1.368 . S
C513 H537 0.949 . S
H514 C518 0.949 . S
C515 C516 1.349 . S
C515 C517 1.327 . S
C515 H538 0.950 . S
C516 C515 1.349 . S
C516 C528 1.349 1_554 S
C517 C515 1.327 . S
C517 C533 1.429 . S
C517 H539 0.950 . S
C518 H514 0.949 . S
C518 C526 1.574 . S
C518 C534 1.368 1_556 S
H519 C527 0.950 . S
H520 C525 0.950 . S
H521 C526 0.949 . S
H522 C528 0.950 . S
H523 C529 0.950 . S
H524 C530 0.949 . S
C525 H520 0.950 . S
C525 C527 1.327 . S
C525 C531 1.429 . S
C526 C518 1.574 . S
C526 H521 0.949 . S
C526 C532 1.368 1_556 S
C527 C511 1.349 . S
C527 H519 0.950 . S
C527 C525 1.327 . S
C528 C516 1.349 1_556 S
C528 H522 0.950 . S
C528 C529 1.327 . S
C529 H523 0.950 . S
C529 C528 1.327 . S
C529 C533 1.429 1_556 S
C530 C513 1.574 . S
C530 H524 0.949 . S
C530 C534 1.368 . S
C531 C512 1.429 1_554 S
C531 C525 1.429 . S
C531 C532 1.523 . S
C532 C513 1.368 . S
C532 C526 1.368 1_554 S
C532 C531 1.523 . S
C533 C517 1.429 . S
C533 C529 1.429 1_554 S
C533 C534 1.523 . S
C534 C518 1.368 1_554 S
C534 C530 1.368 . S
C534 C533 1.523 . S
H535 C510 0.950 . S
H536 C512 0.950 . S
H537 C513 0.949 . S
H538 C515 0.950 . S
H539 C517 0.950 . S
C540 C541 1.349 . S
C540 C542 1.327 . S
C540 H565 0.950 . S
C541 C540 1.349 . S
C541 C557 1.349 . S
C542 C540 1.327 . S
C542 C561 1.429 . S
C542 H566 0.950 . S
C543 C560 1.574 1_655 S
C543 C562 1.368 . S
C543 H567 0.949 . S
H544 C548 0.949 . S
C545 C546 1.349 . S
C545 C547 1.327 . S
C545 H568 0.950 . S
C546 C545 1.349 . S
C546 C558 1.349 . S
C547 C545 1.327 . S
C547 C563 1.429 . S
C547 H569 0.950 . S
C548 H544 0.949 . S
C548 C556 1.574 1_455 S
C548 C564 1.368 . S
H549 C557 0.950 . S
H550 C555 0.950 . S
H551 C556 0.949 . S
H552 C558 0.950 . S
H553 C559 0.950 . S
H554 C560 0.949 . S
C555 H550 0.950 . S
C555 C557 1.327 . S
C555 C561 1.429 . S
C556 C548 1.574 1_655 S
C556 H551 0.949 . S
C556 C562 1.368 . S
C557 C541 1.349 . S
C557 H549 0.950 . S
C557 C555 1.327 . S
C558 C546 1.349 . S
C558 H552 0.950 . S
C558 C559 1.327 . S
C559 H553 0.950 . S
C559 C558 1.327 . S
C559 C563 1.429 . S
C560 C543 1.574 1_455 S
C560 H554 0.949 . S
C560 C564 1.368 . S
C561 C542 1.429 . S
C561 C555 1.429 . S
C561 C562 1.523 . S
C562 C543 1.368 . S
C562 C556 1.368 . S
C562 C561 1.523 . S
C563 C547 1.429 . S
C563 C559 1.429 . S
C563 C564 1.523 . S
C564 C548 1.368 . S
C564 C560 1.368 . S
C564 C563 1.523 . S
H565 C540 0.950 . S
H566 C542 0.950 . S
H567 C543 0.949 . S
H568 C545 0.950 . S
H569 C547 0.950 . S
C570 C571 1.349 . S
C570 C572 1.327 . S
C570 H595 0.950 . S
C571 C570 1.349 . S
C571 C587 1.349 . S
C572 C570 1.327 . S
C572 C591 1.429 . S
C572 H596 0.950 . S
C573 C590 1.574 . S
C573 C592 1.368 . S
C573 H597 0.949 . S
H574 C578 0.949 . S
C575 C576 1.349 . S
C575 C577 1.327 . S
C575 H598 0.950 . S
C576 C575 1.349 . S
C576 C588 1.349 . S
C577 C575 1.327 . S
C577 C593 1.429 . S
C577 H599 0.950 . S
C578 H574 0.949 . S
C578 C586 1.574 . S
C578 C594 1.368 . S
H579 C587 0.950 . S
H580 C585 0.950 . S
H581 C586 0.949 . S
H582 C588 0.950 . S
H583 C589 0.950 . S
H584 C590 0.949 . S
C585 H580 0.950 . S
C585 C587 1.327 . S
C585 C591 1.429 . S
C586 C578 1.574 . S
C586 H581 0.949 . S
C586 C592 1.368 . S
C587 C571 1.349 . S
C587 H579 0.950 . S
C587 C585 1.327 . S
C588 C576 1.349 . S
C588 H582 0.950 . S
C588 C589 1.327 . S
C589 H583 0.950 . S
C589 C588 1.327 . S
C589 C593 1.429 . S
C590 C573 1.574 . S
C590 H584 0.949 . S
C590 C594 1.368 . S
C591 C572 1.429 . S
C591 C585 1.429 . S
C591 C592 1.523 . S
C592 C573 1.368 . S
C592 C586 1.368 . S
C592 C591 1.523 . S
C593 C577 1.429 . S
C593 C589 1.429 . S
C593 C594 1.523 . S
C594 C578 1.368 . S
C594 C590 1.368 . S
C594 C593 1.523 . S
H595 C570 0.950 . S
H596 C572 0.950 . S
H597 C573 0.949 . S
H598 C575 0.950 . S
H599 C577 0.950 . S
C600 C601 1.349 . S
C600 C602 1.327 . S
C600 H625 0.950 . S
C601 C600 1.349 . S
C601 C617 1.349 . S
C602 C600 1.327 . S
C602 C621 1.429 . S
C602 H626 0.950 . S
C603 C620 1.574 1_545 S
C603 C622 1.368 . S
C603 H627 0.949 . S
H604 C608 0.949 . S
C605 C606 1.349 . S
C605 C607 1.327 . S
C605 H628 0.950 . S
C606 C605 1.349 . S
C606 C618 1.349 . S
C607 C605 1.327 . S
C607 C623 1.429 . S
C607 H629 0.950 . S
C608 H604 0.949 . S
C608 C616 1.574 1_565 S
C608 C624 1.368 . S
H609 C617 0.950 . S
H610 C615 0.950 . S
H611 C616 0.949 . S
H612 C618 0.950 . S
H613 C619 0.950 . S
H614 C620 0.949 . S
C615 H610 0.950 . S
C615 C617 1.327 . S
C615 C621 1.429 . S
C616 C608 1.574 1_545 S
C616 H611 0.949 . S
C616 C622 1.368 . S
C617 C601 1.349 . S
C617 H609 0.950 . S
C617 C615 1.327 . S
C618 C606 1.349 . S
C618 H612 0.950 . S
C618 C619 1.327 . S
C619 H613 0.950 . S
C619 C618 1.327 . S
C619 C623 1.429 . S
C620 C603 1.574 1_565 S
C620 H614 0.949 . S
C620 C624 1.368 . S
C621 C602 1.429 . S
C621 C615 1.429 . S
C621 C622 1.523 . S
C622 C603 1.368 . S
C622 C616 1.368 . S
C622 C621 1.523 . S
C623 C607 1.429 . S
C623 C619 1.429 . S
C623 C624 1.523 . S
C624 C608 1.368 . S
C624 C620 1.368 . S
C624 C623 1.523 . S
H625 C600 0.950 . S
H626 C602 0.950 . S
H627 C603 0.949 . S
H628 C605 0.950 . S
H629 C607 0.950 . S
C630 C631 1.349 . S
C630 C632 1.327 . S
C630 H655 0.950 . S
C631 C630 1.349 . S
C631 C647 1.349 . S
C632 C630 1.327 . S
C632 C651 1.429 . S
C632 H656 0.950 . S
C633 C650 1.574 . S
C633 C652 1.368 . S
C633 H657 0.949 . S
H634 C638 0.949 . S
C635 C636 1.349 . S
C635 C637 1.327 . S
C635 H658 0.950 . S
C636 C635 1.349 . S
C636 C648 1.349 . S
C637 C635 1.327 . S
C637 C653 1.429 . S
C637 H659 0.950 . S
C638 H634 0.949 . S
C638 C646 1.574 . S
C638 C654 1.368 . S
H639 C647 0.950 . S
H640 C645 0.950 . S
H641 C646 0.949 . S
H642 C648 0.950 . S
H643 C649 0.950 . S
H644 C650 0.949 . S
C645 H640 0.950 . S
C645 C647 1.327 . S
C645 C651 1.429 . S
C646 C638 1.574 . S
C646 H641 0.949 . S
C646 C652 1.368 . S
C647 C631 1.349 . S
C647 H639 0.950 . S
C647 C645 1.327 . S
C648 C636 1.349 . S
C648 H642 0.950 . S
C648 C649 1.327 . S
C649 H643 0.950 . S
C649 C648 1.327 . S
C649 C653 1.429 . S
C650 C633 1.574 . S
C650 H644 0.949 . S
C650 C654 1.368 . S
C651 C632 1.429 . S
C651 C645 1.429 . S
C651 C652 1.523 . S
C652 C633 1.368 . S
C652 C646 1.368 . S
C652 C651 1.523 . S
C653 C637 1.429 . S
C653 C649 1.429 . S
C653 C654 1.523 . S
C654 C638 1.368 . S
C654 C650 1.368 . S
C654 C653 1.523 . S
H655 C630 0.950 . S
H656 C632 0.950 . S
H657 C633 0.949 . S
H658 C635 0.950 . S
H659 C637 0.950 . S
C660 C661 1.349 . S
C660 C662 1.327 . S
C660 H685 0.950 . S
C661 C660 1.349 . S
C661 C677 1.349 . S
C662 C660 1.327 . S
C662 C681 1.429 . S
C662 H686 0.950 . S
C663 C680 1.574 . S
C663 C682 1.368 . S
C663 H687 0.949 . S
H664 C668 0.949 . S
C665 C666 1.349 . S
C665 C667 1.327 . S
C665 H688 0.950 . S
C666 C665 1.349 . S
C666 C678 1.349 . S
C667 C665 1.327 . S
C667 C683 1.429 . S
C667 H689 0.950 . S
C668 H664 0.949 . S
C668 C676 1.574 . S
C668 C684 1.368 . S
H669 C677 0.950 . S
H670 C675 0.950 . S
H671 C676 0.949 . S
H672 C678 0.950 . S
H673 C679 0.950 . S
H674 C680 0.949 . S
C675 H670 0.950 . S
C675 C677 1.327 . S
C675 C681 1.429 . S
C676 C668 1.574 . S
C676 H671 0.949 . S
C676 C682 1.368 . S
C677 C661 1.349 . S
C677 H669 0.950 . S
C677 C675 1.327 . S
C678 C666 1.349 . S
C678 H672 0.950 . S
C678 C679 1.327 . S
C679 H673 0.950 . S
C679 C678 1.327 . S
C679 C683 1.429 . S
C680 C663 1.574 . S
C680 H674 0.949 . S
C680 C684 1.368 . S
C681 C662 1.429 . S
C681 C675 1.429 . S
C681 C682 1.523 . S
C682 C663 1.368 . S
C682 C676 1.368 . S
C682 C681 1.523 . S
C683 C667 1.429 . S
C683 C679 1.429 . S
C683 C684 1.523 . S
C684 C668 1.368 . S
C684 C680 1.368 . S
C684 C683 1.523 . S
H685 C660 0.950 . S
H686 C662 0.950 . S
H687 C663 0.949 . S
H688 C665 0.950 . S
H689 C667 0.950 . S
C690 C691 1.349 . S
C690 C692 1.327 . S
C690 H715 0.950 . S
C691 C690 1.349 . S
C691 C707 1.349 . S
C692 C690 1.327 . S
C692 C711 1.429 . S
C692 H716 0.950 . S
C693 C710 1.574 . S
C693 C712 1.368 . S
C693 H717 0.949 . S
H694 C698 0.949 . S
C695 C696 1.349 . S
C695 C697 1.327 . S
C695 H718 0.950 . S
C696 C695 1.349 . S
C696 C708 1.349 . S
C697 C695 1.327 . S
C697 C713 1.429 . S
C697 H719 0.950 . S
C698 H694 0.949 . S
C698 C706 1.574 . S
C698 C714 1.368 . S
H699 C707 0.950 . S
H700 C705 0.950 . S
H701 C706 0.949 . S
H702 C708 0.950 . S
H703 C709 0.950 . S
H704 C710 0.949 . S
C705 H700 0.950 . S
C705 C707 1.327 . S
C705 C711 1.429 . S
C706 C698 1.574 . S
C706 H701 0.949 . S
C706 C712 1.368 . S
C707 C691 1.349 . S
C707 H699 0.950 . S
C707 C705 1.327 . S
C708 C696 1.349 . S
C708 H702 0.950 . S
C708 C709 1.327 . S
C709 H703 0.950 . S
C709 C708 1.327 . S
C709 C713 1.429 . S
C710 C693 1.574 . S
C710 H704 0.949 . S
C710 C714 1.368 . S
C711 C692 1.429 . S
C711 C705 1.429 . S
C711 C712 1.523 . S
C712 C693 1.368 . S
C712 C706 1.368 . S
C712 C711 1.523 . S
C713 C697 1.429 . S
C713 C709 1.429 . S
C713 C714 1.523 . S
C714 C698 1.368 . S
C714 C710 1.368 . S
C714 C713 1.523 . S
H715 C690 0.950 . S
H716 C692 0.950 . S
H717 C693 0.949 . S
H718 C695 0.950 . S
H719 C697 0.950 . S
C720 C721 1.349 . S
C720 C722 1.327 . S
C720 H745 0.950 . S
C721 C720 1.349 . S
C721 C737 1.349 . S
C722 C720 1.327 . S
C722 C741 1.429 . S
C722 H746 0.950 . S
C723 C740 1.574 . S
C723 C742 1.368 . S
C723 H747 0.949 . S
H724 C728 0.949 . S
C725 C726 1.349 . S
C725 C727 1.327 . S
C725 H748 0.950 . S
C726 C725 1.349 . S
C726 C738 1.349 . S
C727 C725 1.327 . S
C727 C743 1.429 . S
C727 H749 0.950 . S
C728 H724 0.949 . S
C728 C736 1.574 . S
C728 C744 1.368 . S
H729 C737 0.950 . S
H730 C735 0.950 . S
H731 C736 0.949 . S
H732 C738 0.950 . S
H733 C739 0.950 . S
H734 C740 0.949 . S
C735 H730 0.950 . S
C735 C737 1.327 . S
C735 C741 1.429 . S
C736 C728 1.574 . S
C736 H731 0.949 . S
C736 C742 1.368 . S
C737 C721 1.349 . S
C737 H729 0.950 . S
C737 C735 1.327 . S
C738 C726 1.349 . S
C738 H732 0.950 . S
C738 C739 1.327 . S
C739 H733 0.950 . S
C739 C738 1.327 . S
C739 C743 1.429 . S
C740 C723 1.574 . S
C740 H734 0.949 . S
C740 C744 1.368 . S
C741 C722 1.429 . S
C741 C735 1.429 . S
C741 C742 1.523 . S
C742 C723 1.368 . S
C742 C736 1.368 . S
C742 C741 1.523 . S
C743 C727 1.429 . S
C743 C739 1.429 . S
C743 C744 1.523 . S
C744 C728 1.368 . S
C744 C740 1.368 . S
C744 C743 1.523 . S
H745 C720 0.950 . S
H746 C722 0.950 . S
H747 C723 0.949 . S
H748 C725 0.950 . S
H749 C727 0.950 . S
C750 C751 1.349 . S
C750 C752 1.327 . S
C750 H775 0.950 . S
C751 C750 1.349 . S
C751 C767 1.349 . S
C752 C750 1.327 . S
C752 C771 1.429 . S
C752 H776 0.950 . S
C753 C770 1.574 . S
C753 C772 1.368 . S
C753 H777 0.949 . S
H754 C758 0.949 . S
C755 C756 1.349 . S
C755 C757 1.327 . S
C755 H778 0.950 . S
C756 C755 1.349 . S
C756 C768 1.349 . S
C757 C755 1.327 . S
C757 C773 1.429 . S
C757 H779 0.950 . S
C758 H754 0.949 . S
C758 C766 1.574 . S
C758 C774 1.368 . S
H759 C767 0.950 . S
H760 C765 0.950 . S
H761 C766 0.949 . S
H762 C768 0.950 . S
H763 C769 0.950 . S
H764 C770 0.949 . S
C765 H760 0.950 . S
C765 C767 1.327 . S
C765 C771 1.429 . S
C766 C758 1.574 . S
C766 H761 0.949 . S
C766 C772 1.368 . S
C767 C751 1.349 . S
C767 H759 0.950 . S
C767 C765 1.327 . S
C768 C756 1.349 . S
C768 H762 0.950 . S
C768 C769 1.327 . S
C769 H763 0.950 . S
C769 C768 1.327 . S
C769 C773 1.429 . S
C770 C753 1.574 . S
C770 H764 0.949 . S
C770 C774 1.368 . S
C771 C752 1.429 . S
C771 C765 1.429 . S
C771 C772 1.523 . S
C772 C753 1.368 . S
C772 C766 1.368 . S
C772 C771 1.523 . S
C773 C757 1.429 . S
C773 C769 1.429 . S
C773 C774 1.523 . S
C774 C758 1.368 . S
C774 C770 1.368 . S
C774 C773 1.523 . S
H775 C750 0.950 . S
H776 C752 0.950 . S
H777 C753 0.949 . S
H778 C755 0.950 . S
H779 C757 0.950 . S
C780 C781 1.349 . S
C780 C782 1.327 . S
C780 H805 0.950 . S
C781 C780 1.349 . S
C781 C797 1.349 . S
C782 C780 1.327 . S
C782 C801 1.429 . S
C782 H806 0.950 . S
C783 C800 1.574 . S
C783 C802 1.368 . S
C783 H807 0.949 . S
H784 C788 0.949 . S
C785 C786 1.349 . S
C785 C787 1.327 . S
C785 H808 0.950 . S
C786 C785 1.349 . S
C786 C798 1.349 . S
C787 C785 1.327 . S
C787 C803 1.429 . S
C787 H809 0.950 . S
C788 H784 0.949 . S
C788 C796 1.574 . S
C788 C804 1.368 . S
H789 C797 0.950 . S
H790 C795 0.950 . S
H791 C796 0.949 . S
H792 C798 0.950 . S
H793 C799 0.950 . S
H794 C800 0.949 . S
C795 H790 0.950 . S
C795 C797 1.327 . S
C795 C801 1.429 . S
C796 C788 1.574 . S
C796 H791 0.949 . S
C796 C802 1.368 . S
C797 C781 1.349 . S
C797 H789 0.950 . S
C797 C795 1.327 . S
C798 C786 1.349 . S
C798 H792 0.950 . S
C798 C799 1.327 . S
C799 H793 0.950 . S
C799 C798 1.327 . S
C799 C803 1.429 . S
C800 C783 1.574 . S
C800 H794 0.949 . S
C800 C804 1.368 . S
C801 C782 1.429 . S
C801 C795 1.429 . S
C801 C802 1.523 . S
C802 C783 1.368 . S
C802 C796 1.368 . S
C802 C801 1.523 . S
C803 C787 1.429 . S
C803 C799 1.429 . S
C803 C804 1.523 . S
C804 C788 1.368 . S
C804 C800 1.368 . S
C804 C803 1.523 . S
H805 C780 0.950 . S
H806 C782 0.950 . S
H807 C783 0.949 . S
H808 C785 0.950 . S
H809 C787 0.950 . S
C810 C811 1.349 . S
C810 C812 1.327 . S
C810 H835 0.950 . S
C811 C810 1.349 . S
C811 C827 1.349 . S
C812 C810 1.327 . S
C812 C831 1.429 . S
C812 H836 0.950 . S
C813 C830 1.574 . S
C813 C832 1.368 . S
C813 H837 0.949 . S
H814 C818 0.949 . S
C815 C816 1.349 . S
C815 C817 1.327 1_545 S
C815 H838 0.950 . S
C816 C815 1.349 . S
C816 C828 1.349 1_545 S
C817 C815 1.327 1_565 S
C817 C833 1.429 . S
C817 H839 0.950 . S
C818 H814 0.949 . S
C818 C826 1.574 . S
C818 C834 1.368 . S
H819 C827 0.950 . S
H820 C825 0.950 . S
H821 C826 0.949 . S
H822 C828 0.950 1_545 S
H823 C829 0.950 . S
H824 C830 0.949 . S
C825 H820 0.950 . S
C825 C827 1.327 . S
C825 C831 1.429 . S
C826 C818 1.574 . S
C826 H821 0.949 . S
C826 C832 1.368 . S
C827 C811 1.349 . S
C827 H819 0.950 . S
C827 C825 1.327 . S
C828 C816 1.349 1_565 S
C828 H822 0.950 1_565 S
C828 C829 1.327 . S
C829 H823 0.950 . S
C829 C828 1.327 . S
C829 C833 1.429 . S
C830 C813 1.574 . S
C830 H824 0.949 . S
C830 C834 1.368 . S
C831 C812 1.429 . S
C831 C825 1.429 . S
C831 C832 1.523 . S
C832 C813 1.368 . S
C832 C826 1.368 . S
C832 C831 1.523 . S
C833 C817 1.429 . S
C833 C829 1.429 . S
C833 C834 1.523 . S
C834 C818 1.368 . S
C834 C830 1.368 . S
C834 C833 1.523 . S
H835 C810 0.950 . S
H836 C812 0.950 . S
H837 C813 0.949 . S
H838 C815 0.950 . S
H839 C817 0.950 . S
C840 C841 1.349 1_455 S
C840 C842 1.327 . S
C840 H865 0.950 1_455 S
C841 C840 1.349 1_655 S
C841 C857 1.349 . S
C842 C840 1.327 . S
C842 C861 1.429 . S
C842 H866 0.950 . S
C843 C860 1.574 . S
C843 C862 1.368 . S
C843 H867 0.949 . S
H844 C848 0.949 . S
C845 C846 1.349 . S
C845 C847 1.327 . S
C845 H868 0.950 . S
C846 C845 1.349 . S
C846 C858 1.349 . S
C847 C845 1.327 . S
C847 C863 1.429 1_545 S
C847 H869 0.950 . S
C848 H844 0.949 . S
C848 C856 1.574 . S
C848 C864 1.368 . S
H849 C857 0.955 . S
H850 C855 0.950 . S
H851 C856 0.949 . S
H852 C858 0.950 . S
H853 C859 0.950 . S
H854 C860 0.949 . S
C855 H850 0.950 . S
C855 C857 1.322 1_455 S
C855 C861 1.429 . S
C856 C848 1.574 . S
C856 H851 0.949 . S
C856 C862 1.368 . S
C857 C841 1.349 . S
C857 H849 0.955 . S
C857 C855 1.322 1_655 S
C858 C846 1.349 . S
C858 H852 0.950 . S
C858 C859 1.327 1_545 S
C859 H853 0.950 . S
C859 C858 1.327 1_565 S
C859 C863 1.429 . S
C860 C843 1.574 . S
C860 H854 0.949 . S
C860 C864 1.368 . S
C861 C842 1.429 . S
C861 C855 1.429 . S
C861 C862 1.523 . S
C862 C843 1.368 . S
C862 C856 1.368 . S
C862 C861 1.523 . S
C863 C847 1.429 1_565 S
C863 C859 1.429 . S
C863 C864 1.523 . S
C864 C848 1.368 . S
C864 C860 1.368 . S
C864 C863 1.523 . S
H865 C840 0.950 1_655 S
H866 C842 0.950 . S
H867 C843 0.949 . S
H868 C845 0.950 . S
H869 C847 0.950 . S
C870 C871 1.349 . S
C870 C872 1.327 . S
C870 H895 0.950 . S
C871 C870 1.349 . S
C871 C887 1.349 . S
C872 C870 1.327 . S
C872 C891 1.429 . S
C872 H896 0.950 . S
C873 C890 1.574 . S
C873 C892 1.368 . S
C873 H897 0.949 . S
H874 C878 0.949 . S
C875 C876 1.349 . S
C875 C877 1.327 . S
C875 H898 0.950 . S
C876 C875 1.349 . S
C876 C888 1.349 . S
C877 C875 1.327 . S
C877 C893 1.429 1_655 S
C877 H899 0.950 . S
C878 H874 0.949 . S
C878 C886 1.574 . S
C878 C894 1.368 . S
H879 C887 0.950 . S
H880 C885 0.950 . S
H881 C886 0.949 . S
H882 C888 0.950 . S
H883 C889 0.950 . S
H884 C890 0.949 . S
C885 H880 0.950 . S
C885 C887 1.327 . S
C885 C891 1.429 . S
C886 C878 1.574 . S
C886 H881 0.949 . S
C886 C892 1.368 . S
C887 C871 1.349 . S
C887 H879 0.950 . S
C887 C885 1.327 . S
C888 C876 1.349 . S
C888 H882 0.950 . S
C888 C889 1.327 1_655 S
C889 H883 0.950 . S
C889 C888 1.327 1_455 S
C889 C893 1.429 . S
C890 C873 1.574 . S
C890 H884 0.949 . S
C890 C894 1.368 . S
C891 C872 1.429 . S
C891 C885 1.429 . S
C891 C892 1.523 . S
C892 C873 1.368 . S
C892 C886 1.368 . S
C892 C891 1.523 . S
C893 C877 1.429 1_455 S
C893 C889 1.429 . S
C893 C894 1.523 . S
C894 C878 1.368 . S
C894 C890 1.368 . S
C894 C893 1.523 . S
H895 C870 0.950 . S
H896 C872 0.950 . S
H897 C873 0.949 . S
H898 C875 0.950 . S
H899 C877 0.950 . S
C900 C901 1.349 . S
C900 C902 1.327 . S
C900 H925 0.950 . S
C901 C900 1.349 . S
C901 C917 1.349 . S
C902 C900 1.327 . S
C902 C921 1.429 . S
C902 H926 0.950 . S
C903 C920 1.574 . S
C903 C922 1.368 . S
C903 H927 0.949 . S
H904 C908 0.949 . S
C905 C906 1.349 . S
C905 C907 1.327 . S
C905 H928 0.950 . S
C906 C905 1.349 . S
C906 C918 1.349 . S
C907 C905 1.327 . S
C907 C923 1.429 . S
C907 H929 0.950 . S
C908 H904 0.949 . S
C908 C916 1.574 . S
C908 C924 1.368 . S
H909 C917 0.950 . S
H910 C915 0.950 . S
H911 C916 0.949 . S
H912 C918 0.950 1_655 S
H913 C919 0.950 . S
H914 C920 0.949 . S
C915 H910 0.950 . S
C915 C917 1.327 . S
C915 C921 1.429 . S
C916 C908 1.574 . S
C916 H911 0.949 . S
C916 C922 1.368 . S
C917 C901 1.349 . S
C917 H909 0.950 . S
C917 C915 1.327 . S
C918 C906 1.349 . S
C918 H912 0.950 1_455 S
C918 C919 1.327 . S
C919 H913 0.950 . S
C919 C918 1.327 . S
C919 C923 1.429 . S
C920 C903 1.574 . S
C920 H914 0.949 . S
C920 C924 1.368 . S
C921 C902 1.429 . S
C921 C915 1.429 . S
C921 C922 1.523 . S
C922 C903 1.368 . S
C922 C916 1.368 . S
C922 C921 1.523 . S
C923 C907 1.429 . S
C923 C919 1.429 . S
C923 C924 1.523 . S
C924 C908 1.368 . S
C924 C920 1.368 . S
C924 C923 1.523 . S
H925 C900 0.950 . S
H926 C902 0.950 . S
H927 C903 0.949 . S
H928 C905 0.950 . S
H929 C907 0.950 . S
C930 C931 1.349 . S
C930 C932 1.327 . S
C930 H955 0.950 . S
C931 C930 1.349 . S
C931 C947 1.349 . S
C932 C930 1.327 . S
C932 C951 1.429 . S
C932 H956 0.950 . S
C933 C950 1.574 . S
C933 C952 1.368 . S
C933 H957 0.949 . S
H934 C938 0.949 . S
C935 C936 1.349 . S
C935 C937 1.327 . S
C935 H958 0.950 . S
C936 C935 1.349 . S
C936 C948 1.349 . S
C937 C935 1.327 . S
C937 C953 1.429 . S
C937 H959 0.950 . S
C938 H934 0.949 . S
C938 C946 1.574 . S
C938 C954 1.368 . S
H939 C947 0.950 . S
H940 C945 0.950 . S
H941 C946 0.949 . S
H942 C948 0.950 . S
H943 C949 0.950 . S
H944 C950 0.949 . S
C945 H940 0.950 . S
C945 C947 1.327 . S
C945 C951 1.429 . S
C946 C938 1.574 . S
C946 H941 0.949 . S
C946 C952 1.368 . S
C947 C931 1.349 . S
C947 H939 0.950 . S
C947 C945 1.327 . S
C948 C936 1.349 . S
C948 H942 0.950 . S
C948 C949 1.327 . S
C949 H943 0.950 . S
C949 C948 1.327 . S
C949 C953 1.429 . S
C950 C933 1.574 . S
C950 H944 0.949 . S
C950 C954 1.368 . S
C951 C932 1.429 . S
C951 C945 1.429 . S
C951 C952 1.523 . S
C952 C933 1.368 . S
C952 C946 1.368 . S
C952 C951 1.523 . S
C953 C937 1.429 . S
C953 C949 1.429 . S
C953 C954 1.523 . S
C954 C938 1.368 . S
C954 C950 1.368 . S
C954 C953 1.523 . S
H955 C930 0.950 . S
H956 C932 0.950 . S
H957 C933 0.949 . S
H958 C935 0.950 . S
H959 C937 0.950 . S
C960 C961 1.349 . S
C960 C962 1.327 . S
C960 H985 0.950 . S
C961 C960 1.349 . S
C961 C977 1.349 . S
C962 C960 1.327 . S
C962 C981 1.429 . S
C962 H986 0.950 . S
C963 C980 1.574 . S
C963 C982 1.368 . S
C963 H987 0.949 . S
H964 C968 0.949 . S
C965 C966 1.349 . S
C965 C967 1.327 . S
C965 H988 0.950 . S
C966 C965 1.349 . S
C966 C978 1.349 . S
C967 C965 1.327 . S
C967 C983 1.429 . S
C967 H989 0.950 . S
C968 H964 0.949 . S
C968 C976 1.574 . S
C968 C984 1.368 . S
H969 C977 0.950 1_545 S
H970 C975 0.950 . S
H971 C976 0.949 . S
H972 C978 0.950 . S
H973 C979 0.950 . S
H974 C980 0.949 . S
C975 H970 0.950 . S
C975 C977 1.327 . S
C975 C981 1.429 . S
C976 C968 1.574 . S
C976 H971 0.949 . S
C976 C982 1.368 . S
C977 C961 1.349 . S
C977 H969 0.950 1_565 S
C977 C975 1.327 . S
C978 C966 1.349 . S
C978 H972 0.950 . S
C978 C979 1.327 . S
C979 H973 0.950 . S
C979 C978 1.327 . S
C979 C983 1.429 . S
C980 C963 1.574 . S
C980 H974 0.949 . S
C980 C984 1.368 . S
C981 C962 1.429 . S
C981 C975 1.429 . S
C981 C982 1.523 . S
C982 C963 1.368 . S
C982 C976 1.368 . S
C982 C981 1.523 . S
C983 C967 1.429 . S
C983 C979 1.429 . S
C983 C984 1.523 . S
C984 C968 1.368 . S
C984 C980 1.368 . S
C984 C983 1.523 . S
H985 C960 0.950 . S
H986 C962 0.950 . S
H987 C963 0.949 . S
H988 C965 0.950 . S
H989 C967 0.950 . S
C990 C991 1.349 . S
C990 C992 1.327 . S
C990 H1015 0.950 . S
C991 C990 1.349 . S
C991 C1007 1.349 . S
C992 C990 1.327 . S
C992 C1011 1.429 . S
C992 H1016 0.950 . S
C993 C1010 1.574 . S
C993 C1012 1.368 . S
C993 H1017 0.949 . S
H994 C998 0.949 . S
C995 C996 1.349 . S
C995 C997 1.327 . S
C995 H1018 0.950 . S
C996 C995 1.349 . S
C996 C1008 1.349 . S
C997 C995 1.327 . S
C997 C1013 1.429 . S
C997 H1019 0.950 . S
C998 H994 0.949 . S
C998 C1006 1.574 . S
C998 C1014 1.368 . S
H999 C1007 0.950 1_565 S
H1000 C1005 0.950 . S
H1001 C1006 0.949 . S
H1002 C1008 0.950 . S
H1003 C1009 0.950 . S
H1004 C1010 0.949 . S
C1005 H1000 0.950 . S
C1005 C1007 1.327 . S
C1005 C1011 1.429 . S
C1006 C998 1.574 . S
C1006 H1001 0.949 . S
C1006 C1012 1.368 . S
C1007 C991 1.349 . S
C1007 H999 0.950 1_545 S
C1007 C1005 1.327 . S
C1008 C996 1.349 . S
C1008 H1002 0.950 . S
C1008 C1009 1.327 . S
C1009 H1003 0.950 . S
C1009 C1008 1.327 . S
C1009 C1013 1.429 . S
C1010 C993 1.574 . S
C1010 H1004 0.949 . S
C1010 C1014 1.368 . S
C1011 C992 1.429 . S
C1011 C1005 1.429 . S
C1011 C1012 1.523 . S
C1012 C993 1.368 . S
C1012 C1006 1.368 . S
C1012 C1011 1.523 . S
C1013 C997 1.429 . S
C1013 C1009 1.429 . S
C1013 C1014 1.523 . S
C1014 C998 1.368 . S
C1014 C1010 1.368 . S
C1014 C1013 1.523 . S
H1015 C990 0.950 . S
H1016 C992 0.950 . S
H1017 C993 0.949 . S
H1018 C995 0.950 . S
H1019 C997 0.950 . S
C1020 C1021 1.349 . S
C1020 C1022 1.327 . S
C1020 H1045 0.950 . S
C1021 C1020 1.349 . S
C1021 C1037 1.349 . S
C1022 C1020 1.327 . S
C1022 C1041 1.429 . S
C1022 H1046 0.950 . S
C1023 C1040 1.574 . S
C1023 C1042 1.368 . S
C1023 H1047 0.949 . S
H1024 C1028 0.949 . S
C1025 C1026 1.349 . S
C1025 C1027 1.327 . S
C1025 H1048 0.950 . S
C1026 C1025 1.349 . S
C1026 C1038 1.349 . S
C1027 C1025 1.327 . S
C1027 C1043 1.429 . S
C1027 H1049 0.950 . S
C1028 H1024 0.949 . S
C1028 C1036 1.574 . S
C1028 C1044 1.368 . S
H1029 C1037 0.950 1_455 S
H1030 C1035 0.955 . S
H1031 C1036 0.949 . S
H1032 C1038 0.950 . S
H1033 C1039 0.950 . S
H1034 C1040 0.949 . S
C1035 H1030 0.955 . S
C1035 C1037 1.327 . S
C1035 C1041 1.429 . S
C1036 C1028 1.574 . S
C1036 H1031 0.949 . S
C1036 C1042 1.368 . S
C1037 C1021 1.349 . S
C1037 H1029 0.950 1_655 S
C1037 C1035 1.327 . S
C1038 C1026 1.349 . S
C1038 H1032 0.950 . S
C1038 C1039 1.327 . S
C1039 H1033 0.950 . S
C1039 C1038 1.327 . S
C1039 C1043 1.429 . S
C1040 C1023 1.574 . S
C1040 H1034 0.949 . S
C1040 C1044 1.368 . S
C1041 C1022 1.429 . S
C1041 C1035 1.429 . S
C1041 C1042 1.523 . S
C1042 C1023 1.368 . S
C1042 C1036 1.368 . S
C1042 C1041 1.523 . S
C1043 C1027 1.429 . S
C1043 C1039 1.429 . S
C1043 C1044 1.523 . S
C1044 C1028 1.368 . S
C1044 C1040 1.368 . S
C1044 C1043 1.523 . S
H1045 C1020 0.950 . S
H1046 C1022 0.950 . S
H1047 C1023 0.949 . S
H1048 C1025 0.950 . S
H1049 C1027 0.950 . S
C1050 C1051 1.349 . S
C1050 C1052 1.327 . S
C1050 H1075 0.950 . S
C1051 C1050 1.349 . S
C1051 C1067 1.349 . S
C1052 C1050 1.327 . S
C1052 C1071 1.429 . S
C1052 H1076 0.950 . S
C1053 C1070 1.574 . S
C1053 C1072 1.368 . S
C1053 H1077 0.949 . S
H1054 C1058 0.949 . S
C1055 C1056 1.349 . S
C1055 C1057 1.327 . S
C1055 H1078 0.950 . S
C1056 C1055 1.349 . S
C1056 C1068 1.349 . S
C1057 C1055 1.327 . S
C1057 C1073 1.429 . S
C1057 H1079 0.950 . S
C1058 H1054 0.949 . S
C1058 C1066 1.574 . S
C1058 C1074 1.368 . S
H1059 C1067 0.950 . S
H1060 C1065 0.950 . S
H1061 C1066 0.949 . S
H1062 C1068 0.950 . S
H1063 C1069 0.950 . S
H1064 C1070 0.949 . S
C1065 H1060 0.950 . S
C1065 C1067 1.327 . S
C1065 C1071 1.429 . S
C1066 C1058 1.574 . S
C1066 H1061 0.949 . S
C1066 C1072 1.368 . S
C1067 C1051 1.349 . S
C1067 H1059 0.950 . S
C1067 C1065 1.327 . S
C1068 C1056 1.349 . S
C1068 H1062 0.950 . S
C1068 C1069 1.327 . S
C1069 H1063 0.950 . S
C1069 C1068 1.327 . S
C1069 C1073 1.429 . S
C1070 C1053 1.574 . S
C1070 H1064 0.949 . S
C1070 C1074 1.368 . S
C1071 C1052 1.429 . S
C1071 C1065 1.429 . S
C1071 C1072 1.523 . S
C1072 C1053 1.368 . S
C1072 C1066 1.368 . S
C1072 C1071 1.523 . S
C1073 C1057 1.429 . S
C1073 C1069 1.429 . S
C1073 C1074 1.523 . S
C1074 C1058 1.368 . S
C1074 C1070 1.368 . S
C1074 C1073 1.523 . S
H1075 C1050 0.950 . S
H1076 C1052 0.950 . S
H1077 C1053 0.949 . S
H1078 C1055 0.950 . S
H1079 C1057 0.950 . S
C1080 C1081 1.349 . S
C1080 C1082 1.327 . S
C1080 H1105 0.950 . S
C1081 C1080 1.349 . S
C1081 C1097 1.349 . S
C1082 C1080 1.327 . S
C1082 C1101 1.429 . S
C1082 H1106 0.950 . S
C1083 C1100 1.574 . S
C1083 C1102 1.368 . S
C1083 H1107 0.949 . S
H1084 C1088 0.949 . S
C1085 C1086 1.349 . S
C1085 C1087 1.327 . S
C1085 H1108 0.950 . S
C1086 C1085 1.349 . S
C1086 C1098 1.349 . S
C1087 C1085 1.327 . S
C1087 C1103 1.429 . S
C1087 H1109 0.950 . S
C1088 H1084 0.949 . S
C1088 C1096 1.574 . S
C1088 C1104 1.368 . S
H1089 C1097 0.950 . S
H1090 C1095 0.950 . S
H1091 C1096 0.949 . S
H1092 C1098 0.950 . S
H1093 C1099 0.950 . S
H1094 C1100 0.949 . S
C1095 H1090 0.950 . S
C1095 C1097 1.327 . S
C1095 C1101 1.429 . S
C1096 C1088 1.574 . S
C1096 H1091 0.949 . S
C1096 C1102 1.368 . S
C1097 C1081 1.349 . S
C1097 H1089 0.950 . S
C1097 C1095 1.327 . S
C1098 C1086 1.349 . S
C1098 H1092 0.950 . S
C1098 C1099 1.327 . S
C1099 H1093 0.950 . S
C1099 C1098 1.327 . S
C1099 C1103 1.429 . S
C1100 C1083 1.574 . S
C1100 H1094 0.949 . S
C1100 C1104 1.368 . S
C1101 C1082 1.429 . S
C1101 C1095 1.429 . S
C1101 C1102 1.523 . S
C1102 C1083 1.368 . S
C1102 C1096 1.368 . S
C1102 C1101 1.523 . S
C1103 C1087 1.429 . S
C1103 C1099 1.429 . S
C1103 C1104 1.523 . S
C1104 C1088 1.368 . S
C1104 C1100 1.368 . S
C1104 C1103 1.523 . S
H1105 C1080 0.950 . S
H1106 C1082 0.950 . S
H1107 C1083 0.949 . S
H1108 C1085 0.950 . S
H1109 C1087 0.950 . S
C1110 C1111 1.349 . S
C1110 C1112 1.327 . S
C1110 H1135 0.950 . S
C1111 C1110 1.349 . S
C1111 C1127 1.349 . S
C1112 C1110 1.327 . S
C1112 C1131 1.429 . S
C1112 H1136 0.950 . S
C1113 C1130 1.574 . S
C1113 C1132 1.368 1_545 S
C1113 H1137 0.949 . S
H1114 C1118 0.949 . S
C1115 C1116 1.349 . S
C1115 C1117 1.327 . S
C1115 H1138 0.950 . S
C1116 C1115 1.349 . S
C1116 C1128 1.349 . S
C1117 C1115 1.327 . S
C1117 C1133 1.429 . S
C1117 H1139 0.950 . S
C1118 H1114 0.949 . S
C1118 C1126 1.574 . S
C1118 C1134 1.368 1_565 S
H1119 C1127 0.950 . S
H1120 C1125 0.950 . S
H1121 C1126 0.949 . S
H1122 C1128 0.950 . S
H1123 C1129 0.950 . S
H1124 C1130 0.949 . S
C1125 H1120 0.950 . S
C1125 C1127 1.327 . S
C1125 C1131 1.429 . S
C1126 C1118 1.574 . S
C1126 H1121 0.949 . S
C1126 C1132 1.368 . S
C1127 C1111 1.349 . S
C1127 H1119 0.950 . S
C1127 C1125 1.327 . S
C1128 C1116 1.349 . S
C1128 H1122 0.950 . S
C1128 C1129 1.327 . S
C1129 H1123 0.950 . S
C1129 C1128 1.327 . S
C1129 C1133 1.429 . S
C1130 C1113 1.574 . S
C1130 H1124 0.949 . S
C1130 C1134 1.368 . S
C1131 C1112 1.429 . S
C1131 C1125 1.429 . S
C1131 C1132 1.523 . S
C1132 C1113 1.368 1_565 S
C1132 C1126 1.368 . S
C1132 C1131 1.523 . S
C1133 C1117 1.429 . S
C1133 C1129 1.429 . S
C1133 C1134 1.523 . S
C1134 C1118 1.368 1_545 S
C1134 C1130 1.368 . S
C1134 C1133 1.523 . S
H1135 C1110 0.950 . S
H1136 C1112 0.950 . S
H1137 C1113 0.949 . S
H1138 C1115 0.950 . S
H1139 C1117 0.950 . S
C1140 C1141 1.349 . S
C1140 C1142 1.327 . S
C1140 H1165 0.950 . S
C1141 C1140 1.349 . S
C1141 C1157 1.349 . S
C1142 C1140 1.327 . S
C1142 C1161 1.429 . S
C1142 H1166 0.950 . S
C1143 C1160 1.574 . S
C1143 C1162 1.368 . S
C1143 H1167 0.949 . S
H1144 C1148 0.949 . S
C1145 C1146 1.349 . S
C1145 C1147 1.327 . S
C1145 H1168 0.950 . S
C1146 C1145 1.349 . S
C1146 C1158 1.349 . S
C1147 C1145 1.327 . S
C1147 C1163 1.429 . S
C1147 H1169 0.950 . S
C1148 H1144 0.949 . S
C1148 C1156 1.574 . S
C1148 C1164 1.368 . S
H1149 C1157 0.950 . S
H1150 C1155 0.950 . S
H1151 C1156 0.949 . S
H1152 C1158 0.950 . S
H1153 C1159 0.950 . S
H1154 C1160 0.949 . S
C1155 H1150 0.950 . S
C1155 C1157 1.327 . S
C1155 C1161 1.429 . S
C1156 C1148 1.574 . S
C1156 H1151 0.949 . S
C1156 C1162 1.368 1_455 S
C1157 C1141 1.349 . S
C1157 H1149 0.950 . S
C1157 C1155 1.327 . S
C1158 C1146 1.349 . S
C1158 H1152 0.950 . S
C1158 C1159 1.327 . S
C1159 H1153 0.950 . S
C1159 C1158 1.327 . S
C1159 C1163 1.429 . S
C1160 C1143 1.574 . S
C1160 H1154 0.949 . S
C1160 C1164 1.368 1_655 S
C1161 C1142 1.429 . S
C1161 C1155 1.429 . S
C1161 C1162 1.523 . S
C1162 C1143 1.368 . S
C1162 C1156 1.368 1_655 S
C1162 C1161 1.523 . S
C1163 C1147 1.429 . S
C1163 C1159 1.429 . S
C1163 C1164 1.523 . S
C1164 C1148 1.368 . S
C1164 C1160 1.368 1_455 S
C1164 C1163 1.523 . S
H1165 C1140 0.950 . S
H1166 C1142 0.950 . S
H1167 C1143 0.949 . S
H1168 C1145 0.950 . S
H1169 C1147 0.950 . S
C361 C50 1.388 . S
C366 C6 1.428 . S
C391 C90 1.388 . S
C396 C46 1.428 . S
C421 C86 1.429 . S
C426 C10 1.389 . S
C451 C99 1.511 . S
C456 C55 1.472 . S
C481 C95 1.473 . S
C486 C19 1.511 . S
C511 C15 1.472 . S
C516 C59 1.511 . S
C541 C126 1.428 . S
C546 C170 1.387 . S
C571 C210 1.387 . S
C576 C166 1.428 . S
C601 C206 1.429 . S
C606 C130 1.387 . S
C631 C175 1.473 . S
C636 C219 1.512 . S
C661 C215 1.472 . S
C666 C139 1.511 . S
C691 C179 1.511 . S
C696 C135 1.472 . S
C721 C290 1.387 . S
C726 C246 1.428 . S
C751 C286 1.428 . S
C756 C330 1.387 . S
C781 C326 1.429 . S
C786 C250 1.387 . S
C811 C339 1.512 . S
C816 C295 1.473 . S
C841 C335 1.473 . S
C846 C259 1.512 . S
C871 C255 1.472 . S
C876 C299 1.511 . S
C901 C209 2.332 . S
C906 C18 2.578 . S
C931 C129 2.332 . S
C936 C58 2.578 . S
C961 C98 2.578 . S
C966 C169 2.332 . S
C991 C89 2.332 . S
C996 C258 2.578 . S
C1021 C9 2.332 . S
C1026 C298 2.578 . S
C1051 C338 2.578 . S
C1056 C49 2.332 . S
C1081 C138 2.578 . S
C1086 C329 2.332 . S
C1111 C178 2.578 . S
C1116 C249 2.332 . S
C1141 C289 2.332 . S
C1146 C218 2.578 . S
