# Generated by pormake.
# Topology ukb, (4)-cn, num edge types: 1
# Building blocks:
#     Node 0, Type 0, BuildingBlock: ICAMEG_clean_sbu_1, # of connection points: 4
#     Node 1, Type 0, BuildingBlock: ICAMEG_clean_sbu_1, # of connection points: 4
#     Node 2, Type 0, BuildingBlock: ICAMEG_clean_sbu_1, # of connection points: 4
#     Node 3, Type 0, BuildingBlock: ICAMEG_clean_sbu_1, # of connection points: 4
#     Node 4, Type 0, BuildingBlock: ICAMEG_clean_sbu_1, # of connection points: 4
#     Node 5, Type 0, BuildingBlock: ICAMEG_clean_sbu_1, # of connection points: 4
#     Node 6, Type 0, BuildingBlock: ICAMEG_clean_sbu_1, # of connection points: 4
#     Node 7, Type 0, BuildingBlock: ICAMEG_clean_sbu_1, # of connection points: 4
#     Node 8, Type 0, BuildingBlock: ICAMEG_clean_sbu_1, # of connection points: 4
#     Node 9, Type 0, BuildingBlock: ICAMEG_clean_sbu_1, # of connection points: 4
#     Node 10, Type 0, BuildingBlock: ICAMEG_clean_sbu_1, # of connection points: 4
#     Node 11, Type 0, BuildingBlock: ICAMEG_clean_sbu_1, # of connection points: 4
#     Node 12, Type 0, BuildingBlock: ICAMEG_clean_sbu_1, # of connection points: 4
#     Node 13, Type 0, BuildingBlock: ICAMEG_clean_sbu_1, # of connection points: 4
#     Node 14, Type 0, BuildingBlock: ICAMEG_clean_sbu_1, # of connection points: 4
#     Node 15, Type 0, BuildingBlock: ICAMEG_clean_sbu_1, # of connection points: 4
#     Edge 16, Type (0, 0), BuildingBlock: OJICUG_clean_linker_0, # of connection points: 2
#     Edge 17, Type (0, 0), BuildingBlock: OJICUG_clean_linker_0, # of connection points: 2
#     Edge 18, Type (0, 0), BuildingBlock: OJICUG_clean_linker_0, # of connection points: 2
#     Edge 19, Type (0, 0), BuildingBlock: OJICUG_clean_linker_0, # of connection points: 2
#     Edge 20, Type (0, 0), BuildingBlock: OJICUG_clean_linker_0, # of connection points: 2
#     Edge 21, Type (0, 0), BuildingBlock: OJICUG_clean_linker_0, # of connection points: 2
#     Edge 22, Type (0, 0), BuildingBlock: OJICUG_clean_linker_0, # of connection points: 2
#     Edge 23, Type (0, 0), BuildingBlock: OJICUG_clean_linker_0, # of connection points: 2
#     Edge 24, Type (0, 0), BuildingBlock: OJICUG_clean_linker_0, # of connection points: 2
#     Edge 25, Type (0, 0), BuildingBlock: OJICUG_clean_linker_0, # of connection points: 2
#     Edge 26, Type (0, 0), BuildingBlock: OJICUG_clean_linker_0, # of connection points: 2
#     Edge 27, Type (0, 0), BuildingBlock: OJICUG_clean_linker_0, # of connection points: 2
#     Edge 28, Type (0, 0), BuildingBlock: OJICUG_clean_linker_0, # of connection points: 2
#     Edge 29, Type (0, 0), BuildingBlock: OJICUG_clean_linker_0, # of connection points: 2
#     Edge 30, Type (0, 0), BuildingBlock: OJICUG_clean_linker_0, # of connection points: 2
#     Edge 31, Type (0, 0), BuildingBlock: OJICUG_clean_linker_0, # of connection points: 2
#     Edge 32, Type (0, 0), BuildingBlock: OJICUG_clean_linker_0, # of connection points: 2
#     Edge 33, Type (0, 0), BuildingBlock: OJICUG_clean_linker_0, # of connection points: 2
#     Edge 34, Type (0, 0), BuildingBlock: OJICUG_clean_linker_0, # of connection points: 2
#     Edge 35, Type (0, 0), BuildingBlock: OJICUG_clean_linker_0, # of connection points: 2
#     Edge 36, Type (0, 0), BuildingBlock: OJICUG_clean_linker_0, # of connection points: 2
#     Edge 37, Type (0, 0), BuildingBlock: OJICUG_clean_linker_0, # of connection points: 2
#     Edge 38, Type (0, 0), BuildingBlock: OJICUG_clean_linker_0, # of connection points: 2
#     Edge 39, Type (0, 0), BuildingBlock: OJICUG_clean_linker_0, # of connection points: 2
#     Edge 40, Type (0, 0), BuildingBlock: OJICUG_clean_linker_0, # of connection points: 2
#     Edge 41, Type (0, 0), BuildingBlock: OJICUG_clean_linker_0, # of connection points: 2
#     Edge 42, Type (0, 0), BuildingBlock: OJICUG_clean_linker_0, # of connection points: 2
#     Edge 43, Type (0, 0), BuildingBlock: OJICUG_clean_linker_0, # of connection points: 2
#     Edge 44, Type (0, 0), BuildingBlock: OJICUG_clean_linker_0, # of connection points: 2
#     Edge 45, Type (0, 0), BuildingBlock: OJICUG_clean_linker_0, # of connection points: 2
#     Edge 46, Type (0, 0), BuildingBlock: OJICUG_clean_linker_0, # of connection points: 2
#     Edge 47, Type (0, 0), BuildingBlock: OJICUG_clean_linker_0, # of connection points: 2
# Relax obj value: 0.075
# Max RMSD: 0.090
# Mean RMSD: 0.090
data_MOF--net-ukb--node1-ICAMEG_clean_sbu_1--edge1-OJICUG_clean_linker_0
_symmetry_space_group_name_H-M    P1
_symmetry_Int_Tables_number       1
_symmetry_cell_setting            triclinic
loop_
_symmetry_equiv_pos_as_xyz
'x, y, z'
_cell_length_a     34.619621
_cell_length_b     34.603905
_cell_length_c     32.204101
_cell_angle_alpha  89.98345
_cell_angle_beta   90.005292
_cell_angle_gamma 89.979191
loop_
_atom_site_label
_atom_site_type_symbol
_atom_site_fract_x
_atom_site_fract_y
_atom_site_fract_z
_atom_type_partial_charge
Co0 Co 0.58575 0.18716 0.14447 0.0
Co1 Co 0.53141 0.18613 0.23532 0.0
O2 O 0.53673 0.17957 0.17461 0.0
C3 C 0.52489 0.22216 0.08651 0.0
O4 O 0.49536 0.21148 0.10929 0.0
C5 C 0.49906 0.10714 0.22216 0.0
O6 O 0.52552 0.10047 0.1939 0.0
O7 O 0.57691 0.15233 0.24625 0.0
O8 O 0.61433 0.16001 0.18976 0.0
H9 H 0.57949 0.21122 0.38013 0.0
H10 H 0.51812 0.14499 0.10721 0.0
O11 O 0.55954 0.2149 0.09734 0.0
H12 H 0.62898 0.05707 0.09209 0.0
H13 H 0.67194 0.1935 0.01833 0.0
H14 H 0.66515 0.20841 0.17044 0.0
H15 H 0.63715 0.12072 0.12494 0.0
H16 H 0.61061 0.1828 0.05549 0.0
O17 O 0.49669 0.13995 0.23977 0.0
H18 H 0.58558 0.20263 0.30441 0.0
H19 H 0.46498 0.18268 0.29439 0.0
H20 H 0.72736 0.21775 0.13462 0.0
H21 H 0.50884 0.08216 0.07347 0.0
H22 H 0.73096 0.21093 0.05799 0.0
H23 H 0.56448 0.03744 0.06575 0.0
O24 O 0.59436 0.23842 0.17186 0.0
H25 H 0.40393 0.22031 0.17053 0.0
H26 H 0.5078 0.26481 0.26374 0.0
H27 H 0.45216 0.30745 0.24998 0.0
H28 H 0.39965 0.2852 0.20317 0.0
H29 H 0.46035 0.17876 0.18481 0.0
H30 H 0.45755 0.19065 0.37006 0.0
H31 H 0.51505 0.20524 0.41346 0.0
O32 O 0.56602 0.23197 0.23411 0.0
C33 C 0.60819 0.14692 0.22619 0.0
C34 C 0.55417 0.2051 0.36154 0.0
C35 C 0.48576 0.1935 0.35589 0.0
N36 N 0.52566 0.19277 0.29488 0.0
C37 C 0.55744 0.20039 0.31862 0.0
C38 C 0.49016 0.18899 0.31304 0.0
C39 C 0.51802 0.20168 0.38022 0.0
C40 C 0.54274 0.12646 0.10325 0.0
N41 N 0.57835 0.13732 0.11734 0.0
C42 C 0.53719 0.09053 0.08442 0.0
C43 C 0.56837 0.0654 0.08022 0.0
C44 C 0.60453 0.07638 0.095 0.0
C45 C 0.60895 0.11253 0.11368 0.0
C46 C 0.67073 0.19671 0.05173 0.0
C47 C 0.66655 0.20476 0.13714 0.0
C48 C 0.63601 0.19092 0.07295 0.0
N49 N 0.63427 0.19481 0.11519 0.0
C50 C 0.70182 0.2104 0.117 0.0
C51 C 0.70383 0.20647 0.07399 0.0
C52 C 0.58723 0.25033 0.20852 0.0
C53 C 0.42659 0.2303 0.19104 0.0
C54 C 0.48522 0.25503 0.24309 0.0
C55 C 0.4537 0.27925 0.23555 0.0
C56 C 0.42423 0.26673 0.20932 0.0
N57 N 0.48727 0.21932 0.22509 0.0
C58 C 0.45852 0.20686 0.19933 0.0
Co59 Co 0.31875 0.59221 0.64009 0.0
Co60 Co 0.31423 0.52977 0.72502 0.0
O61 O 0.32479 0.54067 0.66573 0.0
C62 C 0.27612 0.53853 0.58068 0.0
O63 O 0.28287 0.50736 0.60272 0.0
C64 C 0.3942 0.49705 0.71019 0.0
O65 O 0.39607 0.51297 0.6733 0.0
O66 O 0.34108 0.57806 0.74357 0.0
O67 O 0.34748 0.61537 0.68688 0.0
H68 H 0.26688 0.56374 0.86792 0.0
H69 H 0.35346 0.52774 0.59083 0.0
O70 O 0.28899 0.57141 0.59172 0.0
H71 H 0.45186 0.63052 0.59261 0.0
H72 H 0.31611 0.68857 0.52259 0.0
H73 H 0.29982 0.66978 0.67337 0.0
H74 H 0.38951 0.63973 0.62813 0.0
H75 H 0.32505 0.62413 0.55396 0.0
O76 O 0.36424 0.50089 0.73276 0.0
H77 H 0.282 0.57605 0.79428 0.0
H78 H 0.32236 0.46083 0.78034 0.0
H79 H 0.29102 0.73477 0.64332 0.0
H80 H 0.41499 0.51762 0.55426 0.0
H81 H 0.29899 0.74444 0.56738 0.0
H82 H 0.46488 0.56917 0.5551 0.0
O83 O 0.26833 0.60114 0.66881 0.0
H84 H 0.30123 0.40502 0.64595 0.0
H85 H 0.23821 0.49367 0.74476 0.0
H86 H 0.2044 0.4344 0.72298 0.0
H87 H 0.23601 0.38946 0.67337 0.0
H88 H 0.3337 0.46487 0.66803 0.0
H89 H 0.30807 0.44741 0.85397 0.0
H90 H 0.27995 0.49902 0.89824 0.0
O91 O 0.2646 0.55792 0.72047 0.0
C92 C 0.3532 0.60831 0.7251 0.0
C93 C 0.27906 0.54098 0.84893 0.0
C94 C 0.30222 0.47571 0.84111 0.0
N95 N 0.30284 0.51914 0.78294 0.0
C96 C 0.28759 0.54775 0.80718 0.0
C97 C 0.31037 0.48352 0.79946 0.0
C98 C 0.28642 0.50468 0.86593 0.0
C99 C 0.37455 0.5506 0.5908 0.0
N100 N 0.36751 0.58445 0.61127 0.0
C101 C 0.40958 0.54457 0.57027 0.0
C102 C 0.43759 0.57346 0.57084 0.0
C103 C 0.43032 0.60786 0.59191 0.0
C104 C 0.39497 0.61284 0.6121 0.0
C105 C 0.31259 0.68472 0.55573 0.0
C106 C 0.30373 0.67382 0.64035 0.0
C107 C 0.31754 0.64828 0.57367 0.0
N108 N 0.31321 0.64322 0.61553 0.0
C109 C 0.29855 0.71066 0.62349 0.0
C110 C 0.303 0.71606 0.58088 0.0
C111 C 0.25041 0.58519 0.69882 0.0
C112 C 0.28723 0.42427 0.66775 0.0
C113 C 0.25211 0.47442 0.723 0.0
C114 C 0.23285 0.44081 0.71087 0.0
C115 C 0.25061 0.41559 0.68307 0.0
N116 N 0.28814 0.48265 0.70802 0.0
C117 C 0.30563 0.45813 0.68061 0.0
Co118 Co 0.89606 0.31589 0.15613 0.0
Co119 Co 0.96642 0.31074 0.23205 0.0
O120 O 0.94914 0.32387 0.17575 0.0
C121 C 0.94332 0.27616 0.09124 0.0
O122 O 0.96515 0.26144 0.12059 0.0
C123 C 0.99023 0.3936 0.2297 0.0
O124 O 0.95454 0.40325 0.22056 0.0
O125 O 0.92278 0.34024 0.25732 0.0
O126 O 0.87497 0.33357 0.21055 0.0
H127 H 0.9492 0.26454 0.37882 0.0
H128 H 0.95028 0.36425 0.10746 0.0
O129 O 0.91541 0.29856 0.10051 0.0
H130 H 0.84073 0.44981 0.14127 0.0
H131 H 0.78772 0.32281 0.05181 0.0
H132 H 0.82498 0.28302 0.19332 0.0
H133 H 0.84092 0.38185 0.16416 0.0
H134 H 0.85448 0.33214 0.07668 0.0
O135 O 0.99957 0.35817 0.23369 0.0
H136 H 0.92796 0.28109 0.30791 0.0
H137 H 0.04242 0.31358 0.27572 0.0
H138 H 0.75767 0.2743 0.1702 0.0
H139 H 0.9512 0.43206 0.08369 0.0
H140 H 0.7387 0.294 0.09884 0.0
H141 H 0.89616 0.47534 0.10065 0.0
O142 O 0.89617 0.26113 0.1758 0.0
H143 H 0.07809 0.29158 0.13461 0.0
H144 H 0.99908 0.23166 0.24454 0.0
H145 H 0.05204 0.1944 0.21263 0.0
H146 H 0.09203 0.2244 0.15729 0.0
H147 H 0.02456 0.32768 0.16708 0.0
H148 H 0.06481 0.29777 0.34642 0.0
H149 H 0.01808 0.27288 0.39848 0.0
O150 O 0.93438 0.26294 0.23201 0.0
C151 C 0.88775 0.34406 0.24587 0.0
C152 C 0.96986 0.27526 0.35639 0.0
C153 C 0.03474 0.29396 0.33821 0.0
N154 N 0.98396 0.29801 0.28761 0.0
C155 C 0.95802 0.28459 0.31615 0.0
C156 C 0.02187 0.30295 0.29826 0.0
C157 C 0.0085 0.27998 0.3674 0.0
C158 C 0.92615 0.38287 0.11473 0.0
N159 N 0.89556 0.36907 0.13703 0.0
C160 C 0.92686 0.42125 0.10129 0.0
C161 C 0.89598 0.44554 0.11086 0.0
C162 C 0.86489 0.43125 0.13364 0.0
C163 C 0.86519 0.39273 0.14659 0.0
C164 C 0.79564 0.31404 0.08294 0.0
C165 C 0.8169 0.29197 0.16235 0.0
C166 C 0.83346 0.31905 0.09711 0.0
N167 N 0.84361 0.30823 0.13647 0.0
C168 C 0.77877 0.28679 0.14936 0.0
C169 C 0.76814 0.29789 0.10934 0.0
C170 C 0.9106 0.24561 0.20823 0.0
C171 C 0.06092 0.27823 0.15875 0.0
C172 C 0.0162 0.24485 0.22034 0.0
C173 C 0.04624 0.22365 0.20247 0.0
C174 C 0.06869 0.24051 0.17145 0.0
N175 N 0.00878 0.28184 0.20773 0.0
C176 C 0.03067 0.29857 0.17736 0.0
Co177 Co 0.18108 0.9057 0.65093 0.0
Co178 Co 0.19814 0.97086 0.73057 0.0
O179 O 0.17766 0.9574 0.67564 0.0
C180 C 0.21771 0.95572 0.58694 0.0
O181 O 0.23553 0.97441 0.61679 0.0
C182 C 0.11558 0.99305 0.73988 0.0
O183 O 0.10605 0.95842 0.72676 0.0
O184 O 0.17286 0.92494 0.75672 0.0
O185 O 0.16795 0.88153 0.70497 0.0
H186 H 0.26401 0.94371 0.86648 0.0
H187 H 0.13137 0.96525 0.61187 0.0
O188 O 0.19432 0.92848 0.59561 0.0
H189 H 0.04368 0.85819 0.64841 0.0
H190 H 0.16008 0.80655 0.53859 0.0
H191 H 0.21348 0.83045 0.67819 0.0
H192 H 0.11342 0.85348 0.6629 0.0
H193 H 0.15523 0.87113 0.57063 0.0
O194 O 0.15101 0.00275 0.74237 0.0
H195 H 0.23848 0.92761 0.79713 0.0
H196 H 0.20041 0.04334 0.78084 0.0
H197 H 0.21865 0.76537 0.64748 0.0
H198 H 0.06175 0.97109 0.59654 0.0
H199 H 0.19196 0.75312 0.57713 0.0
H200 H 0.0174 0.91733 0.61494 0.0
O201 O 0.23716 0.9016 0.66436 0.0
H202 H 0.20262 0.08882 0.63974 0.0
H203 H 0.27716 0.0052 0.73433 0.0
H204 H 0.3091 0.06094 0.70121 0.0
H205 H 0.27171 0.10326 0.65357 0.0
H206 H 0.172 0.03246 0.67317 0.0
H207 H 0.22552 0.0607 0.85007 0.0
H208 H 0.25777 0.01072 0.8933 0.0
O209 O 0.24571 0.93986 0.72002 0.0
C210 C 0.16476 0.89142 0.74282 0.0
C211 C 0.25022 0.9658 0.84784 0.0
C212 C 0.22853 0.03143 0.83867 0.0
N213 N 0.21822 0.98457 0.78484 0.0
C214 C 0.23576 0.95687 0.80852 0.0
C215 C 0.21429 0.02142 0.79953 0.0
C216 C 0.24664 0.00338 0.8629 0.0
C217 C 0.11226 0.94163 0.61965 0.0
N218 N 0.12646 0.90902 0.63802 0.0
C219 C 0.07287 0.94514 0.61103 0.0
C220 C 0.04799 0.91498 0.62141 0.0
C221 C 0.0627 0.88181 0.6402 0.0
C222 C 0.10223 0.87934 0.64838 0.0
C223 C 0.17188 0.81154 0.56925 0.0
C224 C 0.20164 0.82532 0.64763 0.0
C225 C 0.16935 0.84809 0.58749 0.0
N226 N 0.18411 0.85459 0.62623 0.0
C227 C 0.20471 0.78842 0.63038 0.0
C228 C 0.18974 0.78156 0.5909 0.0
C229 C 0.25795 0.91537 0.69351 0.0
C230 C 0.21922 0.0706 0.66044 0.0
C231 C 0.26084 0.02326 0.71337 0.0
C232 C 0.279 0.0549 0.69486 0.0
C233 C 0.25799 0.07866 0.66817 0.0
N234 N 0.22282 0.0155 0.70558 0.0
C235 C 0.20201 0.03872 0.67955 0.0
Co236 Co 0.58916 0.32075 0.86317 0.0
Co237 Co 0.54237 0.31004 0.76908 0.0
O238 O 0.54253 0.32359 0.82852 0.0
C239 C 0.53638 0.27423 0.91824 0.0
O240 O 0.52769 0.25113 0.88725 0.0
C241 C 0.50783 0.38845 0.77023 0.0
O242 O 0.53384 0.39814 0.79797 0.0
O243 O 0.58739 0.34438 0.7575 0.0
O244 O 0.62185 0.33918 0.81614 0.0
H245 H 0.60252 0.26743 0.63461 0.0
H246 H 0.52085 0.36415 0.89275 0.0
O247 O 0.5584 0.30317 0.91238 0.0
H248 H 0.62663 0.45946 0.88899 0.0
H249 H 0.667 0.33785 0.99429 0.0
H250 H 0.66892 0.29248 0.84917 0.0
H251 H 0.63834 0.39158 0.86961 0.0
H252 H 0.60873 0.34281 0.95056 0.0
O253 O 0.50648 0.35407 0.75621 0.0
H254 H 0.60227 0.28552 0.70866 0.0
H255 H 0.4813 0.30568 0.70383 0.0
H256 H 0.72812 0.28806 0.89139 0.0
H257 H 0.50787 0.43166 0.91304 0.0
H258 H 0.72732 0.31042 0.96467 0.0
H259 H 0.56097 0.47989 0.91103 0.0
O260 O 0.5984 0.26593 0.84612 0.0
H261 H 0.41262 0.27699 0.82909 0.0
H262 H 0.5234 0.22816 0.74837 0.0
H263 H 0.4687 0.18472 0.76344 0.0
H264 H 0.41275 0.20912 0.804 0.0
H265 H 0.4681 0.31938 0.81357 0.0
H266 H 0.48034 0.28828 0.62955 0.0
H267 H 0.54122 0.26876 0.59453 0.0
O268 O 0.57836 0.26613 0.77966 0.0
C269 C 0.61818 0.34972 0.77841 0.0
C270 C 0.57578 0.27579 0.64955 0.0
C271 C 0.50722 0.28754 0.6467 0.0
N272 N 0.54177 0.29638 0.71064 0.0
C273 C 0.57544 0.28596 0.69151 0.0
C274 C 0.50796 0.29747 0.68873 0.0
C275 C 0.54139 0.27657 0.62707 0.0
C276 C 0.54415 0.38492 0.89208 0.0
N277 N 0.58029 0.37397 0.8797 0.0
C278 C 0.53661 0.42313 0.90348 0.0
C279 C 0.56639 0.45019 0.90228 0.0
C280 C 0.60322 0.43876 0.88984 0.0
C281 C 0.60966 0.40032 0.87861 0.0
C282 C 0.66768 0.32785 0.96245 0.0
C283 C 0.66838 0.30264 0.8809 0.0
C284 C 0.63468 0.33038 0.93761 0.0
N285 N 0.63532 0.31788 0.89735 0.0
C286 C 0.70198 0.29989 0.90473 0.0
C287 C 0.70152 0.31249 0.94581 0.0
C288 C 0.59559 0.25045 0.8103 0.0
C289 C 0.43678 0.26606 0.81129 0.0
C290 C 0.4992 0.23896 0.76614 0.0
C291 C 0.46828 0.21425 0.7745 0.0
C292 C 0.43689 0.22796 0.79725 0.0
N293 N 0.4988 0.27633 0.7799 0.0
C294 C 0.46819 0.28995 0.8023 0.0
Co295 Co 0.18223 0.59834 0.34923 0.0
Co296 Co 0.19037 0.52947 0.27213 0.0
O297 O 0.17386 0.546 0.32757 0.0
C298 C 0.21708 0.54849 0.41432 0.0
O299 O 0.2331 0.52792 0.38472 0.0
C300 C 0.10699 0.50799 0.26863 0.0
O301 O 0.09791 0.5436 0.27879 0.0
O302 O 0.16392 0.5746 0.24593 0.0
O303 O 0.16939 0.62132 0.29422 0.0
H304 H 0.24798 0.54847 0.1304 0.0
H305 H 0.12893 0.54506 0.39293 0.0
O306 O 0.19519 0.57687 0.40525 0.0
H307 H 0.04939 0.65751 0.35342 0.0
H308 H 0.17312 0.70383 0.45667 0.0
H309 H 0.22044 0.66903 0.31718 0.0
H310 H 0.11882 0.65563 0.33663 0.0
H311 H 0.16177 0.63857 0.42829 0.0
O312 O 0.14227 0.49784 0.2659 0.0
H313 H 0.22665 0.56866 0.20017 0.0
H314 H 0.18812 0.45463 0.22605 0.0
H315 H 0.23188 0.73475 0.34407 0.0
H316 H 0.05957 0.5459 0.4107 0.0
H317 H 0.20838 0.75246 0.4144 0.0
H318 H 0.01932 0.6024 0.39082 0.0
O319 O 0.23798 0.59695 0.33402 0.0
H320 H 0.19937 0.41551 0.3683 0.0
H321 H 0.26879 0.49403 0.26463 0.0
H322 H 0.3021 0.4393 0.29814 0.0
H323 H 0.2673 0.39954 0.35035 0.0
H324 H 0.16733 0.47083 0.33436 0.0
H325 H 0.20855 0.43334 0.15634 0.0
H326 H 0.23893 0.48037 0.10807 0.0
O327 O 0.23899 0.55999 0.27685 0.0
C328 C 0.16085 0.60958 0.2579 0.0
C329 C 0.23485 0.52769 0.15118 0.0
C330 C 0.21268 0.46308 0.16573 0.0
N331 N 0.20641 0.5128 0.21727 0.0
C332 C 0.22281 0.53892 0.19077 0.0
C333 C 0.20106 0.47533 0.20512 0.0
C334 C 0.22974 0.48948 0.13867 0.0
C335 C 0.11163 0.56986 0.38449 0.0
N336 N 0.12794 0.6003 0.36397 0.0
C337 C 0.07237 0.57013 0.3945 0.0
C338 C 0.04979 0.60182 0.3833 0.0
C339 C 0.06663 0.63276 0.36231 0.0
C340 C 0.10596 0.63147 0.35282 0.0
C341 C 0.18354 0.69645 0.42599 0.0
C342 C 0.20981 0.67659 0.34767 0.0
C343 C 0.17731 0.65951 0.40982 0.0
N344 N 0.19033 0.65001 0.37107 0.0
C345 C 0.21651 0.71382 0.3628 0.0
C346 C 0.2033 0.72373 0.40226 0.0
C347 C 0.25522 0.58283 0.30253 0.0
C348 C 0.21482 0.43259 0.34556 0.0
C349 C 0.25355 0.47706 0.2875 0.0
C350 C 0.27251 0.44599 0.30626 0.0
C351 C 0.25295 0.42367 0.33552 0.0
N352 N 0.21616 0.48564 0.29754 0.0
C353 C 0.19679 0.46385 0.32614 0.0
Co354 Co 0.90448 0.19033 0.85232 0.0
Co355 Co 0.9732 0.18813 0.77397 0.0
O356 O 0.95742 0.18105 0.83238 0.0
C357 C 0.95551 0.2232 0.92139 0.0
O358 O 0.98797 0.2141 0.90279 0.0
C359 C 0.99839 0.10579 0.78263 0.0
O360 O 0.96271 0.09577 0.79126 0.0
O361 O 0.92932 0.15591 0.75352 0.0
O362 O 0.88311 0.16574 0.80142 0.0
H363 H 0.95189 0.21654 0.62262 0.0
H364 H 0.96187 0.1456 0.90249 0.0
O365 O 0.92297 0.21551 0.90486 0.0
H366 H 0.84884 0.06018 0.88847 0.0
H367 H 0.79751 0.19516 0.95846 0.0
H368 H 0.83251 0.21787 0.81202 0.0
H369 H 0.84863 0.125 0.85696 0.0
H370 H 0.86398 0.18336 0.93404 0.0
O371 O 0.00714 0.1412 0.77721 0.0
H372 H 0.93252 0.20801 0.69573 0.0
H373 H 0.04835 0.18188 0.729 0.0
H374 H 0.76552 0.22958 0.83508 0.0
H375 H 0.96316 0.08124 0.93481 0.0
H376 H 0.74766 0.21797 0.90874 0.0
H377 H 0.90635 0.03791 0.92793 0.0
O378 O 0.90361 0.24235 0.82556 0.0
H379 H 0.08845 0.21822 0.86312 0.0
H380 H 0.00363 0.26608 0.75133 0.0
H381 H 0.05726 0.30688 0.77605 0.0
H382 H 0.10021 0.28295 0.83226 0.0
H383 H 0.03415 0.17853 0.83781 0.0
H384 H 0.06891 0.18977 0.65618 0.0
H385 H 0.02054 0.2074 0.60243 0.0
O386 O 0.94045 0.23521 0.76875 0.0
C387 C 0.89493 0.15219 0.76695 0.0
C388 C 0.97327 0.20901 0.64578 0.0
C389 C 0.03893 0.19394 0.66461 0.0
N390 N 0.98932 0.19486 0.7167 0.0
C391 C 0.96249 0.20426 0.68726 0.0
C392 C 0.0271 0.18945 0.70579 0.0
C393 C 0.01178 0.20383 0.63447 0.0
C394 C 0.9368 0.12738 0.89983 0.0
N395 N 0.90493 0.13964 0.87854 0.0
C396 C 0.93779 0.09073 0.918 0.0
C397 C 0.90595 0.0664 0.91407 0.0
C398 C 0.87369 0.07888 0.89197 0.0
C399 C 0.87375 0.1157 0.87422 0.0
C400 C 0.80493 0.20017 0.92626 0.0
C401 C 0.82491 0.21265 0.8441 0.0
C402 C 0.84256 0.19369 0.91226 0.0
N403 N 0.85207 0.19963 0.87153 0.0
C404 C 0.78696 0.21942 0.85699 0.0
C405 C 0.77697 0.213 0.89834 0.0
C406 C 0.91702 0.25454 0.79108 0.0
C407 C 0.06996 0.22896 0.83859 0.0
C408 C 0.02196 0.25558 0.77606 0.0
C409 C 0.0524 0.27875 0.78979 0.0
C410 C 0.07651 0.26529 0.82129 0.0
N411 N 0.01572 0.21996 0.79318 0.0
C412 C 0.03925 0.20656 0.82404 0.0
Co413 Co 0.31782 0.91008 0.36212 0.0
Co414 Co 0.30624 0.96742 0.2742 0.0
O415 O 0.32046 0.96023 0.33314 0.0
C416 C 0.27538 0.9652 0.42026 0.0
O417 O 0.28065 0.99567 0.39668 0.0
C418 C 0.38845 0.99435 0.27872 0.0
O419 O 0.39443 0.9716 0.31067 0.0
O420 O 0.33226 0.91812 0.25696 0.0
O421 O 0.34584 0.88571 0.31561 0.0
H422 H 0.24962 0.92528 0.1379 0.0
H423 H 0.35184 0.97923 0.40414 0.0
O424 O 0.28882 0.93224 0.41033 0.0
H425 H 0.45412 0.88028 0.40612 0.0
H426 H 0.3237 0.82059 0.48557 0.0
H427 H 0.30156 0.82997 0.33463 0.0
H428 H 0.39082 0.8662 0.37463 0.0
H429 H 0.32857 0.88344 0.44976 0.0
O430 O 0.35535 0.99616 0.26163 0.0
H431 H 0.26971 0.91726 0.21086 0.0
H432 H 0.31082 0.03289 0.21376 0.0
H433 H 0.2969 0.7665 0.36914 0.0
H434 H 0.41438 0.99434 0.43643 0.0
H435 H 0.30778 0.76156 0.44518 0.0
H436 H 0.4662 0.94471 0.43751 0.0
O437 O 0.26683 0.8973 0.33625 0.0
H438 H 0.29871 0.09645 0.34527 0.0
H439 H 0.22896 0.00261 0.25788 0.0
H440 H 0.19667 0.06316 0.27851 0.0
H441 H 0.23167 0.11066 0.3224 0.0
H442 H 0.32968 0.03527 0.32437 0.0
H443 H 0.29165 0.04198 0.14063 0.0
H444 H 0.26061 0.98801 0.10228 0.0
O445 O 0.25718 0.93955 0.28442 0.0
C446 C 0.34774 0.89002 0.27649 0.0
C447 C 0.26306 0.94904 0.1543 0.0
C448 C 0.28669 0.01453 0.15583 0.0
N449 N 0.29122 0.97463 0.21664 0.0
C450 C 0.2744 0.94471 0.19566 0.0
C451 C 0.29761 0.00916 0.19719 0.0
C452 C 0.26925 0.98424 0.13433 0.0
C453 C 0.37378 0.95721 0.40506 0.0
N454 N 0.36721 0.92164 0.38808 0.0
C455 C 0.40937 0.96605 0.42314 0.0
C456 C 0.43847 0.93824 0.42365 0.0
C457 C 0.43172 0.90211 0.40603 0.0
C458 C 0.39578 0.89432 0.38818 0.0
C459 C 0.31891 0.82238 0.45241 0.0
C460 C 0.30675 0.82801 0.36767 0.0
C461 C 0.32155 0.8579 0.43197 0.0
N462 N 0.31559 0.86036 0.39007 0.0
C463 C 0.3039 0.79201 0.38706 0.0
C464 C 0.31 0.78926 0.42973 0.0
C465 C 0.24591 0.91218 0.30784 0.0
C466 C 0.28318 0.07602 0.32607 0.0
C467 C 0.24424 0.02296 0.27728 0.0
C468 C 0.22588 0.05729 0.2887 0.0
C469 C 0.24555 0.08395 0.31329 0.0
N470 N 0.28118 0.01541 0.28989 0.0
C471 C 0.30063 0.0414 0.31401 0.0
Co472 Co 0.39732 0.81595 0.84698 0.0
Co473 Co 0.47058 0.81303 0.77454 0.0
O474 O 0.45083 0.82578 0.82989 0.0
C475 C 0.44313 0.77813 0.91351 0.0
O476 O 0.46604 0.76404 0.88476 0.0
C477 C 0.49257 0.89636 0.7778 0.0
O478 O 0.45635 0.9053 0.78517 0.0
O479 O 0.42742 0.8418 0.74757 0.0
O480 O 0.37778 0.83161 0.79129 0.0
H481 H 0.45997 0.76672 0.62712 0.0
H482 H 0.447 0.86691 0.89804 0.0
O483 O 0.41509 0.80009 0.90356 0.0
H484 H 0.33765 0.94855 0.85392 0.0
H485 H 0.28474 0.81927 0.94616 0.0
H486 H 0.32942 0.77884 0.80742 0.0
H487 H 0.34061 0.87989 0.83379 0.0
H488 H 0.35171 0.83209 0.92379 0.0
O489 O 0.50281 0.86112 0.77445 0.0
H490 H 0.43567 0.78282 0.697 0.0
H491 H 0.54814 0.81743 0.73434 0.0
H492 H 0.26205 0.76608 0.82823 0.0
H493 H 0.44477 0.93531 0.91957 0.0
H494 H 0.23938 0.78613 0.89813 0.0
H495 H 0.38984 0.97664 0.89734 0.0
O496 O 0.40046 0.76114 0.82849 0.0
H497 H 0.57877 0.79584 0.87685 0.0
H498 H 0.50518 0.73458 0.76349 0.0
H499 H 0.55753 0.69827 0.79776 0.0
H500 H 0.59479 0.72894 0.85484 0.0
H501 H 0.52587 0.83097 0.842 0.0
H502 H 0.57358 0.80209 0.66472 0.0
H503 H 0.5294 0.77635 0.61061 0.0
O504 O 0.43945 0.76453 0.77302 0.0
C505 C 0.39172 0.84337 0.75698 0.0
C506 C 0.47953 0.77782 0.65047 0.0
C507 C 0.54328 0.79771 0.67156 0.0
N508 N 0.49051 0.80077 0.7198 0.0
C509 C 0.46596 0.7869 0.69012 0.0
C510 C 0.52869 0.80644 0.71089 0.0
C511 C 0.51848 0.78326 0.64122 0.0
C512 C 0.42279 0.88462 0.88867 0.0
N513 N 0.39391 0.86937 0.86488 0.0
C514 C 0.42176 0.92336 0.9008 0.0
C515 C 0.39095 0.94654 0.88829 0.0
C516 C 0.36162 0.93079 0.86397 0.0
C517 C 0.36355 0.89191 0.85255 0.0
C518 C 0.29429 0.81037 0.91562 0.0
C519 C 0.31969 0.78797 0.83777 0.0
C520 C 0.33221 0.81744 0.90284 0.0
N521 N 0.34444 0.80637 0.86427 0.0
C522 C 0.28155 0.78053 0.84943 0.0
C523 C 0.26884 0.7918 0.88866 0.0
C524 C 0.41587 0.7463 0.79628 0.0
C525 C 0.5628 0.78219 0.85196 0.0
C526 C 0.52111 0.74806 0.78844 0.0
C527 C 0.55082 0.7274 0.80764 0.0
C528 C 0.57173 0.74464 0.83964 0.0
N529 N 0.51252 0.78489 0.8007 0.0
C530 C 0.53293 0.802 0.83201 0.0
Co531 Co 0.68385 0.41619 0.36485 0.0
Co532 Co 0.69138 0.46743 0.27294 0.0
O533 O 0.67714 0.46321 0.33175 0.0
C534 C 0.7263 0.47238 0.41949 0.0
O535 O 0.74721 0.4839 0.38779 0.0
C536 C 0.60817 0.49007 0.26824 0.0
O537 O 0.5988 0.4571 0.28575 0.0
O538 O 0.66353 0.41832 0.25853 0.0
O539 O 0.66733 0.38375 0.31727 0.0
H540 H 0.74428 0.41895 0.13732 0.0
H541 H 0.63574 0.48074 0.39598 0.0
O542 O 0.6999 0.44723 0.41443 0.0
H543 H 0.54854 0.36821 0.39052 0.0
H544 H 0.6753 0.33557 0.49497 0.0
H545 H 0.71613 0.33831 0.34833 0.0
H546 H 0.61697 0.36186 0.37057 0.0
H547 H 0.66527 0.39394 0.45237 0.0
O548 O 0.64349 0.49833 0.2616 0.0
H549 H 0.72523 0.41399 0.2109 0.0
H550 H 0.68739 0.53079 0.20997 0.0
H551 H 0.72588 0.2791 0.38949 0.0
H552 H 0.56753 0.48837 0.4166 0.0
H553 H 0.70578 0.27753 0.46352 0.0
H554 H 0.5234 0.43185 0.41384 0.0
O555 O 0.73893 0.41082 0.34681 0.0
H556 H 0.70626 0.59697 0.34156 0.0
H557 H 0.76865 0.50014 0.25159 0.0
H558 H 0.80399 0.55958 0.26999 0.0
H559 H 0.77269 0.60857 0.31525 0.0
H560 H 0.67222 0.53686 0.32274 0.0
H561 H 0.70545 0.53681 0.13616 0.0
H562 H 0.73438 0.4807 0.09943 0.0
O563 O 0.7398 0.43767 0.28316 0.0
C564 C 0.65872 0.38707 0.279 0.0
C565 C 0.73178 0.44363 0.153 0.0
C566 C 0.70993 0.50976 0.15235 0.0
N567 N 0.70546 0.47213 0.21481 0.0
C568 C 0.72104 0.44103 0.19471 0.0
C569 C 0.69961 0.50612 0.1941 0.0
C570 C 0.72619 0.47827 0.13176 0.0
C571 C 0.61674 0.45597 0.39491 0.0
N572 N 0.63033 0.42088 0.38205 0.0
C573 C 0.57814 0.46049 0.40653 0.0
C574 C 0.55338 0.42877 0.40493 0.0
C575 C 0.56746 0.39307 0.39182 0.0
C576 C 0.60622 0.38966 0.38039 0.0
C577 C 0.68433 0.33592 0.4628 0.0
C578 C 0.70699 0.33782 0.38041 0.0
C579 C 0.6789 0.36898 0.43857 0.0
N580 N 0.69026 0.36966 0.39791 0.0
C581 C 0.71272 0.30421 0.40362 0.0
C582 C 0.7014 0.30335 0.44513 0.0
C583 C 0.75576 0.41876 0.31255 0.0
C584 C 0.72024 0.57581 0.32189 0.0
C585 C 0.75509 0.52106 0.27169 0.0
C586 C 0.77511 0.5548 0.2818 0.0
C587 C 0.75752 0.58229 0.30714 0.0
N588 N 0.71858 0.51485 0.28635 0.0
C589 C 0.70109 0.54174 0.31109 0.0
Co590 Co 0.09767 0.68152 0.85731 0.0
Co591 Co 0.0391 0.69774 0.77137 0.0
O592 O 0.04707 0.68099 0.82937 0.0
C593 C 0.04437 0.72273 0.91825 0.0
O594 O 0.0136 0.71911 0.89479 0.0
C595 C 0.01407 0.61525 0.7716 0.0
O596 O 0.03977 0.60804 0.80054 0.0
O597 O 0.08784 0.67206 0.75176 0.0
O598 O 0.12056 0.65491 0.80909 0.0
H599 H 0.079 0.76049 0.63737 0.0
H600 H 0.02858 0.6471 0.899 0.0
O601 O 0.07691 0.70896 0.90728 0.0
H602 H 0.1253 0.54278 0.89371 0.0
H603 H 0.18924 0.66858 0.97829 0.0
H604 H 0.17754 0.69722 0.8288 0.0
H605 H 0.14028 0.6072 0.86541 0.0
H606 H 0.12564 0.66676 0.94377 0.0
O607 O 0.00987 0.64932 0.75736 0.0
H608 H 0.08831 0.73687 0.70894 0.0
H609 H 0.97268 0.6959 0.71208 0.0
H610 H 0.24175 0.69876 0.86197 0.0
H611 H 0.01259 0.58338 0.92807 0.0
H612 H 0.24786 0.68462 0.93728 0.0
H613 H 0.06108 0.53054 0.92549 0.0
O614 O 0.11094 0.73328 0.83346 0.0
H615 H 0.91127 0.70309 0.84497 0.0
H616 H 0.00448 0.77604 0.7598 0.0
H617 H 0.94459 0.80788 0.78321 0.0
H618 H 0.89741 0.77129 0.826 0.0
H619 H 0.97181 0.67257 0.82136 0.0
H620 H 0.96231 0.71854 0.64029 0.0
H621 H 0.01562 0.75133 0.60256 0.0
O622 O 0.06757 0.7461 0.78348 0.0
C623 C 0.11573 0.65499 0.77001 0.0
C624 C 0.05552 0.7463 0.65351 0.0
C625 C 0.99004 0.72271 0.65514 0.0
N626 N 0.03101 0.71524 0.71477 0.0
C627 C 0.06058 0.73297 0.69409 0.0
C628 C 0.99613 0.70983 0.69574 0.0
C629 C 0.01996 0.74113 0.63399 0.0
C630 C 0.05014 0.62468 0.89836 0.0
N631 N 0.0856 0.63132 0.88118 0.0
C632 C 0.04078 0.58844 0.91461 0.0
C633 C 0.06796 0.55878 0.91307 0.0
C634 C 0.10398 0.56562 0.89525 0.0
C635 C 0.11228 0.60221 0.87926 0.0
C636 C 0.18694 0.6748 0.94544 0.0
C637 C 0.18 0.69062 0.86151 0.0
C638 C 0.15099 0.67391 0.92574 0.0
N639 N 0.14789 0.68165 0.88423 0.0
C640 C 0.21642 0.69172 0.88015 0.0
C641 C 0.21983 0.68378 0.92242 0.0
C642 C 0.09567 0.75577 0.80671 0.0
C643 C 0.93157 0.71933 0.82629 0.0
C644 C 0.98428 0.76004 0.77872 0.0
C645 C 0.95031 0.77817 0.79172 0.0
C646 C 0.92384 0.7576 0.81569 0.0
N647 N 0.99164 0.72248 0.78922 0.0
C648 C 0.96582 0.70214 0.8127 0.0
Co649 Co 0.8094 0.0878 0.35879 0.0
Co650 Co 0.81335 0.02554 0.27431 0.0
O651 O 0.82003 0.037 0.33388 0.0
C652 C 0.77643 0.03032 0.42181 0.0
O653 O 0.78812 0.99961 0.40152 0.0
C654 C 0.89718 0.00299 0.27796 0.0
O655 O 0.90689 0.03891 0.28586 0.0
O656 O 0.84304 0.0726 0.2576 0.0
O657 O 0.83459 0.11381 0.31086 0.0
H658 H 0.78214 0.05693 0.12563 0.0
H659 H 0.85452 0.02682 0.40384 0.0
O660 O 0.78318 0.06429 0.40834 0.0
H661 H 0.9375 0.14235 0.40376 0.0
H662 H 0.79894 0.18436 0.4755 0.0
H663 H 0.78188 0.16273 0.32524 0.0
H664 H 0.87336 0.14408 0.37081 0.0
H665 H 0.81345 0.12082 0.44453 0.0
O666 O 0.86176 0.99348 0.27451 0.0
H667 H 0.79036 0.071 0.20016 0.0
H668 H 0.82319 0.95456 0.22267 0.0
H669 H 0.76773 0.22691 0.35482 0.0
H670 H 0.9181 0.02397 0.43755 0.0
H671 H 0.77619 0.23802 0.43054 0.0
H672 H 0.96024 0.08203 0.4377 0.0
O673 O 0.75798 0.09058 0.33092 0.0
H674 H 0.78935 0.90243 0.35302 0.0
H675 H 0.73689 0.99319 0.24925 0.0
H676 H 0.6989 0.93586 0.26915 0.0
H677 H 0.72516 0.88992 0.32128 0.0
H678 H 0.82618 0.96041 0.33261 0.0
H679 H 0.81567 0.93933 0.14831 0.0
H680 H 0.79484 0.99068 0.09925 0.0
O681 O 0.76489 0.05628 0.27231 0.0
C682 C 0.84702 0.10558 0.27474 0.0
C683 C 0.79113 0.03428 0.14671 0.0
C684 C 0.80998 0.96829 0.15944 0.0
N685 N 0.80697 0.01359 0.21582 0.0
C686 C 0.79574 0.04205 0.18898 0.0
C687 C 0.81428 0.97712 0.20151 0.0
C688 C 0.79829 0.99711 0.13193 0.0
C689 C 0.87211 0.05242 0.40431 0.0
N690 N 0.85953 0.08582 0.38615 0.0
C691 C 0.90838 0.05055 0.42322 0.0
C692 C 0.93204 0.08309 0.42322 0.0
C693 C 0.9193 0.11693 0.40421 0.0
C694 C 0.88287 0.11771 0.38561 0.0
C695 C 0.79521 0.17989 0.44247 0.0
C696 C 0.78595 0.16743 0.35814 0.0
C697 C 0.80324 0.14393 0.42477 0.0
N698 N 0.79878 0.13812 0.38303 0.0
C699 C 0.77773 0.2038 0.37475 0.0
C700 C 0.78244 0.21 0.41722 0.0
C701 C 0.7456 0.07861 0.29592 0.0
C702 C 0.77761 0.92221 0.33023 0.0
C703 C 0.74839 0.97354 0.27224 0.0
C704 C 0.72681 0.94102 0.28324 0.0
C705 C 0.74158 0.91523 0.31245 0.0
N706 N 0.78373 0.98017 0.28979 0.0
C707 C 0.79839 0.95502 0.31845 0.0
Co708 Co 0.39944 0.68421 0.14826 0.0
Co709 Co 0.4692 0.68713 0.22598 0.0
O710 O 0.45264 0.67654 0.16846 0.0
C711 C 0.44989 0.72003 0.08131 0.0
O712 O 0.48183 0.7144 0.10234 0.0
C713 C 0.49175 0.60338 0.22417 0.0
O714 O 0.45569 0.59373 0.21703 0.0
O715 O 0.42437 0.65806 0.24964 0.0
O716 O 0.37909 0.66016 0.19959 0.0
H717 H 0.45029 0.72912 0.37396 0.0
H718 H 0.45731 0.64185 0.097 0.0
O719 O 0.41734 0.70906 0.09545 0.0
H720 H 0.34915 0.55104 0.11629 0.0
H721 H 0.2924 0.68545 0.04199 0.0
H722 H 0.32672 0.70988 0.18825 0.0
H723 H 0.34655 0.61635 0.14657 0.0
H724 H 0.35904 0.67488 0.06668 0.0
O725 O 0.50148 0.63884 0.22659 0.0
H726 H 0.43003 0.71537 0.30206 0.0
H727 H 0.54429 0.68098 0.27117 0.0
H728 H 0.25957 0.71993 0.16508 0.0
H729 H 0.46094 0.57699 0.06582 0.0
H730 H 0.24211 0.70806 0.09139 0.0
H731 H 0.40661 0.531 0.0754 0.0
O732 O 0.39662 0.73665 0.1737 0.0
H733 H 0.58538 0.70567 0.13457 0.0
H734 H 0.5026 0.76541 0.24134 0.0
H735 H 0.55771 0.80202 0.2131 0.0
H736 H 0.59966 0.7721 0.15942 0.0
H737 H 0.52955 0.67031 0.16317 0.0
H738 H 0.56567 0.694 0.34286 0.0
H739 H 0.51855 0.71842 0.39478 0.0
O740 O 0.43825 0.73554 0.22702 0.0
C741 C 0.39066 0.65095 0.23571 0.0
C742 C 0.47111 0.71858 0.3516 0.0
C743 C 0.53586 0.69882 0.33415 0.0
N744 N 0.48598 0.69763 0.28236 0.0
C745 C 0.45984 0.71083 0.3108 0.0
C746 C 0.52355 0.69141 0.29363 0.0
C747 C 0.50941 0.71254 0.36326 0.0
C748 C 0.43333 0.62231 0.1009 0.0
N749 N 0.40153 0.63324 0.12308 0.0
C750 C 0.43564 0.58547 0.08334 0.0
C751 C 0.40518 0.55965 0.08879 0.0
C752 C 0.37295 0.57087 0.11171 0.0
C753 C 0.37166 0.60793 0.1288 0.0
C754 C 0.29966 0.69077 0.07417 0.0
C755 C 0.31927 0.70418 0.15624 0.0
C756 C 0.33738 0.68496 0.08831 0.0
N757 N 0.34675 0.69154 0.12895 0.0
C758 C 0.28123 0.71012 0.14325 0.0
C759 C 0.27145 0.70343 0.1019 0.0
C760 C 0.41243 0.75221 0.20527 0.0
C761 C 0.56734 0.71902 0.15798 0.0
C762 C 0.52042 0.75233 0.21766 0.0
C763 C 0.55173 0.77313 0.20195 0.0
C764 C 0.5753 0.75631 0.17188 0.0
N765 N 0.51276 0.71577 0.20382 0.0
C766 C 0.53578 0.69907 0.17441 0.0
Co767 Co 0.81564 0.4225 0.64176 0.0
Co768 Co 0.82135 0.47463 0.73382 0.0
O769 O 0.82594 0.47046 0.67284 0.0
C770 C 0.78086 0.48565 0.58611 0.0
O771 O 0.7933 0.51478 0.60848 0.0
C772 C 0.90093 0.50418 0.71808 0.0
O773 O 0.90564 0.47812 0.68894 0.0
O774 O 0.85319 0.42729 0.74258 0.0
O775 O 0.8426 0.39164 0.68537 0.0
H776 H 0.79772 0.42431 0.87804 0.0
H777 H 0.8588 0.48927 0.60415 0.0
O778 O 0.78759 0.45076 0.5964 0.0
H779 H 0.94279 0.37595 0.58468 0.0
H780 H 0.80294 0.34027 0.51322 0.0
H781 H 0.79137 0.34345 0.66583 0.0
H782 H 0.87987 0.36933 0.61949 0.0
H783 H 0.8173 0.39995 0.55204 0.0
O784 O 0.86908 0.50714 0.73744 0.0
H785 H 0.80363 0.4197 0.80191 0.0
H786 H 0.82993 0.53933 0.79451 0.0
H787 H 0.7781 0.28298 0.62833 0.0
H788 H 0.92089 0.49707 0.56845 0.0
H789 H 0.78342 0.28105 0.55142 0.0
H790 H 0.96363 0.44017 0.55854 0.0
O791 O 0.76496 0.41518 0.67068 0.0
H792 H 0.79119 0.60492 0.67311 0.0
H793 H 0.7449 0.50132 0.76575 0.0
H794 H 0.70457 0.55921 0.75491 0.0
H795 H 0.72773 0.61158 0.7084 0.0
H796 H 0.83042 0.54631 0.68451 0.0
H797 H 0.82464 0.54521 0.87061 0.0
H798 H 0.80826 0.48746 0.91291 0.0
O799 O 0.77398 0.44229 0.73319 0.0
C800 C 0.85656 0.39617 0.72169 0.0
C801 C 0.8047 0.44973 0.85995 0.0
C802 C 0.81985 0.51757 0.85577 0.0
N803 N 0.81663 0.47925 0.7937 0.0
C804 C 0.80794 0.44731 0.8168 0.0
C805 C 0.82284 0.51404 0.81268 0.0
C806 C 0.81066 0.48515 0.87949 0.0
C807 C 0.87646 0.46416 0.59925 0.0
N808 N 0.86493 0.42871 0.61324 0.0
C809 C 0.91198 0.46885 0.57931 0.0
C810 C 0.936 0.43696 0.57388 0.0
C811 C 0.92434 0.40095 0.58856 0.0
C812 C 0.88864 0.3974 0.60838 0.0
C813 C 0.80045 0.34068 0.54672 0.0
C814 C 0.79429 0.34282 0.63242 0.0
C815 C 0.80835 0.37446 0.5689 0.0
N816 N 0.80536 0.37517 0.61126 0.0
C817 C 0.78645 0.3085 0.6113 0.0
C818 C 0.7895 0.30748 0.56816 0.0
C819 C 0.75419 0.42222 0.7078 0.0
C820 C 0.78082 0.58233 0.69351 0.0
C821 C 0.75507 0.52386 0.74524 0.0
C822 C 0.73216 0.55664 0.73935 0.0
C823 C 0.74519 0.58603 0.71328 0.0
N824 N 0.79002 0.5205 0.72581 0.0
C825 C 0.80296 0.54916 0.70018 0.0
Co826 Co 0.10026 0.82192 0.14883 0.0
Co827 Co 0.03438 0.80417 0.2278 0.0
O828 O 0.0481 0.824 0.17259 0.0
C829 C 0.05244 0.78162 0.08511 0.0
O830 O 0.03259 0.76505 0.11493 0.0
C831 C 0.01099 0.8867 0.2351 0.0
O832 O 0.04536 0.89648 0.22144 0.0
O833 O 0.07977 0.83029 0.25427 0.0
O834 O 0.12268 0.83842 0.20251 0.0
H835 H 0.06042 0.73807 0.36388 0.0
H836 H 0.03905 0.86709 0.10657 0.0
O837 O 0.07928 0.80546 0.09373 0.0
H838 H 0.14125 0.96129 0.14021 0.0
H839 H 0.20038 0.84339 0.0376 0.0
H840 H 0.17636 0.79419 0.17897 0.0
H841 H 0.14904 0.89248 0.15821 0.0
H842 H 0.13504 0.84616 0.06801 0.0
O843 O 0.0019 0.85116 0.23864 0.0
H844 H 0.07722 0.76427 0.295 0.0
H845 H 0.96162 0.80221 0.27762 0.0
H846 H 0.24227 0.79159 0.15006 0.0
H847 H 0.03016 0.93565 0.0877 0.0
H848 H 0.25457 0.81601 0.07878 0.0
H849 H 0.08147 0.98327 0.10463 0.0
O850 O 0.10674 0.76653 0.16486 0.0
H851 H 0.91732 0.79742 0.13589 0.0
H852 H 1.00077 0.72485 0.23241 0.0
H853 H 0.94562 0.69197 0.19927 0.0
H854 H 0.90338 0.72836 0.15066 0.0
H855 H 0.9731 0.829 0.16938 0.0
H856 H 0.94371 0.77692 0.34661 0.0
H857 H 0.99324 0.74434 0.39012 0.0
O858 O 0.0659 0.75686 0.21814 0.0
C859 C 0.11259 0.84087 0.24035 0.0
C860 C 0.03856 0.75213 0.34518 0.0
C861 C 0.97307 0.77398 0.3355 0.0
N862 N 0.02037 0.78451 0.28218 0.0
C863 C 0.04786 0.76692 0.30609 0.0
C864 C 0.98341 0.78837 0.29652 0.0
C865 C 0.00087 0.75568 0.35989 0.0
C866 C 0.06161 0.88762 0.11372 0.0
N867 N 0.09458 0.87577 0.13325 0.0
C868 C 0.05637 0.92641 0.1031 0.0
C869 C 0.08516 0.95312 0.11265 0.0
C870 C 0.1187 0.94082 0.13262 0.0
C871 C 0.12291 0.90181 0.1428 0.0
C872 C 0.19537 0.83255 0.06867 0.0
C873 C 0.18151 0.80515 0.14803 0.0
C874 C 0.15839 0.8339 0.08599 0.0
N875 N 0.15186 0.82034 0.12524 0.0
C876 C 0.21888 0.80346 0.13178 0.0
C877 C 0.22577 0.81721 0.09179 0.0
C878 C 0.09207 0.74535 0.19319 0.0
C879 C 0.93551 0.78126 0.15701 0.0
C880 C 0.98276 0.74074 0.21102 0.0
C881 C 0.95144 0.72204 0.1925 0.0
C882 C 0.92773 0.74249 0.16527 0.0
N883 N 0.99024 0.77874 0.20271 0.0
C884 C 0.96706 0.79901 0.17615 0.0
Co885 Co 0.68852 0.09397 0.65256 0.0
Co886 Co 0.69191 0.03362 0.73719 0.0
O887 O 0.67763 0.04441 0.67946 0.0
C888 C 0.72219 0.03963 0.5902 0.0
O889 O 0.74073 0.0218 0.62019 0.0
C890 C 0.60823 0.01235 0.74068 0.0
O891 O 0.59892 0.04734 0.72844 0.0
O892 O 0.66494 0.08143 0.75695 0.0
O893 O 0.67802 0.12256 0.70504 0.0
H894 H 0.74432 0.06656 0.87831 0.0
H895 H 0.63184 0.04029 0.6149 0.0
O896 O 0.69925 0.06735 0.59857 0.0
H897 H 0.5591 0.15996 0.64347 0.0
H898 H 0.68214 0.19093 0.5359 0.0
H899 H 0.73187 0.1642 0.67647 0.0
H900 H 0.62848 0.15557 0.66004 0.0
H901 H 0.6683 0.12875 0.57035 0.0
O902 O 0.64354 0.00275 0.74474 0.0
H903 H 0.72602 0.07961 0.80564 0.0
H904 H 0.68709 0.96393 0.79171 0.0
H905 H 0.74548 0.22683 0.64387 0.0
H906 H 0.56246 0.04351 0.59757 0.0
H907 H 0.72078 0.24072 0.57281 0.0
H908 H 0.52563 0.10366 0.61192 0.0
O909 O 0.74427 0.09059 0.66786 0.0
H910 H 0.70403 0.91116 0.65444 0.0
H911 H 0.76926 0.99824 0.75315 0.0
H912 H 0.80336 0.94031 0.72783 0.0
H913 H 0.77065 0.89621 0.67817 0.0
H914 H 0.67118 0.96968 0.68025 0.0
H915 H 0.70447 0.94979 0.86442 0.0
H916 H 0.73352 0.00126 0.90817 0.0
O917 O 0.74104 0.06333 0.731 0.0
C918 C 0.66621 0.11546 0.74172 0.0
C919 C 0.73176 0.04387 0.85954 0.0
C920 C 0.70935 0.97835 0.85175 0.0
N921 N 0.70572 0.02251 0.79436 0.0
C922 C 0.72143 0.05105 0.81832 0.0
C923 C 0.69943 0.98657 0.81064 0.0
C924 C 0.72566 0.00723 0.87628 0.0
C925 C 0.61603 0.06663 0.62096 0.0
N926 N 0.63422 0.09773 0.63824 0.0
C927 C 0.57674 0.06826 0.6112 0.0
C928 C 0.55608 0.10201 0.61931 0.0
C929 C 0.57483 0.13359 0.63703 0.0
C930 C 0.61412 0.1309 0.64643 0.0
C931 C 0.69311 0.18532 0.56679 0.0
C932 C 0.72071 0.16999 0.64576 0.0
C933 C 0.68552 0.15009 0.58638 0.0
N934 N 0.69915 0.1429 0.62547 0.0
C935 C 0.72869 0.20555 0.62728 0.0
C936 C 0.7148 0.21324 0.58751 0.0
C937 C 0.75947 0.08113 0.70251 0.0
C938 C 0.71858 0.93013 0.67608 0.0
C939 C 0.75498 0.97941 0.7313 0.0
C940 C 0.77436 0.94653 0.7172 0.0
C941 C 0.75598 0.92179 0.68938 0.0
N942 N 0.71831 0.98741 0.71815 0.0
C943 C 0.7001 0.96326 0.69088 0.0
C944 C 0.46762 0.0695 0.27879 0.0
C945 C 0.47295 0.07605 0.23608 0.0
H946 H 0.43755 0.03732 0.32574 0.0
C947 C 0.45182 0.05409 0.2074 0.0
H948 H 0.48365 0.08619 0.30146 0.0
C949 C 0.42453 0.02711 0.22133 0.0
C950 C 0.41913 0.02066 0.26407 0.0
H951 H 0.45534 0.05884 0.17436 0.0
H952 H 0.40748 0.0114 0.19872 0.0
C953 C 0.44146 0.04152 0.29266 0.0
C954 C 0.44248 0.44455 0.6976 0.0
C955 C 0.42531 0.47119 0.72479 0.0
H956 H 0.48138 0.39661 0.69114 0.0
C957 C 0.43624 0.47116 0.76684 0.0
H958 H 0.43422 0.44375 0.66516 0.0
C959 C 0.464 0.44503 0.78143 0.0
C960 C 0.48017 0.41751 0.75455 0.0
H961 H 0.42326 0.49136 0.78842 0.0
H962 H 0.47193 0.44554 0.81398 0.0
C963 C 0.46918 0.41748 0.71251 0.0
C964 C 0.00955 0.46262 0.24367 0.0
C965 C 0.01977 0.4236 0.23818 0.0
H966 H 0.02897 0.51999 0.25817 0.0
C967 C 0.05869 0.41285 0.24283 0.0
H968 H 0.97978 0.4718 0.24052 0.0
C969 C 0.08669 0.44027 0.25286 0.0
C970 C 0.07657 0.47924 0.25878 0.0
H971 H 0.06766 0.38308 0.23884 0.0
H972 H 0.11634 0.43076 0.25617 0.0
C973 C 0.03767 0.49017 0.25406 0.0
C974 C 0.04648 0.01013 0.75616 0.0
C975 C 0.08539 0.02125 0.75219 0.0
H976 H 0.98843 0.02794 0.76966 0.0
C977 C 0.09548 0.05985 0.76037 0.0
H978 H 0.03778 0.98056 0.75032 0.0
C979 C 0.06732 0.08689 0.77131 0.0
C980 C 0.02833 0.07601 0.77473 0.0
H981 H 0.12516 0.06946 0.75775 0.0
H982 H 0.07614 0.11652 0.77664 0.0
C983 C 0.01825 0.03721 0.76754 0.0
C984 C 0.56105 0.91704 0.76804 0.0
C985 C 0.52174 0.92693 0.77026 0.0
H986 H 0.61876 0.93592 0.75694 0.0
C987 C 0.51086 0.96554 0.76303 0.0
H988 H 0.57052 0.88762 0.77345 0.0
C989 C 0.53877 0.99348 0.7531 0.0
C990 C 0.57806 0.98336 0.75063 0.0
H991 H 0.48077 0.97405 0.76429 0.0
H992 H 0.52957 0.02294 0.74743 0.0
C993 C 0.58879 0.94484 0.75849 0.0
C994 C 0.56061 0.58325 0.23337 0.0
C995 C 0.52124 0.57336 0.23302 0.0
H996 H 0.61861 0.56494 0.24457 0.0
C997 C 0.51055 0.53541 0.24368 0.0
H998 H 0.5699 0.6122 0.22533 0.0
C999 C 0.53864 0.50822 0.25532 0.0
C1000 C 0.57798 0.51834 0.25598 0.0
H1001 H 0.48043 0.52693 0.24399 0.0
H1002 H 0.52952 0.47934 0.26381 0.0
C1003 C 0.58859 0.55608 0.24447 0.0
C1004 C 0.97587 0.5834 0.71522 0.0
C1005 C 0.98792 0.58444 0.75694 0.0
H1006 H 0.93962 0.55586 0.66975 0.0
C1007 C 0.97298 0.55723 0.78496 0.0
H1008 H 0.98701 0.60416 0.69305 0.0
C1009 C 0.94513 0.53057 0.7719 0.0
C1010 C 0.93291 0.52975 0.73032 0.0
H1011 H 0.98156 0.55764 0.81731 0.0
H1012 H 0.93275 0.51084 0.7944 0.0
C1013 C 0.94902 0.55579 0.70184 0.0
C1014 C 0.91686 0.93418 0.26691 0.0
C1015 C 0.92718 0.9734 0.2694 0.0
H1016 H 0.93497 0.87634 0.25426 0.0
C1017 C 0.96566 0.98395 0.26114 0.0
H1018 H 0.8875 0.92498 0.27307 0.0
C1019 C 0.99298 0.95591 0.24983 0.0
C1020 C 0.98245 0.91674 0.24699 0.0
H1021 H 0.9745 0.01394 0.26252 0.0
H1022 H 0.0223 0.96496 0.24327 0.0
C1023 C 0.94414 0.90622 0.25604 0.0
C1024 C 0.61669 0.31699 0.19871 0.0
C1025 C 0.60643 0.28567 0.22439 0.0
H1026 H 0.6408 0.37439 0.19575 0.0
C1027 C 0.61456 0.28795 0.26696 0.0
H1028 H 0.61094 0.31595 0.16567 0.0
C1029 C 0.63192 0.32046 0.28381 0.0
C1030 C 0.64125 0.3525 0.2589 0.0
H1031 H 0.60786 0.26427 0.28762 0.0
H1032 H 0.63781 0.32023 0.3168 0.0
C1033 C 0.63365 0.3504 0.21593 0.0
C1034 C 0.19228 0.58238 0.7445 0.0
C1035 C 0.21211 0.60037 0.71164 0.0
H1036 H 0.14587 0.58547 0.78798 0.0
C1037 C 0.19634 0.63419 0.69406 0.0
H1038 H 0.20306 0.55611 0.75864 0.0
C1039 C 0.16285 0.65089 0.71092 0.0
C1040 C 0.14502 0.63409 0.74568 0.0
H1041 H 0.21079 0.64871 0.66862 0.0
H1042 H 0.1524 0.67807 0.69854 0.0
C1043 C 0.15934 0.59913 0.76138 0.0
C1044 C 0.85415 0.15128 0.21489 0.0
C1045 C 0.86771 0.13658 0.25283 0.0
H1046 H 0.85685 0.19781 0.17081 0.0
C1047 C 0.8978 0.15565 0.2734 0.0
H1048 H 0.83058 0.13716 0.1988 0.0
C1049 C 0.91287 0.18993 0.25762 0.0
C1050 C 0.89783 0.20637 0.22103 0.0
H1051 H 0.90881 0.14469 0.3026 0.0
H1052 H 0.93529 0.20428 0.27526 0.0
C1053 C 0.86901 0.18608 0.19913 0.0
C1054 C 0.32444 0.92083 0.72295 0.0
C1055 C 0.29718 0.89953 0.70007 0.0
H1056 H 0.37706 0.91941 0.75785 0.0
C1057 C 0.30581 0.8611 0.68917 0.0
H1058 H 0.31879 0.95047 0.73171 0.0
C1059 C 0.33919 0.84325 0.70455 0.0
C1060 C 0.36477 0.86397 0.7299 0.0
H1061 H 0.28539 0.84389 0.67169 0.0
H1062 H 0.3436 0.81267 0.69911 0.0
C1063 C 0.35801 0.90321 0.7376 0.0
C1064 C 0.64783 0.21907 0.77142 0.0
C1065 C 0.6182 0.21566 0.80073 0.0
H1066 H 0.68676 0.19023 0.73085 0.0
C1067 C 0.60724 0.17881 0.81474 0.0
H1068 H 0.6566 0.24727 0.76015 0.0
C1069 C 0.62441 0.14559 0.79754 0.0
C1070 C 0.65243 0.14913 0.76606 0.0
H1071 H 0.584 0.17569 0.83701 0.0
H1072 H 0.61422 0.11735 0.80706 0.0
C1073 C 0.66487 0.1863 0.75448 0.0
C1074 C 0.34909 0.59403 0.24459 0.0
C1075 C 0.36317 0.62881 0.26081 0.0
H1076 H 0.30434 0.55193 0.24542 0.0
C1077 C 0.34484 0.64559 0.2952 0.0
H1078 H 0.36282 0.58077 0.21792 0.0
C1079 C 0.31088 0.62915 0.31112 0.0
C1080 C 0.29491 0.59592 0.29253 0.0
H1081 H 0.35504 0.67282 0.30766 0.0
H1082 H 0.29587 0.6439 0.336 0.0
C1083 C 0.31543 0.57767 0.26032 0.0
C1084 C 0.89362 0.33472 0.71538 0.0
C1085 C 0.87568 0.36231 0.74083 0.0
H1086 H 0.92097 0.27972 0.7112 0.0
C1087 C 0.87314 0.35519 0.78376 0.0
H1088 H 0.89623 0.33933 0.6823 0.0
C1089 C 0.8867 0.32028 0.80047 0.0
C1090 C 0.90385 0.29234 0.77465 0.0
H1091 H 0.85937 0.37585 0.80418 0.0
H1092 H 0.88348 0.31505 0.83346 0.0
C1093 C 0.90784 0.30041 0.73208 0.0
C1094 C 0.165 0.83954 0.29339 0.0
C1095 C 0.14001 0.86065 0.26764 0.0
H1096 H 0.21857 0.83959 0.32705 0.0
C1097 C 0.14732 0.89983 0.26022 0.0
H1098 H 0.16016 0.809 0.29867 0.0
C1099 C 0.18055 0.91715 0.27585 0.0
C1100 C 0.20736 0.89555 0.29904 0.0
H1101 H 0.12859 0.9164 0.23993 0.0
H1102 H 0.18619 0.947 0.26781 0.0
C1103 C 0.19846 0.857 0.3093 0.0
C1104 C 0.35949 0.65239 0.78645 0.0
C1105 C 0.37388 0.63834 0.74859 0.0
H1106 H 0.36131 0.6981 0.83144 0.0
C1107 C 0.40501 0.65728 0.72963 0.0
H1108 H 0.33522 0.63836 0.80141 0.0
C1109 C 0.42001 0.69106 0.74663 0.0
C1110 C 0.40388 0.70708 0.78284 0.0
H1111 H 0.41679 0.64679 0.70057 0.0
H1112 H 0.4431 0.70551 0.7301 0.0
C1113 C 0.37429 0.68668 0.80341 0.0
C1114 C 0.85161 0.40383 0.25977 0.0
C1115 C 0.86078 0.36607 0.27182 0.0
H1116 H 0.81154 0.45037 0.26392 0.0
C1117 C 0.83853 0.34777 0.30248 0.0
H1118 H 0.86833 0.41831 0.23595 0.0
C1119 C 0.80583 0.36632 0.31891 0.0
C1120 C 0.79475 0.40297 0.30409 0.0
H1121 H 0.84491 0.31833 0.31165 0.0
H1122 H 0.78775 0.3508 0.34068 0.0
C1123 C 0.81894 0.42207 0.27568 0.0
C1124 C 0.08982 0.82359 0.78159 0.0
C1125 C 0.11261 0.79442 0.79962 0.0
H1126 H 0.08897 0.87817 0.75036 0.0
C1127 C 0.15226 0.80124 0.80581 0.0
H1128 H 0.05915 0.81939 0.77678 0.0
C1129 C 0.16929 0.83519 0.79067 0.0
C1130 C 0.14667 0.86287 0.77006 0.0
H1131 H 0.17055 0.77922 0.81945 0.0
H1132 H 0.20037 0.83857 0.79245 0.0
C1133 C 0.10672 0.85745 0.76691 0.0
C1134 C 0.64906 0.13086 0.28834 0.0
C1135 C 0.64012 0.12555 0.24614 0.0
H1136 H 0.68988 0.12068 0.33734 0.0
C1137 C 0.66431 0.1023 0.22177 0.0
H1138 H 0.63091 0.1487 0.30785 0.0
C1139 C 0.69755 0.0859 0.23857 0.0
C1140 C 0.70793 0.09286 0.28015 0.0
H1141 H 0.65792 0.09724 0.18937 0.0
H1142 H 0.71574 0.06878 0.21834 0.0
C1143 C 0.68291 0.11496 0.30514 0.0
C1144 C 0.41512 0.80737 0.25518 0.0
C1145 C 0.3989 0.79076 0.21935 0.0
H1146 H 0.41194 0.85209 0.30065 0.0
C1147 C 0.36836 0.81022 0.19928 0.0
H1148 H 0.43887 0.79364 0.27136 0.0
C1149 C 0.35311 0.84438 0.21614 0.0
C1150 C 0.36794 0.85925 0.25345 0.0
H1151 H 0.35529 0.79834 0.17152 0.0
H1152 H 0.32839 0.85782 0.20138 0.0
C1153 C 0.39972 0.84101 0.27206 0.0
C1154 C 0.68835 0.39118 0.69831 0.0
C1155 C 0.71835 0.40434 0.72422 0.0
H1156 H 0.6324 0.36416 0.69505 0.0
C1157 C 0.71458 0.39958 0.76733 0.0
H1158 H 0.69045 0.39433 0.66493 0.0
C1159 C 0.68229 0.38184 0.78426 0.0
C1160 C 0.6519 0.36905 0.75887 0.0
H1161 H 0.73705 0.40887 0.78839 0.0
H1162 H 0.6815 0.37803 0.81756 0.0
C1163 C 0.65513 0.37404 0.71556 0.0
C1164 C 0.16441 0.66465 0.2084 0.0
C1165 C 0.14215 0.63805 0.23093 0.0
H1166 H 0.16557 0.71954 0.17745 0.0
C1167 C 0.10246 0.64439 0.2357 0.0
H1168 H 0.19531 0.66056 0.20528 0.0
C1169 C 0.08562 0.67822 0.22067 0.0
C1170 C 0.10817 0.7063 0.20045 0.0
H1171 H 0.08502 0.62454 0.25375 0.0
H1172 H 0.05534 0.68329 0.22692 0.0
C1173 C 0.1474 0.6984 0.19272 0.0
C1174 C 0.85042 0.14238 0.70669 0.0
C1175 C 0.86698 0.12879 0.74369 0.0
H1176 H 0.80312 0.13745 0.66386 0.0
C1177 C 0.85137 0.09615 0.76308 0.0
H1178 H 0.8619 0.16787 0.69156 0.0
C1179 C 0.81787 0.07911 0.74781 0.0
C1180 C 0.79915 0.09431 0.71264 0.0
H1181 H 0.86391 0.08509 0.79151 0.0
H1182 H 0.80556 0.0553 0.76511 0.0
C1183 C 0.81671 0.12509 0.69108 0.0
C1184 C 0.50199 0.21796 0.01297 0.0
C1185 C 0.51918 0.23934 0.04513 0.0
H1186 H 0.49401 0.21204 0.94707 0.0
C1187 C 0.53768 0.2742 0.03569 0.0
H1188 H 0.48818 0.19055 0.01959 0.0
C1189 C 0.54054 0.28677 0.99465 0.0
C1190 C 0.52608 0.2641 0.96179 0.0
H1191 H 0.55147 0.29092 0.05998 0.0
H1192 H 0.55604 0.31334 0.98867 0.0
C1193 C 0.50559 0.23014 0.97151 0.0
C1194 C 0.21839 0.57037 0.48809 0.0
C1195 C 0.22784 0.54217 0.45836 0.0
H1196 H 0.22631 0.59097 0.55003 0.0
C1197 C 0.24975 0.50988 0.47082 0.0
H1198 H 0.20148 0.59555 0.4798 0.0
C1199 C 0.26344 0.50693 0.51176 0.0
C1200 C 0.25592 0.53656 0.54044 0.0
H1201 H 0.25732 0.48757 0.44869 0.0
H1202 H 0.28168 0.48274 0.52025 0.0
C1203 C 0.23257 0.56777 0.52845 0.0
C1204 C 0.91975 0.27341 0.01802 0.0
C1205 C 0.94882 0.26495 0.04713 0.0
H1206 H 0.8993 0.267 0.95587 0.0
C1207 C 0.98191 0.24485 0.0337 0.0
H1208 H 0.89388 0.28884 0.02707 0.0
C1209 C 0.98528 0.2327 0.9922 0.0
C1210 C 0.95532 0.2399 0.96374 0.0
H1211 H 0.00491 0.23806 0.05532 0.0
H1212 H 0.01055 0.21642 0.98285 0.0
C1213 C 0.92284 0.26083 0.97706 0.0
C1214 C 0.26505 0.99653 0.48968 0.0
C1215 C 0.25538 0.968 0.46049 0.0
H1216 H 0.261 0.0149 0.55331 0.0
C1217 C 0.23033 0.93806 0.47211 0.0
H1218 H 0.28472 0.01964 0.48144 0.0
C1219 C 0.2165 0.93554 0.51261 0.0
C1220 C 0.22809 0.96245 0.54285 0.0
H1221 H 0.22254 0.91567 0.45011 0.0
H1222 H 0.19823 0.91125 0.52059 0.0
C1223 C 0.25174 0.9936 0.53077 0.0
C1224 C 0.41597 0.77128 0.98476 0.0
C1225 C 0.44706 0.76583 0.95735 0.0
H1226 H 0.39266 0.76099 0.04512 0.0
C1227 C 0.4806 0.74727 0.97195 0.0
H1228 H 0.38967 0.78541 0.97466 0.0
C1229 C 0.48253 0.7337 0.01299 0.0
C1230 C 0.45065 0.73783 0.03964 0.0
H1231 H 0.50509 0.74281 0.95156 0.0
H1232 H 0.50828 0.71874 0.02334 0.0
C1233 C 0.41762 0.75718 0.02521 0.0
C1234 C 0.72796 0.47202 0.53679 0.0
C1235 C 0.76231 0.49178 0.54549 0.0
H1236 H 0.68892 0.45177 0.49057 0.0
C1237 C 0.78231 0.50991 0.51292 0.0
H1238 H 0.71228 0.4575 0.5614 0.0
C1239 C 0.76953 0.50576 0.47172 0.0
C1240 C 0.73642 0.48366 0.46273 0.0
H1241 H 0.80933 0.52468 0.51892 0.0
H1242 H 0.78674 0.51797 0.44689 0.0
C1243 C 0.71486 0.46846 0.49603 0.0
C1244 C 0.07613 0.77857 0.01215 0.0
C1245 C 0.04713 0.76986 0.04123 0.0
H1246 H 0.09767 0.77037 0.95063 0.0
C1247 C 0.01478 0.74839 0.02818 0.0
H1248 H 0.10146 0.795 0.02094 0.0
C1249 C 0.01229 0.73485 0.98712 0.0
C1250 C 0.04249 0.74198 0.95901 0.0
H1251 H 0.9919 0.74138 0.04984 0.0
H1252 H 0.98786 0.71724 0.97802 0.0
C1253 C 0.07401 0.76447 0.97175 0.0
C1254 C 0.71657 0.05646 0.51501 0.0
C1255 C 0.73175 0.03207 0.54594 0.0
H1256 H 0.71896 0.07482 0.45169 0.0
C1257 C 0.75842 0.00331 0.53424 0.0
H1258 H 0.69574 0.07871 0.52254 0.0
C1259 C 0.77118 1.00059 0.4929 0.0
C1260 C 0.75789 0.02699 0.46295 0.0
H1261 H 0.77055 0.98395 0.55724 0.0
H1262 H 0.7931 0.9795 0.48498 0.0
C1263 C 0.72979 0.05422 0.47423 0.0
loop_
_geom_bond_atom_site_label_1
_geom_bond_atom_site_label_2
_geom_bond_distance
_geom_bond_site_symmetry_2
_ccdc_geom_bond_type
Co0 O2 2.143 . S
Co0 O8 2.074 . S
Co0 O11 2.093 . S
Co0 O24 2.097 . S
Co0 N41 2.151 . S
Co0 N49 2.214 . S
Co1 O2 2.160 . S
Co1 O7 2.058 . S
Co1 O17 2.057 . S
Co1 O32 2.037 . S
Co1 N36 2.145 . S
Co1 N57 2.257 . S
O2 Co0 2.143 . S
O2 Co1 2.160 . S
C3 O4 1.278 . S
C3 O11 1.224 . S
O4 C3 1.278 . S
C5 O6 1.245 . S
C5 O17 1.232 . S
O6 C5 1.245 . S
O7 Co1 2.058 . S
O7 C33 1.269 . S
O8 Co0 2.074 . S
O8 C33 1.257 . S
H9 C34 0.930 . S
H10 C40 0.930 . S
O11 Co0 2.093 . S
O11 C3 1.224 . S
H12 C44 0.929 . S
H13 C46 0.930 . S
H14 C47 0.930 . S
H15 C45 0.929 . S
H16 C48 0.928 . S
O17 Co1 2.057 . S
O17 C5 1.232 . S
H18 C37 0.929 . S
H19 C38 0.929 . S
H20 C50 0.931 . S
H21 C42 0.929 . S
H22 C51 0.930 . S
H23 C43 0.931 . S
O24 Co0 2.097 . S
O24 C52 1.214 . S
H25 C53 0.929 . S
H26 C54 0.929 . S
H27 C55 0.930 . S
H28 C56 0.929 . S
H29 C58 0.930 . S
H30 C35 0.930 . S
H31 C39 0.930 . S
O32 Co1 2.037 . S
O32 C52 1.234 . S
C33 O7 1.269 . S
C33 O8 1.257 . S
C34 H9 0.930 . S
C34 C37 1.388 . S
C34 C39 1.418 . S
C35 H30 0.930 . S
C35 C38 1.404 . S
C35 C39 1.353 . S
N36 Co1 2.145 . S
N36 C37 1.397 . S
N36 C38 1.334 . S
C37 H18 0.929 . S
C37 C34 1.388 . S
C37 N36 1.397 . S
C38 H19 0.929 . S
C38 C35 1.404 . S
C38 N36 1.334 . S
C39 H31 0.930 . S
C39 C34 1.418 . S
C39 C35 1.353 . S
C40 H10 0.930 . S
C40 N41 1.330 . S
C40 C42 1.446 . S
N41 Co0 2.151 . S
N41 C40 1.330 . S
N41 C45 1.418 . S
C42 H21 0.929 . S
C42 C40 1.446 . S
C42 C43 1.332 . S
C43 H23 0.931 . S
C43 C42 1.332 . S
C43 C44 1.267 . S
C44 H12 0.929 . S
C44 C43 1.267 . S
C44 C45 1.251 . S
C45 H15 0.929 . S
C45 N41 1.418 . S
C45 C44 1.251 . S
C46 H13 0.930 . S
C46 C48 1.406 . S
C46 C51 1.261 . S
C47 H14 0.930 . S
C47 N49 1.325 . S
C47 C50 1.357 . S
C48 H16 0.928 . S
C48 C46 1.406 . S
C48 N49 1.261 . S
N49 Co0 2.214 . S
N49 C47 1.325 . S
N49 C48 1.261 . S
C50 H20 0.931 . S
C50 C47 1.357 . S
C50 C51 1.312 . S
C51 H22 0.930 . S
C51 C46 1.261 . S
C51 C50 1.312 . S
C52 O24 1.214 . S
C52 O32 1.234 . S
C53 H25 0.929 . S
C53 C56 1.391 . S
C53 C58 1.391 . S
C54 H26 0.929 . S
C54 C55 1.390 . S
C54 N57 1.391 . S
C55 H27 0.930 . S
C55 C54 1.390 . S
C55 C56 1.392 . S
C56 H28 0.929 . S
C56 C53 1.391 . S
C56 C55 1.392 . S
N57 Co1 2.257 . S
N57 C54 1.391 . S
N57 C58 1.388 . S
C58 H29 0.930 . S
C58 C53 1.391 . S
C58 N57 1.388 . S
Co59 O61 2.143 . S
Co59 O67 2.074 . S
Co59 O70 2.093 . S
Co59 O83 2.097 . S
Co59 N100 2.151 . S
Co59 N108 2.214 . S
Co60 O61 2.160 . S
Co60 O66 2.058 . S
Co60 O76 2.057 . S
Co60 O91 2.037 . S
Co60 N95 2.145 . S
Co60 N116 2.257 . S
O61 Co59 2.143 . S
O61 Co60 2.160 . S
C62 O63 1.278 . S
C62 O70 1.224 . S
O63 C62 1.278 . S
C64 O65 1.245 . S
C64 O76 1.232 . S
O65 C64 1.245 . S
O66 Co60 2.058 . S
O66 C92 1.269 . S
O67 Co59 2.074 . S
O67 C92 1.257 . S
H68 C93 0.930 . S
H69 C99 0.930 . S
O70 Co59 2.093 . S
O70 C62 1.224 . S
H71 C103 0.929 . S
H72 C105 0.930 . S
H73 C106 0.930 . S
H74 C104 0.929 . S
H75 C107 0.928 . S
O76 Co60 2.057 . S
O76 C64 1.232 . S
H77 C96 0.929 . S
H78 C97 0.929 . S
H79 C109 0.931 . S
H80 C101 0.929 . S
H81 C110 0.930 . S
H82 C102 0.931 . S
O83 Co59 2.097 . S
O83 C111 1.214 . S
H84 C112 0.929 . S
H85 C113 0.929 . S
H86 C114 0.930 . S
H87 C115 0.929 . S
H88 C117 0.930 . S
H89 C94 0.930 . S
H90 C98 0.930 . S
O91 Co60 2.037 . S
O91 C111 1.234 . S
C92 O66 1.269 . S
C92 O67 1.257 . S
C93 H68 0.930 . S
C93 C96 1.388 . S
C93 C98 1.418 . S
C94 H89 0.930 . S
C94 C97 1.404 . S
C94 C98 1.353 . S
N95 Co60 2.145 . S
N95 C96 1.397 . S
N95 C97 1.334 . S
C96 H77 0.929 . S
C96 C93 1.388 . S
C96 N95 1.397 . S
C97 H78 0.929 . S
C97 C94 1.404 . S
C97 N95 1.334 . S
C98 H90 0.930 . S
C98 C93 1.418 . S
C98 C94 1.353 . S
C99 H69 0.930 . S
C99 N100 1.330 . S
C99 C101 1.446 . S
N100 Co59 2.151 . S
N100 C99 1.330 . S
N100 C104 1.418 . S
C101 H80 0.929 . S
C101 C99 1.446 . S
C101 C102 1.332 . S
C102 H82 0.931 . S
C102 C101 1.332 . S
C102 C103 1.267 . S
C103 H71 0.929 . S
C103 C102 1.267 . S
C103 C104 1.251 . S
C104 H74 0.929 . S
C104 N100 1.418 . S
C104 C103 1.251 . S
C105 H72 0.930 . S
C105 C107 1.406 . S
C105 C110 1.261 . S
C106 H73 0.930 . S
C106 N108 1.325 . S
C106 C109 1.357 . S
C107 H75 0.928 . S
C107 C105 1.406 . S
C107 N108 1.261 . S
N108 Co59 2.214 . S
N108 C106 1.325 . S
N108 C107 1.261 . S
C109 H79 0.931 . S
C109 C106 1.357 . S
C109 C110 1.312 . S
C110 H81 0.930 . S
C110 C105 1.261 . S
C110 C109 1.312 . S
C111 O83 1.214 . S
C111 O91 1.234 . S
C112 H84 0.929 . S
C112 C115 1.391 . S
C112 C117 1.391 . S
C113 H85 0.929 . S
C113 C114 1.390 . S
C113 N116 1.391 . S
C114 H86 0.930 . S
C114 C113 1.390 . S
C114 C115 1.392 . S
C115 H87 0.929 . S
C115 C112 1.391 . S
C115 C114 1.392 . S
N116 Co60 2.257 . S
N116 C113 1.391 . S
N116 C117 1.388 . S
C117 H88 0.930 . S
C117 C112 1.391 . S
C117 N116 1.388 . S
Co118 O120 2.143 . S
Co118 O126 2.074 . S
Co118 O129 2.093 . S
Co118 O142 2.097 . S
Co118 N159 2.151 . S
Co118 N167 2.214 . S
Co119 O120 2.160 . S
Co119 O125 2.058 . S
Co119 O135 2.057 1_655 S
Co119 O150 2.037 . S
Co119 N154 2.145 . S
Co119 N175 2.257 1_655 S
O120 Co118 2.143 . S
O120 Co119 2.160 . S
C121 O122 1.278 1_655 S
C121 O129 1.224 . S
O122 C121 1.278 1_455 S
C123 O124 1.245 . S
C123 O135 1.232 . S
O124 C123 1.245 . S
O125 Co119 2.058 . S
O125 C151 1.269 . S
O126 Co118 2.074 . S
O126 C151 1.257 . S
H127 C152 0.930 . S
H128 C158 0.930 . S
O129 Co118 2.093 . S
O129 C121 1.224 . S
H130 C162 0.929 . S
H131 C164 0.930 . S
H132 C165 0.930 . S
H133 C163 0.929 . S
H134 C166 0.928 . S
O135 Co119 2.057 1_455 S
O135 C123 1.232 . S
H136 C155 0.929 . S
H137 C156 0.929 . S
H138 C168 0.931 . S
H139 C160 0.929 . S
H140 C169 0.930 . S
H141 C161 0.931 . S
O142 Co118 2.097 . S
O142 C170 1.214 . S
H143 C171 0.929 . S
H144 C172 0.929 . S
H145 C173 0.930 . S
H146 C174 0.929 . S
H147 C176 0.930 . S
H148 C153 0.930 . S
H149 C157 0.930 . S
O150 Co119 2.037 . S
O150 C170 1.234 . S
C151 O125 1.269 . S
C151 O126 1.257 . S
C152 H127 0.930 . S
C152 C155 1.388 . S
C152 C157 1.418 1_655 S
C153 H148 0.930 . S
C153 C156 1.404 . S
C153 C157 1.353 . S
N154 Co119 2.145 . S
N154 C155 1.397 . S
N154 C156 1.334 1_655 S
C155 H136 0.929 . S
C155 C152 1.388 . S
C155 N154 1.397 . S
C156 H137 0.929 . S
C156 C153 1.404 . S
C156 N154 1.334 1_455 S
C157 H149 0.930 . S
C157 C152 1.418 1_455 S
C157 C153 1.353 . S
C158 H128 0.930 . S
C158 N159 1.330 . S
C158 C160 1.446 . S
N159 Co118 2.151 . S
N159 C158 1.330 . S
N159 C163 1.418 . S
C160 H139 0.929 . S
C160 C158 1.446 . S
C160 C161 1.332 . S
C161 H141 0.931 . S
C161 C160 1.332 . S
C161 C162 1.267 . S
C162 H130 0.929 . S
C162 C161 1.267 . S
C162 C163 1.251 . S
C163 H133 0.929 . S
C163 N159 1.418 . S
C163 C162 1.251 . S
C164 H131 0.930 . S
C164 C166 1.406 . S
C164 C169 1.261 . S
C165 H132 0.930 . S
C165 N167 1.325 . S
C165 C168 1.357 . S
C166 H134 0.928 . S
C166 C164 1.406 . S
C166 N167 1.261 . S
N167 Co118 2.214 . S
N167 C165 1.325 . S
N167 C166 1.261 . S
C168 H138 0.931 . S
C168 C165 1.357 . S
C168 C169 1.312 . S
C169 H140 0.930 . S
C169 C164 1.261 . S
C169 C168 1.312 . S
C170 O142 1.214 . S
C170 O150 1.234 . S
C171 H143 0.929 . S
C171 C174 1.391 . S
C171 C176 1.391 . S
C172 H144 0.929 . S
C172 C173 1.390 . S
C172 N175 1.391 . S
C173 H145 0.930 . S
C173 C172 1.390 . S
C173 C174 1.392 . S
C174 H146 0.929 . S
C174 C171 1.391 . S
C174 C173 1.392 . S
N175 Co119 2.257 1_455 S
N175 C172 1.391 . S
N175 C176 1.388 . S
C176 H147 0.930 . S
C176 C171 1.391 . S
C176 N175 1.388 . S
Co177 O179 2.143 . S
Co177 O185 2.074 . S
Co177 O188 2.093 . S
Co177 O201 2.097 . S
Co177 N218 2.151 . S
Co177 N226 2.214 . S
Co178 O179 2.160 . S
Co178 O184 2.058 . S
Co178 O194 2.057 1_565 S
Co178 O209 2.037 . S
Co178 N213 2.145 . S
Co178 N234 2.257 1_565 S
O179 Co177 2.143 . S
O179 Co178 2.160 . S
C180 O181 1.278 1_565 S
C180 O188 1.224 . S
O181 C180 1.278 1_545 S
C182 O183 1.245 . S
C182 O194 1.232 . S
O183 C182 1.245 . S
O184 Co178 2.058 . S
O184 C210 1.269 . S
O185 Co177 2.074 . S
O185 C210 1.257 . S
H186 C211 0.930 . S
H187 C217 0.930 . S
O188 Co177 2.093 . S
O188 C180 1.224 . S
H189 C221 0.929 . S
H190 C223 0.930 . S
H191 C224 0.930 . S
H192 C222 0.929 . S
H193 C225 0.928 . S
O194 Co178 2.057 1_545 S
O194 C182 1.232 . S
H195 C214 0.929 . S
H196 C215 0.929 . S
H197 C227 0.931 . S
H198 C219 0.929 . S
H199 C228 0.930 . S
H200 C220 0.931 . S
O201 Co177 2.097 . S
O201 C229 1.214 . S
H202 C230 0.929 . S
H203 C231 0.929 . S
H204 C232 0.930 . S
H205 C233 0.929 . S
H206 C235 0.930 . S
H207 C212 0.930 . S
H208 C216 0.930 . S
O209 Co178 2.037 . S
O209 C229 1.234 . S
C210 O184 1.269 . S
C210 O185 1.257 . S
C211 H186 0.930 . S
C211 C214 1.388 . S
C211 C216 1.418 1_565 S
C212 H207 0.930 . S
C212 C215 1.404 . S
C212 C216 1.353 . S
N213 Co178 2.145 . S
N213 C214 1.397 . S
N213 C215 1.334 1_565 S
C214 H195 0.929 . S
C214 C211 1.388 . S
C214 N213 1.397 . S
C215 H196 0.929 . S
C215 C212 1.404 . S
C215 N213 1.334 1_545 S
C216 H208 0.930 . S
C216 C211 1.418 1_545 S
C216 C212 1.353 . S
C217 H187 0.930 . S
C217 N218 1.330 . S
C217 C219 1.446 . S
N218 Co177 2.151 . S
N218 C217 1.330 . S
N218 C222 1.418 . S
C219 H198 0.929 . S
C219 C217 1.446 . S
C219 C220 1.332 . S
C220 H200 0.931 . S
C220 C219 1.332 . S
C220 C221 1.267 . S
C221 H189 0.929 . S
C221 C220 1.267 . S
C221 C222 1.251 . S
C222 H192 0.929 . S
C222 N218 1.418 . S
C222 C221 1.251 . S
C223 H190 0.930 . S
C223 C225 1.406 . S
C223 C228 1.261 . S
C224 H191 0.930 . S
C224 N226 1.325 . S
C224 C227 1.357 . S
C225 H193 0.928 . S
C225 C223 1.406 . S
C225 N226 1.261 . S
N226 Co177 2.214 . S
N226 C224 1.325 . S
N226 C225 1.261 . S
C227 H197 0.931 . S
C227 C224 1.357 . S
C227 C228 1.312 . S
C228 H199 0.930 . S
C228 C223 1.261 . S
C228 C227 1.312 . S
C229 O201 1.214 . S
C229 O209 1.234 . S
C230 H202 0.929 . S
C230 C233 1.391 . S
C230 C235 1.391 . S
C231 H203 0.929 . S
C231 C232 1.390 . S
C231 N234 1.391 . S
C232 H204 0.930 . S
C232 C231 1.390 . S
C232 C233 1.392 . S
C233 H205 0.929 . S
C233 C230 1.391 . S
C233 C232 1.392 . S
N234 Co178 2.257 1_545 S
N234 C231 1.391 . S
N234 C235 1.388 . S
C235 H206 0.930 . S
C235 C230 1.391 . S
C235 N234 1.388 . S
Co236 O238 2.143 . S
Co236 O244 2.074 . S
Co236 O247 2.093 . S
Co236 O260 2.097 . S
Co236 N277 2.151 . S
Co236 N285 2.214 . S
Co237 O238 2.160 . S
Co237 O243 2.058 . S
Co237 O253 2.057 . S
Co237 O268 2.037 . S
Co237 N272 2.145 . S
Co237 N293 2.257 . S
O238 Co236 2.143 . S
O238 Co237 2.160 . S
C239 O240 1.278 . S
C239 O247 1.224 . S
O240 C239 1.278 . S
C241 O242 1.245 . S
C241 O253 1.232 . S
O242 C241 1.245 . S
O243 Co237 2.058 . S
O243 C269 1.269 . S
O244 Co236 2.074 . S
O244 C269 1.257 . S
H245 C270 0.930 . S
H246 C276 0.930 . S
O247 Co236 2.093 . S
O247 C239 1.224 . S
H248 C280 0.929 . S
H249 C282 0.930 . S
H250 C283 0.930 . S
H251 C281 0.929 . S
H252 C284 0.928 . S
O253 Co237 2.057 . S
O253 C241 1.232 . S
H254 C273 0.929 . S
H255 C274 0.929 . S
H256 C286 0.931 . S
H257 C278 0.929 . S
H258 C287 0.930 . S
H259 C279 0.931 . S
O260 Co236 2.097 . S
O260 C288 1.214 . S
H261 C289 0.929 . S
H262 C290 0.929 . S
H263 C291 0.930 . S
H264 C292 0.929 . S
H265 C294 0.930 . S
H266 C271 0.930 . S
H267 C275 0.930 . S
O268 Co237 2.037 . S
O268 C288 1.234 . S
C269 O243 1.269 . S
C269 O244 1.257 . S
C270 H245 0.930 . S
C270 C273 1.388 . S
C270 C275 1.418 . S
C271 H266 0.930 . S
C271 C274 1.404 . S
C271 C275 1.353 . S
N272 Co237 2.145 . S
N272 C273 1.397 . S
N272 C274 1.334 . S
C273 H254 0.929 . S
C273 C270 1.388 . S
C273 N272 1.397 . S
C274 H255 0.929 . S
C274 C271 1.404 . S
C274 N272 1.334 . S
C275 H267 0.930 . S
C275 C270 1.418 . S
C275 C271 1.353 . S
C276 H246 0.930 . S
C276 N277 1.330 . S
C276 C278 1.446 . S
N277 Co236 2.151 . S
N277 C276 1.330 . S
N277 C281 1.418 . S
C278 H257 0.929 . S
C278 C276 1.446 . S
C278 C279 1.332 . S
C279 H259 0.931 . S
C279 C278 1.332 . S
C279 C280 1.267 . S
C280 H248 0.929 . S
C280 C279 1.267 . S
C280 C281 1.251 . S
C281 H251 0.929 . S
C281 N277 1.418 . S
C281 C280 1.251 . S
C282 H249 0.930 . S
C282 C284 1.406 . S
C282 C287 1.261 . S
C283 H250 0.930 . S
C283 N285 1.325 . S
C283 C286 1.357 . S
C284 H252 0.928 . S
C284 C282 1.406 . S
C284 N285 1.261 . S
N285 Co236 2.214 . S
N285 C283 1.325 . S
N285 C284 1.261 . S
C286 H256 0.931 . S
C286 C283 1.357 . S
C286 C287 1.312 . S
C287 H258 0.930 . S
C287 C282 1.261 . S
C287 C286 1.312 . S
C288 O260 1.214 . S
C288 O268 1.234 . S
C289 H261 0.929 . S
C289 C292 1.391 . S
C289 C294 1.391 . S
C290 H262 0.929 . S
C290 C291 1.390 . S
C290 N293 1.391 . S
C291 H263 0.930 . S
C291 C290 1.390 . S
C291 C292 1.392 . S
C292 H264 0.929 . S
C292 C289 1.391 . S
C292 C291 1.392 . S
N293 Co237 2.257 . S
N293 C290 1.391 . S
N293 C294 1.388 . S
C294 H265 0.930 . S
C294 C289 1.391 . S
C294 N293 1.388 . S
Co295 O297 2.143 . S
Co295 O303 2.074 . S
Co295 O306 2.093 . S
Co295 O319 2.097 . S
Co295 N336 2.151 . S
Co295 N344 2.214 . S
Co296 O297 2.160 . S
Co296 O302 2.058 . S
Co296 O312 2.057 . S
Co296 O327 2.037 . S
Co296 N331 2.145 . S
Co296 N352 2.257 . S
O297 Co295 2.143 . S
O297 Co296 2.160 . S
C298 O299 1.278 . S
C298 O306 1.224 . S
O299 C298 1.278 . S
C300 O301 1.245 . S
C300 O312 1.232 . S
O301 C300 1.245 . S
O302 Co296 2.058 . S
O302 C328 1.269 . S
O303 Co295 2.074 . S
O303 C328 1.257 . S
H304 C329 0.930 . S
H305 C335 0.930 . S
O306 Co295 2.093 . S
O306 C298 1.224 . S
H307 C339 0.929 . S
H308 C341 0.930 . S
H309 C342 0.930 . S
H310 C340 0.929 . S
H311 C343 0.928 . S
O312 Co296 2.057 . S
O312 C300 1.232 . S
H313 C332 0.929 . S
H314 C333 0.929 . S
H315 C345 0.931 . S
H316 C337 0.929 . S
H317 C346 0.930 . S
H318 C338 0.931 . S
O319 Co295 2.097 . S
O319 C347 1.214 . S
H320 C348 0.929 . S
H321 C349 0.929 . S
H322 C350 0.930 . S
H323 C351 0.929 . S
H324 C353 0.930 . S
H325 C330 0.930 . S
H326 C334 0.930 . S
O327 Co296 2.037 . S
O327 C347 1.234 . S
C328 O302 1.269 . S
C328 O303 1.257 . S
C329 H304 0.930 . S
C329 C332 1.388 . S
C329 C334 1.418 . S
C330 H325 0.930 . S
C330 C333 1.404 . S
C330 C334 1.353 . S
N331 Co296 2.145 . S
N331 C332 1.397 . S
N331 C333 1.334 . S
C332 H313 0.929 . S
C332 C329 1.388 . S
C332 N331 1.397 . S
C333 H314 0.929 . S
C333 C330 1.404 . S
C333 N331 1.334 . S
C334 H326 0.930 . S
C334 C329 1.418 . S
C334 C330 1.353 . S
C335 H305 0.930 . S
C335 N336 1.330 . S
C335 C337 1.446 . S
N336 Co295 2.151 . S
N336 C335 1.330 . S
N336 C340 1.418 . S
C337 H316 0.929 . S
C337 C335 1.446 . S
C337 C338 1.332 . S
C338 H318 0.931 . S
C338 C337 1.332 . S
C338 C339 1.267 . S
C339 H307 0.929 . S
C339 C338 1.267 . S
C339 C340 1.251 . S
C340 H310 0.929 . S
C340 N336 1.418 . S
C340 C339 1.251 . S
C341 H308 0.930 . S
C341 C343 1.406 . S
C341 C346 1.261 . S
C342 H309 0.930 . S
C342 N344 1.325 . S
C342 C345 1.357 . S
C343 H311 0.928 . S
C343 C341 1.406 . S
C343 N344 1.261 . S
N344 Co295 2.214 . S
N344 C342 1.325 . S
N344 C343 1.261 . S
C345 H315 0.931 . S
C345 C342 1.357 . S
C345 C346 1.312 . S
C346 H317 0.930 . S
C346 C341 1.261 . S
C346 C345 1.312 . S
C347 O319 1.214 . S
C347 O327 1.234 . S
C348 H320 0.929 . S
C348 C351 1.391 . S
C348 C353 1.391 . S
C349 H321 0.929 . S
C349 C350 1.390 . S
C349 N352 1.391 . S
C350 H322 0.930 . S
C350 C349 1.390 . S
C350 C351 1.392 . S
C351 H323 0.929 . S
C351 C348 1.391 . S
C351 C350 1.392 . S
N352 Co296 2.257 . S
N352 C349 1.391 . S
N352 C353 1.388 . S
C353 H324 0.930 . S
C353 C348 1.391 . S
C353 N352 1.388 . S
Co354 O356 2.143 . S
Co354 O362 2.074 . S
Co354 O365 2.093 . S
Co354 O378 2.097 . S
Co354 N395 2.151 . S
Co354 N403 2.214 . S
Co355 O356 2.160 . S
Co355 O361 2.058 . S
Co355 O371 2.057 1_655 S
Co355 O386 2.037 . S
Co355 N390 2.145 . S
Co355 N411 2.257 1_655 S
O356 Co354 2.143 . S
O356 Co355 2.160 . S
C357 O358 1.278 1_655 S
C357 O365 1.224 . S
O358 C357 1.278 1_455 S
C359 O360 1.245 . S
C359 O371 1.232 . S
O360 C359 1.245 . S
O361 Co355 2.058 . S
O361 C387 1.269 . S
O362 Co354 2.074 . S
O362 C387 1.257 . S
H363 C388 0.930 . S
H364 C394 0.930 . S
O365 Co354 2.093 . S
O365 C357 1.224 . S
H366 C398 0.929 . S
H367 C400 0.930 . S
H368 C401 0.930 . S
H369 C399 0.929 . S
H370 C402 0.928 . S
O371 Co355 2.057 1_455 S
O371 C359 1.232 . S
H372 C391 0.929 . S
H373 C392 0.929 . S
H374 C404 0.931 . S
H375 C396 0.929 . S
H376 C405 0.930 . S
H377 C397 0.931 . S
O378 Co354 2.097 . S
O378 C406 1.214 . S
H379 C407 0.929 . S
H380 C408 0.929 . S
H381 C409 0.930 . S
H382 C410 0.929 . S
H383 C412 0.930 . S
H384 C389 0.930 . S
H385 C393 0.930 . S
O386 Co355 2.037 . S
O386 C406 1.234 . S
C387 O361 1.269 . S
C387 O362 1.257 . S
C388 H363 0.930 . S
C388 C391 1.388 . S
C388 C393 1.418 1_655 S
C389 H384 0.930 . S
C389 C392 1.404 . S
C389 C393 1.353 . S
N390 Co355 2.145 . S
N390 C391 1.397 . S
N390 C392 1.334 1_655 S
C391 H372 0.929 . S
C391 C388 1.388 . S
C391 N390 1.397 . S
C392 H373 0.929 . S
C392 C389 1.404 . S
C392 N390 1.334 1_455 S
C393 H385 0.930 . S
C393 C388 1.418 1_455 S
C393 C389 1.353 . S
C394 H364 0.930 . S
C394 N395 1.330 . S
C394 C396 1.446 . S
N395 Co354 2.151 . S
N395 C394 1.330 . S
N395 C399 1.418 . S
C396 H375 0.929 . S
C396 C394 1.446 . S
C396 C397 1.332 . S
C397 H377 0.931 . S
C397 C396 1.332 . S
C397 C398 1.267 . S
C398 H366 0.929 . S
C398 C397 1.267 . S
C398 C399 1.251 . S
C399 H369 0.929 . S
C399 N395 1.418 . S
C399 C398 1.251 . S
C400 H367 0.930 . S
C400 C402 1.406 . S
C400 C405 1.261 . S
C401 H368 0.930 . S
C401 N403 1.325 . S
C401 C404 1.357 . S
C402 H370 0.928 . S
C402 C400 1.406 . S
C402 N403 1.261 . S
N403 Co354 2.214 . S
N403 C401 1.325 . S
N403 C402 1.261 . S
C404 H374 0.931 . S
C404 C401 1.357 . S
C404 C405 1.312 . S
C405 H376 0.930 . S
C405 C400 1.261 . S
C405 C404 1.312 . S
C406 O378 1.214 . S
C406 O386 1.234 . S
C407 H379 0.929 . S
C407 C410 1.391 . S
C407 C412 1.391 . S
C408 H380 0.929 . S
C408 C409 1.390 . S
C408 N411 1.391 . S
C409 H381 0.930 . S
C409 C408 1.390 . S
C409 C410 1.392 . S
C410 H382 0.929 . S
C410 C407 1.391 . S
C410 C409 1.392 . S
N411 Co355 2.257 1_455 S
N411 C408 1.391 . S
N411 C412 1.388 . S
C412 H383 0.930 . S
C412 C407 1.391 . S
C412 N411 1.388 . S
Co413 O415 2.143 . S
Co413 O421 2.074 . S
Co413 O424 2.093 . S
Co413 O437 2.097 . S
Co413 N454 2.151 . S
Co413 N462 2.214 . S
Co414 O415 2.160 . S
Co414 O420 2.058 . S
Co414 O430 2.057 1_565 S
Co414 O445 2.037 . S
Co414 N449 2.145 . S
Co414 N470 2.257 1_565 S
O415 Co413 2.143 . S
O415 Co414 2.160 . S
C416 O417 1.278 1_565 S
C416 O424 1.224 . S
O417 C416 1.278 1_545 S
C418 O419 1.245 . S
C418 O430 1.232 . S
O419 C418 1.245 . S
O420 Co414 2.058 . S
O420 C446 1.269 . S
O421 Co413 2.074 . S
O421 C446 1.257 . S
H422 C447 0.930 . S
H423 C453 0.930 . S
O424 Co413 2.093 . S
O424 C416 1.224 . S
H425 C457 0.929 . S
H426 C459 0.930 . S
H427 C460 0.930 . S
H428 C458 0.929 . S
H429 C461 0.928 . S
O430 Co414 2.057 1_545 S
O430 C418 1.232 . S
H431 C450 0.929 . S
H432 C451 0.929 . S
H433 C463 0.931 . S
H434 C455 0.929 . S
H435 C464 0.930 . S
H436 C456 0.931 . S
O437 Co413 2.097 . S
O437 C465 1.214 . S
H438 C466 0.929 . S
H439 C467 0.929 . S
H440 C468 0.930 . S
H441 C469 0.929 . S
H442 C471 0.930 . S
H443 C448 0.930 . S
H444 C452 0.930 . S
O445 Co414 2.037 . S
O445 C465 1.234 . S
C446 O420 1.269 . S
C446 O421 1.257 . S
C447 H422 0.930 . S
C447 C450 1.388 . S
C447 C452 1.418 1_565 S
C448 H443 0.930 . S
C448 C451 1.404 . S
C448 C452 1.353 . S
N449 Co414 2.145 . S
N449 C450 1.397 . S
N449 C451 1.334 1_565 S
C450 H431 0.929 . S
C450 C447 1.388 . S
C450 N449 1.397 . S
C451 H432 0.929 . S
C451 C448 1.404 . S
C451 N449 1.334 1_545 S
C452 H444 0.930 . S
C452 C447 1.418 1_545 S
C452 C448 1.353 . S
C453 H423 0.930 . S
C453 N454 1.330 . S
C453 C455 1.446 . S
N454 Co413 2.151 . S
N454 C453 1.330 . S
N454 C458 1.418 . S
C455 H434 0.929 . S
C455 C453 1.446 . S
C455 C456 1.332 . S
C456 H436 0.931 . S
C456 C455 1.332 . S
C456 C457 1.267 . S
C457 H425 0.929 . S
C457 C456 1.267 . S
C457 C458 1.251 . S
C458 H428 0.929 . S
C458 N454 1.418 . S
C458 C457 1.251 . S
C459 H426 0.930 . S
C459 C461 1.406 . S
C459 C464 1.261 . S
C460 H427 0.930 . S
C460 N462 1.325 . S
C460 C463 1.357 . S
C461 H429 0.928 . S
C461 C459 1.406 . S
C461 N462 1.261 . S
N462 Co413 2.214 . S
N462 C460 1.325 . S
N462 C461 1.261 . S
C463 H433 0.931 . S
C463 C460 1.357 . S
C463 C464 1.312 . S
C464 H435 0.930 . S
C464 C459 1.261 . S
C464 C463 1.312 . S
C465 O437 1.214 . S
C465 O445 1.234 . S
C466 H438 0.929 . S
C466 C469 1.391 . S
C466 C471 1.391 . S
C467 H439 0.929 . S
C467 C468 1.390 . S
C467 N470 1.391 . S
C468 H440 0.930 . S
C468 C467 1.390 . S
C468 C469 1.392 . S
C469 H441 0.929 . S
C469 C466 1.391 . S
C469 C468 1.392 . S
N470 Co414 2.257 1_545 S
N470 C467 1.391 . S
N470 C471 1.388 . S
C471 H442 0.930 . S
C471 C466 1.391 . S
C471 N470 1.388 . S
Co472 O474 2.143 . S
Co472 O480 2.074 . S
Co472 O483 2.093 . S
Co472 O496 2.097 . S
Co472 N513 2.151 . S
Co472 N521 2.214 . S
Co473 O474 2.160 . S
Co473 O479 2.058 . S
Co473 O489 2.057 . S
Co473 O504 2.037 . S
Co473 N508 2.145 . S
Co473 N529 2.257 . S
O474 Co472 2.143 . S
O474 Co473 2.160 . S
C475 O476 1.278 . S
C475 O483 1.224 . S
O476 C475 1.278 . S
C477 O478 1.245 . S
C477 O489 1.232 . S
O478 C477 1.245 . S
O479 Co473 2.058 . S
O479 C505 1.269 . S
O480 Co472 2.074 . S
O480 C505 1.257 . S
H481 C506 0.930 . S
H482 C512 0.930 . S
O483 Co472 2.093 . S
O483 C475 1.224 . S
H484 C516 0.929 . S
H485 C518 0.930 . S
H486 C519 0.930 . S
H487 C517 0.929 . S
H488 C520 0.928 . S
O489 Co473 2.057 . S
O489 C477 1.232 . S
H490 C509 0.929 . S
H491 C510 0.929 . S
H492 C522 0.931 . S
H493 C514 0.929 . S
H494 C523 0.930 . S
H495 C515 0.931 . S
O496 Co472 2.097 . S
O496 C524 1.214 . S
H497 C525 0.929 . S
H498 C526 0.929 . S
H499 C527 0.930 . S
H500 C528 0.929 . S
H501 C530 0.930 . S
H502 C507 0.930 . S
H503 C511 0.930 . S
O504 Co473 2.037 . S
O504 C524 1.234 . S
C505 O479 1.269 . S
C505 O480 1.257 . S
C506 H481 0.930 . S
C506 C509 1.388 . S
C506 C511 1.418 . S
C507 H502 0.930 . S
C507 C510 1.404 . S
C507 C511 1.353 . S
N508 Co473 2.145 . S
N508 C509 1.397 . S
N508 C510 1.334 . S
C509 H490 0.929 . S
C509 C506 1.388 . S
C509 N508 1.397 . S
C510 H491 0.929 . S
C510 C507 1.404 . S
C510 N508 1.334 . S
C511 H503 0.930 . S
C511 C506 1.418 . S
C511 C507 1.353 . S
C512 H482 0.930 . S
C512 N513 1.330 . S
C512 C514 1.446 . S
N513 Co472 2.151 . S
N513 C512 1.330 . S
N513 C517 1.418 . S
C514 H493 0.929 . S
C514 C512 1.446 . S
C514 C515 1.332 . S
C515 H495 0.931 . S
C515 C514 1.332 . S
C515 C516 1.267 . S
C516 H484 0.929 . S
C516 C515 1.267 . S
C516 C517 1.251 . S
C517 H487 0.929 . S
C517 N513 1.418 . S
C517 C516 1.251 . S
C518 H485 0.930 . S
C518 C520 1.406 . S
C518 C523 1.261 . S
C519 H486 0.930 . S
C519 N521 1.325 . S
C519 C522 1.357 . S
C520 H488 0.928 . S
C520 C518 1.406 . S
C520 N521 1.261 . S
N521 Co472 2.214 . S
N521 C519 1.325 . S
N521 C520 1.261 . S
C522 H492 0.931 . S
C522 C519 1.357 . S
C522 C523 1.312 . S
C523 H494 0.930 . S
C523 C518 1.261 . S
C523 C522 1.312 . S
C524 O496 1.214 . S
C524 O504 1.234 . S
C525 H497 0.929 . S
C525 C528 1.391 . S
C525 C530 1.391 . S
C526 H498 0.929 . S
C526 C527 1.390 . S
C526 N529 1.391 . S
C527 H499 0.930 . S
C527 C526 1.390 . S
C527 C528 1.392 . S
C528 H500 0.929 . S
C528 C525 1.391 . S
C528 C527 1.392 . S
N529 Co473 2.257 . S
N529 C526 1.391 . S
N529 C530 1.388 . S
C530 H501 0.930 . S
C530 C525 1.391 . S
C530 N529 1.388 . S
Co531 O533 2.143 . S
Co531 O539 2.074 . S
Co531 O542 2.093 . S
Co531 O555 2.097 . S
Co531 N572 2.151 . S
Co531 N580 2.214 . S
Co532 O533 2.160 . S
Co532 O538 2.058 . S
Co532 O548 2.057 . S
Co532 O563 2.037 . S
Co532 N567 2.145 . S
Co532 N588 2.257 . S
O533 Co531 2.143 . S
O533 Co532 2.160 . S
C534 O535 1.278 . S
C534 O542 1.224 . S
O535 C534 1.278 . S
C536 O537 1.245 . S
C536 O548 1.232 . S
O537 C536 1.245 . S
O538 Co532 2.058 . S
O538 C564 1.269 . S
O539 Co531 2.074 . S
O539 C564 1.257 . S
H540 C565 0.930 . S
H541 C571 0.930 . S
O542 Co531 2.093 . S
O542 C534 1.224 . S
H543 C575 0.929 . S
H544 C577 0.930 . S
H545 C578 0.930 . S
H546 C576 0.929 . S
H547 C579 0.928 . S
O548 Co532 2.057 . S
O548 C536 1.232 . S
H549 C568 0.929 . S
H550 C569 0.929 . S
H551 C581 0.931 . S
H552 C573 0.929 . S
H553 C582 0.930 . S
H554 C574 0.931 . S
O555 Co531 2.097 . S
O555 C583 1.214 . S
H556 C584 0.929 . S
H557 C585 0.929 . S
H558 C586 0.930 . S
H559 C587 0.929 . S
H560 C589 0.930 . S
H561 C566 0.930 . S
H562 C570 0.930 . S
O563 Co532 2.037 . S
O563 C583 1.234 . S
C564 O538 1.269 . S
C564 O539 1.257 . S
C565 H540 0.930 . S
C565 C568 1.388 . S
C565 C570 1.418 . S
C566 H561 0.930 . S
C566 C569 1.404 . S
C566 C570 1.353 . S
N567 Co532 2.145 . S
N567 C568 1.397 . S
N567 C569 1.334 . S
C568 H549 0.929 . S
C568 C565 1.388 . S
C568 N567 1.397 . S
C569 H550 0.929 . S
C569 C566 1.404 . S
C569 N567 1.334 . S
C570 H562 0.930 . S
C570 C565 1.418 . S
C570 C566 1.353 . S
C571 H541 0.930 . S
C571 N572 1.330 . S
C571 C573 1.446 . S
N572 Co531 2.151 . S
N572 C571 1.330 . S
N572 C576 1.418 . S
C573 H552 0.929 . S
C573 C571 1.446 . S
C573 C574 1.332 . S
C574 H554 0.931 . S
C574 C573 1.332 . S
C574 C575 1.267 . S
C575 H543 0.929 . S
C575 C574 1.267 . S
C575 C576 1.251 . S
C576 H546 0.929 . S
C576 N572 1.418 . S
C576 C575 1.251 . S
C577 H544 0.930 . S
C577 C579 1.406 . S
C577 C582 1.261 . S
C578 H545 0.930 . S
C578 N580 1.325 . S
C578 C581 1.357 . S
C579 H547 0.928 . S
C579 C577 1.406 . S
C579 N580 1.261 . S
N580 Co531 2.214 . S
N580 C578 1.325 . S
N580 C579 1.261 . S
C581 H551 0.931 . S
C581 C578 1.357 . S
C581 C582 1.312 . S
C582 H553 0.930 . S
C582 C577 1.261 . S
C582 C581 1.312 . S
C583 O555 1.214 . S
C583 O563 1.234 . S
C584 H556 0.929 . S
C584 C587 1.391 . S
C584 C589 1.391 . S
C585 H557 0.929 . S
C585 C586 1.390 . S
C585 N588 1.391 . S
C586 H558 0.930 . S
C586 C585 1.390 . S
C586 C587 1.392 . S
C587 H559 0.929 . S
C587 C584 1.391 . S
C587 C586 1.392 . S
N588 Co532 2.257 . S
N588 C585 1.391 . S
N588 C589 1.388 . S
C589 H560 0.930 . S
C589 C584 1.391 . S
C589 N588 1.388 . S
Co590 O592 2.143 . S
Co590 O598 2.074 . S
Co590 O601 2.093 . S
Co590 O614 2.097 . S
Co590 N631 2.151 . S
Co590 N639 2.214 . S
Co591 O592 2.160 . S
Co591 O597 2.058 . S
Co591 O607 2.057 1_455 S
Co591 O622 2.037 . S
Co591 N626 2.145 . S
Co591 N647 2.257 1_455 S
O592 Co590 2.143 . S
O592 Co591 2.160 . S
C593 O594 1.278 1_455 S
C593 O601 1.224 . S
O594 C593 1.278 1_655 S
C595 O596 1.245 . S
C595 O607 1.232 . S
O596 C595 1.245 . S
O597 Co591 2.058 . S
O597 C623 1.269 . S
O598 Co590 2.074 . S
O598 C623 1.257 . S
H599 C624 0.930 . S
H600 C630 0.930 . S
O601 Co590 2.093 . S
O601 C593 1.224 . S
H602 C634 0.929 . S
H603 C636 0.930 . S
H604 C637 0.930 . S
H605 C635 0.929 . S
H606 C638 0.928 . S
O607 Co591 2.057 1_655 S
O607 C595 1.232 . S
H608 C627 0.929 . S
H609 C628 0.929 . S
H610 C640 0.931 . S
H611 C632 0.929 . S
H612 C641 0.930 . S
H613 C633 0.931 . S
O614 Co590 2.097 . S
O614 C642 1.214 . S
H615 C643 0.929 . S
H616 C644 0.929 . S
H617 C645 0.930 . S
H618 C646 0.929 . S
H619 C648 0.930 . S
H620 C625 0.930 . S
H621 C629 0.930 . S
O622 Co591 2.037 . S
O622 C642 1.234 . S
C623 O597 1.269 . S
C623 O598 1.257 . S
C624 H599 0.930 . S
C624 C627 1.388 . S
C624 C629 1.418 1_455 S
C625 H620 0.930 . S
C625 C628 1.404 . S
C625 C629 1.353 . S
N626 Co591 2.145 . S
N626 C627 1.397 . S
N626 C628 1.334 1_455 S
C627 H608 0.929 . S
C627 C624 1.388 . S
C627 N626 1.397 . S
C628 H609 0.929 . S
C628 C625 1.404 . S
C628 N626 1.334 1_655 S
C629 H621 0.930 . S
C629 C624 1.418 1_655 S
C629 C625 1.353 . S
C630 H600 0.930 . S
C630 N631 1.330 . S
C630 C632 1.446 . S
N631 Co590 2.151 . S
N631 C630 1.330 . S
N631 C635 1.418 . S
C632 H611 0.929 . S
C632 C630 1.446 . S
C632 C633 1.332 . S
C633 H613 0.931 . S
C633 C632 1.332 . S
C633 C634 1.267 . S
C634 H602 0.929 . S
C634 C633 1.267 . S
C634 C635 1.251 . S
C635 H605 0.929 . S
C635 N631 1.418 . S
C635 C634 1.251 . S
C636 H603 0.930 . S
C636 C638 1.406 . S
C636 C641 1.261 . S
C637 H604 0.930 . S
C637 N639 1.325 . S
C637 C640 1.357 . S
C638 H606 0.928 . S
C638 C636 1.406 . S
C638 N639 1.261 . S
N639 Co590 2.214 . S
N639 C637 1.325 . S
N639 C638 1.261 . S
C640 H610 0.931 . S
C640 C637 1.357 . S
C640 C641 1.312 . S
C641 H612 0.930 . S
C641 C636 1.261 . S
C641 C640 1.312 . S
C642 O614 1.214 . S
C642 O622 1.234 . S
C643 H615 0.929 . S
C643 C646 1.391 . S
C643 C648 1.391 . S
C644 H616 0.929 . S
C644 C645 1.390 . S
C644 N647 1.391 . S
C645 H617 0.930 . S
C645 C644 1.390 . S
C645 C646 1.392 . S
C646 H618 0.929 . S
C646 C643 1.391 . S
C646 C645 1.392 . S
N647 Co591 2.257 1_655 S
N647 C644 1.391 . S
N647 C648 1.388 . S
C648 H619 0.930 . S
C648 C643 1.391 . S
C648 N647 1.388 . S
Co649 O651 2.143 . S
Co649 O657 2.074 . S
Co649 O660 2.093 . S
Co649 O673 2.097 . S
Co649 N690 2.151 . S
Co649 N698 2.214 . S
Co650 O651 2.160 . S
Co650 O656 2.058 . S
Co650 O666 2.057 1_545 S
Co650 O681 2.037 . S
Co650 N685 2.145 . S
Co650 N706 2.257 1_545 S
O651 Co649 2.143 . S
O651 Co650 2.160 . S
C652 O653 1.278 1_545 S
C652 O660 1.224 . S
O653 C652 1.278 1_565 S
C654 O655 1.245 . S
C654 O666 1.232 . S
O655 C654 1.245 . S
O656 Co650 2.058 . S
O656 C682 1.269 . S
O657 Co649 2.074 . S
O657 C682 1.257 . S
H658 C683 0.930 . S
H659 C689 0.930 . S
O660 Co649 2.093 . S
O660 C652 1.224 . S
H661 C693 0.929 . S
H662 C695 0.930 . S
H663 C696 0.930 . S
H664 C694 0.929 . S
H665 C697 0.928 . S
O666 Co650 2.057 1_565 S
O666 C654 1.232 . S
H667 C686 0.929 . S
H668 C687 0.929 . S
H669 C699 0.931 . S
H670 C691 0.929 . S
H671 C700 0.930 . S
H672 C692 0.931 . S
O673 Co649 2.097 . S
O673 C701 1.214 . S
H674 C702 0.929 . S
H675 C703 0.929 . S
H676 C704 0.930 . S
H677 C705 0.929 . S
H678 C707 0.930 . S
H679 C684 0.930 . S
H680 C688 0.930 . S
O681 Co650 2.037 . S
O681 C701 1.234 . S
C682 O656 1.269 . S
C682 O657 1.257 . S
C683 H658 0.930 . S
C683 C686 1.388 . S
C683 C688 1.418 1_545 S
C684 H679 0.930 . S
C684 C687 1.404 . S
C684 C688 1.353 . S
N685 Co650 2.145 . S
N685 C686 1.397 . S
N685 C687 1.334 1_545 S
C686 H667 0.929 . S
C686 C683 1.388 . S
C686 N685 1.397 . S
C687 H668 0.929 . S
C687 C684 1.404 . S
C687 N685 1.334 1_565 S
C688 H680 0.930 . S
C688 C683 1.418 1_565 S
C688 C684 1.353 . S
C689 H659 0.930 . S
C689 N690 1.330 . S
C689 C691 1.446 . S
N690 Co649 2.151 . S
N690 C689 1.330 . S
N690 C694 1.418 . S
C691 H670 0.929 . S
C691 C689 1.446 . S
C691 C692 1.332 . S
C692 H672 0.931 . S
C692 C691 1.332 . S
C692 C693 1.267 . S
C693 H661 0.929 . S
C693 C692 1.267 . S
C693 C694 1.251 . S
C694 H664 0.929 . S
C694 N690 1.418 . S
C694 C693 1.251 . S
C695 H662 0.930 . S
C695 C697 1.406 . S
C695 C700 1.261 . S
C696 H663 0.930 . S
C696 N698 1.325 . S
C696 C699 1.357 . S
C697 H665 0.928 . S
C697 C695 1.406 . S
C697 N698 1.261 . S
N698 Co649 2.214 . S
N698 C696 1.325 . S
N698 C697 1.261 . S
C699 H669 0.931 . S
C699 C696 1.357 . S
C699 C700 1.312 . S
C700 H671 0.930 . S
C700 C695 1.261 . S
C700 C699 1.312 . S
C701 O673 1.214 . S
C701 O681 1.234 . S
C702 H674 0.929 . S
C702 C705 1.391 . S
C702 C707 1.391 . S
C703 H675 0.929 . S
C703 C704 1.390 . S
C703 N706 1.391 . S
C704 H676 0.930 . S
C704 C703 1.390 . S
C704 C705 1.392 . S
C705 H677 0.929 . S
C705 C702 1.391 . S
C705 C704 1.392 . S
N706 Co650 2.257 1_565 S
N706 C703 1.391 . S
N706 C707 1.388 . S
C707 H678 0.930 . S
C707 C702 1.391 . S
C707 N706 1.388 . S
Co708 O710 2.143 . S
Co708 O716 2.074 . S
Co708 O719 2.093 . S
Co708 O732 2.097 . S
Co708 N749 2.151 . S
Co708 N757 2.214 . S
Co709 O710 2.160 . S
Co709 O715 2.058 . S
Co709 O725 2.057 . S
Co709 O740 2.037 . S
Co709 N744 2.145 . S
Co709 N765 2.257 . S
O710 Co708 2.143 . S
O710 Co709 2.160 . S
C711 O712 1.278 . S
C711 O719 1.224 . S
O712 C711 1.278 . S
C713 O714 1.245 . S
C713 O725 1.232 . S
O714 C713 1.245 . S
O715 Co709 2.058 . S
O715 C741 1.269 . S
O716 Co708 2.074 . S
O716 C741 1.257 . S
H717 C742 0.930 . S
H718 C748 0.930 . S
O719 Co708 2.093 . S
O719 C711 1.224 . S
H720 C752 0.929 . S
H721 C754 0.930 . S
H722 C755 0.930 . S
H723 C753 0.929 . S
H724 C756 0.928 . S
O725 Co709 2.057 . S
O725 C713 1.232 . S
H726 C745 0.929 . S
H727 C746 0.929 . S
H728 C758 0.931 . S
H729 C750 0.929 . S
H730 C759 0.930 . S
H731 C751 0.931 . S
O732 Co708 2.097 . S
O732 C760 1.214 . S
H733 C761 0.929 . S
H734 C762 0.929 . S
H735 C763 0.930 . S
H736 C764 0.929 . S
H737 C766 0.930 . S
H738 C743 0.930 . S
H739 C747 0.930 . S
O740 Co709 2.037 . S
O740 C760 1.234 . S
C741 O715 1.269 . S
C741 O716 1.257 . S
C742 H717 0.930 . S
C742 C745 1.388 . S
C742 C747 1.418 . S
C743 H738 0.930 . S
C743 C746 1.404 . S
C743 C747 1.353 . S
N744 Co709 2.145 . S
N744 C745 1.397 . S
N744 C746 1.334 . S
C745 H726 0.929 . S
C745 C742 1.388 . S
C745 N744 1.397 . S
C746 H727 0.929 . S
C746 C743 1.404 . S
C746 N744 1.334 . S
C747 H739 0.930 . S
C747 C742 1.418 . S
C747 C743 1.353 . S
C748 H718 0.930 . S
C748 N749 1.330 . S
C748 C750 1.446 . S
N749 Co708 2.151 . S
N749 C748 1.330 . S
N749 C753 1.418 . S
C750 H729 0.929 . S
C750 C748 1.446 . S
C750 C751 1.332 . S
C751 H731 0.931 . S
C751 C750 1.332 . S
C751 C752 1.267 . S
C752 H720 0.929 . S
C752 C751 1.267 . S
C752 C753 1.251 . S
C753 H723 0.929 . S
C753 N749 1.418 . S
C753 C752 1.251 . S
C754 H721 0.930 . S
C754 C756 1.406 . S
C754 C759 1.261 . S
C755 H722 0.930 . S
C755 N757 1.325 . S
C755 C758 1.357 . S
C756 H724 0.928 . S
C756 C754 1.406 . S
C756 N757 1.261 . S
N757 Co708 2.214 . S
N757 C755 1.325 . S
N757 C756 1.261 . S
C758 H728 0.931 . S
C758 C755 1.357 . S
C758 C759 1.312 . S
C759 H730 0.930 . S
C759 C754 1.261 . S
C759 C758 1.312 . S
C760 O732 1.214 . S
C760 O740 1.234 . S
C761 H733 0.929 . S
C761 C764 1.391 . S
C761 C766 1.391 . S
C762 H734 0.929 . S
C762 C763 1.390 . S
C762 N765 1.391 . S
C763 H735 0.930 . S
C763 C762 1.390 . S
C763 C764 1.392 . S
C764 H736 0.929 . S
C764 C761 1.391 . S
C764 C763 1.392 . S
N765 Co709 2.257 . S
N765 C762 1.391 . S
N765 C766 1.388 . S
C766 H737 0.930 . S
C766 C761 1.391 . S
C766 N765 1.388 . S
Co767 O769 2.143 . S
Co767 O775 2.074 . S
Co767 O778 2.093 . S
Co767 O791 2.097 . S
Co767 N808 2.151 . S
Co767 N816 2.214 . S
Co768 O769 2.160 . S
Co768 O774 2.058 . S
Co768 O784 2.057 . S
Co768 O799 2.037 . S
Co768 N803 2.145 . S
Co768 N824 2.257 . S
O769 Co767 2.143 . S
O769 Co768 2.160 . S
C770 O771 1.278 . S
C770 O778 1.224 . S
O771 C770 1.278 . S
C772 O773 1.245 . S
C772 O784 1.232 . S
O773 C772 1.245 . S
O774 Co768 2.058 . S
O774 C800 1.269 . S
O775 Co767 2.074 . S
O775 C800 1.257 . S
H776 C801 0.930 . S
H777 C807 0.930 . S
O778 Co767 2.093 . S
O778 C770 1.224 . S
H779 C811 0.929 . S
H780 C813 0.930 . S
H781 C814 0.930 . S
H782 C812 0.929 . S
H783 C815 0.928 . S
O784 Co768 2.057 . S
O784 C772 1.232 . S
H785 C804 0.929 . S
H786 C805 0.929 . S
H787 C817 0.931 . S
H788 C809 0.929 . S
H789 C818 0.930 . S
H790 C810 0.931 . S
O791 Co767 2.097 . S
O791 C819 1.214 . S
H792 C820 0.929 . S
H793 C821 0.929 . S
H794 C822 0.930 . S
H795 C823 0.929 . S
H796 C825 0.930 . S
H797 C802 0.930 . S
H798 C806 0.930 . S
O799 Co768 2.037 . S
O799 C819 1.234 . S
C800 O774 1.269 . S
C800 O775 1.257 . S
C801 H776 0.930 . S
C801 C804 1.388 . S
C801 C806 1.418 . S
C802 H797 0.930 . S
C802 C805 1.404 . S
C802 C806 1.353 . S
N803 Co768 2.145 . S
N803 C804 1.397 . S
N803 C805 1.334 . S
C804 H785 0.929 . S
C804 C801 1.388 . S
C804 N803 1.397 . S
C805 H786 0.929 . S
C805 C802 1.404 . S
C805 N803 1.334 . S
C806 H798 0.930 . S
C806 C801 1.418 . S
C806 C802 1.353 . S
C807 H777 0.930 . S
C807 N808 1.330 . S
C807 C809 1.446 . S
N808 Co767 2.151 . S
N808 C807 1.330 . S
N808 C812 1.418 . S
C809 H788 0.929 . S
C809 C807 1.446 . S
C809 C810 1.332 . S
C810 H790 0.931 . S
C810 C809 1.332 . S
C810 C811 1.267 . S
C811 H779 0.929 . S
C811 C810 1.267 . S
C811 C812 1.251 . S
C812 H782 0.929 . S
C812 N808 1.418 . S
C812 C811 1.251 . S
C813 H780 0.930 . S
C813 C815 1.406 . S
C813 C818 1.261 . S
C814 H781 0.930 . S
C814 N816 1.325 . S
C814 C817 1.357 . S
C815 H783 0.928 . S
C815 C813 1.406 . S
C815 N816 1.261 . S
N816 Co767 2.214 . S
N816 C814 1.325 . S
N816 C815 1.261 . S
C817 H787 0.931 . S
C817 C814 1.357 . S
C817 C818 1.312 . S
C818 H789 0.930 . S
C818 C813 1.261 . S
C818 C817 1.312 . S
C819 O791 1.214 . S
C819 O799 1.234 . S
C820 H792 0.929 . S
C820 C823 1.391 . S
C820 C825 1.391 . S
C821 H793 0.929 . S
C821 C822 1.390 . S
C821 N824 1.391 . S
C822 H794 0.930 . S
C822 C821 1.390 . S
C822 C823 1.392 . S
C823 H795 0.929 . S
C823 C820 1.391 . S
C823 C822 1.392 . S
N824 Co768 2.257 . S
N824 C821 1.391 . S
N824 C825 1.388 . S
C825 H796 0.930 . S
C825 C820 1.391 . S
C825 N824 1.388 . S
Co826 O828 2.143 . S
Co826 O834 2.074 . S
Co826 O837 2.093 . S
Co826 O850 2.097 . S
Co826 N867 2.151 . S
Co826 N875 2.214 . S
Co827 O828 2.160 . S
Co827 O833 2.058 . S
Co827 O843 2.057 1_455 S
Co827 O858 2.037 . S
Co827 N862 2.145 . S
Co827 N883 2.257 1_455 S
O828 Co826 2.143 . S
O828 Co827 2.160 . S
C829 O830 1.278 1_455 S
C829 O837 1.224 . S
O830 C829 1.278 1_655 S
C831 O832 1.245 . S
C831 O843 1.232 . S
O832 C831 1.245 . S
O833 Co827 2.058 . S
O833 C859 1.269 . S
O834 Co826 2.074 . S
O834 C859 1.257 . S
H835 C860 0.930 . S
H836 C866 0.930 . S
O837 Co826 2.093 . S
O837 C829 1.224 . S
H838 C870 0.929 . S
H839 C872 0.930 . S
H840 C873 0.930 . S
H841 C871 0.929 . S
H842 C874 0.928 . S
O843 Co827 2.057 1_655 S
O843 C831 1.232 . S
H844 C863 0.929 . S
H845 C864 0.929 . S
H846 C876 0.931 . S
H847 C868 0.929 . S
H848 C877 0.930 . S
H849 C869 0.931 . S
O850 Co826 2.097 . S
O850 C878 1.214 . S
H851 C879 0.929 . S
H852 C880 0.929 . S
H853 C881 0.930 . S
H854 C882 0.929 . S
H855 C884 0.930 . S
H856 C861 0.930 . S
H857 C865 0.930 . S
O858 Co827 2.037 . S
O858 C878 1.234 . S
C859 O833 1.269 . S
C859 O834 1.257 . S
C860 H835 0.930 . S
C860 C863 1.388 . S
C860 C865 1.418 1_455 S
C861 H856 0.930 . S
C861 C864 1.404 . S
C861 C865 1.353 . S
N862 Co827 2.145 . S
N862 C863 1.397 . S
N862 C864 1.334 1_455 S
C863 H844 0.929 . S
C863 C860 1.388 . S
C863 N862 1.397 . S
C864 H845 0.929 . S
C864 C861 1.404 . S
C864 N862 1.334 1_655 S
C865 H857 0.930 . S
C865 C860 1.418 1_655 S
C865 C861 1.353 . S
C866 H836 0.930 . S
C866 N867 1.330 . S
C866 C868 1.446 . S
N867 Co826 2.151 . S
N867 C866 1.330 . S
N867 C871 1.418 . S
C868 H847 0.929 . S
C868 C866 1.446 . S
C868 C869 1.332 . S
C869 H849 0.931 . S
C869 C868 1.332 . S
C869 C870 1.267 . S
C870 H838 0.929 . S
C870 C869 1.267 . S
C870 C871 1.251 . S
C871 H841 0.929 . S
C871 N867 1.418 . S
C871 C870 1.251 . S
C872 H839 0.930 . S
C872 C874 1.406 . S
C872 C877 1.261 . S
C873 H840 0.930 . S
C873 N875 1.325 . S
C873 C876 1.357 . S
C874 H842 0.928 . S
C874 C872 1.406 . S
C874 N875 1.261 . S
N875 Co826 2.214 . S
N875 C873 1.325 . S
N875 C874 1.261 . S
C876 H846 0.931 . S
C876 C873 1.357 . S
C876 C877 1.312 . S
C877 H848 0.930 . S
C877 C872 1.261 . S
C877 C876 1.312 . S
C878 O850 1.214 . S
C878 O858 1.234 . S
C879 H851 0.929 . S
C879 C882 1.391 . S
C879 C884 1.391 . S
C880 H852 0.929 . S
C880 C881 1.390 . S
C880 N883 1.391 . S
C881 H853 0.930 . S
C881 C880 1.390 . S
C881 C882 1.392 . S
C882 H854 0.929 . S
C882 C879 1.391 . S
C882 C881 1.392 . S
N883 Co827 2.257 1_655 S
N883 C880 1.391 . S
N883 C884 1.388 . S
C884 H855 0.930 . S
C884 C879 1.391 . S
C884 N883 1.388 . S
Co885 O887 2.143 . S
Co885 O893 2.074 . S
Co885 O896 2.093 . S
Co885 O909 2.097 . S
Co885 N926 2.151 . S
Co885 N934 2.214 . S
Co886 O887 2.160 . S
Co886 O892 2.058 . S
Co886 O902 2.057 1_545 S
Co886 O917 2.037 . S
Co886 N921 2.145 . S
Co886 N942 2.257 1_545 S
O887 Co885 2.143 . S
O887 Co886 2.160 . S
C888 O889 1.278 1_545 S
C888 O896 1.224 . S
O889 C888 1.278 1_565 S
C890 O891 1.245 . S
C890 O902 1.232 . S
O891 C890 1.245 . S
O892 Co886 2.058 . S
O892 C918 1.269 . S
O893 Co885 2.074 . S
O893 C918 1.257 . S
H894 C919 0.930 . S
H895 C925 0.930 . S
O896 Co885 2.093 . S
O896 C888 1.224 . S
H897 C929 0.929 . S
H898 C931 0.930 . S
H899 C932 0.930 . S
H900 C930 0.929 . S
H901 C933 0.928 . S
O902 Co886 2.057 1_565 S
O902 C890 1.232 . S
H903 C922 0.929 . S
H904 C923 0.929 . S
H905 C935 0.931 . S
H906 C927 0.929 . S
H907 C936 0.930 . S
H908 C928 0.931 . S
O909 Co885 2.097 . S
O909 C937 1.214 . S
H910 C938 0.929 . S
H911 C939 0.929 . S
H912 C940 0.930 . S
H913 C941 0.929 . S
H914 C943 0.930 . S
H915 C920 0.930 . S
H916 C924 0.930 . S
O917 Co886 2.037 . S
O917 C937 1.234 . S
C918 O892 1.269 . S
C918 O893 1.257 . S
C919 H894 0.930 . S
C919 C922 1.388 . S
C919 C924 1.418 1_545 S
C920 H915 0.930 . S
C920 C923 1.404 . S
C920 C924 1.353 . S
N921 Co886 2.145 . S
N921 C922 1.397 . S
N921 C923 1.334 1_545 S
C922 H903 0.929 . S
C922 C919 1.388 . S
C922 N921 1.397 . S
C923 H904 0.929 . S
C923 C920 1.404 . S
C923 N921 1.334 1_565 S
C924 H916 0.930 . S
C924 C919 1.418 1_565 S
C924 C920 1.353 . S
C925 H895 0.930 . S
C925 N926 1.330 . S
C925 C927 1.446 . S
N926 Co885 2.151 . S
N926 C925 1.330 . S
N926 C930 1.418 . S
C927 H906 0.929 . S
C927 C925 1.446 . S
C927 C928 1.332 . S
C928 H908 0.931 . S
C928 C927 1.332 . S
C928 C929 1.267 . S
C929 H897 0.929 . S
C929 C928 1.267 . S
C929 C930 1.251 . S
C930 H900 0.929 . S
C930 N926 1.418 . S
C930 C929 1.251 . S
C931 H898 0.930 . S
C931 C933 1.406 . S
C931 C936 1.261 . S
C932 H899 0.930 . S
C932 N934 1.325 . S
C932 C935 1.357 . S
C933 H901 0.928 . S
C933 C931 1.406 . S
C933 N934 1.261 . S
N934 Co885 2.214 . S
N934 C932 1.325 . S
N934 C933 1.261 . S
C935 H905 0.931 . S
C935 C932 1.357 . S
C935 C936 1.312 . S
C936 H907 0.930 . S
C936 C931 1.261 . S
C936 C935 1.312 . S
C937 O909 1.214 . S
C937 O917 1.234 . S
C938 H910 0.929 . S
C938 C941 1.391 . S
C938 C943 1.391 . S
C939 H911 0.929 . S
C939 C940 1.390 . S
C939 N942 1.391 . S
C940 H912 0.930 . S
C940 C939 1.390 . S
C940 C941 1.392 . S
C941 H913 0.929 . S
C941 C938 1.391 . S
C941 C940 1.392 . S
N942 Co886 2.257 1_565 S
N942 C939 1.391 . S
N942 C943 1.388 . S
C943 H914 0.930 . S
C943 C938 1.391 . S
C943 N942 1.388 . S
C944 C945 1.387 . S
C944 H948 0.950 . S
C944 C953 1.390 . S
C945 C944 1.387 . S
C945 C947 1.387 . S
H946 C953 0.950 . S
C947 C945 1.387 . S
C947 C949 1.390 . S
C947 H951 0.950 . S
H948 C944 0.950 . S
C949 C947 1.390 . S
C949 C950 1.387 . S
C949 H952 0.950 . S
C950 C949 1.387 . S
C950 C953 1.387 . S
H951 C947 0.950 . S
H952 C949 0.950 . S
C953 C944 1.390 . S
C953 H946 0.950 . S
C953 C950 1.387 . S
C954 C955 1.387 . S
C954 H958 0.950 . S
C954 C963 1.390 . S
C955 C954 1.387 . S
C955 C957 1.387 . S
H956 C963 0.950 . S
C957 C955 1.387 . S
C957 C959 1.390 . S
C957 H961 0.950 . S
H958 C954 0.950 . S
C959 C957 1.390 . S
C959 C960 1.387 . S
C959 H962 0.950 . S
C960 C959 1.387 . S
C960 C963 1.387 . S
H961 C957 0.950 . S
H962 C959 0.950 . S
C963 C954 1.390 . S
C963 H956 0.950 . S
C963 C960 1.387 . S
C964 C965 1.387 . S
C964 H968 0.950 . S
C964 C973 1.390 . S
C965 C964 1.387 . S
C965 C967 1.387 . S
H966 C973 0.950 . S
C967 C965 1.387 . S
C967 C969 1.390 . S
C967 H971 0.950 . S
H968 C964 0.950 . S
C969 C967 1.390 . S
C969 C970 1.387 . S
C969 H972 0.950 . S
C970 C969 1.387 . S
C970 C973 1.387 . S
H971 C967 0.950 . S
H972 C969 0.950 . S
C973 C964 1.390 . S
C973 H966 0.950 . S
C973 C970 1.387 . S
C974 C975 1.387 . S
C974 H978 0.950 . S
C974 C983 1.390 . S
C975 C974 1.387 . S
C975 C977 1.387 . S
H976 C983 0.950 . S
C977 C975 1.387 . S
C977 C979 1.390 . S
C977 H981 0.950 . S
H978 C974 0.950 . S
C979 C977 1.390 . S
C979 C980 1.387 . S
C979 H982 0.950 . S
C980 C979 1.387 . S
C980 C983 1.387 . S
H981 C977 0.950 . S
H982 C979 0.950 . S
C983 C974 1.390 . S
C983 H976 0.950 . S
C983 C980 1.387 . S
C984 C985 1.387 . S
C984 H988 0.950 . S
C984 C993 1.390 . S
C985 C984 1.387 . S
C985 C987 1.387 . S
H986 C993 0.950 . S
C987 C985 1.387 . S
C987 C989 1.390 . S
C987 H991 0.950 . S
H988 C984 0.950 . S
C989 C987 1.390 . S
C989 C990 1.387 . S
C989 H992 0.950 . S
C990 C989 1.387 . S
C990 C993 1.387 . S
H991 C987 0.950 . S
H992 C989 0.950 . S
C993 C984 1.390 . S
C993 H986 0.950 . S
C993 C990 1.387 . S
C994 C995 1.387 . S
C994 H998 0.950 . S
C994 C1003 1.390 . S
C995 C994 1.387 . S
C995 C997 1.387 . S
H996 C1003 0.950 . S
C997 C995 1.387 . S
C997 C999 1.390 . S
C997 H1001 0.950 . S
H998 C994 0.950 . S
C999 C997 1.390 . S
C999 C1000 1.387 . S
C999 H1002 0.950 . S
C1000 C999 1.387 . S
C1000 C1003 1.387 . S
H1001 C997 0.950 . S
H1002 C999 0.950 . S
C1003 C994 1.390 . S
C1003 H996 0.950 . S
C1003 C1000 1.387 . S
C1004 C1005 1.387 . S
C1004 H1008 0.950 . S
C1004 C1013 1.390 . S
C1005 C1004 1.387 . S
C1005 C1007 1.387 . S
H1006 C1013 0.950 . S
C1007 C1005 1.387 . S
C1007 C1009 1.390 . S
C1007 H1011 0.950 . S
H1008 C1004 0.950 . S
C1009 C1007 1.390 . S
C1009 C1010 1.387 . S
C1009 H1012 0.950 . S
C1010 C1009 1.387 . S
C1010 C1013 1.387 . S
H1011 C1007 0.950 . S
H1012 C1009 0.950 . S
C1013 C1004 1.390 . S
C1013 H1006 0.950 . S
C1013 C1010 1.387 . S
C1014 C1015 1.387 . S
C1014 H1018 0.950 . S
C1014 C1023 1.390 . S
C1015 C1014 1.387 . S
C1015 C1017 1.387 . S
H1016 C1023 0.950 . S
C1017 C1015 1.387 . S
C1017 C1019 1.390 . S
C1017 H1021 0.950 . S
H1018 C1014 0.950 . S
C1019 C1017 1.390 . S
C1019 C1020 1.387 . S
C1019 H1022 0.950 . S
C1020 C1019 1.387 . S
C1020 C1023 1.387 . S
H1021 C1017 0.950 . S
H1022 C1019 0.950 . S
C1023 C1014 1.390 . S
C1023 H1016 0.950 . S
C1023 C1020 1.387 . S
C1024 C1025 1.387 . S
C1024 H1028 0.950 . S
C1024 C1033 1.390 . S
C1025 C1024 1.387 . S
C1025 C1027 1.387 . S
H1026 C1033 0.950 . S
C1027 C1025 1.387 . S
C1027 C1029 1.390 . S
C1027 H1031 0.950 . S
H1028 C1024 0.950 . S
C1029 C1027 1.390 . S
C1029 C1030 1.387 . S
C1029 H1032 0.950 . S
C1030 C1029 1.387 . S
C1030 C1033 1.387 . S
H1031 C1027 0.950 . S
H1032 C1029 0.950 . S
C1033 C1024 1.390 . S
C1033 H1026 0.950 . S
C1033 C1030 1.387 . S
C1034 C1035 1.387 . S
C1034 H1038 0.950 . S
C1034 C1043 1.390 . S
C1035 C1034 1.387 . S
C1035 C1037 1.387 . S
H1036 C1043 0.950 . S
C1037 C1035 1.387 . S
C1037 C1039 1.390 . S
C1037 H1041 0.950 . S
H1038 C1034 0.950 . S
C1039 C1037 1.390 . S
C1039 C1040 1.387 . S
C1039 H1042 0.950 . S
C1040 C1039 1.387 . S
C1040 C1043 1.387 . S
H1041 C1037 0.950 . S
H1042 C1039 0.950 . S
C1043 C1034 1.390 . S
C1043 H1036 0.950 . S
C1043 C1040 1.387 . S
C1044 C1045 1.387 . S
C1044 H1048 0.950 . S
C1044 C1053 1.390 . S
C1045 C1044 1.387 . S
C1045 C1047 1.387 . S
H1046 C1053 0.950 . S
C1047 C1045 1.387 . S
C1047 C1049 1.390 . S
C1047 H1051 0.950 . S
H1048 C1044 0.950 . S
C1049 C1047 1.390 . S
C1049 C1050 1.387 . S
C1049 H1052 0.950 . S
C1050 C1049 1.387 . S
C1050 C1053 1.387 . S
H1051 C1047 0.950 . S
H1052 C1049 0.950 . S
C1053 C1044 1.390 . S
C1053 H1046 0.950 . S
C1053 C1050 1.387 . S
C1054 C1055 1.387 . S
C1054 H1058 0.950 . S
C1054 C1063 1.390 . S
C1055 C1054 1.387 . S
C1055 C1057 1.387 . S
H1056 C1063 0.950 . S
C1057 C1055 1.387 . S
C1057 C1059 1.390 . S
C1057 H1061 0.950 . S
H1058 C1054 0.950 . S
C1059 C1057 1.390 . S
C1059 C1060 1.387 . S
C1059 H1062 0.950 . S
C1060 C1059 1.387 . S
C1060 C1063 1.387 . S
H1061 C1057 0.950 . S
H1062 C1059 0.950 . S
C1063 C1054 1.390 . S
C1063 H1056 0.950 . S
C1063 C1060 1.387 . S
C1064 C1065 1.387 . S
C1064 H1068 0.950 . S
C1064 C1073 1.390 . S
C1065 C1064 1.387 . S
C1065 C1067 1.387 . S
H1066 C1073 0.950 . S
C1067 C1065 1.387 . S
C1067 C1069 1.390 . S
C1067 H1071 0.950 . S
H1068 C1064 0.950 . S
C1069 C1067 1.390 . S
C1069 C1070 1.387 . S
C1069 H1072 0.950 . S
C1070 C1069 1.387 . S
C1070 C1073 1.387 . S
H1071 C1067 0.950 . S
H1072 C1069 0.950 . S
C1073 C1064 1.390 . S
C1073 H1066 0.950 . S
C1073 C1070 1.387 . S
C1074 C1075 1.387 . S
C1074 H1078 0.950 . S
C1074 C1083 1.390 . S
C1075 C1074 1.387 . S
C1075 C1077 1.387 . S
H1076 C1083 0.950 . S
C1077 C1075 1.387 . S
C1077 C1079 1.390 . S
C1077 H1081 0.950 . S
H1078 C1074 0.950 . S
C1079 C1077 1.390 . S
C1079 C1080 1.387 . S
C1079 H1082 0.950 . S
C1080 C1079 1.387 . S
C1080 C1083 1.387 . S
H1081 C1077 0.950 . S
H1082 C1079 0.950 . S
C1083 C1074 1.390 . S
C1083 H1076 0.950 . S
C1083 C1080 1.387 . S
C1084 C1085 1.387 . S
C1084 H1088 0.950 . S
C1084 C1093 1.390 . S
C1085 C1084 1.387 . S
C1085 C1087 1.387 . S
H1086 C1093 0.950 . S
C1087 C1085 1.387 . S
C1087 C1089 1.390 . S
C1087 H1091 0.950 . S
H1088 C1084 0.950 . S
C1089 C1087 1.390 . S
C1089 C1090 1.387 . S
C1089 H1092 0.950 . S
C1090 C1089 1.387 . S
C1090 C1093 1.387 . S
H1091 C1087 0.950 . S
H1092 C1089 0.950 . S
C1093 C1084 1.390 . S
C1093 H1086 0.950 . S
C1093 C1090 1.387 . S
C1094 C1095 1.387 . S
C1094 H1098 0.950 . S
C1094 C1103 1.390 . S
C1095 C1094 1.387 . S
C1095 C1097 1.387 . S
H1096 C1103 0.950 . S
C1097 C1095 1.387 . S
C1097 C1099 1.390 . S
C1097 H1101 0.950 . S
H1098 C1094 0.950 . S
C1099 C1097 1.390 . S
C1099 C1100 1.387 . S
C1099 H1102 0.950 . S
C1100 C1099 1.387 . S
C1100 C1103 1.387 . S
H1101 C1097 0.950 . S
H1102 C1099 0.950 . S
C1103 C1094 1.390 . S
C1103 H1096 0.950 . S
C1103 C1100 1.387 . S
C1104 C1105 1.387 . S
C1104 H1108 0.950 . S
C1104 C1113 1.390 . S
C1105 C1104 1.387 . S
C1105 C1107 1.387 . S
H1106 C1113 0.950 . S
C1107 C1105 1.387 . S
C1107 C1109 1.390 . S
C1107 H1111 0.950 . S
H1108 C1104 0.950 . S
C1109 C1107 1.390 . S
C1109 C1110 1.387 . S
C1109 H1112 0.950 . S
C1110 C1109 1.387 . S
C1110 C1113 1.387 . S
H1111 C1107 0.950 . S
H1112 C1109 0.950 . S
C1113 C1104 1.390 . S
C1113 H1106 0.950 . S
C1113 C1110 1.387 . S
C1114 C1115 1.387 . S
C1114 H1118 0.950 . S
C1114 C1123 1.390 . S
C1115 C1114 1.387 . S
C1115 C1117 1.387 . S
H1116 C1123 0.950 . S
C1117 C1115 1.387 . S
C1117 C1119 1.390 . S
C1117 H1121 0.950 . S
H1118 C1114 0.950 . S
C1119 C1117 1.390 . S
C1119 C1120 1.387 . S
C1119 H1122 0.950 . S
C1120 C1119 1.387 . S
C1120 C1123 1.387 . S
H1121 C1117 0.950 . S
H1122 C1119 0.950 . S
C1123 C1114 1.390 . S
C1123 H1116 0.950 . S
C1123 C1120 1.387 . S
C1124 C1125 1.387 . S
C1124 H1128 0.950 . S
C1124 C1133 1.390 . S
C1125 C1124 1.387 . S
C1125 C1127 1.387 . S
H1126 C1133 0.950 . S
C1127 C1125 1.387 . S
C1127 C1129 1.390 . S
C1127 H1131 0.950 . S
H1128 C1124 0.950 . S
C1129 C1127 1.390 . S
C1129 C1130 1.387 . S
C1129 H1132 0.950 . S
C1130 C1129 1.387 . S
C1130 C1133 1.387 . S
H1131 C1127 0.950 . S
H1132 C1129 0.950 . S
C1133 C1124 1.390 . S
C1133 H1126 0.950 . S
C1133 C1130 1.387 . S
C1134 C1135 1.387 . S
C1134 H1138 0.950 . S
C1134 C1143 1.390 . S
C1135 C1134 1.387 . S
C1135 C1137 1.387 . S
H1136 C1143 0.950 . S
C1137 C1135 1.387 . S
C1137 C1139 1.390 . S
C1137 H1141 0.950 . S
H1138 C1134 0.950 . S
C1139 C1137 1.390 . S
C1139 C1140 1.387 . S
C1139 H1142 0.950 . S
C1140 C1139 1.387 . S
C1140 C1143 1.387 . S
H1141 C1137 0.950 . S
H1142 C1139 0.950 . S
C1143 C1134 1.390 . S
C1143 H1136 0.950 . S
C1143 C1140 1.387 . S
C1144 C1145 1.387 . S
C1144 H1148 0.950 . S
C1144 C1153 1.390 . S
C1145 C1144 1.387 . S
C1145 C1147 1.387 . S
H1146 C1153 0.950 . S
C1147 C1145 1.387 . S
C1147 C1149 1.390 . S
C1147 H1151 0.950 . S
H1148 C1144 0.950 . S
C1149 C1147 1.390 . S
C1149 C1150 1.387 . S
C1149 H1152 0.950 . S
C1150 C1149 1.387 . S
C1150 C1153 1.387 . S
H1151 C1147 0.950 . S
H1152 C1149 0.950 . S
C1153 C1144 1.390 . S
C1153 H1146 0.950 . S
C1153 C1150 1.387 . S
C1154 C1155 1.387 . S
C1154 H1158 0.950 . S
C1154 C1163 1.390 . S
C1155 C1154 1.387 . S
C1155 C1157 1.387 . S
H1156 C1163 0.950 . S
C1157 C1155 1.387 . S
C1157 C1159 1.390 . S
C1157 H1161 0.950 . S
H1158 C1154 0.950 . S
C1159 C1157 1.390 . S
C1159 C1160 1.387 . S
C1159 H1162 0.950 . S
C1160 C1159 1.387 . S
C1160 C1163 1.387 . S
H1161 C1157 0.950 . S
H1162 C1159 0.950 . S
C1163 C1154 1.390 . S
C1163 H1156 0.950 . S
C1163 C1160 1.387 . S
C1164 C1165 1.387 . S
C1164 H1168 0.950 . S
C1164 C1173 1.390 . S
C1165 C1164 1.387 . S
C1165 C1167 1.387 . S
H1166 C1173 0.950 . S
C1167 C1165 1.387 . S
C1167 C1169 1.390 . S
C1167 H1171 0.950 . S
H1168 C1164 0.950 . S
C1169 C1167 1.390 . S
C1169 C1170 1.387 . S
C1169 H1172 0.950 . S
C1170 C1169 1.387 . S
C1170 C1173 1.387 . S
H1171 C1167 0.950 . S
H1172 C1169 0.950 . S
C1173 C1164 1.390 . S
C1173 H1166 0.950 . S
C1173 C1170 1.387 . S
C1174 C1175 1.387 . S
C1174 H1178 0.950 . S
C1174 C1183 1.390 . S
C1175 C1174 1.387 . S
C1175 C1177 1.387 . S
H1176 C1183 0.950 . S
C1177 C1175 1.387 . S
C1177 C1179 1.390 . S
C1177 H1181 0.950 . S
H1178 C1174 0.950 . S
C1179 C1177 1.390 . S
C1179 C1180 1.387 . S
C1179 H1182 0.950 . S
C1180 C1179 1.387 . S
C1180 C1183 1.387 . S
H1181 C1177 0.950 . S
H1182 C1179 0.950 . S
C1183 C1174 1.390 . S
C1183 H1176 0.950 . S
C1183 C1180 1.387 . S
C1184 C1185 1.387 . S
C1184 H1188 0.950 . S
C1184 C1193 1.390 1_554 S
C1185 C1184 1.387 . S
C1185 C1187 1.387 . S
H1186 C1193 0.950 . S
C1187 C1185 1.387 . S
C1187 C1189 1.390 1_554 S
C1187 H1191 0.950 . S
H1188 C1184 0.950 . S
C1189 C1187 1.390 1_556 S
C1189 C1190 1.387 . S
C1189 H1192 0.950 . S
C1190 C1189 1.387 . S
C1190 C1193 1.387 . S
H1191 C1187 0.950 . S
H1192 C1189 0.950 . S
C1193 C1184 1.390 1_556 S
C1193 H1186 0.950 . S
C1193 C1190 1.387 . S
C1194 C1195 1.387 . S
C1194 H1198 0.950 . S
C1194 C1203 1.390 . S
C1195 C1194 1.387 . S
C1195 C1197 1.387 . S
H1196 C1203 0.950 . S
C1197 C1195 1.387 . S
C1197 C1199 1.390 . S
C1197 H1201 0.950 . S
H1198 C1194 0.950 . S
C1199 C1197 1.390 . S
C1199 C1200 1.387 . S
C1199 H1202 0.950 . S
C1200 C1199 1.387 . S
C1200 C1203 1.387 . S
H1201 C1197 0.950 . S
H1202 C1199 0.950 . S
C1203 C1194 1.390 . S
C1203 H1196 0.950 . S
C1203 C1200 1.387 . S
C1204 C1205 1.387 . S
C1204 H1208 0.950 . S
C1204 C1213 1.390 1_554 S
C1205 C1204 1.387 . S
C1205 C1207 1.387 1_655 S
H1206 C1213 0.950 . S
C1207 C1205 1.387 1_455 S
C1207 C1209 1.390 1_554 S
C1207 H1211 0.950 . S
H1208 C1204 0.950 . S
C1209 C1207 1.390 1_556 S
C1209 C1210 1.387 1_455 S
C1209 H1212 0.950 . S
C1210 C1209 1.387 1_655 S
C1210 C1213 1.387 . S
H1211 C1207 0.950 . S
H1212 C1209 0.950 . S
C1213 C1204 1.390 1_556 S
C1213 H1206 0.950 . S
C1213 C1210 1.387 . S
C1214 C1215 1.387 1_545 S
C1214 H1218 0.950 . S
C1214 C1223 1.390 . S
C1215 C1214 1.387 1_565 S
C1215 C1217 1.387 . S
H1216 C1223 0.950 . S
C1217 C1215 1.387 . S
C1217 C1219 1.390 . S
C1217 H1221 0.950 . S
H1218 C1214 0.950 . S
C1219 C1217 1.390 . S
C1219 C1220 1.387 . S
C1219 H1222 0.950 . S
C1220 C1219 1.387 . S
C1220 C1223 1.387 1_565 S
H1221 C1217 0.950 . S
H1222 C1219 0.950 . S
C1223 C1214 1.390 . S
C1223 H1216 0.950 . S
C1223 C1220 1.387 1_545 S
C1224 C1225 1.387 . S
C1224 H1228 0.950 . S
C1224 C1233 1.390 1_556 S
C1225 C1224 1.387 . S
C1225 C1227 1.387 . S
H1226 C1233 0.950 . S
C1227 C1225 1.387 . S
C1227 C1229 1.390 1_556 S
C1227 H1231 0.950 . S
H1228 C1224 0.950 . S
C1229 C1227 1.390 1_554 S
C1229 C1230 1.387 . S
C1229 H1232 0.950 . S
C1230 C1229 1.387 . S
C1230 C1233 1.387 . S
H1231 C1227 0.950 . S
H1232 C1229 0.950 . S
C1233 C1224 1.390 1_554 S
C1233 H1226 0.950 . S
C1233 C1230 1.387 . S
C1234 C1235 1.387 . S
C1234 H1238 0.950 . S
C1234 C1243 1.390 . S
C1235 C1234 1.387 . S
C1235 C1237 1.387 . S
H1236 C1243 0.950 . S
C1237 C1235 1.387 . S
C1237 C1239 1.390 . S
C1237 H1241 0.950 . S
H1238 C1234 0.950 . S
C1239 C1237 1.390 . S
C1239 C1240 1.387 . S
C1239 H1242 0.950 . S
C1240 C1239 1.387 . S
C1240 C1243 1.387 . S
H1241 C1237 0.950 . S
H1242 C1239 0.950 . S
C1243 C1234 1.390 . S
C1243 H1236 0.950 . S
C1243 C1240 1.387 . S
C1244 C1245 1.387 . S
C1244 H1248 0.950 . S
C1244 C1253 1.390 1_554 S
C1245 C1244 1.387 . S
C1245 C1247 1.387 1_455 S
H1246 C1253 0.950 . S
C1247 C1245 1.387 1_655 S
C1247 C1249 1.390 1_554 S
C1247 H1251 0.950 . S
H1248 C1244 0.950 . S
C1249 C1247 1.390 1_556 S
C1249 C1250 1.387 1_655 S
C1249 H1252 0.950 . S
C1250 C1249 1.387 1_455 S
C1250 C1253 1.387 . S
H1251 C1247 0.950 . S
H1252 C1249 0.950 . S
C1253 C1244 1.390 1_556 S
C1253 H1246 0.950 . S
C1253 C1250 1.387 . S
C1254 C1255 1.387 . S
C1254 H1258 0.950 . S
C1254 C1263 1.390 . S
C1255 C1254 1.387 . S
C1255 C1257 1.387 1_545 S
H1256 C1263 0.950 . S
C1257 C1255 1.387 1_565 S
C1257 C1259 1.390 . S
C1257 H1261 0.950 . S
H1258 C1254 0.950 . S
C1259 C1257 1.390 . S
C1259 C1260 1.387 1_565 S
C1259 H1262 0.950 . S
C1260 C1259 1.387 1_545 S
C1260 C1263 1.387 . S
H1261 C1257 0.950 . S
H1262 C1259 0.950 . S
C1263 C1254 1.390 . S
C1263 H1256 0.950 . S
C1263 C1260 1.387 . S
C945 C5 1.493 . S
C950 C418 1.494 . S
C955 C64 1.494 . S
C960 C241 1.493 . S
C965 C123 1.494 . S
C970 C300 1.493 . S
C975 C182 1.493 . S
C980 C359 1.494 . S
C985 C477 1.494 . S
C990 C890 1.494 . S
C995 C713 1.493 . S
C1000 C536 1.494 . S
C1005 C595 1.494 . S
C1010 C772 1.493 . S
C1015 C654 1.494 . S
C1020 C831 1.494 . S
C1025 C52 1.592 . S
C1030 C564 1.588 . S
C1035 C111 1.592 . S
C1040 C623 1.589 . S
C1045 C682 1.589 . S
C1050 C170 1.592 . S
C1055 C229 1.592 . S
C1060 C505 1.589 . S
C1065 C288 1.593 . S
C1070 C918 1.589 . S
C1075 C741 1.589 . S
C1080 C347 1.592 . S
C1085 C800 1.589 . S
C1090 C406 1.593 . S
C1095 C859 1.589 . S
C1100 C465 1.592 . S
C1105 C92 1.589 . S
C1110 C524 1.593 . S
C1115 C151 1.589 . S
C1120 C583 1.592 . S
C1125 C642 1.592 . S
C1130 C210 1.589 . S
C1135 C33 1.589 . S
C1140 C701 1.592 . S
C1145 C760 1.592 . S
C1150 C446 1.589 . S
C1155 C819 1.593 . S
C1160 C269 1.589 . S
C1165 C328 1.589 . S
C1170 C878 1.593 . S
C1175 C387 1.589 . S
C1180 C937 1.592 . S
C1185 C3 1.656 . S
C1190 C239 1.656 . S
C1195 C298 1.656 . S
C1200 C62 1.656 . S
C1205 C121 1.656 . S
C1210 C357 1.656 . S
C1215 C416 1.655 . S
C1220 C180 1.656 . S
C1225 C475 1.656 . S
C1230 C711 1.656 . S
C1235 C770 1.656 . S
C1240 C534 1.656 . S
C1245 C829 1.656 . S
C1250 C593 1.655 . S
C1255 C888 1.655 . S
C1260 C652 1.656 . S
