# Generated by pormake.
# Topology sod, (4)-cn, num edge types: 1
# Building blocks:
#     Node 0, Type 0, BuildingBlock: QUQFOY_clean_sbu_3, # of connection points: 4
#     Node 1, Type 0, BuildingBlock: QUQFOY_clean_sbu_3, # of connection points: 4
#     Node 2, Type 0, BuildingBlock: QUQFOY_clean_sbu_3, # of connection points: 4
#     Node 3, Type 0, BuildingBlock: QUQFOY_clean_sbu_3, # of connection points: 4
#     Node 4, Type 0, BuildingBlock: QUQFOY_clean_sbu_3, # of connection points: 4
#     Node 5, Type 0, BuildingBlock: QUQFOY_clean_sbu_3, # of connection points: 4
#     Node 6, Type 0, BuildingBlock: QUQFOY_clean_sbu_3, # of connection points: 4
#     Node 7, Type 0, BuildingBlock: QUQFOY_clean_sbu_3, # of connection points: 4
#     Node 8, Type 0, BuildingBlock: QUQFOY_clean_sbu_3, # of connection points: 4
#     Node 9, Type 0, BuildingBlock: QUQFOY_clean_sbu_3, # of connection points: 4
#     Node 10, Type 0, BuildingBlock: QUQFOY_clean_sbu_3, # of connection points: 4
#     Node 11, Type 0, BuildingBlock: QUQFOY_clean_sbu_3, # of connection points: 4
#     Edge 12, Type (0, 0), BuildingBlock: MIFKUJ_clean_linker_0, # of connection points: 2
#     Edge 13, Type (0, 0), BuildingBlock: MIFKUJ_clean_linker_0, # of connection points: 2
#     Edge 14, Type (0, 0), BuildingBlock: MIFKUJ_clean_linker_0, # of connection points: 2
#     Edge 15, Type (0, 0), BuildingBlock: MIFKUJ_clean_linker_0, # of connection points: 2
#     Edge 16, Type (0, 0), BuildingBlock: MIFKUJ_clean_linker_0, # of connection points: 2
#     Edge 17, Type (0, 0), BuildingBlock: MIFKUJ_clean_linker_0, # of connection points: 2
#     Edge 18, Type (0, 0), BuildingBlock: MIFKUJ_clean_linker_0, # of connection points: 2
#     Edge 19, Type (0, 0), BuildingBlock: MIFKUJ_clean_linker_0, # of connection points: 2
#     Edge 20, Type (0, 0), BuildingBlock: MIFKUJ_clean_linker_0, # of connection points: 2
#     Edge 21, Type (0, 0), BuildingBlock: MIFKUJ_clean_linker_0, # of connection points: 2
#     Edge 22, Type (0, 0), BuildingBlock: MIFKUJ_clean_linker_0, # of connection points: 2
#     Edge 23, Type (0, 0), BuildingBlock: MIFKUJ_clean_linker_0, # of connection points: 2
#     Edge 24, Type (0, 0), BuildingBlock: MIFKUJ_clean_linker_0, # of connection points: 2
#     Edge 25, Type (0, 0), BuildingBlock: MIFKUJ_clean_linker_0, # of connection points: 2
#     Edge 26, Type (0, 0), BuildingBlock: MIFKUJ_clean_linker_0, # of connection points: 2
#     Edge 27, Type (0, 0), BuildingBlock: MIFKUJ_clean_linker_0, # of connection points: 2
#     Edge 28, Type (0, 0), BuildingBlock: MIFKUJ_clean_linker_0, # of connection points: 2
#     Edge 29, Type (0, 0), BuildingBlock: MIFKUJ_clean_linker_0, # of connection points: 2
#     Edge 30, Type (0, 0), BuildingBlock: MIFKUJ_clean_linker_0, # of connection points: 2
#     Edge 31, Type (0, 0), BuildingBlock: MIFKUJ_clean_linker_0, # of connection points: 2
#     Edge 32, Type (0, 0), BuildingBlock: MIFKUJ_clean_linker_0, # of connection points: 2
#     Edge 33, Type (0, 0), BuildingBlock: MIFKUJ_clean_linker_0, # of connection points: 2
#     Edge 34, Type (0, 0), BuildingBlock: MIFKUJ_clean_linker_0, # of connection points: 2
#     Edge 35, Type (0, 0), BuildingBlock: MIFKUJ_clean_linker_0, # of connection points: 2
# Relax obj value: 0.139
# Max RMSD: 0.179
# Mean RMSD: 0.168
data_MOF--net-sod--node1-QUQFOY_clean_sbu_3--edge1-MIFKUJ_clean_linker_0
_symmetry_space_group_name_H-M    P1
_symmetry_Int_Tables_number       1
_symmetry_cell_setting            triclinic
loop_
_symmetry_equiv_pos_as_xyz
'x, y, z'
_cell_length_a     55.593188
_cell_length_b     56.425442
_cell_length_c     55.933921
_cell_angle_alpha  92.522791
_cell_angle_beta   90.099964
_cell_angle_gamma 91.23453
loop_
_atom_site_label
_atom_site_type_symbol
_atom_site_fract_x
_atom_site_fract_y
_atom_site_fract_z
_atom_type_partial_charge
C0 C 0.99319 0.22442 0.52031 0.0
O1 O 0.0009 0.23228 0.54062 0.0
Cd2 Cd 0.02539 0.26725 0.54782 0.0
O3 O -0.00144 0.23503 0.50129 0.0
Cd4 Cd 0.02341 0.26997 0.49067 0.0
C5 C 0.07374 0.248 0.51683 0.0
O6 O 0.00688 0.29482 0.52228 0.0
O7 O 0.03403 0.31212 0.5015 0.0
O8 O -0.0008 0.27526 0.45456 0.0
C9 C 0.01839 0.31368 0.51792 0.0
O10 O 0.06573 0.25375 0.53752 0.0
C11 C 0.01735 0.27561 0.44075 0.0
O12 O 0.06135 0.25148 0.49826 0.0
O13 O 0.03778 0.2728 0.45022 0.0
C14 C 0.735 0.03261 0.47152 0.0
O15 O 0.74182 0.05376 0.4771 0.0
Cd16 Cd 0.77063 0.06445 0.50742 0.0
O17 O 0.74379 0.01515 0.48208 0.0
Cd18 Cd 0.7739 0.00911 0.51401 0.0
C19 C 0.7408 0.04114 0.55429 0.0
O20 O 0.80248 0.03719 0.49885 0.0
O21 O 0.81188 0.02429 0.53314 0.0
O22 O 0.7841 0.97109 0.49436 0.0
C23 C 0.81788 0.03627 0.51537 0.0
O24 O 0.74801 0.06002 0.54464 0.0
C25 C 0.78293 0.95965 0.51341 0.0
O26 O 0.74704 0.02095 0.54586 0.0
O27 O 0.77716 0.97121 0.53243 0.0
C28 C 0.93433 0.76592 0.50036 0.0
O29 O 0.94098 0.76068 0.47911 0.0
Cd30 Cd 0.97564 0.73825 0.46939 0.0
O31 O 0.94658 0.75956 0.5182 0.0
Cd32 Cd 0.98421 0.73749 0.52419 0.0
C33 C 0.01755 0.77681 0.49365 0.0
O34 O 0.97222 0.70589 0.49596 0.0
O35 O 0.00892 0.70436 0.50787 0.0
O36 O 0.96715 0.72708 0.56272 0.0
C37 C 0.99131 0.69425 0.49689 0.0
O38 O 0.00972 0.76656 0.47437 0.0
C39 C 0.9871 0.72869 0.57384 0.0
O40 O 0.00991 0.77042 0.5138 0.0
O41 O 0.00543 0.73482 0.56195 0.0
C42 C 0.27876 0.97596 0.46022 0.0
O43 O 0.27434 0.95499 0.46663 0.0
Cd44 Cd 0.24461 0.94356 0.49463 0.0
O45 O 0.26696 -0.00658 0.46904 0.0
Cd46 Cd 0.23406 -0.00129 0.49897 0.0
C47 C 0.26703 0.97503 0.54315 0.0
O48 O 0.21047 0.96547 0.48256 0.0
O49 O 0.19665 0.98098 0.51539 0.0
O50 O 0.21977 0.03336 0.47851 0.0
C51 C 0.1937 0.96633 0.49775 0.0
O52 O 0.26276 0.95446 0.53364 0.0
C53 C 0.21929 0.04668 0.49743 0.0
O54 O 0.25952 -0.00662 0.53338 0.0
O55 O 0.22593 0.03767 0.51668 0.0
C56 C 0.55021 -0.00555 0.2936 0.0
O57 O 0.54388 0.97325 0.28767 0.0
Cd58 Cd 0.514 0.96261 0.25844 0.0
O59 O 0.54039 0.01188 0.28391 0.0
Cd60 Cd 0.50862 0.01689 0.2533 0.0
C61 C 0.46609 0.98864 0.28558 0.0
O62 O 0.52444 0.98714 0.22575 0.0
O63 O 0.4897 -7e-05 0.21594 0.0
O64 O 0.52885 0.05235 0.23881 0.0
C65 C 0.50818 0.98828 0.21005 0.0
O66 O 0.47572 0.96918 0.27899 0.0
C67 C 0.51045 0.06524 0.24061 0.0
O68 O 0.47521 0.00829 0.27947 0.0
O69 O 0.49162 0.05588 0.24927 0.0
C70 C 0.04388 0.52351 0.22685 0.0
O71 O 0.03633 0.5433 0.23511 0.0
Cd72 Cd 0.00557 0.54803 0.26442 0.0
O73 O 0.03532 0.50401 0.23431 0.0
Cd74 Cd 0.00511 0.4922 0.26466 0.0
C75 C 0.95949 0.51804 0.23562 0.0
O76 O 0.01848 0.52196 0.29459 0.0
O77 O 0.98608 0.50282 0.30348 0.0
O78 O 0.02869 0.45705 0.27213 0.0
C79 C 0.00272 0.51736 0.31006 0.0
O80 O 0.96744 0.53824 0.24346 0.0
C81 C 0.01057 0.44292 0.2718 0.0
O82 O 0.97063 0.49931 0.24003 0.0
O83 O 0.99029 0.45168 0.26741 0.0
C84 C 0.53767 0.03375 0.71087 0.0
O85 O 0.52652 0.05271 0.71597 0.0
Cd86 Cd 0.49483 0.0557 0.7445 0.0
O87 O 0.53169 0.01443 0.72054 0.0
Cd88 Cd 0.50067 0.00191 0.7497 0.0
C89 C 0.45314 0.01919 0.71718 0.0
O90 O 0.51009 0.03472 0.77773 0.0
O91 O 0.47879 0.01387 0.78669 0.0
O92 O 0.52783 0.97084 0.76162 0.0
C93 C 0.4943 0.0297 0.79302 0.0
O94 O 0.45808 0.04041 0.72447 0.0
C95 C 0.51143 0.95485 0.76226 0.0
O96 O 0.46675 0.00242 0.72254 0.0
O97 O 0.49043 0.96064 0.75621 0.0
C98 C 0.03752 0.48505 0.79014 0.0
O99 O 0.02862 0.46473 0.78409 0.0
Cd100 Cd -0.0011 0.45732 0.75353 0.0
O101 O 0.03015 0.50368 0.78053 0.0
Cd102 Cd -0.00065 0.5135 0.75068 0.0
C103 C 0.95273 0.48656 0.77967 0.0
O104 O 0.01231 0.48276 0.72259 0.0
O105 O 0.98233 0.50258 0.71051 0.0
O106 O 0.02193 0.54976 0.74101 0.0
C107 C -0.00216 0.48691 0.70591 0.0
O108 O 0.96056 0.4664 0.77271 0.0
C109 C 0.00397 0.56313 0.74399 0.0
O110 O 0.96416 0.50546 0.7748 0.0
O111 O 0.98446 0.5534 0.7506 0.0
C112 C 0.21949 0.53615 0.96495 0.0
O113 O 0.22025 0.55813 0.97089 0.0
Cd114 Cd 0.24669 0.57605 0.00042 0.0
O115 O 0.23328 0.52175 0.97493 0.0
Cd116 Cd 0.26421 0.5241 0.00696 0.0
C117 C 0.22458 0.54692 0.0476 0.0
O118 O 0.2852 0.55863 0.99207 0.0
O119 O 0.29753 0.54706 0.02611 0.0
O120 O 0.28322 0.48965 0.98748 0.0
C121 C 0.30061 0.56049 0.00876 0.0
O122 O 0.22676 0.56686 0.03796 0.0
C123 C 0.28491 0.4784 0.00658 0.0
O124 O 0.23547 0.52892 0.03905 0.0
O125 O 0.27683 0.48841 0.02557 0.0
C126 C 0.43882 0.28074 0.99198 0.0
O127 O 0.44541 0.27567 0.97068 0.0
Cd128 Cd 0.47805 0.25094 0.96033 0.0
O129 O 0.44954 0.27202 0.00968 0.0
Cd130 Cd 0.48324 0.24418 0.01521 0.0
C131 C 0.5229 0.2821 0.99023 0.0
O132 O 0.47057 0.2165 0.98339 0.0
O133 O 0.50601 0.21055 -0.0028 0.0
O134 O 0.46287 0.22738 0.0495 0.0
C135 C 0.48842 0.20309 0.98432 0.0
O136 O 0.51362 0.2761 0.96998 0.0
C137 C 0.48098 0.22966 0.06335 0.0
O138 O 0.51471 0.27355 0.00928 0.0
O139 O 0.49977 0.23934 0.05497 0.0
C140 C 0.7834 0.48025 0.96953 0.0
O141 O 0.78169 0.4596 0.97773 0.0
Cd142 Cd 0.75616 0.4461 0.00889 0.0
O143 O 0.77117 0.49737 0.9785 0.0
Cd144 Cd 0.74138 0.50301 0.0115 0.0
C145 C 0.77843 0.48185 0.05483 0.0
O146 O 0.7211 0.46686 -0.00109 0.0
O147 O 0.70283 0.48585 0.02726 0.0
O148 O 0.72547 0.53715 0.99121 0.0
C149 C 0.70345 0.46782 0.01299 0.0
O150 O 0.77542 0.46079 0.04609 0.0
C151 C 0.72526 0.55051 0.01013 0.0
O152 O 0.76895 0.49927 0.04496 0.0
O153 O 0.7328 0.54176 0.02919 0.0
C154 C 0.49105 0.73621 0.01289 0.0
O155 O 0.49825 0.74313 0.03365 0.0
Cd156 Cd 0.52607 0.775 0.04238 0.0
O157 O 0.49918 0.74602 -0.00567 0.0
Cd158 Cd 0.52969 0.77795 0.98706 0.0
C159 C 0.5743 0.74994 0.01556 0.0
O160 O 0.51304 0.80536 0.01671 0.0
O161 O 0.54716 0.81651 0.00254 0.0
O162 O 0.50883 0.78713 0.94999 0.0
C163 C 0.52874 0.82168 0.01485 0.0
O164 O 0.56561 0.75774 0.03533 0.0
C165 C 0.52796 0.78825 0.93765 0.0
O166 O 0.56374 0.75365 -0.00405 0.0
O167 O 0.54747 0.78375 0.94815 0.0
H168 H 0.05278 0.27452 0.40723 0.0
H169 H 0.05237 0.29318 0.36872 0.0
H170 H 0.97754 0.30956 0.37849 0.0
H171 H 0.97771 0.29077 0.41714 0.0
H172 H 0.99221 0.29997 0.32853 0.0
H173 H 0.01426 0.3483 0.39997 0.0
H174 H 0.03791 0.35664 0.43686 0.0
H175 H 0.10331 0.35494 0.39613 0.0
H176 H 0.08002 0.3462 0.35903 0.0
H177 H 0.97392 0.41225 0.28197 0.0
H178 H 0.97699 0.37454 0.30106 0.0
H179 H 0.05443 0.37932 0.29621 0.0
H180 H 0.05145 0.41774 0.27793 0.0
H181 H 0.04252 0.3734 0.33948 0.0
H182 H 0.01932 0.33349 0.26636 0.0
H183 H -0.00449 0.32503 0.22964 0.0
H184 H 0.93284 0.31076 0.27184 0.0
H185 H 0.95616 0.31946 0.30884 0.0
C186 C 0.03603 0.28148 0.40091 0.0
C187 C 0.0154 0.28167 0.41542 0.0
C188 C 0.03582 0.29201 0.37884 0.0
C189 C 0.01503 0.303 0.371 0.0
C190 C -0.00626 0.30113 0.38428 0.0
C191 C -0.00608 0.29053 0.40642 0.0
C192 C 0.01674 0.32003 0.35173 0.0
C193 C 0.00313 0.31608 0.33076 0.0
C194 C 0.03147 0.3407 0.3546 0.0
C195 C 0.04545 0.34632 0.37681 0.0
C196 C 0.0337 0.34953 0.39892 0.0
C197 C 0.04703 0.35435 0.41986 0.0
C198 C 0.0721 0.35625 0.41885 0.0
C199 C 0.08389 0.35341 0.39689 0.0
C200 C 0.07064 0.34853 0.37591 0.0
C201 C 0.99161 0.40503 0.28443 0.0
C202 C 0.01247 0.4181 0.27876 0.0
C203 C 0.99333 0.38329 0.29519 0.0
C204 C 0.01595 0.37395 0.30001 0.0
C205 C 0.03678 0.38619 0.29272 0.0
C206 C 0.03507 0.40814 0.28228 0.0
C207 C 0.01784 0.35367 0.3159 0.0
C208 C 0.03202 0.35708 0.3366 0.0
C209 C 0.00364 0.33258 0.31262 0.0
C210 C 0.9895 0.32727 0.2904 0.0
C211 C 0.00042 0.32872 0.26783 0.0
C212 C 0.98701 0.32385 0.24696 0.0
C213 C 0.96267 0.3174 0.24841 0.0
C214 C 0.9517 0.31576 0.27074 0.0
C215 C 0.96502 0.32062 0.29168 0.0
H216 H 0.95232 0.31364 0.23222 0.0
H217 H 0.0824 0.35998 0.43507 0.0
H218 H 0.71281 0.06564 0.44546 0.0
H219 H 0.68154 0.05889 0.41519 0.0
H220 H 0.68349 0.98355 0.42499 0.0
H221 H 0.7151 0.99006 0.45521 0.0
H222 H 0.68237 -0.0062 0.3779 0.0
H223 H 0.63866 0.01577 0.44918 0.0
H224 H 0.62861 0.04079 0.48487 0.0
H225 H 0.61338 0.09875 0.44036 0.0
H226 H 0.62367 0.07417 0.40442 0.0
H227 H 0.5734 0.96149 0.31887 0.0
H228 H 0.60505 0.96836 0.34871 0.0
H229 H 0.60215 0.04374 0.33942 0.0
H230 H 0.5701 0.0371 0.30968 0.0
H231 H 0.60387 0.03357 0.38615 0.0
H232 H 0.64746 0.01181 0.31492 0.0
H233 H 0.65734 0.98689 0.27911 0.0
H234 H 0.67283 0.92879 0.32333 0.0
H235 H 0.66272 0.95326 0.35941 0.0
C236 C 0.70665 0.0476 0.44121 0.0
C237 C 0.71639 0.02838 0.45283 0.0
C238 C 0.6887 0.04381 0.42396 0.0
C239 C 0.68001 0.02077 0.41812 0.0
C240 C 0.68994 0.00148 0.42934 0.0
C241 C 0.70795 0.00525 0.44662 0.0
C242 C 0.66062 0.01687 0.40018 0.0
C243 C 0.66507 0.00222 0.37984 0.0
C244 C 0.63832 0.02837 0.40251 0.0
C245 C 0.63215 0.04319 0.42412 0.0
C246 C 0.63337 0.03391 0.44702 0.0
C247 C 0.62759 0.04801 0.46729 0.0
C248 C 0.62041 0.07137 0.46488 0.0
C249 C 0.61897 0.08067 0.4422 0.0
C250 C 0.62475 0.06665 0.42187 0.0
C251 C 0.57946 0.97956 0.32311 0.0
C252 C 0.56928 -0.00124 0.31181 0.0
C253 C 0.59764 0.98343 0.34011 0.0
C254 C 0.60615 0.00652 0.346 0.0
C255 C 0.59585 0.02577 0.33503 0.0
C256 C 0.57759 0.02193 0.31802 0.0
C257 C 0.62561 0.01052 0.36386 0.0
C258 C 0.62117 0.02517 0.3842 0.0
C259 C 0.64793 -0.00096 0.36152 0.0
C260 C 0.65411 0.98431 0.33985 0.0
C261 C 0.65279 -0.00634 0.317 0.0
C262 C 0.65847 0.97963 0.29665 0.0
C263 C 0.66565 0.95625 0.29894 0.0
C264 C 0.66724 0.94689 0.32159 0.0
C265 C 0.66156 0.96084 0.34199 0.0
H266 H 0.67004 0.94542 0.28316 0.0
H267 H 0.61589 0.08226 0.48057 0.0
H268 H 0.96592 0.51992 0.34242 0.0
H269 H 0.96448 0.54508 0.37923 0.0
H270 H 0.03737 0.56938 0.36725 0.0
H271 H 0.03892 0.54447 0.33043 0.0
H272 H 0.02651 0.56087 0.41638 0.0
H273 H -0.00433 0.60204 0.34882 0.0
H274 H 0.96897 0.60626 0.31407 0.0
H275 H 0.90705 0.60064 0.35943 0.0
H276 H 0.93341 0.59602 0.3944 0.0
H277 H 0.03217 0.67373 0.47925 0.0
H278 H 0.0344 0.63858 0.45211 0.0
H279 H 0.95742 0.62817 0.45717 0.0
H280 H 0.95506 0.66378 0.48333 0.0
H281 H 0.9692 0.62686 0.41322 0.0
H282 H -0.00051 0.58969 0.4819 0.0
H283 H 0.02576 0.58493 0.51685 0.0
H284 H 0.08761 0.58213 0.47102 0.0
H285 H 0.06175 0.58721 0.43581 0.0
C286 C 0.98173 0.53038 0.34781 0.0
C287 C 0.00242 0.53049 0.33344 0.0
C288 C 0.98089 0.54468 0.36882 0.0
C289 C 0.00079 0.55912 0.37579 0.0
C290 C 0.02189 0.55829 0.36216 0.0
C291 C 0.02266 0.5442 0.34106 0.0
C292 C -0.00113 0.57684 0.39588 0.0
C293 C 0.01408 0.5754 0.41578 0.0
C294 C 0.98233 0.59545 0.39512 0.0
C295 C 0.96649 0.59841 0.37415 0.0
C296 C 0.97635 0.6015 0.35134 0.0
C297 C 0.96129 0.604 0.33161 0.0
C298 C 0.93632 0.60364 0.33452 0.0
C299 C 0.92638 0.60086 0.35719 0.0
C300 C 0.94138 0.59831 0.37697 0.0
C301 C 0.01582 0.66369 0.47481 0.0
C302 C 0.99343 0.67153 0.48314 0.0
C303 C 0.0171 0.64353 0.45942 0.0
C304 C -0.00393 0.63062 0.45266 0.0
C305 C 0.97387 0.63789 0.462 0.0
C306 C 0.97254 0.65822 0.47695 0.0
C307 C -0.00325 0.611 0.43413 0.0
C308 C 0.9814 0.61219 0.41427 0.0
C309 C 0.01306 0.59212 0.4351 0.0
C310 C 0.02868 0.58904 0.45623 0.0
C311 C 0.01871 0.58825 0.47929 0.0
C312 C 0.03353 0.58546 0.49914 0.0
C313 C 0.05834 0.58328 0.49616 0.0
C314 C 0.06839 0.58384 0.47331 0.0
C315 C 0.05365 0.58664 0.45339 0.0
H316 H 0.06978 0.58112 0.51156 0.0
H317 H 0.92469 0.60558 0.31923 0.0
H318 H 0.30796 0.94281 0.43956 0.0
H319 H 0.33946 0.94866 0.41018 0.0
H320 H 0.32478 0.02344 0.41079 0.0
H321 H 0.29278 0.01774 0.44028 0.0
H322 H 0.33023 0.00391 0.36515 0.0
H323 H 0.37343 0.00616 0.43862 0.0
H324 H 0.38519 -0.0072 0.47828 0.0
H325 H 0.41114 0.92788 0.44589 0.0
H326 H 0.39915 0.94065 0.40606 0.0
H327 H 0.43942 0.02656 0.30077 0.0
H328 H 0.40696 0.02709 0.33015 0.0
H329 H 0.41281 0.95154 0.3366 0.0
H330 H 0.4454 0.9508 0.30732 0.0
H331 H 0.41275 0.97609 0.3802 0.0
H332 H 0.36635 0.97341 0.30697 0.0
H333 H 0.35418 0.98728 0.26763 0.0
H334 H 0.33474 0.05445 0.30027 0.0
H335 H 0.34711 0.04108 0.33978 0.0
C336 C 0.31136 0.96056 0.43354 0.0
C337 C 0.29788 0.97984 0.44237 0.0
C338 C 0.32946 0.96386 0.41679 0.0
C339 C 0.33464 0.98652 0.40858 0.0
C340 C 0.32108 0.00582 0.41703 0.0
C341 C 0.30288 0.00254 0.4339 0.0
C342 C 0.35414 0.98967 0.39097 0.0
C343 C 0.34841 -0.00173 0.36856 0.0
C344 C 0.37773 0.982 0.39541 0.0
C345 C 0.38522 0.97431 0.41934 0.0
C346 C 0.38148 0.98895 0.43996 0.0
C347 C 0.38821 0.9815 0.46247 0.0
C348 C 0.39887 0.95949 0.4646 0.0
C349 C 0.40287 0.94492 0.44421 0.0
C350 C 0.39613 0.95227 0.42165 0.0
C351 C 0.43368 0.01 0.30826 0.0
C352 C 0.44505 0.98863 0.30173 0.0
C353 C 0.41508 0.01035 0.32501 0.0
C354 C 0.40749 0.98935 0.33549 0.0
C355 C 0.41848 0.96794 0.32872 0.0
C356 C 0.43701 0.96754 0.31191 0.0
C357 C 0.3887 0.98978 0.35418 0.0
C358 C 0.39463 0.98193 0.37686 0.0
C359 C 0.36538 -0.00169 0.35002 0.0
C360 C 0.35792 0.00634 0.32629 0.0
C361 C 0.35969 0.99122 0.30573 0.0
C362 C 0.35271 -0.00103 0.28341 0.0
C363 C 0.34376 0.02175 0.28144 0.0
C364 C 0.34171 0.03681 0.30181 0.0
C365 C 0.34869 0.02916 0.32417 0.0
H366 H 0.33836 0.02772 0.26414 0.0
H367 H 0.40407 0.95375 0.48205 0.0
H368 H 0.04074 0.58741 0.72273 0.0
H369 H 0.03804 0.62567 0.70409 0.0
H370 H 0.96607 0.6336 0.73155 0.0
H371 H 0.96856 0.59541 0.75012 0.0
H372 H 0.96821 0.63288 0.68304 0.0
H373 H 0.00886 0.67367 0.74838 0.0
H374 H 0.04098 0.68095 0.77841 0.0
H375 H 0.09289 0.68887 0.72242 0.0
H376 H 0.06115 0.6813 0.69202 0.0
H377 H 0.95152 0.7254 0.60721 0.0
H378 H 0.95435 0.70749 0.64615 0.0
H379 H 0.0302 0.69674 0.63482 0.0
H380 H 0.02771 0.71575 0.59659 0.0
H381 H 0.02264 0.70356 0.6807 0.0
H382 H 0.98664 0.65396 0.61707 0.0
H383 H 0.9571 0.64361 0.58512 0.0
H384 H 0.8996 0.64853 0.63615 0.0
H385 H 0.92882 0.6592 0.66835 0.0
C386 C 0.02462 0.59763 0.7254 0.0
C387 C 0.00469 0.58822 0.73749 0.0
C388 C 0.02315 0.61957 0.71486 0.0
C389 C 0.00181 0.6324 0.7164 0.0
C390 C 0.98268 0.62394 0.73016 0.0
C391 C 0.98412 0.60207 0.74069 0.0
C392 C -0.00212 0.65203 0.70026 0.0
C393 C 0.9797 0.64868 0.68297 0.0
C394 C 0.01345 0.67214 0.69967 0.0
C395 C 0.03261 0.67676 0.7179 0.0
C396 C 0.02715 0.67678 0.74245 0.0
C397 C 0.04529 0.68099 0.75955 0.0
C398 C 0.06897 0.68533 0.75233 0.0
C399 C 0.07454 0.6855 0.72799 0.0
C400 C 0.05647 0.68129 0.71082 0.0
C401 C 0.96888 0.71971 0.61333 0.0
C402 C 0.98931 0.72155 0.59875 0.0
C403 C 0.97049 0.70946 0.63554 0.0
C404 C 0.99236 0.70018 0.64309 0.0
C405 C 0.01312 0.70368 0.62935 0.0
C406 C 0.01164 0.71443 0.60742 0.0
C407 C 0.99309 0.68422 0.66343 0.0
C408 C 0.01075 0.68809 0.68128 0.0
C409 C 0.97742 0.66416 0.66432 0.0
C410 C 0.95985 0.65766 0.64502 0.0
C411 C 0.96768 0.65298 0.62142 0.0
C412 C 0.951 0.64704 0.60329 0.0
C413 C 0.92648 0.64549 0.60859 0.0
C414 C 0.91859 0.6498 0.63206 0.0
C415 C 0.93519 0.65579 0.65026 0.0
H416 H 0.9136 0.64089 0.59452 0.0
H417 H 0.08299 0.68859 0.76559 0.0
H418 H 0.41949 0.05013 0.70206 0.0
H419 H 0.38524 0.04114 0.6754 0.0
H420 H 0.40417 0.96734 0.67117 0.0
H421 H 0.43847 0.97611 0.69758 0.0
H422 H 0.39608 0.98417 0.62744 0.0
H423 H 0.35615 0.98514 0.70355 0.0
H424 H 0.34478 0.00203 0.74324 0.0
H425 H 0.31218 0.06075 0.71032 0.0
H426 H 0.32367 0.04438 0.67043 0.0
H427 H 0.29272 0.94109 0.56496 0.0
H428 H 0.32175 0.94728 0.59768 0.0
H429 H 0.30541 0.02171 0.60263 0.0
H430 H 0.27628 0.01573 0.57013 0.0
H431 H 0.31148 0.00351 0.6469 0.0
H432 H 0.353 0.00461 0.57169 0.0
H433 H 0.36476 0.98906 0.53159 0.0
H434 H 0.39486 0.92796 0.5625 0.0
H435 H 0.38298 0.94301 0.60277 0.0
C436 C 0.41629 0.03196 0.69557 0.0
C437 C 0.43176 0.01386 0.70191 0.0
C438 C 0.39665 0.02685 0.68043 0.0
C439 C 0.39211 0.00355 0.67145 0.0
C440 C 0.40738 0.98544 0.67792 0.0
C441 C 0.42695 0.9905 0.69305 0.0
C442 C 0.37205 -0.00185 0.65449 0.0
C443 C 0.37752 0.98803 0.63185 0.0
C444 C 0.34797 0.0038 0.66005 0.0
C445 C 0.34097 0.01364 0.68402 0.0
C446 C 0.34673 0.00176 0.70479 0.0
C447 C 0.34023 0.01121 0.72732 0.0
C448 C 0.32782 0.03248 0.7293 0.0
C449 C 0.32183 0.0443 0.70876 0.0
C450 C 0.3283 0.03492 0.68618 0.0
C451 C 0.29503 0.95871 0.57324 0.0
C452 C 0.28237 0.97796 0.56476 0.0
C453 C 0.31167 0.96222 0.59187 0.0
C454 C 0.31593 0.98502 0.6023 0.0
C455 C 0.30242 0.004 0.59476 0.0
C456 C 0.28585 0.00054 0.5761 0.0
C457 C 0.33554 0.98942 0.61997 0.0
C458 C 0.33001 -0.00054 0.64264 0.0
C459 C 0.35964 0.98387 0.6144 0.0
C460 C 0.36685 0.9748 0.59021 0.0
C461 C 0.36194 0.98776 0.56991 0.0
C462 C 0.36866 0.97906 0.54716 0.0
C463 C 0.38048 0.9575 0.54449 0.0
C464 C 0.38566 0.94464 0.56459 0.0
C465 C 0.37895 0.95324 0.58738 0.0
H466 H 0.38567 0.9508 0.52686 0.0
H467 H 0.3228 0.03977 0.74676 0.0
H468 H 0.03496 0.35869 0.50939 0.0
H469 H 0.02901 0.39482 0.53457 0.0
H470 H 0.98786 0.35411 0.58441 0.0
H471 H 0.99296 0.31846 0.5591 0.0
H472 H 0.96782 0.3948 0.58041 0.0
H473 H 0.0498 0.36805 0.59186 0.0
H474 H 0.09069 0.35803 0.57826 0.0
H475 H 0.10102 0.42833 0.55307 0.0
H476 H 0.06006 0.43866 0.56632 0.0
H477 H 0.02548 0.44904 0.69469 0.0
H478 H 0.02739 0.42625 0.65687 0.0
H479 H 0.9754 0.472 0.6263 0.0
H480 H 0.97292 0.49471 0.66465 0.0
H481 H 0.04081 0.43632 0.61368 0.0
H482 H 0.94201 0.43784 0.58486 0.0
H483 H 0.90168 0.44364 0.60229 0.0
H484 H 0.92598 0.41717 0.66878 0.0
H485 H 0.96634 0.41098 0.65163 0.0
C486 C 0.02453 0.35757 0.52566 0.0
C487 C 0.01459 0.33575 0.5324 0.0
C488 C 0.02113 0.37819 0.54 0.0
C489 C 0.00815 0.37714 0.56149 0.0
C490 C -0.00221 0.35543 0.56785 0.0
C491 C 0.00088 0.33499 0.55343 0.0
C492 C 0.00647 0.39801 0.57843 0.0
C493 C 0.98376 0.40413 0.58745 0.0
C494 C 0.02723 0.41019 0.58766 0.0
C495 C 0.05182 0.40402 0.57979 0.0
C496 C 0.06076 0.3813 0.58328 0.0
C497 C 0.08394 0.37558 0.57566 0.0
C498 C 0.09841 0.3925 0.56473 0.0
C499 C 0.08976 0.41522 0.56148 0.0
C500 C 0.06658 0.42102 0.56904 0.0
C501 C 0.01445 0.45432 0.67995 0.0
C502 C -0.00106 0.47357 0.68267 0.0
C503 C 0.01567 0.44136 0.65826 0.0
C504 C 0.00153 0.44739 0.63875 0.0
C505 C 0.98631 0.46691 0.6412 0.0
C506 C 0.98491 0.47983 0.66309 0.0
C507 C 0.00228 0.43232 0.6164 0.0
C508 C 0.0248 0.42749 0.60619 0.0
C509 C 0.98143 0.42079 0.6066 0.0
C510 C 0.95723 0.42429 0.61706 0.0
C511 C 0.93871 0.43326 0.60318 0.0
C512 C 0.91586 0.4366 0.61301 0.0
C513 C 0.9113 0.43088 0.63666 0.0
C514 C 0.92956 0.4217 0.6505 0.0
C515 C 0.95243 0.4183 0.64075 0.0
H516 H 0.89361 0.43349 0.64424 0.0
H517 H 0.11635 0.38804 0.55884 0.0
H518 H 0.56767 -0.0024 0.69753 0.0
H519 H 0.60344 -6e-05 0.67228 0.0
H520 H 0.59083 0.07404 0.66237 0.0
H521 H 0.55494 0.07184 0.68723 0.0
H522 H 0.60289 0.05142 0.621 0.0
H523 H 0.63315 0.05743 0.70166 0.0
H524 H 0.63821 0.04483 0.743 0.0
H525 H 0.66937 0.97982 0.71663 0.0
H526 H 0.66419 0.9919 0.6751 0.0
H527 H 0.7161 0.07975 0.57158 0.0
H528 H 0.68305 0.07985 0.60043 0.0
H529 H 0.69247 0.00521 0.61017 0.0
H530 H 0.72559 0.00495 0.58165 0.0
H531 H 0.68252 0.02921 0.65229 0.0
H532 H 0.65091 0.02221 0.57197 0.0
H533 H 0.64594 0.03435 0.53046 0.0
H534 H 0.61715 0.10072 0.55613 0.0
H535 H 0.62228 0.0891 0.59784 0.0
C536 C 0.57242 0.01436 0.68986 0.0
C537 C 0.5585 0.03456 0.69449 0.0
C538 C 0.59293 0.01569 0.67555 0.0
C539 C 0.59995 0.03726 0.66577 0.0
C540 C 0.58575 0.05726 0.66983 0.0
C541 C 0.56526 0.05595 0.68409 0.0
C542 C 0.62215 0.03908 0.65135 0.0
C543 C 0.62035 0.04689 0.62796 0.0
C544 C 0.64483 0.03272 0.66031 0.0
C545 C 0.64807 0.02547 0.68527 0.0
C546 C 0.64091 0.04036 0.70467 0.0
C547 C 0.64383 0.03333 0.72814 0.0
C548 C 0.65405 0.01151 0.73244 0.0
C549 C 0.66143 -0.0033 0.71327 0.0
C550 C 0.65853 0.00364 0.68977 0.0
C551 C 0.71142 0.06346 0.58018 0.0
C552 C 0.72328 0.04228 0.57412 0.0
C553 C 0.69248 0.06353 0.59656 0.0
C554 C 0.68511 0.04244 0.60708 0.0
C555 C 0.69784 0.02163 0.60215 0.0
C556 C 0.7167 0.02152 0.58577 0.0
C557 C 0.66322 0.04158 0.62201 0.0
C558 C 0.66506 0.03389 0.64543 0.0
C559 C 0.64054 0.04798 0.61308 0.0
C560 C 0.63723 0.0549 0.58802 0.0
C561 C 0.64368 0.03946 0.56877 0.0
C562 C 0.64081 0.04624 0.54521 0.0
C563 C 0.63131 0.06832 0.54067 0.0
C564 C 0.62456 0.08363 0.55968 0.0
C565 C 0.62743 0.07696 0.58328 0.0
H566 H 0.62914 0.07356 0.52244 0.0
H567 H 0.6563 0.0061 0.75062 0.0
H568 H 0.41399 0.30368 0.95826 0.0
H569 H 0.3836 0.33364 0.9646 0.0
H570 H 0.38791 0.32583 0.04088 0.0
H571 H 0.41894 0.29601 0.03473 0.0
H572 H 0.33995 0.33435 0.98368 0.0
H573 H 0.38045 0.38069 0.06855 0.0
H574 H 0.41959 0.38597 0.08925 0.0
H575 H 0.4564 0.37712 0.02212 0.0
H576 H 0.4175 0.37208 0.00103 0.0
H577 H 0.29409 0.45258 0.04553 0.0
H578 H 0.31526 0.4151 0.04652 0.0
H579 H 0.32317 0.41425 0.96977 0.0
H580 H 0.30195 0.4517 0.9686 0.0
H581 H 0.3614 0.40739 0.03238 0.0
H582 H 0.32196 0.35687 0.94804 0.0
H583 H 0.28346 0.35276 0.9261 0.0
H584 H 0.24501 0.3717 0.9904 0.0
H585 H 0.28322 0.37559 0.0128 0.0
C586 C 0.40845 0.30818 0.97642 0.0
C587 C 0.4191 0.29761 -0.00398 0.0
C588 C 0.39094 0.32525 0.97999 0.0
C589 C 0.38367 0.33213 0.0032 0.0
C590 C 0.39354 0.32099 0.02282 0.0
C591 C 0.41122 0.30394 0.01927 0.0
C592 C 0.36667 0.35183 0.0066 0.0
C593 C 0.34464 0.35036 -0.00574 0.0
C594 C 0.37259 0.37247 0.02086 0.0
C595 C 0.39609 0.3757 0.03329 0.0
C596 C 0.39691 0.37991 0.05823 0.0
C597 C 0.41904 0.38287 0.07002 0.0
C598 C 0.44047 0.38178 0.05702 0.0
C599 C 0.4398 0.37785 0.03218 0.0
C600 C 0.41772 0.37492 0.02031 0.0
C601 C 0.30013 0.4443 0.02883 0.0
C602 C 0.29643 0.4551 0.00697 0.0
C603 C 0.31223 0.42292 0.02945 0.0
C604 C 0.32059 0.41185 0.00822 0.0
C605 C 0.31654 0.42236 0.98633 0.0
C606 C 0.30453 0.4438 0.98569 0.0
C607 C 0.33491 0.39012 0.00903 0.0
C608 C 0.35647 0.39122 0.02215 0.0
C609 C 0.32864 0.36925 -0.00468 0.0
C610 C 0.3055 0.36671 0.98205 0.0
C611 C 0.30528 0.36005 0.95753 0.0
C612 C 0.28351 0.35778 0.945 0.0
C613 C 0.26181 0.36203 0.95684 0.0
C614 C 0.26183 0.3685 0.98124 0.0
C615 C 0.28355 0.37077 0.99385 0.0
H616 H 0.24497 0.36028 0.9471 0.0
H617 H 0.45758 0.38405 0.06618 0.0
H618 H 0.31315 0.58873 0.97226 0.0
H619 H 0.3463 0.61787 0.97146 0.0
H620 H 0.3665 0.60101 0.04315 0.0
H621 H 0.33336 0.5718 0.04412 0.0
H622 H 0.36404 0.64925 0.03687 0.0
H623 H 0.39915 0.58083 -0.00266 0.0
H624 H 0.40115 0.54786 0.96704 0.0
H625 H 0.40129 0.59746 0.91098 0.0
H626 H 0.39896 0.63073 0.94096 0.0
H627 H 0.47654 0.70639 0.04726 0.0
H628 H 0.44472 0.67607 0.0446 0.0
H629 H 0.43164 0.69213 0.97106 0.0
H630 H 0.46404 0.72232 0.97339 0.0
H631 H 0.42954 0.64509 0.97674 0.0
H632 H 0.39497 0.71346 0.01532 0.0
H633 H 0.3922 0.74692 0.04499 0.0
H634 H 0.38971 0.69828 0.1019 0.0
H635 H 0.39281 0.66453 0.07258 0.0
C636 C 0.32467 0.5912 0.98785 0.0
C637 C 0.32067 0.57801 0.00827 0.0
C638 C 0.34365 0.60776 0.98731 0.0
C639 C 0.35891 0.61141 0.00717 0.0
C640 C 0.3549 0.59838 0.02763 0.0
C641 C 0.33601 0.5817 0.02814 0.0
C642 C 0.37873 0.62928 0.00686 0.0
C643 C 0.37855 0.6482 0.02393 0.0
C644 C 0.39715 0.62824 0.98944 0.0
C645 C 0.39862 0.60826 0.97139 0.0
C646 C 0.3994 0.5847 0.97855 0.0
C647 C 0.40063 0.56595 0.96143 0.0
C648 C 0.40128 0.57055 0.93709 0.0
C649 C 0.40075 0.59392 0.92983 0.0
C650 C 0.3995 0.61273 0.94688 0.0
C651 C 0.46698 0.70347 0.03046 0.0
C652 C 0.47265 0.71695 0.0106 0.0
C653 C 0.44874 0.68616 0.02901 0.0
C654 C 0.43549 0.68221 0.0078 0.0
C655 C 0.44158 0.69503 0.98764 0.0
C656 C 0.46005 0.71228 0.98902 0.0
C657 C 0.41503 0.66494 0.00697 0.0
C658 C 0.41502 0.64619 0.98965 0.0
C659 C 0.39628 0.66621 0.02406 0.0
C660 C 0.39434 0.68647 0.04175 0.0
C661 C 0.39401 0.7099 0.03417 0.0
C662 C 0.39235 0.72892 0.05092 0.0
C663 C 0.39083 0.72473 0.07531 0.0
C664 C 0.39091 0.7015 0.083 0.0
C665 C 0.3926 0.68242 0.06632 0.0
H666 H 0.38954 0.73948 0.08826 0.0
H667 H 0.40224 0.55602 0.92387 0.0
H668 H 0.53321 0.31714 0.95947 0.0
H669 H 0.56403 0.34856 0.96425 0.0
H670 H 0.58842 0.3183 0.02936 0.0
H671 H 0.55683 0.28764 0.02528 0.0
H672 H 0.58755 0.36271 0.03677 0.0
H673 H 0.61982 0.31293 0.97392 0.0
H674 H 0.62019 0.29024 0.93521 0.0
H675 H 0.60925 0.35422 0.89819 0.0
H676 H 0.60851 0.37726 0.93671 0.0
H677 H 0.70941 0.4222 -0.00241 0.0
H678 H 0.67938 0.39009 -0.00452 0.0
H679 H 0.62612 0.43777 0.02474 0.0
H680 H 0.65667 0.46976 0.02804 0.0
H681 H 0.64199 0.38403 0.9706 0.0
H682 H 0.58212 0.40764 0.05277 0.0
H683 H 0.58621 0.42621 0.09339 0.0
H684 H 0.66049 0.40704 0.09538 0.0
H685 H 0.65677 0.3881 0.05492 0.0
C686 C 0.5453 0.31711 0.97468 0.0
C687 C 0.5427 0.29993 0.99196 0.0
C688 C 0.56296 0.33504 0.97738 0.0
C689 C 0.5788 0.33569 -0.00296 0.0
C690 C 0.57639 0.31828 0.01411 0.0
C691 C 0.55841 0.30069 0.0117 0.0
C692 C 0.59758 0.35472 0.00011 0.0
C693 C 0.59949 0.36732 0.0223 0.0
C694 C 0.61347 0.36056 0.98141 0.0
C695 C 0.61387 0.34677 0.95821 0.0
C696 C 0.61731 0.32213 0.95753 0.0
C697 C 0.61762 0.30922 0.93563 0.0
C698 C 0.61468 0.32077 0.91426 0.0
C699 C 0.61149 0.34529 0.91476 0.0
C700 C 0.61114 0.35828 0.93662 0.0
C701 C 0.69134 0.42577 0.0038 0.0
C702 C 0.68531 0.44841 0.013 0.0
C703 C 0.67416 0.40742 0.0025 0.0
C704 C 0.65045 0.41141 0.01 0.0
C705 C 0.64438 0.43408 0.01926 0.0
C706 C 0.66179 0.45237 0.02107 0.0
C707 C 0.63211 0.39192 0.00731 0.0
C708 C 0.63012 0.37937 0.98511 0.0
C709 C 0.61684 0.38551 0.0263 0.0
C710 C 0.61921 0.39669 0.05071 0.0
C711 C 0.5993 0.40733 0.06192 0.0
C712 C 0.60156 0.41793 0.0849 0.0
C713 C 0.62362 0.41788 0.09692 0.0
C714 C 0.64344 0.40715 0.08601 0.0
C715 C 0.64128 0.39651 0.06304 0.0
H716 H 0.62533 0.42611 0.11471 0.0
H717 H 0.61492 0.31074 0.89732 0.0
H718 H 0.70652 0.57392 0.97269 0.0
H719 H 0.68693 0.61242 0.97454 0.0
H720 H 0.70232 0.62009 0.05014 0.0
H721 H 0.72176 0.58169 0.04849 0.0
H722 H 0.65541 0.62661 0.04047 0.0
H723 H 0.73122 0.65501 0.01166 0.0
H724 H 0.76631 0.65596 0.9848 0.0
H725 H 0.72018 0.66944 0.92549 0.0
H726 H 0.68475 0.66824 0.95193 0.0
H727 H 0.60223 0.73837 0.05363 0.0
H728 H 0.63404 0.7091 0.05363 0.0
H729 H 0.62593 0.69724 0.97729 0.0
H730 H 0.59464 0.72681 0.977 0.0
H731 H 0.67219 0.69491 0.98967 0.0
H732 H 0.59669 0.66171 0.01634 0.0
H733 H 0.5607 0.65962 0.04196 0.0
H734 H 0.60556 0.6537 0.1039 0.0
H735 H 0.64184 0.65608 0.07866 0.0
C736 C 0.70601 0.58397 0.98963 0.0
C737 C 0.71554 0.5747 0.01046 0.0
C738 C 0.69493 0.606 0.99064 0.0
C739 C 0.69327 0.61914 0.01247 0.0
C740 C 0.70342 0.61023 0.03312 0.0
C741 C 0.71453 0.58828 0.03212 0.0
C742 C 0.6792 0.64113 0.01422 0.0
C743 C 0.65939 0.64174 0.02972 0.0
C744 C 0.68403 0.66058 -0.00028 0.0
C745 C 0.7053 0.66133 0.98376 0.0
C746 C 0.72853 0.65797 0.99285 0.0
C747 C 0.74849 0.6586 0.9777 0.0
C748 C 0.74547 0.6627 0.95344 0.0
C749 C 0.72249 0.66624 0.94428 0.0
C750 C 0.70246 0.66562 0.95935 0.0
C751 C 0.60748 0.72981 0.03678 0.0
C752 C 0.59565 0.73469 0.01537 0.0
C753 C 0.62562 0.71305 0.03682 0.0
C754 C 0.63201 0.70066 0.01552 0.0
C755 C 0.62124 0.70652 -0.00606 0.0
C756 C 0.60325 0.72339 0.99385 0.0
C757 C 0.64839 0.68029 0.01585 0.0
C758 C 0.66849 0.67991 0.00068 0.0
C759 C 0.64374 0.66088 0.03048 0.0
C760 C 0.62196 0.65935 0.04566 0.0
C761 C 0.59887 0.66014 0.03545 0.0
C762 C 0.57843 0.65888 0.0499 0.0
C763 C 0.58085 0.6566 0.07455 0.0
C764 C 0.60372 0.65551 0.08481 0.0
C765 C 0.62422 0.65681 0.07044 0.0
H766 H 0.565 0.65562 0.08571 0.0
H767 H 0.76095 0.66318 0.94174 0.0
H768 H 0.48918 0.79873 0.91009 0.0
H769 H 0.48994 0.81953 0.87259 0.0
H770 H 0.56749 0.81871 0.87265 0.0
H771 H 0.56694 0.79779 0.90994 0.0
H772 H 0.54803 0.86395 0.872 0.0
H773 H 0.53913 0.78866 0.82959 0.0
H774 H 0.52059 0.74927 0.82017 0.0
H775 H 0.45395 0.78175 0.80302 0.0
H776 H 0.47199 0.82134 0.81268 0.0
H777 H 0.55469 0.93615 0.77391 0.0
H778 H 0.5611 0.90053 0.79629 0.0
H779 H 0.4846 0.8858 0.79601 0.0
H780 H 0.47816 0.92082 0.77298 0.0
H781 H 0.50774 0.84543 0.79399 0.0
H782 H 0.51179 0.91792 0.84249 0.0
H783 H 0.52658 0.95819 0.85467 0.0
H784 H 0.59784 0.93196 0.86352 0.0
H785 H 0.5835 0.89155 0.85111 0.0
C786 C 0.50637 0.80246 0.90181 0.0
C787 C 0.528 0.79686 0.91309 0.0
C788 C 0.50677 0.81425 0.88034 0.0
C789 C 0.52878 0.82064 0.86992 0.0
C790 C 0.55034 0.81388 0.88044 0.0
C791 C 0.54996 0.80194 0.90175 0.0
C792 C 0.52937 0.83711 0.85008 0.0
C793 C 0.53975 0.85971 0.85471 0.0
C794 C 0.51777 0.83177 0.82793 0.0
C795 C 0.50688 0.80798 0.82204 0.0
C796 C 0.52046 0.78741 0.824 0.0
C797 C 0.51005 0.76504 0.81858 0.0
C798 C 0.48609 0.763 0.81105 0.0
C799 C 0.47251 0.78335 0.80887 0.0
C800 C 0.48283 0.80576 0.81429 0.0
C801 C 0.53931 0.92502 0.77816 0.0
C802 C 0.5159 0.93146 0.77203 0.0
C803 C 0.54298 0.90471 0.791 0.0
C804 C 0.52326 0.89082 0.7983 0.0
C805 C 0.50007 0.89629 0.79066 0.0
C806 C 0.49641 0.91639 0.77757 0.0
C807 C 0.52637 0.87229 0.81596 0.0
C808 C 0.51652 0.84945 0.81107 0.0
C809 C 0.53795 0.87751 0.8382 0.0
C810 C 0.54665 0.90179 0.84558 0.0
C811 C 0.53066 0.92078 0.84684 0.0
C812 C 0.53894 0.94362 0.85382 0.0
C813 C 0.56315 0.94764 0.85979 0.0
C814 C 0.5791 0.92882 0.85884 0.0
C815 C 0.57091 0.90595 0.85184 0.0
H816 H 0.56952 0.96533 0.86521 0.0
H817 H 0.47807 0.74567 0.80686 0.0
H818 H 0.17875 0.55763 0.9511 0.0
H819 H 0.14892 0.54268 0.92176 0.0
H820 H 0.19036 0.47978 0.90829 0.0
H821 H 0.22025 0.49442 0.9381 0.0
H822 H 0.17403 0.50466 0.86599 0.0
H823 H 0.14483 0.47025 0.93709 0.0
H824 H 0.13308 0.46991 0.97955 0.0
H825 H 0.07801 0.52016 0.96719 0.0
H826 H 0.08968 0.52109 0.92469 0.0
H827 H 0.0508 0.45165 0.82122 0.0
H828 H 0.08326 0.4548 0.85089 0.0
H829 H 0.10048 0.52569 0.82958 0.0
H830 H 0.06797 0.52284 0.80002 0.0
H831 H 0.08937 0.48844 0.88948 0.0
H832 H 0.16247 0.53079 0.83002 0.0
H833 H 0.17451 0.53001 0.78757 0.0
H834 H 0.14252 0.46041 0.77675 0.0
H835 H 0.13061 0.46062 0.8192 0.0
C836 C 0.18158 0.54063 0.94189 0.0
C837 C 0.20183 0.52718 0.94686 0.0
C838 C 0.16448 0.5321 0.92524 0.0
C839 C 0.16749 0.51013 0.91306 0.0
C840 C 0.18782 0.49676 0.91764 0.0
C841 C 0.20477 0.50511 0.93465 0.0
C842 C 0.14933 0.50153 0.89534 0.0
C843 C 0.15555 0.5009 0.87106 0.0
C844 C 0.12539 0.49635 0.90217 0.0
C845 C 0.11825 0.49585 0.92772 0.0
C846 C 0.13035 0.48139 0.94345 0.0
C847 C 0.12368 0.48106 0.96753 0.0
C848 C 0.10482 0.49501 0.97606 0.0
C849 C 0.09261 0.50935 0.96054 0.0
C850 C 0.09923 0.50976 0.93645 0.0
C851 C 0.0615 0.46791 0.82284 0.0
C852 C 0.05686 0.48701 0.80828 0.0
C853 C 0.07996 0.46967 0.83982 0.0
C854 C 0.0943 0.49037 0.84221 0.0
C855 C 0.0897 0.50948 0.82778 0.0
C856 C 0.07107 0.50786 0.81101 0.0
C857 C 0.11389 0.49229 0.86006 0.0
C858 C 0.1079 0.49181 0.88438 0.0
C859 C 0.13809 0.49625 0.85326 0.0
C860 C 0.14547 0.49583 0.82776 0.0
C861 C 0.15811 0.51527 0.81861 0.0
C862 C 0.16489 0.51494 0.79454 0.0
C863 C 0.15922 0.4952 0.77946 0.0
C864 C 0.14682 0.47573 0.78843 0.0
C865 C 0.14002 0.47596 0.81249 0.0
H866 H 0.16448 0.49499 0.76083 0.0
H867 H 0.09962 0.49464 -0.00533 0.0
H868 H 0.53048 0.0553 0.81501 0.0
H869 H 0.52852 0.07958 0.8522 0.0
H870 H 0.45394 0.05896 0.86039 0.0
H871 H 0.45587 0.03416 0.82326 0.0
H872 H 0.46506 0.10957 0.8616 0.0
H873 H 0.48997 0.03841 0.89758 0.0
H874 H 0.51568 0.00377 0.90172 0.0
H875 H 0.57702 0.04995 0.91534 0.0
H876 H 0.55177 0.0849 0.91086 0.0
H877 H 0.45041 0.17634 0.96796 0.0
H878 H 0.45086 0.14195 0.93998 0.0
H879 H 0.52844 0.14638 0.93774 0.0
H880 H 0.52808 0.18026 0.9668 0.0
H881 H 0.51419 0.10147 0.93487 0.0
H882 H 0.49329 0.17134 0.89478 0.0
H883 H 0.47062 0.20748 0.88773 0.0
H884 H 0.40553 0.16569 0.87852 0.0
H885 H 0.42777 0.12932 0.88585 0.0
C886 C 0.51372 0.05574 0.82485 0.0
C887 C 0.49327 0.043 0.81623 0.0
C888 C 0.51269 0.06948 0.84614 0.0
C889 C 0.49113 0.0709 0.859 0.0
C890 C 0.47075 0.05792 0.85068 0.0
C891 C 0.47188 0.0438 0.82955 0.0
C892 C 0.48952 0.08757 0.87997 0.0
C893 C 0.47535 0.10758 0.87787 0.0
C894 C 0.5038 0.08529 0.90065 0.0
C895 C 0.51898 0.06429 0.90368 0.0
C896 C 0.50898 0.0412 0.90126 0.0
C897 C 0.52347 0.02149 0.90371 0.0
C898 C 0.54798 0.02465 0.90874 0.0
C899 C 0.55803 0.04753 0.91142 0.0
C900 C 0.54363 0.06729 0.90896 0.0
C901 C 0.46758 0.1698 0.9617 0.0
C902 C 0.4892 0.1811 0.96921 0.0
C903 C 0.46781 0.15019 0.94569 0.0
C904 C 0.48964 0.14198 0.93628 0.0
C905 C 0.51137 0.15251 0.94468 0.0
C906 C 0.51116 0.17188 0.96118 0.0
C907 C 0.48959 0.12353 0.91657 0.0
C908 C 0.50359 0.10332 0.91878 0.0
C909 C 0.47557 0.12583 0.89564 0.0
C910 C 0.46215 0.14765 0.89112 0.0
C911 C 0.47411 0.16988 0.89142 0.0
C912 C 0.46134 0.1904 0.88735 0.0
C913 C 0.43664 0.18889 0.88275 0.0
C914 C 0.42466 0.16684 0.88213 0.0
C915 C 0.43734 0.14627 0.88623 0.0
H916 H 0.42678 0.2048 0.8796 0.0
H917 H 0.55917 0.00938 0.91061 0.0
H918 H 0.92679 0.45018 0.79865 0.0
H919 H 0.89389 0.4533 0.82735 0.0
H920 H 0.89666 0.52956 0.82397 0.0
H921 H 0.92988 0.52665 0.79557 0.0
H922 H 0.89674 0.51723 0.86884 0.0
H923 H 0.84877 0.49705 0.80038 0.0
H924 H 0.83626 0.47468 0.76343 0.0
H925 H 0.82547 0.41181 0.80295 0.0
H926 H 0.83826 0.43371 0.8401 0.0
H927 H 0.79456 0.52201 0.94809 0.0
H928 H 0.8198 0.52716 0.91268 0.0
H929 H 0.8326 0.45198 0.9083 0.0
H930 H 0.80759 0.44662 0.94338 0.0
H931 H 0.82076 0.46948 0.8646 0.0
H932 H 0.87442 0.48934 0.93158 0.0
H933 H 0.88705 0.51211 0.96829 0.0
H934 H 0.88637 0.57671 0.93048 0.0
H935 H 0.87343 0.55432 0.89361 0.0
C936 C 0.92019 0.4676 0.80372 0.0
C937 C 0.93105 0.48816 0.7949 0.0
C938 C 0.90129 0.46936 0.82006 0.0
C939 C 0.8927 0.49167 0.82767 0.0
C940 C 0.90302 0.51218 0.81834 0.0
C941 C 0.92198 0.51045 0.80208 0.0
C942 C 0.87427 0.49356 0.84672 0.0
C943 C 0.87987 0.50721 0.86768 0.0
C944 C 0.85239 0.48029 0.84533 0.0
C945 C 0.84464 0.46701 0.82302 0.0
C946 C 0.84391 0.47841 0.80117 0.0
C947 C 0.83673 0.46582 0.78019 0.0
C948 C 0.83012 0.44183 0.78083 0.0
C949 C 0.83061 0.43039 0.80247 0.0
C950 C 0.83779 0.4429 0.82351 0.0
C951 C 0.8028 0.5066 0.9396 0.0
C952 C 0.7991 0.48392 0.94862 0.0
C953 C 0.81719 0.50958 0.9194 0.0
C954 C 0.82801 0.48993 0.90792 0.0
C955 C 0.82428 0.46734 0.91684 0.0
C956 C 0.81008 0.46436 0.93702 0.0
C957 C 0.84361 0.49261 0.88678 0.0
C958 C 0.83744 0.47984 0.86548 0.0
C959 C 0.86489 0.50678 0.88779 0.0
C960 C 0.87266 0.52021 0.90994 0.0
C961 C 0.87675 0.50843 0.93116 0.0
C962 C 0.88401 0.52125 0.95198 0.0
C963 C 0.88743 0.54585 0.95174 0.0
C964 C 0.88366 0.55766 0.93066 0.0
C965 C 0.87638 0.54492 0.90979 0.0
H966 H 0.89306 0.55575 0.96788 0.0
H967 H 0.82457 0.43211 0.76457 0.0
H968 H 0.47635 0.09902 0.24718 0.0
H969 H 0.47088 0.13373 0.22309 0.0
H970 H 0.53696 0.11871 0.18575 0.0
H971 H 0.54283 0.08427 0.20997 0.0
H972 H 0.50244 0.17601 0.20834 0.0
H973 H 0.51675 0.11316 0.12688 0.0
H974 H 0.51431 0.07028 0.11594 0.0
H975 H 0.45896 0.06081 0.16832 0.0
H976 H 0.46077 0.10365 0.17922 0.0
H977 H 0.51674 0.23295 0.09694 0.0
H978 H 0.51938 0.21089 0.13345 0.0
H979 H 0.44829 0.18103 0.12009 0.0
H980 H 0.44552 0.20298 0.0835 0.0
H981 H 0.48165 0.14731 0.12552 0.0
H982 H 0.45772 0.21879 0.16724 0.0
H983 H 0.45951 0.2615 0.17862 0.0
H984 H 0.53103 0.25445 0.20615 0.0
H985 H 0.5298 0.21175 0.19462 0.0
C986 C 0.49008 0.10354 0.23434 0.0
C987 C 0.50987 0.0888 0.23022 0.0
C988 C 0.48699 0.12342 0.22072 0.0
C989 C 0.50342 0.12854 0.20261 0.0
C990 C 0.52412 0.11495 0.19971 0.0
C991 C 0.52742 0.09528 0.21354 0.0
C992 C 0.49715 0.14546 0.18436 0.0
C993 C 0.49789 0.16987 0.19021 0.0
C994 C 0.49079 0.13723 0.16093 0.0
C995 C 0.48912 0.11154 0.15406 0.0
C996 C 0.50399 0.10192 0.13598 0.0
C997 C 0.50272 0.07763 0.12979 0.0
C998 C 0.48656 0.06282 0.1415 0.0
C999 C 0.47154 0.07228 0.15933 0.0
C1000 C 0.4727 0.09656 0.16554 0.0
C1001 C 0.50147 0.22207 0.10202 0.0
C1002 C 0.481 0.21951 0.08724 0.0
C1003 C 0.50297 0.20956 0.12295 0.0
C1004 C 0.48403 0.19434 0.12944 0.0
C1005 C 0.4631 0.19269 0.11535 0.0
C1006 C 0.46153 0.20527 0.09448 0.0
C1007 C 0.48719 0.17813 0.14923 0.0
C1008 C 0.48601 0.15366 0.14364 0.0
C1009 C 0.49296 0.18641 0.17286 0.0
C1010 C 0.49373 0.21208 0.17988 0.0
C1011 C 0.47391 0.22637 0.17554 0.0
C1012 C 0.47481 0.25058 0.18205 0.0
C1013 C 0.49539 0.26069 0.19306 0.0
C1014 C 0.5151 0.2466 0.19761 0.0
C1015 C 0.5143 0.22238 0.19112 0.0
H1016 H 0.49605 0.27944 0.19809 0.0
H1017 H 0.48562 0.04402 0.13674 0.0
H1018 H 0.93533 0.47758 0.22067 0.0
H1019 H 0.90205 0.47352 0.19236 0.0
H1020 H 0.90106 0.54952 0.18713 0.0
H1021 H 0.93444 0.55386 0.21586 0.0
H1022 H 0.85499 0.52866 0.18782 0.0
H1023 H 0.92887 0.51829 0.14507 0.0
H1024 H 0.96879 0.50149 0.13706 0.0
H1025 H 0.93679 0.43167 0.1286 0.0
H1026 H 0.8967 0.44802 0.13691 0.0
H1027 H 0.7917 0.52475 0.07616 0.0
H1028 H 0.81983 0.53225 0.10931 0.0
H1029 H 0.8285 0.45691 0.11499 0.0
H1030 H 0.80071 0.44921 0.08154 0.0
H1031 H 0.87089 0.47954 0.11397 0.0
H1032 H 0.79672 0.49013 0.15686 0.0
H1033 H 0.75695 0.50719 0.16501 0.0
H1034 H 0.78933 0.57688 0.17283 0.0
H1035 H 0.82928 0.56028 0.16441 0.0
C1036 C 0.92797 0.49351 0.21371 0.0
C1037 C 0.93776 0.51605 0.2203 0.0
C1038 C 0.90894 0.49112 0.19751 0.0
C1039 C 0.89942 0.51118 0.18736 0.0
C1040 C 0.90828 0.53382 0.19472 0.0
C1041 C 0.92736 0.53626 0.21107 0.0
C1042 C 0.88117 0.50818 0.16812 0.0
C1043 C 0.8585 0.51821 0.1715 0.0
C1044 C 0.88575 0.49423 0.14704 0.0
C1045 C 0.90981 0.48436 0.14182 0.0
C1046 C 0.93037 0.49933 0.14167 0.0
C1047 C 0.95302 0.48989 0.13705 0.0
C1048 C 0.95533 0.46552 0.13237 0.0
C1049 C 0.93498 0.45054 0.13225 0.0
C1050 C 0.91228 0.45989 0.13689 0.0
C1051 C 0.7994 0.50973 0.08459 0.0
C1052 C 0.79401 0.48635 0.07612 0.0
C1053 C 0.8154 0.51407 0.10363 0.0
C1054 C 0.82613 0.49514 0.11473 0.0
C1055 C 0.82041 0.47178 0.10665 0.0
C1056 C 0.80449 0.46742 0.08756 0.0
C1057 C 0.84443 0.49963 0.13377 0.0
C1058 C 0.86727 0.48999 0.13027 0.0
C1059 C 0.83996 0.51397 0.15465 0.0
C1060 C 0.81596 0.52398 0.15976 0.0
C1061 C 0.79534 0.50912 0.16012 0.0
C1062 C 0.77277 0.5187 0.16483 0.0
C1063 C 0.7706 0.54311 0.16937 0.0
C1064 C 0.79103 0.55798 0.16928 0.0
C1065 C 0.81364 0.54849 0.16456 0.0
H1066 H 0.75311 0.5505 0.17302 0.0
H1067 H 0.97288 0.45824 0.1288 0.0
H1068 H 0.56521 0.85263 0.02872 0.0
H1069 H 0.56251 0.88661 0.05743 0.0
H1070 H 0.48576 0.8751 0.06209 0.0
H1071 H 0.48834 0.84095 0.03379 0.0
H1072 H 0.50269 0.92549 0.06245 0.0
H1073 H 0.5148 0.85063 0.10088 0.0
H1074 H 0.53641 0.81357 0.10656 0.0
H1075 H 0.60127 0.85368 0.12323 0.0
H1076 H 0.58009 0.89098 0.11725 0.0
H1077 H 0.47265 0.9754 0.17768 0.0
H1078 H 0.47717 0.95185 0.14014 0.0
H1079 H 0.55393 0.95032 0.15169 0.0
H1080 H 0.54936 0.97284 0.1895 0.0
H1081 H 0.53878 0.90839 0.14088 0.0
H1082 H 0.52747 0.98342 0.10695 0.0
H1083 H 0.50755 0.02127 0.10065 0.0
H1084 H 0.44417 0.98341 0.07493 0.0
H1085 H 0.46364 0.9453 0.08129 0.0
C1086 C 0.54773 0.85765 0.03552 0.0
C1087 C 0.52702 0.84403 0.02933 0.0
C1088 C 0.54621 0.87705 0.05183 0.0
C1089 C 0.52394 0.88322 0.06184 0.0
C1090 C 0.50306 0.87063 0.05444 0.0
C1091 C 0.50461 0.85104 0.03846 0.0
C1092 C 0.52274 0.90065 0.08224 0.0
C1093 C 0.51046 0.92185 0.07967 0.0
C1094 C 0.53331 0.89594 0.10446 0.0
C1095 C 0.54595 0.87355 0.10834 0.0
C1096 C 0.53372 0.85153 0.10555 0.0
C1097 C 0.54588 0.83049 0.10886 0.0
C1098 C 0.57022 0.83127 0.11518 0.0
C1099 C 0.58243 0.8531 0.11828 0.0
C1100 C 0.57036 0.87419 0.11494 0.0
C1101 C 0.49047 0.97015 0.17205 0.0
C1102 C 0.51062 0.9757 0.18657 0.0
C1103 C 0.49308 0.95686 0.15053 0.0
C1104 C 0.51594 0.94943 0.14298 0.0
C1105 C 0.53611 0.95571 0.15717 0.0
C1106 C 0.53347 0.96858 0.17879 0.0
C1107 C 0.5188 0.93363 0.12131 0.0
C1108 C 0.53126 0.91247 0.12366 0.0
C1109 C 0.50867 0.93863 0.09887 0.0
C1110 C 0.49695 0.9615 0.0948 0.0
C1111 C 0.50922 0.98316 0.1001 0.0
C1112 C 0.49802 0.00466 0.09649 0.0
C1113 C 0.47457 0.00475 0.08749 0.0
C1114 C 0.46232 0.98332 0.08194 0.0
C1115 C 0.47345 0.96175 0.0855 0.0
H1116 H 0.46592 0.02142 0.08475 0.0
H1117 H 0.57961 0.81496 0.11774 0.0
H1118 H 0.22239 0.51036 0.07788 0.0
H1119 H 0.19245 0.50351 0.10892 0.0
H1120 H 0.15905 0.56955 0.09397 0.0
H1121 H 0.18903 0.57667 0.06294 0.0
H1122 H 0.17988 0.53097 0.15021 0.0
H1123 H 0.09752 0.55781 0.09552 0.0
H1124 H 0.08503 0.55949 0.0533 0.0
H1125 H 0.13222 0.50258 0.03393 0.0
H1126 H 0.14474 0.50032 0.07609 0.0
H1127 H 0.07588 0.55918 0.21814 0.0
H1128 H 0.10783 0.55928 0.18822 0.0
H1129 H 0.08731 0.48798 0.16438 0.0
H1130 H 0.05542 0.4875 0.19474 0.0
H1131 H 0.09371 0.52351 0.12698 0.0
H1132 H 0.13408 0.49035 0.19325 0.0
H1133 H 0.14674 0.48854 0.23539 0.0
H1134 H 0.18373 0.55582 0.23122 0.0
H1135 H 0.17097 0.5582 0.18914 0.0
C1136 C 0.20882 0.52355 0.08134 0.0
C1137 C 0.208 0.54402 0.0679 0.0
C1138 C 0.19178 0.51961 0.09909 0.0
C1139 C 0.17346 0.53589 0.10346 0.0
C1140 C 0.17297 0.55668 0.09062 0.0
C1141 C 0.19017 0.56077 0.07302 0.0
C1142 C 0.15449 0.53084 0.12107 0.0
C1143 C 0.16105 0.52927 0.14515 0.0
C1144 C 0.13001 0.52826 0.11429 0.0
C1145 C 0.12223 0.52907 0.08895 0.0
C1146 C 0.10514 0.54557 0.08227 0.0
C1147 C 0.09807 0.54664 0.05835 0.0
C1148 C 0.10789 0.53122 0.04093 0.0
C1149 C 0.1247 0.51459 0.04743 0.0
C1150 C 0.13182 0.51343 0.07133 0.0
C1151 C 0.07814 0.5435 0.20655 0.0
C1152 C 0.06316 0.52332 0.20874 0.0
C1153 C 0.09643 0.54358 0.18955 0.0
C1154 C 0.09986 0.52363 0.17425 0.0
C1155 C 0.08485 0.50351 0.17614 0.0
C1156 C 0.06676 0.50324 0.19349 0.0
C1157 C 0.11908 0.52415 0.15614 0.0
C1158 C 0.11257 0.52498 0.13198 0.0
C1159 C 0.14361 0.52594 0.16282 0.0
C1160 C 0.15138 0.52454 0.1881 0.0
C1161 C 0.14473 0.50486 0.20138 0.0
C1162 C 0.15196 0.50371 0.22524 0.0
C1163 C 0.16598 0.52208 0.23599 0.0
C1164 C 0.17285 0.54161 0.22288 0.0
C1165 C 0.16564 0.54286 0.19901 0.0
H1166 H 0.17157 0.52115 0.25447 0.0
H1167 H 0.10245 0.53215 0.02242 0.0
H1168 H 0.79662 0.93055 0.47577 0.0
H1169 H 0.81362 0.89112 0.47769 0.0
H1170 H 0.80199 0.89266 0.55398 0.0
H1171 H 0.78507 0.93217 0.55225 0.0
H1172 H 0.84811 0.88436 0.54243 0.0
H1173 H 0.77153 0.85245 0.51858 0.0
H1174 H 0.73437 0.84835 0.4945 0.0
H1175 H 0.77577 0.82984 0.43196 0.0
H1176 H 0.81323 0.83417 0.45557 0.0
H1177 H 0.91169 0.77712 0.54277 0.0
H1178 H 0.87777 0.8036 0.54905 0.0
H1179 H 0.87464 0.8141 0.47316 0.0
H1180 H 0.90792 0.78728 0.46666 0.0
H1181 H 0.83049 0.81217 0.49102 0.0
H1182 H 0.90602 0.85283 0.51205 0.0
H1183 H 0.94409 0.85859 0.53449 0.0
H1184 H 0.90504 0.86228 0.60067 0.0
H1185 H 0.86674 0.85625 0.5786 0.0
C1186 C 0.79723 0.9223 0.49288 0.0
C1187 C 0.78977 0.93455 0.51389 0.0
C1188 C 0.8068 0.8997 0.49393 0.0
C1189 C 0.80896 0.88895 0.51598 0.0
C1190 C 0.80041 0.90065 0.5368 0.0
C1191 C 0.79078 0.92322 0.53576 0.0
C1192 C 0.82297 0.8671 0.5176 0.0
C1193 C 0.8439 0.86831 0.53168 0.0
C1194 C 0.81772 0.84643 0.50316 0.0
C1195 C 0.79523 0.84377 0.48885 0.0
C1196 C 0.77274 0.84768 0.49965 0.0
C1197 C 0.75161 0.84528 0.48609 0.0
C1198 C 0.75271 0.83887 0.46171 0.0
C1199 C 0.77494 0.83481 0.45085 0.0
C1200 C 0.79613 0.8372 0.46432 0.0
C1201 C 0.90359 0.78487 0.52741 0.0
C1202 C 0.9127 0.78034 0.50425 0.0
C1203 C 0.88422 0.79998 0.53102 0.0
C1204 C 0.87392 0.81107 0.5116 0.0
C1205 C 0.88229 0.80571 0.4884 0.0
C1206 C 0.90145 0.79047 0.48474 0.0
C1207 C 0.85586 0.82976 0.51535 0.0
C1208 C 0.83428 0.82798 0.50225 0.0
C1209 C 0.86059 0.8501 0.53047 0.0
C1210 C 0.88358 0.85379 0.54372 0.0
C1211 C 0.90558 0.8547 0.5314 0.0
C1212 C 0.92719 0.85804 0.54404 0.0
C1213 C 0.92699 0.86071 0.569 0.0
C1214 C 0.90517 0.86014 0.58135 0.0
C1215 C 0.88351 0.85677 0.56879 0.0
H1216 H 0.94374 0.8633 0.57876 0.0
H1217 H 0.73633 0.83702 0.45124 0.0
H1218 H 0.98248 0.19459 0.55614 0.0
H1219 H 0.95594 0.15953 0.55408 0.0
H1220 H 0.94245 0.17005 0.47937 0.0
H1221 H 0.96895 0.20525 0.48122 0.0
H1222 H 0.90111 0.16336 0.50525 0.0
H1223 H 0.9772 0.1262 0.49455 0.0
H1224 H 0.01932 0.11801 0.50463 0.0
H1225 H -0.00325 0.09062 0.5716 0.0
H1226 H 0.9545 0.09902 0.5621 0.0
H1227 H 0.8365 0.05894 0.47765 0.0
H1228 H 0.86999 0.08756 0.47795 0.0
H1229 H 0.88236 0.07659 0.55277 0.0
H1230 H 0.84893 0.04744 0.55252 0.0
H1231 H 0.92506 0.08279 0.52694 0.0
H1232 H 0.8496 0.12153 0.53863 0.0
H1233 H 0.80744 0.13014 0.52913 0.0
H1234 H 0.8291 0.15523 0.46089 0.0
H1235 H 0.87137 0.1464 0.46984 0.0
C1236 C 0.97397 0.18942 0.53922 0.0
C1237 C 0.97775 0.20277 0.51885 0.0
C1238 C 0.95893 0.1693 0.53806 0.0
C1239 C 0.94743 0.16216 0.51654 0.0
C1240 C 0.95126 0.1753 0.49613 0.0
C1241 C 0.96641 0.19538 0.49722 0.0
C1242 C 0.93042 0.14166 0.51565 0.0
C1243 C 0.90643 0.14566 0.50961 0.0
C1244 C 0.93732 0.11879 0.52206 0.0
C1245 C 0.96269 0.11345 0.5277 0.0
C1246 C 0.98123 0.11861 0.51151 0.0
C1247 C 0.00512 0.11391 0.51711 0.0
C1248 C 0.01071 0.10386 0.53877 0.0
C1249 C 0.99239 0.09843 0.55484 0.0
C1250 C 0.96846 0.10314 0.54935 0.0
C1251 C 0.84652 0.06238 0.49412 0.0
C1252 C 0.83989 0.05127 0.51519 0.0
C1253 C 0.86565 0.0787 0.49423 0.0
C1254 C 0.8783 0.08446 0.51547 0.0
C1255 C 0.8727 0.07239 0.53623 0.0
C1256 C 0.85359 0.05585 0.53609 0.0
C1257 C 0.89585 0.10451 0.51632 0.0
C1258 C 0.91984 0.10048 0.52248 0.0
C1259 C 0.88899 0.12746 0.51012 0.0
C1260 C 0.86362 0.1331 0.50482 0.0
C1261 C 0.84535 0.12873 0.52153 0.0
C1262 C 0.82144 0.13366 0.51625 0.0
C1263 C 0.81559 0.14317 0.49439 0.0
C1264 C 0.83366 0.14783 0.4778 0.0
C1265 C 0.8576 0.14288 0.48297 0.0
H1266 H 0.79706 0.14698 0.49034 0.0
H1267 H 0.02922 0.10024 0.54307 0.0
H1268 H 0.04311 0.79198 0.45505 0.0
H1269 H 0.07188 0.82549 0.45436 0.0
H1270 H 0.06014 0.84043 0.52966 0.0
H1271 H 0.03155 0.80711 0.5306 0.0
H1272 H 0.05933 0.88084 0.50275 0.0
H1273 H 0.10908 0.81299 0.5132 0.0
H1274 H 0.12453 0.77323 0.50275 0.0
H1275 H 0.1484 0.79705 0.43472 0.0
H1276 H 0.13277 0.83688 0.44464 0.0
H1277 H 0.16045 0.95633 0.5322 0.0
H1278 H 0.12885 0.92539 0.52996 0.0
H1279 H 0.1494 0.90679 0.45727 0.0
H1280 H 0.18131 0.93713 0.45963 0.0
H1281 H 0.14485 0.86851 0.48135 0.0
H1282 H 0.09688 0.93667 0.47079 0.0
H1283 H 0.08127 0.97651 0.48048 0.0
H1284 H 0.05363 0.95272 0.54714 0.0
H1285 H 0.06938 0.9128 0.538 0.0
C1286 C 0.04668 0.80239 0.47145 0.0
C1287 C 0.03513 0.79681 0.4929 0.0
C1288 C 0.06311 0.82149 0.47103 0.0
C1289 C 0.06813 0.83533 0.49199 0.0
C1290 C 0.05644 0.82997 0.51331 0.0
C1291 C 0.04022 0.81082 0.51381 0.0
C1292 C 0.08582 0.85527 0.49191 0.0
C1293 C 0.0781 0.87819 0.49828 0.0
C1294 C 0.11011 0.85176 0.48553 0.0
C1295 C 0.11951 0.82783 0.47955 0.0
C1296 C 0.11742 0.80969 0.49592 0.0
C1297 C 0.12625 0.78715 0.49012 0.0
C1298 C 0.13737 0.7826 0.46805 0.0
C1299 C 0.13974 0.80059 0.45178 0.0
C1300 C 0.13091 0.82315 0.45749 0.0
C1301 C 0.15806 0.94577 0.5157 0.0
C1302 C 0.1734 0.94906 0.49614 0.0
C1303 C 0.13995 0.92816 0.51439 0.0
C1304 C 0.13666 0.91386 0.49337 0.0
C1305 C 0.15165 0.91754 0.47367 0.0
C1306 C 0.16985 0.93493 0.47506 0.0
C1307 C 0.11844 0.89427 0.49219 0.0
C1308 C 0.12607 0.87132 0.48565 0.0
C1309 C 0.09404 0.89781 0.49825 0.0
C1310 C 0.08452 0.9218 0.5038 0.0
C1311 C 0.08765 0.93998 0.4876 0.0
C1312 C 0.07874 0.96257 0.49298 0.0
C1313 C 0.06652 0.96716 0.51444 0.0
C1314 C 0.06313 0.94915 0.53054 0.0
C1315 C 0.07202 0.92653 0.52526 0.0
H1316 H 0.05964 0.98466 0.51857 0.0
H1317 H 0.14421 0.76514 0.46359 0.0
H1318 H 0.09505 0.23238 0.47534 0.0
H1319 H 0.12599 0.2026 0.4709 0.0
H1320 H 0.13374 0.20206 0.54757 0.0
H1321 H 0.10253 0.23188 0.55234 0.0
H1322 H 0.17841 0.19648 0.52032 0.0
H1323 H 0.09806 0.16327 0.52596 0.0
H1324 H 0.05505 0.15901 0.51533 0.0
H1325 H 0.07379 0.1397 0.44273 0.0
H1326 H 0.11693 0.14414 0.45289 0.0
H1327 H 0.21683 0.07857 0.53534 0.0
H1328 H 0.19818 0.11734 0.53648 0.0
H1329 H 0.18262 0.10894 0.46094 0.0
H1330 H 0.20102 0.06988 0.45971 0.0
H1331 H 0.14349 0.12066 0.48608 0.0
H1332 H 0.22476 0.14975 0.48223 0.0
H1333 H 0.26749 0.15366 0.49389 0.0
H1334 H 0.24733 0.1802 0.56397 0.0
H1335 H 0.20444 0.17614 0.55285 0.0
C1336 C 0.10365 0.22638 0.49131 0.0
C1337 C 0.09599 0.2342 0.51424 0.0
C1338 C 0.12137 0.20937 0.4887 0.0
C1339 C 0.1318 0.19995 0.50892 0.0
C1340 C 0.12579 0.20915 0.53178 0.0
C1341 C 0.10792 0.22614 0.53445 0.0
C1342 C 0.14658 0.17858 0.50617 0.0
C1343 C 0.17084 0.17981 0.51303 0.0
C1344 C 0.13663 0.15704 0.49628 0.0
C1345 C 0.11071 0.15431 0.49012 0.0
C1346 C 0.093 0.15833 0.50768 0.0
C1347 C 0.0686 0.15584 0.50176 0.0
C1348 C 0.06169 0.14918 0.47835 0.0
C1349 C 0.07917 0.14491 0.46084 0.0
C1350 C 0.1036 0.14739 0.46668 0.0
C1351 C 0.20973 0.08509 0.51888 0.0
C1352 C 0.21026 0.07111 0.49745 0.0
C1353 C 0.19921 0.10734 0.51954 0.0
C1354 C 0.18918 0.1161 0.49876 0.0
C1355 C 0.19032 0.1025 0.47717 0.0
C1356 C 0.20085 0.08021 0.47649 0.0
C1357 C 0.17558 0.13841 0.50009 0.0
C1358 C 0.15132 0.13733 0.4931 0.0
C1359 C 0.18557 0.15998 0.50999 0.0
C1360 C 0.21136 0.16245 0.51675 0.0
C1361 C 0.22942 0.15623 0.50019 0.0
C1362 C 0.25368 0.15851 0.5067 0.0
C1363 C 0.26012 0.16712 0.52968 0.0
C1364 C 0.24232 0.17352 0.54619 0.0
C1365 C 0.21803 0.17126 0.53978 0.0
H1366 H 0.27892 0.16888 0.53467 0.0
H1367 H 0.0428 0.14725 0.47379 0.0
loop_
_geom_bond_atom_site_label_1
_geom_bond_atom_site_label_2
_geom_bond_distance
_geom_bond_site_symmetry_2
_ccdc_geom_bond_type
C0 O1 1.306 . S
C0 O3 1.160 . S
O1 C0 1.306 . S
O1 Cd2 2.228 . S
Cd2 O1 2.228 . S
Cd2 O6 2.273 . S
Cd2 O10 2.277 1_655 S
O3 C0 1.160 . S
O3 Cd4 2.203 1_655 S
Cd4 O3 2.203 1_455 S
Cd4 O6 2.411 1_455 S
Cd4 O7 2.333 . S
Cd4 O8 2.352 1_455 S
Cd4 O12 2.277 . S
Cd4 O13 2.356 . S
C5 O10 1.209 . S
C5 O12 1.226 . S
O6 Cd2 2.273 . S
O6 Cd4 2.411 1_655 S
O6 C9 1.320 1_655 S
O7 Cd4 2.333 . S
O7 C9 1.214 . S
O8 Cd4 2.352 1_655 S
O8 C11 1.258 . S
C9 O6 1.320 1_455 S
C9 O7 1.214 . S
O10 Cd2 2.277 1_455 S
O10 C5 1.209 . S
C11 O8 1.258 . S
C11 O13 1.282 1_655 S
O12 Cd4 2.277 . S
O12 C5 1.226 . S
O13 Cd4 2.356 . S
O13 C11 1.282 1_455 S
C14 O15 1.306 . S
C14 O17 1.160 1_545 S
O15 C14 1.306 . S
O15 Cd16 2.228 . S
Cd16 O15 2.228 . S
Cd16 O20 2.273 . S
Cd16 O24 2.277 . S
O17 C14 1.160 1_565 S
O17 Cd18 2.203 1_565 S
Cd18 O17 2.203 1_545 S
Cd18 O20 2.411 . S
Cd18 O21 2.333 . S
Cd18 O22 2.352 1_545 S
Cd18 O26 2.277 . S
Cd18 O27 2.356 1_545 S
C19 O24 1.209 . S
C19 O26 1.226 . S
O20 Cd16 2.273 . S
O20 Cd18 2.411 . S
O20 C23 1.320 . S
O21 Cd18 2.333 . S
O21 C23 1.214 . S
O22 Cd18 2.352 1_565 S
O22 C25 1.258 . S
C23 O20 1.320 . S
C23 O21 1.214 . S
O24 Cd16 2.277 . S
O24 C19 1.209 . S
C25 O22 1.258 . S
C25 O27 1.282 . S
O26 Cd18 2.277 . S
O26 C19 1.226 . S
O27 Cd18 2.356 1_565 S
O27 C25 1.282 . S
C28 O29 1.306 . S
C28 O31 1.160 . S
O29 C28 1.306 . S
O29 Cd30 2.228 1_655 S
Cd30 O29 2.228 1_455 S
Cd30 O34 2.273 . S
Cd30 O38 2.277 . S
O31 C28 1.160 . S
O31 Cd32 2.203 1_655 S
Cd32 O31 2.203 1_455 S
Cd32 O34 2.411 . S
Cd32 O35 2.333 . S
Cd32 O36 2.352 1_455 S
Cd32 O40 2.277 . S
Cd32 O41 2.356 . S
C33 O38 1.209 . S
C33 O40 1.226 . S
O34 Cd30 2.273 . S
O34 Cd32 2.411 . S
O34 C37 1.320 . S
O35 Cd32 2.333 . S
O35 C37 1.214 . S
O36 Cd32 2.352 1_655 S
O36 C39 1.258 1_655 S
C37 O34 1.320 . S
C37 O35 1.214 . S
O38 Cd30 2.277 . S
O38 C33 1.209 . S
C39 O36 1.258 1_455 S
C39 O41 1.282 . S
O40 Cd32 2.277 . S
O40 C33 1.226 . S
O41 Cd32 2.356 . S
O41 C39 1.282 . S
C42 O43 1.263 1_545 S
C42 O45 1.160 . S
O43 C42 1.263 1_565 S
O43 Cd44 2.262 . S
Cd44 O43 2.262 . S
Cd44 O48 2.273 . S
Cd44 O52 2.277 . S
O45 C42 1.160 . S
O45 Cd46 2.203 . S
Cd46 O45 2.203 . S
Cd46 O48 2.411 1_545 S
Cd46 O49 2.333 . S
Cd46 O50 2.352 . S
Cd46 O54 2.277 . S
Cd46 O55 2.356 . S
C47 O52 1.209 1_545 S
C47 O54 1.226 . S
O48 Cd44 2.273 . S
O48 Cd46 2.411 1_565 S
O48 C51 1.320 . S
O49 Cd46 2.333 . S
O49 C51 1.214 1_545 S
O50 Cd46 2.352 . S
O50 C53 1.258 . S
C51 O48 1.320 . S
C51 O49 1.214 1_565 S
O52 Cd44 2.277 . S
O52 C47 1.209 1_565 S
C53 O50 1.258 . S
C53 O55 1.282 . S
O54 Cd46 2.277 . S
O54 C47 1.226 . S
O55 Cd46 2.356 . S
O55 C53 1.282 . S
C56 O57 1.306 1_545 S
C56 O59 1.160 . S
O57 C56 1.306 1_565 S
O57 Cd58 2.228 . S
Cd58 O57 2.228 . S
Cd58 O62 2.273 . S
Cd58 O66 2.277 . S
O59 C56 1.160 . S
O59 Cd60 2.203 . S
Cd60 O59 2.203 . S
Cd60 O62 2.411 1_545 S
Cd60 O63 2.333 1_545 S
Cd60 O64 2.352 . S
Cd60 O68 2.277 . S
Cd60 O69 2.356 . S
C61 O66 1.209 1_545 S
C61 O68 1.226 . S
O62 Cd58 2.273 . S
O62 Cd60 2.411 1_565 S
O62 C65 1.320 . S
O63 Cd60 2.333 1_565 S
O63 C65 1.214 . S
O64 Cd60 2.352 . S
O64 C67 1.258 . S
C65 O62 1.320 . S
C65 O63 1.214 . S
O66 Cd58 2.277 . S
O66 C61 1.209 1_565 S
C67 O64 1.258 . S
C67 O69 1.282 . S
O68 Cd60 2.277 . S
O68 C61 1.226 . S
O69 Cd60 2.356 . S
O69 C67 1.282 . S
C70 O71 1.306 . S
C70 O73 1.160 . S
O71 C70 1.306 . S
O71 Cd72 2.228 . S
Cd72 O71 2.228 . S
Cd72 O76 2.273 . S
Cd72 O80 2.277 1_455 S
O73 C70 1.160 . S
O73 Cd74 2.203 . S
Cd74 O73 2.203 . S
Cd74 O76 2.411 . S
Cd74 O77 2.333 1_455 S
Cd74 O78 2.352 . S
Cd74 O82 2.277 1_455 S
Cd74 O83 2.356 1_455 S
C75 O80 1.209 . S
C75 O82 1.226 . S
O76 Cd72 2.273 . S
O76 Cd74 2.411 . S
O76 C79 1.320 . S
O77 Cd74 2.333 1_655 S
O77 C79 1.214 1_655 S
O78 Cd74 2.352 . S
O78 C81 1.258 . S
C79 O76 1.320 . S
C79 O77 1.214 1_455 S
O80 Cd72 2.277 1_655 S
O80 C75 1.209 . S
C81 O78 1.258 . S
C81 O83 1.282 1_455 S
O82 Cd74 2.277 1_655 S
O82 C75 1.226 . S
O83 Cd74 2.356 1_655 S
O83 C81 1.282 1_655 S
C84 O85 1.306 . S
C84 O87 1.160 1_545 S
O85 C84 1.306 . S
O85 Cd86 2.228 . S
Cd86 O85 2.228 . S
Cd86 O90 2.273 . S
Cd86 O94 2.277 . S
O87 C84 1.160 1_565 S
O87 Cd88 2.203 1_565 S
Cd88 O87 2.203 1_545 S
Cd88 O90 2.411 . S
Cd88 O91 2.333 . S
Cd88 O92 2.352 1_545 S
Cd88 O96 2.277 . S
Cd88 O97 2.356 1_545 S
C89 O94 1.209 . S
C89 O96 1.226 . S
O90 Cd86 2.273 . S
O90 Cd88 2.411 . S
O90 C93 1.320 . S
O91 Cd88 2.333 . S
O91 C93 1.214 . S
O92 Cd88 2.352 1_565 S
O92 C95 1.258 . S
C93 O90 1.320 . S
C93 O91 1.214 . S
O94 Cd86 2.277 . S
O94 C89 1.209 . S
C95 O92 1.258 . S
C95 O97 1.282 . S
O96 Cd88 2.277 . S
O96 C89 1.226 . S
O97 Cd88 2.356 1_565 S
O97 C95 1.282 . S
C98 O99 1.306 . S
C98 O101 1.160 . S
O99 C98 1.306 . S
O99 Cd100 2.228 . S
Cd100 O99 2.228 . S
Cd100 O104 2.273 . S
Cd100 O108 2.277 1_455 S
O101 C98 1.160 . S
O101 Cd102 2.203 . S
Cd102 O101 2.203 . S
Cd102 O104 2.411 . S
Cd102 O105 2.333 1_455 S
Cd102 O106 2.352 . S
Cd102 O110 2.277 1_455 S
Cd102 O111 2.356 1_455 S
C103 O108 1.209 . S
C103 O110 1.226 . S
O104 Cd100 2.273 . S
O104 Cd102 2.411 . S
O104 C107 1.320 . S
O105 Cd102 2.333 1_655 S
O105 C107 1.214 1_655 S
O106 Cd102 2.352 . S
O106 C109 1.258 . S
C107 O104 1.320 . S
C107 O105 1.214 1_455 S
O108 Cd100 2.277 1_655 S
O108 C103 1.209 . S
C109 O106 1.258 . S
C109 O111 1.282 1_455 S
O110 Cd102 2.277 1_655 S
O110 C103 1.226 . S
O111 Cd102 2.356 1_655 S
O111 C109 1.282 1_655 S
C112 O113 1.306 . S
C112 O115 1.160 . S
O113 C112 1.306 . S
O113 Cd114 2.228 1_556 S
Cd114 O113 2.228 1_554 S
Cd114 O118 2.273 . S
Cd114 O122 2.277 . S
O115 C112 1.160 . S
O115 Cd116 2.203 1_556 S
Cd116 O115 2.203 1_554 S
Cd116 O118 2.411 . S
Cd116 O119 2.333 . S
Cd116 O120 2.352 1_554 S
Cd116 O124 2.277 . S
Cd116 O125 2.356 . S
C117 O122 1.209 . S
C117 O124 1.226 . S
O118 Cd114 2.273 . S
O118 Cd116 2.411 . S
O118 C121 1.320 . S
O119 Cd116 2.333 . S
O119 C121 1.214 . S
O120 Cd116 2.352 1_556 S
O120 C123 1.258 1_556 S
C121 O118 1.320 . S
C121 O119 1.214 . S
O122 Cd114 2.277 . S
O122 C117 1.209 . S
C123 O120 1.258 1_554 S
C123 O125 1.282 . S
O124 Cd116 2.277 . S
O124 C117 1.226 . S
O125 Cd116 2.356 . S
O125 C123 1.282 . S
C126 O127 1.306 1_554 S
C126 O129 1.160 . S
O127 C126 1.306 1_556 S
O127 Cd128 2.228 . S
Cd128 O127 2.228 . S
Cd128 O132 2.273 . S
Cd128 O136 2.277 . S
O129 C126 1.160 . S
O129 Cd130 2.203 . S
Cd130 O129 2.203 . S
Cd130 O132 2.411 1_554 S
Cd130 O133 2.333 1_554 S
Cd130 O134 2.352 . S
Cd130 O138 2.277 . S
Cd130 O139 2.356 . S
C131 O136 1.209 1_554 S
C131 O138 1.226 . S
O132 Cd128 2.273 . S
O132 Cd130 2.411 1_556 S
O132 C135 1.320 . S
O133 Cd130 2.333 1_556 S
O133 C135 1.214 . S
O134 Cd130 2.352 . S
O134 C137 1.258 . S
C135 O132 1.320 . S
C135 O133 1.214 . S
O136 Cd128 2.277 . S
O136 C131 1.209 1_556 S
C137 O134 1.258 . S
C137 O139 1.282 . S
O138 Cd130 2.277 . S
O138 C131 1.226 . S
O139 Cd130 2.356 . S
O139 C137 1.282 . S
C140 O141 1.306 . S
C140 O143 1.160 . S
O141 C140 1.306 . S
O141 Cd142 2.213 1_556 S
Cd142 O141 2.213 1_554 S
Cd142 O146 2.274 . S
Cd142 O150 2.295 . S
O143 C140 1.160 . S
O143 Cd144 2.203 1_556 S
Cd144 O143 2.203 1_554 S
Cd144 O146 2.411 . S
Cd144 O147 2.333 . S
Cd144 O148 2.352 1_554 S
Cd144 O152 2.277 . S
Cd144 O153 2.356 . S
C145 O150 1.209 . S
C145 O152 1.226 . S
O146 Cd142 2.274 . S
O146 Cd144 2.411 . S
O146 C149 1.320 . S
O147 Cd144 2.333 . S
O147 C149 1.214 . S
O148 Cd144 2.352 1_556 S
O148 C151 1.258 1_556 S
C149 O146 1.320 . S
C149 O147 1.214 . S
O150 Cd142 2.295 . S
O150 C145 1.209 . S
C151 O148 1.258 1_554 S
C151 O153 1.282 . S
O152 Cd144 2.277 . S
O152 C145 1.226 . S
O153 Cd144 2.356 . S
O153 C151 1.282 . S
C154 O155 1.306 . S
C154 O157 1.160 1_554 S
O155 C154 1.306 . S
O155 Cd156 2.228 . S
Cd156 O155 2.228 . S
Cd156 O160 2.273 . S
Cd156 O164 2.277 . S
O157 C154 1.160 1_556 S
O157 Cd158 2.203 1_556 S
Cd158 O157 2.203 1_554 S
Cd158 O160 2.411 . S
Cd158 O161 2.333 . S
Cd158 O162 2.352 1_554 S
Cd158 O166 2.277 . S
Cd158 O167 2.356 1_554 S
C159 O164 1.209 . S
C159 O166 1.226 . S
O160 Cd156 2.273 . S
O160 Cd158 2.411 . S
O160 C163 1.320 . S
O161 Cd158 2.333 . S
O161 C163 1.214 . S
O162 Cd158 2.352 1_556 S
O162 C165 1.258 . S
C163 O160 1.320 . S
C163 O161 1.214 . S
O164 Cd156 2.277 . S
O164 C159 1.209 . S
C165 O162 1.258 . S
C165 O167 1.282 . S
O166 Cd158 2.277 . S
O166 C159 1.226 . S
O167 Cd158 2.356 1_556 S
O167 C165 1.282 . S
H168 C186 0.951 . S
H169 C188 0.951 . S
H170 C190 0.950 . S
H171 C191 0.950 . S
H172 C193 0.950 . S
H173 C196 0.950 . S
H174 C197 0.950 . S
H175 C199 0.950 . S
H176 C200 0.950 . S
H177 C201 0.951 . S
H178 C203 0.951 . S
H179 C205 0.950 . S
H180 C206 0.950 . S
H181 C208 0.950 . S
H182 C211 0.950 . S
H183 C212 0.950 . S
H184 C214 0.950 . S
H185 C215 0.950 . S
C186 H168 0.951 . S
C186 C187 1.366 1_455 S
C186 C188 1.388 . S
C187 C186 1.366 1_655 S
C187 C191 1.385 . S
C188 H169 0.951 . S
C188 C186 1.388 . S
C188 C189 1.390 . S
C189 C188 1.390 . S
C189 C190 1.388 1_455 S
C189 C192 1.501 . S
C190 H170 0.950 . S
C190 C189 1.388 1_655 S
C190 C191 1.374 . S
C191 H171 0.950 . S
C191 C187 1.385 . S
C191 C190 1.374 . S
C192 C189 1.501 . S
C192 C193 1.373 1_455 S
C192 C194 1.389 . S
C193 H172 0.950 . S
C193 C192 1.373 1_655 S
C193 C209 1.377 1_655 S
C194 C192 1.389 . S
C194 C195 1.524 . S
C194 C208 1.377 . S
C195 C194 1.524 . S
C195 C196 1.397 1_455 S
C195 C200 1.363 . S
C196 H173 0.950 . S
C196 C195 1.397 1_655 S
C196 C197 1.334 . S
C197 H174 0.950 . S
C197 C196 1.334 . S
C197 C198 1.287 1_655 S
C198 C197 1.287 1_455 S
C198 C199 1.524 . S
C198 H217 0.913 . S
C199 H175 0.950 . S
C199 C198 1.524 . S
C199 C200 1.415 . S
C200 H176 0.950 . S
C200 C195 1.363 . S
C200 C199 1.415 . S
C201 H177 0.951 . S
C201 C202 1.366 1_655 S
C201 C203 1.388 . S
C202 C201 1.366 1_455 S
C202 C206 1.385 . S
C203 H178 0.951 . S
C203 C201 1.388 . S
C203 C204 1.366 1_655 S
C204 C203 1.366 1_455 S
C204 C205 1.414 . S
C204 C207 1.499 . S
C205 H179 0.950 . S
C205 C204 1.414 . S
C205 C206 1.374 . S
C206 H180 0.950 . S
C206 C202 1.385 . S
C206 C205 1.374 . S
C207 C204 1.499 . S
C207 C208 1.373 . S
C207 C209 1.389 . S
C208 H181 0.950 . S
C208 C194 1.377 . S
C208 C207 1.373 . S
C209 C193 1.377 1_455 S
C209 C207 1.389 . S
C209 C210 1.524 1_455 S
C210 C209 1.524 1_655 S
C210 C211 1.397 1_655 S
C210 C215 1.363 . S
C211 H182 0.950 . S
C211 C210 1.397 1_455 S
C211 C212 1.334 . S
C212 H183 0.950 . S
C212 C211 1.334 . S
C212 C213 1.287 1_455 S
C213 C212 1.287 1_655 S
C213 C214 1.524 . S
C213 H216 0.999 . S
C214 H184 0.950 . S
C214 C213 1.524 . S
C214 C215 1.415 . S
C215 H185 0.950 . S
C215 C210 1.363 . S
C215 C214 1.415 . S
H216 C213 0.999 . S
H217 C198 0.913 . S
H218 C236 0.951 . S
H219 C238 0.951 . S
H220 C240 0.950 . S
H221 C241 0.950 . S
H222 C243 0.950 . S
H223 C246 0.950 . S
H224 C247 0.950 . S
H225 C249 0.950 . S
H226 C250 0.950 . S
H227 C251 0.951 1_565 S
H228 C253 0.951 1_565 S
H229 C255 0.950 . S
H230 C256 0.950 . S
H231 C258 0.950 . S
H232 C261 0.950 . S
H233 C262 0.950 . S
H234 C264 0.950 . S
H235 C265 0.950 . S
C236 H218 0.951 . S
C236 C237 1.366 . S
C236 C238 1.388 . S
C237 C236 1.366 . S
C237 C241 1.385 1_545 S
C238 H219 0.951 . S
C238 C236 1.388 . S
C238 C239 1.366 . S
C239 C238 1.366 . S
C239 C240 1.414 1_545 S
C239 C242 1.499 . S
C240 H220 0.950 . S
C240 C239 1.414 1_565 S
C240 C241 1.374 . S
C241 H221 0.950 . S
C241 C237 1.385 1_565 S
C241 C240 1.374 . S
C242 C239 1.499 . S
C242 C243 1.373 1_545 S
C242 C244 1.389 . S
C243 H222 0.950 . S
C243 C242 1.373 1_565 S
C243 C259 1.377 . S
C244 C242 1.389 . S
C244 C245 1.524 . S
C244 C258 1.377 . S
C245 C244 1.524 . S
C245 C246 1.397 . S
C245 C250 1.363 . S
C246 H223 0.950 . S
C246 C245 1.397 . S
C246 C247 1.334 . S
C247 H224 0.950 . S
C247 C246 1.334 . S
C247 C248 1.287 . S
C248 C247 1.287 . S
C248 C249 1.524 . S
C248 H267 0.913 . S
C249 H225 0.950 . S
C249 C248 1.524 . S
C249 C250 1.415 . S
C250 H226 0.950 . S
C250 C245 1.363 . S
C250 C249 1.415 . S
C251 H227 0.951 1_545 S
C251 C252 1.366 . S
C251 C253 1.388 . S
C252 C251 1.366 . S
C252 C256 1.385 . S
C253 H228 0.951 1_545 S
C253 C251 1.388 . S
C253 C254 1.366 . S
C254 C253 1.366 . S
C254 C255 1.414 . S
C254 C257 1.499 . S
C255 H229 0.950 . S
C255 C254 1.414 . S
C255 C256 1.374 . S
C256 H230 0.950 . S
C256 C252 1.385 . S
C256 C255 1.374 . S
C257 C254 1.499 . S
C257 C258 1.373 . S
C257 C259 1.389 1_545 S
C258 H231 0.950 . S
C258 C244 1.377 . S
C258 C257 1.373 . S
C259 C243 1.377 . S
C259 C257 1.389 1_565 S
C259 C260 1.524 . S
C260 C259 1.524 . S
C260 C261 1.397 . S
C260 C265 1.363 . S
C261 H232 0.950 . S
C261 C260 1.397 . S
C261 C262 1.334 . S
C262 H233 0.950 . S
C262 C261 1.334 . S
C262 C263 1.287 . S
C263 C262 1.287 . S
C263 C264 1.524 . S
C263 H266 0.999 . S
C264 H234 0.950 . S
C264 C263 1.524 . S
C264 C265 1.415 . S
C265 H235 0.950 . S
C265 C260 1.363 . S
C265 C264 1.415 . S
H266 C263 0.999 . S
H267 C248 0.913 . S
H268 C286 0.951 . S
H269 C288 0.951 . S
H270 C290 0.950 . S
H271 C291 0.950 . S
H272 C293 0.950 . S
H273 C296 0.950 1_455 S
H274 C297 0.950 . S
H275 C299 0.950 . S
H276 C300 0.950 . S
H277 C301 0.951 . S
H278 C303 0.951 . S
H279 C305 0.950 . S
H280 C306 0.931 1_655 S
H281 C308 0.950 . S
H282 C311 0.950 . S
H283 C312 0.950 . S
H284 C314 0.950 . S
H285 C315 0.950 . S
C286 H268 0.951 . S
C286 C287 1.366 1_655 S
C286 C288 1.388 . S
C287 C286 1.366 1_455 S
C287 C291 1.385 . S
C288 H269 0.951 . S
C288 C286 1.388 . S
C288 C289 1.366 1_655 S
C289 C288 1.366 1_455 S
C289 C290 1.414 . S
C289 C292 1.499 . S
C290 H270 0.950 . S
C290 C289 1.414 . S
C290 C291 1.374 . S
C291 H271 0.950 . S
C291 C287 1.385 . S
C291 C290 1.374 . S
C292 C289 1.499 . S
C292 C293 1.373 . S
C292 C294 1.389 1_455 S
C293 H272 0.950 . S
C293 C292 1.373 . S
C293 C309 1.377 . S
C294 C292 1.389 1_655 S
C294 C295 1.524 . S
C294 C308 1.377 . S
C295 C294 1.524 . S
C295 C296 1.397 . S
C295 C300 1.363 . S
C296 H273 0.950 1_655 S
C296 C295 1.397 . S
C296 C297 1.334 . S
C297 H274 0.950 . S
C297 C296 1.334 . S
C297 C298 1.287 . S
C298 C297 1.287 . S
C298 C299 1.524 . S
C298 H317 0.913 . S
C299 H275 0.950 . S
C299 C298 1.524 . S
C299 C300 1.415 . S
C300 H276 0.950 . S
C300 C295 1.363 . S
C300 C299 1.415 . S
C301 H277 0.951 . S
C301 C302 1.366 . S
C301 C303 1.388 . S
C302 C301 1.366 . S
C302 C306 1.406 . S
C303 H278 0.951 . S
C303 C301 1.388 . S
C303 C304 1.366 . S
C304 C303 1.366 . S
C304 C305 1.414 1_455 S
C304 C307 1.499 . S
C305 H279 0.950 . S
C305 C304 1.414 1_655 S
C305 C306 1.372 1_655 S
C306 H280 0.931 1_455 S
C306 C302 1.406 . S
C306 C305 1.372 1_455 S
C307 C304 1.499 . S
C307 C308 1.373 1_455 S
C307 C309 1.389 . S
C308 H281 0.950 . S
C308 C294 1.377 . S
C308 C307 1.373 1_655 S
C309 C293 1.377 . S
C309 C307 1.389 . S
C309 C310 1.524 . S
C310 C309 1.524 . S
C310 C311 1.397 . S
C310 C315 1.363 . S
C311 H282 0.950 . S
C311 C310 1.397 . S
C311 C312 1.334 . S
C312 H283 0.950 . S
C312 C311 1.334 . S
C312 C313 1.287 . S
C313 C312 1.287 . S
C313 C314 1.524 . S
C313 H316 0.999 . S
C314 H284 0.950 . S
C314 C313 1.524 . S
C314 C315 1.415 . S
C315 H285 0.950 . S
C315 C310 1.363 . S
C315 C314 1.415 . S
H316 C313 0.999 . S
H317 C298 0.913 . S
H318 C336 0.951 . S
H319 C338 0.936 1_565 S
H320 C340 0.950 . S
H321 C341 0.950 . S
H322 C343 0.950 . S
H323 C346 0.950 . S
H324 C347 0.950 . S
H325 C349 0.950 . S
H326 C350 0.950 . S
H327 C351 0.951 . S
H328 C353 0.951 . S
H329 C355 0.950 . S
H330 C356 0.950 . S
H331 C358 0.950 . S
H332 C361 0.950 . S
H333 C362 0.950 . S
H334 C364 0.950 . S
H335 C365 0.950 . S
C336 H318 0.951 . S
C336 C337 1.366 . S
C336 C338 1.388 . S
C337 C336 1.366 . S
C337 C341 1.385 . S
C338 H319 0.936 1_545 S
C338 C336 1.388 . S
C338 C339 1.366 . S
C339 C338 1.366 . S
C339 C340 1.414 . S
C339 C342 1.499 . S
C340 H320 0.950 . S
C340 C339 1.414 . S
C340 C341 1.374 . S
C341 H321 0.950 . S
C341 C337 1.385 . S
C341 C340 1.374 . S
C342 C339 1.499 . S
C342 C343 1.373 . S
C342 C344 1.389 . S
C343 H322 0.950 . S
C343 C342 1.373 . S
C343 C359 1.377 . S
C344 C342 1.389 . S
C344 C345 1.524 . S
C344 C358 1.377 . S
C345 C344 1.524 . S
C345 C346 1.397 . S
C345 C350 1.363 . S
C346 H323 0.950 . S
C346 C345 1.397 . S
C346 C347 1.334 . S
C347 H324 0.950 . S
C347 C346 1.334 . S
C347 C348 1.287 . S
C348 C347 1.287 . S
C348 C349 1.524 . S
C348 H367 0.913 . S
C349 H325 0.950 . S
C349 C348 1.524 . S
C349 C350 1.415 . S
C350 H326 0.950 . S
C350 C345 1.363 . S
C350 C349 1.415 . S
C351 H327 0.951 . S
C351 C352 1.366 . S
C351 C353 1.388 . S
C352 C351 1.366 . S
C352 C356 1.385 1_545 S
C353 H328 0.951 . S
C353 C351 1.388 . S
C353 C354 1.366 . S
C354 C353 1.366 . S
C354 C355 1.414 1_545 S
C354 C357 1.499 . S
C355 H329 0.950 . S
C355 C354 1.414 1_565 S
C355 C356 1.374 . S
C356 H330 0.950 . S
C356 C352 1.385 1_565 S
C356 C355 1.374 . S
C357 C354 1.499 . S
C357 C358 1.373 . S
C357 C359 1.389 . S
C358 H331 0.950 . S
C358 C344 1.377 . S
C358 C357 1.373 . S
C359 C343 1.377 . S
C359 C357 1.389 . S
C359 C360 1.523 1_545 S
C360 C359 1.523 1_565 S
C360 C361 1.403 . S
C360 C365 1.359 1_565 S
C361 H332 0.950 . S
C361 C360 1.403 . S
C361 C362 1.334 . S
C362 H333 0.950 . S
C362 C361 1.334 . S
C362 C363 1.287 . S
C363 C362 1.287 . S
C363 C364 1.524 1_565 S
C363 H366 0.999 . S
C364 H334 0.950 . S
C364 C363 1.524 1_545 S
C364 C365 1.415 . S
C365 H335 0.950 . S
C365 C360 1.359 1_545 S
C365 C364 1.415 . S
H366 C363 0.999 . S
H367 C348 0.913 . S
H368 C386 0.951 . S
H369 C388 0.951 . S
H370 C390 0.940 1_655 S
H371 C391 0.950 . S
H372 C393 0.950 . S
H373 C396 0.950 . S
H374 C397 0.950 . S
H375 C399 0.950 . S
H376 C400 0.950 . S
H377 C401 0.951 . S
H378 C403 0.951 . S
H379 C405 0.950 . S
H380 C406 0.950 . S
H381 C408 0.950 . S
H382 C411 0.950 . S
H383 C412 0.950 . S
H384 C414 0.950 . S
H385 C415 0.950 . S
C386 H368 0.951 . S
C386 C387 1.366 . S
C386 C388 1.388 . S
C387 C386 1.366 . S
C387 C391 1.385 . S
C388 H369 0.951 . S
C388 C386 1.388 . S
C388 C389 1.366 . S
C389 C388 1.366 . S
C389 C390 1.414 . S
C389 C392 1.499 . S
C390 H370 0.940 1_455 S
C390 C389 1.414 . S
C390 C391 1.374 . S
C391 H371 0.950 . S
C391 C387 1.385 . S
C391 C390 1.374 . S
C392 C389 1.499 . S
C392 C393 1.373 1_455 S
C392 C394 1.389 . S
C393 H372 0.950 . S
C393 C392 1.373 1_655 S
C393 C409 1.377 . S
C394 C392 1.389 . S
C394 C395 1.524 . S
C394 C408 1.377 . S
C395 C394 1.524 . S
C395 C396 1.397 . S
C395 C400 1.363 . S
C396 H373 0.950 . S
C396 C395 1.397 . S
C396 C397 1.334 . S
C397 H374 0.950 . S
C397 C396 1.334 . S
C397 C398 1.287 . S
C398 C397 1.287 . S
C398 C399 1.524 . S
C398 H417 0.913 . S
C399 H375 0.950 . S
C399 C398 1.524 . S
C399 C400 1.415 . S
C400 H376 0.950 . S
C400 C395 1.363 . S
C400 C399 1.415 . S
C401 H377 0.951 . S
C401 C402 1.366 1_655 S
C401 C403 1.388 . S
C402 C401 1.366 1_455 S
C402 C406 1.385 . S
C403 H378 0.951 . S
C403 C401 1.388 . S
C403 C404 1.366 1_655 S
C404 C403 1.366 1_455 S
C404 C405 1.414 . S
C404 C407 1.499 . S
C405 H379 0.950 . S
C405 C404 1.414 . S
C405 C406 1.374 . S
C406 H380 0.950 . S
C406 C402 1.385 . S
C406 C405 1.374 . S
C407 C404 1.499 . S
C407 C408 1.373 . S
C407 C409 1.389 1_455 S
C408 H381 0.950 . S
C408 C394 1.377 . S
C408 C407 1.373 . S
C409 C393 1.377 . S
C409 C407 1.389 1_655 S
C409 C410 1.524 . S
C410 C409 1.524 . S
C410 C411 1.397 . S
C410 C415 1.363 . S
C411 H382 0.950 . S
C411 C410 1.397 . S
C411 C412 1.334 . S
C412 H383 0.950 . S
C412 C411 1.334 . S
C412 C413 1.287 . S
C413 C412 1.287 . S
C413 C414 1.524 . S
C413 H416 0.999 . S
C414 H384 0.950 . S
C414 C413 1.524 . S
C414 C415 1.415 . S
C415 H385 0.950 . S
C415 C410 1.363 . S
C415 C414 1.415 . S
H416 C413 0.999 . S
H417 C398 0.913 . S
H418 C436 0.951 . S
H419 C438 0.951 . S
H420 C440 0.950 . S
H421 C441 0.950 . S
H422 C443 0.950 . S
H423 C446 0.950 . S
H424 C447 0.950 . S
H425 C449 0.950 . S
H426 C450 0.950 . S
H427 C451 0.951 1_565 S
H428 C453 0.951 1_565 S
H429 C455 0.950 . S
H430 C456 0.950 . S
H431 C458 0.950 . S
H432 C461 0.950 . S
H433 C462 0.950 . S
H434 C464 0.950 . S
H435 C465 0.950 . S
C436 H418 0.951 . S
C436 C437 1.366 . S
C436 C438 1.388 . S
C437 C436 1.366 . S
C437 C441 1.385 . S
C438 H419 0.951 . S
C438 C436 1.388 . S
C438 C439 1.366 . S
C439 C438 1.366 . S
C439 C440 1.414 . S
C439 C442 1.499 . S
C440 H420 0.950 . S
C440 C439 1.414 . S
C440 C441 1.374 . S
C441 H421 0.950 . S
C441 C437 1.385 . S
C441 C440 1.374 . S
C442 C439 1.499 . S
C442 C443 1.373 . S
C442 C444 1.389 . S
C443 H422 0.950 . S
C443 C442 1.373 . S
C443 C459 1.377 . S
C444 C442 1.389 . S
C444 C445 1.524 1_545 S
C444 C458 1.377 . S
C445 C444 1.524 1_565 S
C445 C446 1.397 . S
C445 C450 1.363 1_565 S
C446 H423 0.950 . S
C446 C445 1.397 . S
C446 C447 1.334 . S
C447 H424 0.950 . S
C447 C446 1.334 . S
C447 C448 1.287 . S
C448 C447 1.287 . S
C448 C449 1.524 . S
C448 H467 0.913 . S
C449 H425 0.950 . S
C449 C448 1.524 . S
C449 C450 1.415 1_565 S
C450 H426 0.950 . S
C450 C445 1.363 1_545 S
C450 C449 1.415 1_545 S
C451 H427 0.951 1_545 S
C451 C452 1.366 . S
C451 C453 1.388 . S
C452 C451 1.366 . S
C452 C456 1.385 . S
C453 H428 0.951 1_545 S
C453 C451 1.388 . S
C453 C454 1.366 . S
C454 C453 1.366 . S
C454 C455 1.414 . S
C454 C457 1.499 . S
C455 H429 0.950 . S
C455 C454 1.414 . S
C455 C456 1.374 . S
C456 H430 0.950 . S
C456 C452 1.385 . S
C456 C455 1.374 . S
C457 C454 1.499 . S
C457 C458 1.373 . S
C457 C459 1.389 . S
C458 H431 0.950 . S
C458 C444 1.377 . S
C458 C457 1.373 . S
C459 C443 1.377 . S
C459 C457 1.389 . S
C459 C460 1.524 . S
C460 C459 1.524 . S
C460 C461 1.397 . S
C460 C465 1.363 . S
C461 H432 0.950 . S
C461 C460 1.397 . S
C461 C462 1.334 . S
C462 H433 0.950 . S
C462 C461 1.334 . S
C462 C463 1.287 . S
C463 C462 1.287 . S
C463 C464 1.524 . S
C463 H466 0.999 . S
C464 H434 0.950 . S
C464 C463 1.524 . S
C464 C465 1.415 . S
C465 H435 0.950 . S
C465 C460 1.363 . S
C465 C464 1.415 . S
H466 C463 0.999 . S
H467 C448 0.913 . S
H468 C486 0.951 . S
H469 C488 0.951 . S
H470 C490 0.950 . S
H471 C491 0.950 . S
H472 C493 0.950 . S
H473 C496 0.950 . S
H474 C497 0.950 . S
H475 C499 0.950 . S
H476 C500 0.950 . S
H477 C501 0.951 . S
H478 C503 0.951 . S
H479 C505 0.950 1_655 S
H480 C506 0.954 . S
H481 C508 0.950 . S
H482 C511 0.950 . S
H483 C512 0.950 . S
H484 C514 0.950 . S
H485 C515 0.950 . S
C486 H468 0.951 . S
C486 C487 1.366 . S
C486 C488 1.388 . S
C487 C486 1.366 . S
C487 C491 1.385 . S
C488 H469 0.951 . S
C488 C486 1.388 . S
C488 C489 1.366 . S
C489 C488 1.366 . S
C489 C490 1.414 . S
C489 C492 1.499 . S
C490 H470 0.950 . S
C490 C489 1.414 . S
C490 C491 1.374 . S
C491 H471 0.950 . S
C491 C487 1.385 . S
C491 C490 1.374 . S
C492 C489 1.499 . S
C492 C493 1.373 1_455 S
C492 C494 1.389 . S
C493 H472 0.950 . S
C493 C492 1.373 1_655 S
C493 C509 1.377 . S
C494 C492 1.389 . S
C494 C495 1.524 . S
C494 C508 1.377 . S
C495 C494 1.524 . S
C495 C496 1.397 . S
C495 C500 1.363 . S
C496 H473 0.950 . S
C496 C495 1.397 . S
C496 C497 1.334 . S
C497 H474 0.950 . S
C497 C496 1.334 . S
C497 C498 1.287 . S
C498 C497 1.287 . S
C498 C499 1.524 . S
C498 H517 0.913 . S
C499 H475 0.950 . S
C499 C498 1.524 . S
C499 C500 1.415 . S
C500 H476 0.950 . S
C500 C495 1.363 . S
C500 C499 1.415 . S
C501 H477 0.951 . S
C501 C502 1.371 . S
C501 C503 1.388 . S
C502 C501 1.371 . S
C502 C506 1.382 1_455 S
C503 H478 0.951 . S
C503 C501 1.388 . S
C503 C504 1.366 . S
C504 C503 1.366 . S
C504 C505 1.417 . S
C504 C507 1.499 . S
C505 H479 0.950 1_455 S
C505 C504 1.417 . S
C505 C506 1.372 1_455 S
C506 H480 0.954 . S
C506 C502 1.382 1_655 S
C506 C505 1.372 1_655 S
C507 C504 1.499 . S
C507 C508 1.373 . S
C507 C509 1.389 1_455 S
C508 H481 0.950 . S
C508 C494 1.377 . S
C508 C507 1.373 . S
C509 C493 1.377 . S
C509 C507 1.389 1_655 S
C509 C510 1.524 . S
C510 C509 1.524 . S
C510 C511 1.397 . S
C510 C515 1.363 . S
C511 H482 0.950 . S
C511 C510 1.397 . S
C511 C512 1.334 . S
C512 H483 0.950 . S
C512 C511 1.334 . S
C512 C513 1.287 . S
C513 C512 1.287 . S
C513 C514 1.524 . S
C513 H516 0.999 . S
C514 H484 0.950 . S
C514 C513 1.524 . S
C514 C515 1.415 . S
C515 H485 0.950 . S
C515 C510 1.363 . S
C515 C514 1.415 . S
H516 C513 0.999 . S
H517 C498 0.913 . S
H518 C536 0.951 1_565 S
H519 C538 0.939 1_565 S
H520 C540 0.950 . S
H521 C541 0.950 . S
H522 C543 0.950 1_565 S
H523 C546 0.950 . S
H524 C547 0.950 . S
H525 C549 0.950 . S
H526 C550 0.950 . S
H527 C551 0.951 . S
H528 C553 0.951 . S
H529 C555 0.950 . S
H530 C556 0.950 . S
H531 C558 0.950 . S
H532 C561 0.950 . S
H533 C562 0.950 . S
H534 C564 0.950 . S
H535 C565 0.950 1_545 S
C536 H518 0.951 1_545 S
C536 C537 1.366 . S
C536 C538 1.388 . S
C537 C536 1.366 . S
C537 C541 1.385 . S
C538 H519 0.939 1_545 S
C538 C536 1.388 . S
C538 C539 1.366 . S
C539 C538 1.366 . S
C539 C540 1.414 . S
C539 C542 1.499 . S
C540 H520 0.950 . S
C540 C539 1.414 . S
C540 C541 1.374 . S
C541 H521 0.950 . S
C541 C537 1.385 . S
C541 C540 1.374 . S
C542 C539 1.499 . S
C542 C543 1.373 . S
C542 C544 1.389 . S
C543 H522 0.950 1_545 S
C543 C542 1.373 . S
C543 C559 1.377 . S
C544 C542 1.389 . S
C544 C545 1.524 . S
C544 C558 1.377 . S
C545 C544 1.524 . S
C545 C546 1.397 . S
C545 C550 1.363 . S
C546 H523 0.950 . S
C546 C545 1.397 . S
C546 C547 1.334 . S
C547 H524 0.950 . S
C547 C546 1.334 . S
C547 C548 1.287 . S
C548 C547 1.287 . S
C548 C549 1.524 . S
C548 H567 0.913 . S
C549 H525 0.950 . S
C549 C548 1.524 . S
C549 C550 1.415 . S
C550 H526 0.950 . S
C550 C545 1.363 . S
C550 C549 1.415 . S
C551 H527 0.951 . S
C551 C552 1.366 . S
C551 C553 1.388 . S
C552 C551 1.366 . S
C552 C556 1.385 . S
C553 H528 0.951 . S
C553 C551 1.388 . S
C553 C554 1.366 . S
C554 C553 1.366 . S
C554 C555 1.414 . S
C554 C557 1.499 . S
C555 H529 0.950 . S
C555 C554 1.414 . S
C555 C556 1.374 . S
C556 H530 0.950 . S
C556 C552 1.385 . S
C556 C555 1.374 . S
C557 C554 1.499 . S
C557 C558 1.373 . S
C557 C559 1.389 . S
C558 H531 0.950 . S
C558 C544 1.377 . S
C558 C557 1.373 . S
C559 C543 1.377 . S
C559 C557 1.389 . S
C559 C560 1.524 1_545 S
C560 C559 1.524 1_565 S
C560 C561 1.397 . S
C560 C565 1.363 . S
C561 H532 0.950 . S
C561 C560 1.397 . S
C561 C562 1.334 . S
C562 H533 0.950 . S
C562 C561 1.334 . S
C562 C563 1.287 . S
C563 C562 1.287 . S
C563 C564 1.524 . S
C563 H566 0.999 . S
C564 H534 0.950 . S
C564 C563 1.524 . S
C564 C565 1.415 . S
C565 H535 0.950 1_565 S
C565 C560 1.363 . S
C565 C564 1.415 . S
H566 C563 0.999 . S
H567 C548 0.913 . S
H568 C586 0.951 . S
H569 C588 0.951 . S
H570 C590 0.950 . S
H571 C591 0.950 . S
H572 C593 0.949 1_556 S
H573 C596 0.950 . S
H574 C597 0.950 . S
H575 C599 0.950 . S
H576 C600 0.950 . S
H577 C601 0.951 . S
H578 C603 0.951 . S
H579 C605 0.950 . S
H580 C606 0.950 . S
H581 C608 0.950 . S
H582 C611 0.950 . S
H583 C612 0.950 . S
H584 C614 0.950 . S
H585 C615 0.950 . S
C586 H568 0.951 . S
C586 C587 1.366 . S
C586 C588 1.388 . S
C587 C586 1.366 . S
C587 C591 1.385 . S
C588 H569 0.951 . S
C588 C586 1.388 . S
C588 C589 1.366 . S
C589 C588 1.366 . S
C589 C590 1.414 . S
C589 C592 1.499 . S
C590 H570 0.950 . S
C590 C589 1.414 . S
C590 C591 1.374 . S
C591 H571 0.950 . S
C591 C587 1.385 . S
C591 C590 1.374 . S
C592 C589 1.499 . S
C592 C593 1.375 . S
C592 C594 1.389 . S
C593 H572 0.949 1_554 S
C593 C592 1.375 . S
C593 C609 1.376 1_554 S
C594 C592 1.389 . S
C594 C595 1.524 . S
C594 C608 1.377 . S
C595 C594 1.524 . S
C595 C596 1.397 . S
C595 C600 1.363 . S
C596 H573 0.950 . S
C596 C595 1.397 . S
C596 C597 1.334 . S
C597 H574 0.950 . S
C597 C596 1.334 . S
C597 C598 1.287 . S
C598 C597 1.287 . S
C598 C599 1.524 . S
C598 H617 0.913 . S
C599 H575 0.950 . S
C599 C598 1.524 . S
C599 C600 1.415 . S
C600 H576 0.950 . S
C600 C595 1.363 . S
C600 C599 1.415 . S
C601 H577 0.951 . S
C601 C602 1.366 . S
C601 C603 1.388 . S
C602 C601 1.366 . S
C602 C606 1.385 1_554 S
C603 H578 0.951 . S
C603 C601 1.388 . S
C603 C604 1.366 . S
C604 C603 1.366 . S
C604 C605 1.414 1_554 S
C604 C607 1.499 . S
C605 H579 0.950 . S
C605 C604 1.414 1_556 S
C605 C606 1.374 . S
C606 H580 0.950 . S
C606 C602 1.385 1_556 S
C606 C605 1.374 . S
C607 C604 1.499 . S
C607 C608 1.373 . S
C607 C609 1.389 1_554 S
C608 H581 0.950 . S
C608 C594 1.377 . S
C608 C607 1.373 . S
C609 C593 1.376 1_556 S
C609 C607 1.389 1_556 S
C609 C610 1.524 . S
C610 C609 1.524 . S
C610 C611 1.397 . S
C610 C615 1.363 . S
C611 H582 0.950 . S
C611 C610 1.397 . S
C611 C612 1.334 . S
C612 H583 0.950 . S
C612 C611 1.334 . S
C612 C613 1.287 . S
C613 C612 1.287 . S
C613 C614 1.524 . S
C613 H616 0.999 . S
C614 H584 0.950 . S
C614 C613 1.524 . S
C614 C615 1.415 . S
C615 H585 0.950 . S
C615 C610 1.363 . S
C615 C614 1.415 . S
H616 C613 0.999 . S
H617 C598 0.913 . S
H618 C636 0.951 1_556 S
H619 C638 0.951 1_556 S
H620 C640 0.950 . S
H621 C641 0.950 . S
H622 C643 0.950 . S
H623 C646 0.950 . S
H624 C647 0.950 . S
H625 C649 0.950 . S
H626 C650 0.950 . S
H627 C651 0.951 . S
H628 C653 0.951 . S
H629 C655 0.950 . S
H630 C656 0.950 . S
H631 C658 0.950 . S
H632 C661 0.950 . S
H633 C662 0.950 . S
H634 C664 0.950 . S
H635 C665 0.950 . S
C636 H618 0.951 1_554 S
C636 C637 1.366 . S
C636 C638 1.388 . S
C637 C636 1.366 . S
C637 C641 1.385 . S
C638 H619 0.951 1_554 S
C638 C636 1.388 . S
C638 C639 1.366 . S
C639 C638 1.366 . S
C639 C640 1.414 . S
C639 C642 1.499 . S
C640 H620 0.950 . S
C640 C639 1.414 . S
C640 C641 1.374 . S
C641 H621 0.950 . S
C641 C637 1.385 . S
C641 C640 1.374 . S
C642 C639 1.499 . S
C642 C643 1.373 . S
C642 C644 1.389 1_554 S
C643 H622 0.950 . S
C643 C642 1.373 . S
C643 C659 1.377 . S
C644 C642 1.389 1_556 S
C644 C645 1.524 . S
C644 C658 1.377 . S
C645 C644 1.524 . S
C645 C646 1.397 . S
C645 C650 1.363 . S
C646 H623 0.950 . S
C646 C645 1.397 . S
C646 C647 1.334 . S
C647 H624 0.950 . S
C647 C646 1.334 . S
C647 C648 1.287 . S
C648 C647 1.287 . S
C648 C649 1.524 . S
C648 H667 0.913 . S
C649 H625 0.950 . S
C649 C648 1.524 . S
C649 C650 1.415 . S
C650 H626 0.950 . S
C650 C645 1.363 . S
C650 C649 1.415 . S
C651 H627 0.951 . S
C651 C652 1.366 . S
C651 C653 1.388 . S
C652 C651 1.366 . S
C652 C656 1.385 1_554 S
C653 H628 0.951 . S
C653 C651 1.388 . S
C653 C654 1.366 . S
C654 C653 1.366 . S
C654 C655 1.414 1_554 S
C654 C657 1.499 . S
C655 H629 0.950 . S
C655 C654 1.414 1_556 S
C655 C656 1.374 . S
C656 H630 0.950 . S
C656 C652 1.385 1_556 S
C656 C655 1.374 . S
C657 C654 1.499 . S
C657 C658 1.373 1_554 S
C657 C659 1.389 . S
C658 H631 0.950 . S
C658 C644 1.377 . S
C658 C657 1.373 1_556 S
C659 C643 1.377 . S
C659 C657 1.389 . S
C659 C660 1.524 . S
C660 C659 1.524 . S
C660 C661 1.397 . S
C660 C665 1.363 . S
C661 H632 0.950 . S
C661 C660 1.397 . S
C661 C662 1.334 . S
C662 H633 0.950 . S
C662 C661 1.334 . S
C662 C663 1.287 . S
C663 C662 1.287 . S
C663 C664 1.524 . S
C663 H666 0.999 . S
C664 H634 0.950 . S
C664 C663 1.524 . S
C664 C665 1.415 . S
C665 H635 0.950 . S
C665 C660 1.363 . S
C665 C664 1.415 . S
H666 C663 0.999 . S
H667 C648 0.913 . S
H668 C686 0.955 . S
H669 C688 0.951 . S
H670 C690 0.950 . S
H671 C691 0.950 . S
H672 C693 0.950 . S
H673 C696 0.950 . S
H674 C697 0.950 . S
H675 C699 0.950 . S
H676 C700 0.950 . S
H677 C701 0.951 . S
H678 C703 0.951 . S
H679 C705 0.950 . S
H680 C706 0.950 . S
H681 C708 0.950 . S
H682 C711 0.950 . S
H683 C712 0.950 . S
H684 C714 0.950 . S
H685 C715 0.950 . S
C686 H668 0.955 . S
C686 C687 1.366 . S
C686 C688 1.388 . S
C687 C686 1.366 . S
C687 C691 1.385 . S
C688 H669 0.951 . S
C688 C686 1.388 . S
C688 C689 1.366 . S
C689 C688 1.366 . S
C689 C690 1.414 . S
C689 C692 1.499 . S
C690 H670 0.950 . S
C690 C689 1.414 . S
C690 C691 1.374 . S
C691 H671 0.950 . S
C691 C687 1.385 . S
C691 C690 1.374 . S
C692 C689 1.499 . S
C692 C693 1.373 . S
C692 C694 1.389 1_554 S
C693 H672 0.950 . S
C693 C692 1.373 . S
C693 C709 1.377 . S
C694 C692 1.389 1_556 S
C694 C695 1.524 . S
C694 C708 1.377 . S
C695 C694 1.524 . S
C695 C696 1.397 . S
C695 C700 1.363 . S
C696 H673 0.950 . S
C696 C695 1.397 . S
C696 C697 1.334 . S
C697 H674 0.950 . S
C697 C696 1.334 . S
C697 C698 1.287 . S
C698 C697 1.287 . S
C698 C699 1.524 . S
C698 H717 0.913 . S
C699 H675 0.950 . S
C699 C698 1.524 . S
C699 C700 1.415 . S
C700 H676 0.950 . S
C700 C695 1.363 . S
C700 C699 1.415 . S
C701 H677 0.951 . S
C701 C702 1.366 . S
C701 C703 1.388 . S
C702 C701 1.366 . S
C702 C706 1.385 . S
C703 H678 0.951 . S
C703 C701 1.388 . S
C703 C704 1.366 . S
C704 C703 1.366 . S
C704 C705 1.414 . S
C704 C707 1.499 . S
C705 H679 0.950 . S
C705 C704 1.414 . S
C705 C706 1.374 . S
C706 H680 0.950 . S
C706 C702 1.385 . S
C706 C705 1.374 . S
C707 C704 1.499 . S
C707 C708 1.373 1_554 S
C707 C709 1.389 . S
C708 H681 0.950 . S
C708 C694 1.377 . S
C708 C707 1.373 1_556 S
C709 C693 1.377 . S
C709 C707 1.389 . S
C709 C710 1.524 . S
C710 C709 1.524 . S
C710 C711 1.397 . S
C710 C715 1.363 . S
C711 H682 0.950 . S
C711 C710 1.397 . S
C711 C712 1.334 . S
C712 H683 0.950 . S
C712 C711 1.334 . S
C712 C713 1.287 . S
C713 C712 1.287 . S
C713 C714 1.524 . S
C713 H716 0.999 . S
C714 H684 0.950 . S
C714 C713 1.524 . S
C714 C715 1.415 . S
C715 H685 0.950 . S
C715 C710 1.363 . S
C715 C714 1.415 . S
H716 C713 0.999 . S
H717 C698 0.913 . S
H718 C736 0.951 . S
H719 C738 0.951 . S
H720 C740 0.950 . S
H721 C741 0.950 . S
H722 C743 0.950 . S
H723 C746 0.950 . S
H724 C747 0.950 . S
H725 C749 0.950 . S
H726 C750 0.950 . S
H727 C751 0.951 . S
H728 C753 0.951 . S
H729 C755 0.950 . S
H730 C756 0.927 1_556 S
H731 C758 0.950 1_556 S
H732 C761 0.950 . S
H733 C762 0.950 . S
H734 C764 0.950 . S
H735 C765 0.950 . S
C736 H718 0.951 . S
C736 C737 1.366 1_556 S
C736 C738 1.388 . S
C737 C736 1.366 1_554 S
C737 C741 1.385 . S
C738 H719 0.951 . S
C738 C736 1.388 . S
C738 C739 1.366 1_556 S
C739 C738 1.366 1_554 S
C739 C740 1.414 . S
C739 C742 1.499 . S
C740 H720 0.950 . S
C740 C739 1.414 . S
C740 C741 1.374 . S
C741 H721 0.950 . S
C741 C737 1.385 . S
C741 C740 1.374 . S
C742 C739 1.499 . S
C742 C743 1.373 . S
C742 C744 1.389 . S
C743 H722 0.950 . S
C743 C742 1.373 . S
C743 C759 1.377 . S
C744 C742 1.389 . S
C744 C745 1.524 1_554 S
C744 C758 1.377 . S
C745 C744 1.524 1_556 S
C745 C746 1.397 1_556 S
C745 C750 1.363 . S
C746 H723 0.950 . S
C746 C745 1.397 1_554 S
C746 C747 1.334 . S
C747 H724 0.950 . S
C747 C746 1.334 . S
C747 C748 1.287 1_554 S
C748 C747 1.287 1_556 S
C748 C749 1.524 . S
C748 H767 0.913 . S
C749 H725 0.950 . S
C749 C748 1.524 . S
C749 C750 1.415 . S
C750 H726 0.950 . S
C750 C745 1.363 . S
C750 C749 1.415 . S
C751 H727 0.951 . S
C751 C752 1.366 . S
C751 C753 1.388 . S
C752 C751 1.366 . S
C752 C756 1.410 . S
C753 H728 0.951 . S
C753 C751 1.388 . S
C753 C754 1.366 . S
C754 C753 1.366 . S
C754 C755 1.414 1_554 S
C754 C757 1.499 . S
C755 H729 0.950 . S
C755 C754 1.414 1_556 S
C755 C756 1.372 1_556 S
C756 H730 0.927 1_554 S
C756 C752 1.410 . S
C756 C755 1.372 1_554 S
C757 C754 1.499 . S
C757 C758 1.373 . S
C757 C759 1.389 . S
C758 H731 0.950 1_554 S
C758 C744 1.377 . S
C758 C757 1.373 . S
C759 C743 1.377 . S
C759 C757 1.389 . S
C759 C760 1.524 . S
C760 C759 1.524 . S
C760 C761 1.397 . S
C760 C765 1.363 . S
C761 H732 0.950 . S
C761 C760 1.397 . S
C761 C762 1.334 . S
C762 H733 0.950 . S
C762 C761 1.334 . S
C762 C763 1.287 . S
C763 C762 1.287 . S
C763 C764 1.524 . S
C763 H766 0.999 . S
C764 H734 0.950 . S
C764 C763 1.524 . S
C764 C765 1.415 . S
C765 H735 0.950 . S
C765 C760 1.363 . S
C765 C764 1.415 . S
H766 C763 0.999 . S
H767 C748 0.913 . S
H768 C786 0.951 . S
H769 C788 0.951 . S
H770 C790 0.950 . S
H771 C791 0.950 . S
H772 C793 0.950 . S
H773 C796 0.950 . S
H774 C797 0.950 . S
H775 C799 0.950 . S
H776 C800 0.950 . S
H777 C801 0.951 . S
H778 C803 0.951 . S
H779 C805 0.950 . S
H780 C806 0.950 . S
H781 C808 0.950 . S
H782 C811 0.950 . S
H783 C812 0.950 . S
H784 C814 0.950 . S
H785 C815 0.950 . S
C786 H768 0.951 . S
C786 C787 1.366 . S
C786 C788 1.388 . S
C787 C786 1.366 . S
C787 C791 1.385 . S
C788 H769 0.951 . S
C788 C786 1.388 . S
C788 C789 1.366 . S
C789 C788 1.366 . S
C789 C790 1.414 . S
C789 C792 1.499 . S
C790 H770 0.950 . S
C790 C789 1.414 . S
C790 C791 1.374 . S
C791 H771 0.950 . S
C791 C787 1.385 . S
C791 C790 1.374 . S
C792 C789 1.499 . S
C792 C793 1.373 . S
C792 C794 1.389 . S
C793 H772 0.950 . S
C793 C792 1.373 . S
C793 C809 1.377 . S
C794 C792 1.389 . S
C794 C795 1.524 . S
C794 C808 1.377 . S
C795 C794 1.524 . S
C795 C796 1.397 . S
C795 C800 1.363 . S
C796 H773 0.950 . S
C796 C795 1.397 . S
C796 C797 1.334 . S
C797 H774 0.950 . S
C797 C796 1.334 . S
C797 C798 1.287 . S
C798 C797 1.287 . S
C798 C799 1.524 . S
C798 H817 0.913 . S
C799 H775 0.950 . S
C799 C798 1.524 . S
C799 C800 1.415 . S
C800 H776 0.950 . S
C800 C795 1.363 . S
C800 C799 1.415 . S
C801 H777 0.951 . S
C801 C802 1.366 . S
C801 C803 1.388 . S
C802 C801 1.366 . S
C802 C806 1.385 . S
C803 H778 0.951 . S
C803 C801 1.388 . S
C803 C804 1.366 . S
C804 C803 1.366 . S
C804 C805 1.414 . S
C804 C807 1.499 . S
C805 H779 0.950 . S
C805 C804 1.414 . S
C805 C806 1.374 . S
C806 H780 0.950 . S
C806 C802 1.385 . S
C806 C805 1.374 . S
C807 C804 1.499 . S
C807 C808 1.373 . S
C807 C809 1.389 . S
C808 H781 0.950 . S
C808 C794 1.377 . S
C808 C807 1.373 . S
C809 C793 1.377 . S
C809 C807 1.389 . S
C809 C810 1.524 . S
C810 C809 1.524 . S
C810 C811 1.397 . S
C810 C815 1.363 . S
C811 H782 0.950 . S
C811 C810 1.397 . S
C811 C812 1.334 . S
C812 H783 0.950 . S
C812 C811 1.334 . S
C812 C813 1.287 . S
C813 C812 1.287 . S
C813 C814 1.524 . S
C813 H816 0.999 . S
C814 H784 0.950 . S
C814 C813 1.524 . S
C814 C815 1.415 . S
C815 H785 0.950 . S
C815 C810 1.363 . S
C815 C814 1.415 . S
H816 C813 0.999 . S
H817 C798 0.913 . S
H818 C836 0.951 . S
H819 C838 0.951 . S
H820 C840 0.950 . S
H821 C841 0.950 . S
H822 C843 0.950 . S
H823 C846 0.950 . S
H824 C847 0.950 . S
H825 C849 0.950 . S
H826 C850 0.950 . S
H827 C851 0.951 . S
H828 C853 0.951 . S
H829 C855 0.950 . S
H830 C856 0.950 . S
H831 C858 0.950 . S
H832 C861 0.950 . S
H833 C862 0.950 . S
H834 C864 0.950 . S
H835 C865 0.950 . S
C836 H818 0.951 . S
C836 C837 1.366 . S
C836 C838 1.388 . S
C837 C836 1.366 . S
C837 C841 1.385 . S
C838 H819 0.951 . S
C838 C836 1.388 . S
C838 C839 1.366 . S
C839 C838 1.366 . S
C839 C840 1.414 . S
C839 C842 1.499 . S
C840 H820 0.950 . S
C840 C839 1.414 . S
C840 C841 1.374 . S
C841 H821 0.950 . S
C841 C837 1.385 . S
C841 C840 1.374 . S
C842 C839 1.499 . S
C842 C843 1.373 . S
C842 C844 1.389 . S
C843 H822 0.950 . S
C843 C842 1.373 . S
C843 C859 1.377 . S
C844 C842 1.389 . S
C844 C845 1.524 . S
C844 C858 1.377 . S
C845 C844 1.524 . S
C845 C846 1.397 . S
C845 C850 1.363 . S
C846 H823 0.950 . S
C846 C845 1.397 . S
C846 C847 1.334 . S
C847 H824 0.950 . S
C847 C846 1.334 . S
C847 C848 1.287 . S
C848 C847 1.287 . S
C848 C849 1.524 . S
C848 H867 0.913 . S
C849 H825 0.950 . S
C849 C848 1.524 . S
C849 C850 1.415 . S
C850 H826 0.950 . S
C850 C845 1.363 . S
C850 C849 1.415 . S
C851 H827 0.951 . S
C851 C852 1.366 . S
C851 C853 1.388 . S
C852 C851 1.366 . S
C852 C856 1.385 . S
C853 H828 0.951 . S
C853 C851 1.388 . S
C853 C854 1.366 . S
C854 C853 1.366 . S
C854 C855 1.414 . S
C854 C857 1.499 . S
C855 H829 0.950 . S
C855 C854 1.414 . S
C855 C856 1.374 . S
C856 H830 0.950 . S
C856 C852 1.385 . S
C856 C855 1.374 . S
C857 C854 1.499 . S
C857 C858 1.373 . S
C857 C859 1.389 . S
C858 H831 0.950 . S
C858 C844 1.377 . S
C858 C857 1.373 . S
C859 C843 1.377 . S
C859 C857 1.389 . S
C859 C860 1.524 . S
C860 C859 1.524 . S
C860 C861 1.397 . S
C860 C865 1.363 . S
C861 H832 0.950 . S
C861 C860 1.397 . S
C861 C862 1.334 . S
C862 H833 0.950 . S
C862 C861 1.334 . S
C862 C863 1.287 . S
C863 C862 1.287 . S
C863 C864 1.524 . S
C863 H866 0.999 . S
C864 H834 0.950 . S
C864 C863 1.524 . S
C864 C865 1.415 . S
C865 H835 0.950 . S
C865 C860 1.363 . S
C865 C864 1.415 . S
H866 C863 0.999 . S
H867 C848 0.913 . S
H868 C886 0.951 . S
H869 C888 0.951 . S
H870 C890 0.950 . S
H871 C891 0.950 . S
H872 C893 0.950 . S
H873 C896 0.950 . S
H874 C897 0.950 . S
H875 C899 0.950 . S
H876 C900 0.950 . S
H877 C901 0.951 . S
H878 C903 0.951 . S
H879 C905 0.950 . S
H880 C906 0.950 . S
H881 C908 0.950 . S
H882 C911 0.950 . S
H883 C912 0.950 . S
H884 C914 0.950 . S
H885 C915 0.950 . S
C886 H868 0.951 . S
C886 C887 1.366 . S
C886 C888 1.388 . S
C887 C886 1.366 . S
C887 C891 1.385 . S
C888 H869 0.951 . S
C888 C886 1.388 . S
C888 C889 1.366 . S
C889 C888 1.366 . S
C889 C890 1.414 . S
C889 C892 1.499 . S
C890 H870 0.950 . S
C890 C889 1.414 . S
C890 C891 1.374 . S
C891 H871 0.950 . S
C891 C887 1.385 . S
C891 C890 1.374 . S
C892 C889 1.499 . S
C892 C893 1.373 . S
C892 C894 1.389 . S
C893 H872 0.950 . S
C893 C892 1.373 . S
C893 C909 1.377 . S
C894 C892 1.389 . S
C894 C895 1.524 . S
C894 C908 1.377 . S
C895 C894 1.524 . S
C895 C896 1.397 . S
C895 C900 1.363 . S
C896 H873 0.950 . S
C896 C895 1.397 . S
C896 C897 1.334 . S
C897 H874 0.950 . S
C897 C896 1.334 . S
C897 C898 1.287 . S
C898 C897 1.287 . S
C898 C899 1.524 . S
C898 H917 0.913 . S
C899 H875 0.950 . S
C899 C898 1.524 . S
C899 C900 1.415 . S
C900 H876 0.950 . S
C900 C895 1.363 . S
C900 C899 1.415 . S
C901 H877 0.951 . S
C901 C902 1.366 . S
C901 C903 1.388 . S
C902 C901 1.366 . S
C902 C906 1.385 . S
C903 H878 0.951 . S
C903 C901 1.388 . S
C903 C904 1.366 . S
C904 C903 1.366 . S
C904 C905 1.414 . S
C904 C907 1.499 . S
C905 H879 0.950 . S
C905 C904 1.414 . S
C905 C906 1.374 . S
C906 H880 0.950 . S
C906 C902 1.385 . S
C906 C905 1.374 . S
C907 C904 1.499 . S
C907 C908 1.373 . S
C907 C909 1.389 . S
C908 H881 0.950 . S
C908 C894 1.377 . S
C908 C907 1.373 . S
C909 C893 1.377 . S
C909 C907 1.389 . S
C909 C910 1.524 . S
C910 C909 1.524 . S
C910 C911 1.397 . S
C910 C915 1.363 . S
C911 H882 0.950 . S
C911 C910 1.397 . S
C911 C912 1.334 . S
C912 H883 0.950 . S
C912 C911 1.334 . S
C912 C913 1.287 . S
C913 C912 1.287 . S
C913 C914 1.524 . S
C913 H916 0.999 . S
C914 H884 0.950 . S
C914 C913 1.524 . S
C914 C915 1.415 . S
C915 H885 0.950 . S
C915 C910 1.363 . S
C915 C914 1.415 . S
H916 C913 0.999 . S
H917 C898 0.913 . S
H918 C936 0.951 . S
H919 C938 0.951 . S
H920 C940 0.950 . S
H921 C941 0.950 . S
H922 C943 0.950 . S
H923 C946 0.950 . S
H924 C947 0.950 . S
H925 C949 0.950 . S
H926 C950 0.950 . S
H927 C951 0.951 . S
H928 C953 0.951 . S
H929 C955 0.950 . S
H930 C956 0.950 . S
H931 C958 0.950 . S
H932 C961 0.950 . S
H933 C962 0.950 . S
H934 C964 0.950 . S
H935 C965 0.950 . S
C936 H918 0.951 . S
C936 C937 1.366 . S
C936 C938 1.388 . S
C937 C936 1.366 . S
C937 C941 1.385 . S
C938 H919 0.951 . S
C938 C936 1.388 . S
C938 C939 1.366 . S
C939 C938 1.366 . S
C939 C940 1.414 . S
C939 C942 1.499 . S
C940 H920 0.950 . S
C940 C939 1.414 . S
C940 C941 1.374 . S
C941 H921 0.950 . S
C941 C937 1.385 . S
C941 C940 1.374 . S
C942 C939 1.499 . S
C942 C943 1.373 . S
C942 C944 1.389 . S
C943 H922 0.950 . S
C943 C942 1.373 . S
C943 C959 1.377 . S
C944 C942 1.389 . S
C944 C945 1.524 . S
C944 C958 1.377 . S
C945 C944 1.524 . S
C945 C946 1.397 . S
C945 C950 1.363 . S
C946 H923 0.950 . S
C946 C945 1.397 . S
C946 C947 1.334 . S
C947 H924 0.950 . S
C947 C946 1.334 . S
C947 C948 1.287 . S
C948 C947 1.287 . S
C948 C949 1.524 . S
C948 H967 0.913 . S
C949 H925 0.950 . S
C949 C948 1.524 . S
C949 C950 1.415 . S
C950 H926 0.950 . S
C950 C945 1.363 . S
C950 C949 1.415 . S
C951 H927 0.951 . S
C951 C952 1.366 . S
C951 C953 1.388 . S
C952 C951 1.366 . S
C952 C956 1.385 . S
C953 H928 0.951 . S
C953 C951 1.388 . S
C953 C954 1.366 . S
C954 C953 1.366 . S
C954 C955 1.414 . S
C954 C957 1.499 . S
C955 H929 0.950 . S
C955 C954 1.414 . S
C955 C956 1.374 . S
C956 H930 0.950 . S
C956 C952 1.385 . S
C956 C955 1.374 . S
C957 C954 1.499 . S
C957 C958 1.373 . S
C957 C959 1.389 . S
C958 H931 0.950 . S
C958 C944 1.377 . S
C958 C957 1.373 . S
C959 C943 1.377 . S
C959 C957 1.389 . S
C959 C960 1.524 . S
C960 C959 1.524 . S
C960 C961 1.397 . S
C960 C965 1.363 . S
C961 H932 0.950 . S
C961 C960 1.397 . S
C961 C962 1.334 . S
C962 H933 0.950 . S
C962 C961 1.334 . S
C962 C963 1.287 . S
C963 C962 1.287 . S
C963 C964 1.524 . S
C963 H966 0.999 . S
C964 H934 0.950 . S
C964 C963 1.524 . S
C964 C965 1.415 . S
C965 H935 0.950 . S
C965 C960 1.363 . S
C965 C964 1.415 . S
H966 C963 0.999 . S
H967 C948 0.913 . S
H968 C986 0.951 . S
H969 C988 0.951 . S
H970 C990 0.950 . S
H971 C991 0.950 . S
H972 C993 0.950 . S
H973 C996 0.950 . S
H974 C997 0.950 . S
H975 C999 0.950 . S
H976 C1000 0.950 . S
H977 C1001 0.951 . S
H978 C1003 0.951 . S
H979 C1005 0.950 . S
H980 C1006 0.950 . S
H981 C1008 0.950 . S
H982 C1011 0.950 . S
H983 C1012 0.950 . S
H984 C1014 0.950 . S
H985 C1015 0.950 . S
C986 H968 0.951 . S
C986 C987 1.366 . S
C986 C988 1.388 . S
C987 C986 1.366 . S
C987 C991 1.385 . S
C988 H969 0.951 . S
C988 C986 1.388 . S
C988 C989 1.366 . S
C989 C988 1.366 . S
C989 C990 1.414 . S
C989 C992 1.499 . S
C990 H970 0.950 . S
C990 C989 1.414 . S
C990 C991 1.374 . S
C991 H971 0.950 . S
C991 C987 1.385 . S
C991 C990 1.374 . S
C992 C989 1.499 . S
C992 C993 1.373 . S
C992 C994 1.389 . S
C993 H972 0.950 . S
C993 C992 1.373 . S
C993 C1009 1.377 . S
C994 C992 1.389 . S
C994 C995 1.524 . S
C994 C1008 1.377 . S
C995 C994 1.524 . S
C995 C996 1.397 . S
C995 C1000 1.363 . S
C996 H973 0.950 . S
C996 C995 1.397 . S
C996 C997 1.334 . S
C997 H974 0.950 . S
C997 C996 1.334 . S
C997 C998 1.287 . S
C998 C997 1.287 . S
C998 C999 1.524 . S
C998 H1017 0.913 . S
C999 H975 0.950 . S
C999 C998 1.524 . S
C999 C1000 1.415 . S
C1000 H976 0.950 . S
C1000 C995 1.363 . S
C1000 C999 1.415 . S
C1001 H977 0.951 . S
C1001 C1002 1.366 . S
C1001 C1003 1.388 . S
C1002 C1001 1.366 . S
C1002 C1006 1.385 . S
C1003 H978 0.951 . S
C1003 C1001 1.388 . S
C1003 C1004 1.366 . S
C1004 C1003 1.366 . S
C1004 C1005 1.414 . S
C1004 C1007 1.499 . S
C1005 H979 0.950 . S
C1005 C1004 1.414 . S
C1005 C1006 1.374 . S
C1006 H980 0.950 . S
C1006 C1002 1.385 . S
C1006 C1005 1.374 . S
C1007 C1004 1.499 . S
C1007 C1008 1.373 . S
C1007 C1009 1.389 . S
C1008 H981 0.950 . S
C1008 C994 1.377 . S
C1008 C1007 1.373 . S
C1009 C993 1.377 . S
C1009 C1007 1.389 . S
C1009 C1010 1.524 . S
C1010 C1009 1.524 . S
C1010 C1011 1.397 . S
C1010 C1015 1.363 . S
C1011 H982 0.950 . S
C1011 C1010 1.397 . S
C1011 C1012 1.334 . S
C1012 H983 0.950 . S
C1012 C1011 1.334 . S
C1012 C1013 1.287 . S
C1013 C1012 1.287 . S
C1013 C1014 1.524 . S
C1013 H1016 0.999 . S
C1014 H984 0.950 . S
C1014 C1013 1.524 . S
C1014 C1015 1.415 . S
C1015 H985 0.950 . S
C1015 C1010 1.363 . S
C1015 C1014 1.415 . S
H1016 C1013 0.999 . S
H1017 C998 0.913 . S
H1018 C1036 0.951 . S
H1019 C1038 0.951 . S
H1020 C1040 0.950 . S
H1021 C1041 0.950 . S
H1022 C1043 0.950 . S
H1023 C1046 0.950 . S
H1024 C1047 0.950 . S
H1025 C1049 0.950 . S
H1026 C1050 0.950 . S
H1027 C1051 0.951 . S
H1028 C1053 0.951 . S
H1029 C1055 0.950 . S
H1030 C1056 0.950 . S
H1031 C1058 0.950 . S
H1032 C1061 0.950 . S
H1033 C1062 0.950 . S
H1034 C1064 0.950 . S
H1035 C1065 0.950 . S
C1036 H1018 0.951 . S
C1036 C1037 1.366 . S
C1036 C1038 1.388 . S
C1037 C1036 1.366 . S
C1037 C1041 1.385 . S
C1038 H1019 0.951 . S
C1038 C1036 1.388 . S
C1038 C1039 1.366 . S
C1039 C1038 1.366 . S
C1039 C1040 1.414 . S
C1039 C1042 1.499 . S
C1040 H1020 0.950 . S
C1040 C1039 1.414 . S
C1040 C1041 1.374 . S
C1041 H1021 0.950 . S
C1041 C1037 1.385 . S
C1041 C1040 1.374 . S
C1042 C1039 1.499 . S
C1042 C1043 1.373 . S
C1042 C1044 1.389 . S
C1043 H1022 0.950 . S
C1043 C1042 1.373 . S
C1043 C1059 1.377 . S
C1044 C1042 1.389 . S
C1044 C1045 1.524 . S
C1044 C1058 1.377 . S
C1045 C1044 1.524 . S
C1045 C1046 1.397 . S
C1045 C1050 1.363 . S
C1046 H1023 0.950 . S
C1046 C1045 1.397 . S
C1046 C1047 1.334 . S
C1047 H1024 0.950 . S
C1047 C1046 1.334 . S
C1047 C1048 1.287 . S
C1048 C1047 1.287 . S
C1048 C1049 1.524 . S
C1048 H1067 0.913 . S
C1049 H1025 0.950 . S
C1049 C1048 1.524 . S
C1049 C1050 1.415 . S
C1050 H1026 0.950 . S
C1050 C1045 1.363 . S
C1050 C1049 1.415 . S
C1051 H1027 0.951 . S
C1051 C1052 1.366 . S
C1051 C1053 1.388 . S
C1052 C1051 1.366 . S
C1052 C1056 1.385 . S
C1053 H1028 0.951 . S
C1053 C1051 1.388 . S
C1053 C1054 1.366 . S
C1054 C1053 1.366 . S
C1054 C1055 1.414 . S
C1054 C1057 1.499 . S
C1055 H1029 0.950 . S
C1055 C1054 1.414 . S
C1055 C1056 1.374 . S
C1056 H1030 0.950 . S
C1056 C1052 1.385 . S
C1056 C1055 1.374 . S
C1057 C1054 1.499 . S
C1057 C1058 1.373 . S
C1057 C1059 1.389 . S
C1058 H1031 0.950 . S
C1058 C1044 1.377 . S
C1058 C1057 1.373 . S
C1059 C1043 1.377 . S
C1059 C1057 1.389 . S
C1059 C1060 1.524 . S
C1060 C1059 1.524 . S
C1060 C1061 1.397 . S
C1060 C1065 1.363 . S
C1061 H1032 0.950 . S
C1061 C1060 1.397 . S
C1061 C1062 1.334 . S
C1062 H1033 0.950 . S
C1062 C1061 1.334 . S
C1062 C1063 1.287 . S
C1063 C1062 1.287 . S
C1063 C1064 1.524 . S
C1063 H1066 0.999 . S
C1064 H1034 0.950 . S
C1064 C1063 1.524 . S
C1064 C1065 1.415 . S
C1065 H1035 0.950 . S
C1065 C1060 1.363 . S
C1065 C1064 1.415 . S
H1066 C1063 0.999 . S
H1067 C1048 0.913 . S
H1068 C1086 0.951 . S
H1069 C1088 0.951 . S
H1070 C1090 0.950 . S
H1071 C1091 0.950 . S
H1072 C1093 0.950 . S
H1073 C1096 0.950 . S
H1074 C1097 0.950 . S
H1075 C1099 0.950 . S
H1076 C1100 0.950 . S
H1077 C1101 0.951 . S
H1078 C1103 0.951 . S
H1079 C1105 0.950 . S
H1080 C1106 0.950 . S
H1081 C1108 0.950 . S
H1082 C1111 0.950 . S
H1083 C1112 0.950 . S
H1084 C1114 0.950 . S
H1085 C1115 0.950 . S
C1086 H1068 0.951 . S
C1086 C1087 1.366 . S
C1086 C1088 1.388 . S
C1087 C1086 1.366 . S
C1087 C1091 1.385 . S
C1088 H1069 0.951 . S
C1088 C1086 1.388 . S
C1088 C1089 1.366 . S
C1089 C1088 1.366 . S
C1089 C1090 1.414 . S
C1089 C1092 1.499 . S
C1090 H1070 0.950 . S
C1090 C1089 1.414 . S
C1090 C1091 1.374 . S
C1091 H1071 0.950 . S
C1091 C1087 1.385 . S
C1091 C1090 1.374 . S
C1092 C1089 1.499 . S
C1092 C1093 1.373 . S
C1092 C1094 1.389 . S
C1093 H1072 0.950 . S
C1093 C1092 1.373 . S
C1093 C1109 1.377 . S
C1094 C1092 1.389 . S
C1094 C1095 1.524 . S
C1094 C1108 1.377 . S
C1095 C1094 1.524 . S
C1095 C1096 1.397 . S
C1095 C1100 1.363 . S
C1096 H1073 0.950 . S
C1096 C1095 1.397 . S
C1096 C1097 1.334 . S
C1097 H1074 0.950 . S
C1097 C1096 1.334 . S
C1097 C1098 1.287 . S
C1098 C1097 1.287 . S
C1098 C1099 1.524 . S
C1098 H1117 0.913 . S
C1099 H1075 0.950 . S
C1099 C1098 1.524 . S
C1099 C1100 1.415 . S
C1100 H1076 0.950 . S
C1100 C1095 1.363 . S
C1100 C1099 1.415 . S
C1101 H1077 0.951 . S
C1101 C1102 1.366 . S
C1101 C1103 1.388 . S
C1102 C1101 1.366 . S
C1102 C1106 1.385 . S
C1103 H1078 0.951 . S
C1103 C1101 1.388 . S
C1103 C1104 1.366 . S
C1104 C1103 1.366 . S
C1104 C1105 1.414 . S
C1104 C1107 1.499 . S
C1105 H1079 0.950 . S
C1105 C1104 1.414 . S
C1105 C1106 1.374 . S
C1106 H1080 0.950 . S
C1106 C1102 1.385 . S
C1106 C1105 1.374 . S
C1107 C1104 1.499 . S
C1107 C1108 1.373 . S
C1107 C1109 1.389 . S
C1108 H1081 0.950 . S
C1108 C1094 1.377 . S
C1108 C1107 1.373 . S
C1109 C1093 1.377 . S
C1109 C1107 1.389 . S
C1109 C1110 1.524 . S
C1110 C1109 1.524 . S
C1110 C1111 1.397 . S
C1110 C1115 1.363 . S
C1111 H1082 0.950 . S
C1111 C1110 1.397 . S
C1111 C1112 1.334 . S
C1112 H1083 0.950 . S
C1112 C1111 1.334 . S
C1112 C1113 1.287 . S
C1113 C1112 1.287 . S
C1113 C1114 1.524 . S
C1113 H1116 0.999 . S
C1114 H1084 0.950 . S
C1114 C1113 1.524 . S
C1114 C1115 1.415 . S
C1115 H1085 0.950 . S
C1115 C1110 1.363 . S
C1115 C1114 1.415 . S
H1116 C1113 0.999 . S
H1117 C1098 0.913 . S
H1118 C1136 0.951 . S
H1119 C1138 0.951 . S
H1120 C1140 0.950 . S
H1121 C1141 0.950 . S
H1122 C1143 0.950 . S
H1123 C1146 0.950 . S
H1124 C1147 0.950 . S
H1125 C1149 0.950 . S
H1126 C1150 0.950 . S
H1127 C1151 0.951 . S
H1128 C1153 0.951 . S
H1129 C1155 0.950 . S
H1130 C1156 0.950 . S
H1131 C1158 0.950 . S
H1132 C1161 0.950 . S
H1133 C1162 0.950 . S
H1134 C1164 0.950 . S
H1135 C1165 0.950 . S
C1136 H1118 0.951 . S
C1136 C1137 1.366 . S
C1136 C1138 1.388 . S
C1137 C1136 1.366 . S
C1137 C1141 1.385 . S
C1138 H1119 0.951 . S
C1138 C1136 1.388 . S
C1138 C1139 1.366 . S
C1139 C1138 1.366 . S
C1139 C1140 1.414 . S
C1139 C1142 1.499 . S
C1140 H1120 0.950 . S
C1140 C1139 1.414 . S
C1140 C1141 1.374 . S
C1141 H1121 0.950 . S
C1141 C1137 1.385 . S
C1141 C1140 1.374 . S
C1142 C1139 1.499 . S
C1142 C1143 1.373 . S
C1142 C1144 1.389 . S
C1143 H1122 0.950 . S
C1143 C1142 1.373 . S
C1143 C1159 1.377 . S
C1144 C1142 1.389 . S
C1144 C1145 1.524 . S
C1144 C1158 1.377 . S
C1145 C1144 1.524 . S
C1145 C1146 1.397 . S
C1145 C1150 1.363 . S
C1146 H1123 0.950 . S
C1146 C1145 1.397 . S
C1146 C1147 1.334 . S
C1147 H1124 0.950 . S
C1147 C1146 1.334 . S
C1147 C1148 1.287 . S
C1148 C1147 1.287 . S
C1148 C1149 1.524 . S
C1148 H1167 0.913 . S
C1149 H1125 0.950 . S
C1149 C1148 1.524 . S
C1149 C1150 1.415 . S
C1150 H1126 0.950 . S
C1150 C1145 1.363 . S
C1150 C1149 1.415 . S
C1151 H1127 0.951 . S
C1151 C1152 1.366 . S
C1151 C1153 1.388 . S
C1152 C1151 1.366 . S
C1152 C1156 1.385 . S
C1153 H1128 0.951 . S
C1153 C1151 1.388 . S
C1153 C1154 1.366 . S
C1154 C1153 1.366 . S
C1154 C1155 1.414 . S
C1154 C1157 1.499 . S
C1155 H1129 0.950 . S
C1155 C1154 1.414 . S
C1155 C1156 1.374 . S
C1156 H1130 0.950 . S
C1156 C1152 1.385 . S
C1156 C1155 1.374 . S
C1157 C1154 1.499 . S
C1157 C1158 1.373 . S
C1157 C1159 1.389 . S
C1158 H1131 0.950 . S
C1158 C1144 1.377 . S
C1158 C1157 1.373 . S
C1159 C1143 1.377 . S
C1159 C1157 1.389 . S
C1159 C1160 1.524 . S
C1160 C1159 1.524 . S
C1160 C1161 1.397 . S
C1160 C1165 1.363 . S
C1161 H1132 0.950 . S
C1161 C1160 1.397 . S
C1161 C1162 1.334 . S
C1162 H1133 0.950 . S
C1162 C1161 1.334 . S
C1162 C1163 1.287 . S
C1163 C1162 1.287 . S
C1163 C1164 1.524 . S
C1163 H1166 0.999 . S
C1164 H1134 0.950 . S
C1164 C1163 1.524 . S
C1164 C1165 1.415 . S
C1165 H1135 0.950 . S
C1165 C1160 1.363 . S
C1165 C1164 1.415 . S
H1166 C1163 0.999 . S
H1167 C1148 0.913 . S
H1168 C1186 0.951 . S
H1169 C1188 0.951 . S
H1170 C1190 0.950 . S
H1171 C1191 0.950 . S
H1172 C1193 0.950 . S
H1173 C1196 0.950 . S
H1174 C1197 0.950 . S
H1175 C1199 0.950 . S
H1176 C1200 0.950 . S
H1177 C1201 0.951 . S
H1178 C1203 0.951 . S
H1179 C1205 0.950 . S
H1180 C1206 0.950 . S
H1181 C1208 0.950 . S
H1182 C1211 0.950 . S
H1183 C1212 0.950 . S
H1184 C1214 0.950 . S
H1185 C1215 0.950 . S
C1186 H1168 0.951 . S
C1186 C1187 1.366 . S
C1186 C1188 1.388 . S
C1187 C1186 1.366 . S
C1187 C1191 1.385 . S
C1188 H1169 0.951 . S
C1188 C1186 1.388 . S
C1188 C1189 1.366 . S
C1189 C1188 1.366 . S
C1189 C1190 1.414 . S
C1189 C1192 1.499 . S
C1190 H1170 0.950 . S
C1190 C1189 1.414 . S
C1190 C1191 1.374 . S
C1191 H1171 0.950 . S
C1191 C1187 1.385 . S
C1191 C1190 1.374 . S
C1192 C1189 1.499 . S
C1192 C1193 1.373 . S
C1192 C1194 1.389 . S
C1193 H1172 0.950 . S
C1193 C1192 1.373 . S
C1193 C1209 1.377 . S
C1194 C1192 1.389 . S
C1194 C1195 1.524 . S
C1194 C1208 1.377 . S
C1195 C1194 1.524 . S
C1195 C1196 1.397 . S
C1195 C1200 1.363 . S
C1196 H1173 0.950 . S
C1196 C1195 1.397 . S
C1196 C1197 1.334 . S
C1197 H1174 0.950 . S
C1197 C1196 1.334 . S
C1197 C1198 1.287 . S
C1198 C1197 1.287 . S
C1198 C1199 1.524 . S
C1198 H1217 0.913 . S
C1199 H1175 0.950 . S
C1199 C1198 1.524 . S
C1199 C1200 1.415 . S
C1200 H1176 0.950 . S
C1200 C1195 1.363 . S
C1200 C1199 1.415 . S
C1201 H1177 0.951 . S
C1201 C1202 1.366 . S
C1201 C1203 1.388 . S
C1202 C1201 1.366 . S
C1202 C1206 1.385 . S
C1203 H1178 0.951 . S
C1203 C1201 1.388 . S
C1203 C1204 1.366 . S
C1204 C1203 1.366 . S
C1204 C1205 1.414 . S
C1204 C1207 1.499 . S
C1205 H1179 0.950 . S
C1205 C1204 1.414 . S
C1205 C1206 1.374 . S
C1206 H1180 0.950 . S
C1206 C1202 1.385 . S
C1206 C1205 1.374 . S
C1207 C1204 1.499 . S
C1207 C1208 1.373 . S
C1207 C1209 1.389 . S
C1208 H1181 0.950 . S
C1208 C1194 1.377 . S
C1208 C1207 1.373 . S
C1209 C1193 1.377 . S
C1209 C1207 1.389 . S
C1209 C1210 1.524 . S
C1210 C1209 1.524 . S
C1210 C1211 1.397 . S
C1210 C1215 1.363 . S
C1211 H1182 0.950 . S
C1211 C1210 1.397 . S
C1211 C1212 1.334 . S
C1212 H1183 0.950 . S
C1212 C1211 1.334 . S
C1212 C1213 1.287 . S
C1213 C1212 1.287 . S
C1213 C1214 1.524 . S
C1213 H1216 0.999 . S
C1214 H1184 0.950 . S
C1214 C1213 1.524 . S
C1214 C1215 1.415 . S
C1215 H1185 0.950 . S
C1215 C1210 1.363 . S
C1215 C1214 1.415 . S
H1216 C1213 0.999 . S
H1217 C1198 0.913 . S
H1218 C1236 0.951 . S
H1219 C1238 0.951 . S
H1220 C1240 0.950 . S
H1221 C1241 0.950 . S
H1222 C1243 0.950 . S
H1223 C1246 0.950 . S
H1224 C1247 0.950 . S
H1225 C1249 0.950 . S
H1226 C1250 0.950 . S
H1227 C1251 0.951 . S
H1228 C1253 0.951 . S
H1229 C1255 0.950 . S
H1230 C1256 0.950 . S
H1231 C1258 0.950 . S
H1232 C1261 0.950 . S
H1233 C1262 0.950 . S
H1234 C1264 0.950 . S
H1235 C1265 0.950 . S
C1236 H1218 0.951 . S
C1236 C1237 1.366 . S
C1236 C1238 1.388 . S
C1237 C1236 1.366 . S
C1237 C1241 1.385 . S
C1238 H1219 0.951 . S
C1238 C1236 1.388 . S
C1238 C1239 1.366 . S
C1239 C1238 1.366 . S
C1239 C1240 1.414 . S
C1239 C1242 1.499 . S
C1240 H1220 0.950 . S
C1240 C1239 1.414 . S
C1240 C1241 1.374 . S
C1241 H1221 0.950 . S
C1241 C1237 1.385 . S
C1241 C1240 1.374 . S
C1242 C1239 1.499 . S
C1242 C1243 1.373 . S
C1242 C1244 1.389 . S
C1243 H1222 0.950 . S
C1243 C1242 1.373 . S
C1243 C1259 1.377 . S
C1244 C1242 1.389 . S
C1244 C1245 1.524 . S
C1244 C1258 1.377 . S
C1245 C1244 1.524 . S
C1245 C1246 1.397 . S
C1245 C1250 1.363 . S
C1246 H1223 0.950 . S
C1246 C1245 1.397 . S
C1246 C1247 1.334 . S
C1247 H1224 0.950 . S
C1247 C1246 1.334 . S
C1247 C1248 1.287 . S
C1248 C1247 1.287 . S
C1248 C1249 1.524 . S
C1248 H1267 0.913 . S
C1249 H1225 0.950 . S
C1249 C1248 1.524 . S
C1249 C1250 1.415 . S
C1250 H1226 0.950 . S
C1250 C1245 1.363 . S
C1250 C1249 1.415 . S
C1251 H1227 0.951 . S
C1251 C1252 1.366 . S
C1251 C1253 1.388 . S
C1252 C1251 1.366 . S
C1252 C1256 1.385 . S
C1253 H1228 0.951 . S
C1253 C1251 1.388 . S
C1253 C1254 1.366 . S
C1254 C1253 1.366 . S
C1254 C1255 1.414 . S
C1254 C1257 1.499 . S
C1255 H1229 0.950 . S
C1255 C1254 1.414 . S
C1255 C1256 1.374 . S
C1256 H1230 0.950 . S
C1256 C1252 1.385 . S
C1256 C1255 1.374 . S
C1257 C1254 1.499 . S
C1257 C1258 1.373 . S
C1257 C1259 1.389 . S
C1258 H1231 0.950 . S
C1258 C1244 1.377 . S
C1258 C1257 1.373 . S
C1259 C1243 1.377 . S
C1259 C1257 1.389 . S
C1259 C1260 1.524 . S
C1260 C1259 1.524 . S
C1260 C1261 1.397 . S
C1260 C1265 1.363 . S
C1261 H1232 0.950 . S
C1261 C1260 1.397 . S
C1261 C1262 1.334 . S
C1262 H1233 0.950 . S
C1262 C1261 1.334 . S
C1262 C1263 1.287 . S
C1263 C1262 1.287 . S
C1263 C1264 1.524 . S
C1263 H1266 0.999 . S
C1264 H1234 0.950 . S
C1264 C1263 1.524 . S
C1264 C1265 1.415 . S
C1265 H1235 0.950 . S
C1265 C1260 1.363 . S
C1265 C1264 1.415 . S
H1266 C1263 0.999 . S
H1267 C1248 0.913 . S
H1268 C1286 0.951 . S
H1269 C1288 0.951 . S
H1270 C1290 0.950 . S
H1271 C1291 0.950 . S
H1272 C1293 0.950 . S
H1273 C1296 0.950 . S
H1274 C1297 0.950 . S
H1275 C1299 0.950 . S
H1276 C1300 0.950 . S
H1277 C1301 0.951 . S
H1278 C1303 0.951 . S
H1279 C1305 0.950 . S
H1280 C1306 0.950 . S
H1281 C1308 0.950 . S
H1282 C1311 0.950 . S
H1283 C1312 0.950 . S
H1284 C1314 0.950 . S
H1285 C1315 0.950 . S
C1286 H1268 0.951 . S
C1286 C1287 1.366 . S
C1286 C1288 1.388 . S
C1287 C1286 1.366 . S
C1287 C1291 1.385 . S
C1288 H1269 0.951 . S
C1288 C1286 1.388 . S
C1288 C1289 1.366 . S
C1289 C1288 1.366 . S
C1289 C1290 1.414 . S
C1289 C1292 1.499 . S
C1290 H1270 0.950 . S
C1290 C1289 1.414 . S
C1290 C1291 1.374 . S
C1291 H1271 0.950 . S
C1291 C1287 1.385 . S
C1291 C1290 1.374 . S
C1292 C1289 1.499 . S
C1292 C1293 1.373 . S
C1292 C1294 1.389 . S
C1293 H1272 0.950 . S
C1293 C1292 1.373 . S
C1293 C1309 1.377 . S
C1294 C1292 1.389 . S
C1294 C1295 1.524 . S
C1294 C1308 1.377 . S
C1295 C1294 1.524 . S
C1295 C1296 1.397 . S
C1295 C1300 1.363 . S
C1296 H1273 0.950 . S
C1296 C1295 1.397 . S
C1296 C1297 1.334 . S
C1297 H1274 0.950 . S
C1297 C1296 1.334 . S
C1297 C1298 1.287 . S
C1298 C1297 1.287 . S
C1298 C1299 1.524 . S
C1298 H1317 0.913 . S
C1299 H1275 0.950 . S
C1299 C1298 1.524 . S
C1299 C1300 1.415 . S
C1300 H1276 0.950 . S
C1300 C1295 1.363 . S
C1300 C1299 1.415 . S
C1301 H1277 0.951 . S
C1301 C1302 1.366 . S
C1301 C1303 1.388 . S
C1302 C1301 1.366 . S
C1302 C1306 1.385 . S
C1303 H1278 0.951 . S
C1303 C1301 1.388 . S
C1303 C1304 1.366 . S
C1304 C1303 1.366 . S
C1304 C1305 1.414 . S
C1304 C1307 1.499 . S
C1305 H1279 0.950 . S
C1305 C1304 1.414 . S
C1305 C1306 1.374 . S
C1306 H1280 0.950 . S
C1306 C1302 1.385 . S
C1306 C1305 1.374 . S
C1307 C1304 1.499 . S
C1307 C1308 1.373 . S
C1307 C1309 1.389 . S
C1308 H1281 0.950 . S
C1308 C1294 1.377 . S
C1308 C1307 1.373 . S
C1309 C1293 1.377 . S
C1309 C1307 1.389 . S
C1309 C1310 1.524 . S
C1310 C1309 1.524 . S
C1310 C1311 1.397 . S
C1310 C1315 1.363 . S
C1311 H1282 0.950 . S
C1311 C1310 1.397 . S
C1311 C1312 1.334 . S
C1312 H1283 0.950 . S
C1312 C1311 1.334 . S
C1312 C1313 1.287 . S
C1313 C1312 1.287 . S
C1313 C1314 1.524 . S
C1313 H1316 0.999 . S
C1314 H1284 0.950 . S
C1314 C1313 1.524 . S
C1314 C1315 1.415 . S
C1315 H1285 0.950 . S
C1315 C1310 1.363 . S
C1315 C1314 1.415 . S
H1316 C1313 0.999 . S
H1317 C1298 0.913 . S
H1318 C1336 0.951 . S
H1319 C1338 0.951 . S
H1320 C1340 0.950 . S
H1321 C1341 0.950 . S
H1322 C1343 0.950 . S
H1323 C1346 0.950 . S
H1324 C1347 0.950 . S
H1325 C1349 0.950 . S
H1326 C1350 0.950 . S
H1327 C1351 0.951 . S
H1328 C1353 0.951 . S
H1329 C1355 0.950 . S
H1330 C1356 0.950 . S
H1331 C1358 0.950 . S
H1332 C1361 0.950 . S
H1333 C1362 0.950 . S
H1334 C1364 0.950 . S
H1335 C1365 0.950 . S
C1336 H1318 0.951 . S
C1336 C1337 1.366 . S
C1336 C1338 1.388 . S
C1337 C1336 1.366 . S
C1337 C1341 1.385 . S
C1338 H1319 0.951 . S
C1338 C1336 1.388 . S
C1338 C1339 1.366 . S
C1339 C1338 1.366 . S
C1339 C1340 1.414 . S
C1339 C1342 1.499 . S
C1340 H1320 0.950 . S
C1340 C1339 1.414 . S
C1340 C1341 1.374 . S
C1341 H1321 0.950 . S
C1341 C1337 1.385 . S
C1341 C1340 1.374 . S
C1342 C1339 1.499 . S
C1342 C1343 1.373 . S
C1342 C1344 1.389 . S
C1343 H1322 0.950 . S
C1343 C1342 1.373 . S
C1343 C1359 1.377 . S
C1344 C1342 1.389 . S
C1344 C1345 1.524 . S
C1344 C1358 1.377 . S
C1345 C1344 1.524 . S
C1345 C1346 1.397 . S
C1345 C1350 1.363 . S
C1346 H1323 0.950 . S
C1346 C1345 1.397 . S
C1346 C1347 1.334 . S
C1347 H1324 0.950 . S
C1347 C1346 1.334 . S
C1347 C1348 1.287 . S
C1348 C1347 1.287 . S
C1348 C1349 1.524 . S
C1348 H1367 0.913 . S
C1349 H1325 0.950 . S
C1349 C1348 1.524 . S
C1349 C1350 1.415 . S
C1350 H1326 0.950 . S
C1350 C1345 1.363 . S
C1350 C1349 1.415 . S
C1351 H1327 0.951 . S
C1351 C1352 1.366 . S
C1351 C1353 1.388 . S
C1352 C1351 1.366 . S
C1352 C1356 1.385 . S
C1353 H1328 0.951 . S
C1353 C1351 1.388 . S
C1353 C1354 1.366 . S
C1354 C1353 1.366 . S
C1354 C1355 1.414 . S
C1354 C1357 1.499 . S
C1355 H1329 0.950 . S
C1355 C1354 1.414 . S
C1355 C1356 1.374 . S
C1356 H1330 0.950 . S
C1356 C1352 1.385 . S
C1356 C1355 1.374 . S
C1357 C1354 1.499 . S
C1357 C1358 1.373 . S
C1357 C1359 1.389 . S
C1358 H1331 0.950 . S
C1358 C1344 1.377 . S
C1358 C1357 1.373 . S
C1359 C1343 1.377 . S
C1359 C1357 1.389 . S
C1359 C1360 1.524 . S
C1360 C1359 1.524 . S
C1360 C1361 1.397 . S
C1360 C1365 1.363 . S
C1361 H1332 0.950 . S
C1361 C1360 1.397 . S
C1361 C1362 1.334 . S
C1362 H1333 0.950 . S
C1362 C1361 1.334 . S
C1362 C1363 1.287 . S
C1363 C1362 1.287 . S
C1363 C1364 1.524 . S
C1363 H1366 0.999 . S
C1364 H1334 0.950 . S
C1364 C1363 1.524 . S
C1364 C1365 1.415 . S
C1365 H1335 0.950 . S
C1365 C1360 1.363 . S
C1365 C1364 1.415 . S
H1366 C1363 0.999 . S
H1367 C1348 0.913 . S
C187 C11 1.437 . S
C202 C81 1.440 . S
C237 C14 1.386 . S
C252 C56 1.389 . S
C287 C79 1.345 . S
C302 C37 1.344 . S
C337 C42 1.388 . S
C352 C61 1.407 . S
C387 C109 1.436 . S
C402 C39 1.439 . S
C437 C89 1.395 . S
C452 C47 1.396 . S
C487 C9 1.342 . S
C502 C107 1.342 . S
C537 C84 1.387 . S
C552 C19 1.405 . S
C587 C126 1.412 . S
C602 C123 1.418 . S
C637 C121 1.375 . S
C652 C154 1.359 . S
C687 C131 1.372 . S
C702 C149 1.370 . S
C737 C151 1.414 . S
C752 C159 1.425 . S
C787 C165 1.438 . S
C802 C95 1.440 . S
C837 C112 1.386 . S
C852 C98 1.389 . S
C887 C93 1.345 . S
C902 C135 1.344 . S
C937 C103 1.407 . S
C952 C140 1.388 . S
C987 C67 1.436 . S
C1002 C137 1.439 . S
C1037 C75 1.395 . S
C1052 C145 1.396 . S
C1087 C163 1.342 . S
C1102 C65 1.341 . S
C1137 C117 1.405 . S
C1152 C70 1.386 . S
C1187 C25 1.418 . S
C1202 C28 1.412 . S
C1237 C0 1.360 . S
C1252 C23 1.374 . S
C1287 C33 1.373 . S
C1302 C51 1.370 . S
C1337 C5 1.425 . S
C1352 C53 1.413 . S
