# Generated by pormake.
# Topology rob, (6)-cn, num edge types: 1
# Building blocks:
#     Node 0, Type 0, BuildingBlock: FUNLAD_clean_sbu_0, # of connection points: 6
#     Node 1, Type 0, BuildingBlock: FUNLAD_clean_sbu_0, # of connection points: 6
#     Node 2, Type 0, BuildingBlock: FUNLAD_clean_sbu_0, # of connection points: 6
#     Node 3, Type 0, BuildingBlock: FUNLAD_clean_sbu_0, # of connection points: 6
#     Edge 4, Type (0, 0), BuildingBlock: FUNLAD_clean_linker_0, # of connection points: 2
#     Edge 5, Type (0, 0), BuildingBlock: FUNLAD_clean_linker_0, # of connection points: 2
#     Edge 6, Type (0, 0), BuildingBlock: FUNLAD_clean_linker_0, # of connection points: 2
#     Edge 7, Type (0, 0), BuildingBlock: FUNLAD_clean_linker_0, # of connection points: 2
#     Edge 8, Type (0, 0), BuildingBlock: FUNLAD_clean_linker_0, # of connection points: 2
#     Edge 9, Type (0, 0), BuildingBlock: FUNLAD_clean_linker_0, # of connection points: 2
#     Edge 10, Type (0, 0), BuildingBlock: FUNLAD_clean_linker_0, # of connection points: 2
#     Edge 11, Type (0, 0), BuildingBlock: FUNLAD_clean_linker_0, # of connection points: 2
#     Edge 12, Type (0, 0), BuildingBlock: FUNLAD_clean_linker_0, # of connection points: 2
#     Edge 13, Type (0, 0), BuildingBlock: FUNLAD_clean_linker_0, # of connection points: 2
#     Edge 14, Type (0, 0), BuildingBlock: FUNLAD_clean_linker_0, # of connection points: 2
#     Edge 15, Type (0, 0), BuildingBlock: FUNLAD_clean_linker_0, # of connection points: 2
# Relax obj value: 0.152
# Max RMSD: 0.163
# Mean RMSD: 0.163
data_MOF--net-rob--node1-FUNLAD_clean_sbu_0--edge1-FUNLAD_clean_linker_0
_symmetry_space_group_name_H-M    P1
_symmetry_Int_Tables_number       1
_symmetry_cell_setting            triclinic
loop_
_symmetry_equiv_pos_as_xyz
'x, y, z'
_cell_length_a     18.368169
_cell_length_b     44.875527
_cell_length_c     27.214171
_cell_angle_alpha  91.394933
_cell_angle_beta   89.847006
_cell_angle_gamma 89.941106
loop_
_atom_site_label
_atom_site_type_symbol
_atom_site_fract_x
_atom_site_fract_y
_atom_site_fract_z
_atom_type_partial_charge
C0 C 0.28956 0.25111 0.89364 0.0
N1 N 0.31557 0.32676 0.98374 0.0
C2 C 0.38332 0.32899 0.96385 0.0
C3 C 0.41637 0.35679 0.95962 0.0
C4 C 0.3794 0.38257 0.97605 0.0
C5 C 0.30968 0.3796 -0.00329 0.0
C6 C 0.2786 0.35134 0.00017 0.0
Zn7 Zn 0.26858 0.28573 0.98762 0.0
C8 C 0.11687 0.28553 0.95098 0.0
N9 N 0.17287 0.19911 -0.00727 0.0
C10 C 0.21188 0.17478 0.97756 0.0
C11 C 0.10432 0.19633 0.01112 0.0
C12 C 0.07268 0.1682 0.01519 0.0
C13 C 0.1119 0.14264 0.00019 0.0
C14 C 0.18234 0.14624 0.98097 0.0
Zn15 Zn 0.21931 0.24045 -0.01087 0.0
O16 O 0.30163 0.27593 0.91545 0.0
C17 C 0.37117 0.24082 0.02611 0.0
O18 O 0.25707 0.23062 0.91649 0.0
H19 H 0.07416 0.21596 0.02287 0.0
H20 H 0.41181 0.30916 0.9511 0.0
H21 H 0.26637 0.17748 0.96321 0.0
O22 O 0.36633 0.26806 0.01497 0.0
O23 O 0.31681 0.22374 0.01933 0.0
H24 H 0.22468 0.34905 0.01567 0.0
O25 O 0.18105 0.2513 0.06063 0.0
O26 O 0.23376 0.29524 0.06018 0.0
O27 O 0.12283 0.25794 0.95972 0.0
O28 O 0.17014 0.30287 0.95978 0.0
C29 C 0.19539 0.27609 0.08203 0.0
H30 H 0.47059 0.35802 0.94407 0.0
H31 H 0.27896 0.39893 0.00935 0.0
H32 H 0.01786 0.16653 0.02959 0.0
H33 H 0.21491 0.12717 0.9695 0.0
C34 C 0.8875 0.74037 0.94909 0.0
N35 N 0.82388 0.82495 0.00284 0.0
C36 C 0.89226 0.82877 0.02101 0.0
C37 C 0.9234 0.85717 0.02371 0.0
C38 C 0.8838 0.88189 0.00756 0.0
C39 C 0.81282 0.87729 -0.01016 0.0
C40 C 0.78385 0.84855 0.9878 0.0
Zn41 Zn 0.78112 0.78302 -0.00531 0.0
C42 C 0.70964 0.77439 0.89767 0.0
N43 N 0.6921 0.69574 0.97595 0.0
C44 C 0.73171 0.67172 -0.0103 0.0
C45 C 0.62278 0.69263 0.95911 0.0
C46 C 0.59012 0.66457 0.95664 0.0
C47 C 0.62909 0.63946 0.97172 0.0
C48 C 0.70115 0.64326 0.98788 0.0
Zn49 Zn 0.73548 0.73739 0.98416 0.0
O50 O 0.88113 0.76708 0.96522 0.0
C51 C 0.80491 0.74591 0.08167 0.0
O52 O 0.83358 0.72278 0.95181 0.0
H53 H 0.59225 0.71202 0.94835 0.0
H54 H 0.92312 0.80971 0.03282 0.0
H55 H 0.78664 0.67471 0.00314 0.0
O56 O 0.81463 0.77213 0.06623 0.0
O57 O 0.77457 0.72646 0.05402 0.0
H58 H 0.72972 0.84502 0.97326 0.0
O59 O 0.63819 0.75253 0.01636 0.0
O60 O 0.6802 0.79813 0.02434 0.0
O61 O 0.69603 0.74896 0.91493 0.0
O62 O 0.74639 0.79321 0.9228 0.0
C63 C 0.62876 0.77955 0.02973 0.0
H64 H 0.97795 0.85972 0.0382 0.0
H65 H 0.78062 0.89557 0.97635 0.0
H66 H 0.53479 0.6626 0.9433 0.0
H67 H 0.73291 0.62459 0.00043 0.0
C68 C 0.38799 0.78344 0.53096 0.0
N69 N 0.31621 0.70072 0.47353 0.0
C70 C 0.38398 0.69566 0.45477 0.0
C71 C 0.41042 0.66653 0.44904 0.0
C72 C 0.36659 0.64239 0.46258 0.0
C73 C 0.29665 0.64834 0.48135 0.0
C74 C 0.27252 0.67774 0.48659 0.0
Zn75 Zn 0.27816 0.74332 0.4844 0.0
C76 C 0.2076 0.75112 0.58204 0.0
N77 N 0.19598 0.83158 0.50802 0.0
C78 C 0.23732 0.85531 0.49515 0.0
C79 C 0.12723 0.83537 0.52586 0.0
C80 C 0.09695 0.86385 0.53036 0.0
C81 C 0.13771 0.88869 0.51621 0.0
C82 C 0.20911 0.88417 0.49893 0.0
Zn83 Zn 0.23562 0.78939 0.49711 0.0
O84 O 0.37975 0.75704 0.51383 0.0
C85 C 0.30443 0.7817 0.39901 0.0
O86 O 0.33529 0.80175 0.52927 0.0
H87 H 0.09515 0.8162 0.53565 0.0
H88 H 0.41777 0.71424 0.44453 0.0
H89 H 0.2919 0.85181 0.48114 0.0
O90 O 0.31229 0.75509 0.4132 0.0
O91 O 0.2753 0.80106 0.42762 0.0
H92 H 0.219 0.68221 0.50168 0.0
O93 O 0.13677 0.77646 0.46499 0.0
O94 O 0.1757 0.73051 0.45496 0.0
O95 O 0.19568 0.77701 0.56604 0.0
O96 O 0.24302 0.7323 0.55587 0.0
C97 C 0.12546 0.74975 0.45068 0.0
H98 H 0.46442 0.66295 0.43394 0.0
H99 H 0.26139 0.63049 0.49294 0.0
H100 H 0.04142 0.86627 0.54333 0.0
H101 H 0.24271 0.90275 0.4882 0.0
C102 C 0.79207 0.27442 0.58421 0.0
N103 N 0.81619 0.20004 0.49074 0.0
C104 C 0.88459 0.19739 0.5092 0.0
C105 C 0.91847 0.16959 0.51037 0.0
C106 C 0.8817 0.14419 0.49236 0.0
C107 C 0.81097 0.14754 0.47371 0.0
C108 C 0.7791 0.17582 0.47322 0.0
Zn109 Zn 0.76977 0.24138 0.48955 0.0
C110 C 0.61803 0.2416 0.52706 0.0
N111 N 0.67626 0.32872 0.48874 0.0
C112 C 0.71743 0.35185 0.50609 0.0
C113 C 0.60821 0.33333 0.47074 0.0
C114 C 0.5793 0.36216 0.46957 0.0
C115 C 0.62072 0.38645 0.48728 0.0
C116 C 0.69065 0.38094 0.50574 0.0
Zn117 Zn 0.72058 0.28681 0.48946 0.0
O118 O 0.80434 0.24979 0.56178 0.0
C119 C 0.87257 0.28641 0.45173 0.0
O120 O 0.75909 0.29503 0.56208 0.0
H121 H 0.57635 0.31463 0.45717 0.0
H122 H 0.91304 0.21691 0.52311 0.0
H123 H 0.77154 0.34777 0.51997 0.0
O124 O 0.8675 0.25904 0.46195 0.0
O125 O 0.81839 0.30353 0.45938 0.0
H126 H 0.72482 0.17845 0.45863 0.0
O127 O 0.6815 0.27753 0.41791 0.0
O128 O 0.73339 0.23335 0.41693 0.0
O129 O 0.62374 0.26926 0.51873 0.0
O130 O 0.67138 0.2243 0.5177 0.0
C131 C 0.69535 0.25288 0.39578 0.0
H132 H 0.97264 0.16799 0.52571 0.0
H133 H 0.78097 0.12861 0.45895 0.0
H134 H 0.52487 0.36537 0.45542 0.0
H135 H 0.72497 0.39899 0.51905 0.0
C136 C 0.63308 0.58388 0.95832 0.0
C137 C 0.594 0.60967 0.97233 0.0
C138 C 0.60076 0.55578 0.96073 0.0
C139 C 0.52827 0.55288 0.97692 0.0
C140 C 0.48939 0.57866 -0.00908 0.0
C141 C 0.52169 0.60674 -0.01148 0.0
C142 C 0.49237 0.52343 0.98188 0.0
C143 C 0.51384 0.49852 0.95729 0.0
C144 C 0.47798 0.46913 0.96294 0.0
C145 C 0.48435 0.44767 0.9248 0.0
C146 C 0.45219 0.41965 0.92892 0.0
C147 C 0.41334 0.41238 0.97155 0.0
H148 H 0.43592 0.47719 0.03694 0.0
C149 C 0.40764 0.43372 0.01002 0.0
C150 C 0.43985 0.46174 0.00591 0.0
H151 H 0.37944 0.42856 0.04376 0.0
H152 H 0.68881 0.58539 0.94553 0.0
H153 H 0.63349 0.53648 0.95093 0.0
H154 H 0.4338 0.57709 0.00404 0.0
H155 H 0.49047 0.62609 0.00046 0.0
H156 H 0.44457 0.52271 0.00537 0.0
H157 H 0.55721 0.49972 0.93024 0.0
H158 H 0.51384 0.45267 0.89146 0.0
H159 H 0.45707 0.40379 0.89845 0.0
C160 C 0.46559 0.60423 0.47186 0.0
C161 C 0.39387 0.61121 0.45835 0.0
C162 C 0.49011 0.5747 0.47014 0.0
C163 C 0.44324 0.55142 0.45503 0.0
C164 C 0.37236 0.55854 0.44011 0.0
C165 C 0.34777 0.58804 0.44198 0.0
C166 C 0.46656 0.51963 0.45368 0.0
C167 C 0.51912 0.50892 0.48293 0.0
C168 C 0.5419 0.47706 0.48328 0.0
C169 C 0.57983 0.46684 0.52432 0.0
C170 C 0.60431 0.4374 0.52591 0.0
C171 C 0.59188 0.41741 0.48626 0.0
H172 H 0.50216 0.46411 0.41056 0.0
C173 C 0.55367 0.42752 0.44517 0.0
C174 C 0.52921 0.45704 0.44354 0.0
H175 H 0.54437 0.41284 0.41365 0.0
H176 H 0.50246 0.62152 0.48473 0.0
H177 H 0.54591 0.57033 0.48038 0.0
H178 H 0.3354 0.54115 0.42765 0.0
H179 H 0.29261 0.59271 0.43047 0.0
H180 H 0.4361 0.50442 0.42993 0.0
H181 H 0.54465 0.52382 0.50977 0.0
H182 H 0.59061 0.48171 0.55543 0.0
H183 H 0.63284 0.43027 0.55837 0.0
C184 C 0.09018 0.09047 0.96776 0.0
C185 C 0.07988 0.1124 0.00492 0.0
C186 C 0.06056 0.06198 0.97234 0.0
C187 C 0.02031 0.05468 0.01448 0.0
C188 C 0.0092 0.07672 0.05124 0.0
C189 C 0.03885 0.1052 0.04667 0.0
C190 C 0.98691 0.02478 0.02058 0.0
C191 C 0.01207 0.99978 -0.00215 0.0
C192 C 0.97842 0.96984 0.00309 0.0
C193 C 0.02002 0.94445 -0.00921 0.0
C194 C 0.98983 0.91595 -0.00686 0.0
C195 C 0.91694 0.91213 0.00754 0.0
H196 H 0.8707 0.98493 0.02626 0.0
C197 C 0.87528 0.93752 0.02006 0.0
C198 C 0.90546 0.96604 0.01772 0.0
H199 H 0.81906 0.93537 0.03154 0.0
H200 H 0.12014 0.09547 0.93464 0.0
H201 H 0.06819 0.04606 0.9423 0.0
H202 H 0.978 0.07182 0.08391 0.0
H203 H 0.03042 0.12145 0.07621 0.0
H204 H 0.94202 0.02336 0.04641 0.0
H205 H 0.06113 1.00088 0.97564 0.0
H206 H 0.07607 0.94667 0.97893 0.0
H207 H 0.02315 0.89694 0.98242 0.0
C208 C 0.87767 0.08901 0.50578 0.0
C209 C 0.91725 0.11446 0.49287 0.0
C210 C 0.91139 0.06109 0.5065 0.0
C211 C 0.98572 0.05804 0.49454 0.0
C212 C 0.02487 0.08341 0.48101 0.0
C213 C 0.9912 0.11131 0.48036 0.0
C214 C 0.02366 0.02875 0.49389 0.0
C215 C 0.00127 1.00528 0.51993 0.0
C216 C 0.03895 0.97591 0.51872 0.0
C217 C 0.02808 0.95652 0.55779 0.0
C218 C 0.06082 0.92838 0.5574 0.0
C219 C 0.10494 0.91895 0.51771 0.0
H220 H 0.0906 0.98009 0.44712 0.0
C221 C 0.11569 0.93829 0.47852 0.0
C222 C 0.08284 0.96638 0.47884 0.0
H223 H 0.14797 0.93141 0.44686 0.0
H224 H 0.82067 0.0907 0.51575 0.0
H225 H 0.87858 0.042 0.51565 0.0
H226 H 0.08189 0.08168 0.471 0.0
H227 H 0.02295 0.13037 0.46941 0.0
H228 H 0.07371 0.0271 0.47271 0.0
H229 H 0.95518 1.0078 0.54474 0.0
H230 H 0.99418 0.96317 0.58882 0.0
H231 H 0.05181 0.91406 0.5883 0.0
C232 C 0.59683 0.25968 0.33473 0.0
C233 C 0.66287 0.24619 0.34742 0.0
C234 C 0.56246 0.25184 0.29075 0.0
C235 C 0.59447 0.23108 0.25798 0.0
C236 C 0.66143 0.21801 0.26992 0.0
C237 C 0.695 0.22526 0.31473 0.0
C238 C 0.55516 0.22309 0.2124 0.0
C239 C 0.58811 0.22007 0.16842 0.0
C240 C 0.54317 0.21969 0.12355 0.0
C241 C 0.55343 0.24199 0.08909 0.0
C242 C 0.49945 0.24758 0.05443 0.0
C243 C 0.43537 0.23046 0.05328 0.0
H244 H 0.47421 0.18318 0.1454 0.0
C245 C 0.42932 0.20592 0.08411 0.0
C246 C 0.48262 0.20073 0.11933 0.0
H247 H 0.38078 0.19223 0.08384 0.0
H248 H 0.57056 0.27565 0.35948 0.0
H249 H 0.51076 0.26212 0.28217 0.0
H250 H 0.68668 0.20168 0.24535 0.0
H251 H 0.74586 0.21451 0.32385 0.0
H252 H 0.49596 0.22353 0.21412 0.0
H253 H 0.64658 0.22319 0.1652 0.0
H254 H 0.59993 0.25678 0.09175 0.0
H255 H 0.50584 0.26642 0.03066 0.0
C256 C 0.55721 0.81525 0.08296 0.0
C257 C 0.56153 0.78813 0.05625 0.0
C258 C 0.50029 0.82037 0.11631 0.0
C259 C 0.44704 0.79831 0.12348 0.0
C260 C 0.44736 0.77274 0.09281 0.0
C261 C 0.50418 0.76761 0.05967 0.0
C262 C 0.39657 0.79884 0.16613 0.0
C263 C 0.41063 0.81398 0.20832 0.0
C264 C 0.37653 0.80587 0.25541 0.0
C265 C 0.36494 0.82791 0.29198 0.0
C266 C 0.34002 0.82014 0.33849 0.0
C267 C 0.32829 0.79007 0.34952 0.0
H268 H 0.37432 0.75819 0.23937 0.0
C269 C 0.33992 0.76803 0.31292 0.0
C270 C 0.36352 0.77584 0.26625 0.0
H271 H 0.33124 0.74469 0.32039 0.0
H272 H 0.59995 0.83176 0.08034 0.0
H273 H 0.50025 0.84099 0.13769 0.0
H274 H 0.40642 0.7556 0.09693 0.0
H275 H 0.50518 0.74674 0.03879 0.0
H276 H 0.35254 0.78265 0.16563 0.0
H277 H 0.45301 0.83077 0.21017 0.0
H278 H 0.37586 0.85111 0.28467 0.0
H279 H 0.3317 0.83759 0.36615 0.0
C280 C 0.7165 0.80126 0.81836 0.0
C281 C 0.67862 0.78257 0.85025 0.0
C282 C 0.68556 0.80899 0.77349 0.0
C283 C 0.61557 0.79884 0.76105 0.0
C284 C 0.57748 0.78066 0.79336 0.0
C285 C 0.60922 0.77214 0.83723 0.0
C286 C 0.57998 0.80692 0.71491 0.0
C287 C 0.61222 0.80288 0.67089 0.0
C288 C 0.56682 0.80212 0.62621 0.0
C289 C 0.51298 0.82382 0.61925 0.0
C290 C 0.45759 0.81874 0.58517 0.0
C291 C 0.45491 0.79177 0.55784 0.0
H292 H 0.6103 0.75986 0.59981 0.0
C293 C 0.51299 0.7715 0.5613 0.0
C294 C 0.56894 0.77678 0.59509 0.0
H295 H 0.51297 0.75073 0.54017 0.0
H296 H 0.77013 0.80956 0.8279 0.0
H297 H 0.71547 0.82325 0.74904 0.0
H298 H 0.52337 0.77267 0.78429 0.0
H299 H 0.57878 0.75794 0.8615 0.0
H300 H 0.52182 0.81149 0.71674 0.0
H301 H 0.66782 0.79462 0.66869 0.0
H302 H 0.51109 0.84377 0.64244 0.0
H303 H 0.41429 0.83505 0.58279 0.0
C304 C 0.48924 0.24747 0.55465 0.0
C305 C 0.55351 0.23055 0.5532 0.0
C306 C 0.43415 0.24087 0.58802 0.0
C307 C 0.4435 0.21774 0.62149 0.0
C308 C 0.50398 0.1988 0.61609 0.0
C309 C 0.55864 0.20512 0.58211 0.0
C310 C 0.39791 0.21559 0.66642 0.0
C311 C 0.37062 0.24025 0.68887 0.0
C312 C 0.34641 0.24173 0.74084 0.0
C313 C 0.35131 0.26936 0.76574 0.0
C314 C 0.33376 0.27209 0.81535 0.0
C315 C 0.30973 0.24727 0.84133 0.0
H316 H 0.31561 0.19527 0.74814 0.0
C317 C 0.30308 0.21961 0.81635 0.0
C318 C 0.32148 0.2168 0.76644 0.0
H319 H 0.28388 0.20018 0.83534 0.0
H320 H 0.48309 0.26674 0.53177 0.0
H321 H 0.38636 0.255 0.5894 0.0
H322 H 0.51192 0.18053 0.64083 0.0
H323 H 0.60731 0.19146 0.58132 0.0
H324 H 0.39845 0.19465 0.68557 0.0
H325 H 0.37608 0.26154 0.67108 0.0
H326 H 0.37023 0.28893 0.74697 0.0
H327 H 0.33877 0.29382 0.83323 0.0
C328 C 0.8405 0.76075 0.16708 0.0
C329 C 0.82742 0.73818 0.13165 0.0
C330 C 0.86237 0.75354 0.21432 0.0
C331 C 0.87211 0.72358 0.22694 0.0
C332 C 0.8591 0.70102 0.19154 0.0
C333 C 0.83595 0.70822 0.14444 0.0
C334 C 0.90449 0.71589 0.27465 0.0
C335 C 0.89163 0.73223 0.31587 0.0
C336 C 0.94188 0.73281 0.35842 0.0
C337 C 0.94554 0.75914 0.38713 0.0
C338 C 0.0029 0.76386 0.41978 0.0
C339 C 0.05746 0.74218 0.42458 0.0
H340 H 0.98929 0.68865 0.34734 0.0
C341 C 0.04961 0.71453 0.39988 0.0
C342 C 0.9921 0.70981 0.36712 0.0
H343 H 0.08999 0.69713 0.40371 0.0
H344 H 0.83426 0.78403 0.15825 0.0
H345 H 0.87441 0.77154 0.24024 0.0
H346 H 0.86755 0.67783 0.20023 0.0
H347 H 0.8264 0.69036 0.11772 0.0
H348 H 0.94505 0.69831 0.27392 0.0
H349 H 0.84946 0.74925 0.3153 0.0
H350 H 0.90693 0.77704 0.38178 0.0
H351 H 0.0066 0.7852 0.43909 0.0
C352 C 0.00062 0.27963 0.42243 0.0
C353 C 0.93691 0.29701 0.4248 0.0
C354 C 0.05471 0.2857 0.38793 0.0
C355 C 0.04496 0.30877 0.3548 0.0
C356 C 0.98485 0.32793 0.36037 0.0
C357 C 0.93142 0.32223 0.39544 0.0
C358 C 0.0898 0.30901 0.30973 0.0
C359 C 0.05665 0.30744 0.2658 0.0
C360 C 0.09524 0.29928 0.21987 0.0
C361 C 0.06188 0.279 0.1871 0.0
C362 C 0.09592 0.27075 0.14306 0.0
C363 C 0.16297 0.28338 0.1303 0.0
H364 H 0.1894 0.32748 0.23243 0.0
C365 C 0.19634 0.30392 0.1629 0.0
C366 C 0.16309 0.31154 0.20781 0.0
H367 H 0.248 0.31401 0.15369 0.0
H368 H 0.00664 0.26027 0.4451 0.0
H369 H 0.10087 0.27074 0.38425 0.0
H370 H 0.97684 0.34608 0.3354 0.0
H371 H 0.88321 0.33615 0.3967 0.0
H372 H 0.14795 0.30487 0.31243 0.0
H373 H 0.99746 0.30795 0.2643 0.0
H374 H 0.00949 0.26933 0.19579 0.0
H375 H 0.06871 0.2551 0.11835 0.0
C376 C 0.80348 0.30545 0.66191 0.0
C377 C 0.81262 0.27807 0.63638 0.0
C378 C 0.82174 0.3082 0.71174 0.0
C379 C 0.84922 0.28351 0.73672 0.0
C380 C 0.85683 0.25614 0.71127 0.0
C381 C 0.83926 0.25347 0.66169 0.0
C382 C 0.87314 0.28508 0.78864 0.0
C383 C 0.89756 0.31008 0.81144 0.0
C384 C 0.94252 0.30842 0.8565 0.0
C385 C 0.00219 0.3277 0.86187 0.0
C386 C 0.05673 0.32174 0.89595 0.0
C387 C 0.05217 0.29634 0.92498 0.0
H388 H 0.88635 0.27093 0.88859 0.0
C389 C 0.98845 0.27913 0.92363 0.0
C390 C 0.93355 0.28534 0.8901 0.0
H391 H 0.98272 0.25988 0.9466 0.0
H392 H 0.78223 0.32471 0.64345 0.0
H393 H 0.81369 0.32949 0.73045 0.0
H394 H 0.87777 0.23675 0.7296 0.0
H395 H 0.84629 0.23196 0.64332 0.0
H396 H 0.88069 0.26381 0.80615 0.0
H397 H 0.89633 0.33111 0.79255 0.0
H398 H 0.00974 0.34594 0.83698 0.0
H399 H 0.10495 0.33562 0.89667 0.0
C400 C 0.21228 0.72239 0.65956 0.0
C401 C 0.17614 0.74248 0.6292 0.0
C402 C 0.18083 0.71413 0.7041 0.0
C403 C 0.11199 0.7252 0.71772 0.0
C404 C 0.0756 0.74483 0.68693 0.0
C405 C 0.10792 0.75382 0.64343 0.0
C406 C 0.07588 0.71668 0.76357 0.0
C407 C 0.10902 0.71881 0.80746 0.0
C408 C 0.06413 0.71956 0.85252 0.0
C409 C 0.00785 0.69884 0.85875 0.0
C410 C 0.95312 0.70444 0.89336 0.0
C411 C 0.95355 0.73098 0.92187 0.0
H412 H 0.11248 0.76043 0.88066 0.0
C413 C 0.01394 0.75011 0.91907 0.0
C414 C 0.06924 0.74427 0.88481 0.0
H415 H 0.01629 0.77051 0.94112 0.0
H416 H 0.26495 0.71336 0.64908 0.0
H417 H 0.20941 0.69877 0.72733 0.0
H418 H 0.0224 0.75356 0.69693 0.0
H419 H 0.07878 0.76912 0.62035 0.0
H420 H 0.0172 0.71347 0.76206 0.0
H421 H 0.16563 0.72575 0.80967 0.0
H422 H 0.00357 0.67939 0.83457 0.0
H423 H 0.90789 0.68902 0.89514 0.0
loop_
_geom_bond_atom_site_label_1
_geom_bond_atom_site_label_2
_geom_bond_distance
_geom_bond_site_symmetry_2
_ccdc_geom_bond_type
C0 O16 1.251 . S
C0 O18 1.254 . S
N1 C2 1.333 1_554 S
N1 C6 1.307 . S
N1 Zn7 2.020 . S
C2 N1 1.333 1_556 S
C2 C3 1.379 . S
C2 H20 0.952 . S
C3 C2 1.379 . S
C3 C4 1.390 1_556 S
C3 H30 0.949 . S
C4 C3 1.390 1_554 S
C4 C5 1.357 . S
C5 C4 1.357 . S
C5 C6 1.370 . S
C5 H31 0.950 . S
C6 N1 1.307 . S
C6 C5 1.370 . S
C6 H24 0.948 . S
Zn7 N1 2.020 . S
Zn7 O16 2.039 1_554 S
Zn7 O22 2.034 . S
Zn7 O26 2.025 . S
Zn7 O28 2.024 1_554 S
C8 O27 1.246 . S
C8 O28 1.249 . S
N9 C10 1.307 . S
N9 C11 1.333 1_556 S
N9 Zn15 2.020 . S
C10 N9 1.307 . S
C10 C14 1.370 . S
C10 H21 0.948 . S
C11 N9 1.333 1_554 S
C11 C12 1.379 . S
C11 H19 0.952 . S
C12 C11 1.379 . S
C12 C13 1.390 1_554 S
C12 H32 0.949 . S
C13 C12 1.390 1_556 S
C13 C14 1.357 . S
C14 C10 1.370 . S
C14 C13 1.357 . S
C14 H33 0.950 . S
Zn15 N9 2.020 . S
Zn15 O18 2.035 . S
Zn15 O23 2.015 1_556 S
Zn15 O25 2.030 1_556 S
Zn15 O27 2.043 . S
O16 C0 1.251 . S
O16 Zn7 2.039 1_556 S
C17 O22 1.246 . S
C17 O23 1.249 . S
O18 C0 1.254 . S
O18 Zn15 2.035 . S
H19 C11 0.952 . S
H20 C2 0.952 . S
H21 C10 0.948 . S
O22 Zn7 2.034 . S
O22 C17 1.246 . S
O23 Zn15 2.015 1_554 S
O23 C17 1.249 . S
H24 C6 0.948 . S
O25 Zn15 2.030 1_554 S
O25 C29 1.251 . S
O26 Zn7 2.025 . S
O26 C29 1.254 . S
O27 C8 1.246 . S
O27 Zn15 2.043 . S
O28 Zn7 2.024 1_556 S
O28 C8 1.249 . S
C29 O25 1.251 . S
C29 O26 1.254 . S
H30 C3 0.949 . S
H31 C5 0.950 . S
H32 C12 0.949 . S
H33 C14 0.950 . S
C34 O50 1.251 . S
C34 O52 1.254 . S
N35 C36 1.333 1_554 S
N35 C40 1.307 . S
N35 Zn41 2.020 . S
C36 N35 1.333 1_556 S
C36 C37 1.379 . S
C36 H54 0.952 . S
C37 C36 1.379 . S
C37 C38 1.390 1_556 S
C37 H64 0.949 . S
C38 C37 1.390 1_554 S
C38 C39 1.357 . S
C39 C38 1.357 . S
C39 C40 1.370 . S
C39 H65 0.950 . S
C40 N35 1.307 . S
C40 C39 1.370 . S
C40 H58 0.948 . S
Zn41 N35 2.020 . S
Zn41 O50 2.039 1_554 S
Zn41 O56 2.034 . S
Zn41 O60 2.025 . S
Zn41 O62 2.024 1_554 S
C42 O61 1.246 . S
C42 O62 1.249 . S
N43 C44 1.307 . S
N43 C45 1.333 1_556 S
N43 Zn49 2.020 . S
C44 N43 1.307 . S
C44 C48 1.370 . S
C44 H55 0.948 . S
C45 N43 1.333 1_554 S
C45 C46 1.379 . S
C45 H53 0.952 . S
C46 C45 1.379 . S
C46 C47 1.390 1_554 S
C46 H66 0.949 . S
C47 C46 1.390 1_556 S
C47 C48 1.357 . S
C48 C44 1.370 . S
C48 C47 1.357 . S
C48 H67 0.950 . S
Zn49 N43 2.020 . S
Zn49 O52 2.035 . S
Zn49 O57 2.015 1_556 S
Zn49 O59 2.030 1_556 S
Zn49 O61 2.043 . S
O50 C34 1.251 . S
O50 Zn41 2.039 1_556 S
C51 O56 1.246 . S
C51 O57 1.249 . S
O52 C34 1.254 . S
O52 Zn49 2.035 . S
H53 C45 0.952 . S
H54 C36 0.952 . S
H55 C44 0.948 . S
O56 Zn41 2.034 . S
O56 C51 1.246 . S
O57 Zn49 2.015 1_554 S
O57 C51 1.249 . S
H58 C40 0.948 . S
O59 Zn49 2.030 1_554 S
O59 C63 1.251 . S
O60 Zn41 2.025 . S
O60 C63 1.254 . S
O61 C42 1.246 . S
O61 Zn49 2.043 . S
O62 Zn41 2.024 1_556 S
O62 C42 1.249 . S
C63 O59 1.251 . S
C63 O60 1.254 . S
H64 C37 0.949 . S
H65 C39 0.950 . S
H66 C46 0.949 . S
H67 C48 0.950 . S
C68 O84 1.251 . S
C68 O86 1.254 . S
N69 C70 1.333 . S
N69 C74 1.307 . S
N69 Zn75 2.020 . S
C70 N69 1.333 . S
C70 C71 1.379 . S
C70 H88 0.952 . S
C71 C70 1.379 . S
C71 C72 1.390 . S
C71 H98 0.949 . S
C72 C71 1.390 . S
C72 C73 1.357 . S
C73 C72 1.357 . S
C73 C74 1.370 . S
C73 H99 0.950 . S
C74 N69 1.307 . S
C74 C73 1.370 . S
C74 H92 0.948 . S
Zn75 N69 2.020 . S
Zn75 O84 2.039 . S
Zn75 O90 2.034 . S
Zn75 O94 2.025 . S
Zn75 O96 2.024 . S
C76 O95 1.246 . S
C76 O96 1.249 . S
N77 C78 1.307 . S
N77 C79 1.333 . S
N77 Zn83 2.020 . S
C78 N77 1.307 . S
C78 C82 1.370 . S
C78 H89 0.948 . S
C79 N77 1.333 . S
C79 C80 1.379 . S
C79 H87 0.952 . S
C80 C79 1.379 . S
C80 C81 1.390 . S
C80 H100 0.949 . S
C81 C80 1.390 . S
C81 C82 1.357 . S
C82 C78 1.370 . S
C82 C81 1.357 . S
C82 H101 0.950 . S
Zn83 N77 2.020 . S
Zn83 O86 2.025 . S
Zn83 O91 2.024 . S
Zn83 O93 2.039 . S
Zn83 O95 2.034 . S
O84 C68 1.251 . S
O84 Zn75 2.039 . S
C85 O90 1.246 . S
C85 O91 1.249 . S
O86 C68 1.254 . S
O86 Zn83 2.025 . S
H87 C79 0.952 . S
H88 C70 0.952 . S
H89 C78 0.948 . S
O90 Zn75 2.034 . S
O90 C85 1.246 . S
O91 Zn83 2.024 . S
O91 C85 1.249 . S
H92 C74 0.948 . S
O93 Zn83 2.039 . S
O93 C97 1.251 . S
O94 Zn75 2.025 . S
O94 C97 1.254 . S
O95 C76 1.246 . S
O95 Zn83 2.034 . S
O96 Zn75 2.024 . S
O96 C76 1.249 . S
C97 O93 1.251 . S
C97 O94 1.254 . S
H98 C71 0.949 . S
H99 C73 0.950 . S
H100 C80 0.949 . S
H101 C82 0.950 . S
C102 O118 1.251 . S
C102 O120 1.254 . S
N103 C104 1.333 . S
N103 C108 1.307 . S
N103 Zn109 2.020 . S
C104 N103 1.333 . S
C104 C105 1.379 . S
C104 H122 0.952 . S
C105 C104 1.379 . S
C105 C106 1.390 . S
C105 H132 0.949 . S
C106 C105 1.390 . S
C106 C107 1.357 . S
C107 C106 1.357 . S
C107 C108 1.370 . S
C107 H133 0.950 . S
C108 N103 1.307 . S
C108 C107 1.370 . S
C108 H126 0.948 . S
Zn109 N103 2.020 . S
Zn109 O118 2.039 . S
Zn109 O124 2.034 . S
Zn109 O128 2.025 . S
Zn109 O130 2.024 . S
C110 O129 1.246 . S
C110 O130 1.249 . S
N111 C112 1.307 . S
N111 C113 1.333 . S
N111 Zn117 2.020 . S
C112 N111 1.307 . S
C112 C116 1.370 . S
C112 H123 0.948 . S
C113 N111 1.333 . S
C113 C114 1.379 . S
C113 H121 0.952 . S
C114 C113 1.379 . S
C114 C115 1.390 . S
C114 H134 0.949 . S
C115 C114 1.390 . S
C115 C116 1.357 . S
C116 C112 1.370 . S
C116 C115 1.357 . S
C116 H135 0.950 . S
Zn117 N111 2.020 . S
Zn117 O120 2.025 . S
Zn117 O125 2.024 . S
Zn117 O127 2.039 . S
Zn117 O129 2.034 . S
O118 C102 1.251 . S
O118 Zn109 2.039 . S
C119 O124 1.246 . S
C119 O125 1.249 . S
O120 C102 1.254 . S
O120 Zn117 2.025 . S
H121 C113 0.952 . S
H122 C104 0.952 . S
H123 C112 0.948 . S
O124 Zn109 2.034 . S
O124 C119 1.246 . S
O125 Zn117 2.024 . S
O125 C119 1.249 . S
H126 C108 0.948 . S
O127 Zn117 2.039 . S
O127 C131 1.251 . S
O128 Zn109 2.025 . S
O128 C131 1.254 . S
O129 C110 1.246 . S
O129 Zn117 2.034 . S
O130 Zn109 2.024 . S
O130 C110 1.249 . S
C131 O127 1.251 . S
C131 O128 1.254 . S
H132 C105 0.949 . S
H133 C107 0.950 . S
H134 C114 0.949 . S
H135 C116 0.950 . S
C136 C137 1.386 1_556 S
C136 C138 1.383 . S
C136 H152 0.951 . S
C137 C136 1.386 1_554 S
C137 C141 1.383 . S
C138 C136 1.383 . S
C138 C139 1.402 1_556 S
C138 H153 0.951 . S
C139 C138 1.402 1_554 S
C139 C140 1.375 . S
C139 C142 1.481 . S
C140 C139 1.375 . S
C140 C141 1.367 . S
C140 H154 0.951 . S
C141 C137 1.383 . S
C141 C140 1.367 . S
C141 H155 0.950 . S
C142 C139 1.481 . S
C142 C143 1.297 . S
C142 H156 0.950 . S
C143 C142 1.297 . S
C143 C144 1.479 . S
C143 H157 0.950 . S
C144 C143 1.479 . S
C144 C145 1.375 1_554 S
C144 C150 1.404 . S
C145 C144 1.375 1_556 S
C145 C146 1.369 . S
C145 H158 0.950 . S
C146 C145 1.369 . S
C146 C147 1.392 1_556 S
C146 H159 0.951 . S
C147 C146 1.392 1_554 S
C147 C149 1.384 . S
H148 C150 0.949 . S
C149 C147 1.384 . S
C149 C150 1.385 . S
C149 H151 0.950 . S
C150 C144 1.404 . S
C150 H148 0.949 . S
C150 C149 1.385 . S
H151 C149 0.950 . S
H152 C136 0.951 . S
H153 C138 0.951 . S
H154 C140 0.951 . S
H155 C141 0.950 . S
H156 C142 0.950 . S
H157 C143 0.950 . S
H158 C145 0.950 . S
H159 C146 0.951 . S
C160 C161 1.386 . S
C160 C162 1.383 . S
C160 H176 0.951 . S
C161 C160 1.386 . S
C161 C165 1.383 . S
C162 C160 1.383 . S
C162 C163 1.402 . S
C162 H177 0.951 . S
C163 C162 1.402 . S
C163 C164 1.375 . S
C163 C166 1.481 . S
C164 C163 1.375 . S
C164 C165 1.367 . S
C164 H178 0.951 . S
C165 C161 1.383 . S
C165 C164 1.367 . S
C165 H179 0.950 . S
C166 C163 1.481 . S
C166 C167 1.297 . S
C166 H180 0.950 . S
C167 C166 1.297 . S
C167 C168 1.479 . S
C167 H181 0.950 . S
C168 C167 1.479 . S
C168 C169 1.375 . S
C168 C174 1.404 . S
C169 C168 1.375 . S
C169 C170 1.369 . S
C169 H182 0.950 . S
C170 C169 1.369 . S
C170 C171 1.392 . S
C170 H183 0.951 . S
C171 C170 1.392 . S
C171 C173 1.384 . S
H172 C174 0.949 . S
C173 C171 1.384 . S
C173 C174 1.385 . S
C173 H175 0.950 . S
C174 C168 1.404 . S
C174 H172 0.949 . S
C174 C173 1.385 . S
H175 C173 0.950 . S
H176 C160 0.951 . S
H177 C162 0.951 . S
H178 C164 0.951 . S
H179 C165 0.950 . S
H180 C166 0.950 . S
H181 C167 0.950 . S
H182 C169 0.950 . S
H183 C170 0.951 . S
C184 C185 1.386 1_556 S
C184 C186 1.383 . S
C184 H200 0.951 . S
C185 C184 1.386 1_554 S
C185 C189 1.383 . S
C186 C184 1.383 . S
C186 C187 1.402 1_556 S
C186 H201 0.951 . S
C187 C186 1.402 1_554 S
C187 C188 1.375 . S
C187 C190 1.481 . S
C188 C187 1.375 . S
C188 C189 1.367 . S
C188 H202 0.951 . S
C189 C185 1.383 . S
C189 C188 1.367 . S
C189 H203 0.950 . S
C190 C187 1.481 . S
C190 C191 1.297 1_544 S
C190 H204 0.950 . S
C191 C190 1.297 1_566 S
C191 C192 1.481 1_455 S
C191 H205 0.950 . S
C192 C191 1.481 1_655 S
C192 C193 1.382 . S
C192 C198 1.396 1_556 S
C193 C192 1.382 . S
C193 C194 1.369 . S
C193 H206 0.950 . S
C194 C193 1.369 . S
C194 C195 1.392 1_556 S
C194 H207 0.951 . S
C195 C194 1.392 1_554 S
C195 C197 1.384 . S
H196 C198 0.949 . S
C197 C195 1.384 . S
C197 C198 1.385 . S
C197 H199 0.950 . S
C198 C192 1.396 1_554 S
C198 H196 0.949 . S
C198 C197 1.385 . S
H199 C197 0.950 . S
H200 C184 0.951 . S
H201 C186 0.951 . S
H202 C188 0.951 . S
H203 C189 0.950 . S
H204 C190 0.950 . S
H205 C191 0.950 . S
H206 C193 0.950 . S
H207 C194 0.951 . S
C208 C209 1.386 . S
C208 C210 1.383 . S
C208 H224 0.951 . S
C209 C208 1.386 . S
C209 C213 1.383 . S
C210 C208 1.383 . S
C210 C211 1.402 . S
C210 H225 0.951 . S
C211 C210 1.402 . S
C211 C212 1.375 . S
C211 C214 1.481 1_655 S
C212 C211 1.375 . S
C212 C213 1.367 . S
C212 H226 0.951 1_655 S
C213 C209 1.383 . S
C213 C212 1.367 . S
C213 H227 0.950 . S
C214 C211 1.481 1_455 S
C214 C215 1.297 1_445 S
C214 H228 0.950 . S
C215 C214 1.297 1_665 S
C215 C216 1.479 1_655 S
C215 H229 0.950 . S
C216 C215 1.479 1_455 S
C216 C217 1.375 . S
C216 C222 1.404 . S
C217 C216 1.375 . S
C217 C218 1.369 . S
C217 H230 0.950 1_455 S
C218 C217 1.369 . S
C218 C219 1.392 . S
C218 H231 0.951 . S
C219 C218 1.392 . S
C219 C221 1.384 . S
H220 C222 0.949 . S
C221 C219 1.384 . S
C221 C222 1.385 . S
C221 H223 0.950 . S
C222 C216 1.404 . S
C222 H220 0.949 . S
C222 C221 1.385 . S
H223 C221 0.950 . S
H224 C208 0.951 . S
H225 C210 0.951 . S
H226 C212 0.951 1_455 S
H227 C213 0.950 . S
H228 C214 0.950 . S
H229 C215 0.950 . S
H230 C217 0.950 1_655 S
H231 C218 0.951 . S
C232 C233 1.386 . S
C232 C234 1.383 . S
C232 H248 0.951 . S
C233 C232 1.386 . S
C233 C237 1.383 . S
C234 C232 1.383 . S
C234 C235 1.402 . S
C234 H249 0.951 . S
C235 C234 1.402 . S
C235 C236 1.375 . S
C235 C238 1.481 . S
C236 C235 1.375 . S
C236 C237 1.367 . S
C236 H250 0.951 . S
C237 C233 1.383 . S
C237 C236 1.367 . S
C237 H251 0.950 . S
C238 C235 1.481 . S
C238 C239 1.297 . S
C238 H252 0.950 . S
C239 C238 1.297 . S
C239 C240 1.479 . S
C239 H253 0.950 . S
C240 C239 1.479 . S
C240 C241 1.375 . S
C240 C246 1.404 . S
C241 C240 1.375 . S
C241 C242 1.369 . S
C241 H254 0.950 . S
C242 C241 1.369 . S
C242 C243 1.392 . S
C242 H255 0.951 . S
C243 C242 1.392 . S
C243 C245 1.384 . S
H244 C246 0.949 . S
C245 C243 1.384 . S
C245 C246 1.385 . S
C245 H247 0.950 . S
C246 C240 1.404 . S
C246 H244 0.949 . S
C246 C245 1.385 . S
H247 C245 0.950 . S
H248 C232 0.951 . S
H249 C234 0.951 . S
H250 C236 0.951 . S
H251 C237 0.950 . S
H252 C238 0.950 . S
H253 C239 0.950 . S
H254 C241 0.950 . S
H255 C242 0.951 . S
C256 C257 1.386 . S
C256 C258 1.383 . S
C256 H272 0.951 . S
C257 C256 1.386 . S
C257 C261 1.383 . S
C258 C256 1.383 . S
C258 C259 1.402 . S
C258 H273 0.951 . S
C259 C258 1.402 . S
C259 C260 1.375 . S
C259 C262 1.481 . S
C260 C259 1.375 . S
C260 C261 1.367 . S
C260 H274 0.951 . S
C261 C257 1.383 . S
C261 C260 1.367 . S
C261 H275 0.950 . S
C262 C259 1.481 . S
C262 C263 1.297 . S
C262 H276 0.950 . S
C263 C262 1.297 . S
C263 C264 1.479 . S
C263 H277 0.950 . S
C264 C263 1.479 . S
C264 C265 1.375 . S
C264 C270 1.404 . S
C265 C264 1.375 . S
C265 C266 1.369 . S
C265 H278 0.950 . S
C266 C265 1.369 . S
C266 C267 1.392 . S
C266 H279 0.951 . S
C267 C266 1.392 . S
C267 C269 1.384 . S
H268 C270 0.949 . S
C269 C267 1.384 . S
C269 C270 1.385 . S
C269 H271 0.950 . S
C270 C264 1.404 . S
C270 H268 0.949 . S
C270 C269 1.385 . S
H271 C269 0.950 . S
H272 C256 0.951 . S
H273 C258 0.951 . S
H274 C260 0.951 . S
H275 C261 0.950 . S
H276 C262 0.950 . S
H277 C263 0.950 . S
H278 C265 0.950 . S
H279 C266 0.951 . S
C280 C281 1.386 . S
C280 C282 1.383 . S
C280 H296 0.951 . S
C281 C280 1.386 . S
C281 C285 1.383 . S
C282 C280 1.383 . S
C282 C283 1.402 . S
C282 H297 0.951 . S
C283 C282 1.402 . S
C283 C284 1.375 . S
C283 C286 1.481 . S
C284 C283 1.375 . S
C284 C285 1.367 . S
C284 H298 0.951 . S
C285 C281 1.383 . S
C285 C284 1.367 . S
C285 H299 0.950 . S
C286 C283 1.481 . S
C286 C287 1.297 . S
C286 H300 0.950 . S
C287 C286 1.297 . S
C287 C288 1.479 . S
C287 H301 0.950 . S
C288 C287 1.479 . S
C288 C289 1.375 . S
C288 C294 1.404 . S
C289 C288 1.375 . S
C289 C290 1.369 . S
C289 H302 0.950 . S
C290 C289 1.369 . S
C290 C291 1.392 . S
C290 H303 0.951 . S
C291 C290 1.392 . S
C291 C293 1.384 . S
H292 C294 0.949 . S
C293 C291 1.384 . S
C293 C294 1.385 . S
C293 H295 0.950 . S
C294 C288 1.404 . S
C294 H292 0.949 . S
C294 C293 1.385 . S
H295 C293 0.950 . S
H296 C280 0.951 . S
H297 C282 0.951 . S
H298 C284 0.951 . S
H299 C285 0.950 . S
H300 C286 0.950 . S
H301 C287 0.950 . S
H302 C289 0.950 . S
H303 C290 0.951 . S
C304 C305 1.386 . S
C304 C306 1.383 . S
C304 H320 0.951 . S
C305 C304 1.386 . S
C305 C309 1.383 . S
C306 C304 1.383 . S
C306 C307 1.402 . S
C306 H321 0.951 . S
C307 C306 1.402 . S
C307 C308 1.375 . S
C307 C310 1.481 . S
C308 C307 1.375 . S
C308 C309 1.367 . S
C308 H322 0.951 . S
C309 C305 1.383 . S
C309 C308 1.367 . S
C309 H323 0.950 . S
C310 C307 1.481 . S
C310 C311 1.297 . S
C310 H324 0.950 . S
C311 C310 1.297 . S
C311 C312 1.479 . S
C311 H325 0.950 . S
C312 C311 1.479 . S
C312 C313 1.375 . S
C312 C318 1.404 . S
C313 C312 1.375 . S
C313 C314 1.369 . S
C313 H326 0.950 . S
C314 C313 1.369 . S
C314 C315 1.392 . S
C314 H327 0.951 . S
C315 C314 1.392 . S
C315 C317 1.384 . S
H316 C318 0.949 . S
C317 C315 1.384 . S
C317 C318 1.385 . S
C317 H319 0.950 . S
C318 C312 1.404 . S
C318 H316 0.949 . S
C318 C317 1.385 . S
H319 C317 0.950 . S
H320 C304 0.951 . S
H321 C306 0.951 . S
H322 C308 0.951 . S
H323 C309 0.950 . S
H324 C310 0.950 . S
H325 C311 0.950 . S
H326 C313 0.950 . S
H327 C314 0.951 . S
C328 C329 1.386 . S
C328 C330 1.383 . S
C328 H344 0.951 . S
C329 C328 1.386 . S
C329 C333 1.383 . S
C330 C328 1.383 . S
C330 C331 1.402 . S
C330 H345 0.951 1_655 S
C331 C330 1.402 . S
C331 C332 1.375 . S
C331 C334 1.481 . S
C332 C331 1.375 . S
C332 C333 1.367 . S
C332 H346 0.951 . S
C333 C329 1.383 . S
C333 C332 1.367 . S
C333 H347 0.950 . S
C334 C331 1.481 . S
C334 C335 1.297 1_655 S
C334 H348 0.950 . S
C335 C334 1.297 1_455 S
C335 C336 1.479 . S
C335 H349 0.950 . S
C336 C335 1.479 . S
C336 C337 1.375 . S
C336 C342 1.404 . S
C337 C336 1.375 . S
C337 C338 1.369 . S
C337 H350 0.950 . S
C338 C337 1.369 . S
C338 C339 1.392 . S
C338 H351 0.951 . S
C339 C338 1.392 . S
C339 C341 1.384 . S
H340 C342 0.949 1_655 S
C341 C339 1.384 . S
C341 C342 1.385 . S
C341 H343 0.950 . S
C342 C336 1.404 . S
C342 H340 0.949 1_455 S
C342 C341 1.385 . S
H343 C341 0.950 . S
H344 C328 0.951 . S
H345 C330 0.951 1_455 S
H346 C332 0.951 . S
H347 C333 0.950 . S
H348 C334 0.950 . S
H349 C335 0.950 . S
H350 C337 0.950 . S
H351 C338 0.951 . S
C352 C353 1.386 . S
C352 C354 1.383 . S
C352 H368 0.951 . S
C353 C352 1.386 . S
C353 C357 1.383 . S
C354 C352 1.383 . S
C354 C355 1.402 . S
C354 H369 0.951 . S
C355 C354 1.402 . S
C355 C356 1.375 . S
C355 C358 1.481 . S
C356 C355 1.375 . S
C356 C357 1.367 . S
C356 H370 0.951 1_655 S
C357 C353 1.383 . S
C357 C356 1.367 . S
C357 H371 0.950 . S
C358 C355 1.481 . S
C358 C359 1.297 . S
C358 H372 0.950 1_655 S
C359 C358 1.297 . S
C359 C360 1.479 1_655 S
C359 H373 0.950 . S
C360 C359 1.479 1_455 S
C360 C361 1.375 . S
C360 C366 1.404 . S
C361 C360 1.375 . S
C361 C362 1.369 . S
C361 H374 0.950 1_455 S
C362 C361 1.369 . S
C362 C363 1.392 . S
C362 H375 0.951 . S
C363 C362 1.392 . S
C363 C365 1.384 . S
H364 C366 0.949 . S
C365 C363 1.384 . S
C365 C366 1.385 . S
C365 H367 0.950 . S
C366 C360 1.404 . S
C366 H364 0.949 . S
C366 C365 1.385 . S
H367 C365 0.950 . S
H368 C352 0.951 . S
H369 C354 0.951 . S
H370 C356 0.951 1_455 S
H371 C357 0.950 . S
H372 C358 0.950 1_455 S
H373 C359 0.950 . S
H374 C361 0.950 1_655 S
H375 C362 0.951 . S
C376 C377 1.386 . S
C376 C378 1.383 . S
C376 H392 0.951 . S
C377 C376 1.386 . S
C377 C381 1.383 . S
C378 C376 1.383 . S
C378 C379 1.402 . S
C378 H393 0.951 1_655 S
C379 C378 1.402 . S
C379 C380 1.375 . S
C379 C382 1.481 . S
C380 C379 1.375 . S
C380 C381 1.367 . S
C380 H394 0.951 . S
C381 C377 1.383 . S
C381 C380 1.367 . S
C381 H395 0.950 . S
C382 C379 1.481 . S
C382 C383 1.297 1_655 S
C382 H396 0.950 . S
C383 C382 1.297 1_455 S
C383 C384 1.479 . S
C383 H397 0.950 . S
C384 C383 1.479 . S
C384 C385 1.375 . S
C384 C390 1.404 . S
C385 C384 1.375 . S
C385 C386 1.369 . S
C385 H398 0.950 . S
C386 C385 1.369 . S
C386 C387 1.392 . S
C386 H399 0.951 . S
C387 C386 1.392 . S
C387 C389 1.384 . S
H388 C390 0.949 1_655 S
C389 C387 1.384 . S
C389 C390 1.385 . S
C389 H391 0.950 . S
C390 C384 1.404 . S
C390 H388 0.949 1_455 S
C390 C389 1.385 . S
H391 C389 0.950 . S
H392 C376 0.951 . S
H393 C378 0.951 1_455 S
H394 C380 0.951 . S
H395 C381 0.950 . S
H396 C382 0.950 . S
H397 C383 0.950 . S
H398 C385 0.950 . S
H399 C386 0.951 . S
C400 C401 1.386 . S
C400 C402 1.383 . S
C400 H416 0.951 . S
C401 C400 1.386 . S
C401 C405 1.383 . S
C402 C400 1.383 . S
C402 C403 1.402 . S
C402 H417 0.951 . S
C403 C402 1.402 . S
C403 C404 1.375 . S
C403 C406 1.481 . S
C404 C403 1.375 . S
C404 C405 1.367 . S
C404 H418 0.951 . S
C405 C401 1.383 . S
C405 C404 1.367 . S
C405 H419 0.950 . S
C406 C403 1.481 . S
C406 C407 1.297 . S
C406 H420 0.950 . S
C407 C406 1.297 . S
C407 C408 1.479 1_455 S
C407 H421 0.950 . S
C408 C407 1.479 1_655 S
C408 C409 1.375 . S
C408 C414 1.404 . S
C409 C408 1.375 . S
C409 C410 1.369 . S
C409 H422 0.950 . S
C410 C409 1.369 . S
C410 C411 1.392 . S
C410 H423 0.951 . S
C411 C410 1.392 . S
C411 C413 1.384 . S
H412 C414 0.949 . S
C413 C411 1.384 . S
C413 C414 1.385 . S
C413 H415 0.950 . S
C414 C408 1.404 . S
C414 H412 0.949 . S
C414 C413 1.385 . S
H415 C413 0.950 . S
H416 C400 0.951 . S
H417 C402 0.951 . S
H418 C404 0.951 . S
H419 C405 0.950 . S
H420 C406 0.950 . S
H421 C407 0.950 . S
H422 C409 0.950 . S
H423 C410 0.951 . S
C137 C47 1.627 1_554 S
C147 C4 1.602 . S
C161 C72 1.641 . S
C171 C115 1.606 . S
C185 C13 1.637 1_554 S
C195 C38 1.598 . S
C209 C106 1.620 . S
C219 C81 1.613 . S
C233 C131 0.913 . S
C243 C17 0.933 . S
C257 C63 0.936 . S
C267 C85 0.916 . S
C281 C42 0.920 . S
C291 C68 0.920 . S
C305 C110 0.926 . S
C315 C0 0.901 . S
C329 C51 0.910 . S
C339 C97 0.900 . S
C353 C119 0.927 . S
C363 C29 0.949 . S
C377 C102 0.907 . S
C387 C8 0.930 . S
C401 C76 0.911 . S
C411 C34 0.948 . S
