# Generated by pormake.
# Topology uoq, (4)-cn, num edge types: 1
# Building blocks:
#     Node 0, Type 0, BuildingBlock: CEKHIL_clean_sbu_0, # of connection points: 4
#     Node 1, Type 0, BuildingBlock: CEKHIL_clean_sbu_0, # of connection points: 4
#     Node 2, Type 0, BuildingBlock: CEKHIL_clean_sbu_0, # of connection points: 4
#     Node 3, Type 0, BuildingBlock: CEKHIL_clean_sbu_0, # of connection points: 4
#     Node 4, Type 0, BuildingBlock: CEKHIL_clean_sbu_0, # of connection points: 4
#     Node 5, Type 0, BuildingBlock: CEKHIL_clean_sbu_0, # of connection points: 4
#     Node 6, Type 0, BuildingBlock: CEKHIL_clean_sbu_0, # of connection points: 4
#     Node 7, Type 0, BuildingBlock: CEKHIL_clean_sbu_0, # of connection points: 4
#     Node 8, Type 0, BuildingBlock: CEKHIL_clean_sbu_0, # of connection points: 4
#     Node 9, Type 0, BuildingBlock: CEKHIL_clean_sbu_0, # of connection points: 4
#     Node 10, Type 0, BuildingBlock: CEKHIL_clean_sbu_0, # of connection points: 4
#     Node 11, Type 0, BuildingBlock: CEKHIL_clean_sbu_0, # of connection points: 4
#     Edge 12, Type (0, 0), BuildingBlock: TEMPAE_clean_linker_10, # of connection points: 2
#     Edge 13, Type (0, 0), BuildingBlock: TEMPAE_clean_linker_10, # of connection points: 2
#     Edge 14, Type (0, 0), BuildingBlock: TEMPAE_clean_linker_10, # of connection points: 2
#     Edge 15, Type (0, 0), BuildingBlock: TEMPAE_clean_linker_10, # of connection points: 2
#     Edge 16, Type (0, 0), BuildingBlock: TEMPAE_clean_linker_10, # of connection points: 2
#     Edge 17, Type (0, 0), BuildingBlock: TEMPAE_clean_linker_10, # of connection points: 2
#     Edge 18, Type (0, 0), BuildingBlock: TEMPAE_clean_linker_10, # of connection points: 2
#     Edge 19, Type (0, 0), BuildingBlock: TEMPAE_clean_linker_10, # of connection points: 2
#     Edge 20, Type (0, 0), BuildingBlock: TEMPAE_clean_linker_10, # of connection points: 2
#     Edge 21, Type (0, 0), BuildingBlock: TEMPAE_clean_linker_10, # of connection points: 2
#     Edge 22, Type (0, 0), BuildingBlock: TEMPAE_clean_linker_10, # of connection points: 2
#     Edge 23, Type (0, 0), BuildingBlock: TEMPAE_clean_linker_10, # of connection points: 2
#     Edge 24, Type (0, 0), BuildingBlock: TEMPAE_clean_linker_10, # of connection points: 2
#     Edge 25, Type (0, 0), BuildingBlock: TEMPAE_clean_linker_10, # of connection points: 2
#     Edge 26, Type (0, 0), BuildingBlock: TEMPAE_clean_linker_10, # of connection points: 2
#     Edge 27, Type (0, 0), BuildingBlock: TEMPAE_clean_linker_10, # of connection points: 2
#     Edge 28, Type (0, 0), BuildingBlock: TEMPAE_clean_linker_10, # of connection points: 2
#     Edge 29, Type (0, 0), BuildingBlock: TEMPAE_clean_linker_10, # of connection points: 2
#     Edge 30, Type (0, 0), BuildingBlock: TEMPAE_clean_linker_10, # of connection points: 2
#     Edge 31, Type (0, 0), BuildingBlock: TEMPAE_clean_linker_10, # of connection points: 2
#     Edge 32, Type (0, 0), BuildingBlock: TEMPAE_clean_linker_10, # of connection points: 2
#     Edge 33, Type (0, 0), BuildingBlock: TEMPAE_clean_linker_10, # of connection points: 2
#     Edge 34, Type (0, 0), BuildingBlock: TEMPAE_clean_linker_10, # of connection points: 2
#     Edge 35, Type (0, 0), BuildingBlock: TEMPAE_clean_linker_10, # of connection points: 2
# Relax obj value: 0.172
# Max RMSD: 0.159
# Mean RMSD: 0.159
data_MOF--net-uoq--node1-CEKHIL_clean_sbu_0--edge1-TEMPAE_clean_linker_10
_symmetry_space_group_name_H-M    P1
_symmetry_Int_Tables_number       1
_symmetry_cell_setting            triclinic
loop_
_symmetry_equiv_pos_as_xyz
'x, y, z'
_cell_length_a     59.214427
_cell_length_b     59.234
_cell_length_c     22.0967
_cell_angle_alpha  89.983286
_cell_angle_beta   90.017486
_cell_angle_gamma 119.98338
loop_
_atom_site_label
_atom_site_type_symbol
_atom_site_fract_x
_atom_site_fract_y
_atom_site_fract_z
_atom_type_partial_charge
Co0 Co 0.31275 0.44665 0.25541 0.0
O1 O 0.27962 0.42655 0.21376 0.0
O2 O 0.31058 0.46556 0.18542 0.0
C3 C 0.32198 0.41404 0.26863 0.0
O4 O 0.34944 0.47324 0.28533 0.0
Co5 Co 0.32175 0.43282 0.38716 0.0
O6 O 0.35864 0.45869 0.3707 0.0
C7 C 0.29364 0.46185 0.36726 0.0
C8 C 0.2873 0.44589 0.17618 0.0
C9 C 0.36533 0.47521 0.32784 0.0
O10 O 0.29699 0.46273 0.3095 0.0
O11 O 0.30074 0.4499 0.40403 0.0
O12 O 0.32708 0.42634 0.21715 0.0
O13 O 0.30949 0.42005 0.3068 0.0
Co14 Co 0.87228 0.31249 0.58563 0.0
O15 O 0.85981 0.27958 0.54325 0.0
O16 O 0.85023 0.30976 0.5173 0.0
C17 C 0.91464 0.32305 0.59603 0.0
O18 O 0.88137 0.34874 0.61628 0.0
Co19 Co 0.8966 0.32237 0.71584 0.0
O20 O 0.90625 0.35901 0.69996 0.0
C21 C 0.83939 0.29136 0.69894 0.0
C22 C 0.84731 0.28683 0.50705 0.0
C23 C 0.89544 0.365 0.65794 0.0
O24 O 0.84109 0.29575 0.64153 0.0
O25 O 0.85894 0.29873 0.73426 0.0
O26 O 0.90663 0.32794 0.54542 0.0
O27 O 0.89669 0.31013 0.63514 0.0
Co28 Co 0.56607 0.87191 0.91826 0.0
O29 O 0.58667 0.86024 0.87369 0.0
O30 O 0.54641 0.84981 0.85028 0.0
C31 C 0.5972 0.91449 0.9287 0.0
O32 O 0.53875 0.8802 0.95173 0.0
Co33 Co 0.58164 0.89552 0.04898 0.0
O34 O 0.55342 0.90383 0.03722 0.0
C35 C 0.55787 0.83881 0.02943 0.0
C36 C 0.56664 0.84743 0.83846 0.0
C37 C 0.53646 0.89344 0.99535 0.0
O38 O 0.55283 0.84061 0.97349 0.0
O39 O 0.57095 0.85831 0.06432 0.0
O40 O 0.58392 0.90644 0.87857 0.0
O41 O 0.593 0.89647 0.9669 0.0
Co42 Co 0.69702 0.56038 0.26418 0.0
O43 O 0.73088 0.58072 0.22546 0.0
O44 O 0.70016 0.5421 0.19424 0.0
C45 C 0.68787 0.59308 0.27692 0.0
O46 O 0.6598 0.53354 0.29018 0.0
Co47 Co 0.68488 0.57245 0.39454 0.0
O48 O 0.64828 0.54765 0.37269 0.0
C49 C 0.71341 0.54355 0.37784 0.0
C50 C 0.7236 0.56174 0.18696 0.0
C51 C 0.64275 0.53143 0.32961 0.0
O52 O 0.71176 0.54372 0.31967 0.0
O53 O 0.70511 0.55474 0.41371 0.0
O54 O 0.68355 0.58126 0.22494 0.0
O55 O 0.69945 0.58645 0.31628 0.0
Co56 Co 0.13762 0.69676 0.58391 0.0
O57 O 0.14965 0.72931 0.54023 0.0
O58 O 0.15905 0.69895 0.51478 0.0
C59 C 0.09531 0.68609 0.59643 0.0
O60 O 0.12884 0.6608 0.61585 0.0
Co61 Co 0.11475 0.68818 0.71549 0.0
O62 O 0.10514 0.65143 0.7013 0.0
C63 C 0.17164 0.71957 0.69497 0.0
C64 C 0.16189 0.72182 0.5039 0.0
C65 C 0.11533 0.64498 0.65876 0.0
O66 O 0.16935 0.71402 0.63812 0.0
O67 O 0.15245 0.71283 0.73109 0.0
O68 O 0.10285 0.68091 0.54551 0.0
O69 O 0.11367 0.69944 0.63429 0.0
Co70 Co 0.44463 0.13675 0.91894 0.0
O71 O 0.42387 0.14865 0.8758 0.0
O72 O 0.46358 0.15814 0.84951 0.0
C73 C 0.41311 0.09444 0.9319 0.0
O74 O 0.472 0.12808 0.95042 0.0
Co75 Co 0.43078 0.11401 0.05074 0.0
O76 O 0.45783 0.10437 0.0359 0.0
C77 C 0.45651 0.17091 0.02998 0.0
C78 C 0.44347 0.16092 0.83913 0.0
C79 C 0.47441 0.11459 0.99325 0.0
O80 O 0.45917 0.16854 0.97288 0.0
O81 O 0.44444 0.15179 0.06648 0.0
O82 O 0.42566 0.10196 0.88076 0.0
O83 O 0.4182 0.11283 0.96976 0.0
Co84 Co 0.56517 0.69818 0.43663 0.0
O85 O 0.58523 0.73199 0.47568 0.0
O86 O 0.54551 0.70208 0.50251 0.0
C87 C 0.59743 0.68804 0.43172 0.0
O88 O 0.53829 0.6612 0.40949 0.0
Co89 Co 0.58008 0.6848 0.31087 0.0
O90 O 0.55381 0.64851 0.33166 0.0
C91 C 0.55161 0.71425 0.31791 0.0
C92 C 0.56541 0.72522 0.51134 0.0
C93 C 0.53657 0.64373 0.37184 0.0
O94 O 0.55063 0.71333 0.37624 0.0
O95 O 0.56322 0.70519 0.28563 0.0
O96 O 0.58415 0.68396 0.48147 0.0
O97 O 0.59232 0.6998 0.3897 0.0
Co98 Co 0.86998 0.56268 0.77815 0.0
O99 O 0.8574 0.58297 0.82083 0.0
O100 O 0.84828 0.5434 0.84701 0.0
C101 C 0.91219 0.59468 0.76666 0.0
O102 O 0.87942 0.53579 0.74722 0.0
Co103 Co 0.89359 0.57718 0.64726 0.0
O104 O 0.9039 0.55067 0.66301 0.0
C105 C 0.83641 0.54974 0.66547 0.0
C106 C 0.84518 0.56331 0.85734 0.0
C107 C 0.89351 0.53386 0.70516 0.0
O108 O 0.83849 0.54773 0.72302 0.0
O109 O 0.85571 0.56188 0.6295 0.0
O110 O 0.90449 0.58193 0.81752 0.0
O111 O 0.89399 0.58947 0.72812 0.0
Co112 Co 0.31166 0.86779 0.10038 0.0
O113 O 0.27769 0.85416 0.1386 0.0
O114 O 0.30773 0.84488 0.16778 0.0
C115 C 0.32144 0.90999 0.09275 0.0
O116 O 0.34886 0.878 0.07457 0.0
Co117 Co 0.3251 0.8948 0.97311 0.0
O118 O 0.36141 0.90531 0.99503 0.0
C119 C 0.29577 0.83705 0.98311 0.0
C120 C 0.28448 0.84154 0.17559 0.0
C121 C 0.36633 0.89347 0.03656 0.0
O122 O 0.29681 0.83757 0.04145 0.0
O123 O 0.30472 0.85735 0.94965 0.0
O124 O 0.32549 0.90135 0.14342 0.0
O125 O 0.30993 0.89272 0.05141 0.0
Co126 Co 0.44347 0.30876 0.43551 0.0
O127 O 0.42362 0.27522 0.47566 0.0
O128 O 0.46326 0.3055 0.50211 0.0
C129 C 0.41112 0.31868 0.42908 0.0
O130 O 0.47004 0.34564 0.40694 0.0
Co131 Co 0.42807 0.32026 0.30807 0.0
O132 O 0.45459 0.35677 0.32615 0.0
C133 C 0.45725 0.29173 0.31834 0.0
C134 C 0.44346 0.28231 0.51141 0.0
C135 C 0.47174 0.36239 0.36712 0.0
O136 O 0.45829 0.29339 0.37656 0.0
O137 O 0.44535 0.30005 0.28477 0.0
O138 O 0.42434 0.32311 0.47905 0.0
O139 O 0.41619 0.30652 0.388 0.0
Co140 Co 0.14116 0.44676 0.76899 0.0
O141 O 0.15445 0.42654 0.80925 0.0
O142 O 0.16303 0.4657 0.83783 0.0
C143 C 0.09909 0.4144 0.75795 0.0
O144 O 0.13109 0.47357 0.741 0.0
Co145 Co 0.11662 0.43335 0.63896 0.0
O146 O 0.10559 0.45901 0.6583 0.0
C147 C 0.17402 0.46176 0.65483 0.0
C148 C 0.16656 0.44595 0.84648 0.0
C149 C 0.11636 0.47556 0.70075 0.0
O150 O 0.17233 0.46251 0.71288 0.0
O151 O 0.15447 0.45017 0.61927 0.0
O152 O 0.10695 0.42677 0.80923 0.0
O153 O 0.11708 0.42023 0.71844 0.0
Co154 Co 0.69899 0.14088 0.10157 0.0
O155 O 0.73264 0.15419 0.14117 0.0
O156 O 0.70223 0.16295 0.17024 0.0
C157 C 0.68929 0.09878 0.09114 0.0
O158 O 0.66199 0.13079 0.07431 0.0
Co159 Co 0.68713 0.11571 0.9722 0.0
O160 O 0.65055 0.10466 0.9927 0.0
C161 C 0.71599 0.17325 0.9866 0.0
C162 C 0.7255 0.16638 0.17855 0.0
C163 C 0.64502 0.11576 0.03484 0.0
O164 O 0.71424 0.17186 0.0448 0.0
O165 O 0.7076 0.15347 0.95159 0.0
O166 O 0.68492 0.10678 0.14237 0.0
O167 O 0.70124 0.11664 0.05124 0.0
C168 C 0.35605 0.40047 0.2608 0.0
C169 C 0.3339 0.39844 0.28894 0.0
C170 C 0.3688 0.38779 0.28522 0.0
C171 C 0.35898 0.37256 0.33857 0.0
C172 C 0.33632 0.37009 0.36623 0.0
C173 C 0.32417 0.38309 0.34126 0.0
C174 C 0.39299 0.39099 0.25454 0.0
C175 C 0.32493 0.3538 0.42252 0.0
C176 C 0.37646 0.31991 0.36849 0.0
C177 C 0.39595 0.33148 0.41275 0.0
C178 C 0.36414 0.33293 0.34462 0.0
C179 C 0.37179 0.35846 0.36459 0.0
C180 C 0.39121 0.37015 0.4101 0.0
C181 C 0.40294 0.35641 0.43407 0.0
C182 C 0.34318 0.31948 0.29725 0.0
C183 C 0.40009 0.39743 0.43218 0.0
H184 H 0.36385 0.41255 0.22083 0.0
H185 H 0.30704 0.38141 0.3633 0.0
H186 H 0.40961 0.39952 0.2867 0.0
H187 H 0.38997 0.37168 0.24066 0.0
H188 H 0.39834 0.4037 0.21392 0.0
H189 H 0.3071 0.35375 0.43833 0.0
H190 H 0.31996 0.33339 0.41366 0.0
H191 H 0.33954 0.36132 0.45955 0.0
H192 H 0.37112 0.30067 0.3517 0.0
H193 H 0.41836 0.36561 0.46737 0.0
H194 H 0.34924 0.33076 0.25444 0.0
H195 H 0.32489 0.31863 0.31225 0.0
H196 H 0.33899 0.29932 0.28783 0.0
H197 H 0.40815 0.41132 0.3938 0.0
H198 H 0.41522 0.40369 0.46799 0.0
H199 H 0.38327 0.39865 0.45035 0.0
C200 C 0.96138 0.35944 0.59075 0.0
C201 C 0.94238 0.33548 0.61468 0.0
C202 C 0.98682 0.37261 0.61509 0.0
C203 C 0.99342 0.36135 0.66381 0.0
C204 C 0.97441 0.33683 0.68685 0.0
C205 C 0.94917 0.32435 0.66234 0.0
C206 C 0.00648 0.39882 0.58957 0.0
C207 C 0.98064 0.32383 0.73785 0.0
C208 C 0.06476 0.38229 0.68942 0.0
C209 C 0.07137 0.39922 0.73906 0.0
C210 C 0.03955 0.36987 0.66476 0.0
C211 C 0.02036 0.37467 0.68977 0.0
C212 C 0.02677 0.39151 0.74049 0.0
C213 C 0.0522 0.40348 0.76485 0.0
C214 C 0.03353 0.35175 0.61151 0.0
C215 C 0.00691 0.39728 0.7682 0.0
H216 H 0.95612 0.36831 0.5546 0.0
H217 H 0.93453 0.30583 0.68111 0.0
H218 H 0.01337 0.41378 0.6258 0.0
H219 H 0.02376 0.39816 0.57253 0.0
H220 H 0.99831 0.40503 0.55206 0.0
H221 H 0.96375 0.30456 0.75004 0.0
H222 H 0.99719 0.32106 0.72489 0.0
H223 H 0.98671 0.33646 0.77858 0.0
H224 H 0.07953 0.37896 0.66919 0.0
H225 H 0.0573 0.41685 0.80257 0.0
H226 H 0.02736 0.35901 0.57219 0.0
H227 H 0.0171 0.3321 0.62281 0.0
H228 H 0.05055 0.34983 0.59785 0.0
H229 H 0.9999 0.40593 0.7336 0.0
H230 H 0.01496 0.41091 0.80711 0.0
H231 H 0.98974 0.37894 0.78388 0.0
C232 C 0.60656 0.96094 0.92504 0.0
C233 C 0.61206 0.94216 0.94799 0.0
C234 C 0.61856 0.98628 0.94981 0.0
C235 C 0.6367 0.99301 0.99798 0.0
C236 C 0.64267 0.9742 0.02017 0.0
C237 C 0.6302 0.94906 0.99522 0.0
C238 C 0.61152 0.00574 0.92519 0.0
C239 C 0.66218 0.98057 0.07059 0.0
C240 C 0.68688 0.06442 0.02252 0.0
C241 C 0.67679 0.07102 0.07264 0.0
C242 C 0.67407 0.0392 0.99804 0.0
C243 C 0.6503 0.01996 0.02381 0.0
C244 C 0.64013 0.02634 0.07509 0.0
C245 C 0.65359 0.0518 0.09918 0.0
C246 C 0.68589 0.03324 0.94412 0.0
C247 C 0.61477 0.0064 0.10369 0.0
H248 H 0.59226 0.95559 0.88924 0.0
H249 H 0.6345 0.93459 0.01325 0.0
H250 H 0.60367 0.01256 0.96207 0.0
H251 H 0.62921 0.02309 0.90746 0.0
H252 H 0.59681 0.99742 0.88838 0.0
H253 H 0.66474 0.96376 0.08254 0.0
H254 H 0.6814 0.99715 0.05711 0.0
H255 H 0.65581 0.98666 0.1116 0.0
H256 H 0.7048 0.07922 1.00172 0.0
H257 H 0.6455 0.05689 0.13729 0.0
H258 H 0.67216 0.02693 0.90535 0.0
H259 H 0.68935 0.01693 0.955 0.0
H260 H 0.70465 0.05032 0.92982 0.0
H261 H 0.59884 0.99933 0.06978 0.0
H262 H 0.60943 0.01438 0.14314 0.0
H263 H 0.61617 0.98927 0.1188 0.0
C264 C 0.68523 0.62398 0.34883 0.0
C265 C 0.67584 0.60869 0.29633 0.0
C266 C 0.67287 0.63689 0.37318 0.0
C267 C 0.65032 0.63436 0.34475 0.0
C268 C 0.64084 0.61918 0.29124 0.0
C269 C 0.65381 0.60662 0.26741 0.0
C270 C 0.68392 0.65313 0.42966 0.0
C271 C 0.61677 0.61591 0.25975 0.0
C272 C 0.60574 0.65039 0.43819 0.0
C273 C 0.61279 0.67531 0.41664 0.0
C274 C 0.61766 0.6367 0.41501 0.0
C275 C 0.63733 0.64842 0.37006 0.0
C276 C 0.64505 0.67394 0.34991 0.0
C277 C 0.63255 0.68692 0.373 0.0
C278 C 0.6087 0.60942 0.43727 0.0
C279 C 0.66626 0.68743 0.30312 0.0
H280 H 0.70225 0.62567 0.3715 0.0
H281 H 0.64625 0.59456 0.22735 0.0
H282 H 0.68888 0.67353 0.42069 0.0
H283 H 0.66912 0.64555 0.46625 0.0
H284 H 0.70169 0.65322 0.44613 0.0
H285 H 0.61167 0.60323 0.21914 0.0
H286 H 0.59999 0.6073 0.29146 0.0
H287 H 0.61978 0.6352 0.2457 0.0
H288 H 0.59011 0.64115 0.47098 0.0
H289 H 0.63794 0.70614 0.356 0.0
H290 H 0.62545 0.60821 0.45599 0.0
H291 H 0.6008 0.59553 0.39887 0.0
H292 H 0.59342 0.60316 0.4727 0.0
H293 H 0.68447 0.68829 0.31879 0.0
H294 H 0.67048 0.70759 0.29351 0.0
H295 H 0.66043 0.67618 0.26026 0.0
C296 C 0.94634 0.62732 0.69871 0.0
C297 C 0.9398 0.60968 0.74689 0.0
C298 C 0.97136 0.63965 0.67302 0.0
C299 C 0.9904 0.63403 0.6954 0.0
C300 C 0.98404 0.61644 0.74461 0.0
C301 C 0.95883 0.60458 0.77011 0.0
C302 C 0.97733 0.65858 0.62149 0.0
C303 C 1.00374 0.60978 0.76949 0.0
C304 C 0.04839 0.64989 0.59218 0.0
C305 C 0.06777 0.67347 0.6169 0.0
C306 C 0.02316 0.63661 0.61764 0.0
C307 C 0.01716 0.64735 0.66845 0.0
C308 C 0.03657 0.67144 0.6925 0.0
C309 C 0.06156 0.68408 0.66669 0.0
C310 C 1.00303 0.61088 0.59089 0.0
C311 C 0.03102 0.68385 0.74588 0.0
H312 H 0.93168 0.63128 0.68046 0.0
H313 H 0.95374 0.59064 0.80662 0.0
H314 H 0.99404 0.67793 0.63364 0.0
H315 H 0.98306 0.65172 0.58072 0.0
H316 H 0.96043 0.66102 0.60973 0.0
H317 H 0.99576 0.59563 0.80746 0.0
H318 H 0.01021 0.60139 0.73311 0.0
H319 H 0.02125 0.62771 0.78569 0.0
H320 H 0.05316 0.64141 0.55432 0.0
H321 H 0.07646 0.7023 0.6861 0.0
H322 H 0.98583 0.61209 0.57557 0.0
H323 H 0.99615 0.59542 0.62593 0.0
H324 H 0.01078 0.605 0.5519 0.0
H325 H 0.01465 0.68723 0.735 0.0
H326 H 0.04822 0.70274 0.759 0.0
H327 H 0.02495 0.67055 0.78543 0.0
C328 C 0.32223 0.94536 0.03105 0.0
C329 C 0.33379 0.93793 0.07639 0.0
C330 C 0.33487 0.97071 1.00721 0.0
C331 C 0.36001 0.98911 0.0284 0.0
C332 C 0.37168 0.98187 0.075 0.0
C333 C 0.35832 0.95636 0.09886 0.0
C334 C 0.32143 0.97765 0.95862 0.0
C335 C 0.39856 1.00086 0.09844 0.0
C336 C 0.40147 0.0473 0.92527 0.0
C337 C 0.39827 0.06691 0.95239 0.0
C338 C 0.38943 0.02193 0.94994 0.0
C339 C 0.37366 0.01605 1.0025 0.0
C340 C 0.37006 0.03572 0.02919 0.0
C341 C 0.38243 0.06082 1.00401 0.0
C342 C 0.39384 1.00151 0.92031 0.0
C343 C 0.35316 0.03029 0.08459 0.0
H344 H 0.3033 0.9311 0.01338 0.0
H345 H 0.36753 0.95054 0.13303 0.0
H346 H 0.31976 0.9947 0.97302 0.0
H347 H 0.33319 0.98324 0.9165 0.0
H348 H 0.3016 0.96127 0.94818 0.0
H349 H 0.40485 0.99234 0.13501 0.0
H350 H 0.41288 0.00708 0.06089 0.0
H351 H 0.399 0.01861 0.11605 0.0
H352 H 0.41393 0.05195 0.88589 0.0
H353 H 0.37986 0.07587 0.02529 0.0
H354 H 0.37495 0.98483 0.90548 0.0
H355 H 0.40246 0.99387 0.95344 0.0
H356 H 0.40698 0.00925 0.88046 0.0
H357 H 0.33301 0.01445 0.07484 0.0
H358 H 0.35237 0.04775 0.09992 0.0
H359 H 0.36069 0.02354 0.12226 0.0
C360 C 0.19417 0.42884 0.89163 0.0
C361 C 0.18416 0.44587 0.89499 0.0
C362 C 0.21138 0.42898 0.93604 0.0
C363 C 0.2184 0.44614 0.98622 0.0
C364 C 0.20808 0.46317 0.9902 0.0
C365 C 0.19141 0.46306 0.94431 0.0
C366 C 0.22225 0.41087 0.92895 0.0
C367 C 0.21446 0.48138 0.04333 0.0
C368 C 0.24289 0.42847 0.12925 0.0
C369 C 0.2699 0.44581 0.12693 0.0
C370 C 0.22599 0.42857 0.08437 0.0
C371 C 0.23625 0.44604 0.03478 0.0
C372 C 0.26358 0.46335 0.03174 0.0
C373 C 0.27998 0.46324 0.07807 0.0
C374 C 0.19703 0.41013 0.09046 0.0
C375 C 0.27554 0.48192 0.97925 0.0
H376 H 0.18891 0.41563 0.85352 0.0
H377 H 0.18376 0.47625 0.94752 0.0
H378 H 0.24387 0.42226 0.929 0.0
H379 H 0.2162 0.39721 0.96778 0.0
H380 H 0.21562 0.39934 0.88647 0.0
H381 H 0.20446 0.49299 0.04058 0.0
H382 H 0.20864 0.47005 0.08612 0.0
H383 H 0.23579 0.49496 0.04564 0.0
H384 H 0.23482 0.41504 0.16696 0.0
H385 H 0.3008 0.47666 0.07565 0.0
H386 H 0.18975 0.39682 0.05095 0.0
H387 H 0.18658 0.42131 0.0909 0.0
H388 H 0.19202 0.39821 0.13235 0.0
H389 H 0.27024 0.47088 0.93607 0.0
H390 H 0.29713 0.4936 0.98248 0.0
H391 H 0.2677 0.49544 0.97739 0.0
C392 C 0.82257 0.27945 0.40915 0.0
C393 C 0.82984 0.26936 0.45814 0.0
C394 C 0.80593 0.26304 0.36304 0.0
C395 C 0.79562 0.23569 0.36656 0.0
C396 C 0.80271 0.2254 0.41637 0.0
C397 C 0.81993 0.24233 0.46093 0.0
C398 C 0.79952 0.27503 0.31026 0.0
C399 C 0.79183 0.19642 0.42305 0.0
C400 C 0.73356 0.19143 0.27619 0.0
C401 C 0.7433 0.18389 0.22699 0.0
C402 C 0.75024 0.20796 0.32207 0.0
C403 C 0.77753 0.21785 0.31822 0.0
C404 C 0.78747 0.21052 0.26819 0.0
C405 C 0.77028 0.19346 0.22377 0.0
C406 C 0.7386 0.21468 0.37503 0.0
C407 C 0.81638 0.22092 0.26123 0.0
H408 H 0.83017 0.30029 0.40639 0.0
H409 H 0.82521 0.23427 0.49881 0.0
H410 H 0.80508 0.26944 0.26722 0.0
H411 H 0.77821 0.26748 0.30844 0.0
H412 H 0.80969 0.29663 0.31306 0.0
H413 H 0.79863 0.1914 0.46513 0.0
H414 H 0.7702 0.18624 0.42355 0.0
H415 H 0.79766 0.18884 0.38377 0.0
H416 H 0.71277 0.1841 0.27931 0.0
H417 H 0.77808 0.18796 0.18579 0.0
H418 H 0.74658 0.23605 0.37701 0.0
H419 H 0.74402 0.20886 0.41795 0.0
H420 H 0.71701 0.20492 0.37233 0.0
H421 H 0.8269 0.24255 0.26097 0.0
H422 H 0.82113 0.21403 0.21895 0.0
H423 H 0.82381 0.21478 0.30028 0.0
C424 C 0.5488 0.82241 0.74102 0.0
C425 C 0.56657 0.83004 0.78926 0.0
C426 C 0.5485 0.80578 0.6948 0.0
C427 C 0.56587 0.79583 0.69749 0.0
C428 C 0.58365 0.80328 0.74653 0.0
C429 C 0.58402 0.8205 0.79116 0.0
C430 C 0.52966 0.79899 0.64279 0.0
C431 C 0.60211 0.79277 0.75239 0.0
C432 C 0.54832 0.73354 0.60843 0.0
C433 C 0.56541 0.7432 0.55888 0.0
C434 C 0.54841 0.75033 0.65393 0.0
C435 C 0.56549 0.77764 0.64922 0.0
C436 C 0.58247 0.78751 0.59866 0.0
C437 C 0.58247 0.77021 0.55473 0.0
C438 C 0.53043 0.73878 0.70755 0.0
C439 C 0.60056 0.81642 0.5907 0.0
H440 H 0.5353 0.82972 0.73896 0.0
H441 H 0.59767 0.82605 0.82846 0.0
H442 H 0.54047 0.80443 0.59929 0.0
H443 H 0.51604 0.77765 0.64163 0.0
H444 H 0.51809 0.80901 0.64602 0.0
H445 H 0.61424 0.79983 0.79396 0.0
H446 H 0.59091 0.77115 0.75335 0.0
H447 H 0.61523 0.79861 0.71255 0.0
H448 H 0.53515 0.71272 0.61227 0.0
H449 H 0.59561 0.77792 0.51643 0.0
H450 H 0.51691 0.74661 0.71001 0.0
H451 H 0.54196 0.74443 0.75004 0.0
H452 H 0.51873 0.71718 0.70531 0.0
H453 H 0.58922 0.82671 0.59112 0.0
H454 H 0.61178 0.82111 0.54776 0.0
H455 H 0.61453 0.82419 0.62895 0.0
C456 C 0.76859 0.57795 0.14431 0.0
C457 C 0.74144 0.56216 0.13847 0.0
C458 C 0.78576 0.57803 0.09988 0.0
C459 C 0.77566 0.56248 0.04713 0.0
C460 C 0.74822 0.54679 0.04063 0.0
C461 C 0.73152 0.54653 0.08661 0.0
C462 C 0.81478 0.59459 0.10974 0.0
C463 C 0.73645 0.5304 0.98473 0.0
C464 C 0.81963 0.58184 0.90691 0.0
C465 C 0.82783 0.5633 0.90664 0.0
C466 C 0.80258 0.58166 0.95179 0.0
C467 C 0.79376 0.56279 0.9987 0.0
C468 C 0.80227 0.54423 0.99914 0.0
C469 C 0.81891 0.54454 0.95294 0.0
C470 C 0.79375 0.60153 0.94854 0.0
C471 C 0.79387 0.52408 0.04869 0.0
H472 H 0.77649 0.58992 0.1844 0.0
H473 H 0.71059 0.53435 0.08148 0.0
H474 H 0.82395 0.58222 0.108 0.0
H475 H 0.82361 0.60925 0.07307 0.0
H476 H 0.81959 0.60494 0.15389 0.0
H477 H 0.71479 0.51982 0.98563 0.0
H478 H 0.7432 0.54295 0.94383 0.0
H479 H 0.74306 0.51595 0.98029 0.0
H480 H 0.82621 0.59632 0.87124 0.0
H481 H 0.82513 0.53016 0.95338 0.0
H482 H 0.79978 0.61367 0.99007 0.0
H483 H 0.77216 0.59148 0.94625 0.0
H484 H 0.8019 0.61456 0.90864 0.0
H485 H 0.7994 0.53383 0.09348 0.0
H486 H 0.80276 0.51152 0.04379 0.0
H487 H 0.77235 0.51149 0.04837 0.0
C488 C 0.18645 0.72873 0.4059 0.0
C489 C 0.17918 0.73903 0.45445 0.0
C490 C 0.20311 0.74493 0.35957 0.0
C491 C 0.21344 0.77231 0.3624 0.0
C492 C 0.2063 0.7828 0.41166 0.0
C493 C 0.18907 0.76607 0.45645 0.0
C494 C 0.20957 0.73272 0.30737 0.0
C495 C 0.21719 0.81181 0.41758 0.0
C496 C 0.27589 0.81629 0.27306 0.0
C497 C 0.26639 0.82386 0.22341 0.0
C498 C 0.25899 0.7998 0.31869 0.0
C499 C 0.23173 0.78996 0.3141 0.0
C500 C 0.22203 0.79725 0.26352 0.0
C501 C 0.23943 0.8143 0.21938 0.0
C502 C 0.27038 0.79312 0.37225 0.0
C503 C 0.19316 0.78688 0.25575 0.0
H504 H 0.17888 0.70788 0.40374 0.0
H505 H 0.1838 0.7743 0.49397 0.0
H506 H 0.20424 0.73828 0.26397 0.0
H507 H 0.23086 0.74012 0.30609 0.0
H508 H 0.19925 0.71112 0.31048 0.0
H509 H 0.21023 0.817 0.45914 0.0
H510 H 0.23881 0.82196 0.41863 0.0
H511 H 0.21154 0.81927 0.37773 0.0
H512 H 0.29667 0.82362 0.27681 0.0
H513 H 0.23183 0.81982 0.18103 0.0
H514 H 0.26227 0.77173 0.37468 0.0
H515 H 0.26489 0.79913 0.41479 0.0
H516 H 0.29198 0.80275 0.36997 0.0
H517 H 0.18259 0.76525 0.25597 0.0
H518 H 0.1886 0.79362 0.21296 0.0
H519 H 0.18561 0.7932 0.29419 0.0
C520 C 0.42614 0.18805 0.79267 0.0
C521 C 0.44331 0.17818 0.78993 0.0
C522 C 0.42636 0.20522 0.74806 0.0
C523 C 0.44372 0.2123 0.69826 0.0
C524 C 0.46081 0.20203 0.69475 0.0
C525 C 0.46065 0.18544 0.7409 0.0
C526 C 0.40821 0.21605 0.75471 0.0
C527 C 0.47918 0.20844 0.64194 0.0
C528 C 0.42637 0.23754 0.556 0.0
C529 C 0.44364 0.26454 0.55928 0.0
C530 C 0.42651 0.22037 0.60009 0.0
C531 C 0.4439 0.23036 0.64992 0.0
C532 C 0.46121 0.25765 0.65376 0.0
C533 C 0.46111 0.27432 0.60814 0.0
C534 C 0.40813 0.19146 0.59307 0.0
C535 C 0.47966 0.26933 0.70656 0.0
H536 H 0.41283 0.18279 0.83058 0.0
H537 H 0.47393 0.17789 0.7382 0.0
H538 H 0.41961 0.23767 0.75517 0.0
H539 H 0.39477 0.21018 0.71545 0.0
H540 H 0.39642 0.20926 0.79681 0.0
H541 H 0.49062 0.19827 0.64471 0.0
H542 H 0.46802 0.20289 0.59891 0.0
H543 H 0.49293 0.22974 0.64012 0.0
H544 H 0.41294 0.22972 0.51823 0.0
H545 H 0.47446 0.29512 0.61129 0.0
H546 H 0.39451 0.18399 0.632 0.0
H547 H 0.41931 0.181 0.593 0.0
H548 H 0.39654 0.18666 0.55069 0.0
H549 H 0.46848 0.26398 0.74956 0.0
H550 H 0.49151 0.29091 0.70371 0.0
H551 H 0.49303 0.26131 0.70852 0.0
C552 C 0.21399 0.46107 0.62781 0.0
C553 C 0.19954 0.47379 0.62552 0.0
C554 C 0.23281 0.46588 0.58351 0.0
C555 C 0.23736 0.48413 0.53679 0.0
C556 C 0.22482 0.4991 0.5386 0.0
C557 C 0.20566 0.49342 0.58258 0.0
C558 C 0.24581 0.44949 0.58323 0.0
C559 C 0.22982 0.51937 0.49109 0.0
C560 C 0.2934 0.49366 0.43841 0.0
C561 C 0.28017 0.47426 0.39483 0.0
C562 C 0.27963 0.49924 0.48177 0.0
C563 C 0.2521 0.48445 0.48221 0.0
C564 C 0.23874 0.46666 0.4345 0.0
C565 C 0.25305 0.46189 0.39091 0.0
C566 C 0.29457 0.51906 0.53039 0.0
C567 C 0.20935 0.45054 0.43319 0.0
H568 H 0.20881 0.4456 0.66058 0.0
H569 H 0.19416 0.50303 0.58079 0.0
H570 H 0.23857 0.43591 0.54413 0.0
H571 H 0.2672 0.46199 0.57796 0.0
H572 H 0.24184 0.43784 0.62533 0.0
H573 H 0.22358 0.53325 0.50672 0.0
H574 H 0.25078 0.53049 0.47877 0.0
H575 H 0.21866 0.50962 0.44957 0.0
H576 H 0.31447 0.50302 0.44142 0.0
H577 H 0.24296 0.44662 0.3576 0.0
H578 H 0.29536 0.50888 0.57179 0.0
H579 H 0.28482 0.5303 0.54241 0.0
H580 H 0.3149 0.53286 0.51601 0.0
H581 H 0.20255 0.43629 0.47101 0.0
H582 H 0.202 0.43964 0.39004 0.0
H583 H 0.20058 0.4631 0.43953 0.0
C584 C 0.80231 0.24983 0.73261 0.0
C585 C 0.81387 0.27685 0.72777 0.0
C586 C 0.78323 0.23618 0.77659 0.0
C587 C 0.7756 0.25005 0.81613 0.0
C588 C 0.78569 0.27709 0.80773 0.0
C589 C 0.80507 0.29029 0.76394 0.0
C590 C 0.77289 0.20729 0.78394 0.0
C591 C 0.77759 0.29243 0.84783 0.0
C592 C 0.71716 0.20264 0.90628 0.0
C593 C 0.72931 0.19862 0.95626 0.0
C594 C 0.73177 0.22163 0.86293 0.0
C595 C 0.75914 0.2364 0.86939 0.0
C596 C 0.77106 0.23435 0.92325 0.0
C597 C 0.75585 0.21545 0.96652 0.0
C598 C 0.71823 0.22384 0.80724 0.0
C599 C 0.80022 0.24994 0.93204 0.0
H600 H 0.80969 0.23971 0.70532 0.0
H601 H 0.81455 0.31135 0.76066 0.0
H602 H 0.77951 0.20358 0.82793 0.0
H603 H 0.75127 0.19656 0.78433 0.0
H604 H 0.77961 0.19923 0.74723 0.0
H605 H 0.78265 0.31152 0.82735 0.0
H606 H 0.75632 0.28136 0.8569 0.0
H607 H 0.78779 0.29616 0.89196 0.0
H608 H 0.69652 0.18951 0.89867 0.0
H609 H 0.76517 0.21209 1.00501 0.0
H610 H 0.7209 0.2131 0.76937 0.0
H611 H 0.72671 0.24448 0.79308 0.0
H612 H 0.69697 0.21543 0.81489 0.0
H613 H 0.80974 0.2424 0.90126 0.0
H614 H 0.80596 0.24872 0.97928 0.0
H615 H 0.80776 0.27072 0.92049 0.0
C616 C 0.56551 0.80441 0.06816 0.0
C617 C 0.54803 0.81326 0.05734 0.0
C618 C 0.5599 0.78501 0.11131 0.0
C619 C 0.5363 0.7745 0.14456 0.0
C620 C 0.51774 0.78212 0.13056 0.0
C621 C 0.52395 0.80167 0.08712 0.0
C622 C 0.58012 0.7772 0.12436 0.0
C623 C 0.49227 0.77114 0.16438 0.0
C624 C 0.52648 0.71558 0.23038 0.0
C625 C 0.53989 0.72715 0.28411 0.0
C626 C 0.52245 0.73024 0.18654 0.0
C627 C 0.53242 0.75712 0.19666 0.0
C628 C 0.54328 0.76814 0.25381 0.0
C629 C 0.54682 0.75288 0.29729 0.0
C630 C 0.51018 0.7176 0.12695 0.0
C631 C 0.55382 0.79671 0.26654 0.0
H632 H 0.58434 0.81394 0.04581 0.0
H633 H 0.51079 0.80914 0.07949 0.0
H634 H 0.58795 0.78348 0.17075 0.0
H635 H 0.57118 0.7557 0.12239 0.0
H636 H 0.59665 0.78603 0.0919 0.0
H637 H 0.47806 0.77495 0.14021 0.0
H638 H 0.48346 0.74983 0.17128 0.0
H639 H 0.49588 0.78036 0.20972 0.0
H640 H 0.52092 0.69551 0.22065 0.0
H641 H 0.55724 0.76176 0.33885 0.0
H642 H 0.52573 0.7228 0.09273 0.0
H643 H 0.49718 0.72469 0.11008 0.0
H644 H 0.49879 0.69602 0.13075 0.0
H645 H 0.57227 0.80838 0.24111 0.0
H646 H 0.55787 0.80129 0.31546 0.0
H647 H 0.53989 0.80287 0.25115 0.0
C648 C 0.7537 0.5423 0.39894 0.0
C649 C 0.72687 0.5314 0.40709 0.0
C650 C 0.76875 0.53859 0.44262 0.0
C651 C 0.75638 0.52332 0.49466 0.0
C652 C 0.72889 0.50959 0.49869 0.0
C653 C 0.71442 0.51409 0.45508 0.0
C654 C 0.79806 0.55344 0.43644 0.0
C655 C 0.71492 0.49239 0.55219 0.0
C656 C 0.80311 0.51631 0.59908 0.0
C657 C 0.81072 0.53783 0.63712 0.0
C658 C 0.78367 0.5098 0.55528 0.0
C659 C 0.7723 0.52573 0.54873 0.0
C660 C 0.77856 0.54626 0.59042 0.0
C661 C 0.79773 0.55201 0.63444 0.0
C662 C 0.77699 0.48731 0.51302 0.0
C663 C 0.76682 0.5637 0.58509 0.0
H664 H 0.76323 0.5559 0.36206 0.0
H665 H 0.69357 0.50572 0.46114 0.0
H666 H 0.80643 0.56971 0.46955 0.0
H667 H 0.80628 0.54066 0.44661 0.0
H668 H 0.80436 0.56171 0.39033 0.0
H669 H 0.69401 0.47883 0.54208 0.0
H670 H 0.72416 0.48087 0.56601 0.0
H671 H 0.71608 0.50472 0.59118 0.0
H672 H 0.81362 0.50568 0.60083 0.0
H673 H 0.80414 0.56896 0.66324 0.0
H674 H 0.7876 0.49489 0.46971 0.0
H675 H 0.75582 0.47649 0.50267 0.0
H676 H 0.78266 0.47355 0.5324 0.0
H677 H 0.77352 0.57508 0.54244 0.0
H678 H 0.77237 0.57756 0.62354 0.0
H679 H 0.74525 0.55186 0.58316 0.0
C680 C 0.20737 0.72139 0.75585 0.0
C681 C 0.19744 0.73453 0.72228 0.0
C682 C 0.22696 0.73464 0.7992 0.0
C683 C 0.23619 0.76141 0.80964 0.0
C684 C 0.22746 0.77507 0.77247 0.0
C685 C 0.20812 0.76138 0.72908 0.0
C686 C 0.23618 0.71955 0.83685 0.0
C687 C 0.23692 0.8037 0.78187 0.0
C688 C 0.25631 0.79456 0.96167 0.0
C689 C 0.28264 0.81212 0.95072 0.0
C690 C 0.24115 0.77592 0.91785 0.0
C691 C 0.25289 0.7749 0.8627 0.0
C692 C 0.28015 0.79046 0.85518 0.0
C693 C 0.2947 0.80914 0.89918 0.0
C694 C 0.21213 0.75944 0.92777 0.0
C695 C 0.29352 0.78942 0.79797 0.0
H696 H 0.19855 0.70043 0.75117 0.0
H697 H 0.19987 0.77125 0.70382 0.0
H698 H 0.2575 0.73114 0.84494 0.0
H699 H 0.22637 0.71508 0.88157 0.0
H700 H 0.23157 0.70085 0.81492 0.0
H701 H 0.2295 0.81171 0.74658 0.0
H702 H 0.23034 0.8066 0.82675 0.0
H703 H 0.25853 0.81506 0.7815 0.0
H704 H 0.24705 0.79708 1.00141 0.0
H705 H 0.31519 0.82278 0.89107 0.0
H706 H 0.20513 0.73891 0.91474 0.0
H707 H 0.20189 0.76678 0.89871 0.0
H708 H 0.20665 0.75993 0.97563 0.0
H709 H 0.28555 0.76902 0.78243 0.0
H710 H 0.31491 0.79841 0.80441 0.0
H711 H 0.29003 0.80023 0.76157 0.0
C712 C 0.48929 0.20607 0.0939 0.0
C713 C 0.4672 0.19673 0.05697 0.0
C714 C 0.4948 0.22548 0.13716 0.0
C715 C 0.47732 0.23501 0.14424 0.0
C716 C 0.45614 0.22705 0.10351 0.0
C717 C 0.4514 0.20797 0.06005 0.0
C718 C 0.51798 0.23404 0.1784 0.0
C719 C 0.43705 0.23681 0.10941 0.0
C720 C 0.46019 0.25244 0.29489 0.0
C721 C 0.4695 0.27901 0.28631 0.0
C722 C 0.46461 0.23802 0.25085 0.0
C723 C 0.47895 0.25077 0.19797 0.0
C724 C 0.49097 0.27815 0.19304 0.0
C725 C 0.4858 0.29195 0.23708 0.0
C726 C 0.45156 0.20881 0.25787 0.0
C727 C 0.50708 0.29254 0.13848 0.0
H728 H 0.50118 0.19688 0.0919 0.0
H729 H 0.43403 0.20021 0.03211 0.0
H730 H 0.52761 0.25526 0.18772 0.0
H731 H 0.51136 0.22369 0.22231 0.0
H732 H 0.53255 0.22953 0.15873 0.0
H733 H 0.42284 0.23017 0.07148 0.0
H734 H 0.42609 0.22964 0.15248 0.0
H735 H 0.44754 0.25841 0.11083 0.0
H736 H 0.44739 0.24253 0.3328 0.0
H737 H 0.49297 0.3126 0.23077 0.0
H738 H 0.46542 0.20191 0.24739 0.0
H739 H 0.43512 0.19932 0.22537 0.0
H740 H 0.44381 0.20237 0.30432 0.0
H741 H 0.51973 0.28463 0.12423 0.0
H742 H 0.51949 0.31374 0.14755 0.0
H743 H 0.49393 0.29005 0.10013 0.0
C744 C 0.40002 0.51893 0.28864 0.0
C745 C 0.39182 0.49868 0.33105 0.0
C746 C 0.42407 0.54213 0.29519 0.0
C747 C 0.44027 0.54523 0.34544 0.0
C748 C 0.43242 0.52465 0.38749 0.0
C749 C 0.40843 0.50168 0.3797 0.0
C750 C 0.43192 0.56357 0.24902 0.0
C751 C 0.44909 0.52713 0.44165 0.0
C752 C 0.51196 0.5972 0.33756 0.0
C753 C 0.51246 0.61779 0.37028 0.0
C754 C 0.4887 0.57344 0.32964 0.0
C755 C 0.46525 0.57013 0.35473 0.0
C756 C 0.46569 0.59056 0.38903 0.0
C757 C 0.4893 0.61409 0.39664 0.0
C758 C 0.48915 0.55203 0.2935 0.0
C759 C 0.44109 0.58776 0.41661 0.0
H760 H 0.38743 0.51689 0.25092 0.0
H761 H 0.40246 0.48624 0.41285 0.0
H762 H 0.43372 0.5812 0.27118 0.0
H763 H 0.45128 0.56901 0.22974 0.0
H764 H 0.41762 0.5578 0.21142 0.0
H765 H 0.44059 0.50903 0.46919 0.0
H766 H 0.46887 0.53187 0.42673 0.0
H767 H 0.45142 0.54337 0.47093 0.0
H768 H 0.52977 0.59978 0.31727 0.0
H769 H 0.4894 0.6299 0.42159 0.0
H770 H 0.47644 0.5474 0.25312 0.0
H771 H 0.48128 0.53399 0.32103 0.0
H772 H 0.50911 0.55746 0.27824 0.0
H773 H 0.42674 0.58437 0.38042 0.0
H774 H 0.44476 0.60529 0.44279 0.0
H775 H 0.43205 0.57059 0.4471 0.0
C776 C 0.88101 0.48846 0.73864 0.0
C777 C 0.89619 0.51021 0.70189 0.0
C778 C 0.88165 0.46518 0.7314 0.0
C779 C 0.89789 0.46361 0.68648 0.0
C780 C 0.91378 0.4857 0.65043 0.0
C781 C 0.91276 0.50867 0.65857 0.0
C782 C 0.86451 0.44207 0.77095 0.0
C783 C 0.9315 0.48491 0.60234 0.0
C784 C 0.91522 0.41008 0.70111 0.0
C785 C 0.8975 0.39105 0.66097 0.0
C786 C 0.91575 0.43385 0.7093 0.0
C787 C 0.89811 0.4388 0.67673 0.0
C788 C 0.88061 0.42001 0.63504 0.0
C789 C 0.88057 0.3964 0.6275 0.0
C790 C 0.93491 0.45347 0.75368 0.0
C791 C 0.86153 0.4246 0.59933 0.0
H792 H 0.86811 0.48935 0.77211 0.0
H793 H 0.92471 0.52534 0.63005 0.0
H794 H 0.85038 0.42562 0.74245 0.0
H795 H 0.87651 0.43538 0.79521 0.0
H796 H 0.85349 0.44662 0.80481 0.0
H797 H 0.94322 0.50401 0.57935 0.0
H798 H 0.945 0.47912 0.62263 0.0
H799 H 0.91974 0.47005 0.56778 0.0
H800 H 0.92852 0.40628 0.72699 0.0
H801 H 0.86673 0.38185 0.59662 0.0
H802 H 0.92421 0.45685 0.79051 0.0
H803 H 0.94719 0.47245 0.73079 0.0
H804 H 0.94785 0.44698 0.77416 0.0
H805 H 0.84827 0.42702 0.63073 0.0
H806 H 0.84957 0.40831 0.56783 0.0
H807 H 0.87212 0.44287 0.57276 0.0
C808 C 0.49096 0.88071 0.96198 0.0
C809 C 0.51241 0.89539 1.0 0.0
C810 C 0.46752 0.88103 0.96933 0.0
C811 C 0.46545 0.89644 0.01566 0.0
C812 C 0.48714 0.91167 0.05339 0.0
C813 C 0.5103 0.91097 0.04514 0.0
C814 C 0.44483 0.86459 0.928 0.0
C815 C 0.48581 0.92849 0.10303 0.0
C816 C 0.4124 0.91434 0.99918 0.0
C817 C 0.39255 0.89582 0.03649 0.0
C818 C 0.43632 0.91502 0.99279 0.0
C819 C 0.44062 0.89674 0.02444 0.0
C820 C 0.42105 0.87854 0.0637 0.0
C821 C 0.39728 0.87832 0.06937 0.0
C822 C 0.45674 0.9349 0.95093 0.0
C823 C 0.42497 0.85881 0.09849 0.0
H824 H 0.49228 0.86856 0.92712 0.0
H825 H 0.5267 0.9225 0.07473 0.0
H826 H 0.42793 0.85025 0.95506 0.0
H827 H 0.43868 0.87708 0.904 0.0
H828 H 0.44963 0.85387 0.89385 0.0
H829 H 0.50453 0.93948 0.12796 0.0
H830 H 0.48066 0.94262 0.08369 0.0
H831 H 0.47027 0.91619 0.13576 0.0
H832 H 0.4091 0.92809 0.97381 0.0
H833 H 0.38211 0.86389 0.09815 0.0
H834 H 0.46051 0.92483 0.91329 0.0
H835 H 0.47539 0.94654 0.97556 0.0
H836 H 0.45077 0.94841 0.93139 0.0
H837 H 0.42752 0.84585 0.06642 0.0
H838 H 0.40827 0.8466 0.12879 0.0
H839 H 0.44297 0.86885 0.12619 0.0
C840 C 0.61117 0.4856 0.29671 0.0
C841 C 0.61629 0.50795 0.32948 0.0
C842 C 0.58719 0.4623 0.30253 0.0
C843 C 0.5678 0.46136 0.34175 0.0
C844 C 0.57249 0.4841 0.3732 0.0
C845 C 0.59662 0.50706 0.36674 0.0
C846 C 0.58286 0.43847 0.26798 0.0
C847 C 0.55225 0.48402 0.41492 0.0
C848 C 0.49793 0.40665 0.32012 0.0
C849 C 0.4956 0.38859 0.36456 0.0
C850 C 0.52119 0.43042 0.31257 0.0
C851 C 0.54273 0.43651 0.35052 0.0
C852 C 0.54035 0.4188 0.39659 0.0
C853 C 0.51684 0.39505 0.40305 0.0
C854 C 0.52287 0.44879 0.26305 0.0
C855 C 0.56283 0.42472 0.43834 0.0
H856 H 0.62622 0.48601 0.26804 0.0
H857 H 0.60025 0.52425 0.39197 0.0
H858 H 0.58001 0.42289 0.30019 0.0
H859 H 0.5649 0.43078 0.24021 0.0
H860 H 0.59949 0.44262 0.23776 0.0
H861 H 0.55854 0.50359 0.43428 0.0
H862 H 0.53364 0.47729 0.39023 0.0
H863 H 0.54823 0.47016 0.45267 0.0
H864 H 0.48171 0.40201 0.29011 0.0
H865 H 0.51533 0.38133 0.43747 0.0
H866 H 0.53818 0.45159 0.23005 0.0
H867 H 0.52857 0.4682 0.28236 0.0
H868 H 0.50414 0.44149 0.2384 0.0
H869 H 0.57963 0.4268 0.41162 0.0
H870 H 0.55766 0.40925 0.47285 0.0
H871 H 0.56932 0.44351 0.4619 0.0
C872 C 0.09634 0.60045 0.70479 0.0
C873 C 0.11307 0.61884 0.66217 0.0
C874 C 0.09558 0.57656 0.71269 0.0
C875 C 0.11197 0.57083 0.67724 0.0
C876 C 0.12846 0.58898 0.63317 0.0
C877 C 0.12877 0.61273 0.62604 0.0
C878 C 0.07754 0.55764 0.75974 0.0
C879 C 0.14618 0.58353 0.59435 0.0
C880 C 0.12986 0.52113 0.73462 0.0
C881 C 0.11356 0.49916 0.69956 0.0
C882 C 0.1293 0.54448 0.72844 0.0
C883 C 0.11195 0.54588 0.68642 0.0
C884 C 0.09486 0.52354 0.65243 0.0
C885 C 0.09586 0.50051 0.65939 0.0
C886 C 0.14775 0.56786 0.76573 0.0
C887 C 0.07592 0.52414 0.60755 0.0
H888 H 0.08399 0.60484 0.73279 0.0
H889 H 0.14182 0.62677 0.59317 0.0
H890 H 0.06434 0.53849 0.73854 0.0
H891 H 0.08908 0.55439 0.79465 0.0
H892 H 0.0655 0.56471 0.78244 0.0
H893 H 0.15747 0.59942 0.56139 0.0
H894 H 0.16006 0.58107 0.62347 0.0
H895 H 0.13456 0.56505 0.56908 0.0
H896 H 0.14365 0.52037 0.76563 0.0
H897 H 0.08304 0.48365 0.63229 0.0
H898 H 0.1367 0.57517 0.7918 0.0
H899 H 0.16132 0.58386 0.73541 0.0
H900 H 0.15941 0.56336 0.79783 0.0
H901 H 0.06339 0.5306 0.63015 0.0
H902 H 0.06321 0.50481 0.58641 0.0
H903 H 0.0868 0.53843 0.57122 0.0
C904 C 0.61324 0.12976 0.06807 0.0
C905 C 0.61866 0.11305 0.03395 0.0
C906 C 0.58934 0.12925 0.06191 0.0
C907 C 0.57035 0.11154 0.02084 0.0
C908 C 0.57535 0.09404 0.98783 0.0
C909 C 0.59937 0.095 0.99477 0.0
C910 C 0.58466 0.14812 0.09819 0.0
C911 C 0.55555 0.0747 0.944 0.0
C912 C 0.50025 0.09608 0.04007 0.0
C913 C 0.49834 0.11239 0.99661 0.0
C914 C 0.52345 0.09546 0.04805 0.0
C915 C 0.54538 0.11151 0.01175 0.0
C916 C 0.54347 0.12756 0.96684 0.0
C917 C 0.51997 0.12778 0.95971 0.0
C918 C 0.52461 0.07791 0.09609 0.0
C919 C 0.56642 0.14489 0.92704 0.0
H920 H 0.62797 0.14383 0.09831 0.0
H921 H 0.6032 0.08184 0.96842 0.0
H922 H 0.5821 0.1614 0.06715 0.0
H923 H 0.56644 0.13738 0.12487 0.0
H924 H 0.601 0.16005 0.12963 0.0
H925 H 0.56204 0.06178 0.92345 0.0
H926 H 0.53669 0.06241 0.96734 0.0
H927 H 0.55195 0.08525 0.90718 0.0
H928 H 0.48368 0.08398 0.0687 0.0
H929 H 0.51879 0.14051 0.92617 0.0
H930 H 0.53962 0.0898 0.13027 0.0
H931 H 0.53041 0.06447 0.07561 0.0
H932 H 0.50564 0.06614 0.11956 0.0
H933 H 0.58292 0.15904 0.95538 0.0
H934 H 0.56165 0.15586 0.89352 0.0
H935 H 0.57316 0.13302 0.90236 0.0
loop_
_geom_bond_atom_site_label_1
_geom_bond_atom_site_label_2
_geom_bond_distance
_geom_bond_site_symmetry_2
_ccdc_geom_bond_type
Co0 O1 2.216 . S
Co0 O2 2.091 . S
Co0 O4 2.004 . S
Co0 O10 2.021 . S
Co0 O12 2.137 . S
Co0 O13 2.244 . S
O1 Co0 2.216 . S
O1 C8 1.247 . S
O2 Co0 2.091 . S
O2 C8 1.261 . S
C3 O12 1.247 . S
C3 O13 1.272 . S
O4 Co0 2.004 . S
O4 C9 1.259 . S
Co5 O6 2.061 . S
Co5 O11 2.052 . S
Co5 O13 2.135 . S
O6 Co5 2.061 . S
O6 C9 1.235 . S
C7 O10 1.238 . S
C7 O11 1.241 . S
C8 O1 1.247 . S
C8 O2 1.261 . S
C9 O4 1.259 . S
C9 O6 1.235 . S
O10 Co0 2.021 . S
O10 C7 1.238 . S
O11 Co5 2.052 . S
O11 C7 1.241 . S
O12 Co0 2.137 . S
O12 C3 1.247 . S
O13 Co0 2.244 . S
O13 C3 1.272 . S
O13 Co5 2.135 . S
Co14 O15 2.216 . S
Co14 O16 2.091 . S
Co14 O18 2.004 . S
Co14 O24 2.021 . S
Co14 O26 2.137 . S
Co14 O27 2.244 . S
O15 Co14 2.216 . S
O15 C22 1.247 . S
O16 Co14 2.091 . S
O16 C22 1.261 . S
C17 O26 1.247 . S
C17 O27 1.272 . S
O18 Co14 2.004 . S
O18 C23 1.259 . S
Co19 O20 2.061 . S
Co19 O25 2.052 . S
Co19 O27 2.135 . S
O20 Co19 2.061 . S
O20 C23 1.235 . S
C21 O24 1.238 . S
C21 O25 1.241 . S
C22 O15 1.247 . S
C22 O16 1.261 . S
C23 O18 1.259 . S
C23 O20 1.235 . S
O24 Co14 2.021 . S
O24 C21 1.238 . S
O25 Co19 2.052 . S
O25 C21 1.241 . S
O26 Co14 2.137 . S
O26 C17 1.247 . S
O27 Co14 2.244 . S
O27 C17 1.272 . S
O27 Co19 2.135 . S
Co28 O29 2.216 . S
Co28 O30 2.091 . S
Co28 O32 2.004 . S
Co28 O38 2.021 . S
Co28 O40 2.137 . S
Co28 O41 2.244 . S
O29 Co28 2.216 . S
O29 C36 1.247 . S
O30 Co28 2.091 . S
O30 C36 1.261 . S
C31 O40 1.247 . S
C31 O41 1.272 . S
O32 Co28 2.004 . S
O32 C37 1.259 . S
Co33 O34 2.061 . S
Co33 O39 2.052 . S
Co33 O41 2.135 1_554 S
O34 Co33 2.061 . S
O34 C37 1.235 1_554 S
C35 O38 1.238 1_554 S
C35 O39 1.241 . S
C36 O29 1.247 . S
C36 O30 1.261 . S
C37 O32 1.259 . S
C37 O34 1.235 1_556 S
O38 Co28 2.021 . S
O38 C35 1.238 1_556 S
O39 Co33 2.052 . S
O39 C35 1.241 . S
O40 Co28 2.137 . S
O40 C31 1.247 . S
O41 Co28 2.244 . S
O41 C31 1.272 . S
O41 Co33 2.135 1_556 S
Co42 O43 2.216 . S
Co42 O44 2.091 . S
Co42 O46 2.004 . S
Co42 O52 2.021 . S
Co42 O54 2.137 . S
Co42 O55 2.244 . S
O43 Co42 2.216 . S
O43 C50 1.247 . S
O44 Co42 2.091 . S
O44 C50 1.261 . S
C45 O54 1.247 . S
C45 O55 1.272 . S
O46 Co42 2.004 . S
O46 C51 1.259 . S
Co47 O48 2.061 . S
Co47 O53 2.052 . S
Co47 O55 2.135 . S
O48 Co47 2.061 . S
O48 C51 1.235 . S
C49 O52 1.238 . S
C49 O53 1.241 . S
C50 O43 1.247 . S
C50 O44 1.261 . S
C51 O46 1.259 . S
C51 O48 1.235 . S
O52 Co42 2.021 . S
O52 C49 1.238 . S
O53 Co47 2.052 . S
O53 C49 1.241 . S
O54 Co42 2.137 . S
O54 C45 1.247 . S
O55 Co42 2.244 . S
O55 C45 1.272 . S
O55 Co47 2.135 . S
Co56 O57 2.216 . S
Co56 O58 2.091 . S
Co56 O60 2.004 . S
Co56 O66 2.021 . S
Co56 O68 2.137 . S
Co56 O69 2.244 . S
O57 Co56 2.216 . S
O57 C64 1.247 . S
O58 Co56 2.091 . S
O58 C64 1.261 . S
C59 O68 1.247 . S
C59 O69 1.272 . S
O60 Co56 2.004 . S
O60 C65 1.259 . S
Co61 O62 2.061 . S
Co61 O67 2.052 . S
Co61 O69 2.135 . S
O62 Co61 2.061 . S
O62 C65 1.235 . S
C63 O66 1.238 . S
C63 O67 1.241 . S
C64 O57 1.247 . S
C64 O58 1.261 . S
C65 O60 1.259 . S
C65 O62 1.235 . S
O66 Co56 2.021 . S
O66 C63 1.238 . S
O67 Co61 2.052 . S
O67 C63 1.241 . S
O68 Co56 2.137 . S
O68 C59 1.247 . S
O69 Co56 2.244 . S
O69 C59 1.272 . S
O69 Co61 2.135 . S
Co70 O71 2.216 . S
Co70 O72 2.091 . S
Co70 O74 2.004 . S
Co70 O80 2.021 . S
Co70 O82 2.137 . S
Co70 O83 2.244 . S
O71 Co70 2.216 . S
O71 C78 1.247 . S
O72 Co70 2.091 . S
O72 C78 1.261 . S
C73 O82 1.247 . S
C73 O83 1.272 . S
O74 Co70 2.004 . S
O74 C79 1.259 . S
Co75 O76 2.061 . S
Co75 O81 2.052 . S
Co75 O83 2.135 1_554 S
O76 Co75 2.061 . S
O76 C79 1.235 1_554 S
C77 O80 1.238 1_554 S
C77 O81 1.241 . S
C78 O71 1.247 . S
C78 O72 1.261 . S
C79 O74 1.259 . S
C79 O76 1.235 1_556 S
O80 Co70 2.021 . S
O80 C77 1.238 1_556 S
O81 Co75 2.052 . S
O81 C77 1.241 . S
O82 Co70 2.137 . S
O82 C73 1.247 . S
O83 Co70 2.244 . S
O83 C73 1.272 . S
O83 Co75 2.135 1_556 S
Co84 O85 2.216 . S
Co84 O86 2.091 . S
Co84 O88 2.004 . S
Co84 O94 2.021 . S
Co84 O96 2.137 . S
Co84 O97 2.244 . S
O85 Co84 2.216 . S
O85 C92 1.247 . S
O86 Co84 2.091 . S
O86 C92 1.261 . S
C87 O96 1.247 . S
C87 O97 1.272 . S
O88 Co84 2.004 . S
O88 C93 1.259 . S
Co89 O90 2.061 . S
Co89 O95 2.052 . S
Co89 O97 2.135 . S
O90 Co89 2.061 . S
O90 C93 1.235 . S
C91 O94 1.238 . S
C91 O95 1.241 . S
C92 O85 1.247 . S
C92 O86 1.261 . S
C93 O88 1.259 . S
C93 O90 1.235 . S
O94 Co84 2.021 . S
O94 C91 1.238 . S
O95 Co89 2.052 . S
O95 C91 1.241 . S
O96 Co84 2.137 . S
O96 C87 1.247 . S
O97 Co84 2.244 . S
O97 C87 1.272 . S
O97 Co89 2.135 . S
Co98 O99 2.216 . S
Co98 O100 2.091 . S
Co98 O102 2.004 . S
Co98 O108 2.021 . S
Co98 O110 2.137 . S
Co98 O111 2.244 . S
O99 Co98 2.216 . S
O99 C106 1.247 . S
O100 Co98 2.091 . S
O100 C106 1.261 . S
C101 O110 1.247 . S
C101 O111 1.272 . S
O102 Co98 2.004 . S
O102 C107 1.259 . S
Co103 O104 2.061 . S
Co103 O109 2.052 . S
Co103 O111 2.135 . S
O104 Co103 2.061 . S
O104 C107 1.235 . S
C105 O108 1.238 . S
C105 O109 1.241 . S
C106 O99 1.247 . S
C106 O100 1.261 . S
C107 O102 1.259 . S
C107 O104 1.235 . S
O108 Co98 2.021 . S
O108 C105 1.238 . S
O109 Co103 2.052 . S
O109 C105 1.241 . S
O110 Co98 2.137 . S
O110 C101 1.247 . S
O111 Co98 2.244 . S
O111 C101 1.272 . S
O111 Co103 2.135 . S
Co112 O113 2.216 . S
Co112 O114 2.091 . S
Co112 O116 2.004 . S
Co112 O122 2.021 . S
Co112 O124 2.137 . S
Co112 O125 2.244 . S
O113 Co112 2.216 . S
O113 C120 1.247 . S
O114 Co112 2.091 . S
O114 C120 1.261 . S
C115 O124 1.247 . S
C115 O125 1.272 . S
O116 Co112 2.004 . S
O116 C121 1.259 . S
Co117 O118 2.061 . S
Co117 O123 2.052 . S
Co117 O125 2.135 1_556 S
O118 Co117 2.061 . S
O118 C121 1.235 1_556 S
C119 O122 1.238 1_556 S
C119 O123 1.241 . S
C120 O113 1.247 . S
C120 O114 1.261 . S
C121 O116 1.259 . S
C121 O118 1.235 1_554 S
O122 Co112 2.021 . S
O122 C119 1.238 1_554 S
O123 Co117 2.052 . S
O123 C119 1.241 . S
O124 Co112 2.137 . S
O124 C115 1.247 . S
O125 Co112 2.244 . S
O125 C115 1.272 . S
O125 Co117 2.135 1_554 S
Co126 O127 2.216 . S
Co126 O128 2.091 . S
Co126 O130 2.004 . S
Co126 O136 2.021 . S
Co126 O138 2.137 . S
Co126 O139 2.244 . S
O127 Co126 2.216 . S
O127 C134 1.247 . S
O128 Co126 2.091 . S
O128 C134 1.261 . S
C129 O138 1.247 . S
C129 O139 1.272 . S
O130 Co126 2.004 . S
O130 C135 1.259 . S
Co131 O132 2.061 . S
Co131 O137 2.052 . S
Co131 O139 2.135 . S
O132 Co131 2.061 . S
O132 C135 1.235 . S
C133 O136 1.238 . S
C133 O137 1.241 . S
C134 O127 1.247 . S
C134 O128 1.261 . S
C135 O130 1.259 . S
C135 O132 1.235 . S
O136 Co126 2.021 . S
O136 C133 1.238 . S
O137 Co131 2.052 . S
O137 C133 1.241 . S
O138 Co126 2.137 . S
O138 C129 1.247 . S
O139 Co126 2.244 . S
O139 C129 1.272 . S
O139 Co131 2.135 . S
Co140 O141 2.216 . S
Co140 O142 2.091 . S
Co140 O144 2.004 . S
Co140 O150 2.021 . S
Co140 O152 2.137 . S
Co140 O153 2.244 . S
O141 Co140 2.216 . S
O141 C148 1.247 . S
O142 Co140 2.091 . S
O142 C148 1.261 . S
C143 O152 1.247 . S
C143 O153 1.272 . S
O144 Co140 2.004 . S
O144 C149 1.259 . S
Co145 O146 2.061 . S
Co145 O151 2.052 . S
Co145 O153 2.135 . S
O146 Co145 2.061 . S
O146 C149 1.235 . S
C147 O150 1.238 . S
C147 O151 1.241 . S
C148 O141 1.247 . S
C148 O142 1.261 . S
C149 O144 1.259 . S
C149 O146 1.235 . S
O150 Co140 2.021 . S
O150 C147 1.238 . S
O151 Co145 2.052 . S
O151 C147 1.241 . S
O152 Co140 2.137 . S
O152 C143 1.247 . S
O153 Co140 2.244 . S
O153 C143 1.272 . S
O153 Co145 2.135 . S
Co154 O155 2.216 . S
Co154 O156 2.091 . S
Co154 O158 2.004 . S
Co154 O164 2.021 . S
Co154 O166 2.137 . S
Co154 O167 2.244 . S
O155 Co154 2.216 . S
O155 C162 1.247 . S
O156 Co154 2.091 . S
O156 C162 1.261 . S
C157 O166 1.247 . S
C157 O167 1.272 . S
O158 Co154 2.004 . S
O158 C163 1.259 . S
Co159 O160 2.061 . S
Co159 O165 2.052 . S
Co159 O167 2.135 1_556 S
O160 Co159 2.061 . S
O160 C163 1.235 1_556 S
C161 O164 1.238 1_556 S
C161 O165 1.241 . S
C162 O155 1.247 . S
C162 O156 1.261 . S
C163 O158 1.259 . S
C163 O160 1.235 1_554 S
O164 Co154 2.021 . S
O164 C161 1.238 1_554 S
O165 Co159 2.052 . S
O165 C161 1.241 . S
O166 Co154 2.137 . S
O166 C157 1.247 . S
O167 Co154 2.244 . S
O167 C157 1.272 . S
O167 Co159 2.135 1_554 S
C168 C169 1.391 . S
C168 C170 1.394 . S
C168 H184 0.931 . S
C169 C168 1.391 . S
C169 C173 1.376 . S
C170 C168 1.394 . S
C170 C171 1.369 . S
C170 C174 1.531 . S
C171 C170 1.369 . S
C171 C172 1.410 . S
C171 C179 1.503 . S
C172 C171 1.410 . S
C172 C173 1.392 . S
C172 C175 1.511 . S
C173 C169 1.376 . S
C173 C172 1.392 . S
C173 H185 0.929 . S
C174 C170 1.531 . S
C174 H186 0.960 . S
C174 H187 0.962 . S
C174 H188 0.960 . S
C175 C172 1.511 . S
C175 H189 0.961 . S
C175 H190 0.961 . S
C175 H191 0.961 . S
C176 C177 1.370 . S
C176 C178 1.363 . S
C176 H192 0.931 . S
C177 C176 1.370 . S
C177 C181 1.408 . S
C178 C176 1.363 . S
C178 C179 1.370 . S
C178 C182 1.524 . S
C179 C171 1.503 . S
C179 C178 1.370 . S
C179 C180 1.403 . S
C180 C179 1.403 . S
C180 C181 1.404 . S
C180 C183 1.539 . S
C181 C177 1.408 . S
C181 C180 1.404 . S
C181 H193 0.930 . S
C182 C178 1.524 . S
C182 H194 0.956 . S
C182 H195 0.961 . S
C182 H196 0.961 . S
C183 C180 1.539 . S
C183 H197 0.958 . S
C183 H198 0.961 . S
C183 H199 0.960 . S
H184 C168 0.931 . S
H185 C173 0.929 . S
H186 C174 0.960 . S
H187 C174 0.962 . S
H188 C174 0.960 . S
H189 C175 0.961 . S
H190 C175 0.961 . S
H191 C175 0.961 . S
H192 C176 0.931 . S
H193 C181 0.930 . S
H194 C182 0.956 . S
H195 C182 0.961 . S
H196 C182 0.961 . S
H197 C183 0.958 . S
H198 C183 0.961 . S
H199 C183 0.960 . S
C200 C201 1.391 . S
C200 C202 1.394 . S
C200 H216 0.931 . S
C201 C200 1.391 . S
C201 C205 1.376 . S
C202 C200 1.394 . S
C202 C203 1.369 . S
C202 C206 1.531 . S
C203 C202 1.369 . S
C203 C204 1.410 . S
C203 C211 1.503 1_655 S
C204 C203 1.410 . S
C204 C205 1.392 . S
C204 C207 1.511 . S
C205 C201 1.376 . S
C205 C204 1.392 . S
C205 H217 0.929 . S
C206 C202 1.531 . S
C206 H218 0.960 1_655 S
C206 H219 0.962 1_655 S
C206 H220 0.960 . S
C207 C204 1.511 . S
C207 H221 0.961 . S
C207 H222 0.961 . S
C207 H223 0.961 . S
C208 C209 1.370 . S
C208 C210 1.363 . S
C208 H224 0.931 . S
C209 C208 1.370 . S
C209 C213 1.408 . S
C210 C208 1.363 . S
C210 C211 1.370 . S
C210 C214 1.524 . S
C211 C203 1.503 1_455 S
C211 C210 1.370 . S
C211 C212 1.403 . S
C212 C211 1.403 . S
C212 C213 1.404 . S
C212 C215 1.539 . S
C213 C209 1.408 . S
C213 C212 1.404 . S
C213 H225 0.930 . S
C214 C210 1.524 . S
C214 H226 0.956 . S
C214 H227 0.961 . S
C214 H228 0.961 . S
C215 C212 1.539 . S
C215 H229 0.958 . S
C215 H230 0.961 . S
C215 H231 0.960 1_455 S
H216 C200 0.931 . S
H217 C205 0.929 . S
H218 C206 0.960 1_455 S
H219 C206 0.962 1_455 S
H220 C206 0.960 . S
H221 C207 0.961 . S
H222 C207 0.961 . S
H223 C207 0.961 . S
H224 C208 0.931 . S
H225 C213 0.930 . S
H226 C214 0.956 . S
H227 C214 0.961 . S
H228 C214 0.961 . S
H229 C215 0.958 . S
H230 C215 0.961 . S
H231 C215 0.960 1_655 S
C232 C233 1.391 . S
C232 C234 1.394 1_556 S
C232 H248 0.931 . S
C233 C232 1.391 . S
C233 C237 1.376 . S
C234 C232 1.394 1_554 S
C234 C235 1.369 . S
C234 C238 1.531 . S
C235 C234 1.369 . S
C235 C236 1.410 1_554 S
C235 C243 1.503 1_565 S
C236 C235 1.410 1_556 S
C236 C237 1.392 . S
C236 C239 1.511 . S
C237 C233 1.376 . S
C237 C236 1.392 . S
C237 H249 0.929 . S
C238 C234 1.531 . S
C238 H250 0.960 . S
C238 H251 0.962 . S
C238 H252 0.960 . S
C239 C236 1.511 . S
C239 H253 0.961 . S
C239 H254 0.961 1_565 S
C239 H255 0.962 1_556 S
C240 C241 1.370 1_556 S
C240 C242 1.363 . S
C240 H256 0.931 . S
C241 C240 1.370 1_554 S
C241 C245 1.408 . S
C242 C240 1.363 . S
C242 C243 1.370 1_556 S
C242 C246 1.524 . S
C243 C235 1.503 1_545 S
C243 C242 1.370 1_554 S
C243 C244 1.403 . S
C244 C243 1.403 . S
C244 C245 1.404 . S
C244 C247 1.519 1_545 S
C245 C241 1.408 . S
C245 C244 1.404 . S
C245 H257 0.930 . S
C246 C242 1.524 . S
C246 H258 0.956 . S
C246 H259 0.961 . S
C246 H260 0.961 . S
C247 C244 1.519 1_565 S
C247 H261 0.957 . S
C247 H262 0.961 1_565 S
C247 H263 0.983 . S
H248 C232 0.931 . S
H249 C237 0.929 . S
H250 C238 0.960 . S
H251 C238 0.962 . S
H252 C238 0.960 . S
H253 C239 0.961 . S
H254 C239 0.961 1_545 S
H255 C239 0.962 1_554 S
H256 C240 0.931 . S
H257 C245 0.930 . S
H258 C246 0.956 . S
H259 C246 0.961 . S
H260 C246 0.961 . S
H261 C247 0.957 . S
H262 C247 0.961 1_545 S
H263 C247 0.983 . S
C264 C265 1.391 . S
C264 C266 1.394 . S
C264 H280 0.931 . S
C265 C264 1.391 . S
C265 C269 1.376 . S
C266 C264 1.394 . S
C266 C267 1.369 . S
C266 C270 1.531 . S
C267 C266 1.369 . S
C267 C268 1.410 . S
C267 C275 1.503 . S
C268 C267 1.410 . S
C268 C269 1.392 . S
C268 C271 1.511 . S
C269 C265 1.376 . S
C269 C268 1.392 . S
C269 H281 0.929 . S
C270 C266 1.531 . S
C270 H282 0.960 . S
C270 H283 0.962 . S
C270 H284 0.960 . S
C271 C268 1.511 . S
C271 H285 0.961 . S
C271 H286 0.961 . S
C271 H287 0.961 . S
C272 C273 1.370 . S
C272 C274 1.363 . S
C272 H288 0.931 . S
C273 C272 1.370 . S
C273 C277 1.408 . S
C274 C272 1.363 . S
C274 C275 1.370 . S
C274 C278 1.524 . S
C275 C267 1.503 . S
C275 C274 1.370 . S
C275 C276 1.403 . S
C276 C275 1.403 . S
C276 C277 1.404 . S
C276 C279 1.539 . S
C277 C273 1.408 . S
C277 C276 1.404 . S
C277 H289 0.930 . S
C278 C274 1.524 . S
C278 H290 0.956 . S
C278 H291 0.961 . S
C278 H292 0.961 . S
C279 C276 1.539 . S
C279 H293 0.958 . S
C279 H294 0.961 . S
C279 H295 0.960 . S
H280 C264 0.931 . S
H281 C269 0.929 . S
H282 C270 0.960 . S
H283 C270 0.962 . S
H284 C270 0.960 . S
H285 C271 0.961 . S
H286 C271 0.961 . S
H287 C271 0.961 . S
H288 C272 0.931 . S
H289 C277 0.930 . S
H290 C278 0.956 . S
H291 C278 0.961 . S
H292 C278 0.961 . S
H293 C279 0.958 . S
H294 C279 0.961 . S
H295 C279 0.960 . S
C296 C297 1.391 . S
C296 C298 1.394 . S
C296 H312 0.931 . S
C297 C296 1.391 . S
C297 C301 1.376 . S
C298 C296 1.394 . S
C298 C299 1.369 . S
C298 C302 1.531 . S
C299 C298 1.369 . S
C299 C300 1.410 . S
C299 C307 1.503 1_655 S
C300 C299 1.410 . S
C300 C301 1.392 . S
C300 C303 1.511 . S
C301 C297 1.376 . S
C301 C300 1.392 . S
C301 H313 0.929 . S
C302 C298 1.531 . S
C302 H314 0.960 1_655 S
C302 H315 0.962 . S
C302 H316 0.960 . S
C303 C300 1.511 . S
C303 H317 0.961 . S
C303 H318 0.961 1_655 S
C303 H319 0.961 . S
C304 C305 1.370 . S
C304 C306 1.363 . S
C304 H320 0.931 . S
C305 C304 1.370 . S
C305 C309 1.408 . S
C306 C304 1.363 . S
C306 C307 1.370 . S
C306 C310 1.524 1_455 S
C307 C299 1.503 1_455 S
C307 C306 1.370 . S
C307 C308 1.403 . S
C308 C307 1.403 . S
C308 C309 1.404 . S
C308 C311 1.539 . S
C309 C305 1.408 . S
C309 C308 1.404 . S
C309 H321 0.930 . S
C310 C306 1.524 1_655 S
C310 H322 0.956 . S
C310 H323 0.961 . S
C310 H324 0.961 1_655 S
C311 C308 1.539 . S
C311 H325 0.958 . S
C311 H326 0.961 . S
C311 H327 0.960 . S
H312 C296 0.931 . S
H313 C301 0.929 . S
H314 C302 0.960 1_455 S
H315 C302 0.962 . S
H316 C302 0.960 . S
H317 C303 0.961 . S
H318 C303 0.961 1_455 S
H319 C303 0.961 . S
H320 C304 0.931 . S
H321 C309 0.930 . S
H322 C310 0.956 . S
H323 C310 0.961 . S
H324 C310 0.961 1_455 S
H325 C311 0.958 . S
H326 C311 0.961 . S
H327 C311 0.960 . S
C328 C329 1.391 . S
C328 C330 1.394 . S
C328 H344 0.931 . S
C329 C328 1.391 . S
C329 C333 1.376 . S
C330 C328 1.394 . S
C330 C331 1.369 . S
C330 C334 1.531 . S
C331 C330 1.369 . S
C331 C332 1.410 . S
C331 C339 1.503 1_564 S
C332 C331 1.410 . S
C332 C333 1.393 . S
C332 C335 1.510 1_554 S
C333 C329 1.376 . S
C333 C332 1.393 . S
C333 H345 0.929 . S
C334 C330 1.531 . S
C334 H346 0.960 1_565 S
C334 H347 0.980 . S
C334 H348 0.960 . S
C335 C332 1.510 1_556 S
C335 H349 0.961 . S
C335 H350 0.961 . S
C335 H351 0.961 . S
C336 C337 1.370 . S
C336 C338 1.363 . S
C336 H352 0.931 . S
C337 C336 1.370 . S
C337 C341 1.408 1_556 S
C338 C336 1.363 . S
C338 C339 1.370 . S
C338 C342 1.524 1_545 S
C339 C331 1.503 1_546 S
C339 C338 1.370 . S
C339 C340 1.403 1_556 S
C340 C339 1.403 1_554 S
C340 C341 1.404 . S
C340 C343 1.539 . S
C341 C337 1.408 1_554 S
C341 C340 1.404 . S
C341 H353 0.930 . S
C342 C338 1.524 1_565 S
C342 H354 0.956 . S
C342 H355 0.961 . S
C342 H356 0.961 1_565 S
C343 C340 1.539 . S
C343 H357 0.958 . S
C343 H358 0.961 . S
C343 H359 0.960 . S
H344 C328 0.931 . S
H345 C333 0.929 . S
H346 C334 0.960 1_545 S
H347 C334 0.980 . S
H348 C334 0.960 . S
H349 C335 0.961 . S
H350 C335 0.961 . S
H351 C335 0.961 . S
H352 C336 0.931 . S
H353 C341 0.930 . S
H354 C342 0.956 . S
H355 C342 0.961 . S
H356 C342 0.961 1_545 S
H357 C343 0.958 . S
H358 C343 0.961 . S
H359 C343 0.960 . S
C360 C361 1.391 . S
C360 C362 1.394 . S
C360 H376 0.931 . S
C361 C360 1.391 . S
C361 C365 1.376 . S
C362 C360 1.394 . S
C362 C363 1.369 . S
C362 C366 1.531 . S
C363 C362 1.369 . S
C363 C364 1.410 . S
C363 C371 1.503 1_556 S
C364 C363 1.410 . S
C364 C365 1.392 . S
C364 C367 1.511 1_556 S
C365 C361 1.376 . S
C365 C364 1.392 . S
C365 H377 0.929 . S
C366 C362 1.531 . S
C366 H378 0.960 . S
C366 H379 0.962 . S
C366 H380 0.960 . S
C367 C364 1.511 1_554 S
C367 H381 0.961 . S
C367 H382 0.961 . S
C367 H383 0.961 . S
C368 C369 1.370 . S
C368 C370 1.363 . S
C368 H384 0.931 . S
C369 C368 1.370 . S
C369 C373 1.408 . S
C370 C368 1.363 . S
C370 C371 1.370 . S
C370 C374 1.524 . S
C371 C363 1.503 1_554 S
C371 C370 1.370 . S
C371 C372 1.403 . S
C372 C371 1.403 . S
C372 C373 1.404 . S
C372 C375 1.539 . S
C373 C369 1.408 . S
C373 C372 1.404 . S
C373 H385 0.930 . S
C374 C370 1.524 . S
C374 H386 0.956 1_554 S
C374 H387 0.961 . S
C374 H388 0.961 . S
C375 C372 1.539 . S
C375 H389 0.958 . S
C375 H390 0.961 . S
C375 H391 0.960 . S
H376 C360 0.931 . S
H377 C365 0.929 . S
H378 C366 0.960 . S
H379 C366 0.962 . S
H380 C366 0.960 . S
H381 C367 0.961 . S
H382 C367 0.961 . S
H383 C367 0.961 . S
H384 C368 0.931 . S
H385 C373 0.930 . S
H386 C374 0.956 1_556 S
H387 C374 0.961 . S
H388 C374 0.961 . S
H389 C375 0.958 . S
H390 C375 0.961 . S
H391 C375 0.960 . S
C392 C393 1.391 . S
C392 C394 1.394 . S
C392 H408 0.931 . S
C393 C392 1.391 . S
C393 C397 1.376 . S
C394 C392 1.394 . S
C394 C395 1.369 . S
C394 C398 1.531 . S
C395 C394 1.369 . S
C395 C396 1.410 . S
C395 C403 1.503 . S
C396 C395 1.410 . S
C396 C397 1.392 . S
C396 C399 1.511 . S
C397 C393 1.376 . S
C397 C396 1.392 . S
C397 H409 0.929 . S
C398 C394 1.531 . S
C398 H410 0.960 . S
C398 H411 0.962 . S
C398 H412 0.960 . S
C399 C396 1.511 . S
C399 H413 0.961 . S
C399 H414 0.961 . S
C399 H415 0.961 . S
C400 C401 1.370 . S
C400 C402 1.363 . S
C400 H416 0.931 . S
C401 C400 1.370 . S
C401 C405 1.408 . S
C402 C400 1.363 . S
C402 C403 1.370 . S
C402 C406 1.524 . S
C403 C395 1.503 . S
C403 C402 1.370 . S
C403 C404 1.403 . S
C404 C403 1.403 . S
C404 C405 1.404 . S
C404 C407 1.539 . S
C405 C401 1.408 . S
C405 C404 1.404 . S
C405 H417 0.930 . S
C406 C402 1.524 . S
C406 H418 0.956 . S
C406 H419 0.961 . S
C406 H420 0.961 . S
C407 C404 1.539 . S
C407 H421 0.958 . S
C407 H422 0.961 . S
C407 H423 0.960 . S
H408 C392 0.931 . S
H409 C397 0.929 . S
H410 C398 0.960 . S
H411 C398 0.962 . S
H412 C398 0.960 . S
H413 C399 0.961 . S
H414 C399 0.961 . S
H415 C399 0.961 . S
H416 C400 0.931 . S
H417 C405 0.930 . S
H418 C406 0.956 . S
H419 C406 0.961 . S
H420 C406 0.961 . S
H421 C407 0.958 . S
H422 C407 0.961 . S
H423 C407 0.960 . S
C424 C425 1.391 . S
C424 C426 1.394 . S
C424 H440 0.931 . S
C425 C424 1.391 . S
C425 C429 1.376 . S
C426 C424 1.394 . S
C426 C427 1.369 . S
C426 C430 1.531 . S
C427 C426 1.369 . S
C427 C428 1.410 . S
C427 C435 1.503 . S
C428 C427 1.410 . S
C428 C429 1.392 . S
C428 C431 1.511 . S
C429 C425 1.376 . S
C429 C428 1.392 . S
C429 H441 0.929 . S
C430 C426 1.531 . S
C430 H442 0.960 . S
C430 H443 0.962 . S
C430 H444 0.960 . S
C431 C428 1.511 . S
C431 H445 0.961 . S
C431 H446 0.961 . S
C431 H447 0.961 . S
C432 C433 1.370 . S
C432 C434 1.363 . S
C432 H448 0.931 . S
C433 C432 1.370 . S
C433 C437 1.408 . S
C434 C432 1.363 . S
C434 C435 1.370 . S
C434 C438 1.524 . S
C435 C427 1.503 . S
C435 C434 1.370 . S
C435 C436 1.403 . S
C436 C435 1.403 . S
C436 C437 1.404 . S
C436 C439 1.539 . S
C437 C433 1.408 . S
C437 C436 1.404 . S
C437 H449 0.930 . S
C438 C434 1.524 . S
C438 H450 0.956 . S
C438 H451 0.961 . S
C438 H452 0.961 . S
C439 C436 1.539 . S
C439 H453 0.958 . S
C439 H454 0.961 . S
C439 H455 0.960 . S
H440 C424 0.931 . S
H441 C429 0.929 . S
H442 C430 0.960 . S
H443 C430 0.962 . S
H444 C430 0.960 . S
H445 C431 0.961 . S
H446 C431 0.961 . S
H447 C431 0.961 . S
H448 C432 0.931 . S
H449 C437 0.930 . S
H450 C438 0.956 . S
H451 C438 0.961 . S
H452 C438 0.961 . S
H453 C439 0.958 . S
H454 C439 0.961 . S
H455 C439 0.960 . S
C456 C457 1.391 . S
C456 C458 1.394 . S
C456 H472 0.931 . S
C457 C456 1.391 . S
C457 C461 1.376 . S
C458 C456 1.394 . S
C458 C459 1.369 . S
C458 C462 1.531 . S
C459 C458 1.369 . S
C459 C460 1.410 . S
C459 C467 1.503 1_554 S
C460 C459 1.410 . S
C460 C461 1.392 . S
C460 C463 1.511 1_554 S
C461 C457 1.376 . S
C461 C460 1.392 . S
C461 H473 0.929 . S
C462 C458 1.531 . S
C462 H474 0.960 . S
C462 H475 0.962 . S
C462 H476 0.960 . S
C463 C460 1.511 1_556 S
C463 H477 0.961 . S
C463 H478 0.961 . S
C463 H479 0.961 . S
C464 C465 1.370 . S
C464 C466 1.363 . S
C464 H480 0.931 . S
C465 C464 1.370 . S
C465 C469 1.408 . S
C466 C464 1.363 . S
C466 C467 1.370 . S
C466 C470 1.524 1_556 S
C467 C459 1.503 1_556 S
C467 C466 1.370 . S
C467 C468 1.403 . S
C468 C467 1.403 . S
C468 C469 1.404 . S
C468 C471 1.539 . S
C469 C465 1.408 . S
C469 C468 1.404 . S
C469 H481 0.930 . S
C470 C466 1.524 1_554 S
C470 H482 0.956 . S
C470 H483 0.961 . S
C470 H484 0.961 . S
C471 C468 1.539 . S
C471 H485 0.958 . S
C471 H486 0.961 . S
C471 H487 0.960 . S
H472 C456 0.931 . S
H473 C461 0.929 . S
H474 C462 0.960 . S
H475 C462 0.962 . S
H476 C462 0.960 . S
H477 C463 0.961 . S
H478 C463 0.961 . S
H479 C463 0.961 . S
H480 C464 0.931 . S
H481 C469 0.930 . S
H482 C470 0.956 . S
H483 C470 0.961 . S
H484 C470 0.961 . S
H485 C471 0.958 . S
H486 C471 0.961 . S
H487 C471 0.960 . S
C488 C489 1.391 . S
C488 C490 1.394 . S
C488 H504 0.931 . S
C489 C488 1.391 . S
C489 C493 1.376 . S
C490 C488 1.394 . S
C490 C491 1.369 . S
C490 C494 1.531 . S
C491 C490 1.369 . S
C491 C492 1.410 . S
C491 C499 1.503 . S
C492 C491 1.410 . S
C492 C493 1.392 . S
C492 C495 1.511 . S
C493 C489 1.376 . S
C493 C492 1.392 . S
C493 H505 0.929 . S
C494 C490 1.531 . S
C494 H506 0.960 . S
C494 H507 0.962 . S
C494 H508 0.960 . S
C495 C492 1.511 . S
C495 H509 0.961 . S
C495 H510 0.961 . S
C495 H511 0.961 . S
C496 C497 1.370 . S
C496 C498 1.363 . S
C496 H512 0.931 . S
C497 C496 1.370 . S
C497 C501 1.408 . S
C498 C496 1.363 . S
C498 C499 1.370 . S
C498 C502 1.524 . S
C499 C491 1.503 . S
C499 C498 1.370 . S
C499 C500 1.403 . S
C500 C499 1.403 . S
C500 C501 1.404 . S
C500 C503 1.539 . S
C501 C497 1.408 . S
C501 C500 1.404 . S
C501 H513 0.930 . S
C502 C498 1.524 . S
C502 H514 0.956 . S
C502 H515 0.961 . S
C502 H516 0.961 . S
C503 C500 1.539 . S
C503 H517 0.958 . S
C503 H518 0.961 . S
C503 H519 0.960 . S
H504 C488 0.931 . S
H505 C493 0.929 . S
H506 C494 0.960 . S
H507 C494 0.962 . S
H508 C494 0.960 . S
H509 C495 0.961 . S
H510 C495 0.961 . S
H511 C495 0.961 . S
H512 C496 0.931 . S
H513 C501 0.930 . S
H514 C502 0.956 . S
H515 C502 0.961 . S
H516 C502 0.961 . S
H517 C503 0.958 . S
H518 C503 0.961 . S
H519 C503 0.960 . S
C520 C521 1.391 . S
C520 C522 1.394 . S
C520 H536 0.931 . S
C521 C520 1.391 . S
C521 C525 1.376 . S
C522 C520 1.394 . S
C522 C523 1.369 . S
C522 C526 1.531 . S
C523 C522 1.369 . S
C523 C524 1.410 . S
C523 C531 1.503 . S
C524 C523 1.410 . S
C524 C525 1.392 . S
C524 C527 1.511 . S
C525 C521 1.376 . S
C525 C524 1.392 . S
C525 H537 0.929 . S
C526 C522 1.531 . S
C526 H538 0.960 . S
C526 H539 0.962 . S
C526 H540 0.960 . S
C527 C524 1.511 . S
C527 H541 0.961 . S
C527 H542 0.961 . S
C527 H543 0.961 . S
C528 C529 1.370 . S
C528 C530 1.363 . S
C528 H544 0.931 . S
C529 C528 1.370 . S
C529 C533 1.408 . S
C530 C528 1.363 . S
C530 C531 1.370 . S
C530 C534 1.524 . S
C531 C523 1.503 . S
C531 C530 1.370 . S
C531 C532 1.403 . S
C532 C531 1.403 . S
C532 C533 1.404 . S
C532 C535 1.539 . S
C533 C529 1.408 . S
C533 C532 1.404 . S
C533 H545 0.930 . S
C534 C530 1.524 . S
C534 H546 0.956 . S
C534 H547 0.961 . S
C534 H548 0.961 . S
C535 C532 1.539 . S
C535 H549 0.958 . S
C535 H550 0.961 . S
C535 H551 0.960 . S
H536 C520 0.931 . S
H537 C525 0.929 . S
H538 C526 0.960 . S
H539 C526 0.962 . S
H540 C526 0.960 . S
H541 C527 0.961 . S
H542 C527 0.961 . S
H543 C527 0.961 . S
H544 C528 0.931 . S
H545 C533 0.930 . S
H546 C534 0.956 . S
H547 C534 0.961 . S
H548 C534 0.961 . S
H549 C535 0.958 . S
H550 C535 0.961 . S
H551 C535 0.960 . S
C552 C553 1.391 . S
C552 C554 1.394 . S
C552 H568 0.931 . S
C553 C552 1.391 . S
C553 C557 1.376 . S
C554 C552 1.394 . S
C554 C555 1.369 . S
C554 C558 1.531 . S
C555 C554 1.369 . S
C555 C556 1.410 . S
C555 C563 1.503 . S
C556 C555 1.410 . S
C556 C557 1.392 . S
C556 C559 1.511 . S
C557 C553 1.376 . S
C557 C556 1.392 . S
C557 H569 0.929 . S
C558 C554 1.531 . S
C558 H570 0.960 . S
C558 H571 0.962 . S
C558 H572 0.960 . S
C559 C556 1.511 . S
C559 H573 0.961 . S
C559 H574 0.961 . S
C559 H575 0.961 . S
C560 C561 1.370 . S
C560 C562 1.363 . S
C560 H576 0.931 . S
C561 C560 1.370 . S
C561 C565 1.408 . S
C562 C560 1.363 . S
C562 C563 1.370 . S
C562 C566 1.524 . S
C563 C555 1.503 . S
C563 C562 1.370 . S
C563 C564 1.403 . S
C564 C563 1.403 . S
C564 C565 1.404 . S
C564 C567 1.539 . S
C565 C561 1.408 . S
C565 C564 1.404 . S
C565 H577 0.930 . S
C566 C562 1.524 . S
C566 H578 0.956 . S
C566 H579 0.961 . S
C566 H580 0.961 . S
C567 C564 1.539 . S
C567 H581 0.958 . S
C567 H582 0.961 . S
C567 H583 0.960 . S
H568 C552 0.931 . S
H569 C557 0.929 . S
H570 C558 0.960 . S
H571 C558 0.962 . S
H572 C558 0.960 . S
H573 C559 0.961 . S
H574 C559 0.961 . S
H575 C559 0.961 . S
H576 C560 0.931 . S
H577 C565 0.930 . S
H578 C566 0.956 . S
H579 C566 0.961 . S
H580 C566 0.961 . S
H581 C567 0.958 . S
H582 C567 0.961 . S
H583 C567 0.960 . S
C584 C585 1.391 . S
C584 C586 1.394 . S
C584 H600 0.931 . S
C585 C584 1.391 . S
C585 C589 1.376 . S
C586 C584 1.394 . S
C586 C587 1.369 . S
C586 C590 1.531 . S
C587 C586 1.369 . S
C587 C588 1.410 . S
C587 C595 1.503 . S
C588 C587 1.410 . S
C588 C589 1.392 . S
C588 C591 1.511 . S
C589 C585 1.376 . S
C589 C588 1.392 . S
C589 H601 0.929 . S
C590 C586 1.531 . S
C590 H602 0.960 . S
C590 H603 0.962 . S
C590 H604 0.960 . S
C591 C588 1.511 . S
C591 H605 0.961 . S
C591 H606 0.961 . S
C591 H607 0.961 . S
C592 C593 1.370 . S
C592 C594 1.363 . S
C592 H608 0.931 . S
C593 C592 1.370 . S
C593 C597 1.408 . S
C594 C592 1.363 . S
C594 C595 1.370 . S
C594 C598 1.524 . S
C595 C587 1.503 . S
C595 C594 1.370 . S
C595 C596 1.403 . S
C596 C595 1.403 . S
C596 C597 1.404 . S
C596 C599 1.539 . S
C597 C593 1.408 . S
C597 C596 1.404 . S
C597 H609 0.930 . S
C598 C594 1.524 . S
C598 H610 0.956 . S
C598 H611 0.961 . S
C598 H612 0.961 . S
C599 C596 1.539 . S
C599 H613 0.958 . S
C599 H614 0.961 . S
C599 H615 0.960 . S
H600 C584 0.931 . S
H601 C589 0.929 . S
H602 C590 0.960 . S
H603 C590 0.962 . S
H604 C590 0.960 . S
H605 C591 0.961 . S
H606 C591 0.961 . S
H607 C591 0.961 . S
H608 C592 0.931 . S
H609 C597 0.930 . S
H610 C598 0.956 . S
H611 C598 0.961 . S
H612 C598 0.961 . S
H613 C599 0.958 . S
H614 C599 0.961 . S
H615 C599 0.960 . S
C616 C617 1.391 . S
C616 C618 1.394 . S
C616 H632 0.931 . S
C617 C616 1.391 . S
C617 C621 1.376 . S
C618 C616 1.394 . S
C618 C619 1.369 . S
C618 C622 1.531 . S
C619 C618 1.369 . S
C619 C620 1.410 . S
C619 C627 1.503 . S
C620 C619 1.410 . S
C620 C621 1.392 . S
C620 C623 1.511 . S
C621 C617 1.376 . S
C621 C620 1.392 . S
C621 H633 0.929 . S
C622 C618 1.531 . S
C622 H634 0.960 . S
C622 H635 0.962 . S
C622 H636 0.960 . S
C623 C620 1.511 . S
C623 H637 0.961 . S
C623 H638 0.961 . S
C623 H639 0.961 . S
C624 C625 1.370 . S
C624 C626 1.363 . S
C624 H640 0.931 . S
C625 C624 1.370 . S
C625 C629 1.408 . S
C626 C624 1.363 . S
C626 C627 1.370 . S
C626 C630 1.524 . S
C627 C619 1.503 . S
C627 C626 1.370 . S
C627 C628 1.403 . S
C628 C627 1.403 . S
C628 C629 1.404 . S
C628 C631 1.539 . S
C629 C625 1.408 . S
C629 C628 1.404 . S
C629 H641 0.930 . S
C630 C626 1.524 . S
C630 H642 0.956 . S
C630 H643 0.961 . S
C630 H644 0.961 . S
C631 C628 1.539 . S
C631 H645 0.958 . S
C631 H646 0.961 . S
C631 H647 0.960 . S
H632 C616 0.931 . S
H633 C621 0.929 . S
H634 C622 0.960 . S
H635 C622 0.962 . S
H636 C622 0.960 . S
H637 C623 0.961 . S
H638 C623 0.961 . S
H639 C623 0.961 . S
H640 C624 0.931 . S
H641 C629 0.930 . S
H642 C630 0.956 . S
H643 C630 0.961 . S
H644 C630 0.961 . S
H645 C631 0.958 . S
H646 C631 0.961 . S
H647 C631 0.960 . S
C648 C649 1.391 . S
C648 C650 1.394 . S
C648 H664 0.931 . S
C649 C648 1.391 . S
C649 C653 1.376 . S
C650 C648 1.394 . S
C650 C651 1.369 . S
C650 C654 1.531 . S
C651 C650 1.369 . S
C651 C652 1.410 . S
C651 C659 1.503 . S
C652 C651 1.410 . S
C652 C653 1.392 . S
C652 C655 1.511 . S
C653 C649 1.376 . S
C653 C652 1.392 . S
C653 H665 0.929 . S
C654 C650 1.531 . S
C654 H666 0.960 . S
C654 H667 0.962 . S
C654 H668 0.960 . S
C655 C652 1.511 . S
C655 H669 0.961 . S
C655 H670 0.961 . S
C655 H671 0.961 . S
C656 C657 1.370 . S
C656 C658 1.363 . S
C656 H672 0.931 . S
C657 C656 1.370 . S
C657 C661 1.408 . S
C658 C656 1.363 . S
C658 C659 1.370 . S
C658 C662 1.524 . S
C659 C651 1.503 . S
C659 C658 1.370 . S
C659 C660 1.403 . S
C660 C659 1.403 . S
C660 C661 1.404 . S
C660 C663 1.539 . S
C661 C657 1.408 . S
C661 C660 1.404 . S
C661 H673 0.930 . S
C662 C658 1.524 . S
C662 H674 0.956 . S
C662 H675 0.961 . S
C662 H676 0.961 . S
C663 C660 1.539 . S
C663 H677 0.958 . S
C663 H678 0.961 . S
C663 H679 0.960 . S
H664 C648 0.931 . S
H665 C653 0.929 . S
H666 C654 0.960 . S
H667 C654 0.962 . S
H668 C654 0.960 . S
H669 C655 0.961 . S
H670 C655 0.961 . S
H671 C655 0.961 . S
H672 C656 0.931 . S
H673 C661 0.930 . S
H674 C662 0.956 . S
H675 C662 0.961 . S
H676 C662 0.961 . S
H677 C663 0.958 . S
H678 C663 0.961 . S
H679 C663 0.960 . S
C680 C681 1.391 . S
C680 C682 1.394 . S
C680 H696 0.931 . S
C681 C680 1.391 . S
C681 C685 1.376 . S
C682 C680 1.394 . S
C682 C683 1.369 . S
C682 C686 1.531 . S
C683 C682 1.369 . S
C683 C684 1.410 . S
C683 C691 1.503 . S
C684 C683 1.410 . S
C684 C685 1.392 . S
C684 C687 1.511 . S
C685 C681 1.376 . S
C685 C684 1.392 . S
C685 H697 0.929 . S
C686 C682 1.531 . S
C686 H698 0.960 . S
C686 H699 0.962 . S
C686 H700 0.960 . S
C687 C684 1.511 . S
C687 H701 0.961 . S
C687 H702 0.961 . S
C687 H703 0.961 . S
C688 C689 1.370 . S
C688 C690 1.363 . S
C688 H704 0.931 . S
C689 C688 1.370 . S
C689 C693 1.408 . S
C690 C688 1.363 . S
C690 C691 1.370 . S
C690 C694 1.524 . S
C691 C683 1.503 . S
C691 C690 1.370 . S
C691 C692 1.403 . S
C692 C691 1.403 . S
C692 C693 1.404 . S
C692 C695 1.539 . S
C693 C689 1.408 . S
C693 C692 1.404 . S
C693 H705 0.930 . S
C694 C690 1.524 . S
C694 H706 0.956 . S
C694 H707 0.961 . S
C694 H708 0.961 . S
C695 C692 1.539 . S
C695 H709 0.958 . S
C695 H710 0.961 . S
C695 H711 0.960 . S
H696 C680 0.931 . S
H697 C685 0.929 . S
H698 C686 0.960 . S
H699 C686 0.962 . S
H700 C686 0.960 . S
H701 C687 0.961 . S
H702 C687 0.961 . S
H703 C687 0.961 . S
H704 C688 0.931 . S
H705 C693 0.930 . S
H706 C694 0.956 . S
H707 C694 0.961 . S
H708 C694 0.961 . S
H709 C695 0.958 . S
H710 C695 0.961 . S
H711 C695 0.960 . S
C712 C713 1.391 . S
C712 C714 1.394 . S
C712 H728 0.931 . S
C713 C712 1.391 . S
C713 C717 1.376 . S
C714 C712 1.394 . S
C714 C715 1.369 . S
C714 C718 1.531 . S
C715 C714 1.369 . S
C715 C716 1.410 . S
C715 C723 1.503 . S
C716 C715 1.410 . S
C716 C717 1.392 . S
C716 C719 1.511 . S
C717 C713 1.376 . S
C717 C716 1.392 . S
C717 H729 0.929 . S
C718 C714 1.531 . S
C718 H730 0.960 . S
C718 H731 0.962 . S
C718 H732 0.960 . S
C719 C716 1.511 . S
C719 H733 0.961 . S
C719 H734 0.961 . S
C719 H735 0.961 . S
C720 C721 1.370 . S
C720 C722 1.363 . S
C720 H736 0.931 . S
C721 C720 1.370 . S
C721 C725 1.408 . S
C722 C720 1.363 . S
C722 C723 1.370 . S
C722 C726 1.524 . S
C723 C715 1.503 . S
C723 C722 1.370 . S
C723 C724 1.403 . S
C724 C723 1.403 . S
C724 C725 1.404 . S
C724 C727 1.539 . S
C725 C721 1.408 . S
C725 C724 1.404 . S
C725 H737 0.930 . S
C726 C722 1.524 . S
C726 H738 0.956 . S
C726 H739 0.961 . S
C726 H740 0.961 . S
C727 C724 1.539 . S
C727 H741 0.958 . S
C727 H742 0.961 . S
C727 H743 0.960 . S
H728 C712 0.931 . S
H729 C717 0.929 . S
H730 C718 0.960 . S
H731 C718 0.962 . S
H732 C718 0.960 . S
H733 C719 0.961 . S
H734 C719 0.961 . S
H735 C719 0.961 . S
H736 C720 0.931 . S
H737 C725 0.930 . S
H738 C726 0.956 . S
H739 C726 0.961 . S
H740 C726 0.961 . S
H741 C727 0.958 . S
H742 C727 0.961 . S
H743 C727 0.960 . S
C744 C745 1.391 . S
C744 C746 1.394 . S
C744 H760 0.931 . S
C745 C744 1.391 . S
C745 C749 1.376 . S
C746 C744 1.394 . S
C746 C747 1.369 . S
C746 C750 1.531 . S
C747 C746 1.369 . S
C747 C748 1.410 . S
C747 C755 1.503 . S
C748 C747 1.410 . S
C748 C749 1.392 . S
C748 C751 1.511 . S
C749 C745 1.376 . S
C749 C748 1.392 . S
C749 H761 0.929 . S
C750 C746 1.531 . S
C750 H762 0.960 . S
C750 H763 0.962 . S
C750 H764 0.960 . S
C751 C748 1.511 . S
C751 H765 0.961 . S
C751 H766 0.961 . S
C751 H767 0.961 . S
C752 C753 1.370 . S
C752 C754 1.363 . S
C752 H768 0.931 . S
C753 C752 1.370 . S
C753 C757 1.408 . S
C754 C752 1.363 . S
C754 C755 1.370 . S
C754 C758 1.524 . S
C755 C747 1.503 . S
C755 C754 1.370 . S
C755 C756 1.403 . S
C756 C755 1.403 . S
C756 C757 1.404 . S
C756 C759 1.539 . S
C757 C753 1.408 . S
C757 C756 1.404 . S
C757 H769 0.930 . S
C758 C754 1.524 . S
C758 H770 0.956 . S
C758 H771 0.961 . S
C758 H772 0.961 . S
C759 C756 1.539 . S
C759 H773 0.958 . S
C759 H774 0.961 . S
C759 H775 0.960 . S
H760 C744 0.931 . S
H761 C749 0.929 . S
H762 C750 0.960 . S
H763 C750 0.962 . S
H764 C750 0.960 . S
H765 C751 0.961 . S
H766 C751 0.961 . S
H767 C751 0.961 . S
H768 C752 0.931 . S
H769 C757 0.930 . S
H770 C758 0.956 . S
H771 C758 0.961 . S
H772 C758 0.961 . S
H773 C759 0.958 . S
H774 C759 0.961 . S
H775 C759 0.960 . S
C776 C777 1.391 . S
C776 C778 1.394 . S
C776 H792 0.931 . S
C777 C776 1.391 . S
C777 C781 1.376 . S
C778 C776 1.394 . S
C778 C779 1.369 . S
C778 C782 1.531 . S
C779 C778 1.369 . S
C779 C780 1.410 . S
C779 C787 1.503 . S
C780 C779 1.410 . S
C780 C781 1.392 . S
C780 C783 1.511 . S
C781 C777 1.376 . S
C781 C780 1.392 . S
C781 H793 0.929 . S
C782 C778 1.531 . S
C782 H794 0.960 . S
C782 H795 0.962 . S
C782 H796 0.960 . S
C783 C780 1.511 . S
C783 H797 0.961 . S
C783 H798 0.961 . S
C783 H799 0.961 . S
C784 C785 1.370 . S
C784 C786 1.363 . S
C784 H800 0.931 . S
C785 C784 1.370 . S
C785 C789 1.408 . S
C786 C784 1.363 . S
C786 C787 1.370 . S
C786 C790 1.524 . S
C787 C779 1.503 . S
C787 C786 1.370 . S
C787 C788 1.403 . S
C788 C787 1.403 . S
C788 C789 1.404 . S
C788 C791 1.539 . S
C789 C785 1.408 . S
C789 C788 1.404 . S
C789 H801 0.930 . S
C790 C786 1.524 . S
C790 H802 0.956 . S
C790 H803 0.961 . S
C790 H804 0.961 . S
C791 C788 1.539 . S
C791 H805 0.958 . S
C791 H806 0.961 . S
C791 H807 0.960 . S
H792 C776 0.931 . S
H793 C781 0.929 . S
H794 C782 0.960 . S
H795 C782 0.962 . S
H796 C782 0.960 . S
H797 C783 0.961 . S
H798 C783 0.961 . S
H799 C783 0.961 . S
H800 C784 0.931 . S
H801 C789 0.930 . S
H802 C790 0.956 . S
H803 C790 0.961 . S
H804 C790 0.961 . S
H805 C791 0.958 . S
H806 C791 0.961 . S
H807 C791 0.960 . S
C808 C809 1.391 . S
C808 C810 1.394 . S
C808 H824 0.931 . S
C809 C808 1.391 . S
C809 C813 1.376 1_556 S
C810 C808 1.394 . S
C810 C811 1.369 1_556 S
C810 C814 1.531 . S
C811 C810 1.369 1_554 S
C811 C812 1.410 . S
C811 C819 1.503 . S
C812 C811 1.410 . S
C812 C813 1.392 . S
C812 C815 1.511 . S
C813 C809 1.376 1_554 S
C813 C812 1.392 . S
C813 H825 0.929 . S
C814 C810 1.531 . S
C814 H826 0.960 . S
C814 H827 0.962 . S
C814 H828 0.960 . S
C815 C812 1.511 . S
C815 H829 0.961 . S
C815 H830 0.961 . S
C815 H831 0.961 . S
C816 C817 1.370 1_556 S
C816 C818 1.363 . S
C816 H832 0.931 . S
C817 C816 1.370 1_554 S
C817 C821 1.408 . S
C818 C816 1.363 . S
C818 C819 1.370 1_556 S
C818 C822 1.524 . S
C819 C811 1.503 . S
C819 C818 1.370 1_554 S
C819 C820 1.403 . S
C820 C819 1.403 . S
C820 C821 1.404 . S
C820 C823 1.539 . S
C821 C817 1.408 . S
C821 C820 1.404 . S
C821 H833 0.930 . S
C822 C818 1.524 . S
C822 H834 0.956 . S
C822 H835 0.961 . S
C822 H836 0.961 . S
C823 C820 1.539 . S
C823 H837 0.958 . S
C823 H838 0.961 . S
C823 H839 0.960 . S
H824 C808 0.931 . S
H825 C813 0.929 . S
H826 C814 0.960 . S
H827 C814 0.962 . S
H828 C814 0.960 . S
H829 C815 0.961 . S
H830 C815 0.961 . S
H831 C815 0.961 . S
H832 C816 0.931 . S
H833 C821 0.930 . S
H834 C822 0.956 . S
H835 C822 0.961 . S
H836 C822 0.961 . S
H837 C823 0.958 . S
H838 C823 0.961 . S
H839 C823 0.960 . S
C840 C841 1.391 . S
C840 C842 1.394 . S
C840 H856 0.931 . S
C841 C840 1.391 . S
C841 C845 1.376 . S
C842 C840 1.394 . S
C842 C843 1.369 . S
C842 C846 1.531 . S
C843 C842 1.369 . S
C843 C844 1.410 . S
C843 C851 1.503 . S
C844 C843 1.410 . S
C844 C845 1.392 . S
C844 C847 1.511 . S
C845 C841 1.376 . S
C845 C844 1.392 . S
C845 H857 0.929 . S
C846 C842 1.531 . S
C846 H858 0.960 . S
C846 H859 0.962 . S
C846 H860 0.960 . S
C847 C844 1.511 . S
C847 H861 0.961 . S
C847 H862 0.961 . S
C847 H863 0.961 . S
C848 C849 1.370 . S
C848 C850 1.363 . S
C848 H864 0.931 . S
C849 C848 1.370 . S
C849 C853 1.408 . S
C850 C848 1.363 . S
C850 C851 1.370 . S
C850 C854 1.524 . S
C851 C843 1.503 . S
C851 C850 1.370 . S
C851 C852 1.403 . S
C852 C851 1.403 . S
C852 C853 1.404 . S
C852 C855 1.539 . S
C853 C849 1.408 . S
C853 C852 1.404 . S
C853 H865 0.930 . S
C854 C850 1.524 . S
C854 H866 0.956 . S
C854 H867 0.961 . S
C854 H868 0.961 . S
C855 C852 1.539 . S
C855 H869 0.958 . S
C855 H870 0.961 . S
C855 H871 0.960 . S
H856 C840 0.931 . S
H857 C845 0.929 . S
H858 C846 0.960 . S
H859 C846 0.962 . S
H860 C846 0.960 . S
H861 C847 0.961 . S
H862 C847 0.961 . S
H863 C847 0.961 . S
H864 C848 0.931 . S
H865 C853 0.930 . S
H866 C854 0.956 . S
H867 C854 0.961 . S
H868 C854 0.961 . S
H869 C855 0.958 . S
H870 C855 0.961 . S
H871 C855 0.960 . S
C872 C873 1.391 . S
C872 C874 1.394 . S
C872 H888 0.931 . S
C873 C872 1.391 . S
C873 C877 1.376 . S
C874 C872 1.394 . S
C874 C875 1.369 . S
C874 C878 1.531 . S
C875 C874 1.369 . S
C875 C876 1.410 . S
C875 C883 1.503 . S
C876 C875 1.410 . S
C876 C877 1.392 . S
C876 C879 1.511 . S
C877 C873 1.376 . S
C877 C876 1.392 . S
C877 H889 0.929 . S
C878 C874 1.531 . S
C878 H890 0.960 . S
C878 H891 0.962 . S
C878 H892 0.960 . S
C879 C876 1.511 . S
C879 H893 0.961 . S
C879 H894 0.961 . S
C879 H895 0.961 . S
C880 C881 1.370 . S
C880 C882 1.363 . S
C880 H896 0.931 . S
C881 C880 1.370 . S
C881 C885 1.408 . S
C882 C880 1.363 . S
C882 C883 1.370 . S
C882 C886 1.524 . S
C883 C875 1.503 . S
C883 C882 1.370 . S
C883 C884 1.403 . S
C884 C883 1.403 . S
C884 C885 1.404 . S
C884 C887 1.539 . S
C885 C881 1.408 . S
C885 C884 1.404 . S
C885 H897 0.930 . S
C886 C882 1.524 . S
C886 H898 0.956 . S
C886 H899 0.961 . S
C886 H900 0.961 . S
C887 C884 1.539 . S
C887 H901 0.958 . S
C887 H902 0.961 . S
C887 H903 0.960 . S
H888 C872 0.931 . S
H889 C877 0.929 . S
H890 C878 0.960 . S
H891 C878 0.962 . S
H892 C878 0.960 . S
H893 C879 0.961 . S
H894 C879 0.961 . S
H895 C879 0.961 . S
H896 C880 0.931 . S
H897 C885 0.930 . S
H898 C886 0.956 . S
H899 C886 0.961 . S
H900 C886 0.961 . S
H901 C887 0.958 . S
H902 C887 0.961 . S
H903 C887 0.960 . S
C904 C905 1.391 . S
C904 C906 1.394 . S
C904 H920 0.931 . S
C905 C904 1.391 . S
C905 C909 1.376 1_554 S
C906 C904 1.394 . S
C906 C907 1.369 1_554 S
C906 C910 1.531 . S
C907 C906 1.369 1_556 S
C907 C908 1.410 . S
C907 C915 1.503 . S
C908 C907 1.410 . S
C908 C909 1.392 . S
C908 C911 1.511 . S
C909 C905 1.376 1_556 S
C909 C908 1.392 . S
C909 H921 0.929 . S
C910 C906 1.531 . S
C910 H922 0.960 . S
C910 H923 0.962 . S
C910 H924 0.960 . S
C911 C908 1.511 . S
C911 H925 0.961 . S
C911 H926 0.961 . S
C911 H927 0.961 . S
C912 C913 1.370 1_554 S
C912 C914 1.363 . S
C912 H928 0.931 . S
C913 C912 1.370 1_556 S
C913 C917 1.408 . S
C914 C912 1.363 . S
C914 C915 1.370 1_554 S
C914 C918 1.524 . S
C915 C907 1.503 . S
C915 C914 1.370 1_556 S
C915 C916 1.403 . S
C916 C915 1.403 . S
C916 C917 1.404 . S
C916 C919 1.539 . S
C917 C913 1.408 . S
C917 C916 1.404 . S
C917 H929 0.930 . S
C918 C914 1.524 . S
C918 H930 0.956 . S
C918 H931 0.961 . S
C918 H932 0.961 . S
C919 C916 1.539 . S
C919 H933 0.958 . S
C919 H934 0.961 . S
C919 H935 0.960 . S
H920 C904 0.931 . S
H921 C909 0.929 . S
H922 C910 0.960 . S
H923 C910 0.962 . S
H924 C910 0.960 . S
H925 C911 0.961 . S
H926 C911 0.961 . S
H927 C911 0.961 . S
H928 C912 0.931 . S
H929 C917 0.930 . S
H930 C918 0.956 . S
H931 C918 0.961 . S
H932 C918 0.961 . S
H933 C919 0.958 . S
H934 C919 0.961 . S
H935 C919 0.960 . S
C169 C3 1.370 . S
C177 C129 1.365 . S
C201 C17 1.348 . S
C209 C143 1.376 . S
C233 C31 1.357 . S
C241 C157 1.381 . S
C265 C45 1.373 . S
C273 C87 1.379 . S
C297 C101 1.387 . S
C305 C59 1.364 . S
C329 C115 1.376 . S
C337 C73 1.364 . S
C361 C148 1.775 . S
C369 C8 1.787 . S
C393 C22 1.801 . S
C401 C162 1.798 . S
C425 C36 1.801 . S
C433 C92 1.798 . S
C457 C50 1.777 . S
C465 C106 1.788 . S
C489 C64 1.802 . S
C497 C120 1.798 . S
C521 C78 1.778 . S
C529 C134 1.789 . S
C553 C147 0.883 . S
C561 C7 0.942 . S
C585 C21 0.889 . S
C593 C161 0.940 . S
C617 C35 0.883 . S
C625 C91 0.943 . S
C649 C49 0.913 . S
C657 C105 0.933 . S
C681 C63 0.964 . S
C689 C119 0.911 . S
C713 C77 0.964 . S
C721 C133 0.910 . S
C745 C9 1.660 . S
C753 C93 1.660 . S
C777 C107 1.662 . S
C785 C23 1.661 . S
C809 C37 1.658 . S
C817 C121 1.660 . S
C841 C51 1.648 . S
C849 C135 1.656 . S
C873 C65 1.651 . S
C881 C149 1.656 . S
C905 C163 1.658 . S
C913 C79 1.660 . S
