# Generated by pormake.
# Topology uks, (4)-cn, num edge types: 1
# Building blocks:
#     Node 0, Type 0, BuildingBlock: NAWXER_clean_sbu_0, # of connection points: 4
#     Node 1, Type 0, BuildingBlock: NAWXER_clean_sbu_0, # of connection points: 4
#     Node 2, Type 0, BuildingBlock: NAWXER_clean_sbu_0, # of connection points: 4
#     Node 3, Type 0, BuildingBlock: NAWXER_clean_sbu_0, # of connection points: 4
#     Node 4, Type 0, BuildingBlock: NAWXER_clean_sbu_0, # of connection points: 4
#     Node 5, Type 0, BuildingBlock: NAWXER_clean_sbu_0, # of connection points: 4
#     Node 6, Type 0, BuildingBlock: NAWXER_clean_sbu_0, # of connection points: 4
#     Node 7, Type 0, BuildingBlock: NAWXER_clean_sbu_0, # of connection points: 4
#     Node 8, Type 0, BuildingBlock: NAWXER_clean_sbu_0, # of connection points: 4
#     Node 9, Type 0, BuildingBlock: NAWXER_clean_sbu_0, # of connection points: 4
#     Node 10, Type 0, BuildingBlock: NAWXER_clean_sbu_0, # of connection points: 4
#     Node 11, Type 0, BuildingBlock: NAWXER_clean_sbu_0, # of connection points: 4
#     Node 12, Type 0, BuildingBlock: NAWXER_clean_sbu_0, # of connection points: 4
#     Node 13, Type 0, BuildingBlock: NAWXER_clean_sbu_0, # of connection points: 4
#     Node 14, Type 0, BuildingBlock: NAWXER_clean_sbu_0, # of connection points: 4
#     Node 15, Type 0, BuildingBlock: NAWXER_clean_sbu_0, # of connection points: 4
#     Node 16, Type 0, BuildingBlock: NAWXER_clean_sbu_0, # of connection points: 4
#     Node 17, Type 0, BuildingBlock: NAWXER_clean_sbu_0, # of connection points: 4
#     Node 18, Type 0, BuildingBlock: NAWXER_clean_sbu_0, # of connection points: 4
#     Node 19, Type 0, BuildingBlock: NAWXER_clean_sbu_0, # of connection points: 4
#     Node 20, Type 0, BuildingBlock: NAWXER_clean_sbu_0, # of connection points: 4
#     Node 21, Type 0, BuildingBlock: NAWXER_clean_sbu_0, # of connection points: 4
#     Node 22, Type 0, BuildingBlock: NAWXER_clean_sbu_0, # of connection points: 4
#     Node 23, Type 0, BuildingBlock: NAWXER_clean_sbu_0, # of connection points: 4
#     Edge 24, Type (0, 0), BuildingBlock: ZUJKAS_clean_linker_0, # of connection points: 2
#     Edge 25, Type (0, 0), BuildingBlock: ZUJKAS_clean_linker_0, # of connection points: 2
#     Edge 26, Type (0, 0), BuildingBlock: ZUJKAS_clean_linker_0, # of connection points: 2
#     Edge 27, Type (0, 0), BuildingBlock: ZUJKAS_clean_linker_0, # of connection points: 2
#     Edge 28, Type (0, 0), BuildingBlock: ZUJKAS_clean_linker_0, # of connection points: 2
#     Edge 29, Type (0, 0), BuildingBlock: ZUJKAS_clean_linker_0, # of connection points: 2
#     Edge 30, Type (0, 0), BuildingBlock: ZUJKAS_clean_linker_0, # of connection points: 2
#     Edge 31, Type (0, 0), BuildingBlock: ZUJKAS_clean_linker_0, # of connection points: 2
#     Edge 32, Type (0, 0), BuildingBlock: ZUJKAS_clean_linker_0, # of connection points: 2
#     Edge 33, Type (0, 0), BuildingBlock: ZUJKAS_clean_linker_0, # of connection points: 2
#     Edge 34, Type (0, 0), BuildingBlock: ZUJKAS_clean_linker_0, # of connection points: 2
#     Edge 35, Type (0, 0), BuildingBlock: ZUJKAS_clean_linker_0, # of connection points: 2
#     Edge 36, Type (0, 0), BuildingBlock: ZUJKAS_clean_linker_0, # of connection points: 2
#     Edge 37, Type (0, 0), BuildingBlock: ZUJKAS_clean_linker_0, # of connection points: 2
#     Edge 38, Type (0, 0), BuildingBlock: ZUJKAS_clean_linker_0, # of connection points: 2
#     Edge 39, Type (0, 0), BuildingBlock: ZUJKAS_clean_linker_0, # of connection points: 2
#     Edge 40, Type (0, 0), BuildingBlock: ZUJKAS_clean_linker_0, # of connection points: 2
#     Edge 41, Type (0, 0), BuildingBlock: ZUJKAS_clean_linker_0, # of connection points: 2
#     Edge 42, Type (0, 0), BuildingBlock: ZUJKAS_clean_linker_0, # of connection points: 2
#     Edge 43, Type (0, 0), BuildingBlock: ZUJKAS_clean_linker_0, # of connection points: 2
#     Edge 44, Type (0, 0), BuildingBlock: ZUJKAS_clean_linker_0, # of connection points: 2
#     Edge 45, Type (0, 0), BuildingBlock: ZUJKAS_clean_linker_0, # of connection points: 2
#     Edge 46, Type (0, 0), BuildingBlock: ZUJKAS_clean_linker_0, # of connection points: 2
#     Edge 47, Type (0, 0), BuildingBlock: ZUJKAS_clean_linker_0, # of connection points: 2
#     Edge 48, Type (0, 0), BuildingBlock: ZUJKAS_clean_linker_0, # of connection points: 2
#     Edge 49, Type (0, 0), BuildingBlock: ZUJKAS_clean_linker_0, # of connection points: 2
#     Edge 50, Type (0, 0), BuildingBlock: ZUJKAS_clean_linker_0, # of connection points: 2
#     Edge 51, Type (0, 0), BuildingBlock: ZUJKAS_clean_linker_0, # of connection points: 2
#     Edge 52, Type (0, 0), BuildingBlock: ZUJKAS_clean_linker_0, # of connection points: 2
#     Edge 53, Type (0, 0), BuildingBlock: ZUJKAS_clean_linker_0, # of connection points: 2
#     Edge 54, Type (0, 0), BuildingBlock: ZUJKAS_clean_linker_0, # of connection points: 2
#     Edge 55, Type (0, 0), BuildingBlock: ZUJKAS_clean_linker_0, # of connection points: 2
#     Edge 56, Type (0, 0), BuildingBlock: ZUJKAS_clean_linker_0, # of connection points: 2
#     Edge 57, Type (0, 0), BuildingBlock: ZUJKAS_clean_linker_0, # of connection points: 2
#     Edge 58, Type (0, 0), BuildingBlock: ZUJKAS_clean_linker_0, # of connection points: 2
#     Edge 59, Type (0, 0), BuildingBlock: ZUJKAS_clean_linker_0, # of connection points: 2
#     Edge 60, Type (0, 0), BuildingBlock: ZUJKAS_clean_linker_0, # of connection points: 2
#     Edge 61, Type (0, 0), BuildingBlock: ZUJKAS_clean_linker_0, # of connection points: 2
#     Edge 62, Type (0, 0), BuildingBlock: ZUJKAS_clean_linker_0, # of connection points: 2
#     Edge 63, Type (0, 0), BuildingBlock: ZUJKAS_clean_linker_0, # of connection points: 2
#     Edge 64, Type (0, 0), BuildingBlock: ZUJKAS_clean_linker_0, # of connection points: 2
#     Edge 65, Type (0, 0), BuildingBlock: ZUJKAS_clean_linker_0, # of connection points: 2
#     Edge 66, Type (0, 0), BuildingBlock: ZUJKAS_clean_linker_0, # of connection points: 2
#     Edge 67, Type (0, 0), BuildingBlock: ZUJKAS_clean_linker_0, # of connection points: 2
#     Edge 68, Type (0, 0), BuildingBlock: ZUJKAS_clean_linker_0, # of connection points: 2
#     Edge 69, Type (0, 0), BuildingBlock: ZUJKAS_clean_linker_0, # of connection points: 2
#     Edge 70, Type (0, 0), BuildingBlock: ZUJKAS_clean_linker_0, # of connection points: 2
#     Edge 71, Type (0, 0), BuildingBlock: ZUJKAS_clean_linker_0, # of connection points: 2
# Relax obj value: 0.065
# Max RMSD: 0.064
# Mean RMSD: 0.064
data_MOF--net-uks--node1-NAWXER_clean_sbu_0--edge1-ZUJKAS_clean_linker_0
_symmetry_space_group_name_H-M    P1
_symmetry_Int_Tables_number       1
_symmetry_cell_setting            triclinic
loop_
_symmetry_equiv_pos_as_xyz
'x, y, z'
_cell_length_a     70.660322
_cell_length_b     70.434854
_cell_length_c     70.287384
_cell_angle_alpha  90.045334
_cell_angle_beta   90.149628
_cell_angle_gamma 89.728001
loop_
_atom_site_label
_atom_site_type_symbol
_atom_site_fract_x
_atom_site_fract_y
_atom_site_fract_z
_atom_type_partial_charge
C0 C 0.09641 0.38062 0.70023 0.0
C1 C 0.16206 0.38717 0.7217 0.0
O2 O 0.10855 0.37562 0.68761 0.0
Zn3 Zn 0.13879 0.37374 0.68467 0.0
O4 O 0.10216 0.38665 0.71629 0.0
Zn5 Zn 0.12901 0.38411 0.71141 0.0
O6 O 0.13401 0.40538 0.69023 0.0
O7 O 0.14394 0.39109 0.6641 0.0
O8 O 0.14712 0.39078 0.7311 0.0
O9 O 0.16065 0.38086 0.70464 0.0
O10 O 0.14287 0.34678 0.68085 0.0
O11 O 0.1323 0.35395 0.70949 0.0
C12 C 0.1397 0.40627 0.67294 0.0
C13 C 0.13759 0.34149 0.69729 0.0
C14 C 0.59954 0.64272 0.19121 0.0
C15 C 0.66374 0.63798 0.21743 0.0
O16 O 0.60415 0.6376 0.20797 0.0
Zn17 Zn 0.63138 0.63953 0.2049 0.0
O18 O 0.61255 0.64651 0.17912 0.0
Zn19 Zn 0.6428 0.64793 0.17791 0.0
O20 O 0.64966 0.62812 0.15956 0.0
O21 O 0.63805 0.6165 0.18618 0.0
O22 O 0.66319 0.64289 0.19988 0.0
O23 O 0.64836 0.63481 0.22623 0.0
O24 O 0.63448 0.66941 0.20097 0.0
O25 O 0.64634 0.67511 0.17258 0.0
C26 C 0.64502 0.61383 0.16957 0.0
C27 C 0.64008 0.68129 0.18841 0.0
C28 C 0.36587 0.11704 0.7572 0.0
C29 C 0.42584 0.12507 0.72351 0.0
O30 O 0.36388 0.12262 0.73996 0.0
Zn31 Zn 0.38113 0.12992 0.71611 0.0
O32 O 0.38238 0.11403 0.76383 0.0
Zn33 Zn 0.39611 0.12044 0.74072 0.0
O34 O 0.39089 0.15029 0.73932 0.0
O35 O 0.37479 0.1566 0.7131 0.0
O36 O 0.42351 0.11952 0.74055 0.0
O37 O 0.41138 0.12914 0.71319 0.0
O38 O 0.37274 0.11214 0.69718 0.0
O39 O 0.38778 0.09839 0.7211 0.0
C40 C 0.38258 0.16226 0.72839 0.0
C41 C 0.37892 0.09715 0.70517 0.0
C42 C 0.90045 0.86243 0.18267 0.0
C43 C 0.83716 0.86913 0.20939 0.0
O44 O 0.90044 0.87234 0.19802 0.0
Zn45 Zn 0.87975 0.88317 0.21776 0.0
O46 O 0.8848 0.85697 0.17569 0.0
Zn47 Zn 0.86823 0.86701 0.19505 0.0
O48 O 0.86737 0.89723 0.19036 0.0
O49 O 0.88022 0.9107 0.21553 0.0
O50 O 0.84163 0.86054 0.1941 0.0
O51 O 0.84987 0.87797 0.21892 0.0
O52 O 0.88741 0.87107 0.24155 0.0
O53 O 0.87625 0.85114 0.2201 0.0
C54 C 0.87212 0.91229 0.19943 0.0
C55 C 0.883 0.85421 0.23678 0.0
C56 C 0.13947 0.10405 0.82601 0.0
C57 C 0.13957 0.16381 0.7916 0.0
O58 O 0.13445 0.10734 0.80897 0.0
Zn59 Zn 0.13823 0.13427 0.80928 0.0
O60 O 0.14418 0.11792 0.83686 0.0
Zn61 Zn 0.14724 0.14831 0.83418 0.0
O62 O 0.12867 0.15878 0.85155 0.0
O63 O 0.1156 0.14518 0.82658 0.0
O64 O 0.14441 0.16599 0.8091 0.0
O65 O 0.13471 0.1475 0.78569 0.0
O66 O 0.16847 0.13598 0.81331 0.0
O67 O 0.17388 0.15116 0.84024 0.0
C68 C 0.11389 0.15432 0.84229 0.0
C69 C 0.18017 0.14261 0.8256 0.0
C70 C 0.91208 0.63683 0.3317 0.0
C71 C 0.84778 0.63624 0.30539 0.0
O72 O 0.90709 0.63176 0.31507 0.0
Zn73 Zn 0.88004 0.63586 0.31798 0.0
O74 O 0.8994 0.64185 0.34374 0.0
Zn75 Zn 0.8693 0.64527 0.34494 0.0
O76 O 0.86172 0.62622 0.36375 0.0
O77 O 0.87114 0.61367 0.33659 0.0
O78 O 0.84852 0.64118 0.32295 0.0
O79 O 0.86301 0.63219 0.29662 0.0
O80 O 0.87862 0.6659 0.32158 0.0
O81 O 0.86682 0.67266 0.3498 0.0
C82 C 0.8644 0.61164 0.35337 0.0
C83 C 0.8735 0.67824 0.33395 0.0
C84 C 0.41049 0.37987 0.8328 0.0
C85 C 0.34737 0.39041 0.80519 0.0
O86 O 0.3971 0.37275 0.84279 0.0
Zn87 Zn 0.36674 0.37105 0.84193 0.0
O88 O 0.40641 0.38905 0.81775 0.0
Zn89 Zn 0.37914 0.38585 0.81852 0.0
O90 O 0.37056 0.40333 0.84194 0.0
O91 O 0.35838 0.38498 0.86418 0.0
O92 O 0.36305 0.39549 0.79795 0.0
O93 O 0.34728 0.3815 0.82106 0.0
O94 O 0.3623 0.34395 0.8402 0.0
O95 O 0.37611 0.3559 0.81476 0.0
C96 C 0.36269 0.40144 0.85825 0.0
C97 C 0.36944 0.34161 0.82376 0.0
C98 C 0.59245 0.87515 0.32225 0.0
C99 C 0.65837 0.87642 0.30183 0.0
O100 O 0.59472 0.8845 0.30677 0.0
Zn101 Zn 0.61771 0.89278 0.28875 0.0
O102 O 0.60682 0.86822 0.3307 0.0
Zn103 Zn 0.62592 0.87631 0.31289 0.0
O104 O 0.62801 0.90655 0.3169 0.0
O105 O 0.61809 0.92037 0.29056 0.0
O106 O 0.65193 0.86815 0.31654 0.0
O107 O 0.64718 0.88589 0.291 0.0
O108 O 0.61192 0.88016 0.26459 0.0
O109 O 0.61924 0.86032 0.28776 0.0
C110 C 0.62474 0.92173 0.30734 0.0
C111 C 0.61449 0.86321 0.27039 0.0
C112 C 0.69643 0.14835 0.34595 0.0
C113 C 0.65944 0.15177 0.4048 0.0
O114 O 0.70438 0.14039 0.36029 0.0
Zn115 Zn 0.69884 0.13449 0.38952 0.0
O116 O 0.67979 0.15517 0.34762 0.0
Zn117 Zn 0.67657 0.14901 0.37447 0.0
O118 O 0.69772 0.16672 0.38698 0.0
O119 O 0.71956 0.14903 0.40101 0.0
O120 O 0.65427 0.15735 0.38837 0.0
O121 O 0.6753 0.14304 0.40674 0.0
O122 O 0.69834 0.1067 0.39005 0.0
O123 O 0.6746 0.11877 0.37361 0.0
C124 C 0.71318 0.16536 0.39644 0.0
C125 C 0.68366 0.10423 0.37984 0.0
C126 C 0.8772 0.17811 0.9122 0.0
C127 C 0.88316 0.19348 0.84443 0.0
O128 O 0.88188 0.19541 0.90917 0.0
Zn129 Zn 0.88813 0.21342 0.88539 0.0
O130 O 0.87516 0.16685 0.8982 0.0
Zn131 Zn 0.8802 0.18514 0.87818 0.0
O132 O 0.91008 0.18964 0.88119 0.0
O133 O 0.91471 0.21959 0.88894 0.0
O134 O 0.87817 0.17767 0.85153 0.0
O135 O 0.88705 0.20738 0.85554 0.0
O136 O 0.86902 0.23309 0.88789 0.0
O137 O 0.85705 0.205 0.88111 0.0
C138 C 0.92143 0.20322 0.88521 0.0
C139 C 0.85465 0.22271 0.88476 0.0
C140 C 0.84517 0.368 0.40903 0.0
C141 C 0.82272 0.37809 0.34363 0.0
O142 O 0.82799 0.37391 0.40807 0.0
Zn143 Zn 0.80792 0.38266 0.38663 0.0
O144 O 0.85492 0.36661 0.39389 0.0
Zn145 Zn 0.83489 0.37407 0.37633 0.0
O146 O 0.83224 0.404 0.38181 0.0
O147 O 0.80317 0.40938 0.39181 0.0
O148 O 0.83921 0.37303 0.34891 0.0
O149 O 0.81022 0.38191 0.35628 0.0
O150 O 0.78804 0.3644 0.391 0.0
O151 O 0.81467 0.35145 0.38082 0.0
C152 C 0.81944 0.41564 0.38752 0.0
C153 C 0.79752 0.34966 0.38653 0.0
C154 C 0.64233 0.33412 0.83575 0.0
C155 C 0.65386 0.35633 0.90091 0.0
O156 O 0.63678 0.32253 0.84861 0.0
Zn157 Zn 0.63643 0.32028 0.87901 0.0
O158 O 0.65036 0.34954 0.84056 0.0
Zn159 Zn 0.64799 0.34597 0.86796 0.0
O160 O 0.66808 0.32357 0.87287 0.0
O161 O 0.65292 0.29844 0.88348 0.0
O162 O 0.65691 0.36536 0.88556 0.0
O163 O 0.64625 0.33986 0.9001 0.0
O164 O 0.60946 0.31857 0.88388 0.0
O165 O 0.6177 0.34607 0.87148 0.0
C166 C 0.66836 0.30634 0.87873 0.0
C167 C 0.60478 0.33482 0.87748 0.0
C168 C 0.7467 0.39111 0.15443 0.0
C169 C 0.72046 0.39162 0.08975 0.0
O170 O 0.75533 0.39443 0.13895 0.0
Zn171 Zn 0.73381 0.39171 0.12195 0.0
O172 O 0.7289 0.38758 0.15398 0.0
Zn173 Zn 0.70673 0.38502 0.13299 0.0
O174 O 0.6991 0.35856 0.13574 0.0
O175 O 0.72787 0.36183 0.12422 0.0
O176 O 0.70802 0.38802 0.1025 0.0
O177 O 0.73748 0.39465 0.09478 0.0
O178 O 0.71633 0.41599 0.12882 0.0
O179 O 0.68938 0.40529 0.14019 0.0
C180 C 0.7143 0.35105 0.12958 0.0
C181 C 0.69979 0.41924 0.13563 0.0
C182 C 0.61943 0.24641 0.65315 0.0
C183 C 0.61506 0.2156 0.59078 0.0
O184 O 0.61125 0.25296 0.63837 0.0
Zn185 Zn 0.61576 0.2309 0.62239 0.0
O186 O 0.62639 0.22955 0.65289 0.0
Zn187 Zn 0.62951 0.20629 0.63309 0.0
O188 O 0.65668 0.20378 0.63306 0.0
O189 O 0.64637 0.23099 0.62124 0.0
O190 O 0.62304 0.20508 0.60335 0.0
O191 O 0.6084 0.23166 0.5957 0.0
O192 O 0.59719 0.21051 0.63514 0.0
O193 O 0.61466 0.18611 0.64416 0.0
C194 C 0.66015 0.21997 0.6259 0.0
C195 C 0.59856 0.19408 0.64288 0.0
C196 C 0.77159 0.15643 0.12184 0.0
C197 C 0.79884 0.0927 0.13384 0.0
O198 O 0.78864 0.1563 0.12816 0.0
Zn199 Zn 0.81024 0.13658 0.13708 0.0
O200 O 0.76315 0.14073 0.11886 0.0
Zn201 Zn 0.78417 0.12421 0.12684 0.0
O202 O 0.78455 0.13148 0.15602 0.0
O203 O 0.81235 0.14308 0.16424 0.0
O204 O 0.78229 0.09634 0.12763 0.0
O205 O 0.81011 0.10641 0.13751 0.0
O206 O 0.83037 0.14194 0.11902 0.0
O207 O 0.80476 0.13016 0.10538 0.0
C208 C 0.79548 0.1386 0.16864 0.0
C209 C 0.82155 0.13686 0.10405 0.0
C210 C 0.89147 0.2664 0.65694 0.0
C211 C 0.89285 0.29849 0.59511 0.0
O212 O 0.89807 0.25991 0.64141 0.0
Zn213 Zn 0.89293 0.28229 0.62603 0.0
O214 O 0.88478 0.28336 0.65742 0.0
Zn215 Zn 0.88039 0.30685 0.6383 0.0
O216 O 0.85315 0.30968 0.63927 0.0
O217 O 0.86253 0.28283 0.62607 0.0
O218 O 0.88616 0.30905 0.60838 0.0
O219 O 0.89843 0.28176 0.59899 0.0
O220 O 0.91258 0.30262 0.63758 0.0
O221 O 0.89593 0.32645 0.64933 0.0
C222 C 0.84913 0.29389 0.6315 0.0
C223 C 0.9119 0.31873 0.64613 0.0
C224 C 0.34227 0.71299 0.1298 0.0
C225 C 0.40766 0.69162 0.14118 0.0
O226 O 0.35715 0.72283 0.12746 0.0
Zn227 Zn 0.37539 0.70329 0.13501 0.0
O228 O 0.34376 0.69586 0.13574 0.0
Zn229 Zn 0.36502 0.67582 0.1437 0.0
O230 O 0.35951 0.67154 0.17076 0.0
O231 O 0.36975 0.70041 0.16459 0.0
O232 O 0.39505 0.67902 0.14445 0.0
O233 O 0.40258 0.70796 0.13527 0.0
O234 O 0.37257 0.68306 0.11265 0.0
O235 O 0.36136 0.65625 0.12423 0.0
C236 C 0.36397 0.68806 0.17659 0.0
C237 C 0.36708 0.66594 0.11008 0.0
C238 C 0.37076 0.81357 0.41743 0.0
C239 C 0.3729 0.77803 0.35749 0.0
O240 O 0.36779 0.82405 0.40279 0.0
Zn241 Zn 0.36677 0.82095 0.37228 0.0
O242 O 0.37493 0.79613 0.41513 0.0
Zn243 Zn 0.37323 0.79578 0.38762 0.0
O244 O 0.39752 0.81183 0.37893 0.0
O245 O 0.38701 0.83695 0.36341 0.0
O246 O 0.37596 0.77179 0.37419 0.0
O247 O 0.36952 0.79579 0.3551 0.0
O248 O 0.3408 0.82852 0.36725 0.0
O249 O 0.34365 0.80203 0.38381 0.0
C250 C 0.40081 0.82723 0.36979 0.0
C251 C 0.33316 0.81479 0.37607 0.0
C252 C 0.21105 0.84682 0.87526 0.0
C253 C 0.18986 0.91303 0.87526 0.0
O254 O 0.22102 0.86153 0.87811 0.0
Zn255 Zn 0.20096 0.88034 0.87545 0.0
O256 O 0.19331 0.84869 0.87192 0.0
Zn257 Zn 0.17284 0.87093 0.86947 0.0
O258 O 0.16439 0.86849 0.84313 0.0
O259 O 0.19358 0.87932 0.84594 0.0
O260 O 0.17646 0.90117 0.87223 0.0
O261 O 0.2067 0.90705 0.87786 0.0
O262 O 0.18363 0.87556 0.89996 0.0
O263 O 0.1557 0.86543 0.89028 0.0
C264 C 0.17945 0.87468 0.83552 0.0
C265 C 0.16683 0.86995 0.9038 0.0
C266 C 0.15564 0.73518 0.38989 0.0
C267 C 0.09908 0.69601 0.38329 0.0
O268 O 0.13909 0.73925 0.39578 0.0
Zn269 Zn 0.12761 0.71534 0.38832 0.0
O270 O 0.15881 0.71888 0.38235 0.0
Zn271 Zn 0.14366 0.69359 0.37484 0.0
O272 O 0.14787 0.69382 0.34756 0.0
O273 O 0.13013 0.71759 0.35784 0.0
O274 O 0.11392 0.68783 0.37664 0.0
O275 O 0.10069 0.71189 0.3917 0.0
O276 O 0.14092 0.69567 0.40762 0.0
O277 O 0.15587 0.67429 0.39032 0.0
C278 C 0.13834 0.70881 0.34413 0.0
C279 C 0.15138 0.68077 0.40658 0.0
C280 C 0.32904 0.63312 0.91258 0.0
C281 C 0.3147 0.62594 0.8444 0.0
O282 O 0.34016 0.63628 0.89874 0.0
Zn283 Zn 0.32239 0.63038 0.8783 0.0
O284 O 0.31194 0.62812 0.90914 0.0
Zn285 Zn 0.29405 0.62255 0.88515 0.0
O286 O 0.28753 0.5962 0.88952 0.0
O287 O 0.31768 0.60058 0.88269 0.0
O288 O 0.30059 0.62249 0.8553 0.0
O289 O 0.33032 0.63115 0.85174 0.0
O290 O 0.30276 0.65356 0.87982 0.0
O291 O 0.27476 0.64214 0.8873 0.0
C292 C 0.30404 0.58939 0.88691 0.0
C293 C 0.28517 0.65628 0.88337 0.0
C294 C 0.08528 0.80173 0.12537 0.0
C295 C 0.15109 0.78062 0.11632 0.0
O296 O 0.09064 0.78561 0.11909 0.0
Zn297 Zn 0.11777 0.79012 0.12058 0.0
O298 O 0.09771 0.81409 0.13011 0.0
Zn299 Zn 0.12787 0.81699 0.13119 0.0
O300 O 0.1324 0.83767 0.11345 0.0
O301 O 0.12178 0.81165 0.09956 0.0
O302 O 0.14931 0.7975 0.12283 0.0
O303 O 0.13636 0.77075 0.11311 0.0
O304 O 0.12199 0.79141 0.15049 0.0
O305 O 0.13315 0.81956 0.15841 0.0
C306 C 0.12738 0.8289 0.09842 0.0
C307 C 0.12789 0.80299 0.16321 0.0
C308 C 0.25131 0.61478 0.65217 0.0
C309 C 0.22426 0.6224 0.58793 0.0
O310 O 0.23399 0.62024 0.65196 0.0
Zn311 Zn 0.21202 0.62646 0.63196 0.0
O312 O 0.25951 0.6111 0.63648 0.0
Zn313 Zn 0.23822 0.61746 0.61965 0.0
O314 O 0.23529 0.64729 0.62462 0.0
O315 O 0.20741 0.65293 0.63773 0.0
O316 O 0.24092 0.61679 0.59208 0.0
O317 O 0.21259 0.62624 0.60137 0.0
O318 O 0.19288 0.608 0.63793 0.0
O319 O 0.21829 0.59524 0.62482 0.0
C320 C 0.22319 0.65897 0.63159 0.0
C321 C 0.20163 0.59344 0.63178 0.0
C322 C 0.29909 0.8463 0.64105 0.0
C323 C 0.32181 0.91136 0.64586 0.0
O324 O 0.28846 0.85839 0.63248 0.0
Zn325 Zn 0.28713 0.88842 0.6275 0.0
O326 O 0.31397 0.85181 0.64962 0.0
Zn327 Zn 0.31099 0.87841 0.64339 0.0
O328 O 0.28639 0.88488 0.65982 0.0
O329 O 0.26371 0.89507 0.64074 0.0
O330 O 0.32946 0.89639 0.65248 0.0
O331 O 0.30632 0.91012 0.63641 0.0
O332 O 0.28841 0.88925 0.59991 0.0
O333 O 0.31458 0.87814 0.61308 0.0
C334 C 0.26937 0.89079 0.65741 0.0
C335 C 0.30501 0.8824 0.59814 0.0
H336 H 0.12814 0.16497 0.7543 0.0
H337 H 0.12878 0.19228 0.73272 0.0
H338 H 0.15221 0.22689 0.7775 0.0
H339 H 0.15173 0.19979 0.7991 0.0
H340 H 0.11029 0.22741 0.73765 0.0
H341 H 0.18788 0.23663 0.73238 0.0
H342 H 0.17721 0.215 0.74092 0.0
H343 H 0.17978 0.23509 0.75651 0.0
C344 C 0.13353 0.17837 0.75953 0.0
C345 C 0.13992 0.18019 0.77842 0.0
C346 C 0.1339 0.19393 0.74717 0.0
C347 C 0.14086 0.21148 0.75343 0.0
C348 C 0.14718 0.21335 0.77227 0.0
H349 H 0.12159 0.32599 0.72873 0.0
H350 H 0.12196 0.29291 0.73867 0.0
C351 C 0.14675 0.19786 0.78464 0.0
C352 C 0.14061 0.22823 0.74072 0.0
H353 H 0.1687 0.26362 0.72368 0.0
C354 C 0.12308 0.23515 0.73429 0.0
C355 C 0.15735 0.23813 0.73608 0.0
C356 C 0.17664 0.23074 0.74166 0.0
C357 C 0.12174 0.25241 0.72441 0.0
C358 C 0.13833 0.26304 0.72109 0.0
C359 C 0.15598 0.2555 0.7264 0.0
C360 C 0.13745 0.28284 0.71413 0.0
C361 C 0.10252 0.2594 0.71809 0.0
C362 C 0.14633 0.2882 0.69712 0.0
C363 C 0.14616 0.30724 0.69133 0.0
C364 C 0.13737 0.32118 0.70266 0.0
C365 C 0.12851 0.31565 0.71965 0.0
C366 C 0.12856 0.29671 0.72531 0.0
H367 H 0.09241 0.24748 0.7164 0.0
H368 H 0.09675 0.26921 0.72902 0.0
H369 H 0.10344 0.26723 0.70442 0.0
H370 H 0.15342 0.27767 0.6884 0.0
H371 H 0.15316 0.31107 0.6782 0.0
H372 H 0.69833 0.63729 0.2006 0.0
H373 H 0.72929 0.6351 0.21573 0.0
H374 H 0.70274 0.63274 0.27087 0.0
H375 H 0.67145 0.63446 0.2557 0.0
H376 H 0.74522 0.65961 0.2401 0.0
H377 H 0.73974 0.58886 0.27426 0.0
H378 H 0.72302 0.59706 0.2566 0.0
H379 H 0.72115 0.60502 0.28085 0.0
C380 C 0.699 0.63618 0.21595 0.0
C381 C 0.68239 0.63606 0.22695 0.0
C382 C 0.71675 0.63492 0.22458 0.0
C383 C 0.71837 0.63354 0.24441 0.0
C384 C 0.70184 0.63337 0.2555 0.0
H385 H 0.81303 0.63912 0.32186 0.0
H386 H 0.78209 0.63793 0.30647 0.0
C387 C 0.68397 0.63447 0.24683 0.0
C388 C 0.73746 0.63319 0.25332 0.0
H389 H 0.76661 0.60742 0.28245 0.0
C390 C 0.74993 0.64813 0.24926 0.0
C391 C 0.74361 0.61818 0.26524 0.0
C392 C 0.73126 0.60127 0.26938 0.0
C393 C 0.76824 0.64863 0.25702 0.0
C394 C 0.7743 0.63373 0.26905 0.0
C395 C 0.76189 0.61879 0.27315 0.0
C396 C 0.79322 0.63385 0.27815 0.0
C397 C 0.78086 0.66528 0.25265 0.0
C398 C 0.80976 0.63174 0.26729 0.0
C399 C 0.82758 0.63236 0.27606 0.0
C400 C 0.8291 0.63517 0.29582 0.0
C401 C 0.81243 0.63706 0.3066 0.0
C402 C 0.79469 0.63631 0.29786 0.0
H403 H 0.77294 0.67715 0.24585 0.0
H404 H 0.78769 0.67061 0.26585 0.0
H405 H 0.79222 0.66065 0.2428 0.0
H406 H 0.80887 0.62965 0.25205 0.0
H407 H 0.84013 0.6308 0.26737 0.0
H408 H 0.34716 0.31067 0.83117 0.0
H409 H 0.34686 0.28038 0.81389 0.0
H410 H 0.39265 0.29986 0.77851 0.0
H411 H 0.39252 0.33021 0.79514 0.0
H412 H 0.36602 0.28364 0.75748 0.0
H413 H 0.38335 0.23689 0.81873 0.0
H414 H 0.36229 0.25083 0.82196 0.0
H415 H 0.38486 0.26239 0.82016 0.0
C416 C 0.35725 0.30837 0.81982 0.0
C417 C 0.36989 0.32277 0.81454 0.0
C418 C 0.35711 0.29106 0.80999 0.0
C419 C 0.36989 0.28776 0.79503 0.0
C420 C 0.38262 0.30209 0.78994 0.0
H421 H 0.40761 0.18129 0.75038 0.0
H422 H 0.40353 0.21248 0.76493 0.0
C423 C 0.38257 0.31942 0.79952 0.0
C424 C 0.37008 0.26955 0.78439 0.0
H425 H 0.37683 0.22184 0.78947 0.0
C426 C 0.36836 0.2701 0.76446 0.0
C427 C 0.37326 0.25192 0.79351 0.0
C428 C 0.37623 0.25042 0.81474 0.0
C429 C 0.37019 0.25361 0.75337 0.0
C430 C 0.37324 0.23598 0.76252 0.0
C431 C 0.37447 0.23537 0.78247 0.0
C432 C 0.37631 0.21806 0.75181 0.0
C433 C 0.36957 0.25537 0.73198 0.0
C434 C 0.3626 0.21101 0.73914 0.0
C435 C 0.36513 0.19327 0.73045 0.0
C436 C 0.38118 0.18219 0.73467 0.0
C437 C 0.39508 0.18953 0.74691 0.0
C438 C 0.39272 0.20731 0.75529 0.0
H439 H 0.37226 0.27016 0.72727 0.0
H440 H 0.38017 0.24586 0.7252 0.0
H441 H 0.35532 0.25127 0.72681 0.0
H442 H 0.34964 0.21885 0.73653 0.0
H443 H 0.35408 0.1878 0.72127 0.0
H444 H 0.68265 0.84672 0.30893 0.0
H445 H 0.71357 0.84125 0.29387 0.0
H446 H 0.70943 0.89581 0.26624 0.0
H447 H 0.6786 0.9011 0.28079 0.0
H448 H 0.71691 0.86654 0.2413 0.0
H449 H 0.76575 0.86444 0.30356 0.0
H450 H 0.74588 0.84861 0.30433 0.0
H451 H 0.74198 0.8738 0.30517 0.0
C452 C 0.6886 0.85769 0.3 0.0
C453 C 0.67826 0.8743 0.29596 0.0
C454 C 0.70621 0.85455 0.29138 0.0
C455 C 0.71374 0.86813 0.27892 0.0
C456 C 0.7038 0.88509 0.27569 0.0
H457 H 0.82148 0.89308 0.23513 0.0
H458 H 0.79106 0.89011 0.25099 0.0
C459 C 0.68623 0.88813 0.28408 0.0
C460 C 0.73142 0.86457 0.26822 0.0
H461 H 0.77926 0.86044 0.27326 0.0
C462 C 0.73056 0.86502 0.24825 0.0
C463 C 0.74912 0.86257 0.27739 0.0
C464 C 0.75088 0.86244 0.29879 0.0
C465 C 0.74703 0.86444 0.23718 0.0
C466 C 0.76479 0.86293 0.24636 0.0
C467 C 0.76558 0.86159 0.2663 0.0
C468 C 0.78278 0.86473 0.2358 0.0
C469 C 0.74534 0.86649 0.21587 0.0
C470 C 0.78808 0.85161 0.2217 0.0
C471 C 0.80546 0.85343 0.21234 0.0
C472 C 0.81784 0.86823 0.21722 0.0
C473 C 0.81228 0.88148 0.2311 0.0
C474 C 0.79494 0.87976 0.24025 0.0
H475 H 0.73099 0.87131 0.21146 0.0
H476 H 0.75588 0.87676 0.21041 0.0
H477 H 0.74814 0.85255 0.20906 0.0
H478 H 0.779 0.83975 0.21824 0.0
H479 H 0.80949 0.8429 0.20185 0.0
H480 H 0.81366 0.14059 0.20353 0.0
H481 H 0.79838 0.14383 0.23493 0.0
H482 H 0.74395 0.14906 0.20748 0.0
H483 H 0.75882 0.14546 0.17657 0.0
H484 H 0.77426 0.17216 0.25106 0.0
H485 H 0.73656 0.10388 0.2428 0.0
H486 H 0.75601 0.11059 0.22769 0.0
H487 H 0.73255 0.11961 0.22314 0.0
C488 C 0.79847 0.14254 0.20429 0.0
C489 C 0.7874 0.14237 0.18766 0.0
C490 C 0.78976 0.14437 0.22217 0.0
C491 C 0.76996 0.14616 0.2235 0.0
C492 C 0.75915 0.14711 0.20682 0.0
H493 H 0.68313 0.15693 0.31008 0.0
H494 H 0.70151 0.15773 0.28041 0.0
C495 C 0.76772 0.14508 0.18915 0.0
C496 C 0.76019 0.1466 0.24214 0.0
H497 H 0.72529 0.12456 0.26727 0.0
C498 C 0.76371 0.16166 0.25473 0.0
C499 C 0.74642 0.13285 0.24689 0.0
C500 C 0.74278 0.11572 0.23451 0.0
C501 C 0.75334 0.16364 0.27168 0.0
C502 C 0.7392 0.15021 0.27607 0.0
C503 C 0.73593 0.135 0.26366 0.0
C504 C 0.72826 0.15106 0.29396 0.0
C505 C 0.75727 0.18024 0.28463 0.0
C506 C 0.73723 0.14694 0.31125 0.0
C507 C 0.72681 0.14626 0.32805 0.0
C508 C 0.70717 0.14975 0.32794 0.0
C509 C 0.69822 0.15421 0.31062 0.0
C510 C 0.70869 0.15468 0.29371 0.0
H511 H 0.76604 0.19122 0.27757 0.0
H512 H 0.74382 0.18686 0.28946 0.0
H513 H 0.76499 0.17515 0.29743 0.0
H514 H 0.75226 0.14384 0.31169 0.0
H515 H 0.7342 0.14289 0.34115 0.0
H516 H 0.90646 0.23065 0.66277 0.0
H517 H 0.9051 0.21164 0.69206 0.0
H518 H 0.87402 0.25659 0.71976 0.0
H519 H 0.87522 0.27551 0.69085 0.0
H520 H 0.91903 0.22146 0.72864 0.0
H521 H 0.84175 0.20939 0.73049 0.0
H522 H 0.85395 0.2168 0.70921 0.0
H523 H 0.84756 0.23394 0.72712 0.0
C524 C 0.89926 0.23642 0.67509 0.0
C525 C 0.89092 0.2546 0.67442 0.0
C526 C 0.89848 0.22554 0.69178 0.0
C527 C 0.88913 0.23256 0.70796 0.0
C528 C 0.88092 0.2507 0.70732 0.0
H529 H 0.89832 0.22376 0.82609 0.0
H530 H 0.9006 0.22925 0.79202 0.0
C531 C 0.88177 0.26158 0.69077 0.0
C532 C 0.88866 0.22158 0.72598 0.0
H533 H 0.85831 0.20632 0.76043 0.0
C534 C 0.90577 0.21778 0.73543 0.0
C535 C 0.87139 0.2165 0.73472 0.0
C536 C 0.85262 0.21918 0.72477 0.0
C537 C 0.90599 0.21031 0.75396 0.0
C538 C 0.88865 0.20675 0.76331 0.0
C539 C 0.8716 0.20924 0.75333 0.0
C540 C 0.88787 0.20254 0.78398 0.0
C541 C 0.92479 0.20681 0.76358 0.0
C542 C 0.87957 0.18581 0.79086 0.0
C543 C 0.8782 0.18259 0.81052 0.0
C544 C 0.88483 0.19621 0.82356 0.0
C545 C 0.89306 0.21294 0.81651 0.0
C546 C 0.89453 0.21606 0.79699 0.0
H547 H 0.9362 0.20436 0.75301 0.0
H548 H 0.92864 0.2195 0.77211 0.0
H549 H 0.92412 0.1944 0.77328 0.0
H550 H 0.87415 0.17529 0.78103 0.0
H551 H 0.87173 0.1696 0.81548 0.0
H552 H 0.78774 0.38483 0.32865 0.0
H553 H 0.77874 0.38763 0.29532 0.0
H554 H 0.83672 0.37821 0.27863 0.0
H555 H 0.84586 0.37494 0.31221 0.0
H556 H 0.79018 0.41329 0.26902 0.0
H557 H 0.80897 0.34028 0.24527 0.0
H558 H 0.80769 0.34675 0.27008 0.0
H559 H 0.82788 0.35339 0.25613 0.0
C560 C 0.79864 0.38325 0.31795 0.0
C561 C 0.81755 0.3796 0.32316 0.0
C562 C 0.79344 0.38489 0.29884 0.0
C563 C 0.80698 0.38293 0.2844 0.0
C564 C 0.82593 0.37939 0.28949 0.0
H565 H 0.78513 0.39192 0.16085 0.0
H566 H 0.80159 0.39087 0.19168 0.0
C567 C 0.83116 0.37763 0.3087 0.0
C568 C 0.801 0.38505 0.26417 0.0
H569 H 0.79672 0.36114 0.22199 0.0
C570 C 0.79174 0.40191 0.25873 0.0
C571 C 0.80307 0.37024 0.25067 0.0
C572 C 0.8123 0.35157 0.25579 0.0
C573 C 0.78413 0.40418 0.24039 0.0
C574 C 0.78571 0.38919 0.22711 0.0
C575 C 0.79556 0.37261 0.23223 0.0
C576 C 0.77596 0.38997 0.20838 0.0
C577 C 0.77422 0.42254 0.23539 0.0
C578 C 0.75613 0.38966 0.20758 0.0
C579 C 0.74671 0.39013 0.19007 0.0
C580 C 0.75692 0.391 0.17293 0.0
C581 C 0.77684 0.39135 0.17377 0.0
C582 C 0.78627 0.3907 0.19135 0.0
H583 H 0.77807 0.43416 0.24534 0.0
H584 H 0.77772 0.42698 0.22066 0.0
H585 H 0.75869 0.42043 0.23618 0.0
H586 H 0.74791 0.38889 0.22055 0.0
H587 H 0.73139 0.38981 0.19 0.0
H588 H 0.59785 0.27666 0.66535 0.0
H589 H 0.60167 0.29465 0.69505 0.0
H590 H 0.65111 0.26114 0.70891 0.0
H591 H 0.64682 0.2427 0.67993 0.0
H592 H 0.62929 0.26273 0.73799 0.0
H593 H 0.63694 0.33602 0.71065 0.0
H594 H 0.61534 0.32506 0.70305 0.0
H595 H 0.6377 0.3155 0.69527 0.0
C596 C 0.60958 0.27327 0.67472 0.0
C597 C 0.62193 0.25819 0.67041 0.0
C598 C 0.61187 0.28367 0.6916 0.0
C599 C 0.62685 0.27946 0.70417 0.0
C600 C 0.63942 0.26468 0.69953 0.0
H601 H 0.66377 0.3434 0.80452 0.0
H602 H 0.65983 0.33119 0.77193 0.0
C603 C 0.63692 0.2541 0.68295 0.0
C604 C 0.62884 0.28931 0.72282 0.0
H605 H 0.63258 0.33278 0.74421 0.0
C606 C 0.63012 0.27806 0.73926 0.0
C607 C 0.63018 0.3093 0.72457 0.0
C608 C 0.63017 0.32217 0.70743 0.0
C609 C 0.6326 0.28613 0.75732 0.0
C610 C 0.63302 0.30614 0.7592 0.0
C611 C 0.63199 0.31746 0.74278 0.0
C612 C 0.63439 0.31536 0.77819 0.0
C613 C 0.63519 0.27301 0.77413 0.0
C614 C 0.62104 0.31114 0.79227 0.0
C615 C 0.62348 0.31774 0.81082 0.0
C616 C 0.63903 0.32916 0.81559 0.0
C617 C 0.6517 0.33456 0.80122 0.0
C618 C 0.64944 0.3276 0.78263 0.0
H619 H 0.64051 0.25883 0.76964 0.0
H620 H 0.64525 0.279 0.78468 0.0
H621 H 0.62134 0.2709 0.7812 0.0
H622 H 0.60898 0.30226 0.78906 0.0
H623 H 0.61328 0.31365 0.82154 0.0
H624 H 0.33202 0.74971 0.12055 0.0
H625 H 0.29984 0.76193 0.11495 0.0
H626 H 0.27722 0.70599 0.12431 0.0
H627 H 0.30901 0.69369 0.12977 0.0
H628 H 0.26167 0.72516 0.09203 0.0
H629 H 0.26012 0.76912 0.15782 0.0
H630 H 0.2797 0.77312 0.14207 0.0
H631 H 0.27756 0.75071 0.154 0.0
C632 C 0.32019 0.74003 0.12136 0.0
C633 C 0.32312 0.72076 0.12577 0.0
C634 C 0.30182 0.74703 0.11822 0.0
C635 C 0.28614 0.73487 0.11941 0.0
C636 C 0.2891 0.71561 0.12335 0.0
H637 H 0.16296 0.74331 0.11455 0.0
H638 H 0.19585 0.7318 0.11359 0.0
C639 C 0.30734 0.70864 0.12656 0.0
C640 C 0.26652 0.7421 0.11706 0.0
H641 H 0.23314 0.77016 0.13817 0.0
C642 C 0.25541 0.73507 0.10204 0.0
C643 C 0.2584 0.7549 0.13024 0.0
C644 C 0.26945 0.76234 0.14705 0.0
C645 C 0.23642 0.74069 0.09973 0.0
C646 C 0.22824 0.75336 0.11302 0.0
C647 C 0.23942 0.76044 0.12798 0.0
C648 C 0.20822 0.75983 0.1117 0.0
C649 C 0.22541 0.73326 0.0829 0.0
C650 C 0.20423 0.77932 0.11096 0.0
C651 C 0.1856 0.78586 0.11174 0.0
C652 C 0.17045 0.77307 0.11325 0.0
C653 C 0.17433 0.75348 0.11325 0.0
C654 C 0.19311 0.74691 0.11263 0.0
H655 H 0.23494 0.72802 0.07147 0.0
H656 H 0.21648 0.72122 0.08757 0.0
H657 H 0.21599 0.74442 0.0769 0.0
H658 H 0.21561 0.78955 0.1102 0.0
H659 H 0.18311 0.80105 0.11155 0.0
H660 H 0.30545 0.83719 0.35969 0.0
H661 H 0.271 0.8339 0.36328 0.0
H662 H 0.27977 0.78603 0.40055 0.0
H663 H 0.31376 0.78923 0.39723 0.0
H664 H 0.24974 0.80284 0.35333 0.0
H665 H 0.24081 0.81658 0.42997 0.0
H666 H 0.26173 0.82371 0.41712 0.0
H667 H 0.25966 0.79988 0.42621 0.0
C668 C 0.29999 0.8261 0.36878 0.0
C669 C 0.31236 0.81346 0.37814 0.0
C670 C 0.28034 0.82429 0.37088 0.0
C671 C 0.27284 0.81002 0.38256 0.0
C672 C 0.28521 0.79752 0.39193 0.0
H673 H 0.19208 0.72942 0.3792 0.0
H674 H 0.21732 0.75253 0.37703 0.0
C675 C 0.3047 0.79923 0.3898 0.0
C676 C 0.25221 0.80657 0.38367 0.0
H677 H 0.21827 0.79414 0.41575 0.0
C678 C 0.24263 0.80153 0.36693 0.0
C679 C 0.24275 0.8052 0.40135 0.0
C680 C 0.25174 0.81186 0.41964 0.0
C681 C 0.22466 0.79321 0.36763 0.0
C682 C 0.21625 0.78966 0.38551 0.0
C683 C 0.22489 0.79659 0.40207 0.0
C684 C 0.20049 0.77606 0.38739 0.0
C685 C 0.21531 0.78718 0.34929 0.0
C686 C 0.18279 0.7815 0.39468 0.0
C687 C 0.16814 0.76818 0.39602 0.0
C688 C 0.17114 0.74925 0.39026 0.0
C689 C 0.18915 0.74387 0.38363 0.0
C690 C 0.20362 0.7571 0.38224 0.0
H691 H 0.22003 0.79611 0.33719 0.0
H692 H 0.21931 0.77226 0.34611 0.0
H693 H 0.19965 0.78804 0.35036 0.0
H694 H 0.18023 0.79606 0.39898 0.0
H695 H 0.15443 0.77275 0.4012 0.0
H696 H 0.1944 0.81354 0.86495 0.0
H697 H 0.20756 0.78151 0.86689 0.0
H698 H 0.25976 0.80397 0.88916 0.0
H699 H 0.24669 0.83629 0.88725 0.0
H700 H 0.24219 0.76759 0.84905 0.0
H701 H 0.24249 0.76193 0.92804 0.0
H702 H 0.22822 0.77922 0.91548 0.0
H703 H 0.25323 0.78274 0.91797 0.0
C704 C 0.2087 0.81175 0.87028 0.0
C705 C 0.21948 0.82751 0.87601 0.0
C706 C 0.21618 0.7934 0.87135 0.0
C707 C 0.23453 0.79037 0.87834 0.0
C708 C 0.24547 0.80603 0.88393 0.0
H709 H 0.30291 0.68834 0.87122 0.0
H710 H 0.29035 0.72066 0.87008 0.0
C711 C 0.23802 0.82447 0.88273 0.0
C712 C 0.24215 0.77077 0.8795 0.0
H713 H 0.25518 0.73598 0.91083 0.0
C714 C 0.24509 0.76068 0.86254 0.0
C715 C 0.24566 0.76177 0.89715 0.0
C716 C 0.24215 0.77184 0.91576 0.0
C717 C 0.25166 0.74184 0.86275 0.0
C718 C 0.25542 0.73291 0.88037 0.0
C719 C 0.2523 0.74292 0.89736 0.0
C720 C 0.26293 0.71327 0.88136 0.0
C721 C 0.25436 0.7315 0.84414 0.0
C722 C 0.2517 0.69844 0.8883 0.0
C723 C 0.2588 0.67983 0.8889 0.0
C724 C 0.27733 0.67584 0.88276 0.0
C725 C 0.28857 0.69086 0.87604 0.0
C726 C 0.28142 0.70936 0.87532 0.0
H727 H 0.24744 0.73904 0.83209 0.0
H728 H 0.26972 0.73031 0.84105 0.0
H729 H 0.24857 0.71689 0.84501 0.0
H730 H 0.23739 0.70123 0.89308 0.0
H731 H 0.24982 0.66862 0.89423 0.0
H732 H 0.21102 0.68506 0.65785 0.0
H733 H 0.22356 0.71715 0.66275 0.0
H734 H 0.25968 0.71012 0.6138 0.0
H735 H 0.24776 0.67802 0.6093 0.0
H736 H 0.27912 0.72294 0.64384 0.0
H737 H 0.21355 0.76583 0.63427 0.0
H738 H 0.21219 0.74797 0.65242 0.0
H739 H 0.21484 0.74104 0.62795 0.0
C740 C 0.22139 0.69055 0.64798 0.0
C741 C 0.22844 0.67911 0.63321 0.0
C742 C 0.22853 0.70886 0.65078 0.0
C743 C 0.2425 0.71605 0.63858 0.0
C744 C 0.249 0.70482 0.62345 0.0
H745 H 0.27743 0.82847 0.61486 0.0
H746 H 0.26474 0.79642 0.61631 0.0
C747 C 0.24212 0.68651 0.62084 0.0
C748 C 0.25108 0.73493 0.64177 0.0
H749 H 0.2413 0.78237 0.64257 0.0
C750 C 0.27086 0.73596 0.64364 0.0
C751 C 0.24025 0.75185 0.64148 0.0
C752 C 0.21905 0.75172 0.63876 0.0
C753 C 0.28019 0.75346 0.6445 0.0
C754 C 0.26937 0.77039 0.64406 0.0
C755 C 0.24955 0.76934 0.64293 0.0
C756 C 0.27827 0.78935 0.64307 0.0
C757 C 0.30155 0.75365 0.64494 0.0
C758 C 0.29042 0.79592 0.65747 0.0
C759 C 0.29803 0.81422 0.65648 0.0
C760 C 0.29323 0.82627 0.64128 0.0
C761 C 0.28131 0.81951 0.62679 0.0
C762 C 0.27398 0.80123 0.62763 0.0
H763 H 0.30768 0.73973 0.64066 0.0
H764 H 0.3072 0.76478 0.63537 0.0
H765 H 0.30642 0.75677 0.65963 0.0
H766 H 0.29364 0.78712 0.66969 0.0
H767 H 0.30701 0.8192 0.66795 0.0
H768 H 0.89288 0.855 0.27484 0.0
H769 H 0.89197 0.82842 0.2975 0.0
H770 H 0.87448 0.79083 0.25241 0.0
H771 H 0.87529 0.81701 0.22986 0.0
H772 H 0.85168 0.78936 0.28629 0.0
H773 H 0.92888 0.78187 0.301 0.0
H774 H 0.91833 0.80508 0.30332 0.0
H775 H 0.92003 0.79425 0.28029 0.0
C776 C 0.88905 0.84102 0.26973 0.0
C777 C 0.88417 0.83818 0.2505 0.0
C778 C 0.88854 0.82586 0.2827 0.0
C779 C 0.88316 0.80764 0.27663 0.0
C780 C 0.87859 0.80477 0.25742 0.0
H781 H 0.89318 0.69322 0.30449 0.0
H782 H 0.89527 0.72622 0.29472 0.0
C783 C 0.87914 0.8198 0.24452 0.0
C784 C 0.88183 0.79139 0.29004 0.0
H785 H 0.90877 0.75896 0.31418 0.0
C786 C 0.86409 0.78289 0.29272 0.0
C787 C 0.89807 0.78297 0.29832 0.0
C788 C 0.91747 0.79136 0.2956 0.0
C789 C 0.86227 0.7657 0.3027 0.0
C790 C 0.87862 0.75687 0.31036 0.0
C791 C 0.89624 0.76584 0.30843 0.0
C792 C 0.87814 0.7371 0.31776 0.0
C793 C 0.84307 0.75651 0.30393 0.0
C794 C 0.86801 0.73218 0.33423 0.0
C795 C 0.86674 0.7131 0.33995 0.0
C796 C 0.87553 0.69869 0.3292 0.0
C797 C 0.88606 0.70386 0.31305 0.0
C798 C 0.88738 0.72279 0.30746 0.0
H799 H 0.83228 0.76402 0.29516 0.0
H800 H 0.84388 0.74149 0.29919 0.0
H801 H 0.83824 0.75662 0.31894 0.0
H802 H 0.86091 0.74305 0.3425 0.0
H803 H 0.85858 0.70961 0.35247 0.0
H804 H 0.19608 0.38564 0.70349 0.0
H805 H 0.22766 0.38903 0.71727 0.0
H806 H 0.20305 0.39862 0.77252 0.0
H807 H 0.17124 0.39528 0.75885 0.0
H808 H 0.24354 0.42094 0.74002 0.0
H809 H 0.24023 0.35184 0.77816 0.0
H810 H 0.22466 0.35763 0.75857 0.0
H811 H 0.22058 0.3678 0.78162 0.0
C812 C 0.19732 0.38852 0.71858 0.0
C813 C 0.18111 0.39004 0.73011 0.0
C814 C 0.2154 0.39054 0.7264 0.0
C815 C 0.21767 0.39393 0.7459 0.0
C816 C 0.20156 0.39585 0.75743 0.0
H817 H 0.31308 0.3932 0.82204 0.0
H818 H 0.28217 0.39602 0.8069 0.0
C819 C 0.18342 0.39397 0.7496 0.0
C820 C 0.23693 0.39476 0.75424 0.0
H821 H 0.26732 0.3705 0.78321 0.0
C822 C 0.2488 0.40996 0.74949 0.0
C823 C 0.24372 0.38032 0.76644 0.0
C824 C 0.23175 0.36336 0.77145 0.0
C825 C 0.2672 0.41134 0.75706 0.0
C826 C 0.27399 0.39689 0.76933 0.0
C827 C 0.26211 0.38161 0.77385 0.0
C828 C 0.2931 0.39743 0.77822 0.0
C829 C 0.27897 0.42849 0.75226 0.0
C830 C 0.30968 0.39768 0.76717 0.0
C831 C 0.32754 0.3963 0.77587 0.0
C832 C 0.32902 0.39427 0.79571 0.0
C833 C 0.31242 0.39456 0.8067 0.0
C834 C 0.29471 0.39618 0.79807 0.0
H835 H 0.27008 0.44045 0.74703 0.0
H836 H 0.28716 0.43338 0.76483 0.0
H837 H 0.28912 0.42468 0.74085 0.0
H838 H 0.30881 0.39824 0.7518 0.0
H839 H 0.34009 0.39597 0.76706 0.0
H840 H 0.61838 0.86256 0.23137 0.0
H841 H 0.62094 0.83426 0.2109 0.0
H842 H 0.61164 0.7984 0.25962 0.0
H843 H 0.60918 0.82631 0.27999 0.0
H844 H 0.64846 0.80334 0.21663 0.0
H845 H 0.57449 0.7779 0.21872 0.0
H846 H 0.58085 0.80216 0.22407 0.0
H847 H 0.58371 0.78393 0.24177 0.0
C848 C 0.61651 0.84865 0.2376 0.0
C849 C 0.61352 0.84669 0.2573 0.0
C850 C 0.61809 0.8325 0.22593 0.0
C851 C 0.61633 0.81422 0.23371 0.0
C852 C 0.61279 0.81234 0.25324 0.0
H853 H 0.63075 0.69744 0.22223 0.0
H854 H 0.62538 0.73076 0.22942 0.0
C855 C 0.61144 0.82835 0.26489 0.0
C856 C 0.61923 0.79686 0.22201 0.0
H857 H 0.5983 0.75462 0.21114 0.0
C858 C 0.63741 0.79283 0.21497 0.0
C859 C 0.60479 0.78319 0.21985 0.0
C860 C 0.58481 0.78705 0.22634 0.0
C861 C 0.64184 0.77495 0.2071 0.0
C862 C 0.62766 0.76088 0.20606 0.0
C863 C 0.60921 0.76537 0.21202 0.0
C864 C 0.63202 0.74077 0.20116 0.0
C865 C 0.66192 0.7708 0.20111 0.0
C866 C 0.63779 0.73522 0.18283 0.0
C867 C 0.64096 0.71593 0.17859 0.0
C868 C 0.63831 0.70194 0.19262 0.0
C869 C 0.63287 0.70772 0.21099 0.0
C870 C 0.62974 0.72683 0.21517 0.0
H871 H 0.67174 0.78246 0.20499 0.0
H872 H 0.66702 0.75744 0.2078 0.0
H873 H 0.6624 0.76883 0.18545 0.0
H874 H 0.63945 0.74572 0.17172 0.0
H875 H 0.64505 0.71196 0.16429 0.0
H876 H 0.36289 0.1211 0.79599 0.0
H877 H 0.33342 0.12291 0.81457 0.0
H878 H 0.30107 0.11143 0.76378 0.0
H879 H 0.33016 0.10984 0.74525 0.0
H880 H 0.30243 0.15 0.80459 0.0
H881 H 0.2791 0.07501 0.80526 0.0
H882 H 0.30352 0.08176 0.8019 0.0
H883 H 0.28703 0.08312 0.78242 0.0
C884 C 0.3495 0.11856 0.78893 0.0
C885 C 0.3488 0.11534 0.76919 0.0
C886 C 0.33271 0.11968 0.79951 0.0
C887 C 0.31511 0.11715 0.79055 0.0
C888 C 0.31451 0.11319 0.77101 0.0
H889 H 0.19749 0.12803 0.79425 0.0
H890 H 0.23108 0.12208 0.78935 0.0
C891 C 0.33115 0.11235 0.76043 0.0
C892 C 0.29711 0.12018 0.80088 0.0
H893 H 0.255 0.09863 0.8101 0.0
C894 C 0.29216 0.13874 0.80628 0.0
C895 C 0.2838 0.10544 0.80296 0.0
C896 C 0.28864 0.08516 0.79799 0.0
C897 C 0.27373 0.14319 0.8124 0.0
C898 C 0.26008 0.12858 0.81347 0.0
C899 C 0.26544 0.10983 0.80918 0.0
C900 C 0.23974 0.13264 0.81693 0.0
C901 C 0.26869 0.16363 0.81644 0.0
C902 C 0.23338 0.14064 0.8341 0.0
C903 C 0.21404 0.14422 0.83693 0.0
C904 C 0.20076 0.13969 0.82268 0.0
C905 C 0.20727 0.13169 0.80555 0.0
C906 C 0.2265 0.12822 0.80273 0.0
H907 H 0.27989 0.17355 0.81167 0.0
H908 H 0.25519 0.16757 0.8093 0.0
H909 H 0.26675 0.16556 0.83199 0.0
H910 H 0.24331 0.14389 0.84538 0.0
H911 H 0.20948 0.15026 0.85033 0.0
H912 H 0.23294 0.90514 0.6597 0.0
H913 H 0.21234 0.90561 0.68792 0.0
H914 H 0.25606 0.87757 0.72049 0.0
H915 H 0.27662 0.87742 0.69291 0.0
H916 H 0.19856 0.87609 0.71079 0.0
H917 H 0.24433 0.92365 0.753 0.0
H918 H 0.2472 0.9206 0.72767 0.0
H919 H 0.25736 0.90368 0.74402 0.0
C920 C 0.23816 0.89922 0.67294 0.0
C921 C 0.25654 0.8915 0.67408 0.0
C922 C 0.22637 0.89943 0.68901 0.0
C923 C 0.23282 0.89196 0.70642 0.0
C924 C 0.25095 0.88387 0.70738 0.0
H925 H 0.18113 0.84819 0.80725 0.0
H926 H 0.1907 0.85382 0.77419 0.0
C927 C 0.2627 0.88377 0.6915 0.0
C928 C 0.22087 0.89236 0.72377 0.0
H929 H 0.22257 0.90448 0.7707 0.0
C930 C 0.2036 0.88257 0.72385 0.0
C931 C 0.22725 0.9011 0.74072 0.0
C932 C 0.24495 0.91302 0.74132 0.0
C933 C 0.19306 0.88045 0.74069 0.0
C934 C 0.20025 0.88794 0.75796 0.0
C935 C 0.21705 0.89852 0.75758 0.0
C936 C 0.19125 0.8845 0.7768 0.0
C937 C 0.1744 0.8702 0.73977 0.0
C938 C 0.1883 0.89977 0.78935 0.0
C939 C 0.18331 0.89648 0.80827 0.0
C940 C 0.18077 0.87791 0.81492 0.0
C941 C 0.18262 0.86265 0.80224 0.0
C942 C 0.188 0.8659 0.78333 0.0
H943 H 0.16786 0.87151 0.72543 0.0
H944 H 0.17681 0.85487 0.74254 0.0
H945 H 0.16428 0.87576 0.7505 0.0
H946 H 0.19074 0.91422 0.78474 0.0
H947 H 0.18217 0.90843 0.81793 0.0
H948 H 0.11207 0.73355 0.33035 0.0
H949 H 0.11201 0.7498 0.29972 0.0
H950 H 0.1634 0.72041 0.2841 0.0
H951 H 0.16313 0.70352 0.31459 0.0
H952 H 0.13696 0.774 0.28569 0.0
H953 H 0.132 0.71183 0.23743 0.0
H954 H 0.12844 0.70991 0.26274 0.0
H955 H 0.15201 0.71093 0.25317 0.0
C956 C 0.12322 0.73032 0.32028 0.0
C957 C 0.13754 0.71715 0.32483 0.0
C958 C 0.12322 0.7397 0.3028 0.0
C959 C 0.13761 0.73626 0.28949 0.0
C960 C 0.1519 0.72301 0.29393 0.0
H961 H 0.15327 0.8129 0.19121 0.0
H962 H 0.15702 0.79768 0.22248 0.0
C963 C 0.15175 0.71337 0.31137 0.0
C964 C 0.13771 0.747 0.27127 0.0
H965 H 0.13666 0.74172 0.22302 0.0
C966 C 0.13689 0.76695 0.27197 0.0
C967 C 0.13753 0.7378 0.25337 0.0
C968 C 0.13736 0.71645 0.25156 0.0
C969 C 0.1355 0.77792 0.25532 0.0
C970 C 0.13547 0.76871 0.23742 0.0
C971 C 0.13674 0.7488 0.23673 0.0
C972 C 0.13281 0.77917 0.21922 0.0
C973 C 0.13333 0.79916 0.25713 0.0
C974 C 0.11805 0.77386 0.20697 0.0
C975 C 0.11613 0.78223 0.18911 0.0
C976 C 0.12881 0.79631 0.18311 0.0
C977 C 0.14317 0.80226 0.1956 0.0
C978 C 0.14529 0.79358 0.21346 0.0
H979 H 0.12869 0.80339 0.27162 0.0
H980 H 0.14717 0.80598 0.25437 0.0
H981 H 0.12292 0.80474 0.24665 0.0
H982 H 0.10817 0.76288 0.21109 0.0
H983 H 0.10488 0.77742 0.17982 0.0
H984 H 0.33932 0.63633 0.81587 0.0
H985 H 0.33438 0.63339 0.78135 0.0
H986 H 0.28006 0.60767 0.79123 0.0
H987 H 0.28479 0.6105 0.82547 0.0
H988 H 0.3037 0.58881 0.76284 0.0
H989 H 0.29509 0.66661 0.75105 0.0
H990 H 0.31586 0.65859 0.76362 0.0
H991 H 0.29302 0.65609 0.77437 0.0
C992 C 0.32637 0.62998 0.81068 0.0
C993 C 0.31241 0.62377 0.82348 0.0
C994 C 0.32355 0.62836 0.79095 0.0
C995 C 0.3068 0.62041 0.78373 0.0
C996 C 0.29309 0.61384 0.79648 0.0
H997 H 0.23738 0.62403 0.68703 0.0
H998 H 0.25394 0.62479 0.71739 0.0
C999 C 0.29581 0.61556 0.81609 0.0
C1000 C 0.30297 0.61936 0.76295 0.0
H1001 H 0.28946 0.64656 0.725 0.0
C1002 C 0.30094 0.60142 0.75443 0.0
C1003 C 0.29922 0.63585 0.75208 0.0
C1004 C 0.30077 0.65543 0.76066 0.0
C1005 C 0.29466 0.59955 0.73551 0.0
C1006 C 0.2903 0.61602 0.72487 0.0
C1007 C 0.29296 0.63396 0.73317 0.0
C1008 C 0.28066 0.61495 0.7061 0.0
C1009 C 0.29174 0.58 0.72728 0.0
C1010 C 0.29019 0.60903 0.68958 0.0
C1011 C 0.28071 0.60861 0.67198 0.0
C1012 C 0.26154 0.61404 0.67068 0.0
C1013 C 0.2521 0.6197 0.68739 0.0
C1014 C 0.26157 0.62022 0.70482 0.0
H1015 H 0.29457 0.5686 0.73785 0.0
H1016 H 0.27698 0.57858 0.722 0.0
H1017 H 0.30133 0.57791 0.71498 0.0
H1018 H 0.30498 0.60499 0.69027 0.0
H1019 H 0.28842 0.60425 0.6594 0.0
H1020 H 0.37157 0.78784 0.32001 0.0
H1021 H 0.37048 0.7669 0.29236 0.0
H1022 H 0.37265 0.71797 0.32908 0.0
H1023 H 0.37385 0.73892 0.35707 0.0
H1024 H 0.39928 0.73544 0.28391 0.0
H1025 H 0.32442 0.71199 0.29171 0.0
H1026 H 0.3325 0.73413 0.3018 0.0
H1027 H 0.33989 0.71208 0.31217 0.0
C1028 C 0.37183 0.77264 0.3223 0.0
C1029 C 0.37278 0.76508 0.3408 0.0
C1030 C 0.37121 0.76069 0.30645 0.0
C1031 C 0.37133 0.74092 0.30869 0.0
C1032 C 0.37238 0.73322 0.32708 0.0
H1033 H 0.3594 0.66502 0.20816 0.0
H1034 H 0.36163 0.67469 0.24183 0.0
C1035 C 0.37315 0.7452 0.34303 0.0
C1036 C 0.37064 0.72864 0.29156 0.0
H1037 H 0.34014 0.70355 0.26342 0.0
C1038 C 0.38646 0.72818 0.27958 0.0
C1039 C 0.35396 0.71907 0.28603 0.0
C1040 C 0.33663 0.71926 0.29849 0.0
C1041 C 0.38579 0.71908 0.26182 0.0
C1042 C 0.3687 0.71059 0.25569 0.0
C1043 C 0.3532 0.7101 0.26813 0.0
C1044 C 0.36614 0.70441 0.23564 0.0
C1045 C 0.40324 0.71913 0.24949 0.0
C1046 C 0.36731 0.71797 0.22114 0.0
C1047 C 0.36604 0.71256 0.20211 0.0
C1048 C 0.36343 0.69342 0.19703 0.0
C1049 C 0.36145 0.67986 0.2116 0.0
C1050 C 0.36276 0.68535 0.23081 0.0
H1051 H 0.41631 0.7207 0.25817 0.0
H1052 H 0.40434 0.70587 0.241 0.0
H1053 H 0.40246 0.73131 0.23952 0.0
H1054 H 0.36949 0.73281 0.22455 0.0
H1055 H 0.36739 0.72347 0.19135 0.0
H1056 H 0.70353 0.32147 0.8748 0.0
H1057 H 0.73408 0.30542 0.87726 0.0
H1058 H 0.70602 0.25244 0.88856 0.0
H1059 H 0.6751 0.26847 0.88622 0.0
H1060 H 0.74795 0.28259 0.91046 0.0
H1061 H 0.7434 0.24283 0.84206 0.0
H1062 H 0.72929 0.2638 0.84661 0.0
H1063 H 0.72348 0.24181 0.85796 0.0
C1064 C 0.70375 0.30638 0.87777 0.0
C1065 C 0.6868 0.29624 0.88024 0.0
C1066 C 0.72127 0.29726 0.87922 0.0
C1067 C 0.7223 0.27776 0.88297 0.0
C1068 C 0.70549 0.2675 0.8855 0.0
H1069 H 0.82126 0.20335 0.88373 0.0
H1070 H 0.78916 0.21628 0.88455 0.0
C1071 C 0.68786 0.27668 0.88421 0.0
C1072 C 0.7411 0.26838 0.88425 0.0
H1073 H 0.77127 0.23915 0.86003 0.0
C1074 C 0.75306 0.273 0.89951 0.0
C1075 C 0.74764 0.25587 0.86996 0.0
C1076 C 0.73541 0.25077 0.85312 0.0
C1077 C 0.77145 0.26543 0.90088 0.0
C1078 C 0.77826 0.25334 0.88628 0.0
C1079 C 0.76612 0.24848 0.87118 0.0
C1080 C 0.79792 0.24562 0.8863 0.0
C1081 C 0.78327 0.27024 0.91812 0.0
C1082 C 0.81362 0.2578 0.88685 0.0
C1083 C 0.83207 0.25043 0.88655 0.0
C1084 C 0.83519 0.23073 0.88537 0.0
C1085 C 0.81942 0.2186 0.88462 0.0
C1086 C 0.80102 0.22597 0.88509 0.0
H1087 H 0.77428 0.27453 0.93036 0.0
H1088 H 0.79225 0.25802 0.92252 0.0
H1089 H 0.79264 0.28235 0.91467 0.0
H1090 H 0.81163 0.27305 0.88728 0.0
H1091 H 0.84388 0.26017 0.88698 0.0
H1092 H 0.83642 0.26193 0.61382 0.0
H1093 H 0.80399 0.25053 0.61153 0.0
H1094 H 0.78422 0.30005 0.64176 0.0
H1095 H 0.81684 0.31159 0.64433 0.0
H1096 H 0.77016 0.26545 0.65593 0.0
H1097 H 0.76081 0.27032 0.5777 0.0
H1098 H 0.78173 0.2576 0.58485 0.0
H1099 H 0.77953 0.28247 0.59023 0.0
C1100 C 0.82521 0.27053 0.61987 0.0
C1101 C 0.82924 0.28772 0.62924 0.0
C1102 C 0.80664 0.26402 0.61844 0.0
C1103 C 0.79169 0.27456 0.62624 0.0
C1104 C 0.79559 0.29177 0.63554 0.0
H1105 H 0.67198 0.25334 0.61034 0.0
H1106 H 0.70393 0.26635 0.61036 0.0
C1107 C 0.81421 0.29835 0.63695 0.0
C1108 C 0.77215 0.26709 0.62541 0.0
H1109 H 0.73768 0.25255 0.59462 0.0
C1110 C 0.76299 0.26273 0.64254 0.0
C1111 C 0.76281 0.2637 0.60792 0.0
C1112 C 0.77163 0.26892 0.58912 0.0
C1113 C 0.74486 0.25468 0.64263 0.0
C1114 C 0.7358 0.25065 0.62512 0.0
C1115 C 0.74479 0.2554 0.60801 0.0
C1116 C 0.7167 0.2421 0.6243 0.0
C1117 C 0.73544 0.25078 0.66147 0.0
C1118 C 0.71339 0.22391 0.6317 0.0
C1119 C 0.6951 0.21637 0.6317 0.0
C1120 C 0.67984 0.22691 0.62425 0.0
C1121 C 0.68338 0.24486 0.61626 0.0
C1122 C 0.70164 0.25234 0.61624 0.0
H1123 H 0.74224 0.25874 0.67329 0.0
H1124 H 0.72019 0.25463 0.66095 0.0
H1125 H 0.73658 0.2354 0.66472 0.0
H1126 H 0.72492 0.21563 0.63765 0.0
H1127 H 0.69287 0.2025 0.63792 0.0
H1128 H 0.68787 0.32307 0.13619 0.0
H1129 H 0.69277 0.28847 0.13475 0.0
H1130 H 0.75109 0.29712 0.1194 0.0
H1131 H 0.74641 0.33141 0.12067 0.0
H1132 H 0.70988 0.26519 0.10111 0.0
H1133 H 0.75006 0.26219 0.16906 0.0
H1134 H 0.73374 0.28122 0.16345 0.0
H1135 H 0.7569 0.28078 0.15299 0.0
C1136 C 0.70172 0.31759 0.13248 0.0
C1137 C 0.71676 0.33007 0.12862 0.0
C1138 C 0.70447 0.29783 0.13161 0.0
C1139 C 0.72232 0.29026 0.12706 0.0
C1140 C 0.73723 0.30267 0.12303 0.0
H1141 H 0.78829 0.19072 0.11754 0.0
H1142 H 0.77353 0.222 0.11825 0.0
C1143 C 0.7345 0.32231 0.12377 0.0
C1144 C 0.72584 0.26945 0.12685 0.0
H1145 H 0.75231 0.23522 0.14885 0.0
C1146 C 0.71888 0.25849 0.11169 0.0
C1147 C 0.73756 0.26078 0.14069 0.0
C1148 C 0.74491 0.27176 0.15758 0.0
C1149 C 0.72424 0.2393 0.10946 0.0
C1150 C 0.73667 0.23088 0.12288 0.0
C1151 C 0.74286 0.24168 0.1385 0.0
C1152 C 0.74489 0.21153 0.12031 0.0
C1153 C 0.71739 0.22847 0.09228 0.0
C1154 C 0.73367 0.19508 0.12075 0.0
C1155 C 0.74214 0.17697 0.12021 0.0
C1156 C 0.76196 0.17508 0.11943 0.0
C1157 C 0.77299 0.19162 0.11827 0.0
C1158 C 0.76457 0.20956 0.1187 0.0
H1159 H 0.71051 0.23791 0.08163 0.0
H1160 H 0.72933 0.22086 0.08536 0.0
H1161 H 0.70692 0.21771 0.09683 0.0
H1162 H 0.71846 0.19622 0.12225 0.0
H1163 H 0.73327 0.16452 0.12129 0.0
H1164 H 0.81545 0.31549 0.38196 0.0
H1165 H 0.80225 0.28371 0.38582 0.0
H1166 H 0.74802 0.30818 0.39984 0.0
H1167 H 0.76108 0.34012 0.39599 0.0
H1168 H 0.7837 0.26758 0.41913 0.0
H1169 H 0.73733 0.27061 0.35521 0.0
H1170 H 0.75687 0.28667 0.35876 0.0
H1171 H 0.73506 0.29029 0.37135 0.0
C1172 C 0.80068 0.31417 0.38578 0.0
C1173 C 0.78929 0.3304 0.38854 0.0
C1174 C 0.7932 0.29597 0.38807 0.0
C1175 C 0.77414 0.29359 0.39298 0.0
C1176 C 0.76273 0.30972 0.39584 0.0
H1177 H 0.69778 0.19982 0.40343 0.0
H1178 H 0.71384 0.23034 0.4047 0.0
C1179 C 0.77022 0.32796 0.39366 0.0
C1180 C 0.76617 0.27423 0.39492 0.0
H1181 H 0.73386 0.24408 0.37538 0.0
C1182 C 0.77283 0.26236 0.40956 0.0
C1183 C 0.75211 0.26747 0.38234 0.0
C1184 C 0.74498 0.27931 0.36591 0.0
C1185 C 0.76534 0.24409 0.41232 0.0
C1186 C 0.75108 0.23741 0.39985 0.0
C1187 C 0.74471 0.24922 0.38502 0.0
C1188 C 0.74202 0.21851 0.40204 0.0
C1189 C 0.77233 0.23234 0.42886 0.0
C1190 C 0.75254 0.20153 0.40077 0.0
C1191 C 0.74333 0.1839 0.40033 0.0
C1192 C 0.72348 0.18308 0.40082 0.0
C1193 C 0.71311 0.20002 0.40295 0.0
C1194 C 0.72227 0.2175 0.40363 0.0
H1195 H 0.77951 0.24122 0.43975 0.0
H1196 H 0.76049 0.22466 0.43573 0.0
H1197 H 0.78268 0.22168 0.42362 0.0
H1198 H 0.76777 0.20193 0.39917 0.0
H1199 H 0.75164 0.17108 0.39843 0.0
H1200 H 0.21374 0.56115 0.61419 0.0
H1201 H 0.20045 0.52935 0.61662 0.0
H1202 H 0.15704 0.55058 0.65419 0.0
H1203 H 0.16998 0.58263 0.65143 0.0
H1204 H 0.19803 0.50857 0.64826 0.0
H1205 H 0.12615 0.51854 0.61808 0.0
H1206 H 0.14462 0.53593 0.61527 0.0
H1207 H 0.13129 0.53483 0.63702 0.0
C1208 C 0.20124 0.55912 0.62283 0.0
C1209 C 0.19293 0.57441 0.63266 0.0
C1210 C 0.19364 0.54093 0.62416 0.0
C1211 C 0.1776 0.53762 0.63536 0.0
C1212 C 0.16913 0.55288 0.64506 0.0
H1213 H 0.12677 0.44042 0.68577 0.0
H1214 H 0.13504 0.4719 0.674 0.0
C1215 C 0.17664 0.57117 0.6436 0.0
C1216 C 0.17076 0.51794 0.63808 0.0
H1217 H 0.13163 0.48974 0.63545 0.0
C1218 C 0.18358 0.5044 0.6452 0.0
C1219 C 0.15189 0.51254 0.6341 0.0
C1220 C 0.13774 0.52618 0.62552 0.0
C1221 C 0.17791 0.48575 0.64901 0.0
C1222 C 0.15896 0.48047 0.64544 0.0
C1223 C 0.14617 0.49388 0.63807 0.0
C1224 C 0.152 0.46144 0.65065 0.0
C1225 C 0.19204 0.47197 0.65745 0.0
C1226 C 0.15836 0.44518 0.64101 0.0
C1227 C 0.15363 0.4271 0.64766 0.0
C1228 C 0.14256 0.42509 0.66413 0.0
C1229 C 0.13546 0.44148 0.67314 0.0
C1230 C 0.14009 0.45948 0.66641 0.0
H1231 H 0.20529 0.4791 0.66201 0.0
H1232 H 0.18585 0.46459 0.66991 0.0
H1233 H 0.19573 0.46104 0.64668 0.0
H1234 H 0.16748 0.44648 0.62872 0.0
H1235 H 0.15928 0.41476 0.64041 0.0
H1236 H 0.42195 0.65774 0.15319 0.0
H1237 H 0.4545 0.64984 0.16132 0.0
H1238 H 0.47189 0.70644 0.14617 0.0
H1239 H 0.43898 0.71469 0.13822 0.0
H1240 H 0.48628 0.64985 0.1392 0.0
H1241 H 0.49378 0.69993 0.19984 0.0
H1242 H 0.47114 0.69433 0.18934 0.0
H1243 H 0.48676 0.71069 0.17774 0.0
C1244 C 0.43262 0.6686 0.15154 0.0
C1245 C 0.42779 0.68692 0.14511 0.0
C1246 C 0.45128 0.664 0.15621 0.0
C1247 C 0.4656 0.67759 0.15462 0.0
C1248 C 0.46099 0.69583 0.14786 0.0
H1249 H 0.5858 0.65281 0.15637 0.0
H1250 H 0.5533 0.66067 0.14772 0.0
C1251 C 0.44221 0.70048 0.14318 0.0
C1252 C 0.4853 0.67235 0.15994 0.0
H1253 H 0.52111 0.68246 0.19104 0.0
C1254 C 0.49391 0.657 0.15051 0.0
C1255 C 0.4951 0.68147 0.17493 0.0
C1256 C 0.48621 0.69741 0.1862 0.0
C1257 C 0.51209 0.65062 0.15555 0.0
C1258 C 0.5221 0.66006 0.17021 0.0
C1259 C 0.51344 0.6753 0.17976 0.0
C1260 C 0.54173 0.65461 0.17551 0.0
C1261 C 0.52028 0.6336 0.14537 0.0
C1262 C 0.54613 0.64879 0.19413 0.0
C1263 C 0.56482 0.64432 0.1992 0.0
C1264 C 0.57946 0.64575 0.18576 0.0
C1265 C 0.57491 0.65142 0.16709 0.0
C1266 C 0.55628 0.65587 0.16206 0.0
H1267 H 0.50905 0.62488 0.13862 0.0
H1268 H 0.52992 0.63852 0.13399 0.0
H1269 H 0.52852 0.62447 0.15529 0.0
H1270 H 0.5351 0.6478 0.20475 0.0
H1271 H 0.56784 0.64012 0.21372 0.0
H1272 H 0.31097 0.9453 0.63056 0.0
H1273 H 0.32308 0.9768 0.63816 0.0
H1274 H 0.36304 0.95199 0.67753 0.0
H1275 H 0.35125 0.9203 0.66972 0.0
H1276 H 0.32199 0.99368 0.67286 0.0
H1277 H 0.39631 0.98844 0.64812 0.0
H1278 H 0.37846 0.97145 0.64133 0.0
H1279 H 0.38969 0.96991 0.66428 0.0
C1280 C 0.3225 0.94648 0.64067 0.0
C1281 C 0.33014 0.93026 0.64955 0.0
C1282 C 0.3294 0.96452 0.64499 0.0
C1283 C 0.3441 0.96675 0.65824 0.0
C1284 C 0.35197 0.95058 0.66694 0.0
H1285 H 0.39173 0.06267 0.71769 0.0
H1286 H 0.38373 0.03131 0.7052 0.0
C1287 C 0.34514 0.93248 0.66254 0.0
C1288 C 0.35016 0.98608 0.66392 0.0
H1289 H 0.38841 0.01541 0.6671 0.0
C1290 C 0.33648 0.99849 0.67144 0.0
C1291 C 0.36908 0.99229 0.66211 0.0
C1292 C 0.38421 0.9799 0.65336 0.0
C1293 C 0.34127 0.01681 0.67754 0.0
C1294 C 0.3602 0.02296 0.67587 0.0
C1295 C 0.3739 0.01061 0.66832 0.0
C1296 C 0.36605 0.04203 0.68242 0.0
C1297 C 0.32613 0.02928 0.68618 0.0
C1298 C 0.35908 0.05843 0.67346 0.0
C1299 C 0.36362 0.0764 0.68053 0.0
C1300 C 0.37523 0.07826 0.69671 0.0
C1301 C 0.38267 0.06176 0.70527 0.0
C1302 C 0.37816 0.04382 0.69814 0.0
H1303 H 0.31329 0.0211 0.69001 0.0
H1304 H 0.33153 0.03652 0.69914 0.0
H1305 H 0.32194 0.04037 0.67576 0.0
H1306 H 0.34989 0.0573 0.66115 0.0
H1307 H 0.35772 0.0888 0.67356 0.0
H1308 H 0.05465 0.77768 0.1246 0.0
H1309 H 0.02136 0.78598 0.1307 0.0
H1310 H 0.03688 0.84468 0.1378 0.0
H1311 H 0.0699 0.83662 0.13179 0.0
H1312 H 0.00745 0.80392 0.16475 0.0
H1313 H 0.99148 0.8468 0.10053 0.0
H1314 H 0.01116 0.83035 0.10173 0.0
H1315 H 0.01299 0.85348 0.11239 0.0
C1316 C 0.05091 0.79237 0.12723 0.0
C1317 C 0.06494 0.80647 0.12772 0.0
C1318 C 0.03191 0.79708 0.13074 0.0
C1319 C 0.02663 0.81598 0.13445 0.0
C1320 C 0.04058 0.83007 0.13463 0.0
H1321 H 0.93621 0.86808 0.19645 0.0
H1322 H 0.96596 0.85569 0.18372 0.0
C1323 C 0.05949 0.82538 0.13131 0.0
C1324 C 0.00684 0.82105 0.13941 0.0
H1325 H 0.97028 0.85045 0.12685 0.0
C1326 C 0.99921 0.81389 0.15634 0.0
C1327 C 0.99606 0.83396 0.12835 0.0
C1328 C 1.00324 0.84148 0.10964 0.0
C1329 C 0.98143 0.81995 0.16294 0.0
C1330 C 0.9711 0.83363 0.1524 0.0
C1331 C 0.97833 0.84014 0.13502 0.0
C1332 C 0.95306 0.84176 0.15954 0.0
C1333 C 0.9739 0.81183 0.18126 0.0
C1334 C 0.936 0.83853 0.14984 0.0
C1335 C 0.91891 0.84561 0.15708 0.0
C1336 C 0.91862 0.85623 0.17406 0.0
C1337 C 0.93587 0.85995 0.18337 0.0
C1338 C 0.9529 0.85277 0.17618 0.0
H1339 H 0.98114 0.79832 0.1851 0.0
H1340 H 0.97631 0.82214 0.19295 0.0
H1341 H 0.95845 0.80922 0.1802 0.0
H1342 H 0.93586 0.83018 0.13689 0.0
H1343 H 0.90591 0.84252 0.14952 0.0
H1344 H 0.15689 0.93041 0.88483 0.0
H1345 H 0.14795 0.96351 0.87935 0.0
H1346 H 0.20363 0.97473 0.85705 0.0
H1347 H 0.21293 0.94174 0.86341 0.0
H1348 H 0.19133 1.00418 0.87699 0.0
H1349 H 0.13452 0.98209 0.82743 0.0
H1350 H 0.13121 0.9726 0.85082 0.0
H1351 H 0.15153 0.96553 0.83704 0.0
C1352 C 0.1673 0.94002 0.879 0.0
C1353 C 0.18554 0.93351 0.87436 0.0
C1354 C 0.16213 0.95888 0.87571 0.0
C1355 C 0.1749 0.97145 0.86718 0.0
C1356 C 0.19347 0.96523 0.86347 0.0
H1357 H 0.14297 0.0721 0.80437 0.0
H1358 H 0.15144 0.04023 0.81511 0.0
C1359 C 0.19879 0.94642 0.86715 0.0
C1360 C 0.16868 0.99082 0.86152 0.0
H1361 H 0.13513 0.01473 0.83584 0.0
C1362 C 0.17908 1.0065 0.86795 0.0
C1363 C 0.1529 0.99383 0.84939 0.0
C1364 C 0.14203 0.97761 0.8406 0.0
C1365 C 0.17406 0.02511 0.86272 0.0
C1366 C 0.15776 0.02816 0.85131 0.0
C1367 C 0.14744 0.01244 0.84481 0.0
C1368 C 0.15167 0.04741 0.84509 0.0
C1369 C 0.18668 0.04119 0.86897 0.0
C1370 C 0.1484 0.06197 0.85836 0.0
C1371 C 0.14384 0.08032 0.85221 0.0
C1372 C 0.14198 0.0843 0.8327 0.0
C1373 C 0.14423 0.06947 0.81951 0.0
C1374 C 0.14913 0.05124 0.82564 0.0
H1375 H 0.20117 0.03609 0.87253 0.0
H1376 H 0.1878 0.05221 0.85774 0.0
H1377 H 0.18068 0.04787 0.88194 0.0
H1378 H 0.14962 0.05923 0.87347 0.0
H1379 H 0.14203 0.09143 0.86272 0.0
H1380 H 0.94318 0.63532 0.30833 0.0
H1381 H 0.97614 0.64199 0.31703 0.0
H1382 H 0.95958 0.64948 0.37556 0.0
H1383 H 0.9268 0.64277 0.36709 0.0
H1384 H 0.9885 0.6763 0.33359 0.0
H1385 H 0.0064 0.61483 0.37959 0.0
H1386 H 0.98657 0.61474 0.36331 0.0
H1387 H 0.98466 0.62653 0.38592 0.0
C1388 C 0.94662 0.63803 0.3231 0.0
C1389 C 0.93234 0.63851 0.337 0.0
C1390 C 0.96545 0.64189 0.32804 0.0
C1391 C 0.97034 0.64605 0.34697 0.0
C1392 C 0.9562 0.64599 0.36093 0.0
H1393 H 0.06423 0.71152 0.39097 0.0
H1394 H 0.03321 0.69879 0.38223 0.0
C1395 C 0.93742 0.64224 0.35602 0.0
C1396 C 0.98987 0.65192 0.35201 0.0
H1397 H 0.02723 0.64142 0.3812 0.0
C1398 C 0.99704 0.66859 0.34388 0.0
C1399 C 1.00103 0.64179 0.36535 0.0
C1400 C 0.99438 0.62338 0.37394 0.0
C1401 C 0.01485 0.67568 0.34912 0.0
C1402 C 0.02568 0.66596 0.36302 0.0
C1403 C 0.01878 0.64899 0.37074 0.0
C1404 C 0.04435 0.67311 0.36947 0.0
C1405 C 0.02198 0.69349 0.33966 0.0
C1406 C 0.06083 0.66259 0.3658 0.0
C1407 C 0.07857 0.66979 0.37081 0.0
C1408 C 0.08017 0.68761 0.37975 0.0
C1409 C 0.06354 0.69778 0.38407 0.0
C1410 C 0.0458 0.69059 0.37898 0.0
H1411 H 0.01412 0.69668 0.32632 0.0
H1412 H 0.0201 0.70568 0.34949 0.0
H1413 H 0.03729 0.6922 0.33631 0.0
H1414 H 0.06001 0.64902 0.35858 0.0
H1415 H 0.09106 0.66154 0.36731 0.0
H1416 H 0.27946 0.56087 0.89703 0.0
H1417 H 0.28666 0.52682 0.89992 0.0
H1418 H 0.34437 0.53745 0.8834 0.0
H1419 H 0.3375 0.57117 0.8808 0.0
H1420 H 0.29916 0.50231 0.87238 0.0
H1421 H 0.35204 0.50507 0.93023 0.0
H1422 H 0.33643 0.52476 0.92493 0.0
H1423 H 0.35792 0.52133 0.91158 0.0
C1424 C 0.29371 0.55593 0.89417 0.0
C1425 C 0.30792 0.56877 0.88878 0.0
C1426 C 0.2978 0.5365 0.89586 0.0
C1427 C 0.31617 0.52966 0.89234 0.0
C1428 C 0.33026 0.54245 0.88679 0.0
H1429 H 0.37753 0.43678 0.85496 0.0
H1430 H 0.36456 0.4664 0.86756 0.0
C1431 C 0.32623 0.56176 0.88512 0.0
C1432 C 0.32062 0.50906 0.89308 0.0
H1433 H 0.35421 0.47781 0.90903 0.0
C1434 C 0.31085 0.4968 0.88079 0.0
C1435 C 0.33582 0.50186 0.90414 0.0
C1436 C 0.346 0.51393 0.91861 0.0
C1437 C 0.31682 0.47793 0.87817 0.0
C1438 C 0.33289 0.47121 0.88817 0.0
C1439 C 0.34193 0.48307 0.90134 0.0
C1440 C 0.34194 0.45293 0.88312 0.0
C1441 C 0.30674 0.46564 0.86381 0.0
C1442 C 0.33386 0.43553 0.88828 0.0
C1443 C 0.34138 0.41848 0.88123 0.0
C1444 C 0.35692 0.41871 0.86876 0.0
C1445 C 0.3655 0.43614 0.86446 0.0
C1446 C 0.35813 0.45308 0.87166 0.0
H1447 H 0.29497 0.4733 0.85658 0.0
H1448 H 0.31691 0.46058 0.85288 0.0
H1449 H 0.30089 0.45296 0.87102 0.0
H1450 H 0.32137 0.43519 0.89717 0.0
H1451 H 0.33441 0.40526 0.88468 0.0
H1452 H 0.43313 0.81145 0.38439 0.0
H1453 H 0.4658 0.82098 0.37861 0.0
H1454 H 0.44616 0.86589 0.34174 0.0
H1455 H 0.41337 0.85671 0.34778 0.0
H1456 H 0.48478 0.82146 0.34526 0.0
H1457 H 0.48288 0.89409 0.37563 0.0
H1458 H 0.46437 0.87703 0.3798 0.0
H1459 H 0.46501 0.89019 0.35788 0.0
C1460 C 0.43572 0.82346 0.37516 0.0
C1461 C 0.4206 0.83336 0.36659 0.0
C1462 C 0.45443 0.82889 0.37188 0.0
C1463 C 0.45845 0.84434 0.35998 0.0
C1464 C 0.4434 0.85423 0.35135 0.0
H1465 H 0.55925 0.89031 0.30909 0.0
H1466 H 0.52712 0.88293 0.31943 0.0
C1467 C 0.42466 0.84887 0.35472 0.0
C1468 C 0.47841 0.84945 0.35589 0.0
H1469 H 0.51004 0.886 0.35715 0.0
C1470 C 0.49034 0.83552 0.34802 0.0
C1471 C 0.48567 0.86781 0.35951 0.0
C1472 C 0.47388 0.88309 0.36884 0.0
C1473 C 0.50918 0.83957 0.34326 0.0
C1474 C 0.51633 0.85798 0.34662 0.0
C1475 C 0.50448 0.87189 0.3546 0.0
C1476 C 0.53592 0.8632 0.34131 0.0
C1477 C 0.52116 0.82427 0.33418 0.0
C1478 C 0.55153 0.85484 0.3505 0.0
C1479 C 0.56996 0.85907 0.34467 0.0
C1480 C 0.57308 0.87172 0.32952 0.0
C1481 C 0.55738 0.88045 0.32074 0.0
C1482 C 0.53899 0.87628 0.32664 0.0
H1483 H 0.51252 0.81209 0.3292 0.0
H1484 H 0.52914 0.83004 0.3219 0.0
H1485 H 0.53158 0.8189 0.34474 0.0
H1486 H 0.54943 0.84488 0.36203 0.0
H1487 H 0.58172 0.85213 0.35177 0.0
H1488 H 0.62924 0.18263 0.57609 0.0
H1489 H 0.63076 0.17295 0.54285 0.0
H1490 H 0.60123 0.22407 0.52631 0.0
H1491 H 0.59998 0.23414 0.55971 0.0
H1492 H 0.60315 0.1661 0.51608 0.0
H1493 H 0.64871 0.22627 0.49374 0.0
H1494 H 0.64444 0.22079 0.51841 0.0
H1495 H 0.62664 0.23283 0.5046 0.0
C1496 C 0.62299 0.19185 0.56545 0.0
C1497 C 0.61461 0.20927 0.57061 0.0
C1498 C 0.62384 0.18624 0.5464 0.0
C1499 C 0.61638 0.19789 0.53202 0.0
C1500 C 0.60744 0.21502 0.53712 0.0
H1501 H 0.63241 0.17964 0.40891 0.0
H1502 H 0.61832 0.19094 0.43879 0.0
C1503 C 0.60663 0.2207 0.55623 0.0
C1504 C 0.6185 0.19209 0.51177 0.0
H1505 H 0.64071 0.20388 0.47031 0.0
C1506 C 0.6112 0.17446 0.50602 0.0
C1507 C 0.62899 0.203 0.4986 0.0
C1508 C 0.6378 0.22171 0.5041 0.0
C1509 C 0.61452 0.16725 0.48768 0.0
C1510 C 0.62556 0.17785 0.47478 0.0
C1511 C 0.63218 0.19582 0.48021 0.0
C1512 C 0.63209 0.16978 0.45638 0.0
C1513 C 0.60644 0.14819 0.48233 0.0
C1514 C 0.64432 0.15404 0.45634 0.0
C1515 C 0.65244 0.14765 0.43939 0.0
C1516 C 0.64848 0.15684 0.42206 0.0
C1517 C 0.63561 0.17215 0.42199 0.0
C1518 C 0.62762 0.17867 0.43905 0.0
H1519 H 0.59405 0.14455 0.4913 0.0
H1520 H 0.60207 0.14791 0.46715 0.0
H1521 H 0.61741 0.13707 0.48451 0.0
H1522 H 0.64823 0.14715 0.46957 0.0
H1523 H 0.66231 0.13585 0.43998 0.0
H1524 H 0.85913 0.13771 0.0938 0.0
H1525 H 0.87201 0.14158 0.06161 0.0
H1526 H 0.81526 0.14688 0.03927 0.0
H1527 H 0.80247 0.14195 0.07098 0.0
H1528 H 0.83447 0.12568 0.01682 0.0
H1529 H 0.87805 0.18916 0.03241 0.0
H1530 H 0.88471 0.16874 0.04614 0.0
H1531 H 0.86177 0.17948 0.04948 0.0
C1532 C 0.84948 0.13972 0.08197 0.0
C1533 C 0.82981 0.13953 0.0849 0.0
C1534 C 0.85683 0.14207 0.06359 0.0
C1535 C 0.84464 0.14488 0.04794 0.0
C1536 C 0.82501 0.14469 0.051 0.0
H1537 H 0.86601 0.20001 0.94191 0.0
H1538 H 0.85934 0.19019 0.97442 0.0
C1539 C 0.8177 0.14191 0.06919 0.0
C1540 C 0.85196 0.14791 0.02829 0.0
H1541 H 0.8799 0.17672 1.00133 0.0
C1542 C 0.84442 0.13685 0.01344 0.0
C1543 C 0.86488 0.16254 0.0238 0.0
C1544 C 0.87269 0.17578 0.03875 0.0
C1545 C 0.84882 0.14044 0.9943 0.0
C1546 C 0.86187 0.15495 0.98981 0.0
C1547 C 0.86995 0.16554 1.00471 0.0
C1548 C 0.86619 0.16053 0.96982 0.0
C1549 C 0.83859 0.12926 0.97912 0.0
C1550 C 0.87236 0.1472 0.95623 0.0
C1551 C 0.87571 0.15274 0.93737 0.0
C1552 C 0.87355 0.17183 0.93194 0.0
C1553 C 0.86788 0.1852 0.94566 0.0
C1554 C 0.8641 0.17959 0.96431 0.0
H1555 H 0.82542 0.12273 0.98466 0.0
H1556 H 0.83479 0.13839 0.9668 0.0
H1557 H 0.84791 0.11761 0.97403 0.0
H1558 H 0.87466 0.13252 0.96017 0.0
H1559 H 0.8803 0.14218 0.92714 0.0
H1560 H 0.89738 0.33494 0.58324 0.0
H1561 H 0.89366 0.34738 0.55097 0.0
H1562 H 0.88299 0.29075 0.53021 0.0
H1563 H 0.8879 0.27813 0.56235 0.0
H1564 H 0.90197 0.30939 0.50462 0.0
H1565 H 0.84309 0.35576 0.52828 0.0
H1566 H 0.86479 0.36137 0.54019 0.0
H1567 H 0.85395 0.33853 0.5438 0.0
C1568 C 0.89449 0.32513 0.57173 0.0
C1569 C 0.89275 0.3056 0.57531 0.0
C1570 C 0.89218 0.33227 0.5533 0.0
C1571 C 0.88736 0.32013 0.53819 0.0
C1572 C 0.88653 0.30047 0.54161 0.0
H1573 H 0.82498 0.35527 0.4391 0.0
H1574 H 0.83666 0.34349 0.46947 0.0
C1575 C 0.88934 0.29325 0.55998 0.0
C1576 C 0.88242 0.32794 0.51908 0.0
H1577 H 0.8536 0.35998 0.49668 0.0
C1578 C 0.89135 0.32042 0.50287 0.0
C1579 C 0.86832 0.34214 0.51669 0.0
C1580 C 0.85685 0.34976 0.53314 0.0
C1581 C 0.88653 0.32658 0.48442 0.0
C1582 C 0.87288 0.34122 0.48211 0.0
C1583 C 0.86417 0.34888 0.49836 0.0
C1584 C 0.86628 0.34798 0.46308 0.0
C1585 C 0.89557 0.31676 0.46763 0.0
C1586 C 0.87897 0.3545 0.44914 0.0
C1587 C 0.87227 0.3609 0.43143 0.0
C1588 C 0.85274 0.36145 0.42759 0.0
C1589 C 0.84011 0.35523 0.44166 0.0
C1590 C 0.84679 0.34845 0.45908 0.0
H1591 H 0.90127 0.30256 0.47157 0.0
H1592 H 0.88531 0.31495 0.45579 0.0
H1593 H 0.90757 0.32544 0.46246 0.0
H1594 H 0.89402 0.35484 0.45199 0.0
H1595 H 0.88232 0.36572 0.4209 0.0
H1596 H 0.67326 0.38935 0.90864 0.0
H1597 H 0.6865 0.39933 0.93944 0.0
H1598 H 0.66257 0.34989 0.96606 0.0
H1599 H 0.64934 0.33985 0.93566 0.0
H1600 H 0.66753 0.40534 0.97669 0.0
H1601 H 0.72079 0.34719 0.97747 0.0
H1602 H 0.70884 0.35478 0.95601 0.0
H1603 H 0.69702 0.33957 0.97265 0.0
C1604 C 0.67066 0.38072 0.9211 0.0
C1605 C 0.66034 0.36373 0.91962 0.0
C1606 C 0.67826 0.38642 0.93866 0.0
C1607 C 0.67578 0.37516 0.95493 0.0
C1608 C 0.66491 0.35861 0.95361 0.0
H1609 H 0.68484 0.38844 0.07499 0.0
H1610 H 0.67551 0.38698 0.04161 0.0
C1611 C 0.65729 0.35296 0.93618 0.0
C1612 C 0.68472 0.38026 0.97334 0.0
H1613 H 0.71559 0.36337 1.00683 0.0
C1614 C 0.67822 0.39633 0.9832 0.0
C1615 C 0.69884 0.36863 0.98169 0.0
C1616 C 0.70695 0.35166 0.97137 0.0
C1617 C 0.68482 0.40054 1.00162 0.0
C1618 C 0.69812 0.38824 0.01042 0.0
C1619 C 0.70529 0.37272 1.00015 0.0
C1620 C 0.70387 0.39046 0.03066 0.0
C1621 C 0.67735 0.418 0.01158 0.0
C1622 C 0.723 0.3926 0.03568 0.0
C1623 C 0.72844 0.39338 0.05486 0.0
C1624 C 0.71485 0.39179 0.06937 0.0
C1625 C 0.6957 0.38976 0.06423 0.0
C1626 C 0.69029 0.38907 0.04511 0.0
H1627 H 0.67203 0.4287 1.00124 0.0
H1628 H 0.66539 0.41392 0.02089 0.0
H1629 H 0.68845 0.42463 0.02058 0.0
H1630 H 0.73373 0.39352 0.02475 0.0
H1631 H 0.7433 0.39489 0.0583 0.0
H1632 H 0.8537 0.58238 0.33093 0.0
H1633 H 0.84521 0.55029 0.34019 0.0
H1634 H 0.85492 0.56452 0.39914 0.0
H1635 H 0.86254 0.59727 0.38987 0.0
H1636 H 0.86558 0.52432 0.35511 0.0
H1637 H 0.80586 0.53764 0.40438 0.0
H1638 H 0.81576 0.55609 0.38974 0.0
H1639 H 0.82729 0.54918 0.41155 0.0
C1640 C 0.85391 0.57876 0.34591 0.0
C1641 C 0.85885 0.59236 0.35967 0.0
C1642 C 0.84903 0.56035 0.3512 0.0
C1643 C 0.84923 0.55486 0.3704 0.0
C1644 C 0.85416 0.56843 0.38427 0.0
H1645 H 0.85369 0.43246 0.39283 0.0
H1646 H 0.86116 0.46627 0.39115 0.0
C1647 C 0.85867 0.58712 0.37897 0.0
C1648 C 0.84518 0.53465 0.37539 0.0
H1649 H 0.81705 0.50585 0.40231 0.0
C1650 C 0.85493 0.52034 0.36543 0.0
C1651 C 0.83114 0.52932 0.3887 0.0
C1652 C 0.81927 0.54385 0.39907 0.0
C1653 C 0.85087 0.50103 0.36806 0.0
C1654 C 0.83727 0.49564 0.3818 0.0
C1655 C 0.82762 0.50991 0.39194 0.0
C1656 C 0.8324 0.47531 0.38522 0.0
C1657 C 0.86069 0.48673 0.3554 0.0
C1658 C 0.81355 0.46913 0.38379 0.0
C1659 C 0.80916 0.44979 0.38536 0.0
C1660 C 0.82358 0.43625 0.38814 0.0
C1661 C 0.84231 0.44253 0.39038 0.0
C1662 C 0.84661 0.46187 0.38926 0.0
H1663 H 0.86584 0.49337 0.34206 0.0
H1664 H 0.87317 0.48081 0.36299 0.0
H1665 H 0.85112 0.47487 0.35154 0.0
H1666 H 0.80227 0.47918 0.38083 0.0
H1667 H 0.7946 0.44538 0.3836 0.0
H1668 H 0.42364 0.35645 0.86087 0.0
H1669 H 0.45649 0.34977 0.8696 0.0
H1670 H 0.47565 0.38876 0.82662 0.0
H1671 H 0.4427 0.39548 0.81759 0.0
H1672 H 0.48637 0.33621 0.84183 0.0
H1673 H 0.50287 0.40405 0.87887 0.0
H1674 H 0.47894 0.39549 0.87615 0.0
H1675 H 0.49107 0.40546 0.85616 0.0
C1676 C 0.43479 0.36374 0.85331 0.0
C1677 C 0.43049 0.37656 0.83853 0.0
C1678 C 0.45357 0.35986 0.85832 0.0
C1679 C 0.46846 0.36885 0.84885 0.0
C1680 C 0.46431 0.3818 0.83422 0.0
H1681 H 0.59041 0.36603 0.8594 0.0
H1682 H 0.55732 0.37379 0.85313 0.0
C1683 C 0.44549 0.38558 0.82905 0.0
C1684 C 0.48834 0.36418 0.85393 0.0
H1685 H 0.52785 0.382 0.87541 0.0
C1686 C 0.49547 0.34617 0.84921 0.0
C1687 C 0.50012 0.37725 0.86348 0.0
C1688 C 0.49295 0.39665 0.86912 0.0
C1689 C 0.51425 0.34098 0.85347 0.0
C1690 C 0.52605 0.35397 0.86327 0.0
C1691 C 0.51882 0.37199 0.86802 0.0
C1692 C 0.54613 0.34945 0.86803 0.0
C1693 C 0.5214 0.32186 0.84686 0.0
C1694 C 0.55096 0.33339 0.87892 0.0
C1695 C 0.56998 0.32878 0.88241 0.0
C1696 C 0.58455 0.34032 0.87533 0.0
C1697 C 0.57961 0.35679 0.86509 0.0
C1698 C 0.56065 0.36127 0.86147 0.0
H1699 H 0.51254 0.31604 0.83517 0.0
H1700 H 0.53625 0.32274 0.84182 0.0
H1701 H 0.52089 0.31169 0.85889 0.0
H1702 H 0.54002 0.32432 0.88461 0.0
H1703 H 0.57327 0.31608 0.89047 0.0
H1704 H 0.65574 0.09521 0.35456 0.0
H1705 H 0.64609 0.06382 0.34365 0.0
H1706 H 0.68737 0.03786 0.38073 0.0
H1707 H 0.69735 0.06942 0.39175 0.0
H1708 H 0.67285 0.0347 0.32677 0.0
H1709 H 0.63414 0.01094 0.39137 0.0
H1710 H 0.63778 0.03576 0.3861 0.0
H1711 H 0.65713 0.02148 0.39446 0.0
C1712 C 0.66275 0.08288 0.36056 0.0
C1713 C 0.67734 0.0849 0.3741 0.0
C1714 C 0.6572 0.06492 0.35424 0.0
C1715 C 0.66592 0.04852 0.36143 0.0
C1716 C 0.68034 0.05036 0.37511 0.0
H1717 H 0.64425 0.92872 0.34022 0.0
H1718 H 0.65438 0.95928 0.35297 0.0
C1719 C 0.68605 0.0684 0.38136 0.0
C1720 C 0.66019 0.0296 0.35407 0.0
H1721 H 0.63568 0.98956 0.36564 0.0
C1722 C 0.66475 0.02478 0.33525 0.0
C1723 C 0.64971 0.0167 0.3652 0.0
C1724 C 0.64425 0.02138 0.3854 0.0
C1725 C 0.65924 0.00733 0.32728 0.0
C1726 C 0.64831 0.99454 0.33824 0.0
C1727 C 0.64392 0.99935 0.35716 0.0
C1728 C 0.64162 0.976 0.33049 0.0
C1729 C 0.66562 1.0026 0.30735 0.0
C1730 C 0.63068 0.97511 0.31376 0.0
C1731 C 0.62498 0.95756 0.30629 0.0
C1732 C 0.62981 0.94052 0.31558 0.0
C1733 C 0.64024 0.94152 0.33266 0.0
C1734 C 0.64608 0.95902 0.33999 0.0
H1735 H 0.67828 0.01093 0.30324 0.0
H1736 H 0.66904 0.98726 0.3059 0.0
H1737 H 0.6541 1.00615 0.29718 0.0
H1738 H 0.62656 0.98799 0.30642 0.0
H1739 H 0.61684 0.95734 0.29321 0.0
H1740 H 0.10466 0.17392 0.87484 0.0
H1741 H 0.07311 0.18425 0.88513 0.0
H1742 H 0.0485 0.15823 0.8354 0.0
H1743 H 0.07985 0.14799 0.82495 0.0
H1744 H 0.03597 0.1958 0.84214 0.0
H1745 H 0.03038 0.15077 0.90684 0.0
H1746 H 0.0512 0.16524 0.90516 0.0
H1747 H 0.04764 0.14629 0.88847 0.0
C1748 C 0.09252 0.17029 0.86615 0.0
C1749 C 0.09481 0.16006 0.84909 0.0
C1750 C 0.07449 0.17616 0.87209 0.0
C1751 C 0.05844 0.17187 0.86111 0.0
C1752 C 0.06069 0.16167 0.84411 0.0
H1753 H 0.93955 0.16924 0.88088 0.0
H1754 H 0.97333 0.16345 0.87671 0.0
C1755 C 0.07865 0.15578 0.83819 0.0
C1756 C 0.03925 0.17825 0.86698 0.0
H1757 H 1.00486 0.17151 0.90037 0.0
C1758 C 0.0292 0.19063 0.85495 0.0
C1759 C 0.03044 0.17137 0.88364 0.0
C1760 C 0.04035 0.15757 0.89675 0.0
C1761 C 0.01047 0.19607 0.85895 0.0
C1762 C 1.00162 0.18912 0.87556 0.0
C1763 C 0.01176 0.17697 0.88775 0.0
C1764 C 0.98131 0.19291 0.87957 0.0
C1765 C 1.00004 0.20859 0.84497 0.0
C1766 C 0.97458 0.2114 0.88299 0.0
C1767 C 0.95516 0.21481 0.8854 0.0
C1768 C 0.94216 0.19976 0.88442 0.0
C1769 C 0.9491 0.1812 0.88162 0.0
C1770 C 0.96844 0.17783 0.87928 0.0
H1771 H 0.00768 0.20984 0.83123 0.0
H1772 H 0.98565 0.20297 0.84212 0.0
H1773 H 0.99847 0.22304 0.85109 0.0
H1774 H 0.98432 0.22322 0.88354 0.0
H1775 H 0.95031 0.22925 0.88759 0.0
H1776 H 0.83443 0.0788 0.12969 0.0
H1777 H 0.84656 0.0476 0.13875 0.0
H1778 H 0.79073 0.03145 0.15731 0.0
H1779 H 0.77834 0.06241 0.14709 0.0
H1780 H 0.84992 0.03281 0.17121 0.0
H1781 H 0.804 0.9844 0.13009 0.0
H1782 H 0.80415 0.00964 0.12596 0.0
H1783 H 0.79038 0.9998 0.14509 0.0
C1784 C 0.82465 0.06844 0.13533 0.0
C1785 C 0.8054 0.073 0.13753 0.0
C1786 C 0.83163 0.05059 0.14061 0.0
C1787 C 0.81962 0.03689 0.14861 0.0
C1788 C 0.80028 0.0414 0.15068 0.0
H1789 H 0.86581 0.94511 0.21933 0.0
H1790 H 0.85321 0.97515 0.20724 0.0
C1791 C 0.79318 0.05917 0.14491 0.0
C1792 C 0.82776 0.01854 0.15576 0.0
H1793 H 0.82232 0.97032 0.15497 0.0
C1794 C 0.84393 0.01915 0.16748 0.0
C1795 C 0.82023 1.00057 0.15082 0.0
C1796 C 0.80387 0.99852 0.13714 0.0
C1797 C 0.85269 1.00253 0.17436 0.0
C1798 C 0.84461 0.98462 0.1702 0.0
C1799 C 0.82849 0.98397 0.1584 0.0
C1800 C 0.8527 0.96638 0.17768 0.0
C1801 C 0.87088 1.00447 0.18549 0.0
C1802 C 0.85615 0.95104 0.16531 0.0
C1803 C 0.86288 0.93364 0.17231 0.0
C1804 C 0.8666 0.93122 0.19183 0.0
C1805 C 0.86346 0.94662 0.20417 0.0
C1806 C 0.85631 0.96389 0.19722 0.0
H1807 H 0.87838 0.01778 0.18179 0.0
H1808 H 0.86759 1.00505 0.20091 0.0
H1809 H 0.88059 0.99232 0.18286 0.0
H1810 H 0.85349 0.95247 0.15019 0.0
H1811 H 0.86506 0.92203 0.16243 0.0
H1812 H 0.06643 0.3843 0.72488 0.0
H1813 H 0.03297 0.3778 0.71816 0.0
H1814 H 0.0468 0.36523 0.65978 0.0
H1815 H 0.08005 0.37178 0.66624 0.0
H1816 H 0.0134 0.388 0.66468 0.0
H1817 H 0.01389 0.32271 0.70935 0.0
H1818 H 0.02141 0.34434 0.72062 0.0
H1819 H 0.0354 0.3342 0.70188 0.0
C1820 C 0.06231 0.38034 0.71057 0.0
C1821 C 0.07595 0.3784 0.69614 0.0
C1822 C 0.04321 0.37656 0.70679 0.0
C1823 C 0.03747 0.37082 0.68853 0.0
C1824 C 0.05094 0.3696 0.67397 0.0
H1825 H 0.9479 0.30495 0.64282 0.0
H1826 H 0.97717 0.3193 0.65423 0.0
C1827 C 0.06997 0.37329 0.67773 0.0
C1828 C 0.01768 0.36514 0.68455 0.0
H1829 H 0.98588 0.32972 0.69266 0.0
C1830 C 0.00724 0.37541 0.67097 0.0
C1831 C 0.00983 0.34858 0.69264 0.0
C1832 C 0.02068 0.33668 0.70684 0.0
C1833 C 0.98928 0.36931 0.66494 0.0
C1834 C 0.98158 0.35259 0.67282 0.0
C1835 C 0.99183 0.34258 0.68673 0.0
C1836 C 0.96361 0.34436 0.66577 0.0
C1837 C 0.97903 0.38031 0.64962 0.0
C1838 C 0.94624 0.35371 0.66849 0.0
C1839 C 0.92939 0.34553 0.66196 0.0
C1840 C 0.92966 0.32784 0.65262 0.0
C1841 C 0.94714 0.31859 0.6499 0.0
C1842 C 0.9639 0.32675 0.65646 0.0
H1843 H 0.98827 0.39106 0.64282 0.0
H1844 H 0.97363 0.37055 0.63847 0.0
H1845 H 0.96671 0.38778 0.65595 0.0
H1846 H 0.94569 0.36722 0.67585 0.0
H1847 H 0.91618 0.35299 0.66436 0.0
H1848 H 0.71653 0.45167 0.12265 0.0
H1849 H 0.70589 0.48451 0.12685 0.0
H1850 H 0.65728 0.46504 0.15804 0.0
H1851 H 0.66776 0.43204 0.15384 0.0
H1852 H 0.66862 0.50154 0.11619 0.0
H1853 H 0.68492 0.50453 0.19361 0.0
H1854 H 0.6953 0.48697 0.17801 0.0
H1855 H 0.67118 0.48462 0.18555 0.0
C1856 C 0.70356 0.45432 0.13041 0.0
C1857 C 0.69305 0.43916 0.13799 0.0
C1858 C 0.69748 0.47312 0.13274 0.0
C1859 C 0.68088 0.47724 0.14287 0.0
C1860 C 0.67023 0.46219 0.15031 0.0
H1861 H 0.62937 0.58144 0.18345 0.0
H1862 H 0.63725 0.54867 0.17543 0.0
C1863 C 0.67622 0.44333 0.14785 0.0
C1864 C 0.67491 0.4973 0.14585 0.0
H1865 H 0.6702 0.5314 0.18009 0.0
C1866 C 0.66895 0.50812 0.13015 0.0
C1867 C 0.67537 0.50583 0.16405 0.0
C1868 C 0.68215 0.49501 0.18131 0.0
C1869 C 0.66305 0.52715 0.13223 0.0
C1870 C 0.66363 0.53576 0.15046 0.0
C1871 C 0.6697 0.52487 0.16612 0.0
C1872 C 0.65777 0.55588 0.15384 0.0
C1873 C 0.65578 0.53763 0.11497 0.0
C1874 C 0.66644 0.57104 0.1442 0.0
C1875 C 0.66174 0.58993 0.14862 0.0
C1876 C 0.64853 0.59404 0.163 0.0
C1877 C 0.63965 0.57883 0.17234 0.0
C1878 C 0.64418 0.56003 0.16778 0.0
H1879 H 0.65101 0.52768 0.10368 0.0
H1880 H 0.64382 0.54719 0.11871 0.0
H1881 H 0.66735 0.54638 0.10899 0.0
H1882 H 0.6773 0.5683 0.1337 0.0
H1883 H 0.669 0.6013 0.14132 0.0
H1884 H 0.43689 0.12031 0.68684 0.0
H1885 H 0.46764 0.12769 0.67294 0.0
H1886 H 0.4881 0.14519 0.72814 0.0
H1887 H 0.4577 0.13659 0.74225 0.0
H1888 H 0.48295 0.1595 0.66916 0.0
H1889 H 0.53313 0.11665 0.71162 0.0
H1890 H 0.5079 0.11321 0.71297 0.0
H1891 H 0.51919 0.13154 0.72683 0.0
C1892 C 0.44812 0.12534 0.69606 0.0
C1893 C 0.44499 0.12779 0.71562 0.0
C1894 C 0.46569 0.1296 0.6881 0.0
C1895 C 0.48041 0.13681 0.69946 0.0
C1896 C 0.47731 0.13908 0.7191 0.0
H1897 H 0.56618 0.21138 0.65469 0.0
H1898 H 0.53808 0.1967 0.6682 0.0
C1899 C 0.45986 0.13429 0.72716 0.0
C1900 C 0.49825 0.14351 0.69042 0.0
H1901 H 0.54647 0.14298 0.69446 0.0
C1902 C 0.49682 0.15563 0.67459 0.0
C1903 C 0.51647 0.13831 0.69717 0.0
C1904 C 0.51927 0.12404 0.71294 0.0
C1905 C 0.51292 0.163 0.66566 0.0
C1906 C 0.53107 0.15895 0.6733 0.0
C1907 C 0.53258 0.1464 0.68877 0.0
C1908 C 0.54855 0.16785 0.66564 0.0
C1909 C 0.51021 0.17478 0.64791 0.0
C1910 C 0.56429 0.15668 0.66055 0.0
C1911 C 0.58066 0.16514 0.6533 0.0
C1912 C 0.58149 0.18492 0.65078 0.0
C1913 C 0.56584 0.19607 0.65611 0.0
C1914 C 0.54969 0.18767 0.66373 0.0
H1915 H 0.49698 0.17084 0.64032 0.0
H1916 H 0.50897 0.18998 0.65192 0.0
H1917 H 0.52226 0.17308 0.63794 0.0
H1918 H 0.56385 0.14138 0.66202 0.0
H1919 H 0.59254 0.15619 0.64938 0.0
H1920 H 0.36277 0.85037 0.42675 0.0
H1921 H 0.35361 0.86296 0.45773 0.0
H1922 H 0.36177 0.80768 0.48282 0.0
H1923 H 0.37077 0.79481 0.4517 0.0
H1924 H 0.327 0.82403 0.49161 0.0
H1925 H 0.38504 0.87508 0.50495 0.0
H1926 H 0.37374 0.87809 0.48224 0.0
H1927 H 0.38665 0.8566 0.48721 0.0
C1928 C 0.36292 0.8409 0.43888 0.0
C1929 C 0.36753 0.82155 0.43671 0.0
C1930 C 0.35775 0.84818 0.45663 0.0
C1931 C 0.35719 0.83633 0.47264 0.0
C1932 C 0.36219 0.8171 0.47065 0.0
H1933 H 0.34049 0.86929 0.59006 0.0
H1934 H 0.35282 0.85878 0.55942 0.0
C1935 C 0.3674 0.80979 0.45287 0.0
C1936 C 0.35017 0.84376 0.49112 0.0
H1937 H 0.35801 0.87763 0.52503 0.0
C1938 C 0.33383 0.83569 0.49897 0.0
C1939 C 0.35915 0.85891 0.50076 0.0
C1940 C 0.37722 0.86758 0.49348 0.0
C1941 C 0.32607 0.84252 0.51606 0.0
C1942 C 0.33472 0.85804 0.52539 0.0
C1943 C 0.35123 0.86592 0.5177 0.0
C1944 C 0.32737 0.86565 0.54367 0.0
C1945 C 0.30888 0.83281 0.52415 0.0
C1946 C 0.30909 0.8735 0.54494 0.0
C1947 C 0.30194 0.87956 0.56252 0.0
C1948 C 0.31298 0.87791 0.57912 0.0
C1949 C 0.33154 0.8707 0.57761 0.0
C1950 C 0.33865 0.86468 0.56008 0.0
H1951 H 0.30669 0.81855 0.51775 0.0
H1952 H 0.31017 0.8312 0.53982 0.0
H1953 H 0.29613 0.84156 0.52112 0.0
H1954 H 0.30027 0.87472 0.53237 0.0
H1955 H 0.28763 0.8851 0.56316 0.0
H1956 H 0.11005 0.81744 0.06587 0.0
H1957 H 0.11531 0.82899 0.03361 0.0
H1958 H 0.15334 0.8716 0.05521 0.0
H1959 H 0.14813 0.86009 0.08779 0.0
H1960 H 0.11174 0.86763 0.01677 0.0
H1961 H 0.18474 0.83737 0.01705 0.0
H1962 H 0.16705 0.83019 0.03404 0.0
H1963 H 0.17832 0.85283 0.03641 0.0
C1964 C 0.11938 0.82942 0.06384 0.0
C1965 C 0.12882 0.83774 0.07938 0.0
C1966 C 0.1223 0.83604 0.04538 0.0
C1967 C 0.13484 0.85099 0.04204 0.0
C1968 C 0.1437 0.85993 0.05754 0.0
H1969 H 0.18437 0.8855 0.93457 0.0
H1970 H 0.17558 0.88284 0.96796 0.0
C1971 C 0.14065 0.8534 0.07612 0.0
C1972 C 0.13951 0.85616 0.02218 0.0
H1973 H 0.17414 0.85151 0.98876 0.0
C1974 C 0.12542 0.86429 0.01063 0.0
C1975 C 0.15734 0.85166 0.01426 0.0
C1976 C 0.17277 0.84242 0.02596 0.0
C1977 C 0.12872 0.8681 0.99129 0.0
C1978 C 0.14642 0.86316 0.98322 0.0
C1979 C 0.16057 0.85528 0.99492 0.0
C1980 C 0.15068 0.86585 0.9627 0.0
C1981 C 0.11331 0.87759 0.97979 0.0
C1982 C 0.13957 0.85722 0.94853 0.0
C1983 C 0.14448 0.85886 0.92929 0.0
C1984 C 0.16078 0.86887 0.92394 0.0
C1985 C 0.17177 0.87758 0.93818 0.0
C1986 C 0.16676 0.87611 0.95731 0.0
H1987 H 0.10332 0.88556 0.98904 0.0
H1988 H 0.11931 0.88753 0.96916 0.0
H1989 H 0.10511 0.86659 0.97209 0.0
H1990 H 0.12737 0.84882 0.95235 0.0
H1991 H 0.1358 0.85189 0.91868 0.0
H1992 H 0.18841 0.62847 0.57484 0.0
H1993 H 0.17817 0.63482 0.5423 0.0
H1994 H 0.23572 0.6291 0.52283 0.0
H1995 H 0.2462 0.62268 0.55559 0.0
H1996 H 0.21643 0.66277 0.5103 0.0
H1997 H 0.1739 0.59826 0.49643 0.0
H1998 H 0.16831 0.60989 0.51848 0.0
H1999 H 0.19136 0.59951 0.51521 0.0
C2000 C 0.19893 0.62837 0.56366 0.0
C2001 C 0.21816 0.62506 0.56786 0.0
C2002 C 0.193 0.63189 0.54502 0.0
C2003 C 0.20612 0.63219 0.53009 0.0
C2004 C 0.22533 0.62878 0.53414 0.0
H2005 H 0.17287 0.64828 0.41027 0.0
H2006 H 0.18724 0.6355 0.43944 0.0
C2007 C 0.23129 0.62509 0.55284 0.0
C2008 C 0.19977 0.63727 0.51057 0.0
H2009 H 0.16878 0.62455 0.4754 0.0
C2010 C 0.20621 0.65429 0.50256 0.0
C2011 C 0.18652 0.62613 0.50041 0.0
C2012 C 0.17972 0.60733 0.50796 0.0
C2013 C 0.19913 0.66088 0.48505 0.0
C2014 C 0.18517 0.65023 0.47536 0.0
C2015 C 0.17935 0.63278 0.48294 0.0
C2016 C 0.17592 0.65743 0.45778 0.0
C2017 C 0.20646 0.67933 0.47713 0.0
C2018 C 0.16444 0.67371 0.45851 0.0
C2019 C 0.15612 0.68095 0.44196 0.0
C2020 C 0.15912 0.67209 0.42426 0.0
C2021 C 0.17029 0.65549 0.42363 0.0
C2022 C 0.17852 0.64817 0.44028 0.0
H2023 H 0.22016 0.68339 0.48374 0.0
H2024 H 0.20835 0.67836 0.46148 0.0
H2025 H 0.19605 0.6908 0.48006 0.0
H2026 H 0.16202 0.68091 0.47192 0.0
H2027 H 0.14759 0.69373 0.44303 0.0
H2028 H 0.34418 0.63814 0.09514 0.0
H2029 H 0.34038 0.62998 0.06138 0.0
H2030 H 0.38517 0.66875 0.04691 0.0
H2031 H 0.38858 0.67733 0.08034 0.0
H2032 H 0.35489 0.67547 0.0259 0.0
H2033 H 0.36976 0.5982 0.02413 0.0
H2034 H 0.35164 0.60448 0.04084 0.0
H2035 H 0.37543 0.61278 0.04447 0.0
C2036 C 0.35348 0.64457 0.08477 0.0
C2037 C 0.36663 0.65842 0.09039 0.0
C2038 C 0.35135 0.63987 0.06547 0.0
C2039 C 0.3626 0.64864 0.05154 0.0
C2040 C 0.3763 0.66181 0.05732 0.0
H2041 H 0.36216 0.64846 0.9264 0.0
H2042 H 0.37166 0.65185 0.9599 0.0
C2043 C 0.37825 0.66668 0.07648 0.0
C2044 C 0.35908 0.64555 0.03085 0.0
H2045 H 0.35542 0.61156 0.99628 0.0
C2046 C 0.35523 0.6615 0.01942 0.0
C2047 C 0.35949 0.62733 0.02233 0.0
C2048 C 0.36449 0.60974 0.03353 0.0
C2049 C 0.3514 0.6597 0.99989 0.0
C2050 C 0.35149 0.64149 0.99148 0.0
C2051 C 0.35543 0.62552 1.00279 0.0
C2052 C 0.34643 0.63872 0.97116 0.0
C2053 C 0.34673 0.67725 0.98847 0.0
C2054 C 0.32928 0.63 0.96643 0.0
C2055 C 0.32378 0.62817 0.94742 0.0
C2056 C 0.33542 0.63486 0.93265 0.0
C2057 C 0.35285 0.64322 0.9374 0.0
C2058 C 0.35828 0.64519 0.95652 0.0
H2059 H 0.3444 0.68988 0.99766 0.0
H2060 H 0.35861 0.68035 0.97866 0.0
H2061 H 0.33386 0.67492 0.97969 0.0
H2062 H 0.31995 0.62492 0.9775 0.0
H2063 H 0.31033 0.62153 0.94432 0.0
loop_
_geom_bond_atom_site_label_1
_geom_bond_atom_site_label_2
_geom_bond_distance
_geom_bond_site_symmetry_2
_ccdc_geom_bond_type
C0 O2 1.247 . S
C0 O4 1.258 . S
C1 O8 1.247 . S
C1 O9 1.258 . S
O2 C0 1.247 . S
O2 Zn3 2.028 . S
Zn3 O2 2.028 . S
Zn3 O7 2.035 . S
Zn3 O9 2.035 . S
Zn3 O10 2.028 . S
O4 C0 1.258 . S
O4 Zn5 2.035 . S
Zn5 O4 2.035 . S
Zn5 O6 2.028 . S
Zn5 O8 2.028 . S
Zn5 O11 2.035 . S
O6 Zn5 2.028 . S
O6 C12 1.247 . S
O7 Zn3 2.035 . S
O7 C12 1.258 . S
O8 C1 1.247 . S
O8 Zn5 2.028 . S
O9 C1 1.258 . S
O9 Zn3 2.035 . S
O10 Zn3 2.028 . S
O10 C13 1.247 . S
O11 Zn5 2.035 . S
O11 C13 1.258 . S
C12 O6 1.247 . S
C12 O7 1.258 . S
C13 O10 1.247 . S
C13 O11 1.258 . S
C14 O16 1.247 . S
C14 O18 1.258 . S
C15 O22 1.247 . S
C15 O23 1.258 . S
O16 C14 1.247 . S
O16 Zn17 2.028 . S
Zn17 O16 2.028 . S
Zn17 O21 2.035 . S
Zn17 O23 2.035 . S
Zn17 O24 2.028 . S
O18 C14 1.258 . S
O18 Zn19 2.035 . S
Zn19 O18 2.035 . S
Zn19 O20 2.028 . S
Zn19 O22 2.028 . S
Zn19 O25 2.035 . S
O20 Zn19 2.028 . S
O20 C26 1.247 . S
O21 Zn17 2.035 . S
O21 C26 1.258 . S
O22 C15 1.247 . S
O22 Zn19 2.028 . S
O23 C15 1.258 . S
O23 Zn17 2.035 . S
O24 Zn17 2.028 . S
O24 C27 1.247 . S
O25 Zn19 2.035 . S
O25 C27 1.258 . S
C26 O20 1.247 . S
C26 O21 1.258 . S
C27 O24 1.247 . S
C27 O25 1.258 . S
C28 O30 1.247 . S
C28 O32 1.258 . S
C29 O36 1.247 . S
C29 O37 1.258 . S
O30 C28 1.247 . S
O30 Zn31 2.028 . S
Zn31 O30 2.028 . S
Zn31 O35 2.035 . S
Zn31 O37 2.035 . S
Zn31 O38 2.028 . S
O32 C28 1.258 . S
O32 Zn33 2.035 . S
Zn33 O32 2.035 . S
Zn33 O34 2.028 . S
Zn33 O36 2.028 . S
Zn33 O39 2.035 . S
O34 Zn33 2.028 . S
O34 C40 1.247 . S
O35 Zn31 2.035 . S
O35 C40 1.258 . S
O36 C29 1.247 . S
O36 Zn33 2.028 . S
O37 C29 1.258 . S
O37 Zn31 2.035 . S
O38 Zn31 2.028 . S
O38 C41 1.247 . S
O39 Zn33 2.035 . S
O39 C41 1.258 . S
C40 O34 1.247 . S
C40 O35 1.258 . S
C41 O38 1.247 . S
C41 O39 1.258 . S
C42 O44 1.247 . S
C42 O46 1.258 . S
C43 O50 1.247 . S
C43 O51 1.258 . S
O44 C42 1.247 . S
O44 Zn45 2.028 . S
Zn45 O44 2.028 . S
Zn45 O49 2.035 . S
Zn45 O51 2.035 . S
Zn45 O52 2.028 . S
O46 C42 1.258 . S
O46 Zn47 2.035 . S
Zn47 O46 2.035 . S
Zn47 O48 2.028 . S
Zn47 O50 2.028 . S
Zn47 O53 2.035 . S
O48 Zn47 2.028 . S
O48 C54 1.247 . S
O49 Zn45 2.035 . S
O49 C54 1.258 . S
O50 C43 1.247 . S
O50 Zn47 2.028 . S
O51 C43 1.258 . S
O51 Zn45 2.035 . S
O52 Zn45 2.028 . S
O52 C55 1.247 . S
O53 Zn47 2.035 . S
O53 C55 1.258 . S
C54 O48 1.247 . S
C54 O49 1.258 . S
C55 O52 1.247 . S
C55 O53 1.258 . S
C56 O58 1.247 . S
C56 O60 1.258 . S
C57 O64 1.247 . S
C57 O65 1.258 . S
O58 C56 1.247 . S
O58 Zn59 2.028 . S
Zn59 O58 2.028 . S
Zn59 O63 2.035 . S
Zn59 O65 2.035 . S
Zn59 O66 2.028 . S
O60 C56 1.258 . S
O60 Zn61 2.035 . S
Zn61 O60 2.035 . S
Zn61 O62 2.028 . S
Zn61 O64 2.028 . S
Zn61 O67 2.035 . S
O62 Zn61 2.028 . S
O62 C68 1.247 . S
O63 Zn59 2.035 . S
O63 C68 1.258 . S
O64 C57 1.247 . S
O64 Zn61 2.028 . S
O65 C57 1.258 . S
O65 Zn59 2.035 . S
O66 Zn59 2.028 . S
O66 C69 1.247 . S
O67 Zn61 2.035 . S
O67 C69 1.258 . S
C68 O62 1.247 . S
C68 O63 1.258 . S
C69 O66 1.247 . S
C69 O67 1.258 . S
C70 O72 1.247 . S
C70 O74 1.258 . S
C71 O78 1.247 . S
C71 O79 1.258 . S
O72 C70 1.247 . S
O72 Zn73 2.028 . S
Zn73 O72 2.028 . S
Zn73 O77 2.035 . S
Zn73 O79 2.035 . S
Zn73 O80 2.028 . S
O74 C70 1.258 . S
O74 Zn75 2.035 . S
Zn75 O74 2.035 . S
Zn75 O76 2.028 . S
Zn75 O78 2.028 . S
Zn75 O81 2.035 . S
O76 Zn75 2.028 . S
O76 C82 1.247 . S
O77 Zn73 2.035 . S
O77 C82 1.258 . S
O78 C71 1.247 . S
O78 Zn75 2.028 . S
O79 C71 1.258 . S
O79 Zn73 2.035 . S
O80 Zn73 2.028 . S
O80 C83 1.247 . S
O81 Zn75 2.035 . S
O81 C83 1.258 . S
C82 O76 1.247 . S
C82 O77 1.258 . S
C83 O80 1.247 . S
C83 O81 1.258 . S
C84 O86 1.247 . S
C84 O88 1.258 . S
C85 O92 1.247 . S
C85 O93 1.258 . S
O86 C84 1.247 . S
O86 Zn87 2.028 . S
Zn87 O86 2.028 . S
Zn87 O91 2.035 . S
Zn87 O93 2.035 . S
Zn87 O94 2.028 . S
O88 C84 1.258 . S
O88 Zn89 2.035 . S
Zn89 O88 2.035 . S
Zn89 O90 2.028 . S
Zn89 O92 2.028 . S
Zn89 O95 2.035 . S
O90 Zn89 2.028 . S
O90 C96 1.247 . S
O91 Zn87 2.035 . S
O91 C96 1.258 . S
O92 C85 1.247 . S
O92 Zn89 2.028 . S
O93 C85 1.258 . S
O93 Zn87 2.035 . S
O94 Zn87 2.028 . S
O94 C97 1.247 . S
O95 Zn89 2.035 . S
O95 C97 1.258 . S
C96 O90 1.247 . S
C96 O91 1.258 . S
C97 O94 1.247 . S
C97 O95 1.258 . S
C98 O100 1.247 . S
C98 O102 1.258 . S
C99 O106 1.247 . S
C99 O107 1.258 . S
O100 C98 1.247 . S
O100 Zn101 2.028 . S
Zn101 O100 2.028 . S
Zn101 O105 2.035 . S
Zn101 O107 2.035 . S
Zn101 O108 2.028 . S
O102 C98 1.258 . S
O102 Zn103 2.035 . S
Zn103 O102 2.035 . S
Zn103 O104 2.028 . S
Zn103 O106 2.028 . S
Zn103 O109 2.035 . S
O104 Zn103 2.028 . S
O104 C110 1.247 . S
O105 Zn101 2.035 . S
O105 C110 1.258 . S
O106 C99 1.247 . S
O106 Zn103 2.028 . S
O107 C99 1.258 . S
O107 Zn101 2.035 . S
O108 Zn101 2.028 . S
O108 C111 1.247 . S
O109 Zn103 2.035 . S
O109 C111 1.258 . S
C110 O104 1.247 . S
C110 O105 1.258 . S
C111 O108 1.247 . S
C111 O109 1.258 . S
C112 O114 1.247 . S
C112 O116 1.258 . S
C113 O120 1.247 . S
C113 O121 1.258 . S
O114 C112 1.247 . S
O114 Zn115 2.028 . S
Zn115 O114 2.028 . S
Zn115 O119 2.035 . S
Zn115 O121 2.035 . S
Zn115 O122 2.028 . S
O116 C112 1.258 . S
O116 Zn117 2.035 . S
Zn117 O116 2.035 . S
Zn117 O118 2.028 . S
Zn117 O120 2.028 . S
Zn117 O123 2.035 . S
O118 Zn117 2.028 . S
O118 C124 1.247 . S
O119 Zn115 2.035 . S
O119 C124 1.258 . S
O120 C113 1.247 . S
O120 Zn117 2.028 . S
O121 C113 1.258 . S
O121 Zn115 2.035 . S
O122 Zn115 2.028 . S
O122 C125 1.247 . S
O123 Zn117 2.035 . S
O123 C125 1.258 . S
C124 O118 1.247 . S
C124 O119 1.258 . S
C125 O122 1.247 . S
C125 O123 1.258 . S
C126 O128 1.247 . S
C126 O130 1.258 . S
C127 O134 1.247 . S
C127 O135 1.258 . S
O128 C126 1.247 . S
O128 Zn129 2.028 . S
Zn129 O128 2.028 . S
Zn129 O133 2.035 . S
Zn129 O135 2.035 . S
Zn129 O136 2.028 . S
O130 C126 1.258 . S
O130 Zn131 2.035 . S
Zn131 O130 2.035 . S
Zn131 O132 2.028 . S
Zn131 O134 2.028 . S
Zn131 O137 2.035 . S
O132 Zn131 2.028 . S
O132 C138 1.247 . S
O133 Zn129 2.035 . S
O133 C138 1.258 . S
O134 C127 1.247 . S
O134 Zn131 2.028 . S
O135 C127 1.258 . S
O135 Zn129 2.035 . S
O136 Zn129 2.028 . S
O136 C139 1.247 . S
O137 Zn131 2.035 . S
O137 C139 1.258 . S
C138 O132 1.247 . S
C138 O133 1.258 . S
C139 O136 1.247 . S
C139 O137 1.258 . S
C140 O142 1.247 . S
C140 O144 1.258 . S
C141 O148 1.247 . S
C141 O149 1.258 . S
O142 C140 1.247 . S
O142 Zn143 2.028 . S
Zn143 O142 2.028 . S
Zn143 O147 2.035 . S
Zn143 O149 2.035 . S
Zn143 O150 2.028 . S
O144 C140 1.258 . S
O144 Zn145 2.035 . S
Zn145 O144 2.035 . S
Zn145 O146 2.028 . S
Zn145 O148 2.028 . S
Zn145 O151 2.035 . S
O146 Zn145 2.028 . S
O146 C152 1.247 . S
O147 Zn143 2.035 . S
O147 C152 1.258 . S
O148 C141 1.247 . S
O148 Zn145 2.028 . S
O149 C141 1.258 . S
O149 Zn143 2.035 . S
O150 Zn143 2.028 . S
O150 C153 1.247 . S
O151 Zn145 2.035 . S
O151 C153 1.258 . S
C152 O146 1.247 . S
C152 O147 1.258 . S
C153 O150 1.247 . S
C153 O151 1.258 . S
C154 O156 1.247 . S
C154 O158 1.258 . S
C155 O162 1.247 . S
C155 O163 1.258 . S
O156 C154 1.247 . S
O156 Zn157 2.028 . S
Zn157 O156 2.028 . S
Zn157 O161 2.035 . S
Zn157 O163 2.035 . S
Zn157 O164 2.028 . S
O158 C154 1.258 . S
O158 Zn159 2.035 . S
Zn159 O158 2.035 . S
Zn159 O160 2.028 . S
Zn159 O162 2.028 . S
Zn159 O165 2.035 . S
O160 Zn159 2.028 . S
O160 C166 1.247 . S
O161 Zn157 2.035 . S
O161 C166 1.258 . S
O162 C155 1.247 . S
O162 Zn159 2.028 . S
O163 C155 1.258 . S
O163 Zn157 2.035 . S
O164 Zn157 2.028 . S
O164 C167 1.247 . S
O165 Zn159 2.035 . S
O165 C167 1.258 . S
C166 O160 1.247 . S
C166 O161 1.258 . S
C167 O164 1.247 . S
C167 O165 1.258 . S
C168 O170 1.247 . S
C168 O172 1.258 . S
C169 O176 1.247 . S
C169 O177 1.258 . S
O170 C168 1.247 . S
O170 Zn171 2.028 . S
Zn171 O170 2.028 . S
Zn171 O175 2.035 . S
Zn171 O177 2.035 . S
Zn171 O178 2.028 . S
O172 C168 1.258 . S
O172 Zn173 2.035 . S
Zn173 O172 2.035 . S
Zn173 O174 2.028 . S
Zn173 O176 2.028 . S
Zn173 O179 2.035 . S
O174 Zn173 2.028 . S
O174 C180 1.247 . S
O175 Zn171 2.035 . S
O175 C180 1.258 . S
O176 C169 1.247 . S
O176 Zn173 2.028 . S
O177 C169 1.258 . S
O177 Zn171 2.035 . S
O178 Zn171 2.028 . S
O178 C181 1.247 . S
O179 Zn173 2.035 . S
O179 C181 1.258 . S
C180 O174 1.247 . S
C180 O175 1.258 . S
C181 O178 1.247 . S
C181 O179 1.258 . S
C182 O184 1.247 . S
C182 O186 1.258 . S
C183 O190 1.247 . S
C183 O191 1.258 . S
O184 C182 1.247 . S
O184 Zn185 2.028 . S
Zn185 O184 2.028 . S
Zn185 O189 2.035 . S
Zn185 O191 2.035 . S
Zn185 O192 2.028 . S
O186 C182 1.258 . S
O186 Zn187 2.035 . S
Zn187 O186 2.035 . S
Zn187 O188 2.028 . S
Zn187 O190 2.028 . S
Zn187 O193 2.035 . S
O188 Zn187 2.028 . S
O188 C194 1.247 . S
O189 Zn185 2.035 . S
O189 C194 1.258 . S
O190 C183 1.247 . S
O190 Zn187 2.028 . S
O191 C183 1.258 . S
O191 Zn185 2.035 . S
O192 Zn185 2.028 . S
O192 C195 1.247 . S
O193 Zn187 2.035 . S
O193 C195 1.258 . S
C194 O188 1.247 . S
C194 O189 1.258 . S
C195 O192 1.247 . S
C195 O193 1.258 . S
C196 O198 1.247 . S
C196 O200 1.258 . S
C197 O204 1.247 . S
C197 O205 1.258 . S
O198 C196 1.247 . S
O198 Zn199 2.028 . S
Zn199 O198 2.028 . S
Zn199 O203 2.035 . S
Zn199 O205 2.035 . S
Zn199 O206 2.028 . S
O200 C196 1.258 . S
O200 Zn201 2.035 . S
Zn201 O200 2.035 . S
Zn201 O202 2.028 . S
Zn201 O204 2.028 . S
Zn201 O207 2.035 . S
O202 Zn201 2.028 . S
O202 C208 1.247 . S
O203 Zn199 2.035 . S
O203 C208 1.258 . S
O204 C197 1.247 . S
O204 Zn201 2.028 . S
O205 C197 1.258 . S
O205 Zn199 2.035 . S
O206 Zn199 2.028 . S
O206 C209 1.247 . S
O207 Zn201 2.035 . S
O207 C209 1.258 . S
C208 O202 1.247 . S
C208 O203 1.258 . S
C209 O206 1.247 . S
C209 O207 1.258 . S
C210 O212 1.247 . S
C210 O214 1.258 . S
C211 O218 1.247 . S
C211 O219 1.258 . S
O212 C210 1.247 . S
O212 Zn213 2.028 . S
Zn213 O212 2.028 . S
Zn213 O217 2.035 . S
Zn213 O219 2.035 . S
Zn213 O220 2.028 . S
O214 C210 1.258 . S
O214 Zn215 2.035 . S
Zn215 O214 2.035 . S
Zn215 O216 2.028 . S
Zn215 O218 2.028 . S
Zn215 O221 2.035 . S
O216 Zn215 2.028 . S
O216 C222 1.247 . S
O217 Zn213 2.035 . S
O217 C222 1.258 . S
O218 C211 1.247 . S
O218 Zn215 2.028 . S
O219 C211 1.258 . S
O219 Zn213 2.035 . S
O220 Zn213 2.028 . S
O220 C223 1.247 . S
O221 Zn215 2.035 . S
O221 C223 1.258 . S
C222 O216 1.247 . S
C222 O217 1.258 . S
C223 O220 1.247 . S
C223 O221 1.258 . S
C224 O226 1.247 . S
C224 O228 1.258 . S
C225 O232 1.247 . S
C225 O233 1.258 . S
O226 C224 1.247 . S
O226 Zn227 2.028 . S
Zn227 O226 2.028 . S
Zn227 O231 2.035 . S
Zn227 O233 2.035 . S
Zn227 O234 2.028 . S
O228 C224 1.258 . S
O228 Zn229 2.035 . S
Zn229 O228 2.035 . S
Zn229 O230 2.028 . S
Zn229 O232 2.028 . S
Zn229 O235 2.035 . S
O230 Zn229 2.028 . S
O230 C236 1.247 . S
O231 Zn227 2.035 . S
O231 C236 1.258 . S
O232 C225 1.247 . S
O232 Zn229 2.028 . S
O233 C225 1.258 . S
O233 Zn227 2.035 . S
O234 Zn227 2.028 . S
O234 C237 1.247 . S
O235 Zn229 2.035 . S
O235 C237 1.258 . S
C236 O230 1.247 . S
C236 O231 1.258 . S
C237 O234 1.247 . S
C237 O235 1.258 . S
C238 O240 1.247 . S
C238 O242 1.258 . S
C239 O246 1.247 . S
C239 O247 1.258 . S
O240 C238 1.247 . S
O240 Zn241 2.028 . S
Zn241 O240 2.028 . S
Zn241 O245 2.035 . S
Zn241 O247 2.035 . S
Zn241 O248 2.028 . S
O242 C238 1.258 . S
O242 Zn243 2.035 . S
Zn243 O242 2.035 . S
Zn243 O244 2.028 . S
Zn243 O246 2.028 . S
Zn243 O249 2.035 . S
O244 Zn243 2.028 . S
O244 C250 1.247 . S
O245 Zn241 2.035 . S
O245 C250 1.258 . S
O246 C239 1.247 . S
O246 Zn243 2.028 . S
O247 C239 1.258 . S
O247 Zn241 2.035 . S
O248 Zn241 2.028 . S
O248 C251 1.247 . S
O249 Zn243 2.035 . S
O249 C251 1.258 . S
C250 O244 1.247 . S
C250 O245 1.258 . S
C251 O248 1.247 . S
C251 O249 1.258 . S
C252 O254 1.247 . S
C252 O256 1.258 . S
C253 O260 1.247 . S
C253 O261 1.258 . S
O254 C252 1.247 . S
O254 Zn255 2.028 . S
Zn255 O254 2.028 . S
Zn255 O259 2.035 . S
Zn255 O261 2.035 . S
Zn255 O262 2.028 . S
O256 C252 1.258 . S
O256 Zn257 2.035 . S
Zn257 O256 2.035 . S
Zn257 O258 2.028 . S
Zn257 O260 2.028 . S
Zn257 O263 2.035 . S
O258 Zn257 2.028 . S
O258 C264 1.247 . S
O259 Zn255 2.035 . S
O259 C264 1.258 . S
O260 C253 1.247 . S
O260 Zn257 2.028 . S
O261 C253 1.258 . S
O261 Zn255 2.035 . S
O262 Zn255 2.028 . S
O262 C265 1.247 . S
O263 Zn257 2.035 . S
O263 C265 1.258 . S
C264 O258 1.247 . S
C264 O259 1.258 . S
C265 O262 1.247 . S
C265 O263 1.258 . S
C266 O268 1.247 . S
C266 O270 1.258 . S
C267 O274 1.247 . S
C267 O275 1.258 . S
O268 C266 1.247 . S
O268 Zn269 2.028 . S
Zn269 O268 2.028 . S
Zn269 O273 2.035 . S
Zn269 O275 2.035 . S
Zn269 O276 2.028 . S
O270 C266 1.258 . S
O270 Zn271 2.035 . S
Zn271 O270 2.035 . S
Zn271 O272 2.028 . S
Zn271 O274 2.028 . S
Zn271 O277 2.035 . S
O272 Zn271 2.028 . S
O272 C278 1.247 . S
O273 Zn269 2.035 . S
O273 C278 1.258 . S
O274 C267 1.247 . S
O274 Zn271 2.028 . S
O275 C267 1.258 . S
O275 Zn269 2.035 . S
O276 Zn269 2.028 . S
O276 C279 1.247 . S
O277 Zn271 2.035 . S
O277 C279 1.258 . S
C278 O272 1.247 . S
C278 O273 1.258 . S
C279 O276 1.247 . S
C279 O277 1.258 . S
C280 O282 1.247 . S
C280 O284 1.258 . S
C281 O288 1.247 . S
C281 O289 1.258 . S
O282 C280 1.247 . S
O282 Zn283 2.028 . S
Zn283 O282 2.028 . S
Zn283 O287 2.035 . S
Zn283 O289 2.035 . S
Zn283 O290 2.028 . S
O284 C280 1.258 . S
O284 Zn285 2.035 . S
Zn285 O284 2.035 . S
Zn285 O286 2.028 . S
Zn285 O288 2.028 . S
Zn285 O291 2.035 . S
O286 Zn285 2.028 . S
O286 C292 1.247 . S
O287 Zn283 2.035 . S
O287 C292 1.258 . S
O288 C281 1.247 . S
O288 Zn285 2.028 . S
O289 C281 1.258 . S
O289 Zn283 2.035 . S
O290 Zn283 2.028 . S
O290 C293 1.247 . S
O291 Zn285 2.035 . S
O291 C293 1.258 . S
C292 O286 1.247 . S
C292 O287 1.258 . S
C293 O290 1.247 . S
C293 O291 1.258 . S
C294 O296 1.247 . S
C294 O298 1.258 . S
C295 O302 1.247 . S
C295 O303 1.258 . S
O296 C294 1.247 . S
O296 Zn297 2.028 . S
Zn297 O296 2.028 . S
Zn297 O301 2.035 . S
Zn297 O303 2.035 . S
Zn297 O304 2.028 . S
O298 C294 1.258 . S
O298 Zn299 2.035 . S
Zn299 O298 2.035 . S
Zn299 O300 2.028 . S
Zn299 O302 2.028 . S
Zn299 O305 2.035 . S
O300 Zn299 2.028 . S
O300 C306 1.247 . S
O301 Zn297 2.035 . S
O301 C306 1.258 . S
O302 C295 1.247 . S
O302 Zn299 2.028 . S
O303 C295 1.258 . S
O303 Zn297 2.035 . S
O304 Zn297 2.028 . S
O304 C307 1.247 . S
O305 Zn299 2.035 . S
O305 C307 1.258 . S
C306 O300 1.247 . S
C306 O301 1.258 . S
C307 O304 1.247 . S
C307 O305 1.258 . S
C308 O310 1.247 . S
C308 O312 1.258 . S
C309 O316 1.247 . S
C309 O317 1.258 . S
O310 C308 1.247 . S
O310 Zn311 2.028 . S
Zn311 O310 2.028 . S
Zn311 O315 2.035 . S
Zn311 O317 2.035 . S
Zn311 O318 2.028 . S
O312 C308 1.258 . S
O312 Zn313 2.035 . S
Zn313 O312 2.035 . S
Zn313 O314 2.028 . S
Zn313 O316 2.028 . S
Zn313 O319 2.035 . S
O314 Zn313 2.028 . S
O314 C320 1.247 . S
O315 Zn311 2.035 . S
O315 C320 1.258 . S
O316 C309 1.247 . S
O316 Zn313 2.028 . S
O317 C309 1.258 . S
O317 Zn311 2.035 . S
O318 Zn311 2.028 . S
O318 C321 1.247 . S
O319 Zn313 2.035 . S
O319 C321 1.258 . S
C320 O314 1.247 . S
C320 O315 1.258 . S
C321 O318 1.247 . S
C321 O319 1.258 . S
C322 O324 1.247 . S
C322 O326 1.258 . S
C323 O330 1.247 . S
C323 O331 1.258 . S
O324 C322 1.247 . S
O324 Zn325 2.028 . S
Zn325 O324 2.028 . S
Zn325 O329 2.035 . S
Zn325 O331 2.035 . S
Zn325 O332 2.028 . S
O326 C322 1.258 . S
O326 Zn327 2.035 . S
Zn327 O326 2.035 . S
Zn327 O328 2.028 . S
Zn327 O330 2.028 . S
Zn327 O333 2.035 . S
O328 Zn327 2.028 . S
O328 C334 1.247 . S
O329 Zn325 2.035 . S
O329 C334 1.258 . S
O330 C323 1.247 . S
O330 Zn327 2.028 . S
O331 C323 1.258 . S
O331 Zn325 2.035 . S
O332 Zn325 2.028 . S
O332 C335 1.247 . S
O333 Zn327 2.035 . S
O333 C335 1.258 . S
C334 O328 1.247 . S
C334 O329 1.258 . S
C335 O332 1.247 . S
C335 O333 1.258 . S
H336 C344 0.929 . S
H337 C346 0.930 . S
H338 C348 0.930 . S
H339 C351 0.929 . S
H340 C354 0.930 . S
H341 C356 0.960 . S
H342 C356 0.960 . S
H343 C356 0.960 . S
C344 H336 0.929 . S
C344 C345 1.377 . S
C344 C346 1.384 . S
C345 C344 1.377 . S
C345 C351 1.390 . S
C346 H337 0.930 . S
C346 C344 1.384 . S
C346 C347 1.372 . S
C347 C346 1.372 . S
C347 C348 1.400 . S
C347 C352 1.490 . S
C348 H338 0.930 . S
C348 C347 1.400 . S
C348 C351 1.386 . S
H349 C365 0.930 . S
H350 C366 0.931 . S
C351 H339 0.929 . S
C351 C345 1.390 . S
C351 C348 1.386 . S
C352 C347 1.490 . S
C352 C354 1.395 . S
C352 C355 1.403 . S
H353 C359 0.930 . S
C354 H340 0.930 . S
C354 C352 1.395 . S
C354 C357 1.403 . S
C355 C352 1.403 . S
C355 C356 1.524 . S
C355 C359 1.400 . S
C356 H341 0.960 . S
C356 H342 0.960 . S
C356 H343 0.960 . S
C356 C355 1.524 . S
C357 C354 1.403 . S
C357 C358 1.392 . S
C357 C361 1.495 . S
C358 C357 1.392 . S
C358 C359 1.385 . S
C358 C360 1.478 . S
C359 H353 0.930 . S
C359 C355 1.400 . S
C359 C358 1.385 . S
C360 C358 1.478 . S
C360 C362 1.381 . S
C360 C366 1.383 . S
C361 C357 1.495 . S
C361 H367 0.959 . S
C361 H368 0.961 . S
C361 H369 0.960 . S
C362 C360 1.381 . S
C362 C363 1.394 . S
C362 H370 0.930 . S
C363 C362 1.394 . S
C363 C364 1.383 . S
C363 H371 0.929 . S
C364 C363 1.383 . S
C364 C365 1.377 . S
C365 H349 0.930 . S
C365 C364 1.377 . S
C365 C366 1.379 . S
C366 H350 0.931 . S
C366 C360 1.383 . S
C366 C365 1.379 . S
H367 C361 0.959 . S
H368 C361 0.961 . S
H369 C361 0.960 . S
H370 C362 0.930 . S
H371 C363 0.929 . S
H372 C380 0.929 . S
H373 C382 0.930 . S
H374 C384 0.930 . S
H375 C387 0.929 . S
H376 C390 0.930 . S
H377 C392 0.960 . S
H378 C392 0.960 . S
H379 C392 0.960 . S
C380 H372 0.929 . S
C380 C381 1.377 . S
C380 C382 1.384 . S
C381 C380 1.377 . S
C381 C387 1.390 . S
C382 H373 0.930 . S
C382 C380 1.384 . S
C382 C383 1.372 . S
C383 C382 1.372 . S
C383 C384 1.400 . S
C383 C388 1.490 . S
C384 H374 0.930 . S
C384 C383 1.400 . S
C384 C387 1.386 . S
H385 C401 0.930 . S
H386 C402 0.931 . S
C387 H375 0.929 . S
C387 C381 1.390 . S
C387 C384 1.386 . S
C388 C383 1.490 . S
C388 C390 1.395 . S
C388 C391 1.403 . S
H389 C395 0.930 . S
C390 H376 0.930 . S
C390 C388 1.395 . S
C390 C393 1.403 . S
C391 C388 1.403 . S
C391 C392 1.524 . S
C391 C395 1.400 . S
C392 H377 0.960 . S
C392 H378 0.960 . S
C392 H379 0.960 . S
C392 C391 1.524 . S
C393 C390 1.403 . S
C393 C394 1.392 . S
C393 C397 1.495 . S
C394 C393 1.392 . S
C394 C395 1.385 . S
C394 C396 1.478 . S
C395 H389 0.930 . S
C395 C391 1.400 . S
C395 C394 1.385 . S
C396 C394 1.478 . S
C396 C398 1.381 . S
C396 C402 1.383 . S
C397 C393 1.495 . S
C397 H403 0.959 . S
C397 H404 0.961 . S
C397 H405 0.960 . S
C398 C396 1.381 . S
C398 C399 1.394 . S
C398 H406 0.930 . S
C399 C398 1.394 . S
C399 C400 1.383 . S
C399 H407 0.929 . S
C400 C399 1.383 . S
C400 C401 1.377 . S
C401 H385 0.930 . S
C401 C400 1.377 . S
C401 C402 1.379 . S
C402 H386 0.931 . S
C402 C396 1.383 . S
C402 C401 1.379 . S
H403 C397 0.959 . S
H404 C397 0.961 . S
H405 C397 0.960 . S
H406 C398 0.930 . S
H407 C399 0.929 . S
H408 C416 0.929 . S
H409 C418 0.930 . S
H410 C420 0.930 . S
H411 C423 0.929 . S
H412 C426 0.930 . S
H413 C428 0.960 . S
H414 C428 0.960 . S
H415 C428 0.960 . S
C416 H408 0.929 . S
C416 C417 1.377 . S
C416 C418 1.384 . S
C417 C416 1.377 . S
C417 C423 1.390 . S
C418 H409 0.930 . S
C418 C416 1.384 . S
C418 C419 1.372 . S
C419 C418 1.372 . S
C419 C420 1.400 . S
C419 C424 1.490 . S
C420 H410 0.930 . S
C420 C419 1.400 . S
C420 C423 1.386 . S
H421 C437 0.930 . S
H422 C438 0.931 . S
C423 H411 0.929 . S
C423 C417 1.390 . S
C423 C420 1.386 . S
C424 C419 1.490 . S
C424 C426 1.395 . S
C424 C427 1.403 . S
H425 C431 0.930 . S
C426 H412 0.930 . S
C426 C424 1.395 . S
C426 C429 1.403 . S
C427 C424 1.403 . S
C427 C428 1.524 . S
C427 C431 1.400 . S
C428 H413 0.960 . S
C428 H414 0.960 . S
C428 H415 0.960 . S
C428 C427 1.524 . S
C429 C426 1.403 . S
C429 C430 1.392 . S
C429 C433 1.495 . S
C430 C429 1.392 . S
C430 C431 1.385 . S
C430 C432 1.478 . S
C431 H425 0.930 . S
C431 C427 1.400 . S
C431 C430 1.385 . S
C432 C430 1.478 . S
C432 C434 1.381 . S
C432 C438 1.383 . S
C433 C429 1.495 . S
C433 H439 0.959 . S
C433 H440 0.961 . S
C433 H441 0.960 . S
C434 C432 1.381 . S
C434 C435 1.394 . S
C434 H442 0.930 . S
C435 C434 1.394 . S
C435 C436 1.383 . S
C435 H443 0.929 . S
C436 C435 1.383 . S
C436 C437 1.377 . S
C437 H421 0.930 . S
C437 C436 1.377 . S
C437 C438 1.379 . S
C438 H422 0.931 . S
C438 C432 1.383 . S
C438 C437 1.379 . S
H439 C433 0.959 . S
H440 C433 0.961 . S
H441 C433 0.960 . S
H442 C434 0.930 . S
H443 C435 0.929 . S
H444 C452 0.929 . S
H445 C454 0.930 . S
H446 C456 0.930 . S
H447 C459 0.929 . S
H448 C462 0.930 . S
H449 C464 0.960 . S
H450 C464 0.960 . S
H451 C464 0.960 . S
C452 H444 0.929 . S
C452 C453 1.377 . S
C452 C454 1.384 . S
C453 C452 1.377 . S
C453 C459 1.390 . S
C454 H445 0.930 . S
C454 C452 1.384 . S
C454 C455 1.372 . S
C455 C454 1.372 . S
C455 C456 1.400 . S
C455 C460 1.490 . S
C456 H446 0.930 . S
C456 C455 1.400 . S
C456 C459 1.386 . S
H457 C473 0.930 . S
H458 C474 0.931 . S
C459 H447 0.929 . S
C459 C453 1.390 . S
C459 C456 1.386 . S
C460 C455 1.490 . S
C460 C462 1.395 . S
C460 C463 1.403 . S
H461 C467 0.930 . S
C462 H448 0.930 . S
C462 C460 1.395 . S
C462 C465 1.403 . S
C463 C460 1.403 . S
C463 C464 1.524 . S
C463 C467 1.400 . S
C464 H449 0.960 . S
C464 H450 0.960 . S
C464 H451 0.960 . S
C464 C463 1.524 . S
C465 C462 1.403 . S
C465 C466 1.392 . S
C465 C469 1.495 . S
C466 C465 1.392 . S
C466 C467 1.385 . S
C466 C468 1.478 . S
C467 H461 0.930 . S
C467 C463 1.400 . S
C467 C466 1.385 . S
C468 C466 1.478 . S
C468 C470 1.381 . S
C468 C474 1.383 . S
C469 C465 1.495 . S
C469 H475 0.959 . S
C469 H476 0.961 . S
C469 H477 0.960 . S
C470 C468 1.381 . S
C470 C471 1.394 . S
C470 H478 0.930 . S
C471 C470 1.394 . S
C471 C472 1.383 . S
C471 H479 0.929 . S
C472 C471 1.383 . S
C472 C473 1.377 . S
C473 H457 0.930 . S
C473 C472 1.377 . S
C473 C474 1.379 . S
C474 H458 0.931 . S
C474 C468 1.383 . S
C474 C473 1.379 . S
H475 C469 0.959 . S
H476 C469 0.961 . S
H477 C469 0.960 . S
H478 C470 0.930 . S
H479 C471 0.929 . S
H480 C488 0.929 . S
H481 C490 0.930 . S
H482 C492 0.930 . S
H483 C495 0.929 . S
H484 C498 0.930 . S
H485 C500 0.960 . S
H486 C500 0.960 . S
H487 C500 0.960 . S
C488 H480 0.929 . S
C488 C489 1.377 . S
C488 C490 1.384 . S
C489 C488 1.377 . S
C489 C495 1.390 . S
C490 H481 0.930 . S
C490 C488 1.384 . S
C490 C491 1.372 . S
C491 C490 1.372 . S
C491 C492 1.400 . S
C491 C496 1.490 . S
C492 H482 0.930 . S
C492 C491 1.400 . S
C492 C495 1.386 . S
H493 C509 0.930 . S
H494 C510 0.931 . S
C495 H483 0.929 . S
C495 C489 1.390 . S
C495 C492 1.386 . S
C496 C491 1.490 . S
C496 C498 1.395 . S
C496 C499 1.403 . S
H497 C503 0.930 . S
C498 H484 0.930 . S
C498 C496 1.395 . S
C498 C501 1.403 . S
C499 C496 1.403 . S
C499 C500 1.524 . S
C499 C503 1.400 . S
C500 H485 0.960 . S
C500 H486 0.960 . S
C500 H487 0.960 . S
C500 C499 1.524 . S
C501 C498 1.403 . S
C501 C502 1.392 . S
C501 C505 1.495 . S
C502 C501 1.392 . S
C502 C503 1.385 . S
C502 C504 1.478 . S
C503 H497 0.930 . S
C503 C499 1.400 . S
C503 C502 1.385 . S
C504 C502 1.478 . S
C504 C506 1.381 . S
C504 C510 1.383 . S
C505 C501 1.495 . S
C505 H511 0.959 . S
C505 H512 0.961 . S
C505 H513 0.960 . S
C506 C504 1.381 . S
C506 C507 1.394 . S
C506 H514 0.930 . S
C507 C506 1.394 . S
C507 C508 1.383 . S
C507 H515 0.929 . S
C508 C507 1.383 . S
C508 C509 1.377 . S
C509 H493 0.930 . S
C509 C508 1.377 . S
C509 C510 1.379 . S
C510 H494 0.931 . S
C510 C504 1.383 . S
C510 C509 1.379 . S
H511 C505 0.959 . S
H512 C505 0.961 . S
H513 C505 0.960 . S
H514 C506 0.930 . S
H515 C507 0.929 . S
H516 C524 0.929 . S
H517 C526 0.930 . S
H518 C528 0.930 . S
H519 C531 0.929 . S
H520 C534 0.930 . S
H521 C536 0.960 . S
H522 C536 0.960 . S
H523 C536 0.960 . S
C524 H516 0.929 . S
C524 C525 1.377 . S
C524 C526 1.384 . S
C525 C524 1.377 . S
C525 C531 1.390 . S
C526 H517 0.930 . S
C526 C524 1.384 . S
C526 C527 1.372 . S
C527 C526 1.372 . S
C527 C528 1.400 . S
C527 C532 1.490 . S
C528 H518 0.930 . S
C528 C527 1.400 . S
C528 C531 1.386 . S
H529 C545 0.930 . S
H530 C546 0.931 . S
C531 H519 0.929 . S
C531 C525 1.390 . S
C531 C528 1.386 . S
C532 C527 1.490 . S
C532 C534 1.395 . S
C532 C535 1.403 . S
H533 C539 0.930 . S
C534 H520 0.930 . S
C534 C532 1.395 . S
C534 C537 1.403 . S
C535 C532 1.403 . S
C535 C536 1.524 . S
C535 C539 1.400 . S
C536 H521 0.960 . S
C536 H522 0.960 . S
C536 H523 0.960 . S
C536 C535 1.524 . S
C537 C534 1.403 . S
C537 C538 1.392 . S
C537 C541 1.495 . S
C538 C537 1.392 . S
C538 C539 1.385 . S
C538 C540 1.478 . S
C539 H533 0.930 . S
C539 C535 1.400 . S
C539 C538 1.385 . S
C540 C538 1.478 . S
C540 C542 1.381 . S
C540 C546 1.383 . S
C541 C537 1.495 . S
C541 H547 0.959 . S
C541 H548 0.961 . S
C541 H549 0.960 . S
C542 C540 1.381 . S
C542 C543 1.394 . S
C542 H550 0.930 . S
C543 C542 1.394 . S
C543 C544 1.383 . S
C543 H551 0.929 . S
C544 C543 1.383 . S
C544 C545 1.377 . S
C545 H529 0.930 . S
C545 C544 1.377 . S
C545 C546 1.379 . S
C546 H530 0.931 . S
C546 C540 1.383 . S
C546 C545 1.379 . S
H547 C541 0.959 . S
H548 C541 0.961 . S
H549 C541 0.960 . S
H550 C542 0.930 . S
H551 C543 0.929 . S
H552 C560 0.929 . S
H553 C562 0.930 . S
H554 C564 0.930 . S
H555 C567 0.929 . S
H556 C570 0.930 . S
H557 C572 0.960 . S
H558 C572 0.960 . S
H559 C572 0.960 . S
C560 H552 0.929 . S
C560 C561 1.377 . S
C560 C562 1.384 . S
C561 C560 1.377 . S
C561 C567 1.390 . S
C562 H553 0.930 . S
C562 C560 1.384 . S
C562 C563 1.372 . S
C563 C562 1.372 . S
C563 C564 1.400 . S
C563 C568 1.490 . S
C564 H554 0.930 . S
C564 C563 1.400 . S
C564 C567 1.386 . S
H565 C581 0.930 . S
H566 C582 0.931 . S
C567 H555 0.929 . S
C567 C561 1.390 . S
C567 C564 1.386 . S
C568 C563 1.490 . S
C568 C570 1.395 . S
C568 C571 1.403 . S
H569 C575 0.930 . S
C570 H556 0.930 . S
C570 C568 1.395 . S
C570 C573 1.403 . S
C571 C568 1.403 . S
C571 C572 1.524 . S
C571 C575 1.400 . S
C572 H557 0.960 . S
C572 H558 0.960 . S
C572 H559 0.960 . S
C572 C571 1.524 . S
C573 C570 1.403 . S
C573 C574 1.392 . S
C573 C577 1.495 . S
C574 C573 1.392 . S
C574 C575 1.385 . S
C574 C576 1.478 . S
C575 H569 0.930 . S
C575 C571 1.400 . S
C575 C574 1.385 . S
C576 C574 1.478 . S
C576 C578 1.381 . S
C576 C582 1.383 . S
C577 C573 1.495 . S
C577 H583 0.959 . S
C577 H584 0.961 . S
C577 H585 0.960 . S
C578 C576 1.381 . S
C578 C579 1.394 . S
C578 H586 0.930 . S
C579 C578 1.394 . S
C579 C580 1.383 . S
C579 H587 0.929 . S
C580 C579 1.383 . S
C580 C581 1.377 . S
C581 H565 0.930 . S
C581 C580 1.377 . S
C581 C582 1.379 . S
C582 H566 0.931 . S
C582 C576 1.383 . S
C582 C581 1.379 . S
H583 C577 0.959 . S
H584 C577 0.961 . S
H585 C577 0.960 . S
H586 C578 0.930 . S
H587 C579 0.929 . S
H588 C596 0.929 . S
H589 C598 0.930 . S
H590 C600 0.930 . S
H591 C603 0.929 . S
H592 C606 0.930 . S
H593 C608 0.960 . S
H594 C608 0.960 . S
H595 C608 0.960 . S
C596 H588 0.929 . S
C596 C597 1.377 . S
C596 C598 1.384 . S
C597 C596 1.377 . S
C597 C603 1.390 . S
C598 H589 0.930 . S
C598 C596 1.384 . S
C598 C599 1.372 . S
C599 C598 1.372 . S
C599 C600 1.400 . S
C599 C604 1.490 . S
C600 H590 0.930 . S
C600 C599 1.400 . S
C600 C603 1.386 . S
H601 C617 0.930 . S
H602 C618 0.931 . S
C603 H591 0.929 . S
C603 C597 1.390 . S
C603 C600 1.386 . S
C604 C599 1.490 . S
C604 C606 1.395 . S
C604 C607 1.403 . S
H605 C611 0.930 . S
C606 H592 0.930 . S
C606 C604 1.395 . S
C606 C609 1.403 . S
C607 C604 1.403 . S
C607 C608 1.524 . S
C607 C611 1.400 . S
C608 H593 0.960 . S
C608 H594 0.960 . S
C608 H595 0.960 . S
C608 C607 1.524 . S
C609 C606 1.403 . S
C609 C610 1.392 . S
C609 C613 1.495 . S
C610 C609 1.392 . S
C610 C611 1.385 . S
C610 C612 1.478 . S
C611 H605 0.930 . S
C611 C607 1.400 . S
C611 C610 1.385 . S
C612 C610 1.478 . S
C612 C614 1.381 . S
C612 C618 1.383 . S
C613 C609 1.495 . S
C613 H619 0.959 . S
C613 H620 0.961 . S
C613 H621 0.960 . S
C614 C612 1.381 . S
C614 C615 1.394 . S
C614 H622 0.930 . S
C615 C614 1.394 . S
C615 C616 1.383 . S
C615 H623 0.929 . S
C616 C615 1.383 . S
C616 C617 1.377 . S
C617 H601 0.930 . S
C617 C616 1.377 . S
C617 C618 1.379 . S
C618 H602 0.931 . S
C618 C612 1.383 . S
C618 C617 1.379 . S
H619 C613 0.959 . S
H620 C613 0.961 . S
H621 C613 0.960 . S
H622 C614 0.930 . S
H623 C615 0.929 . S
H624 C632 0.929 . S
H625 C634 0.930 . S
H626 C636 0.930 . S
H627 C639 0.929 . S
H628 C642 0.930 . S
H629 C644 0.960 . S
H630 C644 0.960 . S
H631 C644 0.960 . S
C632 H624 0.929 . S
C632 C633 1.377 . S
C632 C634 1.384 . S
C633 C632 1.377 . S
C633 C639 1.390 . S
C634 H625 0.930 . S
C634 C632 1.384 . S
C634 C635 1.372 . S
C635 C634 1.372 . S
C635 C636 1.400 . S
C635 C640 1.490 . S
C636 H626 0.930 . S
C636 C635 1.400 . S
C636 C639 1.386 . S
H637 C653 0.930 . S
H638 C654 0.931 . S
C639 H627 0.929 . S
C639 C633 1.390 . S
C639 C636 1.386 . S
C640 C635 1.490 . S
C640 C642 1.395 . S
C640 C643 1.403 . S
H641 C647 0.930 . S
C642 H628 0.930 . S
C642 C640 1.395 . S
C642 C645 1.403 . S
C643 C640 1.403 . S
C643 C644 1.524 . S
C643 C647 1.400 . S
C644 H629 0.960 . S
C644 H630 0.960 . S
C644 H631 0.960 . S
C644 C643 1.524 . S
C645 C642 1.403 . S
C645 C646 1.392 . S
C645 C649 1.495 . S
C646 C645 1.392 . S
C646 C647 1.385 . S
C646 C648 1.478 . S
C647 H641 0.930 . S
C647 C643 1.400 . S
C647 C646 1.385 . S
C648 C646 1.478 . S
C648 C650 1.381 . S
C648 C654 1.383 . S
C649 C645 1.495 . S
C649 H655 0.959 . S
C649 H656 0.961 . S
C649 H657 0.960 . S
C650 C648 1.381 . S
C650 C651 1.394 . S
C650 H658 0.930 . S
C651 C650 1.394 . S
C651 C652 1.383 . S
C651 H659 0.929 . S
C652 C651 1.383 . S
C652 C653 1.377 . S
C653 H637 0.930 . S
C653 C652 1.377 . S
C653 C654 1.379 . S
C654 H638 0.931 . S
C654 C648 1.383 . S
C654 C653 1.379 . S
H655 C649 0.959 . S
H656 C649 0.961 . S
H657 C649 0.960 . S
H658 C650 0.930 . S
H659 C651 0.929 . S
H660 C668 0.929 . S
H661 C670 0.930 . S
H662 C672 0.930 . S
H663 C675 0.929 . S
H664 C678 0.930 . S
H665 C680 0.960 . S
H666 C680 0.960 . S
H667 C680 0.960 . S
C668 H660 0.929 . S
C668 C669 1.377 . S
C668 C670 1.384 . S
C669 C668 1.377 . S
C669 C675 1.390 . S
C670 H661 0.930 . S
C670 C668 1.384 . S
C670 C671 1.372 . S
C671 C670 1.372 . S
C671 C672 1.400 . S
C671 C676 1.490 . S
C672 H662 0.930 . S
C672 C671 1.400 . S
C672 C675 1.386 . S
H673 C689 0.930 . S
H674 C690 0.931 . S
C675 H663 0.929 . S
C675 C669 1.390 . S
C675 C672 1.386 . S
C676 C671 1.490 . S
C676 C678 1.395 . S
C676 C679 1.403 . S
H677 C683 0.930 . S
C678 H664 0.930 . S
C678 C676 1.395 . S
C678 C681 1.403 . S
C679 C676 1.403 . S
C679 C680 1.524 . S
C679 C683 1.400 . S
C680 H665 0.960 . S
C680 H666 0.960 . S
C680 H667 0.960 . S
C680 C679 1.524 . S
C681 C678 1.403 . S
C681 C682 1.392 . S
C681 C685 1.495 . S
C682 C681 1.392 . S
C682 C683 1.385 . S
C682 C684 1.478 . S
C683 H677 0.930 . S
C683 C679 1.400 . S
C683 C682 1.385 . S
C684 C682 1.478 . S
C684 C686 1.381 . S
C684 C690 1.383 . S
C685 C681 1.495 . S
C685 H691 0.959 . S
C685 H692 0.961 . S
C685 H693 0.960 . S
C686 C684 1.381 . S
C686 C687 1.394 . S
C686 H694 0.930 . S
C687 C686 1.394 . S
C687 C688 1.383 . S
C687 H695 0.929 . S
C688 C687 1.383 . S
C688 C689 1.377 . S
C689 H673 0.930 . S
C689 C688 1.377 . S
C689 C690 1.379 . S
C690 H674 0.931 . S
C690 C684 1.383 . S
C690 C689 1.379 . S
H691 C685 0.959 . S
H692 C685 0.961 . S
H693 C685 0.960 . S
H694 C686 0.930 . S
H695 C687 0.929 . S
H696 C704 0.929 . S
H697 C706 0.930 . S
H698 C708 0.930 . S
H699 C711 0.929 . S
H700 C714 0.930 . S
H701 C716 0.960 . S
H702 C716 0.960 . S
H703 C716 0.960 . S
C704 H696 0.929 . S
C704 C705 1.377 . S
C704 C706 1.384 . S
C705 C704 1.377 . S
C705 C711 1.390 . S
C706 H697 0.930 . S
C706 C704 1.384 . S
C706 C707 1.372 . S
C707 C706 1.372 . S
C707 C708 1.400 . S
C707 C712 1.490 . S
C708 H698 0.930 . S
C708 C707 1.400 . S
C708 C711 1.386 . S
H709 C725 0.930 . S
H710 C726 0.931 . S
C711 H699 0.929 . S
C711 C705 1.390 . S
C711 C708 1.386 . S
C712 C707 1.490 . S
C712 C714 1.395 . S
C712 C715 1.403 . S
H713 C719 0.930 . S
C714 H700 0.930 . S
C714 C712 1.395 . S
C714 C717 1.403 . S
C715 C712 1.403 . S
C715 C716 1.524 . S
C715 C719 1.400 . S
C716 H701 0.960 . S
C716 H702 0.960 . S
C716 H703 0.960 . S
C716 C715 1.524 . S
C717 C714 1.403 . S
C717 C718 1.392 . S
C717 C721 1.495 . S
C718 C717 1.392 . S
C718 C719 1.385 . S
C718 C720 1.478 . S
C719 H713 0.930 . S
C719 C715 1.400 . S
C719 C718 1.385 . S
C720 C718 1.478 . S
C720 C722 1.381 . S
C720 C726 1.383 . S
C721 C717 1.495 . S
C721 H727 0.959 . S
C721 H728 0.961 . S
C721 H729 0.960 . S
C722 C720 1.381 . S
C722 C723 1.394 . S
C722 H730 0.930 . S
C723 C722 1.394 . S
C723 C724 1.383 . S
C723 H731 0.929 . S
C724 C723 1.383 . S
C724 C725 1.377 . S
C725 H709 0.930 . S
C725 C724 1.377 . S
C725 C726 1.379 . S
C726 H710 0.931 . S
C726 C720 1.383 . S
C726 C725 1.379 . S
H727 C721 0.959 . S
H728 C721 0.961 . S
H729 C721 0.960 . S
H730 C722 0.930 . S
H731 C723 0.929 . S
H732 C740 0.929 . S
H733 C742 0.930 . S
H734 C744 0.930 . S
H735 C747 0.929 . S
H736 C750 0.930 . S
H737 C752 0.960 . S
H738 C752 0.960 . S
H739 C752 0.960 . S
C740 H732 0.929 . S
C740 C741 1.377 . S
C740 C742 1.384 . S
C741 C740 1.377 . S
C741 C747 1.390 . S
C742 H733 0.930 . S
C742 C740 1.384 . S
C742 C743 1.372 . S
C743 C742 1.372 . S
C743 C744 1.400 . S
C743 C748 1.490 . S
C744 H734 0.930 . S
C744 C743 1.400 . S
C744 C747 1.386 . S
H745 C761 0.930 . S
H746 C762 0.931 . S
C747 H735 0.929 . S
C747 C741 1.390 . S
C747 C744 1.386 . S
C748 C743 1.490 . S
C748 C750 1.395 . S
C748 C751 1.403 . S
H749 C755 0.930 . S
C750 H736 0.930 . S
C750 C748 1.395 . S
C750 C753 1.403 . S
C751 C748 1.403 . S
C751 C752 1.524 . S
C751 C755 1.400 . S
C752 H737 0.960 . S
C752 H738 0.960 . S
C752 H739 0.960 . S
C752 C751 1.524 . S
C753 C750 1.403 . S
C753 C754 1.392 . S
C753 C757 1.495 . S
C754 C753 1.392 . S
C754 C755 1.385 . S
C754 C756 1.478 . S
C755 H749 0.930 . S
C755 C751 1.400 . S
C755 C754 1.385 . S
C756 C754 1.478 . S
C756 C758 1.381 . S
C756 C762 1.383 . S
C757 C753 1.495 . S
C757 H763 0.959 . S
C757 H764 0.961 . S
C757 H765 0.960 . S
C758 C756 1.381 . S
C758 C759 1.394 . S
C758 H766 0.930 . S
C759 C758 1.394 . S
C759 C760 1.383 . S
C759 H767 0.929 . S
C760 C759 1.383 . S
C760 C761 1.377 . S
C761 H745 0.930 . S
C761 C760 1.377 . S
C761 C762 1.379 . S
C762 H746 0.931 . S
C762 C756 1.383 . S
C762 C761 1.379 . S
H763 C757 0.959 . S
H764 C757 0.961 . S
H765 C757 0.960 . S
H766 C758 0.930 . S
H767 C759 0.929 . S
H768 C776 0.929 . S
H769 C778 0.930 . S
H770 C780 0.930 . S
H771 C783 0.929 . S
H772 C786 0.930 . S
H773 C788 0.960 . S
H774 C788 0.960 . S
H775 C788 0.960 . S
C776 H768 0.929 . S
C776 C777 1.377 . S
C776 C778 1.384 . S
C777 C776 1.377 . S
C777 C783 1.390 . S
C778 H769 0.930 . S
C778 C776 1.384 . S
C778 C779 1.372 . S
C779 C778 1.372 . S
C779 C780 1.400 . S
C779 C784 1.490 . S
C780 H770 0.930 . S
C780 C779 1.400 . S
C780 C783 1.386 . S
H781 C797 0.930 . S
H782 C798 0.931 . S
C783 H771 0.929 . S
C783 C777 1.390 . S
C783 C780 1.386 . S
C784 C779 1.490 . S
C784 C786 1.395 . S
C784 C787 1.403 . S
H785 C791 0.930 . S
C786 H772 0.930 . S
C786 C784 1.395 . S
C786 C789 1.403 . S
C787 C784 1.403 . S
C787 C788 1.524 . S
C787 C791 1.400 . S
C788 H773 0.960 . S
C788 H774 0.960 . S
C788 H775 0.960 . S
C788 C787 1.524 . S
C789 C786 1.403 . S
C789 C790 1.392 . S
C789 C793 1.495 . S
C790 C789 1.392 . S
C790 C791 1.385 . S
C790 C792 1.478 . S
C791 H785 0.930 . S
C791 C787 1.400 . S
C791 C790 1.385 . S
C792 C790 1.478 . S
C792 C794 1.381 . S
C792 C798 1.383 . S
C793 C789 1.495 . S
C793 H799 0.959 . S
C793 H800 0.961 . S
C793 H801 0.960 . S
C794 C792 1.381 . S
C794 C795 1.394 . S
C794 H802 0.930 . S
C795 C794 1.394 . S
C795 C796 1.383 . S
C795 H803 0.929 . S
C796 C795 1.383 . S
C796 C797 1.377 . S
C797 H781 0.930 . S
C797 C796 1.377 . S
C797 C798 1.379 . S
C798 H782 0.931 . S
C798 C792 1.383 . S
C798 C797 1.379 . S
H799 C793 0.959 . S
H800 C793 0.961 . S
H801 C793 0.960 . S
H802 C794 0.930 . S
H803 C795 0.929 . S
H804 C812 0.929 . S
H805 C814 0.930 . S
H806 C816 0.930 . S
H807 C819 0.929 . S
H808 C822 0.930 . S
H809 C824 0.960 . S
H810 C824 0.960 . S
H811 C824 0.960 . S
C812 H804 0.929 . S
C812 C813 1.377 . S
C812 C814 1.384 . S
C813 C812 1.377 . S
C813 C819 1.390 . S
C814 H805 0.930 . S
C814 C812 1.384 . S
C814 C815 1.372 . S
C815 C814 1.372 . S
C815 C816 1.400 . S
C815 C820 1.490 . S
C816 H806 0.930 . S
C816 C815 1.400 . S
C816 C819 1.386 . S
H817 C833 0.930 . S
H818 C834 0.931 . S
C819 H807 0.929 . S
C819 C813 1.390 . S
C819 C816 1.386 . S
C820 C815 1.490 . S
C820 C822 1.395 . S
C820 C823 1.403 . S
H821 C827 0.930 . S
C822 H808 0.930 . S
C822 C820 1.395 . S
C822 C825 1.403 . S
C823 C820 1.403 . S
C823 C824 1.524 . S
C823 C827 1.400 . S
C824 H809 0.960 . S
C824 H810 0.960 . S
C824 H811 0.960 . S
C824 C823 1.524 . S
C825 C822 1.403 . S
C825 C826 1.392 . S
C825 C829 1.495 . S
C826 C825 1.392 . S
C826 C827 1.385 . S
C826 C828 1.478 . S
C827 H821 0.930 . S
C827 C823 1.400 . S
C827 C826 1.385 . S
C828 C826 1.478 . S
C828 C830 1.381 . S
C828 C834 1.383 . S
C829 C825 1.495 . S
C829 H835 0.959 . S
C829 H836 0.961 . S
C829 H837 0.960 . S
C830 C828 1.381 . S
C830 C831 1.394 . S
C830 H838 0.930 . S
C831 C830 1.394 . S
C831 C832 1.383 . S
C831 H839 0.929 . S
C832 C831 1.383 . S
C832 C833 1.377 . S
C833 H817 0.930 . S
C833 C832 1.377 . S
C833 C834 1.379 . S
C834 H818 0.931 . S
C834 C828 1.383 . S
C834 C833 1.379 . S
H835 C829 0.959 . S
H836 C829 0.961 . S
H837 C829 0.960 . S
H838 C830 0.930 . S
H839 C831 0.929 . S
H840 C848 0.929 . S
H841 C850 0.930 . S
H842 C852 0.930 . S
H843 C855 0.929 . S
H844 C858 0.930 . S
H845 C860 0.960 . S
H846 C860 0.960 . S
H847 C860 0.960 . S
C848 H840 0.929 . S
C848 C849 1.377 . S
C848 C850 1.384 . S
C849 C848 1.377 . S
C849 C855 1.390 . S
C850 H841 0.930 . S
C850 C848 1.384 . S
C850 C851 1.372 . S
C851 C850 1.372 . S
C851 C852 1.400 . S
C851 C856 1.490 . S
C852 H842 0.930 . S
C852 C851 1.400 . S
C852 C855 1.386 . S
H853 C869 0.930 . S
H854 C870 0.931 . S
C855 H843 0.929 . S
C855 C849 1.390 . S
C855 C852 1.386 . S
C856 C851 1.490 . S
C856 C858 1.395 . S
C856 C859 1.403 . S
H857 C863 0.930 . S
C858 H844 0.930 . S
C858 C856 1.395 . S
C858 C861 1.403 . S
C859 C856 1.403 . S
C859 C860 1.524 . S
C859 C863 1.400 . S
C860 H845 0.960 . S
C860 H846 0.960 . S
C860 H847 0.960 . S
C860 C859 1.524 . S
C861 C858 1.403 . S
C861 C862 1.392 . S
C861 C865 1.495 . S
C862 C861 1.392 . S
C862 C863 1.385 . S
C862 C864 1.478 . S
C863 H857 0.930 . S
C863 C859 1.400 . S
C863 C862 1.385 . S
C864 C862 1.478 . S
C864 C866 1.381 . S
C864 C870 1.383 . S
C865 C861 1.495 . S
C865 H871 0.959 . S
C865 H872 0.961 . S
C865 H873 0.960 . S
C866 C864 1.381 . S
C866 C867 1.394 . S
C866 H874 0.930 . S
C867 C866 1.394 . S
C867 C868 1.383 . S
C867 H875 0.929 . S
C868 C867 1.383 . S
C868 C869 1.377 . S
C869 H853 0.930 . S
C869 C868 1.377 . S
C869 C870 1.379 . S
C870 H854 0.931 . S
C870 C864 1.383 . S
C870 C869 1.379 . S
H871 C865 0.959 . S
H872 C865 0.961 . S
H873 C865 0.960 . S
H874 C866 0.930 . S
H875 C867 0.929 . S
H876 C884 0.929 . S
H877 C886 0.930 . S
H878 C888 0.930 . S
H879 C891 0.929 . S
H880 C894 0.930 . S
H881 C896 0.960 . S
H882 C896 0.960 . S
H883 C896 0.960 . S
C884 H876 0.929 . S
C884 C885 1.377 . S
C884 C886 1.384 . S
C885 C884 1.377 . S
C885 C891 1.390 . S
C886 H877 0.930 . S
C886 C884 1.384 . S
C886 C887 1.372 . S
C887 C886 1.372 . S
C887 C888 1.400 . S
C887 C892 1.490 . S
C888 H878 0.930 . S
C888 C887 1.400 . S
C888 C891 1.386 . S
H889 C905 0.930 . S
H890 C906 0.931 . S
C891 H879 0.929 . S
C891 C885 1.390 . S
C891 C888 1.386 . S
C892 C887 1.490 . S
C892 C894 1.395 . S
C892 C895 1.403 . S
H893 C899 0.930 . S
C894 H880 0.930 . S
C894 C892 1.395 . S
C894 C897 1.403 . S
C895 C892 1.403 . S
C895 C896 1.524 . S
C895 C899 1.400 . S
C896 H881 0.960 . S
C896 H882 0.960 . S
C896 H883 0.960 . S
C896 C895 1.524 . S
C897 C894 1.403 . S
C897 C898 1.392 . S
C897 C901 1.495 . S
C898 C897 1.392 . S
C898 C899 1.385 . S
C898 C900 1.478 . S
C899 H893 0.930 . S
C899 C895 1.400 . S
C899 C898 1.385 . S
C900 C898 1.478 . S
C900 C902 1.381 . S
C900 C906 1.383 . S
C901 C897 1.495 . S
C901 H907 0.959 . S
C901 H908 0.961 . S
C901 H909 0.960 . S
C902 C900 1.381 . S
C902 C903 1.394 . S
C902 H910 0.930 . S
C903 C902 1.394 . S
C903 C904 1.383 . S
C903 H911 0.929 . S
C904 C903 1.383 . S
C904 C905 1.377 . S
C905 H889 0.930 . S
C905 C904 1.377 . S
C905 C906 1.379 . S
C906 H890 0.931 . S
C906 C900 1.383 . S
C906 C905 1.379 . S
H907 C901 0.959 . S
H908 C901 0.961 . S
H909 C901 0.960 . S
H910 C902 0.930 . S
H911 C903 0.929 . S
H912 C920 0.929 . S
H913 C922 0.930 . S
H914 C924 0.930 . S
H915 C927 0.929 . S
H916 C930 0.930 . S
H917 C932 0.960 . S
H918 C932 0.960 . S
H919 C932 0.960 . S
C920 H912 0.929 . S
C920 C921 1.377 . S
C920 C922 1.384 . S
C921 C920 1.377 . S
C921 C927 1.390 . S
C922 H913 0.930 . S
C922 C920 1.384 . S
C922 C923 1.372 . S
C923 C922 1.372 . S
C923 C924 1.400 . S
C923 C928 1.490 . S
C924 H914 0.930 . S
C924 C923 1.400 . S
C924 C927 1.386 . S
H925 C941 0.930 . S
H926 C942 0.931 . S
C927 H915 0.929 . S
C927 C921 1.390 . S
C927 C924 1.386 . S
C928 C923 1.490 . S
C928 C930 1.395 . S
C928 C931 1.403 . S
H929 C935 0.930 . S
C930 H916 0.930 . S
C930 C928 1.395 . S
C930 C933 1.403 . S
C931 C928 1.403 . S
C931 C932 1.524 . S
C931 C935 1.400 . S
C932 H917 0.960 . S
C932 H918 0.960 . S
C932 H919 0.960 . S
C932 C931 1.524 . S
C933 C930 1.403 . S
C933 C934 1.392 . S
C933 C937 1.495 . S
C934 C933 1.392 . S
C934 C935 1.385 . S
C934 C936 1.478 . S
C935 H929 0.930 . S
C935 C931 1.400 . S
C935 C934 1.385 . S
C936 C934 1.478 . S
C936 C938 1.381 . S
C936 C942 1.383 . S
C937 C933 1.495 . S
C937 H943 0.959 . S
C937 H944 0.961 . S
C937 H945 0.960 . S
C938 C936 1.381 . S
C938 C939 1.394 . S
C938 H946 0.930 . S
C939 C938 1.394 . S
C939 C940 1.383 . S
C939 H947 0.929 . S
C940 C939 1.383 . S
C940 C941 1.377 . S
C941 H925 0.930 . S
C941 C940 1.377 . S
C941 C942 1.379 . S
C942 H926 0.931 . S
C942 C936 1.383 . S
C942 C941 1.379 . S
H943 C937 0.959 . S
H944 C937 0.961 . S
H945 C937 0.960 . S
H946 C938 0.930 . S
H947 C939 0.929 . S
H948 C956 0.929 . S
H949 C958 0.930 . S
H950 C960 0.930 . S
H951 C963 0.929 . S
H952 C966 0.930 . S
H953 C968 0.960 . S
H954 C968 0.960 . S
H955 C968 0.960 . S
C956 H948 0.929 . S
C956 C957 1.377 . S
C956 C958 1.384 . S
C957 C956 1.377 . S
C957 C963 1.390 . S
C958 H949 0.930 . S
C958 C956 1.384 . S
C958 C959 1.372 . S
C959 C958 1.372 . S
C959 C960 1.400 . S
C959 C964 1.490 . S
C960 H950 0.930 . S
C960 C959 1.400 . S
C960 C963 1.386 . S
H961 C977 0.930 . S
H962 C978 0.931 . S
C963 H951 0.929 . S
C963 C957 1.390 . S
C963 C960 1.386 . S
C964 C959 1.490 . S
C964 C966 1.395 . S
C964 C967 1.403 . S
H965 C971 0.930 . S
C966 H952 0.930 . S
C966 C964 1.395 . S
C966 C969 1.403 . S
C967 C964 1.403 . S
C967 C968 1.524 . S
C967 C971 1.400 . S
C968 H953 0.960 . S
C968 H954 0.960 . S
C968 H955 0.960 . S
C968 C967 1.524 . S
C969 C966 1.403 . S
C969 C970 1.392 . S
C969 C973 1.495 . S
C970 C969 1.392 . S
C970 C971 1.385 . S
C970 C972 1.478 . S
C971 H965 0.930 . S
C971 C967 1.400 . S
C971 C970 1.385 . S
C972 C970 1.478 . S
C972 C974 1.381 . S
C972 C978 1.383 . S
C973 C969 1.495 . S
C973 H979 0.959 . S
C973 H980 0.961 . S
C973 H981 0.960 . S
C974 C972 1.381 . S
C974 C975 1.394 . S
C974 H982 0.930 . S
C975 C974 1.394 . S
C975 C976 1.383 . S
C975 H983 0.929 . S
C976 C975 1.383 . S
C976 C977 1.377 . S
C977 H961 0.930 . S
C977 C976 1.377 . S
C977 C978 1.379 . S
C978 H962 0.931 . S
C978 C972 1.383 . S
C978 C977 1.379 . S
H979 C973 0.959 . S
H980 C973 0.961 . S
H981 C973 0.960 . S
H982 C974 0.930 . S
H983 C975 0.929 . S
H984 C992 0.929 . S
H985 C994 0.930 . S
H986 C996 0.930 . S
H987 C999 0.929 . S
H988 C1002 0.930 . S
H989 C1004 0.960 . S
H990 C1004 0.960 . S
H991 C1004 0.960 . S
C992 H984 0.929 . S
C992 C993 1.377 . S
C992 C994 1.384 . S
C993 C992 1.377 . S
C993 C999 1.390 . S
C994 H985 0.930 . S
C994 C992 1.384 . S
C994 C995 1.372 . S
C995 C994 1.372 . S
C995 C996 1.400 . S
C995 C1000 1.490 . S
C996 H986 0.930 . S
C996 C995 1.400 . S
C996 C999 1.386 . S
H997 C1013 0.930 . S
H998 C1014 0.931 . S
C999 H987 0.929 . S
C999 C993 1.390 . S
C999 C996 1.386 . S
C1000 C995 1.490 . S
C1000 C1002 1.395 . S
C1000 C1003 1.403 . S
H1001 C1007 0.930 . S
C1002 H988 0.930 . S
C1002 C1000 1.395 . S
C1002 C1005 1.403 . S
C1003 C1000 1.403 . S
C1003 C1004 1.524 . S
C1003 C1007 1.400 . S
C1004 H989 0.960 . S
C1004 H990 0.960 . S
C1004 H991 0.960 . S
C1004 C1003 1.524 . S
C1005 C1002 1.403 . S
C1005 C1006 1.392 . S
C1005 C1009 1.495 . S
C1006 C1005 1.392 . S
C1006 C1007 1.385 . S
C1006 C1008 1.478 . S
C1007 H1001 0.930 . S
C1007 C1003 1.400 . S
C1007 C1006 1.385 . S
C1008 C1006 1.478 . S
C1008 C1010 1.381 . S
C1008 C1014 1.383 . S
C1009 C1005 1.495 . S
C1009 H1015 0.959 . S
C1009 H1016 0.961 . S
C1009 H1017 0.960 . S
C1010 C1008 1.381 . S
C1010 C1011 1.394 . S
C1010 H1018 0.930 . S
C1011 C1010 1.394 . S
C1011 C1012 1.383 . S
C1011 H1019 0.929 . S
C1012 C1011 1.383 . S
C1012 C1013 1.377 . S
C1013 H997 0.930 . S
C1013 C1012 1.377 . S
C1013 C1014 1.379 . S
C1014 H998 0.931 . S
C1014 C1008 1.383 . S
C1014 C1013 1.379 . S
H1015 C1009 0.959 . S
H1016 C1009 0.961 . S
H1017 C1009 0.960 . S
H1018 C1010 0.930 . S
H1019 C1011 0.929 . S
H1020 C1028 0.929 . S
H1021 C1030 0.930 . S
H1022 C1032 0.930 . S
H1023 C1035 0.929 . S
H1024 C1038 0.930 . S
H1025 C1040 0.960 . S
H1026 C1040 0.960 . S
H1027 C1040 0.960 . S
C1028 H1020 0.929 . S
C1028 C1029 1.377 . S
C1028 C1030 1.384 . S
C1029 C1028 1.377 . S
C1029 C1035 1.390 . S
C1030 H1021 0.930 . S
C1030 C1028 1.384 . S
C1030 C1031 1.372 . S
C1031 C1030 1.372 . S
C1031 C1032 1.400 . S
C1031 C1036 1.490 . S
C1032 H1022 0.930 . S
C1032 C1031 1.400 . S
C1032 C1035 1.386 . S
H1033 C1049 0.930 . S
H1034 C1050 0.931 . S
C1035 H1023 0.929 . S
C1035 C1029 1.390 . S
C1035 C1032 1.386 . S
C1036 C1031 1.490 . S
C1036 C1038 1.395 . S
C1036 C1039 1.403 . S
H1037 C1043 0.930 . S
C1038 H1024 0.930 . S
C1038 C1036 1.395 . S
C1038 C1041 1.403 . S
C1039 C1036 1.403 . S
C1039 C1040 1.524 . S
C1039 C1043 1.400 . S
C1040 H1025 0.960 . S
C1040 H1026 0.960 . S
C1040 H1027 0.960 . S
C1040 C1039 1.524 . S
C1041 C1038 1.403 . S
C1041 C1042 1.392 . S
C1041 C1045 1.495 . S
C1042 C1041 1.392 . S
C1042 C1043 1.385 . S
C1042 C1044 1.478 . S
C1043 H1037 0.930 . S
C1043 C1039 1.400 . S
C1043 C1042 1.385 . S
C1044 C1042 1.478 . S
C1044 C1046 1.381 . S
C1044 C1050 1.383 . S
C1045 C1041 1.495 . S
C1045 H1051 0.959 . S
C1045 H1052 0.961 . S
C1045 H1053 0.960 . S
C1046 C1044 1.381 . S
C1046 C1047 1.394 . S
C1046 H1054 0.930 . S
C1047 C1046 1.394 . S
C1047 C1048 1.383 . S
C1047 H1055 0.929 . S
C1048 C1047 1.383 . S
C1048 C1049 1.377 . S
C1049 H1033 0.930 . S
C1049 C1048 1.377 . S
C1049 C1050 1.379 . S
C1050 H1034 0.931 . S
C1050 C1044 1.383 . S
C1050 C1049 1.379 . S
H1051 C1045 0.959 . S
H1052 C1045 0.961 . S
H1053 C1045 0.960 . S
H1054 C1046 0.930 . S
H1055 C1047 0.929 . S
H1056 C1064 0.929 . S
H1057 C1066 0.930 . S
H1058 C1068 0.930 . S
H1059 C1071 0.929 . S
H1060 C1074 0.930 . S
H1061 C1076 0.960 . S
H1062 C1076 0.960 . S
H1063 C1076 0.960 . S
C1064 H1056 0.929 . S
C1064 C1065 1.377 . S
C1064 C1066 1.384 . S
C1065 C1064 1.377 . S
C1065 C1071 1.390 . S
C1066 H1057 0.930 . S
C1066 C1064 1.384 . S
C1066 C1067 1.372 . S
C1067 C1066 1.372 . S
C1067 C1068 1.400 . S
C1067 C1072 1.490 . S
C1068 H1058 0.930 . S
C1068 C1067 1.400 . S
C1068 C1071 1.386 . S
H1069 C1085 0.930 . S
H1070 C1086 0.931 . S
C1071 H1059 0.929 . S
C1071 C1065 1.390 . S
C1071 C1068 1.386 . S
C1072 C1067 1.490 . S
C1072 C1074 1.395 . S
C1072 C1075 1.403 . S
H1073 C1079 0.930 . S
C1074 H1060 0.930 . S
C1074 C1072 1.395 . S
C1074 C1077 1.403 . S
C1075 C1072 1.403 . S
C1075 C1076 1.524 . S
C1075 C1079 1.400 . S
C1076 H1061 0.960 . S
C1076 H1062 0.960 . S
C1076 H1063 0.960 . S
C1076 C1075 1.524 . S
C1077 C1074 1.403 . S
C1077 C1078 1.392 . S
C1077 C1081 1.495 . S
C1078 C1077 1.392 . S
C1078 C1079 1.385 . S
C1078 C1080 1.478 . S
C1079 H1073 0.930 . S
C1079 C1075 1.400 . S
C1079 C1078 1.385 . S
C1080 C1078 1.478 . S
C1080 C1082 1.381 . S
C1080 C1086 1.383 . S
C1081 C1077 1.495 . S
C1081 H1087 0.959 . S
C1081 H1088 0.961 . S
C1081 H1089 0.960 . S
C1082 C1080 1.381 . S
C1082 C1083 1.394 . S
C1082 H1090 0.930 . S
C1083 C1082 1.394 . S
C1083 C1084 1.383 . S
C1083 H1091 0.929 . S
C1084 C1083 1.383 . S
C1084 C1085 1.377 . S
C1085 H1069 0.930 . S
C1085 C1084 1.377 . S
C1085 C1086 1.379 . S
C1086 H1070 0.931 . S
C1086 C1080 1.383 . S
C1086 C1085 1.379 . S
H1087 C1081 0.959 . S
H1088 C1081 0.961 . S
H1089 C1081 0.960 . S
H1090 C1082 0.930 . S
H1091 C1083 0.929 . S
H1092 C1100 0.929 . S
H1093 C1102 0.930 . S
H1094 C1104 0.930 . S
H1095 C1107 0.929 . S
H1096 C1110 0.930 . S
H1097 C1112 0.960 . S
H1098 C1112 0.960 . S
H1099 C1112 0.960 . S
C1100 H1092 0.929 . S
C1100 C1101 1.377 . S
C1100 C1102 1.384 . S
C1101 C1100 1.377 . S
C1101 C1107 1.390 . S
C1102 H1093 0.930 . S
C1102 C1100 1.384 . S
C1102 C1103 1.372 . S
C1103 C1102 1.372 . S
C1103 C1104 1.400 . S
C1103 C1108 1.490 . S
C1104 H1094 0.930 . S
C1104 C1103 1.400 . S
C1104 C1107 1.386 . S
H1105 C1121 0.930 . S
H1106 C1122 0.931 . S
C1107 H1095 0.929 . S
C1107 C1101 1.390 . S
C1107 C1104 1.386 . S
C1108 C1103 1.490 . S
C1108 C1110 1.395 . S
C1108 C1111 1.403 . S
H1109 C1115 0.930 . S
C1110 H1096 0.930 . S
C1110 C1108 1.395 . S
C1110 C1113 1.403 . S
C1111 C1108 1.403 . S
C1111 C1112 1.524 . S
C1111 C1115 1.400 . S
C1112 H1097 0.960 . S
C1112 H1098 0.960 . S
C1112 H1099 0.960 . S
C1112 C1111 1.524 . S
C1113 C1110 1.403 . S
C1113 C1114 1.392 . S
C1113 C1117 1.495 . S
C1114 C1113 1.392 . S
C1114 C1115 1.385 . S
C1114 C1116 1.478 . S
C1115 H1109 0.930 . S
C1115 C1111 1.400 . S
C1115 C1114 1.385 . S
C1116 C1114 1.478 . S
C1116 C1118 1.381 . S
C1116 C1122 1.383 . S
C1117 C1113 1.495 . S
C1117 H1123 0.959 . S
C1117 H1124 0.961 . S
C1117 H1125 0.960 . S
C1118 C1116 1.381 . S
C1118 C1119 1.394 . S
C1118 H1126 0.930 . S
C1119 C1118 1.394 . S
C1119 C1120 1.383 . S
C1119 H1127 0.929 . S
C1120 C1119 1.383 . S
C1120 C1121 1.377 . S
C1121 H1105 0.930 . S
C1121 C1120 1.377 . S
C1121 C1122 1.379 . S
C1122 H1106 0.931 . S
C1122 C1116 1.383 . S
C1122 C1121 1.379 . S
H1123 C1117 0.959 . S
H1124 C1117 0.961 . S
H1125 C1117 0.960 . S
H1126 C1118 0.930 . S
H1127 C1119 0.929 . S
H1128 C1136 0.929 . S
H1129 C1138 0.930 . S
H1130 C1140 0.930 . S
H1131 C1143 0.929 . S
H1132 C1146 0.930 . S
H1133 C1148 0.960 . S
H1134 C1148 0.960 . S
H1135 C1148 0.960 . S
C1136 H1128 0.929 . S
C1136 C1137 1.377 . S
C1136 C1138 1.384 . S
C1137 C1136 1.377 . S
C1137 C1143 1.390 . S
C1138 H1129 0.930 . S
C1138 C1136 1.384 . S
C1138 C1139 1.372 . S
C1139 C1138 1.372 . S
C1139 C1140 1.400 . S
C1139 C1144 1.490 . S
C1140 H1130 0.930 . S
C1140 C1139 1.400 . S
C1140 C1143 1.386 . S
H1141 C1157 0.930 . S
H1142 C1158 0.931 . S
C1143 H1131 0.929 . S
C1143 C1137 1.390 . S
C1143 C1140 1.386 . S
C1144 C1139 1.490 . S
C1144 C1146 1.395 . S
C1144 C1147 1.403 . S
H1145 C1151 0.930 . S
C1146 H1132 0.930 . S
C1146 C1144 1.395 . S
C1146 C1149 1.403 . S
C1147 C1144 1.403 . S
C1147 C1148 1.524 . S
C1147 C1151 1.400 . S
C1148 H1133 0.960 . S
C1148 H1134 0.960 . S
C1148 H1135 0.960 . S
C1148 C1147 1.524 . S
C1149 C1146 1.403 . S
C1149 C1150 1.392 . S
C1149 C1153 1.495 . S
C1150 C1149 1.392 . S
C1150 C1151 1.385 . S
C1150 C1152 1.478 . S
C1151 H1145 0.930 . S
C1151 C1147 1.400 . S
C1151 C1150 1.385 . S
C1152 C1150 1.478 . S
C1152 C1154 1.381 . S
C1152 C1158 1.383 . S
C1153 C1149 1.495 . S
C1153 H1159 0.959 . S
C1153 H1160 0.961 . S
C1153 H1161 0.960 . S
C1154 C1152 1.381 . S
C1154 C1155 1.394 . S
C1154 H1162 0.930 . S
C1155 C1154 1.394 . S
C1155 C1156 1.383 . S
C1155 H1163 0.929 . S
C1156 C1155 1.383 . S
C1156 C1157 1.377 . S
C1157 H1141 0.930 . S
C1157 C1156 1.377 . S
C1157 C1158 1.379 . S
C1158 H1142 0.931 . S
C1158 C1152 1.383 . S
C1158 C1157 1.379 . S
H1159 C1153 0.959 . S
H1160 C1153 0.961 . S
H1161 C1153 0.960 . S
H1162 C1154 0.930 . S
H1163 C1155 0.929 . S
H1164 C1172 0.929 . S
H1165 C1174 0.930 . S
H1166 C1176 0.930 . S
H1167 C1179 0.929 . S
H1168 C1182 0.930 . S
H1169 C1184 0.960 . S
H1170 C1184 0.960 . S
H1171 C1184 0.960 . S
C1172 H1164 0.929 . S
C1172 C1173 1.377 . S
C1172 C1174 1.384 . S
C1173 C1172 1.377 . S
C1173 C1179 1.390 . S
C1174 H1165 0.930 . S
C1174 C1172 1.384 . S
C1174 C1175 1.372 . S
C1175 C1174 1.372 . S
C1175 C1176 1.400 . S
C1175 C1180 1.490 . S
C1176 H1166 0.930 . S
C1176 C1175 1.400 . S
C1176 C1179 1.386 . S
H1177 C1193 0.930 . S
H1178 C1194 0.931 . S
C1179 H1167 0.929 . S
C1179 C1173 1.390 . S
C1179 C1176 1.386 . S
C1180 C1175 1.490 . S
C1180 C1182 1.395 . S
C1180 C1183 1.403 . S
H1181 C1187 0.930 . S
C1182 H1168 0.930 . S
C1182 C1180 1.395 . S
C1182 C1185 1.403 . S
C1183 C1180 1.403 . S
C1183 C1184 1.524 . S
C1183 C1187 1.400 . S
C1184 H1169 0.960 . S
C1184 H1170 0.960 . S
C1184 H1171 0.960 . S
C1184 C1183 1.524 . S
C1185 C1182 1.403 . S
C1185 C1186 1.392 . S
C1185 C1189 1.495 . S
C1186 C1185 1.392 . S
C1186 C1187 1.385 . S
C1186 C1188 1.478 . S
C1187 H1181 0.930 . S
C1187 C1183 1.400 . S
C1187 C1186 1.385 . S
C1188 C1186 1.478 . S
C1188 C1190 1.381 . S
C1188 C1194 1.383 . S
C1189 C1185 1.495 . S
C1189 H1195 0.959 . S
C1189 H1196 0.961 . S
C1189 H1197 0.960 . S
C1190 C1188 1.381 . S
C1190 C1191 1.394 . S
C1190 H1198 0.930 . S
C1191 C1190 1.394 . S
C1191 C1192 1.383 . S
C1191 H1199 0.929 . S
C1192 C1191 1.383 . S
C1192 C1193 1.377 . S
C1193 H1177 0.930 . S
C1193 C1192 1.377 . S
C1193 C1194 1.379 . S
C1194 H1178 0.931 . S
C1194 C1188 1.383 . S
C1194 C1193 1.379 . S
H1195 C1189 0.959 . S
H1196 C1189 0.961 . S
H1197 C1189 0.960 . S
H1198 C1190 0.930 . S
H1199 C1191 0.929 . S
H1200 C1208 0.929 . S
H1201 C1210 0.930 . S
H1202 C1212 0.930 . S
H1203 C1215 0.929 . S
H1204 C1218 0.930 . S
H1205 C1220 0.960 . S
H1206 C1220 0.960 . S
H1207 C1220 0.960 . S
C1208 H1200 0.929 . S
C1208 C1209 1.377 . S
C1208 C1210 1.384 . S
C1209 C1208 1.377 . S
C1209 C1215 1.390 . S
C1210 H1201 0.930 . S
C1210 C1208 1.384 . S
C1210 C1211 1.372 . S
C1211 C1210 1.372 . S
C1211 C1212 1.400 . S
C1211 C1216 1.490 . S
C1212 H1202 0.930 . S
C1212 C1211 1.400 . S
C1212 C1215 1.386 . S
H1213 C1229 0.930 . S
H1214 C1230 0.931 . S
C1215 H1203 0.929 . S
C1215 C1209 1.390 . S
C1215 C1212 1.386 . S
C1216 C1211 1.490 . S
C1216 C1218 1.395 . S
C1216 C1219 1.403 . S
H1217 C1223 0.930 . S
C1218 H1204 0.930 . S
C1218 C1216 1.395 . S
C1218 C1221 1.403 . S
C1219 C1216 1.403 . S
C1219 C1220 1.524 . S
C1219 C1223 1.400 . S
C1220 H1205 0.960 . S
C1220 H1206 0.960 . S
C1220 H1207 0.960 . S
C1220 C1219 1.524 . S
C1221 C1218 1.403 . S
C1221 C1222 1.392 . S
C1221 C1225 1.495 . S
C1222 C1221 1.392 . S
C1222 C1223 1.385 . S
C1222 C1224 1.478 . S
C1223 H1217 0.930 . S
C1223 C1219 1.400 . S
C1223 C1222 1.385 . S
C1224 C1222 1.478 . S
C1224 C1226 1.381 . S
C1224 C1230 1.383 . S
C1225 C1221 1.495 . S
C1225 H1231 0.959 . S
C1225 H1232 0.961 . S
C1225 H1233 0.960 . S
C1226 C1224 1.381 . S
C1226 C1227 1.394 . S
C1226 H1234 0.930 . S
C1227 C1226 1.394 . S
C1227 C1228 1.383 . S
C1227 H1235 0.929 . S
C1228 C1227 1.383 . S
C1228 C1229 1.377 . S
C1229 H1213 0.930 . S
C1229 C1228 1.377 . S
C1229 C1230 1.379 . S
C1230 H1214 0.931 . S
C1230 C1224 1.383 . S
C1230 C1229 1.379 . S
H1231 C1225 0.959 . S
H1232 C1225 0.961 . S
H1233 C1225 0.960 . S
H1234 C1226 0.930 . S
H1235 C1227 0.929 . S
H1236 C1244 0.929 . S
H1237 C1246 0.930 . S
H1238 C1248 0.930 . S
H1239 C1251 0.929 . S
H1240 C1254 0.930 . S
H1241 C1256 0.960 . S
H1242 C1256 0.960 . S
H1243 C1256 0.960 . S
C1244 H1236 0.929 . S
C1244 C1245 1.377 . S
C1244 C1246 1.384 . S
C1245 C1244 1.377 . S
C1245 C1251 1.390 . S
C1246 H1237 0.930 . S
C1246 C1244 1.384 . S
C1246 C1247 1.372 . S
C1247 C1246 1.372 . S
C1247 C1248 1.400 . S
C1247 C1252 1.490 . S
C1248 H1238 0.930 . S
C1248 C1247 1.400 . S
C1248 C1251 1.386 . S
H1249 C1265 0.930 . S
H1250 C1266 0.931 . S
C1251 H1239 0.929 . S
C1251 C1245 1.390 . S
C1251 C1248 1.386 . S
C1252 C1247 1.490 . S
C1252 C1254 1.395 . S
C1252 C1255 1.403 . S
H1253 C1259 0.930 . S
C1254 H1240 0.930 . S
C1254 C1252 1.395 . S
C1254 C1257 1.403 . S
C1255 C1252 1.403 . S
C1255 C1256 1.524 . S
C1255 C1259 1.400 . S
C1256 H1241 0.960 . S
C1256 H1242 0.960 . S
C1256 H1243 0.960 . S
C1256 C1255 1.524 . S
C1257 C1254 1.403 . S
C1257 C1258 1.392 . S
C1257 C1261 1.495 . S
C1258 C1257 1.392 . S
C1258 C1259 1.385 . S
C1258 C1260 1.478 . S
C1259 H1253 0.930 . S
C1259 C1255 1.400 . S
C1259 C1258 1.385 . S
C1260 C1258 1.478 . S
C1260 C1262 1.381 . S
C1260 C1266 1.383 . S
C1261 C1257 1.495 . S
C1261 H1267 0.959 . S
C1261 H1268 0.961 . S
C1261 H1269 0.960 . S
C1262 C1260 1.381 . S
C1262 C1263 1.394 . S
C1262 H1270 0.930 . S
C1263 C1262 1.394 . S
C1263 C1264 1.383 . S
C1263 H1271 0.929 . S
C1264 C1263 1.383 . S
C1264 C1265 1.377 . S
C1265 H1249 0.930 . S
C1265 C1264 1.377 . S
C1265 C1266 1.379 . S
C1266 H1250 0.931 . S
C1266 C1260 1.383 . S
C1266 C1265 1.379 . S
H1267 C1261 0.959 . S
H1268 C1261 0.961 . S
H1269 C1261 0.960 . S
H1270 C1262 0.930 . S
H1271 C1263 0.929 . S
H1272 C1280 0.929 . S
H1273 C1282 0.930 . S
H1274 C1284 0.930 . S
H1275 C1287 0.929 . S
H1276 C1290 0.930 . S
H1277 C1292 0.960 . S
H1278 C1292 0.960 . S
H1279 C1292 0.960 . S
C1280 H1272 0.929 . S
C1280 C1281 1.377 . S
C1280 C1282 1.384 . S
C1281 C1280 1.377 . S
C1281 C1287 1.390 . S
C1282 H1273 0.930 . S
C1282 C1280 1.384 . S
C1282 C1283 1.372 . S
C1283 C1282 1.372 . S
C1283 C1284 1.400 . S
C1283 C1288 1.490 . S
C1284 H1274 0.930 . S
C1284 C1283 1.400 . S
C1284 C1287 1.386 . S
H1285 C1301 0.930 . S
H1286 C1302 0.931 . S
C1287 H1275 0.929 . S
C1287 C1281 1.390 . S
C1287 C1284 1.386 . S
C1288 C1283 1.490 . S
C1288 C1290 1.395 . S
C1288 C1291 1.403 . S
H1289 C1295 0.930 . S
C1290 H1276 0.930 . S
C1290 C1288 1.395 . S
C1290 C1293 1.403 1_565 S
C1291 C1288 1.403 . S
C1291 C1292 1.524 . S
C1291 C1295 1.400 1_565 S
C1292 H1277 0.960 . S
C1292 H1278 0.960 . S
C1292 H1279 0.960 . S
C1292 C1291 1.524 . S
C1293 C1290 1.403 1_545 S
C1293 C1294 1.392 . S
C1293 C1297 1.495 . S
C1294 C1293 1.392 . S
C1294 C1295 1.385 . S
C1294 C1296 1.478 . S
C1295 H1289 0.930 . S
C1295 C1291 1.400 1_545 S
C1295 C1294 1.385 . S
C1296 C1294 1.478 . S
C1296 C1298 1.381 . S
C1296 C1302 1.383 . S
C1297 C1293 1.495 . S
C1297 H1303 0.959 . S
C1297 H1304 0.961 . S
C1297 H1305 0.960 . S
C1298 C1296 1.381 . S
C1298 C1299 1.394 . S
C1298 H1306 0.930 . S
C1299 C1298 1.394 . S
C1299 C1300 1.383 . S
C1299 H1307 0.929 . S
C1300 C1299 1.383 . S
C1300 C1301 1.377 . S
C1301 H1285 0.930 . S
C1301 C1300 1.377 . S
C1301 C1302 1.379 . S
C1302 H1286 0.931 . S
C1302 C1296 1.383 . S
C1302 C1301 1.379 . S
H1303 C1297 0.959 . S
H1304 C1297 0.961 . S
H1305 C1297 0.960 . S
H1306 C1298 0.930 . S
H1307 C1299 0.929 . S
H1308 C1316 0.929 . S
H1309 C1318 0.930 . S
H1310 C1320 0.930 . S
H1311 C1323 0.929 . S
H1312 C1326 0.930 . S
H1313 C1328 0.960 . S
H1314 C1328 0.960 . S
H1315 C1328 0.960 . S
C1316 H1308 0.929 . S
C1316 C1317 1.377 . S
C1316 C1318 1.384 . S
C1317 C1316 1.377 . S
C1317 C1323 1.390 . S
C1318 H1309 0.930 . S
C1318 C1316 1.384 . S
C1318 C1319 1.372 . S
C1319 C1318 1.372 . S
C1319 C1320 1.400 . S
C1319 C1324 1.490 . S
C1320 H1310 0.930 . S
C1320 C1319 1.400 . S
C1320 C1323 1.386 . S
H1321 C1337 0.930 . S
H1322 C1338 0.931 . S
C1323 H1311 0.929 . S
C1323 C1317 1.390 . S
C1323 C1320 1.386 . S
C1324 C1319 1.490 . S
C1324 C1326 1.395 . S
C1324 C1327 1.403 . S
H1325 C1331 0.930 . S
C1326 H1312 0.930 . S
C1326 C1324 1.395 . S
C1326 C1329 1.403 1_455 S
C1327 C1324 1.403 . S
C1327 C1328 1.524 . S
C1327 C1331 1.400 1_455 S
C1328 H1313 0.960 . S
C1328 H1314 0.960 . S
C1328 H1315 0.960 . S
C1328 C1327 1.524 . S
C1329 C1326 1.403 1_655 S
C1329 C1330 1.392 . S
C1329 C1333 1.495 . S
C1330 C1329 1.392 . S
C1330 C1331 1.385 . S
C1330 C1332 1.478 . S
C1331 H1325 0.930 . S
C1331 C1327 1.400 1_655 S
C1331 C1330 1.385 . S
C1332 C1330 1.478 . S
C1332 C1334 1.381 . S
C1332 C1338 1.383 . S
C1333 C1329 1.495 . S
C1333 H1339 0.959 . S
C1333 H1340 0.961 . S
C1333 H1341 0.960 . S
C1334 C1332 1.381 . S
C1334 C1335 1.394 . S
C1334 H1342 0.930 . S
C1335 C1334 1.394 . S
C1335 C1336 1.383 . S
C1335 H1343 0.929 . S
C1336 C1335 1.383 . S
C1336 C1337 1.377 . S
C1337 H1321 0.930 . S
C1337 C1336 1.377 . S
C1337 C1338 1.379 . S
C1338 H1322 0.931 . S
C1338 C1332 1.383 . S
C1338 C1337 1.379 . S
H1339 C1333 0.959 . S
H1340 C1333 0.961 . S
H1341 C1333 0.960 . S
H1342 C1334 0.930 . S
H1343 C1335 0.929 . S
H1344 C1352 0.929 . S
H1345 C1354 0.930 . S
H1346 C1356 0.930 . S
H1347 C1359 0.929 . S
H1348 C1362 0.930 . S
H1349 C1364 0.960 . S
H1350 C1364 0.960 . S
H1351 C1364 0.960 . S
C1352 H1344 0.929 . S
C1352 C1353 1.377 . S
C1352 C1354 1.384 . S
C1353 C1352 1.377 . S
C1353 C1359 1.390 . S
C1354 H1345 0.930 . S
C1354 C1352 1.384 . S
C1354 C1355 1.372 . S
C1355 C1354 1.372 . S
C1355 C1356 1.400 . S
C1355 C1360 1.490 . S
C1356 H1346 0.930 . S
C1356 C1355 1.400 . S
C1356 C1359 1.386 . S
H1357 C1373 0.930 . S
H1358 C1374 0.931 . S
C1359 H1347 0.929 . S
C1359 C1353 1.390 . S
C1359 C1356 1.386 . S
C1360 C1355 1.490 . S
C1360 C1362 1.395 . S
C1360 C1363 1.403 . S
H1361 C1367 0.930 . S
C1362 H1348 0.930 . S
C1362 C1360 1.395 . S
C1362 C1365 1.403 1_565 S
C1363 C1360 1.403 . S
C1363 C1364 1.524 . S
C1363 C1367 1.400 1_565 S
C1364 H1349 0.960 . S
C1364 H1350 0.960 . S
C1364 H1351 0.960 . S
C1364 C1363 1.524 . S
C1365 C1362 1.403 1_545 S
C1365 C1366 1.392 . S
C1365 C1369 1.495 . S
C1366 C1365 1.392 . S
C1366 C1367 1.385 . S
C1366 C1368 1.478 . S
C1367 H1361 0.930 . S
C1367 C1363 1.400 1_545 S
C1367 C1366 1.385 . S
C1368 C1366 1.478 . S
C1368 C1370 1.381 . S
C1368 C1374 1.383 . S
C1369 C1365 1.495 . S
C1369 H1375 0.959 . S
C1369 H1376 0.961 . S
C1369 H1377 0.960 . S
C1370 C1368 1.381 . S
C1370 C1371 1.394 . S
C1370 H1378 0.930 . S
C1371 C1370 1.394 . S
C1371 C1372 1.383 . S
C1371 H1379 0.929 . S
C1372 C1371 1.383 . S
C1372 C1373 1.377 . S
C1373 H1357 0.930 . S
C1373 C1372 1.377 . S
C1373 C1374 1.379 . S
C1374 H1358 0.931 . S
C1374 C1368 1.383 . S
C1374 C1373 1.379 . S
H1375 C1369 0.959 . S
H1376 C1369 0.961 . S
H1377 C1369 0.960 . S
H1378 C1370 0.930 . S
H1379 C1371 0.929 . S
H1380 C1388 0.929 . S
H1381 C1390 0.930 . S
H1382 C1392 0.930 . S
H1383 C1395 0.929 . S
H1384 C1398 0.930 . S
H1385 C1400 0.960 . S
H1386 C1400 0.960 . S
H1387 C1400 0.960 . S
C1388 H1380 0.929 . S
C1388 C1389 1.377 . S
C1388 C1390 1.384 . S
C1389 C1388 1.377 . S
C1389 C1395 1.390 . S
C1390 H1381 0.930 . S
C1390 C1388 1.384 . S
C1390 C1391 1.372 . S
C1391 C1390 1.372 . S
C1391 C1392 1.400 . S
C1391 C1396 1.490 . S
C1392 H1382 0.930 . S
C1392 C1391 1.400 . S
C1392 C1395 1.386 . S
H1393 C1409 0.930 . S
H1394 C1410 0.931 . S
C1395 H1383 0.929 . S
C1395 C1389 1.390 . S
C1395 C1392 1.386 . S
C1396 C1391 1.490 . S
C1396 C1398 1.395 . S
C1396 C1399 1.403 . S
H1397 C1403 0.930 . S
C1398 H1384 0.930 . S
C1398 C1396 1.395 . S
C1398 C1401 1.403 1_655 S
C1399 C1396 1.403 . S
C1399 C1400 1.524 . S
C1399 C1403 1.400 1_655 S
C1400 H1385 0.960 . S
C1400 H1386 0.960 . S
C1400 H1387 0.960 . S
C1400 C1399 1.524 . S
C1401 C1398 1.403 1_455 S
C1401 C1402 1.392 . S
C1401 C1405 1.495 . S
C1402 C1401 1.392 . S
C1402 C1403 1.385 . S
C1402 C1404 1.478 . S
C1403 H1397 0.930 . S
C1403 C1399 1.400 1_455 S
C1403 C1402 1.385 . S
C1404 C1402 1.478 . S
C1404 C1406 1.381 . S
C1404 C1410 1.383 . S
C1405 C1401 1.495 . S
C1405 H1411 0.959 . S
C1405 H1412 0.961 . S
C1405 H1413 0.960 . S
C1406 C1404 1.381 . S
C1406 C1407 1.394 . S
C1406 H1414 0.930 . S
C1407 C1406 1.394 . S
C1407 C1408 1.383 . S
C1407 H1415 0.929 . S
C1408 C1407 1.383 . S
C1408 C1409 1.377 . S
C1409 H1393 0.930 . S
C1409 C1408 1.377 . S
C1409 C1410 1.379 . S
C1410 H1394 0.931 . S
C1410 C1404 1.383 . S
C1410 C1409 1.379 . S
H1411 C1405 0.959 . S
H1412 C1405 0.961 . S
H1413 C1405 0.960 . S
H1414 C1406 0.930 . S
H1415 C1407 0.929 . S
H1416 C1424 0.929 . S
H1417 C1426 0.930 . S
H1418 C1428 0.930 . S
H1419 C1431 0.929 . S
H1420 C1434 0.930 . S
H1421 C1436 0.960 . S
H1422 C1436 0.960 . S
H1423 C1436 0.960 . S
C1424 H1416 0.929 . S
C1424 C1425 1.377 . S
C1424 C1426 1.384 . S
C1425 C1424 1.377 . S
C1425 C1431 1.390 . S
C1426 H1417 0.930 . S
C1426 C1424 1.384 . S
C1426 C1427 1.372 . S
C1427 C1426 1.372 . S
C1427 C1428 1.400 . S
C1427 C1432 1.490 . S
C1428 H1418 0.930 . S
C1428 C1427 1.400 . S
C1428 C1431 1.386 . S
H1429 C1445 0.930 . S
H1430 C1446 0.931 . S
C1431 H1419 0.929 . S
C1431 C1425 1.390 . S
C1431 C1428 1.386 . S
C1432 C1427 1.490 . S
C1432 C1434 1.395 . S
C1432 C1435 1.403 . S
H1433 C1439 0.930 . S
C1434 H1420 0.930 . S
C1434 C1432 1.395 . S
C1434 C1437 1.403 . S
C1435 C1432 1.403 . S
C1435 C1436 1.524 . S
C1435 C1439 1.400 . S
C1436 H1421 0.960 . S
C1436 H1422 0.960 . S
C1436 H1423 0.960 . S
C1436 C1435 1.524 . S
C1437 C1434 1.403 . S
C1437 C1438 1.392 . S
C1437 C1441 1.495 . S
C1438 C1437 1.392 . S
C1438 C1439 1.385 . S
C1438 C1440 1.478 . S
C1439 H1433 0.930 . S
C1439 C1435 1.400 . S
C1439 C1438 1.385 . S
C1440 C1438 1.478 . S
C1440 C1442 1.381 . S
C1440 C1446 1.383 . S
C1441 C1437 1.495 . S
C1441 H1447 0.959 . S
C1441 H1448 0.961 . S
C1441 H1449 0.960 . S
C1442 C1440 1.381 . S
C1442 C1443 1.394 . S
C1442 H1450 0.930 . S
C1443 C1442 1.394 . S
C1443 C1444 1.383 . S
C1443 H1451 0.929 . S
C1444 C1443 1.383 . S
C1444 C1445 1.377 . S
C1445 H1429 0.930 . S
C1445 C1444 1.377 . S
C1445 C1446 1.379 . S
C1446 H1430 0.931 . S
C1446 C1440 1.383 . S
C1446 C1445 1.379 . S
H1447 C1441 0.959 . S
H1448 C1441 0.961 . S
H1449 C1441 0.960 . S
H1450 C1442 0.930 . S
H1451 C1443 0.929 . S
H1452 C1460 0.929 . S
H1453 C1462 0.930 . S
H1454 C1464 0.930 . S
H1455 C1467 0.929 . S
H1456 C1470 0.930 . S
H1457 C1472 0.960 . S
H1458 C1472 0.960 . S
H1459 C1472 0.960 . S
C1460 H1452 0.929 . S
C1460 C1461 1.377 . S
C1460 C1462 1.384 . S
C1461 C1460 1.377 . S
C1461 C1467 1.390 . S
C1462 H1453 0.930 . S
C1462 C1460 1.384 . S
C1462 C1463 1.372 . S
C1463 C1462 1.372 . S
C1463 C1464 1.400 . S
C1463 C1468 1.490 . S
C1464 H1454 0.930 . S
C1464 C1463 1.400 . S
C1464 C1467 1.386 . S
H1465 C1481 0.930 . S
H1466 C1482 0.931 . S
C1467 H1455 0.929 . S
C1467 C1461 1.390 . S
C1467 C1464 1.386 . S
C1468 C1463 1.490 . S
C1468 C1470 1.395 . S
C1468 C1471 1.403 . S
H1469 C1475 0.930 . S
C1470 H1456 0.930 . S
C1470 C1468 1.395 . S
C1470 C1473 1.403 . S
C1471 C1468 1.403 . S
C1471 C1472 1.524 . S
C1471 C1475 1.400 . S
C1472 H1457 0.960 . S
C1472 H1458 0.960 . S
C1472 H1459 0.960 . S
C1472 C1471 1.524 . S
C1473 C1470 1.403 . S
C1473 C1474 1.392 . S
C1473 C1477 1.495 . S
C1474 C1473 1.392 . S
C1474 C1475 1.385 . S
C1474 C1476 1.478 . S
C1475 H1469 0.930 . S
C1475 C1471 1.400 . S
C1475 C1474 1.385 . S
C1476 C1474 1.478 . S
C1476 C1478 1.381 . S
C1476 C1482 1.383 . S
C1477 C1473 1.495 . S
C1477 H1483 0.959 . S
C1477 H1484 0.961 . S
C1477 H1485 0.960 . S
C1478 C1476 1.381 . S
C1478 C1479 1.394 . S
C1478 H1486 0.930 . S
C1479 C1478 1.394 . S
C1479 C1480 1.383 . S
C1479 H1487 0.929 . S
C1480 C1479 1.383 . S
C1480 C1481 1.377 . S
C1481 H1465 0.930 . S
C1481 C1480 1.377 . S
C1481 C1482 1.379 . S
C1482 H1466 0.931 . S
C1482 C1476 1.383 . S
C1482 C1481 1.379 . S
H1483 C1477 0.959 . S
H1484 C1477 0.961 . S
H1485 C1477 0.960 . S
H1486 C1478 0.930 . S
H1487 C1479 0.929 . S
H1488 C1496 0.929 . S
H1489 C1498 0.930 . S
H1490 C1500 0.930 . S
H1491 C1503 0.929 . S
H1492 C1506 0.930 . S
H1493 C1508 0.960 . S
H1494 C1508 0.960 . S
H1495 C1508 0.960 . S
C1496 H1488 0.929 . S
C1496 C1497 1.377 . S
C1496 C1498 1.384 . S
C1497 C1496 1.377 . S
C1497 C1503 1.390 . S
C1498 H1489 0.930 . S
C1498 C1496 1.384 . S
C1498 C1499 1.372 . S
C1499 C1498 1.372 . S
C1499 C1500 1.400 . S
C1499 C1504 1.490 . S
C1500 H1490 0.930 . S
C1500 C1499 1.400 . S
C1500 C1503 1.386 . S
H1501 C1517 0.930 . S
H1502 C1518 0.931 . S
C1503 H1491 0.929 . S
C1503 C1497 1.390 . S
C1503 C1500 1.386 . S
C1504 C1499 1.490 . S
C1504 C1506 1.395 . S
C1504 C1507 1.403 . S
H1505 C1511 0.930 . S
C1506 H1492 0.930 . S
C1506 C1504 1.395 . S
C1506 C1509 1.403 . S
C1507 C1504 1.403 . S
C1507 C1508 1.524 . S
C1507 C1511 1.400 . S
C1508 H1493 0.960 . S
C1508 H1494 0.960 . S
C1508 H1495 0.960 . S
C1508 C1507 1.524 . S
C1509 C1506 1.403 . S
C1509 C1510 1.392 . S
C1509 C1513 1.495 . S
C1510 C1509 1.392 . S
C1510 C1511 1.385 . S
C1510 C1512 1.478 . S
C1511 H1505 0.930 . S
C1511 C1507 1.400 . S
C1511 C1510 1.385 . S
C1512 C1510 1.478 . S
C1512 C1514 1.381 . S
C1512 C1518 1.383 . S
C1513 C1509 1.495 . S
C1513 H1519 0.959 . S
C1513 H1520 0.961 . S
C1513 H1521 0.960 . S
C1514 C1512 1.381 . S
C1514 C1515 1.394 . S
C1514 H1522 0.930 . S
C1515 C1514 1.394 . S
C1515 C1516 1.383 . S
C1515 H1523 0.929 . S
C1516 C1515 1.383 . S
C1516 C1517 1.377 . S
C1517 H1501 0.930 . S
C1517 C1516 1.377 . S
C1517 C1518 1.379 . S
C1518 H1502 0.931 . S
C1518 C1512 1.383 . S
C1518 C1517 1.379 . S
H1519 C1513 0.959 . S
H1520 C1513 0.961 . S
H1521 C1513 0.960 . S
H1522 C1514 0.930 . S
H1523 C1515 0.929 . S
H1524 C1532 0.929 . S
H1525 C1534 0.930 . S
H1526 C1536 0.930 . S
H1527 C1539 0.929 . S
H1528 C1542 0.930 . S
H1529 C1544 0.960 . S
H1530 C1544 0.960 . S
H1531 C1544 0.960 . S
C1532 H1524 0.929 . S
C1532 C1533 1.377 . S
C1532 C1534 1.384 . S
C1533 C1532 1.377 . S
C1533 C1539 1.390 . S
C1534 H1525 0.930 . S
C1534 C1532 1.384 . S
C1534 C1535 1.372 . S
C1535 C1534 1.372 . S
C1535 C1536 1.400 . S
C1535 C1540 1.490 . S
C1536 H1526 0.930 . S
C1536 C1535 1.400 . S
C1536 C1539 1.386 . S
H1537 C1553 0.930 . S
H1538 C1554 0.931 . S
C1539 H1527 0.929 . S
C1539 C1533 1.390 . S
C1539 C1536 1.386 . S
C1540 C1535 1.490 . S
C1540 C1542 1.395 . S
C1540 C1543 1.403 . S
H1541 C1547 0.930 . S
C1542 H1528 0.930 . S
C1542 C1540 1.395 . S
C1542 C1545 1.403 1_554 S
C1543 C1540 1.403 . S
C1543 C1544 1.524 . S
C1543 C1547 1.400 1_554 S
C1544 H1529 0.960 . S
C1544 H1530 0.960 . S
C1544 H1531 0.960 . S
C1544 C1543 1.524 . S
C1545 C1542 1.403 1_556 S
C1545 C1546 1.392 . S
C1545 C1549 1.495 . S
C1546 C1545 1.392 . S
C1546 C1547 1.385 . S
C1546 C1548 1.478 . S
C1547 H1541 0.930 . S
C1547 C1543 1.400 1_556 S
C1547 C1546 1.385 . S
C1548 C1546 1.478 . S
C1548 C1550 1.381 . S
C1548 C1554 1.383 . S
C1549 C1545 1.495 . S
C1549 H1555 0.959 . S
C1549 H1556 0.961 . S
C1549 H1557 0.960 . S
C1550 C1548 1.381 . S
C1550 C1551 1.394 . S
C1550 H1558 0.930 . S
C1551 C1550 1.394 . S
C1551 C1552 1.383 . S
C1551 H1559 0.929 . S
C1552 C1551 1.383 . S
C1552 C1553 1.377 . S
C1553 H1537 0.930 . S
C1553 C1552 1.377 . S
C1553 C1554 1.379 . S
C1554 H1538 0.931 . S
C1554 C1548 1.383 . S
C1554 C1553 1.379 . S
H1555 C1549 0.959 . S
H1556 C1549 0.961 . S
H1557 C1549 0.960 . S
H1558 C1550 0.930 . S
H1559 C1551 0.929 . S
H1560 C1568 0.929 . S
H1561 C1570 0.930 . S
H1562 C1572 0.930 . S
H1563 C1575 0.929 . S
H1564 C1578 0.930 . S
H1565 C1580 0.960 . S
H1566 C1580 0.960 . S
H1567 C1580 0.960 . S
C1568 H1560 0.929 . S
C1568 C1569 1.377 . S
C1568 C1570 1.384 . S
C1569 C1568 1.377 . S
C1569 C1575 1.390 . S
C1570 H1561 0.930 . S
C1570 C1568 1.384 . S
C1570 C1571 1.372 . S
C1571 C1570 1.372 . S
C1571 C1572 1.400 . S
C1571 C1576 1.490 . S
C1572 H1562 0.930 . S
C1572 C1571 1.400 . S
C1572 C1575 1.386 . S
H1573 C1589 0.930 . S
H1574 C1590 0.931 . S
C1575 H1563 0.929 . S
C1575 C1569 1.390 . S
C1575 C1572 1.386 . S
C1576 C1571 1.490 . S
C1576 C1578 1.395 . S
C1576 C1579 1.403 . S
H1577 C1583 0.930 . S
C1578 H1564 0.930 . S
C1578 C1576 1.395 . S
C1578 C1581 1.403 . S
C1579 C1576 1.403 . S
C1579 C1580 1.524 . S
C1579 C1583 1.400 . S
C1580 H1565 0.960 . S
C1580 H1566 0.960 . S
C1580 H1567 0.960 . S
C1580 C1579 1.524 . S
C1581 C1578 1.403 . S
C1581 C1582 1.392 . S
C1581 C1585 1.495 . S
C1582 C1581 1.392 . S
C1582 C1583 1.385 . S
C1582 C1584 1.478 . S
C1583 H1577 0.930 . S
C1583 C1579 1.400 . S
C1583 C1582 1.385 . S
C1584 C1582 1.478 . S
C1584 C1586 1.381 . S
C1584 C1590 1.383 . S
C1585 C1581 1.495 . S
C1585 H1591 0.959 . S
C1585 H1592 0.961 . S
C1585 H1593 0.960 . S
C1586 C1584 1.381 . S
C1586 C1587 1.394 . S
C1586 H1594 0.930 . S
C1587 C1586 1.394 . S
C1587 C1588 1.383 . S
C1587 H1595 0.929 . S
C1588 C1587 1.383 . S
C1588 C1589 1.377 . S
C1589 H1573 0.930 . S
C1589 C1588 1.377 . S
C1589 C1590 1.379 . S
C1590 H1574 0.931 . S
C1590 C1584 1.383 . S
C1590 C1589 1.379 . S
H1591 C1585 0.959 . S
H1592 C1585 0.961 . S
H1593 C1585 0.960 . S
H1594 C1586 0.930 . S
H1595 C1587 0.929 . S
H1596 C1604 0.929 . S
H1597 C1606 0.930 . S
H1598 C1608 0.930 . S
H1599 C1611 0.929 . S
H1600 C1614 0.930 . S
H1601 C1616 0.960 . S
H1602 C1616 0.960 . S
H1603 C1616 0.960 . S
C1604 H1596 0.929 . S
C1604 C1605 1.377 . S
C1604 C1606 1.384 . S
C1605 C1604 1.377 . S
C1605 C1611 1.390 . S
C1606 H1597 0.930 . S
C1606 C1604 1.384 . S
C1606 C1607 1.372 . S
C1607 C1606 1.372 . S
C1607 C1608 1.400 . S
C1607 C1612 1.490 . S
C1608 H1598 0.930 . S
C1608 C1607 1.400 . S
C1608 C1611 1.386 . S
H1609 C1625 0.930 . S
H1610 C1626 0.931 . S
C1611 H1599 0.929 . S
C1611 C1605 1.390 . S
C1611 C1608 1.386 . S
C1612 C1607 1.490 . S
C1612 C1614 1.395 . S
C1612 C1615 1.403 . S
H1613 C1619 0.930 . S
C1614 H1600 0.930 . S
C1614 C1612 1.395 . S
C1614 C1617 1.403 1_556 S
C1615 C1612 1.403 . S
C1615 C1616 1.524 . S
C1615 C1619 1.400 1_556 S
C1616 H1601 0.960 . S
C1616 H1602 0.960 . S
C1616 H1603 0.960 . S
C1616 C1615 1.524 . S
C1617 C1614 1.403 1_554 S
C1617 C1618 1.392 . S
C1617 C1621 1.495 . S
C1618 C1617 1.392 . S
C1618 C1619 1.385 . S
C1618 C1620 1.478 . S
C1619 H1613 0.930 . S
C1619 C1615 1.400 1_554 S
C1619 C1618 1.385 . S
C1620 C1618 1.478 . S
C1620 C1622 1.381 . S
C1620 C1626 1.383 . S
C1621 C1617 1.495 . S
C1621 H1627 0.959 . S
C1621 H1628 0.961 . S
C1621 H1629 0.960 . S
C1622 C1620 1.381 . S
C1622 C1623 1.394 . S
C1622 H1630 0.930 . S
C1623 C1622 1.394 . S
C1623 C1624 1.383 . S
C1623 H1631 0.929 . S
C1624 C1623 1.383 . S
C1624 C1625 1.377 . S
C1625 H1609 0.930 . S
C1625 C1624 1.377 . S
C1625 C1626 1.379 . S
C1626 H1610 0.931 . S
C1626 C1620 1.383 . S
C1626 C1625 1.379 . S
H1627 C1621 0.959 . S
H1628 C1621 0.961 . S
H1629 C1621 0.960 . S
H1630 C1622 0.930 . S
H1631 C1623 0.929 . S
H1632 C1640 0.929 . S
H1633 C1642 0.930 . S
H1634 C1644 0.930 . S
H1635 C1647 0.929 . S
H1636 C1650 0.930 . S
H1637 C1652 0.960 . S
H1638 C1652 0.960 . S
H1639 C1652 0.960 . S
C1640 H1632 0.929 . S
C1640 C1641 1.377 . S
C1640 C1642 1.384 . S
C1641 C1640 1.377 . S
C1641 C1647 1.390 . S
C1642 H1633 0.930 . S
C1642 C1640 1.384 . S
C1642 C1643 1.372 . S
C1643 C1642 1.372 . S
C1643 C1644 1.400 . S
C1643 C1648 1.490 . S
C1644 H1634 0.930 . S
C1644 C1643 1.400 . S
C1644 C1647 1.386 . S
H1645 C1661 0.930 . S
H1646 C1662 0.931 . S
C1647 H1635 0.929 . S
C1647 C1641 1.390 . S
C1647 C1644 1.386 . S
C1648 C1643 1.490 . S
C1648 C1650 1.395 . S
C1648 C1651 1.403 . S
H1649 C1655 0.930 . S
C1650 H1636 0.930 . S
C1650 C1648 1.395 . S
C1650 C1653 1.403 . S
C1651 C1648 1.403 . S
C1651 C1652 1.524 . S
C1651 C1655 1.400 . S
C1652 H1637 0.960 . S
C1652 H1638 0.960 . S
C1652 H1639 0.960 . S
C1652 C1651 1.524 . S
C1653 C1650 1.403 . S
C1653 C1654 1.392 . S
C1653 C1657 1.495 . S
C1654 C1653 1.392 . S
C1654 C1655 1.385 . S
C1654 C1656 1.478 . S
C1655 H1649 0.930 . S
C1655 C1651 1.400 . S
C1655 C1654 1.385 . S
C1656 C1654 1.478 . S
C1656 C1658 1.381 . S
C1656 C1662 1.383 . S
C1657 C1653 1.495 . S
C1657 H1663 0.959 . S
C1657 H1664 0.961 . S
C1657 H1665 0.960 . S
C1658 C1656 1.381 . S
C1658 C1659 1.394 . S
C1658 H1666 0.930 . S
C1659 C1658 1.394 . S
C1659 C1660 1.383 . S
C1659 H1667 0.929 . S
C1660 C1659 1.383 . S
C1660 C1661 1.377 . S
C1661 H1645 0.930 . S
C1661 C1660 1.377 . S
C1661 C1662 1.379 . S
C1662 H1646 0.931 . S
C1662 C1656 1.383 . S
C1662 C1661 1.379 . S
H1663 C1657 0.959 . S
H1664 C1657 0.961 . S
H1665 C1657 0.960 . S
H1666 C1658 0.930 . S
H1667 C1659 0.929 . S
H1668 C1676 0.929 . S
H1669 C1678 0.930 . S
H1670 C1680 0.930 . S
H1671 C1683 0.929 . S
H1672 C1686 0.930 . S
H1673 C1688 0.960 . S
H1674 C1688 0.960 . S
H1675 C1688 0.960 . S
C1676 H1668 0.929 . S
C1676 C1677 1.377 . S
C1676 C1678 1.384 . S
C1677 C1676 1.377 . S
C1677 C1683 1.390 . S
C1678 H1669 0.930 . S
C1678 C1676 1.384 . S
C1678 C1679 1.372 . S
C1679 C1678 1.372 . S
C1679 C1680 1.400 . S
C1679 C1684 1.490 . S
C1680 H1670 0.930 . S
C1680 C1679 1.400 . S
C1680 C1683 1.386 . S
H1681 C1697 0.930 . S
H1682 C1698 0.931 . S
C1683 H1671 0.929 . S
C1683 C1677 1.390 . S
C1683 C1680 1.386 . S
C1684 C1679 1.490 . S
C1684 C1686 1.395 . S
C1684 C1687 1.403 . S
H1685 C1691 0.930 . S
C1686 H1672 0.930 . S
C1686 C1684 1.395 . S
C1686 C1689 1.403 . S
C1687 C1684 1.403 . S
C1687 C1688 1.524 . S
C1687 C1691 1.400 . S
C1688 H1673 0.960 . S
C1688 H1674 0.960 . S
C1688 H1675 0.960 . S
C1688 C1687 1.524 . S
C1689 C1686 1.403 . S
C1689 C1690 1.392 . S
C1689 C1693 1.495 . S
C1690 C1689 1.392 . S
C1690 C1691 1.385 . S
C1690 C1692 1.478 . S
C1691 H1685 0.930 . S
C1691 C1687 1.400 . S
C1691 C1690 1.385 . S
C1692 C1690 1.478 . S
C1692 C1694 1.381 . S
C1692 C1698 1.383 . S
C1693 C1689 1.495 . S
C1693 H1699 0.959 . S
C1693 H1700 0.961 . S
C1693 H1701 0.960 . S
C1694 C1692 1.381 . S
C1694 C1695 1.394 . S
C1694 H1702 0.930 . S
C1695 C1694 1.394 . S
C1695 C1696 1.383 . S
C1695 H1703 0.929 . S
C1696 C1695 1.383 . S
C1696 C1697 1.377 . S
C1697 H1681 0.930 . S
C1697 C1696 1.377 . S
C1697 C1698 1.379 . S
C1698 H1682 0.931 . S
C1698 C1692 1.383 . S
C1698 C1697 1.379 . S
H1699 C1693 0.959 . S
H1700 C1693 0.961 . S
H1701 C1693 0.960 . S
H1702 C1694 0.930 . S
H1703 C1695 0.929 . S
H1704 C1712 0.929 . S
H1705 C1714 0.930 . S
H1706 C1716 0.930 . S
H1707 C1719 0.929 . S
H1708 C1722 0.930 . S
H1709 C1724 0.960 1_565 S
H1710 C1724 0.960 . S
H1711 C1724 0.960 . S
C1712 H1704 0.929 . S
C1712 C1713 1.377 . S
C1712 C1714 1.384 . S
C1713 C1712 1.377 . S
C1713 C1719 1.390 . S
C1714 H1705 0.930 . S
C1714 C1712 1.384 . S
C1714 C1715 1.372 . S
C1715 C1714 1.372 . S
C1715 C1716 1.400 . S
C1715 C1720 1.490 . S
C1716 H1706 0.930 . S
C1716 C1715 1.400 . S
C1716 C1719 1.386 . S
H1717 C1733 0.930 . S
H1718 C1734 0.931 . S
C1719 H1707 0.929 . S
C1719 C1713 1.390 . S
C1719 C1716 1.386 . S
C1720 C1715 1.490 . S
C1720 C1722 1.395 . S
C1720 C1723 1.403 . S
H1721 C1727 0.930 . S
C1722 H1708 0.930 . S
C1722 C1720 1.395 . S
C1722 C1725 1.403 1_545 S
C1723 C1720 1.403 . S
C1723 C1724 1.524 . S
C1723 C1727 1.400 1_545 S
C1724 H1709 0.960 1_545 S
C1724 H1710 0.960 . S
C1724 H1711 0.960 . S
C1724 C1723 1.524 . S
C1725 C1722 1.403 1_565 S
C1725 C1726 1.392 . S
C1725 C1729 1.495 . S
C1726 C1725 1.392 . S
C1726 C1727 1.385 . S
C1726 C1728 1.478 . S
C1727 H1721 0.930 . S
C1727 C1723 1.400 1_565 S
C1727 C1726 1.385 . S
C1728 C1726 1.478 . S
C1728 C1730 1.381 . S
C1728 C1734 1.383 . S
C1729 C1725 1.495 . S
C1729 H1735 0.959 1_565 S
C1729 H1736 0.961 . S
C1729 H1737 0.960 . S
C1730 C1728 1.381 . S
C1730 C1731 1.394 . S
C1730 H1738 0.930 . S
C1731 C1730 1.394 . S
C1731 C1732 1.383 . S
C1731 H1739 0.929 . S
C1732 C1731 1.383 . S
C1732 C1733 1.377 . S
C1733 H1717 0.930 . S
C1733 C1732 1.377 . S
C1733 C1734 1.379 . S
C1734 H1718 0.931 . S
C1734 C1728 1.383 . S
C1734 C1733 1.379 . S
H1735 C1729 0.959 1_545 S
H1736 C1729 0.961 . S
H1737 C1729 0.960 . S
H1738 C1730 0.930 . S
H1739 C1731 0.929 . S
H1740 C1748 0.929 . S
H1741 C1750 0.930 . S
H1742 C1752 0.930 . S
H1743 C1755 0.929 . S
H1744 C1758 0.930 . S
H1745 C1760 0.960 . S
H1746 C1760 0.960 . S
H1747 C1760 0.960 . S
C1748 H1740 0.929 . S
C1748 C1749 1.377 . S
C1748 C1750 1.384 . S
C1749 C1748 1.377 . S
C1749 C1755 1.390 . S
C1750 H1741 0.930 . S
C1750 C1748 1.384 . S
C1750 C1751 1.372 . S
C1751 C1750 1.372 . S
C1751 C1752 1.400 . S
C1751 C1756 1.490 . S
C1752 H1742 0.930 . S
C1752 C1751 1.400 . S
C1752 C1755 1.386 . S
H1753 C1769 0.930 . S
H1754 C1770 0.931 . S
C1755 H1743 0.929 . S
C1755 C1749 1.390 . S
C1755 C1752 1.386 . S
C1756 C1751 1.490 . S
C1756 C1758 1.395 . S
C1756 C1759 1.403 . S
H1757 C1763 0.930 . S
C1758 H1744 0.930 . S
C1758 C1756 1.395 . S
C1758 C1761 1.403 1_455 S
C1759 C1756 1.403 . S
C1759 C1760 1.524 . S
C1759 C1763 1.400 1_455 S
C1760 H1745 0.960 . S
C1760 H1746 0.960 . S
C1760 H1747 0.960 . S
C1760 C1759 1.524 . S
C1761 C1758 1.403 1_655 S
C1761 C1762 1.392 . S
C1761 C1765 1.495 . S
C1762 C1761 1.392 . S
C1762 C1763 1.385 . S
C1762 C1764 1.478 . S
C1763 H1757 0.930 . S
C1763 C1759 1.400 1_655 S
C1763 C1762 1.385 . S
C1764 C1762 1.478 . S
C1764 C1766 1.381 . S
C1764 C1770 1.383 . S
C1765 C1761 1.495 . S
C1765 H1771 0.959 . S
C1765 H1772 0.961 . S
C1765 H1773 0.960 . S
C1766 C1764 1.381 . S
C1766 C1767 1.394 . S
C1766 H1774 0.930 . S
C1767 C1766 1.394 . S
C1767 C1768 1.383 . S
C1767 H1775 0.929 . S
C1768 C1767 1.383 . S
C1768 C1769 1.377 . S
C1769 H1753 0.930 . S
C1769 C1768 1.377 . S
C1769 C1770 1.379 . S
C1770 H1754 0.931 . S
C1770 C1764 1.383 . S
C1770 C1769 1.379 . S
H1771 C1765 0.959 . S
H1772 C1765 0.961 . S
H1773 C1765 0.960 . S
H1774 C1766 0.930 . S
H1775 C1767 0.929 . S
H1776 C1784 0.929 . S
H1777 C1786 0.930 . S
H1778 C1788 0.930 . S
H1779 C1791 0.929 . S
H1780 C1794 0.930 . S
H1781 C1796 0.960 1_565 S
H1782 C1796 0.960 . S
H1783 C1796 0.960 . S
C1784 H1776 0.929 . S
C1784 C1785 1.377 . S
C1784 C1786 1.384 . S
C1785 C1784 1.377 . S
C1785 C1791 1.390 . S
C1786 H1777 0.930 . S
C1786 C1784 1.384 . S
C1786 C1787 1.372 . S
C1787 C1786 1.372 . S
C1787 C1788 1.400 . S
C1787 C1792 1.490 . S
C1788 H1778 0.930 . S
C1788 C1787 1.400 . S
C1788 C1791 1.386 . S
H1789 C1805 0.930 . S
H1790 C1806 0.931 . S
C1791 H1779 0.929 . S
C1791 C1785 1.390 . S
C1791 C1788 1.386 . S
C1792 C1787 1.490 . S
C1792 C1794 1.395 . S
C1792 C1795 1.403 . S
H1793 C1799 0.930 . S
C1794 H1780 0.930 . S
C1794 C1792 1.395 . S
C1794 C1797 1.358 1_545 S
C1795 C1792 1.403 . S
C1795 C1796 1.524 . S
C1795 C1799 1.400 1_545 S
C1796 H1781 0.960 1_545 S
C1796 H1782 0.960 . S
C1796 H1783 0.960 . S
C1796 C1795 1.524 . S
C1797 C1794 1.358 1_565 S
C1797 C1798 1.435 . S
C1797 C1801 1.498 . S
C1798 C1797 1.435 . S
C1798 C1799 1.385 . S
C1798 C1800 1.478 . S
C1799 H1793 0.930 . S
C1799 C1795 1.400 1_565 S
C1799 C1798 1.385 . S
C1800 C1798 1.478 . S
C1800 C1802 1.381 . S
C1800 C1806 1.383 . S
C1801 C1797 1.498 . S
C1801 H1807 0.959 1_565 S
C1801 H1808 0.961 . S
C1801 H1809 0.960 . S
C1802 C1800 1.381 . S
C1802 C1803 1.394 . S
C1802 H1810 0.930 . S
C1803 C1802 1.394 . S
C1803 C1804 1.383 . S
C1803 H1811 0.929 . S
C1804 C1803 1.383 . S
C1804 C1805 1.377 . S
C1805 H1789 0.930 . S
C1805 C1804 1.377 . S
C1805 C1806 1.379 . S
C1806 H1790 0.931 . S
C1806 C1800 1.383 . S
C1806 C1805 1.379 . S
H1807 C1801 0.959 1_545 S
H1808 C1801 0.961 . S
H1809 C1801 0.960 . S
H1810 C1802 0.930 . S
H1811 C1803 0.929 . S
H1812 C1820 0.929 . S
H1813 C1822 0.930 . S
H1814 C1824 0.930 . S
H1815 C1827 0.929 . S
H1816 C1830 0.930 . S
H1817 C1832 0.960 . S
H1818 C1832 0.960 . S
H1819 C1832 0.960 . S
C1820 H1812 0.929 . S
C1820 C1821 1.377 . S
C1820 C1822 1.384 . S
C1821 C1820 1.377 . S
C1821 C1827 1.390 . S
C1822 H1813 0.930 . S
C1822 C1820 1.384 . S
C1822 C1823 1.372 . S
C1823 C1822 1.372 . S
C1823 C1824 1.400 . S
C1823 C1828 1.490 . S
C1824 H1814 0.930 . S
C1824 C1823 1.400 . S
C1824 C1827 1.386 . S
H1825 C1841 0.930 . S
H1826 C1842 0.931 . S
C1827 H1815 0.929 . S
C1827 C1821 1.390 . S
C1827 C1824 1.386 . S
C1828 C1823 1.490 . S
C1828 C1830 1.395 . S
C1828 C1831 1.403 . S
H1829 C1835 0.930 . S
C1830 H1816 0.930 . S
C1830 C1828 1.395 . S
C1830 C1833 1.403 1_455 S
C1831 C1828 1.403 . S
C1831 C1832 1.524 . S
C1831 C1835 1.400 1_455 S
C1832 H1817 0.960 . S
C1832 H1818 0.960 . S
C1832 H1819 0.960 . S
C1832 C1831 1.524 . S
C1833 C1830 1.403 1_655 S
C1833 C1834 1.392 . S
C1833 C1837 1.495 . S
C1834 C1833 1.392 . S
C1834 C1835 1.385 . S
C1834 C1836 1.478 . S
C1835 H1829 0.930 . S
C1835 C1831 1.400 1_655 S
C1835 C1834 1.385 . S
C1836 C1834 1.478 . S
C1836 C1838 1.381 . S
C1836 C1842 1.383 . S
C1837 C1833 1.495 . S
C1837 H1843 0.959 . S
C1837 H1844 0.961 . S
C1837 H1845 0.960 . S
C1838 C1836 1.381 . S
C1838 C1839 1.394 . S
C1838 H1846 0.930 . S
C1839 C1838 1.394 . S
C1839 C1840 1.383 . S
C1839 H1847 0.929 . S
C1840 C1839 1.383 . S
C1840 C1841 1.377 . S
C1841 H1825 0.930 . S
C1841 C1840 1.377 . S
C1841 C1842 1.379 . S
C1842 H1826 0.931 . S
C1842 C1836 1.383 . S
C1842 C1841 1.379 . S
H1843 C1837 0.959 . S
H1844 C1837 0.961 . S
H1845 C1837 0.960 . S
H1846 C1838 0.930 . S
H1847 C1839 0.929 . S
H1848 C1856 0.929 . S
H1849 C1858 0.930 . S
H1850 C1860 0.930 . S
H1851 C1863 0.929 . S
H1852 C1866 0.930 . S
H1853 C1868 0.960 . S
H1854 C1868 0.960 . S
H1855 C1868 0.960 . S
C1856 H1848 0.929 . S
C1856 C1857 1.377 . S
C1856 C1858 1.384 . S
C1857 C1856 1.377 . S
C1857 C1863 1.390 . S
C1858 H1849 0.930 . S
C1858 C1856 1.384 . S
C1858 C1859 1.372 . S
C1859 C1858 1.372 . S
C1859 C1860 1.400 . S
C1859 C1864 1.490 . S
C1860 H1850 0.930 . S
C1860 C1859 1.400 . S
C1860 C1863 1.386 . S
H1861 C1877 0.930 . S
H1862 C1878 0.931 . S
C1863 H1851 0.929 . S
C1863 C1857 1.390 . S
C1863 C1860 1.386 . S
C1864 C1859 1.490 . S
C1864 C1866 1.395 . S
C1864 C1867 1.403 . S
H1865 C1871 0.930 . S
C1866 H1852 0.930 . S
C1866 C1864 1.395 . S
C1866 C1869 1.403 . S
C1867 C1864 1.403 . S
C1867 C1868 1.524 . S
C1867 C1871 1.400 . S
C1868 H1853 0.960 . S
C1868 H1854 0.960 . S
C1868 H1855 0.960 . S
C1868 C1867 1.524 . S
C1869 C1866 1.403 . S
C1869 C1870 1.392 . S
C1869 C1873 1.495 . S
C1870 C1869 1.392 . S
C1870 C1871 1.385 . S
C1870 C1872 1.478 . S
C1871 H1865 0.930 . S
C1871 C1867 1.400 . S
C1871 C1870 1.385 . S
C1872 C1870 1.478 . S
C1872 C1874 1.381 . S
C1872 C1878 1.383 . S
C1873 C1869 1.495 . S
C1873 H1879 0.959 . S
C1873 H1880 0.961 . S
C1873 H1881 0.960 . S
C1874 C1872 1.381 . S
C1874 C1875 1.394 . S
C1874 H1882 0.930 . S
C1875 C1874 1.394 . S
C1875 C1876 1.383 . S
C1875 H1883 0.929 . S
C1876 C1875 1.383 . S
C1876 C1877 1.377 . S
C1877 H1861 0.930 . S
C1877 C1876 1.377 . S
C1877 C1878 1.379 . S
C1878 H1862 0.931 . S
C1878 C1872 1.383 . S
C1878 C1877 1.379 . S
H1879 C1873 0.959 . S
H1880 C1873 0.961 . S
H1881 C1873 0.960 . S
H1882 C1874 0.930 . S
H1883 C1875 0.929 . S
H1884 C1892 0.929 . S
H1885 C1894 0.930 . S
H1886 C1896 0.930 . S
H1887 C1899 0.929 . S
H1888 C1902 0.930 . S
H1889 C1904 0.960 . S
H1890 C1904 0.960 . S
H1891 C1904 0.960 . S
C1892 H1884 0.929 . S
C1892 C1893 1.377 . S
C1892 C1894 1.384 . S
C1893 C1892 1.377 . S
C1893 C1899 1.390 . S
C1894 H1885 0.930 . S
C1894 C1892 1.384 . S
C1894 C1895 1.372 . S
C1895 C1894 1.372 . S
C1895 C1896 1.400 . S
C1895 C1900 1.490 . S
C1896 H1886 0.930 . S
C1896 C1895 1.400 . S
C1896 C1899 1.386 . S
H1897 C1913 0.930 . S
H1898 C1914 0.931 . S
C1899 H1887 0.929 . S
C1899 C1893 1.390 . S
C1899 C1896 1.386 . S
C1900 C1895 1.490 . S
C1900 C1902 1.395 . S
C1900 C1903 1.403 . S
H1901 C1907 0.930 . S
C1902 H1888 0.930 . S
C1902 C1900 1.395 . S
C1902 C1905 1.403 . S
C1903 C1900 1.403 . S
C1903 C1904 1.524 . S
C1903 C1907 1.400 . S
C1904 H1889 0.960 . S
C1904 H1890 0.960 . S
C1904 H1891 0.960 . S
C1904 C1903 1.524 . S
C1905 C1902 1.403 . S
C1905 C1906 1.392 . S
C1905 C1909 1.495 . S
C1906 C1905 1.392 . S
C1906 C1907 1.385 . S
C1906 C1908 1.478 . S
C1907 H1901 0.930 . S
C1907 C1903 1.400 . S
C1907 C1906 1.385 . S
C1908 C1906 1.478 . S
C1908 C1910 1.381 . S
C1908 C1914 1.383 . S
C1909 C1905 1.495 . S
C1909 H1915 0.959 . S
C1909 H1916 0.961 . S
C1909 H1917 0.960 . S
C1910 C1908 1.381 . S
C1910 C1911 1.394 . S
C1910 H1918 0.930 . S
C1911 C1910 1.394 . S
C1911 C1912 1.383 . S
C1911 H1919 0.929 . S
C1912 C1911 1.383 . S
C1912 C1913 1.377 . S
C1913 H1897 0.930 . S
C1913 C1912 1.377 . S
C1913 C1914 1.379 . S
C1914 H1898 0.931 . S
C1914 C1908 1.383 . S
C1914 C1913 1.379 . S
H1915 C1909 0.959 . S
H1916 C1909 0.961 . S
H1917 C1909 0.960 . S
H1918 C1910 0.930 . S
H1919 C1911 0.929 . S
H1920 C1928 0.929 . S
H1921 C1930 0.930 . S
H1922 C1932 0.930 . S
H1923 C1935 0.929 . S
H1924 C1938 0.930 . S
H1925 C1940 0.960 . S
H1926 C1940 0.960 . S
H1927 C1940 0.960 . S
C1928 H1920 0.929 . S
C1928 C1929 1.377 . S
C1928 C1930 1.384 . S
C1929 C1928 1.377 . S
C1929 C1935 1.390 . S
C1930 H1921 0.930 . S
C1930 C1928 1.384 . S
C1930 C1931 1.372 . S
C1931 C1930 1.372 . S
C1931 C1932 1.400 . S
C1931 C1936 1.490 . S
C1932 H1922 0.930 . S
C1932 C1931 1.400 . S
C1932 C1935 1.386 . S
H1933 C1949 0.930 . S
H1934 C1950 0.931 . S
C1935 H1923 0.929 . S
C1935 C1929 1.390 . S
C1935 C1932 1.386 . S
C1936 C1931 1.490 . S
C1936 C1938 1.395 . S
C1936 C1939 1.403 . S
H1937 C1943 0.930 . S
C1938 H1924 0.930 . S
C1938 C1936 1.395 . S
C1938 C1941 1.403 . S
C1939 C1936 1.403 . S
C1939 C1940 1.524 . S
C1939 C1943 1.400 . S
C1940 H1925 0.960 . S
C1940 H1926 0.960 . S
C1940 H1927 0.960 . S
C1940 C1939 1.524 . S
C1941 C1938 1.403 . S
C1941 C1942 1.392 . S
C1941 C1945 1.495 . S
C1942 C1941 1.392 . S
C1942 C1943 1.385 . S
C1942 C1944 1.478 . S
C1943 H1937 0.930 . S
C1943 C1939 1.400 . S
C1943 C1942 1.385 . S
C1944 C1942 1.478 . S
C1944 C1946 1.381 . S
C1944 C1950 1.383 . S
C1945 C1941 1.495 . S
C1945 H1951 0.959 . S
C1945 H1952 0.961 . S
C1945 H1953 0.960 . S
C1946 C1944 1.381 . S
C1946 C1947 1.394 . S
C1946 H1954 0.930 . S
C1947 C1946 1.394 . S
C1947 C1948 1.383 . S
C1947 H1955 0.929 . S
C1948 C1947 1.383 . S
C1948 C1949 1.377 . S
C1949 H1933 0.930 . S
C1949 C1948 1.377 . S
C1949 C1950 1.379 . S
C1950 H1934 0.931 . S
C1950 C1944 1.383 . S
C1950 C1949 1.379 . S
H1951 C1945 0.959 . S
H1952 C1945 0.961 . S
H1953 C1945 0.960 . S
H1954 C1946 0.930 . S
H1955 C1947 0.929 . S
H1956 C1964 0.929 . S
H1957 C1966 0.930 . S
H1958 C1968 0.930 . S
H1959 C1971 0.929 . S
H1960 C1974 0.930 . S
H1961 C1976 0.960 . S
H1962 C1976 0.960 . S
H1963 C1976 0.960 . S
C1964 H1956 0.929 . S
C1964 C1965 1.377 . S
C1964 C1966 1.384 . S
C1965 C1964 1.377 . S
C1965 C1971 1.390 . S
C1966 H1957 0.930 . S
C1966 C1964 1.384 . S
C1966 C1967 1.372 . S
C1967 C1966 1.372 . S
C1967 C1968 1.400 . S
C1967 C1972 1.490 . S
C1968 H1958 0.930 . S
C1968 C1967 1.400 . S
C1968 C1971 1.386 . S
H1969 C1985 0.930 . S
H1970 C1986 0.931 . S
C1971 H1959 0.929 . S
C1971 C1965 1.390 . S
C1971 C1968 1.386 . S
C1972 C1967 1.490 . S
C1972 C1974 1.395 . S
C1972 C1975 1.403 . S
H1973 C1979 0.930 . S
C1974 H1960 0.930 . S
C1974 C1972 1.395 . S
C1974 C1977 1.403 1_554 S
C1975 C1972 1.403 . S
C1975 C1976 1.524 . S
C1975 C1979 1.400 1_554 S
C1976 H1961 0.960 . S
C1976 H1962 0.960 . S
C1976 H1963 0.960 . S
C1976 C1975 1.524 . S
C1977 C1974 1.403 1_556 S
C1977 C1978 1.392 . S
C1977 C1981 1.495 . S
C1978 C1977 1.392 . S
C1978 C1979 1.385 . S
C1978 C1980 1.478 . S
C1979 H1973 0.930 . S
C1979 C1975 1.400 1_556 S
C1979 C1978 1.385 . S
C1980 C1978 1.478 . S
C1980 C1982 1.381 . S
C1980 C1986 1.383 . S
C1981 C1977 1.495 . S
C1981 H1987 0.959 . S
C1981 H1988 0.961 . S
C1981 H1989 0.960 . S
C1982 C1980 1.381 . S
C1982 C1983 1.394 . S
C1982 H1990 0.930 . S
C1983 C1982 1.394 . S
C1983 C1984 1.383 . S
C1983 H1991 0.929 . S
C1984 C1983 1.383 . S
C1984 C1985 1.377 . S
C1985 H1969 0.930 . S
C1985 C1984 1.377 . S
C1985 C1986 1.379 . S
C1986 H1970 0.931 . S
C1986 C1980 1.383 . S
C1986 C1985 1.379 . S
H1987 C1981 0.959 . S
H1988 C1981 0.961 . S
H1989 C1981 0.960 . S
H1990 C1982 0.930 . S
H1991 C1983 0.929 . S
H1992 C2000 0.929 . S
H1993 C2002 0.930 . S
H1994 C2004 0.930 . S
H1995 C2007 0.929 . S
H1996 C2010 0.930 . S
H1997 C2012 0.960 . S
H1998 C2012 0.960 . S
H1999 C2012 0.960 . S
C2000 H1992 0.929 . S
C2000 C2001 1.377 . S
C2000 C2002 1.384 . S
C2001 C2000 1.377 . S
C2001 C2007 1.390 . S
C2002 H1993 0.930 . S
C2002 C2000 1.384 . S
C2002 C2003 1.372 . S
C2003 C2002 1.372 . S
C2003 C2004 1.400 . S
C2003 C2008 1.490 . S
C2004 H1994 0.930 . S
C2004 C2003 1.400 . S
C2004 C2007 1.386 . S
H2005 C2021 0.930 . S
H2006 C2022 0.931 . S
C2007 H1995 0.929 . S
C2007 C2001 1.390 . S
C2007 C2004 1.386 . S
C2008 C2003 1.490 . S
C2008 C2010 1.395 . S
C2008 C2011 1.403 . S
H2009 C2015 0.930 . S
C2010 H1996 0.930 . S
C2010 C2008 1.395 . S
C2010 C2013 1.403 . S
C2011 C2008 1.403 . S
C2011 C2012 1.524 . S
C2011 C2015 1.400 . S
C2012 H1997 0.960 . S
C2012 H1998 0.960 . S
C2012 H1999 0.960 . S
C2012 C2011 1.524 . S
C2013 C2010 1.403 . S
C2013 C2014 1.392 . S
C2013 C2017 1.495 . S
C2014 C2013 1.392 . S
C2014 C2015 1.385 . S
C2014 C2016 1.478 . S
C2015 H2009 0.930 . S
C2015 C2011 1.400 . S
C2015 C2014 1.385 . S
C2016 C2014 1.478 . S
C2016 C2018 1.381 . S
C2016 C2022 1.383 . S
C2017 C2013 1.495 . S
C2017 H2023 0.959 . S
C2017 H2024 0.961 . S
C2017 H2025 0.960 . S
C2018 C2016 1.381 . S
C2018 C2019 1.394 . S
C2018 H2026 0.930 . S
C2019 C2018 1.394 . S
C2019 C2020 1.383 . S
C2019 H2027 0.929 . S
C2020 C2019 1.383 . S
C2020 C2021 1.377 . S
C2021 H2005 0.930 . S
C2021 C2020 1.377 . S
C2021 C2022 1.379 . S
C2022 H2006 0.931 . S
C2022 C2016 1.383 . S
C2022 C2021 1.379 . S
H2023 C2017 0.959 . S
H2024 C2017 0.961 . S
H2025 C2017 0.960 . S
H2026 C2018 0.930 . S
H2027 C2019 0.929 . S
H2028 C2036 0.929 . S
H2029 C2038 0.930 . S
H2030 C2040 0.930 . S
H2031 C2043 0.929 . S
H2032 C2046 0.930 . S
H2033 C2048 0.960 . S
H2034 C2048 0.960 . S
H2035 C2048 0.960 . S
C2036 H2028 0.929 . S
C2036 C2037 1.377 . S
C2036 C2038 1.384 . S
C2037 C2036 1.377 . S
C2037 C2043 1.390 . S
C2038 H2029 0.930 . S
C2038 C2036 1.384 . S
C2038 C2039 1.372 . S
C2039 C2038 1.372 . S
C2039 C2040 1.400 . S
C2039 C2044 1.490 . S
C2040 H2030 0.930 . S
C2040 C2039 1.400 . S
C2040 C2043 1.386 . S
H2041 C2057 0.930 . S
H2042 C2058 0.931 . S
C2043 H2031 0.929 . S
C2043 C2037 1.390 . S
C2043 C2040 1.386 . S
C2044 C2039 1.490 . S
C2044 C2046 1.395 . S
C2044 C2047 1.403 . S
H2045 C2051 0.930 . S
C2046 H2032 0.930 . S
C2046 C2044 1.395 . S
C2046 C2049 1.403 1_554 S
C2047 C2044 1.403 . S
C2047 C2048 1.524 . S
C2047 C2051 1.400 1_554 S
C2048 H2033 0.960 . S
C2048 H2034 0.960 . S
C2048 H2035 0.960 . S
C2048 C2047 1.524 . S
C2049 C2046 1.403 1_556 S
C2049 C2050 1.392 . S
C2049 C2053 1.495 . S
C2050 C2049 1.392 . S
C2050 C2051 1.385 . S
C2050 C2052 1.478 . S
C2051 H2045 0.930 . S
C2051 C2047 1.400 1_556 S
C2051 C2050 1.385 . S
C2052 C2050 1.478 . S
C2052 C2054 1.381 . S
C2052 C2058 1.383 . S
C2053 C2049 1.495 . S
C2053 H2059 0.959 . S
C2053 H2060 0.961 . S
C2053 H2061 0.960 . S
C2054 C2052 1.381 . S
C2054 C2055 1.394 . S
C2054 H2062 0.930 . S
C2055 C2054 1.394 . S
C2055 C2056 1.383 . S
C2055 H2063 0.929 . S
C2056 C2055 1.383 . S
C2056 C2057 1.377 . S
C2057 H2041 0.930 . S
C2057 C2056 1.377 . S
C2057 C2058 1.379 . S
C2058 H2042 0.931 . S
C2058 C2052 1.383 . S
C2058 C2057 1.379 . S
H2059 C2053 0.959 . S
H2060 C2053 0.961 . S
H2061 C2053 0.960 . S
H2062 C2054 0.930 . S
H2063 C2055 0.929 . S
C345 C57 1.448 . S
C364 C13 1.456 . S
C381 C15 1.451 . S
C400 C71 1.439 . S
C417 C97 1.450 . S
C436 C40 1.443 . S
C453 C99 1.450 . S
C472 C43 1.444 . S
C489 C208 1.451 . S
C508 C112 1.439 . S
C525 C210 1.448 . S
C544 C127 1.455 . S
C561 C141 1.448 . S
C580 C168 1.457 . S
C597 C182 1.450 . S
C616 C154 1.443 . S
C633 C224 1.449 . S
C652 C295 1.449 . S
C669 C251 1.451 . S
C688 C266 1.441 . S
C705 C252 1.450 . S
C724 C293 1.441 . S
C741 C320 1.448 . S
C760 C322 1.451 . S
C777 C55 1.448 . S
C796 C83 1.434 . S
C813 C1 1.447 . S
C832 C85 1.443 . S
C849 C111 1.452 . S
C868 C27 1.450 . S
C885 C28 1.452 . S
C904 C69 1.445 . S
C921 C334 1.452 . S
C940 C264 1.454 . S
C957 C278 1.452 . S
C976 C307 1.457 . S
C993 C281 1.450 . S
C1012 C308 1.459 . S
C1029 C239 1.447 . S
C1048 C236 1.441 . S
C1065 C166 1.447 . S
C1084 C139 1.440 . S
C1101 C222 1.452 . S
C1120 C194 1.451 . S
C1137 C180 1.449 . S
C1156 C196 1.456 . S
C1173 C153 1.447 . S
C1192 C124 1.444 . S
C1209 C321 1.476 . S
C1228 C12 1.468 . S
C1245 C225 1.474 . S
C1264 C14 1.475 . S
C1281 C323 1.476 . S
C1300 C41 1.468 . S
C1317 C294 1.475 . S
C1336 C42 1.469 . S
C1353 C253 1.474 . S
C1372 C56 1.472 . S
C1389 C70 1.476 . S
C1408 C267 1.468 . S
C1425 C292 1.476 . S
C1444 C96 1.468 . S
C1461 C250 1.475 . S
C1480 C98 1.468 . S
C1497 C183 1.474 . S
C1516 C113 1.472 . S
C1533 C209 1.475 . S
C1552 C126 1.471 . S
C1569 C211 1.475 . S
C1588 C140 1.471 . S
C1605 C155 1.474 . S
C1624 C169 1.474 . S
C1641 C82 1.474 . S
C1660 C152 1.468 . S
C1677 C84 1.475 . S
C1696 C167 1.473 . S
C1713 C125 1.475 . S
C1732 C110 1.472 . S
C1749 C68 1.474 . S
C1768 C138 1.468 . S
C1785 C197 1.476 . S
C1804 C54 1.475 . S
C1821 C0 1.474 . S
C1840 C223 1.470 . S
C1857 C181 1.474 . S
C1876 C26 1.471 . S
C1893 C29 1.476 . S
C1912 C195 1.474 . S
C1929 C238 1.475 . S
C1948 C335 1.469 . S
C1965 C306 1.474 . S
C1984 C265 1.473 . S
C2001 C309 1.474 . S
C2020 C279 1.468 . S
C2037 C237 1.474 . S
C2056 C280 1.468 . S
