# Generated by pormake.
# Topology fcu, (12)-cn, num edge types: 1
# Building blocks:
#     Node 0, Type 0, BuildingBlock: EZIPEK_clean_sbu_0, # of connection points: 12
#     Node 1, Type 0, BuildingBlock: EZIPEK_clean_sbu_0, # of connection points: 12
#     Node 2, Type 0, BuildingBlock: EZIPEK_clean_sbu_0, # of connection points: 12
#     Node 3, Type 0, BuildingBlock: EZIPEK_clean_sbu_0, # of connection points: 12
#     Edge 4, Type (0, 0), BuildingBlock: XUDNAN_clean_linker_2, # of connection points: 2
#     Edge 5, Type (0, 0), BuildingBlock: XUDNAN_clean_linker_2, # of connection points: 2
#     Edge 6, Type (0, 0), BuildingBlock: XUDNAN_clean_linker_2, # of connection points: 2
#     Edge 7, Type (0, 0), BuildingBlock: XUDNAN_clean_linker_2, # of connection points: 2
#     Edge 8, Type (0, 0), BuildingBlock: XUDNAN_clean_linker_2, # of connection points: 2
#     Edge 9, Type (0, 0), BuildingBlock: XUDNAN_clean_linker_2, # of connection points: 2
#     Edge 10, Type (0, 0), BuildingBlock: XUDNAN_clean_linker_2, # of connection points: 2
#     Edge 11, Type (0, 0), BuildingBlock: XUDNAN_clean_linker_2, # of connection points: 2
#     Edge 12, Type (0, 0), BuildingBlock: XUDNAN_clean_linker_2, # of connection points: 2
#     Edge 13, Type (0, 0), BuildingBlock: XUDNAN_clean_linker_2, # of connection points: 2
#     Edge 14, Type (0, 0), BuildingBlock: XUDNAN_clean_linker_2, # of connection points: 2
#     Edge 15, Type (0, 0), BuildingBlock: XUDNAN_clean_linker_2, # of connection points: 2
#     Edge 16, Type (0, 0), BuildingBlock: XUDNAN_clean_linker_2, # of connection points: 2
#     Edge 17, Type (0, 0), BuildingBlock: XUDNAN_clean_linker_2, # of connection points: 2
#     Edge 18, Type (0, 0), BuildingBlock: XUDNAN_clean_linker_2, # of connection points: 2
#     Edge 19, Type (0, 0), BuildingBlock: XUDNAN_clean_linker_2, # of connection points: 2
#     Edge 20, Type (0, 0), BuildingBlock: XUDNAN_clean_linker_2, # of connection points: 2
#     Edge 21, Type (0, 0), BuildingBlock: XUDNAN_clean_linker_2, # of connection points: 2
#     Edge 22, Type (0, 0), BuildingBlock: XUDNAN_clean_linker_2, # of connection points: 2
#     Edge 23, Type (0, 0), BuildingBlock: XUDNAN_clean_linker_2, # of connection points: 2
#     Edge 24, Type (0, 0), BuildingBlock: XUDNAN_clean_linker_2, # of connection points: 2
#     Edge 25, Type (0, 0), BuildingBlock: XUDNAN_clean_linker_2, # of connection points: 2
#     Edge 26, Type (0, 0), BuildingBlock: XUDNAN_clean_linker_2, # of connection points: 2
#     Edge 27, Type (0, 0), BuildingBlock: XUDNAN_clean_linker_2, # of connection points: 2
# Relax obj value: 0.000
# Max RMSD: 0.000
# Mean RMSD: 0.000
data_MOF--net-fcu--node1-EZIPEK_clean_sbu_0--edge1-XUDNAN_clean_linker_2
_symmetry_space_group_name_H-M    P1
_symmetry_Int_Tables_number       1
_symmetry_cell_setting            triclinic
loop_
_symmetry_equiv_pos_as_xyz
'x, y, z'
_cell_length_a     26.754362
_cell_length_b     26.740852
_cell_length_c     26.747591
_cell_angle_alpha  90.140878
_cell_angle_beta   89.875869
_cell_angle_gamma 89.979562
loop_
_atom_site_label
_atom_site_type_symbol
_atom_site_fract_x
_atom_site_fract_y
_atom_site_fract_z
_atom_type_partial_charge
C0 C 0.99055 0.90371 0.14279 0.0
C1 C 1.00661 0.88007 0.902 0.0
C2 C 0.01748 0.1437 0.11862 0.0
C3 C 0.03975 0.11882 0.87932 0.0
C4 C 0.90811 0.14496 0.99457 0.0
C5 C 0.8809 0.90417 1.00692 0.0
C6 C 0.14685 0.11951 0.02078 0.0
C7 C 0.12124 0.87748 0.0278 0.0
C8 C 0.14711 0.98863 0.90406 0.0
C9 C 0.90718 1.00824 0.87777 0.0
C10 C 0.12211 0.01495 0.14452 0.0
C11 C 0.88284 0.03676 0.11879 0.0
Eu12 Eu 1.00367 0.91756 0.02018 0.0
O13 O 0.97095 0.96868 0.96775 0.0
O14 O 0.0498 0.96666 0.06466 0.0
Eu15 Eu 0.92016 0.02164 1.0009 0.0
Eu16 Eu 0.1091 1.00103 0.02175 0.0
O17 O 0.96026 0.97648 0.05441 0.0
O18 O 0.05809 0.95803 0.97648 0.0
Eu19 Eu 1.00506 0.02103 0.10413 0.0
Eu20 Eu 0.02459 1.00177 0.918 0.0
O21 O 0.97143 0.06422 0.04555 0.0
O22 O 0.97906 0.05568 0.95712 0.0
O23 O 0.06944 0.04602 0.96776 0.0
O24 O 0.05838 0.05412 0.05437 0.0
Eu25 Eu 0.02523 0.10416 1.00137 0.0
O26 O 0.9943 0.88308 0.09737 0.0
O27 O 1.00195 0.86879 0.95038 0.0
O28 O 0.02335 0.15278 0.07001 0.0
O29 O 0.03637 0.13916 0.92484 0.0
O30 O 0.88681 0.09975 0.99528 0.0
O31 O 0.87181 0.95278 1.00069 0.0
O32 O 0.15826 0.07094 0.02443 0.0
O33 O 0.14238 0.9228 0.02756 0.0
O34 O 0.10156 0.99052 0.88377 0.0
O35 O 0.95604 1.00301 0.86905 0.0
O36 O 0.07341 0.02127 0.15316 0.0
O37 O 0.92892 0.03517 0.13762 0.0
O38 O 0.10163 0.13833 1.0115 0.0
O39 O 0.95721 0.15369 0.99507 0.0
O40 O 0.07218 0.86846 0.02614 0.0
O41 O 0.92568 0.88379 0.01565 0.0
O42 O 0.01559 0.9253 0.88313 0.0
O43 O 0.03664 0.06999 0.86923 0.0
O44 O 0.99287 0.95267 0.15257 0.0
O45 O 1.01022 0.09866 0.13894 0.0
O46 O 0.87094 0.031 0.07053 0.0
O47 O 0.88637 0.01642 0.92264 0.0
O48 O 0.14274 1.00544 0.09989 0.0
O49 O 0.15738 0.99209 0.95278 0.0
C50 C 0.03652 0.38103 0.62124 0.0
C51 C 1.00378 0.62145 0.64399 0.0
C52 C 0.01946 0.40346 0.37981 0.0
C53 C 0.99361 0.64367 0.40332 0.0
C54 C 0.12375 0.53437 0.38149 0.0
C55 C 0.146 0.50872 0.62173 0.0
C56 C 0.88339 0.51211 0.40223 0.0
C57 C 0.90319 0.50248 0.64194 0.0
C58 C 0.88154 0.61736 0.52335 0.0
C59 C 0.12337 0.64416 0.52353 0.0
C60 C 0.90879 0.37708 0.50928 0.0
C61 C 0.14892 0.40519 0.49799 0.0
Eu62 Eu 0.02263 0.50408 0.60755 0.0
O63 O 0.05794 0.55724 0.55768 0.0
O64 O 0.97958 0.45776 0.55684 0.0
Eu65 Eu 0.10795 0.52269 0.50433 0.0
Eu66 Eu 0.92226 0.49998 0.51945 0.0
O67 O 0.06611 0.47043 0.54837 0.0
O68 O 0.97109 0.54641 0.56299 0.0
Eu69 Eu 0.02558 0.41826 0.50301 0.0
Eu70 Eu 1.00527 0.60586 0.52098 0.0
O71 O 0.05937 0.47704 0.45976 0.0
O72 O 0.05071 0.56586 0.46788 0.0
O73 O 0.96301 0.55414 0.4765 0.0
O74 O 0.97224 0.46619 0.46651 0.0
Eu75 Eu 1.00614 0.52086 0.41805 0.0
O76 O 0.03079 0.42637 0.64187 0.0
O77 O 0.01686 0.57464 0.65585 0.0
O78 O 1.01057 0.45159 0.37026 0.0
O79 O 0.99608 0.59793 0.38311 0.0
O80 O 0.14371 0.53229 0.42729 0.0
O81 O 0.15577 0.51586 0.57333 0.0
O82 O 0.87407 0.50274 0.45032 0.0
O83 O 0.8858 0.4999 0.59535 0.0
O84 O 0.92671 0.63879 0.52292 0.0
O85 O 0.07472 0.65543 0.52632 0.0
O86 O 0.95751 0.36857 0.50292 0.0
O87 O 0.1036 0.38421 0.49916 0.0
O88 O 0.92874 0.51943 0.38246 0.0
O89 O 0.07515 0.53125 0.37111 0.0
O90 O 0.9514 0.50181 0.65509 0.0
O91 O 0.10044 0.50497 0.64213 0.0
O92 O 0.9973 0.63904 0.59788 0.0
O93 O 0.99709 0.65399 0.45205 0.0
O94 O 0.03596 0.37103 0.57229 0.0
O95 O 0.02635 0.38357 0.42512 0.0
O96 O 0.15771 0.45436 0.49769 0.0
O97 O 0.14239 0.59889 0.5148 0.0
O98 O 0.88812 0.42195 0.51711 0.0
O99 O 0.87283 0.56824 0.5234 0.0
C100 C 0.51616 0.87623 0.6174 0.0
C101 C 0.53861 0.11664 0.6428 0.0
C102 C 0.48737 0.90072 0.37878 0.0
C103 C 0.51435 0.14155 0.40306 0.0
C104 C 0.62464 0.01795 0.37786 0.0
C105 C 0.64761 0.98858 0.61704 0.0
C106 C 0.38272 0.02921 0.40331 0.0
C107 C 0.40733 1.00393 0.64399 0.0
C108 C 0.40819 0.14286 0.5269 0.0
C109 C 0.6486 0.11577 0.50767 0.0
C110 C 0.38302 0.9009 0.52128 0.0
C111 C 0.62107 0.87569 0.49024 0.0
Eu112 Eu 0.5248 0.99928 0.60403 0.0
O113 O 0.56881 0.04344 0.55355 0.0
O114 O 0.47127 0.96629 0.55419 0.0
Eu115 Eu 0.60832 0.99862 0.49948 0.0
Eu116 Eu 0.42087 0.01916 0.52125 0.0
O117 O 0.55812 0.95605 0.54494 0.0
O118 O 0.47961 0.05359 0.56487 0.0
Eu119 Eu 0.50436 0.91648 0.50072 0.0
Eu120 Eu 0.52572 0.10208 0.52006 0.0
O121 O 0.55051 0.96406 0.45504 0.0
O122 O 0.55852 0.05188 0.46608 0.0
O123 O 0.47261 0.06086 0.47566 0.0
O124 O 0.46119 0.97487 0.46665 0.0
Eu125 Eu 0.50592 0.01818 0.41525 0.0
O126 O 0.52284 0.92133 0.63799 0.0
O127 O 0.53552 0.06783 0.65271 0.0
O128 O 0.49554 0.94849 0.36644 0.0
O129 O 0.50675 0.09662 0.38236 0.0
O130 O 0.64324 1.00819 0.42307 0.0
O131 O 0.65711 0.98984 0.56801 0.0
O132 O 0.37287 0.0272 0.45224 0.0
O133 O 0.38698 0.01431 0.59952 0.0
O134 O 0.45734 0.15156 0.52632 0.0
O135 O 0.60361 0.1363 0.51519 0.0
O136 O 0.42842 0.88199 0.51304 0.0
O137 O 0.57199 0.86688 0.49106 0.0
O138 O 0.42808 0.02664 0.38235 0.0
O139 O 0.57613 0.02183 0.36644 0.0
O140 O 0.45597 0.99747 0.65265 0.0
O141 O 0.60225 0.99131 0.63788 0.0
O142 O 0.53548 0.13697 0.5973 0.0
O143 O 0.52309 0.15042 0.45134 0.0
O144 O 0.50886 0.86728 0.56888 0.0
O145 O 0.48776 0.88242 0.42515 0.0
O146 O 0.64221 0.92092 0.49193 0.0
O147 O 0.65748 0.06704 0.50163 0.0
O148 O 0.37148 0.94951 0.52362 0.0
O149 O 0.38705 0.09751 0.52635 0.0
C150 C 0.51226 0.61673 0.8783 0.0
C151 C 0.48819 0.6418 0.1194 0.0
C152 C 0.53777 0.37701 0.90432 0.0
C153 C 0.51424 0.4028 0.14486 0.0
C154 C 0.6475 0.40353 0.02699 0.0
C155 C 0.62091 0.64403 1.007 0.0
C156 C 0.40538 0.37757 0.02226 0.0
C157 C 0.38005 0.61645 0.99613 0.0
C158 C 0.38172 0.51388 0.11965 0.0
C159 C 0.62211 0.53073 0.14297 0.0
C160 C 0.40609 0.48654 0.88032 0.0
C161 C 0.64472 0.51706 0.90147 0.0
Eu162 Eu 0.50355 0.60439 1.0016 0.0
O163 O 0.54927 0.56468 0.05499 0.0
O164 O 0.46963 0.54498 0.95857 0.0
Eu165 Eu 0.60781 0.52124 0.01998 0.0
Eu166 Eu 0.42073 0.49918 1.00265 0.0
O167 O 0.55668 0.55407 0.96761 0.0
O168 O 0.4615 0.55282 0.046 0.0
Eu169 Eu 0.5231 0.49974 0.91871 0.0
Eu170 Eu 0.50457 0.51957 0.10442 0.0
O171 O 0.56685 0.46656 0.97704 0.0
O172 O 0.55827 0.47517 0.06392 0.0
O173 O 0.47061 0.46545 0.05574 0.0
O174 O 0.47856 0.45479 0.96822 0.0
Eu175 Eu 0.52384 0.4153 0.02192 0.0
O176 O 0.50523 0.63766 0.92325 0.0
O177 O 0.49338 0.65364 0.07108 0.0
O178 O 0.53368 0.3668 0.95303 0.0
O179 O 0.52292 0.38215 0.10012 0.0
O180 O 0.65658 0.45259 0.0254 0.0
O181 O 0.64139 0.59932 0.0159 0.0
O182 O 0.38651 0.42291 0.01361 0.0
O183 O 0.3713 0.56731 0.99585 0.0
O184 O 0.42719 0.51851 0.13964 0.0
O185 O 0.57315 0.52947 0.15256 0.0
O186 O 0.4549 0.48886 0.87044 0.0
O187 O 0.59919 0.50831 0.88326 0.0
O188 O 0.45398 0.36606 0.02511 0.0
O189 O 0.60222 0.38231 0.02698 0.0
O190 O 0.42527 0.63772 0.99718 0.0
O191 O 0.5723 0.65295 1.00062 0.0
O192 O 0.49096 0.5958 0.13836 0.0
O193 O 0.50579 0.45121 0.15341 0.0
O194 O 0.51932 0.56807 0.86965 0.0
O195 O 0.53531 0.42266 0.88415 0.0
O196 O 0.65645 0.52211 0.94976 0.0
O197 O 0.64268 0.52827 0.09741 0.0
O198 O 0.38567 0.48922 0.92587 0.0
O199 O 0.37204 0.50603 0.07136 0.0
H200 H 1.01093 0.14746 0.22222 0.0
H201 H 0.02891 0.24098 0.09039 0.0
H202 H 0.03318 0.31525 0.14357 0.0
H203 H 0.93302 0.23352 0.29094 0.0
H204 H 0.96081 0.22017 0.35078 0.0
H205 H 0.95987 0.17285 0.30272 0.0
H206 H 0.0561 0.16387 0.30917 0.0
H207 H 0.05732 0.21122 0.35721 0.0
H208 H 0.09501 0.21838 0.30175 0.0
H209 H 0.03464 0.37943 0.20827 0.0
H210 H 0.03238 0.43213 0.28318 0.0
H211 H 0.01345 0.29992 0.3758 0.0
C212 C 0.01578 0.18353 0.20457 0.0
C213 C 0.01959 0.188 0.15193 0.0
C214 C 0.02592 0.23608 0.13046 0.0
C215 C 0.02847 0.27877 0.16036 0.0
C216 C 0.02468 0.2731 0.2118 0.0
C217 C 0.01845 0.22696 0.23401 0.0
C218 C 0.015 0.23219 0.29049 0.0
C219 C 0.96415 0.21358 0.30986 0.0
C220 C 0.05845 0.20479 0.31616 0.0
C221 C 0.0199 0.28852 0.29611 0.0
C222 C 0.02557 0.31101 0.25002 0.0
C223 C 0.03021 0.36243 0.24468 0.0
C224 C 0.02867 0.39205 0.28764 0.0
C225 C 0.02245 0.3703 0.33556 0.0
C226 C 0.01844 0.31767 0.33979 0.0
H227 H 0.78779 0.99526 0.12589 0.0
H228 H 0.88878 0.10104 0.19621 0.0
H229 H 0.82931 0.11251 0.26541 0.0
H230 H 0.66872 0.05806 0.16739 0.0
H231 H 0.63741 0.99942 0.1784 0.0
H232 H 0.68463 1.00387 0.13041 0.0
H233 H 0.73303 0.93079 0.17122 0.0
H234 H 0.68622 0.92638 0.21946 0.0
H235 H 0.75089 0.93531 0.23604 0.0
H236 H 0.76639 0.10558 0.33123 0.0
H237 H 0.69941 0.08335 0.39025 0.0
H238 H 0.63485 0.98323 0.28007 0.0
C239 C 0.79647 0.02185 0.1552 0.0
C240 C 0.84282 0.04747 0.15562 0.0
C241 C 0.85358 0.081 0.1952 0.0
C242 C 0.81995 0.08792 0.23463 0.0
C243 C 0.77541 0.06112 0.23414 0.0
C244 C 0.76311 0.02904 0.19547 0.0
C245 C 0.71404 1.00235 0.2067 0.0
C246 C 0.67381 0.0168 0.16844 0.0
C247 C 0.72152 0.94533 0.20846 0.0
C248 C 0.70184 0.02342 0.25824 0.0
C249 C 0.73785 0.05749 0.27285 0.0
C250 C 0.73747 0.07964 0.31997 0.0
C251 C 0.69946 0.06654 0.35333 0.0
C252 C 0.66199 0.03185 0.33958 0.0
C253 C 0.66267 1.01048 0.2911 0.0
H254 H 1.00684 0.80149 0.14836 0.0
H255 H 0.95905 0.92971 0.23649 0.0
H256 H 0.95105 0.87599 0.31048 0.0
H257 H 0.92548 0.7094 0.20988 0.0
H258 H 0.97182 0.6605 0.20772 0.0
H259 H 0.97111 0.70817 0.1602 0.0
H260 H 0.0635 0.7294 0.1798 0.0
H261 H 0.06446 0.6819 0.2274 0.0
H262 H 0.081 0.7454 0.2429 0.0
H263 H 0.9515 0.81062 0.37578 0.0
H264 H 0.96109 0.73686 0.42944 0.0
H265 H 1.00902 0.64924 0.30088 0.0
C266 C 0.99408 0.81814 0.18305 0.0
C267 C 0.9836 0.87002 0.18638 0.0
C268 C 0.9676 0.89028 0.23278 0.0
C269 C 0.96271 0.86 0.27512 0.0
C270 C 0.97389 0.80936 0.27074 0.0
C271 C 0.98917 0.78837 0.22601 0.0
C272 C 1.00065 0.73307 0.23241 0.0
C273 C 0.96514 0.70089 0.20067 0.0
C274 C 0.05567 0.72181 0.21989 0.0
C275 C 0.99018 0.72666 0.28789 0.0
C276 C 0.97445 0.7712 0.30898 0.0
C277 C 0.96367 0.77547 0.35972 0.0
C278 C 0.9695 0.73325 0.38996 0.0
C279 C 0.98608 0.68709 0.36959 0.0
C280 C 0.99601 0.6838 0.31762 0.0
H281 H 0.37688 1.00719 0.30251 0.0
H282 H 0.28927 0.06148 0.42852 0.0
H283 H 0.21466 0.06483 0.37521 0.0
H284 H 0.31396 0.08212 0.20693 0.0
H285 H 0.31641 0.03314 0.16058 0.0
H286 H 0.36413 0.03711 0.20787 0.0
H287 H 0.34562 0.94572 0.234 0.0
H288 H 0.29767 0.94156 0.18703 0.0
H289 H 0.28286 0.92837 0.25143 0.0
H290 H 0.14923 0.05941 0.31087 0.0
H291 H 0.09565 0.04757 0.23772 0.0
H292 H 0.22402 0.9966 0.15136 0.0
C293 C 0.34215 0.02039 0.3187 0.0
C294 C 0.339 0.03395 0.36982 0.0
C295 C 0.29267 0.05049 0.38966 0.0
C296 C 0.25002 0.0527 0.35964 0.0
C297 C 0.25418 0.03829 0.3098 0.0
C298 C 0.29894 0.02267 0.28922 0.0
C299 C 0.29239 1.00808 0.23471 0.0
C300 C 0.32357 0.04215 0.2005 0.0
C301 C 0.30541 0.95264 0.22632 0.0
C302 C 0.23684 0.0175 0.22823 0.0
C303 C 0.21582 0.03504 0.27212 0.0
C304 C 0.16518 0.04582 0.27619 0.0
C305 C 0.135 0.03868 0.23423 0.0
C306 C 0.15537 0.02086 0.18848 0.0
C307 C 0.20717 1.01025 0.18561 0.0
H308 H 0.05091 0.78734 0.88984 0.0
H309 H 0.93695 0.88607 0.83065 0.0
H310 H 0.91805 0.82485 0.76438 0.0
H311 H 0.09822 0.7504 0.77234 0.0
H312 H 0.11114 0.68641 0.78901 0.0
H313 H 0.11151 0.73433 0.83639 0.0
H314 H 0.04593 0.68476 0.8875 0.0
H315 H 0.04537 0.63663 0.84017 0.0
H316 H 0.98787 0.66677 0.85848 0.0
H317 H 0.91518 0.75853 0.70206 0.0
H318 H 0.93143 0.69127 0.64171 0.0
H319 H 0.04965 0.63357 0.73652 0.0
C320 C 0.02135 0.79521 0.86339 0.0
C321 C 0.99489 0.84095 0.86524 0.0
C322 C 0.95736 0.85106 0.8296 0.0
C323 C 0.9462 0.81644 0.79212 0.0
C324 C 0.97325 0.772 0.79056 0.0
C325 C 1.01027 0.76115 0.82485 0.0
C326 C 0.03667 0.71257 0.81116 0.0
C327 C 0.0927 0.72149 0.80165 0.0
C328 C 0.02845 0.67283 0.85175 0.0
C329 C 1.00947 0.69879 0.76321 0.0
C330 C 0.97253 0.73341 0.75287 0.0
C331 C 0.94371 0.73094 0.70981 0.0
C332 C 0.95347 0.6927 0.67563 0.0
C333 C 0.99197 0.6574 0.68433 0.0
C334 C 0.01965 0.65975 0.72929 0.0
H335 H 0.15318 0.01352 0.80421 0.0
H336 H 0.23926 0.95204 0.9272 0.0
H337 H 0.31356 0.94772 0.87298 0.0
H338 H 0.21323 0.94012 0.70473 0.0
H339 H 0.21229 0.99097 0.66063 0.0
H340 H 0.1646 0.98671 0.70811 0.0
H341 H 0.18617 0.07628 0.73812 0.0
H342 H 0.23411 0.08074 0.69097 0.0
H343 H 0.24952 0.09085 0.75578 0.0
H344 H 0.37889 0.95311 0.80817 0.0
H345 H 0.43269 0.96627 0.73523 0.0
H346 H 0.30594 0.02496 0.65228 0.0
C347 C 0.18748 0.99846 0.81946 0.0
C348 C 0.1904 0.98313 0.87 0.0
C349 C 0.23616 0.96434 0.88877 0.0
C350 C 0.27857 0.96157 0.85822 0.0
C351 C 0.27472 0.97779 0.80898 0.0
C352 C 0.23045 0.9957 0.78948 0.0
C353 C 0.23733 1.01223 0.7356 0.0
C354 C 0.20494 0.98061 0.70018 0.0
C355 C 0.22612 0.06836 0.72981 0.0
C356 C 0.29253 1.00123 0.72822 0.0
C357 C 0.31305 0.98123 0.77111 0.0
C358 C 0.36332 0.96864 0.77427 0.0
C359 C 0.39364 0.97658 0.73247 0.0
C360 C 0.37381 0.99701 0.68774 0.0
C361 C 0.32235 1.0093 0.68573 0.0
H362 H 0.01694 0.37342 0.7228 0.0
H363 H 0.07437 0.28967 0.59558 0.0
H364 H 0.08488 0.2157 0.64879 0.0
H365 H 0.09885 0.3163 0.81658 0.0
H366 H 0.05101 0.31513 0.86412 0.0
H367 H 0.05023 0.36299 0.8168 0.0
H368 H 0.95994 0.33776 0.79274 0.0
H369 H 0.96046 0.28983 0.83989 0.0
H370 H 0.94685 0.27379 0.77586 0.0
H371 H 0.08539 0.14937 0.71362 0.0
H372 H 0.0764 0.09462 0.78697 0.0
H373 H 0.01935 0.21996 0.87363 0.0
C374 C 0.03221 0.3397 0.70628 0.0
C375 C 0.04455 0.33754 0.65479 0.0
C376 C 0.06408 0.2924 0.63468 0.0
C377 C 0.07046 0.25008 0.66468 0.0
C378 C 0.05728 0.2532 0.71493 0.0
C379 C 0.0387 0.29677 0.73577 0.0
C380 C 0.02599 0.28922 0.79061 0.0
C381 C 0.05847 0.32291 0.824 0.0
C382 C 0.96999 0.29817 0.80032 0.0
C383 C 0.03965 0.23446 0.79693 0.0
C384 C 0.05783 0.21461 0.75277 0.0
C385 C 0.07144 0.1645 0.74853 0.0
C386 C 0.06598 0.13362 0.79042 0.0
C387 C 0.04715 0.15286 0.83617 0.0
C388 C 0.03432 0.20418 0.83941 0.0
H389 H 0.65178 1.00542 0.71923 0.0
H390 H 0.7435 0.96488 0.59095 0.0
H391 H 0.81803 0.96477 0.64433 0.0
H392 H 0.73904 0.08843 0.77545 0.0
H393 H 0.72548 0.07029 0.83891 0.0
H394 H 0.67796 0.06493 0.79159 0.0
H395 H 0.66718 0.97096 0.81229 0.0
H396 H 0.71451 0.97606 0.85988 0.0
H397 H 0.7209 0.93027 0.81073 0.0
H398 H 0.88286 0.97225 0.70891 0.0
H399 H 0.93552 0.98395 0.78261 0.0
H400 H 0.80382 0.01927 0.87174 0.0
C401 C 0.68743 0.9959 0.70249 0.0
C402 C 0.69157 0.98526 0.65067 0.0
C403 C 0.73912 0.97346 0.63031 0.0
C404 C 0.78182 0.97319 0.66037 0.0
C405 C 0.77658 0.98464 0.71088 0.0
C406 C 0.73073 0.99546 0.73207 0.0
C407 C 0.73621 1.00736 0.78742 0.0
C408 C 0.71863 0.06094 0.79901 0.0
C409 C 0.70802 0.96886 0.81947 0.0
C410 C 0.79242 1.00217 0.79361 0.0
C411 C 0.81464 0.98891 0.74884 0.0
C412 C 0.86596 0.98244 0.74429 0.0
C413 C 0.89561 0.98943 0.78665 0.0
C414 C 0.87411 1.00277 0.83342 0.0
C415 C 0.8216 1.00917 0.83674 0.0
H416 H 0.39872 0.27961 0.98751 0.0
H417 H 0.32683 0.38925 0.08356 0.0
H418 H 0.25813 0.33053 0.0999 0.0
H419 H 0.28862 0.23736 0.93029 0.0
H420 H 0.30576 0.17225 0.92666 0.0
H421 H 0.35358 0.21959 0.92732 0.0
H422 H 0.39464 0.17758 1.00408 0.0
H423 H 0.34696 0.12992 1.00355 0.0
H424 H 0.35776 0.16619 0.05938 0.0
H425 H 0.19363 0.26648 0.09929 0.0
H426 H 0.13479 0.19807 0.08202 0.0
H427 H 0.24492 0.12621 0.98653 0.0
C428 C 0.36903 0.29046 0.01289 0.0
C429 C 0.36802 0.33883 0.03449 0.0
C430 C 0.32813 0.35242 0.06659 0.0
C431 C 0.28908 0.31924 0.07633 0.0
C432 C 0.29022 0.27241 0.05365 0.0
C433 C 0.329 0.25764 0.02269 0.0
C434 C 0.31818 0.20644 1.00012 0.0
C435 C 0.31643 0.2091 0.94269 0.0
C436 C 0.35668 0.16774 0.01785 0.0
C437 C 0.26673 0.19583 0.02207 0.0
C438 C 0.25195 0.23442 0.05327 0.0
C439 C 0.20496 0.23564 0.07556 0.0
C440 C 0.17172 0.19676 0.0653 0.0
C441 C 0.18545 0.15694 0.03315 0.0
C442 C 0.23394 0.15588 1.0119 0.0
H443 H 0.37533 0.72027 0.99306 0.0
H444 H 0.28278 0.5872 1.00662 0.0
H445 H 0.20879 0.63983 0.0184 0.0
H446 H 0.31113 0.79391 0.08498 0.0
H447 H 0.31545 0.85181 0.05087 0.0
H448 H 0.3624 0.8042 0.0424 0.0
H449 H 0.34596 0.80378 0.94697 0.0
H450 H 0.29927 0.85171 0.95508 0.0
H451 H 0.28332 0.79386 0.92432 0.0
H452 H 0.14515 0.70486 0.03173 0.0
H453 H 0.09313 0.77997 0.03921 0.0
H454 H 0.22421 0.87316 0.01513 0.0
C455 C 0.33947 0.70219 0.99807 0.0
C456 C 0.3353 0.64933 0.99886 0.0
C457 C 0.28745 0.6274 1.00562 0.0
C458 C 0.24495 0.65701 1.01259 0.0
C459 C 0.25047 0.70868 1.01237 0.0
C460 C 0.29623 0.73133 1.00471 0.0
C461 C 0.29104 0.78795 1.00573 0.0
C462 C 0.32184 0.8108 0.04855 0.0
C463 C 0.30577 0.81066 0.95501 0.0
C464 C 0.2353 0.79323 0.01545 0.0
C465 C 0.21295 0.74687 0.01937 0.0
C466 C 0.16207 0.74146 0.02843 0.0
C467 C 0.13281 0.78458 0.03267 0.0
C468 C 0.1543 0.83282 0.02761 0.0
C469 C 0.20652 0.83701 0.01943 0.0
H470 H 0.65169 0.3005 0.01489 0.0
H471 H 0.74505 0.43194 0.0367 0.0
H472 H 0.82003 0.38002 0.02823 0.0
H473 H 0.7318 0.21472 0.08424 0.0
H474 H 0.72077 0.16293 0.04244 0.0
H475 H 0.67345 0.21017 0.05094 0.0
H476 H 0.67204 0.22536 0.95529 0.0
H477 H 0.7197 0.1785 0.94656 0.0
H478 H 0.72931 0.24098 0.92334 0.0
H479 H 0.88482 0.31653 0.01436 0.0
H480 H 0.93742 0.24244 1.00309 0.0
H481 H 0.80439 0.14946 0.9922 0.0
C482 C 0.68787 0.31828 0.01847 0.0
C483 C 0.69213 0.37055 0.02628 0.0
C484 C 0.74037 0.39219 0.03044 0.0
C485 C 0.78343 0.36301 0.02562 0.0
C486 C 0.77793 0.31206 0.01693 0.0
C487 C 0.73158 0.28955 0.01395 0.0
C488 C 0.73684 0.23371 1.00465 0.0
C489 C 0.71439 0.20361 0.04817 0.0
C490 C 0.71306 0.21877 0.95448 0.0
C491 C 0.79339 0.2287 1.00286 0.0
C492 C 0.81604 0.27459 1.00968 0.0
C493 C 0.86765 0.28025 1.00921 0.0
C494 C 0.89723 0.23769 1.00254 0.0
C495 C 0.87529 0.18971 0.99673 0.0
C496 C 0.82247 0.18543 0.99646 0.0
H497 H 0.87363 0.80387 0.03189 0.0
H498 H 0.7885 0.92862 0.9718 0.0
H499 H 0.71469 0.875 0.96488 0.0
H500 H 0.81697 0.70817 0.95386 0.0
H501 H 0.816 0.66165 1.00251 0.0
H502 H 0.86349 0.70941 1.00251 0.0
H503 H 0.83778 0.73527 0.09237 0.0
H504 H 0.79021 0.68762 0.09264 0.0
H505 H 0.77367 0.7518 0.10515 0.0
H506 H 0.65 0.81036 0.965 0.0
H507 H 0.59637 0.73652 0.97201 0.0
H508 H 0.72116 0.65138 0.03196 0.0
C509 C 0.83953 0.81984 0.01714 0.0
C510 C 0.83705 0.87068 1.00269 0.0
C511 C 0.79155 0.89005 0.98365 0.0
C512 C 0.74926 0.85983 0.97934 0.0
C513 C 0.75283 0.81023 0.99417 0.0
C514 C 0.79658 0.7901 1.01264 0.0
C515 C 0.78949 0.73547 0.02628 0.0
C516 C 0.82351 0.70169 0.99438 0.0
C517 C 0.7983 0.72707 0.08245 0.0
C518 C 0.73487 0.72844 1.01271 0.0
C519 C 0.71477 0.77219 0.99421 0.0
C520 C 0.66516 0.77578 0.97945 0.0
C521 C 0.63494 0.73348 0.98381 0.0
C522 C 0.65433 0.68795 1.00281 0.0
C523 C 0.70517 0.68549 0.01722 0.0
H524 H 0.74025 0.47679 0.89441 0.0
H525 H 0.6357 0.57744 0.82229 0.0
H526 H 0.6948 0.58945 0.75285 0.0
H527 H 0.85711 0.5415 0.85201 0.0
H528 H 0.89017 0.48368 0.84141 0.0
H529 H 0.84279 0.48728 0.88934 0.0
H530 H 0.79656 0.41242 0.84901 0.0
H531 H 0.84358 0.40875 0.80087 0.0
H532 H 0.77871 0.41561 0.78412 0.0
H533 H 0.75864 0.58535 0.68862 0.0
H534 H 0.82647 0.56566 0.63013 0.0
H535 H 0.89348 0.46665 0.73971 0.0
C536 C 0.73067 0.50221 0.86446 0.0
C537 C 0.68366 0.52654 0.86361 0.0
C538 C 0.67154 0.55856 0.82344 0.0
C539 C 0.70493 0.56577 0.78398 0.0
C540 C 0.75037 0.54052 0.78502 0.0
C541 C 0.76366 0.50942 0.82399 0.0
C542 C 0.81352 0.48403 0.81303 0.0
C543 C 0.85326 0.50009 0.85123 0.0
C544 C 0.80772 0.42681 0.81167 0.0
C545 C 0.82513 0.50482 0.76135 0.0
C546 C 0.78812 0.5377 0.7466 0.0
C547 C 0.78813 0.56005 0.69979 0.0
C548 C 0.82669 0.54826 0.66669 0.0
C549 C 0.86501 0.51435 0.68023 0.0
C550 C 0.86481 0.49294 0.72861 0.0
H551 H 0.15103 0.51375 0.72522 0.0
H552 H 0.24132 0.48808 0.59219 0.0
H553 H 0.3153 0.4756 0.64455 0.0
H554 H 0.24421 0.58262 0.79278 0.0
H555 H 0.22858 0.55631 0.85279 0.0
H556 H 0.18139 0.56158 0.80518 0.0
H557 H 0.16361 0.46659 0.81205 0.0
H558 H 0.21095 0.46099 0.85955 0.0
H559 H 0.21418 0.4227 0.80408 0.0
H560 H 0.37966 0.46664 0.70932 0.0
H561 H 0.43287 0.4661 0.78385 0.0
H562 H 0.30328 0.4987 0.87688 0.0
C563 C 0.18633 0.50534 0.70717 0.0
C564 C 0.19015 0.50213 0.65445 0.0
C565 C 0.2372 0.4913 0.63236 0.0
C566 C 0.27958 0.48377 0.6618 0.0
C567 C 0.2746 0.48723 0.71342 0.0
C568 C 0.22942 0.498 0.73612 0.0
C569 C 0.23529 0.50108 0.79251 0.0
C570 C 0.22156 0.55352 0.81195 0.0
C571 C 0.20415 0.46041 0.81858 0.0
C572 C 0.2909 0.49091 0.7976 0.0
C573 C 0.31249 0.48256 0.75139 0.0
C574 C 0.36329 0.47309 0.74581 0.0
C575 C 0.39323 0.47295 0.78855 0.0
C576 C 0.37246 0.48252 0.83648 0.0
C577 C 0.32035 0.49094 0.84095 0.0
H578 H 0.22705 0.52418 0.37719 0.0
H579 H 0.09641 0.55444 0.28548 0.0
H580 H 0.1489 0.55423 0.21048 0.0
H581 H 0.31409 0.60171 0.30229 0.0
H582 H 0.36553 0.55894 0.31016 0.0
H583 H 0.31838 0.56432 0.35812 0.0
H584 H 0.30253 0.46885 0.35277 0.0
H585 H 0.34928 0.46328 0.30453 0.0
H586 H 0.28666 0.44112 0.29337 0.0
H587 H 0.21225 0.54486 0.14485 0.0
H588 H 0.28573 0.53234 0.09131 0.0
H589 H 0.37798 0.51033 0.22312 0.0
C590 C 0.20965 0.53155 0.34145 0.0
C591 C 0.15737 0.53899 0.33755 0.0
C592 C 0.13615 0.54817 0.28984 0.0
C593 C 0.16568 0.54828 0.24676 0.0
C594 C 0.21661 0.53965 0.25171 0.0
C595 C 0.23878 0.53207 0.29768 0.0
C596 C 0.2945 0.52275 0.29169 0.0
C597 C 0.32492 0.56442 0.31708 0.0
C598 C 0.30908 0.47091 0.31178 0.0
C599 C 0.29958 0.52509 0.23518 0.0
C600 C 0.25403 0.53501 0.21314 0.0
C601 C 0.2483 0.53749 0.16156 0.0
C602 C 0.29037 0.52997 0.13145 0.0
C603 C 0.3378 0.52021 0.15288 0.0
C604 C 0.34235 0.51792 0.20557 0.0
H605 H 0.72598 0.5261 0.14627 0.0
H606 H 0.59414 0.54015 0.24081 0.0
H607 H 0.64713 0.53829 0.31525 0.0
H608 H 0.79222 0.44145 0.22436 0.0
H609 H 0.85292 0.46878 0.21393 0.0
H610 H 0.80535 0.47359 0.16663 0.0
H611 H 0.81423 0.57006 0.16704 0.0
H612 H 0.86207 0.56554 0.21417 0.0
H613 H 0.80767 0.60384 0.2251 0.0
H614 H 0.71178 0.53083 0.37965 0.0
H615 H 0.78633 0.52181 0.43178 0.0
H616 H 0.87912 0.51367 0.29825 0.0
C617 C 0.7083 0.52937 0.18258 0.0
C618 C 0.6556 0.53321 0.18725 0.0
C619 C 0.63419 0.5371 0.23571 0.0
C620 C 0.66401 0.5361 0.27851 0.0
C621 C 0.71543 0.53152 0.27264 0.0
C622 C 0.7377 0.52864 0.2261 0.0
C623 C 0.79407 0.52318 0.23104 0.0
C624 C 0.81219 0.47381 0.2076 0.0
C625 C 0.8211 0.56835 0.20797 0.0
C626 C 0.79958 0.52263 0.28761 0.0
C627 C 0.75354 0.52758 0.31055 0.0
C628 C 0.74814 0.52713 0.36223 0.0
C629 C 0.79094 0.52166 0.39155 0.0
C630 C 0.83892 0.51673 0.36933 0.0
C631 C 0.84314 0.51742 0.31648 0.0
H632 H 0.28582 0.89362 0.48554 0.0
H633 H 0.39367 0.82367 0.58412 0.0
H634 H 0.33413 0.75594 0.6018 0.0
H635 H 0.1713 0.8562 0.55697 0.0
H636 H 0.13575 0.84379 0.50113 0.0
H637 H 0.1839 0.89096 0.50067 0.0
H638 H 0.22664 0.84672 0.42573 0.0
H639 H 0.17877 0.79944 0.42599 0.0
H640 H 0.24357 0.78167 0.43088 0.0
H641 H 0.26912 0.69229 0.60284 0.0
H642 H 0.20035 0.63356 0.58654 0.0
H643 H 0.13124 0.74116 0.48708 0.0
C644 C 0.29612 0.86455 0.51169 0.0
C645 C 0.34415 0.86382 0.53374 0.0
C646 C 0.35707 0.82473 0.56683 0.0
C647 C 0.32342 0.78626 0.57733 0.0
C648 C 0.27687 0.78717 0.55432 0.0
C649 C 0.26288 0.82509 0.52218 0.0
C650 C 0.21194 0.81405 0.49942 0.0
C651 C 0.17344 0.85361 0.51552 0.0
C652 C 0.21547 0.81024 0.44211 0.0
C653 C 0.20043 0.7635 0.52282 0.0
C654 C 0.23842 0.74935 0.55478 0.0
C655 C 0.23875 0.70315 0.57851 0.0
C656 C 0.19965 0.66999 0.56886 0.0
C657 C 0.16051 0.68303 0.53588 0.0
C658 C 0.1603 0.73079 0.51319 0.0
H659 H 0.15266 0.30132 0.50405 0.0
H660 H 0.24717 0.43345 0.49669 0.0
H661 H 0.32154 0.38066 0.50523 0.0
H662 H 0.22557 0.2353 0.59523 0.0
H663 H 0.21697 0.17457 0.56716 0.0
H664 H 0.16995 0.22222 0.55961 0.0
H665 H 0.17623 0.21322 0.46333 0.0
H666 H 0.22307 0.16535 0.47059 0.0
H667 H 0.2362 0.21976 0.43317 0.0
H668 H 0.38576 0.31564 0.51679 0.0
H669 H 0.43761 0.24074 0.52546 0.0
H670 H 0.30408 0.14792 0.52397 0.0
C671 C 0.18898 0.31915 0.50376 0.0
C672 C 0.19361 0.37188 0.49959 0.0
C673 C 0.24209 0.3934 0.49972 0.0
C674 C 0.28483 0.36368 0.50469 0.0
C675 C 0.27893 0.31222 0.50935 0.0
C676 C 0.23243 0.28986 0.50851 0.0
C677 C 0.23722 0.23341 0.51405 0.0
C678 C 0.21086 0.21532 0.56185 0.0
C679 C 0.21698 0.20635 0.46751 0.0
C680 C 0.29367 0.22784 0.51813 0.0
C681 C 0.31667 0.274 0.51559 0.0
C682 C 0.36827 0.27921 0.51866 0.0
C683 C 0.39745 0.23612 0.52373 0.0
C684 C 0.37527 0.1879 0.52547 0.0
C685 C 0.32241 0.18399 0.52296 0.0
H686 H 0.8771 0.72085 0.51629 0.0
H687 H 0.78379 0.58781 0.52424 0.0
H688 H 0.70909 0.63956 0.51374 0.0
H689 H 0.79163 0.80201 0.58496 0.0
H690 H 0.80488 0.85613 0.54716 0.0
H691 H 0.85204 0.80884 0.55577 0.0
H692 H 0.86005 0.79893 0.45966 0.0
H693 H 0.81262 0.84591 0.45077 0.0
H694 H 0.80521 0.78477 0.42326 0.0
H695 H 0.64463 0.70335 0.49988 0.0
H696 H 0.59212 0.7777 0.49031 0.0
H697 H 0.72475 0.87183 0.49304 0.0
C698 C 0.84096 0.70262 0.51626 0.0
C699 C 0.83672 0.65002 0.52097 0.0
C700 C 0.78852 0.62786 0.52061 0.0
C701 C 0.7456 0.65693 0.51453 0.0
C702 C 0.75114 0.70829 0.5091 0.0
C703 C 0.79735 0.73123 0.51046 0.0
C704 C 0.79216 0.78746 0.50421 0.0
C705 C 0.81131 0.81524 0.5508 0.0
C706 C 0.81911 0.80531 0.45665 0.0
C707 C 0.7358 0.79219 0.49914 0.0
C708 C 0.7132 0.74586 0.50173 0.0
C709 C 0.66175 0.73995 0.49795 0.0
C710 C 0.63223 0.78266 0.49234 0.0
C711 C 0.65405 0.83101 0.49087 0.0
C712 C 0.70676 0.83558 0.49379 0.0
H713 H 0.65389 0.21819 0.5248 0.0
H714 H 0.74442 0.08886 0.48475 0.0
H715 H 0.81873 0.14202 0.48076 0.0
H716 H 0.71877 0.30644 0.44488 0.0
H717 H 0.71488 0.35739 0.48896 0.0
H718 H 0.66749 0.30954 0.48861 0.0
H719 H 0.68376 0.29248 0.58246 0.0
H720 H 0.73123 0.34024 0.5831 0.0
H721 H 0.74618 0.27762 0.60292 0.0
H722 H 0.88338 0.20686 0.48141 0.0
H723 H 0.93623 0.28137 0.48632 0.0
H724 H 0.80634 0.37124 0.52594 0.0
C725 C 0.6893 0.20106 0.51513 0.0
C726 C 0.69294 0.14908 0.50528 0.0
C727 C 0.74021 0.12835 0.49277 0.0
C728 C 0.78289 0.15828 0.49027 0.0
C729 C 0.77806 0.20904 0.50036 0.0
C730 C 0.73268 0.23053 0.5125 0.0
C731 C 0.73859 0.28632 0.52177 0.0
C732 C 0.70812 0.31671 0.48378 0.0
C733 C 0.72408 0.29995 0.57577 0.0
C734 C 0.7944 0.29244 0.51307 0.0
C735 C 0.81611 0.2472 0.50072 0.0
C736 C 0.86694 0.2426 0.49106 0.0
C737 C 0.89669 0.28539 0.49408 0.0
C738 C 0.87571 0.33254 0.50669 0.0
C739 C 0.82367 0.33593 0.51622 0.0
H740 H 0.52061 0.37092 0.80241 0.0
H741 H 0.57241 0.28439 0.92948 0.0
H742 H 0.58197 0.21055 0.8753 0.0
H743 H 0.44858 0.27423 0.74691 0.0
H744 H 0.46394 0.29028 0.68329 0.0
H745 H 0.46414 0.33785 0.73105 0.0
H746 H 0.55567 0.36018 0.70864 0.0
H747 H 0.55573 0.31269 0.6607 0.0
H748 H 0.60267 0.31184 0.70891 0.0
H749 H 0.58215 0.14496 0.8094 0.0
H750 H 0.57296 0.09111 0.73535 0.0
H751 H 0.52104 0.2186 0.64939 0.0
C752 C 0.53456 0.33661 0.81868 0.0
C753 C 0.54562 0.3336 0.87038 0.0
C754 C 0.56323 0.28774 0.8902 0.0
C755 C 0.56904 0.24551 0.85965 0.0
C756 C 0.55713 0.2495 0.80918 0.0
C757 C 0.54038 0.29379 0.78865 0.0
C758 C 0.52846 0.28709 0.7335 0.0
C759 C 0.47298 0.298 0.7231 0.0
C760 C 0.56268 0.3199 0.70102 0.0
C761 C 0.5404 0.23195 0.72661 0.0
C762 C 0.55717 0.21124 0.77078 0.0
C763 C 0.56924 0.16076 0.77452 0.0
C764 C 0.56365 0.1304 0.73216 0.0
C765 C 0.54612 0.15043 0.68638 0.0
C766 C 0.53488 0.20214 0.68362 0.0
H767 H 0.51244 0.87263 0.721 0.0
H768 H 0.52192 0.77861 0.58833 0.0
H769 H 0.52145 0.70386 0.64105 0.0
H770 H 0.59242 0.79579 0.79898 0.0
H771 H 0.55611 0.80562 0.85499 0.0
H772 H 0.55755 0.85294 0.80717 0.0
H773 H 0.46086 0.85086 0.80208 0.0
H774 H 0.45912 0.80349 0.84985 0.0
H775 H 0.42964 0.79228 0.79034 0.0
H776 H 0.51952 0.63943 0.70582 0.0
H777 H 0.51692 0.58711 0.78067 0.0
H778 H 0.50876 0.72049 0.87394 0.0
C779 C 0.51468 0.83634 0.70308 0.0
C780 C 0.51706 0.83176 0.65034 0.0
C781 C 0.51968 0.78344 0.62848 0.0
C782 C 0.51957 0.74055 0.65813 0.0
C783 C 0.51682 0.74631 0.70969 0.0
C784 C 0.5145 0.79276 0.73225 0.0
C785 C 0.51149 0.78774 0.78876 0.0
C786 C 0.55711 0.81196 0.81395 0.0
C787 C 0.46235 0.80991 0.80893 0.0
C788 C 0.51246 0.7312 0.79408 0.0
C789 C 0.51558 0.70837 0.74782 0.0
C790 C 0.51713 0.65673 0.74236 0.0
C791 C 0.51565 0.62732 0.78538 0.0
C792 C 0.51265 0.64946 0.83358 0.0
C793 C 0.51089 0.70228 0.8378 0.0
H794 H 0.52922 0.73679 0.12988 0.0
H795 H 0.41899 0.63545 0.19223 0.0
H796 H 0.4012 0.69565 0.25964 0.0
H797 H 0.57945 0.77468 0.24509 0.0
H798 H 0.58983 0.83915 0.22851 0.0
H799 H 0.58969 0.79168 0.18068 0.0
H800 H 0.52066 0.83969 0.13298 0.0
H801 H 0.52071 0.88743 0.18072 0.0
H802 H 0.46337 0.85587 0.16476 0.0
H803 H 0.40088 0.76045 0.32443 0.0
H804 H 0.41821 0.82771 0.38481 0.0
H805 H 0.52876 0.8903 0.28384 0.0
C806 C 0.50048 0.72813 0.15708 0.0
C807 C 0.47517 0.68162 0.15573 0.0
C808 C 0.43876 0.67083 0.19262 0.0
C809 C 0.42821 0.7049 0.23095 0.0
C810 C 0.45447 0.74979 0.23217 0.0
C811 C 0.4898 0.7618 0.19634 0.0
C812 C 0.51532 0.81106 0.20941 0.0
C813 C 0.57192 0.80367 0.21634 0.0
C814 C 0.50435 0.85088 0.16959 0.0
C815 C 0.48974 0.82381 0.25874 0.0
C816 C 0.4544 0.788 0.27055 0.0
C817 C 0.42792 0.78913 0.31536 0.0
C818 C 0.4382 0.8274 0.34953 0.0
C819 C 0.47458 0.86434 0.33893 0.0
C820 C 0.50008 0.86307 0.29245 0.0
H821 H 0.51933 0.1461 0.29973 0.0
H822 H 0.50432 0.23843 0.43307 0.0
H823 H 0.50276 0.31368 0.38106 0.0
H824 H 0.60019 0.22978 0.23265 0.0
H825 H 0.57212 0.21817 0.17253 0.0
H826 H 0.57118 0.17029 0.21979 0.0
H827 H 0.47471 0.16495 0.21311 0.0
H828 H 0.47537 0.21271 0.16571 0.0
H829 H 0.43779 0.22082 0.22116 0.0
H830 H 0.50379 0.37875 0.31694 0.0
H831 H 0.50639 0.43176 0.24251 0.0
H832 H 0.52056 0.29941 0.14849 0.0
C833 C 0.51547 0.18212 0.31791 0.0
C834 C 0.51228 0.18618 0.37059 0.0
C835 C 0.50742 0.23411 0.39291 0.0
C836 C 0.5063 0.27725 0.36369 0.0
C837 C 0.51003 0.27204 0.31215 0.0
C838 C 0.51442 0.22591 0.2892 0.0
C839 C 0.51822 0.23151 0.23285 0.0
C840 C 0.56842 0.21124 0.21332 0.0
C841 C 0.47388 0.20599 0.20667 0.0
C842 C 0.51541 0.28799 0.22808 0.0
C843 C 0.51062 0.31032 0.27443 0.0
C844 C 0.5074 0.36184 0.28031 0.0
C845 C 0.50891 0.39163 0.23757 0.0
C846 C 0.5136 0.36992 0.18933 0.0
C847 C 0.51703 0.31726 0.1847 0.0
loop_
_geom_bond_atom_site_label_1
_geom_bond_atom_site_label_2
_geom_bond_distance
_geom_bond_site_symmetry_2
_ccdc_geom_bond_type
C0 O26 1.283 . S
C0 O44 1.283 . S
C1 O27 1.283 . S
C1 O42 1.283 . S
C2 O28 1.283 . S
C2 O45 1.283 . S
C3 O29 1.283 . S
C3 O43 1.283 . S
C4 O30 1.283 . S
C4 O39 1.283 . S
C5 O31 1.283 . S
C5 O41 1.283 . S
C6 O32 1.283 . S
C6 O38 1.283 . S
C7 O33 1.283 . S
C7 O40 1.283 . S
C8 O34 1.283 . S
C8 O49 1.283 . S
C9 O35 1.283 . S
C9 O47 1.283 . S
C10 O36 1.283 . S
C10 O48 1.283 . S
C11 O37 1.283 . S
C11 O46 1.283 . S
Eu12 O13 2.370 1_454 S
Eu12 O14 2.370 . S
Eu12 O17 2.370 1_455 S
Eu12 O18 2.370 1_554 S
Eu12 O26 2.363 . S
Eu12 O27 2.363 1_554 S
Eu12 O40 2.363 . S
Eu12 O41 2.363 1_455 S
O13 Eu12 2.370 1_656 S
O13 Eu15 2.370 1_566 S
O13 Eu20 2.370 1_665 S
O14 Eu12 2.370 . S
O14 Eu16 2.370 1_565 S
O14 Eu19 2.370 1_565 S
Eu15 O13 2.370 1_544 S
Eu15 O17 2.370 1_545 S
Eu15 O21 2.370 . S
Eu15 O22 2.370 1_554 S
Eu15 O30 2.363 . S
Eu15 O31 2.363 1_545 S
Eu15 O46 2.363 . S
Eu15 O47 2.363 1_554 S
Eu16 O14 2.370 1_545 S
Eu16 O18 2.370 1_544 S
Eu16 O23 2.370 1_554 S
Eu16 O24 2.370 . S
Eu16 O32 2.363 . S
Eu16 O33 2.363 1_545 S
Eu16 O48 2.363 . S
Eu16 O49 2.363 1_554 S
O17 Eu12 2.370 1_655 S
O17 Eu15 2.370 1_565 S
O17 Eu19 2.370 1_665 S
O18 Eu12 2.370 1_556 S
O18 Eu16 2.370 1_566 S
O18 Eu20 2.370 1_565 S
Eu19 O14 2.370 1_545 S
Eu19 O17 2.370 1_445 S
Eu19 O21 2.370 1_455 S
Eu19 O24 2.370 . S
Eu19 O36 2.363 . S
Eu19 O37 2.363 1_455 S
Eu19 O44 2.363 1_545 S
Eu19 O45 2.363 . S
Eu20 O13 2.370 1_445 S
Eu20 O18 2.370 1_545 S
Eu20 O22 2.370 1_455 S
Eu20 O23 2.370 . S
Eu20 O34 2.363 . S
Eu20 O35 2.363 1_455 S
Eu20 O42 2.363 1_545 S
Eu20 O43 2.363 . S
O21 Eu15 2.370 . S
O21 Eu19 2.370 1_655 S
O21 Eu25 2.370 1_655 S
O22 Eu15 2.370 1_556 S
O22 Eu20 2.370 1_655 S
O22 Eu25 2.370 1_656 S
O23 Eu16 2.370 1_556 S
O23 Eu20 2.370 . S
O23 Eu25 2.370 1_556 S
O24 Eu16 2.370 . S
O24 Eu19 2.370 . S
O24 Eu25 2.370 . S
Eu25 O21 2.370 1_455 S
Eu25 O22 2.370 1_454 S
Eu25 O23 2.370 1_554 S
Eu25 O24 2.370 . S
Eu25 O28 2.363 . S
Eu25 O29 2.363 1_554 S
Eu25 O38 2.363 . S
Eu25 O39 2.363 1_455 S
O26 C0 1.283 . S
O26 Eu12 2.363 . S
O27 C1 1.283 . S
O27 Eu12 2.363 1_556 S
O28 C2 1.283 . S
O28 Eu25 2.363 . S
O29 C3 1.283 . S
O29 Eu25 2.363 1_556 S
O30 C4 1.283 . S
O30 Eu15 2.363 . S
O31 C5 1.283 . S
O31 Eu15 2.363 1_565 S
O32 C6 1.283 . S
O32 Eu16 2.363 . S
O33 C7 1.283 . S
O33 Eu16 2.363 1_565 S
O34 C8 1.283 . S
O34 Eu20 2.363 . S
O35 C9 1.283 . S
O35 Eu20 2.363 1_655 S
O36 C10 1.283 . S
O36 Eu19 2.363 . S
O37 C11 1.283 . S
O37 Eu19 2.363 1_655 S
O38 C6 1.283 . S
O38 Eu25 2.363 . S
O39 C4 1.283 . S
O39 Eu25 2.363 1_655 S
O40 C7 1.283 . S
O40 Eu12 2.363 . S
O41 C5 1.283 . S
O41 Eu12 2.363 1_655 S
O42 C1 1.283 . S
O42 Eu20 2.363 1_565 S
O43 C3 1.283 . S
O43 Eu20 2.363 . S
O44 C0 1.283 . S
O44 Eu19 2.363 1_565 S
O45 C2 1.283 . S
O45 Eu19 2.363 . S
O46 C11 1.283 . S
O46 Eu15 2.363 . S
O47 C9 1.283 . S
O47 Eu15 2.363 1_556 S
O48 C10 1.283 . S
O48 Eu16 2.363 . S
O49 C8 1.283 . S
O49 Eu16 2.363 1_556 S
C50 O76 1.283 . S
C50 O94 1.283 . S
C51 O77 1.283 . S
C51 O92 1.283 . S
C52 O78 1.283 . S
C52 O95 1.283 . S
C53 O79 1.283 . S
C53 O93 1.283 . S
C54 O80 1.283 . S
C54 O89 1.283 . S
C55 O81 1.283 . S
C55 O91 1.283 . S
C56 O82 1.283 . S
C56 O88 1.283 . S
C57 O83 1.283 . S
C57 O90 1.283 . S
C58 O84 1.283 . S
C58 O99 1.283 . S
C59 O85 1.283 . S
C59 O97 1.283 . S
C60 O86 1.283 . S
C60 O98 1.283 . S
C61 O87 1.283 . S
C61 O96 1.283 . S
Eu62 O63 2.370 . S
Eu62 O64 2.370 1_455 S
Eu62 O67 2.370 . S
Eu62 O68 2.370 1_455 S
Eu62 O76 2.363 . S
Eu62 O77 2.363 . S
Eu62 O90 2.363 1_455 S
Eu62 O91 2.363 . S
O63 Eu62 2.370 . S
O63 Eu65 2.370 . S
O63 Eu70 2.370 . S
O64 Eu62 2.370 1_655 S
O64 Eu66 2.370 . S
O64 Eu69 2.370 1_655 S
Eu65 O63 2.370 . S
Eu65 O67 2.370 . S
Eu65 O71 2.370 . S
Eu65 O72 2.370 . S
Eu65 O80 2.363 . S
Eu65 O81 2.363 . S
Eu65 O96 2.363 . S
Eu65 O97 2.363 . S
Eu66 O64 2.370 . S
Eu66 O68 2.370 . S
Eu66 O73 2.370 . S
Eu66 O74 2.370 . S
Eu66 O82 2.363 . S
Eu66 O83 2.363 . S
Eu66 O98 2.363 . S
Eu66 O99 2.363 . S
O67 Eu62 2.370 . S
O67 Eu65 2.370 . S
O67 Eu69 2.370 . S
O68 Eu62 2.370 1_655 S
O68 Eu66 2.370 . S
O68 Eu70 2.370 1_655 S
Eu69 O64 2.370 1_455 S
Eu69 O67 2.370 . S
Eu69 O71 2.370 . S
Eu69 O74 2.370 1_455 S
Eu69 O86 2.363 1_455 S
Eu69 O87 2.363 . S
Eu69 O94 2.363 . S
Eu69 O95 2.363 . S
Eu70 O63 2.370 . S
Eu70 O68 2.370 1_455 S
Eu70 O72 2.370 . S
Eu70 O73 2.370 1_455 S
Eu70 O84 2.363 1_455 S
Eu70 O85 2.363 . S
Eu70 O92 2.363 . S
Eu70 O93 2.363 . S
O71 Eu65 2.370 . S
O71 Eu69 2.370 . S
O71 Eu75 2.370 . S
O72 Eu65 2.370 . S
O72 Eu70 2.370 . S
O72 Eu75 2.370 . S
O73 Eu66 2.370 . S
O73 Eu70 2.370 1_655 S
O73 Eu75 2.370 1_655 S
O74 Eu66 2.370 . S
O74 Eu69 2.370 1_655 S
O74 Eu75 2.370 1_655 S
Eu75 O71 2.370 . S
Eu75 O72 2.370 . S
Eu75 O73 2.370 1_455 S
Eu75 O74 2.370 1_455 S
Eu75 O78 2.363 . S
Eu75 O79 2.363 . S
Eu75 O88 2.363 1_455 S
Eu75 O89 2.363 . S
O76 C50 1.283 . S
O76 Eu62 2.363 . S
O77 C51 1.283 . S
O77 Eu62 2.363 . S
O78 C52 1.283 . S
O78 Eu75 2.363 . S
O79 C53 1.283 . S
O79 Eu75 2.363 . S
O80 C54 1.283 . S
O80 Eu65 2.363 . S
O81 C55 1.283 . S
O81 Eu65 2.363 . S
O82 C56 1.283 . S
O82 Eu66 2.363 . S
O83 C57 1.283 . S
O83 Eu66 2.363 . S
O84 C58 1.283 . S
O84 Eu70 2.363 1_655 S
O85 C59 1.283 . S
O85 Eu70 2.363 . S
O86 C60 1.283 . S
O86 Eu69 2.363 1_655 S
O87 C61 1.283 . S
O87 Eu69 2.363 . S
O88 C56 1.283 . S
O88 Eu75 2.363 1_655 S
O89 C54 1.283 . S
O89 Eu75 2.363 . S
O90 C57 1.283 . S
O90 Eu62 2.363 1_655 S
O91 C55 1.283 . S
O91 Eu62 2.363 . S
O92 C51 1.283 . S
O92 Eu70 2.363 . S
O93 C53 1.283 . S
O93 Eu70 2.363 . S
O94 C50 1.283 . S
O94 Eu69 2.363 . S
O95 C52 1.283 . S
O95 Eu69 2.363 . S
O96 C61 1.283 . S
O96 Eu65 2.363 . S
O97 C59 1.283 . S
O97 Eu65 2.363 . S
O98 C60 1.283 . S
O98 Eu66 2.363 . S
O99 C58 1.283 . S
O99 Eu66 2.363 . S
C100 O126 1.283 . S
C100 O144 1.283 . S
C101 O127 1.283 . S
C101 O142 1.283 . S
C102 O128 1.283 . S
C102 O145 1.283 . S
C103 O129 1.283 . S
C103 O143 1.283 . S
C104 O130 1.283 . S
C104 O139 1.283 . S
C105 O131 1.283 . S
C105 O141 1.283 . S
C106 O132 1.283 . S
C106 O138 1.283 . S
C107 O133 1.283 . S
C107 O140 1.283 . S
C108 O134 1.283 . S
C108 O149 1.283 . S
C109 O135 1.283 . S
C109 O147 1.283 . S
C110 O136 1.283 . S
C110 O148 1.283 . S
C111 O137 1.283 . S
C111 O146 1.283 . S
Eu112 O113 2.370 . S
Eu112 O114 2.370 1_545 S
Eu112 O117 2.370 1_545 S
Eu112 O118 2.370 . S
Eu112 O126 2.363 1_545 S
Eu112 O127 2.363 . S
Eu112 O140 2.363 . S
Eu112 O141 2.363 . S
O113 Eu112 2.370 . S
O113 Eu115 2.370 . S
O113 Eu120 2.370 . S
O114 Eu112 2.370 1_565 S
O114 Eu116 2.370 1_565 S
O114 Eu119 2.370 . S
Eu115 O113 2.370 . S
Eu115 O117 2.370 1_545 S
Eu115 O121 2.370 1_545 S
Eu115 O122 2.370 . S
Eu115 O130 2.363 . S
Eu115 O131 2.363 . S
Eu115 O146 2.363 1_545 S
Eu115 O147 2.363 . S
Eu116 O114 2.370 1_545 S
Eu116 O118 2.370 . S
Eu116 O123 2.370 . S
Eu116 O124 2.370 1_545 S
Eu116 O132 2.363 . S
Eu116 O133 2.363 . S
Eu116 O148 2.363 1_545 S
Eu116 O149 2.363 . S
O117 Eu112 2.370 1_565 S
O117 Eu115 2.370 1_565 S
O117 Eu119 2.370 . S
O118 Eu112 2.370 . S
O118 Eu116 2.370 . S
O118 Eu120 2.370 . S
Eu119 O114 2.370 . S
Eu119 O117 2.370 . S
Eu119 O121 2.370 . S
Eu119 O124 2.370 . S
Eu119 O136 2.363 . S
Eu119 O137 2.363 . S
Eu119 O144 2.363 . S
Eu119 O145 2.363 . S
Eu120 O113 2.370 . S
Eu120 O118 2.370 . S
Eu120 O122 2.370 . S
Eu120 O123 2.370 . S
Eu120 O134 2.363 . S
Eu120 O135 2.363 . S
Eu120 O142 2.363 . S
Eu120 O143 2.363 . S
O121 Eu115 2.370 1_565 S
O121 Eu119 2.370 . S
O121 Eu125 2.370 1_565 S
O122 Eu115 2.370 . S
O122 Eu120 2.370 . S
O122 Eu125 2.370 . S
O123 Eu116 2.370 . S
O123 Eu120 2.370 . S
O123 Eu125 2.370 . S
O124 Eu116 2.370 1_565 S
O124 Eu119 2.370 . S
O124 Eu125 2.370 1_565 S
Eu125 O121 2.370 1_545 S
Eu125 O122 2.370 . S
Eu125 O123 2.370 . S
Eu125 O124 2.370 1_545 S
Eu125 O128 2.363 1_545 S
Eu125 O129 2.363 . S
Eu125 O138 2.363 . S
Eu125 O139 2.363 . S
O126 C100 1.283 . S
O126 Eu112 2.363 1_565 S
O127 C101 1.283 . S
O127 Eu112 2.363 . S
O128 C102 1.283 . S
O128 Eu125 2.363 1_565 S
O129 C103 1.283 . S
O129 Eu125 2.363 . S
O130 C104 1.283 . S
O130 Eu115 2.363 . S
O131 C105 1.283 . S
O131 Eu115 2.363 . S
O132 C106 1.283 . S
O132 Eu116 2.363 . S
O133 C107 1.283 . S
O133 Eu116 2.363 . S
O134 C108 1.283 . S
O134 Eu120 2.363 . S
O135 C109 1.283 . S
O135 Eu120 2.363 . S
O136 C110 1.283 . S
O136 Eu119 2.363 . S
O137 C111 1.283 . S
O137 Eu119 2.363 . S
O138 C106 1.283 . S
O138 Eu125 2.363 . S
O139 C104 1.283 . S
O139 Eu125 2.363 . S
O140 C107 1.283 . S
O140 Eu112 2.363 . S
O141 C105 1.283 . S
O141 Eu112 2.363 . S
O142 C101 1.283 . S
O142 Eu120 2.363 . S
O143 C103 1.283 . S
O143 Eu120 2.363 . S
O144 C100 1.283 . S
O144 Eu119 2.363 . S
O145 C102 1.283 . S
O145 Eu119 2.363 . S
O146 C111 1.283 . S
O146 Eu115 2.363 1_565 S
O147 C109 1.283 . S
O147 Eu115 2.363 . S
O148 C110 1.283 . S
O148 Eu116 2.363 1_565 S
O149 C108 1.283 . S
O149 Eu116 2.363 . S
C150 O176 1.283 . S
C150 O194 1.283 . S
C151 O177 1.283 . S
C151 O192 1.283 . S
C152 O178 1.283 . S
C152 O195 1.283 . S
C153 O179 1.283 . S
C153 O193 1.283 . S
C154 O180 1.283 . S
C154 O189 1.283 . S
C155 O181 1.283 . S
C155 O191 1.283 . S
C156 O182 1.283 . S
C156 O188 1.283 . S
C157 O183 1.283 . S
C157 O190 1.283 . S
C158 O184 1.283 . S
C158 O199 1.283 . S
C159 O185 1.283 . S
C159 O197 1.283 . S
C160 O186 1.283 . S
C160 O198 1.283 . S
C161 O187 1.283 . S
C161 O196 1.283 . S
Eu162 O163 2.370 . S
Eu162 O164 2.370 1_554 S
Eu162 O167 2.370 1_554 S
Eu162 O168 2.370 . S
Eu162 O176 2.363 1_554 S
Eu162 O177 2.363 . S
Eu162 O190 2.363 . S
Eu162 O191 2.363 . S
O163 Eu162 2.370 . S
O163 Eu165 2.370 . S
O163 Eu170 2.370 . S
O164 Eu162 2.370 1_556 S
O164 Eu166 2.370 1_556 S
O164 Eu169 2.370 . S
Eu165 O163 2.370 . S
Eu165 O167 2.370 1_554 S
Eu165 O171 2.370 1_554 S
Eu165 O172 2.370 . S
Eu165 O180 2.363 . S
Eu165 O181 2.363 . S
Eu165 O196 2.363 1_554 S
Eu165 O197 2.363 . S
Eu166 O164 2.370 1_554 S
Eu166 O168 2.370 . S
Eu166 O173 2.370 . S
Eu166 O174 2.370 1_554 S
Eu166 O182 2.363 . S
Eu166 O183 2.363 . S
Eu166 O198 2.363 1_554 S
Eu166 O199 2.363 . S
O167 Eu162 2.370 1_556 S
O167 Eu165 2.370 1_556 S
O167 Eu169 2.370 . S
O168 Eu162 2.370 . S
O168 Eu166 2.370 . S
O168 Eu170 2.370 . S
Eu169 O164 2.370 . S
Eu169 O167 2.370 . S
Eu169 O171 2.370 . S
Eu169 O174 2.370 . S
Eu169 O186 2.363 . S
Eu169 O187 2.363 . S
Eu169 O194 2.363 . S
Eu169 O195 2.363 . S
Eu170 O163 2.370 . S
Eu170 O168 2.370 . S
Eu170 O172 2.370 . S
Eu170 O173 2.370 . S
Eu170 O184 2.363 . S
Eu170 O185 2.363 . S
Eu170 O192 2.363 . S
Eu170 O193 2.363 . S
O171 Eu165 2.370 1_556 S
O171 Eu169 2.370 . S
O171 Eu175 2.370 1_556 S
O172 Eu165 2.370 . S
O172 Eu170 2.370 . S
O172 Eu175 2.370 . S
O173 Eu166 2.370 . S
O173 Eu170 2.370 . S
O173 Eu175 2.370 . S
O174 Eu166 2.370 1_556 S
O174 Eu169 2.370 . S
O174 Eu175 2.370 1_556 S
Eu175 O171 2.370 1_554 S
Eu175 O172 2.370 . S
Eu175 O173 2.370 . S
Eu175 O174 2.370 1_554 S
Eu175 O178 2.363 1_554 S
Eu175 O179 2.363 . S
Eu175 O188 2.363 . S
Eu175 O189 2.363 . S
O176 C150 1.283 . S
O176 Eu162 2.363 1_556 S
O177 C151 1.283 . S
O177 Eu162 2.363 . S
O178 C152 1.283 . S
O178 Eu175 2.363 1_556 S
O179 C153 1.283 . S
O179 Eu175 2.363 . S
O180 C154 1.283 . S
O180 Eu165 2.363 . S
O181 C155 1.283 . S
O181 Eu165 2.363 . S
O182 C156 1.283 . S
O182 Eu166 2.363 . S
O183 C157 1.283 . S
O183 Eu166 2.363 . S
O184 C158 1.283 . S
O184 Eu170 2.363 . S
O185 C159 1.283 . S
O185 Eu170 2.363 . S
O186 C160 1.283 . S
O186 Eu169 2.363 . S
O187 C161 1.283 . S
O187 Eu169 2.363 . S
O188 C156 1.283 . S
O188 Eu175 2.363 . S
O189 C154 1.283 . S
O189 Eu175 2.363 . S
O190 C157 1.283 . S
O190 Eu162 2.363 . S
O191 C155 1.283 . S
O191 Eu162 2.363 . S
O192 C151 1.283 . S
O192 Eu170 2.363 . S
O193 C153 1.283 . S
O193 Eu170 2.363 . S
O194 C150 1.283 . S
O194 Eu169 2.363 . S
O195 C152 1.283 . S
O195 Eu169 2.363 . S
O196 C161 1.283 . S
O196 Eu165 2.363 1_556 S
O197 C159 1.283 . S
O197 Eu165 2.363 . S
O198 C160 1.283 . S
O198 Eu166 2.363 1_556 S
O199 C158 1.283 . S
O199 Eu166 2.363 . S
H200 C212 0.930 . S
H201 C214 0.930 . S
H202 C215 0.930 . S
H203 C219 0.959 . S
H204 C219 0.959 . S
H205 C219 0.961 . S
H206 C220 0.960 . S
H207 C220 0.961 . S
H208 C220 0.959 . S
H209 C223 0.929 . S
H210 C224 0.931 . S
H211 C226 0.930 . S
C212 H200 0.930 . S
C212 C213 1.399 1_455 S
C212 C217 1.399 . S
C213 C212 1.399 1_655 S
C213 C214 1.376 . S
C214 H201 0.930 . S
C214 C213 1.376 . S
C214 C215 1.388 . S
C215 H202 0.930 . S
C215 C214 1.388 . S
C215 C216 1.390 . S
C216 C215 1.390 . S
C216 C217 1.394 1_655 S
C216 C222 1.465 . S
C217 C212 1.399 . S
C217 C216 1.394 1_455 S
C217 C218 1.516 . S
C218 C217 1.516 . S
C218 C219 1.502 . S
C218 C220 1.561 . S
C218 C221 1.526 . S
C219 H203 0.959 . S
C219 H204 0.959 . S
C219 H205 0.961 . S
C219 C218 1.502 . S
C220 H206 0.960 . S
C220 H207 0.961 . S
C220 H208 0.959 . S
C220 C218 1.561 . S
C221 C218 1.526 . S
C221 C222 1.396 1_455 S
C221 C226 1.390 . S
C222 C216 1.465 . S
C222 C221 1.396 1_655 S
C222 C223 1.399 . S
C223 H209 0.929 . S
C223 C222 1.399 . S
C223 C224 1.385 . S
C224 H210 0.931 . S
C224 C223 1.385 . S
C224 C225 1.389 . S
C225 C224 1.389 . S
C225 C226 1.387 1_655 S
C226 H211 0.930 . S
C226 C221 1.390 . S
C226 C225 1.387 1_455 S
H227 C239 0.930 . S
H228 C241 0.930 . S
H229 C242 0.930 . S
H230 C246 0.959 . S
H231 C246 0.959 . S
H232 C246 0.961 . S
H233 C247 0.960 . S
H234 C247 0.961 . S
H235 C247 0.959 . S
H236 C250 0.929 . S
H237 C251 0.931 . S
H238 C253 0.930 . S
C239 H227 0.930 . S
C239 C240 1.399 1_565 S
C239 C244 1.399 . S
C240 C239 1.399 1_545 S
C240 C241 1.376 . S
C241 H228 0.930 . S
C241 C240 1.376 . S
C241 C242 1.388 . S
C242 H229 0.930 . S
C242 C241 1.388 . S
C242 C243 1.390 . S
C243 C242 1.390 . S
C243 C244 1.394 1_545 S
C243 C249 1.465 . S
C244 C239 1.399 . S
C244 C243 1.394 1_565 S
C244 C245 1.516 . S
C245 C244 1.516 . S
C245 C246 1.502 . S
C245 C247 1.561 . S
C245 C248 1.526 . S
C246 H230 0.959 . S
C246 H231 0.959 . S
C246 H232 0.961 . S
C246 C245 1.502 . S
C247 H233 0.960 . S
C247 H234 0.961 . S
C247 H235 0.959 . S
C247 C245 1.561 . S
C248 C245 1.526 . S
C248 C249 1.396 1_565 S
C248 C253 1.390 . S
C249 C243 1.465 . S
C249 C248 1.396 1_545 S
C249 C250 1.399 . S
C250 H236 0.929 . S
C250 C249 1.399 . S
C250 C251 1.385 . S
C251 H237 0.931 . S
C251 C250 1.385 . S
C251 C252 1.389 . S
C252 C251 1.389 . S
C252 C253 1.387 1_545 S
C253 H238 0.930 . S
C253 C248 1.390 . S
C253 C252 1.387 1_565 S
H254 C266 0.930 . S
H255 C268 0.930 . S
H256 C269 0.930 . S
H257 C273 0.959 . S
H258 C273 0.959 . S
H259 C273 0.961 . S
H260 C274 0.960 . S
H261 C274 0.961 . S
H262 C274 0.959 . S
H263 C277 0.929 . S
H264 C278 0.931 . S
H265 C280 0.930 . S
C266 H254 0.930 . S
C266 C267 1.399 . S
C266 C271 1.399 . S
C267 C266 1.399 . S
C267 C268 1.376 1_455 S
C268 H255 0.930 . S
C268 C267 1.376 1_655 S
C268 C269 1.388 . S
C269 H256 0.930 . S
C269 C268 1.388 . S
C269 C270 1.390 1_655 S
C270 C269 1.390 1_455 S
C270 C271 1.394 . S
C270 C276 1.466 . S
C271 C266 1.399 . S
C271 C270 1.394 . S
C271 C272 1.516 . S
C272 C271 1.516 . S
C272 C273 1.502 1_455 S
C272 C274 1.561 . S
C272 C275 1.526 . S
C273 H257 0.959 . S
C273 H258 0.959 . S
C273 H259 0.961 . S
C273 C272 1.502 1_655 S
C274 H260 0.960 . S
C274 H261 0.961 . S
C274 H262 0.959 . S
C274 C272 1.561 . S
C275 C272 1.526 . S
C275 C276 1.399 . S
C275 C280 1.390 . S
C276 C270 1.466 . S
C276 C275 1.399 . S
C276 C277 1.397 1_455 S
C277 H263 0.929 . S
C277 C276 1.397 1_655 S
C277 C278 1.385 . S
C278 H264 0.931 . S
C278 C277 1.385 . S
C278 C279 1.389 . S
C279 C278 1.389 . S
C279 C280 1.387 1_655 S
C280 H265 0.930 . S
C280 C275 1.390 . S
C280 C279 1.387 1_455 S
H281 C293 0.930 . S
H282 C295 0.930 . S
H283 C296 0.930 . S
H284 C300 0.959 . S
H285 C300 0.959 . S
H286 C300 0.961 . S
H287 C301 0.960 . S
H288 C301 0.961 . S
H289 C301 0.959 . S
H290 C304 0.929 . S
H291 C305 0.931 . S
H292 C307 0.930 . S
C293 H281 0.930 . S
C293 C294 1.399 1_565 S
C293 C298 1.399 . S
C294 C293 1.399 1_545 S
C294 C295 1.376 . S
C295 H282 0.930 . S
C295 C294 1.376 . S
C295 C296 1.388 . S
C296 H283 0.930 . S
C296 C295 1.388 . S
C296 C297 1.390 . S
C297 C296 1.390 . S
C297 C298 1.394 1_545 S
C297 C303 1.465 . S
C298 C293 1.399 . S
C298 C297 1.394 1_565 S
C298 C299 1.516 . S
C299 C298 1.516 . S
C299 C300 1.502 . S
C299 C301 1.561 . S
C299 C302 1.526 . S
C300 H284 0.959 . S
C300 H285 0.959 . S
C300 H286 0.961 . S
C300 C299 1.502 . S
C301 H287 0.960 . S
C301 H288 0.961 . S
C301 H289 0.959 . S
C301 C299 1.561 . S
C302 C299 1.526 . S
C302 C303 1.396 1_565 S
C302 C307 1.390 . S
C303 C297 1.465 . S
C303 C302 1.396 1_545 S
C303 C304 1.399 . S
C304 H290 0.929 . S
C304 C303 1.399 . S
C304 C305 1.385 . S
C305 H291 0.931 . S
C305 C304 1.385 . S
C305 C306 1.389 . S
C306 C305 1.389 . S
C306 C307 1.387 1_545 S
C307 H292 0.930 . S
C307 C302 1.390 . S
C307 C306 1.387 1_565 S
H308 C320 0.930 . S
H309 C322 0.930 . S
H310 C323 0.930 . S
H311 C327 0.959 . S
H312 C327 0.959 . S
H313 C327 0.961 . S
H314 C328 0.960 . S
H315 C328 0.961 . S
H316 C328 0.959 . S
H317 C331 0.929 . S
H318 C332 0.931 . S
H319 C334 0.930 . S
C320 H308 0.930 . S
C320 C321 1.399 1_455 S
C320 C325 1.399 . S
C321 C320 1.399 1_655 S
C321 C322 1.376 . S
C322 H309 0.930 . S
C322 C321 1.376 . S
C322 C323 1.388 . S
C323 H310 0.930 . S
C323 C322 1.388 . S
C323 C324 1.390 . S
C324 C323 1.390 . S
C324 C325 1.394 1_655 S
C324 C330 1.465 . S
C325 C320 1.399 . S
C325 C324 1.394 1_455 S
C325 C326 1.516 . S
C326 C325 1.516 . S
C326 C327 1.502 . S
C326 C328 1.561 1_455 S
C326 C329 1.526 . S
C327 H311 0.959 . S
C327 H312 0.959 . S
C327 H313 0.961 . S
C327 C326 1.502 . S
C328 H314 0.960 . S
C328 H315 0.961 . S
C328 H316 0.959 . S
C328 C326 1.561 1_655 S
C329 C326 1.526 . S
C329 C330 1.396 1_455 S
C329 C334 1.390 . S
C330 C324 1.465 . S
C330 C329 1.396 1_655 S
C330 C331 1.399 . S
C331 H317 0.929 . S
C331 C330 1.399 . S
C331 C332 1.385 . S
C332 H318 0.931 . S
C332 C331 1.385 . S
C332 C333 1.389 . S
C333 C332 1.389 . S
C333 C334 1.387 1_655 S
C334 H319 0.930 . S
C334 C329 1.390 . S
C334 C333 1.387 1_455 S
H335 C347 0.930 . S
H336 C349 0.930 . S
H337 C350 0.930 . S
H338 C354 0.959 . S
H339 C354 0.959 . S
H340 C354 0.961 . S
H341 C355 0.960 . S
H342 C355 0.961 . S
H343 C355 0.959 . S
H344 C358 0.929 . S
H345 C359 0.931 . S
H346 C361 0.930 . S
C347 H335 0.930 . S
C347 C348 1.399 1_545 S
C347 C352 1.399 . S
C348 C347 1.399 1_565 S
C348 C349 1.376 . S
C349 H336 0.930 . S
C349 C348 1.376 . S
C349 C350 1.388 . S
C350 H337 0.930 . S
C350 C349 1.388 . S
C350 C351 1.390 . S
C351 C350 1.390 . S
C351 C352 1.394 1_565 S
C351 C357 1.465 . S
C352 C347 1.399 . S
C352 C351 1.394 1_545 S
C352 C353 1.516 . S
C353 C352 1.516 . S
C353 C354 1.502 . S
C353 C355 1.561 . S
C353 C356 1.526 . S
C354 H338 0.959 . S
C354 H339 0.959 . S
C354 H340 0.961 . S
C354 C353 1.502 . S
C355 H341 0.960 . S
C355 H342 0.961 . S
C355 H343 0.959 . S
C355 C353 1.561 . S
C356 C353 1.526 . S
C356 C357 1.396 1_545 S
C356 C361 1.390 . S
C357 C351 1.465 . S
C357 C356 1.396 1_565 S
C357 C358 1.399 . S
C358 H344 0.929 . S
C358 C357 1.399 . S
C358 C359 1.385 . S
C359 H345 0.931 . S
C359 C358 1.385 . S
C359 C360 1.389 . S
C360 C359 1.389 . S
C360 C361 1.387 1_565 S
C361 H346 0.930 . S
C361 C356 1.390 . S
C361 C360 1.387 1_545 S
H362 C374 0.930 . S
H363 C376 0.930 . S
H364 C377 0.930 . S
H365 C381 0.959 . S
H366 C381 0.959 . S
H367 C381 0.961 . S
H368 C382 0.960 . S
H369 C382 0.960 . S
H370 C382 0.960 1_655 S
H371 C385 0.929 . S
H372 C386 0.931 . S
H373 C388 0.930 . S
C374 H362 0.930 . S
C374 C375 1.399 1_455 S
C374 C379 1.399 . S
C375 C374 1.399 1_655 S
C375 C376 1.376 . S
C376 H363 0.930 . S
C376 C375 1.376 . S
C376 C377 1.388 . S
C377 H364 0.930 . S
C377 C376 1.388 . S
C377 C378 1.390 . S
C378 C377 1.390 . S
C378 C379 1.394 1_655 S
C378 C384 1.465 . S
C379 C374 1.399 . S
C379 C378 1.394 1_455 S
C379 C380 1.516 . S
C380 C379 1.516 . S
C380 C381 1.502 . S
C380 C382 1.560 . S
C380 C383 1.526 . S
C381 H365 0.959 . S
C381 H366 0.959 . S
C381 H367 0.961 . S
C381 C380 1.502 . S
C382 H368 0.960 . S
C382 H369 0.960 . S
C382 H370 0.960 1_455 S
C382 C380 1.560 . S
C383 C380 1.526 . S
C383 C384 1.396 1_455 S
C383 C388 1.390 . S
C384 C378 1.465 . S
C384 C383 1.396 1_655 S
C384 C385 1.399 . S
C385 H371 0.929 . S
C385 C384 1.399 . S
C385 C386 1.385 . S
C386 H372 0.931 . S
C386 C385 1.385 . S
C386 C387 1.389 . S
C387 C386 1.389 . S
C387 C388 1.387 1_655 S
C388 H373 0.930 . S
C388 C383 1.390 . S
C388 C387 1.387 1_455 S
H389 C401 0.930 . S
H390 C403 0.930 . S
H391 C404 0.930 . S
H392 C408 0.959 . S
H393 C408 0.959 . S
H394 C408 0.961 . S
H395 C409 0.960 . S
H396 C409 0.961 . S
H397 C409 0.959 . S
H398 C412 0.929 . S
H399 C413 0.931 . S
H400 C415 0.930 . S
C401 H389 0.930 . S
C401 C402 1.399 1_565 S
C401 C406 1.399 . S
C402 C401 1.399 1_545 S
C402 C403 1.376 . S
C403 H390 0.930 . S
C403 C402 1.376 . S
C403 C404 1.388 . S
C404 H391 0.930 . S
C404 C403 1.388 . S
C404 C405 1.390 . S
C405 C404 1.390 . S
C405 C406 1.394 1_545 S
C405 C411 1.465 . S
C406 C401 1.399 . S
C406 C405 1.394 1_565 S
C406 C407 1.516 . S
C407 C406 1.516 . S
C407 C408 1.502 . S
C407 C409 1.561 . S
C407 C410 1.526 . S
C408 H392 0.959 . S
C408 H393 0.959 . S
C408 H394 0.961 . S
C408 C407 1.502 . S
C409 H395 0.960 . S
C409 H396 0.961 . S
C409 H397 0.959 . S
C409 C407 1.561 . S
C410 C407 1.526 . S
C410 C411 1.396 1_565 S
C410 C415 1.390 . S
C411 C405 1.465 . S
C411 C410 1.396 1_545 S
C411 C412 1.399 . S
C412 H398 0.929 . S
C412 C411 1.399 . S
C412 C413 1.385 . S
C413 H399 0.931 . S
C413 C412 1.385 . S
C413 C414 1.389 . S
C414 C413 1.389 . S
C414 C415 1.387 1_545 S
C415 H400 0.930 . S
C415 C410 1.390 . S
C415 C414 1.387 1_565 S
H416 C428 0.930 . S
H417 C430 0.930 . S
H418 C431 0.930 . S
H419 C435 0.959 . S
H420 C435 0.959 . S
H421 C435 0.961 . S
H422 C436 0.960 . S
H423 C436 0.961 . S
H424 C436 0.959 . S
H425 C439 0.929 . S
H426 C440 0.931 . S
H427 C442 0.930 . S
C428 H416 0.930 . S
C428 C429 1.399 1_556 S
C428 C433 1.399 . S
C429 C428 1.399 1_554 S
C429 C430 1.376 . S
C430 H417 0.930 . S
C430 C429 1.376 . S
C430 C431 1.388 . S
C431 H418 0.930 . S
C431 C430 1.388 . S
C431 C432 1.390 . S
C432 C431 1.390 . S
C432 C433 1.394 1_554 S
C432 C438 1.465 . S
C433 C428 1.399 . S
C433 C432 1.394 1_556 S
C433 C434 1.516 . S
C434 C433 1.516 . S
C434 C435 1.502 . S
C434 C436 1.561 . S
C434 C437 1.526 . S
C435 H419 0.959 . S
C435 H420 0.959 . S
C435 H421 0.961 . S
C435 C434 1.502 . S
C436 H422 0.960 . S
C436 H423 0.961 . S
C436 H424 0.959 . S
C436 C434 1.561 . S
C437 C434 1.526 . S
C437 C438 1.396 1_556 S
C437 C442 1.390 . S
C438 C432 1.465 . S
C438 C437 1.396 1_554 S
C438 C439 1.399 . S
C439 H425 0.929 . S
C439 C438 1.399 . S
C439 C440 1.385 . S
C440 H426 0.931 . S
C440 C439 1.385 . S
C440 C441 1.389 . S
C441 C440 1.389 . S
C441 C442 1.387 1_554 S
C442 H427 0.930 . S
C442 C437 1.390 . S
C442 C441 1.387 1_556 S
H443 C455 0.930 . S
H444 C457 0.930 . S
H445 C458 0.930 . S
H446 C462 0.959 . S
H447 C462 0.959 . S
H448 C462 0.961 . S
H449 C463 0.960 . S
H450 C463 0.961 . S
H451 C463 0.959 . S
H452 C466 0.929 . S
H453 C467 0.931 . S
H454 C469 0.930 . S
C455 H443 0.930 . S
C455 C456 1.399 1_556 S
C455 C460 1.399 . S
C456 C455 1.399 1_554 S
C456 C457 1.376 . S
C457 H444 0.930 . S
C457 C456 1.376 . S
C457 C458 1.388 . S
C458 H445 0.930 . S
C458 C457 1.388 . S
C458 C459 1.390 . S
C459 C458 1.390 . S
C459 C460 1.394 1_554 S
C459 C465 1.465 . S
C460 C455 1.399 . S
C460 C459 1.394 1_556 S
C460 C461 1.516 . S
C461 C460 1.516 . S
C461 C462 1.502 . S
C461 C463 1.561 . S
C461 C464 1.526 . S
C462 H446 0.959 . S
C462 H447 0.959 . S
C462 H448 0.961 . S
C462 C461 1.502 . S
C463 H449 0.960 . S
C463 H450 0.961 . S
C463 H451 0.959 . S
C463 C461 1.561 . S
C464 C461 1.526 . S
C464 C465 1.396 1_556 S
C464 C469 1.390 . S
C465 C459 1.465 . S
C465 C464 1.396 1_554 S
C465 C466 1.399 . S
C466 H452 0.929 . S
C466 C465 1.399 . S
C466 C467 1.385 . S
C467 H453 0.931 . S
C467 C466 1.385 . S
C467 C468 1.389 . S
C468 C467 1.389 . S
C468 C469 1.387 1_554 S
C469 H454 0.930 . S
C469 C464 1.390 . S
C469 C468 1.387 1_556 S
H470 C482 0.930 . S
H471 C484 0.930 . S
H472 C485 0.930 . S
H473 C489 0.959 . S
H474 C489 0.959 . S
H475 C489 0.961 . S
H476 C490 0.960 . S
H477 C490 0.961 . S
H478 C490 0.959 . S
H479 C493 0.929 . S
H480 C494 0.931 . S
H481 C496 0.930 . S
C482 H470 0.930 . S
C482 C483 1.399 1_556 S
C482 C487 1.399 . S
C483 C482 1.399 1_554 S
C483 C484 1.376 . S
C484 H471 0.930 . S
C484 C483 1.376 . S
C484 C485 1.388 . S
C485 H472 0.930 . S
C485 C484 1.388 . S
C485 C486 1.390 . S
C486 C485 1.390 . S
C486 C487 1.394 1_554 S
C486 C492 1.465 . S
C487 C482 1.399 . S
C487 C486 1.394 1_556 S
C487 C488 1.516 . S
C488 C487 1.516 . S
C488 C489 1.502 . S
C488 C490 1.561 . S
C488 C491 1.526 . S
C489 H473 0.959 . S
C489 H474 0.959 . S
C489 H475 0.961 . S
C489 C488 1.502 . S
C490 H476 0.960 . S
C490 H477 0.961 . S
C490 H478 0.959 . S
C490 C488 1.561 . S
C491 C488 1.526 . S
C491 C492 1.396 1_556 S
C491 C496 1.390 . S
C492 C486 1.465 . S
C492 C491 1.396 1_554 S
C492 C493 1.399 . S
C493 H479 0.929 . S
C493 C492 1.399 . S
C493 C494 1.385 . S
C494 H480 0.931 . S
C494 C493 1.385 . S
C494 C495 1.389 . S
C495 C494 1.389 . S
C495 C496 1.387 1_554 S
C496 H481 0.930 . S
C496 C491 1.390 . S
C496 C495 1.387 1_556 S
H497 C509 0.930 . S
H498 C511 0.930 . S
H499 C512 0.930 . S
H500 C516 0.959 . S
H501 C516 0.959 . S
H502 C516 0.961 . S
H503 C517 0.960 . S
H504 C517 0.961 . S
H505 C517 0.959 . S
H506 C520 0.929 . S
H507 C521 0.931 . S
H508 C523 0.930 . S
C509 H497 0.930 . S
C509 C510 1.399 1_554 S
C509 C514 1.399 . S
C510 C509 1.399 1_556 S
C510 C511 1.376 . S
C511 H498 0.930 . S
C511 C510 1.376 . S
C511 C512 1.388 . S
C512 H499 0.930 . S
C512 C511 1.388 . S
C512 C513 1.390 . S
C513 C512 1.390 . S
C513 C514 1.394 1_556 S
C513 C519 1.465 . S
C514 C509 1.399 . S
C514 C513 1.394 1_554 S
C514 C515 1.516 . S
C515 C514 1.516 . S
C515 C516 1.502 . S
C515 C517 1.561 . S
C515 C518 1.526 . S
C516 H500 0.959 . S
C516 H501 0.959 . S
C516 H502 0.961 . S
C516 C515 1.502 . S
C517 H503 0.960 . S
C517 H504 0.961 . S
C517 H505 0.959 . S
C517 C515 1.561 . S
C518 C515 1.526 . S
C518 C519 1.396 1_554 S
C518 C523 1.390 . S
C519 C513 1.465 . S
C519 C518 1.396 1_556 S
C519 C520 1.399 . S
C520 H506 0.929 . S
C520 C519 1.399 . S
C520 C521 1.385 . S
C521 H507 0.931 . S
C521 C520 1.385 . S
C521 C522 1.389 . S
C522 C521 1.389 . S
C522 C523 1.387 1_556 S
C523 H508 0.930 . S
C523 C518 1.390 . S
C523 C522 1.387 1_554 S
H524 C536 0.930 . S
H525 C538 0.930 . S
H526 C539 0.930 . S
H527 C543 0.959 . S
H528 C543 0.959 . S
H529 C543 0.961 . S
H530 C544 0.960 . S
H531 C544 0.961 . S
H532 C544 0.959 . S
H533 C547 0.929 . S
H534 C548 0.931 . S
H535 C550 0.930 . S
C536 H524 0.930 . S
C536 C537 1.399 . S
C536 C541 1.399 . S
C537 C536 1.399 . S
C537 C538 1.376 . S
C538 H525 0.930 . S
C538 C537 1.376 . S
C538 C539 1.388 . S
C539 H526 0.930 . S
C539 C538 1.388 . S
C539 C540 1.390 . S
C540 C539 1.390 . S
C540 C541 1.394 . S
C540 C546 1.465 . S
C541 C536 1.399 . S
C541 C540 1.394 . S
C541 C542 1.516 . S
C542 C541 1.516 . S
C542 C543 1.502 . S
C542 C544 1.561 . S
C542 C545 1.526 . S
C543 H527 0.959 . S
C543 H528 0.959 . S
C543 H529 0.961 . S
C543 C542 1.502 . S
C544 H530 0.960 . S
C544 H531 0.961 . S
C544 H532 0.959 . S
C544 C542 1.561 . S
C545 C542 1.526 . S
C545 C546 1.396 . S
C545 C550 1.390 . S
C546 C540 1.465 . S
C546 C545 1.396 . S
C546 C547 1.399 . S
C547 H533 0.929 . S
C547 C546 1.399 . S
C547 C548 1.385 . S
C548 H534 0.931 . S
C548 C547 1.385 . S
C548 C549 1.389 . S
C549 C548 1.389 . S
C549 C550 1.387 . S
C550 H535 0.930 . S
C550 C545 1.390 . S
C550 C549 1.387 . S
H551 C563 0.930 . S
H552 C565 0.930 . S
H553 C566 0.930 . S
H554 C570 0.959 . S
H555 C570 0.959 . S
H556 C570 0.961 . S
H557 C571 0.960 . S
H558 C571 0.961 . S
H559 C571 0.959 . S
H560 C574 0.929 . S
H561 C575 0.931 . S
H562 C577 0.930 . S
C563 H551 0.930 . S
C563 C564 1.399 . S
C563 C568 1.399 . S
C564 C563 1.399 . S
C564 C565 1.376 . S
C565 H552 0.930 . S
C565 C564 1.376 . S
C565 C566 1.388 . S
C566 H553 0.930 . S
C566 C565 1.388 . S
C566 C567 1.390 . S
C567 C566 1.390 . S
C567 C568 1.394 . S
C567 C573 1.465 . S
C568 C563 1.399 . S
C568 C567 1.394 . S
C568 C569 1.516 . S
C569 C568 1.516 . S
C569 C570 1.502 . S
C569 C571 1.561 . S
C569 C572 1.526 . S
C570 H554 0.959 . S
C570 H555 0.959 . S
C570 H556 0.961 . S
C570 C569 1.502 . S
C571 H557 0.960 . S
C571 H558 0.961 . S
C571 H559 0.959 . S
C571 C569 1.561 . S
C572 C569 1.526 . S
C572 C573 1.396 . S
C572 C577 1.390 . S
C573 C567 1.465 . S
C573 C572 1.396 . S
C573 C574 1.399 . S
C574 H560 0.929 . S
C574 C573 1.399 . S
C574 C575 1.385 . S
C575 H561 0.931 . S
C575 C574 1.385 . S
C575 C576 1.389 . S
C576 C575 1.389 . S
C576 C577 1.387 . S
C577 H562 0.930 . S
C577 C572 1.390 . S
C577 C576 1.387 . S
H578 C590 0.930 . S
H579 C592 0.930 . S
H580 C593 0.930 . S
H581 C597 0.959 . S
H582 C597 0.959 . S
H583 C597 0.961 . S
H584 C598 0.960 . S
H585 C598 0.961 . S
H586 C598 0.959 . S
H587 C601 0.929 . S
H588 C602 0.931 . S
H589 C604 0.930 . S
C590 H578 0.930 . S
C590 C591 1.399 . S
C590 C595 1.399 . S
C591 C590 1.399 . S
C591 C592 1.376 . S
C592 H579 0.930 . S
C592 C591 1.376 . S
C592 C593 1.388 . S
C593 H580 0.930 . S
C593 C592 1.388 . S
C593 C594 1.390 . S
C594 C593 1.390 . S
C594 C595 1.394 . S
C594 C600 1.465 . S
C595 C590 1.399 . S
C595 C594 1.394 . S
C595 C596 1.516 . S
C596 C595 1.516 . S
C596 C597 1.502 . S
C596 C598 1.561 . S
C596 C599 1.526 . S
C597 H581 0.959 . S
C597 H582 0.959 . S
C597 H583 0.961 . S
C597 C596 1.502 . S
C598 H584 0.960 . S
C598 H585 0.961 . S
C598 H586 0.959 . S
C598 C596 1.561 . S
C599 C596 1.526 . S
C599 C600 1.396 . S
C599 C604 1.390 . S
C600 C594 1.465 . S
C600 C599 1.396 . S
C600 C601 1.399 . S
C601 H587 0.929 . S
C601 C600 1.399 . S
C601 C602 1.385 . S
C602 H588 0.931 . S
C602 C601 1.385 . S
C602 C603 1.389 . S
C603 C602 1.389 . S
C603 C604 1.387 . S
C604 H589 0.930 . S
C604 C599 1.390 . S
C604 C603 1.387 . S
H605 C617 0.930 . S
H606 C619 0.930 . S
H607 C620 0.930 . S
H608 C624 0.959 . S
H609 C624 0.959 . S
H610 C624 0.961 . S
H611 C625 0.960 . S
H612 C625 0.961 . S
H613 C625 0.959 . S
H614 C628 0.929 . S
H615 C629 0.931 . S
H616 C631 0.930 . S
C617 H605 0.930 . S
C617 C618 1.399 . S
C617 C622 1.399 . S
C618 C617 1.399 . S
C618 C619 1.376 . S
C619 H606 0.930 . S
C619 C618 1.376 . S
C619 C620 1.388 . S
C620 H607 0.930 . S
C620 C619 1.388 . S
C620 C621 1.390 . S
C621 C620 1.390 . S
C621 C622 1.394 . S
C621 C627 1.465 . S
C622 C617 1.399 . S
C622 C621 1.394 . S
C622 C623 1.516 . S
C623 C622 1.516 . S
C623 C624 1.502 . S
C623 C625 1.561 . S
C623 C626 1.526 . S
C624 H608 0.959 . S
C624 H609 0.959 . S
C624 H610 0.961 . S
C624 C623 1.502 . S
C625 H611 0.960 . S
C625 H612 0.961 . S
C625 H613 0.959 . S
C625 C623 1.561 . S
C626 C623 1.526 . S
C626 C627 1.396 . S
C626 C631 1.390 . S
C627 C621 1.465 . S
C627 C626 1.396 . S
C627 C628 1.399 . S
C628 H614 0.929 . S
C628 C627 1.399 . S
C628 C629 1.385 . S
C629 H615 0.931 . S
C629 C628 1.385 . S
C629 C630 1.389 . S
C630 C629 1.389 . S
C630 C631 1.387 . S
C631 H616 0.930 . S
C631 C626 1.390 . S
C631 C630 1.387 . S
H632 C644 0.930 . S
H633 C646 0.930 . S
H634 C647 0.930 . S
H635 C651 0.959 . S
H636 C651 0.959 . S
H637 C651 0.961 . S
H638 C652 0.960 . S
H639 C652 0.961 . S
H640 C652 0.959 . S
H641 C655 0.929 . S
H642 C656 0.931 . S
H643 C658 0.930 . S
C644 H632 0.930 . S
C644 C645 1.399 . S
C644 C649 1.399 . S
C645 C644 1.399 . S
C645 C646 1.376 . S
C646 H633 0.930 . S
C646 C645 1.376 . S
C646 C647 1.388 . S
C647 H634 0.930 . S
C647 C646 1.388 . S
C647 C648 1.390 . S
C648 C647 1.390 . S
C648 C649 1.394 . S
C648 C654 1.465 . S
C649 C644 1.399 . S
C649 C648 1.394 . S
C649 C650 1.516 . S
C650 C649 1.516 . S
C650 C651 1.502 . S
C650 C652 1.561 . S
C650 C653 1.526 . S
C651 H635 0.959 . S
C651 H636 0.959 . S
C651 H637 0.961 . S
C651 C650 1.502 . S
C652 H638 0.960 . S
C652 H639 0.961 . S
C652 H640 0.959 . S
C652 C650 1.561 . S
C653 C650 1.526 . S
C653 C654 1.396 . S
C653 C658 1.390 . S
C654 C648 1.465 . S
C654 C653 1.396 . S
C654 C655 1.399 . S
C655 H641 0.929 . S
C655 C654 1.399 . S
C655 C656 1.385 . S
C656 H642 0.931 . S
C656 C655 1.385 . S
C656 C657 1.389 . S
C657 C656 1.389 . S
C657 C658 1.387 . S
C658 H643 0.930 . S
C658 C653 1.390 . S
C658 C657 1.387 . S
H659 C671 0.930 . S
H660 C673 0.930 . S
H661 C674 0.930 . S
H662 C678 0.959 . S
H663 C678 0.959 . S
H664 C678 0.961 . S
H665 C679 0.960 . S
H666 C679 0.961 . S
H667 C679 0.959 . S
H668 C682 0.929 . S
H669 C683 0.931 . S
H670 C685 0.930 . S
C671 H659 0.930 . S
C671 C672 1.399 . S
C671 C676 1.399 . S
C672 C671 1.399 . S
C672 C673 1.376 . S
C673 H660 0.930 . S
C673 C672 1.376 . S
C673 C674 1.388 . S
C674 H661 0.930 . S
C674 C673 1.388 . S
C674 C675 1.390 . S
C675 C674 1.390 . S
C675 C676 1.394 . S
C675 C681 1.465 . S
C676 C671 1.399 . S
C676 C675 1.394 . S
C676 C677 1.516 . S
C677 C676 1.516 . S
C677 C678 1.502 . S
C677 C679 1.561 . S
C677 C680 1.526 . S
C678 H662 0.959 . S
C678 H663 0.959 . S
C678 H664 0.961 . S
C678 C677 1.502 . S
C679 H665 0.960 . S
C679 H666 0.961 . S
C679 H667 0.959 . S
C679 C677 1.561 . S
C680 C677 1.526 . S
C680 C681 1.396 . S
C680 C685 1.390 . S
C681 C675 1.465 . S
C681 C680 1.396 . S
C681 C682 1.399 . S
C682 H668 0.929 . S
C682 C681 1.399 . S
C682 C683 1.385 . S
C683 H669 0.931 . S
C683 C682 1.385 . S
C683 C684 1.389 . S
C684 C683 1.389 . S
C684 C685 1.387 . S
C685 H670 0.930 . S
C685 C680 1.390 . S
C685 C684 1.387 . S
H686 C698 0.930 . S
H687 C700 0.930 . S
H688 C701 0.930 . S
H689 C705 0.959 . S
H690 C705 0.959 . S
H691 C705 0.961 . S
H692 C706 0.960 . S
H693 C706 0.961 . S
H694 C706 0.959 . S
H695 C709 0.929 . S
H696 C710 0.931 . S
H697 C712 0.930 . S
C698 H686 0.930 . S
C698 C699 1.399 . S
C698 C703 1.399 . S
C699 C698 1.399 . S
C699 C700 1.376 . S
C700 H687 0.930 . S
C700 C699 1.376 . S
C700 C701 1.388 . S
C701 H688 0.930 . S
C701 C700 1.388 . S
C701 C702 1.390 . S
C702 C701 1.390 . S
C702 C703 1.394 . S
C702 C708 1.465 . S
C703 C698 1.399 . S
C703 C702 1.394 . S
C703 C704 1.516 . S
C704 C703 1.516 . S
C704 C705 1.502 . S
C704 C706 1.561 . S
C704 C707 1.526 . S
C705 H689 0.959 . S
C705 H690 0.959 . S
C705 H691 0.961 . S
C705 C704 1.502 . S
C706 H692 0.960 . S
C706 H693 0.961 . S
C706 H694 0.959 . S
C706 C704 1.561 . S
C707 C704 1.526 . S
C707 C708 1.396 . S
C707 C712 1.390 . S
C708 C702 1.465 . S
C708 C707 1.396 . S
C708 C709 1.399 . S
C709 H695 0.929 . S
C709 C708 1.399 . S
C709 C710 1.385 . S
C710 H696 0.931 . S
C710 C709 1.385 . S
C710 C711 1.389 . S
C711 C710 1.389 . S
C711 C712 1.387 . S
C712 H697 0.930 . S
C712 C707 1.390 . S
C712 C711 1.387 . S
H713 C725 0.930 . S
H714 C727 0.930 . S
H715 C728 0.930 . S
H716 C732 0.959 . S
H717 C732 0.959 . S
H718 C732 0.961 . S
H719 C733 0.960 . S
H720 C733 0.961 . S
H721 C733 0.959 . S
H722 C736 0.929 . S
H723 C737 0.931 . S
H724 C739 0.930 . S
C725 H713 0.930 . S
C725 C726 1.399 . S
C725 C730 1.399 . S
C726 C725 1.399 . S
C726 C727 1.376 . S
C727 H714 0.930 . S
C727 C726 1.376 . S
C727 C728 1.388 . S
C728 H715 0.930 . S
C728 C727 1.388 . S
C728 C729 1.390 . S
C729 C728 1.390 . S
C729 C730 1.394 . S
C729 C735 1.465 . S
C730 C725 1.399 . S
C730 C729 1.394 . S
C730 C731 1.516 . S
C731 C730 1.516 . S
C731 C732 1.502 . S
C731 C733 1.561 . S
C731 C734 1.526 . S
C732 H716 0.959 . S
C732 H717 0.959 . S
C732 H718 0.961 . S
C732 C731 1.502 . S
C733 H719 0.960 . S
C733 H720 0.961 . S
C733 H721 0.959 . S
C733 C731 1.561 . S
C734 C731 1.526 . S
C734 C735 1.396 . S
C734 C739 1.390 . S
C735 C729 1.465 . S
C735 C734 1.396 . S
C735 C736 1.399 . S
C736 H722 0.929 . S
C736 C735 1.399 . S
C736 C737 1.385 . S
C737 H723 0.931 . S
C737 C736 1.385 . S
C737 C738 1.389 . S
C738 C737 1.389 . S
C738 C739 1.387 . S
C739 H724 0.930 . S
C739 C734 1.390 . S
C739 C738 1.387 . S
H740 C752 0.930 . S
H741 C754 0.930 . S
H742 C755 0.930 . S
H743 C759 0.959 . S
H744 C759 0.959 . S
H745 C759 0.961 . S
H746 C760 0.960 . S
H747 C760 0.961 . S
H748 C760 0.959 . S
H749 C763 0.929 . S
H750 C764 0.931 . S
H751 C766 0.930 . S
C752 H740 0.930 . S
C752 C753 1.399 . S
C752 C757 1.399 . S
C753 C752 1.399 . S
C753 C754 1.376 . S
C754 H741 0.930 . S
C754 C753 1.376 . S
C754 C755 1.388 . S
C755 H742 0.930 . S
C755 C754 1.388 . S
C755 C756 1.390 . S
C756 C755 1.390 . S
C756 C757 1.394 . S
C756 C762 1.465 . S
C757 C752 1.399 . S
C757 C756 1.394 . S
C757 C758 1.516 . S
C758 C757 1.516 . S
C758 C759 1.502 . S
C758 C760 1.561 . S
C758 C761 1.526 . S
C759 H743 0.959 . S
C759 H744 0.959 . S
C759 H745 0.961 . S
C759 C758 1.502 . S
C760 H746 0.960 . S
C760 H747 0.961 . S
C760 H748 0.959 . S
C760 C758 1.561 . S
C761 C758 1.526 . S
C761 C762 1.396 . S
C761 C766 1.390 . S
C762 C756 1.465 . S
C762 C761 1.396 . S
C762 C763 1.399 . S
C763 H749 0.929 . S
C763 C762 1.399 . S
C763 C764 1.385 . S
C764 H750 0.931 . S
C764 C763 1.385 . S
C764 C765 1.389 . S
C765 C764 1.389 . S
C765 C766 1.387 . S
C766 H751 0.930 . S
C766 C761 1.390 . S
C766 C765 1.387 . S
H767 C779 0.930 . S
H768 C781 0.930 . S
H769 C782 0.930 . S
H770 C786 0.959 . S
H771 C786 0.959 . S
H772 C786 0.961 . S
H773 C787 0.960 . S
H774 C787 0.961 . S
H775 C787 0.959 . S
H776 C790 0.929 . S
H777 C791 0.931 . S
H778 C793 0.930 . S
C779 H767 0.930 . S
C779 C780 1.399 . S
C779 C784 1.399 . S
C780 C779 1.399 . S
C780 C781 1.376 . S
C781 H768 0.930 . S
C781 C780 1.376 . S
C781 C782 1.388 . S
C782 H769 0.930 . S
C782 C781 1.388 . S
C782 C783 1.390 . S
C783 C782 1.390 . S
C783 C784 1.394 . S
C783 C789 1.465 . S
C784 C779 1.399 . S
C784 C783 1.394 . S
C784 C785 1.516 . S
C785 C784 1.516 . S
C785 C786 1.502 . S
C785 C787 1.561 . S
C785 C788 1.526 . S
C786 H770 0.959 . S
C786 H771 0.959 . S
C786 H772 0.961 . S
C786 C785 1.502 . S
C787 H773 0.960 . S
C787 H774 0.961 . S
C787 H775 0.959 . S
C787 C785 1.561 . S
C788 C785 1.526 . S
C788 C789 1.396 . S
C788 C793 1.390 . S
C789 C783 1.465 . S
C789 C788 1.396 . S
C789 C790 1.399 . S
C790 H776 0.929 . S
C790 C789 1.399 . S
C790 C791 1.385 . S
C791 H777 0.931 . S
C791 C790 1.385 . S
C791 C792 1.389 . S
C792 C791 1.389 . S
C792 C793 1.387 . S
C793 H778 0.930 . S
C793 C788 1.390 . S
C793 C792 1.387 . S
H794 C806 0.930 . S
H795 C808 0.930 . S
H796 C809 0.930 . S
H797 C813 0.959 . S
H798 C813 0.959 . S
H799 C813 0.961 . S
H800 C814 0.960 . S
H801 C814 0.961 . S
H802 C814 0.959 . S
H803 C817 0.929 . S
H804 C818 0.931 . S
H805 C820 0.930 . S
C806 H794 0.930 . S
C806 C807 1.399 . S
C806 C811 1.399 . S
C807 C806 1.399 . S
C807 C808 1.376 . S
C808 H795 0.930 . S
C808 C807 1.376 . S
C808 C809 1.388 . S
C809 H796 0.930 . S
C809 C808 1.388 . S
C809 C810 1.390 . S
C810 C809 1.390 . S
C810 C811 1.394 . S
C810 C816 1.465 . S
C811 C806 1.399 . S
C811 C810 1.394 . S
C811 C812 1.516 . S
C812 C811 1.516 . S
C812 C813 1.502 . S
C812 C814 1.561 . S
C812 C815 1.526 . S
C813 H797 0.959 . S
C813 H798 0.959 . S
C813 H799 0.961 . S
C813 C812 1.502 . S
C814 H800 0.960 . S
C814 H801 0.961 . S
C814 H802 0.959 . S
C814 C812 1.561 . S
C815 C812 1.526 . S
C815 C816 1.396 . S
C815 C820 1.390 . S
C816 C810 1.465 . S
C816 C815 1.396 . S
C816 C817 1.399 . S
C817 H803 0.929 . S
C817 C816 1.399 . S
C817 C818 1.385 . S
C818 H804 0.931 . S
C818 C817 1.385 . S
C818 C819 1.389 . S
C819 C818 1.389 . S
C819 C820 1.387 . S
C820 H805 0.930 . S
C820 C815 1.390 . S
C820 C819 1.387 . S
H821 C833 0.930 . S
H822 C835 0.930 . S
H823 C836 0.930 . S
H824 C840 0.959 . S
H825 C840 0.959 . S
H826 C840 0.961 . S
H827 C841 0.960 . S
H828 C841 0.961 . S
H829 C841 0.959 . S
H830 C844 0.929 . S
H831 C845 0.931 . S
H832 C847 0.930 . S
C833 H821 0.930 . S
C833 C834 1.399 . S
C833 C838 1.399 . S
C834 C833 1.399 . S
C834 C835 1.376 . S
C835 H822 0.930 . S
C835 C834 1.376 . S
C835 C836 1.388 . S
C836 H823 0.930 . S
C836 C835 1.388 . S
C836 C837 1.390 . S
C837 C836 1.390 . S
C837 C838 1.394 . S
C837 C843 1.465 . S
C838 C833 1.399 . S
C838 C837 1.394 . S
C838 C839 1.516 . S
C839 C838 1.516 . S
C839 C840 1.502 . S
C839 C841 1.561 . S
C839 C842 1.526 . S
C840 H824 0.959 . S
C840 H825 0.959 . S
C840 H826 0.961 . S
C840 C839 1.502 . S
C841 H827 0.960 . S
C841 H828 0.961 . S
C841 H829 0.959 . S
C841 C839 1.561 . S
C842 C839 1.526 . S
C842 C843 1.396 . S
C842 C847 1.390 . S
C843 C837 1.465 . S
C843 C842 1.396 . S
C843 C844 1.399 . S
C844 H830 0.929 . S
C844 C843 1.399 . S
C844 C845 1.385 . S
C845 H831 0.931 . S
C845 C844 1.385 . S
C845 C846 1.389 . S
C846 C845 1.389 . S
C846 C847 1.387 . S
C847 H832 0.930 . S
C847 C842 1.390 . S
C847 C846 1.387 . S
C213 C2 1.493 1_655 S
C225 C52 1.489 1_655 S
C240 C11 1.493 . S
C252 C104 1.493 . S
C267 C0 1.493 . S
C279 C53 1.493 1_655 S
C294 C106 1.493 . S
C306 C10 1.489 . S
C321 C1 1.493 1_655 S
C333 C51 1.497 1_655 S
C348 C8 1.493 1_565 S
C360 C107 1.493 1_565 S
C375 C50 1.493 1_655 S
C387 C3 1.493 1_655 S
C402 C105 1.493 . S
C414 C9 1.497 . S
C429 C156 1.493 . S
C441 C6 1.489 . S
C456 C157 1.493 . S
C468 C7 1.493 . S
C483 C154 1.493 . S
C495 C4 1.493 . S
C510 C5 1.493 1_556 S
C522 C155 1.497 1_556 S
C537 C161 1.493 . S
C549 C57 1.497 . S
C564 C55 1.493 . S
C576 C160 1.493 . S
C591 C54 1.493 . S
C603 C158 1.489 . S
C618 C159 1.493 . S
C630 C56 1.493 . S
C645 C110 1.493 . S
C657 C59 1.493 . S
C672 C61 1.493 . S
C684 C108 1.489 . S
C699 C58 1.493 . S
C711 C111 1.497 . S
C726 C109 1.493 . S
C738 C60 1.493 . S
C753 C152 1.493 . S
C765 C101 1.493 . S
C780 C100 1.493 . S
C792 C150 1.497 . S
C807 C151 1.493 . S
C819 C102 1.493 . S
C834 C103 1.493 . S
C846 C153 1.489 . S
