# Generated by pormake.
# Topology xfs, (7)-cn, num edge types: 1
# Building blocks:
#     Node 0, Type 0, BuildingBlock: HICVOG_clean_sbu_0, # of connection points: 7
#     Node 1, Type 0, BuildingBlock: HICVOG_clean_sbu_0, # of connection points: 7
#     Node 2, Type 0, BuildingBlock: HICVOG_clean_sbu_0, # of connection points: 7
#     Node 3, Type 0, BuildingBlock: HICVOG_clean_sbu_0, # of connection points: 7
#     Node 4, Type 0, BuildingBlock: HICVOG_clean_sbu_0, # of connection points: 7
#     Node 5, Type 0, BuildingBlock: HICVOG_clean_sbu_0, # of connection points: 7
#     Node 6, Type 0, BuildingBlock: HICVOG_clean_sbu_0, # of connection points: 7
#     Node 7, Type 0, BuildingBlock: HICVOG_clean_sbu_0, # of connection points: 7
#     Node 8, Type 0, BuildingBlock: HICVOG_clean_sbu_0, # of connection points: 7
#     Node 9, Type 0, BuildingBlock: HICVOG_clean_sbu_0, # of connection points: 7
#     Node 10, Type 0, BuildingBlock: HICVOG_clean_sbu_0, # of connection points: 7
#     Node 11, Type 0, BuildingBlock: HICVOG_clean_sbu_0, # of connection points: 7
#     Node 12, Type 0, BuildingBlock: HICVOG_clean_sbu_0, # of connection points: 7
#     Node 13, Type 0, BuildingBlock: HICVOG_clean_sbu_0, # of connection points: 7
#     Node 14, Type 0, BuildingBlock: HICVOG_clean_sbu_0, # of connection points: 7
#     Node 15, Type 0, BuildingBlock: HICVOG_clean_sbu_0, # of connection points: 7
#     Node 16, Type 0, BuildingBlock: HICVOG_clean_sbu_0, # of connection points: 7
#     Node 17, Type 0, BuildingBlock: HICVOG_clean_sbu_0, # of connection points: 7
#     Node 18, Type 0, BuildingBlock: HICVOG_clean_sbu_0, # of connection points: 7
#     Node 19, Type 0, BuildingBlock: HICVOG_clean_sbu_0, # of connection points: 7
#     Node 20, Type 0, BuildingBlock: HICVOG_clean_sbu_0, # of connection points: 7
#     Node 21, Type 0, BuildingBlock: HICVOG_clean_sbu_0, # of connection points: 7
#     Node 22, Type 0, BuildingBlock: HICVOG_clean_sbu_0, # of connection points: 7
#     Node 23, Type 0, BuildingBlock: HICVOG_clean_sbu_0, # of connection points: 7
#     Node 24, Type 0, BuildingBlock: HICVOG_clean_sbu_0, # of connection points: 7
#     Node 25, Type 0, BuildingBlock: HICVOG_clean_sbu_0, # of connection points: 7
#     Node 26, Type 0, BuildingBlock: HICVOG_clean_sbu_0, # of connection points: 7
#     Node 27, Type 0, BuildingBlock: HICVOG_clean_sbu_0, # of connection points: 7
#     Node 28, Type 0, BuildingBlock: HICVOG_clean_sbu_0, # of connection points: 7
#     Node 29, Type 0, BuildingBlock: HICVOG_clean_sbu_0, # of connection points: 7
#     Node 30, Type 0, BuildingBlock: HICVOG_clean_sbu_0, # of connection points: 7
#     Node 31, Type 0, BuildingBlock: HICVOG_clean_sbu_0, # of connection points: 7
#     Edge 32, Type (0, 0), None
#     Edge 33, Type (0, 0), None
#     Edge 34, Type (0, 0), None
#     Edge 35, Type (0, 0), None
#     Edge 36, Type (0, 0), None
#     Edge 37, Type (0, 0), None
#     Edge 38, Type (0, 0), None
#     Edge 39, Type (0, 0), None
#     Edge 40, Type (0, 0), None
#     Edge 41, Type (0, 0), None
#     Edge 42, Type (0, 0), None
#     Edge 43, Type (0, 0), None
#     Edge 44, Type (0, 0), None
#     Edge 45, Type (0, 0), None
#     Edge 46, Type (0, 0), None
#     Edge 47, Type (0, 0), None
#     Edge 48, Type (0, 0), None
#     Edge 49, Type (0, 0), None
#     Edge 50, Type (0, 0), None
#     Edge 51, Type (0, 0), None
#     Edge 52, Type (0, 0), None
#     Edge 53, Type (0, 0), None
#     Edge 54, Type (0, 0), None
#     Edge 55, Type (0, 0), None
#     Edge 56, Type (0, 0), None
#     Edge 57, Type (0, 0), None
#     Edge 58, Type (0, 0), None
#     Edge 59, Type (0, 0), None
#     Edge 60, Type (0, 0), None
#     Edge 61, Type (0, 0), None
#     Edge 62, Type (0, 0), None
#     Edge 63, Type (0, 0), None
#     Edge 64, Type (0, 0), None
#     Edge 65, Type (0, 0), None
#     Edge 66, Type (0, 0), None
#     Edge 67, Type (0, 0), None
#     Edge 68, Type (0, 0), None
#     Edge 69, Type (0, 0), None
#     Edge 70, Type (0, 0), None
#     Edge 71, Type (0, 0), None
#     Edge 72, Type (0, 0), None
#     Edge 73, Type (0, 0), None
#     Edge 74, Type (0, 0), None
#     Edge 75, Type (0, 0), None
#     Edge 76, Type (0, 0), None
#     Edge 77, Type (0, 0), None
#     Edge 78, Type (0, 0), None
#     Edge 79, Type (0, 0), None
#     Edge 80, Type (0, 0), None
#     Edge 81, Type (0, 0), None
#     Edge 82, Type (0, 0), None
#     Edge 83, Type (0, 0), None
#     Edge 84, Type (0, 0), None
#     Edge 85, Type (0, 0), None
#     Edge 86, Type (0, 0), None
#     Edge 87, Type (0, 0), None
#     Edge 88, Type (0, 0), None
#     Edge 89, Type (0, 0), None
#     Edge 90, Type (0, 0), None
#     Edge 91, Type (0, 0), None
#     Edge 92, Type (0, 0), None
#     Edge 93, Type (0, 0), None
#     Edge 94, Type (0, 0), None
#     Edge 95, Type (0, 0), None
#     Edge 96, Type (0, 0), None
#     Edge 97, Type (0, 0), None
#     Edge 98, Type (0, 0), None
#     Edge 99, Type (0, 0), None
#     Edge 100, Type (0, 0), None
#     Edge 101, Type (0, 0), None
#     Edge 102, Type (0, 0), None
#     Edge 103, Type (0, 0), None
#     Edge 104, Type (0, 0), None
#     Edge 105, Type (0, 0), None
#     Edge 106, Type (0, 0), None
#     Edge 107, Type (0, 0), None
#     Edge 108, Type (0, 0), None
#     Edge 109, Type (0, 0), None
#     Edge 110, Type (0, 0), None
#     Edge 111, Type (0, 0), None
#     Edge 112, Type (0, 0), None
#     Edge 113, Type (0, 0), None
#     Edge 114, Type (0, 0), None
#     Edge 115, Type (0, 0), None
#     Edge 116, Type (0, 0), None
#     Edge 117, Type (0, 0), None
#     Edge 118, Type (0, 0), None
#     Edge 119, Type (0, 0), None
#     Edge 120, Type (0, 0), None
#     Edge 121, Type (0, 0), None
#     Edge 122, Type (0, 0), None
#     Edge 123, Type (0, 0), None
#     Edge 124, Type (0, 0), None
#     Edge 125, Type (0, 0), None
#     Edge 126, Type (0, 0), None
#     Edge 127, Type (0, 0), None
#     Edge 128, Type (0, 0), None
#     Edge 129, Type (0, 0), None
#     Edge 130, Type (0, 0), None
#     Edge 131, Type (0, 0), None
#     Edge 132, Type (0, 0), None
#     Edge 133, Type (0, 0), None
#     Edge 134, Type (0, 0), None
#     Edge 135, Type (0, 0), None
#     Edge 136, Type (0, 0), None
#     Edge 137, Type (0, 0), None
#     Edge 138, Type (0, 0), None
#     Edge 139, Type (0, 0), None
#     Edge 140, Type (0, 0), None
#     Edge 141, Type (0, 0), None
#     Edge 142, Type (0, 0), None
#     Edge 143, Type (0, 0), None
# Relax obj value: 0.329
# Max RMSD: 0.273
# Mean RMSD: 0.273
data_MOF--net-xfs--node1-HICVOG_clean_sbu_0--edge1-none
_symmetry_space_group_name_H-M    P1
_symmetry_Int_Tables_number       1
_symmetry_cell_setting            triclinic
loop_
_symmetry_equiv_pos_as_xyz
'x, y, z'
_cell_length_a     13.389257
_cell_length_b     13.391126
_cell_length_c     99.584327
_cell_angle_alpha  90.000742
_cell_angle_beta   89.998822
_cell_angle_gamma 89.997991
loop_
_atom_site_label
_atom_site_type_symbol
_atom_site_fract_x
_atom_site_fract_y
_atom_site_fract_z
_atom_type_partial_charge
Zn0 Zn 0.35721 0.24047 0.0375 0.0
C1 C 0.13499 0.34862 0.05557 0.0
N2 N 0.16064 0.43869 0.05096 0.0
C3 C 0.25727 0.4286 0.04779 0.0
N4 N 0.28842 0.33224 0.05007 0.0
N5 N 0.21192 0.28397 0.05529 0.0
C6 C 0.09772 1.02435 0.0538 0.0
O7 O 0.14956 1.05343 0.04336 0.0
O8 O 0.50273 0.24959 0.04004 0.0
Zn9 Zn 0.22635 0.16049 0.06598 0.0
N10 N 0.30165 0.26026 0.01981 0.0
C11 C 0.15234 0.23842 0.00718 0.0
C12 C 0.20128 0.24532 0.01946 0.0
C13 C 0.35547 0.26919 0.0083 0.0
N14 N 0.20539 0.24824 -0.00432 0.0
C15 C 0.30585 0.26362 -0.00419 0.0
O16 O 0.3271 1.05283 0.06065 0.0
C17 C 0.34825 1.02131 0.04895 0.0
O18 O 0.34916 1.08331 0.0392 0.0
H19 H 0.16018 0.23461 0.02869 0.0
H20 H 0.43586 0.27637 0.0089 0.0
C21 C 0.2271 0.16239 0.09548 0.0
C22 C 0.25533 0.20194 0.10807 0.0
C23 C 0.34841 0.328 0.09703 0.0
C24 C 0.31861 0.29012 0.08466 0.0
N25 N 0.25987 0.20717 0.08404 0.0
N26 N 0.31593 0.28341 0.10842 0.0
H27 H 0.17913 0.09756 0.09474 0.0
C28 C 0.5189 0.2155 0.0518 0.0
O29 O 0.44822 0.22072 0.06084 0.0
O30 O 0.10554 1.07184 0.06488 0.0
H31 H 0.34221 0.32751 0.07562 0.0
H32 H 1.07293 0.22384 0.00679 0.0
H33 H 0.39577 0.39335 0.09759 0.0
Zn34 Zn 0.25642 0.97632 0.31598 0.0
C35 C 0.98828 1.00734 0.29782 0.0
N36 N 0.97819 0.91069 0.30097 0.0
C37 C 1.06826 0.88504 0.30557 0.0
N38 N 0.13283 0.96202 0.30532 0.0
N39 N 0.08462 1.03859 0.30011 0.0
C40 C 0.20142 0.2689 0.30178 0.0
O41 O 0.19616 0.19833 0.31084 0.0
O42 O 0.3451 0.85552 0.31487 0.0
Zn43 Zn 0.17651 0.10706 0.28752 0.0
N44 N 0.20984 1.00982 0.33404 0.0
C45 C 0.08915 0.09846 0.34705 0.0
C46 C 0.12694 1.06863 0.33467 0.0
C47 C 0.25467 0.97701 0.34548 0.0
N48 N 0.13378 1.06595 0.35844 0.0
C49 C 0.21522 1.00528 0.35807 0.0
O50 O 0.33364 0.09902 0.28922 0.0
C51 C 0.39557 0.09823 0.29897 0.0
O52 O 0.364 1.07713 0.31067 0.0
H53 H 0.08953 0.09229 0.32564 0.0
H54 H 0.31947 0.929 0.34473 0.0
C55 C 0.1478 0.10518 0.25832 0.0
C56 C 0.15332 1.05556 0.24584 0.0
C57 C 0.17829 0.90204 0.25721 0.0
C58 C 0.17146 0.95098 0.26949 0.0
N59 N 0.1567 1.05136 0.26984 0.0
N60 N 0.16856 0.9551 0.2457 0.0
H61 H 0.14072 0.18557 0.25893 0.0
C62 C 0.39259 0.84771 0.30379 0.0
O63 O 0.36353 0.89958 0.29335 0.0
O64 O 0.16744 0.25259 0.29002 0.0
H65 H 0.18211 0.90987 0.27871 0.0
H66 H 1.02384 0.14587 0.34762 0.0
H67 H 0.19277 0.82262 0.25681 0.0
Zn68 Zn 0.4402 1.00627 0.56597 0.0
C69 C 0.40928 0.73811 0.5478 0.0
N70 N 0.50594 0.72805 0.55095 0.0
C71 C 0.53152 0.81808 0.55557 0.0
N72 N 0.45452 0.88262 0.55532 0.0
N73 N 0.37797 0.83442 0.5501 0.0
C74 C 0.1477 0.95137 0.55176 0.0
O75 O 0.21824 0.94603 0.56082 0.0
O76 O 0.56099 0.09496 0.56485 0.0
Zn77 Zn 0.3096 0.92641 0.5375 0.0
N78 N 0.40678 0.95976 0.58404 0.0
C79 C 0.31817 0.83913 0.59706 0.0
C80 C 0.34792 0.87691 0.58468 0.0
C81 C 0.43972 1.00455 0.59547 0.0
N82 N 0.35081 0.88371 0.60844 0.0
C83 C 0.41153 0.9651 0.60807 0.0
O84 O 0.31762 0.08354 0.53921 0.0
C85 C 0.31836 0.14547 0.54896 0.0
O86 O 0.33937 0.11387 0.56066 0.0
H87 H 0.32418 0.83954 0.57565 0.0
H88 H 0.48777 1.06931 0.59472 0.0
C89 C 0.31167 0.89768 0.50831 0.0
C90 C 0.36137 0.9032 0.49583 0.0
C91 C 0.51483 0.92825 0.50722 0.0
C92 C 0.4658 0.9214 0.51949 0.0
N93 N 0.3654 0.90661 0.51983 0.0
N94 N 0.46185 0.91848 0.49571 0.0
H95 H 0.23126 0.89057 0.5089 0.0
C96 C 0.56884 0.14233 0.55376 0.0
O97 O 0.51701 0.11317 0.54332 0.0
O98 O 0.16403 0.91739 0.54 0.0
H99 H 0.50685 0.93206 0.52872 0.0
H100 H 0.27072 0.77385 0.59763 0.0
H101 H 0.59426 0.94276 0.50683 0.0
Zn102 Zn 0.49075 1.0595 0.7875 0.0
C103 C 0.59874 0.28168 0.80562 0.0
N104 N 0.68888 0.25601 0.80103 0.0
C105 C 0.67876 0.15945 0.79784 0.0
N106 N 0.58235 0.12834 0.80009 0.0
N107 N 0.53404 0.20481 0.80531 0.0
C108 C 0.27445 0.31894 0.80378 0.0
O109 O 0.30362 0.26709 0.79334 0.0
O110 O 0.49989 0.914 0.79004 0.0
Zn111 Zn 0.41052 0.19032 0.81598 0.0
N112 N 0.51057 0.11509 0.76982 0.0
C113 C 0.48873 0.26444 0.7572 0.0
C114 C 0.49566 0.21546 0.76948 0.0
C115 C 0.51944 1.06132 0.7583 0.0
N116 N 0.49848 0.21143 0.74569 0.0
C117 C 0.51383 0.11097 0.74582 0.0
O118 O 0.30296 0.08954 0.81064 0.0
C119 C 0.27153 1.06839 0.79894 0.0
O120 O 0.33359 1.0675 0.7892 0.0
H121 H 0.485 0.25653 0.77871 0.0
H122 H 0.52657 0.98093 0.7589 0.0
C123 C 0.41234 0.18962 0.84547 0.0
C124 C 0.45187 0.16144 0.85807 0.0
C125 C 0.57797 1.06833 0.84704 0.0
C126 C 0.54012 0.09808 0.83466 0.0
N127 N 0.45715 0.15682 0.83404 0.0
N128 N 0.53336 0.10084 0.85843 0.0
H129 H 0.34751 0.23759 0.84473 0.0
C130 C 0.46571 0.89782 0.80179 0.0
O131 O 0.47088 0.96847 0.81084 0.0
O132 O 0.32182 0.31108 0.81487 0.0
H133 H 0.57753 1.07447 0.82563 0.0
H134 H 0.47416 0.34384 0.75681 0.0
H135 H 0.64333 1.02097 0.84761 0.0
Zn136 Zn 0.35749 0.92621 0.44132 0.0
C137 C 0.13526 0.81823 0.42322 0.0
N138 N 0.1609 0.72811 0.42782 0.0
C139 C 0.25751 0.7382 0.431 0.0
N140 N 0.28865 0.83458 0.42873 0.0
N141 N 0.21216 0.88289 0.42352 0.0
C142 C 0.09804 0.14251 0.42504 0.0
O143 O 0.14989 0.11336 0.43548 0.0
O144 O 0.50302 0.91708 0.43878 0.0
Zn145 Zn 0.22666 1.0064 0.41285 0.0
N146 N 0.30186 0.90646 0.459 0.0
C147 C 0.1525 0.92847 0.47161 0.0
C148 C 0.20149 0.92147 0.45934 0.0
C149 C 0.35562 0.89755 0.47052 0.0
N150 N 0.20549 0.91867 0.48313 0.0
C151 C 0.30594 0.90322 0.483 0.0
O152 O 0.32744 0.114 0.41818 0.0
C153 C 0.34861 0.14541 0.42988 0.0
O154 O 0.34951 1.08335 0.43962 0.0
H155 H 0.16044 0.93216 0.45011 0.0
H156 H 0.43601 0.89033 0.46993 0.0
C157 C 0.22735 1.00455 0.38335 0.0
C158 C 0.25553 0.96501 0.37076 0.0
C159 C 0.34866 0.83894 0.38178 0.0
C160 C 0.3189 0.8768 0.39416 0.0
N161 N 0.26017 0.95975 0.39479 0.0
N162 N 0.31614 0.88354 0.3704 0.0
H163 H 0.17938 1.06938 0.3841 0.0
C164 C 0.51918 0.95129 0.42703 0.0
O165 O 0.44853 0.94609 0.41798 0.0
O166 O 0.10588 0.0951 0.41395 0.0
H167 H 0.34253 0.8394 0.4032 0.0
H168 H 1.0731 0.94312 0.472 0.0
H169 H 0.39602 0.77359 0.38122 0.0
Zn170 Zn 0.41076 0.97657 0.66285 0.0
C171 C 0.67886 1.00757 0.68103 0.0
N172 N 0.68895 0.91092 0.67788 0.0
C173 C 0.59891 0.88531 0.67326 0.0
N174 N 0.53436 0.96229 0.67351 0.0
N175 N 0.58254 1.03885 0.67873 0.0
C176 C 0.4657 0.2691 0.67706 0.0
O177 O 0.47103 0.19855 0.66799 0.0
O178 O 0.3221 0.85577 0.66396 0.0
Zn179 Zn 0.49053 0.10723 0.69132 0.0
N180 N 0.45732 1.01001 0.64478 0.0
C181 C 0.57799 0.09858 0.63176 0.0
C182 C 0.54022 1.06882 0.64414 0.0
C183 C 0.41247 0.97717 0.63335 0.0
N184 N 0.53335 1.06603 0.62038 0.0
C185 C 0.45191 1.00538 0.62075 0.0
O186 O 0.33337 0.0992 0.6896 0.0
C187 C 0.27149 0.09843 0.67985 0.0
O188 O 0.30315 1.07738 0.66815 0.0
H189 H 0.57763 0.09251 0.65317 0.0
H190 H 0.34767 0.92917 0.6341 0.0
C191 C 0.51928 0.10521 0.72051 0.0
C192 C 0.51379 1.05553 0.73299 0.0
C193 C 0.48875 0.90207 0.72161 0.0
C194 C 0.49554 0.95107 0.70933 0.0
N195 N 0.51032 1.05146 0.70899 0.0
N196 N 0.49854 0.95506 0.73312 0.0
H197 H 0.52639 0.1856 0.71991 0.0
C198 C 0.2746 0.84795 0.67504 0.0
O199 O 0.30364 0.89981 0.68548 0.0
O200 O 0.4996 0.25277 0.68882 0.0
H201 H 0.48487 0.91001 0.7001 0.0
H202 H 0.64331 0.14599 0.63119 0.0
H203 H 0.47427 0.82265 0.722 0.0
Zn204 Zn 0.44054 0.16059 0.91285 0.0
C205 C 0.40961 0.42875 0.93101 0.0
N206 N 0.50629 0.4388 0.92787 0.0
C207 C 0.5319 0.34873 0.92326 0.0
N208 N 0.45488 0.28421 0.92351 0.0
N209 N 0.37831 0.33244 0.92872 0.0
C210 C 0.14797 0.21552 0.92704 0.0
O211 O 0.21854 0.22082 0.91798 0.0
O212 O 0.56133 1.07189 0.91396 0.0
Zn213 Zn 0.30981 0.24056 0.94131 0.0
N214 N 0.40705 0.20714 0.89478 0.0
C215 C 0.31841 0.32781 0.88177 0.0
C216 C 0.34824 0.29004 0.89415 0.0
C217 C 0.43986 0.1623 0.88335 0.0
N218 N 0.35093 0.28318 0.87039 0.0
C219 C 0.4116 0.20175 0.87075 0.0
O220 O 0.31783 0.08345 0.93961 0.0
C221 C 0.31862 1.02148 0.92986 0.0
O222 O 0.33971 1.053 0.91816 0.0
H223 H 0.32458 0.32744 0.90318 0.0
H224 H 0.48787 0.09751 0.8841 0.0
C225 C 0.31172 0.26925 0.9705 0.0
C226 C 0.36135 0.26365 0.98299 0.0
C227 C 0.51486 0.23856 0.97161 0.0
C228 C 0.4659 0.24546 0.95933 0.0
N229 N 0.36552 0.26033 0.95899 0.0
N230 N 0.46182 0.24831 0.98312 0.0
H231 H 0.23132 0.2764 0.9699 0.0
C232 C 0.56916 1.02446 0.92505 0.0
O233 O 0.51729 1.05358 0.93549 0.0
O234 O 0.16425 0.24959 0.9388 0.0
H235 H 0.507 0.23481 0.95011 0.0
H236 H 0.27099 0.39312 0.88121 0.0
H237 H 0.59428 0.224 0.97201 0.0
Zn238 Zn 0.17657 1.05979 0.19132 0.0
C239 C 1.06842 0.282 0.17326 0.0
N240 N 0.97833 0.25634 0.17786 0.0
C241 C 0.98844 0.15973 0.18103 0.0
N242 N 0.08481 0.1286 0.17875 0.0
N243 N 0.13308 0.2051 0.17354 0.0
C244 C 0.39272 0.31929 0.17502 0.0
O245 O 0.36369 0.26743 0.18546 0.0
O246 O 0.16741 0.9143 0.18878 0.0
Zn247 Zn 0.25654 0.19067 0.16285 0.0
N248 N 0.15677 0.11531 0.20901 0.0
C249 C 0.17854 0.26459 0.22165 0.0
C250 C 0.17169 0.21568 0.20937 0.0
C251 C 0.14783 1.06148 0.22053 0.0
N252 N 0.16872 0.21153 0.23315 0.0
C253 C 0.15338 0.11108 0.23302 0.0
O254 O 0.36419 0.08993 0.16817 0.0
C255 C 0.39574 1.06876 0.17987 0.0
O256 O 0.33376 1.06784 0.18962 0.0
H257 H 0.18239 0.25679 0.20014 0.0
H258 H 0.14067 0.9811 0.21992 0.0
C259 C 0.25463 0.18992 0.13335 0.0
C260 C 0.21506 0.1617 0.12076 0.0
C261 C 0.08898 1.06865 0.13179 0.0
C262 C 0.12686 0.09844 0.14417 0.0
N263 N 0.20983 0.15716 0.14479 0.0
N264 N 0.13357 0.10111 0.1204 0.0
H265 H 0.31947 0.23787 0.13409 0.0
C266 C 0.20147 0.89812 0.17702 0.0
O267 O 0.19628 0.9688 0.16798 0.0
O268 O 0.34519 0.31147 0.16394 0.0
H269 H 0.08947 1.07485 0.15321 0.0
H270 H 0.19309 0.344 0.22205 0.0
H271 H 1.02361 1.02131 0.13124 0.0
Zn272 Zn 0.94051 1.00626 0.91285 0.0
C273 C 0.90961 0.73813 0.93102 0.0
N274 N 1.00629 0.72808 0.92788 0.0
C275 C 1.03189 0.81814 0.92326 0.0
N276 N 0.95487 0.88266 0.92351 0.0
N277 N 0.87831 0.83443 0.92873 0.0
C278 C 0.64799 0.95132 0.92705 0.0
O279 O 0.71854 0.94603 0.91798 0.0
O280 O 1.0613 0.09496 0.91396 0.0
Zn281 Zn 0.80982 0.92633 0.94132 0.0
N282 N 0.90705 0.95968 0.89478 0.0
C283 C 0.81846 0.83896 0.88178 0.0
C284 C 0.84825 0.87677 0.89415 0.0
C285 C 0.93987 1.00449 0.88335 0.0
N286 N 0.85099 0.88357 0.87039 0.0
C287 C 0.91164 0.965 0.87075 0.0
O288 O 0.81785 1.08344 0.93961 0.0
C289 C 0.81862 0.14538 0.92987 0.0
O290 O 0.83968 0.11385 0.91816 0.0
H291 H 0.82459 0.83939 0.90319 0.0
H292 H 0.98787 1.06929 0.88409 0.0
C293 C 0.81174 0.89756 0.97051 0.0
C294 C 0.86137 0.90313 0.983 0.0
C295 C 1.01486 0.92836 0.97162 0.0
C296 C 0.9659 0.92148 0.95934 0.0
N297 N 0.86553 0.90656 0.95899 0.0
N298 N 0.96183 0.91853 0.98313 0.0
H299 H 0.73135 0.89036 0.96991 0.0
C300 C 1.06913 0.14239 0.92505 0.0
O301 O 1.01729 0.11329 0.93549 0.0
O302 O 0.66426 0.91732 0.9388 0.0
H303 H 1.00699 0.93219 0.95011 0.0
H304 H 0.77106 0.77364 0.88121 0.0
H305 H 0.09427 0.94296 0.97201 0.0
Zn306 Zn 0.9909 1.05969 0.69131 0.0
C307 C 0.09882 0.28193 0.67317 0.0
N308 N 0.18902 0.25626 0.67774 0.0
C309 C 0.17885 0.15972 0.68094 0.0
N310 N 1.0824 0.12861 0.67872 0.0
N311 N 1.03408 0.20508 0.6735 0.0
C312 C 0.77446 0.31919 0.67502 0.0
O313 O 0.80362 0.26736 0.68546 0.0
O314 O 1.00005 0.91421 0.68875 0.0
Zn315 Zn 0.91053 0.19053 0.66284 0.0
N316 N 1.01079 0.11521 0.709 0.0
C317 C 0.98896 0.26452 0.72162 0.0
C318 C 0.9959 0.21559 0.70934 0.0
C319 C 1.01962 1.0614 0.72051 0.0
N320 N 0.99868 0.21147 0.73313 0.0
C321 C 1.014 0.11101 0.733 0.0
O322 O 0.80294 0.08979 0.66818 0.0
C323 C 0.77164 1.06863 0.6799 0.0
O324 O 0.83374 1.06771 0.68963 0.0
H325 H 0.98525 0.25669 0.70012 0.0
H326 H 1.02672 0.98101 0.71991 0.0
C327 C 0.91221 0.18966 0.63334 0.0
C328 C 0.9517 0.16145 0.62075 0.0
C329 C 1.07795 1.06852 0.63177 0.0
C330 C 1.04015 0.09831 0.64415 0.0
N331 N 0.95713 0.15696 0.64478 0.0
N332 N 1.03325 0.10093 0.62038 0.0
H333 H 0.84734 0.23756 0.63409 0.0
C334 C 0.96581 0.89809 0.67701 0.0
O335 O 0.97093 0.96879 0.66796 0.0
O336 O 0.82185 0.31131 0.66394 0.0
H337 H 1.07764 1.07478 0.65318 0.0
H338 H 0.97439 0.34392 0.72202 0.0
H339 H 0.14336 1.02123 0.6312 0.0
Zn340 Zn 0.72661 0.16066 0.41285 0.0
C341 C 0.75759 0.42877 0.43102 0.0
N342 N 0.6609 0.43882 0.42789 0.0
C343 C 0.63528 0.34877 0.42327 0.0
N344 N 0.7123 0.28424 0.42352 0.0
N345 N 0.78888 0.33246 0.42873 0.0
C346 C 1.01919 0.21562 0.42704 0.0
O347 O 0.94862 0.22089 0.41798 0.0
O348 O 0.60581 1.07197 0.41396 0.0
Zn349 Zn 0.85736 0.24054 0.44131 0.0
N350 N 0.76009 0.20724 0.39479 0.0
C351 C 0.84865 0.32795 0.38178 0.0
C352 C 0.81886 0.29016 0.39416 0.0
C353 C 0.7273 0.16239 0.38336 0.0
N354 N 0.81615 0.2833 0.37039 0.0
C355 C 0.75553 0.20184 0.37076 0.0
O356 O 0.84934 1.08343 0.43961 0.0
C357 C 0.84853 1.02149 0.42986 0.0
O358 O 0.82743 1.05305 0.41816 0.0
H359 H 0.84251 0.32758 0.40319 0.0
H360 H 0.67933 0.09757 0.38411 0.0
C361 C 0.85541 0.26922 0.47051 0.0
C362 C 0.80574 0.26362 0.483 0.0
C363 C 0.65227 0.23849 0.47161 0.0
C364 C 0.70126 0.2454 0.45933 0.0
N365 N 0.80164 0.26028 0.45899 0.0
N366 N 0.70528 0.24827 0.48312 0.0
H367 H 0.9358 0.27638 0.46992 0.0
C368 C 0.59801 1.02445 0.42504 0.0
O369 O 0.64987 1.05347 0.43548 0.0
O370 O 1.00292 0.24958 0.4388 0.0
H371 H 0.66019 0.23473 0.45011 0.0
H372 H 0.89603 0.39328 0.38121 0.0
H373 H 0.57285 0.22393 0.472 0.0
Zn374 Zn 0.67642 0.10748 0.19133 0.0
C375 C 0.56844 0.88532 0.17318 0.0
N376 N 0.47825 0.91096 0.17775 0.0
C377 C 0.48841 1.00749 0.18095 0.0
N378 N 0.58486 1.03862 0.17873 0.0
N379 N 0.63317 0.96217 0.17351 0.0
C380 C 0.89274 0.84805 0.17504 0.0
O381 O 0.86352 0.89987 0.18548 0.0
O382 O 0.6673 0.25298 0.18878 0.0
Zn383 Zn 0.75675 0.97673 0.16285 0.0
N384 N 0.65654 1.05187 0.20901 0.0
C385 C 0.67838 0.90252 0.22162 0.0
C386 C 0.67147 0.95151 0.20935 0.0
C387 C 0.64763 0.10563 0.22053 0.0
N388 N 0.66859 0.95551 0.23314 0.0
C389 C 0.65322 1.05596 0.23301 0.0
O390 O 0.86437 1.07746 0.1682 0.0
C391 C 0.89571 0.09858 0.17991 0.0
O392 O 0.83361 0.09947 0.18964 0.0
H393 H 0.68216 0.91045 0.20012 0.0
H394 H 0.64049 0.18602 0.21993 0.0
C395 C 0.75497 0.97745 0.13335 0.0
C396 C 0.71545 1.00565 0.12076 0.0
C397 C 0.58941 0.09884 0.13178 0.0
C398 C 0.62724 1.06905 0.14416 0.0
N399 N 0.71017 1.01028 0.14479 0.0
N400 N 0.634 1.0663 0.12039 0.0
H401 H 0.81977 0.92944 0.13409 0.0
C402 C 0.70152 0.26912 0.17703 0.0
O403 O 0.6964 0.19843 0.16799 0.0
O404 O 0.84543 0.85596 0.16395 0.0
H405 H 0.58981 0.09265 0.15319 0.0
H406 H 0.69298 0.82312 0.22201 0.0
H407 H 0.52407 0.14623 0.13122 0.0
Zn408 Zn 0.94017 0.1605 0.56597 0.0
C409 C 0.90927 0.42867 0.5478 0.0
N410 N 1.00592 0.43874 0.55095 0.0
C411 C 1.03151 0.34869 0.55557 0.0
N412 N 0.95452 0.28415 0.55531 0.0
N413 N 0.87797 0.33235 0.55009 0.0
C414 C 0.6477 0.21544 0.55176 0.0
O415 O 0.71825 0.22071 0.56082 0.0
O416 O 1.06097 1.07182 0.56485 0.0
Zn417 Zn 0.80955 0.24038 0.5375 0.0
N418 N 0.90669 0.20702 0.58403 0.0
C419 C 0.818 0.32764 0.59705 0.0
C420 C 0.84782 0.28987 0.58467 0.0
C421 C 0.93957 0.16223 0.59547 0.0
N422 N 0.85059 0.28306 0.60843 0.0
C423 C 0.91133 0.20168 0.60806 0.0
O424 O 0.81759 1.08324 0.5392 0.0
C425 C 0.81834 1.02131 0.54895 0.0
O426 O 0.83937 1.05288 0.56065 0.0
H427 H 0.82413 0.32726 0.57563 0.0
H428 H 0.98764 0.09747 0.59472 0.0
C429 C 0.81153 0.26913 0.5083 0.0
C430 C 0.8612 0.26361 0.49582 0.0
C431 C 1.01468 0.23854 0.50721 0.0
C432 C 0.96569 0.24538 0.51948 0.0
N433 N 0.8653 0.26019 0.51982 0.0
N434 N 0.96167 0.24832 0.49569 0.0
H435 H 0.73113 0.27626 0.5089 0.0
C436 C 1.06883 1.02446 0.55376 0.0
O437 O 1.017 1.05362 0.54332 0.0
O438 O 0.66399 0.2494 0.54 0.0
H439 H 1.00676 0.23472 0.52871 0.0
H440 H 0.77054 0.39292 0.59761 0.0
H441 H 0.09411 0.22402 0.50681 0.0
Zn442 Zn 0.75652 0.19031 0.31598 0.0
C443 C 0.48827 0.1594 0.29787 0.0
N444 N 0.47814 0.25602 0.30102 0.0
C445 C 0.56827 0.28165 0.30561 0.0
N446 N 0.63287 0.20469 0.30533 0.0
N447 N 0.58464 0.12813 0.30012 0.0
C448 C 0.70143 0.89782 0.30177 0.0
O449 O 0.6962 0.9684 0.31083 0.0
O450 O 0.84521 0.3111 0.31487 0.0
Zn451 Zn 0.67643 1.05965 0.28751 0.0
N452 N 0.70997 0.15681 0.33405 0.0
C453 C 0.58929 1.06819 0.34706 0.0
C454 C 0.62709 0.09797 0.33468 0.0
C455 C 0.75475 0.1897 0.34548 0.0
N456 N 0.63388 0.10078 0.35845 0.0
C457 C 0.71527 0.16149 0.35808 0.0
O458 O 0.83355 1.06765 0.28921 0.0
C459 C 0.89554 1.06844 0.29895 0.0
O460 O 0.86411 0.0895 0.31066 0.0
H461 H 0.5897 1.07428 0.32565 0.0
H462 H 0.81952 0.23774 0.34473 0.0
C463 C 0.64765 1.0617 0.25832 0.0
C464 C 0.65322 0.11139 0.24584 0.0
C465 C 0.67834 0.26482 0.25723 0.0
C466 C 0.67146 0.21581 0.2695 0.0
N467 N 0.6566 0.11543 0.26984 0.0
N468 N 0.66856 0.21184 0.24572 0.0
H469 H 0.64049 0.98132 0.25891 0.0
C470 C 0.89265 0.31896 0.30379 0.0
O471 O 0.86354 0.26711 0.29335 0.0
O472 O 0.66738 0.91411 0.29002 0.0
H473 H 0.68215 0.25685 0.27873 0.0
H474 H 0.524 1.02075 0.34763 0.0
H475 H 0.69291 0.34422 0.25684 0.0
Zn476 Zn 0.85725 0.92617 0.03751 0.0
C477 C 0.63505 0.81814 0.05562 0.0
N478 N 0.66071 0.72803 0.05102 0.0
C479 C 0.75728 0.73815 0.04783 0.0
N480 N 0.7884 0.83454 0.05009 0.0
N481 N 0.71193 0.88283 0.05531 0.0
C482 C 0.59778 0.14243 0.0538 0.0
O483 O 0.6496 0.11327 0.04336 0.0
O484 O 1.00276 0.91706 0.04005 0.0
Zn485 Zn 0.72644 1.00636 0.06598 0.0
N486 N 0.8017 0.90633 0.01982 0.0
C487 C 0.65237 0.92815 0.0072 0.0
C488 C 0.70131 0.92122 0.01947 0.0
C489 C 0.85551 0.89747 0.00831 0.0
N490 N 0.70541 0.9184 -0.00431 0.0
C491 C 0.80588 0.90308 -0.00418 0.0
O492 O 0.82718 0.11396 0.06064 0.0
C493 C 0.84832 0.14537 0.04893 0.0
O494 O 0.84921 1.08331 0.0392 0.0
H495 H 0.66021 0.93188 0.0287 0.0
H496 H 0.93591 0.89035 0.00891 0.0
C497 C 0.72738 1.00472 0.09548 0.0
C498 C 0.75564 0.96526 0.10807 0.0
C499 C 0.84854 0.839 0.09705 0.0
C500 C 0.81869 0.87677 0.08467 0.0
N501 N 0.76003 0.95978 0.08404 0.0
N502 N 0.81617 0.88373 0.10844 0.0
H503 H 0.67947 1.06959 0.09473 0.0
C504 C 1.01889 0.9512 0.05181 0.0
O505 O 0.94823 0.94603 0.06086 0.0
O506 O 0.60564 0.09504 0.06489 0.0
H507 H 0.8422 0.83927 0.07564 0.0
H508 H 0.57295 0.94271 0.0068 0.0
H509 H 0.89584 0.77361 0.09761 0.0
Zn510 Zn 0.91062 0.97637 0.81597 0.0
C511 C 0.17879 1.00729 0.79782 0.0
N512 N 0.18888 0.91062 0.80096 0.0
C513 C 0.09878 0.88502 0.80556 0.0
N514 N 1.03422 0.96202 0.8053 0.0
N515 N 1.08245 1.03859 0.8001 0.0
C516 C 0.9656 0.26889 0.80177 0.0
O517 O 0.97085 0.19829 0.81083 0.0
O518 O 0.82196 0.85556 0.81487 0.0
Zn519 Zn 0.99055 0.10707 0.7875 0.0
N520 N 0.95722 1.00988 0.83404 0.0
C521 C 1.07794 0.09848 0.84704 0.0
C522 C 1.04013 1.06869 0.83466 0.0
C523 C 0.91242 0.97706 0.84547 0.0
N524 N 1.03335 1.06595 0.85843 0.0
C525 C 0.95192 1.00529 0.85807 0.0
O526 O 0.8334 0.09903 0.7892 0.0
C527 C 0.77145 0.09823 0.79895 0.0
O528 O 0.80296 1.07716 0.81066 0.0
H529 H 1.07752 0.09234 0.82563 0.0
H530 H 0.84763 0.92905 0.84473 0.0
C531 C 1.01942 0.10516 0.75831 0.0
C532 C 1.0139 1.05553 0.74582 0.0
C533 C 0.98865 0.90206 0.7572 0.0
C534 C 0.99547 0.95101 0.76948 0.0
N535 N 1.01038 1.05138 0.76982 0.0
N536 N 0.99852 0.95508 0.74569 0.0
H537 H 1.02661 0.18554 0.75891 0.0
C538 C 0.77445 0.84773 0.80379 0.0
O539 O 0.8035 0.89957 0.79335 0.0
O540 O 0.99959 0.25261 0.79002 0.0
H541 H 0.98473 0.90993 0.7787 0.0
H542 H 0.14326 0.14589 0.8476 0.0
H543 H 0.97408 0.82265 0.7568 0.0
Zn544 Zn 0.85721 0.74066 0.5375 0.0
C545 C 0.63489 0.84852 0.55557 0.0
N546 N 0.6605 0.9387 0.55099 0.0
C547 C 0.75715 0.92861 0.54784 0.0
N548 N 0.78833 0.83223 0.55009 0.0
N549 N 0.71182 0.78388 0.55529 0.0
C550 C 0.59766 0.52429 0.5538 0.0
O551 O 0.64949 0.55338 0.54336 0.0
O552 O 1.00271 0.74977 0.54005 0.0
Zn553 Zn 0.72631 0.66042 0.56597 0.0
N554 N 0.80166 0.76051 0.51981 0.0
C555 C 0.65236 0.73861 0.50718 0.0
C556 C 0.70129 0.74552 0.51946 0.0
C557 C 0.85547 0.76948 0.5083 0.0
N558 N 0.70541 0.74847 0.49568 0.0
C559 C 0.80586 0.76389 0.49581 0.0
O560 O 0.82705 0.55278 0.56063 0.0
C561 C 0.84821 0.52144 0.54892 0.0
O562 O 0.84916 0.58352 0.53919 0.0
H563 H 0.66019 0.73477 0.52869 0.0
H564 H 0.93586 0.77668 0.5089 0.0
C565 C 0.72712 0.66229 0.59547 0.0
C566 C 0.75535 0.70184 0.60806 0.0
C567 C 0.84836 0.82794 0.59703 0.0
C568 C 0.81856 0.79008 0.58465 0.0
N569 N 0.75987 0.7071 0.58403 0.0
N570 N 0.81592 0.78334 0.60842 0.0
H571 H 0.67918 0.59745 0.59473 0.0
C572 C 1.01883 0.71558 0.5518 0.0
O573 O 0.94812 0.72074 0.56084 0.0
O574 O 0.6055 0.57177 0.56488 0.0
H575 H 0.84213 0.82749 0.57562 0.0
H576 H 0.57296 0.72399 0.50678 0.0
H577 H 0.89569 0.89332 0.59759 0.0
Zn578 Zn 0.67628 0.60724 0.78751 0.0
C579 C 0.56836 0.38505 0.8056 0.0
N580 N 0.4782 0.41067 0.80101 0.0
C581 C 0.48829 0.50728 0.79783 0.0
N582 N 0.58469 0.53842 0.8001 0.0
N583 N 0.63301 0.46195 0.80531 0.0
C584 C 0.89258 0.34781 0.80378 0.0
O585 O 0.86342 0.39966 0.79335 0.0
O586 O 0.66714 0.75273 0.79005 0.0
Zn587 Zn 0.75653 0.47644 0.81598 0.0
N588 N 0.65644 0.55164 0.76983 0.0
C589 C 0.67822 0.40231 0.75721 0.0
C590 C 0.6713 0.45126 0.76948 0.0
C591 C 0.64761 0.60543 0.75831 0.0
N592 N 0.66851 0.45534 0.7457 0.0
C593 C 0.65322 0.5558 0.74583 0.0
O594 O 0.8641 0.57722 0.81065 0.0
C595 C 0.8955 0.59836 0.79894 0.0
O596 O 0.83343 0.59923 0.7892 0.0
H597 H 0.68194 0.41017 0.77871 0.0
H598 H 0.64051 0.68582 0.75891 0.0
C599 C 0.75477 0.47721 0.84548 0.0
C600 C 0.71525 0.50541 0.85807 0.0
C601 C 0.58909 0.59843 0.84705 0.0
C602 C 0.62692 0.56865 0.83467 0.0
N603 N 0.70991 0.50996 0.83404 0.0
N604 N 0.63374 0.56597 0.85844 0.0
H605 H 0.81962 0.42927 0.84473 0.0
C606 C 0.7013 0.7689 0.8018 0.0
O607 O 0.69615 0.69827 0.81086 0.0
O608 O 0.84524 0.35568 0.81487 0.0
H609 H 0.58948 0.59223 0.82564 0.0
H610 H 0.69277 0.3229 0.75681 0.0
H611 H 0.52371 0.64576 0.84762 0.0
Zn612 Zn 0.9403 0.5063 0.06597 0.0
C613 C 0.90938 0.23814 0.04782 0.0
N614 N 1.00608 0.22807 0.05094 0.0
C615 C 1.03164 0.31818 0.05554 0.0
N616 N 0.95461 0.38269 0.0553 0.0
N617 N 0.87804 0.33446 0.0501 0.0
C618 C 0.6478 0.45133 0.05176 0.0
O619 O 0.71839 0.44603 0.06082 0.0
O620 O 1.06112 0.59494 0.06485 0.0
Zn621 Zn 0.80963 0.42637 0.0375 0.0
N622 N 0.90686 0.45975 0.08403 0.0
C623 C 0.81829 0.33907 0.09705 0.0
C624 C 0.84803 0.37687 0.08467 0.0
C625 C 0.93976 0.50455 0.09547 0.0
N626 N 0.85089 0.38367 0.10843 0.0
C627 C 0.91158 0.46508 0.10806 0.0
O628 O 0.81769 0.58351 0.0392 0.0
C629 C 0.81849 0.64546 0.04895 0.0
O630 O 0.83951 0.61394 0.06065 0.0
H631 H 0.82432 0.33948 0.07564 0.0
H632 H 0.98778 0.56932 0.09471 0.0
C633 C 0.8116 0.39755 0.00831 0.0
C634 C 0.86127 0.40303 -0.00418 0.0
C635 C 1.01476 0.42808 0.0072 0.0
C636 C 0.96577 0.42129 0.01948 0.0
N637 N 0.86537 0.40651 0.01982 0.0
N638 N 0.96175 0.41829 -0.00431 0.0
H639 H 0.7312 0.39046 0.0089 0.0
C640 C 1.06897 0.6424 0.05377 0.0
O641 O 1.01714 0.61331 0.04333 0.0
O642 O 0.66408 0.41735 0.04 0.0
H643 H 1.00685 0.43198 0.02871 0.0
H644 H 0.77087 0.27377 0.09762 0.0
H645 H 0.09419 0.44257 0.00681 0.0
Zn646 Zn 0.99069 0.55947 0.2875 0.0
C647 C 0.09871 0.78169 0.30555 0.0
N648 N 0.18883 0.75609 0.30095 0.0
C649 C 0.17876 0.65945 0.29779 0.0
N650 N 1.0824 0.62828 0.30007 0.0
N651 N 1.03408 0.70476 0.30529 0.0
C652 C 0.77449 0.81892 0.30377 0.0
O653 O 0.80358 0.76705 0.29333 0.0
O654 O 0.99984 0.41398 0.29004 0.0
Zn655 Zn 0.91059 0.69031 0.31597 0.0
N656 N 1.01047 0.61507 0.26981 0.0
C657 C 0.98863 0.76441 0.25719 0.0
C658 C 0.99554 0.71544 0.26947 0.0
C659 C 1.01937 0.5613 0.25829 0.0
N660 N 0.99841 0.71141 0.24568 0.0
C661 C 1.01377 0.61096 0.24581 0.0
O662 O 0.80297 0.58955 0.31064 0.0
C663 C 0.77148 0.56838 0.29894 0.0
O664 O 0.83351 0.56748 0.2892 0.0
H665 H 0.98486 0.7565 0.2787 0.0
H666 H 1.02653 0.48092 0.25889 0.0
C667 C 0.91239 0.68959 0.34546 0.0
C668 C 0.95191 0.6614 0.35806 0.0
C669 C 1.07808 0.56839 0.34703 0.0
C670 C 1.04024 0.59814 0.33465 0.0
N671 N 0.95725 0.65683 0.33403 0.0
N672 N 1.03343 0.60085 0.35842 0.0
H673 H 0.84753 0.73751 0.34472 0.0
C674 C 0.96576 0.39781 0.30179 0.0
O675 O 0.97092 0.46846 0.31084 0.0
O676 O 0.82191 0.81108 0.31486 0.0
H677 H 1.07767 0.57455 0.32562 0.0
H678 H 0.97406 0.84382 0.2568 0.0
H679 H 0.14347 0.52107 0.3476 0.0
Zn680 Zn 0.72667 0.50635 0.91286 0.0
C681 C 0.75754 0.23814 0.93098 0.0
N682 N 0.66082 0.2281 0.92786 0.0
C683 C 0.63526 0.31824 0.92328 0.0
N684 N 0.7123 0.38274 0.92352 0.0
N685 N 0.78888 0.33446 0.92872 0.0
C686 C 1.0192 0.45133 0.92705 0.0
O687 O 0.9486 0.44607 0.91799 0.0
O688 O 0.60587 0.59502 0.91397 0.0
Zn689 Zn 0.8574 0.42625 0.94132 0.0
N690 N 0.76016 0.45979 0.89479 0.0
C691 C 0.84879 0.33911 0.88178 0.0
C692 C 0.81898 0.3769 0.89416 0.0
C693 C 0.72733 0.5046 0.88335 0.0
N694 N 0.81625 0.38372 0.87039 0.0
C695 C 0.75557 0.46514 0.87076 0.0
O696 O 0.84936 0.58336 0.93962 0.0
C697 C 0.84855 0.64537 0.92988 0.0
O698 O 0.82748 0.61395 0.91818 0.0
H699 H 0.84264 0.33949 0.90319 0.0
H700 H 0.6793 0.56939 0.8841 0.0
C701 C 0.85546 0.39746 0.97051 0.0
C702 C 0.8058 0.40304 0.983 0.0
C703 C 0.65232 0.4282 0.97161 0.0
C704 C 0.7013 0.42131 0.95934 0.0
N705 N 0.80168 0.40642 0.95899 0.0
N706 N 0.70534 0.4184 0.98312 0.0
H707 H 0.93585 0.39029 0.96991 0.0
C708 C 0.59802 0.64245 0.92505 0.0
O709 O 0.64986 0.61333 0.93549 0.0
O710 O 1.00295 0.41724 0.9388 0.0
H711 H 0.66022 0.43201 0.95011 0.0
H712 H 0.89622 0.27381 0.88121 0.0
H713 H 0.57291 0.44277 0.97201 0.0
Zn714 Zn 0.91075 0.4766 0.16284 0.0
C715 C 0.17886 0.50761 0.18103 0.0
N716 N 0.18892 0.41092 0.17791 0.0
C717 C 0.09887 0.38534 0.17329 0.0
N718 N 1.03436 0.46235 0.17351 0.0
N719 N 1.08256 0.53892 0.17872 0.0
C720 C 0.96577 0.76914 0.17705 0.0
O721 O 0.97105 0.69861 0.16799 0.0
O722 O 0.82209 0.3558 0.16396 0.0
Zn723 Zn 0.99055 0.60727 0.19131 0.0
N724 N 0.95732 0.51002 0.14477 0.0
C725 C 1.078 0.59859 0.13176 0.0
C726 C 1.04022 0.56884 0.14414 0.0
C727 C 0.91248 0.47716 0.13334 0.0
N728 N 1.03336 0.56603 0.12037 0.0
C729 C 0.95193 0.50537 0.12074 0.0
O730 O 0.83341 0.59926 0.1896 0.0
C731 C 0.77151 0.59849 0.17984 0.0
O732 O 0.80314 0.57742 0.16814 0.0
H733 H 1.07761 0.59254 0.15317 0.0
H734 H 0.84768 0.42916 0.13409 0.0
C735 C 1.01928 0.60521 0.2205 0.0
C736 C 1.01377 0.55552 0.23298 0.0
C737 C 0.98877 0.40207 0.22159 0.0
C738 C 0.99556 0.45108 0.20932 0.0
N739 N 1.01034 0.55147 0.20898 0.0
N740 N 0.99853 0.45505 0.23311 0.0
H741 H 1.02638 0.6856 0.21991 0.0
C742 C 0.7746 0.34799 0.17504 0.0
O743 O 0.80363 0.39988 0.18548 0.0
O744 O 0.99963 0.75281 0.18881 0.0
H745 H 0.9849 0.41003 0.20009 0.0
H746 H 0.14331 0.64601 0.13119 0.0
H747 H 0.97429 0.32264 0.22198 0.0
Zn748 Zn 0.94048 0.66051 0.41284 0.0
C749 C 0.90964 0.92874 0.43097 0.0
N750 N 1.00632 0.9388 0.42783 0.0
C751 C 1.03189 0.84867 0.42325 0.0
N752 N 0.95486 0.78414 0.4235 0.0
N753 N 0.8783 0.83242 0.4287 0.0
C754 C 0.64801 0.71553 0.42705 0.0
O755 O 0.71859 0.7208 0.41799 0.0
O756 O 1.06127 0.57184 0.41396 0.0
Zn757 Zn 0.80982 0.74064 0.44131 0.0
N758 N 0.90698 0.70702 0.39477 0.0
C759 C 0.81833 0.82768 0.38176 0.0
C760 C 0.84814 0.78991 0.39414 0.0
C761 C 0.93983 0.66221 0.38334 0.0
N762 N 0.85088 0.78307 0.37037 0.0
C763 C 0.91158 0.70167 0.37074 0.0
O764 O 0.81789 0.58353 0.43962 0.0
C765 C 0.81865 0.52152 0.42988 0.0
O766 O 0.83967 0.55292 0.41817 0.0
H767 H 0.82448 0.82731 0.40317 0.0
H768 H 0.98787 0.59744 0.38409 0.0
C769 C 0.81173 0.76947 0.4705 0.0
C770 C 0.86137 0.76394 0.48299 0.0
C771 C 1.01489 0.73891 0.47161 0.0
C772 C 0.96593 0.74574 0.45933 0.0
N773 N 0.86553 0.76054 0.45898 0.0
N774 N 0.96184 0.74867 0.48312 0.0
H775 H 0.73133 0.77656 0.4699 0.0
C776 C 1.06915 0.52449 0.42505 0.0
O777 O 1.01734 0.55368 0.43549 0.0
O778 O 0.66427 0.74963 0.4388 0.0
H779 H 1.00703 0.73507 0.45011 0.0
H780 H 0.77089 0.89297 0.3812 0.0
H781 H 0.09431 0.7244 0.47201 0.0
Zn782 Zn 0.67654 0.55979 0.69132 0.0
C783 C 0.56846 0.78196 0.67328 0.0
N784 N 0.47836 0.75635 0.67788 0.0
C785 C 0.48843 0.6597 0.68103 0.0
N786 N 0.58479 0.62854 0.67874 0.0
N787 N 0.63309 0.70503 0.67353 0.0
C788 C 0.89271 0.81923 0.67501 0.0
O789 O 0.86367 0.76737 0.68545 0.0
O790 O 0.66738 0.41429 0.68879 0.0
Zn791 Zn 0.75654 0.69061 0.66284 0.0
N792 N 0.65675 0.61541 0.709 0.0
C793 C 0.67857 0.76473 0.72163 0.0
C794 C 0.67172 0.71577 0.70935 0.0
C795 C 0.64776 0.56163 0.72052 0.0
N796 N 0.66871 0.71171 0.73314 0.0
C797 C 0.65332 0.61127 0.733 0.0
O798 O 0.8642 0.58988 0.66817 0.0
C799 C 0.89572 0.56871 0.67987 0.0
O800 O 0.83372 0.5678 0.68961 0.0
H801 H 0.68246 0.75684 0.70012 0.0
H802 H 0.64056 0.48125 0.71992 0.0
C803 C 0.75464 0.68982 0.63334 0.0
C804 C 0.71509 0.66159 0.62075 0.0
C805 C 0.58901 0.56853 0.63179 0.0
C806 C 0.62688 0.59835 0.64416 0.0
N807 N 0.70984 0.65707 0.64478 0.0
N808 N 0.63361 0.60099 0.62039 0.0
H809 H 0.81948 0.73778 0.63408 0.0
C810 C 0.70141 0.3981 0.67703 0.0
O811 O 0.69626 0.46874 0.66798 0.0
O812 O 0.84519 0.81142 0.66393 0.0
H813 H 0.58948 0.57476 0.6532 0.0
H814 H 0.69316 0.84413 0.72202 0.0
H815 H 0.52365 0.52118 0.63123 0.0
Zn816 Zn 0.44052 0.50636 0.41285 0.0
C817 C 0.40965 0.2382 0.431 0.0
N818 N 0.50638 0.22816 0.42789 0.0
C819 C 0.53193 0.31827 0.42329 0.0
N820 N 0.45487 0.38276 0.42352 0.0
N821 N 0.37828 0.3345 0.42872 0.0
C822 C 0.14801 0.45138 0.42705 0.0
O823 O 0.21859 0.44614 0.41799 0.0
O824 O 0.56133 0.595 0.41396 0.0
Zn825 Zn 0.30983 0.42639 0.44132 0.0
N826 N 0.40703 0.4598 0.39479 0.0
C827 C 0.31838 0.33912 0.38178 0.0
C828 C 0.34822 0.3769 0.39416 0.0
C829 C 0.43983 0.50462 0.38335 0.0
N830 N 0.35089 0.38374 0.37039 0.0
C831 C 0.41155 0.46516 0.37075 0.0
O832 O 0.31788 0.58353 0.43962 0.0
C833 C 0.31869 0.64549 0.42988 0.0
O834 O 0.33974 0.61401 0.41817 0.0
H835 H 0.32458 0.3395 0.40319 0.0
H836 H 0.48784 0.56941 0.38409 0.0
C837 C 0.31174 0.39752 0.47051 0.0
C838 C 0.36137 0.40302 0.483 0.0
C839 C 0.51488 0.42821 0.47162 0.0
C840 C 0.46592 0.4214 0.45934 0.0
N841 N 0.36554 0.40654 0.45899 0.0
N842 N 0.46184 0.41836 0.48313 0.0
H843 H 0.23135 0.39037 0.46991 0.0
C844 C 0.56917 0.64241 0.42505 0.0
O845 O 0.51734 0.61329 0.43549 0.0
O846 O 0.16427 0.41739 0.4388 0.0
H847 H 0.50702 0.43213 0.45012 0.0
H848 H 0.27097 0.27381 0.38121 0.0
H849 H 0.5943 0.44275 0.47202 0.0
Zn850 Zn 0.49093 0.55973 0.1913 0.0
C851 C 0.59878 0.78194 0.17319 0.0
N852 N 0.68899 0.75631 0.17776 0.0
C853 C 0.67885 0.65974 0.18094 0.0
N854 N 0.58242 0.6286 0.17871 0.0
N855 N 0.53408 0.70507 0.1735 0.0
C856 C 0.27448 0.81919 0.17502 0.0
O857 O 0.30363 0.76735 0.18545 0.0
O858 O 0.50007 0.41425 0.18876 0.0
Zn859 Zn 0.41052 0.69052 0.16283 0.0
N860 N 0.5108 0.61535 0.20898 0.0
C861 C 0.48893 0.76469 0.2216 0.0
C862 C 0.49587 0.71572 0.20933 0.0
C863 C 0.51969 0.56158 0.2205 0.0
N864 N 0.4987 0.71168 0.23311 0.0
C865 C 0.51407 0.61123 0.23299 0.0
O866 O 0.30292 0.58978 0.16818 0.0
C867 C 0.27165 0.56863 0.17989 0.0
O868 O 0.33377 0.56772 0.18962 0.0
H869 H 0.48518 0.75679 0.2001 0.0
H870 H 0.52683 0.48119 0.21991 0.0
C871 C 0.41217 0.6896 0.13334 0.0
C872 C 0.45163 0.66135 0.12074 0.0
C873 C 0.57788 0.56842 0.13176 0.0
C874 C 0.5401 0.59825 0.14414 0.0
N875 N 0.4571 0.65692 0.14477 0.0
N876 N 0.53316 0.60081 0.12037 0.0
H877 H 0.3473 0.73752 0.13408 0.0
C878 C 0.46587 0.39812 0.17701 0.0
O879 O 0.47095 0.46878 0.16796 0.0
O880 O 0.32184 0.81131 0.16393 0.0
H881 H 0.57761 0.57474 0.15317 0.0
H882 H 0.47433 0.84409 0.222 0.0
H883 H 0.64327 0.52112 0.1312 0.0
Zn884 Zn 0.22666 0.66054 0.91285 0.0
C885 C 0.25754 0.92873 0.93098 0.0
N886 N 0.16082 0.93877 0.92787 0.0
C887 C 0.13525 0.84863 0.92328 0.0
N888 N 0.2123 0.78414 0.92351 0.0
N889 N 0.28889 0.83242 0.92871 0.0
C890 C 0.51919 0.71559 0.92705 0.0
O891 O 0.44863 0.72082 0.91799 0.0
O892 O 0.10586 0.57187 0.91397 0.0
Zn893 Zn 0.35736 0.74061 0.94131 0.0
N894 N 0.26012 0.70709 0.89478 0.0
C895 C 0.34872 0.82778 0.88177 0.0
C896 C 0.31894 0.78998 0.89415 0.0
C897 C 0.22728 0.66228 0.88335 0.0
N898 N 0.31617 0.78317 0.87038 0.0
C899 C 0.2555 0.70175 0.87075 0.0
O900 O 0.34935 0.58351 0.93962 0.0
C901 C 0.34854 0.52151 0.92987 0.0
O902 O 0.32748 0.55293 0.91817 0.0
H903 H 0.34262 0.82738 0.90318 0.0
H904 H 0.17926 0.59749 0.8841 0.0
C905 C 0.3553 0.7694 0.9705 0.0
C906 C 0.30561 0.76383 0.98299 0.0
C907 C 0.15217 0.73865 0.9716 0.0
C908 C 0.20118 0.74553 0.95932 0.0
N909 N 0.30156 0.76043 0.95898 0.0
N910 N 0.20515 0.74846 0.98311 0.0
H911 H 0.4357 0.77657 0.96991 0.0
C912 C 0.09804 0.52445 0.92505 0.0
O913 O 0.14988 0.55357 0.93549 0.0
O914 O 0.50292 0.74963 0.9388 0.0
H915 H 0.16014 0.73483 0.95009 0.0
H916 H 0.39614 0.89308 0.8812 0.0
H917 H 1.07275 0.72407 0.97199 0.0
Zn918 Zn 0.1764 0.60748 0.69132 0.0
C919 C 1.06848 0.38531 0.6732 0.0
N920 N 0.97828 0.41091 0.67778 0.0
C921 C 0.98841 0.50749 0.68096 0.0
N922 N 0.08483 0.53865 0.67872 0.0
N923 N 0.13317 0.46219 0.67351 0.0
C924 C 0.39272 0.34805 0.67504 0.0
O925 O 0.36351 0.39988 0.68548 0.0
O926 O 0.16727 0.75297 0.68878 0.0
Zn927 Zn 0.25675 0.47672 0.66284 0.0
N928 N 0.15652 0.55185 0.709 0.0
C929 C 0.17836 0.40249 0.72161 0.0
C930 C 0.17144 0.45148 0.70934 0.0
C931 C 0.14763 0.60561 0.72052 0.0
N932 N 0.16859 0.45548 0.73312 0.0
C933 C 0.15323 0.55593 0.733 0.0
O934 O 0.36437 0.57747 0.66819 0.0
C935 C 0.39568 0.59859 0.6799 0.0
O936 O 0.33358 0.59948 0.68963 0.0
H937 H 0.18212 0.41043 0.70011 0.0
H938 H 0.1405 0.68599 0.71992 0.0
C939 C 0.25493 0.47741 0.63334 0.0
C940 C 0.21538 0.50561 0.62075 0.0
C941 C 0.08937 0.59881 0.63178 0.0
C942 C 0.12722 0.56902 0.64415 0.0
N943 N 0.21015 0.51025 0.64478 0.0
N944 N 0.13394 0.56626 0.62039 0.0
H945 H 0.31973 0.4294 0.63408 0.0
C946 C 0.20146 0.76911 0.67703 0.0
O947 O 0.19638 0.69845 0.66798 0.0
O948 O 0.34543 0.35595 0.66395 0.0
H949 H 0.08981 0.59263 0.65319 0.0
H950 H 0.19295 0.32309 0.722 0.0
H951 H 1.02403 0.6462 0.63122 0.0
Zn952 Zn 0.30947 0.7406 0.0375 0.0
C953 C 0.53166 0.84852 0.0556 0.0
N954 N 0.50606 0.93871 0.05102 0.0
C955 C 0.40945 0.9286 0.04785 0.0
N956 N 0.37827 0.8322 0.05009 0.0
N957 N 0.45475 0.78386 0.0553 0.0
C958 C 0.5689 0.52437 0.05377 0.0
O959 O 0.51709 0.55358 0.04333 0.0
O960 O 0.16395 0.74971 0.04003 0.0
Zn961 Zn 0.44023 0.66032 0.06597 0.0
N962 N 0.36512 0.76048 0.01982 0.0
C963 C 0.5145 0.73869 0.0072 0.0
C964 C 0.4655 0.74558 0.01947 0.0
C965 C 0.31136 0.76939 0.0083 0.0
N966 N 0.46151 0.74849 -0.00431 0.0
C967 C 0.36104 0.76383 -0.00419 0.0
O968 O 0.33951 0.55267 0.06063 0.0
C969 C 0.31839 0.52133 0.04891 0.0
O970 O 0.31748 0.58342 0.03918 0.0
H971 H 0.50656 0.73488 0.0287 0.0
H972 H 0.23096 0.77653 0.00889 0.0
C973 C 0.43947 0.66208 0.09546 0.0
C974 C 0.41127 0.70159 0.10806 0.0
C975 C 0.31811 0.82765 0.09704 0.0
C976 C 0.34791 0.78984 0.08466 0.0
N977 N 0.40667 0.70691 0.08403 0.0
N978 N 0.35063 0.78304 0.10842 0.0
H979 H 0.48747 0.59728 0.09472 0.0
C980 C 0.14781 0.71553 0.05178 0.0
O981 O 0.21847 0.72064 0.06083 0.0
O982 O 0.56103 0.57168 0.06487 0.0
H983 H 0.32431 0.82728 0.07562 0.0
H984 H 0.59392 0.72412 0.00681 0.0
H985 H 0.27073 0.89299 0.0976 0.0
Zn986 Zn 0.25644 0.69032 0.81597 0.0
C987 C 0.98827 0.65942 0.79782 0.0
N988 N 0.97819 0.75612 0.80094 0.0
C989 C 1.06831 0.78168 0.80554 0.0
N990 N 0.13283 0.70466 0.80531 0.0
N991 N 0.08458 0.62808 0.8001 0.0
C992 C 0.20139 0.39783 0.80177 0.0
O993 O 0.19616 0.4684 0.81083 0.0
O994 O 0.34511 0.81113 0.81487 0.0
Zn995 Zn 0.17648 0.55964 0.78751 0.0
N996 N 0.20985 0.65684 0.83404 0.0
C997 C 0.08913 0.56827 0.84705 0.0
C998 C 0.12693 0.59805 0.83467 0.0
C999 C 0.25467 0.68967 0.84547 0.0
N1000 N 0.13375 0.60081 0.85844 0.0
C1001 C 0.21519 0.66145 0.85807 0.0
O1002 O 0.33362 0.56765 0.78921 0.0
C1003 C 0.39558 0.56845 0.79895 0.0
O1004 O 0.3641 0.58952 0.81066 0.0
H1005 H 0.08953 0.57439 0.82564 0.0
H1006 H 0.31948 0.73766 0.84472 0.0
C1007 C 0.14771 0.56168 0.75831 0.0
C1008 C 0.15327 0.61136 0.74583 0.0
C1009 C 0.17844 0.76479 0.75722 0.0
C1010 C 0.17158 0.71578 0.76949 0.0
N1011 N 0.15669 0.61541 0.76983 0.0
N1012 N 0.16862 0.71181 0.7457 0.0
H1013 H 0.14053 0.48129 0.7589 0.0
C1014 C 0.3926 0.81896 0.80379 0.0
O1015 O 0.36358 0.7671 0.79334 0.0
O1016 O 0.16743 0.4141 0.79001 0.0
H1017 H 0.18229 0.75682 0.77872 0.0
H1018 H 1.0238 0.52087 0.84761 0.0
H1019 H 0.193 0.84419 0.75683 0.0
Zn1020 Zn 0.35722 0.42609 0.53751 0.0
C1021 C 0.13488 0.31826 0.55557 0.0
N1022 N 0.16051 0.22807 0.551 0.0
C1023 C 0.25716 0.23816 0.54785 0.0
N1024 N 0.28833 0.33455 0.5501 0.0
N1025 N 0.21181 0.3829 0.55529 0.0
C1026 C 0.09768 0.64247 0.5538 0.0
O1027 O 0.14953 0.61336 0.54336 0.0
O1028 O 0.50272 0.41696 0.54006 0.0
Zn1029 Zn 0.22632 0.50638 0.56597 0.0
N1030 N 0.30167 0.40624 0.51982 0.0
C1031 C 0.15236 0.4281 0.50719 0.0
C1032 C 0.2013 0.42118 0.51947 0.0
C1033 C 0.35549 0.39736 0.50831 0.0
N1034 N 0.20541 0.41833 0.49568 0.0
C1035 C 0.30587 0.40298 0.49582 0.0
O1036 O 0.32704 0.61402 0.56064 0.0
C1037 C 0.34823 0.64533 0.54893 0.0
O1038 O 0.3492 0.58324 0.53919 0.0
H1039 H 0.16019 0.43187 0.5287 0.0
H1040 H 0.43589 0.39021 0.50891 0.0
C1041 C 0.22729 0.50468 0.59547 0.0
C1042 C 0.25555 0.46521 0.60806 0.0
C1043 C 0.3484 0.33894 0.59704 0.0
C1044 C 0.31856 0.37672 0.58466 0.0
N1045 N 0.25992 0.45974 0.58403 0.0
N1046 N 0.31606 0.38367 0.60843 0.0
H1047 H 0.1794 0.56957 0.59472 0.0
C1048 C 0.51883 0.45114 0.55181 0.0
O1049 O 0.44814 0.44604 0.56085 0.0
O1050 O 0.1055 0.59502 0.56488 0.0
H1051 H 0.34205 0.33923 0.57563 0.0
H1052 H 1.07295 0.44269 0.5068 0.0
H1053 H 0.39569 0.27353 0.5976 0.0
Zn1054 Zn 0.49078 0.60724 0.2875 0.0
C1055 C 0.59869 0.38501 0.30559 0.0
N1056 N 0.68887 0.41059 0.301 0.0
C1057 C 0.67877 0.5072 0.29784 0.0
N1058 N 0.58237 0.53839 0.30009 0.0
N1059 N 0.53403 0.46192 0.3053 0.0
C1060 C 0.27445 0.34781 0.30379 0.0
O1061 O 0.3036 0.39963 0.29335 0.0
O1062 O 0.49989 0.75274 0.29004 0.0
Zn1063 Zn 0.4105 0.47647 0.31597 0.0
N1064 N 0.51063 0.55164 0.26981 0.0
C1065 C 0.48872 0.40233 0.25719 0.0
C1066 C 0.49563 0.45129 0.26947 0.0
C1067 C 0.5196 0.60541 0.2583 0.0
N1068 N 0.49857 0.45533 0.24568 0.0
C1069 C 0.514 0.55577 0.24581 0.0
O1070 O 0.30285 0.57722 0.31063 0.0
C1071 C 0.27152 0.59834 0.29892 0.0
O1072 O 0.33361 0.59923 0.28919 0.0
H1073 H 0.48489 0.41022 0.2787 0.0
H1074 H 0.52681 0.68579 0.25889 0.0
C1075 C 0.4123 0.47725 0.34547 0.0
C1076 C 0.45184 0.50544 0.35807 0.0
C1077 C 0.57797 0.59847 0.34704 0.0
C1078 C 0.54012 0.56869 0.33466 0.0
N1079 N 0.45713 0.51001 0.33403 0.0
N1080 N 0.53335 0.56601 0.35843 0.0
H1081 H 0.34744 0.42931 0.34473 0.0
C1082 C 0.46573 0.76887 0.3018 0.0
O1083 O 0.47085 0.6982 0.31084 0.0
O1084 O 0.32182 0.35569 0.31488 0.0
H1085 H 0.57756 0.59226 0.32563 0.0
H1086 H 0.47408 0.32294 0.2568 0.0
H1087 H 0.64336 0.64579 0.3476 0.0
loop_
_geom_bond_atom_site_label_1
_geom_bond_atom_site_label_2
_geom_bond_distance
_geom_bond_site_symmetry_2
_ccdc_geom_bond_type
Zn0 N4 2.020 . S
Zn0 O8 2.019 . S
Zn0 N10 2.119 . S
Zn0 O18 1.975 . S
C1 N2 1.334 . S
C1 N5 1.336 . S
N2 C1 1.334 . S
N2 C3 1.334 . S
C3 N2 1.334 . S
C3 N4 1.336 . S
N4 Zn0 2.020 . S
N4 C3 1.336 . S
N4 N5 1.354 . S
N5 C1 1.336 . S
N5 N4 1.354 . S
N5 Zn9 2.020 . S
C6 O7 1.244 . S
C6 O30 1.257 . S
O7 C6 1.244 . S
O8 Zn0 2.019 . S
O8 C28 1.257 . S
Zn9 N5 2.020 . S
Zn9 O16 1.975 1_545 S
Zn9 N25 2.119 . S
Zn9 O30 2.019 1_455 S
N10 Zn0 2.119 . S
N10 C12 1.334 . S
N10 C13 1.328 . S
C11 C12 1.391 . S
C11 N14 1.329 . S
C11 H32 0.930 . S
C12 N10 1.334 . S
C12 C11 1.391 . S
C12 H19 0.930 . S
C13 N10 1.328 . S
C13 C15 1.392 . S
C13 H20 0.930 . S
N14 C11 1.329 . S
N14 C15 1.331 . S
C15 C13 1.392 . S
C15 N14 1.331 . S
O16 Zn9 1.975 1_565 S
O16 C17 1.252 . S
C17 O16 1.252 . S
C17 O18 1.252 1_565 S
O18 Zn0 1.975 . S
O18 C17 1.252 1_545 S
H19 C12 0.930 . S
H20 C13 0.930 . S
C21 C22 1.392 . S
C21 N25 1.328 . S
C21 H27 0.938 . S
C22 C21 1.392 . S
C22 N26 1.331 . S
C23 C24 1.391 . S
C23 N26 1.329 . S
C23 H33 0.930 . S
C24 C23 1.391 . S
C24 N25 1.334 . S
C24 H31 0.930 . S
N25 Zn9 2.119 . S
N25 C21 1.328 . S
N25 C24 1.334 . S
N26 C22 1.331 . S
N26 C23 1.329 . S
H27 C21 0.938 . S
C28 O8 1.257 . S
C28 O29 1.244 . S
O29 C28 1.244 . S
O30 C6 1.257 . S
O30 Zn9 2.019 1_655 S
H31 C24 0.930 . S
H32 C11 0.930 . S
H33 C23 0.930 . S
Zn34 N38 2.020 . S
Zn34 O42 2.019 . S
Zn34 N44 2.119 . S
Zn34 O52 1.975 . S
C35 N36 1.334 . S
C35 N39 1.336 1_655 S
N36 C35 1.334 . S
N36 C37 1.334 . S
C37 N36 1.334 . S
C37 N38 1.336 1_655 S
N38 Zn34 2.020 . S
N38 C37 1.336 1_455 S
N38 N39 1.354 . S
N39 C35 1.336 1_455 S
N39 N38 1.354 . S
N39 Zn43 2.020 1_565 S
C40 O41 1.244 . S
C40 O64 1.257 . S
O41 C40 1.244 . S
O42 Zn34 2.019 . S
O42 C62 1.257 . S
Zn43 N39 2.020 1_545 S
Zn43 O50 1.975 . S
Zn43 N59 2.119 1_545 S
Zn43 O64 2.019 . S
N44 Zn34 2.119 . S
N44 C46 1.334 . S
N44 C47 1.328 . S
C45 C46 1.391 . S
C45 N48 1.329 . S
C45 H66 0.930 1_565 S
C46 N44 1.334 . S
C46 C45 1.391 . S
C46 H53 0.930 . S
C47 N44 1.328 . S
C47 C49 1.392 . S
C47 H54 0.930 . S
N48 C45 1.329 . S
N48 C49 1.331 . S
C49 C47 1.392 . S
C49 N48 1.331 . S
O50 Zn43 1.975 . S
O50 C51 1.252 1_545 S
C51 O50 1.252 1_565 S
C51 O52 1.252 . S
O52 Zn34 1.975 . S
O52 C51 1.252 . S
H53 C46 0.930 . S
H54 C47 0.930 . S
C55 C56 1.392 . S
C55 N59 1.328 1_545 S
C55 H61 0.930 . S
C56 C55 1.392 . S
C56 N60 1.331 1_545 S
C57 C58 1.391 . S
C57 N60 1.329 . S
C57 H67 0.930 . S
C58 C57 1.391 . S
C58 N59 1.334 . S
C58 H65 0.930 . S
N59 Zn43 2.119 1_565 S
N59 C55 1.328 1_565 S
N59 C58 1.334 . S
N60 C56 1.331 1_565 S
N60 C57 1.329 . S
H61 C55 0.930 . S
C62 O42 1.257 . S
C62 O63 1.244 . S
O63 C62 1.244 . S
O64 C40 1.257 . S
O64 Zn43 2.019 . S
H65 C58 0.930 . S
H66 C45 0.930 1_545 S
H67 C57 0.930 . S
Zn68 N72 2.020 . S
Zn68 O76 2.019 . S
Zn68 N78 2.119 . S
Zn68 O86 1.975 1_565 S
C69 N70 1.334 . S
C69 N73 1.336 . S
N70 C69 1.334 . S
N70 C71 1.334 . S
C71 N70 1.334 . S
C71 N72 1.336 . S
N72 Zn68 2.020 . S
N72 C71 1.336 . S
N72 N73 1.354 . S
N73 C69 1.336 . S
N73 N72 1.354 . S
N73 Zn77 2.020 . S
C74 O75 1.244 . S
C74 O98 1.257 . S
O75 C74 1.244 . S
O76 Zn68 2.019 . S
O76 C96 1.257 . S
Zn77 N73 2.020 . S
Zn77 O84 1.975 . S
Zn77 N93 2.119 . S
Zn77 O98 2.019 . S
N78 Zn68 2.119 . S
N78 C80 1.334 . S
N78 C81 1.328 . S
C79 C80 1.391 . S
C79 N82 1.329 . S
C79 H100 0.930 . S
C80 N78 1.334 . S
C80 C79 1.391 . S
C80 H87 0.930 . S
C81 N78 1.328 . S
C81 C83 1.392 . S
C81 H88 0.930 . S
N82 C79 1.329 . S
N82 C83 1.331 . S
C83 C81 1.392 . S
C83 N82 1.331 . S
O84 Zn77 1.975 . S
O84 C85 1.252 1_565 S
C85 O84 1.252 1_545 S
C85 O86 1.252 . S
O86 Zn68 1.975 1_545 S
O86 C85 1.252 . S
H87 C80 0.930 . S
H88 C81 0.930 . S
C89 C90 1.392 . S
C89 N93 1.328 . S
C89 H95 0.930 . S
C90 C89 1.392 . S
C90 N94 1.331 . S
C91 C92 1.391 . S
C91 N94 1.329 . S
C91 H101 0.930 . S
C92 C91 1.391 . S
C92 N93 1.334 . S
C92 H99 0.930 . S
N93 Zn77 2.119 . S
N93 C89 1.328 . S
N93 C92 1.334 . S
N94 C90 1.331 . S
N94 C91 1.329 . S
H95 C89 0.930 . S
C96 O76 1.257 . S
C96 O97 1.244 . S
O97 C96 1.244 . S
O98 C74 1.257 . S
O98 Zn77 2.019 . S
H99 C92 0.930 . S
H100 C79 0.930 . S
H101 C91 0.930 . S
Zn102 N106 2.020 1_565 S
Zn102 O110 2.019 . S
Zn102 N112 2.119 1_565 S
Zn102 O120 1.975 . S
C103 N104 1.334 . S
C103 N107 1.336 . S
N104 C103 1.334 . S
N104 C105 1.334 . S
C105 N104 1.334 . S
C105 N106 1.336 . S
N106 Zn102 2.020 1_545 S
N106 C105 1.336 . S
N106 N107 1.354 . S
N107 C103 1.336 . S
N107 N106 1.354 . S
N107 Zn111 2.020 . S
C108 O109 1.244 . S
C108 O132 1.257 . S
O109 C108 1.244 . S
O110 Zn102 2.019 . S
O110 C130 1.257 . S
Zn111 N107 2.020 . S
Zn111 O118 1.975 . S
Zn111 N127 2.119 . S
Zn111 O132 2.019 . S
N112 Zn102 2.119 1_545 S
N112 C114 1.334 . S
N112 C115 1.328 1_545 S
C113 C114 1.391 . S
C113 N116 1.329 . S
C113 H134 0.930 . S
C114 N112 1.334 . S
C114 C113 1.391 . S
C114 H121 0.930 . S
C115 N112 1.328 1_565 S
C115 C117 1.392 . S
C115 H122 0.930 . S
N116 C113 1.329 . S
N116 C117 1.331 1_545 S
C117 C115 1.392 . S
C117 N116 1.331 1_565 S
O118 Zn111 1.975 . S
O118 C119 1.252 . S
C119 O118 1.252 . S
C119 O120 1.252 1_545 S
O120 Zn102 1.975 . S
O120 C119 1.252 1_565 S
H121 C114 0.930 . S
H122 C115 0.930 . S
C123 C124 1.392 . S
C123 N127 1.328 . S
C123 H129 0.930 . S
C124 C123 1.392 . S
C124 N128 1.331 . S
C125 C126 1.391 . S
C125 N128 1.329 . S
C125 H135 0.930 1_545 S
C126 C125 1.391 . S
C126 N127 1.334 . S
C126 H133 0.930 . S
N127 Zn111 2.119 . S
N127 C123 1.328 . S
N127 C126 1.334 . S
N128 C124 1.331 . S
N128 C125 1.329 . S
H129 C123 0.930 . S
C130 O110 1.257 . S
C130 O131 1.244 . S
O131 C130 1.244 . S
O132 C108 1.257 . S
O132 Zn111 2.019 . S
H133 C126 0.930 . S
H134 C113 0.930 . S
H135 C125 0.930 1_565 S
Zn136 N140 2.020 . S
Zn136 O144 2.019 . S
Zn136 N146 2.119 . S
Zn136 O154 1.975 . S
C137 N138 1.334 . S
C137 N141 1.336 . S
N138 C137 1.334 . S
N138 C139 1.334 . S
C139 N138 1.334 . S
C139 N140 1.336 . S
N140 Zn136 2.020 . S
N140 C139 1.336 . S
N140 N141 1.354 . S
N141 C137 1.336 . S
N141 N140 1.354 . S
N141 Zn145 2.020 . S
C142 O143 1.244 . S
C142 O166 1.257 . S
O143 C142 1.244 . S
O144 Zn136 2.019 . S
O144 C164 1.257 . S
Zn145 N141 2.020 . S
Zn145 O152 1.975 1_565 S
Zn145 N161 2.119 . S
Zn145 O166 2.019 1_455 S
N146 Zn136 2.119 . S
N146 C148 1.334 . S
N146 C149 1.328 . S
C147 C148 1.391 . S
C147 N150 1.329 . S
C147 H168 0.930 . S
C148 N146 1.334 . S
C148 C147 1.391 . S
C148 H155 0.930 . S
C149 N146 1.328 . S
C149 C151 1.392 . S
C149 H156 0.930 . S
N150 C147 1.329 . S
N150 C151 1.331 . S
C151 C149 1.392 . S
C151 N150 1.331 . S
O152 Zn145 1.975 1_545 S
O152 C153 1.252 . S
C153 O152 1.252 . S
C153 O154 1.252 1_545 S
O154 Zn136 1.975 . S
O154 C153 1.252 1_565 S
H155 C148 0.930 . S
H156 C149 0.930 . S
C157 C158 1.392 . S
C157 N161 1.328 . S
C157 H163 0.938 . S
C158 C157 1.392 . S
C158 N162 1.331 . S
C159 C160 1.391 . S
C159 N162 1.329 . S
C159 H169 0.930 . S
C160 C159 1.391 . S
C160 N161 1.334 . S
C160 H167 0.930 . S
N161 Zn145 2.119 . S
N161 C157 1.328 . S
N161 C160 1.334 . S
N162 C158 1.331 . S
N162 C159 1.329 . S
H163 C157 0.938 . S
C164 O144 1.257 . S
C164 O165 1.244 . S
O165 C164 1.244 . S
O166 C142 1.257 . S
O166 Zn145 2.019 1_655 S
H167 C160 0.930 . S
H168 C147 0.930 . S
H169 C159 0.930 . S
Zn170 N174 2.020 . S
Zn170 O178 2.019 . S
Zn170 N180 2.119 . S
Zn170 O188 1.975 . S
C171 N172 1.334 . S
C171 N175 1.336 . S
N172 C171 1.334 . S
N172 C173 1.334 . S
C173 N172 1.334 . S
C173 N174 1.336 . S
N174 Zn170 2.020 . S
N174 C173 1.336 . S
N174 N175 1.354 . S
N175 C171 1.336 . S
N175 N174 1.354 . S
N175 Zn179 2.020 1_565 S
C176 O177 1.244 . S
C176 O200 1.257 . S
O177 C176 1.244 . S
O178 Zn170 2.019 . S
O178 C198 1.257 . S
Zn179 N175 2.020 1_545 S
Zn179 O186 1.975 . S
Zn179 N195 2.119 1_545 S
Zn179 O200 2.019 . S
N180 Zn170 2.119 . S
N180 C182 1.334 . S
N180 C183 1.328 . S
C181 C182 1.391 . S
C181 N184 1.329 . S
C181 H202 0.930 1_565 S
C182 N180 1.334 . S
C182 C181 1.391 . S
C182 H189 0.930 . S
C183 N180 1.328 . S
C183 C185 1.392 . S
C183 H190 0.930 . S
N184 C181 1.329 . S
N184 C185 1.331 . S
C185 C183 1.392 . S
C185 N184 1.331 . S
O186 Zn179 1.975 . S
O186 C187 1.252 1_545 S
C187 O186 1.252 1_565 S
C187 O188 1.252 . S
O188 Zn170 1.975 . S
O188 C187 1.252 . S
H189 C182 0.930 . S
H190 C183 0.930 . S
C191 C192 1.392 . S
C191 N195 1.328 1_545 S
C191 H197 0.930 . S
C192 C191 1.392 . S
C192 N196 1.331 1_545 S
C193 C194 1.391 . S
C193 N196 1.329 . S
C193 H203 0.930 . S
C194 C193 1.391 . S
C194 N195 1.334 . S
C194 H201 0.930 . S
N195 Zn179 2.119 1_565 S
N195 C191 1.328 1_565 S
N195 C194 1.334 . S
N196 C192 1.331 1_565 S
N196 C193 1.329 . S
H197 C191 0.930 . S
C198 O178 1.257 . S
C198 O199 1.244 . S
O199 C198 1.244 . S
O200 C176 1.257 . S
O200 Zn179 2.019 . S
H201 C194 0.930 . S
H202 C181 0.930 1_545 S
H203 C193 0.930 . S
Zn204 N208 2.020 . S
Zn204 O212 2.019 . S
Zn204 N214 2.119 . S
Zn204 O222 1.975 1_545 S
C205 N206 1.334 . S
C205 N209 1.336 . S
N206 C205 1.334 . S
N206 C207 1.334 . S
C207 N206 1.334 . S
C207 N208 1.336 . S
N208 Zn204 2.020 . S
N208 C207 1.336 . S
N208 N209 1.354 . S
N209 C205 1.336 . S
N209 N208 1.354 . S
N209 Zn213 2.020 . S
C210 O211 1.244 . S
C210 O234 1.257 . S
O211 C210 1.244 . S
O212 Zn204 2.019 . S
O212 C232 1.257 . S
Zn213 N209 2.020 . S
Zn213 O220 1.975 . S
Zn213 N229 2.119 . S
Zn213 O234 2.019 . S
N214 Zn204 2.119 . S
N214 C216 1.334 . S
N214 C217 1.328 . S
C215 C216 1.391 . S
C215 N218 1.329 . S
C215 H236 0.930 . S
C216 N214 1.334 . S
C216 C215 1.391 . S
C216 H223 0.930 . S
C217 N214 1.328 . S
C217 C219 1.392 . S
C217 H224 0.930 . S
N218 C215 1.329 . S
N218 C219 1.331 . S
C219 C217 1.392 . S
C219 N218 1.331 . S
O220 Zn213 1.975 . S
O220 C221 1.252 1_545 S
C221 O220 1.252 1_565 S
C221 O222 1.252 . S
O222 Zn204 1.975 1_565 S
O222 C221 1.252 . S
H223 C216 0.930 . S
H224 C217 0.930 . S
C225 C226 1.392 . S
C225 N229 1.328 . S
C225 H231 0.930 . S
C226 C225 1.392 . S
C226 N230 1.331 . S
C227 C228 1.391 . S
C227 N230 1.329 . S
C227 H237 0.930 . S
C228 C227 1.391 . S
C228 N229 1.334 . S
C228 H235 0.930 . S
N229 Zn213 2.119 . S
N229 C225 1.328 . S
N229 C228 1.334 . S
N230 C226 1.331 . S
N230 C227 1.329 . S
H231 C225 0.930 . S
C232 O212 1.257 . S
C232 O233 1.244 . S
O233 C232 1.244 . S
O234 C210 1.257 . S
O234 Zn213 2.019 . S
H235 C228 0.930 . S
H236 C215 0.930 . S
H237 C227 0.930 . S
Zn238 N242 2.020 1_565 S
Zn238 O246 2.019 . S
Zn238 N248 2.119 1_565 S
Zn238 O256 1.975 . S
C239 N240 1.334 . S
C239 N243 1.336 1_655 S
N240 C239 1.334 . S
N240 C241 1.334 . S
C241 N240 1.334 . S
C241 N242 1.336 1_655 S
N242 Zn238 2.020 1_545 S
N242 C241 1.336 1_455 S
N242 N243 1.354 . S
N243 C239 1.336 1_455 S
N243 N242 1.354 . S
N243 Zn247 2.020 . S
C244 O245 1.244 . S
C244 O268 1.257 . S
O245 C244 1.244 . S
O246 Zn238 2.019 . S
O246 C266 1.257 . S
Zn247 N243 2.020 . S
Zn247 O254 1.975 . S
Zn247 N263 2.119 . S
Zn247 O268 2.019 . S
N248 Zn238 2.119 1_545 S
N248 C250 1.334 . S
N248 C251 1.328 1_545 S
C249 C250 1.391 . S
C249 N252 1.329 . S
C249 H270 0.930 . S
C250 N248 1.334 . S
C250 C249 1.391 . S
C250 H257 0.930 . S
C251 N248 1.328 1_565 S
C251 C253 1.392 . S
C251 H258 0.930 . S
N252 C249 1.329 . S
N252 C253 1.331 1_545 S
C253 C251 1.392 . S
C253 N252 1.331 1_565 S
O254 Zn247 1.975 . S
O254 C255 1.252 . S
C255 O254 1.252 . S
C255 O256 1.252 1_545 S
O256 Zn238 1.975 . S
O256 C255 1.252 1_565 S
H257 C250 0.930 . S
H258 C251 0.930 . S
C259 C260 1.392 . S
C259 N263 1.328 . S
C259 H265 0.930 . S
C260 C259 1.392 . S
C260 N264 1.331 . S
C261 C262 1.391 . S
C261 N264 1.329 . S
C261 H271 0.930 1_545 S
C262 C261 1.391 . S
C262 N263 1.334 . S
C262 H269 0.930 . S
N263 Zn247 2.119 . S
N263 C259 1.328 . S
N263 C262 1.334 . S
N264 C260 1.331 . S
N264 C261 1.329 . S
H265 C259 0.930 . S
C266 O246 1.257 . S
C266 O267 1.244 . S
O267 C266 1.244 . S
O268 C244 1.257 . S
O268 Zn247 2.019 . S
H269 C262 0.930 . S
H270 C249 0.930 . S
H271 C261 0.930 1_565 S
Zn272 N276 2.020 . S
Zn272 O280 2.019 1_655 S
Zn272 N282 2.119 . S
Zn272 O290 1.975 1_565 S
C273 N274 1.334 . S
C273 N277 1.336 . S
N274 C273 1.334 . S
N274 C275 1.334 . S
C275 N274 1.334 . S
C275 N276 1.336 . S
N276 Zn272 2.020 . S
N276 C275 1.336 . S
N276 N277 1.354 . S
N277 C273 1.336 . S
N277 N276 1.354 . S
N277 Zn281 2.020 . S
C278 O279 1.244 . S
C278 O302 1.257 . S
O279 C278 1.244 . S
O280 Zn272 2.019 1_455 S
O280 C300 1.257 . S
Zn281 N277 2.020 . S
Zn281 O288 1.975 . S
Zn281 N297 2.119 . S
Zn281 O302 2.019 . S
N282 Zn272 2.119 . S
N282 C284 1.334 . S
N282 C285 1.328 . S
C283 C284 1.391 . S
C283 N286 1.329 . S
C283 H304 0.930 . S
C284 N282 1.334 . S
C284 C283 1.391 . S
C284 H291 0.930 . S
C285 N282 1.328 . S
C285 C287 1.392 . S
C285 H292 0.938 . S
N286 C283 1.329 . S
N286 C287 1.331 . S
C287 C285 1.392 . S
C287 N286 1.331 . S
O288 Zn281 1.975 . S
O288 C289 1.252 1_565 S
C289 O288 1.252 1_545 S
C289 O290 1.252 . S
O290 Zn272 1.975 1_545 S
O290 C289 1.252 . S
H291 C284 0.930 . S
H292 C285 0.938 . S
C293 C294 1.392 . S
C293 N297 1.328 . S
C293 H299 0.930 . S
C294 C293 1.392 . S
C294 N298 1.331 . S
C295 C296 1.391 . S
C295 N298 1.329 . S
C295 H305 0.930 . S
C296 C295 1.391 . S
C296 N297 1.334 . S
C296 H303 0.930 . S
N297 Zn281 2.119 . S
N297 C293 1.328 . S
N297 C296 1.334 . S
N298 C294 1.331 . S
N298 C295 1.329 . S
H299 C293 0.930 . S
C300 O280 1.257 . S
C300 O301 1.244 . S
O301 C300 1.244 . S
O302 C278 1.257 . S
O302 Zn281 2.019 . S
H303 C296 0.930 . S
H304 C283 0.930 . S
H305 C295 0.930 . S
Zn306 N310 2.020 1_565 S
Zn306 O314 2.019 . S
Zn306 N316 2.119 1_565 S
Zn306 O324 1.975 . S
C307 N308 1.334 . S
C307 N311 1.336 1_455 S
N308 C307 1.334 . S
N308 C309 1.334 . S
C309 N308 1.334 . S
C309 N310 1.336 1_455 S
N310 Zn306 2.020 1_545 S
N310 C309 1.336 1_655 S
N310 N311 1.354 . S
N311 C307 1.336 1_655 S
N311 N310 1.354 . S
N311 Zn315 2.020 . S
C312 O313 1.244 . S
C312 O336 1.257 . S
O313 C312 1.244 . S
O314 Zn306 2.019 . S
O314 C334 1.257 . S
Zn315 N311 2.020 . S
Zn315 O322 1.975 . S
Zn315 N331 2.119 . S
Zn315 O336 2.019 . S
N316 Zn306 2.119 1_545 S
N316 C318 1.334 . S
N316 C319 1.328 1_545 S
C317 C318 1.391 . S
C317 N320 1.329 . S
C317 H338 0.930 . S
C318 N316 1.334 . S
C318 C317 1.391 . S
C318 H325 0.930 . S
C319 N316 1.328 1_565 S
C319 C321 1.392 . S
C319 H326 0.930 . S
N320 C317 1.329 . S
N320 C321 1.331 1_545 S
C321 C319 1.392 . S
C321 N320 1.331 1_565 S
O322 Zn315 1.975 . S
O322 C323 1.252 . S
C323 O322 1.252 . S
C323 O324 1.252 1_545 S
O324 Zn306 1.975 . S
O324 C323 1.252 1_565 S
H325 C318 0.930 . S
H326 C319 0.930 . S
C327 C328 1.392 . S
C327 N331 1.328 . S
C327 H333 0.930 . S
C328 C327 1.392 . S
C328 N332 1.331 . S
C329 C330 1.391 . S
C329 N332 1.329 . S
C329 H339 0.930 1_545 S
C330 C329 1.391 . S
C330 N331 1.334 . S
C330 H337 0.930 . S
N331 Zn315 2.119 . S
N331 C327 1.328 . S
N331 C330 1.334 . S
N332 C328 1.331 . S
N332 C329 1.329 . S
H333 C327 0.930 . S
C334 O314 1.257 . S
C334 O335 1.244 . S
O335 C334 1.244 . S
O336 C312 1.257 . S
O336 Zn315 2.019 . S
H337 C330 0.930 . S
H338 C317 0.930 . S
H339 C329 0.930 1_565 S
Zn340 N344 2.020 . S
Zn340 O348 2.019 . S
Zn340 N350 2.119 . S
Zn340 O358 1.975 1_545 S
C341 N342 1.334 . S
C341 N345 1.336 . S
N342 C341 1.334 . S
N342 C343 1.334 . S
C343 N342 1.334 . S
C343 N344 1.336 . S
N344 Zn340 2.020 . S
N344 C343 1.336 . S
N344 N345 1.354 . S
N345 C341 1.336 . S
N345 N344 1.354 . S
N345 Zn349 2.020 . S
C346 O347 1.244 . S
C346 O370 1.257 . S
O347 C346 1.244 . S
O348 Zn340 2.019 . S
O348 C368 1.257 . S
Zn349 N345 2.020 . S
Zn349 O356 1.975 . S
Zn349 N365 2.119 . S
Zn349 O370 2.019 . S
N350 Zn340 2.119 . S
N350 C352 1.334 . S
N350 C353 1.328 . S
C351 C352 1.391 . S
C351 N354 1.329 . S
C351 H372 0.930 . S
C352 N350 1.334 . S
C352 C351 1.391 . S
C352 H359 0.930 . S
C353 N350 1.328 . S
C353 C355 1.392 . S
C353 H360 0.930 . S
N354 C351 1.329 . S
N354 C355 1.331 . S
C355 C353 1.392 . S
C355 N354 1.331 . S
O356 Zn349 1.975 . S
O356 C357 1.252 1_545 S
C357 O356 1.252 1_565 S
C357 O358 1.252 . S
O358 Zn340 1.975 1_565 S
O358 C357 1.252 . S
H359 C352 0.930 . S
H360 C353 0.930 . S
C361 C362 1.392 . S
C361 N365 1.328 . S
C361 H367 0.930 . S
C362 C361 1.392 . S
C362 N366 1.331 . S
C363 C364 1.391 . S
C363 N366 1.329 . S
C363 H373 0.930 . S
C364 C363 1.391 . S
C364 N365 1.334 . S
C364 H371 0.930 . S
N365 Zn349 2.119 . S
N365 C361 1.328 . S
N365 C364 1.334 . S
N366 C362 1.331 . S
N366 C363 1.329 . S
H367 C361 0.930 . S
C368 O348 1.257 . S
C368 O369 1.244 . S
O369 C368 1.244 . S
O370 C346 1.257 . S
O370 Zn349 2.019 . S
H371 C364 0.930 . S
H372 C351 0.930 . S
H373 C363 0.930 . S
Zn374 N378 2.020 1_545 S
Zn374 O382 2.019 . S
Zn374 N384 2.119 1_545 S
Zn374 O392 1.975 . S
C375 N376 1.334 . S
C375 N379 1.336 . S
N376 C375 1.334 . S
N376 C377 1.334 . S
C377 N376 1.334 . S
C377 N378 1.336 . S
N378 Zn374 2.020 1_565 S
N378 C377 1.336 . S
N378 N379 1.354 . S
N379 C375 1.336 . S
N379 N378 1.354 . S
N379 Zn383 2.020 . S
C380 O381 1.244 . S
C380 O404 1.257 . S
O381 C380 1.244 . S
O382 Zn374 2.019 . S
O382 C402 1.257 . S
Zn383 N379 2.020 . S
Zn383 O390 1.975 . S
Zn383 N399 2.119 . S
Zn383 O404 2.019 . S
N384 Zn374 2.119 1_565 S
N384 C386 1.334 . S
N384 C387 1.328 1_565 S
C385 C386 1.391 . S
C385 N388 1.329 . S
C385 H406 0.930 . S
C386 N384 1.334 . S
C386 C385 1.391 . S
C386 H393 0.930 . S
C387 N384 1.328 1_545 S
C387 C389 1.392 . S
C387 H394 0.930 . S
N388 C385 1.329 . S
N388 C389 1.331 1_565 S
C389 C387 1.392 . S
C389 N388 1.331 1_545 S
O390 Zn383 1.975 . S
O390 C391 1.252 . S
C391 O390 1.252 . S
C391 O392 1.252 1_565 S
O392 Zn374 1.975 . S
O392 C391 1.252 1_545 S
H393 C386 0.930 . S
H394 C387 0.930 . S
C395 C396 1.392 . S
C395 N399 1.328 . S
C395 H401 0.930 . S
C396 C395 1.392 . S
C396 N400 1.331 . S
C397 C398 1.391 . S
C397 N400 1.329 . S
C397 H407 0.930 1_565 S
C398 C397 1.391 . S
C398 N399 1.334 . S
C398 H405 0.930 . S
N399 Zn383 2.119 . S
N399 C395 1.328 . S
N399 C398 1.334 . S
N400 C396 1.331 . S
N400 C397 1.329 . S
H401 C395 0.930 . S
C402 O382 1.257 . S
C402 O403 1.244 . S
O403 C402 1.244 . S
O404 C380 1.257 . S
O404 Zn383 2.019 . S
H405 C398 0.930 . S
H406 C385 0.930 . S
H407 C397 0.930 1_545 S
Zn408 N412 2.020 . S
Zn408 O416 2.019 1_655 S
Zn408 N418 2.119 . S
Zn408 O426 1.975 1_545 S
C409 N410 1.334 . S
C409 N413 1.336 . S
N410 C409 1.334 . S
N410 C411 1.334 . S
C411 N410 1.334 . S
C411 N412 1.336 . S
N412 Zn408 2.020 . S
N412 C411 1.336 . S
N412 N413 1.354 . S
N413 C409 1.336 . S
N413 N412 1.354 . S
N413 Zn417 2.020 . S
C414 O415 1.244 . S
C414 O438 1.257 . S
O415 C414 1.244 . S
O416 Zn408 2.019 1_455 S
O416 C436 1.257 . S
Zn417 N413 2.020 . S
Zn417 O424 1.975 . S
Zn417 N433 2.119 . S
Zn417 O438 2.019 . S
N418 Zn408 2.119 . S
N418 C420 1.334 . S
N418 C421 1.328 . S
C419 C420 1.391 . S
C419 N422 1.329 . S
C419 H440 0.930 . S
C420 N418 1.334 . S
C420 C419 1.391 . S
C420 H427 0.930 . S
C421 N418 1.328 . S
C421 C423 1.392 . S
C421 H428 0.938 . S
N422 C419 1.329 . S
N422 C423 1.331 . S
C423 C421 1.392 . S
C423 N422 1.331 . S
O424 Zn417 1.975 . S
O424 C425 1.252 1_545 S
C425 O424 1.252 1_565 S
C425 O426 1.252 . S
O426 Zn408 1.975 1_565 S
O426 C425 1.252 . S
H427 C420 0.930 . S
H428 C421 0.938 . S
C429 C430 1.392 . S
C429 N433 1.328 . S
C429 H435 0.930 . S
C430 C429 1.392 . S
C430 N434 1.331 . S
C431 C432 1.391 . S
C431 N434 1.329 . S
C431 H441 0.930 . S
C432 C431 1.391 . S
C432 N433 1.334 . S
C432 H439 0.930 . S
N433 Zn417 2.119 . S
N433 C429 1.328 . S
N433 C432 1.334 . S
N434 C430 1.331 . S
N434 C431 1.329 . S
H435 C429 0.930 . S
C436 O416 1.257 . S
C436 O437 1.244 . S
O437 C436 1.244 . S
O438 C414 1.257 . S
O438 Zn417 2.019 . S
H439 C432 0.930 . S
H440 C419 0.930 . S
H441 C431 0.930 . S
Zn442 N446 2.020 . S
Zn442 O450 2.019 . S
Zn442 N452 2.119 . S
Zn442 O460 1.975 . S
C443 N444 1.334 . S
C443 N447 1.336 . S
N444 C443 1.334 . S
N444 C445 1.334 . S
C445 N444 1.334 . S
C445 N446 1.336 . S
N446 Zn442 2.020 . S
N446 C445 1.336 . S
N446 N447 1.354 . S
N447 C443 1.336 . S
N447 N446 1.354 . S
N447 Zn451 2.020 1_545 S
C448 O449 1.244 . S
C448 O472 1.257 . S
O449 C448 1.244 . S
O450 Zn442 2.019 . S
O450 C470 1.257 . S
Zn451 N447 2.020 1_565 S
Zn451 O458 1.975 . S
Zn451 N467 2.119 1_565 S
Zn451 O472 2.019 . S
N452 Zn442 2.119 . S
N452 C454 1.334 . S
N452 C455 1.328 . S
C453 C454 1.391 . S
C453 N456 1.329 . S
C453 H474 0.930 1_545 S
C454 N452 1.334 . S
C454 C453 1.391 . S
C454 H461 0.930 . S
C455 N452 1.328 . S
C455 C457 1.392 . S
C455 H462 0.930 . S
N456 C453 1.329 . S
N456 C457 1.331 . S
C457 C455 1.392 . S
C457 N456 1.331 . S
O458 Zn451 1.975 . S
O458 C459 1.252 1_565 S
C459 O458 1.252 1_545 S
C459 O460 1.252 . S
O460 Zn442 1.975 . S
O460 C459 1.252 . S
H461 C454 0.930 . S
H462 C455 0.930 . S
C463 C464 1.392 . S
C463 N467 1.328 1_565 S
C463 H469 0.930 . S
C464 C463 1.392 . S
C464 N468 1.331 1_565 S
C465 C466 1.391 . S
C465 N468 1.329 . S
C465 H475 0.930 . S
C466 C465 1.391 . S
C466 N467 1.334 . S
C466 H473 0.930 . S
N467 Zn451 2.119 1_545 S
N467 C463 1.328 1_545 S
N467 C466 1.334 . S
N468 C464 1.331 1_545 S
N468 C465 1.329 . S
H469 C463 0.930 . S
C470 O450 1.257 . S
C470 O471 1.244 . S
O471 C470 1.244 . S
O472 C448 1.257 . S
O472 Zn451 2.019 . S
H473 C466 0.930 . S
H474 C453 0.930 1_565 S
H475 C465 0.930 . S
Zn476 N480 2.020 . S
Zn476 O484 2.019 . S
Zn476 N486 2.119 . S
Zn476 O494 1.975 . S
C477 N478 1.334 . S
C477 N481 1.336 . S
N478 C477 1.334 . S
N478 C479 1.334 . S
C479 N478 1.334 . S
C479 N480 1.336 . S
N480 Zn476 2.020 . S
N480 C479 1.336 . S
N480 N481 1.354 . S
N481 C477 1.336 . S
N481 N480 1.354 . S
N481 Zn485 2.020 . S
C482 O483 1.244 . S
C482 O506 1.257 . S
O483 C482 1.244 . S
O484 Zn476 2.019 . S
O484 C504 1.257 . S
Zn485 N481 2.020 . S
Zn485 O492 1.975 1_565 S
Zn485 N501 2.119 . S
Zn485 O506 2.019 . S
N486 Zn476 2.119 . S
N486 C488 1.334 . S
N486 C489 1.328 . S
C487 C488 1.391 . S
C487 N490 1.329 . S
C487 H508 0.930 . S
C488 N486 1.334 . S
C488 C487 1.391 . S
C488 H495 0.930 . S
C489 N486 1.328 . S
C489 C491 1.392 . S
C489 H496 0.930 . S
N490 C487 1.329 . S
N490 C491 1.331 . S
C491 C489 1.392 . S
C491 N490 1.331 . S
O492 Zn485 1.975 1_545 S
O492 C493 1.252 . S
C493 O492 1.252 . S
C493 O494 1.252 1_545 S
O494 Zn476 1.975 . S
O494 C493 1.252 1_565 S
H495 C488 0.930 . S
H496 C489 0.930 . S
C497 C498 1.392 . S
C497 N501 1.328 . S
C497 H503 0.930 . S
C498 C497 1.392 . S
C498 N502 1.331 . S
C499 C500 1.391 . S
C499 N502 1.329 . S
C499 H509 0.930 . S
C500 C499 1.391 . S
C500 N501 1.334 . S
C500 H507 0.930 . S
N501 Zn485 2.119 . S
N501 C497 1.328 . S
N501 C500 1.334 . S
N502 C498 1.331 . S
N502 C499 1.329 . S
H503 C497 0.930 . S
C504 O484 1.257 . S
C504 O505 1.244 . S
O505 C504 1.244 . S
O506 C482 1.257 . S
O506 Zn485 2.019 . S
H507 C500 0.930 . S
H508 C487 0.930 . S
H509 C499 0.930 . S
Zn510 N514 2.020 . S
Zn510 O518 2.019 . S
Zn510 N520 2.119 . S
Zn510 O528 1.975 . S
C511 N512 1.334 . S
C511 N515 1.336 1_455 S
N512 C511 1.334 . S
N512 C513 1.334 . S
C513 N512 1.334 . S
C513 N514 1.336 1_455 S
N514 Zn510 2.020 . S
N514 C513 1.336 1_655 S
N514 N515 1.354 . S
N515 C511 1.336 1_655 S
N515 N514 1.354 . S
N515 Zn519 2.020 1_565 S
C516 O517 1.244 . S
C516 O540 1.257 . S
O517 C516 1.244 . S
O518 Zn510 2.019 . S
O518 C538 1.257 . S
Zn519 N515 2.020 1_545 S
Zn519 O526 1.975 . S
Zn519 N535 2.119 1_545 S
Zn519 O540 2.019 . S
N520 Zn510 2.119 . S
N520 C522 1.334 . S
N520 C523 1.328 . S
C521 C522 1.391 . S
C521 N524 1.329 . S
C521 H542 0.930 1_565 S
C522 N520 1.334 . S
C522 C521 1.391 . S
C522 H529 0.930 . S
C523 N520 1.328 . S
C523 C525 1.392 . S
C523 H530 0.930 . S
N524 C521 1.329 . S
N524 C525 1.331 . S
C525 C523 1.392 . S
C525 N524 1.331 . S
O526 Zn519 1.975 . S
O526 C527 1.252 1_545 S
C527 O526 1.252 1_565 S
C527 O528 1.252 . S
O528 Zn510 1.975 . S
O528 C527 1.252 . S
H529 C522 0.930 . S
H530 C523 0.930 . S
C531 C532 1.392 . S
C531 N535 1.328 1_545 S
C531 H537 0.930 . S
C532 C531 1.392 . S
C532 N536 1.331 1_545 S
C533 C534 1.391 . S
C533 N536 1.329 . S
C533 H543 0.930 . S
C534 C533 1.391 . S
C534 N535 1.334 . S
C534 H541 0.930 . S
N535 Zn519 2.119 1_565 S
N535 C531 1.328 1_565 S
N535 C534 1.334 . S
N536 C532 1.331 1_565 S
N536 C533 1.329 . S
H537 C531 0.930 . S
C538 O518 1.257 . S
C538 O539 1.244 . S
O539 C538 1.244 . S
O540 C516 1.257 . S
O540 Zn519 2.019 . S
H541 C534 0.930 . S
H542 C521 0.930 1_545 S
H543 C533 0.930 . S
Zn544 N548 2.020 . S
Zn544 O552 2.019 . S
Zn544 N554 2.119 . S
Zn544 O562 1.975 . S
C545 N546 1.334 . S
C545 N549 1.336 . S
N546 C545 1.334 . S
N546 C547 1.334 . S
C547 N546 1.334 . S
C547 N548 1.336 . S
N548 Zn544 2.020 . S
N548 C547 1.336 . S
N548 N549 1.354 . S
N549 C545 1.336 . S
N549 N548 1.354 . S
N549 Zn553 2.020 . S
C550 O551 1.244 . S
C550 O574 1.257 . S
O551 C550 1.244 . S
O552 Zn544 2.019 . S
O552 C572 1.257 . S
Zn553 N549 2.020 . S
Zn553 O560 1.975 . S
Zn553 N569 2.119 . S
Zn553 O574 2.019 . S
N554 Zn544 2.119 . S
N554 C556 1.334 . S
N554 C557 1.328 . S
C555 C556 1.391 . S
C555 N558 1.329 . S
C555 H576 0.930 . S
C556 N554 1.334 . S
C556 C555 1.391 . S
C556 H563 0.930 . S
C557 N554 1.328 . S
C557 C559 1.392 . S
C557 H564 0.930 . S
N558 C555 1.329 . S
N558 C559 1.331 . S
C559 C557 1.392 . S
C559 N558 1.331 . S
O560 Zn553 1.975 . S
O560 C561 1.252 . S
C561 O560 1.252 . S
C561 O562 1.252 . S
O562 Zn544 1.975 . S
O562 C561 1.252 . S
H563 C556 0.930 . S
H564 C557 0.930 . S
C565 C566 1.392 . S
C565 N569 1.328 . S
C565 H571 0.930 . S
C566 C565 1.392 . S
C566 N570 1.331 . S
C567 C568 1.391 . S
C567 N570 1.329 . S
C567 H577 0.930 . S
C568 C567 1.391 . S
C568 N569 1.334 . S
C568 H575 0.930 . S
N569 Zn553 2.119 . S
N569 C565 1.328 . S
N569 C568 1.334 . S
N570 C566 1.331 . S
N570 C567 1.329 . S
H571 C565 0.930 . S
C572 O552 1.257 . S
C572 O573 1.244 . S
O573 C572 1.244 . S
O574 C550 1.257 . S
O574 Zn553 2.019 . S
H575 C568 0.930 . S
H576 C555 0.930 . S
H577 C567 0.930 . S
Zn578 N582 2.020 . S
Zn578 O586 2.019 . S
Zn578 N588 2.119 . S
Zn578 O596 1.975 . S
C579 N580 1.334 . S
C579 N583 1.336 . S
N580 C579 1.334 . S
N580 C581 1.334 . S
C581 N580 1.334 . S
C581 N582 1.336 . S
N582 Zn578 2.020 . S
N582 C581 1.336 . S
N582 N583 1.354 . S
N583 C579 1.336 . S
N583 N582 1.354 . S
N583 Zn587 2.020 . S
C584 O585 1.244 . S
C584 O608 1.257 . S
O585 C584 1.244 . S
O586 Zn578 2.019 . S
O586 C606 1.257 . S
Zn587 N583 2.020 . S
Zn587 O594 1.975 . S
Zn587 N603 2.119 . S
Zn587 O608 2.019 . S
N588 Zn578 2.119 . S
N588 C590 1.334 . S
N588 C591 1.328 . S
C589 C590 1.391 . S
C589 N592 1.329 . S
C589 H610 0.930 . S
C590 N588 1.334 . S
C590 C589 1.391 . S
C590 H597 0.930 . S
C591 N588 1.328 . S
C591 C593 1.392 . S
C591 H598 0.930 . S
N592 C589 1.329 . S
N592 C593 1.331 . S
C593 C591 1.392 . S
C593 N592 1.331 . S
O594 Zn587 1.975 . S
O594 C595 1.252 . S
C595 O594 1.252 . S
C595 O596 1.252 . S
O596 Zn578 1.975 . S
O596 C595 1.252 . S
H597 C590 0.930 . S
H598 C591 0.930 . S
C599 C600 1.392 . S
C599 N603 1.328 . S
C599 H605 0.930 . S
C600 C599 1.392 . S
C600 N604 1.331 . S
C601 C602 1.391 . S
C601 N604 1.329 . S
C601 H611 0.930 . S
C602 C601 1.391 . S
C602 N603 1.334 . S
C602 H609 0.930 . S
N603 Zn587 2.119 . S
N603 C599 1.328 . S
N603 C602 1.334 . S
N604 C600 1.331 . S
N604 C601 1.329 . S
H605 C599 0.930 . S
C606 O586 1.257 . S
C606 O607 1.244 . S
O607 C606 1.244 . S
O608 C584 1.257 . S
O608 Zn587 2.019 . S
H609 C602 0.930 . S
H610 C589 0.930 . S
H611 C601 0.930 . S
Zn612 N616 2.020 . S
Zn612 O620 2.019 1_655 S
Zn612 N622 2.119 . S
Zn612 O630 1.975 . S
C613 N614 1.334 . S
C613 N617 1.336 . S
N614 C613 1.334 . S
N614 C615 1.334 . S
C615 N614 1.334 . S
C615 N616 1.336 . S
N616 Zn612 2.020 . S
N616 C615 1.336 . S
N616 N617 1.354 . S
N617 C613 1.336 . S
N617 N616 1.354 . S
N617 Zn621 2.020 . S
C618 O619 1.244 . S
C618 O642 1.257 . S
O619 C618 1.244 . S
O620 Zn612 2.019 1_455 S
O620 C640 1.257 . S
Zn621 N617 2.020 . S
Zn621 O628 1.975 . S
Zn621 N637 2.119 . S
Zn621 O642 2.019 . S
N622 Zn612 2.119 . S
N622 C624 1.334 . S
N622 C625 1.328 . S
C623 C624 1.391 . S
C623 N626 1.329 . S
C623 H644 0.930 . S
C624 N622 1.334 . S
C624 C623 1.391 . S
C624 H631 0.930 . S
C625 N622 1.328 . S
C625 C627 1.392 . S
C625 H632 0.938 . S
N626 C623 1.329 . S
N626 C627 1.331 . S
C627 C625 1.392 . S
C627 N626 1.331 . S
O628 Zn621 1.975 . S
O628 C629 1.252 . S
C629 O628 1.252 . S
C629 O630 1.252 . S
O630 Zn612 1.975 . S
O630 C629 1.252 . S
H631 C624 0.930 . S
H632 C625 0.938 . S
C633 C634 1.392 . S
C633 N637 1.328 . S
C633 H639 0.930 . S
C634 C633 1.392 . S
C634 N638 1.331 . S
C635 C636 1.391 . S
C635 N638 1.329 . S
C635 H645 0.930 . S
C636 C635 1.391 . S
C636 N637 1.334 . S
C636 H643 0.930 . S
N637 Zn621 2.119 . S
N637 C633 1.328 . S
N637 C636 1.334 . S
N638 C634 1.331 . S
N638 C635 1.329 . S
H639 C633 0.930 . S
C640 O620 1.257 . S
C640 O641 1.244 . S
O641 C640 1.244 . S
O642 C618 1.257 . S
O642 Zn621 2.019 . S
H643 C636 0.930 . S
H644 C623 0.930 . S
H645 C635 0.930 . S
Zn646 N650 2.020 . S
Zn646 O654 2.019 . S
Zn646 N656 2.119 . S
Zn646 O664 1.975 . S
C647 N648 1.334 . S
C647 N651 1.336 1_455 S
N648 C647 1.334 . S
N648 C649 1.334 . S
C649 N648 1.334 . S
C649 N650 1.336 1_455 S
N650 Zn646 2.020 . S
N650 C649 1.336 1_655 S
N650 N651 1.354 . S
N651 C647 1.336 1_655 S
N651 N650 1.354 . S
N651 Zn655 2.020 . S
C652 O653 1.244 . S
C652 O676 1.257 . S
O653 C652 1.244 . S
O654 Zn646 2.019 . S
O654 C674 1.257 . S
Zn655 N651 2.020 . S
Zn655 O662 1.975 . S
Zn655 N671 2.119 . S
Zn655 O676 2.019 . S
N656 Zn646 2.119 . S
N656 C658 1.334 . S
N656 C659 1.328 . S
C657 C658 1.391 . S
C657 N660 1.329 . S
C657 H678 0.930 . S
C658 N656 1.334 . S
C658 C657 1.391 . S
C658 H665 0.930 . S
C659 N656 1.328 . S
C659 C661 1.392 . S
C659 H666 0.930 . S
N660 C657 1.329 . S
N660 C661 1.331 . S
C661 C659 1.392 . S
C661 N660 1.331 . S
O662 Zn655 1.975 . S
O662 C663 1.252 . S
C663 O662 1.252 . S
C663 O664 1.252 . S
O664 Zn646 1.975 . S
O664 C663 1.252 . S
H665 C658 0.930 . S
H666 C659 0.930 . S
C667 C668 1.392 . S
C667 N671 1.328 . S
C667 H673 0.930 . S
C668 C667 1.392 . S
C668 N672 1.331 . S
C669 C670 1.391 . S
C669 N672 1.329 . S
C669 H679 0.930 . S
C670 C669 1.391 . S
C670 N671 1.334 . S
C670 H677 0.930 . S
N671 Zn655 2.119 . S
N671 C667 1.328 . S
N671 C670 1.334 . S
N672 C668 1.331 . S
N672 C669 1.329 . S
H673 C667 0.930 . S
C674 O654 1.257 . S
C674 O675 1.244 . S
O675 C674 1.244 . S
O676 C652 1.257 . S
O676 Zn655 2.019 . S
H677 C670 0.930 . S
H678 C657 0.930 . S
H679 C669 0.930 . S
Zn680 N684 2.020 . S
Zn680 O688 2.019 . S
Zn680 N690 2.119 . S
Zn680 O698 1.975 . S
C681 N682 1.334 . S
C681 N685 1.336 . S
N682 C681 1.334 . S
N682 C683 1.334 . S
C683 N682 1.334 . S
C683 N684 1.336 . S
N684 Zn680 2.020 . S
N684 C683 1.336 . S
N684 N685 1.354 . S
N685 C681 1.336 . S
N685 N684 1.354 . S
N685 Zn689 2.020 . S
C686 O687 1.244 . S
C686 O710 1.257 . S
O687 C686 1.244 . S
O688 Zn680 2.019 . S
O688 C708 1.257 . S
Zn689 N685 2.020 . S
Zn689 O696 1.975 . S
Zn689 N705 2.119 . S
Zn689 O710 2.019 . S
N690 Zn680 2.119 . S
N690 C692 1.334 . S
N690 C693 1.328 . S
C691 C692 1.391 . S
C691 N694 1.329 . S
C691 H712 0.930 . S
C692 N690 1.334 . S
C692 C691 1.391 . S
C692 H699 0.930 . S
C693 N690 1.328 . S
C693 C695 1.392 . S
C693 H700 0.930 . S
N694 C691 1.329 . S
N694 C695 1.331 . S
C695 C693 1.392 . S
C695 N694 1.331 . S
O696 Zn689 1.975 . S
O696 C697 1.252 . S
C697 O696 1.252 . S
C697 O698 1.252 . S
O698 Zn680 1.975 . S
O698 C697 1.252 . S
H699 C692 0.930 . S
H700 C693 0.930 . S
C701 C702 1.392 . S
C701 N705 1.328 . S
C701 H707 0.930 . S
C702 C701 1.392 . S
C702 N706 1.331 . S
C703 C704 1.391 . S
C703 N706 1.329 . S
C703 H713 0.930 . S
C704 C703 1.391 . S
C704 N705 1.334 . S
C704 H711 0.930 . S
N705 Zn689 2.119 . S
N705 C701 1.328 . S
N705 C704 1.334 . S
N706 C702 1.331 . S
N706 C703 1.329 . S
H707 C701 0.930 . S
C708 O688 1.257 . S
C708 O709 1.244 . S
O709 C708 1.244 . S
O710 C686 1.257 . S
O710 Zn689 2.019 . S
H711 C704 0.930 . S
H712 C691 0.930 . S
H713 C703 0.930 . S
Zn714 N718 2.020 . S
Zn714 O722 2.019 . S
Zn714 N724 2.119 . S
Zn714 O732 1.975 . S
C715 N716 1.334 . S
C715 N719 1.336 1_455 S
N716 C715 1.334 . S
N716 C717 1.334 . S
C717 N716 1.334 . S
C717 N718 1.336 1_455 S
N718 Zn714 2.020 . S
N718 C717 1.336 1_655 S
N718 N719 1.354 . S
N719 C715 1.336 1_655 S
N719 N718 1.354 . S
N719 Zn723 2.020 . S
C720 O721 1.244 . S
C720 O744 1.257 . S
O721 C720 1.244 . S
O722 Zn714 2.019 . S
O722 C742 1.257 . S
Zn723 N719 2.020 . S
Zn723 O730 1.975 . S
Zn723 N739 2.119 . S
Zn723 O744 2.019 . S
N724 Zn714 2.119 . S
N724 C726 1.334 . S
N724 C727 1.328 . S
C725 C726 1.391 . S
C725 N728 1.329 . S
C725 H746 0.930 . S
C726 N724 1.334 . S
C726 C725 1.391 . S
C726 H733 0.930 . S
C727 N724 1.328 . S
C727 C729 1.392 . S
C727 H734 0.930 . S
N728 C725 1.329 . S
N728 C729 1.331 . S
C729 C727 1.392 . S
C729 N728 1.331 . S
O730 Zn723 1.975 . S
O730 C731 1.252 . S
C731 O730 1.252 . S
C731 O732 1.252 . S
O732 Zn714 1.975 . S
O732 C731 1.252 . S
H733 C726 0.930 . S
H734 C727 0.930 . S
C735 C736 1.392 . S
C735 N739 1.328 . S
C735 H741 0.930 . S
C736 C735 1.392 . S
C736 N740 1.331 . S
C737 C738 1.391 . S
C737 N740 1.329 . S
C737 H747 0.930 . S
C738 C737 1.391 . S
C738 N739 1.334 . S
C738 H745 0.930 . S
N739 Zn723 2.119 . S
N739 C735 1.328 . S
N739 C738 1.334 . S
N740 C736 1.331 . S
N740 C737 1.329 . S
H741 C735 0.930 . S
C742 O722 1.257 . S
C742 O743 1.244 . S
O743 C742 1.244 . S
O744 C720 1.257 . S
O744 Zn723 2.019 . S
H745 C738 0.930 . S
H746 C725 0.930 . S
H747 C737 0.930 . S
Zn748 N752 2.020 . S
Zn748 O756 2.019 1_655 S
Zn748 N758 2.119 . S
Zn748 O766 1.975 . S
C749 N750 1.334 . S
C749 N753 1.336 . S
N750 C749 1.334 . S
N750 C751 1.334 . S
C751 N750 1.334 . S
C751 N752 1.336 . S
N752 Zn748 2.020 . S
N752 C751 1.336 . S
N752 N753 1.354 . S
N753 C749 1.336 . S
N753 N752 1.354 . S
N753 Zn757 2.020 . S
C754 O755 1.244 . S
C754 O778 1.257 . S
O755 C754 1.244 . S
O756 Zn748 2.019 1_455 S
O756 C776 1.257 . S
Zn757 N753 2.020 . S
Zn757 O764 1.975 . S
Zn757 N773 2.119 . S
Zn757 O778 2.019 . S
N758 Zn748 2.119 . S
N758 C760 1.334 . S
N758 C761 1.328 . S
C759 C760 1.391 . S
C759 N762 1.329 . S
C759 H780 0.930 . S
C760 N758 1.334 . S
C760 C759 1.391 . S
C760 H767 0.930 . S
C761 N758 1.328 . S
C761 C763 1.392 . S
C761 H768 0.938 . S
N762 C759 1.329 . S
N762 C763 1.331 . S
C763 C761 1.392 . S
C763 N762 1.331 . S
O764 Zn757 1.975 . S
O764 C765 1.252 . S
C765 O764 1.252 . S
C765 O766 1.252 . S
O766 Zn748 1.975 . S
O766 C765 1.252 . S
H767 C760 0.930 . S
H768 C761 0.938 . S
C769 C770 1.392 . S
C769 N773 1.328 . S
C769 H775 0.930 . S
C770 C769 1.392 . S
C770 N774 1.331 . S
C771 C772 1.391 . S
C771 N774 1.329 . S
C771 H781 0.930 . S
C772 C771 1.391 . S
C772 N773 1.334 . S
C772 H779 0.930 . S
N773 Zn757 2.119 . S
N773 C769 1.328 . S
N773 C772 1.334 . S
N774 C770 1.331 . S
N774 C771 1.329 . S
H775 C769 0.930 . S
C776 O756 1.257 . S
C776 O777 1.244 . S
O777 C776 1.244 . S
O778 C754 1.257 . S
O778 Zn757 2.019 . S
H779 C772 0.930 . S
H780 C759 0.930 . S
H781 C771 0.930 . S
Zn782 N786 2.020 . S
Zn782 O790 2.019 . S
Zn782 N792 2.119 . S
Zn782 O800 1.975 . S
C783 N784 1.334 . S
C783 N787 1.336 . S
N784 C783 1.334 . S
N784 C785 1.334 . S
C785 N784 1.334 . S
C785 N786 1.336 . S
N786 Zn782 2.020 . S
N786 C785 1.336 . S
N786 N787 1.354 . S
N787 C783 1.336 . S
N787 N786 1.354 . S
N787 Zn791 2.020 . S
C788 O789 1.244 . S
C788 O812 1.257 . S
O789 C788 1.244 . S
O790 Zn782 2.019 . S
O790 C810 1.257 . S
Zn791 N787 2.020 . S
Zn791 O798 1.975 . S
Zn791 N807 2.119 . S
Zn791 O812 2.019 . S
N792 Zn782 2.119 . S
N792 C794 1.334 . S
N792 C795 1.328 . S
C793 C794 1.391 . S
C793 N796 1.329 . S
C793 H814 0.930 . S
C794 N792 1.334 . S
C794 C793 1.391 . S
C794 H801 0.930 . S
C795 N792 1.328 . S
C795 C797 1.392 . S
C795 H802 0.930 . S
N796 C793 1.329 . S
N796 C797 1.331 . S
C797 C795 1.392 . S
C797 N796 1.331 . S
O798 Zn791 1.975 . S
O798 C799 1.252 . S
C799 O798 1.252 . S
C799 O800 1.252 . S
O800 Zn782 1.975 . S
O800 C799 1.252 . S
H801 C794 0.930 . S
H802 C795 0.930 . S
C803 C804 1.392 . S
C803 N807 1.328 . S
C803 H809 0.930 . S
C804 C803 1.392 . S
C804 N808 1.331 . S
C805 C806 1.391 . S
C805 N808 1.329 . S
C805 H815 0.930 . S
C806 C805 1.391 . S
C806 N807 1.334 . S
C806 H813 0.930 . S
N807 Zn791 2.119 . S
N807 C803 1.328 . S
N807 C806 1.334 . S
N808 C804 1.331 . S
N808 C805 1.329 . S
H809 C803 0.930 . S
C810 O790 1.257 . S
C810 O811 1.244 . S
O811 C810 1.244 . S
O812 C788 1.257 . S
O812 Zn791 2.019 . S
H813 C806 0.930 . S
H814 C793 0.930 . S
H815 C805 0.930 . S
Zn816 N820 2.020 . S
Zn816 O824 2.019 . S
Zn816 N826 2.119 . S
Zn816 O834 1.975 . S
C817 N818 1.334 . S
C817 N821 1.336 . S
N818 C817 1.334 . S
N818 C819 1.334 . S
C819 N818 1.334 . S
C819 N820 1.336 . S
N820 Zn816 2.020 . S
N820 C819 1.336 . S
N820 N821 1.354 . S
N821 C817 1.336 . S
N821 N820 1.354 . S
N821 Zn825 2.020 . S
C822 O823 1.244 . S
C822 O846 1.257 . S
O823 C822 1.244 . S
O824 Zn816 2.019 . S
O824 C844 1.257 . S
Zn825 N821 2.020 . S
Zn825 O832 1.975 . S
Zn825 N841 2.119 . S
Zn825 O846 2.019 . S
N826 Zn816 2.119 . S
N826 C828 1.334 . S
N826 C829 1.328 . S
C827 C828 1.391 . S
C827 N830 1.329 . S
C827 H848 0.930 . S
C828 N826 1.334 . S
C828 C827 1.391 . S
C828 H835 0.930 . S
C829 N826 1.328 . S
C829 C831 1.392 . S
C829 H836 0.930 . S
N830 C827 1.329 . S
N830 C831 1.331 . S
C831 C829 1.392 . S
C831 N830 1.331 . S
O832 Zn825 1.975 . S
O832 C833 1.252 . S
C833 O832 1.252 . S
C833 O834 1.252 . S
O834 Zn816 1.975 . S
O834 C833 1.252 . S
H835 C828 0.930 . S
H836 C829 0.930 . S
C837 C838 1.392 . S
C837 N841 1.328 . S
C837 H843 0.930 . S
C838 C837 1.392 . S
C838 N842 1.331 . S
C839 C840 1.391 . S
C839 N842 1.329 . S
C839 H849 0.930 . S
C840 C839 1.391 . S
C840 N841 1.334 . S
C840 H847 0.930 . S
N841 Zn825 2.119 . S
N841 C837 1.328 . S
N841 C840 1.334 . S
N842 C838 1.331 . S
N842 C839 1.329 . S
H843 C837 0.930 . S
C844 O824 1.257 . S
C844 O845 1.244 . S
O845 C844 1.244 . S
O846 C822 1.257 . S
O846 Zn825 2.019 . S
H847 C840 0.930 . S
H848 C827 0.930 . S
H849 C839 0.930 . S
Zn850 N854 2.020 . S
Zn850 O858 2.019 . S
Zn850 N860 2.119 . S
Zn850 O868 1.975 . S
C851 N852 1.334 . S
C851 N855 1.336 . S
N852 C851 1.334 . S
N852 C853 1.334 . S
C853 N852 1.334 . S
C853 N854 1.336 . S
N854 Zn850 2.020 . S
N854 C853 1.336 . S
N854 N855 1.354 . S
N855 C851 1.336 . S
N855 N854 1.354 . S
N855 Zn859 2.020 . S
C856 O857 1.244 . S
C856 O880 1.257 . S
O857 C856 1.244 . S
O858 Zn850 2.019 . S
O858 C878 1.257 . S
Zn859 N855 2.020 . S
Zn859 O866 1.975 . S
Zn859 N875 2.119 . S
Zn859 O880 2.019 . S
N860 Zn850 2.119 . S
N860 C862 1.334 . S
N860 C863 1.328 . S
C861 C862 1.391 . S
C861 N864 1.329 . S
C861 H882 0.930 . S
C862 N860 1.334 . S
C862 C861 1.391 . S
C862 H869 0.930 . S
C863 N860 1.328 . S
C863 C865 1.392 . S
C863 H870 0.930 . S
N864 C861 1.329 . S
N864 C865 1.331 . S
C865 C863 1.392 . S
C865 N864 1.331 . S
O866 Zn859 1.975 . S
O866 C867 1.252 . S
C867 O866 1.252 . S
C867 O868 1.252 . S
O868 Zn850 1.975 . S
O868 C867 1.252 . S
H869 C862 0.930 . S
H870 C863 0.930 . S
C871 C872 1.392 . S
C871 N875 1.328 . S
C871 H877 0.930 . S
C872 C871 1.392 . S
C872 N876 1.331 . S
C873 C874 1.391 . S
C873 N876 1.329 . S
C873 H883 0.930 . S
C874 C873 1.391 . S
C874 N875 1.334 . S
C874 H881 0.930 . S
N875 Zn859 2.119 . S
N875 C871 1.328 . S
N875 C874 1.334 . S
N876 C872 1.331 . S
N876 C873 1.329 . S
H877 C871 0.930 . S
C878 O858 1.257 . S
C878 O879 1.244 . S
O879 C878 1.244 . S
O880 C856 1.257 . S
O880 Zn859 2.019 . S
H881 C874 0.930 . S
H882 C861 0.930 . S
H883 C873 0.930 . S
Zn884 N888 2.020 . S
Zn884 O892 2.019 1_455 S
Zn884 N894 2.119 . S
Zn884 O902 1.975 . S
C885 N886 1.334 . S
C885 N889 1.336 . S
N886 C885 1.334 . S
N886 C887 1.334 . S
C887 N886 1.334 . S
C887 N888 1.336 . S
N888 Zn884 2.020 . S
N888 C887 1.336 . S
N888 N889 1.354 . S
N889 C885 1.336 . S
N889 N888 1.354 . S
N889 Zn893 2.020 . S
C890 O891 1.244 . S
C890 O914 1.257 . S
O891 C890 1.244 . S
O892 Zn884 2.019 1_655 S
O892 C912 1.257 . S
Zn893 N889 2.020 . S
Zn893 O900 1.975 . S
Zn893 N909 2.119 . S
Zn893 O914 2.019 . S
N894 Zn884 2.119 . S
N894 C896 1.334 . S
N894 C897 1.328 . S
C895 C896 1.391 . S
C895 N898 1.329 . S
C895 H916 0.930 . S
C896 N894 1.334 . S
C896 C895 1.391 . S
C896 H903 0.930 . S
C897 N894 1.328 . S
C897 C899 1.392 . S
C897 H904 0.938 . S
N898 C895 1.329 . S
N898 C899 1.331 . S
C899 C897 1.392 . S
C899 N898 1.331 . S
O900 Zn893 1.975 . S
O900 C901 1.252 . S
C901 O900 1.252 . S
C901 O902 1.252 . S
O902 Zn884 1.975 . S
O902 C901 1.252 . S
H903 C896 0.930 . S
H904 C897 0.938 . S
C905 C906 1.392 . S
C905 N909 1.328 . S
C905 H911 0.930 . S
C906 C905 1.392 . S
C906 N910 1.331 . S
C907 C908 1.391 . S
C907 N910 1.329 . S
C907 H917 0.930 . S
C908 C907 1.391 . S
C908 N909 1.334 . S
C908 H915 0.930 . S
N909 Zn893 2.119 . S
N909 C905 1.328 . S
N909 C908 1.334 . S
N910 C906 1.331 . S
N910 C907 1.329 . S
H911 C905 0.930 . S
C912 O892 1.257 . S
C912 O913 1.244 . S
O913 C912 1.244 . S
O914 C890 1.257 . S
O914 Zn893 2.019 . S
H915 C908 0.930 . S
H916 C895 0.930 . S
H917 C907 0.930 . S
Zn918 N922 2.020 . S
Zn918 O926 2.019 . S
Zn918 N928 2.119 . S
Zn918 O936 1.975 . S
C919 N920 1.334 . S
C919 N923 1.336 1_655 S
N920 C919 1.334 . S
N920 C921 1.334 . S
C921 N920 1.334 . S
C921 N922 1.336 1_655 S
N922 Zn918 2.020 . S
N922 C921 1.336 1_455 S
N922 N923 1.354 . S
N923 C919 1.336 1_455 S
N923 N922 1.354 . S
N923 Zn927 2.020 . S
C924 O925 1.244 . S
C924 O948 1.257 . S
O925 C924 1.244 . S
O926 Zn918 2.019 . S
O926 C946 1.257 . S
Zn927 N923 2.020 . S
Zn927 O934 1.975 . S
Zn927 N943 2.119 . S
Zn927 O948 2.019 . S
N928 Zn918 2.119 . S
N928 C930 1.334 . S
N928 C931 1.328 . S
C929 C930 1.391 . S
C929 N932 1.329 . S
C929 H950 0.930 . S
C930 N928 1.334 . S
C930 C929 1.391 . S
C930 H937 0.930 . S
C931 N928 1.328 . S
C931 C933 1.392 . S
C931 H938 0.930 . S
N932 C929 1.329 . S
N932 C933 1.331 . S
C933 C931 1.392 . S
C933 N932 1.331 . S
O934 Zn927 1.975 . S
O934 C935 1.252 . S
C935 O934 1.252 . S
C935 O936 1.252 . S
O936 Zn918 1.975 . S
O936 C935 1.252 . S
H937 C930 0.930 . S
H938 C931 0.930 . S
C939 C940 1.392 . S
C939 N943 1.328 . S
C939 H945 0.930 . S
C940 C939 1.392 . S
C940 N944 1.331 . S
C941 C942 1.391 . S
C941 N944 1.329 . S
C941 H951 0.930 . S
C942 C941 1.391 . S
C942 N943 1.334 . S
C942 H949 0.930 . S
N943 Zn927 2.119 . S
N943 C939 1.328 . S
N943 C942 1.334 . S
N944 C940 1.331 . S
N944 C941 1.329 . S
H945 C939 0.930 . S
C946 O926 1.257 . S
C946 O947 1.244 . S
O947 C946 1.244 . S
O948 C924 1.257 . S
O948 Zn927 2.019 . S
H949 C942 0.930 . S
H950 C929 0.930 . S
H951 C941 0.930 . S
Zn952 N956 2.020 . S
Zn952 O960 2.019 . S
Zn952 N962 2.119 . S
Zn952 O970 1.975 . S
C953 N954 1.334 . S
C953 N957 1.336 . S
N954 C953 1.334 . S
N954 C955 1.334 . S
C955 N954 1.334 . S
C955 N956 1.336 . S
N956 Zn952 2.020 . S
N956 C955 1.336 . S
N956 N957 1.354 . S
N957 C953 1.336 . S
N957 N956 1.354 . S
N957 Zn961 2.020 . S
C958 O959 1.244 . S
C958 O982 1.257 . S
O959 C958 1.244 . S
O960 Zn952 2.019 . S
O960 C980 1.257 . S
Zn961 N957 2.020 . S
Zn961 O968 1.975 . S
Zn961 N977 2.119 . S
Zn961 O982 2.019 . S
N962 Zn952 2.119 . S
N962 C964 1.334 . S
N962 C965 1.328 . S
C963 C964 1.391 . S
C963 N966 1.329 . S
C963 H984 0.930 . S
C964 N962 1.334 . S
C964 C963 1.391 . S
C964 H971 0.930 . S
C965 N962 1.328 . S
C965 C967 1.392 . S
C965 H972 0.930 . S
N966 C963 1.329 . S
N966 C967 1.331 . S
C967 C965 1.392 . S
C967 N966 1.331 . S
O968 Zn961 1.975 . S
O968 C969 1.252 . S
C969 O968 1.252 . S
C969 O970 1.252 . S
O970 Zn952 1.975 . S
O970 C969 1.252 . S
H971 C964 0.930 . S
H972 C965 0.930 . S
C973 C974 1.392 . S
C973 N977 1.328 . S
C973 H979 0.930 . S
C974 C973 1.392 . S
C974 N978 1.331 . S
C975 C976 1.391 . S
C975 N978 1.329 . S
C975 H985 0.930 . S
C976 C975 1.391 . S
C976 N977 1.334 . S
C976 H983 0.930 . S
N977 Zn961 2.119 . S
N977 C973 1.328 . S
N977 C976 1.334 . S
N978 C974 1.331 . S
N978 C975 1.329 . S
H979 C973 0.930 . S
C980 O960 1.257 . S
C980 O981 1.244 . S
O981 C980 1.244 . S
O982 C958 1.257 . S
O982 Zn961 2.019 . S
H983 C976 0.930 . S
H984 C963 0.930 . S
H985 C975 0.930 . S
Zn986 N990 2.020 . S
Zn986 O994 2.019 . S
Zn986 N996 2.119 . S
Zn986 O1004 1.975 . S
C987 N988 1.334 . S
C987 N991 1.336 1_655 S
N988 C987 1.334 . S
N988 C989 1.334 . S
C989 N988 1.334 . S
C989 N990 1.336 1_655 S
N990 Zn986 2.020 . S
N990 C989 1.336 1_455 S
N990 N991 1.354 . S
N991 C987 1.336 1_455 S
N991 N990 1.354 . S
N991 Zn995 2.020 . S
C992 O993 1.244 . S
C992 O1016 1.257 . S
O993 C992 1.244 . S
O994 Zn986 2.019 . S
O994 C1014 1.257 . S
Zn995 N991 2.020 . S
Zn995 O1002 1.975 . S
Zn995 N1011 2.119 . S
Zn995 O1016 2.019 . S
N996 Zn986 2.119 . S
N996 C998 1.334 . S
N996 C999 1.328 . S
C997 C998 1.391 . S
C997 N1000 1.329 . S
C997 H1018 0.930 . S
C998 N996 1.334 . S
C998 C997 1.391 . S
C998 H1005 0.930 . S
C999 N996 1.328 . S
C999 C1001 1.392 . S
C999 H1006 0.930 . S
N1000 C997 1.329 . S
N1000 C1001 1.331 . S
C1001 C999 1.392 . S
C1001 N1000 1.331 . S
O1002 Zn995 1.975 . S
O1002 C1003 1.252 . S
C1003 O1002 1.252 . S
C1003 O1004 1.252 . S
O1004 Zn986 1.975 . S
O1004 C1003 1.252 . S
H1005 C998 0.930 . S
H1006 C999 0.930 . S
C1007 C1008 1.392 . S
C1007 N1011 1.328 . S
C1007 H1013 0.930 . S
C1008 C1007 1.392 . S
C1008 N1012 1.331 . S
C1009 C1010 1.391 . S
C1009 N1012 1.329 . S
C1009 H1019 0.930 . S
C1010 C1009 1.391 . S
C1010 N1011 1.334 . S
C1010 H1017 0.930 . S
N1011 Zn995 2.119 . S
N1011 C1007 1.328 . S
N1011 C1010 1.334 . S
N1012 C1008 1.331 . S
N1012 C1009 1.329 . S
H1013 C1007 0.930 . S
C1014 O994 1.257 . S
C1014 O1015 1.244 . S
O1015 C1014 1.244 . S
O1016 C992 1.257 . S
O1016 Zn995 2.019 . S
H1017 C1010 0.930 . S
H1018 C997 0.930 . S
H1019 C1009 0.930 . S
Zn1020 N1024 2.020 . S
Zn1020 O1028 2.019 . S
Zn1020 N1030 2.119 . S
Zn1020 O1038 1.975 . S
C1021 N1022 1.334 . S
C1021 N1025 1.336 . S
N1022 C1021 1.334 . S
N1022 C1023 1.334 . S
C1023 N1022 1.334 . S
C1023 N1024 1.336 . S
N1024 Zn1020 2.020 . S
N1024 C1023 1.336 . S
N1024 N1025 1.354 . S
N1025 C1021 1.336 . S
N1025 N1024 1.354 . S
N1025 Zn1029 2.020 . S
C1026 O1027 1.244 . S
C1026 O1050 1.257 . S
O1027 C1026 1.244 . S
O1028 Zn1020 2.019 . S
O1028 C1048 1.257 . S
Zn1029 N1025 2.020 . S
Zn1029 O1036 1.975 . S
Zn1029 N1045 2.119 . S
Zn1029 O1050 2.019 1_455 S
N1030 Zn1020 2.119 . S
N1030 C1032 1.334 . S
N1030 C1033 1.328 . S
C1031 C1032 1.391 . S
C1031 N1034 1.329 . S
C1031 H1052 0.930 . S
C1032 N1030 1.334 . S
C1032 C1031 1.391 . S
C1032 H1039 0.930 . S
C1033 N1030 1.328 . S
C1033 C1035 1.392 . S
C1033 H1040 0.930 . S
N1034 C1031 1.329 . S
N1034 C1035 1.331 . S
C1035 C1033 1.392 . S
C1035 N1034 1.331 . S
O1036 Zn1029 1.975 . S
O1036 C1037 1.252 . S
C1037 O1036 1.252 . S
C1037 O1038 1.252 . S
O1038 Zn1020 1.975 . S
O1038 C1037 1.252 . S
H1039 C1032 0.930 . S
H1040 C1033 0.930 . S
C1041 C1042 1.392 . S
C1041 N1045 1.328 . S
C1041 H1047 0.938 . S
C1042 C1041 1.392 . S
C1042 N1046 1.331 . S
C1043 C1044 1.391 . S
C1043 N1046 1.329 . S
C1043 H1053 0.930 . S
C1044 C1043 1.391 . S
C1044 N1045 1.334 . S
C1044 H1051 0.930 . S
N1045 Zn1029 2.119 . S
N1045 C1041 1.328 . S
N1045 C1044 1.334 . S
N1046 C1042 1.331 . S
N1046 C1043 1.329 . S
H1047 C1041 0.938 . S
C1048 O1028 1.257 . S
C1048 O1049 1.244 . S
O1049 C1048 1.244 . S
O1050 C1026 1.257 . S
O1050 Zn1029 2.019 1_655 S
H1051 C1044 0.930 . S
H1052 C1031 0.930 . S
H1053 C1043 0.930 . S
Zn1054 N1058 2.020 . S
Zn1054 O1062 2.019 . S
Zn1054 N1064 2.119 . S
Zn1054 O1072 1.975 . S
C1055 N1056 1.334 . S
C1055 N1059 1.336 . S
N1056 C1055 1.334 . S
N1056 C1057 1.334 . S
C1057 N1056 1.334 . S
C1057 N1058 1.336 . S
N1058 Zn1054 2.020 . S
N1058 C1057 1.336 . S
N1058 N1059 1.354 . S
N1059 C1055 1.336 . S
N1059 N1058 1.354 . S
N1059 Zn1063 2.020 . S
C1060 O1061 1.244 . S
C1060 O1084 1.257 . S
O1061 C1060 1.244 . S
O1062 Zn1054 2.019 . S
O1062 C1082 1.257 . S
Zn1063 N1059 2.020 . S
Zn1063 O1070 1.975 . S
Zn1063 N1079 2.119 . S
Zn1063 O1084 2.019 . S
N1064 Zn1054 2.119 . S
N1064 C1066 1.334 . S
N1064 C1067 1.328 . S
C1065 C1066 1.391 . S
C1065 N1068 1.329 . S
C1065 H1086 0.930 . S
C1066 N1064 1.334 . S
C1066 C1065 1.391 . S
C1066 H1073 0.930 . S
C1067 N1064 1.328 . S
C1067 C1069 1.392 . S
C1067 H1074 0.930 . S
N1068 C1065 1.329 . S
N1068 C1069 1.331 . S
C1069 C1067 1.392 . S
C1069 N1068 1.331 . S
O1070 Zn1063 1.975 . S
O1070 C1071 1.252 . S
C1071 O1070 1.252 . S
C1071 O1072 1.252 . S
O1072 Zn1054 1.975 . S
O1072 C1071 1.252 . S
H1073 C1066 0.930 . S
H1074 C1067 0.930 . S
C1075 C1076 1.392 . S
C1075 N1079 1.328 . S
C1075 H1081 0.930 . S
C1076 C1075 1.392 . S
C1076 N1080 1.331 . S
C1077 C1078 1.391 . S
C1077 N1080 1.329 . S
C1077 H1087 0.930 . S
C1078 C1077 1.391 . S
C1078 N1079 1.334 . S
C1078 H1085 0.930 . S
N1079 Zn1063 2.119 . S
N1079 C1075 1.328 . S
N1079 C1078 1.334 . S
N1080 C1076 1.331 . S
N1080 C1077 1.329 . S
H1081 C1075 0.930 . S
C1082 O1062 1.257 . S
C1082 O1083 1.244 . S
O1083 C1082 1.244 . S
O1084 C1060 1.257 . S
O1084 Zn1063 2.019 . S
H1085 C1078 0.930 . S
H1086 C1065 0.930 . S
H1087 C1077 0.930 . S
C482 C28 2.818 1_565 S
C40 C1060 2.818 . S
C74 C436 2.818 1_565 S
C130 C1014 2.818 . S
C164 C368 2.818 1_565 S
C176 C924 2.818 . S
C210 C300 2.818 1_545 S
C856 C266 2.818 . S
C278 C232 2.818 1_565 S
C334 C788 2.818 . S
C346 C142 2.818 1_545 S
C402 C742 2.818 . S
C96 C414 2.818 1_565 S
C448 C652 2.818 . S
C6 C504 2.818 1_545 S
C516 C584 2.818 . S
C572 C1026 2.818 . S
C538 C606 2.818 . S
C618 C958 2.818 . S
C674 C470 2.818 . S
C686 C912 2.818 . S
C720 C380 2.818 . S
C844 C754 2.818 . S
C312 C810 2.818 . S
C776 C822 2.818 . S
C878 C244 2.818 . S
C708 C890 2.818 . S
C946 C198 2.818 . S
C980 C640 2.818 . S
C992 C108 2.818 . S
C550 C1048 2.818 . S
C1082 C62 2.818 . S
C226 C15 1.774 1_556 S
C56 C253 1.775 1_545 S
C151 C90 1.775 . S
C117 C192 1.775 1_565 S
C491 C294 1.774 1_554 S
C321 C532 1.775 1_565 S
C362 C430 1.775 . S
C464 C389 1.775 1_565 S
C559 C770 1.775 . S
C797 C593 1.774 . S
C634 C702 1.774 1_554 S
C661 C736 1.775 . S
C838 C1035 1.775 . S
C865 C1069 1.774 . S
C906 C967 1.774 1_556 S
C1008 C933 1.775 . S
C17 C955 3.166 . S
C443 C51 3.166 1_545 S
C85 C1023 3.166 . S
C119 C511 3.166 1_545 S
C153 C817 3.166 . S
C187 C309 3.166 1_565 S
C221 C885 3.166 . S
C255 C377 3.166 1_545 S
C681 C289 3.166 . S
C323 C171 3.166 1_545 S
C357 C749 3.166 . S
C391 C241 3.166 1_565 S
C425 C547 3.166 . S
C459 C35 3.166 1_545 S
C493 C613 3.166 . S
C527 C105 3.166 1_565 S
C561 C409 3.166 . S
C987 C595 3.166 . S
C629 C479 3.166 . S
C663 C1057 3.166 . S
C273 C697 3.166 . S
C853 C731 3.166 . S
C765 C341 3.166 . S
C921 C799 3.166 . S
C833 C139 3.166 . S
C867 C715 3.166 . S
C205 C901 3.166 . S
C935 C785 3.166 . S
C969 C3 3.166 . S
C581 C1003 3.166 . S
C1037 C69 3.166 . S
C1071 C649 3.166 . S
C22 C260 3.073 . S
C158 C49 3.074 . S
C83 C185 3.074 . S
C219 C124 3.074 . S
C525 C287 3.073 . S
C328 C423 3.074 . S
C355 C457 3.074 . S
C396 C498 3.073 . S
C804 C566 3.074 . S
C600 C695 3.073 . S
C729 C627 3.073 . S
C763 C668 3.074 . S
C1076 C831 3.074 . S
C872 C974 3.073 . S
C1001 C899 3.073 . S
C1042 C940 3.073 . S
C1 C615 2.690 1_455 S
C647 C37 2.691 1_455 S
C71 C545 2.690 . S
C103 C579 2.691 . S
C137 C751 2.690 1_455 S
C783 C173 2.691 . S
C207 C683 2.690 . S
C717 C239 2.691 1_455 S
C887 C275 2.690 1_455 S
C307 C919 2.691 1_455 S
C819 C343 2.690 . S
C375 C851 2.691 . S
C411 C1021 2.690 1_655 S
C445 C1055 2.691 . S
C953 C477 2.690 . S
C989 C513 2.691 1_655 S
