# Generated by pormake.
# Topology wht, (6)-cn, num edge types: 1
# Building blocks:
#     Node 0, Type 0, BuildingBlock: OJICUG_clean_sbu_0, # of connection points: 6
#     Node 1, Type 0, BuildingBlock: OJICUG_clean_sbu_0, # of connection points: 6
#     Node 2, Type 0, BuildingBlock: OJICUG_clean_sbu_0, # of connection points: 6
#     Node 3, Type 0, BuildingBlock: OJICUG_clean_sbu_0, # of connection points: 6
#     Node 4, Type 0, BuildingBlock: OJICUG_clean_sbu_0, # of connection points: 6
#     Node 5, Type 0, BuildingBlock: OJICUG_clean_sbu_0, # of connection points: 6
#     Node 6, Type 0, BuildingBlock: OJICUG_clean_sbu_0, # of connection points: 6
#     Node 7, Type 0, BuildingBlock: OJICUG_clean_sbu_0, # of connection points: 6
#     Edge 8, Type (0, 0), BuildingBlock: KIFKEQ_clean_linker_1, # of connection points: 2
#     Edge 9, Type (0, 0), BuildingBlock: KIFKEQ_clean_linker_1, # of connection points: 2
#     Edge 10, Type (0, 0), BuildingBlock: KIFKEQ_clean_linker_1, # of connection points: 2
#     Edge 11, Type (0, 0), BuildingBlock: KIFKEQ_clean_linker_1, # of connection points: 2
#     Edge 12, Type (0, 0), BuildingBlock: KIFKEQ_clean_linker_1, # of connection points: 2
#     Edge 13, Type (0, 0), BuildingBlock: KIFKEQ_clean_linker_1, # of connection points: 2
#     Edge 14, Type (0, 0), BuildingBlock: KIFKEQ_clean_linker_1, # of connection points: 2
#     Edge 15, Type (0, 0), BuildingBlock: KIFKEQ_clean_linker_1, # of connection points: 2
#     Edge 16, Type (0, 0), BuildingBlock: KIFKEQ_clean_linker_1, # of connection points: 2
#     Edge 17, Type (0, 0), BuildingBlock: KIFKEQ_clean_linker_1, # of connection points: 2
#     Edge 18, Type (0, 0), BuildingBlock: KIFKEQ_clean_linker_1, # of connection points: 2
#     Edge 19, Type (0, 0), BuildingBlock: KIFKEQ_clean_linker_1, # of connection points: 2
#     Edge 20, Type (0, 0), BuildingBlock: KIFKEQ_clean_linker_1, # of connection points: 2
#     Edge 21, Type (0, 0), BuildingBlock: KIFKEQ_clean_linker_1, # of connection points: 2
#     Edge 22, Type (0, 0), BuildingBlock: KIFKEQ_clean_linker_1, # of connection points: 2
#     Edge 23, Type (0, 0), BuildingBlock: KIFKEQ_clean_linker_1, # of connection points: 2
#     Edge 24, Type (0, 0), BuildingBlock: KIFKEQ_clean_linker_1, # of connection points: 2
#     Edge 25, Type (0, 0), BuildingBlock: KIFKEQ_clean_linker_1, # of connection points: 2
#     Edge 26, Type (0, 0), BuildingBlock: KIFKEQ_clean_linker_1, # of connection points: 2
#     Edge 27, Type (0, 0), BuildingBlock: KIFKEQ_clean_linker_1, # of connection points: 2
#     Edge 28, Type (0, 0), BuildingBlock: KIFKEQ_clean_linker_1, # of connection points: 2
#     Edge 29, Type (0, 0), BuildingBlock: KIFKEQ_clean_linker_1, # of connection points: 2
#     Edge 30, Type (0, 0), BuildingBlock: KIFKEQ_clean_linker_1, # of connection points: 2
#     Edge 31, Type (0, 0), BuildingBlock: KIFKEQ_clean_linker_1, # of connection points: 2
# Relax obj value: 0.284
# Max RMSD: 0.260
# Mean RMSD: 0.260
data_MOF--net-wht--node1-OJICUG_clean_sbu_0--edge1-KIFKEQ_clean_linker_1
_symmetry_space_group_name_H-M    P1
_symmetry_Int_Tables_number       1
_symmetry_cell_setting            triclinic
loop_
_symmetry_equiv_pos_as_xyz
'x, y, z'
_cell_length_a     27.157356
_cell_length_b     27.194953
_cell_length_c     50.781748
_cell_angle_alpha  90.021359
_cell_angle_beta   89.779486
_cell_angle_gamma 89.841293
loop_
_atom_site_label
_atom_site_type_symbol
_atom_site_fract_x
_atom_site_fract_y
_atom_site_fract_z
_atom_type_partial_charge
Sc0 Sc 0.08103 0.17749 0.1262 0.0
Sc1 Sc 0.17526 0.26091 0.14038 0.0
Sc2 Sc 0.05193 0.28939 0.15712 0.0
O3 O 0.10282 0.24245 0.14155 0.0
C4 C 0.99291 0.24854 0.10835 0.0
C5 C 0.15642 0.21591 0.08339 0.0
C6 C 0.12363 0.36196 0.12589 0.0
C7 C 0.18635 0.14785 0.15067 0.0
C8 C 0.01586 0.18294 0.17756 0.0
C9 C 0.14091 0.29941 0.19729 0.0
O10 O 0.01518 0.20739 0.1086 0.0
O11 O 0.18413 0.23776 0.09977 0.0
O12 O 0.08342 0.35427 0.13819 0.0
O13 O 0.14501 0.13774 0.14028 0.0
O14 O 0.01389 0.22987 0.17738 0.0
O15 O 0.17403 0.28758 0.18058 0.0
O16 O 0.04209 0.15829 0.16144 0.0
O17 O 0.2007 0.19153 0.1545 0.0
O18 O 0.09523 0.30014 0.19191 0.0
O19 O 0.11701 0.19397 0.0899 0.0
O20 O 0.00392 0.28346 0.12381 0.0
O21 O 0.15862 0.33126 0.12511 0.0
Sc22 Sc 0.19521 0.54523 0.41082 0.0
Sc23 Sc 0.24109 0.66314 0.39731 0.0
Sc24 Sc 0.30733 0.55997 0.37829 0.0
O25 O 0.24782 0.58941 0.39599 0.0
C26 C 0.2987 0.49673 0.42907 0.0
C27 C 0.19501 0.63112 0.45293 0.0
C28 C 0.35243 0.65983 0.40243 0.0
C29 C 0.13375 0.62934 0.38158 0.0
C30 C 0.22647 0.48174 0.36197 0.0
C31 C 0.27881 0.64162 0.33891 0.0
O32 O 0.25153 0.49861 0.42888 0.0
O33 O 0.21079 0.66324 0.43676 0.0
O34 O 0.35447 0.62147 0.3881 0.0
O35 O 0.13544 0.58832 0.39376 0.0
O36 O 0.27103 0.49501 0.36384 0.0
O37 O 0.26958 0.67172 0.35755 0.0
O38 O 0.19255 0.50082 0.37584 0.0
O39 O 0.16972 0.65894 0.38048 0.0
O40 O 0.2878 0.59628 0.34263 0.0
O41 O 0.19078 0.58595 0.44695 0.0
O42 O 0.32588 0.52188 0.41363 0.0
O43 O 0.31285 0.67313 0.41367 0.0
Sc44 Sc 0.92127 0.81578 0.63371 0.0
Sc45 Sc 0.81579 0.74654 0.64848 0.0
Sc46 Sc 0.93383 0.69523 0.65845 0.0
O47 O 0.89036 0.75264 0.64706 0.0
C48 C -0.0052 0.73573 0.60936 0.0
C49 C 0.83259 0.80264 0.59391 0.0
C50 C 0.84892 0.64237 0.62596 0.0
C51 C 0.82755 0.85771 0.66537 0.0
C52 C 0.99003 0.78821 0.68212 0.0
C53 C 0.84695 0.69054 0.70101 0.0
O54 O 0.9752 0.77819 0.6097 0.0
O55 O 0.80639 0.77681 0.60941 0.0
O56 O 0.89254 0.64259 0.6351 0.0
O57 O 0.87004 0.8624 0.65496 0.0
O58 O 0.97965 0.74252 0.68246 0.0
O59 O 0.81597 0.71484 0.68749 0.0
O60 O 0.97124 0.81855 0.66599 0.0
O61 O 0.80484 0.81706 0.66596 0.0
O62 O 0.89003 0.68065 0.69275 0.0
O63 O 0.87497 0.8184 0.59997 0.0
O64 O 0.98341 0.70234 0.6257 0.0
O65 O 0.81808 0.67648 0.63021 0.0
Sc66 Sc 0.67605 0.41084 0.87858 0.0
Sc67 Sc 0.75045 0.3102 0.89387 0.0
Sc68 Sc 0.79155 0.43084 0.90741 0.0
O69 O 0.73937 0.38404 0.8936 0.0
C70 C 0.75169 0.49342 0.85945 0.0
C71 C 0.70387 0.32976 0.83706 0.0
C72 C 0.85346 0.35152 0.87438 0.0
C73 C 0.63853 0.31119 0.90658 0.0
C74 C 0.68917 0.47454 0.93007 0.0
C75 C 0.79965 0.34249 0.94841 0.0
O76 O 0.70943 0.47372 0.86004 0.0
O77 O 0.72156 0.30069 0.8543 0.0
O78 O 0.8507 0.39316 0.88595 0.0
O79 O 0.63206 0.351 0.89386 0.0
O80 O 0.73629 0.47288 0.92954 0.0
O81 O 0.78185 0.31032 0.93297 0.0
O82 O 0.66223 0.45147 0.91378 0.0
O83 O 0.68091 0.29399 0.91138 0.0
O84 O 0.80398 0.38743 0.94202 0.0
O85 O 0.6884 0.3727 0.84242 0.0
O86 O 0.78633 0.47992 0.87449 0.0
O87 O 0.82015 0.31916 0.87586 0.0
Sc88 Sc 0.54781 0.19334 0.57321 0.0
Sc89 Sc 0.66667 0.23818 0.58749 0.0
Sc90 Sc 0.5619 0.30572 0.60671 0.0
O91 O 0.59209 0.24586 0.58896 0.0
C92 C 0.49564 0.29432 0.5558 0.0
C93 C 0.63518 0.20018 0.53081 0.0
C94 C 0.65806 0.35312 0.58017 0.0
C95 C 0.63215 0.12899 0.5997 0.0
C96 C 0.48535 0.22238 0.62381 0.0
C97 C 0.64647 0.2746 0.64644 0.0
O98 O 0.50334 0.24823 0.55331 0.0
O99 O 0.66662 0.2191 0.54627 0.0
O100 O 0.61584 0.3563 0.59096 0.0
O101 O 0.58774 0.1336 0.59214 0.0
O102 O 0.50437 0.26477 0.62569 0.0
O103 O 0.67434 0.25544 0.62898 0.0
O104 O 0.49825 0.19174 0.60624 0.0
O105 O 0.66362 0.16307 0.59828 0.0
O106 O 0.6048 0.29364 0.64138 0.0
O107 O 0.59186 0.18855 0.538 0.0
O108 O 0.51542 0.32046 0.57364 0.0
O109 O 0.6798 0.31248 0.57655 0.0
Sc110 Sc 0.17664 0.05832 0.85487 0.0
Sc111 Sc 0.25407 0.15496 0.83602 0.0
Sc112 Sc 0.29208 0.03304 0.82586 0.0
O113 O 0.24071 0.08192 0.83877 0.0
C114 C 0.25337 0.98083 0.87809 0.0
C115 C 0.20898 0.14608 0.89312 0.0
C116 C 0.36083 0.11409 0.84973 0.0
C117 C 0.13801 0.154 0.82632 0.0
C118 C 0.19216 0.98297 0.80733 0.0
C119 C 0.29282 0.11689 0.78124 0.0
O120 O 0.21369 0.00559 0.87956 0.0
O121 O 0.24033 0.16549 0.87759 0.0
O122 O 0.35156 0.06872 0.84673 0.0
O123 O 0.13123 0.10939 0.83293 0.0
O124 O 0.23793 0.99146 0.80434 0.0
O125 O 0.26918 0.14896 0.79454 0.0
O126 O 0.16584 0.00391 0.82483 0.0
O127 O 0.17982 0.1743 0.82742 0.0
O128 O 0.30598 0.07552 0.7907 0.0
O129 O 0.18211 0.10984 0.88662 0.0
O130 O 0.28413 0.98575 0.85939 0.0
O131 O 0.33026 0.1478 0.84449 0.0
Sc132 Sc 0.45513 0.78828 0.07769 0.0
Sc133 Sc 0.33341 0.75789 0.09522 0.0
Sc134 Sc 0.42916 0.6771 0.11002 0.0
O135 O 0.40593 0.74093 0.09394 0.0
C136 C 0.49286 0.68143 0.05821 0.0
C137 C 0.36548 0.79858 0.03847 0.0
C138 C 0.32449 0.6458 0.08514 0.0
C139 C 0.38267 0.85927 0.10998 0.0
C140 C 0.51589 0.75009 0.1265 0.0
C141 C 0.35219 0.71239 0.15207 0.0
O142 O 0.49451 0.72843 0.05791 0.0
O143 O 0.33363 0.78728 0.05584 0.0
O144 O 0.3647 0.63653 0.09706 0.0
O145 O 0.42158 0.85288 0.09623 0.0
O146 O 0.49559 0.70804 0.12642 0.0
O147 O 0.32386 0.73123 0.13493 0.0
O148 O 0.50286 0.78442 0.11111 0.0
O149 O 0.34903 0.82736 0.11199 0.0
O150 O 0.39413 0.69438 0.14658 0.0
O151 O 0.41154 0.79783 0.04284 0.0
O152 O 0.4669 0.65731 0.07461 0.0
O153 O 0.31099 0.68908 0.07939 0.0
Sc154 Sc 0.6961 0.95013 0.32133 0.0
Sc155 Sc 0.72648 0.83518 0.34785 0.0
Sc156 Sc 0.80343 0.93552 0.35793 0.0
O157 O 0.74226 0.90674 0.34207 0.0
C158 C 0.80358 0.98823 0.30354 0.0
C159 C 0.6951 0.85372 0.28764 0.0
C160 C 0.83988 0.82729 0.34067 0.0
C161 C 0.62197 0.88212 0.35413 0.0
C162 C 0.72427 0.02078 0.36746 0.0
C163 C 0.76584 0.86898 0.40412 0.0
O164 O 0.7566 0.99089 0.30305 0.0
O165 O 0.6998 0.82618 0.30783 0.0
O166 O 0.8467 0.86978 0.35057 0.0
O167 O 0.62947 0.91501 0.33669 0.0
O168 O 0.7683 0.00466 0.36801 0.0
O169 O 0.75003 0.8359 0.38858 0.0
O170 O 0.69103 0.00163 0.35325 0.0
O171 O 0.65527 0.85329 0.36218 0.0
O172 O 0.78288 0.90977 0.39611 0.0
O173 O 0.69821 0.90034 0.28864 0.0
O174 O 0.82676 0.96356 0.32075 0.0
O175 O 0.79748 0.81106 0.33499 0.0
H176 H 0.94322 0.21854 0.21037 0.0
H177 H 0.01764 0.08427 0.18747 0.0
H178 H 0.89034 0.17147 0.24015 0.0
H179 H 0.9646 0.03769 0.2168 0.0
H180 H 0.90221 0.98049 0.29425 0.0
H181 H 0.95247 0.02864 0.26434 0.0
H182 H 0.82335 0.10782 0.23853 0.0
H183 H 0.77248 0.05975 0.26896 0.0
C184 C 0.94846 0.17913 0.21171 0.0
C185 C 0.98486 0.15529 0.19655 0.0
C186 C 0.91785 0.15215 0.22858 0.0
C187 C 0.92329 0.1009 0.23078 0.0
C188 C 0.95981 0.0772 0.21575 0.0
C189 C 0.99015 0.10399 0.19885 0.0
C190 C 0.88426 0.00802 0.28221 0.0
C191 C 0.83317 0.01619 0.28406 0.0
C192 C 0.91317 0.0355 0.26495 0.0
C193 C 0.8919 0.072 0.24907 0.0
C194 C 0.84081 0.08021 0.25073 0.0
C195 C 0.81166 0.05241 0.26798 0.0
H196 H 0.38927 0.45522 0.42333 0.0
H197 H 0.26407 0.46102 0.47608 0.0
H198 H 0.43197 0.40087 0.45385 0.0
H199 H 0.30751 0.40682 0.50688 0.0
H200 H 0.44098 0.37646 0.565 0.0
H201 H 0.38831 0.42054 0.53412 0.0
H202 H 0.42135 0.31291 0.47407 0.0
H203 H 0.4738 0.26809 0.50513 0.0
C204 C 0.37084 0.44484 0.44145 0.0
C205 C 0.32345 0.46269 0.44744 0.0
C206 C 0.39513 0.41336 0.45875 0.0
C207 C 0.3729 0.39967 0.4826 0.0
C208 C 0.32535 0.417 0.48857 0.0
C209 C 0.30056 0.44787 0.47098 0.0
C210 C 0.43677 0.36198 0.54526 0.0
C211 C 0.46178 0.31906 0.53737 0.0
C212 C 0.40629 0.38697 0.52771 0.0
C213 C 0.40087 0.37002 0.50181 0.0
C214 C 0.42511 0.32666 0.49398 0.0
C215 C 0.45494 0.30106 0.51172 0.0
H216 H 0.05214 0.86389 0.67343 0.0
H217 H 0.01062 0.75691 0.7323 0.0
H218 H 0.10738 0.90283 0.70457 0.0
H219 H 0.06633 0.79654 0.76384 0.0
H220 H 0.10337 0.93833 0.81478 0.0
H221 H 0.06137 0.88207 0.78518 0.0
H222 H 0.18454 0.88824 0.73128 0.0
H223 H 0.2269 0.94484 0.76087 0.0
C224 C 0.05522 0.84845 0.69303 0.0
C225 C 0.0267 0.80779 0.70062 0.0
C226 C 0.08725 0.87045 0.71075 0.0
C227 C 0.09106 0.85266 0.73656 0.0
C228 C 0.06383 0.81094 0.74401 0.0
C229 C 0.03218 0.78828 0.72603 0.0
C230 C 0.12174 0.92752 0.7967 0.0
C231 C 0.16819 0.94666 0.78997 0.0
C232 C 0.09789 0.89478 0.77994 0.0
C233 C 0.11978 0.88086 0.75601 0.0
C234 C 0.16687 0.89862 0.74963 0.0
C235 C 0.19102 0.93102 0.76653 0.0
H236 H 0.56237 0.7151 0.02277 0.0
H237 H 0.49358 0.58205 0.05141 0.0
H238 H 0.6132 0.66573 -0.00733 0.0
H239 H 0.54441 0.53357 0.02195 0.0
H240 H 0.59231 0.47086 0.94347 0.0
H241 H 0.54755 0.52275 0.97401 0.0
H242 H 0.68149 0.60016 -0.00717 0.0
H243 H 0.72706 0.54803 0.96155 0.0
C244 C 0.55801 0.67553 0.02268 0.0
C245 C 0.5235 0.6527 0.0394 0.0
C246 C 0.58745 0.64729 0.00564 0.0
C247 C 0.58261 0.59584 0.00491 0.0
C248 C 0.54854 0.57318 0.0218 0.0
C249 C 0.51941 0.60115 0.03877 0.0
C250 C 0.61257 0.49881 0.95405 0.0
C251 C 0.66343 0.50519 0.95002 0.0
C252 C 0.58679 0.52846 0.9717 0.0
C253 C 0.611 0.56541 0.98589 0.0
C254 C 0.66187 0.57211 0.98199 0.0
C255 C 0.68797 0.54201 0.9643 0.0
H256 H 0.22982 0.33696 0.21214 0.0
H257 H 0.08573 0.29972 0.2423 0.0
H258 H 0.25061 0.37412 0.25422 0.0
H259 H 0.10716 0.33487 0.2848 0.0
H260 H 0.13608 0.46498 0.34045 0.0
H261 H 0.11698 0.41401 0.30258 0.0
H262 H 0.26835 0.36449 0.29933 0.0
H263 H 0.28783 0.41728 0.33659 0.0
C264 C 0.203 0.33571 0.22797 0.0
C265 C 0.15596 0.31593 0.22381 0.0
C266 C 0.21497 0.35682 0.25221 0.0
C267 C 0.18041 0.35798 0.27294 0.0
C268 C 0.13429 0.33575 0.26913 0.0
C269 C 0.12208 0.31532 0.24479 0.0
C270 C 0.16514 0.44268 0.3319 0.0
C271 C 0.21354 0.44553 0.34139 0.0
C272 C 0.15416 0.41317 0.3102 0.0
C273 C 0.1912 0.38525 0.29768 0.0
C274 C 0.23912 0.38626 0.30807 0.0
C275 C 0.25023 0.41629 0.32956 0.0
H276 H 0.05999 0.65914 0.60854 0.0
H277 H 0.01317 0.78569 0.56355 0.0
H278 H 0.11694 0.63644 0.57349 0.0
H279 H 0.069 0.76203 0.52806 0.0
H280 H 0.19412 0.72458 0.4735 0.0
H281 H 0.15288 0.7524 0.51358 0.0
H282 H 0.10981 0.60281 0.53052 0.0
H283 H 0.15207 0.57487 0.49118 0.0
C284 C 0.06184 0.68215 0.59116 0.0
C285 C 0.03166 0.72397 0.58874 0.0
C286 C 0.09444 0.66904 0.57102 0.0
C287 C 0.09729 0.69712 0.54783 0.0
C288 C 0.06826 0.73987 0.54577 0.0
C289 C 0.03595 0.75328 0.56606 0.0
C290 C 0.17658 0.69752 0.48602 0.0
C291 C 0.17613 0.6475 0.47894 0.0
C292 C 0.1526 0.71355 0.5089 0.0
C293 C 0.1276 0.67995 0.52517 0.0
C294 C 0.12912 0.62971 0.51867 0.0
C295 C 0.15322 0.61368 0.49593 0.0
H296 H 0.69513 0.51844 0.817 0.0
H297 H 0.83142 0.55441 0.85621 0.0
H298 H 0.71669 0.57362 0.78111 0.0
H299 H 0.85225 0.61071 0.82064 0.0
H300 H 0.75635 0.69645 0.72527 0.0
H301 H 0.73101 0.65711 0.76637 0.0
H302 H 0.87808 0.59891 0.77595 0.0
H303 H 0.90367 0.63895 0.73564 0.0
C304 C 0.72925 0.53884 0.81824 0.0
C305 C 0.76187 0.53148 0.83933 0.0
C306 C 0.74147 0.57076 0.7977 0.0
C307 C 0.78642 0.59625 0.79787 0.0
C308 C 0.81778 0.59087 0.81965 0.0
C309 C 0.80575 0.55871 0.8401 0.0
C310 C 0.78341 0.6758 0.73635 0.0
C311 C 0.83196 0.6706 0.72699 0.0
C312 C 0.7688 0.65305 0.75982 0.0
C313 C 0.80246 0.62474 0.77442 0.0
C314 C 0.85134 0.62101 0.76547 0.0
C315 C 0.86592 0.64371 0.74213 0.0
H316 H 0.97519 0.19398 0.06413 0.0
H317 H 0.92569 0.32357 0.10596 0.0
H318 H 0.92122 0.21463 0.02764 0.0
H319 H 0.8705 0.34337 0.06978 0.0
H320 H 0.84302 0.39995 0.98581 0.0
H321 H 0.88223 0.37403 0.02624 0.0
H322 H 0.83874 0.22392 0.01116 0.0
H323 H 0.80044 0.24972 0.96999 0.0
C324 C 0.95199 0.22631 0.06581 0.0
C325 C 0.95521 0.25743 0.08787 0.0
C326 C 0.9208 0.23803 0.0449 0.0
C327 C 0.89182 0.28094 0.04563 0.0
C328 C 0.89308 0.31059 0.06833 0.0
C329 C 0.92457 0.29911 0.08914 0.0
C330 C 0.84129 0.36143 0.99113 0.0
C331 C 0.81887 0.32689 0.97443 0.0
C332 C 0.86352 0.34659 0.01453 0.0
C333 C 0.86375 0.29683 0.022 0.0
C334 C 0.83981 0.26245 0.00582 0.0
C335 C 0.81762 0.2773 0.98228 0.0
H336 H 0.72624 0.17255 0.51364 0.0
H337 H 0.57787 0.19931 0.48695 0.0
H338 H 0.74772 0.13889 0.47076 0.0
H339 H 0.59985 0.16859 0.44339 0.0
H340 H 0.63338 0.03901 0.38802 0.0
H341 H 0.61302 0.09221 0.42475 0.0
H342 H 0.76295 0.14566 0.42593 0.0
H343 H 0.78382 0.08987 0.38998 0.0
C344 C 0.69863 0.17254 0.49829 0.0
C345 C 0.65026 0.18783 0.50367 0.0
C346 C 0.71096 0.1535 0.47357 0.0
C347 C 0.67538 0.15029 0.45351 0.0
C348 C 0.62788 0.16906 0.45849 0.0
C349 C 0.6153 0.18702 0.48339 0.0
C350 C 0.66178 0.06279 0.39579 0.0
C351 C 0.71032 0.05985 0.38631 0.0
C352 C 0.65007 0.09368 0.41686 0.0
C353 C 0.68642 0.12314 0.42866 0.0
C354 C 0.73425 0.12264 0.41787 0.0
C355 C 0.74618 0.09096 0.39711 0.0
H356 H 0.34849 0.06089 0.74769 0.0
H357 H 0.27552 0.20207 0.75381 0.0
H358 H 0.38688 0.08656 0.70676 0.0
H359 H 0.31316 0.22721 0.71234 0.0
H360 H 0.45242 0.2754 0.66609 0.0
H361 H 0.39699 0.24869 0.70077 0.0
H362 H 0.37722 0.10965 0.66103 0.0
H363 H 0.43384 0.13589 0.62644 0.0
C364 C 0.33979 0.09707 0.74007 0.0
C365 C 0.30955 0.12972 0.75433 0.0
C366 C 0.3616 0.11165 0.71643 0.0
C367 C 0.35349 0.15913 0.70644 0.0
C368 C 0.32082 0.1907 0.71981 0.0
C369 C 0.29907 0.17617 0.74352 0.0
C370 C 0.43595 0.23929 0.66453 0.0
C371 C 0.44806 0.20761 0.64358 0.0
C372 C 0.40374 0.22414 0.68435 0.0
C373 C 0.38273 0.17701 0.68368 0.0
C374 C 0.39331 0.14597 0.66225 0.0
C375 C 0.42567 0.16109 0.6424 0.0
H376 H 0.27077 0.80059 0.02017 0.0
H377 H 0.42026 0.83745 -0.00174 0.0
H378 H 0.24107 0.83758 0.97955 0.0
H379 H 0.39035 0.87538 0.95806 0.0
H380 H 0.32741 0.91255 0.87914 0.0
H381 H 0.35222 0.86097 0.91593 0.0
H382 H 0.23322 0.92066 0.9629 0.0
H383 H 0.20756 0.97138 0.92593 0.0
C384 C 0.29736 0.81627 0.00665 0.0
C385 C 0.34791 0.8164 0.01261 0.0
C386 C 0.28025 0.83768 0.98343 0.0
C387 C 0.31328 0.85976 0.96569 0.0
C388 C 0.36396 0.8582 0.97116 0.0
C389 C 0.3811 0.83666 -0.00568 0.0
C390 C 0.3062 0.91437 0.89722 0.0
C391 C 0.26571 0.94643 0.89965 0.0
C392 C 0.32058 0.88491 0.91834 0.0
C393 C 0.29496 0.887 0.94239 0.0
C394 C 0.25342 0.91774 0.94453 0.0
C395 C 0.23886 0.94705 0.92336 0.0
H396 H 0.55256 0.83974 0.14017 0.0
H397 H 0.56324 0.68519 0.15926 0.0
H398 H 0.6045 0.85945 0.17725 0.0
H399 H 0.61737 0.70484 0.19598 0.0
H400 H 0.71465 0.88841 0.2384 0.0
H401 H 0.6822 0.85801 0.19685 0.0
H402 H 0.60934 0.73973 0.23835 0.0
H403 H 0.644 0.76883 0.27962 0.0
C404 C 0.56696 0.80977 0.15192 0.0
C405 C 0.55327 0.7609 0.14685 0.0
C406 C 0.5972 0.82108 0.17318 0.0
C407 C 0.61516 0.78378 0.18979 0.0
C408 C 0.60351 0.7346 0.18392 0.0
C409 C 0.5727 0.7233 0.16276 0.0
C410 C 0.69241 0.85539 0.23851 0.0
C411 C 0.68139 0.83127 0.26225 0.0
C412 C 0.67352 0.83811 0.21473 0.0
C413 C 0.64231 0.79691 0.21422 0.0
C414 C 0.63357 0.77126 0.23785 0.0
C415 C 0.65326 0.78806 0.26159 0.0
H416 H 0.2684 0.21109 0.92003 0.0
H417 H 0.13628 0.12359 0.92773 0.0
H418 H 0.25852 0.23833 0.9659 0.0
H419 H 0.1274 0.14957 0.97284 0.0
H420 H 0.09182 0.2294 0.04412 0.0
H421 H 0.10701 0.2237 -0.00294 0.0
H422 H 0.26205 0.20067 0.01166 0.0
H423 H 0.24683 0.20857 0.05925 0.0
C424 C 0.23723 0.19797 0.93136 0.0
C425 C 0.20314 0.16519 0.9202 0.0
C426 C 0.23179 0.21331 0.95758 0.0
C427 C 0.19194 0.19647 0.97282 0.0
C428 C 0.15792 0.16409 0.96148 0.0
C429 C 0.16333 0.1488 0.93557 0.0
C430 C 0.12926 0.22373 0.03726 0.0
C431 C 0.16805 0.21818 0.05516 0.0
C432 C 0.13797 0.22052 0.01036 0.0
C433 C 0.18551 0.21057 0.00076 0.0
C434 C 0.22504 0.20837 0.01856 0.0
C435 C 0.21637 0.21253 0.04569 0.0
H436 H 0.40965 0.7188 0.1954 0.0
H437 H 0.2583 0.70386 0.17068 0.0
H438 H 0.38393 0.71125 0.24134 0.0
H439 H 0.23281 0.69514 0.21685 0.0
H440 H 0.25122 0.59329 0.29482 0.0
H441 H 0.26181 0.62023 0.24927 0.0
H442 H 0.32275 0.75756 0.27641 0.0
H443 H 0.31106 0.73113 0.32221 0.0
C444 C 0.37088 0.71423 0.19986 0.0
C445 C 0.33592 0.71134 0.17963 0.0
C446 C 0.3562 0.71047 0.22606 0.0
C447 C 0.30652 0.70286 0.23237 0.0
C448 C 0.2713 0.70125 0.21225 0.0
C449 C 0.28586 0.70613 0.186 0.0
C450 C 0.26614 0.62954 0.29102 0.0
C451 C 0.28078 0.66008 0.31183 0.0
C452 C 0.27172 0.64504 0.26508 0.0
C453 C 0.29291 0.69086 0.2596 0.0
C454 C 0.30612 0.72214 0.28037 0.0
C455 C 0.29947 0.70707 0.30641 0.0
H456 H 0.77038 0.93704 0.44322 0.0
H457 H 0.75889 0.78051 0.42973 0.0
H458 H 0.77645 0.92256 0.4903 0.0
H459 H 0.76632 0.76596 0.47705 0.0
H460 H 0.75557 0.76043 0.56716 0.0
H461 H 0.73002 0.77776 0.52184 0.0
H462 H 0.8436 0.88818 0.51569 0.0
H463 H 0.86825 0.87191 0.56052 0.0
C464 C 0.7691 0.8995 0.45032 0.0
C465 C 0.76519 0.85982 0.43274 0.0
C466 C 0.7725 0.89124 0.47729 0.0
C467 C 0.77261 0.84311 0.48729 0.0
C468 C 0.76606 0.80348 0.4699 0.0
C469 C 0.76219 0.81178 0.44281 0.0
C470 C 0.77452 0.78883 0.55617 0.0
C471 C 0.81407 0.81462 0.56738 0.0
C472 C 0.76011 0.79851 0.53024 0.0
C473 C 0.78472 0.83441 0.51529 0.0
C474 C 0.82335 0.86086 0.52681 0.0
C475 C 0.8378 0.85114 0.5525 0.0
H476 H 0.73808 0.2911 0.66683 0.0
H477 H 0.58852 0.25515 0.68846 0.0
H478 H 0.75959 0.29723 0.71375 0.0
H479 H 0.61038 0.25967 0.73503 0.0
H480 H 0.6837 0.23864 0.8168 0.0
H481 H 0.67653 0.21677 0.76993 0.0
H482 H 0.71743 0.36459 0.7483 0.0
H483 H 0.72304 0.38684 0.79477 0.0
C484 C 0.71024 0.28353 0.68161 0.0
C485 C 0.66161 0.27324 0.6742 0.0
C486 C 0.72249 0.28695 0.7083 0.0
C487 C 0.6866 0.27858 0.72779 0.0
C488 C 0.63872 0.26572 0.72031 0.0
C489 C 0.62619 0.26361 0.69375 0.0
C490 C 0.69161 0.26613 0.80196 0.0
C491 C 0.70327 0.31449 0.80926 0.0
C492 C 0.68763 0.25366 0.77529 0.0
C493 C 0.69683 0.28902 0.75572 0.0
C494 C 0.71075 0.33664 0.76308 0.0
C495 C 0.71343 0.34941 0.78961 0.0
H496 H 0.28646 0.15562 0.15271 0.0
H497 H 0.16839 0.04942 0.15565 0.0
H498 H 0.34646 0.08895 0.1489 0.0
H499 H 0.22855 0.98298 0.15225 0.0
H500 H 0.39919 0.95321 0.09237 0.0
H501 H 0.35897 0.0274 0.10979 0.0
H502 H 0.30249 0.94365 0.17544 0.0
H503 H 0.34243 0.87005 0.15816 0.0
C504 C 0.27335 0.11806 0.15335 0.0
C505 C 0.22254 0.10774 0.15435 0.0
C506 C 0.30778 0.08002 0.15098 0.0
C507 C 0.29211 0.031 0.15017 0.0
C508 C 0.24167 0.02054 0.15304 0.0
C509 C 0.20718 0.05854 0.15492 0.0
C510 C 0.37992 0.95131 0.11106 0.0
C511 C 0.37315 0.90601 0.12373 0.0
C512 C 0.35681 0.9936 0.12101 0.0
C513 C 0.32688 0.99079 0.14367 0.0
C514 C 0.32467 0.94654 0.15772 0.0
C515 C 0.34764 0.90457 0.14786 0.0
H516 H 0.43145 0.6561 0.36925 0.0
H517 H 0.36453 0.74635 0.42985 0.0
H518 H 0.48777 0.7224 0.3586 0.0
H519 H 0.42235 0.8127 0.41926 0.0
H520 H 0.59176 0.87211 0.40457 0.0
H521 H 0.52138 0.82308 0.41915 0.0
H522 H 0.47204 0.81191 0.3387 0.0
H523 H 0.5421 0.86176 0.32419 0.0
C524 C 0.42927 0.68965 0.38071 0.0
C525 C 0.39316 0.69584 0.40037 0.0
C526 C 0.46112 0.72791 0.37427 0.0
C527 C 0.4583 0.77299 0.38761 0.0
C528 C 0.42458 0.77843 0.40844 0.0
C529 C 0.39192 0.7403 0.41462 0.0
C530 C 0.56442 0.86122 0.39023 0.0
C531 C 0.57199 0.87071 0.36331 0.0
C532 C 0.5244 0.833 0.39855 0.0
C533 C 0.49203 0.81314 0.37997 0.0
C534 C 0.49693 0.8266 0.35333 0.0
C535 C 0.53652 0.8556 0.34507 0.0
H536 H 0.59756 0.08103 0.64335 0.0
H537 H 0.70971 0.07688 0.583 0.0
H538 H 0.64415 0.01983 0.66905 0.0
H539 H 0.75561 0.01623 0.60811 0.0
H540 H 0.85711 0.95383 0.66182 0.0
H541 H 0.80281 0.02167 0.65031 0.0
H542 H 0.67601 0.93143 0.66698 0.0
H543 H 0.72997 0.86388 0.6793 0.0
C544 C 0.63119 0.06566 0.63523 0.0
C545 C 0.65007 0.08297 0.6112 0.0
C546 C 0.65816 0.03143 0.65005 0.0
C547 C 0.7043 0.01476 0.64097 0.0
C548 C 0.72106 0.02979 0.61606 0.0
C549 C 0.69435 0.06364 0.60141 0.0
C550 C 0.81776 0.94894 0.66416 0.0
C551 C 0.79797 0.90268 0.67032 0.0
C552 C 0.78662 0.98771 0.65732 0.0
C553 C 0.73533 0.98081 0.65656 0.0
C554 C 0.71544 0.9374 0.6669 0.0
C555 C 0.74659 0.89866 0.67396 0.0
H556 H 0.41653 0.18572 0.82964 0.0
H557 H 0.40973 0.08165 0.89372 0.0
H558 H 0.48175 0.23005 0.85191 0.0
H559 H 0.47616 0.12665 0.91636 0.0
H560 H 0.63876 0.21221 0.91664 0.0
H561 H 0.57112 0.15616 0.90714 0.0
H562 H 0.47381 0.28004 0.89615 0.0
H563 H 0.54122 0.33633 0.9052 0.0
C564 C 0.42999 0.17174 0.84828 0.0
C565 C 0.40828 0.13056 0.86008 0.0
C566 C 0.46674 0.19744 0.86117 0.0
C567 C 0.48252 0.1826 0.8862 0.0
C568 C 0.46383 0.13903 0.89721 0.0
C569 C 0.42652 0.11307 0.88418 0.0
C570 C 0.60251 0.22759 0.91322 0.0
C571 C 0.59563 0.27881 0.9108 0.0
C572 C 0.56385 0.19533 0.90782 0.0
C573 C 0.51799 0.21404 0.90019 0.0
C574 C 0.50939 0.26496 0.90145 0.0
C575 C 0.54793 0.29714 0.90668 0.0
H576 H 0.781 0.64658 0.58728 0.0
H577 H 0.87653 0.54523 0.6283 0.0
H578 H 0.738 0.57805 0.56707 0.0
H579 H 0.83297 0.4762 0.60804 0.0
H580 H 0.75351 0.36021 0.56316 0.0
H581 H 0.80658 0.43189 0.56647 0.0
H582 H 0.68178 0.52007 0.59049 0.0
H583 H 0.62851 0.44861 0.58733 0.0
C584 C 0.79336 0.60954 0.59162 0.0
C585 C 0.83132 0.60101 0.60985 0.0
C586 C 0.76874 0.57042 0.57999 0.0
C587 C 0.78159 0.52197 0.58635 0.0
C588 C 0.82245 0.51334 0.60274 0.0
C589 C 0.8473 0.55271 0.6144 0.0
C590 C 0.73699 0.39511 0.56853 0.0
C591 C 0.68681 0.39844 0.57553 0.0
C592 C 0.76759 0.43604 0.57052 0.0
C593 C 0.74845 0.48119 0.5791 0.0
C594 C 0.69753 0.48565 0.58372 0.0
C595 C 0.66697 0.44464 0.58199 0.0
H596 H 0.03972 0.13045 0.82792 0.0
H597 H 0.1391 0.25246 0.8155 0.0
H598 H 0.97141 0.18825 0.83234 0.0
H599 H 0.07081 0.30984 0.82046 0.0
H600 H 0.85283 0.29921 0.82938 0.0
H601 H 0.9221 0.25611 0.80932 0.0
H602 H 0.02109 0.32783 0.86335 0.0
H603 H 0.95118 0.37105 0.88374 0.0
C604 C 0.04687 0.16933 0.82538 0.0
C605 C 0.09509 0.18667 0.82183 0.0
C606 C 0.00774 0.20249 0.82794 0.0
C607 C 0.01618 0.25351 0.82717 0.0
C608 C 0.06356 0.27073 0.82151 0.0
C609 C 0.10254 0.23765 0.81856 0.0
C610 C 0.88958 0.30675 0.83657 0.0
C611 C 0.89675 0.33773 0.85842 0.0
C612 C 0.92908 0.28199 0.82509 0.0
C613 C 0.97662 0.288 0.83509 0.0
C614 C 0.98462 0.32268 0.85526 0.0
C615 C 0.94479 0.3475 0.8669 0.0
H616 H 0.22481 0.6551 0.08117 0.0
H617 H 0.34149 0.54667 0.0832 0.0
H618 H 0.16363 0.58989 0.08517 0.0
H619 H 0.28002 0.48158 0.08662 0.0
H620 H 0.16335 0.37174 0.07769 0.0
H621 H 0.20533 0.44427 0.06075 0.0
H622 H 0.14948 0.52936 0.12618 0.0
H623 H 0.10752 0.45611 0.1434 0.0
C624 C 0.23742 0.61728 0.08166 0.0
C625 C 0.28811 0.60596 0.08193 0.0
C626 C 0.20229 0.58014 0.08414 0.0
C627 C 0.21718 0.53098 0.08625 0.0
C628 C 0.26763 0.51933 0.0848 0.0
C629 C 0.30281 0.55651 0.08289 0.0
C630 C 0.15856 0.40641 0.08794 0.0
C631 C 0.13281 0.40846 0.11199 0.0
C632 C 0.18274 0.44773 0.0783 0.0
C633 C 0.18129 0.4919 0.09244 0.0
C634 C 0.151 0.49553 0.11493 0.0
C635 C 0.12682 0.45384 0.12472 0.0
H636 H 0.93755 0.85039 0.34136 0.0
H637 H 0.8379 0.727 0.33653 0.0
H638 H 0.00659 0.79386 0.34574 0.0
H639 H 0.90737 0.67037 0.34093 0.0
H640 H 0.12672 0.6867 0.33834 0.0
H641 H 0.05377 0.72867 0.32206 0.0
H642 H 0.96458 0.65212 0.37939 0.0
H643 H 0.03807 0.60941 0.39565 0.0
C644 C 0.93048 0.81122 0.34072 0.0
C645 C 0.88225 0.79326 0.33874 0.0
C646 C 0.97005 0.77879 0.34311 0.0
C647 C 0.96222 0.72771 0.34377 0.0
C648 C 0.9143 0.70958 0.34066 0.0
C649 C 0.87468 0.74206 0.33794 0.0
C650 C 0.09138 0.67809 0.34717 0.0
C651 C 0.08806 0.6456 0.36863 0.0
C652 C 0.04971 0.70215 0.33783 0.0
C653 C 0.0038 0.69436 0.3498 0.0
C654 C -0.00038 0.65872 0.36979 0.0
C655 C 0.04157 0.63433 0.37912 0.0
loop_
_geom_bond_atom_site_label_1
_geom_bond_atom_site_label_2
_geom_bond_distance
_geom_bond_site_symmetry_2
_ccdc_geom_bond_type
Sc0 O3 2.025 . S
Sc0 O10 2.105 1_455 S
Sc0 O13 2.105 . S
Sc0 O16 2.105 . S
Sc0 O19 2.105 . S
Sc1 O3 2.025 . S
Sc1 O11 2.105 . S
Sc1 O15 2.105 . S
Sc1 O17 2.105 . S
Sc1 O21 2.105 . S
Sc2 O3 2.025 . S
Sc2 O12 2.105 . S
Sc2 O14 2.098 1_455 S
Sc2 O18 2.105 . S
Sc2 O20 2.105 1_455 S
O3 Sc0 2.025 . S
O3 Sc1 2.025 . S
O3 Sc2 2.025 . S
C4 O10 1.268 . S
C4 O20 1.268 . S
C5 O11 1.268 . S
C5 O19 1.268 . S
C6 O12 1.268 . S
C6 O21 1.268 . S
C7 O13 1.268 . S
C7 O17 1.268 . S
C8 O14 1.270 . S
C8 O16 1.268 1_655 S
C9 O15 1.268 . S
C9 O18 1.268 . S
O10 Sc0 2.105 1_655 S
O10 C4 1.268 . S
O11 Sc1 2.105 . S
O11 C5 1.268 . S
O12 Sc2 2.105 . S
O12 C6 1.268 . S
O13 Sc0 2.105 . S
O13 C7 1.268 . S
O14 Sc2 2.098 1_655 S
O14 C8 1.270 . S
O15 Sc1 2.105 . S
O15 C9 1.268 . S
O16 Sc0 2.105 . S
O16 C8 1.268 1_455 S
O17 Sc1 2.105 . S
O17 C7 1.268 . S
O18 Sc2 2.105 . S
O18 C9 1.268 . S
O19 Sc0 2.105 . S
O19 C5 1.268 . S
O20 Sc2 2.105 1_655 S
O20 C4 1.268 . S
O21 Sc1 2.105 . S
O21 C6 1.268 . S
Sc22 O25 2.025 . S
Sc22 O32 2.105 . S
Sc22 O35 2.105 . S
Sc22 O38 2.105 . S
Sc22 O41 2.105 . S
Sc23 O25 2.025 . S
Sc23 O33 2.105 . S
Sc23 O37 2.105 . S
Sc23 O39 2.105 . S
Sc23 O43 2.105 . S
Sc24 O25 2.025 . S
Sc24 O34 2.105 . S
Sc24 O36 2.105 . S
Sc24 O40 2.105 . S
Sc24 O42 2.105 . S
O25 Sc22 2.025 . S
O25 Sc23 2.025 . S
O25 Sc24 2.025 . S
C26 O32 1.268 . S
C26 O42 1.268 . S
C27 O33 1.268 . S
C27 O41 1.268 . S
C28 O34 1.268 . S
C28 O43 1.268 . S
C29 O35 1.268 . S
C29 O39 1.268 . S
C30 O36 1.268 . S
C30 O38 1.268 . S
C31 O37 1.268 . S
C31 O40 1.268 . S
O32 Sc22 2.105 . S
O32 C26 1.268 . S
O33 Sc23 2.105 . S
O33 C27 1.268 . S
O34 Sc24 2.105 . S
O34 C28 1.268 . S
O35 Sc22 2.105 . S
O35 C29 1.268 . S
O36 Sc24 2.105 . S
O36 C30 1.268 . S
O37 Sc23 2.105 . S
O37 C31 1.268 . S
O38 Sc22 2.105 . S
O38 C30 1.268 . S
O39 Sc23 2.105 . S
O39 C29 1.268 . S
O40 Sc24 2.105 . S
O40 C31 1.268 . S
O41 Sc22 2.105 . S
O41 C27 1.268 . S
O42 Sc24 2.105 . S
O42 C26 1.268 . S
O43 Sc23 2.105 . S
O43 C28 1.268 . S
Sc44 O47 2.025 . S
Sc44 O54 2.105 1_655 S
Sc44 O57 2.105 . S
Sc44 O60 2.105 . S
Sc44 O63 2.105 . S
Sc45 O47 2.025 . S
Sc45 O55 2.105 . S
Sc45 O59 2.105 . S
Sc45 O61 2.105 . S
Sc45 O65 2.105 . S
Sc46 O47 2.025 . S
Sc46 O56 2.105 . S
Sc46 O58 2.098 1_655 S
Sc46 O62 2.105 . S
Sc46 O64 2.105 1_655 S
O47 Sc44 2.025 . S
O47 Sc45 2.025 . S
O47 Sc46 2.025 . S
C48 O54 1.268 . S
C48 O64 1.268 . S
C49 O55 1.268 . S
C49 O63 1.268 . S
C50 O56 1.268 . S
C50 O65 1.268 . S
C51 O57 1.268 . S
C51 O61 1.268 . S
C52 O58 1.270 . S
C52 O60 1.268 1_455 S
C53 O59 1.268 . S
C53 O62 1.268 . S
O54 Sc44 2.105 1_455 S
O54 C48 1.268 . S
O55 Sc45 2.105 . S
O55 C49 1.268 . S
O56 Sc46 2.105 . S
O56 C50 1.268 . S
O57 Sc44 2.105 . S
O57 C51 1.268 . S
O58 Sc46 2.098 1_455 S
O58 C52 1.270 . S
O59 Sc45 2.105 . S
O59 C53 1.268 . S
O60 Sc44 2.105 . S
O60 C52 1.268 1_655 S
O61 Sc45 2.105 . S
O61 C51 1.268 . S
O62 Sc46 2.105 . S
O62 C53 1.268 . S
O63 Sc44 2.105 . S
O63 C49 1.268 . S
O64 Sc46 2.105 1_455 S
O64 C48 1.268 . S
O65 Sc45 2.105 . S
O65 C50 1.268 . S
Sc66 O69 2.025 . S
Sc66 O76 2.105 . S
Sc66 O79 2.105 . S
Sc66 O82 2.105 . S
Sc66 O85 2.105 . S
Sc67 O69 2.025 . S
Sc67 O77 2.105 . S
Sc67 O81 2.105 . S
Sc67 O83 2.105 . S
Sc67 O87 2.105 . S
Sc68 O69 2.025 . S
Sc68 O78 2.105 . S
Sc68 O80 2.105 . S
Sc68 O84 2.105 . S
Sc68 O86 2.105 . S
O69 Sc66 2.025 . S
O69 Sc67 2.025 . S
O69 Sc68 2.025 . S
C70 O76 1.268 . S
C70 O86 1.268 . S
C71 O77 1.268 . S
C71 O85 1.268 . S
C72 O78 1.268 . S
C72 O87 1.268 . S
C73 O79 1.268 . S
C73 O83 1.268 . S
C74 O80 1.268 . S
C74 O82 1.268 . S
C75 O81 1.268 . S
C75 O84 1.268 . S
O76 Sc66 2.105 . S
O76 C70 1.268 . S
O77 Sc67 2.105 . S
O77 C71 1.268 . S
O78 Sc68 2.105 . S
O78 C72 1.268 . S
O79 Sc66 2.105 . S
O79 C73 1.268 . S
O80 Sc68 2.105 . S
O80 C74 1.268 . S
O81 Sc67 2.105 . S
O81 C75 1.268 . S
O82 Sc66 2.105 . S
O82 C74 1.268 . S
O83 Sc67 2.105 . S
O83 C73 1.268 . S
O84 Sc68 2.105 . S
O84 C75 1.268 . S
O85 Sc66 2.105 . S
O85 C71 1.268 . S
O86 Sc68 2.105 . S
O86 C70 1.268 . S
O87 Sc67 2.105 . S
O87 C72 1.268 . S
Sc88 O91 2.025 . S
Sc88 O98 2.105 . S
Sc88 O101 2.105 . S
Sc88 O104 2.105 . S
Sc88 O107 2.105 . S
Sc89 O91 2.025 . S
Sc89 O99 2.105 . S
Sc89 O103 2.105 . S
Sc89 O105 2.105 . S
Sc89 O109 2.105 . S
Sc90 O91 2.025 . S
Sc90 O100 2.105 . S
Sc90 O102 2.105 . S
Sc90 O106 2.105 . S
Sc90 O108 2.105 . S
O91 Sc88 2.025 . S
O91 Sc89 2.025 . S
O91 Sc90 2.025 . S
C92 O98 1.268 . S
C92 O108 1.268 . S
C93 O99 1.268 . S
C93 O107 1.268 . S
C94 O100 1.268 . S
C94 O109 1.268 . S
C95 O101 1.268 . S
C95 O105 1.268 . S
C96 O102 1.268 . S
C96 O104 1.268 . S
C97 O103 1.268 . S
C97 O106 1.268 . S
O98 Sc88 2.105 . S
O98 C92 1.268 . S
O99 Sc89 2.105 . S
O99 C93 1.268 . S
O100 Sc90 2.105 . S
O100 C94 1.268 . S
O101 Sc88 2.105 . S
O101 C95 1.268 . S
O102 Sc90 2.105 . S
O102 C96 1.268 . S
O103 Sc89 2.105 . S
O103 C97 1.268 . S
O104 Sc88 2.105 . S
O104 C96 1.268 . S
O105 Sc89 2.105 . S
O105 C95 1.268 . S
O106 Sc90 2.105 . S
O106 C97 1.268 . S
O107 Sc88 2.105 . S
O107 C93 1.268 . S
O108 Sc90 2.105 . S
O108 C92 1.268 . S
O109 Sc89 2.105 . S
O109 C94 1.268 . S
Sc110 O113 2.025 . S
Sc110 O120 2.105 1_545 S
Sc110 O123 2.105 . S
Sc110 O126 2.105 . S
Sc110 O129 2.105 . S
Sc111 O113 2.025 . S
Sc111 O121 2.105 . S
Sc111 O125 2.105 . S
Sc111 O127 2.105 . S
Sc111 O131 2.105 . S
Sc112 O113 2.025 . S
Sc112 O122 2.105 . S
Sc112 O124 2.098 1_545 S
Sc112 O128 2.105 . S
Sc112 O130 2.105 1_545 S
O113 Sc110 2.025 . S
O113 Sc111 2.025 . S
O113 Sc112 2.025 . S
C114 O120 1.268 . S
C114 O130 1.268 . S
C115 O121 1.268 . S
C115 O129 1.268 . S
C116 O122 1.268 . S
C116 O131 1.268 . S
C117 O123 1.268 . S
C117 O127 1.268 . S
C118 O124 1.270 . S
C118 O126 1.268 1_565 S
C119 O125 1.268 . S
C119 O128 1.268 . S
O120 Sc110 2.105 1_565 S
O120 C114 1.268 . S
O121 Sc111 2.105 . S
O121 C115 1.268 . S
O122 Sc112 2.105 . S
O122 C116 1.268 . S
O123 Sc110 2.105 . S
O123 C117 1.268 . S
O124 Sc112 2.098 1_565 S
O124 C118 1.270 . S
O125 Sc111 2.105 . S
O125 C119 1.268 . S
O126 Sc110 2.105 . S
O126 C118 1.268 1_545 S
O127 Sc111 2.105 . S
O127 C117 1.268 . S
O128 Sc112 2.105 . S
O128 C119 1.268 . S
O129 Sc110 2.105 . S
O129 C115 1.268 . S
O130 Sc112 2.105 1_565 S
O130 C114 1.268 . S
O131 Sc111 2.105 . S
O131 C116 1.268 . S
Sc132 O135 2.025 . S
Sc132 O142 2.105 . S
Sc132 O145 2.105 . S
Sc132 O148 2.105 . S
Sc132 O151 2.105 . S
Sc133 O135 2.025 . S
Sc133 O143 2.105 . S
Sc133 O147 2.105 . S
Sc133 O149 2.105 . S
Sc133 O153 2.105 . S
Sc134 O135 2.025 . S
Sc134 O144 2.105 . S
Sc134 O146 2.105 . S
Sc134 O150 2.105 . S
Sc134 O152 2.105 . S
O135 Sc132 2.025 . S
O135 Sc133 2.025 . S
O135 Sc134 2.025 . S
C136 O142 1.268 . S
C136 O152 1.268 . S
C137 O143 1.268 . S
C137 O151 1.268 . S
C138 O144 1.268 . S
C138 O153 1.268 . S
C139 O145 1.268 . S
C139 O149 1.268 . S
C140 O146 1.268 . S
C140 O148 1.268 . S
C141 O147 1.268 . S
C141 O150 1.268 . S
O142 Sc132 2.105 . S
O142 C136 1.268 . S
O143 Sc133 2.105 . S
O143 C137 1.268 . S
O144 Sc134 2.105 . S
O144 C138 1.268 . S
O145 Sc132 2.105 . S
O145 C139 1.268 . S
O146 Sc134 2.105 . S
O146 C140 1.268 . S
O147 Sc133 2.105 . S
O147 C141 1.268 . S
O148 Sc132 2.105 . S
O148 C140 1.268 . S
O149 Sc133 2.105 . S
O149 C139 1.268 . S
O150 Sc134 2.105 . S
O150 C141 1.268 . S
O151 Sc132 2.105 . S
O151 C137 1.268 . S
O152 Sc134 2.105 . S
O152 C136 1.268 . S
O153 Sc133 2.105 . S
O153 C138 1.268 . S
Sc154 O157 2.025 . S
Sc154 O164 2.098 1_565 S
Sc154 O167 2.105 . S
Sc154 O170 2.105 1_565 S
Sc154 O173 2.105 . S
Sc155 O157 2.025 . S
Sc155 O165 2.105 . S
Sc155 O169 2.105 . S
Sc155 O171 2.105 . S
Sc155 O175 2.105 . S
Sc156 O157 2.025 . S
Sc156 O166 2.105 . S
Sc156 O168 2.105 1_565 S
Sc156 O172 2.105 . S
Sc156 O174 2.105 . S
O157 Sc154 2.025 . S
O157 Sc155 2.025 . S
O157 Sc156 2.025 . S
C158 O164 1.270 . S
C158 O174 1.268 1_545 S
C159 O165 1.268 . S
C159 O173 1.268 . S
C160 O166 1.268 . S
C160 O175 1.268 . S
C161 O167 1.268 . S
C161 O171 1.268 . S
C162 O168 1.268 . S
C162 O170 1.268 . S
C163 O169 1.268 . S
C163 O172 1.268 . S
O164 Sc154 2.098 1_545 S
O164 C158 1.270 . S
O165 Sc155 2.105 . S
O165 C159 1.268 . S
O166 Sc156 2.105 . S
O166 C160 1.268 . S
O167 Sc154 2.105 . S
O167 C161 1.268 . S
O168 Sc156 2.105 1_545 S
O168 C162 1.268 . S
O169 Sc155 2.105 . S
O169 C163 1.268 . S
O170 Sc154 2.105 1_545 S
O170 C162 1.268 . S
O171 Sc155 2.105 . S
O171 C161 1.268 . S
O172 Sc156 2.105 . S
O172 C163 1.268 . S
O173 Sc154 2.105 . S
O173 C159 1.268 . S
O174 Sc156 2.105 . S
O174 C158 1.268 1_565 S
O175 Sc155 2.105 . S
O175 C160 1.268 . S
H176 C184 0.950 . S
H177 C189 0.950 1_455 S
H178 C186 0.950 . S
H179 C188 0.950 . S
H180 C190 0.950 . S
H181 C192 0.950 . S
H182 C194 0.950 . S
H183 C195 0.950 . S
C184 H176 0.950 . S
C184 C185 1.386 . S
C184 C186 1.391 . S
C185 C184 1.386 . S
C185 C189 1.393 . S
C186 H178 0.950 . S
C186 C184 1.391 . S
C186 C187 1.400 . S
C187 C186 1.400 . S
C187 C188 1.398 . S
C187 C193 1.491 . S
C188 H179 0.950 . S
C188 C187 1.398 . S
C188 C189 1.391 . S
C189 H177 0.950 1_655 S
C189 C185 1.393 . S
C189 C188 1.391 . S
C190 H180 0.950 . S
C190 C191 1.386 . S
C190 C192 1.391 . S
C191 C190 1.386 . S
C191 C195 1.393 . S
C192 H181 0.950 . S
C192 C190 1.391 . S
C192 C193 1.400 . S
C193 C187 1.491 . S
C193 C192 1.400 . S
C193 C194 1.398 . S
C194 H182 0.950 . S
C194 C193 1.398 . S
C194 C195 1.391 . S
C195 H183 0.950 . S
C195 C191 1.393 . S
C195 C194 1.391 . S
H196 C204 0.950 . S
H197 C209 0.950 . S
H198 C206 0.950 . S
H199 C208 0.950 . S
H200 C210 0.950 . S
H201 C212 0.950 . S
H202 C214 0.950 . S
H203 C215 0.950 . S
C204 H196 0.950 . S
C204 C205 1.386 . S
C204 C206 1.391 . S
C205 C204 1.386 . S
C205 C209 1.393 . S
C206 H198 0.950 . S
C206 C204 1.391 . S
C206 C207 1.400 . S
C207 C206 1.400 . S
C207 C208 1.398 . S
C207 C213 1.491 . S
C208 H199 0.950 . S
C208 C207 1.398 . S
C208 C209 1.391 . S
C209 H197 0.950 . S
C209 C205 1.393 . S
C209 C208 1.391 . S
C210 H200 0.950 . S
C210 C211 1.386 . S
C210 C212 1.391 . S
C211 C210 1.386 . S
C211 C215 1.393 . S
C212 H201 0.950 . S
C212 C210 1.391 . S
C212 C213 1.400 . S
C213 C207 1.491 . S
C213 C212 1.400 . S
C213 C214 1.398 . S
C214 H202 0.950 . S
C214 C213 1.398 . S
C214 C215 1.391 . S
C215 H203 0.950 . S
C215 C211 1.393 . S
C215 C214 1.391 . S
H216 C224 0.950 . S
H217 C229 0.950 . S
H218 C226 0.950 . S
H219 C228 0.950 . S
H220 C230 0.950 . S
H221 C232 0.950 . S
H222 C234 0.950 . S
H223 C235 0.950 1_545 S
C224 H216 0.950 . S
C224 C225 1.386 . S
C224 C226 1.391 . S
C225 C224 1.386 . S
C225 C229 1.393 . S
C226 H218 0.950 . S
C226 C224 1.391 . S
C226 C227 1.400 . S
C227 C226 1.400 . S
C227 C228 1.398 . S
C227 C233 1.491 . S
C228 H219 0.950 . S
C228 C227 1.398 . S
C228 C229 1.391 . S
C229 H217 0.950 . S
C229 C225 1.393 . S
C229 C228 1.391 . S
C230 H220 0.950 . S
C230 C231 1.386 . S
C230 C232 1.391 . S
C231 C230 1.386 . S
C231 C235 1.393 . S
C232 H221 0.950 . S
C232 C230 1.391 . S
C232 C233 1.400 . S
C233 C227 1.491 . S
C233 C232 1.400 . S
C233 C234 1.398 . S
C234 H222 0.950 . S
C234 C233 1.398 . S
C234 C235 1.391 . S
C235 H223 0.950 1_565 S
C235 C231 1.393 . S
C235 C234 1.391 . S
H236 C244 0.950 . S
H237 C249 0.950 . S
H238 C246 0.956 . S
H239 C248 0.950 . S
H240 C250 0.950 . S
H241 C252 0.956 . S
H242 C254 0.950 . S
H243 C255 0.950 . S
C244 H236 0.950 . S
C244 C245 1.386 . S
C244 C246 1.391 . S
C245 C244 1.386 . S
C245 C249 1.393 . S
C246 H238 0.956 . S
C246 C244 1.391 . S
C246 C247 1.400 . S
C247 C246 1.400 . S
C247 C248 1.398 . S
C247 C253 1.491 1_554 S
C248 H239 0.950 . S
C248 C247 1.398 . S
C248 C249 1.391 . S
C249 H237 0.950 . S
C249 C245 1.393 . S
C249 C248 1.391 . S
C250 H240 0.950 . S
C250 C251 1.386 . S
C250 C252 1.391 . S
C251 C250 1.386 . S
C251 C255 1.393 . S
C252 H241 0.956 . S
C252 C250 1.391 . S
C252 C253 1.400 . S
C253 C247 1.491 1_556 S
C253 C252 1.400 . S
C253 C254 1.398 . S
C254 H242 0.950 . S
C254 C253 1.398 . S
C254 C255 1.391 . S
C255 H243 0.950 . S
C255 C251 1.393 . S
C255 C254 1.391 . S
H256 C264 0.950 . S
H257 C269 0.950 . S
H258 C266 0.950 . S
H259 C268 0.950 . S
H260 C270 0.950 . S
H261 C272 0.950 . S
H262 C274 0.950 . S
H263 C275 0.950 . S
C264 H256 0.950 . S
C264 C265 1.386 . S
C264 C266 1.391 . S
C265 C264 1.386 . S
C265 C269 1.393 . S
C266 H258 0.950 . S
C266 C264 1.391 . S
C266 C267 1.400 . S
C267 C266 1.400 . S
C267 C268 1.398 . S
C267 C273 1.491 . S
C268 H259 0.950 . S
C268 C267 1.398 . S
C268 C269 1.391 . S
C269 H257 0.950 . S
C269 C265 1.393 . S
C269 C268 1.391 . S
C270 H260 0.950 . S
C270 C271 1.386 . S
C270 C272 1.391 . S
C271 C270 1.386 . S
C271 C275 1.393 . S
C272 H261 0.950 . S
C272 C270 1.391 . S
C272 C273 1.400 . S
C273 C267 1.491 . S
C273 C272 1.400 . S
C273 C274 1.398 . S
C274 H262 0.950 . S
C274 C273 1.398 . S
C274 C275 1.391 . S
C275 H263 0.950 . S
C275 C271 1.393 . S
C275 C274 1.391 . S
H276 C284 0.950 . S
H277 C289 0.950 . S
H278 C286 0.950 . S
H279 C288 0.950 . S
H280 C290 0.950 . S
H281 C292 0.950 . S
H282 C294 0.950 . S
H283 C295 0.950 . S
C284 H276 0.950 . S
C284 C285 1.386 . S
C284 C286 1.391 . S
C285 C284 1.386 . S
C285 C289 1.393 . S
C286 H278 0.950 . S
C286 C284 1.391 . S
C286 C287 1.400 . S
C287 C286 1.400 . S
C287 C288 1.398 . S
C287 C293 1.491 . S
C288 H279 0.950 . S
C288 C287 1.398 . S
C288 C289 1.391 . S
C289 H277 0.950 . S
C289 C285 1.393 . S
C289 C288 1.391 . S
C290 H280 0.950 . S
C290 C291 1.386 . S
C290 C292 1.391 . S
C291 C290 1.386 . S
C291 C295 1.393 . S
C292 H281 0.950 . S
C292 C290 1.391 . S
C292 C293 1.400 . S
C293 C287 1.491 . S
C293 C292 1.400 . S
C293 C294 1.398 . S
C294 H282 0.950 . S
C294 C293 1.398 . S
C294 C295 1.391 . S
C295 H283 0.950 . S
C295 C291 1.393 . S
C295 C294 1.391 . S
H296 C304 0.950 . S
H297 C309 0.950 . S
H298 C306 0.950 . S
H299 C308 0.950 . S
H300 C310 0.950 . S
H301 C312 0.950 . S
H302 C314 0.950 . S
H303 C315 0.950 . S
C304 H296 0.950 . S
C304 C305 1.386 . S
C304 C306 1.391 . S
C305 C304 1.386 . S
C305 C309 1.393 . S
C306 H298 0.950 . S
C306 C304 1.391 . S
C306 C307 1.400 . S
C307 C306 1.400 . S
C307 C308 1.398 . S
C307 C313 1.491 . S
C308 H299 0.950 . S
C308 C307 1.398 . S
C308 C309 1.391 . S
C309 H297 0.950 . S
C309 C305 1.393 . S
C309 C308 1.391 . S
C310 H300 0.950 . S
C310 C311 1.386 . S
C310 C312 1.391 . S
C311 C310 1.386 . S
C311 C315 1.393 . S
C312 H301 0.950 . S
C312 C310 1.391 . S
C312 C313 1.400 . S
C313 C307 1.491 . S
C313 C312 1.400 . S
C313 C314 1.398 . S
C314 H302 0.950 . S
C314 C313 1.398 . S
C314 C315 1.391 . S
C315 H303 0.950 . S
C315 C311 1.393 . S
C315 C314 1.391 . S
H316 C324 0.950 . S
H317 C329 0.950 1_455 S
H318 C326 0.950 . S
H319 C328 0.950 . S
H320 C330 0.950 . S
H321 C332 0.950 . S
H322 C334 0.950 . S
H323 C335 0.950 . S
C324 H316 0.950 . S
C324 C325 1.386 . S
C324 C326 1.391 . S
C325 C324 1.386 . S
C325 C329 1.393 . S
C326 H318 0.950 . S
C326 C324 1.391 . S
C326 C327 1.400 . S
C327 C326 1.400 . S
C327 C328 1.398 . S
C327 C333 1.491 . S
C328 H319 0.950 . S
C328 C327 1.398 . S
C328 C329 1.391 . S
C329 H317 0.950 1_655 S
C329 C325 1.393 . S
C329 C328 1.391 . S
C330 H320 0.950 . S
C330 C331 1.386 . S
C330 C332 1.391 . S
C331 C330 1.386 . S
C331 C335 1.393 . S
C332 H321 0.950 . S
C332 C330 1.391 . S
C332 C333 1.400 1_556 S
C333 C327 1.491 . S
C333 C332 1.400 1_554 S
C333 C334 1.398 . S
C334 H322 0.950 . S
C334 C333 1.398 . S
C334 C335 1.391 1_554 S
C335 H323 0.950 . S
C335 C331 1.393 . S
C335 C334 1.391 1_556 S
H336 C344 0.950 . S
H337 C349 0.950 . S
H338 C346 0.950 . S
H339 C348 0.950 . S
H340 C350 0.950 . S
H341 C352 0.950 . S
H342 C354 0.950 . S
H343 C355 0.950 . S
C344 H336 0.950 . S
C344 C345 1.386 . S
C344 C346 1.391 . S
C345 C344 1.386 . S
C345 C349 1.393 . S
C346 H338 0.950 . S
C346 C344 1.391 . S
C346 C347 1.400 . S
C347 C346 1.400 . S
C347 C348 1.398 . S
C347 C353 1.491 . S
C348 H339 0.950 . S
C348 C347 1.398 . S
C348 C349 1.391 . S
C349 H337 0.950 . S
C349 C345 1.393 . S
C349 C348 1.391 . S
C350 H340 0.950 . S
C350 C351 1.386 . S
C350 C352 1.391 . S
C351 C350 1.386 . S
C351 C355 1.393 . S
C352 H341 0.950 . S
C352 C350 1.391 . S
C352 C353 1.400 . S
C353 C347 1.491 . S
C353 C352 1.400 . S
C353 C354 1.398 . S
C354 H342 0.950 . S
C354 C353 1.398 . S
C354 C355 1.391 . S
C355 H343 0.950 . S
C355 C351 1.393 . S
C355 C354 1.391 . S
H356 C364 0.950 . S
H357 C369 0.950 . S
H358 C366 0.950 . S
H359 C368 0.950 . S
H360 C370 0.950 . S
H361 C372 0.950 . S
H362 C374 0.950 . S
H363 C375 0.950 . S
C364 H356 0.950 . S
C364 C365 1.386 . S
C364 C366 1.391 . S
C365 C364 1.386 . S
C365 C369 1.393 . S
C366 H358 0.950 . S
C366 C364 1.391 . S
C366 C367 1.400 . S
C367 C366 1.400 . S
C367 C368 1.398 . S
C367 C373 1.491 . S
C368 H359 0.950 . S
C368 C367 1.398 . S
C368 C369 1.391 . S
C369 H357 0.950 . S
C369 C365 1.393 . S
C369 C368 1.391 . S
C370 H360 0.950 . S
C370 C371 1.386 . S
C370 C372 1.391 . S
C371 C370 1.386 . S
C371 C375 1.393 . S
C372 H361 0.950 . S
C372 C370 1.391 . S
C372 C373 1.400 . S
C373 C367 1.491 . S
C373 C372 1.400 . S
C373 C374 1.398 . S
C374 H362 0.950 . S
C374 C373 1.398 . S
C374 C375 1.391 . S
C375 H363 0.950 . S
C375 C371 1.393 . S
C375 C374 1.391 . S
H376 C384 0.950 . S
H377 C389 0.950 1_556 S
H378 C386 0.950 . S
H379 C388 0.950 . S
H380 C390 0.950 . S
H381 C392 0.950 . S
H382 C394 0.950 . S
H383 C395 0.950 1_545 S
C384 H376 0.950 . S
C384 C385 1.386 . S
C384 C386 1.391 . S
C385 C384 1.386 . S
C385 C389 1.393 . S
C386 H378 0.950 . S
C386 C384 1.391 . S
C386 C387 1.400 1_554 S
C387 C386 1.400 1_556 S
C387 C388 1.398 . S
C387 C393 1.491 . S
C388 H379 0.950 . S
C388 C387 1.398 . S
C388 C389 1.391 1_556 S
C389 H377 0.950 1_554 S
C389 C385 1.393 . S
C389 C388 1.391 1_554 S
C390 H380 0.950 . S
C390 C391 1.386 . S
C390 C392 1.391 . S
C391 C390 1.386 . S
C391 C395 1.393 . S
C392 H381 0.950 . S
C392 C390 1.391 . S
C392 C393 1.400 . S
C393 C387 1.491 . S
C393 C392 1.400 . S
C393 C394 1.398 . S
C394 H382 0.950 . S
C394 C393 1.398 . S
C394 C395 1.391 . S
C395 H383 0.950 1_565 S
C395 C391 1.393 . S
C395 C394 1.391 . S
H396 C404 0.950 . S
H397 C409 0.950 . S
H398 C406 0.950 . S
H399 C408 0.950 . S
H400 C410 0.950 . S
H401 C412 0.950 . S
H402 C414 0.950 . S
H403 C415 0.950 . S
C404 H396 0.950 . S
C404 C405 1.386 . S
C404 C406 1.391 . S
C405 C404 1.386 . S
C405 C409 1.393 . S
C406 H398 0.950 . S
C406 C404 1.391 . S
C406 C407 1.400 . S
C407 C406 1.400 . S
C407 C408 1.398 . S
C407 C413 1.491 . S
C408 H399 0.950 . S
C408 C407 1.398 . S
C408 C409 1.391 . S
C409 H397 0.950 . S
C409 C405 1.393 . S
C409 C408 1.391 . S
C410 H400 0.950 . S
C410 C411 1.386 . S
C410 C412 1.391 . S
C411 C410 1.386 . S
C411 C415 1.393 . S
C412 H401 0.950 . S
C412 C410 1.391 . S
C412 C413 1.400 . S
C413 C407 1.491 . S
C413 C412 1.400 . S
C413 C414 1.398 . S
C414 H402 0.950 . S
C414 C413 1.398 . S
C414 C415 1.391 . S
C415 H403 0.950 . S
C415 C411 1.393 . S
C415 C414 1.391 . S
H416 C424 0.950 . S
H417 C429 0.950 . S
H418 C426 0.950 . S
H419 C428 0.950 . S
H420 C430 0.950 . S
H421 C432 0.950 . S
H422 C434 0.950 . S
H423 C435 0.950 . S
C424 H416 0.950 . S
C424 C425 1.386 . S
C424 C426 1.391 . S
C425 C424 1.386 . S
C425 C429 1.393 . S
C426 H418 0.950 . S
C426 C424 1.391 . S
C426 C427 1.400 . S
C427 C426 1.400 . S
C427 C428 1.398 . S
C427 C433 1.491 1_556 S
C428 H419 0.950 . S
C428 C427 1.398 . S
C428 C429 1.391 . S
C429 H417 0.950 . S
C429 C425 1.393 . S
C429 C428 1.391 . S
C430 H420 0.950 . S
C430 C431 1.386 . S
C430 C432 1.391 . S
C431 C430 1.386 . S
C431 C435 1.393 . S
C432 H421 0.950 . S
C432 C430 1.391 . S
C432 C433 1.400 . S
C433 C427 1.491 1_554 S
C433 C432 1.400 . S
C433 C434 1.398 . S
C434 H422 0.950 . S
C434 C433 1.398 . S
C434 C435 1.391 . S
C435 H423 0.950 . S
C435 C431 1.393 . S
C435 C434 1.391 . S
H436 C444 0.950 . S
H437 C449 0.950 . S
H438 C446 0.950 . S
H439 C448 0.950 . S
H440 C450 0.950 . S
H441 C452 0.950 . S
H442 C454 0.950 . S
H443 C455 0.950 . S
C444 H436 0.950 . S
C444 C445 1.386 . S
C444 C446 1.391 . S
C445 C444 1.386 . S
C445 C449 1.393 . S
C446 H438 0.950 . S
C446 C444 1.391 . S
C446 C447 1.400 . S
C447 C446 1.400 . S
C447 C448 1.398 . S
C447 C453 1.491 . S
C448 H439 0.950 . S
C448 C447 1.398 . S
C448 C449 1.391 . S
C449 H437 0.950 . S
C449 C445 1.393 . S
C449 C448 1.391 . S
C450 H440 0.950 . S
C450 C451 1.386 . S
C450 C452 1.391 . S
C451 C450 1.386 . S
C451 C455 1.393 . S
C452 H441 0.950 . S
C452 C450 1.391 . S
C452 C453 1.400 . S
C453 C447 1.491 . S
C453 C452 1.400 . S
C453 C454 1.398 . S
C454 H442 0.950 . S
C454 C453 1.398 . S
C454 C455 1.391 . S
C455 H443 0.950 . S
C455 C451 1.393 . S
C455 C454 1.391 . S
H456 C464 0.950 . S
H457 C469 0.950 . S
H458 C466 0.950 . S
H459 C468 0.950 . S
H460 C470 0.950 . S
H461 C472 0.950 . S
H462 C474 0.950 . S
H463 C475 0.950 . S
C464 H456 0.950 . S
C464 C465 1.386 . S
C464 C466 1.391 . S
C465 C464 1.386 . S
C465 C469 1.393 . S
C466 H458 0.950 . S
C466 C464 1.391 . S
C466 C467 1.400 . S
C467 C466 1.400 . S
C467 C468 1.398 . S
C467 C473 1.491 . S
C468 H459 0.950 . S
C468 C467 1.398 . S
C468 C469 1.391 . S
C469 H457 0.950 . S
C469 C465 1.393 . S
C469 C468 1.391 . S
C470 H460 0.950 . S
C470 C471 1.386 . S
C470 C472 1.391 . S
C471 C470 1.386 . S
C471 C475 1.393 . S
C472 H461 0.950 . S
C472 C470 1.391 . S
C472 C473 1.400 . S
C473 C467 1.491 . S
C473 C472 1.400 . S
C473 C474 1.398 . S
C474 H462 0.950 . S
C474 C473 1.398 . S
C474 C475 1.391 . S
C475 H463 0.950 . S
C475 C471 1.393 . S
C475 C474 1.391 . S
H476 C484 0.950 . S
H477 C489 0.950 . S
H478 C486 0.950 . S
H479 C488 0.950 . S
H480 C490 0.950 . S
H481 C492 0.950 . S
H482 C494 0.950 . S
H483 C495 0.950 . S
C484 H476 0.950 . S
C484 C485 1.386 . S
C484 C486 1.391 . S
C485 C484 1.386 . S
C485 C489 1.393 . S
C486 H478 0.950 . S
C486 C484 1.391 . S
C486 C487 1.400 . S
C487 C486 1.400 . S
C487 C488 1.398 . S
C487 C493 1.491 . S
C488 H479 0.950 . S
C488 C487 1.398 . S
C488 C489 1.391 . S
C489 H477 0.950 . S
C489 C485 1.393 . S
C489 C488 1.391 . S
C490 H480 0.950 . S
C490 C491 1.386 . S
C490 C492 1.391 . S
C491 C490 1.386 . S
C491 C495 1.393 . S
C492 H481 0.950 . S
C492 C490 1.391 . S
C492 C493 1.400 . S
C493 C487 1.491 . S
C493 C492 1.400 . S
C493 C494 1.398 . S
C494 H482 0.950 . S
C494 C493 1.398 . S
C494 C495 1.391 . S
C495 H483 0.950 . S
C495 C491 1.393 . S
C495 C494 1.391 . S
H496 C504 0.950 . S
H497 C509 0.950 . S
H498 C506 0.950 . S
H499 C508 0.950 1_565 S
H500 C510 0.950 . S
H501 C512 0.950 . S
H502 C514 0.950 1_545 S
H503 C515 0.950 . S
C504 H496 0.950 . S
C504 C505 1.386 . S
C504 C506 1.391 . S
C505 C504 1.386 . S
C505 C509 1.393 . S
C506 H498 0.950 . S
C506 C504 1.391 . S
C506 C507 1.400 . S
C507 C506 1.400 . S
C507 C508 1.398 . S
C507 C513 1.491 1_545 S
C508 H499 0.950 1_545 S
C508 C507 1.398 . S
C508 C509 1.391 . S
C509 H497 0.950 . S
C509 C505 1.393 . S
C509 C508 1.391 . S
C510 H500 0.950 . S
C510 C511 1.386 . S
C510 C512 1.391 . S
C511 C510 1.386 . S
C511 C515 1.393 . S
C512 H501 0.950 . S
C512 C510 1.391 . S
C512 C513 1.400 . S
C513 C507 1.491 1_565 S
C513 C512 1.400 . S
C513 C514 1.398 . S
C514 H502 0.950 1_565 S
C514 C513 1.398 . S
C514 C515 1.391 . S
C515 H503 0.950 . S
C515 C511 1.393 . S
C515 C514 1.391 . S
H516 C524 0.950 . S
H517 C529 0.950 . S
H518 C526 0.950 . S
H519 C528 0.950 . S
H520 C530 0.950 . S
H521 C532 0.950 . S
H522 C534 0.950 . S
H523 C535 0.950 . S
C524 H516 0.950 . S
C524 C525 1.386 . S
C524 C526 1.391 . S
C525 C524 1.386 . S
C525 C529 1.393 . S
C526 H518 0.950 . S
C526 C524 1.391 . S
C526 C527 1.400 . S
C527 C526 1.400 . S
C527 C528 1.398 . S
C527 C533 1.491 . S
C528 H519 0.950 . S
C528 C527 1.398 . S
C528 C529 1.391 . S
C529 H517 0.950 . S
C529 C525 1.393 . S
C529 C528 1.391 . S
C530 H520 0.950 . S
C530 C531 1.386 . S
C530 C532 1.391 . S
C531 C530 1.386 . S
C531 C535 1.393 . S
C532 H521 0.950 . S
C532 C530 1.391 . S
C532 C533 1.400 . S
C533 C527 1.491 . S
C533 C532 1.400 . S
C533 C534 1.398 . S
C534 H522 0.950 . S
C534 C533 1.398 . S
C534 C535 1.391 . S
C535 H523 0.950 . S
C535 C531 1.393 . S
C535 C534 1.391 . S
H536 C544 0.950 . S
H537 C549 0.950 . S
H538 C546 0.950 1_565 S
H539 C548 0.950 . S
H540 C550 0.950 . S
H541 C552 0.950 1_545 S
H542 C554 0.950 . S
H543 C555 0.950 . S
C544 H536 0.950 . S
C544 C545 1.386 . S
C544 C546 1.391 . S
C545 C544 1.386 . S
C545 C549 1.393 . S
C546 H538 0.950 1_545 S
C546 C544 1.391 . S
C546 C547 1.400 . S
C547 C546 1.400 . S
C547 C548 1.398 . S
C547 C553 1.491 1_545 S
C548 H539 0.950 . S
C548 C547 1.398 . S
C548 C549 1.391 . S
C549 H537 0.950 . S
C549 C545 1.393 . S
C549 C548 1.391 . S
C550 H540 0.950 . S
C550 C551 1.386 . S
C550 C552 1.391 . S
C551 C550 1.386 . S
C551 C555 1.393 . S
C552 H541 0.950 1_565 S
C552 C550 1.391 . S
C552 C553 1.400 . S
C553 C547 1.491 1_565 S
C553 C552 1.400 . S
C553 C554 1.398 . S
C554 H542 0.950 . S
C554 C553 1.398 . S
C554 C555 1.391 . S
C555 H543 0.950 . S
C555 C551 1.393 . S
C555 C554 1.391 . S
H556 C564 0.950 . S
H557 C569 0.950 . S
H558 C566 0.950 . S
H559 C568 0.950 . S
H560 C570 0.950 . S
H561 C572 0.950 . S
H562 C574 0.950 . S
H563 C575 0.950 . S
C564 H556 0.950 . S
C564 C565 1.386 . S
C564 C566 1.391 . S
C565 C564 1.386 . S
C565 C569 1.393 . S
C566 H558 0.950 . S
C566 C564 1.391 . S
C566 C567 1.400 . S
C567 C566 1.400 . S
C567 C568 1.398 . S
C567 C573 1.491 . S
C568 H559 0.950 . S
C568 C567 1.398 . S
C568 C569 1.391 . S
C569 H557 0.950 . S
C569 C565 1.393 . S
C569 C568 1.391 . S
C570 H560 0.950 . S
C570 C571 1.386 . S
C570 C572 1.391 . S
C571 C570 1.386 . S
C571 C575 1.393 . S
C572 H561 0.950 . S
C572 C570 1.391 . S
C572 C573 1.400 . S
C573 C567 1.491 . S
C573 C572 1.400 . S
C573 C574 1.398 . S
C574 H562 0.950 . S
C574 C573 1.398 . S
C574 C575 1.391 . S
C575 H563 0.950 . S
C575 C571 1.393 . S
C575 C574 1.391 . S
H576 C584 0.950 . S
H577 C589 0.950 . S
H578 C586 0.950 . S
H579 C588 0.950 . S
H580 C590 0.950 . S
H581 C592 0.950 . S
H582 C594 0.950 . S
H583 C595 0.950 . S
C584 H576 0.950 . S
C584 C585 1.386 . S
C584 C586 1.391 . S
C585 C584 1.386 . S
C585 C589 1.393 . S
C586 H578 0.950 . S
C586 C584 1.391 . S
C586 C587 1.400 . S
C587 C586 1.400 . S
C587 C588 1.398 . S
C587 C593 1.491 . S
C588 H579 0.950 . S
C588 C587 1.398 . S
C588 C589 1.391 . S
C589 H577 0.950 . S
C589 C585 1.393 . S
C589 C588 1.391 . S
C590 H580 0.950 . S
C590 C591 1.386 . S
C590 C592 1.391 . S
C591 C590 1.386 . S
C591 C595 1.393 . S
C592 H581 0.950 . S
C592 C590 1.391 . S
C592 C593 1.400 . S
C593 C587 1.491 . S
C593 C592 1.400 . S
C593 C594 1.398 . S
C594 H582 0.950 . S
C594 C593 1.398 . S
C594 C595 1.391 . S
C595 H583 0.950 . S
C595 C591 1.393 . S
C595 C594 1.391 . S
H596 C604 0.950 . S
H597 C609 0.950 . S
H598 C606 0.950 . S
H599 C608 0.950 . S
H600 C610 0.950 . S
H601 C612 0.950 . S
H602 C614 0.950 . S
H603 C615 0.950 . S
C604 H596 0.950 . S
C604 C605 1.386 . S
C604 C606 1.391 . S
C605 C604 1.386 . S
C605 C609 1.393 . S
C606 H598 0.950 . S
C606 C604 1.391 . S
C606 C607 1.400 . S
C607 C606 1.400 . S
C607 C608 1.398 . S
C607 C613 1.491 1_455 S
C608 H599 0.950 . S
C608 C607 1.398 . S
C608 C609 1.391 . S
C609 H597 0.950 . S
C609 C605 1.393 . S
C609 C608 1.391 . S
C610 H600 0.950 . S
C610 C611 1.386 . S
C610 C612 1.391 . S
C611 C610 1.386 . S
C611 C615 1.393 . S
C612 H601 0.950 . S
C612 C610 1.391 . S
C612 C613 1.400 . S
C613 C607 1.491 1_655 S
C613 C612 1.400 . S
C613 C614 1.398 . S
C614 H602 0.950 . S
C614 C613 1.398 . S
C614 C615 1.391 . S
C615 H603 0.950 . S
C615 C611 1.393 . S
C615 C614 1.391 . S
H616 C624 0.950 . S
H617 C629 0.950 . S
H618 C626 0.950 . S
H619 C628 0.950 . S
H620 C630 0.950 . S
H621 C632 0.950 . S
H622 C634 0.950 . S
H623 C635 0.950 . S
C624 H616 0.950 . S
C624 C625 1.386 . S
C624 C626 1.391 . S
C625 C624 1.386 . S
C625 C629 1.393 . S
C626 H618 0.950 . S
C626 C624 1.391 . S
C626 C627 1.400 . S
C627 C626 1.400 . S
C627 C628 1.398 . S
C627 C633 1.491 . S
C628 H619 0.950 . S
C628 C627 1.398 . S
C628 C629 1.391 . S
C629 H617 0.950 . S
C629 C625 1.393 . S
C629 C628 1.391 . S
C630 H620 0.950 . S
C630 C631 1.386 . S
C630 C632 1.391 . S
C631 C630 1.386 . S
C631 C635 1.393 . S
C632 H621 0.950 . S
C632 C630 1.391 . S
C632 C633 1.400 . S
C633 C627 1.491 . S
C633 C632 1.400 . S
C633 C634 1.398 . S
C634 H622 0.950 . S
C634 C633 1.398 . S
C634 C635 1.391 . S
C635 H623 0.950 . S
C635 C631 1.393 . S
C635 C634 1.391 . S
H636 C644 0.950 . S
H637 C649 0.950 . S
H638 C646 0.950 . S
H639 C648 0.950 . S
H640 C650 0.950 . S
H641 C652 0.950 . S
H642 C654 0.950 . S
H643 C655 0.950 . S
C644 H636 0.950 . S
C644 C645 1.386 . S
C644 C646 1.391 . S
C645 C644 1.386 . S
C645 C649 1.393 . S
C646 H638 0.950 . S
C646 C644 1.391 . S
C646 C647 1.400 . S
C647 C646 1.400 . S
C647 C648 1.398 . S
C647 C653 1.491 1_655 S
C648 H639 0.950 . S
C648 C647 1.398 . S
C648 C649 1.391 . S
C649 H637 0.950 . S
C649 C645 1.393 . S
C649 C648 1.391 . S
C650 H640 0.950 . S
C650 C651 1.386 . S
C650 C652 1.391 . S
C651 C650 1.386 . S
C651 C655 1.393 . S
C652 H641 0.950 . S
C652 C650 1.391 . S
C652 C653 1.400 . S
C653 C647 1.491 1_455 S
C653 C652 1.400 . S
C653 C654 1.398 . S
C654 H642 0.950 . S
C654 C653 1.398 . S
C654 C655 1.391 . S
C655 H643 0.950 . S
C655 C651 1.393 . S
C655 C654 1.391 . S
C185 C8 1.667 . S
C191 C158 1.667 . S
C205 C26 1.669 . S
C211 C92 1.668 . S
C225 C52 1.669 . S
C231 C118 1.668 . S
C245 C136 1.667 . S
C251 C74 1.667 . S
C265 C9 1.366 . S
C271 C30 1.459 . S
C285 C48 1.463 . S
C291 C27 1.396 . S
C305 C70 1.456 . S
C311 C53 1.369 . S
C325 C4 1.464 . S
C331 C75 1.380 . S
C345 C93 1.366 . S
C351 C162 1.458 . S
C365 C119 1.389 . S
C371 C96 1.464 . S
C385 C137 1.378 . S
C391 C114 1.455 . S
C405 C140 1.455 . S
C411 C159 1.376 . S
C425 C115 0.752 . S
C431 C5 0.763 . S
C445 C141 0.783 . S
C451 C31 0.762 . S
C465 C163 0.773 . S
C471 C49 0.787 . S
C485 C97 0.753 . S
C491 C71 0.771 . S
C505 C7 1.408 . S
C511 C139 1.433 . S
C525 C28 1.374 . S
C531 C161 1.430 . S
C545 C95 1.422 . S
C551 C51 1.410 . S
C565 C116 1.429 . S
C571 C73 1.375 . S
C585 C50 1.442 . S
C591 C94 1.377 . S
C605 C117 1.383 . S
C611 C72 1.419 . S
C625 C138 1.400 . S
C631 C6 1.415 . S
C645 C160 1.377 . S
C651 C29 1.426 . S
