# Generated by pormake.
# Topology vmq, (7)-cn, num edge types: 1
# Building blocks:
#     Node 0, Type 0, BuildingBlock: HICVOG_clean_sbu_0, # of connection points: 7
#     Node 1, Type 0, BuildingBlock: HICVOG_clean_sbu_0, # of connection points: 7
#     Node 2, Type 0, BuildingBlock: HICVOG_clean_sbu_0, # of connection points: 7
#     Node 3, Type 0, BuildingBlock: HICVOG_clean_sbu_0, # of connection points: 7
#     Node 4, Type 0, BuildingBlock: HICVOG_clean_sbu_0, # of connection points: 7
#     Node 5, Type 0, BuildingBlock: HICVOG_clean_sbu_0, # of connection points: 7
#     Node 6, Type 0, BuildingBlock: HICVOG_clean_sbu_0, # of connection points: 7
#     Node 7, Type 0, BuildingBlock: HICVOG_clean_sbu_0, # of connection points: 7
#     Edge 8, Type (0, 0), None
#     Edge 9, Type (0, 0), None
#     Edge 10, Type (0, 0), None
#     Edge 11, Type (0, 0), None
#     Edge 12, Type (0, 0), None
#     Edge 13, Type (0, 0), None
#     Edge 14, Type (0, 0), None
#     Edge 15, Type (0, 0), None
#     Edge 16, Type (0, 0), None
#     Edge 17, Type (0, 0), None
#     Edge 18, Type (0, 0), None
#     Edge 19, Type (0, 0), None
#     Edge 20, Type (0, 0), None
#     Edge 21, Type (0, 0), None
#     Edge 22, Type (0, 0), None
#     Edge 23, Type (0, 0), None
#     Edge 24, Type (0, 0), None
#     Edge 25, Type (0, 0), None
#     Edge 26, Type (0, 0), None
#     Edge 27, Type (0, 0), None
#     Edge 28, Type (0, 0), None
#     Edge 29, Type (0, 0), None
#     Edge 30, Type (0, 0), None
#     Edge 31, Type (0, 0), None
#     Edge 32, Type (0, 0), None
#     Edge 33, Type (0, 0), None
#     Edge 34, Type (0, 0), None
#     Edge 35, Type (0, 0), None
# Relax obj value: 0.403
# Max RMSD: 0.319
# Mean RMSD: 0.319
data_MOF--net-vmq--node1-HICVOG_clean_sbu_0--edge1-none
_symmetry_space_group_name_H-M    P1
_symmetry_Int_Tables_number       1
_symmetry_cell_setting            triclinic
loop_
_symmetry_equiv_pos_as_xyz
'x, y, z'
_cell_length_a     23.205066
_cell_length_b     11.41391
_cell_length_c     14.375666
_cell_angle_alpha  89.949615
_cell_angle_beta   105.17972
_cell_angle_gamma 90.080302
loop_
_atom_site_label
_atom_site_type_symbol
_atom_site_fract_x
_atom_site_fract_y
_atom_site_fract_z
_atom_type_partial_charge
Zn0 Zn 0.42287 0.27236 0.28511 0.0
C1 C 0.5126 0.03676 0.17 0.0
N2 N 0.54299 0.01483 0.26459 0.0
C3 C 0.5143 0.08226 0.31811 0.0
N4 N 0.47074 0.14497 0.25739 0.0
N5 N 0.46524 0.10813 0.16814 0.0
C6 C 0.35078 0.84536 1.00452 0.0
O7 O 0.31071 0.82017 1.05122 0.0
O8 O 0.41225 0.23884 0.41148 0.0
Zn9 Zn 0.38712 0.0356 0.13523 0.0
N10 N 0.46091 0.41957 0.2789 0.0
C11 C 0.53462 0.53622 0.23545 0.0
C12 C 0.51136 0.42646 0.24809 0.0
C13 C 0.43195 0.51733 0.29587 0.0
N14 N 0.50542 0.63405 0.2514 0.0
C15 C 0.45468 0.62766 0.28198 0.0
O16 O 0.3127 0.13782 1.10912 0.0
C17 C 0.30052 0.23615 0.14097 0.0
O18 O 0.33943 0.29275 0.20261 0.0
H19 H 0.53264 0.34773 0.23198 0.0
H20 H 0.39079 0.50864 0.31734 0.0
C21 C 0.42217 0.82979 0.23233 0.0
C22 C 0.42289 0.73569 0.29426 0.0
C23 C 0.36035 0.84257 0.37031 0.0
C24 C 0.35781 0.93481 0.30514 0.0
N25 N 0.38827 0.9252 0.23672 0.0
N26 N 0.3918 0.74416 0.36227 0.0
H27 H 0.44613 0.82516 0.17724 0.0
C28 C 0.36348 0.25474 0.43356 0.0
O29 O 0.32141 0.32093 0.3804 0.0
O30 O 0.38255 0.93705 1.02371 0.0
H31 H 0.33155 0.01222 0.30834 0.0
H32 H 0.57515 0.5437 0.21205 0.0
H33 H 0.33686 0.84836 0.42588 0.0
Zn34 Zn 0.65301 0.03569 0.61275 0.0
C35 C 0.52613 0.08225 0.43001 0.0
N36 N 0.49745 0.01464 0.48365 0.0
C37 C 0.52782 0.0367 0.57823 0.0
N38 N 0.57507 0.10849 0.57989 0.0
N39 N 0.56968 0.14522 0.49062 0.0
C40 C 0.67715 0.25482 0.3146 0.0
O41 O 0.71925 0.32104 0.36778 0.0
O42 O 0.65745 0.93693 0.72418 0.0
Zn43 Zn 0.61762 0.27259 0.46282 0.0
N44 N 0.65188 0.92566 0.51122 0.0
C45 C 0.68011 0.84347 0.37791 0.0
C46 C 0.6825 0.93561 0.443 0.0
C47 C 0.61799 0.83001 0.5155 0.0
N48 N 0.64867 0.74481 0.38586 0.0
C49 C 0.61745 0.73601 0.45367 0.0
O50 O 0.70103 0.29289 0.54549 0.0
C51 C 0.73982 0.23619 0.60722 0.0
O52 O 0.72748 0.13784 0.63904 0.0
H53 H 0.70878 0.01317 0.43993 0.0
H54 H 0.59396 0.8251 0.57049 0.0
C55 C 0.60851 0.51759 0.45206 0.0
C56 C 0.58573 0.62769 0.46595 0.0
C57 C 0.50586 0.53552 0.51256 0.0
C58 C 0.52918 0.42599 0.49993 0.0
N59 N 0.57961 0.41957 0.46904 0.0
N60 N 0.53499 0.63361 0.49656 0.0
H61 H 0.64968 0.50927 0.43056 0.0
C62 C 0.68926 0.84545 0.74353 0.0
O63 O 0.72937 0.82053 0.69693 0.0
O64 O 0.62828 0.23908 0.33648 0.0
H65 H 0.50796 0.34706 0.5161 0.0
H66 H 0.70373 0.84952 0.32251 0.0
H67 H 0.46534 0.54262 0.53601 0.0
Zn68 Zn 0.6175 0.74923 0.96311 0.0
C69 C 0.5278 0.98485 1.07825 0.0
N70 N 0.4974 1.00677 0.98366 0.0
C71 C 0.5261 0.93934 0.93015 0.0
N72 N 0.56965 0.87662 0.99086 0.0
N73 N 0.57515 0.91346 1.08012 0.0
C74 C 0.68961 0.17627 0.24373 0.0
O75 O 0.72967 0.20149 0.19702 0.0
O76 O 0.62812 0.78275 0.83673 0.0
Zn77 Zn 0.65326 0.98603 1.113 0.0
N78 N 0.57944 0.60202 0.96929 0.0
C79 C 0.50572 0.48538 1.0127 0.0
C80 C 0.52899 0.59513 1.00008 0.0
C81 C 0.6084 0.50425 0.95231 0.0
N82 N 0.53492 0.38754 0.99674 0.0
C83 C 0.58567 0.39393 0.96618 0.0
O84 O 0.72766 0.88376 0.13909 0.0
C85 C 0.73984 0.78542 1.10726 0.0
O86 O 0.70092 0.72881 1.04562 0.0
H87 H 0.50771 0.67387 1.0162 0.0
H88 H 0.64957 0.51294 0.93085 0.0
C89 C 0.61819 0.19183 1.01588 0.0
C90 C 0.61746 0.28589 0.95391 0.0
C91 C 0.67997 0.17898 0.87784 0.0
C92 C 0.68254 0.08677 0.94305 0.0
N93 N 0.65209 0.09641 1.0115 0.0
N94 N 0.64852 0.2774 0.88588 0.0
H95 H 0.59425 0.19648 1.07099 0.0
C96 C 0.67688 0.76694 0.81462 0.0
O97 O 0.71904 0.70097 0.86785 0.0
O98 O 0.65784 0.08459 0.22453 0.0
H99 H 0.70879 1.00936 0.93985 0.0
H100 H 0.46519 0.4779 1.03609 0.0
H101 H 0.70344 0.17316 0.82225 0.0
Zn102 Zn 0.42274 0.74921 0.78541 0.0
C103 C 0.51261 0.98487 0.67009 0.0
N104 N 0.54305 1.00683 0.76465 0.0
C105 C 0.51429 0.93938 0.81825 0.0
N106 N 0.47067 0.87665 0.7576 0.0
N107 N 0.4652 0.91346 0.66832 0.0
C108 C 0.35104 0.17626 0.50461 0.0
O109 O 0.31095 0.20131 0.55124 0.0
O110 O 0.41209 0.78262 0.91177 0.0
Zn111 Zn 0.38722 0.98601 0.6354 0.0
N112 N 0.46073 0.6022 0.77914 0.0
C113 C 0.53446 0.48621 0.7356 0.0
C114 C 0.51116 0.59575 0.74826 0.0
C115 C 0.4318 0.50418 0.79609 0.0
N116 N 0.5053 0.38812 0.75157 0.0
C117 C 0.45456 0.39406 0.78217 0.0
O118 O 0.31279 0.88378 0.60913 0.0
C119 C 0.30051 0.78544 0.64103 0.0
O120 O 0.33933 0.72885 0.70278 0.0
H121 H 0.53239 0.67467 0.73211 0.0
H122 H 0.39064 0.51252 0.8176 0.0
C123 C 0.42226 0.19173 0.73262 0.0
C124 C 0.42282 0.28576 0.79444 0.0
C125 C 0.36015 0.17835 0.87022 0.0
C126 C 0.35774 0.0862 0.80513 0.0
N127 N 0.38835 0.09612 0.7369 0.0
N128 N 0.3916 0.27698 0.86226 0.0
H129 H 0.44631 0.1966 0.67765 0.0
C130 C 0.36324 0.76678 0.93368 0.0
O131 O 0.32111 0.70067 0.88044 0.0
O132 O 0.38278 0.0847 0.52395 0.0
H133 H 0.33145 1.00866 0.80821 0.0
H134 H 0.57497 0.47908 0.71216 0.0
H135 H 0.33654 0.17232 0.92563 0.0
Zn136 Zn 0.92284 0.77232 0.28514 0.0
C137 C 1.01256 0.53674 0.17 0.0
N138 N 0.04295 0.5148 0.26458 0.0
C139 C 1.01424 0.58222 0.3181 0.0
N140 N 0.97069 0.64494 0.25738 0.0
N141 N 0.9652 0.6081 0.16813 0.0
C142 C 0.85076 0.34526 1.00453 0.0
O143 O 0.81069 0.32007 1.05123 0.0
O144 O 0.91222 0.73877 0.41151 0.0
Zn145 Zn 0.88709 0.53553 0.13524 0.0
N146 N 0.9609 0.91953 0.27896 0.0
C147 C 0.03463 0.03617 0.23556 0.0
C148 C 1.01135 0.92642 0.24817 0.0
C149 C 0.93194 0.0173 0.29593 0.0
N150 N 1.00543 0.13401 0.25151 0.0
C151 C 0.95468 0.12762 0.28207 0.0
O152 O 0.81269 0.63778 1.10914 0.0
C153 C 0.80051 0.73612 0.14099 0.0
O154 O 0.83942 0.79273 0.20263 0.0
H155 H 0.03263 0.84768 0.23206 0.0
H156 H 0.89077 1.00862 0.31739 0.0
C157 C 0.92216 0.32973 0.23237 0.0
C158 C 0.92289 0.23566 0.29434 0.0
C159 C 0.86037 0.34258 0.37039 0.0
C160 C 0.85781 0.43479 0.30519 0.0
N161 N 0.88826 0.42515 0.23675 0.0
N162 N 0.89182 0.24416 0.36236 0.0
H163 H 0.9461 0.32508 0.17727 0.0
C164 C 0.86346 0.75459 0.43362 0.0
O165 O 0.82134 0.82067 0.38044 0.0
O166 O 0.88252 0.43695 1.02372 0.0
H167 H 0.83156 0.5122 0.30838 0.0
H168 H 0.07516 0.04365 0.21217 0.0
H169 H 0.8369 0.3484 0.42598 0.0
Zn170 Zn 0.1176 0.77236 0.46285 0.0
C171 C 0.02772 0.53672 0.57816 0.0
N172 N 0.99729 0.51473 0.4836 0.0
C173 C 0.02605 0.58218 0.43 0.0
N174 N 0.06967 0.64492 0.49064 0.0
N175 N 0.07513 0.60813 0.57993 0.0
C176 C 0.18929 0.34531 0.74362 0.0
O177 O 0.22939 0.3203 0.697 0.0
O178 O 0.12826 0.73893 0.33649 0.0
Zn179 Zn 0.15311 0.53557 0.61285 0.0
N180 N 0.07961 0.91938 0.46911 0.0
C181 C 1.00588 0.03537 0.51264 0.0
C182 C 0.02918 0.92583 0.49999 0.0
C183 C 0.10854 0.01739 0.45216 0.0
N184 N 0.03504 0.13346 0.49668 0.0
C185 C 0.08577 0.12752 0.46607 0.0
O186 O 0.22754 0.63779 0.63912 0.0
C187 C 0.23983 0.73614 0.60723 0.0
O188 O 0.201 0.79272 0.54547 0.0
H189 H 1.00794 0.84691 0.51613 0.0
H190 H 0.1497 1.00905 0.43066 0.0
C191 C 0.11807 0.32985 0.51562 0.0
C192 C 0.11752 0.23582 0.45381 0.0
C193 C 0.1802 0.34323 0.37804 0.0
C194 C 0.18261 0.43537 0.44313 0.0
N195 N 0.15199 0.42546 0.51135 0.0
N196 N 0.14875 0.24459 0.386 0.0
H197 H 0.09402 0.32499 0.57059 0.0
C198 C 0.1771 0.75477 0.31459 0.0
O199 O 0.21921 0.82098 0.36779 0.0
O200 O 0.15755 0.43686 0.7243 0.0
H201 H 0.2089 0.51292 0.44005 0.0
H202 H 0.96536 0.0425 0.53608 0.0
H203 H 0.20381 0.34924 0.32264 0.0
Zn204 Zn 0.11748 0.24922 0.96313 0.0
C205 C 0.02776 0.48483 1.07824 0.0
N206 N 0.99736 0.50674 0.98366 0.0
C207 C 0.02605 0.43931 0.93014 0.0
N208 N 0.06961 0.3766 0.99085 0.0
N209 N 0.07512 0.41345 1.0801 0.0
C210 C 0.18958 0.67622 0.24374 0.0
O211 O 0.22963 0.70145 0.19702 0.0
O212 O 0.1281 0.28271 0.83675 0.0
Zn213 Zn 0.15324 0.48599 1.11301 0.0
N214 N 0.07944 0.10202 0.96935 0.0
C215 C 1.00573 0.98537 1.01281 0.0
C216 C 0.02899 0.09512 1.00017 0.0
C217 C 0.1084 1.00425 0.95238 0.0
N218 N 0.03493 0.88753 0.99686 0.0
C219 C 0.08567 0.89393 0.96627 0.0
O220 O 0.22766 0.38376 0.13911 0.0
C221 C 0.23984 0.28543 1.10726 0.0
O222 O 0.20092 0.22883 1.04562 0.0
H223 H 1.00772 0.17386 1.01629 0.0
H224 H 0.14956 0.01294 0.9309 0.0
C225 C 0.11818 0.69179 1.01591 0.0
C226 C 0.11746 0.78589 0.95398 0.0
C227 C 0.17999 0.679 0.87791 0.0
C228 C 0.18253 0.58677 0.94309 0.0
N229 N 0.15208 0.59638 1.01152 0.0
N230 N 0.14854 0.77742 0.88596 0.0
H231 H 0.09423 0.69643 1.07101 0.0
C232 C 0.17685 0.26679 0.81465 0.0
O233 O 0.21895 0.2007 0.86785 0.0
O234 O 0.15781 0.58452 0.22453 0.0
H235 H 0.20879 0.50936 0.93988 0.0
H236 H 0.96521 0.97788 1.03622 0.0
H237 H 0.20346 0.67321 0.82233 0.0
Zn238 Zn 0.88733 0.48587 0.63552 0.0
C239 C 1.01421 0.43931 0.81823 0.0
N240 N 0.0429 0.50694 0.76459 0.0
C241 C 1.01251 0.48488 0.67002 0.0
N242 N 0.96528 0.41308 0.66836 0.0
N243 N 0.97066 0.37634 0.75763 0.0
C244 C 0.86322 0.26668 0.93368 0.0
O245 O 0.82108 0.20054 0.88047 0.0
O246 O 0.88288 0.58462 0.52408 0.0
Zn247 Zn 0.92273 0.24896 0.78543 0.0
N248 N 0.88847 0.59591 0.73705 0.0
C249 C 0.86026 0.67808 0.87039 0.0
C250 C 0.85787 0.58595 0.80529 0.0
C251 C 0.92236 0.69155 0.73276 0.0
N252 N 0.8917 0.77674 0.86243 0.0
C253 C 0.92291 0.78555 0.7946 0.0
O254 O 0.83932 0.22865 0.70277 0.0
C255 C 0.80053 0.28536 0.64106 0.0
O256 O 0.81286 0.38372 0.60924 0.0
H257 H 0.83159 0.50839 0.80837 0.0
H258 H 0.94638 0.69647 0.67776 0.0
C259 C 0.93184 1.00397 0.7962 0.0
C260 C 0.95463 0.89386 0.78231 0.0
C261 C 0.0345 0.98604 0.73568 0.0
C262 C 1.01117 0.09557 0.74831 0.0
N263 N 0.96075 0.10199 0.77921 0.0
N264 N 1.00536 0.88795 0.75169 0.0
H265 H 0.89069 0.01228 0.81771 0.0
C266 C 0.85108 0.67611 0.50473 0.0
O267 O 0.81099 0.70109 0.55135 0.0
O268 O 0.91208 0.28245 0.91179 0.0
H269 H 0.03239 0.1745 0.73213 0.0
H270 H 0.83665 0.67204 0.9258 0.0
H271 H 0.07501 0.97894 0.71222 0.0
loop_
_geom_bond_atom_site_label_1
_geom_bond_atom_site_label_2
_geom_bond_distance
_geom_bond_site_symmetry_2
_ccdc_geom_bond_type
Zn0 N4 2.020 . S
Zn0 O8 2.019 . S
Zn0 N10 2.119 . S
Zn0 O18 1.975 . S
C1 N2 1.335 . S
C1 N5 1.337 . S
N2 C1 1.335 . S
N2 C3 1.334 . S
C3 N2 1.334 . S
C3 N4 1.336 . S
N4 Zn0 2.020 . S
N4 C3 1.336 . S
N4 N5 1.354 . S
N5 C1 1.337 . S
N5 N4 1.354 . S
N5 Zn9 2.020 1_544 S
C6 O7 1.244 . S
C6 O30 1.257 1_545 S
O7 C6 1.244 . S
O8 Zn0 2.019 . S
O8 C28 1.257 . S
Zn9 N5 2.020 1_566 S
Zn9 O16 1.975 1_565 S
Zn9 N25 2.119 . S
Zn9 O30 2.019 . S
N10 Zn0 2.119 . S
N10 C12 1.334 . S
N10 C13 1.328 . S
C11 C12 1.391 . S
C11 N14 1.329 . S
C11 H32 0.930 1_554 S
C12 N10 1.334 . S
C12 C11 1.391 . S
C12 H19 0.930 . S
C13 N10 1.328 . S
C13 C15 1.392 . S
C13 H20 0.930 . S
N14 C11 1.329 . S
N14 C15 1.331 . S
C15 C13 1.392 . S
C15 N14 1.331 . S
O16 Zn9 1.975 1_545 S
O16 C17 1.252 1_556 S
C17 O16 1.252 1_554 S
C17 O18 1.252 . S
O18 Zn0 1.975 . S
O18 C17 1.252 . S
H19 C12 0.930 . S
H20 C13 0.930 . S
C21 C22 1.392 . S
C21 N25 1.328 . S
C21 H27 0.930 . S
C22 C21 1.392 . S
C22 N26 1.331 1_556 S
C23 C24 1.391 . S
C23 N26 1.329 . S
C23 H33 0.930 . S
C24 C23 1.391 . S
C24 N25 1.334 1_554 S
C24 H31 0.930 . S
N25 Zn9 2.119 . S
N25 C21 1.328 . S
N25 C24 1.334 1_556 S
N26 C22 1.331 1_554 S
N26 C23 1.329 . S
H27 C21 0.930 . S
C28 O8 1.257 . S
C28 O29 1.244 . S
O29 C28 1.244 . S
O30 C6 1.257 1_565 S
O30 Zn9 2.019 . S
H31 C24 0.930 . S
H32 C11 0.930 1_556 S
H33 C23 0.930 . S
Zn34 N38 2.020 1_565 S
Zn34 O42 2.019 . S
Zn34 N44 2.119 . S
Zn34 O52 1.975 1_565 S
C35 N36 1.334 . S
C35 N39 1.336 . S
N36 C35 1.334 . S
N36 C37 1.335 . S
C37 N36 1.335 . S
C37 N38 1.337 . S
N38 Zn34 2.020 1_545 S
N38 C37 1.337 . S
N38 N39 1.354 . S
N39 C35 1.336 . S
N39 N38 1.354 . S
N39 Zn43 2.020 . S
C40 O41 1.244 . S
C40 O64 1.257 . S
O41 C40 1.244 . S
O42 Zn34 2.019 . S
O42 C62 1.257 1_565 S
Zn43 N39 2.020 . S
Zn43 O50 1.975 . S
Zn43 N59 2.119 . S
Zn43 O64 2.019 . S
N44 Zn34 2.119 . S
N44 C46 1.334 . S
N44 C47 1.328 . S
C45 C46 1.391 . S
C45 N48 1.329 . S
C45 H66 0.930 . S
C46 N44 1.334 . S
C46 C45 1.391 . S
C46 H53 0.930 . S
C47 N44 1.328 . S
C47 C49 1.392 . S
C47 H54 0.930 . S
N48 C45 1.329 . S
N48 C49 1.331 . S
C49 C47 1.392 . S
C49 N48 1.331 . S
O50 Zn43 1.975 . S
O50 C51 1.252 . S
C51 O50 1.252 . S
C51 O52 1.252 . S
O52 Zn34 1.975 1_545 S
O52 C51 1.252 . S
H53 C46 0.930 . S
H54 C47 0.930 . S
C55 C56 1.392 . S
C55 N59 1.328 . S
C55 H61 0.930 . S
C56 C55 1.392 . S
C56 N60 1.331 . S
C57 C58 1.391 . S
C57 N60 1.329 . S
C57 H67 0.930 . S
C58 C57 1.391 . S
C58 N59 1.334 . S
C58 H65 0.930 . S
N59 Zn43 2.119 . S
N59 C55 1.328 . S
N59 C58 1.334 . S
N60 C56 1.331 . S
N60 C57 1.329 . S
H61 C55 0.930 . S
C62 O42 1.257 1_545 S
C62 O63 1.244 . S
O63 C62 1.244 . S
O64 C40 1.257 . S
O64 Zn43 2.019 . S
H65 C58 0.930 . S
H66 C45 0.930 . S
H67 C57 0.930 . S
Zn68 N72 2.020 . S
Zn68 O76 2.019 . S
Zn68 N78 2.119 . S
Zn68 O86 1.975 . S
C69 N70 1.335 . S
C69 N73 1.337 . S
N70 C69 1.335 . S
N70 C71 1.334 . S
C71 N70 1.334 . S
C71 N72 1.336 . S
N72 Zn68 2.020 . S
N72 C71 1.336 . S
N72 N73 1.354 . S
N73 C69 1.337 . S
N73 N72 1.354 . S
N73 Zn77 2.020 1_566 S
C74 O75 1.244 . S
C74 O98 1.257 1_565 S
O75 C74 1.244 . S
O76 Zn68 2.019 . S
O76 C96 1.257 . S
Zn77 N73 2.020 1_544 S
Zn77 O84 1.975 1_545 S
Zn77 N93 2.119 . S
Zn77 O98 2.019 . S
N78 Zn68 2.119 . S
N78 C80 1.334 . S
N78 C81 1.328 . S
C79 C80 1.391 . S
C79 N82 1.329 . S
C79 H100 0.930 1_556 S
C80 N78 1.334 . S
C80 C79 1.391 . S
C80 H87 0.930 . S
C81 N78 1.328 . S
C81 C83 1.392 . S
C81 H88 0.930 . S
N82 C79 1.329 . S
N82 C83 1.331 . S
C83 C81 1.392 . S
C83 N82 1.331 . S
O84 Zn77 1.975 1_565 S
O84 C85 1.252 1_554 S
C85 O84 1.252 1_556 S
C85 O86 1.252 . S
O86 Zn68 1.975 . S
O86 C85 1.252 . S
H87 C80 0.930 . S
H88 C81 0.930 . S
C89 C90 1.392 . S
C89 N93 1.328 . S
C89 H95 0.930 . S
C90 C89 1.392 . S
C90 N94 1.331 1_554 S
C91 C92 1.391 . S
C91 N94 1.329 . S
C91 H101 0.930 . S
C92 C91 1.391 . S
C92 N93 1.334 1_556 S
C92 H99 0.930 . S
N93 Zn77 2.119 . S
N93 C89 1.328 . S
N93 C92 1.334 1_554 S
N94 C90 1.331 1_556 S
N94 C91 1.329 . S
H95 C89 0.930 . S
C96 O76 1.257 . S
C96 O97 1.244 . S
O97 C96 1.244 . S
O98 C74 1.257 1_545 S
O98 Zn77 2.019 . S
H99 C92 0.930 . S
H100 C79 0.930 1_554 S
H101 C91 0.930 . S
Zn102 N106 2.020 . S
Zn102 O110 2.019 . S
Zn102 N112 2.119 . S
Zn102 O120 1.975 . S
C103 N104 1.335 . S
C103 N107 1.337 . S
N104 C103 1.335 . S
N104 C105 1.334 . S
C105 N104 1.334 . S
C105 N106 1.336 . S
N106 Zn102 2.020 . S
N106 C105 1.336 . S
N106 N107 1.354 . S
N107 C103 1.337 . S
N107 N106 1.354 . S
N107 Zn111 2.020 1_565 S
C108 O109 1.244 . S
C108 O132 1.257 1_565 S
O109 C108 1.244 . S
O110 Zn102 2.019 . S
O110 C130 1.257 . S
Zn111 N107 2.020 1_545 S
Zn111 O118 1.975 1_545 S
Zn111 N127 2.119 . S
Zn111 O132 2.019 . S
N112 Zn102 2.119 . S
N112 C114 1.334 . S
N112 C115 1.328 . S
C113 C114 1.391 . S
C113 N116 1.329 . S
C113 H134 0.930 . S
C114 N112 1.334 . S
C114 C113 1.391 . S
C114 H121 0.930 . S
C115 N112 1.328 . S
C115 C117 1.392 . S
C115 H122 0.930 . S
N116 C113 1.329 . S
N116 C117 1.331 . S
C117 C115 1.392 . S
C117 N116 1.331 . S
O118 Zn111 1.975 1_565 S
O118 C119 1.252 . S
C119 O118 1.252 . S
C119 O120 1.252 . S
O120 Zn102 1.975 . S
O120 C119 1.252 . S
H121 C114 0.930 . S
H122 C115 0.930 . S
C123 C124 1.392 . S
C123 N127 1.328 . S
C123 H129 0.930 . S
C124 C123 1.392 . S
C124 N128 1.331 . S
C125 C126 1.391 . S
C125 N128 1.329 . S
C125 H135 0.930 . S
C126 C125 1.391 . S
C126 N127 1.334 . S
C126 H133 0.930 . S
N127 Zn111 2.119 . S
N127 C123 1.328 . S
N127 C126 1.334 . S
N128 C124 1.331 . S
N128 C125 1.329 . S
H129 C123 0.930 . S
C130 O110 1.257 . S
C130 O131 1.244 . S
O131 C130 1.244 . S
O132 C108 1.257 1_545 S
O132 Zn111 2.019 . S
H133 C126 0.930 . S
H134 C113 0.930 . S
H135 C125 0.930 . S
Zn136 N140 2.020 . S
Zn136 O144 2.019 . S
Zn136 N146 2.119 . S
Zn136 O154 1.975 . S
C137 N138 1.334 1_655 S
C137 N141 1.336 . S
N138 C137 1.334 1_455 S
N138 C139 1.334 1_455 S
C139 N138 1.334 1_655 S
C139 N140 1.336 . S
N140 Zn136 2.020 . S
N140 C139 1.336 . S
N140 N141 1.354 . S
N141 C137 1.336 . S
N141 N140 1.354 . S
N141 Zn145 2.020 1_554 S
C142 O143 1.244 . S
C142 O166 1.257 . S
O143 C142 1.244 . S
O144 Zn136 2.019 . S
O144 C164 1.257 . S
Zn145 N141 2.020 1_556 S
Zn145 O152 1.975 . S
Zn145 N161 2.119 . S
Zn145 O166 2.019 . S
N146 Zn136 2.119 . S
N146 C148 1.334 . S
N146 C149 1.328 . S
C147 C148 1.391 . S
C147 N150 1.329 1_565 S
C147 H168 0.930 1_554 S
C148 N146 1.334 . S
C148 C147 1.391 . S
C148 H155 0.930 . S
C149 N146 1.328 . S
C149 C151 1.392 1_565 S
C149 H156 0.930 . S
N150 C147 1.329 1_545 S
N150 C151 1.331 . S
C151 C149 1.392 1_545 S
C151 N150 1.331 . S
O152 Zn145 1.975 . S
O152 C153 1.252 1_556 S
C153 O152 1.252 1_554 S
C153 O154 1.252 . S
O154 Zn136 1.975 . S
O154 C153 1.252 . S
H155 C148 0.930 . S
H156 C149 0.930 . S
C157 C158 1.392 . S
C157 N161 1.328 . S
C157 H163 0.930 . S
C158 C157 1.392 . S
C158 N162 1.331 1_556 S
C159 C160 1.391 . S
C159 N162 1.329 . S
C159 H169 0.930 . S
C160 C159 1.391 . S
C160 N161 1.334 1_554 S
C160 H167 0.930 . S
N161 Zn145 2.119 . S
N161 C157 1.328 . S
N161 C160 1.334 1_556 S
N162 C158 1.331 1_554 S
N162 C159 1.329 . S
H163 C157 0.930 . S
C164 O144 1.257 . S
C164 O165 1.244 . S
O165 C164 1.244 . S
O166 C142 1.257 . S
O166 Zn145 2.019 . S
H167 C160 0.930 . S
H168 C147 0.930 1_556 S
H169 C159 0.930 . S
Zn170 N174 2.020 . S
Zn170 O178 2.019 . S
Zn170 N180 2.119 . S
Zn170 O188 1.975 . S
C171 N172 1.334 1_455 S
C171 N175 1.336 . S
N172 C171 1.334 1_655 S
N172 C173 1.334 1_655 S
C173 N172 1.334 1_455 S
C173 N174 1.336 . S
N174 Zn170 2.020 . S
N174 C173 1.336 . S
N174 N175 1.354 . S
N175 C171 1.336 . S
N175 N174 1.354 . S
N175 Zn179 2.020 . S
C176 O177 1.244 . S
C176 O200 1.257 . S
O177 C176 1.244 . S
O178 Zn170 2.019 . S
O178 C198 1.257 . S
Zn179 N175 2.020 . S
Zn179 O186 1.975 . S
Zn179 N195 2.119 . S
Zn179 O200 2.019 . S
N180 Zn170 2.119 . S
N180 C182 1.334 . S
N180 C183 1.328 . S
C181 C182 1.391 . S
C181 N184 1.329 1_565 S
C181 H202 0.930 . S
C182 N180 1.334 . S
C182 C181 1.391 . S
C182 H189 0.930 . S
C183 N180 1.328 . S
C183 C185 1.392 1_565 S
C183 H190 0.930 . S
N184 C181 1.329 1_545 S
N184 C185 1.331 . S
C185 C183 1.392 1_545 S
C185 N184 1.331 . S
O186 Zn179 1.975 . S
O186 C187 1.252 . S
C187 O186 1.252 . S
C187 O188 1.252 . S
O188 Zn170 1.975 . S
O188 C187 1.252 . S
H189 C182 0.930 . S
H190 C183 0.930 . S
C191 C192 1.392 . S
C191 N195 1.328 . S
C191 H197 0.930 . S
C192 C191 1.392 . S
C192 N196 1.331 . S
C193 C194 1.391 . S
C193 N196 1.329 . S
C193 H203 0.930 . S
C194 C193 1.391 . S
C194 N195 1.334 . S
C194 H201 0.930 . S
N195 Zn179 2.119 . S
N195 C191 1.328 . S
N195 C194 1.334 . S
N196 C192 1.331 . S
N196 C193 1.329 . S
H197 C191 0.930 . S
C198 O178 1.257 . S
C198 O199 1.244 . S
O199 C198 1.244 . S
O200 C176 1.257 . S
O200 Zn179 2.019 . S
H201 C194 0.930 . S
H202 C181 0.930 . S
H203 C193 0.930 . S
Zn204 N208 2.020 . S
Zn204 O212 2.019 . S
Zn204 N214 2.119 . S
Zn204 O222 1.975 . S
C205 N206 1.334 1_455 S
C205 N209 1.336 . S
N206 C205 1.334 1_655 S
N206 C207 1.334 1_655 S
C207 N206 1.334 1_455 S
C207 N208 1.336 . S
N208 Zn204 2.020 . S
N208 C207 1.336 . S
N208 N209 1.354 . S
N209 C205 1.336 . S
N209 N208 1.354 . S
N209 Zn213 2.020 1_556 S
C210 O211 1.244 . S
C210 O234 1.257 . S
O211 C210 1.244 . S
O212 Zn204 2.019 . S
O212 C232 1.257 . S
Zn213 N209 2.020 1_554 S
Zn213 O220 1.975 . S
Zn213 N229 2.119 . S
Zn213 O234 2.019 . S
N214 Zn204 2.119 . S
N214 C216 1.334 . S
N214 C217 1.328 . S
C215 C216 1.391 . S
C215 N218 1.329 1_545 S
C215 H236 0.930 1_556 S
C216 N214 1.334 . S
C216 C215 1.391 . S
C216 H223 0.930 . S
C217 N214 1.328 . S
C217 C219 1.392 1_545 S
C217 H224 0.930 . S
N218 C215 1.329 1_565 S
N218 C219 1.331 . S
C219 C217 1.392 1_565 S
C219 N218 1.331 . S
O220 Zn213 1.975 . S
O220 C221 1.252 1_554 S
C221 O220 1.252 1_556 S
C221 O222 1.252 . S
O222 Zn204 1.975 . S
O222 C221 1.252 . S
H223 C216 0.930 . S
H224 C217 0.930 . S
C225 C226 1.392 . S
C225 N229 1.328 . S
C225 H231 0.930 . S
C226 C225 1.392 . S
C226 N230 1.331 1_554 S
C227 C228 1.391 . S
C227 N230 1.329 . S
C227 H237 0.930 . S
C228 C227 1.391 . S
C228 N229 1.334 1_556 S
C228 H235 0.930 . S
N229 Zn213 2.119 . S
N229 C225 1.328 . S
N229 C228 1.334 1_554 S
N230 C226 1.331 1_556 S
N230 C227 1.329 . S
H231 C225 0.930 . S
C232 O212 1.257 . S
C232 O233 1.244 . S
O233 C232 1.244 . S
O234 C210 1.257 . S
O234 Zn213 2.019 . S
H235 C228 0.930 . S
H236 C215 0.930 1_554 S
H237 C227 0.930 . S
Zn238 N242 2.020 . S
Zn238 O246 2.019 . S
Zn238 N248 2.119 . S
Zn238 O256 1.975 . S
C239 N240 1.334 1_655 S
C239 N243 1.336 . S
N240 C239 1.334 1_455 S
N240 C241 1.334 1_455 S
C241 N240 1.334 1_655 S
C241 N242 1.336 . S
N242 Zn238 2.020 . S
N242 C241 1.336 . S
N242 N243 1.354 . S
N243 C239 1.336 . S
N243 N242 1.354 . S
N243 Zn247 2.020 . S
C244 O245 1.244 . S
C244 O268 1.257 . S
O245 C244 1.244 . S
O246 Zn238 2.019 . S
O246 C266 1.257 . S
Zn247 N243 2.020 . S
Zn247 O254 1.975 . S
Zn247 N263 2.119 . S
Zn247 O268 2.019 . S
N248 Zn238 2.119 . S
N248 C250 1.334 . S
N248 C251 1.328 . S
C249 C250 1.391 . S
C249 N252 1.329 . S
C249 H270 0.930 . S
C250 N248 1.334 . S
C250 C249 1.391 . S
C250 H257 0.930 . S
C251 N248 1.328 . S
C251 C253 1.392 . S
C251 H258 0.930 . S
N252 C249 1.329 . S
N252 C253 1.331 . S
C253 C251 1.392 . S
C253 N252 1.331 . S
O254 Zn247 1.975 . S
O254 C255 1.252 . S
C255 O254 1.252 . S
C255 O256 1.252 . S
O256 Zn238 1.975 . S
O256 C255 1.252 . S
H257 C250 0.930 . S
H258 C251 0.930 . S
C259 C260 1.392 1_545 S
C259 N263 1.328 . S
C259 H265 0.930 . S
C260 C259 1.392 1_565 S
C260 N264 1.331 . S
C261 C262 1.391 . S
C261 N264 1.329 1_545 S
C261 H271 0.930 . S
C262 C261 1.391 . S
C262 N263 1.334 . S
C262 H269 0.930 . S
N263 Zn247 2.119 . S
N263 C259 1.328 . S
N263 C262 1.334 . S
N264 C260 1.331 . S
N264 C261 1.329 1_565 S
H265 C259 0.930 . S
C266 O246 1.257 . S
C266 O267 1.244 . S
O267 C266 1.244 . S
O268 C244 1.257 . S
O268 Zn247 2.019 . S
H269 C262 0.930 . S
H270 C249 0.930 . S
H271 C261 0.930 . S
C35 C3 2.802 . S
C105 C71 2.802 . S
C139 C173 2.802 1_655 S
C207 C239 2.802 1_455 S
C22 C15 3.236 1_556 S
C49 C56 3.236 . S
C83 C90 3.236 1_556 S
C124 C117 3.236 . S
C158 C151 3.236 1_556 S
C192 C185 3.236 . S
C219 C226 3.236 1_556 S
C253 C260 3.236 . S
C17 C221 3.039 1_554 S
C51 C255 3.039 . S
C85 C153 3.039 1_556 S
C187 C119 3.039 . S
C6 C130 2.404 1_545 S
C62 C96 2.404 1_545 S
C40 C74 2.404 1_545 S
C108 C28 2.404 1_565 S
C244 C142 2.404 . S
C176 C232 2.404 . S
C198 C210 2.404 . S
C164 C266 2.404 . S
C1 C69 3.045 1_544 S
C37 C103 3.045 1_545 S
C137 C205 3.045 1_654 S
C171 C241 3.045 1_455 S
