# Generated by pormake.
# Topology wmt, (6)-cn, num edge types: 1
# Building blocks:
#     Node 0, Type 0, BuildingBlock: BETDAH_clean_sbu_0, # of connection points: 6
#     Node 1, Type 0, BuildingBlock: BETDAH_clean_sbu_0, # of connection points: 6
#     Node 2, Type 0, BuildingBlock: BETDAH_clean_sbu_0, # of connection points: 6
#     Node 3, Type 0, BuildingBlock: BETDAH_clean_sbu_0, # of connection points: 6
#     Node 4, Type 0, BuildingBlock: BETDAH_clean_sbu_0, # of connection points: 6
#     Node 5, Type 0, BuildingBlock: BETDAH_clean_sbu_0, # of connection points: 6
#     Node 6, Type 0, BuildingBlock: BETDAH_clean_sbu_0, # of connection points: 6
#     Node 7, Type 0, BuildingBlock: BETDAH_clean_sbu_0, # of connection points: 6
#     Node 8, Type 0, BuildingBlock: BETDAH_clean_sbu_0, # of connection points: 6
#     Node 9, Type 0, BuildingBlock: BETDAH_clean_sbu_0, # of connection points: 6
#     Node 10, Type 0, BuildingBlock: BETDAH_clean_sbu_0, # of connection points: 6
#     Node 11, Type 0, BuildingBlock: BETDAH_clean_sbu_0, # of connection points: 6
#     Node 12, Type 0, BuildingBlock: BETDAH_clean_sbu_0, # of connection points: 6
#     Node 13, Type 0, BuildingBlock: BETDAH_clean_sbu_0, # of connection points: 6
#     Node 14, Type 0, BuildingBlock: BETDAH_clean_sbu_0, # of connection points: 6
#     Node 15, Type 0, BuildingBlock: BETDAH_clean_sbu_0, # of connection points: 6
#     Node 16, Type 0, BuildingBlock: BETDAH_clean_sbu_0, # of connection points: 6
#     Node 17, Type 0, BuildingBlock: BETDAH_clean_sbu_0, # of connection points: 6
#     Node 18, Type 0, BuildingBlock: BETDAH_clean_sbu_0, # of connection points: 6
#     Node 19, Type 0, BuildingBlock: BETDAH_clean_sbu_0, # of connection points: 6
#     Node 20, Type 0, BuildingBlock: BETDAH_clean_sbu_0, # of connection points: 6
#     Node 21, Type 0, BuildingBlock: BETDAH_clean_sbu_0, # of connection points: 6
#     Node 22, Type 0, BuildingBlock: BETDAH_clean_sbu_0, # of connection points: 6
#     Node 23, Type 0, BuildingBlock: BETDAH_clean_sbu_0, # of connection points: 6
#     Node 24, Type 0, BuildingBlock: BETDAH_clean_sbu_0, # of connection points: 6
#     Node 25, Type 0, BuildingBlock: BETDAH_clean_sbu_0, # of connection points: 6
#     Node 26, Type 0, BuildingBlock: BETDAH_clean_sbu_0, # of connection points: 6
#     Node 27, Type 0, BuildingBlock: BETDAH_clean_sbu_0, # of connection points: 6
#     Node 28, Type 0, BuildingBlock: BETDAH_clean_sbu_0, # of connection points: 6
#     Node 29, Type 0, BuildingBlock: BETDAH_clean_sbu_0, # of connection points: 6
#     Node 30, Type 0, BuildingBlock: BETDAH_clean_sbu_0, # of connection points: 6
#     Node 31, Type 0, BuildingBlock: BETDAH_clean_sbu_0, # of connection points: 6
#     Node 32, Type 0, BuildingBlock: BETDAH_clean_sbu_0, # of connection points: 6
#     Node 33, Type 0, BuildingBlock: BETDAH_clean_sbu_0, # of connection points: 6
#     Node 34, Type 0, BuildingBlock: BETDAH_clean_sbu_0, # of connection points: 6
#     Node 35, Type 0, BuildingBlock: BETDAH_clean_sbu_0, # of connection points: 6
#     Edge 36, Type (0, 0), BuildingBlock: AJUNOK_clean_linker_0, # of connection points: 2
#     Edge 37, Type (0, 0), BuildingBlock: AJUNOK_clean_linker_0, # of connection points: 2
#     Edge 38, Type (0, 0), BuildingBlock: AJUNOK_clean_linker_0, # of connection points: 2
#     Edge 39, Type (0, 0), BuildingBlock: AJUNOK_clean_linker_0, # of connection points: 2
#     Edge 40, Type (0, 0), BuildingBlock: AJUNOK_clean_linker_0, # of connection points: 2
#     Edge 41, Type (0, 0), BuildingBlock: AJUNOK_clean_linker_0, # of connection points: 2
#     Edge 42, Type (0, 0), BuildingBlock: AJUNOK_clean_linker_0, # of connection points: 2
#     Edge 43, Type (0, 0), BuildingBlock: AJUNOK_clean_linker_0, # of connection points: 2
#     Edge 44, Type (0, 0), BuildingBlock: AJUNOK_clean_linker_0, # of connection points: 2
#     Edge 45, Type (0, 0), BuildingBlock: AJUNOK_clean_linker_0, # of connection points: 2
#     Edge 46, Type (0, 0), BuildingBlock: AJUNOK_clean_linker_0, # of connection points: 2
#     Edge 47, Type (0, 0), BuildingBlock: AJUNOK_clean_linker_0, # of connection points: 2
#     Edge 48, Type (0, 0), BuildingBlock: AJUNOK_clean_linker_0, # of connection points: 2
#     Edge 49, Type (0, 0), BuildingBlock: AJUNOK_clean_linker_0, # of connection points: 2
#     Edge 50, Type (0, 0), BuildingBlock: AJUNOK_clean_linker_0, # of connection points: 2
#     Edge 51, Type (0, 0), BuildingBlock: AJUNOK_clean_linker_0, # of connection points: 2
#     Edge 52, Type (0, 0), BuildingBlock: AJUNOK_clean_linker_0, # of connection points: 2
#     Edge 53, Type (0, 0), BuildingBlock: AJUNOK_clean_linker_0, # of connection points: 2
#     Edge 54, Type (0, 0), BuildingBlock: AJUNOK_clean_linker_0, # of connection points: 2
#     Edge 55, Type (0, 0), BuildingBlock: AJUNOK_clean_linker_0, # of connection points: 2
#     Edge 56, Type (0, 0), BuildingBlock: AJUNOK_clean_linker_0, # of connection points: 2
#     Edge 57, Type (0, 0), BuildingBlock: AJUNOK_clean_linker_0, # of connection points: 2
#     Edge 58, Type (0, 0), BuildingBlock: AJUNOK_clean_linker_0, # of connection points: 2
#     Edge 59, Type (0, 0), BuildingBlock: AJUNOK_clean_linker_0, # of connection points: 2
#     Edge 60, Type (0, 0), BuildingBlock: AJUNOK_clean_linker_0, # of connection points: 2
#     Edge 61, Type (0, 0), BuildingBlock: AJUNOK_clean_linker_0, # of connection points: 2
#     Edge 62, Type (0, 0), BuildingBlock: AJUNOK_clean_linker_0, # of connection points: 2
#     Edge 63, Type (0, 0), BuildingBlock: AJUNOK_clean_linker_0, # of connection points: 2
#     Edge 64, Type (0, 0), BuildingBlock: AJUNOK_clean_linker_0, # of connection points: 2
#     Edge 65, Type (0, 0), BuildingBlock: AJUNOK_clean_linker_0, # of connection points: 2
#     Edge 66, Type (0, 0), BuildingBlock: AJUNOK_clean_linker_0, # of connection points: 2
#     Edge 67, Type (0, 0), BuildingBlock: AJUNOK_clean_linker_0, # of connection points: 2
#     Edge 68, Type (0, 0), BuildingBlock: AJUNOK_clean_linker_0, # of connection points: 2
#     Edge 69, Type (0, 0), BuildingBlock: AJUNOK_clean_linker_0, # of connection points: 2
#     Edge 70, Type (0, 0), BuildingBlock: AJUNOK_clean_linker_0, # of connection points: 2
#     Edge 71, Type (0, 0), BuildingBlock: AJUNOK_clean_linker_0, # of connection points: 2
#     Edge 72, Type (0, 0), BuildingBlock: AJUNOK_clean_linker_0, # of connection points: 2
#     Edge 73, Type (0, 0), BuildingBlock: AJUNOK_clean_linker_0, # of connection points: 2
#     Edge 74, Type (0, 0), BuildingBlock: AJUNOK_clean_linker_0, # of connection points: 2
#     Edge 75, Type (0, 0), BuildingBlock: AJUNOK_clean_linker_0, # of connection points: 2
#     Edge 76, Type (0, 0), BuildingBlock: AJUNOK_clean_linker_0, # of connection points: 2
#     Edge 77, Type (0, 0), BuildingBlock: AJUNOK_clean_linker_0, # of connection points: 2
#     Edge 78, Type (0, 0), BuildingBlock: AJUNOK_clean_linker_0, # of connection points: 2
#     Edge 79, Type (0, 0), BuildingBlock: AJUNOK_clean_linker_0, # of connection points: 2
#     Edge 80, Type (0, 0), BuildingBlock: AJUNOK_clean_linker_0, # of connection points: 2
#     Edge 81, Type (0, 0), BuildingBlock: AJUNOK_clean_linker_0, # of connection points: 2
#     Edge 82, Type (0, 0), BuildingBlock: AJUNOK_clean_linker_0, # of connection points: 2
#     Edge 83, Type (0, 0), BuildingBlock: AJUNOK_clean_linker_0, # of connection points: 2
#     Edge 84, Type (0, 0), BuildingBlock: AJUNOK_clean_linker_0, # of connection points: 2
#     Edge 85, Type (0, 0), BuildingBlock: AJUNOK_clean_linker_0, # of connection points: 2
#     Edge 86, Type (0, 0), BuildingBlock: AJUNOK_clean_linker_0, # of connection points: 2
#     Edge 87, Type (0, 0), BuildingBlock: AJUNOK_clean_linker_0, # of connection points: 2
#     Edge 88, Type (0, 0), BuildingBlock: AJUNOK_clean_linker_0, # of connection points: 2
#     Edge 89, Type (0, 0), BuildingBlock: AJUNOK_clean_linker_0, # of connection points: 2
#     Edge 90, Type (0, 0), BuildingBlock: AJUNOK_clean_linker_0, # of connection points: 2
#     Edge 91, Type (0, 0), BuildingBlock: AJUNOK_clean_linker_0, # of connection points: 2
#     Edge 92, Type (0, 0), BuildingBlock: AJUNOK_clean_linker_0, # of connection points: 2
#     Edge 93, Type (0, 0), BuildingBlock: AJUNOK_clean_linker_0, # of connection points: 2
#     Edge 94, Type (0, 0), BuildingBlock: AJUNOK_clean_linker_0, # of connection points: 2
#     Edge 95, Type (0, 0), BuildingBlock: AJUNOK_clean_linker_0, # of connection points: 2
#     Edge 96, Type (0, 0), BuildingBlock: AJUNOK_clean_linker_0, # of connection points: 2
#     Edge 97, Type (0, 0), BuildingBlock: AJUNOK_clean_linker_0, # of connection points: 2
#     Edge 98, Type (0, 0), BuildingBlock: AJUNOK_clean_linker_0, # of connection points: 2
#     Edge 99, Type (0, 0), BuildingBlock: AJUNOK_clean_linker_0, # of connection points: 2
#     Edge 100, Type (0, 0), BuildingBlock: AJUNOK_clean_linker_0, # of connection points: 2
#     Edge 101, Type (0, 0), BuildingBlock: AJUNOK_clean_linker_0, # of connection points: 2
#     Edge 102, Type (0, 0), BuildingBlock: AJUNOK_clean_linker_0, # of connection points: 2
#     Edge 103, Type (0, 0), BuildingBlock: AJUNOK_clean_linker_0, # of connection points: 2
#     Edge 104, Type (0, 0), BuildingBlock: AJUNOK_clean_linker_0, # of connection points: 2
#     Edge 105, Type (0, 0), BuildingBlock: AJUNOK_clean_linker_0, # of connection points: 2
#     Edge 106, Type (0, 0), BuildingBlock: AJUNOK_clean_linker_0, # of connection points: 2
#     Edge 107, Type (0, 0), BuildingBlock: AJUNOK_clean_linker_0, # of connection points: 2
#     Edge 108, Type (0, 0), BuildingBlock: AJUNOK_clean_linker_0, # of connection points: 2
#     Edge 109, Type (0, 0), BuildingBlock: AJUNOK_clean_linker_0, # of connection points: 2
#     Edge 110, Type (0, 0), BuildingBlock: AJUNOK_clean_linker_0, # of connection points: 2
#     Edge 111, Type (0, 0), BuildingBlock: AJUNOK_clean_linker_0, # of connection points: 2
#     Edge 112, Type (0, 0), BuildingBlock: AJUNOK_clean_linker_0, # of connection points: 2
#     Edge 113, Type (0, 0), BuildingBlock: AJUNOK_clean_linker_0, # of connection points: 2
#     Edge 114, Type (0, 0), BuildingBlock: AJUNOK_clean_linker_0, # of connection points: 2
#     Edge 115, Type (0, 0), BuildingBlock: AJUNOK_clean_linker_0, # of connection points: 2
#     Edge 116, Type (0, 0), BuildingBlock: AJUNOK_clean_linker_0, # of connection points: 2
#     Edge 117, Type (0, 0), BuildingBlock: AJUNOK_clean_linker_0, # of connection points: 2
#     Edge 118, Type (0, 0), BuildingBlock: AJUNOK_clean_linker_0, # of connection points: 2
#     Edge 119, Type (0, 0), BuildingBlock: AJUNOK_clean_linker_0, # of connection points: 2
#     Edge 120, Type (0, 0), BuildingBlock: AJUNOK_clean_linker_0, # of connection points: 2
#     Edge 121, Type (0, 0), BuildingBlock: AJUNOK_clean_linker_0, # of connection points: 2
#     Edge 122, Type (0, 0), BuildingBlock: AJUNOK_clean_linker_0, # of connection points: 2
#     Edge 123, Type (0, 0), BuildingBlock: AJUNOK_clean_linker_0, # of connection points: 2
#     Edge 124, Type (0, 0), BuildingBlock: AJUNOK_clean_linker_0, # of connection points: 2
#     Edge 125, Type (0, 0), BuildingBlock: AJUNOK_clean_linker_0, # of connection points: 2
#     Edge 126, Type (0, 0), BuildingBlock: AJUNOK_clean_linker_0, # of connection points: 2
#     Edge 127, Type (0, 0), BuildingBlock: AJUNOK_clean_linker_0, # of connection points: 2
#     Edge 128, Type (0, 0), BuildingBlock: AJUNOK_clean_linker_0, # of connection points: 2
#     Edge 129, Type (0, 0), BuildingBlock: AJUNOK_clean_linker_0, # of connection points: 2
#     Edge 130, Type (0, 0), BuildingBlock: AJUNOK_clean_linker_0, # of connection points: 2
#     Edge 131, Type (0, 0), BuildingBlock: AJUNOK_clean_linker_0, # of connection points: 2
#     Edge 132, Type (0, 0), BuildingBlock: AJUNOK_clean_linker_0, # of connection points: 2
#     Edge 133, Type (0, 0), BuildingBlock: AJUNOK_clean_linker_0, # of connection points: 2
#     Edge 134, Type (0, 0), BuildingBlock: AJUNOK_clean_linker_0, # of connection points: 2
#     Edge 135, Type (0, 0), BuildingBlock: AJUNOK_clean_linker_0, # of connection points: 2
#     Edge 136, Type (0, 0), BuildingBlock: AJUNOK_clean_linker_0, # of connection points: 2
#     Edge 137, Type (0, 0), BuildingBlock: AJUNOK_clean_linker_0, # of connection points: 2
#     Edge 138, Type (0, 0), BuildingBlock: AJUNOK_clean_linker_0, # of connection points: 2
#     Edge 139, Type (0, 0), BuildingBlock: AJUNOK_clean_linker_0, # of connection points: 2
#     Edge 140, Type (0, 0), BuildingBlock: AJUNOK_clean_linker_0, # of connection points: 2
#     Edge 141, Type (0, 0), BuildingBlock: AJUNOK_clean_linker_0, # of connection points: 2
#     Edge 142, Type (0, 0), BuildingBlock: AJUNOK_clean_linker_0, # of connection points: 2
#     Edge 143, Type (0, 0), BuildingBlock: AJUNOK_clean_linker_0, # of connection points: 2
# Relax obj value: 0.462
# Max RMSD: 0.202
# Mean RMSD: 0.202
data_MOF--net-wmt--node1-BETDAH_clean_sbu_0--edge1-AJUNOK_clean_linker_0
_symmetry_space_group_name_H-M    P1
_symmetry_Int_Tables_number       1
_symmetry_cell_setting            triclinic
loop_
_symmetry_equiv_pos_as_xyz
'x, y, z'
_cell_length_a     58.58243
_cell_length_b     58.57172
_cell_length_c     27.43818
_cell_angle_alpha  89.887966
_cell_angle_beta   90.14266
_cell_angle_gamma 120.05212
loop_
_atom_site_label
_atom_site_type_symbol
_atom_site_fract_x
_atom_site_fract_y
_atom_site_fract_z
_atom_type_partial_charge
Ho0 Ho 0.06586 0.47523 0.20141 0.0
Ho1 Ho 0.0185 0.42684 0.16082 0.0
C2 C 0.02062 0.4313 0.27756 0.0
C3 C 0.09305 0.51412 0.26056 0.0
C4 C 0.08652 0.52216 0.30855 0.0
C5 C 0.08413 0.54491 0.31179 0.0
C6 C 0.07798 0.55263 0.35634 0.0
C7 C 0.07423 0.53801 0.39946 0.0
C8 C 0.07625 0.51502 0.39599 0.0
C9 C 0.0823 0.50726 0.35147 0.0
C10 C 0.07971 0.44634 0.14069 0.0
C11 C 0.05345 0.4789 0.08849 0.0
C12 C 0.98691 0.38454 0.11409 0.0
C13 C 0.99239 0.37661 0.06777 0.0
C14 C 0.01831 0.39092 0.05141 0.0
C15 C 0.02484 0.3867 1.00562 0.0
C16 C 0.00539 0.36873 0.97418 0.0
C17 C 0.97921 0.35358 0.9909 0.0
C18 C 0.97269 0.35754 1.03796 0.0
C19 C 0.00814 0.46539 0.18876 0.0
O20 O 0.04017 0.45546 0.26876 0.0
O21 O 0.0107 0.41432 0.24104 0.0
O22 O 0.09478 0.49258 0.25969 0.0
O23 O 0.08118 0.51624 0.22168 0.0
O24 O 0.09399 0.47143 0.15002 0.0
O25 O 0.06026 0.43676 0.17113 0.0
O26 O 0.03725 0.45264 0.09143 0.0
O27 O 0.0647 0.49288 0.12866 0.0
O28 O 0.98577 0.40621 0.11135 0.0
O29 O 0.00212 0.38503 0.14964 0.0
O30 O 0.99181 0.44033 0.19417 0.0
O31 O 0.02859 0.46721 0.17145 0.0
H32 H 0.08712 0.55689 0.27971 0.0
H33 H 0.07666 0.57041 0.35717 0.0
H34 H 0.07275 0.50268 0.4277 0.0
H35 H 0.08353 0.48943 0.35078 0.0
H36 H 0.03335 0.40597 0.07397 0.0
H37 H 0.04514 0.39789 0.99447 0.0
H38 H 0.96374 0.3396 0.96713 0.0
H39 H 0.95243 0.34657 1.05027 0.0
Ho40 Ho 0.51874 0.59088 0.2102 0.0
Ho41 Ho 0.5633 0.58738 0.16993 0.0
C42 C 0.56413 0.59197 0.28616 0.0
C43 C 0.48032 0.58166 0.2691 0.0
C44 C 0.47088 0.56697 0.31687 0.0
C45 C 0.44767 0.54208 0.31876 0.0
C46 C 0.43871 0.52793 0.36289 0.0
C47 C 0.45254 0.53815 0.40699 0.0
C48 C 0.47592 0.56296 0.40495 0.0
C49 C 0.48478 0.5772 0.36086 0.0
C50 C 0.54732 0.63143 0.14397 0.0
C51 C 0.5117 0.57174 0.09933 0.0
C52 C 0.60175 0.59179 0.11787 0.0
C53 C 0.60819 0.60263 0.069 0.0
C54 C 0.59534 0.61564 0.05175 0.0
C55 C 0.60067 0.62671 1.00588 0.0
C56 C 0.61863 0.6245 0.97561 0.0
C57 C 0.63116 0.61076 0.99232 0.0
C58 C 0.62585 0.59973 1.03909 0.0
C59 C 0.52501 0.54058 0.20802 0.0
O60 O 0.5403 0.58871 0.27902 0.0
O61 O 0.57917 0.59548 0.24778 0.0
O62 O 0.50285 0.60404 0.26851 0.0
O63 O 0.47749 0.56737 0.23051 0.0
O64 O 0.52278 0.62205 0.15624 0.0
O65 O 0.55706 0.62188 0.17489 0.0
O66 O 0.53731 0.57953 0.10193 0.0
O67 O 0.49875 0.5715 0.13919 0.0
O68 O 0.57912 0.56996 0.1209 0.0
O69 O 0.60451 0.60899 0.15112 0.0
O70 O 0.55015 0.55046 0.21479 0.0
O71 O 0.52255 0.55777 0.18517 0.0
H72 H 0.43631 0.53348 0.28588 0.0
H73 H 0.42062 0.50904 0.36253 0.0
H74 H 0.48771 0.57137 0.43742 0.0
H75 H 0.50271 0.59621 0.36129 0.0
H76 H 0.58142 0.61761 0.0744 0.0
H77 H 0.59104 0.63744 0.99451 0.0
H78 H 0.64476 0.60836 0.96918 0.0
H79 H 0.6355 0.58916 0.05184 0.0
Ho80 Ho 0.40739 0.93394 0.20478 0.0
Ho81 Ho 0.41453 0.9776 0.16513 0.0
C82 C 0.40342 0.97583 0.27895 0.0
C83 C 0.41415 0.90382 0.26574 0.0
C84 C 0.42908 0.91009 0.31326 0.0
C85 C 0.45375 0.93331 0.31909 0.0
C86 C 0.46801 0.93882 0.36317 0.0
C87 C 0.458 0.9215 0.40328 0.0
C88 C 0.43325 0.89834 0.39744 0.0
C89 C 0.41905 0.89275 0.35321 0.0
C90 C 0.36769 0.92047 0.13475 0.0
C91 C 0.42512 0.94216 0.09223 0.0
C92 C 0.42266 0.02016 0.12257 0.0
C93 C 0.40706 0.0206 0.0814 0.0
C94 C 0.38138 0.99913 0.07658 0.0
C95 C 0.36922 0.99263 1.03137 0.0
C96 C 0.38226 0.00756 0.99049 0.0
C97 C 0.40686 0.03062 0.99573 0.0
C98 C 0.41937 0.03707 1.04126 0.0
C99 C 0.46634 0.97623 0.19313 0.0
O100 O 0.4012 0.95242 0.27358 0.0
O101 O 0.40602 0.98963 0.23909 0.0
O102 O 0.39258 0.90538 0.26453 0.0
O103 O 0.42837 0.91382 0.22645 0.0
O104 O 0.37798 0.9065 0.1492 0.0
O105 O 0.37605 0.94029 0.16386 0.0
O106 O 0.41732 0.95966 0.09437 0.0
O107 O 0.42603 0.93068 0.13345 0.0
O108 O 0.43592 0.00833 0.11233 0.0
O109 O 0.40986 0.01202 0.16379 0.0
O110 O 0.44423 0.97362 0.20852 0.0
O111 O 0.44425 0.97379 0.20695 0.0
H112 H 0.46214 0.9473 0.28941 0.0
H113 H 0.48682 0.9569 0.36606 0.0
H114 H 0.42495 0.88422 0.42694 0.0
H115 H 0.40023 0.8747 0.35015 0.0
H116 H 0.37177 0.98571 0.10664 0.0
H117 H 0.3505 0.97466 1.02737 0.0
H118 H 0.41741 0.04207 0.96402 0.0
H119 H 0.43947 0.05328 1.04406 0.0
Ho120 Ho 0.4708 0.06819 0.55467 0.0
Ho121 Ho 0.42583 0.01813 0.59876 0.0
C122 C 0.42517 0.0221 0.4815 0.0
C123 C 0.50847 0.09621 0.49283 0.0
C124 C 0.51673 0.09057 0.44413 0.0
C125 C 0.50745 0.06463 0.42718 0.0
C126 C 0.51598 0.05977 0.38203 0.0
C127 C 0.53414 0.08066 0.35203 0.0
C128 C 0.54362 0.10657 0.36968 0.0
C129 C 0.535 0.11139 0.41462 0.0
C130 C 0.44181 0.07861 0.6219 0.0
C131 C 0.47943 0.05525 0.66587 0.0
C132 C 0.38516 0.98252 0.64532 0.0
C133 C 0.37669 0.97559 0.69589 0.0
C134 C 0.39374 0.97448 0.73049 0.0
C135 C 0.38726 0.97185 0.77951 0.0
C136 C 0.36381 0.97064 0.7948 0.0
C137 C 0.34581 0.96975 0.75997 0.0
C138 C 0.35208 0.97175 0.71052 0.0
C139 C 0.466 0.01215 0.56363 0.0
O140 O 0.4482 0.04391 0.48728 0.0
O141 O 0.41076 0.00996 0.52033 0.0
O142 O 0.48625 0.0966 0.49474 0.0
O143 O 0.51135 0.08439 0.53092 0.0
O144 O 0.4656 0.09541 0.60701 0.0
O145 O 0.43253 0.05896 0.59174 0.0
O146 O 0.45416 0.03576 0.66465 0.0
O147 O 0.49124 0.06902 0.6257 0.0
O148 O 0.405 0.97976 0.63187 0.0
O149 O 0.38704 0.00443 0.62921 0.0
O150 O 0.44119 0.9946 0.55936 0.0
O151 O 0.46661 0.0318 0.58243 0.0
H152 H 0.49361 0.048 0.44897 0.0
H153 H 0.50809 0.03954 0.37038 0.0
H154 H 0.55818 0.12334 0.34915 0.0
H155 H 0.54294 0.13158 0.4266 0.0
H156 H 0.41281 0.97725 0.72019 0.0
H157 H 0.4018 0.97324 0.80563 0.0
H158 H 0.32761 0.96878 0.77111 0.0
H159 H 0.3384 0.97181 0.68394 0.0
Ho160 Ho 0.92818 0.4073 0.5556 0.0
Ho161 Ho 0.97585 0.4063 0.59504 0.0
C162 C 0.97278 0.40814 0.47884 0.0
C163 C 0.89999 0.4173 0.49535 0.0
C164 C 0.90664 0.43238 0.44789 0.0
C165 C 0.93178 0.45444 0.43916 0.0
C166 C 0.9378 0.46829 0.39444 0.0
C167 C 0.91908 0.46037 0.3564 0.0
C168 C 0.89381 0.43844 0.36561 0.0
C169 C 0.88776 0.42469 0.41041 0.0
C170 C 0.91548 0.36491 0.61721 0.0
C171 C 0.94182 0.42344 0.66853 0.0
C172 C 0.00868 0.39491 0.63493 0.0
C173 C 0.01034 0.38343 0.68036 0.0
C174 C 0.0328 0.38168 0.6911 0.0
C175 C 0.03534 0.37284 0.73684 0.0
C176 C 0.01531 0.36567 0.77131 0.0
C177 C 0.99235 0.36634 0.75944 0.0
C178 C 0.98982 0.37512 0.71402 0.0
C179 C 0.98606 0.45535 0.56664 0.0
O180 O 0.95442 0.41437 0.48825 0.0
O181 O 0.98202 0.40019 0.51499 0.0
O182 O 0.9001 0.39492 0.49539 0.0
O183 O 0.91068 0.43098 0.53509 0.0
O184 O 0.90084 0.37539 0.6085 0.0
O185 O 0.93427 0.37476 0.5856 0.0
O186 O 0.95794 0.41335 0.66487 0.0
O187 O 0.93023 0.42638 0.62879 0.0
O188 O 0.01037 0.41793 0.63909 0.0
O189 O 0.98959 0.37881 0.60604 0.0
O190 O 0.00262 0.44685 0.56226 0.0
O191 O 0.96571 0.43665 0.58427 0.0
H192 H 0.94694 0.46097 0.46689 0.0
H193 H 0.95736 0.48507 0.38941 0.0
H194 H 0.87843 0.43201 0.33836 0.0
H195 H 0.86817 0.40797 0.41579 0.0
H196 H 0.04871 0.38814 0.665 0.0
H197 H 0.05348 0.37328 0.74649 0.0
H198 H 0.97711 0.36159 0.78642 0.0
H199 H 0.97238 0.37638 0.70578 0.0
Ho200 Ho 0.59004 0.52298 0.55759 0.0
Ho201 Ho 0.58623 0.56717 0.60593 0.0
C202 C 0.58815 0.56851 0.48759 0.0
C203 C 0.58011 0.4856 0.4948 0.0
C204 C 0.56678 0.47796 0.44551 0.0
C205 C 0.55009 0.48722 0.4287 0.0
C206 C 0.53691 0.47899 0.38327 0.0
C207 C 0.53995 0.46122 0.35284 0.0
C208 C 0.55662 0.45195 0.37009 0.0
C209 C 0.5698 0.46022 0.41541 0.0
C210 C 0.63071 0.55078 0.62376 0.0
C211 C 0.57207 0.51435 0.6709 0.0
C212 C 0.59446 0.60939 0.65062 0.0
C213 C 0.61196 0.62632 0.68869 0.0
C214 C 0.62652 0.61796 0.71619 0.0
C215 C 0.63845 0.6309 0.75923 0.0
C216 C 0.63497 0.65166 0.77557 0.0
C217 C 0.62402 0.66256 0.74412 0.0
C218 C 0.61232 0.64973 0.70062 0.0
C219 C 0.53857 0.52787 0.57255 0.0
O220 O 0.58996 0.54699 0.49137 0.0
O221 O 0.58756 0.58084 0.52741 0.0
O222 O 0.60298 0.50746 0.4979 0.0
O223 O 0.56507 0.48288 0.53204 0.0
O224 O 0.62229 0.52676 0.60854 0.0
O225 O 0.62022 0.56063 0.59524 0.0
O226 O 0.57987 0.54011 0.67167 0.0
O227 O 0.57144 0.5024 0.62906 0.0
O228 O 0.57649 0.58561 0.66414 0.0
O229 O 0.60624 0.6095 0.61042 0.0
O230 O 0.54597 0.55275 0.57239 0.0
O231 O 0.55784 0.52654 0.58852 0.0
H232 H 0.54705 0.50074 0.45089 0.0
H233 H 0.52441 0.48674 0.3718 0.0
H234 H 0.55911 0.43775 0.34902 0.0
H235 H 0.58217 0.45238 0.42727 0.0
H236 H 0.62638 0.59996 0.70689 0.0
H237 H 0.64685 0.62219 0.78296 0.0
H238 H 0.62122 0.67856 0.75631 0.0
H239 H 0.60156 0.65665 0.67878 0.0
Ho240 Ho 0.98094 0.57199 0.09904 0.0
Ho241 Ho 0.93156 0.52533 0.05544 0.0
C242 C 0.94393 0.51865 0.16751 0.0
C243 C 0.01689 0.61385 0.14332 0.0
C244 C 0.02348 0.6277 0.19057 0.0
C245 C 0.01775 0.64788 0.19901 0.0
C246 C 0.01762 0.65633 0.24651 0.0
C247 C 0.02432 0.64537 0.28582 0.0
C248 C 0.03608 0.63002 0.27528 0.0
C249 C 0.03495 0.62059 0.22821 0.0
C250 C 0.98836 0.53239 0.06546 0.0
C251 C 0.97734 0.56973 0.98117 0.0
C252 C 0.90363 0.48774 0.99376 0.0
C253 C 0.91016 0.47887 0.94669 0.0
C254 C 0.93549 0.48257 0.93748 0.0
C255 C 0.94114 0.47363 0.89369 0.0
C256 C 0.9217 0.46076 0.85731 0.0
C257 C 0.8965 0.45753 0.86641 0.0
C258 C 0.89084 0.46632 0.91029 0.0
C259 C 0.91982 0.55459 0.11967 0.0
O260 O 0.96216 0.54443 0.16593 0.0
O261 O 0.9314 0.50581 0.12704 0.0
O262 O 0.01659 0.5914 0.14187 0.0
O263 O 0.99739 0.61311 0.11847 0.0
O264 O 0.00558 0.55731 0.06145 0.0
O265 O 0.96842 0.53125 0.08395 0.0
O266 O 0.95751 0.54559 0.98857 0.0
O267 O 0.98795 0.58578 1.019 0.0
O268 O 0.90446 0.51058 0.99356 0.0
O269 O 0.9137 0.48426 1.03391 0.0
O270 O 0.9036 0.53051 0.10559 0.0
O271 O 0.93972 0.56385 0.09026 0.0
H272 H 0.01149 0.65563 0.16933 0.0
H273 H 0.00978 0.66928 0.25216 0.0
H274 H 0.04333 0.62274 0.30427 0.0
H275 H 0.04148 0.6065 0.22213 0.0
H276 H 0.95105 0.49247 0.96417 0.0
H277 H 0.96095 0.47722 0.88806 0.0
H278 H 0.88091 0.4478 0.83972 0.0
H279 H 0.87116 0.46316 0.91586 0.0
Ho280 Ho 0.43566 0.41546 0.09114 0.0
Ho281 Ho 0.47056 0.40526 0.05219 0.0
C282 C 0.4816 0.42504 0.16393 0.0
C283 C 0.40307 0.429 0.1259 0.0
C284 C 0.38494 0.42062 0.16754 0.0
C285 C 0.36205 0.39557 0.16885 0.0
C286 C 0.35079 0.38427 0.21366 0.0
C287 C 0.36315 0.39759 0.25662 0.0
C288 C 0.38253 0.42433 0.25466 0.0
C289 C 0.39326 0.43592 0.21009 0.0
C290 C 0.4899 0.46526 0.06064 0.0
C291 C 0.42486 0.4017 0.97741 0.0
C292 C 0.50658 0.40939 0.99189 0.0
C293 C 0.51512 0.42346 0.94378 0.0
C294 C 0.50799 0.44227 0.93002 0.0
C295 C 0.51708 0.45653 0.88606 0.0
C296 C 0.53341 0.4523 0.85408 0.0
C297 C 0.54034 0.43329 0.86783 0.0
C298 C 0.53134 0.41912 0.91197 0.0
C299 C 0.44382 0.36751 0.12471 0.0
O300 O 0.45655 0.41858 0.16249 0.0
O301 O 0.49318 0.42476 0.12246 0.0
O302 O 0.42791 0.44 0.13797 0.0
O303 O 0.39708 0.41211 0.09029 0.0
O304 O 0.46983 0.44312 1.04646 0.0
O305 O 0.46967 0.44316 1.04788 0.0
O306 O 0.44574 0.39895 0.98303 0.0
O307 O 0.41444 0.40541 1.01723 0.0
O308 O 0.48296 0.38848 0.99409 0.0
O309 O 0.51153 0.42457 1.02999 0.0
O310 O 0.46765 0.37596 0.10935 0.0
O311 O 0.43274 0.37619 0.09522 0.0
H312 H 0.3544 0.38379 0.13615 0.0
H313 H 0.33448 0.3642 0.2149 0.0
H314 H 0.39137 0.43532 0.28779 0.0
H315 H 0.41014 0.45573 0.20966 0.0
H316 H 0.49551 0.44614 0.95357 0.0
H317 H 0.51113 0.47079 0.8769 0.0
H318 H 0.5532 0.42969 0.84484 0.0
H319 H 0.53737 0.40496 0.92153 0.0
Ho320 Ho 0.58841 0.02502 0.09192 0.0
Ho321 Ho 0.59115 0.07281 0.05189 0.0
C322 C 0.57136 0.06066 0.16209 0.0
C323 C 0.5932 0.98966 0.14011 0.0
C324 C 0.59882 0.98749 0.19103 0.0
C325 C 0.59628 0.00374 0.22511 0.0
C326 C 0.6047 0.00481 0.27247 0.0
C327 C 0.61437 0.98839 0.28751 0.0
C328 C 0.61594 0.97115 0.25411 0.0
C329 C 0.60849 0.97094 0.20554 0.0
C330 C 0.54192 0.01603 0.05186 0.0
C331 C 0.59102 0.02849 0.97568 0.0
C332 C 0.58334 0.10166 0.98974 0.0
C333 C 0.56822 0.09443 0.94251 0.0
C334 C 0.54773 0.06846 0.93326 0.0
C335 C 0.5338 0.06171 0.88866 0.0
C336 C 0.53986 0.08069 0.85167 0.0
C337 C 0.56017 0.10676 0.86148 0.0
C338 C 0.57417 0.11345 0.90598 0.0
C339 C 0.63201 0.08474 0.11726 0.0
O340 O 0.57931 0.04286 0.15967 0.0
O341 O 0.57121 0.07336 0.12198 0.0
O342 O 0.57068 0.98855 0.13232 0.0
O343 O 0.61259 0.00891 0.11621 0.0
O344 O 0.55205 0.00097 1.04603 0.0
O345 O 0.55828 0.03553 0.07621 0.0
O346 O 0.5854 0.04736 0.98389 0.0
O347 O 0.59768 0.01888 1.01337 0.0
O348 O 0.60504 0.10031 0.9908 0.0
O349 O 0.5694 0.09205 1.02954 0.0
O350 O 0.62285 0.10014 0.1053 0.0
O351 O 0.62249 0.06567 0.08612 0.0
H352 H 0.58863 0.01637 0.21483 0.0
H353 H 0.6037 0.01862 0.29741 0.0
H354 H 0.62275 0.95793 0.2657 0.0
H355 H 0.61052 0.95822 0.17944 0.0
H356 H 0.54248 0.05326 0.96058 0.0
H357 H 0.51845 0.04145 0.88293 0.0
H358 H 0.56508 0.12223 0.83494 0.0
H359 H 0.58965 0.13364 0.91193 0.0
Ho360 Ho 0.57124 0.97994 0.65769 0.0
Ho361 Ho 0.52435 0.93316 0.70068 0.0
C362 C 0.51827 0.94409 0.58863 0.0
C363 C 0.61546 0.01357 0.61751 0.0
C364 C 0.63219 0.01429 0.57764 0.0
C365 C 0.63176 0.99115 0.56378 0.0
C366 C 0.6405 0.9893 0.51777 0.0
C367 C 0.64939 0.01046 0.48538 0.0
C368 C 0.65398 0.03502 0.50223 0.0
C369 C 0.64512 0.03687 0.54842 0.0
C370 C 0.53319 0.99113 0.68584 0.0
C371 C 0.56693 0.97956 0.77482 0.0
C372 C 0.48765 0.90484 0.76346 0.0
C373 C 0.47868 0.91063 0.81151 0.0
C374 C 0.46016 0.91936 0.81306 0.0
C375 C 0.45158 0.92443 0.85778 0.0
C376 C 0.46112 0.921 0.90297 0.0
C377 C 0.47937 0.91194 0.90144 0.0
C378 C 0.48799 0.90691 0.85668 0.0
C379 C 0.55227 0.91916 0.63662 0.0
O380 O 0.54459 0.96038 0.5897 0.0
O381 O 0.50499 0.93348 0.6297 0.0
O382 O 0.59265 0.01069 0.60453 0.0
O383 O 0.61354 0.99859 0.65445 0.0
O384 O 0.55832 0.00724 0.68988 0.0
O385 O 0.53072 0.97007 0.67002 0.0
O386 O 0.5425 0.96078 0.76636 0.0
O387 O 0.58385 0.98782 0.73819 0.0
O388 O 0.51072 0.90615 0.76251 0.0
O389 O 0.48332 0.91446 0.72345 0.0
O390 O 0.52767 0.9045 0.64909 0.0
O391 O 0.56241 0.93867 0.66698 0.0
H392 H 0.62184 0.97369 0.58619 0.0
H393 H 0.63591 0.97013 0.50445 0.0
H394 H 0.66053 0.0515 0.47729 0.0
H395 H 0.64583 0.05503 0.55904 0.0
H396 H 0.4521 0.9222 0.77954 0.0
H397 H 0.43704 0.93067 0.85683 0.0
H398 H 0.48732 0.90903 0.93503 0.0
H399 H 0.50205 0.90003 0.85754 0.0
Ho400 Ho 0.01701 0.59145 0.65737 0.0
Ho401 Ho 0.06546 0.59205 0.69965 0.0
C402 C 0.05248 0.57382 0.58771 0.0
C403 C 0.98262 0.6004 0.61487 0.0
C404 C 0.9781 0.61191 0.57068 0.0
C405 C 0.99478 0.63845 0.55862 0.0
C406 C 0.99397 0.64768 0.51213 0.0
C407 C 0.97663 0.63018 0.477 0.0
C408 C 0.9568 0.60497 0.49199 0.0
C409 C 0.95773 0.59577 0.5385 0.0
C410 C 0.00773 0.54332 0.68871 0.0
C411 C 0.02033 0.591 0.77543 0.0
C412 C 0.09229 0.58004 0.75983 0.0
C413 C 0.08576 0.5651 0.80775 0.0
C414 C 0.09009 0.54364 0.81405 0.0
C415 C 0.08411 0.52947 0.85852 0.0
C416 C 0.07353 0.53618 0.8986 0.0
C417 C 0.06865 0.55731 0.8917 0.0
C418 C 0.07489 0.57163 0.84749 0.0
C419 C 0.07836 0.63345 0.63496 0.0
O420 O 0.03465 0.58185 0.58987 0.0
O421 O 0.06486 0.57293 0.62788 0.0
O422 O 0.9836 0.57876 0.60892 0.0
O423 O 0.00041 0.61664 0.64579 0.0
O424 O 0.99124 0.55185 0.69362 0.0
O425 O 0.02807 0.56203 0.67097 0.0
O426 O 0.04042 0.58723 0.7673 0.0
O427 O 0.00959 0.59664 0.73803 0.0
O428 O 0.09372 0.6032 0.75917 0.0
O429 O 0.08067 0.56626 0.72066 0.0
O430 O 0.09389 0.62463 0.64857 0.0
O431 O 0.05876 0.62359 0.66514 0.0
H432 H 0.01015 0.6512 0.5833 0.0
H433 H 0.00948 0.66713 0.50179 0.0
H434 H 0.94275 0.59127 0.46584 0.0
H435 H 0.9439 0.57543 0.54782 0.0
H436 H 0.09833 0.53786 0.78446 0.0
H437 H 0.08826 0.51348 0.86174 0.0
H438 H 0.05968 0.56278 0.92042 0.0
H439 H 0.07101 0.5878 0.84447 0.0
Ho440 Ho 0.39632 0.42234 0.65538 0.0
Ho441 Ho 0.40057 0.47096 0.70709 0.0
C442 C 0.41431 0.47763 0.59222 0.0
C443 C 0.38114 0.38158 0.59977 0.0
C444 C 0.37123 0.3749 0.54975 0.0
C445 C 0.36934 0.39366 0.52114 0.0
C446 C 0.36218 0.38857 0.47237 0.0
C447 C 0.35759 0.36493 0.45097 0.0
C448 C 0.35896 0.34577 0.47958 0.0
C449 C 0.3655 0.35066 0.52914 0.0
C450 C 0.44607 0.45797 0.68399 0.0
C451 C 0.39842 0.42244 0.77474 0.0
C452 C 0.41605 0.51003 0.76802 0.0
C453 C 0.42993 0.51773 0.81677 0.0
C454 C 0.45584 0.53933 0.8203 0.0
C455 C 0.4689 0.54751 0.86561 0.0
C456 C 0.45643 0.53457 0.90924 0.0
C457 C 0.43064 0.51269 0.90566 0.0
C458 C 0.41761 0.50442 0.86028 0.0
C459 C 0.357 0.44503 0.64686 0.0
O460 O 0.40483 0.4515 0.59166 0.0
O461 O 0.41728 0.49032 0.63415 0.0
O462 O 0.40566 0.40047 0.60372 0.0
O463 O 0.36562 0.38411 0.63086 0.0
O464 O 0.43642 0.43255 0.68442 0.0
O465 O 0.42789 0.46188 0.67041 0.0
O466 O 0.40115 0.44622 0.7713 0.0
O467 O 0.39409 0.40792 0.73466 0.0
O468 O 0.39175 0.49008 0.76621 0.0
O469 O 0.43003 0.51029 0.73059 0.0
O470 O 0.36735 0.46928 0.66214 0.0
O471 O 0.3673 0.43439 0.67341 0.0
H472 H 0.37432 0.41267 0.536 0.0
H473 H 0.36184 0.40383 0.45048 0.0
H474 H 0.35603 0.32766 0.46327 0.0
H475 H 0.36711 0.33603 0.5508 0.0
H476 H 0.46601 0.55018 0.78784 0.0
H477 H 0.48866 0.56442 0.86658 0.0
H478 H 0.42049 0.50179 0.93808 0.0
H479 H 0.39779 0.48763 0.85944 0.0
Ho480 Ho 0.73215 0.80291 0.53652 0.0
Ho481 Ho 0.68272 0.75681 0.4932 0.0
C482 C 0.68694 0.75747 0.61116 0.0
C483 C 0.75874 0.84177 0.59666 0.0
C484 C 0.75231 0.85021 0.64461 0.0
C485 C 0.73745 0.86317 0.64617 0.0
C486 C 0.73214 0.87173 0.69065 0.0
C487 C 0.74137 0.86767 0.73562 0.0
C488 C 0.75626 0.85474 0.73401 0.0
C489 C 0.76161 0.84618 0.68946 0.0
C490 C 0.7443 0.77473 0.4711 0.0
C491 C 0.71916 0.80919 0.42371 0.0
C492 C 0.64541 0.71522 0.45082 0.0
C493 C 0.63675 0.70219 0.4032 0.0
C494 C 0.64014 0.68079 0.39156 0.0
C495 C 0.63903 0.67333 0.34299 0.0
C496 C 0.63307 0.68639 0.30646 0.0
C497 C 0.62316 0.70286 0.3202 0.0
C498 C 0.62581 0.71144 0.36818 0.0
C499 C 0.67594 0.79678 0.52708 0.0
O500 O 0.70881 0.78042 0.60492 0.0
O501 O 0.67456 0.74293 0.57254 0.0
O502 O 0.76056 0.82029 0.59615 0.0
O503 O 0.74703 0.84369 0.55739 0.0
O504 O 0.76048 0.79861 0.48639 0.0
O505 O 0.72416 0.76479 0.50023 0.0
O506 O 0.70051 0.78361 0.42551 0.0
O507 O 0.73225 0.82189 0.46395 0.0
O508 O 0.64559 0.73746 0.45568 0.0
O509 O 0.6661 0.71596 0.47097 0.0
O510 O 0.65919 0.77195 0.53347 0.0
O511 O 0.69555 0.79759 0.50791 0.0
H512 H 0.73006 0.86703 0.61279 0.0
H513 H 0.72124 0.88215 0.68948 0.0
H514 H 0.76375 0.85104 0.76742 0.0
H515 H 0.77321 0.83648 0.69018 0.0
H516 H 0.64591 0.67149 0.41929 0.0
H517 H 0.6454 0.65941 0.33395 0.0
H518 H 0.61621 0.71144 0.2931 0.0
H519 H 0.62089 0.72649 0.37693 0.0
Ho520 Ho 0.19061 0.92618 0.53427 0.0
Ho521 Ho 0.24093 0.93137 0.48846 0.0
C522 C 0.23763 0.92881 0.6077 0.0
C523 C 0.14965 0.90884 0.59102 0.0
C524 C 0.14157 0.89493 0.63959 0.0
C525 C 0.11667 0.87208 0.64495 0.0
C526 C 0.10847 0.85879 0.69006 0.0
C527 C 0.12483 0.86796 0.73165 0.0
C528 C 0.15 0.8906 0.72596 0.0
C529 C 0.1582 0.90389 0.6808 0.0
C530 C 0.21765 0.97039 0.47664 0.0
C531 C 0.18832 0.91386 0.4183 0.0
C532 C 0.28537 0.94729 0.4446 0.0
C533 C 0.29964 0.95969 0.39971 0.0
C534 C 0.28606 0.95957 0.35764 0.0
C535 C 0.29968 0.96942 0.31417 0.0
C536 C 0.32694 0.9789 0.31194 0.0
C537 C 0.3407 0.98004 0.3543 0.0
C538 C 0.32709 0.97036 0.39809 0.0
C539 C 0.20437 0.88119 0.51395 0.0
O540 O 0.21406 0.92643 0.60193 0.0
O541 O 0.2528 0.93274 0.56896 0.0
O542 O 0.16879 0.93356 0.59015 0.0
O543 O 0.15121 0.89529 0.55454 0.0
O544 O 0.19289 0.9596 0.48895 0.0
O545 O 0.22796 0.96006 0.50411 0.0
O546 O 0.21454 0.92392 0.42077 0.0
O547 O 0.17415 0.91022 0.45871 0.0
O548 O 0.2652 0.92339 0.44046 0.0
O549 O 0.2808 0.96213 0.47397 0.0
O550 O 0.2297 0.89079 0.51701 0.0
O551 O 0.20119 0.89964 0.49962 0.0
H552 H 0.10337 0.8645 0.61408 0.0
H553 H 0.089 0.84154 0.69257 0.0
H554 H 0.16359 0.89802 0.7564 0.0
H555 H 0.17761 0.9212 0.67825 0.0
H556 H 0.26484 0.95079 0.3578 0.0
H557 H 0.28865 0.96799 0.28141 0.0
H558 H 0.36161 0.98748 0.35309 0.0
H559 H 0.3379 0.97033 0.43014 0.0
Ho560 Ho 0.07393 0.26449 0.53618 0.0
Ho561 Ho 0.07203 0.31179 0.49197 0.0
C562 C 0.07265 0.30992 0.60926 0.0
C563 C 0.08674 0.23895 0.59806 0.0
C564 C 0.10132 0.24615 0.64615 0.0
C565 C 0.12082 0.27231 0.65721 0.0
C566 C 0.13528 0.27857 0.7013 0.0
C567 C 0.1306 0.25895 0.73624 0.0
C568 C 0.11052 0.23293 0.72566 0.0
C569 C 0.09627 0.22663 0.68132 0.0
C570 C 0.0315 0.25009 0.47447 0.0
C571 C 0.09051 0.27686 0.42322 0.0
C572 C 0.05929 0.34039 0.43996 0.0
C573 C 0.04814 0.33531 0.3911 0.0
C574 C 0.03968 0.31044 0.37109 0.0
C575 C 0.03027 0.30489 0.32388 0.0
C576 C 0.02983 0.32444 0.29521 0.0
C577 C 0.03778 0.34939 0.3153 0.0
C578 C 0.047 0.35485 0.36342 0.0
C579 C 0.12081 0.32309 0.52296 0.0
O580 O 0.07545 0.28906 0.60254 0.0
O581 O 0.0686 0.32151 0.57129 0.0
O582 O 0.06332 0.23679 0.59686 0.0
O583 O 0.10055 0.25087 0.55914 0.0
O584 O 0.04187 0.23556 0.48549 0.0
O585 O 0.04144 0.26984 0.50416 0.0
O586 O 0.08086 0.29332 0.42552 0.0
O587 O 0.09261 0.26504 0.4633 0.0
O588 O 0.08321 0.3441 0.44187 0.0
O589 O 0.04378 0.3238 0.47323 0.0
O590 O 0.11224 0.33973 0.52416 0.0
O591 O 0.10235 0.30218 0.5062 0.0
H592 H 0.12499 0.28801 0.63163 0.0
H593 H 0.15003 0.29893 0.70822 0.0
H594 H 0.10616 0.21721 0.75136 0.0
H595 H 0.08139 0.20633 0.67433 0.0
H596 H 0.04099 0.29549 0.39178 0.0
H597 H 0.02406 0.28551 0.30916 0.0
H598 H 0.03751 0.3647 0.29351 0.0
H599 H 0.0536 0.37423 0.3786 0.0
Ho600 Ho 0.13789 0.39846 0.89074 0.0
Ho601 Ho 0.09142 0.34842 0.93142 0.0
C602 C 0.0946 0.35394 0.81328 0.0
C603 C 0.17819 0.42564 0.83425 0.0
C604 C 0.18684 0.42008 0.7859 0.0
C605 C 0.20856 0.41592 0.78362 0.0
C606 C 0.21701 0.41068 0.739 0.0
C607 C 0.20424 0.40964 0.69473 0.0
C608 C 0.18228 0.41348 0.69707 0.0
C609 C 0.17376 0.41862 0.74176 0.0
C610 C 0.10924 0.40944 0.95701 0.0
C611 C 0.1424 0.38393 1.00351 0.0
C612 C 0.04632 0.31267 0.96476 0.0
C613 C 0.02721 0.30816 1.00276 0.0
C614 C 0.02583 0.32935 1.02255 0.0
C615 C 0.01335 0.32651 0.06701 0.0
C616 C 0.00325 0.30269 0.0925 0.0
C617 C 0.00048 0.28028 0.06855 0.0
C618 C 0.01275 0.28309 1.02371 0.0
C619 C 0.13209 0.34176 0.90048 0.0
O620 O 0.11565 0.3774 0.82055 0.0
O621 O 0.08114 0.33955 0.85107 0.0
O622 O 0.15749 0.42881 0.83517 0.0
O623 O 0.17864 0.41195 0.87167 0.0
O624 O 0.13323 0.42592 0.94265 0.0
O625 O 0.09946 0.38991 0.92647 0.0
O626 O 0.11714 0.36465 1.00027 0.0
O627 O 0.15549 0.39781 0.96425 0.0
O628 O 0.06886 0.31539 0.97957 0.0
O629 O 0.04914 0.32979 0.93113 0.0
O630 O 0.10733 0.32403 0.89668 0.0
O631 O 0.1322 0.36144 0.91773 0.0
H632 H 0.21918 0.4168 0.81659 0.0
H633 H 0.23395 0.40791 0.7391 0.0
H634 H 0.17141 0.41224 0.66427 0.0
H635 H 0.15682 0.42139 0.74161 0.0
H636 H 0.03698 0.34867 1.0064 0.0
H637 H 0.01575 0.34398 0.08504 0.0
H638 H 0.99273 0.26172 0.08786 0.0
H639 H 0.01327 0.26636 1.00814 0.0
Ho640 Ho 0.59726 0.73608 0.89119 0.0
Ho641 Ho 0.64504 0.7359 0.93384 0.0
C642 C 0.64186 0.73582 0.81536 0.0
C643 C 0.57066 0.74845 0.83113 0.0
C644 C 0.57705 0.76254 0.78259 0.0
C645 C 0.60243 0.78379 0.77174 0.0
C646 C 0.60786 0.79717 0.72652 0.0
C647 C 0.58821 0.78966 0.69028 0.0
C648 C 0.56285 0.76839 0.70143 0.0
C649 C 0.55743 0.75508 0.74661 0.0
C650 C 0.58329 0.69465 0.95519 0.0
C651 C 0.60987 0.7527 1.00458 0.0
C652 C 0.67784 0.72441 0.97451 0.0
C653 C 0.67844 0.70985 1.01723 0.0
C654 C 0.65553 0.68704 1.03188 0.0
C655 C 0.6531 0.67819 0.07959 0.0
C656 C 0.67365 0.69214 0.11276 0.0
C657 C 0.69821 0.71215 0.09575 0.0
C658 C 0.7005 0.72122 1.048 0.0
C659 C 0.65531 0.78474 0.90394 0.0
O660 O 0.62011 0.73692 0.82249 0.0
O661 O 0.6544 0.73341 0.8535 0.0
O662 O 0.56834 0.72497 0.83248 0.0
O663 O 0.58324 0.76255 0.86935 0.0
O664 O 0.56823 0.70399 0.94152 0.0
O665 O 0.60314 0.70413 0.92555 0.0
O666 O 0.62662 0.74333 1.00239 0.0
O667 O 0.59843 0.75509 0.96416 0.0
O668 O 0.67707 0.74591 0.98413 0.0
O669 O 0.66148 0.71033 0.93971 0.0
O670 O 0.67187 0.77621 0.90088 0.0
O671 O 0.63467 0.76592 0.92063 0.0
H672 H 0.61815 0.79014 0.79831 0.0
H673 H 0.62764 0.81328 0.71974 0.0
H674 H 0.54689 0.76224 0.67548 0.0
H675 H 0.53766 0.73899 0.75361 0.0
H676 H 0.6386 0.6779 1.00807 0.0
H677 H 0.63416 0.66258 0.09199 0.0
H678 H 0.7145 0.72277 0.12079 0.0
H679 H 0.71857 0.73861 1.03673 0.0
Ho680 Ho 0.26136 0.86039 0.8852 0.0
Ho681 Ho 0.26046 0.90699 0.93078 0.0
C682 C 0.26026 0.90568 0.81205 0.0
C683 C 0.25029 0.82203 0.82484 0.0
C684 C 0.23576 0.81376 0.77698 0.0
C685 C 0.21189 0.81369 0.76933 0.0
C686 C 0.19818 0.80526 0.72463 0.0
C687 C 0.20799 0.79688 0.68585 0.0
C688 C 0.23191 0.79705 0.69366 0.0
C689 C 0.24554 0.80536 0.73841 0.0
C690 C 0.30345 0.88858 0.94711 0.0
C691 C 0.24571 0.85447 0.99926 0.0
C692 C 0.27155 0.94857 0.98056 0.0
C693 C 0.28302 0.95798 1.02894 0.0
C694 C 0.30551 0.98293 1.034 0.0
C695 C 0.31935 0.99021 0.07805 0.0
C696 C 0.31102 0.97245 0.11746 0.0
C697 C 0.28702 0.94846 0.11319 0.0
C698 C 0.27336 0.94116 0.06936 0.0
C699 C 0.21184 0.86793 0.90192 0.0
O700 O 0.25891 0.88261 0.81805 0.0
O701 O 0.26304 0.92036 0.85095 0.0
O702 O 0.27315 0.84399 0.82543 0.0
O703 O 0.2363 0.81965 0.86364 0.0
O704 O 0.29447 0.86431 0.93323 0.0
O705 O 0.29289 0.89842 0.91886 0.0
O706 O 0.25403 0.88039 0.99795 0.0
O707 O 0.24388 0.84143 0.95822 0.0
O708 O 0.2481 0.92753 0.97947 0.0
O709 O 0.28764 0.9478 0.9484 0.0
O710 O 0.21988 0.89299 0.89892 0.0
O711 O 0.23099 0.86627 0.91765 0.0
H712 H 0.20373 0.82014 0.79797 0.0
H713 H 0.17997 0.80559 0.72022 0.0
H714 H 0.23997 0.7903 0.66535 0.0
H715 H 0.26374 0.80502 0.74298 0.0
H716 H 0.31319 0.99623 1.00312 0.0
H717 H 0.3374 0.00899 0.07948 0.0
H718 H 0.27898 0.93482 0.14347 0.0
H719 H 0.25581 0.9219 0.06679 0.0
Ho720 Ho 0.64366 0.90019 0.43126 0.0
Ho721 Ho 0.59649 0.85318 0.38928 0.0
C722 C 0.60842 0.84705 0.50106 0.0
C723 C 0.67471 0.94225 0.47895 0.0
C724 C 0.66868 0.94907 0.52573 0.0
C725 C 0.64336 0.93237 0.54349 0.0
C726 C 0.63649 0.93587 0.58944 0.0
C727 C 0.65524 0.95559 0.61942 0.0
C728 C 0.68053 0.9733 0.60128 0.0
C729 C 0.6873 0.97001 0.55401 0.0
C730 C 0.65435 0.86212 0.4022 0.0
C731 C 0.64312 0.8961 0.315 0.0
C732 C 0.5683 0.81638 0.32661 0.0
C733 C 0.57505 0.80751 0.27978 0.0
C734 C 0.59871 0.80692 0.27444 0.0
C735 C 0.60458 0.79812 0.2308 0.0
C736 C 0.58713 0.7898 0.19062 0.0
C737 C 0.56376 0.79099 0.19568 0.0
C738 C 0.55778 0.79955 0.23953 0.0
C739 C 0.58281 0.88189 0.45244 0.0
O740 O 0.62492 0.87325 0.49918 0.0
O741 O 0.59701 0.83371 0.46036 0.0
O742 O 0.67652 0.92092 0.48037 0.0
O743 O 0.65931 0.94178 0.44385 0.0
O744 O 0.67082 0.88726 0.39849 0.0
O745 O 0.63349 0.8598 0.41887 0.0
O746 O 0.62411 0.87171 0.32358 0.0
O747 O 0.65178 0.91316 0.35144 0.0
O748 O 0.57005 0.83964 0.32644 0.0
O749 O 0.57735 0.81207 0.36733 0.0
O750 O 0.56847 0.857 0.4415 0.0
O751 O 0.60223 0.89151 0.42182 0.0
H752 H 0.629 0.91626 0.52174 0.0
H753 H 0.61679 0.92241 0.60237 0.0
H754 H 0.69525 0.98868 0.62424 0.0
H755 H 0.70702 0.98299 0.54038 0.0
H756 H 0.61283 0.81337 0.30403 0.0
H757 H 0.62306 0.79819 0.22834 0.0
H758 H 0.54978 0.78485 0.16585 0.0
H759 H 0.53948 0.79985 0.242 0.0
Ho760 Ho 0.09796 0.7432 0.42937 0.0
Ho761 Ho 0.14407 0.74145 0.38606 0.0
C762 C 0.14997 0.75925 0.49859 0.0
C763 C 0.05645 0.73379 0.47698 0.0
C764 C 0.04794 0.72036 0.52314 0.0
C765 C 0.0287 0.72131 0.5517 0.0
C766 C 0.02397 0.71074 0.59876 0.0
C767 C 0.0386 0.69941 0.61659 0.0
C768 C 0.05656 0.69727 0.58632 0.0
C769 C 0.06148 0.70806 0.5404 0.0
C770 C 0.13654 0.79114 0.39673 0.0
C771 C 0.09854 0.74169 0.31233 0.0
C772 C 0.18283 0.75294 0.32629 0.0
C773 C 0.19131 0.76756 0.27819 0.0
C774 C 0.21492 0.79205 0.27489 0.0
C775 C 0.22325 0.80599 0.23035 0.0
C776 C 0.20838 0.79592 0.18718 0.0
C777 C 0.18451 0.77159 0.19073 0.0
C778 C 0.17621 0.75764 0.23526 0.0
C779 C 0.11553 0.70003 0.45024 0.0
O780 O 0.12396 0.75007 0.49721 0.0
O781 O 0.16312 0.76092 0.45789 0.0
O782 O 0.07863 0.75622 0.47974 0.0
O783 O 0.05635 0.71869 0.44174 0.0
O784 O 0.11148 0.78284 0.39386 0.0
O785 O 0.13853 0.77265 0.41477 0.0
O786 O 0.1214 0.74254 0.31817 0.0
O787 O 0.08423 0.73977 0.35085 0.0
O788 O 0.16118 0.72977 0.32744 0.0
O789 O 0.18495 0.76701 0.3648 0.0
O790 O 0.14033 0.70991 0.43909 0.0
O791 O 0.10592 0.70994 0.41981 0.0
H792 H 0.01821 0.73094 0.53844 0.0
H793 H 0.0099 0.71245 0.62177 0.0
H794 H 0.06751 0.68808 0.59895 0.0
H795 H 0.07664 0.70779 0.5187 0.0
H796 H 0.22713 0.80046 0.30694 0.0
H797 H 0.2417 0.82453 0.2296 0.0
H798 H 0.17197 0.76332 0.15906 0.0
H799 H 0.15788 0.73902 0.23595 0.0
Ho800 Ho 0.25911 0.35383 0.43836 0.0
Ho801 Ho 0.25626 0.40017 0.39183 0.0
C802 C 0.24184 0.38958 0.50678 0.0
C803 C 0.27264 0.3241 0.48541 0.0
C804 C 0.28311 0.32312 0.53309 0.0
C805 C 0.28085 0.33721 0.57198 0.0
C806 C 0.28968 0.33531 0.61789 0.0
C807 C 0.30052 0.31897 0.62572 0.0
C808 C 0.30383 0.30565 0.58651 0.0
C809 C 0.29511 0.30776 0.54009 0.0
C810 C 0.21004 0.34188 0.40853 0.0
C811 C 0.25949 0.35618 0.31903 0.0
C812 C 0.23976 0.42382 0.33349 0.0
C813 C 0.22574 0.41697 0.28491 0.0
C814 C 0.1986 0.40853 0.28208 0.0
C815 C 0.18524 0.40245 0.23697 0.0
C816 C 0.1986 0.40485 0.19293 0.0
C817 C 0.22565 0.41281 0.19583 0.0
C818 C 0.23901 0.41883 0.24096 0.0
C819 C 0.29887 0.41613 0.45301 0.0
O820 O 0.25086 0.37255 0.50535 0.0
O821 O 0.2394 0.40068 0.46601 0.0
O822 O 0.24863 0.32025 0.48494 0.0
O823 O 0.28863 0.34378 0.45776 0.0
O824 O 0.21906 0.32565 0.40618 0.0
O825 O 0.22842 0.36303 0.42461 0.0
O826 O 0.25758 0.3776 0.32464 0.0
O827 O 0.26211 0.34409 0.35801 0.0
O828 O 0.26444 0.42929 0.33502 0.0
O829 O 0.22619 0.40958 0.37088 0.0
O830 O 0.28899 0.43065 0.43869 0.0
O831 O 0.28889 0.39565 0.42513 0.0
H832 H 0.27182 0.3493 0.56706 0.0
H833 H 0.28732 0.34601 0.6478 0.0
H834 H 0.31229 0.29311 0.59209 0.0
H835 H 0.2972 0.29699 0.50999 0.0
H836 H 0.18761 0.40679 0.31492 0.0
H837 H 0.16449 0.39642 0.23652 0.0
H838 H 0.23659 0.4143 0.16308 0.0
H839 H 0.25979 0.42502 0.24127 0.0
Ho840 Ho 0.2422 0.31601 0.99417 0.0
Ho841 Ho 0.19358 0.26839 1.03731 0.0
C842 C 0.1901 0.28158 0.92342 0.0
C843 C 0.28685 0.34725 0.95292 0.0
C844 C 0.30239 0.3447 0.91394 0.0
C845 C 0.30179 0.32073 0.90754 0.0
C846 C 0.31006 0.3154 0.86392 0.0
C847 C 0.31969 0.3342 0.82675 0.0
C848 C 0.32367 0.35953 0.83554 0.0
C849 C 0.31481 0.36473 0.87909 0.0
C850 C 0.20387 0.32703 1.02177 0.0
C851 C 0.23837 0.31314 0.1132 0.0
C852 C 0.15399 0.24142 0.09561 0.0
C853 C 0.14541 0.2472 0.14385 0.0
C854 C 0.12505 0.2534 0.14574 0.0
C855 C 0.11682 0.25888 0.1903 0.0
C856 C 0.12839 0.25808 0.23493 0.0
C857 C 0.14849 0.25149 0.23324 0.0
C858 C 0.15694 0.24627 0.18853 0.0
C859 C 0.22117 0.25399 0.97435 0.0
O860 O 0.21635 0.29764 0.92572 0.0
O861 O 0.17621 0.27021 0.96381 0.0
O862 O 0.26451 0.34526 0.9391 0.0
O863 O 0.28444 0.33375 0.99259 0.0
O864 O 0.22897 0.34402 1.02196 0.0
O865 O 0.202 0.30596 1.00751 0.0
O866 O 0.2156 0.29117 0.10626 0.0
O867 O 0.25328 0.32569 0.07498 0.0
O868 O 0.17515 0.23908 0.09491 0.0
O869 O 0.15277 0.25418 0.05733 0.0
O870 O 0.19655 0.23943 0.98705 0.0
O871 O 0.23136 0.27389 1.00396 0.0
H872 H 0.29306 0.30546 0.93482 0.0
H873 H 0.30649 0.29577 0.85721 0.0
H874 H 0.33071 0.37418 0.80675 0.0
H875 H 0.31568 0.38351 0.88378 0.0
H876 H 0.11526 0.25385 0.11257 0.0
H877 H 0.10093 0.26329 0.18983 0.0
H878 H 0.15795 0.25064 0.26661 0.0
H879 H 0.17254 0.24146 0.1891 0.0
Ho880 Ho 0.68939 0.92248 0.9989 0.0
Ho881 Ho 0.73654 0.92242 1.03757 0.0
C882 C 0.72395 0.90707 0.92411 0.0
C883 C 0.65384 0.93052 0.96047 0.0
C884 C 0.65032 0.94067 0.91497 0.0
C885 C 0.67128 0.95194 0.88224 0.0
C886 C 0.66799 0.96037 0.83717 0.0
C887 C 0.64294 0.95524 0.82283 0.0
C888 C 0.62156 0.9432 0.85503 0.0
C889 C 0.6255 0.93672 0.90194 0.0
C890 C 0.67967 0.87353 1.02628 0.0
C891 C 0.69205 0.92041 0.1149 0.0
C892 C 0.76418 0.91166 0.09763 0.0
C893 C 0.75706 0.89638 0.14487 0.0
C894 C 0.73166 0.87456 0.15307 0.0
C895 C 0.72516 0.8606 0.19772 0.0
C896 C 0.74372 0.86809 0.23596 0.0
C897 C 0.76916 0.88985 0.2274 0.0
C898 C 0.77566 0.90375 0.18277 0.0
C899 C 0.75048 0.96536 0.97655 0.0
O900 O 0.70687 0.91593 0.92829 0.0
O901 O 0.73633 0.90499 0.9634 0.0
O902 O 0.65391 0.90836 0.95654 0.0
O903 O 0.67297 0.94779 0.98793 0.0
O904 O 0.6638 0.88249 1.03421 0.0
O905 O 0.69983 0.89203 1.00773 0.0
O906 O 0.71029 0.91418 0.1052 0.0
O907 O 0.68332 0.92892 0.07887 0.0
O908 O 0.7645 0.93425 0.09784 0.0
O909 O 0.7535 0.89819 0.05767 0.0
O910 O 0.76493 0.95501 0.98803 0.0
O911 O 0.7308 0.9555 1.00668 0.0
H912 H 0.68949 0.95233 0.89022 0.0
H913 H 0.6842 0.96804 0.81145 0.0
H914 H 0.60188 0.93802 0.84324 0.0
H915 H 0.60897 0.92719 0.92677 0.0
H916 H 0.7167 0.8683 0.12496 0.0
H917 H 0.70536 0.84412 0.20256 0.0
H918 H 0.78429 0.89603 0.25511 0.0
H919 H 0.79538 0.92034 0.17785 0.0
Ho920 Ho 0.07326 0.76204 0.99408 0.0
Ho921 Ho 0.07235 0.80877 1.03625 0.0
C922 C 0.08766 0.8125 0.92192 0.0
C923 C 0.0634 0.71823 0.95471 0.0
C924 C 0.05052 0.70394 0.91099 0.0
C925 C 0.03864 0.71396 0.88026 0.0
C926 C 0.02913 0.70249 0.83527 0.0
C927 C 0.03307 0.682 0.81957 0.0
C928 C 0.04423 0.67132 0.851 0.0
C929 C 0.05249 0.682 0.89729 0.0
C930 C 0.12194 0.80148 1.02229 0.0
C931 C 0.07394 0.76472 0.11148 0.0
C932 C 0.08476 0.84852 0.09413 0.0
C933 C 0.09956 0.85712 0.14181 0.0
C934 C 0.11895 0.85055 0.15432 0.0
C935 C 0.13346 0.85958 0.19819 0.0
C936 C 0.12917 0.87555 0.23119 0.0
C937 C 0.10937 0.88162 0.21891 0.0
C938 C 0.09491 0.87265 0.17496 0.0
C939 C 0.03001 0.77944 0.97441 0.0
O940 O 0.07893 0.78655 0.92455 0.0
O941 O 0.08981 0.82623 0.96222 0.0
O942 O 0.04777 0.72015 0.98638 0.0
O943 O 0.08522 0.74056 0.94719 0.0
O944 O 0.11352 0.77653 1.02787 0.0
O945 O 0.10299 0.80301 1.00535 0.0
O946 O 0.07517 0.78768 0.10493 0.0
O947 O 0.07061 0.74966 0.07338 0.0
O948 O 0.0615 0.82701 0.09428 0.0
O949 O 0.09854 0.84969 0.05571 0.0
O950 O 0.03955 0.80417 0.98599 0.0
O951 O 0.04042 0.77019 1.00442 0.0
H952 H 0.03833 0.73171 0.88979 0.0
H953 H 0.02154 0.71162 0.81062 0.0
H954 H 0.04823 0.65615 0.83843 0.0
H955 H 0.06209 0.67446 0.92083 0.0
H956 H 0.12299 0.83847 0.13 0.0
H957 H 0.14792 0.85377 0.20646 0.0
H958 H 0.10532 0.89379 0.24299 0.0
H959 H 0.08018 0.8781 0.16667 0.0
Ho960 Ho 0.39689 0.14039 0.87199 0.0
Ho961 Ho 0.34959 0.09155 0.82949 0.0
C962 C 0.35239 0.09533 0.94825 0.0
C963 C 0.42334 0.18021 0.93034 0.0
C964 C 0.41698 0.18902 0.97787 0.0
C965 C 0.41221 0.21037 0.97882 0.0
C966 C 0.40623 0.21887 1.02268 0.0
C967 C 0.40488 0.20643 0.06757 0.0
C968 C 0.40997 0.18525 0.06672 0.0
C969 C 0.41588 0.17671 1.02278 0.0
C970 C 0.41112 0.11281 0.80844 0.0
C971 C 0.38347 0.14392 0.75875 0.0
C972 C 0.31897 0.04738 0.78653 0.0
C973 C 0.32214 0.03342 0.74541 0.0
C974 C 0.34606 0.03387 0.73909 0.0
C975 C 0.35195 0.02682 0.69467 0.0
C976 C 0.33388 0.01886 0.65642 0.0
C977 C 0.30875 0.01559 0.66421 0.0
C978 C 0.30291 0.02299 0.70871 0.0
C979 C 0.33801 0.12921 0.85862 0.0
O980 O 0.37431 0.11816 0.94111 0.0
O981 O 0.33973 0.08034 0.91016 0.0
O982 O 0.42567 0.15903 0.93052 0.0
O983 O 0.41106 0.18132 0.89127 0.0
O984 O 0.42535 0.13775 0.81934 0.0
O985 O 0.39174 0.10263 0.83909 0.0
O986 O 0.36765 0.11762 0.76083 0.0
O987 O 0.39461 0.15774 0.79923 0.0
O988 O 0.31978 0.06951 0.77525 0.0
O989 O 0.33288 0.04944 0.82547 0.0
O990 O 0.32144 0.10402 0.85961 0.0
O991 O 0.35902 0.13151 0.84297 0.0
H992 H 0.41331 0.22076 0.94546 0.0
H993 H 0.40321 0.23564 1.02144 0.0
H994 H 0.40918 0.17505 0.10018 0.0
H995 H 0.41967 0.16044 1.02411 0.0
H996 H 0.36085 0.04143 0.76731 0.0
H997 H 0.37121 0.02924 0.68886 0.0
H998 H 0.29461 0.00964 0.63463 0.0
H999 H 0.28426 0.02241 0.71316 0.0
Ho1000 Ho 0.86003 0.26003 0.86823 0.0
Ho1001 Ho 0.90616 0.2565 0.8254 0.0
C1002 C 0.90469 0.25916 0.94366 0.0
C1003 C 0.82152 0.24899 0.92875 0.0
C1004 C 0.81292 0.23454 0.97705 0.0
C1005 C 0.81601 0.21265 0.98796 0.0
C1006 C 0.80696 0.19876 1.03259 0.0
C1007 C 0.7947 0.20636 0.0683 0.0
C1008 C 0.79165 0.22827 0.05712 0.0
C1009 C 0.8006 0.24206 1.01248 0.0
C1010 C 0.88908 0.30045 0.80287 0.0
C1011 C 0.85353 0.24047 0.75601 0.0
C1012 C 0.94843 0.2636 0.78191 0.0
C1013 C 0.96411 0.27558 0.73778 0.0
C1014 C 0.97305 0.30201 0.72618 0.0
C1015 C 0.98317 0.31167 0.68005 0.0
C1016 C 0.984 0.29491 0.64474 0.0
C1017 C 0.97832 0.26947 0.6584 0.0
C1018 C 0.9684 0.25984 0.70481 0.0
C1019 C 0.86641 0.20945 0.85888 0.0
O1020 O 0.88252 0.25958 0.93692 0.0
O1021 O 0.91875 0.25986 0.90533 0.0
O1022 O 0.84342 0.27192 0.92779 0.0
O1023 O 0.81931 0.23487 0.89024 0.0
O1024 O 0.86509 0.29285 0.81721 0.0
O1025 O 0.89852 0.29003 0.83259 0.0
O1026 O 0.87897 0.24713 0.75857 0.0
O1027 O 0.84073 0.24131 0.79565 0.0
O1028 O 0.92516 0.24281 0.77522 0.0
O1029 O 0.94815 0.27969 0.8147 0.0
O1030 O 0.8913 0.21704 0.86274 0.0
O1031 O 0.8655 0.22853 0.8408 0.0
H1032 H 0.82539 0.20615 0.96183 0.0
H1033 H 0.80986 0.18217 1.03938 0.0
H1034 H 0.78187 0.23459 0.08264 0.0
H1035 H 0.79761 0.25858 1.00544 0.0
H1036 H 0.96963 0.31431 0.75082 0.0
H1037 H 0.98638 0.3308 0.66967 0.0
H1038 H 0.97882 0.25616 0.63161 0.0
H1039 H 0.96215 0.23949 0.71352 0.0
Ho1040 Ho 0.74048 0.59895 0.86782 0.0
Ho1041 Ho 0.73654 0.6449 0.82583 0.0
C1042 C 0.74073 0.64356 0.94233 0.0
C1043 C 0.7535 0.57258 0.9271 0.0
C1044 C 0.76872 0.5786 0.97448 0.0
C1045 C 0.79389 0.60117 0.98063 0.0
C1046 C 0.80783 0.60618 1.02521 0.0
C1047 C 0.79702 0.58897 0.06544 0.0
C1048 C 0.77195 0.56632 0.05892 0.0
C1049 C 0.75811 0.56127 1.01439 0.0
C1050 C 0.69619 0.58351 0.81003 0.0
C1051 C 0.75486 0.61089 0.75352 0.0
C1052 C 0.72387 0.67672 0.78461 0.0
C1053 C 0.71963 0.68372 0.73584 0.0
C1054 C 0.69911 0.68905 0.72766 0.0
C1055 C 0.69287 0.69267 0.68024 0.0
C1056 C 0.7079 0.69196 0.64134 0.0
C1057 C 0.72964 0.68864 0.65001 0.0
C1058 C 0.73531 0.6842 0.69696 0.0
C1059 C 0.78652 0.65729 0.85091 0.0
O1060 O 0.74864 0.6265 0.93314 0.0
O1061 O 0.73034 0.65061 0.90648 0.0
O1062 O 0.73045 0.57128 0.92823 0.0
O1063 O 0.76674 0.58425 0.88744 0.0
O1064 O 0.70689 0.56922 0.82028 0.0
O1065 O 0.70658 0.60335 0.8394 0.0
O1066 O 0.74509 0.62739 0.75636 0.0
O1067 O 0.75769 0.59959 0.79369 0.0
O1068 O 0.74803 0.68287 0.79491 0.0
O1069 O 0.70647 0.65319 0.80001 0.0
O1070 O 0.77697 0.67283 0.8572 0.0
O1071 O 0.76803 0.63621 0.83483 0.0
H1072 H 0.80285 0.61509 0.95097 0.0
H1073 H 0.82697 0.62384 1.02845 0.0
H1074 H 0.76304 0.55218 0.08824 0.0
H1075 H 0.73897 0.54361 1.01111 0.0
H1076 H 0.68734 0.68937 0.7577 0.0
H1077 H 0.67576 0.69476 0.67373 0.0
H1078 H 0.74103 0.68751 0.61996 0.0
H1079 H 0.75127 0.68016 0.70256 0.0
Ho1080 Ho 0.81093 0.73616 0.22045 0.0
Ho1081 Ho 0.76382 0.68849 0.25983 0.0
C1082 C 0.76715 0.69153 0.14342 0.0
C1083 C 0.84929 0.76453 0.16086 0.0
C1084 C 0.85753 0.75876 0.11224 0.0
C1085 C 0.88244 0.76085 0.10673 0.0
C1086 C 0.89043 0.7554 0.06175 0.0
C1087 C 0.87389 0.74781 1.02033 0.0
C1088 C 0.84879 0.74536 1.02608 0.0
C1089 C 0.84079 0.75079 0.07107 0.0
C1090 C 0.78148 0.74864 0.28333 0.0
C1091 C 0.81482 0.72369 0.33305 0.0
C1092 C 0.7216 0.65525 0.30465 0.0
C1093 C 0.7101 0.65695 0.35057 0.0
C1094 C 0.7017 0.6754 0.35617 0.0
C1095 C 0.69689 0.68161 0.4023 0.0
C1096 C 0.69895 0.66849 0.44293 0.0
C1097 C 0.70601 0.649 0.43722 0.0
C1098 C 0.7114 0.64314 0.39118 0.0
C1099 C 0.80282 0.67889 0.23116 0.0
O1100 O 0.79146 0.71078 0.15221 0.0
O1101 O 0.75055 0.68156 0.18029 0.0
O1102 O 0.82734 0.76547 0.1626 0.0
O1103 O 0.852 0.75264 0.19915 0.0
O1104 O 0.8065 0.76338 0.27373 0.0
O1105 O 0.77226 0.72971 0.25182 0.0
O1106 O 0.78873 0.70708 0.32948 0.0
O1107 O 0.82897 0.73537 0.29323 0.0
O1108 O 0.74403 0.65571 0.30912 0.0
O1109 O 0.72183 0.67045 0.26939 0.0
O1110 O 0.77785 0.66278 0.22432 0.0
O1111 O 0.80454 0.69914 0.24939 0.0
H1112 H 0.89588 0.7668 0.13741 0.0
H1113 H 0.90986 0.75755 0.05924 0.0
H1114 H 0.83505 0.73888 0.99585 0.0
H1115 H 0.82133 0.74855 0.07355 0.0
H1116 H 0.69996 0.68581 0.32519 0.0
H1117 H 0.69191 0.69687 0.40661 0.0
H1118 H 0.70846 0.6391 0.4685 0.0
H1119 H 0.71796 0.6289 0.38763 0.0
Ho1120 Ho 0.26109 0.0735 0.22436 0.0
Ho1121 Ho 0.30785 0.0723 0.27223 0.0
C1122 C 0.3072 0.07345 0.1528 0.0
C1123 C 0.23502 0.0867 0.16487 0.0
C1124 C 0.24139 0.10119 0.11684 0.0
C1125 C 0.24165 0.12532 0.1128 0.0
C1126 C 0.24737 0.13909 0.06813 0.0
C1127 C 0.2529 0.12915 1.02573 0.0
C1128 C 0.25312 0.10522 1.03008 0.0
C1129 C 0.24735 0.09144 0.07471 0.0
C1130 C 0.24621 0.03108 0.28627 0.0
C1131 C 0.27148 0.08894 0.33899 0.0
C1132 C 0.33804 0.05923 0.31847 0.0
C1133 C 0.34028 0.04756 0.36392 0.0
C1134 C 0.36393 0.04804 0.37481 0.0
C1135 C 0.36723 0.03902 0.41995 0.0
C1136 C 0.34662 0.02894 0.45385 0.0
C1137 C 0.32256 0.02737 0.44188 0.0
C1138 C 0.31954 0.03698 0.39737 0.0
C1139 C 0.31905 0.12134 0.24225 0.0
O1140 O 0.28552 0.07496 0.15777 0.0
O1141 O 0.31864 0.07025 0.19217 0.0
O1142 O 0.23245 0.06308 0.16578 0.0
O1143 O 0.24763 0.1006 0.20323 0.0
O1144 O 0.2313 0.04045 0.27179 0.0
O1145 O 0.26657 0.04148 0.25822 0.0
O1146 O 0.28802 0.07935 0.33859 0.0
O1147 O 0.26081 0.09147 0.29765 0.0
O1148 O 0.34028 0.08255 0.32177 0.0
O1149 O 0.31916 0.0434 0.28882 0.0
O1150 O 0.33586 0.113 0.24213 0.0
O1151 O 0.29788 0.10249 0.25736 0.0
H1152 H 0.23724 0.13353 0.14432 0.0
H1153 H 0.24697 0.15736 0.06662 0.0
H1154 H 0.25797 0.09714 0.99894 0.0
H1155 H 0.24757 0.07309 0.07611 0.0
H1156 H 0.38016 0.0563 0.34918 0.0
H1157 H 0.38606 0.04086 0.42919 0.0
H1158 H 0.30672 0.02033 0.4683 0.0
H1159 H 0.30156 0.03726 0.38992 0.0
Ho1160 Ho 0.92502 0.19228 0.22549 0.0
Ho1161 Ho 0.92369 0.23986 0.26836 0.0
C1162 C 0.92581 0.23752 0.14969 0.0
C1163 C 0.91175 0.15257 0.16699 0.0
C1164 C 0.89759 0.14397 0.11834 0.0
C1165 C 0.87063 0.12452 0.11589 0.0
C1166 C 0.85732 0.1159 0.07079 0.0
C1167 C 0.87042 0.12624 1.02614 0.0
C1168 C 0.89733 0.14596 1.02868 0.0
C1169 C 0.91068 0.15447 0.0738 0.0
C1170 C 0.96613 0.22079 0.28963 0.0
C1171 C 0.9058 0.18669 0.33771 0.0
C1172 C 0.93288 0.28311 0.31116 0.0
C1173 C 0.9435 0.29832 0.35651 0.0
C1174 C 0.97061 0.31149 0.36672 0.0
C1175 C 0.9797 0.32077 0.41365 0.0
C1176 C 0.96169 0.3169 0.45078 0.0
C1177 C 0.93529 0.30809 0.43819 0.0
C1178 C 0.92619 0.29862 0.39139 0.0
C1179 C 0.87605 0.20096 0.2354 0.0
O1180 O 0.92538 0.21494 0.1568 0.0
O1181 O 0.92704 0.25204 0.18781 0.0
O1182 O 0.93555 0.17341 0.16825 0.0
O1183 O 0.89765 0.15176 0.20464 0.0
O1184 O 0.95769 0.19651 0.276 0.0
O1185 O 0.95595 0.23051 0.26009 0.0
O1186 O 0.91355 0.21248 0.33576 0.0
O1187 O 0.90595 0.17378 0.2978 0.0
O1188 O 0.91066 0.26075 0.31501 0.0
O1189 O 0.94957 0.28142 0.28174 0.0
O1190 O 0.88436 0.226 0.23102 0.0
O1191 O 0.8948 0.19948 0.25352 0.0
H1192 H 0.85974 0.11571 0.14906 0.0
H1193 H 0.83673 0.10066 0.07095 0.0
H1194 H 0.90818 0.1551 0.99569 0.0
H1195 H 0.93139 0.16932 0.07367 0.0
H1196 H 0.98441 0.31232 0.33995 0.0
H1197 H 7e-05 0.32748 0.42221 0.0
H1198 H 0.9211 0.30563 0.46595 0.0
H1199 H 0.90529 0.28968 0.38369 0.0
Ho1200 Ho 0.31253 0.23825 0.76824 0.0
Ho1201 Ho 0.26341 0.19271 0.72358 0.0
C1202 C 0.27418 0.18674 0.83743 0.0
C1203 C 0.34745 0.27931 0.81475 0.0
C1204 C 0.35095 0.29045 0.8634 0.0
C1205 C 0.33733 0.27411 0.90285 0.0
C1206 C 0.33973 0.28496 0.94878 0.0
C1207 C 0.35583 0.3122 0.9557 0.0
C1208 C 0.36949 0.32857 0.9165 0.0
C1209 C 0.3673 0.31767 0.87038 0.0
C1210 C 0.31937 0.19799 0.737 0.0
C1211 C 0.30957 0.23778 0.65028 0.0
C1212 C 0.23577 0.15362 0.66464 0.0
C1213 C 0.2415 0.14502 0.61662 0.0
C1214 C 0.26548 0.14548 0.60805 0.0
C1215 C 0.27023 0.13653 0.56351 0.0
C1216 C 0.25131 0.12707 0.52573 0.0
C1217 C 0.22737 0.12671 0.53441 0.0
C1218 C 0.22257 0.13551 0.57905 0.0
C1219 C 0.25199 0.22248 0.786 0.0
O1220 O 0.29276 0.21228 0.83575 0.0
O1221 O 0.26186 0.17388 0.79686 0.0
O1222 O 0.34767 0.25718 0.81217 0.0
O1223 O 0.32859 0.27904 0.78865 0.0
O1224 O 0.33663 0.22279 0.73153 0.0
O1225 O 0.29936 0.19717 0.75456 0.0
O1226 O 0.28741 0.21502 0.65591 0.0
O1227 O 0.32206 0.25206 0.68911 0.0
O1228 O 0.23428 0.17526 0.66511 0.0
O1229 O 0.24826 0.15194 0.70292 0.0
O1230 O 0.23548 0.19837 0.77245 0.0
O1231 O 0.27204 0.23139 0.7572 0.0
H1232 H 0.32477 0.25305 0.89812 0.0
H1233 H 0.32906 0.27212 0.97904 0.0
H1234 H 0.38184 0.34953 0.92183 0.0
H1235 H 0.37814 0.33045 0.84027 0.0
H1236 H 0.28065 0.15271 0.6359 0.0
H1237 H 0.28893 0.1373 0.55841 0.0
H1238 H 0.21205 0.11918 0.50688 0.0
H1239 H 0.20385 0.13468 0.58434 0.0
Ho1240 Ho 0.76202 0.07387 0.76591 0.0
Ho1241 Ho 0.80766 0.07198 0.72318 0.0
C1242 C 0.81331 0.08852 0.83682 0.0
C1243 C 0.72118 0.06863 0.81124 0.0
C1244 C 0.70922 0.06053 0.85891 0.0
C1245 C 0.71685 0.04663 0.88993 0.0
C1246 C 0.70538 0.03878 0.93549 0.0
C1247 C 0.687 0.04584 0.95131 0.0
C1248 C 0.68052 0.06119 0.92127 0.0
C1249 C 0.69125 0.06807 0.87465 0.0
C1250 C 0.80129 0.12177 0.73483 0.0
C1251 C 0.763 0.07269 0.64764 0.0
C1252 C 0.8464 0.08442 0.66317 0.0
C1253 C 0.85374 0.09904 0.61526 0.0
C1254 C 0.84982 0.1206 0.60647 0.0
C1255 C 0.8574 0.13456 0.56188 0.0
C1256 C 0.86891 0.12729 0.52429 0.0
C1257 C 0.8727 0.10564 0.53323 0.0
C1258 C 0.86522 0.09178 0.57786 0.0
C1259 C 0.78071 0.03082 0.78807 0.0
O1260 O 0.78754 0.08059 0.83454 0.0
O1261 O 0.82654 0.08989 0.79631 0.0
O1262 O 0.74399 0.09034 0.81117 0.0
O1263 O 0.72078 0.05007 0.78398 0.0
O1264 O 0.7764 0.11316 0.72817 0.0
O1265 O 0.80283 0.10317 0.75338 0.0
O1266 O 0.78595 0.07397 0.65468 0.0
O1267 O 0.74814 0.06976 0.68617 0.0
O1268 O 0.82513 0.06097 0.66405 0.0
O1269 O 0.84826 0.09823 0.70202 0.0
O1270 O 0.80472 0.03997 0.77241 0.0
O1271 O 0.76983 0.04027 0.75913 0.0
H1272 H 0.7321 0.04247 0.87929 0.0
H1273 H 0.71155 0.02798 0.95907 0.0
H1274 H 0.66678 0.06725 0.93344 0.0
H1275 H 0.68576 0.07944 0.85117 0.0
H1276 H 0.84091 0.12676 0.63421 0.0
H1277 H 0.85399 0.15094 0.55664 0.0
H1278 H 0.88192 0.09962 0.50592 0.0
H1279 H 0.86865 0.07541 0.58328 0.0
Ho1280 Ho 0.91921 0.68549 0.76227 0.0
Ho1281 Ho 0.92777 0.73582 0.71911 0.0
C1282 C 0.90919 0.72595 0.83131 0.0
C1283 C 0.91434 0.64538 0.81064 0.0
C1284 C 0.91257 0.63978 0.86241 0.0
C1285 C 0.90693 0.65494 0.894 0.0
C1286 C 0.91201 0.65525 0.94316 0.0
C1287 C 0.92153 0.63926 0.9619 0.0
C1288 C 0.92339 0.62114 0.93098 0.0
C1289 C 0.91913 0.62159 0.88101 0.0
C1290 C 0.87455 0.68287 0.72631 0.0
C1291 C 0.92577 0.68906 0.64652 0.0
C1292 C 0.9194 0.76437 0.65688 0.0
C1293 C 0.90381 0.75777 0.60974 0.0
C1294 C 0.87902 0.75629 0.60816 0.0
C1295 C 0.8641 0.74998 0.56469 0.0
C1296 C 0.87335 0.74489 0.5209 0.0
C1297 C 0.89823 0.7465 0.52243 0.0
C1298 C 0.91314 0.75274 0.56597 0.0
C1299 C 0.96716 0.74524 0.78517 0.0
O1300 O 0.91491 0.70656 0.82963 0.0
O1301 O 0.90974 0.73871 0.79061 0.0
O1302 O 0.89457 0.64717 0.7936 0.0
O1303 O 0.9371 0.66462 0.79559 0.0
O1304 O 0.88148 0.66546 0.71808 0.0
O1305 O 0.89356 0.70145 0.74754 0.0
O1306 O 0.92426 0.7107 0.65182 0.0
O1307 O 0.92809 0.67724 0.68574 0.0
O1308 O 0.94123 0.76322 0.65775 0.0
O1309 O 0.90579 0.75496 0.697 0.0
O1310 O 0.96099 0.76247 0.76928 0.0
O1311 O 0.95595 0.72498 0.75628 0.0
H1312 H 0.90053 0.66809 0.88038 0.0
H1313 H 0.91091 0.67 0.96504 0.0
H1314 H 0.92983 0.60798 0.9449 0.0
H1315 H 0.92232 0.60889 0.85677 0.0
H1316 H 0.8711 0.76014 0.64075 0.0
H1317 H 0.84545 0.74964 0.5653 0.0
H1318 H 0.90617 0.74267 0.48985 0.0
H1319 H 0.93202 0.75357 0.56522 0.0
Ho1320 Ho 0.90576 0.64461 0.32695 0.0
Ho1321 Ho 0.85695 0.59761 0.36895 0.0
C1322 C 0.85404 0.61013 0.25508 0.0
C1323 C 0.95048 0.67666 0.28732 0.0
C1324 C 0.96419 0.67551 0.24429 0.0
C1325 C 0.95755 0.65075 0.226 0.0
C1326 C 0.96242 0.64797 0.17777 0.0
C1327 C 0.97317 0.66999 0.14717 0.0
C1328 C 0.98342 0.69535 0.16694 0.0
C1329 C 0.97886 0.69812 0.21588 0.0
C1330 C 0.86792 0.65613 0.35496 0.0
C1331 C 0.90193 0.64203 0.44485 0.0
C1332 C 0.81716 0.57168 0.42746 0.0
C1333 C 0.80907 0.57842 0.47518 0.0
C1334 C 0.81251 0.60369 0.48439 0.0
C1335 C 0.8039 0.60938 0.52849 0.0
C1336 C 0.792 0.59017 0.5654 0.0
C1337 C 0.78884 0.56501 0.55626 0.0
C1338 C 0.79715 0.55924 0.51197 0.0
C1339 C 0.88498 0.58307 0.30725 0.0
O1340 O 0.88035 0.62611 0.25754 0.0
O1341 O 0.83999 0.59922 0.2954 0.0
O1342 O 0.92865 0.67683 0.2778 0.0
O1343 O 0.94767 0.66011 0.32215 0.0
O1344 O 0.89309 0.67234 0.35815 0.0
O1345 O 0.86551 0.63516 0.33884 0.0
O1346 O 0.87867 0.62076 0.43759 0.0
O1347 O 0.91737 0.65397 0.40711 0.0
O1348 O 0.83805 0.56887 0.42759 0.0
O1349 O 0.81635 0.5843 0.38862 0.0
O1350 O 0.85999 0.56883 0.3178 0.0
O1351 O 0.89488 0.60262 0.33756 0.0
H1352 H 0.94595 0.63344 0.24757 0.0
H1353 H 0.9541 0.62831 0.16272 0.0
H1354 H 0.99134 0.71247 0.1433 0.0
H1355 H 0.98399 0.71742 0.22973 0.0
H1356 H 0.82194 0.61916 0.45748 0.0
H1357 H 0.80696 0.62902 0.53403 0.0
H1358 H 0.77955 0.54953 0.58326 0.0
H1359 H 0.7941 0.53961 0.50637 0.0
Ho1360 Ho 0.35121 0.26213 0.32803 0.0
Ho1361 Ho 0.39759 0.25838 0.37033 0.0
C1362 C 0.38472 0.24394 0.25578 0.0
C1363 C 0.32203 0.27793 0.28633 0.0
C1364 C 0.32463 0.29428 0.2439 0.0
C1365 C 0.34669 0.3196 0.2388 0.0
C1366 C 0.35316 0.33159 0.19322 0.0
C1367 C 0.33709 0.31894 0.15312 0.0
C1368 C 0.31312 0.29541 0.1596 0.0
C1369 C 0.30695 0.28302 0.20492 0.0
C1370 C 0.33857 0.21221 0.35469 0.0
C1371 C 0.354 0.26028 0.44637 0.0
C1372 C 0.42181 0.24211 0.42817 0.0
C1373 C 0.41527 0.22806 0.47686 0.0
C1374 C 0.39084 0.20497 0.48565 0.0
C1375 C 0.38542 0.19151 0.53077 0.0
C1376 C 0.40408 0.20076 0.569 0.0
C1377 C 0.42846 0.22391 0.5601 0.0
C1378 C 0.43392 0.23727 0.51495 0.0
C1379 C 0.41333 0.30159 0.30974 0.0
O1380 O 0.3688 0.25424 0.25898 0.0
O1381 O 0.39617 0.24088 0.29558 0.0
O1382 O 0.32064 0.2554 0.27633 0.0
O1383 O 0.33757 0.29008 0.32339 0.0
O1384 O 0.3224 0.22129 0.35687 0.0
O1385 O 0.35978 0.23078 0.33934 0.0
O1386 O 0.37555 0.25882 0.43903 0.0
O1387 O 0.34147 0.26312 0.40861 0.0
O1388 O 0.42691 0.26666 0.42725 0.0
O1389 O 0.40764 0.22867 0.39057 0.0
O1390 O 0.42734 0.2907 0.32131 0.0
O1391 O 0.39351 0.29193 0.33937 0.0
H1392 H 0.35992 0.32925 0.269 0.0
H1393 H 0.37145 0.34991 0.18842 0.0
H1394 H 0.30063 0.28526 0.12862 0.0
H1395 H 0.28959 0.26366 0.20842 0.0
H1396 H 0.37583 0.19716 0.45755 0.0
H1397 H 0.3664 0.17393 0.5359 0.0
H1398 H 0.44365 0.23154 0.58787 0.0
H1399 H 0.45296 0.2548 0.50965 0.0
Ho1400 Ho 0.73856 0.09495 0.32499 0.0
Ho1401 Ho 0.73819 0.14135 0.37014 0.0
C1402 C 0.75577 0.14744 0.25626 0.0
C1403 C 0.72618 0.05165 0.28052 0.0
C1404 C 0.70982 0.03822 0.23823 0.0
C1405 C 0.68383 0.03337 0.23517 0.0
C1406 C 0.6708 0.02698 0.19063 0.0
C1407 C 0.68339 0.02481 0.14931 0.0
C1408 C 0.70822 0.02687 0.15331 0.0
C1409 C 0.72146 0.03364 0.19772 0.0
C1410 C 0.78745 0.13279 0.35526 0.0
C1411 C 0.73921 0.0962 0.44379 0.0
C1412 C 0.75049 0.18019 0.43051 0.0
C1413 C 0.76488 0.18775 0.47863 0.0
C1414 C 0.77911 0.17578 0.49562 0.0
C1415 C 0.79314 0.18349 0.54015 0.0
C1416 C 0.79386 0.20383 0.569 0.0
C1417 C 0.77936 0.21559 0.55192 0.0
C1418 C 0.76515 0.20769 0.50758 0.0
C1419 C 0.69684 0.11481 0.30476 0.0
O1420 O 0.74636 0.12134 0.25719 0.0
O1421 O 0.75742 0.16036 0.29751 0.0
O1422 O 0.74759 0.07404 0.27084 0.0
O1423 O 0.71368 0.05288 0.31909 0.0
O1424 O 0.77896 0.10765 0.35631 0.0
O1425 O 0.76871 0.13518 0.33976 0.0
O1426 O 0.73819 0.11813 0.43832 0.0
O1427 O 0.73814 0.08255 0.40456 0.0
O1428 O 0.72718 0.15878 0.42934 0.0
O1429 O 0.76453 0.18181 0.39231 0.0
O1430 O 0.70679 0.1392 0.31898 0.0
O1431 O 0.70611 0.10409 0.33425 0.0
H1432 H 0.67425 0.03624 0.26624 0.0
H1433 H 0.6519 0.0258 0.18759 0.0
H1434 H 0.7183 0.0256 0.12125 0.0
H1435 H 0.74143 0.03712 0.19959 0.0
H1436 H 0.77955 0.16047 0.47432 0.0
H1437 H 0.80322 0.17323 0.55208 0.0
H1438 H 0.77933 0.23133 0.57249 0.0
H1439 H 0.75456 0.21745 0.49563 0.0
C1440 C 0.09999 0.44094 1.00712 0.0
C1441 C 0.097 0.41548 1.00218 0.0
C1442 C 0.09366 0.4499 1.05074 0.0
C1443 C 0.08395 0.43427 0.09354 0.0
H1444 H 0.10797 0.45459 0.97684 0.0
H1445 H 0.09692 0.4698 1.05103 0.0
S1446 S 0.07551 0.3673 0.10526 0.0
N1447 N 0.08494 0.37536 1.04806 0.0
N1448 N 0.07369 0.39228 0.12869 0.0
C1449 C 0.08112 0.40888 0.08989 0.0
C1450 C 0.08745 0.39958 1.04508 0.0
C1451 C 0.59363 0.68108 1.04097 0.0
C1452 C 0.57639 0.67641 1.00075 0.0
C1453 C 0.58503 0.66651 0.08628 0.0
C1454 C 0.55842 0.64651 0.09476 0.0
H1455 H 0.61381 0.6969 1.03833 0.0
H1456 H 0.59922 0.67162 0.11549 0.0
S1457 S 0.50484 0.62662 1.00247 0.0
N1458 N 0.5311 0.64982 0.97426 0.0
N1459 N 0.51509 0.62376 0.05699 0.0
C1460 C 0.54118 0.64197 0.05474 0.0
C1461 C 0.54998 0.65642 1.00896 0.0
C1462 C 0.33641 0.92572 0.0709 0.0
C1463 C 0.35177 0.91433 0.08615 0.0
C1464 C 0.32164 0.91864 1.02577 0.0
C1465 C 0.3214 0.89979 0.99285 0.0
H1466 H 0.33548 0.94004 0.09417 0.0
H1467 H 0.30986 0.92759 1.01725 0.0
S1468 S 0.36004 0.86575 1.01164 0.0
N1469 N 0.36657 0.88417 0.06076 0.0
N1470 N 0.33961 0.87123 0.97897 0.0
C1471 C 0.33716 0.88888 1.00737 0.0
C1472 C 0.35204 0.89603 0.05263 0.0
C1473 C 0.43076 0.10887 0.67306 0.0
C1474 C 0.42929 0.08404 0.66767 0.0
C1475 C 0.42396 0.11714 0.71718 0.0
C1476 C 0.41531 0.10145 0.76012 0.0
H1477 H 0.43793 0.12258 0.64279 0.0
H1478 H 0.42619 0.13663 0.71783 0.0
S1479 S 0.41209 0.03688 0.77123 0.0
N1480 N 0.42033 0.04487 0.71357 0.0
N1481 N 0.40901 0.06095 0.79534 0.0
C1482 C 0.41452 0.07702 0.75618 0.0
C1483 C 0.42111 0.06832 0.71083 0.0
C1484 C 0.90375 0.35617 0.70853 0.0
C1485 C 0.91319 0.35008 0.66566 0.0
C1486 C 0.89816 0.34133 0.75274 0.0
C1487 C 0.9016 0.31914 0.75815 0.0
H1488 H 0.89981 0.37236 0.70769 0.0
H1489 H 0.89007 0.3469 0.78289 0.0
S1490 S 0.92139 0.29155 0.65508 0.0
N1491 N 0.92313 0.31821 0.63098 0.0
N1492 N 0.91336 0.29097 0.71288 0.0
C1493 C 0.91112 0.31283 0.71547 0.0
C1494 C 0.9167 0.32798 0.67005 0.0
C1495 C 0.66418 0.58763 0.685 0.0
C1496 C 0.6458 0.56086 0.6733 0.0
C1497 C 0.67925 0.59545 0.72977 0.0
C1498 C 0.6771 0.57698 0.76593 0.0
H1499 H 0.6677 0.60279 0.65886 0.0
H1500 H 0.69359 0.61608 0.73476 0.0
S1501 S 0.63131 0.50459 0.75612 0.0
N1502 N 0.62632 0.51621 0.70485 0.0
N1503 N 0.65395 0.5305 0.78613 0.0
C1504 C 0.65851 0.55039 0.75491 0.0
C1505 C 0.64325 0.54251 0.7099 0.0
C1506 C 0.87966 0.56839 0.21727 0.0
C1507 C 0.89627 0.57904 0.25874 0.0
C1508 C 0.88806 0.5623 0.17263 0.0
C1509 C 0.91395 0.56678 0.16511 0.0
H1510 H 0.85944 0.56407 0.21948 0.0
H1511 H 0.87367 0.55333 0.14368 0.0
S1512 S 0.96484 0.59158 0.26271 0.0
N1513 N 0.93945 0.59095 0.28993 0.0
N1514 N 0.95589 0.58218 0.2059 0.0
C1515 C 0.93084 0.57752 0.20626 0.0
C1516 C 0.9219 0.5828 0.25262 0.0
C1517 C 0.41243 0.33783 0.25343 0.0
C1518 C 0.41815 0.31722 0.26115 0.0
C1519 C 0.41945 0.35326 0.20916 0.0
C1520 C 0.43236 0.34886 0.1694 0.0
H1521 H 0.40361 0.34299 0.28282 0.0
H1522 H 0.41586 0.36965 0.20712 0.0
S1523 S 0.45316 0.29841 0.1703 0.0
N1524 N 0.43877 0.2945 0.22371 0.0
N1525 N 0.45131 0.32256 0.14304 0.0
C1526 C 0.43839 0.32859 0.17716 0.0
C1527 C 0.43143 0.31311 0.22177 0.0
C1528 C 0.64709 0.07193 0.19863 0.0
C1529 C 0.65076 0.09062 0.16184 0.0
C1530 C 0.66196 0.07895 0.24373 0.0
C1531 C 0.68181 0.10526 0.25495 0.0
H1532 H 0.63169 0.05184 0.19336 0.0
H1533 H 0.6569 0.0638 0.27093 0.0
S1534 S 0.70039 0.16206 0.17072 0.0
N1535 N 0.67663 0.13687 0.14098 0.0
N1536 N 0.70416 0.14987 0.2224 0.0
C1537 C 0.68582 0.12391 0.21776 0.0
C1538 C 0.67061 0.11677 0.17263 0.0
C1539 C 0.58275 0.91973 0.50642 0.0
C1540 C 0.57798 0.89351 0.50043 0.0
C1541 C 0.57587 0.92858 0.55043 0.0
C1542 C 0.5643 0.91211 0.59212 0.0
H1543 H 0.59106 0.93338 0.47623 0.0
H1544 H 0.57874 0.9483 0.55082 0.0
S1545 S 0.54727 0.84184 0.59689 0.0
N1546 N 0.56008 0.85138 0.54204 0.0
N1547 N 0.54835 0.86787 0.6223 0.0
C1548 C 0.55962 0.8861 0.58627 0.0
C1549 C 0.56617 0.87701 0.54175 0.0
C1550 C 0.11073 0.67388 0.58396 0.0
C1551 C 0.08482 0.65214 0.58994 0.0
C1552 C 0.1197 0.68917 0.5401 0.0
C1553 C 0.10367 0.68388 0.49794 0.0
H1554 H 0.12471 0.67895 0.61358 0.0
H1555 H 0.1399 0.70526 0.53907 0.0
S1556 S 0.03565 0.62697 0.48883 0.0
N1557 N 0.0438 0.62556 0.54592 0.0
N1558 N 0.06094 0.65313 0.46434 0.0
C1559 C 0.07789 0.66198 0.50262 0.0
C1560 C 0.06851 0.64657 0.54785 0.0
C1561 C 0.33037 0.41041 0.57731 0.0
C1562 C 0.34223 0.43629 0.5972 0.0
C1563 C 0.31746 0.40381 0.53038 0.0
C1564 C 0.31505 0.42247 0.50092 0.0
H1565 H 0.33093 0.39502 0.59807 0.0
H1566 H 0.30898 0.38382 0.51745 0.0
S1567 S 0.34184 0.49288 0.53528 0.0
N1568 N 0.34998 0.48049 0.58166 0.0
N1569 N 0.32603 0.46823 0.49686 0.0
C1570 C 0.32667 0.4482 0.52079 0.0
C1571 C 0.33992 0.45496 0.56766 0.0
C1572 C 0.786 0.76307 0.37339 0.0
C1573 C 0.76944 0.75148 0.33213 0.0
C1574 C 0.77716 0.76875 0.41794 0.0
C1575 C 0.75088 0.7631 0.42558 0.0
H1576 H 0.80655 0.7685 0.37105 0.0
H1577 H 0.79153 0.77842 0.44668 0.0
S1578 S 0.69968 0.73561 0.32867 0.0
N1579 N 0.72536 0.73658 0.30186 0.0
N1580 N 0.70874 0.74624 0.3849 0.0
C1581 C 0.73397 0.75137 0.38479 0.0
C1582 C 0.74312 0.74583 0.33881 0.0
C1583 C 0.24744 0.98861 0.39827 0.0
C1584 C 0.22855 0.98831 0.43104 0.0
C1585 C 0.25363 0.00229 0.35209 0.0
C1586 C 0.24163 0.017 0.3364 0.0
H1587 H 0.25696 0.97757 0.40791 0.0
H1588 H 0.26767 0.00101 0.32835 0.0
S1589 S 0.19323 0.02551 0.41106 0.0
N1590 N 0.19956 0.00598 0.44469 0.0
N1591 N 0.2112 0.0316 0.36146 0.0
C1592 C 0.22361 0.01763 0.3702 0.0
C1593 C 0.21719 0.00355 0.41621 0.0
C1594 C 0.00606 0.22835 0.34112 0.0
C1595 C 0.98477 0.23309 0.33426 0.0
C1596 C 0.0211 0.23469 0.38517 0.0
C1597 C 0.01589 0.24595 0.42644 0.0
H1598 H 0.01089 0.21896 0.31217 0.0
H1599 H 0.03687 0.23016 0.38711 0.0
S1600 S 0.95995 0.2584 0.43267 0.0
N1601 N 0.95863 0.24852 0.37596 0.0
N1602 N 0.98573 0.25899 0.45829 0.0
C1603 C 0.99449 0.25047 0.42072 0.0
C1604 C 0.9794 0.24447 0.37522 0.0
C1605 C 0.26436 0.24677 0.87066 0.0
C1606 C 0.24656 0.23503 0.83102 0.0
C1607 C 0.25692 0.25369 0.91603 0.0
C1608 C 0.23116 0.24944 0.92467 0.0
H1609 H 0.28392 0.24948 0.8676 0.0
H1610 H 0.27115 0.26112 0.94542 0.0
S1611 S 0.17608 0.21707 0.83474 0.0
N1612 N 0.2014 0.21853 0.80574 0.0
N1613 N 0.18746 0.23048 0.88862 0.0
C1614 C 0.21321 0.2372 0.88537 0.0
C1615 C 0.22082 0.23041 0.83965 0.0
C1616 C 0.74659 0.00496 0.86045 0.0
C1617 C 0.77129 0.01422 0.83652 0.0
C1618 C 0.74028 0.9912 0.90695 0.0
C1619 C 0.7573 0.98386 0.93083 0.0
H1620 H 0.73195 0.00833 0.84317 0.0
H1621 H 0.72194 0.98637 0.92447 0.0
S1622 S 0.82522 0.00463 0.8871 0.0
N1623 N 0.8136 0.0163 0.84518 0.0
N1624 N 0.8012 0.98954 0.9269 0.0
C1625 C 0.78203 0.99342 0.90742 0.0
C1626 C 0.7889 0.0083 0.86201 0.0
C1627 C 0.01554 0.78612 0.88986 0.0
C1628 C 0.01471 0.7682 0.92563 0.0
C1629 C 0.00127 0.77806 0.84511 0.0
C1630 C 0.98492 0.75129 0.8314 0.0
H1631 H 0.02734 0.80711 0.8966 0.0
H1632 H 0.00285 0.79344 0.82096 0.0
S1633 S 0.97514 0.69539 0.91078 0.0
N1634 N 0.99532 0.72155 0.94338 0.0
N1635 N 0.96929 0.7065 0.85952 0.0
C1636 C 0.98412 0.73287 0.86634 0.0
C1637 C -0.00139 0.74121 0.91287 0.0
C1638 C 0.0019 0.34293 0.89947 0.0
C1639 C 0.01249 0.36739 0.92333 0.0
C1640 C 0.00574 0.34182 0.84949 0.0
C1641 C 0.02071 0.36507 0.8228 0.0
H1642 H 0.98961 0.32471 0.91898 0.0
H1643 H 0.99548 0.32299 0.83104 0.0
S1644 S 0.05437 0.43369 0.86808 0.0
N1645 N 0.03938 0.41535 0.91611 0.0
N1646 N 0.04809 0.41267 0.8232 0.0
C1647 C 0.03346 0.38932 0.84689 0.0
C1648 C 0.02884 0.39067 0.89703 0.0
C1649 C 0.64927 0.6498 0.90757 0.0
C1650 C 0.62347 0.63593 0.92629 0.0
C1651 C 0.65374 0.65825 0.85902 0.0
C1652 C 0.63258 0.65343 0.82835 0.0
H1653 H 0.66594 0.65319 0.92997 0.0
H1654 H 0.67351 0.66694 0.84449 0.0
S1655 S 0.5616 0.61969 0.86071 0.0
N1656 N 0.57667 0.61872 0.9108 0.0
N1657 N 0.58531 0.63593 0.82073 0.0
C1658 C 0.60702 0.64165 0.84788 0.0
C1659 C 0.60236 0.63241 0.89659 0.0
C1660 C 0.36535 0.00771 0.90704 0.0
C1661 C 0.373 0.99558 0.94243 0.0
C1662 C 0.35931 0.99755 0.85966 0.0
C1663 C 0.36119 0.97531 0.84657 0.0
H1664 H 0.36503 0.0256 0.91556 0.0
H1665 H 0.35519 0.00836 0.83231 0.0
S1666 S 0.37903 0.93595 0.92727 0.0
N1667 N 0.38086 0.95963 0.96249 0.0
N1668 N 0.3692 0.94042 0.87351 0.0
C1669 C 0.36709 0.9621 0.88269 0.0
C1670 C 0.37324 0.97238 0.93064 0.0
C1671 C 0.00233 0.61921 0.36 0.0
C1672 C 0.01286 0.6435 0.33521 0.0
C1673 C 0.98877 0.61469 0.40353 0.0
C1674 C 0.98533 0.63435 0.42554 0.0
H1675 H 0.00387 0.6029 0.34533 0.0
H1676 H 0.9821 0.59585 0.42128 0.0
S1677 S 0.00703 0.70095 0.37554 0.0
N1678 N 0.01778 0.68742 0.33566 0.0
N1679 N 0.99197 0.67861 0.41861 0.0
C1680 C 0.99506 0.65862 0.40127 0.0
C1681 C 0.00889 0.66328 0.35605 0.0
C1682 C 0.33566 0.36895 0.32493 0.0
C1683 C 0.36014 0.38289 0.30177 0.0
C1684 C 0.33407 0.35947 0.37237 0.0
C1685 C 0.35679 0.36364 0.39751 0.0
H1686 H 0.31811 0.36702 0.30776 0.0
H1687 H 0.31532 0.35052 0.39026 0.0
S1688 S 0.42436 0.39349 0.34757 0.0
N1689 N 0.40667 0.39593 0.30307 0.0
N1690 N 0.40355 0.3786 0.39285 0.0
C1691 C 0.38072 0.37467 0.37229 0.0
C1692 C 0.38242 0.38427 0.32417 0.0
C1693 C 0.64831 0.99622 0.35069 0.0
C1694 C 0.62237 0.98971 0.33853 0.0
C1695 C 0.65755 0.00305 0.39872 0.0
C1696 C 0.64094 0.00351 0.4349 0.0
H1697 H 0.66175 0.99713 0.32272 0.0
H1698 H 0.67769 0.00846 0.40736 0.0
S1699 S 0.57093 0.9855 0.42222 0.0
N1700 N 0.57976 0.98169 0.36718 0.0
N1701 N 0.59728 0.99524 0.45679 0.0
C1702 C 0.61473 0.99581 0.42347 0.0
C1703 C 0.60533 0.98859 0.37536 0.0
C1704 C 0.64104 0.66514 0.23412 0.0
C1705 C 0.64284 0.68765 0.25624 0.0
C1706 C 0.65269 0.66686 0.18872 0.0
C1707 C 0.66663 0.69112 0.16436 0.0
H1708 H 0.63043 0.64607 0.25179 0.0
H1709 H 0.65049 0.64913 0.17207 0.0
S1710 S 0.67867 0.75626 0.20741 0.0
N1711 N 0.66087 0.73532 0.2506 0.0
N1712 N 0.68231 0.73818 0.1656 0.0
C1713 C 0.66911 0.71383 0.18642 0.0
C1714 C 0.65716 0.71215 0.23212 0.0
C1715 C 0.32547 0.95641 0.18901 0.0
C1716 C 0.32657 0.97784 0.16325 0.0
C1717 C 0.33138 0.95841 0.23856 0.0
C1718 C 0.33867 0.9819 0.26354 0.0
H1719 H 0.31736 0.93715 0.17235 0.0
H1720 H 0.3264 0.94054 0.25857 0.0
S1721 S 0.3594 0.04688 0.20814 0.0
N1722 N 0.34549 0.02568 0.16305 0.0
N1723 N 0.35773 0.02915 0.25633 0.0
C1724 C 0.34595 0.00471 0.23635 0.0
C1725 C 0.33953 0.00277 0.18585 0.0
C1726 C 0.0023 0.322 0.22334 0.0
C1727 C 0.02245 0.31861 0.2437 0.0
C1728 C 0.99462 0.31516 0.17464 0.0
C1729 C 0.00682 0.30461 0.14556 0.0
H1730 H 0.99249 0.32993 0.24513 0.0
H1731 H 0.97962 0.31871 0.15925 0.0
S1732 S 0.06266 0.29495 0.18089 0.0
N1733 N 0.05569 0.30607 0.23054 0.0
N1734 N 0.04132 0.29309 0.13955 0.0
C1735 C 0.02718 0.30147 0.16568 0.0
C1736 C 0.03504 0.30858 0.21465 0.0
C1737 C 0.65383 0.9786 0.69459 0.0
C1738 C 0.64871 0.9553 0.67079 0.0
C1739 C 0.64908 0.97833 0.74451 0.0
C1740 C 0.6385 0.95465 0.77087 0.0
H1741 H 0.66239 0.99713 0.67495 0.0
H1742 H 0.65523 0.99682 0.76311 0.0
S1743 S 0.62274 0.88892 0.72592 0.0
N1744 N 0.63368 0.90835 0.67778 0.0
N1745 N 0.62307 0.90776 0.77075 0.0
C1746 C 0.63209 0.93114 0.747 0.0
C1747 C 0.63777 0.93151 0.69704 0.0
C1748 C 0.01227 0.67576 0.68987 0.0
C1749 C 0.03689 0.69133 0.66751 0.0
C1750 C 0.01077 0.66988 0.73953 0.0
C1751 C 0.03387 0.67896 0.76725 0.0
H1752 H 0.99418 0.66896 0.66931 0.0
H1753 H 0.99162 0.6597 0.75696 0.0
S1754 S 0.10285 0.72036 0.72585 0.0
N1755 N 0.0847 0.71599 0.67696 0.0
N1756 N 0.08173 0.7035 0.76949 0.0
C1757 C 0.0585 0.69316 0.74467 0.0
C1758 C 0.06007 0.69983 0.69488 0.0
C1759 C 0.29004 0.31056 0.75903 0.0
C1760 C 0.31602 0.32476 0.77652 0.0
C1761 C 0.28506 0.30577 0.70947 0.0
C1762 C 0.30593 0.3148 0.67614 0.0
H1763 H 0.27352 0.30489 0.78342 0.0
H1764 H 0.26487 0.29701 0.69672 0.0
S1765 S 0.3769 0.34512 0.70592 0.0
N1766 N 0.36255 0.34325 0.75875 0.0
N1767 N 0.35296 0.33232 0.66492 0.0
C1768 C 0.33178 0.32562 0.69387 0.0
C1769 C 0.33695 0.33133 0.74444 0.0
C1770 C 0.33201 0.99772 0.57691 0.0
C1771 C 0.34319 0.02018 0.60655 0.0
C1772 C 0.33639 0.00018 0.52661 0.0
C1773 C 0.35128 0.02512 0.50494 0.0
H1774 H 0.31874 0.97847 0.59227 0.0
H1775 H 0.32665 0.98276 0.50437 0.0
S1776 S 0.38703 0.08942 0.5681 0.0
N1777 N 0.37211 0.06766 0.61206 0.0
N1778 N 0.37959 0.0722 0.51711 0.0
C1779 C 0.36454 0.04734 0.53485 0.0
C1780 C 0.36047 0.04488 0.58595 0.0
C1781 C 0.95111 0.28964 0.52515 0.0
C1782 C 0.96817 0.31356 0.50152 0.0
C1783 C 0.95779 0.28308 0.56949 0.0
C1784 C 0.98138 0.30053 0.5933 0.0
H1785 H 0.93264 0.27526 0.50855 0.0
H1786 H 0.94366 0.26457 0.5863 0.0
S1787 S 0.03311 0.36567 0.5477 0.0
N1788 N 0.01016 0.35467 0.50484 0.0
N1789 N 0.02216 0.34269 0.59047 0.0
C1790 C -0.00127 0.32462 0.57063 0.0
C1791 C 0.99223 0.33108 0.52432 0.0
C1792 C 0.71207 0.70835 0.55708 0.0
C1793 C 0.69818 0.68839 0.59145 0.0
C1794 C 0.71049 0.70215 0.50756 0.0
C1795 C 0.6951 0.67594 0.49175 0.0
H1796 H 0.72604 0.72819 0.56893 0.0
H1797 H 0.72316 0.71736 0.48219 0.0
S1798 S 0.65504 0.61737 0.56707 0.0
N1799 N 0.66812 0.64196 0.60642 0.0
N1800 N 0.66445 0.63063 0.51276 0.0
C1801 C 0.67946 0.65642 0.52526 0.0
C1802 C 0.68115 0.6626 0.57546 0.0
C1803 C 0.34327 0.33372 1.0193 0.0
C1804 C 0.35863 0.32268 1.00493 0.0
C1805 C 0.33788 0.33479 0.06866 0.0
C1806 C 0.34839 0.32543 0.10425 0.0
H1807 H 0.3336 0.33938 0.99225 0.0
H1808 H 0.32408 0.34118 0.07876 0.0
S1809 S 0.39212 0.29758 0.0845 0.0
N1810 N 0.38619 0.30467 1.02936 0.0
N1811 N 0.37644 0.30689 0.12234 0.0
C1812 C 0.36582 0.31676 0.09033 0.0
C1813 C 0.37098 0.31543 1.04037 0.0
C1814 C 0.66691 0.01288 1.01746 0.0
C1815 C 0.67686 0.03896 1.00105 0.0
C1816 C 0.66611 0.00744 0.06719 0.0
C1817 C 0.6748 0.02792 0.1012 0.0
H1818 H 0.66213 0.99713 0.99162 0.0
H1819 H 0.6609 0.98773 0.0788 0.0
S1820 S 0.70002 0.09875 0.07679 0.0
N1821 N 0.69323 0.08479 1.02249 0.0
N1822 N 0.69144 0.07447 0.1162 0.0
C1823 C 0.6821 0.05347 0.0855 0.0
C1824 C 0.6831 0.05904 1.03506 0.0
C1825 C 0.95844 0.64697 1.0175 0.0
C1826 C 0.93362 0.64504 1.01072 0.0
C1827 C 0.97229 0.65634 0.06128 0.0
C1828 C 0.96211 0.66498 0.09834 0.0
H1829 H 0.96755 0.64181 0.98854 0.0
H1830 H 0.99084 0.65675 0.06629 0.0
S1831 S 0.89801 0.66317 0.1003 0.0
N1832 N 0.89876 0.65059 1.04701 0.0
N1833 N 0.92611 0.67065 0.12718 0.0
C1834 C 0.93753 0.66325 0.0922 0.0
C1835 C 0.92291 0.6526 1.04893 0.0
C1836 C 0.05701 0.49387 0.94978 0.0
C1837 C 0.06814 0.52163 0.94733 0.0
C1838 C 0.05205 0.48016 0.99489 0.0
C1839 C 0.05822 0.49346 1.04017 0.0
H1840 H 0.05176 0.4825 0.91643 0.0
H1841 H 0.04354 0.45894 0.99415 0.0
S1842 S 0.08806 0.5661 0.05501 0.0
N1843 N 0.08557 0.56172 0.99545 0.0
N1844 N 0.07607 0.53642 0.07888 0.0
C1845 C 0.06934 0.52119 1.03817 0.0
C1846 C 0.07429 0.53507 0.99242 0.0
C1847 C 0.50978 0.55915 1.00992 0.0
C1848 C 0.49729 0.56248 1.0511 0.0
C1849 C 0.49664 0.55029 0.9646 0.0
C1850 C 0.4702 0.54407 0.95806 0.0
H1851 H 0.52996 0.56333 1.0126 0.0
H1852 H 0.50723 0.54798 0.9345 0.0
S1853 S 0.42909 0.55174 0.05223 0.0
N1854 N 0.45719 0.56052 0.08049 0.0
N1855 N 0.43268 0.54363 0.99636 0.0
C1856 C 0.45764 0.54775 0.9986 0.0
C1857 C 0.47107 0.557 1.0446 0.0
C1858 C 0.43682 0.91439 1.03665 0.0
C1859 C 0.43414 0.93681 1.0438 0.0
C1860 C 0.4455 0.90947 0.99162 0.0
C1861 C 0.45205 0.92672 0.95123 0.0
H1862 H 0.43198 0.90034 0.06603 0.0
H1863 H 0.44678 0.89173 0.98831 0.0
S1864 S 0.45146 0.98993 0.95207 0.0
N1865 N 0.44068 0.97743 1.00675 0.0
N1866 N 0.45701 0.9684 0.92354 0.0
C1867 C 0.44999 0.94951 0.95835 0.0
C1868 C 0.4411 0.95447 1.00402 0.0
C1869 C 0.48289 0.05049 0.7577 0.0
C1870 C 0.49531 0.06096 0.71254 0.0
C1871 C 0.49724 0.05669 0.80201 0.0
C1872 C 0.52491 0.07347 0.80357 0.0
H1873 H 0.46178 0.03752 0.75908 0.0
H1874 H 0.4864 0.04857 0.8355 0.0
S1875 S 0.5678 0.10249 0.69495 0.0
N1876 N 0.53765 0.08693 0.67225 0.0
N1877 N 0.56439 0.09779 0.75443 0.0
C1878 C 0.53773 0.083 0.75838 0.0
C1879 C 0.52309 0.07692 0.71337 0.0
C1880 C 0.92354 0.44683 0.71993 0.0
C1881 C 0.93732 0.43276 0.71742 0.0
C1882 C 0.91873 0.45568 0.76469 0.0
C1883 C 0.92754 0.4512 0.80977 0.0
H1884 H 0.91635 0.45121 0.68685 0.0
H1885 H 0.90817 0.46646 0.76378 0.0
S1886 S 0.96376 0.4145 0.82473 0.0
N1887 N 0.95924 0.41434 0.76528 0.0
N1888 N 0.95028 0.43083 0.84862 0.0
C1889 C 0.94137 0.43716 0.80792 0.0
C1890 C 0.94619 0.42802 0.76224 0.0
C1891 C 0.55403 0.49542 0.80605 0.0
C1892 C 0.54326 0.46777 0.80697 0.0
C1893 C 0.56343 0.51022 0.76246 0.0
C1894 C 0.5624 0.49818 0.7173 0.0
H1895 H 0.55549 0.50582 0.83955 0.0
H1896 H 0.57158 0.53137 0.76435 0.0
S1897 S 0.53463 0.42606 0.69894 0.0
N1898 N 0.53123 0.42891 0.75793 0.0
N1899 N 0.54882 0.45633 0.67681 0.0
C1900 C 0.55146 0.47047 0.71774 0.0
C1901 C 0.54197 0.45545 0.76214 0.0
C1902 C 0.94681 0.51662 0.26039 0.0
C1903 C 0.93809 0.50347 0.21522 0.0
C1904 C 0.9408 0.50277 0.30533 0.0
C1905 C 0.92583 0.47491 0.3077 0.0
H1906 H 0.95822 0.53792 0.26127 0.0
H1907 H 0.94764 0.51413 0.33864 0.0
S1908 S 0.90104 0.43052 0.19998 0.0
N1909 N 0.9152 0.46042 0.17623 0.0
N1910 N 0.90464 0.43474 0.25953 0.0
C1911 C 0.91779 0.46148 0.26267 0.0
C1912 C 0.92373 0.47558 0.217 0.0
C1913 C 0.49881 0.44535 0.29925 0.0
C1914 C 0.52552 0.4521 0.30405 0.0
C1915 C 0.4849 0.43642 0.25453 0.0
C1916 C 0.49686 0.43382 0.21176 0.0
H1917 H 0.48833 0.44664 0.33061 0.0
H1918 H 0.46448 0.43163 0.25359 0.0
S1919 S 0.5668 0.45022 0.20303 0.0
N1920 N 0.56359 0.45651 0.26044 0.0
N1921 N 0.53762 0.4395 0.17761 0.0
C1922 C 0.5236 0.44067 0.21592 0.0
C1923 C 0.53778 0.44979 0.26146 0.0
C1924 C 0.55854 0.05066 0.2524 0.0
C1925 C 0.56181 0.06598 0.21025 0.0
C1926 C 0.54947 0.05525 0.29735 0.0
C1927 C 0.54326 0.07556 0.30304 0.0
H1928 H 0.56296 0.03482 0.25084 0.0
H1929 H 0.5477 0.04292 0.32823 0.0
S1930 S 0.5471 0.12084 0.20401 0.0
N1931 N 0.55747 0.10232 0.17793 0.0
N1932 N 0.54002 0.11032 0.2608 0.0
C1933 C 0.54616 0.09081 0.26103 0.0
C1934 C 0.55545 0.0862 0.21537 0.0
C1935 C 0.51491 0.94141 0.49583 0.0
C1936 C 0.50286 0.93872 0.54155 0.0
C1937 C 0.50051 0.93606 0.45159 0.0
C1938 C 0.47326 0.9276 0.45085 0.0
H1939 H 0.53556 0.94718 0.4943 0.0
H1940 H 0.51075 0.93811 0.41764 0.0
S1941 S 0.43243 0.9191 0.56011 0.0
N1942 N 0.46185 0.92784 0.5826 0.0
N1943 N 0.43531 0.9183 0.50042 0.0
C1944 C 0.46109 0.9252 0.4963 0.0
C1945 C 0.47568 0.93057 0.5412 0.0
C1946 C 0.05027 0.55576 0.45141 0.0
C1947 C 0.06866 0.54689 0.44778 0.0
C1948 C 0.04499 0.56419 0.4963 0.0
C1949 C 0.05799 0.56443 0.53995 0.0
H1950 H 0.03958 0.55592 0.41928 0.0
H1951 H 0.03055 0.57055 0.49665 0.0
S1952 S 0.10884 0.54422 0.55027 0.0
N1953 N 0.10046 0.53979 0.49216 0.0
N1954 N 0.09064 0.55517 0.57557 0.0
C1955 C 0.07652 0.55569 0.53663 0.0
C1956 C 0.08179 0.54707 0.49105 0.0
C1957 C 0.43238 0.49543 0.45663 0.0
C1958 C 0.44256 0.523 0.45459 0.0
C1959 C 0.42316 0.481 0.50068 0.0
C1960 C 0.42354 0.4933 0.54519 0.0
H1961 H 0.43186 0.48486 0.42394 0.0
H1962 H 0.41586 0.45997 0.49972 0.0
S1963 S 0.44637 0.56475 0.55969 0.0
N1964 N 0.45092 0.56163 0.50131 0.0
N1965 N 0.43418 0.53497 0.58332 0.0
C1966 C 0.43329 0.5208 0.54348 0.0
C1967 C 0.44264 0.53545 0.49865 0.0
C1968 C 0.7227 0.82542 0.28608 0.0
C1969 C 0.73673 0.85331 0.2843 0.0
C1970 C 0.7168 0.81138 0.3308 0.0
C1971 C 0.7247 0.82444 0.37623 0.0
H1972 H 0.7166 0.81426 0.25249 0.0
H1973 H 0.70625 0.79006 0.32957 0.0
S1974 S 0.75863 0.89722 0.39272 0.0
N1975 N 0.75594 0.89326 0.33303 0.0
N1976 N 0.74537 0.86727 0.41604 0.0
C1977 C 0.73796 0.85231 0.37497 0.0
C1978 C 0.74384 0.86656 0.32953 0.0
C1979 C 0.13225 0.88461 0.32266 0.0
C1980 C 0.14491 0.88561 0.27829 0.0
C1981 C 0.14634 0.89376 0.36704 0.0
C1982 C 0.17401 0.90472 0.36974 0.0
H1983 H 0.11106 0.87628 0.32335 0.0
H1984 H 0.13526 0.89211 0.39966 0.0
S1985 S 0.21717 0.91324 0.26386 0.0
N1986 N 0.18726 0.89943 0.24007 0.0
N1987 N 0.21351 0.91642 0.32265 0.0
C1988 C 0.18699 0.90608 0.32551 0.0
C1989 C 0.17258 0.89661 0.28028 0.0
C1990 C 0.11353 0.24657 0.32333 0.0
C1991 C 0.11919 0.26356 0.28293 0.0
C1992 C 0.10434 0.25097 0.36809 0.0
C1993 C 0.10032 0.2726 0.37494 0.0
H1994 H 0.11584 0.22941 0.32016 0.0
H1995 H 0.10012 0.23705 0.39749 0.0
S1996 S 0.11525 0.32494 0.28288 0.0
N1997 N 0.12203 0.3042 0.25453 0.0
N1998 N 0.10479 0.31236 0.33766 0.0
C1999 C 0.10647 0.29008 0.33513 0.0
C2000 C 0.11584 0.2856 0.2896 0.0
C2001 C 0.1593 0.37727 0.13703 0.0
C2002 C 0.18451 0.39965 0.14432 0.0
C2003 C 0.14587 0.3723 0.09185 0.0
C2004 C 0.15689 0.38951 0.05165 0.0
H2005 H 0.14994 0.36325 0.16641 0.0
H2006 H 0.12672 0.35467 0.08844 0.0
S2007 S 0.22144 0.45211 0.05254 0.0
N2008 N 0.21912 0.43992 0.10775 0.0
N2009 N 0.19435 0.43071 1.02366 0.0
C2010 C 0.18193 0.41215 0.05878 0.0
C2011 C 0.19556 0.41716 0.10468 0.0
C2012 C 0.59565 0.7804 0.05354 0.0
C2013 C 0.60463 0.76203 0.05268 0.0
C2014 C 0.59016 0.78921 0.09772 0.0
C2015 C 0.59328 0.78014 0.14366 0.0
H2016 H 0.59298 0.78828 1.01964 0.0
H2017 H 0.58361 0.8035 0.09581 0.0
S2018 S 0.61344 0.72985 0.16224 0.0
N2019 N 0.61498 0.73413 0.10261 0.0
N2020 N 0.60421 0.75008 0.18475 0.0
C2021 C 0.60187 0.76149 0.14333 0.0
C2022 C 0.60763 0.75264 0.09832 0.0
C2023 C 0.22871 0.83823 0.13595 0.0
C2024 C 0.21789 0.81058 0.1389 0.0
C2025 C 0.23766 0.85218 0.09127 0.0
C2026 C 0.2365 0.83931 1.047 0.0
H2027 H 0.22999 0.84927 0.16848 0.0
H2028 H 0.24552 0.87331 0.09159 0.0
S2029 S 0.21144 0.76727 1.03465 0.0
N2030 N 0.20774 0.77117 0.09309 0.0
N2031 N 0.2242 0.7969 1.01013 0.0
C2032 C 0.22603 0.81169 1.04963 0.0
C2033 C 0.21684 0.79753 0.09503 0.0
C2034 C 0.6087 0.83182 0.63859 0.0
C2035 C 0.59393 0.80398 0.64147 0.0
C2036 C 0.61331 0.84553 0.59367 0.0
C2037 C 0.60359 0.83213 0.54892 0.0
H2038 H 0.61647 0.8432 0.67158 0.0
H2039 H 0.62442 0.86689 0.59422 0.0
S2040 S 0.56622 0.75906 0.53506 0.0
N2041 N 0.5715 0.76359 0.59426 0.0
N2042 N 0.57966 0.78884 0.51093 0.0
C2043 C 0.58938 0.80423 0.55122 0.0
C2044 C 0.58471 0.79036 0.59692 0.0
C2045 C 0.15195 0.76133 0.59142 0.0
C2046 C 0.16494 0.76927 0.546 0.0
C2047 C 0.16581 0.77041 0.63609 0.0
C2048 C 0.19335 0.78791 0.6377 0.0
H2049 H 0.1309 0.74768 0.5926 0.0
H2050 H 0.15485 0.76329 0.66975 0.0
S2051 S 0.23639 0.81717 0.52946 0.0
N2052 N 0.20697 0.79729 0.50607 0.0
N2053 N 0.23257 0.81439 0.58916 0.0
C2054 C 0.20641 0.79651 0.59255 0.0
C2055 C 0.19238 0.78722 0.54715 0.0
C2056 C 0.23 0.38036 0.59711 0.0
C2057 C 0.23277 0.39529 0.55472 0.0
C2058 C 0.22092 0.38506 0.6418 0.0
C2059 C 0.21398 0.40488 0.64656 0.0
H2060 H 0.23465 0.36466 0.59581 0.0
H2061 H 0.21896 0.37275 0.67281 0.0
S2062 S 0.21952 0.45112 0.54827 0.0
N2063 N 0.22889 0.43185 0.52192 0.0
N2064 N 0.21218 0.44056 0.605 0.0
C2065 C 0.21706 0.4202 0.60471 0.0
C2066 C 0.22634 0.41548 0.5593 0.0
C2067 C 0.13355 0.25589 0.82871 0.0
C2068 C 0.14633 0.26545 0.7835 0.0
C2069 C 0.14772 0.26143 0.87315 0.0
C2070 C 0.17558 0.27665 0.87505 0.0
H2071 H 0.11224 0.24413 0.8299 0.0
H2072 H 0.13658 0.25355 0.90642 0.0
S2073 S 0.21897 0.30527 0.76678 0.0
N2074 N 0.18887 0.29035 0.74368 0.0
N2075 N 0.21534 0.30054 0.82627 0.0
C2076 C 0.18865 0.2862 0.82998 0.0
C2077 C 0.17415 0.28069 0.78472 0.0
C2078 C 0.75219 0.89903 0.86399 0.0
C2079 C 0.72793 0.89741 0.87542 0.0
C2080 C 0.75627 0.8895 0.81931 0.0
C2081 C 0.73623 0.8775 0.78361 0.0
H2082 H 0.76839 0.90803 0.88971 0.0
H2083 H 0.77554 0.89187 0.81253 0.0
S2084 S 0.66783 0.86533 0.7979 0.0
N2085 N 0.68293 0.88116 0.84825 0.0
N2086 N 0.6902 0.86277 0.7656 0.0
C2087 C 0.71161 0.87519 0.79521 0.0
C2088 C 0.70758 0.88519 0.84054 0.0
C2089 C 0.09343 0.81308 0.82956 0.0
C2090 C 0.09698 0.82693 0.87365 0.0
C2091 C 0.10232 0.8263 0.78426 0.0
C2092 C 0.1155 0.85412 0.78056 0.0
H2093 H 0.08364 0.79174 0.82987 0.0
H2094 H 0.09911 0.81455 0.75183 0.0
S2095 S 0.12926 0.89999 0.88428 0.0
N2096 N 0.11447 0.87049 0.90975 0.0
N2097 N 0.13073 0.89491 0.82553 0.0
C2098 C 0.11905 0.86818 0.82428 0.0
C2099 C 0.10993 0.85477 0.87032 0.0
C2100 C 0.38197 0.1451 0.66546 0.0
C2101 C 0.38822 0.15853 0.7106 0.0
C2102 C 0.38684 0.15864 0.62029 0.0
C2103 C 0.39826 0.18639 0.61771 0.0
H2104 H 0.37355 0.12389 0.66485 0.0
H2105 H 0.38201 0.14726 0.58697 0.0
S2106 S 0.41598 0.23092 0.72474 0.0
N2107 N 0.40515 0.20146 0.749 0.0
N2108 N 0.41381 0.22641 0.66519 0.0
C2109 C 0.40399 0.19994 0.66255 0.0
C2110 C 0.39911 0.18622 0.70844 0.0
C2111 C 0.81316 0.22726 0.70243 0.0
C2112 C 0.8387 0.23076 0.70809 0.0
C2113 C 0.79902 0.21864 0.65797 0.0
C2114 C 0.80946 0.21277 0.61653 0.0
H2115 H 0.80392 0.23139 0.73263 0.0
H2116 H 0.7795 0.21631 0.65631 0.0
S2117 S 0.8755 0.21822 0.61131 0.0
N2118 N 0.87356 0.22695 0.66763 0.0
N2119 N 0.84752 0.2115 0.58467 0.0
C2120 C 0.83495 0.216 0.62176 0.0
C2121 C 0.84936 0.22478 0.66708 0.0
C2122 C 0.76759 0.60839 0.61528 0.0
C2123 C 0.78331 0.59631 0.61347 0.0
C2124 C 0.7586 0.61323 0.66011 0.0
C2125 C 0.76496 0.60634 0.70553 0.0
H2126 H 0.76172 0.61372 0.58163 0.0
H2127 H 0.74627 0.62214 0.65903 0.0
S2128 S 0.80851 0.57739 0.72143 0.0
N2129 N 0.80667 0.57981 0.6618 0.0
N2130 N 0.79013 0.58861 0.74492 0.0
C2131 C 0.78142 0.59503 0.70403 0.0
C2132 C 0.79046 0.59011 0.65855 0.0
C2133 C 0.87039 0.75086 0.42944 0.0
C2134 C 0.85769 0.73881 0.47359 0.0
C2135 C 0.85643 0.74596 0.38496 0.0
C2136 C 0.82889 0.7286 0.38177 0.0
H2137 H 0.89142 0.7646 0.42924 0.0
H2138 H 0.86751 0.75602 0.35266 0.0
S2139 S 0.78599 0.69057 0.48586 0.0
N2140 N 0.81565 0.70766 0.51039 0.0
N2141 N 0.78959 0.69868 0.42757 0.0
C2142 C 0.8159 0.71617 0.42555 0.0
C2143 C 0.83016 0.72121 0.471 0.0
C2144 C 0.27151 0.09119 0.43188 0.0
C2145 C 0.26614 0.09875 0.38626 0.0
C2146 C 0.26684 0.10041 0.47639 0.0
C2147 C 0.25648 0.11763 0.4777 0.0
H2148 H 0.27923 0.07782 0.43334 0.0
H2149 H 0.27109 0.09368 0.51019 0.0
S2150 S 0.24127 0.14552 0.36887 0.0
N2151 N 0.25121 0.12596 0.34586 0.0
N2152 N 0.24266 0.14311 0.42863 0.0
C2153 C 0.25144 0.12566 0.43237 0.0
C2154 C 0.25619 0.11631 0.38711 0.0
C2155 C 0.89132 0.17013 0.47484 0.0
C2156 C 0.87716 0.14224 0.47625 0.0
C2157 C 0.90012 0.1843 0.43037 0.0
C2158 C 0.89533 0.17137 0.3849 0.0
H2159 H 0.89615 0.1812 0.50855 0.0
H2160 H 0.91109 0.2056 0.43183 0.0
S2161 S 0.85563 0.09866 0.36746 0.0
N2162 N 0.85639 0.10246 0.42713 0.0
N2163 N 0.87294 0.12865 0.34456 0.0
C2164 C 0.88029 0.14349 0.38578 0.0
C2165 C 0.87128 0.12912 0.43096 0.0
C2166 C 0.27979 0.18489 0.92938 0.0
C2167 C 0.2683 0.17175 0.88516 0.0
C2168 C 0.27474 0.17117 0.97424 0.0
C2169 C 0.2581 0.14352 0.97732 0.0
H2170 H 0.29285 0.20605 0.92954 0.0
H2171 H 0.28427 0.18237 1.0068 0.0
S2172 S 0.22226 0.0995 0.87308 0.0
N2173 N 0.23896 0.12906 0.84824 0.0
N2174 N 0.22943 0.10373 0.93174 0.0
C2175 C 0.24639 0.13017 0.93348 0.0
C2176 C 0.25144 0.1441 0.88786 0.0
C2177 C 0.82998 0.11131 0.97103 0.0
C2178 C 0.85609 0.11639 0.97752 0.0
C2179 C 0.81633 0.10218 0.92612 0.0
C2180 C 0.82798 0.0976 0.88501 0.0
H2181 H 0.82001 0.11477 1.00083 0.0
H2182 H 0.79648 0.09898 0.92357 0.0
S2183 S 0.89511 0.10559 0.88297 0.0
N2184 N 0.89229 0.11436 0.93876 0.0
N2185 N 0.86714 0.09783 0.85515 0.0
C2186 C 0.85393 0.10222 0.89118 0.0
C2187 C 0.86778 0.11143 0.93693 0.0
C2188 C 0.9042 0.72254 0.9239 0.0
C2189 C 0.90045 0.7322 0.8791 0.0
C2190 C 0.89577 0.72767 0.96888 0.0
C2191 C 0.88284 0.74256 0.97164 0.0
H2192 H 0.91396 0.711 0.92443 0.0
H2193 H 0.89915 0.71957 1.00183 0.0
S2194 S 0.86887 0.77338 0.86573 0.0
N2195 N 0.88328 0.75811 0.84126 0.0
N2196 N 0.86764 0.76766 0.92486 0.0
C2197 C 0.87912 0.75248 0.92718 0.0
C2198 C 0.88787 0.74741 0.88143 0.0
C2199 C 0.85221 0.60751 0.16183 0.0
C2200 C 0.83951 0.60505 0.20682 0.0
C2201 C 0.8386 0.60246 0.11664 0.0
C2202 C 0.81152 0.59466 0.11401 0.0
H2203 H 0.87282 0.61296 0.16149 0.0
H2204 H 0.84932 0.60428 0.08341 0.0
S2205 S 0.76909 0.58644 0.22066 0.0
N2206 N 0.798 0.59472 0.24503 0.0
N2207 N 0.77296 0.58583 0.16124 0.0
C2208 C 0.7987 0.59236 0.15874 0.0
C2209 C 0.81247 0.59737 0.2046 0.0
C2210 C 0.41384 0.21864 0.15763 0.0
C2211 C 0.39904 0.21592 0.11511 0.0
C2212 C 0.40909 0.22765 0.20221 0.0
C2213 C 0.38926 0.23456 0.20707 0.0
H2214 H 0.42961 0.21408 0.1564 0.0
H2215 H 0.42136 0.22943 0.23318 0.0
S2216 S 0.34298 0.22871 0.10842 0.0
N2217 N 0.36233 0.21938 0.08217 0.0
N2218 N 0.35365 0.23645 0.16508 0.0
C2219 C 0.37402 0.23159 0.16503 0.0
C2220 C 0.37884 0.22233 0.11954 0.0
C2221 C 0.77098 0.16368 0.11872 0.0
C2222 C 0.78512 0.19159 0.11668 0.0
C2223 C 0.76159 0.14968 0.16336 0.0
C2224 C 0.76589 0.16276 0.20866 0.0
H2225 H 0.76674 0.15244 0.08532 0.0
H2226 H 0.75068 0.12834 0.16216 0.0
S2227 S 0.80359 0.23566 0.22465 0.0
N2228 N 0.80408 0.23158 0.16524 0.0
N2229 N 0.78655 0.20573 0.24794 0.0
C2230 C 0.78033 0.19066 0.20713 0.0
C2231 C 0.78985 0.20486 0.16175 0.0
C2232 C -0.00128 0.39988 0.35186 0.0
C2233 C 0.0083 0.42479 0.32892 0.0
C2234 C 0.98795 0.39461 0.40022 0.0
C2235 C 0.98526 0.41363 0.42779 0.0
H2236 H -6e-05 0.38439 0.33266 0.0
H2237 H 0.9812 0.37527 0.41575 0.0
S2238 S 0.0068 0.48177 0.38545 0.0
N2239 N 0.01423 0.46861 0.33936 0.0
N2240 N 0.99349 0.4585 0.42742 0.0
C2241 C 0.9945 0.43837 0.40498 0.0
C2242 C 0.00606 0.44396 0.35669 0.0
C2243 C 0.56117 0.57857 0.4263 0.0
C2244 C 0.58413 0.57731 0.4371 0.0
C2245 C 0.55542 0.58386 0.37846 0.0
C2246 C 0.57241 0.58874 0.33812 0.0
H2247 H 0.54689 0.57446 0.45489 0.0
H2248 H 0.53702 0.58361 0.373 0.0
S2249 S 0.63685 0.59076 0.34734 0.0
N2250 N 0.62487 0.58306 0.40321 0.0
N2251 N 0.61472 0.59376 0.31478 0.0
C2252 C 0.59605 0.58862 0.34901 0.0
C2253 C 0.60166 0.58271 0.39768 0.0
C2254 C 0.41984 0.01494 0.33932 0.0
C2255 C 0.40618 0.98736 0.33061 0.0
C2256 C 0.42535 0.02588 0.38739 0.0
C2257 C 0.41687 0.01003 0.43007 0.0
H2258 H 0.42727 0.02835 0.30864 0.0
H2259 H 0.43665 0.04713 0.39107 0.0
S2260 S 0.37978 0.93666 0.42895 0.0
N2261 N 0.38432 0.94456 0.37056 0.0
N2262 N 0.3935 0.96483 0.45911 0.0
C2263 C 0.40256 0.98247 0.42185 0.0
C2264 C 0.39762 0.97132 0.37303 0.0
C2265 C 0.00087 0.56332 0.90805 0.0
C2266 C 0.98931 0.57707 0.92957 0.0
C2267 C 0.01075 0.56819 0.85934 0.0
C2268 C 0.00903 0.58654 0.82781 0.0
H2269 H 0.00237 0.54849 0.92923 0.0
H2270 H 0.0193 0.5568 0.84582 0.0
S2271 S 0.97898 0.62677 0.86413 0.0
N2272 N 0.97653 0.60989 0.91408 0.0
N2273 N 0.99312 0.61755 0.8226 0.0
C2274 C 0.99676 0.59986 0.84838 0.0
C2275 C 0.98753 0.59557 0.8988 0.0
C2276 C 0.39446 0.42135 0.86873 0.0
C2277 C 0.40212 0.41341 0.82578 0.0
C2278 C 0.40049 0.4163 0.91677 0.0
C2279 C 0.41538 0.40365 0.92548 0.0
H2280 H 0.38392 0.43208 0.86527 0.0
H2281 H 0.39426 0.42343 0.94745 0.0
S2282 S 0.44059 0.37863 0.82651 0.0
N2283 N 0.42511 0.39138 0.7965 0.0
N2284 N 0.43733 0.38304 0.88498 0.0
C2285 C 0.42301 0.39543 0.88278 0.0
C2286 C 0.41617 0.3999 0.83389 0.0
C2287 C 0.56257 0.01038 0.89825 0.0
C2288 C 0.58557 0.01573 0.92467 0.0
C2289 C 0.55675 0.99861 0.85094 0.0
C2290 C 0.57416 0.99259 0.82562 0.0
H2291 H 0.54848 0.01484 0.91475 0.0
H2292 H 0.53847 0.99459 0.83363 0.0
S2293 S 0.63746 0.00332 0.87668 0.0
N2294 N 0.62535 0.01296 0.92122 0.0
N2295 N 0.61605 0.99394 0.83136 0.0
C2296 C 0.59749 0.99846 0.85105 0.0
C2297 C 0.60272 0.00911 0.9004 0.0
C2298 C 0.6802 0.74965 0.7535 0.0
C2299 C 0.65289 0.73894 0.76295 0.0
C2300 C 0.69092 0.75512 0.70518 0.0
C2301 C 0.67498 0.74936 0.66281 0.0
H2302 H 0.6937 0.7548 0.78392 0.0
H2303 H 0.71207 0.76413 0.70105 0.0
S2304 S 0.60218 0.72069 0.66566 0.0
N2305 N 0.61029 0.72291 0.72386 0.0
N2306 N 0.62995 0.73183 0.63486 0.0
C2307 C 0.6476 0.73795 0.67169 0.0
C2308 C 0.63679 0.73315 0.72082 0.0
C2309 C 0.24411 0.92851 0.75043 0.0
C2310 C 0.2571 0.91399 0.75984 0.0
C2311 C 0.23844 0.93358 0.70201 0.0
C2312 C 0.2461 0.92528 0.65948 0.0
H2313 H 0.23729 0.93521 0.78087 0.0
H2314 H 0.2277 0.94407 0.69795 0.0
S2315 S 0.28126 0.88716 0.66235 0.0
N2316 N 0.27752 0.89156 0.7206 0.0
N2317 N 0.26802 0.90192 0.63153 0.0
C2318 C 0.2598 0.91149 0.6684 0.0
C2319 C 0.26492 0.90567 0.7176 0.0
C2320 C 0.09277 0.35877 0.71942 0.0
C2321 C 0.08703 0.34256 0.76135 0.0
C2322 C 0.08692 0.34825 0.67101 0.0
C2323 C 0.07583 0.32093 0.66133 0.0
H2324 H 0.10195 0.37992 0.72397 0.0
H2325 H 0.09206 0.36185 0.64076 0.0
S2326 S 0.05773 0.26965 0.75723 0.0
N2327 N 0.06935 0.29733 0.7885 0.0
N2328 N 0.0596 0.27807 0.6993 0.0
C2329 C 0.07013 0.3046 0.70295 0.0
C2330 C 0.07537 0.31519 0.75208 0.0
C2331 C 0.67166 0.89064 0.18992 0.0
C2332 C 0.67958 0.91492 0.16592 0.0
C2333 C 0.65974 0.88473 0.23702 0.0
C2334 C 0.65599 0.90316 0.26426 0.0
H2335 H 0.67426 0.87571 0.17169 0.0
H2336 H 0.65377 0.86555 0.25262 0.0
S2337 S 0.67401 0.96989 0.22001 0.0
N2338 N 0.68237 0.95742 0.17408 0.0
N2339 N 0.66211 0.94716 0.26304 0.0
C2340 C 0.66442 0.92769 0.24123 0.0
C2341 C 0.67555 0.93331 0.19234 0.0
C2342 C 0.07962 0.76214 0.25305 0.0
C2343 C 0.09008 0.74528 0.26125 0.0
C2344 C 0.07422 0.76799 0.20532 0.0
C2345 C 0.07817 0.75673 0.16272 0.0
H2346 H 0.07643 0.77176 0.28383 0.0
H2347 H 0.067 0.7817 0.20184 0.0
S2348 S 0.10373 0.70993 0.16348 0.0
N2349 N 0.1034 0.71682 0.22173 0.0
N2350 N 0.09258 0.72685 0.13345 0.0
C2351 C 0.08782 0.73914 0.17066 0.0
C2352 C 0.09392 0.73373 0.21917 0.0
C2353 C 0.2356 0.30785 0.20743 0.0
C2354 C 0.24629 0.32424 0.16567 0.0
C2355 C 0.24103 0.31786 0.25628 0.0
C2356 C 0.25694 0.34511 0.26687 0.0
H2357 H 0.22255 0.28687 0.20243 0.0
H2358 H 0.2317 0.30411 0.28603 0.0
S2359 S 0.2904 0.39706 0.17224 0.0
N2360 N 0.27463 0.36963 0.14005 0.0
N2361 N 0.28375 0.38819 0.22998 0.0
C2362 C 0.26793 0.36168 0.22558 0.0
C2363 C 0.26298 0.35142 0.17595 0.0
C2364 C 0.30315 0.07007 0.05853 0.0
C2365 C 0.31916 0.07681 0.10106 0.0
C2366 C 0.31371 0.0749 1.01014 0.0
C2367 C 0.34117 0.08753 1.00062 0.0
H2368 H 0.282 0.06097 0.06255 0.0
H2369 H 0.30013 0.06948 0.97978 0.0
S2370 S 0.39234 0.109 0.09779 0.0
N2371 N 0.36447 0.09634 0.12877 0.0
N2372 N 0.38405 0.10598 1.03957 0.0
C2373 C 0.3574 0.09415 1.04274 0.0
C2374 C 0.34658 0.08866 0.09201 0.0
C2375 C 0.90456 0.26438 1.03763 0.0
C2376 C 0.91263 0.2559 0.99593 0.0
C2377 C 0.90996 0.25969 0.08644 0.0
C2378 C 0.92301 0.24536 0.09704 0.0
H2379 H 0.89369 0.27469 1.03259 0.0
H2380 H 0.90286 0.26652 0.11626 0.0
S2381 S 0.94841 0.21844 1.00202 0.0
N2382 N 0.93525 0.23287 0.96999 0.0
N2383 N 0.94388 0.22286 0.05986 0.0
C2384 C 0.93118 0.23681 0.05564 0.0
C2385 C 0.92646 0.24235 1.00604 0.0
C2386 C 0.77275 0.67003 1.01135 0.0
C2387 C 0.74668 0.65681 0.9927 0.0
C2388 C 0.77904 0.68153 0.05878 0.0
C2389 C 0.75958 0.67984 0.09163 0.0
H2390 H 0.78864 0.6716 0.98885 0.0
H2391 H 0.79948 0.69132 0.07026 0.0
S2392 S 0.68806 0.64633 0.06262 0.0
N2393 N 0.7012 0.64274 1.01207 0.0
N2394 N 0.71265 0.6629 0.10106 0.0
C2395 C 0.73338 0.66634 0.07366 0.0
C2396 C 0.72707 0.65531 1.02465 0.0
C2397 C 0.3159 0.24614 0.5084 0.0
C2398 C 0.34319 0.25708 0.49877 0.0
C2399 C 0.30533 0.2404 0.55673 0.0
C2400 C 0.32143 0.24608 0.59882 0.0
H2401 H 0.3023 0.24099 0.47813 0.0
H2402 H 0.28418 0.23126 0.56111 0.0
S2403 S 0.39423 0.27509 0.59533 0.0
N2404 N 0.38597 0.27318 0.53725 0.0
N2405 N 0.36652 0.26366 0.62643 0.0
C2406 C 0.34878 0.25769 0.58979 0.0
C2407 C 0.35946 0.26281 0.54062 0.0
C2408 C 0.73707 0.08539 0.58598 0.0
C2409 C 0.75519 0.07644 0.59518 0.0
C2410 C 0.7318 0.09137 0.53786 0.0
C2411 C 0.7436 0.08803 0.49529 0.0
H2412 H 0.72737 0.08866 0.61649 0.0
H2413 H 0.71825 0.09877 0.53407 0.0
S2414 S 0.79286 0.06561 0.49736 0.0
N2415 N 0.78534 0.06525 0.55543 0.0
N2416 N 0.77479 0.07527 0.467 0.0
C2417 C 0.76136 0.07868 0.50389 0.0
C2418 C 0.76726 0.07326 0.55281 0.0
C2419 C 0.93258 0.69191 0.55309 0.0
C2420 C 0.92169 0.6765 0.5957 0.0
C2421 C 0.92721 0.68067 0.50528 0.0
C2422 C 0.9098 0.65341 0.49679 0.0
H2423 H 0.94538 0.71303 0.55663 0.0
H2424 H 0.93612 0.69375 0.47449 0.0
S2425 S 0.87487 0.60417 0.59515 0.0
N2426 N 0.89236 0.63213 0.62511 0.0
N2427 N 0.88145 0.6115 0.53683 0.0
C2428 C 0.89869 0.63785 0.53917 0.0
C2429 C 0.90478 0.64917 0.58782 0.0
C2430 C 0.01797 0.50935 0.16098 0.0
C2431 C -0.00018 0.48212 0.16312 0.0
C2432 C 0.01609 0.52537 0.1251 0.0
C2433 C 0.99596 0.51477 0.08972 0.0
H2434 H 0.0344 0.51817 0.18628 0.0
H2435 H 0.02989 0.54638 0.12645 0.0
S2436 S 0.94395 0.44467 0.07772 0.0
N2437 N 0.96138 0.44517 0.1255 0.0
N2438 N 0.95783 0.47548 0.05849 0.0
C2439 C 0.97786 0.4876 0.0911 0.0
C2440 C 0.97962 0.47127 0.12783 0.0
C2441 C 0.52332 0.5003 0.17583 0.0
C2442 C 0.50958 0.51339 0.18847 0.0
C2443 C 0.51561 0.48348 0.13552 0.0
C2444 C 0.4928 0.47736 0.10873 0.0
H2445 H 0.54199 0.50555 0.193 0.0
H2446 H 0.52846 0.47624 0.12365 0.0
S2447 S 0.44866 0.50456 0.12959 0.0
N2448 N 0.47026 0.51661 0.17462 0.0
N2449 N 0.45716 0.48651 0.09642 0.0
C2450 C 0.47791 0.48889 0.12279 0.0
C2451 C 0.48549 0.50578 0.16438 0.0
C2452 C 0.50082 0.97714 0.0789 0.0
C2453 C 0.51404 0.00403 0.06663 0.0
C2454 C 0.4837 0.96798 0.1186 0.0
C2455 C 0.47709 0.98459 0.14414 0.0
H2456 H 0.50662 0.96391 0.06293 0.0
H2457 H 0.47685 0.94805 0.13129 0.0
S2458 S 0.50268 0.05549 0.12022 0.0
N2459 N 0.51621 0.04625 0.07755 0.0
N2460 N 0.48418 0.02886 0.1531 0.0
C2461 C 0.48776 0.01075 0.12865 0.0
C2462 C 0.50547 0.02023 0.08835 0.0
C2463 C 0.48918 0.98208 0.65888 0.0
C2464 C 0.51654 -0.00035 0.66005 0.0
C2465 C 0.47303 0.98464 0.62411 0.0
C2466 C 0.48363 0.00465 0.58846 0.0
H2467 H 0.48029 0.96569 0.68423 0.0
H2468 H 0.45195 0.97132 0.62635 0.0
S2469 S 0.55395 0.05566 0.5749 0.0
N2470 N 0.55354 0.03785 0.62196 0.0
N2471 N 0.52301 0.04241 0.5567 0.0
C2472 C 0.5109 0.02231 0.58916 0.0
C2473 C 0.52736 0.01997 0.62495 0.0
C2474 C 0.01515 0.491 0.62417 0.0
C2475 C 0.99413 0.48077 0.59061 0.0
C2476 C 0.01778 0.50941 0.65962 0.0
C2477 C -0.0006 0.51814 0.66331 0.0
H2478 H 0.02911 0.48399 0.62441 0.0
H2479 H 0.03483 0.51754 0.68347 0.0
S2480 S 0.9412 0.49775 0.58294 0.0
N2481 N 0.95508 0.48113 0.56247 0.0
N2482 N 0.95965 0.51537 0.62918 0.0
C2483 C 0.9783 0.50803 0.62986 0.0
C2484 C 0.97593 0.48967 0.59335 0.0
C2485 C 0.50028 0.519 0.62503 0.0
C2486 C 0.51299 0.50923 0.59522 0.0
C2487 C 0.48029 0.50247 0.65732 0.0
C2488 C 0.47195 0.47544 0.66109 0.0
H2489 H 0.50634 0.53976 0.62477 0.0
H2490 H 0.47064 0.5108 0.6785 0.0
S2491 S 0.49849 0.43998 0.58999 0.0
N2492 N 0.51562 0.47083 0.57104 0.0
N2493 N 0.47794 0.4396 0.63148 0.0
C2494 C 0.48454 0.4654 0.63159 0.0
C2495 C 0.50488 0.48228 0.59853 0.0
C2496 C 0.6833 0.85612 0.461 0.0
C2497 C 0.66251 0.84504 0.42693 0.0
C2498 C 0.68581 0.84056 0.49717 0.0
C2499 C 0.66752 0.81341 0.50113 0.0
H2500 H 0.69716 0.87713 0.46103 0.0
H2501 H 0.70271 0.84966 0.52135 0.0
S2502 S 0.61015 0.77488 0.41918 0.0
N2503 N 0.62393 0.80536 0.39831 0.0
N2504 N 0.62818 0.77609 0.46648 0.0
C2505 C 0.64666 0.80215 0.46712 0.0
C2506 C 0.64446 0.81791 0.42981 0.0
C2507 C 0.16031 0.84522 0.48971 0.0
C2508 C 0.1878 0.85606 0.48824 0.0
C2509 C 0.14373 0.82596 0.45624 0.0
C2510 C 0.15401 0.81683 0.41968 0.0
H2511 H 0.15157 0.85216 0.51637 0.0
H2512 H 0.12262 0.81739 0.46045 0.0
S2513 S 0.22458 0.83972 0.39777 0.0
N2514 N 0.22466 0.85703 0.44528 0.0
N2515 N 0.19327 0.8204 0.38313 0.0
C2516 C 0.18143 0.8277 0.41731 0.0
C2517 C 0.19837 0.8473 0.45144 0.0
C2518 C 0.1736 0.34999 0.42758 0.0
C2519 C 0.18469 0.33368 0.43262 0.0
C2520 C 0.15468 0.34853 0.46054 0.0
C2521 C 0.14637 0.33091 0.50024 0.0
H2522 H 0.18012 0.36448 0.39858 0.0
H2523 H 0.14573 0.36055 0.45366 0.0
S2524 S 0.17023 0.28493 0.53161 0.0
N2525 N 0.18656 0.29993 0.48167 0.0
N2526 N 0.15105 0.29739 0.5434 0.0
C2527 C 0.15755 0.31481 0.50607 0.0
C2528 C 0.17656 0.31601 0.47227 0.0
C2529 C 0.19487 0.35158 0.95737 0.0
C2530 C 0.18565 0.33377 0.99689 0.0
C2531 C 0.17734 0.35239 0.9233 0.0
C2532 C 0.15001 0.33506 0.92672 0.0
H2533 H 0.21583 0.36436 0.95161 0.0
H2534 H 0.18519 0.36707 0.89459 0.0
S2535 S 0.11587 0.28604 1.02534 0.0
N2536 N 0.1475 0.29953 1.03882 0.0
N2537 N 0.11453 0.30054 0.97469 0.0
C2538 C 0.14059 0.31736 0.96639 0.0
C2539 C 0.15839 0.31693 1.00147 0.0
C2540 C 0.68798 0.83851 0.99759 0.0
C2541 C 0.67038 0.84818 1.00105 0.0
C2542 C 0.68461 0.81974 0.96241 0.0
C2543 C 0.66357 0.81002 0.92885 0.0
H2544 H 0.70504 0.84619 1.02139 0.0
H2545 H 0.69809 0.81215 0.96277 0.0
S2546 S 0.6128 0.82991 0.92026 0.0
N2547 N 0.63157 0.84718 0.96649 0.0
N2548 N 0.62548 0.81208 0.90028 0.0
C2549 C 0.64612 0.81983 0.93139 0.0
C2550 C 0.64932 0.83869 0.9676 0.0
C2551 C 0.15513 0.84525 0.99008 0.0
C2552 C 0.14724 0.81846 0.99704 0.0
C2553 C 0.17439 0.86081 0.95562 0.0
C2554 C 0.18649 0.85016 0.92638 0.0
H2555 H 0.14576 0.85409 1.01062 0.0
H2556 H 0.18041 0.88153 0.95316 0.0
S2557 S 0.17208 0.78088 0.92786 0.0
N2558 N 0.15269 0.78184 0.97035 0.0
N2559 N 0.1885 0.81103 0.90536 0.0
C2560 C 0.17846 0.82334 0.93234 0.0
C2561 C 0.15914 0.80757 0.96787 0.0
C2562 C 0.30939 0.15342 0.76245 0.0
C2563 C 0.32698 0.18078 0.76312 0.0
C2564 C 0.31115 0.13671 0.7971 0.0
C2565 C 0.33029 0.14681 0.83441 0.0
H2566 H 0.29374 0.14495 0.73554 0.0
H2567 H 0.29807 0.11564 0.79338 0.0
S2568 S 0.37932 0.21711 0.85559 0.0
N2569 N 0.3633 0.21728 0.80618 0.0
N2570 N 0.36596 0.18585 0.87171 0.0
C2571 C 0.34735 0.17414 0.83643 0.0
C2572 C 0.34599 0.1911 0.80064 0.0
C2573 C 0.86002 0.17373 0.80187 0.0
C2574 C 0.84893 0.18432 0.83384 0.0
C2575 C 0.84476 0.15549 0.76583 0.0
C2576 C 0.81782 0.14707 0.76004 0.0
H2577 H 0.88089 0.18028 0.80336 0.0
H2578 H 0.85391 0.14711 0.74334 0.0
S2579 S 0.77929 0.16859 0.83505 0.0
N2580 N 0.8094 0.1848 0.85784 0.0
N2581 N 0.78065 0.15071 0.78993 0.0
C2582 C 0.80651 0.15761 0.79161 0.0
C2583 C 0.82202 0.17593 0.82872 0.0
C2584 C 0.8383 0.65205 0.78051 0.0
C2585 C 0.84923 0.67462 0.75065 0.0
C2586 C 0.82002 0.64823 0.81685 0.0
C2587 C 0.81156 0.66658 0.82451 0.0
H2588 H 0.84466 0.63766 0.77727 0.0
H2589 H 0.81162 0.63019 0.83804 0.0
S2590 S 0.83353 0.72849 0.7545 0.0
N2591 N 0.85023 0.71544 0.73062 0.0
N2592 N 0.81514 0.70799 0.79792 0.0
C2593 C 0.8222 0.68919 0.79463 0.0
C2594 C 0.84097 0.69311 0.75774 0.0
C2595 C 0.86232 0.68323 0.29141 0.0
C2596 C 0.8513 0.66463 0.32943 0.0
C2597 C 0.84633 0.68588 0.25637 0.0
C2598 C 0.81874 0.6698 0.25748 0.0
H2599 H 0.88352 0.69521 0.28755 0.0
H2600 H 0.85555 0.70116 0.22893 0.0
S2601 S 0.7802 0.61918 0.35138 0.0
N2602 N 0.81127 0.63061 0.36702 0.0
N2603 N 0.78107 0.63556 0.30173 0.0
C2604 C 0.80751 0.65131 0.29566 0.0
C2605 C 0.8238 0.64882 0.33148 0.0
C2606 C 0.34674 0.17563 0.33587 0.0
C2607 C 0.33043 0.18673 0.33069 0.0
C2608 C 0.34468 0.15597 0.30404 0.0
C2609 C 0.32644 0.14688 0.26523 0.0
H2610 H 0.36165 0.18266 0.36417 0.0
H2611 H 0.35686 0.14722 0.31099 0.0
S2612 S 0.28048 0.17069 0.23327 0.0
N2613 N 0.29621 0.18794 0.28203 0.0
N2614 N 0.29251 0.15103 0.2224 0.0
C2615 C 0.31035 0.15808 0.25915 0.0
C2616 C 0.31222 0.1779 0.29182 0.0
C2617 C 0.84133 0.15658 0.2614 0.0
C2618 C 0.8508 0.1839 0.2604 0.0
C2619 C 0.82259 0.14016 0.29585 0.0
C2620 C 0.81279 0.15047 0.33116 0.0
H2621 H 0.84907 0.14795 0.23614 0.0
H2622 H 0.81509 0.11912 0.29357 0.0
S2623 S 0.83239 0.22073 0.347 0.0
N2624 N 0.84958 0.2206 0.29952 0.0
N2625 N 0.81473 0.18966 0.36441 0.0
C2626 C 0.82251 0.17774 0.33127 0.0
C2627 C 0.84123 0.19444 0.29578 0.0
loop_
_geom_bond_atom_site_label_1
_geom_bond_atom_site_label_2
_geom_bond_distance
_geom_bond_site_symmetry_2
_ccdc_geom_bond_type
Ho0 C3 2.811 . S
Ho0 O20 2.322 . S
Ho0 O22 2.378 . S
Ho0 O23 2.524 . S
Ho0 O24 2.381 . S
Ho0 O25 2.669 . S
Ho0 O27 2.346 . S
Ho0 O31 2.305 . S
Ho1 C12 2.811 . S
Ho1 O21 2.346 . S
Ho1 O25 2.305 . S
Ho1 O26 2.322 . S
Ho1 O28 2.378 . S
Ho1 O29 2.524 . S
Ho1 O30 2.381 . S
Ho1 O31 2.669 . S
C2 O20 1.259 . S
C2 O21 1.268 . S
C3 Ho0 2.811 . S
C3 C4 1.488 . S
C3 O22 1.215 . S
C3 O23 1.289 . S
C4 C3 1.488 . S
C4 C5 1.348 . S
C4 C9 1.413 . S
C5 C4 1.348 . S
C5 C6 1.442 . S
C5 H32 0.930 . S
C6 C5 1.442 . S
C6 C7 1.381 . S
C6 H33 0.931 . S
C7 C6 1.381 . S
C7 C8 1.321 . S
C8 C7 1.321 . S
C8 C9 1.403 . S
C8 H34 0.934 . S
C9 C4 1.413 . S
C9 C8 1.403 . S
C9 H35 0.930 . S
C10 O24 1.275 . S
C10 O25 1.256 . S
C11 O26 1.259 . S
C11 O27 1.268 . S
C12 Ho1 2.811 . S
C12 C13 1.488 1_554 S
C12 O28 1.215 . S
C12 O29 1.289 . S
C13 C12 1.488 1_556 S
C13 C14 1.348 . S
C13 C18 1.413 . S
C14 C13 1.348 . S
C14 C15 1.442 . S
C14 H36 0.930 . S
C15 C14 1.442 . S
C15 C16 1.381 . S
C15 H37 0.931 . S
C16 C15 1.381 . S
C16 C17 1.321 1_455 S
C17 C16 1.321 1_655 S
C17 C18 1.403 1_655 S
C17 H38 0.934 . S
C18 C13 1.413 . S
C18 C17 1.403 1_455 S
C18 H39 0.930 1_455 S
C19 O30 1.275 . S
C19 O31 1.256 . S
O20 Ho0 2.322 . S
O20 C2 1.259 . S
O21 Ho1 2.346 . S
O21 C2 1.268 . S
O22 Ho0 2.378 . S
O22 C3 1.215 . S
O23 Ho0 2.524 . S
O23 C3 1.289 . S
O24 Ho0 2.381 . S
O24 C10 1.275 . S
O25 Ho0 2.669 . S
O25 Ho1 2.305 . S
O25 C10 1.256 . S
O26 Ho1 2.322 . S
O26 C11 1.259 . S
O27 Ho0 2.346 . S
O27 C11 1.268 . S
O28 Ho1 2.378 . S
O28 C12 1.215 . S
O29 Ho1 2.524 . S
O29 C12 1.289 . S
O30 Ho1 2.381 . S
O30 C19 1.275 . S
O31 Ho0 2.305 . S
O31 Ho1 2.669 . S
O31 C19 1.256 . S
H32 C5 0.930 . S
H33 C6 0.931 . S
H34 C8 0.934 . S
H35 C9 0.930 . S
H36 C14 0.930 . S
H37 C15 0.931 . S
H38 C17 0.934 . S
H39 C18 0.930 1_655 S
Ho40 C43 2.811 . S
Ho40 O60 2.322 . S
Ho40 O62 2.378 . S
Ho40 O63 2.524 . S
Ho40 O64 2.381 . S
Ho40 O65 2.669 . S
Ho40 O67 2.346 . S
Ho40 O71 2.305 . S
Ho41 C52 2.811 . S
Ho41 O61 2.346 . S
Ho41 O65 2.305 . S
Ho41 O66 2.322 . S
Ho41 O68 2.378 . S
Ho41 O69 2.524 . S
Ho41 O70 2.381 . S
Ho41 O71 2.669 . S
C42 O60 1.259 . S
C42 O61 1.268 . S
C43 Ho40 2.811 . S
C43 C44 1.488 . S
C43 O62 1.215 . S
C43 O63 1.289 . S
C44 C43 1.488 . S
C44 C45 1.348 . S
C44 C49 1.413 . S
C45 C44 1.348 . S
C45 C46 1.442 . S
C45 H72 0.930 . S
C46 C45 1.442 . S
C46 C47 1.381 . S
C46 H73 0.931 . S
C47 C46 1.381 . S
C47 C48 1.321 . S
C48 C47 1.321 . S
C48 C49 1.403 . S
C48 H74 0.934 . S
C49 C44 1.413 . S
C49 C48 1.403 . S
C49 H75 0.930 . S
C50 O64 1.275 . S
C50 O65 1.256 . S
C51 O66 1.259 . S
C51 O67 1.268 . S
C52 Ho41 2.811 . S
C52 C53 1.488 1_554 S
C52 O68 1.215 . S
C52 O69 1.289 . S
C53 C52 1.488 1_556 S
C53 C54 1.348 . S
C53 C58 1.413 . S
C54 C53 1.348 . S
C54 C55 1.442 . S
C54 H76 0.930 . S
C55 C54 1.442 . S
C55 C56 1.381 . S
C55 H77 0.931 . S
C56 C55 1.381 . S
C56 C57 1.321 . S
C57 C56 1.321 . S
C57 C58 1.403 . S
C57 H78 0.934 . S
C58 C53 1.413 . S
C58 C57 1.403 . S
C58 H79 0.930 . S
C59 O70 1.275 . S
C59 O71 1.256 . S
O60 Ho40 2.322 . S
O60 C42 1.259 . S
O61 Ho41 2.346 . S
O61 C42 1.268 . S
O62 Ho40 2.378 . S
O62 C43 1.215 . S
O63 Ho40 2.524 . S
O63 C43 1.289 . S
O64 Ho40 2.381 . S
O64 C50 1.275 . S
O65 Ho40 2.669 . S
O65 Ho41 2.305 . S
O65 C50 1.256 . S
O66 Ho41 2.322 . S
O66 C51 1.259 . S
O67 Ho40 2.346 . S
O67 C51 1.268 . S
O68 Ho41 2.378 . S
O68 C52 1.215 . S
O69 Ho41 2.524 . S
O69 C52 1.289 . S
O70 Ho41 2.381 . S
O70 C59 1.275 . S
O71 Ho40 2.305 . S
O71 Ho41 2.669 . S
O71 C59 1.256 . S
H72 C45 0.930 . S
H73 C46 0.931 . S
H74 C48 0.934 . S
H75 C49 0.930 . S
H76 C54 0.930 . S
H77 C55 0.931 . S
H78 C57 0.934 . S
H79 C58 0.930 . S
Ho80 C83 2.811 . S
Ho80 O100 2.322 . S
Ho80 O102 2.378 . S
Ho80 O103 2.524 . S
Ho80 O104 2.381 . S
Ho80 O105 2.669 . S
Ho80 O107 2.346 . S
Ho80 O111 2.305 . S
Ho81 C92 2.811 . S
Ho81 O101 2.346 . S
Ho81 O105 2.305 . S
Ho81 O106 2.322 . S
Ho81 O108 2.378 . S
Ho81 O109 2.524 . S
Ho81 O110 2.381 . S
Ho81 O111 2.669 . S
C82 O100 1.259 . S
C82 O101 1.268 . S
C83 Ho80 2.811 . S
C83 C84 1.488 . S
C83 O102 1.215 . S
C83 O103 1.289 . S
C84 C83 1.488 . S
C84 C85 1.348 . S
C84 C89 1.413 . S
C85 C84 1.348 . S
C85 C86 1.442 . S
C85 H112 0.930 . S
C86 C85 1.442 . S
C86 C87 1.381 . S
C86 H113 0.931 . S
C87 C86 1.381 . S
C87 C88 1.321 . S
C88 C87 1.321 . S
C88 C89 1.403 . S
C88 H114 0.934 . S
C89 C84 1.413 . S
C89 C88 1.403 . S
C89 H115 0.930 . S
C90 O104 1.275 . S
C90 O105 1.256 . S
C91 O106 1.259 . S
C91 O107 1.268 . S
C92 Ho81 2.811 . S
C92 C93 1.488 1_554 S
C92 O108 1.215 . S
C92 O109 1.289 . S
C93 C92 1.488 1_556 S
C93 C94 1.348 . S
C93 C98 1.413 . S
C94 C93 1.348 . S
C94 C95 1.442 . S
C94 H116 0.930 . S
C95 C94 1.442 . S
C95 C96 1.381 . S
C95 H117 0.931 . S
C96 C95 1.381 . S
C96 C97 1.321 1_565 S
C97 C96 1.321 1_545 S
C97 C98 1.403 1_545 S
C97 H118 0.934 . S
C98 C93 1.413 . S
C98 C97 1.403 1_565 S
C98 H119 0.930 1_565 S
C99 O110 1.275 . S
C99 O111 1.256 . S
O100 Ho80 2.322 . S
O100 C82 1.259 . S
O101 Ho81 2.346 . S
O101 C82 1.268 . S
O102 Ho80 2.378 . S
O102 C83 1.215 . S
O103 Ho80 2.524 . S
O103 C83 1.289 . S
O104 Ho80 2.381 . S
O104 C90 1.275 . S
O105 Ho80 2.669 . S
O105 Ho81 2.305 . S
O105 C90 1.256 . S
O106 Ho81 2.322 . S
O106 C91 1.259 . S
O107 Ho80 2.346 . S
O107 C91 1.268 . S
O108 Ho81 2.378 . S
O108 C92 1.215 . S
O109 Ho81 2.524 . S
O109 C92 1.289 . S
O110 Ho81 2.381 . S
O110 C99 1.275 . S
O111 Ho80 2.305 . S
O111 Ho81 2.669 . S
O111 C99 1.256 . S
H112 C85 0.930 . S
H113 C86 0.931 . S
H114 C88 0.934 . S
H115 C89 0.930 . S
H116 C94 0.930 . S
H117 C95 0.931 . S
H118 C97 0.934 . S
H119 C98 0.930 1_545 S
Ho120 C123 2.811 . S
Ho120 O140 2.322 . S
Ho120 O142 2.378 . S
Ho120 O143 2.524 . S
Ho120 O144 2.381 . S
Ho120 O145 2.669 . S
Ho120 O147 2.346 . S
Ho120 O151 2.305 . S
Ho121 C132 2.811 . S
Ho121 O141 2.346 . S
Ho121 O145 2.305 . S
Ho121 O146 2.322 . S
Ho121 O148 2.378 . S
Ho121 O149 2.524 . S
Ho121 O150 2.381 . S
Ho121 O151 2.669 . S
C122 O140 1.259 . S
C122 O141 1.268 . S
C123 Ho120 2.811 . S
C123 C124 1.488 . S
C123 O142 1.215 . S
C123 O143 1.289 . S
C124 C123 1.488 . S
C124 C125 1.348 . S
C124 C129 1.413 . S
C125 C124 1.348 . S
C125 C126 1.442 . S
C125 H152 0.930 . S
C126 C125 1.442 . S
C126 C127 1.381 . S
C126 H153 0.931 . S
C127 C126 1.381 . S
C127 C128 1.321 . S
C128 C127 1.321 . S
C128 C129 1.403 . S
C128 H154 0.934 . S
C129 C124 1.413 . S
C129 C128 1.403 . S
C129 H155 0.930 . S
C130 O144 1.275 . S
C130 O145 1.256 . S
C131 O146 1.259 . S
C131 O147 1.268 . S
C132 Ho121 2.811 . S
C132 C133 1.488 . S
C132 O148 1.215 . S
C132 O149 1.289 . S
C133 C132 1.488 . S
C133 C134 1.348 . S
C133 C138 1.413 . S
C134 C133 1.348 . S
C134 C135 1.442 . S
C134 H156 0.930 . S
C135 C134 1.442 . S
C135 C136 1.381 . S
C135 H157 0.931 . S
C136 C135 1.381 . S
C136 C137 1.321 1_545 S
C137 C136 1.321 1_565 S
C137 C138 1.403 1_565 S
C137 H158 0.934 . S
C138 C133 1.413 . S
C138 C137 1.403 1_545 S
C138 H159 0.930 1_545 S
C139 O150 1.275 . S
C139 O151 1.256 . S
O140 Ho120 2.322 . S
O140 C122 1.259 . S
O141 Ho121 2.346 . S
O141 C122 1.268 . S
O142 Ho120 2.378 . S
O142 C123 1.215 . S
O143 Ho120 2.524 . S
O143 C123 1.289 . S
O144 Ho120 2.381 . S
O144 C130 1.275 . S
O145 Ho120 2.669 . S
O145 Ho121 2.305 . S
O145 C130 1.256 . S
O146 Ho121 2.322 . S
O146 C131 1.259 . S
O147 Ho120 2.346 . S
O147 C131 1.268 . S
O148 Ho121 2.378 . S
O148 C132 1.215 . S
O149 Ho121 2.524 . S
O149 C132 1.289 . S
O150 Ho121 2.381 . S
O150 C139 1.275 . S
O151 Ho120 2.305 . S
O151 Ho121 2.669 . S
O151 C139 1.256 . S
H152 C125 0.930 . S
H153 C126 0.931 . S
H154 C128 0.934 . S
H155 C129 0.930 . S
H156 C134 0.930 . S
H157 C135 0.931 . S
H158 C137 0.934 . S
H159 C138 0.930 1_565 S
Ho160 C163 2.811 . S
Ho160 O180 2.322 . S
Ho160 O182 2.378 . S
Ho160 O183 2.524 . S
Ho160 O184 2.381 . S
Ho160 O185 2.669 . S
Ho160 O187 2.346 . S
Ho160 O191 2.305 . S
Ho161 C172 2.811 . S
Ho161 O181 2.346 . S
Ho161 O185 2.305 . S
Ho161 O186 2.322 . S
Ho161 O188 2.378 . S
Ho161 O189 2.524 . S
Ho161 O190 2.381 . S
Ho161 O191 2.669 . S
C162 O180 1.259 . S
C162 O181 1.268 . S
C163 Ho160 2.811 . S
C163 C164 1.488 . S
C163 O182 1.215 . S
C163 O183 1.289 . S
C164 C163 1.488 . S
C164 C165 1.348 . S
C164 C169 1.413 . S
C165 C164 1.348 . S
C165 C166 1.442 . S
C165 H192 0.930 . S
C166 C165 1.442 . S
C166 C167 1.381 . S
C166 H193 0.931 . S
C167 C166 1.381 . S
C167 C168 1.321 . S
C168 C167 1.321 . S
C168 C169 1.403 . S
C168 H194 0.934 . S
C169 C164 1.413 . S
C169 C168 1.403 . S
C169 H195 0.930 . S
C170 O184 1.275 . S
C170 O185 1.256 . S
C171 O186 1.259 . S
C171 O187 1.268 . S
C172 Ho161 2.811 . S
C172 C173 1.488 . S
C172 O188 1.215 . S
C172 O189 1.289 . S
C173 C172 1.488 . S
C173 C174 1.348 . S
C173 C178 1.413 . S
C174 C173 1.348 . S
C174 C175 1.442 . S
C174 H196 0.930 . S
C175 C174 1.442 . S
C175 C176 1.381 . S
C175 H197 0.931 . S
C176 C175 1.381 . S
C176 C177 1.321 1_655 S
C177 C176 1.321 1_455 S
C177 C178 1.403 1_455 S
C177 H198 0.934 . S
C178 C173 1.413 . S
C178 C177 1.403 1_655 S
C178 H199 0.930 1_655 S
C179 O190 1.275 . S
C179 O191 1.256 . S
O180 Ho160 2.322 . S
O180 C162 1.259 . S
O181 Ho161 2.346 . S
O181 C162 1.268 . S
O182 Ho160 2.378 . S
O182 C163 1.215 . S
O183 Ho160 2.524 . S
O183 C163 1.289 . S
O184 Ho160 2.381 . S
O184 C170 1.275 . S
O185 Ho160 2.669 . S
O185 Ho161 2.305 . S
O185 C170 1.256 . S
O186 Ho161 2.322 . S
O186 C171 1.259 . S
O187 Ho160 2.346 . S
O187 C171 1.268 . S
O188 Ho161 2.378 . S
O188 C172 1.215 . S
O189 Ho161 2.524 . S
O189 C172 1.289 . S
O190 Ho161 2.381 . S
O190 C179 1.275 . S
O191 Ho160 2.305 . S
O191 Ho161 2.669 . S
O191 C179 1.256 . S
H192 C165 0.930 . S
H193 C166 0.931 . S
H194 C168 0.934 . S
H195 C169 0.930 . S
H196 C174 0.930 . S
H197 C175 0.931 . S
H198 C177 0.934 . S
H199 C178 0.930 1_455 S
Ho200 C203 2.811 . S
Ho200 O220 2.322 . S
Ho200 O222 2.378 . S
Ho200 O223 2.524 . S
Ho200 O224 2.381 . S
Ho200 O225 2.669 . S
Ho200 O227 2.346 . S
Ho200 O231 2.305 . S
Ho201 C212 2.811 . S
Ho201 O221 2.346 . S
Ho201 O225 2.305 . S
Ho201 O226 2.322 . S
Ho201 O228 2.378 . S
Ho201 O229 2.524 . S
Ho201 O230 2.381 . S
Ho201 O231 2.669 . S
C202 O220 1.259 . S
C202 O221 1.268 . S
C203 Ho200 2.811 . S
C203 C204 1.488 . S
C203 O222 1.215 . S
C203 O223 1.289 . S
C204 C203 1.488 . S
C204 C205 1.348 . S
C204 C209 1.413 . S
C205 C204 1.348 . S
C205 C206 1.442 . S
C205 H232 0.930 . S
C206 C205 1.442 . S
C206 C207 1.381 . S
C206 H233 0.931 . S
C207 C206 1.381 . S
C207 C208 1.321 . S
C208 C207 1.321 . S
C208 C209 1.403 . S
C208 H234 0.934 . S
C209 C204 1.413 . S
C209 C208 1.403 . S
C209 H235 0.930 . S
C210 O224 1.275 . S
C210 O225 1.256 . S
C211 O226 1.259 . S
C211 O227 1.268 . S
C212 Ho201 2.811 . S
C212 C213 1.488 . S
C212 O228 1.215 . S
C212 O229 1.289 . S
C213 C212 1.488 . S
C213 C214 1.348 . S
C213 C218 1.413 . S
C214 C213 1.348 . S
C214 C215 1.442 . S
C214 H236 0.930 . S
C215 C214 1.442 . S
C215 C216 1.381 . S
C215 H237 0.931 . S
C216 C215 1.381 . S
C216 C217 1.321 . S
C217 C216 1.321 . S
C217 C218 1.403 . S
C217 H238 0.934 . S
C218 C213 1.413 . S
C218 C217 1.403 . S
C218 H239 0.930 . S
C219 O230 1.275 . S
C219 O231 1.256 . S
O220 Ho200 2.322 . S
O220 C202 1.259 . S
O221 Ho201 2.346 . S
O221 C202 1.268 . S
O222 Ho200 2.378 . S
O222 C203 1.215 . S
O223 Ho200 2.524 . S
O223 C203 1.289 . S
O224 Ho200 2.381 . S
O224 C210 1.275 . S
O225 Ho200 2.669 . S
O225 Ho201 2.305 . S
O225 C210 1.256 . S
O226 Ho201 2.322 . S
O226 C211 1.259 . S
O227 Ho200 2.346 . S
O227 C211 1.268 . S
O228 Ho201 2.378 . S
O228 C212 1.215 . S
O229 Ho201 2.524 . S
O229 C212 1.289 . S
O230 Ho201 2.381 . S
O230 C219 1.275 . S
O231 Ho200 2.305 . S
O231 Ho201 2.669 . S
O231 C219 1.256 . S
H232 C205 0.930 . S
H233 C206 0.931 . S
H234 C208 0.934 . S
H235 C209 0.930 . S
H236 C214 0.930 . S
H237 C215 0.931 . S
H238 C217 0.934 . S
H239 C218 0.930 . S
Ho240 C243 2.811 . S
Ho240 O260 2.322 . S
Ho240 O262 2.378 . S
Ho240 O263 2.524 . S
Ho240 O264 2.381 . S
Ho240 O265 2.669 . S
Ho240 O267 2.346 1_554 S
Ho240 O271 2.305 . S
Ho241 C252 2.811 1_554 S
Ho241 O261 2.346 . S
Ho241 O265 2.305 . S
Ho241 O266 2.322 1_554 S
Ho241 O268 2.378 1_554 S
Ho241 O269 2.524 1_554 S
Ho241 O270 2.381 . S
Ho241 O271 2.669 . S
C242 O260 1.259 . S
C242 O261 1.268 . S
C243 Ho240 2.811 . S
C243 C244 1.488 . S
C243 O262 1.215 . S
C243 O263 1.289 . S
C244 C243 1.488 . S
C244 C245 1.348 . S
C244 C249 1.413 . S
C245 C244 1.348 . S
C245 C246 1.442 . S
C245 H272 0.930 . S
C246 C245 1.442 . S
C246 C247 1.381 . S
C246 H273 0.931 . S
C247 C246 1.381 . S
C247 C248 1.321 1_655 S
C248 C247 1.321 1_455 S
C248 C249 1.403 1_455 S
C248 H274 0.934 . S
C249 C244 1.413 . S
C249 C248 1.403 1_655 S
C249 H275 0.930 1_655 S
C250 O264 1.275 . S
C250 O265 1.256 . S
C251 O266 1.259 . S
C251 O267 1.268 . S
C252 Ho241 2.811 1_556 S
C252 C253 1.488 . S
C252 O268 1.215 . S
C252 O269 1.289 . S
C253 C252 1.488 . S
C253 C254 1.348 . S
C253 C258 1.413 . S
C254 C253 1.348 . S
C254 C255 1.442 . S
C254 H276 0.930 . S
C255 C254 1.442 . S
C255 C256 1.381 . S
C255 H277 0.931 . S
C256 C255 1.381 . S
C256 C257 1.321 . S
C257 C256 1.321 . S
C257 C258 1.403 . S
C257 H278 0.934 . S
C258 C253 1.413 . S
C258 C257 1.403 . S
C258 H279 0.930 . S
C259 O270 1.275 . S
C259 O271 1.256 . S
O260 Ho240 2.322 . S
O260 C242 1.259 . S
O261 Ho241 2.346 . S
O261 C242 1.268 . S
O262 Ho240 2.378 . S
O262 C243 1.215 . S
O263 Ho240 2.524 . S
O263 C243 1.289 . S
O264 Ho240 2.381 . S
O264 C250 1.275 . S
O265 Ho240 2.669 . S
O265 Ho241 2.305 . S
O265 C250 1.256 . S
O266 Ho241 2.322 1_556 S
O266 C251 1.259 . S
O267 Ho240 2.346 1_556 S
O267 C251 1.268 . S
O268 Ho241 2.378 1_556 S
O268 C252 1.215 . S
O269 Ho241 2.524 1_556 S
O269 C252 1.289 . S
O270 Ho241 2.381 . S
O270 C259 1.275 . S
O271 Ho240 2.305 . S
O271 Ho241 2.669 . S
O271 C259 1.256 . S
H272 C245 0.930 . S
H273 C246 0.931 . S
H274 C248 0.934 . S
H275 C249 0.930 1_455 S
H276 C254 0.930 . S
H277 C255 0.931 . S
H278 C257 0.934 . S
H279 C258 0.930 . S
Ho280 C283 2.811 . S
Ho280 O300 2.322 . S
Ho280 O302 2.378 . S
Ho280 O303 2.524 . S
Ho280 O304 2.381 . S
Ho280 O305 2.669 . S
Ho280 O307 2.346 1_554 S
Ho280 O311 2.305 . S
Ho281 C292 2.811 1_554 S
Ho281 O301 2.346 . S
Ho281 O305 2.305 . S
Ho281 O306 2.322 1_554 S
Ho281 O308 2.378 1_554 S
Ho281 O309 2.524 1_554 S
Ho281 O310 2.381 . S
Ho281 O311 2.669 . S
C282 O300 1.259 . S
C282 O301 1.268 . S
C283 Ho280 2.811 . S
C283 C284 1.488 . S
C283 O302 1.215 . S
C283 O303 1.289 . S
C284 C283 1.488 . S
C284 C285 1.348 . S
C284 C289 1.413 . S
C285 C284 1.348 . S
C285 C286 1.442 . S
C285 H312 0.930 . S
C286 C285 1.442 . S
C286 C287 1.381 . S
C286 H313 0.931 . S
C287 C286 1.381 . S
C287 C288 1.321 . S
C288 C287 1.321 . S
C288 C289 1.403 . S
C288 H314 0.934 . S
C289 C284 1.413 . S
C289 C288 1.403 . S
C289 H315 0.930 . S
C290 O304 1.275 . S
C290 O305 1.256 . S
C291 O306 1.259 . S
C291 O307 1.268 . S
C292 Ho281 2.811 1_556 S
C292 C293 1.488 . S
C292 O308 1.215 . S
C292 O309 1.289 . S
C293 C292 1.488 . S
C293 C294 1.348 . S
C293 C298 1.413 . S
C294 C293 1.348 . S
C294 C295 1.442 . S
C294 H316 0.930 . S
C295 C294 1.442 . S
C295 C296 1.381 . S
C295 H317 0.931 . S
C296 C295 1.381 . S
C296 C297 1.321 . S
C297 C296 1.321 . S
C297 C298 1.403 . S
C297 H318 0.934 . S
C298 C293 1.413 . S
C298 C297 1.403 . S
C298 H319 0.930 . S
C299 O310 1.275 . S
C299 O311 1.256 . S
O300 Ho280 2.322 . S
O300 C282 1.259 . S
O301 Ho281 2.346 . S
O301 C282 1.268 . S
O302 Ho280 2.378 . S
O302 C283 1.215 . S
O303 Ho280 2.524 . S
O303 C283 1.289 . S
O304 Ho280 2.381 . S
O304 C290 1.275 . S
O305 Ho280 2.669 . S
O305 Ho281 2.305 . S
O305 C290 1.256 . S
O306 Ho281 2.322 1_556 S
O306 C291 1.259 . S
O307 Ho280 2.346 1_556 S
O307 C291 1.268 . S
O308 Ho281 2.378 1_556 S
O308 C292 1.215 . S
O309 Ho281 2.524 1_556 S
O309 C292 1.289 . S
O310 Ho281 2.381 . S
O310 C299 1.275 . S
O311 Ho280 2.305 . S
O311 Ho281 2.669 . S
O311 C299 1.256 . S
H312 C285 0.930 . S
H313 C286 0.931 . S
H314 C288 0.934 . S
H315 C289 0.930 . S
H316 C294 0.930 . S
H317 C295 0.931 . S
H318 C297 0.934 . S
H319 C298 0.930 . S
Ho320 C323 2.811 . S
Ho320 O340 2.322 . S
Ho320 O342 2.378 . S
Ho320 O343 2.524 . S
Ho320 O344 2.381 . S
Ho320 O345 2.669 . S
Ho320 O347 2.346 1_554 S
Ho320 O351 2.305 . S
Ho321 C332 2.811 1_554 S
Ho321 O341 2.346 . S
Ho321 O345 2.305 . S
Ho321 O346 2.322 1_554 S
Ho321 O348 2.378 1_554 S
Ho321 O349 2.524 1_554 S
Ho321 O350 2.381 . S
Ho321 O351 2.669 . S
C322 O340 1.259 . S
C322 O341 1.268 . S
C323 Ho320 2.811 . S
C323 C324 1.488 . S
C323 O342 1.215 . S
C323 O343 1.289 . S
C324 C323 1.488 . S
C324 C325 1.348 . S
C324 C329 1.413 . S
C325 C324 1.348 . S
C325 C326 1.442 . S
C325 H352 0.930 . S
C326 C325 1.442 . S
C326 C327 1.381 . S
C326 H353 0.931 . S
C327 C326 1.381 . S
C327 C328 1.321 1_545 S
C328 C327 1.321 1_565 S
C328 C329 1.403 1_565 S
C328 H354 0.934 . S
C329 C324 1.413 . S
C329 C328 1.403 1_545 S
C329 H355 0.930 1_545 S
C330 O344 1.275 . S
C330 O345 1.256 . S
C331 O346 1.259 . S
C331 O347 1.268 . S
C332 Ho321 2.811 1_556 S
C332 C333 1.488 . S
C332 O348 1.215 . S
C332 O349 1.289 . S
C333 C332 1.488 . S
C333 C334 1.348 . S
C333 C338 1.413 . S
C334 C333 1.348 . S
C334 C335 1.442 . S
C334 H356 0.930 . S
C335 C334 1.442 . S
C335 C336 1.381 . S
C335 H357 0.931 . S
C336 C335 1.381 . S
C336 C337 1.321 . S
C337 C336 1.321 . S
C337 C338 1.403 . S
C337 H358 0.934 . S
C338 C333 1.413 . S
C338 C337 1.403 . S
C338 H359 0.930 . S
C339 O350 1.275 . S
C339 O351 1.256 . S
O340 Ho320 2.322 . S
O340 C322 1.259 . S
O341 Ho321 2.346 . S
O341 C322 1.268 . S
O342 Ho320 2.378 . S
O342 C323 1.215 . S
O343 Ho320 2.524 . S
O343 C323 1.289 . S
O344 Ho320 2.381 . S
O344 C330 1.275 . S
O345 Ho320 2.669 . S
O345 Ho321 2.305 . S
O345 C330 1.256 . S
O346 Ho321 2.322 1_556 S
O346 C331 1.259 . S
O347 Ho320 2.346 1_556 S
O347 C331 1.268 . S
O348 Ho321 2.378 1_556 S
O348 C332 1.215 . S
O349 Ho321 2.524 1_556 S
O349 C332 1.289 . S
O350 Ho321 2.381 . S
O350 C339 1.275 . S
O351 Ho320 2.305 . S
O351 Ho321 2.669 . S
O351 C339 1.256 . S
H352 C325 0.930 . S
H353 C326 0.931 . S
H354 C328 0.934 . S
H355 C329 0.930 1_565 S
H356 C334 0.930 . S
H357 C335 0.931 . S
H358 C337 0.934 . S
H359 C338 0.930 . S
Ho360 C363 2.811 . S
Ho360 O380 2.322 . S
Ho360 O382 2.378 . S
Ho360 O383 2.524 . S
Ho360 O384 2.381 . S
Ho360 O385 2.669 . S
Ho360 O387 2.346 . S
Ho360 O391 2.305 . S
Ho361 C372 2.811 . S
Ho361 O381 2.346 . S
Ho361 O385 2.305 . S
Ho361 O386 2.322 . S
Ho361 O388 2.378 . S
Ho361 O389 2.524 . S
Ho361 O390 2.381 . S
Ho361 O391 2.669 . S
C362 O380 1.259 . S
C362 O381 1.268 . S
C363 Ho360 2.811 . S
C363 C364 1.488 . S
C363 O382 1.215 . S
C363 O383 1.289 . S
C364 C363 1.488 . S
C364 C365 1.348 . S
C364 C369 1.413 . S
C365 C364 1.348 . S
C365 C366 1.442 . S
C365 H392 0.930 . S
C366 C365 1.442 . S
C366 C367 1.381 . S
C366 H393 0.931 . S
C367 C366 1.381 . S
C367 C368 1.321 1_565 S
C368 C367 1.321 1_545 S
C368 C369 1.403 1_545 S
C368 H394 0.934 . S
C369 C364 1.413 . S
C369 C368 1.403 1_565 S
C369 H395 0.930 1_565 S
C370 O384 1.275 . S
C370 O385 1.256 . S
C371 O386 1.259 . S
C371 O387 1.268 . S
C372 Ho361 2.811 . S
C372 C373 1.488 . S
C372 O388 1.215 . S
C372 O389 1.289 . S
C373 C372 1.488 . S
C373 C374 1.348 . S
C373 C378 1.413 . S
C374 C373 1.348 . S
C374 C375 1.442 . S
C374 H396 0.930 . S
C375 C374 1.442 . S
C375 C376 1.381 . S
C375 H397 0.931 . S
C376 C375 1.381 . S
C376 C377 1.321 . S
C377 C376 1.321 . S
C377 C378 1.403 . S
C377 H398 0.934 . S
C378 C373 1.413 . S
C378 C377 1.403 . S
C378 H399 0.930 . S
C379 O390 1.275 . S
C379 O391 1.256 . S
O380 Ho360 2.322 . S
O380 C362 1.259 . S
O381 Ho361 2.346 . S
O381 C362 1.268 . S
O382 Ho360 2.378 . S
O382 C363 1.215 . S
O383 Ho360 2.524 . S
O383 C363 1.289 . S
O384 Ho360 2.381 . S
O384 C370 1.275 . S
O385 Ho360 2.669 . S
O385 Ho361 2.305 . S
O385 C370 1.256 . S
O386 Ho361 2.322 . S
O386 C371 1.259 . S
O387 Ho360 2.346 . S
O387 C371 1.268 . S
O388 Ho361 2.378 . S
O388 C372 1.215 . S
O389 Ho361 2.524 . S
O389 C372 1.289 . S
O390 Ho361 2.381 . S
O390 C379 1.275 . S
O391 Ho360 2.305 . S
O391 Ho361 2.669 . S
O391 C379 1.256 . S
H392 C365 0.930 . S
H393 C366 0.931 . S
H394 C368 0.934 . S
H395 C369 0.930 1_545 S
H396 C374 0.930 . S
H397 C375 0.931 . S
H398 C377 0.934 . S
H399 C378 0.930 . S
Ho400 C403 2.811 . S
Ho400 O420 2.322 . S
Ho400 O422 2.378 . S
Ho400 O423 2.524 . S
Ho400 O424 2.381 . S
Ho400 O425 2.669 . S
Ho400 O427 2.346 . S
Ho400 O431 2.305 . S
Ho401 C412 2.811 . S
Ho401 O421 2.346 . S
Ho401 O425 2.305 . S
Ho401 O426 2.322 . S
Ho401 O428 2.378 . S
Ho401 O429 2.524 . S
Ho401 O430 2.381 . S
Ho401 O431 2.669 . S
C402 O420 1.259 . S
C402 O421 1.268 . S
C403 Ho400 2.811 . S
C403 C404 1.488 . S
C403 O422 1.215 . S
C403 O423 1.289 . S
C404 C403 1.488 . S
C404 C405 1.348 . S
C404 C409 1.413 . S
C405 C404 1.348 . S
C405 C406 1.442 . S
C405 H432 0.930 . S
C406 C405 1.442 . S
C406 C407 1.381 . S
C406 H433 0.931 . S
C407 C406 1.381 . S
C407 C408 1.321 1_455 S
C408 C407 1.321 1_655 S
C408 C409 1.403 1_655 S
C408 H434 0.934 . S
C409 C404 1.413 . S
C409 C408 1.403 1_455 S
C409 H435 0.930 1_455 S
C410 O424 1.275 . S
C410 O425 1.256 . S
C411 O426 1.259 . S
C411 O427 1.268 . S
C412 Ho401 2.811 . S
C412 C413 1.488 . S
C412 O428 1.215 . S
C412 O429 1.289 . S
C413 C412 1.488 . S
C413 C414 1.348 . S
C413 C418 1.413 . S
C414 C413 1.348 . S
C414 C415 1.442 . S
C414 H436 0.930 . S
C415 C414 1.442 . S
C415 C416 1.381 . S
C415 H437 0.931 . S
C416 C415 1.381 . S
C416 C417 1.321 . S
C417 C416 1.321 . S
C417 C418 1.403 . S
C417 H438 0.934 . S
C418 C413 1.413 . S
C418 C417 1.403 . S
C418 H439 0.930 . S
C419 O430 1.275 . S
C419 O431 1.256 . S
O420 Ho400 2.322 . S
O420 C402 1.259 . S
O421 Ho401 2.346 . S
O421 C402 1.268 . S
O422 Ho400 2.378 . S
O422 C403 1.215 . S
O423 Ho400 2.524 . S
O423 C403 1.289 . S
O424 Ho400 2.381 . S
O424 C410 1.275 . S
O425 Ho400 2.669 . S
O425 Ho401 2.305 . S
O425 C410 1.256 . S
O426 Ho401 2.322 . S
O426 C411 1.259 . S
O427 Ho400 2.346 . S
O427 C411 1.268 . S
O428 Ho401 2.378 . S
O428 C412 1.215 . S
O429 Ho401 2.524 . S
O429 C412 1.289 . S
O430 Ho401 2.381 . S
O430 C419 1.275 . S
O431 Ho400 2.305 . S
O431 Ho401 2.669 . S
O431 C419 1.256 . S
H432 C405 0.930 . S
H433 C406 0.931 . S
H434 C408 0.934 . S
H435 C409 0.930 1_655 S
H436 C414 0.930 . S
H437 C415 0.931 . S
H438 C417 0.934 . S
H439 C418 0.930 . S
Ho440 C443 2.811 . S
Ho440 O460 2.322 . S
Ho440 O462 2.378 . S
Ho440 O463 2.524 . S
Ho440 O464 2.381 . S
Ho440 O465 2.669 . S
Ho440 O467 2.346 . S
Ho440 O471 2.305 . S
Ho441 C452 2.811 . S
Ho441 O461 2.346 . S
Ho441 O465 2.305 . S
Ho441 O466 2.322 . S
Ho441 O468 2.378 . S
Ho441 O469 2.524 . S
Ho441 O470 2.381 . S
Ho441 O471 2.669 . S
C442 O460 1.259 . S
C442 O461 1.268 . S
C443 Ho440 2.811 . S
C443 C444 1.488 . S
C443 O462 1.215 . S
C443 O463 1.289 . S
C444 C443 1.488 . S
C444 C445 1.348 . S
C444 C449 1.413 . S
C445 C444 1.348 . S
C445 C446 1.442 . S
C445 H472 0.930 . S
C446 C445 1.442 . S
C446 C447 1.381 . S
C446 H473 0.931 . S
C447 C446 1.381 . S
C447 C448 1.321 . S
C448 C447 1.321 . S
C448 C449 1.403 . S
C448 H474 0.934 . S
C449 C444 1.413 . S
C449 C448 1.403 . S
C449 H475 0.930 . S
C450 O464 1.275 . S
C450 O465 1.256 . S
C451 O466 1.259 . S
C451 O467 1.268 . S
C452 Ho441 2.811 . S
C452 C453 1.488 . S
C452 O468 1.215 . S
C452 O469 1.289 . S
C453 C452 1.488 . S
C453 C454 1.348 . S
C453 C458 1.413 . S
C454 C453 1.348 . S
C454 C455 1.442 . S
C454 H476 0.930 . S
C455 C454 1.442 . S
C455 C456 1.381 . S
C455 H477 0.931 . S
C456 C455 1.381 . S
C456 C457 1.321 . S
C457 C456 1.321 . S
C457 C458 1.403 . S
C457 H478 0.934 . S
C458 C453 1.413 . S
C458 C457 1.403 . S
C458 H479 0.930 . S
C459 O470 1.275 . S
C459 O471 1.256 . S
O460 Ho440 2.322 . S
O460 C442 1.259 . S
O461 Ho441 2.346 . S
O461 C442 1.268 . S
O462 Ho440 2.378 . S
O462 C443 1.215 . S
O463 Ho440 2.524 . S
O463 C443 1.289 . S
O464 Ho440 2.381 . S
O464 C450 1.275 . S
O465 Ho440 2.669 . S
O465 Ho441 2.305 . S
O465 C450 1.256 . S
O466 Ho441 2.322 . S
O466 C451 1.259 . S
O467 Ho440 2.346 . S
O467 C451 1.268 . S
O468 Ho441 2.378 . S
O468 C452 1.215 . S
O469 Ho441 2.524 . S
O469 C452 1.289 . S
O470 Ho441 2.381 . S
O470 C459 1.275 . S
O471 Ho440 2.305 . S
O471 Ho441 2.669 . S
O471 C459 1.256 . S
H472 C445 0.930 . S
H473 C446 0.931 . S
H474 C448 0.934 . S
H475 C449 0.930 . S
H476 C454 0.930 . S
H477 C455 0.931 . S
H478 C457 0.934 . S
H479 C458 0.930 . S
Ho480 C483 2.811 . S
Ho480 O500 2.322 . S
Ho480 O502 2.378 . S
Ho480 O503 2.524 . S
Ho480 O504 2.381 . S
Ho480 O505 2.669 . S
Ho480 O507 2.346 . S
Ho480 O511 2.305 . S
Ho481 C492 2.811 . S
Ho481 O501 2.346 . S
Ho481 O505 2.305 . S
Ho481 O506 2.322 . S
Ho481 O508 2.378 . S
Ho481 O509 2.524 . S
Ho481 O510 2.381 . S
Ho481 O511 2.669 . S
C482 O500 1.259 . S
C482 O501 1.268 . S
C483 Ho480 2.811 . S
C483 C484 1.488 . S
C483 O502 1.215 . S
C483 O503 1.289 . S
C484 C483 1.488 . S
C484 C485 1.348 . S
C484 C489 1.413 . S
C485 C484 1.348 . S
C485 C486 1.442 . S
C485 H512 0.930 . S
C486 C485 1.442 . S
C486 C487 1.381 . S
C486 H513 0.931 . S
C487 C486 1.381 . S
C487 C488 1.321 . S
C488 C487 1.321 . S
C488 C489 1.403 . S
C488 H514 0.934 . S
C489 C484 1.413 . S
C489 C488 1.403 . S
C489 H515 0.930 . S
C490 O504 1.275 . S
C490 O505 1.256 . S
C491 O506 1.259 . S
C491 O507 1.268 . S
C492 Ho481 2.811 . S
C492 C493 1.488 . S
C492 O508 1.215 . S
C492 O509 1.289 . S
C493 C492 1.488 . S
C493 C494 1.348 . S
C493 C498 1.413 . S
C494 C493 1.348 . S
C494 C495 1.442 . S
C494 H516 0.930 . S
C495 C494 1.442 . S
C495 C496 1.381 . S
C495 H517 0.931 . S
C496 C495 1.381 . S
C496 C497 1.321 . S
C497 C496 1.321 . S
C497 C498 1.403 . S
C497 H518 0.934 . S
C498 C493 1.413 . S
C498 C497 1.403 . S
C498 H519 0.930 . S
C499 O510 1.275 . S
C499 O511 1.256 . S
O500 Ho480 2.322 . S
O500 C482 1.259 . S
O501 Ho481 2.346 . S
O501 C482 1.268 . S
O502 Ho480 2.378 . S
O502 C483 1.215 . S
O503 Ho480 2.524 . S
O503 C483 1.289 . S
O504 Ho480 2.381 . S
O504 C490 1.275 . S
O505 Ho480 2.669 . S
O505 Ho481 2.305 . S
O505 C490 1.256 . S
O506 Ho481 2.322 . S
O506 C491 1.259 . S
O507 Ho480 2.346 . S
O507 C491 1.268 . S
O508 Ho481 2.378 . S
O508 C492 1.215 . S
O509 Ho481 2.524 . S
O509 C492 1.289 . S
O510 Ho481 2.381 . S
O510 C499 1.275 . S
O511 Ho480 2.305 . S
O511 Ho481 2.669 . S
O511 C499 1.256 . S
H512 C485 0.930 . S
H513 C486 0.931 . S
H514 C488 0.934 . S
H515 C489 0.930 . S
H516 C494 0.930 . S
H517 C495 0.931 . S
H518 C497 0.934 . S
H519 C498 0.930 . S
Ho520 C523 2.811 . S
Ho520 O540 2.322 . S
Ho520 O542 2.378 . S
Ho520 O543 2.524 . S
Ho520 O544 2.381 . S
Ho520 O545 2.669 . S
Ho520 O547 2.346 . S
Ho520 O551 2.305 . S
Ho521 C532 2.811 . S
Ho521 O541 2.346 . S
Ho521 O545 2.305 . S
Ho521 O546 2.322 . S
Ho521 O548 2.378 . S
Ho521 O549 2.524 . S
Ho521 O550 2.381 . S
Ho521 O551 2.669 . S
C522 O540 1.259 . S
C522 O541 1.268 . S
C523 Ho520 2.811 . S
C523 C524 1.488 . S
C523 O542 1.215 . S
C523 O543 1.289 . S
C524 C523 1.488 . S
C524 C525 1.348 . S
C524 C529 1.413 . S
C525 C524 1.348 . S
C525 C526 1.442 . S
C525 H552 0.930 . S
C526 C525 1.442 . S
C526 C527 1.381 . S
C526 H553 0.931 . S
C527 C526 1.381 . S
C527 C528 1.321 . S
C528 C527 1.321 . S
C528 C529 1.403 . S
C528 H554 0.934 . S
C529 C524 1.413 . S
C529 C528 1.403 . S
C529 H555 0.930 . S
C530 O544 1.275 . S
C530 O545 1.256 . S
C531 O546 1.259 . S
C531 O547 1.268 . S
C532 Ho521 2.811 . S
C532 C533 1.488 . S
C532 O548 1.215 . S
C532 O549 1.289 . S
C533 C532 1.488 . S
C533 C534 1.348 . S
C533 C538 1.413 . S
C534 C533 1.348 . S
C534 C535 1.442 . S
C534 H556 0.930 . S
C535 C534 1.442 . S
C535 C536 1.381 . S
C535 H557 0.931 . S
C536 C535 1.381 . S
C536 C537 1.321 . S
C537 C536 1.321 . S
C537 C538 1.403 . S
C537 H558 0.934 . S
C538 C533 1.413 . S
C538 C537 1.403 . S
C538 H559 0.930 . S
C539 O550 1.275 . S
C539 O551 1.256 . S
O540 Ho520 2.322 . S
O540 C522 1.259 . S
O541 Ho521 2.346 . S
O541 C522 1.268 . S
O542 Ho520 2.378 . S
O542 C523 1.215 . S
O543 Ho520 2.524 . S
O543 C523 1.289 . S
O544 Ho520 2.381 . S
O544 C530 1.275 . S
O545 Ho520 2.669 . S
O545 Ho521 2.305 . S
O545 C530 1.256 . S
O546 Ho521 2.322 . S
O546 C531 1.259 . S
O547 Ho520 2.346 . S
O547 C531 1.268 . S
O548 Ho521 2.378 . S
O548 C532 1.215 . S
O549 Ho521 2.524 . S
O549 C532 1.289 . S
O550 Ho521 2.381 . S
O550 C539 1.275 . S
O551 Ho520 2.305 . S
O551 Ho521 2.669 . S
O551 C539 1.256 . S
H552 C525 0.930 . S
H553 C526 0.931 . S
H554 C528 0.934 . S
H555 C529 0.930 . S
H556 C534 0.930 . S
H557 C535 0.931 . S
H558 C537 0.934 . S
H559 C538 0.930 . S
Ho560 C563 2.811 . S
Ho560 O580 2.322 . S
Ho560 O582 2.378 . S
Ho560 O583 2.524 . S
Ho560 O584 2.381 . S
Ho560 O585 2.669 . S
Ho560 O587 2.346 . S
Ho560 O591 2.305 . S
Ho561 C572 2.811 . S
Ho561 O581 2.346 . S
Ho561 O585 2.305 . S
Ho561 O586 2.322 . S
Ho561 O588 2.378 . S
Ho561 O589 2.524 . S
Ho561 O590 2.381 . S
Ho561 O591 2.669 . S
C562 O580 1.259 . S
C562 O581 1.268 . S
C563 Ho560 2.811 . S
C563 C564 1.488 . S
C563 O582 1.215 . S
C563 O583 1.289 . S
C564 C563 1.488 . S
C564 C565 1.348 . S
C564 C569 1.413 . S
C565 C564 1.348 . S
C565 C566 1.442 . S
C565 H592 0.930 . S
C566 C565 1.442 . S
C566 C567 1.381 . S
C566 H593 0.931 . S
C567 C566 1.381 . S
C567 C568 1.321 . S
C568 C567 1.321 . S
C568 C569 1.403 . S
C568 H594 0.934 . S
C569 C564 1.413 . S
C569 C568 1.403 . S
C569 H595 0.930 . S
C570 O584 1.275 . S
C570 O585 1.256 . S
C571 O586 1.259 . S
C571 O587 1.268 . S
C572 Ho561 2.811 . S
C572 C573 1.488 . S
C572 O588 1.215 . S
C572 O589 1.289 . S
C573 C572 1.488 . S
C573 C574 1.348 . S
C573 C578 1.413 . S
C574 C573 1.348 . S
C574 C575 1.442 . S
C574 H596 0.930 . S
C575 C574 1.442 . S
C575 C576 1.381 . S
C575 H597 0.931 . S
C576 C575 1.381 . S
C576 C577 1.321 . S
C577 C576 1.321 . S
C577 C578 1.403 . S
C577 H598 0.934 . S
C578 C573 1.413 . S
C578 C577 1.403 . S
C578 H599 0.930 . S
C579 O590 1.275 . S
C579 O591 1.256 . S
O580 Ho560 2.322 . S
O580 C562 1.259 . S
O581 Ho561 2.346 . S
O581 C562 1.268 . S
O582 Ho560 2.378 . S
O582 C563 1.215 . S
O583 Ho560 2.524 . S
O583 C563 1.289 . S
O584 Ho560 2.381 . S
O584 C570 1.275 . S
O585 Ho560 2.669 . S
O585 Ho561 2.305 . S
O585 C570 1.256 . S
O586 Ho561 2.322 . S
O586 C571 1.259 . S
O587 Ho560 2.346 . S
O587 C571 1.268 . S
O588 Ho561 2.378 . S
O588 C572 1.215 . S
O589 Ho561 2.524 . S
O589 C572 1.289 . S
O590 Ho561 2.381 . S
O590 C579 1.275 . S
O591 Ho560 2.305 . S
O591 Ho561 2.669 . S
O591 C579 1.256 . S
H592 C565 0.930 . S
H593 C566 0.931 . S
H594 C568 0.934 . S
H595 C569 0.930 . S
H596 C574 0.930 . S
H597 C575 0.931 . S
H598 C577 0.934 . S
H599 C578 0.930 . S
Ho600 C603 2.811 . S
Ho600 O620 2.322 . S
Ho600 O622 2.378 . S
Ho600 O623 2.524 . S
Ho600 O624 2.381 . S
Ho600 O625 2.669 . S
Ho600 O627 2.346 . S
Ho600 O631 2.305 . S
Ho601 C612 2.811 . S
Ho601 O621 2.346 . S
Ho601 O625 2.305 . S
Ho601 O626 2.322 . S
Ho601 O628 2.378 . S
Ho601 O629 2.524 . S
Ho601 O630 2.381 . S
Ho601 O631 2.669 . S
C602 O620 1.259 . S
C602 O621 1.268 . S
C603 Ho600 2.811 . S
C603 C604 1.488 . S
C603 O622 1.215 . S
C603 O623 1.289 . S
C604 C603 1.488 . S
C604 C605 1.348 . S
C604 C609 1.413 . S
C605 C604 1.348 . S
C605 C606 1.442 . S
C605 H632 0.930 . S
C606 C605 1.442 . S
C606 C607 1.381 . S
C606 H633 0.931 . S
C607 C606 1.381 . S
C607 C608 1.321 . S
C608 C607 1.321 . S
C608 C609 1.403 . S
C608 H634 0.934 . S
C609 C604 1.413 . S
C609 C608 1.403 . S
C609 H635 0.930 . S
C610 O624 1.275 . S
C610 O625 1.256 . S
C611 O626 1.259 . S
C611 O627 1.268 . S
C612 Ho601 2.811 . S
C612 C613 1.488 1_556 S
C612 O628 1.215 . S
C612 O629 1.289 . S
C613 C612 1.488 1_554 S
C613 C614 1.348 . S
C613 C618 1.413 . S
C614 C613 1.348 . S
C614 C615 1.442 . S
C614 H636 0.930 . S
C615 C614 1.442 . S
C615 C616 1.381 . S
C615 H637 0.931 . S
C616 C615 1.381 . S
C616 C617 1.321 . S
C617 C616 1.321 . S
C617 C618 1.403 . S
C617 H638 0.934 . S
C618 C613 1.413 . S
C618 C617 1.403 . S
C618 H639 0.930 . S
C619 O630 1.275 . S
C619 O631 1.256 . S
O620 Ho600 2.322 . S
O620 C602 1.259 . S
O621 Ho601 2.346 . S
O621 C602 1.268 . S
O622 Ho600 2.378 . S
O622 C603 1.215 . S
O623 Ho600 2.524 . S
O623 C603 1.289 . S
O624 Ho600 2.381 . S
O624 C610 1.275 . S
O625 Ho600 2.669 . S
O625 Ho601 2.305 . S
O625 C610 1.256 . S
O626 Ho601 2.322 . S
O626 C611 1.259 . S
O627 Ho600 2.346 . S
O627 C611 1.268 . S
O628 Ho601 2.378 . S
O628 C612 1.215 . S
O629 Ho601 2.524 . S
O629 C612 1.289 . S
O630 Ho601 2.381 . S
O630 C619 1.275 . S
O631 Ho600 2.305 . S
O631 Ho601 2.669 . S
O631 C619 1.256 . S
H632 C605 0.930 . S
H633 C606 0.931 . S
H634 C608 0.934 . S
H635 C609 0.930 . S
H636 C614 0.930 . S
H637 C615 0.931 . S
H638 C617 0.934 . S
H639 C618 0.930 . S
Ho640 C643 2.811 . S
Ho640 O660 2.322 . S
Ho640 O662 2.378 . S
Ho640 O663 2.524 . S
Ho640 O664 2.381 . S
Ho640 O665 2.669 . S
Ho640 O667 2.346 . S
Ho640 O671 2.305 . S
Ho641 C652 2.811 . S
Ho641 O661 2.346 . S
Ho641 O665 2.305 . S
Ho641 O666 2.322 . S
Ho641 O668 2.378 . S
Ho641 O669 2.524 . S
Ho641 O670 2.381 . S
Ho641 O671 2.669 . S
C642 O660 1.259 . S
C642 O661 1.268 . S
C643 Ho640 2.811 . S
C643 C644 1.488 . S
C643 O662 1.215 . S
C643 O663 1.289 . S
C644 C643 1.488 . S
C644 C645 1.348 . S
C644 C649 1.413 . S
C645 C644 1.348 . S
C645 C646 1.442 . S
C645 H672 0.930 . S
C646 C645 1.442 . S
C646 C647 1.381 . S
C646 H673 0.931 . S
C647 C646 1.381 . S
C647 C648 1.321 . S
C648 C647 1.321 . S
C648 C649 1.403 . S
C648 H674 0.934 . S
C649 C644 1.413 . S
C649 C648 1.403 . S
C649 H675 0.930 . S
C650 O664 1.275 . S
C650 O665 1.256 . S
C651 O666 1.259 . S
C651 O667 1.268 . S
C652 Ho641 2.811 . S
C652 C653 1.488 1_556 S
C652 O668 1.215 . S
C652 O669 1.289 . S
C653 C652 1.488 1_554 S
C653 C654 1.348 . S
C653 C658 1.413 . S
C654 C653 1.348 . S
C654 C655 1.442 . S
C654 H676 0.930 . S
C655 C654 1.442 . S
C655 C656 1.381 . S
C655 H677 0.931 . S
C656 C655 1.381 . S
C656 C657 1.321 . S
C657 C656 1.321 . S
C657 C658 1.403 . S
C657 H678 0.934 . S
C658 C653 1.413 . S
C658 C657 1.403 . S
C658 H679 0.930 . S
C659 O670 1.275 . S
C659 O671 1.256 . S
O660 Ho640 2.322 . S
O660 C642 1.259 . S
O661 Ho641 2.346 . S
O661 C642 1.268 . S
O662 Ho640 2.378 . S
O662 C643 1.215 . S
O663 Ho640 2.524 . S
O663 C643 1.289 . S
O664 Ho640 2.381 . S
O664 C650 1.275 . S
O665 Ho640 2.669 . S
O665 Ho641 2.305 . S
O665 C650 1.256 . S
O666 Ho641 2.322 . S
O666 C651 1.259 . S
O667 Ho640 2.346 . S
O667 C651 1.268 . S
O668 Ho641 2.378 . S
O668 C652 1.215 . S
O669 Ho641 2.524 . S
O669 C652 1.289 . S
O670 Ho641 2.381 . S
O670 C659 1.275 . S
O671 Ho640 2.305 . S
O671 Ho641 2.669 . S
O671 C659 1.256 . S
H672 C645 0.930 . S
H673 C646 0.931 . S
H674 C648 0.934 . S
H675 C649 0.930 . S
H676 C654 0.930 . S
H677 C655 0.931 . S
H678 C657 0.934 . S
H679 C658 0.930 . S
Ho680 C683 2.811 . S
Ho680 O700 2.322 . S
Ho680 O702 2.378 . S
Ho680 O703 2.524 . S
Ho680 O704 2.381 . S
Ho680 O705 2.669 . S
Ho680 O707 2.346 . S
Ho680 O711 2.305 . S
Ho681 C692 2.811 . S
Ho681 O701 2.346 . S
Ho681 O705 2.305 . S
Ho681 O706 2.322 . S
Ho681 O708 2.378 . S
Ho681 O709 2.524 . S
Ho681 O710 2.381 . S
Ho681 O711 2.669 . S
C682 O700 1.259 . S
C682 O701 1.268 . S
C683 Ho680 2.811 . S
C683 C684 1.488 . S
C683 O702 1.215 . S
C683 O703 1.289 . S
C684 C683 1.488 . S
C684 C685 1.348 . S
C684 C689 1.413 . S
C685 C684 1.348 . S
C685 C686 1.442 . S
C685 H712 0.930 . S
C686 C685 1.442 . S
C686 C687 1.381 . S
C686 H713 0.931 . S
C687 C686 1.381 . S
C687 C688 1.321 . S
C688 C687 1.321 . S
C688 C689 1.403 . S
C688 H714 0.934 . S
C689 C684 1.413 . S
C689 C688 1.403 . S
C689 H715 0.930 . S
C690 O704 1.275 . S
C690 O705 1.256 . S
C691 O706 1.259 . S
C691 O707 1.268 . S
C692 Ho681 2.811 . S
C692 C693 1.488 1_556 S
C692 O708 1.215 . S
C692 O709 1.289 . S
C693 C692 1.488 1_554 S
C693 C694 1.348 . S
C693 C698 1.413 . S
C694 C693 1.348 . S
C694 C695 1.442 . S
C694 H716 0.930 . S
C695 C694 1.442 . S
C695 C696 1.381 . S
C695 H717 0.931 . S
C696 C695 1.381 . S
C696 C697 1.321 . S
C697 C696 1.321 . S
C697 C698 1.403 . S
C697 H718 0.934 . S
C698 C693 1.413 . S
C698 C697 1.403 . S
C698 H719 0.930 . S
C699 O710 1.275 . S
C699 O711 1.256 . S
O700 Ho680 2.322 . S
O700 C682 1.259 . S
O701 Ho681 2.346 . S
O701 C682 1.268 . S
O702 Ho680 2.378 . S
O702 C683 1.215 . S
O703 Ho680 2.524 . S
O703 C683 1.289 . S
O704 Ho680 2.381 . S
O704 C690 1.275 . S
O705 Ho680 2.669 . S
O705 Ho681 2.305 . S
O705 C690 1.256 . S
O706 Ho681 2.322 . S
O706 C691 1.259 . S
O707 Ho680 2.346 . S
O707 C691 1.268 . S
O708 Ho681 2.378 . S
O708 C692 1.215 . S
O709 Ho681 2.524 . S
O709 C692 1.289 . S
O710 Ho681 2.381 . S
O710 C699 1.275 . S
O711 Ho680 2.305 . S
O711 Ho681 2.669 . S
O711 C699 1.256 . S
H712 C685 0.930 . S
H713 C686 0.931 . S
H714 C688 0.934 . S
H715 C689 0.930 . S
H716 C694 0.930 . S
H717 C695 0.931 . S
H718 C697 0.934 . S
H719 C698 0.930 . S
Ho720 C723 2.811 . S
Ho720 O740 2.322 . S
Ho720 O742 2.378 . S
Ho720 O743 2.524 . S
Ho720 O744 2.381 . S
Ho720 O745 2.669 . S
Ho720 O747 2.346 . S
Ho720 O751 2.305 . S
Ho721 C732 2.811 . S
Ho721 O741 2.346 . S
Ho721 O745 2.305 . S
Ho721 O746 2.322 . S
Ho721 O748 2.378 . S
Ho721 O749 2.524 . S
Ho721 O750 2.381 . S
Ho721 O751 2.669 . S
C722 O740 1.259 . S
C722 O741 1.268 . S
C723 Ho720 2.811 . S
C723 C724 1.488 . S
C723 O742 1.215 . S
C723 O743 1.289 . S
C724 C723 1.488 . S
C724 C725 1.348 . S
C724 C729 1.413 . S
C725 C724 1.348 . S
C725 C726 1.442 . S
C725 H752 0.930 . S
C726 C725 1.442 . S
C726 C727 1.381 . S
C726 H753 0.931 . S
C727 C726 1.381 . S
C727 C728 1.321 . S
C728 C727 1.321 . S
C728 C729 1.403 . S
C728 H754 0.934 . S
C729 C724 1.413 . S
C729 C728 1.403 . S
C729 H755 0.930 . S
C730 O744 1.275 . S
C730 O745 1.256 . S
C731 O746 1.259 . S
C731 O747 1.268 . S
C732 Ho721 2.811 . S
C732 C733 1.488 . S
C732 O748 1.215 . S
C732 O749 1.289 . S
C733 C732 1.488 . S
C733 C734 1.348 . S
C733 C738 1.413 . S
C734 C733 1.348 . S
C734 C735 1.442 . S
C734 H756 0.930 . S
C735 C734 1.442 . S
C735 C736 1.381 . S
C735 H757 0.931 . S
C736 C735 1.381 . S
C736 C737 1.321 . S
C737 C736 1.321 . S
C737 C738 1.403 . S
C737 H758 0.934 . S
C738 C733 1.413 . S
C738 C737 1.403 . S
C738 H759 0.930 . S
C739 O750 1.275 . S
C739 O751 1.256 . S
O740 Ho720 2.322 . S
O740 C722 1.259 . S
O741 Ho721 2.346 . S
O741 C722 1.268 . S
O742 Ho720 2.378 . S
O742 C723 1.215 . S
O743 Ho720 2.524 . S
O743 C723 1.289 . S
O744 Ho720 2.381 . S
O744 C730 1.275 . S
O745 Ho720 2.669 . S
O745 Ho721 2.305 . S
O745 C730 1.256 . S
O746 Ho721 2.322 . S
O746 C731 1.259 . S
O747 Ho720 2.346 . S
O747 C731 1.268 . S
O748 Ho721 2.378 . S
O748 C732 1.215 . S
O749 Ho721 2.524 . S
O749 C732 1.289 . S
O750 Ho721 2.381 . S
O750 C739 1.275 . S
O751 Ho720 2.305 . S
O751 Ho721 2.669 . S
O751 C739 1.256 . S
H752 C725 0.930 . S
H753 C726 0.931 . S
H754 C728 0.934 . S
H755 C729 0.930 . S
H756 C734 0.930 . S
H757 C735 0.931 . S
H758 C737 0.934 . S
H759 C738 0.930 . S
Ho760 C763 2.811 . S
Ho760 O780 2.322 . S
Ho760 O782 2.378 . S
Ho760 O783 2.524 . S
Ho760 O784 2.381 . S
Ho760 O785 2.669 . S
Ho760 O787 2.346 . S
Ho760 O791 2.305 . S
Ho761 C772 2.811 . S
Ho761 O781 2.346 . S
Ho761 O785 2.305 . S
Ho761 O786 2.322 . S
Ho761 O788 2.378 . S
Ho761 O789 2.524 . S
Ho761 O790 2.381 . S
Ho761 O791 2.669 . S
C762 O780 1.259 . S
C762 O781 1.268 . S
C763 Ho760 2.811 . S
C763 C764 1.488 . S
C763 O782 1.215 . S
C763 O783 1.289 . S
C764 C763 1.488 . S
C764 C765 1.348 . S
C764 C769 1.413 . S
C765 C764 1.348 . S
C765 C766 1.442 . S
C765 H792 0.930 . S
C766 C765 1.442 . S
C766 C767 1.381 . S
C766 H793 0.931 . S
C767 C766 1.381 . S
C767 C768 1.321 . S
C768 C767 1.321 . S
C768 C769 1.403 . S
C768 H794 0.934 . S
C769 C764 1.413 . S
C769 C768 1.403 . S
C769 H795 0.930 . S
C770 O784 1.275 . S
C770 O785 1.256 . S
C771 O786 1.259 . S
C771 O787 1.268 . S
C772 Ho761 2.811 . S
C772 C773 1.488 . S
C772 O788 1.215 . S
C772 O789 1.289 . S
C773 C772 1.488 . S
C773 C774 1.348 . S
C773 C778 1.413 . S
C774 C773 1.348 . S
C774 C775 1.442 . S
C774 H796 0.930 . S
C775 C774 1.442 . S
C775 C776 1.381 . S
C775 H797 0.931 . S
C776 C775 1.381 . S
C776 C777 1.321 . S
C777 C776 1.321 . S
C777 C778 1.403 . S
C777 H798 0.934 . S
C778 C773 1.413 . S
C778 C777 1.403 . S
C778 H799 0.930 . S
C779 O790 1.275 . S
C779 O791 1.256 . S
O780 Ho760 2.322 . S
O780 C762 1.259 . S
O781 Ho761 2.346 . S
O781 C762 1.268 . S
O782 Ho760 2.378 . S
O782 C763 1.215 . S
O783 Ho760 2.524 . S
O783 C763 1.289 . S
O784 Ho760 2.381 . S
O784 C770 1.275 . S
O785 Ho760 2.669 . S
O785 Ho761 2.305 . S
O785 C770 1.256 . S
O786 Ho761 2.322 . S
O786 C771 1.259 . S
O787 Ho760 2.346 . S
O787 C771 1.268 . S
O788 Ho761 2.378 . S
O788 C772 1.215 . S
O789 Ho761 2.524 . S
O789 C772 1.289 . S
O790 Ho761 2.381 . S
O790 C779 1.275 . S
O791 Ho760 2.305 . S
O791 Ho761 2.669 . S
O791 C779 1.256 . S
H792 C765 0.930 . S
H793 C766 0.931 . S
H794 C768 0.934 . S
H795 C769 0.930 . S
H796 C774 0.930 . S
H797 C775 0.931 . S
H798 C777 0.934 . S
H799 C778 0.930 . S
Ho800 C803 2.811 . S
Ho800 O820 2.322 . S
Ho800 O822 2.378 . S
Ho800 O823 2.524 . S
Ho800 O824 2.381 . S
Ho800 O825 2.669 . S
Ho800 O827 2.346 . S
Ho800 O831 2.305 . S
Ho801 C812 2.811 . S
Ho801 O821 2.346 . S
Ho801 O825 2.305 . S
Ho801 O826 2.322 . S
Ho801 O828 2.378 . S
Ho801 O829 2.524 . S
Ho801 O830 2.381 . S
Ho801 O831 2.669 . S
C802 O820 1.259 . S
C802 O821 1.268 . S
C803 Ho800 2.811 . S
C803 C804 1.488 . S
C803 O822 1.215 . S
C803 O823 1.289 . S
C804 C803 1.488 . S
C804 C805 1.348 . S
C804 C809 1.413 . S
C805 C804 1.348 . S
C805 C806 1.442 . S
C805 H832 0.930 . S
C806 C805 1.442 . S
C806 C807 1.381 . S
C806 H833 0.931 . S
C807 C806 1.381 . S
C807 C808 1.321 . S
C808 C807 1.321 . S
C808 C809 1.403 . S
C808 H834 0.934 . S
C809 C804 1.413 . S
C809 C808 1.403 . S
C809 H835 0.930 . S
C810 O824 1.275 . S
C810 O825 1.256 . S
C811 O826 1.259 . S
C811 O827 1.268 . S
C812 Ho801 2.811 . S
C812 C813 1.488 . S
C812 O828 1.215 . S
C812 O829 1.289 . S
C813 C812 1.488 . S
C813 C814 1.348 . S
C813 C818 1.413 . S
C814 C813 1.348 . S
C814 C815 1.442 . S
C814 H836 0.930 . S
C815 C814 1.442 . S
C815 C816 1.381 . S
C815 H837 0.931 . S
C816 C815 1.381 . S
C816 C817 1.321 . S
C817 C816 1.321 . S
C817 C818 1.403 . S
C817 H838 0.934 . S
C818 C813 1.413 . S
C818 C817 1.403 . S
C818 H839 0.930 . S
C819 O830 1.275 . S
C819 O831 1.256 . S
O820 Ho800 2.322 . S
O820 C802 1.259 . S
O821 Ho801 2.346 . S
O821 C802 1.268 . S
O822 Ho800 2.378 . S
O822 C803 1.215 . S
O823 Ho800 2.524 . S
O823 C803 1.289 . S
O824 Ho800 2.381 . S
O824 C810 1.275 . S
O825 Ho800 2.669 . S
O825 Ho801 2.305 . S
O825 C810 1.256 . S
O826 Ho801 2.322 . S
O826 C811 1.259 . S
O827 Ho800 2.346 . S
O827 C811 1.268 . S
O828 Ho801 2.378 . S
O828 C812 1.215 . S
O829 Ho801 2.524 . S
O829 C812 1.289 . S
O830 Ho801 2.381 . S
O830 C819 1.275 . S
O831 Ho800 2.305 . S
O831 Ho801 2.669 . S
O831 C819 1.256 . S
H832 C805 0.930 . S
H833 C806 0.931 . S
H834 C808 0.934 . S
H835 C809 0.930 . S
H836 C814 0.930 . S
H837 C815 0.931 . S
H838 C817 0.934 . S
H839 C818 0.930 . S
Ho840 C843 2.811 . S
Ho840 O860 2.322 . S
Ho840 O862 2.378 . S
Ho840 O863 2.524 . S
Ho840 O864 2.381 . S
Ho840 O865 2.669 . S
Ho840 O867 2.360 . S
Ho840 O871 2.305 . S
Ho841 C852 2.811 1_556 S
Ho841 O861 2.346 . S
Ho841 O865 2.305 . S
Ho841 O866 2.322 1_556 S
Ho841 O868 2.378 1_556 S
Ho841 O869 2.524 1_556 S
Ho841 O870 2.381 . S
Ho841 O871 2.669 . S
C842 O860 1.259 . S
C842 O861 1.268 . S
C843 Ho840 2.811 . S
C843 C844 1.488 . S
C843 O862 1.215 . S
C843 O863 1.289 . S
C844 C843 1.488 . S
C844 C845 1.348 . S
C844 C849 1.413 . S
C845 C844 1.348 . S
C845 C846 1.442 . S
C845 H872 0.930 . S
C846 C845 1.442 . S
C846 C847 1.381 . S
C846 H873 0.931 . S
C847 C846 1.381 . S
C847 C848 1.321 . S
C848 C847 1.321 . S
C848 C849 1.403 . S
C848 H874 0.934 . S
C849 C844 1.413 . S
C849 C848 1.403 . S
C849 H875 0.930 . S
C850 O864 1.275 . S
C850 O865 1.256 . S
C851 O866 1.259 . S
C851 O867 1.256 1_554 S
C852 Ho841 2.811 1_554 S
C852 C853 1.488 . S
C852 O868 1.215 . S
C852 O869 1.289 . S
C853 C852 1.488 . S
C853 C854 1.348 . S
C853 C858 1.413 . S
C854 C853 1.348 . S
C854 C855 1.442 . S
C854 H876 0.930 . S
C855 C854 1.442 . S
C855 C856 1.381 . S
C855 H877 0.931 . S
C856 C855 1.381 . S
C856 C857 1.321 . S
C857 C856 1.321 . S
C857 C858 1.403 . S
C857 H878 0.934 . S
C858 C853 1.413 . S
C858 C857 1.403 . S
C858 H879 0.930 . S
C859 O870 1.275 . S
C859 O871 1.256 . S
O860 Ho840 2.322 . S
O860 C842 1.259 . S
O861 Ho841 2.346 . S
O861 C842 1.268 . S
O862 Ho840 2.378 . S
O862 C843 1.215 . S
O863 Ho840 2.524 . S
O863 C843 1.289 . S
O864 Ho840 2.381 . S
O864 C850 1.275 . S
O865 Ho840 2.669 . S
O865 Ho841 2.305 . S
O865 C850 1.256 . S
O866 Ho841 2.322 1_554 S
O866 C851 1.259 . S
O867 Ho840 2.360 . S
O867 C851 1.256 1_556 S
O868 Ho841 2.378 1_554 S
O868 C852 1.215 . S
O869 Ho841 2.524 1_554 S
O869 C852 1.289 . S
O870 Ho841 2.381 . S
O870 C859 1.275 . S
O871 Ho840 2.305 . S
O871 Ho841 2.669 . S
O871 C859 1.256 . S
H872 C845 0.930 . S
H873 C846 0.931 . S
H874 C848 0.934 . S
H875 C849 0.930 . S
H876 C854 0.930 . S
H877 C855 0.931 . S
H878 C857 0.934 . S
H879 C858 0.930 . S
Ho880 C883 2.811 . S
Ho880 O900 2.322 . S
Ho880 O902 2.378 . S
Ho880 O903 2.524 . S
Ho880 O904 2.381 . S
Ho880 O905 2.669 . S
Ho880 O907 2.360 . S
Ho880 O911 2.305 . S
Ho881 C892 2.811 1_556 S
Ho881 O901 2.346 . S
Ho881 O905 2.305 . S
Ho881 O906 2.322 1_556 S
Ho881 O908 2.378 1_556 S
Ho881 O909 2.524 1_556 S
Ho881 O910 2.381 . S
Ho881 O911 2.669 . S
C882 O900 1.259 . S
C882 O901 1.268 . S
C883 Ho880 2.811 . S
C883 C884 1.488 . S
C883 O902 1.215 . S
C883 O903 1.289 . S
C884 C883 1.488 . S
C884 C885 1.348 . S
C884 C889 1.413 . S
C885 C884 1.348 . S
C885 C886 1.442 . S
C885 H912 0.930 . S
C886 C885 1.442 . S
C886 C887 1.381 . S
C886 H913 0.931 . S
C887 C886 1.381 . S
C887 C888 1.321 . S
C888 C887 1.321 . S
C888 C889 1.403 . S
C888 H914 0.934 . S
C889 C884 1.413 . S
C889 C888 1.403 . S
C889 H915 0.930 . S
C890 O904 1.275 . S
C890 O905 1.256 . S
C891 O906 1.259 . S
C891 O907 1.256 1_554 S
C892 Ho881 2.811 1_554 S
C892 C893 1.488 . S
C892 O908 1.215 . S
C892 O909 1.289 . S
C893 C892 1.488 . S
C893 C894 1.348 . S
C893 C898 1.413 . S
C894 C893 1.348 . S
C894 C895 1.442 . S
C894 H916 0.930 . S
C895 C894 1.442 . S
C895 C896 1.381 . S
C895 H917 0.931 . S
C896 C895 1.381 . S
C896 C897 1.321 . S
C897 C896 1.321 . S
C897 C898 1.403 . S
C897 H918 0.934 . S
C898 C893 1.413 . S
C898 C897 1.403 . S
C898 H919 0.930 . S
C899 O910 1.275 . S
C899 O911 1.256 . S
O900 Ho880 2.322 . S
O900 C882 1.259 . S
O901 Ho881 2.346 . S
O901 C882 1.268 . S
O902 Ho880 2.378 . S
O902 C883 1.215 . S
O903 Ho880 2.524 . S
O903 C883 1.289 . S
O904 Ho880 2.381 . S
O904 C890 1.275 . S
O905 Ho880 2.669 . S
O905 Ho881 2.305 . S
O905 C890 1.256 . S
O906 Ho881 2.322 1_554 S
O906 C891 1.259 . S
O907 Ho880 2.360 . S
O907 C891 1.256 1_556 S
O908 Ho881 2.378 1_554 S
O908 C892 1.215 . S
O909 Ho881 2.524 1_554 S
O909 C892 1.289 . S
O910 Ho881 2.381 . S
O910 C899 1.275 . S
O911 Ho880 2.305 . S
O911 Ho881 2.669 . S
O911 C899 1.256 . S
H912 C885 0.930 . S
H913 C886 0.931 . S
H914 C888 0.934 . S
H915 C889 0.930 . S
H916 C894 0.930 . S
H917 C895 0.931 . S
H918 C897 0.934 . S
H919 C898 0.930 . S
Ho920 C923 2.811 . S
Ho920 O940 2.322 . S
Ho920 O942 2.378 . S
Ho920 O943 2.524 . S
Ho920 O944 2.381 . S
Ho920 O945 2.669 . S
Ho920 O947 2.360 . S
Ho920 O951 2.305 . S
Ho921 C932 2.811 1_556 S
Ho921 O941 2.346 . S
Ho921 O945 2.305 . S
Ho921 O946 2.322 1_556 S
Ho921 O948 2.378 1_556 S
Ho921 O949 2.524 1_556 S
Ho921 O950 2.381 . S
Ho921 O951 2.669 . S
C922 O940 1.259 . S
C922 O941 1.268 . S
C923 Ho920 2.811 . S
C923 C924 1.488 . S
C923 O942 1.215 . S
C923 O943 1.289 . S
C924 C923 1.488 . S
C924 C925 1.348 . S
C924 C929 1.413 . S
C925 C924 1.348 . S
C925 C926 1.442 . S
C925 H952 0.930 . S
C926 C925 1.442 . S
C926 C927 1.381 . S
C926 H953 0.931 . S
C927 C926 1.381 . S
C927 C928 1.321 . S
C928 C927 1.321 . S
C928 C929 1.403 . S
C928 H954 0.934 . S
C929 C924 1.413 . S
C929 C928 1.403 . S
C929 H955 0.930 . S
C930 O944 1.275 . S
C930 O945 1.256 . S
C931 O946 1.259 . S
C931 O947 1.256 1_554 S
C932 Ho921 2.811 1_554 S
C932 C933 1.488 . S
C932 O948 1.215 . S
C932 O949 1.289 . S
C933 C932 1.488 . S
C933 C934 1.348 . S
C933 C938 1.413 . S
C934 C933 1.348 . S
C934 C935 1.442 . S
C934 H956 0.930 . S
C935 C934 1.442 . S
C935 C936 1.381 . S
C935 H957 0.931 . S
C936 C935 1.381 . S
C936 C937 1.321 . S
C937 C936 1.321 . S
C937 C938 1.403 . S
C937 H958 0.934 . S
C938 C933 1.413 . S
C938 C937 1.403 . S
C938 H959 0.930 . S
C939 O950 1.275 . S
C939 O951 1.256 . S
O940 Ho920 2.322 . S
O940 C922 1.259 . S
O941 Ho921 2.346 . S
O941 C922 1.268 . S
O942 Ho920 2.378 . S
O942 C923 1.215 . S
O943 Ho920 2.524 . S
O943 C923 1.289 . S
O944 Ho920 2.381 . S
O944 C930 1.275 . S
O945 Ho920 2.669 . S
O945 Ho921 2.305 . S
O945 C930 1.256 . S
O946 Ho921 2.322 1_554 S
O946 C931 1.259 . S
O947 Ho920 2.360 . S
O947 C931 1.256 1_556 S
O948 Ho921 2.378 1_554 S
O948 C932 1.215 . S
O949 Ho921 2.524 1_554 S
O949 C932 1.289 . S
O950 Ho921 2.381 . S
O950 C939 1.275 . S
O951 Ho920 2.305 . S
O951 Ho921 2.669 . S
O951 C939 1.256 . S
H952 C925 0.930 . S
H953 C926 0.931 . S
H954 C928 0.934 . S
H955 C929 0.930 . S
H956 C934 0.930 . S
H957 C935 0.931 . S
H958 C937 0.934 . S
H959 C938 0.930 . S
Ho960 C963 2.811 . S
Ho960 O980 2.322 . S
Ho960 O982 2.378 . S
Ho960 O983 2.524 . S
Ho960 O984 2.381 . S
Ho960 O985 2.669 . S
Ho960 O987 2.346 . S
Ho960 O991 2.305 . S
Ho961 C972 2.811 . S
Ho961 O981 2.346 . S
Ho961 O985 2.305 . S
Ho961 O986 2.322 . S
Ho961 O988 2.378 . S
Ho961 O989 2.524 . S
Ho961 O990 2.381 . S
Ho961 O991 2.669 . S
C962 O980 1.259 . S
C962 O981 1.268 . S
C963 Ho960 2.811 . S
C963 C964 1.488 . S
C963 O982 1.215 . S
C963 O983 1.289 . S
C964 C963 1.488 . S
C964 C965 1.348 . S
C964 C969 1.413 . S
C965 C964 1.348 . S
C965 C966 1.442 1_556 S
C965 H992 0.930 . S
C966 C965 1.442 1_554 S
C966 C967 1.381 . S
C966 H993 0.931 . S
C967 C966 1.381 . S
C967 C968 1.321 . S
C968 C967 1.321 . S
C968 C969 1.403 1_554 S
C968 H994 0.934 . S
C969 C964 1.413 . S
C969 C968 1.403 1_556 S
C969 H995 0.930 . S
C970 O984 1.275 . S
C970 O985 1.256 . S
C971 O986 1.259 . S
C971 O987 1.268 . S
C972 Ho961 2.811 . S
C972 C973 1.488 . S
C972 O988 1.215 . S
C972 O989 1.289 . S
C973 C972 1.488 . S
C973 C974 1.348 . S
C973 C978 1.413 . S
C974 C973 1.348 . S
C974 C975 1.442 . S
C974 H996 0.930 . S
C975 C974 1.442 . S
C975 C976 1.381 . S
C975 H997 0.931 . S
C976 C975 1.381 . S
C976 C977 1.321 . S
C977 C976 1.321 . S
C977 C978 1.403 . S
C977 H998 0.934 . S
C978 C973 1.413 . S
C978 C977 1.403 . S
C978 H999 0.930 . S
C979 O990 1.275 . S
C979 O991 1.256 . S
O980 Ho960 2.322 . S
O980 C962 1.259 . S
O981 Ho961 2.346 . S
O981 C962 1.268 . S
O982 Ho960 2.378 . S
O982 C963 1.215 . S
O983 Ho960 2.524 . S
O983 C963 1.289 . S
O984 Ho960 2.381 . S
O984 C970 1.275 . S
O985 Ho960 2.669 . S
O985 Ho961 2.305 . S
O985 C970 1.256 . S
O986 Ho961 2.322 . S
O986 C971 1.259 . S
O987 Ho960 2.346 . S
O987 C971 1.268 . S
O988 Ho961 2.378 . S
O988 C972 1.215 . S
O989 Ho961 2.524 . S
O989 C972 1.289 . S
O990 Ho961 2.381 . S
O990 C979 1.275 . S
O991 Ho960 2.305 . S
O991 Ho961 2.669 . S
O991 C979 1.256 . S
H992 C965 0.930 . S
H993 C966 0.931 . S
H994 C968 0.934 . S
H995 C969 0.930 . S
H996 C974 0.930 . S
H997 C975 0.931 . S
H998 C977 0.934 . S
H999 C978 0.930 . S
Ho1000 C1003 2.811 . S
Ho1000 O1020 2.322 . S
Ho1000 O1022 2.378 . S
Ho1000 O1023 2.524 . S
Ho1000 O1024 2.381 . S
Ho1000 O1025 2.669 . S
Ho1000 O1027 2.346 . S
Ho1000 O1031 2.305 . S
Ho1001 C1012 2.811 . S
Ho1001 O1021 2.346 . S
Ho1001 O1025 2.305 . S
Ho1001 O1026 2.322 . S
Ho1001 O1028 2.378 . S
Ho1001 O1029 2.524 . S
Ho1001 O1030 2.381 . S
Ho1001 O1031 2.669 . S
C1002 O1020 1.259 . S
C1002 O1021 1.268 . S
C1003 Ho1000 2.811 . S
C1003 C1004 1.488 . S
C1003 O1022 1.215 . S
C1003 O1023 1.289 . S
C1004 C1003 1.488 . S
C1004 C1005 1.348 . S
C1004 C1009 1.413 . S
C1005 C1004 1.348 . S
C1005 C1006 1.442 1_556 S
C1005 H1032 0.930 . S
C1006 C1005 1.442 1_554 S
C1006 C1007 1.381 . S
C1006 H1033 0.931 . S
C1007 C1006 1.381 . S
C1007 C1008 1.321 . S
C1008 C1007 1.321 . S
C1008 C1009 1.403 1_554 S
C1008 H1034 0.934 . S
C1009 C1004 1.413 . S
C1009 C1008 1.403 1_556 S
C1009 H1035 0.930 . S
C1010 O1024 1.275 . S
C1010 O1025 1.256 . S
C1011 O1026 1.259 . S
C1011 O1027 1.268 . S
C1012 Ho1001 2.811 . S
C1012 C1013 1.488 . S
C1012 O1028 1.215 . S
C1012 O1029 1.289 . S
C1013 C1012 1.488 . S
C1013 C1014 1.348 . S
C1013 C1018 1.413 . S
C1014 C1013 1.348 . S
C1014 C1015 1.442 . S
C1014 H1036 0.930 . S
C1015 C1014 1.442 . S
C1015 C1016 1.381 . S
C1015 H1037 0.931 . S
C1016 C1015 1.381 . S
C1016 C1017 1.321 . S
C1017 C1016 1.321 . S
C1017 C1018 1.403 . S
C1017 H1038 0.934 . S
C1018 C1013 1.413 . S
C1018 C1017 1.403 . S
C1018 H1039 0.930 . S
C1019 O1030 1.275 . S
C1019 O1031 1.256 . S
O1020 Ho1000 2.322 . S
O1020 C1002 1.259 . S
O1021 Ho1001 2.346 . S
O1021 C1002 1.268 . S
O1022 Ho1000 2.378 . S
O1022 C1003 1.215 . S
O1023 Ho1000 2.524 . S
O1023 C1003 1.289 . S
O1024 Ho1000 2.381 . S
O1024 C1010 1.275 . S
O1025 Ho1000 2.669 . S
O1025 Ho1001 2.305 . S
O1025 C1010 1.256 . S
O1026 Ho1001 2.322 . S
O1026 C1011 1.259 . S
O1027 Ho1000 2.346 . S
O1027 C1011 1.268 . S
O1028 Ho1001 2.378 . S
O1028 C1012 1.215 . S
O1029 Ho1001 2.524 . S
O1029 C1012 1.289 . S
O1030 Ho1001 2.381 . S
O1030 C1019 1.275 . S
O1031 Ho1000 2.305 . S
O1031 Ho1001 2.669 . S
O1031 C1019 1.256 . S
H1032 C1005 0.930 . S
H1033 C1006 0.931 . S
H1034 C1008 0.934 . S
H1035 C1009 0.930 . S
H1036 C1014 0.930 . S
H1037 C1015 0.931 . S
H1038 C1017 0.934 . S
H1039 C1018 0.930 . S
Ho1040 C1043 2.811 . S
Ho1040 O1060 2.322 . S
Ho1040 O1062 2.378 . S
Ho1040 O1063 2.524 . S
Ho1040 O1064 2.381 . S
Ho1040 O1065 2.669 . S
Ho1040 O1067 2.346 . S
Ho1040 O1071 2.305 . S
Ho1041 C1052 2.811 . S
Ho1041 O1061 2.346 . S
Ho1041 O1065 2.305 . S
Ho1041 O1066 2.322 . S
Ho1041 O1068 2.378 . S
Ho1041 O1069 2.524 . S
Ho1041 O1070 2.381 . S
Ho1041 O1071 2.669 . S
C1042 O1060 1.259 . S
C1042 O1061 1.268 . S
C1043 Ho1040 2.811 . S
C1043 C1044 1.488 . S
C1043 O1062 1.215 . S
C1043 O1063 1.289 . S
C1044 C1043 1.488 . S
C1044 C1045 1.348 . S
C1044 C1049 1.413 . S
C1045 C1044 1.348 . S
C1045 C1046 1.442 1_556 S
C1045 H1072 0.930 . S
C1046 C1045 1.442 1_554 S
C1046 C1047 1.381 . S
C1046 H1073 0.931 . S
C1047 C1046 1.381 . S
C1047 C1048 1.321 . S
C1048 C1047 1.321 . S
C1048 C1049 1.403 1_554 S
C1048 H1074 0.934 . S
C1049 C1044 1.413 . S
C1049 C1048 1.403 1_556 S
C1049 H1075 0.930 . S
C1050 O1064 1.275 . S
C1050 O1065 1.256 . S
C1051 O1066 1.259 . S
C1051 O1067 1.268 . S
C1052 Ho1041 2.811 . S
C1052 C1053 1.488 . S
C1052 O1068 1.215 . S
C1052 O1069 1.289 . S
C1053 C1052 1.488 . S
C1053 C1054 1.348 . S
C1053 C1058 1.413 . S
C1054 C1053 1.348 . S
C1054 C1055 1.442 . S
C1054 H1076 0.930 . S
C1055 C1054 1.442 . S
C1055 C1056 1.381 . S
C1055 H1077 0.931 . S
C1056 C1055 1.381 . S
C1056 C1057 1.321 . S
C1057 C1056 1.321 . S
C1057 C1058 1.403 . S
C1057 H1078 0.934 . S
C1058 C1053 1.413 . S
C1058 C1057 1.403 . S
C1058 H1079 0.930 . S
C1059 O1070 1.275 . S
C1059 O1071 1.256 . S
O1060 Ho1040 2.322 . S
O1060 C1042 1.259 . S
O1061 Ho1041 2.346 . S
O1061 C1042 1.268 . S
O1062 Ho1040 2.378 . S
O1062 C1043 1.215 . S
O1063 Ho1040 2.524 . S
O1063 C1043 1.289 . S
O1064 Ho1040 2.381 . S
O1064 C1050 1.275 . S
O1065 Ho1040 2.669 . S
O1065 Ho1041 2.305 . S
O1065 C1050 1.256 . S
O1066 Ho1041 2.322 . S
O1066 C1051 1.259 . S
O1067 Ho1040 2.346 . S
O1067 C1051 1.268 . S
O1068 Ho1041 2.378 . S
O1068 C1052 1.215 . S
O1069 Ho1041 2.524 . S
O1069 C1052 1.289 . S
O1070 Ho1041 2.381 . S
O1070 C1059 1.275 . S
O1071 Ho1040 2.305 . S
O1071 Ho1041 2.669 . S
O1071 C1059 1.256 . S
H1072 C1045 0.930 . S
H1073 C1046 0.931 . S
H1074 C1048 0.934 . S
H1075 C1049 0.930 . S
H1076 C1054 0.930 . S
H1077 C1055 0.931 . S
H1078 C1057 0.934 . S
H1079 C1058 0.930 . S
Ho1080 C1083 2.811 . S
Ho1080 O1100 2.322 . S
Ho1080 O1102 2.378 . S
Ho1080 O1103 2.524 . S
Ho1080 O1104 2.381 . S
Ho1080 O1105 2.669 . S
Ho1080 O1107 2.346 . S
Ho1080 O1111 2.305 . S
Ho1081 C1092 2.811 . S
Ho1081 O1101 2.346 . S
Ho1081 O1105 2.305 . S
Ho1081 O1106 2.322 . S
Ho1081 O1108 2.378 . S
Ho1081 O1109 2.524 . S
Ho1081 O1110 2.381 . S
Ho1081 O1111 2.669 . S
C1082 O1100 1.259 . S
C1082 O1101 1.268 . S
C1083 Ho1080 2.811 . S
C1083 C1084 1.488 . S
C1083 O1102 1.215 . S
C1083 O1103 1.289 . S
C1084 C1083 1.488 . S
C1084 C1085 1.348 . S
C1084 C1089 1.413 . S
C1085 C1084 1.348 . S
C1085 C1086 1.442 1_554 S
C1085 H1112 0.930 . S
C1086 C1085 1.442 1_556 S
C1086 C1087 1.381 . S
C1086 H1113 0.931 . S
C1087 C1086 1.381 . S
C1087 C1088 1.321 . S
C1088 C1087 1.321 . S
C1088 C1089 1.403 1_556 S
C1088 H1114 0.934 . S
C1089 C1084 1.413 . S
C1089 C1088 1.403 1_554 S
C1089 H1115 0.930 . S
C1090 O1104 1.275 . S
C1090 O1105 1.256 . S
C1091 O1106 1.259 . S
C1091 O1107 1.268 . S
C1092 Ho1081 2.811 . S
C1092 C1093 1.488 . S
C1092 O1108 1.215 . S
C1092 O1109 1.289 . S
C1093 C1092 1.488 . S
C1093 C1094 1.348 . S
C1093 C1098 1.413 . S
C1094 C1093 1.348 . S
C1094 C1095 1.442 . S
C1094 H1116 0.930 . S
C1095 C1094 1.442 . S
C1095 C1096 1.381 . S
C1095 H1117 0.931 . S
C1096 C1095 1.381 . S
C1096 C1097 1.321 . S
C1097 C1096 1.321 . S
C1097 C1098 1.403 . S
C1097 H1118 0.934 . S
C1098 C1093 1.413 . S
C1098 C1097 1.403 . S
C1098 H1119 0.930 . S
C1099 O1110 1.275 . S
C1099 O1111 1.256 . S
O1100 Ho1080 2.322 . S
O1100 C1082 1.259 . S
O1101 Ho1081 2.346 . S
O1101 C1082 1.268 . S
O1102 Ho1080 2.378 . S
O1102 C1083 1.215 . S
O1103 Ho1080 2.524 . S
O1103 C1083 1.289 . S
O1104 Ho1080 2.381 . S
O1104 C1090 1.275 . S
O1105 Ho1080 2.669 . S
O1105 Ho1081 2.305 . S
O1105 C1090 1.256 . S
O1106 Ho1081 2.322 . S
O1106 C1091 1.259 . S
O1107 Ho1080 2.346 . S
O1107 C1091 1.268 . S
O1108 Ho1081 2.378 . S
O1108 C1092 1.215 . S
O1109 Ho1081 2.524 . S
O1109 C1092 1.289 . S
O1110 Ho1081 2.381 . S
O1110 C1099 1.275 . S
O1111 Ho1080 2.305 . S
O1111 Ho1081 2.669 . S
O1111 C1099 1.256 . S
H1112 C1085 0.930 . S
H1113 C1086 0.931 . S
H1114 C1088 0.934 . S
H1115 C1089 0.930 . S
H1116 C1094 0.930 . S
H1117 C1095 0.931 . S
H1118 C1097 0.934 . S
H1119 C1098 0.930 . S
Ho1120 C1123 2.811 . S
Ho1120 O1140 2.322 . S
Ho1120 O1142 2.378 . S
Ho1120 O1143 2.524 . S
Ho1120 O1144 2.381 . S
Ho1120 O1145 2.669 . S
Ho1120 O1147 2.346 . S
Ho1120 O1151 2.305 . S
Ho1121 C1132 2.811 . S
Ho1121 O1141 2.346 . S
Ho1121 O1145 2.305 . S
Ho1121 O1146 2.322 . S
Ho1121 O1148 2.378 . S
Ho1121 O1149 2.524 . S
Ho1121 O1150 2.381 . S
Ho1121 O1151 2.669 . S
C1122 O1140 1.259 . S
C1122 O1141 1.268 . S
C1123 Ho1120 2.811 . S
C1123 C1124 1.488 . S
C1123 O1142 1.215 . S
C1123 O1143 1.289 . S
C1124 C1123 1.488 . S
C1124 C1125 1.348 . S
C1124 C1129 1.413 . S
C1125 C1124 1.348 . S
C1125 C1126 1.442 1_554 S
C1125 H1152 0.930 . S
C1126 C1125 1.442 1_556 S
C1126 C1127 1.381 . S
C1126 H1153 0.931 . S
C1127 C1126 1.381 . S
C1127 C1128 1.321 . S
C1128 C1127 1.321 . S
C1128 C1129 1.403 1_556 S
C1128 H1154 0.934 . S
C1129 C1124 1.413 . S
C1129 C1128 1.403 1_554 S
C1129 H1155 0.930 . S
C1130 O1144 1.275 . S
C1130 O1145 1.256 . S
C1131 O1146 1.259 . S
C1131 O1147 1.268 . S
C1132 Ho1121 2.811 . S
C1132 C1133 1.488 . S
C1132 O1148 1.215 . S
C1132 O1149 1.289 . S
C1133 C1132 1.488 . S
C1133 C1134 1.348 . S
C1133 C1138 1.413 . S
C1134 C1133 1.348 . S
C1134 C1135 1.442 . S
C1134 H1156 0.930 . S
C1135 C1134 1.442 . S
C1135 C1136 1.381 . S
C1135 H1157 0.931 . S
C1136 C1135 1.381 . S
C1136 C1137 1.321 . S
C1137 C1136 1.321 . S
C1137 C1138 1.403 . S
C1137 H1158 0.934 . S
C1138 C1133 1.413 . S
C1138 C1137 1.403 . S
C1138 H1159 0.930 . S
C1139 O1150 1.275 . S
C1139 O1151 1.256 . S
O1140 Ho1120 2.322 . S
O1140 C1122 1.259 . S
O1141 Ho1121 2.346 . S
O1141 C1122 1.268 . S
O1142 Ho1120 2.378 . S
O1142 C1123 1.215 . S
O1143 Ho1120 2.524 . S
O1143 C1123 1.289 . S
O1144 Ho1120 2.381 . S
O1144 C1130 1.275 . S
O1145 Ho1120 2.669 . S
O1145 Ho1121 2.305 . S
O1145 C1130 1.256 . S
O1146 Ho1121 2.322 . S
O1146 C1131 1.259 . S
O1147 Ho1120 2.346 . S
O1147 C1131 1.268 . S
O1148 Ho1121 2.378 . S
O1148 C1132 1.215 . S
O1149 Ho1121 2.524 . S
O1149 C1132 1.289 . S
O1150 Ho1121 2.381 . S
O1150 C1139 1.275 . S
O1151 Ho1120 2.305 . S
O1151 Ho1121 2.669 . S
O1151 C1139 1.256 . S
H1152 C1125 0.930 . S
H1153 C1126 0.931 . S
H1154 C1128 0.934 . S
H1155 C1129 0.930 . S
H1156 C1134 0.930 . S
H1157 C1135 0.931 . S
H1158 C1137 0.934 . S
H1159 C1138 0.930 . S
Ho1160 C1163 2.811 . S
Ho1160 O1180 2.322 . S
Ho1160 O1182 2.378 . S
Ho1160 O1183 2.524 . S
Ho1160 O1184 2.381 . S
Ho1160 O1185 2.669 . S
Ho1160 O1187 2.346 . S
Ho1160 O1191 2.305 . S
Ho1161 C1172 2.811 . S
Ho1161 O1181 2.346 . S
Ho1161 O1185 2.305 . S
Ho1161 O1186 2.322 . S
Ho1161 O1188 2.378 . S
Ho1161 O1189 2.524 . S
Ho1161 O1190 2.381 . S
Ho1161 O1191 2.669 . S
C1162 O1180 1.259 . S
C1162 O1181 1.268 . S
C1163 Ho1160 2.811 . S
C1163 C1164 1.488 . S
C1163 O1182 1.215 . S
C1163 O1183 1.289 . S
C1164 C1163 1.488 . S
C1164 C1165 1.348 . S
C1164 C1169 1.413 . S
C1165 C1164 1.348 . S
C1165 C1166 1.442 1_554 S
C1165 H1192 0.930 . S
C1166 C1165 1.442 1_556 S
C1166 C1167 1.381 . S
C1166 H1193 0.931 . S
C1167 C1166 1.381 . S
C1167 C1168 1.321 . S
C1168 C1167 1.321 . S
C1168 C1169 1.403 1_556 S
C1168 H1194 0.934 . S
C1169 C1164 1.413 . S
C1169 C1168 1.403 1_554 S
C1169 H1195 0.930 . S
C1170 O1184 1.275 . S
C1170 O1185 1.256 . S
C1171 O1186 1.259 . S
C1171 O1187 1.268 . S
C1172 Ho1161 2.811 . S
C1172 C1173 1.488 . S
C1172 O1188 1.215 . S
C1172 O1189 1.289 . S
C1173 C1172 1.488 . S
C1173 C1174 1.348 . S
C1173 C1178 1.413 . S
C1174 C1173 1.348 . S
C1174 C1175 1.442 . S
C1174 H1196 0.930 . S
C1175 C1174 1.442 . S
C1175 C1176 1.381 . S
C1175 H1197 0.931 . S
C1176 C1175 1.381 . S
C1176 C1177 1.321 . S
C1177 C1176 1.321 . S
C1177 C1178 1.403 . S
C1177 H1198 0.934 . S
C1178 C1173 1.413 . S
C1178 C1177 1.403 . S
C1178 H1199 0.930 . S
C1179 O1190 1.275 . S
C1179 O1191 1.256 . S
O1180 Ho1160 2.322 . S
O1180 C1162 1.259 . S
O1181 Ho1161 2.346 . S
O1181 C1162 1.268 . S
O1182 Ho1160 2.378 . S
O1182 C1163 1.215 . S
O1183 Ho1160 2.524 . S
O1183 C1163 1.289 . S
O1184 Ho1160 2.381 . S
O1184 C1170 1.275 . S
O1185 Ho1160 2.669 . S
O1185 Ho1161 2.305 . S
O1185 C1170 1.256 . S
O1186 Ho1161 2.322 . S
O1186 C1171 1.259 . S
O1187 Ho1160 2.346 . S
O1187 C1171 1.268 . S
O1188 Ho1161 2.378 . S
O1188 C1172 1.215 . S
O1189 Ho1161 2.524 . S
O1189 C1172 1.289 . S
O1190 Ho1161 2.381 . S
O1190 C1179 1.275 . S
O1191 Ho1160 2.305 . S
O1191 Ho1161 2.669 . S
O1191 C1179 1.256 . S
H1192 C1165 0.930 . S
H1193 C1166 0.931 . S
H1194 C1168 0.934 . S
H1195 C1169 0.930 . S
H1196 C1174 0.930 . S
H1197 C1175 0.931 . S
H1198 C1177 0.934 . S
H1199 C1178 0.930 . S
Ho1200 C1203 2.811 . S
Ho1200 O1220 2.322 . S
Ho1200 O1222 2.378 . S
Ho1200 O1223 2.524 . S
Ho1200 O1224 2.381 . S
Ho1200 O1225 2.669 . S
Ho1200 O1227 2.346 . S
Ho1200 O1231 2.305 . S
Ho1201 C1212 2.811 . S
Ho1201 O1221 2.346 . S
Ho1201 O1225 2.305 . S
Ho1201 O1226 2.322 . S
Ho1201 O1228 2.378 . S
Ho1201 O1229 2.524 . S
Ho1201 O1230 2.381 . S
Ho1201 O1231 2.669 . S
C1202 O1220 1.259 . S
C1202 O1221 1.268 . S
C1203 Ho1200 2.811 . S
C1203 C1204 1.488 . S
C1203 O1222 1.215 . S
C1203 O1223 1.289 . S
C1204 C1203 1.488 . S
C1204 C1205 1.348 . S
C1204 C1209 1.413 . S
C1205 C1204 1.348 . S
C1205 C1206 1.442 . S
C1205 H1232 0.930 . S
C1206 C1205 1.442 . S
C1206 C1207 1.381 . S
C1206 H1233 0.931 . S
C1207 C1206 1.381 . S
C1207 C1208 1.321 . S
C1208 C1207 1.321 . S
C1208 C1209 1.403 . S
C1208 H1234 0.934 . S
C1209 C1204 1.413 . S
C1209 C1208 1.403 . S
C1209 H1235 0.930 . S
C1210 O1224 1.275 . S
C1210 O1225 1.256 . S
C1211 O1226 1.259 . S
C1211 O1227 1.268 . S
C1212 Ho1201 2.811 . S
C1212 C1213 1.488 . S
C1212 O1228 1.215 . S
C1212 O1229 1.289 . S
C1213 C1212 1.488 . S
C1213 C1214 1.348 . S
C1213 C1218 1.413 . S
C1214 C1213 1.348 . S
C1214 C1215 1.442 . S
C1214 H1236 0.930 . S
C1215 C1214 1.442 . S
C1215 C1216 1.381 . S
C1215 H1237 0.931 . S
C1216 C1215 1.381 . S
C1216 C1217 1.321 . S
C1217 C1216 1.321 . S
C1217 C1218 1.403 . S
C1217 H1238 0.934 . S
C1218 C1213 1.413 . S
C1218 C1217 1.403 . S
C1218 H1239 0.930 . S
C1219 O1230 1.275 . S
C1219 O1231 1.256 . S
O1220 Ho1200 2.322 . S
O1220 C1202 1.259 . S
O1221 Ho1201 2.346 . S
O1221 C1202 1.268 . S
O1222 Ho1200 2.378 . S
O1222 C1203 1.215 . S
O1223 Ho1200 2.524 . S
O1223 C1203 1.289 . S
O1224 Ho1200 2.381 . S
O1224 C1210 1.275 . S
O1225 Ho1200 2.669 . S
O1225 Ho1201 2.305 . S
O1225 C1210 1.256 . S
O1226 Ho1201 2.322 . S
O1226 C1211 1.259 . S
O1227 Ho1200 2.346 . S
O1227 C1211 1.268 . S
O1228 Ho1201 2.378 . S
O1228 C1212 1.215 . S
O1229 Ho1201 2.524 . S
O1229 C1212 1.289 . S
O1230 Ho1201 2.381 . S
O1230 C1219 1.275 . S
O1231 Ho1200 2.305 . S
O1231 Ho1201 2.669 . S
O1231 C1219 1.256 . S
H1232 C1205 0.930 . S
H1233 C1206 0.931 . S
H1234 C1208 0.934 . S
H1235 C1209 0.930 . S
H1236 C1214 0.930 . S
H1237 C1215 0.931 . S
H1238 C1217 0.934 . S
H1239 C1218 0.930 . S
Ho1240 C1243 2.811 . S
Ho1240 O1260 2.322 . S
Ho1240 O1262 2.378 . S
Ho1240 O1263 2.524 . S
Ho1240 O1264 2.381 . S
Ho1240 O1265 2.669 . S
Ho1240 O1267 2.346 . S
Ho1240 O1271 2.305 . S
Ho1241 C1252 2.811 . S
Ho1241 O1261 2.346 . S
Ho1241 O1265 2.305 . S
Ho1241 O1266 2.322 . S
Ho1241 O1268 2.378 . S
Ho1241 O1269 2.524 . S
Ho1241 O1270 2.381 . S
Ho1241 O1271 2.669 . S
C1242 O1260 1.259 . S
C1242 O1261 1.268 . S
C1243 Ho1240 2.811 . S
C1243 C1244 1.488 . S
C1243 O1262 1.215 . S
C1243 O1263 1.289 . S
C1244 C1243 1.488 . S
C1244 C1245 1.348 . S
C1244 C1249 1.413 . S
C1245 C1244 1.348 . S
C1245 C1246 1.442 . S
C1245 H1272 0.930 . S
C1246 C1245 1.442 . S
C1246 C1247 1.381 . S
C1246 H1273 0.931 . S
C1247 C1246 1.381 . S
C1247 C1248 1.321 . S
C1248 C1247 1.321 . S
C1248 C1249 1.403 . S
C1248 H1274 0.934 . S
C1249 C1244 1.413 . S
C1249 C1248 1.403 . S
C1249 H1275 0.930 . S
C1250 O1264 1.275 . S
C1250 O1265 1.256 . S
C1251 O1266 1.259 . S
C1251 O1267 1.268 . S
C1252 Ho1241 2.811 . S
C1252 C1253 1.488 . S
C1252 O1268 1.215 . S
C1252 O1269 1.289 . S
C1253 C1252 1.488 . S
C1253 C1254 1.348 . S
C1253 C1258 1.413 . S
C1254 C1253 1.348 . S
C1254 C1255 1.442 . S
C1254 H1276 0.930 . S
C1255 C1254 1.442 . S
C1255 C1256 1.381 . S
C1255 H1277 0.931 . S
C1256 C1255 1.381 . S
C1256 C1257 1.321 . S
C1257 C1256 1.321 . S
C1257 C1258 1.403 . S
C1257 H1278 0.934 . S
C1258 C1253 1.413 . S
C1258 C1257 1.403 . S
C1258 H1279 0.930 . S
C1259 O1270 1.275 . S
C1259 O1271 1.256 . S
O1260 Ho1240 2.322 . S
O1260 C1242 1.259 . S
O1261 Ho1241 2.346 . S
O1261 C1242 1.268 . S
O1262 Ho1240 2.378 . S
O1262 C1243 1.215 . S
O1263 Ho1240 2.524 . S
O1263 C1243 1.289 . S
O1264 Ho1240 2.381 . S
O1264 C1250 1.275 . S
O1265 Ho1240 2.669 . S
O1265 Ho1241 2.305 . S
O1265 C1250 1.256 . S
O1266 Ho1241 2.322 . S
O1266 C1251 1.259 . S
O1267 Ho1240 2.346 . S
O1267 C1251 1.268 . S
O1268 Ho1241 2.378 . S
O1268 C1252 1.215 . S
O1269 Ho1241 2.524 . S
O1269 C1252 1.289 . S
O1270 Ho1241 2.381 . S
O1270 C1259 1.275 . S
O1271 Ho1240 2.305 . S
O1271 Ho1241 2.669 . S
O1271 C1259 1.256 . S
H1272 C1245 0.930 . S
H1273 C1246 0.931 . S
H1274 C1248 0.934 . S
H1275 C1249 0.930 . S
H1276 C1254 0.930 . S
H1277 C1255 0.931 . S
H1278 C1257 0.934 . S
H1279 C1258 0.930 . S
Ho1280 C1283 2.811 . S
Ho1280 O1300 2.322 . S
Ho1280 O1302 2.378 . S
Ho1280 O1303 2.524 . S
Ho1280 O1304 2.381 . S
Ho1280 O1305 2.669 . S
Ho1280 O1307 2.346 . S
Ho1280 O1311 2.305 . S
Ho1281 C1292 2.811 . S
Ho1281 O1301 2.346 . S
Ho1281 O1305 2.305 . S
Ho1281 O1306 2.322 . S
Ho1281 O1308 2.378 . S
Ho1281 O1309 2.524 . S
Ho1281 O1310 2.381 . S
Ho1281 O1311 2.669 . S
C1282 O1300 1.259 . S
C1282 O1301 1.268 . S
C1283 Ho1280 2.811 . S
C1283 C1284 1.488 . S
C1283 O1302 1.215 . S
C1283 O1303 1.289 . S
C1284 C1283 1.488 . S
C1284 C1285 1.348 . S
C1284 C1289 1.413 . S
C1285 C1284 1.348 . S
C1285 C1286 1.442 . S
C1285 H1312 0.930 . S
C1286 C1285 1.442 . S
C1286 C1287 1.381 . S
C1286 H1313 0.931 . S
C1287 C1286 1.381 . S
C1287 C1288 1.321 . S
C1288 C1287 1.321 . S
C1288 C1289 1.403 . S
C1288 H1314 0.934 . S
C1289 C1284 1.413 . S
C1289 C1288 1.403 . S
C1289 H1315 0.930 . S
C1290 O1304 1.275 . S
C1290 O1305 1.256 . S
C1291 O1306 1.259 . S
C1291 O1307 1.268 . S
C1292 Ho1281 2.811 . S
C1292 C1293 1.488 . S
C1292 O1308 1.215 . S
C1292 O1309 1.289 . S
C1293 C1292 1.488 . S
C1293 C1294 1.348 . S
C1293 C1298 1.413 . S
C1294 C1293 1.348 . S
C1294 C1295 1.442 . S
C1294 H1316 0.930 . S
C1295 C1294 1.442 . S
C1295 C1296 1.381 . S
C1295 H1317 0.931 . S
C1296 C1295 1.381 . S
C1296 C1297 1.321 . S
C1297 C1296 1.321 . S
C1297 C1298 1.403 . S
C1297 H1318 0.934 . S
C1298 C1293 1.413 . S
C1298 C1297 1.403 . S
C1298 H1319 0.930 . S
C1299 O1310 1.275 . S
C1299 O1311 1.256 . S
O1300 Ho1280 2.322 . S
O1300 C1282 1.259 . S
O1301 Ho1281 2.346 . S
O1301 C1282 1.268 . S
O1302 Ho1280 2.378 . S
O1302 C1283 1.215 . S
O1303 Ho1280 2.524 . S
O1303 C1283 1.289 . S
O1304 Ho1280 2.381 . S
O1304 C1290 1.275 . S
O1305 Ho1280 2.669 . S
O1305 Ho1281 2.305 . S
O1305 C1290 1.256 . S
O1306 Ho1281 2.322 . S
O1306 C1291 1.259 . S
O1307 Ho1280 2.346 . S
O1307 C1291 1.268 . S
O1308 Ho1281 2.378 . S
O1308 C1292 1.215 . S
O1309 Ho1281 2.524 . S
O1309 C1292 1.289 . S
O1310 Ho1281 2.381 . S
O1310 C1299 1.275 . S
O1311 Ho1280 2.305 . S
O1311 Ho1281 2.669 . S
O1311 C1299 1.256 . S
H1312 C1285 0.930 . S
H1313 C1286 0.931 . S
H1314 C1288 0.934 . S
H1315 C1289 0.930 . S
H1316 C1294 0.930 . S
H1317 C1295 0.931 . S
H1318 C1297 0.934 . S
H1319 C1298 0.930 . S
Ho1320 C1323 2.811 . S
Ho1320 O1340 2.322 . S
Ho1320 O1342 2.378 . S
Ho1320 O1343 2.524 . S
Ho1320 O1344 2.381 . S
Ho1320 O1345 2.669 . S
Ho1320 O1347 2.346 . S
Ho1320 O1351 2.305 . S
Ho1321 C1332 2.811 . S
Ho1321 O1341 2.346 . S
Ho1321 O1345 2.305 . S
Ho1321 O1346 2.322 . S
Ho1321 O1348 2.378 . S
Ho1321 O1349 2.524 . S
Ho1321 O1350 2.381 . S
Ho1321 O1351 2.669 . S
C1322 O1340 1.259 . S
C1322 O1341 1.268 . S
C1323 Ho1320 2.811 . S
C1323 C1324 1.488 . S
C1323 O1342 1.215 . S
C1323 O1343 1.289 . S
C1324 C1323 1.488 . S
C1324 C1325 1.348 . S
C1324 C1329 1.413 . S
C1325 C1324 1.348 . S
C1325 C1326 1.442 . S
C1325 H1352 0.930 . S
C1326 C1325 1.442 . S
C1326 C1327 1.381 . S
C1326 H1353 0.931 . S
C1327 C1326 1.381 . S
C1327 C1328 1.321 . S
C1328 C1327 1.321 . S
C1328 C1329 1.403 . S
C1328 H1354 0.934 . S
C1329 C1324 1.413 . S
C1329 C1328 1.403 . S
C1329 H1355 0.930 . S
C1330 O1344 1.275 . S
C1330 O1345 1.256 . S
C1331 O1346 1.259 . S
C1331 O1347 1.268 . S
C1332 Ho1321 2.811 . S
C1332 C1333 1.488 . S
C1332 O1348 1.215 . S
C1332 O1349 1.289 . S
C1333 C1332 1.488 . S
C1333 C1334 1.348 . S
C1333 C1338 1.413 . S
C1334 C1333 1.348 . S
C1334 C1335 1.442 . S
C1334 H1356 0.930 . S
C1335 C1334 1.442 . S
C1335 C1336 1.381 . S
C1335 H1357 0.931 . S
C1336 C1335 1.381 . S
C1336 C1337 1.321 . S
C1337 C1336 1.321 . S
C1337 C1338 1.403 . S
C1337 H1358 0.934 . S
C1338 C1333 1.413 . S
C1338 C1337 1.403 . S
C1338 H1359 0.930 . S
C1339 O1350 1.275 . S
C1339 O1351 1.256 . S
O1340 Ho1320 2.322 . S
O1340 C1322 1.259 . S
O1341 Ho1321 2.346 . S
O1341 C1322 1.268 . S
O1342 Ho1320 2.378 . S
O1342 C1323 1.215 . S
O1343 Ho1320 2.524 . S
O1343 C1323 1.289 . S
O1344 Ho1320 2.381 . S
O1344 C1330 1.275 . S
O1345 Ho1320 2.669 . S
O1345 Ho1321 2.305 . S
O1345 C1330 1.256 . S
O1346 Ho1321 2.322 . S
O1346 C1331 1.259 . S
O1347 Ho1320 2.346 . S
O1347 C1331 1.268 . S
O1348 Ho1321 2.378 . S
O1348 C1332 1.215 . S
O1349 Ho1321 2.524 . S
O1349 C1332 1.289 . S
O1350 Ho1321 2.381 . S
O1350 C1339 1.275 . S
O1351 Ho1320 2.305 . S
O1351 Ho1321 2.669 . S
O1351 C1339 1.256 . S
H1352 C1325 0.930 . S
H1353 C1326 0.931 . S
H1354 C1328 0.934 . S
H1355 C1329 0.930 . S
H1356 C1334 0.930 . S
H1357 C1335 0.931 . S
H1358 C1337 0.934 . S
H1359 C1338 0.930 . S
Ho1360 C1363 2.811 . S
Ho1360 O1380 2.322 . S
Ho1360 O1382 2.378 . S
Ho1360 O1383 2.524 . S
Ho1360 O1384 2.381 . S
Ho1360 O1385 2.669 . S
Ho1360 O1387 2.346 . S
Ho1360 O1391 2.305 . S
Ho1361 C1372 2.811 . S
Ho1361 O1381 2.346 . S
Ho1361 O1385 2.305 . S
Ho1361 O1386 2.322 . S
Ho1361 O1388 2.378 . S
Ho1361 O1389 2.524 . S
Ho1361 O1390 2.381 . S
Ho1361 O1391 2.669 . S
C1362 O1380 1.259 . S
C1362 O1381 1.268 . S
C1363 Ho1360 2.811 . S
C1363 C1364 1.488 . S
C1363 O1382 1.215 . S
C1363 O1383 1.289 . S
C1364 C1363 1.488 . S
C1364 C1365 1.348 . S
C1364 C1369 1.413 . S
C1365 C1364 1.348 . S
C1365 C1366 1.442 . S
C1365 H1392 0.930 . S
C1366 C1365 1.442 . S
C1366 C1367 1.381 . S
C1366 H1393 0.931 . S
C1367 C1366 1.381 . S
C1367 C1368 1.321 . S
C1368 C1367 1.321 . S
C1368 C1369 1.403 . S
C1368 H1394 0.934 . S
C1369 C1364 1.413 . S
C1369 C1368 1.403 . S
C1369 H1395 0.930 . S
C1370 O1384 1.275 . S
C1370 O1385 1.256 . S
C1371 O1386 1.259 . S
C1371 O1387 1.268 . S
C1372 Ho1361 2.811 . S
C1372 C1373 1.488 . S
C1372 O1388 1.215 . S
C1372 O1389 1.289 . S
C1373 C1372 1.488 . S
C1373 C1374 1.348 . S
C1373 C1378 1.413 . S
C1374 C1373 1.348 . S
C1374 C1375 1.442 . S
C1374 H1396 0.930 . S
C1375 C1374 1.442 . S
C1375 C1376 1.381 . S
C1375 H1397 0.931 . S
C1376 C1375 1.381 . S
C1376 C1377 1.321 . S
C1377 C1376 1.321 . S
C1377 C1378 1.403 . S
C1377 H1398 0.934 . S
C1378 C1373 1.413 . S
C1378 C1377 1.403 . S
C1378 H1399 0.930 . S
C1379 O1390 1.275 . S
C1379 O1391 1.256 . S
O1380 Ho1360 2.322 . S
O1380 C1362 1.259 . S
O1381 Ho1361 2.346 . S
O1381 C1362 1.268 . S
O1382 Ho1360 2.378 . S
O1382 C1363 1.215 . S
O1383 Ho1360 2.524 . S
O1383 C1363 1.289 . S
O1384 Ho1360 2.381 . S
O1384 C1370 1.275 . S
O1385 Ho1360 2.669 . S
O1385 Ho1361 2.305 . S
O1385 C1370 1.256 . S
O1386 Ho1361 2.322 . S
O1386 C1371 1.259 . S
O1387 Ho1360 2.346 . S
O1387 C1371 1.268 . S
O1388 Ho1361 2.378 . S
O1388 C1372 1.215 . S
O1389 Ho1361 2.524 . S
O1389 C1372 1.289 . S
O1390 Ho1361 2.381 . S
O1390 C1379 1.275 . S
O1391 Ho1360 2.305 . S
O1391 Ho1361 2.669 . S
O1391 C1379 1.256 . S
H1392 C1365 0.930 . S
H1393 C1366 0.931 . S
H1394 C1368 0.934 . S
H1395 C1369 0.930 . S
H1396 C1374 0.930 . S
H1397 C1375 0.931 . S
H1398 C1377 0.934 . S
H1399 C1378 0.930 . S
Ho1400 C1403 2.811 . S
Ho1400 O1420 2.322 . S
Ho1400 O1422 2.378 . S
Ho1400 O1423 2.524 . S
Ho1400 O1424 2.381 . S
Ho1400 O1425 2.669 . S
Ho1400 O1427 2.346 . S
Ho1400 O1431 2.305 . S
Ho1401 C1412 2.811 . S
Ho1401 O1421 2.346 . S
Ho1401 O1425 2.305 . S
Ho1401 O1426 2.322 . S
Ho1401 O1428 2.378 . S
Ho1401 O1429 2.524 . S
Ho1401 O1430 2.381 . S
Ho1401 O1431 2.669 . S
C1402 O1420 1.259 . S
C1402 O1421 1.268 . S
C1403 Ho1400 2.811 . S
C1403 C1404 1.488 . S
C1403 O1422 1.215 . S
C1403 O1423 1.289 . S
C1404 C1403 1.488 . S
C1404 C1405 1.348 . S
C1404 C1409 1.413 . S
C1405 C1404 1.348 . S
C1405 C1406 1.442 . S
C1405 H1432 0.930 . S
C1406 C1405 1.442 . S
C1406 C1407 1.381 . S
C1406 H1433 0.931 . S
C1407 C1406 1.381 . S
C1407 C1408 1.321 . S
C1408 C1407 1.321 . S
C1408 C1409 1.403 . S
C1408 H1434 0.934 . S
C1409 C1404 1.413 . S
C1409 C1408 1.403 . S
C1409 H1435 0.930 . S
C1410 O1424 1.275 . S
C1410 O1425 1.256 . S
C1411 O1426 1.259 . S
C1411 O1427 1.268 . S
C1412 Ho1401 2.811 . S
C1412 C1413 1.488 . S
C1412 O1428 1.215 . S
C1412 O1429 1.289 . S
C1413 C1412 1.488 . S
C1413 C1414 1.348 . S
C1413 C1418 1.413 . S
C1414 C1413 1.348 . S
C1414 C1415 1.442 . S
C1414 H1436 0.930 . S
C1415 C1414 1.442 . S
C1415 C1416 1.381 . S
C1415 H1437 0.931 . S
C1416 C1415 1.381 . S
C1416 C1417 1.321 . S
C1417 C1416 1.321 . S
C1417 C1418 1.403 . S
C1417 H1438 0.934 . S
C1418 C1413 1.413 . S
C1418 C1417 1.403 . S
C1418 H1439 0.930 . S
C1419 O1430 1.275 . S
C1419 O1431 1.256 . S
O1420 Ho1400 2.322 . S
O1420 C1402 1.259 . S
O1421 Ho1401 2.346 . S
O1421 C1402 1.268 . S
O1422 Ho1400 2.378 . S
O1422 C1403 1.215 . S
O1423 Ho1400 2.524 . S
O1423 C1403 1.289 . S
O1424 Ho1400 2.381 . S
O1424 C1410 1.275 . S
O1425 Ho1400 2.669 . S
O1425 Ho1401 2.305 . S
O1425 C1410 1.256 . S
O1426 Ho1401 2.322 . S
O1426 C1411 1.259 . S
O1427 Ho1400 2.346 . S
O1427 C1411 1.268 . S
O1428 Ho1401 2.378 . S
O1428 C1412 1.215 . S
O1429 Ho1401 2.524 . S
O1429 C1412 1.289 . S
O1430 Ho1401 2.381 . S
O1430 C1419 1.275 . S
O1431 Ho1400 2.305 . S
O1431 Ho1401 2.669 . S
O1431 C1419 1.256 . S
H1432 C1405 0.930 . S
H1433 C1406 0.931 . S
H1434 C1408 0.934 . S
H1435 C1409 0.930 . S
H1436 C1414 0.930 . S
H1437 C1415 0.931 . S
H1438 C1417 0.934 . S
H1439 C1418 0.930 . S
C1440 C1441 1.369 . S
C1440 C1442 1.419 1_556 S
C1440 H1444 0.930 . S
C1441 C1440 1.369 . S
C1441 C1450 1.429 . S
C1442 C1440 1.419 1_554 S
C1442 C1443 1.363 . S
C1442 H1445 0.929 . S
C1443 C1442 1.363 . S
C1443 C1449 1.428 . S
H1444 C1440 0.930 . S
H1445 C1442 0.929 . S
S1446 N1447 1.613 1_554 S
S1446 N1448 1.610 . S
N1447 S1446 1.613 1_556 S
N1447 C1450 1.350 . S
N1448 S1446 1.610 . S
N1448 C1449 1.351 . S
C1449 C1443 1.428 . S
C1449 N1448 1.351 . S
C1449 C1450 1.434 1_554 S
C1450 C1441 1.429 . S
C1450 N1447 1.350 . S
C1450 C1449 1.434 1_556 S
C1451 C1452 1.369 . S
C1451 C1453 1.419 1_556 S
C1451 H1455 0.930 . S
C1452 C1451 1.369 . S
C1452 C1461 1.429 . S
C1453 C1451 1.419 1_554 S
C1453 C1454 1.363 . S
C1453 H1456 0.929 . S
C1454 C1453 1.363 . S
C1454 C1460 1.428 . S
H1455 C1451 0.930 . S
H1456 C1453 0.929 . S
S1457 N1458 1.613 1_554 S
S1457 N1459 1.610 . S
N1458 S1457 1.613 1_556 S
N1458 C1461 1.350 . S
N1459 S1457 1.610 . S
N1459 C1460 1.351 . S
C1460 C1454 1.428 . S
C1460 N1459 1.351 . S
C1460 C1461 1.434 1_554 S
C1461 C1452 1.429 . S
C1461 N1458 1.350 . S
C1461 C1460 1.434 1_556 S
C1462 C1463 1.369 . S
C1462 C1464 1.419 1_554 S
C1462 H1466 0.930 . S
C1463 C1462 1.369 . S
C1463 C1472 1.429 . S
C1464 C1462 1.419 1_556 S
C1464 C1465 1.363 . S
C1464 H1467 0.929 . S
C1465 C1464 1.363 . S
C1465 C1471 1.428 . S
H1466 C1462 0.930 . S
H1467 C1464 0.929 . S
S1468 N1469 1.613 1_556 S
S1468 N1470 1.610 . S
N1469 S1468 1.613 1_554 S
N1469 C1472 1.350 . S
N1470 S1468 1.610 . S
N1470 C1471 1.351 . S
C1471 C1465 1.428 . S
C1471 N1470 1.351 . S
C1471 C1472 1.434 1_556 S
C1472 C1463 1.429 . S
C1472 N1469 1.350 . S
C1472 C1471 1.434 1_554 S
C1473 C1474 1.369 . S
C1473 C1475 1.419 . S
C1473 H1477 0.930 . S
C1474 C1473 1.369 . S
C1474 C1483 1.429 . S
C1475 C1473 1.419 . S
C1475 C1476 1.363 . S
C1475 H1478 0.929 . S
C1476 C1475 1.363 . S
C1476 C1482 1.428 . S
H1477 C1473 0.930 . S
H1478 C1475 0.929 . S
S1479 N1480 1.613 . S
S1479 N1481 1.610 . S
N1480 S1479 1.613 . S
N1480 C1483 1.350 . S
N1481 S1479 1.610 . S
N1481 C1482 1.351 . S
C1482 C1476 1.428 . S
C1482 N1481 1.351 . S
C1482 C1483 1.434 . S
C1483 C1474 1.429 . S
C1483 N1480 1.350 . S
C1483 C1482 1.434 . S
C1484 C1485 1.369 . S
C1484 C1486 1.419 . S
C1484 H1488 0.930 . S
C1485 C1484 1.369 . S
C1485 C1494 1.429 . S
C1486 C1484 1.419 . S
C1486 C1487 1.363 . S
C1486 H1489 0.929 . S
C1487 C1486 1.363 . S
C1487 C1493 1.428 . S
H1488 C1484 0.930 . S
H1489 C1486 0.929 . S
S1490 N1491 1.613 . S
S1490 N1492 1.610 . S
N1491 S1490 1.613 . S
N1491 C1494 1.350 . S
N1492 S1490 1.610 . S
N1492 C1493 1.351 . S
C1493 C1487 1.428 . S
C1493 N1492 1.351 . S
C1493 C1494 1.434 . S
C1494 C1485 1.429 . S
C1494 N1491 1.350 . S
C1494 C1493 1.434 . S
C1495 C1496 1.369 . S
C1495 C1497 1.419 . S
C1495 H1499 0.930 . S
C1496 C1495 1.369 . S
C1496 C1505 1.429 . S
C1497 C1495 1.419 . S
C1497 C1498 1.363 . S
C1497 H1500 0.929 . S
C1498 C1497 1.363 . S
C1498 C1504 1.428 . S
H1499 C1495 0.930 . S
H1500 C1497 0.929 . S
S1501 N1502 1.613 . S
S1501 N1503 1.610 . S
N1502 S1501 1.613 . S
N1502 C1505 1.350 . S
N1503 S1501 1.610 . S
N1503 C1504 1.351 . S
C1504 C1498 1.428 . S
C1504 N1503 1.351 . S
C1504 C1505 1.434 . S
C1505 C1496 1.429 . S
C1505 N1502 1.350 . S
C1505 C1504 1.434 . S
C1506 C1507 1.369 . S
C1506 C1508 1.419 . S
C1506 H1510 0.930 . S
C1507 C1506 1.369 . S
C1507 C1516 1.429 . S
C1508 C1506 1.419 . S
C1508 C1509 1.363 . S
C1508 H1511 0.929 . S
C1509 C1508 1.363 . S
C1509 C1515 1.428 . S
H1510 C1506 0.930 . S
H1511 C1508 0.929 . S
S1512 N1513 1.613 . S
S1512 N1514 1.610 . S
N1513 S1512 1.613 . S
N1513 C1516 1.350 . S
N1514 S1512 1.610 . S
N1514 C1515 1.351 . S
C1515 C1509 1.428 . S
C1515 N1514 1.351 . S
C1515 C1516 1.434 . S
C1516 C1507 1.429 . S
C1516 N1513 1.350 . S
C1516 C1515 1.434 . S
C1517 C1518 1.369 . S
C1517 C1519 1.419 . S
C1517 H1521 0.930 . S
C1518 C1517 1.369 . S
C1518 C1527 1.429 . S
C1519 C1517 1.419 . S
C1519 C1520 1.363 . S
C1519 H1522 0.929 . S
C1520 C1519 1.363 . S
C1520 C1526 1.428 . S
H1521 C1517 0.930 . S
H1522 C1519 0.929 . S
S1523 N1524 1.613 . S
S1523 N1525 1.610 . S
N1524 S1523 1.613 . S
N1524 C1527 1.350 . S
N1525 S1523 1.610 . S
N1525 C1526 1.351 . S
C1526 C1520 1.428 . S
C1526 N1525 1.351 . S
C1526 C1527 1.434 . S
C1527 C1518 1.429 . S
C1527 N1524 1.350 . S
C1527 C1526 1.434 . S
C1528 C1529 1.369 . S
C1528 C1530 1.419 . S
C1528 H1532 0.930 . S
C1529 C1528 1.369 . S
C1529 C1538 1.429 . S
C1530 C1528 1.419 . S
C1530 C1531 1.363 . S
C1530 H1533 0.929 . S
C1531 C1530 1.363 . S
C1531 C1537 1.428 . S
H1532 C1528 0.930 . S
H1533 C1530 0.929 . S
S1534 N1535 1.613 . S
S1534 N1536 1.610 . S
N1535 S1534 1.613 . S
N1535 C1538 1.350 . S
N1536 S1534 1.610 . S
N1536 C1537 1.351 . S
C1537 C1531 1.428 . S
C1537 N1536 1.351 . S
C1537 C1538 1.434 . S
C1538 C1529 1.429 . S
C1538 N1535 1.350 . S
C1538 C1537 1.434 . S
C1539 C1540 1.369 . S
C1539 C1541 1.419 . S
C1539 H1543 0.930 . S
C1540 C1539 1.369 . S
C1540 C1549 1.429 . S
C1541 C1539 1.419 . S
C1541 C1542 1.363 . S
C1541 H1544 0.929 . S
C1542 C1541 1.363 . S
C1542 C1548 1.428 . S
H1543 C1539 0.930 . S
H1544 C1541 0.929 . S
S1545 N1546 1.613 . S
S1545 N1547 1.610 . S
N1546 S1545 1.613 . S
N1546 C1549 1.350 . S
N1547 S1545 1.610 . S
N1547 C1548 1.351 . S
C1548 C1542 1.428 . S
C1548 N1547 1.351 . S
C1548 C1549 1.434 . S
C1549 C1540 1.429 . S
C1549 N1546 1.350 . S
C1549 C1548 1.434 . S
C1550 C1551 1.369 . S
C1550 C1552 1.419 . S
C1550 H1554 0.930 . S
C1551 C1550 1.369 . S
C1551 C1560 1.429 . S
C1552 C1550 1.419 . S
C1552 C1553 1.363 . S
C1552 H1555 0.929 . S
C1553 C1552 1.363 . S
C1553 C1559 1.428 . S
H1554 C1550 0.930 . S
H1555 C1552 0.929 . S
S1556 N1557 1.613 . S
S1556 N1558 1.610 . S
N1557 S1556 1.613 . S
N1557 C1560 1.350 . S
N1558 S1556 1.610 . S
N1558 C1559 1.351 . S
C1559 C1553 1.428 . S
C1559 N1558 1.351 . S
C1559 C1560 1.434 . S
C1560 C1551 1.429 . S
C1560 N1557 1.350 . S
C1560 C1559 1.434 . S
C1561 C1562 1.369 . S
C1561 C1563 1.419 . S
C1561 H1565 0.930 . S
C1562 C1561 1.369 . S
C1562 C1571 1.429 . S
C1563 C1561 1.419 . S
C1563 C1564 1.363 . S
C1563 H1566 0.929 . S
C1564 C1563 1.363 . S
C1564 C1570 1.428 . S
H1565 C1561 0.930 . S
H1566 C1563 0.929 . S
S1567 N1568 1.613 . S
S1567 N1569 1.610 . S
N1568 S1567 1.613 . S
N1568 C1571 1.350 . S
N1569 S1567 1.610 . S
N1569 C1570 1.351 . S
C1570 C1564 1.428 . S
C1570 N1569 1.351 . S
C1570 C1571 1.434 . S
C1571 C1562 1.429 . S
C1571 N1568 1.350 . S
C1571 C1570 1.434 . S
C1572 C1573 1.369 . S
C1572 C1574 1.419 . S
C1572 H1576 0.930 . S
C1573 C1572 1.369 . S
C1573 C1582 1.429 . S
C1574 C1572 1.419 . S
C1574 C1575 1.363 . S
C1574 H1577 0.929 . S
C1575 C1574 1.363 . S
C1575 C1581 1.428 . S
H1576 C1572 0.930 . S
H1577 C1574 0.929 . S
S1578 N1579 1.613 . S
S1578 N1580 1.610 . S
N1579 S1578 1.613 . S
N1579 C1582 1.350 . S
N1580 S1578 1.610 . S
N1580 C1581 1.351 . S
C1581 C1575 1.428 . S
C1581 N1580 1.351 . S
C1581 C1582 1.434 . S
C1582 C1573 1.429 . S
C1582 N1579 1.350 . S
C1582 C1581 1.434 . S
C1583 C1584 1.369 1_545 S
C1583 C1585 1.419 . S
C1583 H1587 0.930 . S
C1584 C1583 1.369 1_565 S
C1584 C1593 1.429 . S
C1585 C1583 1.419 . S
C1585 C1586 1.363 . S
C1585 H1588 0.929 . S
C1586 C1585 1.363 . S
C1586 C1592 1.428 1_545 S
H1587 C1583 0.930 . S
H1588 C1585 0.929 . S
S1589 N1590 1.613 . S
S1589 N1591 1.610 . S
N1590 S1589 1.613 . S
N1590 C1593 1.350 . S
N1591 S1589 1.610 . S
N1591 C1592 1.351 . S
C1592 C1586 1.428 1_565 S
C1592 N1591 1.351 . S
C1592 C1593 1.434 . S
C1593 C1584 1.429 . S
C1593 N1590 1.350 . S
C1593 C1592 1.434 . S
C1594 C1595 1.369 1_455 S
C1594 C1596 1.419 . S
C1594 H1598 0.930 . S
C1595 C1594 1.369 1_655 S
C1595 C1604 1.429 . S
C1596 C1594 1.419 . S
C1596 C1597 1.363 . S
C1596 H1599 0.929 . S
C1597 C1596 1.363 . S
C1597 C1603 1.428 1_455 S
H1598 C1594 0.930 . S
H1599 C1596 0.929 . S
S1600 N1601 1.613 . S
S1600 N1602 1.610 . S
N1601 S1600 1.613 . S
N1601 C1604 1.350 . S
N1602 S1600 1.610 . S
N1602 C1603 1.351 . S
C1603 C1597 1.428 1_655 S
C1603 N1602 1.351 . S
C1603 C1604 1.434 . S
C1604 C1595 1.429 . S
C1604 N1601 1.350 . S
C1604 C1603 1.434 . S
C1605 C1606 1.369 . S
C1605 C1607 1.419 . S
C1605 H1609 0.930 . S
C1606 C1605 1.369 . S
C1606 C1615 1.429 . S
C1607 C1605 1.419 . S
C1607 C1608 1.363 . S
C1607 H1610 0.929 . S
C1608 C1607 1.363 . S
C1608 C1614 1.428 . S
H1609 C1605 0.930 . S
H1610 C1607 0.929 . S
S1611 N1612 1.613 . S
S1611 N1613 1.610 . S
N1612 S1611 1.613 . S
N1612 C1615 1.350 . S
N1613 S1611 1.610 . S
N1613 C1614 1.351 . S
C1614 C1608 1.428 . S
C1614 N1613 1.351 . S
C1614 C1615 1.434 . S
C1615 C1606 1.429 . S
C1615 N1612 1.350 . S
C1615 C1614 1.434 . S
C1616 C1617 1.369 . S
C1616 C1618 1.419 . S
C1616 H1620 0.930 . S
C1617 C1616 1.369 . S
C1617 C1626 1.429 1_545 S
C1618 C1616 1.419 . S
C1618 C1619 1.363 1_545 S
C1618 H1621 0.929 . S
C1619 C1618 1.363 1_565 S
C1619 C1625 1.428 . S
H1620 C1616 0.930 . S
H1621 C1618 0.929 . S
S1622 N1623 1.613 . S
S1622 N1624 1.610 . S
N1623 S1622 1.613 . S
N1623 C1626 1.350 . S
N1624 S1622 1.610 . S
N1624 C1625 1.351 . S
C1625 C1619 1.428 . S
C1625 N1624 1.351 . S
C1625 C1626 1.434 . S
C1626 C1617 1.429 1_565 S
C1626 N1623 1.350 . S
C1626 C1625 1.434 . S
C1627 C1628 1.369 1_655 S
C1627 C1629 1.419 . S
C1627 H1631 0.930 . S
C1628 C1627 1.369 1_455 S
C1628 C1637 1.429 . S
C1629 C1627 1.419 . S
C1629 C1630 1.363 . S
C1629 H1632 0.929 . S
C1630 C1629 1.363 . S
C1630 C1636 1.428 1_655 S
H1631 C1627 0.930 . S
H1632 C1629 0.929 . S
S1633 N1634 1.613 . S
S1633 N1635 1.610 . S
N1634 S1633 1.613 . S
N1634 C1637 1.350 . S
N1635 S1633 1.610 . S
N1635 C1636 1.351 . S
C1636 C1630 1.428 1_455 S
C1636 N1635 1.351 . S
C1636 C1637 1.434 . S
C1637 C1628 1.429 . S
C1637 N1634 1.350 . S
C1637 C1636 1.434 . S
C1638 C1639 1.369 1_655 S
C1638 C1640 1.419 . S
C1638 H1642 0.930 . S
C1639 C1638 1.369 1_455 S
C1639 C1648 1.429 . S
C1640 C1638 1.419 . S
C1640 C1641 1.363 . S
C1640 H1643 0.929 . S
C1641 C1640 1.363 . S
C1641 C1647 1.428 1_655 S
H1642 C1638 0.930 . S
H1643 C1640 0.929 . S
S1644 N1645 1.613 . S
S1644 N1646 1.610 . S
N1645 S1644 1.613 . S
N1645 C1648 1.350 . S
N1646 S1644 1.610 . S
N1646 C1647 1.351 . S
C1647 C1641 1.428 1_455 S
C1647 N1646 1.351 . S
C1647 C1648 1.434 . S
C1648 C1639 1.429 . S
C1648 N1645 1.350 . S
C1648 C1647 1.434 . S
C1649 C1650 1.369 . S
C1649 C1651 1.419 . S
C1649 H1653 0.930 . S
C1650 C1649 1.369 . S
C1650 C1659 1.429 . S
C1651 C1649 1.419 . S
C1651 C1652 1.363 . S
C1651 H1654 0.929 . S
C1652 C1651 1.363 . S
C1652 C1658 1.428 . S
H1653 C1649 0.930 . S
H1654 C1651 0.929 . S
S1655 N1656 1.613 . S
S1655 N1657 1.610 . S
N1656 S1655 1.613 . S
N1656 C1659 1.350 . S
N1657 S1655 1.610 . S
N1657 C1658 1.351 . S
C1658 C1652 1.428 . S
C1658 N1657 1.351 . S
C1658 C1659 1.434 . S
C1659 C1650 1.429 . S
C1659 N1656 1.350 . S
C1659 C1658 1.434 . S
C1660 C1661 1.369 . S
C1660 C1662 1.419 1_565 S
C1660 H1664 0.930 . S
C1661 C1660 1.369 . S
C1661 C1670 1.429 . S
C1662 C1660 1.419 1_545 S
C1662 C1663 1.363 . S
C1662 H1665 0.929 . S
C1663 C1662 1.363 . S
C1663 C1669 1.428 . S
H1664 C1660 0.930 . S
H1665 C1662 0.929 . S
S1666 N1667 1.613 . S
S1666 N1668 1.568 1_565 S
N1667 S1666 1.613 . S
N1667 C1670 1.350 . S
N1668 S1666 1.568 1_545 S
N1668 C1669 1.373 . S
C1669 C1663 1.428 . S
C1669 N1668 1.373 . S
C1669 C1670 1.434 1_545 S
C1670 C1661 1.429 . S
C1670 N1667 1.350 . S
C1670 C1669 1.434 1_565 S
C1671 C1672 1.369 . S
C1671 C1673 1.419 1_655 S
C1671 H1675 0.930 . S
C1672 C1671 1.369 . S
C1672 C1681 1.429 . S
C1673 C1671 1.419 1_455 S
C1673 C1674 1.363 . S
C1673 H1676 0.929 . S
C1674 C1673 1.363 . S
C1674 C1680 1.428 . S
H1675 C1671 0.930 . S
H1676 C1673 0.929 . S
S1677 N1678 1.600 1_455 S
S1677 N1679 1.610 . S
N1678 S1677 1.600 1_655 S
N1678 C1681 1.334 . S
N1679 S1677 1.610 . S
N1679 C1680 1.351 . S
C1680 C1674 1.428 . S
C1680 N1679 1.351 . S
C1680 C1681 1.434 1_455 S
C1681 C1672 1.429 . S
C1681 N1678 1.334 . S
C1681 C1680 1.434 1_655 S
C1682 C1683 1.369 . S
C1682 C1684 1.419 . S
C1682 H1686 0.930 . S
C1683 C1682 1.369 . S
C1683 C1692 1.429 . S
C1684 C1682 1.419 . S
C1684 C1685 1.363 . S
C1684 H1687 0.929 . S
C1685 C1684 1.363 . S
C1685 C1691 1.428 . S
H1686 C1682 0.930 . S
H1687 C1684 0.929 . S
S1688 N1689 1.613 . S
S1688 N1690 1.610 . S
N1689 S1688 1.613 . S
N1689 C1692 1.350 . S
N1690 S1688 1.610 . S
N1690 C1691 1.351 . S
C1691 C1685 1.428 . S
C1691 N1690 1.351 . S
C1691 C1692 1.434 . S
C1692 C1683 1.429 . S
C1692 N1689 1.350 . S
C1692 C1691 1.434 . S
C1693 C1694 1.369 . S
C1693 C1695 1.419 1_545 S
C1693 H1697 0.930 . S
C1694 C1693 1.369 . S
C1694 C1703 1.429 . S
C1695 C1693 1.419 1_565 S
C1695 C1696 1.363 . S
C1695 H1698 0.929 . S
C1696 C1695 1.363 . S
C1696 C1702 1.428 . S
H1697 C1693 0.930 . S
H1698 C1695 0.929 . S
S1699 N1700 1.613 1_565 S
S1699 N1701 1.610 . S
N1700 S1699 1.613 1_545 S
N1700 C1703 1.350 . S
N1701 S1699 1.610 . S
N1701 C1702 1.351 . S
C1702 C1696 1.428 . S
C1702 N1701 1.351 . S
C1702 C1703 1.434 1_565 S
C1703 C1694 1.429 . S
C1703 N1700 1.350 . S
C1703 C1702 1.434 1_545 S
C1704 C1705 1.369 . S
C1704 C1706 1.419 . S
C1704 H1708 0.930 . S
C1705 C1704 1.369 . S
C1705 C1714 1.429 . S
C1706 C1704 1.419 . S
C1706 C1707 1.363 . S
C1706 H1709 0.929 . S
C1707 C1706 1.363 . S
C1707 C1713 1.428 . S
H1708 C1704 0.930 . S
H1709 C1706 0.929 . S
S1710 N1711 1.613 . S
S1710 N1712 1.610 . S
N1711 S1710 1.613 . S
N1711 C1714 1.350 . S
N1712 S1710 1.610 . S
N1712 C1713 1.351 . S
C1713 C1707 1.428 . S
C1713 N1712 1.351 . S
C1713 C1714 1.434 . S
C1714 C1705 1.429 . S
C1714 N1711 1.350 . S
C1714 C1713 1.434 . S
C1715 C1716 1.369 . S
C1715 C1717 1.419 . S
C1715 H1719 0.930 . S
C1716 C1715 1.369 . S
C1716 C1725 1.429 . S
C1717 C1715 1.419 . S
C1717 C1718 1.363 . S
C1717 H1720 0.929 . S
C1718 C1717 1.363 . S
C1718 C1724 1.428 . S
H1719 C1715 0.930 . S
H1720 C1717 0.929 . S
S1721 N1722 1.613 . S
S1721 N1723 1.610 . S
N1722 S1721 1.613 . S
N1722 C1725 1.350 . S
N1723 S1721 1.610 . S
N1723 C1724 1.351 . S
C1724 C1718 1.428 . S
C1724 N1723 1.351 . S
C1724 C1725 1.434 . S
C1725 C1716 1.429 . S
C1725 N1722 1.350 . S
C1725 C1724 1.434 . S
C1726 C1727 1.369 . S
C1726 C1728 1.419 . S
C1726 H1730 0.930 . S
C1727 C1726 1.369 . S
C1727 C1736 1.429 . S
C1728 C1726 1.419 . S
C1728 C1729 1.363 . S
C1728 H1731 0.929 . S
C1729 C1728 1.363 . S
C1729 C1735 1.428 . S
H1730 C1726 0.930 . S
H1731 C1728 0.929 . S
S1732 N1733 1.613 . S
S1732 N1734 1.610 . S
N1733 S1732 1.613 . S
N1733 C1736 1.350 . S
N1734 S1732 1.610 . S
N1734 C1735 1.351 . S
C1735 C1729 1.428 . S
C1735 N1734 1.351 . S
C1735 C1736 1.434 . S
C1736 C1727 1.429 . S
C1736 N1733 1.350 . S
C1736 C1735 1.434 . S
C1737 C1738 1.369 . S
C1737 C1739 1.419 . S
C1737 H1741 0.930 . S
C1738 C1737 1.369 . S
C1738 C1747 1.429 . S
C1739 C1737 1.419 . S
C1739 C1740 1.363 . S
C1739 H1742 0.929 . S
C1740 C1739 1.363 . S
C1740 C1746 1.428 . S
H1741 C1737 0.930 . S
H1742 C1739 0.929 . S
S1743 N1744 1.613 . S
S1743 N1745 1.610 . S
N1744 S1743 1.613 . S
N1744 C1747 1.350 . S
N1745 S1743 1.610 . S
N1745 C1746 1.351 . S
C1746 C1740 1.428 . S
C1746 N1745 1.351 . S
C1746 C1747 1.434 . S
C1747 C1738 1.429 . S
C1747 N1744 1.350 . S
C1747 C1746 1.434 . S
C1748 C1749 1.369 . S
C1748 C1750 1.419 . S
C1748 H1752 0.930 . S
C1749 C1748 1.369 . S
C1749 C1758 1.429 . S
C1750 C1748 1.419 . S
C1750 C1751 1.363 . S
C1750 H1753 0.929 . S
C1751 C1750 1.363 . S
C1751 C1757 1.428 . S
H1752 C1748 0.930 . S
H1753 C1750 0.929 . S
S1754 N1755 1.613 . S
S1754 N1756 1.610 . S
N1755 S1754 1.613 . S
N1755 C1758 1.350 . S
N1756 S1754 1.610 . S
N1756 C1757 1.351 . S
C1757 C1751 1.428 . S
C1757 N1756 1.351 . S
C1757 C1758 1.434 . S
C1758 C1749 1.429 . S
C1758 N1755 1.350 . S
C1758 C1757 1.434 . S
C1759 C1760 1.369 . S
C1759 C1761 1.419 . S
C1759 H1763 0.930 . S
C1760 C1759 1.369 . S
C1760 C1769 1.429 . S
C1761 C1759 1.419 . S
C1761 C1762 1.363 . S
C1761 H1764 0.929 . S
C1762 C1761 1.363 . S
C1762 C1768 1.428 . S
H1763 C1759 0.930 . S
H1764 C1761 0.929 . S
S1765 N1766 1.613 . S
S1765 N1767 1.610 . S
N1766 S1765 1.613 . S
N1766 C1769 1.350 . S
N1767 S1765 1.610 . S
N1767 C1768 1.351 . S
C1768 C1762 1.428 . S
C1768 N1767 1.351 . S
C1768 C1769 1.434 . S
C1769 C1760 1.429 . S
C1769 N1766 1.350 . S
C1769 C1768 1.434 . S
C1770 C1771 1.369 . S
C1770 C1772 1.419 . S
C1770 H1774 0.930 . S
C1771 C1770 1.369 . S
C1771 C1780 1.429 . S
C1772 C1770 1.419 . S
C1772 C1773 1.363 . S
C1772 H1775 0.929 . S
C1773 C1772 1.363 . S
C1773 C1779 1.428 . S
H1774 C1770 0.930 . S
H1775 C1772 0.929 . S
S1776 N1777 1.613 . S
S1776 N1778 1.610 . S
N1777 S1776 1.613 . S
N1777 C1780 1.350 . S
N1778 S1776 1.610 . S
N1778 C1779 1.351 . S
C1779 C1773 1.428 . S
C1779 N1778 1.351 . S
C1779 C1780 1.434 . S
C1780 C1771 1.429 . S
C1780 N1777 1.350 . S
C1780 C1779 1.434 . S
C1781 C1782 1.369 . S
C1781 C1783 1.419 . S
C1781 H1785 0.930 . S
C1782 C1781 1.369 . S
C1782 C1791 1.429 . S
C1783 C1781 1.419 . S
C1783 C1784 1.363 . S
C1783 H1786 0.929 . S
C1784 C1783 1.363 . S
C1784 C1790 1.428 . S
H1785 C1781 0.930 . S
H1786 C1783 0.929 . S
S1787 N1788 1.613 . S
S1787 N1789 1.610 . S
N1788 S1787 1.613 . S
N1788 C1791 1.350 . S
N1789 S1787 1.610 . S
N1789 C1790 1.351 . S
C1790 C1784 1.428 . S
C1790 N1789 1.351 . S
C1790 C1791 1.434 . S
C1791 C1782 1.429 . S
C1791 N1788 1.350 . S
C1791 C1790 1.434 . S
C1792 C1793 1.369 . S
C1792 C1794 1.419 . S
C1792 H1796 0.930 . S
C1793 C1792 1.369 . S
C1793 C1802 1.429 . S
C1794 C1792 1.419 . S
C1794 C1795 1.363 . S
C1794 H1797 0.929 . S
C1795 C1794 1.363 . S
C1795 C1801 1.428 . S
H1796 C1792 0.930 . S
H1797 C1794 0.929 . S
S1798 N1799 1.613 . S
S1798 N1800 1.610 . S
N1799 S1798 1.613 . S
N1799 C1802 1.350 . S
N1800 S1798 1.610 . S
N1800 C1801 1.351 . S
C1801 C1795 1.428 . S
C1801 N1800 1.351 . S
C1801 C1802 1.434 . S
C1802 C1793 1.429 . S
C1802 N1799 1.350 . S
C1802 C1801 1.434 . S
C1803 C1804 1.369 . S
C1803 C1805 1.419 1_556 S
C1803 H1807 0.930 . S
C1804 C1803 1.369 . S
C1804 C1813 1.429 . S
C1805 C1803 1.419 1_554 S
C1805 C1806 1.363 . S
C1805 H1808 0.929 . S
C1806 C1805 1.363 . S
C1806 C1812 1.428 . S
H1807 C1803 0.930 . S
H1808 C1805 0.929 . S
S1809 N1810 1.613 1_554 S
S1809 N1811 1.610 . S
N1810 S1809 1.613 1_556 S
N1810 C1813 1.350 . S
N1811 S1809 1.610 . S
N1811 C1812 1.351 . S
C1812 C1806 1.428 . S
C1812 N1811 1.351 . S
C1812 C1813 1.434 1_554 S
C1813 C1804 1.429 . S
C1813 N1810 1.350 . S
C1813 C1812 1.434 1_556 S
C1814 C1815 1.369 . S
C1814 C1816 1.419 1_556 S
C1814 H1818 0.930 . S
C1815 C1814 1.369 . S
C1815 C1824 1.429 . S
C1816 C1814 1.419 1_554 S
C1816 C1817 1.363 . S
C1816 H1819 0.929 . S
C1817 C1816 1.363 . S
C1817 C1823 1.428 . S
H1818 C1814 0.930 . S
H1819 C1816 0.929 . S
S1820 N1821 1.613 . S
S1820 N1822 1.610 1_556 S
N1821 S1820 1.613 . S
N1821 C1824 1.350 . S
N1822 S1820 1.610 1_554 S
N1822 C1823 1.351 . S
C1823 C1817 1.428 . S
C1823 N1822 1.351 . S
C1823 C1824 1.434 1_554 S
C1824 C1815 1.429 . S
C1824 N1821 1.350 . S
C1824 C1823 1.434 1_556 S
C1825 C1826 1.369 . S
C1825 C1827 1.419 1_556 S
C1825 H1829 0.930 . S
C1826 C1825 1.369 . S
C1826 C1835 1.429 . S
C1827 C1825 1.419 1_554 S
C1827 C1828 1.363 . S
C1827 H1830 0.929 . S
C1828 C1827 1.363 . S
C1828 C1834 1.428 . S
H1829 C1825 0.930 . S
H1830 C1827 0.929 . S
S1831 N1832 1.613 . S
S1831 N1833 1.610 1_556 S
N1832 S1831 1.613 . S
N1832 C1835 1.350 . S
N1833 S1831 1.610 1_554 S
N1833 C1834 1.351 . S
C1834 C1828 1.428 . S
C1834 N1833 1.351 . S
C1834 C1835 1.434 1_554 S
C1835 C1826 1.429 . S
C1835 N1832 1.350 . S
C1835 C1834 1.434 1_556 S
C1836 C1837 1.369 . S
C1836 C1838 1.419 . S
C1836 H1840 0.930 . S
C1837 C1836 1.369 . S
C1837 C1846 1.429 . S
C1838 C1836 1.419 . S
C1838 C1839 1.363 . S
C1838 H1841 0.929 1_556 S
C1839 C1838 1.363 . S
C1839 C1845 1.428 . S
H1840 C1836 0.930 . S
H1841 C1838 0.929 1_554 S
S1842 N1843 1.613 . S
S1842 N1844 1.610 . S
N1843 S1842 1.613 . S
N1843 C1846 1.350 . S
N1844 S1842 1.610 . S
N1844 C1845 1.351 . S
C1845 C1839 1.428 . S
C1845 N1844 1.351 . S
C1845 C1846 1.434 . S
C1846 C1837 1.429 . S
C1846 N1843 1.350 . S
C1846 C1845 1.434 . S
C1847 C1848 1.369 . S
C1847 C1849 1.419 . S
C1847 H1851 0.930 . S
C1848 C1847 1.369 . S
C1848 C1857 1.429 1_556 S
C1849 C1847 1.419 . S
C1849 C1850 1.363 . S
C1849 H1852 0.929 . S
C1850 C1849 1.363 . S
C1850 C1856 1.428 . S
H1851 C1847 0.930 . S
H1852 C1849 0.929 . S
S1853 N1854 1.613 . S
S1853 N1855 1.610 1_554 S
N1854 S1853 1.613 . S
N1854 C1857 1.350 . S
N1855 S1853 1.610 1_556 S
N1855 C1856 1.351 . S
C1856 C1850 1.428 . S
C1856 N1855 1.351 . S
C1856 C1857 1.434 1_556 S
C1857 C1848 1.429 1_554 S
C1857 N1854 1.350 . S
C1857 C1856 1.434 1_554 S
C1858 C1859 1.369 . S
C1858 C1860 1.419 . S
C1858 H1862 0.930 1_556 S
C1859 C1858 1.369 . S
C1859 C1868 1.429 . S
C1860 C1858 1.419 . S
C1860 C1861 1.363 . S
C1860 H1863 0.929 . S
C1861 C1860 1.363 . S
C1861 C1867 1.428 . S
H1862 C1858 0.930 1_554 S
H1863 C1860 0.929 . S
S1864 N1865 1.613 . S
S1864 N1866 1.610 . S
N1865 S1864 1.613 . S
N1865 C1868 1.350 . S
N1866 S1864 1.610 . S
N1866 C1867 1.351 . S
C1867 C1861 1.428 . S
C1867 N1866 1.351 . S
C1867 C1868 1.434 . S
C1868 C1859 1.429 . S
C1868 N1865 1.350 . S
C1868 C1867 1.434 . S
C1869 C1870 1.369 . S
C1869 C1871 1.419 . S
C1869 H1873 0.930 . S
C1870 C1869 1.369 . S
C1870 C1879 1.429 . S
C1871 C1869 1.419 . S
C1871 C1872 1.363 . S
C1871 H1874 0.929 . S
C1872 C1871 1.363 . S
C1872 C1878 1.428 . S
H1873 C1869 0.930 . S
H1874 C1871 0.929 . S
S1875 N1876 1.613 . S
S1875 N1877 1.610 . S
N1876 S1875 1.613 . S
N1876 C1879 1.350 . S
N1877 S1875 1.610 . S
N1877 C1878 1.351 . S
C1878 C1872 1.428 . S
C1878 N1877 1.351 . S
C1878 C1879 1.434 . S
C1879 C1870 1.429 . S
C1879 N1876 1.350 . S
C1879 C1878 1.434 . S
C1880 C1881 1.369 . S
C1880 C1882 1.419 . S
C1880 H1884 0.930 . S
C1881 C1880 1.369 . S
C1881 C1890 1.429 . S
C1882 C1880 1.419 . S
C1882 C1883 1.363 . S
C1882 H1885 0.929 . S
C1883 C1882 1.363 . S
C1883 C1889 1.428 . S
H1884 C1880 0.930 . S
H1885 C1882 0.929 . S
S1886 N1887 1.613 . S
S1886 N1888 1.610 . S
N1887 S1886 1.613 . S
N1887 C1890 1.350 . S
N1888 S1886 1.610 . S
N1888 C1889 1.351 . S
C1889 C1883 1.428 . S
C1889 N1888 1.351 . S
C1889 C1890 1.434 . S
C1890 C1881 1.429 . S
C1890 N1887 1.350 . S
C1890 C1889 1.434 . S
C1891 C1892 1.369 . S
C1891 C1893 1.419 . S
C1891 H1895 0.930 . S
C1892 C1891 1.369 . S
C1892 C1901 1.429 . S
C1893 C1891 1.419 . S
C1893 C1894 1.363 . S
C1893 H1896 0.929 . S
C1894 C1893 1.363 . S
C1894 C1900 1.428 . S
H1895 C1891 0.930 . S
H1896 C1893 0.929 . S
S1897 N1898 1.613 . S
S1897 N1899 1.610 . S
N1898 S1897 1.613 . S
N1898 C1901 1.350 . S
N1899 S1897 1.610 . S
N1899 C1900 1.351 . S
C1900 C1894 1.428 . S
C1900 N1899 1.351 . S
C1900 C1901 1.434 . S
C1901 C1892 1.429 . S
C1901 N1898 1.350 . S
C1901 C1900 1.434 . S
C1902 C1903 1.369 . S
C1902 C1904 1.419 . S
C1902 H1906 0.930 . S
C1903 C1902 1.369 . S
C1903 C1912 1.429 . S
C1904 C1902 1.419 . S
C1904 C1905 1.363 . S
C1904 H1907 0.929 . S
C1905 C1904 1.363 . S
C1905 C1911 1.428 . S
H1906 C1902 0.930 . S
H1907 C1904 0.929 . S
S1908 N1909 1.613 . S
S1908 N1910 1.610 . S
N1909 S1908 1.613 . S
N1909 C1912 1.350 . S
N1910 S1908 1.610 . S
N1910 C1911 1.351 . S
C1911 C1905 1.428 . S
C1911 N1910 1.351 . S
C1911 C1912 1.434 . S
C1912 C1903 1.429 . S
C1912 N1909 1.350 . S
C1912 C1911 1.434 . S
C1913 C1914 1.369 . S
C1913 C1915 1.419 . S
C1913 H1917 0.930 . S
C1914 C1913 1.369 . S
C1914 C1923 1.429 . S
C1915 C1913 1.419 . S
C1915 C1916 1.363 . S
C1915 H1918 0.929 . S
C1916 C1915 1.363 . S
C1916 C1922 1.428 . S
H1917 C1913 0.930 . S
H1918 C1915 0.929 . S
S1919 N1920 1.613 . S
S1919 N1921 1.610 . S
N1920 S1919 1.613 . S
N1920 C1923 1.350 . S
N1921 S1919 1.610 . S
N1921 C1922 1.351 . S
C1922 C1916 1.428 . S
C1922 N1921 1.351 . S
C1922 C1923 1.434 . S
C1923 C1914 1.429 . S
C1923 N1920 1.350 . S
C1923 C1922 1.434 . S
C1924 C1925 1.369 . S
C1924 C1926 1.419 . S
C1924 H1928 0.930 . S
C1925 C1924 1.369 . S
C1925 C1934 1.429 . S
C1926 C1924 1.419 . S
C1926 C1927 1.363 . S
C1926 H1929 0.929 . S
C1927 C1926 1.363 . S
C1927 C1933 1.428 . S
H1928 C1924 0.930 . S
H1929 C1926 0.929 . S
S1930 N1931 1.613 . S
S1930 N1932 1.610 . S
N1931 S1930 1.613 . S
N1931 C1934 1.350 . S
N1932 S1930 1.610 . S
N1932 C1933 1.351 . S
C1933 C1927 1.428 . S
C1933 N1932 1.351 . S
C1933 C1934 1.434 . S
C1934 C1925 1.429 . S
C1934 N1931 1.350 . S
C1934 C1933 1.434 . S
C1935 C1936 1.369 . S
C1935 C1937 1.419 . S
C1935 H1939 0.930 . S
C1936 C1935 1.369 . S
C1936 C1945 1.429 . S
C1937 C1935 1.419 . S
C1937 C1938 1.363 . S
C1937 H1940 0.929 . S
C1938 C1937 1.363 . S
C1938 C1944 1.428 . S
H1939 C1935 0.930 . S
H1940 C1937 0.929 . S
S1941 N1942 1.613 . S
S1941 N1943 1.610 . S
N1942 S1941 1.613 . S
N1942 C1945 1.350 . S
N1943 S1941 1.610 . S
N1943 C1944 1.351 . S
C1944 C1938 1.428 . S
C1944 N1943 1.351 . S
C1944 C1945 1.434 . S
C1945 C1936 1.429 . S
C1945 N1942 1.350 . S
C1945 C1944 1.434 . S
C1946 C1947 1.369 . S
C1946 C1948 1.419 . S
C1946 H1950 0.930 . S
C1947 C1946 1.369 . S
C1947 C1956 1.429 . S
C1948 C1946 1.419 . S
C1948 C1949 1.363 . S
C1948 H1951 0.929 . S
C1949 C1948 1.363 . S
C1949 C1955 1.428 . S
H1950 C1946 0.930 . S
H1951 C1948 0.929 . S
S1952 N1953 1.613 . S
S1952 N1954 1.610 . S
N1953 S1952 1.613 . S
N1953 C1956 1.350 . S
N1954 S1952 1.610 . S
N1954 C1955 1.351 . S
C1955 C1949 1.428 . S
C1955 N1954 1.351 . S
C1955 C1956 1.434 . S
C1956 C1947 1.429 . S
C1956 N1953 1.350 . S
C1956 C1955 1.434 . S
C1957 C1958 1.369 . S
C1957 C1959 1.419 . S
C1957 H1961 0.930 . S
C1958 C1957 1.369 . S
C1958 C1967 1.429 . S
C1959 C1957 1.419 . S
C1959 C1960 1.363 . S
C1959 H1962 0.929 . S
C1960 C1959 1.363 . S
C1960 C1966 1.428 . S
H1961 C1957 0.930 . S
H1962 C1959 0.929 . S
S1963 N1964 1.613 . S
S1963 N1965 1.610 . S
N1964 S1963 1.613 . S
N1964 C1967 1.350 . S
N1965 S1963 1.610 . S
N1965 C1966 1.351 . S
C1966 C1960 1.428 . S
C1966 N1965 1.351 . S
C1966 C1967 1.434 . S
C1967 C1958 1.429 . S
C1967 N1964 1.350 . S
C1967 C1966 1.434 . S
C1968 C1969 1.369 . S
C1968 C1970 1.419 . S
C1968 H1972 0.930 . S
C1969 C1968 1.369 . S
C1969 C1978 1.429 . S
C1970 C1968 1.419 . S
C1970 C1971 1.363 . S
C1970 H1973 0.929 . S
C1971 C1970 1.363 . S
C1971 C1977 1.428 . S
H1972 C1968 0.930 . S
H1973 C1970 0.929 . S
S1974 N1975 1.613 . S
S1974 N1976 1.610 . S
N1975 S1974 1.613 . S
N1975 C1978 1.350 . S
N1976 S1974 1.610 . S
N1976 C1977 1.351 . S
C1977 C1971 1.428 . S
C1977 N1976 1.351 . S
C1977 C1978 1.434 . S
C1978 C1969 1.429 . S
C1978 N1975 1.350 . S
C1978 C1977 1.434 . S
C1979 C1980 1.369 . S
C1979 C1981 1.419 . S
C1979 H1983 0.930 . S
C1980 C1979 1.369 . S
C1980 C1989 1.429 . S
C1981 C1979 1.419 . S
C1981 C1982 1.363 . S
C1981 H1984 0.929 . S
C1982 C1981 1.363 . S
C1982 C1988 1.428 . S
H1983 C1979 0.930 . S
H1984 C1981 0.929 . S
S1985 N1986 1.613 . S
S1985 N1987 1.610 . S
N1986 S1985 1.613 . S
N1986 C1989 1.350 . S
N1987 S1985 1.610 . S
N1987 C1988 1.351 . S
C1988 C1982 1.428 . S
C1988 N1987 1.351 . S
C1988 C1989 1.434 . S
C1989 C1980 1.429 . S
C1989 N1986 1.350 . S
C1989 C1988 1.434 . S
C1990 C1991 1.369 . S
C1990 C1992 1.419 . S
C1990 H1994 0.930 . S
C1991 C1990 1.369 . S
C1991 C2000 1.429 . S
C1992 C1990 1.419 . S
C1992 C1993 1.363 . S
C1992 H1995 0.929 . S
C1993 C1992 1.363 . S
C1993 C1999 1.428 . S
H1994 C1990 0.930 . S
H1995 C1992 0.929 . S
S1996 N1997 1.613 . S
S1996 N1998 1.610 . S
N1997 S1996 1.613 . S
N1997 C2000 1.350 . S
N1998 S1996 1.610 . S
N1998 C1999 1.351 . S
C1999 C1993 1.428 . S
C1999 N1998 1.351 . S
C1999 C2000 1.434 . S
C2000 C1991 1.429 . S
C2000 N1997 1.350 . S
C2000 C1999 1.434 . S
C2001 C2002 1.369 . S
C2001 C2003 1.419 1_554 S
C2001 H2005 0.930 . S
C2002 C2001 1.369 . S
C2002 C2011 1.429 . S
C2003 C2001 1.419 1_556 S
C2003 C2004 1.363 . S
C2003 H2006 0.929 . S
C2004 C2003 1.363 . S
C2004 C2010 1.428 1_556 S
H2005 C2001 0.930 . S
H2006 C2003 0.929 . S
S2007 N2008 1.613 . S
S2007 N2009 1.610 . S
N2008 S2007 1.613 . S
N2008 C2011 1.350 . S
N2009 S2007 1.610 . S
N2009 C2010 1.351 . S
C2010 C2004 1.428 1_554 S
C2010 N2009 1.351 . S
C2010 C2011 1.434 . S
C2011 C2002 1.429 . S
C2011 N2008 1.350 . S
C2011 C2010 1.434 . S
C2012 C2013 1.369 . S
C2012 C2014 1.419 1_556 S
C2012 H2016 0.930 . S
C2013 C2012 1.369 . S
C2013 C2022 1.429 1_556 S
C2014 C2012 1.419 1_554 S
C2014 C2015 1.363 . S
C2014 H2017 0.929 . S
C2015 C2014 1.363 . S
C2015 C2021 1.428 . S
H2016 C2012 0.930 . S
H2017 C2014 0.929 . S
S2018 N2019 1.613 . S
S2018 N2020 1.610 . S
N2019 S2018 1.613 . S
N2019 C2022 1.350 . S
N2020 S2018 1.610 . S
N2020 C2021 1.351 . S
C2021 C2015 1.428 . S
C2021 N2020 1.351 . S
C2021 C2022 1.434 . S
C2022 C2013 1.429 1_554 S
C2022 N2019 1.350 . S
C2022 C2021 1.434 . S
C2023 C2024 1.369 . S
C2023 C2025 1.419 1_554 S
C2023 H2027 0.930 . S
C2024 C2023 1.369 . S
C2024 C2033 1.429 . S
C2025 C2023 1.419 1_556 S
C2025 C2026 1.363 . S
C2025 H2028 0.929 . S
C2026 C2025 1.363 . S
C2026 C2032 1.428 1_556 S
H2027 C2023 0.930 . S
H2028 C2025 0.929 . S
S2029 N2030 1.613 . S
S2029 N2031 1.610 . S
N2030 S2029 1.613 . S
N2030 C2033 1.350 . S
N2031 S2029 1.610 . S
N2031 C2032 1.351 . S
C2032 C2026 1.428 1_554 S
C2032 N2031 1.351 . S
C2032 C2033 1.434 . S
C2033 C2024 1.429 . S
C2033 N2030 1.350 . S
C2033 C2032 1.434 . S
C2034 C2035 1.369 . S
C2034 C2036 1.419 . S
C2034 H2038 0.930 . S
C2035 C2034 1.369 . S
C2035 C2044 1.429 . S
C2036 C2034 1.419 . S
C2036 C2037 1.363 . S
C2036 H2039 0.929 . S
C2037 C2036 1.363 . S
C2037 C2043 1.428 . S
H2038 C2034 0.930 . S
H2039 C2036 0.929 . S
S2040 N2041 1.613 . S
S2040 N2042 1.610 . S
N2041 S2040 1.613 . S
N2041 C2044 1.350 . S
N2042 S2040 1.610 . S
N2042 C2043 1.351 . S
C2043 C2037 1.428 . S
C2043 N2042 1.351 . S
C2043 C2044 1.434 . S
C2044 C2035 1.429 . S
C2044 N2041 1.350 . S
C2044 C2043 1.434 . S
C2045 C2046 1.369 . S
C2045 C2047 1.419 . S
C2045 H2049 0.930 . S
C2046 C2045 1.369 . S
C2046 C2055 1.429 . S
C2047 C2045 1.419 . S
C2047 C2048 1.363 . S
C2047 H2050 0.929 . S
C2048 C2047 1.363 . S
C2048 C2054 1.428 . S
H2049 C2045 0.930 . S
H2050 C2047 0.929 . S
S2051 N2052 1.613 . S
S2051 N2053 1.610 . S
N2052 S2051 1.613 . S
N2052 C2055 1.350 . S
N2053 S2051 1.610 . S
N2053 C2054 1.351 . S
C2054 C2048 1.428 . S
C2054 N2053 1.351 . S
C2054 C2055 1.434 . S
C2055 C2046 1.429 . S
C2055 N2052 1.350 . S
C2055 C2054 1.434 . S
C2056 C2057 1.369 . S
C2056 C2058 1.419 . S
C2056 H2060 0.930 . S
C2057 C2056 1.369 . S
C2057 C2066 1.429 . S
C2058 C2056 1.419 . S
C2058 C2059 1.363 . S
C2058 H2061 0.929 . S
C2059 C2058 1.363 . S
C2059 C2065 1.428 . S
H2060 C2056 0.930 . S
H2061 C2058 0.929 . S
S2062 N2063 1.613 . S
S2062 N2064 1.610 . S
N2063 S2062 1.613 . S
N2063 C2066 1.350 . S
N2064 S2062 1.610 . S
N2064 C2065 1.351 . S
C2065 C2059 1.428 . S
C2065 N2064 1.351 . S
C2065 C2066 1.434 . S
C2066 C2057 1.429 . S
C2066 N2063 1.350 . S
C2066 C2065 1.434 . S
C2067 C2068 1.369 . S
C2067 C2069 1.419 . S
C2067 H2071 0.930 . S
C2068 C2067 1.369 . S
C2068 C2077 1.429 . S
C2069 C2067 1.419 . S
C2069 C2070 1.363 . S
C2069 H2072 0.929 . S
C2070 C2069 1.363 . S
C2070 C2076 1.428 . S
H2071 C2067 0.930 . S
H2072 C2069 0.929 . S
S2073 N2074 1.613 . S
S2073 N2075 1.610 . S
N2074 S2073 1.613 . S
N2074 C2077 1.350 . S
N2075 S2073 1.610 . S
N2075 C2076 1.351 . S
C2076 C2070 1.428 . S
C2076 N2075 1.351 . S
C2076 C2077 1.434 . S
C2077 C2068 1.429 . S
C2077 N2074 1.350 . S
C2077 C2076 1.434 . S
C2078 C2079 1.369 . S
C2078 C2080 1.419 . S
C2078 H2082 0.930 . S
C2079 C2078 1.369 . S
C2079 C2088 1.429 . S
C2080 C2078 1.419 . S
C2080 C2081 1.363 . S
C2080 H2083 0.929 . S
C2081 C2080 1.363 . S
C2081 C2087 1.428 . S
H2082 C2078 0.930 . S
H2083 C2080 0.929 . S
S2084 N2085 1.613 . S
S2084 N2086 1.610 . S
N2085 S2084 1.613 . S
N2085 C2088 1.350 . S
N2086 S2084 1.610 . S
N2086 C2087 1.351 . S
C2087 C2081 1.428 . S
C2087 N2086 1.351 . S
C2087 C2088 1.434 . S
C2088 C2079 1.429 . S
C2088 N2085 1.350 . S
C2088 C2087 1.434 . S
C2089 C2090 1.369 . S
C2089 C2091 1.419 . S
C2089 H2093 0.930 . S
C2090 C2089 1.369 . S
C2090 C2099 1.429 . S
C2091 C2089 1.419 . S
C2091 C2092 1.363 . S
C2091 H2094 0.929 . S
C2092 C2091 1.363 . S
C2092 C2098 1.428 . S
H2093 C2089 0.930 . S
H2094 C2091 0.929 . S
S2095 N2096 1.613 . S
S2095 N2097 1.610 . S
N2096 S2095 1.613 . S
N2096 C2099 1.350 . S
N2097 S2095 1.610 . S
N2097 C2098 1.351 . S
C2098 C2092 1.428 . S
C2098 N2097 1.351 . S
C2098 C2099 1.434 . S
C2099 C2090 1.429 . S
C2099 N2096 1.350 . S
C2099 C2098 1.434 . S
C2100 C2101 1.369 . S
C2100 C2102 1.419 . S
C2100 H2104 0.930 . S
C2101 C2100 1.369 . S
C2101 C2110 1.429 . S
C2102 C2100 1.419 . S
C2102 C2103 1.363 . S
C2102 H2105 0.929 . S
C2103 C2102 1.363 . S
C2103 C2109 1.428 . S
H2104 C2100 0.930 . S
H2105 C2102 0.929 . S
S2106 N2107 1.613 . S
S2106 N2108 1.610 . S
N2107 S2106 1.613 . S
N2107 C2110 1.350 . S
N2108 S2106 1.610 . S
N2108 C2109 1.351 . S
C2109 C2103 1.428 . S
C2109 N2108 1.351 . S
C2109 C2110 1.434 . S
C2110 C2101 1.429 . S
C2110 N2107 1.350 . S
C2110 C2109 1.434 . S
C2111 C2112 1.369 . S
C2111 C2113 1.419 . S
C2111 H2115 0.930 . S
C2112 C2111 1.369 . S
C2112 C2121 1.429 . S
C2113 C2111 1.419 . S
C2113 C2114 1.363 . S
C2113 H2116 0.929 . S
C2114 C2113 1.363 . S
C2114 C2120 1.428 . S
H2115 C2111 0.930 . S
H2116 C2113 0.929 . S
S2117 N2118 1.613 . S
S2117 N2119 1.610 . S
N2118 S2117 1.613 . S
N2118 C2121 1.350 . S
N2119 S2117 1.610 . S
N2119 C2120 1.351 . S
C2120 C2114 1.428 . S
C2120 N2119 1.351 . S
C2120 C2121 1.434 . S
C2121 C2112 1.429 . S
C2121 N2118 1.350 . S
C2121 C2120 1.434 . S
C2122 C2123 1.369 . S
C2122 C2124 1.419 . S
C2122 H2126 0.930 . S
C2123 C2122 1.369 . S
C2123 C2132 1.429 . S
C2124 C2122 1.419 . S
C2124 C2125 1.363 . S
C2124 H2127 0.929 . S
C2125 C2124 1.363 . S
C2125 C2131 1.428 . S
H2126 C2122 0.930 . S
H2127 C2124 0.929 . S
S2128 N2129 1.613 . S
S2128 N2130 1.610 . S
N2129 S2128 1.613 . S
N2129 C2132 1.350 . S
N2130 S2128 1.610 . S
N2130 C2131 1.351 . S
C2131 C2125 1.428 . S
C2131 N2130 1.351 . S
C2131 C2132 1.434 . S
C2132 C2123 1.429 . S
C2132 N2129 1.350 . S
C2132 C2131 1.434 . S
C2133 C2134 1.369 . S
C2133 C2135 1.419 . S
C2133 H2137 0.930 . S
C2134 C2133 1.369 . S
C2134 C2143 1.429 . S
C2135 C2133 1.419 . S
C2135 C2136 1.363 . S
C2135 H2138 0.929 . S
C2136 C2135 1.363 . S
C2136 C2142 1.428 . S
H2137 C2133 0.930 . S
H2138 C2135 0.929 . S
S2139 N2140 1.613 . S
S2139 N2141 1.610 . S
N2140 S2139 1.613 . S
N2140 C2143 1.350 . S
N2141 S2139 1.610 . S
N2141 C2142 1.351 . S
C2142 C2136 1.428 . S
C2142 N2141 1.351 . S
C2142 C2143 1.434 . S
C2143 C2134 1.429 . S
C2143 N2140 1.350 . S
C2143 C2142 1.434 . S
C2144 C2145 1.369 . S
C2144 C2146 1.419 . S
C2144 H2148 0.930 . S
C2145 C2144 1.369 . S
C2145 C2154 1.429 . S
C2146 C2144 1.419 . S
C2146 C2147 1.363 . S
C2146 H2149 0.929 . S
C2147 C2146 1.363 . S
C2147 C2153 1.428 . S
H2148 C2144 0.930 . S
H2149 C2146 0.929 . S
S2150 N2151 1.613 . S
S2150 N2152 1.610 . S
N2151 S2150 1.613 . S
N2151 C2154 1.350 . S
N2152 S2150 1.610 . S
N2152 C2153 1.351 . S
C2153 C2147 1.428 . S
C2153 N2152 1.351 . S
C2153 C2154 1.434 . S
C2154 C2145 1.429 . S
C2154 N2151 1.350 . S
C2154 C2153 1.434 . S
C2155 C2156 1.369 . S
C2155 C2157 1.419 . S
C2155 H2159 0.930 . S
C2156 C2155 1.369 . S
C2156 C2165 1.429 . S
C2157 C2155 1.419 . S
C2157 C2158 1.363 . S
C2157 H2160 0.929 . S
C2158 C2157 1.363 . S
C2158 C2164 1.428 . S
H2159 C2155 0.930 . S
H2160 C2157 0.929 . S
S2161 N2162 1.613 . S
S2161 N2163 1.610 . S
N2162 S2161 1.613 . S
N2162 C2165 1.350 . S
N2163 S2161 1.610 . S
N2163 C2164 1.351 . S
C2164 C2158 1.428 . S
C2164 N2163 1.351 . S
C2164 C2165 1.434 . S
C2165 C2156 1.429 . S
C2165 N2162 1.350 . S
C2165 C2164 1.434 . S
C2166 C2167 1.369 . S
C2166 C2168 1.419 . S
C2166 H2170 0.930 . S
C2167 C2166 1.369 . S
C2167 C2176 1.429 . S
C2168 C2166 1.419 . S
C2168 C2169 1.363 . S
C2168 H2171 0.929 . S
C2169 C2168 1.363 . S
C2169 C2175 1.428 . S
H2170 C2166 0.930 . S
H2171 C2168 0.929 . S
S2172 N2173 1.613 . S
S2172 N2174 1.610 . S
N2173 S2172 1.613 . S
N2173 C2176 1.350 . S
N2174 S2172 1.610 . S
N2174 C2175 1.351 . S
C2175 C2169 1.428 . S
C2175 N2174 1.351 . S
C2175 C2176 1.434 . S
C2176 C2167 1.429 . S
C2176 N2173 1.350 . S
C2176 C2175 1.434 . S
C2177 C2178 1.369 . S
C2177 C2179 1.419 . S
C2177 H2181 0.930 . S
C2178 C2177 1.369 . S
C2178 C2187 1.429 . S
C2179 C2177 1.419 . S
C2179 C2180 1.363 . S
C2179 H2182 0.929 . S
C2180 C2179 1.363 . S
C2180 C2186 1.428 . S
H2181 C2177 0.930 . S
H2182 C2179 0.929 . S
S2183 N2184 1.613 . S
S2183 N2185 1.610 . S
N2184 S2183 1.613 . S
N2184 C2187 1.350 . S
N2185 S2183 1.610 . S
N2185 C2186 1.351 . S
C2186 C2180 1.428 . S
C2186 N2185 1.351 . S
C2186 C2187 1.434 . S
C2187 C2178 1.429 . S
C2187 N2184 1.350 . S
C2187 C2186 1.434 . S
C2188 C2189 1.369 . S
C2188 C2190 1.419 . S
C2188 H2192 0.930 . S
C2189 C2188 1.369 . S
C2189 C2198 1.429 . S
C2190 C2188 1.419 . S
C2190 C2191 1.363 . S
C2190 H2193 0.929 . S
C2191 C2190 1.363 . S
C2191 C2197 1.428 . S
H2192 C2188 0.930 . S
H2193 C2190 0.929 . S
S2194 N2195 1.613 . S
S2194 N2196 1.610 . S
N2195 S2194 1.613 . S
N2195 C2198 1.350 . S
N2196 S2194 1.610 . S
N2196 C2197 1.351 . S
C2197 C2191 1.428 . S
C2197 N2196 1.351 . S
C2197 C2198 1.434 . S
C2198 C2189 1.429 . S
C2198 N2195 1.350 . S
C2198 C2197 1.434 . S
C2199 C2200 1.369 . S
C2199 C2201 1.419 . S
C2199 H2203 0.930 . S
C2200 C2199 1.369 . S
C2200 C2209 1.429 . S
C2201 C2199 1.419 . S
C2201 C2202 1.363 . S
C2201 H2204 0.929 . S
C2202 C2201 1.363 . S
C2202 C2208 1.428 . S
H2203 C2199 0.930 . S
H2204 C2201 0.929 . S
S2205 N2206 1.613 . S
S2205 N2207 1.610 . S
N2206 S2205 1.613 . S
N2206 C2209 1.350 . S
N2207 S2205 1.610 . S
N2207 C2208 1.351 . S
C2208 C2202 1.428 . S
C2208 N2207 1.351 . S
C2208 C2209 1.434 . S
C2209 C2200 1.429 . S
C2209 N2206 1.350 . S
C2209 C2208 1.434 . S
C2210 C2211 1.369 . S
C2210 C2212 1.419 . S
C2210 H2214 0.930 . S
C2211 C2210 1.369 . S
C2211 C2220 1.429 . S
C2212 C2210 1.419 . S
C2212 C2213 1.363 . S
C2212 H2215 0.929 . S
C2213 C2212 1.363 . S
C2213 C2219 1.428 . S
H2214 C2210 0.930 . S
H2215 C2212 0.929 . S
S2216 N2217 1.613 . S
S2216 N2218 1.610 . S
N2217 S2216 1.613 . S
N2217 C2220 1.350 . S
N2218 S2216 1.610 . S
N2218 C2219 1.351 . S
C2219 C2213 1.428 . S
C2219 N2218 1.351 . S
C2219 C2220 1.434 . S
C2220 C2211 1.429 . S
C2220 N2217 1.350 . S
C2220 C2219 1.434 . S
C2221 C2222 1.369 . S
C2221 C2223 1.419 . S
C2221 H2225 0.930 . S
C2222 C2221 1.369 . S
C2222 C2231 1.429 . S
C2223 C2221 1.419 . S
C2223 C2224 1.363 . S
C2223 H2226 0.929 . S
C2224 C2223 1.363 . S
C2224 C2230 1.428 . S
H2225 C2221 0.930 . S
H2226 C2223 0.929 . S
S2227 N2228 1.613 . S
S2227 N2229 1.610 . S
N2228 S2227 1.613 . S
N2228 C2231 1.350 . S
N2229 S2227 1.610 . S
N2229 C2230 1.351 . S
C2230 C2224 1.428 . S
C2230 N2229 1.351 . S
C2230 C2231 1.434 . S
C2231 C2222 1.429 . S
C2231 N2228 1.350 . S
C2231 C2230 1.434 . S
C2232 C2233 1.369 . S
C2232 C2234 1.419 1_455 S
C2232 H2236 0.930 . S
C2233 C2232 1.369 . S
C2233 C2242 1.429 . S
C2234 C2232 1.419 1_655 S
C2234 C2235 1.363 . S
C2234 H2237 0.929 . S
C2235 C2234 1.363 . S
C2235 C2241 1.428 . S
H2236 C2232 0.930 . S
H2237 C2234 0.929 . S
S2238 N2239 1.613 . S
S2238 N2240 1.623 . S
N2239 S2238 1.613 . S
N2239 C2242 1.350 . S
N2240 S2238 1.623 . S
N2240 C2241 1.366 1_455 S
C2241 C2235 1.428 . S
C2241 N2240 1.366 1_655 S
C2241 C2242 1.434 1_655 S
C2242 C2233 1.429 . S
C2242 N2239 1.350 . S
C2242 C2241 1.434 1_455 S
C2243 C2244 1.369 . S
C2243 C2245 1.419 . S
C2243 H2247 0.930 . S
C2244 C2243 1.369 . S
C2244 C2253 1.429 . S
C2245 C2243 1.419 . S
C2245 C2246 1.363 . S
C2245 H2248 0.929 . S
C2246 C2245 1.363 . S
C2246 C2252 1.428 . S
H2247 C2243 0.930 . S
H2248 C2245 0.929 . S
S2249 N2250 1.613 . S
S2249 N2251 1.610 . S
N2250 S2249 1.613 . S
N2250 C2253 1.350 . S
N2251 S2249 1.610 . S
N2251 C2252 1.351 . S
C2252 C2246 1.428 . S
C2252 N2251 1.351 . S
C2252 C2253 1.434 . S
C2253 C2244 1.429 . S
C2253 N2250 1.350 . S
C2253 C2252 1.434 . S
C2254 C2255 1.369 1_545 S
C2254 C2256 1.419 . S
C2254 H2258 0.930 . S
C2255 C2254 1.369 1_565 S
C2255 C2264 1.429 . S
C2256 C2254 1.419 . S
C2256 C2257 1.363 . S
C2256 H2259 0.929 . S
C2257 C2256 1.363 . S
C2257 C2263 1.428 1_545 S
H2258 C2254 0.930 . S
H2259 C2256 0.929 . S
S2260 N2261 1.613 . S
S2260 N2262 1.610 . S
N2261 S2260 1.613 . S
N2261 C2264 1.350 . S
N2262 S2260 1.610 . S
N2262 C2263 1.351 . S
C2263 C2257 1.428 1_565 S
C2263 N2262 1.351 . S
C2263 C2264 1.434 . S
C2264 C2255 1.429 . S
C2264 N2261 1.350 . S
C2264 C2263 1.434 . S
C2265 C2266 1.369 . S
C2265 C2267 1.419 1_655 S
C2265 H2269 0.930 . S
C2266 C2265 1.369 . S
C2266 C2275 1.429 . S
C2267 C2265 1.419 1_455 S
C2267 C2268 1.363 . S
C2267 H2270 0.929 . S
C2268 C2267 1.363 . S
C2268 C2274 1.428 . S
H2269 C2265 0.930 . S
H2270 C2267 0.929 . S
S2271 N2272 1.613 1_455 S
S2271 N2273 1.610 . S
N2272 S2271 1.613 1_655 S
N2272 C2275 1.350 . S
N2273 S2271 1.610 . S
N2273 C2274 1.351 . S
C2274 C2268 1.428 . S
C2274 N2273 1.351 . S
C2274 C2275 1.434 1_455 S
C2275 C2266 1.429 . S
C2275 N2272 1.350 . S
C2275 C2274 1.434 1_655 S
C2276 C2277 1.369 . S
C2276 C2278 1.419 . S
C2276 H2280 0.930 . S
C2277 C2276 1.369 . S
C2277 C2286 1.429 . S
C2278 C2276 1.419 . S
C2278 C2279 1.363 . S
C2278 H2281 0.929 . S
C2279 C2278 1.363 . S
C2279 C2285 1.428 . S
H2280 C2276 0.930 . S
H2281 C2278 0.929 . S
S2282 N2283 1.613 . S
S2282 N2284 1.610 . S
N2283 S2282 1.613 . S
N2283 C2286 1.350 . S
N2284 S2282 1.610 . S
N2284 C2285 1.351 . S
C2285 C2279 1.428 . S
C2285 N2284 1.351 . S
C2285 C2286 1.434 . S
C2286 C2277 1.429 . S
C2286 N2283 1.350 . S
C2286 C2285 1.434 . S
C2287 C2288 1.369 . S
C2287 C2289 1.419 1_545 S
C2287 H2291 0.930 . S
C2288 C2287 1.369 . S
C2288 C2297 1.429 . S
C2289 C2287 1.419 1_565 S
C2289 C2290 1.363 . S
C2289 H2292 0.929 . S
C2290 C2289 1.363 . S
C2290 C2296 1.428 . S
H2291 C2287 0.930 . S
H2292 C2289 0.929 . S
S2293 N2294 1.613 . S
S2293 N2295 1.610 1_545 S
N2294 S2293 1.613 . S
N2294 C2297 1.350 . S
N2295 S2293 1.610 1_565 S
N2295 C2296 1.351 . S
C2296 C2290 1.428 . S
C2296 N2295 1.351 . S
C2296 C2297 1.434 1_565 S
C2297 C2288 1.429 . S
C2297 N2294 1.350 . S
C2297 C2296 1.434 1_545 S
C2298 C2299 1.369 . S
C2298 C2300 1.419 . S
C2298 H2302 0.930 . S
C2299 C2298 1.369 . S
C2299 C2308 1.429 . S
C2300 C2298 1.419 . S
C2300 C2301 1.363 . S
C2300 H2303 0.929 . S
C2301 C2300 1.363 . S
C2301 C2307 1.428 . S
H2302 C2298 0.930 . S
H2303 C2300 0.929 . S
S2304 N2305 1.613 . S
S2304 N2306 1.610 . S
N2305 S2304 1.613 . S
N2305 C2308 1.350 . S
N2306 S2304 1.610 . S
N2306 C2307 1.351 . S
C2307 C2301 1.428 . S
C2307 N2306 1.351 . S
C2307 C2308 1.434 . S
C2308 C2299 1.429 . S
C2308 N2305 1.350 . S
C2308 C2307 1.434 . S
C2309 C2310 1.369 . S
C2309 C2311 1.419 . S
C2309 H2313 0.930 . S
C2310 C2309 1.369 . S
C2310 C2319 1.429 . S
C2311 C2309 1.419 . S
C2311 C2312 1.363 . S
C2311 H2314 0.929 . S
C2312 C2311 1.363 . S
C2312 C2318 1.428 . S
H2313 C2309 0.930 . S
H2314 C2311 0.929 . S
S2315 N2316 1.613 . S
S2315 N2317 1.610 . S
N2316 S2315 1.613 . S
N2316 C2319 1.350 . S
N2317 S2315 1.610 . S
N2317 C2318 1.351 . S
C2318 C2312 1.428 . S
C2318 N2317 1.351 . S
C2318 C2319 1.434 . S
C2319 C2310 1.429 . S
C2319 N2316 1.350 . S
C2319 C2318 1.434 . S
C2320 C2321 1.369 . S
C2320 C2322 1.419 . S
C2320 H2324 0.930 . S
C2321 C2320 1.369 . S
C2321 C2330 1.429 . S
C2322 C2320 1.419 . S
C2322 C2323 1.363 . S
C2322 H2325 0.929 . S
C2323 C2322 1.363 . S
C2323 C2329 1.428 . S
H2324 C2320 0.930 . S
H2325 C2322 0.929 . S
S2326 N2327 1.613 . S
S2326 N2328 1.610 . S
N2327 S2326 1.613 . S
N2327 C2330 1.350 . S
N2328 S2326 1.610 . S
N2328 C2329 1.351 . S
C2329 C2323 1.428 . S
C2329 N2328 1.351 . S
C2329 C2330 1.434 . S
C2330 C2321 1.429 . S
C2330 N2327 1.350 . S
C2330 C2329 1.434 . S
C2331 C2332 1.369 . S
C2331 C2333 1.419 . S
C2331 H2335 0.930 . S
C2332 C2331 1.369 . S
C2332 C2341 1.429 . S
C2333 C2331 1.419 . S
C2333 C2334 1.363 . S
C2333 H2336 0.929 . S
C2334 C2333 1.363 . S
C2334 C2340 1.428 . S
H2335 C2331 0.930 . S
H2336 C2333 0.929 . S
S2337 N2338 1.613 . S
S2337 N2339 1.610 . S
N2338 S2337 1.613 . S
N2338 C2341 1.350 . S
N2339 S2337 1.610 . S
N2339 C2340 1.351 . S
C2340 C2334 1.428 . S
C2340 N2339 1.351 . S
C2340 C2341 1.434 . S
C2341 C2332 1.429 . S
C2341 N2338 1.350 . S
C2341 C2340 1.434 . S
C2342 C2343 1.369 . S
C2342 C2344 1.419 . S
C2342 H2346 0.930 . S
C2343 C2342 1.369 . S
C2343 C2352 1.429 . S
C2344 C2342 1.419 . S
C2344 C2345 1.363 . S
C2344 H2347 0.929 . S
C2345 C2344 1.363 . S
C2345 C2351 1.428 . S
H2346 C2342 0.930 . S
H2347 C2344 0.929 . S
S2348 N2349 1.613 . S
S2348 N2350 1.610 . S
N2349 S2348 1.613 . S
N2349 C2352 1.350 . S
N2350 S2348 1.610 . S
N2350 C2351 1.351 . S
C2351 C2345 1.428 . S
C2351 N2350 1.351 . S
C2351 C2352 1.434 . S
C2352 C2343 1.429 . S
C2352 N2349 1.350 . S
C2352 C2351 1.434 . S
C2353 C2354 1.369 . S
C2353 C2355 1.419 . S
C2353 H2357 0.930 . S
C2354 C2353 1.369 . S
C2354 C2363 1.429 . S
C2355 C2353 1.419 . S
C2355 C2356 1.363 . S
C2355 H2358 0.929 . S
C2356 C2355 1.363 . S
C2356 C2362 1.428 . S
H2357 C2353 0.930 . S
H2358 C2355 0.929 . S
S2359 N2360 1.613 . S
S2359 N2361 1.610 . S
N2360 S2359 1.613 . S
N2360 C2363 1.350 . S
N2361 S2359 1.610 . S
N2361 C2362 1.351 . S
C2362 C2356 1.428 . S
C2362 N2361 1.351 . S
C2362 C2363 1.434 . S
C2363 C2354 1.429 . S
C2363 N2360 1.350 . S
C2363 C2362 1.434 . S
C2364 C2365 1.369 1_556 S
C2364 C2366 1.419 . S
C2364 H2368 0.930 . S
C2365 C2364 1.369 1_554 S
C2365 C2374 1.429 . S
C2366 C2364 1.419 . S
C2366 C2367 1.363 . S
C2366 H2369 0.929 . S
C2367 C2366 1.363 . S
C2367 C2373 1.419 1_556 S
H2368 C2364 0.930 . S
H2369 C2366 0.929 . S
S2370 N2371 1.613 . S
S2370 N2372 1.610 . S
N2371 S2370 1.613 . S
N2371 C2374 1.350 . S
N2372 S2370 1.610 . S
N2372 C2373 1.353 . S
C2373 C2367 1.419 1_554 S
C2373 N2372 1.353 . S
C2373 C2374 1.442 . S
C2374 C2365 1.429 . S
C2374 N2371 1.350 . S
C2374 C2373 1.442 . S
C2375 C2376 1.369 . S
C2375 C2377 1.419 1_556 S
C2375 H2379 0.930 1_556 S
C2376 C2375 1.369 . S
C2376 C2385 1.429 . S
C2377 C2375 1.419 1_554 S
C2377 C2378 1.363 . S
C2377 H2380 0.929 . S
C2378 C2377 1.363 . S
C2378 C2384 1.428 1_554 S
H2379 C2375 0.930 1_554 S
H2380 C2377 0.929 . S
S2381 N2382 1.613 . S
S2381 N2383 1.610 . S
N2382 S2381 1.613 . S
N2382 C2385 1.350 . S
N2383 S2381 1.610 . S
N2383 C2384 1.351 . S
C2384 C2378 1.428 1_556 S
C2384 N2383 1.351 . S
C2384 C2385 1.434 . S
C2385 C2376 1.429 . S
C2385 N2382 1.350 . S
C2385 C2384 1.434 . S
C2386 C2387 1.369 . S
C2386 C2388 1.419 1_556 S
C2386 H2390 0.930 . S
C2387 C2386 1.369 . S
C2387 C2396 1.429 . S
C2388 C2386 1.419 1_554 S
C2388 C2389 1.363 . S
C2388 H2391 0.929 . S
C2389 C2388 1.363 . S
C2389 C2395 1.428 . S
H2390 C2386 0.930 . S
H2391 C2388 0.929 . S
S2392 N2393 1.613 . S
S2392 N2394 1.610 1_556 S
N2393 S2392 1.613 . S
N2393 C2396 1.350 . S
N2394 S2392 1.610 1_554 S
N2394 C2395 1.351 . S
C2395 C2389 1.428 . S
C2395 N2394 1.351 . S
C2395 C2396 1.434 1_554 S
C2396 C2387 1.429 . S
C2396 N2393 1.350 . S
C2396 C2395 1.434 1_556 S
C2397 C2398 1.369 . S
C2397 C2399 1.419 . S
C2397 H2401 0.930 . S
C2398 C2397 1.369 . S
C2398 C2407 1.429 . S
C2399 C2397 1.419 . S
C2399 C2400 1.363 . S
C2399 H2402 0.929 . S
C2400 C2399 1.363 . S
C2400 C2406 1.428 . S
H2401 C2397 0.930 . S
H2402 C2399 0.929 . S
S2403 N2404 1.613 . S
S2403 N2405 1.610 . S
N2404 S2403 1.613 . S
N2404 C2407 1.350 . S
N2405 S2403 1.610 . S
N2405 C2406 1.351 . S
C2406 C2400 1.428 . S
C2406 N2405 1.351 . S
C2406 C2407 1.434 . S
C2407 C2398 1.429 . S
C2407 N2404 1.350 . S
C2407 C2406 1.434 . S
C2408 C2409 1.369 . S
C2408 C2410 1.419 . S
C2408 H2412 0.930 . S
C2409 C2408 1.369 . S
C2409 C2418 1.429 . S
C2410 C2408 1.419 . S
C2410 C2411 1.363 . S
C2410 H2413 0.929 . S
C2411 C2410 1.363 . S
C2411 C2417 1.428 . S
H2412 C2408 0.930 . S
H2413 C2410 0.929 . S
S2414 N2415 1.613 . S
S2414 N2416 1.610 . S
N2415 S2414 1.613 . S
N2415 C2418 1.350 . S
N2416 S2414 1.610 . S
N2416 C2417 1.351 . S
C2417 C2411 1.428 . S
C2417 N2416 1.351 . S
C2417 C2418 1.434 . S
C2418 C2409 1.429 . S
C2418 N2415 1.350 . S
C2418 C2417 1.434 . S
C2419 C2420 1.369 . S
C2419 C2421 1.419 . S
C2419 H2423 0.930 . S
C2420 C2419 1.369 . S
C2420 C2429 1.429 . S
C2421 C2419 1.419 . S
C2421 C2422 1.363 . S
C2421 H2424 0.929 . S
C2422 C2421 1.363 . S
C2422 C2428 1.428 . S
H2423 C2419 0.930 . S
H2424 C2421 0.929 . S
S2425 N2426 1.613 . S
S2425 N2427 1.610 . S
N2426 S2425 1.613 . S
N2426 C2429 1.350 . S
N2427 S2425 1.610 . S
N2427 C2428 1.351 . S
C2428 C2422 1.428 . S
C2428 N2427 1.351 . S
C2428 C2429 1.434 . S
C2429 C2420 1.429 . S
C2429 N2426 1.350 . S
C2429 C2428 1.434 . S
C2430 C2431 1.369 . S
C2430 C2432 1.419 1_455 S
C2430 H2434 0.930 . S
C2431 C2430 1.369 . S
C2431 C2440 1.429 . S
C2432 C2430 1.419 1_655 S
C2432 C2433 1.363 . S
C2432 H2435 0.929 . S
C2433 C2432 1.363 . S
C2433 C2439 1.463 . S
H2434 C2430 0.930 . S
H2435 C2432 0.929 . S
S2436 N2437 1.613 . S
S2436 N2438 1.607 1_554 S
N2437 S2436 1.613 . S
N2437 C2440 1.350 . S
N2438 S2436 1.607 1_556 S
N2438 C2439 1.324 1_456 S
C2439 C2433 1.463 . S
C2439 N2438 1.324 1_654 S
C2439 C2440 1.408 1_655 S
C2440 C2431 1.429 . S
C2440 N2437 1.350 . S
C2440 C2439 1.408 1_455 S
C2441 C2442 1.369 . S
C2441 C2443 1.419 . S
C2441 H2445 0.930 . S
C2442 C2441 1.369 . S
C2442 C2451 1.429 . S
C2443 C2441 1.419 . S
C2443 C2444 1.363 . S
C2443 H2446 0.929 . S
C2444 C2443 1.363 . S
C2444 C2450 1.428 . S
H2445 C2441 0.930 . S
H2446 C2443 0.929 . S
S2447 N2448 1.613 . S
S2447 N2449 1.610 . S
N2448 S2447 1.613 . S
N2448 C2451 1.350 . S
N2449 S2447 1.610 . S
N2449 C2450 1.351 . S
C2450 C2444 1.428 . S
C2450 N2449 1.351 . S
C2450 C2451 1.434 . S
C2451 C2442 1.429 . S
C2451 N2448 1.350 . S
C2451 C2450 1.434 . S
C2452 C2453 1.369 . S
C2452 C2454 1.419 1_545 S
C2452 H2456 0.930 . S
C2453 C2452 1.369 . S
C2453 C2462 1.429 . S
C2454 C2452 1.419 1_565 S
C2454 C2455 1.363 . S
C2454 H2457 0.929 . S
C2455 C2454 1.363 . S
C2455 C2461 1.428 . S
H2456 C2452 0.930 . S
H2457 C2454 0.929 . S
S2458 N2459 1.613 . S
S2458 N2460 1.610 1_545 S
N2459 S2458 1.613 . S
N2459 C2462 1.350 . S
N2460 S2458 1.610 1_565 S
N2460 C2461 1.351 . S
C2461 C2455 1.428 . S
C2461 N2460 1.351 . S
C2461 C2462 1.434 1_565 S
C2462 C2453 1.429 . S
C2462 N2459 1.350 . S
C2462 C2461 1.434 1_545 S
C2463 C2464 1.369 1_545 S
C2463 C2465 1.419 . S
C2463 H2467 0.930 . S
C2464 C2463 1.369 1_565 S
C2464 C2473 1.429 . S
C2465 C2463 1.419 . S
C2465 C2466 1.363 . S
C2465 H2468 0.929 . S
C2466 C2465 1.363 . S
C2466 C2472 1.428 1_545 S
H2467 C2463 0.930 . S
H2468 C2465 0.929 . S
S2469 N2470 1.613 . S
S2469 N2471 1.610 . S
N2470 S2469 1.613 . S
N2470 C2473 1.350 . S
N2471 S2469 1.610 . S
N2471 C2472 1.351 . S
C2472 C2466 1.428 1_565 S
C2472 N2471 1.351 . S
C2472 C2473 1.434 . S
C2473 C2464 1.429 . S
C2473 N2470 1.350 . S
C2473 C2472 1.434 . S
C2474 C2475 1.369 1_455 S
C2474 C2476 1.419 . S
C2474 H2478 0.930 . S
C2475 C2474 1.369 1_655 S
C2475 C2484 1.429 . S
C2476 C2474 1.419 . S
C2476 C2477 1.363 . S
C2476 H2479 0.929 . S
C2477 C2476 1.363 . S
C2477 C2483 1.428 1_455 S
H2478 C2474 0.930 . S
H2479 C2476 0.929 . S
S2480 N2481 1.613 . S
S2480 N2482 1.610 . S
N2481 S2480 1.613 . S
N2481 C2484 1.350 . S
N2482 S2480 1.610 . S
N2482 C2483 1.351 . S
C2483 C2477 1.428 1_655 S
C2483 N2482 1.351 . S
C2483 C2484 1.434 . S
C2484 C2475 1.429 . S
C2484 N2481 1.350 . S
C2484 C2483 1.434 . S
C2485 C2486 1.369 . S
C2485 C2487 1.419 . S
C2485 H2489 0.930 . S
C2486 C2485 1.369 . S
C2486 C2495 1.429 . S
C2487 C2485 1.419 . S
C2487 C2488 1.363 . S
C2487 H2490 0.929 . S
C2488 C2487 1.363 . S
C2488 C2494 1.428 . S
H2489 C2485 0.930 . S
H2490 C2487 0.929 . S
S2491 N2492 1.613 . S
S2491 N2493 1.610 . S
N2492 S2491 1.613 . S
N2492 C2495 1.350 . S
N2493 S2491 1.610 . S
N2493 C2494 1.351 . S
C2494 C2488 1.428 . S
C2494 N2493 1.351 . S
C2494 C2495 1.434 . S
C2495 C2486 1.429 . S
C2495 N2492 1.350 . S
C2495 C2494 1.434 . S
C2496 C2497 1.369 . S
C2496 C2498 1.419 . S
C2496 H2500 0.930 . S
C2497 C2496 1.369 . S
C2497 C2506 1.429 . S
C2498 C2496 1.419 . S
C2498 C2499 1.363 . S
C2498 H2501 0.929 . S
C2499 C2498 1.363 . S
C2499 C2505 1.428 . S
H2500 C2496 0.930 . S
H2501 C2498 0.929 . S
S2502 N2503 1.613 . S
S2502 N2504 1.610 . S
N2503 S2502 1.613 . S
N2503 C2506 1.350 . S
N2504 S2502 1.610 . S
N2504 C2505 1.351 . S
C2505 C2499 1.428 . S
C2505 N2504 1.351 . S
C2505 C2506 1.434 . S
C2506 C2497 1.429 . S
C2506 N2503 1.350 . S
C2506 C2505 1.434 . S
C2507 C2508 1.369 . S
C2507 C2509 1.419 . S
C2507 H2511 0.930 . S
C2508 C2507 1.369 . S
C2508 C2517 1.429 . S
C2509 C2507 1.419 . S
C2509 C2510 1.363 . S
C2509 H2512 0.929 . S
C2510 C2509 1.363 . S
C2510 C2516 1.428 . S
H2511 C2507 0.930 . S
H2512 C2509 0.929 . S
S2513 N2514 1.613 . S
S2513 N2515 1.610 . S
N2514 S2513 1.613 . S
N2514 C2517 1.350 . S
N2515 S2513 1.610 . S
N2515 C2516 1.351 . S
C2516 C2510 1.428 . S
C2516 N2515 1.351 . S
C2516 C2517 1.434 . S
C2517 C2508 1.429 . S
C2517 N2514 1.350 . S
C2517 C2516 1.434 . S
C2518 C2519 1.369 . S
C2518 C2520 1.419 . S
C2518 H2522 0.930 . S
C2519 C2518 1.369 . S
C2519 C2528 1.429 . S
C2520 C2518 1.419 . S
C2520 C2521 1.363 . S
C2520 H2523 0.929 . S
C2521 C2520 1.363 . S
C2521 C2527 1.428 . S
H2522 C2518 0.930 . S
H2523 C2520 0.929 . S
S2524 N2525 1.613 . S
S2524 N2526 1.610 . S
N2525 S2524 1.613 . S
N2525 C2528 1.350 . S
N2526 S2524 1.610 . S
N2526 C2527 1.351 . S
C2527 C2521 1.428 . S
C2527 N2526 1.351 . S
C2527 C2528 1.434 . S
C2528 C2519 1.429 . S
C2528 N2525 1.350 . S
C2528 C2527 1.434 . S
C2529 C2530 1.369 . S
C2529 C2531 1.419 . S
C2529 H2533 0.930 . S
C2530 C2529 1.369 . S
C2530 C2539 1.429 . S
C2531 C2529 1.419 . S
C2531 C2532 1.363 . S
C2531 H2534 0.929 . S
C2532 C2531 1.363 . S
C2532 C2538 1.428 . S
H2533 C2529 0.930 . S
H2534 C2531 0.929 . S
S2535 N2536 1.613 . S
S2535 N2537 1.610 . S
N2536 S2535 1.613 . S
N2536 C2539 1.350 . S
N2537 S2535 1.610 . S
N2537 C2538 1.351 . S
C2538 C2532 1.428 . S
C2538 N2537 1.351 . S
C2538 C2539 1.434 . S
C2539 C2530 1.429 . S
C2539 N2536 1.350 . S
C2539 C2538 1.434 . S
C2540 C2541 1.369 . S
C2540 C2542 1.419 . S
C2540 H2544 0.930 . S
C2541 C2540 1.369 . S
C2541 C2550 1.429 . S
C2542 C2540 1.419 . S
C2542 C2543 1.363 . S
C2542 H2545 0.929 . S
C2543 C2542 1.363 . S
C2543 C2549 1.428 . S
H2544 C2540 0.930 . S
H2545 C2542 0.929 . S
S2546 N2547 1.613 . S
S2546 N2548 1.610 . S
N2547 S2546 1.613 . S
N2547 C2550 1.350 . S
N2548 S2546 1.610 . S
N2548 C2549 1.351 . S
C2549 C2543 1.428 . S
C2549 N2548 1.351 . S
C2549 C2550 1.434 . S
C2550 C2541 1.429 . S
C2550 N2547 1.350 . S
C2550 C2549 1.434 . S
C2551 C2552 1.369 . S
C2551 C2553 1.419 . S
C2551 H2555 0.930 . S
C2552 C2551 1.369 . S
C2552 C2561 1.429 . S
C2553 C2551 1.419 . S
C2553 C2554 1.363 . S
C2553 H2556 0.929 . S
C2554 C2553 1.363 . S
C2554 C2560 1.428 . S
H2555 C2551 0.930 . S
H2556 C2553 0.929 . S
S2557 N2558 1.613 . S
S2557 N2559 1.610 . S
N2558 S2557 1.613 . S
N2558 C2561 1.350 . S
N2559 S2557 1.610 . S
N2559 C2560 1.351 . S
C2560 C2554 1.428 . S
C2560 N2559 1.351 . S
C2560 C2561 1.434 . S
C2561 C2552 1.429 . S
C2561 N2558 1.350 . S
C2561 C2560 1.434 . S
C2562 C2563 1.369 . S
C2562 C2564 1.419 . S
C2562 H2566 0.930 . S
C2563 C2562 1.369 . S
C2563 C2572 1.429 . S
C2564 C2562 1.419 . S
C2564 C2565 1.363 . S
C2564 H2567 0.929 . S
C2565 C2564 1.363 . S
C2565 C2571 1.428 . S
H2566 C2562 0.930 . S
H2567 C2564 0.929 . S
S2568 N2569 1.613 . S
S2568 N2570 1.610 . S
N2569 S2568 1.613 . S
N2569 C2572 1.350 . S
N2570 S2568 1.610 . S
N2570 C2571 1.351 . S
C2571 C2565 1.428 . S
C2571 N2570 1.351 . S
C2571 C2572 1.434 . S
C2572 C2563 1.429 . S
C2572 N2569 1.350 . S
C2572 C2571 1.434 . S
C2573 C2574 1.369 . S
C2573 C2575 1.419 . S
C2573 H2577 0.930 . S
C2574 C2573 1.369 . S
C2574 C2583 1.429 . S
C2575 C2573 1.419 . S
C2575 C2576 1.363 . S
C2575 H2578 0.929 . S
C2576 C2575 1.363 . S
C2576 C2582 1.428 . S
H2577 C2573 0.930 . S
H2578 C2575 0.929 . S
S2579 N2580 1.613 . S
S2579 N2581 1.610 . S
N2580 S2579 1.613 . S
N2580 C2583 1.350 . S
N2581 S2579 1.610 . S
N2581 C2582 1.351 . S
C2582 C2576 1.428 . S
C2582 N2581 1.351 . S
C2582 C2583 1.434 . S
C2583 C2574 1.429 . S
C2583 N2580 1.350 . S
C2583 C2582 1.434 . S
C2584 C2585 1.369 . S
C2584 C2586 1.419 . S
C2584 H2588 0.930 . S
C2585 C2584 1.369 . S
C2585 C2594 1.429 . S
C2586 C2584 1.419 . S
C2586 C2587 1.363 . S
C2586 H2589 0.929 . S
C2587 C2586 1.363 . S
C2587 C2593 1.428 . S
H2588 C2584 0.930 . S
H2589 C2586 0.929 . S
S2590 N2591 1.613 . S
S2590 N2592 1.610 . S
N2591 S2590 1.613 . S
N2591 C2594 1.350 . S
N2592 S2590 1.610 . S
N2592 C2593 1.351 . S
C2593 C2587 1.428 . S
C2593 N2592 1.351 . S
C2593 C2594 1.434 . S
C2594 C2585 1.429 . S
C2594 N2591 1.350 . S
C2594 C2593 1.434 . S
C2595 C2596 1.369 . S
C2595 C2597 1.419 . S
C2595 H2599 0.930 . S
C2596 C2595 1.369 . S
C2596 C2605 1.429 . S
C2597 C2595 1.419 . S
C2597 C2598 1.363 . S
C2597 H2600 0.929 . S
C2598 C2597 1.363 . S
C2598 C2604 1.428 . S
H2599 C2595 0.930 . S
H2600 C2597 0.929 . S
S2601 N2602 1.613 . S
S2601 N2603 1.610 . S
N2602 S2601 1.613 . S
N2602 C2605 1.350 . S
N2603 S2601 1.610 . S
N2603 C2604 1.351 . S
C2604 C2598 1.428 . S
C2604 N2603 1.351 . S
C2604 C2605 1.434 . S
C2605 C2596 1.429 . S
C2605 N2602 1.350 . S
C2605 C2604 1.434 . S
C2606 C2607 1.369 . S
C2606 C2608 1.419 . S
C2606 H2610 0.930 . S
C2607 C2606 1.369 . S
C2607 C2616 1.429 . S
C2608 C2606 1.419 . S
C2608 C2609 1.363 . S
C2608 H2611 0.929 . S
C2609 C2608 1.363 . S
C2609 C2615 1.428 . S
H2610 C2606 0.930 . S
H2611 C2608 0.929 . S
S2612 N2613 1.613 . S
S2612 N2614 1.610 . S
N2613 S2612 1.613 . S
N2613 C2616 1.350 . S
N2614 S2612 1.610 . S
N2614 C2615 1.351 . S
C2615 C2609 1.428 . S
C2615 N2614 1.351 . S
C2615 C2616 1.434 . S
C2616 C2607 1.429 . S
C2616 N2613 1.350 . S
C2616 C2615 1.434 . S
C2617 C2618 1.369 . S
C2617 C2619 1.419 . S
C2617 H2621 0.930 . S
C2618 C2617 1.369 . S
C2618 C2627 1.429 . S
C2619 C2617 1.419 . S
C2619 C2620 1.363 . S
C2619 H2622 0.929 . S
C2620 C2619 1.363 . S
C2620 C2626 1.428 . S
H2621 C2617 0.930 . S
H2622 C2619 0.929 . S
S2623 N2624 1.613 . S
S2623 N2625 1.610 . S
N2624 S2623 1.613 . S
N2624 C2627 1.350 . S
N2625 S2623 1.610 . S
N2625 C2626 1.351 . S
C2626 C2620 1.428 . S
C2626 N2625 1.351 . S
C2626 C2627 1.434 . S
C2627 C2618 1.429 . S
C2627 N2624 1.350 . S
C2627 C2626 1.434 . S
C1441 C610 2.514 . S
C1443 C10 2.521 . S
C1452 C650 2.514 . S
C1454 C50 2.519 . S
C1463 C90 2.514 . S
C1465 C690 2.521 . S
C1474 C130 2.520 . S
C1476 C970 2.517 . S
C1485 C170 2.522 . S
C1487 C1010 2.515 . S
C1496 C210 2.515 . S
C1498 C1050 2.518 . S
C1507 C1339 2.522 . S
C1509 C259 2.514 . S
C1518 C1379 2.513 . S
C1520 C299 2.521 . S
C1529 C339 2.519 . S
C1531 C1419 2.515 . S
C1540 C739 2.514 . S
C1542 C379 2.519 . S
C1551 C419 2.514 . S
C1553 C779 2.521 . S
C1562 C459 2.516 . S
C1564 C819 2.518 . S
C1573 C1090 2.521 . S
C1575 C490 2.514 . S
C1584 C530 2.514 . S
C1586 C1130 2.521 . S
C1595 C1170 2.515 . S
C1597 C570 2.521 . S
C1606 C1219 2.519 . S
C1608 C859 2.515 . S
C1617 C1259 2.520 . S
C1619 C899 2.515 . S
C1628 C939 2.515 . S
C1630 C1299 2.521 . S
C1639 C16 0.405 . S
C1641 C176 0.389 . S
C1650 C56 0.390 . S
C1652 C216 0.396 . S
C1661 C96 0.394 . S
C1663 C136 0.393 . S
C1672 C247 0.397 . S
C1674 C407 0.413 . S
C1683 C287 0.389 . S
C1685 C447 0.400 . S
C1694 C327 0.394 . S
C1696 C367 0.394 . S
C1705 C496 0.386 . S
C1707 C656 0.407 . S
C1716 C696 0.414 . S
C1718 C536 0.402 . S
C1727 C576 0.386 . S
C1729 C616 0.407 . S
C1738 C727 0.396 . S
C1740 C887 0.393 . S
C1749 C767 0.388 . S
C1751 C927 0.410 . S
C1760 C847 0.409 . S
C1762 C807 0.406 . S
C1771 C976 0.404 . S
C1773 C1136 0.390 . S
C1782 C1176 0.415 . S
C1784 C1016 0.395 . S
C1793 C1056 0.413 . S
C1795 C1096 0.391 . S
C1804 C1207 0.400 . S
C1806 C1367 0.391 . S
C1815 C1247 0.393 . S
C1817 C1407 0.395 . S
C1826 C1287 0.393 . S
C1828 C1327 0.396 . S
C1837 C416 1.673 . S
C1839 C11 1.773 1_556 S
C1848 C51 1.769 1_556 S
C1850 C456 1.678 . S
C1859 C91 1.772 1_556 S
C1861 C376 1.670 . S
C1870 C131 1.769 . S
C1872 C336 1.673 . S
C1881 C171 1.774 . S
C1883 C256 1.671 . S
C1892 C296 1.675 . S
C1894 C211 1.769 . S
C1903 C242 1.768 . S
C1905 C167 1.674 . S
C1914 C207 1.673 . S
C1916 C282 1.769 . S
C1925 C322 1.768 . S
C1927 C127 1.675 . S
C1936 C362 1.768 . S
C1938 C87 1.676 . S
C1947 C7 1.678 . S
C1949 C402 1.772 . S
C1958 C47 1.679 . S
C1960 C442 1.771 . S
C1969 C896 1.677 . S
C1971 C491 1.769 . S
C1980 C936 1.671 . S
C1982 C531 1.774 . S
C1991 C856 1.670 . S
C1993 C571 1.771 . S
C2002 C816 1.671 . S
C2004 C611 1.774 . S
C2013 C651 1.774 . S
C2015 C736 1.673 . S
C2024 C776 1.671 . S
C2026 C691 1.774 . S
C2035 C647 1.675 . S
C2037 C722 1.769 . S
C2046 C762 1.768 . S
C2048 C687 1.676 . S
C2057 C802 1.774 . S
C2059 C607 1.673 . S
C2068 C567 1.669 . S
C2070 C842 1.773 . S
C2079 C882 1.770 . S
C2081 C487 1.671 . S
C2090 C922 1.775 . S
C2092 C527 1.673 . S
C2101 C971 1.768 . S
C2103 C1376 1.674 . S
C2112 C1011 1.774 . S
C2114 C1416 1.671 . S
C2123 C1336 1.676 . S
C2125 C1051 1.769 . S
C2134 C1296 1.670 . S
C2136 C1091 1.770 . S
C2145 C1131 1.768 . S
C2147 C1216 1.674 . S
C2156 C1256 1.675 . S
C2158 C1171 1.769 . S
C2167 C1202 1.773 . S
C2169 C1127 1.676 . S
C2178 C1167 1.679 . S
C2180 C1242 1.771 . S
C2189 C1282 1.772 . S
C2191 C1087 1.677 . S
C2200 C1322 1.769 . S
C2202 C1047 1.678 . S
C2211 C967 1.668 . S
C2213 C1362 1.773 . S
C2222 C1007 1.677 . S
C2224 C1402 1.769 . S
C2233 C2 3.333 . S
C2235 C162 3.332 . S
C2244 C202 3.333 . S
C2246 C42 3.333 . S
C2255 C82 3.333 . S
C2257 C122 3.332 . S
C2266 C251 3.333 . S
C2268 C411 3.333 . S
C2277 C451 3.333 . S
C2279 C291 3.333 . S
C2288 C331 3.333 . S
C2290 C371 3.333 . S
C2299 C642 3.334 . S
C2301 C482 3.332 . S
C2310 C682 3.334 . S
C2312 C522 3.332 . S
C2321 C602 3.332 . S
C2323 C562 3.333 . S
C2332 C891 3.334 . S
C2334 C731 3.333 . S
C2343 C771 3.333 . S
C2345 C931 3.332 . S
C2354 C851 3.332 . S
C2356 C811 3.333 . S
C2365 C1122 3.332 . S
C2367 C962 3.333 . S
C2376 C1002 3.331 . S
C2378 C1162 3.333 . S
C2387 C1042 3.333 . S
C2389 C1082 3.333 . S
C2398 C1371 3.333 . S
C2400 C1211 3.332 . S
C2409 C1251 3.333 . S
C2411 C1411 3.332 . S
C2420 C1291 3.332 . S
C2422 C1331 3.334 . S
C2431 C19 1.348 . S
C2433 C250 1.362 . S
C2442 C59 1.365 . S
C2444 C290 1.350 . S
C2453 C330 1.362 . S
C2455 C99 1.351 . S
C2464 C370 1.347 . S
C2466 C139 1.363 . S
C2475 C179 1.354 . S
C2477 C410 1.359 . S
C2486 C219 1.358 . S
C2488 C450 1.355 . S
C2497 C730 1.365 . S
C2499 C499 1.349 . S
C2508 C539 1.347 . S
C2510 C770 1.363 . S
C2519 C810 1.356 . S
C2521 C579 1.357 . S
C2530 C850 1.363 . S
C2532 C619 1.351 . S
C2541 C890 1.363 . S
C2543 C659 1.351 . S
C2552 C930 1.349 . S
C2554 C699 1.362 . S
C2563 C1210 1.364 . S
C2565 C979 1.350 . S
C2574 C1019 1.363 . S
C2576 C1250 1.350 . S
C2585 C1290 1.355 . S
C2587 C1059 1.356 . S
C2596 C1330 1.363 . S
C2598 C1099 1.350 . S
C2607 C1370 1.349 . S
C2609 C1139 1.362 . S
C2618 C1179 1.351 . S
C2620 C1410 1.360 . S
