# Generated by pormake.
# Topology umg, (4)-cn, num edge types: 1
# Building blocks:
#     Node 0, Type 0, BuildingBlock: CEKHIL_clean_sbu_0, # of connection points: 4
#     Node 1, Type 0, BuildingBlock: CEKHIL_clean_sbu_0, # of connection points: 4
#     Node 2, Type 0, BuildingBlock: CEKHIL_clean_sbu_0, # of connection points: 4
#     Node 3, Type 0, BuildingBlock: CEKHIL_clean_sbu_0, # of connection points: 4
#     Node 4, Type 0, BuildingBlock: CEKHIL_clean_sbu_0, # of connection points: 4
#     Node 5, Type 0, BuildingBlock: CEKHIL_clean_sbu_0, # of connection points: 4
#     Node 6, Type 0, BuildingBlock: CEKHIL_clean_sbu_0, # of connection points: 4
#     Node 7, Type 0, BuildingBlock: CEKHIL_clean_sbu_0, # of connection points: 4
#     Node 8, Type 0, BuildingBlock: CEKHIL_clean_sbu_0, # of connection points: 4
#     Node 9, Type 0, BuildingBlock: CEKHIL_clean_sbu_0, # of connection points: 4
#     Node 10, Type 0, BuildingBlock: CEKHIL_clean_sbu_0, # of connection points: 4
#     Node 11, Type 0, BuildingBlock: CEKHIL_clean_sbu_0, # of connection points: 4
#     Edge 12, Type (0, 0), BuildingBlock: OJICUG_clean_linker_0, # of connection points: 2
#     Edge 13, Type (0, 0), BuildingBlock: OJICUG_clean_linker_0, # of connection points: 2
#     Edge 14, Type (0, 0), BuildingBlock: OJICUG_clean_linker_0, # of connection points: 2
#     Edge 15, Type (0, 0), BuildingBlock: OJICUG_clean_linker_0, # of connection points: 2
#     Edge 16, Type (0, 0), BuildingBlock: OJICUG_clean_linker_0, # of connection points: 2
#     Edge 17, Type (0, 0), BuildingBlock: OJICUG_clean_linker_0, # of connection points: 2
#     Edge 18, Type (0, 0), BuildingBlock: OJICUG_clean_linker_0, # of connection points: 2
#     Edge 19, Type (0, 0), BuildingBlock: OJICUG_clean_linker_0, # of connection points: 2
#     Edge 20, Type (0, 0), BuildingBlock: OJICUG_clean_linker_0, # of connection points: 2
#     Edge 21, Type (0, 0), BuildingBlock: OJICUG_clean_linker_0, # of connection points: 2
#     Edge 22, Type (0, 0), BuildingBlock: OJICUG_clean_linker_0, # of connection points: 2
#     Edge 23, Type (0, 0), BuildingBlock: OJICUG_clean_linker_0, # of connection points: 2
#     Edge 24, Type (0, 0), BuildingBlock: OJICUG_clean_linker_0, # of connection points: 2
#     Edge 25, Type (0, 0), BuildingBlock: OJICUG_clean_linker_0, # of connection points: 2
#     Edge 26, Type (0, 0), BuildingBlock: OJICUG_clean_linker_0, # of connection points: 2
#     Edge 27, Type (0, 0), BuildingBlock: OJICUG_clean_linker_0, # of connection points: 2
#     Edge 28, Type (0, 0), BuildingBlock: OJICUG_clean_linker_0, # of connection points: 2
#     Edge 29, Type (0, 0), BuildingBlock: OJICUG_clean_linker_0, # of connection points: 2
#     Edge 30, Type (0, 0), BuildingBlock: OJICUG_clean_linker_0, # of connection points: 2
#     Edge 31, Type (0, 0), BuildingBlock: OJICUG_clean_linker_0, # of connection points: 2
#     Edge 32, Type (0, 0), BuildingBlock: OJICUG_clean_linker_0, # of connection points: 2
#     Edge 33, Type (0, 0), BuildingBlock: OJICUG_clean_linker_0, # of connection points: 2
#     Edge 34, Type (0, 0), BuildingBlock: OJICUG_clean_linker_0, # of connection points: 2
#     Edge 35, Type (0, 0), BuildingBlock: OJICUG_clean_linker_0, # of connection points: 2
# Relax obj value: 0.085
# Max RMSD: 0.196
# Mean RMSD: 0.196
data_MOF--net-umg--node1-CEKHIL_clean_sbu_0--edge1-OJICUG_clean_linker_0
_symmetry_space_group_name_H-M    P1
_symmetry_Int_Tables_number       1
_symmetry_cell_setting            triclinic
loop_
_symmetry_equiv_pos_as_xyz
'x, y, z'
_cell_length_a     20.677083
_cell_length_b     20.715095
_cell_length_c     60.233969
_cell_angle_alpha  89.978781
_cell_angle_beta   89.998735
_cell_angle_gamma 120.01816
loop_
_atom_site_label
_atom_site_type_symbol
_atom_site_fract_x
_atom_site_fract_y
_atom_site_fract_z
_atom_type_partial_charge
Co0 Co 0.32636 0.60181 0.08162 0.0
O1 O 0.42782 0.62245 0.08039 0.0
O2 O 0.33202 0.52063 0.06679 0.0
C3 C 0.32838 0.62929 0.11789 0.0
O4 O 0.21312 0.56507 0.08099 0.0
Co5 Co 0.30754 0.73817 0.09015 0.0
O6 O 0.19984 0.66244 0.09147 0.0
C7 C 0.35046 0.71742 0.04581 0.0
C8 C 0.40381 0.55926 0.0705 0.0
C9 C 0.17206 0.5943 0.08582 0.0
O10 O 0.34005 0.65396 0.05235 0.0
O11 O 0.34613 0.76405 0.05874 0.0
O12 O 0.31581 0.56417 0.11166 0.0
O13 O 0.34791 0.67849 0.10216 0.0
Co14 Co 0.72713 0.32129 0.41803 0.0
O15 O 0.80772 0.42272 0.4175 0.0
O16 O 0.81566 0.32785 0.40406 0.0
C17 C 0.69759 0.32096 0.45403 0.0
O18 O 0.65145 0.20837 0.41675 0.0
Co19 Co 0.57094 0.30146 0.4247 0.0
O20 O 0.53933 0.19403 0.4261 0.0
C21 C 0.63869 0.34467 0.38093 0.0
C22 C 0.84813 0.39931 0.40801 0.0
C23 C 0.5807 0.16688 0.42094 0.0
O24 O 0.69173 0.33562 0.38837 0.0
O25 O 0.58582 0.33961 0.39317 0.0
O26 O 0.75116 0.3093 0.44819 0.0
O27 O 0.66932 0.34154 0.43812 0.0
Co28 Co 0.41615 0.72841 0.74801 0.0
O29 O 0.39724 0.81036 0.74851 0.0
O30 O 0.4965 0.81558 0.73305 0.0
C31 C 0.39192 0.69996 0.78428 0.0
O32 O 0.45207 0.65142 0.74537 0.0
Co33 Co 0.28178 0.57197 0.75661 0.0
O34 O 0.35725 0.54021 0.75663 0.0
C35 C 0.29782 0.63817 0.71267 0.0
C36 C 0.45922 0.84926 0.73788 0.0
C37 C 0.42426 0.58118 0.75002 0.0
O38 O 0.3597 0.69382 0.71922 0.0
O39 O 0.25539 0.5833 0.72522 0.0
O40 O 0.45705 0.75223 0.77779 0.0
O41 O 0.34105 0.67171 0.76895 0.0
Co42 Co 0.69196 0.41278 0.08272 0.0
O43 O 0.59041 0.39198 0.0815 0.0
O44 O 0.68625 0.49406 0.06799 0.0
C45 C 0.6903 0.38444 0.11891 0.0
O46 O 0.80517 0.44968 0.08201 0.0
Co47 Co 0.71069 0.27602 0.09071 0.0
O48 O 0.81854 0.35171 0.09173 0.0
C49 C 0.66862 0.29854 0.04651 0.0
C50 C 0.61441 0.45519 0.07159 0.0
C51 C 0.84625 0.42013 0.08639 0.0
O52 O 0.67883 0.36161 0.05336 0.0
O53 O 0.67227 0.25108 0.05925 0.0
O54 O 0.70228 0.44956 0.11288 0.0
O55 O 0.67079 0.33568 0.10307 0.0
Co56 Co 0.28542 0.68808 0.4186 0.0
O57 O 0.20374 0.58715 0.41919 0.0
O58 O 0.19608 0.68173 0.40532 0.0
C59 C 0.31984 0.69167 0.45415 0.0
O60 O 0.36174 0.80074 0.41621 0.0
Co61 Co 0.44093 0.70724 0.42259 0.0
O62 O 0.47427 0.81478 0.42461 0.0
C63 C 0.36643 0.65978 0.38001 0.0
C64 C 0.16335 0.61045 0.4096 0.0
C65 C 0.43277 0.84216 0.41998 0.0
O66 O 0.3152 0.66916 0.38873 0.0
O67 O 0.42238 0.66731 0.39119 0.0
O68 O 0.26613 0.70374 0.44878 0.0
O69 O 0.34547 0.66854 0.43812 0.0
Co70 Co 0.60762 0.2846 0.7479 0.0
O71 O 0.6266 0.2027 0.74819 0.0
O72 O 0.52744 0.19779 0.73277 0.0
C73 C 0.6313 0.31182 0.78425 0.0
O74 O 0.57184 0.36173 0.74545 0.0
Co75 Co 0.74207 0.44079 0.75706 0.0
O76 O 0.66639 0.47231 0.75721 0.0
C77 C 0.72645 0.37637 0.71284 0.0
C78 C 0.56464 0.16399 0.73755 0.0
C79 C 0.59959 0.43177 0.75037 0.0
O80 O 0.66448 0.32033 0.71918 0.0
O81 O 0.76867 0.43065 0.7256 0.0
O82 O 0.56628 0.25974 0.77764 0.0
O83 O 0.68233 0.34056 0.76897 0.0
Co84 Co 0.41454 0.68949 0.58331 0.0
O85 O 0.39565 0.58865 0.58301 0.0
O86 O 0.49525 0.68294 0.59818 0.0
C87 C 0.38947 0.69254 0.54705 0.0
O88 O 0.45046 0.80241 0.58575 0.0
Co89 Co 0.28005 0.71165 0.57464 0.0
O90 O 0.35565 0.81877 0.57439 0.0
C91 C 0.29669 0.66248 0.6187 0.0
C92 C 0.45794 0.61193 0.59348 0.0
C93 C 0.42267 0.84484 0.58101 0.0
O94 O 0.35858 0.6685 0.6122 0.0
O95 O 0.25415 0.67462 0.6061 0.0
O96 O 0.4548 0.70569 0.55343 0.0
O97 O 0.33905 0.67058 0.5625 0.0
Co98 Co 0.73079 0.41033 0.91291 0.0
O99 O 0.81269 0.39149 0.91177 0.0
O100 O 0.8202 0.49314 0.9261 0.0
C101 C 0.69582 0.38048 0.87734 0.0
O102 O 0.65445 0.44643 0.91593 0.0
Co103 Co 0.57525 0.27476 0.90887 0.0
O104 O 0.54172 0.34884 0.90737 0.0
C105 C 0.65068 0.30007 0.9513 0.0
C106 C 0.8531 0.45501 0.92142 0.0
C107 C 0.58344 0.41735 0.91229 0.0
O108 O 0.70221 0.36067 0.94269 0.0
O109 O 0.59397 0.25279 0.94016 0.0
O110 O 0.74907 0.44625 0.88283 0.0
O111 O 0.67056 0.33124 0.89325 0.0
Co112 Co 0.32845 0.72571 0.24692 0.0
O113 O 0.42994 0.80631 0.2475 0.0
O114 O 0.33453 0.81391 0.26082 0.0
C115 C 0.32863 0.69608 0.21099 0.0
O116 O 0.21538 0.64989 0.24818 0.0
Co117 Co 0.3094 0.57024 0.24072 0.0
O118 O 0.20158 0.5379 0.23929 0.0
C119 C 0.35097 0.63788 0.28444 0.0
C120 C 0.4062 0.84644 0.25698 0.0
C121 C 0.17407 0.57909 0.24422 0.0
O122 O 0.34253 0.6908 0.27664 0.0
O123 O 0.34638 0.58489 0.27241 0.0
O124 O 0.31663 0.74941 0.21673 0.0
O125 O 0.34931 0.66807 0.22695 0.0
Co126 Co 0.60697 0.32487 0.58343 0.0
O127 O 0.62588 0.42572 0.58292 0.0
O128 O 0.52651 0.33179 0.59833 0.0
C129 C 0.63141 0.32088 0.54717 0.0
O130 O 0.57098 0.21195 0.58606 0.0
Co131 Co 0.7412 0.30249 0.5749 0.0
O132 O 0.66563 0.19541 0.57468 0.0
C133 C 0.72506 0.35252 0.61884 0.0
C134 C 0.56379 0.40269 0.59348 0.0
C135 C 0.59864 0.16944 0.58131 0.0
O136 O 0.66329 0.34656 0.61226 0.0
O137 O 0.76745 0.33993 0.6063 0.0
O138 O 0.56622 0.30794 0.55365 0.0
O139 O 0.68222 0.34335 0.56252 0.0
Co140 Co 0.2906 0.6035 0.91301 0.0
O141 O 0.20881 0.62249 0.9117 0.0
O142 O 0.2012 0.52121 0.92639 0.0
C143 C 0.32541 0.6323 0.87736 0.0
O144 O 0.36682 0.56725 0.9162 0.0
Co145 Co 0.44658 0.73874 0.90846 0.0
O146 O 0.47941 0.66415 0.90708 0.0
C147 C 0.37137 0.71538 0.95093 0.0
C148 C 0.16837 0.55928 0.92153 0.0
C149 C 0.43766 0.59591 0.91232 0.0
O150 O 0.31946 0.65434 0.94264 0.0
O151 O 0.42815 0.76177 0.93963 0.0
O152 O 0.27207 0.56672 0.88299 0.0
O153 O 0.35084 0.68187 0.89315 0.0
Co154 Co 0.69439 0.28301 0.24727 0.0
O155 O 0.59347 0.20125 0.24672 0.0
O156 O 0.68855 0.19396 0.26049 0.0
C157 C 0.69684 0.31691 0.21168 0.0
O158 O 0.80725 0.35958 0.24956 0.0
Co159 Co 0.7133 0.43806 0.24312 0.0
O160 O 0.82104 0.47166 0.24099 0.0
C161 C 0.66462 0.36321 0.28569 0.0
C162 C 0.61711 0.16108 0.25625 0.0
C163 C 0.84863 0.43042 0.24567 0.0
O164 O 0.67502 0.3124 0.27718 0.0
O165 O 0.67238 0.41897 0.2744 0.0
O166 O 0.70991 0.26391 0.21701 0.0
O167 O 0.67402 0.34245 0.2278 0.0
C168 C 0.29695 0.68257 0.98587 0.0
C169 C 0.36531 0.72782 0.97496 0.0
H170 H 0.23961 0.64481 0.01687 0.0
C171 C 0.42757 0.77792 0.9877 0.0
H172 H 0.24748 0.64394 0.97669 0.0
C173 C 0.4224 0.77876 0.01098 0.0
C174 C 0.35497 0.72972 0.02167 0.0
H175 H 0.48099 0.81342 0.97983 0.0
H176 H 0.47177 0.8146 0.02064 0.0
C177 C 0.29209 0.68318 0.00891 0.0
C178 C 0.63049 0.28883 0.34432 0.0
C179 C 0.63341 0.34757 0.3566 0.0
H180 H 0.63581 0.2468 0.31265 0.0
C181 C 0.63954 0.40986 0.34537 0.0
H182 H 0.62557 0.24015 0.35265 0.0
C183 C 0.64679 0.41467 0.32208 0.0
C184 C 0.64742 0.35691 0.30986 0.0
H185 H 0.64238 0.45604 0.35462 0.0
H186 H 0.65469 0.4645 0.31379 0.0
C187 C 0.63671 0.29304 0.32133 0.0
C188 C 0.28134 0.69826 0.67902 0.0
C189 C 0.27946 0.63603 0.68898 0.0
H190 H 0.28496 0.75364 0.64853 0.0
C191 C 0.27283 0.57769 0.67554 0.0
H192 H 0.28746 0.74428 0.68911 0.0
C193 C 0.27387 0.58416 0.65239 0.0
C194 C 0.27881 0.64779 0.64245 0.0
H195 H 0.27267 0.52986 0.68289 0.0
H196 H 0.27425 0.54112 0.64227 0.0
C197 C 0.27974 0.70351 0.65589 0.0
C198 C 0.60238 0.23263 0.01128 0.0
C199 C 0.6658 0.28823 0.02228 0.0
H200 H 0.54709 0.19231 0.97983 0.0
C201 C 0.72591 0.34154 0.00979 0.0
H202 H 0.55518 0.19119 0.02071 0.0
C203 C 0.72195 0.3419 0.98676 0.0
C204 C 0.65695 0.28965 0.97549 0.0
H205 H 0.77546 0.38478 0.01795 0.0
H206 H 0.76922 0.38552 0.97788 0.0
C207 C 0.59782 0.23347 0.98796 0.0
C208 C 0.40902 0.62786 0.32041 0.0
C209 C 0.35299 0.63351 0.30885 0.0
H210 H 0.45843 0.63262 0.35234 0.0
C211 C 0.29945 0.64151 0.32085 0.0
H212 H 0.45105 0.62182 0.31142 0.0
C213 C 0.3028 0.64659 0.34383 0.0
C214 C 0.36078 0.64518 0.35568 0.0
H215 H 0.25532 0.64538 0.31233 0.0
H216 H 0.26073 0.65424 0.3522 0.0
C217 C 0.41329 0.6343 0.34375 0.0
C218 C 0.75165 0.32326 0.67903 0.0
C219 C 0.74453 0.38051 0.6891 0.0
H220 H 0.75437 0.27153 0.64842 0.0
C221 C 0.74118 0.43427 0.67576 0.0
H222 H 0.75309 0.28059 0.68907 0.0
C223 C 0.7394 0.42772 0.65263 0.0
C224 C 0.74341 0.36871 0.64254 0.0
H225 H 0.73423 0.47801 0.68323 0.0
H226 H 0.73148 0.46674 0.64264 0.0
C227 C 0.75249 0.31818 0.65586 0.0
C228 C 0.32734 0.72619 0.17096 0.0
C229 C 0.32803 0.67769 0.18727 0.0
H230 H 0.32774 0.74949 0.13623 0.0
C231 C 0.32836 0.61315 0.18056 0.0
H232 H 0.32727 0.77666 0.17561 0.0
C233 C 0.32757 0.59726 0.15795 0.0
C234 C 0.32772 0.64627 0.14166 0.0
H235 H 0.3287 0.57483 0.19274 0.0
H236 H 0.32772 0.54689 0.15323 0.0
C237 C 0.3278 0.71095 0.14838 0.0
C238 C 0.61363 0.31878 0.48451 0.0
C239 C 0.67888 0.31966 0.47775 0.0
H240 H 0.54694 0.31724 0.51191 0.0
C241 C 0.72788 0.31965 0.49402 0.0
H242 H 0.57488 0.3185 0.47235 0.0
C243 C 0.71265 0.31997 0.51659 0.0
C244 C 0.64743 0.31898 0.52337 0.0
H245 H 0.77886 0.32046 0.48933 0.0
H246 H 0.75177 0.32076 0.5287 0.0
C247 C 0.59771 0.31776 0.50714 0.0
C248 C 0.31173 0.61651 0.81478 0.0
C249 C 0.37603 0.68168 0.80807 0.0
H250 H 0.2462 0.54961 0.84194 0.0
C251 C 0.42493 0.73064 0.82436 0.0
H252 H 0.27329 0.5778 0.80262 0.0
C253 C 0.40896 0.71528 0.84698 0.0
C254 C 0.34457 0.64999 0.85366 0.0
H255 H 0.47498 0.7816 0.81963 0.0
H256 H 0.44694 0.75418 0.85918 0.0
C257 C 0.29653 0.60049 0.83733 0.0
C258 C 0.69493 0.30351 0.14898 0.0
C259 C 0.69257 0.36723 0.14259 0.0
H260 H 0.69922 0.2385 0.17585 0.0
C261 C 0.69222 0.41524 0.15913 0.0
H262 H 0.6955 0.26579 0.13663 0.0
C263 C 0.69328 0.39925 0.18166 0.0
C264 C 0.69607 0.33568 0.18804 0.0
H265 H 0.69022 0.46487 0.15467 0.0
H266 H 0.69239 0.43673 0.19404 0.0
C267 C 0.69733 0.28824 0.17147 0.0
C268 C 0.4216 0.69452 0.50687 0.0
C269 C 0.37281 0.69418 0.52329 0.0
H270 H 0.4428 0.69287 0.47197 0.0
C271 C 0.30769 0.69376 0.51675 0.0
H272 H 0.47227 0.69458 0.51146 0.0
C273 C 0.29161 0.69384 0.49425 0.0
C274 C 0.33963 0.69301 0.47778 0.0
H275 H 0.26926 0.69362 0.529 0.0
H276 H 0.2407 0.69351 0.48979 0.0
C277 C 0.40479 0.69324 0.48428 0.0
C278 C 0.72555 0.41157 0.83732 0.0
C279 C 0.67719 0.36224 0.85364 0.0
H280 H 0.74949 0.43398 0.80263 0.0
C281 C 0.61304 0.29677 0.84694 0.0
H282 H 0.77574 0.46256 0.84193 0.0
C283 C 0.59756 0.28117 0.82431 0.0
C284 C 0.64673 0.33007 0.80804 0.0
H285 H 0.57483 0.25799 0.85913 0.0
H286 H 0.54764 0.23014 0.81956 0.0
C287 C 0.71084 0.39532 0.81477 0.0
C288 C 0.97268 0.4297 0.0846 0.0
C289 C 0.92957 0.46538 0.08513 0.0
H290 H 0.082 0.44145 0.08416 0.0
C291 C 0.96721 0.54354 0.08499 0.0
H292 H 0.94585 0.36944 0.08449 0.0
C293 C 0.04556 0.58472 0.08496 0.0
C294 C 0.0887 0.54904 0.08481 0.0
H295 H 0.93626 0.57299 0.08536 0.0
H296 H 0.07236 0.64497 0.08516 0.0
C297 C 0.05104 0.47089 0.08431 0.0
C298 C 0.46466 0.04004 0.41978 0.0
C299 C 0.5435 0.08384 0.41966 0.0
H300 H 0.36794 0.93037 0.41975 0.0
C301 C 0.58493 0.04715 0.41875 0.0
H302 H 0.4305 0.06608 0.42029 0.0
C303 C 0.5487 0.96902 0.41856 0.0
C304 C 0.46988 0.92522 0.41905 0.0
H305 H 0.64542 0.07868 0.4186 0.0
H306 H 0.58283 0.94293 0.41815 0.0
C307 C 0.42842 0.96192 0.41937 0.0
C308 C 0.58968 0.54809 0.74841 0.0
C309 C 0.55416 0.46932 0.74823 0.0
H310 H 0.57745 0.64522 0.74883 0.0
C311 C 0.476 0.4285 0.74705 0.0
H312 H 0.64999 0.58178 0.74907 0.0
C313 C 0.43453 0.46529 0.74704 0.0
C314 C 0.46999 0.54398 0.74796 0.0
H315 H 0.44672 0.36813 0.74682 0.0
H316 H 0.37418 0.43165 0.74663 0.0
C317 C 0.54823 0.58488 0.74815 0.0
C318 C 0.58817 0.04308 0.58386 0.0
C319 C 0.55283 0.08651 0.58332 0.0
H320 H 0.57573 0.93365 0.58382 0.0
C321 C 0.47458 0.04941 0.58352 0.0
H322 H 0.64851 0.06956 0.58396 0.0
C323 C 0.43297 0.97121 0.58329 0.0
C324 C 0.46834 0.92777 0.5831 0.0
H325 H 0.44544 0.08066 0.58314 0.0
H326 H 0.37264 0.94476 0.58294 0.0
C327 C 0.54655 0.96488 0.58388 0.0
C328 C 0.43223 0.47147 0.91409 0.0
C329 C 0.47422 0.54957 0.91379 0.0
H330 H 0.43348 0.36892 0.91383 0.0
C331 C 0.55297 0.58404 0.91405 0.0
H332 H 0.37177 0.44299 0.91391 0.0
C333 C 0.58871 0.54167 0.91411 0.0
C334 C 0.54674 0.46358 0.91371 0.0
H335 H 0.58748 0.64421 0.914 0.0
H336 H 0.64917 0.57018 0.91397 0.0
C337 C 0.46798 0.42909 0.91395 0.0
C338 C 0.05385 0.58277 0.24658 0.0
C339 C 0.09084 0.54164 0.24557 0.0
H340 H 0.94926 0.58027 0.24741 0.0
C341 C 0.04717 0.46293 0.24551 0.0
H342 H 0.08525 0.64315 0.24671 0.0
C343 C 0.96889 0.42651 0.24607 0.0
C344 C 0.93189 0.46767 0.24649 0.0
H345 H 0.07344 0.429 0.24493 0.0
H346 H 0.93744 0.36614 0.24572 0.0
C347 C 0.97557 0.54635 0.24692 0.0
C348 C 0.58593 0.55836 0.06524 0.0
C349 C 0.56147 0.48199 0.06658 0.0
H350 H 0.55463 0.64254 0.06533 0.0
C351 C 0.48404 0.4308 0.06592 0.0
H352 H 0.64499 0.59909 0.06574 0.0
C353 C 0.4321 0.45551 0.0654 0.0
C354 C 0.45658 0.53197 0.06589 0.0
H355 H 0.46339 0.37139 0.06678 0.0
H356 H 0.37304 0.41485 0.06608 0.0
C357 C 0.534 0.58308 0.06508 0.0
C358 C 0.98078 0.42805 0.40384 0.0
C359 C 0.92851 0.45231 0.40399 0.0
H360 H 0.09635 0.45956 0.40556 0.0
C361 C 0.95457 0.52954 0.40321 0.0
H362 H 0.96253 0.36912 0.40453 0.0
C363 C 0.03123 0.58151 0.40355 0.0
C364 C 0.08334 0.55726 0.40508 0.0
H365 H 0.9155 0.54997 0.40321 0.0
H366 H 0.04939 0.64045 0.4039 0.0
C367 C 0.0574 0.48002 0.40457 0.0
C368 C 0.58815 0.05762 0.7322 0.0
C369 C 0.53717 0.084 0.73298 0.0
H370 H 0.60364 0.96248 0.73254 0.0
C371 C 0.46049 0.03217 0.73233 0.0
H372 H 0.64775 0.09637 0.73258 0.0
C373 C 0.4354 0.95553 0.73268 0.0
C374 C 0.48643 0.92917 0.73323 0.0
H375 H 0.41994 0.05069 0.733 0.0
H376 H 0.37584 0.91681 0.73342 0.0
C377 C 0.56305 0.98097 0.73208 0.0
C378 C 0.43457 0.48209 0.59882 0.0
C379 C 0.48549 0.55941 0.59803 0.0
H380 H 0.41924 0.37154 0.59859 0.0
C381 C 0.56218 0.58424 0.59877 0.0
H382 H 0.37497 0.46124 0.59838 0.0
C383 C 0.58737 0.53272 0.59853 0.0
C384 C 0.53642 0.45538 0.59801 0.0
H385 H 0.60268 0.64327 0.59811 0.0
H386 H 0.64695 0.55356 0.59787 0.0
C387 C 0.45977 0.43058 0.59904 0.0
C388 C 0.03607 0.45578 0.92646 0.0
C389 C 0.08812 0.53221 0.92554 0.0
H390 H 0.92045 0.37159 0.92583 0.0
C391 C 0.06205 0.58341 0.92602 0.0
H392 H 0.05442 0.41512 0.92608 0.0
C393 C 0.98539 0.55867 0.9262 0.0
C394 C 0.93335 0.48222 0.92548 0.0
H395 H 0.10103 0.64285 0.92547 0.0
H396 H 0.96705 0.59932 0.92562 0.0
C397 C 0.95942 0.43104 0.92622 0.0
C398 C 0.43473 0.97854 0.26173 0.0
C399 C 0.45919 0.92652 0.26122 0.0
H400 H 0.46606 0.09389 0.26054 0.0
C401 C 0.53659 0.95262 0.26194 0.0
H402 H 0.37567 0.96025 0.26114 0.0
C403 C 0.58854 0.02917 0.26185 0.0
C404 C 0.56407 0.0811 0.26065 0.0
H405 H 0.55718 0.91373 0.26168 0.0
H406 H 0.64761 0.04744 0.2614 0.0
C407 C 0.48667 0.05506 0.26127 0.0
loop_
_geom_bond_atom_site_label_1
_geom_bond_atom_site_label_2
_geom_bond_distance
_geom_bond_site_symmetry_2
_ccdc_geom_bond_type
Co0 O1 2.216 . S
Co0 O2 2.091 . S
Co0 O4 2.004 . S
Co0 O10 2.021 . S
Co0 O12 2.137 . S
Co0 O13 2.244 . S
O1 Co0 2.216 . S
O1 C8 1.247 . S
O2 Co0 2.091 . S
O2 C8 1.261 . S
C3 O12 1.247 . S
C3 O13 1.272 . S
O4 Co0 2.004 . S
O4 C9 1.259 . S
Co5 O6 2.061 . S
Co5 O11 2.052 . S
Co5 O13 2.135 . S
O6 Co5 2.061 . S
O6 C9 1.235 . S
C7 O10 1.238 . S
C7 O11 1.241 . S
C8 O1 1.247 . S
C8 O2 1.261 . S
C9 O4 1.259 . S
C9 O6 1.235 . S
O10 Co0 2.021 . S
O10 C7 1.238 . S
O11 Co5 2.052 . S
O11 C7 1.241 . S
O12 Co0 2.137 . S
O12 C3 1.247 . S
O13 Co0 2.244 . S
O13 C3 1.272 . S
O13 Co5 2.135 . S
Co14 O15 2.216 . S
Co14 O16 2.091 . S
Co14 O18 2.004 . S
Co14 O24 2.021 . S
Co14 O26 2.137 . S
Co14 O27 2.244 . S
O15 Co14 2.216 . S
O15 C22 1.247 . S
O16 Co14 2.091 . S
O16 C22 1.261 . S
C17 O26 1.247 . S
C17 O27 1.272 . S
O18 Co14 2.004 . S
O18 C23 1.259 . S
Co19 O20 2.061 . S
Co19 O25 2.052 . S
Co19 O27 2.135 . S
O20 Co19 2.061 . S
O20 C23 1.235 . S
C21 O24 1.238 . S
C21 O25 1.241 . S
C22 O15 1.247 . S
C22 O16 1.261 . S
C23 O18 1.259 . S
C23 O20 1.235 . S
O24 Co14 2.021 . S
O24 C21 1.238 . S
O25 Co19 2.052 . S
O25 C21 1.241 . S
O26 Co14 2.137 . S
O26 C17 1.247 . S
O27 Co14 2.244 . S
O27 C17 1.272 . S
O27 Co19 2.135 . S
Co28 O29 2.216 . S
Co28 O30 2.091 . S
Co28 O32 2.004 . S
Co28 O38 2.021 . S
Co28 O40 2.137 . S
Co28 O41 2.244 . S
O29 Co28 2.216 . S
O29 C36 1.247 . S
O30 Co28 2.091 . S
O30 C36 1.261 . S
C31 O40 1.247 . S
C31 O41 1.272 . S
O32 Co28 2.004 . S
O32 C37 1.259 . S
Co33 O34 2.061 . S
Co33 O39 2.052 . S
Co33 O41 2.135 . S
O34 Co33 2.061 . S
O34 C37 1.235 . S
C35 O38 1.238 . S
C35 O39 1.241 . S
C36 O29 1.247 . S
C36 O30 1.261 . S
C37 O32 1.259 . S
C37 O34 1.235 . S
O38 Co28 2.021 . S
O38 C35 1.238 . S
O39 Co33 2.052 . S
O39 C35 1.241 . S
O40 Co28 2.137 . S
O40 C31 1.247 . S
O41 Co28 2.244 . S
O41 C31 1.272 . S
O41 Co33 2.135 . S
Co42 O43 2.216 . S
Co42 O44 2.091 . S
Co42 O46 2.004 . S
Co42 O52 2.021 . S
Co42 O54 2.137 . S
Co42 O55 2.244 . S
O43 Co42 2.216 . S
O43 C50 1.247 . S
O44 Co42 2.091 . S
O44 C50 1.261 . S
C45 O54 1.247 . S
C45 O55 1.272 . S
O46 Co42 2.004 . S
O46 C51 1.259 . S
Co47 O48 2.061 . S
Co47 O53 2.052 . S
Co47 O55 2.135 . S
O48 Co47 2.061 . S
O48 C51 1.235 . S
C49 O52 1.238 . S
C49 O53 1.241 . S
C50 O43 1.247 . S
C50 O44 1.261 . S
C51 O46 1.259 . S
C51 O48 1.235 . S
O52 Co42 2.021 . S
O52 C49 1.238 . S
O53 Co47 2.052 . S
O53 C49 1.241 . S
O54 Co42 2.137 . S
O54 C45 1.247 . S
O55 Co42 2.244 . S
O55 C45 1.272 . S
O55 Co47 2.135 . S
Co56 O57 2.216 . S
Co56 O58 2.091 . S
Co56 O60 2.004 . S
Co56 O66 2.021 . S
Co56 O68 2.137 . S
Co56 O69 2.244 . S
O57 Co56 2.216 . S
O57 C64 1.247 . S
O58 Co56 2.091 . S
O58 C64 1.261 . S
C59 O68 1.247 . S
C59 O69 1.272 . S
O60 Co56 2.004 . S
O60 C65 1.259 . S
Co61 O62 2.061 . S
Co61 O67 2.052 . S
Co61 O69 2.135 . S
O62 Co61 2.061 . S
O62 C65 1.235 . S
C63 O66 1.238 . S
C63 O67 1.241 . S
C64 O57 1.247 . S
C64 O58 1.261 . S
C65 O60 1.259 . S
C65 O62 1.235 . S
O66 Co56 2.021 . S
O66 C63 1.238 . S
O67 Co61 2.052 . S
O67 C63 1.241 . S
O68 Co56 2.137 . S
O68 C59 1.247 . S
O69 Co56 2.244 . S
O69 C59 1.272 . S
O69 Co61 2.135 . S
Co70 O71 2.216 . S
Co70 O72 2.091 . S
Co70 O74 2.004 . S
Co70 O80 2.021 . S
Co70 O82 2.137 . S
Co70 O83 2.244 . S
O71 Co70 2.216 . S
O71 C78 1.247 . S
O72 Co70 2.091 . S
O72 C78 1.261 . S
C73 O82 1.247 . S
C73 O83 1.272 . S
O74 Co70 2.004 . S
O74 C79 1.259 . S
Co75 O76 2.061 . S
Co75 O81 2.052 . S
Co75 O83 2.135 . S
O76 Co75 2.061 . S
O76 C79 1.235 . S
C77 O80 1.238 . S
C77 O81 1.241 . S
C78 O71 1.247 . S
C78 O72 1.261 . S
C79 O74 1.259 . S
C79 O76 1.235 . S
O80 Co70 2.021 . S
O80 C77 1.238 . S
O81 Co75 2.052 . S
O81 C77 1.241 . S
O82 Co70 2.137 . S
O82 C73 1.247 . S
O83 Co70 2.244 . S
O83 C73 1.272 . S
O83 Co75 2.135 . S
Co84 O85 2.216 . S
Co84 O86 2.091 . S
Co84 O88 2.004 . S
Co84 O94 2.021 . S
Co84 O96 2.137 . S
Co84 O97 2.244 . S
O85 Co84 2.216 . S
O85 C92 1.247 . S
O86 Co84 2.091 . S
O86 C92 1.261 . S
C87 O96 1.247 . S
C87 O97 1.272 . S
O88 Co84 2.004 . S
O88 C93 1.259 . S
Co89 O90 2.061 . S
Co89 O95 2.052 . S
Co89 O97 2.135 . S
O90 Co89 2.061 . S
O90 C93 1.235 . S
C91 O94 1.238 . S
C91 O95 1.241 . S
C92 O85 1.247 . S
C92 O86 1.261 . S
C93 O88 1.259 . S
C93 O90 1.235 . S
O94 Co84 2.021 . S
O94 C91 1.238 . S
O95 Co89 2.052 . S
O95 C91 1.241 . S
O96 Co84 2.137 . S
O96 C87 1.247 . S
O97 Co84 2.244 . S
O97 C87 1.272 . S
O97 Co89 2.135 . S
Co98 O99 2.216 . S
Co98 O100 2.091 . S
Co98 O102 2.004 . S
Co98 O108 2.021 . S
Co98 O110 2.137 . S
Co98 O111 2.244 . S
O99 Co98 2.216 . S
O99 C106 1.247 . S
O100 Co98 2.091 . S
O100 C106 1.261 . S
C101 O110 1.247 . S
C101 O111 1.272 . S
O102 Co98 2.004 . S
O102 C107 1.259 . S
Co103 O104 2.061 . S
Co103 O109 2.052 . S
Co103 O111 2.135 . S
O104 Co103 2.061 . S
O104 C107 1.235 . S
C105 O108 1.238 . S
C105 O109 1.241 . S
C106 O99 1.247 . S
C106 O100 1.261 . S
C107 O102 1.259 . S
C107 O104 1.235 . S
O108 Co98 2.021 . S
O108 C105 1.238 . S
O109 Co103 2.052 . S
O109 C105 1.241 . S
O110 Co98 2.137 . S
O110 C101 1.247 . S
O111 Co98 2.244 . S
O111 C101 1.272 . S
O111 Co103 2.135 . S
Co112 O113 2.216 . S
Co112 O114 2.091 . S
Co112 O116 2.004 . S
Co112 O122 2.021 . S
Co112 O124 2.137 . S
Co112 O125 2.244 . S
O113 Co112 2.216 . S
O113 C120 1.247 . S
O114 Co112 2.091 . S
O114 C120 1.261 . S
C115 O124 1.247 . S
C115 O125 1.272 . S
O116 Co112 2.004 . S
O116 C121 1.259 . S
Co117 O118 2.061 . S
Co117 O123 2.052 . S
Co117 O125 2.135 . S
O118 Co117 2.061 . S
O118 C121 1.235 . S
C119 O122 1.238 . S
C119 O123 1.241 . S
C120 O113 1.247 . S
C120 O114 1.261 . S
C121 O116 1.259 . S
C121 O118 1.235 . S
O122 Co112 2.021 . S
O122 C119 1.238 . S
O123 Co117 2.052 . S
O123 C119 1.241 . S
O124 Co112 2.137 . S
O124 C115 1.247 . S
O125 Co112 2.244 . S
O125 C115 1.272 . S
O125 Co117 2.135 . S
Co126 O127 2.216 . S
Co126 O128 2.091 . S
Co126 O130 2.004 . S
Co126 O136 2.021 . S
Co126 O138 2.137 . S
Co126 O139 2.244 . S
O127 Co126 2.216 . S
O127 C134 1.247 . S
O128 Co126 2.091 . S
O128 C134 1.261 . S
C129 O138 1.247 . S
C129 O139 1.272 . S
O130 Co126 2.004 . S
O130 C135 1.259 . S
Co131 O132 2.061 . S
Co131 O137 2.052 . S
Co131 O139 2.135 . S
O132 Co131 2.061 . S
O132 C135 1.235 . S
C133 O136 1.238 . S
C133 O137 1.241 . S
C134 O127 1.247 . S
C134 O128 1.261 . S
C135 O130 1.259 . S
C135 O132 1.235 . S
O136 Co126 2.021 . S
O136 C133 1.238 . S
O137 Co131 2.052 . S
O137 C133 1.241 . S
O138 Co126 2.137 . S
O138 C129 1.247 . S
O139 Co126 2.244 . S
O139 C129 1.272 . S
O139 Co131 2.135 . S
Co140 O141 2.216 . S
Co140 O142 2.091 . S
Co140 O144 2.004 . S
Co140 O150 2.021 . S
Co140 O152 2.137 . S
Co140 O153 2.244 . S
O141 Co140 2.216 . S
O141 C148 1.247 . S
O142 Co140 2.091 . S
O142 C148 1.261 . S
C143 O152 1.247 . S
C143 O153 1.272 . S
O144 Co140 2.004 . S
O144 C149 1.259 . S
Co145 O146 2.061 . S
Co145 O151 2.052 . S
Co145 O153 2.135 . S
O146 Co145 2.061 . S
O146 C149 1.235 . S
C147 O150 1.238 . S
C147 O151 1.241 . S
C148 O141 1.247 . S
C148 O142 1.261 . S
C149 O144 1.259 . S
C149 O146 1.235 . S
O150 Co140 2.021 . S
O150 C147 1.238 . S
O151 Co145 2.052 . S
O151 C147 1.241 . S
O152 Co140 2.137 . S
O152 C143 1.247 . S
O153 Co140 2.244 . S
O153 C143 1.272 . S
O153 Co145 2.135 . S
Co154 O155 2.216 . S
Co154 O156 2.091 . S
Co154 O158 2.004 . S
Co154 O164 2.021 . S
Co154 O166 2.137 . S
Co154 O167 2.244 . S
O155 Co154 2.216 . S
O155 C162 1.247 . S
O156 Co154 2.091 . S
O156 C162 1.261 . S
C157 O166 1.247 . S
C157 O167 1.272 . S
O158 Co154 2.004 . S
O158 C163 1.259 . S
Co159 O160 2.061 . S
Co159 O165 2.052 . S
Co159 O167 2.135 . S
O160 Co159 2.061 . S
O160 C163 1.235 . S
C161 O164 1.238 . S
C161 O165 1.241 . S
C162 O155 1.247 . S
C162 O156 1.261 . S
C163 O158 1.259 . S
C163 O160 1.235 . S
O164 Co154 2.021 . S
O164 C161 1.238 . S
O165 Co159 2.052 . S
O165 C161 1.241 . S
O166 Co154 2.137 . S
O166 C157 1.247 . S
O167 Co154 2.244 . S
O167 C157 1.272 . S
O167 Co159 2.135 . S
C168 C169 1.387 . S
C168 H172 0.950 . S
C168 C177 1.390 1_556 S
C169 C168 1.387 . S
C169 C171 1.387 . S
H170 C177 0.950 . S
C171 C169 1.387 . S
C171 C173 1.390 1_556 S
C171 H175 0.950 . S
H172 C168 0.950 . S
C173 C171 1.390 1_554 S
C173 C174 1.387 . S
C173 H176 0.950 . S
C174 C173 1.387 . S
C174 C177 1.387 . S
H175 C171 0.950 . S
H176 C173 0.950 . S
C177 C168 1.390 1_554 S
C177 H170 0.950 . S
C177 C174 1.387 . S
C178 C179 1.387 . S
C178 H182 0.950 . S
C178 C187 1.390 . S
C179 C178 1.387 . S
C179 C181 1.387 . S
H180 C187 0.950 . S
C181 C179 1.387 . S
C181 C183 1.390 . S
C181 H185 0.950 . S
H182 C178 0.950 . S
C183 C181 1.390 . S
C183 C184 1.387 . S
C183 H186 0.950 . S
C184 C183 1.387 . S
C184 C187 1.387 . S
H185 C181 0.950 . S
H186 C183 0.950 . S
C187 C178 1.390 . S
C187 H180 0.950 . S
C187 C184 1.387 . S
C188 C189 1.387 . S
C188 H192 0.950 . S
C188 C197 1.390 . S
C189 C188 1.387 . S
C189 C191 1.387 . S
H190 C197 0.950 . S
C191 C189 1.387 . S
C191 C193 1.390 . S
C191 H195 0.950 . S
H192 C188 0.950 . S
C193 C191 1.390 . S
C193 C194 1.387 . S
C193 H196 0.950 . S
C194 C193 1.387 . S
C194 C197 1.387 . S
H195 C191 0.950 . S
H196 C193 0.950 . S
C197 C188 1.390 . S
C197 H190 0.950 . S
C197 C194 1.387 . S
C198 C199 1.387 . S
C198 H202 0.950 . S
C198 C207 1.390 1_554 S
C199 C198 1.387 . S
C199 C201 1.387 . S
H200 C207 0.950 . S
C201 C199 1.387 . S
C201 C203 1.390 1_554 S
C201 H205 0.950 . S
H202 C198 0.950 . S
C203 C201 1.390 1_556 S
C203 C204 1.387 . S
C203 H206 0.950 . S
C204 C203 1.387 . S
C204 C207 1.387 . S
H205 C201 0.950 . S
H206 C203 0.950 . S
C207 C198 1.390 1_556 S
C207 H200 0.950 . S
C207 C204 1.387 . S
C208 C209 1.387 . S
C208 H212 0.950 . S
C208 C217 1.390 . S
C209 C208 1.387 . S
C209 C211 1.387 . S
H210 C217 0.950 . S
C211 C209 1.387 . S
C211 C213 1.390 . S
C211 H215 0.950 . S
H212 C208 0.950 . S
C213 C211 1.390 . S
C213 C214 1.387 . S
C213 H216 0.950 . S
C214 C213 1.387 . S
C214 C217 1.387 . S
H215 C211 0.950 . S
H216 C213 0.950 . S
C217 C208 1.390 . S
C217 H210 0.950 . S
C217 C214 1.387 . S
C218 C219 1.387 . S
C218 H222 0.950 . S
C218 C227 1.390 . S
C219 C218 1.387 . S
C219 C221 1.387 . S
H220 C227 0.950 . S
C221 C219 1.387 . S
C221 C223 1.390 . S
C221 H225 0.950 . S
H222 C218 0.950 . S
C223 C221 1.390 . S
C223 C224 1.387 . S
C223 H226 0.950 . S
C224 C223 1.387 . S
C224 C227 1.387 . S
H225 C221 0.950 . S
H226 C223 0.950 . S
C227 C218 1.390 . S
C227 H220 0.950 . S
C227 C224 1.387 . S
C228 C229 1.387 . S
C228 H232 0.950 . S
C228 C237 1.390 . S
C229 C228 1.387 . S
C229 C231 1.387 . S
H230 C237 0.950 . S
C231 C229 1.387 . S
C231 C233 1.390 . S
C231 H235 0.950 . S
H232 C228 0.950 . S
C233 C231 1.390 . S
C233 C234 1.387 . S
C233 H236 0.950 . S
C234 C233 1.387 . S
C234 C237 1.387 . S
H235 C231 0.950 . S
H236 C233 0.950 . S
C237 C228 1.390 . S
C237 H230 0.950 . S
C237 C234 1.387 . S
C238 C239 1.387 . S
C238 H242 0.950 . S
C238 C247 1.390 . S
C239 C238 1.387 . S
C239 C241 1.387 . S
H240 C247 0.950 . S
C241 C239 1.387 . S
C241 C243 1.390 . S
C241 H245 0.950 . S
H242 C238 0.950 . S
C243 C241 1.390 . S
C243 C244 1.387 . S
C243 H246 0.950 . S
C244 C243 1.387 . S
C244 C247 1.387 . S
H245 C241 0.950 . S
H246 C243 0.950 . S
C247 C238 1.390 . S
C247 H240 0.950 . S
C247 C244 1.387 . S
C248 C249 1.387 . S
C248 H252 0.950 . S
C248 C257 1.390 . S
C249 C248 1.387 . S
C249 C251 1.387 . S
H250 C257 0.950 . S
C251 C249 1.387 . S
C251 C253 1.390 . S
C251 H255 0.950 . S
H252 C248 0.950 . S
C253 C251 1.390 . S
C253 C254 1.387 . S
C253 H256 0.950 . S
C254 C253 1.387 . S
C254 C257 1.387 . S
H255 C251 0.950 . S
H256 C253 0.950 . S
C257 C248 1.390 . S
C257 H250 0.950 . S
C257 C254 1.387 . S
C258 C259 1.387 . S
C258 H262 0.950 . S
C258 C267 1.390 . S
C259 C258 1.387 . S
C259 C261 1.387 . S
H260 C267 0.950 . S
C261 C259 1.387 . S
C261 C263 1.390 . S
C261 H265 0.950 . S
H262 C258 0.950 . S
C263 C261 1.390 . S
C263 C264 1.387 . S
C263 H266 0.950 . S
C264 C263 1.387 . S
C264 C267 1.387 . S
H265 C261 0.950 . S
H266 C263 0.950 . S
C267 C258 1.390 . S
C267 H260 0.950 . S
C267 C264 1.387 . S
C268 C269 1.387 . S
C268 H272 0.950 . S
C268 C277 1.390 . S
C269 C268 1.387 . S
C269 C271 1.387 . S
H270 C277 0.950 . S
C271 C269 1.387 . S
C271 C273 1.390 . S
C271 H275 0.950 . S
H272 C268 0.950 . S
C273 C271 1.390 . S
C273 C274 1.387 . S
C273 H276 0.950 . S
C274 C273 1.387 . S
C274 C277 1.387 . S
H275 C271 0.950 . S
H276 C273 0.950 . S
C277 C268 1.390 . S
C277 H270 0.950 . S
C277 C274 1.387 . S
C278 C279 1.387 . S
C278 H282 0.950 . S
C278 C287 1.390 . S
C279 C278 1.387 . S
C279 C281 1.387 . S
H280 C287 0.950 . S
C281 C279 1.387 . S
C281 C283 1.390 . S
C281 H285 0.950 . S
H282 C278 0.950 . S
C283 C281 1.390 . S
C283 C284 1.387 . S
C283 H286 0.950 . S
C284 C283 1.387 . S
C284 C287 1.387 . S
H285 C281 0.950 . S
H286 C283 0.950 . S
C287 C278 1.390 . S
C287 H280 0.950 . S
C287 C284 1.387 . S
C288 C289 1.387 . S
C288 H292 0.950 . S
C288 C297 1.390 1_655 S
C289 C288 1.387 . S
C289 C291 1.387 . S
H290 C297 0.950 . S
C291 C289 1.387 . S
C291 C293 1.390 1_655 S
C291 H295 0.950 . S
H292 C288 0.950 . S
C293 C291 1.390 1_455 S
C293 C294 1.387 . S
C293 H296 0.950 . S
C294 C293 1.387 . S
C294 C297 1.387 . S
H295 C291 0.950 . S
H296 C293 0.950 . S
C297 C288 1.390 1_455 S
C297 H290 0.950 . S
C297 C294 1.387 . S
C298 C299 1.387 . S
C298 H302 0.950 . S
C298 C307 1.390 1_545 S
C299 C298 1.387 . S
C299 C301 1.387 . S
H300 C307 0.950 . S
C301 C299 1.387 . S
C301 C303 1.390 1_545 S
C301 H305 0.950 . S
H302 C298 0.950 . S
C303 C301 1.390 1_565 S
C303 C304 1.387 . S
C303 H306 0.950 . S
C304 C303 1.387 . S
C304 C307 1.387 . S
H305 C301 0.950 . S
H306 C303 0.950 . S
C307 C298 1.390 1_565 S
C307 H300 0.950 . S
C307 C304 1.387 . S
C308 C309 1.387 . S
C308 H312 0.950 . S
C308 C317 1.390 . S
C309 C308 1.387 . S
C309 C311 1.387 . S
H310 C317 0.950 . S
C311 C309 1.387 . S
C311 C313 1.390 . S
C311 H315 0.950 . S
H312 C308 0.950 . S
C313 C311 1.390 . S
C313 C314 1.387 . S
C313 H316 0.950 . S
C314 C313 1.387 . S
C314 C317 1.387 . S
H315 C311 0.950 . S
H316 C313 0.950 . S
C317 C308 1.390 . S
C317 H310 0.950 . S
C317 C314 1.387 . S
C318 C319 1.387 . S
C318 H322 0.950 . S
C318 C327 1.390 1_545 S
C319 C318 1.387 . S
C319 C321 1.387 . S
H320 C327 0.950 . S
C321 C319 1.387 . S
C321 C323 1.390 1_545 S
C321 H325 0.950 . S
H322 C318 0.950 . S
C323 C321 1.390 1_565 S
C323 C324 1.387 . S
C323 H326 0.950 . S
C324 C323 1.387 . S
C324 C327 1.387 . S
H325 C321 0.950 . S
H326 C323 0.950 . S
C327 C318 1.390 1_565 S
C327 H320 0.950 . S
C327 C324 1.387 . S
C328 C329 1.387 . S
C328 H332 0.950 . S
C328 C337 1.390 . S
C329 C328 1.387 . S
C329 C331 1.387 . S
H330 C337 0.950 . S
C331 C329 1.387 . S
C331 C333 1.390 . S
C331 H335 0.950 . S
H332 C328 0.950 . S
C333 C331 1.390 . S
C333 C334 1.387 . S
C333 H336 0.950 . S
C334 C333 1.387 . S
C334 C337 1.387 . S
H335 C331 0.950 . S
H336 C333 0.950 . S
C337 C328 1.390 . S
C337 H330 0.950 . S
C337 C334 1.387 . S
C338 C339 1.387 . S
C338 H342 0.950 . S
C338 C347 1.390 1_455 S
C339 C338 1.387 . S
C339 C341 1.387 . S
H340 C347 0.950 . S
C341 C339 1.387 . S
C341 C343 1.390 1_455 S
C341 H345 0.950 . S
H342 C338 0.950 . S
C343 C341 1.390 1_655 S
C343 C344 1.387 . S
C343 H346 0.950 . S
C344 C343 1.387 . S
C344 C347 1.387 . S
H345 C341 0.950 . S
H346 C343 0.950 . S
C347 C338 1.390 1_655 S
C347 H340 0.950 . S
C347 C344 1.387 . S
C348 C349 1.387 . S
C348 H352 0.950 . S
C348 C357 1.390 . S
C349 C348 1.387 . S
C349 C351 1.387 . S
H350 C357 0.950 . S
C351 C349 1.387 . S
C351 C353 1.390 . S
C351 H355 0.950 . S
H352 C348 0.950 . S
C353 C351 1.390 . S
C353 C354 1.387 . S
C353 H356 0.950 . S
C354 C353 1.387 . S
C354 C357 1.387 . S
H355 C351 0.950 . S
H356 C353 0.950 . S
C357 C348 1.390 . S
C357 H350 0.950 . S
C357 C354 1.387 . S
C358 C359 1.387 . S
C358 H362 0.950 . S
C358 C367 1.390 1_655 S
C359 C358 1.387 . S
C359 C361 1.387 . S
H360 C367 0.950 . S
C361 C359 1.387 . S
C361 C363 1.390 1_655 S
C361 H365 0.950 . S
H362 C358 0.950 . S
C363 C361 1.390 1_455 S
C363 C364 1.387 . S
C363 H366 0.950 . S
C364 C363 1.387 . S
C364 C367 1.387 . S
H365 C361 0.950 . S
H366 C363 0.950 . S
C367 C358 1.390 1_455 S
C367 H360 0.950 . S
C367 C364 1.387 . S
C368 C369 1.387 . S
C368 H372 0.950 . S
C368 C377 1.390 1_545 S
C369 C368 1.387 . S
C369 C371 1.387 . S
H370 C377 0.950 . S
C371 C369 1.387 . S
C371 C373 1.390 1_545 S
C371 H375 0.950 . S
H372 C368 0.950 . S
C373 C371 1.390 1_565 S
C373 C374 1.387 . S
C373 H376 0.950 . S
C374 C373 1.387 . S
C374 C377 1.387 . S
H375 C371 0.950 . S
H376 C373 0.950 . S
C377 C368 1.390 1_565 S
C377 H370 0.950 . S
C377 C374 1.387 . S
C378 C379 1.387 . S
C378 H382 0.950 . S
C378 C387 1.390 . S
C379 C378 1.387 . S
C379 C381 1.387 . S
H380 C387 0.950 . S
C381 C379 1.387 . S
C381 C383 1.390 . S
C381 H385 0.950 . S
H382 C378 0.950 . S
C383 C381 1.390 . S
C383 C384 1.387 . S
C383 H386 0.950 . S
C384 C383 1.387 . S
C384 C387 1.387 . S
H385 C381 0.950 . S
H386 C383 0.950 . S
C387 C378 1.390 . S
C387 H380 0.950 . S
C387 C384 1.387 . S
C388 C389 1.387 . S
C388 H392 0.950 . S
C388 C397 1.390 1_455 S
C389 C388 1.387 . S
C389 C391 1.387 . S
H390 C397 0.950 . S
C391 C389 1.387 . S
C391 C393 1.390 1_455 S
C391 H395 0.950 . S
H392 C388 0.950 . S
C393 C391 1.390 1_655 S
C393 C394 1.387 . S
C393 H396 0.950 . S
C394 C393 1.387 . S
C394 C397 1.387 . S
H395 C391 0.950 . S
H396 C393 0.950 . S
C397 C388 1.390 1_655 S
C397 H390 0.950 . S
C397 C394 1.387 . S
C398 C399 1.387 . S
C398 H402 0.950 . S
C398 C407 1.390 1_565 S
C399 C398 1.387 . S
C399 C401 1.387 . S
H400 C407 0.950 . S
C401 C399 1.387 . S
C401 C403 1.390 1_565 S
C401 H405 0.950 . S
H402 C398 0.950 . S
C403 C401 1.390 1_545 S
C403 C404 1.387 . S
C403 H406 0.950 . S
C404 C403 1.387 . S
C404 C407 1.387 . S
H405 C401 0.950 . S
H406 C403 0.950 . S
C407 C398 1.390 1_545 S
C407 H400 0.950 . S
C407 C404 1.387 . S
C169 C147 1.382 . S
C174 C7 1.382 . S
C179 C21 1.382 . S
C184 C161 1.382 . S
C189 C35 1.382 . S
C194 C91 1.381 . S
C199 C49 1.380 . S
C204 C105 1.380 . S
C209 C119 1.380 . S
C214 C63 1.380 . S
C219 C77 1.381 . S
C224 C133 1.380 . S
C229 C115 1.446 . S
C234 C3 1.448 . S
C239 C17 1.450 . S
C244 C129 1.450 . S
C249 C31 1.446 . S
C254 C143 1.446 . S
C259 C45 1.448 . S
C264 C157 1.447 . S
C269 C87 1.450 . S
C274 C59 1.450 . S
C279 C101 1.447 . S
C284 C73 1.448 . S
C289 C51 1.481 . S
C294 C9 1.481 . S
C299 C23 1.483 . S
C304 C65 1.483 . S
C309 C79 1.483 . S
C314 C37 1.483 . S
C319 C135 1.481 . S
C324 C93 1.481 . S
C329 C149 1.483 . S
C334 C107 1.483 . S
C339 C121 1.481 . S
C344 C163 1.481 . S
C349 C50 1.452 . S
C354 C8 1.452 . S
C359 C22 1.452 . S
C364 C64 1.452 . S
C369 C78 1.452 . S
C374 C36 1.452 . S
C379 C92 1.452 . S
C384 C134 1.452 . S
C389 C148 1.452 . S
C394 C106 1.452 . S
C399 C120 1.452 . S
C404 C162 1.452 . S
