# Generated by pormake.
# Topology uon, (4)-cn, num edge types: 1
# Building blocks:
#     Node 0, Type 0, BuildingBlock: ICAMEG_clean_sbu_1, # of connection points: 4
#     Node 1, Type 0, BuildingBlock: ICAMEG_clean_sbu_1, # of connection points: 4
#     Node 2, Type 0, BuildingBlock: ICAMEG_clean_sbu_1, # of connection points: 4
#     Node 3, Type 0, BuildingBlock: ICAMEG_clean_sbu_1, # of connection points: 4
#     Node 4, Type 0, BuildingBlock: ICAMEG_clean_sbu_1, # of connection points: 4
#     Node 5, Type 0, BuildingBlock: ICAMEG_clean_sbu_1, # of connection points: 4
#     Edge 6, Type (0, 0), BuildingBlock: CIFDUS_clean_linker_0, # of connection points: 2
#     Edge 7, Type (0, 0), BuildingBlock: CIFDUS_clean_linker_0, # of connection points: 2
#     Edge 8, Type (0, 0), BuildingBlock: CIFDUS_clean_linker_0, # of connection points: 2
#     Edge 9, Type (0, 0), BuildingBlock: CIFDUS_clean_linker_0, # of connection points: 2
#     Edge 10, Type (0, 0), BuildingBlock: CIFDUS_clean_linker_0, # of connection points: 2
#     Edge 11, Type (0, 0), BuildingBlock: CIFDUS_clean_linker_0, # of connection points: 2
#     Edge 12, Type (0, 0), BuildingBlock: CIFDUS_clean_linker_0, # of connection points: 2
#     Edge 13, Type (0, 0), BuildingBlock: CIFDUS_clean_linker_0, # of connection points: 2
#     Edge 14, Type (0, 0), BuildingBlock: CIFDUS_clean_linker_0, # of connection points: 2
#     Edge 15, Type (0, 0), BuildingBlock: CIFDUS_clean_linker_0, # of connection points: 2
#     Edge 16, Type (0, 0), BuildingBlock: CIFDUS_clean_linker_0, # of connection points: 2
#     Edge 17, Type (0, 0), BuildingBlock: CIFDUS_clean_linker_0, # of connection points: 2
# Relax obj value: 0.158
# Max RMSD: 0.297
# Mean RMSD: 0.272
data_MOF--net-uon--node1-ICAMEG_clean_sbu_1--edge1-CIFDUS_clean_linker_0
_symmetry_space_group_name_H-M    P1
_symmetry_Int_Tables_number       1
_symmetry_cell_setting            triclinic
loop_
_symmetry_equiv_pos_as_xyz
'x, y, z'
_cell_length_a     32.567959
_cell_length_b     32.55902
_cell_length_c     15.137091
_cell_angle_alpha  89.577905
_cell_angle_beta   90.378689
_cell_angle_gamma 119.99566
loop_
_atom_site_label
_atom_site_type_symbol
_atom_site_fract_x
_atom_site_fract_y
_atom_site_fract_z
_atom_type_partial_charge
Co0 Co 0.2045 0.41481 0.04077 0.0
Co1 Co 0.254 0.39741 0.22998 0.0
O2 O 0.24989 0.40245 0.10252 0.0
C3 C 0.29788 0.49685 0.00884 0.0
O4 O 0.30462 0.49166 0.09251 0.0
C5 C 0.23504 0.30686 0.15407 0.0
O6 O 0.20132 0.30814 0.10844 0.0
O7 O 0.18442 0.35836 0.23944 0.0
O8 O 0.15072 0.36498 0.11365 0.0
H9 H 0.20923 0.40081 0.5459 0.0
H10 H 0.27092 0.3976 0.93566 0.0
O11 O 0.25885 0.46713 0.97152 0.0
H12 H 0.11093 0.27038 0.85197 0.0
H13 H 0.13599 0.44896 0.76986 0.0
H14 H 0.12015 0.42168 0.09185 0.0
H15 H 0.12133 0.3307 0.96138 0.0
H16 H 0.19363 0.43532 0.85291 0.0
O17 O 0.25873 0.33884 0.21122 0.0
H18 H 0.20544 0.40948 0.38453 0.0
H19 H 0.311 0.37104 0.34751 0.0
H20 H 0.06146 0.43467 0.01133 0.0
H21 H 0.26217 0.3384 0.82506 0.0
H22 H 0.06903 0.44818 0.84907 0.0
H23 H 0.18172 0.27417 0.78275 0.0
O24 O 0.21188 0.46294 0.12811 0.0
H25 H 0.41426 0.44677 0.10166 0.0
H26 H 0.32741 0.48233 0.32592 0.0
H27 H 0.41421 0.5334 0.31406 0.0
H28 H 0.45816 0.5157 0.20129 0.0
H29 H 0.32746 0.3969 0.11525 0.0
H30 H 0.31577 0.36169 0.50858 0.0
H31 H 0.26468 0.3767 0.60895 0.0
O32 O 0.24874 0.4557 0.24856 0.0
C33 C 0.14821 0.3489 0.19226 0.0
C34 C 0.2318 0.39433 0.50291 0.0
C35 C 0.29152 0.37228 0.48193 0.0
N36 N 0.25822 0.39111 0.35675 0.0
C37 C 0.22993 0.39935 0.41148 0.0
C38 C 0.28861 0.37755 0.3908 0.0
C39 C 0.26288 0.38075 0.53821 0.0
C40 C 0.2358 0.36999 0.91695 0.0
N41 N 0.19668 0.36774 0.95442 0.0
C42 C 0.23106 0.33651 0.85448 0.0
C43 C 0.18591 0.30041 0.83089 0.0
C44 C 0.14618 0.29823 0.86981 0.0
C45 C 0.15228 0.33237 0.93192 0.0
C46 C 0.13222 0.44296 0.8405 0.0
C47 C 0.12362 0.42741 0.02122 0.0
C48 C 0.16482 0.43536 0.88788 0.0
N49 N 0.15994 0.42721 0.97693 0.0
C50 C 0.09035 0.43487 0.97601 0.0
C51 C 0.09465 0.44251 0.88498 0.0
C52 C 0.23019 0.47609 0.20455 0.0
C53 C 0.3955 0.45475 0.15125 0.0
C54 C 0.34632 0.47441 0.27671 0.0
C55 C 0.39546 0.50342 0.27035 0.0
C56 C 0.42012 0.49345 0.20711 0.0
N57 N 0.32244 0.43644 0.22182 0.0
C58 C 0.34637 0.42649 0.15955 0.0
Co59 Co 0.79795 0.25893 0.51797 0.0
Co60 Co 0.88578 0.28239 0.67105 0.0
O61 O 0.86299 0.2946 0.55998 0.0
C62 C 0.81688 0.3563 0.5472 0.0
O63 O 0.84471 0.35911 0.61258 0.0
C64 C 0.93373 0.2632 0.52607 0.0
O65 O 0.89207 0.24078 0.4878 0.0
O66 O 0.84535 0.21254 0.6579 0.0
O67 O 0.79643 0.19765 0.5417 0.0
H68 H 0.8717 0.20991 0.97194 0.0
H69 H 0.87027 0.3356 0.40597 0.0
O70 O 0.79709 0.31962 0.49806 0.0
H71 H 0.81004 0.18984 0.22944 0.0
H72 H 0.66241 0.22818 0.31555 0.0
H73 H 0.71108 0.17231 0.57823 0.0
H74 H 0.77765 0.18741 0.37762 0.0
H75 H 0.74528 0.27131 0.36828 0.0
O76 O 0.93809 0.2808 0.60317 0.0
H77 H 0.84159 0.22344 0.83113 0.0
H78 H 0.98234 0.3173 0.74578 0.0
H79 H 0.62795 0.12789 0.52743 0.0
H80 H 0.90353 0.33975 0.25791 0.0
H81 H 0.60315 0.15583 0.39522 0.0
H82 H 0.87348 0.26644 0.16877 0.0
O83 O 0.7734 0.25672 0.63737 0.0
H84 H 0.00272 0.4484 0.57268 0.0
H85 H 0.90332 0.34915 0.81879 0.0
H86 H 0.95319 0.43559 0.83911 0.0
H87 H 0.00348 0.48578 0.71554 0.0
H88 H 0.95218 0.36189 0.55507 0.0
H89 H 0.01403 0.30467 0.88547 0.0
H90 H 0.95851 0.25084 0.99994 0.0
O91 O 0.83269 0.28306 0.73768 0.0
C92 C 0.81339 0.18419 0.60456 0.0
C93 C 0.89624 0.23351 0.92264 0.0
C94 C 0.97613 0.28662 0.87406 0.0
N95 N 0.91014 0.27126 0.7805 0.0
C96 C 0.87938 0.24134 0.84283 0.0
C97 C 0.95798 0.29351 0.79497 0.0
C98 C 0.94496 0.25644 0.93828 0.0
C99 C 0.85671 0.30368 0.36709 0.0
N100 N 0.8219 0.2614 0.4 0.0
C101 C 0.87578 0.3062 0.2835 0.0
C102 C 0.85894 0.26503 0.23356 0.0
C103 C 0.82337 0.22204 0.2676 0.0
C104 C 0.8052 0.22086 0.35151 0.0
C105 C 0.67282 0.21556 0.37305 0.0
C106 C 0.70065 0.18441 0.52014 0.0
C107 C 0.71966 0.23984 0.40322 0.0
N108 N 0.73308 0.22399 0.47559 0.0
C109 C 0.65349 0.15923 0.4919 0.0
C110 C 0.63959 0.17497 0.41778 0.0
C111 C 0.78977 0.26918 0.71517 0.0
C112 C 0.98109 0.42687 0.6271 0.0
C113 C 0.92499 0.3708 0.76464 0.0
C114 C 0.95321 0.4197 0.77658 0.0
C115 C 0.98145 0.44784 0.70724 0.0
N116 N 0.92512 0.35044 0.68607 0.0
C117 C 0.95252 0.37783 0.61763 0.0
Co118 Co 0.57819 0.77629 0.68102 0.0
Co119 Co 0.59807 0.84224 0.87079 0.0
O120 O 0.589 0.83289 0.74405 0.0
C121 C 0.49315 0.78319 0.65926 0.0
O122 O 0.49821 0.79143 0.74423 0.0
C123 C 0.68233 0.92001 0.78617 0.0
O124 O 0.68192 0.88795 0.73363 0.0
O125 O 0.64247 0.81781 0.87121 0.0
O126 O 0.63127 0.775 0.74795 0.0
H127 H 0.61237 0.79634 0.18239 0.0
H128 H 0.58921 0.85935 0.57864 0.0
O129 O 0.52331 0.77633 0.61781 0.0
H130 H 0.71853 0.83379 0.47874 0.0
H131 H 0.54178 0.67589 0.40888 0.0
H132 H 0.57768 0.68717 0.72776 0.0
H133 H 0.66206 0.78173 0.59221 0.0
H134 H 0.55398 0.74549 0.49417 0.0
O135 O 0.65205 0.90794 0.84814 0.0
H136 H 0.59846 0.78392 0.02197 0.0
H137 H 0.62061 0.92327 0.99032 0.0
H138 H 0.56631 0.61724 0.64486 0.0
H139 H 0.64462 0.91199 0.46439 0.0
H140 H 0.54841 0.61139 0.48416 0.0
H141 H 0.70983 0.89936 0.41377 0.0
O142 O 0.53314 0.73338 0.77168 0.0
H143 H 0.53018 0.94154 0.75783 0.0
H144 H 0.51402 0.82249 0.97922 0.0
H145 H 0.45641 0.85071 0.97749 0.0
H146 H 0.46439 0.91076 0.86633 0.0
H147 H 0.58673 0.91202 0.76136 0.0
H148 H 0.63498 0.93731 0.15049 0.0
H149 H 0.63079 0.87351 0.2477 0.0
O150 O 0.54454 0.7764 0.89447 0.0
C151 C 0.65138 0.79142 0.8227 0.0
C152 C 0.61409 0.82434 0.14082 0.0
C153 C 0.62687 0.90349 0.12286 0.0
N154 N 0.60828 0.85267 0.99699 0.0
C155 C 0.60607 0.81746 0.04996 0.0
C156 C 0.61876 0.89537 0.03224 0.0
C157 C 0.62449 0.86767 0.17738 0.0
C158 C 0.6173 0.85343 0.55646 0.0
N159 N 0.62226 0.81738 0.59163 0.0
C160 C 0.64865 0.88343 0.49196 0.0
C161 C 0.6853 0.87638 0.46372 0.0
C162 C 0.69023 0.83964 0.5002 0.0
C163 C 0.65824 0.81037 0.56461 0.0
C164 C 0.5497 0.6781 0.47882 0.0
C165 C 0.57007 0.68496 0.65779 0.0
C166 C 0.55648 0.71733 0.52748 0.0
N167 N 0.56702 0.72059 0.6156 0.0
C168 C 0.56354 0.64521 0.61124 0.0
C169 C 0.55344 0.64192 0.52109 0.0
C170 C 0.52349 0.73753 0.85139 0.0
C171 C 0.52646 0.91551 0.80682 0.0
C172 C 0.5177 0.8486 0.93062 0.0
C173 C 0.485 0.86448 0.93001 0.0
C174 C 0.4895 0.89817 0.86762 0.0
N175 N 0.55394 0.86589 0.87092 0.0
C176 C 0.55851 0.89885 0.80943 0.0
Co177 Co 0.73998 0.53303 0.17842 0.0
Co178 Co 0.71516 0.60178 0.31541 0.0
O179 O 0.70378 0.56341 0.21 0.0
C180 C 0.64274 0.4555 0.21282 0.0
O181 O 0.6401 0.4822 0.2743 0.0
C182 C 0.73663 0.66501 0.16115 0.0
O183 O 0.75702 0.64294 0.12675 0.0
O184 O 0.78512 0.6302 0.30579 0.0
O185 O 0.80071 0.59384 0.19579 0.0
H186 H 0.78485 0.66858 0.61347 0.0
H187 H 0.66314 0.52369 0.05962 0.0
O188 O 0.67961 0.47079 0.16463 0.0
H189 H 0.80894 0.60275 0.88112 0.0
H190 H 0.77219 0.42156 0.00277 0.0
H191 H 0.82687 0.53606 0.24799 0.0
H192 H 0.81144 0.57889 0.03535 0.0
H193 H 0.72845 0.4626 0.0419 0.0
O194 O 0.71856 0.6541 0.23842 0.0
H195 H 0.77262 0.62109 0.47937 0.0
H196 H 0.67996 0.6657 0.37419 0.0
H197 H 0.87183 0.49606 0.21082 0.0
H198 H 0.65894 0.54672 0.90555 0.0
H199 H 0.84451 0.43833 0.08742 0.0
H200 H 0.73226 0.58672 0.81536 0.0
O201 O 0.74272 0.51591 0.30262 0.0
H202 H 0.55087 0.55105 0.2039 0.0
H203 H 0.64642 0.55732 0.46298 0.0
H204 H 0.55981 0.52178 0.47817 0.0
H205 H 0.51145 0.51861 0.34805 0.0
H206 H 0.6375 0.58612 0.19161 0.0
H207 H 0.69119 0.71372 0.50707 0.0
H208 H 0.74375 0.71513 0.62812 0.0
O209 O 0.71307 0.54999 0.39173 0.0
C210 C 0.81376 0.62561 0.25526 0.0
C211 C 0.76178 0.66817 0.56126 0.0
C212 C 0.70929 0.69358 0.50148 0.0
N213 N 0.72544 0.64043 0.41926 0.0
C214 C 0.7547 0.64131 0.48521 0.0
C215 C 0.70318 0.66643 0.42629 0.0
C216 C 0.73876 0.69433 0.5694 0.0
C217 C 0.69508 0.54062 0.02041 0.0
N218 N 0.73741 0.54965 0.05608 0.0
C219 C 0.69253 0.55376 0.93337 0.0
C220 C 0.7337 0.57625 0.88284 0.0
C221 C 0.77674 0.58528 0.91972 0.0
C222 C 0.77795 0.57172 0.00703 0.0
C223 C 0.78455 0.44677 0.05647 0.0
C224 C 0.81502 0.51132 0.19367 0.0
C225 C 0.75993 0.47009 0.07893 0.0
N226 N 0.77543 0.50209 0.14645 0.0
C227 C 0.84051 0.48864 0.17315 0.0
C228 C 0.82513 0.4562 0.10399 0.0
C229 C 0.72931 0.52211 0.37758 0.0
C230 C 0.57156 0.55237 0.26117 0.0
C231 C 0.62558 0.55595 0.40603 0.0
C232 C 0.57657 0.53584 0.41504 0.0
C233 C 0.54946 0.5341 0.34202 0.0
N234 N 0.64703 0.57412 0.32667 0.0
C235 C 0.62067 0.57234 0.25468 0.0
Co236 Co 0.22028 0.79749 0.33638 0.0
Co237 Co 0.15397 0.75224 0.52656 0.0
O238 O 0.16372 0.75157 0.40007 0.0
C239 C 0.21688 0.70662 0.32294 0.0
O240 O 0.20573 0.70269 0.40666 0.0
C241 C 0.07705 0.7591 0.4383 0.0
O242 O 0.10938 0.78996 0.3846 0.0
O243 O 0.17906 0.8212 0.52384 0.0
O244 O 0.21969 0.85194 0.39784 0.0
H245 H 0.19935 0.81388 0.83623 0.0
H246 H 0.13899 0.72298 0.23561 0.0
O247 O 0.22273 0.74282 0.27873 0.0
H248 H 0.16107 0.87497 0.1215 0.0
H249 H 0.32243 0.86053 0.0655 0.0
H250 H 0.30778 0.88775 0.38088 0.0
H251 H 0.2132 0.87356 0.23909 0.0
H252 H 0.25277 0.80294 0.15121 0.0
O253 O 0.08867 0.74113 0.50206 0.0
H254 H 0.21219 0.81136 0.67644 0.0
H255 H 0.07235 0.6951 0.64645 0.0
H256 H 0.37765 0.94655 0.29745 0.0
H257 H 0.08627 0.72274 0.11747 0.0
H258 H 0.38524 0.93318 0.13851 0.0
H259 H 0.09719 0.79914 0.05966 0.0
O260 O 0.26298 0.79745 0.43007 0.0
H261 H 0.05362 0.58453 0.4207 0.0
H262 H 0.17254 0.68805 0.63999 0.0
H263 H 0.14336 0.60203 0.64308 0.0
H264 H 0.08335 0.54963 0.53304 0.0
H265 H 0.08406 0.67079 0.4195 0.0
H266 H 0.0579 0.69647 0.80598 0.0
H267 H 0.12174 0.75611 0.90205 0.0
O268 O 0.21937 0.76397 0.55194 0.0
C269 C 0.20428 0.85614 0.473 0.0
C270 C 0.17133 0.78758 0.79517 0.0
C271 C 0.09191 0.72174 0.77814 0.0
N272 N 0.1432 0.75286 0.65234 0.0
C273 C 0.17844 0.78587 0.70468 0.0
C274 C 0.10026 0.72118 0.68785 0.0
C275 C 0.12775 0.75521 0.83202 0.0
C276 C 0.14411 0.75635 0.21035 0.0
N277 N 0.17924 0.79822 0.24378 0.0
C278 C 0.11409 0.756 0.14366 0.0
C279 C 0.12017 0.79889 0.11138 0.0
C280 C 0.15598 0.84145 0.14609 0.0
C281 C 0.1853 0.84043 0.21282 0.0
C282 C 0.31948 0.8668 0.13467 0.0
C283 C 0.31071 0.88177 0.31165 0.0
C284 C 0.28021 0.83426 0.18357 0.0
N285 N 0.276 0.84224 0.27067 0.0
C286 C 0.35045 0.91511 0.26483 0.0
C287 C 0.35472 0.90755 0.17568 0.0
C288 C 0.25851 0.78294 0.50967 0.0
C289 C 0.07961 0.60697 0.46924 0.0
C290 C 0.14646 0.66548 0.59183 0.0
C291 C 0.13004 0.6168 0.59396 0.0
C292 C 0.09637 0.58742 0.53219 0.0
N293 N 0.1297 0.68435 0.5301 0.0
C294 C 0.09681 0.6558 0.46915 0.0
Co295 Co 0.44707 0.2169 0.82617 0.0
Co296 Co 0.39647 0.11506 0.95121 0.0
O297 O 0.42991 0.15111 0.84599 0.0
C298 C 0.53916 0.21967 0.84504 0.0
O299 O 0.51893 0.18517 0.90299 0.0
C300 C 0.33122 0.07162 0.79927 0.0
O301 O 0.34889 0.11427 0.76554 0.0
O302 O 0.35872 0.14786 0.96078 0.0
O303 O 0.38076 0.20114 0.85047 0.0
H304 H 0.33484 0.09299 0.26205 0.0
H305 H 0.47175 0.16745 0.69132 0.0
O306 O 0.5148 0.23474 0.80419 0.0
H307 H 0.36703 0.21426 0.53887 0.0
H308 H 0.53151 0.37496 0.67066 0.0
H309 H 0.42493 0.28422 0.91597 0.0
H310 H 0.38867 0.23462 0.69552 0.0
H311 H 0.50775 0.29095 0.69487 0.0
O312 O 0.34547 0.06519 0.87425 0.0
H313 H 0.37585 0.13888 0.12864 0.0
H314 H 0.34612 0.01217 0.99684 0.0
H315 H 0.44748 0.368 0.89377 0.0
H316 H 0.45123 0.14654 0.5345 0.0
H317 H 0.50118 0.41398 0.77039 0.0
H318 H 0.39839 0.16988 0.45737 0.0
O319 O 0.46301 0.23206 0.95284 0.0
H320 H 0.46488 0.02639 0.7977 0.0
H321 H 0.45345 0.0946 0.08001 0.0
H322 H 0.50021 0.05405 0.0728 0.0
H323 H 0.50591 0.01936 0.93093 0.0
H324 H 0.41883 0.06755 0.80772 0.0
H325 H 0.30432 0.96486 0.12847 0.0
H326 H 0.29883 0.00534 0.26253 0.0
O327 O 0.44664 0.16537 0.02738 0.0
C328 C 0.35389 0.17819 0.91492 0.0
C329 C 0.33716 0.07497 0.20413 0.0
C330 C 0.32 0.00305 0.12914 0.0
N331 N 0.36363 0.07828 0.05521 0.0
C332 C 0.36043 0.10078 0.12846 0.0
C333 C 0.34355 0.03001 0.05469 0.0
C334 C 0.31691 0.02578 0.20434 0.0
C335 C 0.44911 0.1781 0.65787 0.0
N336 N 0.43168 0.20247 0.7022 0.0
C337 C 0.43746 0.16601 0.56923 0.0
C338 C 0.40776 0.17907 0.52602 0.0
C339 C 0.39014 0.20395 0.57173 0.0
C340 C 0.40247 0.21535 0.66039 0.0
C341 C 0.50796 0.35526 0.72446 0.0
C342 C 0.44794 0.30384 0.86162 0.0
C343 C 0.49442 0.3077 0.73853 0.0
N344 N 0.46455 0.28256 0.80613 0.0
C345 C 0.46075 0.35134 0.84961 0.0
C346 C 0.49092 0.37713 0.78044 0.0
C347 C 0.46485 0.21032 0.0218 0.0
C348 C 0.4625 0.04118 0.85997 0.0
C349 C 0.45596 0.07978 0.01797 0.0
C350 C 0.4824 0.05678 0.01433 0.0
C351 C 0.48558 0.03732 0.93472 0.0
N352 N 0.43308 0.08305 0.94456 0.0
C353 C 0.43633 0.06438 0.86612 0.0
H354 H 0.2295 0.27149 0.99109 0.0
H355 H 0.27946 0.27102 0.25542 0.0
H356 H 0.31505 0.22447 0.20526 0.0
H357 H 0.33837 0.191 0.08381 0.0
H358 H 0.29798 0.20152 0.81646 0.0
H359 H 0.25184 0.23703 0.86988 0.0
C360 C 0.24753 0.26053 0.03792 0.0
C361 C 0.25169 0.27431 0.12686 0.0
C362 C 0.26973 0.23588 0.00774 0.0
C363 C 0.2758 0.26064 0.18669 0.0
C364 C 0.29618 0.23418 0.15798 0.0
C365 C 0.31846 0.20001 0.03758 0.0
C366 C 0.32069 0.19302 0.9466 0.0
C367 C 0.2942 0.2225 0.06836 0.0
C368 C 0.29618 0.20622 0.88684 0.0
C369 C 0.27007 0.22664 0.91735 0.0
H370 H 0.9425 0.26668 0.34777 0.0
H371 H 0.01996 0.28244 0.58962 0.0
H372 H 0.09151 0.30367 0.50464 0.0
H373 H 0.13268 0.32299 0.36456 0.0
H374 H 0.05868 0.31666 0.12243 0.0
H375 H 0.98432 0.28503 0.20491 0.0
C376 C 0.97492 0.27419 0.38178 0.0
C377 C 0.97605 0.27289 0.47488 0.0
C378 C 0.01624 0.28787 0.33259 0.0
C379 C 0.01835 0.28332 0.51815 0.0
C380 C 0.05915 0.29537 0.46959 0.0
C381 C 0.1004 0.31438 0.32893 0.0
C382 C 0.10156 0.32253 0.23705 0.0
C383 C 0.05861 0.2985 0.37707 0.0
C384 C 0.05898 0.31078 0.19291 0.0
C385 C 0.01653 0.29299 0.24019 0.0
H386 H 0.80294 0.14195 0.76265 0.0
H387 H 0.77587 0.11171 0.48462 0.0
H388 H 0.73678 0.0264 0.5164 0.0
H389 H 0.70643 0.96078 0.62465 0.0
H390 H 0.72589 0.99215 0.90311 0.0
H391 H 0.77249 0.07708 0.87001 0.0
C392 C 0.78913 0.11673 0.70883 0.0
C393 C 0.79269 0.13295 0.62135 0.0
C394 C 0.76531 0.06812 0.72793 0.0
C395 C 0.77362 0.09991 0.55244 0.0
C396 C 0.75131 0.05127 0.57063 0.0
C397 C 0.72152 0.9863 0.67783 0.0
C398 C 0.7134 0.97059 0.7661 0.0
C399 C 0.74645 0.035 0.65826 0.0
C400 C 0.73203 0.00373 0.83475 0.0
C401 C 0.75851 0.05213 0.81583 0.0
H402 H 0.72858 0.66472 0.98294 0.0
H403 H 0.72962 0.74039 0.21669 0.0
H404 H 0.71283 0.79291 0.12661 0.0
H405 H 0.69039 0.81171 0.98617 0.0
H406 H 0.67729 0.72918 0.75438 0.0
H407 H 0.70857 0.68615 0.83847 0.0
C408 C 0.72581 0.6932 0.0138 0.0
C409 C 0.73025 0.69886 0.1062 0.0
C410 C 0.71433 0.72202 0.96199 0.0
C411 C 0.72604 0.73536 0.14578 0.0
C412 C 0.71661 0.76538 0.09432 0.0
C413 C 0.69471 0.78471 0.95302 0.0
C414 C 0.68065 0.77326 0.86409 0.0
C415 C 0.7096 0.75825 0.00287 0.0
C416 C 0.68752 0.73864 0.82272 0.0
C417 C 0.70497 0.71371 0.87106 0.0
H418 H 0.85536 0.65863 0.41274 0.0
H419 H 0.88636 0.65957 0.13593 0.0
H420 H 0.97157 0.7059 0.16797 0.0
H421 H 0.03683 0.74168 0.27639 0.0
H422 H 0.00477 0.73194 0.55429 0.0
H423 H 0.91997 0.69375 0.52038 0.0
C424 C 0.88076 0.66966 0.35924 0.0
C425 C 0.86484 0.65636 0.27203 0.0
C426 C 0.9293 0.69447 0.37861 0.0
C427 C 0.89801 0.6697 0.20352 0.0
C428 C 0.94657 0.69607 0.22185 0.0
C429 C 0.01119 0.73179 0.32922 0.0
C430 C 0.02664 0.73991 0.41757 0.0
C431 C 0.96259 0.70809 0.30933 0.0
C432 C 0.99336 0.72608 0.48586 0.0
C433 C 0.94505 0.70425 0.46649 0.0
H434 H 0.32982 0.06243 0.62127 0.0
H435 H 0.25827 0.98887 0.85994 0.0
H436 H 0.20574 0.91831 0.77424 0.0
H437 H 0.18572 0.87592 0.63614 0.0
H438 H 0.26465 0.944 0.39935 0.0
H439 H 0.30749 0.0193 0.47895 0.0
C440 C 0.30222 0.03107 0.65405 0.0
C441 C 0.29766 0.03054 0.74659 0.0
C442 C 0.27349 0.99002 0.6047 0.0
C443 C 0.2624 0.98977 0.78885 0.0
C444 C 0.23237 0.94961 0.73989 0.0
C445 C 0.2119 0.90713 0.60092 0.0
C446 C 0.22233 0.90391 0.51183 0.0
C447 C 0.23838 0.94907 0.64827 0.0
C448 C 0.25593 0.94526 0.46783 0.0
C449 C 0.28077 0.98822 0.51363 0.0
H450 H 0.23395 0.64477 0.411 0.0
H451 H 0.21397 0.6837 0.14766 0.0
H452 H 0.21772 0.61578 0.08771 0.0
H453 H 0.2227 0.54373 0.11209 0.0
H454 H 0.24352 0.50598 0.37617 0.0
H455 H 0.24341 0.57577 0.4344 0.0
C456 C 0.23044 0.63853 0.34032 0.0
C457 C 0.22305 0.66876 0.2837 0.0
C458 C 0.23256 0.59973 0.30691 0.0
C459 C 0.21956 0.66079 0.19235 0.0
C460 C 0.22151 0.62194 0.15833 0.0
C461 C 0.22714 0.55065 0.18251 0.0
C462 C 0.23242 0.51929 0.24007 0.0
C463 C 0.22728 0.59084 0.21528 0.0
C464 C 0.23915 0.52937 0.33069 0.0
C465 C 0.23903 0.5692 0.36393 0.0
H466 H 0.60112 0.19457 0.91479 0.0
H467 H 0.5929 0.29444 0.73624 0.0
H468 H 0.67597 0.32707 0.69778 0.0
H469 H 0.7467 0.31961 0.69848 0.0
H470 H 0.7541 0.21574 0.86489 0.0
H471 H 0.67637 0.19363 0.928 0.0
C472 C 0.61762 0.22375 0.86809 0.0
C473 C 0.59048 0.24134 0.82706 0.0
C474 C 0.66545 0.24204 0.84525 0.0
C475 C 0.61261 0.27962 0.76763 0.0
C476 C 0.66024 0.29853 0.74594 0.0
C477 C 0.73201 0.29348 0.75124 0.0
C478 C 0.75585 0.26952 0.77785 0.0
C479 C 0.68648 0.27912 0.78241 0.0
C480 C 0.73659 0.23521 0.84496 0.0
C481 C 0.69178 0.22196 0.87947 0.0
H482 H 0.45233 0.66012 0.76975 0.0
H483 H 0.50411 0.72143 0.02722 0.0
H484 H 0.43815 0.65238 0.09689 0.0
H485 H 0.3672 0.57515 0.08524 0.0
H486 H 0.31264 0.5132 0.82966 0.0
H487 H 0.37856 0.58274 0.75803 0.0
C488 C 0.44931 0.65829 0.84117 0.0
C489 C 0.4834 0.69573 0.89338 0.0
C490 C 0.41092 0.61871 0.88079 0.0
C491 C 0.47851 0.69315 0.98562 0.0
C492 C 0.44082 0.65369 0.02547 0.0
C493 C 0.36959 0.57659 0.0137 0.0
C494 C 0.33539 0.53886 0.96264 0.0
C495 C 0.40706 0.61635 0.9737 0.0
C496 C 0.33862 0.5418 0.87021 0.0
C497 C 0.37632 0.58141 0.82949 0.0
H498 H 0.80666 0.5401 0.46899 0.0
H499 H 0.6593 0.4367 0.4321 0.0
H500 H 0.67348 0.37391 0.48673 0.0
H501 H 0.73093 0.34719 0.5177 0.0
H502 H 0.8786 0.45076 0.55382 0.0
H503 H 0.86167 0.51503 0.52559 0.0
C504 C 0.77733 0.5042 0.47771 0.0
C505 C 0.73197 0.49282 0.44819 0.0
C506 C 0.78633 0.46822 0.50503 0.0
C507 C 0.69424 0.44617 0.45679 0.0
C508 C 0.70261 0.41019 0.48592 0.0
C509 C 0.7592 0.38392 0.51964 0.0
C510 C 0.80608 0.39462 0.5348 0.0
C511 C 0.74899 0.42051 0.50533 0.0
C512 C 0.8424 0.44206 0.54042 0.0
C513 C 0.8327 0.47867 0.52485 0.0
H514 H 0.33341 0.78594 0.42634 0.0
H515 H 0.27595 0.78042 0.68549 0.0
H516 H 0.34386 0.77973 0.75335 0.0
H517 H 0.41839 0.78044 0.73907 0.0
H518 H 0.47585 0.78362 0.48111 0.0
H519 H 0.40817 0.78509 0.41205 0.0
C520 C 0.33591 0.78498 0.49775 0.0
C521 C 0.29995 0.78371 0.55105 0.0
C522 C 0.37458 0.78382 0.53611 0.0
C523 C 0.30322 0.78153 0.64324 0.0
C524 C 0.34195 0.78111 0.68195 0.0
C525 C 0.41636 0.7815 0.66758 0.0
C526 C 0.4522 0.78216 0.61508 0.0
C527 C 0.37765 0.78215 0.62897 0.0
C528 C 0.44863 0.78303 0.52275 0.0
C529 C 0.41011 0.78403 0.48347 0.0
H530 H 0.45284 0.27363 0.11195 0.0
H531 H 0.54738 0.21835 0.07936 0.0
H532 H 0.61277 0.29094 0.14219 0.0
H533 H 0.6452 0.37527 0.18051 0.0
H534 H 0.54988 0.42968 0.21544 0.0
H535 H 0.48228 0.35231 0.17712 0.0
C536 C 0.4873 0.27678 0.12272 0.0
C537 C 0.49566 0.24114 0.0918 0.0
C538 C 0.5247 0.31897 0.15627 0.0
C539 C 0.54028 0.2453 0.10427 0.0
C540 C 0.57778 0.28712 0.1385 0.0
C541 C 0.60948 0.36979 0.1805 0.0
C542 C 0.60221 0.40793 0.19824 0.0
C543 C 0.57085 0.32507 0.16022 0.0
C544 C 0.556 0.40065 0.20066 0.0
C545 C 0.51747 0.35653 0.17906 0.0
loop_
_geom_bond_atom_site_label_1
_geom_bond_atom_site_label_2
_geom_bond_distance
_geom_bond_site_symmetry_2
_ccdc_geom_bond_type
Co0 O2 2.143 . S
Co0 O8 2.074 1_556 S
Co0 O11 2.093 . S
Co0 O24 2.097 1_556 S
Co0 N41 2.151 . S
Co0 N49 2.214 . S
Co1 O2 2.160 1_554 S
Co1 O7 2.058 . S
Co1 O17 2.057 . S
Co1 O32 2.037 . S
Co1 N36 2.145 . S
Co1 N57 2.257 . S
O2 Co0 2.143 . S
O2 Co1 2.160 1_556 S
C3 O4 1.278 . S
C3 O11 1.224 . S
O4 C3 1.278 . S
C5 O6 1.245 1_554 S
C5 O17 1.232 . S
O6 C5 1.245 1_556 S
O7 Co1 2.058 . S
O7 C33 1.269 . S
O8 Co0 2.074 1_554 S
O8 C33 1.257 . S
H9 C34 0.930 . S
H10 C40 0.930 . S
O11 Co0 2.093 . S
O11 C3 1.224 . S
H12 C44 0.929 . S
H13 C46 0.930 . S
H14 C47 0.930 . S
H15 C45 0.929 . S
H16 C48 0.928 . S
O17 Co1 2.057 . S
O17 C5 1.232 . S
H18 C37 0.929 . S
H19 C38 0.929 . S
H20 C50 0.931 . S
H21 C42 0.929 . S
H22 C51 0.930 . S
H23 C43 0.931 . S
O24 Co0 2.097 1_554 S
O24 C52 1.214 . S
H25 C53 0.929 . S
H26 C54 0.929 . S
H27 C55 0.930 . S
H28 C56 0.929 . S
H29 C58 0.930 . S
H30 C35 0.930 . S
H31 C39 0.930 . S
O32 Co1 2.037 . S
O32 C52 1.234 . S
C33 O7 1.269 . S
C33 O8 1.257 . S
C34 H9 0.930 . S
C34 C37 1.388 . S
C34 C39 1.418 . S
C35 H30 0.930 . S
C35 C38 1.404 . S
C35 C39 1.353 . S
N36 Co1 2.145 . S
N36 C37 1.397 . S
N36 C38 1.334 . S
C37 H18 0.929 . S
C37 C34 1.388 . S
C37 N36 1.397 . S
C38 H19 0.929 . S
C38 C35 1.404 . S
C38 N36 1.334 . S
C39 H31 0.930 . S
C39 C34 1.418 . S
C39 C35 1.353 . S
C40 H10 0.930 . S
C40 N41 1.330 . S
C40 C42 1.446 . S
N41 Co0 2.151 . S
N41 C40 1.330 . S
N41 C45 1.418 . S
C42 H21 0.929 . S
C42 C40 1.446 . S
C42 C43 1.332 . S
C43 H23 0.931 . S
C43 C42 1.332 . S
C43 C44 1.267 . S
C44 H12 0.929 . S
C44 C43 1.267 . S
C44 C45 1.251 . S
C45 H15 0.929 . S
C45 N41 1.418 . S
C45 C44 1.251 . S
C46 H13 0.930 . S
C46 C48 1.406 . S
C46 C51 1.261 . S
C47 H14 0.930 . S
C47 N49 1.325 . S
C47 C50 1.357 . S
C48 H16 0.928 . S
C48 C46 1.406 . S
C48 N49 1.261 . S
N49 Co0 2.214 . S
N49 C47 1.325 . S
N49 C48 1.261 . S
C50 H20 0.931 . S
C50 C47 1.357 . S
C50 C51 1.312 . S
C51 H22 0.930 . S
C51 C46 1.261 . S
C51 C50 1.312 . S
C52 O24 1.214 . S
C52 O32 1.234 . S
C53 H25 0.929 . S
C53 C56 1.391 . S
C53 C58 1.391 . S
C54 H26 0.929 . S
C54 C55 1.390 . S
C54 N57 1.391 . S
C55 H27 0.930 . S
C55 C54 1.390 . S
C55 C56 1.392 . S
C56 H28 0.929 . S
C56 C53 1.391 . S
C56 C55 1.392 . S
N57 Co1 2.257 . S
N57 C54 1.391 . S
N57 C58 1.388 . S
C58 H29 0.930 . S
C58 C53 1.391 . S
C58 N57 1.388 . S
Co59 O61 2.143 . S
Co59 O67 2.074 . S
Co59 O70 2.093 . S
Co59 O83 2.097 . S
Co59 N100 2.151 . S
Co59 N108 2.214 . S
Co60 O61 2.160 . S
Co60 O66 2.058 . S
Co60 O76 2.057 . S
Co60 O91 2.037 . S
Co60 N95 2.145 . S
Co60 N116 2.257 . S
O61 Co59 2.143 . S
O61 Co60 2.160 . S
C62 O63 1.278 . S
C62 O70 1.224 . S
O63 C62 1.278 . S
C64 O65 1.245 . S
C64 O76 1.232 . S
O65 C64 1.245 . S
O66 Co60 2.058 . S
O66 C92 1.269 . S
O67 Co59 2.074 . S
O67 C92 1.257 . S
H68 C93 0.930 . S
H69 C99 0.930 . S
O70 Co59 2.093 . S
O70 C62 1.224 . S
H71 C103 0.929 . S
H72 C105 0.930 . S
H73 C106 0.930 . S
H74 C104 0.929 . S
H75 C107 0.928 . S
O76 Co60 2.057 . S
O76 C64 1.232 . S
H77 C96 0.929 . S
H78 C97 0.929 . S
H79 C109 0.931 . S
H80 C101 0.929 . S
H81 C110 0.930 . S
H82 C102 0.931 . S
O83 Co59 2.097 . S
O83 C111 1.214 . S
H84 C112 0.929 . S
H85 C113 0.929 . S
H86 C114 0.930 1_554 S
H87 C115 0.929 . S
H88 C117 0.930 . S
H89 C94 0.930 1_455 S
H90 C98 0.930 . S
O91 Co60 2.037 . S
O91 C111 1.234 . S
C92 O66 1.269 . S
C92 O67 1.257 . S
C93 H68 0.930 . S
C93 C96 1.388 1_554 S
C93 C98 1.418 . S
C94 H89 0.930 1_655 S
C94 C97 1.404 . S
C94 C98 1.353 1_556 S
N95 Co60 2.145 . S
N95 C96 1.397 . S
N95 C97 1.334 . S
C96 H77 0.929 . S
C96 C93 1.388 1_556 S
C96 N95 1.397 . S
C97 H78 0.929 . S
C97 C94 1.404 . S
C97 N95 1.334 . S
C98 H90 0.930 . S
C98 C93 1.418 . S
C98 C94 1.353 1_554 S
C99 H69 0.930 . S
C99 N100 1.330 . S
C99 C101 1.446 . S
N100 Co59 2.151 . S
N100 C99 1.330 . S
N100 C104 1.418 . S
C101 H80 0.929 . S
C101 C99 1.446 . S
C101 C102 1.332 . S
C102 H82 0.931 . S
C102 C101 1.332 . S
C102 C103 1.267 . S
C103 H71 0.929 . S
C103 C102 1.267 . S
C103 C104 1.251 . S
C104 H74 0.929 . S
C104 N100 1.418 . S
C104 C103 1.251 . S
C105 H72 0.930 . S
C105 C107 1.406 . S
C105 C110 1.261 . S
C106 H73 0.930 . S
C106 N108 1.325 . S
C106 C109 1.357 . S
C107 H75 0.928 . S
C107 C105 1.406 . S
C107 N108 1.261 . S
N108 Co59 2.214 . S
N108 C106 1.325 . S
N108 C107 1.261 . S
C109 H79 0.931 . S
C109 C106 1.357 . S
C109 C110 1.312 . S
C110 H81 0.930 . S
C110 C105 1.261 . S
C110 C109 1.312 . S
C111 O83 1.214 . S
C111 O91 1.234 . S
C112 H84 0.929 . S
C112 C115 1.391 . S
C112 C117 1.391 . S
C113 H85 0.929 . S
C113 C114 1.390 . S
C113 N116 1.391 . S
C114 H86 0.930 1_556 S
C114 C113 1.390 . S
C114 C115 1.392 . S
C115 H87 0.929 . S
C115 C112 1.391 . S
C115 C114 1.392 . S
N116 Co60 2.257 . S
N116 C113 1.391 . S
N116 C117 1.388 . S
C117 H88 0.930 . S
C117 C112 1.391 . S
C117 N116 1.388 . S
Co118 O120 2.143 . S
Co118 O126 2.074 . S
Co118 O129 2.093 . S
Co118 O142 2.097 . S
Co118 N159 2.151 . S
Co118 N167 2.214 . S
Co119 O120 2.160 . S
Co119 O125 2.058 . S
Co119 O135 2.057 . S
Co119 O150 2.037 . S
Co119 N154 2.145 . S
Co119 N175 2.257 . S
O120 Co118 2.143 . S
O120 Co119 2.160 . S
C121 O122 1.278 . S
C121 O129 1.224 . S
O122 C121 1.278 . S
C123 O124 1.245 . S
C123 O135 1.232 . S
O124 C123 1.245 . S
O125 Co119 2.058 . S
O125 C151 1.269 . S
O126 Co118 2.074 . S
O126 C151 1.257 . S
H127 C152 0.930 . S
H128 C158 0.930 . S
O129 Co118 2.093 . S
O129 C121 1.224 . S
H130 C162 0.929 . S
H131 C164 0.930 . S
H132 C165 0.930 . S
H133 C163 0.929 . S
H134 C166 0.928 . S
O135 Co119 2.057 . S
O135 C123 1.232 . S
H136 C155 0.929 . S
H137 C156 0.929 . S
H138 C168 0.931 . S
H139 C160 0.929 . S
H140 C169 0.930 . S
H141 C161 0.931 . S
O142 Co118 2.097 . S
O142 C170 1.214 . S
H143 C171 0.929 . S
H144 C172 0.929 . S
H145 C173 0.930 . S
H146 C174 0.929 . S
H147 C176 0.930 . S
H148 C153 0.930 . S
H149 C157 0.930 . S
O150 Co119 2.037 . S
O150 C170 1.234 . S
C151 O125 1.269 . S
C151 O126 1.257 . S
C152 H127 0.930 . S
C152 C155 1.388 1_554 S
C152 C157 1.418 . S
C153 H148 0.930 . S
C153 C156 1.404 1_554 S
C153 C157 1.353 . S
N154 Co119 2.145 . S
N154 C155 1.397 . S
N154 C156 1.334 . S
C155 H136 0.929 . S
C155 C152 1.388 1_556 S
C155 N154 1.397 . S
C156 H137 0.929 . S
C156 C153 1.404 1_556 S
C156 N154 1.334 . S
C157 H149 0.930 . S
C157 C152 1.418 . S
C157 C153 1.353 . S
C158 H128 0.930 . S
C158 N159 1.330 . S
C158 C160 1.446 . S
N159 Co118 2.151 . S
N159 C158 1.330 . S
N159 C163 1.418 . S
C160 H139 0.929 . S
C160 C158 1.446 . S
C160 C161 1.332 . S
C161 H141 0.931 . S
C161 C160 1.332 . S
C161 C162 1.267 . S
C162 H130 0.929 . S
C162 C161 1.267 . S
C162 C163 1.251 . S
C163 H133 0.929 . S
C163 N159 1.418 . S
C163 C162 1.251 . S
C164 H131 0.930 . S
C164 C166 1.406 . S
C164 C169 1.261 . S
C165 H132 0.930 . S
C165 N167 1.325 . S
C165 C168 1.357 . S
C166 H134 0.928 . S
C166 C164 1.406 . S
C166 N167 1.261 . S
N167 Co118 2.214 . S
N167 C165 1.325 . S
N167 C166 1.261 . S
C168 H138 0.931 . S
C168 C165 1.357 . S
C168 C169 1.312 . S
C169 H140 0.930 . S
C169 C164 1.261 . S
C169 C168 1.312 . S
C170 O142 1.214 . S
C170 O150 1.234 . S
C171 H143 0.929 . S
C171 C174 1.391 . S
C171 C176 1.391 . S
C172 H144 0.929 . S
C172 C173 1.390 . S
C172 N175 1.391 . S
C173 H145 0.930 . S
C173 C172 1.390 . S
C173 C174 1.392 . S
C174 H146 0.929 . S
C174 C171 1.391 . S
C174 C173 1.392 . S
N175 Co119 2.257 . S
N175 C172 1.391 . S
N175 C176 1.388 . S
C176 H147 0.930 . S
C176 C171 1.391 . S
C176 N175 1.388 . S
Co177 O179 2.143 . S
Co177 O185 2.074 . S
Co177 O188 2.093 . S
Co177 O201 2.097 . S
Co177 N218 2.151 . S
Co177 N226 2.214 . S
Co178 O179 2.160 . S
Co178 O184 2.058 . S
Co178 O194 2.057 . S
Co178 O209 2.037 . S
Co178 N213 2.145 . S
Co178 N234 2.257 . S
O179 Co177 2.143 . S
O179 Co178 2.160 . S
C180 O181 1.278 . S
C180 O188 1.224 . S
O181 C180 1.278 . S
C182 O183 1.245 . S
C182 O194 1.232 . S
O183 C182 1.245 . S
O184 Co178 2.058 . S
O184 C210 1.269 . S
O185 Co177 2.074 . S
O185 C210 1.257 . S
H186 C211 0.930 . S
H187 C217 0.930 . S
O188 Co177 2.093 . S
O188 C180 1.224 . S
H189 C221 0.929 . S
H190 C223 0.930 . S
H191 C224 0.930 . S
H192 C222 0.929 . S
H193 C225 0.928 . S
O194 Co178 2.057 . S
O194 C182 1.232 . S
H195 C214 0.929 . S
H196 C215 0.929 . S
H197 C227 0.931 . S
H198 C219 0.929 1_556 S
H199 C228 0.930 . S
H200 C220 0.931 . S
O201 Co177 2.097 . S
O201 C229 1.214 . S
H202 C230 0.929 . S
H203 C231 0.929 . S
H204 C232 0.930 . S
H205 C233 0.929 . S
H206 C235 0.930 . S
H207 C212 0.930 . S
H208 C216 0.930 . S
O209 Co178 2.037 . S
O209 C229 1.234 . S
C210 O184 1.269 . S
C210 O185 1.257 . S
C211 H186 0.930 . S
C211 C214 1.388 . S
C211 C216 1.418 . S
C212 H207 0.930 . S
C212 C215 1.404 . S
C212 C216 1.353 . S
N213 Co178 2.145 . S
N213 C214 1.397 . S
N213 C215 1.334 . S
C214 H195 0.929 . S
C214 C211 1.388 . S
C214 N213 1.397 . S
C215 H196 0.929 . S
C215 C212 1.404 . S
C215 N213 1.334 . S
C216 H208 0.930 . S
C216 C211 1.418 . S
C216 C212 1.353 . S
C217 H187 0.930 . S
C217 N218 1.330 . S
C217 C219 1.446 . S
N218 Co177 2.151 . S
N218 C217 1.330 . S
N218 C222 1.418 . S
C219 H198 0.929 1_554 S
C219 C217 1.446 . S
C219 C220 1.332 1_554 S
C220 H200 0.931 . S
C220 C219 1.332 1_556 S
C220 C221 1.267 1_556 S
C221 H189 0.929 . S
C221 C220 1.267 1_554 S
C221 C222 1.251 . S
C222 H192 0.929 . S
C222 N218 1.418 . S
C222 C221 1.251 . S
C223 H190 0.930 . S
C223 C225 1.406 . S
C223 C228 1.261 . S
C224 H191 0.930 . S
C224 N226 1.325 . S
C224 C227 1.357 . S
C225 H193 0.928 . S
C225 C223 1.406 . S
C225 N226 1.261 . S
N226 Co177 2.214 . S
N226 C224 1.325 . S
N226 C225 1.261 . S
C227 H197 0.931 . S
C227 C224 1.357 . S
C227 C228 1.312 . S
C228 H199 0.930 . S
C228 C223 1.261 . S
C228 C227 1.312 . S
C229 O201 1.214 . S
C229 O209 1.234 . S
C230 H202 0.929 . S
C230 C233 1.391 . S
C230 C235 1.391 . S
C231 H203 0.929 . S
C231 C232 1.390 . S
C231 N234 1.391 . S
C232 H204 0.930 . S
C232 C231 1.390 . S
C232 C233 1.392 . S
C233 H205 0.929 . S
C233 C230 1.391 . S
C233 C232 1.392 . S
N234 Co178 2.257 . S
N234 C231 1.391 . S
N234 C235 1.388 . S
C235 H206 0.930 . S
C235 C230 1.391 . S
C235 N234 1.388 . S
Co236 O238 2.143 . S
Co236 O244 2.074 . S
Co236 O247 2.093 . S
Co236 O260 2.097 . S
Co236 N277 2.151 . S
Co236 N285 2.214 . S
Co237 O238 2.160 . S
Co237 O243 2.058 . S
Co237 O253 2.057 . S
Co237 O268 2.037 . S
Co237 N272 2.145 . S
Co237 N293 2.257 . S
O238 Co236 2.143 . S
O238 Co237 2.160 . S
C239 O240 1.278 . S
C239 O247 1.224 . S
O240 C239 1.278 . S
C241 O242 1.245 . S
C241 O253 1.232 . S
O242 C241 1.245 . S
O243 Co237 2.058 . S
O243 C269 1.269 . S
O244 Co236 2.074 . S
O244 C269 1.257 . S
H245 C270 0.930 . S
H246 C276 0.930 . S
O247 Co236 2.093 . S
O247 C239 1.224 . S
H248 C280 0.929 . S
H249 C282 0.930 . S
H250 C283 0.930 . S
H251 C281 0.929 . S
H252 C284 0.928 . S
O253 Co237 2.057 . S
O253 C241 1.232 . S
H254 C273 0.929 . S
H255 C274 0.929 . S
H256 C286 0.931 . S
H257 C278 0.929 . S
H258 C287 0.930 . S
H259 C279 0.931 . S
O260 Co236 2.097 . S
O260 C288 1.214 . S
H261 C289 0.929 . S
H262 C290 0.929 . S
H263 C291 0.930 . S
H264 C292 0.929 . S
H265 C294 0.930 . S
H266 C271 0.930 . S
H267 C275 0.930 . S
O268 Co237 2.037 . S
O268 C288 1.234 . S
C269 O243 1.269 . S
C269 O244 1.257 . S
C270 H245 0.930 . S
C270 C273 1.388 . S
C270 C275 1.418 . S
C271 H266 0.930 . S
C271 C274 1.404 . S
C271 C275 1.353 . S
N272 Co237 2.145 . S
N272 C273 1.397 . S
N272 C274 1.334 . S
C273 H254 0.929 . S
C273 C270 1.388 . S
C273 N272 1.397 . S
C274 H255 0.929 . S
C274 C271 1.404 . S
C274 N272 1.334 . S
C275 H267 0.930 . S
C275 C270 1.418 . S
C275 C271 1.353 . S
C276 H246 0.930 . S
C276 N277 1.330 . S
C276 C278 1.446 1_554 S
N277 Co236 2.151 . S
N277 C276 1.330 . S
N277 C281 1.418 . S
C278 H257 0.929 . S
C278 C276 1.446 1_556 S
C278 C279 1.332 . S
C279 H259 0.931 . S
C279 C278 1.332 . S
C279 C280 1.267 1_556 S
C280 H248 0.929 . S
C280 C279 1.267 1_554 S
C280 C281 1.251 . S
C281 H251 0.929 . S
C281 N277 1.418 . S
C281 C280 1.251 . S
C282 H249 0.930 . S
C282 C284 1.406 . S
C282 C287 1.261 . S
C283 H250 0.930 . S
C283 N285 1.325 . S
C283 C286 1.357 . S
C284 H252 0.928 . S
C284 C282 1.406 . S
C284 N285 1.261 . S
N285 Co236 2.214 . S
N285 C283 1.325 . S
N285 C284 1.261 . S
C286 H256 0.931 . S
C286 C283 1.357 . S
C286 C287 1.312 . S
C287 H258 0.930 . S
C287 C282 1.261 . S
C287 C286 1.312 . S
C288 O260 1.214 . S
C288 O268 1.234 . S
C289 H261 0.929 . S
C289 C292 1.391 . S
C289 C294 1.391 . S
C290 H262 0.929 . S
C290 C291 1.390 . S
C290 N293 1.391 . S
C291 H263 0.930 . S
C291 C290 1.390 . S
C291 C292 1.392 . S
C292 H264 0.929 . S
C292 C289 1.391 . S
C292 C291 1.392 . S
N293 Co237 2.257 . S
N293 C290 1.391 . S
N293 C294 1.388 . S
C294 H265 0.930 . S
C294 C289 1.391 . S
C294 N293 1.388 . S
Co295 O297 2.143 . S
Co295 O303 2.074 . S
Co295 O306 2.093 . S
Co295 O319 2.097 1_556 S
Co295 N336 2.151 . S
Co295 N344 2.214 . S
Co296 O297 2.160 1_554 S
Co296 O302 2.058 . S
Co296 O312 2.057 . S
Co296 O327 2.037 . S
Co296 N331 2.145 . S
Co296 N352 2.257 . S
O297 Co295 2.143 . S
O297 Co296 2.160 1_556 S
C298 O299 1.278 . S
C298 O306 1.224 . S
O299 C298 1.278 . S
C300 O301 1.245 . S
C300 O312 1.232 1_556 S
O301 C300 1.245 . S
O302 Co296 2.058 . S
O302 C328 1.269 1_554 S
O303 Co295 2.074 . S
O303 C328 1.257 . S
H304 C329 0.930 . S
H305 C335 0.930 . S
O306 Co295 2.093 . S
O306 C298 1.224 . S
H307 C339 0.929 . S
H308 C341 0.930 . S
H309 C342 0.930 . S
H310 C340 0.929 . S
H311 C343 0.928 . S
O312 Co296 2.057 . S
O312 C300 1.232 1_554 S
H313 C332 0.929 . S
H314 C333 0.929 . S
H315 C345 0.931 . S
H316 C337 0.929 . S
H317 C346 0.930 . S
H318 C338 0.931 . S
O319 Co295 2.097 1_554 S
O319 C347 1.214 . S
H320 C348 0.929 . S
H321 C349 0.929 . S
H322 C350 0.930 . S
H323 C351 0.929 . S
H324 C353 0.930 . S
H325 C330 0.930 1_565 S
H326 C334 0.930 . S
O327 Co296 2.037 . S
O327 C347 1.234 . S
C328 O302 1.269 1_556 S
C328 O303 1.257 . S
C329 H304 0.930 . S
C329 C332 1.388 . S
C329 C334 1.418 . S
C330 H325 0.930 1_545 S
C330 C333 1.404 . S
C330 C334 1.353 . S
N331 Co296 2.145 . S
N331 C332 1.397 . S
N331 C333 1.334 . S
C332 H313 0.929 . S
C332 C329 1.388 . S
C332 N331 1.397 . S
C333 H314 0.929 . S
C333 C330 1.404 . S
C333 N331 1.334 . S
C334 H326 0.930 . S
C334 C329 1.418 . S
C334 C330 1.353 . S
C335 H305 0.930 . S
C335 N336 1.330 . S
C335 C337 1.446 . S
N336 Co295 2.151 . S
N336 C335 1.330 . S
N336 C340 1.418 . S
C337 H316 0.929 . S
C337 C335 1.446 . S
C337 C338 1.332 . S
C338 H318 0.931 . S
C338 C337 1.332 . S
C338 C339 1.267 . S
C339 H307 0.929 . S
C339 C338 1.267 . S
C339 C340 1.251 . S
C340 H310 0.929 . S
C340 N336 1.418 . S
C340 C339 1.251 . S
C341 H308 0.930 . S
C341 C343 1.406 . S
C341 C346 1.261 . S
C342 H309 0.930 . S
C342 N344 1.325 1_554 S
C342 C345 1.357 . S
C343 H311 0.928 . S
C343 C341 1.406 . S
C343 N344 1.261 . S
N344 Co295 2.214 . S
N344 C342 1.325 1_556 S
N344 C343 1.261 . S
C345 H315 0.931 . S
C345 C342 1.357 . S
C345 C346 1.312 1_554 S
C346 H317 0.930 . S
C346 C341 1.261 . S
C346 C345 1.312 1_556 S
C347 O319 1.214 . S
C347 O327 1.234 . S
C348 H320 0.929 . S
C348 C351 1.391 . S
C348 C353 1.391 . S
C349 H321 0.929 . S
C349 C350 1.390 . S
C349 N352 1.391 . S
C350 H322 0.930 . S
C350 C349 1.390 . S
C350 C351 1.392 . S
C351 H323 0.929 . S
C351 C348 1.391 . S
C351 C350 1.392 . S
N352 Co296 2.257 . S
N352 C349 1.391 . S
N352 C353 1.388 . S
C353 H324 0.930 . S
C353 C348 1.391 . S
C353 N352 1.388 . S
H354 C360 0.930 . S
H355 C363 0.930 . S
H356 C364 0.930 . S
H357 C365 0.930 . S
H358 C368 0.930 . S
H359 C369 0.930 . S
C360 H354 0.930 . S
C360 C361 1.355 . S
C360 C362 1.415 . S
C361 C360 1.355 . S
C361 C363 1.419 1_554 S
C362 C360 1.415 . S
C362 C367 1.425 1_554 S
C362 C369 1.409 . S
C363 H355 0.930 . S
C363 C361 1.419 1_556 S
C363 C364 1.362 . S
C364 H356 0.930 . S
C364 C363 1.362 . S
C364 C367 1.409 . S
C365 H357 0.930 . S
C365 C366 1.355 1_556 S
C365 C367 1.415 . S
C366 C365 1.355 1_554 S
C366 C368 1.419 . S
C367 C362 1.425 1_556 S
C367 C364 1.409 . S
C367 C365 1.415 . S
C368 H358 0.930 . S
C368 C366 1.419 . S
C368 C369 1.362 . S
C369 H359 0.930 . S
C369 C362 1.409 . S
C369 C368 1.362 . S
H370 C376 0.930 . S
H371 C379 0.930 . S
H372 C380 0.930 . S
H373 C381 0.930 1_655 S
H374 C384 0.930 . S
H375 C385 0.930 . S
C376 H370 0.930 . S
C376 C377 1.355 . S
C376 C378 1.415 . S
C377 C376 1.355 . S
C377 C379 1.419 1_455 S
C378 C376 1.415 . S
C378 C383 1.425 . S
C378 C385 1.409 . S
C379 H371 0.930 . S
C379 C377 1.419 1_655 S
C379 C380 1.362 . S
C380 H372 0.930 . S
C380 C379 1.362 . S
C380 C383 1.409 1_655 S
C381 H373 0.930 1_455 S
C381 C382 1.355 . S
C381 C383 1.415 . S
C382 C381 1.355 . S
C382 C384 1.419 . S
C383 C378 1.425 . S
C383 C380 1.409 1_455 S
C383 C381 1.415 . S
C384 H374 0.930 . S
C384 C382 1.419 . S
C384 C385 1.362 . S
C385 H375 0.930 . S
C385 C378 1.409 . S
C385 C384 1.362 . S
H386 C392 0.930 . S
H387 C395 0.930 . S
H388 C396 0.930 . S
H389 C397 0.930 . S
H390 C400 0.930 . S
H391 C401 0.930 . S
C392 H386 0.930 . S
C392 C393 1.355 . S
C392 C394 1.415 . S
C393 C392 1.355 . S
C393 C395 1.419 . S
C394 C392 1.415 . S
C394 C399 1.425 . S
C394 C401 1.409 . S
C395 H387 0.930 . S
C395 C393 1.419 . S
C395 C396 1.362 . S
C396 H388 0.930 . S
C396 C395 1.362 . S
C396 C399 1.409 . S
C397 H389 0.930 . S
C397 C398 1.355 . S
C397 C399 1.415 1_565 S
C398 C397 1.355 . S
C398 C400 1.419 . S
C399 C394 1.425 . S
C399 C396 1.409 . S
C399 C397 1.415 1_545 S
C400 H390 0.930 . S
C400 C398 1.419 . S
C400 C401 1.362 1_565 S
C401 H391 0.930 . S
C401 C394 1.409 . S
C401 C400 1.362 1_545 S
H402 C408 0.930 . S
H403 C411 0.930 . S
H404 C412 0.930 . S
H405 C413 0.930 . S
H406 C416 0.930 . S
H407 C417 0.930 . S
C408 H402 0.930 . S
C408 C409 1.355 . S
C408 C410 1.415 . S
C409 C408 1.355 . S
C409 C411 1.419 . S
C410 C408 1.415 . S
C410 C415 1.425 1_554 S
C410 C417 1.409 1_554 S
C411 H403 0.930 . S
C411 C409 1.419 . S
C411 C412 1.362 . S
C412 H404 0.930 . S
C412 C411 1.362 . S
C412 C415 1.409 1_554 S
C413 H405 0.930 . S
C413 C414 1.355 . S
C413 C415 1.415 . S
C414 C413 1.355 . S
C414 C416 1.419 . S
C415 C410 1.425 1_556 S
C415 C412 1.409 1_556 S
C415 C413 1.415 . S
C416 H406 0.930 . S
C416 C414 1.419 . S
C416 C417 1.362 . S
C417 H407 0.930 . S
C417 C410 1.409 1_556 S
C417 C416 1.362 . S
H418 C424 0.930 . S
H419 C427 0.930 . S
H420 C428 0.930 . S
H421 C429 0.930 . S
H422 C432 0.930 . S
H423 C433 0.930 . S
C424 H418 0.930 . S
C424 C425 1.355 . S
C424 C426 1.415 . S
C425 C424 1.355 . S
C425 C427 1.419 . S
C426 C424 1.415 . S
C426 C431 1.425 . S
C426 C433 1.409 . S
C427 H419 0.930 . S
C427 C425 1.419 . S
C427 C428 1.362 . S
C428 H420 0.930 . S
C428 C427 1.362 . S
C428 C431 1.409 . S
C429 H421 0.930 . S
C429 C430 1.355 . S
C429 C431 1.415 1_455 S
C430 C429 1.355 . S
C430 C432 1.419 . S
C431 C426 1.425 . S
C431 C428 1.409 . S
C431 C429 1.415 1_655 S
C432 H422 0.930 . S
C432 C430 1.419 . S
C432 C433 1.362 1_455 S
C433 H423 0.930 . S
C433 C426 1.409 . S
C433 C432 1.362 1_655 S
H434 C440 0.930 . S
H435 C443 0.930 . S
H436 C444 0.930 . S
H437 C445 0.930 1_545 S
H438 C448 0.930 . S
H439 C449 0.930 . S
C440 H434 0.930 . S
C440 C441 1.355 . S
C440 C442 1.415 . S
C441 C440 1.355 . S
C441 C443 1.419 1_565 S
C442 C440 1.415 . S
C442 C447 1.425 . S
C442 C449 1.409 . S
C443 H435 0.930 . S
C443 C441 1.419 1_545 S
C443 C444 1.362 . S
C444 H436 0.930 . S
C444 C443 1.362 . S
C444 C447 1.409 1_545 S
C445 H437 0.930 1_565 S
C445 C446 1.355 . S
C445 C447 1.415 . S
C446 C445 1.355 . S
C446 C448 1.419 . S
C447 C442 1.425 . S
C447 C444 1.409 1_565 S
C447 C445 1.415 . S
C448 H438 0.930 . S
C448 C446 1.419 . S
C448 C449 1.362 . S
C449 H439 0.930 . S
C449 C442 1.409 . S
C449 C448 1.362 . S
H450 C456 0.930 . S
H451 C459 0.930 . S
H452 C460 0.930 . S
H453 C461 0.930 . S
H454 C464 0.930 . S
H455 C465 0.930 . S
C456 H450 0.930 . S
C456 C457 1.355 . S
C456 C458 1.415 . S
C457 C456 1.355 . S
C457 C459 1.419 . S
C458 C456 1.415 . S
C458 C463 1.425 . S
C458 C465 1.409 . S
C459 H451 0.930 . S
C459 C457 1.419 . S
C459 C460 1.362 . S
C460 H452 0.930 . S
C460 C459 1.362 . S
C460 C463 1.409 . S
C461 H453 0.930 . S
C461 C462 1.355 . S
C461 C463 1.415 . S
C462 C461 1.355 . S
C462 C464 1.419 . S
C463 C458 1.425 . S
C463 C460 1.409 . S
C463 C461 1.415 . S
C464 H454 0.930 . S
C464 C462 1.419 . S
C464 C465 1.362 . S
C465 H455 0.930 . S
C465 C458 1.409 . S
C465 C464 1.362 . S
H466 C472 0.930 . S
H467 C475 0.930 . S
H468 C476 0.930 . S
H469 C477 0.930 . S
H470 C480 0.930 . S
H471 C481 0.930 . S
C472 H466 0.930 . S
C472 C473 1.355 . S
C472 C474 1.415 . S
C473 C472 1.355 . S
C473 C475 1.419 . S
C474 C472 1.415 . S
C474 C479 1.425 . S
C474 C481 1.409 . S
C475 H467 0.930 . S
C475 C473 1.419 . S
C475 C476 1.362 . S
C476 H468 0.930 . S
C476 C475 1.362 . S
C476 C479 1.409 . S
C477 H469 0.930 . S
C477 C478 1.355 . S
C477 C479 1.415 . S
C478 C477 1.355 . S
C478 C480 1.419 . S
C479 C474 1.425 . S
C479 C476 1.409 . S
C479 C477 1.415 . S
C480 H470 0.930 . S
C480 C478 1.419 . S
C480 C481 1.362 . S
C481 H471 0.930 . S
C481 C474 1.409 . S
C481 C480 1.362 . S
H482 C488 0.930 . S
H483 C491 0.930 . S
H484 C492 0.930 . S
H485 C493 0.930 . S
H486 C496 0.930 . S
H487 C497 0.930 . S
C488 H482 0.930 . S
C488 C489 1.355 . S
C488 C490 1.415 . S
C489 C488 1.355 . S
C489 C491 1.419 . S
C490 C488 1.415 . S
C490 C495 1.425 . S
C490 C497 1.409 . S
C491 H483 0.930 . S
C491 C489 1.419 . S
C491 C492 1.362 . S
C492 H484 0.930 . S
C492 C491 1.362 . S
C492 C495 1.409 . S
C493 H485 0.930 . S
C493 C494 1.355 . S
C493 C495 1.415 . S
C494 C493 1.355 . S
C494 C496 1.419 . S
C495 C490 1.425 . S
C495 C492 1.409 . S
C495 C493 1.415 . S
C496 H486 0.930 . S
C496 C494 1.419 . S
C496 C497 1.362 . S
C497 H487 0.930 . S
C497 C490 1.409 . S
C497 C496 1.362 . S
H498 C504 0.930 . S
H499 C507 0.930 . S
H500 C508 0.930 . S
H501 C509 0.930 . S
H502 C512 0.930 . S
H503 C513 0.930 . S
C504 H498 0.930 . S
C504 C505 1.355 . S
C504 C506 1.415 . S
C505 C504 1.355 . S
C505 C507 1.419 . S
C506 C504 1.415 . S
C506 C511 1.425 . S
C506 C513 1.409 . S
C507 H499 0.930 . S
C507 C505 1.419 . S
C507 C508 1.362 . S
C508 H500 0.930 . S
C508 C507 1.362 . S
C508 C511 1.409 . S
C509 H501 0.930 . S
C509 C510 1.355 . S
C509 C511 1.415 . S
C510 C509 1.355 . S
C510 C512 1.419 . S
C511 C506 1.425 . S
C511 C508 1.409 . S
C511 C509 1.415 . S
C512 H502 0.930 . S
C512 C510 1.419 . S
C512 C513 1.362 . S
C513 H503 0.930 . S
C513 C506 1.409 . S
C513 C512 1.362 . S
H514 C520 0.930 . S
H515 C523 0.930 . S
H516 C524 0.930 . S
H517 C525 0.930 . S
H518 C528 0.930 . S
H519 C529 0.930 . S
C520 H514 0.930 . S
C520 C521 1.355 . S
C520 C522 1.415 . S
C521 C520 1.355 . S
C521 C523 1.419 . S
C522 C520 1.415 . S
C522 C527 1.425 . S
C522 C529 1.409 . S
C523 H515 0.930 . S
C523 C521 1.419 . S
C523 C524 1.362 . S
C524 H516 0.930 . S
C524 C523 1.362 . S
C524 C527 1.409 . S
C525 H517 0.930 . S
C525 C526 1.355 . S
C525 C527 1.415 . S
C526 C525 1.355 . S
C526 C528 1.419 . S
C527 C522 1.425 . S
C527 C524 1.409 . S
C527 C525 1.415 . S
C528 H518 0.930 . S
C528 C526 1.419 . S
C528 C529 1.362 . S
C529 H519 0.930 . S
C529 C522 1.409 . S
C529 C528 1.362 . S
H530 C536 0.930 . S
H531 C539 0.930 . S
H532 C540 0.930 . S
H533 C541 0.930 . S
H534 C544 0.930 . S
H535 C545 0.930 . S
C536 H530 0.930 . S
C536 C537 1.355 . S
C536 C538 1.415 . S
C537 C536 1.355 . S
C537 C539 1.419 . S
C538 C536 1.415 . S
C538 C543 1.425 . S
C538 C545 1.409 . S
C539 H531 0.930 . S
C539 C537 1.419 . S
C539 C540 1.362 . S
C540 H532 0.930 . S
C540 C539 1.362 . S
C540 C543 1.409 . S
C541 H533 0.930 . S
C541 C542 1.355 . S
C541 C543 1.415 . S
C542 C541 1.355 . S
C542 C544 1.419 . S
C543 C538 1.425 . S
C543 C540 1.409 . S
C543 C541 1.415 . S
C544 H534 0.930 . S
C544 C542 1.419 . S
C544 C545 1.362 . S
C545 H535 0.930 . S
C545 C538 1.409 . S
C545 C544 1.362 . S
C361 C5 1.389 . S
C366 C328 1.379 1_554 S
C377 C64 2.186 1_455 S
C382 C33 2.194 . S
C393 C92 1.435 . S
C398 C123 1.439 . S
C409 C182 2.201 . S
C414 C151 2.182 . S
C425 C210 1.427 . S
C430 C241 1.437 . S
C441 C300 2.207 1_565 S
C446 C269 2.192 . S
C457 C239 1.573 . S
C462 C52 1.725 . S
C473 C298 1.626 . S
C478 C111 1.510 . S
C489 C170 1.712 . S
C494 C3 1.525 . S
C505 C229 1.555 . S
C510 C62 1.683 . S
C521 C288 1.729 . S
C526 C121 1.557 . S
C537 C347 1.568 . S
C542 C180 1.698 . S
