# Generated by pormake.
# Topology whc, (6)-cn, num edge types: 1
# Building blocks:
#     Node 0, Type 0, BuildingBlock: IZENUY_clean_sbu_0, # of connection points: 6
#     Node 1, Type 0, BuildingBlock: IZENUY_clean_sbu_0, # of connection points: 6
#     Node 2, Type 0, BuildingBlock: IZENUY_clean_sbu_0, # of connection points: 6
#     Node 3, Type 0, BuildingBlock: IZENUY_clean_sbu_0, # of connection points: 6
#     Node 4, Type 0, BuildingBlock: IZENUY_clean_sbu_0, # of connection points: 6
#     Node 5, Type 0, BuildingBlock: IZENUY_clean_sbu_0, # of connection points: 6
#     Node 6, Type 0, BuildingBlock: IZENUY_clean_sbu_0, # of connection points: 6
#     Node 7, Type 0, BuildingBlock: IZENUY_clean_sbu_0, # of connection points: 6
#     Edge 8, Type (0, 0), BuildingBlock: TEMPAE_clean_linker_10, # of connection points: 2
#     Edge 9, Type (0, 0), BuildingBlock: TEMPAE_clean_linker_10, # of connection points: 2
#     Edge 10, Type (0, 0), BuildingBlock: TEMPAE_clean_linker_10, # of connection points: 2
#     Edge 11, Type (0, 0), BuildingBlock: TEMPAE_clean_linker_10, # of connection points: 2
#     Edge 12, Type (0, 0), BuildingBlock: TEMPAE_clean_linker_10, # of connection points: 2
#     Edge 13, Type (0, 0), BuildingBlock: TEMPAE_clean_linker_10, # of connection points: 2
#     Edge 14, Type (0, 0), BuildingBlock: TEMPAE_clean_linker_10, # of connection points: 2
#     Edge 15, Type (0, 0), BuildingBlock: TEMPAE_clean_linker_10, # of connection points: 2
#     Edge 16, Type (0, 0), BuildingBlock: TEMPAE_clean_linker_10, # of connection points: 2
#     Edge 17, Type (0, 0), BuildingBlock: TEMPAE_clean_linker_10, # of connection points: 2
#     Edge 18, Type (0, 0), BuildingBlock: TEMPAE_clean_linker_10, # of connection points: 2
#     Edge 19, Type (0, 0), BuildingBlock: TEMPAE_clean_linker_10, # of connection points: 2
#     Edge 20, Type (0, 0), BuildingBlock: TEMPAE_clean_linker_10, # of connection points: 2
#     Edge 21, Type (0, 0), BuildingBlock: TEMPAE_clean_linker_10, # of connection points: 2
#     Edge 22, Type (0, 0), BuildingBlock: TEMPAE_clean_linker_10, # of connection points: 2
#     Edge 23, Type (0, 0), BuildingBlock: TEMPAE_clean_linker_10, # of connection points: 2
#     Edge 24, Type (0, 0), BuildingBlock: TEMPAE_clean_linker_10, # of connection points: 2
#     Edge 25, Type (0, 0), BuildingBlock: TEMPAE_clean_linker_10, # of connection points: 2
#     Edge 26, Type (0, 0), BuildingBlock: TEMPAE_clean_linker_10, # of connection points: 2
#     Edge 27, Type (0, 0), BuildingBlock: TEMPAE_clean_linker_10, # of connection points: 2
#     Edge 28, Type (0, 0), BuildingBlock: TEMPAE_clean_linker_10, # of connection points: 2
#     Edge 29, Type (0, 0), BuildingBlock: TEMPAE_clean_linker_10, # of connection points: 2
#     Edge 30, Type (0, 0), BuildingBlock: TEMPAE_clean_linker_10, # of connection points: 2
#     Edge 31, Type (0, 0), BuildingBlock: TEMPAE_clean_linker_10, # of connection points: 2
# Relax obj value: 0.363
# Max RMSD: 0.283
# Mean RMSD: 0.283
data_MOF--net-whc--node1-IZENUY_clean_sbu_0--edge1-TEMPAE_clean_linker_10
_symmetry_space_group_name_H-M    P1
_symmetry_Int_Tables_number       1
_symmetry_cell_setting            triclinic
loop_
_symmetry_equiv_pos_as_xyz
'x, y, z'
_cell_length_a     35.503706
_cell_length_b     35.492015
_cell_length_c     29.752057
_cell_angle_alpha  89.967322
_cell_angle_beta   90.087526
_cell_angle_gamma 89.671565
loop_
_atom_site_label
_atom_site_type_symbol
_atom_site_fract_x
_atom_site_fract_y
_atom_site_fract_z
_atom_type_partial_charge
Fe0 Fe 0.51869 0.20422 0.11019 0.0
Fe1 Fe 0.43257 0.20836 0.09824 0.0
O2 O 0.47555 0.22903 0.11614 0.0
Fe3 Fe 0.47518 0.27481 0.14008 0.0
O4 O 0.5224 0.28822 0.1205 0.0
O5 O 0.53914 0.24134 0.07706 0.0
O6 O 0.50577 0.18219 0.0559 0.0
C7 C 0.47907 0.18954 0.0287 0.0
C8 C 0.52235 0.23696 0.19694 0.0
O9 O 0.44907 0.20494 0.04167 0.0
C10 C 0.40872 0.24165 0.17506 0.0
O11 O 0.50204 0.16516 0.14295 0.0
O12 O 0.44706 0.15909 0.11033 0.0
O13 O 0.49335 0.25708 0.19224 0.0
O14 O 0.53867 0.22184 0.16347 0.0
C15 C 0.42554 0.28516 0.0716 0.0
O16 O 0.41247 0.21095 0.15417 0.0
O17 O 0.42815 0.27014 0.16458 0.0
C18 C 0.47365 0.14573 0.13413 0.0
O19 O 0.41079 0.25365 0.08138 0.0
O20 O 0.45632 0.29512 0.08905 0.0
C21 C 0.54251 0.27503 0.08912 0.0
Fe22 Fe 0.1912 0.57968 0.90399 0.0
Fe23 Fe 0.18864 0.49399 0.89349 0.0
O24 O 0.21193 0.53735 0.88416 0.0
Fe25 Fe 0.2553 0.53816 0.85506 0.0
O26 O 0.27495 0.57687 0.88854 0.0
O27 O 0.23166 0.58903 0.93976 0.0
O28 O 0.16927 0.55741 0.95283 0.0
C29 C 0.18098 0.52899 0.97456 0.0
C30 C 0.22472 0.60286 0.82167 0.0
O31 O 0.19282 0.50007 0.95404 0.0
C32 C 0.20997 0.48893 0.80505 0.0
O33 O 0.14938 0.57248 0.86906 0.0
O34 O 0.14135 0.51442 0.89259 0.0
O35 O 0.23693 0.5703 0.81287 0.0
O36 O 0.21037 0.60983 0.85964 0.0
C37 C 0.26484 0.47445 0.90577 0.0
O38 O 0.18353 0.48684 0.83333 0.0
O39 O 0.24249 0.49967 0.81698 0.0
C40 C 0.12953 0.54309 0.87167 0.0
O41 O 0.2315 0.46516 0.8962 0.0
O42 O 0.27736 0.5063 0.89501 0.0
C43 C 0.26542 0.59032 0.92637 0.0
Fe44 Fe 0.56676 0.80955 0.09947 0.0
Fe45 Fe 0.52524 0.74511 0.14766 0.0
O46 O 0.52467 0.78899 0.11955 0.0
Fe47 Fe 0.48133 0.81295 0.11103 0.0
O48 O 0.48664 0.80817 0.05017 0.0
O49 O 0.54365 0.83189 0.0513 0.0
O50 O 0.57598 0.76927 0.06324 0.0
C51 C 0.57676 0.73518 0.07566 0.0
C52 C 0.53021 0.87166 0.13181 0.0
O53 O 0.56291 0.72499 0.11296 0.0
C54 C 0.47871 0.79187 0.19955 0.0
O55 O 0.59739 0.78944 0.14316 0.0
O56 O 0.55853 0.76158 0.18943 0.0
O57 O 0.50178 0.8598 0.1108 0.0
O58 O 0.55978 0.85159 0.13457 0.0
C59 C 0.46022 0.73769 0.09887 0.0
O60 O 0.48771 0.75884 0.18699 0.0
O61 O 0.47585 0.8184 0.17132 0.0
C62 C 0.59116 0.77297 0.18012 0.0
O63 O 0.49237 0.72453 0.10773 0.0
O64 O 0.45185 0.77092 0.11013 0.0
C65 C 0.51565 0.81957 0.02952 0.0
Fe66 Fe 0.80061 0.5286 0.87868 0.0
Fe67 Fe 0.73433 0.48188 0.84441 0.0
O68 O 0.77914 0.48421 0.87019 0.0
Fe69 Fe 0.80303 0.44292 0.88826 0.0
O70 O 0.82543 0.4664 0.93595 0.0
O71 O 0.79821 0.52205 0.93931 0.0
O72 O 0.75703 0.5558 0.88226 0.0
C73 C 0.72499 0.54551 0.89532 0.0
C74 C 0.86137 0.48325 0.85357 0.0
O75 O 0.71333 0.51301 0.88616 0.0
C76 C 0.76557 0.41812 0.80867 0.0
O77 O 0.80345 0.53552 0.81866 0.0
O78 O 0.74424 0.5207 0.80526 0.0
O79 O 0.8432 0.45269 0.85132 0.0
O80 O 0.84858 0.51055 0.87609 0.0
C81 C 0.73033 0.42892 0.91579 0.0
O82 O 0.75104 0.45 0.801 0.0
O83 O 0.78357 0.41214 0.84473 0.0
C84 C 0.7761 0.53218 0.79175 0.0
O85 O 0.71797 0.4428 0.87933 0.0
O86 O 0.76483 0.43083 0.92616 0.0
C87 C 0.81198 0.49338 0.9588 0.0
Fe88 Fe 0.53328 0.25445 0.64384 0.0
Fe89 Fe 0.57481 0.1899 0.5952 0.0
O90 O 0.53263 0.21086 0.61515 0.0
Fe91 Fe 0.48928 0.18759 0.60617 0.0
O92 O 0.46021 0.23014 0.60476 0.0
O93 O 0.50105 0.27602 0.60382 0.0
O94 O 0.57146 0.2741 0.60991 0.0
C95 C 0.58508 0.26421 0.57235 0.0
C96 C 0.4855 0.20863 0.69462 0.0
O97 O 0.58416 0.2303 0.55937 0.0
C98 C 0.53784 0.12831 0.62737 0.0
O99 O 0.56591 0.23668 0.68578 0.0
O100 O 0.60524 0.20943 0.63932 0.0
O101 O 0.48318 0.18212 0.6664 0.0
O102 O 0.49517 0.24141 0.68235 0.0
C103 C 0.5238 0.18062 0.52484 0.0
O104 O 0.56757 0.14779 0.63007 0.0
O105 O 0.50963 0.14053 0.606 0.0
C106 C 0.59873 0.2255 0.67651 0.0
O107 O 0.55203 0.16818 0.54645 0.0
O108 O 0.49489 0.19234 0.54556 0.0
C109 C 0.46918 0.26319 0.59383 0.0
Fe110 Fe 0.20051 0.42295 0.39792 0.0
Fe111 Fe 0.26596 0.46679 0.35576 0.0
O112 O 0.22088 0.46639 0.38132 0.0
Fe113 Fe 0.19672 0.50949 0.39053 0.0
O114 O 0.17542 0.4948 0.44454 0.0
O115 O 0.19817 0.43776 0.45533 0.0
O116 O 0.24606 0.40092 0.41301 0.0
C117 C 0.27765 0.41571 0.42233 0.0
C118 C 0.13794 0.46534 0.36445 0.0
O119 O 0.2875 0.4466 0.40515 0.0
C120 C 0.22758 0.51626 0.30295 0.0
O121 O 0.20213 0.40418 0.34119 0.0
O122 O 0.26089 0.42053 0.32963 0.0
O123 O 0.15696 0.49448 0.35791 0.0
O124 O 0.15121 0.43793 0.38701 0.0
C125 C 0.26819 0.53132 0.41071 0.0
O126 O 0.24685 0.4865 0.30522 0.0
O127 O 0.21355 0.53146 0.33786 0.0
C128 C 0.23231 0.40133 0.31917 0.0
O129 O 0.27975 0.51338 0.37674 0.0
O130 O 0.23485 0.52789 0.42399 0.0
C131 C 0.1837 0.4675 0.47044 0.0
Fe132 Fe 0.43483 0.79492 0.60363 0.0
Fe133 Fe 0.52103 0.79874 0.61497 0.0
O134 O 0.47815 0.77399 0.62068 0.0
Fe135 Fe 0.47831 0.72777 0.64338 0.0
O136 O 0.46004 0.70875 0.59153 0.0
O137 O 0.41361 0.74991 0.58611 0.0
O138 O 0.45089 0.79925 0.54699 0.0
C139 C 0.48085 0.81428 0.53379 0.0
C140 C 0.4116 0.76001 0.67946 0.0
O141 O 0.50784 0.82108 0.56073 0.0
C142 C 0.52454 0.76488 0.70133 0.0
O143 O 0.44876 0.84397 0.61635 0.0
O144 O 0.50409 0.83756 0.64813 0.0
O145 O 0.43117 0.73179 0.66771 0.0
O146 O 0.4151 0.79129 0.65975 0.0
C147 C 0.54563 0.72813 0.59291 0.0
O148 O 0.54088 0.78061 0.66831 0.0
O149 O 0.496 0.74454 0.69597 0.0
C150 C 0.4755 0.85713 0.63974 0.0
O151 O 0.54196 0.76195 0.58138 0.0
O152 O 0.5257 0.71469 0.62406 0.0
C153 C 0.42898 0.71895 0.57465 0.0
Fe154 Fe 0.80564 0.56041 0.38989 0.0
Fe155 Fe 0.73778 0.5211 0.34585 0.0
O156 O 0.78277 0.51902 0.37121 0.0
Fe157 Fe 0.80534 0.47482 0.37876 0.0
O158 O 0.80309 0.48059 0.43954 0.0
O159 O 0.82884 0.53662 0.43701 0.0
O160 O 0.76735 0.57145 0.42814 0.0
C161 C 0.73285 0.57334 0.41782 0.0
C162 C 0.8651 0.5216 0.35475 0.0
O163 O 0.72069 0.55974 0.38123 0.0
C164 C 0.78011 0.47157 0.29216 0.0
O165 O 0.78516 0.59144 0.34687 0.0
O166 O 0.75367 0.55345 0.30272 0.0
O167 O 0.85291 0.49344 0.37601 0.0
O168 O 0.84596 0.55177 0.35285 0.0
C169 C 0.73014 0.45687 0.39575 0.0
O170 O 0.7482 0.4827 0.30626 0.0
O171 O 0.80792 0.4686 0.31855 0.0
C172 C 0.7672 0.58553 0.3108 0.0
O173 O 0.71775 0.4894 0.38737 0.0
O174 O 0.76237 0.4471 0.38236 0.0
C175 C 0.81604 0.50925 0.45948 0.0
C176 C 0.23619 0.33228 0.30835 0.0
C177 C 0.23903 0.36857 0.29018 0.0
C178 C 0.25644 0.30209 0.28944 0.0
C179 C 0.27955 0.3087 0.25154 0.0
C180 C 0.27822 0.34423 0.22976 0.0
C181 C 0.25828 0.37392 0.24976 0.0
C182 C 0.25656 0.26455 0.31322 0.0
C183 C 0.30153 0.35227 0.18846 0.0
C184 C 0.37856 0.27182 0.24058 0.0
C185 C 0.37529 0.24838 0.20305 0.0
C186 C 0.34669 0.2886 0.25984 0.0
C187 C 0.31081 0.28234 0.24029 0.0
C188 C 0.30699 0.25569 0.20521 0.0
C189 C 0.33946 0.23878 0.18702 0.0
C190 C 0.35201 0.316 0.29816 0.0
C191 C 0.2693 0.24785 0.18384 0.0
H192 H 0.22158 0.3283 0.33997 0.0
H193 H 0.26043 0.40212 0.23592 0.0
H194 H 0.25876 0.24092 0.28896 0.0
H195 H 0.28131 0.26296 0.33597 0.0
H196 H 0.23076 0.26088 0.33381 0.0
H197 H 0.2928 0.37896 0.17178 0.0
H198 H 0.33162 0.35467 0.1982 0.0
H199 H 0.29922 0.32895 0.16383 0.0
H200 H 0.40636 0.27905 0.25295 0.0
H201 H 0.33699 0.22085 0.15767 0.0
H202 H 0.33096 0.31094 0.32497 0.0
H203 H 0.34778 0.34521 0.28572 0.0
H204 H 0.38064 0.3139 0.31314 0.0
H205 H 0.2464 0.24811 0.20916 0.0
H206 H 0.26933 0.22026 0.16622 0.0
H207 H 0.26293 0.27015 0.15875 0.0
C208 C 0.23757 0.67151 0.81151 0.0
C209 C 0.23787 0.63481 0.79376 0.0
C210 C 0.2598 0.69996 0.7926 0.0
C211 C 0.2825 0.69153 0.75489 0.0
C212 C 0.27933 0.65595 0.73365 0.0
C213 C 0.25706 0.62796 0.7534 0.0
C214 C 0.26181 0.73772 0.81575 0.0
C215 C 0.30231 0.64615 0.69256 0.0
C216 C 0.34218 0.76148 0.69036 0.0
C217 C 0.37808 0.75226 0.70679 0.0
C218 C 0.30998 0.74381 0.70773 0.0
C219 C 0.31411 0.71674 0.74241 0.0
C220 C 0.35001 0.71033 0.76196 0.0
C221 C 0.38162 0.72794 0.74357 0.0
C222 C 0.27223 0.75168 0.68626 0.0
C223 C 0.35559 0.68244 0.79984 0.0
H224 H 0.22244 0.67736 0.84237 0.0
H225 H 0.25691 0.59991 0.73896 0.0
H226 H 0.28753 0.73867 0.83695 0.0
H227 H 0.26362 0.76097 0.79093 0.0
H228 H 0.237 0.74269 0.83774 0.0
H229 H 0.29268 0.61964 0.67647 0.0
H230 H 0.30083 0.66919 0.66741 0.0
H231 H 0.3323 0.64257 0.70236 0.0
H232 H 0.33953 0.77989 0.66142 0.0
H233 H 0.4095 0.72084 0.75608 0.0
H234 H 0.24947 0.75238 0.71176 0.0
H235 H 0.26563 0.72882 0.66212 0.0
H236 H 0.27217 0.77882 0.66763 0.0
H237 H 0.33511 0.68788 0.82722 0.0
H238 H 0.3845 0.6836 0.8141 0.0
H239 H 0.35058 0.65346 0.78726 0.0
C240 C 0.72875 0.61308 0.24797 0.0
C241 C 0.75258 0.61844 0.28508 0.0
C242 C 0.70701 0.64292 0.23062 0.0
C243 C 0.70912 0.679 0.25086 0.0
C244 C 0.73545 0.68534 0.28573 0.0
C245 C 0.75697 0.65504 0.30231 0.0
C246 C 0.67986 0.63516 0.19262 0.0
C247 C 0.73899 0.72346 0.30777 0.0
C248 C 0.65985 0.75733 0.18618 0.0
C249 C 0.6236 0.75654 0.20513 0.0
C250 C 0.68873 0.73365 0.2022 0.0
C251 C 0.68131 0.7088 0.23825 0.0
C252 C 0.64587 0.71025 0.26006 0.0
C253 C 0.61746 0.73411 0.24326 0.0
C254 C 0.72625 0.73335 0.17838 0.0
C255 C 0.63704 0.68471 0.29924 0.0
H256 H 0.72541 0.58507 0.23406 0.0
H257 H 0.77542 0.6597 0.33079 0.0
H258 H 0.65052 0.63706 0.20529 0.0
H259 H 0.68288 0.65657 0.1657 0.0
H260 H 0.68422 0.60677 0.17774 0.0
H261 H 0.76453 0.7253 0.32926 0.0
H262 H 0.74001 0.74614 0.28213 0.0
H263 H 0.71392 0.7288 0.3291 0.0
H264 H 0.6651 0.77459 0.15681 0.0
H265 H 0.58972 0.73349 0.25844 0.0
H266 H 0.72853 0.70759 0.15743 0.0
H267 H 0.7498 0.73267 0.20292 0.0
H268 H 0.72965 0.75827 0.15618 0.0
H269 H 0.63629 0.65503 0.28756 0.0
H270 H 0.6095 0.69165 0.31498 0.0
H271 H 0.65936 0.68667 0.32526 0.0
C272 C 0.72771 0.39015 0.74587 0.0
C273 C 0.75251 0.38515 0.78219 0.0
C274 C 0.70759 0.35963 0.72803 0.0
C275 C 0.71237 0.32325 0.74695 0.0
C276 C 0.73973 0.31746 0.78089 0.0
C277 C 0.75957 0.34843 0.79798 0.0
C278 C 0.67931 0.36684 0.69099 0.0
C279 C 0.74615 0.27905 0.80144 0.0
C280 C 0.62408 0.26382 0.74027 0.0
C281 C 0.63074 0.2426 0.70127 0.0
C282 C 0.65136 0.28867 0.75698 0.0
C283 C 0.68617 0.29239 0.73418 0.0
C284 C 0.6943 0.26874 0.69716 0.0
C285 C 0.66656 0.24401 0.68126 0.0
C286 C 0.64183 0.31288 0.79718 0.0
C287 C 0.73117 0.27148 0.6722 0.0
H288 H 0.72232 0.41827 0.73303 0.0
H289 H 0.77888 0.34404 0.82578 0.0
H290 H 0.68322 0.34631 0.66327 0.0
H291 H 0.65038 0.36305 0.70428 0.0
H292 H 0.68156 0.39578 0.67702 0.0
H293 H 0.77209 0.27808 0.82235 0.0
H294 H 0.72181 0.27177 0.82306 0.0
H295 H 0.74827 0.25716 0.77496 0.0
H296 H 0.59667 0.26275 0.75623 0.0
H297 H 0.67218 0.22775 0.65115 0.0
H298 H 0.63903 0.34272 0.78644 0.0
H299 H 0.66478 0.31147 0.82248 0.0
H300 H 0.6151 0.30423 0.81348 0.0
H301 H 0.73116 0.29752 0.65155 0.0
H302 H 0.73578 0.24703 0.64953 0.0
H303 H 0.75519 0.27329 0.69598 0.0
C304 C 0.48523 0.16416 0.75973 0.0
C305 C 0.4807 0.20091 0.74312 0.0
C306 C 0.48635 0.15701 0.80609 0.0
C307 C 0.48266 0.18738 0.83654 0.0
C308 C 0.47713 0.22445 0.82003 0.0
C309 C 0.47638 0.23077 0.77352 0.0
C310 C 0.4924 0.11714 0.82242 0.0
C311 C 0.47247 0.25754 0.8515 0.0
C312 C 0.44897 0.17464 0.95574 0.0
C313 C 0.48209 0.18085 0.98038 0.0
C314 C 0.44919 0.17444 0.90876 0.0
C315 C 0.4834 0.18064 0.88579 0.0
C316 C 0.51745 0.18421 0.91041 0.0
C317 C 0.51641 0.18418 0.95767 0.0
C318 C 0.41232 0.17034 0.88385 0.0
C319 C 0.55451 0.19062 0.88692 0.0
H320 H 0.48947 0.14109 0.73657 0.0
H321 H 0.47305 0.25928 0.76095 0.0
H322 H 0.51918 0.1153 0.84157 0.0
H323 H 0.46944 0.10894 0.84566 0.0
H324 H 0.4935 0.09652 0.79434 0.0
H325 H 0.46814 0.28452 0.83322 0.0
H326 H 0.44802 0.25291 0.87398 0.0
H327 H 0.49779 0.26019 0.87315 0.0
H328 H 0.4224 0.17167 0.97329 0.0
H329 H 0.54199 0.1892 0.97666 0.0
H330 H 0.41507 0.14939 0.85639 0.0
H331 H 0.4045 0.19769 0.86823 0.0
H332 H 0.38904 0.16155 0.90639 0.0
H333 H 0.55835 0.17006 0.85922 0.0
H334 H 0.57882 0.18827 0.91034 0.0
H335 H 0.5546 0.2192 0.87178 0.0
C336 C 0.18486 0.56653 0.04493 0.0
C337 C 0.18249 0.53113 0.02408 0.0
C338 C 0.19056 0.56967 0.09137 0.0
C339 C 0.19283 0.53664 0.11776 0.0
C340 C 0.1889 0.50083 0.0972 0.0
C341 C 0.18435 0.49847 0.0504 0.0
C342 C 0.19542 0.60824 0.11194 0.0
C343 C 0.19051 0.46497 0.12449 0.0
C344 C 0.24856 0.53092 0.22573 0.0
C345 C 0.21989 0.53151 0.25797 0.0
C346 C 0.24028 0.53534 0.18002 0.0
C347 C 0.20226 0.53917 0.16629 0.0
C348 C 0.17346 0.54238 0.19902 0.0
C349 C 0.18275 0.53894 0.24475 0.0
C350 C 0.27202 0.53343 0.1463 0.0
C351 C 0.13252 0.5461 0.18597 0.0
H352 H 0.18388 0.59192 0.02467 0.0
H353 H 0.18253 0.47111 0.03438 0.0
H354 H 0.17286 0.61352 0.13694 0.0
H355 H 0.22271 0.60967 0.13009 0.0
H356 H 0.19457 0.63106 0.08637 0.0
H357 H 0.18356 0.43974 0.10409 0.0
H358 H 0.2192 0.46114 0.13868 0.0
H359 H 0.1706 0.46676 0.15315 0.0
H360 H 0.27731 0.52518 0.23616 0.0
H361 H 0.1606 0.53898 0.26977 0.0
H362 H 0.26901 0.55613 0.12086 0.0
H363 H 0.27104 0.50611 0.12824 0.0
H364 H 0.30006 0.53598 0.16261 0.0
H365 H 0.12877 0.56439 0.15606 0.0
H366 H 0.11538 0.55772 0.21398 0.0
H367 H 0.12148 0.51779 0.17743 0.0
C368 C 0.48758 0.81191 0.95246 0.0
C369 C 0.51915 0.81623 0.98018 0.0
C370 C 0.49187 0.80611 0.90599 0.0
C371 C 0.52855 0.80328 0.88738 0.0
C372 C 0.56042 0.80784 0.91525 0.0
C373 C 0.55531 0.81493 0.96107 0.0
C374 C 0.45722 0.80244 0.8769 0.0
C375 C 0.6 0.80466 0.89694 0.0
C376 C 0.53292 0.74554 0.78068 0.0
C377 C 0.53539 0.77365 0.74779 0.0
C378 C 0.53275 0.75476 0.82643 0.0
C379 C 0.53363 0.79314 0.83936 0.0
C380 C 0.53833 0.82148 0.80631 0.0
C381 C 0.53965 0.81126 0.76077 0.0
C382 C 0.52956 0.72347 0.86064 0.0
C383 C 0.5388 0.86277 0.81835 0.0
H384 H 0.45964 0.81296 0.96706 0.0
H385 H 0.57996 0.81799 0.98228 0.0
H386 H 0.45921 0.82159 0.84749 0.0
H387 H 0.45522 0.77326 0.86382 0.0
H388 H 0.43095 0.80908 0.89562 0.0
H389 H 0.62135 0.80212 0.92414 0.0
H390 H 0.60278 0.77992 0.87439 0.0
H391 H 0.60648 0.8301 0.87679 0.0
H392 H 0.52944 0.71642 0.7705 0.0
H393 H 0.54095 0.833 0.73523 0.0
H394 H 0.50012 0.72199 0.87289 0.0
H395 H 0.54793 0.72885 0.89011 0.0
H396 H 0.53721 0.69564 0.84609 0.0
H397 H 0.50937 0.87275 0.82297 0.0
H398 H 0.5519 0.87986 0.79135 0.0
H399 H 0.55418 0.86792 0.85019 0.0
C400 C 0.82199 0.47115 0.22534 0.0
C401 C 0.78581 0.46692 0.24342 0.0
C402 C 0.82733 0.47437 0.17891 0.0
C403 C 0.79578 0.47267 0.14994 0.0
C404 C 0.75944 0.46619 0.16774 0.0
C405 C 0.75483 0.46375 0.21443 0.0
C406 C 0.8665 0.48138 0.1611 0.0
C407 C 0.72532 0.4631 0.13758 0.0
C408 C 0.80168 0.52 0.03582 0.0
C409 C 0.81018 0.48927 0.00807 0.0
C410 C 0.79727 0.51507 0.08233 0.0
C411 C 0.80075 0.47848 0.10105 0.0
C412 C 0.80909 0.44739 0.07314 0.0
C413 C 0.81412 0.45323 0.02709 0.0
C414 C 0.78862 0.54889 0.11139 0.0
C415 C 0.81217 0.40787 0.09178 0.0
H416 H 0.84597 0.47409 0.24757 0.0
H417 H 0.72682 0.46041 0.22828 0.0
H418 H 0.87386 0.46013 0.13519 0.0
H419 H 0.86745 0.50946 0.14472 0.0
H420 H 0.8882 0.48041 0.18803 0.0
H421 H 0.69955 0.45532 0.15651 0.0
H422 H 0.72014 0.49042 0.12045 0.0
H423 H 0.7303 0.44168 0.11105 0.0
H424 H 0.79833 0.54781 0.0212 0.0
H425 H 0.82006 0.42917 0.00576 0.0
H426 H 0.81021 0.55153 0.1382 0.0
H427 H 0.76101 0.54518 0.1282 0.0
H428 H 0.78776 0.57553 0.09177 0.0
H429 H 0.83589 0.40615 0.11601 0.0
H430 H 0.81679 0.3865 0.06504 0.0
H431 H 0.78614 0.40055 0.11036 0.0
C432 C 0.53202 0.25587 0.27627 0.0
C433 C 0.53435 0.22806 0.24302 0.0
C434 C 0.5341 0.24635 0.3219 0.0
C435 C 0.53705 0.20795 0.33442 0.0
C436 C 0.54154 0.17996 0.30087 0.0
C437 C 0.54065 0.1905 0.2554 0.0
C438 C 0.53122 0.27726 0.35664 0.0
C439 C 0.54415 0.13863 0.31248 0.0
C440 C 0.56221 0.18603 0.4554 0.0
C441 C 0.52651 0.18373 0.47545 0.0
C442 C 0.56612 0.19346 0.40943 0.0
C443 C 0.53351 0.19732 0.38249 0.0
C444 C 0.49737 0.19336 0.40211 0.0
C445 C 0.49426 0.18726 0.44861 0.0
C446 C 0.60513 0.19787 0.38997 0.0
C447 C 0.46198 0.19626 0.37409 0.0
H448 H 0.52711 0.28494 0.26655 0.0
H449 H 0.54193 0.16898 0.22961 0.0
H450 H 0.50301 0.27655 0.37258 0.0
H451 H 0.55247 0.27302 0.38357 0.0
H452 H 0.53528 0.30562 0.34164 0.0
H453 H 0.55711 0.12215 0.28473 0.0
H454 H 0.56071 0.13376 0.34357 0.0
H455 H 0.51533 0.12771 0.31827 0.0
H456 H 0.58732 0.18361 0.47601 0.0
H457 H 0.46666 0.18546 0.46397 0.0
H458 H 0.60656 0.22325 0.36826 0.0
H459 H 0.61189 0.17313 0.36864 0.0
H460 H 0.62704 0.20012 0.41653 0.0
H461 H 0.45868 0.22541 0.36112 0.0
H462 H 0.43636 0.18898 0.39358 0.0
H463 H 0.464 0.17722 0.3446 0.0
C464 C 0.18231 0.43726 0.54597 0.0
C465 C 0.17808 0.46998 0.51973 0.0
C466 C 0.18362 0.43902 0.59292 0.0
C467 C 0.18029 0.47434 0.61447 0.0
C468 C 0.17362 0.50723 0.5885 0.0
C469 C 0.17268 0.5047 0.54129 0.0
C470 C 0.19077 0.40327 0.61928 0.0
C471 C 0.16944 0.54532 0.61048 0.0
C472 C 0.16592 0.47469 0.74126 0.0
C473 C 0.20263 0.48145 0.75678 0.0
C474 C 0.15805 0.47245 0.69503 0.0
C475 C 0.1876 0.47703 0.66362 0.0
C476 C 0.22483 0.48286 0.6791 0.0
C477 C 0.23187 0.48503 0.72539 0.0
C478 C 0.11797 0.46624 0.6799 0.0
C479 C 0.25729 0.48717 0.64671 0.0
H480 H 0.18612 0.41017 0.52974 0.0
H481 H 0.16944 0.53008 0.52133 0.0
H482 H 0.21896 0.40457 0.63534 0.0
H483 H 0.16969 0.40032 0.64652 0.0
H484 H 0.18974 0.37773 0.59774 0.0
H485 H 0.16028 0.56737 0.58624 0.0
H486 H 0.1487 0.54395 0.63829 0.0
H487 H 0.1968 0.55386 0.62527 0.0
H488 H 0.14311 0.47202 0.76518 0.0
H489 H 0.26033 0.49034 0.73691 0.0
H490 H 0.09958 0.45723 0.70805 0.0
H491 H 0.11667 0.44464 0.65301 0.0
H492 H 0.10652 0.49288 0.66577 0.0
H493 H 0.25957 0.46182 0.62505 0.0
H494 H 0.28461 0.49125 0.66423 0.0
H495 H 0.25218 0.51168 0.62432 0.0
C496 C 0.47184 0.77056 0.27924 0.0
C497 C 0.47582 0.80001 0.24823 0.0
C498 C 0.47413 0.77727 0.32564 0.0
C499 C 0.48107 0.81426 0.34142 0.0
C500 C 0.48467 0.84419 0.31034 0.0
C501 C 0.48183 0.83672 0.26414 0.0
C502 C 0.46943 0.74467 0.35779 0.0
C503 C 0.49233 0.88393 0.3258 0.0
C504 C 0.45014 0.83015 0.46136 0.0
C505 C 0.48347 0.82283 0.48532 0.0
C506 C 0.44945 0.82956 0.41436 0.0
C507 C 0.48298 0.82152 0.3906 0.0
C508 C 0.51735 0.8169 0.41445 0.0
C509 C 0.51722 0.81766 0.46177 0.0
C510 C 0.41224 0.83476 0.39036 0.0
C511 C 0.55375 0.80866 0.39016 0.0
H512 H 0.46743 0.7421 0.26721 0.0
H513 H 0.48584 0.85946 0.24045 0.0
H514 H 0.49518 0.74128 0.3786 0.0
H515 H 0.44566 0.75043 0.38102 0.0
H516 H 0.46396 0.71769 0.34009 0.0
H517 H 0.49376 0.90415 0.29733 0.0
H518 H 0.46999 0.89345 0.34929 0.0
H519 H 0.51941 0.88475 0.34444 0.0
H520 H 0.42401 0.83448 0.47953 0.0
H521 H 0.54294 0.81172 0.48021 0.0
H522 H 0.40347 0.80757 0.37535 0.0
H523 H 0.41499 0.85536 0.36253 0.0
H524 H 0.38961 0.8446 0.41336 0.0
H525 H 0.55279 0.77983 0.37579 0.0
H526 H 0.57856 0.81048 0.41285 0.0
H527 H 0.55759 0.82858 0.3618 0.0
C528 C 0.81931 0.53126 0.72625 0.0
C529 C 0.78275 0.53621 0.7431 0.0
C530 C 0.82572 0.52756 0.68008 0.0
C531 C 0.79489 0.52964 0.65004 0.0
C532 C 0.75816 0.53677 0.66656 0.0
C533 C 0.75244 0.53952 0.71308 0.0
C534 C 0.86526 0.51975 0.66368 0.0
C535 C 0.72482 0.54043 0.63521 0.0
C536 C 0.81694 0.54907 0.52808 0.0
C537 C 0.81329 0.51317 0.50875 0.0
C538 C 0.81052 0.55487 0.57389 0.0
C539 C 0.80111 0.52387 0.60133 0.0
C540 C 0.79801 0.48739 0.58236 0.0
C541 C 0.80379 0.48251 0.53605 0.0
C542 C 0.81337 0.59428 0.59277 0.0
C543 C 0.7883 0.45364 0.61094 0.0
H544 H 0.84279 0.52813 0.74929 0.0
H545 H 0.72415 0.54336 0.72601 0.0
H546 H 0.86634 0.49174 0.64716 0.0
H547 H 0.87353 0.54096 0.63822 0.0
H548 H 0.88627 0.52008 0.69141 0.0
H549 H 0.69864 0.54863 0.65321 0.0
H550 H 0.73059 0.56179 0.60887 0.0
H551 H 0.71995 0.51322 0.61789 0.0
H552 H 0.82371 0.57308 0.50713 0.0
H553 H 0.80064 0.45481 0.52121 0.0
H554 H 0.83725 0.59574 0.61676 0.0
H555 H 0.78742 0.60164 0.61164 0.0
H556 H 0.81769 0.61577 0.56613 0.0
H557 H 0.80908 0.45056 0.63863 0.0
H558 H 0.78787 0.42708 0.59121 0.0
H559 H 0.76024 0.45779 0.62658 0.0
C560 C 0.32636 0.44062 0.91393 0.0
C561 C 0.28945 0.44696 0.92868 0.0
C562 C 0.34945 0.41365 0.93515 0.0
C563 C 0.33566 0.39378 0.973 0.0
C564 C 0.29861 0.40087 0.98858 0.0
C565 C 0.2757 0.42688 0.96564 0.0
C566 C 0.38841 0.40612 0.91684 0.0
C567 C 0.28331 0.38137 0.02978 0.0
C568 C 0.37956 0.30097 0.01068 0.0
C569 C 0.40382 0.3129 0.04494 0.0
C570 C 0.35808 0.32714 0.98596 0.0
C571 C 0.36006 0.36595 0.99682 0.0
C572 C 0.3845 0.37807 0.0315 0.0
C573 C 0.4065 0.35144 0.05469 0.0
C574 C 0.3331 0.31324 0.94843 0.0
C575 C 0.38662 0.41902 0.04501 0.0
H576 H 0.3368 0.45609 0.88513 0.0
H577 H 0.24721 0.4322 0.97725 0.0
H578 H 0.40991 0.41296 0.94261 0.0
H579 H 0.39163 0.37575 0.90873 0.0
H580 H 0.39432 0.42285 0.88611 0.0
H581 H 0.25452 0.3913 0.03858 0.0
H582 H 0.28244 0.3505 0.02413 0.0
H583 H 0.30217 0.38636 0.05894 0.0
H584 H 0.37767 0.27119 0.00294 0.0
H585 H 0.42497 0.36069 0.08151 0.0
H586 H 0.3393 0.32878 0.91694 0.0
H587 H 0.30315 0.31873 0.95685 0.0
H588 H 0.33678 0.28259 0.94215 0.0
H589 H 0.3948 0.43653 0.01577 0.0
H590 H 0.40717 0.42381 0.07259 0.0
H591 H 0.35848 0.42899 0.05622 0.0
C592 C 0.28931 0.61493 -5e-05 0.0
C593 C 0.29393 0.61043 0.95346 0.0
C594 C 0.31653 0.6337 0.02581 0.0
C595 C 0.34876 0.64883 0.0045 0.0
C596 C 0.35352 0.64433 0.95756 0.0
C597 C 0.32619 0.62498 0.93269 0.0
C598 C 0.31071 0.63752 0.07585 0.0
C599 C 0.38706 0.66068 0.93336 0.0
C600 C 0.39882 0.73138 0.05864 0.0
C601 C 0.43132 0.71423 0.07641 0.0
C602 C 0.3716 0.71033 0.03569 0.0
C603 C 0.37669 0.67099 0.03072 0.0
C604 C 0.40908 0.65331 0.04919 0.0
C605 C 0.43619 0.67519 0.07156 0.0
C606 C 0.33775 0.73036 0.01593 0.0
C607 C 0.41531 0.61136 0.04481 0.0
H608 H 0.26459 0.60343 0.01621 0.0
H609 H 0.32979 0.62185 0.8967 0.0
H610 H 0.33514 0.62527 0.09413 0.0
H611 H 0.30891 0.66774 0.08515 0.0
H612 H 0.28469 0.62328 0.08739 0.0
H613 H 0.38755 0.653 0.89718 0.0
H614 H 0.38646 0.69185 0.93613 0.0
H615 H 0.41363 0.65072 0.94917 0.0
H616 H 0.39491 0.76157 0.06186 0.0
H617 H 0.46118 0.66171 0.08522 0.0
H618 H 0.31143 0.71789 0.02917 0.0
H619 H 0.33741 0.72669 0.9789 0.0
H620 H 0.33761 0.76101 0.02353 0.0
H621 H 0.39061 0.59597 0.05815 0.0
H622 H 0.44094 0.60164 0.06297 0.0
H623 H 0.41815 0.60371 0.00882 0.0
C624 C 0.60178 0.71248 0.00179 0.0
C625 C 0.59662 0.7068 0.04799 0.0
C626 C 0.62064 0.68551 0.97548 0.0
C627 C 0.63491 0.65234 0.99601 0.0
C628 C 0.62963 0.64644 0.04261 0.0
C629 C 0.61037 0.67363 0.06797 0.0
C630 C 0.62543 0.69254 0.92578 0.0
C631 C 0.64522 0.6119 0.066 0.0
C632 C 0.66227 0.56757 0.92462 0.0
C633 C 0.70124 0.57265 0.92039 0.0
C634 C 0.6401 0.59361 0.94863 0.0
C635 C 0.65749 0.62494 0.96942 0.0
C636 C 0.69683 0.62993 0.96556 0.0
C637 C 0.71814 0.6039 0.94089 0.0
C638 C 0.59814 0.58761 0.95185 0.0
C639 C 0.71652 0.66267 0.98777 0.0
H640 H 0.59083 0.73787 0.98612 0.0
H641 H 0.60674 0.66922 0.10377 0.0
H642 H 0.6556 0.6906 0.91637 0.0
H643 H 0.61023 0.67062 0.90646 0.0
H644 H 0.61454 0.72061 0.91553 0.0
H645 H 0.63633 0.61025 0.10173 0.0
H646 H 0.63594 0.58597 0.04849 0.0
H647 H 0.67646 0.61232 0.06483 0.0
H648 H 0.64908 0.54347 0.90886 0.0
H649 H 0.74833 0.60779 0.93824 0.0
H650 H 0.58292 0.6126 0.93846 0.0
H651 H 0.58983 0.58441 0.98758 0.0
H652 H 0.58884 0.56227 0.93303 0.0
H653 H 0.70477 0.68966 0.97501 0.0
H654 H 0.74738 0.66237 0.98168 0.0
H655 H 0.7116 0.66198 0.02458 0.0
C656 C 0.71589 0.39238 0.986 0.0
C657 C 0.70391 0.40808 0.94506 0.0
C658 C 0.69093 0.37181 0.01306 0.0
C659 C 0.65316 0.36701 -0.00116 0.0
C660 C 0.64073 0.38354 0.95813 0.0
C661 C 0.66621 0.40379 0.93178 0.0
C662 C 0.70512 0.35466 0.05637 0.0
C663 C 0.60065 0.37917 0.94185 0.0
C664 C 0.59612 0.28263 0.03557 0.0
C665 C 0.57199 0.29847 0.06789 0.0
C666 C 0.62355 0.30437 0.01409 0.0
C667 C 0.6269 0.34301 0.02494 0.0
C668 C 0.60322 0.35909 0.05812 0.0
C669 C 0.57604 0.3366 0.07927 0.0
C670 C 0.64831 0.28617 0.97889 0.0
C671 C 0.60582 0.4003 0.07025 0.0
H672 H 0.74485 0.39584 0.99675 0.0
H673 H 0.65653 0.41596 0.90037 0.0
H674 H 0.68794 0.36492 0.08501 0.0
H675 H 0.70213 0.32357 0.05512 0.0
H676 H 0.73512 0.3615 0.06295 0.0
H677 H 0.59495 0.39557 0.91074 0.0
H678 H 0.59486 0.34904 0.93492 0.0
H679 H 0.58063 0.38851 0.96823 0.0
H680 H 0.59337 0.25318 0.02659 0.0
H681 H 0.55758 0.34908 0.10422 0.0
H682 H 0.67842 0.29128 0.98668 0.0
H683 H 0.64243 0.29894 0.94554 0.0
H684 H 0.64377 0.25529 0.97644 0.0
H685 H 0.63522 0.40764 0.07918 0.0
H686 H 0.58716 0.40789 0.09883 0.0
H687 H 0.59778 0.41778 0.04078 0.0
C688 C 0.61823 0.32562 0.56543 0.0
C689 C 0.60471 0.29272 0.54502 0.0
C690 C 0.63691 0.35316 0.54033 0.0
C691 C 0.64195 0.3478 0.4936 0.0
C692 C 0.62788 0.31493 0.47263 0.0
C693 C 0.60958 0.28761 0.49868 0.0
C694 C 0.65218 0.38744 0.56416 0.0
C695 C 0.6324 0.30855 0.42277 0.0
C696 C 0.66784 0.43385 0.42424 0.0
C697 C 0.70688 0.42904 0.41992 0.0
C698 C 0.64609 0.40721 0.44745 0.0
C699 C 0.66401 0.37554 0.46731 0.0
C700 C 0.70341 0.37075 0.46326 0.0
C701 C 0.7243 0.39741 0.43939 0.0
C702 C 0.60406 0.41306 0.45106 0.0
C703 C 0.72363 0.3377 0.48463 0.0
H704 H 0.61482 0.32959 0.60134 0.0
H705 H 0.59879 0.26242 0.48272 0.0
H706 H 0.6834 0.38601 0.56475 0.0
H707 H 0.64408 0.41357 0.54603 0.0
H708 H 0.64194 0.38954 0.59933 0.0
H709 H 0.61971 0.28161 0.41168 0.0
H710 H 0.61893 0.33199 0.40387 0.0
H711 H 0.66271 0.30827 0.41376 0.0
H712 H 0.65426 0.45824 0.40924 0.0
H713 H 0.75455 0.39373 0.43664 0.0
H714 H 0.59597 0.41613 0.48688 0.0
H715 H 0.58909 0.38807 0.43775 0.0
H716 H 0.59429 0.43844 0.43243 0.0
H717 H 0.71917 0.33803 0.52153 0.0
H718 H 0.75441 0.33796 0.47799 0.0
H719 H 0.71193 0.31087 0.47173 0.0
C720 C 0.43858 0.32548 0.57804 0.0
C721 C 0.44138 0.28673 0.56988 0.0
C722 C 0.41137 0.34749 0.55571 0.0
C723 C 0.38745 0.33042 0.52353 0.0
C724 C 0.39083 0.2914 0.51458 0.0
C725 C 0.41738 0.26992 0.5384 0.0
C726 C 0.40799 0.38889 0.56673 0.0
C727 C 0.36676 0.2724 0.47943 0.0
C728 C 0.29494 0.37586 0.48815 0.0
C729 C 0.30552 0.39427 0.4486 0.0
C730 C 0.32165 0.35592 0.51378 0.0
C731 C 0.35935 0.35336 0.49842 0.0
C732 C 0.36993 0.37158 0.45807 0.0
C733 C 0.34296 0.39238 0.43402 0.0
C734 C 0.30955 0.33762 0.55719 0.0
C735 C 0.4095 0.36844 0.43978 0.0
H736 H 0.4571 0.33837 0.60255 0.0
H737 H 0.41995 0.23998 0.53169 0.0
H738 H 0.41391 0.406 0.53638 0.0
H739 H 0.37877 0.3956 0.57739 0.0
H740 H 0.42768 0.39749 0.59387 0.0
H741 H 0.37379 0.24202 0.47559 0.0
H742 H 0.33658 0.27503 0.4885 0.0
H743 H 0.37051 0.28647 0.44643 0.0
H744 H 0.26595 0.37771 0.49944 0.0
H745 H 0.35092 0.40643 0.4031 0.0
H746 H 0.32808 0.34685 0.58512 0.0
H747 H 0.31243 0.30657 0.55444 0.0
H748 H 0.27989 0.34452 0.56595 0.0
H749 H 0.42997 0.37936 0.46468 0.0
H750 H 0.41303 0.3842 0.4078 0.0
H751 H 0.4167 0.3384 0.43374 0.0
C752 C 0.41762 0.65368 0.54659 0.0
C753 C 0.40764 0.69198 0.54686 0.0
C754 C 0.39592 0.62731 0.52314 0.0
C755 C 0.36387 0.63966 0.49884 0.0
C756 C 0.35438 0.67844 0.49771 0.0
C757 C 0.37626 0.70414 0.52201 0.0
C758 C 0.40664 0.5861 0.52549 0.0
C759 C 0.32071 0.69266 0.47153 0.0
C760 C 0.32391 0.57402 0.41046 0.0
C761 C 0.29294 0.55879 0.43314 0.0
C762 C 0.34708 0.60073 0.43128 0.0
C763 C 0.33944 0.6118 0.47606 0.0
C764 C 0.3085 0.59612 0.49932 0.0
C765 C 0.28541 0.57003 0.47741 0.0
C766 C 0.37954 0.61731 0.40531 0.0
C767 C 0.29989 0.60676 0.54742 0.0
H768 H 0.44178 0.64405 0.56581 0.0
H769 H 0.36863 0.73376 0.52179 0.0
H770 H 0.38371 0.57 0.54181 0.0
H771 H 0.41026 0.5745 0.49115 0.0
H772 H 0.4331 0.58129 0.54469 0.0
H773 H 0.31856 0.7239 0.4718 0.0
H774 H 0.32235 0.68295 0.43614 0.0
H775 H 0.29451 0.68095 0.48606 0.0
H776 H 0.32968 0.56553 0.37615 0.0
H777 H 0.26167 0.55804 0.49517 0.0
H778 H 0.40648 0.61112 0.42282 0.0
H779 H 0.37652 0.64842 0.40367 0.0
H780 H 0.38129 0.60612 0.37051 0.0
H781 H 0.27524 0.59133 0.56099 0.0
H782 H 0.2941 0.63744 0.54974 0.0
H783 H 0.32466 0.60068 0.56909 0.0
C784 C 0.71821 0.60922 0.48838 0.0
C785 C 0.70635 0.59423 0.44712 0.0
C786 C 0.69331 0.63009 0.51541 0.0
C787 C 0.65573 0.63587 0.50085 0.0
C788 C 0.6434 0.62008 0.45978 0.0
C789 C 0.66884 0.59951 0.43344 0.0
C790 C 0.70736 0.64644 0.55912 0.0
C791 C 0.6035 0.62555 0.44315 0.0
C792 C 0.57876 0.66627 0.58166 0.0
C793 C 0.57502 0.70467 0.57118 0.0
C794 C 0.60572 0.64365 0.55999 0.0
C795 C 0.62951 0.65988 0.52722 0.0
C796 C 0.62648 0.69876 0.51725 0.0
C797 C 0.59922 0.72065 0.53923 0.0
C798 C 0.60799 0.60218 0.57113 0.0
C799 C 0.65146 0.71709 0.48256 0.0
H800 H 0.74704 0.60497 0.49942 0.0
H801 H 0.6593 0.58793 0.40172 0.0
H802 H 0.70337 0.67747 0.55913 0.0
H803 H 0.69078 0.63502 0.58756 0.0
H804 H 0.73761 0.64005 0.56511 0.0
H805 H 0.59789 0.60975 0.41164 0.0
H806 H 0.58319 0.61622 0.46912 0.0
H807 H 0.59804 0.6559 0.43679 0.0
H808 H 0.56019 0.6537 0.60629 0.0
H809 H 0.59668 0.75031 0.53098 0.0
H810 H 0.63727 0.5942 0.58026 0.0
H811 H 0.60014 0.58537 0.54114 0.0
H812 H 0.58904 0.59438 0.59928 0.0
H813 H 0.68151 0.71139 0.49043 0.0
H814 H 0.64706 0.74808 0.48071 0.0
H815 H 0.64567 0.70491 0.44893 0.0
C816 C 0.46508 0.07858 0.11152 0.0
C817 C 0.47663 0.10491 0.14365 0.0
C818 C 0.47568 0.04046 0.11525 0.0
C819 C 0.49774 0.02835 0.15243 0.0
C820 C 0.50737 0.05446 0.1864 0.0
C821 C 0.4971 0.09248 0.18131 0.0
C822 C 0.46462 0.01346 0.07837 0.0
C823 C 0.52994 0.04277 0.22718 0.0
C824 C 0.49546 0.9228 0.16962 0.0
C825 C 0.52831 0.91102 0.14745 0.0
C826 C 0.48659 0.96106 0.17447 0.0
C827 C 0.51058 0.98833 0.15534 0.0
C828 C 0.54509 0.97674 0.13542 0.0
C829 C 0.55373 0.93803 0.13195 0.0
C830 C 0.45024 0.97209 0.19737 0.0
C831 C 0.57153 0.00508 0.11497 0.0
H832 H 0.44977 0.08815 0.08205 0.0
H833 H 0.50609 0.11279 0.20625 0.0
H834 H 0.49031 0.0016 0.06239 0.0
H835 H 0.44861 0.98954 0.09266 0.0
H836 H 0.44713 0.02721 0.052 0.0
H837 H 0.52713 0.06353 0.25488 0.0
H838 H 0.52105 0.01478 0.23979 0.0
H839 H 0.56014 0.0407 0.21791 0.0
H840 H 0.47541 0.90191 0.18083 0.0
H841 H 0.57873 0.92892 0.11403 0.0
H842 H 0.42975 0.98234 0.17189 0.0
H843 H 0.45508 0.9954 0.2215 0.0
H844 H 0.43746 0.94806 0.21568 0.0
H845 H 0.55784 0.01849 0.0854 0.0
H846 H 0.59845 0.99194 0.10397 0.0
H847 H 0.57781 0.02773 0.13948 0.0
C848 C 0.92802 0.46042 0.84638 0.0
C849 C 0.90013 0.48719 0.83653 0.0
C850 C 0.9664 0.46989 0.84299 0.0
C851 C 0.97669 0.50681 0.82949 0.0
C852 C 0.94852 0.5323 0.81487 0.0
C853 C 0.91061 0.52223 0.81879 0.0
C854 C 0.9958 0.44156 0.85754 0.0
C855 C 0.95817 0.57153 0.79916 0.0
C856 C 0.06189 0.54674 0.88966 0.0
C857 C 0.09003 0.54285 0.85721 0.0
C858 C 0.02469 0.53616 0.88039 0.0
C859 C 0.0156 0.5208 0.83773 0.0
C860 C 0.04373 0.51852 0.80408 0.0
C861 C 0.08078 0.52941 0.81439 0.0
C862 C 0.99548 0.53979 0.91702 0.0
C863 C 0.0355 0.50253 0.75816 0.0
H864 H 0.91996 0.4334 0.86028 0.0
H865 H 0.88897 0.54293 0.81099 0.0
H866 H 0.0193 0.44067 0.83301 0.0
H867 H 0.00771 0.45016 0.89047 0.0
H868 H 0.98393 0.41282 0.86102 0.0
H869 H 0.93383 0.58571 0.78267 0.0
H870 H 0.96695 0.58876 0.82844 0.0
H871 H 0.98209 0.57072 0.77522 0.0
H872 H 0.06945 0.55624 0.92311 0.0
H873 H 0.10291 0.52555 0.78972 0.0
H874 H 0.98518 0.51144 0.92658 0.0
H875 H 0.9709 0.55626 0.90467 0.0
H876 H 0.00676 0.55378 0.94756 0.0
H877 H 0.0374 0.47134 0.7598 0.0
H878 H 0.05619 0.51252 0.73291 0.0
H879 H 0.00676 0.51013 0.7465 0.0
C880 C 0.46828 0.92387 0.61514 0.0
C881 C 0.47868 0.89794 0.64845 0.0
C882 C 0.47991 0.96158 0.61765 0.0
C883 C 0.5018 0.97374 0.65481 0.0
C884 C 0.51014 0.9482 0.69001 0.0
C885 C 0.49889 0.91049 0.68611 0.0
C886 C 0.47021 0.98801 0.5795 0.0
C887 C 0.5324 0.96006 0.73083 0.0
C888 C 0.56018 0.0613 0.63142 0.0
C889 C 0.535 0.08958 0.64479 0.0
C890 C 0.55071 0.02303 0.63672 0.0
C891 C 0.51567 0.01326 0.65643 0.0
C892 C 0.49197 0.04189 0.67362 0.0
C893 C 0.50159 0.0796 0.66677 0.0
C894 C 0.57683 0.99317 0.61831 0.0
C895 C 0.4551 0.03284 0.69633 0.0
H896 H 0.45323 0.91412 0.58566 0.0
H897 H 0.50703 0.89045 0.7119 0.0
H898 H 0.45459 0.01288 0.59246 0.0
H899 H 0.49646 0.99849 0.56374 0.0
H900 H 0.45282 0.97425 0.55321 0.0
H901 H 0.5282 0.94039 0.75939 0.0
H902 H 0.56282 0.9602 0.72234 0.0
H903 H 0.52448 0.98888 0.74187 0.0
H904 H 0.58564 0.06899 0.61365 0.0
H905 H 0.48164 0.10141 0.67611 0.0
H906 H 0.56335 0.97929 0.58903 0.0
H907 H 0.58213 0.97111 0.64402 0.0
H908 H 0.60424 0.00501 0.60744 0.0
H909 H 0.4346 0.02277 0.67092 0.0
H910 H 0.44281 0.05782 0.71354 0.0
H911 H 0.45903 0.00998 0.7214 0.0
C912 C 0.93142 0.54421 0.35727 0.0
C913 C 0.90454 0.51952 0.33987 0.0
C914 C 0.97002 0.53512 0.35512 0.0
C915 C 0.98165 0.50086 0.33466 0.0
C916 C 0.95465 0.47771 0.3135 0.0
C917 C 0.91639 0.48708 0.31692 0.0
C918 C 0.99808 0.56073 0.37763 0.0
C919 C 0.96589 0.44172 0.28993 0.0
C920 C 0.08656 0.48824 0.31437 0.0
C921 C 0.09762 0.46758 0.35247 0.0
C922 C 0.0487 0.49796 0.30701 0.0
C923 C 0.02134 0.48749 0.33909 0.0
C924 C 0.03209 0.46498 0.37647 0.0
C925 C 0.07014 0.45499 0.38251 0.0
C926 C 0.03856 0.52108 0.26609 0.0
C927 C 0.00368 0.45306 0.41134 0.0
H928 H 0.92217 0.56891 0.37572 0.0
H929 H 0.89548 0.46776 0.30394 0.0
H930 H 0.01049 0.5462 0.40726 0.0
H931 H 0.02148 0.56727 0.35428 0.0
H932 H 0.98499 0.58758 0.389 0.0
H933 H 0.94228 0.42968 0.27015 0.0
H934 H 0.99 0.44676 0.26705 0.0
H935 H 0.97509 0.42054 0.31517 0.0
H936 H 0.10779 0.49791 0.29098 0.0
H937 H 0.07868 0.43944 0.41224 0.0
H938 H 0.03687 0.55124 0.27568 0.0
H939 H 0.0108 0.51286 0.25214 0.0
H940 H 0.06009 0.51808 0.23927 0.0
H941 H 0.99148 0.47838 0.42782 0.0
H942 H 0.01634 0.43468 0.43763 0.0
H943 H 0.98018 0.43771 0.39513 0.0
loop_
_geom_bond_atom_site_label_1
_geom_bond_atom_site_label_2
_geom_bond_distance
_geom_bond_site_symmetry_2
_ccdc_geom_bond_type
Fe0 O2 1.918 . S
Fe0 O5 1.997 . S
Fe0 O6 2.002 . S
Fe0 O11 1.976 . S
Fe0 O14 1.996 . S
Fe1 O2 1.918 . S
Fe1 O9 1.997 1_554 S
Fe1 O12 1.996 . S
Fe1 O16 1.976 . S
Fe1 O19 2.002 . S
O2 Fe0 1.918 . S
O2 Fe1 1.918 . S
O2 Fe3 1.918 . S
Fe3 O2 1.918 . S
Fe3 O4 2.002 . S
Fe3 O13 1.976 . S
Fe3 O17 1.996 . S
Fe3 O20 1.997 . S
O4 Fe3 2.002 . S
O4 C21 1.295 . S
O5 Fe0 1.997 . S
O5 C21 1.235 . S
O6 Fe0 2.002 . S
O6 C7 1.295 1_554 S
C7 O6 1.295 1_556 S
C7 O9 1.235 . S
C8 O13 1.287 . S
C8 O14 1.255 . S
O9 Fe1 1.997 1_556 S
O9 C7 1.235 . S
C10 O16 1.287 . S
C10 O17 1.255 . S
O11 Fe0 1.976 . S
O11 C18 1.287 . S
O12 Fe1 1.996 . S
O12 C18 1.255 . S
O13 Fe3 1.976 . S
O13 C8 1.287 . S
O14 Fe0 1.996 . S
O14 C8 1.255 . S
C15 O19 1.295 . S
C15 O20 1.235 . S
O16 Fe1 1.976 . S
O16 C10 1.287 . S
O17 Fe3 1.996 . S
O17 C10 1.255 . S
C18 O11 1.287 . S
C18 O12 1.255 . S
O19 Fe1 2.002 . S
O19 C15 1.295 . S
O20 Fe3 1.997 . S
O20 C15 1.235 . S
C21 O4 1.295 . S
C21 O5 1.235 . S
Fe22 O24 1.918 . S
Fe22 O27 1.997 . S
Fe22 O28 2.002 1_556 S
Fe22 O33 1.976 . S
Fe22 O36 1.996 . S
Fe23 O24 1.918 . S
Fe23 O31 1.997 . S
Fe23 O34 1.996 . S
Fe23 O38 1.976 . S
Fe23 O41 2.002 . S
O24 Fe22 1.918 . S
O24 Fe23 1.918 . S
O24 Fe25 1.918 . S
Fe25 O24 1.918 . S
Fe25 O26 2.002 . S
Fe25 O35 1.976 . S
Fe25 O39 1.996 . S
Fe25 O42 1.997 . S
O26 Fe25 2.002 . S
O26 C43 1.295 . S
O27 Fe22 1.997 . S
O27 C43 1.235 . S
O28 Fe22 2.002 1_554 S
O28 C29 1.295 . S
C29 O28 1.295 . S
C29 O31 1.235 1_554 S
C30 O35 1.287 . S
C30 O36 1.255 . S
O31 Fe23 1.997 . S
O31 C29 1.235 1_556 S
C32 O38 1.287 . S
C32 O39 1.255 . S
O33 Fe22 1.976 . S
O33 C40 1.287 . S
O34 Fe23 1.996 . S
O34 C40 1.255 . S
O35 Fe25 1.976 . S
O35 C30 1.287 . S
O36 Fe22 1.996 . S
O36 C30 1.255 . S
C37 O41 1.295 . S
C37 O42 1.235 . S
O38 Fe23 1.976 . S
O38 C32 1.287 . S
O39 Fe25 1.996 . S
O39 C32 1.255 . S
C40 O33 1.287 . S
C40 O34 1.255 . S
O41 Fe23 2.002 . S
O41 C37 1.295 . S
O42 Fe25 1.997 . S
O42 C37 1.235 . S
C43 O26 1.295 . S
C43 O27 1.235 . S
Fe44 O46 1.918 . S
Fe44 O49 1.997 1_554 S
Fe44 O50 2.002 . S
Fe44 O55 1.976 . S
Fe44 O58 1.996 . S
Fe45 O46 1.918 . S
Fe45 O53 1.997 . S
Fe45 O56 1.996 . S
Fe45 O60 1.976 . S
Fe45 O63 2.002 . S
O46 Fe44 1.918 . S
O46 Fe45 1.918 . S
O46 Fe47 1.918 . S
Fe47 O46 1.918 . S
Fe47 O48 2.002 . S
Fe47 O57 1.976 . S
Fe47 O61 1.996 . S
Fe47 O64 1.997 . S
O48 Fe47 2.002 . S
O48 C65 1.295 1_554 S
O49 Fe44 1.997 1_556 S
O49 C65 1.235 . S
O50 Fe44 2.002 . S
O50 C51 1.295 . S
C51 O50 1.295 . S
C51 O53 1.235 . S
C52 O57 1.287 . S
C52 O58 1.255 . S
O53 Fe45 1.997 . S
O53 C51 1.235 . S
C54 O60 1.287 . S
C54 O61 1.255 . S
O55 Fe44 1.976 . S
O55 C62 1.287 . S
O56 Fe45 1.996 . S
O56 C62 1.255 . S
O57 Fe47 1.976 . S
O57 C52 1.287 . S
O58 Fe44 1.996 . S
O58 C52 1.255 . S
C59 O63 1.295 . S
C59 O64 1.235 . S
O60 Fe45 1.976 . S
O60 C54 1.287 . S
O61 Fe47 1.996 . S
O61 C54 1.255 . S
C62 O55 1.287 . S
C62 O56 1.255 . S
O63 Fe45 2.002 . S
O63 C59 1.295 . S
O64 Fe47 1.997 . S
O64 C59 1.235 . S
C65 O48 1.295 1_556 S
C65 O49 1.235 . S
Fe66 O68 1.918 . S
Fe66 O71 1.997 . S
Fe66 O72 2.002 . S
Fe66 O77 1.976 . S
Fe66 O80 1.996 . S
Fe67 O68 1.918 . S
Fe67 O75 1.997 . S
Fe67 O78 1.996 . S
Fe67 O82 1.976 . S
Fe67 O85 2.002 . S
O68 Fe66 1.918 . S
O68 Fe67 1.918 . S
O68 Fe69 1.918 . S
Fe69 O68 1.918 . S
Fe69 O70 2.002 1_556 S
Fe69 O79 1.976 . S
Fe69 O83 1.996 . S
Fe69 O86 1.997 . S
O70 Fe69 2.002 1_554 S
O70 C87 1.295 . S
O71 Fe66 1.997 . S
O71 C87 1.235 1_556 S
O72 Fe66 2.002 . S
O72 C73 1.295 . S
C73 O72 1.295 . S
C73 O75 1.235 . S
C74 O79 1.287 . S
C74 O80 1.255 . S
O75 Fe67 1.997 . S
O75 C73 1.235 . S
C76 O82 1.287 . S
C76 O83 1.255 . S
O77 Fe66 1.976 . S
O77 C84 1.287 . S
O78 Fe67 1.996 . S
O78 C84 1.255 . S
O79 Fe69 1.976 . S
O79 C74 1.287 . S
O80 Fe66 1.996 . S
O80 C74 1.255 . S
C81 O85 1.295 . S
C81 O86 1.235 . S
O82 Fe67 1.976 . S
O82 C76 1.287 . S
O83 Fe69 1.996 . S
O83 C76 1.255 . S
C84 O77 1.287 . S
C84 O78 1.255 . S
O85 Fe67 2.002 . S
O85 C81 1.295 . S
O86 Fe69 1.997 . S
O86 C81 1.235 . S
C87 O70 1.295 . S
C87 O71 1.235 1_554 S
Fe88 O90 1.918 . S
Fe88 O93 1.997 . S
Fe88 O94 2.002 . S
Fe88 O99 1.976 . S
Fe88 O102 1.996 . S
Fe89 O90 1.918 . S
Fe89 O97 1.997 . S
Fe89 O100 1.996 . S
Fe89 O104 1.976 . S
Fe89 O107 2.002 . S
O90 Fe88 1.918 . S
O90 Fe89 1.918 . S
O90 Fe91 1.918 . S
Fe91 O90 1.918 . S
Fe91 O92 2.002 . S
Fe91 O101 1.976 . S
Fe91 O105 1.996 . S
Fe91 O108 1.997 . S
O92 Fe91 2.002 . S
O92 C109 1.295 . S
O93 Fe88 1.997 . S
O93 C109 1.235 . S
O94 Fe88 2.002 . S
O94 C95 1.295 . S
C95 O94 1.295 . S
C95 O97 1.235 . S
C96 O101 1.287 . S
C96 O102 1.255 . S
O97 Fe89 1.997 . S
O97 C95 1.235 . S
C98 O104 1.287 . S
C98 O105 1.255 . S
O99 Fe88 1.976 . S
O99 C106 1.287 . S
O100 Fe89 1.996 . S
O100 C106 1.255 . S
O101 Fe91 1.976 . S
O101 C96 1.287 . S
O102 Fe88 1.996 . S
O102 C96 1.255 . S
C103 O107 1.295 . S
C103 O108 1.235 . S
O104 Fe89 1.976 . S
O104 C98 1.287 . S
O105 Fe91 1.996 . S
O105 C98 1.255 . S
C106 O99 1.287 . S
C106 O100 1.255 . S
O107 Fe89 2.002 . S
O107 C103 1.295 . S
O108 Fe91 1.997 . S
O108 C103 1.235 . S
C109 O92 1.295 . S
C109 O93 1.235 . S
Fe110 O112 1.918 . S
Fe110 O115 1.997 . S
Fe110 O116 2.002 . S
Fe110 O121 1.976 . S
Fe110 O124 1.996 . S
Fe111 O112 1.918 . S
Fe111 O119 1.997 . S
Fe111 O122 1.996 . S
Fe111 O126 1.976 . S
Fe111 O129 2.002 . S
O112 Fe110 1.918 . S
O112 Fe111 1.918 . S
O112 Fe113 1.918 . S
Fe113 O112 1.918 . S
Fe113 O114 2.002 . S
Fe113 O123 1.976 . S
Fe113 O127 1.996 . S
Fe113 O130 1.997 . S
O114 Fe113 2.002 . S
O114 C131 1.295 . S
O115 Fe110 1.997 . S
O115 C131 1.235 . S
O116 Fe110 2.002 . S
O116 C117 1.295 . S
C117 O116 1.295 . S
C117 O119 1.235 . S
C118 O123 1.287 . S
C118 O124 1.255 . S
O119 Fe111 1.997 . S
O119 C117 1.235 . S
C120 O126 1.287 . S
C120 O127 1.255 . S
O121 Fe110 1.976 . S
O121 C128 1.287 . S
O122 Fe111 1.996 . S
O122 C128 1.255 . S
O123 Fe113 1.976 . S
O123 C118 1.287 . S
O124 Fe110 1.996 . S
O124 C118 1.255 . S
C125 O129 1.295 . S
C125 O130 1.235 . S
O126 Fe111 1.976 . S
O126 C120 1.287 . S
O127 Fe113 1.996 . S
O127 C120 1.255 . S
C128 O121 1.287 . S
C128 O122 1.255 . S
O129 Fe111 2.002 . S
O129 C125 1.295 . S
O130 Fe113 1.997 . S
O130 C125 1.235 . S
C131 O114 1.295 . S
C131 O115 1.235 . S
Fe132 O134 1.918 . S
Fe132 O137 1.997 . S
Fe132 O138 2.002 . S
Fe132 O143 1.976 . S
Fe132 O146 1.996 . S
Fe133 O134 1.918 . S
Fe133 O141 1.997 . S
Fe133 O144 1.996 . S
Fe133 O148 1.976 . S
Fe133 O151 2.002 . S
O134 Fe132 1.918 . S
O134 Fe133 1.918 . S
O134 Fe135 1.918 . S
Fe135 O134 1.918 . S
Fe135 O136 2.002 . S
Fe135 O145 1.976 . S
Fe135 O149 1.996 . S
Fe135 O152 1.997 . S
O136 Fe135 2.002 . S
O136 C153 1.295 . S
O137 Fe132 1.997 . S
O137 C153 1.235 . S
O138 Fe132 2.002 . S
O138 C139 1.295 . S
C139 O138 1.295 . S
C139 O141 1.235 . S
C140 O145 1.287 . S
C140 O146 1.255 . S
O141 Fe133 1.997 . S
O141 C139 1.235 . S
C142 O148 1.287 . S
C142 O149 1.255 . S
O143 Fe132 1.976 . S
O143 C150 1.287 . S
O144 Fe133 1.996 . S
O144 C150 1.255 . S
O145 Fe135 1.976 . S
O145 C140 1.287 . S
O146 Fe132 1.996 . S
O146 C140 1.255 . S
C147 O151 1.295 . S
C147 O152 1.235 . S
O148 Fe133 1.976 . S
O148 C142 1.287 . S
O149 Fe135 1.996 . S
O149 C142 1.255 . S
C150 O143 1.287 . S
C150 O144 1.255 . S
O151 Fe133 2.002 . S
O151 C147 1.295 . S
O152 Fe135 1.997 . S
O152 C147 1.235 . S
C153 O136 1.295 . S
C153 O137 1.235 . S
Fe154 O156 1.918 . S
Fe154 O159 1.997 . S
Fe154 O160 2.002 . S
Fe154 O165 1.976 . S
Fe154 O168 1.996 . S
Fe155 O156 1.918 . S
Fe155 O163 1.997 . S
Fe155 O166 1.996 . S
Fe155 O170 1.976 . S
Fe155 O173 2.002 . S
O156 Fe154 1.918 . S
O156 Fe155 1.918 . S
O156 Fe157 1.918 . S
Fe157 O156 1.918 . S
Fe157 O158 2.002 . S
Fe157 O167 1.976 . S
Fe157 O171 1.996 . S
Fe157 O174 1.997 . S
O158 Fe157 2.002 . S
O158 C175 1.295 . S
O159 Fe154 1.997 . S
O159 C175 1.235 . S
O160 Fe154 2.002 . S
O160 C161 1.295 . S
C161 O160 1.295 . S
C161 O163 1.235 . S
C162 O167 1.287 . S
C162 O168 1.255 . S
O163 Fe155 1.997 . S
O163 C161 1.235 . S
C164 O170 1.287 . S
C164 O171 1.255 . S
O165 Fe154 1.976 . S
O165 C172 1.287 . S
O166 Fe155 1.996 . S
O166 C172 1.255 . S
O167 Fe157 1.976 . S
O167 C162 1.287 . S
O168 Fe154 1.996 . S
O168 C162 1.255 . S
C169 O173 1.295 . S
C169 O174 1.235 . S
O170 Fe155 1.976 . S
O170 C164 1.287 . S
O171 Fe157 1.996 . S
O171 C164 1.255 . S
C172 O165 1.287 . S
C172 O166 1.255 . S
O173 Fe155 2.002 . S
O173 C169 1.295 . S
O174 Fe157 1.997 . S
O174 C169 1.235 . S
C175 O158 1.295 . S
C175 O159 1.235 . S
C176 C177 1.391 . S
C176 C178 1.394 . S
C176 H192 0.931 . S
C177 C176 1.391 . S
C177 C181 1.376 . S
C178 C176 1.394 . S
C178 C179 1.369 . S
C178 C182 1.531 . S
C179 C178 1.369 . S
C179 C180 1.410 . S
C179 C187 1.503 . S
C180 C179 1.410 . S
C180 C181 1.392 . S
C180 C183 1.511 . S
C181 C177 1.376 . S
C181 C180 1.392 . S
C181 H193 0.929 . S
C182 C178 1.531 . S
C182 H194 0.960 . S
C182 H195 0.962 . S
C182 H196 0.960 . S
C183 C180 1.511 . S
C183 H197 0.961 . S
C183 H198 0.961 . S
C183 H199 0.961 . S
C184 C185 1.370 . S
C184 C186 1.363 . S
C184 H200 0.931 . S
C185 C184 1.370 . S
C185 C189 1.408 . S
C186 C184 1.363 . S
C186 C187 1.370 . S
C186 C190 1.524 . S
C187 C179 1.503 . S
C187 C186 1.370 . S
C187 C188 1.403 . S
C188 C187 1.403 . S
C188 C189 1.404 . S
C188 C191 1.539 . S
C189 C185 1.408 . S
C189 C188 1.404 . S
C189 H201 0.930 . S
C190 C186 1.524 . S
C190 H202 0.956 . S
C190 H203 0.961 . S
C190 H204 0.961 . S
C191 C188 1.539 . S
C191 H205 0.958 . S
C191 H206 0.961 . S
C191 H207 0.960 . S
H192 C176 0.931 . S
H193 C181 0.929 . S
H194 C182 0.960 . S
H195 C182 0.962 . S
H196 C182 0.960 . S
H197 C183 0.961 . S
H198 C183 0.961 . S
H199 C183 0.961 . S
H200 C184 0.931 . S
H201 C189 0.930 . S
H202 C190 0.956 . S
H203 C190 0.961 . S
H204 C190 0.961 . S
H205 C191 0.958 . S
H206 C191 0.961 . S
H207 C191 0.960 . S
C208 C209 1.391 . S
C208 C210 1.394 . S
C208 H224 0.931 . S
C209 C208 1.391 . S
C209 C213 1.376 . S
C210 C208 1.394 . S
C210 C211 1.369 . S
C210 C214 1.531 . S
C211 C210 1.369 . S
C211 C212 1.410 . S
C211 C219 1.503 . S
C212 C211 1.410 . S
C212 C213 1.392 . S
C212 C215 1.511 . S
C213 C209 1.376 . S
C213 C212 1.392 . S
C213 H225 0.929 . S
C214 C210 1.531 . S
C214 H226 0.960 . S
C214 H227 0.962 . S
C214 H228 0.960 . S
C215 C212 1.511 . S
C215 H229 0.961 . S
C215 H230 0.961 . S
C215 H231 0.961 . S
C216 C217 1.370 . S
C216 C218 1.363 . S
C216 H232 0.931 . S
C217 C216 1.370 . S
C217 C221 1.408 . S
C218 C216 1.363 . S
C218 C219 1.370 . S
C218 C222 1.524 . S
C219 C211 1.503 . S
C219 C218 1.370 . S
C219 C220 1.403 . S
C220 C219 1.403 . S
C220 C221 1.404 . S
C220 C223 1.539 . S
C221 C217 1.408 . S
C221 C220 1.404 . S
C221 H233 0.930 . S
C222 C218 1.524 . S
C222 H234 0.956 . S
C222 H235 0.961 . S
C222 H236 0.961 . S
C223 C220 1.539 . S
C223 H237 0.958 . S
C223 H238 0.961 . S
C223 H239 0.960 . S
H224 C208 0.931 . S
H225 C213 0.929 . S
H226 C214 0.960 . S
H227 C214 0.962 . S
H228 C214 0.960 . S
H229 C215 0.961 . S
H230 C215 0.961 . S
H231 C215 0.961 . S
H232 C216 0.931 . S
H233 C221 0.930 . S
H234 C222 0.956 . S
H235 C222 0.961 . S
H236 C222 0.961 . S
H237 C223 0.958 . S
H238 C223 0.961 . S
H239 C223 0.960 . S
C240 C241 1.391 . S
C240 C242 1.394 . S
C240 H256 0.931 . S
C241 C240 1.391 . S
C241 C245 1.376 . S
C242 C240 1.394 . S
C242 C243 1.369 . S
C242 C246 1.531 . S
C243 C242 1.369 . S
C243 C244 1.410 . S
C243 C251 1.503 . S
C244 C243 1.410 . S
C244 C245 1.392 . S
C244 C247 1.511 . S
C245 C241 1.376 . S
C245 C244 1.392 . S
C245 H257 0.929 . S
C246 C242 1.531 . S
C246 H258 0.960 . S
C246 H259 0.962 . S
C246 H260 0.960 . S
C247 C244 1.511 . S
C247 H261 0.961 . S
C247 H262 0.961 . S
C247 H263 0.961 . S
C248 C249 1.370 . S
C248 C250 1.363 . S
C248 H264 0.931 . S
C249 C248 1.370 . S
C249 C253 1.408 . S
C250 C248 1.363 . S
C250 C251 1.370 . S
C250 C254 1.524 . S
C251 C243 1.503 . S
C251 C250 1.370 . S
C251 C252 1.403 . S
C252 C251 1.403 . S
C252 C253 1.404 . S
C252 C255 1.539 . S
C253 C249 1.408 . S
C253 C252 1.404 . S
C253 H265 0.930 . S
C254 C250 1.524 . S
C254 H266 0.956 . S
C254 H267 0.961 . S
C254 H268 0.961 . S
C255 C252 1.539 . S
C255 H269 0.958 . S
C255 H270 0.961 . S
C255 H271 0.960 . S
H256 C240 0.931 . S
H257 C245 0.929 . S
H258 C246 0.960 . S
H259 C246 0.962 . S
H260 C246 0.960 . S
H261 C247 0.961 . S
H262 C247 0.961 . S
H263 C247 0.961 . S
H264 C248 0.931 . S
H265 C253 0.930 . S
H266 C254 0.956 . S
H267 C254 0.961 . S
H268 C254 0.961 . S
H269 C255 0.958 . S
H270 C255 0.961 . S
H271 C255 0.960 . S
C272 C273 1.391 . S
C272 C274 1.394 . S
C272 H288 0.931 . S
C273 C272 1.391 . S
C273 C277 1.376 . S
C274 C272 1.394 . S
C274 C275 1.369 . S
C274 C278 1.531 . S
C275 C274 1.369 . S
C275 C276 1.410 . S
C275 C283 1.503 . S
C276 C275 1.410 . S
C276 C277 1.392 . S
C276 C279 1.511 . S
C277 C273 1.376 . S
C277 C276 1.392 . S
C277 H289 0.929 . S
C278 C274 1.531 . S
C278 H290 0.960 . S
C278 H291 0.962 . S
C278 H292 0.960 . S
C279 C276 1.511 . S
C279 H293 0.961 . S
C279 H294 0.961 . S
C279 H295 0.961 . S
C280 C281 1.370 . S
C280 C282 1.363 . S
C280 H296 0.931 . S
C281 C280 1.370 . S
C281 C285 1.408 . S
C282 C280 1.363 . S
C282 C283 1.370 . S
C282 C286 1.524 . S
C283 C275 1.503 . S
C283 C282 1.370 . S
C283 C284 1.403 . S
C284 C283 1.403 . S
C284 C285 1.404 . S
C284 C287 1.539 . S
C285 C281 1.408 . S
C285 C284 1.404 . S
C285 H297 0.930 . S
C286 C282 1.524 . S
C286 H298 0.956 . S
C286 H299 0.961 . S
C286 H300 0.961 . S
C287 C284 1.539 . S
C287 H301 0.958 . S
C287 H302 0.961 . S
C287 H303 0.960 . S
H288 C272 0.931 . S
H289 C277 0.929 . S
H290 C278 0.960 . S
H291 C278 0.962 . S
H292 C278 0.960 . S
H293 C279 0.961 . S
H294 C279 0.961 . S
H295 C279 0.961 . S
H296 C280 0.931 . S
H297 C285 0.930 . S
H298 C286 0.956 . S
H299 C286 0.961 . S
H300 C286 0.961 . S
H301 C287 0.958 . S
H302 C287 0.961 . S
H303 C287 0.960 . S
C304 C305 1.391 . S
C304 C306 1.394 . S
C304 H320 0.931 . S
C305 C304 1.391 . S
C305 C309 1.376 . S
C306 C304 1.394 . S
C306 C307 1.369 . S
C306 C310 1.531 . S
C307 C306 1.369 . S
C307 C308 1.410 . S
C307 C315 1.503 . S
C308 C307 1.410 . S
C308 C309 1.392 . S
C308 C311 1.511 . S
C309 C305 1.376 . S
C309 C308 1.392 . S
C309 H321 0.929 . S
C310 C306 1.531 . S
C310 H322 0.960 . S
C310 H323 0.962 . S
C310 H324 0.960 . S
C311 C308 1.511 . S
C311 H325 0.961 . S
C311 H326 0.961 . S
C311 H327 0.961 . S
C312 C313 1.370 . S
C312 C314 1.363 . S
C312 H328 0.931 . S
C313 C312 1.370 . S
C313 C317 1.408 . S
C314 C312 1.363 . S
C314 C315 1.370 . S
C314 C318 1.524 . S
C315 C307 1.503 . S
C315 C314 1.370 . S
C315 C316 1.403 . S
C316 C315 1.403 . S
C316 C317 1.404 . S
C316 C319 1.539 . S
C317 C313 1.408 . S
C317 C316 1.404 . S
C317 H329 0.930 . S
C318 C314 1.524 . S
C318 H330 0.956 . S
C318 H331 0.961 . S
C318 H332 0.961 . S
C319 C316 1.539 . S
C319 H333 0.958 . S
C319 H334 0.961 . S
C319 H335 0.960 . S
H320 C304 0.931 . S
H321 C309 0.929 . S
H322 C310 0.960 . S
H323 C310 0.962 . S
H324 C310 0.960 . S
H325 C311 0.961 . S
H326 C311 0.961 . S
H327 C311 0.961 . S
H328 C312 0.931 . S
H329 C317 0.930 . S
H330 C318 0.956 . S
H331 C318 0.961 . S
H332 C318 0.961 . S
H333 C319 0.958 . S
H334 C319 0.961 . S
H335 C319 0.960 . S
C336 C337 1.391 . S
C336 C338 1.394 . S
C336 H352 0.931 . S
C337 C336 1.391 . S
C337 C341 1.376 . S
C338 C336 1.394 . S
C338 C339 1.369 . S
C338 C342 1.531 . S
C339 C338 1.369 . S
C339 C340 1.410 . S
C339 C347 1.503 . S
C340 C339 1.410 . S
C340 C341 1.392 . S
C340 C343 1.511 . S
C341 C337 1.376 . S
C341 C340 1.392 . S
C341 H353 0.929 . S
C342 C338 1.531 . S
C342 H354 0.960 . S
C342 H355 0.962 . S
C342 H356 0.960 . S
C343 C340 1.511 . S
C343 H357 0.961 . S
C343 H358 0.961 . S
C343 H359 0.961 . S
C344 C345 1.370 . S
C344 C346 1.363 . S
C344 H360 0.931 . S
C345 C344 1.370 . S
C345 C349 1.408 . S
C346 C344 1.363 . S
C346 C347 1.370 . S
C346 C350 1.524 . S
C347 C339 1.503 . S
C347 C346 1.370 . S
C347 C348 1.403 . S
C348 C347 1.403 . S
C348 C349 1.404 . S
C348 C351 1.539 . S
C349 C345 1.408 . S
C349 C348 1.404 . S
C349 H361 0.930 . S
C350 C346 1.524 . S
C350 H362 0.956 . S
C350 H363 0.961 . S
C350 H364 0.961 . S
C351 C348 1.539 . S
C351 H365 0.958 . S
C351 H366 0.961 . S
C351 H367 0.960 . S
H352 C336 0.931 . S
H353 C341 0.929 . S
H354 C342 0.960 . S
H355 C342 0.962 . S
H356 C342 0.960 . S
H357 C343 0.961 . S
H358 C343 0.961 . S
H359 C343 0.961 . S
H360 C344 0.931 . S
H361 C349 0.930 . S
H362 C350 0.956 . S
H363 C350 0.961 . S
H364 C350 0.961 . S
H365 C351 0.958 . S
H366 C351 0.961 . S
H367 C351 0.960 . S
C368 C369 1.391 . S
C368 C370 1.394 . S
C368 H384 0.931 . S
C369 C368 1.391 . S
C369 C373 1.376 . S
C370 C368 1.394 . S
C370 C371 1.369 . S
C370 C374 1.531 . S
C371 C370 1.369 . S
C371 C372 1.410 . S
C371 C379 1.503 . S
C372 C371 1.410 . S
C372 C373 1.392 . S
C372 C375 1.511 . S
C373 C369 1.376 . S
C373 C372 1.392 . S
C373 H385 0.929 . S
C374 C370 1.531 . S
C374 H386 0.960 . S
C374 H387 0.962 . S
C374 H388 0.960 . S
C375 C372 1.511 . S
C375 H389 0.961 . S
C375 H390 0.961 . S
C375 H391 0.961 . S
C376 C377 1.370 . S
C376 C378 1.363 . S
C376 H392 0.931 . S
C377 C376 1.370 . S
C377 C381 1.408 . S
C378 C376 1.363 . S
C378 C379 1.370 . S
C378 C382 1.524 . S
C379 C371 1.503 . S
C379 C378 1.370 . S
C379 C380 1.403 . S
C380 C379 1.403 . S
C380 C381 1.404 . S
C380 C383 1.539 . S
C381 C377 1.408 . S
C381 C380 1.404 . S
C381 H393 0.930 . S
C382 C378 1.524 . S
C382 H394 0.956 . S
C382 H395 0.961 . S
C382 H396 0.961 . S
C383 C380 1.539 . S
C383 H397 0.958 . S
C383 H398 0.961 . S
C383 H399 0.960 . S
H384 C368 0.931 . S
H385 C373 0.929 . S
H386 C374 0.960 . S
H387 C374 0.962 . S
H388 C374 0.960 . S
H389 C375 0.961 . S
H390 C375 0.961 . S
H391 C375 0.961 . S
H392 C376 0.931 . S
H393 C381 0.930 . S
H394 C382 0.956 . S
H395 C382 0.961 . S
H396 C382 0.961 . S
H397 C383 0.958 . S
H398 C383 0.961 . S
H399 C383 0.960 . S
C400 C401 1.391 . S
C400 C402 1.394 . S
C400 H416 0.931 . S
C401 C400 1.391 . S
C401 C405 1.376 . S
C402 C400 1.394 . S
C402 C403 1.369 . S
C402 C406 1.531 . S
C403 C402 1.369 . S
C403 C404 1.410 . S
C403 C411 1.503 . S
C404 C403 1.410 . S
C404 C405 1.392 . S
C404 C407 1.511 . S
C405 C401 1.376 . S
C405 C404 1.392 . S
C405 H417 0.929 . S
C406 C402 1.531 . S
C406 H418 0.960 . S
C406 H419 0.962 . S
C406 H420 0.960 . S
C407 C404 1.511 . S
C407 H421 0.961 . S
C407 H422 0.961 . S
C407 H423 0.961 . S
C408 C409 1.370 . S
C408 C410 1.363 . S
C408 H424 0.931 . S
C409 C408 1.370 . S
C409 C413 1.408 . S
C410 C408 1.363 . S
C410 C411 1.370 . S
C410 C414 1.524 . S
C411 C403 1.503 . S
C411 C410 1.370 . S
C411 C412 1.403 . S
C412 C411 1.403 . S
C412 C413 1.404 . S
C412 C415 1.539 . S
C413 C409 1.408 . S
C413 C412 1.404 . S
C413 H425 0.930 . S
C414 C410 1.524 . S
C414 H426 0.956 . S
C414 H427 0.961 . S
C414 H428 0.961 . S
C415 C412 1.539 . S
C415 H429 0.958 . S
C415 H430 0.961 . S
C415 H431 0.960 . S
H416 C400 0.931 . S
H417 C405 0.929 . S
H418 C406 0.960 . S
H419 C406 0.962 . S
H420 C406 0.960 . S
H421 C407 0.961 . S
H422 C407 0.961 . S
H423 C407 0.961 . S
H424 C408 0.931 . S
H425 C413 0.930 . S
H426 C414 0.956 . S
H427 C414 0.961 . S
H428 C414 0.961 . S
H429 C415 0.958 . S
H430 C415 0.961 . S
H431 C415 0.960 . S
C432 C433 1.391 . S
C432 C434 1.394 . S
C432 H448 0.931 . S
C433 C432 1.391 . S
C433 C437 1.376 . S
C434 C432 1.394 . S
C434 C435 1.369 . S
C434 C438 1.531 . S
C435 C434 1.369 . S
C435 C436 1.410 . S
C435 C443 1.503 . S
C436 C435 1.410 . S
C436 C437 1.392 . S
C436 C439 1.511 . S
C437 C433 1.376 . S
C437 C436 1.392 . S
C437 H449 0.929 . S
C438 C434 1.531 . S
C438 H450 0.960 . S
C438 H451 0.962 . S
C438 H452 0.960 . S
C439 C436 1.511 . S
C439 H453 0.961 . S
C439 H454 0.961 . S
C439 H455 0.961 . S
C440 C441 1.370 . S
C440 C442 1.363 . S
C440 H456 0.931 . S
C441 C440 1.370 . S
C441 C445 1.408 . S
C442 C440 1.363 . S
C442 C443 1.370 . S
C442 C446 1.524 . S
C443 C435 1.503 . S
C443 C442 1.370 . S
C443 C444 1.403 . S
C444 C443 1.403 . S
C444 C445 1.404 . S
C444 C447 1.539 . S
C445 C441 1.408 . S
C445 C444 1.404 . S
C445 H457 0.930 . S
C446 C442 1.524 . S
C446 H458 0.956 . S
C446 H459 0.961 . S
C446 H460 0.961 . S
C447 C444 1.539 . S
C447 H461 0.958 . S
C447 H462 0.961 . S
C447 H463 0.960 . S
H448 C432 0.931 . S
H449 C437 0.929 . S
H450 C438 0.960 . S
H451 C438 0.962 . S
H452 C438 0.960 . S
H453 C439 0.961 . S
H454 C439 0.961 . S
H455 C439 0.961 . S
H456 C440 0.931 . S
H457 C445 0.930 . S
H458 C446 0.956 . S
H459 C446 0.961 . S
H460 C446 0.961 . S
H461 C447 0.958 . S
H462 C447 0.961 . S
H463 C447 0.960 . S
C464 C465 1.391 . S
C464 C466 1.394 . S
C464 H480 0.931 . S
C465 C464 1.391 . S
C465 C469 1.376 . S
C466 C464 1.394 . S
C466 C467 1.369 . S
C466 C470 1.531 . S
C467 C466 1.369 . S
C467 C468 1.410 . S
C467 C475 1.503 . S
C468 C467 1.410 . S
C468 C469 1.392 . S
C468 C471 1.511 . S
C469 C465 1.376 . S
C469 C468 1.392 . S
C469 H481 0.929 . S
C470 C466 1.531 . S
C470 H482 0.960 . S
C470 H483 0.962 . S
C470 H484 0.960 . S
C471 C468 1.511 . S
C471 H485 0.961 . S
C471 H486 0.961 . S
C471 H487 0.961 . S
C472 C473 1.370 . S
C472 C474 1.363 . S
C472 H488 0.931 . S
C473 C472 1.370 . S
C473 C477 1.408 . S
C474 C472 1.363 . S
C474 C475 1.370 . S
C474 C478 1.524 . S
C475 C467 1.503 . S
C475 C474 1.370 . S
C475 C476 1.403 . S
C476 C475 1.403 . S
C476 C477 1.404 . S
C476 C479 1.539 . S
C477 C473 1.408 . S
C477 C476 1.404 . S
C477 H489 0.930 . S
C478 C474 1.524 . S
C478 H490 0.956 . S
C478 H491 0.961 . S
C478 H492 0.961 . S
C479 C476 1.539 . S
C479 H493 0.958 . S
C479 H494 0.961 . S
C479 H495 0.960 . S
H480 C464 0.931 . S
H481 C469 0.929 . S
H482 C470 0.960 . S
H483 C470 0.962 . S
H484 C470 0.960 . S
H485 C471 0.961 . S
H486 C471 0.961 . S
H487 C471 0.961 . S
H488 C472 0.931 . S
H489 C477 0.930 . S
H490 C478 0.956 . S
H491 C478 0.961 . S
H492 C478 0.961 . S
H493 C479 0.958 . S
H494 C479 0.961 . S
H495 C479 0.960 . S
C496 C497 1.391 . S
C496 C498 1.394 . S
C496 H512 0.931 . S
C497 C496 1.391 . S
C497 C501 1.376 . S
C498 C496 1.394 . S
C498 C499 1.369 . S
C498 C502 1.531 . S
C499 C498 1.369 . S
C499 C500 1.410 . S
C499 C507 1.503 . S
C500 C499 1.410 . S
C500 C501 1.392 . S
C500 C503 1.511 . S
C501 C497 1.376 . S
C501 C500 1.392 . S
C501 H513 0.929 . S
C502 C498 1.531 . S
C502 H514 0.960 . S
C502 H515 0.962 . S
C502 H516 0.960 . S
C503 C500 1.511 . S
C503 H517 0.961 . S
C503 H518 0.961 . S
C503 H519 0.961 . S
C504 C505 1.370 . S
C504 C506 1.363 . S
C504 H520 0.931 . S
C505 C504 1.370 . S
C505 C509 1.408 . S
C506 C504 1.363 . S
C506 C507 1.370 . S
C506 C510 1.524 . S
C507 C499 1.503 . S
C507 C506 1.370 . S
C507 C508 1.403 . S
C508 C507 1.403 . S
C508 C509 1.404 . S
C508 C511 1.539 . S
C509 C505 1.408 . S
C509 C508 1.404 . S
C509 H521 0.930 . S
C510 C506 1.524 . S
C510 H522 0.956 . S
C510 H523 0.961 . S
C510 H524 0.961 . S
C511 C508 1.539 . S
C511 H525 0.958 . S
C511 H526 0.961 . S
C511 H527 0.960 . S
H512 C496 0.931 . S
H513 C501 0.929 . S
H514 C502 0.960 . S
H515 C502 0.962 . S
H516 C502 0.960 . S
H517 C503 0.961 . S
H518 C503 0.961 . S
H519 C503 0.961 . S
H520 C504 0.931 . S
H521 C509 0.930 . S
H522 C510 0.956 . S
H523 C510 0.961 . S
H524 C510 0.961 . S
H525 C511 0.958 . S
H526 C511 0.961 . S
H527 C511 0.960 . S
C528 C529 1.391 . S
C528 C530 1.394 . S
C528 H544 0.931 . S
C529 C528 1.391 . S
C529 C533 1.376 . S
C530 C528 1.394 . S
C530 C531 1.369 . S
C530 C534 1.531 . S
C531 C530 1.369 . S
C531 C532 1.410 . S
C531 C539 1.503 . S
C532 C531 1.410 . S
C532 C533 1.392 . S
C532 C535 1.511 . S
C533 C529 1.376 . S
C533 C532 1.392 . S
C533 H545 0.929 . S
C534 C530 1.531 . S
C534 H546 0.960 . S
C534 H547 0.962 . S
C534 H548 0.960 . S
C535 C532 1.511 . S
C535 H549 0.961 . S
C535 H550 0.961 . S
C535 H551 0.961 . S
C536 C537 1.370 . S
C536 C538 1.363 . S
C536 H552 0.931 . S
C537 C536 1.370 . S
C537 C541 1.408 . S
C538 C536 1.363 . S
C538 C539 1.370 . S
C538 C542 1.524 . S
C539 C531 1.503 . S
C539 C538 1.370 . S
C539 C540 1.403 . S
C540 C539 1.403 . S
C540 C541 1.404 . S
C540 C543 1.539 . S
C541 C537 1.408 . S
C541 C540 1.404 . S
C541 H553 0.930 . S
C542 C538 1.524 . S
C542 H554 0.956 . S
C542 H555 0.961 . S
C542 H556 0.961 . S
C543 C540 1.539 . S
C543 H557 0.958 . S
C543 H558 0.961 . S
C543 H559 0.960 . S
H544 C528 0.931 . S
H545 C533 0.929 . S
H546 C534 0.960 . S
H547 C534 0.962 . S
H548 C534 0.960 . S
H549 C535 0.961 . S
H550 C535 0.961 . S
H551 C535 0.961 . S
H552 C536 0.931 . S
H553 C541 0.930 . S
H554 C542 0.956 . S
H555 C542 0.961 . S
H556 C542 0.961 . S
H557 C543 0.958 . S
H558 C543 0.961 . S
H559 C543 0.960 . S
C560 C561 1.391 . S
C560 C562 1.394 . S
C560 H576 0.931 . S
C561 C560 1.391 . S
C561 C565 1.376 . S
C562 C560 1.394 . S
C562 C563 1.369 . S
C562 C566 1.531 . S
C563 C562 1.369 . S
C563 C564 1.410 1_556 S
C563 C571 1.503 . S
C564 C563 1.410 1_554 S
C564 C565 1.392 1_554 S
C564 C567 1.511 . S
C565 C561 1.376 . S
C565 C564 1.392 1_556 S
C565 H577 0.929 1_556 S
C566 C562 1.531 . S
C566 H578 0.960 . S
C566 H579 0.962 . S
C566 H580 0.960 . S
C567 C564 1.511 . S
C567 H581 0.961 . S
C567 H582 0.961 . S
C567 H583 0.961 . S
C568 C569 1.370 . S
C568 C570 1.363 1_554 S
C568 H584 0.931 . S
C569 C568 1.370 . S
C569 C573 1.408 . S
C570 C568 1.363 1_556 S
C570 C571 1.370 . S
C570 C574 1.524 . S
C571 C563 1.503 . S
C571 C570 1.370 . S
C571 C572 1.403 1_556 S
C572 C571 1.403 1_554 S
C572 C573 1.404 . S
C572 C575 1.539 . S
C573 C569 1.408 . S
C573 C572 1.404 . S
C573 H585 0.930 . S
C574 C570 1.524 . S
C574 H586 0.956 . S
C574 H587 0.961 . S
C574 H588 0.961 . S
C575 C572 1.539 . S
C575 H589 0.958 1_554 S
C575 H590 0.961 . S
C575 H591 0.960 . S
H576 C560 0.931 . S
H577 C565 0.929 1_554 S
H578 C566 0.960 . S
H579 C566 0.962 . S
H580 C566 0.960 . S
H581 C567 0.961 . S
H582 C567 0.961 . S
H583 C567 0.961 . S
H584 C568 0.931 . S
H585 C573 0.930 . S
H586 C574 0.956 . S
H587 C574 0.961 . S
H588 C574 0.961 . S
H589 C575 0.958 1_556 S
H590 C575 0.961 . S
H591 C575 0.960 . S
C592 C593 1.391 1_554 S
C592 C594 1.394 . S
C592 H608 0.931 . S
C593 C592 1.391 1_556 S
C593 C597 1.376 . S
C594 C592 1.394 . S
C594 C595 1.369 . S
C594 C598 1.531 . S
C595 C594 1.369 . S
C595 C596 1.410 1_554 S
C595 C603 1.503 . S
C596 C595 1.410 1_556 S
C596 C597 1.392 . S
C596 C599 1.511 . S
C597 C593 1.376 . S
C597 C596 1.392 . S
C597 H609 0.929 . S
C598 C594 1.531 . S
C598 H610 0.960 . S
C598 H611 0.962 . S
C598 H612 0.960 . S
C599 C596 1.511 . S
C599 H613 0.961 . S
C599 H614 0.961 . S
C599 H615 0.961 1_556 S
C600 C601 1.370 . S
C600 C602 1.363 . S
C600 H616 0.931 1_554 S
C601 C600 1.370 . S
C601 C605 1.408 . S
C602 C600 1.363 . S
C602 C603 1.370 . S
C602 C606 1.524 1_554 S
C603 C595 1.503 . S
C603 C602 1.370 . S
C603 C604 1.403 . S
C604 C603 1.403 . S
C604 C605 1.404 . S
C604 C607 1.539 . S
C605 C601 1.408 . S
C605 C604 1.404 . S
C605 H617 0.930 . S
C606 C602 1.524 1_556 S
C606 H618 0.956 . S
C606 H619 0.961 . S
C606 H620 0.961 . S
C607 C604 1.539 . S
C607 H621 0.958 . S
C607 H622 0.961 . S
C607 H623 0.960 . S
H608 C592 0.931 . S
H609 C597 0.929 . S
H610 C598 0.960 . S
H611 C598 0.962 . S
H612 C598 0.960 . S
H613 C599 0.961 . S
H614 C599 0.961 . S
H615 C599 0.961 1_554 S
H616 C600 0.931 1_556 S
H617 C605 0.930 . S
H618 C606 0.956 . S
H619 C606 0.961 . S
H620 C606 0.961 . S
H621 C607 0.958 . S
H622 C607 0.961 . S
H623 C607 0.960 . S
C624 C625 1.391 1_556 S
C624 C626 1.394 . S
C624 H640 0.931 . S
C625 C624 1.391 1_554 S
C625 C629 1.376 . S
C626 C624 1.394 . S
C626 C627 1.369 . S
C626 C630 1.531 . S
C627 C626 1.369 . S
C627 C628 1.410 1_556 S
C627 C635 1.503 . S
C628 C627 1.410 1_554 S
C628 C629 1.392 . S
C628 C631 1.511 . S
C629 C625 1.376 . S
C629 C628 1.392 . S
C629 H641 0.929 . S
C630 C626 1.531 . S
C630 H642 0.960 . S
C630 H643 0.962 . S
C630 H644 0.960 . S
C631 C628 1.511 . S
C631 H645 0.961 . S
C631 H646 0.961 . S
C631 H647 0.961 . S
C632 C633 1.370 . S
C632 C634 1.363 . S
C632 H648 0.931 . S
C633 C632 1.370 . S
C633 C637 1.408 . S
C634 C632 1.363 . S
C634 C635 1.370 . S
C634 C638 1.524 1_556 S
C635 C627 1.503 . S
C635 C634 1.370 . S
C635 C636 1.403 . S
C636 C635 1.403 . S
C636 C637 1.404 . S
C636 C639 1.539 . S
C637 C633 1.408 . S
C637 C636 1.404 . S
C637 H649 0.930 . S
C638 C634 1.524 1_554 S
C638 H650 0.956 . S
C638 H651 0.961 . S
C638 H652 0.961 . S
C639 C636 1.539 . S
C639 H653 0.958 . S
C639 H654 0.961 . S
C639 H655 0.960 . S
H640 C624 0.931 . S
H641 C629 0.929 . S
H642 C630 0.960 . S
H643 C630 0.962 . S
H644 C630 0.960 . S
H645 C631 0.961 . S
H646 C631 0.961 . S
H647 C631 0.961 . S
H648 C632 0.931 . S
H649 C637 0.930 . S
H650 C638 0.956 . S
H651 C638 0.961 . S
H652 C638 0.961 . S
H653 C639 0.958 . S
H654 C639 0.961 . S
H655 C639 0.960 . S
C656 C657 1.391 1_554 S
C656 C658 1.394 . S
C656 H672 0.931 . S
C657 C656 1.391 1_556 S
C657 C661 1.376 . S
C658 C656 1.394 . S
C658 C659 1.369 . S
C658 C662 1.531 . S
C659 C658 1.369 . S
C659 C660 1.410 1_554 S
C659 C667 1.503 . S
C660 C659 1.410 1_556 S
C660 C661 1.392 . S
C660 C663 1.511 . S
C661 C657 1.376 . S
C661 C660 1.392 . S
C661 H673 0.929 . S
C662 C658 1.531 . S
C662 H674 0.960 . S
C662 H675 0.962 . S
C662 H676 0.960 . S
C663 C660 1.511 . S
C663 H677 0.961 . S
C663 H678 0.961 . S
C663 H679 0.961 . S
C664 C665 1.370 . S
C664 C666 1.363 . S
C664 H680 0.931 . S
C665 C664 1.370 . S
C665 C669 1.408 . S
C666 C664 1.363 . S
C666 C667 1.370 . S
C666 C670 1.524 1_554 S
C667 C659 1.503 . S
C667 C666 1.370 . S
C667 C668 1.403 . S
C668 C667 1.403 . S
C668 C669 1.404 . S
C668 C671 1.539 . S
C669 C665 1.408 . S
C669 C668 1.404 . S
C669 H681 0.930 . S
C670 C666 1.524 1_556 S
C670 H682 0.956 . S
C670 H683 0.961 . S
C670 H684 0.961 . S
C671 C668 1.539 . S
C671 H685 0.958 . S
C671 H686 0.961 . S
C671 H687 0.960 . S
H672 C656 0.931 . S
H673 C661 0.929 . S
H674 C662 0.960 . S
H675 C662 0.962 . S
H676 C662 0.960 . S
H677 C663 0.961 . S
H678 C663 0.961 . S
H679 C663 0.961 . S
H680 C664 0.931 . S
H681 C669 0.930 . S
H682 C670 0.956 . S
H683 C670 0.961 . S
H684 C670 0.961 . S
H685 C671 0.958 . S
H686 C671 0.961 . S
H687 C671 0.960 . S
C688 C689 1.391 . S
C688 C690 1.394 . S
C688 H704 0.931 . S
C689 C688 1.391 . S
C689 C693 1.376 . S
C690 C688 1.394 . S
C690 C691 1.369 . S
C690 C694 1.531 . S
C691 C690 1.369 . S
C691 C692 1.410 . S
C691 C699 1.503 . S
C692 C691 1.410 . S
C692 C693 1.392 . S
C692 C695 1.511 . S
C693 C689 1.376 . S
C693 C692 1.392 . S
C693 H705 0.929 . S
C694 C690 1.531 . S
C694 H706 0.960 . S
C694 H707 0.962 . S
C694 H708 0.960 . S
C695 C692 1.511 . S
C695 H709 0.961 . S
C695 H710 0.961 . S
C695 H711 0.961 . S
C696 C697 1.370 . S
C696 C698 1.363 . S
C696 H712 0.931 . S
C697 C696 1.370 . S
C697 C701 1.408 . S
C698 C696 1.363 . S
C698 C699 1.370 . S
C698 C702 1.524 . S
C699 C691 1.503 . S
C699 C698 1.370 . S
C699 C700 1.403 . S
C700 C699 1.403 . S
C700 C701 1.404 . S
C700 C703 1.539 . S
C701 C697 1.408 . S
C701 C700 1.404 . S
C701 H713 0.930 . S
C702 C698 1.524 . S
C702 H714 0.956 . S
C702 H715 0.961 . S
C702 H716 0.961 . S
C703 C700 1.539 . S
C703 H717 0.958 . S
C703 H718 0.961 . S
C703 H719 0.960 . S
H704 C688 0.931 . S
H705 C693 0.929 . S
H706 C694 0.960 . S
H707 C694 0.962 . S
H708 C694 0.960 . S
H709 C695 0.961 . S
H710 C695 0.961 . S
H711 C695 0.961 . S
H712 C696 0.931 . S
H713 C701 0.930 . S
H714 C702 0.956 . S
H715 C702 0.961 . S
H716 C702 0.961 . S
H717 C703 0.958 . S
H718 C703 0.961 . S
H719 C703 0.960 . S
C720 C721 1.391 . S
C720 C722 1.394 . S
C720 H736 0.931 . S
C721 C720 1.391 . S
C721 C725 1.376 . S
C722 C720 1.394 . S
C722 C723 1.369 . S
C722 C726 1.531 . S
C723 C722 1.369 . S
C723 C724 1.410 . S
C723 C731 1.503 . S
C724 C723 1.410 . S
C724 C725 1.392 . S
C724 C727 1.511 . S
C725 C721 1.376 . S
C725 C724 1.392 . S
C725 H737 0.929 . S
C726 C722 1.531 . S
C726 H738 0.960 . S
C726 H739 0.962 . S
C726 H740 0.960 . S
C727 C724 1.511 . S
C727 H741 0.961 . S
C727 H742 0.961 . S
C727 H743 0.961 . S
C728 C729 1.370 . S
C728 C730 1.363 . S
C728 H744 0.931 . S
C729 C728 1.370 . S
C729 C733 1.408 . S
C730 C728 1.363 . S
C730 C731 1.370 . S
C730 C734 1.524 . S
C731 C723 1.503 . S
C731 C730 1.370 . S
C731 C732 1.403 . S
C732 C731 1.403 . S
C732 C733 1.404 . S
C732 C735 1.539 . S
C733 C729 1.408 . S
C733 C732 1.404 . S
C733 H745 0.930 . S
C734 C730 1.524 . S
C734 H746 0.956 . S
C734 H747 0.961 . S
C734 H748 0.961 . S
C735 C732 1.539 . S
C735 H749 0.958 . S
C735 H750 0.961 . S
C735 H751 0.960 . S
H736 C720 0.931 . S
H737 C725 0.929 . S
H738 C726 0.960 . S
H739 C726 0.962 . S
H740 C726 0.960 . S
H741 C727 0.961 . S
H742 C727 0.961 . S
H743 C727 0.961 . S
H744 C728 0.931 . S
H745 C733 0.930 . S
H746 C734 0.956 . S
H747 C734 0.961 . S
H748 C734 0.961 . S
H749 C735 0.958 . S
H750 C735 0.961 . S
H751 C735 0.960 . S
C752 C753 1.391 . S
C752 C754 1.394 . S
C752 H768 0.931 . S
C753 C752 1.391 . S
C753 C757 1.376 . S
C754 C752 1.394 . S
C754 C755 1.369 . S
C754 C758 1.531 . S
C755 C754 1.369 . S
C755 C756 1.410 . S
C755 C763 1.503 . S
C756 C755 1.410 . S
C756 C757 1.392 . S
C756 C759 1.511 . S
C757 C753 1.376 . S
C757 C756 1.392 . S
C757 H769 0.929 . S
C758 C754 1.531 . S
C758 H770 0.960 . S
C758 H771 0.962 . S
C758 H772 0.960 . S
C759 C756 1.511 . S
C759 H773 0.961 . S
C759 H774 0.961 . S
C759 H775 0.961 . S
C760 C761 1.370 . S
C760 C762 1.363 . S
C760 H776 0.931 . S
C761 C760 1.370 . S
C761 C765 1.408 . S
C762 C760 1.363 . S
C762 C763 1.370 . S
C762 C766 1.524 . S
C763 C755 1.503 . S
C763 C762 1.370 . S
C763 C764 1.403 . S
C764 C763 1.403 . S
C764 C765 1.404 . S
C764 C767 1.539 . S
C765 C761 1.408 . S
C765 C764 1.404 . S
C765 H777 0.930 . S
C766 C762 1.524 . S
C766 H778 0.956 . S
C766 H779 0.961 . S
C766 H780 0.961 . S
C767 C764 1.539 . S
C767 H781 0.958 . S
C767 H782 0.961 . S
C767 H783 0.960 . S
H768 C752 0.931 . S
H769 C757 0.929 . S
H770 C758 0.960 . S
H771 C758 0.962 . S
H772 C758 0.960 . S
H773 C759 0.961 . S
H774 C759 0.961 . S
H775 C759 0.961 . S
H776 C760 0.931 . S
H777 C765 0.930 . S
H778 C766 0.956 . S
H779 C766 0.961 . S
H780 C766 0.961 . S
H781 C767 0.958 . S
H782 C767 0.961 . S
H783 C767 0.960 . S
C784 C785 1.391 . S
C784 C786 1.394 . S
C784 H800 0.931 . S
C785 C784 1.391 . S
C785 C789 1.376 . S
C786 C784 1.394 . S
C786 C787 1.369 . S
C786 C790 1.531 . S
C787 C786 1.369 . S
C787 C788 1.410 . S
C787 C795 1.503 . S
C788 C787 1.410 . S
C788 C789 1.392 . S
C788 C791 1.511 . S
C789 C785 1.376 . S
C789 C788 1.392 . S
C789 H801 0.929 . S
C790 C786 1.531 . S
C790 H802 0.960 . S
C790 H803 0.962 . S
C790 H804 0.960 . S
C791 C788 1.511 . S
C791 H805 0.961 . S
C791 H806 0.961 . S
C791 H807 0.961 . S
C792 C793 1.370 . S
C792 C794 1.363 . S
C792 H808 0.931 . S
C793 C792 1.370 . S
C793 C797 1.408 . S
C794 C792 1.363 . S
C794 C795 1.370 . S
C794 C798 1.524 . S
C795 C787 1.503 . S
C795 C794 1.370 . S
C795 C796 1.403 . S
C796 C795 1.403 . S
C796 C797 1.404 . S
C796 C799 1.539 . S
C797 C793 1.408 . S
C797 C796 1.404 . S
C797 H809 0.930 . S
C798 C794 1.524 . S
C798 H810 0.956 . S
C798 H811 0.961 . S
C798 H812 0.961 . S
C799 C796 1.539 . S
C799 H813 0.958 . S
C799 H814 0.961 . S
C799 H815 0.960 . S
H800 C784 0.931 . S
H801 C789 0.929 . S
H802 C790 0.960 . S
H803 C790 0.962 . S
H804 C790 0.960 . S
H805 C791 0.961 . S
H806 C791 0.961 . S
H807 C791 0.961 . S
H808 C792 0.931 . S
H809 C797 0.930 . S
H810 C798 0.956 . S
H811 C798 0.961 . S
H812 C798 0.961 . S
H813 C799 0.958 . S
H814 C799 0.961 . S
H815 C799 0.960 . S
C816 C817 1.391 . S
C816 C818 1.394 . S
C816 H832 0.931 . S
C817 C816 1.391 . S
C817 C821 1.376 . S
C818 C816 1.394 . S
C818 C819 1.369 . S
C818 C822 1.547 . S
C819 C818 1.369 . S
C819 C820 1.410 . S
C819 C827 1.503 1_545 S
C820 C819 1.410 . S
C820 C821 1.392 . S
C820 C823 1.511 . S
C821 C817 1.376 . S
C821 C820 1.392 . S
C821 H833 0.929 . S
C822 C818 1.547 . S
C822 H834 0.960 . S
C822 H835 0.961 1_544 S
C822 H836 0.946 1_554 S
C823 C820 1.511 . S
C823 H837 0.961 . S
C823 H838 0.961 . S
C823 H839 0.961 . S
C824 C825 1.370 . S
C824 C826 1.363 . S
C824 H840 0.931 . S
C825 C824 1.370 . S
C825 C829 1.408 . S
C826 C824 1.363 . S
C826 C827 1.370 . S
C826 C830 1.524 . S
C827 C819 1.503 1_565 S
C827 C826 1.370 . S
C827 C828 1.403 . S
C828 C827 1.403 . S
C828 C829 1.404 . S
C828 C831 1.539 1_565 S
C829 C825 1.408 . S
C829 C828 1.404 . S
C829 H841 0.930 . S
C830 C826 1.524 . S
C830 H842 0.956 . S
C830 H843 0.961 . S
C830 H844 0.961 . S
C831 C828 1.539 1_545 S
C831 H845 0.958 . S
C831 H846 0.961 . S
C831 H847 0.960 . S
H832 C816 0.931 . S
H833 C821 0.929 . S
H834 C822 0.960 . S
H835 C822 0.961 1_566 S
H836 C822 0.946 1_556 S
H837 C823 0.961 . S
H838 C823 0.961 . S
H839 C823 0.961 . S
H840 C824 0.931 . S
H841 C829 0.930 . S
H842 C830 0.956 . S
H843 C830 0.961 . S
H844 C830 0.961 . S
H845 C831 0.958 . S
H846 C831 0.961 . S
H847 C831 0.960 . S
C848 C849 1.391 . S
C848 C850 1.394 . S
C848 H864 0.931 . S
C849 C848 1.391 . S
C849 C853 1.376 . S
C850 C848 1.394 . S
C850 C851 1.369 . S
C850 C854 1.531 1_655 S
C851 C850 1.369 . S
C851 C852 1.410 . S
C851 C859 1.503 1_655 S
C852 C851 1.410 . S
C852 C853 1.392 . S
C852 C855 1.511 . S
C853 C849 1.376 . S
C853 C852 1.392 . S
C853 H865 0.929 . S
C854 C850 1.531 1_455 S
C854 H866 0.960 . S
C854 H867 0.962 . S
C854 H868 0.960 . S
C855 C852 1.511 . S
C855 H869 0.961 . S
C855 H870 0.961 . S
C855 H871 0.961 . S
C856 C857 1.370 . S
C856 C858 1.363 . S
C856 H872 0.931 . S
C857 C856 1.370 . S
C857 C861 1.408 . S
C858 C856 1.363 . S
C858 C859 1.370 . S
C858 C862 1.524 . S
C859 C851 1.503 1_455 S
C859 C858 1.370 . S
C859 C860 1.403 . S
C860 C859 1.403 . S
C860 C861 1.404 . S
C860 C863 1.539 . S
C861 C857 1.408 . S
C861 C860 1.404 . S
C861 H873 0.930 . S
C862 C858 1.524 . S
C862 H874 0.956 . S
C862 H875 0.961 1_455 S
C862 H876 0.961 1_556 S
C863 C860 1.539 . S
C863 H877 0.958 . S
C863 H878 0.961 . S
C863 H879 0.960 . S
H864 C848 0.931 . S
H865 C853 0.929 . S
H866 C854 0.960 . S
H867 C854 0.962 . S
H868 C854 0.960 . S
H869 C855 0.961 . S
H870 C855 0.961 . S
H871 C855 0.961 . S
H872 C856 0.931 . S
H873 C861 0.930 . S
H874 C862 0.956 . S
H875 C862 0.961 1_655 S
H876 C862 0.961 1_554 S
H877 C863 0.958 . S
H878 C863 0.961 . S
H879 C863 0.960 . S
C880 C881 1.391 . S
C880 C882 1.394 . S
C880 H896 0.931 . S
C881 C880 1.391 . S
C881 C885 1.376 . S
C882 C880 1.394 . S
C882 C883 1.369 . S
C882 C886 1.531 1_565 S
C883 C882 1.369 . S
C883 C884 1.410 . S
C883 C891 1.503 1_565 S
C884 C883 1.410 . S
C884 C885 1.392 . S
C884 C887 1.511 . S
C885 C881 1.376 . S
C885 C884 1.392 . S
C885 H897 0.929 . S
C886 C882 1.531 1_545 S
C886 H898 0.960 . S
C886 H899 0.962 . S
C886 H900 0.960 . S
C887 C884 1.511 . S
C887 H901 0.961 . S
C887 H902 0.961 . S
C887 H903 0.961 . S
C888 C889 1.370 . S
C888 C890 1.363 . S
C888 H904 0.931 . S
C889 C888 1.370 . S
C889 C893 1.408 . S
C890 C888 1.363 . S
C890 C891 1.370 . S
C890 C894 1.524 1_545 S
C891 C883 1.503 1_545 S
C891 C890 1.370 . S
C891 C892 1.403 . S
C892 C891 1.403 . S
C892 C893 1.404 . S
C892 C895 1.539 . S
C893 C889 1.408 . S
C893 C892 1.404 . S
C893 H905 0.930 . S
C894 C890 1.524 1_565 S
C894 H906 0.956 . S
C894 H907 0.961 . S
C894 H908 0.961 . S
C895 C892 1.539 . S
C895 H909 0.958 . S
C895 H910 0.961 . S
C895 H911 0.960 . S
H896 C880 0.931 . S
H897 C885 0.929 . S
H898 C886 0.960 . S
H899 C886 0.962 . S
H900 C886 0.960 . S
H901 C887 0.961 . S
H902 C887 0.961 . S
H903 C887 0.961 . S
H904 C888 0.931 . S
H905 C893 0.930 . S
H906 C894 0.956 . S
H907 C894 0.961 . S
H908 C894 0.961 . S
H909 C895 0.958 . S
H910 C895 0.961 . S
H911 C895 0.960 . S
C912 C913 1.391 . S
C912 C914 1.394 . S
C912 H928 0.931 . S
C913 C912 1.391 . S
C913 C917 1.376 . S
C914 C912 1.394 . S
C914 C915 1.369 . S
C914 C918 1.531 . S
C915 C914 1.369 . S
C915 C916 1.410 . S
C915 C923 1.503 1_655 S
C916 C915 1.410 . S
C916 C917 1.392 . S
C916 C919 1.511 . S
C917 C913 1.376 . S
C917 C916 1.392 . S
C917 H929 0.929 . S
C918 C914 1.531 . S
C918 H930 0.960 . S
C918 H931 0.962 . S
C918 H932 0.960 . S
C919 C916 1.511 . S
C919 H933 0.961 . S
C919 H934 0.961 1_655 S
C919 H935 0.961 . S
C920 C921 1.370 . S
C920 C922 1.363 . S
C920 H936 0.931 . S
C921 C920 1.370 . S
C921 C925 1.408 . S
C922 C920 1.363 . S
C922 C923 1.370 . S
C922 C926 1.524 . S
C923 C915 1.503 1_455 S
C923 C922 1.370 . S
C923 C924 1.403 . S
C924 C923 1.403 . S
C924 C925 1.404 . S
C924 C927 1.539 1_455 S
C925 C921 1.408 . S
C925 C924 1.404 . S
C925 H937 0.930 . S
C926 C922 1.524 . S
C926 H938 0.956 . S
C926 H939 0.961 . S
C926 H940 0.961 . S
C927 C924 1.539 1_655 S
C927 H941 0.958 . S
C927 H942 0.961 . S
C927 H943 0.960 . S
H928 C912 0.931 . S
H929 C917 0.929 . S
H930 C918 0.960 . S
H931 C918 0.962 . S
H932 C918 0.960 . S
H933 C919 0.961 . S
H934 C919 0.961 1_455 S
H935 C919 0.961 . S
H936 C920 0.931 . S
H937 C925 0.930 . S
H938 C926 0.956 . S
H939 C926 0.961 . S
H940 C926 0.961 . S
H941 C927 0.958 . S
H942 C927 0.961 . S
H943 C927 0.960 . S
C177 C128 1.329 . S
C185 C10 1.311 . S
C209 C30 1.342 . S
C217 C140 1.352 . S
C241 C172 1.313 . S
C249 C62 1.323 . S
C273 C76 1.345 . S
C281 C106 1.341 . S
C305 C96 1.207 . S
C313 C7 1.228 . S
C337 C29 1.246 . S
C345 C120 1.242 . S
C369 C65 1.245 . S
C377 C142 1.234 . S
C401 C164 1.252 . S
C409 C87 1.242 . S
C433 C8 1.217 . S
C441 C103 1.238 . S
C465 C131 1.224 . S
C473 C32 1.230 . S
C497 C54 1.225 . S
C505 C139 1.236 . S
C529 C84 1.205 . S
C537 C175 1.228 . S
C561 C37 1.178 . S
C569 C15 1.160 . S
C593 C43 1.173 . S
C601 C59 1.163 . S
C625 C51 1.168 . S
C633 C73 1.158 . S
C657 C81 1.168 . S
C665 C21 1.165 . S
C689 C95 1.141 . S
C697 C169 1.157 . S
C721 C109 1.173 . S
C729 C117 1.153 . S
C753 C153 1.128 . S
C761 C125 1.163 . S
C785 C161 1.137 . S
C793 C147 1.162 . S
C817 C18 1.517 . S
C825 C52 1.577 . S
C849 C74 1.569 . S
C857 C40 1.558 . S
C881 C150 1.593 . S
C889 C98 1.543 . S
C913 C162 1.527 . S
C921 C118 1.576 . S
