# Generated by pormake.
# Topology ecn, (8)-cn, num edge types: 1
# Building blocks:
#     Node 0, Type 0, BuildingBlock: EBIMEJ_clean_sbu_0, # of connection points: 8
#     Node 1, Type 0, BuildingBlock: EBIMEJ_clean_sbu_0, # of connection points: 8
#     Node 2, Type 0, BuildingBlock: EBIMEJ_clean_sbu_0, # of connection points: 8
#     Node 3, Type 0, BuildingBlock: EBIMEJ_clean_sbu_0, # of connection points: 8
#     Node 4, Type 0, BuildingBlock: EBIMEJ_clean_sbu_0, # of connection points: 8
#     Node 5, Type 0, BuildingBlock: EBIMEJ_clean_sbu_0, # of connection points: 8
#     Node 6, Type 0, BuildingBlock: EBIMEJ_clean_sbu_0, # of connection points: 8
#     Node 7, Type 0, BuildingBlock: EBIMEJ_clean_sbu_0, # of connection points: 8
#     Node 8, Type 0, BuildingBlock: EBIMEJ_clean_sbu_0, # of connection points: 8
#     Edge 9, Type (0, 0), BuildingBlock: CIFDUS_clean_linker_0, # of connection points: 2
#     Edge 10, Type (0, 0), BuildingBlock: CIFDUS_clean_linker_0, # of connection points: 2
#     Edge 11, Type (0, 0), BuildingBlock: CIFDUS_clean_linker_0, # of connection points: 2
#     Edge 12, Type (0, 0), BuildingBlock: CIFDUS_clean_linker_0, # of connection points: 2
#     Edge 13, Type (0, 0), BuildingBlock: CIFDUS_clean_linker_0, # of connection points: 2
#     Edge 14, Type (0, 0), BuildingBlock: CIFDUS_clean_linker_0, # of connection points: 2
#     Edge 15, Type (0, 0), BuildingBlock: CIFDUS_clean_linker_0, # of connection points: 2
#     Edge 16, Type (0, 0), BuildingBlock: CIFDUS_clean_linker_0, # of connection points: 2
#     Edge 17, Type (0, 0), BuildingBlock: CIFDUS_clean_linker_0, # of connection points: 2
#     Edge 18, Type (0, 0), BuildingBlock: CIFDUS_clean_linker_0, # of connection points: 2
#     Edge 19, Type (0, 0), BuildingBlock: CIFDUS_clean_linker_0, # of connection points: 2
#     Edge 20, Type (0, 0), BuildingBlock: CIFDUS_clean_linker_0, # of connection points: 2
#     Edge 21, Type (0, 0), BuildingBlock: CIFDUS_clean_linker_0, # of connection points: 2
#     Edge 22, Type (0, 0), BuildingBlock: CIFDUS_clean_linker_0, # of connection points: 2
#     Edge 23, Type (0, 0), BuildingBlock: CIFDUS_clean_linker_0, # of connection points: 2
#     Edge 24, Type (0, 0), BuildingBlock: CIFDUS_clean_linker_0, # of connection points: 2
#     Edge 25, Type (0, 0), BuildingBlock: CIFDUS_clean_linker_0, # of connection points: 2
#     Edge 26, Type (0, 0), BuildingBlock: CIFDUS_clean_linker_0, # of connection points: 2
#     Edge 27, Type (0, 0), BuildingBlock: CIFDUS_clean_linker_0, # of connection points: 2
#     Edge 28, Type (0, 0), BuildingBlock: CIFDUS_clean_linker_0, # of connection points: 2
#     Edge 29, Type (0, 0), BuildingBlock: CIFDUS_clean_linker_0, # of connection points: 2
#     Edge 30, Type (0, 0), BuildingBlock: CIFDUS_clean_linker_0, # of connection points: 2
#     Edge 31, Type (0, 0), BuildingBlock: CIFDUS_clean_linker_0, # of connection points: 2
#     Edge 32, Type (0, 0), BuildingBlock: CIFDUS_clean_linker_0, # of connection points: 2
#     Edge 33, Type (0, 0), BuildingBlock: CIFDUS_clean_linker_0, # of connection points: 2
#     Edge 34, Type (0, 0), BuildingBlock: CIFDUS_clean_linker_0, # of connection points: 2
#     Edge 35, Type (0, 0), BuildingBlock: CIFDUS_clean_linker_0, # of connection points: 2
#     Edge 36, Type (0, 0), BuildingBlock: CIFDUS_clean_linker_0, # of connection points: 2
#     Edge 37, Type (0, 0), BuildingBlock: CIFDUS_clean_linker_0, # of connection points: 2
#     Edge 38, Type (0, 0), BuildingBlock: CIFDUS_clean_linker_0, # of connection points: 2
#     Edge 39, Type (0, 0), BuildingBlock: CIFDUS_clean_linker_0, # of connection points: 2
#     Edge 40, Type (0, 0), BuildingBlock: CIFDUS_clean_linker_0, # of connection points: 2
#     Edge 41, Type (0, 0), BuildingBlock: CIFDUS_clean_linker_0, # of connection points: 2
#     Edge 42, Type (0, 0), BuildingBlock: CIFDUS_clean_linker_0, # of connection points: 2
#     Edge 43, Type (0, 0), BuildingBlock: CIFDUS_clean_linker_0, # of connection points: 2
#     Edge 44, Type (0, 0), BuildingBlock: CIFDUS_clean_linker_0, # of connection points: 2
# Relax obj value: 0.176
# Max RMSD: 0.238
# Mean RMSD: 0.238
data_MOF--net-ecn--node1-EBIMEJ_clean_sbu_0--edge1-CIFDUS_clean_linker_0
_symmetry_space_group_name_H-M    P1
_symmetry_Int_Tables_number       1
_symmetry_cell_setting            triclinic
loop_
_symmetry_equiv_pos_as_xyz
'x, y, z'
_cell_length_a     48.165836
_cell_length_b     48.004831
_cell_length_c     13.779334
_cell_angle_alpha  89.710415
_cell_angle_beta   90.494151
_cell_angle_gamma 120.00084
loop_
_atom_site_label
_atom_site_type_symbol
_atom_site_fract_x
_atom_site_fract_y
_atom_site_fract_z
_atom_type_partial_charge
Co0 Co 0.1952 0.30926 0.93795 0.0
Co1 Co 0.15515 0.23744 0.03052 0.0
Co2 Co 0.12026 0.27404 0.99721 0.0
H3 H 0.1581 0.2876 0.98856 0.0
O4 O 0.16473 0.28218 0.03954 0.0
H5 H 0.11819 0.2234 0.03257 0.0
O6 O 0.11108 0.22936 0.98417 0.0
Co7 Co 0.08208 0.19856 0.08129 0.0
O8 O 0.09988 0.16875 0.11124 0.0
O9 O 0.14456 0.19176 0.02356 0.0
O10 O 0.05568 0.22036 0.09844 0.0
O11 O 0.07359 0.26103 0.99041 0.0
O12 O 0.23959 0.32786 0.87294 0.0
O13 O 0.22653 0.35815 0.94003 0.0
O14 O 0.09993 0.22565 0.19989 0.0
O15 O 0.1494 0.23511 0.17509 0.0
C16 C 0.15458 0.34244 0.94464 0.0
C17 C 0.22632 0.27386 0.03984 0.0
C18 C 0.03539 0.14402 0.05231 0.0
C19 C 0.14331 0.27301 0.79697 0.0
C20 C 0.12341 0.168 0.07199 0.0
C21 C 0.05256 0.24167 0.0513 0.0
C22 C 0.248 0.35647 0.89386 0.0
C23 C 0.12812 0.23484 0.23026 0.0
O24 O 0.17826 0.34008 0.91336 0.0
O25 O 0.13184 0.32032 0.99469 0.0
O26 O 0.19959 0.24905 0.05895 0.0
O27 O 0.2285 0.2982 0.99424 0.0
O28 O 0.03524 0.16403 0.11029 0.0
O29 O 0.06172 0.15517 0.00974 0.0
O30 O 0.17113 0.27996 0.82662 0.0
O31 O 0.12315 0.27491 0.85214 0.0
Co32 Co 0.73829 0.89469 0.92386 0.0
Co33 Co 0.81017 0.92888 0.01618 0.0
Co34 Co 0.77716 0.85783 0.98568 0.0
H35 H 0.76146 0.88059 0.97522 0.0
O36 O 0.76645 0.89236 0.02636 0.0
H37 H 0.82652 0.9076 0.02228 0.0
O38 O 0.82114 0.8946 0.97418 0.0
Co39 Co 0.85299 0.89836 0.07392 0.0
O40 O 0.88227 0.94734 0.08605 0.0
O41 O 0.85404 0.9656 0.00639 0.0
O42 O 0.83354 0.84965 0.0877 0.0
O43 O 0.79264 0.826 0.97952 0.0
O44 O 0.71814 0.90611 0.80747 0.0
O45 O 0.70059 0.90295 0.9461 0.0
O46 O 0.82317 0.88643 0.18618 0.0
O47 O 0.81351 0.9265 0.16109 0.0
C48 C 0.70971 0.82079 0.92648 0.0
C49 C 0.76978 0.95928 0.03553 0.0
C50 C 0.90951 0.90912 0.07718 0.0
C51 C 0.77518 0.88011 0.78208 0.0
C52 C 0.87954 0.97018 0.04828 0.0
C53 C 0.81275 0.8251 0.03984 0.0
C54 C 0.69788 0.90845 0.85824 0.0
C55 C 0.81344 0.90497 0.21602 0.0
O56 O 0.71072 0.84629 0.89296 0.0
O57 O 0.73165 0.82192 0.9828 0.0
O58 O 0.79651 0.9602 0.04134 0.0
O59 O 0.74474 0.93522 -0.00122 0.0
O60 O 0.89885 0.92262 0.13088 0.0
O61 O 0.88804 0.88943 0.02097 0.0
O62 O 0.76523 0.89892 0.80841 0.0
O63 O 0.77663 0.86005 0.84024 0.0
Co64 Co 0.15378 0.85456 0.92726 0.0
Co65 Co 0.12213 0.89424 0.01604 0.0
Co66 Co 0.19335 0.9299 0.98775 0.0
H67 H 0.16929 0.89177 0.97857 0.0
O68 O 0.1574 0.88522 0.02936 0.0
H69 H 0.1445 0.93162 0.02013 0.0
O70 O 0.15769 0.93874 0.97268 0.0
Co71 Co 0.15489 0.96798 0.06777 0.0
O72 O 0.10635 0.95217 0.06649 0.0
O73 O 0.08688 0.90355 0.00033 0.0
O74 O 0.20322 0.99366 0.09086 0.0
O75 O 0.22659 0.97683 0.98294 0.0
O76 O 0.12834 0.81088 0.85632 0.0
O77 O 0.1712 0.82316 0.92671 0.0
O78 O 0.16244 0.95016 0.18985 0.0
O79 O 0.12395 0.89997 0.16113 0.0
C80 C 0.2276 0.8955 0.93859 0.0
C81 C 0.08704 0.82264 0.02276 0.0
C82 C 0.15385 1.0191 0.05699 0.0
C83 C 0.16887 0.90653 0.7866 0.0
C84 C 0.08317 0.92646 0.03033 0.0
C85 C 0.22802 0.99726 0.04597 0.0
C86 C 0.14837 0.80223 0.87705 0.0
C87 C 0.14383 0.9217 0.21871 0.0
O88 O 0.20157 0.87144 0.90749 0.0
O89 O 0.22827 0.91868 0.9866 0.0
O90 O 0.08945 0.84957 0.04228 0.0
O91 O 0.10923 0.82034 0.97925 0.0
O92 O 0.13464 0.99518 0.10624 0.0
O93 O 0.17349 1.01391 0.01281 0.0
O94 O 0.14816 0.87862 0.81595 0.0
O95 O 0.1911 0.92686 0.84226 0.0
Co96 Co 0.86141 0.64438 0.27015 0.0
Co97 Co 0.82326 0.57277 0.36504 0.0
Co98 Co 0.78699 0.60784 0.33291 0.0
H99 H 0.8249 0.62218 0.32336 0.0
O100 O 0.83177 0.61711 0.37454 0.0
H101 H 0.78565 0.55742 0.36728 0.0
O102 O 0.77865 0.56339 0.31862 0.0
Co103 Co 0.74901 0.53188 0.41463 0.0
O104 O 0.76258 0.49884 0.38347 0.0
O105 O 0.81486 0.52807 0.35353 0.0
O106 O 0.72225 0.55339 0.43339 0.0
O107 O 0.74013 0.59425 0.32636 0.0
O108 O 0.89183 0.69308 0.25292 0.0
O109 O 0.90533 0.6609 0.20344 0.0
O110 O 0.76727 0.56003 0.53163 0.0
O111 O 0.81662 0.56885 0.50928 0.0
C112 C 0.81872 0.67555 0.27694 0.0
C113 C 0.89422 0.61139 0.378 0.0
C114 C 0.70155 0.47669 0.4347 0.0
C115 C 0.80958 0.60716 0.13115 0.0
C116 C 0.7893 0.50109 0.36254 0.0
C117 C 0.71912 0.57487 0.38723 0.0
C118 C 0.9132 0.68999 0.21114 0.0
C119 C 0.79525 0.56888 0.56339 0.0
O120 O 0.84203 0.67339 0.2406 0.0
O121 O 0.7981 0.6539 0.33349 0.0
O122 O 0.86798 0.58578 0.39534 0.0
O123 O 0.89579 0.63547 0.33214 0.0
O124 O 0.72772 0.48713 0.47935 0.0
O125 O 0.70232 0.49763 0.37797 0.0
O126 O 0.83747 0.61432 0.16037 0.0
O127 O 0.7895 0.60898 0.18706 0.0
Co128 Co 0.40807 0.23121 0.28403 0.0
Co129 Co 0.47644 0.25882 0.38401 0.0
Co130 Co 0.44452 0.19054 0.31778 0.0
H131 H 0.42915 0.21353 0.32419 0.0
O132 O 0.43307 0.22189 0.38131 0.0
H133 H 0.49371 0.23879 0.36686 0.0
O134 O 0.48796 0.22852 0.31289 0.0
Co135 Co 0.52176 0.22856 0.39613 0.0
O136 O 0.55327 0.27734 0.39477 0.0
O137 O 0.51986 0.29673 0.38218 0.0
O138 O 0.49974 0.17974 0.40597 0.0
O139 O 0.46046 0.15982 0.29261 0.0
O140 O 0.38986 0.25728 0.21716 0.0
O141 O 0.35982 0.21547 0.29299 0.0
O142 O 0.50292 0.21767 0.52834 0.0
O143 O 0.48018 0.24823 0.52334 0.0
C144 C 0.37515 0.15616 0.27826 0.0
C145 C 0.44514 0.29641 0.38773 0.0
C146 C 0.57409 0.23091 0.37679 0.0
C147 C 0.44297 0.22152 0.12846 0.0
C148 C 0.54798 0.30081 0.3871 0.0
C149 C 0.4794 0.15674 0.35251 0.0
C150 C 0.36157 0.23821 0.24272 0.0
C151 C 0.48868 0.2305 0.56942 0.0
O152 O 0.37605 0.18306 0.26427 0.0
O153 O 0.39928 0.15429 0.31016 0.0
O154 O 0.46142 0.28678 0.43521 0.0
O155 O 0.42564 0.27938 0.31998 0.0
O156 O 0.57059 0.25242 0.41646 0.0
O157 O 0.54792 0.20819 0.34657 0.0
O158 O 0.4366 0.24128 0.1693 0.0
O159 O 0.44251 0.19808 0.17444 0.0
Co160 Co 0.81848 0.18658 0.27793 0.0
Co161 Co 0.79104 0.22964 0.3731 0.0
Co162 Co 0.86029 0.26342 0.31379 0.0
H163 H 0.83602 0.22528 0.31831 0.0
O164 O 0.82658 0.22063 0.37377 0.0
H165 H 0.81318 0.26681 0.3571 0.0
O166 O 0.82384 0.27124 0.30413 0.0
Co167 Co 0.82619 0.30561 0.38743 0.0
O168 O 0.77904 0.29137 0.40074 0.0
O169 O 0.75491 0.23869 0.37062 0.0
O170 O 0.874 0.32792 0.4107 0.0
O171 O 0.89345 0.31017 0.29395 0.0
O172 O 0.79043 0.14216 0.2121 0.0
O173 O 0.83384 0.15351 0.2767 0.0
O174 O 0.83741 0.29533 0.51671 0.0
O175 O 0.8017 0.2429 0.51392 0.0
C176 C 0.89283 0.2269 0.27358 0.0
C177 C 0.75539 0.15896 0.39425 0.0
C178 C 0.82587 0.3565 0.35374 0.0
C179 C 0.82943 0.23256 0.12357 0.0
C180 C 0.75383 0.26418 0.38783 0.0
C181 C 0.89718 0.33121 0.35825 0.0
C182 C 0.80985 0.13258 0.23074 0.0
C183 C 0.82205 0.26838 0.55902 0.0
O184 O 0.86587 0.20175 0.25433 0.0
O185 O 0.89507 0.25235 0.31083 0.0
O186 O 0.76052 0.18644 0.42155 0.0
O187 O 0.77427 0.15544 0.33708 0.0
O188 O 0.85011 0.35515 0.38005 0.0
O189 O 0.8019 0.32894 0.3448 0.0
O190 O 0.80887 0.20698 0.16562 0.0
O191 O 0.85355 0.25485 0.16932 0.0
Co192 Co 0.52811 0.98114 0.6249 0.0
Co193 Co 0.49033 0.91217 0.73097 0.0
Co194 Co 0.45204 0.94189 0.66373 0.0
H195 H 0.4903 0.95856 0.6677 0.0
O196 O 0.49565 0.95525 0.72453 0.0
H197 H 0.45305 0.89346 0.71052 0.0
O198 O 0.44841 0.89917 0.65653 0.0
Co199 Co 0.41482 0.86414 0.73506 0.0
O200 O 0.43332 0.83401 0.72586 0.0
O201 O 0.48584 0.86895 0.73616 0.0
O202 O 0.38942 0.88683 0.75878 0.0
O203 O 0.40493 0.92464 0.64313 0.0
O204 O 0.57211 0.99896 0.55926 0.0
O205 O 0.56001 0.03001 0.6264 0.0
O206 O 0.42173 0.88132 0.87004 0.0
O207 O 0.4752 0.90911 0.86805 0.0
C208 C 0.48207 1.00921 0.6094 0.0
C209 C 0.5598 0.95 0.74818 0.0
C210 C 0.36526 0.8118 0.70419 0.0
C211 C 0.4827 0.94306 0.47421 0.0
C212 C 0.46238 0.84034 0.73109 0.0
C213 C 0.38497 0.90677 0.70855 0.0
C214 C 0.58103 0.02771 0.5794 0.0
C215 C 0.44853 0.89807 0.91241 0.0
O216 O 0.50777 1.00891 0.58635 0.0
O217 O 0.45957 0.98646 0.6584 0.0
O218 O 0.53345 0.92914 0.78558 0.0
O219 O 0.56134 0.9691 0.68006 0.0
O220 O 0.36718 0.83867 0.69393 0.0
O221 O 0.39156 0.81465 0.73045 0.0
O222 O 0.5088 0.94964 0.51629 0.0
O223 O 0.46 0.94383 0.51939 0.0
Co224 Co 0.07699 0.56512 0.576 0.0
Co225 Co 0.14815 0.59531 0.67092 0.0
Co226 Co 0.11065 0.52364 0.64026 0.0
H227 H 0.09771 0.54863 0.62902 0.0
O228 O 0.10326 0.56063 0.6799 0.0
H229 H 0.16175 0.57166 0.6761 0.0
O230 O 0.15557 0.55862 0.6279 0.0
Co231 Co 0.18568 0.55899 0.72672 0.0
O232 O 0.21992 0.60643 0.72227 0.0
O233 O 0.19365 0.63001 0.66167 0.0
O234 O 0.16073 0.51123 0.75426 0.0
O235 O 0.12277 0.48908 0.63819 0.0
O236 O 0.05956 0.57949 0.45941 0.0
O237 O 0.0379 0.57142 0.59376 0.0
O238 O 0.15797 0.55071 0.84227 0.0
O239 O 0.15102 0.59248 0.81594 0.0
C240 C 0.04241 0.49094 0.58686 0.0
C241 C 0.11145 0.62988 0.68523 0.0
C242 C 0.23741 0.55893 0.72817 0.0
C243 C 0.11201 0.54748 0.43784 0.0
C244 C 0.2194 0.63114 0.69039 0.0
C245 C 0.1404 0.48687 0.70524 0.0
C246 C 0.03746 0.5795 0.5071 0.0
C247 C 0.15006 0.5707 0.8717 0.0
O248 O 0.0451 0.51737 0.55582 0.0
O249 O 0.06435 0.48963 0.63665 0.0
O250 O 0.13722 0.62894 0.69624 0.0
O251 O 0.08627 0.60697 0.6456 0.0
O252 O 0.23247 0.57861 0.77363 0.0
O253 O 0.21304 0.53939 0.68081 0.0
O254 O 0.10536 0.56868 0.46544 0.0
O255 O 0.11016 0.52551 0.49474 0.0
Co256 Co 0.48401 0.52217 0.60018 0.0
Co257 Co 0.45643 0.56324 0.70338 0.0
Co258 Co 0.52547 0.59851 0.64274 0.0
H259 H 0.50174 0.56031 0.6453 0.0
O260 O 0.4925 0.55497 0.70099 0.0
H261 H 0.4782 0.60049 0.6916 0.0
O262 O 0.48872 0.60585 0.63831 0.0
Co263 Co 0.49073 0.63842 0.72941 0.0
O264 O 0.44364 0.62172 0.76296 0.0
O265 O 0.4202 0.57188 0.70373 0.0
O266 O 0.53932 0.66464 0.73993 0.0
O267 O 0.55745 0.64549 0.62201 0.0
O268 O 0.49642 0.48828 0.56039 0.0
O269 O 0.45037 0.47974 0.53503 0.0
O270 O 0.50788 0.62536 0.84225 0.0
O271 O 0.4667 0.57541 0.84459 0.0
C272 C 0.55858 0.5623 0.59993 0.0
C273 C 0.42262 0.49228 0.72471 0.0
C274 C 0.48215 0.68494 0.70147 0.0
C275 C 0.49219 0.56971 0.45627 0.0
C276 C 0.41858 0.59551 0.73879 0.0
C277 C 0.5616 0.6672 0.68435 0.0
C278 C 0.46913 0.46888 0.52671 0.0
C279 C 0.4907 0.59905 0.88621 0.0
O280 O 0.53163 0.53687 0.58211 0.0
O281 O 0.56072 0.58805 0.63479 0.0
O282 O 0.42613 0.51943 0.74866 0.0
O283 O 0.44233 0.48957 0.66922 0.0
O284 O 0.50328 0.68556 0.75682 0.0
O285 O 0.46615 0.65805 0.66121 0.0
O286 O 0.47175 0.54447 0.49987 0.0
O287 O 0.51794 0.59055 0.4988 0.0
H288 H 0.22903 0.22846 0.15036 0.0
H289 H 0.28977 0.3183 0.0033 0.0
H290 H 0.33724 0.31559 0.05486 0.0
H291 H 0.36122 0.28672 0.1392 0.0
H292 H 0.29918 0.19687 0.28395 0.0
H293 H 0.25237 0.20064 0.23531 0.0
C294 C 0.25258 0.2476 0.12922 0.0
C295 C 0.25568 0.27352 0.07245 0.0
C296 C 0.27955 0.24583 0.15868 0.0
C297 C 0.28657 0.29806 0.04682 0.0
C298 C 0.31373 0.29648 0.07619 0.0
C299 C 0.33743 0.26807 0.16025 0.0
C300 C 0.33364 0.24153 0.21511 0.0
C301 C 0.31047 0.27036 0.13174 0.0
C302 C 0.30273 0.21754 0.24198 0.0
C303 C 0.27595 0.21965 0.21408 0.0
H304 H 0.75823 0.08234 0.13848 0.0
H305 H 0.85151 0.11121 0.26172 0.0
H306 H 0.84599 0.05971 0.21705 0.0
H307 H 0.81594 1.00753 0.14176 0.0
H308 H 0.72324 0.97699 0.01171 0.0
H309 H 0.72694 0.02784 0.06243 0.0
C310 C 0.77725 0.07723 0.1556 0.0
C311 C 0.80531 0.10068 0.20342 0.0
C312 C 0.77395 0.04727 0.12924 0.0
C313 C 0.82971 0.0937 0.22525 0.0
C314 C 0.82657 0.0642 0.19978 0.0
C315 C 0.79635 1.01171 0.12397 0.0
C316 C 0.76939 0.98833 0.07202 0.0
C317 C 0.79893 0.04095 0.15157 0.0
C318 C 0.74424 0.9944 0.05158 0.0
C319 C 0.74648 0.02359 0.08016 0.0
H320 H 0.03531 0.82116 0.10332 0.0
H321 H 0.06966 0.75828 0.00762 0.0
H322 H 1.01874 0.71138 0.05721 0.0
H323 H 0.96417 0.68849 0.1287 0.0
H324 H 0.93173 0.75319 0.22139 0.0
H325 H 0.9824 0.79919 0.17164 0.0
C326 C 0.03198 0.79729 0.09305 0.0
C327 C 0.05658 0.79344 0.05182 0.0
C328 C 1.00286 0.7707 0.12118 0.0
C329 C 0.0513 0.76209 0.03918 0.0
C330 C 1.02215 0.73526 0.06754 0.0
C331 C 0.96826 0.71269 0.13768 0.0
C332 C 0.94416 0.7174 0.17877 0.0
C333 C 0.99771 0.73929 0.10868 0.0
C334 C 0.9498 0.74886 0.19016 0.0
C335 C 0.9788 0.77521 0.16173 0.0
H336 H 0.78618 0.78664 0.19556 0.0
H337 H 0.83969 0.79667 0.9364 0.0
H338 H 0.84722 0.75187 0.98843 0.0
H339 H 0.84055 0.71143 0.11149 0.0
H340 H 0.78529 0.70013 0.36852 0.0
H341 H 0.77653 0.74377 0.314 0.0
C342 C 0.79879 0.77839 0.14955 0.0
C343 C 0.81176 0.79436 0.06119 0.0
C344 C 0.80315 0.75276 0.1805 0.0
C345 C 0.8288 0.78415 0.00331 0.0
C346 C 0.8334 0.7588 0.03373 0.0
C347 C 0.82671 0.71858 0.15597 0.0
C348 C 0.81401 0.70271 0.24501 0.0
C349 C 0.82111 0.74324 0.12293 0.0
C350 C 0.79558 0.71199 0.30032 0.0
C351 C 0.79047 0.73692 0.26894 0.0
H352 H 0.23711 0.05017 0.14263 0.0
H353 H 0.2896 1.00784 0.02006 0.0
H354 H 0.33967 0.05189 0.08791 0.0
H355 H 0.3685 0.1027 0.18434 0.0
H356 H 0.31445 0.14418 0.30102 0.0
H357 H 0.265 0.09975 0.2354 0.0
C358 C 0.25944 0.05041 0.13021 0.0
C359 C 0.25938 0.02548 0.07611 0.0
C360 C 0.28789 0.0755 0.17012 0.0
C361 C 0.2888 0.02672 0.0605 0.0
C362 C 0.31743 0.05179 0.1002 0.0
C363 C 0.34577 0.10159 0.19683 0.0
C364 C 0.34514 0.12654 0.24906 0.0
C365 C 0.31725 0.07621 0.15607 0.0
C366 C 0.31561 0.12522 0.26217 0.0
C367 C 0.28732 0.09991 0.22404 0.0
H368 H 0.99726 0.19529 0.12773 0.0
H369 H 0.04401 0.2945 0.03627 0.0
H370 H 0.99971 0.29969 0.10391 0.0
H371 H 0.94783 0.27577 0.19354 0.0
H372 H 0.90255 0.17618 0.28106 0.0
H373 H 0.94667 0.17172 0.21299 0.0
C374 C 0.99786 0.21814 0.12192 0.0
C375 C 1.02408 0.24451 0.07699 0.0
C376 C 0.97281 0.22102 0.16228 0.0
C377 C 1.02405 0.27371 0.06945 0.0
C378 C 0.99887 0.27676 0.10924 0.0
C379 C 0.94802 0.25333 0.19911 0.0
C380 C 0.92212 0.22643 0.2437 0.0
C381 C 0.9733 0.25066 0.15719 0.0
C382 C 0.92226 0.19726 0.24806 0.0
C383 C 0.94738 0.19463 0.20852 0.0
H384 H 0.9473 0.61969 0.28087 0.0
H385 H 0.90478 0.60292 0.56439 0.0
H386 H 0.94598 0.59265 0.63052 0.0
H387 H 0.99134 0.58394 0.60561 0.0
H388 H 0.0334 0.59831 0.32189 0.0
H389 H 0.99541 0.61386 0.25801 0.0
C390 C 0.94773 0.61468 0.35753 0.0
C391 C 0.92335 0.61252 0.41814 0.0
C392 C 0.97106 0.6077 0.39465 0.0
C393 C 0.92358 0.60513 0.51683 0.0
C394 C 0.94696 0.59896 0.55449 0.0
C395 C 0.99228 0.59058 0.52984 0.0
C396 C 1.01497 0.58964 0.46845 0.0
C397 C 0.97032 0.59937 0.49369 0.0
C398 C 1.01598 0.59855 0.37058 0.0
C399 C 0.9943 0.60754 0.33405 0.0
H400 H 0.5069 0.44261 0.50156 0.0
H401 H 0.40917 0.42157 0.4715 0.0
H402 H 0.39263 0.36664 0.41948 0.0
H403 H 0.40591 0.32339 0.38866 0.0
H404 H 0.50403 0.3458 0.42571 0.0
H405 H 0.52031 0.40095 0.46695 0.0
C406 C 0.48201 0.42607 0.483 0.0
C407 C 0.45937 0.43618 0.49025 0.0
C408 C 0.47265 0.39452 0.45408 0.0
C409 C 0.42717 0.41442 0.46607 0.0
C410 C 0.41766 0.38295 0.43647 0.0
C411 C 0.43081 0.3405 0.40494 0.0
C412 C 0.4536 0.3303 0.40482 0.0
C413 C 0.44016 0.37254 0.43088 0.0
C414 C 0.48585 0.35279 0.42642 0.0
C415 C 0.49529 0.38447 0.45004 0.0
H416 H 0.62969 0.0263 0.4841 0.0
H417 H 0.60339 0.09096 0.61714 0.0
H418 H 0.65542 0.13681 0.57486 0.0
H419 H 0.7076 0.15859 0.49838 0.0
H420 H 0.73447 0.09482 0.36157 0.0
H421 H 0.683 0.0485 0.4079 0.0
C422 C 0.63541 0.05045 0.50383 0.0
C423 C 0.6127 0.05526 0.55361 0.0
C424 C 0.66544 0.0768 0.47901 0.0
C425 C 0.62043 0.08663 0.57884 0.0
C426 C 0.65018 0.11286 0.55475 0.0
C427 C 0.70247 0.1346 0.47898 0.0
C428 C 0.7251 0.13033 0.42657 0.0
C429 C 0.6728 0.10822 0.50471 0.0
C430 C 0.71765 0.09893 0.40197 0.0
C431 C 0.68816 0.07241 0.42826 0.0
H432 H 0.4403 0.10991 0.47597 0.0
H433 H 0.51772 0.13636 0.27602 0.0
H434 H 0.52614 0.09337 0.33974 0.0
H435 H 0.51403 0.05086 0.46082 0.0
H436 H 0.43691 0.02491 0.66315 0.0
H437 H 0.42605 0.06512 0.59107 0.0
C438 C 0.45813 0.10534 0.44397 0.0
C439 C 0.47756 0.12543 0.36883 0.0
C440 C 0.46351 0.08125 0.4835 0.0
C441 C 0.50167 0.12037 0.33113 0.0
C442 C 0.50684 0.09616 0.36886 0.0
C443 C 0.49494 0.05407 0.48968 0.0
C444 C 0.47666 0.03503 0.56862 0.0
C445 C 0.48843 0.07696 0.44671 0.0
C446 C 0.45165 0.03931 0.60339 0.0
C447 C 0.44526 0.06223 0.56173 0.0
H448 H 0.03694 0.4366 0.50202 0.0
H449 H 0.98212 0.47972 0.59959 0.0
H450 H 0.93357 0.43558 0.52898 0.0
H451 H 0.90705 0.38625 0.43878 0.0
H452 H 0.95886 0.3404 0.33775 0.0
H453 H 1.00871 0.38483 0.40729 0.0
C454 C 1.01415 0.43579 0.50942 0.0
C455 C 1.01292 0.46108 0.5578 0.0
C456 C 0.98618 0.41049 0.46583 0.0
C457 C 0.98353 0.46035 0.56422 0.0
C458 C 0.95585 0.43529 0.523 0.0
C459 C 0.92911 0.38572 0.4308 0.0
C460 C 0.92896 0.35978 0.38264 0.0
C461 C 0.95701 0.41055 0.47291 0.0
C462 C 0.95818 0.36014 0.37316 0.0
C463 C 0.98659 0.38535 0.41423 0.0
H464 H 0.61337 0.60996 0.51467 0.0
H465 H 0.56897 0.51214 0.61856 0.0
H466 H 0.6137 0.50722 0.55756 0.0
H467 H 0.66459 0.52983 0.47312 0.0
H468 H 0.70974 0.62693 0.3629 0.0
H469 H 0.66526 0.63273 0.42553 0.0
C470 C 0.61386 0.58781 0.52529 0.0
C471 C 0.58804 0.56158 0.57269 0.0
C472 C 0.63944 0.58478 0.48713 0.0
C473 C 0.5886 0.53275 0.58342 0.0
C474 C 0.6141 0.52985 0.54795 0.0
C475 C 0.66482 0.55235 0.46218 0.0
C476 C 0.69068 0.57793 0.41318 0.0
C477 C 0.63945 0.55555 0.49903 0.0
C478 C 0.69012 0.60671 0.39935 0.0
C479 C 0.6648 0.61012 0.43612 0.0
H480 H 0.60788 0.95073 0.64118 0.0
H481 H 0.57519 0.94602 0.93426 0.0
H482 H 0.61556 0.93361 0.99453 0.0
H483 H 0.65719 0.91974 0.96341 0.0
H484 H 0.68916 0.92202 0.67078 0.0
H485 H 0.65219 0.93946 0.61093 0.0
C486 C 0.61028 0.94786 0.71838 0.0
C487 C 0.58882 0.94967 0.78334 0.0
C488 C 0.633 0.93957 0.75246 0.0
C489 C 0.59163 0.94506 0.883 0.0
C490 C 0.61454 0.93768 0.91746 0.0
C491 C 0.65611 0.92409 0.88651 0.0
C492 C 0.67567 0.91924 0.82159 0.0
C493 C 0.63478 0.93405 0.85273 0.0
C494 C 0.67416 0.92529 0.72226 0.0
C495 C 0.65308 0.93538 0.68802 0.0
H496 H 0.1582 0.67905 0.78883 0.0
H497 H 0.06562 0.64765 0.65636 0.0
H498 H 0.06864 0.69819 0.70469 0.0
H499 H 0.09857 0.75213 0.78141 0.0
H500 H 0.19121 0.78235 0.91136 0.0
H501 H 0.18716 0.73139 0.86649 0.0
C502 C 0.13853 0.68305 0.77033 0.0
C503 C 0.11175 0.65947 0.7185 0.0
C504 C 0.14053 0.71209 0.79758 0.0
C505 C 0.08651 0.66526 0.69626 0.0
C506 C 0.08828 0.69423 0.72361 0.0
C507 C 0.11782 0.74748 0.79976 0.0
C508 C 0.14522 0.77104 0.84936 0.0
C509 C 0.11532 0.71795 0.77367 0.0
C510 C 0.16992 0.76467 0.87314 0.0
C511 C 0.16762 0.73552 0.84755 0.0
H512 H 0.29905 0.35701 0.80684 0.0
H513 H 0.26782 0.41918 0.92989 0.0
H514 H 0.3196 0.46619 0.89333 0.0
H515 H 0.37294 0.48977 0.82388 0.0
H516 H 0.40477 0.42867 0.6959 0.0
H517 H 0.35369 0.38111 0.73807 0.0
C518 C 0.30365 0.38088 0.82554 0.0
C519 C 0.2796 0.38462 0.87083 0.0
C520 C 0.3336 0.40795 0.80403 0.0
C521 C 0.2859 0.41565 0.89502 0.0
C522 C 0.31553 0.44255 0.87423 0.0
C523 C 0.36901 0.46609 0.80572 0.0
C524 C 0.3929 0.46296 0.75689 0.0
C525 C 0.33949 0.43899 0.82859 0.0
C526 C 0.38698 0.43192 0.73373 0.0
C527 C 0.35768 0.40469 0.75749 0.0
H528 H 0.10632 0.34733 0.853 0.0
H529 H 0.20261 0.40329 0.96587 0.0
H530 H 0.207 0.45201 0.8956 0.0
H531 H 0.18478 0.47846 0.79926 0.0
H532 H 0.08884 0.42475 0.68194 0.0
H533 H 0.08332 0.37513 0.7539 0.0
C534 C 0.12788 0.37039 0.86394 0.0
C535 C 0.15392 0.3719 0.91648 0.0
C536 C 0.1306 0.39843 0.82045 0.0
C537 C 0.18214 0.40166 0.92734 0.0
C538 C 0.18476 0.42946 0.88633 0.0
C539 C 0.1625 0.45596 0.78895 0.0
C540 C 0.1372 0.45548 0.73523 0.0
C541 C 0.15937 0.42804 0.83188 0.0
C542 C 0.10882 0.42588 0.722 0.0
C543 C 0.10557 0.39758 0.76421 0.0
H544 H 0.67281 0.80818 0.76294 0.0
H545 H 0.68878 0.76117 0.00721 0.0
H546 H 0.64702 0.70888 0.94649 0.0
H547 H 0.60357 0.67665 0.82874 0.0
H548 H 0.58818 0.72346 0.58398 0.0
H549 H 0.63236 0.77554 0.63885 0.0
C550 C 0.66712 0.78654 0.80332 0.0
C551 C 0.68369 0.78885 0.89082 0.0
C552 C 0.64347 0.7564 0.7668 0.0
C553 C 0.6763 0.76032 0.94053 0.0
C554 C 0.65247 0.73033 0.90552 0.0
C555 C 0.61075 0.69815 0.78568 0.0
C556 C 0.59338 0.69611 0.70057 0.0
C557 C 0.63577 0.72807 0.81903 0.0
C558 C 0.60197 0.72427 0.64752 0.0
C559 C 0.62689 0.7541 0.67993 0.0
H560 H 0.33309 0.86368 0.80825 0.0
H561 H 0.37375 0.95749 0.67569 0.0
H562 H 0.33015 0.96394 0.7433 0.0
H563 H 0.28009 0.94242 0.84249 0.0
H564 H 0.24082 0.84803 0.96984 0.0
H565 H 0.28485 0.84275 0.90443 0.0
C566 C 0.33259 0.88565 0.79353 0.0
C567 C 0.35685 0.91008 0.73665 0.0
C568 C 0.30796 0.88933 0.83382 0.0
C569 C 0.35531 0.93812 0.71813 0.0
C570 C 0.33054 0.94194 0.75784 0.0
C571 C 0.28177 0.92112 0.8577 0.0
C572 C 0.25765 0.89591 0.91311 0.0
C573 C 0.30686 0.91781 0.81685 0.0
C574 C 0.25939 0.86794 0.92927 0.0
C575 C 0.28439 0.86479 0.89099 0.0
H576 H 0.10929 0.03103 0.13329 0.0
H577 H 0.1966 0.07495 0.96741 0.0
H578 H 0.19521 0.12518 0.95841 0.0
H579 H 0.16902 0.15643 0.99739 0.0
H580 H 0.08128 0.11188 0.16226 0.0
H581 H 0.08307 0.06213 0.17181 0.0
C582 C 0.12803 0.05163 0.09531 0.0
C583 C 0.15302 0.04937 0.05115 0.0
C584 C 0.12702 0.08031 0.09023 0.0
C585 C 0.17708 0.07615 0.00182 0.0
C586 C 0.17632 0.10485 0.99677 0.0
C587 C 0.1503 0.13589 0.0356 0.0
C588 C 0.12509 0.13804 0.07908 0.0
C589 C 0.15138 0.1072 0.04069 0.0
C590 C 0.10105 0.11107 0.12824 0.0
C591 C 0.102 0.08252 0.13373 0.0
H592 H 0.97255 0.11931 0.09299 0.0
H593 H 0.04133 0.09304 0.99705 0.0
H594 H 0.99974 0.03624 0.99452 0.0
H595 H 0.94325 0.99387 0.01799 0.0
H596 H 0.8739 1.02125 0.09856 0.0
H597 H 0.91602 0.07757 0.10933 0.0
C598 C 0.97829 0.10109 0.07122 0.0
C599 C 1.00978 0.11017 0.04536 0.0
C600 C 0.95414 0.06864 0.06756 0.0
C601 C 1.01708 0.08651 0.01665 0.0
C602 C 0.99338 0.05405 0.01561 0.0
C603 C 0.93759 1.01226 0.03841 0.0
C604 C 0.90574 1.00364 0.05798 0.0
C605 C 0.96178 0.0448 0.04091 0.0
C606 C 0.89837 0.02753 0.08309 0.0
C607 C 0.92239 0.05968 0.08919 0.0
H608 H 0.93583 0.87973 0.97627 0.0
H609 H 0.95968 0.95751 0.17576 0.0
H610 H 1.01597 0.97138 0.1754 0.0
H611 H 0.05844 0.96019 0.1219 0.0
H612 H 0.0332 0.88136 0.92416 0.0
H613 H 0.97797 0.86942 0.9203 0.0
C614 C 0.95337 0.89972 0.01957 0.0
C615 C 0.94355 0.91737 0.07638 0.0
C616 C 0.98565 0.90746 0.01945 0.0
C617 C 0.96658 0.9433 0.13199 0.0
C618 C 0.99882 0.95133 0.13164 0.0
C619 C 0.04092 0.94061 0.07735 0.0
C620 C 0.0502 0.92171 0.02387 0.0
C621 C 1.00868 0.93343 0.07608 0.0
C622 C 1.02696 0.89631 0.96677 0.0
C623 C 0.99519 0.88935 0.96435 0.0
H624 H 0.773 0.36237 0.33635 0.0
H625 H 0.87617 0.41792 0.35604 0.0
H626 H 0.87401 0.46777 0.3555 0.0
H627 H 0.84269 0.49531 0.35692 0.0
H628 H 0.73927 0.43944 0.34555 0.0
H629 H 0.74166 0.38996 0.33592 0.0
C630 C 0.79501 0.38541 0.33956 0.0
C631 C 0.8247 0.38655 0.34581 0.0
C632 C 0.79353 0.41388 0.34141 0.0
C633 C 0.85304 0.41651 0.35085 0.0
C634 C 0.8518 0.44498 0.3508 0.0
C635 C 0.82065 0.47236 0.3514 0.0
C636 C 0.79085 0.47118 0.35182 0.0
C637 C 0.82216 0.44393 0.34717 0.0
C638 C 0.76255 0.44113 0.34562 0.0
C639 C 0.76388 0.41277 0.33996 0.0
H640 H 0.64285 0.45027 0.34887 0.0
H641 H 0.70299 0.42649 0.52264 0.0
H642 H 0.66193 0.36955 0.51841 0.0
H643 H 0.6082 0.32626 0.46682 0.0
H644 H 0.54778 0.35111 0.29796 0.0
H645 H 0.58951 0.40746 0.29828 0.0
C646 C 0.64686 0.43262 0.38621 0.0
C647 C 0.67579 0.44258 0.43639 0.0
C648 C 0.62307 0.39994 0.38399 0.0
C649 C 0.68073 0.41944 0.48423 0.0
C650 C 0.65733 0.38684 0.48143 0.0
C651 C 0.60436 0.34401 0.42948 0.0
C652 C 0.57488 0.33444 0.38271 0.0
C653 C 0.62834 0.37675 0.43152 0.0
C654 C 0.57016 0.35781 0.33524 0.0
C655 C 0.59401 0.39012 0.33532 0.0
H656 H 0.63238 0.28077 0.42287 0.0
H657 H 0.58521 0.18342 0.31501 0.0
H658 H 0.63674 0.18486 0.30961 0.0
H659 H 0.69511 0.21376 0.33761 0.0
H660 H 0.74173 0.31144 0.4444 0.0
H661 H 0.69048 0.30985 0.44783 0.0
C662 C 0.6334 0.25989 0.39799 0.0
C663 C 0.60515 0.23203 0.36959 0.0
C664 C 0.66299 0.26093 0.39501 0.0
C665 C 0.60675 0.20518 0.33707 0.0
C666 C 0.63615 0.20597 0.33422 0.0
C667 C 0.69408 0.23468 0.36186 0.0
C668 C 0.72235 0.26266 0.3907 0.0
C669 C 0.66443 0.23369 0.36348 0.0
C670 C 0.72048 0.28959 0.42141 0.0
C671 C 0.69113 0.28873 0.4236 0.0
H672 H 0.42529 0.77823 0.66692 0.0
H673 H 0.51689 0.84336 0.79865 0.0
H674 H 0.53118 0.80144 0.79948 0.0
H675 H 0.51805 0.74631 0.76367 0.0
H676 H 0.42762 0.68106 0.62738 0.0
H677 H 0.41261 0.72285 0.62709 0.0
C678 C 0.44828 0.78315 0.69613 0.0
C679 C 0.46991 0.81393 0.73273 0.0
C680 C 0.45671 0.75895 0.69512 0.0
C681 C 0.49978 0.81997 0.76956 0.0
C682 C 0.50804 0.796 0.77021 0.0
C683 C 0.49515 0.74134 0.73341 0.0
C684 C 0.47406 0.71079 0.69534 0.0
C685 C 0.48679 0.76546 0.73301 0.0
C686 C 0.44443 0.70458 0.65631 0.0
C687 C 0.43575 0.7284 0.6566 0.0
H688 H 0.22676 0.69083 0.66474 0.0
H689 H 0.2804 0.64194 0.71308 0.0
H690 H 0.33022 0.69341 0.71899 0.0
H691 H 0.35853 0.75242 0.71512 0.0
H692 H 0.30515 0.80151 0.66729 0.0
H693 H 0.25528 0.74984 0.65587 0.0
C694 C 0.24935 0.69137 0.67583 0.0
C695 C 0.24973 0.66246 0.68909 0.0
C696 C 0.27798 0.72112 0.67935 0.0
C697 C 0.27929 0.66375 0.70379 0.0
C698 C 0.30785 0.69321 0.70689 0.0
C699 C 0.33598 0.75177 0.70168 0.0
C700 C 0.33545 0.78065 0.69208 0.0
C701 C 0.30746 0.72204 0.69561 0.0
C702 C 0.30613 0.77954 0.6746 0.0
C703 C 0.27763 0.75003 0.66829 0.0
H704 H 0.36073 0.54626 0.67819 0.0
H705 H 0.4045 0.63907 0.81879 0.0
H706 H 0.35219 0.63525 0.8308 0.0
H707 H 0.29412 0.60591 0.80009 0.0
H708 H 0.25072 0.51458 0.65208 0.0
H709 H 0.3028 0.51731 0.64538 0.0
C710 C 0.3589 0.56565 0.71186 0.0
C711 C 0.38664 0.59286 0.74791 0.0
C712 C 0.32879 0.56353 0.71741 0.0
C713 C 0.38365 0.61778 0.7907 0.0
C714 C 0.35371 0.61564 0.7976 0.0
C715 C 0.29608 0.58663 0.76622 0.0
C716 C 0.26867 0.56013 0.7263 0.0
C717 C 0.32615 0.58868 0.761 0.0
C718 C 0.27152 0.53527 0.683 0.0
C719 C 0.30128 0.53684 0.67916 0.0
H720 H 0.18243 0.27382 0.65527 0.0
H721 H 0.08529 0.25217 0.70697 0.0
H722 H 0.07213 0.23873 0.53575 0.0
H723 H 0.08833 0.23344 0.37173 0.0
H724 H 0.18571 0.25553 0.32128 0.0
H725 H 0.19858 0.26862 0.49228 0.0
C726 C 0.15831 0.26605 0.62947 0.0
C727 C 0.13489 0.26398 0.69405 0.0
C728 C 0.15096 0.25857 0.53117 0.0
C729 C 0.10381 0.25401 0.65891 0.0
C730 C 0.09626 0.24634 0.561 0.0
C731 C 0.1124 0.24117 0.39797 0.0
C732 C 0.13598 0.24346 0.33361 0.0
C733 C 0.11969 0.24864 0.49649 0.0
C734 C 0.16704 0.25351 0.36906 0.0
C735 C 0.17446 0.26099 0.46692 0.0
H736 H 0.81881 0.86898 0.36043 0.0
H737 H 0.78671 0.93695 0.3021 0.0
H738 H 0.77219 0.93511 0.47195 0.0
H739 H 0.76904 0.9148 0.63622 0.0
H740 H 0.80126 0.84706 0.69644 0.0
H741 H 0.81539 0.84836 0.52592 0.0
C742 C 0.80854 0.88333 0.38469 0.0
C743 C 0.80391 0.90311 0.31853 0.0
C744 C 0.80039 0.88232 0.48262 0.0
C745 C 0.79066 0.9216 0.35142 0.0
C746 C 0.78234 0.92058 0.44856 0.0
C747 C 0.77923 0.90033 0.61247 0.0
C748 C 0.78413 0.88091 0.67929 0.0
C749 C 0.78723 0.90115 0.51471 0.0
C750 C 0.79721 0.86223 0.64667 0.0
C751 C 0.80528 0.86294 0.54917 0.0
H752 H 0.12994 0.86719 0.64383 0.0
H753 H 0.20534 0.96481 0.69733 0.0
H754 H 0.20406 0.97806 0.52657 0.0
H755 H 0.18198 0.96179 0.36216 0.0
H756 H 0.10691 0.86394 0.30925 0.0
H757 H 0.10776 0.85102 0.48023 0.0
C758 C 0.14606 0.89144 0.61852 0.0
C759 C 0.1677 0.91496 0.68362 0.0
C760 C 0.14534 0.89885 0.52031 0.0
C761 C 0.18847 0.94619 0.64899 0.0
C762 C 0.18776 0.9538 0.55129 0.0
C763 C 0.16576 0.93761 0.38783 0.0
C764 C 0.14441 0.91389 0.32261 0.0
C765 C 0.16638 0.93028 0.48628 0.0
C766 C 0.12361 0.8827 0.35754 0.0
C767 C 0.12405 0.87527 0.45541 0.0
H768 H 0.7549 0.56692 0.70472 0.0
H769 H 0.85282 0.59068 0.65533 0.0
H770 H 0.86547 0.60413 0.82614 0.0
H771 H 0.84901 0.60896 0.98893 0.0
H772 H 0.7514 0.58569 0.04056 0.0
H773 H 0.73841 0.57213 0.86907 0.0
C774 C 0.77903 0.57509 0.73118 0.0
C775 C 0.80283 0.57768 0.667 0.0
C776 C 0.78621 0.58277 0.82986 0.0
C777 C 0.83397 0.58834 0.70284 0.0
C778 C 0.84127 0.59604 0.80065 0.0
C779 C 0.8248 0.6008 0.96313 0.0
C780 C 0.80119 0.59826 0.02787 0.0
C781 C 0.81757 0.59323 0.86474 0.0
C782 C 0.77006 0.58786 0.99249 0.0
C783 C 0.76261 0.58012 0.8944 0.0
H784 H 0.47688 0.20142 0.02021 0.0
H785 H 0.42073 0.24863 -0.00047 0.0
H786 H 0.4292 0.25478 0.8251 0.0
H787 H 0.45319 0.24782 0.67886 0.0
H788 H 0.51045 0.20174 0.69742 0.0
H789 H 0.50102 0.19428 0.87182 0.0
C790 C 0.46651 0.213 0.97728 0.0
C791 C 0.44848 0.22479 0.0228 0.0
C792 C 0.47175 0.21681 0.87665 0.0
C793 C 0.43518 0.2398 0.96647 0.0
C794 C 0.43988 0.24324 0.86658 0.0
C795 C 0.46363 0.23613 0.72085 0.0
C796 C 0.48246 0.22537 0.67487 0.0
C797 C 0.4583 0.23206 0.82104 0.0
C798 C 0.49568 0.21014 0.73069 0.0
C799 C 0.49037 0.20589 0.83059 0.0
H800 H 0.79877 0.2153 0.67476 0.0
H801 H 0.85708 0.31886 0.68191 0.0
H802 H 0.86503 0.31721 0.85627 0.0
H803 H 0.85504 0.28635 0.00844 0.0
H804 H 0.79609 0.18288 -0.00055 0.0
H805 H 0.78911 0.18467 0.82512 0.0
C806 C 0.81324 0.23753 0.71429 0.0
C807 C 0.82726 0.26708 0.66485 0.0
C808 C 0.8177 0.23651 0.81483 0.0
C809 C 0.84605 0.29565 0.71767 0.0
C810 C 0.85062 0.2948 0.81768 0.0
C811 C 0.84073 0.26425 0.96816 0.0
C812 C 0.82592 0.23463 0.01731 0.0
C813 C 0.83653 0.26536 0.86722 0.0
C814 C 0.8074 0.20614 0.96395 0.0
C815 C 0.80345 0.20705 0.86394 0.0
H816 H 0.42893 0.9108 0.36053 0.0
H817 H 0.53238 0.9639 0.34998 0.0
H818 H 0.53079 0.95553 0.17593 0.0
H819 H 0.50063 0.9324 0.02735 0.0
H820 H 0.39717 0.87798 0.0343 0.0
H821 H 0.39826 0.88756 0.2086 0.0
C822 C 0.45103 0.92052 0.31987 0.0
C823 C 0.48066 0.93763 0.36836 0.0
C824 C 0.45005 0.91535 0.21914 0.0
C825 C 0.5092 0.95015 0.31482 0.0
C826 C 0.50838 0.94552 0.21506 0.0
C827 C 0.47824 0.92264 0.06663 0.0
C828 C 0.44892 0.90448 0.01755 0.0
C829 C 0.479 0.92798 0.16665 0.0
C830 C 0.42018 0.89209 0.0701 0.0
C831 C 0.42074 0.89753 0.16991 0.0
H832 H 0.10937 0.58456 0.29334 0.0
H833 H 0.13413 0.51107 0.35121 0.0
H834 H 0.14778 0.51161 0.18047 0.0
H835 H 0.15263 0.533 0.01556 0.0
H836 H 0.12769 0.60647 0.95923 0.0
H837 H 0.11403 0.60572 0.12954 0.0
C838 C 0.11787 0.56869 0.26904 0.0
C839 C 0.12081 0.54786 0.33517 0.0
C840 C 0.12553 0.56905 0.17118 0.0
C841 C 0.13163 0.52733 0.30189 0.0
C842 C 0.13943 0.52763 0.20431 0.0
C843 C 0.14415 0.54882 0.04033 0.0
C844 C 0.14125 0.5698 0.97459 0.0
C845 C 0.13642 0.54836 0.13839 0.0
C846 C 0.13026 0.59016 0.00818 0.0
C847 C 0.12244 0.58976 0.10557 0.0
H848 H 0.53421 0.61302 0.32555 0.0
H849 H 0.4378 0.5327 0.35174 0.0
H850 H 0.42944 0.53391 0.178 0.0
H851 H 0.44937 0.55696 0.018 0.0
H852 H 0.54518 0.63791 0.98973 0.0
H853 H 0.55389 0.63699 0.1644 0.0
C854 C 0.5113 0.59599 0.29335 0.0
C855 C 0.48677 0.5728 0.35186 0.0
C856 C 0.50658 0.59664 0.19272 0.0
C857 C 0.45722 0.5508 0.30869 0.0
C858 C 0.45237 0.55136 0.20909 0.0
C859 C 0.47226 0.57425 0.04985 0.0
C860 C 0.49661 0.59731 0.99088 0.0
C861 C 0.47695 0.57395 0.15031 0.0
C862 C 0.526 0.61984 0.03359 0.0
C863 C 0.531 0.6194 0.1335 0.0
loop_
_geom_bond_atom_site_label_1
_geom_bond_atom_site_label_2
_geom_bond_distance
_geom_bond_site_symmetry_2
_ccdc_geom_bond_type
Co0 H3 2.400 1_556 S
Co0 O4 2.009 1_556 S
Co0 O12 2.115 . S
Co0 O13 2.315 1_556 S
Co0 O24 2.053 . S
Co0 O27 2.094 . S
Co0 O30 2.122 . S
Co1 O4 2.126 . S
Co1 H5 2.388 1_554 S
Co1 O6 2.053 1_554 S
Co1 O9 2.047 . S
Co1 O15 2.113 . S
Co1 O26 2.063 . S
Co2 H3 2.388 1_556 S
Co2 O4 2.053 1_556 S
Co2 O6 2.126 . S
Co2 O11 2.063 . S
Co2 O25 2.047 . S
Co2 O31 2.113 . S
H3 Co0 2.400 1_554 S
H3 Co2 2.388 1_554 S
H3 O4 0.760 . S
O4 Co0 2.009 1_554 S
O4 Co1 2.126 . S
O4 Co2 2.053 1_554 S
O4 H3 0.760 . S
H5 Co1 2.388 1_556 S
H5 O6 0.760 . S
H5 Co7 2.400 1_556 S
O6 Co1 2.053 1_556 S
O6 Co2 2.126 . S
O6 H5 0.760 . S
O6 Co7 2.009 1_556 S
Co7 H5 2.400 1_554 S
Co7 O6 2.009 1_554 S
Co7 O8 2.053 . S
Co7 O10 2.094 . S
Co7 O14 2.122 . S
Co7 O28 2.115 . S
Co7 O29 2.315 1_554 S
O8 Co7 2.053 . S
O8 C20 1.259 . S
O9 Co1 2.047 . S
O9 C20 1.257 . S
O10 Co7 2.094 . S
O10 C21 1.253 . S
O11 Co2 2.063 . S
O11 C21 1.268 1_556 S
O12 Co0 2.115 . S
O12 C22 1.281 . S
O13 Co0 2.315 1_554 S
O13 C22 1.252 1_554 S
O14 Co7 2.122 . S
O14 C23 1.272 . S
O15 Co1 2.113 . S
O15 C23 1.245 . S
C16 O24 1.259 . S
C16 O25 1.257 . S
C17 O26 1.268 1_556 S
C17 O27 1.253 . S
C18 O28 1.281 . S
C18 O29 1.252 1_554 S
C19 O30 1.272 . S
C19 O31 1.245 . S
C20 O8 1.259 . S
C20 O9 1.257 . S
C21 O10 1.253 . S
C21 O11 1.268 1_554 S
C22 O12 1.281 . S
C22 O13 1.252 1_556 S
C23 O14 1.272 . S
C23 O15 1.245 . S
O24 Co0 2.053 . S
O24 C16 1.259 . S
O25 Co2 2.047 . S
O25 C16 1.257 . S
O26 Co1 2.063 . S
O26 C17 1.268 1_554 S
O27 Co0 2.094 . S
O27 C17 1.253 . S
O28 Co7 2.115 . S
O28 C18 1.281 . S
O29 Co7 2.315 1_556 S
O29 C18 1.252 1_556 S
O30 Co0 2.122 . S
O30 C19 1.272 . S
O31 Co2 2.113 . S
O31 C19 1.245 . S
Co32 H35 2.400 1_556 S
Co32 O36 2.009 1_556 S
Co32 O44 2.115 . S
Co32 O45 2.315 1_556 S
Co32 O56 2.053 . S
Co32 O59 2.094 . S
Co32 O62 2.122 . S
Co33 O36 2.126 . S
Co33 H37 2.388 1_554 S
Co33 O38 2.053 1_554 S
Co33 O41 2.047 . S
Co33 O47 2.113 . S
Co33 O58 2.063 . S
Co34 H35 2.388 1_556 S
Co34 O36 2.053 1_556 S
Co34 O38 2.126 . S
Co34 O43 2.063 . S
Co34 O57 2.047 . S
Co34 O63 2.113 . S
H35 Co32 2.400 1_554 S
H35 Co34 2.388 1_554 S
H35 O36 0.760 . S
O36 Co32 2.009 1_554 S
O36 Co33 2.126 . S
O36 Co34 2.053 1_554 S
O36 H35 0.760 . S
H37 Co33 2.388 1_556 S
H37 O38 0.760 . S
H37 Co39 2.400 1_556 S
O38 Co33 2.053 1_556 S
O38 Co34 2.126 . S
O38 H37 0.760 . S
O38 Co39 2.009 1_556 S
Co39 H37 2.400 1_554 S
Co39 O38 2.009 1_554 S
Co39 O40 2.053 . S
Co39 O42 2.094 . S
Co39 O46 2.122 . S
Co39 O60 2.115 . S
Co39 O61 2.315 1_554 S
O40 Co39 2.053 . S
O40 C52 1.259 . S
O41 Co33 2.047 . S
O41 C52 1.257 . S
O42 Co39 2.094 . S
O42 C53 1.253 . S
O43 Co34 2.063 . S
O43 C53 1.268 1_556 S
O44 Co32 2.115 . S
O44 C54 1.281 . S
O45 Co32 2.315 1_554 S
O45 C54 1.252 1_554 S
O46 Co39 2.122 . S
O46 C55 1.272 . S
O47 Co33 2.113 . S
O47 C55 1.245 . S
C48 O56 1.259 . S
C48 O57 1.257 . S
C49 O58 1.268 1_556 S
C49 O59 1.253 . S
C50 O60 1.281 . S
C50 O61 1.252 1_554 S
C51 O62 1.272 . S
C51 O63 1.245 . S
C52 O40 1.259 . S
C52 O41 1.257 . S
C53 O42 1.253 . S
C53 O43 1.268 1_554 S
C54 O44 1.281 . S
C54 O45 1.252 1_556 S
C55 O46 1.272 . S
C55 O47 1.245 . S
O56 Co32 2.053 . S
O56 C48 1.259 . S
O57 Co34 2.047 . S
O57 C48 1.257 . S
O58 Co33 2.063 . S
O58 C49 1.268 1_554 S
O59 Co32 2.094 . S
O59 C49 1.253 . S
O60 Co39 2.115 . S
O60 C50 1.281 . S
O61 Co39 2.315 1_556 S
O61 C50 1.252 1_556 S
O62 Co32 2.122 . S
O62 C51 1.272 . S
O63 Co34 2.113 . S
O63 C51 1.245 . S
Co64 H67 2.400 1_556 S
Co64 O68 2.009 1_556 S
Co64 O76 2.115 . S
Co64 O77 2.315 1_556 S
Co64 O88 2.053 . S
Co64 O91 2.094 . S
Co64 O94 2.122 . S
Co65 O68 2.126 . S
Co65 H69 2.388 1_554 S
Co65 O70 2.053 1_554 S
Co65 O73 2.047 . S
Co65 O79 2.113 . S
Co65 O90 2.063 . S
Co66 H67 2.388 1_556 S
Co66 O68 2.053 1_556 S
Co66 O70 2.126 . S
Co66 O75 2.063 . S
Co66 O89 2.047 . S
Co66 O95 2.113 . S
H67 Co64 2.400 1_554 S
H67 Co66 2.388 1_554 S
H67 O68 0.760 . S
O68 Co64 2.009 1_554 S
O68 Co65 2.126 . S
O68 Co66 2.053 1_554 S
O68 H67 0.760 . S
H69 Co65 2.388 1_556 S
H69 O70 0.760 . S
H69 Co71 2.400 1_556 S
O70 Co65 2.053 1_556 S
O70 Co66 2.126 . S
O70 H69 0.760 . S
O70 Co71 2.009 1_556 S
Co71 H69 2.400 1_554 S
Co71 O70 2.009 1_554 S
Co71 O72 2.053 . S
Co71 O74 2.094 . S
Co71 O78 2.122 . S
Co71 O92 2.115 . S
Co71 O93 2.315 1_554 S
O72 Co71 2.053 . S
O72 C84 1.259 . S
O73 Co65 2.047 . S
O73 C84 1.257 . S
O74 Co71 2.094 . S
O74 C85 1.253 . S
O75 Co66 2.063 . S
O75 C85 1.268 1_556 S
O76 Co64 2.115 . S
O76 C86 1.281 . S
O77 Co64 2.315 1_554 S
O77 C86 1.252 1_554 S
O78 Co71 2.122 . S
O78 C87 1.272 . S
O79 Co65 2.113 . S
O79 C87 1.245 . S
C80 O88 1.259 . S
C80 O89 1.257 . S
C81 O90 1.268 1_556 S
C81 O91 1.253 . S
C82 O92 1.281 . S
C82 O93 1.252 1_554 S
C83 O94 1.272 . S
C83 O95 1.245 . S
C84 O72 1.259 . S
C84 O73 1.257 . S
C85 O74 1.253 . S
C85 O75 1.268 1_554 S
C86 O76 1.281 . S
C86 O77 1.252 1_556 S
C87 O78 1.272 . S
C87 O79 1.245 . S
O88 Co64 2.053 . S
O88 C80 1.259 . S
O89 Co66 2.047 . S
O89 C80 1.257 . S
O90 Co65 2.063 . S
O90 C81 1.268 1_554 S
O91 Co64 2.094 . S
O91 C81 1.253 . S
O92 Co71 2.115 . S
O92 C82 1.281 . S
O93 Co71 2.315 1_556 S
O93 C82 1.252 1_556 S
O94 Co64 2.122 . S
O94 C83 1.272 . S
O95 Co66 2.113 . S
O95 C83 1.245 . S
Co96 H99 2.400 . S
Co96 O100 2.009 . S
Co96 O108 2.115 . S
Co96 O109 2.315 . S
Co96 O120 2.053 . S
Co96 O123 2.094 . S
Co96 O126 2.122 . S
Co97 O100 2.126 . S
Co97 H101 2.388 . S
Co97 O102 2.053 . S
Co97 O105 2.047 . S
Co97 O111 2.113 . S
Co97 O122 2.063 . S
Co98 H99 2.388 . S
Co98 O100 2.053 . S
Co98 O102 2.126 . S
Co98 O107 2.063 . S
Co98 O121 2.047 . S
Co98 O127 2.113 . S
H99 Co96 2.400 . S
H99 Co98 2.388 . S
H99 O100 0.760 . S
O100 Co96 2.009 . S
O100 Co97 2.126 . S
O100 Co98 2.053 . S
O100 H99 0.760 . S
H101 Co97 2.388 . S
H101 O102 0.760 . S
H101 Co103 2.400 . S
O102 Co97 2.053 . S
O102 Co98 2.126 . S
O102 H101 0.760 . S
O102 Co103 2.009 . S
Co103 H101 2.400 . S
Co103 O102 2.009 . S
Co103 O104 2.053 . S
Co103 O106 2.094 . S
Co103 O110 2.122 . S
Co103 O124 2.115 . S
Co103 O125 2.315 . S
O104 Co103 2.053 . S
O104 C116 1.259 . S
O105 Co97 2.047 . S
O105 C116 1.257 . S
O106 Co103 2.094 . S
O106 C117 1.253 . S
O107 Co98 2.063 . S
O107 C117 1.268 . S
O108 Co96 2.115 . S
O108 C118 1.281 . S
O109 Co96 2.315 . S
O109 C118 1.252 . S
O110 Co103 2.122 . S
O110 C119 1.272 . S
O111 Co97 2.113 . S
O111 C119 1.245 . S
C112 O120 1.259 . S
C112 O121 1.257 . S
C113 O122 1.268 . S
C113 O123 1.253 . S
C114 O124 1.281 . S
C114 O125 1.252 . S
C115 O126 1.272 . S
C115 O127 1.245 . S
C116 O104 1.259 . S
C116 O105 1.257 . S
C117 O106 1.253 . S
C117 O107 1.268 . S
C118 O108 1.281 . S
C118 O109 1.252 . S
C119 O110 1.272 . S
C119 O111 1.245 . S
O120 Co96 2.053 . S
O120 C112 1.259 . S
O121 Co98 2.047 . S
O121 C112 1.257 . S
O122 Co97 2.063 . S
O122 C113 1.268 . S
O123 Co96 2.094 . S
O123 C113 1.253 . S
O124 Co103 2.115 . S
O124 C114 1.281 . S
O125 Co103 2.315 . S
O125 C114 1.252 . S
O126 Co96 2.122 . S
O126 C115 1.272 . S
O127 Co98 2.113 . S
O127 C115 1.245 . S
Co128 H131 2.400 . S
Co128 O132 2.009 . S
Co128 O140 2.115 . S
Co128 O141 2.315 . S
Co128 O152 2.053 . S
Co128 O155 2.094 . S
Co128 O158 2.122 . S
Co129 O132 2.126 . S
Co129 H133 2.388 . S
Co129 O134 2.053 . S
Co129 O137 2.047 . S
Co129 O143 2.113 . S
Co129 O154 2.063 . S
Co130 H131 2.388 . S
Co130 O132 2.053 . S
Co130 O134 2.126 . S
Co130 O139 2.063 . S
Co130 O153 2.047 . S
Co130 O159 2.113 . S
H131 Co128 2.400 . S
H131 Co130 2.388 . S
H131 O132 0.760 . S
O132 Co128 2.009 . S
O132 Co129 2.126 . S
O132 Co130 2.053 . S
O132 H131 0.760 . S
H133 Co129 2.388 . S
H133 O134 0.760 . S
H133 Co135 2.400 . S
O134 Co129 2.053 . S
O134 Co130 2.126 . S
O134 H133 0.760 . S
O134 Co135 2.009 . S
Co135 H133 2.400 . S
Co135 O134 2.009 . S
Co135 O136 2.053 . S
Co135 O138 2.094 . S
Co135 O142 2.122 . S
Co135 O156 2.115 . S
Co135 O157 2.315 . S
O136 Co135 2.053 . S
O136 C148 1.259 . S
O137 Co129 2.047 . S
O137 C148 1.257 . S
O138 Co135 2.094 . S
O138 C149 1.253 . S
O139 Co130 2.063 . S
O139 C149 1.268 . S
O140 Co128 2.115 . S
O140 C150 1.281 . S
O141 Co128 2.315 . S
O141 C150 1.252 . S
O142 Co135 2.122 . S
O142 C151 1.272 . S
O143 Co129 2.113 . S
O143 C151 1.245 . S
C144 O152 1.259 . S
C144 O153 1.257 . S
C145 O154 1.268 . S
C145 O155 1.253 . S
C146 O156 1.281 . S
C146 O157 1.252 . S
C147 O158 1.272 . S
C147 O159 1.245 . S
C148 O136 1.259 . S
C148 O137 1.257 . S
C149 O138 1.253 . S
C149 O139 1.268 . S
C150 O140 1.281 . S
C150 O141 1.252 . S
C151 O142 1.272 . S
C151 O143 1.245 . S
O152 Co128 2.053 . S
O152 C144 1.259 . S
O153 Co130 2.047 . S
O153 C144 1.257 . S
O154 Co129 2.063 . S
O154 C145 1.268 . S
O155 Co128 2.094 . S
O155 C145 1.253 . S
O156 Co135 2.115 . S
O156 C146 1.281 . S
O157 Co135 2.315 . S
O157 C146 1.252 . S
O158 Co128 2.122 . S
O158 C147 1.272 . S
O159 Co130 2.113 . S
O159 C147 1.245 . S
Co160 H163 2.400 . S
Co160 O164 2.009 . S
Co160 O172 2.115 . S
Co160 O173 2.315 . S
Co160 O184 2.053 . S
Co160 O187 2.094 . S
Co160 O190 2.122 . S
Co161 O164 2.126 . S
Co161 H165 2.388 . S
Co161 O166 2.053 . S
Co161 O169 2.047 . S
Co161 O175 2.113 . S
Co161 O186 2.063 . S
Co162 H163 2.388 . S
Co162 O164 2.053 . S
Co162 O166 2.126 . S
Co162 O171 2.063 . S
Co162 O185 2.047 . S
Co162 O191 2.113 . S
H163 Co160 2.400 . S
H163 Co162 2.388 . S
H163 O164 0.760 . S
O164 Co160 2.009 . S
O164 Co161 2.126 . S
O164 Co162 2.053 . S
O164 H163 0.760 . S
H165 Co161 2.388 . S
H165 O166 0.760 . S
H165 Co167 2.400 . S
O166 Co161 2.053 . S
O166 Co162 2.126 . S
O166 H165 0.760 . S
O166 Co167 2.009 . S
Co167 H165 2.400 . S
Co167 O166 2.009 . S
Co167 O168 2.053 . S
Co167 O170 2.094 . S
Co167 O174 2.122 . S
Co167 O188 2.115 . S
Co167 O189 2.315 . S
O168 Co167 2.053 . S
O168 C180 1.259 . S
O169 Co161 2.047 . S
O169 C180 1.257 . S
O170 Co167 2.094 . S
O170 C181 1.253 . S
O171 Co162 2.063 . S
O171 C181 1.268 . S
O172 Co160 2.115 . S
O172 C182 1.281 . S
O173 Co160 2.315 . S
O173 C182 1.252 . S
O174 Co167 2.122 . S
O174 C183 1.272 . S
O175 Co161 2.113 . S
O175 C183 1.245 . S
C176 O184 1.259 . S
C176 O185 1.257 . S
C177 O186 1.268 . S
C177 O187 1.253 . S
C178 O188 1.281 . S
C178 O189 1.252 . S
C179 O190 1.272 . S
C179 O191 1.245 . S
C180 O168 1.259 . S
C180 O169 1.257 . S
C181 O170 1.253 . S
C181 O171 1.268 . S
C182 O172 1.281 . S
C182 O173 1.252 . S
C183 O174 1.272 . S
C183 O175 1.245 . S
O184 Co160 2.053 . S
O184 C176 1.259 . S
O185 Co162 2.047 . S
O185 C176 1.257 . S
O186 Co161 2.063 . S
O186 C177 1.268 . S
O187 Co160 2.094 . S
O187 C177 1.253 . S
O188 Co167 2.115 . S
O188 C178 1.281 . S
O189 Co167 2.315 . S
O189 C178 1.252 . S
O190 Co160 2.122 . S
O190 C179 1.272 . S
O191 Co162 2.113 . S
O191 C179 1.245 . S
Co192 H195 2.400 . S
Co192 O196 2.009 . S
Co192 O204 2.115 . S
Co192 O205 2.315 . S
Co192 O216 2.053 . S
Co192 O219 2.094 . S
Co192 O222 2.122 . S
Co193 O196 2.126 . S
Co193 H197 2.388 . S
Co193 O198 2.053 . S
Co193 O201 2.047 . S
Co193 O207 2.113 . S
Co193 O218 2.063 . S
Co194 H195 2.388 . S
Co194 O196 2.053 . S
Co194 O198 2.126 . S
Co194 O203 2.063 . S
Co194 O217 2.047 . S
Co194 O223 2.113 . S
H195 Co192 2.400 . S
H195 Co194 2.388 . S
H195 O196 0.760 . S
O196 Co192 2.009 . S
O196 Co193 2.126 . S
O196 Co194 2.053 . S
O196 H195 0.760 . S
H197 Co193 2.388 . S
H197 O198 0.760 . S
H197 Co199 2.400 . S
O198 Co193 2.053 . S
O198 Co194 2.126 . S
O198 H197 0.760 . S
O198 Co199 2.009 . S
Co199 H197 2.400 . S
Co199 O198 2.009 . S
Co199 O200 2.053 . S
Co199 O202 2.094 . S
Co199 O206 2.122 . S
Co199 O220 2.115 . S
Co199 O221 2.315 . S
O200 Co199 2.053 . S
O200 C212 1.259 . S
O201 Co193 2.047 . S
O201 C212 1.257 . S
O202 Co199 2.094 . S
O202 C213 1.253 . S
O203 Co194 2.063 . S
O203 C213 1.268 . S
O204 Co192 2.115 . S
O204 C214 1.281 . S
O205 Co192 2.315 . S
O205 C214 1.252 . S
O206 Co199 2.122 . S
O206 C215 1.272 . S
O207 Co193 2.113 . S
O207 C215 1.245 . S
C208 O216 1.259 . S
C208 O217 1.257 . S
C209 O218 1.268 . S
C209 O219 1.253 . S
C210 O220 1.281 . S
C210 O221 1.252 . S
C211 O222 1.272 . S
C211 O223 1.245 . S
C212 O200 1.259 . S
C212 O201 1.257 . S
C213 O202 1.253 . S
C213 O203 1.268 . S
C214 O204 1.281 . S
C214 O205 1.252 . S
C215 O206 1.272 . S
C215 O207 1.245 . S
O216 Co192 2.053 . S
O216 C208 1.259 . S
O217 Co194 2.047 . S
O217 C208 1.257 . S
O218 Co193 2.063 . S
O218 C209 1.268 . S
O219 Co192 2.094 . S
O219 C209 1.253 . S
O220 Co199 2.115 . S
O220 C210 1.281 . S
O221 Co199 2.315 . S
O221 C210 1.252 . S
O222 Co192 2.122 . S
O222 C211 1.272 . S
O223 Co194 2.113 . S
O223 C211 1.245 . S
Co224 H227 2.400 . S
Co224 O228 2.009 . S
Co224 O236 2.115 . S
Co224 O237 2.315 . S
Co224 O248 2.053 . S
Co224 O251 2.094 . S
Co224 O254 2.122 . S
Co225 O228 2.126 . S
Co225 H229 2.388 . S
Co225 O230 2.053 . S
Co225 O233 2.047 . S
Co225 O239 2.113 . S
Co225 O250 2.063 . S
Co226 H227 2.388 . S
Co226 O228 2.053 . S
Co226 O230 2.126 . S
Co226 O235 2.063 . S
Co226 O249 2.047 . S
Co226 O255 2.113 . S
H227 Co224 2.400 . S
H227 Co226 2.388 . S
H227 O228 0.760 . S
O228 Co224 2.009 . S
O228 Co225 2.126 . S
O228 Co226 2.053 . S
O228 H227 0.760 . S
H229 Co225 2.388 . S
H229 O230 0.760 . S
H229 Co231 2.400 . S
O230 Co225 2.053 . S
O230 Co226 2.126 . S
O230 H229 0.760 . S
O230 Co231 2.009 . S
Co231 H229 2.400 . S
Co231 O230 2.009 . S
Co231 O232 2.053 . S
Co231 O234 2.094 . S
Co231 O238 2.122 . S
Co231 O252 2.115 . S
Co231 O253 2.315 . S
O232 Co231 2.053 . S
O232 C244 1.259 . S
O233 Co225 2.047 . S
O233 C244 1.257 . S
O234 Co231 2.094 . S
O234 C245 1.253 . S
O235 Co226 2.063 . S
O235 C245 1.268 . S
O236 Co224 2.115 . S
O236 C246 1.281 . S
O237 Co224 2.315 . S
O237 C246 1.252 . S
O238 Co231 2.122 . S
O238 C247 1.272 . S
O239 Co225 2.113 . S
O239 C247 1.245 . S
C240 O248 1.259 . S
C240 O249 1.257 . S
C241 O250 1.268 . S
C241 O251 1.253 . S
C242 O252 1.281 . S
C242 O253 1.252 . S
C243 O254 1.272 . S
C243 O255 1.245 . S
C244 O232 1.259 . S
C244 O233 1.257 . S
C245 O234 1.253 . S
C245 O235 1.268 . S
C246 O236 1.281 . S
C246 O237 1.252 . S
C247 O238 1.272 . S
C247 O239 1.245 . S
O248 Co224 2.053 . S
O248 C240 1.259 . S
O249 Co226 2.047 . S
O249 C240 1.257 . S
O250 Co225 2.063 . S
O250 C241 1.268 . S
O251 Co224 2.094 . S
O251 C241 1.253 . S
O252 Co231 2.115 . S
O252 C242 1.281 . S
O253 Co231 2.315 . S
O253 C242 1.252 . S
O254 Co224 2.122 . S
O254 C243 1.272 . S
O255 Co226 2.113 . S
O255 C243 1.245 . S
Co256 H259 2.400 . S
Co256 O260 2.009 . S
Co256 O268 2.115 . S
Co256 O269 2.315 . S
Co256 O280 2.053 . S
Co256 O283 2.094 . S
Co256 O286 2.122 . S
Co257 O260 2.126 . S
Co257 H261 2.388 . S
Co257 O262 2.053 . S
Co257 O265 2.047 . S
Co257 O271 2.113 . S
Co257 O282 2.063 . S
Co258 H259 2.388 . S
Co258 O260 2.053 . S
Co258 O262 2.126 . S
Co258 O267 2.063 . S
Co258 O281 2.047 . S
Co258 O287 2.113 . S
H259 Co256 2.400 . S
H259 Co258 2.388 . S
H259 O260 0.760 . S
O260 Co256 2.009 . S
O260 Co257 2.126 . S
O260 Co258 2.053 . S
O260 H259 0.760 . S
H261 Co257 2.388 . S
H261 O262 0.760 . S
H261 Co263 2.400 . S
O262 Co257 2.053 . S
O262 Co258 2.126 . S
O262 H261 0.760 . S
O262 Co263 2.009 . S
Co263 H261 2.400 . S
Co263 O262 2.009 . S
Co263 O264 2.053 . S
Co263 O266 2.094 . S
Co263 O270 2.122 . S
Co263 O284 2.115 . S
Co263 O285 2.315 . S
O264 Co263 2.053 . S
O264 C276 1.259 . S
O265 Co257 2.047 . S
O265 C276 1.257 . S
O266 Co263 2.094 . S
O266 C277 1.253 . S
O267 Co258 2.063 . S
O267 C277 1.268 . S
O268 Co256 2.115 . S
O268 C278 1.281 . S
O269 Co256 2.315 . S
O269 C278 1.252 . S
O270 Co263 2.122 . S
O270 C279 1.272 . S
O271 Co257 2.113 . S
O271 C279 1.245 . S
C272 O280 1.259 . S
C272 O281 1.257 . S
C273 O282 1.268 . S
C273 O283 1.253 . S
C274 O284 1.281 . S
C274 O285 1.252 . S
C275 O286 1.272 . S
C275 O287 1.245 . S
C276 O264 1.259 . S
C276 O265 1.257 . S
C277 O266 1.253 . S
C277 O267 1.268 . S
C278 O268 1.281 . S
C278 O269 1.252 . S
C279 O270 1.272 . S
C279 O271 1.245 . S
O280 Co256 2.053 . S
O280 C272 1.259 . S
O281 Co258 2.047 . S
O281 C272 1.257 . S
O282 Co257 2.063 . S
O282 C273 1.268 . S
O283 Co256 2.094 . S
O283 C273 1.253 . S
O284 Co263 2.115 . S
O284 C274 1.281 . S
O285 Co263 2.315 . S
O285 C274 1.252 . S
O286 Co256 2.122 . S
O286 C275 1.272 . S
O287 Co258 2.113 . S
O287 C275 1.245 . S
H288 C294 0.930 . S
H289 C297 0.930 . S
H290 C298 0.930 1_556 S
H291 C299 0.930 . S
H292 C302 0.930 . S
H293 C303 0.930 . S
C294 H288 0.930 . S
C294 C295 1.355 . S
C294 C296 1.415 . S
C295 C294 1.355 . S
C295 C297 1.419 1_554 S
C296 C294 1.415 . S
C296 C301 1.425 . S
C296 C303 1.409 . S
C297 H289 0.930 . S
C297 C295 1.419 1_556 S
C297 C298 1.362 1_556 S
C298 H290 0.930 1_554 S
C298 C297 1.362 1_554 S
C298 C301 1.409 . S
C299 H291 0.930 . S
C299 C300 1.355 . S
C299 C301 1.415 . S
C300 C299 1.355 . S
C300 C302 1.419 . S
C301 C296 1.425 . S
C301 C298 1.409 . S
C301 C299 1.415 . S
C302 H292 0.930 . S
C302 C300 1.419 . S
C302 C303 1.362 . S
C303 H293 0.930 . S
C303 C296 1.409 . S
C303 C302 1.362 . S
H304 C310 0.930 . S
H305 C313 0.930 . S
H306 C314 0.930 . S
H307 C315 0.930 . S
H308 C318 0.930 . S
H309 C319 0.930 . S
C310 H304 0.930 . S
C310 C311 1.355 . S
C310 C312 1.415 . S
C311 C310 1.355 . S
C311 C313 1.419 . S
C312 C310 1.415 . S
C312 C317 1.425 . S
C312 C319 1.409 1_545 S
C313 H305 0.930 . S
C313 C311 1.419 . S
C313 C314 1.362 . S
C314 H306 0.930 . S
C314 C313 1.362 . S
C314 C317 1.409 . S
C315 H307 0.930 . S
C315 C316 1.355 1_545 S
C315 C317 1.415 . S
C316 C315 1.355 1_565 S
C316 C318 1.419 . S
C317 C312 1.425 . S
C317 C314 1.409 . S
C317 C315 1.415 . S
C318 H308 0.930 . S
C318 C316 1.419 . S
C318 C319 1.362 . S
C319 H309 0.930 . S
C319 C312 1.409 1_565 S
C319 C318 1.362 . S
H320 C326 0.930 1_556 S
H321 C329 0.930 . S
H322 C330 0.930 . S
H323 C331 0.930 . S
H324 C334 0.930 . S
H325 C335 0.930 . S
C326 H320 0.930 1_554 S
C326 C327 1.355 1_655 S
C326 C328 1.415 . S
C327 C326 1.355 1_455 S
C327 C329 1.419 . S
C328 C326 1.415 . S
C328 C333 1.425 . S
C328 C335 1.409 . S
C329 H321 0.930 . S
C329 C327 1.419 . S
C329 C330 1.362 . S
C330 H322 0.930 . S
C330 C329 1.362 . S
C330 C333 1.409 1_455 S
C331 H323 0.930 . S
C331 C332 1.355 . S
C331 C333 1.415 . S
C332 C331 1.355 . S
C332 C334 1.419 . S
C333 C328 1.425 . S
C333 C330 1.409 1_655 S
C333 C331 1.415 . S
C334 H324 0.930 . S
C334 C332 1.419 . S
C334 C335 1.362 . S
C335 H325 0.930 . S
C335 C328 1.409 . S
C335 C334 1.362 . S
H336 C342 0.930 . S
H337 C345 0.930 . S
H338 C346 0.930 . S
H339 C347 0.930 . S
H340 C350 0.930 . S
H341 C351 0.930 . S
C342 H336 0.930 . S
C342 C343 1.355 . S
C342 C344 1.415 . S
C343 C342 1.355 . S
C343 C345 1.419 1_554 S
C344 C342 1.415 . S
C344 C349 1.425 . S
C344 C351 1.409 . S
C345 H337 0.930 . S
C345 C343 1.419 1_556 S
C345 C346 1.362 . S
C346 H338 0.930 . S
C346 C345 1.362 . S
C346 C349 1.409 1_556 S
C347 H339 0.930 . S
C347 C348 1.355 . S
C347 C349 1.415 . S
C348 C347 1.355 . S
C348 C350 1.419 . S
C349 C344 1.425 . S
C349 C346 1.409 1_554 S
C349 C347 1.415 . S
C350 H340 0.930 . S
C350 C348 1.419 . S
C350 C351 1.362 . S
C351 H341 0.930 . S
C351 C344 1.409 . S
C351 C350 1.362 . S
H352 C358 0.930 . S
H353 C361 0.930 1_566 S
H354 C362 0.930 . S
H355 C363 0.930 . S
H356 C366 0.930 . S
H357 C367 0.930 . S
C358 H352 0.930 . S
C358 C359 1.355 . S
C358 C360 1.415 . S
C359 C358 1.355 . S
C359 C361 1.419 . S
C360 C358 1.415 . S
C360 C365 1.425 . S
C360 C367 1.409 . S
C361 H353 0.930 1_544 S
C361 C359 1.419 . S
C361 C362 1.362 . S
C362 H354 0.930 . S
C362 C361 1.362 . S
C362 C365 1.409 . S
C363 H355 0.930 . S
C363 C364 1.355 . S
C363 C365 1.415 . S
C364 C363 1.355 . S
C364 C366 1.419 . S
C365 C360 1.425 . S
C365 C362 1.409 . S
C365 C363 1.415 . S
C366 H356 0.930 . S
C366 C364 1.419 . S
C366 C367 1.362 . S
C367 H357 0.930 . S
C367 C360 1.409 . S
C367 C366 1.362 . S
H368 C374 0.930 1_556 S
H369 C377 0.930 1_455 S
H370 C378 0.930 . S
H371 C379 0.930 . S
H372 C382 0.930 . S
H373 C383 0.930 1_556 S
C374 H368 0.930 1_554 S
C374 C375 1.355 . S
C374 C376 1.415 . S
C375 C374 1.355 . S
C375 C377 1.419 . S
C376 C374 1.415 . S
C376 C381 1.425 . S
C376 C383 1.409 . S
C377 H369 0.930 1_655 S
C377 C375 1.419 . S
C377 C378 1.362 . S
C378 H370 0.930 . S
C378 C377 1.362 . S
C378 C381 1.409 . S
C379 H371 0.930 . S
C379 C380 1.355 . S
C379 C381 1.415 . S
C380 C379 1.355 . S
C380 C382 1.419 . S
C381 C376 1.425 . S
C381 C378 1.409 . S
C381 C379 1.415 . S
C382 H372 0.930 . S
C382 C380 1.419 . S
C382 C383 1.362 . S
C383 H373 0.930 1_554 S
C383 C376 1.409 . S
C383 C382 1.362 . S
H384 C390 0.930 . S
H385 C393 0.930 . S
H386 C394 0.930 . S
H387 C395 0.930 . S
H388 C398 0.930 1_455 S
H389 C399 0.930 . S
C390 H384 0.930 . S
C390 C391 1.355 . S
C390 C392 1.415 . S
C391 C390 1.355 . S
C391 C393 1.419 . S
C392 C390 1.415 . S
C392 C397 1.425 . S
C392 C399 1.409 . S
C393 H385 0.930 . S
C393 C391 1.419 . S
C393 C394 1.362 . S
C394 H386 0.930 . S
C394 C393 1.362 . S
C394 C397 1.409 . S
C395 H387 0.930 . S
C395 C396 1.355 . S
C395 C397 1.415 . S
C396 C395 1.355 . S
C396 C398 1.419 . S
C397 C392 1.425 . S
C397 C394 1.409 . S
C397 C395 1.415 . S
C398 H388 0.930 1_655 S
C398 C396 1.419 . S
C398 C399 1.362 . S
C399 H389 0.930 . S
C399 C392 1.409 . S
C399 C398 1.362 . S
H400 C406 0.930 . S
H401 C409 0.930 . S
H402 C410 0.930 . S
H403 C411 0.930 . S
H404 C414 0.930 . S
H405 C415 0.930 . S
C406 H400 0.930 . S
C406 C407 1.355 . S
C406 C408 1.415 . S
C407 C406 1.355 . S
C407 C409 1.419 . S
C408 C406 1.415 . S
C408 C413 1.425 . S
C408 C415 1.409 . S
C409 H401 0.930 . S
C409 C407 1.419 . S
C409 C410 1.362 . S
C410 H402 0.930 . S
C410 C409 1.362 . S
C410 C413 1.409 . S
C411 H403 0.930 . S
C411 C412 1.355 . S
C411 C413 1.415 . S
C412 C411 1.355 . S
C412 C414 1.419 . S
C413 C408 1.425 . S
C413 C410 1.409 . S
C413 C411 1.415 . S
C414 H404 0.930 . S
C414 C412 1.419 . S
C414 C415 1.362 . S
C415 H405 0.930 . S
C415 C408 1.409 . S
C415 C414 1.362 . S
H416 C422 0.930 . S
H417 C425 0.930 . S
H418 C426 0.930 . S
H419 C427 0.930 . S
H420 C430 0.930 . S
H421 C431 0.930 . S
C422 H416 0.930 . S
C422 C423 1.355 . S
C422 C424 1.415 . S
C423 C422 1.355 . S
C423 C425 1.419 . S
C424 C422 1.415 . S
C424 C429 1.425 . S
C424 C431 1.409 . S
C425 H417 0.930 . S
C425 C423 1.419 . S
C425 C426 1.362 . S
C426 H418 0.930 . S
C426 C425 1.362 . S
C426 C429 1.409 . S
C427 H419 0.930 . S
C427 C428 1.355 . S
C427 C429 1.415 . S
C428 C427 1.355 . S
C428 C430 1.419 . S
C429 C424 1.425 . S
C429 C426 1.409 . S
C429 C427 1.415 . S
C430 H420 0.930 . S
C430 C428 1.419 . S
C430 C431 1.362 . S
C431 H421 0.930 . S
C431 C424 1.409 . S
C431 C430 1.362 . S
H432 C438 0.930 . S
H433 C441 0.930 . S
H434 C442 0.930 . S
H435 C443 0.930 . S
H436 C446 0.930 1_565 S
H437 C447 0.930 . S
C438 H432 0.930 . S
C438 C439 1.355 . S
C438 C440 1.415 . S
C439 C438 1.355 . S
C439 C441 1.419 . S
C440 C438 1.415 . S
C440 C445 1.425 . S
C440 C447 1.409 . S
C441 H433 0.930 . S
C441 C439 1.419 . S
C441 C442 1.362 . S
C442 H434 0.930 . S
C442 C441 1.362 . S
C442 C445 1.409 . S
C443 H435 0.930 . S
C443 C444 1.355 . S
C443 C445 1.415 . S
C444 C443 1.355 . S
C444 C446 1.419 . S
C445 C440 1.425 . S
C445 C442 1.409 . S
C445 C443 1.415 . S
C446 H436 0.930 1_545 S
C446 C444 1.419 . S
C446 C447 1.362 . S
C447 H437 0.930 . S
C447 C440 1.409 . S
C447 C446 1.362 . S
H448 C454 0.930 . S
H449 C457 0.930 . S
H450 C458 0.930 . S
H451 C459 0.930 . S
H452 C462 0.930 . S
H453 C463 0.930 . S
C454 H448 0.930 . S
C454 C455 1.355 . S
C454 C456 1.415 . S
C455 C454 1.355 . S
C455 C457 1.419 . S
C456 C454 1.415 . S
C456 C461 1.425 . S
C456 C463 1.409 . S
C457 H449 0.930 . S
C457 C455 1.419 . S
C457 C458 1.362 . S
C458 H450 0.930 . S
C458 C457 1.362 . S
C458 C461 1.409 . S
C459 H451 0.930 . S
C459 C460 1.355 . S
C459 C461 1.415 . S
C460 C459 1.355 . S
C460 C462 1.419 . S
C461 C456 1.425 . S
C461 C458 1.409 . S
C461 C459 1.415 . S
C462 H452 0.930 . S
C462 C460 1.419 . S
C462 C463 1.362 . S
C463 H453 0.930 . S
C463 C456 1.409 . S
C463 C462 1.362 . S
H464 C470 0.930 . S
H465 C473 0.930 . S
H466 C474 0.930 . S
H467 C475 0.930 . S
H468 C478 0.930 . S
H469 C479 0.930 . S
C470 H464 0.930 . S
C470 C471 1.355 . S
C470 C472 1.415 . S
C471 C470 1.355 . S
C471 C473 1.419 . S
C472 C470 1.415 . S
C472 C477 1.425 . S
C472 C479 1.409 . S
C473 H465 0.930 . S
C473 C471 1.419 . S
C473 C474 1.362 . S
C474 H466 0.930 . S
C474 C473 1.362 . S
C474 C477 1.409 . S
C475 H467 0.930 . S
C475 C476 1.355 . S
C475 C477 1.415 . S
C476 C475 1.355 . S
C476 C478 1.419 . S
C477 C472 1.425 . S
C477 C474 1.409 . S
C477 C475 1.415 . S
C478 H468 0.930 . S
C478 C476 1.419 . S
C478 C479 1.362 . S
C479 H469 0.930 . S
C479 C472 1.409 . S
C479 C478 1.362 . S
H480 C486 0.930 . S
H481 C489 0.930 . S
H482 C490 0.930 . S
H483 C491 0.930 . S
H484 C494 0.930 . S
H485 C495 0.930 . S
C486 H480 0.930 . S
C486 C487 1.355 . S
C486 C488 1.415 . S
C487 C486 1.355 . S
C487 C489 1.419 . S
C488 C486 1.415 . S
C488 C493 1.425 . S
C488 C495 1.409 . S
C489 H481 0.930 . S
C489 C487 1.419 . S
C489 C490 1.362 . S
C490 H482 0.930 . S
C490 C489 1.362 . S
C490 C493 1.409 . S
C491 H483 0.930 . S
C491 C492 1.355 . S
C491 C493 1.415 . S
C492 C491 1.355 . S
C492 C494 1.419 . S
C493 C488 1.425 . S
C493 C490 1.409 . S
C493 C491 1.415 . S
C494 H484 0.930 . S
C494 C492 1.419 . S
C494 C495 1.362 . S
C495 H485 0.930 . S
C495 C488 1.409 . S
C495 C494 1.362 . S
H496 C502 0.930 . S
H497 C505 0.930 . S
H498 C506 0.930 . S
H499 C507 0.930 . S
H500 C510 0.930 1_554 S
H501 C511 0.930 . S
C502 H496 0.930 . S
C502 C503 1.355 . S
C502 C504 1.415 . S
C503 C502 1.355 . S
C503 C505 1.419 . S
C504 C502 1.415 . S
C504 C509 1.425 . S
C504 C511 1.409 . S
C505 H497 0.930 . S
C505 C503 1.419 . S
C505 C506 1.362 . S
C506 H498 0.930 . S
C506 C505 1.362 . S
C506 C509 1.409 . S
C507 H499 0.930 . S
C507 C508 1.355 . S
C507 C509 1.415 . S
C508 C507 1.355 . S
C508 C510 1.419 . S
C509 C504 1.425 . S
C509 C506 1.409 . S
C509 C507 1.415 . S
C510 H500 0.930 1_556 S
C510 C508 1.419 . S
C510 C511 1.362 . S
C511 H501 0.930 . S
C511 C504 1.409 . S
C511 C510 1.362 . S
H512 C518 0.930 . S
H513 C521 0.930 . S
H514 C522 0.930 . S
H515 C523 0.930 . S
H516 C526 0.930 . S
H517 C527 0.930 . S
C518 H512 0.930 . S
C518 C519 1.355 . S
C518 C520 1.415 . S
C519 C518 1.355 . S
C519 C521 1.419 . S
C520 C518 1.415 . S
C520 C525 1.425 . S
C520 C527 1.409 . S
C521 H513 0.930 . S
C521 C519 1.419 . S
C521 C522 1.362 . S
C522 H514 0.930 . S
C522 C521 1.362 . S
C522 C525 1.409 . S
C523 H515 0.930 . S
C523 C524 1.355 . S
C523 C525 1.415 . S
C524 C523 1.355 . S
C524 C526 1.419 . S
C525 C520 1.425 . S
C525 C522 1.409 . S
C525 C523 1.415 . S
C526 H516 0.930 . S
C526 C524 1.419 . S
C526 C527 1.362 . S
C527 H517 0.930 . S
C527 C520 1.409 . S
C527 C526 1.362 . S
H528 C534 0.930 . S
H529 C537 0.930 . S
H530 C538 0.930 . S
H531 C539 0.930 . S
H532 C542 0.930 . S
H533 C543 0.930 . S
C534 H528 0.930 . S
C534 C535 1.355 . S
C534 C536 1.415 . S
C535 C534 1.355 . S
C535 C537 1.419 . S
C536 C534 1.415 . S
C536 C541 1.425 . S
C536 C543 1.409 . S
C537 H529 0.930 . S
C537 C535 1.419 . S
C537 C538 1.362 . S
C538 H530 0.930 . S
C538 C537 1.362 . S
C538 C541 1.409 . S
C539 H531 0.930 . S
C539 C540 1.355 . S
C539 C541 1.415 . S
C540 C539 1.355 . S
C540 C542 1.419 . S
C541 C536 1.425 . S
C541 C538 1.409 . S
C541 C539 1.415 . S
C542 H532 0.930 . S
C542 C540 1.419 . S
C542 C543 1.362 . S
C543 H533 0.930 . S
C543 C536 1.409 . S
C543 C542 1.362 . S
H544 C550 0.930 . S
H545 C553 0.930 . S
H546 C554 0.930 . S
H547 C555 0.930 . S
H548 C558 0.930 . S
H549 C559 0.930 . S
C550 H544 0.930 . S
C550 C551 1.355 . S
C550 C552 1.415 . S
C551 C550 1.355 . S
C551 C553 1.419 . S
C552 C550 1.415 . S
C552 C557 1.425 . S
C552 C559 1.409 . S
C553 H545 0.930 . S
C553 C551 1.419 . S
C553 C554 1.362 . S
C554 H546 0.930 . S
C554 C553 1.362 . S
C554 C557 1.409 . S
C555 H547 0.930 . S
C555 C556 1.355 . S
C555 C557 1.415 . S
C556 C555 1.355 . S
C556 C558 1.419 . S
C557 C552 1.425 . S
C557 C554 1.409 . S
C557 C555 1.415 . S
C558 H548 0.930 . S
C558 C556 1.419 . S
C558 C559 1.362 . S
C559 H549 0.930 . S
C559 C552 1.409 . S
C559 C558 1.362 . S
H560 C566 0.930 . S
H561 C569 0.930 . S
H562 C570 0.930 . S
H563 C571 0.930 . S
H564 C574 0.930 . S
H565 C575 0.930 . S
C566 H560 0.930 . S
C566 C567 1.355 . S
C566 C568 1.415 . S
C567 C566 1.355 . S
C567 C569 1.419 . S
C568 C566 1.415 . S
C568 C573 1.425 . S
C568 C575 1.409 . S
C569 H561 0.930 . S
C569 C567 1.419 . S
C569 C570 1.362 . S
C570 H562 0.930 . S
C570 C569 1.362 . S
C570 C573 1.409 . S
C571 H563 0.930 . S
C571 C572 1.355 . S
C571 C573 1.415 . S
C572 C571 1.355 . S
C572 C574 1.419 . S
C573 C568 1.425 . S
C573 C570 1.409 . S
C573 C571 1.415 . S
C574 H564 0.930 . S
C574 C572 1.419 . S
C574 C575 1.362 . S
C575 H565 0.930 . S
C575 C568 1.409 . S
C575 C574 1.362 . S
H576 C582 0.930 . S
H577 C585 0.930 . S
H578 C586 0.930 . S
H579 C587 0.930 1_556 S
H580 C590 0.930 . S
H581 C591 0.930 . S
C582 H576 0.930 . S
C582 C583 1.355 . S
C582 C584 1.415 . S
C583 C582 1.355 . S
C583 C585 1.419 1_554 S
C584 C582 1.415 . S
C584 C589 1.425 . S
C584 C591 1.409 . S
C585 H577 0.930 . S
C585 C583 1.419 1_556 S
C585 C586 1.362 . S
C586 H578 0.930 . S
C586 C585 1.362 . S
C586 C589 1.409 1_556 S
C587 H579 0.930 1_554 S
C587 C588 1.355 . S
C587 C589 1.415 . S
C588 C587 1.355 . S
C588 C590 1.419 . S
C589 C584 1.425 . S
C589 C586 1.409 1_554 S
C589 C587 1.415 . S
C590 H580 0.930 . S
C590 C588 1.419 . S
C590 C591 1.362 . S
C591 H581 0.930 . S
C591 C584 1.409 . S
C591 C590 1.362 . S
H592 C598 0.930 . S
H593 C601 0.930 1_455 S
H594 C602 0.930 . S
H595 C603 0.899 1_565 S
H596 C606 0.930 . S
H597 C607 0.930 . S
C598 H592 0.930 . S
C598 C599 1.355 . S
C598 C600 1.415 . S
C599 C598 1.355 . S
C599 C601 1.419 . S
C600 C598 1.415 . S
C600 C605 1.425 . S
C600 C607 1.409 . S
C601 H593 0.930 1_655 S
C601 C599 1.419 . S
C601 C602 1.362 . S
C602 H594 0.930 . S
C602 C601 1.362 . S
C602 C605 1.409 . S
C603 H595 0.899 1_545 S
C603 C604 1.361 1_545 S
C603 C605 1.439 . S
C604 C603 1.361 1_565 S
C604 C606 1.419 1_565 S
C605 C600 1.425 . S
C605 C602 1.409 . S
C605 C603 1.439 . S
C606 H596 0.930 . S
C606 C604 1.419 1_545 S
C606 C607 1.362 . S
C607 H597 0.930 . S
C607 C600 1.409 . S
C607 C606 1.362 . S
H608 C614 0.930 1_556 S
H609 C617 0.930 . S
H610 C618 0.930 . S
H611 C619 0.930 1_455 S
H612 C622 0.930 1_456 S
H613 C623 0.930 . S
C614 H608 0.930 1_554 S
C614 C615 1.355 . S
C614 C616 1.415 . S
C615 C614 1.355 . S
C615 C617 1.419 . S
C616 C614 1.415 . S
C616 C621 1.425 . S
C616 C623 1.409 1_554 S
C617 H609 0.930 . S
C617 C615 1.419 . S
C617 C618 1.362 . S
C618 H610 0.930 . S
C618 C617 1.362 . S
C618 C621 1.409 . S
C619 H611 0.930 1_655 S
C619 C620 1.355 1_655 S
C619 C621 1.415 . S
C620 C619 1.355 1_455 S
C620 C622 1.419 1_455 S
C621 C616 1.425 . S
C621 C618 1.409 . S
C621 C619 1.415 . S
C622 H612 0.930 1_654 S
C622 C620 1.419 1_655 S
C622 C623 1.362 1_554 S
C623 H613 0.930 . S
C623 C616 1.409 1_556 S
C623 C622 1.362 1_556 S
H624 C630 0.930 . S
H625 C633 0.930 . S
H626 C634 0.930 . S
H627 C635 0.930 . S
H628 C638 0.930 . S
H629 C639 0.930 . S
C630 H624 0.930 . S
C630 C631 1.355 . S
C630 C632 1.415 . S
C631 C630 1.355 . S
C631 C633 1.419 . S
C632 C630 1.415 . S
C632 C637 1.425 . S
C632 C639 1.409 . S
C633 H625 0.930 . S
C633 C631 1.419 . S
C633 C634 1.362 . S
C634 H626 0.930 . S
C634 C633 1.362 . S
C634 C637 1.409 . S
C635 H627 0.930 . S
C635 C636 1.355 . S
C635 C637 1.415 . S
C636 C635 1.355 . S
C636 C638 1.419 . S
C637 C632 1.425 . S
C637 C634 1.409 . S
C637 C635 1.415 . S
C638 H628 0.930 . S
C638 C636 1.419 . S
C638 C639 1.362 . S
C639 H629 0.930 . S
C639 C632 1.409 . S
C639 C638 1.362 . S
H640 C646 0.930 . S
H641 C649 0.930 . S
H642 C650 0.930 . S
H643 C651 0.930 . S
H644 C654 0.930 . S
H645 C655 0.930 . S
C646 H640 0.930 . S
C646 C647 1.355 . S
C646 C648 1.415 . S
C647 C646 1.355 . S
C647 C649 1.419 . S
C648 C646 1.415 . S
C648 C653 1.425 . S
C648 C655 1.409 . S
C649 H641 0.930 . S
C649 C647 1.419 . S
C649 C650 1.362 . S
C650 H642 0.930 . S
C650 C649 1.362 . S
C650 C653 1.409 . S
C651 H643 0.930 . S
C651 C652 1.355 . S
C651 C653 1.415 . S
C652 C651 1.355 . S
C652 C654 1.419 . S
C653 C648 1.425 . S
C653 C650 1.409 . S
C653 C651 1.415 . S
C654 H644 0.930 . S
C654 C652 1.419 . S
C654 C655 1.362 . S
C655 H645 0.930 . S
C655 C648 1.409 . S
C655 C654 1.362 . S
H656 C662 0.930 . S
H657 C665 0.930 . S
H658 C666 0.930 . S
H659 C667 0.930 . S
H660 C670 0.930 . S
H661 C671 0.930 . S
C662 H656 0.930 . S
C662 C663 1.355 . S
C662 C664 1.415 . S
C663 C662 1.355 . S
C663 C665 1.419 . S
C664 C662 1.415 . S
C664 C669 1.425 . S
C664 C671 1.409 . S
C665 H657 0.930 . S
C665 C663 1.419 . S
C665 C666 1.362 . S
C666 H658 0.930 . S
C666 C665 1.362 . S
C666 C669 1.409 . S
C667 H659 0.930 . S
C667 C668 1.355 . S
C667 C669 1.415 . S
C668 C667 1.355 . S
C668 C670 1.419 . S
C669 C664 1.425 . S
C669 C666 1.409 . S
C669 C667 1.415 . S
C670 H660 0.930 . S
C670 C668 1.419 . S
C670 C671 1.362 . S
C671 H661 0.930 . S
C671 C664 1.409 . S
C671 C670 1.362 . S
H672 C678 0.930 . S
H673 C681 0.930 . S
H674 C682 0.930 . S
H675 C683 0.930 . S
H676 C686 0.930 . S
H677 C687 0.930 . S
C678 H672 0.930 . S
C678 C679 1.355 . S
C678 C680 1.415 . S
C679 C678 1.355 . S
C679 C681 1.419 . S
C680 C678 1.415 . S
C680 C685 1.425 . S
C680 C687 1.409 . S
C681 H673 0.930 . S
C681 C679 1.419 . S
C681 C682 1.362 . S
C682 H674 0.930 . S
C682 C681 1.362 . S
C682 C685 1.409 . S
C683 H675 0.930 . S
C683 C684 1.355 . S
C683 C685 1.415 . S
C684 C683 1.355 . S
C684 C686 1.419 . S
C685 C680 1.425 . S
C685 C682 1.409 . S
C685 C683 1.415 . S
C686 H676 0.930 . S
C686 C684 1.419 . S
C686 C687 1.362 . S
C687 H677 0.930 . S
C687 C680 1.409 . S
C687 C686 1.362 . S
H688 C694 0.930 . S
H689 C697 0.930 . S
H690 C698 0.930 . S
H691 C699 0.930 . S
H692 C702 0.930 . S
H693 C703 0.930 . S
C694 H688 0.930 . S
C694 C695 1.355 . S
C694 C696 1.415 . S
C695 C694 1.355 . S
C695 C697 1.419 . S
C696 C694 1.415 . S
C696 C701 1.425 . S
C696 C703 1.409 . S
C697 H689 0.930 . S
C697 C695 1.419 . S
C697 C698 1.362 . S
C698 H690 0.930 . S
C698 C697 1.362 . S
C698 C701 1.409 . S
C699 H691 0.930 . S
C699 C700 1.355 . S
C699 C701 1.415 . S
C700 C699 1.355 . S
C700 C702 1.419 . S
C701 C696 1.425 . S
C701 C698 1.409 . S
C701 C699 1.415 . S
C702 H692 0.930 . S
C702 C700 1.419 . S
C702 C703 1.362 . S
C703 H693 0.930 . S
C703 C696 1.409 . S
C703 C702 1.362 . S
H704 C710 0.930 . S
H705 C713 0.930 . S
H706 C714 0.930 . S
H707 C715 0.930 . S
H708 C718 0.930 . S
H709 C719 0.930 . S
C710 H704 0.930 . S
C710 C711 1.355 . S
C710 C712 1.415 . S
C711 C710 1.355 . S
C711 C713 1.419 . S
C712 C710 1.415 . S
C712 C717 1.425 . S
C712 C719 1.409 . S
C713 H705 0.930 . S
C713 C711 1.419 . S
C713 C714 1.362 . S
C714 H706 0.930 . S
C714 C713 1.362 . S
C714 C717 1.409 . S
C715 H707 0.930 . S
C715 C716 1.355 . S
C715 C717 1.415 . S
C716 C715 1.355 . S
C716 C718 1.419 . S
C717 C712 1.425 . S
C717 C714 1.409 . S
C717 C715 1.415 . S
C718 H708 0.930 . S
C718 C716 1.419 . S
C718 C719 1.362 . S
C719 H709 0.930 . S
C719 C712 1.409 . S
C719 C718 1.362 . S
H720 C726 0.930 . S
H721 C729 0.930 . S
H722 C730 0.930 . S
H723 C731 0.930 . S
H724 C734 0.930 . S
H725 C735 0.930 . S
C726 H720 0.930 . S
C726 C727 1.355 . S
C726 C728 1.415 . S
C727 C726 1.355 . S
C727 C729 1.419 . S
C728 C726 1.415 . S
C728 C733 1.425 . S
C728 C735 1.409 . S
C729 H721 0.930 . S
C729 C727 1.419 . S
C729 C730 1.362 . S
C730 H722 0.930 . S
C730 C729 1.362 . S
C730 C733 1.409 . S
C731 H723 0.930 . S
C731 C732 1.355 . S
C731 C733 1.415 . S
C732 C731 1.355 . S
C732 C734 1.419 . S
C733 C728 1.425 . S
C733 C730 1.409 . S
C733 C731 1.415 . S
C734 H724 0.930 . S
C734 C732 1.419 . S
C734 C735 1.362 . S
C735 H725 0.930 . S
C735 C728 1.409 . S
C735 C734 1.362 . S
H736 C742 0.930 . S
H737 C745 0.930 . S
H738 C746 0.930 . S
H739 C747 0.930 . S
H740 C750 0.930 . S
H741 C751 0.930 . S
C742 H736 0.930 . S
C742 C743 1.355 . S
C742 C744 1.415 . S
C743 C742 1.355 . S
C743 C745 1.419 . S
C744 C742 1.415 . S
C744 C749 1.425 . S
C744 C751 1.409 . S
C745 H737 0.930 . S
C745 C743 1.419 . S
C745 C746 1.362 . S
C746 H738 0.930 . S
C746 C745 1.362 . S
C746 C749 1.409 . S
C747 H739 0.930 . S
C747 C748 1.355 . S
C747 C749 1.415 . S
C748 C747 1.355 . S
C748 C750 1.419 . S
C749 C744 1.425 . S
C749 C746 1.409 . S
C749 C747 1.415 . S
C750 H740 0.930 . S
C750 C748 1.419 . S
C750 C751 1.362 . S
C751 H741 0.930 . S
C751 C744 1.409 . S
C751 C750 1.362 . S
H752 C758 0.930 . S
H753 C761 0.930 . S
H754 C762 0.930 . S
H755 C763 0.930 . S
H756 C766 0.930 . S
H757 C767 0.930 . S
C758 H752 0.930 . S
C758 C759 1.355 . S
C758 C760 1.415 . S
C759 C758 1.355 . S
C759 C761 1.419 . S
C760 C758 1.415 . S
C760 C765 1.425 . S
C760 C767 1.409 . S
C761 H753 0.930 . S
C761 C759 1.419 . S
C761 C762 1.362 . S
C762 H754 0.930 . S
C762 C761 1.362 . S
C762 C765 1.409 . S
C763 H755 0.930 . S
C763 C764 1.355 . S
C763 C765 1.415 . S
C764 C763 1.355 . S
C764 C766 1.419 . S
C765 C760 1.425 . S
C765 C762 1.409 . S
C765 C763 1.415 . S
C766 H756 0.930 . S
C766 C764 1.419 . S
C766 C767 1.362 . S
C767 H757 0.930 . S
C767 C760 1.409 . S
C767 C766 1.362 . S
H768 C774 0.930 . S
H769 C777 0.930 . S
H770 C778 0.930 . S
H771 C779 0.930 . S
H772 C782 0.930 1_554 S
H773 C783 0.930 . S
C774 H768 0.930 . S
C774 C775 1.355 . S
C774 C776 1.415 . S
C775 C774 1.355 . S
C775 C777 1.419 . S
C776 C774 1.415 . S
C776 C781 1.425 . S
C776 C783 1.409 . S
C777 H769 0.930 . S
C777 C775 1.419 . S
C777 C778 1.362 . S
C778 H770 0.930 . S
C778 C777 1.362 . S
C778 C781 1.409 . S
C779 H771 0.930 . S
C779 C780 1.355 1_556 S
C779 C781 1.415 . S
C780 C779 1.355 1_554 S
C780 C782 1.419 1_554 S
C781 C776 1.425 . S
C781 C778 1.409 . S
C781 C779 1.415 . S
C782 H772 0.930 1_556 S
C782 C780 1.419 1_556 S
C782 C783 1.362 . S
C783 H773 0.930 . S
C783 C776 1.409 . S
C783 C782 1.362 . S
H784 C790 0.930 1_554 S
H785 C793 0.930 . S
H786 C794 0.930 . S
H787 C795 0.930 . S
H788 C798 0.930 . S
H789 C799 0.930 . S
C790 H784 0.930 1_556 S
C790 C791 1.355 1_556 S
C790 C792 1.415 . S
C791 C790 1.355 1_554 S
C791 C793 1.419 1_554 S
C792 C790 1.415 . S
C792 C797 1.425 . S
C792 C799 1.409 . S
C793 H785 0.930 . S
C793 C791 1.419 1_556 S
C793 C794 1.362 . S
C794 H786 0.930 . S
C794 C793 1.362 . S
C794 C797 1.409 . S
C795 H787 0.930 . S
C795 C796 1.355 . S
C795 C797 1.415 . S
C796 C795 1.355 . S
C796 C798 1.419 . S
C797 C792 1.425 . S
C797 C794 1.409 . S
C797 C795 1.415 . S
C798 H788 0.930 . S
C798 C796 1.419 . S
C798 C799 1.362 . S
C799 H789 0.930 . S
C799 C792 1.409 . S
C799 C798 1.362 . S
H800 C806 0.930 . S
H801 C809 0.930 . S
H802 C810 0.930 . S
H803 C811 0.930 1_554 S
H804 C814 0.930 . S
H805 C815 0.930 . S
C806 H800 0.930 . S
C806 C807 1.355 . S
C806 C808 1.415 . S
C807 C806 1.355 . S
C807 C809 1.419 . S
C808 C806 1.415 . S
C808 C813 1.425 . S
C808 C815 1.409 . S
C809 H801 0.930 . S
C809 C807 1.419 . S
C809 C810 1.362 . S
C810 H802 0.930 . S
C810 C809 1.362 . S
C810 C813 1.409 . S
C811 H803 0.930 1_556 S
C811 C812 1.355 1_556 S
C811 C813 1.415 . S
C812 C811 1.355 1_554 S
C812 C814 1.419 1_554 S
C813 C808 1.425 . S
C813 C810 1.409 . S
C813 C811 1.415 . S
C814 H804 0.930 . S
C814 C812 1.419 1_556 S
C814 C815 1.362 . S
C815 H805 0.930 . S
C815 C808 1.409 . S
C815 C814 1.362 . S
H816 C822 0.930 . S
H817 C825 0.930 . S
H818 C826 0.930 . S
H819 C827 0.930 . S
H820 C830 0.930 . S
H821 C831 0.930 . S
C822 H816 0.930 . S
C822 C823 1.355 . S
C822 C824 1.415 . S
C823 C822 1.355 . S
C823 C825 1.419 . S
C824 C822 1.415 . S
C824 C829 1.425 . S
C824 C831 1.409 . S
C825 H817 0.930 . S
C825 C823 1.419 . S
C825 C826 1.362 . S
C826 H818 0.930 . S
C826 C825 1.362 . S
C826 C829 1.409 . S
C827 H819 0.930 . S
C827 C828 1.355 1_554 S
C827 C829 1.415 . S
C828 C827 1.355 1_556 S
C828 C830 1.419 1_556 S
C829 C824 1.425 . S
C829 C826 1.409 . S
C829 C827 1.415 . S
C830 H820 0.930 . S
C830 C828 1.419 1_554 S
C830 C831 1.362 . S
C831 H821 0.930 . S
C831 C824 1.409 . S
C831 C830 1.362 . S
H832 C838 0.930 . S
H833 C841 0.930 . S
H834 C842 0.930 . S
H835 C843 0.930 . S
H836 C846 0.930 1_556 S
H837 C847 0.930 . S
C838 H832 0.930 . S
C838 C839 1.355 . S
C838 C840 1.415 . S
C839 C838 1.355 . S
C839 C841 1.419 . S
C840 C838 1.415 . S
C840 C845 1.425 . S
C840 C847 1.409 . S
C841 H833 0.930 . S
C841 C839 1.419 . S
C841 C842 1.362 . S
C842 H834 0.930 . S
C842 C841 1.362 . S
C842 C845 1.409 . S
C843 H835 0.930 . S
C843 C844 1.355 1_554 S
C843 C845 1.415 . S
C844 C843 1.355 1_556 S
C844 C846 1.419 1_556 S
C845 C840 1.425 . S
C845 C842 1.409 . S
C845 C843 1.415 . S
C846 H836 0.930 1_554 S
C846 C844 1.419 1_554 S
C846 C847 1.362 . S
C847 H837 0.930 . S
C847 C840 1.409 . S
C847 C846 1.362 . S
H848 C854 0.930 . S
H849 C857 0.930 . S
H850 C858 0.930 . S
H851 C859 0.930 . S
H852 C862 0.930 1_556 S
H853 C863 0.930 . S
C854 H848 0.930 . S
C854 C855 1.355 . S
C854 C856 1.415 . S
C855 C854 1.355 . S
C855 C857 1.419 . S
C856 C854 1.415 . S
C856 C861 1.425 . S
C856 C863 1.409 . S
C857 H849 0.930 . S
C857 C855 1.419 . S
C857 C858 1.362 . S
C858 H850 0.930 . S
C858 C857 1.362 . S
C858 C861 1.409 . S
C859 H851 0.930 . S
C859 C860 1.355 1_554 S
C859 C861 1.415 . S
C860 C859 1.355 1_556 S
C860 C862 1.419 1_556 S
C861 C856 1.425 . S
C861 C858 1.409 . S
C861 C859 1.415 . S
C862 H852 0.930 1_554 S
C862 C860 1.419 1_554 S
C862 C863 1.362 . S
C863 H853 0.930 . S
C863 C856 1.409 . S
C863 C862 1.362 . S
C295 C17 1.645 1_554 S
C300 C150 1.604 . S
C311 C182 1.578 . S
C316 C49 1.629 1_554 S
C327 C81 1.600 1_554 S
C332 C118 1.558 . S
C343 C53 2.267 . S
C348 C112 2.308 . S
C359 C85 2.258 1_545 S
C364 C144 2.301 . S
C375 C21 2.227 1_655 S
C380 C176 2.297 . S
C391 C113 1.590 . S
C396 C246 1.579 1_655 S
C407 C278 1.605 . S
C412 C145 1.604 . S
C423 C214 1.609 1_545 S
C428 C177 1.647 . S
C439 C149 2.233 . S
C444 C208 2.301 1_545 S
C455 C240 2.298 1_655 S
C460 C181 2.248 . S
C471 C272 2.297 . S
C476 C117 2.227 . S
C487 C209 1.589 . S
C492 C54 1.574 . S
C503 C241 1.648 . S
C508 C86 1.627 . S
C519 C22 1.600 . S
C524 C273 1.643 . S
C535 C16 2.296 . S
C540 C245 2.227 . S
C551 C48 2.304 . S
C556 C277 2.242 . S
C567 C213 2.229 . S
C572 C80 2.296 . S
C583 C82 1.440 1_545 S
C588 C20 1.480 . S
C599 C18 1.413 1_655 S
C604 C52 1.455 . S
C615 C50 1.436 . S
C620 C84 1.433 . S
C631 C178 1.473 . S
C636 C116 1.458 . S
C647 C114 1.415 . S
C652 C148 1.443 . S
C663 C146 1.468 . S
C668 C180 1.477 . S
C679 C212 1.461 . S
C684 C274 1.415 . S
C695 C244 1.446 . S
C700 C210 1.466 . S
C711 C276 1.454 . S
C716 C242 1.471 . S
C727 C19 1.226 . S
C732 C23 1.226 . S
C743 C55 1.207 . S
C748 C51 1.207 . S
C759 C83 1.229 . S
C764 C87 1.229 . S
C775 C119 1.214 . S
C780 C115 1.214 . S
C791 C147 1.198 . S
C796 C151 1.198 . S
C807 C183 1.206 . S
C812 C179 1.206 . S
C823 C211 1.194 . S
C828 C215 1.194 . S
C839 C243 1.212 . S
C844 C247 1.212 . S
C855 C275 1.180 . S
C860 C279 1.180 . S
