# Generated by pormake.
# Topology sni, (6)-cn, num edge types: 1
# Building blocks:
#     Node 0, Type 0, BuildingBlock: MIDCAF_clean_sbu_0, # of connection points: 6
#     Node 1, Type 0, BuildingBlock: MIDCAF_clean_sbu_0, # of connection points: 6
#     Node 2, Type 0, BuildingBlock: MIDCAF_clean_sbu_0, # of connection points: 6
#     Node 3, Type 0, BuildingBlock: MIDCAF_clean_sbu_0, # of connection points: 6
#     Node 4, Type 0, BuildingBlock: MIDCAF_clean_sbu_0, # of connection points: 6
#     Node 5, Type 0, BuildingBlock: MIDCAF_clean_sbu_0, # of connection points: 6
#     Node 6, Type 0, BuildingBlock: MIDCAF_clean_sbu_0, # of connection points: 6
#     Node 7, Type 0, BuildingBlock: MIDCAF_clean_sbu_0, # of connection points: 6
#     Edge 8, Type (0, 0), BuildingBlock: TEMPAE_clean_linker_10, # of connection points: 2
#     Edge 9, Type (0, 0), BuildingBlock: TEMPAE_clean_linker_10, # of connection points: 2
#     Edge 10, Type (0, 0), BuildingBlock: TEMPAE_clean_linker_10, # of connection points: 2
#     Edge 11, Type (0, 0), BuildingBlock: TEMPAE_clean_linker_10, # of connection points: 2
#     Edge 12, Type (0, 0), BuildingBlock: TEMPAE_clean_linker_10, # of connection points: 2
#     Edge 13, Type (0, 0), BuildingBlock: TEMPAE_clean_linker_10, # of connection points: 2
#     Edge 14, Type (0, 0), BuildingBlock: TEMPAE_clean_linker_10, # of connection points: 2
#     Edge 15, Type (0, 0), BuildingBlock: TEMPAE_clean_linker_10, # of connection points: 2
#     Edge 16, Type (0, 0), BuildingBlock: TEMPAE_clean_linker_10, # of connection points: 2
#     Edge 17, Type (0, 0), BuildingBlock: TEMPAE_clean_linker_10, # of connection points: 2
#     Edge 18, Type (0, 0), BuildingBlock: TEMPAE_clean_linker_10, # of connection points: 2
#     Edge 19, Type (0, 0), BuildingBlock: TEMPAE_clean_linker_10, # of connection points: 2
#     Edge 20, Type (0, 0), BuildingBlock: TEMPAE_clean_linker_10, # of connection points: 2
#     Edge 21, Type (0, 0), BuildingBlock: TEMPAE_clean_linker_10, # of connection points: 2
#     Edge 22, Type (0, 0), BuildingBlock: TEMPAE_clean_linker_10, # of connection points: 2
#     Edge 23, Type (0, 0), BuildingBlock: TEMPAE_clean_linker_10, # of connection points: 2
#     Edge 24, Type (0, 0), BuildingBlock: TEMPAE_clean_linker_10, # of connection points: 2
#     Edge 25, Type (0, 0), BuildingBlock: TEMPAE_clean_linker_10, # of connection points: 2
#     Edge 26, Type (0, 0), BuildingBlock: TEMPAE_clean_linker_10, # of connection points: 2
#     Edge 27, Type (0, 0), BuildingBlock: TEMPAE_clean_linker_10, # of connection points: 2
#     Edge 28, Type (0, 0), BuildingBlock: TEMPAE_clean_linker_10, # of connection points: 2
#     Edge 29, Type (0, 0), BuildingBlock: TEMPAE_clean_linker_10, # of connection points: 2
#     Edge 30, Type (0, 0), BuildingBlock: TEMPAE_clean_linker_10, # of connection points: 2
#     Edge 31, Type (0, 0), BuildingBlock: TEMPAE_clean_linker_10, # of connection points: 2
# Relax obj value: 0.344
# Max RMSD: 0.256
# Mean RMSD: 0.256
data_MOF--net-sni--node1-MIDCAF_clean_sbu_0--edge1-TEMPAE_clean_linker_10
_symmetry_space_group_name_H-M    P1
_symmetry_Int_Tables_number       1
_symmetry_cell_setting            triclinic
loop_
_symmetry_equiv_pos_as_xyz
'x, y, z'
_cell_length_a     41.774298
_cell_length_b     41.688598
_cell_length_c     17.635804
_cell_angle_alpha  89.977768
_cell_angle_beta   90.067511
_cell_angle_gamma 90.042374
loop_
_atom_site_label
_atom_site_type_symbol
_atom_site_fract_x
_atom_site_fract_y
_atom_site_fract_z
_atom_type_partial_charge
Zn0 Zn 0.55829 0.12313 0.81348 0.0
Zn1 Zn 0.66074 0.09828 0.11333 0.0
Zn2 Zn 0.62309 0.10859 0.01717 0.0
C3 C 0.64579 0.03797 0.06989 0.0
C4 C 0.60775 0.12923 0.18028 0.0
O5 O 0.6432 0.14219 0.93237 0.0
O6 O 0.60458 0.13957 0.84625 0.0
C7 C 0.6049 0.07143 0.88797 0.0
O8 O 0.63217 0.05537 0.01872 0.0
O9 O 0.66038 0.05151 0.12369 0.0
O10 O 0.63695 0.1233 0.19298 0.0
O11 O 0.59561 0.12271 0.11507 0.0
O12 O 0.58959 0.0978 0.88516 0.0
O13 O 0.62114 0.06619 0.94814 0.0
O14 O 0.5751 0.12352 0.05061 0.0
O15 O 0.57289 0.12357 0.92772 0.0
C16 C 0.55877 0.12836 0.99065 0.0
O17 O 0.66081 0.14496 0.01038 0.0
O18 O 0.69897 0.1188 0.06899 0.0
C19 C 0.63235 0.14941 0.86603 0.0
C20 C 0.68932 0.14422 0.03771 0.0
Zn21 Zn 0.85305 0.62301 0.77668 0.0
Zn22 Zn 0.87869 0.67106 0.15412 0.0
Zn23 Zn 0.86885 0.65018 0.03012 0.0
C24 C 0.93913 0.66396 0.09585 0.0
C25 C 0.8469 0.61072 0.16825 0.0
O26 O 0.83269 0.68012 0.97335 0.0
O27 O 0.84569 0.64988 0.87797 0.0
C28 C 0.90822 0.64864 0.89176 0.0
O29 O 0.92192 0.65759 0.03704 0.0
O30 O 0.92573 0.66944 0.15856 0.0
O31 O 0.85374 0.63604 0.20437 0.0
O32 O 0.85284 0.60903 0.09684 0.0
O33 O 0.88047 0.6384 0.87256 0.0
O34 O 0.91247 0.65425 0.96238 0.0
O35 O 0.85061 0.6003 0.01499 0.0
O36 O 0.85454 0.61605 0.89748 0.0
C37 C 0.84696 0.59394 0.94435 0.0
O38 O 0.83836 0.69423 0.04323 0.0
O39 O 0.85994 0.71443 0.14694 0.0
C40 C 0.82749 0.67172 0.90467 0.0
C41 C 0.84095 0.71721 0.0918 0.0
Zn42 Zn 0.35025 0.82755 0.15365 0.0
Zn43 Zn 0.33044 0.85109 0.92605 0.0
Zn44 Zn 0.36082 0.85224 0.03763 0.0
C45 C 0.39578 0.8517 0.8883 0.0
C46 C 0.34723 0.91184 0.93857 0.0
O47 O 0.3106 0.86457 0.07647 0.0
O48 O 0.3043 0.81903 0.13708 0.0
C49 C 0.40587 0.80617 0.12707 0.0
O50 O 0.39307 0.86788 0.94972 0.0
O51 O 0.37143 0.8364 0.86508 0.0
O52 O 0.32026 0.8987 0.92888 0.0
O53 O 0.36981 0.89529 0.96869 0.0
O54 O 0.38078 0.79151 0.14627 0.0
O55 O 0.40325 0.83382 0.09625 0.0
O56 O 0.33878 0.88883 0.10396 0.0
O57 O 0.36303 0.87115 0.20519 0.0
C58 C 0.35061 0.89445 0.16943 0.0
O59 O 0.34429 0.80414 0.00427 0.0
O60 O 0.29862 0.81726 0.95192 0.0
C61 C 0.29209 0.84388 0.10829 0.0
C62 C 0.31716 0.7958 0.97709 0.0
Zn63 Zn 0.13153 0.35557 0.12036 0.0
Zn64 Zn 0.1411 0.37441 0.8721 0.0
Zn65 Zn 0.13648 0.36445 0.99637 0.0
C66 C 0.13342 0.43353 0.92116 0.0
C67 C 0.09028 0.33718 0.87017 0.0
O68 O 0.17053 0.32485 0.03019 0.0
O69 O 0.14121 0.30919 0.12651 0.0
C70 C 0.16241 0.41078 0.12115 0.0
O71 O 0.14384 0.41768 0.97906 0.0
O72 O 0.12345 0.41823 0.86422 0.0
O73 O 0.11463 0.3396 0.82835 0.0
O74 O 0.09153 0.34859 0.93811 0.0
O75 O 0.16396 0.38555 0.1604 0.0
O76 O 0.14853 0.40975 0.05589 0.0
O77 O 0.08644 0.3483 0.0193 0.0
O78 O 0.08643 0.3675 0.13534 0.0
C79 C 0.07127 0.35555 0.08046 0.0
O80 O 0.17881 0.33725 0.9583 0.0
O81 O 0.18822 0.37072 0.86487 0.0
C82 C 0.16428 0.30399 0.08227 0.0
C83 C 0.19758 0.3479 0.90618 0.0
Zn84 Zn 0.67069 0.8561 0.56746 0.0
Zn85 Zn 0.66419 0.78211 0.36995 0.0
Zn86 Zn 0.64077 0.83467 0.46182 0.0
C87 C 0.63066 0.82767 0.28386 0.0
C88 C 0.60117 0.77643 0.41233 0.0
O89 O 0.66116 0.79655 0.53466 0.0
O90 O 0.70394 0.82326 0.572 0.0
C91 C 0.64768 0.90717 0.50487 0.0
O92 O 0.619 0.83234 0.35019 0.0
O93 O 0.65361 0.80816 0.27544 0.0
O94 O 0.62566 0.75852 0.41624 0.0
O95 O 0.60459 0.8069 0.41232 0.0
O96 O 0.67644 0.90028 0.52046 0.0
O97 O 0.62823 0.884 0.49186 0.0
O98 O 0.60743 0.85887 0.53671 0.0
O99 O 0.63268 0.84846 0.64211 0.0
C100 C 0.60656 0.85434 0.60852 0.0
O101 O 0.68431 0.84757 0.40452 0.0
O102 O 0.7044 0.79928 0.41857 0.0
C103 C 0.68858 0.79718 0.56756 0.0
C104 C 0.70818 0.82847 0.4002 0.0
Zn105 Zn 0.20119 0.67021 0.41362 0.0
Zn106 Zn 0.14821 0.70342 0.60641 0.0
Zn107 Zn 0.1587 0.66719 0.50212 0.0
C108 C 0.15855 0.64257 0.66822 0.0
C109 C 0.09322 0.69506 0.5528 0.0
O110 O 0.16918 0.71647 0.45997 0.0
O111 O 0.22093 0.71152 0.4423 0.0
C112 C 0.19467 0.60878 0.42913 0.0
O113 O 0.17328 0.64136 0.60437 0.0
O114 O 0.14148 0.66689 0.68275 0.0
O115 O 0.10714 0.72183 0.5626 0.0
O116 O 0.11023 0.67053 0.5375 0.0
O117 O 0.21961 0.62607 0.43143 0.0
O118 O 0.16747 0.62168 0.44415 0.0
O119 O 0.14232 0.64281 0.40045 0.0
O120 O 0.16941 0.67354 0.32318 0.0
C121 C 0.14564 0.65532 0.33434 0.0
O122 O 0.20124 0.66765 0.57424 0.0
O123 O 0.19431 0.71845 0.60471 0.0
C124 C 0.19635 0.72928 0.44444 0.0
C125 C 0.21227 0.69386 0.60226 0.0
Zn126 Zn 0.3811 0.18627 0.40031 0.0
Zn127 Zn 0.3169 0.14869 0.59467 0.0
Zn128 Zn 0.36553 0.15902 0.51407 0.0
C129 C 0.37039 0.14592 0.68725 0.0
C130 C 0.34256 0.09155 0.57033 0.0
O131 O 0.32358 0.16279 0.43381 0.0
O132 O 0.33973 0.20759 0.37974 0.0
C133 C 0.43219 0.19227 0.47588 0.0
O134 O 0.38022 0.13838 0.62079 0.0
O135 O 0.3421 0.1563 0.69456 0.0
O136 O 0.31401 0.10143 0.56213 0.0
O137 O 0.36548 0.11186 0.56425 0.0
O138 O 0.41832 0.21272 0.43472 0.0
O139 O 0.41603 0.16852 0.5005 0.0
O140 O 0.34593 0.12942 0.42814 0.0
O141 O 0.3873 0.1396 0.3564 0.0
C142 C 0.36481 0.12066 0.37519 0.0
O143 O 0.34417 0.20136 0.55996 0.0
O144 O 0.29337 0.18774 0.5575 0.0
C145 C 0.31777 0.1875 0.39211 0.0
C146 C 0.31474 0.20894 0.56788 0.0
Zn147 Zn 0.8198 0.32867 0.64264 0.0
Zn148 Zn 0.82649 0.36208 0.3902 0.0
Zn149 Zn 0.82419 0.34418 0.50838 0.0
C150 C 0.88681 0.35202 0.40991 0.0
C151 C 0.79883 0.41118 0.44184 0.0
O152 O 0.78477 0.30691 0.51649 0.0
O153 O 0.78555 0.29764 0.64 0.0
C154 C 0.88235 0.31458 0.60461 0.0
O155 O 0.87243 0.33435 0.45934 0.0
O156 O 0.87196 0.37521 0.38045 0.0
O157 O 0.79306 0.39526 0.38287 0.0
O158 O 0.81339 0.39721 0.49742 0.0
O159 O 0.86303 0.31136 0.65894 0.0
O160 O 0.87258 0.32661 0.54146 0.0
O161 O 0.81535 0.38919 0.57569 0.0
O162 O 0.81 0.36991 0.69156 0.0
C163 C 0.8105 0.39362 0.64724 0.0
O164 O 0.79004 0.31381 0.43749 0.0
O165 O 0.81629 0.32392 0.33252 0.0
C166 C 0.77394 0.29208 0.57554 0.0
C167 C 0.79457 0.30856 0.36598 0.0
C168 C 0.4833 0.16289 0.49635 0.0
C169 C 0.4675 0.19147 0.47743 0.0
C170 C 0.51396 0.15663 0.46784 0.0
C171 C 0.52859 0.17956 0.41997 0.0
C172 C 0.51561 0.21079 0.41481 0.0
C173 C 0.48491 0.21643 0.44356 0.0
C174 C 0.52816 0.12368 0.4786 0.0
C175 C 0.53164 0.23658 0.36843 0.0
C176 C 0.60214 0.15498 0.30769 0.0
C177 C 0.58794 0.14331 0.24087 0.0
C178 C 0.58341 0.16765 0.36646 0.0
C179 C 0.54975 0.1681 0.35838 0.0
C180 C 0.53538 0.15677 0.29049 0.0
C181 C 0.55469 0.14466 0.23258 0.0
C182 C 0.59977 0.17963 0.43734 0.0
C183 C 0.49946 0.15695 0.27906 0.0
H184 H 0.47046 0.14392 0.5254 0.0
H185 H 0.47331 0.23916 0.43181 0.0
H186 H 0.52287 0.10881 0.42789 0.0
H187 H 0.55454 0.12507 0.4849 0.0
H188 H 0.51799 0.11145 0.52912 0.0
H189 H 0.52343 0.26085 0.38564 0.0
H190 H 0.55806 0.23532 0.37405 0.0
H191 H 0.5255 0.2331 0.30772 0.0
H192 H 0.62794 0.15417 0.31432 0.0
H193 H 0.54357 0.1357 0.18126 0.0
H194 H 0.60046 0.15998 0.47969 0.0
H195 H 0.5868 0.20013 0.46298 0.0
H196 H 0.62484 0.18705 0.42568 0.0
H197 H 0.48769 0.14229 0.32356 0.0
H198 H 0.49231 0.1473 0.22282 0.0
H199 H 0.49015 0.18178 0.2839 0.0
C200 C 0.83733 0.55174 0.18711 0.0
C201 C 0.8334 0.58345 0.21148 0.0
C202 C 0.82836 0.52596 0.23406 0.0
C203 C 0.81473 0.53217 0.30632 0.0
C204 C 0.80932 0.56415 0.32934 0.0
C205 C 0.81885 0.58934 0.2819 0.0
C206 C 0.83448 0.49209 0.20747 0.0
C207 C 0.7943 0.57181 0.40502 0.0
C208 C 0.77297 0.45985 0.39045 0.0
C209 C 0.79765 0.44632 0.43387 0.0
C210 C 0.77728 0.48918 0.35283 0.0
C211 C 0.80711 0.50512 0.35843 0.0
C212 C 0.83082 0.49326 0.4087 0.0
C213 C 0.8257 0.46397 0.44625 0.0
C214 C 0.75102 0.50143 0.3016 0.0
C215 C 0.86286 0.50968 0.41695 0.0
H216 H 0.84861 0.54707 0.13292 0.0
H217 H 0.8154 0.61385 0.30077 0.0
H218 H 0.85158 0.48012 0.24651 0.0
H219 H 0.81192 0.47803 0.20859 0.0
H220 H 0.84444 0.49129 0.14911 0.0
H221 H 0.78952 0.59786 0.41189 0.0
H222 H 0.77146 0.55854 0.41167 0.0
H223 H 0.81045 0.56397 0.45141 0.0
H224 H 0.75135 0.44605 0.38034 0.0
H225 H 0.84513 0.45324 0.47811 0.0
H226 H 0.7576 0.49683 0.24165 0.0
H227 H 0.74794 0.52771 0.30828 0.0
H228 H 0.72777 0.48944 0.31317 0.0
H229 H 0.87698 0.50612 0.36434 0.0
H230 H 0.87682 0.5 0.4655 0.0
H231 H 0.85977 0.53588 0.42493 0.0
C232 C 0.54256 0.7773 0.40505 0.0
C233 C 0.57143 0.76433 0.37943 0.0
C234 C 0.51551 0.77753 0.35832 0.0
C235 C 0.51784 0.76496 0.28396 0.0
C236 C 0.54604 0.74897 0.26074 0.0
C237 C 0.57262 0.74863 0.30934 0.0
C238 C 0.48554 0.7941 0.38588 0.0
C239 C 0.54943 0.7353 0.18201 0.0
C240 C 0.43826 0.76225 0.18375 0.0
C241 C 0.43702 0.79311 0.15181 0.0
C242 C 0.46548 0.75163 0.22251 0.0
C243 C 0.49214 0.77226 0.22879 0.0
C244 C 0.49224 0.80219 0.19051 0.0
C245 C 0.46452 0.81233 0.1524 0.0
C246 C 0.46459 0.7195 0.26205 0.0
C247 C 0.5207 0.82453 0.19471 0.0
H248 H 0.54195 0.78972 0.45907 0.0
H249 H 0.59524 0.73921 0.28905 0.0
H250 H 0.48268 0.8173 0.35573 0.0
H251 H 0.46408 0.77933 0.37336 0.0
H252 H 0.48634 0.79897 0.4478 0.0
H253 H 0.56956 0.71795 0.17858 0.0
H254 H 0.52709 0.72319 0.16359 0.0
H255 H 0.55424 0.75513 0.14161 0.0
H256 H 0.41726 0.74696 0.18224 0.0
H257 H 0.46383 0.83601 0.12705 0.0
H258 H 0.46122 0.72331 0.3238 0.0
H259 H 0.48749 0.70647 0.25437 0.0
H260 H 0.44469 0.70419 0.24101 0.0
H261 H 0.52271 0.83449 0.25288 0.0
H262 H 0.51862 0.84483 0.15418 0.0
H263 H 0.54319 0.81133 0.18272 0.0
C264 C 0.16112 0.47065 0.13288 0.0
C265 C 0.17384 0.44104 0.15514 0.0
C266 C 0.16814 0.49868 0.17383 0.0
C267 C 0.18744 0.49663 0.23981 0.0
C268 C 0.20147 0.46704 0.26037 0.0
C269 C 0.19476 0.4397 0.21731 0.0
C270 C 0.15351 0.53007 0.14891 0.0
C271 C 0.22188 0.46378 0.3307 0.0
C272 C 0.21912 0.57199 0.33421 0.0
C273 C 0.19539 0.57784 0.38874 0.0
C274 C 0.21678 0.54575 0.2848 0.0
C275 C 0.19051 0.52453 0.29144 0.0
C276 C 0.1672 0.52959 0.34846 0.0
C277 C 0.16977 0.5564 0.39598 0.0
C278 C 0.24169 0.54143 0.22368 0.0
C279 C 0.13919 0.50702 0.35829 0.0
H280 H 0.14431 0.47168 0.08621 0.0
H281 H 0.2048 0.41685 0.2346 0.0
H282 H 0.13413 0.53691 0.18871 0.0
H283 H 0.17166 0.54951 0.15004 0.0
H284 H 0.14325 0.52855 0.09085 0.0
H285 H 0.23302 0.43967 0.33539 0.0
H286 H 0.24111 0.48212 0.33108 0.0
H287 H 0.20686 0.46789 0.38164 0.0
H288 H 0.23868 0.58884 0.32741 0.0
H289 H 0.15132 0.56101 0.43779 0.0
H290 H 0.23017 0.54316 0.16709 0.0
H291 H 0.25262 0.51726 0.22774 0.0
H292 H 0.26101 0.5597 0.22717 0.0
H293 H 0.12414 0.50722 0.30643 0.0
H294 H 0.12397 0.5136 0.40748 0.0
H295 H 0.14791 0.48211 0.36635 0.0
C296 C 0.54841 0.86893 0.614 0.0
C297 C 0.57591 0.85714 0.65045 0.0
C298 C 0.51872 0.86989 0.65125 0.0
C299 C 0.51617 0.85778 0.72592 0.0
C300 C 0.54386 0.84606 0.7632 0.0
C301 C 0.57346 0.8462 0.72534 0.0
C302 C 0.48999 0.88348 0.61031 0.0
C303 C 0.54209 0.8326 0.84248 0.0
C304 C 0.44577 0.88058 0.85125 0.0
C305 C 0.42546 0.85397 0.8428 0.0
C306 C 0.4749 0.88256 0.8119 0.0
C307 C 0.48443 0.85688 0.7646 0.0
C308 C 0.46385 0.83009 0.75519 0.0
C309 C 0.4344 0.82914 0.79375 0.0
C310 C 0.49562 0.91201 0.82161 0.0
C311 C 0.47331 0.80204 0.70596 0.0
H312 H 0.54995 0.87722 0.5559 0.0
H313 H 0.5945 0.83681 0.75367 0.0
H314 H 0.47213 0.86424 0.60035 0.0
H315 H 0.47825 0.90209 0.64564 0.0
H316 H 0.49649 0.89429 0.55484 0.0
H317 H 0.56576 0.82427 0.86341 0.0
H318 H 0.53285 0.85108 0.882 0.0
H319 H 0.52511 0.81212 0.84378 0.0
H320 H 0.43881 0.90001 0.88861 0.0
H321 H 0.41884 0.80847 0.78748 0.0
H322 H 0.50187 0.92223 0.76543 0.0
H323 H 0.51839 0.90538 0.84999 0.0
H324 H 0.48367 0.93088 0.85584 0.0
H325 H 0.4778 0.81026 0.6471 0.0
H326 H 0.45466 0.78304 0.70461 0.0
H327 H 0.49595 0.79142 0.72733 0.0
C328 C 0.11288 0.48482 0.87009 0.0
C329 C 0.13575 0.46884 0.91433 0.0
C330 C 0.11826 0.51601 0.84341 0.0
C331 C 0.14719 0.5319 0.86202 0.0
C332 C 0.16905 0.51707 0.91269 0.0
C333 C 0.16327 0.48543 0.93753 0.0
C334 C 0.0941 0.53079 0.78999 0.0
C335 C 0.19958 0.5336 0.93641 0.0
C336 C 0.17391 0.58626 0.70175 0.0
C337 C 0.16065 0.61574 0.72339 0.0
C338 C 0.17158 0.55921 0.74896 0.0
C339 C 0.1559 0.56175 0.81999 0.0
C340 C 0.1447 0.59204 0.84461 0.0
C341 C 0.14696 0.61861 0.79578 0.0
C342 C 0.18391 0.52739 0.72036 0.0
C343 C 0.12859 0.5961 0.92054 0.0
H344 H 0.09154 0.47206 0.85216 0.0
H345 H 0.18127 0.47304 0.97075 0.0
H346 H 0.08784 0.55539 0.80863 0.0
H347 H 0.10465 0.53266 0.73242 0.0
H348 H 0.07175 0.51642 0.78612 0.0
H349 H 0.20955 0.52294 0.98915 0.0
H350 H 0.21766 0.53101 0.8908 0.0
H351 H 0.19559 0.55962 0.94569 0.0
H352 H 0.1847 0.58385 0.64617 0.0
H353 H 0.13698 0.64141 0.81349 0.0
H354 H 0.16345 0.51097 0.70987 0.0
H355 H 0.19946 0.51595 0.76361 0.0
H356 H 0.19773 0.52989 0.6669 0.0
H357 H 0.10371 0.58688 0.91716 0.0
H358 H 0.12758 0.6217 0.93799 0.0
H359 H 0.14126 0.5822 0.96504 0.0
C360 C 0.38353 0.15285 0.82552 0.0
C361 C 0.39179 0.14138 0.75337 0.0
C362 C 0.40552 0.1515 0.886 0.0
C363 C 0.43635 0.13834 0.87373 0.0
C364 C 0.44404 0.12516 0.802 0.0
C365 C 0.42185 0.12714 0.74281 0.0
C366 C 0.39626 0.16561 0.96152 0.0
C367 C 0.47649 0.11052 0.78617 0.0
C368 C 0.51496 0.16431 0.95435 0.0
C369 C 0.5245 0.1362 0.99089 0.0
C370 C 0.48399 0.16736 0.92479 0.0
C371 C 0.46235 0.14133 0.93114 0.0
C372 C 0.47048 0.11475 0.97744 0.0
C373 C 0.50176 0.1124 0.00685 0.0
C374 C 0.47631 0.19644 0.87722 0.0
C375 C 0.44771 0.08695 0.98746 0.0
H376 H 0.36035 0.16395 0.83411 0.0
H377 H 0.42859 0.11833 0.68731 0.0
H378 H 0.40535 0.15066 0.00891 0.0
H379 H 0.40708 0.1898 0.96719 0.0
H380 H 0.36988 0.16808 0.96705 0.0
H381 H 0.47776 0.09929 0.72913 0.0
H382 H 0.49525 0.12932 0.78968 0.0
H383 H 0.48223 0.09195 0.82915 0.0
H384 H 0.53268 0.18265 0.94229 0.0
H385 H 0.50925 0.09057 0.03516 0.0
H386 H 0.45122 0.20422 0.88599 0.0
H387 H 0.4792 0.19027 0.81638 0.0
H388 H 0.49253 0.21684 0.89041 0.0
H389 H 0.42259 0.09538 0.99182 0.0
H390 H 0.4537 0.07267 0.03874 0.0
H391 H 0.4493 0.07094 0.93733 0.0
C392 C 0.81133 0.56552 0.85521 0.0
C393 C 0.83388 0.5637 0.914 0.0
C394 C 0.80386 0.53868 0.81069 0.0
C395 C 0.81982 0.50933 0.8243 0.0
C396 C 0.84156 0.50695 0.88609 0.0
C397 C 0.84816 0.53421 0.93078 0.0
C398 C 0.78002 0.54223 0.74685 0.0
C399 C 0.8592 0.47611 0.90223 0.0
C400 C 0.78851 0.4306 0.74448 0.0
C401 C 0.80843 0.42593 0.68147 0.0
C402 C 0.79108 0.45819 0.78965 0.0
C403 C 0.81461 0.48149 0.77238 0.0
C404 C 0.83378 0.47765 0.70659 0.0
C405 C 0.83033 0.44993 0.66161 0.0
C406 C 0.76952 0.46172 0.85775 0.0
C407 C 0.85917 0.50191 0.68607 0.0
H408 H 0.80042 0.58845 0.84207 0.0
H409 H 0.86605 0.533 0.97527 0.0
H410 H 0.79248 0.53987 0.69163 0.0
H411 H 0.76179 0.5229 0.74972 0.0
H412 H 0.76763 0.5658 0.74817 0.0
H413 H 0.87401 0.47766 0.95446 0.0
H414 H 0.84202 0.45599 0.90849 0.0
H415 H 0.87506 0.47026 0.85372 0.0
H416 H 0.77162 0.41197 0.76012 0.0
H417 H 0.8463 0.44602 0.61419 0.0
H418 H 0.75795 0.48567 0.85761 0.0
H419 H 0.78395 0.45995 0.91042 0.0
H420 H 0.75058 0.44301 0.8594 0.0
H421 H 0.84874 0.52634 0.68351 0.0
H422 H 0.87061 0.49652 0.63067 0.0
H423 H 0.87796 0.50218 0.73062 0.0
C424 C 0.92467 0.65934 0.75844 0.0
C425 C 0.93318 0.65522 0.83472 0.0
C426 C 0.94775 0.66716 0.70381 0.0
C427 C 0.98017 0.6703 0.72583 0.0
C428 C 0.98895 0.66584 0.80274 0.0
C429 C 0.96523 0.65878 0.85642 0.0
C430 C 0.9374 0.67233 0.62275 0.0
C431 C 0.02341 0.66833 0.8283 0.0
C432 C 0.04808 0.65878 0.58695 0.0
C433 C 0.0601 0.69014 0.58055 0.0
C434 C 0.02109 0.65213 0.63129 0.0
C435 C 0.00523 0.67756 0.66865 0.0
C436 C 0.01536 0.70959 0.65664 0.0
C437 C 0.04284 0.71552 0.61296 0.0
C438 C 0.01121 0.6176 0.64301 0.0
C439 C -0.00151 0.73742 0.69405 0.0
H440 H 0.89981 0.65718 0.7416 0.0
H441 H 0.97181 0.65585 0.9153 0.0
H442 H 0.94452 0.69669 0.60383 0.0
H443 H 0.94962 0.65489 0.58518 0.0
H444 H 0.91112 0.66965 0.61532 0.0
H445 H 0.02627 0.66352 0.88993 0.0
H446 H 0.03838 0.65098 0.7964 0.0
H447 H 0.03281 0.69267 0.81598 0.0
H448 H 0.06105 0.63898 0.56167 0.0
H449 H 0.05178 0.73984 0.60788 0.0
H450 H 0.98504 0.61474 0.63491 0.0
H451 H 0.01682 0.61031 0.70208 0.0
H452 H 0.02379 0.60103 0.60374 0.0
H453 H 0.97218 0.73525 0.68703 0.0
H454 H 0.00635 0.76087 0.67057 0.0
H455 H 0.00363 0.73722 0.75579 0.0
C456 C 0.32445 0.03812 0.61898 0.0
C457 C 0.34871 0.06102 0.61041 0.0
C458 C 0.32787 0.0128 0.67084 0.0
C459 C 0.35572 0.01111 0.71669 0.0
C460 C 0.38095 0.03316 0.70541 0.0
C461 C 0.37745 0.05729 0.65091 0.0
C462 C 0.30105 0.98875 0.679 0.0
C463 C 0.41066 0.03287 0.75445 0.0
C464 C 0.34167 0.9694 0.90464 0.0
C465 C 0.35489 0.93926 0.89025 0.0
C466 C 0.3435 0.99381 0.84996 0.0
C467 C 0.3577 0.98717 0.77866 0.0
C468 C 0.37205 0.95698 0.7653 0.0
C469 C 0.37069 0.93346 0.82174 0.0
C470 C 0.3291 0.0262 0.86727 0.0
C471 C 0.38696 0.94874 0.68983 0.0
H472 H 0.30236 0.04065 0.5872 0.0
H473 H 0.39656 0.07454 0.6439 0.0
H474 H 0.31069 0.96395 0.67753 0.0
H475 H 0.2891 0.99204 0.73459 0.0
H476 H 0.28278 0.99129 0.63355 0.0
H477 H 0.42968 0.0489 0.73195 0.0
H478 H 0.40435 0.04113 0.81237 0.0
H479 H 0.42049 0.00828 0.75969 0.0
H480 H 0.32912 0.97352 0.95753 0.0
H481 H 0.3801 0.90975 0.81019 0.0
H482 H 0.30735 0.02985 0.83215 0.0
H483 H 0.34625 0.04559 0.85275 0.0
H484 H 0.32236 0.02857 0.92794 0.0
H485 H 0.36799 0.94775 0.64578 0.0
H486 H 0.39951 0.92524 0.69114 0.0
H487 H 0.40429 0.9675 0.67249 0.0
C488 C 0.92476 0.28477 0.67284 0.0
C489 C 0.91654 0.30909 0.6214 0.0
C490 C 0.9543 0.28502 0.71068 0.0
C491 C 0.97602 0.31043 0.69743 0.0
C492 C 0.96899 0.33353 0.64068 0.0
C493 C 0.9393 0.33247 0.60286 0.0
C494 C 0.96113 0.25941 0.76899 0.0
C495 C 0.99166 0.36087 0.62429 0.0
C496 C 0.03043 0.33732 0.85905 0.0
C497 C 0.06017 0.32559 0.83518 0.0
C498 C 0.0027 0.33203 0.81537 0.0
C499 C 0.00477 0.31423 0.74691 0.0
C500 C 0.0344 0.3007 0.72527 0.0
C501 C 0.06172 0.30665 0.76941 0.0
C502 C 0.97146 0.34675 0.84064 0.0
C503 C 0.03758 0.28101 0.65384 0.0
H504 H 0.90712 0.26667 0.68729 0.0
H505 H 0.93284 0.35155 0.56399 0.0
H506 H 0.9858 0.25001 0.76227 0.0
H507 H 0.95938 0.26992 0.82662 0.0
H508 H 0.944 0.23908 0.76502 0.0
H509 H 0.9845 0.37456 0.57293 0.0
H510 H 0.99204 0.37752 0.67339 0.0
H511 H 0.01639 0.35183 0.61634 0.0
H512 H 0.02914 0.35217 0.9094 0.0
H513 H 0.08465 0.29737 0.75085 0.0
H514 H 0.95263 0.32805 0.84446 0.0
H515 H 0.96338 0.36462 0.79808 0.0
H516 H 0.97356 0.35883 0.89658 0.0
H517 H 0.0192 0.2618 0.65257 0.0
H518 H 0.06161 0.26985 0.64858 0.0
H519 H 0.03346 0.29652 0.60365 0.0
C520 C 0.59356 0.05882 0.75245 0.0
C521 C 0.60529 0.04901 0.82326 0.0
C522 C 0.59668 0.03921 0.68839 0.0
C523 C 0.61132 0.00882 0.69576 0.0
C524 C 0.62214 -0.00175 0.7677 0.0
C525 C 0.61958 0.01877 0.83025 0.0
C526 C 0.58548 0.05159 0.61249 0.0
C527 C 0.63724 0.9656 0.77827 0.0
C528 C 0.60353 0.94065 0.55656 0.0
C529 C 0.63516 0.93852 0.53032 0.0
C530 C 0.59441 0.96496 0.60692 0.0
C531 C 0.61714 0.98844 0.62832 0.0
C532 C 0.64759 0.98906 0.5931 0.0
C533 C 0.6564 0.9638 0.54502 0.0
C534 C 0.56183 0.96305 0.64378 0.0
C535 C 0.67206 0.01449 0.61218 0.0
H536 H 0.5831 0.08238 0.7461 0.0
H537 H 0.62944 0.01133 0.88414 0.0
H538 H 0.60642 0.05496 0.57467 0.0
H539 H 0.5694 0.03389 0.58499 0.0
H540 H 0.57263 0.07483 0.61736 0.0
H541 H 0.64161 0.9599 0.83897 0.0
H542 H 0.62163 0.94668 0.75383 0.0
H543 H 0.66044 0.96466 0.74779 0.0
H544 H 0.58673 0.92161 0.54412 0.0
H545 H 0.6807 0.96261 0.52368 0.0
H546 H 0.55134 0.98723 0.6519 0.0
H547 H 0.56432 0.95183 0.70058 0.0
H548 H 0.54491 0.94823 0.60998 0.0
H549 H 0.66075 0.03853 0.61502 0.0
H550 H 0.69178 0.0152 0.56997 0.0
H551 H 0.6826 0.00933 0.66867 0.0
C552 C 0.03706 0.31592 0.14197 0.0
C553 C 0.03906 0.34367 0.09743 0.0
C554 C 0.01122 0.31105 0.19134 0.0
C555 C 0.98652 0.3342 0.19461 0.0
C556 C 0.9866 0.36023 0.14275 0.0
C557 C 0.01325 0.36496 0.09546 0.0
C558 C 0.01239 0.28317 0.24587 0.0
C559 C 0.96005 0.38478 0.14232 0.0
C560 C 0.91022 0.32046 0.30671 0.0
C561 C 0.91518 0.34056 0.3693 0.0
C562 C 0.93367 0.31707 0.25044 0.0
C563 C 0.96302 0.33369 0.25804 0.0
C564 C 0.96904 0.35203 0.32441 0.0
C565 C 0.94471 0.35578 0.37869 0.0
C566 C 0.92593 0.29791 0.18016 0.0
C567 C 0.00045 0.36932 0.33588 0.0
H568 H 0.05749 0.29989 0.14467 0.0
H569 H 0.01514 0.38673 0.06207 0.0
H570 H 0.0195 0.29208 0.30276 0.0
H571 H 0.98854 0.27175 0.25156 0.0
H572 H 0.02997 0.26471 0.22783 0.0
H573 H 0.96092 0.40022 0.091 0.0
H574 H 0.93632 0.37285 0.14489 0.0
H575 H 0.96224 0.40036 0.19305 0.0
H576 H 0.88691 0.30945 0.29866 0.0
H577 H 0.94817 0.37187 0.42628 0.0
H578 H 0.94617 0.28206 0.16455 0.0
H579 H 0.92191 0.31459 0.13203 0.0
H580 H 0.90408 0.28301 0.18752 0.0
H581 H 0.02082 0.35289 0.32494 0.0
H582 H 0.0028 0.37913 0.39419 0.0
H583 H 0.0023 0.38948 0.295 0.0
C584 C 0.60008 0.87488 0.23683 0.0
C585 C 0.62161 0.84985 0.2219 0.0
C586 C 0.59968 0.90251 0.19159 0.0
C587 C 0.62079 0.9047 0.12906 0.0
C588 C 0.63847 0.87736 0.10664 0.0
C589 C 0.63901 0.85025 0.15392 0.0
C590 C 0.57987 0.93083 0.21685 0.0
C591 C 0.65939 0.87803 0.0371 0.0
C592 C 0.618 0.9865 0.03317 0.0
C593 C 0.64261 0.00255 0.07192 0.0
C594 C 0.61214 0.95364 0.04587 0.0
C595 C 0.6303 0.93705 0.10129 0.0
C596 C 0.65601 0.95289 0.13805 0.0
C597 C 0.66215 0.98513 0.12182 0.0
C598 C 0.58541 0.93751 0.00274 0.0
C599 C 0.67579 0.93652 0.1987 0.0
H600 H 0.5858 0.87439 0.28811 0.0
H601 H 0.65506 0.83061 0.14075 0.0
H602 H 0.59586 0.94944 0.2413 0.0
H603 H 0.56719 0.9417 0.16796 0.0
H604 H 0.5619 0.92404 0.26041 0.0
H605 H 0.66689 0.85353 0.01983 0.0
H606 H 0.64655 0.88962 0.98926 0.0
H607 H 0.68119 0.8924 0.04879 0.0
H608 H 0.60227 -0.00019 0.99584 0.0
H609 H 0.68138 -0.00278 0.15172 0.0
H610 H 0.56242 0.94177 0.0325 0.0
H611 H 0.58911 0.91123 0.99792 0.0
H612 H 0.58318 0.94782 0.94485 0.0
H613 H 0.66017 0.92951 0.24683 0.0
H614 H 0.69521 0.95214 0.22088 0.0
H615 H 0.68677 0.91433 0.17602 0.0
C616 C 0.99206 0.63927 0.06258 0.0
C617 C 0.97442 0.66458 0.09392 0.0
C618 C 0.02473 0.6354 0.08049 0.0
C619 C 0.03947 0.65697 0.132 0.0
C620 C 0.02241 0.68433 0.1571 0.0
C621 C 0.99016 0.68778 0.13753 0.0
C622 C 0.04245 0.60677 0.04948 0.0
C623 C 0.0371 0.70827 0.21132 0.0
C624 C 0.09386 0.63183 0.29126 0.0
C625 C 0.1217 0.64915 0.27411 0.0
C626 C 0.06781 0.63141 0.24116 0.0
C627 C 0.06976 0.64847 0.17184 0.0
C628 C 0.09915 0.66271 0.15036 0.0
C629 C 0.12474 0.66323 0.20219 0.0
C630 C 0.03711 0.6154 0.26601 0.0
C631 C 0.10281 0.67962 0.07535 0.0
H632 H 0.97988 0.62121 0.02899 0.0
H633 H 0.97653 0.70754 0.1611 0.0
H634 H 0.06842 0.61175 0.04324 0.0
H635 H 0.03966 0.58625 0.089 0.0
H636 H 0.03259 0.59944 0.99356 0.0
H637 H 0.02164 0.72965 0.2197 0.0
H638 H 0.04095 0.69668 0.26728 0.0
H639 H 0.06074 0.71642 0.19027 0.0
H640 H 0.09152 0.62032 0.34611 0.0
H641 H 0.14647 0.67608 0.18775 0.0
H642 H 0.02747 0.60005 0.21999 0.0
H643 H 0.01887 0.63399 0.2787 0.0
H644 H 0.0405 0.60039 0.31745 0.0
H645 H 0.08926 0.66705 0.03006 0.0
H646 H 0.12836 0.68131 0.05842 0.0
H647 H 0.09317 0.70432 0.08013 0.0
C648 C 0.33556 0.95252 0.16036 0.0
C649 C 0.35029 0.92752 0.20086 0.0
C650 C 0.33691 0.98438 0.18621 0.0
C651 C 0.35356 0.99158 0.25406 0.0
C652 C 0.36814 0.96643 0.29569 0.0
C653 C 0.36626 0.93472 0.26874 0.0
C654 C 0.32084 0.01041 0.14039 0.0
C655 C 0.38617 0.9731 0.3682 0.0
C656 C 0.38352 0.07689 0.28774 0.0
C657 C 0.36083 0.08865 0.3393 0.0
C658 C 0.38125 0.0455 0.25878 0.0
C659 C 0.35563 0.0254 0.28173 0.0
C660 C 0.33226 0.03743 0.33234 0.0
C661 C 0.33516 0.0688 0.36051 0.0
C662 C 0.40668 0.0336 0.20496 0.0
C663 C 0.30445 0.01694 0.35786 0.0
H664 H 0.32321 0.94727 0.1077 0.0
H665 H 0.37785 0.91564 0.3002 0.0
H666 H 0.30796 0.00073 0.09023 0.0
H667 H 0.30355 0.02368 0.1763 0.0
H668 H 0.33898 0.02795 0.12054 0.0
H669 H 0.39606 0.95092 0.39409 0.0
H670 H 0.4062 0.98992 0.3568 0.0
H671 H 0.37014 0.98484 0.40989 0.0
H672 H 0.40349 0.09196 0.27125 0.0
H673 H 0.31745 0.07761 0.40024 0.0
H674 H 0.39552 0.02501 0.15161 0.0
H675 H 0.41944 0.01293 0.23064 0.0
H676 H 0.4245 0.05248 0.19084 0.0
H677 H 0.29096 0.008 0.30792 0.0
H678 H 0.28771 0.03022 0.39534 0.0
H679 H 0.31346 0.99566 0.38904 0.0
C680 C 0.755 0.26271 0.34743 0.0
C681 C 0.7743 0.28725 0.31812 0.0
C682 C 0.7385 0.24161 0.29817 0.0
C683 C 0.74146 0.24537 0.21835 0.0
C684 C 0.75959 0.27105 0.18913 0.0
C685 C 0.77559 0.29154 0.23898 0.0
C686 C 0.71895 0.21461 0.33128 0.0
C687 C 0.76336 0.27613 0.10476 0.0
C688 C 0.73644 0.17234 0.09059 0.0
C689 C 0.70505 0.17418 0.06281 0.0
C690 C 0.74826 0.19507 0.14195 0.0
C691 C 0.72854 0.22097 0.16462 0.0
C692 C 0.69773 0.22451 0.13193 0.0
C693 C 0.68632 0.20105 0.08123 0.0
C694 C 0.78139 0.1905 0.17459 0.0
C695 C 0.67627 0.25219 0.15329 0.0
H696 H 0.75361 0.25934 0.40821 0.0
H697 H 0.7898 0.31083 0.21514 0.0
H698 H 0.6947 0.21421 0.30552 0.0
H699 H 0.7305 0.19134 0.31781 0.0
H700 H 0.71653 0.21667 0.39382 0.0
H701 H 0.77619 0.29876 0.09126 0.0
H702 H 0.77697 0.25584 0.07998 0.0
H703 H 0.73959 0.27666 0.0767 0.0
H704 H 0.75097 0.1516 0.07671 0.0
H705 H 0.66187 0.20252 0.06086 0.0
H706 H 0.77996 0.18839 0.23722 0.0
H707 H 0.79652 0.21168 0.16163 0.0
H708 H 0.79342 0.16875 0.152 0.0
H709 H 0.67026 0.25074 0.21446 0.0
H710 H 0.65363 0.25236 0.12015 0.0
H711 H 0.68884 0.27532 0.14416 0.0
C712 C 0.83301 0.77594 0.09817 0.0
C713 C 0.8196 0.74522 0.09157 0.0
C714 C 0.8155 0.80126 0.13028 0.0
C715 C 0.78464 0.79504 0.15962 0.0
C716 C 0.76957 0.76526 0.1434 0.0
C717 C 0.78725 0.74071 0.10851 0.0
C718 C 0.83146 0.83342 0.1407 0.0
C719 C 0.73636 0.75774 0.17215 0.0
C720 C 0.76318 0.81778 0.3591 0.0
C721 C 0.73461 0.83454 0.34701 0.0
C722 C 0.78177 0.80738 0.29792 0.0
C723 C 0.77196 0.81495 0.223 0.0
C724 C 0.74633 0.83669 0.21171 0.0
C725 C 0.72766 0.84614 0.27417 0.0
C726 C 0.80922 0.78466 0.31344 0.0
C727 C 0.73634 0.84734 0.13362 0.0
H728 H 0.85806 0.77948 0.08435 0.0
H729 H 0.77697 0.71691 0.10336 0.0
H730 H 0.81364 0.85316 0.13995 0.0
H731 H 0.844 0.834 0.19614 0.0
H732 H 0.84953 0.83778 0.09567 0.0
H733 H 0.72696 0.73487 0.14863 0.0
H734 H 0.73686 0.7558 0.23494 0.0
H735 H 0.71955 0.7773 0.15715 0.0
H736 H 0.76863 0.8091 0.41567 0.0
H737 H 0.70566 0.85934 0.26442 0.0
H738 H 0.83119 0.79285 0.28409 0.0
H739 H 0.80324 0.76043 0.29142 0.0
H740 H 0.81461 0.78253 0.37494 0.0
H741 H 0.75637 0.84594 0.09251 0.0
H742 H 0.72726 0.87235 0.13525 0.0
H743 H 0.71654 0.83183 0.11323 0.0
C744 C 0.25156 0.87084 0.18663 0.0
C745 C 0.2583 0.84974 0.12688 0.0
C746 C 0.22901 0.86225 0.24243 0.0
C747 C 0.2145 0.83156 0.23902 0.0
C748 C 0.21604 0.81406 0.17023 0.0
C749 C 0.23747 0.82401 0.1138 0.0
C750 C 0.22441 0.88381 0.31002 0.0
C751 C 0.19952 0.78205 0.1612 0.0
C752 C 0.22991 0.77451 0.40036 0.0
C753 C 0.19919 0.76229 0.4137 0.0
C754 C 0.235 0.79913 0.34789 0.0
C755 C 0.20839 0.8133 0.31047 0.0
C756 C 0.17697 0.80446 0.33287 0.0
C757 C 0.17269 0.77858 0.38342 0.0
C758 C 0.26921 0.807 0.32653 0.0
C759 C 0.14768 0.82052 0.30042 0.0
H760 H 0.26698 0.8914 0.1961 0.0
H761 H 0.24208 0.80828 0.06614 0.0
H762 H 0.20117 0.87903 0.3384 0.0
H763 H 0.24395 0.8798 0.35155 0.0
H764 H 0.2254 0.90939 0.29251 0.0
H765 H 0.202 0.77229 0.10287 0.0
H766 H 0.20986 0.76442 0.20159 0.0
H767 H 0.17369 0.78443 0.17411 0.0
H768 H 0.25046 0.76267 0.42547 0.0
H769 H 0.14873 0.76981 0.39472 0.0
H770 H 0.27406 0.83287 0.33487 0.0
H771 H 0.27324 0.80132 0.26586 0.0
H772 H 0.28696 0.79332 0.36054 0.0
H773 H 0.15345 0.84259 0.26797 0.0
H774 H 0.13099 0.82687 0.34704 0.0
H775 H 0.13477 0.80346 0.26297 0.0
C776 C 0.28314 0.17671 0.2811 0.0
C777 C 0.28762 0.19223 0.35073 0.0
C778 C 0.26181 0.18914 0.22661 0.0
C779 C 0.24477 0.21776 0.24249 0.0
C780 C 0.24763 0.23207 0.31511 0.0
C781 C 0.26922 0.21926 0.36801 0.0
C782 C 0.25948 0.17302 0.15029 0.0
C783 C 0.22959 0.2623 0.33521 0.0
C784 C 0.21899 0.2803 0.09833 0.0
C785 C 0.18567 0.27677 0.10089 0.0
C786 C 0.23904 0.25923 0.13899 0.0
C787 C 0.22531 0.2342 0.18293 0.0
C788 C 0.19198 0.22859 0.17865 0.0
C789 C 0.17259 0.24994 0.13778 0.0
C790 C 0.27459 0.26566 0.14067 0.0
C791 C 0.17632 0.20197 0.22323 0.0
H792 H 0.2982 0.1564 0.26685 0.0
H793 H 0.27342 0.23173 0.42104 0.0
H794 H 0.23427 0.17198 0.13061 0.0
H795 H 0.2732 0.18718 0.10809 0.0
H796 H 0.26938 0.1483 0.15162 0.0
H797 H 0.23271 0.26904 0.39573 0.0
H798 H 0.23819 0.28245 0.29945 0.0
H799 H 0.20366 0.25921 0.32369 0.0
H800 H 0.22922 0.30106 0.0703 0.0
H801 H 0.1468 0.24696 0.13937 0.0
H802 H 0.28822 0.24298 0.13476 0.0
H803 H 0.28116 0.27643 0.1961 0.0
H804 H 0.28203 0.2824 0.09492 0.0
H805 H 0.19037 0.17948 0.21892 0.0
H806 H 0.15148 0.19724 0.20356 0.0
H807 H 0.17541 0.2088 0.28401 0.0
C808 C 0.2583 0.72352 0.65449 0.0
C809 C 0.24184 0.69449 0.64753 0.0
C810 C 0.27838 0.72927 0.71648 0.0
C811 C 0.28197 0.70523 0.77285 0.0
C812 C 0.26905 0.67426 0.76012 0.0
C813 C 0.24893 0.66921 0.69726 0.0
C814 C 0.29232 0.76251 0.72612 0.0
C815 C 0.27353 0.64735 0.81617 0.0
C816 C 0.33385 0.74433 0.91847 0.0
C817 C 0.31024 0.76241 0.95542 0.0
C818 C 0.3251 0.72063 0.8656 0.0
C819 C 0.29225 0.71556 0.84981 0.0
C820 C 0.26884 0.72944 0.89775 0.0
C821 C 0.27821 0.75285 0.95011 0.0
C822 C 0.35084 0.70442 0.81969 0.0
C823 C 0.23351 0.72359 0.88567 0.0
H824 H 0.25314 0.74284 0.61508 0.0
H825 H 0.23637 0.64655 0.69164 0.0
H826 H 0.28014 0.77496 0.77364 0.0
H827 H 0.31816 0.76112 0.74006 0.0
H828 H 0.28952 0.77738 0.67423 0.0
H829 H 0.27564 0.62405 0.78605 0.0
H830 H 0.29502 0.65092 0.85221 0.0
H831 H 0.25216 0.64583 0.85332 0.0
H832 H 0.35878 0.7513 0.92339 0.0
H833 H 0.26005 0.76636 0.98011 0.0
H834 H 0.35612 0.71903 0.76861 0.0
H835 H 0.3431 0.68024 0.80072 0.0
H836 H 0.37333 0.70219 0.85297 0.0
H837 H 0.22558 0.73591 0.83308 0.0
H838 H 0.21892 0.73274 0.93365 0.0
H839 H 0.22864 0.69762 0.87878 0.0
C840 C 0.27549 0.25013 0.60856 0.0
C841 C 0.30629 0.2372 0.61346 0.0
C842 C 0.26402 0.27083 0.6648 0.0
C843 C 0.28365 0.27807 0.7282 0.0
C844 C 0.31547 0.2666 0.7311 0.0
C845 C 0.32655 0.24652 0.67307 0.0
C846 C 0.23021 0.28346 0.65847 0.0
C847 C 0.33701 0.27329 0.79802 0.0
C848 C 0.24905 0.34709 0.83707 0.0
C849 C 0.22693 0.33093 0.88319 0.0
C850 C 0.27035 0.33011 0.79107 0.0
C851 C 0.26977 0.29625 0.79244 0.0
C852 C 0.25084 0.28003 0.84703 0.0
C853 C 0.22934 0.29765 0.89177 0.0
C854 C 0.29055 0.34834 0.7347 0.0
C855 C 0.25067 0.2439 0.85233 0.0
H856 H 0.25982 0.24279 0.56266 0.0
H857 H 0.35024 0.23607 0.67782 0.0
H858 H 0.21516 0.27273 0.70368 0.0
H859 H 0.22992 0.30986 0.66653 0.0
H860 H 0.21917 0.27782 0.6027 0.0
H861 H 0.36257 0.26883 0.78423 0.0
H862 H 0.3344 0.29836 0.81806 0.0
H863 H 0.3302 0.25723 0.84553 0.0
H864 H 0.24767 0.37298 0.8316 0.0
H865 H 0.21244 0.28506 0.92764 0.0
H866 H 0.27921 0.34679 0.67786 0.0
H867 H 0.31483 0.33779 0.73028 0.0
H868 H 0.29282 0.37407 0.75019 0.0
H869 H 0.2366 0.23388 0.80445 0.0
H870 H 0.23978 0.23548 0.90624 0.0
H871 H 0.27535 0.23425 0.84814 0.0
C872 C 0.75787 0.23573 0.58534 0.0
C873 C 0.74859 0.26763 0.57345 0.0
C874 C 0.73789 0.21413 0.62428 0.0
C875 C 0.70775 0.22469 0.65147 0.0
C876 C 0.69694 0.2559 0.63209 0.0
C877 C 0.71756 0.27701 0.59341 0.0
C878 C 0.75044 0.18109 0.64264 0.0
C879 C 0.66486 0.26812 0.65865 0.0
C880 C 0.64696 0.16539 0.73273 0.0
C881 C 0.65211 0.16831 0.8113 0.0
C882 C 0.66537 0.18291 0.68007 0.0
C883 C 0.68907 0.20452 0.70625 0.0
C884 C 0.69457 0.2074 0.78542 0.0
C885 C 0.67629 0.18906 0.83677 0.0
C886 C 0.65916 0.17861 0.59638 0.0
C887 C 0.7195 0.23023 0.81607 0.0
H888 H 0.78218 0.22867 0.57167 0.0
H889 H 0.71067 0.30191 0.58612 0.0
H890 H 0.75678 0.17989 0.70369 0.0
H891 H 0.73183 0.16264 0.63191 0.0
H892 H 0.77209 0.17508 0.60897 0.0
H893 H 0.65835 0.29122 0.63126 0.0
H894 H 0.64581 0.25029 0.6466 0.0
H895 H 0.66556 0.2718 0.72096 0.0
H896 H 0.62868 0.14909 0.71219 0.0
H897 H 0.68048 0.19151 0.89712 0.0
H898 H 0.68196 0.17497 0.56533 0.0
H899 H 0.64789 0.20064 0.57332 0.0
H900 H 0.64313 0.15793 0.58479 0.0
H901 H 0.74328 0.2246 0.79145 0.0
H902 H 0.72137 0.22918 0.87888 0.0
H903 H 0.71347 0.25516 0.79925 0.0
C904 C 0.68619 0.74971 0.65288 0.0
C905 C 0.70328 0.76866 0.60146 0.0
C906 C 0.7025 0.7292 0.70306 0.0
C907 C 0.7364 0.72792 0.70097 0.0
C908 C 0.75332 0.74493 0.64433 0.0
C909 C 0.73649 0.76509 0.59524 0.0
C910 C 0.68365 0.71087 0.76167 0.0
C911 C 0.78945 0.74391 0.63933 0.0
C912 C 0.78822 0.71512 0.87434 0.0
C913 C 0.80114 0.68489 0.85875 0.0
C914 C 0.76531 0.72872 0.82571 0.0
C915 C 0.75487 0.71131 0.76111 0.0
C916 C 0.76614 0.67981 0.74864 0.0
C917 C 0.78937 0.66711 0.79726 0.0
C918 C 0.75384 0.76246 0.8408 0.0
C919 C 0.75512 0.66019 0.68158 0.0
H920 H 0.66051 0.75281 0.65801 0.0
H921 H 0.74958 0.77978 0.55502 0.0
H922 H 0.69311 0.68617 0.76827 0.0
H923 H 0.68595 0.72306 0.81732 0.0
H924 H 0.65783 0.70955 0.74681 0.0
H925 H 0.79865 0.75678 0.58866 0.0
H926 H 0.79999 0.75512 0.6907 0.0
H927 H 0.79798 0.71874 0.63715 0.0
H928 H 0.79706 0.72871 0.9224 0.0
H929 H 0.79869 0.64334 0.78623 0.0
H930 H 0.72735 0.76364 0.83749 0.0
H931 H 0.7635 0.77882 0.79672 0.0
H932 H 0.76158 0.77137 0.8973 0.0
H933 H 0.72881 0.66207 0.67424 0.0
H934 H 0.76163 0.63447 0.68761 0.0
H935 H 0.76646 0.66954 0.62919 0.0
loop_
_geom_bond_atom_site_label_1
_geom_bond_atom_site_label_2
_geom_bond_distance
_geom_bond_site_symmetry_2
_ccdc_geom_bond_type
Zn0 O6 1.920 . S
Zn0 O12 1.898 . S
Zn0 O15 1.905 . S
Zn1 O9 1.905 . S
Zn1 O10 1.898 . S
Zn1 O18 1.920 . S
Zn2 O5 2.080 1_554 S
Zn2 O8 2.114 . S
Zn2 O11 2.120 . S
Zn2 O13 2.120 1_554 S
Zn2 O14 2.114 1_554 S
Zn2 O17 2.080 . S
C3 O8 1.166 . S
C3 O9 1.182 . S
C4 O10 1.167 . S
C4 O11 1.299 . S
O5 Zn2 2.080 1_556 S
O5 C19 1.305 . S
O6 Zn0 1.920 . S
O6 C19 1.234 . S
C7 O12 1.167 . S
C7 O13 1.299 . S
O8 Zn2 2.114 . S
O8 C3 1.166 . S
O9 Zn1 1.905 . S
O9 C3 1.182 . S
O10 Zn1 1.898 . S
O10 C4 1.167 . S
O11 Zn2 2.120 . S
O11 C4 1.299 . S
O12 Zn0 1.898 . S
O12 C7 1.167 . S
O13 Zn2 2.120 1_556 S
O13 C7 1.299 . S
O14 Zn2 2.114 1_556 S
O14 C16 1.166 . S
O15 Zn0 1.905 . S
O15 C16 1.182 . S
C16 O14 1.166 . S
C16 O15 1.182 . S
O17 Zn2 2.080 . S
O17 C20 1.305 . S
O18 Zn1 1.920 . S
O18 C20 1.234 . S
C19 O5 1.305 . S
C19 O6 1.234 . S
C20 O17 1.305 . S
C20 O18 1.234 . S
Zn21 O27 1.920 . S
Zn21 O33 1.898 . S
Zn21 O36 1.905 . S
Zn22 O30 1.905 . S
Zn22 O31 1.898 . S
Zn22 O39 1.920 . S
Zn23 O26 2.080 1_554 S
Zn23 O29 2.114 . S
Zn23 O32 2.120 . S
Zn23 O34 2.120 1_554 S
Zn23 O35 2.114 1_554 S
Zn23 O38 2.080 . S
C24 O29 1.166 . S
C24 O30 1.182 . S
C25 O31 1.167 . S
C25 O32 1.299 . S
O26 Zn23 2.080 1_556 S
O26 C40 1.305 . S
O27 Zn21 1.920 . S
O27 C40 1.234 . S
C28 O33 1.167 . S
C28 O34 1.299 . S
O29 Zn23 2.114 . S
O29 C24 1.166 . S
O30 Zn22 1.905 . S
O30 C24 1.182 . S
O31 Zn22 1.898 . S
O31 C25 1.167 . S
O32 Zn23 2.120 . S
O32 C25 1.299 . S
O33 Zn21 1.898 . S
O33 C28 1.167 . S
O34 Zn23 2.120 1_556 S
O34 C28 1.299 . S
O35 Zn23 2.114 1_556 S
O35 C37 1.166 . S
O36 Zn21 1.905 . S
O36 C37 1.182 . S
C37 O35 1.166 . S
C37 O36 1.182 . S
O38 Zn23 2.080 . S
O38 C41 1.305 . S
O39 Zn22 1.920 . S
O39 C41 1.234 . S
C40 O26 1.305 . S
C40 O27 1.234 . S
C41 O38 1.305 . S
C41 O39 1.234 . S
Zn42 O48 1.920 . S
Zn42 O54 1.898 . S
Zn42 O57 1.905 . S
Zn43 O51 1.905 . S
Zn43 O52 1.898 . S
Zn43 O60 1.920 . S
Zn44 O47 2.080 . S
Zn44 O50 2.114 1_554 S
Zn44 O53 2.120 1_554 S
Zn44 O55 2.120 . S
Zn44 O56 2.114 . S
Zn44 O59 2.080 1_554 S
C45 O50 1.166 . S
C45 O51 1.182 . S
C46 O52 1.167 . S
C46 O53 1.299 . S
O47 Zn44 2.080 . S
O47 C61 1.305 . S
O48 Zn42 1.920 . S
O48 C61 1.234 . S
C49 O54 1.167 . S
C49 O55 1.299 . S
O50 Zn44 2.114 1_556 S
O50 C45 1.166 . S
O51 Zn43 1.905 . S
O51 C45 1.182 . S
O52 Zn43 1.898 . S
O52 C46 1.167 . S
O53 Zn44 2.120 1_556 S
O53 C46 1.299 . S
O54 Zn42 1.898 . S
O54 C49 1.167 . S
O55 Zn44 2.120 . S
O55 C49 1.299 . S
O56 Zn44 2.114 . S
O56 C58 1.166 . S
O57 Zn42 1.905 . S
O57 C58 1.182 . S
C58 O56 1.166 . S
C58 O57 1.182 . S
O59 Zn44 2.080 1_556 S
O59 C62 1.305 . S
O60 Zn43 1.920 . S
O60 C62 1.234 . S
C61 O47 1.305 . S
C61 O48 1.234 . S
C62 O59 1.305 . S
C62 O60 1.234 . S
Zn63 O69 1.920 . S
Zn63 O75 1.898 . S
Zn63 O78 1.905 . S
Zn64 O72 1.905 . S
Zn64 O73 1.898 . S
Zn64 O81 1.920 . S
Zn65 O68 2.080 . S
Zn65 O71 2.114 1_554 S
Zn65 O74 2.120 1_554 S
Zn65 O76 2.120 . S
Zn65 O77 2.114 . S
Zn65 O80 2.080 1_554 S
C66 O71 1.166 . S
C66 O72 1.182 . S
C67 O73 1.167 . S
C67 O74 1.299 . S
O68 Zn65 2.080 . S
O68 C82 1.305 . S
O69 Zn63 1.920 . S
O69 C82 1.234 . S
C70 O75 1.167 . S
C70 O76 1.299 . S
O71 Zn65 2.114 1_556 S
O71 C66 1.166 . S
O72 Zn64 1.905 . S
O72 C66 1.182 . S
O73 Zn64 1.898 . S
O73 C67 1.167 . S
O74 Zn65 2.120 1_556 S
O74 C67 1.299 . S
O75 Zn63 1.898 . S
O75 C70 1.167 . S
O76 Zn65 2.120 . S
O76 C70 1.299 . S
O77 Zn65 2.114 . S
O77 C79 1.166 . S
O78 Zn63 1.905 . S
O78 C79 1.182 . S
C79 O77 1.166 . S
C79 O78 1.182 . S
O80 Zn65 2.080 1_556 S
O80 C83 1.305 . S
O81 Zn64 1.920 . S
O81 C83 1.234 . S
C82 O68 1.305 . S
C82 O69 1.234 . S
C83 O80 1.305 . S
C83 O81 1.234 . S
Zn84 O90 1.920 . S
Zn84 O96 1.898 . S
Zn84 O99 1.905 . S
Zn85 O93 1.905 . S
Zn85 O94 1.898 . S
Zn85 O102 1.920 . S
Zn86 O89 2.080 . S
Zn86 O92 2.114 . S
Zn86 O95 2.120 . S
Zn86 O97 2.120 . S
Zn86 O98 2.114 . S
Zn86 O101 2.080 . S
C87 O92 1.166 . S
C87 O93 1.182 . S
C88 O94 1.167 . S
C88 O95 1.299 . S
O89 Zn86 2.080 . S
O89 C103 1.305 . S
O90 Zn84 1.920 . S
O90 C103 1.234 . S
C91 O96 1.167 . S
C91 O97 1.299 . S
O92 Zn86 2.114 . S
O92 C87 1.166 . S
O93 Zn85 1.905 . S
O93 C87 1.182 . S
O94 Zn85 1.898 . S
O94 C88 1.167 . S
O95 Zn86 2.120 . S
O95 C88 1.299 . S
O96 Zn84 1.898 . S
O96 C91 1.167 . S
O97 Zn86 2.120 . S
O97 C91 1.299 . S
O98 Zn86 2.114 . S
O98 C100 1.166 . S
O99 Zn84 1.905 . S
O99 C100 1.182 . S
C100 O98 1.166 . S
C100 O99 1.182 . S
O101 Zn86 2.080 . S
O101 C104 1.305 . S
O102 Zn85 1.920 . S
O102 C104 1.234 . S
C103 O89 1.305 . S
C103 O90 1.234 . S
C104 O101 1.305 . S
C104 O102 1.234 . S
Zn105 O111 1.920 . S
Zn105 O117 1.898 . S
Zn105 O120 1.905 . S
Zn106 O114 1.905 . S
Zn106 O115 1.898 . S
Zn106 O123 1.920 . S
Zn107 O110 2.080 . S
Zn107 O113 2.114 . S
Zn107 O116 2.120 . S
Zn107 O118 2.120 . S
Zn107 O119 2.114 . S
Zn107 O122 2.080 . S
C108 O113 1.166 . S
C108 O114 1.182 . S
C109 O115 1.167 . S
C109 O116 1.299 . S
O110 Zn107 2.080 . S
O110 C124 1.305 . S
O111 Zn105 1.920 . S
O111 C124 1.234 . S
C112 O117 1.167 . S
C112 O118 1.299 . S
O113 Zn107 2.114 . S
O113 C108 1.166 . S
O114 Zn106 1.905 . S
O114 C108 1.182 . S
O115 Zn106 1.898 . S
O115 C109 1.167 . S
O116 Zn107 2.120 . S
O116 C109 1.299 . S
O117 Zn105 1.898 . S
O117 C112 1.167 . S
O118 Zn107 2.120 . S
O118 C112 1.299 . S
O119 Zn107 2.114 . S
O119 C121 1.166 . S
O120 Zn105 1.905 . S
O120 C121 1.182 . S
C121 O119 1.166 . S
C121 O120 1.182 . S
O122 Zn107 2.080 . S
O122 C125 1.305 . S
O123 Zn106 1.920 . S
O123 C125 1.234 . S
C124 O110 1.305 . S
C124 O111 1.234 . S
C125 O122 1.305 . S
C125 O123 1.234 . S
Zn126 O132 1.920 . S
Zn126 O138 1.898 . S
Zn126 O141 1.905 . S
Zn127 O135 1.905 . S
Zn127 O136 1.898 . S
Zn127 O144 1.920 . S
Zn128 O131 2.080 . S
Zn128 O134 2.114 . S
Zn128 O137 2.120 . S
Zn128 O139 2.120 . S
Zn128 O140 2.114 . S
Zn128 O143 2.080 . S
C129 O134 1.166 . S
C129 O135 1.182 . S
C130 O136 1.167 . S
C130 O137 1.299 . S
O131 Zn128 2.080 . S
O131 C145 1.305 . S
O132 Zn126 1.920 . S
O132 C145 1.234 . S
C133 O138 1.167 . S
C133 O139 1.299 . S
O134 Zn128 2.114 . S
O134 C129 1.166 . S
O135 Zn127 1.905 . S
O135 C129 1.182 . S
O136 Zn127 1.898 . S
O136 C130 1.167 . S
O137 Zn128 2.120 . S
O137 C130 1.299 . S
O138 Zn126 1.898 . S
O138 C133 1.167 . S
O139 Zn128 2.120 . S
O139 C133 1.299 . S
O140 Zn128 2.114 . S
O140 C142 1.166 . S
O141 Zn126 1.905 . S
O141 C142 1.182 . S
C142 O140 1.166 . S
C142 O141 1.182 . S
O143 Zn128 2.080 . S
O143 C146 1.305 . S
O144 Zn127 1.920 . S
O144 C146 1.234 . S
C145 O131 1.305 . S
C145 O132 1.234 . S
C146 O143 1.305 . S
C146 O144 1.234 . S
Zn147 O153 1.920 . S
Zn147 O159 1.898 . S
Zn147 O162 1.905 . S
Zn148 O156 1.905 . S
Zn148 O157 1.898 . S
Zn148 O165 1.920 . S
Zn149 O152 2.080 . S
Zn149 O155 2.114 . S
Zn149 O158 2.120 . S
Zn149 O160 2.120 . S
Zn149 O161 2.114 . S
Zn149 O164 2.080 . S
C150 O155 1.166 . S
C150 O156 1.182 . S
C151 O157 1.167 . S
C151 O158 1.299 . S
O152 Zn149 2.080 . S
O152 C166 1.305 . S
O153 Zn147 1.920 . S
O153 C166 1.234 . S
C154 O159 1.167 . S
C154 O160 1.299 . S
O155 Zn149 2.114 . S
O155 C150 1.166 . S
O156 Zn148 1.905 . S
O156 C150 1.182 . S
O157 Zn148 1.898 . S
O157 C151 1.167 . S
O158 Zn149 2.120 . S
O158 C151 1.299 . S
O159 Zn147 1.898 . S
O159 C154 1.167 . S
O160 Zn149 2.120 . S
O160 C154 1.299 . S
O161 Zn149 2.114 . S
O161 C163 1.166 . S
O162 Zn147 1.905 . S
O162 C163 1.182 . S
C163 O161 1.166 . S
C163 O162 1.182 . S
O164 Zn149 2.080 . S
O164 C167 1.305 . S
O165 Zn148 1.920 . S
O165 C167 1.234 . S
C166 O152 1.305 . S
C166 O153 1.234 . S
C167 O164 1.305 . S
C167 O165 1.234 . S
C168 C169 1.391 . S
C168 C170 1.394 . S
C168 H184 0.931 . S
C169 C168 1.391 . S
C169 C173 1.376 . S
C170 C168 1.394 . S
C170 C171 1.369 . S
C170 C174 1.531 . S
C171 C170 1.369 . S
C171 C172 1.410 . S
C171 C179 1.503 . S
C172 C171 1.410 . S
C172 C173 1.392 . S
C172 C175 1.511 . S
C173 C169 1.376 . S
C173 C172 1.392 . S
C173 H185 0.929 . S
C174 C170 1.531 . S
C174 H186 0.960 . S
C174 H187 0.962 . S
C174 H188 0.960 . S
C175 C172 1.511 . S
C175 H189 0.961 . S
C175 H190 0.961 . S
C175 H191 0.961 . S
C176 C177 1.370 . S
C176 C178 1.363 . S
C176 H192 0.931 . S
C177 C176 1.370 . S
C177 C181 1.408 . S
C178 C176 1.363 . S
C178 C179 1.370 . S
C178 C182 1.524 . S
C179 C171 1.503 . S
C179 C178 1.370 . S
C179 C180 1.403 . S
C180 C179 1.403 . S
C180 C181 1.404 . S
C180 C183 1.539 . S
C181 C177 1.408 . S
C181 C180 1.404 . S
C181 H193 0.930 . S
C182 C178 1.524 . S
C182 H194 0.956 . S
C182 H195 0.961 . S
C182 H196 0.961 . S
C183 C180 1.539 . S
C183 H197 0.958 . S
C183 H198 0.961 . S
C183 H199 0.960 . S
H184 C168 0.931 . S
H185 C173 0.929 . S
H186 C174 0.960 . S
H187 C174 0.962 . S
H188 C174 0.960 . S
H189 C175 0.961 . S
H190 C175 0.961 . S
H191 C175 0.961 . S
H192 C176 0.931 . S
H193 C181 0.930 . S
H194 C182 0.956 . S
H195 C182 0.961 . S
H196 C182 0.961 . S
H197 C183 0.958 . S
H198 C183 0.961 . S
H199 C183 0.960 . S
C200 C201 1.391 . S
C200 C202 1.394 . S
C200 H216 0.931 . S
C201 C200 1.391 . S
C201 C205 1.376 . S
C202 C200 1.394 . S
C202 C203 1.369 . S
C202 C206 1.531 . S
C203 C202 1.369 . S
C203 C204 1.410 . S
C203 C211 1.503 . S
C204 C203 1.410 . S
C204 C205 1.392 . S
C204 C207 1.511 . S
C205 C201 1.376 . S
C205 C204 1.392 . S
C205 H217 0.929 . S
C206 C202 1.531 . S
C206 H218 0.960 . S
C206 H219 0.962 . S
C206 H220 0.960 . S
C207 C204 1.511 . S
C207 H221 0.961 . S
C207 H222 0.961 . S
C207 H223 0.961 . S
C208 C209 1.370 . S
C208 C210 1.363 . S
C208 H224 0.931 . S
C209 C208 1.370 . S
C209 C213 1.408 . S
C210 C208 1.363 . S
C210 C211 1.370 . S
C210 C214 1.524 . S
C211 C203 1.503 . S
C211 C210 1.370 . S
C211 C212 1.403 . S
C212 C211 1.403 . S
C212 C213 1.404 . S
C212 C215 1.539 . S
C213 C209 1.408 . S
C213 C212 1.404 . S
C213 H225 0.930 . S
C214 C210 1.524 . S
C214 H226 0.956 . S
C214 H227 0.961 . S
C214 H228 0.961 . S
C215 C212 1.539 . S
C215 H229 0.958 . S
C215 H230 0.961 . S
C215 H231 0.960 . S
H216 C200 0.931 . S
H217 C205 0.929 . S
H218 C206 0.960 . S
H219 C206 0.962 . S
H220 C206 0.960 . S
H221 C207 0.961 . S
H222 C207 0.961 . S
H223 C207 0.961 . S
H224 C208 0.931 . S
H225 C213 0.930 . S
H226 C214 0.956 . S
H227 C214 0.961 . S
H228 C214 0.961 . S
H229 C215 0.958 . S
H230 C215 0.961 . S
H231 C215 0.960 . S
C232 C233 1.391 . S
C232 C234 1.394 . S
C232 H248 0.931 . S
C233 C232 1.391 . S
C233 C237 1.376 . S
C234 C232 1.394 . S
C234 C235 1.369 . S
C234 C238 1.531 . S
C235 C234 1.369 . S
C235 C236 1.410 . S
C235 C243 1.503 . S
C236 C235 1.410 . S
C236 C237 1.392 . S
C236 C239 1.511 . S
C237 C233 1.376 . S
C237 C236 1.392 . S
C237 H249 0.929 . S
C238 C234 1.531 . S
C238 H250 0.960 . S
C238 H251 0.962 . S
C238 H252 0.960 . S
C239 C236 1.511 . S
C239 H253 0.961 . S
C239 H254 0.961 . S
C239 H255 0.961 . S
C240 C241 1.370 . S
C240 C242 1.363 . S
C240 H256 0.931 . S
C241 C240 1.370 . S
C241 C245 1.408 . S
C242 C240 1.363 . S
C242 C243 1.370 . S
C242 C246 1.524 . S
C243 C235 1.503 . S
C243 C242 1.370 . S
C243 C244 1.403 . S
C244 C243 1.403 . S
C244 C245 1.404 . S
C244 C247 1.539 . S
C245 C241 1.408 . S
C245 C244 1.404 . S
C245 H257 0.930 . S
C246 C242 1.524 . S
C246 H258 0.956 . S
C246 H259 0.961 . S
C246 H260 0.961 . S
C247 C244 1.539 . S
C247 H261 0.958 . S
C247 H262 0.961 . S
C247 H263 0.960 . S
H248 C232 0.931 . S
H249 C237 0.929 . S
H250 C238 0.960 . S
H251 C238 0.962 . S
H252 C238 0.960 . S
H253 C239 0.961 . S
H254 C239 0.961 . S
H255 C239 0.961 . S
H256 C240 0.931 . S
H257 C245 0.930 . S
H258 C246 0.956 . S
H259 C246 0.961 . S
H260 C246 0.961 . S
H261 C247 0.958 . S
H262 C247 0.961 . S
H263 C247 0.960 . S
C264 C265 1.391 . S
C264 C266 1.394 . S
C264 H280 0.931 . S
C265 C264 1.391 . S
C265 C269 1.376 . S
C266 C264 1.394 . S
C266 C267 1.369 . S
C266 C270 1.531 . S
C267 C266 1.369 . S
C267 C268 1.410 . S
C267 C275 1.503 . S
C268 C267 1.410 . S
C268 C269 1.392 . S
C268 C271 1.511 . S
C269 C265 1.376 . S
C269 C268 1.392 . S
C269 H281 0.929 . S
C270 C266 1.531 . S
C270 H282 0.960 . S
C270 H283 0.962 . S
C270 H284 0.960 . S
C271 C268 1.511 . S
C271 H285 0.961 . S
C271 H286 0.961 . S
C271 H287 0.961 . S
C272 C273 1.370 . S
C272 C274 1.363 . S
C272 H288 0.931 . S
C273 C272 1.370 . S
C273 C277 1.408 . S
C274 C272 1.363 . S
C274 C275 1.370 . S
C274 C278 1.524 . S
C275 C267 1.503 . S
C275 C274 1.370 . S
C275 C276 1.403 . S
C276 C275 1.403 . S
C276 C277 1.404 . S
C276 C279 1.539 . S
C277 C273 1.408 . S
C277 C276 1.404 . S
C277 H289 0.930 . S
C278 C274 1.524 . S
C278 H290 0.956 . S
C278 H291 0.961 . S
C278 H292 0.961 . S
C279 C276 1.539 . S
C279 H293 0.958 . S
C279 H294 0.961 . S
C279 H295 0.960 . S
H280 C264 0.931 . S
H281 C269 0.929 . S
H282 C270 0.960 . S
H283 C270 0.962 . S
H284 C270 0.960 . S
H285 C271 0.961 . S
H286 C271 0.961 . S
H287 C271 0.961 . S
H288 C272 0.931 . S
H289 C277 0.930 . S
H290 C278 0.956 . S
H291 C278 0.961 . S
H292 C278 0.961 . S
H293 C279 0.958 . S
H294 C279 0.961 . S
H295 C279 0.960 . S
C296 C297 1.391 . S
C296 C298 1.394 . S
C296 H312 0.931 . S
C297 C296 1.391 . S
C297 C301 1.376 . S
C298 C296 1.394 . S
C298 C299 1.369 . S
C298 C302 1.531 . S
C299 C298 1.369 . S
C299 C300 1.410 . S
C299 C307 1.503 . S
C300 C299 1.410 . S
C300 C301 1.392 . S
C300 C303 1.511 . S
C301 C297 1.376 . S
C301 C300 1.392 . S
C301 H313 0.929 . S
C302 C298 1.531 . S
C302 H314 0.960 . S
C302 H315 0.962 . S
C302 H316 0.960 . S
C303 C300 1.511 . S
C303 H317 0.961 . S
C303 H318 0.961 . S
C303 H319 0.961 . S
C304 C305 1.370 . S
C304 C306 1.363 . S
C304 H320 0.931 . S
C305 C304 1.370 . S
C305 C309 1.408 . S
C306 C304 1.363 . S
C306 C307 1.370 . S
C306 C310 1.524 . S
C307 C299 1.503 . S
C307 C306 1.370 . S
C307 C308 1.403 . S
C308 C307 1.403 . S
C308 C309 1.404 . S
C308 C311 1.539 . S
C309 C305 1.408 . S
C309 C308 1.404 . S
C309 H321 0.930 . S
C310 C306 1.524 . S
C310 H322 0.956 . S
C310 H323 0.961 . S
C310 H324 0.961 . S
C311 C308 1.539 . S
C311 H325 0.958 . S
C311 H326 0.961 . S
C311 H327 0.960 . S
H312 C296 0.931 . S
H313 C301 0.929 . S
H314 C302 0.960 . S
H315 C302 0.962 . S
H316 C302 0.960 . S
H317 C303 0.961 . S
H318 C303 0.961 . S
H319 C303 0.961 . S
H320 C304 0.931 . S
H321 C309 0.930 . S
H322 C310 0.956 . S
H323 C310 0.961 . S
H324 C310 0.961 . S
H325 C311 0.958 . S
H326 C311 0.961 . S
H327 C311 0.960 . S
C328 C329 1.391 . S
C328 C330 1.394 . S
C328 H344 0.931 . S
C329 C328 1.391 . S
C329 C333 1.376 . S
C330 C328 1.394 . S
C330 C331 1.369 . S
C330 C334 1.531 . S
C331 C330 1.369 . S
C331 C332 1.410 . S
C331 C339 1.503 . S
C332 C331 1.410 . S
C332 C333 1.392 . S
C332 C335 1.511 . S
C333 C329 1.376 . S
C333 C332 1.392 . S
C333 H345 0.929 . S
C334 C330 1.531 . S
C334 H346 0.960 . S
C334 H347 0.962 . S
C334 H348 0.960 . S
C335 C332 1.511 . S
C335 H349 0.961 . S
C335 H350 0.961 . S
C335 H351 0.961 . S
C336 C337 1.370 . S
C336 C338 1.363 . S
C336 H352 0.931 . S
C337 C336 1.370 . S
C337 C341 1.408 . S
C338 C336 1.363 . S
C338 C339 1.370 . S
C338 C342 1.524 . S
C339 C331 1.503 . S
C339 C338 1.370 . S
C339 C340 1.403 . S
C340 C339 1.403 . S
C340 C341 1.404 . S
C340 C343 1.539 . S
C341 C337 1.408 . S
C341 C340 1.404 . S
C341 H353 0.930 . S
C342 C338 1.524 . S
C342 H354 0.956 . S
C342 H355 0.961 . S
C342 H356 0.961 . S
C343 C340 1.539 . S
C343 H357 0.958 . S
C343 H358 0.961 . S
C343 H359 0.960 . S
H344 C328 0.931 . S
H345 C333 0.929 . S
H346 C334 0.960 . S
H347 C334 0.962 . S
H348 C334 0.960 . S
H349 C335 0.961 . S
H350 C335 0.961 . S
H351 C335 0.961 . S
H352 C336 0.931 . S
H353 C341 0.930 . S
H354 C342 0.956 . S
H355 C342 0.961 . S
H356 C342 0.961 . S
H357 C343 0.958 . S
H358 C343 0.961 . S
H359 C343 0.960 . S
C360 C361 1.391 . S
C360 C362 1.394 . S
C360 H376 0.931 . S
C361 C360 1.391 . S
C361 C365 1.376 . S
C362 C360 1.394 . S
C362 C363 1.369 . S
C362 C366 1.531 . S
C363 C362 1.369 . S
C363 C364 1.410 . S
C363 C371 1.503 . S
C364 C363 1.410 . S
C364 C365 1.392 . S
C364 C367 1.511 . S
C365 C361 1.376 . S
C365 C364 1.392 . S
C365 H377 0.929 . S
C366 C362 1.531 . S
C366 H378 0.960 . S
C366 H379 0.962 . S
C366 H380 0.960 . S
C367 C364 1.511 . S
C367 H381 0.961 . S
C367 H382 0.961 . S
C367 H383 0.961 . S
C368 C369 1.370 . S
C368 C370 1.363 . S
C368 H384 0.931 . S
C369 C368 1.370 . S
C369 C373 1.408 . S
C370 C368 1.363 . S
C370 C371 1.370 . S
C370 C374 1.524 . S
C371 C363 1.503 . S
C371 C370 1.370 . S
C371 C372 1.403 . S
C372 C371 1.403 . S
C372 C373 1.404 . S
C372 C375 1.539 . S
C373 C369 1.408 . S
C373 C372 1.404 . S
C373 H385 0.930 . S
C374 C370 1.524 . S
C374 H386 0.956 . S
C374 H387 0.961 . S
C374 H388 0.961 . S
C375 C372 1.539 . S
C375 H389 0.958 . S
C375 H390 0.961 . S
C375 H391 0.960 . S
H376 C360 0.931 . S
H377 C365 0.929 . S
H378 C366 0.960 . S
H379 C366 0.962 . S
H380 C366 0.960 . S
H381 C367 0.961 . S
H382 C367 0.961 . S
H383 C367 0.961 . S
H384 C368 0.931 . S
H385 C373 0.930 . S
H386 C374 0.956 . S
H387 C374 0.961 . S
H388 C374 0.961 . S
H389 C375 0.958 . S
H390 C375 0.961 . S
H391 C375 0.960 . S
C392 C393 1.391 . S
C392 C394 1.394 . S
C392 H408 0.931 . S
C393 C392 1.391 . S
C393 C397 1.376 . S
C394 C392 1.394 . S
C394 C395 1.369 . S
C394 C398 1.531 . S
C395 C394 1.369 . S
C395 C396 1.410 . S
C395 C403 1.503 . S
C396 C395 1.410 . S
C396 C397 1.392 . S
C396 C399 1.511 . S
C397 C393 1.376 . S
C397 C396 1.392 . S
C397 H409 0.929 . S
C398 C394 1.531 . S
C398 H410 0.960 . S
C398 H411 0.962 . S
C398 H412 0.960 . S
C399 C396 1.511 . S
C399 H413 0.961 . S
C399 H414 0.961 . S
C399 H415 0.961 . S
C400 C401 1.370 . S
C400 C402 1.363 . S
C400 H416 0.931 . S
C401 C400 1.370 . S
C401 C405 1.408 . S
C402 C400 1.363 . S
C402 C403 1.370 . S
C402 C406 1.524 . S
C403 C395 1.503 . S
C403 C402 1.370 . S
C403 C404 1.403 . S
C404 C403 1.403 . S
C404 C405 1.404 . S
C404 C407 1.539 . S
C405 C401 1.408 . S
C405 C404 1.404 . S
C405 H417 0.930 . S
C406 C402 1.524 . S
C406 H418 0.956 . S
C406 H419 0.961 . S
C406 H420 0.961 . S
C407 C404 1.539 . S
C407 H421 0.958 . S
C407 H422 0.961 . S
C407 H423 0.960 . S
H408 C392 0.931 . S
H409 C397 0.929 . S
H410 C398 0.960 . S
H411 C398 0.962 . S
H412 C398 0.960 . S
H413 C399 0.961 . S
H414 C399 0.961 . S
H415 C399 0.961 . S
H416 C400 0.931 . S
H417 C405 0.930 . S
H418 C406 0.956 . S
H419 C406 0.961 . S
H420 C406 0.961 . S
H421 C407 0.958 . S
H422 C407 0.961 . S
H423 C407 0.960 . S
C424 C425 1.391 . S
C424 C426 1.394 . S
C424 H440 0.931 . S
C425 C424 1.391 . S
C425 C429 1.376 . S
C426 C424 1.394 . S
C426 C427 1.369 . S
C426 C430 1.531 . S
C427 C426 1.369 . S
C427 C428 1.410 . S
C427 C435 1.503 1_655 S
C428 C427 1.410 . S
C428 C429 1.392 . S
C428 C431 1.511 1_655 S
C429 C425 1.376 . S
C429 C428 1.392 . S
C429 H441 0.929 . S
C430 C426 1.531 . S
C430 H442 0.960 . S
C430 H443 0.962 . S
C430 H444 0.960 . S
C431 C428 1.511 1_455 S
C431 H445 0.961 . S
C431 H446 0.961 . S
C431 H447 0.961 . S
C432 C433 1.370 . S
C432 C434 1.363 . S
C432 H448 0.931 . S
C433 C432 1.370 . S
C433 C437 1.408 . S
C434 C432 1.363 . S
C434 C435 1.370 . S
C434 C438 1.524 . S
C435 C427 1.503 1_455 S
C435 C434 1.370 . S
C435 C436 1.403 . S
C436 C435 1.403 . S
C436 C437 1.404 . S
C436 C439 1.539 . S
C437 C433 1.408 . S
C437 C436 1.404 . S
C437 H449 0.930 . S
C438 C434 1.524 . S
C438 H450 0.944 1_455 S
C438 H451 0.961 . S
C438 H452 0.961 . S
C439 C436 1.539 . S
C439 H453 0.958 1_455 S
C439 H454 0.961 . S
C439 H455 0.960 1_455 S
H440 C424 0.931 . S
H441 C429 0.929 . S
H442 C430 0.960 . S
H443 C430 0.962 . S
H444 C430 0.960 . S
H445 C431 0.961 . S
H446 C431 0.961 . S
H447 C431 0.961 . S
H448 C432 0.931 . S
H449 C437 0.930 . S
H450 C438 0.944 1_655 S
H451 C438 0.961 . S
H452 C438 0.961 . S
H453 C439 0.958 1_655 S
H454 C439 0.961 . S
H455 C439 0.960 1_655 S
C456 C457 1.391 . S
C456 C458 1.394 . S
C456 H472 0.931 . S
C457 C456 1.391 . S
C457 C461 1.376 . S
C458 C456 1.394 . S
C458 C459 1.369 . S
C458 C462 1.531 1_545 S
C459 C458 1.369 . S
C459 C460 1.410 . S
C459 C467 1.503 1_545 S
C460 C459 1.410 . S
C460 C461 1.392 . S
C460 C463 1.511 . S
C461 C457 1.376 . S
C461 C460 1.392 . S
C461 H473 0.929 . S
C462 C458 1.531 1_565 S
C462 H474 0.960 . S
C462 H475 0.962 . S
C462 H476 0.960 . S
C463 C460 1.511 . S
C463 H477 0.961 . S
C463 H478 0.961 . S
C463 H479 0.961 . S
C464 C465 1.370 . S
C464 C466 1.363 . S
C464 H480 0.931 . S
C465 C464 1.370 . S
C465 C469 1.408 . S
C466 C464 1.363 . S
C466 C467 1.370 . S
C466 C470 1.524 1_565 S
C467 C459 1.503 1_565 S
C467 C466 1.370 . S
C467 C468 1.403 . S
C468 C467 1.403 . S
C468 C469 1.404 . S
C468 C471 1.539 . S
C469 C465 1.408 . S
C469 C468 1.404 . S
C469 H481 0.930 . S
C470 C466 1.524 1_545 S
C470 H482 0.956 . S
C470 H483 0.961 . S
C470 H484 0.961 . S
C471 C468 1.539 . S
C471 H485 0.958 . S
C471 H486 0.961 . S
C471 H487 0.960 . S
H472 C456 0.931 . S
H473 C461 0.929 . S
H474 C462 0.960 . S
H475 C462 0.962 . S
H476 C462 0.960 . S
H477 C463 0.961 . S
H478 C463 0.961 . S
H479 C463 0.961 . S
H480 C464 0.931 . S
H481 C469 0.930 . S
H482 C470 0.956 . S
H483 C470 0.961 . S
H484 C470 0.961 . S
H485 C471 0.958 . S
H486 C471 0.961 . S
H487 C471 0.960 . S
C488 C489 1.391 . S
C488 C490 1.394 . S
C488 H504 0.931 . S
C489 C488 1.391 . S
C489 C493 1.376 . S
C490 C488 1.394 . S
C490 C491 1.369 . S
C490 C494 1.531 . S
C491 C490 1.369 . S
C491 C492 1.410 . S
C491 C499 1.503 1_655 S
C492 C491 1.410 . S
C492 C493 1.392 . S
C492 C495 1.511 1_655 S
C493 C489 1.376 . S
C493 C492 1.392 . S
C493 H505 0.929 . S
C494 C490 1.531 . S
C494 H506 0.960 . S
C494 H507 0.962 . S
C494 H508 0.960 . S
C495 C492 1.511 1_455 S
C495 H509 0.961 . S
C495 H510 0.961 . S
C495 H511 0.961 . S
C496 C497 1.370 . S
C496 C498 1.363 . S
C496 H512 0.931 . S
C497 C496 1.370 . S
C497 C501 1.408 . S
C498 C496 1.363 . S
C498 C499 1.370 . S
C498 C502 1.524 . S
C499 C491 1.503 1_455 S
C499 C498 1.370 . S
C499 C500 1.403 . S
C500 C499 1.403 . S
C500 C501 1.404 . S
C500 C503 1.539 . S
C501 C497 1.408 . S
C501 C500 1.404 . S
C501 H513 0.930 . S
C502 C498 1.524 . S
C502 H514 0.956 1_455 S
C502 H515 0.961 . S
C502 H516 0.961 . S
C503 C500 1.539 . S
C503 H517 0.958 . S
C503 H518 0.961 . S
C503 H519 0.960 . S
H504 C488 0.931 . S
H505 C493 0.929 . S
H506 C494 0.960 . S
H507 C494 0.962 . S
H508 C494 0.960 . S
H509 C495 0.961 . S
H510 C495 0.961 . S
H511 C495 0.961 . S
H512 C496 0.931 . S
H513 C501 0.930 . S
H514 C502 0.956 1_655 S
H515 C502 0.961 . S
H516 C502 0.961 . S
H517 C503 0.958 . S
H518 C503 0.961 . S
H519 C503 0.960 . S
C520 C521 1.391 . S
C520 C522 1.394 . S
C520 H536 0.931 . S
C521 C520 1.391 . S
C521 C525 1.376 . S
C522 C520 1.394 . S
C522 C523 1.369 . S
C522 C526 1.531 . S
C523 C522 1.369 . S
C523 C524 1.410 . S
C523 C531 1.503 1_545 S
C524 C523 1.410 . S
C524 C525 1.392 . S
C524 C527 1.511 1_545 S
C525 C521 1.376 . S
C525 C524 1.392 . S
C525 H537 0.929 . S
C526 C522 1.531 . S
C526 H538 0.960 . S
C526 H539 0.962 . S
C526 H540 0.960 . S
C527 C524 1.511 1_565 S
C527 H541 0.961 . S
C527 H542 0.961 . S
C527 H543 0.961 . S
C528 C529 1.370 . S
C528 C530 1.363 . S
C528 H544 0.931 . S
C529 C528 1.370 . S
C529 C533 1.408 . S
C530 C528 1.363 . S
C530 C531 1.370 . S
C530 C534 1.524 . S
C531 C523 1.503 1_565 S
C531 C530 1.370 . S
C531 C532 1.403 . S
C532 C531 1.403 . S
C532 C533 1.404 . S
C532 C535 1.556 . S
C533 C529 1.408 . S
C533 C532 1.404 . S
C533 H545 0.930 . S
C534 C530 1.524 . S
C534 H546 0.956 . S
C534 H547 0.961 . S
C534 H548 0.961 . S
C535 C532 1.556 . S
C535 H549 0.939 1_565 S
C535 H550 0.979 . S
C535 H551 0.945 1_565 S
H536 C520 0.931 . S
H537 C525 0.929 . S
H538 C526 0.960 . S
H539 C526 0.962 . S
H540 C526 0.960 . S
H541 C527 0.961 . S
H542 C527 0.961 . S
H543 C527 0.961 . S
H544 C528 0.931 . S
H545 C533 0.930 . S
H546 C534 0.956 . S
H547 C534 0.961 . S
H548 C534 0.961 . S
H549 C535 0.939 1_545 S
H550 C535 0.979 . S
H551 C535 0.945 1_545 S
C552 C553 1.391 . S
C552 C554 1.394 . S
C552 H568 0.931 . S
C553 C552 1.391 . S
C553 C557 1.376 . S
C554 C552 1.394 . S
C554 C555 1.369 . S
C554 C558 1.531 . S
C555 C554 1.369 . S
C555 C556 1.410 . S
C555 C563 1.503 1_455 S
C556 C555 1.410 . S
C556 C557 1.392 . S
C556 C559 1.511 1_455 S
C557 C553 1.376 . S
C557 C556 1.392 . S
C557 H569 0.929 . S
C558 C554 1.531 . S
C558 H570 0.960 . S
C558 H571 0.962 . S
C558 H572 0.960 . S
C559 C556 1.511 1_655 S
C559 H573 0.961 . S
C559 H574 0.961 . S
C559 H575 0.961 . S
C560 C561 1.370 . S
C560 C562 1.363 . S
C560 H576 0.931 . S
C561 C560 1.370 . S
C561 C565 1.408 . S
C562 C560 1.363 . S
C562 C563 1.370 . S
C562 C566 1.524 . S
C563 C555 1.503 1_655 S
C563 C562 1.370 . S
C563 C564 1.403 . S
C564 C563 1.403 . S
C564 C565 1.404 . S
C564 C567 1.539 1_655 S
C565 C561 1.408 . S
C565 C564 1.404 . S
C565 H577 0.930 . S
C566 C562 1.524 . S
C566 H578 0.956 . S
C566 H579 0.961 . S
C566 H580 0.961 . S
C567 C564 1.539 1_455 S
C567 H581 0.958 . S
C567 H582 0.961 1_455 S
C567 H583 0.960 . S
H568 C552 0.931 . S
H569 C557 0.929 . S
H570 C558 0.960 . S
H571 C558 0.962 . S
H572 C558 0.960 . S
H573 C559 0.961 . S
H574 C559 0.961 . S
H575 C559 0.961 . S
H576 C560 0.931 . S
H577 C565 0.930 . S
H578 C566 0.956 . S
H579 C566 0.961 . S
H580 C566 0.961 . S
H581 C567 0.958 . S
H582 C567 0.961 1_655 S
H583 C567 0.960 . S
C584 C585 1.391 . S
C584 C586 1.394 . S
C584 H600 0.931 . S
C585 C584 1.391 . S
C585 C589 1.376 . S
C586 C584 1.394 . S
C586 C587 1.369 . S
C586 C590 1.531 1_565 S
C587 C586 1.369 . S
C587 C588 1.410 . S
C587 C595 1.503 1_565 S
C588 C587 1.410 . S
C588 C589 1.392 . S
C588 C591 1.511 . S
C589 C585 1.376 . S
C589 C588 1.392 . S
C589 H601 0.929 . S
C590 C586 1.531 1_545 S
C590 H602 0.960 . S
C590 H603 0.962 . S
C590 H604 0.960 . S
C591 C588 1.511 . S
C591 H605 0.961 . S
C591 H606 0.961 . S
C591 H607 0.961 . S
C592 C593 1.370 . S
C592 C594 1.363 . S
C592 H608 0.931 . S
C593 C592 1.370 . S
C593 C597 1.408 . S
C594 C592 1.363 . S
C594 C595 1.370 . S
C594 C598 1.524 1_545 S
C595 C587 1.503 1_545 S
C595 C594 1.370 . S
C595 C596 1.403 . S
C596 C595 1.403 . S
C596 C597 1.404 . S
C596 C599 1.539 . S
C597 C593 1.408 . S
C597 C596 1.404 . S
C597 H609 0.930 . S
C598 C594 1.524 1_565 S
C598 H610 0.956 . S
C598 H611 0.961 . S
C598 H612 0.961 . S
C599 C596 1.539 . S
C599 H613 0.958 . S
C599 H614 0.961 . S
C599 H615 0.960 . S
H600 C584 0.931 . S
H601 C589 0.929 . S
H602 C590 0.960 . S
H603 C590 0.962 . S
H604 C590 0.960 . S
H605 C591 0.961 . S
H606 C591 0.961 . S
H607 C591 0.961 . S
H608 C592 0.931 . S
H609 C597 0.930 . S
H610 C598 0.956 . S
H611 C598 0.961 . S
H612 C598 0.961 . S
H613 C599 0.958 . S
H614 C599 0.961 . S
H615 C599 0.960 . S
C616 C617 1.391 . S
C616 C618 1.394 . S
C616 H632 0.931 . S
C617 C616 1.391 . S
C617 C621 1.376 . S
C618 C616 1.394 . S
C618 C619 1.369 . S
C618 C622 1.531 1_655 S
C619 C618 1.369 . S
C619 C620 1.410 . S
C619 C627 1.503 1_655 S
C620 C619 1.410 . S
C620 C621 1.392 . S
C620 C623 1.511 . S
C621 C617 1.376 . S
C621 C620 1.392 . S
C621 H633 0.929 . S
C622 C618 1.531 1_455 S
C622 H634 0.960 . S
C622 H635 0.962 . S
C622 H636 0.960 . S
C623 C620 1.511 . S
C623 H637 0.961 . S
C623 H638 0.961 . S
C623 H639 0.961 . S
C624 C625 1.370 . S
C624 C626 1.363 . S
C624 H640 0.931 . S
C625 C624 1.370 . S
C625 C629 1.408 . S
C626 C624 1.363 . S
C626 C627 1.370 . S
C626 C630 1.524 . S
C627 C619 1.503 1_455 S
C627 C626 1.370 . S
C627 C628 1.403 . S
C628 C627 1.403 . S
C628 C629 1.404 . S
C628 C631 1.539 . S
C629 C625 1.408 . S
C629 C628 1.404 . S
C629 H641 0.930 . S
C630 C626 1.524 . S
C630 H642 0.956 . S
C630 H643 0.961 1_455 S
C630 H644 0.961 . S
C631 C628 1.539 . S
C631 H645 0.958 . S
C631 H646 0.961 . S
C631 H647 0.960 1_455 S
H632 C616 0.931 . S
H633 C621 0.929 . S
H634 C622 0.960 . S
H635 C622 0.962 . S
H636 C622 0.960 . S
H637 C623 0.961 . S
H638 C623 0.961 . S
H639 C623 0.961 . S
H640 C624 0.931 . S
H641 C629 0.930 . S
H642 C630 0.956 . S
H643 C630 0.961 1_655 S
H644 C630 0.961 . S
H645 C631 0.958 . S
H646 C631 0.961 . S
H647 C631 0.960 1_655 S
C648 C649 1.391 . S
C648 C650 1.394 . S
C648 H664 0.931 . S
C649 C648 1.391 . S
C649 C653 1.376 . S
C650 C648 1.394 . S
C650 C651 1.369 . S
C650 C654 1.531 1_565 S
C651 C650 1.369 . S
C651 C652 1.410 . S
C651 C659 1.503 1_565 S
C652 C651 1.410 . S
C652 C653 1.392 . S
C652 C655 1.511 . S
C653 C649 1.376 . S
C653 C652 1.392 . S
C653 H665 0.929 . S
C654 C650 1.531 1_545 S
C654 H666 0.960 . S
C654 H667 0.962 . S
C654 H668 0.960 . S
C655 C652 1.511 . S
C655 H669 0.961 . S
C655 H670 0.961 . S
C655 H671 0.961 . S
C656 C657 1.370 . S
C656 C658 1.363 . S
C656 H672 0.931 . S
C657 C656 1.370 . S
C657 C661 1.408 . S
C658 C656 1.363 . S
C658 C659 1.370 . S
C658 C662 1.524 1_545 S
C659 C651 1.503 1_545 S
C659 C658 1.370 . S
C659 C660 1.403 . S
C660 C659 1.403 . S
C660 C661 1.404 . S
C660 C663 1.539 . S
C661 C657 1.408 . S
C661 C660 1.404 . S
C661 H673 0.930 . S
C662 C658 1.524 1_565 S
C662 H674 0.956 . S
C662 H675 0.961 . S
C662 H676 0.961 . S
C663 C660 1.539 . S
C663 H677 0.958 . S
C663 H678 0.961 . S
C663 H679 0.960 . S
H664 C648 0.931 . S
H665 C653 0.929 . S
H666 C654 0.960 . S
H667 C654 0.962 . S
H668 C654 0.960 . S
H669 C655 0.961 . S
H670 C655 0.961 . S
H671 C655 0.961 . S
H672 C656 0.931 . S
H673 C661 0.930 . S
H674 C662 0.956 . S
H675 C662 0.961 . S
H676 C662 0.961 . S
H677 C663 0.958 . S
H678 C663 0.961 . S
H679 C663 0.960 . S
C680 C681 1.391 . S
C680 C682 1.394 . S
C680 H696 0.931 . S
C681 C680 1.391 . S
C681 C685 1.376 . S
C682 C680 1.394 . S
C682 C683 1.369 . S
C682 C686 1.531 . S
C683 C682 1.369 . S
C683 C684 1.410 . S
C683 C691 1.503 . S
C684 C683 1.410 . S
C684 C685 1.392 . S
C684 C687 1.511 . S
C685 C681 1.376 . S
C685 C684 1.392 . S
C685 H697 0.929 . S
C686 C682 1.531 . S
C686 H698 0.960 . S
C686 H699 0.962 . S
C686 H700 0.960 . S
C687 C684 1.511 . S
C687 H701 0.961 . S
C687 H702 0.961 . S
C687 H703 0.961 . S
C688 C689 1.370 . S
C688 C690 1.363 . S
C688 H704 0.931 . S
C689 C688 1.370 . S
C689 C693 1.408 . S
C690 C688 1.363 . S
C690 C691 1.370 . S
C690 C694 1.524 . S
C691 C683 1.503 . S
C691 C690 1.370 . S
C691 C692 1.403 . S
C692 C691 1.403 . S
C692 C693 1.404 . S
C692 C695 1.539 . S
C693 C689 1.408 . S
C693 C692 1.404 . S
C693 H705 0.930 . S
C694 C690 1.524 . S
C694 H706 0.956 . S
C694 H707 0.961 . S
C694 H708 0.961 . S
C695 C692 1.539 . S
C695 H709 0.958 . S
C695 H710 0.961 . S
C695 H711 0.960 . S
H696 C680 0.931 . S
H697 C685 0.929 . S
H698 C686 0.960 . S
H699 C686 0.962 . S
H700 C686 0.960 . S
H701 C687 0.961 . S
H702 C687 0.961 . S
H703 C687 0.961 . S
H704 C688 0.931 . S
H705 C693 0.930 . S
H706 C694 0.956 . S
H707 C694 0.961 . S
H708 C694 0.961 . S
H709 C695 0.958 . S
H710 C695 0.961 . S
H711 C695 0.960 . S
C712 C713 1.391 . S
C712 C714 1.394 . S
C712 H728 0.931 . S
C713 C712 1.391 . S
C713 C717 1.376 . S
C714 C712 1.394 . S
C714 C715 1.369 . S
C714 C718 1.531 . S
C715 C714 1.369 . S
C715 C716 1.410 . S
C715 C723 1.503 . S
C716 C715 1.410 . S
C716 C717 1.392 . S
C716 C719 1.511 . S
C717 C713 1.376 . S
C717 C716 1.392 . S
C717 H729 0.929 . S
C718 C714 1.531 . S
C718 H730 0.960 . S
C718 H731 0.962 . S
C718 H732 0.960 . S
C719 C716 1.511 . S
C719 H733 0.961 . S
C719 H734 0.961 . S
C719 H735 0.961 . S
C720 C721 1.370 . S
C720 C722 1.363 . S
C720 H736 0.931 . S
C721 C720 1.370 . S
C721 C725 1.408 . S
C722 C720 1.363 . S
C722 C723 1.370 . S
C722 C726 1.524 . S
C723 C715 1.503 . S
C723 C722 1.370 . S
C723 C724 1.403 . S
C724 C723 1.403 . S
C724 C725 1.404 . S
C724 C727 1.539 . S
C725 C721 1.408 . S
C725 C724 1.404 . S
C725 H737 0.930 . S
C726 C722 1.524 . S
C726 H738 0.956 . S
C726 H739 0.961 . S
C726 H740 0.961 . S
C727 C724 1.539 . S
C727 H741 0.958 . S
C727 H742 0.961 . S
C727 H743 0.960 . S
H728 C712 0.931 . S
H729 C717 0.929 . S
H730 C718 0.960 . S
H731 C718 0.962 . S
H732 C718 0.960 . S
H733 C719 0.961 . S
H734 C719 0.961 . S
H735 C719 0.961 . S
H736 C720 0.931 . S
H737 C725 0.930 . S
H738 C726 0.956 . S
H739 C726 0.961 . S
H740 C726 0.961 . S
H741 C727 0.958 . S
H742 C727 0.961 . S
H743 C727 0.960 . S
C744 C745 1.391 . S
C744 C746 1.394 . S
C744 H760 0.931 . S
C745 C744 1.391 . S
C745 C749 1.376 . S
C746 C744 1.394 . S
C746 C747 1.369 . S
C746 C750 1.531 . S
C747 C746 1.369 . S
C747 C748 1.410 . S
C747 C755 1.503 . S
C748 C747 1.410 . S
C748 C749 1.392 . S
C748 C751 1.511 . S
C749 C745 1.376 . S
C749 C748 1.392 . S
C749 H761 0.929 . S
C750 C746 1.531 . S
C750 H762 0.960 . S
C750 H763 0.962 . S
C750 H764 0.960 . S
C751 C748 1.511 . S
C751 H765 0.961 . S
C751 H766 0.961 . S
C751 H767 0.961 . S
C752 C753 1.370 . S
C752 C754 1.363 . S
C752 H768 0.931 . S
C753 C752 1.370 . S
C753 C757 1.408 . S
C754 C752 1.363 . S
C754 C755 1.370 . S
C754 C758 1.524 . S
C755 C747 1.503 . S
C755 C754 1.370 . S
C755 C756 1.403 . S
C756 C755 1.403 . S
C756 C757 1.404 . S
C756 C759 1.539 . S
C757 C753 1.408 . S
C757 C756 1.404 . S
C757 H769 0.930 . S
C758 C754 1.524 . S
C758 H770 0.956 . S
C758 H771 0.961 . S
C758 H772 0.961 . S
C759 C756 1.539 . S
C759 H773 0.958 . S
C759 H774 0.961 . S
C759 H775 0.960 . S
H760 C744 0.931 . S
H761 C749 0.929 . S
H762 C750 0.960 . S
H763 C750 0.962 . S
H764 C750 0.960 . S
H765 C751 0.961 . S
H766 C751 0.961 . S
H767 C751 0.961 . S
H768 C752 0.931 . S
H769 C757 0.930 . S
H770 C758 0.956 . S
H771 C758 0.961 . S
H772 C758 0.961 . S
H773 C759 0.958 . S
H774 C759 0.961 . S
H775 C759 0.960 . S
C776 C777 1.391 . S
C776 C778 1.394 . S
C776 H792 0.931 . S
C777 C776 1.391 . S
C777 C781 1.376 . S
C778 C776 1.394 . S
C778 C779 1.369 . S
C778 C782 1.531 . S
C779 C778 1.369 . S
C779 C780 1.410 . S
C779 C787 1.503 . S
C780 C779 1.410 . S
C780 C781 1.392 . S
C780 C783 1.511 . S
C781 C777 1.376 . S
C781 C780 1.392 . S
C781 H793 0.929 . S
C782 C778 1.531 . S
C782 H794 0.960 . S
C782 H795 0.962 . S
C782 H796 0.960 . S
C783 C780 1.511 . S
C783 H797 0.961 . S
C783 H798 0.961 . S
C783 H799 0.961 . S
C784 C785 1.370 . S
C784 C786 1.363 . S
C784 H800 0.931 . S
C785 C784 1.370 . S
C785 C789 1.408 . S
C786 C784 1.363 . S
C786 C787 1.370 . S
C786 C790 1.524 . S
C787 C779 1.503 . S
C787 C786 1.370 . S
C787 C788 1.403 . S
C788 C787 1.403 . S
C788 C789 1.404 . S
C788 C791 1.539 . S
C789 C785 1.408 . S
C789 C788 1.404 . S
C789 H801 0.930 . S
C790 C786 1.524 . S
C790 H802 0.956 . S
C790 H803 0.961 . S
C790 H804 0.961 . S
C791 C788 1.539 . S
C791 H805 0.958 . S
C791 H806 0.961 . S
C791 H807 0.960 . S
H792 C776 0.931 . S
H793 C781 0.929 . S
H794 C782 0.960 . S
H795 C782 0.962 . S
H796 C782 0.960 . S
H797 C783 0.961 . S
H798 C783 0.961 . S
H799 C783 0.961 . S
H800 C784 0.931 . S
H801 C789 0.930 . S
H802 C790 0.956 . S
H803 C790 0.961 . S
H804 C790 0.961 . S
H805 C791 0.958 . S
H806 C791 0.961 . S
H807 C791 0.960 . S
C808 C809 1.391 . S
C808 C810 1.394 . S
C808 H824 0.931 . S
C809 C808 1.391 . S
C809 C813 1.376 . S
C810 C808 1.394 . S
C810 C811 1.369 . S
C810 C814 1.531 . S
C811 C810 1.369 . S
C811 C812 1.410 . S
C811 C819 1.503 . S
C812 C811 1.410 . S
C812 C813 1.392 . S
C812 C815 1.511 . S
C813 C809 1.376 . S
C813 C812 1.392 . S
C813 H825 0.929 . S
C814 C810 1.531 . S
C814 H826 0.960 . S
C814 H827 0.962 . S
C814 H828 0.960 . S
C815 C812 1.511 . S
C815 H829 0.961 . S
C815 H830 0.961 . S
C815 H831 0.961 . S
C816 C817 1.370 . S
C816 C818 1.363 . S
C816 H832 0.931 . S
C817 C816 1.370 . S
C817 C821 1.408 . S
C818 C816 1.363 . S
C818 C819 1.370 . S
C818 C822 1.524 . S
C819 C811 1.503 . S
C819 C818 1.370 . S
C819 C820 1.403 . S
C820 C819 1.403 . S
C820 C821 1.404 . S
C820 C823 1.539 . S
C821 C817 1.408 . S
C821 C820 1.404 . S
C821 H833 0.930 . S
C822 C818 1.524 . S
C822 H834 0.956 . S
C822 H835 0.961 . S
C822 H836 0.961 . S
C823 C820 1.539 . S
C823 H837 0.958 . S
C823 H838 0.961 . S
C823 H839 0.960 . S
H824 C808 0.931 . S
H825 C813 0.929 . S
H826 C814 0.960 . S
H827 C814 0.962 . S
H828 C814 0.960 . S
H829 C815 0.961 . S
H830 C815 0.961 . S
H831 C815 0.961 . S
H832 C816 0.931 . S
H833 C821 0.930 . S
H834 C822 0.956 . S
H835 C822 0.961 . S
H836 C822 0.961 . S
H837 C823 0.958 . S
H838 C823 0.961 . S
H839 C823 0.960 . S
C840 C841 1.391 . S
C840 C842 1.394 . S
C840 H856 0.931 . S
C841 C840 1.391 . S
C841 C845 1.376 . S
C842 C840 1.394 . S
C842 C843 1.369 . S
C842 C846 1.531 . S
C843 C842 1.369 . S
C843 C844 1.410 . S
C843 C851 1.503 . S
C844 C843 1.410 . S
C844 C845 1.392 . S
C844 C847 1.511 . S
C845 C841 1.376 . S
C845 C844 1.392 . S
C845 H857 0.929 . S
C846 C842 1.531 . S
C846 H858 0.960 . S
C846 H859 0.962 . S
C846 H860 0.960 . S
C847 C844 1.511 . S
C847 H861 0.961 . S
C847 H862 0.961 . S
C847 H863 0.961 . S
C848 C849 1.370 . S
C848 C850 1.363 . S
C848 H864 0.931 . S
C849 C848 1.370 . S
C849 C853 1.408 . S
C850 C848 1.363 . S
C850 C851 1.370 . S
C850 C854 1.524 . S
C851 C843 1.503 . S
C851 C850 1.370 . S
C851 C852 1.403 . S
C852 C851 1.403 . S
C852 C853 1.404 . S
C852 C855 1.539 . S
C853 C849 1.408 . S
C853 C852 1.404 . S
C853 H865 0.930 . S
C854 C850 1.524 . S
C854 H866 0.956 . S
C854 H867 0.961 . S
C854 H868 0.961 . S
C855 C852 1.539 . S
C855 H869 0.958 . S
C855 H870 0.961 . S
C855 H871 0.960 . S
H856 C840 0.931 . S
H857 C845 0.929 . S
H858 C846 0.960 . S
H859 C846 0.962 . S
H860 C846 0.960 . S
H861 C847 0.961 . S
H862 C847 0.961 . S
H863 C847 0.961 . S
H864 C848 0.931 . S
H865 C853 0.930 . S
H866 C854 0.956 . S
H867 C854 0.961 . S
H868 C854 0.961 . S
H869 C855 0.958 . S
H870 C855 0.961 . S
H871 C855 0.960 . S
C872 C873 1.391 . S
C872 C874 1.394 . S
C872 H888 0.931 . S
C873 C872 1.391 . S
C873 C877 1.376 . S
C874 C872 1.394 . S
C874 C875 1.369 . S
C874 C878 1.531 . S
C875 C874 1.369 . S
C875 C876 1.410 . S
C875 C883 1.503 . S
C876 C875 1.410 . S
C876 C877 1.392 . S
C876 C879 1.511 . S
C877 C873 1.376 . S
C877 C876 1.392 . S
C877 H889 0.929 . S
C878 C874 1.531 . S
C878 H890 0.960 . S
C878 H891 0.962 . S
C878 H892 0.960 . S
C879 C876 1.511 . S
C879 H893 0.961 . S
C879 H894 0.961 . S
C879 H895 0.961 . S
C880 C881 1.370 . S
C880 C882 1.363 . S
C880 H896 0.931 . S
C881 C880 1.370 . S
C881 C885 1.408 . S
C882 C880 1.363 . S
C882 C883 1.370 . S
C882 C886 1.524 . S
C883 C875 1.503 . S
C883 C882 1.370 . S
C883 C884 1.403 . S
C884 C883 1.403 . S
C884 C885 1.404 . S
C884 C887 1.539 . S
C885 C881 1.408 . S
C885 C884 1.404 . S
C885 H897 0.930 . S
C886 C882 1.524 . S
C886 H898 0.956 . S
C886 H899 0.961 . S
C886 H900 0.961 . S
C887 C884 1.539 . S
C887 H901 0.958 . S
C887 H902 0.961 . S
C887 H903 0.960 . S
H888 C872 0.931 . S
H889 C877 0.929 . S
H890 C878 0.960 . S
H891 C878 0.962 . S
H892 C878 0.960 . S
H893 C879 0.961 . S
H894 C879 0.961 . S
H895 C879 0.961 . S
H896 C880 0.931 . S
H897 C885 0.930 . S
H898 C886 0.956 . S
H899 C886 0.961 . S
H900 C886 0.961 . S
H901 C887 0.958 . S
H902 C887 0.961 . S
H903 C887 0.960 . S
C904 C905 1.391 . S
C904 C906 1.394 . S
C904 H920 0.931 . S
C905 C904 1.391 . S
C905 C909 1.376 . S
C906 C904 1.394 . S
C906 C907 1.369 . S
C906 C910 1.531 . S
C907 C906 1.369 . S
C907 C908 1.410 . S
C907 C915 1.503 . S
C908 C907 1.410 . S
C908 C909 1.392 . S
C908 C911 1.511 . S
C909 C905 1.376 . S
C909 C908 1.392 . S
C909 H921 0.929 . S
C910 C906 1.531 . S
C910 H922 0.960 . S
C910 H923 0.962 . S
C910 H924 0.960 . S
C911 C908 1.511 . S
C911 H925 0.961 . S
C911 H926 0.961 . S
C911 H927 0.961 . S
C912 C913 1.370 . S
C912 C914 1.363 . S
C912 H928 0.931 . S
C913 C912 1.370 . S
C913 C917 1.408 . S
C914 C912 1.363 . S
C914 C915 1.370 . S
C914 C918 1.524 . S
C915 C907 1.503 . S
C915 C914 1.370 . S
C915 C916 1.403 . S
C916 C915 1.403 . S
C916 C917 1.404 . S
C916 C919 1.539 . S
C917 C913 1.408 . S
C917 C916 1.404 . S
C917 H929 0.930 . S
C918 C914 1.524 . S
C918 H930 0.956 . S
C918 H931 0.961 . S
C918 H932 0.961 . S
C919 C916 1.539 . S
C919 H933 0.958 . S
C919 H934 0.961 . S
C919 H935 0.960 . S
H920 C904 0.931 . S
H921 C909 0.929 . S
H922 C910 0.960 . S
H923 C910 0.962 . S
H924 C910 0.960 . S
H925 C911 0.961 . S
H926 C911 0.961 . S
H927 C911 0.961 . S
H928 C912 0.931 . S
H929 C917 0.930 . S
H930 C918 0.956 . S
H931 C918 0.961 . S
H932 C918 0.961 . S
H933 C919 0.958 . S
H934 C919 0.961 . S
H935 C919 0.960 . S
C169 C133 1.335 . S
C177 C4 1.369 . S
C201 C25 1.337 . S
C209 C151 1.331 . S
C233 C88 1.298 . S
C241 C49 1.349 . S
C265 C70 1.365 . S
C273 C112 1.326 . S
C297 C100 1.122 . S
C305 C45 1.166 . S
C329 C66 1.206 . S
C337 C108 1.128 . S
C361 C129 1.108 . S
C369 C16 1.162 . S
C393 C37 1.115 . S
C401 C163 1.158 . S
C425 C28 1.362 . S
C433 C109 1.363 . S
C457 C130 1.368 . S
C465 C46 1.326 . S
C489 C154 1.379 . S
C497 C67 1.356 . S
C521 C7 1.352 . S
C529 C91 1.366 . S
C553 C79 1.110 . S
C561 C150 1.161 . S
C585 C87 1.199 . S
C593 C3 1.132 . S
C617 C24 1.140 . S
C625 C121 1.159 . S
C649 C58 1.183 . S
C657 C142 1.140 . S
C681 C167 0.963 . S
C689 C20 1.060 . S
C713 C41 1.098 . S
C721 C104 1.006 . S
C745 C61 1.045 . S
C753 C124 1.037 . S
C777 C145 1.042 . S
C785 C82 1.039 . S
C809 C125 0.959 . S
C817 C62 1.056 . S
C841 C146 0.978 . S
C849 C83 1.043 . S
C873 C166 0.995 . S
C881 C19 1.035 . S
C905 C103 1.062 . S
C913 C40 1.030 . S
