# Generated by pormake.
# Topology wiy, (3)-cn, num edge types: 1
# Building blocks:
#     Node 0, Type 0, BuildingBlock: WUSLED_clean_sbu_0, # of connection points: 3
#     Node 1, Type 0, BuildingBlock: WUSLED_clean_sbu_0, # of connection points: 3
#     Node 2, Type 0, BuildingBlock: WUSLED_clean_sbu_0, # of connection points: 3
#     Node 3, Type 0, BuildingBlock: WUSLED_clean_sbu_0, # of connection points: 3
#     Node 4, Type 0, BuildingBlock: WUSLED_clean_sbu_0, # of connection points: 3
#     Node 5, Type 0, BuildingBlock: WUSLED_clean_sbu_0, # of connection points: 3
#     Node 6, Type 0, BuildingBlock: WUSLED_clean_sbu_0, # of connection points: 3
#     Node 7, Type 0, BuildingBlock: WUSLED_clean_sbu_0, # of connection points: 3
#     Node 8, Type 0, BuildingBlock: WUSLED_clean_sbu_0, # of connection points: 3
#     Node 9, Type 0, BuildingBlock: WUSLED_clean_sbu_0, # of connection points: 3
#     Node 10, Type 0, BuildingBlock: WUSLED_clean_sbu_0, # of connection points: 3
#     Node 11, Type 0, BuildingBlock: WUSLED_clean_sbu_0, # of connection points: 3
#     Edge 12, Type (0, 0), BuildingBlock: EYOCIG_clean_linker_4, # of connection points: 2
#     Edge 13, Type (0, 0), BuildingBlock: EYOCIG_clean_linker_4, # of connection points: 2
#     Edge 14, Type (0, 0), BuildingBlock: EYOCIG_clean_linker_4, # of connection points: 2
#     Edge 15, Type (0, 0), BuildingBlock: EYOCIG_clean_linker_4, # of connection points: 2
#     Edge 16, Type (0, 0), BuildingBlock: EYOCIG_clean_linker_4, # of connection points: 2
#     Edge 17, Type (0, 0), BuildingBlock: EYOCIG_clean_linker_4, # of connection points: 2
#     Edge 18, Type (0, 0), BuildingBlock: EYOCIG_clean_linker_4, # of connection points: 2
#     Edge 19, Type (0, 0), BuildingBlock: EYOCIG_clean_linker_4, # of connection points: 2
#     Edge 20, Type (0, 0), BuildingBlock: EYOCIG_clean_linker_4, # of connection points: 2
#     Edge 21, Type (0, 0), BuildingBlock: EYOCIG_clean_linker_4, # of connection points: 2
#     Edge 22, Type (0, 0), BuildingBlock: EYOCIG_clean_linker_4, # of connection points: 2
#     Edge 23, Type (0, 0), BuildingBlock: EYOCIG_clean_linker_4, # of connection points: 2
#     Edge 24, Type (0, 0), BuildingBlock: EYOCIG_clean_linker_4, # of connection points: 2
#     Edge 25, Type (0, 0), BuildingBlock: EYOCIG_clean_linker_4, # of connection points: 2
#     Edge 26, Type (0, 0), BuildingBlock: EYOCIG_clean_linker_4, # of connection points: 2
#     Edge 27, Type (0, 0), BuildingBlock: EYOCIG_clean_linker_4, # of connection points: 2
#     Edge 28, Type (0, 0), BuildingBlock: EYOCIG_clean_linker_4, # of connection points: 2
#     Edge 29, Type (0, 0), BuildingBlock: EYOCIG_clean_linker_4, # of connection points: 2
# Relax obj value: 0.113
# Max RMSD: 0.098
# Mean RMSD: 0.085
data_MOF--net-wiy--node1-WUSLED_clean_sbu_0--edge1-EYOCIG_clean_linker_4
_symmetry_space_group_name_H-M    P1
_symmetry_Int_Tables_number       1
_symmetry_cell_setting            triclinic
loop_
_symmetry_equiv_pos_as_xyz
'x, y, z'
_cell_length_a     45.455322
_cell_length_b     45.472447
_cell_length_c     39.343204
_cell_angle_alpha  90.060505
_cell_angle_beta   90.14597
_cell_angle_gamma 116.67574
loop_
_atom_site_label
_atom_site_type_symbol
_atom_site_fract_x
_atom_site_fract_y
_atom_site_fract_z
_atom_type_partial_charge
C0 C 1.02397 0.26866 1.01422 0.0
C1 C 1.01025 0.28417 0.99309 0.0
C2 C 1.02749 0.26353 0.94395 0.0
C3 C 1.01182 0.28134 0.95771 0.0
C4 C 1.03867 0.24613 0.96517 0.0
C5 C 1.03676 0.24859 1.00014 0.0
U6 U 1.04096 0.30588 0.10864 0.0
O7 O 1.0435 0.27251 0.14812 0.0
O8 O 0.08793 0.31876 0.13601 0.0
C9 C 0.07481 0.29173 0.15414 0.0
C10 C 1.03144 0.27669 0.05002 0.0
C11 C 0.09412 0.2823 0.17832 0.0
C12 C 0.12506 0.25174 0.1925 0.0
C13 C 0.10389 0.25779 0.17045 0.0
C14 C 0.12566 0.2935 0.23103 0.0
C15 C 0.13661 0.27005 0.22269 0.0
C16 C 0.10477 0.29966 0.20899 0.0
C17 C 1.01545 0.37981 0.12197 0.0
C18 C 1.02065 0.4281 0.1529 0.0
C19 C 1.00211 0.41977 0.0942 0.0
C20 C 1.00453 0.39028 0.09323 0.0
C21 C 1.01097 0.43911 0.12369 0.0
C22 C 1.02275 0.39838 0.15204 0.0
C23 C 1.02511 0.35333 0.11923 0.0
O24 O 0.05876 0.30289 0.05786 0.0
O25 O 1.00804 0.26732 0.07306 0.0
O26 O 1.00695 0.3235 0.13102 0.0
O27 O 0.05067 0.35723 0.1009 0.0
H28 H 1.00035 0.29984 1.00373 0.0
H29 H 1.00293 0.29476 0.94126 0.0
H30 H 0.05085 0.23238 0.95483 0.0
H31 H 1.04758 0.23668 1.01625 0.0
H32 H 0.133 0.23337 0.18556 0.0
H33 H 0.09596 0.24404 0.1469 0.0
H34 H 0.13397 0.30775 0.25424 0.0
H35 H 0.09745 0.31857 0.21561 0.0
H36 H 1.02771 0.44294 0.17582 0.0
H37 H 0.99461 0.42816 0.07149 0.0
H38 H 0.99928 0.37641 0.0697 0.0
H39 H 1.03181 0.3908 0.1742 0.0
C40 C 0.78429 1.00905 0.17428 0.0
C41 C 0.75745 0.99648 0.15177 0.0
C42 C 0.79576 1.01372 0.10461 0.0
C43 C 0.76328 0.99858 0.11671 0.0
C44 C 0.82223 1.02411 0.12722 0.0
C45 C 0.81645 1.0216 0.16193 0.0
U46 U 0.75874 1.02336 0.26763 0.0
O47 O 0.79177 1.02278 0.30828 0.0
O48 O 0.78889 0.06935 0.29566 0.0
C49 C 0.80208 0.05432 0.31418 0.0
C50 C 0.78133 1.0154 0.20992 0.0
C51 C 0.82755 0.07168 0.33922 0.0
C52 C 0.88475 0.09797 0.35663 0.0
C53 C 0.86061 0.0797 0.33273 0.0
C54 C 0.84253 0.09883 0.39376 0.0
C55 C 0.87567 0.10791 0.38691 0.0
C56 C 0.81854 0.08087 0.36987 0.0
C57 C 0.66254 0.99995 0.27994 0.0
C58 C 0.61975 1.00614 0.31129 0.0
C59 C 0.61132 0.98913 0.25209 0.0
C60 C 0.64239 0.99049 0.25117 0.0
C61 C 0.60003 0.99726 0.28189 0.0
C62 C 0.65125 1.0077 0.31029 0.0
C63 C 0.69704 1.00824 0.27517 0.0
O64 O 0.77971 0.04269 0.21798 0.0
O65 O 0.76849 0.99126 0.23207 0.0
O66 O 0.7104 0.99104 0.28968 0.0
O67 O 0.71662 1.03356 0.25692 0.0
H68 H 0.73246 0.98693 0.16111 0.0
H69 H 0.74268 0.99044 0.09918 0.0
H70 H 0.84739 0.03593 0.11814 0.0
H71 H 0.83731 1.03163 0.17919 0.0
H72 H 0.91039 0.10486 0.35123 0.0
H73 H 0.86773 0.0725 0.30907 0.0
H74 H 0.83529 0.10627 0.4172 0.0
H75 H 0.79299 0.07448 0.37511 0.0
H76 H 0.61122 1.01276 0.33442 0.0
H77 H 0.59643 0.98255 0.22917 0.0
H78 H 0.65129 0.98547 0.22741 0.0
H79 H 0.66711 1.01615 0.33248 0.0
C80 C 0.81834 0.74209 0.33787 0.0
C81 C 0.80366 0.71683 0.31363 0.0
C82 C 0.81445 0.75794 0.26925 0.0
C83 C 0.80205 0.72481 0.27926 0.0
C84 C 0.83168 0.78278 0.29293 0.0
C85 C 0.83372 0.77487 0.32686 0.0
U86 U 0.79188 0.71399 0.43558 0.0
O87 O 0.82553 0.74627 0.4755 0.0
O88 O 0.7761 0.74376 0.46892 0.0
C89 C 0.80392 0.75607 0.48599 0.0
C90 C 0.81291 0.73694 0.37483 0.0
C91 C 0.81274 0.78351 0.51093 0.0
C92 C 0.83755 0.842 0.52609 0.0
C93 C 0.83309 0.81668 0.50273 0.0
C94 C 0.80305 0.80135 0.56666 0.0
C95 C 0.82178 0.83454 0.55794 0.0
C96 C 0.79855 0.7762 0.54342 0.0
C97 C 0.72829 0.61639 0.44796 0.0
C98 C 0.68515 0.57252 0.48049 0.0
C99 C 0.69041 0.56558 0.42016 0.0
C100 C 0.71749 0.5967 0.41876 0.0
C101 C 0.67355 0.55357 0.45072 0.0
C102 C 0.71245 0.60381 0.47909 0.0
C103 C 0.75123 0.65173 0.44466 0.0
O104 O 0.78586 0.73569 0.388 0.0
O105 O 0.82818 0.72419 0.39385 0.0
O106 O 0.78215 0.66441 0.45462 0.0
O107 O 0.74259 0.67209 0.42898 0.0
H108 H 0.79169 0.69131 0.32148 0.0
H109 H 0.78908 0.70525 0.26112 0.0
H110 H 0.84172 0.80845 0.28574 0.0
H111 H 0.84517 0.79469 0.34512 0.0
H112 H 0.85245 0.8674 0.51884 0.0
H113 H 0.84461 0.82307 0.47798 0.0
H114 H 0.79093 0.79482 0.59112 0.0
H115 H 0.78306 0.75088 0.55054 0.0
H116 H 0.67244 0.56375 0.5044 0.0
H117 H 0.68183 0.55139 0.39695 0.0
H118 H 0.729 0.60606 0.39445 0.0
H119 H 0.71999 0.61889 0.50184 0.0
C120 C 0.07601 0.80208 0.51515 0.0
C121 C 0.08986 0.78637 0.49441 0.0
C122 C 0.07313 0.80683 0.44466 0.0
C123 C 0.08864 0.78906 0.45893 0.0
C124 C 0.06188 0.82442 0.46548 0.0
C125 C 0.06349 0.82215 0.50051 0.0
U126 U 0.06017 0.76547 0.6095 0.0
O127 O 0.05776 0.79916 0.64859 0.0
O128 O 1.01407 0.75145 0.63879 0.0
C129 C 1.02714 0.77901 0.65632 0.0
C130 C 0.06863 0.79496 0.55118 0.0
C131 C 1.00755 0.7892 0.67936 0.0
C132 C 0.9764 0.81986 0.6925 0.0
C133 C 0.99785 0.81368 0.67092 0.0
C134 C 0.97557 0.77845 0.73153 0.0
C135 C 0.96457 0.80174 0.72274 0.0
C136 C 0.99673 0.77227 0.7101 0.0
C137 C 0.08607 0.69162 0.62139 0.0
C138 C 0.07909 0.64297 0.6527 0.0
C139 C 0.09821 0.65049 0.59434 0.0
C140 C 0.09672 0.68028 0.59316 0.0
C141 C 0.089 0.63154 0.62382 0.0
C142 C 0.07734 0.67302 0.65143 0.0
C143 C 0.0793 0.71968 0.61536 0.0
O144 O 1.04133 0.76886 0.55921 0.0
O145 O 0.09228 0.80432 0.57412 0.0
O146 O 0.09367 0.74739 0.6327 0.0
O147 O 0.05386 0.71599 0.59696 0.0
H148 H 0.09968 0.77076 0.50537 0.0
H149 H 0.09762 0.77552 0.44277 0.0
H150 H 1.04986 0.83818 0.45476 0.0
H151 H 0.0527 0.83433 0.51626 0.0
H152 H 0.9685 0.83818 0.6852 0.0
H153 H 1.006 0.82726 0.64738 0.0
H154 H 0.96714 0.76436 0.75473 0.0
H155 H 1.0041 0.75351 0.71724 0.0
H156 H 0.07179 0.62827 0.67563 0.0
H157 H 0.1057 0.64184 0.57183 0.0
H158 H 0.10273 0.69398 0.56954 0.0
H159 H 0.06829 0.68109 0.67318 0.0
C160 C 0.31687 0.06228 0.67439 0.0
C161 C 0.34364 0.07457 0.652 0.0
C162 C 0.30515 0.05685 0.6048 0.0
C163 C 0.33767 0.07209 0.61695 0.0
C164 C 0.27875 0.04679 0.62728 0.0
C165 C 0.28466 0.04969 0.66198 0.0
U166 U 0.34254 0.04777 0.76763 0.0
O167 O 0.30965 0.04856 0.80819 0.0
O168 O 0.31276 1.0021 0.796 0.0
C169 C 0.29962 1.01716 0.81446 0.0
C170 C 0.31993 0.056 0.70995 0.0
C171 C 0.27424 0.99993 0.83957 0.0
C172 C 0.217 0.97331 0.85666 0.0
C173 C 0.2411 0.99167 0.83293 0.0
C174 C 0.25929 0.97254 0.89394 0.0
C175 C 0.22612 0.9634 0.88698 0.0
C176 C 0.28326 0.99061 0.8702 0.0
C177 C 0.43844 0.07044 0.78004 0.0
C178 C 0.48175 0.06519 0.81139 0.0
C179 C 0.48969 0.082 0.75219 0.0
C180 C 0.4583 0.08011 0.75112 0.0
C181 C 0.50119 0.07397 0.78204 0.0
C182 C 0.45033 0.06352 0.81038 0.0
C183 C 0.40375 0.06196 0.77714 0.0
O184 O 0.32127 1.02857 0.71792 0.0
O185 O 0.3332 0.08022 0.73208 0.0
O186 O 0.3913 0.08105 0.789 0.0
O187 O 0.38396 0.03638 0.75907 0.0
H188 H 0.36866 0.08413 0.66143 0.0
H189 H 0.3582 0.08 0.59948 0.0
H190 H 0.25356 1.03491 0.61813 0.0
H191 H 0.26388 0.03989 0.67921 0.0
H192 H 0.19134 0.96634 0.85111 0.0
H193 H 0.2339 0.99878 0.80924 0.0
H194 H 0.26658 0.96508 0.91737 0.0
H195 H 0.30882 0.99698 0.87555 0.0
H196 H 0.4904 0.05876 0.83458 0.0
H197 H 0.50459 0.08872 0.72939 0.0
H198 H 0.44908 0.08495 0.72743 0.0
H199 H 0.43475 0.05532 0.83265 0.0
C200 C 0.28472 0.32873 0.83831 0.0
C201 C 0.29871 0.35435 0.81438 0.0
C202 C 0.28713 0.31376 0.769 0.0
C203 C 0.29962 0.34678 0.77967 0.0
C204 C 0.27006 0.2887 0.79236 0.0
C205 C 0.26871 0.29619 0.82659 0.0
U206 U 0.31105 0.35735 0.9359 0.0
O207 O 0.27461 0.32405 0.97283 0.0
O208 O 0.32595 0.32914 0.97188 0.0
C209 C 0.29663 0.31586 0.98644 0.0
C210 C 0.29044 0.33314 0.87553 0.0
C211 C 0.28706 0.28803 1.01097 0.0
C212 C 0.26339 0.22937 1.02505 0.0
C213 C 0.26723 0.25484 1.00216 0.0
C214 C 0.29782 0.26983 0.0661 0.0
C215 C 0.27933 0.23669 0.05697 0.0
C216 C 0.30155 0.29508 0.04344 0.0
C217 C 0.37393 0.45406 0.94768 0.0
C218 C 0.41732 0.49838 0.98 0.0
C219 C 0.41195 0.50482 0.91963 0.0
C220 C 0.38509 0.47373 0.91839 0.0
C221 C 0.42863 0.51721 0.95019 0.0
C222 C 0.38996 0.46696 0.97883 0.0
C223 C 0.34279 0.423 0.94451 0.0
O224 O 0.31864 0.33616 0.88841 0.0
O225 O 0.27361 0.34394 0.89507 0.0
O226 O 0.32988 0.40265 0.96928 0.0
O227 O 0.33904 0.4073 0.91645 0.0
H228 H 0.31073 0.37978 0.82264 0.0
H229 H 0.31226 0.36656 0.76177 0.0
H230 H 0.25977 0.26311 0.78469 0.0
H231 H 0.25736 0.27614 0.84449 0.0
H232 H 0.2488 0.20398 1.01743 0.0
H233 H 0.25575 0.24856 0.97731 0.0
H234 H 0.31024 0.27628 0.09049 0.0
H235 H 0.31692 0.32037 0.05092 0.0
H236 H 0.42974 0.5078 1.00401 0.0
H237 H 0.41991 0.51907 0.89645 0.0
H238 H 0.37258 0.46526 0.89424 0.0
H239 H 0.38133 0.45302 1.00209 0.0
C240 C 0.81441 0.05821 0.87222 0.0
C241 C 0.80009 0.07347 0.89292 0.0
C242 C 0.82217 0.05816 0.94237 0.0
C243 C 0.80404 0.07341 0.92832 0.0
C244 C 0.83953 0.04683 0.92132 0.0
C245 C 0.83591 0.04722 0.88636 0.0
U246 U 0.77679 0.04112 0.77845 0.0
O247 O 0.81826 0.04338 0.74546 0.0
O248 O 0.76765 1.00428 0.73938 0.0
C249 C 0.79779 1.01754 0.7279 0.0
C250 C 0.80499 0.04873 0.83689 0.0
C251 C 0.80683 0.99513 0.70761 0.0
C252 C 0.83521 0.96145 0.69596 0.0
C253 C 0.83026 0.98424 0.71691 0.0
C254 C 0.79371 0.96043 0.65679 0.0
C255 C 0.81679 0.9493 0.66574 0.0
C256 C 0.78879 0.98285 0.67744 0.0
C257 C 0.70627 0.06938 0.76536 0.0
C258 C 0.65657 0.0635 0.73611 0.0
C259 C 0.6665 0.08221 0.79463 0.0
C260 C 0.69623 0.08004 0.79464 0.0
C261 C 0.64658 0.07371 0.76553 0.0
C262 C 0.6862 0.06129 0.73608 0.0
C263 C 0.73916 0.07057 0.76239 0.0
O264 O 0.77731 1.02176 0.82966 0.0
O265 O 0.81628 0.07171 0.81311 0.0
O266 O 0.73986 0.0463 0.7464 0.0
O267 O 0.75944 0.0793 0.78773 0.0
H268 H 0.78412 0.08296 0.88213 0.0
H269 H 0.79094 0.08277 0.94461 0.0
H270 H 0.85379 1.03528 0.93188 0.0
H271 H 0.84775 0.03619 0.87047 0.0
H272 H 0.8532 0.95316 0.70343 0.0
H273 H 0.84436 0.99297 0.74016 0.0
H274 H 0.77917 0.95162 0.63379 0.0
H275 H 0.77044 0.99061 0.66974 0.0
H276 H 0.64145 0.05705 0.71335 0.0
H277 H 0.65894 0.09033 0.81745 0.0
H278 H 0.71145 0.08713 0.81728 0.0
H279 H 0.69378 0.05384 0.71285 0.0
C280 C 0.75659 0.79869 0.04943 0.0
C281 C 0.73155 0.78648 0.07396 0.0
C282 C 0.77302 0.79961 0.1184 0.0
C283 C 0.73981 0.78693 0.10849 0.0
C284 C 0.79769 0.81589 0.09435 0.0
C285 C 0.78947 0.81552 0.06006 0.0
U286 U 0.72892 0.77605 0.95052 0.0
O287 O 0.76357 0.8152 0.91523 0.0
O288 O 0.75594 0.76404 0.91147 0.0
C289 C 0.76987 0.79354 0.89849 0.0
C290 C 0.74995 0.79206 1.01281 0.0
C291 C 0.79863 0.8016 0.87553 0.0
C292 C 0.85738 0.82335 0.86243 0.0
C293 C 0.83185 0.8205 0.88486 0.0
C294 C 0.81698 0.78873 0.82144 0.0
C295 C 0.8501 0.80713 0.83062 0.0
C296 C 0.79175 0.786 0.84356 0.0
C297 C 0.63205 0.71332 0.9374 0.0
C298 C 0.58642 0.66862 0.90801 0.0
C299 C 0.58285 0.67671 0.96839 0.0
C300 C 0.61433 0.70385 0.96795 0.0
C301 C 0.569 0.65863 0.93856 0.0
C302 C 0.61762 0.69564 0.90754 0.0
C303 C 0.66657 0.73903 0.93482 0.0
O304 O 0.74792 0.76496 0.99838 0.0
O305 O 0.7395 0.80954 0.9943 0.0
O306 O 0.68926 0.72892 0.93403 0.0
O307 O 0.67698 0.76904 0.94691 0.0
H308 H 0.70591 0.77457 0.0663 0.0
H309 H 0.72038 0.77506 0.12694 0.0
H310 H 0.82343 0.82658 0.1016 0.0
H311 H 0.80901 0.82628 0.04152 0.0
H312 H 0.88278 0.83772 0.87018 0.0
H313 H 0.83806 0.83241 0.90949 0.0
H314 H 0.8105 0.77592 0.79727 0.0
H315 H 0.76645 0.77086 0.83586 0.0
H316 H 0.57631 0.6551 0.88468 0.0
H317 H 0.56965 0.66929 0.99222 0.0
H318 H 0.62499 0.71682 0.99138 0.0
H319 H 0.63098 0.70232 0.88374 0.0
C320 C 1.02406 0.76946 0.21233 0.0
C321 C 1.01157 0.74256 0.23462 0.0
C322 C 1.02886 0.78078 0.28208 0.0
C323 C 1.01374 0.74834 0.26973 0.0
C324 C 1.0391 0.80727 0.25968 0.0
C325 C 1.03651 0.80156 0.22494 0.0
U326 U 1.03842 0.74374 0.11912 0.0
O327 O 1.03791 0.77671 0.07855 0.0
O328 O 0.08425 0.77318 0.09066 0.0
C329 C 0.06926 0.78649 0.07222 0.0
C330 C 1.03051 0.76673 0.17668 0.0
C331 C 0.0866 0.81205 0.04734 0.0
C332 C 0.11283 0.86924 0.03014 0.0
C333 C 0.09461 0.84512 0.05393 0.0
C334 C 0.11366 0.82703 0.99286 0.0
C335 C 0.12274 0.86016 0.99982 0.0
C336 C 0.09576 0.80306 1.01664 0.0
C337 C 1.01472 0.64744 0.10716 0.0
C338 C 1.02158 0.6049 0.07592 0.0
C339 C 1.00439 0.59644 0.13495 0.0
C340 C 1.00543 0.62738 0.1359 0.0
C341 C 1.01269 0.58521 0.10521 0.0
C342 C 1.02288 0.63629 0.07696 0.0
C343 C 1.02298 0.68192 0.11206 0.0
O344 O 0.05785 0.76516 0.16877 0.0
O345 O 1.00636 0.75374 0.15439 0.0
O346 O 1.00583 0.69524 0.09729 0.0
O347 O 1.04835 0.70159 0.13035 0.0
H348 H 1.00207 0.7176 0.22508 0.0
H349 H 1.00567 0.72772 0.28711 0.0
H350 H 0.05088 0.83241 0.26895 0.0
H351 H 1.04643 0.82245 0.20785 0.0
H352 H 0.11971 0.89487 0.03565 0.0
H353 H 0.08744 0.85227 0.07759 0.0
H354 H 0.12106 0.81976 0.96941 0.0
H355 H 0.08938 0.77752 1.01128 0.0
H356 H 1.02836 0.59644 0.05284 0.0
H357 H 0.99786 0.5816 0.1578 0.0
H358 H 1.00031 0.63625 0.15964 0.0
H359 H 1.03142 0.65218 0.05492 0.0
C360 C 0.28383 1.00872 0.37233 0.0
C361 C 0.29936 0.99494 0.39336 0.0
C362 C 0.27894 1.01223 0.44259 0.0
C363 C 0.29663 0.99648 0.42875 0.0
C364 C 0.26152 1.02348 0.42148 0.0
C365 C 0.26384 1.02156 0.3865 0.0
U366 U 0.32083 1.02609 0.27795 0.0
O367 O 0.28745 1.02859 0.23827 0.0
O368 O 0.33325 0.07322 0.25142 0.0
C369 C 0.30632 0.06007 0.23296 0.0
C370 C 0.29188 1.01629 0.33661 0.0
C371 C 0.29706 0.07937 0.20856 0.0
C372 C 0.26648 0.11025 0.19403 0.0
C373 C 0.27251 0.08915 0.21615 0.0
C374 C 0.30835 0.11079 0.15589 0.0
C375 C 0.28485 0.12177 0.16397 0.0
C376 C 0.31452 0.08999 0.17803 0.0
C377 C 0.39471 1.00052 0.26458 0.0
C378 C 0.44293 1.00512 0.23414 0.0
C379 C 0.43429 0.98681 0.2928 0.0
C380 C 0.40492 0.98954 0.29346 0.0
C381 C 0.45374 0.99544 0.26349 0.0
C382 C 0.41336 1.0075 0.23469 0.0
C383 C 0.36831 1.01038 0.26675 0.0
O384 O 0.31811 0.04359 0.32903 0.0
O385 O 0.28237 0.99303 0.3133 0.0
O386 O 0.33828 0.99194 0.25539 0.0
O387 O 0.37233 0.03604 0.28508 0.0
H388 H 0.31501 0.98505 0.38266 0.0
H389 H 0.3101 0.98758 0.44513 0.0
H390 H 0.24788 0.03574 0.43192 0.0
H391 H 0.25193 1.03244 0.37047 0.0
H392 H 0.24806 0.11817 0.20082 0.0
H393 H 0.25869 0.08127 0.23958 0.0
H394 H 0.32265 0.11903 0.1328 0.0
H395 H 0.33346 0.08268 0.17159 0.0
H396 H 0.45785 1.01197 0.21135 0.0
H397 H 0.44251 0.97929 0.31561 0.0
H398 H 0.39096 0.98446 0.31684 0.0
H399 H 0.40595 1.01654 0.2124 0.0
C400 C 0.34443 0.26783 0.54928 0.0
C401 C 0.36975 0.28256 0.57346 0.0
C402 C 0.32878 0.27207 0.61793 0.0
C403 C 0.36188 0.28435 0.60781 0.0
C404 C 0.30385 0.25481 0.59429 0.0
C405 C 0.31166 0.25259 0.56035 0.0
U406 U 0.37228 0.29437 0.45143 0.0
O407 O 0.34019 0.26103 0.41132 0.0
O408 O 0.34166 0.30995 0.41907 0.0
C409 C 0.32976 0.28239 0.40157 0.0
C410 C 0.34961 0.27338 0.51231 0.0
C411 C 0.30271 0.27374 0.37627 0.0
C412 C 0.24434 0.24887 0.3608 0.0
C413 C 0.26954 0.25331 0.38428 0.0
C414 C 0.28517 0.28356 0.32044 0.0
C415 C 0.25195 0.26473 0.32902 0.0
C416 C 0.31023 0.28807 0.34384 0.0
C417 C 0.46978 0.3579 0.43864 0.0
C418 C 0.51421 0.40118 0.40688 0.0
C419 C 0.52023 0.39559 0.46734 0.0
C420 C 0.48892 0.36861 0.46829 0.0
C421 C 0.53273 0.4126 0.4369 0.0
C422 C 0.48297 0.37389 0.40776 0.0
C423 C 0.43432 0.33495 0.44065 0.0
O424 O 0.35108 0.30056 0.49928 0.0
O425 O 0.36217 0.25803 0.49316 0.0
O426 O 0.42166 0.30389 0.43119 0.0
O427 O 0.41426 0.34332 0.45719 0.0
H428 H 0.39526 0.29447 0.56554 0.0
H429 H 0.38153 0.29736 0.62586 0.0
H430 H 0.2782 0.24488 0.60151 0.0
H431 H 0.29178 0.24116 0.54213 0.0
H432 H 0.2189 0.23393 0.3679 0.0
H433 H 0.26305 0.24173 0.40899 0.0
H434 H 0.29176 0.29576 0.29602 0.0
H435 H 0.33559 0.30363 0.33692 0.0
H436 H 0.52331 0.414 0.38308 0.0
H437 H 0.53415 0.40402 0.49075 0.0
H438 H 0.47908 0.35703 0.49246 0.0
H439 H 0.46833 0.36645 0.3847 0.0
C440 C 0.07314 0.30215 0.71278 0.0
C441 C 0.08761 0.32844 0.73562 0.0
C442 C 0.07175 0.28928 0.78177 0.0
C443 C 0.08675 0.32193 0.77037 0.0
C444 C 0.06114 0.26323 0.75853 0.0
C445 C 0.06209 0.26974 0.72394 0.0
U446 U 0.05803 0.32635 0.61899 0.0
O447 O 0.05696 0.28137 0.59417 0.0
O448 O 1.04216 0.31252 0.56688 0.0
C449 C 1.04552 0.28608 0.56572 0.0
C450 C 0.06596 0.30726 0.67799 0.0
C451 C 1.01904 0.25918 0.5469 0.0
C452 C 0.98785 0.20155 0.53171 0.0
C453 C 1.00865 0.2258 0.55442 0.0
C454 C 0.98712 0.24373 0.49456 0.0
C455 C 0.97752 0.21066 0.50161 0.0
C456 C 1.00755 0.26775 0.51707 0.0
C457 C 0.0837 0.42216 0.6062 0.0
C458 C 0.07846 0.4669 0.57764 0.0
C459 C 0.09547 0.47237 0.63679 0.0
C460 C 0.09331 0.44068 0.63621 0.0
C461 C 0.08775 0.4853 0.60763 0.0
C462 C 0.07639 0.43545 0.57702 0.0
C463 C 0.0782 0.38807 0.60366 0.0
O464 O 1.03739 0.30701 0.66947 0.0
O465 O 0.09033 0.31986 0.65584 0.0
O466 O 1.04724 0.36604 0.60251 0.0
O467 O 0.09846 0.3775 0.61672 0.0
H468 H 0.09709 0.35365 0.72694 0.0
H469 H 0.09542 0.3422 0.78831 0.0
H470 H 1.04989 0.23791 0.76714 0.0
H471 H 0.05184 0.24936 0.70614 0.0
H472 H 0.98037 0.17585 0.53728 0.0
H473 H 1.0174 0.21854 0.57699 0.0
H474 H 0.97933 0.25106 0.47134 0.0
H475 H 1.01555 0.29329 0.51025 0.0
H476 H 0.07231 0.47654 0.55498 0.0
H477 H 0.10259 0.48658 0.66012 0.0
H478 H 0.0986 0.4306 0.65902 0.0
H479 H 0.06854 0.42116 0.55375 0.0
C480 C 0.18088 0.26414 0.2636 0.0
C481 C 0.16076 0.26619 0.24444 0.0
C482 C 0.2051 0.26318 0.2864 0.0
C483 C 0.22604 0.26359 0.3061 0.0
C484 C 0.93998 0.16754 0.45631 0.0
C485 C 0.95709 0.1864 0.47761 0.0
C486 C 0.91911 0.14633 0.43139 0.0
C487 C 0.90016 0.12881 0.41042 0.0
C488 C 0.82233 0.90513 0.62423 0.0
C489 C 0.82066 0.92517 0.64384 0.0
C490 C 0.82324 0.88122 0.60086 0.0
C491 C 0.82298 0.86049 0.58091 0.0
C492 C 0.92036 0.80744 0.76399 0.0
C493 C 0.94043 0.80575 0.74446 0.0
C494 C 0.89653 0.80826 0.78753 0.0
C495 C 0.87602 0.80822 0.80764 0.0
C496 C 0.16109 0.90378 0.95562 0.0
C497 C 0.1436 0.88466 0.9764 0.0
C498 C 0.18246 0.9251 0.93119 0.0
C499 C 0.20162 0.94256 0.91043 0.0
C500 C 0.27807 0.18998 0.09966 0.0
C501 C 0.27824 0.21072 0.07981 0.0
C502 C 0.27903 0.16594 0.12276 0.0
C503 C 0.281 0.14587 0.14208 0.0
C504 C 1.01199 0.49717 0.11831 0.0
C505 C 1.01207 0.47107 0.12263 0.0
C506 C 1.01246 0.5276 0.11107 0.0
C507 C 1.01318 0.55398 0.10618 0.0
C508 C 0.51177 0.99631 0.26911 0.0
C509 C 0.48565 0.99641 0.26484 0.0
C510 C 0.54229 0.99685 0.27619 0.0
C511 C 0.56873 0.99762 0.28094 0.0
C512 C 0.61872 0.49702 0.44663 0.0
C513 C 0.64342 0.52282 0.45025 0.0
C514 C 0.58925 0.46748 0.44103 0.0
C515 C 0.56348 0.44272 0.43756 0.0
C516 C 0.0887 0.54338 0.6126 0.0
C517 C 0.08795 0.51683 0.60917 0.0
C518 C 0.08874 0.57381 0.61868 0.0
C519 C 0.08826 0.59974 0.62294 0.0
C520 C 0.55883 0.0742 0.77717 0.0
C521 C 0.53243 0.07356 0.78137 0.0
C522 C 0.58928 0.07449 0.7707 0.0
C523 C 0.61511 0.07371 0.76691 0.0
C524 C 0.48256 0.5745 0.94664 0.0
C525 C 0.45822 0.54838 0.94975 0.0
C526 C 0.51203 0.6042 0.94226 0.0
C527 C 0.53798 0.62886 0.93981 0.0
C528 C 1.04396 0.26983 0.87946 0.0
C529 C 1.03654 0.26683 0.90891 0.0
C530 C 0.05456 0.27597 0.84568 0.0
C531 C 0.06254 0.28234 0.81658 0.0
C532 C 0.81535 0.04158 1.00688 0.0
C533 C 0.81866 0.049 0.97742 0.0
C534 C 0.80877 1.03078 0.04059 0.0
C535 C 0.80232 1.02277 0.06969 0.0
C536 C 0.79961 0.77545 0.20945 0.0
C537 C 0.80602 0.76682 0.23647 0.0
C538 C 0.79031 0.78511 0.17843 0.0
C539 C 0.78196 0.79147 0.15123 0.0
C540 C 1.046 0.79376 0.34619 0.0
C541 C 1.03796 0.78733 0.31704 0.0
C542 C 0.05667 0.80013 0.38001 0.0
C543 C 0.06416 0.80322 0.4095 0.0
C544 C 0.29201 0.0393 0.5409 0.0
C545 C 0.29849 0.04752 0.56997 0.0
C546 C 0.28562 1.02867 0.50713 0.0
C547 C 0.28242 1.02128 0.47766 0.0
C548 C 0.31154 0.28718 0.67782 0.0
C549 C 0.32003 0.28063 0.65075 0.0
C550 C 0.30204 0.29669 0.70889 0.0
C551 C 0.29562 0.30517 0.73604 0.0
loop_
_geom_bond_atom_site_label_1
_geom_bond_atom_site_label_2
_geom_bond_distance
_geom_bond_site_symmetry_2
_ccdc_geom_bond_type
C0 C1 1.264 . S
C0 C5 1.479 . S
C0 C10 1.465 1_556 S
C1 C0 1.264 . S
C1 C3 1.339 . S
C1 H28 0.931 . S
C2 C3 1.395 . S
C2 C4 1.320 . S
C3 C1 1.339 . S
C3 C2 1.395 . S
C3 H29 0.929 . S
C4 C2 1.320 . S
C4 C5 1.405 . S
C4 H30 0.930 . S
C5 C0 1.479 . S
C5 C4 1.405 . S
C5 H31 0.931 . S
U6 O7 2.454 1_655 S
U6 O8 2.458 1_655 S
U6 C9 2.984 1_655 S
U6 C10 2.847 . S
U6 C23 2.882 . S
U6 O24 2.441 . S
U6 O25 2.420 . S
U6 O26 2.455 . S
U6 O27 2.449 . S
O7 U6 2.454 1_455 S
O7 C9 1.353 . S
O8 U6 2.458 1_455 S
O8 C9 1.286 . S
C9 U6 2.984 1_455 S
C9 O7 1.353 . S
C9 O8 1.286 . S
C9 C11 1.363 . S
C10 C0 1.465 1_554 S
C10 U6 2.847 . S
C10 O24 1.249 . S
C10 O25 1.202 . S
C11 C9 1.363 . S
C11 C13 1.408 . S
C11 C16 1.342 . S
C12 C13 1.310 . S
C12 C15 1.461 . S
C12 H32 0.932 . S
C13 C11 1.408 . S
C13 C12 1.310 . S
C13 H33 0.930 . S
C14 C15 1.474 . S
C14 C16 1.285 . S
C14 H34 0.929 . S
C15 C12 1.461 . S
C15 C14 1.474 . S
C16 C11 1.342 . S
C16 C14 1.285 . S
C16 H35 0.930 . S
C17 C20 1.424 . S
C17 C22 1.245 . S
C17 C23 1.428 . S
C18 C21 1.260 . S
C18 C22 1.477 . S
C18 H36 0.932 . S
C19 C20 1.384 . S
C19 C21 1.479 . S
C19 H37 0.929 . S
C20 C17 1.424 . S
C20 C19 1.384 . S
C20 H38 0.928 . S
C21 C18 1.260 . S
C21 C19 1.479 . S
C22 C17 1.245 . S
C22 C18 1.477 . S
C22 H39 0.932 . S
C23 U6 2.882 . S
C23 C17 1.428 . S
C23 O26 1.301 . S
C23 O27 1.282 . S
O24 U6 2.441 . S
O24 C10 1.249 . S
O25 U6 2.420 . S
O25 C10 1.202 . S
O26 U6 2.455 . S
O26 C23 1.301 . S
O27 U6 2.449 . S
O27 C23 1.282 . S
H28 C1 0.931 . S
H29 C3 0.929 . S
H30 C4 0.930 . S
H31 C5 0.931 . S
H32 C12 0.932 . S
H33 C13 0.930 . S
H34 C14 0.929 . S
H35 C16 0.930 . S
H36 C18 0.932 . S
H37 C19 0.929 . S
H38 C20 0.928 . S
H39 C22 0.932 . S
C40 C41 1.264 . S
C40 C45 1.479 . S
C40 C50 1.465 . S
C41 C40 1.264 . S
C41 C43 1.339 . S
C41 H68 0.931 . S
C42 C43 1.395 . S
C42 C44 1.320 . S
C43 C41 1.339 . S
C43 C42 1.395 . S
C43 H69 0.929 . S
C44 C42 1.320 . S
C44 C45 1.405 . S
C44 H70 0.930 . S
C45 C40 1.479 . S
C45 C44 1.405 . S
C45 H71 0.931 . S
U46 O47 2.454 1_565 S
U46 O48 2.458 1_565 S
U46 C49 2.984 1_565 S
U46 C50 2.847 . S
U46 C63 2.882 . S
U46 O64 2.441 . S
U46 O65 2.420 . S
U46 O66 2.455 . S
U46 O67 2.449 . S
O47 U46 2.454 1_545 S
O47 C49 1.353 . S
O48 U46 2.458 1_545 S
O48 C49 1.286 . S
C49 U46 2.984 1_545 S
C49 O47 1.353 . S
C49 O48 1.286 . S
C49 C51 1.363 . S
C50 C40 1.465 . S
C50 U46 2.847 . S
C50 O64 1.249 . S
C50 O65 1.202 . S
C51 C49 1.363 . S
C51 C53 1.408 . S
C51 C56 1.342 . S
C52 C53 1.310 . S
C52 C55 1.461 . S
C52 H72 0.932 . S
C53 C51 1.408 . S
C53 C52 1.310 . S
C53 H73 0.930 . S
C54 C55 1.474 . S
C54 C56 1.285 . S
C54 H74 0.929 . S
C55 C52 1.461 . S
C55 C54 1.474 . S
C56 C51 1.342 . S
C56 C54 1.285 . S
C56 H75 0.930 . S
C57 C60 1.424 . S
C57 C62 1.245 . S
C57 C63 1.428 . S
C58 C61 1.260 . S
C58 C62 1.477 . S
C58 H76 0.932 . S
C59 C60 1.384 . S
C59 C61 1.479 . S
C59 H77 0.929 . S
C60 C57 1.424 . S
C60 C59 1.384 . S
C60 H78 0.928 . S
C61 C58 1.260 . S
C61 C59 1.479 . S
C62 C57 1.245 . S
C62 C58 1.477 . S
C62 H79 0.932 . S
C63 U46 2.882 . S
C63 C57 1.428 . S
C63 O66 1.301 . S
C63 O67 1.282 . S
O64 U46 2.441 . S
O64 C50 1.249 . S
O65 U46 2.420 . S
O65 C50 1.202 . S
O66 U46 2.455 . S
O66 C63 1.301 . S
O67 U46 2.449 . S
O67 C63 1.282 . S
H68 C41 0.931 . S
H69 C43 0.929 . S
H70 C44 0.930 . S
H71 C45 0.931 . S
H72 C52 0.932 . S
H73 C53 0.930 . S
H74 C54 0.929 . S
H75 C56 0.930 . S
H76 C58 0.932 . S
H77 C59 0.929 . S
H78 C60 0.928 . S
H79 C62 0.932 . S
C80 C81 1.264 . S
C80 C85 1.479 . S
C80 C90 1.465 . S
C81 C80 1.264 . S
C81 C83 1.339 . S
C81 H108 0.931 . S
C82 C83 1.395 . S
C82 C84 1.320 . S
C83 C81 1.339 . S
C83 C82 1.395 . S
C83 H109 0.929 . S
C84 C82 1.320 . S
C84 C85 1.405 . S
C84 H110 0.930 . S
C85 C80 1.479 . S
C85 C84 1.405 . S
C85 H111 0.931 . S
U86 O87 2.454 . S
U86 O88 2.458 . S
U86 C89 2.984 . S
U86 C90 2.847 . S
U86 C103 2.882 . S
U86 O104 2.441 . S
U86 O105 2.420 . S
U86 O106 2.455 . S
U86 O107 2.449 . S
O87 U86 2.454 . S
O87 C89 1.353 . S
O88 U86 2.458 . S
O88 C89 1.286 . S
C89 U86 2.984 . S
C89 O87 1.353 . S
C89 O88 1.286 . S
C89 C91 1.363 . S
C90 C80 1.465 . S
C90 U86 2.847 . S
C90 O104 1.249 . S
C90 O105 1.202 . S
C91 C89 1.363 . S
C91 C93 1.408 . S
C91 C96 1.342 . S
C92 C93 1.310 . S
C92 C95 1.461 . S
C92 H112 0.932 . S
C93 C91 1.408 . S
C93 C92 1.310 . S
C93 H113 0.930 . S
C94 C95 1.474 . S
C94 C96 1.285 . S
C94 H114 0.929 . S
C95 C92 1.461 . S
C95 C94 1.474 . S
C96 C91 1.342 . S
C96 C94 1.285 . S
C96 H115 0.930 . S
C97 C100 1.424 . S
C97 C102 1.245 . S
C97 C103 1.428 . S
C98 C101 1.260 . S
C98 C102 1.477 . S
C98 H116 0.932 . S
C99 C100 1.384 . S
C99 C101 1.479 . S
C99 H117 0.929 . S
C100 C97 1.424 . S
C100 C99 1.384 . S
C100 H118 0.928 . S
C101 C98 1.260 . S
C101 C99 1.479 . S
C102 C97 1.245 . S
C102 C98 1.477 . S
C102 H119 0.932 . S
C103 U86 2.882 . S
C103 C97 1.428 . S
C103 O106 1.301 . S
C103 O107 1.282 . S
O104 U86 2.441 . S
O104 C90 1.249 . S
O105 U86 2.420 . S
O105 C90 1.202 . S
O106 U86 2.455 . S
O106 C103 1.301 . S
O107 U86 2.449 . S
O107 C103 1.282 . S
H108 C81 0.931 . S
H109 C83 0.929 . S
H110 C84 0.930 . S
H111 C85 0.931 . S
H112 C92 0.932 . S
H113 C93 0.930 . S
H114 C94 0.929 . S
H115 C96 0.930 . S
H116 C98 0.932 . S
H117 C99 0.929 . S
H118 C100 0.928 . S
H119 C102 0.932 . S
C120 C121 1.264 . S
C120 C125 1.479 . S
C120 C130 1.465 . S
C121 C120 1.264 . S
C121 C123 1.339 . S
C121 H148 0.931 . S
C122 C123 1.395 . S
C122 C124 1.320 . S
C123 C121 1.339 . S
C123 C122 1.395 . S
C123 H149 0.929 . S
C124 C122 1.320 . S
C124 C125 1.405 . S
C124 H150 0.930 . S
C125 C120 1.479 . S
C125 C124 1.405 . S
C125 H151 0.931 . S
U126 O127 2.454 1_455 S
U126 O128 2.458 1_455 S
U126 C129 2.984 1_455 S
U126 C130 2.847 . S
U126 C143 2.882 . S
U126 O144 2.441 . S
U126 O145 2.420 . S
U126 O146 2.455 . S
U126 O147 2.449 . S
O127 U126 2.454 1_655 S
O127 C129 1.353 . S
O128 U126 2.458 1_655 S
O128 C129 1.286 . S
C129 U126 2.984 1_655 S
C129 O127 1.353 . S
C129 O128 1.286 . S
C129 C131 1.363 . S
C130 C120 1.465 . S
C130 U126 2.847 . S
C130 O144 1.249 . S
C130 O145 1.202 . S
C131 C129 1.363 . S
C131 C133 1.408 . S
C131 C136 1.342 . S
C132 C133 1.310 . S
C132 C135 1.461 . S
C132 H152 0.932 . S
C133 C131 1.408 . S
C133 C132 1.310 . S
C133 H153 0.930 . S
C134 C135 1.474 . S
C134 C136 1.285 . S
C134 H154 0.929 . S
C135 C132 1.461 . S
C135 C134 1.474 . S
C136 C131 1.342 . S
C136 C134 1.285 . S
C136 H155 0.930 . S
C137 C140 1.424 . S
C137 C142 1.245 . S
C137 C143 1.428 . S
C138 C141 1.260 . S
C138 C142 1.477 . S
C138 H156 0.932 . S
C139 C140 1.384 . S
C139 C141 1.479 . S
C139 H157 0.929 . S
C140 C137 1.424 . S
C140 C139 1.384 . S
C140 H158 0.928 . S
C141 C138 1.260 . S
C141 C139 1.479 . S
C142 C137 1.245 . S
C142 C138 1.477 . S
C142 H159 0.932 . S
C143 U126 2.882 . S
C143 C137 1.428 . S
C143 O146 1.301 . S
C143 O147 1.282 . S
O144 U126 2.441 . S
O144 C130 1.249 . S
O145 U126 2.420 . S
O145 C130 1.202 . S
O146 U126 2.455 . S
O146 C143 1.301 . S
O147 U126 2.449 . S
O147 C143 1.282 . S
H148 C121 0.931 . S
H149 C123 0.929 . S
H150 C124 0.930 . S
H151 C125 0.931 . S
H152 C132 0.932 . S
H153 C133 0.930 . S
H154 C134 0.929 . S
H155 C136 0.930 . S
H156 C138 0.932 . S
H157 C139 0.929 . S
H158 C140 0.928 . S
H159 C142 0.932 . S
C160 C161 1.264 . S
C160 C165 1.479 . S
C160 C170 1.465 . S
C161 C160 1.264 . S
C161 C163 1.339 . S
C161 H188 0.931 . S
C162 C163 1.395 . S
C162 C164 1.320 . S
C163 C161 1.339 . S
C163 C162 1.395 . S
C163 H189 0.929 . S
C164 C162 1.320 . S
C164 C165 1.405 . S
C164 H190 0.930 . S
C165 C160 1.479 . S
C165 C164 1.405 . S
C165 H191 0.931 . S
U166 O167 2.454 1_545 S
U166 O168 2.458 1_545 S
U166 C169 2.984 1_545 S
U166 C170 2.847 . S
U166 C183 2.882 . S
U166 O184 2.441 . S
U166 O185 2.420 . S
U166 O186 2.455 . S
U166 O187 2.449 . S
O167 U166 2.454 1_565 S
O167 C169 1.353 . S
O168 U166 2.458 1_565 S
O168 C169 1.286 . S
C169 U166 2.984 1_565 S
C169 O167 1.353 . S
C169 O168 1.286 . S
C169 C171 1.363 . S
C170 C160 1.465 . S
C170 U166 2.847 . S
C170 O184 1.249 . S
C170 O185 1.202 . S
C171 C169 1.363 . S
C171 C173 1.408 . S
C171 C176 1.342 . S
C172 C173 1.310 . S
C172 C175 1.461 . S
C172 H192 0.932 . S
C173 C171 1.408 . S
C173 C172 1.310 . S
C173 H193 0.930 . S
C174 C175 1.474 . S
C174 C176 1.285 . S
C174 H194 0.929 . S
C175 C172 1.461 . S
C175 C174 1.474 . S
C176 C171 1.342 . S
C176 C174 1.285 . S
C176 H195 0.930 . S
C177 C180 1.424 . S
C177 C182 1.245 . S
C177 C183 1.428 . S
C178 C181 1.260 . S
C178 C182 1.477 . S
C178 H196 0.932 . S
C179 C180 1.384 . S
C179 C181 1.479 . S
C179 H197 0.929 . S
C180 C177 1.424 . S
C180 C179 1.384 . S
C180 H198 0.928 . S
C181 C178 1.260 . S
C181 C179 1.479 . S
C182 C177 1.245 . S
C182 C178 1.477 . S
C182 H199 0.932 . S
C183 U166 2.882 . S
C183 C177 1.428 . S
C183 O186 1.301 . S
C183 O187 1.282 . S
O184 U166 2.441 . S
O184 C170 1.249 . S
O185 U166 2.420 . S
O185 C170 1.202 . S
O186 U166 2.455 . S
O186 C183 1.301 . S
O187 U166 2.449 . S
O187 C183 1.282 . S
H188 C161 0.931 . S
H189 C163 0.929 . S
H190 C164 0.930 . S
H191 C165 0.931 . S
H192 C172 0.932 . S
H193 C173 0.930 . S
H194 C174 0.929 . S
H195 C176 0.930 . S
H196 C178 0.932 . S
H197 C179 0.929 . S
H198 C180 0.928 . S
H199 C182 0.932 . S
C200 C201 1.264 . S
C200 C205 1.479 . S
C200 C210 1.465 . S
C201 C200 1.264 . S
C201 C203 1.339 . S
C201 H228 0.931 . S
C202 C203 1.395 . S
C202 C204 1.320 . S
C203 C201 1.339 . S
C203 C202 1.395 . S
C203 H229 0.929 . S
C204 C202 1.320 . S
C204 C205 1.405 . S
C204 H230 0.930 . S
C205 C200 1.479 . S
C205 C204 1.405 . S
C205 H231 0.931 . S
U206 O207 2.454 . S
U206 O208 2.458 . S
U206 C209 2.984 . S
U206 C210 2.847 . S
U206 C223 2.882 . S
U206 O224 2.441 . S
U206 O225 2.420 . S
U206 O226 2.455 . S
U206 O227 2.449 . S
O207 U206 2.454 . S
O207 C209 1.353 . S
O208 U206 2.458 . S
O208 C209 1.286 . S
C209 U206 2.984 . S
C209 O207 1.353 . S
C209 O208 1.286 . S
C209 C211 1.363 . S
C210 C200 1.465 . S
C210 U206 2.847 . S
C210 O224 1.249 . S
C210 O225 1.202 . S
C211 C209 1.363 . S
C211 C213 1.408 . S
C211 C216 1.342 1_556 S
C212 C213 1.310 . S
C212 C215 1.461 1_556 S
C212 H232 0.932 . S
C213 C211 1.408 . S
C213 C212 1.310 . S
C213 H233 0.930 . S
C214 C215 1.474 . S
C214 C216 1.285 . S
C214 H234 0.929 . S
C215 C212 1.461 1_554 S
C215 C214 1.474 . S
C216 C211 1.342 1_554 S
C216 C214 1.285 . S
C216 H235 0.930 . S
C217 C220 1.424 . S
C217 C222 1.245 . S
C217 C223 1.428 . S
C218 C221 1.260 . S
C218 C222 1.477 . S
C218 H236 0.932 . S
C219 C220 1.384 . S
C219 C221 1.479 . S
C219 H237 0.929 . S
C220 C217 1.424 . S
C220 C219 1.384 . S
C220 H238 0.928 . S
C221 C218 1.260 . S
C221 C219 1.479 . S
C222 C217 1.245 . S
C222 C218 1.477 . S
C222 H239 0.932 . S
C223 U206 2.882 . S
C223 C217 1.428 . S
C223 O226 1.301 . S
C223 O227 1.282 . S
O224 U206 2.441 . S
O224 C210 1.249 . S
O225 U206 2.420 . S
O225 C210 1.202 . S
O226 U206 2.455 . S
O226 C223 1.301 . S
O227 U206 2.449 . S
O227 C223 1.282 . S
H228 C201 0.931 . S
H229 C203 0.929 . S
H230 C204 0.930 . S
H231 C205 0.931 . S
H232 C212 0.932 . S
H233 C213 0.930 . S
H234 C214 0.929 . S
H235 C216 0.930 . S
H236 C218 0.932 . S
H237 C219 0.929 . S
H238 C220 0.928 . S
H239 C222 0.932 . S
C240 C241 1.264 . S
C240 C245 1.479 . S
C240 C250 1.465 . S
C241 C240 1.264 . S
C241 C243 1.339 . S
C241 H268 0.931 . S
C242 C243 1.395 . S
C242 C244 1.320 . S
C243 C241 1.339 . S
C243 C242 1.395 . S
C243 H269 0.929 . S
C244 C242 1.320 . S
C244 C245 1.405 . S
C244 H270 0.930 . S
C245 C240 1.479 . S
C245 C244 1.405 . S
C245 H271 0.931 . S
U246 O247 2.454 1_545 S
U246 O248 2.458 1_545 S
U246 C249 2.984 1_545 S
U246 C250 2.847 . S
U246 C263 2.882 . S
U246 O264 2.441 . S
U246 O265 2.420 . S
U246 O266 2.455 . S
U246 O267 2.449 . S
O247 U246 2.454 1_565 S
O247 C249 1.353 . S
O248 U246 2.458 1_565 S
O248 C249 1.286 . S
C249 U246 2.984 1_565 S
C249 O247 1.353 . S
C249 O248 1.286 . S
C249 C251 1.363 . S
C250 C240 1.465 . S
C250 U246 2.847 . S
C250 O264 1.249 . S
C250 O265 1.202 . S
C251 C249 1.363 . S
C251 C253 1.408 . S
C251 C256 1.342 . S
C252 C253 1.310 . S
C252 C255 1.461 . S
C252 H272 0.932 . S
C253 C251 1.408 . S
C253 C252 1.310 . S
C253 H273 0.930 . S
C254 C255 1.474 . S
C254 C256 1.285 . S
C254 H274 0.929 . S
C255 C252 1.461 . S
C255 C254 1.474 . S
C256 C251 1.342 . S
C256 C254 1.285 . S
C256 H275 0.930 . S
C257 C260 1.424 . S
C257 C262 1.245 . S
C257 C263 1.428 . S
C258 C261 1.260 . S
C258 C262 1.477 . S
C258 H276 0.932 . S
C259 C260 1.384 . S
C259 C261 1.479 . S
C259 H277 0.929 . S
C260 C257 1.424 . S
C260 C259 1.384 . S
C260 H278 0.928 . S
C261 C258 1.260 . S
C261 C259 1.479 . S
C262 C257 1.245 . S
C262 C258 1.477 . S
C262 H279 0.932 . S
C263 U246 2.882 . S
C263 C257 1.428 . S
C263 O266 1.301 . S
C263 O267 1.282 . S
O264 U246 2.441 . S
O264 C250 1.249 . S
O265 U246 2.420 . S
O265 C250 1.202 . S
O266 U246 2.455 . S
O266 C263 1.301 . S
O267 U246 2.449 . S
O267 C263 1.282 . S
H268 C241 0.931 . S
H269 C243 0.929 . S
H270 C244 0.930 . S
H271 C245 0.931 . S
H272 C252 0.932 . S
H273 C253 0.930 . S
H274 C254 0.929 . S
H275 C256 0.930 . S
H276 C258 0.932 . S
H277 C259 0.929 . S
H278 C260 0.928 . S
H279 C262 0.932 . S
C280 C281 1.264 . S
C280 C285 1.479 . S
C280 C290 1.465 1_554 S
C281 C280 1.264 . S
C281 C283 1.339 . S
C281 H308 0.931 . S
C282 C283 1.395 . S
C282 C284 1.320 . S
C283 C281 1.339 . S
C283 C282 1.395 . S
C283 H309 0.929 . S
C284 C282 1.320 . S
C284 C285 1.405 . S
C284 H310 0.930 . S
C285 C280 1.479 . S
C285 C284 1.405 . S
C285 H311 0.931 . S
U286 O287 2.454 . S
U286 O288 2.458 . S
U286 C289 2.984 . S
U286 C290 2.847 . S
U286 C303 2.882 . S
U286 O304 2.441 . S
U286 O305 2.420 . S
U286 O306 2.455 . S
U286 O307 2.449 . S
O287 U286 2.454 . S
O287 C289 1.353 . S
O288 U286 2.458 . S
O288 C289 1.286 . S
C289 U286 2.984 . S
C289 O287 1.353 . S
C289 O288 1.286 . S
C289 C291 1.363 . S
C290 C280 1.465 1_556 S
C290 U286 2.847 . S
C290 O304 1.249 . S
C290 O305 1.202 . S
C291 C289 1.363 . S
C291 C293 1.408 . S
C291 C296 1.342 . S
C292 C293 1.310 . S
C292 C295 1.461 . S
C292 H312 0.932 . S
C293 C291 1.408 . S
C293 C292 1.310 . S
C293 H313 0.930 . S
C294 C295 1.474 . S
C294 C296 1.285 . S
C294 H314 0.929 . S
C295 C292 1.461 . S
C295 C294 1.474 . S
C296 C291 1.342 . S
C296 C294 1.285 . S
C296 H315 0.930 . S
C297 C300 1.424 . S
C297 C302 1.245 . S
C297 C303 1.428 . S
C298 C301 1.260 . S
C298 C302 1.477 . S
C298 H316 0.932 . S
C299 C300 1.384 . S
C299 C301 1.479 . S
C299 H317 0.929 . S
C300 C297 1.424 . S
C300 C299 1.384 . S
C300 H318 0.928 . S
C301 C298 1.260 . S
C301 C299 1.479 . S
C302 C297 1.245 . S
C302 C298 1.477 . S
C302 H319 0.932 . S
C303 U286 2.882 . S
C303 C297 1.428 . S
C303 O306 1.301 . S
C303 O307 1.282 . S
O304 U286 2.441 . S
O304 C290 1.249 . S
O305 U286 2.420 . S
O305 C290 1.202 . S
O306 U286 2.455 . S
O306 C303 1.301 . S
O307 U286 2.449 . S
O307 C303 1.282 . S
H308 C281 0.931 . S
H309 C283 0.929 . S
H310 C284 0.930 . S
H311 C285 0.931 . S
H312 C292 0.932 . S
H313 C293 0.930 . S
H314 C294 0.929 . S
H315 C296 0.930 . S
H316 C298 0.932 . S
H317 C299 0.929 . S
H318 C300 0.928 . S
H319 C302 0.932 . S
C320 C321 1.264 . S
C320 C325 1.479 . S
C320 C330 1.465 . S
C321 C320 1.264 . S
C321 C323 1.339 . S
C321 H348 0.931 . S
C322 C323 1.395 . S
C322 C324 1.320 . S
C323 C321 1.339 . S
C323 C322 1.395 . S
C323 H349 0.929 . S
C324 C322 1.320 . S
C324 C325 1.405 . S
C324 H350 0.930 . S
C325 C320 1.479 . S
C325 C324 1.405 . S
C325 H351 0.931 . S
U326 O327 2.454 1_655 S
U326 O328 2.458 1_655 S
U326 C329 2.984 1_655 S
U326 C330 2.847 . S
U326 C343 2.882 . S
U326 O344 2.441 . S
U326 O345 2.420 . S
U326 O346 2.455 . S
U326 O347 2.449 . S
O327 U326 2.454 1_455 S
O327 C329 1.353 . S
O328 U326 2.458 1_455 S
O328 C329 1.286 . S
C329 U326 2.984 1_455 S
C329 O327 1.353 . S
C329 O328 1.286 . S
C329 C331 1.363 . S
C330 C320 1.465 . S
C330 U326 2.847 . S
C330 O344 1.249 . S
C330 O345 1.202 . S
C331 C329 1.363 . S
C331 C333 1.408 . S
C331 C336 1.342 1_554 S
C332 C333 1.310 . S
C332 C335 1.461 1_554 S
C332 H352 0.932 . S
C333 C331 1.408 . S
C333 C332 1.310 . S
C333 H353 0.930 . S
C334 C335 1.474 . S
C334 C336 1.285 . S
C334 H354 0.929 . S
C335 C332 1.461 1_556 S
C335 C334 1.474 . S
C336 C331 1.342 1_556 S
C336 C334 1.285 . S
C336 H355 0.930 . S
C337 C340 1.424 . S
C337 C342 1.245 . S
C337 C343 1.428 . S
C338 C341 1.260 . S
C338 C342 1.477 . S
C338 H356 0.932 . S
C339 C340 1.384 . S
C339 C341 1.479 . S
C339 H357 0.929 . S
C340 C337 1.424 . S
C340 C339 1.384 . S
C340 H358 0.928 . S
C341 C338 1.260 . S
C341 C339 1.479 . S
C342 C337 1.245 . S
C342 C338 1.477 . S
C342 H359 0.932 . S
C343 U326 2.882 . S
C343 C337 1.428 . S
C343 O346 1.301 . S
C343 O347 1.282 . S
O344 U326 2.441 . S
O344 C330 1.249 . S
O345 U326 2.420 . S
O345 C330 1.202 . S
O346 U326 2.455 . S
O346 C343 1.301 . S
O347 U326 2.449 . S
O347 C343 1.282 . S
H348 C321 0.931 . S
H349 C323 0.929 . S
H350 C324 0.930 . S
H351 C325 0.931 . S
H352 C332 0.932 . S
H353 C333 0.930 . S
H354 C334 0.929 . S
H355 C336 0.930 . S
H356 C338 0.932 . S
H357 C339 0.929 . S
H358 C340 0.928 . S
H359 C342 0.932 . S
C360 C361 1.264 . S
C360 C365 1.479 . S
C360 C370 1.465 . S
C361 C360 1.264 . S
C361 C363 1.339 . S
C361 H388 0.931 . S
C362 C363 1.395 . S
C362 C364 1.320 . S
C363 C361 1.339 . S
C363 C362 1.395 . S
C363 H389 0.929 . S
C364 C362 1.320 . S
C364 C365 1.405 . S
C364 H390 0.930 . S
C365 C360 1.479 . S
C365 C364 1.405 . S
C365 H391 0.931 . S
U366 O367 2.454 1_565 S
U366 O368 2.458 1_565 S
U366 C369 2.984 1_565 S
U366 C370 2.847 . S
U366 C383 2.882 . S
U366 O384 2.441 . S
U366 O385 2.420 . S
U366 O386 2.455 . S
U366 O387 2.449 . S
O367 U366 2.454 1_545 S
O367 C369 1.353 . S
O368 U366 2.458 1_545 S
O368 C369 1.286 . S
C369 U366 2.984 1_545 S
C369 O367 1.353 . S
C369 O368 1.286 . S
C369 C371 1.363 . S
C370 C360 1.465 . S
C370 U366 2.847 . S
C370 O384 1.249 . S
C370 O385 1.202 . S
C371 C369 1.363 . S
C371 C373 1.408 . S
C371 C376 1.342 . S
C372 C373 1.310 . S
C372 C375 1.461 . S
C372 H392 0.932 . S
C373 C371 1.408 . S
C373 C372 1.310 . S
C373 H393 0.930 . S
C374 C375 1.474 . S
C374 C376 1.285 . S
C374 H394 0.929 . S
C375 C372 1.461 . S
C375 C374 1.474 . S
C376 C371 1.342 . S
C376 C374 1.285 . S
C376 H395 0.930 . S
C377 C380 1.424 . S
C377 C382 1.245 . S
C377 C383 1.428 . S
C378 C381 1.260 . S
C378 C382 1.477 . S
C378 H396 0.932 . S
C379 C380 1.384 . S
C379 C381 1.479 . S
C379 H397 0.929 . S
C380 C377 1.424 . S
C380 C379 1.384 . S
C380 H398 0.928 . S
C381 C378 1.260 . S
C381 C379 1.479 . S
C382 C377 1.245 . S
C382 C378 1.477 . S
C382 H399 0.932 . S
C383 U366 2.882 . S
C383 C377 1.428 . S
C383 O386 1.301 . S
C383 O387 1.282 . S
O384 U366 2.441 . S
O384 C370 1.249 . S
O385 U366 2.420 . S
O385 C370 1.202 . S
O386 U366 2.455 . S
O386 C383 1.301 . S
O387 U366 2.449 . S
O387 C383 1.282 . S
H388 C361 0.931 . S
H389 C363 0.929 . S
H390 C364 0.930 . S
H391 C365 0.931 . S
H392 C372 0.932 . S
H393 C373 0.930 . S
H394 C374 0.929 . S
H395 C376 0.930 . S
H396 C378 0.932 . S
H397 C379 0.929 . S
H398 C380 0.928 . S
H399 C382 0.932 . S
C400 C401 1.264 . S
C400 C405 1.479 . S
C400 C410 1.465 . S
C401 C400 1.264 . S
C401 C403 1.339 . S
C401 H428 0.931 . S
C402 C403 1.395 . S
C402 C404 1.320 . S
C403 C401 1.339 . S
C403 C402 1.395 . S
C403 H429 0.929 . S
C404 C402 1.320 . S
C404 C405 1.405 . S
C404 H430 0.930 . S
C405 C400 1.479 . S
C405 C404 1.405 . S
C405 H431 0.931 . S
U406 O407 2.454 . S
U406 O408 2.458 . S
U406 C409 2.984 . S
U406 C410 2.847 . S
U406 C423 2.882 . S
U406 O424 2.441 . S
U406 O425 2.420 . S
U406 O426 2.455 . S
U406 O427 2.449 . S
O407 U406 2.454 . S
O407 C409 1.353 . S
O408 U406 2.458 . S
O408 C409 1.286 . S
C409 U406 2.984 . S
C409 O407 1.353 . S
C409 O408 1.286 . S
C409 C411 1.363 . S
C410 C400 1.465 . S
C410 U406 2.847 . S
C410 O424 1.249 . S
C410 O425 1.202 . S
C411 C409 1.363 . S
C411 C413 1.408 . S
C411 C416 1.342 . S
C412 C413 1.310 . S
C412 C415 1.461 . S
C412 H432 0.932 . S
C413 C411 1.408 . S
C413 C412 1.310 . S
C413 H433 0.930 . S
C414 C415 1.474 . S
C414 C416 1.285 . S
C414 H434 0.929 . S
C415 C412 1.461 . S
C415 C414 1.474 . S
C416 C411 1.342 . S
C416 C414 1.285 . S
C416 H435 0.930 . S
C417 C420 1.424 . S
C417 C422 1.245 . S
C417 C423 1.428 . S
C418 C421 1.260 . S
C418 C422 1.477 . S
C418 H436 0.932 . S
C419 C420 1.384 . S
C419 C421 1.479 . S
C419 H437 0.929 . S
C420 C417 1.424 . S
C420 C419 1.384 . S
C420 H438 0.928 . S
C421 C418 1.260 . S
C421 C419 1.479 . S
C422 C417 1.245 . S
C422 C418 1.477 . S
C422 H439 0.932 . S
C423 U406 2.882 . S
C423 C417 1.428 . S
C423 O426 1.301 . S
C423 O427 1.282 . S
O424 U406 2.441 . S
O424 C410 1.249 . S
O425 U406 2.420 . S
O425 C410 1.202 . S
O426 U406 2.455 . S
O426 C423 1.301 . S
O427 U406 2.449 . S
O427 C423 1.282 . S
H428 C401 0.931 . S
H429 C403 0.929 . S
H430 C404 0.930 . S
H431 C405 0.931 . S
H432 C412 0.932 . S
H433 C413 0.930 . S
H434 C414 0.929 . S
H435 C416 0.930 . S
H436 C418 0.932 . S
H437 C419 0.929 . S
H438 C420 0.928 . S
H439 C422 0.932 . S
C440 C441 1.264 . S
C440 C445 1.479 . S
C440 C450 1.465 . S
C441 C440 1.264 . S
C441 C443 1.339 . S
C441 H468 0.931 . S
C442 C443 1.395 . S
C442 C444 1.320 . S
C443 C441 1.339 . S
C443 C442 1.395 . S
C443 H469 0.929 . S
C444 C442 1.320 . S
C444 C445 1.405 . S
C444 H470 0.930 . S
C445 C440 1.479 . S
C445 C444 1.405 . S
C445 H471 0.931 . S
U446 O447 2.454 1_455 S
U446 O448 2.458 1_455 S
U446 C449 2.984 1_455 S
U446 C450 2.847 . S
U446 C463 2.882 . S
U446 O464 2.441 . S
U446 O465 2.420 . S
U446 O466 2.455 . S
U446 O467 2.449 . S
O447 U446 2.454 1_655 S
O447 C449 1.353 . S
O448 U446 2.458 1_655 S
O448 C449 1.286 . S
C449 U446 2.984 1_655 S
C449 O447 1.353 . S
C449 O448 1.286 . S
C449 C451 1.363 . S
C450 C440 1.465 . S
C450 U446 2.847 . S
C450 O464 1.249 . S
C450 O465 1.202 . S
C451 C449 1.363 . S
C451 C453 1.408 . S
C451 C456 1.342 . S
C452 C453 1.310 . S
C452 C455 1.461 . S
C452 H472 0.932 . S
C453 C451 1.408 . S
C453 C452 1.310 . S
C453 H473 0.930 . S
C454 C455 1.474 . S
C454 C456 1.285 . S
C454 H474 0.929 . S
C455 C452 1.461 . S
C455 C454 1.474 . S
C456 C451 1.342 . S
C456 C454 1.285 . S
C456 H475 0.930 . S
C457 C460 1.424 . S
C457 C462 1.245 . S
C457 C463 1.428 . S
C458 C461 1.260 . S
C458 C462 1.477 . S
C458 H476 0.932 . S
C459 C460 1.384 . S
C459 C461 1.479 . S
C459 H477 0.929 . S
C460 C457 1.424 . S
C460 C459 1.384 . S
C460 H478 0.928 . S
C461 C458 1.260 . S
C461 C459 1.479 . S
C462 C457 1.245 . S
C462 C458 1.477 . S
C462 H479 0.932 . S
C463 U446 2.882 . S
C463 C457 1.428 . S
C463 O466 1.301 . S
C463 O467 1.282 . S
O464 U446 2.441 . S
O464 C450 1.249 . S
O465 U446 2.420 . S
O465 C450 1.202 . S
O466 U446 2.455 . S
O466 C463 1.301 . S
O467 U446 2.449 . S
O467 C463 1.282 . S
H468 C441 0.931 . S
H469 C443 0.929 . S
H470 C444 0.930 . S
H471 C445 0.931 . S
H472 C452 0.932 . S
H473 C453 0.930 . S
H474 C454 0.929 . S
H475 C456 0.930 . S
H476 C458 0.932 . S
H477 C459 0.929 . S
H478 C460 0.928 . S
H479 C462 0.932 . S
C480 C481 1.170 . S
C480 C482 1.380 . S
C481 C480 1.170 . S
C482 C480 1.380 . S
C482 C483 1.170 . S
C483 C482 1.170 . S
C484 C485 1.170 . S
C484 C486 1.380 . S
C485 C484 1.170 . S
C486 C484 1.380 . S
C486 C487 1.170 . S
C487 C486 1.170 . S
C488 C489 1.170 . S
C488 C490 1.380 . S
C489 C488 1.170 . S
C490 C488 1.380 . S
C490 C491 1.170 . S
C491 C490 1.170 . S
C492 C493 1.170 . S
C492 C494 1.380 . S
C493 C492 1.170 . S
C494 C492 1.380 . S
C494 C495 1.170 . S
C495 C494 1.170 . S
C496 C497 1.170 . S
C496 C498 1.380 . S
C497 C496 1.170 . S
C498 C496 1.380 . S
C498 C499 1.170 . S
C499 C498 1.170 . S
C500 C501 1.170 . S
C500 C502 1.380 . S
C501 C500 1.170 . S
C502 C500 1.380 . S
C502 C503 1.170 . S
C503 C502 1.170 . S
C504 C505 1.170 . S
C504 C506 1.380 . S
C505 C504 1.170 . S
C506 C504 1.380 . S
C506 C507 1.170 . S
C507 C506 1.170 . S
C508 C509 1.170 . S
C508 C510 1.380 . S
C509 C508 1.170 . S
C510 C508 1.380 . S
C510 C511 1.170 . S
C511 C510 1.170 . S
C512 C513 1.170 . S
C512 C514 1.380 . S
C513 C512 1.170 . S
C514 C512 1.380 . S
C514 C515 1.170 . S
C515 C514 1.170 . S
C516 C517 1.170 . S
C516 C518 1.380 . S
C517 C516 1.170 . S
C518 C516 1.380 . S
C518 C519 1.170 . S
C519 C518 1.170 . S
C520 C521 1.170 . S
C520 C522 1.380 . S
C521 C520 1.170 . S
C522 C520 1.380 . S
C522 C523 1.170 . S
C523 C522 1.170 . S
C524 C525 1.170 . S
C524 C526 1.380 . S
C525 C524 1.170 . S
C526 C524 1.380 . S
C526 C527 1.170 . S
C527 C526 1.170 . S
C528 C529 1.170 . S
C528 C530 1.380 1_655 S
C529 C528 1.170 . S
C530 C528 1.380 1_455 S
C530 C531 1.170 . S
C531 C530 1.170 . S
C532 C533 1.170 . S
C532 C534 1.380 1_546 S
C533 C532 1.170 . S
C534 C532 1.380 1_564 S
C534 C535 1.170 . S
C535 C534 1.170 . S
C536 C537 1.170 . S
C536 C538 1.380 . S
C537 C536 1.170 . S
C538 C536 1.380 . S
C538 C539 1.170 . S
C539 C538 1.170 . S
C540 C541 1.170 . S
C540 C542 1.380 1_655 S
C541 C540 1.170 . S
C542 C540 1.380 1_455 S
C542 C543 1.170 . S
C543 C542 1.170 . S
C544 C545 1.170 . S
C544 C546 1.380 1_545 S
C545 C544 1.170 . S
C546 C544 1.380 1_565 S
C546 C547 1.170 . S
C547 C546 1.170 . S
C548 C549 1.170 . S
C548 C550 1.380 . S
C549 C548 1.170 . S
C550 C548 1.380 . S
C550 C551 1.170 . S
C551 C550 1.170 . S
C481 C15 2.329 . S
C483 C415 2.315 . S
C485 C455 1.956 . S
C487 C55 1.939 . S
C489 C255 2.331 . S
C491 C95 2.327 . S
C493 C135 2.345 . S
C495 C295 2.313 . S
C497 C335 1.941 . S
C499 C175 1.938 . S
C501 C215 2.329 . S
C503 C375 2.323 . S
C505 C21 2.137 . S
C507 C341 2.116 . S
C509 C381 2.129 . S
C511 C61 2.131 . S
C513 C101 2.396 . S
C515 C421 2.381 . S
C517 C461 2.122 . S
C519 C141 2.124 . S
C521 C181 2.141 . S
C523 C261 2.113 . S
C525 C221 2.392 . S
C527 C301 2.388 . S
C529 C2 1.872 . S
C531 C442 1.868 . S
C533 C242 1.842 . S
C535 C42 1.878 . S
C537 C82 2.340 . S
C539 C282 2.367 . S
C541 C322 1.875 . S
C543 C122 1.838 . S
C545 C162 1.857 . S
C547 C362 1.853 . S
C549 C402 2.343 . S
C551 C202 2.346 . S
