# Generated by pormake.
# Topology wlj, (5)-cn, num edge types: 1
# Building blocks:
#     Node 0, Type 0, BuildingBlock: XOMCOT_clean_sbu_1, # of connection points: 5
#     Node 1, Type 0, BuildingBlock: XOMCOT_clean_sbu_1, # of connection points: 5
#     Node 2, Type 0, BuildingBlock: XOMCOT_clean_sbu_1, # of connection points: 5
#     Node 3, Type 0, BuildingBlock: XOMCOT_clean_sbu_1, # of connection points: 5
#     Node 4, Type 0, BuildingBlock: XOMCOT_clean_sbu_1, # of connection points: 5
#     Node 5, Type 0, BuildingBlock: XOMCOT_clean_sbu_1, # of connection points: 5
#     Edge 6, Type (0, 0), BuildingBlock: OJICUG_clean_linker_0, # of connection points: 2
#     Edge 7, Type (0, 0), BuildingBlock: OJICUG_clean_linker_0, # of connection points: 2
#     Edge 8, Type (0, 0), BuildingBlock: OJICUG_clean_linker_0, # of connection points: 2
#     Edge 9, Type (0, 0), BuildingBlock: OJICUG_clean_linker_0, # of connection points: 2
#     Edge 10, Type (0, 0), BuildingBlock: OJICUG_clean_linker_0, # of connection points: 2
#     Edge 11, Type (0, 0), BuildingBlock: OJICUG_clean_linker_0, # of connection points: 2
#     Edge 12, Type (0, 0), BuildingBlock: OJICUG_clean_linker_0, # of connection points: 2
#     Edge 13, Type (0, 0), BuildingBlock: OJICUG_clean_linker_0, # of connection points: 2
#     Edge 14, Type (0, 0), BuildingBlock: OJICUG_clean_linker_0, # of connection points: 2
#     Edge 15, Type (0, 0), BuildingBlock: OJICUG_clean_linker_0, # of connection points: 2
#     Edge 16, Type (0, 0), BuildingBlock: OJICUG_clean_linker_0, # of connection points: 2
#     Edge 17, Type (0, 0), BuildingBlock: OJICUG_clean_linker_0, # of connection points: 2
#     Edge 18, Type (0, 0), BuildingBlock: OJICUG_clean_linker_0, # of connection points: 2
#     Edge 19, Type (0, 0), BuildingBlock: OJICUG_clean_linker_0, # of connection points: 2
#     Edge 20, Type (0, 0), BuildingBlock: OJICUG_clean_linker_0, # of connection points: 2
# Relax obj value: 0.140
# Max RMSD: 0.179
# Mean RMSD: 0.179
data_MOF--net-wlj--node1-XOMCOT_clean_sbu_1--edge1-OJICUG_clean_linker_0
_symmetry_space_group_name_H-M    P1
_symmetry_Int_Tables_number       1
_symmetry_cell_setting            triclinic
loop_
_symmetry_equiv_pos_as_xyz
'x, y, z'
_cell_length_a     19.110464
_cell_length_b     19.187292
_cell_length_c     38.768532
_cell_angle_alpha  89.083392
_cell_angle_beta   90.458647
_cell_angle_gamma 120.9687
loop_
_atom_site_label
_atom_site_type_symbol
_atom_site_fract_x
_atom_site_fract_y
_atom_site_fract_z
_atom_type_partial_charge
C0 C 0.66366 0.2266 0.3825 0.0
C1 C 0.65644 0.15797 0.39781 0.0
N2 N 0.62838 0.09886 0.37413 0.0
N3 N 0.63965 0.2111 0.34931 0.0
C4 C 0.61902 0.13286 0.34493 0.0
H5 H 0.68602 0.28442 0.3948 0.0
Co6 Co 0.64504 0.28711 0.3168 0.0
C7 C 0.52753 0.18498 0.25991 0.0
O8 O 0.547 0.24716 0.23921 0.0
N9 N 0.65303 0.36729 0.28436 0.0
C10 C 0.70367 0.47054 0.24638 0.0
C11 C 0.71787 0.41664 0.26407 0.0
C12 C 0.60078 0.39472 0.27882 0.0
N13 N 0.6302 0.45712 0.25572 0.0
O14 O 0.56249 0.29544 0.34157 0.0
H15 H 0.77388 0.41622 0.26246 0.0
H16 H 0.5419 0.36917 0.29118 0.0
O17 O 0.56146 0.19652 0.28952 0.0
C18 C 0.59362 0.35553 0.36208 0.0
O19 O 0.67353 0.39933 0.36463 0.0
N20 N 0.73048 0.28386 0.29477 0.0
C21 C 0.87608 0.33386 0.26013 0.0
C22 C 0.8012 0.27531 0.24575 0.0
C23 C 0.72865 0.25067 0.26361 0.0
C24 C 0.8029 0.33187 0.31107 0.0
C25 C 0.87668 0.35781 0.29419 0.0
H26 H 0.67205 0.21051 0.25087 0.0
H27 H 0.80328 0.35706 0.33589 0.0
H28 H 0.59952 0.10195 0.32055 0.0
H29 H 0.66947 0.15178 0.42453 0.0
H30 H 0.74542 0.51777 0.22871 0.0
H31 H 0.79824 0.25389 0.21979 0.0
H32 H 0.93279 0.40299 0.30638 0.0
C33 C 0.81469 0.49502 1.02731 0.0
C34 C 0.88266 0.56009 1.04192 0.0
N35 N 0.94792 0.55267 1.03583 0.0
N36 N 0.83671 0.44655 1.01202 0.0
C37 C 0.91788 0.48284 1.01799 0.0
H38 H 0.75335 0.48435 1.0275 0.0
Co39 Co 0.77144 0.35177 0.98649 0.0
C40 C 0.87731 0.37445 0.92544 0.0
O41 O 0.81405 0.3452 0.90463 0.0
N42 N 0.70803 0.25539 0.96125 0.0
C43 C 0.67641 0.13487 0.94062 0.0
C44 C 0.7364 0.20505 0.95513 0.0
C45 C 0.62957 0.21358 0.94998 0.0
N46 N 0.60949 0.14036 0.93738 0.0
O47 O 0.79516 0.28849 1.01829 0.0
H48 H 0.79677 0.21752 0.96187 0.0
H49 H 0.58642 0.23362 0.95232 0.0
O50 O 0.86749 0.37978 0.95773 0.0
C51 C 0.7439 0.26372 1.04312 0.0
O52 O 0.70234 0.3002 1.0475 0.0
N53 N 0.73782 0.40958 0.95815 0.0
C54 C 0.66027 0.48267 0.92538 0.0
C55 C 0.74164 0.50728 0.91737 0.0
C56 C 0.77991 0.47048 0.93444 0.0
C57 C 0.66114 0.38933 0.96768 0.0
C58 C 0.62076 0.42365 0.95131 0.0
H59 H 0.84325 0.49218 0.92906 0.0
H60 H 0.63105 0.3459 0.98852 0.0
H61 H 0.95418 0.45778 1.00968 0.0
H62 H 0.88389 0.60961 1.05543 0.0
H63 H 0.68092 0.08297 0.9335 0.0
H64 H 0.77533 0.55444 0.8982 0.0
H65 H 0.55956 0.40536 0.95956 0.0
C66 C 0.55116 0.32101 0.69818 0.0
C67 C 0.50537 0.33851 0.71966 0.0
N68 N 0.53857 0.41978 0.7202 0.0
N69 N 0.61295 0.39075 0.6846 0.0
C70 C 0.60569 0.44976 0.69987 0.0
H71 H 0.5366 0.26055 0.69169 0.0
Co72 Co 0.68591 0.40697 0.64795 0.0
C73 C 0.5922 0.48303 0.62251 0.0
O74 O 0.52533 0.42308 0.63644 0.0
N75 N 0.75855 0.42422 0.61206 0.0
C76 C 0.81457 0.45052 0.55993 0.0
C77 C 0.74941 0.43969 0.57877 0.0
C78 C 0.83085 0.42691 0.61283 0.0
N79 N 0.86603 0.44255 0.58124 0.0
O80 O 0.77493 0.49394 0.67304 0.0
H81 H 0.69955 0.44485 0.56862 0.0
H82 H 0.85735 0.4182 0.63607 0.0
O83 O 0.65945 0.48361 0.62466 0.0
C84 C 0.79967 0.46572 0.69723 0.0
O85 O 0.75686 0.38726 0.704 0.0
N86 N 0.60388 0.31546 0.62435 0.0
C87 C 0.51698 0.16901 0.58899 0.0
C88 C 0.51577 0.2381 0.57758 0.0
C89 C 0.55989 0.31101 0.59555 0.0
C90 C 0.60467 0.24839 0.63582 0.0
C91 C 0.56055 0.17436 0.61903 0.0
H92 H 0.5628 0.36411 0.58442 0.0
H93 H 0.64284 0.2535 0.65755 0.0
H94 H 0.64586 0.51353 0.69385 0.0
H95 H 0.44875 0.29399 0.73189 0.0
H96 H 0.8248 0.46633 0.53276 0.0
H97 H 0.48439 0.23686 0.554 0.0
H98 H 0.5654 0.12333 0.62814 0.0
C99 C 0.26093 0.66545 0.74595 0.0
C100 C 0.19378 0.65309 0.7275 0.0
N101 N 0.12795 0.61633 0.74831 0.0
N102 N 0.23824 0.63634 0.77836 0.0
C103 C 0.15687 0.60733 0.77911 0.0
H104 H 0.32259 0.69391 0.73622 0.0
Co105 Co 0.3113 0.64224 0.81257 0.0
C106 C 0.20499 0.52359 0.86927 0.0
O107 O 0.26665 0.54243 0.89002 0.0
N108 N 0.38926 0.6509 0.84608 0.0
C109 C 0.4996 0.70521 0.87985 0.0
C110 C 0.44364 0.71842 0.86323 0.0
C111 C 0.41461 0.5976 0.85282 0.0
N112 N 0.48186 0.62931 0.87307 0.0
O113 O 0.32351 0.56115 0.78924 0.0
H114 H 0.44593 0.77573 0.8627 0.0
H115 H 0.38617 0.5375 0.84197 0.0
O116 O 0.21772 0.55804 0.83953 0.0
C117 C 0.38861 0.59368 0.77111 0.0
O118 O 0.43186 0.67341 0.76865 0.0
N119 N 0.30524 0.72669 0.83353 0.0
C120 C 0.35563 0.87105 0.86807 0.0
C121 C 0.29729 0.79613 0.88283 0.0
C122 C 0.27268 0.72427 0.86509 0.0
C123 C 0.35276 0.7992 0.81688 0.0
C124 C 0.37886 0.87239 0.8337 0.0
H125 H 0.23341 0.66773 0.87829 0.0
H126 H 0.37815 0.80027 0.79191 0.0
H127 H 0.11968 0.5811 0.8019 0.0
H128 H 0.1934 0.66811 0.7005 0.0
H129 H 0.55044 0.74901 0.8952 0.0
H130 H 0.27632 0.79256 0.90904 0.0
H131 H 0.42392 0.92858 0.82122 0.0
C132 C 0.33484 0.53486 0.43676 0.0
C133 C 0.34435 0.47633 0.42094 0.0
N134 N 0.42282 0.49626 0.42436 0.0
N135 N 0.40686 0.59145 0.45029 0.0
C136 C 0.45907 0.56642 0.44223 0.0
H137 H 0.27922 0.53657 0.43783 0.0
Co138 Co 0.43396 0.68793 0.47279 0.0
C139 C 0.51037 0.68016 0.53833 0.0
O140 O 0.4753 0.7154 0.55329 0.0
N141 N 0.46526 0.78753 0.49464 0.0
C142 C 0.55472 0.91248 0.5126 0.0
C143 C 0.54537 0.84228 0.49981 0.0
C144 C 0.42682 0.82663 0.50504 0.0
N145 N 0.48039 0.9026 0.51585 0.0
O146 O 0.52389 0.74909 0.4417 0.0
H147 H 0.59466 0.8318 0.49452 0.0
H148 H 0.36171 0.80165 0.50416 0.0
O149 O 0.5009 0.66696 0.50582 0.0
C150 C 0.499 0.76769 0.41436 0.0
O151 O 0.42086 0.72383 0.40698 0.0
N152 N 0.33969 0.6303 0.50038 0.0
C153 C 0.1862 0.55117 0.53157 0.0
C154 C 0.2458 0.53342 0.54202 0.0
C155 C 0.32182 0.57208 0.52528 0.0
C156 C 0.2809 0.6452 0.48915 0.0
C157 C 0.2042 0.60707 0.50454 0.0
H158 H 0.36473 0.55333 0.5318 0.0
H159 H 0.29369 0.68672 0.46765 0.0
H160 H 0.52337 0.60098 0.44847 0.0
H161 H 0.29697 0.42349 0.40783 0.0
H162 H 0.61165 0.96655 0.51945 0.0
H163 H 0.2327 0.48816 0.56197 0.0
H164 H 0.15902 0.62092 0.49523 0.0
C165 C 0.5077 0.80263 0.10353 0.0
C166 C 0.57312 0.87116 0.08896 0.0
N167 N 0.56494 0.93555 0.09524 0.0
N168 N 0.4582 0.82336 0.11905 0.0
C169 C 0.49432 0.90443 0.11321 0.0
H170 H 0.49727 0.74169 0.10291 0.0
Co171 Co 0.36141 0.75629 0.14403 0.0
C172 C 0.37812 0.8592 0.20508 0.0
O173 O 0.34505 0.79562 0.22599 0.0
N174 N 0.26346 0.69105 0.16853 0.0
C175 C 0.14009 0.65513 0.18822 0.0
C176 C 0.21103 0.71712 0.17447 0.0
C177 C 0.22232 0.61208 0.17913 0.0
N178 N 0.14729 0.58934 0.19113 0.0
O179 O 0.29963 0.78184 0.11219 0.0
H180 H 0.22271 0.77728 0.16813 0.0
H181 H 0.24447 0.57072 0.17671 0.0
O182 O 0.38736 0.85011 0.17312 0.0
C183 C 0.2763 0.73257 0.08702 0.0
O184 O 0.31396 0.69234 0.08222 0.0
N185 N 0.41754 0.72067 0.17242 0.0
C186 C 0.4884 0.63935 0.20352 0.0
C187 C 0.50593 0.71538 0.21562 0.0
C188 C 0.47107 0.75627 0.1991 0.0
C189 C 0.40189 0.64792 0.16012 0.0
C190 C 0.43613 0.60617 0.17528 0.0
H191 H 0.48882 0.8166 0.20732 0.0
H192 H 0.36233 0.62222 0.13799 0.0
H193 H 0.46835 0.9398 0.12155 0.0
H194 H 0.62322 0.87326 0.0752 0.0
H195 H 0.08661 0.6576 0.19512 0.0
H196 H 0.54819 0.74398 0.23676 0.0
H197 H 0.42204 0.5483 0.16484 0.0
C198 C 0.45257 0.03305 0.26829 0.0
C199 C 0.48134 0.10105 0.2461 0.0
H200 H 0.39726 0.90383 0.27289 0.0
C201 C 0.47166 0.08823 0.21029 0.0
H202 H 0.45849 0.04056 0.29599 0.0
C203 C 0.43701 1.00977 0.19699 0.0
C204 C 0.4104 0.94201 0.21915 0.0
H205 H 0.49336 0.13909 0.19238 0.0
H206 H 0.43208 1.00244 0.16928 0.0
C207 C 0.41727 0.95452 0.255 0.0
C208 C 0.05238 0.44878 0.86144 0.0
C209 C 0.12046 0.47763 0.88334 0.0
H210 H 0.92264 0.39343 0.8574 0.0
C211 C 0.10725 0.46788 0.91923 0.0
H212 H 0.06011 0.45431 0.83371 0.0
C213 C 1.0284 0.43317 0.93288 0.0
C214 C 0.96055 0.40667 0.91101 0.0
H215 H 0.15813 0.48952 0.93695 0.0
H216 H 1.02089 0.4283 0.96063 0.0
C217 C 0.97342 0.41357 0.87508 0.0
C218 C 0.52305 0.62695 0.59568 0.0
C219 C 0.54356 0.64001 0.56043 0.0
H220 H 0.52188 0.56615 0.64261 0.0
C221 C 0.58902 0.60809 0.54663 0.0
H222 H 0.48781 0.65017 0.60726 0.0
C223 C 0.61078 0.56161 0.5675 0.0
C224 C 0.58556 0.54486 0.60213 0.0
H225 H 0.60556 0.61695 0.51958 0.0
H226 H 0.64288 0.53485 0.55606 0.0
C227 C 0.54267 0.57892 0.61608 0.0
C228 C 0.57212 0.57508 0.1963 0.0
C229 C 0.52768 0.59589 0.21816 0.0
H230 H 0.6388 0.51419 0.19115 0.0
C231 C 0.51643 0.56962 0.25283 0.0
H232 H 0.58128 0.59419 0.16944 0.0
C233 C 0.54829 0.52222 0.26519 0.0
C234 C 0.59319 0.50192 0.2432 0.0
H235 H 0.48159 0.5842 0.27006 0.0
H236 H 0.53903 0.50255 0.29196 0.0
C237 C 0.60493 0.52926 0.20871 0.0
C238 C 0.43495 0.02268 0.87757 0.0
C239 C 0.40527 0.94297 0.89013 0.0
H240 H 0.52376 0.14977 0.88374 0.0
C241 C 0.43536 0.93212 0.92174 0.0
H242 H 0.41285 0.03299 0.85335 0.0
C243 C 0.49855 0.99842 0.9387 0.0
C244 C 0.53231 0.07705 0.92477 0.0
H245 H 0.41512 0.87182 0.93198 0.0
H246 H 0.52482 0.98795 0.96162 0.0
C247 C 0.49781 0.08941 0.89495 0.0
C248 C 1.01226 0.49407 0.59387 0.0
C249 C 0.94481 0.45603 0.57148 0.0
H250 H 0.14297 0.55401 0.59864 0.0
C251 C 0.95722 0.43957 0.5376 0.0
H252 H 1.00462 0.5078 0.62006 0.0
C253 C 0.0356 0.46642 0.52541 0.0
C254 C 0.10351 0.50946 0.54694 0.0
H255 H 0.90637 0.40878 0.51997 0.0
H256 H 0.04356 0.45652 0.49865 0.0
C257 C 0.09124 0.52056 0.58164 0.0
C258 C 0.53388 0.47178 0.89952 0.0
C259 C 0.61685 0.52016 0.90853 0.0
H260 H 0.42591 0.46829 0.88146 0.0
C261 C 0.65569 0.60473 0.90374 0.0
H262 H 0.5023 0.40627 0.90252 0.0
C263 C 0.6118 0.64026 0.89159 0.0
C264 C 0.52805 0.5921 0.88375 0.0
H265 H 0.71931 0.64378 0.91056 0.0
H266 H 0.64358 0.70569 0.88857 0.0
C267 C 0.49011 0.50726 0.88722 0.0
C268 C 0.5103 0.10557 0.53247 0.0
C269 C 0.48559 0.09613 0.56712 0.0
H270 H 0.52719 0.04894 0.48864 0.0
C271 C 0.44373 1.01754 0.58193 0.0
H272 H 0.54357 0.16538 0.52049 0.0
C273 C 0.43328 0.95083 0.56335 0.0
C274 C 0.46537 0.96212 0.52999 0.0
H275 H 0.42403 1.00864 0.60858 0.0
H276 H 0.40701 0.89198 0.57607 0.0
C277 C 0.50095 0.03918 0.5142 0.0
C278 C 1.00591 0.47675 0.1891 0.0
C279 C 0.08424 0.51114 0.20334 0.0
H280 H 0.87872 0.39238 0.19562 0.0
C281 C 0.09586 0.47639 0.23329 0.0
H282 H 0.99603 0.50323 0.16605 0.0
C283 C 1.02848 0.41289 0.25061 0.0
C284 C 0.94888 0.38294 0.23788 0.0
H285 H 0.15596 0.5028 0.24472 0.0
H286 H 0.03807 0.3908 0.27501 0.0
C287 C 0.93895 0.41293 0.20601 0.0
C288 C 0.61454 0.91351 0.41569 0.0
C289 C 0.54637 0.85069 0.39877 0.0
H290 H 0.69409 0.04206 0.42117 0.0
C291 C 0.51398 0.87105 0.37023 0.0
H292 H 0.64206 0.90026 0.43735 0.0
C293 C 0.54392 0.95234 0.36089 0.0
C294 C 0.60686 1.01545 0.37994 0.0
H295 H 0.46189 0.82428 0.35635 0.0
H296 H 0.51408 0.96556 0.34015 0.0
C297 C 0.64399 0.99499 0.40656 0.0
C298 C 0.05145 0.65909 0.07454 0.0
C299 C 0.03196 0.60703 1.04618 0.0
H300 H 0.14441 0.74182 0.10927 0.0
C301 C 0.09625 0.60715 1.02871 0.0
H302 H 1.00389 0.66098 0.08866 0.0
C303 C 0.17661 0.6534 1.04057 0.0
C304 C 0.19546 0.70137 0.07016 0.0
H305 H 0.08449 0.57005 1.0062 0.0
H306 H 0.22374 0.64878 1.02732 0.0
C307 C 0.13233 0.70593 0.08633 0.0
C308 C 0.488 0.58315 0.73345 0.0
C309 C 0.42302 0.54602 0.75707 0.0
H310 H 0.5752 0.57364 0.70338 0.0
C311 C 0.39709 0.46677 0.76886 0.0
H312 H 0.50971 0.64425 0.72381 0.0
C313 C 0.43597 0.42604 0.75744 0.0
C314 C 0.50129 0.46329 0.73369 0.0
H315 H 0.34805 0.43691 0.78749 0.0
H316 H 0.41499 0.36558 0.76751 0.0
C317 C 0.52641 0.54255 0.72191 0.0
C318 C 1.02519 0.61942 0.70939 0.0
C319 C 0.04397 0.58656 0.73839 0.0
H320 H 0.9331 0.60818 0.67384 0.0
C321 C 0.97941 0.5202 0.75593 0.0
H322 H 0.07295 0.67141 0.69554 0.0
C323 C 0.89935 0.48456 0.74361 0.0
C324 C 0.88132 0.51446 0.71353 0.0
H325 H 0.991 0.49292 0.7782 0.0
H326 H 0.85186 0.43119 0.75694 0.0
C327 C 0.94476 0.58389 0.69714 0.0
C328 C 0.57755 0.43476 0.4085 0.0
C329 C 0.5439 0.38278 0.38021 0.0
H330 H 0.56513 0.50933 0.44523 0.0
C331 C 0.46687 0.3642 0.36798 0.0
H332 H 0.63649 0.44973 0.4188 0.0
C333 C 0.4262 0.39994 0.38284 0.0
C334 C 0.46141 0.45451 0.41044 0.0
H335 H 0.43962 0.32484 0.34605 0.0
H336 H 0.36853 0.38678 0.37185 0.0
C337 C 0.53677 0.46967 0.42352 0.0
C338 C 0.71856 0.12091 1.04417 0.0
C339 C 0.71276 0.183 1.06018 0.0
H340 H 0.67492 0.99336 1.04219 0.0
C341 C 0.66369 0.1632 0.0898 0.0
H342 H 0.75519 0.13375 1.02116 0.0
C343 C 0.61772 0.08288 0.10191 0.0
C344 C 0.61896 1.0196 0.08464 0.0
H345 H 0.65806 0.20955 0.1029 0.0
H346 H 0.57977 0.07035 0.12444 0.0
C347 C 0.67202 0.0401 1.05621 0.0
loop_
_geom_bond_atom_site_label_1
_geom_bond_atom_site_label_2
_geom_bond_distance
_geom_bond_site_symmetry_2
_ccdc_geom_bond_type
C0 C1 1.351 . S
C0 N3 1.368 . S
C0 H5 0.931 . S
C1 C0 1.351 . S
C1 N2 1.373 . S
C1 H29 0.930 . S
N2 C1 1.373 . S
N2 C4 1.340 . S
N3 C0 1.368 . S
N3 C4 1.321 . S
N3 Co6 2.135 . S
C4 N2 1.340 . S
C4 N3 1.321 . S
C4 H28 0.930 . S
H5 C0 0.931 . S
Co6 N3 2.135 . S
Co6 N9 2.121 . S
Co6 O14 2.055 . S
Co6 O17 2.039 . S
Co6 N20 2.140 . S
C7 O8 1.227 . S
C7 O17 1.265 . S
O8 C7 1.227 . S
N9 Co6 2.121 . S
N9 C11 1.375 . S
N9 C12 1.313 . S
C10 C11 1.338 . S
C10 N13 1.377 . S
C10 H30 0.930 . S
C11 N9 1.375 . S
C11 C10 1.338 . S
C11 H15 0.931 . S
C12 N9 1.313 . S
C12 N13 1.344 . S
C12 H16 0.930 . S
N13 C10 1.377 . S
N13 C12 1.344 . S
O14 Co6 2.055 . S
O14 C18 1.253 . S
H15 C11 0.931 . S
H16 C12 0.930 . S
O17 Co6 2.039 . S
O17 C7 1.265 . S
C18 O14 1.253 . S
C18 O19 1.227 . S
O19 C18 1.227 . S
N20 Co6 2.140 . S
N20 C23 1.346 . S
N20 C24 1.345 . S
C21 C22 1.387 . S
C21 C25 1.391 . S
C22 C21 1.387 . S
C22 C23 1.369 . S
C22 H31 0.929 . S
C23 N20 1.346 . S
C23 C22 1.369 . S
C23 H26 0.928 . S
C24 N20 1.345 . S
C24 C25 1.371 . S
C24 H27 0.931 . S
C25 C21 1.391 . S
C25 C24 1.371 . S
C25 H32 0.930 . S
H26 C23 0.928 . S
H27 C24 0.931 . S
H28 C4 0.930 . S
H29 C1 0.930 . S
H30 C10 0.930 . S
H31 C22 0.929 . S
H32 C25 0.930 . S
C33 C34 1.351 . S
C33 N36 1.368 . S
C33 H38 0.931 . S
C34 C33 1.351 . S
C34 N35 1.373 . S
C34 H62 0.930 1_556 S
N35 C34 1.373 . S
N35 C37 1.340 . S
N36 C33 1.368 . S
N36 C37 1.321 . S
N36 Co39 2.135 . S
C37 N35 1.340 . S
C37 N36 1.321 . S
C37 H61 0.930 . S
H38 C33 0.931 . S
Co39 N36 2.135 . S
Co39 N42 2.121 . S
Co39 O47 2.055 . S
Co39 O50 2.039 . S
Co39 N53 2.140 . S
C40 O41 1.227 . S
C40 O50 1.265 . S
O41 C40 1.227 . S
N42 Co39 2.121 . S
N42 C44 1.375 . S
N42 C45 1.313 . S
C43 C44 1.338 . S
C43 N46 1.377 . S
C43 H63 0.930 . S
C44 N42 1.375 . S
C44 C43 1.338 . S
C44 H48 0.931 . S
C45 N42 1.313 . S
C45 N46 1.344 . S
C45 H49 0.930 . S
N46 C43 1.377 . S
N46 C45 1.344 . S
O47 Co39 2.055 . S
O47 C51 1.253 . S
H48 C44 0.931 . S
H49 C45 0.930 . S
O50 Co39 2.039 . S
O50 C40 1.265 . S
C51 O47 1.253 . S
C51 O52 1.227 . S
O52 C51 1.227 . S
N53 Co39 2.140 . S
N53 C56 1.346 . S
N53 C57 1.345 . S
C54 C55 1.387 . S
C54 C58 1.391 . S
C55 C54 1.387 . S
C55 C56 1.369 . S
C55 H64 0.929 . S
C56 N53 1.346 . S
C56 C55 1.369 . S
C56 H59 0.928 . S
C57 N53 1.345 . S
C57 C58 1.371 . S
C57 H60 0.931 . S
C58 C54 1.391 . S
C58 C57 1.371 . S
C58 H65 0.930 . S
H59 C56 0.928 . S
H60 C57 0.931 . S
H61 C37 0.930 . S
H62 C34 0.930 1_554 S
H63 C43 0.930 . S
H64 C55 0.929 . S
H65 C58 0.930 . S
C66 C67 1.351 . S
C66 N69 1.368 . S
C66 H71 0.931 . S
C67 C66 1.351 . S
C67 N68 1.373 . S
C67 H95 0.930 . S
N68 C67 1.373 . S
N68 C70 1.340 . S
N69 C66 1.368 . S
N69 C70 1.321 . S
N69 Co72 2.135 . S
C70 N68 1.340 . S
C70 N69 1.321 . S
C70 H94 0.930 . S
H71 C66 0.931 . S
Co72 N69 2.135 . S
Co72 N75 2.121 . S
Co72 O80 2.055 . S
Co72 O83 2.039 . S
Co72 N86 2.140 . S
C73 O74 1.227 . S
C73 O83 1.265 . S
O74 C73 1.227 . S
N75 Co72 2.121 . S
N75 C77 1.375 . S
N75 C78 1.313 . S
C76 C77 1.338 . S
C76 N79 1.377 . S
C76 H96 0.930 . S
C77 N75 1.375 . S
C77 C76 1.338 . S
C77 H81 0.931 . S
C78 N75 1.313 . S
C78 N79 1.344 . S
C78 H82 0.930 . S
N79 C76 1.377 . S
N79 C78 1.344 . S
O80 Co72 2.055 . S
O80 C84 1.253 . S
H81 C77 0.931 . S
H82 C78 0.930 . S
O83 Co72 2.039 . S
O83 C73 1.265 . S
C84 O80 1.253 . S
C84 O85 1.227 . S
O85 C84 1.227 . S
N86 Co72 2.140 . S
N86 C89 1.346 . S
N86 C90 1.345 . S
C87 C88 1.387 . S
C87 C91 1.391 . S
C88 C87 1.387 . S
C88 C89 1.369 . S
C88 H97 0.929 . S
C89 N86 1.346 . S
C89 C88 1.369 . S
C89 H92 0.928 . S
C90 N86 1.345 . S
C90 C91 1.371 . S
C90 H93 0.931 . S
C91 C87 1.391 . S
C91 C90 1.371 . S
C91 H98 0.930 . S
H92 C89 0.928 . S
H93 C90 0.931 . S
H94 C70 0.930 . S
H95 C67 0.930 . S
H96 C76 0.930 . S
H97 C88 0.929 . S
H98 C91 0.930 . S
C99 C100 1.351 . S
C99 N102 1.368 . S
C99 H104 0.931 . S
C100 C99 1.351 . S
C100 N101 1.373 . S
C100 H128 0.930 . S
N101 C100 1.373 . S
N101 C103 1.340 . S
N102 C99 1.368 . S
N102 C103 1.321 . S
N102 Co105 2.135 . S
C103 N101 1.340 . S
C103 N102 1.321 . S
C103 H127 0.930 . S
H104 C99 0.931 . S
Co105 N102 2.135 . S
Co105 N108 2.121 . S
Co105 O113 2.055 . S
Co105 O116 2.039 . S
Co105 N119 2.140 . S
C106 O107 1.227 . S
C106 O116 1.265 . S
O107 C106 1.227 . S
N108 Co105 2.121 . S
N108 C110 1.375 . S
N108 C111 1.313 . S
C109 C110 1.338 . S
C109 N112 1.377 . S
C109 H129 0.930 . S
C110 N108 1.375 . S
C110 C109 1.338 . S
C110 H114 0.931 . S
C111 N108 1.313 . S
C111 N112 1.344 . S
C111 H115 0.930 . S
N112 C109 1.377 . S
N112 C111 1.344 . S
O113 Co105 2.055 . S
O113 C117 1.253 . S
H114 C110 0.931 . S
H115 C111 0.930 . S
O116 Co105 2.039 . S
O116 C106 1.265 . S
C117 O113 1.253 . S
C117 O118 1.227 . S
O118 C117 1.227 . S
N119 Co105 2.140 . S
N119 C122 1.346 . S
N119 C123 1.345 . S
C120 C121 1.387 . S
C120 C124 1.391 . S
C121 C120 1.387 . S
C121 C122 1.369 . S
C121 H130 0.929 . S
C122 N119 1.346 . S
C122 C121 1.369 . S
C122 H125 0.928 . S
C123 N119 1.345 . S
C123 C124 1.371 . S
C123 H126 0.931 . S
C124 C120 1.391 . S
C124 C123 1.371 . S
C124 H131 0.930 . S
H125 C122 0.928 . S
H126 C123 0.931 . S
H127 C103 0.930 . S
H128 C100 0.930 . S
H129 C109 0.930 . S
H130 C121 0.929 . S
H131 C124 0.930 . S
C132 C133 1.351 . S
C132 N135 1.368 . S
C132 H137 0.931 . S
C133 C132 1.351 . S
C133 N134 1.373 . S
C133 H161 0.930 . S
N134 C133 1.373 . S
N134 C136 1.340 . S
N135 C132 1.368 . S
N135 C136 1.321 . S
N135 Co138 2.135 . S
C136 N134 1.340 . S
C136 N135 1.321 . S
C136 H160 0.930 . S
H137 C132 0.931 . S
Co138 N135 2.135 . S
Co138 N141 2.121 . S
Co138 O146 2.055 . S
Co138 O149 2.039 . S
Co138 N152 2.140 . S
C139 O140 1.227 . S
C139 O149 1.265 . S
O140 C139 1.227 . S
N141 Co138 2.121 . S
N141 C143 1.375 . S
N141 C144 1.313 . S
C142 C143 1.338 . S
C142 N145 1.377 . S
C142 H162 0.930 . S
C143 N141 1.375 . S
C143 C142 1.338 . S
C143 H147 0.931 . S
C144 N141 1.313 . S
C144 N145 1.344 . S
C144 H148 0.930 . S
N145 C142 1.377 . S
N145 C144 1.344 . S
O146 Co138 2.055 . S
O146 C150 1.253 . S
H147 C143 0.931 . S
H148 C144 0.930 . S
O149 Co138 2.039 . S
O149 C139 1.265 . S
C150 O146 1.253 . S
C150 O151 1.227 . S
O151 C150 1.227 . S
N152 Co138 2.140 . S
N152 C155 1.346 . S
N152 C156 1.345 . S
C153 C154 1.387 . S
C153 C157 1.391 . S
C154 C153 1.387 . S
C154 C155 1.369 . S
C154 H163 0.929 . S
C155 N152 1.346 . S
C155 C154 1.369 . S
C155 H158 0.928 . S
C156 N152 1.345 . S
C156 C157 1.371 . S
C156 H159 0.931 . S
C157 C153 1.391 . S
C157 C156 1.371 . S
C157 H164 0.930 . S
H158 C155 0.928 . S
H159 C156 0.931 . S
H160 C136 0.930 . S
H161 C133 0.930 . S
H162 C142 0.930 . S
H163 C154 0.929 . S
H164 C157 0.930 . S
C165 C166 1.351 . S
C165 N168 1.368 . S
C165 H170 0.931 . S
C166 C165 1.351 . S
C166 N167 1.373 . S
C166 H194 0.930 1_554 S
N167 C166 1.373 . S
N167 C169 1.340 . S
N168 C165 1.368 . S
N168 C169 1.321 . S
N168 Co171 2.135 . S
C169 N167 1.340 . S
C169 N168 1.321 . S
C169 H193 0.930 . S
H170 C165 0.931 . S
Co171 N168 2.135 . S
Co171 N174 2.121 . S
Co171 O179 2.055 . S
Co171 O182 2.039 . S
Co171 N185 2.140 . S
C172 O173 1.227 . S
C172 O182 1.265 . S
O173 C172 1.227 . S
N174 Co171 2.121 . S
N174 C176 1.375 . S
N174 C177 1.313 . S
C175 C176 1.338 . S
C175 N178 1.377 . S
C175 H195 0.930 . S
C176 N174 1.375 . S
C176 C175 1.338 . S
C176 H180 0.931 . S
C177 N174 1.313 . S
C177 N178 1.344 . S
C177 H181 0.930 . S
N178 C175 1.377 . S
N178 C177 1.344 . S
O179 Co171 2.055 . S
O179 C183 1.253 . S
H180 C176 0.931 . S
H181 C177 0.930 . S
O182 Co171 2.039 . S
O182 C172 1.265 . S
C183 O179 1.253 . S
C183 O184 1.227 . S
O184 C183 1.227 . S
N185 Co171 2.140 . S
N185 C188 1.346 . S
N185 C189 1.345 . S
C186 C187 1.387 . S
C186 C190 1.391 . S
C187 C186 1.387 . S
C187 C188 1.369 . S
C187 H196 0.929 . S
C188 N185 1.346 . S
C188 C187 1.369 . S
C188 H191 0.928 . S
C189 N185 1.345 . S
C189 C190 1.371 . S
C189 H192 0.931 . S
C190 C186 1.391 . S
C190 C189 1.371 . S
C190 H197 0.930 . S
H191 C188 0.928 . S
H192 C189 0.931 . S
H193 C169 0.930 . S
H194 C166 0.930 1_556 S
H195 C175 0.930 . S
H196 C187 0.929 . S
H197 C190 0.930 . S
C198 C199 1.387 . S
C198 H202 0.950 . S
C198 C207 1.390 1_545 S
C199 C198 1.387 . S
C199 C201 1.387 . S
H200 C207 0.950 . S
C201 C199 1.387 . S
C201 C203 1.390 1_545 S
C201 H205 0.950 . S
H202 C198 0.950 . S
C203 C201 1.390 1_565 S
C203 C204 1.387 . S
C203 H206 0.950 . S
C204 C203 1.387 . S
C204 C207 1.387 . S
H205 C201 0.950 . S
H206 C203 0.950 . S
C207 C198 1.390 1_565 S
C207 H200 0.950 . S
C207 C204 1.387 . S
C208 C209 1.387 1_655 S
C208 H212 0.950 . S
C208 C217 1.390 . S
C209 C208 1.387 1_455 S
C209 C211 1.387 . S
H210 C217 0.950 . S
C211 C209 1.387 . S
C211 C213 1.390 . S
C211 H215 0.950 . S
H212 C208 0.950 . S
C213 C211 1.390 . S
C213 C214 1.387 1_455 S
C213 H216 0.950 . S
C214 C213 1.387 1_655 S
C214 C217 1.387 . S
H215 C211 0.950 . S
H216 C213 0.950 . S
C217 C208 1.390 . S
C217 H210 0.950 . S
C217 C214 1.387 . S
C218 C219 1.387 . S
C218 H222 0.950 . S
C218 C227 1.390 . S
C219 C218 1.387 . S
C219 C221 1.387 . S
H220 C227 0.950 . S
C221 C219 1.387 . S
C221 C223 1.390 . S
C221 H225 0.950 . S
H222 C218 0.950 . S
C223 C221 1.390 . S
C223 C224 1.387 . S
C223 H226 0.950 . S
C224 C223 1.387 . S
C224 C227 1.387 . S
H225 C221 0.950 . S
H226 C223 0.950 . S
C227 C218 1.390 . S
C227 H220 0.950 . S
C227 C224 1.387 . S
C228 C229 1.387 . S
C228 H232 0.950 . S
C228 C237 1.390 . S
C229 C228 1.387 . S
C229 C231 1.387 . S
H230 C237 0.950 . S
C231 C229 1.387 . S
C231 C233 1.390 . S
C231 H235 0.950 . S
H232 C228 0.950 . S
C233 C231 1.390 . S
C233 C234 1.387 . S
C233 H236 0.950 . S
C234 C233 1.387 . S
C234 C237 1.387 . S
H235 C231 0.950 . S
H236 C233 0.950 . S
C237 C228 1.390 . S
C237 H230 0.950 . S
C237 C234 1.387 . S
C238 C239 1.387 . S
C238 H242 0.950 . S
C238 C247 1.390 . S
C239 C238 1.387 . S
C239 C241 1.387 . S
H240 C247 0.950 . S
C241 C239 1.387 . S
C241 C243 1.390 . S
C241 H245 0.950 . S
H242 C238 0.950 . S
C243 C241 1.390 . S
C243 C244 1.387 . S
C243 H246 0.950 . S
C244 C243 1.387 . S
C244 C247 1.387 . S
H245 C241 0.950 . S
H246 C243 0.950 . S
C247 C238 1.390 . S
C247 H240 0.950 . S
C247 C244 1.387 . S
C248 C249 1.387 . S
C248 H252 0.950 . S
C248 C257 1.390 . S
C249 C248 1.387 . S
C249 C251 1.387 . S
H250 C257 0.950 . S
C251 C249 1.387 . S
C251 C253 1.390 . S
C251 H255 0.950 . S
H252 C248 0.950 . S
C253 C251 1.390 . S
C253 C254 1.387 . S
C253 H256 0.950 . S
C254 C253 1.387 . S
C254 C257 1.387 . S
H255 C251 0.950 . S
H256 C253 0.950 . S
C257 C248 1.390 . S
C257 H250 0.950 . S
C257 C254 1.387 . S
C258 C259 1.387 . S
C258 H262 0.950 . S
C258 C267 1.390 . S
C259 C258 1.387 . S
C259 C261 1.387 . S
H260 C267 0.950 . S
C261 C259 1.387 . S
C261 C263 1.390 . S
C261 H265 0.950 . S
H262 C258 0.950 . S
C263 C261 1.390 . S
C263 C264 1.387 . S
C263 H266 0.950 . S
C264 C263 1.387 . S
C264 C267 1.387 . S
H265 C261 0.950 . S
H266 C263 0.950 . S
C267 C258 1.390 . S
C267 H260 0.950 . S
C267 C264 1.387 . S
C268 C269 1.387 . S
C268 H272 0.950 . S
C268 C277 1.390 . S
C269 C268 1.387 . S
C269 C271 1.387 . S
H270 C277 0.950 . S
C271 C269 1.387 . S
C271 C273 1.390 . S
C271 H275 0.950 . S
H272 C268 0.950 . S
C273 C271 1.390 . S
C273 C274 1.387 . S
C273 H276 0.950 . S
C274 C273 1.387 . S
C274 C277 1.387 . S
H275 C271 0.950 . S
H276 C273 0.950 . S
C277 C268 1.390 . S
C277 H270 0.950 . S
C277 C274 1.387 . S
C278 C279 1.387 . S
C278 H282 0.950 . S
C278 C287 1.390 . S
C279 C278 1.387 . S
C279 C281 1.387 . S
H280 C287 0.950 . S
C281 C279 1.387 . S
C281 C283 1.390 . S
C281 H285 0.950 . S
H282 C278 0.950 . S
C283 C281 1.390 . S
C283 C284 1.387 . S
C283 H286 0.950 . S
C284 C283 1.387 . S
C284 C287 1.387 . S
H285 C281 0.950 . S
H286 C283 0.950 . S
C287 C278 1.390 . S
C287 H280 0.950 . S
C287 C284 1.387 . S
C288 C289 1.387 1_545 S
C288 H292 0.950 . S
C288 C297 1.390 . S
C289 C288 1.387 1_565 S
C289 C291 1.387 . S
H290 C297 0.950 . S
C291 C289 1.387 . S
C291 C293 1.390 1_565 S
C291 H295 0.950 . S
H292 C288 0.950 . S
C293 C291 1.390 1_545 S
C293 C294 1.387 . S
C293 H296 0.950 1_545 S
C294 C293 1.387 . S
C294 C297 1.387 . S
H295 C291 0.950 . S
H296 C293 0.950 1_565 S
C297 C288 1.390 . S
C297 H290 0.950 . S
C297 C294 1.387 . S
C298 C299 1.387 . S
C298 H302 0.950 . S
C298 C307 1.390 1_656 S
C299 C298 1.387 . S
C299 C301 1.387 1_556 S
H300 C307 0.950 . S
C301 C299 1.387 1_554 S
C301 C303 1.390 1_655 S
C301 H305 0.950 . S
H302 C298 0.950 . S
C303 C301 1.390 1_455 S
C303 C304 1.387 . S
C303 H306 0.950 . S
C304 C303 1.387 . S
C304 C307 1.387 . S
H305 C301 0.950 . S
H306 C303 0.950 . S
C307 C298 1.390 1_454 S
C307 H300 0.950 . S
C307 C304 1.387 . S
C308 C309 1.387 . S
C308 H312 0.950 . S
C308 C317 1.390 . S
C309 C308 1.387 . S
C309 C311 1.387 . S
H310 C317 0.950 . S
C311 C309 1.387 . S
C311 C313 1.390 . S
C311 H315 0.950 . S
H312 C308 0.950 . S
C313 C311 1.390 . S
C313 C314 1.387 . S
C313 H316 0.950 . S
C314 C313 1.387 . S
C314 C317 1.387 . S
H315 C311 0.950 . S
H316 C313 0.950 . S
C317 C308 1.390 . S
C317 H310 0.950 . S
C317 C314 1.387 . S
C318 C319 1.387 . S
C318 H322 0.950 . S
C318 C327 1.390 . S
C319 C318 1.387 . S
C319 C321 1.387 . S
H320 C327 0.950 . S
C321 C319 1.387 . S
C321 C323 1.390 1_455 S
C321 H325 0.950 . S
H322 C318 0.950 . S
C323 C321 1.390 1_655 S
C323 C324 1.387 . S
C323 H326 0.950 . S
C324 C323 1.387 . S
C324 C327 1.387 1_655 S
H325 C321 0.950 . S
H326 C323 0.950 . S
C327 C318 1.390 . S
C327 H320 0.950 . S
C327 C324 1.387 1_455 S
C328 C329 1.387 . S
C328 H332 0.950 . S
C328 C337 1.390 . S
C329 C328 1.387 . S
C329 C331 1.387 . S
H330 C337 0.950 . S
C331 C329 1.387 . S
C331 C333 1.390 . S
C331 H335 0.950 . S
H332 C328 0.950 . S
C333 C331 1.390 . S
C333 C334 1.387 . S
C333 H336 0.950 . S
C334 C333 1.387 . S
C334 C337 1.387 . S
H335 C331 0.950 . S
H336 C333 0.950 . S
C337 C328 1.390 . S
C337 H330 0.950 . S
C337 C334 1.387 . S
C338 C339 1.387 1_565 S
C338 H342 0.950 . S
C338 C347 1.390 . S
C339 C338 1.387 1_545 S
C339 C341 1.387 1_556 S
H340 C347 0.950 . S
C341 C339 1.387 1_554 S
C341 C343 1.390 1_545 S
C341 H345 0.950 . S
H342 C338 0.950 . S
C343 C341 1.390 1_565 S
C343 C344 1.387 . S
C343 H346 0.950 1_565 S
C344 C343 1.387 . S
C344 C347 1.387 1_554 S
H345 C341 0.950 . S
H346 C343 0.950 1_545 S
C347 C338 1.390 . S
C347 H340 0.950 . S
C347 C344 1.387 1_556 S
C199 C7 1.620 . S
C204 C172 1.620 . S
C209 C106 1.619 . S
C214 C40 1.621 . S
C219 C139 1.622 . S
C224 C73 1.620 . S
C229 C186 1.200 . S
C234 N13 1.201 . S
C239 C120 1.200 . S
C244 N46 1.203 1_565 S
C249 N79 1.201 1_455 S
C254 C153 1.201 . S
C259 C54 1.201 . S
C264 N112 1.201 . S
C269 C87 1.201 . S
C274 N145 1.201 1_545 S
C279 N178 1.202 1_655 S
C284 C21 1.202 . S
C289 C150 1.638 . S
C294 N2 1.602 . S
C299 N35 1.601 . S
C304 C183 1.639 . S
C309 C117 1.640 . S
C314 N68 1.600 . S
C319 N101 1.602 . S
C324 C84 1.639 . S
C329 C18 1.640 . S
C334 N134 1.600 . S
C339 C51 1.638 . S
C344 N167 1.602 . S
