# Generated by pormake.
# Topology uko, (4)-cn, num edge types: 1
# Building blocks:
#     Node 0, Type 0, BuildingBlock: QUQFOY_clean_sbu_1, # of connection points: 4
#     Node 1, Type 0, BuildingBlock: QUQFOY_clean_sbu_1, # of connection points: 4
#     Node 2, Type 0, BuildingBlock: QUQFOY_clean_sbu_1, # of connection points: 4
#     Node 3, Type 0, BuildingBlock: QUQFOY_clean_sbu_1, # of connection points: 4
#     Node 4, Type 0, BuildingBlock: QUQFOY_clean_sbu_1, # of connection points: 4
#     Node 5, Type 0, BuildingBlock: QUQFOY_clean_sbu_1, # of connection points: 4
#     Node 6, Type 0, BuildingBlock: QUQFOY_clean_sbu_1, # of connection points: 4
#     Node 7, Type 0, BuildingBlock: QUQFOY_clean_sbu_1, # of connection points: 4
#     Node 8, Type 0, BuildingBlock: QUQFOY_clean_sbu_1, # of connection points: 4
#     Node 9, Type 0, BuildingBlock: QUQFOY_clean_sbu_1, # of connection points: 4
#     Node 10, Type 0, BuildingBlock: QUQFOY_clean_sbu_1, # of connection points: 4
#     Node 11, Type 0, BuildingBlock: QUQFOY_clean_sbu_1, # of connection points: 4
#     Node 12, Type 0, BuildingBlock: QUQFOY_clean_sbu_1, # of connection points: 4
#     Node 13, Type 0, BuildingBlock: QUQFOY_clean_sbu_1, # of connection points: 4
#     Node 14, Type 0, BuildingBlock: QUQFOY_clean_sbu_1, # of connection points: 4
#     Node 15, Type 0, BuildingBlock: QUQFOY_clean_sbu_1, # of connection points: 4
#     Node 16, Type 0, BuildingBlock: QUQFOY_clean_sbu_1, # of connection points: 4
#     Node 17, Type 0, BuildingBlock: QUQFOY_clean_sbu_1, # of connection points: 4
#     Node 18, Type 0, BuildingBlock: QUQFOY_clean_sbu_1, # of connection points: 4
#     Node 19, Type 0, BuildingBlock: QUQFOY_clean_sbu_1, # of connection points: 4
#     Node 20, Type 0, BuildingBlock: QUQFOY_clean_sbu_1, # of connection points: 4
#     Node 21, Type 0, BuildingBlock: QUQFOY_clean_sbu_1, # of connection points: 4
#     Node 22, Type 0, BuildingBlock: QUQFOY_clean_sbu_1, # of connection points: 4
#     Node 23, Type 0, BuildingBlock: QUQFOY_clean_sbu_1, # of connection points: 4
#     Node 24, Type 0, BuildingBlock: QUQFOY_clean_sbu_1, # of connection points: 4
#     Node 25, Type 0, BuildingBlock: QUQFOY_clean_sbu_1, # of connection points: 4
#     Node 26, Type 0, BuildingBlock: QUQFOY_clean_sbu_1, # of connection points: 4
#     Node 27, Type 0, BuildingBlock: QUQFOY_clean_sbu_1, # of connection points: 4
#     Node 28, Type 0, BuildingBlock: QUQFOY_clean_sbu_1, # of connection points: 4
#     Node 29, Type 0, BuildingBlock: QUQFOY_clean_sbu_1, # of connection points: 4
#     Node 30, Type 0, BuildingBlock: QUQFOY_clean_sbu_1, # of connection points: 4
#     Node 31, Type 0, BuildingBlock: QUQFOY_clean_sbu_1, # of connection points: 4
#     Node 32, Type 0, BuildingBlock: QUQFOY_clean_sbu_1, # of connection points: 4
#     Node 33, Type 0, BuildingBlock: QUQFOY_clean_sbu_1, # of connection points: 4
#     Node 34, Type 0, BuildingBlock: QUQFOY_clean_sbu_1, # of connection points: 4
#     Node 35, Type 0, BuildingBlock: QUQFOY_clean_sbu_1, # of connection points: 4
#     Node 36, Type 0, BuildingBlock: QUQFOY_clean_sbu_1, # of connection points: 4
#     Node 37, Type 0, BuildingBlock: QUQFOY_clean_sbu_1, # of connection points: 4
#     Node 38, Type 0, BuildingBlock: QUQFOY_clean_sbu_1, # of connection points: 4
#     Node 39, Type 0, BuildingBlock: QUQFOY_clean_sbu_1, # of connection points: 4
#     Node 40, Type 0, BuildingBlock: QUQFOY_clean_sbu_1, # of connection points: 4
#     Node 41, Type 0, BuildingBlock: QUQFOY_clean_sbu_1, # of connection points: 4
#     Node 42, Type 0, BuildingBlock: QUQFOY_clean_sbu_1, # of connection points: 4
#     Node 43, Type 0, BuildingBlock: QUQFOY_clean_sbu_1, # of connection points: 4
#     Node 44, Type 0, BuildingBlock: QUQFOY_clean_sbu_1, # of connection points: 4
#     Node 45, Type 0, BuildingBlock: QUQFOY_clean_sbu_1, # of connection points: 4
#     Node 46, Type 0, BuildingBlock: QUQFOY_clean_sbu_1, # of connection points: 4
#     Node 47, Type 0, BuildingBlock: QUQFOY_clean_sbu_1, # of connection points: 4
#     Edge 48, Type (0, 0), BuildingBlock: UVAHIK_clean_linker_0, # of connection points: 2
#     Edge 49, Type (0, 0), BuildingBlock: UVAHIK_clean_linker_0, # of connection points: 2
#     Edge 50, Type (0, 0), BuildingBlock: UVAHIK_clean_linker_0, # of connection points: 2
#     Edge 51, Type (0, 0), BuildingBlock: UVAHIK_clean_linker_0, # of connection points: 2
#     Edge 52, Type (0, 0), BuildingBlock: UVAHIK_clean_linker_0, # of connection points: 2
#     Edge 53, Type (0, 0), BuildingBlock: UVAHIK_clean_linker_0, # of connection points: 2
#     Edge 54, Type (0, 0), BuildingBlock: UVAHIK_clean_linker_0, # of connection points: 2
#     Edge 55, Type (0, 0), BuildingBlock: UVAHIK_clean_linker_0, # of connection points: 2
#     Edge 56, Type (0, 0), BuildingBlock: UVAHIK_clean_linker_0, # of connection points: 2
#     Edge 57, Type (0, 0), BuildingBlock: UVAHIK_clean_linker_0, # of connection points: 2
#     Edge 58, Type (0, 0), BuildingBlock: UVAHIK_clean_linker_0, # of connection points: 2
#     Edge 59, Type (0, 0), BuildingBlock: UVAHIK_clean_linker_0, # of connection points: 2
#     Edge 60, Type (0, 0), BuildingBlock: UVAHIK_clean_linker_0, # of connection points: 2
#     Edge 61, Type (0, 0), BuildingBlock: UVAHIK_clean_linker_0, # of connection points: 2
#     Edge 62, Type (0, 0), BuildingBlock: UVAHIK_clean_linker_0, # of connection points: 2
#     Edge 63, Type (0, 0), BuildingBlock: UVAHIK_clean_linker_0, # of connection points: 2
#     Edge 64, Type (0, 0), BuildingBlock: UVAHIK_clean_linker_0, # of connection points: 2
#     Edge 65, Type (0, 0), BuildingBlock: UVAHIK_clean_linker_0, # of connection points: 2
#     Edge 66, Type (0, 0), BuildingBlock: UVAHIK_clean_linker_0, # of connection points: 2
#     Edge 67, Type (0, 0), BuildingBlock: UVAHIK_clean_linker_0, # of connection points: 2
#     Edge 68, Type (0, 0), BuildingBlock: UVAHIK_clean_linker_0, # of connection points: 2
#     Edge 69, Type (0, 0), BuildingBlock: UVAHIK_clean_linker_0, # of connection points: 2
#     Edge 70, Type (0, 0), BuildingBlock: UVAHIK_clean_linker_0, # of connection points: 2
#     Edge 71, Type (0, 0), BuildingBlock: UVAHIK_clean_linker_0, # of connection points: 2
#     Edge 72, Type (0, 0), BuildingBlock: UVAHIK_clean_linker_0, # of connection points: 2
#     Edge 73, Type (0, 0), BuildingBlock: UVAHIK_clean_linker_0, # of connection points: 2
#     Edge 74, Type (0, 0), BuildingBlock: UVAHIK_clean_linker_0, # of connection points: 2
#     Edge 75, Type (0, 0), BuildingBlock: UVAHIK_clean_linker_0, # of connection points: 2
#     Edge 76, Type (0, 0), BuildingBlock: UVAHIK_clean_linker_0, # of connection points: 2
#     Edge 77, Type (0, 0), BuildingBlock: UVAHIK_clean_linker_0, # of connection points: 2
#     Edge 78, Type (0, 0), BuildingBlock: UVAHIK_clean_linker_0, # of connection points: 2
#     Edge 79, Type (0, 0), BuildingBlock: UVAHIK_clean_linker_0, # of connection points: 2
#     Edge 80, Type (0, 0), BuildingBlock: UVAHIK_clean_linker_0, # of connection points: 2
#     Edge 81, Type (0, 0), BuildingBlock: UVAHIK_clean_linker_0, # of connection points: 2
#     Edge 82, Type (0, 0), BuildingBlock: UVAHIK_clean_linker_0, # of connection points: 2
#     Edge 83, Type (0, 0), BuildingBlock: UVAHIK_clean_linker_0, # of connection points: 2
#     Edge 84, Type (0, 0), BuildingBlock: UVAHIK_clean_linker_0, # of connection points: 2
#     Edge 85, Type (0, 0), BuildingBlock: UVAHIK_clean_linker_0, # of connection points: 2
#     Edge 86, Type (0, 0), BuildingBlock: UVAHIK_clean_linker_0, # of connection points: 2
#     Edge 87, Type (0, 0), BuildingBlock: UVAHIK_clean_linker_0, # of connection points: 2
#     Edge 88, Type (0, 0), BuildingBlock: UVAHIK_clean_linker_0, # of connection points: 2
#     Edge 89, Type (0, 0), BuildingBlock: UVAHIK_clean_linker_0, # of connection points: 2
#     Edge 90, Type (0, 0), BuildingBlock: UVAHIK_clean_linker_0, # of connection points: 2
#     Edge 91, Type (0, 0), BuildingBlock: UVAHIK_clean_linker_0, # of connection points: 2
#     Edge 92, Type (0, 0), BuildingBlock: UVAHIK_clean_linker_0, # of connection points: 2
#     Edge 93, Type (0, 0), BuildingBlock: UVAHIK_clean_linker_0, # of connection points: 2
#     Edge 94, Type (0, 0), BuildingBlock: UVAHIK_clean_linker_0, # of connection points: 2
#     Edge 95, Type (0, 0), BuildingBlock: UVAHIK_clean_linker_0, # of connection points: 2
#     Edge 96, Type (0, 0), BuildingBlock: UVAHIK_clean_linker_0, # of connection points: 2
#     Edge 97, Type (0, 0), BuildingBlock: UVAHIK_clean_linker_0, # of connection points: 2
#     Edge 98, Type (0, 0), BuildingBlock: UVAHIK_clean_linker_0, # of connection points: 2
#     Edge 99, Type (0, 0), BuildingBlock: UVAHIK_clean_linker_0, # of connection points: 2
#     Edge 100, Type (0, 0), BuildingBlock: UVAHIK_clean_linker_0, # of connection points: 2
#     Edge 101, Type (0, 0), BuildingBlock: UVAHIK_clean_linker_0, # of connection points: 2
#     Edge 102, Type (0, 0), BuildingBlock: UVAHIK_clean_linker_0, # of connection points: 2
#     Edge 103, Type (0, 0), BuildingBlock: UVAHIK_clean_linker_0, # of connection points: 2
#     Edge 104, Type (0, 0), BuildingBlock: UVAHIK_clean_linker_0, # of connection points: 2
#     Edge 105, Type (0, 0), BuildingBlock: UVAHIK_clean_linker_0, # of connection points: 2
#     Edge 106, Type (0, 0), BuildingBlock: UVAHIK_clean_linker_0, # of connection points: 2
#     Edge 107, Type (0, 0), BuildingBlock: UVAHIK_clean_linker_0, # of connection points: 2
#     Edge 108, Type (0, 0), BuildingBlock: UVAHIK_clean_linker_0, # of connection points: 2
#     Edge 109, Type (0, 0), BuildingBlock: UVAHIK_clean_linker_0, # of connection points: 2
#     Edge 110, Type (0, 0), BuildingBlock: UVAHIK_clean_linker_0, # of connection points: 2
#     Edge 111, Type (0, 0), BuildingBlock: UVAHIK_clean_linker_0, # of connection points: 2
#     Edge 112, Type (0, 0), BuildingBlock: UVAHIK_clean_linker_0, # of connection points: 2
#     Edge 113, Type (0, 0), BuildingBlock: UVAHIK_clean_linker_0, # of connection points: 2
#     Edge 114, Type (0, 0), BuildingBlock: UVAHIK_clean_linker_0, # of connection points: 2
#     Edge 115, Type (0, 0), BuildingBlock: UVAHIK_clean_linker_0, # of connection points: 2
#     Edge 116, Type (0, 0), BuildingBlock: UVAHIK_clean_linker_0, # of connection points: 2
#     Edge 117, Type (0, 0), BuildingBlock: UVAHIK_clean_linker_0, # of connection points: 2
#     Edge 118, Type (0, 0), BuildingBlock: UVAHIK_clean_linker_0, # of connection points: 2
#     Edge 119, Type (0, 0), BuildingBlock: UVAHIK_clean_linker_0, # of connection points: 2
#     Edge 120, Type (0, 0), BuildingBlock: UVAHIK_clean_linker_0, # of connection points: 2
#     Edge 121, Type (0, 0), BuildingBlock: UVAHIK_clean_linker_0, # of connection points: 2
#     Edge 122, Type (0, 0), BuildingBlock: UVAHIK_clean_linker_0, # of connection points: 2
#     Edge 123, Type (0, 0), BuildingBlock: UVAHIK_clean_linker_0, # of connection points: 2
#     Edge 124, Type (0, 0), BuildingBlock: UVAHIK_clean_linker_0, # of connection points: 2
#     Edge 125, Type (0, 0), BuildingBlock: UVAHIK_clean_linker_0, # of connection points: 2
#     Edge 126, Type (0, 0), BuildingBlock: UVAHIK_clean_linker_0, # of connection points: 2
#     Edge 127, Type (0, 0), BuildingBlock: UVAHIK_clean_linker_0, # of connection points: 2
#     Edge 128, Type (0, 0), BuildingBlock: UVAHIK_clean_linker_0, # of connection points: 2
#     Edge 129, Type (0, 0), BuildingBlock: UVAHIK_clean_linker_0, # of connection points: 2
#     Edge 130, Type (0, 0), BuildingBlock: UVAHIK_clean_linker_0, # of connection points: 2
#     Edge 131, Type (0, 0), BuildingBlock: UVAHIK_clean_linker_0, # of connection points: 2
#     Edge 132, Type (0, 0), BuildingBlock: UVAHIK_clean_linker_0, # of connection points: 2
#     Edge 133, Type (0, 0), BuildingBlock: UVAHIK_clean_linker_0, # of connection points: 2
#     Edge 134, Type (0, 0), BuildingBlock: UVAHIK_clean_linker_0, # of connection points: 2
#     Edge 135, Type (0, 0), BuildingBlock: UVAHIK_clean_linker_0, # of connection points: 2
#     Edge 136, Type (0, 0), BuildingBlock: UVAHIK_clean_linker_0, # of connection points: 2
#     Edge 137, Type (0, 0), BuildingBlock: UVAHIK_clean_linker_0, # of connection points: 2
#     Edge 138, Type (0, 0), BuildingBlock: UVAHIK_clean_linker_0, # of connection points: 2
#     Edge 139, Type (0, 0), BuildingBlock: UVAHIK_clean_linker_0, # of connection points: 2
#     Edge 140, Type (0, 0), BuildingBlock: UVAHIK_clean_linker_0, # of connection points: 2
#     Edge 141, Type (0, 0), BuildingBlock: UVAHIK_clean_linker_0, # of connection points: 2
#     Edge 142, Type (0, 0), BuildingBlock: UVAHIK_clean_linker_0, # of connection points: 2
#     Edge 143, Type (0, 0), BuildingBlock: UVAHIK_clean_linker_0, # of connection points: 2
# Relax obj value: 0.238
# Max RMSD: 0.116
# Mean RMSD: 0.116
data_MOF--net-uko--node1-QUQFOY_clean_sbu_1--edge1-UVAHIK_clean_linker_0
_symmetry_space_group_name_H-M    P1
_symmetry_Int_Tables_number       1
_symmetry_cell_setting            triclinic
loop_
_symmetry_equiv_pos_as_xyz
'x, y, z'
_cell_length_a     72.588273
_cell_length_b     72.619397
_cell_length_c     72.585925
_cell_angle_alpha  89.999072
_cell_angle_beta   90.000833
_cell_angle_gamma 90.001444
loop_
_atom_site_label
_atom_site_type_symbol
_atom_site_fract_x
_atom_site_fract_y
_atom_site_fract_z
_atom_type_partial_charge
O0 O 0.01406 0.36326 0.26145 0.0
Cd1 Cd 0.00365 0.36793 0.23557 0.0
Cd2 Cd 0.03757 0.38488 0.22857 0.0
O3 O 0.04201 0.37257 0.25397 0.0
O4 O 0.98804 0.34686 0.22778 0.0
O5 O 0.01527 0.35329 0.21539 0.0
C6 C 0.00112 0.3425 0.21649 0.0
C7 C 0.06505 0.39149 0.21277 0.0
C8 C 0.03094 0.36543 0.2655 0.0
C9 C 0.00114 0.40711 0.22697 0.0
O10 O 0.01857 0.40592 0.22568 0.0
O11 O 0.99151 0.39305 0.23082 0.0
O12 O 0.06023 0.40016 0.22741 0.0
O13 O 0.05429 0.37862 0.20692 0.0
O14 O 0.98059 0.1346 0.26071 0.0
Cd15 Cd 0.9914 0.12832 0.2353 0.0
Cd16 Cd 0.95957 0.10683 0.23173 0.0
O17 O 0.9546 0.11934 0.25686 0.0
O18 O 0.00804 0.1488 0.22809 0.0
O19 O 0.98146 0.14304 0.21414 0.0
C20 C 0.99588 0.15334 0.21594 0.0
C21 C 0.93288 0.09929 0.21517 0.0
C22 C 0.96481 0.12978 0.26652 0.0
C23 C 0.99752 0.08834 0.23018 0.0
O24 O 0.98007 0.08728 0.22943 0.0
O25 O 0.00542 0.10377 0.23248 0.0
O26 O 0.93763 0.09059 0.22983 0.0
O27 O 0.94329 0.11264 0.20974 0.0
O28 O 0.01928 0.63857 0.23884 0.0
Cd29 Cd 0.00773 0.63211 0.26386 0.0
Cd30 Cd 0.04115 0.61339 0.26963 0.0
O31 O 0.04641 0.62612 0.24465 0.0
O32 O 0.99012 0.65192 0.27063 0.0
O33 O 0.01661 0.64719 0.28519 0.0
C34 C 0.00185 0.65694 0.28304 0.0
C35 C 0.06737 0.60611 0.28709 0.0
C36 C 0.03579 0.6352 0.23409 0.0
C37 C 0.00435 0.59215 0.26952 0.0
O38 O 0.02177 0.5927 0.2711 0.0
O39 O 0.99522 0.60674 0.2665 0.0
O40 O 0.06354 0.59783 0.27194 0.0
O41 O 0.05649 0.61916 0.29233 0.0
O42 O 0.97757 0.86619 0.23652 0.0
Cd43 Cd 0.98885 0.87109 0.26204 0.0
Cd44 Cd 0.95819 0.89279 0.26697 0.0
O45 O 0.95191 0.88168 0.24146 0.0
O46 O 0.00406 0.84941 0.2689 0.0
O47 O 0.97805 0.8569 0.28311 0.0
C48 C 0.9917 0.84561 0.28113 0.0
C49 C 0.93287 0.89964 0.28577 0.0
C50 C 0.9618 0.87156 0.23114 0.0
C51 C 0.99651 0.91048 0.26797 0.0
O52 O 0.9791 0.91195 0.26904 0.0
O53 O 0.00396 0.8949 0.26528 0.0
O54 O 0.93664 0.90908 0.27127 0.0
O55 O 0.94337 0.88583 0.28962 0.0
O56 O 0.26472 0.01898 0.36636 0.0
Cd57 Cd 0.23922 0.00738 0.3705 0.0
Cd58 Cd 0.23346 0.03804 0.39257 0.0
O59 O 0.25913 0.04445 0.38194 0.0
O60 O 0.23321 0.99222 0.34852 0.0
O61 O 0.21847 0.01801 0.35571 0.0
C62 C 0.22098 0.00447 0.34439 0.0
C63 C 0.21506 0.06352 0.39991 0.0
C64 C 0.26977 0.03476 0.37197 0.0
C65 C 0.23227 0.99943 0.40973 0.0
O66 O 0.23098 0.0168 0.4113 0.0
O67 O 0.23548 0.99212 0.39417 0.0
O68 O 0.22939 0.05923 0.40938 0.0
O69 O 0.21111 0.05341 0.38583 0.0
O70 O 0.73599 0.47933 0.36592 0.0
Cd71 Cd 0.76076 0.49175 0.37181 0.0
Cd72 Cd 0.76615 0.46034 0.39361 0.0
O73 O 0.74123 0.45374 0.38146 0.0
O74 O 0.76647 0.50882 0.35117 0.0
O75 O 0.78225 0.48323 0.35664 0.0
C76 C 0.77931 0.49749 0.34638 0.0
C77 C 0.78486 0.43512 0.40105 0.0
C78 C 0.73101 0.46333 0.37097 0.0
C79 C 0.76569 0.49845 0.41177 0.0
O80 O 0.76732 0.48108 0.41298 0.0
O81 O 0.76299 0.5061 0.39627 0.0
O82 O 0.76999 0.43874 0.40995 0.0
O83 O 0.78918 0.44575 0.38747 0.0
O84 O 0.26397 0.98229 0.133 0.0
Cd85 Cd 0.23835 0.9933 0.12807 0.0
Cd86 Cd 0.23339 0.96137 0.10677 0.0
O87 O 0.25895 0.95618 0.1183 0.0
O88 O 0.23227 0.00997 0.14892 0.0
O89 O 0.21783 0.98353 0.14379 0.0
C90 C 0.22022 0.99792 0.15401 0.0
C91 C 0.21668 0.93476 0.09922 0.0
C92 C 0.2693 0.96638 0.12806 0.0
C93 C 0.23159 0.9994 0.08834 0.0
O94 O 0.23063 0.98196 0.08737 0.0
O95 O 0.23454 0.00732 0.10365 0.0
O96 O 0.23114 0.93967 0.09027 0.0
O97 O 0.21156 0.94495 0.11286 0.0
O98 O 0.73688 0.52326 0.13415 0.0
Cd99 Cd 0.76214 0.51111 0.1301 0.0
Cd100 Cd 0.76864 0.54162 0.10819 0.0
O101 O 0.74309 0.54867 0.1187 0.0
O102 O 0.76769 0.49571 0.15205 0.0
O103 O 0.78303 0.5212 0.14507 0.0
C104 C 0.78016 0.50767 0.15631 0.0
C105 C 0.78791 0.56653 0.10113 0.0
C106 C 0.73218 0.53917 0.12858 0.0
C107 C 0.76893 0.5031 0.09084 0.0
O108 O 0.77056 0.52045 0.08932 0.0
O109 O 0.76563 0.49582 0.1064 0.0
O110 O 0.77351 0.56276 0.09155 0.0
O111 O 0.79142 0.55625 0.11521 0.0
O112 O 0.36455 0.26326 0.02174 0.0
Cd113 Cd 0.36903 0.23778 0.01023 0.0
Cd114 Cd 0.39051 0.23222 0.0416 0.0
O115 O 0.37948 0.2578 0.04765 0.0
O116 O 0.34796 0.23228 0.99362 0.0
O117 O 0.35316 0.21722 0.01971 0.0
C118 C 0.34286 0.22001 0.00544 0.0
C119 C 0.39757 0.2139 0.06726 0.0
C120 C 0.36974 0.26837 0.03766 0.0
C121 C 0.40865 0.23115 0.00345 0.0
O122 O 0.40984 0.22998 0.02088 0.0
O123 O 0.39322 0.23409 0.99577 0.0
O124 O 0.40688 0.22839 0.0632 0.0
O125 O 0.38376 0.20976 0.05685 0.0
O126 O 0.36573 0.73783 0.48056 0.0
Cd127 Cd 0.37168 0.76299 0.4921 0.0
Cd128 Cd 0.39264 0.76761 0.46026 0.0
O129 O 0.3803 0.74261 0.45431 0.0
O130 O 0.35122 0.76916 0.50924 0.0
O131 O 0.35633 0.78414 0.48309 0.0
C132 C 0.34623 0.7816 0.49755 0.0
C133 C 0.39937 0.78621 0.43475 0.0
C134 C 0.37023 0.73253 0.4645 0.0
C135 C 0.41171 0.76796 0.49794 0.0
O136 O 0.41255 0.76899 0.48049 0.0
O137 O 0.39634 0.76571 0.50599 0.0
O138 O 0.40834 0.77134 0.43816 0.0
O139 O 0.38606 0.79055 0.44572 0.0
O140 O 0.63397 0.76382 0.47799 0.0
Cd141 Cd 0.62988 0.73824 0.48941 0.0
Cd142 Cd 0.60807 0.73267 0.45841 0.0
O143 O 0.61872 0.75839 0.45227 0.0
O144 O 0.65166 0.73252 0.50499 0.0
O145 O 0.64516 0.71769 0.47908 0.0
C146 C 0.65619 0.72036 0.49283 0.0
C147 C 0.6009 0.7144 0.43277 0.0
C148 C 0.62853 0.76898 0.46217 0.0
C149 C 0.59056 0.73116 0.49689 0.0
O150 O 0.58915 0.73005 0.47948 0.0
O151 O 0.60606 0.73428 0.50438 0.0
O152 O 0.59139 0.72869 0.43709 0.0
O153 O 0.61495 0.71043 0.44292 0.0
O154 O 0.13514 0.73575 0.52025 0.0
Cd155 Cd 0.13049 0.7614 0.50921 0.0
Cd156 Cd 0.10829 0.7662 0.54033 0.0
O157 O 0.11937 0.74051 0.54578 0.0
O158 O 0.15221 0.76797 0.49387 0.0
O159 O 0.14517 0.78214 0.52002 0.0
C160 C 0.15634 0.78002 0.50629 0.0
C161 C 0.1002 0.78286 0.56682 0.0
C162 C 0.12954 0.73026 0.53589 0.0
C163 C 0.09107 0.76812 0.50171 0.0
O164 O 0.08957 0.76918 0.51912 0.0
O165 O 0.10661 0.76507 0.49427 0.0
O166 O 0.09114 0.76863 0.56151 0.0
O167 O 0.11423 0.78782 0.55709 0.0
O168 O 0.97998 0.63476 0.73961 0.0
Cd169 Cd 0.9912 0.62837 0.76482 0.0
Cd170 Cd 0.95958 0.6074 0.76884 0.0
O171 O 0.95382 0.61988 0.74384 0.0
O172 O 0.008 0.64877 0.77191 0.0
O173 O 0.98162 0.64297 0.78623 0.0
C174 C 0.99605 0.65324 0.7843 0.0
C175 C 0.93404 0.60071 0.78738 0.0
C176 C 0.96403 0.63018 0.73403 0.0
C177 C 0.99723 0.58838 0.76937 0.0
O178 O 0.97977 0.58747 0.77027 0.0
O179 O 0.00522 0.60379 0.76728 0.0
O180 O 0.93743 0.59177 0.77248 0.0
O181 O 0.94503 0.61399 0.79176 0.0
O182 O 0.01872 0.8609 0.73996 0.0
Cd183 Cd 0.00758 0.86673 0.7653 0.0
Cd184 Cd 0.04057 0.88547 0.77121 0.0
O185 O 0.0457 0.87366 0.74572 0.0
O186 O 0.99163 0.84588 0.77297 0.0
O187 O 0.01827 0.85263 0.7864 0.0
C188 C 0.00418 0.8418 0.78492 0.0
C189 C 0.06695 0.89218 0.78863 0.0
C190 C 0.0351 0.86466 0.73507 0.0
C191 C 0.00351 0.90625 0.77228 0.0
O192 O 0.02093 0.90583 0.77385 0.0
O193 O 0.99453 0.89173 0.76857 0.0
O194 O 0.06284 0.90111 0.77392 0.0
O195 O 0.05625 0.87883 0.79344 0.0
O196 O 0.97945 0.36359 0.76077 0.0
Cd197 Cd 0.99086 0.36987 0.73561 0.0
Cd198 Cd 0.95919 0.39137 0.7316 0.0
O199 O 0.95343 0.37873 0.75651 0.0
O200 O 0.00779 0.34944 0.7289 0.0
O201 O 0.9816 0.35505 0.71418 0.0
C202 C 0.99603 0.34484 0.71639 0.0
C203 C 0.93348 0.39899 0.71365 0.0
C204 C 0.96353 0.36831 0.76631 0.0
C205 C 0.99717 0.40985 0.73105 0.0
O206 O 0.97973 0.41094 0.73013 0.0
O207 O 0.00503 0.39438 0.73318 0.0
O208 O 0.93736 0.40758 0.72863 0.0
O209 O 0.94408 0.38556 0.70883 0.0
O210 O 0.0188 0.13892 0.76204 0.0
Cd211 Cd 0.00919 0.13187 0.73634 0.0
Cd212 Cd 0.04313 0.11517 0.73205 0.0
O213 O 0.04696 0.12884 0.75675 0.0
O214 O 0.99272 0.15177 0.7273 0.0
O215 O 0.02035 0.14599 0.71551 0.0
C216 C 0.00576 0.15623 0.71602 0.0
C217 C 0.07019 0.10985 0.71524 0.0
C218 C 0.03543 0.13694 0.76713 0.0
C219 C 0.00784 0.09176 0.73133 0.0
O220 O 0.02529 0.09312 0.7309 0.0
O221 O 0.99785 0.10601 0.73312 0.0
O222 O 0.0671 0.10203 0.73081 0.0
O223 O 0.05794 0.12114 0.70905 0.0
O224 O 0.73634 0.97719 0.63293 0.0
Cd225 Cd 0.76159 0.9893 0.62871 0.0
Cd226 Cd 0.76788 0.95871 0.60677 0.0
O227 O 0.74242 0.95172 0.61754 0.0
O228 O 0.76727 0.00473 0.65062 0.0
O229 O 0.78253 0.9792 0.64362 0.0
C230 C 0.77973 0.99275 0.65485 0.0
C231 C 0.78702 0.93375 0.59952 0.0
C232 C 0.7316 0.96126 0.62746 0.0
C233 C 0.76814 0.99722 0.58937 0.0
O234 O 0.7697 0.97986 0.58787 0.0
O235 O 0.76498 0.00454 0.60494 0.0
O236 O 0.77252 0.93753 0.5901 0.0
O237 O 0.79071 0.94405 0.61354 0.0
O238 O 0.26368 0.5199 0.6342 0.0
Cd239 Cd 0.23819 0.50843 0.6297 0.0
Cd240 Cd 0.2327 0.53938 0.60806 0.0
O241 O 0.2582 0.5457 0.61914 0.0
O242 O 0.23186 0.49313 0.65151 0.0
O243 O 0.21735 0.51905 0.64436 0.0
C244 C 0.21968 0.50543 0.65562 0.0
C245 C 0.21421 0.56482 0.60075 0.0
C246 C 0.26878 0.5358 0.62897 0.0
C247 C 0.23176 0.50103 0.59029 0.0
O248 O 0.23059 0.51843 0.58895 0.0
O249 O 0.23465 0.49347 0.6058 0.0
O250 O 0.21012 0.5545 0.61464 0.0
O251 O 0.22876 0.56079 0.5915 0.0
O252 O 0.73784 0.02116 0.86527 0.0
Cd253 Cd 0.76264 0.0087 0.87091 0.0
Cd254 Cd 0.76818 0.04014 0.89274 0.0
O255 O 0.74329 0.04685 0.88058 0.0
O256 O 0.76802 0.9916 0.8502 0.0
O257 O 0.78396 0.01713 0.85544 0.0
C258 C 0.78082 0.00288 0.84522 0.0
C259 C 0.78697 0.06526 0.90035 0.0
C260 C 0.73296 0.03722 0.87022 0.0
C261 C 0.76774 0.00197 0.91085 0.0
O262 O 0.76928 0.01935 0.91206 0.0
O263 O 0.76509 0.99432 0.89534 0.0
O264 O 0.77205 0.06166 0.90917 0.0
O265 O 0.79128 0.05468 0.88672 0.0
O266 O 0.26197 0.48364 0.86575 0.0
Cd267 Cd 0.23636 0.49427 0.87149 0.0
Cd268 Cd 0.23238 0.4619 0.89238 0.0
O269 O 0.25761 0.45715 0.88 0.0
O270 O 0.22965 0.51113 0.85097 0.0
O271 O 0.21573 0.48439 0.85599 0.0
C272 C 0.21776 0.49892 0.84588 0.0
C273 C 0.21582 0.43515 0.89968 0.0
C274 C 0.26757 0.46766 0.87015 0.0
C275 C 0.23038 0.49958 0.91149 0.0
O276 O 0.22985 0.48211 0.91219 0.0
O277 O 0.23277 0.50782 0.89625 0.0
O278 O 0.23052 0.4398 0.90837 0.0
O279 O 0.2104 0.44566 0.8864 0.0
O280 O 0.63351 0.73561 0.97841 0.0
Cd281 Cd 0.62928 0.76118 0.98977 0.0
Cd282 Cd 0.60761 0.76665 0.95876 0.0
O283 O 0.6184 0.74099 0.9526 0.0
O284 O 0.65104 0.7671 0.00531 0.0
O285 O 0.64442 0.78177 0.97934 0.0
C286 C 0.65548 0.77923 0.99308 0.0
C287 C 0.60057 0.78504 0.93318 0.0
C288 C 0.62819 0.73043 0.96256 0.0
C289 C 0.58992 0.76803 0.99715 0.0
O290 O 0.58856 0.76911 0.97973 0.0
O291 O 0.60541 0.76504 0.0047 0.0
O292 O 0.59107 0.7707 0.93735 0.0
O293 O 0.61455 0.78898 0.94344 0.0
O294 O 0.63454 0.26208 0.5207 0.0
Cd295 Cd 0.62894 0.23688 0.50909 0.0
Cd296 Cd 0.60715 0.23233 0.54049 0.0
O297 O 0.61927 0.25741 0.54656 0.0
O298 O 0.65022 0.23043 0.4931 0.0
O299 O 0.64354 0.21563 0.51898 0.0
C300 C 0.65449 0.21803 0.50512 0.0
C301 C 0.59945 0.21427 0.56611 0.0
C302 C 0.62961 0.26744 0.53661 0.0
C303 C 0.58922 0.23154 0.50217 0.0
O304 O 0.58797 0.23052 0.51959 0.0
O305 O 0.60472 0.23403 0.49446 0.0
O306 O 0.59059 0.22903 0.56203 0.0
O307 O 0.61316 0.2097 0.55575 0.0
O308 O 0.36446 0.23658 0.52074 0.0
Cd309 Cd 0.37019 0.26193 0.50949 0.0
Cd310 Cd 0.39157 0.26605 0.54137 0.0
O311 O 0.37926 0.24094 0.54694 0.0
O312 O 0.34971 0.26802 0.49235 0.0
O313 O 0.3546 0.28288 0.5186 0.0
C314 C 0.34459 0.28036 0.50408 0.0
C315 C 0.39875 0.28407 0.56718 0.0
C316 C 0.36912 0.23102 0.53667 0.0
C317 C 0.41019 0.26719 0.50346 0.0
O318 O 0.41121 0.26788 0.52092 0.0
O319 O 0.39476 0.26501 0.49551 0.0
O320 O 0.40758 0.26921 0.56334 0.0
O321 O 0.38532 0.28871 0.55648 0.0
O322 O 0.86515 0.26355 0.47977 0.0
Cd323 Cd 0.8702 0.23786 0.49054 0.0
Cd324 Cd 0.89165 0.23339 0.45863 0.0
O325 O 0.88019 0.25902 0.45374 0.0
O326 O 0.84946 0.23158 0.5073 0.0
O327 O 0.85451 0.21732 0.48074 0.0
C328 C 0.84439 0.21955 0.49523 0.0
C329 C 0.89911 0.21686 0.43187 0.0
C330 C 0.87027 0.26917 0.464 0.0
C331 C 0.90999 0.23121 0.49666 0.0
O332 O 0.91103 0.23039 0.47921 0.0
O333 O 0.89464 0.23407 0.50455 0.0
O334 O 0.9081 0.23125 0.43686 0.0
O335 O 0.88547 0.21171 0.44205 0.0
O336 O 0.51992 0.86367 0.76185 0.0
Cd337 Cd 0.50814 0.86885 0.73663 0.0
Cd338 Cd 0.54111 0.88732 0.72952 0.0
O339 O 0.54687 0.87599 0.75505 0.0
O340 O 0.49082 0.84856 0.73058 0.0
O341 O 0.51719 0.85323 0.71578 0.0
C342 C 0.50256 0.84336 0.71826 0.0
C343 C 0.56707 0.89376 0.71133 0.0
C344 C 0.53645 0.86743 0.76623 0.0
C345 C 0.50429 0.90846 0.72938 0.0
O346 O 0.52168 0.90794 0.72749 0.0
O347 O 0.49532 0.89394 0.73314 0.0
O348 O 0.56338 0.90283 0.72607 0.0
O349 O 0.55618 0.88042 0.70692 0.0
O350 O 0.47876 0.63287 0.76347 0.0
Cd351 Cd 0.49023 0.62834 0.73798 0.0
Cd352 Cd 0.45972 0.60643 0.73261 0.0
O353 O 0.45326 0.61722 0.75821 0.0
O354 O 0.50538 0.65019 0.73152 0.0
O355 O 0.47952 0.64275 0.71702 0.0
C356 C 0.49309 0.65408 0.71925 0.0
C357 C 0.43444 0.59949 0.71379 0.0
C358 C 0.463 0.62731 0.76869 0.0
C359 C 0.49822 0.58909 0.73159 0.0
O360 O 0.48083 0.5875 0.73038 0.0
O361 O 0.50553 0.60469 0.73455 0.0
O362 O 0.43836 0.58994 0.72818 0.0
O363 O 0.44479 0.61345 0.71005 0.0
O364 O 0.51821 0.13664 0.73807 0.0
Cd365 Cd 0.50744 0.13178 0.76378 0.0
Cd366 Cd 0.54038 0.11268 0.76994 0.0
O367 O 0.54497 0.12351 0.74395 0.0
O368 O 0.4916 0.1529 0.77092 0.0
O369 O 0.51836 0.14656 0.7843 0.0
C370 C 0.50425 0.15732 0.78264 0.0
C371 C 0.56763 0.10583 0.78602 0.0
C372 C 0.53442 0.13232 0.7331 0.0
C373 C 0.50306 0.09247 0.77215 0.0
O374 O 0.5205 0.0927 0.77365 0.0
O375 O 0.49427 0.107 0.76801 0.0
O376 O 0.56244 0.09662 0.77184 0.0
O377 O 0.55736 0.11937 0.79123 0.0
O378 O 0.47999 0.36659 0.7369 0.0
Cd379 Cd 0.49105 0.37205 0.7624 0.0
Cd380 Cd 0.45957 0.39408 0.76659 0.0
O381 O 0.45431 0.38227 0.74117 0.0
O382 O 0.50767 0.35129 0.76888 0.0
O383 O 0.48134 0.35688 0.78337 0.0
C384 C 0.49571 0.34659 0.78117 0.0
C385 C 0.43311 0.40198 0.78337 0.0
C386 C 0.4643 0.37189 0.73123 0.0
C387 C 0.4979 0.4118 0.76831 0.0
O388 O 0.48047 0.41317 0.7692 0.0
O389 O 0.50549 0.39628 0.76564 0.0
O390 O 0.43803 0.4108 0.76883 0.0
O391 O 0.44319 0.38827 0.78851 0.0
O392 O 0.76429 0.52023 0.86842 0.0
Cd393 Cd 0.73882 0.50873 0.873 0.0
Cd394 Cd 0.73316 0.53976 0.89415 0.0
O395 O 0.75873 0.54614 0.88327 0.0
O396 O 0.7326 0.49318 0.85134 0.0
O397 O 0.718 0.51914 0.85816 0.0
C398 C 0.72041 0.50541 0.84706 0.0
C399 C 0.7141 0.56502 0.90051 0.0
C400 C 0.76935 0.53618 0.87354 0.0
C401 C 0.73226 0.50171 0.91246 0.0
O402 O 0.73105 0.51913 0.91359 0.0
O403 O 0.73522 0.494 0.89704 0.0
O404 O 0.72853 0.56145 0.91014 0.0
O405 O 0.71047 0.55434 0.88677 0.0
O406 O 0.23673 0.97683 0.86574 0.0
Cd407 Cd 0.26186 0.98911 0.87022 0.0
Cd408 Cd 0.26819 0.95824 0.89209 0.0
O409 O 0.24273 0.95139 0.88124 0.0
O410 O 0.26689 0.00574 0.84907 0.0
O411 O 0.28273 0.98017 0.85445 0.0
C412 C 0.27953 0.99429 0.84407 0.0
C413 C 0.28725 0.93314 0.89911 0.0
C414 C 0.23197 0.96091 0.87122 0.0
C415 C 0.2683 0.99656 0.90977 0.0
O416 O 0.26999 0.97921 0.91119 0.0
O417 O 0.26509 0.00394 0.89424 0.0
O418 O 0.27277 0.9369 0.90858 0.0
O419 O 0.29096 0.94356 0.88518 0.0
O420 O 0.7626 0.48121 0.63499 0.0
Cd421 Cd 0.73689 0.49218 0.63041 0.0
Cd422 Cd 0.73176 0.46033 0.609 0.0
O423 O 0.75757 0.45527 0.61999 0.0
O424 O 0.73113 0.50893 0.65129 0.0
O425 O 0.71658 0.48249 0.64646 0.0
C426 C 0.71913 0.49693 0.65659 0.0
C427 C 0.71507 0.43359 0.60185 0.0
C428 C 0.76798 0.46541 0.62975 0.0
C429 C 0.72951 0.49838 0.59074 0.0
O430 O 0.72854 0.48094 0.58969 0.0
O431 O 0.73271 0.50621 0.60604 0.0
O432 O 0.72928 0.4386 0.59257 0.0
O433 O 0.71016 0.44377 0.61557 0.0
O434 O 0.23432 0.01742 0.63191 0.0
Cd435 Cd 0.25977 0.00577 0.62773 0.0
Cd436 Cd 0.26672 0.03737 0.60687 0.0
O437 O 0.24157 0.04381 0.61872 0.0
O438 O 0.26598 0.99036 0.64948 0.0
O439 O 0.28045 0.01639 0.64257 0.0
C440 C 0.2781 0.00268 0.65372 0.0
C441 C 0.28422 0.06344 0.59917 0.0
C442 C 0.23025 0.03389 0.62766 0.0
C443 C 0.26712 0.99913 0.58842 0.0
O444 O 0.26866 0.01655 0.5875 0.0
O445 O 0.26374 0.99131 0.60369 0.0
O446 O 0.26965 0.05889 0.59023 0.0
O447 O 0.2891 0.05313 0.61281 0.0
O448 O 0.86833 0.76382 0.51961 0.0
Cd449 Cd 0.873 0.73822 0.50847 0.0
Cd450 Cd 0.89453 0.73309 0.54026 0.0
O451 O 0.88337 0.75878 0.54554 0.0
O452 O 0.85221 0.73267 0.49152 0.0
O453 O 0.85687 0.71779 0.5178 0.0
C454 C 0.84684 0.72051 0.50333 0.0
C455 C 0.90165 0.71616 0.56687 0.0
C456 C 0.87354 0.76917 0.53544 0.0
C457 C 0.91275 0.73129 0.50216 0.0
O458 O 0.91386 0.73024 0.5196 0.0
O459 O 0.89737 0.73432 0.49438 0.0
O460 O 0.91092 0.73043 0.56202 0.0
O461 O 0.88798 0.71132 0.55658 0.0
O462 O 0.8659 0.23625 0.98067 0.0
Cd463 Cd 0.87009 0.2621 0.99142 0.0
Cd464 Cd 0.89233 0.26682 0.96028 0.0
O465 O 0.88164 0.24092 0.9551 0.0
O466 O 0.84834 0.26818 0.00692 0.0
O467 O 0.85476 0.2824 0.98065 0.0
C468 C 0.84378 0.28005 0.99449 0.0
C469 C 0.8998 0.28352 0.93363 0.0
C470 C 0.8716 0.23064 0.9651 0.0
C471 C 0.90945 0.26955 0.99886 0.0
O472 O 0.91102 0.2703 0.98144 0.0
O473 O 0.89392 0.26645 0.00628 0.0
O474 O 0.9092 0.26948 0.93889 0.0
O475 O 0.88581 0.28827 0.94353 0.0
O476 O 0.13304 0.2656 0.98313 0.0
Cd477 Cd 0.12725 0.24027 0.99434 0.0
Cd478 Cd 0.10482 0.23652 0.96294 0.0
O479 O 0.11706 0.26169 0.95757 0.0
O480 O 0.1486 0.23329 0.01001 0.0
O481 O 0.14154 0.21907 0.98391 0.0
C482 C 0.15264 0.2211 0.99771 0.0
C483 C 0.09644 0.21998 0.93651 0.0
C484 C 0.12777 0.27137 0.96747 0.0
C485 C 0.08752 0.23486 0.00156 0.0
O486 O 0.08606 0.23401 0.98414 0.0
O487 O 0.10311 0.23739 0.0091 0.0
O488 O 0.08774 0.2345 0.94165 0.0
O489 O 0.11027 0.21469 0.94636 0.0
O490 O 0.63228 0.23515 0.0206 0.0
Cd491 Cd 0.62731 0.26067 0.00939 0.0
Cd492 Cd 0.60548 0.26542 0.04128 0.0
O493 O 0.61703 0.23988 0.04647 0.0
O494 O 0.64806 0.26642 0.99246 0.0
O495 O 0.64319 0.2813 0.0187 0.0
C496 C 0.65328 0.27866 0.00425 0.0
C497 C 0.59744 0.28192 0.06789 0.0
C498 C 0.62708 0.22969 0.03639 0.0
C499 C 0.58753 0.26725 0.003 0.0
O500 O 0.58637 0.26824 0.02043 0.0
O501 O 0.60292 0.26431 0.99523 0.0
O502 O 0.5886 0.2675 0.06273 0.0
O503 O 0.61126 0.28712 0.05799 0.0
O504 O 0.47897 0.13434 0.23768 0.0
Cd505 Cd 0.49066 0.1292 0.26297 0.0
Cd506 Cd 0.45964 0.10773 0.26841 0.0
O507 O 0.45325 0.11905 0.24303 0.0
O508 O 0.507 0.15022 0.26929 0.0
O509 O 0.48096 0.14411 0.28412 0.0
C510 C 0.49514 0.15465 0.28178 0.0
C511 C 0.43434 0.10072 0.28719 0.0
C512 C 0.46305 0.12913 0.23258 0.0
C513 C 0.49775 0.08961 0.26888 0.0
O514 O 0.48035 0.08835 0.27025 0.0
O515 O 0.50534 0.10509 0.266 0.0
O516 O 0.43804 0.09148 0.27256 0.0
O517 O 0.44489 0.11447 0.29119 0.0
O518 O 0.51573 0.36258 0.24005 0.0
Cd519 Cd 0.50524 0.36863 0.26562 0.0
Cd520 Cd 0.53863 0.38726 0.27076 0.0
O521 O 0.54292 0.37509 0.24532 0.0
O522 O 0.4892 0.34796 0.2736 0.0
O523 O 0.5162 0.35435 0.28646 0.0
C524 C 0.50198 0.34367 0.28523 0.0
C525 C 0.56594 0.39413 0.28667 0.0
C526 C 0.53207 0.36614 0.23489 0.0
C527 C 0.50172 0.40831 0.27247 0.0
O528 O 0.51918 0.40777 0.27366 0.0
O529 O 0.49256 0.3938 0.26913 0.0
O530 O 0.56107 0.40284 0.27207 0.0
O531 O 0.55534 0.38106 0.29238 0.0
O532 O 0.47849 0.86756 0.26429 0.0
Cd533 Cd 0.48971 0.87243 0.23874 0.0
Cd534 Cd 0.45894 0.89429 0.23397 0.0
O535 O 0.45281 0.88305 0.25946 0.0
O536 O 0.50493 0.85074 0.23196 0.0
O537 O 0.47888 0.85812 0.21777 0.0
C538 C 0.49255 0.84685 0.21979 0.0
C539 C 0.4335 0.90148 0.21546 0.0
C540 C 0.46273 0.8729 0.26971 0.0
C541 C 0.49736 0.91182 0.23266 0.0
O542 O 0.47995 0.91331 0.23174 0.0
O543 O 0.50481 0.89623 0.23534 0.0
O544 O 0.43746 0.91075 0.23001 0.0
O545 O 0.44387 0.88762 0.2114 0.0
O546 O 0.51969 0.63688 0.26121 0.0
Cd547 Cd 0.50784 0.63188 0.23599 0.0
Cd548 Cd 0.54075 0.61317 0.22876 0.0
O549 O 0.54653 0.62434 0.25437 0.0
O550 O 0.49052 0.65224 0.23017 0.0
O551 O 0.51681 0.64765 0.21521 0.0
C552 C 0.5022 0.65752 0.21783 0.0
C553 C 0.56677 0.60662 0.2107 0.0
C554 C 0.53619 0.63296 0.26557 0.0
C555 C 0.50376 0.59232 0.22847 0.0
O556 O 0.52115 0.59273 0.22653 0.0
O557 O 0.49491 0.60686 0.23239 0.0
O558 O 0.5629 0.59749 0.22535 0.0
O559 O 0.55602 0.62007 0.20629 0.0
O560 O 0.23561 0.47716 0.13591 0.0
Cd561 Cd 0.26039 0.48974 0.13046 0.0
Cd562 Cd 0.26615 0.45905 0.10833 0.0
O563 O 0.24107 0.45195 0.11986 0.0
O564 O 0.26643 0.50557 0.15197 0.0
O565 O 0.28201 0.48028 0.14482 0.0
C566 C 0.27923 0.49389 0.15599 0.0
C567 C 0.2854 0.4342 0.10106 0.0
C568 C 0.23071 0.46127 0.13046 0.0
C569 C 0.26569 0.49747 0.09084 0.0
O570 O 0.26747 0.48013 0.08934 0.0
O571 O 0.26272 0.5048 0.10644 0.0
O572 O 0.27073 0.43775 0.0918 0.0
O573 O 0.28921 0.44469 0.1149 0.0
O574 O 0.76066 0.01822 0.13534 0.0
Cd575 Cd 0.73535 0.00684 0.1297 0.0
Cd576 Cd 0.73078 0.0387 0.10848 0.0
O577 O 0.75592 0.04441 0.12066 0.0
O578 O 0.72923 0.98991 0.15034 0.0
O579 O 0.71443 0.01614 0.14519 0.0
C580 C 0.71695 0.00174 0.15538 0.0
C581 C 0.71272 0.06446 0.10131 0.0
C582 C 0.76602 0.03422 0.1307 0.0
C583 C 0.72987 0.00084 0.08975 0.0
O584 O 0.72899 0.01828 0.08881 0.0
O585 O 0.73224 0.99285 0.10513 0.0
O586 O 0.72754 0.06061 0.09243 0.0
O587 O 0.70812 0.05379 0.11477 0.0
O588 O 0.23584 0.51984 0.36687 0.0
Cd589 Cd 0.26125 0.50833 0.37181 0.0
Cd590 Cd 0.26673 0.53988 0.39345 0.0
O591 O 0.24111 0.54549 0.38228 0.0
O592 O 0.26712 0.49162 0.35092 0.0
O593 O 0.282 0.5178 0.35619 0.0
C594 C 0.27941 0.50346 0.34593 0.0
C595 C 0.28389 0.56627 0.40071 0.0
C596 C 0.23067 0.53567 0.37222 0.0
C597 C 0.26801 0.50175 0.41155 0.0
O598 O 0.26939 0.51915 0.41271 0.0
O599 O 0.26478 0.49407 0.39617 0.0
O600 O 0.26957 0.5615 0.40994 0.0
O601 O 0.28866 0.55602 0.38699 0.0
O602 O 0.76305 0.97976 0.36694 0.0
Cd603 Cd 0.73755 0.99119 0.37152 0.0
Cd604 Cd 0.73196 0.96018 0.39275 0.0
O605 O 0.7575 0.95383 0.38175 0.0
O606 O 0.73114 0.00658 0.34979 0.0
O607 O 0.71673 0.98057 0.35685 0.0
C608 C 0.719 0.99425 0.34565 0.0
C609 C 0.71308 0.93485 0.39935 0.0
C610 C 0.76811 0.9638 0.37203 0.0
C611 C 0.73107 0.99828 0.41098 0.0
O612 O 0.72989 0.98086 0.41214 0.0
O613 O 0.73397 0.00597 0.39554 0.0
O614 O 0.72754 0.93853 0.40887 0.0
O615 O 0.7093 0.94545 0.38558 0.0
O616 O 0.13453 0.23523 0.47886 0.0
Cd617 Cd 0.12913 0.26088 0.48953 0.0
Cd618 Cd 0.10787 0.26523 0.45769 0.0
O619 O 0.12039 0.24019 0.45244 0.0
O620 O 0.15028 0.26785 0.50547 0.0
O621 O 0.14391 0.28168 0.47898 0.0
C622 C 0.1547 0.27978 0.49304 0.0
C623 C 0.10017 0.28188 0.4311 0.0
C624 C 0.13007 0.22992 0.4628 0.0
C625 C 0.08924 0.26651 0.49562 0.0
O626 O 0.0882 0.26709 0.47815 0.0
O627 O 0.10468 0.26436 0.50358 0.0
O628 O 0.09199 0.2668 0.43544 0.0
O629 O 0.11301 0.28775 0.44191 0.0
O630 O 0.13588 0.76294 0.01816 0.0
Cd631 Cd 0.13026 0.73735 0.00746 0.0
Cd632 Cd 0.10834 0.73372 0.03906 0.0
O633 O 0.12038 0.75907 0.04401 0.0
O634 O 0.15155 0.73024 0.99178 0.0
O635 O 0.14476 0.71646 0.01819 0.0
C636 C 0.15575 0.7183 0.00428 0.0
C637 C 0.10043 0.71744 0.06582 0.0
C638 C 0.13078 0.76881 0.03384 0.0
C639 C 0.09053 0.73153 0.00072 0.0
O640 O 0.08926 0.7309 0.01817 0.0
O641 O 0.10603 0.73402 0.99299 0.0
O642 O 0.0916 0.73187 0.06062 0.0
O643 O 0.11412 0.71209 0.05581 0.0
O644 O 0.86792 0.73599 0.02009 0.0
Cd645 Cd 0.87233 0.7613 0.00819 0.0
Cd646 Cd 0.89369 0.76746 0.03945 0.0
O647 O 0.88283 0.7419 0.04591 0.0
O648 O 0.85132 0.7664 0.99137 0.0
O649 O 0.8563 0.78194 0.01721 0.0
C650 C 0.8461 0.77886 0.00293 0.0
C651 C 0.90026 0.78635 0.06481 0.0
C652 C 0.87313 0.73114 0.03608 0.0
C653 C 0.91193 0.76803 0.00137 0.0
O654 O 0.9131 0.76949 0.01877 0.0
O655 O 0.89652 0.76489 0.99372 0.0
O656 O 0.90982 0.77192 0.0611 0.0
O657 O 0.88649 0.7901 0.0542 0.0
O658 O 0.3669 0.76261 0.97896 0.0
Cd659 Cd 0.37166 0.73728 0.9907 0.0
Cd660 Cd 0.3928 0.73147 0.95936 0.0
O661 O 0.38168 0.75694 0.95302 0.0
O662 O 0.35072 0.73168 0.00745 0.0
O663 O 0.35599 0.71647 0.98146 0.0
C664 C 0.34573 0.71925 0.99576 0.0
C665 C 0.39942 0.7126 0.93401 0.0
C666 C 0.37195 0.76758 0.96295 0.0
C667 C 0.41134 0.73097 0.9973 0.0
O668 O 0.41239 0.7296 0.97988 0.0
O669 O 0.39595 0.73391 0.00506 0.0
O670 O 0.40883 0.72715 0.93762 0.0
O671 O 0.38574 0.70873 0.9447 0.0
C672 C 0.015 0.17898 0.20336 0.0
C673 C 0.9976 0.17101 0.20603 0.0
C674 C 0.01658 0.1972 0.19738 0.0
C675 C 0.98915 0.23849 0.18197 0.0
H676 H 0.02696 0.26452 0.20926 0.0
C677 C 0.98457 0.31394 0.20657 0.0
C678 C 0.00073 0.32461 0.20673 0.0
C679 C 0.98497 0.29569 0.20048 0.0
C680 C 0.01655 0.25747 0.20123 0.0
H681 H 0.9682 0.17543 0.20356 0.0
H682 H 0.97082 0.20743 0.19403 0.0
H683 H 0.02647 0.23121 0.20964 0.0
H684 H 0.0297 0.32491 0.19944 0.0
H685 H 0.03044 0.2929 0.18907 0.0
H686 H 0.97856 0.26516 0.17478 0.0
C687 C 0.98336 0.1996 0.19596 0.0
C688 C 0.01628 0.23826 0.20136 0.0
C689 C 0.98181 0.18121 0.20151 0.0
C690 C 0.01702 0.31704 0.19953 0.0
C691 C 0.01748 0.2987 0.19366 0.0
C692 C 0.98927 0.25778 0.1821 0.0
C693 C 0.00077 0.20807 0.19447 0.0
C694 C 0.00236 0.22845 0.19205 0.0
C695 C 0.00159 0.28768 0.19463 0.0
C696 C 0.00279 0.26744 0.19202 0.0
H697 H 0.02741 0.17132 0.20654 0.0
H698 H 0.03024 0.20296 0.19579 0.0
H699 H 0.97843 0.23149 0.17433 0.0
H700 H 0.97177 0.31942 0.21196 0.0
H701 H 0.97254 0.2875 0.20151 0.0
C702 C 0.98159 0.68203 0.29499 0.0
C703 C 0.9993 0.67459 0.29282 0.0
C704 C 0.9793 0.7002 0.3009 0.0
C705 C 0.00519 0.7423 0.31692 0.0
H706 H 0.96725 0.76726 0.28882 0.0
C707 C 0.00858 0.81737 0.29125 0.0
C708 C 0.9923 0.82784 0.29107 0.0
C709 C 0.00842 0.79919 0.29757 0.0
C710 C 0.97768 0.76049 0.29708 0.0
H711 H 0.02846 0.6799 0.29609 0.0
H712 H 0.02464 0.7118 0.30546 0.0
H713 H 0.96858 0.73396 0.28861 0.0
H714 H 0.96335 0.82789 0.29844 0.0
H715 H 0.96302 0.79593 0.30913 0.0
H716 H 0.01502 0.76925 0.32411 0.0
C717 C 0.01239 0.7036 0.30321 0.0
C718 C 0.97844 0.74129 0.29704 0.0
C719 C 0.01464 0.68526 0.29774 0.0
C720 C 0.97611 0.82016 0.29841 0.0
C721 C 0.9759 0.80187 0.30447 0.0
C722 C 0.00461 0.76158 0.31667 0.0
C723 C 0.9947 0.71154 0.30424 0.0
C724 C 0.99245 0.73187 0.30662 0.0
C725 C 0.99193 0.79105 0.30358 0.0
C726 C 0.99105 0.77084 0.30643 0.0
H727 H 0.96951 0.674 0.29149 0.0
H728 H 0.96544 0.70554 0.30212 0.0
H729 H 0.01594 0.73561 0.3248 0.0
H730 H 0.02128 0.82294 0.28575 0.0
H731 H 0.02096 0.79115 0.29661 0.0
C732 C 0.20656 0.98407 0.1824 0.0
C733 C 0.21102 0.99978 0.17206 0.0
C734 C 0.20144 0.98571 0.20092 0.0
C735 C 0.20736 0.01871 0.23956 0.0
H736 H 0.18055 0.98132 0.26665 0.0
C737 C 0.20434 0.02006 0.31851 0.0
C738 C 0.21167 0.00392 0.32627 0.0
C739 C 0.19885 0.02038 0.30003 0.0
C740 C 0.18793 0.99194 0.25922 0.0
H741 H 0.21196 0.02957 0.17234 0.0
H742 H 0.20194 0.03258 0.20421 0.0
H743 H 0.18015 0.98098 0.23298 0.0
H744 H 0.21758 0.97508 0.32124 0.0
H745 H 0.20769 0.97557 0.28911 0.0
H746 H 0.21518 0.02957 0.2658 0.0
C747 C 0.20326 0.01889 0.19845 0.0
C748 C 0.18785 0.99169 0.23992 0.0
C749 C 0.20882 0.01721 0.18009 0.0
C750 C 0.21207 0.98776 0.31562 0.0
C751 C 0.20631 0.988 0.29725 0.0
C752 C 0.20716 0.01913 0.25878 0.0
C753 C 0.2003 0.00314 0.20939 0.0
C754 C 0.198 0.00479 0.2298 0.0
C755 C 0.20029 0.00447 0.28908 0.0
C756 C 0.19785 0.00549 0.26882 0.0
H757 H 0.20826 0.97044 0.17657 0.0
H758 H 0.19949 0.97321 0.20879 0.0
H759 H 0.2157 0.02883 0.23246 0.0
H760 H 0.20387 0.03274 0.32636 0.0
H761 H 0.19415 0.03323 0.29409 0.0
C762 C 0.78882 0.4905 0.18489 0.0
C763 C 0.78935 0.50682 0.17448 0.0
C764 C 0.79446 0.49046 0.2033 0.0
C765 C 0.79315 0.52084 0.24222 0.0
H766 H 0.82056 0.4827 0.2676 0.0
C767 C 0.79062 0.51751 0.32082 0.0
C768 C 0.78879 0.4999 0.32855 0.0
C769 C 0.79637 0.51962 0.30257 0.0
C770 C 0.81274 0.4934 0.26078 0.0
H771 H 0.79721 0.53562 0.17486 0.0
H772 H 0.80667 0.53561 0.20723 0.0
H773 H 0.82038 0.48356 0.23393 0.0
H774 H 0.79239 0.47072 0.32363 0.0
H775 H 0.80145 0.47422 0.29157 0.0
H776 H 0.78424 0.52996 0.26861 0.0
C777 C 0.80201 0.52286 0.20105 0.0
C778 C 0.81278 0.49395 0.24149 0.0
C779 C 0.79666 0.52283 0.18252 0.0
C780 C 0.79381 0.48448 0.31804 0.0
C781 C 0.79909 0.48654 0.29961 0.0
C782 C 0.7928 0.5201 0.26143 0.0
C783 C 0.80047 0.50679 0.21174 0.0
C784 C 0.80274 0.50751 0.23204 0.0
C785 C 0.79985 0.50413 0.29141 0.0
C786 C 0.8023 0.50617 0.27104 0.0
H787 H 0.78331 0.47793 0.17904 0.0
H788 H 0.79301 0.47791 0.21125 0.0
H789 H 0.78503 0.53127 0.23529 0.0
H790 H 0.78702 0.52965 0.32872 0.0
H791 H 0.7974 0.53343 0.29705 0.0
C792 C 0.31439 0.2063 0.01909 0.0
C793 C 0.32476 0.21093 0.00345 0.0
C794 C 0.29587 0.20121 0.01735 0.0
C795 C 0.2573 0.20737 0.98425 0.0
H796 H 0.23013 0.18009 0.02126 0.0
C797 C 0.17845 0.2042 0.98229 0.0
C798 C 0.17058 0.21143 0.99843 0.0
C799 C 0.19691 0.19863 0.9821 0.0
C800 C 0.23759 0.18761 0.01075 0.0
H801 H 0.32454 0.21224 0.97366 0.0
H802 H 0.29269 0.20225 0.97046 0.0
H803 H 0.26381 0.17986 0.02178 0.0
H804 H 0.17535 0.21702 0.02738 0.0
H805 H 0.20744 0.20699 0.02711 0.0
H806 H 0.23108 0.21515 0.97331 0.0
C807 C 0.29841 0.20342 0.98418 0.0
C808 C 0.25689 0.18762 0.0111 0.0
C809 C 0.31676 0.20896 0.98596 0.0
C810 C 0.18106 0.21158 0.01471 0.0
C811 C 0.19941 0.20576 0.01459 0.0
C812 C 0.23808 0.20707 0.98372 0.0
C813 C 0.28743 0.20027 0.99988 0.0
C814 C 0.26703 0.19793 0.99814 0.0
C815 C 0.20772 0.19991 0.99812 0.0
C816 C 0.22801 0.19759 0.99721 0.0
H817 H 0.32019 0.20782 0.03275 0.0
H818 H 0.28797 0.1991 0.02981 0.0
H819 H 0.26441 0.21583 0.97424 0.0
H820 H 0.17073 0.20393 0.96952 0.0
H821 H 0.20296 0.19406 0.96925 0.0
C822 C 0.32055 0.79297 0.51738 0.0
C823 C 0.32834 0.791 0.4998 0.0
C824 C 0.30223 0.79856 0.51938 0.0
C825 C 0.26037 0.81426 0.49292 0.0
H826 H 0.23507 0.78622 0.53068 0.0
C827 C 0.18483 0.78952 0.4894 0.0
C828 C 0.17435 0.78955 0.50569 0.0
C829 C 0.20314 0.79545 0.48954 0.0
C830 C 0.24193 0.79444 0.52028 0.0
H831 H 0.32346 0.79425 0.47056 0.0
H832 H 0.29132 0.80307 0.47387 0.0
H833 H 0.26839 0.78592 0.52957 0.0
H834 H 0.17449 0.79689 0.53464 0.0
H835 H 0.20667 0.80693 0.53494 0.0
H836 H 0.23348 0.82154 0.48293 0.0
C837 C 0.29935 0.80091 0.48625 0.0
C838 C 0.26114 0.79437 0.51965 0.0
C839 C 0.31782 0.79577 0.48429 0.0
C840 C 0.18221 0.7967 0.52187 0.0
C841 C 0.20063 0.80238 0.52207 0.0
C842 C 0.24108 0.81405 0.49337 0.0
C843 C 0.29109 0.80177 0.50381 0.0
C844 C 0.27069 0.80397 0.50575 0.0
C845 C 0.21142 0.8013 0.50603 0.0
C846 C 0.23168 0.80387 0.50688 0.0
H847 H 0.32844 0.78957 0.52959 0.0
H848 H 0.29665 0.79966 0.53316 0.0
H849 H 0.26715 0.82214 0.48223 0.0
H850 H 0.17912 0.78415 0.4767 0.0
H851 H 0.21116 0.79435 0.477 0.0
C852 C 0.82099 0.70953 0.48348 0.0
C853 C 0.82874 0.71149 0.50108 0.0
C854 C 0.80265 0.70405 0.48143 0.0
C855 C 0.76074 0.68829 0.50774 0.0
H856 H 0.73546 0.71576 0.46954 0.0
C857 C 0.68471 0.71177 0.51015 0.0
C858 C 0.67442 0.7113 0.49374 0.0
C859 C 0.70315 0.70625 0.51029 0.0
C860 C 0.74233 0.70771 0.48007 0.0
H861 H 0.82373 0.70843 0.53032 0.0
H862 H 0.79153 0.6998 0.52691 0.0
H863 H 0.76878 0.7165 0.47099 0.0
H864 H 0.67508 0.70366 0.46487 0.0
H865 H 0.70749 0.69437 0.46507 0.0
H866 H 0.73385 0.68071 0.51749 0.0
C867 C 0.79962 0.70188 0.51456 0.0
C868 C 0.76153 0.70804 0.48089 0.0
C869 C 0.81812 0.70692 0.51657 0.0
C870 C 0.68264 0.70417 0.47773 0.0
C871 C 0.7012 0.69893 0.47781 0.0
C872 C 0.74145 0.68825 0.50709 0.0
C873 C 0.79144 0.70093 0.49697 0.0
C874 C 0.77107 0.6986 0.49493 0.0
C875 C 0.71176 0.70041 0.49398 0.0
C876 C 0.73207 0.6982 0.49341 0.0
H877 H 0.82896 0.71277 0.47129 0.0
H878 H 0.79712 0.70289 0.46763 0.0
H879 H 0.76751 0.68053 0.51852 0.0
H880 H 0.67873 0.71714 0.52272 0.0
H881 H 0.71099 0.70766 0.52292 0.0
C882 C 0.9871 0.81359 0.79489 0.0
C883 C 0.00338 0.82408 0.79494 0.0
C884 C 0.98721 0.79536 0.80105 0.0
C885 C 0.01831 0.75687 0.80045 0.0
H886 H 0.97964 0.73112 0.82678 0.0
C887 C 0.01555 0.67844 0.79715 0.0
C888 C 0.99803 0.67077 0.79439 0.0
C889 C 0.0174 0.69655 0.80339 0.0
C890 C 0.99051 0.73805 0.81929 0.0
H891 H 0.03223 0.82409 0.80272 0.0
H892 H 0.03246 0.7921 0.81319 0.0
H893 H 0.98023 0.76478 0.82669 0.0
H894 H 0.96871 0.67557 0.79693 0.0
H895 H 0.97179 0.7074 0.80687 0.0
H896 H 0.02791 0.73059 0.79177 0.0
C897 C 0.01963 0.79804 0.8084 0.0
C898 C 0.99089 0.75734 0.81938 0.0
C899 C 0.01947 0.81637 0.80248 0.0
C900 C 0.9824 0.68113 0.79905 0.0
C901 C 0.98421 0.69943 0.80483 0.0
C902 C 0.01776 0.73767 0.80008 0.0
C903 C 0.00365 0.78718 0.80716 0.0
C904 C 0.00461 0.76692 0.80966 0.0
C905 C 0.00175 0.70761 0.80645 0.0
C906 C 0.00364 0.72794 0.80916 0.0
H907 H 0.97447 0.81918 0.78925 0.0
H908 H 0.97471 0.78729 0.79982 0.0
H909 H 0.02887 0.76387 0.79256 0.0
H910 H 0.02784 0.67065 0.79386 0.0
H911 H 0.03114 0.70208 0.80506 0.0
C912 C 0.98846 0.18407 0.70538 0.0
C913 C 0.00491 0.17386 0.70582 0.0
C914 C 0.98845 0.20233 0.69926 0.0
C915 C 0.01911 0.24124 0.70081 0.0
H916 H 0.98068 0.26672 0.67388 0.0
C917 C 0.01582 0.31966 0.70395 0.0
C918 C 0.99823 0.32725 0.70643 0.0
C919 C 0.01785 0.30153 0.69781 0.0
C920 C 0.99148 0.25986 0.68154 0.0
H921 H 0.03396 0.17433 0.69885 0.0
H922 H 0.03396 0.20631 0.68841 0.0
H923 H 0.98158 0.23306 0.67386 0.0
H924 H 0.96897 0.32229 0.70348 0.0
H925 H 0.97235 0.29043 0.6937 0.0
H926 H 0.02833 0.26759 0.70971 0.0
C927 C 0.0211 0.20017 0.69282 0.0
C928 C 0.99204 0.24057 0.68139 0.0
C929 C 0.02107 0.18183 0.69873 0.0
C930 C 0.98271 0.31679 0.70159 0.0
C931 C 0.9847 0.29848 0.69589 0.0
C932 C 0.01838 0.26043 0.70121 0.0
C933 C 0.00493 0.21079 0.69366 0.0
C934 C 0.00568 0.23108 0.69131 0.0
C935 C 0.0023 0.29038 0.69455 0.0
C936 C 0.00435 0.27007 0.6919 0.0
H937 H 0.97576 0.17829 0.71067 0.0
H938 H 0.9758 0.21019 0.70016 0.0
H939 H 0.0296 0.23432 0.70886 0.0
H940 H 0.02803 0.32753 0.70738 0.0
H941 H 0.03165 0.29607 0.69635 0.0
C942 C 0.79494 0.01588 0.81667 0.0
C943 C 0.79001 0.00047 0.82723 0.0
C944 C 0.79993 0.01383 0.79816 0.0
C945 C 0.79297 0.98038 0.75999 0.0
H946 H 0.82043 0.01679 0.73221 0.0
C947 C 0.79626 0.97756 0.68103 0.0
C948 C 0.78897 0.99359 0.67299 0.0
C949 C 0.80168 0.97754 0.69954 0.0
C950 C 0.81286 0.00644 0.73984 0.0
H951 H 0.78807 0.97073 0.82736 0.0
H952 H 0.79794 0.96696 0.79552 0.0
H953 H 0.82098 0.01764 0.76587 0.0
H954 H 0.78304 0.0225 0.67755 0.0
H955 H 0.79288 0.02252 0.70972 0.0
H956 H 0.78488 0.96925 0.73393 0.0
C957 C 0.79707 0.98076 0.80109 0.0
C958 C 0.81303 0.00699 0.75914 0.0
C959 C 0.79161 0.98287 0.81943 0.0
C960 C 0.78853 0.00991 0.68339 0.0
C961 C 0.79425 0.00996 0.70178 0.0
C962 C 0.79311 0.97964 0.74078 0.0
C963 C 0.80048 0.99626 0.78991 0.0
C964 C 0.80265 0.99426 0.76951 0.0
C965 C 0.80025 0.99362 0.71021 0.0
C966 C 0.80266 0.99292 0.7305 0.0
H967 H 0.79369 0.02964 0.82232 0.0
H968 H 0.80224 0.02617 0.79011 0.0
H969 H 0.78444 0.97055 0.76726 0.0
H970 H 0.79673 0.96476 0.67338 0.0
H971 H 0.80634 0.96477 0.70571 0.0
C972 C 0.2042 0.48498 0.8175 0.0
C973 C 0.20847 0.50072 0.82787 0.0
C974 C 0.19914 0.48658 0.79896 0.0
C975 C 0.20506 0.51965 0.76038 0.0
H976 H 0.17882 0.48201 0.73306 0.0
C977 C 0.2028 0.52095 0.68139 0.0
C978 C 0.21023 0.50483 0.67367 0.0
C979 C 0.19717 0.52124 0.69983 0.0
C980 C 0.18605 0.4927 0.74055 0.0
H981 H 0.20911 0.53052 0.82761 0.0
H982 H 0.1992 0.53345 0.7957 0.0
H983 H 0.17813 0.48167 0.76672 0.0
H984 H 0.21618 0.47601 0.67873 0.0
H985 H 0.20605 0.47645 0.71079 0.0
H986 H 0.21304 0.53056 0.73421 0.0
C987 C 0.20061 0.51978 0.80146 0.0
C988 C 0.18579 0.49246 0.75985 0.0
C989 C 0.2061 0.51814 0.81985 0.0
C990 C 0.21059 0.48867 0.68432 0.0
C991 C 0.2047 0.48888 0.70265 0.0
C992 C 0.20504 0.52005 0.74116 0.0
C993 C 0.19788 0.50401 0.79049 0.0
C994 C 0.19573 0.50564 0.77006 0.0
C995 C 0.19856 0.50533 0.71078 0.0
C996 C 0.19595 0.50633 0.73103 0.0
H997 H 0.20603 0.47136 0.82331 0.0
H998 H 0.19736 0.47407 0.79106 0.0
H999 H 0.21324 0.52984 0.76755 0.0
H1000 H 0.20235 0.53364 0.67355 0.0
H1001 H 0.19238 0.53407 0.70574 0.0
C1002 C 0.68185 0.79537 0.9778 0.0
C1003 C 0.67369 0.78835 0.99389 0.0
C1004 C 0.70041 0.8006 0.97778 0.0
C1005 C 0.74081 0.81143 0.00677 0.0
H1006 H 0.76788 0.78265 0.97091 0.0
C1007 C 0.81748 0.79269 0.01613 0.0
C1008 C 0.828 0.78786 0.00065 0.0
C1009 C 0.79898 0.79775 0.01414 0.0
C1010 C 0.76071 0.79126 0.98073 0.0
H1011 H 0.67808 0.78271 0.0229 0.0
H1012 H 0.71035 0.79219 0.02291 0.0
H1013 H 0.73456 0.7835 0.96958 0.0
H1014 H 0.82807 0.78613 0.97088 0.0
H1015 H 0.79624 0.79606 0.96724 0.0
H1016 H 0.76694 0.8192 0.018 0.0
C1017 C 0.70247 0.79351 0.01031 0.0
C1018 C 0.7415 0.79165 0.97998 0.0
C1019 C 0.68402 0.788 0.01027 0.0
C1020 C 0.82017 0.78957 0.98307 0.0
C1021 C 0.80183 0.79508 0.98103 0.0
C1022 C 0.7601 0.81133 0.00734 0.0
C1023 C 0.71102 0.79922 0.99392 0.0
C1024 C 0.73134 0.80136 0.99325 0.0
C1025 C 0.79071 0.79846 0.99658 0.0
C1026 C 0.77033 0.80083 0.99461 0.0
H1027 H 0.67425 0.79578 0.96496 0.0
H1028 H 0.70666 0.80505 0.96498 0.0
H1029 H 0.73327 0.81912 0.01711 0.0
H1030 H 0.82316 0.79137 0.02987 0.0
H1031 H 0.79096 0.80003 0.0265 0.0
C1032 C 0.68059 0.20106 0.51995 0.0
C1033 C 0.67249 0.20854 0.50403 0.0
C1034 C 0.6991 0.19565 0.51984 0.0
C1035 C 0.73959 0.18565 0.49053 0.0
H1036 H 0.76649 0.21338 0.52735 0.0
C1037 C 0.81596 0.20569 0.48164 0.0
C1038 C 0.82648 0.21011 0.49725 0.0
C1039 C 0.79756 0.20025 0.48351 0.0
C1040 C 0.75937 0.20506 0.51724 0.0
H1041 H 0.67692 0.21475 0.47515 0.0
H1042 H 0.70909 0.20501 0.4749 0.0
H1043 H 0.73319 0.21227 0.52865 0.0
H1044 H 0.82666 0.21068 0.52706 0.0
H1045 H 0.79502 0.2001 0.53045 0.0
H1046 H 0.76577 0.17849 0.47901 0.0
C1047 C 0.70121 0.20344 0.48747 0.0
C1048 C 0.74017 0.2045 0.51799 0.0
C1049 C 0.6828 0.20911 0.48765 0.0
C1050 C 0.81876 0.20757 0.51478 0.0
C1051 C 0.80053 0.20169 0.51668 0.0
C1052 C 0.75888 0.18591 0.48995 0.0
C1053 C 0.70973 0.19734 0.50374 0.0
C1054 C 0.73005 0.19521 0.50439 0.0
C1055 C 0.78939 0.19874 0.50106 0.0
C1056 C 0.76905 0.19606 0.50302 0.0
H1057 H 0.67301 0.20046 0.53279 0.0
H1058 H 0.70532 0.19088 0.53253 0.0
H1059 H 0.7321 0.17828 0.47993 0.0
H1060 H 0.82155 0.20764 0.46794 0.0
H1061 H 0.78952 0.19831 0.4711 0.0
C1062 C 0.18085 0.29644 0.47793 0.0
C1063 C 0.17269 0.28933 0.49398 0.0
C1064 C 0.19931 0.30201 0.47803 0.0
C1065 C 0.23945 0.31323 0.50738 0.0
H1066 H 0.26698 0.28506 0.47137 0.0
C1067 C 0.31603 0.2944 0.51718 0.0
C1068 C 0.32668 0.28973 0.50174 0.0
C1069 C 0.29758 0.29961 0.51508 0.0
C1070 C 0.25968 0.29351 0.48125 0.0
H1071 H 0.17695 0.28393 0.52305 0.0
H1072 H 0.20905 0.29393 0.52327 0.0
H1073 H 0.23368 0.28565 0.46984 0.0
H1074 H 0.32706 0.28851 0.47195 0.0
H1075 H 0.29533 0.2987 0.46814 0.0
H1076 H 0.26546 0.32103 0.51889 0.0
C1077 C 0.20125 0.29509 0.5106 0.0
C1078 C 0.24048 0.29376 0.48038 0.0
C1079 C 0.18289 0.28927 0.51044 0.0
C1080 C 0.31906 0.29183 0.4841 0.0
C1081 C 0.30078 0.29748 0.48196 0.0
C1082 C 0.25875 0.31326 0.50808 0.0
C1083 C 0.20984 0.30084 0.49424 0.0
C1084 C 0.23014 0.30322 0.49369 0.0
C1085 C 0.2895 0.30063 0.49745 0.0
C1086 C 0.26914 0.30297 0.49531 0.0
H1087 H 0.17336 0.29665 0.46502 0.0
H1088 H 0.20558 0.30651 0.46525 0.0
H1089 H 0.2318 0.32073 0.51776 0.0
H1090 H 0.32154 0.29279 0.53096 0.0
H1091 H 0.28944 0.30172 0.52739 0.0
C1092 C 0.51551 0.81493 0.70389 0.0
C1093 C 0.50011 0.82552 0.70882 0.0
C1094 C 0.51336 0.79655 0.69852 0.0
C1095 C 0.47968 0.75859 0.70471 0.0
H1096 H 0.51621 0.731 0.67721 0.0
C1097 C 0.47747 0.67973 0.70232 0.0
C1098 C 0.49367 0.67198 0.70956 0.0
C1099 C 0.47723 0.69811 0.69652 0.0
C1100 C 0.50582 0.73858 0.68478 0.0
H1101 H 0.47033 0.82589 0.71032 0.0
H1102 H 0.46643 0.79426 0.69987 0.0
H1103 H 0.51702 0.76465 0.67682 0.0
H1104 H 0.52263 0.67686 0.71498 0.0
H1105 H 0.52226 0.7088 0.70456 0.0
H1106 H 0.4686 0.73251 0.71273 0.0
C1107 C 0.48027 0.79971 0.70101 0.0
C1108 C 0.50634 0.75786 0.6847 0.0
C1109 C 0.48245 0.81793 0.70682 0.0
C1110 C 0.50993 0.68249 0.70954 0.0
C1111 C 0.50975 0.70075 0.70348 0.0
C1112 C 0.47898 0.73939 0.7045 0.0
C1113 C 0.49572 0.78848 0.6976 0.0
C1114 C 0.4936 0.76815 0.69514 0.0
C1115 C 0.49325 0.70894 0.69757 0.0
C1116 C 0.49233 0.72918 0.69497 0.0
H1117 H 0.5293 0.82042 0.70541 0.0
H1118 H 0.52566 0.78844 0.69623 0.0
H1119 H 0.46983 0.76582 0.71326 0.0
H1120 H 0.46472 0.67198 0.70218 0.0
H1121 H 0.46435 0.70409 0.69193 0.0
C1122 C 0.51522 0.32117 0.79356 0.0
C1123 C 0.4977 0.32888 0.79095 0.0
C1124 C 0.51709 0.30302 0.79965 0.0
C1125 C 0.49033 0.26153 0.81568 0.0
H1126 H 0.52861 0.23571 0.78885 0.0
C1127 C 0.48715 0.18568 0.79212 0.0
C1128 C 0.50348 0.17528 0.79224 0.0
C1129 C 0.4872 0.20402 0.79798 0.0
C1130 C 0.51806 0.24271 0.79676 0.0
H1131 H 0.46838 0.32408 0.79357 0.0
H1132 H 0.47149 0.29216 0.80326 0.0
H1133 H 0.52752 0.26899 0.78788 0.0
H1134 H 0.53239 0.17554 0.79979 0.0
H1135 H 0.53252 0.20771 0.80973 0.0
H1136 H 0.4802 0.2348 0.82332 0.0
C1137 C 0.48391 0.30015 0.80122 0.0
C1138 C 0.51744 0.26191 0.79629 0.0
C1139 C 0.48208 0.31848 0.79557 0.0
C1140 C 0.51959 0.1832 0.7995 0.0
C1141 C 0.51969 0.20163 0.80512 0.0
C1142 C 0.49078 0.24224 0.81588 0.0
C1143 C 0.50145 0.29195 0.80273 0.0
C1144 C 0.50336 0.27163 0.80543 0.0
C1145 C 0.50364 0.21237 0.80385 0.0
C1146 C 0.50448 0.23266 0.80613 0.0
H1147 H 0.52751 0.329 0.7903 0.0
H1148 H 0.53084 0.29748 0.80125 0.0
H1149 H 0.47949 0.26847 0.82321 0.0
H1150 H 0.4745 0.17993 0.78669 0.0
H1151 H 0.47465 0.21199 0.79673 0.0
C1152 C 0.71144 0.48833 0.81851 0.0
C1153 C 0.71105 0.50462 0.82897 0.0
C1154 C 0.70568 0.48835 0.80014 0.0
C1155 C 0.70657 0.51904 0.76131 0.0
H1156 H 0.67953 0.48065 0.73591 0.0
C1157 C 0.70798 0.51643 0.68262 0.0
C1158 C 0.71011 0.49893 0.67471 0.0
C1159 C 0.70253 0.51826 0.701 0.0
C1160 C 0.68724 0.49142 0.74274 0.0
H1161 H 0.70327 0.53345 0.8287 0.0
H1162 H 0.69354 0.53355 0.79643 0.0
H1163 H 0.67995 0.48133 0.76958 0.0
H1164 H 0.70736 0.46963 0.67947 0.0
H1165 H 0.69878 0.47266 0.71173 0.0
H1166 H 0.71509 0.52847 0.73489 0.0
C1167 C 0.69824 0.52076 0.80253 0.0
C1168 C 0.68734 0.49186 0.76204 0.0
C1169 C 0.70372 0.52067 0.82101 0.0
C1170 C 0.70571 0.48331 0.68521 0.0
C1171 C 0.70071 0.48509 0.70374 0.0
C1172 C 0.70676 0.51843 0.74209 0.0
C1173 C 0.69967 0.50473 0.79177 0.0
C1174 C 0.69726 0.50552 0.77149 0.0
C1175 C 0.69962 0.5026 0.71208 0.0
C1176 C 0.69738 0.50442 0.73248 0.0
H1177 H 0.71695 0.47572 0.82429 0.0
H1178 H 0.70706 0.47583 0.79215 0.0
H1179 H 0.7146 0.52955 0.76822 0.0
H1180 H 0.71108 0.52872 0.67475 0.0
H1181 H 0.70125 0.53199 0.70666 0.0
C1182 C 0.28726 0.98574 0.68229 0.0
C1183 C 0.28748 0.00201 0.6718 0.0
C1184 C 0.29306 0.98585 0.70065 0.0
C1185 C 0.29179 0.01652 0.7394 0.0
H1186 H 0.3196 0.9787 0.76483 0.0
C1187 C 0.2903 0.01399 0.81805 0.0
C1188 C 0.28859 0.99647 0.82599 0.0
C1189 C 0.29577 0.01591 0.79969 0.0
C1190 C 0.31167 0.98931 0.758 0.0
H1191 H 0.29499 0.03091 0.67199 0.0
H1192 H 0.30477 0.03116 0.70425 0.0
H1193 H 0.31912 0.9793 0.73116 0.0
H1194 H 0.2921 0.96724 0.82133 0.0
H1195 H 0.30067 0.97039 0.78909 0.0
H1196 H 0.28309 0.02582 0.76579 0.0
C1197 C 0.3002 0.01832 0.69818 0.0
C1198 C 0.31154 0.98971 0.7387 0.0
C1199 C 0.29467 0.01815 0.67971 0.0
C1200 C 0.29342 0.98093 0.81556 0.0
C1201 C 0.29843 0.9828 0.79704 0.0
C1202 C 0.29162 0.01593 0.75861 0.0
C1203 C 0.29894 0.00229 0.70896 0.0
C1204 C 0.30135 0.00316 0.72923 0.0
C1205 C 0.29909 0.0003 0.78865 0.0
C1206 C 0.30129 0.00213 0.76824 0.0
H1207 H 0.28185 0.97307 0.67655 0.0
H1208 H 0.29182 0.97332 0.70866 0.0
H1209 H 0.28356 0.02686 0.73247 0.0
H1210 H 0.28686 0.02622 0.82588 0.0
H1211 H 0.29672 0.02966 0.79401 0.0
C1212 C 0.67904 0.28985 0.98442 0.0
C1213 C 0.67127 0.28788 0.00201 0.0
C1214 C 0.69733 0.29551 0.98239 0.0
C1215 C 0.73904 0.31178 0.0087 0.0
H1216 H 0.76463 0.2842 0.97079 0.0
C1217 C 0.81521 0.28886 0.01161 0.0
C1218 C 0.82553 0.2891 0.99523 0.0
C1219 C 0.79674 0.29431 0.01162 0.0
C1220 C 0.75768 0.29229 0.98123 0.0
H1221 H 0.67619 0.29112 0.03124 0.0
H1222 H 0.70831 0.30008 0.02787 0.0
H1223 H 0.73132 0.28324 0.97213 0.0
H1224 H 0.82492 0.29631 0.96624 0.0
H1225 H 0.79249 0.30552 0.96622 0.0
H1226 H 0.76584 0.31962 0.01847 0.0
C1227 C 0.70027 0.29786 0.01551 0.0
C1228 C 0.73848 0.29183 0.98199 0.0
C1229 C 0.68181 0.29264 0.0175 0.0
C1230 C 0.81733 0.29598 0.97909 0.0
C1231 C 0.79876 0.30117 0.97904 0.0
C1232 C 0.75833 0.31196 0.00811 0.0
C1233 C 0.70848 0.2988 0.99793 0.0
C1234 C 0.72883 0.30129 0.99593 0.0
C1235 C 0.78815 0.29987 0.9952 0.0
C1236 C 0.76783 0.30196 0.99453 0.0
H1237 H 0.67113 0.28647 0.97222 0.0
H1238 H 0.70288 0.29666 0.96859 0.0
H1239 H 0.73218 0.31955 0.01941 0.0
H1240 H 0.82116 0.28369 0.02428 0.0
H1241 H 0.78888 0.29305 0.02425 0.0
C1242 C 0.51751 0.31798 0.30218 0.0
C1243 C 0.50131 0.32582 0.29504 0.0
C1244 C 0.51778 0.29953 0.30771 0.0
C1245 C 0.48932 0.25846 0.31805 0.0
H1246 H 0.52612 0.23259 0.28933 0.0
C1247 C 0.4813 0.18244 0.2966 0.0
C1248 C 0.497 0.17229 0.2917 0.0
C1249 C 0.48296 0.20071 0.30249 0.0
C1250 C 0.51604 0.23942 0.29794 0.0
H1251 H 0.47231 0.32101 0.2897 0.0
H1252 H 0.47275 0.2889 0.29958 0.0
H1253 H 0.52688 0.26585 0.29088 0.0
H1254 H 0.5268 0.17255 0.29078 0.0
H1255 H 0.52986 0.20394 0.30215 0.0
H1256 H 0.47834 0.232 0.325 0.0
C1257 C 0.48525 0.29696 0.30079 0.0
C1258 C 0.51647 0.2586 0.29874 0.0
C1259 C 0.48503 0.31533 0.29504 0.0
C1260 C 0.51445 0.18018 0.29425 0.0
C1261 C 0.51616 0.19826 0.30059 0.0
C1262 C 0.48905 0.23918 0.31752 0.0
C1263 C 0.5018 0.28867 0.30645 0.0
C1264 C 0.50286 0.26836 0.30839 0.0
C1265 C 0.50042 0.20909 0.30398 0.0
C1266 C 0.50212 0.22939 0.30701 0.0
H1267 H 0.53027 0.32571 0.30237 0.0
H1268 H 0.53069 0.29351 0.31216 0.0
H1269 H 0.47872 0.26567 0.32569 0.0
H1270 H 0.46766 0.1767 0.29466 0.0
H1271 H 0.47047 0.20852 0.30477 0.0
C1272 C 0.50939 0.81854 0.20982 0.0
C1273 C 0.49311 0.829 0.21 0.0
C1274 C 0.50922 0.8003 0.20369 0.0
C1275 C 0.47853 0.76158 0.20476 0.0
H1276 H 0.51647 0.73649 0.1768 0.0
C1277 C 0.48205 0.68303 0.20664 0.0
C1278 C 0.49972 0.67542 0.20851 0.0
C1279 C 0.47984 0.70128 0.20095 0.0
C1280 C 0.50582 0.74323 0.18475 0.0
H1281 H 0.46411 0.82895 0.2028 0.0
H1282 H 0.46375 0.79689 0.19243 0.0
H1283 H 0.51562 0.77013 0.17733 0.0
H1284 H 0.52889 0.68055 0.20502 0.0
H1285 H 0.52521 0.71259 0.19604 0.0
H1286 H 0.46945 0.7351 0.21344 0.0
C1287 C 0.47665 0.80288 0.19696 0.0
C1288 C 0.50527 0.76251 0.18491 0.0
C1289 C 0.47689 0.82124 0.20283 0.0
C1290 C 0.51509 0.68605 0.20359 0.0
C1291 C 0.51292 0.70447 0.19834 0.0
C1292 C 0.47925 0.74238 0.20488 0.0
C1293 C 0.4927 0.79209 0.19786 0.0
C1294 C 0.49182 0.77186 0.1952 0.0
C1295 C 0.49528 0.71254 0.19754 0.0
C1296 C 0.49314 0.73288 0.1952 0.0
H1297 H 0.52212 0.82418 0.21519 0.0
H1298 H 0.52177 0.79228 0.20465 0.0
H1299 H 0.46818 0.76841 0.21306 0.0
H1300 H 0.46994 0.67504 0.21014 0.0
H1301 H 0.466 0.70673 0.19991 0.0
C1302 C 0.29107 0.48392 0.32016 0.0
C1303 C 0.28873 0.50144 0.32796 0.0
C1304 C 0.29679 0.48205 0.30187 0.0
C1305 C 0.31227 0.5089 0.26015 0.0
H1306 H 0.28568 0.47028 0.23458 0.0
C1307 C 0.28807 0.51132 0.18435 0.0
C1308 C 0.28882 0.49501 0.17394 0.0
C1309 C 0.2939 0.51149 0.2027 0.0
C1310 C 0.2935 0.48093 0.24153 0.0
H1311 H 0.29136 0.53073 0.32312 0.0
H1312 H 0.30037 0.52764 0.291 0.0
H1313 H 0.28488 0.47147 0.2679 0.0
H1314 H 0.29735 0.4664 0.17423 0.0
H1315 H 0.30719 0.46662 0.20647 0.0
H1316 H 0.3196 0.51902 0.23332 0.0
C1317 C 0.29843 0.51522 0.29901 0.0
C1318 C 0.29314 0.48161 0.26074 0.0
C1319 C 0.29317 0.51705 0.31747 0.0
C1320 C 0.29662 0.47918 0.18189 0.0
C1321 C 0.30217 0.47927 0.20035 0.0
C1322 C 0.31232 0.50839 0.24085 0.0
C1323 C 0.29974 0.49769 0.29075 0.0
C1324 C 0.30222 0.49579 0.27038 0.0
C1325 C 0.30034 0.49528 0.21108 0.0
C1326 C 0.30268 0.49456 0.23137 0.0
H1327 H 0.28793 0.47165 0.32804 0.0
H1328 H 0.29824 0.46831 0.2963 0.0
H1329 H 0.31977 0.51981 0.26699 0.0
H1330 H 0.28218 0.52375 0.17857 0.0
H1331 H 0.29222 0.52399 0.21067 0.0
C1332 C 0.70571 0.98224 0.18137 0.0
C1333 C 0.70772 0.99972 0.17339 0.0
C1334 C 0.70026 0.98044 0.19975 0.0
C1335 C 0.68499 0.00737 0.24147 0.0
H1336 H 0.71279 0.96957 0.26696 0.0
C1337 C 0.70978 0.01109 0.31703 0.0
C1338 C 0.70954 0.99486 0.3276 0.0
C1339 C 0.70389 0.01091 0.2987 0.0
C1340 C 0.70464 0.97999 0.26005 0.0
H1341 H 0.70472 0.02902 0.17803 0.0
H1342 H 0.69614 0.02605 0.21028 0.0
H1343 H 0.71301 0.97045 0.23362 0.0
H1344 H 0.7019 0.966 0.32758 0.0
H1345 H 0.69196 0.96563 0.29537 0.0
H1346 H 0.67785 0.01759 0.26831 0.0
C1347 C 0.69816 0.0136 0.20235 0.0
C1348 C 0.70467 0.98048 0.24083 0.0
C1349 C 0.70316 0.01535 0.18381 0.0
C1350 C 0.70224 0.97872 0.3198 0.0
C1351 C 0.69663 0.97848 0.30135 0.0
C1352 C 0.68524 0.00705 0.26077 0.0
C1353 C 0.69724 0.99613 0.21077 0.0
C1354 C 0.69513 0.99438 0.2312 0.0
C1355 C 0.6979 0.99445 0.29048 0.0
C1356 C 0.69533 0.99352 0.27022 0.0
H1357 H 0.70894 0.96994 0.17356 0.0
H1358 H 0.6991 0.96673 0.20547 0.0
H1359 H 0.67715 0.01806 0.23464 0.0
H1360 H 0.71526 0.02376 0.32269 0.0
H1361 H 0.70514 0.02339 0.29062 0.0
C1362 C 0.18173 0.70177 0.01982 0.0
C1363 C 0.17374 0.70873 0.00361 0.0
C1364 C 0.20022 0.69634 0.02001 0.0
C1365 C 0.24091 0.68536 0.99133 0.0
H1366 H 0.26755 0.71429 0.0274 0.0
C1367 C 0.31739 0.70501 0.98239 0.0
C1368 C 0.32778 0.70993 0.99793 0.0
C1369 C 0.29896 0.69966 0.98428 0.0
C1370 C 0.2605 0.70563 0.01752 0.0
H1371 H 0.17835 0.71394 0.97456 0.0
H1372 H 0.21051 0.70416 0.97484 0.0
H1373 H 0.23425 0.71324 0.02849 0.0
H1374 H 0.32771 0.71149 0.02771 0.0
H1375 H 0.29602 0.70108 0.03117 0.0
H1376 H 0.26717 0.67781 0.98025 0.0
C1377 C 0.20254 0.70303 0.98741 0.0
C1378 C 0.2413 0.70512 0.01814 0.0
C1379 C 0.18415 0.70872 0.98728 0.0
C1380 C 0.31991 0.70799 0.01548 0.0
C1381 C 0.30165 0.7022 0.01741 0.0
C1382 C 0.2602 0.68559 0.99088 0.0
C1383 C 0.21096 0.69748 0.00393 0.0
C1384 C 0.23128 0.69537 0.00479 0.0
C1385 C 0.29064 0.69875 0.00181 0.0
C1386 C 0.27028 0.69616 0.00368 0.0
H1387 H 0.17407 0.70162 0.03263 0.0
H1388 H 0.20636 0.69199 0.0329 0.0
H1389 H 0.2335 0.67764 0.98093 0.0
H1390 H 0.32309 0.70649 0.96868 0.0
H1391 H 0.29101 0.69733 0.97188 0.0
C1392 C 0.09846 0.31076 0.41206 0.0
C1393 C 0.09452 0.29197 0.41436 0.0
C1394 C 0.0917 0.32032 0.3967 0.0
C1395 C 0.0556 0.31645 0.36046 0.0
H1396 H 0.08406 0.35427 0.33582 0.0
C1397 C 0.057 0.35687 0.28637 0.0
C1398 C 0.03799 0.35928 0.28361 0.0
C1399 C 0.06372 0.35038 0.30319 0.0
C1400 C 0.07597 0.34364 0.34245 0.0
H1401 H 0.08122 0.26824 0.40202 0.0
H1402 H 0.07011 0.28457 0.37512 0.0
H1403 H 0.09669 0.33906 0.36294 0.0
H1404 H 0.01116 0.35743 0.29658 0.0
H1405 H 0.02288 0.3467 0.32615 0.0
H1406 H 0.03533 0.32021 0.33953 0.0
C1407 C 0.07776 0.29222 0.38539 0.0
C1408 C 0.08313 0.33509 0.35818 0.0
C1409 C 0.08428 0.28279 0.40077 0.0
C1410 C 0.02587 0.35551 0.29821 0.0
C1411 C 0.03261 0.34928 0.31514 0.0
C1412 C 0.04856 0.32481 0.34466 0.0
C1413 C 0.08104 0.31118 0.38329 0.0
C1414 C 0.07313 0.32119 0.36723 0.0
C1415 C 0.05161 0.34637 0.31778 0.0
C1416 C 0.05871 0.33838 0.3353 0.0
H1417 H 0.10629 0.31819 0.42237 0.0
H1418 H 0.09441 0.33494 0.39559 0.0
H1419 H 0.0473 0.30611 0.36728 0.0
H1420 H 0.06671 0.35957 0.27536 0.0
H1421 H 0.07839 0.34803 0.30453 0.0
C1422 C 0.9206 0.21217 0.40555 0.0
C1423 C 0.90462 0.20676 0.41505 0.0
C1424 C 0.92606 0.20304 0.38959 0.0
C1425 C 0.92085 0.15976 0.36356 0.0
H1426 H 0.9412 0.18932 0.32396 0.0
C1427 C 0.94101 0.13077 0.29159 0.0
C1428 C 0.95784 0.13703 0.28428 0.0
C1429 C 0.9339 0.13844 0.30777 0.0
C1430 C 0.93569 0.18087 0.33496 0.0
H1431 H 0.8819 0.18739 0.41531 0.0
H1432 H 0.89137 0.17149 0.38706 0.0
H1433 H 0.92918 0.20437 0.35138 0.0
H1434 H 0.9806 0.15595 0.28851 0.0
H1435 H 0.96816 0.16931 0.31668 0.0
H1436 H 0.92734 0.13624 0.3469 0.0
C1437 C 0.89975 0.18272 0.39216 0.0
C1438 C 0.9288 0.18948 0.35068 0.0
C1439 C 0.89428 0.19187 0.40828 0.0
C1440 C 0.96758 0.15084 0.29372 0.0
C1441 C 0.96041 0.15858 0.3098 0.0
C1442 C 0.92766 0.15113 0.34772 0.0
C1443 C 0.91565 0.18833 0.38258 0.0
C1444 C 0.92159 0.17904 0.36532 0.0
C1445 C 0.9434 0.15261 0.31688 0.0
C1446 C 0.93542 0.1616 0.3334 0.0
H1447 H 0.92901 0.22347 0.41047 0.0
H1448 H 0.93861 0.20746 0.38283 0.0
H1449 H 0.91552 0.15132 0.37464 0.0
H1450 H 0.93317 0.12012 0.28468 0.0
H1451 H 0.92072 0.13363 0.31287 0.0
C1452 C 0.10562 0.69355 0.09043 0.0
C1453 C 0.09479 0.70763 0.08276 0.0
C1454 C 0.10021 0.68494 0.10685 0.0
C1455 C 0.07004 0.69255 0.14739 0.0
H1456 H 0.07463 0.63984 0.15456 0.0
C1457 C 0.03255 0.65491 0.20595 0.0
C1458 C 0.04292 0.6423 0.21635 0.0
C1459 C 0.03962 0.66225 0.18963 0.0
C1460 C 0.07342 0.6546 0.15278 0.0
H1461 H 0.06952 0.72331 0.08595 0.0
H1462 H 0.05999 0.70816 0.1141 0.0
H1463 H 0.08594 0.65384 0.12605 0.0
H1464 H 0.0687 0.62717 0.21749 0.0
H1465 H 0.08096 0.63997 0.18888 0.0
H1466 H 0.05724 0.6933 0.17391 0.0
C1467 C 0.07289 0.70403 0.10784 0.0
C1468 C 0.07994 0.66262 0.1365 0.0
C1469 C 0.07832 0.71266 0.09159 0.0
C1470 C 0.06037 0.6369 0.20984 0.0
C1471 C 0.06737 0.64414 0.19341 0.0
C1472 C 0.06342 0.68454 0.16354 0.0
C1473 C 0.08385 0.69024 0.11583 0.0
C1474 C 0.07809 0.68167 0.13352 0.0
C1475 C 0.05715 0.65705 0.18327 0.0
C1476 C 0.06484 0.66547 0.16633 0.0
H1477 H 0.11839 0.68939 0.08392 0.0
H1478 H 0.10901 0.67441 0.1127 0.0
H1479 H 0.0688 0.70732 0.14576 0.0
H1480 H 0.01906 0.65934 0.21053 0.0
H1481 H 0.03134 0.67201 0.18196 0.0
C1482 C 0.93736 0.87153 0.20664 0.0
C1483 C 0.9548 0.86579 0.21286 0.0
C1484 C 0.93064 0.8657 0.18954 0.0
C1485 C 0.94577 0.84567 0.14507 0.0
H1486 H 0.89541 0.82814 0.14162 0.0
C1487 C 0.9224 0.7953 0.08941 0.0
C1488 C 0.90539 0.79813 0.08061 0.0
C1489 C 0.92759 0.80611 0.10438 0.0
C1490 C 0.9094 0.83328 0.14229 0.0
H1491 H 0.97887 0.84949 0.20589 0.0
H1492 H 0.96709 0.83919 0.17629 0.0
H1493 H 0.90621 0.84231 0.1702 0.0
H1494 H 0.88045 0.81456 0.08062 0.0
H1495 H 0.88951 0.83344 0.10721 0.0
H1496 H 0.94914 0.83609 0.11741 0.0
C1497 C 0.9587 0.84843 0.18447 0.0
C1498 C 0.9156 0.8414 0.15865 0.0
C1499 C 0.96541 0.85423 0.20153 0.0
C1500 C 0.89365 0.81208 0.08713 0.0
C1501 C 0.89879 0.82283 0.10234 0.0
C1502 C 0.93961 0.83752 0.1288 0.0
C1503 C 0.94122 0.85405 0.17828 0.0
C1504 C 0.934 0.84727 0.16036 0.0
C1505 C 0.91587 0.81996 0.11105 0.0
C1506 C 0.9215 0.83083 0.12739 0.0
H1507 H 0.92884 0.88047 0.215 0.0
H1508 H 0.91719 0.87041 0.18511 0.0
H1509 H 0.95989 0.85045 0.14579 0.0
H1510 H 0.93179 0.7847 0.08473 0.0
H1511 H 0.9407 0.80337 0.11097 0.0
C1512 C 0.29387 0.05957 0.37259 0.0
C1513 C 0.28803 0.0421 0.36656 0.0
C1514 C 0.31086 0.0667 0.36697 0.0
C1515 C 0.35567 0.05288 0.34671 0.0
H1516 H 0.35781 0.1035 0.32975 0.0
C1517 C 0.41013 0.07812 0.29597 0.0
C1518 C 0.4187 0.09519 0.29901 0.0
C1519 C 0.39539 0.07249 0.30688 0.0
C1520 C 0.35751 0.08945 0.33474 0.0
H1521 H 0.29559 0.01839 0.35001 0.0
H1522 H 0.32501 0.0309 0.34005 0.0
H1523 H 0.32959 0.09186 0.34396 0.0
H1524 H 0.41852 0.11982 0.31589 0.0
H1525 H 0.3923 0.11001 0.33494 0.0
H1526 H 0.38334 0.05029 0.33687 0.0
C1527 C 0.31661 0.03899 0.34936 0.0
C1528 C 0.34136 0.08276 0.34288 0.0
C1529 C 0.29966 0.03186 0.35497 0.0
C1530 C 0.41217 0.10658 0.31325 0.0
C1531 C 0.39719 0.101 0.32409 0.0
C1532 C 0.37173 0.05953 0.33851 0.0
C1533 C 0.32239 0.05652 0.35523 0.0
C1534 C 0.34012 0.06426 0.34853 0.0
C1535 C 0.38874 0.08384 0.32103 0.0
C1536 C 0.37266 0.07773 0.33203 0.0
H1537 H 0.28527 0.06781 0.38158 0.0
H1538 H 0.31499 0.08017 0.37187 0.0
H1539 H 0.35532 0.0387 0.35131 0.0
H1540 H 0.41482 0.06899 0.28514 0.0
H1541 H 0.38898 0.05933 0.304 0.0
C1542 C 0.59311 0.41473 0.29021 0.0
C1543 C 0.58307 0.39939 0.29638 0.0
C1544 C 0.60926 0.42007 0.29904 0.0
C1545 C 0.63493 0.41637 0.34266 0.0
H1546 H 0.6749 0.4348 0.31233 0.0
C1547 C 0.70672 0.43871 0.3709 0.0
C1548 C 0.71356 0.45546 0.36393 0.0
C1549 C 0.69077 0.43082 0.36351 0.0
C1550 C 0.66382 0.42979 0.32098 0.0
H1551 H 0.58208 0.37764 0.31681 0.0
H1552 H 0.61069 0.38689 0.33224 0.0
H1553 H 0.64754 0.42208 0.29773 0.0
H1554 H 0.70877 0.47719 0.34397 0.0
H1555 H 0.68106 0.46335 0.33106 0.0
H1556 H 0.65146 0.42409 0.36593 0.0
C1557 C 0.60586 0.39486 0.3206 0.0
C1558 C 0.64813 0.42251 0.31264 0.0
C1559 C 0.58954 0.38951 0.31173 0.0
C1560 C 0.70392 0.46428 0.34965 0.0
C1561 C 0.68811 0.4563 0.34217 0.0
C1562 C 0.65076 0.42355 0.35103 0.0
C1563 C 0.61594 0.41016 0.31426 0.0
C1564 C 0.63331 0.4161 0.32334 0.0
C1565 C 0.68148 0.43941 0.34888 0.0
C1566 C 0.66518 0.43067 0.34025 0.0
H1567 H 0.58845 0.42278 0.27853 0.0
H1568 H 0.61641 0.43218 0.29404 0.0
H1569 H 0.62372 0.41165 0.3513 0.0
H1570 H 0.71379 0.43159 0.38194 0.0
H1571 H 0.68599 0.41776 0.3689 0.0
C1572 C 0.29859 0.96987 0.14602 0.0
C1573 C 0.28752 0.95941 0.13407 0.0
C1574 C 0.31545 0.963 0.15224 0.0
C1575 C 0.34065 0.91949 0.15938 0.0
H1576 H 0.38201 0.95244 0.16684 0.0
C1577 C 0.41129 0.89587 0.1894 0.0
C1578 C 0.41776 0.90708 0.20381 0.0
C1579 C 0.39627 0.90152 0.17864 0.0
C1580 C 0.37057 0.94307 0.16483 0.0
H1581 H 0.2857 0.93364 0.11901 0.0
H1582 H 0.31524 0.92179 0.12972 0.0
H1583 H 0.35418 0.96386 0.15193 0.0
H1584 H 0.41369 0.93303 0.21811 0.0
H1585 H 0.38777 0.94281 0.1994 0.0
H1586 H 0.35709 0.89876 0.17253 0.0
C1587 C 0.31074 0.93519 0.13448 0.0
C1588 C 0.35461 0.94962 0.15636 0.0
C1589 C 0.29385 0.94204 0.12827 0.0
C1590 C 0.40906 0.92404 0.20713 0.0
C1591 C 0.39427 0.92974 0.19632 0.0
C1592 C 0.3567 0.9129 0.16779 0.0
C1593 C 0.32169 0.94554 0.14662 0.0
C1594 C 0.33929 0.93804 0.15392 0.0
C1595 C 0.3877 0.91858 0.18197 0.0
C1596 C 0.37164 0.92476 0.17099 0.0
H1597 H 0.29412 0.98327 0.15082 0.0
H1598 H 0.32338 0.97123 0.16183 0.0
H1599 H 0.32906 0.91023 0.15786 0.0
H1600 H 0.41772 0.88273 0.18653 0.0
H1601 H 0.39148 0.89267 0.16763 0.0
C1602 C 0.58939 0.61241 0.18499 0.0
C1603 C 0.58273 0.60117 0.19928 0.0
C1604 C 0.60459 0.6068 0.17445 0.0
C1605 C 0.63017 0.56524 0.16074 0.0
H1606 H 0.67262 0.59724 0.15571 0.0
C1607 C 0.70214 0.5368 0.14539 0.0
C1608 C 0.71402 0.54684 0.13387 0.0
C1609 C 0.68523 0.54417 0.1508 0.0
C1610 C 0.66077 0.58823 0.15668 0.0
H1611 H 0.58663 0.57519 0.21359 0.0
H1612 H 0.61281 0.56547 0.19524 0.0
H1613 H 0.64426 0.60918 0.16943 0.0
H1614 H 0.71729 0.57246 0.11881 0.0
H1615 H 0.68763 0.58525 0.12815 0.0
H1616 H 0.6466 0.54422 0.14831 0.0
C1617 C 0.60635 0.57855 0.1921 0.0
C1618 C 0.64455 0.59509 0.16453 0.0
C1619 C 0.59142 0.58422 0.20271 0.0
C1620 C 0.70849 0.56437 0.12774 0.0
C1621 C 0.69153 0.57175 0.13315 0.0
C1622 C 0.6463 0.55843 0.15282 0.0
C1623 C 0.6131 0.58974 0.17786 0.0
C1624 C 0.62928 0.58349 0.1671 0.0
C1625 C 0.67973 0.56175 0.14479 0.0
C1626 C 0.66196 0.56968 0.15117 0.0
H1627 H 0.58297 0.62555 0.18206 0.0
H1628 H 0.60957 0.61567 0.16354 0.0
H1629 H 0.61848 0.55609 0.16228 0.0
H1630 H 0.70598 0.5233 0.15044 0.0
H1631 H 0.67663 0.53622 0.16004 0.0
C1632 C 0.31134 0.412 0.10719 0.0
C1633 C 0.29734 0.41865 0.09558 0.0
C1634 C 0.32212 0.39691 0.1018 0.0
C1635 C 0.3367 0.37085 0.06067 0.0
H1636 H 0.34115 0.32909 0.09364 0.0
C1637 C 0.35283 0.29825 0.03418 0.0
C1638 C 0.36418 0.28668 0.04475 0.0
C1639 C 0.34721 0.31531 0.041 0.0
C1640 C 0.34034 0.34075 0.08437 0.0
H1641 H 0.2839 0.41495 0.06911 0.0
H1642 H 0.30265 0.38891 0.05977 0.0
H1643 H 0.3272 0.35764 0.10473 0.0
H1644 H 0.37875 0.28416 0.07075 0.0
H1645 H 0.36904 0.31406 0.08259 0.0
H1646 H 0.3495 0.35399 0.04021 0.0
C1647 C 0.30539 0.3953 0.07297 0.0
C1648 C 0.33235 0.35709 0.09074 0.0
C1649 C 0.29454 0.41015 0.07842 0.0
C1650 C 0.36995 0.29269 0.06226 0.0
C1651 C 0.36433 0.3098 0.06909 0.0
C1652 C 0.34473 0.35459 0.05433 0.0
C1653 C 0.31923 0.38846 0.0846 0.0
C1654 C 0.33002 0.37213 0.07879 0.0
C1655 C 0.35284 0.32128 0.05856 0.0
C1656 C 0.3462 0.33918 0.06595 0.0
H1657 H 0.31379 0.41828 0.1205 0.0
H1658 H 0.33274 0.39191 0.111 0.0
H1659 H 0.33535 0.38235 0.05125 0.0
H1660 H 0.34807 0.29405 0.02067 0.0
H1661 H 0.33809 0.32367 0.03265 0.0
C1662 C 0.34973 0.70495 0.46724 0.0
C1663 C 0.36308 0.71483 0.4573 0.0
C1664 C 0.34212 0.68885 0.46 0.0
C1665 C 0.34946 0.65148 0.42675 0.0
H1666 H 0.29635 0.64671 0.4298 0.0
C1667 C 0.30866 0.58993 0.39505 0.0
C1668 C 0.29422 0.58303 0.40596 0.0
C1669 C 0.3178 0.60617 0.40012 0.0
C1670 C 0.31121 0.64773 0.42898 0.0
H1671 H 0.37931 0.71522 0.43218 0.0
H1672 H 0.36602 0.68695 0.4196 0.0
H1673 H 0.31116 0.67447 0.44129 0.0
H1674 H 0.27845 0.58743 0.43099 0.0
H1675 H 0.29446 0.61529 0.43989 0.0
H1676 H 0.34948 0.6245 0.41473 0.0
C1677 C 0.36148 0.69174 0.43299 0.0
C1678 C 0.31968 0.66365 0.43556 0.0
C1679 C 0.36901 0.70796 0.44017 0.0
C1680 C 0.28937 0.59246 0.42214 0.0
C1681 C 0.29848 0.60854 0.4272 0.0
C1682 C 0.34096 0.63543 0.42025 0.0
C1683 C 0.34776 0.68219 0.44272 0.0
C1684 C 0.3389 0.66559 0.43478 0.0
C1685 C 0.31265 0.61575 0.41617 0.0
C1686 C 0.32176 0.63326 0.4216 0.0
H1687 H 0.34488 0.7098 0.48049 0.0
H1688 H 0.33176 0.68161 0.46793 0.0
H1689 H 0.36432 0.65261 0.42602 0.0
H1690 H 0.31271 0.58294 0.3825 0.0
H1691 H 0.32863 0.61142 0.39129 0.0
C1692 C 0.68729 0.91256 0.39282 0.0
C1693 C 0.70123 0.91913 0.40455 0.0
C1694 C 0.67647 0.89744 0.39806 0.0
C1695 C 0.66149 0.87144 0.43903 0.0
H1696 H 0.65708 0.82962 0.40613 0.0
C1697 C 0.64526 0.79895 0.46564 0.0
C1698 C 0.63395 0.78733 0.45508 0.0
C1699 C 0.65084 0.81601 0.45878 0.0
C1700 C 0.65788 0.84129 0.41538 0.0
H1701 H 0.71457 0.91519 0.43104 0.0
H1702 H 0.69575 0.88911 0.44011 0.0
H1703 H 0.67122 0.85809 0.39506 0.0
H1704 H 0.61941 0.7847 0.42906 0.0
H1705 H 0.62908 0.81461 0.41716 0.0
H1706 H 0.64847 0.85468 0.45944 0.0
C1707 C 0.69309 0.8956 0.42693 0.0
C1708 C 0.66597 0.85759 0.40902 0.0
C1709 C 0.70398 0.91047 0.42164 0.0
C1710 C 0.62818 0.79329 0.43755 0.0
C1711 C 0.63378 0.81039 0.43068 0.0
C1712 C 0.65334 0.85523 0.44535 0.0
C1713 C 0.67925 0.88889 0.41522 0.0
C1714 C 0.66831 0.87263 0.42095 0.0
C1715 C 0.64523 0.82192 0.44119 0.0
C1716 C 0.65189 0.83979 0.43376 0.0
H1717 H 0.68488 0.91897 0.37956 0.0
H1718 H 0.66587 0.89253 0.38878 0.0
H1719 H 0.66283 0.88296 0.44843 0.0
H1720 H 0.65002 0.79479 0.47916 0.0
H1721 H 0.65993 0.8244 0.46712 0.0
C1722 C 0.12902 0.70559 0.56011 0.0
C1723 C 0.13521 0.71195 0.54288 0.0
C1724 C 0.13486 0.68857 0.56696 0.0
C1725 C 0.15619 0.64447 0.55256 0.0
H1726 H 0.17188 0.64145 0.60356 0.0
C1727 C 0.20607 0.58928 0.57815 0.0
C1728 C 0.20265 0.5806 0.59511 0.0
C1729 C 0.1954 0.60416 0.57245 0.0
C1730 C 0.16726 0.642 0.58938 0.0
H1731 H 0.15229 0.70527 0.51927 0.0
H1732 H 0.16264 0.67577 0.5313 0.0
H1733 H 0.15772 0.66976 0.59213 0.0
H1734 H 0.18533 0.58076 0.61945 0.0
H1735 H 0.16669 0.60718 0.60949 0.0
H1736 H 0.16626 0.61694 0.54966 0.0
C1737 C 0.15304 0.6838 0.53941 0.0
C1738 C 0.15915 0.6582 0.58282 0.0
C1739 C 0.1472 0.70079 0.53256 0.0
C1740 C 0.18827 0.58718 0.6063 0.0
C1741 C 0.17766 0.60229 0.60065 0.0
C1742 C 0.16434 0.62835 0.55909 0.0
C1743 C 0.14701 0.67752 0.55673 0.0
C1744 C 0.1539 0.65975 0.56421 0.0
C1745 C 0.18111 0.61086 0.58361 0.0
C1746 C 0.17034 0.62709 0.57745 0.0
H1747 H 0.11972 0.7138 0.5684 0.0
H1748 H 0.12981 0.68405 0.58025 0.0
H1749 H 0.15191 0.64506 0.53827 0.0
H1750 H 0.21701 0.58456 0.56917 0.0
H1751 H 0.19859 0.61066 0.5594 0.0
C1752 C 0.967 0.6509 0.70661 0.0
C1753 C 0.95701 0.63744 0.7163 0.0
C1754 C 0.95994 0.65853 0.69043 0.0
C1755 C 0.92721 0.65103 0.65257 0.0
H1756 H 0.93023 0.70412 0.64769 0.0
C1757 C 0.89589 0.69152 0.59063 0.0
C1758 C 0.90679 0.70596 0.58375 0.0
C1759 C 0.90087 0.68247 0.60696 0.0
C1760 C 0.92942 0.68926 0.64874 0.0
H1761 H 0.93197 0.62109 0.71625 0.0
H1762 H 0.91972 0.63442 0.68787 0.0
H1763 H 0.94145 0.6894 0.67562 0.0
H1764 H 0.9317 0.72188 0.5883 0.0
H1765 H 0.94045 0.70603 0.61632 0.0
H1766 H 0.91544 0.65092 0.62547 0.0
C1767 C 0.93301 0.63902 0.69287 0.0
C1768 C 0.93585 0.68084 0.66476 0.0
C1769 C 0.94 0.63147 0.70916 0.0
C1770 C 0.92287 0.71094 0.5933 0.0
C1771 C 0.92785 0.70192 0.60947 0.0
C1772 C 0.92084 0.65948 0.63643 0.0
C1773 C 0.9428 0.65282 0.68349 0.0
C1774 C 0.93507 0.66163 0.66675 0.0
C1775 C 0.91683 0.68772 0.61665 0.0
C1776 C 0.92217 0.67867 0.63423 0.0
H1777 H 0.98015 0.6558 0.71167 0.0
H1778 H 0.96793 0.66896 0.68334 0.0
H1779 H 0.92649 0.63618 0.65373 0.0
H1780 H 0.88343 0.68737 0.58355 0.0
H1781 H 0.89206 0.67162 0.61218 0.0
C1782 C 0.05968 0.86331 0.71077 0.0
C1783 C 0.04216 0.85797 0.71713 0.0
C1784 C 0.06668 0.85625 0.69427 0.0
C1785 C 0.0624 0.81618 0.66398 0.0
H1786 H 0.08599 0.84674 0.62704 0.0
C1787 C 0.07766 0.78828 0.59208 0.0
C1788 C 0.09444 0.79287 0.5836 0.0
C1789 C 0.07215 0.797 0.60825 0.0
C1790 C 0.07968 0.838 0.63734 0.0
H1791 H 0.01812 0.84131 0.71091 0.0
H1792 H 0.03038 0.82899 0.6822 0.0
H1793 H 0.07455 0.86073 0.65553 0.0
H1794 H 0.11848 0.81049 0.58528 0.0
H1795 H 0.10893 0.82565 0.61392 0.0
H1796 H 0.06756 0.79345 0.64608 0.0
C1797 C 0.03874 0.83854 0.69006 0.0
C1798 C 0.07309 0.84601 0.65361 0.0
C1799 C 0.03168 0.84569 0.70646 0.0
C1800 C 0.10548 0.80667 0.59152 0.0
C1801 C 0.09997 0.81538 0.60786 0.0
C1802 C 0.06906 0.80818 0.64785 0.0
C1803 C 0.05638 0.84359 0.68389 0.0
C1804 C 0.06412 0.8352 0.66695 0.0
C1805 C 0.08332 0.81046 0.61651 0.0
C1806 C 0.07749 0.81901 0.63418 0.0
H1807 H 0.06809 0.87279 0.71863 0.0
H1808 H 0.08035 0.86032 0.68989 0.0
H1809 H 0.05593 0.80744 0.6742 0.0
H1810 H 0.0687 0.77787 0.58625 0.0
H1811 H 0.05903 0.79319 0.61426 0.0
C1812 C 0.93935 0.36708 0.79103 0.0
C1813 C 0.9564 0.36109 0.78402 0.0
C1814 C 0.93227 0.35959 0.80732 0.0
C1815 C 0.93511 0.31799 0.83582 0.0
H1816 H 0.91406 0.34818 0.87455 0.0
C1817 C 0.92139 0.28859 0.90746 0.0
C1818 C 0.90512 0.29355 0.91671 0.0
C1819 C 0.92654 0.29747 0.89126 0.0
C1820 C 0.91965 0.33955 0.86374 0.0
H1821 H 0.97954 0.34278 0.78888 0.0
H1822 H 0.96718 0.32977 0.81721 0.0
H1823 H 0.92534 0.3627 0.84628 0.0
H1824 H 0.88161 0.31195 0.91632 0.0
H1825 H 0.89056 0.32744 0.88766 0.0
H1826 H 0.92945 0.29486 0.85307 0.0
C1827 C 0.95921 0.34013 0.81002 0.0
C1828 C 0.92614 0.34787 0.84759 0.0
C1829 C 0.96635 0.34768 0.79383 0.0
C1830 C 0.89422 0.30782 0.90948 0.0
C1831 C 0.89938 0.31672 0.89313 0.0
C1832 C 0.92856 0.3097 0.85185 0.0
C1833 C 0.94202 0.34587 0.81684 0.0
C1834 C 0.93422 0.33717 0.83361 0.0
C1835 C 0.91553 0.31149 0.88376 0.0
C1836 C 0.92106 0.32039 0.86616 0.0
H1837 H 0.93134 0.37741 0.78384 0.0
H1838 H 0.91895 0.36421 0.81221 0.0
H1839 H 0.94088 0.30935 0.8251 0.0
H1840 H 0.93023 0.27779 0.91272 0.0
H1841 H 0.93928 0.29337 0.88465 0.0
C1842 C 0.03015 0.15592 0.79551 0.0
C1843 C 0.0416 0.14427 0.78513 0.0
C1844 C 0.03632 0.16334 0.81218 0.0
C1845 C 0.06996 0.1569 0.84953 0.0
H1846 H 0.06234 0.20909 0.85772 0.0
C1847 C 0.10157 0.1963 0.91172 0.0
C1848 C 0.09052 0.20998 0.91978 0.0
C1849 C 0.09596 0.1876 0.89542 0.0
C1850 C 0.06437 0.19444 0.85579 0.0
H1851 H 0.06837 0.13095 0.78434 0.0
H1852 H 0.07904 0.14384 0.81347 0.0
H1853 H 0.05141 0.19502 0.82933 0.0
H1854 H 0.06465 0.2248 0.91749 0.0
H1855 H 0.05474 0.20944 0.88955 0.0
H1856 H 0.08272 0.15627 0.87614 0.0
C1857 C 0.06531 0.14721 0.8087 0.0
C1858 C 0.05812 0.18641 0.8395 0.0
C1859 C 0.05922 0.13992 0.79196 0.0
C1860 C 0.07361 0.21447 0.91151 0.0
C1861 C 0.06797 0.20573 0.89539 0.0
C1862 C 0.0761 0.16492 0.86595 0.0
C1863 C 0.05399 0.15913 0.81889 0.0
C1864 C 0.06076 0.16754 0.83623 0.0
C1865 C 0.07916 0.19238 0.88697 0.0
C1866 C 0.07326 0.18378 0.86932 0.0
H1867 H 0.01651 0.15953 0.79066 0.0
H1868 H 0.02723 0.17234 0.81985 0.0
H1869 H 0.07207 0.14228 0.84741 0.0
H1870 H 0.11468 0.19256 0.91779 0.0
H1871 H 0.10497 0.17745 0.88923 0.0
C1872 C 0.59179 0.91605 0.70328 0.0
C1873 C 0.58296 0.89918 0.69981 0.0
C1874 C 0.60661 0.92173 0.69252 0.0
C1875 C 0.64438 0.9053 0.66434 0.0
H1876 H 0.64626 0.95623 0.64829 0.0
C1877 C 0.70787 0.93609 0.62684 0.0
C1878 C 0.71349 0.95361 0.63294 0.0
C1879 C 0.69097 0.92871 0.63244 0.0
C1880 C 0.64601 0.942 0.65275 0.0
H1881 H 0.58286 0.87493 0.6824 0.0
H1882 H 0.60929 0.88482 0.66363 0.0
H1883 H 0.61832 0.94433 0.6626 0.0
H1884 H 0.70566 0.97712 0.64964 0.0
H1885 H 0.67643 0.96419 0.65958 0.0
H1886 H 0.67233 0.90316 0.65513 0.0
C1887 C 0.6045 0.89363 0.67468 0.0
C1888 C 0.62998 0.93517 0.66086 0.0
C1889 C 0.5894 0.88801 0.68536 0.0
C1890 C 0.70176 0.96363 0.64461 0.0
C1891 C 0.68491 0.95626 0.65022 0.0
C1892 C 0.6605 0.91217 0.65629 0.0
C1893 C 0.61313 0.91063 0.67811 0.0
C1894 C 0.62916 0.9169 0.66716 0.0
C1895 C 0.67932 0.93869 0.64425 0.0
C1896 C 0.66164 0.93074 0.65084 0.0
H1897 H 0.58718 0.92502 0.71427 0.0
H1898 H 0.61317 0.93476 0.69567 0.0
H1899 H 0.64414 0.89119 0.66918 0.0
H1900 H 0.71655 0.92801 0.61779 0.0
H1901 H 0.687 0.91522 0.62746 0.0
C1902 C 0.41023 0.57696 0.70478 0.0
C1903 C 0.41871 0.59413 0.70201 0.0
C1904 C 0.39533 0.57156 0.69398 0.0
C1905 C 0.35701 0.58925 0.66705 0.0
H1906 H 0.3543 0.53884 0.64956 0.0
C1907 C 0.29295 0.56055 0.62896 0.0
C1908 C 0.28703 0.54298 0.63462 0.0
C1909 C 0.30998 0.56747 0.63471 0.0
C1910 C 0.3548 0.55293 0.65443 0.0
H1911 H 0.41821 0.61914 0.68571 0.0
H1912 H 0.39174 0.60971 0.66685 0.0
H1913 H 0.38255 0.54997 0.66388 0.0
H1914 H 0.29448 0.5189 0.65067 0.0
H1915 H 0.32398 0.53103 0.66085 0.0
H1916 H 0.32902 0.59202 0.65816 0.0
C1917 C 0.3968 0.60047 0.6774 0.0
C1918 C 0.37099 0.55931 0.66256 0.0
C1919 C 0.41195 0.60582 0.68814 0.0
C1920 C 0.29861 0.53244 0.646 0.0
C1921 C 0.31561 0.53936 0.65173 0.0
C1922 C 0.34073 0.58282 0.65896 0.0
C1923 C 0.38841 0.58323 0.68021 0.0
C1924 C 0.37212 0.57739 0.66936 0.0
C1925 C 0.32148 0.55698 0.64621 0.0
C1926 C 0.33931 0.56445 0.65297 0.0
H1927 H 0.4151 0.5676 0.71532 0.0
H1928 H 0.38897 0.55833 0.69666 0.0
H1929 H 0.35746 0.60321 0.67229 0.0
H1930 H 0.28439 0.56902 0.62015 0.0
H1931 H 0.31418 0.58101 0.63008 0.0
C1932 C 0.70891 0.06208 0.8699 0.0
C1933 C 0.7155 0.04512 0.86322 0.0
C1934 C 0.69295 0.06998 0.86251 0.0
C1935 C 0.66548 0.07023 0.82026 0.0
H1936 H 0.62599 0.08964 0.85058 0.0
C1937 C 0.59449 0.08493 0.79006 0.0
C1938 C 0.58475 0.10064 0.79578 0.0
C1939 C 0.61068 0.0797 0.79888 0.0
C1940 C 0.63703 0.08455 0.84193 0.0
H1941 H 0.71026 0.023 0.84381 0.0
H1942 H 0.68254 0.03682 0.83091 0.0
H1943 H 0.6538 0.07732 0.86519 0.0
H1944 H 0.58433 0.12314 0.8154 0.0
H1945 H 0.61301 0.11406 0.83082 0.0
H1946 H 0.64895 0.07741 0.79702 0.0
C1947 C 0.68979 0.04405 0.84178 0.0
C1948 C 0.6529 0.07745 0.8503 0.0
C1949 C 0.70561 0.03608 0.84925 0.0
C1950 C 0.59155 0.11098 0.81067 0.0
C1951 C 0.6079 0.10573 0.81954 0.0
C1952 C 0.64975 0.07741 0.81193 0.0
C1953 C 0.68341 0.06116 0.84818 0.0
C1954 C 0.6671 0.06987 0.83952 0.0
C1955 C 0.61771 0.09008 0.81362 0.0
C1956 C 0.63514 0.08427 0.82265 0.0
H1957 H 0.71618 0.06938 0.88069 0.0
H1958 H 0.68837 0.08321 0.86766 0.0
H1959 H 0.67639 0.06486 0.81161 0.0
H1960 H 0.58958 0.07653 0.77875 0.0
H1961 H 0.61761 0.06733 0.79424 0.0
C1962 C 0.29254 0.44378 0.86895 0.0
C1963 C 0.28546 0.46084 0.86307 0.0
C1964 C 0.30884 0.43682 0.86139 0.0
C1965 C 0.33674 0.43966 0.8195 0.0
H1966 H 0.37572 0.41814 0.84904 0.0
C1967 C 0.40735 0.42402 0.78849 0.0
C1968 C 0.41645 0.40773 0.7936 0.0
C1969 C 0.39147 0.42965 0.79767 0.0
C1970 C 0.36484 0.42386 0.84059 0.0
H1971 H 0.29022 0.48415 0.84497 0.0
H1972 H 0.31858 0.47196 0.83179 0.0
H1973 H 0.3479 0.42989 0.86406 0.0
H1974 H 0.41614 0.38465 0.81252 0.0
H1975 H 0.38801 0.39438 0.82848 0.0
H1976 H 0.35339 0.43358 0.79605 0.0
C1977 C 0.31144 0.46392 0.84214 0.0
C1978 C 0.34896 0.43064 0.8492 0.0
C1979 C 0.29524 0.47095 0.84978 0.0
C1980 C 0.40941 0.39726 0.80828 0.0
C1981 C 0.39337 0.40288 0.81746 0.0
C1982 C 0.35249 0.43281 0.81092 0.0
C1983 C 0.31828 0.44669 0.8477 0.0
C1984 C 0.33488 0.43885 0.83873 0.0
C1985 C 0.38414 0.41908 0.81212 0.0
C1986 C 0.36688 0.4251 0.82136 0.0
H1987 H 0.28537 0.43565 0.8792 0.0
H1988 H 0.31375 0.42346 0.86587 0.0
H1989 H 0.32593 0.44554 0.81105 0.0
H1990 H 0.4125 0.43254 0.77738 0.0
H1991 H 0.385 0.44241 0.79347 0.0
C1992 C 0.64499 0.70052 0.96614 0.0
C1993 C 0.63373 0.7121 0.95549 0.0
C1994 C 0.65071 0.68348 0.95931 0.0
C1995 C 0.65822 0.65827 0.91596 0.0
H1996 H 0.66308 0.61662 0.94904 0.0
C1997 C 0.68825 0.58714 0.89372 0.0
C1998 C 0.70213 0.58069 0.90558 0.0
C1999 C 0.67729 0.6022 0.89884 0.0
C2000 C 0.66177 0.62813 0.93964 0.0
H2001 H 0.61941 0.7147 0.92936 0.0
H2002 H 0.62929 0.68484 0.91751 0.0
H2003 H 0.64847 0.64481 0.95993 0.0
H2004 H 0.71523 0.58476 0.93216 0.0
H2005 H 0.69617 0.61073 0.94103 0.0
H2006 H 0.67186 0.64155 0.89577 0.0
C2007 C 0.63385 0.68906 0.93108 0.0
C2008 C 0.65347 0.64429 0.94588 0.0
C2009 C 0.62813 0.70614 0.93791 0.0
C2010 C 0.70469 0.5894 0.92267 0.0
C2011 C 0.69366 0.60421 0.92784 0.0
C2012 C 0.66647 0.64202 0.90968 0.0
C2013 C 0.64527 0.67757 0.94168 0.0
C2014 C 0.65206 0.65973 0.93429 0.0
C2015 C 0.67987 0.61081 0.91601 0.0
C2016 C 0.66877 0.62699 0.92163 0.0
H2017 H 0.64962 0.70468 0.9797 0.0
H2018 H 0.65976 0.67512 0.96772 0.0
H2019 H 0.65746 0.66995 0.90672 0.0
H2020 H 0.68599 0.58069 0.88046 0.0
H2021 H 0.66673 0.60703 0.88947 0.0
C2022 C 0.65026 0.29496 0.53433 0.0
C2023 C 0.63664 0.28513 0.54395 0.0
C2024 C 0.6578 0.311 0.54177 0.0
C2025 C 0.64999 0.34834 0.57495 0.0
H2026 H 0.70319 0.35279 0.573 0.0
C2027 C 0.69037 0.4098 0.60732 0.0
C2028 C 0.70498 0.41668 0.59662 0.0
C2029 C 0.68134 0.39352 0.60218 0.0
C2030 C 0.6883 0.35186 0.57352 0.0
H2031 H 0.61986 0.2848 0.56871 0.0
H2032 H 0.63303 0.31296 0.58163 0.0
H2033 H 0.68845 0.32513 0.56118 0.0
H2034 H 0.72123 0.41212 0.57192 0.0
H2035 H 0.70543 0.38419 0.5629 0.0
H2036 H 0.64989 0.37531 0.58699 0.0
C2037 C 0.63784 0.30817 0.56834 0.0
C2038 C 0.67987 0.336 0.56675 0.0
C2039 C 0.63037 0.29201 0.56096 0.0
C2040 C 0.71016 0.40714 0.5806 0.0
C2041 C 0.70116 0.39101 0.57547 0.0
C2042 C 0.65845 0.36433 0.58165 0.0
C2043 C 0.65183 0.31766 0.55894 0.0
C2044 C 0.66063 0.33418 0.56711 0.0
C2045 C 0.68678 0.38386 0.58626 0.0
C2046 C 0.6777 0.36639 0.58069 0.0
H2047 H 0.65538 0.2901 0.52118 0.0
H2048 H 0.66838 0.31819 0.53408 0.0
H2049 H 0.63511 0.3473 0.57536 0.0
H2050 H 0.68606 0.41687 0.61973 0.0
H2051 H 0.67035 0.38832 0.61082 0.0
C2052 C 0.30904 0.08708 0.60467 0.0
C2053 C 0.29464 0.08009 0.59377 0.0
C2054 C 0.31811 0.10336 0.59957 0.0
C2055 C 0.31111 0.14489 0.57079 0.0
H2056 H 0.36412 0.15054 0.57409 0.0
C2057 C 0.3489 0.20326 0.53351 0.0
C2058 C 0.36213 0.21315 0.54361 0.0
C2059 C 0.34149 0.18695 0.54048 0.0
C2060 C 0.34928 0.14919 0.57327 0.0
H2061 H 0.27892 0.08432 0.56868 0.0
H2062 H 0.29481 0.11224 0.55972 0.0
H2063 H 0.34964 0.12212 0.58507 0.0
H2064 H 0.37834 0.21332 0.56875 0.0
H2065 H 0.36539 0.1847 0.58086 0.0
H2066 H 0.31071 0.17175 0.55875 0.0
C2067 C 0.29885 0.10554 0.57242 0.0
C2068 C 0.34099 0.13296 0.57959 0.0
C2069 C 0.2898 0.08942 0.57752 0.0
C2070 C 0.36813 0.20607 0.56063 0.0
C2071 C 0.36079 0.18965 0.56755 0.0
C2072 C 0.31937 0.161 0.56441 0.0
C2073 C 0.31292 0.11288 0.58349 0.0
C2074 C 0.32182 0.13052 0.57813 0.0
C2075 C 0.3472 0.18007 0.55765 0.0
C2076 C 0.33856 0.16323 0.56531 0.0
H2077 H 0.31308 0.08018 0.61726 0.0
H2078 H 0.32887 0.10871 0.60841 0.0
H2079 H 0.29626 0.14367 0.5699 0.0
H2080 H 0.344 0.20826 0.52033 0.0
H2081 H 0.33122 0.17971 0.53242 0.0
C2082 C 0.81107 0.41306 0.39562 0.0
C2083 C 0.7965 0.41939 0.40669 0.0
C2084 C 0.82167 0.3979 0.40119 0.0
C2085 C 0.8345 0.37114 0.44244 0.0
H2086 H 0.84167 0.33039 0.4087 0.0
C2087 C 0.85229 0.29839 0.46782 0.0
C2088 C 0.86437 0.28752 0.4573 0.0
C2089 C 0.84627 0.31543 0.46124 0.0
C2090 C 0.84009 0.34176 0.41822 0.0
H2091 H 0.78178 0.41498 0.43235 0.0
H2092 H 0.80019 0.38881 0.442 0.0
H2093 H 0.8275 0.35883 0.39766 0.0
H2094 H 0.87984 0.28622 0.43173 0.0
H2095 H 0.86948 0.31607 0.42039 0.0
H2096 H 0.84684 0.35412 0.46306 0.0
C2097 C 0.80353 0.39552 0.4291 0.0
C2098 C 0.83197 0.35804 0.41187 0.0
C2099 C 0.79288 0.41045 0.42347 0.0
C2100 C 0.87047 0.2942 0.44016 0.0
C2101 C 0.86446 0.31128 0.4336 0.0
C2102 C 0.84269 0.35494 0.44876 0.0
C2103 C 0.818 0.38904 0.41803 0.0
C2104 C 0.82871 0.37272 0.42404 0.0
C2105 C 0.85222 0.32206 0.44403 0.0
C2106 C 0.84519 0.33989 0.43684 0.0
H2107 H 0.81417 0.41968 0.38261 0.0
H2108 H 0.83278 0.39319 0.39242 0.0
H2109 H 0.83243 0.38237 0.45205 0.0
H2110 H 0.84726 0.29365 0.48104 0.0
H2111 H 0.8366 0.32323 0.4695 0.0
C2112 C 0.56167 0.86663 0.78987 0.0
C2113 C 0.54374 0.8617 0.78441 0.0
C2114 C 0.56863 0.86099 0.80692 0.0
C2115 C 0.55399 0.84301 0.85247 0.0
H2116 H 0.60384 0.82391 0.855 0.0
C2117 C 0.57778 0.79384 0.90913 0.0
C2118 C 0.59514 0.79652 0.91727 0.0
C2119 C 0.57235 0.80429 0.894 0.0
C2120 C 0.59001 0.8295 0.85458 0.0
H2121 H 0.51906 0.84698 0.79266 0.0
H2122 H 0.53129 0.8369 0.82217 0.0
H2123 H 0.59261 0.83739 0.82628 0.0
H2124 H 0.62043 0.81234 0.91594 0.0
H2125 H 0.61095 0.83057 0.88905 0.0
H2126 H 0.55121 0.83452 0.88056 0.0
C2127 C 0.53987 0.84542 0.81345 0.0
C2128 C 0.58355 0.83721 0.83814 0.0
C2129 C 0.5329 0.8511 0.79644 0.0
C2130 C 0.60697 0.80999 0.90995 0.0
C2131 C 0.60159 0.82036 0.89456 0.0
C2132 C 0.56041 0.83522 0.86883 0.0
C2133 C 0.55783 0.85027 0.81889 0.0
C2134 C 0.56533 0.84369 0.83678 0.0
C2135 C 0.58418 0.81761 0.8865 0.0
C2136 C 0.57833 0.82801 0.86993 0.0
H2137 H 0.57038 0.87486 0.78098 0.0
H2138 H 0.58244 0.86512 0.81077 0.0
H2139 H 0.54004 0.84827 0.85204 0.0
H2140 H 0.56831 0.78361 0.91444 0.0
H2141 H 0.55897 0.80168 0.88791 0.0
C2142 C 0.43835 0.62699 0.79297 0.0
C2143 C 0.45581 0.63289 0.78696 0.0
C2144 C 0.4314 0.63271 0.81002 0.0
C2145 C 0.44586 0.65286 0.85467 0.0
H2146 H 0.39538 0.67018 0.85743 0.0
C2147 C 0.42168 0.70366 0.90953 0.0
C2148 C 0.40467 0.70075 0.9183 0.0
C2149 C 0.42704 0.69274 0.89471 0.0
C2150 C 0.4094 0.66509 0.85696 0.0
H2151 H 0.47969 0.64932 0.79425 0.0
H2152 H 0.46752 0.65943 0.82375 0.0
H2153 H 0.40658 0.65591 0.82906 0.0
H2154 H 0.37988 0.6841 0.91836 0.0
H2155 H 0.38923 0.66503 0.89199 0.0
H2156 H 0.44886 0.66263 0.88232 0.0
C2157 C 0.45929 0.65016 0.81546 0.0
C2158 C 0.41583 0.65692 0.84072 0.0
C2159 C 0.46622 0.64446 0.79846 0.0
C2160 C 0.39308 0.68664 0.91187 0.0
C2161 C 0.39839 0.67578 0.89679 0.0
C2162 C 0.43947 0.66108 0.87082 0.0
C2163 C 0.44177 0.64441 0.82143 0.0
C2164 C 0.43428 0.65114 0.83925 0.0
C2165 C 0.41548 0.67871 0.88815 0.0
C2166 C 0.42132 0.66769 0.87197 0.0
H2167 H 0.42997 0.61803 0.78448 0.0
H2168 H 0.41793 0.6279 0.81429 0.0
H2169 H 0.46001 0.64815 0.85415 0.0
H2170 H 0.43097 0.71439 0.91414 0.0
H2171 H 0.44016 0.69551 0.88815 0.0
C2172 C 0.55875 0.13206 0.70857 0.0
C2173 C 0.5413 0.13785 0.7147 0.0
C2174 C 0.56551 0.13773 0.69146 0.0
C2175 C 0.55081 0.15795 0.64684 0.0
H2176 H 0.6017 0.17397 0.64365 0.0
C2177 C 0.5766 0.20665 0.59053 0.0
C2178 C 0.59361 0.203 0.58204 0.0
C2179 C 0.57078 0.19633 0.60562 0.0
C2180 C 0.58755 0.16926 0.64425 0.0
H2181 H 0.51721 0.15401 0.70754 0.0
H2182 H 0.52911 0.16415 0.67789 0.0
H2183 H 0.59027 0.16042 0.67224 0.0
H2184 H 0.61788 0.1856 0.5827 0.0
H2185 H 0.60773 0.16761 0.60949 0.0
H2186 H 0.54795 0.16739 0.61906 0.0
C2187 C 0.53746 0.15496 0.68615 0.0
C2188 C 0.58098 0.16149 0.66062 0.0
C2189 C 0.53067 0.14924 0.70323 0.0
C2190 C 0.6047 0.18872 0.58897 0.0
C2191 C 0.59893 0.17848 0.6043 0.0
C2192 C 0.55734 0.1658 0.63055 0.0
C2193 C 0.555 0.14934 0.68008 0.0
C2194 C 0.56243 0.15608 0.66222 0.0
C2195 C 0.58187 0.18218 0.61272 0.0
C2196 C 0.57567 0.17187 0.62921 0.0
H2197 H 0.56727 0.1232 0.71702 0.0
H2198 H 0.57896 0.13296 0.68711 0.0
H2199 H 0.53657 0.15354 0.64746 0.0
H2200 H 0.5677 0.21752 0.58552 0.0
H2201 H 0.5577 0.19969 0.61198 0.0
C2202 C 0.44033 0.37187 0.70629 0.0
C2203 C 0.45736 0.36558 0.71309 0.0
C2204 C 0.43351 0.36543 0.68947 0.0
C2205 C 0.44783 0.34169 0.64654 0.0
H2206 H 0.39628 0.32795 0.6433 0.0
C2207 C 0.42094 0.29131 0.59232 0.0
C2208 C 0.40443 0.29544 0.5831 0.0
C2209 C 0.42679 0.30195 0.60717 0.0
C2210 C 0.41063 0.33199 0.64391 0.0
H2211 H 0.48061 0.34766 0.70744 0.0
H2212 H 0.46859 0.33625 0.67833 0.0
H2213 H 0.40787 0.34272 0.67124 0.0
H2214 H 0.381 0.31395 0.58232 0.0
H2215 H 0.39121 0.33255 0.60867 0.0
H2216 H 0.4507 0.33042 0.61945 0.0
C2217 C 0.46064 0.3464 0.68581 0.0
C2218 C 0.41729 0.34046 0.65989 0.0
C2219 C 0.46748 0.35287 0.70259 0.0
C2220 C 0.39379 0.31045 0.58916 0.0
C2221 C 0.39959 0.32104 0.60423 0.0
C2222 C 0.44121 0.33315 0.63064 0.0
C2223 C 0.44353 0.35254 0.67908 0.0
C2224 C 0.43605 0.34507 0.66153 0.0
C2225 C 0.41623 0.31694 0.61329 0.0
C2226 C 0.42263 0.32787 0.6293 0.0
H2227 H 0.43221 0.38172 0.71399 0.0
H2228 H 0.42039 0.37061 0.68459 0.0
H2229 H 0.46226 0.34544 0.64716 0.0
H2230 H 0.42948 0.27986 0.58802 0.0
H2231 H 0.43952 0.29828 0.61405 0.0
C2232 C 0.9121 0.60655 0.81363 0.0
C2233 C 0.91827 0.59534 0.79909 0.0
C2234 C 0.89705 0.60109 0.82444 0.0
C2235 C 0.871 0.55991 0.83838 0.0
H2236 H 0.82944 0.59281 0.84483 0.0
C2237 C 0.79892 0.53301 0.85604 0.0
C2238 C 0.78757 0.54337 0.86781 0.0
C2239 C 0.81584 0.53998 0.85014 0.0
C2240 C 0.84105 0.58355 0.84347 0.0
H2241 H 0.91364 0.56958 0.78463 0.0
H2242 H 0.8877 0.5601 0.80347 0.0
H2243 H 0.85764 0.6042 0.83036 0.0
H2244 H 0.78529 0.56912 0.88283 0.0
H2245 H 0.81497 0.58119 0.87266 0.0
H2246 H 0.85449 0.53919 0.85121 0.0
C2247 C 0.89444 0.57304 0.80658 0.0
C2248 C 0.85718 0.59009 0.83518 0.0
C2249 C 0.90924 0.57856 0.79569 0.0
C2250 C 0.79366 0.56079 0.87371 0.0
C2251 C 0.81064 0.56776 0.86782 0.0
C2252 C 0.85497 0.55342 0.84675 0.0
C2253 C 0.88818 0.58421 0.82106 0.0
C2254 C 0.87211 0.57818 0.83212 0.0
C2255 C 0.82189 0.55746 0.8559 0.0
C2256 C 0.83961 0.56501 0.84894 0.0
H2257 H 0.9188 0.61955 0.81655 0.0
H2258 H 0.89247 0.60994 0.83554 0.0
H2259 H 0.88244 0.55052 0.83646 0.0
H2260 H 0.79464 0.51958 0.85116 0.0
H2261 H 0.82399 0.5318 0.84069 0.0
C2262 C 0.20815 0.93584 0.87198 0.0
C2263 C 0.21391 0.95322 0.86563 0.0
C2264 C 0.19129 0.92843 0.8663 0.0
C2265 C 0.14663 0.94153 0.84522 0.0
H2266 H 0.14455 0.89031 0.83016 0.0
C2267 C 0.09202 0.91446 0.79564 0.0
C2268 C 0.08311 0.89777 0.7997 0.0
C2269 C 0.10701 0.92034 0.80606 0.0
C2270 C 0.14485 0.90455 0.8346 0.0
H2271 H 0.2064 0.97645 0.84839 0.0
H2272 H 0.17725 0.96344 0.83831 0.0
H2273 H 0.17274 0.90249 0.84403 0.0
H2274 H 0.08308 0.87401 0.81779 0.0
H2275 H 0.10976 0.88425 0.83597 0.0
H2276 H 0.119 0.94375 0.83518 0.0
C2277 C 0.18557 0.95565 0.84793 0.0
C2278 C 0.16097 0.91154 0.84255 0.0
C2279 C 0.20237 0.96307 0.85362 0.0
C2280 C 0.08967 0.88695 0.81436 0.0
C2281 C 0.10492 0.89277 0.82472 0.0
C2282 C 0.13061 0.93458 0.8372 0.0
C2283 C 0.17983 0.93823 0.85416 0.0
C2284 C 0.16218 0.93024 0.84754 0.0
C2285 C 0.1136 0.90962 0.82072 0.0
C2286 C 0.12971 0.91615 0.83142 0.0
H2287 H 0.21667 0.9279 0.8813 0.0
H2288 H 0.1872 0.91506 0.8715 0.0
H2289 H 0.14693 0.95587 0.84932 0.0
H2290 H 0.08734 0.92315 0.78445 0.0
H2291 H 0.11361 0.93323 0.80248 0.0
C2292 C 0.91118 0.39429 0.68748 0.0
C2293 C 0.91758 0.4049 0.70237 0.0
C2294 C 0.89602 0.40023 0.67708 0.0
C2295 C 0.8697 0.44199 0.6653 0.0
H2296 H 0.82857 0.40894 0.6571 0.0
C2297 C 0.79733 0.46865 0.64766 0.0
C2298 C 0.78632 0.45848 0.63542 0.0
C2299 C 0.8143 0.46177 0.65357 0.0
C2300 C 0.84005 0.41828 0.65897 0.0
H2301 H 0.91324 0.43009 0.71789 0.0
H2302 H 0.88707 0.44038 0.6998 0.0
H2303 H 0.85681 0.39723 0.67114 0.0
H2304 H 0.78474 0.43323 0.61948 0.0
H2305 H 0.81447 0.42137 0.62961 0.0
H2306 H 0.853 0.4631 0.65335 0.0
C2307 C 0.89374 0.42756 0.69607 0.0
C2308 C 0.85622 0.41155 0.66702 0.0
C2309 C 0.90866 0.42156 0.70653 0.0
C2310 C 0.79283 0.4414 0.62899 0.0
C2311 C 0.80983 0.43454 0.63487 0.0
C2312 C 0.85362 0.44869 0.65717 0.0
C2313 C 0.88724 0.41699 0.68125 0.0
C2314 C 0.87102 0.42345 0.67065 0.0
C2315 C 0.82072 0.44459 0.64733 0.0
C2316 C 0.83844 0.43703 0.6543 0.0
H2317 H 0.91778 0.38139 0.68396 0.0
H2318 H 0.89128 0.39184 0.66569 0.0
H2319 H 0.88103 0.45141 0.66767 0.0
H2320 H 0.79273 0.48182 0.65294 0.0
H2321 H 0.82218 0.46976 0.66341 0.0
C2322 C 0.10209 0.09752 0.71411 0.0
C2323 C 0.08697 0.10514 0.70478 0.0
C2324 C 0.11724 0.09089 0.70439 0.0
C2325 C 0.14025 0.09039 0.65872 0.0
H2326 H 0.16144 0.04547 0.67837 0.0
C2327 C 0.19836 0.0306 0.64051 0.0
C2328 C 0.21254 0.04192 0.6338 0.0
C2329 C 0.18208 0.03833 0.64727 0.0
C2330 C 0.15557 0.05784 0.67247 0.0
H2331 H 0.07608 0.11243 0.67798 0.0
H2332 H 0.10247 0.10032 0.66078 0.0
H2333 H 0.13513 0.05925 0.69352 0.0
H2334 H 0.2206 0.07022 0.62856 0.0
H2335 H 0.19252 0.08369 0.64091 0.0
H2336 H 0.16043 0.08857 0.63728 0.0
C2337 C 0.10273 0.09975 0.67569 0.0
C2338 C 0.14063 0.06597 0.68139 0.0
C2339 C 0.0876 0.10667 0.6855 0.0
C2340 C 0.20991 0.0611 0.63359 0.0
C2341 C 0.19372 0.06883 0.64057 0.0
C2342 C 0.15514 0.08214 0.64966 0.0
C2343 C 0.11754 0.09138 0.68503 0.0
C2344 C 0.13295 0.0825 0.67483 0.0
C2345 C 0.17969 0.05756 0.64772 0.0
C2346 C 0.16312 0.06585 0.65655 0.0
H2347 H 0.1021 0.0964 0.729 0.0
H2348 H 0.12862 0.08509 0.71209 0.0
H2349 H 0.13471 0.10313 0.6533 0.0
H2350 H 0.19988 0.01577 0.64067 0.0
H2351 H 0.17141 0.02918 0.65228 0.0
C2352 C 0.79611 0.90974 0.57681 0.0
C2353 C 0.79897 0.91823 0.59397 0.0
C2354 C 0.80706 0.89501 0.57124 0.0
C2355 C 0.83483 0.85715 0.58861 0.0
H2356 H 0.85153 0.8545 0.5379 0.0
C2357 C 0.8736 0.79367 0.55983 0.0
C2358 C 0.86781 0.78747 0.5424 0.0
C2359 C 0.86768 0.81067 0.56665 0.0
C2360 C 0.84688 0.85497 0.55207 0.0
H2361 H 0.81563 0.91794 0.61876 0.0
H2362 H 0.83477 0.8918 0.60903 0.0
H2363 H 0.8369 0.88254 0.54915 0.0
H2364 H 0.85138 0.79442 0.51841 0.0
H2365 H 0.84089 0.82389 0.53039 0.0
H2366 H 0.84426 0.82935 0.59137 0.0
C2367 C 0.82401 0.89671 0.59993 0.0
C2368 C 0.83857 0.87105 0.55853 0.0
C2369 C 0.81311 0.91167 0.60546 0.0
C2370 C 0.85616 0.79877 0.53186 0.0
C2371 C 0.85024 0.81575 0.53868 0.0
C2372 C 0.8431 0.84099 0.58213 0.0
C2373 C 0.82109 0.88829 0.58272 0.0
C2374 C 0.83207 0.87216 0.57673 0.0
C2375 C 0.85585 0.82187 0.5562 0.0
C2376 C 0.84883 0.83959 0.56365 0.0
H2377 H 0.78536 0.91446 0.5676 0.0
H2378 H 0.80428 0.88864 0.55803 0.0
H2379 H 0.82982 0.85757 0.60266 0.0
H2380 H 0.88263 0.78534 0.5683 0.0
H2381 H 0.87241 0.81507 0.58011 0.0
C2382 C 0.81336 0.08718 0.89519 0.0
C2383 C 0.79868 0.08088 0.90613 0.0
C2384 C 0.82405 0.10221 0.90093 0.0
C2385 C 0.83688 0.12853 0.94246 0.0
H2386 H 0.84434 0.16959 0.90916 0.0
C2387 C 0.85404 0.20113 0.96859 0.0
C2388 C 0.86613 0.2122 0.95829 0.0
C2389 C 0.84829 0.18406 0.96184 0.0
C2390 C 0.84269 0.15812 0.91855 0.0
H2391 H 0.78387 0.08521 0.93176 0.0
H2392 H 0.80245 0.11115 0.9417 0.0
H2393 H 0.83018 0.14128 0.89776 0.0
H2394 H 0.88194 0.2138 0.93295 0.0
H2395 H 0.87203 0.1839 0.9213 0.0
H2396 H 0.8491 0.14534 0.96333 0.0
C2397 C 0.8058 0.10451 0.92876 0.0
C2398 C 0.83457 0.14192 0.912 0.0
C2399 C 0.79505 0.08972 0.92297 0.0
C2400 C 0.87256 0.20566 0.94121 0.0
C2401 C 0.86681 0.18856 0.93448 0.0
C2402 C 0.84506 0.14465 0.94898 0.0
C2403 C 0.82038 0.11096 0.91782 0.0
C2404 C 0.83118 0.12715 0.92402 0.0
C2405 C 0.85452 0.17761 0.94466 0.0
C2406 C 0.84764 0.15981 0.93723 0.0
H2407 H 0.81646 0.08063 0.88214 0.0
H2408 H 0.83524 0.1069 0.89225 0.0
H2409 H 0.83471 0.11723 0.95196 0.0
H2410 H 0.84876 0.20575 0.98176 0.0
H2411 H 0.83857 0.17613 0.96991 0.0
C2412 C 0.14924 0.29829 0.96945 0.0
C2413 C 0.13495 0.28904 0.96023 0.0
C2414 C 0.15702 0.31418 0.96191 0.0
C2415 C 0.14929 0.35212 0.92941 0.0
H2416 H 0.20266 0.35432 0.92874 0.0
C2417 C 0.19025 0.4121 0.89525 0.0
C2418 C 0.20566 0.41836 0.90516 0.0
C2419 C 0.18095 0.39609 0.90076 0.0
C2420 C 0.18774 0.35402 0.92897 0.0
H2421 H 0.11718 0.28963 0.93617 0.0
H2422 H 0.13075 0.31752 0.92312 0.0
H2423 H 0.18735 0.32726 0.94124 0.0
H2424 H 0.22319 0.41293 0.92879 0.0
H2425 H 0.20694 0.38548 0.93848 0.0
H2426 H 0.14972 0.37912 0.91745 0.0
C2427 C 0.13591 0.3124 0.93614 0.0
C2428 C 0.17899 0.33851 0.93613 0.0
C2429 C 0.12821 0.29639 0.9436 0.0
C2430 C 0.21147 0.40842 0.92072 0.0
C2431 C 0.20221 0.39257 0.92623 0.0
C2432 C 0.15808 0.36777 0.92234 0.0
C2433 C 0.1506 0.32126 0.94508 0.0
C2434 C 0.15969 0.3375 0.93668 0.0
C2435 C 0.18693 0.3861 0.91627 0.0
C2436 C 0.17742 0.369 0.92232 0.0
H2437 H 0.15473 0.29305 0.98229 0.0
H2438 H 0.16816 0.32089 0.96923 0.0
H2439 H 0.13438 0.3517 0.92971 0.0
H2440 H 0.18544 0.41948 0.88321 0.0
H2441 H 0.16928 0.3914 0.89274 0.0
C2442 C 0.64538 0.20061 0.03308 0.0
C2443 C 0.63308 0.21146 0.04334 0.0
C2444 C 0.65153 0.18371 0.0399 0.0
C2445 C 0.6575 0.15785 0.08325 0.0
H2446 H 0.66602 0.11706 0.04984 0.0
C2447 C 0.6866 0.0867 0.10653 0.0
C2448 C 0.70136 0.0804 0.09568 0.0
C2449 C 0.67611 0.10188 0.10083 0.0
C2450 C 0.66371 0.12834 0.05934 0.0
H2451 H 0.61733 0.21286 0.06873 0.0
H2452 H 0.6279 0.18325 0.08051 0.0
H2453 H 0.65143 0.14505 0.03843 0.0
H2454 H 0.71657 0.08497 0.07033 0.0
H2455 H 0.6983 0.11116 0.06046 0.0
H2456 H 0.67 0.14107 0.10411 0.0
C2457 C 0.633 0.18795 0.0673 0.0
C2458 C 0.65542 0.1444 0.05279 0.0
C2459 C 0.62687 0.20489 0.06049 0.0
C2460 C 0.70531 0.08946 0.07903 0.0
C2461 C 0.69475 0.1044 0.07328 0.0
C2462 C 0.66571 0.1417 0.08983 0.0
C2463 C 0.64547 0.1772 0.05712 0.0
C2464 C 0.65261 0.15951 0.06455 0.0
C2465 C 0.68005 0.11079 0.08408 0.0
C2466 C 0.66929 0.12697 0.07782 0.0
H2467 H 0.65051 0.20527 0.01986 0.0
H2468 H 0.66138 0.17594 0.03183 0.0
H2469 H 0.65567 0.16928 0.09265 0.0
H2470 H 0.68325 0.08 0.11943 0.0
H2471 H 0.66481 0.10653 0.1094 0.0
C2472 C 0.4201 0.20573 0.09178 0.0
C2473 C 0.40309 0.20241 0.08315 0.0
C2474 C 0.42571 0.19512 0.10674 0.0
C2475 C 0.40874 0.16746 0.14488 0.0
H2476 H 0.45962 0.15132 0.14752 0.0
C2477 C 0.43825 0.12916 0.20845 0.0
C2478 C 0.45573 0.13503 0.21446 0.0
C2479 C 0.4312 0.13509 0.19152 0.0
C2480 C 0.4454 0.15582 0.14705 0.0
H2481 H 0.37857 0.18536 0.08349 0.0
H2482 H 0.38838 0.16683 0.11006 0.0
H2483 H 0.44816 0.16563 0.1194 0.0
H2484 H 0.4795 0.15168 0.20731 0.0
H2485 H 0.46713 0.16218 0.17801 0.0
H2486 H 0.40614 0.1582 0.17277 0.0
C2487 C 0.39733 0.17767 0.10506 0.0
C2488 C 0.43883 0.16395 0.13093 0.0
C2489 C 0.39176 0.18822 0.08987 0.0
C2490 C 0.46603 0.14682 0.2031 0.0
C2491 C 0.45898 0.15275 0.18621 0.0
C2492 C 0.41534 0.15939 0.16109 0.0
C2493 C 0.41443 0.18099 0.11357 0.0
C2494 C 0.42056 0.17024 0.12981 0.0
C2495 C 0.44147 0.147 0.18023 0.0
C2496 C 0.43388 0.15386 0.16249 0.0
H2497 H 0.42918 0.21654 0.08696 0.0
H2498 H 0.43882 0.1982 0.11318 0.0
H2499 H 0.39463 0.1723 0.14444 0.0
H2500 H 0.42996 0.12003 0.21683 0.0
H2501 H 0.41775 0.13026 0.18724 0.0
C2502 C 0.5562 0.36464 0.21021 0.0
C2503 C 0.53883 0.35925 0.21692 0.0
C2504 C 0.56305 0.35733 0.19375 0.0
C2505 C 0.55895 0.31657 0.16446 0.0
H2506 H 0.58203 0.34656 0.12674 0.0
C2507 C 0.57498 0.28709 0.09328 0.0
C2508 C 0.59158 0.29197 0.08462 0.0
C2509 C 0.56928 0.29601 0.10927 0.0
C2510 C 0.57586 0.33797 0.13726 0.0
H2511 H 0.51487 0.34226 0.21138 0.0
H2512 H 0.52687 0.32948 0.18272 0.0
H2513 H 0.5704 0.36107 0.15486 0.0
H2514 H 0.61515 0.31025 0.08582 0.0
H2515 H 0.60531 0.32575 0.11417 0.0
H2516 H 0.56451 0.29347 0.14716 0.0
C2517 C 0.53522 0.33927 0.19027 0.0
C2518 C 0.56916 0.34629 0.15332 0.0
C2519 C 0.52831 0.34668 0.20663 0.0
C2520 C 0.60229 0.3062 0.09221 0.0
C2521 C 0.59661 0.31511 0.10838 0.0
C2522 C 0.56574 0.30827 0.14853 0.0
C2523 C 0.55274 0.34437 0.18377 0.0
C2524 C 0.5604 0.33568 0.16695 0.0
C2525 C 0.5801 0.30997 0.11717 0.0
C2526 C 0.57403 0.31888 0.1346 0.0
H2527 H 0.56465 0.37434 0.21777 0.0
H2528 H 0.57662 0.36143 0.18912 0.0
H2529 H 0.55264 0.30799 0.17491 0.0
H2530 H 0.56628 0.27634 0.08769 0.0
H2531 H 0.55628 0.292 0.11539 0.0
C2532 C 0.43847 0.87303 0.29439 0.0
C2533 C 0.45572 0.86698 0.28795 0.0
C2534 C 0.43168 0.86699 0.31138 0.0
C2535 C 0.44642 0.84522 0.35522 0.0
H2536 H 0.39544 0.82952 0.35854 0.0
C2537 C 0.42138 0.79438 0.40977 0.0
C2538 C 0.40471 0.7979 0.41895 0.0
C2539 C 0.42686 0.80523 0.39492 0.0
C2540 C 0.40962 0.83414 0.35791 0.0
H2541 H 0.47938 0.84989 0.29441 0.0
H2542 H 0.46746 0.83918 0.32379 0.0
H2543 H 0.4066 0.84406 0.33029 0.0
H2544 H 0.38062 0.81553 0.4197 0.0
H2545 H 0.39015 0.83446 0.39331 0.0
H2546 H 0.44959 0.83471 0.38257 0.0
C2547 C 0.45929 0.84885 0.3159 0.0
C2548 C 0.41603 0.84246 0.34174 0.0
C2549 C 0.46608 0.8549 0.29896 0.0
C2550 C 0.39355 0.81252 0.41289 0.0
C2551 C 0.39896 0.8233 0.3978 0.0
C2552 C 0.44005 0.83682 0.37129 0.0
C2553 C 0.44198 0.85477 0.3223 0.0
C2554 C 0.43462 0.84771 0.34007 0.0
C2555 C 0.41574 0.81979 0.38876 0.0
C2556 C 0.42171 0.83081 0.37264 0.0
H2557 H 0.43015 0.88239 0.28629 0.0
H2558 H 0.41838 0.87195 0.316 0.0
H2559 H 0.4607 0.84949 0.35456 0.0
H2560 H 0.43033 0.78325 0.41408 0.0
H2561 H 0.43971 0.80201 0.38806 0.0
C2562 C 0.57802 0.70575 0.40875 0.0
C2563 C 0.5954 0.70301 0.41681 0.0
C2564 C 0.57253 0.69539 0.39358 0.0
C2565 C 0.59004 0.67035 0.35397 0.0
H2566 H 0.54001 0.65172 0.35147 0.0
C2567 C 0.56144 0.63354 0.28919 0.0
C2568 C 0.54352 0.63857 0.28378 0.0
C2569 C 0.56846 0.6391 0.30624 0.0
C2570 C 0.55398 0.65694 0.35189 0.0
H2571 H 0.62068 0.68718 0.41531 0.0
H2572 H 0.61109 0.6691 0.38835 0.0
H2573 H 0.55128 0.66532 0.38002 0.0
H2574 H 0.51892 0.65336 0.29212 0.0
H2575 H 0.53124 0.66328 0.32165 0.0
H2576 H 0.59255 0.66257 0.32563 0.0
C2577 C 0.60175 0.6793 0.39395 0.0
C2578 C 0.56045 0.66464 0.36827 0.0
C2579 C 0.6072 0.68958 0.40938 0.0
C2580 C 0.53275 0.64917 0.29586 0.0
C2581 C 0.53978 0.65476 0.31288 0.0
C2582 C 0.58353 0.66272 0.33751 0.0
C2583 C 0.58432 0.68211 0.38596 0.0
C2584 C 0.5784 0.6718 0.36936 0.0
C2585 C 0.55773 0.64982 0.31827 0.0
C2586 C 0.56528 0.6563 0.33617 0.0
H2587 H 0.56858 0.71596 0.41416 0.0
H2588 H 0.55913 0.69805 0.38755 0.0
H2589 H 0.60389 0.6759 0.35438 0.0
H2590 H 0.5701 0.62531 0.28025 0.0
H2591 H 0.58226 0.6349 0.31005 0.0
C2592 C 0.20354 0.46161 0.15168 0.0
C2593 C 0.21324 0.45319 0.1372 0.0
C2594 C 0.18774 0.4534 0.15892 0.0
C2595 C 0.15039 0.42098 0.14916 0.0
H2596 H 0.14721 0.41805 0.20241 0.0
C2597 C 0.08863 0.38691 0.18767 0.0
C2598 C 0.0823 0.3966 0.20319 0.0
C2599 C 0.10506 0.39213 0.17893 0.0
C2600 C 0.14779 0.41888 0.18752 0.0
H2601 H 0.21357 0.4298 0.11857 0.0
H2602 H 0.18574 0.41557 0.13116 0.0
H2603 H 0.17467 0.43092 0.18814 0.0
H2604 H 0.08809 0.41952 0.22152 0.0
H2605 H 0.11624 0.4287 0.20626 0.0
H2606 H 0.12322 0.40938 0.1486 0.0
C2607 C 0.1905 0.42849 0.13691 0.0
C2608 C 0.16354 0.42624 0.17936 0.0
C2609 C 0.20645 0.43661 0.12977 0.0
C2610 C 0.09262 0.41162 0.2097 0.0
C2611 C 0.10888 0.41683 0.201 0.0
C2612 C 0.13449 0.41372 0.15736 0.0
C2613 C 0.18116 0.43667 0.15174 0.0
C2614 C 0.16487 0.42768 0.16013 0.0
C2615 C 0.11541 0.40711 0.1856 0.0
C2616 C 0.13288 0.41295 0.17666 0.0
H2617 H 0.20835 0.47437 0.15771 0.0
H2618 H 0.18065 0.46013 0.1702 0.0
H2619 H 0.15107 0.42196 0.13429 0.0
H2620 H 0.08095 0.37528 0.18233 0.0
H2621 H 0.10977 0.38432 0.16713 0.0
C2622 C 0.79082 0.05832 0.1314 0.0
C2623 C 0.78381 0.04137 0.13767 0.0
C2624 C 0.80712 0.0655 0.13875 0.0
C2625 C 0.83524 0.06363 0.18054 0.0
H2626 H 0.87449 0.08354 0.15023 0.0
C2627 C 0.90647 0.07791 0.2106 0.0
C2628 C 0.91601 0.09383 0.20514 0.0
C2629 C 0.89035 0.0726 0.20168 0.0
C2630 C 0.86354 0.07829 0.15889 0.0
H2631 H 0.78868 0.01851 0.1563 0.0
H2632 H 0.81702 0.03108 0.16914 0.0
H2633 H 0.84633 0.072 0.13568 0.0
H2634 H 0.91621 0.11658 0.1858 0.0
H2635 H 0.88766 0.1074 0.17025 0.0
H2636 H 0.85218 0.06993 0.20373 0.0
C2637 C 0.80983 0.03886 0.15863 0.0
C2638 C 0.84746 0.07164 0.15055 0.0
C2639 C 0.79365 0.03161 0.15119 0.0
C2640 C 0.90914 0.10424 0.19033 0.0
C2641 C 0.89286 0.09894 0.18139 0.0
C2642 C 0.85119 0.07036 0.18885 0.0
C2643 C 0.81662 0.05596 0.15264 0.0
C2644 C 0.8333 0.06395 0.1613 0.0
C2645 C 0.8832 0.08313 0.1871 0.0
C2646 C 0.86569 0.07744 0.17813 0.0
H2647 H 0.7836 0.06617 0.12096 0.0
H2648 H 0.81201 0.07875 0.13394 0.0
H2649 H 0.82438 0.05816 0.1892 0.0
H2650 H 0.91146 0.06944 0.22183 0.0
H2651 H 0.88354 0.06011 0.20616 0.0
C2652 C 0.08942 0.61013 0.31361 0.0
C2653 C 0.08336 0.6001 0.29818 0.0
C2654 C 0.10445 0.60386 0.32402 0.0
C2655 C 0.13025 0.56164 0.33486 0.0
H2656 H 0.17153 0.59388 0.3452 0.0
C2657 C 0.20171 0.53338 0.35355 0.0
C2658 C 0.21257 0.54303 0.36634 0.0
C2659 C 0.18501 0.54071 0.34741 0.0
C2660 C 0.15999 0.58476 0.34274 0.0
H2661 H 0.08827 0.57567 0.28163 0.0
H2662 H 0.11417 0.56482 0.29976 0.0
H2663 H 0.14377 0.60642 0.33087 0.0
H2664 H 0.21416 0.5678 0.38301 0.0
H2665 H 0.18487 0.58042 0.3725 0.0
H2666 H 0.14636 0.53995 0.34653 0.0
C2667 C 0.10734 0.57743 0.30389 0.0
C2668 C 0.14411 0.59196 0.33451 0.0
C2669 C 0.09256 0.58375 0.29342 0.0
C2670 C 0.20618 0.56004 0.37308 0.0
C2671 C 0.18943 0.56733 0.36699 0.0
C2672 C 0.14603 0.55448 0.34317 0.0
C2673 C 0.11341 0.58735 0.31931 0.0
C2674 C 0.12928 0.58037 0.3301 0.0
C2675 C 0.1787 0.55781 0.35398 0.0
C2676 C 0.16127 0.56584 0.34682 0.0
H2677 H 0.08259 0.62277 0.3176 0.0
H2678 H 0.10888 0.61176 0.33587 0.0
H2679 H 0.11887 0.55246 0.33187 0.0
H2680 H 0.20624 0.5203 0.34801 0.0
H2681 H 0.17727 0.53313 0.33716 0.0
C2682 C 0.79783 0.96712 0.35481 0.0
C2683 C 0.78633 0.95661 0.36629 0.0
C2684 C 0.81476 0.96016 0.34892 0.0
C2685 C 0.83969 0.91659 0.34151 0.0
H2686 H 0.88148 0.94937 0.33583 0.0
C2687 C 0.91061 0.89343 0.31166 0.0
C2688 C 0.91718 0.90501 0.29759 0.0
C2689 C 0.89557 0.89883 0.32251 0.0
C2690 C 0.86993 0.94004 0.33736 0.0
H2691 H 0.78377 0.93059 0.38081 0.0
H2692 H 0.81345 0.91853 0.37062 0.0
H2693 H 0.85346 0.96061 0.3505 0.0
H2694 H 0.91329 0.93138 0.28403 0.0
H2695 H 0.88733 0.94073 0.30291 0.0
H2696 H 0.85622 0.89611 0.32807 0.0
C2697 C 0.80924 0.93208 0.36602 0.0
C2698 C 0.85386 0.94649 0.3457 0.0
C2699 C 0.79227 0.93904 0.37191 0.0
C2700 C 0.90857 0.9221 0.29473 0.0
C2701 C 0.89377 0.92755 0.30565 0.0
C2702 C 0.85585 0.9101 0.33323 0.0
C2703 C 0.82065 0.94253 0.35439 0.0
C2704 C 0.83838 0.935 0.34743 0.0
C2705 C 0.88708 0.91601 0.31963 0.0
C2706 C 0.87094 0.92193 0.33065 0.0
H2707 H 0.79368 0.98067 0.35015 0.0
H2708 H 0.82305 0.96846 0.3397 0.0
H2709 H 0.82798 0.90741 0.34251 0.0
H2710 H 0.91697 0.88018 0.31417 0.0
H2711 H 0.89067 0.88968 0.33323 0.0
C2712 C 0.13082 0.20541 0.43846 0.0
C2713 C 0.1363 0.21175 0.45594 0.0
C2714 C 0.13697 0.18842 0.43183 0.0
C2715 C 0.1576 0.1443 0.44706 0.0
H2716 H 0.17449 0.14091 0.39647 0.0
C2717 C 0.20681 0.08791 0.42256 0.0
C2718 C 0.20362 0.07942 0.40545 0.0
C2719 C 0.19637 0.10301 0.42809 0.0
C2720 C 0.16954 0.14156 0.41053 0.0
H2721 H 0.1525 0.20512 0.48017 0.0
H2722 H 0.16343 0.17567 0.4685 0.0
H2723 H 0.16052 0.16945 0.40748 0.0
H2724 H 0.18691 0.08012 0.38071 0.0
H2725 H 0.16864 0.1069 0.39037 0.0
H2726 H 0.16713 0.1166 0.45025 0.0
C2727 C 0.15413 0.18368 0.46003 0.0
C2728 C 0.16154 0.1579 0.41686 0.0
C2729 C 0.14795 0.20064 0.46668 0.0
C2730 C 0.18967 0.08638 0.39397 0.0
C2731 C 0.17928 0.10171 0.39946 0.0
C2732 C 0.16565 0.12802 0.44077 0.0
C2733 C 0.14875 0.17738 0.44251 0.0
C2734 C 0.15581 0.15957 0.43531 0.0
C2735 C 0.18253 0.11012 0.41661 0.0
C2736 C 0.17204 0.12661 0.42255 0.0
H2737 H 0.12178 0.21357 0.42985 0.0
H2738 H 0.13241 0.18388 0.41836 0.0
H2739 H 0.15295 0.14498 0.46123 0.0
H2740 H 0.21744 0.08289 0.43176 0.0
H2741 H 0.19939 0.10936 0.44125 0.0
C2742 C 0.21184 0.90857 0.07764 0.0
C2743 C 0.20651 0.918 0.09367 0.0
C2744 C 0.20274 0.8926 0.0722 0.0
C2745 C 0.15966 0.86627 0.07761 0.0
H2746 H 0.18952 0.82688 0.05731 0.0
C2747 C 0.13134 0.79398 0.05754 0.0
C2748 C 0.13772 0.78671 0.04073 0.0
C2749 C 0.1388 0.81027 0.06462 0.0
C2750 C 0.18098 0.83781 0.06281 0.0
H2751 H 0.18725 0.91817 0.11649 0.0
H2752 H 0.17137 0.88989 0.10706 0.0
H2753 H 0.20438 0.85442 0.06926 0.0
H2754 H 0.15658 0.79116 0.01797 0.0
H2755 H 0.16956 0.81951 0.03034 0.0
H2756 H 0.13625 0.84941 0.07118 0.0
C2757 C 0.18255 0.89505 0.09863 0.0
C2758 C 0.18948 0.8536 0.06966 0.0
C2759 C 0.19168 0.91118 0.10408 0.0
C2760 C 0.15139 0.79632 0.03097 0.0
C2761 C 0.15891 0.81251 0.03811 0.0
C2762 C 0.15114 0.85035 0.07084 0.0
C2763 C 0.18811 0.88551 0.08269 0.0
C2764 C 0.17893 0.86818 0.07683 0.0
C2765 C 0.15287 0.81952 0.05511 0.0
C2766 C 0.16172 0.83611 0.06309 0.0
H2767 H 0.22309 0.91353 0.06918 0.0
H2768 H 0.20711 0.88587 0.05962 0.0
H2769 H 0.15114 0.87729 0.08294 0.0
H2770 H 0.12079 0.78694 0.0654 0.0
H2771 H 0.13393 0.81532 0.07779 0.0
C2772 C 0.87316 0.70732 0.06118 0.0
C2773 C 0.86761 0.71293 0.04347 0.0
C2774 C 0.86751 0.69034 0.06829 0.0
C2775 C 0.84831 0.64516 0.05423 0.0
H2776 H 0.82976 0.6432 0.10431 0.0
C2777 C 0.79751 0.59024 0.07833 0.0
C2778 C 0.79994 0.58202 0.09569 0.0
C2779 C 0.8085 0.60497 0.07287 0.0
C2780 C 0.8352 0.64345 0.09041 0.0
H2781 H 0.85187 0.70498 0.01932 0.0
H2782 H 0.84187 0.67557 0.03179 0.0
H2783 H 0.84392 0.67151 0.09288 0.0
H2784 H 0.81587 0.58279 0.12094 0.0
H2785 H 0.83506 0.60899 0.1114 0.0
H2786 H 0.839 0.61733 0.05156 0.0
C2787 C 0.85082 0.68414 0.04009 0.0
C2788 C 0.84331 0.65965 0.08385 0.0
C2789 C 0.85646 0.70109 0.03298 0.0
C2790 C 0.8137 0.58886 0.10748 0.0
C2791 C 0.82462 0.60384 0.10206 0.0
C2792 C 0.84016 0.62903 0.06075 0.0
C2793 C 0.85622 0.67858 0.05785 0.0
C2794 C 0.84953 0.66083 0.06553 0.0
C2795 C 0.82213 0.61199 0.08465 0.0
C2796 C 0.8331 0.62816 0.07875 0.0
H2797 H 0.88179 0.71608 0.06961 0.0
H2798 H 0.87204 0.68638 0.08195 0.0
H2799 H 0.85336 0.64546 0.04019 0.0
H2800 H 0.78707 0.5853 0.06889 0.0
H2801 H 0.80606 0.61114 0.0595 0.0
C2802 C 0.29644 0.90908 0.92171 0.0
C2803 C 0.29912 0.9175 0.90449 0.0
C2804 C 0.30726 0.8942 0.92711 0.0
C2805 C 0.33394 0.85578 0.90937 0.0
H2806 H 0.35166 0.85309 0.95972 0.0
C2807 C 0.37182 0.79161 0.93807 0.0
C2808 C 0.36626 0.78578 0.9557 0.0
C2809 C 0.3661 0.80863 0.93111 0.0
C2810 C 0.34673 0.85358 0.94565 0.0
H2811 H 0.3153 0.91693 0.8794 0.0
H2812 H 0.3342 0.89048 0.88882 0.0
H2813 H 0.33745 0.88139 0.94859 0.0
H2814 H 0.35039 0.79339 0.97987 0.0
H2815 H 0.34025 0.82287 0.96767 0.0
H2816 H 0.34265 0.82774 0.90662 0.0
C2817 C 0.3237 0.89558 0.89811 0.0
C2818 C 0.33866 0.8698 0.93926 0.0
C2819 C 0.31294 0.91071 0.89276 0.0
C2820 C 0.35499 0.79744 0.96627 0.0
C2821 C 0.34928 0.81443 0.95931 0.0
C2822 C 0.34196 0.83948 0.91579 0.0
C2823 C 0.32096 0.88724 0.91538 0.0
C2824 C 0.33178 0.87093 0.9212 0.0
C2825 C 0.35472 0.82022 0.94164 0.0
C2826 C 0.34803 0.83806 0.93415 0.0
H2827 H 0.28593 0.91398 0.93111 0.0
H2828 H 0.30464 0.88789 0.94038 0.0
H2829 H 0.32864 0.85623 0.89543 0.0
H2830 H 0.38055 0.78299 0.92957 0.0
H2831 H 0.37067 0.81276 0.91752 0.0
C2832 C 0.0036 0.55933 0.2789 0.0
C2833 C 0.99544 0.5739 0.26918 0.0
C2834 C 0.99875 0.54119 0.27506 0.0
C2835 C 0.00115 0.50896 0.24963 0.0
H2836 H 0.95432 0.48482 0.24075 0.0
C2837 C 0.00145 0.43942 0.21581 0.0
C2838 C 0.9928 0.42562 0.22622 0.0
C2839 C 0.99717 0.45789 0.21873 0.0
C2840 C 0.96745 0.49148 0.24314 0.0
H2841 H 0.97454 0.58111 0.24912 0.0
H2842 H 0.96622 0.5491 0.24211 0.0
H2843 H 0.95493 0.5164 0.25325 0.0
H2844 H 0.97161 0.42011 0.24651 0.0
H2845 H 0.96438 0.45263 0.25195 0.0
H2846 H 0.01383 0.48442 0.23979 0.0
C2847 C 0.97626 0.5518 0.25282 0.0
C2848 C 0.9678 0.50947 0.25025 0.0
C2849 C 0.98101 0.5701 0.25683 0.0
C2850 C 0.97846 0.43051 0.23828 0.0
C2851 C 0.97432 0.44911 0.24139 0.0
C2852 C 0.00081 0.49124 0.24242 0.0
C2853 C 0.98581 0.53721 0.26123 0.0
C2854 C 0.98471 0.51825 0.25376 0.0
C2855 C 0.98438 0.46297 0.23234 0.0
C2856 C 0.98402 0.48225 0.23908 0.0
H2857 H 0.01459 0.56191 0.28867 0.0
H2858 H 0.00604 0.53019 0.28203 0.0
H2859 H 0.0144 0.51547 0.25187 0.0
H2860 H 0.01239 0.43599 0.20624 0.0
H2861 H 0.00483 0.46828 0.21123 0.0
C2862 C 0.02355 0.92893 0.257 0.0
C2863 C 0.00765 0.92749 0.26796 0.0
C2864 C 0.03157 0.94618 0.25373 0.0
C2865 C 0.03065 0.99549 0.26779 0.0
H2866 H 0.02943 0.00527 0.21528 0.0
C2867 C 0.00097 0.05536 0.22158 0.0
C2868 C 0.00825 0.07107 0.23017 0.0
C2869 C 0.00889 0.03812 0.22448 0.0
C2870 C 0.03019 0.00274 0.22997 0.0
H2871 H 0.98871 0.94254 0.28544 0.0
H2872 H 0.00277 0.97242 0.28003 0.0
H2873 H 0.02924 0.97353 0.22629 0.0
H2874 H 0.03026 0.0813 0.24755 0.0
H2875 H 0.04397 0.0509 0.25298 0.0
H2876 H 0.03016 0.02472 0.27149 0.0
C2877 C 0.00906 0.96039 0.27385 0.0
C2878 C 0.03022 0.98456 0.23629 0.0
C2879 C 0.0009 0.94327 0.27686 0.0
C2880 C 0.0244 0.0694 0.24073 0.0
C2881 C 0.03218 0.05203 0.2439 0.0
C2882 C 0.03074 0.01368 0.26147 0.0
C2883 C 0.024 0.96215 0.26167 0.0
C2884 C 0.02947 0.98078 0.25527 0.0
C2885 C 0.02414 0.03615 0.23625 0.0
C2886 C 0.02952 0.01746 0.24252 0.0
H2887 H 0.02899 0.91698 0.24993 0.0
H2888 H 0.04312 0.94715 0.24434 0.0
H2889 H 0.03026 0.99297 0.2825 0.0
H2890 H 0.98857 0.05627 0.21331 0.0
H2891 H 0.00223 0.02616 0.21855 0.0
C2892 C 0.2763 0.99572 0.55555 0.0
C2893 C 0.26741 0.98844 0.57111 0.0
C2894 C 0.27371 0.9878 0.53824 0.0
C2895 C 0.26891 0.96657 0.50272 0.0
H2896 H 0.21658 0.96561 0.49203 0.0
C2897 C 0.24324 0.97255 0.42839 0.0
C2898 C 0.23198 0.9882 0.42668 0.0
C2899 C 0.24629 0.96462 0.44572 0.0
C2900 C 0.23125 0.96548 0.49481 0.0
H2901 H 0.24982 0.96644 0.58099 0.0
H2902 H 0.24499 0.95273 0.55051 0.0
H2903 H 0.22701 0.96606 0.52397 0.0
H2904 H 0.21373 0.00673 0.4413 0.0
H2905 H 0.21876 0.99283 0.47133 0.0
H2906 H 0.27311 0.96744 0.47357 0.0
C2907 C 0.25403 0.96453 0.55179 0.0
C2908 C 0.23724 0.96559 0.51311 0.0
C2909 C 0.25687 0.97231 0.56922 0.0
C2910 C 0.22254 0.99473 0.44224 0.0
C2911 C 0.22534 0.98666 0.45944 0.0
C2912 C 0.26292 0.96636 0.48443 0.0
C2913 C 0.26198 0.97256 0.53605 0.0
C2914 C 0.2561 0.96711 0.51723 0.0
C2915 C 0.23784 0.97202 0.46152 0.0
C2916 C 0.244 0.96678 0.4803 0.0
H2917 H 0.28458 0.00808 0.5566 0.0
H2918 H 0.27988 0.99446 0.52639 0.0
H2919 H 0.28354 0.96753 0.50551 0.0
H2920 H 0.25074 0.96728 0.41661 0.0
H2921 H 0.25593 0.9533 0.44692 0.0
C2922 C 0.71998 0.50175 0.55796 0.0
C2923 C 0.72889 0.50912 0.57346 0.0
C2924 C 0.72246 0.50961 0.54062 0.0
C2925 C 0.72728 0.53054 0.5049 0.0
H2926 H 0.77965 0.53171 0.49444 0.0
C2927 C 0.7538 0.52482 0.43064 0.0
C2928 C 0.76524 0.5093 0.42898 0.0
C2929 C 0.75035 0.53254 0.448 0.0
C2930 C 0.76498 0.53177 0.49716 0.0
H2931 H 0.74634 0.53129 0.58322 0.0
H2932 H 0.75098 0.54492 0.55267 0.0
H2933 H 0.76908 0.53147 0.52633 0.0
H2934 H 0.7833 0.4907 0.44376 0.0
H2935 H 0.77759 0.50426 0.47384 0.0
H2936 H 0.72324 0.52943 0.47573 0.0
C2937 C 0.74201 0.53308 0.55402 0.0
C2938 C 0.7589 0.53178 0.51543 0.0
C2939 C 0.73928 0.52534 0.5715 0.0
C2940 C 0.77436 0.50261 0.44466 0.0
C2941 C 0.77117 0.51048 0.46189 0.0
C2942 C 0.73336 0.53064 0.48663 0.0
C2943 C 0.73411 0.5249 0.53833 0.0
C2944 C 0.74003 0.53021 0.51948 0.0
C2945 C 0.7586 0.52506 0.46387 0.0
C2946 C 0.75229 0.5303 0.4826 0.0
H2947 H 0.71181 0.48931 0.55909 0.0
H2948 H 0.71632 0.50285 0.52881 0.0
H2949 H 0.71264 0.52952 0.50763 0.0
H2950 H 0.74654 0.5302 0.41876 0.0
H2951 H 0.74065 0.54381 0.44913 0.0
C2952 C 0.27718 0.00106 0.94259 0.0
C2953 C 0.26818 0.00769 0.92681 0.0
C2954 C 0.27417 0.00925 0.9597 0.0
C2955 C 0.26827 0.03104 0.99472 0.0
H2956 H 0.21584 0.03023 0.00491 0.0
C2957 C 0.24197 0.02602 0.06896 0.0
C2958 C 0.23124 0.01003 0.071 0.0
C2959 C 0.24497 0.03353 0.05144 0.0
C2960 C 0.23051 0.03085 0.00226 0.0
H2961 H 0.24995 0.02887 0.9163 0.0
H2962 H 0.24439 0.04304 0.94645 0.0
H2963 H 0.2266 0.02951 0.97308 0.0
H2964 H 0.21386 0.99043 0.0567 0.0
H2965 H 0.21882 0.00361 0.02633 0.0
H2966 H 0.2722 0.03096 0.02393 0.0
C2967 C 0.25384 0.03155 0.94549 0.0
C2968 C 0.23669 0.03059 0.98402 0.0
C2969 C 0.2571 0.0235 0.92825 0.0
C2970 C 0.22227 0.0027 0.05551 0.0
C2971 C 0.22502 0.01035 0.03811 0.0
C2972 C 0.26209 0.03141 0.01296 0.0
C2973 C 0.2619 0.02412 0.96146 0.0
C2974 C 0.25564 0.02971 0.98011 0.0
C2975 C 0.237 0.02538 0.03577 0.0
C2976 C 0.24316 0.03036 0.01691 0.0
H2977 H 0.28586 0.98895 0.94187 0.0
H2978 H 0.28045 0.00305 0.97174 0.0
H2979 H 0.28295 0.03057 0.9921 0.0
H2980 H 0.24909 0.03192 0.08067 0.0
H2981 H 0.2542 0.04517 0.05003 0.0
C2982 C 0.75776 0.47618 0.0723 0.0
C2983 C 0.76897 0.49189 0.07385 0.0
C2984 C 0.75456 0.46819 0.05502 0.0
C2985 C 0.73762 0.46936 0.01644 0.0
H2986 H 0.77318 0.46937 0.97659 0.0
C2987 C 0.72311 0.49799 0.94528 0.0
C2988 C 0.7321 0.4909 0.92969 0.0
C2989 C 0.72593 0.49016 0.96258 0.0
C2990 C 0.76306 0.46882 0.98753 0.0
H2991 H 0.78696 0.51048 0.05897 0.0
H2992 H 0.78165 0.49649 0.02904 0.0
H2993 H 0.78389 0.46935 0.00843 0.0
H2994 H 0.7501 0.46926 0.91975 0.0
H2995 H 0.75532 0.45568 0.95024 0.0
H2996 H 0.71679 0.46998 0.99553 0.0
C2997 C 0.77522 0.49031 0.04101 0.0
C2998 C 0.76921 0.46896 0.00578 0.0
C2999 C 0.77818 0.49844 0.05816 0.0
C3000 C 0.74296 0.47498 0.93154 0.0
C3001 C 0.74603 0.46728 0.94898 0.0
C3002 C 0.73146 0.46931 0.99819 0.0
C3003 C 0.7628 0.47559 0.03911 0.0
C3004 C 0.75656 0.47016 0.0204 0.0
C3005 C 0.738 0.47518 0.96475 0.0
C3006 C 0.74413 0.46996 0.98356 0.0
H3007 H 0.75044 0.47088 0.08418 0.0
H3008 H 0.745 0.45679 0.05397 0.0
H3009 H 0.72751 0.47035 0.02737 0.0
H3010 H 0.7146 0.5102 0.94424 0.0
H3011 H 0.71969 0.49672 0.97444 0.0
C3012 C 0.44148 0.22207 0.99959 0.0
C3013 C 0.42585 0.23104 0.99258 0.0
C3014 C 0.45875 0.22496 0.99168 0.0
C3015 C 0.49417 0.23058 0.97042 0.0
H3016 H 0.5045 0.28296 0.97108 0.0
C3017 C 0.56842 0.25676 0.97622 0.0
C3018 C 0.5703 0.26756 0.99217 0.0
C3019 C 0.55097 0.25373 0.96852 0.0
C3020 C 0.50181 0.2683 0.9705 0.0
H3021 H 0.41577 0.24909 0.97104 0.0
H3022 H 0.44619 0.25445 0.95735 0.0
H3023 H 0.47263 0.2723 0.97135 0.0
H3024 H 0.5558 0.28502 0.01156 0.0
H3025 H 0.52558 0.28003 0.99806 0.0
H3026 H 0.52336 0.22657 0.97098 0.0
C3027 C 0.445 0.2451 0.96892 0.0
C3028 C 0.48356 0.26218 0.97051 0.0
C3029 C 0.4276 0.24196 0.97669 0.0
C3030 C 0.55474 0.27656 0.99931 0.0
C3031 C 0.53742 0.27379 0.99147 0.0
C3032 C 0.51242 0.2367 0.9703 0.0
C3033 C 0.46081 0.23708 0.97672 0.0
C3034 C 0.47957 0.24325 0.97142 0.0
C3035 C 0.53523 0.26175 0.97647 0.0
C3036 C 0.51642 0.25562 0.97129 0.0
H3037 H 0.44052 0.21353 0.01179 0.0
H3038 H 0.47065 0.21872 0.99815 0.0
H3039 H 0.49149 0.21591 0.97094 0.0
H3040 H 0.58019 0.24961 0.97047 0.0
H3041 H 0.54968 0.24445 0.95691 0.0
C3042 C 0.57176 0.74177 0.52384 0.0
C3043 C 0.57349 0.73082 0.50797 0.0
C3044 C 0.55439 0.7448 0.5317 0.0
C3045 C 0.51584 0.76178 0.5301 0.0
H3046 H 0.47598 0.72623 0.5296 0.0
C3047 C 0.44478 0.77636 0.50112 0.0
C3048 C 0.42912 0.76771 0.50845 0.0
C3049 C 0.46211 0.77336 0.50884 0.0
C3050 C 0.48694 0.73634 0.53028 0.0
H3051 H 0.55885 0.71308 0.48895 0.0
H3052 H 0.52876 0.7181 0.50274 0.0
H3053 H 0.50785 0.71552 0.52981 0.0
H3054 H 0.4191 0.75001 0.5303 0.0
H3055 H 0.44964 0.74441 0.54366 0.0
H3056 H 0.49494 0.78259 0.52936 0.0
C3057 C 0.54066 0.72445 0.50913 0.0
C3058 C 0.50519 0.73019 0.53026 0.0
C3059 C 0.5579 0.72166 0.50113 0.0
C3060 C 0.43095 0.75691 0.52442 0.0
C3061 C 0.44841 0.75363 0.53199 0.0
C3062 C 0.4976 0.76792 0.53001 0.0
C3063 C 0.53858 0.73665 0.52401 0.0
C3064 C 0.51981 0.74284 0.52927 0.0
C3065 C 0.46421 0.76142 0.52393 0.0
C3066 C 0.48298 0.75526 0.5292 0.0
H3067 H 0.58356 0.74904 0.52937 0.0
H3068 H 0.55319 0.7542 0.54323 0.0
H3069 H 0.52678 0.77189 0.52926 0.0
H3070 H 0.44376 0.78481 0.48885 0.0
H3071 H 0.474 0.77941 0.50217 0.0
C3072 C 0.07236 0.75717 0.47485 0.0
C3073 C 0.07404 0.76834 0.49058 0.0
C3074 C 0.055 0.75392 0.46705 0.0
C3075 C 0.01656 0.73671 0.46906 0.0
H3076 H 0.9765 0.77202 0.46904 0.0
C3077 C 0.94566 0.72233 0.49858 0.0
C3078 C 0.92998 0.73102 0.49134 0.0
C3079 C 0.96292 0.72512 0.49063 0.0
C3080 C 0.98751 0.76197 0.46851 0.0
H3081 H 0.05933 0.78625 0.50937 0.0
H3082 H 0.02925 0.78089 0.49567 0.0
H3083 H 0.00829 0.78292 0.46855 0.0
H3084 H 0.91984 0.74846 0.46932 0.0
H3085 H 0.95023 0.75365 0.45554 0.0
H3086 H 0.99579 0.71579 0.47023 0.0
C3087 C 0.04118 0.77452 0.48936 0.0
C3088 C 0.00572 0.76823 0.46836 0.0
C3089 C 0.05841 0.77751 0.4973 0.0
C3090 C 0.9317 0.74154 0.47517 0.0
C3091 C 0.94908 0.7446 0.46735 0.0
C3092 C 0.99836 0.73046 0.46932 0.0
C3093 C 0.03915 0.76208 0.47466 0.0
C3094 C 0.02042 0.75568 0.46954 0.0
C3095 C 0.96494 0.73688 0.47538 0.0
C3096 C 0.98366 0.74305 0.46994 0.0
H3097 H 0.08419 0.74987 0.46943 0.0
H3098 H 0.05384 0.74435 0.45567 0.0
H3099 H 0.02757 0.72669 0.47005 0.0
H3100 H 0.94473 0.71408 0.51099 0.0
H3101 H 0.97486 0.71912 0.49728 0.0
C3102 C 0.02385 0.42875 0.74217 0.0
C3103 C 0.00791 0.42711 0.7313 0.0
C3104 C 0.03161 0.44611 0.74549 0.0
C3105 C 0.0301 0.49536 0.73143 0.0
H3106 H 0.02907 0.50528 0.78391 0.0
C3107 C 0.02391 0.56935 0.75849 0.0
C3108 C 0.00782 0.57103 0.76913 0.0
C3109 C 0.03163 0.55196 0.75523 0.0
C3110 C 0.02977 0.50271 0.76923 0.0
H3111 H 0.98858 0.44195 0.71407 0.0
H3112 H 0.00221 0.47203 0.71955 0.0
H3113 H 0.02902 0.4735 0.773 0.0
H3114 H 0.98815 0.55622 0.786 0.0
H3115 H 0.00171 0.52609 0.78062 0.0
H3116 H 0.02944 0.52457 0.72765 0.0
C3117 C 0.00872 0.46006 0.72562 0.0
C3118 C 0.02988 0.48451 0.76297 0.0
C3119 C 0.00082 0.44284 0.72258 0.0
C3120 C 0.0005 0.55531 0.77767 0.0
C3121 C 0.00837 0.53805 0.77469 0.0
C3122 C 0.03011 0.51356 0.73769 0.0
C3123 C 0.02375 0.46199 0.73768 0.0
C3124 C 0.02907 0.48068 0.744 0.0
C3125 C 0.02359 0.53609 0.76289 0.0
C3126 C 0.02898 0.51739 0.75664 0.0
H3127 H 0.02956 0.41683 0.74911 0.0
H3128 H 0.04322 0.44721 0.7548 0.0
H3129 H 0.02965 0.49279 0.71674 0.0
H3130 H 0.0298 0.58126 0.7517 0.0
H3131 H 0.04339 0.55083 0.74612 0.0
C3132 C 0.98389 0.06918 0.74198 0.0
C3133 C 0.99973 0.07312 0.73154 0.0
C3134 C 0.97911 0.05086 0.74584 0.0
C3135 C 0.00402 0.0085 0.75328 0.0
H3136 H 0.95698 0.98319 0.75445 0.0
C3137 C 0.98164 0.92939 0.75916 0.0
C3138 C 0.99444 0.92439 0.77279 0.0
C3139 C 0.97748 0.94801 0.75615 0.0
C3140 C 0.97016 0.99018 0.75424 0.0
H3141 H 0.02167 0.06117 0.71519 0.0
H3142 H 0.01318 0.02942 0.72162 0.0
H3143 H 0.95878 0.01493 0.74248 0.0
H3144 H 0.0111 0.9344 0.79541 0.0
H3145 H 0.00333 0.96668 0.79067 0.0
H3146 H 0.01563 0.98411 0.76464 0.0
C3147 C 0.00474 0.04036 0.72723 0.0
C3148 C 0.97117 0.00827 0.74745 0.0
C3149 C 0.00957 0.05854 0.72352 0.0
C3150 C 0.00134 0.93795 0.78468 0.0
C3151 C 0.99697 0.95642 0.78189 0.0
C3152 C 0.003 0.99068 0.76015 0.0
C3153 C 0.99008 0.03635 0.7392 0.0
C3154 C 0.98822 0.01744 0.74666 0.0
C3155 C 0.98596 0.96174 0.76687 0.0
C3156 C 0.98612 0.98123 0.76068 0.0
H3157 H 0.97608 0.08019 0.74833 0.0
H3158 H 0.96773 0.04811 0.75509 0.0
H3159 H 0.0173 0.01532 0.75313 0.0
H3160 H 0.97623 0.91915 0.74975 0.0
H3161 H 0.96894 0.95169 0.74448 0.0
C3162 C 0.72199 0.00203 0.44382 0.0
C3163 C 0.73094 0.00911 0.42821 0.0
C3164 C 0.72485 0.00987 0.46111 0.0
C3165 C 0.76202 0.03124 0.48599 0.0
H3166 H 0.72654 0.02975 0.52589 0.0
C3167 C 0.75689 0.02407 0.57079 0.0
C3168 C 0.76812 0.00838 0.57236 0.0
C3169 C 0.75364 0.03201 0.55349 0.0
C3170 C 0.73663 0.03073 0.51494 0.0
H3171 H 0.74894 0.03072 0.41822 0.0
H3172 H 0.75423 0.04432 0.44869 0.0
H3173 H 0.71577 0.03006 0.49407 0.0
H3174 H 0.78611 0.98978 0.55749 0.0
H3175 H 0.78072 0.00368 0.52753 0.0
H3176 H 0.78289 0.03077 0.50685 0.0
C3177 C 0.74493 0.03273 0.44745 0.0
C3178 C 0.73045 0.03074 0.4967 0.0
C3179 C 0.74182 0.02502 0.43003 0.0
C3180 C 0.77731 0.00181 0.55667 0.0
C3181 C 0.7743 0.00988 0.5395 0.0
C3182 C 0.7682 0.03114 0.50423 0.0
C3183 C 0.73693 0.02484 0.46325 0.0
C3184 C 0.74309 0.03008 0.48205 0.0
C3185 C 0.76186 0.02458 0.53759 0.0
C3186 C 0.75558 0.02996 0.51887 0.0
H3187 H 0.71347 0.98982 0.44281 0.0
H3188 H 0.71862 0.00332 0.47299 0.0
H3189 H 0.77213 0.03068 0.47502 0.0
H3190 H 0.74959 0.02938 0.58267 0.0
H3191 H 0.74406 0.04339 0.55243 0.0
C3192 C 0.25751 0.47487 0.43054 0.0
C3193 C 0.26825 0.49088 0.42877 0.0
C3194 C 0.25452 0.46705 0.44793 0.0
C3195 C 0.26914 0.4688 0.49712 0.0
H3196 H 0.21673 0.46834 0.50746 0.0
C3197 C 0.22248 0.49686 0.55757 0.0
C3198 C 0.23167 0.49006 0.57316 0.0
C3199 C 0.22543 0.489 0.54029 0.0
C3200 C 0.23141 0.46808 0.50478 0.0
H3201 H 0.28561 0.51025 0.44341 0.0
H3202 H 0.28064 0.49655 0.47355 0.0
H3203 H 0.22738 0.46881 0.4756 0.0
H3204 H 0.25018 0.46889 0.58317 0.0
H3205 H 0.25564 0.45527 0.55273 0.0
H3206 H 0.27315 0.46949 0.5263 0.0
C3207 C 0.27444 0.49001 0.46165 0.0
C3208 C 0.23753 0.4682 0.48652 0.0
C3209 C 0.27719 0.49797 0.44439 0.0
C3210 C 0.24287 0.47437 0.57137 0.0
C3211 C 0.24607 0.46665 0.55396 0.0
C3212 C 0.26303 0.46857 0.51538 0.0
C3213 C 0.26249 0.47492 0.46374 0.0
C3214 C 0.25643 0.46952 0.48252 0.0
C3215 C 0.23784 0.4743 0.53817 0.0
C3216 C 0.24408 0.46917 0.51938 0.0
H3217 H 0.25041 0.46915 0.41873 0.0
H3218 H 0.24532 0.45537 0.44914 0.0
H3219 H 0.2838 0.4696 0.49444 0.0
H3220 H 0.21372 0.5089 0.55856 0.0
H3221 H 0.21901 0.49536 0.52841 0.0
C3222 C 0.75614 0.97541 0.92965 0.0
C3223 C 0.76735 0.99111 0.92805 0.0
C3224 C 0.75274 0.96762 0.94698 0.0
C3225 C 0.76711 0.96859 0.99624 0.0
H3226 H 0.71468 0.96981 0.00639 0.0
C3227 C 0.72108 0.99761 0.05678 0.0
C3228 C 0.72985 0.99026 0.07237 0.0
C3229 C 0.72395 0.9899 0.03943 0.0
C3230 C 0.72935 0.96907 0.00375 0.0
H3231 H 0.78508 0.00994 0.94294 0.0
H3232 H 0.77944 0.99627 0.97297 0.0
H3233 H 0.72546 0.97014 0.97456 0.0
H3234 H 0.74753 0.96834 0.08226 0.0
H3235 H 0.75287 0.95499 0.05167 0.0
H3236 H 0.77102 0.96893 0.02545 0.0
C3237 C 0.77316 0.98996 0.96099 0.0
C3238 C 0.73554 0.96912 0.98552 0.0
C3239 C 0.7763 0.9979 0.94379 0.0
C3240 C 0.74056 0.97425 0.07046 0.0
C3241 C 0.74369 0.96668 0.05297 0.0
C3242 C 0.76092 0.96843 0.01447 0.0
C3243 C 0.7608 0.97519 0.9629 0.0
C3244 C 0.75449 0.96983 0.9816 0.0
C3245 C 0.73585 0.9748 0.03722 0.0
C3246 C 0.742 0.96963 0.01841 0.0
H3247 H 0.74902 0.96993 0.91773 0.0
H3248 H 0.7432 0.95619 0.94805 0.0
H3249 H 0.7818 0.96894 0.99361 0.0
H3250 H 0.71269 0.0099 0.05787 0.0
H3251 H 0.71785 0.99663 0.02758 0.0
C3252 C 0.24016 0.52619 0.93122 0.0
C3253 C 0.22991 0.50993 0.929 0.0
C3254 C 0.24287 0.53365 0.94883 0.0
C3255 C 0.22793 0.53038 0.99781 0.0
H3256 H 0.2802 0.53194 0.00871 0.0
C3257 C 0.27477 0.50227 0.05815 0.0
C3258 C 0.26537 0.50861 0.07381 0.0
C3259 C 0.2717 0.51034 0.041 0.0
C3260 C 0.26554 0.53189 0.00588 0.0
H3261 H 0.21311 0.48967 0.94308 0.0
H3262 H 0.21755 0.50274 0.97357 0.0
H3263 H 0.26988 0.53192 0.97672 0.0
H3264 H 0.24629 0.52913 0.08409 0.0
H3265 H 0.2406 0.54309 0.05384 0.0
H3266 H 0.22365 0.52893 0.02694 0.0
C3267 C 0.2236 0.50976 0.96187 0.0
C3268 C 0.25961 0.53203 0.98756 0.0
C3269 C 0.22116 0.50216 0.9444 0.0
C3270 C 0.25376 0.52401 0.07223 0.0
C3271 C 0.25043 0.53193 0.05493 0.0
C3272 C 0.23385 0.53035 0.01614 0.0
C3273 C 0.23506 0.52516 0.96439 0.0
C3274 C 0.24079 0.53032 0.98334 0.0
C3275 C 0.25895 0.52478 0.03906 0.0
C3276 C 0.25276 0.53015 0.02032 0.0
H3277 H 0.24711 0.53243 0.91957 0.0
H3278 H 0.25171 0.54557 0.95037 0.0
H3279 H 0.21332 0.52925 0.99496 0.0
H3280 H 0.28385 0.49046 0.05899 0.0
H3281 H 0.27834 0.50436 0.02904 0.0
C3282 C 0.43035 0.7419 0.02399 0.0
C3283 C 0.42862 0.73103 0.00805 0.0
C3284 C 0.44775 0.74512 0.03171 0.0
C3285 C 0.49699 0.73084 0.03001 0.0
H3286 H 0.50707 0.78328 0.0298 0.0
C3287 C 0.5572 0.77734 0.00127 0.0
C3288 C 0.57282 0.76827 0.00817 0.0
C3289 C 0.53994 0.77447 0.00921 0.0
C3290 C 0.50446 0.7686 0.03025 0.0
H3291 H 0.44334 0.7137 0.98873 0.0
H3292 H 0.47349 0.71904 0.00228 0.0
H3293 H 0.47525 0.77247 0.0295 0.0
H3294 H 0.58291 0.7501 0.0296 0.0
H3295 H 0.55252 0.74478 0.04336 0.0
H3296 H 0.5262 0.72698 0.02935 0.0
C3297 C 0.46156 0.72518 0.00882 0.0
C3298 C 0.48623 0.76239 0.03023 0.0
C3299 C 0.44429 0.72221 0.00095 0.0
C3300 C 0.57109 0.75731 0.02403 0.0
C3301 C 0.55371 0.75419 0.03184 0.0
C3302 C 0.51522 0.73705 0.03015 0.0
C3303 C 0.4636 0.73723 0.02383 0.0
C3304 C 0.48234 0.74346 0.02915 0.0
C3305 C 0.53788 0.76226 0.02409 0.0
C3306 C 0.51912 0.756 0.02931 0.0
H3307 H 0.4185 0.74892 0.02971 0.0
H3308 H 0.44892 0.75441 0.04333 0.0
H3309 H 0.49439 0.71617 0.02938 0.0
H3310 H 0.55815 0.78593 0.9891 0.0
H3311 H 0.52804 0.78076 0.00278 0.0
C3312 C 0.42925 0.25691 0.47654 0.0
C3313 C 0.4275 0.26731 0.49277 0.0
C3314 C 0.44665 0.25398 0.4687 0.0
C3315 C 0.49575 0.26866 0.47053 0.0
H3316 H 0.50642 0.21635 0.4695 0.0
C3317 C 0.55648 0.2223 0.49815 0.0
C3318 C 0.57203 0.23153 0.4913 0.0
C3319 C 0.53918 0.22519 0.49033 0.0
C3320 C 0.50364 0.23101 0.46938 0.0
H3321 H 0.44219 0.28411 0.5126 0.0
H3322 H 0.47234 0.27931 0.49883 0.0
H3323 H 0.47448 0.22679 0.47016 0.0
H3324 H 0.58193 0.25009 0.47013 0.0
H3325 H 0.55142 0.25549 0.4566 0.0
H3326 H 0.52491 0.27284 0.47117 0.0
C3327 C 0.46042 0.2733 0.49215 0.0
C3328 C 0.48534 0.237 0.46962 0.0
C3329 C 0.44316 0.27595 0.50013 0.0
C3330 C 0.57016 0.24275 0.47563 0.0
C3331 C 0.55272 0.24591 0.46797 0.0
C3332 C 0.51404 0.26267 0.47017 0.0
C3333 C 0.46247 0.26174 0.47676 0.0
C3334 C 0.48124 0.25586 0.47116 0.0
C3335 C 0.53699 0.2376 0.47564 0.0
C3336 C 0.51816 0.24376 0.47056 0.0
H3337 H 0.4174 0.25004 0.47062 0.0
H3338 H 0.44784 0.24505 0.45681 0.0
H3339 H 0.49297 0.28328 0.47153 0.0
H3340 H 0.55755 0.21352 0.51018 0.0
H3341 H 0.52734 0.21872 0.49671 0.0
C3342 C 0.94276 0.22177 0.50012 0.0
C3343 C 0.92728 0.23081 0.50737 0.0
C3344 C 0.96013 0.22444 0.50787 0.0
C3345 C 0.98539 0.26141 0.52878 0.0
H3346 H 0.02502 0.22561 0.52786 0.0
C3347 C 0.07018 0.25597 0.52241 0.0
C3348 C 0.07194 0.26658 0.50631 0.0
C3349 C 0.05276 0.25289 0.53016 0.0
C3350 C 0.01413 0.23578 0.52866 0.0
H3351 H 0.91758 0.24875 0.52917 0.0
H3352 H 0.94819 0.25376 0.54256 0.0
H3353 H 0.99308 0.2151 0.52831 0.0
H3354 H 0.05728 0.2836 0.48667 0.0
H3355 H 0.0271 0.27857 0.50031 0.0
H3356 H 0.00643 0.28208 0.52786 0.0
C3357 C 0.94679 0.24451 0.53094 0.0
C3358 C 0.99585 0.22975 0.52878 0.0
C3359 C 0.92928 0.24156 0.52335 0.0
C3360 C 0.0563 0.27529 0.49903 0.0
C3361 C 0.03902 0.27251 0.50694 0.0
C3362 C 0.00367 0.26744 0.52852 0.0
C3363 C 0.96245 0.23644 0.52289 0.0
C3364 C 0.9813 0.2425 0.52796 0.0
C3365 C 0.03695 0.26071 0.52215 0.0
C3366 C 0.0182 0.25468 0.52758 0.0
H3367 H 0.94159 0.21334 0.48786 0.0
H3368 H 0.97192 0.21817 0.50121 0.0
H3369 H 0.9745 0.27158 0.52806 0.0
H3370 H 0.08202 0.24903 0.52826 0.0
H3371 H 0.05155 0.24378 0.54192 0.0
C3372 C 0.50134 0.0604 0.7838 0.0
C3373 C 0.49375 0.07443 0.77289 0.0
C3374 C 0.49653 0.04208 0.78075 0.0
C3375 C 0.50054 0.00896 0.75678 0.0
H3376 H 0.45465 0.98458 0.74429 0.0
C3377 C 0.50349 0.94124 0.71974 0.0
C3378 C 0.49527 0.92668 0.72944 0.0
C3379 C 0.49857 0.95939 0.72349 0.0
C3380 C 0.46752 0.9913 0.74775 0.0
H3381 H 0.47378 0.08059 0.75158 0.0
H3382 H 0.46561 0.04833 0.74595 0.0
H3383 H 0.45412 0.01611 0.75698 0.0
H3384 H 0.47414 0.91952 0.74928 0.0
H3385 H 0.46567 0.95152 0.75607 0.0
H3386 H 0.51405 0.9846 0.74753 0.0
C3387 C 0.47513 0.05155 0.75698 0.0
C3388 C 0.46722 0.00926 0.75497 0.0
C3389 C 0.4798 0.07001 0.7602 0.0
C3390 C 0.48068 0.93051 0.7416 0.0
C3391 C 0.47583 0.9488 0.74548 0.0
C3392 C 0.50084 0.9913 0.74942 0.0
C3393 C 0.48427 0.0374 0.76653 0.0
C3394 C 0.48379 0.01818 0.75964 0.0
C3395 C 0.48547 0.96338 0.73716 0.0
C3396 C 0.4844 0.9823 0.74471 0.0
H3397 H 0.51197 0.06348 0.79382 0.0
H3398 H 0.50349 0.03146 0.78859 0.0
H3399 H 0.51356 0.01556 0.75989 0.0
H3400 H 0.51461 0.93867 0.71012 0.0
H3401 H 0.50596 0.97039 0.71662 0.0
C3402 C 0.52533 0.57073 0.74251 0.0
C3403 C 0.50949 0.57217 0.73147 0.0
C3404 C 0.53342 0.5535 0.7457 0.0
C3405 C 0.5326 0.50421 0.73142 0.0
H3406 H 0.53102 0.49431 0.7839 0.0
C3407 C 0.50194 0.44463 0.77726 0.0
C3408 C 0.50896 0.42887 0.76855 0.0
C3409 C 0.51017 0.46175 0.77452 0.0
C3410 C 0.53188 0.49687 0.76922 0.0
H3411 H 0.49075 0.55717 0.71374 0.0
H3412 H 0.50491 0.52732 0.71902 0.0
H3413 H 0.53108 0.52607 0.77298 0.0
H3414 H 0.53085 0.4184 0.75115 0.0
H3415 H 0.54511 0.44858 0.74602 0.0
H3416 H 0.53191 0.47501 0.72764 0.0
C3417 C 0.51112 0.53933 0.72532 0.0
C3418 C 0.53206 0.51507 0.76295 0.0
C3419 C 0.50289 0.55643 0.72239 0.0
C3420 C 0.52517 0.43034 0.75806 0.0
C3421 C 0.53328 0.44759 0.75506 0.0
C3422 C 0.53252 0.48601 0.73769 0.0
C3423 C 0.52598 0.53754 0.73761 0.0
C3424 C 0.53141 0.5189 0.74398 0.0
C3425 C 0.52548 0.46355 0.7628 0.0
C3426 C 0.53114 0.48219 0.75663 0.0
H3427 H 0.53066 0.58265 0.74972 0.0
H3428 H 0.54491 0.55251 0.75517 0.0
H3429 H 0.53231 0.50677 0.71672 0.0
H3430 H 0.4895 0.44388 0.78549 0.0
H3431 H 0.50369 0.47377 0.78053 0.0
C3432 C 0.05489 0.22545 0.00592 0.0
C3433 C 0.07046 0.23475 0.01262 0.0
C3434 C 0.03763 0.22837 0.01382 0.0
C3435 C 0.00214 0.23444 0.03473 0.0
H3436 H 0.99163 0.28673 0.03225 0.0
C3437 C 0.92794 0.25996 0.02642 0.0
C3438 C 0.9264 0.27029 0.01011 0.0
C3439 C 0.9452 0.2573 0.03465 0.0
C3440 C 0.99436 0.2721 0.03334 0.0
H3441 H 0.08047 0.25344 0.03362 0.0
H3442 H 0.05004 0.25889 0.04729 0.0
H3443 H 0.02353 0.2762 0.03277 0.0
H3444 H 0.94127 0.28734 0.99064 0.0
H3445 H 0.97117 0.28296 0.00504 0.0
H3446 H 0.97298 0.23029 0.03384 0.0
C3447 C 0.05128 0.24924 0.03599 0.0
C3448 C 0.01263 0.26606 0.0338 0.0
C3449 C 0.06868 0.24604 0.02824 0.0
C3450 C 0.94207 0.27923 0.00314 0.0
C3451 C 0.9592 0.27681 0.0115 0.0
C3452 C 0.98386 0.24048 0.03438 0.0
C3453 C 0.0355 0.24089 0.02844 0.0
C3454 C 0.0167 0.24713 0.03351 0.0
C3455 C 0.9611 0.26521 0.02688 0.0
C3456 C 0.97981 0.25934 0.03269 0.0
H3457 H 0.05589 0.21662 0.99393 0.0
H3458 H 0.02576 0.22187 0.00754 0.0
H3459 H 0.00488 0.21977 0.0347 0.0
H3460 H 0.91608 0.25288 0.03206 0.0
H3461 H 0.94626 0.24836 0.04655 0.0
C3462 C 0.50182 0.05678 0.27781 0.0
C3463 C 0.50872 0.07248 0.26889 0.0
C3464 C 0.50992 0.03961 0.27497 0.0
C3465 C 0.53141 0.0044 0.26943 0.0
H3466 H 0.53089 0.99416 0.21701 0.0
C3467 C 0.52452 0.93034 0.24322 0.0
C3468 C 0.50852 0.92881 0.23242 0.0
C3469 C 0.53258 0.94762 0.24623 0.0
C3470 C 0.53145 0.99682 0.23168 0.0
H3471 H 0.53025 0.08278 0.25095 0.0
H3472 H 0.54427 0.05252 0.24564 0.0
H3473 H 0.5307 0.02599 0.22772 0.0
H3474 H 0.48945 0.94368 0.21493 0.0
H3475 H 0.50359 0.9736 0.2199 0.0
H3476 H 0.53068 0.97522 0.2734 0.0
C3477 C 0.53264 0.05359 0.25493 0.0
C3478 C 0.53148 0.01505 0.23783 0.0
C3479 C 0.52468 0.07089 0.25804 0.0
C3480 C 0.50172 0.94449 0.2234 0.0
C3481 C 0.50992 0.96163 0.22615 0.0
C3482 C 0.53148 0.98616 0.26328 0.0
C3483 C 0.52497 0.0377 0.26293 0.0
C3484 C 0.53046 0.019 0.25676 0.0
C3485 C 0.52497 0.96351 0.23819 0.0
C3486 C 0.53049 0.98221 0.24435 0.0
H3487 H 0.48958 0.05762 0.28632 0.0
H3488 H 0.50353 0.02764 0.28118 0.0
H3489 H 0.53083 0.00705 0.28411 0.0
H3490 H 0.53001 0.91846 0.25038 0.0
H3491 H 0.54422 0.94867 0.25552 0.0
C3492 C 0.5009 0.44076 0.28304 0.0
C3493 C 0.49279 0.42654 0.27277 0.0
C3494 C 0.4963 0.45906 0.27959 0.0
C3495 C 0.4666 0.49173 0.2543 0.0
H3496 H 0.51344 0.51562 0.24473 0.0
C3497 C 0.50255 0.55969 0.21836 0.0
C3498 C 0.49462 0.57416 0.22842 0.0
C3499 C 0.49758 0.54152 0.22195 0.0
C3500 C 0.50022 0.50913 0.24717 0.0
H3501 H 0.47216 0.42008 0.25219 0.0
H3502 H 0.46432 0.45233 0.24585 0.0
H3503 H 0.513 0.48472 0.25722 0.0
H3504 H 0.47394 0.58118 0.24878 0.0
H3505 H 0.46543 0.54916 0.25533 0.0
H3506 H 0.45395 0.51657 0.24412 0.0
C3507 C 0.4741 0.44925 0.2567 0.0
C3508 C 0.49997 0.4915 0.2546 0.0
C3509 C 0.47858 0.43082 0.26032 0.0
C3510 C 0.48025 0.57026 0.24081 0.0
C3511 C 0.47537 0.55195 0.24456 0.0
C3512 C 0.46686 0.50965 0.24699 0.0
C3513 C 0.4837 0.46352 0.2656 0.0
C3514 C 0.48321 0.48259 0.25831 0.0
C3515 C 0.48475 0.53742 0.23585 0.0
C3516 C 0.48373 0.51841 0.24321 0.0
H3517 H 0.51174 0.43781 0.29288 0.0
H3518 H 0.50363 0.46979 0.28693 0.0
H3519 H 0.4535 0.4851 0.25696 0.0
H3520 H 0.51349 0.56234 0.20856 0.0
H3521 H 0.50474 0.53058 0.21476 0.0
C3522 C 0.07156 0.74205 0.97386 0.0
C3523 C 0.07336 0.73125 0.98983 0.0
C3524 C 0.05414 0.74513 0.96613 0.0
C3525 C 0.00493 0.7307 0.96801 0.0
H3526 H 0.99474 0.78311 0.96869 0.0
C3527 C 0.94481 0.77698 0.99746 0.0
C3528 C 0.92913 0.76806 0.99048 0.0
C3529 C 0.96204 0.77407 0.98948 0.0
C3530 C 0.99738 0.76844 0.9681 0.0
H3531 H 0.05877 0.71384 0.00918 0.0
H3532 H 0.02859 0.71889 0.9956 0.0
H3533 H 0.02658 0.77237 0.96862 0.0
H3534 H 0.91895 0.75009 0.96893 0.0
H3535 H 0.9493 0.7447 0.95512 0.0
H3536 H 0.97574 0.72677 0.96891 0.0
C3537 C 0.04047 0.7251 0.98904 0.0
C3538 C 0.01562 0.76227 0.96791 0.0
C3539 C 0.05776 0.72229 0.99692 0.0
C3540 C 0.93081 0.75717 0.97456 0.0
C3541 C 0.94817 0.75402 0.96672 0.0
C3542 C 0.98669 0.73687 0.96808 0.0
C3543 C 0.03835 0.73715 0.97403 0.0
C3544 C 0.01957 0.74334 0.96883 0.0
C3545 C 0.96403 0.76199 0.97449 0.0
C3546 C 0.98276 0.75579 0.96909 0.0
H3547 H 0.08337 0.74917 0.96816 0.0
H3548 H 0.0529 0.75441 0.95451 0.0
H3549 H 0.00758 0.71603 0.96853 0.0
H3550 H 0.94391 0.78551 0.00967 0.0
H3551 H 0.97399 0.78028 0.99593 0.0
loop_
_geom_bond_atom_site_label_1
_geom_bond_atom_site_label_2
_geom_bond_distance
_geom_bond_site_symmetry_2
_ccdc_geom_bond_type
O0 Cd1 2.223 . S
O0 C8 1.315 . S
Cd1 O0 2.223 . S
Cd1 O4 2.297 . S
Cd1 O5 2.439 . S
Cd1 O11 2.240 . S
Cd2 O3 2.240 . S
Cd2 O10 2.223 . S
Cd2 O12 2.297 . S
Cd2 O13 2.439 . S
O3 Cd2 2.240 . S
O3 C8 1.279 . S
O4 Cd1 2.297 . S
O4 C6 1.247 . S
O5 Cd1 2.439 . S
O5 C6 1.208 . S
C6 O4 1.247 . S
C6 O5 1.208 . S
C7 O12 1.247 . S
C7 O13 1.208 . S
C8 O0 1.315 . S
C8 O3 1.279 . S
C9 O10 1.315 . S
C9 O11 1.279 . S
O10 Cd2 2.223 . S
O10 C9 1.315 . S
O11 Cd1 2.240 . S
O11 C9 1.279 . S
O12 Cd2 2.297 . S
O12 C7 1.247 . S
O13 Cd2 2.439 . S
O13 C7 1.208 . S
O14 Cd15 2.223 . S
O14 C22 1.315 . S
Cd15 O14 2.223 . S
Cd15 O18 2.297 . S
Cd15 O19 2.439 . S
Cd15 O25 2.240 . S
Cd16 O17 2.240 . S
Cd16 O24 2.223 . S
Cd16 O26 2.297 . S
Cd16 O27 2.439 . S
O17 Cd16 2.240 . S
O17 C22 1.279 . S
O18 Cd15 2.297 . S
O18 C20 1.247 . S
O19 Cd15 2.439 . S
O19 C20 1.208 . S
C20 O18 1.247 . S
C20 O19 1.208 . S
C21 O26 1.247 . S
C21 O27 1.208 . S
C22 O14 1.315 . S
C22 O17 1.279 . S
C23 O24 1.315 . S
C23 O25 1.279 . S
O24 Cd16 2.223 . S
O24 C23 1.315 . S
O25 Cd15 2.240 . S
O25 C23 1.279 . S
O26 Cd16 2.297 . S
O26 C21 1.247 . S
O27 Cd16 2.439 . S
O27 C21 1.208 . S
O28 Cd29 2.223 . S
O28 C36 1.315 . S
Cd29 O28 2.223 . S
Cd29 O32 2.297 . S
Cd29 O33 2.439 . S
Cd29 O39 2.240 . S
Cd30 O31 2.240 . S
Cd30 O38 2.223 . S
Cd30 O40 2.297 . S
Cd30 O41 2.439 . S
O31 Cd30 2.240 . S
O31 C36 1.279 . S
O32 Cd29 2.297 . S
O32 C34 1.247 . S
O33 Cd29 2.439 . S
O33 C34 1.208 . S
C34 O32 1.247 . S
C34 O33 1.208 . S
C35 O40 1.247 . S
C35 O41 1.208 . S
C36 O28 1.315 . S
C36 O31 1.279 . S
C37 O38 1.315 . S
C37 O39 1.279 . S
O38 Cd30 2.223 . S
O38 C37 1.315 . S
O39 Cd29 2.240 . S
O39 C37 1.279 . S
O40 Cd30 2.297 . S
O40 C35 1.247 . S
O41 Cd30 2.439 . S
O41 C35 1.208 . S
O42 Cd43 2.223 . S
O42 C50 1.315 . S
Cd43 O42 2.223 . S
Cd43 O46 2.297 . S
Cd43 O47 2.439 . S
Cd43 O53 2.240 . S
Cd44 O45 2.240 . S
Cd44 O52 2.223 . S
Cd44 O54 2.297 . S
Cd44 O55 2.439 . S
O45 Cd44 2.240 . S
O45 C50 1.279 . S
O46 Cd43 2.297 . S
O46 C48 1.247 . S
O47 Cd43 2.439 . S
O47 C48 1.208 . S
C48 O46 1.247 . S
C48 O47 1.208 . S
C49 O54 1.247 . S
C49 O55 1.208 . S
C50 O42 1.315 . S
C50 O45 1.279 . S
C51 O52 1.315 . S
C51 O53 1.279 . S
O52 Cd44 2.223 . S
O52 C51 1.315 . S
O53 Cd43 2.240 . S
O53 C51 1.279 . S
O54 Cd44 2.297 . S
O54 C49 1.247 . S
O55 Cd44 2.439 . S
O55 C49 1.208 . S
O56 Cd57 2.223 . S
O56 C64 1.315 . S
Cd57 O56 2.223 . S
Cd57 O60 2.297 . S
Cd57 O61 2.439 . S
Cd57 O67 2.240 . S
Cd58 O59 2.240 . S
Cd58 O66 2.223 . S
Cd58 O68 2.297 . S
Cd58 O69 2.439 . S
O59 Cd58 2.240 . S
O59 C64 1.279 . S
O60 Cd57 2.297 . S
O60 C62 1.247 . S
O61 Cd57 2.439 . S
O61 C62 1.208 . S
C62 O60 1.247 . S
C62 O61 1.208 . S
C63 O68 1.247 . S
C63 O69 1.208 . S
C64 O56 1.315 . S
C64 O59 1.279 . S
C65 O66 1.315 . S
C65 O67 1.279 . S
O66 Cd58 2.223 . S
O66 C65 1.315 . S
O67 Cd57 2.240 . S
O67 C65 1.279 . S
O68 Cd58 2.297 . S
O68 C63 1.247 . S
O69 Cd58 2.439 . S
O69 C63 1.208 . S
O70 Cd71 2.223 . S
O70 C78 1.315 . S
Cd71 O70 2.223 . S
Cd71 O74 2.297 . S
Cd71 O75 2.439 . S
Cd71 O81 2.240 . S
Cd72 O73 2.240 . S
Cd72 O80 2.223 . S
Cd72 O82 2.297 . S
Cd72 O83 2.439 . S
O73 Cd72 2.240 . S
O73 C78 1.279 . S
O74 Cd71 2.297 . S
O74 C76 1.247 . S
O75 Cd71 2.439 . S
O75 C76 1.208 . S
C76 O74 1.247 . S
C76 O75 1.208 . S
C77 O82 1.247 . S
C77 O83 1.208 . S
C78 O70 1.315 . S
C78 O73 1.279 . S
C79 O80 1.315 . S
C79 O81 1.279 . S
O80 Cd72 2.223 . S
O80 C79 1.315 . S
O81 Cd71 2.240 . S
O81 C79 1.279 . S
O82 Cd72 2.297 . S
O82 C77 1.247 . S
O83 Cd72 2.439 . S
O83 C77 1.208 . S
O84 Cd85 2.223 . S
O84 C92 1.315 . S
Cd85 O84 2.223 . S
Cd85 O88 2.297 . S
Cd85 O89 2.439 . S
Cd85 O95 2.240 . S
Cd86 O87 2.240 . S
Cd86 O94 2.223 . S
Cd86 O96 2.297 . S
Cd86 O97 2.439 . S
O87 Cd86 2.240 . S
O87 C92 1.279 . S
O88 Cd85 2.297 . S
O88 C90 1.247 . S
O89 Cd85 2.439 . S
O89 C90 1.208 . S
C90 O88 1.247 . S
C90 O89 1.208 . S
C91 O96 1.247 . S
C91 O97 1.208 . S
C92 O84 1.315 . S
C92 O87 1.279 . S
C93 O94 1.315 . S
C93 O95 1.279 . S
O94 Cd86 2.223 . S
O94 C93 1.315 . S
O95 Cd85 2.240 . S
O95 C93 1.279 . S
O96 Cd86 2.297 . S
O96 C91 1.247 . S
O97 Cd86 2.439 . S
O97 C91 1.208 . S
O98 Cd99 2.223 . S
O98 C106 1.315 . S
Cd99 O98 2.223 . S
Cd99 O102 2.297 . S
Cd99 O103 2.439 . S
Cd99 O109 2.240 . S
Cd100 O101 2.240 . S
Cd100 O108 2.223 . S
Cd100 O110 2.297 . S
Cd100 O111 2.439 . S
O101 Cd100 2.240 . S
O101 C106 1.279 . S
O102 Cd99 2.297 . S
O102 C104 1.247 . S
O103 Cd99 2.439 . S
O103 C104 1.208 . S
C104 O102 1.247 . S
C104 O103 1.208 . S
C105 O110 1.247 . S
C105 O111 1.208 . S
C106 O98 1.315 . S
C106 O101 1.279 . S
C107 O108 1.315 . S
C107 O109 1.279 . S
O108 Cd100 2.223 . S
O108 C107 1.315 . S
O109 Cd99 2.240 . S
O109 C107 1.279 . S
O110 Cd100 2.297 . S
O110 C105 1.247 . S
O111 Cd100 2.439 . S
O111 C105 1.208 . S
O112 Cd113 2.223 . S
O112 C120 1.315 . S
Cd113 O112 2.223 . S
Cd113 O116 2.297 . S
Cd113 O117 2.439 . S
Cd113 O123 2.240 . S
Cd114 O115 2.240 . S
Cd114 O122 2.223 . S
Cd114 O124 2.297 . S
Cd114 O125 2.439 . S
O115 Cd114 2.240 . S
O115 C120 1.279 . S
O116 Cd113 2.297 . S
O116 C118 1.247 . S
O117 Cd113 2.439 . S
O117 C118 1.208 . S
C118 O116 1.247 . S
C118 O117 1.208 . S
C119 O124 1.247 . S
C119 O125 1.208 . S
C120 O112 1.315 . S
C120 O115 1.279 . S
C121 O122 1.315 . S
C121 O123 1.279 . S
O122 Cd114 2.223 . S
O122 C121 1.315 . S
O123 Cd113 2.240 . S
O123 C121 1.279 . S
O124 Cd114 2.297 . S
O124 C119 1.247 . S
O125 Cd114 2.439 . S
O125 C119 1.208 . S
O126 Cd127 2.223 . S
O126 C134 1.315 . S
Cd127 O126 2.223 . S
Cd127 O130 2.297 . S
Cd127 O131 2.439 . S
Cd127 O137 2.240 . S
Cd128 O129 2.240 . S
Cd128 O136 2.223 . S
Cd128 O138 2.297 . S
Cd128 O139 2.439 . S
O129 Cd128 2.240 . S
O129 C134 1.279 . S
O130 Cd127 2.297 . S
O130 C132 1.247 . S
O131 Cd127 2.439 . S
O131 C132 1.208 . S
C132 O130 1.247 . S
C132 O131 1.208 . S
C133 O138 1.247 . S
C133 O139 1.208 . S
C134 O126 1.315 . S
C134 O129 1.279 . S
C135 O136 1.315 . S
C135 O137 1.279 . S
O136 Cd128 2.223 . S
O136 C135 1.315 . S
O137 Cd127 2.240 . S
O137 C135 1.279 . S
O138 Cd128 2.297 . S
O138 C133 1.247 . S
O139 Cd128 2.439 . S
O139 C133 1.208 . S
O140 Cd141 2.223 . S
O140 C148 1.315 . S
Cd141 O140 2.223 . S
Cd141 O144 2.297 . S
Cd141 O145 2.439 . S
Cd141 O151 2.240 . S
Cd142 O143 2.240 . S
Cd142 O150 2.223 . S
Cd142 O152 2.297 . S
Cd142 O153 2.439 . S
O143 Cd142 2.240 . S
O143 C148 1.279 . S
O144 Cd141 2.297 . S
O144 C146 1.247 . S
O145 Cd141 2.439 . S
O145 C146 1.208 . S
C146 O144 1.247 . S
C146 O145 1.208 . S
C147 O152 1.247 . S
C147 O153 1.208 . S
C148 O140 1.315 . S
C148 O143 1.279 . S
C149 O150 1.315 . S
C149 O151 1.279 . S
O150 Cd142 2.223 . S
O150 C149 1.315 . S
O151 Cd141 2.240 . S
O151 C149 1.279 . S
O152 Cd142 2.297 . S
O152 C147 1.247 . S
O153 Cd142 2.439 . S
O153 C147 1.208 . S
O154 Cd155 2.223 . S
O154 C162 1.315 . S
Cd155 O154 2.223 . S
Cd155 O158 2.297 . S
Cd155 O159 2.439 . S
Cd155 O165 2.240 . S
Cd156 O157 2.240 . S
Cd156 O164 2.223 . S
Cd156 O166 2.297 . S
Cd156 O167 2.439 . S
O157 Cd156 2.240 . S
O157 C162 1.279 . S
O158 Cd155 2.297 . S
O158 C160 1.247 . S
O159 Cd155 2.439 . S
O159 C160 1.208 . S
C160 O158 1.247 . S
C160 O159 1.208 . S
C161 O166 1.247 . S
C161 O167 1.208 . S
C162 O154 1.315 . S
C162 O157 1.279 . S
C163 O164 1.315 . S
C163 O165 1.279 . S
O164 Cd156 2.223 . S
O164 C163 1.315 . S
O165 Cd155 2.240 . S
O165 C163 1.279 . S
O166 Cd156 2.297 . S
O166 C161 1.247 . S
O167 Cd156 2.439 . S
O167 C161 1.208 . S
O168 Cd169 2.223 . S
O168 C176 1.315 . S
Cd169 O168 2.223 . S
Cd169 O172 2.297 . S
Cd169 O173 2.439 . S
Cd169 O179 2.240 . S
Cd170 O171 2.240 . S
Cd170 O178 2.223 . S
Cd170 O180 2.297 . S
Cd170 O181 2.439 . S
O171 Cd170 2.240 . S
O171 C176 1.279 . S
O172 Cd169 2.297 . S
O172 C174 1.247 . S
O173 Cd169 2.439 . S
O173 C174 1.208 . S
C174 O172 1.247 . S
C174 O173 1.208 . S
C175 O180 1.247 . S
C175 O181 1.208 . S
C176 O168 1.315 . S
C176 O171 1.279 . S
C177 O178 1.315 . S
C177 O179 1.279 . S
O178 Cd170 2.223 . S
O178 C177 1.315 . S
O179 Cd169 2.240 . S
O179 C177 1.279 . S
O180 Cd170 2.297 . S
O180 C175 1.247 . S
O181 Cd170 2.439 . S
O181 C175 1.208 . S
O182 Cd183 2.223 . S
O182 C190 1.315 . S
Cd183 O182 2.223 . S
Cd183 O186 2.297 . S
Cd183 O187 2.439 . S
Cd183 O193 2.240 . S
Cd184 O185 2.240 . S
Cd184 O192 2.223 . S
Cd184 O194 2.297 . S
Cd184 O195 2.439 . S
O185 Cd184 2.240 . S
O185 C190 1.279 . S
O186 Cd183 2.297 . S
O186 C188 1.247 . S
O187 Cd183 2.439 . S
O187 C188 1.208 . S
C188 O186 1.247 . S
C188 O187 1.208 . S
C189 O194 1.247 . S
C189 O195 1.208 . S
C190 O182 1.315 . S
C190 O185 1.279 . S
C191 O192 1.315 . S
C191 O193 1.279 . S
O192 Cd184 2.223 . S
O192 C191 1.315 . S
O193 Cd183 2.240 . S
O193 C191 1.279 . S
O194 Cd184 2.297 . S
O194 C189 1.247 . S
O195 Cd184 2.439 . S
O195 C189 1.208 . S
O196 Cd197 2.223 . S
O196 C204 1.315 . S
Cd197 O196 2.223 . S
Cd197 O200 2.297 . S
Cd197 O201 2.439 . S
Cd197 O207 2.240 . S
Cd198 O199 2.240 . S
Cd198 O206 2.223 . S
Cd198 O208 2.297 . S
Cd198 O209 2.439 . S
O199 Cd198 2.240 . S
O199 C204 1.279 . S
O200 Cd197 2.297 . S
O200 C202 1.247 . S
O201 Cd197 2.439 . S
O201 C202 1.208 . S
C202 O200 1.247 . S
C202 O201 1.208 . S
C203 O208 1.247 . S
C203 O209 1.208 . S
C204 O196 1.315 . S
C204 O199 1.279 . S
C205 O206 1.315 . S
C205 O207 1.279 . S
O206 Cd198 2.223 . S
O206 C205 1.315 . S
O207 Cd197 2.240 . S
O207 C205 1.279 . S
O208 Cd198 2.297 . S
O208 C203 1.247 . S
O209 Cd198 2.439 . S
O209 C203 1.208 . S
O210 Cd211 2.223 . S
O210 C218 1.315 . S
Cd211 O210 2.223 . S
Cd211 O214 2.297 . S
Cd211 O215 2.439 . S
Cd211 O221 2.240 . S
Cd212 O213 2.240 . S
Cd212 O220 2.223 . S
Cd212 O222 2.297 . S
Cd212 O223 2.439 . S
O213 Cd212 2.240 . S
O213 C218 1.279 . S
O214 Cd211 2.297 . S
O214 C216 1.247 . S
O215 Cd211 2.439 . S
O215 C216 1.208 . S
C216 O214 1.247 . S
C216 O215 1.208 . S
C217 O222 1.247 . S
C217 O223 1.208 . S
C218 O210 1.315 . S
C218 O213 1.279 . S
C219 O220 1.315 . S
C219 O221 1.279 . S
O220 Cd212 2.223 . S
O220 C219 1.315 . S
O221 Cd211 2.240 . S
O221 C219 1.279 . S
O222 Cd212 2.297 . S
O222 C217 1.247 . S
O223 Cd212 2.439 . S
O223 C217 1.208 . S
O224 Cd225 2.223 . S
O224 C232 1.315 . S
Cd225 O224 2.223 . S
Cd225 O228 2.297 . S
Cd225 O229 2.439 . S
Cd225 O235 2.240 . S
Cd226 O227 2.240 . S
Cd226 O234 2.223 . S
Cd226 O236 2.297 . S
Cd226 O237 2.439 . S
O227 Cd226 2.240 . S
O227 C232 1.279 . S
O228 Cd225 2.297 . S
O228 C230 1.247 . S
O229 Cd225 2.439 . S
O229 C230 1.208 . S
C230 O228 1.247 . S
C230 O229 1.208 . S
C231 O236 1.247 . S
C231 O237 1.208 . S
C232 O224 1.315 . S
C232 O227 1.279 . S
C233 O234 1.315 . S
C233 O235 1.279 . S
O234 Cd226 2.223 . S
O234 C233 1.315 . S
O235 Cd225 2.240 . S
O235 C233 1.279 . S
O236 Cd226 2.297 . S
O236 C231 1.247 . S
O237 Cd226 2.439 . S
O237 C231 1.208 . S
O238 Cd239 2.223 . S
O238 C246 1.315 . S
Cd239 O238 2.223 . S
Cd239 O242 2.297 . S
Cd239 O243 2.439 . S
Cd239 O249 2.240 . S
Cd240 O241 2.240 . S
Cd240 O248 2.223 . S
Cd240 O250 2.297 . S
Cd240 O251 2.439 . S
O241 Cd240 2.240 . S
O241 C246 1.279 . S
O242 Cd239 2.297 . S
O242 C244 1.247 . S
O243 Cd239 2.439 . S
O243 C244 1.208 . S
C244 O242 1.247 . S
C244 O243 1.208 . S
C245 O250 1.247 . S
C245 O251 1.208 . S
C246 O238 1.315 . S
C246 O241 1.279 . S
C247 O248 1.315 . S
C247 O249 1.279 . S
O248 Cd240 2.223 . S
O248 C247 1.315 . S
O249 Cd239 2.240 . S
O249 C247 1.279 . S
O250 Cd240 2.297 . S
O250 C245 1.247 . S
O251 Cd240 2.439 . S
O251 C245 1.208 . S
O252 Cd253 2.223 . S
O252 C260 1.315 . S
Cd253 O252 2.223 . S
Cd253 O256 2.297 . S
Cd253 O257 2.439 . S
Cd253 O263 2.240 . S
Cd254 O255 2.240 . S
Cd254 O262 2.223 . S
Cd254 O264 2.297 . S
Cd254 O265 2.439 . S
O255 Cd254 2.240 . S
O255 C260 1.279 . S
O256 Cd253 2.297 . S
O256 C258 1.247 . S
O257 Cd253 2.439 . S
O257 C258 1.208 . S
C258 O256 1.247 . S
C258 O257 1.208 . S
C259 O264 1.247 . S
C259 O265 1.208 . S
C260 O252 1.315 . S
C260 O255 1.279 . S
C261 O262 1.315 . S
C261 O263 1.279 . S
O262 Cd254 2.223 . S
O262 C261 1.315 . S
O263 Cd253 2.240 . S
O263 C261 1.279 . S
O264 Cd254 2.297 . S
O264 C259 1.247 . S
O265 Cd254 2.439 . S
O265 C259 1.208 . S
O266 Cd267 2.223 . S
O266 C274 1.315 . S
Cd267 O266 2.223 . S
Cd267 O270 2.297 . S
Cd267 O271 2.439 . S
Cd267 O277 2.240 . S
Cd268 O269 2.240 . S
Cd268 O276 2.223 . S
Cd268 O278 2.297 . S
Cd268 O279 2.439 . S
O269 Cd268 2.240 . S
O269 C274 1.279 . S
O270 Cd267 2.297 . S
O270 C272 1.247 . S
O271 Cd267 2.439 . S
O271 C272 1.208 . S
C272 O270 1.247 . S
C272 O271 1.208 . S
C273 O278 1.247 . S
C273 O279 1.208 . S
C274 O266 1.315 . S
C274 O269 1.279 . S
C275 O276 1.315 . S
C275 O277 1.279 . S
O276 Cd268 2.223 . S
O276 C275 1.315 . S
O277 Cd267 2.240 . S
O277 C275 1.279 . S
O278 Cd268 2.297 . S
O278 C273 1.247 . S
O279 Cd268 2.439 . S
O279 C273 1.208 . S
O280 Cd281 2.223 . S
O280 C288 1.315 . S
Cd281 O280 2.223 . S
Cd281 O284 2.297 . S
Cd281 O285 2.439 . S
Cd281 O291 2.240 . S
Cd282 O283 2.240 . S
Cd282 O290 2.223 . S
Cd282 O292 2.297 . S
Cd282 O293 2.439 . S
O283 Cd282 2.240 . S
O283 C288 1.279 . S
O284 Cd281 2.297 . S
O284 C286 1.247 . S
O285 Cd281 2.439 . S
O285 C286 1.208 . S
C286 O284 1.247 . S
C286 O285 1.208 . S
C287 O292 1.247 . S
C287 O293 1.208 . S
C288 O280 1.315 . S
C288 O283 1.279 . S
C289 O290 1.315 . S
C289 O291 1.279 . S
O290 Cd282 2.223 . S
O290 C289 1.315 . S
O291 Cd281 2.240 . S
O291 C289 1.279 . S
O292 Cd282 2.297 . S
O292 C287 1.247 . S
O293 Cd282 2.439 . S
O293 C287 1.208 . S
O294 Cd295 2.223 . S
O294 C302 1.315 . S
Cd295 O294 2.223 . S
Cd295 O298 2.297 . S
Cd295 O299 2.439 . S
Cd295 O305 2.240 . S
Cd296 O297 2.240 . S
Cd296 O304 2.223 . S
Cd296 O306 2.297 . S
Cd296 O307 2.439 . S
O297 Cd296 2.240 . S
O297 C302 1.279 . S
O298 Cd295 2.297 . S
O298 C300 1.247 . S
O299 Cd295 2.439 . S
O299 C300 1.208 . S
C300 O298 1.247 . S
C300 O299 1.208 . S
C301 O306 1.247 . S
C301 O307 1.208 . S
C302 O294 1.315 . S
C302 O297 1.279 . S
C303 O304 1.315 . S
C303 O305 1.279 . S
O304 Cd296 2.223 . S
O304 C303 1.315 . S
O305 Cd295 2.240 . S
O305 C303 1.279 . S
O306 Cd296 2.297 . S
O306 C301 1.247 . S
O307 Cd296 2.439 . S
O307 C301 1.208 . S
O308 Cd309 2.223 . S
O308 C316 1.315 . S
Cd309 O308 2.223 . S
Cd309 O312 2.297 . S
Cd309 O313 2.439 . S
Cd309 O319 2.240 . S
Cd310 O311 2.240 . S
Cd310 O318 2.223 . S
Cd310 O320 2.297 . S
Cd310 O321 2.439 . S
O311 Cd310 2.240 . S
O311 C316 1.279 . S
O312 Cd309 2.297 . S
O312 C314 1.247 . S
O313 Cd309 2.439 . S
O313 C314 1.208 . S
C314 O312 1.247 . S
C314 O313 1.208 . S
C315 O320 1.247 . S
C315 O321 1.208 . S
C316 O308 1.315 . S
C316 O311 1.279 . S
C317 O318 1.315 . S
C317 O319 1.279 . S
O318 Cd310 2.223 . S
O318 C317 1.315 . S
O319 Cd309 2.240 . S
O319 C317 1.279 . S
O320 Cd310 2.297 . S
O320 C315 1.247 . S
O321 Cd310 2.439 . S
O321 C315 1.208 . S
O322 Cd323 2.223 . S
O322 C330 1.315 . S
Cd323 O322 2.223 . S
Cd323 O326 2.297 . S
Cd323 O327 2.439 . S
Cd323 O333 2.240 . S
Cd324 O325 2.240 . S
Cd324 O332 2.223 . S
Cd324 O334 2.297 . S
Cd324 O335 2.439 . S
O325 Cd324 2.240 . S
O325 C330 1.279 . S
O326 Cd323 2.297 . S
O326 C328 1.247 . S
O327 Cd323 2.439 . S
O327 C328 1.208 . S
C328 O326 1.247 . S
C328 O327 1.208 . S
C329 O334 1.247 . S
C329 O335 1.208 . S
C330 O322 1.315 . S
C330 O325 1.279 . S
C331 O332 1.315 . S
C331 O333 1.279 . S
O332 Cd324 2.223 . S
O332 C331 1.315 . S
O333 Cd323 2.240 . S
O333 C331 1.279 . S
O334 Cd324 2.297 . S
O334 C329 1.247 . S
O335 Cd324 2.439 . S
O335 C329 1.208 . S
O336 Cd337 2.223 . S
O336 C344 1.315 . S
Cd337 O336 2.223 . S
Cd337 O340 2.297 . S
Cd337 O341 2.439 . S
Cd337 O347 2.240 . S
Cd338 O339 2.240 . S
Cd338 O346 2.223 . S
Cd338 O348 2.297 . S
Cd338 O349 2.439 . S
O339 Cd338 2.240 . S
O339 C344 1.279 . S
O340 Cd337 2.297 . S
O340 C342 1.247 . S
O341 Cd337 2.439 . S
O341 C342 1.208 . S
C342 O340 1.247 . S
C342 O341 1.208 . S
C343 O348 1.247 . S
C343 O349 1.208 . S
C344 O336 1.315 . S
C344 O339 1.279 . S
C345 O346 1.315 . S
C345 O347 1.279 . S
O346 Cd338 2.223 . S
O346 C345 1.315 . S
O347 Cd337 2.240 . S
O347 C345 1.279 . S
O348 Cd338 2.297 . S
O348 C343 1.247 . S
O349 Cd338 2.439 . S
O349 C343 1.208 . S
O350 Cd351 2.223 . S
O350 C358 1.315 . S
Cd351 O350 2.223 . S
Cd351 O354 2.297 . S
Cd351 O355 2.439 . S
Cd351 O361 2.240 . S
Cd352 O353 2.240 . S
Cd352 O360 2.223 . S
Cd352 O362 2.297 . S
Cd352 O363 2.439 . S
O353 Cd352 2.240 . S
O353 C358 1.279 . S
O354 Cd351 2.297 . S
O354 C356 1.247 . S
O355 Cd351 2.439 . S
O355 C356 1.208 . S
C356 O354 1.247 . S
C356 O355 1.208 . S
C357 O362 1.247 . S
C357 O363 1.208 . S
C358 O350 1.315 . S
C358 O353 1.279 . S
C359 O360 1.315 . S
C359 O361 1.279 . S
O360 Cd352 2.223 . S
O360 C359 1.315 . S
O361 Cd351 2.240 . S
O361 C359 1.279 . S
O362 Cd352 2.297 . S
O362 C357 1.247 . S
O363 Cd352 2.439 . S
O363 C357 1.208 . S
O364 Cd365 2.223 . S
O364 C372 1.315 . S
Cd365 O364 2.223 . S
Cd365 O368 2.297 . S
Cd365 O369 2.439 . S
Cd365 O375 2.240 . S
Cd366 O367 2.240 . S
Cd366 O374 2.223 . S
Cd366 O376 2.297 . S
Cd366 O377 2.439 . S
O367 Cd366 2.240 . S
O367 C372 1.279 . S
O368 Cd365 2.297 . S
O368 C370 1.247 . S
O369 Cd365 2.439 . S
O369 C370 1.208 . S
C370 O368 1.247 . S
C370 O369 1.208 . S
C371 O376 1.247 . S
C371 O377 1.208 . S
C372 O364 1.315 . S
C372 O367 1.279 . S
C373 O374 1.315 . S
C373 O375 1.279 . S
O374 Cd366 2.223 . S
O374 C373 1.315 . S
O375 Cd365 2.240 . S
O375 C373 1.279 . S
O376 Cd366 2.297 . S
O376 C371 1.247 . S
O377 Cd366 2.439 . S
O377 C371 1.208 . S
O378 Cd379 2.223 . S
O378 C386 1.315 . S
Cd379 O378 2.223 . S
Cd379 O382 2.297 . S
Cd379 O383 2.439 . S
Cd379 O389 2.240 . S
Cd380 O381 2.240 . S
Cd380 O388 2.223 . S
Cd380 O390 2.297 . S
Cd380 O391 2.439 . S
O381 Cd380 2.240 . S
O381 C386 1.279 . S
O382 Cd379 2.297 . S
O382 C384 1.247 . S
O383 Cd379 2.439 . S
O383 C384 1.208 . S
C384 O382 1.247 . S
C384 O383 1.208 . S
C385 O390 1.247 . S
C385 O391 1.208 . S
C386 O378 1.315 . S
C386 O381 1.279 . S
C387 O388 1.315 . S
C387 O389 1.279 . S
O388 Cd380 2.223 . S
O388 C387 1.315 . S
O389 Cd379 2.240 . S
O389 C387 1.279 . S
O390 Cd380 2.297 . S
O390 C385 1.247 . S
O391 Cd380 2.439 . S
O391 C385 1.208 . S
O392 Cd393 2.223 . S
O392 C400 1.315 . S
Cd393 O392 2.223 . S
Cd393 O396 2.297 . S
Cd393 O397 2.439 . S
Cd393 O403 2.240 . S
Cd394 O395 2.240 . S
Cd394 O402 2.223 . S
Cd394 O404 2.297 . S
Cd394 O405 2.439 . S
O395 Cd394 2.240 . S
O395 C400 1.279 . S
O396 Cd393 2.297 . S
O396 C398 1.247 . S
O397 Cd393 2.439 . S
O397 C398 1.208 . S
C398 O396 1.247 . S
C398 O397 1.208 . S
C399 O404 1.247 . S
C399 O405 1.208 . S
C400 O392 1.315 . S
C400 O395 1.279 . S
C401 O402 1.315 . S
C401 O403 1.279 . S
O402 Cd394 2.223 . S
O402 C401 1.315 . S
O403 Cd393 2.240 . S
O403 C401 1.279 . S
O404 Cd394 2.297 . S
O404 C399 1.247 . S
O405 Cd394 2.439 . S
O405 C399 1.208 . S
O406 Cd407 2.223 . S
O406 C414 1.315 . S
Cd407 O406 2.223 . S
Cd407 O410 2.297 . S
Cd407 O411 2.439 . S
Cd407 O417 2.240 . S
Cd408 O409 2.240 . S
Cd408 O416 2.223 . S
Cd408 O418 2.297 . S
Cd408 O419 2.439 . S
O409 Cd408 2.240 . S
O409 C414 1.279 . S
O410 Cd407 2.297 . S
O410 C412 1.247 . S
O411 Cd407 2.439 . S
O411 C412 1.208 . S
C412 O410 1.247 . S
C412 O411 1.208 . S
C413 O418 1.247 . S
C413 O419 1.208 . S
C414 O406 1.315 . S
C414 O409 1.279 . S
C415 O416 1.315 . S
C415 O417 1.279 . S
O416 Cd408 2.223 . S
O416 C415 1.315 . S
O417 Cd407 2.240 . S
O417 C415 1.279 . S
O418 Cd408 2.297 . S
O418 C413 1.247 . S
O419 Cd408 2.439 . S
O419 C413 1.208 . S
O420 Cd421 2.223 . S
O420 C428 1.315 . S
Cd421 O420 2.223 . S
Cd421 O424 2.297 . S
Cd421 O425 2.439 . S
Cd421 O431 2.240 . S
Cd422 O423 2.240 . S
Cd422 O430 2.223 . S
Cd422 O432 2.297 . S
Cd422 O433 2.439 . S
O423 Cd422 2.240 . S
O423 C428 1.279 . S
O424 Cd421 2.297 . S
O424 C426 1.247 . S
O425 Cd421 2.439 . S
O425 C426 1.208 . S
C426 O424 1.247 . S
C426 O425 1.208 . S
C427 O432 1.247 . S
C427 O433 1.208 . S
C428 O420 1.315 . S
C428 O423 1.279 . S
C429 O430 1.315 . S
C429 O431 1.279 . S
O430 Cd422 2.223 . S
O430 C429 1.315 . S
O431 Cd421 2.240 . S
O431 C429 1.279 . S
O432 Cd422 2.297 . S
O432 C427 1.247 . S
O433 Cd422 2.439 . S
O433 C427 1.208 . S
O434 Cd435 2.223 . S
O434 C442 1.315 . S
Cd435 O434 2.223 . S
Cd435 O438 2.297 . S
Cd435 O439 2.439 . S
Cd435 O445 2.240 . S
Cd436 O437 2.240 . S
Cd436 O444 2.223 . S
Cd436 O446 2.297 . S
Cd436 O447 2.439 . S
O437 Cd436 2.240 . S
O437 C442 1.279 . S
O438 Cd435 2.297 . S
O438 C440 1.247 . S
O439 Cd435 2.439 . S
O439 C440 1.208 . S
C440 O438 1.247 . S
C440 O439 1.208 . S
C441 O446 1.247 . S
C441 O447 1.208 . S
C442 O434 1.315 . S
C442 O437 1.279 . S
C443 O444 1.315 . S
C443 O445 1.279 . S
O444 Cd436 2.223 . S
O444 C443 1.315 . S
O445 Cd435 2.240 . S
O445 C443 1.279 . S
O446 Cd436 2.297 . S
O446 C441 1.247 . S
O447 Cd436 2.439 . S
O447 C441 1.208 . S
O448 Cd449 2.223 . S
O448 C456 1.315 . S
Cd449 O448 2.223 . S
Cd449 O452 2.297 . S
Cd449 O453 2.439 . S
Cd449 O459 2.240 . S
Cd450 O451 2.240 . S
Cd450 O458 2.223 . S
Cd450 O460 2.297 . S
Cd450 O461 2.439 . S
O451 Cd450 2.240 . S
O451 C456 1.279 . S
O452 Cd449 2.297 . S
O452 C454 1.247 . S
O453 Cd449 2.439 . S
O453 C454 1.208 . S
C454 O452 1.247 . S
C454 O453 1.208 . S
C455 O460 1.247 . S
C455 O461 1.208 . S
C456 O448 1.315 . S
C456 O451 1.279 . S
C457 O458 1.315 . S
C457 O459 1.279 . S
O458 Cd450 2.223 . S
O458 C457 1.315 . S
O459 Cd449 2.240 . S
O459 C457 1.279 . S
O460 Cd450 2.297 . S
O460 C455 1.247 . S
O461 Cd450 2.439 . S
O461 C455 1.208 . S
O462 Cd463 2.223 . S
O462 C470 1.315 . S
Cd463 O462 2.223 . S
Cd463 O466 2.297 . S
Cd463 O467 2.439 . S
Cd463 O473 2.240 . S
Cd464 O465 2.240 . S
Cd464 O472 2.223 . S
Cd464 O474 2.297 . S
Cd464 O475 2.439 . S
O465 Cd464 2.240 . S
O465 C470 1.279 . S
O466 Cd463 2.297 . S
O466 C468 1.247 . S
O467 Cd463 2.439 . S
O467 C468 1.208 . S
C468 O466 1.247 . S
C468 O467 1.208 . S
C469 O474 1.247 . S
C469 O475 1.208 . S
C470 O462 1.315 . S
C470 O465 1.279 . S
C471 O472 1.315 . S
C471 O473 1.279 . S
O472 Cd464 2.223 . S
O472 C471 1.315 . S
O473 Cd463 2.240 . S
O473 C471 1.279 . S
O474 Cd464 2.297 . S
O474 C469 1.247 . S
O475 Cd464 2.439 . S
O475 C469 1.208 . S
O476 Cd477 2.223 . S
O476 C484 1.315 . S
Cd477 O476 2.223 . S
Cd477 O480 2.297 . S
Cd477 O481 2.439 . S
Cd477 O487 2.240 . S
Cd478 O479 2.240 . S
Cd478 O486 2.223 . S
Cd478 O488 2.297 . S
Cd478 O489 2.439 . S
O479 Cd478 2.240 . S
O479 C484 1.279 . S
O480 Cd477 2.297 . S
O480 C482 1.247 . S
O481 Cd477 2.439 . S
O481 C482 1.208 . S
C482 O480 1.247 . S
C482 O481 1.208 . S
C483 O488 1.247 . S
C483 O489 1.208 . S
C484 O476 1.315 . S
C484 O479 1.279 . S
C485 O486 1.315 . S
C485 O487 1.279 . S
O486 Cd478 2.223 . S
O486 C485 1.315 . S
O487 Cd477 2.240 . S
O487 C485 1.279 . S
O488 Cd478 2.297 . S
O488 C483 1.247 . S
O489 Cd478 2.439 . S
O489 C483 1.208 . S
O490 Cd491 2.223 . S
O490 C498 1.315 . S
Cd491 O490 2.223 . S
Cd491 O494 2.297 . S
Cd491 O495 2.439 . S
Cd491 O501 2.240 . S
Cd492 O493 2.240 . S
Cd492 O500 2.223 . S
Cd492 O502 2.297 . S
Cd492 O503 2.439 . S
O493 Cd492 2.240 . S
O493 C498 1.279 . S
O494 Cd491 2.297 . S
O494 C496 1.247 . S
O495 Cd491 2.439 . S
O495 C496 1.208 . S
C496 O494 1.247 . S
C496 O495 1.208 . S
C497 O502 1.247 . S
C497 O503 1.208 . S
C498 O490 1.315 . S
C498 O493 1.279 . S
C499 O500 1.315 . S
C499 O501 1.279 . S
O500 Cd492 2.223 . S
O500 C499 1.315 . S
O501 Cd491 2.240 . S
O501 C499 1.279 . S
O502 Cd492 2.297 . S
O502 C497 1.247 . S
O503 Cd492 2.439 . S
O503 C497 1.208 . S
O504 Cd505 2.223 . S
O504 C512 1.315 . S
Cd505 O504 2.223 . S
Cd505 O508 2.297 . S
Cd505 O509 2.439 . S
Cd505 O515 2.240 . S
Cd506 O507 2.240 . S
Cd506 O514 2.223 . S
Cd506 O516 2.297 . S
Cd506 O517 2.439 . S
O507 Cd506 2.240 . S
O507 C512 1.279 . S
O508 Cd505 2.297 . S
O508 C510 1.247 . S
O509 Cd505 2.439 . S
O509 C510 1.208 . S
C510 O508 1.247 . S
C510 O509 1.208 . S
C511 O516 1.247 . S
C511 O517 1.208 . S
C512 O504 1.315 . S
C512 O507 1.279 . S
C513 O514 1.315 . S
C513 O515 1.279 . S
O514 Cd506 2.223 . S
O514 C513 1.315 . S
O515 Cd505 2.240 . S
O515 C513 1.279 . S
O516 Cd506 2.297 . S
O516 C511 1.247 . S
O517 Cd506 2.439 . S
O517 C511 1.208 . S
O518 Cd519 2.223 . S
O518 C526 1.315 . S
Cd519 O518 2.223 . S
Cd519 O522 2.297 . S
Cd519 O523 2.439 . S
Cd519 O529 2.240 . S
Cd520 O521 2.240 . S
Cd520 O528 2.223 . S
Cd520 O530 2.297 . S
Cd520 O531 2.439 . S
O521 Cd520 2.240 . S
O521 C526 1.279 . S
O522 Cd519 2.297 . S
O522 C524 1.247 . S
O523 Cd519 2.439 . S
O523 C524 1.208 . S
C524 O522 1.247 . S
C524 O523 1.208 . S
C525 O530 1.247 . S
C525 O531 1.208 . S
C526 O518 1.315 . S
C526 O521 1.279 . S
C527 O528 1.315 . S
C527 O529 1.279 . S
O528 Cd520 2.223 . S
O528 C527 1.315 . S
O529 Cd519 2.240 . S
O529 C527 1.279 . S
O530 Cd520 2.297 . S
O530 C525 1.247 . S
O531 Cd520 2.439 . S
O531 C525 1.208 . S
O532 Cd533 2.223 . S
O532 C540 1.315 . S
Cd533 O532 2.223 . S
Cd533 O536 2.297 . S
Cd533 O537 2.439 . S
Cd533 O543 2.240 . S
Cd534 O535 2.240 . S
Cd534 O542 2.223 . S
Cd534 O544 2.297 . S
Cd534 O545 2.439 . S
O535 Cd534 2.240 . S
O535 C540 1.279 . S
O536 Cd533 2.297 . S
O536 C538 1.247 . S
O537 Cd533 2.439 . S
O537 C538 1.208 . S
C538 O536 1.247 . S
C538 O537 1.208 . S
C539 O544 1.247 . S
C539 O545 1.208 . S
C540 O532 1.315 . S
C540 O535 1.279 . S
C541 O542 1.315 . S
C541 O543 1.279 . S
O542 Cd534 2.223 . S
O542 C541 1.315 . S
O543 Cd533 2.240 . S
O543 C541 1.279 . S
O544 Cd534 2.297 . S
O544 C539 1.247 . S
O545 Cd534 2.439 . S
O545 C539 1.208 . S
O546 Cd547 2.223 . S
O546 C554 1.315 . S
Cd547 O546 2.223 . S
Cd547 O550 2.297 . S
Cd547 O551 2.439 . S
Cd547 O557 2.240 . S
Cd548 O549 2.240 . S
Cd548 O556 2.223 . S
Cd548 O558 2.297 . S
Cd548 O559 2.439 . S
O549 Cd548 2.240 . S
O549 C554 1.279 . S
O550 Cd547 2.297 . S
O550 C552 1.247 . S
O551 Cd547 2.439 . S
O551 C552 1.208 . S
C552 O550 1.247 . S
C552 O551 1.208 . S
C553 O558 1.247 . S
C553 O559 1.208 . S
C554 O546 1.315 . S
C554 O549 1.279 . S
C555 O556 1.315 . S
C555 O557 1.279 . S
O556 Cd548 2.223 . S
O556 C555 1.315 . S
O557 Cd547 2.240 . S
O557 C555 1.279 . S
O558 Cd548 2.297 . S
O558 C553 1.247 . S
O559 Cd548 2.439 . S
O559 C553 1.208 . S
O560 Cd561 2.223 . S
O560 C568 1.315 . S
Cd561 O560 2.223 . S
Cd561 O564 2.297 . S
Cd561 O565 2.439 . S
Cd561 O571 2.240 . S
Cd562 O563 2.240 . S
Cd562 O570 2.223 . S
Cd562 O572 2.297 . S
Cd562 O573 2.439 . S
O563 Cd562 2.240 . S
O563 C568 1.279 . S
O564 Cd561 2.297 . S
O564 C566 1.247 . S
O565 Cd561 2.439 . S
O565 C566 1.208 . S
C566 O564 1.247 . S
C566 O565 1.208 . S
C567 O572 1.247 . S
C567 O573 1.208 . S
C568 O560 1.315 . S
C568 O563 1.279 . S
C569 O570 1.315 . S
C569 O571 1.279 . S
O570 Cd562 2.223 . S
O570 C569 1.315 . S
O571 Cd561 2.240 . S
O571 C569 1.279 . S
O572 Cd562 2.297 . S
O572 C567 1.247 . S
O573 Cd562 2.439 . S
O573 C567 1.208 . S
O574 Cd575 2.223 . S
O574 C582 1.315 . S
Cd575 O574 2.223 . S
Cd575 O578 2.297 . S
Cd575 O579 2.439 . S
Cd575 O585 2.240 . S
Cd576 O577 2.240 . S
Cd576 O584 2.223 . S
Cd576 O586 2.297 . S
Cd576 O587 2.439 . S
O577 Cd576 2.240 . S
O577 C582 1.279 . S
O578 Cd575 2.297 . S
O578 C580 1.247 . S
O579 Cd575 2.439 . S
O579 C580 1.208 . S
C580 O578 1.247 . S
C580 O579 1.208 . S
C581 O586 1.247 . S
C581 O587 1.208 . S
C582 O574 1.315 . S
C582 O577 1.279 . S
C583 O584 1.315 . S
C583 O585 1.279 . S
O584 Cd576 2.223 . S
O584 C583 1.315 . S
O585 Cd575 2.240 . S
O585 C583 1.279 . S
O586 Cd576 2.297 . S
O586 C581 1.247 . S
O587 Cd576 2.439 . S
O587 C581 1.208 . S
O588 Cd589 2.223 . S
O588 C596 1.315 . S
Cd589 O588 2.223 . S
Cd589 O592 2.297 . S
Cd589 O593 2.439 . S
Cd589 O599 2.240 . S
Cd590 O591 2.240 . S
Cd590 O598 2.223 . S
Cd590 O600 2.297 . S
Cd590 O601 2.439 . S
O591 Cd590 2.240 . S
O591 C596 1.279 . S
O592 Cd589 2.297 . S
O592 C594 1.247 . S
O593 Cd589 2.439 . S
O593 C594 1.208 . S
C594 O592 1.247 . S
C594 O593 1.208 . S
C595 O600 1.247 . S
C595 O601 1.208 . S
C596 O588 1.315 . S
C596 O591 1.279 . S
C597 O598 1.315 . S
C597 O599 1.279 . S
O598 Cd590 2.223 . S
O598 C597 1.315 . S
O599 Cd589 2.240 . S
O599 C597 1.279 . S
O600 Cd590 2.297 . S
O600 C595 1.247 . S
O601 Cd590 2.439 . S
O601 C595 1.208 . S
O602 Cd603 2.223 . S
O602 C610 1.315 . S
Cd603 O602 2.223 . S
Cd603 O606 2.297 . S
Cd603 O607 2.439 . S
Cd603 O613 2.240 . S
Cd604 O605 2.240 . S
Cd604 O612 2.223 . S
Cd604 O614 2.297 . S
Cd604 O615 2.439 . S
O605 Cd604 2.240 . S
O605 C610 1.279 . S
O606 Cd603 2.297 . S
O606 C608 1.247 . S
O607 Cd603 2.439 . S
O607 C608 1.208 . S
C608 O606 1.247 . S
C608 O607 1.208 . S
C609 O614 1.247 . S
C609 O615 1.208 . S
C610 O602 1.315 . S
C610 O605 1.279 . S
C611 O612 1.315 . S
C611 O613 1.279 . S
O612 Cd604 2.223 . S
O612 C611 1.315 . S
O613 Cd603 2.240 . S
O613 C611 1.279 . S
O614 Cd604 2.297 . S
O614 C609 1.247 . S
O615 Cd604 2.439 . S
O615 C609 1.208 . S
O616 Cd617 2.223 . S
O616 C624 1.315 . S
Cd617 O616 2.223 . S
Cd617 O620 2.297 . S
Cd617 O621 2.439 . S
Cd617 O627 2.240 . S
Cd618 O619 2.240 . S
Cd618 O626 2.223 . S
Cd618 O628 2.297 . S
Cd618 O629 2.439 . S
O619 Cd618 2.240 . S
O619 C624 1.279 . S
O620 Cd617 2.297 . S
O620 C622 1.247 . S
O621 Cd617 2.439 . S
O621 C622 1.208 . S
C622 O620 1.247 . S
C622 O621 1.208 . S
C623 O628 1.247 . S
C623 O629 1.208 . S
C624 O616 1.315 . S
C624 O619 1.279 . S
C625 O626 1.315 . S
C625 O627 1.279 . S
O626 Cd618 2.223 . S
O626 C625 1.315 . S
O627 Cd617 2.240 . S
O627 C625 1.279 . S
O628 Cd618 2.297 . S
O628 C623 1.247 . S
O629 Cd618 2.439 . S
O629 C623 1.208 . S
O630 Cd631 2.223 . S
O630 C638 1.315 . S
Cd631 O630 2.223 . S
Cd631 O634 2.297 . S
Cd631 O635 2.439 . S
Cd631 O641 2.240 . S
Cd632 O633 2.240 . S
Cd632 O640 2.223 . S
Cd632 O642 2.297 . S
Cd632 O643 2.439 . S
O633 Cd632 2.240 . S
O633 C638 1.279 . S
O634 Cd631 2.297 . S
O634 C636 1.247 . S
O635 Cd631 2.439 . S
O635 C636 1.208 . S
C636 O634 1.247 . S
C636 O635 1.208 . S
C637 O642 1.247 . S
C637 O643 1.208 . S
C638 O630 1.315 . S
C638 O633 1.279 . S
C639 O640 1.315 . S
C639 O641 1.279 . S
O640 Cd632 2.223 . S
O640 C639 1.315 . S
O641 Cd631 2.240 . S
O641 C639 1.279 . S
O642 Cd632 2.297 . S
O642 C637 1.247 . S
O643 Cd632 2.439 . S
O643 C637 1.208 . S
O644 Cd645 2.223 . S
O644 C652 1.315 . S
Cd645 O644 2.223 . S
Cd645 O648 2.297 . S
Cd645 O649 2.439 . S
Cd645 O655 2.240 . S
Cd646 O647 2.240 . S
Cd646 O654 2.223 . S
Cd646 O656 2.297 . S
Cd646 O657 2.439 . S
O647 Cd646 2.240 . S
O647 C652 1.279 . S
O648 Cd645 2.297 . S
O648 C650 1.247 . S
O649 Cd645 2.439 . S
O649 C650 1.208 . S
C650 O648 1.247 . S
C650 O649 1.208 . S
C651 O656 1.247 . S
C651 O657 1.208 . S
C652 O644 1.315 . S
C652 O647 1.279 . S
C653 O654 1.315 . S
C653 O655 1.279 . S
O654 Cd646 2.223 . S
O654 C653 1.315 . S
O655 Cd645 2.240 . S
O655 C653 1.279 . S
O656 Cd646 2.297 . S
O656 C651 1.247 . S
O657 Cd646 2.439 . S
O657 C651 1.208 . S
O658 Cd659 2.223 . S
O658 C666 1.315 . S
Cd659 O658 2.223 . S
Cd659 O662 2.297 . S
Cd659 O663 2.439 . S
Cd659 O669 2.240 . S
Cd660 O661 2.240 . S
Cd660 O668 2.223 . S
Cd660 O670 2.297 . S
Cd660 O671 2.439 . S
O661 Cd660 2.240 . S
O661 C666 1.279 . S
O662 Cd659 2.297 . S
O662 C664 1.247 . S
O663 Cd659 2.439 . S
O663 C664 1.208 . S
C664 O662 1.247 . S
C664 O663 1.208 . S
C665 O670 1.247 . S
C665 O671 1.208 . S
C666 O658 1.315 . S
C666 O661 1.279 . S
C667 O668 1.315 . S
C667 O669 1.279 . S
O668 Cd660 2.223 . S
O668 C667 1.315 . S
O669 Cd659 2.240 . S
O669 C667 1.279 . S
O670 Cd660 2.297 . S
O670 C665 1.247 . S
O671 Cd660 2.439 . S
O671 C665 1.208 . S
C672 C673 1.349 . S
C672 C674 1.327 . S
C672 H697 0.950 . S
C673 C672 1.349 . S
C673 C689 1.349 . S
C674 C672 1.327 . S
C674 C693 1.429 . S
C674 H698 0.950 1_655 S
C675 C692 1.574 . S
C675 C694 1.368 . S
C675 H699 0.949 . S
H676 C680 0.949 . S
C677 C678 1.349 . S
C677 C679 1.327 . S
C677 H700 0.950 . S
C678 C677 1.349 . S
C678 C690 1.349 . S
C679 C677 1.327 . S
C679 C695 1.429 . S
C679 H701 0.950 1_455 S
C680 H676 0.949 . S
C680 C688 1.574 . S
C680 C696 1.368 . S
H681 C689 0.950 . S
H682 C687 0.950 . S
H683 C688 0.949 . S
H684 C690 0.950 . S
H685 C691 0.950 . S
H686 C692 0.949 . S
C687 H682 0.950 . S
C687 C689 1.327 . S
C687 C693 1.429 . S
C688 C680 1.574 . S
C688 H683 0.949 . S
C688 C694 1.368 1_455 S
C689 C673 1.349 . S
C689 H681 0.950 . S
C689 C687 1.327 . S
C690 C678 1.349 . S
C690 H684 0.950 . S
C690 C691 1.327 . S
C691 H685 0.950 . S
C691 C690 1.327 . S
C691 C695 1.429 . S
C692 C675 1.574 . S
C692 H686 0.949 . S
C692 C696 1.368 1_655 S
C693 C674 1.429 . S
C693 C687 1.429 . S
C693 C694 1.523 . S
C694 C675 1.368 . S
C694 C688 1.368 1_655 S
C694 C693 1.523 . S
C695 C679 1.429 . S
C695 C691 1.429 . S
C695 C696 1.523 . S
C696 C680 1.368 . S
C696 C692 1.368 1_455 S
C696 C695 1.523 . S
H697 C672 0.950 . S
H698 C674 0.950 1_455 S
H699 C675 0.949 . S
H700 C677 0.950 . S
H701 C679 0.950 1_655 S
C702 C703 1.349 . S
C702 C704 1.327 . S
C702 H727 0.950 . S
C703 C702 1.349 . S
C703 C719 1.349 . S
C704 C702 1.327 . S
C704 C723 1.429 . S
C704 H728 0.950 1_455 S
C705 C722 1.574 . S
C705 C724 1.368 . S
C705 H729 0.949 . S
H706 C710 0.949 . S
C707 C708 1.349 . S
C707 C709 1.327 . S
C707 H730 0.950 . S
C708 C707 1.349 . S
C708 C720 1.349 . S
C709 C707 1.327 . S
C709 C725 1.429 . S
C709 H731 0.950 1_655 S
C710 H706 0.949 . S
C710 C718 1.574 . S
C710 C726 1.368 . S
H711 C719 0.950 . S
H712 C717 0.950 . S
H713 C718 0.949 . S
H714 C720 0.950 . S
H715 C721 0.950 . S
H716 C722 0.949 . S
C717 H712 0.950 . S
C717 C719 1.327 . S
C717 C723 1.429 . S
C718 C710 1.574 . S
C718 H713 0.949 . S
C718 C724 1.368 1_655 S
C719 C703 1.349 . S
C719 H711 0.950 . S
C719 C717 1.327 . S
C720 C708 1.349 . S
C720 H714 0.950 . S
C720 C721 1.327 . S
C721 H715 0.950 . S
C721 C720 1.327 . S
C721 C725 1.429 . S
C722 C705 1.574 . S
C722 H716 0.949 . S
C722 C726 1.368 1_455 S
C723 C704 1.429 . S
C723 C717 1.429 . S
C723 C724 1.523 . S
C724 C705 1.368 . S
C724 C718 1.368 1_455 S
C724 C723 1.523 . S
C725 C709 1.429 . S
C725 C721 1.429 . S
C725 C726 1.523 . S
C726 C710 1.368 . S
C726 C722 1.368 1_655 S
C726 C725 1.523 . S
H727 C702 0.950 . S
H728 C704 0.950 1_655 S
H729 C705 0.949 . S
H730 C707 0.950 . S
H731 C709 0.950 1_455 S
C732 C733 1.349 . S
C732 C734 1.327 . S
C732 H757 0.950 . S
C733 C732 1.349 . S
C733 C749 1.349 . S
C734 C732 1.327 . S
C734 C753 1.429 . S
C734 H758 0.950 . S
C735 C752 1.574 . S
C735 C754 1.368 1_545 S
C735 H759 0.949 . S
H736 C740 0.949 . S
C737 C738 1.349 . S
C737 C739 1.327 . S
C737 H760 0.950 . S
C738 C737 1.349 . S
C738 C750 1.349 . S
C739 C737 1.327 . S
C739 C755 1.429 . S
C739 H761 0.950 . S
C740 H736 0.949 . S
C740 C748 1.574 . S
C740 C756 1.368 1_565 S
H741 C749 0.950 . S
H742 C747 0.950 1_545 S
H743 C748 0.949 . S
H744 C750 0.950 . S
H745 C751 0.950 1_565 S
H746 C752 0.949 . S
C747 H742 0.950 1_565 S
C747 C749 1.327 . S
C747 C753 1.429 . S
C748 C740 1.574 . S
C748 H743 0.949 . S
C748 C754 1.368 . S
C749 C733 1.349 . S
C749 H741 0.950 . S
C749 C747 1.327 . S
C750 C738 1.349 . S
C750 H744 0.950 . S
C750 C751 1.327 . S
C751 H745 0.950 1_545 S
C751 C750 1.327 . S
C751 C755 1.429 . S
C752 C735 1.574 . S
C752 H746 0.949 . S
C752 C756 1.368 . S
C753 C734 1.429 . S
C753 C747 1.429 . S
C753 C754 1.523 . S
C754 C735 1.368 1_565 S
C754 C748 1.368 . S
C754 C753 1.523 . S
C755 C739 1.429 . S
C755 C751 1.429 . S
C755 C756 1.523 . S
C756 C740 1.368 1_545 S
C756 C752 1.368 . S
C756 C755 1.523 . S
H757 C732 0.950 . S
H758 C734 0.950 . S
H759 C735 0.949 . S
H760 C737 0.950 . S
H761 C739 0.950 . S
C762 C763 1.349 . S
C762 C764 1.327 . S
C762 H787 0.950 . S
C763 C762 1.349 . S
C763 C779 1.349 . S
C764 C762 1.327 . S
C764 C783 1.429 . S
C764 H788 0.950 . S
C765 C782 1.574 . S
C765 C784 1.368 . S
C765 H789 0.949 . S
H766 C770 0.949 . S
C767 C768 1.349 . S
C767 C769 1.327 . S
C767 H790 0.950 . S
C768 C767 1.349 . S
C768 C780 1.349 . S
C769 C767 1.327 . S
C769 C785 1.429 . S
C769 H791 0.950 . S
C770 H766 0.949 . S
C770 C778 1.574 . S
C770 C786 1.368 . S
H771 C779 0.950 . S
H772 C777 0.950 . S
H773 C778 0.949 . S
H774 C780 0.950 . S
H775 C781 0.950 . S
H776 C782 0.949 . S
C777 H772 0.950 . S
C777 C779 1.327 . S
C777 C783 1.429 . S
C778 C770 1.574 . S
C778 H773 0.949 . S
C778 C784 1.368 . S
C779 C763 1.349 . S
C779 H771 0.950 . S
C779 C777 1.327 . S
C780 C768 1.349 . S
C780 H774 0.950 . S
C780 C781 1.327 . S
C781 H775 0.950 . S
C781 C780 1.327 . S
C781 C785 1.429 . S
C782 C765 1.574 . S
C782 H776 0.949 . S
C782 C786 1.368 . S
C783 C764 1.429 . S
C783 C777 1.429 . S
C783 C784 1.523 . S
C784 C765 1.368 . S
C784 C778 1.368 . S
C784 C783 1.523 . S
C785 C769 1.429 . S
C785 C781 1.429 . S
C785 C786 1.523 . S
C786 C770 1.368 . S
C786 C782 1.368 . S
C786 C785 1.523 . S
H787 C762 0.950 . S
H788 C764 0.950 . S
H789 C765 0.949 . S
H790 C767 0.950 . S
H791 C769 0.950 . S
C792 C793 1.349 . S
C792 C794 1.327 . S
C792 H817 0.950 . S
C793 C792 1.349 . S
C793 C809 1.349 . S
C794 C792 1.327 . S
C794 C813 1.429 . S
C794 H818 0.950 . S
C795 C812 1.574 . S
C795 C814 1.368 1_556 S
C795 H819 0.949 . S
H796 C800 0.949 . S
C797 C798 1.349 . S
C797 C799 1.327 . S
C797 H820 0.950 . S
C798 C797 1.349 . S
C798 C810 1.349 . S
C799 C797 1.327 . S
C799 C815 1.429 . S
C799 H821 0.950 . S
C800 H796 0.949 . S
C800 C808 1.574 . S
C800 C816 1.368 1_554 S
H801 C809 0.950 . S
H802 C807 0.950 1_556 S
H803 C808 0.949 . S
H804 C810 0.950 . S
H805 C811 0.950 1_554 S
H806 C812 0.949 . S
C807 H802 0.950 1_554 S
C807 C809 1.327 . S
C807 C813 1.429 . S
C808 C800 1.574 . S
C808 H803 0.949 . S
C808 C814 1.368 . S
C809 C793 1.349 . S
C809 H801 0.950 . S
C809 C807 1.327 . S
C810 C798 1.349 . S
C810 H804 0.950 . S
C810 C811 1.327 . S
C811 H805 0.950 1_556 S
C811 C810 1.327 . S
C811 C815 1.429 . S
C812 C795 1.574 . S
C812 H806 0.949 . S
C812 C816 1.368 . S
C813 C794 1.429 . S
C813 C807 1.429 . S
C813 C814 1.523 . S
C814 C795 1.368 1_554 S
C814 C808 1.368 . S
C814 C813 1.523 . S
C815 C799 1.429 . S
C815 C811 1.429 . S
C815 C816 1.523 . S
C816 C800 1.368 1_556 S
C816 C812 1.368 . S
C816 C815 1.523 . S
H817 C792 0.950 . S
H818 C794 0.950 . S
H819 C795 0.949 . S
H820 C797 0.950 . S
H821 C799 0.950 . S
C822 C823 1.349 . S
C822 C824 1.327 . S
C822 H847 0.950 . S
C823 C822 1.349 . S
C823 C839 1.349 . S
C824 C822 1.327 . S
C824 C843 1.429 . S
C824 H848 0.950 . S
C825 C842 1.574 . S
C825 C844 1.368 . S
C825 H849 0.949 . S
H826 C830 0.949 . S
C827 C828 1.349 . S
C827 C829 1.327 . S
C827 H850 0.950 . S
C828 C827 1.349 . S
C828 C840 1.349 . S
C829 C827 1.327 . S
C829 C845 1.429 . S
C829 H851 0.950 . S
C830 H826 0.949 . S
C830 C838 1.574 . S
C830 C846 1.368 . S
H831 C839 0.950 . S
H832 C837 0.950 . S
H833 C838 0.949 . S
H834 C840 0.950 . S
H835 C841 0.950 . S
H836 C842 0.949 . S
C837 H832 0.950 . S
C837 C839 1.327 . S
C837 C843 1.429 . S
C838 C830 1.574 . S
C838 H833 0.949 . S
C838 C844 1.368 . S
C839 C823 1.349 . S
C839 H831 0.950 . S
C839 C837 1.327 . S
C840 C828 1.349 . S
C840 H834 0.950 . S
C840 C841 1.327 . S
C841 H835 0.950 . S
C841 C840 1.327 . S
C841 C845 1.429 . S
C842 C825 1.574 . S
C842 H836 0.949 . S
C842 C846 1.368 . S
C843 C824 1.429 . S
C843 C837 1.429 . S
C843 C844 1.523 . S
C844 C825 1.368 . S
C844 C838 1.368 . S
C844 C843 1.523 . S
C845 C829 1.429 . S
C845 C841 1.429 . S
C845 C846 1.523 . S
C846 C830 1.368 . S
C846 C842 1.368 . S
C846 C845 1.523 . S
H847 C822 0.950 . S
H848 C824 0.950 . S
H849 C825 0.949 . S
H850 C827 0.950 . S
H851 C829 0.950 . S
C852 C853 1.349 . S
C852 C854 1.327 . S
C852 H877 0.950 . S
C853 C852 1.349 . S
C853 C869 1.349 . S
C854 C852 1.327 . S
C854 C873 1.429 . S
C854 H878 0.950 . S
C855 C872 1.574 . S
C855 C874 1.368 . S
C855 H879 0.949 . S
H856 C860 0.949 . S
C857 C858 1.349 . S
C857 C859 1.327 . S
C857 H880 0.950 . S
C858 C857 1.349 . S
C858 C870 1.349 . S
C859 C857 1.327 . S
C859 C875 1.429 . S
C859 H881 0.950 . S
C860 H856 0.949 . S
C860 C868 1.574 . S
C860 C876 1.368 . S
H861 C869 0.950 . S
H862 C867 0.950 . S
H863 C868 0.949 . S
H864 C870 0.950 . S
H865 C871 0.950 . S
H866 C872 0.949 . S
C867 H862 0.950 . S
C867 C869 1.327 . S
C867 C873 1.429 . S
C868 C860 1.574 . S
C868 H863 0.949 . S
C868 C874 1.368 . S
C869 C853 1.349 . S
C869 H861 0.950 . S
C869 C867 1.327 . S
C870 C858 1.349 . S
C870 H864 0.950 . S
C870 C871 1.327 . S
C871 H865 0.950 . S
C871 C870 1.327 . S
C871 C875 1.429 . S
C872 C855 1.574 . S
C872 H866 0.949 . S
C872 C876 1.368 . S
C873 C854 1.429 . S
C873 C867 1.429 . S
C873 C874 1.523 . S
C874 C855 1.368 . S
C874 C868 1.368 . S
C874 C873 1.523 . S
C875 C859 1.429 . S
C875 C871 1.429 . S
C875 C876 1.523 . S
C876 C860 1.368 . S
C876 C872 1.368 . S
C876 C875 1.523 . S
H877 C852 0.950 . S
H878 C854 0.950 . S
H879 C855 0.949 . S
H880 C857 0.950 . S
H881 C859 0.950 . S
C882 C883 1.349 . S
C882 C884 1.327 . S
C882 H907 0.950 . S
C883 C882 1.349 . S
C883 C899 1.349 . S
C884 C882 1.327 . S
C884 C903 1.429 . S
C884 H908 0.950 1_455 S
C885 C902 1.574 . S
C885 C904 1.368 . S
C885 H909 0.949 . S
H886 C890 0.949 . S
C887 C888 1.349 . S
C887 C889 1.327 . S
C887 H910 0.950 . S
C888 C887 1.349 . S
C888 C900 1.349 . S
C889 C887 1.327 . S
C889 C905 1.429 . S
C889 H911 0.950 1_655 S
C890 H886 0.949 . S
C890 C898 1.574 . S
C890 C906 1.368 . S
H891 C899 0.950 . S
H892 C897 0.950 . S
H893 C898 0.949 . S
H894 C900 0.950 . S
H895 C901 0.950 . S
H896 C902 0.949 . S
C897 H892 0.950 . S
C897 C899 1.327 . S
C897 C903 1.429 . S
C898 C890 1.574 . S
C898 H893 0.949 . S
C898 C904 1.368 1_655 S
C899 C883 1.349 . S
C899 H891 0.950 . S
C899 C897 1.327 . S
C900 C888 1.349 . S
C900 H894 0.950 . S
C900 C901 1.327 . S
C901 H895 0.950 . S
C901 C900 1.327 . S
C901 C905 1.429 . S
C902 C885 1.574 . S
C902 H896 0.949 . S
C902 C906 1.368 1_455 S
C903 C884 1.429 . S
C903 C897 1.429 . S
C903 C904 1.523 . S
C904 C885 1.368 . S
C904 C898 1.368 1_455 S
C904 C903 1.523 . S
C905 C889 1.429 . S
C905 C901 1.429 . S
C905 C906 1.523 . S
C906 C890 1.368 . S
C906 C902 1.368 1_655 S
C906 C905 1.523 . S
H907 C882 0.950 . S
H908 C884 0.950 1_655 S
H909 C885 0.949 . S
H910 C887 0.950 . S
H911 C889 0.950 1_455 S
C912 C913 1.349 . S
C912 C914 1.327 . S
C912 H937 0.950 . S
C913 C912 1.349 . S
C913 C929 1.349 . S
C914 C912 1.327 . S
C914 C933 1.429 . S
C914 H938 0.950 1_455 S
C915 C932 1.574 . S
C915 C934 1.368 . S
C915 H939 0.949 . S
H916 C920 0.949 . S
C917 C918 1.349 . S
C917 C919 1.327 . S
C917 H940 0.950 . S
C918 C917 1.349 . S
C918 C930 1.349 . S
C919 C917 1.327 . S
C919 C935 1.429 . S
C919 H941 0.950 1_655 S
C920 H916 0.949 . S
C920 C928 1.574 . S
C920 C936 1.368 . S
H921 C929 0.950 . S
H922 C927 0.950 . S
H923 C928 0.949 . S
H924 C930 0.950 . S
H925 C931 0.950 . S
H926 C932 0.949 . S
C927 H922 0.950 . S
C927 C929 1.327 . S
C927 C933 1.429 . S
C928 C920 1.574 . S
C928 H923 0.949 . S
C928 C934 1.368 1_655 S
C929 C913 1.349 . S
C929 H921 0.950 . S
C929 C927 1.327 . S
C930 C918 1.349 . S
C930 H924 0.950 . S
C930 C931 1.327 . S
C931 H925 0.950 . S
C931 C930 1.327 . S
C931 C935 1.429 . S
C932 C915 1.574 . S
C932 H926 0.949 . S
C932 C936 1.368 1_455 S
C933 C914 1.429 . S
C933 C927 1.429 . S
C933 C934 1.523 . S
C934 C915 1.368 . S
C934 C928 1.368 1_455 S
C934 C933 1.523 . S
C935 C919 1.429 . S
C935 C931 1.429 . S
C935 C936 1.523 . S
C936 C920 1.368 . S
C936 C932 1.368 1_655 S
C936 C935 1.523 . S
H937 C912 0.950 . S
H938 C914 0.950 1_655 S
H939 C915 0.949 . S
H940 C917 0.950 . S
H941 C919 0.950 1_455 S
C942 C943 1.349 . S
C942 C944 1.327 . S
C942 H967 0.950 . S
C943 C942 1.349 . S
C943 C959 1.349 . S
C944 C942 1.327 . S
C944 C963 1.429 . S
C944 H968 0.950 . S
C945 C962 1.574 . S
C945 C964 1.368 1_565 S
C945 H969 0.949 . S
H946 C950 0.949 . S
C947 C948 1.349 . S
C947 C949 1.327 . S
C947 H970 0.950 . S
C948 C947 1.349 . S
C948 C960 1.349 . S
C949 C947 1.327 . S
C949 C965 1.429 . S
C949 H971 0.950 . S
C950 H946 0.949 . S
C950 C958 1.574 . S
C950 C966 1.368 1_545 S
H951 C959 0.950 1_565 S
H952 C957 0.990 . S
H953 C958 0.949 . S
H954 C960 0.950 1_545 S
H955 C961 0.990 . S
H956 C962 0.949 . S
C957 H952 0.990 . S
C957 C959 1.315 1_565 S
C957 C963 1.403 1_565 S
C958 C950 1.574 . S
C958 H953 0.949 . S
C958 C964 1.368 . S
C959 C943 1.349 . S
C959 H951 0.950 1_545 S
C959 C957 1.315 1_545 S
C960 C948 1.349 . S
C960 H954 0.950 1_565 S
C960 C961 1.315 1_565 S
C961 H955 0.990 . S
C961 C960 1.315 1_545 S
C961 C965 1.403 1_545 S
C962 C945 1.574 . S
C962 H956 0.949 . S
C962 C966 1.368 . S
C963 C944 1.429 . S
C963 C957 1.403 1_545 S
C963 C964 1.523 . S
C964 C945 1.368 1_545 S
C964 C958 1.368 . S
C964 C963 1.523 . S
C965 C949 1.429 . S
C965 C961 1.403 1_565 S
C965 C966 1.523 . S
C966 C950 1.368 1_565 S
C966 C962 1.368 . S
C966 C965 1.523 . S
H967 C942 0.950 . S
H968 C944 0.950 . S
H969 C945 0.949 . S
H970 C947 0.950 . S
H971 C949 0.950 . S
C972 C973 1.349 . S
C972 C974 1.327 . S
C972 H997 0.950 . S
C973 C972 1.349 . S
C973 C989 1.349 . S
C974 C972 1.327 . S
C974 C993 1.429 . S
C974 H998 0.950 . S
C975 C992 1.574 . S
C975 C994 1.368 . S
C975 H999 0.949 . S
H976 C980 0.949 . S
C977 C978 1.349 . S
C977 C979 1.327 . S
C977 H1000 0.950 . S
C978 C977 1.349 . S
C978 C990 1.349 . S
C979 C977 1.327 . S
C979 C995 1.429 . S
C979 H1001 0.950 . S
C980 H976 0.949 . S
C980 C988 1.574 . S
C980 C996 1.368 . S
H981 C989 0.950 . S
H982 C987 0.950 . S
H983 C988 0.949 . S
H984 C990 0.950 . S
H985 C991 0.950 . S
H986 C992 0.949 . S
C987 H982 0.950 . S
C987 C989 1.327 . S
C987 C993 1.429 . S
C988 C980 1.574 . S
C988 H983 0.949 . S
C988 C994 1.368 . S
C989 C973 1.349 . S
C989 H981 0.950 . S
C989 C987 1.327 . S
C990 C978 1.349 . S
C990 H984 0.950 . S
C990 C991 1.327 . S
C991 H985 0.950 . S
C991 C990 1.327 . S
C991 C995 1.429 . S
C992 C975 1.574 . S
C992 H986 0.949 . S
C992 C996 1.368 . S
C993 C974 1.429 . S
C993 C987 1.429 . S
C993 C994 1.523 . S
C994 C975 1.368 . S
C994 C988 1.368 . S
C994 C993 1.523 . S
C995 C979 1.429 . S
C995 C991 1.429 . S
C995 C996 1.523 . S
C996 C980 1.368 . S
C996 C992 1.368 . S
C996 C995 1.523 . S
H997 C972 0.950 . S
H998 C974 0.950 . S
H999 C975 0.949 . S
H1000 C977 0.950 . S
H1001 C979 0.950 . S
C1002 C1003 1.349 . S
C1002 C1004 1.327 . S
C1002 H1027 0.950 . S
C1003 C1002 1.349 . S
C1003 C1019 1.349 . S
C1004 C1002 1.327 . S
C1004 C1023 1.429 . S
C1004 H1028 0.950 . S
C1005 C1022 1.574 . S
C1005 C1024 1.368 1_554 S
C1005 H1029 0.949 . S
H1006 C1010 0.949 . S
C1007 C1008 1.349 . S
C1007 C1009 1.327 . S
C1007 H1030 0.950 . S
C1008 C1007 1.349 . S
C1008 C1020 1.349 . S
C1009 C1007 1.327 . S
C1009 C1025 1.429 . S
C1009 H1031 0.950 . S
C1010 H1006 0.949 . S
C1010 C1018 1.574 . S
C1010 C1026 1.368 1_556 S
H1011 C1019 0.950 . S
H1012 C1017 0.950 1_554 S
H1013 C1018 0.949 . S
H1014 C1020 0.950 . S
H1015 C1021 0.950 1_556 S
H1016 C1022 0.949 . S
C1017 H1012 0.950 1_556 S
C1017 C1019 1.327 . S
C1017 C1023 1.429 . S
C1018 C1010 1.574 . S
C1018 H1013 0.949 . S
C1018 C1024 1.368 . S
C1019 C1003 1.349 . S
C1019 H1011 0.950 . S
C1019 C1017 1.327 . S
C1020 C1008 1.349 . S
C1020 H1014 0.950 . S
C1020 C1021 1.327 . S
C1021 H1015 0.950 1_554 S
C1021 C1020 1.327 . S
C1021 C1025 1.429 . S
C1022 C1005 1.574 . S
C1022 H1016 0.949 . S
C1022 C1026 1.368 . S
C1023 C1004 1.429 . S
C1023 C1017 1.429 . S
C1023 C1024 1.523 . S
C1024 C1005 1.368 1_556 S
C1024 C1018 1.368 . S
C1024 C1023 1.523 . S
C1025 C1009 1.429 . S
C1025 C1021 1.429 . S
C1025 C1026 1.523 . S
C1026 C1010 1.368 1_554 S
C1026 C1022 1.368 . S
C1026 C1025 1.523 . S
H1027 C1002 0.950 . S
H1028 C1004 0.950 . S
H1029 C1005 0.949 . S
H1030 C1007 0.950 . S
H1031 C1009 0.950 . S
C1032 C1033 1.349 . S
C1032 C1034 1.327 . S
C1032 H1057 0.950 . S
C1033 C1032 1.349 . S
C1033 C1049 1.349 . S
C1034 C1032 1.327 . S
C1034 C1053 1.429 . S
C1034 H1058 0.950 . S
C1035 C1052 1.574 . S
C1035 C1054 1.368 . S
C1035 H1059 0.949 . S
H1036 C1040 0.949 . S
C1037 C1038 1.349 . S
C1037 C1039 1.327 . S
C1037 H1060 0.950 . S
C1038 C1037 1.349 . S
C1038 C1050 1.349 . S
C1039 C1037 1.327 . S
C1039 C1055 1.429 . S
C1039 H1061 0.950 . S
C1040 H1036 0.949 . S
C1040 C1048 1.574 . S
C1040 C1056 1.368 . S
H1041 C1049 0.950 . S
H1042 C1047 0.950 . S
H1043 C1048 0.949 . S
H1044 C1050 0.950 . S
H1045 C1051 0.950 . S
H1046 C1052 0.949 . S
C1047 H1042 0.950 . S
C1047 C1049 1.327 . S
C1047 C1053 1.429 . S
C1048 C1040 1.574 . S
C1048 H1043 0.949 . S
C1048 C1054 1.368 . S
C1049 C1033 1.349 . S
C1049 H1041 0.950 . S
C1049 C1047 1.327 . S
C1050 C1038 1.349 . S
C1050 H1044 0.950 . S
C1050 C1051 1.327 . S
C1051 H1045 0.950 . S
C1051 C1050 1.327 . S
C1051 C1055 1.429 . S
C1052 C1035 1.574 . S
C1052 H1046 0.949 . S
C1052 C1056 1.368 . S
C1053 C1034 1.429 . S
C1053 C1047 1.429 . S
C1053 C1054 1.523 . S
C1054 C1035 1.368 . S
C1054 C1048 1.368 . S
C1054 C1053 1.523 . S
C1055 C1039 1.429 . S
C1055 C1051 1.429 . S
C1055 C1056 1.523 . S
C1056 C1040 1.368 . S
C1056 C1052 1.368 . S
C1056 C1055 1.523 . S
H1057 C1032 0.950 . S
H1058 C1034 0.950 . S
H1059 C1035 0.949 . S
H1060 C1037 0.950 . S
H1061 C1039 0.950 . S
C1062 C1063 1.349 . S
C1062 C1064 1.327 . S
C1062 H1087 0.950 . S
C1063 C1062 1.349 . S
C1063 C1079 1.349 . S
C1064 C1062 1.327 . S
C1064 C1083 1.429 . S
C1064 H1088 0.950 . S
C1065 C1082 1.574 . S
C1065 C1084 1.368 . S
C1065 H1089 0.949 . S
H1066 C1070 0.949 . S
C1067 C1068 1.349 . S
C1067 C1069 1.327 . S
C1067 H1090 0.950 . S
C1068 C1067 1.349 . S
C1068 C1080 1.349 . S
C1069 C1067 1.327 . S
C1069 C1085 1.429 . S
C1069 H1091 0.950 . S
C1070 H1066 0.949 . S
C1070 C1078 1.574 . S
C1070 C1086 1.368 . S
H1071 C1079 0.950 . S
H1072 C1077 0.950 . S
H1073 C1078 0.949 . S
H1074 C1080 0.950 . S
H1075 C1081 0.950 . S
H1076 C1082 0.949 . S
C1077 H1072 0.950 . S
C1077 C1079 1.327 . S
C1077 C1083 1.429 . S
C1078 C1070 1.574 . S
C1078 H1073 0.949 . S
C1078 C1084 1.368 . S
C1079 C1063 1.349 . S
C1079 H1071 0.950 . S
C1079 C1077 1.327 . S
C1080 C1068 1.349 . S
C1080 H1074 0.950 . S
C1080 C1081 1.327 . S
C1081 H1075 0.950 . S
C1081 C1080 1.327 . S
C1081 C1085 1.429 . S
C1082 C1065 1.574 . S
C1082 H1076 0.949 . S
C1082 C1086 1.368 . S
C1083 C1064 1.429 . S
C1083 C1077 1.429 . S
C1083 C1084 1.523 . S
C1084 C1065 1.368 . S
C1084 C1078 1.368 . S
C1084 C1083 1.523 . S
C1085 C1069 1.429 . S
C1085 C1081 1.429 . S
C1085 C1086 1.523 . S
C1086 C1070 1.368 . S
C1086 C1082 1.368 . S
C1086 C1085 1.523 . S
H1087 C1062 0.950 . S
H1088 C1064 0.950 . S
H1089 C1065 0.949 . S
H1090 C1067 0.950 . S
H1091 C1069 0.950 . S
C1092 C1093 1.349 . S
C1092 C1094 1.327 . S
C1092 H1117 0.950 . S
C1093 C1092 1.349 . S
C1093 C1109 1.349 . S
C1094 C1092 1.327 . S
C1094 C1113 1.429 . S
C1094 H1118 0.950 . S
C1095 C1112 1.574 . S
C1095 C1114 1.368 . S
C1095 H1119 0.949 . S
H1096 C1100 0.949 . S
C1097 C1098 1.349 . S
C1097 C1099 1.327 . S
C1097 H1120 0.950 . S
C1098 C1097 1.349 . S
C1098 C1110 1.349 . S
C1099 C1097 1.327 . S
C1099 C1115 1.429 . S
C1099 H1121 0.950 . S
C1100 H1096 0.949 . S
C1100 C1108 1.574 . S
C1100 C1116 1.368 . S
H1101 C1109 0.950 . S
H1102 C1107 0.950 . S
H1103 C1108 0.949 . S
H1104 C1110 0.950 . S
H1105 C1111 0.950 . S
H1106 C1112 0.949 . S
C1107 H1102 0.950 . S
C1107 C1109 1.327 . S
C1107 C1113 1.429 . S
C1108 C1100 1.574 . S
C1108 H1103 0.949 . S
C1108 C1114 1.368 . S
C1109 C1093 1.349 . S
C1109 H1101 0.950 . S
C1109 C1107 1.327 . S
C1110 C1098 1.349 . S
C1110 H1104 0.950 . S
C1110 C1111 1.327 . S
C1111 H1105 0.950 . S
C1111 C1110 1.327 . S
C1111 C1115 1.429 . S
C1112 C1095 1.574 . S
C1112 H1106 0.949 . S
C1112 C1116 1.368 . S
C1113 C1094 1.429 . S
C1113 C1107 1.429 . S
C1113 C1114 1.523 . S
C1114 C1095 1.368 . S
C1114 C1108 1.368 . S
C1114 C1113 1.523 . S
C1115 C1099 1.429 . S
C1115 C1111 1.429 . S
C1115 C1116 1.523 . S
C1116 C1100 1.368 . S
C1116 C1112 1.368 . S
C1116 C1115 1.523 . S
H1117 C1092 0.950 . S
H1118 C1094 0.950 . S
H1119 C1095 0.949 . S
H1120 C1097 0.950 . S
H1121 C1099 0.950 . S
C1122 C1123 1.349 . S
C1122 C1124 1.327 . S
C1122 H1147 0.950 . S
C1123 C1122 1.349 . S
C1123 C1139 1.349 . S
C1124 C1122 1.327 . S
C1124 C1143 1.429 . S
C1124 H1148 0.950 . S
C1125 C1142 1.574 . S
C1125 C1144 1.368 . S
C1125 H1149 0.949 . S
H1126 C1130 0.949 . S
C1127 C1128 1.349 . S
C1127 C1129 1.327 . S
C1127 H1150 0.950 . S
C1128 C1127 1.349 . S
C1128 C1140 1.349 . S
C1129 C1127 1.327 . S
C1129 C1145 1.429 . S
C1129 H1151 0.950 . S
C1130 H1126 0.949 . S
C1130 C1138 1.574 . S
C1130 C1146 1.368 . S
H1131 C1139 0.950 . S
H1132 C1137 0.950 . S
H1133 C1138 0.949 . S
H1134 C1140 0.950 . S
H1135 C1141 0.950 . S
H1136 C1142 0.949 . S
C1137 H1132 0.950 . S
C1137 C1139 1.327 . S
C1137 C1143 1.429 . S
C1138 C1130 1.574 . S
C1138 H1133 0.949 . S
C1138 C1144 1.368 . S
C1139 C1123 1.349 . S
C1139 H1131 0.950 . S
C1139 C1137 1.327 . S
C1140 C1128 1.349 . S
C1140 H1134 0.950 . S
C1140 C1141 1.327 . S
C1141 H1135 0.950 . S
C1141 C1140 1.327 . S
C1141 C1145 1.429 . S
C1142 C1125 1.574 . S
C1142 H1136 0.949 . S
C1142 C1146 1.368 . S
C1143 C1124 1.429 . S
C1143 C1137 1.429 . S
C1143 C1144 1.523 . S
C1144 C1125 1.368 . S
C1144 C1138 1.368 . S
C1144 C1143 1.523 . S
C1145 C1129 1.429 . S
C1145 C1141 1.429 . S
C1145 C1146 1.523 . S
C1146 C1130 1.368 . S
C1146 C1142 1.368 . S
C1146 C1145 1.523 . S
H1147 C1122 0.950 . S
H1148 C1124 0.950 . S
H1149 C1125 0.949 . S
H1150 C1127 0.950 . S
H1151 C1129 0.950 . S
C1152 C1153 1.349 . S
C1152 C1154 1.327 . S
C1152 H1177 0.950 . S
C1153 C1152 1.349 . S
C1153 C1169 1.349 . S
C1154 C1152 1.327 . S
C1154 C1173 1.429 . S
C1154 H1178 0.950 . S
C1155 C1172 1.574 . S
C1155 C1174 1.368 . S
C1155 H1179 0.949 . S
H1156 C1160 0.949 . S
C1157 C1158 1.349 . S
C1157 C1159 1.327 . S
C1157 H1180 0.950 . S
C1158 C1157 1.349 . S
C1158 C1170 1.349 . S
C1159 C1157 1.327 . S
C1159 C1175 1.429 . S
C1159 H1181 0.950 . S
C1160 H1156 0.949 . S
C1160 C1168 1.574 . S
C1160 C1176 1.368 . S
H1161 C1169 0.950 . S
H1162 C1167 0.950 . S
H1163 C1168 0.949 . S
H1164 C1170 0.950 . S
H1165 C1171 0.950 . S
H1166 C1172 0.949 . S
C1167 H1162 0.950 . S
C1167 C1169 1.327 . S
C1167 C1173 1.429 . S
C1168 C1160 1.574 . S
C1168 H1163 0.949 . S
C1168 C1174 1.368 . S
C1169 C1153 1.349 . S
C1169 H1161 0.950 . S
C1169 C1167 1.327 . S
C1170 C1158 1.349 . S
C1170 H1164 0.950 . S
C1170 C1171 1.327 . S
C1171 H1165 0.950 . S
C1171 C1170 1.327 . S
C1171 C1175 1.429 . S
C1172 C1155 1.574 . S
C1172 H1166 0.949 . S
C1172 C1176 1.368 . S
C1173 C1154 1.429 . S
C1173 C1167 1.429 . S
C1173 C1174 1.523 . S
C1174 C1155 1.368 . S
C1174 C1168 1.368 . S
C1174 C1173 1.523 . S
C1175 C1159 1.429 . S
C1175 C1171 1.429 . S
C1175 C1176 1.523 . S
C1176 C1160 1.368 . S
C1176 C1172 1.368 . S
C1176 C1175 1.523 . S
H1177 C1152 0.950 . S
H1178 C1154 0.950 . S
H1179 C1155 0.949 . S
H1180 C1157 0.950 . S
H1181 C1159 0.950 . S
C1182 C1183 1.349 . S
C1182 C1184 1.327 . S
C1182 H1207 0.950 1_545 S
C1183 C1182 1.349 . S
C1183 C1199 1.349 . S
C1184 C1182 1.327 . S
C1184 C1203 1.428 . S
C1184 H1208 0.950 1_545 S
C1185 C1202 1.574 . S
C1185 C1204 1.368 . S
C1185 H1209 0.949 . S
H1186 C1190 0.949 . S
C1187 C1188 1.349 . S
C1187 C1189 1.327 . S
C1187 H1210 0.950 1_565 S
C1188 C1187 1.349 . S
C1188 C1200 1.349 . S
C1189 C1187 1.327 . S
C1189 C1205 1.428 . S
C1189 H1211 0.951 1_565 S
C1190 H1186 0.949 . S
C1190 C1198 1.574 . S
C1190 C1206 1.368 . S
H1191 C1199 0.950 . S
H1192 C1197 0.950 . S
H1193 C1198 0.949 . S
H1194 C1200 0.950 . S
H1195 C1201 0.950 . S
H1196 C1202 0.949 . S
C1197 H1192 0.950 . S
C1197 C1199 1.327 . S
C1197 C1203 1.429 . S
C1198 C1190 1.574 . S
C1198 H1193 0.949 . S
C1198 C1204 1.368 1_565 S
C1199 C1183 1.349 . S
C1199 H1191 0.950 . S
C1199 C1197 1.327 . S
C1200 C1188 1.349 . S
C1200 H1194 0.950 . S
C1200 C1201 1.327 . S
C1201 H1195 0.950 . S
C1201 C1200 1.327 . S
C1201 C1205 1.429 . S
C1202 C1185 1.574 . S
C1202 H1196 0.949 . S
C1202 C1206 1.368 1_545 S
C1203 C1184 1.428 . S
C1203 C1197 1.429 . S
C1203 C1204 1.523 . S
C1204 C1185 1.368 . S
C1204 C1198 1.368 1_545 S
C1204 C1203 1.523 . S
C1205 C1189 1.428 . S
C1205 C1201 1.429 . S
C1205 C1206 1.523 . S
C1206 C1190 1.368 . S
C1206 C1202 1.368 1_565 S
C1206 C1205 1.523 . S
H1207 C1182 0.950 1_565 S
H1208 C1184 0.950 1_565 S
H1209 C1185 0.949 . S
H1210 C1187 0.950 1_545 S
H1211 C1189 0.951 1_545 S
C1212 C1213 1.349 . S
C1212 C1214 1.327 . S
C1212 H1237 0.950 . S
C1213 C1212 1.349 . S
C1213 C1229 1.349 . S
C1214 C1212 1.327 . S
C1214 C1233 1.429 . S
C1214 H1238 0.950 1_554 S
C1215 C1232 1.574 . S
C1215 C1234 1.368 . S
C1215 H1239 0.949 . S
H1216 C1220 0.949 . S
C1217 C1218 1.349 . S
C1217 C1219 1.327 . S
C1217 H1240 0.950 . S
C1218 C1217 1.349 . S
C1218 C1230 1.349 . S
C1219 C1217 1.327 . S
C1219 C1235 1.429 . S
C1219 H1241 0.950 1_556 S
C1220 H1216 0.949 . S
C1220 C1228 1.574 . S
C1220 C1236 1.368 . S
H1221 C1229 0.950 . S
H1222 C1227 0.950 . S
H1223 C1228 0.949 . S
H1224 C1230 0.950 . S
H1225 C1231 0.950 . S
H1226 C1232 0.949 . S
C1227 H1222 0.950 . S
C1227 C1229 1.327 . S
C1227 C1233 1.429 . S
C1228 C1220 1.574 . S
C1228 H1223 0.949 . S
C1228 C1234 1.368 1_556 S
C1229 C1213 1.349 . S
C1229 H1221 0.950 . S
C1229 C1227 1.327 . S
C1230 C1218 1.349 . S
C1230 H1224 0.950 . S
C1230 C1231 1.327 . S
C1231 H1225 0.950 . S
C1231 C1230 1.327 . S
C1231 C1235 1.429 . S
C1232 C1215 1.574 . S
C1232 H1226 0.949 . S
C1232 C1236 1.368 1_554 S
C1233 C1214 1.429 . S
C1233 C1227 1.429 . S
C1233 C1234 1.523 . S
C1234 C1215 1.368 . S
C1234 C1228 1.368 1_554 S
C1234 C1233 1.523 . S
C1235 C1219 1.429 . S
C1235 C1231 1.429 . S
C1235 C1236 1.523 . S
C1236 C1220 1.368 . S
C1236 C1232 1.368 1_556 S
C1236 C1235 1.523 . S
H1237 C1212 0.950 . S
H1238 C1214 0.950 1_556 S
H1239 C1215 0.949 . S
H1240 C1217 0.950 . S
H1241 C1219 0.950 1_554 S
C1242 C1243 1.349 . S
C1242 C1244 1.327 . S
C1242 H1267 0.950 . S
C1243 C1242 1.349 . S
C1243 C1259 1.349 . S
C1244 C1242 1.327 . S
C1244 C1263 1.429 . S
C1244 H1268 0.950 . S
C1245 C1262 1.574 . S
C1245 C1264 1.368 . S
C1245 H1269 0.949 . S
H1246 C1250 0.949 . S
C1247 C1248 1.349 . S
C1247 C1249 1.327 . S
C1247 H1270 0.950 . S
C1248 C1247 1.349 . S
C1248 C1260 1.349 . S
C1249 C1247 1.327 . S
C1249 C1265 1.429 . S
C1249 H1271 0.950 . S
C1250 H1246 0.949 . S
C1250 C1258 1.574 . S
C1250 C1266 1.368 . S
H1251 C1259 0.950 . S
H1252 C1257 0.950 . S
H1253 C1258 0.949 . S
H1254 C1260 0.950 . S
H1255 C1261 0.950 . S
H1256 C1262 0.949 . S
C1257 H1252 0.950 . S
C1257 C1259 1.327 . S
C1257 C1263 1.429 . S
C1258 C1250 1.574 . S
C1258 H1253 0.949 . S
C1258 C1264 1.368 . S
C1259 C1243 1.349 . S
C1259 H1251 0.950 . S
C1259 C1257 1.327 . S
C1260 C1248 1.349 . S
C1260 H1254 0.950 . S
C1260 C1261 1.327 . S
C1261 H1255 0.950 . S
C1261 C1260 1.327 . S
C1261 C1265 1.429 . S
C1262 C1245 1.574 . S
C1262 H1256 0.949 . S
C1262 C1266 1.368 . S
C1263 C1244 1.429 . S
C1263 C1257 1.429 . S
C1263 C1264 1.523 . S
C1264 C1245 1.368 . S
C1264 C1258 1.368 . S
C1264 C1263 1.523 . S
C1265 C1249 1.429 . S
C1265 C1261 1.429 . S
C1265 C1266 1.523 . S
C1266 C1250 1.368 . S
C1266 C1262 1.368 . S
C1266 C1265 1.523 . S
H1267 C1242 0.950 . S
H1268 C1244 0.950 . S
H1269 C1245 0.949 . S
H1270 C1247 0.950 . S
H1271 C1249 0.950 . S
C1272 C1273 1.349 . S
C1272 C1274 1.327 . S
C1272 H1297 0.950 . S
C1273 C1272 1.349 . S
C1273 C1289 1.349 . S
C1274 C1272 1.327 . S
C1274 C1293 1.429 . S
C1274 H1298 0.950 . S
C1275 C1292 1.574 . S
C1275 C1294 1.368 . S
C1275 H1299 0.949 . S
H1276 C1280 0.949 . S
C1277 C1278 1.349 . S
C1277 C1279 1.327 . S
C1277 H1300 0.950 . S
C1278 C1277 1.349 . S
C1278 C1290 1.349 . S
C1279 C1277 1.327 . S
C1279 C1295 1.429 . S
C1279 H1301 0.950 . S
C1280 H1276 0.949 . S
C1280 C1288 1.574 . S
C1280 C1296 1.368 . S
H1281 C1289 0.950 . S
H1282 C1287 0.950 . S
H1283 C1288 0.949 . S
H1284 C1290 0.950 . S
H1285 C1291 0.950 . S
H1286 C1292 0.949 . S
C1287 H1282 0.950 . S
C1287 C1289 1.327 . S
C1287 C1293 1.429 . S
C1288 C1280 1.574 . S
C1288 H1283 0.949 . S
C1288 C1294 1.368 . S
C1289 C1273 1.349 . S
C1289 H1281 0.950 . S
C1289 C1287 1.327 . S
C1290 C1278 1.349 . S
C1290 H1284 0.950 . S
C1290 C1291 1.327 . S
C1291 H1285 0.950 . S
C1291 C1290 1.327 . S
C1291 C1295 1.429 . S
C1292 C1275 1.574 . S
C1292 H1286 0.949 . S
C1292 C1296 1.368 . S
C1293 C1274 1.429 . S
C1293 C1287 1.429 . S
C1293 C1294 1.523 . S
C1294 C1275 1.368 . S
C1294 C1288 1.368 . S
C1294 C1293 1.523 . S
C1295 C1279 1.429 . S
C1295 C1291 1.429 . S
C1295 C1296 1.523 . S
C1296 C1280 1.368 . S
C1296 C1292 1.368 . S
C1296 C1295 1.523 . S
H1297 C1272 0.950 . S
H1298 C1274 0.950 . S
H1299 C1275 0.949 . S
H1300 C1277 0.950 . S
H1301 C1279 0.950 . S
C1302 C1303 1.349 . S
C1302 C1304 1.327 . S
C1302 H1327 0.950 . S
C1303 C1302 1.349 . S
C1303 C1319 1.349 . S
C1304 C1302 1.327 . S
C1304 C1323 1.429 . S
C1304 H1328 0.950 . S
C1305 C1322 1.574 . S
C1305 C1324 1.368 . S
C1305 H1329 0.949 . S
H1306 C1310 0.949 . S
C1307 C1308 1.349 . S
C1307 C1309 1.327 . S
C1307 H1330 0.950 . S
C1308 C1307 1.349 . S
C1308 C1320 1.349 . S
C1309 C1307 1.327 . S
C1309 C1325 1.429 . S
C1309 H1331 0.950 . S
C1310 H1306 0.949 . S
C1310 C1318 1.574 . S
C1310 C1326 1.368 . S
H1311 C1319 0.950 . S
H1312 C1317 0.950 . S
H1313 C1318 0.949 . S
H1314 C1320 0.950 . S
H1315 C1321 0.950 . S
H1316 C1322 0.949 . S
C1317 H1312 0.950 . S
C1317 C1319 1.327 . S
C1317 C1323 1.429 . S
C1318 C1310 1.574 . S
C1318 H1313 0.949 . S
C1318 C1324 1.368 . S
C1319 C1303 1.349 . S
C1319 H1311 0.950 . S
C1319 C1317 1.327 . S
C1320 C1308 1.349 . S
C1320 H1314 0.950 . S
C1320 C1321 1.327 . S
C1321 H1315 0.950 . S
C1321 C1320 1.327 . S
C1321 C1325 1.429 . S
C1322 C1305 1.574 . S
C1322 H1316 0.949 . S
C1322 C1326 1.368 . S
C1323 C1304 1.429 . S
C1323 C1317 1.429 . S
C1323 C1324 1.523 . S
C1324 C1305 1.368 . S
C1324 C1318 1.368 . S
C1324 C1323 1.523 . S
C1325 C1309 1.429 . S
C1325 C1321 1.429 . S
C1325 C1326 1.523 . S
C1326 C1310 1.368 . S
C1326 C1322 1.368 . S
C1326 C1325 1.523 . S
H1327 C1302 0.950 . S
H1328 C1304 0.950 . S
H1329 C1305 0.949 . S
H1330 C1307 0.950 . S
H1331 C1309 0.950 . S
C1332 C1333 1.349 . S
C1332 C1334 1.327 . S
C1332 H1357 0.950 . S
C1333 C1332 1.349 . S
C1333 C1349 1.349 . S
C1334 C1332 1.327 . S
C1334 C1353 1.429 . S
C1334 H1358 0.950 1_545 S
C1335 C1352 1.574 . S
C1335 C1354 1.368 . S
C1335 H1359 0.949 . S
H1336 C1340 0.949 . S
C1337 C1338 1.349 . S
C1337 C1339 1.327 . S
C1337 H1360 0.950 . S
C1338 C1337 1.349 . S
C1338 C1350 1.349 . S
C1339 C1337 1.327 . S
C1339 C1355 1.429 . S
C1339 H1361 0.950 1_565 S
C1340 H1336 0.949 . S
C1340 C1348 1.574 . S
C1340 C1356 1.368 . S
H1341 C1349 0.950 . S
H1342 C1347 0.950 . S
H1343 C1348 0.949 . S
H1344 C1350 0.950 . S
H1345 C1351 0.950 . S
H1346 C1352 0.949 . S
C1347 H1342 0.950 . S
C1347 C1349 1.327 . S
C1347 C1353 1.429 . S
C1348 C1340 1.574 . S
C1348 H1343 0.949 . S
C1348 C1354 1.368 1_565 S
C1349 C1333 1.349 . S
C1349 H1341 0.950 . S
C1349 C1347 1.327 . S
C1350 C1338 1.349 . S
C1350 H1344 0.950 . S
C1350 C1351 1.327 . S
C1351 H1345 0.950 . S
C1351 C1350 1.327 . S
C1351 C1355 1.429 . S
C1352 C1335 1.574 . S
C1352 H1346 0.949 . S
C1352 C1356 1.368 1_545 S
C1353 C1334 1.429 . S
C1353 C1347 1.429 . S
C1353 C1354 1.523 . S
C1354 C1335 1.368 . S
C1354 C1348 1.368 1_545 S
C1354 C1353 1.523 . S
C1355 C1339 1.429 . S
C1355 C1351 1.429 . S
C1355 C1356 1.523 . S
C1356 C1340 1.368 . S
C1356 C1352 1.368 1_565 S
C1356 C1355 1.523 . S
H1357 C1332 0.950 . S
H1358 C1334 0.950 1_565 S
H1359 C1335 0.949 . S
H1360 C1337 0.950 . S
H1361 C1339 0.950 1_545 S
C1362 C1363 1.349 . S
C1362 C1364 1.327 . S
C1362 H1387 0.950 . S
C1363 C1362 1.349 . S
C1363 C1379 1.349 . S
C1364 C1362 1.327 . S
C1364 C1383 1.429 . S
C1364 H1388 0.950 . S
C1365 C1382 1.574 . S
C1365 C1384 1.368 1_556 S
C1365 H1389 0.949 . S
H1366 C1370 0.949 . S
C1367 C1368 1.349 . S
C1367 C1369 1.327 . S
C1367 H1390 0.950 . S
C1368 C1367 1.349 . S
C1368 C1380 1.349 . S
C1369 C1367 1.327 . S
C1369 C1385 1.429 . S
C1369 H1391 0.950 . S
C1370 H1366 0.949 . S
C1370 C1378 1.574 . S
C1370 C1386 1.368 1_554 S
H1371 C1379 0.950 . S
H1372 C1377 0.950 1_556 S
H1373 C1378 0.949 . S
H1374 C1380 0.950 . S
H1375 C1381 0.950 1_554 S
H1376 C1382 0.949 . S
C1377 H1372 0.950 1_554 S
C1377 C1379 1.327 . S
C1377 C1383 1.429 . S
C1378 C1370 1.574 . S
C1378 H1373 0.949 . S
C1378 C1384 1.368 . S
C1379 C1363 1.349 . S
C1379 H1371 0.950 . S
C1379 C1377 1.327 . S
C1380 C1368 1.349 . S
C1380 H1374 0.950 . S
C1380 C1381 1.327 . S
C1381 H1375 0.950 1_556 S
C1381 C1380 1.327 . S
C1381 C1385 1.429 . S
C1382 C1365 1.574 . S
C1382 H1376 0.949 . S
C1382 C1386 1.368 . S
C1383 C1364 1.429 . S
C1383 C1377 1.429 . S
C1383 C1384 1.523 . S
C1384 C1365 1.368 1_554 S
C1384 C1378 1.368 . S
C1384 C1383 1.523 . S
C1385 C1369 1.429 . S
C1385 C1381 1.429 . S
C1385 C1386 1.523 . S
C1386 C1370 1.368 1_556 S
C1386 C1382 1.368 . S
C1386 C1385 1.523 . S
H1387 C1362 0.950 . S
H1388 C1364 0.950 . S
H1389 C1365 0.949 . S
H1390 C1367 0.950 . S
H1391 C1369 0.950 . S
C1392 C1393 1.349 . S
C1392 C1394 1.327 . S
C1392 H1417 0.950 . S
C1393 C1392 1.349 . S
C1393 C1409 1.349 . S
C1394 C1392 1.327 . S
C1394 C1413 1.429 . S
C1394 H1418 0.950 . S
C1395 C1412 1.574 . S
C1395 C1414 1.368 . S
C1395 H1419 0.949 . S
H1396 C1400 0.949 . S
C1397 C1398 1.349 . S
C1397 C1399 1.327 . S
C1397 H1420 0.950 . S
C1398 C1397 1.349 . S
C1398 C1410 1.349 . S
C1399 C1397 1.327 . S
C1399 C1415 1.429 . S
C1399 H1421 0.950 . S
C1400 H1396 0.949 . S
C1400 C1408 1.574 . S
C1400 C1416 1.368 . S
H1401 C1409 0.950 . S
H1402 C1407 0.950 . S
H1403 C1408 0.949 . S
H1404 C1410 0.950 . S
H1405 C1411 0.950 . S
H1406 C1412 0.949 . S
C1407 H1402 0.950 . S
C1407 C1409 1.327 . S
C1407 C1413 1.429 . S
C1408 C1400 1.574 . S
C1408 H1403 0.949 . S
C1408 C1414 1.368 . S
C1409 C1393 1.349 . S
C1409 H1401 0.950 . S
C1409 C1407 1.327 . S
C1410 C1398 1.349 . S
C1410 H1404 0.950 . S
C1410 C1411 1.327 . S
C1411 H1405 0.950 . S
C1411 C1410 1.327 . S
C1411 C1415 1.429 . S
C1412 C1395 1.574 . S
C1412 H1406 0.949 . S
C1412 C1416 1.368 . S
C1413 C1394 1.429 . S
C1413 C1407 1.429 . S
C1413 C1414 1.523 . S
C1414 C1395 1.368 . S
C1414 C1408 1.368 . S
C1414 C1413 1.523 . S
C1415 C1399 1.429 . S
C1415 C1411 1.429 . S
C1415 C1416 1.523 . S
C1416 C1400 1.368 . S
C1416 C1412 1.368 . S
C1416 C1415 1.523 . S
H1417 C1392 0.950 . S
H1418 C1394 0.950 . S
H1419 C1395 0.949 . S
H1420 C1397 0.950 . S
H1421 C1399 0.950 . S
C1422 C1423 1.349 . S
C1422 C1424 1.327 . S
C1422 H1447 0.950 . S
C1423 C1422 1.349 . S
C1423 C1439 1.349 . S
C1424 C1422 1.327 . S
C1424 C1443 1.429 . S
C1424 H1448 0.950 . S
C1425 C1442 1.574 . S
C1425 C1444 1.368 . S
C1425 H1449 0.949 . S
H1426 C1430 0.949 . S
C1427 C1428 1.349 . S
C1427 C1429 1.327 . S
C1427 H1450 0.950 . S
C1428 C1427 1.349 . S
C1428 C1440 1.349 . S
C1429 C1427 1.327 . S
C1429 C1445 1.429 . S
C1429 H1451 0.950 . S
C1430 H1426 0.949 . S
C1430 C1438 1.574 . S
C1430 C1446 1.368 . S
H1431 C1439 0.950 . S
H1432 C1437 0.950 . S
H1433 C1438 0.949 . S
H1434 C1440 0.950 . S
H1435 C1441 0.950 . S
H1436 C1442 0.949 . S
C1437 H1432 0.950 . S
C1437 C1439 1.327 . S
C1437 C1443 1.429 . S
C1438 C1430 1.574 . S
C1438 H1433 0.949 . S
C1438 C1444 1.368 . S
C1439 C1423 1.349 . S
C1439 H1431 0.950 . S
C1439 C1437 1.327 . S
C1440 C1428 1.349 . S
C1440 H1434 0.950 . S
C1440 C1441 1.327 . S
C1441 H1435 0.950 . S
C1441 C1440 1.327 . S
C1441 C1445 1.429 . S
C1442 C1425 1.574 . S
C1442 H1436 0.949 . S
C1442 C1446 1.368 . S
C1443 C1424 1.429 . S
C1443 C1437 1.429 . S
C1443 C1444 1.523 . S
C1444 C1425 1.368 . S
C1444 C1438 1.368 . S
C1444 C1443 1.523 . S
C1445 C1429 1.429 . S
C1445 C1441 1.429 . S
C1445 C1446 1.523 . S
C1446 C1430 1.368 . S
C1446 C1442 1.368 . S
C1446 C1445 1.523 . S
H1447 C1422 0.950 . S
H1448 C1424 0.950 . S
H1449 C1425 0.949 . S
H1450 C1427 0.950 . S
H1451 C1429 0.950 . S
C1452 C1453 1.349 . S
C1452 C1454 1.327 . S
C1452 H1477 0.950 . S
C1453 C1452 1.349 . S
C1453 C1469 1.349 . S
C1454 C1452 1.327 . S
C1454 C1473 1.429 . S
C1454 H1478 0.950 . S
C1455 C1472 1.574 . S
C1455 C1474 1.368 . S
C1455 H1479 0.949 . S
H1456 C1460 0.949 . S
C1457 C1458 1.349 . S
C1457 C1459 1.327 . S
C1457 H1480 0.950 . S
C1458 C1457 1.349 . S
C1458 C1470 1.349 . S
C1459 C1457 1.327 . S
C1459 C1475 1.429 . S
C1459 H1481 0.950 . S
C1460 H1456 0.949 . S
C1460 C1468 1.574 . S
C1460 C1476 1.368 . S
H1461 C1469 0.950 . S
H1462 C1467 0.950 . S
H1463 C1468 0.949 . S
H1464 C1470 0.950 . S
H1465 C1471 0.950 . S
H1466 C1472 0.949 . S
C1467 H1462 0.950 . S
C1467 C1469 1.327 . S
C1467 C1473 1.429 . S
C1468 C1460 1.574 . S
C1468 H1463 0.949 . S
C1468 C1474 1.368 . S
C1469 C1453 1.349 . S
C1469 H1461 0.950 . S
C1469 C1467 1.327 . S
C1470 C1458 1.349 . S
C1470 H1464 0.950 . S
C1470 C1471 1.327 . S
C1471 H1465 0.950 . S
C1471 C1470 1.327 . S
C1471 C1475 1.429 . S
C1472 C1455 1.574 . S
C1472 H1466 0.949 . S
C1472 C1476 1.368 . S
C1473 C1454 1.429 . S
C1473 C1467 1.429 . S
C1473 C1474 1.523 . S
C1474 C1455 1.368 . S
C1474 C1468 1.368 . S
C1474 C1473 1.523 . S
C1475 C1459 1.429 . S
C1475 C1471 1.429 . S
C1475 C1476 1.523 . S
C1476 C1460 1.368 . S
C1476 C1472 1.368 . S
C1476 C1475 1.523 . S
H1477 C1452 0.950 . S
H1478 C1454 0.950 . S
H1479 C1455 0.949 . S
H1480 C1457 0.950 . S
H1481 C1459 0.950 . S
C1482 C1483 1.349 . S
C1482 C1484 1.327 . S
C1482 H1507 0.950 . S
C1483 C1482 1.349 . S
C1483 C1499 1.349 . S
C1484 C1482 1.327 . S
C1484 C1503 1.429 . S
C1484 H1508 0.950 . S
C1485 C1502 1.574 . S
C1485 C1504 1.368 . S
C1485 H1509 0.949 . S
H1486 C1490 0.949 . S
C1487 C1488 1.349 . S
C1487 C1489 1.327 . S
C1487 H1510 0.950 . S
C1488 C1487 1.349 . S
C1488 C1500 1.349 . S
C1489 C1487 1.327 . S
C1489 C1505 1.429 . S
C1489 H1511 0.950 . S
C1490 H1486 0.949 . S
C1490 C1498 1.574 . S
C1490 C1506 1.368 . S
H1491 C1499 0.950 . S
H1492 C1497 0.950 . S
H1493 C1498 0.949 . S
H1494 C1500 0.950 . S
H1495 C1501 0.950 . S
H1496 C1502 0.949 . S
C1497 H1492 0.950 . S
C1497 C1499 1.327 . S
C1497 C1503 1.429 . S
C1498 C1490 1.574 . S
C1498 H1493 0.949 . S
C1498 C1504 1.368 . S
C1499 C1483 1.349 . S
C1499 H1491 0.950 . S
C1499 C1497 1.327 . S
C1500 C1488 1.349 . S
C1500 H1494 0.950 . S
C1500 C1501 1.327 . S
C1501 H1495 0.950 . S
C1501 C1500 1.327 . S
C1501 C1505 1.429 . S
C1502 C1485 1.574 . S
C1502 H1496 0.949 . S
C1502 C1506 1.368 . S
C1503 C1484 1.429 . S
C1503 C1497 1.429 . S
C1503 C1504 1.523 . S
C1504 C1485 1.368 . S
C1504 C1498 1.368 . S
C1504 C1503 1.523 . S
C1505 C1489 1.429 . S
C1505 C1501 1.429 . S
C1505 C1506 1.523 . S
C1506 C1490 1.368 . S
C1506 C1502 1.368 . S
C1506 C1505 1.523 . S
H1507 C1482 0.950 . S
H1508 C1484 0.950 . S
H1509 C1485 0.949 . S
H1510 C1487 0.950 . S
H1511 C1489 0.950 . S
C1512 C1513 1.349 . S
C1512 C1514 1.327 . S
C1512 H1537 0.950 . S
C1513 C1512 1.349 . S
C1513 C1529 1.349 . S
C1514 C1512 1.327 . S
C1514 C1533 1.429 . S
C1514 H1538 0.950 . S
C1515 C1532 1.574 . S
C1515 C1534 1.368 . S
C1515 H1539 0.949 . S
H1516 C1520 0.949 . S
C1517 C1518 1.349 . S
C1517 C1519 1.327 . S
C1517 H1540 0.950 . S
C1518 C1517 1.349 . S
C1518 C1530 1.349 . S
C1519 C1517 1.327 . S
C1519 C1535 1.429 . S
C1519 H1541 0.950 . S
C1520 H1516 0.949 . S
C1520 C1528 1.574 . S
C1520 C1536 1.368 . S
H1521 C1529 0.950 . S
H1522 C1527 0.950 . S
H1523 C1528 0.949 . S
H1524 C1530 0.950 . S
H1525 C1531 0.950 . S
H1526 C1532 0.949 . S
C1527 H1522 0.950 . S
C1527 C1529 1.327 . S
C1527 C1533 1.429 . S
C1528 C1520 1.574 . S
C1528 H1523 0.949 . S
C1528 C1534 1.368 . S
C1529 C1513 1.349 . S
C1529 H1521 0.950 . S
C1529 C1527 1.327 . S
C1530 C1518 1.349 . S
C1530 H1524 0.950 . S
C1530 C1531 1.327 . S
C1531 H1525 0.950 . S
C1531 C1530 1.327 . S
C1531 C1535 1.429 . S
C1532 C1515 1.574 . S
C1532 H1526 0.949 . S
C1532 C1536 1.368 . S
C1533 C1514 1.429 . S
C1533 C1527 1.429 . S
C1533 C1534 1.523 . S
C1534 C1515 1.368 . S
C1534 C1528 1.368 . S
C1534 C1533 1.523 . S
C1535 C1519 1.429 . S
C1535 C1531 1.429 . S
C1535 C1536 1.523 . S
C1536 C1520 1.368 . S
C1536 C1532 1.368 . S
C1536 C1535 1.523 . S
H1537 C1512 0.950 . S
H1538 C1514 0.950 . S
H1539 C1515 0.949 . S
H1540 C1517 0.950 . S
H1541 C1519 0.950 . S
C1542 C1543 1.349 . S
C1542 C1544 1.327 . S
C1542 H1567 0.950 . S
C1543 C1542 1.349 . S
C1543 C1559 1.349 . S
C1544 C1542 1.327 . S
C1544 C1563 1.429 . S
C1544 H1568 0.950 . S
C1545 C1562 1.574 . S
C1545 C1564 1.368 . S
C1545 H1569 0.949 . S
H1546 C1550 0.949 . S
C1547 C1548 1.349 . S
C1547 C1549 1.327 . S
C1547 H1570 0.950 . S
C1548 C1547 1.349 . S
C1548 C1560 1.349 . S
C1549 C1547 1.327 . S
C1549 C1565 1.429 . S
C1549 H1571 0.950 . S
C1550 H1546 0.949 . S
C1550 C1558 1.574 . S
C1550 C1566 1.368 . S
H1551 C1559 0.950 . S
H1552 C1557 0.950 . S
H1553 C1558 0.949 . S
H1554 C1560 0.950 . S
H1555 C1561 0.950 . S
H1556 C1562 0.949 . S
C1557 H1552 0.950 . S
C1557 C1559 1.327 . S
C1557 C1563 1.429 . S
C1558 C1550 1.574 . S
C1558 H1553 0.949 . S
C1558 C1564 1.368 . S
C1559 C1543 1.349 . S
C1559 H1551 0.950 . S
C1559 C1557 1.327 . S
C1560 C1548 1.349 . S
C1560 H1554 0.950 . S
C1560 C1561 1.327 . S
C1561 H1555 0.950 . S
C1561 C1560 1.327 . S
C1561 C1565 1.429 . S
C1562 C1545 1.574 . S
C1562 H1556 0.949 . S
C1562 C1566 1.368 . S
C1563 C1544 1.429 . S
C1563 C1557 1.429 . S
C1563 C1564 1.523 . S
C1564 C1545 1.368 . S
C1564 C1558 1.368 . S
C1564 C1563 1.523 . S
C1565 C1549 1.429 . S
C1565 C1561 1.429 . S
C1565 C1566 1.523 . S
C1566 C1550 1.368 . S
C1566 C1562 1.368 . S
C1566 C1565 1.523 . S
H1567 C1542 0.950 . S
H1568 C1544 0.950 . S
H1569 C1545 0.949 . S
H1570 C1547 0.950 . S
H1571 C1549 0.950 . S
C1572 C1573 1.349 . S
C1572 C1574 1.327 . S
C1572 H1597 0.950 . S
C1573 C1572 1.349 . S
C1573 C1589 1.349 . S
C1574 C1572 1.327 . S
C1574 C1593 1.429 . S
C1574 H1598 0.950 . S
C1575 C1592 1.574 . S
C1575 C1594 1.368 . S
C1575 H1599 0.949 . S
H1576 C1580 0.949 . S
C1577 C1578 1.349 . S
C1577 C1579 1.327 . S
C1577 H1600 0.950 . S
C1578 C1577 1.349 . S
C1578 C1590 1.349 . S
C1579 C1577 1.327 . S
C1579 C1595 1.429 . S
C1579 H1601 0.950 . S
C1580 H1576 0.949 . S
C1580 C1588 1.574 . S
C1580 C1596 1.368 . S
H1581 C1589 0.950 . S
H1582 C1587 0.950 . S
H1583 C1588 0.949 . S
H1584 C1590 0.950 . S
H1585 C1591 0.950 . S
H1586 C1592 0.949 . S
C1587 H1582 0.950 . S
C1587 C1589 1.327 . S
C1587 C1593 1.429 . S
C1588 C1580 1.574 . S
C1588 H1583 0.949 . S
C1588 C1594 1.368 . S
C1589 C1573 1.349 . S
C1589 H1581 0.950 . S
C1589 C1587 1.327 . S
C1590 C1578 1.349 . S
C1590 H1584 0.950 . S
C1590 C1591 1.327 . S
C1591 H1585 0.950 . S
C1591 C1590 1.327 . S
C1591 C1595 1.429 . S
C1592 C1575 1.574 . S
C1592 H1586 0.949 . S
C1592 C1596 1.368 . S
C1593 C1574 1.429 . S
C1593 C1587 1.429 . S
C1593 C1594 1.523 . S
C1594 C1575 1.368 . S
C1594 C1588 1.368 . S
C1594 C1593 1.523 . S
C1595 C1579 1.429 . S
C1595 C1591 1.429 . S
C1595 C1596 1.523 . S
C1596 C1580 1.368 . S
C1596 C1592 1.368 . S
C1596 C1595 1.523 . S
H1597 C1572 0.950 . S
H1598 C1574 0.950 . S
H1599 C1575 0.949 . S
H1600 C1577 0.950 . S
H1601 C1579 0.950 . S
C1602 C1603 1.349 . S
C1602 C1604 1.327 . S
C1602 H1627 0.950 . S
C1603 C1602 1.349 . S
C1603 C1619 1.349 . S
C1604 C1602 1.327 . S
C1604 C1623 1.429 . S
C1604 H1628 0.950 . S
C1605 C1622 1.574 . S
C1605 C1624 1.368 . S
C1605 H1629 0.949 . S
H1606 C1610 0.949 . S
C1607 C1608 1.349 . S
C1607 C1609 1.327 . S
C1607 H1630 0.950 . S
C1608 C1607 1.349 . S
C1608 C1620 1.349 . S
C1609 C1607 1.327 . S
C1609 C1625 1.429 . S
C1609 H1631 0.950 . S
C1610 H1606 0.949 . S
C1610 C1618 1.574 . S
C1610 C1626 1.368 . S
H1611 C1619 0.950 . S
H1612 C1617 0.950 . S
H1613 C1618 0.949 . S
H1614 C1620 0.950 . S
H1615 C1621 0.950 . S
H1616 C1622 0.949 . S
C1617 H1612 0.950 . S
C1617 C1619 1.327 . S
C1617 C1623 1.429 . S
C1618 C1610 1.574 . S
C1618 H1613 0.949 . S
C1618 C1624 1.368 . S
C1619 C1603 1.349 . S
C1619 H1611 0.950 . S
C1619 C1617 1.327 . S
C1620 C1608 1.349 . S
C1620 H1614 0.950 . S
C1620 C1621 1.327 . S
C1621 H1615 0.950 . S
C1621 C1620 1.327 . S
C1621 C1625 1.429 . S
C1622 C1605 1.574 . S
C1622 H1616 0.949 . S
C1622 C1626 1.368 . S
C1623 C1604 1.429 . S
C1623 C1617 1.429 . S
C1623 C1624 1.523 . S
C1624 C1605 1.368 . S
C1624 C1618 1.368 . S
C1624 C1623 1.523 . S
C1625 C1609 1.429 . S
C1625 C1621 1.429 . S
C1625 C1626 1.523 . S
C1626 C1610 1.368 . S
C1626 C1622 1.368 . S
C1626 C1625 1.523 . S
H1627 C1602 0.950 . S
H1628 C1604 0.950 . S
H1629 C1605 0.949 . S
H1630 C1607 0.950 . S
H1631 C1609 0.950 . S
C1632 C1633 1.349 . S
C1632 C1634 1.327 . S
C1632 H1657 0.950 . S
C1633 C1632 1.349 . S
C1633 C1649 1.349 . S
C1634 C1632 1.327 . S
C1634 C1653 1.429 . S
C1634 H1658 0.950 . S
C1635 C1652 1.574 . S
C1635 C1654 1.368 . S
C1635 H1659 0.949 . S
H1636 C1640 0.949 . S
C1637 C1638 1.349 . S
C1637 C1639 1.327 . S
C1637 H1660 0.950 . S
C1638 C1637 1.349 . S
C1638 C1650 1.349 . S
C1639 C1637 1.327 . S
C1639 C1655 1.429 . S
C1639 H1661 0.950 . S
C1640 H1636 0.949 . S
C1640 C1648 1.574 . S
C1640 C1656 1.368 . S
H1641 C1649 0.950 . S
H1642 C1647 0.950 . S
H1643 C1648 0.949 . S
H1644 C1650 0.950 . S
H1645 C1651 0.950 . S
H1646 C1652 0.949 . S
C1647 H1642 0.950 . S
C1647 C1649 1.327 . S
C1647 C1653 1.429 . S
C1648 C1640 1.574 . S
C1648 H1643 0.949 . S
C1648 C1654 1.368 . S
C1649 C1633 1.349 . S
C1649 H1641 0.950 . S
C1649 C1647 1.327 . S
C1650 C1638 1.349 . S
C1650 H1644 0.950 . S
C1650 C1651 1.327 . S
C1651 H1645 0.950 . S
C1651 C1650 1.327 . S
C1651 C1655 1.429 . S
C1652 C1635 1.574 . S
C1652 H1646 0.949 . S
C1652 C1656 1.368 . S
C1653 C1634 1.429 . S
C1653 C1647 1.429 . S
C1653 C1654 1.523 . S
C1654 C1635 1.368 . S
C1654 C1648 1.368 . S
C1654 C1653 1.523 . S
C1655 C1639 1.429 . S
C1655 C1651 1.429 . S
C1655 C1656 1.523 . S
C1656 C1640 1.368 . S
C1656 C1652 1.368 . S
C1656 C1655 1.523 . S
H1657 C1632 0.950 . S
H1658 C1634 0.950 . S
H1659 C1635 0.949 . S
H1660 C1637 0.950 . S
H1661 C1639 0.950 . S
C1662 C1663 1.349 . S
C1662 C1664 1.327 . S
C1662 H1687 0.950 . S
C1663 C1662 1.349 . S
C1663 C1679 1.349 . S
C1664 C1662 1.327 . S
C1664 C1683 1.429 . S
C1664 H1688 0.950 . S
C1665 C1682 1.574 . S
C1665 C1684 1.368 . S
C1665 H1689 0.949 . S
H1666 C1670 0.949 . S
C1667 C1668 1.349 . S
C1667 C1669 1.327 . S
C1667 H1690 0.950 . S
C1668 C1667 1.349 . S
C1668 C1680 1.349 . S
C1669 C1667 1.327 . S
C1669 C1685 1.429 . S
C1669 H1691 0.950 . S
C1670 H1666 0.949 . S
C1670 C1678 1.574 . S
C1670 C1686 1.368 . S
H1671 C1679 0.950 . S
H1672 C1677 0.950 . S
H1673 C1678 0.949 . S
H1674 C1680 0.950 . S
H1675 C1681 0.950 . S
H1676 C1682 0.949 . S
C1677 H1672 0.950 . S
C1677 C1679 1.327 . S
C1677 C1683 1.429 . S
C1678 C1670 1.574 . S
C1678 H1673 0.949 . S
C1678 C1684 1.368 . S
C1679 C1663 1.349 . S
C1679 H1671 0.950 . S
C1679 C1677 1.327 . S
C1680 C1668 1.349 . S
C1680 H1674 0.950 . S
C1680 C1681 1.327 . S
C1681 H1675 0.950 . S
C1681 C1680 1.327 . S
C1681 C1685 1.429 . S
C1682 C1665 1.574 . S
C1682 H1676 0.949 . S
C1682 C1686 1.368 . S
C1683 C1664 1.429 . S
C1683 C1677 1.429 . S
C1683 C1684 1.523 . S
C1684 C1665 1.368 . S
C1684 C1678 1.368 . S
C1684 C1683 1.523 . S
C1685 C1669 1.429 . S
C1685 C1681 1.429 . S
C1685 C1686 1.523 . S
C1686 C1670 1.368 . S
C1686 C1682 1.368 . S
C1686 C1685 1.523 . S
H1687 C1662 0.950 . S
H1688 C1664 0.950 . S
H1689 C1665 0.949 . S
H1690 C1667 0.950 . S
H1691 C1669 0.950 . S
C1692 C1693 1.349 . S
C1692 C1694 1.327 . S
C1692 H1717 0.950 . S
C1693 C1692 1.349 . S
C1693 C1709 1.349 . S
C1694 C1692 1.327 . S
C1694 C1713 1.429 . S
C1694 H1718 0.950 . S
C1695 C1712 1.574 . S
C1695 C1714 1.368 . S
C1695 H1719 0.949 . S
H1696 C1700 0.949 . S
C1697 C1698 1.349 . S
C1697 C1699 1.327 . S
C1697 H1720 0.950 . S
C1698 C1697 1.349 . S
C1698 C1710 1.349 . S
C1699 C1697 1.327 . S
C1699 C1715 1.429 . S
C1699 H1721 0.950 . S
C1700 H1696 0.949 . S
C1700 C1708 1.574 . S
C1700 C1716 1.368 . S
H1701 C1709 0.950 . S
H1702 C1707 0.950 . S
H1703 C1708 0.949 . S
H1704 C1710 0.950 . S
H1705 C1711 0.950 . S
H1706 C1712 0.949 . S
C1707 H1702 0.950 . S
C1707 C1709 1.327 . S
C1707 C1713 1.429 . S
C1708 C1700 1.574 . S
C1708 H1703 0.949 . S
C1708 C1714 1.368 . S
C1709 C1693 1.349 . S
C1709 H1701 0.950 . S
C1709 C1707 1.327 . S
C1710 C1698 1.349 . S
C1710 H1704 0.950 . S
C1710 C1711 1.327 . S
C1711 H1705 0.950 . S
C1711 C1710 1.327 . S
C1711 C1715 1.429 . S
C1712 C1695 1.574 . S
C1712 H1706 0.949 . S
C1712 C1716 1.368 . S
C1713 C1694 1.429 . S
C1713 C1707 1.429 . S
C1713 C1714 1.523 . S
C1714 C1695 1.368 . S
C1714 C1708 1.368 . S
C1714 C1713 1.523 . S
C1715 C1699 1.429 . S
C1715 C1711 1.429 . S
C1715 C1716 1.523 . S
C1716 C1700 1.368 . S
C1716 C1712 1.368 . S
C1716 C1715 1.523 . S
H1717 C1692 0.950 . S
H1718 C1694 0.950 . S
H1719 C1695 0.949 . S
H1720 C1697 0.950 . S
H1721 C1699 0.950 . S
C1722 C1723 1.349 . S
C1722 C1724 1.327 . S
C1722 H1747 0.950 . S
C1723 C1722 1.349 . S
C1723 C1739 1.349 . S
C1724 C1722 1.327 . S
C1724 C1743 1.429 . S
C1724 H1748 0.950 . S
C1725 C1742 1.574 . S
C1725 C1744 1.368 . S
C1725 H1749 0.949 . S
H1726 C1730 0.949 . S
C1727 C1728 1.349 . S
C1727 C1729 1.327 . S
C1727 H1750 0.950 . S
C1728 C1727 1.349 . S
C1728 C1740 1.349 . S
C1729 C1727 1.327 . S
C1729 C1745 1.429 . S
C1729 H1751 0.950 . S
C1730 H1726 0.949 . S
C1730 C1738 1.574 . S
C1730 C1746 1.368 . S
H1731 C1739 0.950 . S
H1732 C1737 0.950 . S
H1733 C1738 0.949 . S
H1734 C1740 0.950 . S
H1735 C1741 0.950 . S
H1736 C1742 0.949 . S
C1737 H1732 0.950 . S
C1737 C1739 1.327 . S
C1737 C1743 1.429 . S
C1738 C1730 1.574 . S
C1738 H1733 0.949 . S
C1738 C1744 1.368 . S
C1739 C1723 1.349 . S
C1739 H1731 0.950 . S
C1739 C1737 1.327 . S
C1740 C1728 1.349 . S
C1740 H1734 0.950 . S
C1740 C1741 1.327 . S
C1741 H1735 0.950 . S
C1741 C1740 1.327 . S
C1741 C1745 1.429 . S
C1742 C1725 1.574 . S
C1742 H1736 0.949 . S
C1742 C1746 1.368 . S
C1743 C1724 1.429 . S
C1743 C1737 1.429 . S
C1743 C1744 1.523 . S
C1744 C1725 1.368 . S
C1744 C1738 1.368 . S
C1744 C1743 1.523 . S
C1745 C1729 1.429 . S
C1745 C1741 1.429 . S
C1745 C1746 1.523 . S
C1746 C1730 1.368 . S
C1746 C1742 1.368 . S
C1746 C1745 1.523 . S
H1747 C1722 0.950 . S
H1748 C1724 0.950 . S
H1749 C1725 0.949 . S
H1750 C1727 0.950 . S
H1751 C1729 0.950 . S
C1752 C1753 1.349 . S
C1752 C1754 1.327 . S
C1752 H1777 0.950 . S
C1753 C1752 1.349 . S
C1753 C1769 1.349 . S
C1754 C1752 1.327 . S
C1754 C1773 1.429 . S
C1754 H1778 0.950 . S
C1755 C1772 1.574 . S
C1755 C1774 1.368 . S
C1755 H1779 0.949 . S
H1756 C1760 0.949 . S
C1757 C1758 1.349 . S
C1757 C1759 1.327 . S
C1757 H1780 0.950 . S
C1758 C1757 1.349 . S
C1758 C1770 1.349 . S
C1759 C1757 1.327 . S
C1759 C1775 1.429 . S
C1759 H1781 0.950 . S
C1760 H1756 0.949 . S
C1760 C1768 1.574 . S
C1760 C1776 1.368 . S
H1761 C1769 0.950 . S
H1762 C1767 0.950 . S
H1763 C1768 0.949 . S
H1764 C1770 0.950 . S
H1765 C1771 0.950 . S
H1766 C1772 0.949 . S
C1767 H1762 0.950 . S
C1767 C1769 1.327 . S
C1767 C1773 1.429 . S
C1768 C1760 1.574 . S
C1768 H1763 0.949 . S
C1768 C1774 1.368 . S
C1769 C1753 1.349 . S
C1769 H1761 0.950 . S
C1769 C1767 1.327 . S
C1770 C1758 1.349 . S
C1770 H1764 0.950 . S
C1770 C1771 1.327 . S
C1771 H1765 0.950 . S
C1771 C1770 1.327 . S
C1771 C1775 1.429 . S
C1772 C1755 1.574 . S
C1772 H1766 0.949 . S
C1772 C1776 1.368 . S
C1773 C1754 1.429 . S
C1773 C1767 1.429 . S
C1773 C1774 1.523 . S
C1774 C1755 1.368 . S
C1774 C1768 1.368 . S
C1774 C1773 1.523 . S
C1775 C1759 1.429 . S
C1775 C1771 1.429 . S
C1775 C1776 1.523 . S
C1776 C1760 1.368 . S
C1776 C1772 1.368 . S
C1776 C1775 1.523 . S
H1777 C1752 0.950 . S
H1778 C1754 0.950 . S
H1779 C1755 0.949 . S
H1780 C1757 0.950 . S
H1781 C1759 0.950 . S
C1782 C1783 1.349 . S
C1782 C1784 1.327 . S
C1782 H1807 0.950 . S
C1783 C1782 1.349 . S
C1783 C1799 1.349 . S
C1784 C1782 1.327 . S
C1784 C1803 1.429 . S
C1784 H1808 0.950 . S
C1785 C1802 1.574 . S
C1785 C1804 1.368 . S
C1785 H1809 0.949 . S
H1786 C1790 0.949 . S
C1787 C1788 1.349 . S
C1787 C1789 1.327 . S
C1787 H1810 0.950 . S
C1788 C1787 1.349 . S
C1788 C1800 1.349 . S
C1789 C1787 1.327 . S
C1789 C1805 1.429 . S
C1789 H1811 0.950 . S
C1790 H1786 0.949 . S
C1790 C1798 1.574 . S
C1790 C1806 1.368 . S
H1791 C1799 0.950 . S
H1792 C1797 0.950 . S
H1793 C1798 0.949 . S
H1794 C1800 0.950 . S
H1795 C1801 0.950 . S
H1796 C1802 0.949 . S
C1797 H1792 0.950 . S
C1797 C1799 1.327 . S
C1797 C1803 1.429 . S
C1798 C1790 1.574 . S
C1798 H1793 0.949 . S
C1798 C1804 1.368 . S
C1799 C1783 1.349 . S
C1799 H1791 0.950 . S
C1799 C1797 1.327 . S
C1800 C1788 1.349 . S
C1800 H1794 0.950 . S
C1800 C1801 1.327 . S
C1801 H1795 0.950 . S
C1801 C1800 1.327 . S
C1801 C1805 1.429 . S
C1802 C1785 1.574 . S
C1802 H1796 0.949 . S
C1802 C1806 1.368 . S
C1803 C1784 1.429 . S
C1803 C1797 1.429 . S
C1803 C1804 1.523 . S
C1804 C1785 1.368 . S
C1804 C1798 1.368 . S
C1804 C1803 1.523 . S
C1805 C1789 1.429 . S
C1805 C1801 1.429 . S
C1805 C1806 1.523 . S
C1806 C1790 1.368 . S
C1806 C1802 1.368 . S
C1806 C1805 1.523 . S
H1807 C1782 0.950 . S
H1808 C1784 0.950 . S
H1809 C1785 0.949 . S
H1810 C1787 0.950 . S
H1811 C1789 0.950 . S
C1812 C1813 1.349 . S
C1812 C1814 1.327 . S
C1812 H1837 0.950 . S
C1813 C1812 1.349 . S
C1813 C1829 1.349 . S
C1814 C1812 1.327 . S
C1814 C1833 1.429 . S
C1814 H1838 0.950 . S
C1815 C1832 1.574 . S
C1815 C1834 1.368 . S
C1815 H1839 0.949 . S
H1816 C1820 0.949 . S
C1817 C1818 1.349 . S
C1817 C1819 1.327 . S
C1817 H1840 0.950 . S
C1818 C1817 1.349 . S
C1818 C1830 1.349 . S
C1819 C1817 1.327 . S
C1819 C1835 1.429 . S
C1819 H1841 0.950 . S
C1820 H1816 0.949 . S
C1820 C1828 1.574 . S
C1820 C1836 1.368 . S
H1821 C1829 0.950 . S
H1822 C1827 0.950 . S
H1823 C1828 0.949 . S
H1824 C1830 0.950 . S
H1825 C1831 0.950 . S
H1826 C1832 0.949 . S
C1827 H1822 0.950 . S
C1827 C1829 1.327 . S
C1827 C1833 1.429 . S
C1828 C1820 1.574 . S
C1828 H1823 0.949 . S
C1828 C1834 1.368 . S
C1829 C1813 1.349 . S
C1829 H1821 0.950 . S
C1829 C1827 1.327 . S
C1830 C1818 1.349 . S
C1830 H1824 0.950 . S
C1830 C1831 1.327 . S
C1831 H1825 0.950 . S
C1831 C1830 1.327 . S
C1831 C1835 1.429 . S
C1832 C1815 1.574 . S
C1832 H1826 0.949 . S
C1832 C1836 1.368 . S
C1833 C1814 1.429 . S
C1833 C1827 1.429 . S
C1833 C1834 1.523 . S
C1834 C1815 1.368 . S
C1834 C1828 1.368 . S
C1834 C1833 1.523 . S
C1835 C1819 1.429 . S
C1835 C1831 1.429 . S
C1835 C1836 1.523 . S
C1836 C1820 1.368 . S
C1836 C1832 1.368 . S
C1836 C1835 1.523 . S
H1837 C1812 0.950 . S
H1838 C1814 0.950 . S
H1839 C1815 0.949 . S
H1840 C1817 0.950 . S
H1841 C1819 0.950 . S
C1842 C1843 1.349 . S
C1842 C1844 1.327 . S
C1842 H1867 0.950 . S
C1843 C1842 1.349 . S
C1843 C1859 1.349 . S
C1844 C1842 1.327 . S
C1844 C1863 1.429 . S
C1844 H1868 0.950 . S
C1845 C1862 1.574 . S
C1845 C1864 1.368 . S
C1845 H1869 0.949 . S
H1846 C1850 0.949 . S
C1847 C1848 1.349 . S
C1847 C1849 1.327 . S
C1847 H1870 0.950 . S
C1848 C1847 1.349 . S
C1848 C1860 1.349 . S
C1849 C1847 1.327 . S
C1849 C1865 1.429 . S
C1849 H1871 0.950 . S
C1850 H1846 0.949 . S
C1850 C1858 1.574 . S
C1850 C1866 1.368 . S
H1851 C1859 0.950 . S
H1852 C1857 0.950 . S
H1853 C1858 0.949 . S
H1854 C1860 0.950 . S
H1855 C1861 0.950 . S
H1856 C1862 0.949 . S
C1857 H1852 0.950 . S
C1857 C1859 1.327 . S
C1857 C1863 1.429 . S
C1858 C1850 1.574 . S
C1858 H1853 0.949 . S
C1858 C1864 1.368 . S
C1859 C1843 1.349 . S
C1859 H1851 0.950 . S
C1859 C1857 1.327 . S
C1860 C1848 1.349 . S
C1860 H1854 0.950 . S
C1860 C1861 1.327 . S
C1861 H1855 0.950 . S
C1861 C1860 1.327 . S
C1861 C1865 1.429 . S
C1862 C1845 1.574 . S
C1862 H1856 0.949 . S
C1862 C1866 1.368 . S
C1863 C1844 1.429 . S
C1863 C1857 1.429 . S
C1863 C1864 1.523 . S
C1864 C1845 1.368 . S
C1864 C1858 1.368 . S
C1864 C1863 1.523 . S
C1865 C1849 1.429 . S
C1865 C1861 1.429 . S
C1865 C1866 1.523 . S
C1866 C1850 1.368 . S
C1866 C1862 1.368 . S
C1866 C1865 1.523 . S
H1867 C1842 0.950 . S
H1868 C1844 0.950 . S
H1869 C1845 0.949 . S
H1870 C1847 0.950 . S
H1871 C1849 0.950 . S
C1872 C1873 1.349 . S
C1872 C1874 1.327 . S
C1872 H1897 0.950 . S
C1873 C1872 1.349 . S
C1873 C1889 1.349 . S
C1874 C1872 1.327 . S
C1874 C1893 1.429 . S
C1874 H1898 0.950 . S
C1875 C1892 1.574 . S
C1875 C1894 1.368 . S
C1875 H1899 0.949 . S
H1876 C1880 0.949 . S
C1877 C1878 1.349 . S
C1877 C1879 1.327 . S
C1877 H1900 0.950 . S
C1878 C1877 1.349 . S
C1878 C1890 1.349 . S
C1879 C1877 1.327 . S
C1879 C1895 1.429 . S
C1879 H1901 0.950 . S
C1880 H1876 0.949 . S
C1880 C1888 1.574 . S
C1880 C1896 1.368 . S
H1881 C1889 0.950 . S
H1882 C1887 0.950 . S
H1883 C1888 0.949 . S
H1884 C1890 0.950 . S
H1885 C1891 0.950 . S
H1886 C1892 0.949 . S
C1887 H1882 0.950 . S
C1887 C1889 1.327 . S
C1887 C1893 1.429 . S
C1888 C1880 1.574 . S
C1888 H1883 0.949 . S
C1888 C1894 1.368 . S
C1889 C1873 1.349 . S
C1889 H1881 0.950 . S
C1889 C1887 1.327 . S
C1890 C1878 1.349 . S
C1890 H1884 0.950 . S
C1890 C1891 1.327 . S
C1891 H1885 0.950 . S
C1891 C1890 1.327 . S
C1891 C1895 1.429 . S
C1892 C1875 1.574 . S
C1892 H1886 0.949 . S
C1892 C1896 1.368 . S
C1893 C1874 1.429 . S
C1893 C1887 1.429 . S
C1893 C1894 1.523 . S
C1894 C1875 1.368 . S
C1894 C1888 1.368 . S
C1894 C1893 1.523 . S
C1895 C1879 1.429 . S
C1895 C1891 1.429 . S
C1895 C1896 1.523 . S
C1896 C1880 1.368 . S
C1896 C1892 1.368 . S
C1896 C1895 1.523 . S
H1897 C1872 0.950 . S
H1898 C1874 0.950 . S
H1899 C1875 0.949 . S
H1900 C1877 0.950 . S
H1901 C1879 0.950 . S
C1902 C1903 1.349 . S
C1902 C1904 1.327 . S
C1902 H1927 0.950 . S
C1903 C1902 1.349 . S
C1903 C1919 1.349 . S
C1904 C1902 1.327 . S
C1904 C1923 1.429 . S
C1904 H1928 0.950 . S
C1905 C1922 1.574 . S
C1905 C1924 1.368 . S
C1905 H1929 0.949 . S
H1906 C1910 0.949 . S
C1907 C1908 1.349 . S
C1907 C1909 1.327 . S
C1907 H1930 0.950 . S
C1908 C1907 1.349 . S
C1908 C1920 1.349 . S
C1909 C1907 1.327 . S
C1909 C1925 1.429 . S
C1909 H1931 0.950 . S
C1910 H1906 0.949 . S
C1910 C1918 1.574 . S
C1910 C1926 1.368 . S
H1911 C1919 0.950 . S
H1912 C1917 0.950 . S
H1913 C1918 0.949 . S
H1914 C1920 0.950 . S
H1915 C1921 0.950 . S
H1916 C1922 0.949 . S
C1917 H1912 0.950 . S
C1917 C1919 1.327 . S
C1917 C1923 1.429 . S
C1918 C1910 1.574 . S
C1918 H1913 0.949 . S
C1918 C1924 1.368 . S
C1919 C1903 1.349 . S
C1919 H1911 0.950 . S
C1919 C1917 1.327 . S
C1920 C1908 1.349 . S
C1920 H1914 0.950 . S
C1920 C1921 1.327 . S
C1921 H1915 0.950 . S
C1921 C1920 1.327 . S
C1921 C1925 1.429 . S
C1922 C1905 1.574 . S
C1922 H1916 0.949 . S
C1922 C1926 1.368 . S
C1923 C1904 1.429 . S
C1923 C1917 1.429 . S
C1923 C1924 1.523 . S
C1924 C1905 1.368 . S
C1924 C1918 1.368 . S
C1924 C1923 1.523 . S
C1925 C1909 1.429 . S
C1925 C1921 1.429 . S
C1925 C1926 1.523 . S
C1926 C1910 1.368 . S
C1926 C1922 1.368 . S
C1926 C1925 1.523 . S
H1927 C1902 0.950 . S
H1928 C1904 0.950 . S
H1929 C1905 0.949 . S
H1930 C1907 0.950 . S
H1931 C1909 0.950 . S
C1932 C1933 1.349 . S
C1932 C1934 1.327 . S
C1932 H1957 0.950 . S
C1933 C1932 1.349 . S
C1933 C1949 1.349 . S
C1934 C1932 1.327 . S
C1934 C1953 1.429 . S
C1934 H1958 0.950 . S
C1935 C1952 1.574 . S
C1935 C1954 1.368 . S
C1935 H1959 0.949 . S
H1936 C1940 0.949 . S
C1937 C1938 1.349 . S
C1937 C1939 1.327 . S
C1937 H1960 0.950 . S
C1938 C1937 1.349 . S
C1938 C1950 1.349 . S
C1939 C1937 1.327 . S
C1939 C1955 1.429 . S
C1939 H1961 0.950 . S
C1940 H1936 0.949 . S
C1940 C1948 1.574 . S
C1940 C1956 1.368 . S
H1941 C1949 0.950 . S
H1942 C1947 0.950 . S
H1943 C1948 0.949 . S
H1944 C1950 0.950 . S
H1945 C1951 0.950 . S
H1946 C1952 0.949 . S
C1947 H1942 0.950 . S
C1947 C1949 1.327 . S
C1947 C1953 1.429 . S
C1948 C1940 1.574 . S
C1948 H1943 0.949 . S
C1948 C1954 1.368 . S
C1949 C1933 1.349 . S
C1949 H1941 0.950 . S
C1949 C1947 1.327 . S
C1950 C1938 1.349 . S
C1950 H1944 0.950 . S
C1950 C1951 1.327 . S
C1951 H1945 0.950 . S
C1951 C1950 1.327 . S
C1951 C1955 1.429 . S
C1952 C1935 1.574 . S
C1952 H1946 0.949 . S
C1952 C1956 1.368 . S
C1953 C1934 1.429 . S
C1953 C1947 1.429 . S
C1953 C1954 1.523 . S
C1954 C1935 1.368 . S
C1954 C1948 1.368 . S
C1954 C1953 1.523 . S
C1955 C1939 1.429 . S
C1955 C1951 1.429 . S
C1955 C1956 1.523 . S
C1956 C1940 1.368 . S
C1956 C1952 1.368 . S
C1956 C1955 1.523 . S
H1957 C1932 0.950 . S
H1958 C1934 0.950 . S
H1959 C1935 0.949 . S
H1960 C1937 0.950 . S
H1961 C1939 0.950 . S
C1962 C1963 1.349 . S
C1962 C1964 1.327 . S
C1962 H1987 0.950 . S
C1963 C1962 1.349 . S
C1963 C1979 1.349 . S
C1964 C1962 1.327 . S
C1964 C1983 1.429 . S
C1964 H1988 0.950 . S
C1965 C1982 1.574 . S
C1965 C1984 1.368 . S
C1965 H1989 0.949 . S
H1966 C1970 0.949 . S
C1967 C1968 1.349 . S
C1967 C1969 1.327 . S
C1967 H1990 0.950 . S
C1968 C1967 1.349 . S
C1968 C1980 1.349 . S
C1969 C1967 1.327 . S
C1969 C1985 1.429 . S
C1969 H1991 0.950 . S
C1970 H1966 0.949 . S
C1970 C1978 1.574 . S
C1970 C1986 1.368 . S
H1971 C1979 0.950 . S
H1972 C1977 0.950 . S
H1973 C1978 0.949 . S
H1974 C1980 0.950 . S
H1975 C1981 0.950 . S
H1976 C1982 0.949 . S
C1977 H1972 0.950 . S
C1977 C1979 1.327 . S
C1977 C1983 1.429 . S
C1978 C1970 1.574 . S
C1978 H1973 0.949 . S
C1978 C1984 1.368 . S
C1979 C1963 1.349 . S
C1979 H1971 0.950 . S
C1979 C1977 1.327 . S
C1980 C1968 1.349 . S
C1980 H1974 0.950 . S
C1980 C1981 1.327 . S
C1981 H1975 0.950 . S
C1981 C1980 1.327 . S
C1981 C1985 1.429 . S
C1982 C1965 1.574 . S
C1982 H1976 0.949 . S
C1982 C1986 1.368 . S
C1983 C1964 1.429 . S
C1983 C1977 1.429 . S
C1983 C1984 1.523 . S
C1984 C1965 1.368 . S
C1984 C1978 1.368 . S
C1984 C1983 1.523 . S
C1985 C1969 1.429 . S
C1985 C1981 1.429 . S
C1985 C1986 1.523 . S
C1986 C1970 1.368 . S
C1986 C1982 1.368 . S
C1986 C1985 1.523 . S
H1987 C1962 0.950 . S
H1988 C1964 0.950 . S
H1989 C1965 0.949 . S
H1990 C1967 0.950 . S
H1991 C1969 0.950 . S
C1992 C1993 1.349 . S
C1992 C1994 1.327 . S
C1992 H2017 0.950 . S
C1993 C1992 1.349 . S
C1993 C2009 1.349 . S
C1994 C1992 1.327 . S
C1994 C2013 1.429 . S
C1994 H2018 0.950 . S
C1995 C2012 1.574 . S
C1995 C2014 1.368 . S
C1995 H2019 0.949 . S
H1996 C2000 0.949 . S
C1997 C1998 1.349 . S
C1997 C1999 1.327 . S
C1997 H2020 0.950 . S
C1998 C1997 1.349 . S
C1998 C2010 1.349 . S
C1999 C1997 1.327 . S
C1999 C2015 1.429 . S
C1999 H2021 0.950 . S
C2000 H1996 0.949 . S
C2000 C2008 1.574 . S
C2000 C2016 1.368 . S
H2001 C2009 0.950 . S
H2002 C2007 0.950 . S
H2003 C2008 0.949 . S
H2004 C2010 0.950 . S
H2005 C2011 0.950 . S
H2006 C2012 0.949 . S
C2007 H2002 0.950 . S
C2007 C2009 1.327 . S
C2007 C2013 1.429 . S
C2008 C2000 1.574 . S
C2008 H2003 0.949 . S
C2008 C2014 1.368 . S
C2009 C1993 1.349 . S
C2009 H2001 0.950 . S
C2009 C2007 1.327 . S
C2010 C1998 1.349 . S
C2010 H2004 0.950 . S
C2010 C2011 1.327 . S
C2011 H2005 0.950 . S
C2011 C2010 1.327 . S
C2011 C2015 1.429 . S
C2012 C1995 1.574 . S
C2012 H2006 0.949 . S
C2012 C2016 1.368 . S
C2013 C1994 1.429 . S
C2013 C2007 1.429 . S
C2013 C2014 1.523 . S
C2014 C1995 1.368 . S
C2014 C2008 1.368 . S
C2014 C2013 1.523 . S
C2015 C1999 1.429 . S
C2015 C2011 1.429 . S
C2015 C2016 1.523 . S
C2016 C2000 1.368 . S
C2016 C2012 1.368 . S
C2016 C2015 1.523 . S
H2017 C1992 0.950 . S
H2018 C1994 0.950 . S
H2019 C1995 0.949 . S
H2020 C1997 0.950 . S
H2021 C1999 0.950 . S
C2022 C2023 1.349 . S
C2022 C2024 1.327 . S
C2022 H2047 0.950 . S
C2023 C2022 1.349 . S
C2023 C2039 1.349 . S
C2024 C2022 1.327 . S
C2024 C2043 1.429 . S
C2024 H2048 0.950 . S
C2025 C2042 1.574 . S
C2025 C2044 1.368 . S
C2025 H2049 0.949 . S
H2026 C2030 0.949 . S
C2027 C2028 1.349 . S
C2027 C2029 1.327 . S
C2027 H2050 0.950 . S
C2028 C2027 1.349 . S
C2028 C2040 1.349 . S
C2029 C2027 1.327 . S
C2029 C2045 1.429 . S
C2029 H2051 0.950 . S
C2030 H2026 0.949 . S
C2030 C2038 1.574 . S
C2030 C2046 1.368 . S
H2031 C2039 0.950 . S
H2032 C2037 0.950 . S
H2033 C2038 0.949 . S
H2034 C2040 0.950 . S
H2035 C2041 0.950 . S
H2036 C2042 0.949 . S
C2037 H2032 0.950 . S
C2037 C2039 1.327 . S
C2037 C2043 1.429 . S
C2038 C2030 1.574 . S
C2038 H2033 0.949 . S
C2038 C2044 1.368 . S
C2039 C2023 1.349 . S
C2039 H2031 0.950 . S
C2039 C2037 1.327 . S
C2040 C2028 1.349 . S
C2040 H2034 0.950 . S
C2040 C2041 1.327 . S
C2041 H2035 0.950 . S
C2041 C2040 1.327 . S
C2041 C2045 1.429 . S
C2042 C2025 1.574 . S
C2042 H2036 0.949 . S
C2042 C2046 1.368 . S
C2043 C2024 1.429 . S
C2043 C2037 1.429 . S
C2043 C2044 1.523 . S
C2044 C2025 1.368 . S
C2044 C2038 1.368 . S
C2044 C2043 1.523 . S
C2045 C2029 1.429 . S
C2045 C2041 1.429 . S
C2045 C2046 1.523 . S
C2046 C2030 1.368 . S
C2046 C2042 1.368 . S
C2046 C2045 1.523 . S
H2047 C2022 0.950 . S
H2048 C2024 0.950 . S
H2049 C2025 0.949 . S
H2050 C2027 0.950 . S
H2051 C2029 0.950 . S
C2052 C2053 1.349 . S
C2052 C2054 1.327 . S
C2052 H2077 0.950 . S
C2053 C2052 1.349 . S
C2053 C2069 1.349 . S
C2054 C2052 1.327 . S
C2054 C2073 1.429 . S
C2054 H2078 0.950 . S
C2055 C2072 1.574 . S
C2055 C2074 1.368 . S
C2055 H2079 0.949 . S
H2056 C2060 0.949 . S
C2057 C2058 1.349 . S
C2057 C2059 1.327 . S
C2057 H2080 0.950 . S
C2058 C2057 1.349 . S
C2058 C2070 1.349 . S
C2059 C2057 1.327 . S
C2059 C2075 1.429 . S
C2059 H2081 0.950 . S
C2060 H2056 0.949 . S
C2060 C2068 1.574 . S
C2060 C2076 1.368 . S
H2061 C2069 0.950 . S
H2062 C2067 0.950 . S
H2063 C2068 0.949 . S
H2064 C2070 0.950 . S
H2065 C2071 0.950 . S
H2066 C2072 0.949 . S
C2067 H2062 0.950 . S
C2067 C2069 1.327 . S
C2067 C2073 1.429 . S
C2068 C2060 1.574 . S
C2068 H2063 0.949 . S
C2068 C2074 1.368 . S
C2069 C2053 1.349 . S
C2069 H2061 0.950 . S
C2069 C2067 1.327 . S
C2070 C2058 1.349 . S
C2070 H2064 0.950 . S
C2070 C2071 1.327 . S
C2071 H2065 0.950 . S
C2071 C2070 1.327 . S
C2071 C2075 1.429 . S
C2072 C2055 1.574 . S
C2072 H2066 0.949 . S
C2072 C2076 1.368 . S
C2073 C2054 1.429 . S
C2073 C2067 1.429 . S
C2073 C2074 1.523 . S
C2074 C2055 1.368 . S
C2074 C2068 1.368 . S
C2074 C2073 1.523 . S
C2075 C2059 1.429 . S
C2075 C2071 1.429 . S
C2075 C2076 1.523 . S
C2076 C2060 1.368 . S
C2076 C2072 1.368 . S
C2076 C2075 1.523 . S
H2077 C2052 0.950 . S
H2078 C2054 0.950 . S
H2079 C2055 0.949 . S
H2080 C2057 0.950 . S
H2081 C2059 0.950 . S
C2082 C2083 1.349 . S
C2082 C2084 1.327 . S
C2082 H2107 0.950 . S
C2083 C2082 1.349 . S
C2083 C2099 1.349 . S
C2084 C2082 1.327 . S
C2084 C2103 1.429 . S
C2084 H2108 0.950 . S
C2085 C2102 1.574 . S
C2085 C2104 1.368 . S
C2085 H2109 0.949 . S
H2086 C2090 0.949 . S
C2087 C2088 1.349 . S
C2087 C2089 1.327 . S
C2087 H2110 0.950 . S
C2088 C2087 1.349 . S
C2088 C2100 1.349 . S
C2089 C2087 1.327 . S
C2089 C2105 1.429 . S
C2089 H2111 0.950 . S
C2090 H2086 0.949 . S
C2090 C2098 1.574 . S
C2090 C2106 1.368 . S
H2091 C2099 0.950 . S
H2092 C2097 0.950 . S
H2093 C2098 0.949 . S
H2094 C2100 0.950 . S
H2095 C2101 0.950 . S
H2096 C2102 0.949 . S
C2097 H2092 0.950 . S
C2097 C2099 1.327 . S
C2097 C2103 1.429 . S
C2098 C2090 1.574 . S
C2098 H2093 0.949 . S
C2098 C2104 1.368 . S
C2099 C2083 1.349 . S
C2099 H2091 0.950 . S
C2099 C2097 1.327 . S
C2100 C2088 1.349 . S
C2100 H2094 0.950 . S
C2100 C2101 1.327 . S
C2101 H2095 0.950 . S
C2101 C2100 1.327 . S
C2101 C2105 1.429 . S
C2102 C2085 1.574 . S
C2102 H2096 0.949 . S
C2102 C2106 1.368 . S
C2103 C2084 1.429 . S
C2103 C2097 1.429 . S
C2103 C2104 1.523 . S
C2104 C2085 1.368 . S
C2104 C2098 1.368 . S
C2104 C2103 1.523 . S
C2105 C2089 1.429 . S
C2105 C2101 1.429 . S
C2105 C2106 1.523 . S
C2106 C2090 1.368 . S
C2106 C2102 1.368 . S
C2106 C2105 1.523 . S
H2107 C2082 0.950 . S
H2108 C2084 0.950 . S
H2109 C2085 0.949 . S
H2110 C2087 0.950 . S
H2111 C2089 0.950 . S
C2112 C2113 1.349 . S
C2112 C2114 1.327 . S
C2112 H2137 0.950 . S
C2113 C2112 1.349 . S
C2113 C2129 1.349 . S
C2114 C2112 1.327 . S
C2114 C2133 1.429 . S
C2114 H2138 0.950 . S
C2115 C2132 1.574 . S
C2115 C2134 1.368 . S
C2115 H2139 0.949 . S
H2116 C2120 0.949 . S
C2117 C2118 1.349 . S
C2117 C2119 1.327 . S
C2117 H2140 0.950 . S
C2118 C2117 1.349 . S
C2118 C2130 1.349 . S
C2119 C2117 1.327 . S
C2119 C2135 1.429 . S
C2119 H2141 0.950 . S
C2120 H2116 0.949 . S
C2120 C2128 1.574 . S
C2120 C2136 1.368 . S
H2121 C2129 0.950 . S
H2122 C2127 0.950 . S
H2123 C2128 0.949 . S
H2124 C2130 0.950 . S
H2125 C2131 0.950 . S
H2126 C2132 0.949 . S
C2127 H2122 0.950 . S
C2127 C2129 1.327 . S
C2127 C2133 1.429 . S
C2128 C2120 1.574 . S
C2128 H2123 0.949 . S
C2128 C2134 1.368 . S
C2129 C2113 1.349 . S
C2129 H2121 0.950 . S
C2129 C2127 1.327 . S
C2130 C2118 1.349 . S
C2130 H2124 0.950 . S
C2130 C2131 1.327 . S
C2131 H2125 0.950 . S
C2131 C2130 1.327 . S
C2131 C2135 1.429 . S
C2132 C2115 1.574 . S
C2132 H2126 0.949 . S
C2132 C2136 1.368 . S
C2133 C2114 1.429 . S
C2133 C2127 1.429 . S
C2133 C2134 1.523 . S
C2134 C2115 1.368 . S
C2134 C2128 1.368 . S
C2134 C2133 1.523 . S
C2135 C2119 1.429 . S
C2135 C2131 1.429 . S
C2135 C2136 1.523 . S
C2136 C2120 1.368 . S
C2136 C2132 1.368 . S
C2136 C2135 1.523 . S
H2137 C2112 0.950 . S
H2138 C2114 0.950 . S
H2139 C2115 0.949 . S
H2140 C2117 0.950 . S
H2141 C2119 0.950 . S
C2142 C2143 1.349 . S
C2142 C2144 1.327 . S
C2142 H2167 0.950 . S
C2143 C2142 1.349 . S
C2143 C2159 1.349 . S
C2144 C2142 1.327 . S
C2144 C2163 1.429 . S
C2144 H2168 0.950 . S
C2145 C2162 1.574 . S
C2145 C2164 1.368 . S
C2145 H2169 0.949 . S
H2146 C2150 0.949 . S
C2147 C2148 1.349 . S
C2147 C2149 1.327 . S
C2147 H2170 0.950 . S
C2148 C2147 1.349 . S
C2148 C2160 1.349 . S
C2149 C2147 1.327 . S
C2149 C2165 1.429 . S
C2149 H2171 0.950 . S
C2150 H2146 0.949 . S
C2150 C2158 1.574 . S
C2150 C2166 1.368 . S
H2151 C2159 0.950 . S
H2152 C2157 0.950 . S
H2153 C2158 0.949 . S
H2154 C2160 0.950 . S
H2155 C2161 0.950 . S
H2156 C2162 0.949 . S
C2157 H2152 0.950 . S
C2157 C2159 1.327 . S
C2157 C2163 1.429 . S
C2158 C2150 1.574 . S
C2158 H2153 0.949 . S
C2158 C2164 1.368 . S
C2159 C2143 1.349 . S
C2159 H2151 0.950 . S
C2159 C2157 1.327 . S
C2160 C2148 1.349 . S
C2160 H2154 0.950 . S
C2160 C2161 1.327 . S
C2161 H2155 0.950 . S
C2161 C2160 1.327 . S
C2161 C2165 1.429 . S
C2162 C2145 1.574 . S
C2162 H2156 0.949 . S
C2162 C2166 1.368 . S
C2163 C2144 1.429 . S
C2163 C2157 1.429 . S
C2163 C2164 1.523 . S
C2164 C2145 1.368 . S
C2164 C2158 1.368 . S
C2164 C2163 1.523 . S
C2165 C2149 1.429 . S
C2165 C2161 1.429 . S
C2165 C2166 1.523 . S
C2166 C2150 1.368 . S
C2166 C2162 1.368 . S
C2166 C2165 1.523 . S
H2167 C2142 0.950 . S
H2168 C2144 0.950 . S
H2169 C2145 0.949 . S
H2170 C2147 0.950 . S
H2171 C2149 0.950 . S
C2172 C2173 1.349 . S
C2172 C2174 1.327 . S
C2172 H2197 0.950 . S
C2173 C2172 1.349 . S
C2173 C2189 1.349 . S
C2174 C2172 1.327 . S
C2174 C2193 1.429 . S
C2174 H2198 0.950 . S
C2175 C2192 1.574 . S
C2175 C2194 1.368 . S
C2175 H2199 0.949 . S
H2176 C2180 0.949 . S
C2177 C2178 1.349 . S
C2177 C2179 1.327 . S
C2177 H2200 0.950 . S
C2178 C2177 1.349 . S
C2178 C2190 1.349 . S
C2179 C2177 1.327 . S
C2179 C2195 1.429 . S
C2179 H2201 0.950 . S
C2180 H2176 0.949 . S
C2180 C2188 1.574 . S
C2180 C2196 1.368 . S
H2181 C2189 0.950 . S
H2182 C2187 0.950 . S
H2183 C2188 0.949 . S
H2184 C2190 0.950 . S
H2185 C2191 0.950 . S
H2186 C2192 0.949 . S
C2187 H2182 0.950 . S
C2187 C2189 1.327 . S
C2187 C2193 1.429 . S
C2188 C2180 1.574 . S
C2188 H2183 0.949 . S
C2188 C2194 1.368 . S
C2189 C2173 1.349 . S
C2189 H2181 0.950 . S
C2189 C2187 1.327 . S
C2190 C2178 1.349 . S
C2190 H2184 0.950 . S
C2190 C2191 1.327 . S
C2191 H2185 0.950 . S
C2191 C2190 1.327 . S
C2191 C2195 1.429 . S
C2192 C2175 1.574 . S
C2192 H2186 0.949 . S
C2192 C2196 1.368 . S
C2193 C2174 1.429 . S
C2193 C2187 1.429 . S
C2193 C2194 1.523 . S
C2194 C2175 1.368 . S
C2194 C2188 1.368 . S
C2194 C2193 1.523 . S
C2195 C2179 1.429 . S
C2195 C2191 1.429 . S
C2195 C2196 1.523 . S
C2196 C2180 1.368 . S
C2196 C2192 1.368 . S
C2196 C2195 1.523 . S
H2197 C2172 0.950 . S
H2198 C2174 0.950 . S
H2199 C2175 0.949 . S
H2200 C2177 0.950 . S
H2201 C2179 0.950 . S
C2202 C2203 1.349 . S
C2202 C2204 1.327 . S
C2202 H2227 0.950 . S
C2203 C2202 1.349 . S
C2203 C2219 1.349 . S
C2204 C2202 1.327 . S
C2204 C2223 1.429 . S
C2204 H2228 0.950 . S
C2205 C2222 1.574 . S
C2205 C2224 1.368 . S
C2205 H2229 0.949 . S
H2206 C2210 0.949 . S
C2207 C2208 1.349 . S
C2207 C2209 1.327 . S
C2207 H2230 0.950 . S
C2208 C2207 1.349 . S
C2208 C2220 1.349 . S
C2209 C2207 1.327 . S
C2209 C2225 1.429 . S
C2209 H2231 0.950 . S
C2210 H2206 0.949 . S
C2210 C2218 1.574 . S
C2210 C2226 1.368 . S
H2211 C2219 0.950 . S
H2212 C2217 0.950 . S
H2213 C2218 0.949 . S
H2214 C2220 0.950 . S
H2215 C2221 0.950 . S
H2216 C2222 0.949 . S
C2217 H2212 0.950 . S
C2217 C2219 1.327 . S
C2217 C2223 1.429 . S
C2218 C2210 1.574 . S
C2218 H2213 0.949 . S
C2218 C2224 1.368 . S
C2219 C2203 1.349 . S
C2219 H2211 0.950 . S
C2219 C2217 1.327 . S
C2220 C2208 1.349 . S
C2220 H2214 0.950 . S
C2220 C2221 1.327 . S
C2221 H2215 0.950 . S
C2221 C2220 1.327 . S
C2221 C2225 1.429 . S
C2222 C2205 1.574 . S
C2222 H2216 0.949 . S
C2222 C2226 1.368 . S
C2223 C2204 1.429 . S
C2223 C2217 1.429 . S
C2223 C2224 1.523 . S
C2224 C2205 1.368 . S
C2224 C2218 1.368 . S
C2224 C2223 1.523 . S
C2225 C2209 1.429 . S
C2225 C2221 1.429 . S
C2225 C2226 1.523 . S
C2226 C2210 1.368 . S
C2226 C2222 1.368 . S
C2226 C2225 1.523 . S
H2227 C2202 0.950 . S
H2228 C2204 0.950 . S
H2229 C2205 0.949 . S
H2230 C2207 0.950 . S
H2231 C2209 0.950 . S
C2232 C2233 1.349 . S
C2232 C2234 1.327 . S
C2232 H2257 0.950 . S
C2233 C2232 1.349 . S
C2233 C2249 1.349 . S
C2234 C2232 1.327 . S
C2234 C2253 1.429 . S
C2234 H2258 0.950 . S
C2235 C2252 1.574 . S
C2235 C2254 1.368 . S
C2235 H2259 0.949 . S
H2236 C2240 0.949 . S
C2237 C2238 1.349 . S
C2237 C2239 1.327 . S
C2237 H2260 0.950 . S
C2238 C2237 1.349 . S
C2238 C2250 1.349 . S
C2239 C2237 1.327 . S
C2239 C2255 1.429 . S
C2239 H2261 0.950 . S
C2240 H2236 0.949 . S
C2240 C2248 1.574 . S
C2240 C2256 1.368 . S
H2241 C2249 0.950 . S
H2242 C2247 0.950 . S
H2243 C2248 0.949 . S
H2244 C2250 0.950 . S
H2245 C2251 0.950 . S
H2246 C2252 0.949 . S
C2247 H2242 0.950 . S
C2247 C2249 1.327 . S
C2247 C2253 1.429 . S
C2248 C2240 1.574 . S
C2248 H2243 0.949 . S
C2248 C2254 1.368 . S
C2249 C2233 1.349 . S
C2249 H2241 0.950 . S
C2249 C2247 1.327 . S
C2250 C2238 1.349 . S
C2250 H2244 0.950 . S
C2250 C2251 1.327 . S
C2251 H2245 0.950 . S
C2251 C2250 1.327 . S
C2251 C2255 1.429 . S
C2252 C2235 1.574 . S
C2252 H2246 0.949 . S
C2252 C2256 1.368 . S
C2253 C2234 1.429 . S
C2253 C2247 1.429 . S
C2253 C2254 1.523 . S
C2254 C2235 1.368 . S
C2254 C2248 1.368 . S
C2254 C2253 1.523 . S
C2255 C2239 1.429 . S
C2255 C2251 1.429 . S
C2255 C2256 1.523 . S
C2256 C2240 1.368 . S
C2256 C2252 1.368 . S
C2256 C2255 1.523 . S
H2257 C2232 0.950 . S
H2258 C2234 0.950 . S
H2259 C2235 0.949 . S
H2260 C2237 0.950 . S
H2261 C2239 0.950 . S
C2262 C2263 1.349 . S
C2262 C2264 1.327 . S
C2262 H2287 0.950 . S
C2263 C2262 1.349 . S
C2263 C2279 1.349 . S
C2264 C2262 1.327 . S
C2264 C2283 1.429 . S
C2264 H2288 0.950 . S
C2265 C2282 1.574 . S
C2265 C2284 1.368 . S
C2265 H2289 0.949 . S
H2266 C2270 0.949 . S
C2267 C2268 1.349 . S
C2267 C2269 1.327 . S
C2267 H2290 0.950 . S
C2268 C2267 1.349 . S
C2268 C2280 1.349 . S
C2269 C2267 1.327 . S
C2269 C2285 1.429 . S
C2269 H2291 0.950 . S
C2270 H2266 0.949 . S
C2270 C2278 1.574 . S
C2270 C2286 1.368 . S
H2271 C2279 0.950 . S
H2272 C2277 0.950 . S
H2273 C2278 0.949 . S
H2274 C2280 0.950 . S
H2275 C2281 0.950 . S
H2276 C2282 0.949 . S
C2277 H2272 0.950 . S
C2277 C2279 1.327 . S
C2277 C2283 1.429 . S
C2278 C2270 1.574 . S
C2278 H2273 0.949 . S
C2278 C2284 1.368 . S
C2279 C2263 1.349 . S
C2279 H2271 0.950 . S
C2279 C2277 1.327 . S
C2280 C2268 1.349 . S
C2280 H2274 0.950 . S
C2280 C2281 1.327 . S
C2281 H2275 0.950 . S
C2281 C2280 1.327 . S
C2281 C2285 1.429 . S
C2282 C2265 1.574 . S
C2282 H2276 0.949 . S
C2282 C2286 1.368 . S
C2283 C2264 1.429 . S
C2283 C2277 1.429 . S
C2283 C2284 1.523 . S
C2284 C2265 1.368 . S
C2284 C2278 1.368 . S
C2284 C2283 1.523 . S
C2285 C2269 1.429 . S
C2285 C2281 1.429 . S
C2285 C2286 1.523 . S
C2286 C2270 1.368 . S
C2286 C2282 1.368 . S
C2286 C2285 1.523 . S
H2287 C2262 0.950 . S
H2288 C2264 0.950 . S
H2289 C2265 0.949 . S
H2290 C2267 0.950 . S
H2291 C2269 0.950 . S
C2292 C2293 1.349 . S
C2292 C2294 1.327 . S
C2292 H2317 0.950 . S
C2293 C2292 1.349 . S
C2293 C2309 1.349 . S
C2294 C2292 1.327 . S
C2294 C2313 1.429 . S
C2294 H2318 0.950 . S
C2295 C2312 1.574 . S
C2295 C2314 1.368 . S
C2295 H2319 0.949 . S
H2296 C2300 0.949 . S
C2297 C2298 1.349 . S
C2297 C2299 1.327 . S
C2297 H2320 0.950 . S
C2298 C2297 1.349 . S
C2298 C2310 1.349 . S
C2299 C2297 1.327 . S
C2299 C2315 1.429 . S
C2299 H2321 0.950 . S
C2300 H2296 0.949 . S
C2300 C2308 1.574 . S
C2300 C2316 1.368 . S
H2301 C2309 0.950 . S
H2302 C2307 0.950 . S
H2303 C2308 0.949 . S
H2304 C2310 0.950 . S
H2305 C2311 0.950 . S
H2306 C2312 0.949 . S
C2307 H2302 0.950 . S
C2307 C2309 1.327 . S
C2307 C2313 1.429 . S
C2308 C2300 1.574 . S
C2308 H2303 0.949 . S
C2308 C2314 1.368 . S
C2309 C2293 1.349 . S
C2309 H2301 0.950 . S
C2309 C2307 1.327 . S
C2310 C2298 1.349 . S
C2310 H2304 0.950 . S
C2310 C2311 1.327 . S
C2311 H2305 0.950 . S
C2311 C2310 1.327 . S
C2311 C2315 1.429 . S
C2312 C2295 1.574 . S
C2312 H2306 0.949 . S
C2312 C2316 1.368 . S
C2313 C2294 1.429 . S
C2313 C2307 1.429 . S
C2313 C2314 1.523 . S
C2314 C2295 1.368 . S
C2314 C2308 1.368 . S
C2314 C2313 1.523 . S
C2315 C2299 1.429 . S
C2315 C2311 1.429 . S
C2315 C2316 1.523 . S
C2316 C2300 1.368 . S
C2316 C2312 1.368 . S
C2316 C2315 1.523 . S
H2317 C2292 0.950 . S
H2318 C2294 0.950 . S
H2319 C2295 0.949 . S
H2320 C2297 0.950 . S
H2321 C2299 0.950 . S
C2322 C2323 1.349 . S
C2322 C2324 1.327 . S
C2322 H2347 0.950 . S
C2323 C2322 1.349 . S
C2323 C2339 1.349 . S
C2324 C2322 1.327 . S
C2324 C2343 1.429 . S
C2324 H2348 0.950 . S
C2325 C2342 1.574 . S
C2325 C2344 1.368 . S
C2325 H2349 0.949 . S
H2326 C2330 0.949 . S
C2327 C2328 1.349 . S
C2327 C2329 1.327 . S
C2327 H2350 0.950 . S
C2328 C2327 1.349 . S
C2328 C2340 1.349 . S
C2329 C2327 1.327 . S
C2329 C2345 1.429 . S
C2329 H2351 0.950 . S
C2330 H2326 0.949 . S
C2330 C2338 1.574 . S
C2330 C2346 1.368 . S
H2331 C2339 0.950 . S
H2332 C2337 0.950 . S
H2333 C2338 0.949 . S
H2334 C2340 0.950 . S
H2335 C2341 0.950 . S
H2336 C2342 0.949 . S
C2337 H2332 0.950 . S
C2337 C2339 1.327 . S
C2337 C2343 1.429 . S
C2338 C2330 1.574 . S
C2338 H2333 0.949 . S
C2338 C2344 1.368 . S
C2339 C2323 1.349 . S
C2339 H2331 0.950 . S
C2339 C2337 1.327 . S
C2340 C2328 1.349 . S
C2340 H2334 0.950 . S
C2340 C2341 1.327 . S
C2341 H2335 0.950 . S
C2341 C2340 1.327 . S
C2341 C2345 1.429 . S
C2342 C2325 1.574 . S
C2342 H2336 0.949 . S
C2342 C2346 1.368 . S
C2343 C2324 1.429 . S
C2343 C2337 1.429 . S
C2343 C2344 1.523 . S
C2344 C2325 1.368 . S
C2344 C2338 1.368 . S
C2344 C2343 1.523 . S
C2345 C2329 1.429 . S
C2345 C2341 1.429 . S
C2345 C2346 1.523 . S
C2346 C2330 1.368 . S
C2346 C2342 1.368 . S
C2346 C2345 1.523 . S
H2347 C2322 0.950 . S
H2348 C2324 0.950 . S
H2349 C2325 0.949 . S
H2350 C2327 0.950 . S
H2351 C2329 0.950 . S
C2352 C2353 1.349 . S
C2352 C2354 1.327 . S
C2352 H2377 0.950 . S
C2353 C2352 1.349 . S
C2353 C2369 1.349 . S
C2354 C2352 1.327 . S
C2354 C2373 1.429 . S
C2354 H2378 0.950 . S
C2355 C2372 1.574 . S
C2355 C2374 1.368 . S
C2355 H2379 0.949 . S
H2356 C2360 0.949 . S
C2357 C2358 1.349 . S
C2357 C2359 1.327 . S
C2357 H2380 0.950 . S
C2358 C2357 1.349 . S
C2358 C2370 1.349 . S
C2359 C2357 1.327 . S
C2359 C2375 1.429 . S
C2359 H2381 0.950 . S
C2360 H2356 0.949 . S
C2360 C2368 1.574 . S
C2360 C2376 1.368 . S
H2361 C2369 0.950 . S
H2362 C2367 0.950 . S
H2363 C2368 0.949 . S
H2364 C2370 0.950 . S
H2365 C2371 0.950 . S
H2366 C2372 0.949 . S
C2367 H2362 0.950 . S
C2367 C2369 1.327 . S
C2367 C2373 1.429 . S
C2368 C2360 1.574 . S
C2368 H2363 0.949 . S
C2368 C2374 1.368 . S
C2369 C2353 1.349 . S
C2369 H2361 0.950 . S
C2369 C2367 1.327 . S
C2370 C2358 1.349 . S
C2370 H2364 0.950 . S
C2370 C2371 1.327 . S
C2371 H2365 0.950 . S
C2371 C2370 1.327 . S
C2371 C2375 1.429 . S
C2372 C2355 1.574 . S
C2372 H2366 0.949 . S
C2372 C2376 1.368 . S
C2373 C2354 1.429 . S
C2373 C2367 1.429 . S
C2373 C2374 1.523 . S
C2374 C2355 1.368 . S
C2374 C2368 1.368 . S
C2374 C2373 1.523 . S
C2375 C2359 1.429 . S
C2375 C2371 1.429 . S
C2375 C2376 1.523 . S
C2376 C2360 1.368 . S
C2376 C2372 1.368 . S
C2376 C2375 1.523 . S
H2377 C2352 0.950 . S
H2378 C2354 0.950 . S
H2379 C2355 0.949 . S
H2380 C2357 0.950 . S
H2381 C2359 0.950 . S
C2382 C2383 1.349 . S
C2382 C2384 1.327 . S
C2382 H2407 0.950 . S
C2383 C2382 1.349 . S
C2383 C2399 1.349 . S
C2384 C2382 1.327 . S
C2384 C2403 1.429 . S
C2384 H2408 0.950 . S
C2385 C2402 1.574 . S
C2385 C2404 1.368 . S
C2385 H2409 0.949 . S
H2386 C2390 0.949 . S
C2387 C2388 1.349 . S
C2387 C2389 1.327 . S
C2387 H2410 0.950 . S
C2388 C2387 1.349 . S
C2388 C2400 1.349 . S
C2389 C2387 1.327 . S
C2389 C2405 1.429 . S
C2389 H2411 0.950 . S
C2390 H2386 0.949 . S
C2390 C2398 1.574 . S
C2390 C2406 1.368 . S
H2391 C2399 0.950 . S
H2392 C2397 0.950 . S
H2393 C2398 0.949 . S
H2394 C2400 0.950 . S
H2395 C2401 0.950 . S
H2396 C2402 0.949 . S
C2397 H2392 0.950 . S
C2397 C2399 1.327 . S
C2397 C2403 1.429 . S
C2398 C2390 1.574 . S
C2398 H2393 0.949 . S
C2398 C2404 1.368 . S
C2399 C2383 1.349 . S
C2399 H2391 0.950 . S
C2399 C2397 1.327 . S
C2400 C2388 1.349 . S
C2400 H2394 0.950 . S
C2400 C2401 1.327 . S
C2401 H2395 0.950 . S
C2401 C2400 1.327 . S
C2401 C2405 1.429 . S
C2402 C2385 1.574 . S
C2402 H2396 0.949 . S
C2402 C2406 1.368 . S
C2403 C2384 1.429 . S
C2403 C2397 1.429 . S
C2403 C2404 1.523 . S
C2404 C2385 1.368 . S
C2404 C2398 1.368 . S
C2404 C2403 1.523 . S
C2405 C2389 1.429 . S
C2405 C2401 1.429 . S
C2405 C2406 1.523 . S
C2406 C2390 1.368 . S
C2406 C2402 1.368 . S
C2406 C2405 1.523 . S
H2407 C2382 0.950 . S
H2408 C2384 0.950 . S
H2409 C2385 0.949 . S
H2410 C2387 0.950 . S
H2411 C2389 0.950 . S
C2412 C2413 1.349 . S
C2412 C2414 1.327 . S
C2412 H2437 0.950 . S
C2413 C2412 1.349 . S
C2413 C2429 1.349 . S
C2414 C2412 1.327 . S
C2414 C2433 1.429 . S
C2414 H2438 0.950 . S
C2415 C2432 1.574 . S
C2415 C2434 1.368 . S
C2415 H2439 0.949 . S
H2416 C2420 0.949 . S
C2417 C2418 1.349 . S
C2417 C2419 1.327 . S
C2417 H2440 0.950 . S
C2418 C2417 1.349 . S
C2418 C2430 1.349 . S
C2419 C2417 1.327 . S
C2419 C2435 1.429 . S
C2419 H2441 0.950 . S
C2420 H2416 0.949 . S
C2420 C2428 1.574 . S
C2420 C2436 1.368 . S
H2421 C2429 0.950 . S
H2422 C2427 0.950 . S
H2423 C2428 0.949 . S
H2424 C2430 0.950 . S
H2425 C2431 0.950 . S
H2426 C2432 0.949 . S
C2427 H2422 0.950 . S
C2427 C2429 1.327 . S
C2427 C2433 1.429 . S
C2428 C2420 1.574 . S
C2428 H2423 0.949 . S
C2428 C2434 1.368 . S
C2429 C2413 1.349 . S
C2429 H2421 0.950 . S
C2429 C2427 1.327 . S
C2430 C2418 1.349 . S
C2430 H2424 0.950 . S
C2430 C2431 1.327 . S
C2431 H2425 0.950 . S
C2431 C2430 1.327 . S
C2431 C2435 1.429 . S
C2432 C2415 1.574 . S
C2432 H2426 0.949 . S
C2432 C2436 1.368 . S
C2433 C2414 1.429 . S
C2433 C2427 1.429 . S
C2433 C2434 1.523 . S
C2434 C2415 1.368 . S
C2434 C2428 1.368 . S
C2434 C2433 1.523 . S
C2435 C2419 1.429 . S
C2435 C2431 1.429 . S
C2435 C2436 1.523 . S
C2436 C2420 1.368 . S
C2436 C2432 1.368 . S
C2436 C2435 1.523 . S
H2437 C2412 0.950 . S
H2438 C2414 0.950 . S
H2439 C2415 0.949 . S
H2440 C2417 0.950 . S
H2441 C2419 0.950 . S
C2442 C2443 1.349 . S
C2442 C2444 1.327 . S
C2442 H2467 0.950 . S
C2443 C2442 1.349 . S
C2443 C2459 1.349 . S
C2444 C2442 1.327 . S
C2444 C2463 1.429 . S
C2444 H2468 0.950 . S
C2445 C2462 1.574 . S
C2445 C2464 1.368 . S
C2445 H2469 0.949 . S
H2446 C2450 0.949 . S
C2447 C2448 1.349 . S
C2447 C2449 1.327 . S
C2447 H2470 0.950 . S
C2448 C2447 1.349 . S
C2448 C2460 1.349 . S
C2449 C2447 1.327 . S
C2449 C2465 1.429 . S
C2449 H2471 0.950 . S
C2450 H2446 0.949 . S
C2450 C2458 1.574 . S
C2450 C2466 1.368 . S
H2451 C2459 0.950 . S
H2452 C2457 0.950 . S
H2453 C2458 0.949 . S
H2454 C2460 0.950 . S
H2455 C2461 0.950 . S
H2456 C2462 0.949 . S
C2457 H2452 0.950 . S
C2457 C2459 1.327 . S
C2457 C2463 1.429 . S
C2458 C2450 1.574 . S
C2458 H2453 0.949 . S
C2458 C2464 1.368 . S
C2459 C2443 1.349 . S
C2459 H2451 0.950 . S
C2459 C2457 1.327 . S
C2460 C2448 1.349 . S
C2460 H2454 0.950 . S
C2460 C2461 1.327 . S
C2461 H2455 0.950 . S
C2461 C2460 1.327 . S
C2461 C2465 1.429 . S
C2462 C2445 1.574 . S
C2462 H2456 0.949 . S
C2462 C2466 1.368 . S
C2463 C2444 1.429 . S
C2463 C2457 1.429 . S
C2463 C2464 1.523 . S
C2464 C2445 1.368 . S
C2464 C2458 1.368 . S
C2464 C2463 1.523 . S
C2465 C2449 1.429 . S
C2465 C2461 1.429 . S
C2465 C2466 1.523 . S
C2466 C2450 1.368 . S
C2466 C2462 1.368 . S
C2466 C2465 1.523 . S
H2467 C2442 0.950 . S
H2468 C2444 0.950 . S
H2469 C2445 0.949 . S
H2470 C2447 0.950 . S
H2471 C2449 0.950 . S
C2472 C2473 1.349 . S
C2472 C2474 1.327 . S
C2472 H2497 0.950 . S
C2473 C2472 1.349 . S
C2473 C2489 1.349 . S
C2474 C2472 1.327 . S
C2474 C2493 1.429 . S
C2474 H2498 0.950 . S
C2475 C2492 1.574 . S
C2475 C2494 1.368 . S
C2475 H2499 0.949 . S
H2476 C2480 0.949 . S
C2477 C2478 1.349 . S
C2477 C2479 1.327 . S
C2477 H2500 0.950 . S
C2478 C2477 1.349 . S
C2478 C2490 1.349 . S
C2479 C2477 1.327 . S
C2479 C2495 1.429 . S
C2479 H2501 0.950 . S
C2480 H2476 0.949 . S
C2480 C2488 1.574 . S
C2480 C2496 1.368 . S
H2481 C2489 0.950 . S
H2482 C2487 0.950 . S
H2483 C2488 0.949 . S
H2484 C2490 0.950 . S
H2485 C2491 0.950 . S
H2486 C2492 0.949 . S
C2487 H2482 0.950 . S
C2487 C2489 1.327 . S
C2487 C2493 1.429 . S
C2488 C2480 1.574 . S
C2488 H2483 0.949 . S
C2488 C2494 1.368 . S
C2489 C2473 1.349 . S
C2489 H2481 0.950 . S
C2489 C2487 1.327 . S
C2490 C2478 1.349 . S
C2490 H2484 0.950 . S
C2490 C2491 1.327 . S
C2491 H2485 0.950 . S
C2491 C2490 1.327 . S
C2491 C2495 1.429 . S
C2492 C2475 1.574 . S
C2492 H2486 0.949 . S
C2492 C2496 1.368 . S
C2493 C2474 1.429 . S
C2493 C2487 1.429 . S
C2493 C2494 1.523 . S
C2494 C2475 1.368 . S
C2494 C2488 1.368 . S
C2494 C2493 1.523 . S
C2495 C2479 1.429 . S
C2495 C2491 1.429 . S
C2495 C2496 1.523 . S
C2496 C2480 1.368 . S
C2496 C2492 1.368 . S
C2496 C2495 1.523 . S
H2497 C2472 0.950 . S
H2498 C2474 0.950 . S
H2499 C2475 0.949 . S
H2500 C2477 0.950 . S
H2501 C2479 0.950 . S
C2502 C2503 1.349 . S
C2502 C2504 1.327 . S
C2502 H2527 0.950 . S
C2503 C2502 1.349 . S
C2503 C2519 1.349 . S
C2504 C2502 1.327 . S
C2504 C2523 1.429 . S
C2504 H2528 0.950 . S
C2505 C2522 1.574 . S
C2505 C2524 1.368 . S
C2505 H2529 0.949 . S
H2506 C2510 0.949 . S
C2507 C2508 1.349 . S
C2507 C2509 1.327 . S
C2507 H2530 0.950 . S
C2508 C2507 1.349 . S
C2508 C2520 1.349 . S
C2509 C2507 1.327 . S
C2509 C2525 1.429 . S
C2509 H2531 0.950 . S
C2510 H2506 0.949 . S
C2510 C2518 1.574 . S
C2510 C2526 1.368 . S
H2511 C2519 0.950 . S
H2512 C2517 0.950 . S
H2513 C2518 0.949 . S
H2514 C2520 0.950 . S
H2515 C2521 0.950 . S
H2516 C2522 0.949 . S
C2517 H2512 0.950 . S
C2517 C2519 1.327 . S
C2517 C2523 1.429 . S
C2518 C2510 1.574 . S
C2518 H2513 0.949 . S
C2518 C2524 1.368 . S
C2519 C2503 1.349 . S
C2519 H2511 0.950 . S
C2519 C2517 1.327 . S
C2520 C2508 1.349 . S
C2520 H2514 0.950 . S
C2520 C2521 1.327 . S
C2521 H2515 0.950 . S
C2521 C2520 1.327 . S
C2521 C2525 1.429 . S
C2522 C2505 1.574 . S
C2522 H2516 0.949 . S
C2522 C2526 1.368 . S
C2523 C2504 1.429 . S
C2523 C2517 1.429 . S
C2523 C2524 1.523 . S
C2524 C2505 1.368 . S
C2524 C2518 1.368 . S
C2524 C2523 1.523 . S
C2525 C2509 1.429 . S
C2525 C2521 1.429 . S
C2525 C2526 1.523 . S
C2526 C2510 1.368 . S
C2526 C2522 1.368 . S
C2526 C2525 1.523 . S
H2527 C2502 0.950 . S
H2528 C2504 0.950 . S
H2529 C2505 0.949 . S
H2530 C2507 0.950 . S
H2531 C2509 0.950 . S
C2532 C2533 1.349 . S
C2532 C2534 1.327 . S
C2532 H2557 0.950 . S
C2533 C2532 1.349 . S
C2533 C2549 1.349 . S
C2534 C2532 1.327 . S
C2534 C2553 1.429 . S
C2534 H2558 0.950 . S
C2535 C2552 1.574 . S
C2535 C2554 1.368 . S
C2535 H2559 0.949 . S
H2536 C2540 0.949 . S
C2537 C2538 1.349 . S
C2537 C2539 1.327 . S
C2537 H2560 0.950 . S
C2538 C2537 1.349 . S
C2538 C2550 1.349 . S
C2539 C2537 1.327 . S
C2539 C2555 1.429 . S
C2539 H2561 0.950 . S
C2540 H2536 0.949 . S
C2540 C2548 1.574 . S
C2540 C2556 1.368 . S
H2541 C2549 0.950 . S
H2542 C2547 0.950 . S
H2543 C2548 0.949 . S
H2544 C2550 0.950 . S
H2545 C2551 0.950 . S
H2546 C2552 0.949 . S
C2547 H2542 0.950 . S
C2547 C2549 1.327 . S
C2547 C2553 1.429 . S
C2548 C2540 1.574 . S
C2548 H2543 0.949 . S
C2548 C2554 1.368 . S
C2549 C2533 1.349 . S
C2549 H2541 0.950 . S
C2549 C2547 1.327 . S
C2550 C2538 1.349 . S
C2550 H2544 0.950 . S
C2550 C2551 1.327 . S
C2551 H2545 0.950 . S
C2551 C2550 1.327 . S
C2551 C2555 1.429 . S
C2552 C2535 1.574 . S
C2552 H2546 0.949 . S
C2552 C2556 1.368 . S
C2553 C2534 1.429 . S
C2553 C2547 1.429 . S
C2553 C2554 1.523 . S
C2554 C2535 1.368 . S
C2554 C2548 1.368 . S
C2554 C2553 1.523 . S
C2555 C2539 1.429 . S
C2555 C2551 1.429 . S
C2555 C2556 1.523 . S
C2556 C2540 1.368 . S
C2556 C2552 1.368 . S
C2556 C2555 1.523 . S
H2557 C2532 0.950 . S
H2558 C2534 0.950 . S
H2559 C2535 0.949 . S
H2560 C2537 0.950 . S
H2561 C2539 0.950 . S
C2562 C2563 1.349 . S
C2562 C2564 1.327 . S
C2562 H2587 0.950 . S
C2563 C2562 1.349 . S
C2563 C2579 1.349 . S
C2564 C2562 1.327 . S
C2564 C2583 1.429 . S
C2564 H2588 0.950 . S
C2565 C2582 1.574 . S
C2565 C2584 1.368 . S
C2565 H2589 0.949 . S
H2566 C2570 0.949 . S
C2567 C2568 1.349 . S
C2567 C2569 1.327 . S
C2567 H2590 0.950 . S
C2568 C2567 1.349 . S
C2568 C2580 1.349 . S
C2569 C2567 1.327 . S
C2569 C2585 1.429 . S
C2569 H2591 0.950 . S
C2570 H2566 0.949 . S
C2570 C2578 1.574 . S
C2570 C2586 1.368 . S
H2571 C2579 0.950 . S
H2572 C2577 0.950 . S
H2573 C2578 0.949 . S
H2574 C2580 0.950 . S
H2575 C2581 0.950 . S
H2576 C2582 0.949 . S
C2577 H2572 0.950 . S
C2577 C2579 1.327 . S
C2577 C2583 1.429 . S
C2578 C2570 1.574 . S
C2578 H2573 0.949 . S
C2578 C2584 1.368 . S
C2579 C2563 1.349 . S
C2579 H2571 0.950 . S
C2579 C2577 1.327 . S
C2580 C2568 1.349 . S
C2580 H2574 0.950 . S
C2580 C2581 1.327 . S
C2581 H2575 0.950 . S
C2581 C2580 1.327 . S
C2581 C2585 1.429 . S
C2582 C2565 1.574 . S
C2582 H2576 0.949 . S
C2582 C2586 1.368 . S
C2583 C2564 1.429 . S
C2583 C2577 1.429 . S
C2583 C2584 1.523 . S
C2584 C2565 1.368 . S
C2584 C2578 1.368 . S
C2584 C2583 1.523 . S
C2585 C2569 1.429 . S
C2585 C2581 1.429 . S
C2585 C2586 1.523 . S
C2586 C2570 1.368 . S
C2586 C2582 1.368 . S
C2586 C2585 1.523 . S
H2587 C2562 0.950 . S
H2588 C2564 0.950 . S
H2589 C2565 0.949 . S
H2590 C2567 0.950 . S
H2591 C2569 0.950 . S
C2592 C2593 1.349 . S
C2592 C2594 1.327 . S
C2592 H2617 0.950 . S
C2593 C2592 1.349 . S
C2593 C2609 1.349 . S
C2594 C2592 1.327 . S
C2594 C2613 1.429 . S
C2594 H2618 0.950 . S
C2595 C2612 1.574 . S
C2595 C2614 1.368 . S
C2595 H2619 0.949 . S
H2596 C2600 0.949 . S
C2597 C2598 1.349 . S
C2597 C2599 1.327 . S
C2597 H2620 0.950 . S
C2598 C2597 1.349 . S
C2598 C2610 1.349 . S
C2599 C2597 1.327 . S
C2599 C2615 1.429 . S
C2599 H2621 0.950 . S
C2600 H2596 0.949 . S
C2600 C2608 1.574 . S
C2600 C2616 1.368 . S
H2601 C2609 0.950 . S
H2602 C2607 0.950 . S
H2603 C2608 0.949 . S
H2604 C2610 0.950 . S
H2605 C2611 0.950 . S
H2606 C2612 0.949 . S
C2607 H2602 0.950 . S
C2607 C2609 1.327 . S
C2607 C2613 1.429 . S
C2608 C2600 1.574 . S
C2608 H2603 0.949 . S
C2608 C2614 1.368 . S
C2609 C2593 1.349 . S
C2609 H2601 0.950 . S
C2609 C2607 1.327 . S
C2610 C2598 1.349 . S
C2610 H2604 0.950 . S
C2610 C2611 1.327 . S
C2611 H2605 0.950 . S
C2611 C2610 1.327 . S
C2611 C2615 1.429 . S
C2612 C2595 1.574 . S
C2612 H2606 0.949 . S
C2612 C2616 1.368 . S
C2613 C2594 1.429 . S
C2613 C2607 1.429 . S
C2613 C2614 1.523 . S
C2614 C2595 1.368 . S
C2614 C2608 1.368 . S
C2614 C2613 1.523 . S
C2615 C2599 1.429 . S
C2615 C2611 1.429 . S
C2615 C2616 1.523 . S
C2616 C2600 1.368 . S
C2616 C2612 1.368 . S
C2616 C2615 1.523 . S
H2617 C2592 0.950 . S
H2618 C2594 0.950 . S
H2619 C2595 0.949 . S
H2620 C2597 0.950 . S
H2621 C2599 0.950 . S
C2622 C2623 1.349 . S
C2622 C2624 1.327 . S
C2622 H2647 0.950 . S
C2623 C2622 1.349 . S
C2623 C2639 1.349 . S
C2624 C2622 1.327 . S
C2624 C2643 1.429 . S
C2624 H2648 0.950 . S
C2625 C2642 1.574 . S
C2625 C2644 1.368 . S
C2625 H2649 0.949 . S
H2626 C2630 0.949 . S
C2627 C2628 1.349 . S
C2627 C2629 1.327 . S
C2627 H2650 0.950 . S
C2628 C2627 1.349 . S
C2628 C2640 1.349 . S
C2629 C2627 1.327 . S
C2629 C2645 1.429 . S
C2629 H2651 0.950 . S
C2630 H2626 0.949 . S
C2630 C2638 1.574 . S
C2630 C2646 1.368 . S
H2631 C2639 0.950 . S
H2632 C2637 0.950 . S
H2633 C2638 0.949 . S
H2634 C2640 0.950 . S
H2635 C2641 0.950 . S
H2636 C2642 0.949 . S
C2637 H2632 0.950 . S
C2637 C2639 1.327 . S
C2637 C2643 1.429 . S
C2638 C2630 1.574 . S
C2638 H2633 0.949 . S
C2638 C2644 1.368 . S
C2639 C2623 1.349 . S
C2639 H2631 0.950 . S
C2639 C2637 1.327 . S
C2640 C2628 1.349 . S
C2640 H2634 0.950 . S
C2640 C2641 1.327 . S
C2641 H2635 0.950 . S
C2641 C2640 1.327 . S
C2641 C2645 1.429 . S
C2642 C2625 1.574 . S
C2642 H2636 0.949 . S
C2642 C2646 1.368 . S
C2643 C2624 1.429 . S
C2643 C2637 1.429 . S
C2643 C2644 1.523 . S
C2644 C2625 1.368 . S
C2644 C2638 1.368 . S
C2644 C2643 1.523 . S
C2645 C2629 1.429 . S
C2645 C2641 1.429 . S
C2645 C2646 1.523 . S
C2646 C2630 1.368 . S
C2646 C2642 1.368 . S
C2646 C2645 1.523 . S
H2647 C2622 0.950 . S
H2648 C2624 0.950 . S
H2649 C2625 0.949 . S
H2650 C2627 0.950 . S
H2651 C2629 0.950 . S
C2652 C2653 1.349 . S
C2652 C2654 1.327 . S
C2652 H2677 0.950 . S
C2653 C2652 1.349 . S
C2653 C2669 1.349 . S
C2654 C2652 1.327 . S
C2654 C2673 1.429 . S
C2654 H2678 0.950 . S
C2655 C2672 1.574 . S
C2655 C2674 1.368 . S
C2655 H2679 0.949 . S
H2656 C2660 0.949 . S
C2657 C2658 1.349 . S
C2657 C2659 1.327 . S
C2657 H2680 0.950 . S
C2658 C2657 1.349 . S
C2658 C2670 1.349 . S
C2659 C2657 1.327 . S
C2659 C2675 1.429 . S
C2659 H2681 0.950 . S
C2660 H2656 0.949 . S
C2660 C2668 1.574 . S
C2660 C2676 1.368 . S
H2661 C2669 0.950 . S
H2662 C2667 0.950 . S
H2663 C2668 0.949 . S
H2664 C2670 0.950 . S
H2665 C2671 0.950 . S
H2666 C2672 0.949 . S
C2667 H2662 0.950 . S
C2667 C2669 1.327 . S
C2667 C2673 1.429 . S
C2668 C2660 1.574 . S
C2668 H2663 0.949 . S
C2668 C2674 1.368 . S
C2669 C2653 1.349 . S
C2669 H2661 0.950 . S
C2669 C2667 1.327 . S
C2670 C2658 1.349 . S
C2670 H2664 0.950 . S
C2670 C2671 1.327 . S
C2671 H2665 0.950 . S
C2671 C2670 1.327 . S
C2671 C2675 1.429 . S
C2672 C2655 1.574 . S
C2672 H2666 0.949 . S
C2672 C2676 1.368 . S
C2673 C2654 1.429 . S
C2673 C2667 1.429 . S
C2673 C2674 1.523 . S
C2674 C2655 1.368 . S
C2674 C2668 1.368 . S
C2674 C2673 1.523 . S
C2675 C2659 1.429 . S
C2675 C2671 1.429 . S
C2675 C2676 1.523 . S
C2676 C2660 1.368 . S
C2676 C2672 1.368 . S
C2676 C2675 1.523 . S
H2677 C2652 0.950 . S
H2678 C2654 0.950 . S
H2679 C2655 0.949 . S
H2680 C2657 0.950 . S
H2681 C2659 0.950 . S
C2682 C2683 1.349 . S
C2682 C2684 1.327 . S
C2682 H2707 0.950 . S
C2683 C2682 1.349 . S
C2683 C2699 1.349 . S
C2684 C2682 1.327 . S
C2684 C2703 1.429 . S
C2684 H2708 0.950 . S
C2685 C2702 1.574 . S
C2685 C2704 1.368 . S
C2685 H2709 0.949 . S
H2686 C2690 0.949 . S
C2687 C2688 1.349 . S
C2687 C2689 1.327 . S
C2687 H2710 0.950 . S
C2688 C2687 1.349 . S
C2688 C2700 1.349 . S
C2689 C2687 1.327 . S
C2689 C2705 1.429 . S
C2689 H2711 0.950 . S
C2690 H2686 0.949 . S
C2690 C2698 1.574 . S
C2690 C2706 1.368 . S
H2691 C2699 0.950 . S
H2692 C2697 0.950 . S
H2693 C2698 0.949 . S
H2694 C2700 0.950 . S
H2695 C2701 0.950 . S
H2696 C2702 0.949 . S
C2697 H2692 0.950 . S
C2697 C2699 1.327 . S
C2697 C2703 1.429 . S
C2698 C2690 1.574 . S
C2698 H2693 0.949 . S
C2698 C2704 1.368 . S
C2699 C2683 1.349 . S
C2699 H2691 0.950 . S
C2699 C2697 1.327 . S
C2700 C2688 1.349 . S
C2700 H2694 0.950 . S
C2700 C2701 1.327 . S
C2701 H2695 0.950 . S
C2701 C2700 1.327 . S
C2701 C2705 1.429 . S
C2702 C2685 1.574 . S
C2702 H2696 0.949 . S
C2702 C2706 1.368 . S
C2703 C2684 1.429 . S
C2703 C2697 1.429 . S
C2703 C2704 1.523 . S
C2704 C2685 1.368 . S
C2704 C2698 1.368 . S
C2704 C2703 1.523 . S
C2705 C2689 1.429 . S
C2705 C2701 1.429 . S
C2705 C2706 1.523 . S
C2706 C2690 1.368 . S
C2706 C2702 1.368 . S
C2706 C2705 1.523 . S
H2707 C2682 0.950 . S
H2708 C2684 0.950 . S
H2709 C2685 0.949 . S
H2710 C2687 0.950 . S
H2711 C2689 0.950 . S
C2712 C2713 1.349 . S
C2712 C2714 1.327 . S
C2712 H2737 0.950 . S
C2713 C2712 1.349 . S
C2713 C2729 1.349 . S
C2714 C2712 1.327 . S
C2714 C2733 1.429 . S
C2714 H2738 0.950 . S
C2715 C2732 1.574 . S
C2715 C2734 1.368 . S
C2715 H2739 0.949 . S
H2716 C2720 0.949 . S
C2717 C2718 1.349 . S
C2717 C2719 1.327 . S
C2717 H2740 0.950 . S
C2718 C2717 1.349 . S
C2718 C2730 1.349 . S
C2719 C2717 1.327 . S
C2719 C2735 1.429 . S
C2719 H2741 0.950 . S
C2720 H2716 0.949 . S
C2720 C2728 1.574 . S
C2720 C2736 1.368 . S
H2721 C2729 0.950 . S
H2722 C2727 0.950 . S
H2723 C2728 0.949 . S
H2724 C2730 0.950 . S
H2725 C2731 0.950 . S
H2726 C2732 0.949 . S
C2727 H2722 0.950 . S
C2727 C2729 1.327 . S
C2727 C2733 1.429 . S
C2728 C2720 1.574 . S
C2728 H2723 0.949 . S
C2728 C2734 1.368 . S
C2729 C2713 1.349 . S
C2729 H2721 0.950 . S
C2729 C2727 1.327 . S
C2730 C2718 1.349 . S
C2730 H2724 0.950 . S
C2730 C2731 1.327 . S
C2731 H2725 0.950 . S
C2731 C2730 1.327 . S
C2731 C2735 1.429 . S
C2732 C2715 1.574 . S
C2732 H2726 0.949 . S
C2732 C2736 1.368 . S
C2733 C2714 1.429 . S
C2733 C2727 1.429 . S
C2733 C2734 1.523 . S
C2734 C2715 1.368 . S
C2734 C2728 1.368 . S
C2734 C2733 1.523 . S
C2735 C2719 1.429 . S
C2735 C2731 1.429 . S
C2735 C2736 1.523 . S
C2736 C2720 1.368 . S
C2736 C2732 1.368 . S
C2736 C2735 1.523 . S
H2737 C2712 0.950 . S
H2738 C2714 0.950 . S
H2739 C2715 0.949 . S
H2740 C2717 0.950 . S
H2741 C2719 0.950 . S
C2742 C2743 1.349 . S
C2742 C2744 1.327 . S
C2742 H2767 0.950 . S
C2743 C2742 1.349 . S
C2743 C2759 1.349 . S
C2744 C2742 1.327 . S
C2744 C2763 1.429 . S
C2744 H2768 0.950 . S
C2745 C2762 1.574 . S
C2745 C2764 1.368 . S
C2745 H2769 0.949 . S
H2746 C2750 0.949 . S
C2747 C2748 1.349 . S
C2747 C2749 1.327 . S
C2747 H2770 0.950 . S
C2748 C2747 1.349 . S
C2748 C2760 1.349 . S
C2749 C2747 1.327 . S
C2749 C2765 1.429 . S
C2749 H2771 0.950 . S
C2750 H2746 0.949 . S
C2750 C2758 1.574 . S
C2750 C2766 1.368 . S
H2751 C2759 0.950 . S
H2752 C2757 0.950 . S
H2753 C2758 0.949 . S
H2754 C2760 0.950 . S
H2755 C2761 0.950 . S
H2756 C2762 0.949 . S
C2757 H2752 0.950 . S
C2757 C2759 1.327 . S
C2757 C2763 1.429 . S
C2758 C2750 1.574 . S
C2758 H2753 0.949 . S
C2758 C2764 1.368 . S
C2759 C2743 1.349 . S
C2759 H2751 0.950 . S
C2759 C2757 1.327 . S
C2760 C2748 1.349 . S
C2760 H2754 0.950 . S
C2760 C2761 1.327 . S
C2761 H2755 0.950 . S
C2761 C2760 1.327 . S
C2761 C2765 1.429 . S
C2762 C2745 1.574 . S
C2762 H2756 0.949 . S
C2762 C2766 1.368 . S
C2763 C2744 1.429 . S
C2763 C2757 1.429 . S
C2763 C2764 1.523 . S
C2764 C2745 1.368 . S
C2764 C2758 1.368 . S
C2764 C2763 1.523 . S
C2765 C2749 1.429 . S
C2765 C2761 1.429 . S
C2765 C2766 1.523 . S
C2766 C2750 1.368 . S
C2766 C2762 1.368 . S
C2766 C2765 1.523 . S
H2767 C2742 0.950 . S
H2768 C2744 0.950 . S
H2769 C2745 0.949 . S
H2770 C2747 0.950 . S
H2771 C2749 0.950 . S
C2772 C2773 1.349 . S
C2772 C2774 1.327 . S
C2772 H2797 0.950 . S
C2773 C2772 1.349 . S
C2773 C2789 1.349 . S
C2774 C2772 1.327 . S
C2774 C2793 1.429 . S
C2774 H2798 0.950 . S
C2775 C2792 1.574 . S
C2775 C2794 1.368 . S
C2775 H2799 0.949 . S
H2776 C2780 0.949 . S
C2777 C2778 1.349 . S
C2777 C2779 1.327 . S
C2777 H2800 0.950 . S
C2778 C2777 1.349 . S
C2778 C2790 1.349 . S
C2779 C2777 1.327 . S
C2779 C2795 1.429 . S
C2779 H2801 0.950 . S
C2780 H2776 0.949 . S
C2780 C2788 1.574 . S
C2780 C2796 1.368 . S
H2781 C2789 0.950 . S
H2782 C2787 0.950 . S
H2783 C2788 0.949 . S
H2784 C2790 0.950 . S
H2785 C2791 0.950 . S
H2786 C2792 0.949 . S
C2787 H2782 0.950 . S
C2787 C2789 1.327 . S
C2787 C2793 1.429 . S
C2788 C2780 1.574 . S
C2788 H2783 0.949 . S
C2788 C2794 1.368 . S
C2789 C2773 1.349 . S
C2789 H2781 0.950 . S
C2789 C2787 1.327 . S
C2790 C2778 1.349 . S
C2790 H2784 0.950 . S
C2790 C2791 1.327 . S
C2791 H2785 0.950 . S
C2791 C2790 1.327 . S
C2791 C2795 1.429 . S
C2792 C2775 1.574 . S
C2792 H2786 0.949 . S
C2792 C2796 1.368 . S
C2793 C2774 1.429 . S
C2793 C2787 1.429 . S
C2793 C2794 1.523 . S
C2794 C2775 1.368 . S
C2794 C2788 1.368 . S
C2794 C2793 1.523 . S
C2795 C2779 1.429 . S
C2795 C2791 1.429 . S
C2795 C2796 1.523 . S
C2796 C2780 1.368 . S
C2796 C2792 1.368 . S
C2796 C2795 1.523 . S
H2797 C2772 0.950 . S
H2798 C2774 0.950 . S
H2799 C2775 0.949 . S
H2800 C2777 0.950 . S
H2801 C2779 0.950 . S
C2802 C2803 1.349 . S
C2802 C2804 1.327 . S
C2802 H2827 0.950 . S
C2803 C2802 1.349 . S
C2803 C2819 1.349 . S
C2804 C2802 1.327 . S
C2804 C2823 1.429 . S
C2804 H2828 0.950 . S
C2805 C2822 1.574 . S
C2805 C2824 1.368 . S
C2805 H2829 0.949 . S
H2806 C2810 0.949 . S
C2807 C2808 1.349 . S
C2807 C2809 1.327 . S
C2807 H2830 0.950 . S
C2808 C2807 1.349 . S
C2808 C2820 1.349 . S
C2809 C2807 1.327 . S
C2809 C2825 1.429 . S
C2809 H2831 0.950 . S
C2810 H2806 0.949 . S
C2810 C2818 1.574 . S
C2810 C2826 1.368 . S
H2811 C2819 0.950 . S
H2812 C2817 0.950 . S
H2813 C2818 0.949 . S
H2814 C2820 0.950 . S
H2815 C2821 0.950 . S
H2816 C2822 0.949 . S
C2817 H2812 0.950 . S
C2817 C2819 1.327 . S
C2817 C2823 1.429 . S
C2818 C2810 1.574 . S
C2818 H2813 0.949 . S
C2818 C2824 1.368 . S
C2819 C2803 1.349 . S
C2819 H2811 0.950 . S
C2819 C2817 1.327 . S
C2820 C2808 1.349 . S
C2820 H2814 0.950 . S
C2820 C2821 1.327 . S
C2821 H2815 0.950 . S
C2821 C2820 1.327 . S
C2821 C2825 1.429 . S
C2822 C2805 1.574 . S
C2822 H2816 0.949 . S
C2822 C2826 1.368 . S
C2823 C2804 1.429 . S
C2823 C2817 1.429 . S
C2823 C2824 1.523 . S
C2824 C2805 1.368 . S
C2824 C2818 1.368 . S
C2824 C2823 1.523 . S
C2825 C2809 1.429 . S
C2825 C2821 1.429 . S
C2825 C2826 1.523 . S
C2826 C2810 1.368 . S
C2826 C2822 1.368 . S
C2826 C2825 1.523 . S
H2827 C2802 0.950 . S
H2828 C2804 0.950 . S
H2829 C2805 0.949 . S
H2830 C2807 0.950 . S
H2831 C2809 0.950 . S
C2832 C2833 1.349 . S
C2832 C2834 1.327 . S
C2832 H2857 0.950 . S
C2833 C2832 1.349 . S
C2833 C2849 1.349 . S
C2834 C2832 1.327 . S
C2834 C2853 1.429 . S
C2834 H2858 0.950 . S
C2835 C2852 1.574 . S
C2835 C2854 1.368 . S
C2835 H2859 0.949 . S
H2836 C2840 0.949 . S
C2837 C2838 1.349 . S
C2837 C2839 1.327 . S
C2837 H2860 0.950 . S
C2838 C2837 1.349 . S
C2838 C2850 1.349 . S
C2839 C2837 1.327 . S
C2839 C2855 1.429 . S
C2839 H2861 0.950 . S
C2840 H2836 0.949 . S
C2840 C2848 1.574 . S
C2840 C2856 1.368 . S
H2841 C2849 0.950 . S
H2842 C2847 0.950 . S
H2843 C2848 0.949 . S
H2844 C2850 0.950 . S
H2845 C2851 0.950 . S
H2846 C2852 0.949 . S
C2847 H2842 0.950 . S
C2847 C2849 1.327 . S
C2847 C2853 1.429 . S
C2848 C2840 1.574 . S
C2848 H2843 0.949 . S
C2848 C2854 1.368 . S
C2849 C2833 1.349 . S
C2849 H2841 0.950 . S
C2849 C2847 1.327 . S
C2850 C2838 1.349 . S
C2850 H2844 0.950 . S
C2850 C2851 1.327 . S
C2851 H2845 0.950 . S
C2851 C2850 1.327 . S
C2851 C2855 1.429 . S
C2852 C2835 1.574 . S
C2852 H2846 0.949 . S
C2852 C2856 1.368 . S
C2853 C2834 1.429 . S
C2853 C2847 1.429 . S
C2853 C2854 1.523 . S
C2854 C2835 1.368 . S
C2854 C2848 1.368 . S
C2854 C2853 1.523 . S
C2855 C2839 1.429 . S
C2855 C2851 1.429 . S
C2855 C2856 1.523 . S
C2856 C2840 1.368 . S
C2856 C2852 1.368 . S
C2856 C2855 1.523 . S
H2857 C2832 0.950 . S
H2858 C2834 0.950 . S
H2859 C2835 0.949 . S
H2860 C2837 0.950 . S
H2861 C2839 0.950 . S
C2862 C2863 1.349 . S
C2862 C2864 1.327 . S
C2862 H2887 0.950 . S
C2863 C2862 1.349 . S
C2863 C2879 1.349 . S
C2864 C2862 1.327 . S
C2864 C2883 1.429 . S
C2864 H2888 0.950 . S
C2865 C2882 1.574 1_565 S
C2865 C2884 1.368 . S
C2865 H2889 0.949 . S
H2866 C2870 0.949 . S
C2867 C2868 1.349 . S
C2867 C2869 1.327 . S
C2867 H2890 0.950 . S
C2868 C2867 1.349 . S
C2868 C2880 1.349 . S
C2869 C2867 1.327 . S
C2869 C2885 1.429 . S
C2869 H2891 0.950 . S
C2870 H2866 0.949 . S
C2870 C2878 1.574 1_545 S
C2870 C2886 1.368 . S
H2871 C2879 0.950 . S
H2872 C2877 0.950 . S
H2873 C2878 0.949 . S
H2874 C2880 0.950 . S
H2875 C2881 0.950 . S
H2876 C2882 0.949 . S
C2877 H2872 0.950 . S
C2877 C2879 1.327 . S
C2877 C2883 1.429 . S
C2878 C2870 1.574 1_565 S
C2878 H2873 0.949 . S
C2878 C2884 1.368 . S
C2879 C2863 1.349 . S
C2879 H2871 0.950 . S
C2879 C2877 1.327 . S
C2880 C2868 1.349 . S
C2880 H2874 0.950 . S
C2880 C2881 1.327 . S
C2881 H2875 0.950 . S
C2881 C2880 1.327 . S
C2881 C2885 1.429 . S
C2882 C2865 1.574 1_545 S
C2882 H2876 0.949 . S
C2882 C2886 1.368 . S
C2883 C2864 1.429 . S
C2883 C2877 1.429 . S
C2883 C2884 1.523 . S
C2884 C2865 1.368 . S
C2884 C2878 1.368 . S
C2884 C2883 1.523 . S
C2885 C2869 1.429 . S
C2885 C2881 1.429 . S
C2885 C2886 1.523 . S
C2886 C2870 1.368 . S
C2886 C2882 1.368 . S
C2886 C2885 1.523 . S
H2887 C2862 0.950 . S
H2888 C2864 0.950 . S
H2889 C2865 0.949 . S
H2890 C2867 0.950 . S
H2891 C2869 0.950 . S
C2892 C2893 1.349 . S
C2892 C2894 1.327 . S
C2892 H2917 0.950 . S
C2893 C2892 1.349 . S
C2893 C2909 1.349 . S
C2894 C2892 1.327 . S
C2894 C2913 1.429 . S
C2894 H2918 0.950 . S
C2895 C2912 1.574 . S
C2895 C2914 1.368 . S
C2895 H2919 0.949 . S
H2896 C2900 0.949 . S
C2897 C2898 1.349 . S
C2897 C2899 1.327 . S
C2897 H2920 0.950 . S
C2898 C2897 1.349 . S
C2898 C2910 1.349 . S
C2899 C2897 1.327 . S
C2899 C2915 1.429 . S
C2899 H2921 0.950 . S
C2900 H2896 0.949 . S
C2900 C2908 1.574 . S
C2900 C2916 1.368 . S
H2901 C2909 0.950 . S
H2902 C2907 0.950 . S
H2903 C2908 0.949 . S
H2904 C2910 0.950 . S
H2905 C2911 0.950 . S
H2906 C2912 0.949 . S
C2907 H2902 0.950 . S
C2907 C2909 1.327 . S
C2907 C2913 1.429 . S
C2908 C2900 1.574 . S
C2908 H2903 0.949 . S
C2908 C2914 1.368 . S
C2909 C2893 1.349 . S
C2909 H2901 0.950 . S
C2909 C2907 1.327 . S
C2910 C2898 1.349 . S
C2910 H2904 0.950 . S
C2910 C2911 1.327 . S
C2911 H2905 0.950 . S
C2911 C2910 1.327 . S
C2911 C2915 1.429 . S
C2912 C2895 1.574 . S
C2912 H2906 0.949 . S
C2912 C2916 1.368 . S
C2913 C2894 1.429 . S
C2913 C2907 1.429 . S
C2913 C2914 1.523 . S
C2914 C2895 1.368 . S
C2914 C2908 1.368 . S
C2914 C2913 1.523 . S
C2915 C2899 1.429 . S
C2915 C2911 1.429 . S
C2915 C2916 1.523 . S
C2916 C2900 1.368 . S
C2916 C2912 1.368 . S
C2916 C2915 1.523 . S
H2917 C2892 0.950 . S
H2918 C2894 0.950 . S
H2919 C2895 0.949 . S
H2920 C2897 0.950 . S
H2921 C2899 0.950 . S
C2922 C2923 1.349 . S
C2922 C2924 1.327 . S
C2922 H2947 0.950 . S
C2923 C2922 1.349 . S
C2923 C2939 1.349 . S
C2924 C2922 1.327 . S
C2924 C2943 1.429 . S
C2924 H2948 0.950 . S
C2925 C2942 1.574 . S
C2925 C2944 1.368 . S
C2925 H2949 0.949 . S
H2926 C2930 0.949 . S
C2927 C2928 1.349 . S
C2927 C2929 1.327 . S
C2927 H2950 0.950 . S
C2928 C2927 1.349 . S
C2928 C2940 1.349 . S
C2929 C2927 1.327 . S
C2929 C2945 1.429 . S
C2929 H2951 0.950 . S
C2930 H2926 0.949 . S
C2930 C2938 1.574 . S
C2930 C2946 1.368 . S
H2931 C2939 0.950 . S
H2932 C2937 0.950 . S
H2933 C2938 0.949 . S
H2934 C2940 0.950 . S
H2935 C2941 0.950 . S
H2936 C2942 0.949 . S
C2937 H2932 0.950 . S
C2937 C2939 1.327 . S
C2937 C2943 1.429 . S
C2938 C2930 1.574 . S
C2938 H2933 0.949 . S
C2938 C2944 1.368 . S
C2939 C2923 1.349 . S
C2939 H2931 0.950 . S
C2939 C2937 1.327 . S
C2940 C2928 1.349 . S
C2940 H2934 0.950 . S
C2940 C2941 1.327 . S
C2941 H2935 0.950 . S
C2941 C2940 1.327 . S
C2941 C2945 1.429 . S
C2942 C2925 1.574 . S
C2942 H2936 0.949 . S
C2942 C2946 1.368 . S
C2943 C2924 1.429 . S
C2943 C2937 1.429 . S
C2943 C2944 1.523 . S
C2944 C2925 1.368 . S
C2944 C2938 1.368 . S
C2944 C2943 1.523 . S
C2945 C2929 1.429 . S
C2945 C2941 1.429 . S
C2945 C2946 1.523 . S
C2946 C2930 1.368 . S
C2946 C2942 1.368 . S
C2946 C2945 1.523 . S
H2947 C2922 0.950 . S
H2948 C2924 0.950 . S
H2949 C2925 0.949 . S
H2950 C2927 0.950 . S
H2951 C2929 0.950 . S
C2952 C2953 1.349 . S
C2952 C2954 1.327 . S
C2952 H2977 0.950 . S
C2953 C2952 1.349 . S
C2953 C2969 1.349 . S
C2954 C2952 1.327 . S
C2954 C2973 1.429 . S
C2954 H2978 0.950 . S
C2955 C2972 1.574 1_556 S
C2955 C2974 1.368 . S
C2955 H2979 0.949 . S
H2956 C2960 0.949 . S
C2957 C2958 1.349 . S
C2957 C2959 1.327 . S
C2957 H2980 0.950 . S
C2958 C2957 1.349 . S
C2958 C2970 1.349 . S
C2959 C2957 1.327 . S
C2959 C2975 1.429 . S
C2959 H2981 0.950 . S
C2960 H2956 0.949 . S
C2960 C2968 1.574 1_554 S
C2960 C2976 1.368 . S
H2961 C2969 0.950 . S
H2962 C2967 0.950 . S
H2963 C2968 0.949 . S
H2964 C2970 0.950 . S
H2965 C2971 0.950 . S
H2966 C2972 0.949 . S
C2967 H2962 0.950 . S
C2967 C2969 1.327 . S
C2967 C2973 1.429 . S
C2968 C2960 1.574 1_556 S
C2968 H2963 0.949 . S
C2968 C2974 1.368 . S
C2969 C2953 1.349 . S
C2969 H2961 0.950 . S
C2969 C2967 1.327 . S
C2970 C2958 1.349 . S
C2970 H2964 0.950 . S
C2970 C2971 1.327 . S
C2971 H2965 0.950 . S
C2971 C2970 1.327 . S
C2971 C2975 1.429 . S
C2972 C2955 1.574 1_554 S
C2972 H2966 0.949 . S
C2972 C2976 1.368 . S
C2973 C2954 1.429 . S
C2973 C2967 1.429 . S
C2973 C2974 1.523 . S
C2974 C2955 1.368 . S
C2974 C2968 1.368 . S
C2974 C2973 1.523 . S
C2975 C2959 1.429 . S
C2975 C2971 1.429 . S
C2975 C2976 1.523 . S
C2976 C2960 1.368 . S
C2976 C2972 1.368 . S
C2976 C2975 1.523 . S
H2977 C2952 0.950 . S
H2978 C2954 0.950 . S
H2979 C2955 0.949 . S
H2980 C2957 0.950 . S
H2981 C2959 0.950 . S
C2982 C2983 1.349 . S
C2982 C2984 1.327 . S
C2982 H3007 0.950 . S
C2983 C2982 1.349 . S
C2983 C2999 1.349 . S
C2984 C2982 1.327 . S
C2984 C3003 1.429 . S
C2984 H3008 0.950 . S
C2985 C3002 1.574 1_554 S
C2985 C3004 1.368 . S
C2985 H3009 0.949 . S
H2986 C2990 0.949 . S
C2987 C2988 1.349 . S
C2987 C2989 1.327 . S
C2987 H3010 0.950 . S
C2988 C2987 1.349 . S
C2988 C3000 1.349 . S
C2989 C2987 1.327 . S
C2989 C3005 1.429 . S
C2989 H3011 0.950 . S
C2990 H2986 0.949 . S
C2990 C2998 1.574 1_556 S
C2990 C3006 1.368 . S
H2991 C2999 0.950 . S
H2992 C2997 0.950 . S
H2993 C2998 0.949 . S
H2994 C3000 0.950 . S
H2995 C3001 0.950 . S
H2996 C3002 0.949 . S
C2997 H2992 0.950 . S
C2997 C2999 1.327 . S
C2997 C3003 1.429 . S
C2998 C2990 1.574 1_554 S
C2998 H2993 0.949 . S
C2998 C3004 1.368 . S
C2999 C2983 1.349 . S
C2999 H2991 0.950 . S
C2999 C2997 1.327 . S
C3000 C2988 1.349 . S
C3000 H2994 0.950 . S
C3000 C3001 1.327 . S
C3001 H2995 0.950 . S
C3001 C3000 1.327 . S
C3001 C3005 1.429 . S
C3002 C2985 1.574 1_556 S
C3002 H2996 0.949 . S
C3002 C3006 1.368 . S
C3003 C2984 1.429 . S
C3003 C2997 1.429 . S
C3003 C3004 1.523 . S
C3004 C2985 1.368 . S
C3004 C2998 1.368 . S
C3004 C3003 1.523 . S
C3005 C2989 1.429 . S
C3005 C3001 1.429 . S
C3005 C3006 1.523 . S
C3006 C2990 1.368 . S
C3006 C3002 1.368 . S
C3006 C3005 1.523 . S
H3007 C2982 0.950 . S
H3008 C2984 0.950 . S
H3009 C2985 0.949 . S
H3010 C2987 0.950 . S
H3011 C2989 0.950 . S
C3012 C3013 1.349 . S
C3012 C3014 1.327 . S
C3012 H3037 0.950 . S
C3013 C3012 1.349 . S
C3013 C3029 1.349 . S
C3014 C3012 1.327 . S
C3014 C3033 1.429 . S
C3014 H3038 0.950 . S
C3015 C3032 1.574 . S
C3015 C3034 1.368 . S
C3015 H3039 0.949 . S
H3016 C3020 0.949 . S
C3017 C3018 1.349 . S
C3017 C3019 1.327 . S
C3017 H3040 0.950 . S
C3018 C3017 1.349 . S
C3018 C3030 1.349 . S
C3019 C3017 1.327 . S
C3019 C3035 1.429 . S
C3019 H3041 0.950 . S
C3020 H3016 0.949 . S
C3020 C3028 1.574 . S
C3020 C3036 1.368 . S
H3021 C3029 0.950 . S
H3022 C3027 0.950 . S
H3023 C3028 0.949 . S
H3024 C3030 0.950 . S
H3025 C3031 0.950 . S
H3026 C3032 0.949 . S
C3027 H3022 0.950 . S
C3027 C3029 1.327 . S
C3027 C3033 1.429 . S
C3028 C3020 1.574 . S
C3028 H3023 0.949 . S
C3028 C3034 1.368 . S
C3029 C3013 1.349 . S
C3029 H3021 0.950 . S
C3029 C3027 1.327 . S
C3030 C3018 1.349 . S
C3030 H3024 0.950 . S
C3030 C3031 1.327 . S
C3031 H3025 0.950 . S
C3031 C3030 1.327 . S
C3031 C3035 1.429 . S
C3032 C3015 1.574 . S
C3032 H3026 0.949 . S
C3032 C3036 1.368 . S
C3033 C3014 1.429 . S
C3033 C3027 1.429 . S
C3033 C3034 1.523 . S
C3034 C3015 1.368 . S
C3034 C3028 1.368 . S
C3034 C3033 1.523 . S
C3035 C3019 1.429 . S
C3035 C3031 1.429 . S
C3035 C3036 1.523 . S
C3036 C3020 1.368 . S
C3036 C3032 1.368 . S
C3036 C3035 1.523 . S
H3037 C3012 0.950 . S
H3038 C3014 0.950 . S
H3039 C3015 0.949 . S
H3040 C3017 0.950 . S
H3041 C3019 0.950 . S
C3042 C3043 1.349 . S
C3042 C3044 1.327 . S
C3042 H3067 0.950 . S
C3043 C3042 1.349 . S
C3043 C3059 1.349 . S
C3044 C3042 1.327 . S
C3044 C3063 1.429 . S
C3044 H3068 0.950 . S
C3045 C3062 1.574 . S
C3045 C3064 1.368 . S
C3045 H3069 0.949 . S
H3046 C3050 0.949 . S
C3047 C3048 1.349 . S
C3047 C3049 1.327 . S
C3047 H3070 0.950 . S
C3048 C3047 1.349 . S
C3048 C3060 1.349 . S
C3049 C3047 1.327 . S
C3049 C3065 1.429 . S
C3049 H3071 0.950 . S
C3050 H3046 0.949 . S
C3050 C3058 1.574 . S
C3050 C3066 1.368 . S
H3051 C3059 0.950 . S
H3052 C3057 0.950 . S
H3053 C3058 0.949 . S
H3054 C3060 0.950 . S
H3055 C3061 0.950 . S
H3056 C3062 0.949 . S
C3057 H3052 0.950 . S
C3057 C3059 1.327 . S
C3057 C3063 1.429 . S
C3058 C3050 1.574 . S
C3058 H3053 0.949 . S
C3058 C3064 1.368 . S
C3059 C3043 1.349 . S
C3059 H3051 0.950 . S
C3059 C3057 1.327 . S
C3060 C3048 1.349 . S
C3060 H3054 0.950 . S
C3060 C3061 1.327 . S
C3061 H3055 0.950 . S
C3061 C3060 1.327 . S
C3061 C3065 1.429 . S
C3062 C3045 1.574 . S
C3062 H3056 0.949 . S
C3062 C3066 1.368 . S
C3063 C3044 1.429 . S
C3063 C3057 1.429 . S
C3063 C3064 1.523 . S
C3064 C3045 1.368 . S
C3064 C3058 1.368 . S
C3064 C3063 1.523 . S
C3065 C3049 1.429 . S
C3065 C3061 1.429 . S
C3065 C3066 1.523 . S
C3066 C3050 1.368 . S
C3066 C3062 1.368 . S
C3066 C3065 1.523 . S
H3067 C3042 0.950 . S
H3068 C3044 0.950 . S
H3069 C3045 0.949 . S
H3070 C3047 0.950 . S
H3071 C3049 0.950 . S
C3072 C3073 1.349 . S
C3072 C3074 1.327 . S
C3072 H3097 0.950 . S
C3073 C3072 1.349 . S
C3073 C3089 1.349 . S
C3074 C3072 1.327 . S
C3074 C3093 1.429 . S
C3074 H3098 0.950 . S
C3075 C3092 1.574 1_455 S
C3075 C3094 1.368 . S
C3075 H3099 0.949 . S
H3076 C3080 0.949 . S
C3077 C3078 1.349 . S
C3077 C3079 1.327 . S
C3077 H3100 0.950 . S
C3078 C3077 1.349 . S
C3078 C3090 1.349 . S
C3079 C3077 1.327 . S
C3079 C3095 1.429 . S
C3079 H3101 0.950 . S
C3080 H3076 0.949 . S
C3080 C3088 1.574 1_655 S
C3080 C3096 1.368 . S
H3081 C3089 0.950 . S
H3082 C3087 0.950 . S
H3083 C3088 0.949 . S
H3084 C3090 0.950 . S
H3085 C3091 0.950 . S
H3086 C3092 0.949 . S
C3087 H3082 0.950 . S
C3087 C3089 1.327 . S
C3087 C3093 1.429 . S
C3088 C3080 1.574 1_455 S
C3088 H3083 0.949 . S
C3088 C3094 1.368 . S
C3089 C3073 1.349 . S
C3089 H3081 0.950 . S
C3089 C3087 1.327 . S
C3090 C3078 1.349 . S
C3090 H3084 0.950 . S
C3090 C3091 1.327 . S
C3091 H3085 0.950 . S
C3091 C3090 1.327 . S
C3091 C3095 1.429 . S
C3092 C3075 1.574 1_655 S
C3092 H3086 0.949 . S
C3092 C3096 1.368 . S
C3093 C3074 1.429 . S
C3093 C3087 1.429 . S
C3093 C3094 1.523 . S
C3094 C3075 1.368 . S
C3094 C3088 1.368 . S
C3094 C3093 1.523 . S
C3095 C3079 1.429 . S
C3095 C3091 1.429 . S
C3095 C3096 1.523 . S
C3096 C3080 1.368 . S
C3096 C3092 1.368 . S
C3096 C3095 1.523 . S
H3097 C3072 0.950 . S
H3098 C3074 0.950 . S
H3099 C3075 0.949 . S
H3100 C3077 0.950 . S
H3101 C3079 0.950 . S
C3102 C3103 1.349 . S
C3102 C3104 1.327 . S
C3102 H3127 0.950 . S
C3103 C3102 1.349 . S
C3103 C3119 1.349 . S
C3104 C3102 1.327 . S
C3104 C3123 1.429 . S
C3104 H3128 0.950 . S
C3105 C3122 1.574 . S
C3105 C3124 1.368 . S
C3105 H3129 0.949 . S
H3106 C3110 0.949 . S
C3107 C3108 1.349 . S
C3107 C3109 1.327 . S
C3107 H3130 0.950 . S
C3108 C3107 1.349 . S
C3108 C3120 1.349 . S
C3109 C3107 1.327 . S
C3109 C3125 1.429 . S
C3109 H3131 0.950 . S
C3110 H3106 0.949 . S
C3110 C3118 1.574 . S
C3110 C3126 1.368 . S
H3111 C3119 0.950 . S
H3112 C3117 0.950 . S
H3113 C3118 0.949 . S
H3114 C3120 0.950 . S
H3115 C3121 0.950 . S
H3116 C3122 0.949 . S
C3117 H3112 0.950 . S
C3117 C3119 1.327 . S
C3117 C3123 1.429 . S
C3118 C3110 1.574 . S
C3118 H3113 0.949 . S
C3118 C3124 1.368 . S
C3119 C3103 1.349 . S
C3119 H3111 0.950 . S
C3119 C3117 1.327 . S
C3120 C3108 1.349 . S
C3120 H3114 0.950 . S
C3120 C3121 1.327 . S
C3121 H3115 0.950 . S
C3121 C3120 1.327 . S
C3121 C3125 1.429 . S
C3122 C3105 1.574 . S
C3122 H3116 0.949 . S
C3122 C3126 1.368 . S
C3123 C3104 1.429 . S
C3123 C3117 1.429 . S
C3123 C3124 1.523 . S
C3124 C3105 1.368 . S
C3124 C3118 1.368 . S
C3124 C3123 1.523 . S
C3125 C3109 1.429 . S
C3125 C3121 1.429 . S
C3125 C3126 1.523 . S
C3126 C3110 1.368 . S
C3126 C3122 1.368 . S
C3126 C3125 1.523 . S
H3127 C3102 0.950 . S
H3128 C3104 0.950 . S
H3129 C3105 0.949 . S
H3130 C3107 0.950 . S
H3131 C3109 0.950 . S
C3132 C3133 1.349 . S
C3132 C3134 1.327 . S
C3132 H3157 0.950 . S
C3133 C3132 1.349 . S
C3133 C3149 1.349 . S
C3134 C3132 1.327 . S
C3134 C3153 1.429 . S
C3134 H3158 0.950 . S
C3135 C3152 1.574 1_545 S
C3135 C3154 1.368 . S
C3135 H3159 0.949 . S
H3136 C3140 0.949 . S
C3137 C3138 1.349 . S
C3137 C3139 1.327 . S
C3137 H3160 0.950 . S
C3138 C3137 1.349 . S
C3138 C3150 1.349 . S
C3139 C3137 1.327 . S
C3139 C3155 1.429 . S
C3139 H3161 0.950 . S
C3140 H3136 0.949 . S
C3140 C3148 1.574 1_565 S
C3140 C3156 1.368 . S
H3141 C3149 0.950 . S
H3142 C3147 0.950 . S
H3143 C3148 0.949 . S
H3144 C3150 0.950 . S
H3145 C3151 0.950 . S
H3146 C3152 0.949 . S
C3147 H3142 0.950 . S
C3147 C3149 1.327 . S
C3147 C3153 1.429 . S
C3148 C3140 1.574 1_545 S
C3148 H3143 0.949 . S
C3148 C3154 1.368 . S
C3149 C3133 1.349 . S
C3149 H3141 0.950 . S
C3149 C3147 1.327 . S
C3150 C3138 1.349 . S
C3150 H3144 0.950 . S
C3150 C3151 1.327 . S
C3151 H3145 0.950 . S
C3151 C3150 1.327 . S
C3151 C3155 1.429 . S
C3152 C3135 1.574 1_565 S
C3152 H3146 0.949 . S
C3152 C3156 1.368 . S
C3153 C3134 1.429 . S
C3153 C3147 1.429 . S
C3153 C3154 1.523 . S
C3154 C3135 1.368 . S
C3154 C3148 1.368 . S
C3154 C3153 1.523 . S
C3155 C3139 1.429 . S
C3155 C3151 1.429 . S
C3155 C3156 1.523 . S
C3156 C3140 1.368 . S
C3156 C3152 1.368 . S
C3156 C3155 1.523 . S
H3157 C3132 0.950 . S
H3158 C3134 0.950 . S
H3159 C3135 0.949 . S
H3160 C3137 0.950 . S
H3161 C3139 0.950 . S
C3162 C3163 1.349 . S
C3162 C3164 1.327 . S
C3162 H3187 0.950 . S
C3163 C3162 1.349 . S
C3163 C3179 1.349 . S
C3164 C3162 1.327 . S
C3164 C3183 1.429 . S
C3164 H3188 0.950 . S
C3165 C3182 1.574 . S
C3165 C3184 1.368 . S
C3165 H3189 0.949 . S
H3166 C3170 0.949 . S
C3167 C3168 1.349 . S
C3167 C3169 1.327 . S
C3167 H3190 0.950 . S
C3168 C3167 1.349 . S
C3168 C3180 1.349 . S
C3169 C3167 1.327 . S
C3169 C3185 1.429 . S
C3169 H3191 0.950 . S
C3170 H3166 0.949 . S
C3170 C3178 1.574 . S
C3170 C3186 1.368 . S
H3171 C3179 0.950 . S
H3172 C3177 0.950 . S
H3173 C3178 0.949 . S
H3174 C3180 0.950 . S
H3175 C3181 0.950 . S
H3176 C3182 0.949 . S
C3177 H3172 0.950 . S
C3177 C3179 1.327 . S
C3177 C3183 1.429 . S
C3178 C3170 1.574 . S
C3178 H3173 0.949 . S
C3178 C3184 1.368 . S
C3179 C3163 1.349 . S
C3179 H3171 0.950 . S
C3179 C3177 1.327 . S
C3180 C3168 1.349 . S
C3180 H3174 0.950 . S
C3180 C3181 1.327 . S
C3181 H3175 0.950 . S
C3181 C3180 1.327 . S
C3181 C3185 1.429 . S
C3182 C3165 1.574 . S
C3182 H3176 0.949 . S
C3182 C3186 1.368 . S
C3183 C3164 1.429 . S
C3183 C3177 1.429 . S
C3183 C3184 1.523 . S
C3184 C3165 1.368 . S
C3184 C3178 1.368 . S
C3184 C3183 1.523 . S
C3185 C3169 1.429 . S
C3185 C3181 1.429 . S
C3185 C3186 1.523 . S
C3186 C3170 1.368 . S
C3186 C3182 1.368 . S
C3186 C3185 1.523 . S
H3187 C3162 0.950 . S
H3188 C3164 0.950 . S
H3189 C3165 0.949 . S
H3190 C3167 0.950 . S
H3191 C3169 0.950 . S
C3192 C3193 1.349 . S
C3192 C3194 1.327 . S
C3192 H3217 0.950 . S
C3193 C3192 1.349 . S
C3193 C3209 1.349 . S
C3194 C3192 1.327 . S
C3194 C3213 1.429 . S
C3194 H3218 0.950 . S
C3195 C3212 1.574 . S
C3195 C3214 1.368 . S
C3195 H3219 0.949 . S
H3196 C3200 0.949 . S
C3197 C3198 1.349 . S
C3197 C3199 1.327 . S
C3197 H3220 0.950 . S
C3198 C3197 1.349 . S
C3198 C3210 1.349 . S
C3199 C3197 1.327 . S
C3199 C3215 1.429 . S
C3199 H3221 0.950 . S
C3200 H3196 0.949 . S
C3200 C3208 1.574 . S
C3200 C3216 1.368 . S
H3201 C3209 0.950 . S
H3202 C3207 0.950 . S
H3203 C3208 0.949 . S
H3204 C3210 0.950 . S
H3205 C3211 0.950 . S
H3206 C3212 0.949 . S
C3207 H3202 0.950 . S
C3207 C3209 1.327 . S
C3207 C3213 1.429 . S
C3208 C3200 1.574 . S
C3208 H3203 0.949 . S
C3208 C3214 1.368 . S
C3209 C3193 1.349 . S
C3209 H3201 0.950 . S
C3209 C3207 1.327 . S
C3210 C3198 1.349 . S
C3210 H3204 0.950 . S
C3210 C3211 1.327 . S
C3211 H3205 0.950 . S
C3211 C3210 1.327 . S
C3211 C3215 1.429 . S
C3212 C3195 1.574 . S
C3212 H3206 0.949 . S
C3212 C3216 1.368 . S
C3213 C3194 1.429 . S
C3213 C3207 1.429 . S
C3213 C3214 1.523 . S
C3214 C3195 1.368 . S
C3214 C3208 1.368 . S
C3214 C3213 1.523 . S
C3215 C3199 1.429 . S
C3215 C3211 1.429 . S
C3215 C3216 1.523 . S
C3216 C3200 1.368 . S
C3216 C3212 1.368 . S
C3216 C3215 1.523 . S
H3217 C3192 0.950 . S
H3218 C3194 0.950 . S
H3219 C3195 0.949 . S
H3220 C3197 0.950 . S
H3221 C3199 0.950 . S
C3222 C3223 1.349 . S
C3222 C3224 1.327 . S
C3222 H3247 0.950 . S
C3223 C3222 1.349 . S
C3223 C3239 1.349 . S
C3224 C3222 1.327 . S
C3224 C3243 1.429 . S
C3224 H3248 0.950 . S
C3225 C3242 1.574 1_556 S
C3225 C3244 1.368 . S
C3225 H3249 0.949 . S
H3226 C3230 0.949 . S
C3227 C3228 1.349 . S
C3227 C3229 1.327 . S
C3227 H3250 0.950 . S
C3228 C3227 1.349 . S
C3228 C3240 1.349 . S
C3229 C3227 1.327 . S
C3229 C3245 1.429 . S
C3229 H3251 0.950 . S
C3230 H3226 0.949 . S
C3230 C3238 1.574 1_554 S
C3230 C3246 1.368 . S
H3231 C3239 0.950 . S
H3232 C3237 0.950 . S
H3233 C3238 0.949 . S
H3234 C3240 0.950 . S
H3235 C3241 0.950 . S
H3236 C3242 0.949 . S
C3237 H3232 0.950 . S
C3237 C3239 1.327 . S
C3237 C3243 1.429 . S
C3238 C3230 1.574 1_556 S
C3238 H3233 0.949 . S
C3238 C3244 1.368 . S
C3239 C3223 1.349 . S
C3239 H3231 0.950 . S
C3239 C3237 1.327 . S
C3240 C3228 1.349 . S
C3240 H3234 0.950 . S
C3240 C3241 1.327 . S
C3241 H3235 0.950 . S
C3241 C3240 1.327 . S
C3241 C3245 1.429 . S
C3242 C3225 1.574 1_554 S
C3242 H3236 0.949 . S
C3242 C3246 1.368 . S
C3243 C3224 1.429 . S
C3243 C3237 1.429 . S
C3243 C3244 1.523 . S
C3244 C3225 1.368 . S
C3244 C3238 1.368 . S
C3244 C3243 1.523 . S
C3245 C3229 1.429 . S
C3245 C3241 1.429 . S
C3245 C3246 1.523 . S
C3246 C3230 1.368 . S
C3246 C3242 1.368 . S
C3246 C3245 1.523 . S
H3247 C3222 0.950 . S
H3248 C3224 0.950 . S
H3249 C3225 0.949 . S
H3250 C3227 0.950 . S
H3251 C3229 0.950 . S
C3252 C3253 1.349 . S
C3252 C3254 1.327 . S
C3252 H3277 0.950 . S
C3253 C3252 1.349 . S
C3253 C3269 1.349 . S
C3254 C3252 1.327 . S
C3254 C3273 1.429 . S
C3254 H3278 0.950 . S
C3255 C3272 1.574 1_556 S
C3255 C3274 1.368 . S
C3255 H3279 0.949 . S
H3256 C3260 0.949 . S
C3257 C3258 1.349 . S
C3257 C3259 1.327 . S
C3257 H3280 0.950 . S
C3258 C3257 1.349 . S
C3258 C3270 1.349 . S
C3259 C3257 1.327 . S
C3259 C3275 1.429 . S
C3259 H3281 0.950 . S
C3260 H3256 0.949 . S
C3260 C3268 1.574 1_554 S
C3260 C3276 1.368 . S
H3261 C3269 0.950 . S
H3262 C3267 0.950 . S
H3263 C3268 0.949 . S
H3264 C3270 0.950 . S
H3265 C3271 0.950 . S
H3266 C3272 0.949 . S
C3267 H3262 0.950 . S
C3267 C3269 1.327 . S
C3267 C3273 1.429 . S
C3268 C3260 1.574 1_556 S
C3268 H3263 0.949 . S
C3268 C3274 1.368 . S
C3269 C3253 1.349 . S
C3269 H3261 0.950 . S
C3269 C3267 1.327 . S
C3270 C3258 1.349 . S
C3270 H3264 0.950 . S
C3270 C3271 1.327 . S
C3271 H3265 0.950 . S
C3271 C3270 1.327 . S
C3271 C3275 1.429 . S
C3272 C3255 1.574 1_554 S
C3272 H3266 0.949 . S
C3272 C3276 1.368 . S
C3273 C3254 1.429 . S
C3273 C3267 1.429 . S
C3273 C3274 1.523 . S
C3274 C3255 1.368 . S
C3274 C3268 1.368 . S
C3274 C3273 1.523 . S
C3275 C3259 1.429 . S
C3275 C3271 1.429 . S
C3275 C3276 1.523 . S
C3276 C3260 1.368 . S
C3276 C3272 1.368 . S
C3276 C3275 1.523 . S
H3277 C3252 0.950 . S
H3278 C3254 0.950 . S
H3279 C3255 0.949 . S
H3280 C3257 0.950 . S
H3281 C3259 0.950 . S
C3282 C3283 1.349 . S
C3282 C3284 1.327 . S
C3282 H3307 0.950 . S
C3283 C3282 1.349 . S
C3283 C3299 1.349 . S
C3284 C3282 1.327 . S
C3284 C3303 1.429 . S
C3284 H3308 0.950 . S
C3285 C3302 1.574 . S
C3285 C3304 1.368 . S
C3285 H3309 0.949 . S
H3286 C3290 0.949 . S
C3287 C3288 1.349 . S
C3287 C3289 1.327 . S
C3287 H3310 0.950 . S
C3288 C3287 1.349 . S
C3288 C3300 1.349 . S
C3289 C3287 1.327 . S
C3289 C3305 1.429 . S
C3289 H3311 0.950 . S
C3290 H3286 0.949 . S
C3290 C3298 1.574 . S
C3290 C3306 1.368 . S
H3291 C3299 0.950 . S
H3292 C3297 0.950 . S
H3293 C3298 0.949 . S
H3294 C3300 0.950 . S
H3295 C3301 0.950 . S
H3296 C3302 0.949 . S
C3297 H3292 0.950 . S
C3297 C3299 1.327 . S
C3297 C3303 1.429 . S
C3298 C3290 1.574 . S
C3298 H3293 0.949 . S
C3298 C3304 1.368 . S
C3299 C3283 1.349 . S
C3299 H3291 0.950 . S
C3299 C3297 1.327 . S
C3300 C3288 1.349 . S
C3300 H3294 0.950 . S
C3300 C3301 1.327 . S
C3301 H3295 0.950 . S
C3301 C3300 1.327 . S
C3301 C3305 1.429 . S
C3302 C3285 1.574 . S
C3302 H3296 0.949 . S
C3302 C3306 1.368 . S
C3303 C3284 1.429 . S
C3303 C3297 1.429 . S
C3303 C3304 1.523 . S
C3304 C3285 1.368 . S
C3304 C3298 1.368 . S
C3304 C3303 1.523 . S
C3305 C3289 1.429 . S
C3305 C3301 1.429 . S
C3305 C3306 1.523 . S
C3306 C3290 1.368 . S
C3306 C3302 1.368 . S
C3306 C3305 1.523 . S
H3307 C3282 0.950 . S
H3308 C3284 0.950 . S
H3309 C3285 0.949 . S
H3310 C3287 0.950 . S
H3311 C3289 0.950 . S
C3312 C3313 1.349 . S
C3312 C3314 1.327 . S
C3312 H3337 0.950 . S
C3313 C3312 1.349 . S
C3313 C3329 1.349 . S
C3314 C3312 1.327 . S
C3314 C3333 1.429 . S
C3314 H3338 0.950 . S
C3315 C3332 1.574 . S
C3315 C3334 1.368 . S
C3315 H3339 0.949 . S
H3316 C3320 0.949 . S
C3317 C3318 1.349 . S
C3317 C3319 1.327 . S
C3317 H3340 0.950 . S
C3318 C3317 1.349 . S
C3318 C3330 1.349 . S
C3319 C3317 1.327 . S
C3319 C3335 1.429 . S
C3319 H3341 0.950 . S
C3320 H3316 0.949 . S
C3320 C3328 1.574 . S
C3320 C3336 1.368 . S
H3321 C3329 0.950 . S
H3322 C3327 0.950 . S
H3323 C3328 0.949 . S
H3324 C3330 0.950 . S
H3325 C3331 0.950 . S
H3326 C3332 0.949 . S
C3327 H3322 0.950 . S
C3327 C3329 1.327 . S
C3327 C3333 1.429 . S
C3328 C3320 1.574 . S
C3328 H3323 0.949 . S
C3328 C3334 1.368 . S
C3329 C3313 1.349 . S
C3329 H3321 0.950 . S
C3329 C3327 1.327 . S
C3330 C3318 1.349 . S
C3330 H3324 0.950 . S
C3330 C3331 1.327 . S
C3331 H3325 0.950 . S
C3331 C3330 1.327 . S
C3331 C3335 1.429 . S
C3332 C3315 1.574 . S
C3332 H3326 0.949 . S
C3332 C3336 1.368 . S
C3333 C3314 1.429 . S
C3333 C3327 1.429 . S
C3333 C3334 1.523 . S
C3334 C3315 1.368 . S
C3334 C3328 1.368 . S
C3334 C3333 1.523 . S
C3335 C3319 1.429 . S
C3335 C3331 1.429 . S
C3335 C3336 1.523 . S
C3336 C3320 1.368 . S
C3336 C3332 1.368 . S
C3336 C3335 1.523 . S
H3337 C3312 0.950 . S
H3338 C3314 0.950 . S
H3339 C3315 0.949 . S
H3340 C3317 0.950 . S
H3341 C3319 0.950 . S
C3342 C3343 1.349 . S
C3342 C3344 1.327 . S
C3342 H3367 0.950 . S
C3343 C3342 1.349 . S
C3343 C3359 1.349 . S
C3344 C3342 1.327 . S
C3344 C3363 1.429 . S
C3344 H3368 0.950 . S
C3345 C3362 1.574 1_655 S
C3345 C3364 1.368 . S
C3345 H3369 0.949 . S
H3346 C3350 0.949 . S
C3347 C3348 1.349 . S
C3347 C3349 1.327 . S
C3347 H3370 0.950 . S
C3348 C3347 1.349 . S
C3348 C3360 1.349 . S
C3349 C3347 1.327 . S
C3349 C3365 1.429 . S
C3349 H3371 0.950 . S
C3350 H3346 0.949 . S
C3350 C3358 1.574 1_455 S
C3350 C3366 1.368 . S
H3351 C3359 0.950 . S
H3352 C3357 0.950 . S
H3353 C3358 0.949 . S
H3354 C3360 0.950 . S
H3355 C3361 0.950 . S
H3356 C3362 0.949 . S
C3357 H3352 0.950 . S
C3357 C3359 1.327 . S
C3357 C3363 1.429 . S
C3358 C3350 1.574 1_655 S
C3358 H3353 0.949 . S
C3358 C3364 1.368 . S
C3359 C3343 1.349 . S
C3359 H3351 0.950 . S
C3359 C3357 1.327 . S
C3360 C3348 1.349 . S
C3360 H3354 0.950 . S
C3360 C3361 1.327 . S
C3361 H3355 0.950 . S
C3361 C3360 1.327 . S
C3361 C3365 1.429 . S
C3362 C3345 1.574 1_455 S
C3362 H3356 0.949 . S
C3362 C3366 1.368 . S
C3363 C3344 1.429 . S
C3363 C3357 1.429 . S
C3363 C3364 1.523 . S
C3364 C3345 1.368 . S
C3364 C3358 1.368 . S
C3364 C3363 1.523 . S
C3365 C3349 1.429 . S
C3365 C3361 1.429 . S
C3365 C3366 1.523 . S
C3366 C3350 1.368 . S
C3366 C3362 1.368 . S
C3366 C3365 1.523 . S
H3367 C3342 0.950 . S
H3368 C3344 0.950 . S
H3369 C3345 0.949 . S
H3370 C3347 0.950 . S
H3371 C3349 0.950 . S
C3372 C3373 1.349 . S
C3372 C3374 1.327 . S
C3372 H3397 0.950 . S
C3373 C3372 1.349 . S
C3373 C3389 1.349 . S
C3374 C3372 1.327 . S
C3374 C3393 1.429 . S
C3374 H3398 0.950 . S
C3375 C3392 1.574 1_545 S
C3375 C3394 1.368 . S
C3375 H3399 0.949 . S
H3376 C3380 0.949 . S
C3377 C3378 1.349 . S
C3377 C3379 1.327 . S
C3377 H3400 0.950 . S
C3378 C3377 1.349 . S
C3378 C3390 1.349 . S
C3379 C3377 1.327 . S
C3379 C3395 1.429 . S
C3379 H3401 0.950 . S
C3380 H3376 0.949 . S
C3380 C3388 1.574 1_565 S
C3380 C3396 1.368 . S
H3381 C3389 0.950 . S
H3382 C3387 0.950 . S
H3383 C3388 0.949 . S
H3384 C3390 0.950 . S
H3385 C3391 0.950 . S
H3386 C3392 0.949 . S
C3387 H3382 0.950 . S
C3387 C3389 1.327 . S
C3387 C3393 1.429 . S
C3388 C3380 1.574 1_545 S
C3388 H3383 0.949 . S
C3388 C3394 1.368 . S
C3389 C3373 1.349 . S
C3389 H3381 0.950 . S
C3389 C3387 1.327 . S
C3390 C3378 1.349 . S
C3390 H3384 0.950 . S
C3390 C3391 1.327 . S
C3391 H3385 0.950 . S
C3391 C3390 1.327 . S
C3391 C3395 1.429 . S
C3392 C3375 1.574 1_565 S
C3392 H3386 0.949 . S
C3392 C3396 1.368 . S
C3393 C3374 1.429 . S
C3393 C3387 1.429 . S
C3393 C3394 1.523 . S
C3394 C3375 1.368 . S
C3394 C3388 1.368 . S
C3394 C3393 1.523 . S
C3395 C3379 1.429 . S
C3395 C3391 1.429 . S
C3395 C3396 1.523 . S
C3396 C3380 1.368 . S
C3396 C3392 1.368 . S
C3396 C3395 1.523 . S
H3397 C3372 0.950 . S
H3398 C3374 0.950 . S
H3399 C3375 0.949 . S
H3400 C3377 0.950 . S
H3401 C3379 0.950 . S
C3402 C3403 1.349 . S
C3402 C3404 1.327 . S
C3402 H3427 0.950 . S
C3403 C3402 1.349 . S
C3403 C3419 1.349 . S
C3404 C3402 1.327 . S
C3404 C3423 1.429 . S
C3404 H3428 0.950 . S
C3405 C3422 1.574 . S
C3405 C3424 1.368 . S
C3405 H3429 0.949 . S
H3406 C3410 0.949 . S
C3407 C3408 1.349 . S
C3407 C3409 1.327 . S
C3407 H3430 0.950 . S
C3408 C3407 1.349 . S
C3408 C3420 1.349 . S
C3409 C3407 1.327 . S
C3409 C3425 1.429 . S
C3409 H3431 0.950 . S
C3410 H3406 0.949 . S
C3410 C3418 1.574 . S
C3410 C3426 1.368 . S
H3411 C3419 0.950 . S
H3412 C3417 0.950 . S
H3413 C3418 0.949 . S
H3414 C3420 0.950 . S
H3415 C3421 0.950 . S
H3416 C3422 0.949 . S
C3417 H3412 0.950 . S
C3417 C3419 1.327 . S
C3417 C3423 1.429 . S
C3418 C3410 1.574 . S
C3418 H3413 0.949 . S
C3418 C3424 1.368 . S
C3419 C3403 1.349 . S
C3419 H3411 0.950 . S
C3419 C3417 1.327 . S
C3420 C3408 1.349 . S
C3420 H3414 0.950 . S
C3420 C3421 1.327 . S
C3421 H3415 0.950 . S
C3421 C3420 1.327 . S
C3421 C3425 1.429 . S
C3422 C3405 1.574 . S
C3422 H3416 0.949 . S
C3422 C3426 1.368 . S
C3423 C3404 1.429 . S
C3423 C3417 1.429 . S
C3423 C3424 1.523 . S
C3424 C3405 1.368 . S
C3424 C3418 1.368 . S
C3424 C3423 1.523 . S
C3425 C3409 1.429 . S
C3425 C3421 1.429 . S
C3425 C3426 1.523 . S
C3426 C3410 1.368 . S
C3426 C3422 1.368 . S
C3426 C3425 1.523 . S
H3427 C3402 0.950 . S
H3428 C3404 0.950 . S
H3429 C3405 0.949 . S
H3430 C3407 0.950 . S
H3431 C3409 0.950 . S
C3432 C3433 1.349 . S
C3432 C3434 1.327 . S
C3432 H3457 0.950 . S
C3433 C3432 1.349 . S
C3433 C3449 1.349 . S
C3434 C3432 1.327 . S
C3434 C3453 1.429 . S
C3434 H3458 0.950 . S
C3435 C3452 1.574 1_455 S
C3435 C3454 1.368 . S
C3435 H3459 0.949 . S
H3436 C3440 0.949 . S
C3437 C3438 1.349 . S
C3437 C3439 1.327 . S
C3437 H3460 0.950 . S
C3438 C3437 1.349 . S
C3438 C3450 1.349 . S
C3439 C3437 1.327 . S
C3439 C3455 1.429 . S
C3439 H3461 0.950 . S
C3440 H3436 0.949 . S
C3440 C3448 1.574 1_655 S
C3440 C3456 1.368 . S
H3441 C3449 0.950 . S
H3442 C3447 0.950 . S
H3443 C3448 0.949 . S
H3444 C3450 0.950 . S
H3445 C3451 0.950 . S
H3446 C3452 0.949 . S
C3447 H3442 0.950 . S
C3447 C3449 1.327 . S
C3447 C3453 1.429 . S
C3448 C3440 1.574 1_455 S
C3448 H3443 0.949 . S
C3448 C3454 1.368 . S
C3449 C3433 1.349 . S
C3449 H3441 0.950 . S
C3449 C3447 1.327 . S
C3450 C3438 1.349 . S
C3450 H3444 0.950 . S
C3450 C3451 1.327 . S
C3451 H3445 0.950 . S
C3451 C3450 1.327 . S
C3451 C3455 1.429 . S
C3452 C3435 1.574 1_655 S
C3452 H3446 0.949 . S
C3452 C3456 1.368 . S
C3453 C3434 1.429 . S
C3453 C3447 1.429 . S
C3453 C3454 1.523 . S
C3454 C3435 1.368 . S
C3454 C3448 1.368 . S
C3454 C3453 1.523 . S
C3455 C3439 1.429 . S
C3455 C3451 1.429 . S
C3455 C3456 1.523 . S
C3456 C3440 1.368 . S
C3456 C3452 1.368 . S
C3456 C3455 1.523 . S
H3457 C3432 0.950 . S
H3458 C3434 0.950 . S
H3459 C3435 0.949 . S
H3460 C3437 0.950 . S
H3461 C3439 0.950 . S
C3462 C3463 1.349 . S
C3462 C3464 1.327 . S
C3462 H3487 0.950 . S
C3463 C3462 1.349 . S
C3463 C3479 1.349 . S
C3464 C3462 1.327 . S
C3464 C3483 1.429 . S
C3464 H3488 0.950 . S
C3465 C3482 1.574 1_545 S
C3465 C3484 1.368 . S
C3465 H3489 0.949 . S
H3466 C3470 0.949 . S
C3467 C3468 1.349 . S
C3467 C3469 1.327 . S
C3467 H3490 0.950 . S
C3468 C3467 1.349 . S
C3468 C3480 1.349 . S
C3469 C3467 1.327 . S
C3469 C3485 1.429 . S
C3469 H3491 0.950 . S
C3470 H3466 0.949 . S
C3470 C3478 1.574 1_565 S
C3470 C3486 1.368 . S
H3471 C3479 0.950 . S
H3472 C3477 0.950 . S
H3473 C3478 0.949 . S
H3474 C3480 0.950 . S
H3475 C3481 0.950 . S
H3476 C3482 0.949 . S
C3477 H3472 0.950 . S
C3477 C3479 1.327 . S
C3477 C3483 1.429 . S
C3478 C3470 1.574 1_545 S
C3478 H3473 0.949 . S
C3478 C3484 1.368 . S
C3479 C3463 1.349 . S
C3479 H3471 0.950 . S
C3479 C3477 1.327 . S
C3480 C3468 1.349 . S
C3480 H3474 0.950 . S
C3480 C3481 1.327 . S
C3481 H3475 0.950 . S
C3481 C3480 1.327 . S
C3481 C3485 1.429 . S
C3482 C3465 1.574 1_565 S
C3482 H3476 0.949 . S
C3482 C3486 1.368 . S
C3483 C3464 1.429 . S
C3483 C3477 1.429 . S
C3483 C3484 1.523 . S
C3484 C3465 1.368 . S
C3484 C3478 1.368 . S
C3484 C3483 1.523 . S
C3485 C3469 1.429 . S
C3485 C3481 1.429 . S
C3485 C3486 1.523 . S
C3486 C3470 1.368 . S
C3486 C3482 1.368 . S
C3486 C3485 1.523 . S
H3487 C3462 0.950 . S
H3488 C3464 0.950 . S
H3489 C3465 0.949 . S
H3490 C3467 0.950 . S
H3491 C3469 0.950 . S
C3492 C3493 1.349 . S
C3492 C3494 1.327 . S
C3492 H3517 0.950 . S
C3493 C3492 1.349 . S
C3493 C3509 1.349 . S
C3494 C3492 1.327 . S
C3494 C3513 1.429 . S
C3494 H3518 0.950 . S
C3495 C3512 1.574 . S
C3495 C3514 1.368 . S
C3495 H3519 0.949 . S
H3496 C3500 0.949 . S
C3497 C3498 1.349 . S
C3497 C3499 1.327 . S
C3497 H3520 0.950 . S
C3498 C3497 1.349 . S
C3498 C3510 1.349 . S
C3499 C3497 1.327 . S
C3499 C3515 1.429 . S
C3499 H3521 0.950 . S
C3500 H3496 0.949 . S
C3500 C3508 1.574 . S
C3500 C3516 1.368 . S
H3501 C3509 0.950 . S
H3502 C3507 0.950 . S
H3503 C3508 0.949 . S
H3504 C3510 0.950 . S
H3505 C3511 0.950 . S
H3506 C3512 0.949 . S
C3507 H3502 0.950 . S
C3507 C3509 1.327 . S
C3507 C3513 1.429 . S
C3508 C3500 1.574 . S
C3508 H3503 0.949 . S
C3508 C3514 1.368 . S
C3509 C3493 1.349 . S
C3509 H3501 0.950 . S
C3509 C3507 1.327 . S
C3510 C3498 1.349 . S
C3510 H3504 0.950 . S
C3510 C3511 1.327 . S
C3511 H3505 0.950 . S
C3511 C3510 1.327 . S
C3511 C3515 1.429 . S
C3512 C3495 1.574 . S
C3512 H3506 0.949 . S
C3512 C3516 1.368 . S
C3513 C3494 1.429 . S
C3513 C3507 1.429 . S
C3513 C3514 1.523 . S
C3514 C3495 1.368 . S
C3514 C3508 1.368 . S
C3514 C3513 1.523 . S
C3515 C3499 1.429 . S
C3515 C3511 1.429 . S
C3515 C3516 1.523 . S
C3516 C3500 1.368 . S
C3516 C3512 1.368 . S
C3516 C3515 1.523 . S
H3517 C3492 0.950 . S
H3518 C3494 0.950 . S
H3519 C3495 0.949 . S
H3520 C3497 0.950 . S
H3521 C3499 0.950 . S
C3522 C3523 1.349 . S
C3522 C3524 1.327 . S
C3522 H3547 0.950 . S
C3523 C3522 1.349 . S
C3523 C3539 1.349 . S
C3524 C3522 1.327 . S
C3524 C3543 1.429 . S
C3524 H3548 0.950 . S
C3525 C3542 1.574 1_455 S
C3525 C3544 1.368 . S
C3525 H3549 0.949 . S
H3526 C3530 0.949 . S
C3527 C3528 1.349 . S
C3527 C3529 1.327 . S
C3527 H3550 0.950 . S
C3528 C3527 1.349 . S
C3528 C3540 1.349 . S
C3529 C3527 1.327 . S
C3529 C3545 1.429 . S
C3529 H3551 0.950 . S
C3530 H3526 0.949 . S
C3530 C3538 1.574 1_655 S
C3530 C3546 1.368 . S
H3531 C3539 0.950 . S
H3532 C3537 0.950 . S
H3533 C3538 0.949 . S
H3534 C3540 0.950 . S
H3535 C3541 0.950 . S
H3536 C3542 0.949 . S
C3537 H3532 0.950 . S
C3537 C3539 1.327 . S
C3537 C3543 1.429 . S
C3538 C3530 1.574 1_455 S
C3538 H3533 0.949 . S
C3538 C3544 1.368 . S
C3539 C3523 1.349 . S
C3539 H3531 0.950 . S
C3539 C3537 1.327 . S
C3540 C3528 1.349 . S
C3540 H3534 0.950 . S
C3540 C3541 1.327 . S
C3541 H3535 0.950 . S
C3541 C3540 1.327 . S
C3541 C3545 1.429 . S
C3542 C3525 1.574 1_655 S
C3542 H3536 0.949 . S
C3542 C3546 1.368 . S
C3543 C3524 1.429 . S
C3543 C3537 1.429 . S
C3543 C3544 1.523 . S
C3544 C3525 1.368 . S
C3544 C3538 1.368 . S
C3544 C3543 1.523 . S
C3545 C3529 1.429 . S
C3545 C3541 1.429 . S
C3545 C3546 1.523 . S
C3546 C3530 1.368 . S
C3546 C3542 1.368 . S
C3546 C3545 1.523 . S
H3547 C3522 0.950 . S
H3548 C3524 0.950 . S
H3549 C3525 0.949 . S
H3550 C3527 0.950 . S
H3551 C3529 0.950 . S
C673 C20 1.998 . S
C678 C6 1.998 . S
C703 C34 1.998 . S
C708 C48 1.998 . S
C733 C90 1.998 . S
C738 C62 1.998 . S
C763 C104 1.998 . S
C768 C76 1.998 . S
C793 C118 1.998 . S
C798 C482 1.998 . S
C823 C132 1.998 . S
C828 C160 1.998 . S
C853 C454 1.998 . S
C858 C146 1.998 . S
C883 C188 1.998 . S
C888 C174 1.998 . S
C913 C216 1.998 . S
C918 C202 1.998 . S
C943 C258 1.998 . S
C948 C230 1.998 . S
C973 C272 1.998 . S
C978 C244 1.998 . S
C1003 C286 1.998 . S
C1008 C650 1.998 . S
C1033 C300 1.998 . S
C1038 C328 1.998 . S
C1063 C622 1.998 . S
C1068 C314 1.998 . S
C1093 C342 1.998 . S
C1098 C356 1.998 . S
C1123 C384 1.998 . S
C1128 C370 1.998 . S
C1153 C398 1.998 . S
C1158 C426 1.998 . S
C1183 C440 1.998 . S
C1188 C412 1.998 . S
C1213 C496 1.998 . S
C1218 C468 1.998 . S
C1243 C524 1.998 . S
C1248 C510 1.998 . S
C1273 C538 1.998 . S
C1278 C552 1.998 . S
C1303 C594 1.998 . S
C1308 C566 1.998 . S
C1333 C580 1.998 . S
C1338 C608 1.998 . S
C1363 C636 1.998 . S
C1368 C664 1.998 . S
C1393 C623 1.359 . S
C1398 C8 1.497 . S
C1423 C329 1.359 . S
C1428 C22 1.497 . S
C1453 C637 1.359 . S
C1458 C36 1.497 . S
C1483 C50 1.497 . S
C1488 C651 1.359 . S
C1513 C64 1.497 . S
C1518 C511 1.359 . S
C1543 C525 1.359 . S
C1548 C78 1.497 . S
C1573 C92 1.497 . S
C1578 C539 1.359 . S
C1603 C553 1.359 . S
C1608 C106 1.497 . S
C1633 C567 1.359 . S
C1638 C120 1.497 . S
C1663 C134 1.497 . S
C1668 C595 1.359 . S
C1693 C609 1.359 . S
C1698 C148 1.497 . S
C1723 C162 1.497 . S
C1728 C245 1.359 . S
C1753 C176 1.497 . S
C1758 C455 1.359 . S
C1783 C190 1.497 . S
C1788 C161 1.359 . S
C1813 C204 1.497 . S
C1818 C469 1.359 . S
C1843 C218 1.497 . S
C1848 C483 1.359 . S
C1873 C343 1.359 . S
C1878 C232 1.497 . S
C1903 C357 1.359 . S
C1908 C246 1.497 . S
C1933 C260 1.497 . S
C1938 C371 1.359 . S
C1963 C274 1.497 . S
C1968 C385 1.359 . S
C1993 C288 1.497 . S
C1998 C399 1.359 . S
C2023 C302 1.497 . S
C2028 C427 1.359 . S
C2053 C441 1.359 . S
C2058 C316 1.497 . S
C2083 C77 1.359 . S
C2088 C330 1.497 . S
C2113 C344 1.497 . S
C2118 C287 1.359 . S
C2143 C358 1.497 . S
C2148 C665 1.359 . S
C2173 C372 1.497 . S
C2178 C301 1.359 . S
C2203 C386 1.497 . S
C2208 C315 1.359 . S
C2233 C175 1.359 . S
C2238 C400 1.497 . S
C2263 C414 1.497 . S
C2268 C189 1.359 . S
C2293 C203 1.359 . S
C2298 C428 1.497 . S
C2323 C217 1.359 . S
C2328 C442 1.497 . S
C2353 C231 1.359 . S
C2358 C456 1.497 . S
C2383 C259 1.359 . S
C2388 C470 1.497 . S
C2413 C484 1.497 . S
C2418 C273 1.359 . S
C2443 C498 1.497 . S
C2448 C581 1.359 . S
C2473 C119 1.359 . S
C2478 C512 1.497 . S
C2503 C526 1.497 . S
C2508 C497 1.359 . S
C2533 C540 1.497 . S
C2538 C133 1.359 . S
C2563 C147 1.359 . S
C2568 C554 1.497 . S
C2593 C568 1.497 . S
C2598 C7 1.359 . S
C2623 C582 1.497 . S
C2628 C21 1.359 . S
C2653 C35 1.359 . S
C2658 C596 1.497 . S
C2683 C610 1.497 . S
C2688 C49 1.359 . S
C2713 C624 1.497 . S
C2718 C63 1.359 . S
C2743 C91 1.359 . S
C2748 C638 1.497 . S
C2773 C652 1.497 . S
C2778 C105 1.359 . S
C2803 C413 1.359 . S
C2808 C666 1.497 . S
C2833 C37 0.905 . S
C2838 C9 0.905 . S
C2863 C51 0.905 . S
C2868 C23 0.905 . S
C2893 C443 0.905 . S
C2898 C65 0.905 . S
C2923 C429 0.905 . S
C2928 C79 0.905 . S
C2953 C415 0.905 . S
C2958 C93 0.905 . S
C2983 C107 0.905 . S
C2988 C401 0.905 . S
C3013 C121 0.905 . S
C3018 C499 0.905 . S
C3043 C149 0.905 . S
C3048 C135 0.905 . S
C3073 C163 0.905 . S
C3078 C457 0.905 . S
C3103 C205 0.905 . S
C3108 C177 0.905 . S
C3133 C219 0.905 . S
C3138 C191 0.905 . S
C3163 C611 0.905 . S
C3168 C233 0.905 . S
C3193 C597 0.905 . S
C3198 C247 0.905 . S
C3223 C261 0.905 . S
C3228 C583 0.905 . S
C3253 C275 0.905 . S
C3258 C569 0.905 . S
C3283 C667 0.905 . S
C3288 C289 0.905 . S
C3313 C317 0.905 . S
C3318 C303 0.905 . S
C3343 C331 0.905 . S
C3348 C625 0.905 . S
C3373 C373 0.905 . S
C3378 C345 0.905 . S
C3403 C359 0.905 . S
C3408 C387 0.905 . S
C3433 C485 0.905 . S
C3438 C471 0.905 . S
C3463 C513 0.905 . S
C3468 C541 0.905 . S
C3493 C527 0.905 . S
C3498 C555 0.905 . S
C3523 C639 0.905 . S
C3528 C653 0.905 . S
