# Generated by pormake.
# Topology unm, (4)-cn, num edge types: 1
# Building blocks:
#     Node 0, Type 0, BuildingBlock: NAHDIM_clean_sbu_0, # of connection points: 4
#     Node 1, Type 0, BuildingBlock: NAHDIM_clean_sbu_0, # of connection points: 4
#     Node 2, Type 0, BuildingBlock: NAHDIM_clean_sbu_0, # of connection points: 4
#     Node 3, Type 0, BuildingBlock: NAHDIM_clean_sbu_0, # of connection points: 4
#     Node 4, Type 0, BuildingBlock: NAHDIM_clean_sbu_0, # of connection points: 4
#     Node 5, Type 0, BuildingBlock: NAHDIM_clean_sbu_0, # of connection points: 4
#     Node 6, Type 0, BuildingBlock: NAHDIM_clean_sbu_0, # of connection points: 4
#     Node 7, Type 0, BuildingBlock: NAHDIM_clean_sbu_0, # of connection points: 4
#     Edge 8, Type (0, 0), BuildingBlock: MIFKUJ_clean_linker_0, # of connection points: 2
#     Edge 9, Type (0, 0), BuildingBlock: MIFKUJ_clean_linker_0, # of connection points: 2
#     Edge 10, Type (0, 0), BuildingBlock: MIFKUJ_clean_linker_0, # of connection points: 2
#     Edge 11, Type (0, 0), BuildingBlock: MIFKUJ_clean_linker_0, # of connection points: 2
#     Edge 12, Type (0, 0), BuildingBlock: MIFKUJ_clean_linker_0, # of connection points: 2
#     Edge 13, Type (0, 0), BuildingBlock: MIFKUJ_clean_linker_0, # of connection points: 2
#     Edge 14, Type (0, 0), BuildingBlock: MIFKUJ_clean_linker_0, # of connection points: 2
#     Edge 15, Type (0, 0), BuildingBlock: MIFKUJ_clean_linker_0, # of connection points: 2
#     Edge 16, Type (0, 0), BuildingBlock: MIFKUJ_clean_linker_0, # of connection points: 2
#     Edge 17, Type (0, 0), BuildingBlock: MIFKUJ_clean_linker_0, # of connection points: 2
#     Edge 18, Type (0, 0), BuildingBlock: MIFKUJ_clean_linker_0, # of connection points: 2
#     Edge 19, Type (0, 0), BuildingBlock: MIFKUJ_clean_linker_0, # of connection points: 2
#     Edge 20, Type (0, 0), BuildingBlock: MIFKUJ_clean_linker_0, # of connection points: 2
#     Edge 21, Type (0, 0), BuildingBlock: MIFKUJ_clean_linker_0, # of connection points: 2
#     Edge 22, Type (0, 0), BuildingBlock: MIFKUJ_clean_linker_0, # of connection points: 2
#     Edge 23, Type (0, 0), BuildingBlock: MIFKUJ_clean_linker_0, # of connection points: 2
# Relax obj value: 0.218
# Max RMSD: 0.179
# Mean RMSD: 0.179
data_MOF--net-unm--node1-NAHDIM_clean_sbu_0--edge1-MIFKUJ_clean_linker_0
_symmetry_space_group_name_H-M    P1
_symmetry_Int_Tables_number       1
_symmetry_cell_setting            triclinic
loop_
_symmetry_equiv_pos_as_xyz
'x, y, z'
_cell_length_a     33.885709
_cell_length_b     33.841451
_cell_length_c     54.026982
_cell_angle_alpha  89.986125
_cell_angle_beta   89.97513
_cell_angle_gamma 89.990207
loop_
_atom_site_label
_atom_site_type_symbol
_atom_site_fract_x
_atom_site_fract_y
_atom_site_fract_z
_atom_type_partial_charge
C0 C 0.21875 0.26403 0.16964 0.0
O1 O 0.22003 0.26598 0.14536 0.0
O2 O 0.08884 0.2534 0.18002 0.0
Zn3 Zn 0.13652 0.26669 0.15998 0.0
O4 O 0.14156 0.23553 0.12853 0.0
C5 C 0.09869 0.33451 0.1403 0.0
O6 O 0.07505 0.30722 0.13143 0.0
O7 O 0.18546 0.26242 0.18039 0.0
C8 C 0.11359 0.21942 0.11656 0.0
O9 O 0.07746 0.22108 0.1253 0.0
C10 C 0.07233 0.22096 0.18562 0.0
O11 O 0.08739 0.18744 0.1778 0.0
O12 O 0.12934 0.32396 0.15207 0.0
C13 C 0.26869 0.69645 0.68923 0.0
O14 O 0.30594 0.69198 0.68308 0.0
O15 O 0.28889 0.58266 0.68493 0.0
Zn16 Zn 0.25609 0.62036 0.66475 0.0
O17 O 0.28009 0.63384 0.63176 0.0
C18 C 0.1987 0.55706 0.65916 0.0
O19 O 0.22909 0.53379 0.66309 0.0
O20 O 0.24396 0.66978 0.68359 0.0
C21 C 0.27908 0.60876 0.61426 0.0
O22 O 0.26419 0.57356 0.61845 0.0
C23 C 0.31776 0.56276 0.67654 0.0
O24 O 0.33103 0.5702 0.65418 0.0
O25 O 0.20369 0.59428 0.65876 0.0
C26 C 0.81075 0.7388 0.21562 0.0
O27 O 0.8448 0.72921 0.22558 0.0
O28 O 0.8962 0.80493 0.20257 0.0
Zn29 Zn 0.86204 0.77265 0.18002 0.0
O30 O 0.85343 0.7994 0.14718 0.0
C31 C 0.91944 0.70975 0.18737 0.0
O32 O 0.93177 0.73228 0.20556 0.0
O33 O 0.8104 0.75946 0.19597 0.0
C34 C 0.87598 0.79088 0.12913 0.0
O35 O 0.90498 0.76571 0.13256 0.0
C36 C 0.92411 0.82597 0.19402 0.0
O37 O 0.92499 0.83354 0.17018 0.0
O38 O 0.89021 0.72079 0.17431 0.0
C39 C 0.75835 0.31616 0.71213 0.0
O40 O 0.77689 0.34727 0.72087 0.0
O41 O 0.7083 0.41384 0.69826 0.0
Zn42 Zn 0.73264 0.37242 0.67634 0.0
O43 O 0.70369 0.36587 0.64418 0.0
C44 C 0.79883 0.42499 0.66915 0.0
O45 O 0.77253 0.45237 0.67418 0.0
O46 O 0.73595 0.3201 0.69344 0.0
C47 C 0.70536 0.39208 0.62736 0.0
O48 O 0.72485 0.42494 0.63159 0.0
C49 C 0.67841 0.43457 0.6925 0.0
O50 O 0.65921 0.42676 0.67197 0.0
O51 O 0.78834 0.38895 0.66883 0.0
C52 C 0.70233 0.26114 0.31291 0.0
O53 O 0.68961 0.29651 0.31898 0.0
O54 O 0.59165 0.26482 0.31103 0.0
Zn55 Zn 0.62808 0.23554 0.33371 0.0
O56 O 0.63208 0.26304 0.36665 0.0
C57 C 0.56978 0.17366 0.33884 0.0
O58 O 0.54505 0.20354 0.33896 0.0
O59 O 0.68112 0.23121 0.31776 0.0
C60 C 0.62376 0.24537 0.38674 0.0
O61 O 0.61301 0.20811 0.38606 0.0
C62 C 0.56387 0.28658 0.319 0.0
O63 O 0.56057 0.29277 0.34292 0.0
O64 O 0.60662 0.18035 0.33733 0.0
C65 C 0.25641 0.18391 0.7783 0.0
O66 O 0.27117 0.15092 0.76942 0.0
O67 O 0.20376 0.08968 0.79447 0.0
Zn68 Zn 0.23057 0.13071 0.81537 0.0
O69 O 0.20425 0.13783 0.84836 0.0
C70 C 0.29243 0.07601 0.82837 0.0
O71 O 0.26259 0.05221 0.83268 0.0
O72 O 0.23559 0.18261 0.79785 0.0
C73 C 0.22531 0.15268 0.86543 0.0
O74 O 0.26165 0.16346 0.86029 0.0
C75 C 0.18259 0.06291 0.80427 0.0
O76 O 0.17404 0.06535 0.82794 0.0
O77 O 0.28573 0.11109 0.82114 0.0
C78 C 0.28685 0.70234 0.29702 0.0
O79 O 0.2856 0.67992 0.31686 0.0
O80 O 0.41007 0.68168 0.29467 0.0
Zn81 Zn 0.36852 0.71471 0.31119 0.0
O82 O 0.35674 0.69548 0.34564 0.0
C83 C 0.42574 0.77575 0.32091 0.0
O84 O 0.44839 0.74543 0.32625 0.0
O85 O 0.31925 0.71841 0.29083 0.0
C86 C 0.34655 0.72068 0.36187 0.0
O87 O 0.34264 0.7579 0.35541 0.0
C88 C 0.43265 0.65902 0.30698 0.0
O89 O 0.42557 0.65344 0.33063 0.0
O90 O 0.39048 0.76971 0.31386 0.0
C91 C 0.72435 0.81677 0.79681 0.0
O92 O 0.70695 0.84866 0.78824 0.0
O93 O 0.78315 0.91024 0.80909 0.0
Zn94 Zn 0.75287 0.87313 0.8311 0.0
O95 O 0.7775 0.86796 0.86488 0.0
C96 C 0.69074 0.93183 0.83171 0.0
O97 O 0.72001 0.95605 0.82684 0.0
O98 O 0.74742 0.81985 0.81525 0.0
C99 C 0.76908 0.89288 0.88168 0.0
O100 O 0.74526 0.92233 0.87648 0.0
C101 C 0.80881 0.93446 0.8171 0.0
O102 O 0.82016 0.93216 0.84029 0.0
O103 O 0.69785 0.89524 0.83469 0.0
H104 H 0.18496 0.21099 0.09397 0.0
H105 H 0.19754 0.19416 0.05086 0.0
H106 H 0.0731 0.17549 0.03903 0.0
H107 H 0.06001 0.19233 0.08244 0.0
H108 H 0.12485 0.11957 0.01397 0.0
H109 H 0.10492 0.25932 0.02288 0.0
H110 H 0.11536 0.3245 0.04217 0.0
H111 H 0.23848 0.31942 0.02361 0.0
H112 H 0.22889 0.25387 0.00455 0.0
H113 H 0.15053 0.13693 0.8822 0.0
H114 H 0.12572 0.14395 0.92457 0.0
H115 H 0.24061 0.18361 0.94841 0.0
H116 H 0.2653 0.17749 0.90624 0.0
H117 H 0.1848 0.22983 0.96641 0.0
H118 H 0.20655 0.08913 0.96004 0.0
H119 H 0.19787 0.0228 0.94196 0.0
H120 H 0.07328 0.02867 0.95603 0.0
H121 H 0.08116 0.09531 0.97391 0.0
C122 C 0.16022 0.20278 0.08237 0.0
C123 C 0.12139 0.20359 0.09154 0.0
C124 C 0.16751 0.19314 0.05774 0.0
C125 C 0.13617 0.18421 0.04177 0.0
C126 C 0.09761 0.18245 0.05114 0.0
C127 C 0.09022 0.19218 0.07589 0.0
C128 C 0.14379 0.18025 0.01496 0.0
C129 C 0.13733 0.14377 0.00337 0.0
C130 C 0.16047 0.21182 0.00137 0.0
C131 C 0.16622 0.25155 0.01245 0.0
C132 C 0.13427 0.27198 0.02305 0.0
C133 C 0.14003 0.30901 0.03393 0.0
C134 C 0.17757 0.32606 0.03415 0.0
C135 C 0.20942 0.30617 0.02343 0.0
C136 C 0.20383 0.26909 0.01257 0.0
C137 C 0.17046 0.14717 0.89649 0.0
C138 C 0.20986 0.15676 0.89087 0.0
C139 C 0.1563 0.15095 0.9207 0.0
C140 C 0.18142 0.164 0.93967 0.0
C141 C 0.22069 0.17357 0.93404 0.0
C142 C 0.23477 0.17001 0.90991 0.0
C143 C 0.16697 0.16872 0.96539 0.0
C144 C 0.17196 0.20559 0.97681 0.0
C145 C 0.14912 0.13744 0.97875 0.0
C146 C 0.14438 0.09738 0.96804 0.0
C147 C 0.17725 0.07642 0.95908 0.0
C148 C 0.17249 0.03874 0.94891 0.0
C149 C 0.13503 0.02158 0.94777 0.0
C150 C 0.10227 0.04203 0.95688 0.0
C151 C 0.10687 0.07974 0.96704 0.0
H152 H 0.13141 0.9924 0.93989 0.0
H153 H 0.18198 0.35473 0.0426 0.0
H154 H 0.28784 0.56039 0.57422 0.0
H155 H 0.30357 0.57963 0.53174 0.0
H156 H 0.3143 0.70122 0.55468 0.0
H157 H 0.29864 0.68229 0.59727 0.0
H158 H 0.26517 0.69082 0.51411 0.0
H159 H 0.39499 0.65175 0.5401 0.0
H160 H 0.44463 0.6069 0.55808 0.0
H161 H 0.41991 0.52081 0.50182 0.0
H162 H 0.36968 0.56494 0.48369 0.0
H163 H 0.33806 0.76868 0.40201 0.0
H164 H 0.32968 0.74916 0.44514 0.0
H165 H 0.33265 0.62631 0.42379 0.0
H166 H 0.34223 0.64566 0.38055 0.0
H167 H 0.37556 0.63731 0.46391 0.0
H168 H 0.24517 0.67351 0.43844 0.0
H169 H 0.19384 0.71627 0.4203 0.0
H170 H 0.21704 0.80484 0.4753 0.0
H171 H 0.26891 0.76281 0.49357 0.0
C172 C 0.29394 0.59118 0.57029 0.0
C173 C 0.29187 0.61986 0.58907 0.0
C174 C 0.30306 0.60207 0.54603 0.0
C175 C 0.31018 0.6418 0.54015 0.0
C176 C 0.30888 0.6704 0.55891 0.0
C177 C 0.30006 0.6595 0.58322 0.0
C178 C 0.31683 0.65377 0.51416 0.0
C179 C 0.28965 0.67966 0.50321 0.0
C180 C 0.34803 0.63807 0.49984 0.0
C181 C 0.37829 0.61151 0.51068 0.0
C182 C 0.39988 0.62312 0.53168 0.0
C183 C 0.42818 0.59785 0.54188 0.0
C184 C 0.43535 0.56098 0.53114 0.0
C185 C 0.41429 0.54935 0.51014 0.0
C186 C 0.38593 0.5745 0.49988 0.0
C187 C 0.33679 0.73749 0.40645 0.0
C188 C 0.34057 0.70869 0.38787 0.0
C189 C 0.33189 0.72638 0.43112 0.0
C190 C 0.32995 0.68628 0.43764 0.0
C191 C 0.334 0.65743 0.41915 0.0
C192 C 0.33933 0.66853 0.39446 0.0
C193 C 0.32392 0.67452 0.4638 0.0
C194 C 0.35111 0.64859 0.47479 0.0
C195 C 0.29246 0.68985 0.47813 0.0
C196 C 0.26119 0.71516 0.46722 0.0
C197 C 0.23953 0.70223 0.44655 0.0
C198 C 0.2103 0.72631 0.43626 0.0
C199 C 0.20225 0.76329 0.4466 0.0
C200 C 0.22334 0.77621 0.46729 0.0
C201 C 0.25264 0.75226 0.47763 0.0
H202 H 0.17961 0.7819 0.43861 0.0
H203 H 0.45728 0.54147 0.53906 0.0
H204 H 0.91086 0.76954 0.08569 0.0
H205 H 0.8961 0.79408 0.04431 0.0
H206 H 0.81082 0.87524 0.07495 0.0
H207 H 0.82463 0.84991 0.11646 0.0
H208 H 0.78037 0.83832 0.03725 0.0
H209 H 0.90104 0.90712 0.05117 0.0
H210 H 0.97095 0.91533 0.06269 0.0
H211 H 0.00559 0.8383 0.00339 0.0
H212 H 0.93582 0.82917 0.99172 0.0
H213 H 0.74923 0.93541 0.92273 0.0
H214 H 0.77115 0.92443 0.96524 0.0
H215 H 0.84522 0.82843 0.94075 0.0
H216 H 0.82346 0.83914 0.89807 0.0
H217 H 0.8816 0.87859 0.97582 0.0
H218 H 0.75956 0.80676 0.96457 0.0
H219 H 0.68942 0.79995 0.95318 0.0
H220 H 0.65766 0.88578 0.00822 0.0
H221 H 0.72773 0.8935 0.0197 0.0
C222 C 0.88922 0.79287 0.08368 0.0
C223 C 0.86883 0.80773 0.10433 0.0
C224 C 0.88099 0.80706 0.06 0.0
C225 C 0.85272 0.83687 0.05654 0.0
C226 C 0.8328 0.85226 0.0772 0.0
C227 C 0.84074 0.83779 0.10089 0.0
C228 C 0.84219 0.85006 0.03123 0.0
C229 C 0.80247 0.8479 0.024 0.0
C230 C 0.8711 0.86176 0.01376 0.0
C231 C 0.91314 0.86721 0.0207 0.0
C232 C 0.92353 0.89168 0.0407 0.0
C233 C 0.96315 0.89655 0.04724 0.0
C234 C 0.99269 0.87728 0.03381 0.0
C235 C 0.98267 0.85318 0.01379 0.0
C236 C 0.94309 0.84819 0.00718 0.0
C237 C 0.77043 0.91215 0.92631 0.0
C238 C 0.78439 0.88791 0.90707 0.0
C239 C 0.78286 0.90593 0.95062 0.0
C240 C 0.80948 0.87543 0.95608 0.0
C241 C 0.82462 0.85211 0.93683 0.0
C242 C 0.81202 0.85815 0.91252 0.0
C243 C 0.82003 0.86658 0.98202 0.0
C244 C 0.85964 0.86945 0.98927 0.0
C245 C 0.79105 0.8558 -0.0004 0.0
C246 C 0.74891 0.85103 0.9928 0.0
C247 C 0.73765 0.82442 0.97409 0.0
C248 C 0.69791 0.82035 0.96765 0.0
C249 C 0.66911 0.8425 0.97992 0.0
C250 C 0.68 0.86869 -0.00129 0.0
C251 C 0.71972 0.87291 0.0052 0.0
H252 H 0.63836 0.8393 0.97491 0.0
H253 H 0.02334 0.88109 0.0389 0.0
H254 H 0.60929 0.21567 0.4328 0.0
H255 H 0.61556 0.24965 0.4724 0.0
H256 H 0.64991 0.35655 0.43456 0.0
H257 H 0.64428 0.32255 0.39476 0.0
H258 H 0.69857 0.34059 0.4721 0.0
H259 H 0.55938 0.34957 0.46164 0.0
H260 H 0.49211 0.32566 0.45289 0.0
H261 H 0.4981 0.248 0.51563 0.0
H262 H 0.56565 0.27102 0.52457 0.0
H263 H 0.70477 0.44102 0.58705 0.0
H264 H 0.68288 0.42501 0.54511 0.0
H265 H 0.64672 0.30928 0.56977 0.0
H266 H 0.66782 0.32521 0.61176 0.0
H267 H 0.59474 0.33964 0.5369 0.0
H268 H 0.73671 0.32375 0.54318 0.0
H269 H 0.80448 0.34649 0.55179 0.0
H270 H 0.79285 0.43678 0.49641 0.0
H271 H 0.72478 0.41485 0.4877 0.0
C272 C 0.61797 0.24647 0.43285 0.0
C273 C 0.62638 0.26639 0.41064 0.0
C274 C 0.62126 0.26594 0.4555 0.0
C275 C 0.63268 0.30578 0.45639 0.0
C276 C 0.64089 0.32584 0.43425 0.0
C277 C 0.63766 0.30636 0.41155 0.0
C278 C 0.63826 0.32557 0.48057 0.0
C279 C 0.67557 0.34119 0.48608 0.0
C280 C 0.60844 0.32573 0.49893 0.0
C281 C 0.56773 0.31186 0.49368 0.0
C282 C 0.54648 0.32719 0.47347 0.0
C283 C 0.50827 0.31382 0.46849 0.0
C284 C 0.49086 0.28528 0.48367 0.0
C285 C 0.51162 0.2701 0.50389 0.0
C286 C 0.54986 0.28334 0.50894 0.0
C287 C 0.6917 0.41234 0.58362 0.0
C288 C 0.68845 0.38419 0.60266 0.0
C289 C 0.67929 0.40324 0.55964 0.0
C290 C 0.66376 0.36575 0.55429 0.0
C291 C 0.65869 0.33836 0.57351 0.0
C292 C 0.67094 0.34746 0.59749 0.0
C293 C 0.65521 0.35385 0.52849 0.0
C294 C 0.61742 0.33968 0.52272 0.0
C295 C 0.68458 0.35494 0.50987 0.0
C296 C 0.72554 0.36797 0.515 0.0
C297 C 0.74852 0.34863 0.53298 0.0
C298 C 0.78699 0.36135 0.53785 0.0
C299 C 0.80292 0.39314 0.52471 0.0
C300 C 0.78044 0.41221 0.50661 0.0
C301 C 0.74193 0.39965 0.50169 0.0
H302 H 0.83271 0.40294 0.52851 0.0
H303 H 0.46128 0.27497 0.47978 0.0
H304 H 0.22534 0.2768 0.21936 0.0
H305 H 0.28587 0.28651 0.24317 0.0
H306 H 0.35523 0.26864 0.17717 0.0
H307 H 0.29477 0.25912 0.15309 0.0
H308 H 0.3824 0.22666 0.21927 0.0
H309 H 0.34366 0.35868 0.19632 0.0
H310 H 0.29734 0.41463 0.19299 0.0
H311 H 0.2861 0.41821 0.27212 0.0
H312 H 0.33193 0.36186 0.27591 0.0
H313 H 0.56358 0.28301 0.26858 0.0
H314 H 0.50604 0.2865 0.24151 0.0
H315 H 0.43248 0.31543 0.30413 0.0
H316 H 0.49006 0.31272 0.33132 0.0
H317 H 0.40801 0.3535 0.26258 0.0
H318 H 0.44104 0.22151 0.28674 0.0
H319 H 0.48455 0.16382 0.2923 0.0
H320 H 0.50297 0.15753 0.21379 0.0
H321 H 0.45998 0.21565 0.20777 0.0
C322 C 0.25346 0.27469 0.20991 0.0
C323 C 0.25532 0.2673 0.18432 0.0
C324 C 0.28796 0.28047 0.22352 0.0
C325 C 0.32485 0.27873 0.21182 0.0
C326 C 0.32692 0.27026 0.18645 0.0
C327 C 0.2924 0.26487 0.17275 0.0
C328 C 0.3613 0.28564 0.22614 0.0
C329 C 0.38839 0.25459 0.22839 0.0
C330 C 0.36828 0.32173 0.23862 0.0
C331 C 0.34095 0.35581 0.23638 0.0
C332 C 0.33107 0.37118 0.213 0.0
C333 C 0.30495 0.40301 0.21103 0.0
C334 C 0.28872 0.41991 0.23232 0.0
C335 C 0.29867 0.40507 0.25564 0.0
C336 C 0.32474 0.37321 0.25771 0.0
C337 C 0.53533 0.29098 0.27652 0.0
C338 C 0.5312 0.29692 0.30214 0.0
C339 C 0.50248 0.29286 0.26104 0.0
C340 C 0.46493 0.30024 0.27096 0.0
C341 C 0.46121 0.30942 0.29617 0.0
C342 C 0.49415 0.30783 0.31168 0.0
C343 C 0.42929 0.29458 0.25557 0.0
C344 C 0.40224 0.32572 0.25324 0.0
C345 C 0.42196 0.25831 0.24332 0.0
C346 C 0.44764 0.2232 0.24683 0.0
C347 C 0.45461 0.20803 0.27068 0.0
C348 C 0.47914 0.17523 0.27392 0.0
C349 C 0.4966 0.15708 0.25344 0.0
C350 C 0.48947 0.17166 0.22965 0.0
C351 C 0.46501 0.20453 0.2263 0.0
H352 H 0.51555 0.13168 0.25601 0.0
H353 H 0.2685 0.44454 0.23076 0.0
H354 H 0.31309 0.75861 0.70602 0.0
H355 H 0.28938 0.81897 0.7261 0.0
H356 H 0.1696 0.77669 0.72088 0.0
H357 H 0.19287 0.71651 0.70075 0.0
H358 H 0.17544 0.85335 0.70663 0.0
H359 H 0.21567 0.77334 0.77523 0.0
H360 H 0.26107 0.73169 0.79956 0.0
H361 H 0.34288 0.82817 0.80506 0.0
H362 H 0.29821 0.87024 0.78045 0.0
H363 H 0.15355 0.99349 0.82264 0.0
H364 H 0.15674 0.92856 0.80296 0.0
H365 H 0.20214 0.98201 0.73629 0.0
H366 H 0.19886 0.04701 0.75571 0.0
H367 H 0.22536 0.89547 0.7888 0.0
H368 H 0.1785 0.92388 0.68684 0.0
H369 H 0.13003 0.96391 0.6638 0.0
H370 H 0.05465 0.96737 0.72767 0.0
H371 H 0.10237 0.92689 0.75098 0.0
C372 C 0.28173 0.76212 0.7092 0.0
C373 C 0.25491 0.73272 0.70183 0.0
C374 C 0.26824 0.79656 0.72072 0.0
C375 C 0.22775 0.80213 0.72508 0.0
C376 C 0.20094 0.77295 0.71765 0.0
C377 C 0.21437 0.73851 0.70623 0.0
C378 C 0.21329 0.83852 0.73729 0.0
C379 C 0.18625 0.86258 0.72462 0.0
C380 C 0.22681 0.85003 0.76097 0.0
C381 C 0.25374 0.82483 0.7758 0.0
C382 C 0.24349 0.78558 0.78146 0.0
C383 C 0.26906 0.76191 0.79533 0.0
C384 C 0.30488 0.77724 0.8038 0.0
C385 C 0.31515 0.81631 0.79846 0.0
C386 C 0.2897 0.84009 0.78457 0.0
C387 C 0.16325 0.9916 0.80357 0.0
C388 C 0.17637 0.02537 0.79083 0.0
C389 C 0.16521 0.95443 0.79241 0.0
C390 C 0.17984 0.95047 0.76824 0.0
C391 C 0.19046 0.98443 0.7549 0.0
C392 C 0.18865 0.02158 0.76607 0.0
C393 C 0.18813 0.91081 0.75792 0.0
C394 C 0.21422 0.88615 0.7709 0.0
C395 C 0.17333 0.89857 0.73469 0.0
C396 C 0.14422 0.92261 0.72072 0.0
C397 C 0.1515 0.93302 0.69594 0.0
C398 C 0.12417 0.95583 0.68283 0.0
C399 C 0.08934 0.96827 0.69428 0.0
C400 C 0.08171 0.95784 0.71885 0.0
C401 C 0.10893 0.93502 0.73203 0.0
H402 H 0.06822 0.98593 0.68411 0.0
H403 H 0.32463 0.75888 0.81455 0.0
H404 H 0.45804 0.66934 0.25947 0.0
H405 H 0.52587 0.66616 0.24484 0.0
H406 H 0.56307 0.62068 0.31571 0.0
H407 H 0.4951 0.62441 0.3307 0.0
H408 H 0.60279 0.68511 0.30415 0.0
H409 H 0.57426 0.56522 0.26287 0.0
H410 H 0.53709 0.51848 0.23681 0.0
H411 H 0.5521 0.59472 0.17398 0.0
H412 H 0.58888 0.64225 0.19973 0.0
H413 H 0.80084 0.69681 0.25841 0.0
H414 H 0.7394 0.66925 0.27482 0.0
H415 H 0.67545 0.71757 0.21279 0.0
H416 H 0.73662 0.74513 0.1962 0.0
H417 H 0.65475 0.63976 0.22315 0.0
H418 H 0.67252 0.76369 0.26687 0.0
H419 H 0.70875 0.81096 0.29313 0.0
H420 H 0.71327 0.7254 0.35178 0.0
H421 H 0.67747 0.67742 0.32571 0.0
C422 C 0.48041 0.65763 0.27177 0.0
C423 C 0.47127 0.64772 0.29638 0.0
C424 C 0.51924 0.65559 0.2633 0.0
C425 C 0.54959 0.64323 0.27919 0.0
C426 C 0.54008 0.6304 0.30317 0.0
C427 C 0.50118 0.63245 0.31167 0.0
C428 C 0.59129 0.64939 0.27189 0.0
C429 C 0.61452 0.67423 0.28675 0.0
C430 C 0.60631 0.63593 0.24895 0.0
C431 C 0.58418 0.60744 0.23331 0.0
C432 C 0.56939 0.57219 0.24354 0.0
C433 C 0.54843 0.54551 0.22881 0.0
C434 C 0.54219 0.55365 0.20376 0.0
C435 C 0.55696 0.58846 0.19339 0.0
C436 C 0.57794 0.61525 0.20804 0.0
C437 C 0.77369 0.70165 0.24829 0.0
C438 C 0.77355 0.72331 0.22607 0.0
C439 C 0.73866 0.68584 0.25768 0.0
C440 C 0.70298 0.69142 0.245 0.0
C441 C 0.70278 0.71279 0.22276 0.0
C442 C 0.73771 0.72876 0.21342 0.0
C443 C 0.66547 0.67607 0.25516 0.0
C444 C 0.64318 0.64969 0.24081 0.0
C445 C 0.65126 0.68802 0.27859 0.0
C446 C 0.67279 0.71682 0.29424 0.0
C447 C 0.68156 0.75484 0.28528 0.0
C448 C 0.70194 0.78178 0.30015 0.0
C449 C 0.71343 0.77114 0.32408 0.0
C450 C 0.70444 0.73357 0.33322 0.0
C451 C 0.6841 0.7065 0.31841 0.0
H452 H 0.72919 0.79205 0.33556 0.0
H453 H 0.52595 0.53296 0.19239 0.0
H454 H 0.73608 0.24496 0.69302 0.0
H455 H 0.75133 0.17937 0.70903 0.0
H456 H 0.8127 0.2317 0.77084 0.0
H457 H 0.79853 0.29765 0.75449 0.0
H458 H 0.85382 0.17148 0.75295 0.0
H459 H 0.71927 0.19184 0.77737 0.0
H460 H 0.64907 0.2085 0.77137 0.0
H461 H 0.63679 0.11232 0.72015 0.0
H462 H 0.70703 0.09525 0.7257 0.0
H463 H 0.84646 0.00168 0.83238 0.0
H464 H 0.84589 0.0657 0.81157 0.0
H465 H 0.78941 0.01294 0.74812 0.0
H466 H 0.78934 0.94893 0.76891 0.0
H467 H 0.74734 0.07322 0.7663 0.0
H468 H 0.88277 0.05105 0.74432 0.0
H469 H 0.95266 0.03481 0.75192 0.0
H470 H 0.96299 0.13451 0.80062 0.0
H471 H 0.89299 0.15106 0.79359 0.0
C472 C 0.75262 0.24258 0.71011 0.0
C473 C 0.7659 0.27652 0.72258 0.0
C474 C 0.76127 0.20503 0.71926 0.0
C475 C 0.78273 0.20062 0.74131 0.0
C476 C 0.7961 0.23443 0.75379 0.0
C477 C 0.78779 0.27207 0.7445 0.0
C478 C 0.7912 0.16067 0.75125 0.0
C479 C 0.83052 0.15011 0.75617 0.0
C480 C 0.76086 0.13256 0.75498 0.0
C481 C 0.71851 0.14254 0.75176 0.0
C482 C 0.70166 0.1744 0.76471 0.0
C483 C 0.66185 0.18386 0.76143 0.0
C484 C 0.63852 0.16154 0.74534 0.0
C485 C 0.65491 0.12958 0.73259 0.0
C486 C 0.6947 0.11996 0.73583 0.0
C487 C 0.83493 0.00342 0.81372 0.0
C488 C 0.81742 0.97033 0.80244 0.0
C489 C 0.8347 0.04008 0.80182 0.0
C490 C 0.81739 0.0441 0.77836 0.0
C491 C 0.80269 0.01048 0.7663 0.0
C492 C 0.80278 0.9739 0.77819 0.0
C493 C 0.81001 0.08382 0.7678 0.0
C494 C 0.77074 0.09445 0.76293 0.0
C495 C 0.84037 0.11196 0.76436 0.0
C496 C 0.88251 0.10209 0.76859 0.0
C497 C 0.89984 0.06933 0.75682 0.0
C498 C 0.93951 0.0601 0.76099 0.0
C499 C 0.96222 0.08355 0.77679 0.0
C500 C 0.94535 0.11635 0.7884 0.0
C501 C 0.90569 0.12569 0.78431 0.0
H502 H 0.99292 0.07636 0.77999 0.0
H503 H 0.60772 0.16895 0.74279 0.0
H504 H 0.75708 0.3178 0.30149 0.0
H505 H 0.8197 0.30869 0.2797 0.0
H506 H 0.79588 0.18392 0.27288 0.0
H507 H 0.73375 0.19258 0.29504 0.0
H508 H 0.86994 0.19571 0.2866 0.0
H509 H 0.78395 0.24793 0.22407 0.0
H510 H 0.73773 0.29517 0.20492 0.0
H511 H 0.82543 0.38652 0.20897 0.0
H512 H 0.8719 0.34005 0.22863 0.0
H513 H 0.02239 0.1595 0.19699 0.0
H514 H 0.95902 0.16366 0.21883 0.0
H515 H 0.97543 0.2892 0.22831 0.0
H516 H 0.03789 0.28551 0.20637 0.0
H517 H 0.90373 0.27412 0.21198 0.0
H518 H 0.98823 0.22372 0.27638 0.0
H519 H 0.03527 0.17694 0.29522 0.0
H520 H 0.95118 0.0829 0.28725 0.0
H521 H 0.90381 0.12904 0.26806 0.0
C522 C 0.76518 0.28843 0.29536 0.0
C523 C 0.74041 0.25594 0.29995 0.0
C524 C 0.80088 0.2833 0.2828 0.0
C525 C 0.8122 0.24569 0.27439 0.0
C526 C 0.7877 0.21319 0.27918 0.0
C527 C 0.75215 0.21825 0.29181 0.0
C528 C 0.84982 0.24004 0.26087 0.0
C529 C 0.87711 0.21247 0.27007 0.0
C530 C 0.85945 0.26243 0.23957 0.0
C531 C 0.83128 0.29058 0.22808 0.0
C532 C 0.79324 0.2782 0.22114 0.0
C533 C 0.767 0.30483 0.21016 0.0
C534 C 0.77858 0.34385 0.20581 0.0
C535 C 0.81644 0.35632 0.21242 0.0
C536 C 0.84274 0.32985 0.22349 0.0
C537 C 0.01256 0.18788 0.2039 0.0
C538 C 0.03515 0.22213 0.19992 0.0
C539 C 0.97644 0.19022 0.21641 0.0
C540 C 0.96264 0.22674 0.22528 0.0
C541 C 0.98543 0.26076 0.22156 0.0
C542 C 0.02126 0.25851 0.20904 0.0
C543 C 0.92399 0.2302 0.23789 0.0
C544 C 0.89647 0.25729 0.22847 0.0
C545 C 0.91422 0.20749 0.259 0.0
C546 C 0.94266 0.17973 0.27053 0.0
C547 C 0.9799 0.19299 0.27845 0.0
C548 C 0.0066 0.16661 0.28923 0.0
C549 C 0.99627 0.12695 0.29236 0.0
C550 C 0.95917 0.11361 0.28477 0.0
C551 C 0.93238 0.13987 0.27396 0.0
H552 H 0.01697 0.10657 0.30071 0.0
H553 H 0.75825 0.3644 0.19726 0.0
H554 H 0.30225 0.54192 0.72433 0.0
H555 H 0.30556 0.47557 0.74187 0.0
H556 H 0.35962 0.43268 0.67476 0.0
H557 H 0.3565 0.49911 0.65704 0.0
H558 H 0.29155 0.39362 0.68637 0.0
H559 H 0.41064 0.42811 0.72724 0.0
H560 H 0.45576 0.46849 0.75253 0.0
H561 H 0.37864 0.45618 0.81514 0.0
H562 H 0.33272 0.41618 0.79013 0.0
H563 H 0.29502 0.19691 0.73463 0.0
H564 H 0.31572 0.26041 0.7173 0.0
H565 H 0.26332 0.321 0.77937 0.0
H566 H 0.24245 0.25772 0.79685 0.0
H567 H 0.33896 0.34792 0.76839 0.0
H568 H 0.21664 0.32138 0.72616 0.0
H569 H 0.17024 0.2823 0.70094 0.0
H570 H 0.25324 0.28111 0.64087 0.0
H571 H 0.30038 0.31977 0.66588 0.0
C572 C 0.3159 0.51863 0.71356 0.0
C573 C 0.3287 0.52565 0.6892 0.0
C574 C 0.3179 0.48072 0.72366 0.0
C575 C 0.33269 0.44921 0.70956 0.0
C576 C 0.34807 0.45666 0.6859 0.0
C577 C 0.34641 0.49468 0.67586 0.0
C578 C 0.32693 0.40813 0.71825 0.0
C579 C 0.30277 0.38325 0.70403 0.0
C580 C 0.34063 0.39514 0.74159 0.0
C581 C 0.36805 0.41936 0.75673 0.0
C582 C 0.40309 0.43429 0.74634 0.0
C583 C 0.42886 0.45706 0.76064 0.0
C584 C 0.42003 0.46496 0.78541 0.0
C585 C 0.38543 0.45005 0.79594 0.0
C586 C 0.35954 0.42728 0.78172 0.0
C587 C 0.28772 0.22375 0.74454 0.0
C588 C 0.26699 0.2223 0.76707 0.0
C589 C 0.2996 0.25997 0.73462 0.0
C590 C 0.29104 0.29532 0.74709 0.0
C591 C 0.27034 0.29399 0.76955 0.0
C592 C 0.25819 0.25783 0.77939 0.0
C593 C 0.30328 0.33381 0.73661 0.0
C594 C 0.32844 0.35814 0.75053 0.0
C595 C 0.29042 0.34644 0.71302 0.0
C596 C 0.26224 0.32301 0.698 0.0
C597 C 0.22516 0.31244 0.70766 0.0
C598 C 0.19869 0.29045 0.69339 0.0
C599 C 0.20885 0.27911 0.66935 0.0
C600 C 0.24546 0.28983 0.65951 0.0
C601 C 0.27206 0.3118 0.67372 0.0
H602 H 0.1883 0.26211 0.65832 0.0
H603 H 0.44004 0.48258 0.79646 0.0
H604 H 0.21135 0.67921 0.30772 0.0
H605 H 0.15043 0.70388 0.28911 0.0
H606 H 0.21829 0.77472 0.23812 0.0
H607 H 0.27929 0.75054 0.25674 0.0
H608 H 0.1637 0.81823 0.25999 0.0
H609 H 0.16808 0.69492 0.21895 0.0
H610 H 0.17202 0.62297 0.21252 0.0
H611 H 0.06425 0.60702 0.25307 0.0
H612 H 0.06026 0.67876 0.2605 0.0
H613 H 0.99546 0.85585 0.17926 0.0
H614 H 0.05919 0.84163 0.19851 0.0
H615 H -0.0001 0.78776 0.26053 0.0
H616 H 0.93612 0.80238 0.24179 0.0
H617 H 0.05106 0.737 0.23106 0.0
H618 H 0.05047 0.86349 0.27247 0.0
H619 H 0.04629 0.93617 0.27429 0.0
H620 H 0.14749 0.9457 0.22681 0.0
H621 H 0.15194 0.87303 0.22442 0.0
C622 C 0.21334 0.69958 0.29231 0.0
C623 C 0.25016 0.71312 0.28384 0.0
C624 C 0.17849 0.71357 0.28164 0.0
C625 C 0.17986 0.74115 0.26223 0.0
C626 C 0.21659 0.75359 0.25315 0.0
C627 C 0.25142 0.73962 0.26379 0.0
C628 C 0.14306 0.75906 0.25261 0.0
C629 C 0.13927 0.80043 0.25336 0.0
C630 C 0.11105 0.73581 0.24419 0.0
C631 C 0.11421 0.69234 0.24062 0.0
C632 C 0.14558 0.67607 0.22692 0.0
C633 C 0.14779 0.63528 0.22304 0.0
C634 C 0.11848 0.61043 0.23244 0.0
C635 C 0.08701 0.62629 0.24586 0.0
C636 C 0.08483 0.66702 0.24998 0.0
C637 C 0.99588 0.84231 0.19742 0.0
C638 C 0.96074 0.8294 0.20871 0.0
C639 C 0.03235 0.83415 0.20836 0.0
C640 C 0.03403 0.81311 0.23068 0.0
C641 C -0.00098 0.80376 0.24317 0.0
C642 C 0.96261 0.81229 0.23243 0.0
C643 C 0.07162 0.79575 0.2391 0.0
C644 C 0.07557 0.75455 0.23787 0.0
C645 C 0.10391 0.81911 0.24662 0.0
C646 C 0.10127 0.8628 0.24805 0.0
C647 C 0.07159 0.88107 0.26222 0.0
C648 C 0.06924 0.92227 0.2634 0.0
C649 C 0.09654 0.94554 0.25062 0.0
C650 C 0.12633 0.92764 0.23667 0.0
C651 C 0.1288 0.88645 0.23542 0.0
H652 H 0.09467 0.97743 0.25156 0.0
H653 H 0.12008 0.5789 0.22923 0.0
H654 H 0.70919 0.45693 0.737 0.0
H655 H 0.7055 0.52214 0.75605 0.0
H656 H 0.62679 0.56119 0.69827 0.0
H657 H 0.63042 0.4959 0.67896 0.0
H658 H 0.69044 0.60913 0.70317 0.0
H659 H 0.59314 0.55445 0.75648 0.0
H660 H 0.5636 0.50596 0.78506 0.0
H661 H 0.65726 0.52584 0.83708 0.0
H662 H 0.6877 0.57408 0.80867 0.0
H663 H 0.6758 0.80022 0.7578 0.0
H664 H 0.65897 0.73528 0.74109 0.0
H665 H 0.73511 0.67988 0.79485 0.0
H666 H 0.75182 0.74467 0.81187 0.0
H667 H 0.66426 0.64202 0.79113 0.0
H668 H 0.76492 0.6906 0.73577 0.0
H669 H 0.79532 0.73828 0.707 0.0
H670 H 0.69526 0.72885 0.65861 0.0
H671 H 0.66401 0.68147 0.6873 0.0
C672 C 0.6904 0.47909 0.72861 0.0
C673 C 0.67035 0.47134 0.70635 0.0
C674 C 0.68818 0.51633 0.7396 0.0
C675 C 0.66584 0.54648 0.72858 0.0
C676 C 0.64419 0.53828 0.70705 0.0
C677 C 0.64619 0.50091 0.6961 0.0
C678 C 0.66871 0.58739 0.7381 0.0
C679 C 0.68384 0.61656 0.72226 0.0
C680 C 0.66103 0.59673 0.76316 0.0
C681 C 0.64287 0.5677 0.78034 0.0
C682 C 0.60763 0.54826 0.77392 0.0
C683 C 0.59068 0.52086 0.79012 0.0
C684 C 0.60858 0.51277 0.81285 0.0
C685 C 0.64344 0.53213 0.81946 0.0
C686 C 0.66052 0.55955 0.80333 0.0
C687 C 0.68908 0.77425 0.76604 0.0
C688 C 0.71528 0.77761 0.78611 0.0
C689 C 0.67943 0.73717 0.75645 0.0
C690 C 0.69595 0.70282 0.76666 0.0
C691 C 0.72197 0.70605 0.78675 0.0
C692 C 0.73166 0.74311 0.79635 0.0
C693 C 0.68649 0.66346 0.75627 0.0
C694 C 0.67025 0.63465 0.77196 0.0
C695 C 0.69319 0.65436 0.73107 0.0
C696 C 0.71193 0.68287 0.71382 0.0
C697 C 0.74924 0.69897 0.71911 0.0
C698 C 0.76666 0.72588 0.70279 0.0
C699 C 0.74718 0.73669 0.68103 0.0
C700 C 0.71028 0.72051 0.6755 0.0
C701 C 0.69271 0.69361 0.69177 0.0
H702 H 0.76072 0.75752 0.66842 0.0
H703 H 0.59541 0.49155 0.82536 0.0
H704 H 0.98744 0.68159 0.20812 0.0
H705 H 0.02077 0.61912 0.19911 0.0
H706 H 0.93052 0.5902 0.1458 0.0
H707 H 0.8969 0.65249 0.15471 0.0
H708 H 0.94851 0.52811 0.17751 0.0
H709 H 0.0174 0.62324 0.12647 0.0
H710 H 0.05484 0.68464 0.11925 0.0
H711 H 0.14653 0.6439 0.16775 0.0
H712 H 0.1092 0.58254 0.17572 0.0
H713 H 0.03461 0.36703 0.11744 0.0
H714 H 0.00747 0.43306 0.12399 0.0
H715 H 0.1057 0.46191 0.17144 0.0
H716 H 0.1335 0.39622 0.16461 0.0
H717 H 0.08505 0.52441 0.14427 0.0
H718 H 0.01997 0.43071 0.19582 0.0
H719 H 0.98359 0.36983 0.20622 0.0
H720 H 0.88635 0.40771 0.16116 0.0
H721 H 0.9225 0.4685 0.15005 0.0
C722 C 0.97463 0.66192 0.1945 0.0
C723 C 0.93954 0.67197 0.18209 0.0
C724 C 0.99379 0.62633 0.18933 0.0
C725 C 0.97818 0.60027 0.17168 0.0
C726 C 0.94298 0.61 0.15948 0.0
C727 C 0.92391 0.64564 0.16454 0.0
C728 C -0.00155 0.56273 0.16584 0.0
C729 C 0.97815 0.52723 0.16992 0.0
C730 C 0.03764 0.56179 0.15682 0.0
C731 C 0.0603 0.59847 0.15188 0.0
C732 C 0.04537 0.62751 0.13578 0.0
C733 C 0.06658 0.6623 0.13156 0.0
C734 C 0.10294 0.66823 0.14315 0.0
C735 C 0.11825 0.63932 0.15892 0.0
C736 C 0.09709 0.60453 0.16328 0.0
C737 C 0.05081 0.38764 0.12892 0.0
C738 C 0.08591 0.37623 0.14078 0.0
C739 C 0.03516 0.42528 0.13274 0.0
C740 C 0.05411 0.45198 0.14868 0.0
C741 C 0.09048 0.44162 0.15922 0.0
C742 C 0.1063 0.40404 0.15529 0.0
C743 C 0.03481 0.48969 0.15549 0.0
C744 C 0.05536 0.5252 0.15178 0.0
C745 C 0.99603 0.49063 0.16528 0.0
C746 C 0.97417 0.45401 0.17186 0.0
C747 C 0.99099 0.42591 0.18792 0.0
C748 C 0.97039 0.39142 0.19397 0.0
C749 C 0.93273 0.38486 0.1843 0.0
C750 C 0.91557 0.4128 0.16858 0.0
C751 C 0.93611 0.44727 0.1624 0.0
H752 H 0.91682 0.35816 0.18901 0.0
H753 H 0.11933 0.69517 0.13985 0.0
H754 H 0.86161 0.37541 0.66218 0.0
H755 H 0.93081 0.39368 0.65639 0.0
H756 H 0.89939 0.51705 0.66015 0.0
H757 H 0.83011 0.49915 0.66581 0.0
H758 H 0.95262 0.50102 0.62269 0.0
H759 H 0.93648 0.47218 0.70987 0.0
H760 H 0.918 0.43054 0.74551 0.0
H761 H 0.00157 0.34239 0.72264 0.0
H762 H 0.02015 0.38331 0.68666 0.0
H763 H 0.12932 0.59728 0.65446 0.0
H764 H 0.06297 0.56989 0.65185 0.0
H765 H 0.11088 0.4518 0.65426 0.0
H766 H 0.17758 0.47905 0.65744 0.0
H767 H 0.051 0.45875 0.68535 0.0
H768 H 0.07224 0.48977 0.60047 0.0
H769 H 0.09119 0.53089 0.56472 0.0
H770 H -0.00092 0.61343 0.58222 0.0
H771 H 0.9799 0.5731 0.61831 0.0
C772 C 0.86937 0.40645 0.66164 0.0
C773 C 0.84041 0.43586 0.6646 0.0
C774 C 0.90892 0.41679 0.65838 0.0
C775 C 0.92016 0.45668 0.65806 0.0
C776 C 0.89123 0.4861 0.66034 0.0
C777 C 0.85171 0.4758 0.66369 0.0
C778 C 0.96223 0.4679 0.65617 0.0
C779 C 0.97415 0.49207 0.63645 0.0
C780 C 0.9904 0.45511 0.67374 0.0
C781 C 0.97936 0.43059 0.69542 0.0
C782 C 0.95067 0.44377 0.71233 0.0
C783 C 0.94022 0.42033 0.73261 0.0
C784 C 0.9585 0.38379 0.73629 0.0
C785 C 0.98737 0.37067 0.71974 0.0
C786 C 0.99788 0.39397 0.69941 0.0
C787 C 0.12585 0.56546 0.65424 0.0
C788 C 0.15872 0.54032 0.65618 0.0
C789 C 0.08787 0.54984 0.6526 0.0
C790 C 0.08201 0.50879 0.65252 0.0
C791 C 0.11478 0.48357 0.6542 0.0
C792 C 0.15285 0.4992 0.65598 0.0
C793 C 0.04145 0.49248 0.65203 0.0
C794 C 0.02972 0.46734 0.67134 0.0
C795 C 0.01352 0.50423 0.63399 0.0
C796 C 0.02481 0.52852 0.61222 0.0
C797 C 0.05619 0.51683 0.59681 0.0
C798 C 0.06695 0.53998 0.57646 0.0
C799 C 0.0464 0.57479 0.57123 0.0
C800 C 0.01498 0.58647 0.5863 0.0
C801 C 0.00412 0.56345 0.60669 0.0
H802 H 0.05478 0.59267 0.55547 0.0
H803 H 0.95038 0.36568 0.75201 0.0
H804 H 0.61288 0.10544 0.34017 0.0
H805 H 0.58822 0.03772 0.33854 0.0
H806 H 0.46858 0.08124 0.33613 0.0
H807 H 0.49296 0.14908 0.33853 0.0
H808 H 0.47353 0.01893 0.36585 0.0
H809 H 0.51573 0.05004 0.28345 0.0
H810 H 0.56193 0.07281 0.25117 0.0
H811 H 0.64244 0.97962 0.27006 0.0
H812 H 0.59693 0.9565 0.30265 0.0
H813 H 0.38371 0.84452 0.31855 0.0
H814 H 0.40869 0.9119 0.32305 0.0
H815 H 0.52655 0.86667 0.33339 0.0
H816 H 0.50185 0.79908 0.32894 0.0
H817 H 0.52246 0.92939 0.29987 0.0
H818 H 0.47759 0.89802 0.38207 0.0
H819 H 0.42931 0.87533 0.41313 0.0
H820 H 0.35113 0.96991 0.39306 0.0
H821 H 0.39871 0.99282 0.36159 0.0
C822 C 0.5813 0.10063 0.33943 0.0
C823 C 0.55487 0.13264 0.33921 0.0
C824 C 0.56727 0.0619 0.33838 0.0
C825 C 0.5266 0.05447 0.33675 0.0
C826 C 0.50009 0.08632 0.33727 0.0
C827 C 0.51409 0.12507 0.33855 0.0
C828 C 0.51176 0.0135 0.33414 0.0
C829 C 0.48387 -0.00048 0.35124 0.0
C830 C 0.52572 0.98798 0.3153 0.0
C831 C 0.55308 0.00176 0.29565 0.0
C832 C 0.54341 0.03456 0.28085 0.0
C833 C 0.56945 0.04751 0.26248 0.0
C834 C 0.60513 0.02776 0.25863 0.0
C835 C 0.61481 0.99492 0.27309 0.0
C836 C 0.58889 0.98185 0.29149 0.0
C837 C 0.41496 0.84888 0.32176 0.0
C838 C 0.44083 0.81649 0.32343 0.0
C839 C 0.42913 0.88737 0.32442 0.0
C840 C 0.46937 0.89414 0.32874 0.0
C841 C 0.49536 0.86196 0.33011 0.0
C842 C 0.48118 0.82341 0.32764 0.0
C843 C 0.48439 0.93491 0.33159 0.0
C844 C 0.51224 0.94884 0.3145 0.0
C845 C 0.47009 0.96047 0.35026 0.0
C846 C 0.44156 0.94691 0.3693 0.0
C847 C 0.44996 0.91379 0.38413 0.0
C848 C 0.42275 0.90092 0.40184 0.0
C849 C 0.38713 0.9211 0.40502 0.0
C850 C 0.37871 0.95427 0.39055 0.0
C851 C 0.4058 0.96723 0.37279 0.0
H852 H 0.3661 0.91109 0.41874 0.0
H853 H 0.62525 0.03784 0.2444 0.0
H854 H 0.31734 0.00041 0.83684 0.0
H855 H 0.3853 0.97659 0.83918 0.0
H856 H 0.42805 0.09546 0.82833 0.0
H857 H 0.3602 0.11937 0.82539 0.0
H858 H 0.46671 0.04559 0.7996 0.0
H859 H 0.43124 0.05001 0.88552 0.0
H860 H 0.39042 0.03563 0.92223 0.0
H861 H 0.40905 0.91124 0.91178 0.0
H862 H 0.44956 0.92485 0.87479 0.0
H863 H 0.66641 0.00862 0.82923 0.0
H864 H 0.59881 0.03348 0.8306 0.0
H865 H 0.5552 0.91442 0.83883 0.0
H866 H 0.62285 0.88929 0.83794 0.0
H867 H 0.51729 0.96478 0.86936 0.0
H868 H 0.5525 0.96099 0.78308 0.0
H869 H 0.59381 0.97595 0.74668 0.0
H870 H 0.57565 0.10018 0.75811 0.0
H871 H 0.53483 0.086 0.79485 0.0
C872 C 0.3412 0.02152 0.83511 0.0
C873 C 0.33342 0.06177 0.83095 0.0
C874 C 0.38003 0.00788 0.83655 0.0
C875 C 0.41174 0.03433 0.83419 0.0
C876 C 0.40401 0.07456 0.8302 0.0
C877 C 0.36522 0.08817 0.82858 0.0
C878 C 0.453 0.0199 0.83508 0.0
C879 C 0.47793 0.02842 0.81504 0.0
C880 C 0.46734 0.99671 0.85495 0.0
C881 C 0.44314 0.98845 0.87725 0.0
C882 C 0.42639 0.01958 0.89094 0.0
C883 C 0.40335 0.01157 0.91182 0.0
C884 C 0.39706 0.97254 0.9193 0.0
C885 C 0.4139 0.94145 0.90595 0.0
C886 C 0.43694 0.9493 0.88504 0.0
C887 C 0.64247 0.9877 0.83141 0.0
C888 C 0.64995 0.94695 0.83333 0.0
C889 C 0.60385 0.00196 0.83212 0.0
C890 C 0.572 0.97573 0.83447 0.0
C891 C 0.5794 0.93513 0.83695 0.0
C892 C 0.61805 0.92083 0.83637 0.0
C893 C 0.53092 0.99057 0.83393 0.0
C894 C 0.50603 0.98205 0.85399 0.0
C895 C 0.51662 0.01386 0.8141 0.0
C896 C 0.54091 0.02243 0.79187 0.0
C897 C 0.55757 0.99151 0.77795 0.0
C898 C 0.5809 -0.00015 0.75725 0.0
C899 C 0.5875 0.039 0.75014 0.0
C900 C 0.57066 0.06988 0.76368 0.0
C901 C 0.5474 0.06171 0.78443 0.0
H902 H 0.60555 0.04538 0.73411 0.0
H903 H 0.37921 0.9664 0.93546 0.0
loop_
_geom_bond_atom_site_label_1
_geom_bond_atom_site_label_2
_geom_bond_distance
_geom_bond_site_symmetry_2
_ccdc_geom_bond_type
C0 O1 1.160 . S
C0 O7 1.185 . S
O1 C0 1.160 . S
O2 Zn3 1.899 . S
O2 C10 1.284 . S
Zn3 O2 1.899 . S
Zn3 O4 2.032 . S
Zn3 O7 2.086 . S
Zn3 O12 1.977 . S
O4 Zn3 2.032 . S
O4 C8 1.278 . S
C5 O6 1.203 . S
C5 O12 1.267 . S
O6 C5 1.203 . S
O7 C0 1.185 . S
O7 Zn3 2.086 . S
C8 O4 1.278 . S
C8 O9 1.211 . S
O9 C8 1.211 . S
C10 O2 1.284 . S
C10 O11 1.273 . S
O11 C10 1.273 . S
O12 Zn3 1.977 . S
O12 C5 1.267 . S
C13 O14 1.160 . S
C13 O20 1.185 . S
O14 C13 1.160 . S
O15 Zn16 1.899 . S
O15 C23 1.284 . S
Zn16 O15 1.899 . S
Zn16 O17 2.032 . S
Zn16 O20 2.086 . S
Zn16 O25 1.977 . S
O17 Zn16 2.032 . S
O17 C21 1.278 . S
C18 O19 1.203 . S
C18 O25 1.267 . S
O19 C18 1.203 . S
O20 C13 1.185 . S
O20 Zn16 2.086 . S
C21 O17 1.278 . S
C21 O22 1.211 . S
O22 C21 1.211 . S
C23 O15 1.284 . S
C23 O24 1.273 . S
O24 C23 1.273 . S
O25 Zn16 1.977 . S
O25 C18 1.267 . S
C26 O27 1.160 . S
C26 O33 1.185 . S
O27 C26 1.160 . S
O28 Zn29 1.899 . S
O28 C36 1.284 . S
Zn29 O28 1.899 . S
Zn29 O30 2.032 . S
Zn29 O33 2.086 . S
Zn29 O38 1.977 . S
O30 Zn29 2.032 . S
O30 C34 1.278 . S
C31 O32 1.203 . S
C31 O38 1.267 . S
O32 C31 1.203 . S
O33 C26 1.185 . S
O33 Zn29 2.086 . S
C34 O30 1.278 . S
C34 O35 1.211 . S
O35 C34 1.211 . S
C36 O28 1.284 . S
C36 O37 1.273 . S
O37 C36 1.273 . S
O38 Zn29 1.977 . S
O38 C31 1.267 . S
C39 O40 1.160 . S
C39 O46 1.185 . S
O40 C39 1.160 . S
O41 Zn42 1.899 . S
O41 C49 1.284 . S
Zn42 O41 1.899 . S
Zn42 O43 2.032 . S
Zn42 O46 2.086 . S
Zn42 O51 1.977 . S
O43 Zn42 2.032 . S
O43 C47 1.278 . S
C44 O45 1.203 . S
C44 O51 1.267 . S
O45 C44 1.203 . S
O46 C39 1.185 . S
O46 Zn42 2.086 . S
C47 O43 1.278 . S
C47 O48 1.211 . S
O48 C47 1.211 . S
C49 O41 1.284 . S
C49 O50 1.273 . S
O50 C49 1.273 . S
O51 Zn42 1.977 . S
O51 C44 1.267 . S
C52 O53 1.160 . S
C52 O59 1.185 . S
O53 C52 1.160 . S
O54 Zn55 1.899 . S
O54 C62 1.284 . S
Zn55 O54 1.899 . S
Zn55 O56 2.032 . S
Zn55 O59 2.086 . S
Zn55 O64 1.977 . S
O56 Zn55 2.032 . S
O56 C60 1.278 . S
C57 O58 1.203 . S
C57 O64 1.267 . S
O58 C57 1.203 . S
O59 C52 1.185 . S
O59 Zn55 2.086 . S
C60 O56 1.278 . S
C60 O61 1.211 . S
O61 C60 1.211 . S
C62 O54 1.284 . S
C62 O63 1.273 . S
O63 C62 1.273 . S
O64 Zn55 1.977 . S
O64 C57 1.267 . S
C65 O66 1.160 . S
C65 O72 1.185 . S
O66 C65 1.160 . S
O67 Zn68 1.899 . S
O67 C75 1.284 . S
Zn68 O67 1.899 . S
Zn68 O69 2.032 . S
Zn68 O72 2.086 . S
Zn68 O77 1.977 . S
O69 Zn68 2.032 . S
O69 C73 1.278 . S
C70 O71 1.203 . S
C70 O77 1.267 . S
O71 C70 1.203 . S
O72 C65 1.185 . S
O72 Zn68 2.086 . S
C73 O69 1.278 . S
C73 O74 1.211 . S
O74 C73 1.211 . S
C75 O67 1.284 . S
C75 O76 1.273 . S
O76 C75 1.273 . S
O77 Zn68 1.977 . S
O77 C70 1.267 . S
C78 O79 1.160 . S
C78 O85 1.185 . S
O79 C78 1.160 . S
O80 Zn81 1.899 . S
O80 C88 1.284 . S
Zn81 O80 1.899 . S
Zn81 O82 2.032 . S
Zn81 O85 2.086 . S
Zn81 O90 1.977 . S
O82 Zn81 2.032 . S
O82 C86 1.278 . S
C83 O84 1.203 . S
C83 O90 1.267 . S
O84 C83 1.203 . S
O85 C78 1.185 . S
O85 Zn81 2.086 . S
C86 O82 1.278 . S
C86 O87 1.211 . S
O87 C86 1.211 . S
C88 O80 1.284 . S
C88 O89 1.273 . S
O89 C88 1.273 . S
O90 Zn81 1.977 . S
O90 C83 1.267 . S
C91 O92 1.160 . S
C91 O98 1.185 . S
O92 C91 1.160 . S
O93 Zn94 1.899 . S
O93 C101 1.284 . S
Zn94 O93 1.899 . S
Zn94 O95 2.032 . S
Zn94 O98 2.086 . S
Zn94 O103 1.977 . S
O95 Zn94 2.032 . S
O95 C99 1.278 . S
C96 O97 1.203 . S
C96 O103 1.267 . S
O97 C96 1.203 . S
O98 C91 1.185 . S
O98 Zn94 2.086 . S
C99 O95 1.278 . S
C99 O100 1.211 . S
O100 C99 1.211 . S
C101 O93 1.284 . S
C101 O102 1.273 . S
O102 C101 1.273 . S
O103 Zn94 1.977 . S
O103 C96 1.267 . S
H104 C122 0.951 . S
H105 C124 0.951 . S
H106 C126 0.950 . S
H107 C127 0.950 . S
H108 C129 0.950 . S
H109 C132 0.950 . S
H110 C133 0.950 . S
H111 C135 0.950 . S
H112 C136 0.950 . S
H113 C137 0.951 . S
H114 C139 0.951 . S
H115 C141 0.950 . S
H116 C142 0.950 . S
H117 C144 0.950 . S
H118 C147 0.950 . S
H119 C148 0.950 . S
H120 C150 0.950 . S
H121 C151 0.950 . S
C122 H104 0.951 . S
C122 C123 1.366 . S
C122 C124 1.388 . S
C123 C122 1.366 . S
C123 C127 1.385 . S
C124 H105 0.951 . S
C124 C122 1.388 . S
C124 C125 1.366 . S
C125 C124 1.366 . S
C125 C126 1.414 . S
C125 C128 1.499 . S
C126 H106 0.950 . S
C126 C125 1.414 . S
C126 C127 1.374 . S
C127 H107 0.950 . S
C127 C123 1.385 . S
C127 C126 1.374 . S
C128 C125 1.499 . S
C128 C129 1.373 . S
C128 C130 1.389 . S
C129 H108 0.950 . S
C129 C128 1.373 . S
C129 C145 1.377 1_554 S
C130 C128 1.389 . S
C130 C131 1.524 . S
C130 C144 1.377 1_554 S
C131 C130 1.524 . S
C131 C132 1.397 . S
C131 C136 1.363 . S
C132 H109 0.950 . S
C132 C131 1.397 . S
C132 C133 1.334 . S
C133 H110 0.950 . S
C133 C132 1.334 . S
C133 C134 1.287 . S
C134 C133 1.287 . S
C134 C135 1.524 . S
C134 H153 0.913 . S
C135 H111 0.950 . S
C135 C134 1.524 . S
C135 C136 1.415 . S
C136 H112 0.950 . S
C136 C131 1.363 . S
C136 C135 1.415 . S
C137 H113 0.951 . S
C137 C138 1.366 . S
C137 C139 1.388 . S
C138 C137 1.366 . S
C138 C142 1.385 . S
C139 H114 0.951 . S
C139 C137 1.388 . S
C139 C140 1.366 . S
C140 C139 1.366 . S
C140 C141 1.414 . S
C140 C143 1.499 . S
C141 H115 0.950 . S
C141 C140 1.414 . S
C141 C142 1.374 . S
C142 H116 0.950 . S
C142 C138 1.385 . S
C142 C141 1.374 . S
C143 C140 1.499 . S
C143 C144 1.373 . S
C143 C145 1.389 . S
C144 H117 0.950 . S
C144 C130 1.377 1_556 S
C144 C143 1.373 . S
C145 C129 1.377 1_556 S
C145 C143 1.389 . S
C145 C146 1.524 . S
C146 C145 1.524 . S
C146 C147 1.397 . S
C146 C151 1.363 . S
C147 H118 0.950 . S
C147 C146 1.397 . S
C147 C148 1.334 . S
C148 H119 0.950 . S
C148 C147 1.334 . S
C148 C149 1.287 . S
C149 C148 1.287 . S
C149 C150 1.524 . S
C149 H152 0.999 1_545 S
C150 H120 0.950 . S
C150 C149 1.524 . S
C150 C151 1.415 . S
C151 H121 0.950 . S
C151 C146 1.363 . S
C151 C150 1.415 . S
H152 C149 0.999 1_565 S
H153 C134 0.913 . S
H154 C172 0.951 . S
H155 C174 0.951 . S
H156 C176 0.950 . S
H157 C177 0.950 . S
H158 C179 0.950 . S
H159 C182 0.950 . S
H160 C183 0.950 . S
H161 C185 0.950 . S
H162 C186 0.950 . S
H163 C187 0.951 . S
H164 C189 0.951 . S
H165 C191 0.950 . S
H166 C192 0.950 . S
H167 C194 0.950 . S
H168 C197 0.950 . S
H169 C198 0.950 . S
H170 C200 0.950 . S
H171 C201 0.950 . S
C172 H154 0.951 . S
C172 C173 1.366 . S
C172 C174 1.388 . S
C173 C172 1.366 . S
C173 C177 1.385 . S
C174 H155 0.951 . S
C174 C172 1.388 . S
C174 C175 1.366 . S
C175 C174 1.366 . S
C175 C176 1.414 . S
C175 C178 1.499 . S
C176 H156 0.950 . S
C176 C175 1.414 . S
C176 C177 1.374 . S
C177 H157 0.950 . S
C177 C173 1.385 . S
C177 C176 1.374 . S
C178 C175 1.499 . S
C178 C179 1.373 . S
C178 C180 1.389 . S
C179 H158 0.950 . S
C179 C178 1.373 . S
C179 C195 1.377 . S
C180 C178 1.389 . S
C180 C181 1.524 . S
C180 C194 1.377 . S
C181 C180 1.524 . S
C181 C182 1.397 . S
C181 C186 1.363 . S
C182 H159 0.950 . S
C182 C181 1.397 . S
C182 C183 1.334 . S
C183 H160 0.950 . S
C183 C182 1.334 . S
C183 C184 1.287 . S
C184 C183 1.287 . S
C184 C185 1.524 . S
C184 H203 0.913 . S
C185 H161 0.950 . S
C185 C184 1.524 . S
C185 C186 1.415 . S
C186 H162 0.950 . S
C186 C181 1.363 . S
C186 C185 1.415 . S
C187 H163 0.951 . S
C187 C188 1.366 . S
C187 C189 1.388 . S
C188 C187 1.366 . S
C188 C192 1.385 . S
C189 H164 0.951 . S
C189 C187 1.388 . S
C189 C190 1.366 . S
C190 C189 1.366 . S
C190 C191 1.414 . S
C190 C193 1.499 . S
C191 H165 0.950 . S
C191 C190 1.414 . S
C191 C192 1.374 . S
C192 H166 0.950 . S
C192 C188 1.385 . S
C192 C191 1.374 . S
C193 C190 1.499 . S
C193 C194 1.373 . S
C193 C195 1.389 . S
C194 H167 0.950 . S
C194 C180 1.377 . S
C194 C193 1.373 . S
C195 C179 1.377 . S
C195 C193 1.389 . S
C195 C196 1.524 . S
C196 C195 1.524 . S
C196 C197 1.397 . S
C196 C201 1.363 . S
C197 H168 0.950 . S
C197 C196 1.397 . S
C197 C198 1.334 . S
C198 H169 0.950 . S
C198 C197 1.334 . S
C198 C199 1.287 . S
C199 C198 1.287 . S
C199 C200 1.524 . S
C199 H202 0.999 . S
C200 H170 0.950 . S
C200 C199 1.524 . S
C200 C201 1.415 . S
C201 H171 0.950 . S
C201 C196 1.363 . S
C201 C200 1.415 . S
H202 C199 0.999 . S
H203 C184 0.913 . S
H204 C222 0.951 . S
H205 C224 0.951 . S
H206 C226 0.950 . S
H207 C227 0.950 . S
H208 C229 0.950 . S
H209 C232 0.950 . S
H210 C233 0.950 . S
H211 C235 0.950 . S
H212 C236 0.950 . S
H213 C237 0.951 . S
H214 C239 0.951 . S
H215 C241 0.950 . S
H216 C242 0.950 . S
H217 C244 0.950 . S
H218 C247 0.950 . S
H219 C248 0.950 . S
H220 C250 0.950 . S
H221 C251 0.950 . S
C222 H204 0.951 . S
C222 C223 1.366 . S
C222 C224 1.388 . S
C223 C222 1.366 . S
C223 C227 1.385 . S
C224 H205 0.951 . S
C224 C222 1.388 . S
C224 C225 1.366 . S
C225 C224 1.366 . S
C225 C226 1.414 . S
C225 C228 1.499 . S
C226 H206 0.950 . S
C226 C225 1.414 . S
C226 C227 1.374 . S
C227 H207 0.950 . S
C227 C223 1.385 . S
C227 C226 1.374 . S
C228 C225 1.499 . S
C228 C229 1.373 . S
C228 C230 1.389 . S
C229 H208 0.950 . S
C229 C228 1.373 . S
C229 C245 1.377 1_554 S
C230 C228 1.389 . S
C230 C231 1.524 . S
C230 C244 1.377 1_554 S
C231 C230 1.524 . S
C231 C232 1.397 . S
C231 C236 1.363 1_554 S
C232 H209 0.950 . S
C232 C231 1.397 . S
C232 C233 1.334 . S
C233 H210 0.950 . S
C233 C232 1.334 . S
C233 C234 1.287 . S
C234 C233 1.287 . S
C234 C235 1.524 1_554 S
C234 H253 0.913 1_655 S
C235 H211 0.950 . S
C235 C234 1.524 1_556 S
C235 C236 1.415 . S
C236 H212 0.950 . S
C236 C231 1.363 1_556 S
C236 C235 1.415 . S
C237 H213 0.951 . S
C237 C238 1.366 . S
C237 C239 1.388 . S
C238 C237 1.366 . S
C238 C242 1.385 . S
C239 H214 0.951 . S
C239 C237 1.388 . S
C239 C240 1.366 . S
C240 C239 1.366 . S
C240 C241 1.414 . S
C240 C243 1.499 . S
C241 H215 0.950 . S
C241 C240 1.414 . S
C241 C242 1.374 . S
C242 H216 0.950 . S
C242 C238 1.385 . S
C242 C241 1.374 . S
C243 C240 1.499 . S
C243 C244 1.373 . S
C243 C245 1.389 . S
C244 H217 0.950 . S
C244 C230 1.377 1_556 S
C244 C243 1.373 . S
C245 C229 1.377 1_556 S
C245 C243 1.389 . S
C245 C246 1.524 . S
C246 C245 1.524 . S
C246 C247 1.397 . S
C246 C251 1.363 1_556 S
C247 H218 0.950 . S
C247 C246 1.397 . S
C247 C248 1.334 . S
C248 H219 0.950 . S
C248 C247 1.334 . S
C248 C249 1.287 . S
C249 C248 1.287 . S
C249 C250 1.524 1_556 S
C249 H252 0.999 . S
C250 H220 0.950 . S
C250 C249 1.524 1_554 S
C250 C251 1.415 . S
C251 H221 0.950 . S
C251 C246 1.363 1_554 S
C251 C250 1.415 . S
H252 C249 0.999 . S
H253 C234 0.913 1_455 S
H254 C272 0.951 . S
H255 C274 0.951 . S
H256 C276 0.950 . S
H257 C277 0.950 . S
H258 C279 0.950 . S
H259 C282 0.950 . S
H260 C283 0.950 . S
H261 C285 0.950 . S
H262 C286 0.950 . S
H263 C287 0.951 . S
H264 C289 0.951 . S
H265 C291 0.950 . S
H266 C292 0.950 . S
H267 C294 0.950 . S
H268 C297 0.950 . S
H269 C298 0.950 . S
H270 C300 0.950 . S
H271 C301 0.950 . S
C272 H254 0.951 . S
C272 C273 1.366 . S
C272 C274 1.388 . S
C273 C272 1.366 . S
C273 C277 1.385 . S
C274 H255 0.951 . S
C274 C272 1.388 . S
C274 C275 1.366 . S
C275 C274 1.366 . S
C275 C276 1.414 . S
C275 C278 1.499 . S
C276 H256 0.950 . S
C276 C275 1.414 . S
C276 C277 1.374 . S
C277 H257 0.950 . S
C277 C273 1.385 . S
C277 C276 1.374 . S
C278 C275 1.499 . S
C278 C279 1.373 . S
C278 C280 1.389 . S
C279 H258 0.950 . S
C279 C278 1.373 . S
C279 C295 1.377 . S
C280 C278 1.389 . S
C280 C281 1.524 . S
C280 C294 1.377 . S
C281 C280 1.524 . S
C281 C282 1.397 . S
C281 C286 1.363 . S
C282 H259 0.950 . S
C282 C281 1.397 . S
C282 C283 1.334 . S
C283 H260 0.950 . S
C283 C282 1.334 . S
C283 C284 1.287 . S
C284 C283 1.287 . S
C284 C285 1.524 . S
C284 H303 0.913 . S
C285 H261 0.950 . S
C285 C284 1.524 . S
C285 C286 1.415 . S
C286 H262 0.950 . S
C286 C281 1.363 . S
C286 C285 1.415 . S
C287 H263 0.951 . S
C287 C288 1.366 . S
C287 C289 1.388 . S
C288 C287 1.366 . S
C288 C292 1.385 . S
C289 H264 0.951 . S
C289 C287 1.388 . S
C289 C290 1.366 . S
C290 C289 1.366 . S
C290 C291 1.414 . S
C290 C293 1.499 . S
C291 H265 0.950 . S
C291 C290 1.414 . S
C291 C292 1.374 . S
C292 H266 0.950 . S
C292 C288 1.385 . S
C292 C291 1.374 . S
C293 C290 1.499 . S
C293 C294 1.373 . S
C293 C295 1.389 . S
C294 H267 0.950 . S
C294 C280 1.377 . S
C294 C293 1.373 . S
C295 C279 1.377 . S
C295 C293 1.389 . S
C295 C296 1.524 . S
C296 C295 1.524 . S
C296 C297 1.397 . S
C296 C301 1.363 . S
C297 H268 0.950 . S
C297 C296 1.397 . S
C297 C298 1.334 . S
C298 H269 0.950 . S
C298 C297 1.334 . S
C298 C299 1.287 . S
C299 C298 1.287 . S
C299 C300 1.524 . S
C299 H302 0.999 . S
C300 H270 0.950 . S
C300 C299 1.524 . S
C300 C301 1.415 . S
C301 H271 0.950 . S
C301 C296 1.363 . S
C301 C300 1.415 . S
H302 C299 0.999 . S
H303 C284 0.913 . S
H304 C322 0.951 . S
H305 C324 0.951 . S
H306 C326 0.950 . S
H307 C327 0.950 . S
H308 C329 0.950 . S
H309 C332 0.950 . S
H310 C333 0.950 . S
H311 C335 0.950 . S
H312 C336 0.950 . S
H313 C337 0.951 . S
H314 C339 0.951 . S
H315 C341 0.950 . S
H316 C342 0.950 . S
H317 C344 0.950 . S
H318 C347 0.950 . S
H319 C348 0.950 . S
H320 C350 0.950 . S
H321 C351 0.950 . S
C322 H304 0.951 . S
C322 C323 1.366 . S
C322 C324 1.388 . S
C323 C322 1.366 . S
C323 C327 1.385 . S
C324 H305 0.951 . S
C324 C322 1.388 . S
C324 C325 1.366 . S
C325 C324 1.366 . S
C325 C326 1.414 . S
C325 C328 1.499 . S
C326 H306 0.950 . S
C326 C325 1.414 . S
C326 C327 1.374 . S
C327 H307 0.950 . S
C327 C323 1.385 . S
C327 C326 1.374 . S
C328 C325 1.499 . S
C328 C329 1.373 . S
C328 C330 1.389 . S
C329 H308 0.950 . S
C329 C328 1.373 . S
C329 C345 1.377 . S
C330 C328 1.389 . S
C330 C331 1.524 . S
C330 C344 1.377 . S
C331 C330 1.524 . S
C331 C332 1.397 . S
C331 C336 1.363 . S
C332 H309 0.950 . S
C332 C331 1.397 . S
C332 C333 1.334 . S
C333 H310 0.950 . S
C333 C332 1.334 . S
C333 C334 1.287 . S
C334 C333 1.287 . S
C334 C335 1.524 . S
C334 H353 0.913 . S
C335 H311 0.950 . S
C335 C334 1.524 . S
C335 C336 1.415 . S
C336 H312 0.950 . S
C336 C331 1.363 . S
C336 C335 1.415 . S
C337 H313 0.951 . S
C337 C338 1.366 . S
C337 C339 1.388 . S
C338 C337 1.366 . S
C338 C342 1.385 . S
C339 H314 0.951 . S
C339 C337 1.388 . S
C339 C340 1.366 . S
C340 C339 1.366 . S
C340 C341 1.414 . S
C340 C343 1.499 . S
C341 H315 0.950 . S
C341 C340 1.414 . S
C341 C342 1.374 . S
C342 H316 0.950 . S
C342 C338 1.385 . S
C342 C341 1.374 . S
C343 C340 1.499 . S
C343 C344 1.373 . S
C343 C345 1.389 . S
C344 H317 0.950 . S
C344 C330 1.377 . S
C344 C343 1.373 . S
C345 C329 1.377 . S
C345 C343 1.389 . S
C345 C346 1.524 . S
C346 C345 1.524 . S
C346 C347 1.397 . S
C346 C351 1.363 . S
C347 H318 0.950 . S
C347 C346 1.397 . S
C347 C348 1.334 . S
C348 H319 0.950 . S
C348 C347 1.334 . S
C348 C349 1.287 . S
C349 C348 1.287 . S
C349 C350 1.524 . S
C349 H352 0.999 . S
C350 H320 0.950 . S
C350 C349 1.524 . S
C350 C351 1.415 . S
C351 H321 0.950 . S
C351 C346 1.363 . S
C351 C350 1.415 . S
H352 C349 0.999 . S
H353 C334 0.913 . S
H354 C372 0.951 . S
H355 C374 0.951 . S
H356 C376 0.950 . S
H357 C377 0.950 . S
H358 C379 0.950 . S
H359 C382 0.950 . S
H360 C383 0.950 . S
H361 C385 0.950 . S
H362 C386 0.950 . S
H363 C387 0.951 1_545 S
H364 C389 0.951 . S
H365 C391 0.950 . S
H366 C392 0.950 1_545 S
H367 C394 0.950 . S
H368 C397 0.950 . S
H369 C398 0.950 1_545 S
H370 C400 0.950 . S
H371 C401 0.950 . S
C372 H354 0.951 . S
C372 C373 1.366 . S
C372 C374 1.388 . S
C373 C372 1.366 . S
C373 C377 1.385 . S
C374 H355 0.951 . S
C374 C372 1.388 . S
C374 C375 1.366 . S
C375 C374 1.366 . S
C375 C376 1.414 . S
C375 C378 1.499 . S
C376 H356 0.950 . S
C376 C375 1.414 . S
C376 C377 1.374 . S
C377 H357 0.950 . S
C377 C373 1.385 . S
C377 C376 1.374 . S
C378 C375 1.499 . S
C378 C379 1.373 . S
C378 C380 1.389 . S
C379 H358 0.950 . S
C379 C378 1.373 . S
C379 C395 1.377 . S
C380 C378 1.389 . S
C380 C381 1.524 . S
C380 C394 1.377 . S
C381 C380 1.524 . S
C381 C382 1.397 . S
C381 C386 1.363 . S
C382 H359 0.950 . S
C382 C381 1.397 . S
C382 C383 1.334 . S
C383 H360 0.950 . S
C383 C382 1.334 . S
C383 C384 1.287 . S
C384 C383 1.287 . S
C384 C385 1.524 . S
C384 H403 0.913 . S
C385 H361 0.950 . S
C385 C384 1.524 . S
C385 C386 1.415 . S
C386 H362 0.950 . S
C386 C381 1.363 . S
C386 C385 1.415 . S
C387 H363 0.951 1_565 S
C387 C388 1.366 1_565 S
C387 C389 1.388 . S
C388 C387 1.366 1_545 S
C388 C392 1.385 1_545 S
C389 H364 0.951 . S
C389 C387 1.388 . S
C389 C390 1.366 . S
C390 C389 1.366 . S
C390 C391 1.414 . S
C390 C393 1.499 . S
C391 H365 0.950 . S
C391 C390 1.414 . S
C391 C392 1.374 . S
C392 H366 0.950 1_565 S
C392 C388 1.385 1_565 S
C392 C391 1.374 . S
C393 C390 1.499 . S
C393 C394 1.373 . S
C393 C395 1.389 . S
C394 H367 0.950 . S
C394 C380 1.377 . S
C394 C393 1.373 . S
C395 C379 1.377 . S
C395 C393 1.389 . S
C395 C396 1.524 . S
C396 C395 1.524 . S
C396 C397 1.397 . S
C396 C401 1.363 . S
C397 H368 0.950 . S
C397 C396 1.397 . S
C397 C398 1.334 . S
C398 H369 0.950 1_565 S
C398 C397 1.334 . S
C398 C399 1.287 . S
C399 C398 1.287 . S
C399 C400 1.524 . S
C399 H402 0.999 1_565 S
C400 H370 0.950 . S
C400 C399 1.524 . S
C400 C401 1.415 . S
C401 H371 0.950 . S
C401 C396 1.363 . S
C401 C400 1.415 . S
H402 C399 0.999 1_545 S
H403 C384 0.913 . S
H404 C422 0.951 . S
H405 C424 0.951 . S
H406 C426 0.950 . S
H407 C427 0.950 . S
H408 C429 0.950 . S
H409 C432 0.950 . S
H410 C433 0.950 . S
H411 C435 0.950 . S
H412 C436 0.950 . S
H413 C437 0.951 . S
H414 C439 0.951 . S
H415 C441 0.950 . S
H416 C442 0.950 . S
H417 C444 0.950 . S
H418 C447 0.950 . S
H419 C448 0.950 . S
H420 C450 0.950 . S
H421 C451 0.950 . S
C422 H404 0.951 . S
C422 C423 1.366 . S
C422 C424 1.388 . S
C423 C422 1.366 . S
C423 C427 1.385 . S
C424 H405 0.951 . S
C424 C422 1.388 . S
C424 C425 1.366 . S
C425 C424 1.366 . S
C425 C426 1.414 . S
C425 C428 1.499 . S
C426 H406 0.950 . S
C426 C425 1.414 . S
C426 C427 1.374 . S
C427 H407 0.950 . S
C427 C423 1.385 . S
C427 C426 1.374 . S
C428 C425 1.499 . S
C428 C429 1.373 . S
C428 C430 1.389 . S
C429 H408 0.950 . S
C429 C428 1.373 . S
C429 C445 1.377 . S
C430 C428 1.389 . S
C430 C431 1.524 . S
C430 C444 1.377 . S
C431 C430 1.524 . S
C431 C432 1.397 . S
C431 C436 1.363 . S
C432 H409 0.950 . S
C432 C431 1.397 . S
C432 C433 1.334 . S
C433 H410 0.950 . S
C433 C432 1.334 . S
C433 C434 1.287 . S
C434 C433 1.287 . S
C434 C435 1.524 . S
C434 H453 0.913 . S
C435 H411 0.950 . S
C435 C434 1.524 . S
C435 C436 1.415 . S
C436 H412 0.950 . S
C436 C431 1.363 . S
C436 C435 1.415 . S
C437 H413 0.951 . S
C437 C438 1.366 . S
C437 C439 1.388 . S
C438 C437 1.366 . S
C438 C442 1.385 . S
C439 H414 0.951 . S
C439 C437 1.388 . S
C439 C440 1.366 . S
C440 C439 1.366 . S
C440 C441 1.414 . S
C440 C443 1.499 . S
C441 H415 0.950 . S
C441 C440 1.414 . S
C441 C442 1.374 . S
C442 H416 0.950 . S
C442 C438 1.385 . S
C442 C441 1.374 . S
C443 C440 1.499 . S
C443 C444 1.373 . S
C443 C445 1.389 . S
C444 H417 0.950 . S
C444 C430 1.377 . S
C444 C443 1.373 . S
C445 C429 1.377 . S
C445 C443 1.389 . S
C445 C446 1.524 . S
C446 C445 1.524 . S
C446 C447 1.397 . S
C446 C451 1.363 . S
C447 H418 0.950 . S
C447 C446 1.397 . S
C447 C448 1.334 . S
C448 H419 0.950 . S
C448 C447 1.334 . S
C448 C449 1.287 . S
C449 C448 1.287 . S
C449 C450 1.524 . S
C449 H452 0.999 . S
C450 H420 0.950 . S
C450 C449 1.524 . S
C450 C451 1.415 . S
C451 H421 0.950 . S
C451 C446 1.363 . S
C451 C450 1.415 . S
H452 C449 0.999 . S
H453 C434 0.913 . S
H454 C472 0.951 . S
H455 C474 0.951 . S
H456 C476 0.950 . S
H457 C477 0.950 . S
H458 C479 0.950 . S
H459 C482 0.950 . S
H460 C483 0.950 . S
H461 C485 0.950 . S
H462 C486 0.950 . S
H463 C487 0.951 . S
H464 C489 0.951 . S
H465 C491 0.950 . S
H466 C492 0.950 . S
H467 C494 0.950 . S
H468 C497 0.950 . S
H469 C498 0.950 . S
H470 C500 0.950 . S
H471 C501 0.950 . S
C472 H454 0.951 . S
C472 C473 1.366 . S
C472 C474 1.388 . S
C473 C472 1.366 . S
C473 C477 1.385 . S
C474 H455 0.951 . S
C474 C472 1.388 . S
C474 C475 1.366 . S
C475 C474 1.366 . S
C475 C476 1.414 . S
C475 C478 1.499 . S
C476 H456 0.950 . S
C476 C475 1.414 . S
C476 C477 1.374 . S
C477 H457 0.950 . S
C477 C473 1.385 . S
C477 C476 1.374 . S
C478 C475 1.499 . S
C478 C479 1.373 . S
C478 C480 1.389 . S
C479 H458 0.950 . S
C479 C478 1.373 . S
C479 C495 1.377 . S
C480 C478 1.389 . S
C480 C481 1.524 . S
C480 C494 1.377 . S
C481 C480 1.524 . S
C481 C482 1.397 . S
C481 C486 1.363 . S
C482 H459 0.950 . S
C482 C481 1.397 . S
C482 C483 1.334 . S
C483 H460 0.950 . S
C483 C482 1.334 . S
C483 C484 1.287 . S
C484 C483 1.287 . S
C484 C485 1.524 . S
C484 H503 0.913 . S
C485 H461 0.950 . S
C485 C484 1.524 . S
C485 C486 1.415 . S
C486 H462 0.950 . S
C486 C481 1.363 . S
C486 C485 1.415 . S
C487 H463 0.951 . S
C487 C488 1.366 1_545 S
C487 C489 1.388 . S
C488 C487 1.366 1_565 S
C488 C492 1.385 . S
C489 H464 0.951 . S
C489 C487 1.388 . S
C489 C490 1.366 . S
C490 C489 1.366 . S
C490 C491 1.414 . S
C490 C493 1.499 . S
C491 H465 0.950 . S
C491 C490 1.414 . S
C491 C492 1.374 1_545 S
C492 H466 0.950 . S
C492 C488 1.385 . S
C492 C491 1.374 1_565 S
C493 C490 1.499 . S
C493 C494 1.373 . S
C493 C495 1.389 . S
C494 H467 0.950 . S
C494 C480 1.377 . S
C494 C493 1.373 . S
C495 C479 1.377 . S
C495 C493 1.389 . S
C495 C496 1.524 . S
C496 C495 1.524 . S
C496 C497 1.397 . S
C496 C501 1.363 . S
C497 H468 0.950 . S
C497 C496 1.397 . S
C497 C498 1.334 . S
C498 H469 0.950 . S
C498 C497 1.334 . S
C498 C499 1.287 . S
C499 C498 1.287 . S
C499 C500 1.524 . S
C499 H502 0.999 . S
C500 H470 0.950 . S
C500 C499 1.524 . S
C500 C501 1.415 . S
C501 H471 0.950 . S
C501 C496 1.363 . S
C501 C500 1.415 . S
H502 C499 0.999 . S
H503 C484 0.913 . S
H504 C522 0.951 . S
H505 C524 0.951 . S
H506 C526 0.950 . S
H507 C527 0.950 . S
H508 C529 0.950 . S
H509 C532 0.950 . S
H510 C533 0.950 . S
H511 C535 0.950 . S
H512 C536 0.950 . S
H513 C537 0.951 1_455 S
H514 C539 0.951 . S
H515 C541 0.950 . S
H516 C542 0.950 1_455 S
H517 C544 0.950 . S
H518 C547 0.950 . S
H519 C548 0.950 1_455 S
H520 C550 0.950 . S
H521 C551 0.950 . S
C522 H504 0.951 . S
C522 C523 1.366 . S
C522 C524 1.388 . S
C523 C522 1.366 . S
C523 C527 1.385 . S
C524 H505 0.951 . S
C524 C522 1.388 . S
C524 C525 1.366 . S
C525 C524 1.366 . S
C525 C526 1.414 . S
C525 C528 1.499 . S
C526 H506 0.950 . S
C526 C525 1.414 . S
C526 C527 1.374 . S
C527 H507 0.950 . S
C527 C523 1.385 . S
C527 C526 1.374 . S
C528 C525 1.499 . S
C528 C529 1.373 . S
C528 C530 1.389 . S
C529 H508 0.950 . S
C529 C528 1.373 . S
C529 C545 1.377 . S
C530 C528 1.389 . S
C530 C531 1.524 . S
C530 C544 1.377 . S
C531 C530 1.524 . S
C531 C532 1.397 . S
C531 C536 1.363 . S
C532 H509 0.950 . S
C532 C531 1.397 . S
C532 C533 1.334 . S
C533 H510 0.950 . S
C533 C532 1.334 . S
C533 C534 1.287 . S
C534 C533 1.287 . S
C534 C535 1.524 . S
C534 H553 0.913 . S
C535 H511 0.950 . S
C535 C534 1.524 . S
C535 C536 1.415 . S
C536 H512 0.950 . S
C536 C531 1.363 . S
C536 C535 1.415 . S
C537 H513 0.951 1_655 S
C537 C538 1.366 1_655 S
C537 C539 1.388 . S
C538 C537 1.366 1_455 S
C538 C542 1.385 1_455 S
C539 H514 0.951 . S
C539 C537 1.388 . S
C539 C540 1.366 . S
C540 C539 1.366 . S
C540 C541 1.414 . S
C540 C543 1.499 . S
C541 H515 0.950 . S
C541 C540 1.414 . S
C541 C542 1.374 . S
C542 H516 0.950 1_655 S
C542 C538 1.385 1_655 S
C542 C541 1.374 . S
C543 C540 1.499 . S
C543 C544 1.373 . S
C543 C545 1.389 . S
C544 H517 0.950 . S
C544 C530 1.377 . S
C544 C543 1.373 . S
C545 C529 1.377 . S
C545 C543 1.389 . S
C545 C546 1.524 . S
C546 C545 1.524 . S
C546 C547 1.397 . S
C546 C551 1.363 . S
C547 H518 0.950 . S
C547 C546 1.397 . S
C547 C548 1.334 . S
C548 H519 0.950 1_655 S
C548 C547 1.334 . S
C548 C549 1.287 . S
C549 C548 1.287 . S
C549 C550 1.524 . S
C549 H552 0.999 1_655 S
C550 H520 0.950 . S
C550 C549 1.524 . S
C550 C551 1.415 . S
C551 H521 0.950 . S
C551 C546 1.363 . S
C551 C550 1.415 . S
H552 C549 0.999 1_455 S
H553 C534 0.913 . S
H554 C572 0.951 . S
H555 C574 0.951 . S
H556 C576 0.950 . S
H557 C577 0.950 . S
H558 C579 0.950 . S
H559 C582 0.950 . S
H560 C583 0.950 . S
H561 C585 0.950 . S
H562 C586 0.950 . S
H563 C587 0.951 . S
H564 C589 0.951 . S
H565 C591 0.950 . S
H566 C592 0.950 . S
H567 C594 0.950 . S
H568 C597 0.950 . S
H569 C598 0.950 . S
H570 C600 0.950 . S
H571 C601 0.950 . S
C572 H554 0.951 . S
C572 C573 1.366 . S
C572 C574 1.388 . S
C573 C572 1.366 . S
C573 C577 1.385 . S
C574 H555 0.951 . S
C574 C572 1.388 . S
C574 C575 1.366 . S
C575 C574 1.366 . S
C575 C576 1.414 . S
C575 C578 1.499 . S
C576 H556 0.950 . S
C576 C575 1.414 . S
C576 C577 1.374 . S
C577 H557 0.950 . S
C577 C573 1.385 . S
C577 C576 1.374 . S
C578 C575 1.499 . S
C578 C579 1.373 . S
C578 C580 1.389 . S
C579 H558 0.950 . S
C579 C578 1.373 . S
C579 C595 1.377 . S
C580 C578 1.389 . S
C580 C581 1.524 . S
C580 C594 1.377 . S
C581 C580 1.524 . S
C581 C582 1.397 . S
C581 C586 1.363 . S
C582 H559 0.950 . S
C582 C581 1.397 . S
C582 C583 1.334 . S
C583 H560 0.950 . S
C583 C582 1.334 . S
C583 C584 1.287 . S
C584 C583 1.287 . S
C584 C585 1.524 . S
C584 H603 0.913 . S
C585 H561 0.950 . S
C585 C584 1.524 . S
C585 C586 1.415 . S
C586 H562 0.950 . S
C586 C581 1.363 . S
C586 C585 1.415 . S
C587 H563 0.951 . S
C587 C588 1.366 . S
C587 C589 1.388 . S
C588 C587 1.366 . S
C588 C592 1.385 . S
C589 H564 0.951 . S
C589 C587 1.388 . S
C589 C590 1.366 . S
C590 C589 1.366 . S
C590 C591 1.414 . S
C590 C593 1.499 . S
C591 H565 0.950 . S
C591 C590 1.414 . S
C591 C592 1.374 . S
C592 H566 0.950 . S
C592 C588 1.385 . S
C592 C591 1.374 . S
C593 C590 1.499 . S
C593 C594 1.373 . S
C593 C595 1.389 . S
C594 H567 0.950 . S
C594 C580 1.377 . S
C594 C593 1.373 . S
C595 C579 1.377 . S
C595 C593 1.389 . S
C595 C596 1.524 . S
C596 C595 1.524 . S
C596 C597 1.397 . S
C596 C601 1.363 . S
C597 H568 0.950 . S
C597 C596 1.397 . S
C597 C598 1.334 . S
C598 H569 0.950 . S
C598 C597 1.334 . S
C598 C599 1.287 . S
C599 C598 1.287 . S
C599 C600 1.524 . S
C599 H602 0.999 . S
C600 H570 0.950 . S
C600 C599 1.524 . S
C600 C601 1.415 . S
C601 H571 0.950 . S
C601 C596 1.363 . S
C601 C600 1.415 . S
H602 C599 0.999 . S
H603 C584 0.913 . S
H604 C622 0.951 . S
H605 C624 0.951 . S
H606 C626 0.950 . S
H607 C627 0.950 . S
H608 C629 0.950 . S
H609 C632 0.950 . S
H610 C633 0.950 . S
H611 C635 0.950 . S
H612 C636 0.950 . S
H613 C637 0.951 . S
H614 C639 0.951 . S
H615 C641 0.950 . S
H616 C642 0.950 . S
H617 C644 0.950 . S
H618 C647 0.950 . S
H619 C648 0.950 . S
H620 C650 0.950 . S
H621 C651 0.950 . S
C622 H604 0.951 . S
C622 C623 1.366 . S
C622 C624 1.388 . S
C623 C622 1.366 . S
C623 C627 1.385 . S
C624 H605 0.951 . S
C624 C622 1.388 . S
C624 C625 1.366 . S
C625 C624 1.366 . S
C625 C626 1.414 . S
C625 C628 1.499 . S
C626 H606 0.950 . S
C626 C625 1.414 . S
C626 C627 1.374 . S
C627 H607 0.950 . S
C627 C623 1.385 . S
C627 C626 1.374 . S
C628 C625 1.499 . S
C628 C629 1.373 . S
C628 C630 1.389 . S
C629 H608 0.950 . S
C629 C628 1.373 . S
C629 C645 1.377 . S
C630 C628 1.389 . S
C630 C631 1.524 . S
C630 C644 1.377 . S
C631 C630 1.524 . S
C631 C632 1.397 . S
C631 C636 1.363 . S
C632 H609 0.950 . S
C632 C631 1.397 . S
C632 C633 1.334 . S
C633 H610 0.950 . S
C633 C632 1.334 . S
C633 C634 1.287 . S
C634 C633 1.287 . S
C634 C635 1.524 . S
C634 H653 0.913 . S
C635 H611 0.950 . S
C635 C634 1.524 . S
C635 C636 1.415 . S
C636 H612 0.950 . S
C636 C631 1.363 . S
C636 C635 1.415 . S
C637 H613 0.951 . S
C637 C638 1.366 1_455 S
C637 C639 1.388 . S
C638 C637 1.366 1_655 S
C638 C642 1.385 . S
C639 H614 0.951 . S
C639 C637 1.388 . S
C639 C640 1.366 . S
C640 C639 1.366 . S
C640 C641 1.414 . S
C640 C643 1.499 . S
C641 H615 0.950 . S
C641 C640 1.414 . S
C641 C642 1.374 1_455 S
C642 H616 0.950 . S
C642 C638 1.385 . S
C642 C641 1.374 1_655 S
C643 C640 1.499 . S
C643 C644 1.373 . S
C643 C645 1.389 . S
C644 H617 0.950 . S
C644 C630 1.377 . S
C644 C643 1.373 . S
C645 C629 1.377 . S
C645 C643 1.389 . S
C645 C646 1.524 . S
C646 C645 1.524 . S
C646 C647 1.397 . S
C646 C651 1.363 . S
C647 H618 0.950 . S
C647 C646 1.397 . S
C647 C648 1.334 . S
C648 H619 0.950 . S
C648 C647 1.334 . S
C648 C649 1.287 . S
C649 C648 1.287 . S
C649 C650 1.524 . S
C649 H652 0.999 . S
C650 H620 0.950 . S
C650 C649 1.524 . S
C650 C651 1.415 . S
C651 H621 0.950 . S
C651 C646 1.363 . S
C651 C650 1.415 . S
H652 C649 0.999 . S
H653 C634 0.913 . S
H654 C672 0.951 . S
H655 C674 0.951 . S
H656 C676 0.950 . S
H657 C677 0.950 . S
H658 C679 0.950 . S
H659 C682 0.950 . S
H660 C683 0.950 . S
H661 C685 0.950 . S
H662 C686 0.950 . S
H663 C687 0.951 . S
H664 C689 0.951 . S
H665 C691 0.950 . S
H666 C692 0.950 . S
H667 C694 0.950 . S
H668 C697 0.950 . S
H669 C698 0.950 . S
H670 C700 0.950 . S
H671 C701 0.950 . S
C672 H654 0.951 . S
C672 C673 1.366 . S
C672 C674 1.388 . S
C673 C672 1.366 . S
C673 C677 1.385 . S
C674 H655 0.951 . S
C674 C672 1.388 . S
C674 C675 1.366 . S
C675 C674 1.366 . S
C675 C676 1.414 . S
C675 C678 1.499 . S
C676 H656 0.950 . S
C676 C675 1.414 . S
C676 C677 1.374 . S
C677 H657 0.950 . S
C677 C673 1.385 . S
C677 C676 1.374 . S
C678 C675 1.499 . S
C678 C679 1.373 . S
C678 C680 1.389 . S
C679 H658 0.950 . S
C679 C678 1.373 . S
C679 C695 1.377 . S
C680 C678 1.389 . S
C680 C681 1.524 . S
C680 C694 1.377 . S
C681 C680 1.524 . S
C681 C682 1.397 . S
C681 C686 1.363 . S
C682 H659 0.950 . S
C682 C681 1.397 . S
C682 C683 1.334 . S
C683 H660 0.950 . S
C683 C682 1.334 . S
C683 C684 1.287 . S
C684 C683 1.287 . S
C684 C685 1.524 . S
C684 H703 0.913 . S
C685 H661 0.950 . S
C685 C684 1.524 . S
C685 C686 1.415 . S
C686 H662 0.950 . S
C686 C681 1.363 . S
C686 C685 1.415 . S
C687 H663 0.951 . S
C687 C688 1.366 . S
C687 C689 1.388 . S
C688 C687 1.366 . S
C688 C692 1.385 . S
C689 H664 0.951 . S
C689 C687 1.388 . S
C689 C690 1.366 . S
C690 C689 1.366 . S
C690 C691 1.414 . S
C690 C693 1.499 . S
C691 H665 0.950 . S
C691 C690 1.414 . S
C691 C692 1.374 . S
C692 H666 0.950 . S
C692 C688 1.385 . S
C692 C691 1.374 . S
C693 C690 1.499 . S
C693 C694 1.373 . S
C693 C695 1.389 . S
C694 H667 0.950 . S
C694 C680 1.377 . S
C694 C693 1.373 . S
C695 C679 1.377 . S
C695 C693 1.389 . S
C695 C696 1.524 . S
C696 C695 1.524 . S
C696 C697 1.397 . S
C696 C701 1.363 . S
C697 H668 0.950 . S
C697 C696 1.397 . S
C697 C698 1.334 . S
C698 H669 0.950 . S
C698 C697 1.334 . S
C698 C699 1.287 . S
C699 C698 1.287 . S
C699 C700 1.524 . S
C699 H702 0.999 . S
C700 H670 0.950 . S
C700 C699 1.524 . S
C700 C701 1.415 . S
C701 H671 0.950 . S
C701 C696 1.363 . S
C701 C700 1.415 . S
H702 C699 0.999 . S
H703 C684 0.913 . S
H704 C722 0.951 . S
H705 C724 0.951 . S
H706 C726 0.950 . S
H707 C727 0.950 . S
H708 C729 0.950 . S
H709 C732 0.950 . S
H710 C733 0.950 . S
H711 C735 0.950 . S
H712 C736 0.950 . S
H713 C737 0.951 . S
H714 C739 0.951 . S
H715 C741 0.950 . S
H716 C742 0.950 . S
H717 C744 0.950 . S
H718 C747 0.950 . S
H719 C748 0.950 . S
H720 C750 0.950 . S
H721 C751 0.950 . S
C722 H704 0.951 . S
C722 C723 1.366 . S
C722 C724 1.388 . S
C723 C722 1.366 . S
C723 C727 1.385 . S
C724 H705 0.951 . S
C724 C722 1.388 . S
C724 C725 1.366 . S
C725 C724 1.366 . S
C725 C726 1.414 . S
C725 C728 1.499 . S
C726 H706 0.950 . S
C726 C725 1.414 . S
C726 C727 1.374 . S
C727 H707 0.950 . S
C727 C723 1.385 . S
C727 C726 1.374 . S
C728 C725 1.499 . S
C728 C729 1.373 . S
C728 C730 1.389 1_655 S
C729 H708 0.950 . S
C729 C728 1.373 . S
C729 C745 1.377 . S
C730 C728 1.389 1_455 S
C730 C731 1.524 . S
C730 C744 1.377 . S
C731 C730 1.524 . S
C731 C732 1.397 . S
C731 C736 1.363 . S
C732 H709 0.950 . S
C732 C731 1.397 . S
C732 C733 1.334 . S
C733 H710 0.950 . S
C733 C732 1.334 . S
C733 C734 1.287 . S
C734 C733 1.287 . S
C734 C735 1.524 . S
C734 H753 0.913 . S
C735 H711 0.950 . S
C735 C734 1.524 . S
C735 C736 1.415 . S
C736 H712 0.950 . S
C736 C731 1.363 . S
C736 C735 1.415 . S
C737 H713 0.951 . S
C737 C738 1.366 . S
C737 C739 1.388 . S
C738 C737 1.366 . S
C738 C742 1.385 . S
C739 H714 0.951 . S
C739 C737 1.388 . S
C739 C740 1.366 . S
C740 C739 1.366 . S
C740 C741 1.414 . S
C740 C743 1.499 . S
C741 H715 0.950 . S
C741 C740 1.414 . S
C741 C742 1.374 . S
C742 H716 0.950 . S
C742 C738 1.385 . S
C742 C741 1.374 . S
C743 C740 1.499 . S
C743 C744 1.373 . S
C743 C745 1.389 1_455 S
C744 H717 0.950 . S
C744 C730 1.377 . S
C744 C743 1.373 . S
C745 C729 1.377 . S
C745 C743 1.389 1_655 S
C745 C746 1.524 . S
C746 C745 1.524 . S
C746 C747 1.397 . S
C746 C751 1.363 . S
C747 H718 0.950 . S
C747 C746 1.397 . S
C747 C748 1.334 . S
C748 H719 0.950 . S
C748 C747 1.334 . S
C748 C749 1.287 . S
C749 C748 1.287 . S
C749 C750 1.524 . S
C749 H752 0.999 . S
C750 H720 0.950 . S
C750 C749 1.524 . S
C750 C751 1.415 . S
C751 H721 0.950 . S
C751 C746 1.363 . S
C751 C750 1.415 . S
H752 C749 0.999 . S
H753 C734 0.913 . S
H754 C772 0.951 . S
H755 C774 0.951 . S
H756 C776 0.950 . S
H757 C777 0.950 . S
H758 C779 0.950 . S
H759 C782 0.950 . S
H760 C783 0.950 . S
H761 C785 0.950 . S
H762 C786 0.950 . S
H763 C787 0.951 . S
H764 C789 0.951 . S
H765 C791 0.950 . S
H766 C792 0.950 . S
H767 C794 0.950 . S
H768 C797 0.950 . S
H769 C798 0.950 . S
H770 C800 0.950 . S
H771 C801 0.950 . S
C772 H754 0.951 . S
C772 C773 1.366 . S
C772 C774 1.388 . S
C773 C772 1.366 . S
C773 C777 1.385 . S
C774 H755 0.951 . S
C774 C772 1.388 . S
C774 C775 1.366 . S
C775 C774 1.366 . S
C775 C776 1.414 . S
C775 C778 1.499 . S
C776 H756 0.950 . S
C776 C775 1.414 . S
C776 C777 1.374 . S
C777 H757 0.950 . S
C777 C773 1.385 . S
C777 C776 1.374 . S
C778 C775 1.499 . S
C778 C779 1.373 . S
C778 C780 1.389 . S
C779 H758 0.950 . S
C779 C778 1.373 . S
C779 C795 1.377 1_655 S
C780 C778 1.389 . S
C780 C781 1.524 . S
C780 C794 1.377 1_655 S
C781 C780 1.524 . S
C781 C782 1.397 . S
C781 C786 1.363 1_655 S
C782 H759 0.950 . S
C782 C781 1.397 . S
C782 C783 1.334 . S
C783 H760 0.950 . S
C783 C782 1.334 . S
C783 C784 1.287 . S
C784 C783 1.287 . S
C784 C785 1.524 1_655 S
C784 H803 0.913 . S
C785 H761 0.950 . S
C785 C784 1.524 1_455 S
C785 C786 1.415 . S
C786 H762 0.950 . S
C786 C781 1.363 1_455 S
C786 C785 1.415 . S
C787 H763 0.951 . S
C787 C788 1.366 . S
C787 C789 1.388 . S
C788 C787 1.366 . S
C788 C792 1.385 . S
C789 H764 0.951 . S
C789 C787 1.388 . S
C789 C790 1.366 . S
C790 C789 1.366 . S
C790 C791 1.414 . S
C790 C793 1.499 . S
C791 H765 0.950 . S
C791 C790 1.414 . S
C791 C792 1.374 . S
C792 H766 0.950 . S
C792 C788 1.385 . S
C792 C791 1.374 . S
C793 C790 1.499 . S
C793 C794 1.373 . S
C793 C795 1.389 . S
C794 H767 0.950 . S
C794 C780 1.377 1_455 S
C794 C793 1.373 . S
C795 C779 1.377 1_455 S
C795 C793 1.389 . S
C795 C796 1.524 . S
C796 C795 1.524 . S
C796 C797 1.397 . S
C796 C801 1.363 1_455 S
C797 H768 0.950 . S
C797 C796 1.397 . S
C797 C798 1.334 . S
C798 H769 0.950 . S
C798 C797 1.334 . S
C798 C799 1.287 . S
C799 C798 1.287 . S
C799 C800 1.524 1_455 S
C799 H802 0.999 . S
C800 H770 0.950 . S
C800 C799 1.524 1_655 S
C800 C801 1.415 . S
C801 H771 0.950 . S
C801 C796 1.363 1_655 S
C801 C800 1.415 . S
H802 C799 0.999 . S
H803 C784 0.913 . S
H804 C822 0.951 . S
H805 C824 0.951 . S
H806 C826 0.950 . S
H807 C827 0.950 . S
H808 C829 0.950 . S
H809 C832 0.950 . S
H810 C833 0.950 . S
H811 C835 0.950 . S
H812 C836 0.950 . S
H813 C837 0.951 . S
H814 C839 0.951 . S
H815 C841 0.950 . S
H816 C842 0.950 . S
H817 C844 0.950 . S
H818 C847 0.950 . S
H819 C848 0.950 . S
H820 C850 0.950 . S
H821 C851 0.950 . S
C822 H804 0.951 . S
C822 C823 1.366 . S
C822 C824 1.388 . S
C823 C822 1.366 . S
C823 C827 1.385 . S
C824 H805 0.951 . S
C824 C822 1.388 . S
C824 C825 1.366 . S
C825 C824 1.366 . S
C825 C826 1.414 . S
C825 C828 1.499 . S
C826 H806 0.950 . S
C826 C825 1.414 . S
C826 C827 1.374 . S
C827 H807 0.950 . S
C827 C823 1.385 . S
C827 C826 1.374 . S
C828 C825 1.499 . S
C828 C829 1.373 . S
C828 C830 1.389 . S
C829 H808 0.950 . S
C829 C828 1.373 . S
C829 C845 1.377 1_545 S
C830 C828 1.389 . S
C830 C831 1.524 . S
C830 C844 1.377 1_545 S
C831 C830 1.524 . S
C831 C832 1.397 . S
C831 C836 1.363 1_545 S
C832 H809 0.950 . S
C832 C831 1.397 . S
C832 C833 1.334 . S
C833 H810 0.950 . S
C833 C832 1.334 . S
C833 C834 1.287 . S
C834 C833 1.287 . S
C834 C835 1.524 1_545 S
C834 H853 0.913 . S
C835 H811 0.950 . S
C835 C834 1.524 1_565 S
C835 C836 1.415 . S
C836 H812 0.950 . S
C836 C831 1.363 1_565 S
C836 C835 1.415 . S
C837 H813 0.951 . S
C837 C838 1.366 . S
C837 C839 1.388 . S
C838 C837 1.366 . S
C838 C842 1.385 . S
C839 H814 0.951 . S
C839 C837 1.388 . S
C839 C840 1.366 . S
C840 C839 1.366 . S
C840 C841 1.414 . S
C840 C843 1.499 . S
C841 H815 0.950 . S
C841 C840 1.414 . S
C841 C842 1.374 . S
C842 H816 0.950 . S
C842 C838 1.385 . S
C842 C841 1.374 . S
C843 C840 1.499 . S
C843 C844 1.373 . S
C843 C845 1.389 . S
C844 H817 0.950 . S
C844 C830 1.377 1_565 S
C844 C843 1.373 . S
C845 C829 1.377 1_565 S
C845 C843 1.389 . S
C845 C846 1.524 . S
C846 C845 1.524 . S
C846 C847 1.397 . S
C846 C851 1.363 1_565 S
C847 H818 0.950 . S
C847 C846 1.397 . S
C847 C848 1.334 . S
C848 H819 0.950 . S
C848 C847 1.334 . S
C848 C849 1.287 . S
C849 C848 1.287 . S
C849 C850 1.524 1_565 S
C849 H852 0.999 . S
C850 H820 0.950 . S
C850 C849 1.524 1_545 S
C850 C851 1.415 . S
C851 H821 0.950 . S
C851 C846 1.363 1_545 S
C851 C850 1.415 . S
H852 C849 0.999 . S
H853 C834 0.913 . S
H854 C872 0.951 . S
H855 C874 0.951 1_565 S
H856 C876 0.950 . S
H857 C877 0.950 . S
H858 C879 0.950 . S
H859 C882 0.950 . S
H860 C883 0.950 . S
H861 C885 0.950 . S
H862 C886 0.950 . S
H863 C887 0.951 . S
H864 C889 0.951 1_545 S
H865 C891 0.950 . S
H866 C892 0.950 . S
H867 C894 0.950 . S
H868 C897 0.950 . S
H869 C898 0.950 . S
H870 C900 0.950 . S
H871 C901 0.950 . S
C872 H854 0.951 . S
C872 C873 1.366 . S
C872 C874 1.388 . S
C873 C872 1.366 . S
C873 C877 1.385 . S
C874 H855 0.951 1_545 S
C874 C872 1.388 . S
C874 C875 1.366 . S
C875 C874 1.366 . S
C875 C876 1.414 . S
C875 C878 1.499 . S
C876 H856 0.950 . S
C876 C875 1.414 . S
C876 C877 1.374 . S
C877 H857 0.950 . S
C877 C873 1.385 . S
C877 C876 1.374 . S
C878 C875 1.499 . S
C878 C879 1.373 . S
C878 C880 1.389 1_545 S
C879 H858 0.950 . S
C879 C878 1.373 . S
C879 C895 1.377 . S
C880 C878 1.389 1_565 S
C880 C881 1.524 . S
C880 C894 1.377 . S
C881 C880 1.524 . S
C881 C882 1.397 1_565 S
C881 C886 1.363 . S
C882 H859 0.950 . S
C882 C881 1.397 1_545 S
C882 C883 1.334 . S
C883 H860 0.950 . S
C883 C882 1.334 . S
C883 C884 1.287 1_545 S
C884 C883 1.287 1_565 S
C884 C885 1.524 . S
C884 H903 0.913 . S
C885 H861 0.950 . S
C885 C884 1.524 . S
C885 C886 1.415 . S
C886 H862 0.950 . S
C886 C881 1.363 . S
C886 C885 1.415 . S
C887 H863 0.951 . S
C887 C888 1.366 . S
C887 C889 1.388 . S
C888 C887 1.366 . S
C888 C892 1.385 . S
C889 H864 0.951 1_565 S
C889 C887 1.388 . S
C889 C890 1.366 . S
C890 C889 1.366 . S
C890 C891 1.414 . S
C890 C893 1.499 . S
C891 H865 0.950 . S
C891 C890 1.414 . S
C891 C892 1.374 . S
C892 H866 0.950 . S
C892 C888 1.385 . S
C892 C891 1.374 . S
C893 C890 1.499 . S
C893 C894 1.373 . S
C893 C895 1.389 1_565 S
C894 H867 0.950 . S
C894 C880 1.377 . S
C894 C893 1.373 . S
C895 C879 1.377 . S
C895 C893 1.389 1_545 S
C895 C896 1.524 . S
C896 C895 1.524 . S
C896 C897 1.397 1_545 S
C896 C901 1.363 . S
C897 H868 0.950 . S
C897 C896 1.397 1_565 S
C897 C898 1.334 . S
C898 H869 0.950 . S
C898 C897 1.334 . S
C898 C899 1.287 1_565 S
C899 C898 1.287 1_545 S
C899 C900 1.524 . S
C899 H902 0.999 . S
C900 H870 0.950 . S
C900 C899 1.524 . S
C900 C901 1.415 . S
C901 H871 0.950 . S
C901 C896 1.363 . S
C901 C900 1.415 . S
H902 C899 0.999 . S
H903 C884 0.913 . S
C123 C8 1.206 . S
C138 C73 1.205 . S
C173 C21 1.204 . S
C188 C86 1.205 . S
C223 C34 1.205 . S
C238 C99 1.206 . S
C273 C60 1.205 . S
C288 C47 1.206 . S
C323 C0 1.483 . S
C338 C62 1.472 . S
C373 C13 1.483 . S
C388 C75 1.471 . S
C423 C88 1.471 . S
C438 C26 1.483 . S
C473 C39 1.483 . S
C488 C101 1.472 . S
C523 C52 1.483 . S
C538 C10 1.471 . S
C573 C23 1.471 . S
C588 C65 1.483 . S
C623 C78 1.483 . S
C638 C36 1.471 . S
C673 C49 1.471 . S
C688 C91 1.483 . S
C723 C31 0.439 . S
C738 C5 0.440 . S
C773 C44 0.437 . S
C788 C18 0.436 . S
C823 C57 0.438 . S
C838 C83 0.437 . S
C873 C70 0.438 . S
C888 C96 0.439 . S
