# Generated by pormake.
# Topology zft, (5)-cn, num edge types: 1
# Building blocks:
#     Node 0, Type 0, BuildingBlock: XOMCOT_clean_sbu_1, # of connection points: 5
#     Node 1, Type 0, BuildingBlock: XOMCOT_clean_sbu_1, # of connection points: 5
#     Node 2, Type 0, BuildingBlock: XOMCOT_clean_sbu_1, # of connection points: 5
#     Node 3, Type 0, BuildingBlock: XOMCOT_clean_sbu_1, # of connection points: 5
#     Node 4, Type 0, BuildingBlock: XOMCOT_clean_sbu_1, # of connection points: 5
#     Node 5, Type 0, BuildingBlock: XOMCOT_clean_sbu_1, # of connection points: 5
#     Node 6, Type 0, BuildingBlock: XOMCOT_clean_sbu_1, # of connection points: 5
#     Node 7, Type 0, BuildingBlock: XOMCOT_clean_sbu_1, # of connection points: 5
#     Edge 8, Type (0, 0), BuildingBlock: KIFKEQ_clean_linker_1, # of connection points: 2
#     Edge 9, Type (0, 0), BuildingBlock: KIFKEQ_clean_linker_1, # of connection points: 2
#     Edge 10, Type (0, 0), BuildingBlock: KIFKEQ_clean_linker_1, # of connection points: 2
#     Edge 11, Type (0, 0), BuildingBlock: KIFKEQ_clean_linker_1, # of connection points: 2
#     Edge 12, Type (0, 0), BuildingBlock: KIFKEQ_clean_linker_1, # of connection points: 2
#     Edge 13, Type (0, 0), BuildingBlock: KIFKEQ_clean_linker_1, # of connection points: 2
#     Edge 14, Type (0, 0), BuildingBlock: KIFKEQ_clean_linker_1, # of connection points: 2
#     Edge 15, Type (0, 0), BuildingBlock: KIFKEQ_clean_linker_1, # of connection points: 2
#     Edge 16, Type (0, 0), BuildingBlock: KIFKEQ_clean_linker_1, # of connection points: 2
#     Edge 17, Type (0, 0), BuildingBlock: KIFKEQ_clean_linker_1, # of connection points: 2
#     Edge 18, Type (0, 0), BuildingBlock: KIFKEQ_clean_linker_1, # of connection points: 2
#     Edge 19, Type (0, 0), BuildingBlock: KIFKEQ_clean_linker_1, # of connection points: 2
#     Edge 20, Type (0, 0), BuildingBlock: KIFKEQ_clean_linker_1, # of connection points: 2
#     Edge 21, Type (0, 0), BuildingBlock: KIFKEQ_clean_linker_1, # of connection points: 2
#     Edge 22, Type (0, 0), BuildingBlock: KIFKEQ_clean_linker_1, # of connection points: 2
#     Edge 23, Type (0, 0), BuildingBlock: KIFKEQ_clean_linker_1, # of connection points: 2
#     Edge 24, Type (0, 0), BuildingBlock: KIFKEQ_clean_linker_1, # of connection points: 2
#     Edge 25, Type (0, 0), BuildingBlock: KIFKEQ_clean_linker_1, # of connection points: 2
#     Edge 26, Type (0, 0), BuildingBlock: KIFKEQ_clean_linker_1, # of connection points: 2
#     Edge 27, Type (0, 0), BuildingBlock: KIFKEQ_clean_linker_1, # of connection points: 2
# Relax obj value: 0.082
# Max RMSD: 0.115
# Mean RMSD: 0.115
data_MOF--net-zft--node1-XOMCOT_clean_sbu_1--edge1-KIFKEQ_clean_linker_1
_symmetry_space_group_name_H-M    P1
_symmetry_Int_Tables_number       1
_symmetry_cell_setting            triclinic
loop_
_symmetry_equiv_pos_as_xyz
'x, y, z'
_cell_length_a     29.903516
_cell_length_b     29.948761
_cell_length_c     44.896222
_cell_angle_alpha  89.607275
_cell_angle_beta   89.731381
_cell_angle_gamma 89.994248
loop_
_atom_site_label
_atom_site_type_symbol
_atom_site_fract_x
_atom_site_fract_y
_atom_site_fract_z
_atom_type_partial_charge
C0 C 0.09236 0.2593 0.30839 0.0
C1 C 0.05589 0.23478 0.31725 0.0
N2 N 0.0318 0.22418 0.29298 0.0
N3 N 0.0917 0.26476 0.2786 0.0
C4 C 0.05443 0.2429 0.26975 0.0
H5 H 0.11885 0.27048 0.3228 0.0
Co6 Co 0.13874 0.291 0.25697 0.0
C7 C 0.0946 0.34052 0.20511 0.0
O8 O 0.13258 0.35302 0.19304 0.0
N9 N 0.18806 0.31693 0.23664 0.0
C10 C 0.25413 0.32508 0.21425 0.0
C11 C 0.22388 0.29494 0.22567 0.0
C12 C 0.19868 0.36064 0.23295 0.0
N13 N 0.23807 0.36661 0.21847 0.0
O14 O 0.13514 0.34275 0.28222 0.0
H15 H 0.22838 0.25915 0.22626 0.0
H16 H 0.17679 0.38754 0.23969 0.0
O17 O 0.09414 0.31667 0.22897 0.0
C18 C 0.16566 0.34284 0.30201 0.0
O19 O 0.19517 0.31029 0.30181 0.0
N20 N 0.14413 0.23865 0.23425 0.0
C21 C 0.16462 0.1584 0.20599 0.0
C22 C 0.14957 0.1954 0.18952 0.0
C23 C 0.13931 0.23529 0.2041 0.0
C24 C 0.15821 0.20284 0.25059 0.0
C25 C 0.16824 0.1623 0.23698 0.0
H26 H 0.12948 0.26364 0.19085 0.0
H27 H 0.16297 0.20621 0.27434 0.0
H28 H 0.04518 0.23951 0.24662 0.0
H29 H 0.04928 0.22365 0.3398 0.0
H30 H 0.28574 0.31677 0.20388 0.0
H31 H 0.14633 0.19371 0.16554 0.0
H32 H 0.18041 0.13481 0.25048 0.0
C33 C 0.27684 0.61438 0.55796 0.0
C34 C 0.30525 0.58354 0.5705 0.0
N35 N 0.30373 0.54589 0.55426 0.0
N36 N 0.25686 0.59642 0.53402 0.0
C37 C 0.27386 0.55454 0.53237 0.0
H38 H 0.27305 0.64861 0.56497 0.0
Co39 Co 0.22199 0.62892 0.50687 0.0
C40 C 0.17384 0.56003 0.47399 0.0
O41 O 0.13626 0.57826 0.48307 0.0
N42 N 0.18762 0.66153 0.47893 0.0
C43 C 0.16365 0.68361 0.43439 0.0
C44 C 0.1964 0.66114 0.44936 0.0
C45 C 0.14884 0.68486 0.48127 0.0
N46 N 0.13337 0.6982 0.4543 0.0
O47 O 0.16955 0.61803 0.53129 0.0
H48 H 0.22395 0.6438 0.43894 0.0
H49 H 0.13106 0.68996 0.502 0.0
O50 O 0.21113 0.5756 0.4831 0.0
C51 C 0.16579 0.64524 0.55292 0.0
O52 O 0.19504 0.67769 0.55529 0.0
N53 N 0.27417 0.64258 0.48543 0.0
C54 C 0.35188 0.67263 0.45692 0.0
C55 C 0.33852 0.62772 0.45494 0.0
C56 C 0.29969 0.61323 0.4696 0.0
C57 C 0.28691 0.68599 0.48806 0.0
C58 C 0.32549 0.70178 0.47393 0.0
H59 H 0.29038 0.57851 0.46824 0.0
H60 H 0.26685 0.70849 0.50133 0.0
H61 H 0.26682 0.53185 0.51435 0.0
H62 H 0.3265 0.5891 0.58956 0.0
H63 H 0.16176 0.68795 0.41047 0.0
H64 H 0.35771 0.60396 0.44207 0.0
H65 H 0.33491 0.73638 0.47681 0.0
C66 C 0.91966 0.76723 0.80854 0.0
C67 C 0.95637 0.79055 0.81769 0.0
N68 N 0.98764 0.78954 0.79594 0.0
N69 N 0.92706 0.75097 0.78112 0.0
C70 C 0.96875 0.76524 0.77382 0.0
H71 H 0.88853 0.76428 0.82067 0.0
Co72 Co 0.88125 0.72215 0.76082 0.0
C73 C 0.91907 0.68956 0.70316 0.0
O74 O 0.88054 0.69739 0.6902 0.0
N75 N 0.83289 0.69301 0.74198 0.0
C76 C 0.76512 0.67669 0.72487 0.0
C77 C 0.79126 0.7091 0.7373 0.0
C78 C 0.83035 0.6498 0.73321 0.0
N79 N 0.78974 0.63937 0.72204 0.0
O80 O 0.8898 0.66956 0.78523 0.0
H81 H 0.77932 0.74174 0.74323 0.0
H82 H 0.85814 0.62674 0.7345 0.0
O83 O 0.92435 0.69901 0.73079 0.0
C84 C 0.86416 0.66808 0.80802 0.0
O85 O 0.83505 0.70038 0.81196 0.0
N86 N 0.87114 0.77558 0.7391 0.0
C87 C 0.84492 0.85546 0.71189 0.0
C88 C 0.88194 0.83166 0.70113 0.0
C89 C 0.89494 0.79194 0.71532 0.0
C90 C 0.83851 0.8011 0.75171 0.0
C91 C 0.82384 0.84036 0.73798 0.0
H92 H 0.92435 0.77513 0.70722 0.0
H93 H 0.82255 0.78988 0.7721 0.0
H94 H 0.98411 0.75921 0.75239 0.0
H95 H 0.95843 0.8089 0.83829 0.0
H96 H 0.7302 0.68017 0.71908 0.0
H97 H 0.90017 0.84322 0.68165 0.0
H98 H 0.7963 0.85879 0.7477 0.0
C99 C 0.744 0.42082 0.06184 0.0
C100 C 0.71988 0.45766 0.07005 0.0
N101 N 0.71476 0.48416 0.04596 0.0
N102 N 0.75473 0.42384 1.03272 0.0
C103 C 0.73605 0.46274 1.02347 0.0
H104 H 0.75202 0.3929 0.07618 0.0
Co105 Co 0.78551 0.37826 1.01328 0.0
C106 C 0.8199 0.41643 0.9557 0.0
O107 O 0.81475 0.37753 0.94282 0.0
N108 N 0.81687 0.33063 0.99528 0.0
C109 C 0.83786 0.26265 0.98098 0.0
C110 C 0.80316 0.28797 0.99175 0.0
C111 C 0.86061 0.32985 0.98719 0.0
N112 N 0.8739 0.2891 0.978 0.0
O113 O 0.83679 0.38876 1.03806 0.0
H114 H 0.77062 0.275 0.99744 0.0
H115 H 0.8825 0.35856 0.98843 0.0
O116 O 0.80851 0.42144 0.98309 0.0
C117 C 0.8388 0.36176 0.06013 0.0
O118 O 0.80776 0.33091 0.06288 0.0
N119 N 0.73345 0.36585 0.99125 0.0
C120 C 0.65538 0.3354 0.96393 0.0
C121 C 0.67924 0.37193 0.95211 0.0
C122 C 0.71783 0.38712 0.96636 0.0
C123 C 0.70835 0.33336 1.00454 0.0
C124 C 0.66992 0.31686 0.99099 0.0
H125 H 0.73425 0.41627 0.95742 0.0
H126 H 0.71936 0.3189 1.02541 0.0
H127 H 0.73748 0.47478 1.00071 0.0
H128 H 0.70557 0.46353 0.09187 0.0
H129 H 0.83664 0.22745 0.97571 0.0
H130 H 0.66802 0.38898 0.93216 0.0
H131 H 0.65257 0.28904 1.00133 0.0
C132 C 0.58403 0.26014 0.53524 0.0
C133 C 0.54746 0.28626 0.52916 0.0
N134 N 0.52733 0.29684 0.55508 0.0
N135 N 0.58713 0.25362 0.56488 0.0
C136 C 0.55217 0.27663 0.57647 0.0
H137 H 0.60777 0.24808 0.51898 0.0
Co138 Co 0.63466 0.2233 0.58294 0.0
C139 C 0.59757 0.1837 0.63973 0.0
O140 O 0.63673 0.18549 0.65278 0.0
N141 N 0.68383 0.19275 0.59985 0.0
C142 C 0.75304 0.17493 0.61375 0.0
C143 C 0.72568 0.20868 0.60375 0.0
C144 C 0.6871 0.14878 0.60694 0.0
N145 N 0.72863 0.13737 0.61592 0.0
O146 O 0.62439 0.17269 0.55754 0.0
H147 H 0.73643 0.24236 0.59904 0.0
H148 H 0.65954 0.12549 0.60539 0.0
O149 O 0.59292 0.19859 0.61307 0.0
C150 C 0.65231 0.17133 0.53596 0.0
O151 O 0.6829 0.20278 0.53417 0.0
N152 N 0.64705 0.27472 0.6054 0.0
C153 C 0.67664 0.35437 0.63077 0.0
C154 C 0.64612 0.32667 0.64594 0.0
C155 C 0.63122 0.28721 0.63271 0.0
C156 C 0.67466 0.30248 0.58972 0.0
C157 C 0.69036 0.34205 0.60207 0.0
H158 H 0.60648 0.26778 0.6444 0.0
H159 H 0.68568 0.29295 0.56767 0.0
H160 H 0.54564 0.27926 0.60012 0.0
H161 H 0.53778 0.29831 0.50735 0.0
H162 H 0.78812 0.17787 0.61925 0.0
H163 H 0.63328 0.33574 0.66767 0.0
H164 H 0.71379 0.36226 0.5894 0.0
C165 C 0.22578 0.10368 0.78838 0.0
C166 C 0.20186 0.06755 0.77904 0.0
N167 N 0.21289 0.03196 0.79603 0.0
N168 N 0.25221 0.09163 0.81122 0.0
C169 C 0.24356 0.04763 0.81564 0.0
H170 H 0.22285 0.13731 0.77973 0.0
Co171 Co 0.28621 0.13563 0.82947 0.0
C172 C 0.3144 0.09935 0.88825 0.0
O173 O 0.30618 0.13873 0.8998 0.0
N174 N 0.32065 0.18229 0.84599 0.0
C175 C 0.34719 0.25049 0.85464 0.0
C176 C 0.31162 0.22648 0.84421 0.0
C177 C 0.36298 0.18068 0.85676 0.0
N178 N 0.37947 0.2217 0.86258 0.0
O179 O 0.33659 0.12104 0.80471 0.0
H180 H 0.28231 0.24131 0.83454 0.0
H181 H 0.38199 0.15013 0.85926 0.0
O182 O 0.3072 0.09295 0.86042 0.0
C183 C 0.33687 0.14106 0.77955 0.0
O184 O 0.30359 0.16791 0.77295 0.0
N185 N 0.23485 0.15153 0.85191 0.0
C186 C 0.15622 0.18126 0.87957 0.0
C187 C 0.17691 0.14134 0.88867 0.0
C188 C 0.21559 0.12655 0.87411 0.0
C189 C 0.21257 0.18765 0.84085 0.0
C190 C 0.17422 0.20397 0.85484 0.0
H191 H 0.22896 0.09439 0.88029 0.0
H192 H 0.22421 0.2036 0.82061 0.0
H193 H 0.25872 0.02785 0.83313 0.0
H194 H 0.17659 0.06826 0.76188 0.0
H195 H 0.34938 0.28652 0.85588 0.0
H196 H 0.16278 0.12101 0.90638 0.0
H197 H 0.15904 0.23419 0.84624 0.0
C198 C 0.4269 0.76381 1.03171 0.0
C199 C 0.46393 0.73998 1.0232 0.0
N200 N 0.487 0.72856 0.04779 0.0
N201 N 0.42645 0.76806 0.06158 0.0
C202 C 0.46355 0.74611 0.07083 0.0
H203 H 0.4009 0.77549 1.01699 0.0
Co204 Co 0.37873 0.79344 0.08249 0.0
C205 C 0.41509 0.82977 0.13947 0.0
O206 O 0.37609 0.82319 0.15234 0.0
N207 N 0.32897 0.81917 0.10237 0.0
C208 C 0.26353 0.83052 0.12492 0.0
C209 C 0.2919 0.799 0.11331 0.0
C210 C 0.32168 0.86322 0.10724 0.0
N211 N 0.28221 0.87108 0.12111 0.0
O212 O 0.3839 0.8468 0.05814 0.0
H213 H 0.28525 0.76365 0.11315 0.0
H214 H 0.34513 0.88903 0.10076 0.0
O215 O 0.42084 0.81855 0.11215 0.0
C216 C 0.35465 0.84859 1.03752 0.0
O217 O 0.3253 0.81602 1.03592 0.0
N218 N 0.37178 0.7392 0.10381 0.0
C219 C 0.35044 0.65594 0.12881 0.0
C220 C 0.38191 0.684 0.14232 0.0
C221 C 0.3926 0.72524 0.12927 0.0
C222 C 0.34353 0.71109 0.08935 0.0
C223 C 0.33182 0.66974 0.10162 0.0
H224 H 0.4182 0.74493 0.13958 0.0
H225 H 0.32858 0.7218 0.06859 0.0
H226 H 0.47247 0.74201 0.094 0.0
H227 H 0.4718 0.72969 1.00072 0.0
H228 H 0.23187 0.82371 0.13577 0.0
H229 H 0.39862 0.67396 0.16264 0.0
H230 H 0.30747 0.64937 0.09021 0.0
C231 C 0.75485 0.92903 0.28083 0.0
C232 C 0.78185 0.9635 0.27167 0.0
N233 N 0.79374 0.98715 0.29574 0.0
N234 N 0.7492 0.93074 0.31061 0.0
C235 C 0.7732 0.96685 0.31915 0.0
H236 H 0.74219 0.90294 0.2667 0.0
Co237 Co 0.72196 0.88416 0.33185 0.0
C238 C 0.68567 0.92155 0.38861 0.0
O239 O 0.69195 0.8827 0.40167 0.0
N240 N 0.6946 0.83532 0.3519 0.0
C241 C 0.68208 0.77023 0.37471 0.0
C242 C 0.714 0.79748 0.36216 0.0
C243 C 0.65045 0.82941 0.35782 0.0
N244 N 0.64209 0.79038 0.37209 0.0
O245 O 0.66906 0.89065 0.30754 0.0
H246 H 0.74907 0.78948 0.36072 0.0
H247 H 0.6251 0.85401 0.35261 0.0
O248 O 0.69738 0.92705 0.36127 0.0
C249 C 0.66605 0.86104 0.2873 0.0
O250 O 0.69716 0.83007 0.28601 0.0
N251 N 0.7757 0.8759 0.35321 0.0
C252 C 0.85759 0.8509 0.37811 0.0
C253 C 0.83002 0.88219 0.39231 0.0
C254 C 0.78953 0.89497 0.37919 0.0
C255 C 0.80352 0.84784 0.33819 0.0
C256 C 0.84425 0.83445 0.35034 0.0
H257 H 0.77027 0.92053 0.38996 0.0
H258 H 0.79296 0.83429 0.31708 0.0
H259 H 0.77798 0.97626 0.34215 0.0
H260 H 0.79323 0.96974 0.24909 0.0
H261 H 0.68789 0.73776 0.38471 0.0
H262 H 0.83986 0.89702 0.41321 0.0
H263 H 0.86442 0.81034 0.33844 0.0
H264 H 0.10923 0.4142 0.31181 0.0
H265 H 0.22501 0.34663 0.34756 0.0
H266 H 0.11138 0.46678 0.35335 0.0
H267 H 0.22636 0.39778 0.38909 0.0
H268 H 0.2448 0.52268 0.44429 0.0
H269 H 0.24266 0.47279 0.40181 0.0
H270 H 0.09832 0.47068 0.40643 0.0
H271 H 0.10044 0.52178 0.4484 0.0
C272 C 0.13509 0.41057 0.32846 0.0
C273 C 0.16695 0.37624 0.32627 0.0
C274 C 0.13616 0.44047 0.3524 0.0
C275 C 0.16909 0.43661 0.37466 0.0
C276 C 0.20098 0.40237 0.37222 0.0
C277 C 0.19999 0.37276 0.34837 0.0
C278 C 0.2126 0.51147 0.43639 0.0
C279 C 0.17283 0.52635 0.44986 0.0
C280 C 0.21133 0.48266 0.412 0.0
C281 C 0.17027 0.46769 0.40052 0.0
C282 C 0.13051 0.48208 0.41429 0.0
C283 C 0.13178 0.51104 0.43861 0.0
H284 H 0.00699 0.71434 0.70675 0.0
H285 H 0.91622 0.63289 0.65635 0.0
H286 H 0.06635 0.69877 0.67104 0.0
H287 H 0.97604 0.61426 0.62167 0.0
H288 H 0.07583 0.63365 0.54467 0.0
H289 H 0.01705 0.64024 0.58234 0.0
H290 H 0.11801 0.65274 0.65061 0.0
H291 H 0.17587 0.64969 0.61248 0.0
C292 C 1.00017 0.69201 0.68845 0.0
C293 C 0.95702 0.67492 0.6843 0.0
C294 C 0.03431 0.68277 0.66787 0.0
C295 C 0.02648 0.65522 0.64298 0.0
C296 C 0.98353 0.63654 0.63984 0.0
C297 C 0.9492 0.64676 0.65998 0.0
C298 C 0.08513 0.6372 0.56783 0.0
C299 C 0.13021 0.64128 0.57573 0.0
C300 C 0.05148 0.64088 0.58961 0.0
C301 C 0.06226 0.64763 0.6199 0.0
C302 C 0.10782 0.64908 0.62767 0.0
C303 C 0.14121 0.6467 0.60583 0.0
H304 H 0.87717 0.41599 0.90862 0.0
H305 H 0.79241 0.50335 0.95983 0.0
H306 H 0.89464 0.47693 0.87437 0.0
H307 H 0.80699 0.56378 0.92459 0.0
H308 H 0.85695 0.67586 0.86776 0.0
H309 H 0.85307 0.61677 0.90502 0.0
H310 H 0.86786 0.5184 0.83544 0.0
H311 H 0.87508 0.57838 0.79859 0.0
C312 C 0.86227 0.44843 0.9125 0.0
C313 C 0.83352 0.45498 0.93693 0.0
C314 C 0.87186 0.48339 0.89263 0.0
C315 C 0.85202 0.52571 0.89618 0.0
C316 C 0.82382 0.53226 0.92113 0.0
C317 C 0.81516 0.49749 0.94142 0.0
C318 C 0.86005 0.64152 0.86059 0.0
C319 C 0.86636 0.63162 0.83035 0.0
C320 C 0.85728 0.60743 0.88194 0.0
C321 C 0.85934 0.56224 0.87356 0.0
C322 C 0.86675 0.55253 0.84314 0.0
C323 C 0.87076 0.58688 0.82185 0.0
H324 H 0.92423 0.39417 0.05386 0.0
H325 H 0.8335 0.33479 0.11775 0.0
H326 H 0.98405 0.39148 0.09071 0.0
H327 H 0.892 0.33429 0.15508 0.0
H328 H 0.01892 0.28903 0.20314 0.0
H329 H 0.95642 0.297 0.16887 0.0
H330 H 0.01425 0.41936 0.13434 0.0
H331 H 0.07768 0.40973 0.1675 0.0
C332 C 0.91693 0.38135 0.07597 0.0
C333 C 0.87437 0.36441 0.08286 0.0
C334 C 0.95112 0.37994 0.09725 0.0
C335 C 0.94324 0.36235 0.12608 0.0
C336 C 0.89997 0.34698 0.13306 0.0
C337 C 0.8662 0.3476 0.11167 0.0
C338 C 0.01782 0.31793 0.18852 0.0
C339 C 0.05321 0.34866 0.18795 0.0
C340 C 0.9819 0.32267 0.16881 0.0
C341 C 0.98013 0.35873 0.14842 0.0
C342 C 0.01475 0.39053 0.149 0.0
C343 C 0.05096 0.3853 0.1683 0.0
H344 H 0.59391 0.10051 0.53089 0.0
H345 H 0.70816 0.16264 0.48842 0.0
H346 H 0.59441 0.04242 0.49274 0.0
H347 H 0.70937 0.10462 0.45111 0.0
H348 H 0.68741 0.01143 0.37497 0.0
H349 H 0.6725 0.07349 0.40878 0.0
H350 H 0.63954 0.97956 0.479 0.0
H351 H 0.65301 0.91813 0.44523 0.0
C352 C 0.61904 0.10182 0.51346 0.0
C353 C 0.65107 0.13613 0.51285 0.0
C354 C 0.61945 0.0685 0.49161 0.0
C355 C 0.6519 0.06879 0.4687 0.0
C356 C 0.68336 0.10361 0.46797 0.0
C357 C 0.68292 0.13676 0.48967 0.0
C358 C 0.67623 1.00415 0.39747 0.0
C359 C 0.67187 0.95979 0.40743 0.0
C360 C 0.668 0.03968 0.41695 0.0
C361 C 0.6552 0.03161 0.4468 0.0
C362 C 0.64889 0.98723 0.4562 0.0
C363 C 0.65705 0.95187 0.4368 0.0
H364 H 0.33303 0.14352 0.71936 0.0
H365 H 0.42587 0.13175 0.79218 0.0
H366 H 0.39489 0.14677 0.68407 0.0
H367 H 0.48835 0.13797 0.7572 0.0
H368 H 0.59569 0.12688 0.68724 0.0
H369 H 0.5326 0.1091 0.7197 0.0
H370 H 0.4482 0.19558 0.66661 0.0
H371 H 0.51082 0.21091 0.6333 0.0
C372 C 0.36689 0.1415 0.72776 0.0
C373 C 0.37474 0.13739 0.75846 0.0
C374 C 0.40249 0.1439 0.70755 0.0
C375 C 0.44704 0.14347 0.71756 0.0
C376 C 0.45473 0.13785 0.74838 0.0
C377 C 0.41894 0.13438 0.76857 0.0
C378 C 0.5634 0.14157 0.68236 0.0
C379 C 0.55816 0.17027 0.65774 0.0
C380 C 0.52722 0.13171 0.70116 0.0
C381 C 0.48497 0.15106 0.69618 0.0
C382 C 0.47974 0.17919 0.67107 0.0
C383 C 0.51576 0.18828 0.65193 0.0
H384 H 0.40701 0.92441 1.03395 0.0
H385 H 0.29952 0.8554 0.98972 0.0
H386 H 0.40319 0.98403 0.99632 0.0
H387 H 0.29531 0.91467 0.95279 0.0
H388 H 0.31913 0.00951 0.87597 0.0
H389 H 0.33426 0.9485 0.911 0.0
H390 H 0.35284 0.04403 0.98151 0.0
H391 H 0.33865 0.10472 0.94657 0.0
C392 C 0.38266 0.92191 1.01625 0.0
C393 C 0.35354 0.88514 1.01496 0.0
C394 C 0.38035 0.9561 0.99472 0.0
C395 C 0.34905 0.95411 0.97137 0.0
C396 C 0.32036 0.91706 0.97005 0.0
C397 C 0.32254 0.88316 0.99151 0.0
C398 C 0.32697 0.01747 0.89885 0.0
C399 C 0.32726 0.06202 0.90846 0.0
C400 C 0.33539 0.9825 0.91901 0.0
C401 C 0.34448 0.99127 0.9492 0.0
C402 C 0.3464 0.03594 0.95845 0.0
C403 C 0.33786 0.07079 0.93838 0.0
H404 H 0.65475 0.8028 0.24174 0.0
H405 H 0.59571 0.92007 0.28129 0.0
H406 H 0.59629 0.80154 0.20454 0.0
H407 H 0.53708 0.91931 0.24334 0.0
H408 H 0.41142 0.86304 0.1957 0.0
H409 H 0.47273 0.87517 0.22999 0.0
H410 H 0.56713 0.83899 0.16112 0.0
H411 H 0.50527 0.82566 0.12682 0.0
C412 C 0.6294 0.8286 0.24243 0.0
C413 C 0.62991 0.86147 0.26468 0.0
C414 C 0.596 0.82811 0.22079 0.0
C415 C 0.562 0.86047 0.22068 0.0
C416 C 0.56257 0.89364 0.24284 0.0
C417 C 0.59619 0.89417 0.26458 0.0
C418 C 0.44527 0.85805 0.18769 0.0
C419 C 0.45335 0.84289 0.15854 0.0
C420 C 0.48054 0.86539 0.20738 0.0
C421 C 0.52499 0.85776 0.19851 0.0
C422 C 0.53325 0.84451 0.16889 0.0
C423 C 0.49784 0.83722 0.14911 0.0
H424 H 0.32761 0.94859 0.13058 0.0
H425 H 0.19527 0.89051 0.13352 0.0
H426 H 0.29713 0.0188 0.14881 0.0
H427 H 0.1653 0.96035 0.15236 0.0
H428 H 0.14436 0.07254 0.22198 0.0
H429 H 0.17204 1.00372 0.19956 0.0
H430 H 0.24486 0.08097 0.13384 0.0
H431 H 0.21748 0.14992 0.15649 0.0
C432 C 0.29203 0.95073 0.13475 0.0
C433 C 0.2641 0.91345 0.13069 0.0
C434 C 0.27458 0.99107 0.14526 0.0
C435 C 0.22886 0.99501 0.15218 0.0
C436 C 0.2008 0.95812 0.14766 0.0
C437 C 0.21812 0.91796 0.13693 0.0
C438 C 0.16615 0.07479 0.20269 0.0
C439 C 0.17875 0.1166 0.191 0.0
C440 C 0.18176 0.03541 0.18973 0.0
C441 C 0.21071 0.03695 0.16497 0.0
C442 C 0.22288 0.07876 0.15304 0.0
C443 C 0.20686 0.11817 0.16582 0.0
H444 H 0.62881 0.73776 0.42043 0.0
H445 H 0.55954 0.80588 0.34931 0.0
H446 H 0.55819 0.70889 0.43932 0.0
H447 H 0.4884 0.77629 0.36791 0.0
H448 H 0.36647 0.75344 0.42927 0.0
H449 H 0.43608 0.78208 0.4083 0.0
H450 H 0.50089 0.65657 0.42844 0.0
H451 H 0.43206 0.62889 0.45095 0.0
C452 C 0.59847 0.74613 0.4086 0.0
C453 C 0.59984 0.77392 0.38326 0.0
C454 C 0.55788 0.72945 0.41939 0.0
C455 C 0.51747 0.73985 0.40503 0.0
C456 C 0.51877 0.76794 0.37974 0.0
C457 C 0.55951 0.78491 0.36904 0.0
C458 C 0.39566 0.73205 0.42947 0.0
C459 C 0.3936 0.68893 0.4421 0.0
C460 C 0.43549 0.7483 0.41704 0.0
C461 C 0.47431 0.7218 0.41678 0.0
C462 C 0.47192 0.67825 0.42869 0.0
C463 C 0.43216 0.66209 0.44125 0.0
H464 H 0.80853 0.09858 0.60554 0.0
H465 H 0.68319 0.08045 0.65176 0.0
H466 H 0.83631 0.02877 0.62667 0.0
H467 H 0.71132 0.01179 0.67439 0.0
H468 H 0.75967 0.87196 0.69416 0.0
H469 H 0.73086 0.9378 0.66852 0.0
H470 H 0.86304 0.99657 0.66997 0.0
H471 H 0.89189 0.92934 0.69409 0.0
C472 C 0.78704 0.07956 0.62039 0.0
C473 C 0.74375 0.09477 0.62701 0.0
C474 C 0.80302 0.03968 0.63275 0.0
C475 C 0.7764 0.01441 0.6526 0.0
C476 C 0.73272 0.0296 0.65886 0.0
C477 C 0.71648 0.06907 0.64598 0.0
C478 C 0.78246 0.89903 0.68885 0.0
C479 C 0.82796 0.89566 0.69611 0.0
C480 C 0.76595 0.937 0.67431 0.0
C481 C 0.79438 0.97304 0.66714 0.0
C482 C 0.84008 0.9694 0.67447 0.0
C483 C 0.85672 0.93098 0.68851 0.0
H484 H 0.42553 0.17764 0.90539 0.0
H485 H 0.43011 0.29265 0.84711 0.0
H486 H 0.49471 0.20257 0.92942 0.0
H487 H 0.49872 0.31766 0.87098 0.0
H488 H 0.6433 0.32672 0.9037 0.0
H489 H 0.57905 0.29565 0.87781 0.0
H490 H 0.51444 0.26866 0.96218 0.0
H491 H 0.57794 0.30089 0.9882 0.0
C492 C 0.44175 0.20782 0.89747 0.0
C493 C 0.42244 0.23337 0.87456 0.0
C494 C 0.48099 0.22231 0.91134 0.0
C495 C 0.50196 0.2622 0.90217 0.0
C496 C 0.48351 0.28669 0.87844 0.0
C497 C 0.44409 0.27256 0.86492 0.0
C498 C 0.61523 0.31472 0.9168 0.0
C499 C 0.61594 0.31657 0.94812 0.0
C500 C 0.57854 0.2966 0.90192 0.0
C501 C 0.54184 0.2795 0.91797 0.0
C502 C 0.5426 0.28089 0.94923 0.0
C503 C 0.57907 0.29941 0.96412 0.0
H504 H 0.69103 0.43542 0.60386 0.0
H505 H 0.70169 0.36762 0.68879 0.0
H506 H 0.72136 0.50289 0.62575 0.0
H507 H 0.73036 0.43604 0.71108 0.0
H508 H 0.82154 0.55572 0.73327 0.0
H509 H 0.79561 0.48591 0.71113 0.0
H510 H 0.69799 0.55956 0.65993 0.0
H511 H 0.7249 0.62879 0.68092 0.0
C512 C 0.6999 0.43485 0.62722 0.0
C513 C 0.69393 0.396 0.64453 0.0
C514 C 0.71688 0.47376 0.63987 0.0
C515 C 0.72818 0.47498 0.67023 0.0
C516 C 0.7224 0.43612 0.68758 0.0
C517 C 0.70539 0.39709 0.67488 0.0
C518 C 0.79488 0.55695 0.71706 0.0
C519 C 0.77521 0.59792 0.70901 0.0
C520 C 0.77968 0.51693 0.70461 0.0
C521 C 0.7447 0.51712 0.68372 0.0
C522 C 0.72532 0.55814 0.67565 0.0
C523 C 0.74042 0.59791 0.68803 0.0
H524 H 0.08363 0.22465 0.85536 0.0
H525 H 0.13624 0.17689 0.93933 0.0
H526 H 0.01822 0.25392 0.88113 0.0
H527 H 0.06965 0.20475 0.96476 0.0
H528 H 0.91583 0.21038 0.98678 0.0
H529 H 0.98602 0.18581 0.96403 0.0
H530 H 0.99938 0.31387 0.92013 0.0
H531 H 0.92901 0.33844 0.94305 0.0
C532 C 0.08163 0.2207 0.87931 0.0
C533 C 0.11559 0.19843 0.89519 0.0
C534 C 0.04398 0.23743 0.89404 0.0
C535 C 0.03897 0.23176 0.92493 0.0
C536 C 0.07256 0.20932 0.94087 0.0
C537 C 0.11056 0.19312 0.92622 0.0
C538 C 0.93396 0.2333 0.97241 0.0
C539 C 0.91701 0.27622 0.96657 0.0
C540 C 0.97421 0.21939 0.95956 0.0
C541 C 0.99802 0.24788 0.94024 0.0
C542 C 0.98151 0.29114 0.9348 0.0
C543 C 0.94155 0.30532 0.94807 0.0
H544 H 0.33283 0.57615 0.10157 0.0
H545 H 0.33684 0.6379 0.18821 0.0
H546 H 0.30651 0.50707 0.12431 0.0
H547 H 0.31265 0.56789 0.21119 0.0
H548 H 0.21937 0.45119 0.23705 0.0
H549 H 0.24776 0.52078 0.21594 0.0
H550 H 0.3302 0.44618 0.15466 0.0
H551 H 0.30026 0.37698 0.17453 0.0
C552 C 0.32823 0.57501 0.1255 0.0
C553 C 0.3368 0.61281 0.14298 0.0
C554 C 0.31366 0.5351 0.13863 0.0
C555 C 0.30747 0.53173 0.16966 0.0
C556 C 0.31654 0.56936 0.18721 0.0
C557 C 0.33102 0.60938 0.17405 0.0
C558 C 0.24331 0.4495 0.21897 0.0
C559 C 0.25715 0.40806 0.20751 0.0
C560 C 0.26005 0.48954 0.20706 0.0
C561 C 0.29115 0.48923 0.18343 0.0
C562 C 0.30575 0.44783 0.17249 0.0
C563 C 0.28892 0.40791 0.18426 0.0
H564 H 0.93852 0.83711 0.35131 0.0
H565 H 0.87175 0.82774 0.43663 0.0
H566 H 1.00462 0.80201 0.37253 0.0
H567 H 0.93837 0.79247 0.45798 0.0
H568 H 0.0881 0.7607 0.48639 0.0
H569 H 0.02116 0.80212 0.47027 0.0
H570 H 0.01787 0.72464 0.38955 0.0
H571 H 0.08355 0.68379 0.40553 0.0
C572 C 0.938 0.82766 0.37464 0.0
C573 C 0.89959 0.83458 0.39213 0.0
C574 C 0.97589 0.80756 0.38682 0.0
C575 C 0.97643 0.79374 0.41682 0.0
C576 C 0.93898 0.80281 0.43482 0.0
C577 C 0.90088 0.82302 0.42258 0.0
C578 C 0.0726 0.75239 0.46541 0.0
C579 C 0.09165 0.71971 0.44693 0.0
C580 C 0.03445 0.77608 0.45615 0.0
C581 C 0.01492 0.76737 0.42828 0.0
C582 C 0.03289 0.73318 0.41067 0.0
C583 C 0.0706 0.7097 0.41987 0.0
H584 H 0.8684 0.99294 0.26211 0.0
H585 H 0.79326 0.06136 0.33006 0.0
H586 H 0.92286 0.05295 0.2609 0.0
H587 H 0.84702 0.12308 0.32821 0.0
H588 H 0.9776 0.2011 0.33955 0.0
H589 H 0.91949 0.14501 0.34038 0.0
H590 H 0.93649 0.12615 0.24565 0.0
H591 H 0.99716 0.18006 0.24523 0.0
C592 C 0.86326 0.0213 0.27655 0.0
C593 C 0.82639 0.02261 0.29605 0.0
C594 C 0.8944 0.05602 0.27573 0.0
C595 C 0.88936 0.09352 0.29413 0.0
C596 C 0.85247 0.09468 0.31387 0.0
C597 C 0.82154 0.05941 0.31498 0.0
C598 C 0.9695 0.18482 0.31886 0.0
C599 C 0.99328 0.19475 0.29244 0.0
C600 C 0.93537 0.1529 0.31928 0.0
C601 C 0.92332 0.13029 0.29319 0.0
C602 C 0.94547 0.14187 0.26642 0.0
C603 C 0.98008 0.17345 0.26607 0.0
H604 H 0.50857 0.35041 0.6023 0.0
H605 H 0.46131 0.31269 0.51534 0.0
H606 H 0.45028 0.40745 0.60512 0.0
H607 H 0.40458 0.37062 0.5175 0.0
H608 H 0.28691 0.46115 0.53605 0.0
H609 H 0.33682 0.39675 0.53952 0.0
H610 H 0.43598 0.4787 0.58252 0.0
H611 H 0.38621 0.54248 0.57931 0.0
C612 C 0.48548 0.35388 0.58395 0.0
C613 C 0.49005 0.32723 0.55845 0.0
C614 C 0.45233 0.38698 0.58537 0.0
C615 C 0.42286 0.39415 0.56138 0.0
C616 C 0.42629 0.36607 0.53651 0.0
C617 C 0.45931 0.33308 0.53511 0.0
C618 C 0.31933 0.46535 0.54627 0.0
C619 C 0.33235 0.50715 0.55738 0.0
C620 C 0.34802 0.42841 0.54828 0.0
C621 C 0.3906 0.43234 0.56133 0.0
C622 C 0.40322 0.47399 0.57287 0.0
C623 C 0.37454 0.51079 0.57095 0.0
H624 H 0.04276 0.80781 0.74844 0.0
H625 H 0.02947 0.82726 0.8434 0.0
H626 H 0.10755 0.85667 0.74789 0.0
H627 H 0.0908 0.87895 0.84236 0.0
H628 H 0.20823 0.96793 0.83966 0.0
H629 H 0.16387 0.89974 0.83877 0.0
H630 H 0.12278 0.93096 0.74872 0.0
H631 H 0.17 0.99596 0.7488 0.0
C632 C 0.05337 0.82231 0.76923 0.0
C633 C 0.02941 0.81428 0.79577 0.0
C634 C 0.09048 0.85101 0.76888 0.0
C635 C 0.10425 0.87314 0.79495 0.0
C636 C 0.08188 0.86283 0.82173 0.0
C637 C 0.04557 0.83352 0.82219 0.0
C638 C 0.19063 0.9596 0.81945 0.0
C639 C 0.19187 0.98844 0.79462 0.0
C640 C 0.16451 0.92064 0.81901 0.0
C641 C 0.13842 0.90986 0.79391 0.0
C642 C 0.14216 0.93739 0.76852 0.0
C643 C 0.16883 0.97561 0.76877 0.0
H644 H 0.66748 0.51717 0.99915 0.0
H645 H 0.70201 0.54284 0.09067 0.0
H646 H 0.61574 0.58042 0.99993 0.0
H647 H 0.65066 0.6059 0.0915 0.0
H648 H 0.51087 0.67221 0.0927 0.0
H649 H 0.5703 0.61647 0.09164 0.0
H650 H 0.60894 0.66129 1.00356 0.0
H651 H 0.54956 0.717 1.00468 0.0
C652 C 0.66467 0.53679 1.01923 0.0
C653 C 0.68846 0.52459 1.04494 0.0
C654 C 0.63497 0.57304 1.01974 0.0
C655 C 0.62856 0.59796 0.04594 0.0
C656 C 0.65393 0.58687 0.07118 0.0
C657 C 0.68346 0.55073 0.07067 0.0
C658 C 0.53254 0.67077 0.07336 0.0
C659 C 0.52513 0.69892 0.0487 0.0
C660 C 0.56665 0.63872 0.07269 0.0
C661 C 0.59426 0.63408 0.04738 0.0
C662 C 0.5878 0.66329 1.02316 0.0
C663 C 0.55376 0.69531 1.02384 0.0
loop_
_geom_bond_atom_site_label_1
_geom_bond_atom_site_label_2
_geom_bond_distance
_geom_bond_site_symmetry_2
_ccdc_geom_bond_type
C0 C1 1.351 . S
C0 N3 1.368 . S
C0 H5 0.931 . S
C1 C0 1.351 . S
C1 N2 1.373 1_455 S
C1 H29 0.930 . S
N2 C1 1.373 1_655 S
N2 C4 1.340 . S
N3 C0 1.368 . S
N3 C4 1.321 1_455 S
N3 Co6 2.135 . S
C4 N2 1.340 . S
C4 N3 1.321 1_655 S
C4 H28 0.930 . S
H5 C0 0.931 . S
Co6 N3 2.135 . S
Co6 N9 2.121 . S
Co6 O14 2.055 . S
Co6 O17 2.039 . S
Co6 N20 2.140 . S
C7 O8 1.227 . S
C7 O17 1.265 . S
O8 C7 1.227 . S
N9 Co6 2.121 . S
N9 C11 1.375 . S
N9 C12 1.313 . S
C10 C11 1.338 . S
C10 N13 1.377 . S
C10 H30 0.930 . S
C11 N9 1.375 . S
C11 C10 1.338 . S
C11 H15 0.931 . S
C12 N9 1.313 . S
C12 N13 1.344 . S
C12 H16 0.930 . S
N13 C10 1.377 . S
N13 C12 1.344 . S
O14 Co6 2.055 . S
O14 C18 1.253 . S
H15 C11 0.931 . S
H16 C12 0.930 . S
O17 Co6 2.039 . S
O17 C7 1.265 . S
C18 O14 1.253 . S
C18 O19 1.227 . S
O19 C18 1.227 . S
N20 Co6 2.140 . S
N20 C23 1.346 . S
N20 C24 1.345 . S
C21 C22 1.387 . S
C21 C25 1.391 . S
C22 C21 1.387 . S
C22 C23 1.369 . S
C22 H31 0.929 . S
C23 N20 1.346 . S
C23 C22 1.369 . S
C23 H26 0.928 . S
C24 N20 1.345 . S
C24 C25 1.371 . S
C24 H27 0.931 . S
C25 C21 1.391 . S
C25 C24 1.371 . S
C25 H32 0.930 . S
H26 C23 0.928 . S
H27 C24 0.931 . S
H28 C4 0.930 . S
H29 C1 0.930 . S
H30 C10 0.930 . S
H31 C22 0.929 . S
H32 C25 0.930 . S
C33 C34 1.351 . S
C33 N36 1.368 . S
C33 H38 0.931 . S
C34 C33 1.351 . S
C34 N35 1.373 . S
C34 H62 0.930 . S
N35 C34 1.373 . S
N35 C37 1.340 . S
N36 C33 1.368 . S
N36 C37 1.321 . S
N36 Co39 2.135 . S
C37 N35 1.340 . S
C37 N36 1.321 . S
C37 H61 0.930 . S
H38 C33 0.931 . S
Co39 N36 2.135 . S
Co39 N42 2.121 . S
Co39 O47 2.055 . S
Co39 O50 2.039 . S
Co39 N53 2.140 . S
C40 O41 1.227 . S
C40 O50 1.265 . S
O41 C40 1.227 . S
N42 Co39 2.121 . S
N42 C44 1.375 . S
N42 C45 1.313 . S
C43 C44 1.338 . S
C43 N46 1.377 . S
C43 H63 0.930 . S
C44 N42 1.375 . S
C44 C43 1.338 . S
C44 H48 0.931 . S
C45 N42 1.313 . S
C45 N46 1.344 . S
C45 H49 0.930 . S
N46 C43 1.377 . S
N46 C45 1.344 . S
O47 Co39 2.055 . S
O47 C51 1.253 . S
H48 C44 0.931 . S
H49 C45 0.930 . S
O50 Co39 2.039 . S
O50 C40 1.265 . S
C51 O47 1.253 . S
C51 O52 1.227 . S
O52 C51 1.227 . S
N53 Co39 2.140 . S
N53 C56 1.346 . S
N53 C57 1.345 . S
C54 C55 1.387 . S
C54 C58 1.391 . S
C55 C54 1.387 . S
C55 C56 1.369 . S
C55 H64 0.929 . S
C56 N53 1.346 . S
C56 C55 1.369 . S
C56 H59 0.928 . S
C57 N53 1.345 . S
C57 C58 1.371 . S
C57 H60 0.931 . S
C58 C54 1.391 . S
C58 C57 1.371 . S
C58 H65 0.930 . S
H59 C56 0.928 . S
H60 C57 0.931 . S
H61 C37 0.930 . S
H62 C34 0.930 . S
H63 C43 0.930 . S
H64 C55 0.929 . S
H65 C58 0.930 . S
C66 C67 1.351 . S
C66 N69 1.368 . S
C66 H71 0.931 . S
C67 C66 1.351 . S
C67 N68 1.373 1_655 S
C67 H95 0.930 . S
N68 C67 1.373 1_455 S
N68 C70 1.340 . S
N69 C66 1.368 . S
N69 C70 1.321 1_655 S
N69 Co72 2.135 . S
C70 N68 1.340 . S
C70 N69 1.321 1_455 S
C70 H94 0.930 . S
H71 C66 0.931 . S
Co72 N69 2.135 . S
Co72 N75 2.121 . S
Co72 O80 2.055 . S
Co72 O83 2.039 . S
Co72 N86 2.140 . S
C73 O74 1.227 . S
C73 O83 1.265 . S
O74 C73 1.227 . S
N75 Co72 2.121 . S
N75 C77 1.375 . S
N75 C78 1.313 . S
C76 C77 1.338 . S
C76 N79 1.377 . S
C76 H96 0.930 . S
C77 N75 1.375 . S
C77 C76 1.338 . S
C77 H81 0.931 . S
C78 N75 1.313 . S
C78 N79 1.344 . S
C78 H82 0.930 . S
N79 C76 1.377 . S
N79 C78 1.344 . S
O80 Co72 2.055 . S
O80 C84 1.253 . S
H81 C77 0.931 . S
H82 C78 0.930 . S
O83 Co72 2.039 . S
O83 C73 1.265 . S
C84 O80 1.253 . S
C84 O85 1.227 . S
O85 C84 1.227 . S
N86 Co72 2.140 . S
N86 C89 1.346 . S
N86 C90 1.345 . S
C87 C88 1.387 . S
C87 C91 1.391 . S
C88 C87 1.387 . S
C88 C89 1.369 . S
C88 H97 0.929 . S
C89 N86 1.346 . S
C89 C88 1.369 . S
C89 H92 0.928 . S
C90 N86 1.345 . S
C90 C91 1.371 . S
C90 H93 0.931 . S
C91 C87 1.391 . S
C91 C90 1.371 . S
C91 H98 0.930 . S
H92 C89 0.928 . S
H93 C90 0.931 . S
H94 C70 0.930 . S
H95 C67 0.930 . S
H96 C76 0.930 . S
H97 C88 0.929 . S
H98 C91 0.930 . S
C99 C100 1.351 . S
C99 N102 1.368 . S
C99 H104 0.931 . S
C100 C99 1.351 . S
C100 N101 1.373 . S
C100 H128 0.922 1_556 S
N101 C100 1.373 . S
N101 C103 1.340 . S
N102 C99 1.368 . S
N102 C103 1.321 . S
N102 Co105 2.135 . S
C103 N101 1.340 . S
C103 N102 1.321 . S
C103 H127 0.930 . S
H104 C99 0.931 . S
Co105 N102 2.135 . S
Co105 N108 2.121 . S
Co105 O113 2.055 . S
Co105 O116 2.039 . S
Co105 N119 2.140 . S
C106 O107 1.227 . S
C106 O116 1.265 . S
O107 C106 1.227 . S
N108 Co105 2.121 . S
N108 C110 1.375 . S
N108 C111 1.313 . S
C109 C110 1.338 . S
C109 N112 1.377 . S
C109 H129 0.930 . S
C110 N108 1.375 . S
C110 C109 1.338 . S
C110 H114 0.931 . S
C111 N108 1.313 . S
C111 N112 1.344 . S
C111 H115 0.930 . S
N112 C109 1.377 . S
N112 C111 1.344 . S
O113 Co105 2.055 . S
O113 C117 1.253 . S
H114 C110 0.931 . S
H115 C111 0.930 . S
O116 Co105 2.039 . S
O116 C106 1.265 . S
C117 O113 1.253 . S
C117 O118 1.227 . S
O118 C117 1.227 . S
N119 Co105 2.140 . S
N119 C122 1.346 . S
N119 C123 1.345 . S
C120 C121 1.387 . S
C120 C124 1.391 . S
C121 C120 1.387 . S
C121 C122 1.369 . S
C121 H130 0.929 . S
C122 N119 1.346 . S
C122 C121 1.369 . S
C122 H125 0.928 . S
C123 N119 1.345 . S
C123 C124 1.371 . S
C123 H126 0.931 . S
C124 C120 1.391 . S
C124 C123 1.371 . S
C124 H131 0.930 . S
H125 C122 0.928 . S
H126 C123 0.931 . S
H127 C103 0.930 . S
H128 C100 0.922 1_554 S
H129 C109 0.930 . S
H130 C121 0.929 . S
H131 C124 0.930 . S
C132 C133 1.351 . S
C132 N135 1.368 . S
C132 H137 0.931 . S
C133 C132 1.351 . S
C133 N134 1.373 . S
C133 H161 0.930 . S
N134 C133 1.373 . S
N134 C136 1.340 . S
N135 C132 1.368 . S
N135 C136 1.321 . S
N135 Co138 2.135 . S
C136 N134 1.340 . S
C136 N135 1.321 . S
C136 H160 0.930 . S
H137 C132 0.931 . S
Co138 N135 2.135 . S
Co138 N141 2.121 . S
Co138 O146 2.055 . S
Co138 O149 2.039 . S
Co138 N152 2.140 . S
C139 O140 1.227 . S
C139 O149 1.265 . S
O140 C139 1.227 . S
N141 Co138 2.121 . S
N141 C143 1.375 . S
N141 C144 1.313 . S
C142 C143 1.338 . S
C142 N145 1.377 . S
C142 H162 0.930 . S
C143 N141 1.375 . S
C143 C142 1.338 . S
C143 H147 0.931 . S
C144 N141 1.313 . S
C144 N145 1.344 . S
C144 H148 0.930 . S
N145 C142 1.377 . S
N145 C144 1.344 . S
O146 Co138 2.055 . S
O146 C150 1.253 . S
H147 C143 0.931 . S
H148 C144 0.930 . S
O149 Co138 2.039 . S
O149 C139 1.265 . S
C150 O146 1.253 . S
C150 O151 1.227 . S
O151 C150 1.227 . S
N152 Co138 2.140 . S
N152 C155 1.346 . S
N152 C156 1.345 . S
C153 C154 1.387 . S
C153 C157 1.391 . S
C154 C153 1.387 . S
C154 C155 1.369 . S
C154 H163 0.929 . S
C155 N152 1.346 . S
C155 C154 1.369 . S
C155 H158 0.928 . S
C156 N152 1.345 . S
C156 C157 1.371 . S
C156 H159 0.931 . S
C157 C153 1.391 . S
C157 C156 1.371 . S
C157 H164 0.930 . S
H158 C155 0.928 . S
H159 C156 0.931 . S
H160 C136 0.930 . S
H161 C133 0.930 . S
H162 C142 0.930 . S
H163 C154 0.929 . S
H164 C157 0.930 . S
C165 C166 1.351 . S
C165 N168 1.368 . S
C165 H170 0.931 . S
C166 C165 1.351 . S
C166 N167 1.373 1_545 S
C166 H194 0.930 . S
N167 C166 1.373 1_565 S
N167 C169 1.340 . S
N168 C165 1.368 . S
N168 C169 1.321 1_545 S
N168 Co171 2.135 . S
C169 N167 1.340 . S
C169 N168 1.321 1_565 S
C169 H193 0.930 . S
H170 C165 0.931 . S
Co171 N168 2.135 . S
Co171 N174 2.121 . S
Co171 O179 2.055 . S
Co171 O182 2.039 . S
Co171 N185 2.140 . S
C172 O173 1.227 . S
C172 O182 1.265 . S
O173 C172 1.227 . S
N174 Co171 2.121 . S
N174 C176 1.375 . S
N174 C177 1.313 . S
C175 C176 1.338 . S
C175 N178 1.377 . S
C175 H195 0.930 . S
C176 N174 1.375 . S
C176 C175 1.338 . S
C176 H180 0.931 . S
C177 N174 1.313 . S
C177 N178 1.344 . S
C177 H181 0.930 . S
N178 C175 1.377 . S
N178 C177 1.344 . S
O179 Co171 2.055 . S
O179 C183 1.253 . S
H180 C176 0.931 . S
H181 C177 0.930 . S
O182 Co171 2.039 . S
O182 C172 1.265 . S
C183 O179 1.253 . S
C183 O184 1.227 . S
O184 C183 1.227 . S
N185 Co171 2.140 . S
N185 C188 1.346 . S
N185 C189 1.345 . S
C186 C187 1.387 . S
C186 C190 1.391 . S
C187 C186 1.387 . S
C187 C188 1.369 . S
C187 H196 0.929 . S
C188 N185 1.346 . S
C188 C187 1.369 . S
C188 H191 0.928 . S
C189 N185 1.345 . S
C189 C190 1.371 . S
C189 H192 0.931 . S
C190 C186 1.391 . S
C190 C189 1.371 . S
C190 H197 0.930 . S
H191 C188 0.928 . S
H192 C189 0.931 . S
H193 C169 0.930 . S
H194 C166 0.930 . S
H195 C175 0.930 . S
H196 C187 0.929 . S
H197 C190 0.930 . S
C198 C199 1.351 . S
C198 N201 1.368 . S
C198 H203 0.931 . S
C199 C198 1.351 . S
C199 N200 1.373 . S
C199 H227 0.922 1_554 S
N200 C199 1.373 . S
N200 C202 1.340 . S
N201 C198 1.368 . S
N201 C202 1.321 . S
N201 Co204 2.135 . S
C202 N200 1.340 . S
C202 N201 1.321 . S
C202 H226 0.930 . S
H203 C198 0.931 . S
Co204 N201 2.135 . S
Co204 N207 2.121 . S
Co204 O212 2.055 . S
Co204 O215 2.039 . S
Co204 N218 2.140 . S
C205 O206 1.227 . S
C205 O215 1.265 . S
O206 C205 1.227 . S
N207 Co204 2.121 . S
N207 C209 1.375 . S
N207 C210 1.313 . S
C208 C209 1.338 . S
C208 N211 1.377 . S
C208 H228 0.930 . S
C209 N207 1.375 . S
C209 C208 1.338 . S
C209 H213 0.931 . S
C210 N207 1.313 . S
C210 N211 1.344 . S
C210 H214 0.930 . S
N211 C208 1.377 . S
N211 C210 1.344 . S
O212 Co204 2.055 . S
O212 C216 1.253 . S
H213 C209 0.931 . S
H214 C210 0.930 . S
O215 Co204 2.039 . S
O215 C205 1.265 . S
C216 O212 1.253 . S
C216 O217 1.227 . S
O217 C216 1.227 . S
N218 Co204 2.140 . S
N218 C221 1.346 . S
N218 C222 1.345 . S
C219 C220 1.387 . S
C219 C223 1.391 . S
C220 C219 1.387 . S
C220 C221 1.369 . S
C220 H229 0.929 . S
C221 N218 1.346 . S
C221 C220 1.369 . S
C221 H224 0.928 . S
C222 N218 1.345 . S
C222 C223 1.371 . S
C222 H225 0.931 . S
C223 C219 1.391 . S
C223 C222 1.371 . S
C223 H230 0.930 . S
H224 C221 0.928 . S
H225 C222 0.931 . S
H226 C202 0.930 . S
H227 C199 0.922 1_556 S
H228 C208 0.930 . S
H229 C220 0.929 . S
H230 C223 0.930 . S
C231 C232 1.351 . S
C231 N234 1.368 . S
C231 H236 0.931 . S
C232 C231 1.351 . S
C232 N233 1.373 1_565 S
C232 H260 0.930 . S
N233 C232 1.373 1_545 S
N233 C235 1.340 . S
N234 C231 1.368 . S
N234 C235 1.321 1_565 S
N234 Co237 2.135 . S
C235 N233 1.340 . S
C235 N234 1.321 1_545 S
C235 H259 0.930 . S
H236 C231 0.931 . S
Co237 N234 2.135 . S
Co237 N240 2.121 . S
Co237 O245 2.055 . S
Co237 O248 2.039 . S
Co237 N251 2.140 . S
C238 O239 1.227 . S
C238 O248 1.265 . S
O239 C238 1.227 . S
N240 Co237 2.121 . S
N240 C242 1.375 . S
N240 C243 1.313 . S
C241 C242 1.338 . S
C241 N244 1.377 . S
C241 H261 0.930 . S
C242 N240 1.375 . S
C242 C241 1.338 . S
C242 H246 0.931 . S
C243 N240 1.313 . S
C243 N244 1.344 . S
C243 H247 0.930 . S
N244 C241 1.377 . S
N244 C243 1.344 . S
O245 Co237 2.055 . S
O245 C249 1.253 . S
H246 C242 0.931 . S
H247 C243 0.930 . S
O248 Co237 2.039 . S
O248 C238 1.265 . S
C249 O245 1.253 . S
C249 O250 1.227 . S
O250 C249 1.227 . S
N251 Co237 2.140 . S
N251 C254 1.346 . S
N251 C255 1.345 . S
C252 C253 1.387 . S
C252 C256 1.391 . S
C253 C252 1.387 . S
C253 C254 1.369 . S
C253 H262 0.929 . S
C254 N251 1.346 . S
C254 C253 1.369 . S
C254 H257 0.928 . S
C255 N251 1.345 . S
C255 C256 1.371 . S
C255 H258 0.931 . S
C256 C252 1.391 . S
C256 C255 1.371 . S
C256 H263 0.930 . S
H257 C254 0.928 . S
H258 C255 0.931 . S
H259 C235 0.930 . S
H260 C232 0.930 . S
H261 C241 0.930 . S
H262 C253 0.929 . S
H263 C256 0.930 . S
H264 C272 0.950 . S
H265 C277 0.950 . S
H266 C274 0.950 . S
H267 C276 0.950 . S
H268 C278 0.950 . S
H269 C280 0.950 . S
H270 C282 0.950 . S
H271 C283 0.950 . S
C272 H264 0.950 . S
C272 C273 1.386 . S
C272 C274 1.391 . S
C273 C272 1.386 . S
C273 C277 1.393 . S
C274 H266 0.950 . S
C274 C272 1.391 . S
C274 C275 1.400 . S
C275 C274 1.400 . S
C275 C276 1.398 . S
C275 C281 1.491 . S
C276 H267 0.950 . S
C276 C275 1.398 . S
C276 C277 1.391 . S
C277 H265 0.950 . S
C277 C273 1.393 . S
C277 C276 1.391 . S
C278 H268 0.950 . S
C278 C279 1.386 . S
C278 C280 1.391 . S
C279 C278 1.386 . S
C279 C283 1.393 . S
C280 H269 0.950 . S
C280 C278 1.391 . S
C280 C281 1.400 . S
C281 C275 1.491 . S
C281 C280 1.400 . S
C281 C282 1.398 . S
C282 H270 0.950 . S
C282 C281 1.398 . S
C282 C283 1.391 . S
C283 H271 0.950 . S
C283 C279 1.393 . S
C283 C282 1.391 . S
H284 C292 0.950 . S
H285 C297 0.950 . S
H286 C294 0.950 . S
H287 C296 0.950 . S
H288 C298 0.950 . S
H289 C300 0.950 . S
H290 C302 0.950 . S
H291 C303 0.950 . S
C292 H284 0.950 . S
C292 C293 1.386 . S
C292 C294 1.391 . S
C293 C292 1.386 . S
C293 C297 1.393 1_455 S
C294 H286 0.950 . S
C294 C292 1.391 . S
C294 C295 1.400 . S
C295 C294 1.400 . S
C295 C296 1.398 . S
C295 C301 1.491 . S
C296 H287 0.950 . S
C296 C295 1.398 . S
C296 C297 1.391 1_455 S
C297 H285 0.950 . S
C297 C293 1.393 1_655 S
C297 C296 1.391 1_655 S
C298 H288 0.950 . S
C298 C299 1.386 . S
C298 C300 1.391 . S
C299 C298 1.386 . S
C299 C303 1.393 . S
C300 H289 0.950 . S
C300 C298 1.391 . S
C300 C301 1.400 . S
C301 C295 1.491 . S
C301 C300 1.400 . S
C301 C302 1.398 . S
C302 H290 0.950 . S
C302 C301 1.398 . S
C302 C303 1.391 . S
C303 H291 0.950 . S
C303 C299 1.393 . S
C303 C302 1.391 . S
H304 C312 0.950 . S
H305 C317 0.950 . S
H306 C314 0.950 . S
H307 C316 0.950 . S
H308 C318 0.950 . S
H309 C320 0.950 . S
H310 C322 0.950 . S
H311 C323 0.950 . S
C312 H304 0.950 . S
C312 C313 1.386 . S
C312 C314 1.391 . S
C313 C312 1.386 . S
C313 C317 1.393 . S
C314 H306 0.950 . S
C314 C312 1.391 . S
C314 C315 1.400 . S
C315 C314 1.400 . S
C315 C316 1.398 . S
C315 C321 1.491 . S
C316 H307 0.950 . S
C316 C315 1.398 . S
C316 C317 1.391 . S
C317 H305 0.950 . S
C317 C313 1.393 . S
C317 C316 1.391 . S
C318 H308 0.950 . S
C318 C319 1.386 . S
C318 C320 1.391 . S
C319 C318 1.386 . S
C319 C323 1.393 . S
C320 H309 0.950 . S
C320 C318 1.391 . S
C320 C321 1.400 . S
C321 C315 1.491 . S
C321 C320 1.400 . S
C321 C322 1.398 . S
C322 H310 0.950 . S
C322 C321 1.398 . S
C322 C323 1.391 . S
C323 H311 0.950 . S
C323 C319 1.393 . S
C323 C322 1.391 . S
H324 C332 0.950 1_556 S
H325 C337 0.950 . S
H326 C334 0.950 . S
H327 C336 0.950 . S
H328 C338 0.950 . S
H329 C340 0.950 . S
H330 C342 0.950 1_455 S
H331 C343 0.950 . S
C332 H324 0.950 1_554 S
C332 C333 1.386 1_554 S
C332 C334 1.391 . S
C333 C332 1.386 1_556 S
C333 C337 1.393 1_556 S
C334 H326 0.950 . S
C334 C332 1.391 . S
C334 C335 1.400 . S
C335 C334 1.400 . S
C335 C336 1.398 . S
C335 C341 1.491 . S
C336 H327 0.950 . S
C336 C335 1.398 . S
C336 C337 1.391 . S
C337 H325 0.950 . S
C337 C333 1.393 1_554 S
C337 C336 1.391 . S
C338 H328 0.950 . S
C338 C339 1.386 . S
C338 C340 1.391 . S
C339 C338 1.386 . S
C339 C343 1.393 1_655 S
C340 H329 0.950 . S
C340 C338 1.391 . S
C340 C341 1.400 . S
C341 C335 1.491 . S
C341 C340 1.400 . S
C341 C342 1.398 . S
C342 H330 0.950 1_655 S
C342 C341 1.398 . S
C342 C343 1.391 1_655 S
C343 H331 0.950 . S
C343 C339 1.393 1_455 S
C343 C342 1.391 1_455 S
H344 C352 0.950 . S
H345 C357 0.950 . S
H346 C354 0.950 . S
H347 C356 0.950 . S
H348 C358 0.950 . S
H349 C360 0.950 . S
H350 C362 0.950 1_565 S
H351 C363 0.950 . S
C352 H344 0.950 . S
C352 C353 1.386 . S
C352 C354 1.391 . S
C353 C352 1.386 . S
C353 C357 1.393 . S
C354 H346 0.950 . S
C354 C352 1.391 . S
C354 C355 1.400 . S
C355 C354 1.400 . S
C355 C356 1.398 . S
C355 C361 1.491 . S
C356 H347 0.950 . S
C356 C355 1.398 . S
C356 C357 1.391 . S
C357 H345 0.950 . S
C357 C353 1.393 . S
C357 C356 1.391 . S
C358 H348 0.950 . S
C358 C359 1.386 . S
C358 C360 1.391 . S
C359 C358 1.386 . S
C359 C363 1.393 1_545 S
C360 H349 0.950 . S
C360 C358 1.391 . S
C360 C361 1.400 . S
C361 C355 1.491 . S
C361 C360 1.400 . S
C361 C362 1.398 . S
C362 H350 0.950 1_545 S
C362 C361 1.398 . S
C362 C363 1.391 1_545 S
C363 H351 0.950 . S
C363 C359 1.393 1_565 S
C363 C362 1.391 1_565 S
H364 C372 0.950 . S
H365 C377 0.950 . S
H366 C374 0.950 . S
H367 C376 0.950 . S
H368 C378 0.950 . S
H369 C380 0.950 . S
H370 C382 0.950 . S
H371 C383 0.950 . S
C372 H364 0.950 . S
C372 C373 1.386 . S
C372 C374 1.391 . S
C373 C372 1.386 . S
C373 C377 1.393 . S
C374 H366 0.950 . S
C374 C372 1.391 . S
C374 C375 1.400 . S
C375 C374 1.400 . S
C375 C376 1.398 . S
C375 C381 1.491 . S
C376 H367 0.950 . S
C376 C375 1.398 . S
C376 C377 1.391 . S
C377 H365 0.950 . S
C377 C373 1.393 . S
C377 C376 1.391 . S
C378 H368 0.950 . S
C378 C379 1.386 . S
C378 C380 1.391 . S
C379 C378 1.386 . S
C379 C383 1.393 . S
C380 H369 0.950 . S
C380 C378 1.391 . S
C380 C381 1.400 . S
C381 C375 1.491 . S
C381 C380 1.400 . S
C381 C382 1.398 . S
C382 H370 0.950 . S
C382 C381 1.398 . S
C382 C383 1.391 . S
C383 H371 0.950 . S
C383 C379 1.393 . S
C383 C382 1.391 . S
H384 C392 0.950 . S
H385 C397 0.950 1_554 S
H386 C394 0.950 . S
H387 C396 0.950 . S
H388 C398 0.950 . S
H389 C400 0.950 . S
H390 C402 0.950 . S
H391 C403 0.950 . S
C392 H384 0.950 . S
C392 C393 1.386 1_556 S
C392 C394 1.391 . S
C393 C392 1.386 1_554 S
C393 C397 1.393 1_554 S
C394 H386 0.950 . S
C394 C392 1.391 . S
C394 C395 1.400 . S
C395 C394 1.400 . S
C395 C396 1.398 . S
C395 C401 1.491 . S
C396 H387 0.950 . S
C396 C395 1.398 . S
C396 C397 1.391 . S
C397 H385 0.950 1_556 S
C397 C393 1.393 1_556 S
C397 C396 1.391 . S
C398 H388 0.950 . S
C398 C399 1.386 . S
C398 C400 1.391 . S
C399 C398 1.386 . S
C399 C403 1.393 . S
C400 H389 0.950 . S
C400 C398 1.391 . S
C400 C401 1.400 . S
C401 C395 1.491 . S
C401 C400 1.400 . S
C401 C402 1.398 . S
C402 H390 0.950 . S
C402 C401 1.398 . S
C402 C403 1.391 . S
C403 H391 0.950 . S
C403 C399 1.393 . S
C403 C402 1.391 . S
H404 C412 0.950 . S
H405 C417 0.950 . S
H406 C414 0.950 . S
H407 C416 0.950 . S
H408 C418 0.950 . S
H409 C420 0.950 . S
H410 C422 0.950 . S
H411 C423 0.950 . S
C412 H404 0.950 . S
C412 C413 1.386 . S
C412 C414 1.391 . S
C413 C412 1.386 . S
C413 C417 1.393 . S
C414 H406 0.950 . S
C414 C412 1.391 . S
C414 C415 1.400 . S
C415 C414 1.400 . S
C415 C416 1.398 . S
C415 C421 1.491 . S
C416 H407 0.950 . S
C416 C415 1.398 . S
C416 C417 1.391 . S
C417 H405 0.950 . S
C417 C413 1.393 . S
C417 C416 1.391 . S
C418 H408 0.950 . S
C418 C419 1.386 . S
C418 C420 1.391 . S
C419 C418 1.386 . S
C419 C423 1.393 . S
C420 H409 0.950 . S
C420 C418 1.391 . S
C420 C421 1.400 . S
C421 C415 1.491 . S
C421 C420 1.400 . S
C421 C422 1.398 . S
C422 H410 0.950 . S
C422 C421 1.398 . S
C422 C423 1.391 . S
C423 H411 0.950 . S
C423 C419 1.393 . S
C423 C422 1.391 . S
H424 C432 0.950 . S
H425 C437 0.950 . S
H426 C434 0.950 . S
H427 C436 0.950 . S
H428 C438 0.950 . S
H429 C440 0.950 . S
H430 C442 0.950 . S
H431 C443 0.950 . S
C432 H424 0.950 . S
C432 C433 1.386 . S
C432 C434 1.391 1_565 S
C433 C432 1.386 . S
C433 C437 1.393 . S
C434 H426 0.950 . S
C434 C432 1.391 1_545 S
C434 C435 1.400 . S
C435 C434 1.400 . S
C435 C436 1.398 1_545 S
C435 C441 1.491 . S
C436 H427 0.950 . S
C436 C435 1.398 1_565 S
C436 C437 1.391 . S
C437 H425 0.950 . S
C437 C433 1.393 . S
C437 C436 1.391 . S
C438 H428 0.950 . S
C438 C439 1.386 . S
C438 C440 1.391 . S
C439 C438 1.386 . S
C439 C443 1.393 . S
C440 H429 0.950 . S
C440 C438 1.391 . S
C440 C441 1.400 . S
C441 C435 1.491 . S
C441 C440 1.400 . S
C441 C442 1.398 . S
C442 H430 0.950 . S
C442 C441 1.398 . S
C442 C443 1.391 . S
C443 H431 0.950 . S
C443 C439 1.393 . S
C443 C442 1.391 . S
H444 C452 0.950 . S
H445 C457 0.950 . S
H446 C454 0.950 . S
H447 C456 0.950 . S
H448 C458 0.950 . S
H449 C460 0.950 . S
H450 C462 0.950 . S
H451 C463 0.950 . S
C452 H444 0.950 . S
C452 C453 1.386 . S
C452 C454 1.391 . S
C453 C452 1.386 . S
C453 C457 1.393 . S
C454 H446 0.950 . S
C454 C452 1.391 . S
C454 C455 1.400 . S
C455 C454 1.400 . S
C455 C456 1.398 . S
C455 C461 1.491 . S
C456 H447 0.950 . S
C456 C455 1.398 . S
C456 C457 1.391 . S
C457 H445 0.950 . S
C457 C453 1.393 . S
C457 C456 1.391 . S
C458 H448 0.950 . S
C458 C459 1.386 . S
C458 C460 1.391 . S
C459 C458 1.386 . S
C459 C463 1.393 . S
C460 H449 0.950 . S
C460 C458 1.391 . S
C460 C461 1.400 . S
C461 C455 1.491 . S
C461 C460 1.400 . S
C461 C462 1.398 . S
C462 H450 0.950 . S
C462 C461 1.398 . S
C462 C463 1.391 . S
C463 H451 0.950 . S
C463 C459 1.393 . S
C463 C462 1.391 . S
H464 C472 0.950 . S
H465 C477 0.950 . S
H466 C474 0.950 . S
H467 C476 0.950 . S
H468 C478 0.950 . S
H469 C480 0.950 . S
H470 C482 0.950 . S
H471 C483 0.950 . S
C472 H464 0.950 . S
C472 C473 1.386 . S
C472 C474 1.391 . S
C473 C472 1.386 . S
C473 C477 1.393 . S
C474 H466 0.950 . S
C474 C472 1.391 . S
C474 C475 1.400 1_545 S
C475 C474 1.400 1_565 S
C475 C476 1.398 . S
C475 C481 1.491 . S
C476 H467 0.950 . S
C476 C475 1.398 . S
C476 C477 1.391 1_565 S
C477 H465 0.950 . S
C477 C473 1.393 . S
C477 C476 1.391 1_545 S
C478 H468 0.950 . S
C478 C479 1.386 . S
C478 C480 1.391 . S
C479 C478 1.386 . S
C479 C483 1.393 . S
C480 H469 0.950 . S
C480 C478 1.391 . S
C480 C481 1.400 . S
C481 C475 1.491 . S
C481 C480 1.400 . S
C481 C482 1.398 . S
C482 H470 0.950 . S
C482 C481 1.398 . S
C482 C483 1.391 . S
C483 H471 0.950 . S
C483 C479 1.393 . S
C483 C482 1.391 . S
H484 C492 0.950 . S
H485 C497 0.950 . S
H486 C494 0.950 . S
H487 C496 0.950 . S
H488 C498 0.950 . S
H489 C500 0.950 . S
H490 C502 0.950 . S
H491 C503 0.950 . S
C492 H484 0.950 . S
C492 C493 1.386 . S
C492 C494 1.391 . S
C493 C492 1.386 . S
C493 C497 1.393 . S
C494 H486 0.950 . S
C494 C492 1.391 . S
C494 C495 1.400 . S
C495 C494 1.400 . S
C495 C496 1.398 . S
C495 C501 1.491 . S
C496 H487 0.950 . S
C496 C495 1.398 . S
C496 C497 1.391 . S
C497 H485 0.950 . S
C497 C493 1.393 . S
C497 C496 1.391 . S
C498 H488 0.950 . S
C498 C499 1.386 . S
C498 C500 1.391 . S
C499 C498 1.386 . S
C499 C503 1.393 . S
C500 H489 0.950 . S
C500 C498 1.391 . S
C500 C501 1.400 . S
C501 C495 1.491 . S
C501 C500 1.400 . S
C501 C502 1.398 . S
C502 H490 0.950 . S
C502 C501 1.398 . S
C502 C503 1.391 . S
C503 H491 0.950 . S
C503 C499 1.393 . S
C503 C502 1.391 . S
H504 C512 0.950 . S
H505 C517 0.950 . S
H506 C514 0.950 . S
H507 C516 0.950 . S
H508 C518 0.950 . S
H509 C520 0.950 . S
H510 C522 0.950 . S
H511 C523 0.950 . S
C512 H504 0.950 . S
C512 C513 1.386 . S
C512 C514 1.391 . S
C513 C512 1.386 . S
C513 C517 1.393 . S
C514 H506 0.950 . S
C514 C512 1.391 . S
C514 C515 1.400 . S
C515 C514 1.400 . S
C515 C516 1.398 . S
C515 C521 1.491 . S
C516 H507 0.950 . S
C516 C515 1.398 . S
C516 C517 1.391 . S
C517 H505 0.950 . S
C517 C513 1.393 . S
C517 C516 1.391 . S
C518 H508 0.950 . S
C518 C519 1.386 . S
C518 C520 1.391 . S
C519 C518 1.386 . S
C519 C523 1.393 . S
C520 H509 0.950 . S
C520 C518 1.391 . S
C520 C521 1.400 . S
C521 C515 1.491 . S
C521 C520 1.400 . S
C521 C522 1.398 . S
C522 H510 0.950 . S
C522 C521 1.398 . S
C522 C523 1.391 . S
C523 H511 0.950 . S
C523 C519 1.393 . S
C523 C522 1.391 . S
H524 C532 0.950 . S
H525 C537 0.950 . S
H526 C534 0.950 . S
H527 C536 0.950 . S
H528 C538 0.950 . S
H529 C540 0.949 1_455 S
H530 C542 0.950 . S
H531 C543 0.950 . S
C532 H524 0.950 . S
C532 C533 1.386 . S
C532 C534 1.391 . S
C533 C532 1.386 . S
C533 C537 1.393 . S
C534 H526 0.950 . S
C534 C532 1.391 . S
C534 C535 1.400 . S
C535 C534 1.400 . S
C535 C536 1.398 . S
C535 C541 1.491 . S
C536 H527 0.950 . S
C536 C535 1.398 . S
C536 C537 1.391 . S
C537 H525 0.950 . S
C537 C533 1.393 . S
C537 C536 1.391 . S
C538 H528 0.950 . S
C538 C539 1.386 . S
C538 C540 1.395 . S
C539 C538 1.386 . S
C539 C543 1.393 . S
C540 H529 0.949 1_655 S
C540 C538 1.395 . S
C540 C541 1.397 1_655 S
C541 C535 1.491 . S
C541 C540 1.397 1_455 S
C541 C542 1.398 . S
C542 H530 0.950 . S
C542 C541 1.398 . S
C542 C543 1.391 1_455 S
C543 H531 0.950 . S
C543 C539 1.393 . S
C543 C542 1.391 1_655 S
H544 C552 0.950 . S
H545 C557 0.950 . S
H546 C554 0.950 . S
H547 C556 0.950 . S
H548 C558 0.950 . S
H549 C560 0.950 . S
H550 C562 0.950 . S
H551 C563 0.950 . S
C552 H544 0.950 . S
C552 C553 1.386 . S
C552 C554 1.391 . S
C553 C552 1.386 . S
C553 C557 1.393 . S
C554 H546 0.950 . S
C554 C552 1.391 . S
C554 C555 1.400 . S
C555 C554 1.400 . S
C555 C556 1.398 . S
C555 C561 1.491 . S
C556 H547 0.950 . S
C556 C555 1.398 . S
C556 C557 1.391 . S
C557 H545 0.950 . S
C557 C553 1.393 . S
C557 C556 1.391 . S
C558 H548 0.950 . S
C558 C559 1.386 . S
C558 C560 1.391 . S
C559 C558 1.386 . S
C559 C563 1.393 . S
C560 H549 0.950 . S
C560 C558 1.391 . S
C560 C561 1.400 . S
C561 C555 1.491 . S
C561 C560 1.400 . S
C561 C562 1.398 . S
C562 H550 0.950 . S
C562 C561 1.398 . S
C562 C563 1.391 . S
C563 H551 0.950 . S
C563 C559 1.393 . S
C563 C562 1.391 . S
H564 C572 0.950 . S
H565 C577 0.950 . S
H566 C574 0.950 . S
H567 C576 0.950 . S
H568 C578 0.950 . S
H569 C580 0.950 . S
H570 C582 0.950 . S
H571 C583 0.950 . S
C572 H564 0.950 . S
C572 C573 1.386 . S
C572 C574 1.391 . S
C573 C572 1.386 . S
C573 C577 1.393 . S
C574 H566 0.950 . S
C574 C572 1.391 . S
C574 C575 1.400 . S
C575 C574 1.400 . S
C575 C576 1.398 . S
C575 C581 1.491 . S
C576 H567 0.950 . S
C576 C575 1.398 . S
C576 C577 1.391 . S
C577 H565 0.950 . S
C577 C573 1.393 . S
C577 C576 1.391 . S
C578 H568 0.950 . S
C578 C579 1.386 . S
C578 C580 1.391 . S
C579 C578 1.386 . S
C579 C583 1.393 . S
C580 H569 0.950 . S
C580 C578 1.391 . S
C580 C581 1.400 1_455 S
C581 C575 1.491 . S
C581 C580 1.400 1_655 S
C581 C582 1.398 . S
C582 H570 0.950 . S
C582 C581 1.398 . S
C582 C583 1.391 1_655 S
C583 H571 0.950 . S
C583 C579 1.393 . S
C583 C582 1.391 1_455 S
H584 C592 0.950 . S
H585 C597 0.950 . S
H586 C594 0.950 . S
H587 C596 0.950 . S
H588 C598 0.950 . S
H589 C600 0.950 . S
H590 C602 0.950 . S
H591 C603 0.950 . S
C592 H584 0.950 . S
C592 C593 1.386 . S
C592 C594 1.391 . S
C593 C592 1.386 . S
C593 C597 1.393 . S
C594 H586 0.950 . S
C594 C592 1.391 . S
C594 C595 1.400 . S
C595 C594 1.400 . S
C595 C596 1.398 . S
C595 C601 1.491 . S
C596 H587 0.950 . S
C596 C595 1.398 . S
C596 C597 1.391 . S
C597 H585 0.950 . S
C597 C593 1.393 . S
C597 C596 1.391 . S
C598 H588 0.950 . S
C598 C599 1.386 . S
C598 C600 1.391 . S
C599 C598 1.386 . S
C599 C603 1.393 . S
C600 H589 0.950 . S
C600 C598 1.391 . S
C600 C601 1.400 . S
C601 C595 1.491 . S
C601 C600 1.400 . S
C601 C602 1.398 . S
C602 H590 0.950 . S
C602 C601 1.398 . S
C602 C603 1.391 . S
C603 H591 0.950 . S
C603 C599 1.393 . S
C603 C602 1.391 . S
H604 C612 0.950 . S
H605 C617 0.950 . S
H606 C614 0.950 . S
H607 C616 0.950 . S
H608 C618 0.950 . S
H609 C620 0.950 . S
H610 C622 0.950 . S
H611 C623 0.950 . S
C612 H604 0.950 . S
C612 C613 1.386 . S
C612 C614 1.391 . S
C613 C612 1.386 . S
C613 C617 1.393 . S
C614 H606 0.950 . S
C614 C612 1.391 . S
C614 C615 1.400 . S
C615 C614 1.400 . S
C615 C616 1.398 . S
C615 C621 1.491 . S
C616 H607 0.950 . S
C616 C615 1.398 . S
C616 C617 1.391 . S
C617 H605 0.950 . S
C617 C613 1.393 . S
C617 C616 1.391 . S
C618 H608 0.950 . S
C618 C619 1.386 . S
C618 C620 1.391 . S
C619 C618 1.386 . S
C619 C623 1.393 . S
C620 H609 0.950 . S
C620 C618 1.391 . S
C620 C621 1.400 . S
C621 C615 1.491 . S
C621 C620 1.400 . S
C621 C622 1.398 . S
C622 H610 0.950 . S
C622 C621 1.398 . S
C622 C623 1.391 . S
C623 H611 0.950 . S
C623 C619 1.393 . S
C623 C622 1.391 . S
H624 C632 0.950 . S
H625 C637 0.950 . S
H626 C634 0.950 . S
H627 C636 0.950 . S
H628 C638 0.950 . S
H629 C640 0.950 . S
H630 C642 0.950 . S
H631 C643 0.950 . S
C632 H624 0.950 . S
C632 C633 1.386 . S
C632 C634 1.391 . S
C633 C632 1.386 . S
C633 C637 1.393 . S
C634 H626 0.950 . S
C634 C632 1.391 . S
C634 C635 1.400 . S
C635 C634 1.400 . S
C635 C636 1.398 . S
C635 C641 1.491 . S
C636 H627 0.950 . S
C636 C635 1.398 . S
C636 C637 1.391 . S
C637 H625 0.950 . S
C637 C633 1.393 . S
C637 C636 1.391 . S
C638 H628 0.950 . S
C638 C639 1.386 . S
C638 C640 1.391 . S
C639 C638 1.386 . S
C639 C643 1.393 . S
C640 H629 0.950 . S
C640 C638 1.391 . S
C640 C641 1.400 . S
C641 C635 1.491 . S
C641 C640 1.400 . S
C641 C642 1.398 . S
C642 H630 0.950 . S
C642 C641 1.398 . S
C642 C643 1.391 . S
C643 H631 0.950 . S
C643 C639 1.393 . S
C643 C642 1.391 . S
H644 C652 0.950 . S
H645 C657 0.950 1_554 S
H646 C654 0.950 . S
H647 C656 0.950 . S
H648 C658 0.950 . S
H649 C660 0.950 . S
H650 C662 0.950 . S
H651 C663 0.950 1_556 S
C652 H644 0.950 . S
C652 C653 1.386 . S
C652 C654 1.391 . S
C653 C652 1.386 . S
C653 C657 1.393 . S
C654 H646 0.950 . S
C654 C652 1.391 . S
C654 C655 1.400 . S
C655 C654 1.400 . S
C655 C656 1.398 1_556 S
C655 C661 1.491 1_556 S
C656 H647 0.950 . S
C656 C655 1.398 1_554 S
C656 C657 1.391 1_554 S
C657 H645 0.950 1_556 S
C657 C653 1.393 . S
C657 C656 1.391 1_556 S
C658 H648 0.950 . S
C658 C659 1.386 . S
C658 C660 1.391 . S
C659 C658 1.386 . S
C659 C663 1.393 . S
C660 H649 0.950 . S
C660 C658 1.391 . S
C660 C661 1.400 . S
C661 C655 1.491 1_554 S
C661 C660 1.400 . S
C661 C662 1.398 1_554 S
C662 H650 0.950 . S
C662 C661 1.398 1_556 S
C662 C663 1.391 1_556 S
C663 H651 0.950 1_554 S
C663 C659 1.393 . S
C663 C662 1.391 1_554 S
C273 C18 1.184 . S
C279 C40 1.184 . S
C293 C73 1.193 1_455 S
C299 C51 1.184 . S
C313 C106 1.180 . S
C319 C84 1.192 . S
C333 C117 1.194 . S
C339 C7 1.181 1_655 S
C353 C150 1.195 . S
C359 C238 1.185 1_545 S
C373 C183 1.183 . S
C379 C139 1.191 . S
C393 C216 1.188 . S
C399 C172 1.181 1_565 S
C413 C249 1.183 . S
C419 C205 1.187 . S
C433 N211 1.614 . S
C439 C21 1.651 . S
C453 N244 1.596 . S
C459 C54 1.644 . S
C473 N145 1.596 . S
C479 C87 1.644 . S
C493 N178 1.612 . S
C499 C120 1.647 . S
C513 C153 1.643 . S
C519 N79 1.602 . S
C533 C186 1.645 . S
C539 N112 1.608 . S
C553 C219 1.645 . S
C559 N13 1.607 . S
C573 C252 1.646 . S
C579 N46 1.610 . S
C593 N233 1.217 . S
C599 N2 1.217 . S
C613 N134 1.216 . S
C619 N35 1.216 . S
C633 N68 1.241 . S
C639 N167 1.242 . S
C653 N101 1.224 . S
C659 N200 1.225 . S
