# Generated by pormake.
# Topology wme, (6)-cn, num edge types: 1
# Building blocks:
#     Node 0, Type 0, BuildingBlock: KUMBUR_clean_sbu_1, # of connection points: 6
#     Node 1, Type 0, BuildingBlock: KUMBUR_clean_sbu_1, # of connection points: 6
#     Node 2, Type 0, BuildingBlock: KUMBUR_clean_sbu_1, # of connection points: 6
#     Node 3, Type 0, BuildingBlock: KUMBUR_clean_sbu_1, # of connection points: 6
#     Node 4, Type 0, BuildingBlock: KUMBUR_clean_sbu_1, # of connection points: 6
#     Node 5, Type 0, BuildingBlock: KUMBUR_clean_sbu_1, # of connection points: 6
#     Node 6, Type 0, BuildingBlock: KUMBUR_clean_sbu_1, # of connection points: 6
#     Node 7, Type 0, BuildingBlock: KUMBUR_clean_sbu_1, # of connection points: 6
#     Node 8, Type 0, BuildingBlock: KUMBUR_clean_sbu_1, # of connection points: 6
#     Node 9, Type 0, BuildingBlock: KUMBUR_clean_sbu_1, # of connection points: 6
#     Node 10, Type 0, BuildingBlock: KUMBUR_clean_sbu_1, # of connection points: 6
#     Node 11, Type 0, BuildingBlock: KUMBUR_clean_sbu_1, # of connection points: 6
#     Edge 12, Type (0, 0), BuildingBlock: EZIPEK_clean_linker_0, # of connection points: 2
#     Edge 13, Type (0, 0), BuildingBlock: EZIPEK_clean_linker_0, # of connection points: 2
#     Edge 14, Type (0, 0), BuildingBlock: EZIPEK_clean_linker_0, # of connection points: 2
#     Edge 15, Type (0, 0), BuildingBlock: EZIPEK_clean_linker_0, # of connection points: 2
#     Edge 16, Type (0, 0), BuildingBlock: EZIPEK_clean_linker_0, # of connection points: 2
#     Edge 17, Type (0, 0), BuildingBlock: EZIPEK_clean_linker_0, # of connection points: 2
#     Edge 18, Type (0, 0), BuildingBlock: EZIPEK_clean_linker_0, # of connection points: 2
#     Edge 19, Type (0, 0), BuildingBlock: EZIPEK_clean_linker_0, # of connection points: 2
#     Edge 20, Type (0, 0), BuildingBlock: EZIPEK_clean_linker_0, # of connection points: 2
#     Edge 21, Type (0, 0), BuildingBlock: EZIPEK_clean_linker_0, # of connection points: 2
#     Edge 22, Type (0, 0), BuildingBlock: EZIPEK_clean_linker_0, # of connection points: 2
#     Edge 23, Type (0, 0), BuildingBlock: EZIPEK_clean_linker_0, # of connection points: 2
#     Edge 24, Type (0, 0), BuildingBlock: EZIPEK_clean_linker_0, # of connection points: 2
#     Edge 25, Type (0, 0), BuildingBlock: EZIPEK_clean_linker_0, # of connection points: 2
#     Edge 26, Type (0, 0), BuildingBlock: EZIPEK_clean_linker_0, # of connection points: 2
#     Edge 27, Type (0, 0), BuildingBlock: EZIPEK_clean_linker_0, # of connection points: 2
#     Edge 28, Type (0, 0), BuildingBlock: EZIPEK_clean_linker_0, # of connection points: 2
#     Edge 29, Type (0, 0), BuildingBlock: EZIPEK_clean_linker_0, # of connection points: 2
#     Edge 30, Type (0, 0), BuildingBlock: EZIPEK_clean_linker_0, # of connection points: 2
#     Edge 31, Type (0, 0), BuildingBlock: EZIPEK_clean_linker_0, # of connection points: 2
#     Edge 32, Type (0, 0), BuildingBlock: EZIPEK_clean_linker_0, # of connection points: 2
#     Edge 33, Type (0, 0), BuildingBlock: EZIPEK_clean_linker_0, # of connection points: 2
#     Edge 34, Type (0, 0), BuildingBlock: EZIPEK_clean_linker_0, # of connection points: 2
#     Edge 35, Type (0, 0), BuildingBlock: EZIPEK_clean_linker_0, # of connection points: 2
#     Edge 36, Type (0, 0), BuildingBlock: EZIPEK_clean_linker_0, # of connection points: 2
#     Edge 37, Type (0, 0), BuildingBlock: EZIPEK_clean_linker_0, # of connection points: 2
#     Edge 38, Type (0, 0), BuildingBlock: EZIPEK_clean_linker_0, # of connection points: 2
#     Edge 39, Type (0, 0), BuildingBlock: EZIPEK_clean_linker_0, # of connection points: 2
#     Edge 40, Type (0, 0), BuildingBlock: EZIPEK_clean_linker_0, # of connection points: 2
#     Edge 41, Type (0, 0), BuildingBlock: EZIPEK_clean_linker_0, # of connection points: 2
#     Edge 42, Type (0, 0), BuildingBlock: EZIPEK_clean_linker_0, # of connection points: 2
#     Edge 43, Type (0, 0), BuildingBlock: EZIPEK_clean_linker_0, # of connection points: 2
#     Edge 44, Type (0, 0), BuildingBlock: EZIPEK_clean_linker_0, # of connection points: 2
#     Edge 45, Type (0, 0), BuildingBlock: EZIPEK_clean_linker_0, # of connection points: 2
#     Edge 46, Type (0, 0), BuildingBlock: EZIPEK_clean_linker_0, # of connection points: 2
#     Edge 47, Type (0, 0), BuildingBlock: EZIPEK_clean_linker_0, # of connection points: 2
# Relax obj value: 0.062
# Max RMSD: 0.180
# Mean RMSD: 0.180
data_MOF--net-wme--node1-KUMBUR_clean_sbu_1--edge1-EZIPEK_clean_linker_0
_symmetry_space_group_name_H-M    P1
_symmetry_Int_Tables_number       1
_symmetry_cell_setting            triclinic
loop_
_symmetry_equiv_pos_as_xyz
'x, y, z'
_cell_length_a     31.193676
_cell_length_b     31.21928
_cell_length_c     38.8983
_cell_angle_alpha  90.134305
_cell_angle_beta   89.835511
_cell_angle_gamma 119.94193
loop_
_atom_site_label
_atom_site_type_symbol
_atom_site_fract_x
_atom_site_fract_y
_atom_site_fract_z
_atom_type_partial_charge
Tb0 Tb 0.26733 0.29995 0.13416 0.0
C1 C 0.11799 0.34982 0.05277 0.0
N2 N 0.16727 0.36664 0.04917 0.0
C3 C 0.15856 0.36312 0.98773 0.0
C4 C 0.08685 0.33765 0.02386 0.0
C5 C 0.188 0.37461 0.01709 0.0
C6 C 0.10784 0.34461 0.99115 0.0
C7 C 0.04871 0.33294 0.08996 0.0
C8 C 0.09924 0.34799 0.08543 0.0
C9 C 1.01713 0.31821 0.06139 0.0
C10 C 0.03625 0.32101 0.02837 0.0
Tb11 Tb 0.21191 0.38796 0.09905 0.0
N12 N 0.13109 0.36382 0.11243 0.0
C13 C 0.03184 0.33545 0.12281 0.0
C14 C 0.11531 0.37018 0.14397 0.0
C15 C 0.06553 0.35523 0.14973 0.0
H16 H 0.22748 0.39161 0.01368 0.0
H17 H 0.05334 0.35979 0.17483 0.0
H18 H 0.25927 0.28412 0.22011 0.0
H19 H 0.41764 0.32422 0.05275 0.0
H20 H 0.14061 0.38739 0.16502 0.0
H21 H 0.99339 0.32437 0.12732 0.0
H22 H 0.32995 0.29261 0.06866 0.0
H23 H 0.17524 0.36981 0.96244 0.0
H24 H 0.97824 0.3064 0.06441 0.0
H25 H 1.01184 0.31152 0.00643 0.0
H26 H 0.31558 0.31245 0.26955 0.0
H27 H 0.08556 0.33792 0.96844 0.0
H28 H 0.48328 0.36754 0.09635 0.0
N29 N 0.3161 0.31872 0.18269 0.0
C30 C 0.36548 0.34013 0.1771 0.0
C31 C 0.3303 0.32162 0.24369 0.0
C32 C 0.39952 0.35579 0.20453 0.0
C33 C 0.29825 0.30641 0.21553 0.0
C34 C 0.3813 0.34761 0.2382 0.0
N35 N 0.34659 0.32269 0.11884 0.0
C36 C 0.35862 0.31341 0.08708 0.0
C37 C 0.43167 0.35941 0.13663 0.0
C38 C 0.38136 0.34196 0.14385 0.0
C39 C 0.44502 0.35475 0.10303 0.0
C40 C 0.40811 0.33038 0.07835 0.0
H41 H 0.40612 0.35886 0.26002 0.0
H42 H 0.47709 0.38963 0.21808 0.0
H43 H 0.50534 0.3928 0.15843 0.0
O44 O 0.25335 0.23449 0.10804 0.0
O45 O 0.32301 0.37613 0.11425 0.0
O46 O 0.28197 0.41728 0.12669 0.0
O47 O 0.24712 0.23525 0.16255 0.0
O48 O 0.2395 0.29353 0.08168 0.0
O49 O 0.25656 0.369 0.062 0.0
O50 O 0.2067 0.44915 0.11721 0.0
O51 O 0.16211 0.30729 0.09712 0.0
O52 O 0.18776 0.27662 0.14197 0.0
O53 O 0.2424 0.45322 0.06947 0.0
O54 O 0.20982 0.37938 0.15594 0.0
O55 O 0.24443 0.33251 0.17563 0.0
C56 C 0.3219 0.41824 0.1153 0.0
C57 C 0.2646 0.17546 0.13976 0.0
C58 C 0.25232 0.09147 0.14298 0.0
C59 C 0.30241 0.11173 0.15161 0.0
C60 C 0.31454 0.19468 0.14829 0.0
C61 C 0.33324 0.16293 0.15411 0.0
C62 C 0.2335 0.12363 0.13696 0.0
C63 C 0.25927 0.328 0.05815 0.0
C64 C 0.24371 0.20862 0.13602 0.0
C65 C 0.45027 0.37671 0.19742 0.0
C66 C 0.46635 0.37851 0.16346 0.0
C67 C 0.15285 0.27453 0.12149 0.0
C68 C 0.20655 0.50558 0.07581 0.0
C69 C 0.17258 0.5616 0.08352 0.0
C70 C 0.17941 0.57192 0.04811 0.0
C71 C 0.21198 0.51661 0.04052 0.0
C72 C 0.18601 0.52785 0.0973 0.0
C73 C 0.1984 0.54933 0.02689 0.0
C74 C 0.22331 0.35968 0.18098 0.0
C75 C 0.22782 0.476 0.0904 0.0
H76 H 0.31765 0.08778 0.15633 0.0
H77 H 0.33888 0.23415 0.15091 0.0
H78 H 0.37178 0.17808 0.16084 0.0
H79 H 0.19477 0.10833 0.13058 0.0
H80 H 0.16963 0.59754 0.03673 0.0
H81 H 0.22786 0.5008 0.02338 0.0
H82 H 0.18142 0.51982 0.12458 0.0
H83 H 0.20319 0.55773 0.99969 0.0
Tb84 Tb 0.97101 0.26203 0.62823 0.0
C85 C 0.78698 0.11968 0.53412 0.0
N86 N 0.81573 0.1699 0.53507 0.0
C87 C 0.80959 0.17325 0.47361 0.0
C88 C 0.76792 0.09457 0.50271 0.0
C89 C 0.82613 0.1968 0.50531 0.0
C90 C 0.78008 0.12202 0.4723 0.0
C91 C 0.73883 0.04222 0.565 0.0
C92 C 0.77142 0.09377 0.56496 0.0
C93 C 0.72093 0.01718 0.53374 0.0
C94 C 0.73447 0.04348 0.50281 0.0
Tb95 Tb 0.83047 0.20323 0.58927 0.0
N96 N 0.78608 0.1195 0.59496 0.0
C97 C 0.72305 0.01772 0.59655 0.0
C98 C 0.76834 0.09616 0.62578 0.0
C99 C 0.73774 0.04484 0.62705 0.0
H100 H 0.84484 0.23668 0.50571 0.0
H101 H 0.72464 0.02628 0.65148 0.0
H102 H 0.96733 0.21035 0.70269 0.0
H103 H 0.09323 0.44706 0.58155 0.0
H104 H 0.77821 0.117 0.64943 0.0
H105 H 0.69828 0.97811 0.5976 0.0
H106 H 0.03476 0.3573 0.57628 0.0
H107 H 0.8178 0.19485 0.4503 0.0
H108 H 0.69503 0.97777 0.53326 0.0
H109 H 0.71762 0.02411 0.47917 0.0
H110 H 1.0018 0.23757 0.7611 0.0
H111 H 0.76523 0.10432 0.44782 0.0
H112 H 0.12144 0.48444 0.63918 0.0
N113 N 1.00053 0.28346 0.68282 0.0
C114 C 0.031 0.3322 0.68897 0.0
C115 C 1.01018 0.26458 0.74106 0.0
C116 C 0.05114 0.34951 0.72185 0.0
C117 C 0.99083 0.24932 0.708 0.0
C118 C 0.0398 0.31496 0.7482 0.0
N119 N 0.0271 0.34496 0.63006 0.0
C120 C 0.04611 0.37364 0.60138 0.0
C121 C 0.07874 0.41492 0.66602 0.0
C122 C 0.04453 0.36425 0.66158 0.0
C123 C 0.09519 0.44528 0.63691 0.0
C124 C 0.07941 0.42433 0.60436 0.0
H125 H 0.05456 0.32667 0.77385 0.0
H126 H 0.09861 0.41456 0.75213 0.0
H127 H 0.12282 0.47199 0.70312 0.0
O128 O 0.03336 0.27338 0.59935 0.0
O129 O 0.94845 0.31633 0.60869 0.0
O130 O 0.86281 0.27646 0.61274 0.0
O131 O 1.004 0.21883 0.63909 0.0
O132 O 0.94445 0.23088 0.57796 0.0
O133 O 0.89433 0.25344 0.55427 0.0
O134 O 0.76278 0.18748 0.61199 0.0
O135 O 0.86229 0.15439 0.59584 0.0
O136 O 0.91619 0.18539 0.64193 0.0
O137 O 0.78024 0.21751 0.56161 0.0
O138 O 0.83563 0.20775 0.6465 0.0
O139 O 0.91633 0.2506 0.66834 0.0
C140 C 0.90576 0.31674 0.60883 0.0
C141 C 0.08944 0.25435 0.62786 0.0
C142 C 0.15497 0.23313 0.63443 0.0
C143 C 0.18508 0.27953 0.64964 0.0
C144 C 0.12045 0.30047 0.64303 0.0
C145 C 0.16787 0.31281 0.65394 0.0
C146 C 0.10672 0.22049 0.62387 0.0
C147 C 0.93766 0.25544 0.55381 0.0
C148 C 0.03893 0.24073 0.6165 0.0
C149 C 0.08315 0.40037 0.72697 0.0
C150 C 0.09689 0.43307 0.69907 0.0
C151 C 0.88547 0.14835 0.62213 0.0
C152 C 0.69427 0.16357 0.57545 0.0
C153 C 0.60441 0.12631 0.58485 0.0
C154 C 0.59615 0.09454 0.55697 0.0
C155 C 0.68419 0.1329 0.54665 0.0
C156 C 0.65386 0.16 0.59472 0.0
C157 C 0.63573 0.09784 0.53808 0.0
C158 C 0.86758 0.22939 0.67214 0.0
C159 C 0.74635 0.19944 0.58539 0.0
H160 H 0.22197 0.28997 0.6583 0.0
H161 H 0.10811 0.32697 0.64644 0.0
H162 H 0.19146 0.34844 0.66574 0.0
H163 H 0.08294 0.18459 0.61239 0.0
H164 H 0.55877 0.06877 0.54871 0.0
H165 H 0.71358 0.13654 0.53023 0.0
H166 H 0.66073 0.18492 0.61609 0.0
H167 H 0.62875 0.07421 0.51592 0.0
Tb168 Tb 0.72449 0.97092 0.14197 0.0
C169 C 0.72332 0.79717 0.06995 0.0
N170 N 0.69686 0.81746 0.05749 0.0
C171 C 0.72637 0.81725 0.00075 0.0
C172 C 0.75497 0.7891 0.04868 0.0
C173 C 0.69562 0.82483 0.02311 0.0
C174 C 0.75756 0.80111 0.01388 0.0
C175 C 0.73996 0.75779 0.11738 0.0
C176 C 0.71729 0.78352 0.1041 0.0
C177 C 0.77404 0.75214 0.09694 0.0
C178 C 0.78206 0.76849 0.06272 0.0
Tb179 Tb 0.65579 0.83735 0.09708 0.0
N180 N 0.68565 0.79167 0.12331 0.0
C181 C 0.72549 0.73629 0.14993 0.0
C182 C 0.66658 0.76517 0.15288 0.0
C183 C 0.68702 0.73817 0.16706 0.0
H184 H 0.6721 0.83817 0.01315 0.0
H185 H 0.67307 0.71896 0.19119 0.0
H186 H 0.74848 0.96507 0.22448 0.0
H187 H 0.61728 0.0411 0.07754 0.0
H188 H 0.63577 0.76468 0.16588 0.0
H189 H 0.74152 0.7157 0.16105 0.0
H190 H 0.66509 0.9984 0.08069 0.0
H191 H 0.72638 0.82452 0.97359 0.0
H192 H 0.79313 0.73385 0.10694 0.0
H193 H 0.80808 0.76367 0.04704 0.0
H194 H 0.72904 0.99027 0.27977 0.0
H195 H 0.78187 0.79588 0.99689 0.0
H196 H 0.59755 0.07126 0.13073 0.0
N197 N 0.70862 0.99096 0.19489 0.0
C198 C 0.68144 0.01412 0.19521 0.0
C199 C 0.71541 0.99696 0.2562 0.0
C200 C 0.67015 0.02952 0.22633 0.0
C201 C 0.72578 0.98224 0.22481 0.0
C202 C 0.68764 0.02078 0.25698 0.0
N203 N 0.67614 1.00682 0.13462 0.0
C204 C 0.65925 0.01347 0.10379 0.0
C205 C 0.63661 0.04642 0.16371 0.0
C206 C 0.66524 0.02288 0.16418 0.0
C207 C 0.61975 0.05349 0.13213 0.0
C208 C 0.63097 0.03674 0.10206 0.0
H209 H 0.68001 0.03251 0.28133 0.0
H210 H 0.63302 0.06534 0.24966 0.0
H211 H 0.60338 0.07985 0.19483 0.0
O212 O 0.79175 0.01921 0.11647 0.0
O213 O 0.64131 0.93031 0.13749 0.0
O214 O 0.61975 0.88046 0.08972 0.0
O215 O 0.77651 0.03747 0.16609 0.0
O216 O 0.73568 0.97231 0.08667 0.0
O217 O 0.67446 0.9015 0.05963 0.0
O218 O 0.5878 0.77708 0.11472 0.0
O219 O 0.73787 0.88245 0.09629 0.0
O220 O 0.75915 0.92494 0.14689 0.0
O221 O 0.60698 0.78319 0.06177 0.0
O222 O 0.64306 0.84419 0.15328 0.0
O223 O 0.71501 0.90989 0.17437 0.0
C224 C 0.60817 0.90181 0.11413 0.0
C225 C 0.86068 0.06347 0.15366 0.0
C226 C 0.95165 0.11428 0.14978 0.0
C227 C 0.95541 0.08735 0.17729 0.0
C228 C 0.86629 0.03876 0.18185 0.0
C229 C 0.91314 0.05003 0.19316 0.0
C230 C 0.90385 0.10177 0.13759 0.0
C231 C 0.70941 0.95018 0.05948 0.0
C232 C 0.80977 0.04982 0.14218 0.0
C233 C 0.64205 0.05333 0.22593 0.0
C234 C 0.62526 0.06169 0.19471 0.0
C235 C 0.76989 0.90409 0.12146 0.0
C236 C 0.56339 0.70071 0.08519 0.0
C237 C 0.50543 0.611 0.09582 0.0
C238 C 0.54083 0.60096 0.08147 0.0
C239 C 0.59698 0.68799 0.07094 0.0
C240 C 0.51743 0.66165 0.09824 0.0
C241 C 0.58603 0.63894 0.06945 0.0
C242 C 0.67419 0.86727 0.17893 0.0
C243 C 0.57651 0.75434 0.0853 0.0
H244 H 0.99139 0.09632 0.1872 0.0
H245 H 0.83422 1.01109 0.19556 0.0
H246 H 0.9167 0.03036 0.21484 0.0
H247 H 0.90034 0.12242 0.11651 0.0
H248 H 0.53302 0.56315 0.07902 0.0
H249 H 0.6318 0.71595 0.06034 0.0
H250 H 0.49064 0.67034 0.10906 0.0
H251 H 0.61254 0.63018 0.05823 0.0
Tb252 Tb 0.75858 0.72081 0.65274 0.0
C253 C 0.92021 0.69278 0.58465 0.0
N254 N 0.87591 0.68591 0.57369 0.0
C255 C 0.91089 0.72309 0.51956 0.0
C256 C 0.96138 0.71317 0.56255 0.0
C257 C 0.87029 0.69926 0.54135 0.0
C258 C 0.95661 0.73061 0.53036 0.0
C259 C 0.96655 0.676 0.62715 0.0
C260 C 0.92308 0.676 0.61723 0.0
C261 C 1.0071 0.69467 0.60484 0.0
C262 C 1.0044 0.71276 0.57268 0.0
Tb263 Tb 0.81166 0.64069 0.6092 0.0
N264 N 0.88181 0.65465 0.63738 0.0
C265 C 0.96662 0.65296 0.65775 0.0
C266 C 0.88162 0.6305 0.66685 0.0
C267 C 0.92406 0.63038 0.67781 0.0
H268 H 0.83483 0.69236 0.53263 0.0
H269 H 0.923 0.61032 0.70076 0.0
H270 H 0.81156 0.76189 0.72919 0.0
H271 H 0.56533 0.63207 0.61332 0.0
H272 H 0.84804 0.60698 0.68065 0.0
H273 H 0.99855 0.65005 0.66505 0.0
H274 H 0.65467 0.6728 0.60394 0.0
H275 H 0.90689 0.73544 0.4944 0.0
H276 H 0.04017 0.69347 0.61164 0.0
H277 H 0.03475 0.72257 0.55544 0.0
H278 H 0.78414 0.76279 0.7883 0.0
H279 H 0.98746 0.75032 0.51335 0.0
H280 H 0.53204 0.6178 0.67247 0.0
N281 N 0.73858 0.71811 0.70946 0.0
C282 C 0.68928 0.69442 0.7166 0.0
C283 C 0.75712 0.743 0.76847 0.0
C284 C 0.67216 0.69376 0.7503 0.0
C285 C 0.7725 0.74227 0.73485 0.0
C286 C 0.70673 0.71918 0.77608 0.0
N287 N 0.67344 0.68066 0.65688 0.0
C288 C 0.64133 0.66768 0.62975 0.0
C289 C 0.60441 0.6522 0.69618 0.0
C290 C 0.65576 0.6748 0.68962 0.0
C291 C 0.57165 0.63563 0.66843 0.0
C292 C 0.59027 0.64389 0.63505 0.0
H293 H 0.69456 0.72209 0.80157 0.0
H294 H 0.60748 0.66861 0.78283 0.0
H295 H 0.54811 0.63125 0.73552 0.0
O296 O 0.78685 0.78871 0.62581 0.0
O297 O 0.70492 0.63881 0.64327 0.0
O298 O 0.73354 0.60599 0.60117 0.0
O299 O 0.7448 0.77655 0.67139 0.0
O300 O 0.77121 0.72854 0.59728 0.0
O301 O 0.76518 0.65882 0.5732 0.0
O302 O 0.80454 0.57039 0.61977 0.0
O303 O 0.85544 0.72237 0.60734 0.0
O304 O 0.8391 0.74929 0.65772 0.0
O305 O 0.81316 0.59657 0.56846 0.0
O306 O 0.78933 0.62837 0.66516 0.0
O307 O 0.80586 0.70448 0.68436 0.0
C308 C 0.69873 0.60313 0.62125 0.0
C309 C 0.80743 0.85921 0.66044 0.0
C310 C 0.84776 0.95001 0.65751 0.0
C311 C 0.87968 0.95319 0.68406 0.0
C312 C 0.83773 0.86429 0.68843 0.0
C313 C 0.87423 0.91067 0.69964 0.0
C314 C 0.81185 0.90255 0.64526 0.0
C315 C 0.75526 0.69608 0.57249 0.0
C316 C 0.77096 0.80869 0.64807 0.0
C317 C 0.62116 0.66989 0.75699 0.0
C318 C 0.58736 0.64867 0.73005 0.0
C319 C 0.86947 0.75568 0.63195 0.0
C320 C 0.85409 0.55071 0.58229 0.0
C321 C 0.89099 0.49651 0.58913 0.0
C322 C 0.92968 0.52828 0.56726 0.0
C323 C 0.89281 0.57977 0.55936 0.0
C324 C 0.85353 0.50868 0.5974 0.0
C325 C 0.93061 0.56942 0.55269 0.0
C326 C 0.80139 0.66109 0.69041 0.0
C327 C 0.81378 0.56344 0.58834 0.0
H328 H 0.90758 0.9889 0.69377 0.0
H329 H 0.83279 0.83218 0.70189 0.0
H330 H 0.89782 0.91367 0.72096 0.0
H331 H 0.78717 0.89945 0.62464 0.0
H332 H 0.95863 0.52019 0.56047 0.0
H333 H 0.8938 0.61047 0.54591 0.0
H334 H 0.82326 0.48453 0.61415 0.0
H335 H 0.96022 0.59278 0.53523 0.0
Tb336 Tb 0.06009 0.76554 0.14221 0.0
C337 C 0.25767 0.90211 0.06166 0.0
N338 N 0.21953 0.85543 0.05632 0.0
C339 C 0.20666 0.87851 1.00028 0.0
C340 C 0.27116 0.93914 0.0367 0.0
C341 C 0.19706 0.84246 0.02484 0.0
C342 C 0.24251 0.92727 0.0068 0.0
C343 C 0.32652 0.95867 0.0975 0.0
C344 C 0.28424 0.91224 0.09192 0.0
C345 C 0.34036 0.9958 0.07271 0.0
C346 C 0.31284 0.98603 0.04241 0.0
Tb347 Tb 0.19985 0.8039 0.10268 0.0
N348 N 0.26937 0.87569 0.11545 0.0
C349 C 0.35452 0.96559 0.12722 0.0
C350 C 0.29823 0.88073 0.14311 0.0
C351 C 0.34085 0.92606 0.14978 0.0
H352 H 0.17164 0.80468 0.01796 0.0
H353 H 0.363 0.93045 0.17229 0.0
H354 H 0.06259 0.80376 0.22281 0.0
H355 H 0.9379 0.59299 0.07976 0.0
H356 H 0.28791 0.85003 0.1604 0.0
H357 H 0.38746 1.00071 0.1324 0.0
H358 H 0.99864 0.68259 0.08234 0.0
H359 H 0.18654 0.86865 0.97624 0.0
H360 H 0.37294 0.03177 0.07631 0.0
H361 H 0.3259 0.01444 0.02312 0.0
H362 H 0.02848 0.76482 0.2788 0.0
H363 H 0.24727 0.95461 0.98826 0.0
H364 H 0.90767 0.54478 0.13367 0.0
N365 N 0.02983 0.73545 0.19553 0.0
C366 C 0.99876 0.68579 0.19697 0.0
C367 C 0.01967 0.74208 0.25604 0.0
C368 C 0.97779 0.66204 0.22837 0.0
C369 C 0.03943 0.76401 0.22431 0.0
C370 C 0.98924 0.69082 0.25823 0.0
N371 N 1.00521 0.68366 0.13657 0.0
C372 C 0.98619 0.6615 0.10579 0.0
C373 C 0.95061 0.60821 0.16648 0.0
C374 C 0.98559 0.65909 0.16647 0.0
C375 C 0.93457 0.58388 0.13483 0.0
C376 C 0.95155 0.61095 0.10434 0.0
H377 H 0.97399 0.67403 0.28292 0.0
H378 H 0.92893 0.59171 0.25271 0.0
H379 H 0.90492 0.54463 0.19849 0.0
O380 O 1.00639 0.76556 0.10938 0.0
O381 O 0.08204 0.70639 0.1419 0.0
O382 O 0.13672 0.73102 0.09776 0.0
O383 O 1.01065 0.78718 0.16209 0.0
O384 O 0.08765 0.7952 0.09109 0.0
O385 O 0.13393 0.7662 0.06786 0.0
O386 O 0.2358 0.76709 0.12257 0.0
O387 O 0.18829 0.86554 0.11785 0.0
O388 O 0.11382 0.84515 0.14673 0.0
O389 O 0.25045 0.79576 0.0706 0.0
O390 O 0.19156 0.79857 0.15977 0.0
O391 O 0.11971 0.79812 0.18023 0.0
C392 C 0.11505 0.70134 0.12335 0.0
C393 C 0.98654 0.82795 0.12192 0.0
C394 C 0.93994 0.87183 0.11471 0.0
C395 C 0.98375 0.91372 0.1038 0.0
C396 C 0.02943 0.87051 0.11075 0.0
C397 C 0.02795 0.9129 0.10166 0.0
C398 C 0.94135 0.82842 0.12341 0.0
C399 C 0.09441 0.77163 0.06588 0.0
C400 C 0.98982 0.78398 0.13254 0.0
C401 C 0.94504 0.61073 0.22878 0.0
C402 C 0.93141 0.58388 0.19789 0.0
C403 C 0.15782 0.8771 0.13379 0.0
C404 C 0.30792 0.7722 0.09449 0.0
C405 C 0.39838 0.80817 0.10083 0.0
C406 C 0.39242 0.76141 0.09374 0.0
C407 C 0.30424 0.72644 0.0873 0.0
C408 C 0.35558 0.81377 0.10128 0.0
C409 C 0.34591 0.72107 0.08706 0.0
C410 C 0.16338 0.80139 0.18454 0.0
C411 C 0.26003 0.77219 0.09414 0.0
H412 H 0.98369 0.94733 0.097 0.0
H413 H 0.06425 0.87106 0.10894 0.0
H414 H 0.06139 0.94544 0.09313 0.0
H415 H 0.90787 0.79582 0.1319 0.0
H416 H 0.42424 0.75614 0.09323 0.0
H417 H 0.2686 0.69433 0.08171 0.0
H418 H 0.35944 0.84958 0.10654 0.0
H419 H 0.34213 0.68535 0.08152 0.0
Tb420 Tb 0.29736 0.05449 0.6343 0.0
C421 C 0.36383 0.25513 0.54018 0.0
N422 N 0.37576 0.21872 0.53998 0.0
C423 C 0.39767 0.23408 0.48023 0.0
C424 C 0.37048 0.28387 0.51065 0.0
C425 C 0.39197 0.20749 0.5104 0.0
C426 C 0.38827 0.27331 0.48061 0.0
C427 C 0.33431 0.30272 0.57173 0.0
C428 C 0.34699 0.26525 0.5706 0.0
C429 C 0.3412 0.33157 0.54239 0.0
C430 C 0.35999 0.32269 0.51214 0.0
Tb431 Tb 0.3819 0.19311 0.59365 0.0
N432 N 0.34434 0.23927 0.59926 0.0
C433 C 0.31653 0.31107 0.60265 0.0
C434 C 0.32799 0.24795 0.62967 0.0
C435 C 0.31308 0.28329 0.63168 0.0
H436 H 0.40393 0.1805 0.51017 0.0
H437 H 0.29986 0.28968 0.65582 0.0
H438 H 0.27969 0.05226 0.71934 0.0
H439 H 0.31921 0.92452 0.55565 0.0
H440 H 0.32539 0.22685 0.65223 0.0
H441 H 0.30594 0.33919 0.60448 0.0
H442 H 0.29026 0.98332 0.56959 0.0
H443 H 0.41149 0.22575 0.4571 0.0
H444 H 0.33246 0.36108 0.54287 0.0
H445 H 0.36556 0.34559 0.48983 0.0
H446 H 0.2969 0.01579 0.77028 0.0
H447 H 0.39466 0.29507 0.45755 0.0
H448 H 0.35616 0.89816 0.60143 0.0
N449 N 0.31011 0.02244 0.68382 0.0
C450 C 0.32862 0.99162 0.67956 0.0
C451 C 0.30673 1.00951 0.74489 0.0
C452 C 0.3396 0.9707 0.70788 0.0
C453 C 0.29719 0.03007 0.71596 0.0
C454 C 0.32928 0.98085 0.74092 0.0
N455 N 0.31757 0.99574 0.62048 0.0
C456 C 0.30941 0.97455 0.58873 0.0
C457 C 0.34772 0.94277 0.64067 0.0
C458 C 0.33264 0.97783 0.6466 0.0
C459 C 0.34507 0.92523 0.60713 0.0
C460 C 0.32442 0.94014 0.58121 0.0
H461 H 0.33672 0.96517 0.76339 0.0
H462 H 0.36748 0.92256 0.72364 0.0
H463 H 0.37469 0.8981 0.66459 0.0
O464 O 0.2293 0.01673 0.60755 0.0
O465 O 0.372 0.07184 0.61402 0.0
O466 O 0.41507 0.15573 0.62115 0.0
O467 O 0.23268 1.00419 0.66102 0.0
O468 O 0.2913 0.0681 0.57952 0.0
O469 O 0.36497 0.12958 0.55829 0.0
O470 O 0.4323 0.26466 0.61208 0.0
O471 O 0.30051 0.15876 0.59275 0.0
O472 O 0.28307 0.11544 0.64239 0.0
O473 O 0.45219 0.23275 0.5706 0.0
O474 O 0.38392 0.1925 0.6505 0.0
O475 O 0.33276 0.11414 0.67422 0.0
C476 C 0.41427 0.11471 0.61282 0.0
C477 C 0.16858 0.93853 0.62968 0.0
C478 C 0.08271 0.87026 0.62654 0.0
C479 C 0.10023 0.83685 0.62366 0.0
C480 C 0.18501 0.90421 0.62713 0.0
C481 C 0.15101 0.85377 0.6239 0.0
C482 C 0.11718 0.92132 0.62934 0.0
C483 C 0.32613 0.08445 0.55594 0.0
C484 C 0.20428 0.99191 0.63431 0.0
C485 C 0.35814 0.93846 0.70221 0.0
C486 C 0.36227 0.92455 0.66859 0.0
C487 C 0.2695 0.13526 0.61822 0.0
C488 C 0.49153 0.32121 0.5722 0.0
C489 C 0.54502 0.41152 0.57633 0.0
C490 C 0.55022 0.41345 0.54036 0.0
C491 C 0.4985 0.32469 0.53639 0.0
C492 C 0.51408 0.36516 0.59205 0.0
C493 C 0.5267 0.37051 0.52063 0.0
C494 C 0.36504 0.16257 0.67724 0.0
C495 C 0.46582 0.27205 0.58932 0.0
H496 H 0.07451 0.79758 0.62164 0.0
H497 H 0.22401 0.91623 0.6281 0.0
H498 H 0.16408 0.8276 0.62199 0.0
H499 H 0.10397 0.94738 0.63179 0.0
H500 H 0.57373 0.44829 0.52753 0.0
H501 H 0.48337 0.29199 0.52051 0.0
H502 H 0.51006 0.36308 0.61978 0.0
H503 H 0.53176 0.37257 0.49302 0.0
Tb504 Tb 0.73066 0.75854 0.36994 0.0
C505 C 0.7222 0.93615 0.42452 0.0
N506 N 0.70363 0.8901 0.43797 0.0
C507 C 0.75309 0.92483 0.48857 0.0
C508 C 0.7597 0.97798 0.4414 0.0
C509 C 0.71645 0.88427 0.47051 0.0
C510 C 0.77585 0.97168 0.47353 0.0
C511 C 0.72057 0.98773 0.37898 0.0
C512 C 0.70459 0.9406 0.39304 0.0
C513 C 0.75902 0.02965 0.39503 0.0
C514 C 0.77947 0.02455 0.42575 0.0
Tb515 Tb 0.65261 0.82556 0.4026 0.0
N516 N 0.67066 0.89882 0.37678 0.0
C517 C 0.69705 0.9912 0.34949 0.0
C518 C 0.64586 0.90221 0.34889 0.0
C519 C 0.65855 0.94827 0.33495 0.0
H520 H 0.69955 0.84839 0.48235 0.0
H521 H 0.63872 0.95043 0.31288 0.0
H522 H 0.78291 0.78844 0.29248 0.0
H523 H 0.64345 0.57507 0.42665 0.0
H524 H 0.61601 0.86944 0.33725 0.0
H525 H 0.70758 0.02686 0.33832 0.0
H526 H 0.69725 0.66606 0.42702 0.0
H527 H 0.7641 0.91984 0.51393 0.0
H528 H 0.77304 0.06609 0.384 0.0
H529 H 0.80944 0.05698 0.43776 0.0
H530 H 0.76414 0.75051 0.23427 0.0
H531 H 0.80467 1.00292 0.48737 0.0
H532 H 0.60559 0.53164 0.37215 0.0
N533 N 0.72239 0.72654 0.31607 0.0
C534 C 0.68883 0.67766 0.31323 0.0
C535 C 0.74192 0.72996 0.25614 0.0
C536 C 0.67766 0.65381 0.28102 0.0
C537 C 0.75201 0.75163 0.28882 0.0
C538 C 0.70352 0.68122 0.25205 0.0
N539 N 0.68761 0.67389 0.3737 0.0
C540 C 0.68116 0.64719 0.40317 0.0
C541 C 0.64039 0.59852 0.3416 0.0
C542 C 0.67073 0.6503 0.34316 0.0
C543 C 0.62893 0.57149 0.37224 0.0
C544 C 0.65046 0.59583 0.40304 0.0
H545 H 0.69627 0.66419 0.22685 0.0
H546 H 0.63386 0.584 0.25457 0.0
H547 H 0.60094 0.53558 0.30768 0.0
O548 O 0.8086 0.80353 0.37492 0.0
O549 O 0.65681 0.71393 0.3952 0.0
O550 O 0.6126 0.75124 0.37982 0.0
O551 O 0.77506 0.7255 0.37546 0.0
O552 O 0.73713 0.78661 0.42233 0.0
O553 O 0.66467 0.77893 0.44182 0.0
O554 O 0.58202 0.81557 0.39087 0.0
O555 O 0.73333 0.8612 0.4041 0.0
O556 O 0.76282 0.83821 0.35833 0.0
O557 O 0.60698 0.82703 0.44262 0.0
O558 O 0.65949 0.82277 0.34571 0.0
O559 O 0.70038 0.78074 0.32676 0.0
C560 C 0.61406 0.71197 0.38985 0.0
C561 C 0.85791 0.76991 0.35481 0.0
C562 C 0.94679 0.79908 0.34732 0.0
C563 C 0.93532 0.76978 0.31762 0.0
C564 C 0.84804 0.74098 0.32503 0.0
C565 C 0.88655 0.74142 0.30644 0.0
C566 C 0.90765 0.79947 0.36569 0.0
C567 C 0.70421 0.77335 0.44681 0.0
C568 C 0.81662 0.76672 0.37593 0.0
C569 C 0.64375 0.60285 0.27916 0.0
C570 C 0.62504 0.57525 0.30943 0.0
C571 C 0.76271 0.87311 0.37749 0.0
C572 C 0.55937 0.86468 0.42436 0.0
C573 C 0.50203 0.89624 0.4119 0.0
C574 C 0.53304 0.93871 0.43116 0.0
C575 C 0.58923 0.90809 0.44309 0.0
C576 C 0.51609 0.85946 0.40803 0.0
C577 C 0.57625 0.94469 0.44625 0.0
C578 C 0.67628 0.80504 0.32119 0.0
C579 C 0.5738 0.82556 0.42159 0.0
H580 H 0.96431 0.76888 0.30304 0.0
H581 H 0.81047 0.71715 0.31644 0.0
H582 H 0.87848 0.71898 0.28351 0.0
H583 H 0.91578 0.82161 0.38882 0.0
H584 H 0.5235 0.96738 0.43474 0.0
H585 H 0.62278 0.91388 0.45545 0.0
H586 H 0.49289 0.82652 0.39313 0.0
H587 H 0.59964 0.97782 0.46089 0.0
Tb588 Tb 0.97584 0.72158 0.86611 0.0
C589 C 0.78204 0.677 0.96452 0.0
N590 N 0.81528 0.66092 0.96498 0.0
C591 C 0.80568 0.64992 0.0262 0.0
C592 C 0.75798 0.6785 0.9949 0.0
C593 C 0.82694 0.64693 0.99528 0.0
C594 C 0.77062 0.66518 0.02597 0.0
C595 C 0.72877 0.69672 0.93092 0.0
C596 C 0.76723 0.68551 0.93296 0.0
C597 C 0.70547 0.6993 0.96113 0.0
C598 C 0.71955 0.68949 0.99298 0.0
Tb599 Tb 0.83829 0.64669 0.91222 0.0
N600 N 0.78781 0.67884 0.90408 0.0
C601 C 0.71283 0.70196 0.89844 0.0
C602 C 0.7701 0.68068 0.87237 0.0
C603 C 0.73334 0.69339 0.86912 0.0
H604 H 0.85087 0.63111 0.99555 0.0
H605 H 0.71961 0.6946 0.84409 0.0
H606 H 0.95998 0.75278 0.7868 0.0
H607 H 0.09495 0.65373 0.90831 0.0
H608 H 0.78405 0.67172 0.8497 0.0
H609 H 0.68336 0.71052 0.89573 0.0
H610 H 0.05251 0.70261 0.91262 0.0
H611 H 0.81482 0.63847 0.05 0.0
H612 H 0.67545 0.7073 0.96007 0.0
H613 H 0.69981 0.68959 0.01593 0.0
H614 H 0.97894 0.73919 0.72756 0.0
H615 H 0.75237 0.665 0.04975 0.0
H616 H 0.09406 0.61368 0.85309 0.0
N617 N 0.98333 0.70585 0.80952 0.0
C618 C 1.00463 0.67752 0.80395 0.0
C619 C 0.98478 0.72047 0.74884 0.0
C620 C 1.01479 0.66787 0.77042 0.0
C621 C 0.97409 0.72798 0.78248 0.0
C622 C 1.00507 0.69025 0.74289 0.0
N623 N 0.01994 0.68172 0.8633 0.0
C624 C 0.0484 0.68151 0.88971 0.0
C625 C 0.04962 0.63928 0.82718 0.0
C626 C 0.023 0.66443 0.83191 0.0
C627 C 0.07326 0.63283 0.85561 0.0
C628 C 0.07378 0.65528 0.88683 0.0
H629 H 1.01609 0.68691 0.71723 0.0
H630 H 0.04543 0.6313 0.7399 0.0
H631 H 0.07494 0.60516 0.78982 0.0
O632 O 0.02491 0.79038 0.8898 0.0
O633 O 0.94192 0.63914 0.87593 0.0
O634 O 0.88651 0.61735 0.9207 0.0
O635 O 0.04282 0.77114 0.8415 0.0
O636 O 0.98102 0.71601 0.92121 0.0
O637 O 0.90358 0.67956 0.94881 0.0
O638 O 0.77782 0.58864 0.88528 0.0
O639 O 0.86143 0.72386 0.89991 0.0
O640 O 0.93773 0.76552 0.87181 0.0
O641 O 0.78894 0.58132 0.93849 0.0
O642 O 0.85004 0.63466 0.85755 0.0
O643 O 0.91076 0.70915 0.83717 0.0
C644 C 0.91009 0.60575 0.89824 0.0
C645 C 0.06952 0.85587 0.84958 0.0
C646 C 0.12111 0.94672 0.84784 0.0
C647 C 0.09024 0.94755 0.82191 0.0
C648 C 0.04313 0.85859 0.82137 0.0
C649 C 0.0524 0.90385 0.80829 0.0
C650 C 0.10997 0.90041 0.86227 0.0
C651 C 0.95325 0.70331 0.94891 0.0
C652 C 0.05558 0.80622 0.86392 0.0
C653 C 0.03816 0.63976 0.76556 0.0
C654 C 0.05502 0.62492 0.79397 0.0
C655 C 0.89759 0.76371 0.88522 0.0
C656 C 0.70489 0.54539 0.92012 0.0
C657 C 0.61566 0.49387 0.90772 0.0
C658 C 0.60539 0.51518 0.93603 0.0
C659 C 0.69209 0.56188 0.95002 0.0
C660 C 0.66592 0.51046 0.89892 0.0
C661 C 0.6433 0.54866 0.95709 0.0
C662 C 0.8691 0.66738 0.8326 0.0
C663 C 0.75837 0.5625 0.91287 0.0
H664 H 0.09722 0.9823 0.81086 0.0
H665 H 1.01531 0.82544 0.80915 0.0
H666 H 0.0307 0.90502 0.78702 0.0
H667 H 0.13296 0.89907 0.88258 0.0
H668 H 0.56747 0.5031 0.94332 0.0
H669 H 0.71956 0.5839 0.96879 0.0
H670 H 0.67434 0.49417 0.87718 0.0
H671 H 0.63463 0.5627 0.97997 0.0
Tb672 Tb 0.269 0.97161 0.36517 0.0
C673 C 0.11702 0.7747 0.45047 0.0
N674 N 0.16285 0.81494 0.45448 0.0
C675 C 0.13997 0.83027 0.51007 0.0
C676 C 0.08144 0.75981 0.47679 0.0
C677 C 0.17535 0.84078 0.48481 0.0
C678 C 0.0927 0.79044 0.50571 0.0
C679 C 0.06088 0.70298 0.41657 0.0
C680 C 0.10633 0.74738 0.42029 0.0
C681 C 0.02617 0.68695 0.44331 0.0
C682 C 0.03665 0.71492 0.47341 0.0
Tb683 Tb 0.21617 0.82852 0.41016 0.0
N684 N 0.14181 0.76246 0.39567 0.0
C685 C 0.05296 0.67433 0.38705 0.0
C686 C 0.13574 0.73245 0.36825 0.0
C687 C 0.09083 0.68892 0.36295 0.0
H688 H 0.21222 0.86939 0.49068 0.0
H689 H 0.08599 0.66598 0.34074 0.0
H690 H 0.22924 0.9605 0.28446 0.0
H691 H 0.43966 0.10506 0.42514 0.0
H692 H 0.16567 0.74136 0.35049 0.0
H693 H 1.01862 0.63991 0.38335 0.0
H694 H 0.35126 0.03986 0.42366 0.0
H695 H 0.14936 0.85254 0.53319 0.0
H696 H 0.9917 0.65219 0.44141 0.0
H697 H 1.01061 0.69983 0.49431 0.0
H698 H 0.26599 0.99578 0.2278 0.0
H699 H 0.0659 0.78515 0.52486 0.0
H700 H 0.4862 0.13601 0.37058 0.0
N701 N 0.29776 0.99956 0.31115 0.0
C702 C 0.34662 0.03372 0.30913 0.0
C703 C 0.28912 1.00615 0.25042 0.0
C704 C 0.36906 0.05448 0.27732 0.0
C705 C 0.26857 0.98615 0.28248 0.0
C706 C 0.33972 0.03978 0.2477 0.0
N707 N 0.34986 0.03123 0.36964 0.0
C708 C 0.37203 0.05223 0.40013 0.0
C709 C 0.42343 0.08815 0.33866 0.0
C710 C 0.37353 0.05033 0.33935 0.0
C711 C 0.44784 0.10686 0.36999 0.0
C712 C 0.42173 0.08944 0.40086 0.0
H713 H 0.35544 0.05517 0.22279 0.0
H714 H 0.4375 0.10662 0.25207 0.0
H715 H 0.4851 0.1361 0.30578 0.0
O716 O 0.25641 0.01867 0.3977 0.0
O717 O 0.33499 0.96067 0.37343 0.0
O718 O 0.28096 0.89052 0.39134 0.0
O719 O 0.24331 0.01595 0.34337 0.0
O720 O 0.24035 0.94615 0.41658 0.0
O721 O 0.26076 0.89573 0.44381 0.0
O722 O 0.2361 0.77499 0.3958 0.0
O723 O 0.16036 0.85152 0.40167 0.0
O724 O 0.19123 0.90999 0.35789 0.0
O725 O 0.23381 0.79238 0.44859 0.0
O726 O 0.2195 0.83 0.35263 0.0
O727 O 0.24109 0.90858 0.32919 0.0
C728 C 0.32763 0.91774 0.38404 0.0
C729 C 0.25831 0.08859 0.3717 0.0
C730 C 0.23676 0.15388 0.37106 0.0
C731 C 0.28559 0.18776 0.36142 0.0
C732 C 0.30737 0.12344 0.3635 0.0
C733 C 0.32087 0.17285 0.3584 0.0
C734 C 0.22316 0.10402 0.37588 0.0
C735 C 0.26391 0.93964 0.44171 0.0
C736 C 0.24166 0.03549 0.37245 0.0
C737 C 0.41949 0.0905 0.2763 0.0
C738 C 0.44662 0.10729 0.3069 0.0
C739 C 0.15571 0.88219 0.38027 0.0
C740 C 0.19576 0.70652 0.43449 0.0
C741 C 0.15554 0.61691 0.42208 0.0
C742 C 0.12058 0.60828 0.4478 0.0
C743 C 0.16104 0.69542 0.46112 0.0
C744 C 0.19262 0.66658 0.41473 0.0
C745 C 0.12335 0.64715 0.46708 0.0
C746 C 0.22729 0.86088 0.32647 0.0
C747 C 0.23305 0.75977 0.42725 0.0
H748 H 0.29606 0.22552 0.35542 0.0
H749 H 0.33476 0.11225 0.35995 0.0
H750 H 0.35848 0.19943 0.35117 0.0
H751 H 0.18502 0.07715 0.38185 0.0
H752 H 0.09209 0.57087 0.45395 0.0
H753 H 0.16238 0.7242 0.4774 0.0
H754 H 0.21969 0.67378 0.39479 0.0
H755 H 0.09662 0.63972 0.48731 0.0
Tb756 Tb 0.30466 0.26348 0.86548 0.0
C757 C 0.35288 0.1063 0.93071 0.0
N758 N 0.35403 0.14914 0.93927 0.0
C759 C 0.30578 0.11122 0.98965 0.0
C760 C 0.32696 0.0637 0.95098 0.0
C761 C 0.33362 0.15293 0.96942 0.0
C762 C 0.30114 0.06618 0.97978 0.0
C763 C 0.37919 0.06241 0.89229 0.0
C764 C 0.37767 0.10539 0.90132 0.0
C765 C 0.35424 0.02007 0.9127 0.0
C766 C 0.32837 0.02075 0.94191 0.0
Tb767 Tb 0.39715 0.21351 0.90281 0.0
N768 N 0.40159 0.14712 0.88223 0.0
C769 C 0.407 0.06371 0.86365 0.0
C770 C 0.43077 0.14926 0.85512 0.0
C771 C 0.43341 0.10756 0.84524 0.0
H772 H 0.33772 0.18753 0.97793 0.0
H773 H 0.45593 0.10937 0.82346 0.0
H774 H 0.27462 0.2309 0.783 0.0
H775 H 0.35163 0.43515 0.9288 0.0
H776 H 0.45214 0.1831 0.84081 0.0
H777 H 0.40919 0.03145 0.85602 0.0
H778 H 0.3163 0.3444 0.92462 0.0
H779 H 0.28755 0.11371 0.01266 0.0
H780 H 0.3554 0.9868 0.90648 0.0
H781 H 0.31154 0.98823 0.95764 0.0
H782 H 0.29102 0.27355 0.72703 0.0
H783 H 0.27757 0.03411 0.99489 0.0
H784 H 0.3835 0.48666 0.87635 0.0
N785 N 0.31372 0.2976 0.81193 0.0
C786 C 0.33586 0.34764 0.81126 0.0
C787 C 0.30432 0.29487 0.7505 0.0
C788 C 0.34544 0.37355 0.77996 0.0
C789 C 0.29545 0.27088 0.78224 0.0
C790 C 0.33039 0.34648 0.74928 0.0
N791 N 0.33321 0.34597 0.87171 0.0
C792 C 0.33169 0.36709 0.90214 0.0
C793 C 0.36482 0.42419 0.84291 0.0
C794 C 0.34554 0.37266 0.84223 0.0
C795 C 0.36886 0.44712 0.87468 0.0
C796 C 0.35102 0.41821 0.90435 0.0
H797 H 0.33706 0.36497 0.72468 0.0
H798 H 0.37614 0.44602 0.75663 0.0
H799 H 0.39306 0.49039 0.81181 0.0
O800 O 0.24555 0.25206 0.89804 0.0
O801 O 0.38079 0.32075 0.88417 0.0
O802 O 0.42232 0.28015 0.8726 0.0
O803 O 0.23791 0.25289 0.84379 0.0
O804 O 0.30028 0.23238 0.91609 0.0
O805 O 0.3744 0.25594 0.93939 0.0
O806 O 0.47261 0.23551 0.89422 0.0
O807 O 0.3185 0.15675 0.8942 0.0
O808 O 0.27924 0.18457 0.85595 0.0
O809 O 0.44464 0.22708 0.94533 0.0
O810 O 0.3934 0.2134 0.84585 0.0
O811 O 0.33399 0.23331 0.82609 0.0
C812 C 0.42299 0.31999 0.88314 0.0
C813 C 0.16571 0.19945 0.87517 0.0
C814 C 0.07489 0.1571 0.87284 0.0
C815 C 0.07346 0.11174 0.877 0.0
C816 C 0.16264 0.15355 0.8803 0.0
C817 C 0.11699 0.11007 0.88085 0.0
C818 C 0.12141 0.20126 0.87188 0.0
C819 C 0.33192 0.25621 0.94052 0.0
C820 C 0.21512 0.24478 0.87302 0.0
C821 C 0.36781 0.42535 0.78041 0.0
C822 C 0.37745 0.45064 0.81184 0.0
C823 C 0.28259 0.14909 0.87245 0.0
C824 C 0.51399 0.21351 0.93739 0.0
C825 C 0.57104 0.18055 0.92711 0.0
C826 C 0.58271 0.18726 0.96232 0.0
C827 C 0.5268 0.21851 0.97231 0.0
C828 C 0.53626 0.19402 0.91452 0.0
C829 C 0.56063 0.20555 0.98456 0.0
C830 C 0.36689 0.21861 0.82122 0.0
C831 C 0.48236 0.23493 0.92638 0.0
H832 H 0.03834 0.0775 0.87772 0.0
H833 H 0.19564 0.15135 0.88412 0.0
H834 H 0.1153 0.0749 0.88449 0.0
H835 H 0.12301 0.23648 0.86854 0.0
H836 H 0.60921 0.17799 0.97283 0.0
H837 H 0.51146 0.23391 0.99029 0.0
H838 H 0.52744 0.19011 0.88741 0.0
H839 H 0.5703 0.21027 0.01155 0.0
Tb840 Tb 0.0607 0.30372 0.36884 0.0
C841 C 0.2478 0.31969 0.43411 0.0
N842 N 0.21762 0.33669 0.44502 0.0
C843 C 0.21216 0.30158 0.5007 0.0
C844 C 0.2594 0.29086 0.45566 0.0
C845 C 0.20134 0.32979 0.47825 0.0
C846 C 0.24051 0.28119 0.48914 0.0
C847 C 0.30097 0.31724 0.38966 0.0
C848 C 0.2672 0.33171 0.4012 0.0
C849 C 0.31213 0.28784 0.4109 0.0
C850 C 0.29005 0.27336 0.44332 0.0
Tb851 Tb 0.20235 0.38214 0.40642 0.0
N852 N 0.25514 0.35992 0.38138 0.0
C853 C 0.3235 0.33389 0.35758 0.0
C854 C 0.28033 0.37963 0.35135 0.0
C855 C 0.31378 0.36595 0.33863 0.0
H856 H 0.18036 0.34626 0.48774 0.0
H857 H 0.33257 0.38076 0.31444 0.0
H858 H 0.06858 0.29125 0.28302 0.0
H859 H 0.94074 0.34912 0.43975 0.0
H860 H 0.27535 0.40631 0.33695 0.0
H861 H 0.34968 0.32362 0.34777 0.0
H862 H 0.99137 0.30908 0.42987 0.0
H863 H 0.19894 0.296 0.52695 0.0
H864 H 0.33815 0.27646 0.4027 0.0
H865 H 0.29718 0.24896 0.45885 0.0
H866 H 0.05252 0.32524 0.23093 0.0
H867 H 0.24902 0.25941 0.50648 0.0
H868 H 0.92818 0.39424 0.39205 0.0
N869 N 0.04337 0.32763 0.31737 0.0
C870 C 1.01793 0.35239 0.31992 0.0
C871 C 0.04323 0.33376 0.25582 0.0
C872 C 1.00615 0.37084 0.29056 0.0
C873 C 0.05322 0.31539 0.28565 0.0
C874 C 0.02043 0.36238 0.25828 0.0
N875 N 1.01163 0.3368 0.37934 0.0
C876 C 0.98775 0.33081 0.40987 0.0
C877 C 0.97154 0.37885 0.35569 0.0
C878 C 1.00109 0.35672 0.35197 0.0
C879 C 0.95121 0.37775 0.38807 0.0
C880 C 0.95836 0.3525 0.41511 0.0
H881 H 1.01225 0.37605 0.23507 0.0
H882 H 0.97026 0.41055 0.27208 0.0
H883 H 0.93971 0.41734 0.32914 0.0
O884 O 1.01547 0.23646 0.39531 0.0
O885 O 0.08612 0.38072 0.39012 0.0
O886 O 0.16936 0.42009 0.38028 0.0
O887 O 0.99543 0.24819 0.34553 0.0
O888 O 0.07794 0.29556 0.4219 0.0
O889 O 0.13977 0.36804 0.44374 0.0
O890 O 0.26685 0.44932 0.39423 0.0
O891 O 0.16176 0.30002 0.405 0.0
O892 O 0.10998 0.27359 0.35814 0.0
O893 O 0.24688 0.4309 0.44636 0.0
O894 O 0.19436 0.38962 0.35009 0.0
O895 O 0.121 0.32116 0.3315 0.0
C896 C 0.13021 0.42187 0.38967 0.0
C897 C 0.9749 0.16613 0.35881 0.0
C898 C 0.92633 0.07511 0.35994 0.0
C899 C 0.95863 0.07373 0.33536 0.0
C900 C 1.00474 0.16293 0.33313 0.0
C901 C 0.99741 0.1173 0.32203 0.0
C902 C 0.935 0.12172 0.37219 0.0
C903 C 0.09382 0.32944 0.44588 0.0
C904 C 0.98495 0.21607 0.36988 0.0
C905 C 0.97918 0.39563 0.29429 0.0
C906 C 0.9618 0.39954 0.3268 0.0
C907 C 0.13982 0.26841 0.37956 0.0
C908 C 0.33416 0.4769 0.43227 0.0
C909 C 0.42417 0.53444 0.42412 0.0
C910 C 0.43329 0.50062 0.44183 0.0
C911 C 0.34552 0.44508 0.45046 0.0
C912 C 0.37401 0.52213 0.41918 0.0
C913 C 0.39451 0.45675 0.45495 0.0
C914 C 0.16492 0.36034 0.32548 0.0
C915 C 0.2811 0.46174 0.42553 0.0
H916 H 0.95261 0.03865 0.32551 0.0
H917 H 0.03296 0.19608 0.321 0.0
H918 H 0.02111 0.11568 0.3023 0.0
H919 H 0.91013 0.12331 0.39098 0.0
H920 H 0.47093 0.50874 0.44614 0.0
H921 H 0.31652 0.41089 0.46119 0.0
H922 H 0.36609 0.54753 0.40546 0.0
H923 H 0.40258 0.43168 0.46892 0.0
Tb924 Tb 0.76278 0.05813 0.8479 0.0
C925 C 0.93349 0.23514 0.91728 0.0
N926 N 0.8879 0.20534 0.93098 0.0
C927 C 0.92497 0.19238 0.98084 0.0
C928 C 0.97664 0.24276 0.93403 0.0
C929 C 0.883 0.18498 0.96279 0.0
C930 C 0.97191 0.22065 0.96614 0.0
C931 C 0.98284 0.2918 0.87223 0.0
C932 C 0.93642 0.25744 0.88603 0.0
C933 C 0.02603 0.29741 0.88762 0.0
C934 C 0.02277 0.2719 0.91805 0.0
Tb935 Tb 0.82262 0.18916 0.89619 0.0
N936 N 0.89373 0.24823 0.87056 0.0
C937 C 0.98428 0.32079 0.84437 0.0
C938 C 0.89489 0.27973 0.84568 0.0
C939 C 0.94015 0.31625 0.83208 0.0
H940 H 0.84684 0.16236 0.97402 0.0
H941 H 0.94083 0.33996 0.81157 0.0
H942 H 0.79641 0.07083 0.76514 0.0
H943 H 0.58275 0.95912 0.90867 0.0
H944 H 0.86112 0.27633 0.83557 0.0
H945 H 1.0192 0.34819 0.83326 0.0
H946 H 0.67356 1.00491 0.9072 0.0
H947 H 0.92107 0.1757 0.00585 0.0
H948 H 0.06207 0.32204 0.87662 0.0
H949 H 0.05617 0.27571 0.92933 0.0
H950 H 0.75531 0.05898 0.70893 0.0
H951 H 1.00425 0.22576 0.97996 0.0
H952 H 0.53538 0.94428 0.85483 0.0
N953 N 0.72967 0.04375 0.7939 0.0
C954 C 0.67949 0.02135 0.79263 0.0
C955 C 0.73361 0.04804 0.73228 0.0
C956 C 0.65444 1.01197 0.76096 0.0
C957 C 0.7568 0.05543 0.76423 0.0
C958 C 0.68228 0.02646 0.73062 0.0
N959 N 0.67849 0.01572 0.85322 0.0
C960 C 0.65375 0.99783 0.8835 0.0
C961 C 0.60086 0.98062 0.8228 0.0
C962 C 0.65303 1.00605 0.82317 0.0
C963 C 0.57544 0.96397 0.854 0.0
C964 C 0.60204 0.97216 0.88441 0.0
H965 H 0.66449 0.02043 0.70579 0.0
H966 H 0.58266 0.98058 0.73648 0.0
H967 H 0.53574 0.9529 0.79062 0.0
O968 O 0.78795 1.01173 0.87034 0.0
O969 O 0.71516 0.09371 0.85739 0.0
O970 O 0.74463 0.14248 0.9058 0.0
O971 O 0.74903 0.99348 0.82175 0.0
O972 O 0.77342 0.05598 0.90343 0.0
O973 O 0.77829 0.12353 0.93164 0.0
O974 O 0.79973 0.24117 0.88463 0.0
O975 O 0.86299 0.14789 0.89253 0.0
O976 O 0.84314 0.10538 0.8417 0.0
O977 O 0.83208 0.24192 0.93442 0.0
O978 O 0.80606 0.18564 0.83981 0.0
O979 O 0.81192 0.12093 0.81592 0.0
C980 C 0.71101 0.12125 0.8821 0.0
C981 C 0.77144 0.93335 0.84183 0.0
C982 C 0.80592 0.87873 0.8539 0.0
C983 C 0.76816 0.84193 0.83386 0.0
C984 C 0.73493 0.89547 0.82151 0.0
C985 C 0.73325 0.85028 0.81774 0.0
C986 C 0.80725 0.92475 0.85833 0.0
C987 C 0.76529 0.07533 0.93088 0.0
C988 C 0.77023 0.98058 0.84493 0.0
C989 C 0.60253 0.98789 0.76055 0.0
C990 C 0.5758 0.97211 0.79138 0.0
C991 C 0.8757 0.13087 0.86572 0.0
C992 C 0.81227 0.30782 0.92412 0.0
C993 C 0.83514 0.39579 0.9188 0.0
C994 C 0.79396 0.38544 0.93939 0.0
C995 C 0.77211 0.29967 0.94484 0.0
C996 C 0.84408 0.35628 0.91086 0.0
C997 C 0.76298 0.33809 0.95226 0.0
C998 C 0.81272 0.16312 0.8131 0.0
C999 C 0.81601 0.26379 0.91382 0.0
H1000 H 0.76581 0.80637 0.83068 0.0
H1001 H 0.70701 0.90056 0.80866 0.0
H1002 H 0.70461 0.82145 0.80218 0.0
H1003 H 0.83599 0.95345 0.87392 0.0
H1004 H 0.78611 0.41459 0.946 0.0
H1005 H 0.74689 0.26303 0.95465 0.0
H1006 H 0.87527 0.36314 0.89477 0.0
H1007 H 0.73153 0.33109 0.96808 0.0
C1008 C 0.18923 0.96031 0.10582 0.0
C1009 C 0.175 0.93142 0.13639 0.0
C1010 C 0.1992 1.00737 0.16999 0.0
C1011 C 0.2206 0.03637 0.14004 0.0
N1012 N 0.23882 0.04081 0.07951 0.0
N1013 N 0.16706 0.92785 0.19829 0.0
C1014 C 0.21605 0.01288 0.10794 0.0
C1015 C 0.17945 0.95497 0.16869 0.0
N1016 N 0.17522 0.93741 0.07458 0.0
N1017 N 0.19766 0.03013 0.19966 0.0
H1018 H 0.15252 0.88979 0.19867 0.0
H1019 H 0.17409 0.94316 0.22283 0.0
H1020 H 0.21238 0.06829 0.20145 0.0
H1021 H 0.17842 1.01124 0.22161 0.0
H1022 H 0.17923 0.95623 0.05165 0.0
H1023 H 0.15531 0.89913 0.07188 0.0
H1024 H 0.24214 0.02586 0.05637 0.0
H1025 H 0.25728 0.07936 0.07965 0.0
C1026 C 0.21267 0.15345 0.657 0.0
C1027 C 0.22738 0.14579 0.62372 0.0
C1028 C 0.18576 0.18699 0.59729 0.0
C1029 C 0.17468 0.19822 0.63034 0.0
N1030 N 0.16407 0.17976 0.69078 0.0
N1031 N 0.20708 0.13474 0.56368 0.0
C1032 C 0.18421 0.17777 0.65995 0.0
C1033 C 0.20726 0.1562 0.59431 0.0
N1034 N 0.22588 0.13827 0.68596 0.0
N1035 N 0.17752 0.20713 0.5687 0.0
H1036 H 0.21826 0.10843 0.56204 0.0
H1037 H 0.19001 0.13761 0.54153 0.0
H1038 H 0.16232 0.23019 0.56968 0.0
H1039 H 0.18861 0.20348 0.54416 0.0
H1040 H 0.22637 0.15241 0.71032 0.0
H1041 H 0.23394 0.10976 0.68618 0.0
H1042 H 0.16494 0.16135 0.7128 0.0
H1043 H 0.14231 0.1963 0.69363 0.0
C1044 C 1.01937 0.20223 0.1568 0.0
C1045 C 0.9988 0.15822 0.13715 0.0
C1046 C 0.07725 0.19242 0.10439 0.0
C1047 C 0.09963 0.23406 0.12685 0.0
N1048 N 0.09265 0.27334 0.17828 0.0
N1049 N 1.00831 0.10951 0.09313 0.0
C1050 C 0.07072 0.23751 0.15397 0.0
C1051 C 0.02769 0.15302 0.11089 0.0
N1052 N 0.98946 0.21069 0.17813 0.0
N1053 N 0.1037 0.19018 0.07711 0.0
H1054 H 0.97179 0.0812 0.09638 0.0
H1055 H 0.02867 0.10044 0.07641 0.0
H1056 H 0.14097 0.21593 0.07345 0.0
H1057 H 0.08844 0.16426 0.05742 0.0
H1058 H 1.00086 0.24442 0.19034 0.0
H1059 H 0.95174 0.18563 0.18091 0.0
H1060 H 0.07586 0.27314 0.2015 0.0
H1061 H 0.1291 0.30119 0.17631 0.0
C1062 C 0.84113 0.02536 0.67031 0.0
C1063 C 0.85061 0.99732 0.64582 0.0
C1064 C 0.87868 0.06621 0.60465 0.0
C1065 C 0.87407 0.09636 0.63047 0.0
N1066 N 0.85452 0.10485 0.68945 0.0
N1067 N 0.88314 0.99247 0.59076 0.0
C1068 C 0.85664 0.07604 0.66379 0.0
C1069 C 0.86999 0.01785 0.61308 0.0
N1070 N 0.81557 1.00263 0.69961 0.0
N1071 N 0.89259 0.08411 0.57209 0.0
H1072 H 0.87701 0.95707 0.59585 0.0
H1073 H 0.90306 1.00747 0.56821 0.0
H1074 H 0.906 0.12097 0.56585 0.0
H1075 H 0.88922 0.06207 0.55099 0.0
H1076 H 0.8048 0.01954 0.718 0.0
H1077 H 0.80126 0.96502 0.70433 0.0
H1078 H 0.85108 0.09528 0.71532 0.0
H1079 H 0.85859 0.13952 0.68537 0.0
C1080 C 0.8773 0.88263 0.14955 0.0
C1081 C 0.89391 0.87585 0.11713 0.0
C1082 C 0.83789 0.89907 0.08874 0.0
C1083 C 0.8177 0.9017 0.12108 0.0
N1084 N 0.83734 0.9185 0.18196 0.0
N1085 N 0.88542 0.87101 0.05562 0.0
C1086 C 0.84244 0.89962 0.15152 0.0
C1087 C 0.87281 0.88225 0.08668 0.0
N1088 N 0.8943 0.87217 0.1789 0.0
N1089 N 0.82777 0.91807 0.06033 0.0
H1090 H 0.91004 0.8577 0.0533 0.0
H1091 H 0.86785 0.86994 0.03265 0.0
H1092 H 0.80917 0.93796 0.06212 0.0
H1093 H 0.84363 0.92077 0.03628 0.0
H1094 H 0.87807 0.86888 0.20293 0.0
H1095 H 0.92184 0.86258 0.17905 0.0
H1096 H 0.86021 0.92478 0.20307 0.0
H1097 H 0.81395 0.93247 0.18602 0.0
C1098 C 0.95104 0.82226 0.66038 0.0
C1099 C 0.92268 0.79856 0.63057 0.0
C1100 C 1.00014 0.83744 0.5966 0.0
C1101 C 0.028 0.85083 0.62752 0.0
N1102 N 0.0297 0.85507 0.68946 0.0
N1103 N 0.92009 0.80895 0.56963 0.0
C1104 C 1.00343 0.84363 0.65951 0.0
C1105 C 0.94729 0.81358 0.59826 0.0
N1106 N 0.92917 0.82927 0.68842 0.0
N1107 N 0.02418 0.84632 0.56574 0.0
H1108 H 0.88211 0.79589 0.57089 0.0
H1109 H 0.93541 0.82302 0.54563 0.0
H1110 H 0.06268 0.86499 0.56368 0.0
H1111 H 1.00632 0.83376 0.54227 0.0
H1112 H 0.94908 0.85194 0.70898 0.0
H1113 H 0.89168 0.81679 0.68958 0.0
H1114 H 1.01282 0.84472 0.71354 0.0
H1115 H 0.06816 0.87167 0.69017 0.0
C1116 C 0.06579 0.84397 0.39991 0.0
C1117 C 0.10289 0.87261 0.37526 0.0
C1118 C 0.03623 0.86582 0.3371 0.0
C1119 C 1.00003 0.8283 0.35873 0.0
N1120 N 0.98218 0.77827 0.40986 0.0
N1121 N 0.12146 0.9308 0.32912 0.0
C1122 C 1.01523 0.81685 0.39007 0.0
C1123 C 0.08774 0.88919 0.34597 0.0
N1124 N 0.07818 0.84669 0.43372 0.0
N1125 N 0.02116 0.87915 0.30807 0.0
H1126 H 0.15586 0.95454 0.33953 0.0
H1127 H 0.11356 0.9464 0.30825 0.0
H1128 H 0.98406 0.86717 0.30292 0.0
H1129 H 0.04484 0.90072 0.28849 0.0
H1130 H 0.05188 0.83091 0.45324 0.0
H1131 H 0.11388 0.87069 0.44241 0.0
H1132 H 0.99294 0.76559 0.43109 0.0
H1133 H 0.945 0.75614 0.40344 0.0
C1134 C 0.17257 0.01743 0.88939 0.0
C1135 C 0.16657 0.99507 0.85667 0.0
C1136 C 0.23154 0.07458 0.83337 0.0
C1137 C 0.24186 0.09607 0.86684 0.0
N1138 N 0.22313 0.08522 0.92759 0.0
N1139 N 0.19935 0.99925 0.79992 0.0
C1140 C 0.21311 0.06629 0.89515 0.0
C1141 C 0.19917 0.02278 0.82956 0.0
N1142 N 0.13772 0.99356 0.91435 0.0
N1143 N 0.25094 0.10331 0.80483 0.0
H1144 H 0.17806 0.96099 0.7969 0.0
H1145 H 0.2239 0.01683 0.77976 0.0
H1146 H 0.27458 0.14118 0.80569 0.0
H1147 H 0.23987 0.09019 0.7799 0.0
H1148 H 0.13639 1.01021 0.93724 0.0
H1149 H 0.10749 0.95817 0.91113 0.0
H1150 H 0.20821 0.06395 0.94963 0.0
H1151 H 0.24833 0.12201 0.93244 0.0
C1152 C 0.15316 0.2049 0.34452 0.0
C1153 C 0.14895 0.225 0.37651 0.0
C1154 C 0.18509 0.18027 0.40574 0.0
C1155 C 0.19956 0.17068 0.37335 0.0
N1156 N 0.1938 0.16917 0.31164 0.0
N1157 N 0.13504 0.20735 0.4367 0.0
C1158 C 0.18155 0.18063 0.34275 0.0
C1159 C 0.15727 0.20525 0.40703 0.0
N1160 N 0.12847 0.20631 0.31609 0.0
N1161 N 0.19944 0.16713 0.43519 0.0
H1162 H 0.10933 0.21937 0.43644 0.0
H1163 H 0.13668 0.19179 0.45993 0.0
H1164 H 0.2192 0.14831 0.43506 0.0
H1165 H 0.19411 0.1769 0.45976 0.0
H1166 H 0.12324 0.18462 0.29439 0.0
H1167 H 0.11136 0.22725 0.31414 0.0
H1168 H 0.18844 0.18209 0.28829 0.0
H1169 H 0.21164 0.14857 0.30923 0.0
C1170 C 0.99653 0.14426 0.9005 0.0
C1171 C 0.02646 0.15631 0.87067 0.0
C1172 C 0.95621 0.14599 0.83535 0.0
C1173 C 0.92619 0.13482 0.86569 0.0
N1174 N 0.91371 0.10446 0.924 0.0
N1175 N 0.03786 0.17455 0.81032 0.0
C1176 C 0.9454 0.12907 0.89747 0.0
C1177 C 1.00709 0.15884 0.83829 0.0
N1178 N 1.01744 0.1482 0.93204 0.0
N1179 N 0.93586 0.14101 0.80347 0.0
H1180 H 0.07448 0.18245 0.81128 0.0
H1181 H 0.0288 0.18346 0.78673 0.0
H1182 H 0.89942 0.1313 0.79896 0.0
H1183 H 0.95386 0.14233 0.78062 0.0
H1184 H 0.999 0.14445 0.95516 0.0
H1185 H 0.05494 0.15999 0.9352 0.0
H1186 H 0.92455 0.09501 0.9467 0.0
H1187 H 0.87538 0.08756 0.92172 0.0
C1188 C 0.8406 1.00747 0.34576 0.0
C1189 C 0.881 0.02692 0.36886 0.0
C1190 C 0.84217 0.94706 0.39969 0.0
C1191 C 0.80419 0.92599 0.37431 0.0
N1192 N 0.76804 0.93659 0.32275 0.0
N1193 N 0.92196 0.01597 0.41736 0.0
C1194 C 0.80381 0.95642 0.34727 0.0
C1195 C 0.88193 0.99701 0.39597 0.0
N1196 N 0.83658 0.03854 0.32294 0.0
N1197 N 0.84024 0.91933 0.42742 0.0
H1198 H 0.95017 0.05281 0.4162 0.0
H1199 H 0.9285 0.99512 0.4352 0.0
H1200 H 0.81442 0.88186 0.42978 0.0
H1201 H 0.86261 0.9338 0.449 0.0
H1202 H 0.80562 0.02843 0.30775 0.0
H1203 H 0.86257 0.07611 0.32126 0.0
H1204 H 0.77117 0.95289 0.2989 0.0
H1205 H 0.73661 0.90223 0.3255 0.0
C1206 C 0.85893 0.81333 0.90718 0.0
C1207 C 0.88841 0.8075 0.88163 0.0
C1208 C 0.88319 0.87269 0.84828 0.0
C1209 C 0.84304 0.86644 0.86886 0.0
N1210 N 0.79255 0.83033 0.91885 0.0
N1211 N 0.93112 0.83719 0.82688 0.0
C1212 C 0.8314 0.83719 0.89887 0.0
C1213 C 0.90252 0.83981 0.85233 0.0
N1214 N 0.85875 0.79775 0.93993 0.0
N1215 N 0.90183 0.9093 0.82413 0.0
H1216 H 0.94322 0.81193 0.82675 0.0
H1217 H 0.93797 0.85589 0.8036 0.0
H1218 H 0.88745 0.93281 0.82053 0.0
H1219 H 0.93437 0.91978 0.81051 0.0
H1220 H 0.8416 0.80513 0.96021 0.0
H1221 H 0.88101 0.78325 0.94745 0.0
H1222 H 0.77809 0.80367 0.93807 0.0
H1223 H 0.77319 0.84909 0.91458 0.0
C1224 C 0.15716 0.65378 0.14121 0.0
C1225 C 0.11796 0.65449 0.12318 0.0
C1226 C 0.10301 0.57864 0.0932 0.0
C1227 C 0.14938 0.58585 0.10423 0.0
N1228 N 0.222 0.63223 0.13932 0.0
N1229 N 0.0577 0.61937 0.0777 0.0
C1230 C 0.17648 0.62332 0.12904 0.0
C1231 C 0.09126 0.61672 0.09849 0.0
N1232 N 0.17659 0.68305 0.16949 0.0
N1233 N 0.07107 0.53613 0.07634 0.0
H1234 H 0.05191 0.64924 0.07854 0.0
H1235 H 0.04042 0.59542 0.05715 0.0
H1236 H 0.079 0.50772 0.07227 0.0
H1237 H 0.03511 0.52715 0.06992 0.0
H1238 H 0.20274 0.68174 0.18537 0.0
H1239 H 0.16264 0.70507 0.17873 0.0
H1240 H 0.24583 0.66268 0.15419 0.0
H1241 H 0.23747 0.61119 0.13094 0.0
C1242 C 0.54784 0.16095 0.58184 0.0
C1243 C 0.56068 0.12893 0.59854 0.0
C1244 C 0.48015 0.09119 0.6289 0.0
C1245 C 0.46396 0.11724 0.60734 0.0
N1246 N 0.48182 0.16608 0.55546 0.0
N1247 N 0.53728 0.06008 0.63658 0.0
C1248 C 0.4979 0.14975 0.58205 0.0
C1249 C 0.52621 0.09288 0.62168 0.0
N1250 N 0.58285 0.20125 0.56432 0.0
N1251 N 0.45302 0.06685 0.65714 0.0
H1252 H 0.57149 0.06219 0.63314 0.0
H1253 H 0.51169 0.02959 0.65069 0.0
H1254 H 0.42121 0.06761 0.66417 0.0
H1255 H 0.46475 0.0505 0.67534 0.0
H1256 H 0.57607 0.22845 0.55464 0.0
H1257 H 0.61973 0.21021 0.56248 0.0
H1258 H 0.50384 0.18543 0.53449 0.0
H1259 H 0.44499 0.1542 0.55184 0.0
C1260 C 0.41489 0.55132 0.08277 0.0
C1261 C 0.45555 0.56655 0.1053 0.0
C1262 C 0.40657 0.48719 0.13706 0.0
C1263 C 0.36909 0.46888 0.11132 0.0
N1264 N 0.34422 0.48384 0.05583 0.0
N1265 N 0.49107 0.54712 0.1535 0.0
C1266 C 0.37484 0.50135 0.08345 0.0
C1267 C 0.45154 0.53379 0.13233 0.0
N1268 N 0.41442 0.58435 0.05998 0.0
N1269 N 0.39835 0.4612 0.16687 0.0
H1270 H 0.5227 0.58203 0.15257 0.0
H1271 H 0.49342 0.52287 0.17071 0.0
H1272 H 0.36541 0.42851 0.17172 0.0
H1273 H 0.42187 0.47426 0.18801 0.0
H1274 H 0.38299 0.57761 0.04628 0.0
H1275 H 0.44372 0.62025 0.05697 0.0
H1276 H 0.35012 0.50324 0.03292 0.0
H1277 H 0.31607 0.44782 0.05417 0.0
C1278 C 0.92551 0.44934 0.62217 0.0
C1279 C 0.88946 0.44882 0.59936 0.0
C1280 C 0.86978 0.36563 0.5802 0.0
C1281 C 0.9035 0.36426 0.60451 0.0
N1282 N 0.95528 0.40216 0.65391 0.0
N1283 N 0.82021 0.40141 0.56191 0.0
C1284 C 0.92929 0.40556 0.6269 0.0
C1285 C 0.85919 0.4052 0.58038 0.0
N1286 N 0.95654 0.49201 0.63924 0.0
N1287 N 0.84989 0.33062 0.55504 0.0
H1288 H 0.81232 0.42999 0.55975 0.0
H1289 H 0.79289 0.3683 0.55131 0.0
H1290 H 0.85764 0.30223 0.5527 0.0
H1291 H 0.83029 0.33278 0.53412 0.0
H1292 H 0.9875 0.49717 0.65281 0.0
H1293 H 0.95254 0.52325 0.63832 0.0
H1294 H 0.97107 0.42883 0.67312 0.0
H1295 H 0.95715 0.37039 0.65892 0.0
C1296 C 0.52568 0.88158 0.14322 0.0
C1297 C 0.55614 0.89496 0.11321 0.0
C1298 C 0.48139 0.87346 0.07832 0.0
C1299 C 0.45078 0.84928 0.107 0.0
N1300 N 0.44321 0.83154 0.16742 0.0
N1301 N 0.5631 0.912 0.05224 0.0
C1302 C 0.47286 0.85456 0.13975 0.0
C1303 C 0.53393 0.89396 0.08082 0.0
N1304 N 0.54653 0.89519 0.17505 0.0
N1305 N 0.45978 0.8764 0.04859 0.0
H1306 H 0.60154 0.93218 0.05341 0.0
H1307 H 0.54956 0.90652 0.02725 0.0
H1308 H 0.42162 0.8617 0.04651 0.0
H1309 H 0.4793 0.89674 0.02717 0.0
H1310 H 0.52605 0.89027 0.19736 0.0
H1311 H 0.58434 0.91651 0.17916 0.0
H1312 H 0.45659 0.8277 0.19103 0.0
H1313 H 0.40469 0.81401 0.16606 0.0
C1314 C 0.61486 0.54866 0.5932 0.0
C1315 C 0.65103 0.5547 0.61785 0.0
C1316 C 0.61457 0.46374 0.61816 0.0
C1317 C 0.57562 0.45838 0.59643 0.0
N1318 N 0.53159 0.49624 0.57225 0.0
N1319 N 0.68165 0.51585 0.65622 0.0
C1320 C 0.57303 0.50109 0.58762 0.0
C1321 C 0.64873 0.51134 0.63166 0.0
N1322 N 0.62324 0.58639 0.57162 0.0
N1323 N 0.62234 0.42481 0.6233 0.0
H1324 H 0.71034 0.55014 0.66335 0.0
H1325 H 0.67864 0.48628 0.67051 0.0
H1326 H 0.60004 0.38977 0.61298 0.0
H1327 H 0.65373 0.42824 0.63526 0.0
H1328 H 0.59957 0.5824 0.55145 0.0
H1329 H 0.65709 0.61899 0.57073 0.0
H1330 H 0.5269 0.52647 0.56728 0.0
H1331 H 0.50034 0.46174 0.5679 0.0
C1332 C 0.4118 0.92783 0.36529 0.0
C1333 C 0.36972 0.90515 0.38779 0.0
C1334 C 0.40926 0.86105 0.41498 0.0
C1335 C 0.45445 0.89162 0.39794 0.0
N1336 N 0.4992 0.95575 0.35643 0.0
N1337 N 0.33796 0.85737 0.44015 0.0
C1338 C 0.4557 0.92542 0.37291 0.0
C1339 C 0.3705 0.87276 0.4137 0.0
N1340 N 0.40957 0.95 0.33565 0.0
N1341 N 0.40355 0.82183 0.43404 0.0
H1342 H 0.31332 0.86944 0.44294 0.0
H1343 H 0.34038 0.839 0.46175 0.0
H1344 H 0.43149 0.81325 0.43744 0.0
H1345 H 0.36932 0.79497 0.44364 0.0
H1346 H 0.43713 0.96309 0.31691 0.0
H1347 H 0.37791 0.95015 0.3276 0.0
H1348 H 0.50473 0.98574 0.34147 0.0
H1349 H 0.53059 0.95225 0.35923 0.0
C1350 C 0.55845 0.40329 0.91045 0.0
C1351 C 0.57251 0.44806 0.89321 0.0
C1352 C 0.49073 0.4074 0.86484 0.0
C1353 C 0.47344 0.36625 0.88757 0.0
N1354 N 0.49169 0.33513 0.93906 0.0
N1355 N 0.55034 0.49437 0.8551 0.0
C1356 C 0.50776 0.36661 0.91194 0.0
C1357 C 0.53806 0.45062 0.87067 0.0
N1358 N 0.59314 0.39638 0.92693 0.0
N1359 N 0.46345 0.40448 0.83674 0.0
H1360 H 0.58543 0.52551 0.85759 0.0
H1361 H 0.52501 0.50008 0.84134 0.0
H1362 H 0.43084 0.37232 0.83061 0.0
H1363 H 0.47584 0.43169 0.81783 0.0
H1364 H 0.58515 0.36237 0.93727 0.0
H1365 H 0.63065 0.42278 0.927 0.0
H1366 H 0.51436 0.33724 0.95941 0.0
H1367 H 0.4547 0.31191 0.94366 0.0
C1368 C 0.11938 0.54048 0.38342 0.0
C1369 C 0.15563 0.57219 0.40757 0.0
C1370 C 0.17195 0.50514 0.42154 0.0
C1371 C 0.13722 0.47328 0.39631 0.0
N1372 N 0.09287 0.47035 0.34505 0.0
N1373 N 0.22564 0.58826 0.4425 0.0
C1374 C 0.11489 0.49362 0.37494 0.0
C1375 C 0.18511 0.55573 0.42395 0.0
N1376 N 0.08919 0.55503 0.36852 0.0
N1377 N 0.19054 0.48673 0.44507 0.0
H1378 H 0.23581 0.6252 0.44605 0.0
H1379 H 0.25203 0.57983 0.45146 0.0
H1380 H 0.18143 0.45035 0.44498 0.0
H1381 H 0.21049 0.50605 0.46671 0.0
H1382 H 0.05868 0.53145 0.35359 0.0
H1383 H 0.09337 0.58995 0.37275 0.0
H1384 H 0.07924 0.48517 0.32702 0.0
H1385 H 0.09433 0.43951 0.33644 0.0
C1386 C 0.66556 0.16836 0.86891 0.0
C1387 C 0.66616 0.12801 0.88563 0.0
C1388 C 0.59064 0.11242 0.91687 0.0
C1389 C 0.59604 0.15816 0.90578 0.0
N1390 N 0.64227 0.23202 0.87206 0.0
N1391 N 0.63415 0.06972 0.93257 0.0
C1392 C 0.63397 0.18641 0.88146 0.0
C1393 C 0.62961 0.10179 0.91123 0.0
N1394 N 0.69629 0.19051 0.84163 0.0
N1395 N 0.54878 0.07975 0.93408 0.0
H1396 H 0.66418 0.06403 0.93145 0.0
H1397 H 0.61126 0.05337 0.95379 0.0
H1398 H 0.51965 0.08659 0.93837 0.0
H1399 H 0.54109 0.04423 0.9406 0.0
H1400 H 0.69465 0.2169 0.82624 0.0
H1401 H 0.72057 0.17923 0.83273 0.0
H1402 H 0.67302 0.25705 0.8579 0.0
H1403 H 0.62 0.24617 0.88031 0.0
C1404 C 0.48488 0.59442 0.37885 0.0
C1405 C 0.46878 0.58335 0.41368 0.0
C1406 C 0.55076 0.64983 0.4322 0.0
C1407 C 0.56541 0.66511 0.39763 0.0
N1408 N 0.54368 0.65338 0.33759 0.0
N1409 N 0.4829 0.61011 0.47267 0.0
C1410 C 0.53134 0.63802 0.37083 0.0
C1411 C 0.50063 0.6144 0.43996 0.0
N1412 N 0.45701 0.56218 0.35356 0.0
N1413 N 0.5851 0.66659 0.45774 0.0
H1414 H 0.44621 0.58517 0.47917 0.0
H1415 H 0.50302 0.63487 0.49225 0.0
H1416 H 0.6226 0.68721 0.4526 0.0
H1417 H 0.57711 0.65376 0.48297 0.0
H1418 H 0.46906 0.56479 0.32826 0.0
H1419 H 0.42293 0.53074 0.35844 0.0
H1420 H 0.51881 0.63882 0.31725 0.0
H1421 H 0.57831 0.6826 0.33059 0.0
C1422 C 0.8888 0.52142 0.87187 0.0
C1423 C 0.90264 0.55352 0.90125 0.0
C1424 C 0.89328 0.483 0.93632 0.0
C1425 C 0.86918 0.44952 0.90921 0.0
N1426 N 0.84244 0.43663 0.85046 0.0
N1427 N 0.90533 0.55631 0.96446 0.0
C1428 C 0.86726 0.46877 0.87657 0.0
C1429 C 0.90183 0.5322 0.93428 0.0
N1430 N 0.8942 0.54034 0.83951 0.0
N1431 N 0.90646 0.46707 0.96493 0.0
H1432 H 0.91003 0.59144 0.96677 0.0
H1433 H 0.89869 0.53894 0.98832 0.0
H1434 H 0.90026 0.43107 0.96706 0.0
H1435 H 0.92829 0.49098 0.98442 0.0
H1436 H 0.8898 0.51971 0.81738 0.0
H1437 H 0.90641 0.57734 0.83442 0.0
H1438 H 0.83388 0.4473 0.82731 0.0
H1439 H 0.82799 0.39858 0.85286 0.0
C1440 C 0.19194 0.40431 0.26674 0.0
C1441 C 0.18534 0.3658 0.28945 0.0
C1442 C 0.19447 0.32196 0.24055 0.0
C1443 C 0.20877 0.36283 0.21805 0.0
N1444 N 0.23012 0.4487 0.21382 0.0
N1445 N 0.20321 0.30017 0.29787 0.0
C1446 C 0.20992 0.40583 0.23222 0.0
C1447 C 0.1938 0.3286 0.27634 0.0
N1448 N 0.18068 0.43901 0.27779 0.0
N1449 N 0.17736 0.27523 0.22838 0.0
H1450 H 0.20298 0.30365 0.32443 0.0
H1451 H 0.21546 0.27662 0.28873 0.0
H1452 H 0.17237 0.26623 0.20248 0.0
H1453 H 0.16353 0.24464 0.24467 0.0
H1454 H 0.17986 0.46499 0.26144 0.0
H1455 H 0.16875 0.43932 0.30285 0.0
H1456 H 0.23538 0.48186 0.22403 0.0
H1457 H 0.2465 0.4525 0.18982 0.0
C1458 C 0.88278 0.24443 0.73632 0.0
C1459 C 0.84826 0.22373 0.70914 0.0
C1460 C 0.78541 0.1745 0.75369 0.0
C1461 C 0.82388 0.1864 0.77798 0.0
N1462 N 0.91275 0.22899 0.78759 0.0
N1463 N 0.76137 0.17996 0.69513 0.0
C1464 C 0.87323 0.21985 0.76793 0.0
C1465 C 0.79771 0.19175 0.71873 0.0
N1466 N 0.92416 0.2895 0.73366 0.0
N1467 N 0.73729 0.14758 0.76421 0.0
H1468 H 0.76701 0.20258 0.67404 0.0
H1469 H 0.72541 0.15053 0.69767 0.0
H1470 H 0.72753 0.13335 0.78901 0.0
H1471 H 0.70704 0.14063 0.74911 0.0
H1472 H 0.93119 0.31307 0.71277 0.0
H1473 H 0.93119 0.31307 0.71277 0.0
H1474 H 0.90992 0.21136 0.81089 0.0
H1475 H 0.90992 0.21136 0.81089 0.0
C1476 C 0.70952 0.84022 0.22637 0.0
C1477 C 0.66857 0.84266 0.2134 0.0
C1478 C 0.62736 0.81082 0.26968 0.0
C1479 C 0.67253 0.8177 0.28401 0.0
N1480 N 0.76111 0.85443 0.27487 0.0
N1481 N 0.5876 0.83162 0.22394 0.0
C1482 C 0.71465 0.83631 0.26202 0.0
C1483 C 0.62696 0.82807 0.23538 0.0
N1484 N 0.74387 0.84054 0.20457 0.0
N1485 N 0.58451 0.78618 0.28812 0.0
H1486 H 0.58532 0.84156 0.19877 0.0
H1487 H 0.55878 0.82729 0.23984 0.0
H1488 H 0.58304 0.77168 0.31249 0.0
H1489 H 0.54987 0.77607 0.27798 0.0
H1490 H 0.77068 0.83212 0.21268 0.0
H1491 H 0.74228 0.84387 0.17813 0.0
H1492 H 0.79291 0.87337 0.25981 0.0
H1493 H 0.76859 0.85563 0.30075 0.0
C1494 C 0.8549 0.69834 0.74212 0.0
C1495 C 0.81861 0.65497 0.72592 0.0
C1496 C 0.81614 0.61232 0.78053 0.0
C1497 C 0.84485 0.65896 0.79744 0.0
N1498 N 0.86459 0.74383 0.79336 0.0
N1499 N 0.75596 0.56975 0.73535 0.0
C1500 C 0.85591 0.70124 0.778 0.0
C1501 C 0.79667 0.61119 0.7466 0.0
N1502 N 0.89027 0.7364 0.72367 0.0
N1503 N 0.80778 0.56954 0.79572 0.0
H1504 H 0.73873 0.5699 0.71276 0.0
H1505 H 0.73645 0.53824 0.75047 0.0
H1506 H 0.82159 0.56831 0.81974 0.0
H1507 H 0.79064 0.53573 0.78282 0.0
H1508 H 0.91818 0.76771 0.7359 0.0
H1509 H 0.89545 0.73237 0.69762 0.0
H1510 H 0.87106 0.77469 0.77895 0.0
H1511 H 0.85766 0.74477 0.81948 0.0
C1512 C 0.15545 0.78181 0.24826 0.0
C1513 C 0.18349 0.81288 0.22063 0.0
C1514 C 0.24628 0.86651 0.26271 0.0
C1515 C 0.21393 0.8406 0.29044 0.0
N1516 N 0.12947 0.7835 0.30641 0.0
N1517 N 0.24922 0.8937 0.20435 0.0
C1518 C 0.16629 0.80042 0.28252 0.0
C1519 C 0.22756 0.85758 0.2285 0.0
N1520 N 0.11824 0.73484 0.24202 0.0
N1521 N 0.2947 0.90008 0.26892 0.0
H1522 H 0.23322 0.89095 0.18043 0.0
H1523 H 0.27993 0.92814 0.2094 0.0
H1524 H 0.30962 0.90653 0.29358 0.0
H1525 H 0.3205 0.91744 0.24929 0.0
H1526 H 0.09938 0.7098 0.26177 0.0
H1527 H 0.10955 0.72002 0.21727 0.0
H1528 H 0.0937 0.75495 0.30153 0.0
H1529 H 0.13351 0.80165 0.32972 0.0
C1530 C 0.38801 0.24466 0.75886 0.0
C1531 C 0.37469 0.20791 0.78455 0.0
C1532 C 0.3796 0.154 0.7405 0.0
C1533 C 0.37884 0.18426 0.71359 0.0
N1534 N 0.39335 0.26632 0.69898 0.0
N1535 N 0.35731 0.12536 0.79847 0.0
C1536 C 0.3865 0.23205 0.72321 0.0
C1537 C 0.37063 0.16215 0.77498 0.0
N1538 N 0.40581 0.29268 0.76867 0.0
N1539 N 0.39148 0.11835 0.73421 0.0
H1540 H 0.34542 0.12722 0.82318 0.0
H1541 H 0.35558 0.09201 0.79235 0.0
H1542 H 0.4026 0.11262 0.71012 0.0
H1543 H 0.4026 0.11262 0.71012 0.0
H1544 H 0.42134 0.32245 0.75173 0.0
H1545 H 0.40952 0.30338 0.79439 0.0
H1546 H 0.38818 0.29626 0.70396 0.0
H1547 H 0.40617 0.26637 0.67441 0.0
C1548 C 0.34566 0.32523 0.98507 0.0
C1549 C 0.31553 0.27643 0.97143 0.0
C1550 C 0.24636 0.27066 0.00743 0.0
C1551 C 0.27787 0.31569 0.0247 0.0
N1552 N 0.36046 0.38488 0.0305 0.0
N1553 N 0.23905 0.19922 0.97788 0.0
C1554 C 0.32822 0.34299 0.01329 0.0
C1555 C 0.26633 0.24847 0.98486 0.0
N1556 N 0.39022 0.35593 0.97006 0.0
N1557 N 0.19641 0.24951 0.01164 0.0
H1558 H 0.25373 0.18069 0.96458 0.0
H1559 H 0.20488 0.17591 0.98926 0.0
H1560 H 0.18073 0.2665 0.02602 0.0
H1561 H 0.17092 0.21903 0.99746 0.0
H1562 H 0.41141 0.39346 0.97566 0.0
H1563 H 0.40373 0.34511 0.94939 0.0
H1564 H 0.39858 0.40351 0.02664 0.0
H1565 H 0.34945 0.39837 0.05104 0.0
C1566 C 0.04099 0.26918 0.49262 0.0
C1567 C 0.06063 0.31699 0.47792 0.0
C1568 C 0.99783 0.32632 0.51204 0.0
C1569 C 0.97565 0.27645 0.52425 0.0
N1570 N 0.96881 0.19706 0.51515 0.0
N1571 N 0.05777 0.39267 0.47602 0.0
C1572 C 0.99549 0.24717 0.51147 0.0
C1573 C 0.03924 0.346 0.48858 0.0
N1574 N 0.06729 0.24525 0.48986 0.0
N1575 N 0.98034 0.35647 0.52204 0.0
H1576 H 0.08807 0.40867 0.45946 0.0
H1577 H 0.0429 0.41508 0.48246 0.0
H1578 H 0.95048 0.34565 0.53871 0.0
H1579 H 0.95048 0.34565 0.53871 0.0
H1580 H 0.0575 0.21219 0.50247 0.0
H1581 H 0.10238 0.26237 0.47885 0.0
H1582 H 0.97923 0.17318 0.50407 0.0
H1583 H 0.93288 0.17937 0.5249 0.0
C1584 C 0.73403 0.96685 0.99548 0.0
C1585 C 0.72403 0.98327 0.02675 0.0
C1586 C 0.73737 0.05883 0.99501 0.0
C1587 C 0.74577 0.04147 0.96325 0.0
N1588 N 0.72888 0.96455 0.93427 0.0
N1589 N 0.74723 0.06169 0.05594 0.0
C1590 C 0.73778 0.99159 0.96369 0.0
C1591 C 0.73447 0.03393 0.02663 0.0
N1592 N 0.74713 0.93136 0.99647 0.0
N1593 N 0.7279 0.09709 0.99554 0.0
H1594 H 0.7499 0.04954 0.08002 0.0
H1595 H 0.76128 0.09982 0.05565 0.0
H1596 H 0.72284 0.11284 0.97357 0.0
H1597 H 0.71676 0.10762 0.01779 0.0
H1598 H 0.761 0.92172 0.97521 0.0
H1599 H 0.75218 0.91824 0.01974 0.0
H1600 H 0.71954 0.92747 0.93433 0.0
H1601 H 0.72123 0.97448 0.91079 0.0
C1602 C 0.74499 0.70042 0.50666 0.0
C1603 C 0.73418 0.70902 0.54057 0.0
C1604 C 0.69035 0.74837 0.51213 0.0
C1605 C 0.71391 0.75191 0.47992 0.0
N1606 N 0.78543 0.74808 0.45694 0.0
N1607 N 0.70236 0.75532 0.57291 0.0
C1608 C 0.74745 0.73266 0.47986 0.0
C1609 C 0.70875 0.73719 0.54263 0.0
N1610 N 0.75392 0.66296 0.4992 0.0
N1611 N 0.6507 0.7555 0.51503 0.0
H1612 H 0.71021 0.74703 0.5968 0.0
H1613 H 0.69078 0.78142 0.57391 0.0
H1614 H 0.63405 0.76326 0.4949 0.0
H1615 H 0.63052 0.74816 0.53784 0.0
H1616 H 0.76088 0.65622 0.47406 0.0
H1617 H 0.74735 0.63506 0.51657 0.0
H1618 H 0.80933 0.73372 0.45699 0.0
H1619 H 0.80026 0.78174 0.44425 0.0
C1620 C 0.98796 0.75255 0.00425 0.0
C1621 C 0.98256 0.71404 0.98215 0.0
C1622 C 0.05128 0.71244 0.0138 0.0
C1623 C 0.05872 0.75329 0.03497 0.0
N1624 N 0.04445 0.82264 0.03857 0.0
N1625 N 1.01112 0.65679 0.9676 0.0
C1626 C 0.0294 0.77582 0.02725 0.0
C1627 C 1.0145 0.69417 0.9875 0.0
N1628 N 0.95403 0.76798 0.00293 0.0
N1629 N 0.08001 0.69091 0.01705 0.0
H1630 H 0.98679 0.64115 0.94711 0.0
H1631 H 0.98679 0.64115 0.94711 0.0
H1632 H 0.10921 0.70166 0.03383 0.0
H1633 H 0.07503 0.661 0.00205 0.0
H1634 H 0.95276 0.7921 0.02094 0.0
H1635 H 0.92417 0.75277 0.98601 0.0
H1636 H 0.02723 0.84258 0.03159 0.0
H1637 H 0.07847 0.84454 0.05032 0.0
C1638 C 0.25094 0.99545 0.48364 0.0
C1639 C 0.28117 0.976 0.47185 0.0
C1640 C 0.34527 0.03179 0.51354 0.0
C1641 C 0.31601 0.05348 0.52323 0.0
N1642 N 0.24854 0.06576 0.50806 0.0
N1643 N 0.36145 0.98247 0.47254 0.0
C1644 C 0.27113 0.03811 0.50537 0.0
C1645 C 0.32951 0.99596 0.48613 0.0
N1646 N 0.20179 0.97169 0.4757 0.0
N1647 N 0.38709 0.04353 0.53158 0.0
H1648 H 0.35166 0.95704 0.45259 0.0
H1649 H 0.39887 0.99973 0.47874 0.0
H1650 H 0.39994 0.06971 0.55101 0.0
H1651 H 0.40672 0.02477 0.52915 0.0
H1652 H 0.17718 0.98162 0.48614 0.0
H1653 H 0.18456 0.93844 0.46224 0.0
H1654 H 0.21782 0.05908 0.49347 0.0
H1655 H 0.2649 0.09923 0.52139 0.0
loop_
_geom_bond_atom_site_label_1
_geom_bond_atom_site_label_2
_geom_bond_distance
_geom_bond_site_symmetry_2
_ccdc_geom_bond_type
Tb0 N29 2.617 . S
Tb0 N35 2.572 . S
Tb0 O44 2.465 . S
Tb0 O45 2.387 . S
Tb0 O47 2.428 . S
Tb0 O48 2.308 . S
Tb0 O52 2.349 . S
Tb0 O55 2.393 . S
Tb0 C64 2.802 . S
C1 N2 1.379 . S
C1 C4 1.416 . S
C1 C8 1.424 . S
N2 C1 1.379 . S
N2 C5 1.334 1_554 S
N2 Tb11 2.617 . S
C3 C5 1.390 . S
C3 C6 1.339 . S
C3 H23 0.930 . S
C4 C1 1.416 . S
C4 C6 1.416 1_554 S
C4 C10 1.448 1_455 S
C5 N2 1.334 1_556 S
C5 C3 1.390 . S
C5 H16 0.930 . S
C6 C3 1.339 . S
C6 C4 1.416 1_556 S
C6 H27 0.930 . S
C7 C8 1.413 1_655 S
C7 C9 1.427 . S
C7 C13 1.416 . S
C8 C1 1.424 . S
C8 C7 1.413 1_455 S
C8 N12 1.361 . S
C9 C7 1.427 . S
C9 C10 1.328 . S
C9 H24 0.929 . S
C10 C4 1.448 1_655 S
C10 C9 1.328 . S
C10 H25 0.930 1_554 S
Tb11 N2 2.617 . S
Tb11 N12 2.572 . S
Tb11 O46 2.349 . S
Tb11 O49 2.393 . S
Tb11 O50 2.465 . S
Tb11 O51 2.387 . S
Tb11 O53 2.428 . S
Tb11 O54 2.308 . S
Tb11 C75 2.802 . S
N12 C8 1.361 . S
N12 Tb11 2.572 . S
N12 C14 1.340 . S
C13 C7 1.416 . S
C13 C15 1.332 1_655 S
C13 H21 0.931 . S
C14 N12 1.340 . S
C14 C15 1.407 . S
C14 H20 0.930 . S
C15 C13 1.332 1_455 S
C15 C14 1.407 . S
C15 H17 0.929 1_455 S
H16 C5 0.930 . S
H17 C15 0.929 1_655 S
H18 C33 0.930 . S
H19 C40 0.929 . S
H20 C14 0.930 . S
H21 C13 0.931 . S
H22 C36 0.930 . S
H23 C3 0.930 . S
H24 C9 0.929 . S
H25 C10 0.930 1_556 S
H26 C31 0.930 . S
H27 C6 0.930 . S
H28 C39 0.931 . S
N29 Tb0 2.617 . S
N29 C30 1.379 . S
N29 C33 1.334 . S
C30 N29 1.379 . S
C30 C32 1.416 . S
C30 C38 1.424 . S
C31 H26 0.930 . S
C31 C33 1.390 . S
C31 C34 1.339 . S
C32 C30 1.416 . S
C32 C34 1.416 . S
C32 C65 1.448 . S
C33 H18 0.930 . S
C33 N29 1.334 . S
C33 C31 1.390 . S
C34 C31 1.339 . S
C34 C32 1.416 . S
C34 H41 0.930 . S
N35 Tb0 2.572 . S
N35 C36 1.340 . S
N35 C38 1.361 . S
C36 H22 0.930 . S
C36 N35 1.340 . S
C36 C40 1.407 . S
C37 C38 1.413 . S
C37 C39 1.416 . S
C37 C66 1.427 . S
C38 C30 1.424 . S
C38 N35 1.361 . S
C38 C37 1.413 . S
C39 H28 0.931 . S
C39 C37 1.416 . S
C39 C40 1.332 . S
C40 H19 0.929 . S
C40 C36 1.407 . S
C40 C39 1.332 . S
H41 C34 0.930 . S
H42 C65 0.930 . S
H43 C66 0.929 . S
O44 Tb0 2.465 . S
O44 C64 1.264 . S
O45 Tb0 2.387 . S
O45 C56 1.264 . S
O46 Tb11 2.349 . S
O46 C56 1.243 . S
O47 Tb0 2.428 . S
O47 C64 1.256 . S
O48 Tb0 2.308 . S
O48 C63 1.266 . S
O49 Tb11 2.393 . S
O49 C63 1.248 . S
O50 Tb11 2.465 . S
O50 C75 1.264 . S
O51 Tb11 2.387 . S
O51 C67 1.264 . S
O52 Tb0 2.349 . S
O52 C67 1.243 . S
O53 Tb11 2.428 . S
O53 C75 1.256 . S
O54 Tb11 2.308 . S
O54 C74 1.266 . S
O55 Tb0 2.393 . S
O55 C74 1.248 . S
C56 O45 1.264 . S
C56 O46 1.243 . S
C57 C60 1.399 . S
C57 C62 1.383 . S
C57 C64 1.496 . S
C58 C59 1.399 . S
C58 C62 1.389 . S
C59 C58 1.399 . S
C59 C61 1.380 . S
C59 H76 0.929 . S
C60 C57 1.399 . S
C60 C61 1.392 . S
C60 H77 0.929 . S
C61 C59 1.380 . S
C61 C60 1.392 . S
C61 H78 0.929 . S
C62 C57 1.383 . S
C62 C58 1.389 . S
C62 H79 0.931 . S
C63 O48 1.266 . S
C63 O49 1.248 . S
C64 Tb0 2.802 . S
C64 O44 1.264 . S
C64 O47 1.256 . S
C64 C57 1.496 . S
C65 C32 1.448 . S
C65 H42 0.930 . S
C65 C66 1.328 . S
C66 C37 1.427 . S
C66 H43 0.929 . S
C66 C65 1.328 . S
C67 O51 1.264 . S
C67 O52 1.243 . S
C68 C71 1.399 . S
C68 C72 1.383 . S
C68 C75 1.496 . S
C69 C70 1.399 . S
C69 C72 1.389 . S
C70 C69 1.399 . S
C70 C73 1.380 . S
C70 H80 0.929 . S
C71 C68 1.399 . S
C71 C73 1.392 . S
C71 H81 0.929 . S
C72 C68 1.383 . S
C72 C69 1.389 . S
C72 H82 0.931 . S
C73 C70 1.380 . S
C73 C71 1.392 . S
C73 H83 0.929 . S
C74 O54 1.266 . S
C74 O55 1.248 . S
C75 Tb11 2.802 . S
C75 O50 1.264 . S
C75 O53 1.256 . S
C75 C68 1.496 . S
H76 C59 0.929 . S
H77 C60 0.929 . S
H78 C61 0.929 . S
H79 C62 0.931 . S
H80 C70 0.929 . S
H81 C71 0.929 . S
H82 C72 0.931 . S
H83 C73 0.929 . S
Tb84 N113 2.617 . S
Tb84 N119 2.572 . S
Tb84 O128 2.465 . S
Tb84 O129 2.387 . S
Tb84 O131 2.428 . S
Tb84 O132 2.308 . S
Tb84 O136 2.349 . S
Tb84 O139 2.393 . S
Tb84 C148 2.802 1_655 S
C85 N86 1.379 . S
C85 C88 1.416 . S
C85 C92 1.424 . S
N86 C85 1.379 . S
N86 C89 1.334 . S
N86 Tb95 2.617 . S
C87 C89 1.390 . S
C87 C90 1.339 . S
C87 H107 0.930 . S
C88 C85 1.416 . S
C88 C90 1.416 . S
C88 C94 1.448 1_545 S
C89 N86 1.334 . S
C89 C87 1.390 . S
C89 H100 0.930 . S
C90 C87 1.339 . S
C90 C88 1.416 . S
C90 H111 0.930 . S
C91 C92 1.413 1_565 S
C91 C93 1.427 . S
C91 C97 1.416 . S
C92 C85 1.424 . S
C92 C91 1.413 1_545 S
C92 N96 1.361 . S
C93 C91 1.427 . S
C93 C94 1.328 . S
C93 H108 0.929 . S
C94 C88 1.448 1_565 S
C94 C93 1.328 . S
C94 H109 0.930 . S
Tb95 N86 2.617 . S
Tb95 N96 2.572 . S
Tb95 O130 2.349 . S
Tb95 O133 2.393 . S
Tb95 O134 2.465 . S
Tb95 O135 2.387 . S
Tb95 O137 2.428 . S
Tb95 O138 2.308 . S
Tb95 C159 2.802 . S
N96 C92 1.361 . S
N96 Tb95 2.572 . S
N96 C98 1.340 . S
C97 C91 1.416 . S
C97 C99 1.332 1_565 S
C97 H105 0.931 . S
C98 N96 1.340 . S
C98 C99 1.407 . S
C98 H104 0.930 . S
C99 C97 1.332 1_545 S
C99 C98 1.407 . S
C99 H101 0.929 1_545 S
H100 C89 0.930 . S
H101 C99 0.929 1_565 S
H102 C117 0.930 . S
H103 C124 0.929 . S
H104 C98 0.930 . S
H105 C97 0.931 . S
H106 C120 0.930 . S
H107 C87 0.930 . S
H108 C93 0.929 . S
H109 C94 0.930 . S
H110 C115 0.930 . S
H111 C90 0.930 . S
H112 C123 0.931 . S
N113 Tb84 2.617 . S
N113 C114 1.379 . S
N113 C117 1.334 . S
C114 N113 1.379 . S
C114 C116 1.415 . S
C114 C122 1.424 1_655 S
C115 H110 0.930 . S
C115 C117 1.390 . S
C115 C118 1.339 . S
C116 C114 1.415 . S
C116 C118 1.419 . S
C116 C149 1.447 1_655 S
C117 H102 0.930 . S
C117 N113 1.334 . S
C117 C115 1.390 . S
C118 C115 1.339 . S
C118 C116 1.419 . S
C118 H125 0.930 . S
N119 Tb84 2.572 . S
N119 C120 1.340 1_655 S
N119 C122 1.361 1_655 S
C120 H106 0.930 . S
C120 N119 1.340 1_455 S
C120 C124 1.407 . S
C121 C122 1.413 . S
C121 C123 1.416 . S
C121 C150 1.427 . S
C122 C114 1.424 1_455 S
C122 N119 1.361 1_455 S
C122 C121 1.413 . S
C123 H112 0.931 . S
C123 C121 1.416 . S
C123 C124 1.332 . S
C124 H103 0.929 . S
C124 C120 1.407 . S
C124 C123 1.332 . S
H125 C118 0.930 . S
H126 C149 0.930 . S
H127 C150 0.929 . S
O128 Tb84 2.465 . S
O128 C148 1.264 1_655 S
O129 Tb84 2.387 . S
O129 C140 1.264 . S
O130 Tb95 2.349 . S
O130 C140 1.243 . S
O131 Tb84 2.428 . S
O131 C148 1.256 1_655 S
O132 Tb84 2.308 . S
O132 C147 1.266 . S
O133 Tb95 2.393 . S
O133 C147 1.248 . S
O134 Tb95 2.465 . S
O134 C159 1.264 . S
O135 Tb95 2.387 . S
O135 C151 1.264 . S
O136 Tb84 2.349 . S
O136 C151 1.243 . S
O137 Tb95 2.428 . S
O137 C159 1.256 . S
O138 Tb95 2.308 . S
O138 C158 1.266 . S
O139 Tb84 2.393 . S
O139 C158 1.248 . S
C140 O129 1.264 . S
C140 O130 1.243 . S
C141 C144 1.399 . S
C141 C146 1.383 . S
C141 C148 1.496 . S
C142 C143 1.399 . S
C142 C146 1.389 . S
C143 C142 1.399 . S
C143 C145 1.380 . S
C143 H160 0.929 . S
C144 C141 1.399 . S
C144 C145 1.392 . S
C144 H161 0.929 . S
C145 C143 1.380 . S
C145 C144 1.392 . S
C145 H162 0.929 . S
C146 C141 1.383 . S
C146 C142 1.389 . S
C146 H163 0.931 . S
C147 O132 1.266 . S
C147 O133 1.248 . S
C148 Tb84 2.802 1_455 S
C148 O128 1.264 1_455 S
C148 O131 1.256 1_455 S
C148 C141 1.496 . S
C149 C116 1.447 1_455 S
C149 H126 0.930 . S
C149 C150 1.328 . S
C150 C121 1.427 . S
C150 H127 0.929 . S
C150 C149 1.328 . S
C151 O135 1.264 . S
C151 O136 1.243 . S
C152 C155 1.399 . S
C152 C156 1.383 . S
C152 C159 1.496 . S
C153 C154 1.399 . S
C153 C156 1.389 . S
C154 C153 1.399 . S
C154 C157 1.380 . S
C154 H164 0.929 . S
C155 C152 1.399 . S
C155 C157 1.392 . S
C155 H165 0.929 . S
C156 C152 1.383 . S
C156 C153 1.389 . S
C156 H166 0.931 . S
C157 C154 1.380 . S
C157 C155 1.392 . S
C157 H167 0.929 . S
C158 O138 1.266 . S
C158 O139 1.248 . S
C159 Tb95 2.802 . S
C159 O134 1.264 . S
C159 O137 1.256 . S
C159 C152 1.496 . S
H160 C143 0.929 . S
H161 C144 0.929 . S
H162 C145 0.929 . S
H163 C146 0.931 . S
H164 C154 0.929 . S
H165 C155 0.929 . S
H166 C156 0.931 . S
H167 C157 0.929 . S
Tb168 N197 2.617 . S
Tb168 N203 2.572 . S
Tb168 O212 2.465 . S
Tb168 O213 2.387 . S
Tb168 O215 2.428 . S
Tb168 O216 2.308 . S
Tb168 O220 2.349 . S
Tb168 O223 2.393 . S
Tb168 C232 2.802 1_565 S
C169 N170 1.379 . S
C169 C172 1.416 . S
C169 C176 1.424 . S
N170 C169 1.379 . S
N170 C173 1.334 1_554 S
N170 Tb179 2.617 . S
C171 C173 1.390 . S
C171 C174 1.339 . S
C171 H191 0.930 . S
C172 C169 1.416 . S
C172 C174 1.416 1_554 S
C172 C178 1.448 . S
C173 N170 1.334 1_556 S
C173 C171 1.390 . S
C173 H184 0.930 . S
C174 C171 1.339 . S
C174 C172 1.416 1_556 S
C174 H195 0.930 . S
C175 C176 1.413 . S
C175 C177 1.427 . S
C175 C181 1.416 . S
C176 C169 1.424 . S
C176 C175 1.413 . S
C176 N180 1.361 . S
C177 C175 1.427 . S
C177 C178 1.328 . S
C177 H192 0.929 . S
C178 C172 1.448 . S
C178 C177 1.328 . S
C178 H193 0.930 1_554 S
Tb179 N170 2.617 . S
Tb179 N180 2.572 . S
Tb179 O214 2.349 . S
Tb179 O217 2.393 . S
Tb179 O218 2.465 . S
Tb179 O219 2.387 . S
Tb179 O221 2.428 . S
Tb179 O222 2.308 . S
Tb179 C243 2.802 . S
N180 C176 1.361 . S
N180 Tb179 2.572 . S
N180 C182 1.340 . S
C181 C175 1.416 . S
C181 C183 1.332 . S
C181 H189 0.931 . S
C182 N180 1.340 . S
C182 C183 1.407 . S
C182 H188 0.930 . S
C183 C181 1.332 . S
C183 C182 1.407 . S
C183 H185 0.929 . S
H184 C173 0.930 . S
H185 C183 0.929 . S
H186 C201 0.930 . S
H187 C208 0.929 . S
H188 C182 0.930 . S
H189 C181 0.931 . S
H190 C204 0.929 . S
H191 C171 0.930 . S
H192 C177 0.929 . S
H193 C178 0.930 1_556 S
H194 C199 0.930 . S
H195 C174 0.930 . S
H196 C207 0.931 . S
N197 Tb168 2.617 . S
N197 C198 1.379 . S
N197 C201 1.334 . S
C198 N197 1.379 . S
C198 C200 1.421 . S
C198 C206 1.424 1_565 S
C199 H194 0.930 . S
C199 C201 1.390 . S
C199 C202 1.339 . S
C200 C198 1.421 . S
C200 C202 1.421 . S
C200 C233 1.439 1_565 S
C201 H186 0.930 . S
C201 N197 1.334 . S
C201 C199 1.390 . S
C202 C199 1.339 . S
C202 C200 1.421 . S
C202 H209 0.930 . S
N203 Tb168 2.572 . S
N203 C204 1.340 1_565 S
N203 C206 1.361 1_565 S
C204 H190 0.929 . S
C204 N203 1.340 1_545 S
C204 C208 1.407 . S
C205 C206 1.413 . S
C205 C207 1.416 . S
C205 C234 1.427 . S
C206 C198 1.424 1_545 S
C206 N203 1.361 1_545 S
C206 C205 1.413 . S
C207 H196 0.931 . S
C207 C205 1.416 . S
C207 C208 1.332 . S
C208 H187 0.929 . S
C208 C204 1.407 . S
C208 C207 1.332 . S
H209 C202 0.930 . S
H210 C233 0.930 . S
H211 C234 0.929 . S
O212 Tb168 2.465 . S
O212 C232 1.264 1_565 S
O213 Tb168 2.387 . S
O213 C224 1.264 . S
O214 Tb179 2.349 . S
O214 C224 1.243 . S
O215 Tb168 2.428 . S
O215 C232 1.256 1_565 S
O216 Tb168 2.308 . S
O216 C231 1.266 . S
O217 Tb179 2.393 . S
O217 C231 1.248 . S
O218 Tb179 2.465 . S
O218 C243 1.264 . S
O219 Tb179 2.387 . S
O219 C235 1.264 . S
O220 Tb168 2.349 . S
O220 C235 1.243 . S
O221 Tb179 2.428 . S
O221 C243 1.256 . S
O222 Tb179 2.308 . S
O222 C242 1.266 . S
O223 Tb168 2.393 . S
O223 C242 1.248 . S
C224 O213 1.264 . S
C224 O214 1.243 . S
C225 C228 1.399 . S
C225 C230 1.383 . S
C225 C232 1.496 . S
C226 C227 1.399 . S
C226 C230 1.389 . S
C227 C226 1.399 . S
C227 C229 1.380 . S
C227 H244 0.929 . S
C228 C225 1.399 . S
C228 C229 1.392 . S
C228 H245 0.929 . S
C229 C227 1.380 . S
C229 C228 1.392 . S
C229 H246 0.929 . S
C230 C225 1.383 . S
C230 C226 1.389 . S
C230 H247 0.931 . S
C231 O216 1.266 . S
C231 O217 1.248 . S
C232 Tb168 2.802 1_545 S
C232 O212 1.264 1_545 S
C232 O215 1.256 1_545 S
C232 C225 1.496 . S
C233 C200 1.439 1_545 S
C233 H210 0.930 . S
C233 C234 1.328 . S
C234 C205 1.427 . S
C234 H211 0.929 . S
C234 C233 1.328 . S
C235 O219 1.264 . S
C235 O220 1.243 . S
C236 C239 1.399 . S
C236 C240 1.383 . S
C236 C243 1.496 . S
C237 C238 1.399 . S
C237 C240 1.389 . S
C238 C237 1.399 . S
C238 C241 1.380 . S
C238 H248 0.929 . S
C239 C236 1.399 . S
C239 C241 1.392 . S
C239 H249 0.929 . S
C240 C236 1.383 . S
C240 C237 1.389 . S
C240 H250 0.931 . S
C241 C238 1.380 . S
C241 C239 1.392 . S
C241 H251 0.929 . S
C242 O222 1.266 . S
C242 O223 1.248 . S
C243 Tb179 2.802 . S
C243 O218 1.264 . S
C243 O221 1.256 . S
C243 C236 1.496 . S
H244 C227 0.929 . S
H245 C228 0.929 . S
H246 C229 0.929 . S
H247 C230 0.931 . S
H248 C238 0.929 . S
H249 C239 0.929 . S
H250 C240 0.931 . S
H251 C241 0.929 . S
Tb252 N281 2.617 . S
Tb252 N287 2.572 . S
Tb252 O296 2.465 . S
Tb252 O297 2.387 . S
Tb252 O299 2.428 . S
Tb252 O300 2.308 . S
Tb252 O304 2.349 . S
Tb252 O307 2.393 . S
Tb252 C316 2.802 . S
C253 N254 1.379 . S
C253 C256 1.416 . S
C253 C260 1.424 . S
N254 C253 1.379 . S
N254 C257 1.334 . S
N254 Tb263 2.617 . S
C255 C257 1.390 . S
C255 C258 1.339 . S
C255 H275 0.930 . S
C256 C253 1.416 . S
C256 C258 1.416 . S
C256 C262 1.448 1_655 S
C257 N254 1.334 . S
C257 C255 1.390 . S
C257 H268 0.930 . S
C258 C255 1.339 . S
C258 C256 1.416 . S
C258 H279 0.930 . S
C259 C260 1.413 1_455 S
C259 C261 1.427 . S
C259 C265 1.416 . S
C260 C253 1.424 . S
C260 C259 1.413 1_655 S
C260 N264 1.361 . S
C261 C259 1.427 . S
C261 C262 1.328 . S
C261 H276 0.929 . S
C262 C256 1.448 1_455 S
C262 C261 1.328 . S
C262 H277 0.930 . S
Tb263 N254 2.617 . S
Tb263 N264 2.572 . S
Tb263 O298 2.349 . S
Tb263 O301 2.393 . S
Tb263 O302 2.465 . S
Tb263 O303 2.387 . S
Tb263 O305 2.428 . S
Tb263 O306 2.308 . S
Tb263 C327 2.802 . S
N264 C260 1.361 . S
N264 Tb263 2.572 . S
N264 C266 1.340 . S
C265 C259 1.416 . S
C265 C267 1.332 1_455 S
C265 H273 0.931 . S
C266 N264 1.340 . S
C266 C267 1.407 . S
C266 H272 0.930 . S
C267 C265 1.332 1_655 S
C267 C266 1.407 . S
C267 H269 0.929 1_655 S
H268 C257 0.930 . S
H269 C267 0.929 1_455 S
H270 C285 0.930 . S
H271 C292 0.929 . S
H272 C266 0.930 . S
H273 C265 0.931 . S
H274 C288 0.930 . S
H275 C255 0.930 . S
H276 C261 0.929 . S
H277 C262 0.930 . S
H278 C283 0.930 . S
H279 C258 0.930 . S
H280 C291 0.931 . S
N281 Tb252 2.617 . S
N281 C282 1.379 . S
N281 C285 1.334 . S
C282 N281 1.379 . S
C282 C284 1.416 . S
C282 C290 1.424 . S
C283 H278 0.930 . S
C283 C285 1.390 . S
C283 C286 1.339 . S
C284 C282 1.416 . S
C284 C286 1.416 . S
C284 C317 1.448 . S
C285 H270 0.930 . S
C285 N281 1.334 . S
C285 C283 1.390 . S
C286 C283 1.339 . S
C286 C284 1.416 . S
C286 H293 0.930 . S
N287 Tb252 2.572 . S
N287 C288 1.340 . S
N287 C290 1.361 . S
C288 H274 0.930 . S
C288 N287 1.340 . S
C288 C292 1.407 . S
C289 C290 1.413 . S
C289 C291 1.416 . S
C289 C318 1.427 . S
C290 C282 1.424 . S
C290 N287 1.361 . S
C290 C289 1.413 . S
C291 H280 0.931 . S
C291 C289 1.416 . S
C291 C292 1.332 . S
C292 H271 0.929 . S
C292 C288 1.407 . S
C292 C291 1.332 . S
H293 C286 0.930 . S
H294 C317 0.930 . S
H295 C318 0.929 . S
O296 Tb252 2.465 . S
O296 C316 1.264 . S
O297 Tb252 2.387 . S
O297 C308 1.264 . S
O298 Tb263 2.349 . S
O298 C308 1.243 . S
O299 Tb252 2.428 . S
O299 C316 1.256 . S
O300 Tb252 2.308 . S
O300 C315 1.266 . S
O301 Tb263 2.393 . S
O301 C315 1.248 . S
O302 Tb263 2.465 . S
O302 C327 1.264 . S
O303 Tb263 2.387 . S
O303 C319 1.264 . S
O304 Tb252 2.349 . S
O304 C319 1.243 . S
O305 Tb263 2.428 . S
O305 C327 1.256 . S
O306 Tb263 2.308 . S
O306 C326 1.266 . S
O307 Tb252 2.393 . S
O307 C326 1.248 . S
C308 O297 1.264 . S
C308 O298 1.243 . S
C309 C312 1.399 . S
C309 C314 1.383 . S
C309 C316 1.496 . S
C310 C311 1.399 . S
C310 C314 1.389 . S
C311 C310 1.399 . S
C311 C313 1.380 . S
C311 H328 0.929 . S
C312 C309 1.399 . S
C312 C313 1.392 . S
C312 H329 0.929 . S
C313 C311 1.380 . S
C313 C312 1.392 . S
C313 H330 0.929 . S
C314 C309 1.383 . S
C314 C310 1.389 . S
C314 H331 0.931 . S
C315 O300 1.266 . S
C315 O301 1.248 . S
C316 Tb252 2.802 . S
C316 O296 1.264 . S
C316 O299 1.256 . S
C316 C309 1.496 . S
C317 C284 1.448 . S
C317 H294 0.930 . S
C317 C318 1.328 . S
C318 C289 1.427 . S
C318 H295 0.929 . S
C318 C317 1.328 . S
C319 O303 1.264 . S
C319 O304 1.243 . S
C320 C323 1.399 . S
C320 C324 1.383 . S
C320 C327 1.496 . S
C321 C322 1.399 . S
C321 C324 1.389 . S
C322 C321 1.399 . S
C322 C325 1.380 . S
C322 H332 0.929 . S
C323 C320 1.399 . S
C323 C325 1.392 . S
C323 H333 0.929 . S
C324 C320 1.383 . S
C324 C321 1.389 . S
C324 H334 0.931 . S
C325 C322 1.380 . S
C325 C323 1.392 . S
C325 H335 0.929 . S
C326 O306 1.266 . S
C326 O307 1.248 . S
C327 Tb263 2.802 . S
C327 O302 1.264 . S
C327 O305 1.256 . S
C327 C320 1.496 . S
H328 C311 0.929 . S
H329 C312 0.929 . S
H330 C313 0.929 . S
H331 C314 0.931 . S
H332 C322 0.929 . S
H333 C323 0.929 . S
H334 C324 0.931 . S
H335 C325 0.929 . S
Tb336 N365 2.617 . S
Tb336 N371 2.572 . S
Tb336 O380 2.465 . S
Tb336 O381 2.387 . S
Tb336 O383 2.428 . S
Tb336 O384 2.308 . S
Tb336 O388 2.349 . S
Tb336 O391 2.393 . S
Tb336 C400 2.802 1_455 S
C337 N338 1.379 . S
C337 C340 1.416 . S
C337 C344 1.424 . S
N338 C337 1.379 . S
N338 C341 1.334 1_554 S
N338 Tb347 2.617 . S
C339 C341 1.390 . S
C339 C342 1.339 . S
C339 H359 0.930 . S
C340 C337 1.416 . S
C340 C342 1.416 1_554 S
C340 C346 1.448 1_565 S
C341 N338 1.334 1_556 S
C341 C339 1.390 . S
C341 H352 0.930 . S
C342 C339 1.339 . S
C342 C340 1.416 1_556 S
C342 H363 0.930 . S
C343 C344 1.413 1_545 S
C343 C345 1.427 . S
C343 C349 1.416 . S
C344 C337 1.424 . S
C344 C343 1.413 1_565 S
C344 N348 1.361 . S
C345 C343 1.427 . S
C345 C346 1.328 . S
C345 H360 0.929 . S
C346 C340 1.448 1_545 S
C346 C345 1.328 . S
C346 H361 0.930 1_554 S
Tb347 N338 2.617 . S
Tb347 N348 2.572 . S
Tb347 O382 2.349 . S
Tb347 O385 2.393 . S
Tb347 O386 2.465 . S
Tb347 O387 2.387 . S
Tb347 O389 2.428 . S
Tb347 O390 2.308 . S
Tb347 C411 2.802 . S
N348 C344 1.361 . S
N348 Tb347 2.572 . S
N348 C350 1.340 . S
C349 C343 1.416 . S
C349 C351 1.332 1_545 S
C349 H357 0.931 . S
C350 N348 1.340 . S
C350 C351 1.407 . S
C350 H356 0.930 . S
C351 C349 1.332 1_565 S
C351 C350 1.407 . S
C351 H353 0.929 1_565 S
H352 C341 0.930 . S
H353 C351 0.929 1_545 S
H354 C369 0.930 . S
H355 C376 0.929 . S
H356 C350 0.930 . S
H357 C349 0.931 . S
H358 C372 0.930 . S
H359 C339 0.930 . S
H360 C345 0.929 . S
H361 C346 0.930 1_556 S
H362 C367 0.930 . S
H363 C342 0.930 . S
H364 C375 0.931 . S
N365 Tb336 2.617 . S
N365 C366 1.379 . S
N365 C369 1.334 . S
C366 N365 1.379 . S
C366 C368 1.415 . S
C366 C374 1.424 1_455 S
C367 H362 0.930 . S
C367 C369 1.390 . S
C367 C370 1.339 . S
C368 C366 1.415 . S
C368 C370 1.419 . S
C368 C401 1.447 1_455 S
C369 H354 0.930 . S
C369 N365 1.334 . S
C369 C367 1.390 . S
C370 C367 1.339 . S
C370 C368 1.419 . S
C370 H377 0.930 . S
N371 Tb336 2.572 . S
N371 C372 1.340 1_455 S
N371 C374 1.361 1_455 S
C372 H358 0.930 . S
C372 N371 1.340 1_655 S
C372 C376 1.407 . S
C373 C374 1.413 . S
C373 C375 1.416 . S
C373 C402 1.427 . S
C374 C366 1.424 1_655 S
C374 N371 1.361 1_655 S
C374 C373 1.413 . S
C375 H364 0.931 . S
C375 C373 1.416 . S
C375 C376 1.332 . S
C376 H355 0.929 . S
C376 C372 1.407 . S
C376 C375 1.332 . S
H377 C370 0.930 . S
H378 C401 0.930 . S
H379 C402 0.929 . S
O380 Tb336 2.465 . S
O380 C400 1.264 1_455 S
O381 Tb336 2.387 . S
O381 C392 1.264 . S
O382 Tb347 2.349 . S
O382 C392 1.243 . S
O383 Tb336 2.428 . S
O383 C400 1.256 1_455 S
O384 Tb336 2.308 . S
O384 C399 1.266 . S
O385 Tb347 2.393 . S
O385 C399 1.248 . S
O386 Tb347 2.465 . S
O386 C411 1.264 . S
O387 Tb347 2.387 . S
O387 C403 1.264 . S
O388 Tb336 2.349 . S
O388 C403 1.243 . S
O389 Tb347 2.428 . S
O389 C411 1.256 . S
O390 Tb347 2.308 . S
O390 C410 1.266 . S
O391 Tb336 2.393 . S
O391 C410 1.248 . S
C392 O381 1.264 . S
C392 O382 1.243 . S
C393 C396 1.399 . S
C393 C398 1.383 . S
C393 C400 1.496 . S
C394 C395 1.399 . S
C394 C398 1.389 . S
C395 C394 1.399 . S
C395 C397 1.380 . S
C395 H412 0.929 . S
C396 C393 1.399 . S
C396 C397 1.392 . S
C396 H413 0.929 . S
C397 C395 1.380 . S
C397 C396 1.392 . S
C397 H414 0.929 . S
C398 C393 1.383 . S
C398 C394 1.389 . S
C398 H415 0.931 . S
C399 O384 1.266 . S
C399 O385 1.248 . S
C400 Tb336 2.802 1_655 S
C400 O380 1.264 1_655 S
C400 O383 1.256 1_655 S
C400 C393 1.496 . S
C401 C368 1.447 1_655 S
C401 H378 0.930 . S
C401 C402 1.328 . S
C402 C373 1.427 . S
C402 H379 0.929 . S
C402 C401 1.328 . S
C403 O387 1.264 . S
C403 O388 1.243 . S
C404 C407 1.399 . S
C404 C408 1.383 . S
C404 C411 1.496 . S
C405 C406 1.399 . S
C405 C408 1.389 . S
C406 C405 1.399 . S
C406 C409 1.380 . S
C406 H416 0.929 . S
C407 C404 1.399 . S
C407 C409 1.392 . S
C407 H417 0.929 . S
C408 C404 1.383 . S
C408 C405 1.389 . S
C408 H418 0.931 . S
C409 C406 1.380 . S
C409 C407 1.392 . S
C409 H419 0.929 . S
C410 O390 1.266 . S
C410 O391 1.248 . S
C411 Tb347 2.802 . S
C411 O386 1.264 . S
C411 O389 1.256 . S
C411 C404 1.496 . S
H412 C395 0.929 . S
H413 C396 0.929 . S
H414 C397 0.929 . S
H415 C398 0.931 . S
H416 C406 0.929 . S
H417 C407 0.929 . S
H418 C408 0.931 . S
H419 C409 0.929 . S
Tb420 N449 2.617 . S
Tb420 N455 2.572 . S
Tb420 O464 2.465 . S
Tb420 O465 2.387 . S
Tb420 O467 2.428 . S
Tb420 O468 2.308 . S
Tb420 O472 2.349 . S
Tb420 O475 2.393 . S
Tb420 C484 2.802 1_545 S
C421 N422 1.379 . S
C421 C424 1.416 . S
C421 C428 1.424 . S
N422 C421 1.379 . S
N422 C425 1.334 . S
N422 Tb431 2.617 . S
C423 C425 1.390 . S
C423 C426 1.339 . S
C423 H443 0.930 . S
C424 C421 1.416 . S
C424 C426 1.416 . S
C424 C430 1.448 . S
C425 N422 1.334 . S
C425 C423 1.390 . S
C425 H436 0.930 . S
C426 C423 1.339 . S
C426 C424 1.416 . S
C426 H447 0.930 . S
C427 C428 1.413 . S
C427 C429 1.427 . S
C427 C433 1.416 . S
C428 C421 1.424 . S
C428 C427 1.413 . S
C428 N432 1.361 . S
C429 C427 1.427 . S
C429 C430 1.328 . S
C429 H444 0.929 . S
C430 C424 1.448 . S
C430 C429 1.328 . S
C430 H445 0.930 . S
Tb431 N422 2.617 . S
Tb431 N432 2.572 . S
Tb431 O466 2.349 . S
Tb431 O469 2.393 . S
Tb431 O470 2.465 . S
Tb431 O471 2.387 . S
Tb431 O473 2.428 . S
Tb431 O474 2.308 . S
Tb431 C495 2.802 . S
N432 C428 1.361 . S
N432 Tb431 2.572 . S
N432 C434 1.340 . S
C433 C427 1.416 . S
C433 C435 1.332 . S
C433 H441 0.931 . S
C434 N432 1.340 . S
C434 C435 1.407 . S
C434 H440 0.930 . S
C435 C433 1.332 . S
C435 C434 1.407 . S
C435 H437 0.929 . S
H436 C425 0.930 . S
H437 C435 0.929 . S
H438 C453 0.930 . S
H439 C460 0.929 . S
H440 C434 0.930 . S
H441 C433 0.931 . S
H442 C456 0.929 . S
H443 C423 0.930 . S
H444 C429 0.929 . S
H445 C430 0.930 . S
H446 C451 0.930 . S
H447 C426 0.930 . S
H448 C459 0.931 . S
N449 Tb420 2.617 . S
N449 C450 1.379 . S
N449 C453 1.334 . S
C450 N449 1.379 . S
C450 C452 1.421 . S
C450 C458 1.424 1_545 S
C451 H446 0.930 . S
C451 C453 1.390 . S
C451 C454 1.339 . S
C452 C450 1.421 . S
C452 C454 1.421 . S
C452 C485 1.439 1_545 S
C453 H438 0.930 . S
C453 N449 1.334 . S
C453 C451 1.390 . S
C454 C451 1.339 . S
C454 C452 1.421 . S
C454 H461 0.930 . S
N455 Tb420 2.572 . S
N455 C456 1.340 1_545 S
N455 C458 1.361 1_545 S
C456 H442 0.929 . S
C456 N455 1.340 1_565 S
C456 C460 1.407 . S
C457 C458 1.413 . S
C457 C459 1.416 . S
C457 C486 1.427 . S
C458 C450 1.424 1_565 S
C458 N455 1.361 1_565 S
C458 C457 1.413 . S
C459 H448 0.931 . S
C459 C457 1.416 . S
C459 C460 1.332 . S
C460 H439 0.929 . S
C460 C456 1.407 . S
C460 C459 1.332 . S
H461 C454 0.930 . S
H462 C485 0.930 . S
H463 C486 0.929 . S
O464 Tb420 2.465 . S
O464 C484 1.264 1_545 S
O465 Tb420 2.387 . S
O465 C476 1.264 . S
O466 Tb431 2.349 . S
O466 C476 1.243 . S
O467 Tb420 2.428 . S
O467 C484 1.256 1_545 S
O468 Tb420 2.308 . S
O468 C483 1.266 . S
O469 Tb431 2.393 . S
O469 C483 1.248 . S
O470 Tb431 2.465 . S
O470 C495 1.264 . S
O471 Tb431 2.387 . S
O471 C487 1.264 . S
O472 Tb420 2.349 . S
O472 C487 1.243 . S
O473 Tb431 2.428 . S
O473 C495 1.256 . S
O474 Tb431 2.308 . S
O474 C494 1.266 . S
O475 Tb420 2.393 . S
O475 C494 1.248 . S
C476 O465 1.264 . S
C476 O466 1.243 . S
C477 C480 1.399 . S
C477 C482 1.383 . S
C477 C484 1.496 . S
C478 C479 1.399 . S
C478 C482 1.389 . S
C479 C478 1.399 . S
C479 C481 1.380 . S
C479 H496 0.929 . S
C480 C477 1.399 . S
C480 C481 1.392 . S
C480 H497 0.929 . S
C481 C479 1.380 . S
C481 C480 1.392 . S
C481 H498 0.929 . S
C482 C477 1.383 . S
C482 C478 1.389 . S
C482 H499 0.931 . S
C483 O468 1.266 . S
C483 O469 1.248 . S
C484 Tb420 2.802 1_565 S
C484 O464 1.264 1_565 S
C484 O467 1.256 1_565 S
C484 C477 1.496 . S
C485 C452 1.439 1_565 S
C485 H462 0.930 . S
C485 C486 1.328 . S
C486 C457 1.427 . S
C486 H463 0.929 . S
C486 C485 1.328 . S
C487 O471 1.264 . S
C487 O472 1.243 . S
C488 C491 1.399 . S
C488 C492 1.383 . S
C488 C495 1.496 . S
C489 C490 1.399 . S
C489 C492 1.389 . S
C490 C489 1.399 . S
C490 C493 1.380 . S
C490 H500 0.929 . S
C491 C488 1.399 . S
C491 C493 1.392 . S
C491 H501 0.929 . S
C492 C488 1.383 . S
C492 C489 1.389 . S
C492 H502 0.931 . S
C493 C490 1.380 . S
C493 C491 1.392 . S
C493 H503 0.929 . S
C494 O474 1.266 . S
C494 O475 1.248 . S
C495 Tb431 2.802 . S
C495 O470 1.264 . S
C495 O473 1.256 . S
C495 C488 1.496 . S
H496 C479 0.929 . S
H497 C480 0.929 . S
H498 C481 0.929 . S
H499 C482 0.931 . S
H500 C490 0.929 . S
H501 C491 0.929 . S
H502 C492 0.931 . S
H503 C493 0.929 . S
Tb504 N533 2.617 . S
Tb504 N539 2.572 . S
Tb504 O548 2.465 . S
Tb504 O549 2.387 . S
Tb504 O551 2.428 . S
Tb504 O552 2.308 . S
Tb504 O556 2.349 . S
Tb504 O559 2.393 . S
Tb504 C568 2.802 . S
C505 N506 1.379 . S
C505 C508 1.416 . S
C505 C512 1.424 . S
N506 C505 1.379 . S
N506 C509 1.334 . S
N506 Tb515 2.617 . S
C507 C509 1.390 . S
C507 C510 1.339 . S
C507 H527 0.930 . S
C508 C505 1.416 . S
C508 C510 1.416 . S
C508 C514 1.448 1_565 S
C509 N506 1.334 . S
C509 C507 1.390 . S
C509 H520 0.930 . S
C510 C507 1.339 . S
C510 C508 1.416 . S
C510 H531 0.930 . S
C511 C512 1.413 1_545 S
C511 C513 1.427 . S
C511 C517 1.416 . S
C512 C505 1.424 . S
C512 C511 1.413 1_565 S
C512 N516 1.361 . S
C513 C511 1.427 . S
C513 C514 1.328 . S
C513 H528 0.929 . S
C514 C508 1.448 1_545 S
C514 C513 1.328 . S
C514 H529 0.930 . S
Tb515 N506 2.617 . S
Tb515 N516 2.572 . S
Tb515 O550 2.349 . S
Tb515 O553 2.393 . S
Tb515 O554 2.465 . S
Tb515 O555 2.387 . S
Tb515 O557 2.428 . S
Tb515 O558 2.308 . S
Tb515 C579 2.802 . S
N516 C512 1.361 . S
N516 Tb515 2.572 . S
N516 C518 1.340 . S
C517 C511 1.416 . S
C517 C519 1.332 1_545 S
C517 H525 0.931 . S
C518 N516 1.340 . S
C518 C519 1.407 . S
C518 H524 0.930 . S
C519 C517 1.332 1_565 S
C519 C518 1.407 . S
C519 H521 0.929 1_565 S
H520 C509 0.930 . S
H521 C519 0.929 1_545 S
H522 C537 0.930 . S
H523 C544 0.929 . S
H524 C518 0.930 . S
H525 C517 0.931 . S
H526 C540 0.930 . S
H527 C507 0.930 . S
H528 C513 0.929 . S
H529 C514 0.930 . S
H530 C535 0.930 . S
H531 C510 0.930 . S
H532 C543 0.931 . S
N533 Tb504 2.617 . S
N533 C534 1.379 . S
N533 C537 1.334 . S
C534 N533 1.379 . S
C534 C536 1.416 . S
C534 C542 1.424 . S
C535 H530 0.930 . S
C535 C537 1.390 . S
C535 C538 1.339 . S
C536 C534 1.416 . S
C536 C538 1.416 . S
C536 C569 1.448 . S
C537 H522 0.930 . S
C537 N533 1.334 . S
C537 C535 1.390 . S
C538 C535 1.339 . S
C538 C536 1.416 . S
C538 H545 0.930 . S
N539 Tb504 2.572 . S
N539 C540 1.340 . S
N539 C542 1.361 . S
C540 H526 0.930 . S
C540 N539 1.340 . S
C540 C544 1.407 . S
C541 C542 1.413 . S
C541 C543 1.416 . S
C541 C570 1.427 . S
C542 C534 1.424 . S
C542 N539 1.361 . S
C542 C541 1.413 . S
C543 H532 0.931 . S
C543 C541 1.416 . S
C543 C544 1.332 . S
C544 H523 0.929 . S
C544 C540 1.407 . S
C544 C543 1.332 . S
H545 C538 0.930 . S
H546 C569 0.930 . S
H547 C570 0.929 . S
O548 Tb504 2.465 . S
O548 C568 1.264 . S
O549 Tb504 2.387 . S
O549 C560 1.264 . S
O550 Tb515 2.349 . S
O550 C560 1.243 . S
O551 Tb504 2.428 . S
O551 C568 1.256 . S
O552 Tb504 2.308 . S
O552 C567 1.266 . S
O553 Tb515 2.393 . S
O553 C567 1.248 . S
O554 Tb515 2.465 . S
O554 C579 1.264 . S
O555 Tb515 2.387 . S
O555 C571 1.264 . S
O556 Tb504 2.349 . S
O556 C571 1.243 . S
O557 Tb515 2.428 . S
O557 C579 1.256 . S
O558 Tb515 2.308 . S
O558 C578 1.266 . S
O559 Tb504 2.393 . S
O559 C578 1.248 . S
C560 O549 1.264 . S
C560 O550 1.243 . S
C561 C564 1.399 . S
C561 C566 1.383 . S
C561 C568 1.496 . S
C562 C563 1.399 . S
C562 C566 1.389 . S
C563 C562 1.399 . S
C563 C565 1.380 . S
C563 H580 0.929 . S
C564 C561 1.399 . S
C564 C565 1.392 . S
C564 H581 0.929 . S
C565 C563 1.380 . S
C565 C564 1.392 . S
C565 H582 0.929 . S
C566 C561 1.383 . S
C566 C562 1.389 . S
C566 H583 0.931 . S
C567 O552 1.266 . S
C567 O553 1.248 . S
C568 Tb504 2.802 . S
C568 O548 1.264 . S
C568 O551 1.256 . S
C568 C561 1.496 . S
C569 C536 1.448 . S
C569 H546 0.930 . S
C569 C570 1.328 . S
C570 C541 1.427 . S
C570 H547 0.929 . S
C570 C569 1.328 . S
C571 O555 1.264 . S
C571 O556 1.243 . S
C572 C575 1.399 . S
C572 C576 1.383 . S
C572 C579 1.496 . S
C573 C574 1.399 . S
C573 C576 1.389 . S
C574 C573 1.399 . S
C574 C577 1.380 . S
C574 H584 0.929 . S
C575 C572 1.399 . S
C575 C577 1.392 . S
C575 H585 0.929 . S
C576 C572 1.383 . S
C576 C573 1.389 . S
C576 H586 0.931 . S
C577 C574 1.380 . S
C577 C575 1.392 . S
C577 H587 0.929 . S
C578 O558 1.266 . S
C578 O559 1.248 . S
C579 Tb515 2.802 . S
C579 O554 1.264 . S
C579 O557 1.256 . S
C579 C572 1.496 . S
H580 C563 0.929 . S
H581 C564 0.929 . S
H582 C565 0.929 . S
H583 C566 0.931 . S
H584 C574 0.929 . S
H585 C575 0.929 . S
H586 C576 0.931 . S
H587 C577 0.929 . S
Tb588 N617 2.617 . S
Tb588 N623 2.572 . S
Tb588 O632 2.465 . S
Tb588 O633 2.387 . S
Tb588 O635 2.428 . S
Tb588 O636 2.308 . S
Tb588 O640 2.349 . S
Tb588 O643 2.393 . S
Tb588 C652 2.802 1_655 S
C589 N590 1.379 . S
C589 C592 1.416 . S
C589 C596 1.424 . S
N590 C589 1.379 . S
N590 C593 1.334 1_556 S
N590 Tb599 2.617 . S
C591 C593 1.390 . S
C591 C594 1.339 . S
C591 H611 0.930 . S
C592 C589 1.416 . S
C592 C594 1.416 1_556 S
C592 C598 1.448 . S
C593 N590 1.334 1_554 S
C593 C591 1.390 . S
C593 H604 0.930 . S
C594 C591 1.339 . S
C594 C592 1.416 1_554 S
C594 H615 0.930 . S
C595 C596 1.413 . S
C595 C597 1.427 . S
C595 C601 1.416 . S
C596 C589 1.424 . S
C596 C595 1.413 . S
C596 N600 1.361 . S
C597 C595 1.427 . S
C597 C598 1.328 . S
C597 H612 0.929 . S
C598 C592 1.448 . S
C598 C597 1.328 . S
C598 H613 0.930 1_556 S
Tb599 N590 2.617 . S
Tb599 N600 2.572 . S
Tb599 O634 2.349 . S
Tb599 O637 2.393 . S
Tb599 O638 2.465 . S
Tb599 O639 2.387 . S
Tb599 O641 2.428 . S
Tb599 O642 2.308 . S
Tb599 C663 2.802 . S
N600 C596 1.361 . S
N600 Tb599 2.572 . S
N600 C602 1.340 . S
C601 C595 1.416 . S
C601 C603 1.332 . S
C601 H609 0.931 . S
C602 N600 1.340 . S
C602 C603 1.407 . S
C602 H608 0.930 . S
C603 C601 1.332 . S
C603 C602 1.407 . S
C603 H605 0.929 . S
H604 C593 0.930 . S
H605 C603 0.929 . S
H606 C621 0.930 . S
H607 C628 0.929 . S
H608 C602 0.930 . S
H609 C601 0.931 . S
H610 C624 0.929 . S
H611 C591 0.930 . S
H612 C597 0.929 . S
H613 C598 0.930 1_554 S
H614 C619 0.930 . S
H615 C594 0.930 . S
H616 C627 0.931 . S
N617 Tb588 2.617 . S
N617 C618 1.379 . S
N617 C621 1.334 . S
C618 N617 1.379 . S
C618 C620 1.421 . S
C618 C626 1.424 1_655 S
C619 H614 0.930 . S
C619 C621 1.390 . S
C619 C622 1.339 . S
C620 C618 1.421 . S
C620 C622 1.421 . S
C620 C653 1.439 1_655 S
C621 H606 0.930 . S
C621 N617 1.334 . S
C621 C619 1.390 . S
C622 C619 1.339 . S
C622 C620 1.421 . S
C622 H629 0.930 . S
N623 Tb588 2.572 . S
N623 C624 1.340 1_655 S
N623 C626 1.361 1_655 S
C624 H610 0.929 . S
C624 N623 1.340 1_455 S
C624 C628 1.407 . S
C625 C626 1.413 . S
C625 C627 1.416 . S
C625 C654 1.427 . S
C626 C618 1.424 1_455 S
C626 N623 1.361 1_455 S
C626 C625 1.413 . S
C627 H616 0.931 . S
C627 C625 1.416 . S
C627 C628 1.332 . S
C628 H607 0.929 . S
C628 C624 1.407 . S
C628 C627 1.332 . S
H629 C622 0.930 . S
H630 C653 0.930 . S
H631 C654 0.929 . S
O632 Tb588 2.465 . S
O632 C652 1.264 1_655 S
O633 Tb588 2.387 . S
O633 C644 1.264 . S
O634 Tb599 2.349 . S
O634 C644 1.243 . S
O635 Tb588 2.428 . S
O635 C652 1.256 1_655 S
O636 Tb588 2.308 . S
O636 C651 1.266 . S
O637 Tb599 2.393 . S
O637 C651 1.248 . S
O638 Tb599 2.465 . S
O638 C663 1.264 . S
O639 Tb599 2.387 . S
O639 C655 1.264 . S
O640 Tb588 2.349 . S
O640 C655 1.243 . S
O641 Tb599 2.428 . S
O641 C663 1.256 . S
O642 Tb599 2.308 . S
O642 C662 1.266 . S
O643 Tb588 2.393 . S
O643 C662 1.248 . S
C644 O633 1.264 . S
C644 O634 1.243 . S
C645 C648 1.399 . S
C645 C650 1.383 . S
C645 C652 1.496 . S
C646 C647 1.399 . S
C646 C650 1.389 . S
C647 C646 1.399 . S
C647 C649 1.380 . S
C647 H664 0.929 . S
C648 C645 1.399 . S
C648 C649 1.392 . S
C648 H665 0.929 . S
C649 C647 1.380 . S
C649 C648 1.392 . S
C649 H666 0.929 . S
C650 C645 1.383 . S
C650 C646 1.389 . S
C650 H667 0.931 . S
C651 O636 1.266 . S
C651 O637 1.248 . S
C652 Tb588 2.802 1_455 S
C652 O632 1.264 1_455 S
C652 O635 1.256 1_455 S
C652 C645 1.496 . S
C653 C620 1.439 1_455 S
C653 H630 0.930 . S
C653 C654 1.328 . S
C654 C625 1.427 . S
C654 H631 0.929 . S
C654 C653 1.328 . S
C655 O639 1.264 . S
C655 O640 1.243 . S
C656 C659 1.399 . S
C656 C660 1.383 . S
C656 C663 1.496 . S
C657 C658 1.399 . S
C657 C660 1.389 . S
C658 C657 1.399 . S
C658 C661 1.380 . S
C658 H668 0.929 . S
C659 C656 1.399 . S
C659 C661 1.392 . S
C659 H669 0.929 . S
C660 C656 1.383 . S
C660 C657 1.389 . S
C660 H670 0.931 . S
C661 C658 1.380 . S
C661 C659 1.392 . S
C661 H671 0.929 . S
C662 O642 1.266 . S
C662 O643 1.248 . S
C663 Tb599 2.802 . S
C663 O638 1.264 . S
C663 O641 1.256 . S
C663 C656 1.496 . S
H664 C647 0.929 . S
H665 C648 0.929 . S
H666 C649 0.929 . S
H667 C650 0.931 . S
H668 C658 0.929 . S
H669 C659 0.929 . S
H670 C660 0.931 . S
H671 C661 0.929 . S
Tb672 N701 2.617 . S
Tb672 N707 2.572 . S
Tb672 O716 2.465 . S
Tb672 O717 2.387 . S
Tb672 O719 2.428 . S
Tb672 O720 2.308 . S
Tb672 O724 2.349 . S
Tb672 O727 2.393 . S
Tb672 C736 2.802 1_565 S
C673 N674 1.379 . S
C673 C676 1.416 . S
C673 C680 1.424 . S
N674 C673 1.379 . S
N674 C677 1.334 . S
N674 Tb683 2.617 . S
C675 C677 1.390 . S
C675 C678 1.339 . S
C675 H695 0.930 . S
C676 C673 1.416 . S
C676 C678 1.416 . S
C676 C682 1.448 1_455 S
C677 N674 1.334 . S
C677 C675 1.390 . S
C677 H688 0.930 . S
C678 C675 1.339 . S
C678 C676 1.416 . S
C678 H699 0.930 . S
C679 C680 1.413 1_655 S
C679 C681 1.427 . S
C679 C685 1.416 . S
C680 C673 1.424 . S
C680 C679 1.413 1_455 S
C680 N684 1.361 . S
C681 C679 1.427 . S
C681 C682 1.328 . S
C681 H696 0.929 . S
C682 C676 1.448 1_655 S
C682 C681 1.328 . S
C682 H697 0.930 . S
Tb683 N674 2.617 . S
Tb683 N684 2.572 . S
Tb683 O718 2.349 . S
Tb683 O721 2.393 . S
Tb683 O722 2.465 . S
Tb683 O723 2.387 . S
Tb683 O725 2.428 . S
Tb683 O726 2.308 . S
Tb683 C747 2.802 . S
N684 C680 1.361 . S
N684 Tb683 2.572 . S
N684 C686 1.340 . S
C685 C679 1.416 . S
C685 C687 1.332 1_655 S
C685 H693 0.931 . S
C686 N684 1.340 . S
C686 C687 1.407 . S
C686 H692 0.930 . S
C687 C685 1.332 1_455 S
C687 C686 1.407 . S
C687 H689 0.929 1_455 S
H688 C677 0.930 . S
H689 C687 0.929 1_655 S
H690 C705 0.930 . S
H691 C712 0.929 . S
H692 C686 0.930 . S
H693 C685 0.931 . S
H694 C708 0.930 . S
H695 C675 0.930 . S
H696 C681 0.929 . S
H697 C682 0.930 . S
H698 C703 0.930 . S
H699 C678 0.930 . S
H700 C711 0.931 . S
N701 Tb672 2.617 . S
N701 C702 1.379 . S
N701 C705 1.334 . S
C702 N701 1.379 . S
C702 C704 1.415 . S
C702 C710 1.424 1_565 S
C703 H698 0.930 . S
C703 C705 1.390 . S
C703 C706 1.339 . S
C704 C702 1.415 . S
C704 C706 1.419 . S
C704 C737 1.447 1_565 S
C705 H690 0.930 . S
C705 N701 1.334 . S
C705 C703 1.390 . S
C706 C703 1.339 . S
C706 C704 1.419 . S
C706 H713 0.930 . S
N707 Tb672 2.572 . S
N707 C708 1.340 1_565 S
N707 C710 1.361 1_565 S
C708 H694 0.930 . S
C708 N707 1.340 1_545 S
C708 C712 1.407 . S
C709 C710 1.413 . S
C709 C711 1.416 . S
C709 C738 1.427 . S
C710 C702 1.424 1_545 S
C710 N707 1.361 1_545 S
C710 C709 1.413 . S
C711 H700 0.931 . S
C711 C709 1.416 . S
C711 C712 1.332 . S
C712 H691 0.929 . S
C712 C708 1.407 . S
C712 C711 1.332 . S
H713 C706 0.930 . S
H714 C737 0.930 . S
H715 C738 0.929 . S
O716 Tb672 2.465 . S
O716 C736 1.264 1_565 S
O717 Tb672 2.387 . S
O717 C728 1.264 . S
O718 Tb683 2.349 . S
O718 C728 1.243 . S
O719 Tb672 2.428 . S
O719 C736 1.256 1_565 S
O720 Tb672 2.308 . S
O720 C735 1.266 . S
O721 Tb683 2.393 . S
O721 C735 1.248 . S
O722 Tb683 2.465 . S
O722 C747 1.264 . S
O723 Tb683 2.387 . S
O723 C739 1.264 . S
O724 Tb672 2.349 . S
O724 C739 1.243 . S
O725 Tb683 2.428 . S
O725 C747 1.256 . S
O726 Tb683 2.308 . S
O726 C746 1.266 . S
O727 Tb672 2.393 . S
O727 C746 1.248 . S
C728 O717 1.264 . S
C728 O718 1.243 . S
C729 C732 1.399 . S
C729 C734 1.383 . S
C729 C736 1.496 . S
C730 C731 1.399 . S
C730 C734 1.389 . S
C731 C730 1.399 . S
C731 C733 1.380 . S
C731 H748 0.929 . S
C732 C729 1.399 . S
C732 C733 1.392 . S
C732 H749 0.929 . S
C733 C731 1.380 . S
C733 C732 1.392 . S
C733 H750 0.929 . S
C734 C729 1.383 . S
C734 C730 1.389 . S
C734 H751 0.931 . S
C735 O720 1.266 . S
C735 O721 1.248 . S
C736 Tb672 2.802 1_545 S
C736 O716 1.264 1_545 S
C736 O719 1.256 1_545 S
C736 C729 1.496 . S
C737 C704 1.447 1_545 S
C737 H714 0.930 . S
C737 C738 1.328 . S
C738 C709 1.427 . S
C738 H715 0.929 . S
C738 C737 1.328 . S
C739 O723 1.264 . S
C739 O724 1.243 . S
C740 C743 1.399 . S
C740 C744 1.383 . S
C740 C747 1.496 . S
C741 C742 1.399 . S
C741 C744 1.389 . S
C742 C741 1.399 . S
C742 C745 1.380 . S
C742 H752 0.929 . S
C743 C740 1.399 . S
C743 C745 1.392 . S
C743 H753 0.929 . S
C744 C740 1.383 . S
C744 C741 1.389 . S
C744 H754 0.931 . S
C745 C742 1.380 . S
C745 C743 1.392 . S
C745 H755 0.929 . S
C746 O726 1.266 . S
C746 O727 1.248 . S
C747 Tb683 2.802 . S
C747 O722 1.264 . S
C747 O725 1.256 . S
C747 C740 1.496 . S
H748 C731 0.929 . S
H749 C732 0.929 . S
H750 C733 0.929 . S
H751 C734 0.931 . S
H752 C742 0.929 . S
H753 C743 0.929 . S
H754 C744 0.931 . S
H755 C745 0.929 . S
Tb756 N785 2.617 . S
Tb756 N791 2.572 . S
Tb756 O800 2.465 . S
Tb756 O801 2.387 . S
Tb756 O803 2.428 . S
Tb756 O804 2.308 . S
Tb756 O808 2.349 . S
Tb756 O811 2.393 . S
Tb756 C820 2.802 . S
C757 N758 1.379 . S
C757 C760 1.416 . S
C757 C764 1.424 . S
N758 C757 1.379 . S
N758 C761 1.334 1_556 S
N758 Tb767 2.617 . S
C759 C761 1.390 . S
C759 C762 1.339 . S
C759 H779 0.930 . S
C760 C757 1.416 . S
C760 C762 1.416 1_556 S
C760 C766 1.448 1_545 S
C761 N758 1.334 1_554 S
C761 C759 1.390 . S
C761 H772 0.930 . S
C762 C759 1.339 . S
C762 C760 1.416 1_554 S
C762 H783 0.930 . S
C763 C764 1.413 1_565 S
C763 C765 1.427 . S
C763 C769 1.416 . S
C764 C757 1.424 . S
C764 C763 1.413 1_545 S
C764 N768 1.361 . S
C765 C763 1.427 . S
C765 C766 1.328 . S
C765 H780 0.929 . S
C766 C760 1.448 1_565 S
C766 C765 1.328 . S
C766 H781 0.930 1_556 S
Tb767 N758 2.617 . S
Tb767 N768 2.572 . S
Tb767 O802 2.349 . S
Tb767 O805 2.393 . S
Tb767 O806 2.465 . S
Tb767 O807 2.387 . S
Tb767 O809 2.428 . S
Tb767 O810 2.308 . S
Tb767 C831 2.802 . S
N768 C764 1.361 . S
N768 Tb767 2.572 . S
N768 C770 1.340 . S
C769 C763 1.416 . S
C769 C771 1.332 1_565 S
C769 H777 0.931 . S
C770 N768 1.340 . S
C770 C771 1.407 . S
C770 H776 0.930 . S
C771 C769 1.332 1_545 S
C771 C770 1.407 . S
C771 H773 0.929 1_545 S
H772 C761 0.930 . S
H773 C771 0.929 1_565 S
H774 C789 0.930 . S
H775 C796 0.929 . S
H776 C770 0.930 . S
H777 C769 0.931 . S
H778 C792 0.930 . S
H779 C759 0.930 . S
H780 C765 0.929 . S
H781 C766 0.930 1_554 S
H782 C787 0.930 . S
H783 C762 0.930 . S
H784 C795 0.931 . S
N785 Tb756 2.617 . S
N785 C786 1.379 . S
N785 C789 1.334 . S
C786 N785 1.379 . S
C786 C788 1.416 . S
C786 C794 1.424 . S
C787 H782 0.930 . S
C787 C789 1.390 . S
C787 C790 1.339 . S
C788 C786 1.416 . S
C788 C790 1.416 . S
C788 C821 1.448 . S
C789 H774 0.930 . S
C789 N785 1.334 . S
C789 C787 1.390 . S
C790 C787 1.339 . S
C790 C788 1.416 . S
C790 H797 0.930 . S
N791 Tb756 2.572 . S
N791 C792 1.340 . S
N791 C794 1.361 . S
C792 H778 0.930 . S
C792 N791 1.340 . S
C792 C796 1.407 . S
C793 C794 1.413 . S
C793 C795 1.416 . S
C793 C822 1.427 . S
C794 C786 1.424 . S
C794 N791 1.361 . S
C794 C793 1.413 . S
C795 H784 0.931 . S
C795 C793 1.416 . S
C795 C796 1.332 . S
C796 H775 0.929 . S
C796 C792 1.407 . S
C796 C795 1.332 . S
H797 C790 0.930 . S
H798 C821 0.930 . S
H799 C822 0.929 . S
O800 Tb756 2.465 . S
O800 C820 1.264 . S
O801 Tb756 2.387 . S
O801 C812 1.264 . S
O802 Tb767 2.349 . S
O802 C812 1.243 . S
O803 Tb756 2.428 . S
O803 C820 1.256 . S
O804 Tb756 2.308 . S
O804 C819 1.266 . S
O805 Tb767 2.393 . S
O805 C819 1.248 . S
O806 Tb767 2.465 . S
O806 C831 1.264 . S
O807 Tb767 2.387 . S
O807 C823 1.264 . S
O808 Tb756 2.349 . S
O808 C823 1.243 . S
O809 Tb767 2.428 . S
O809 C831 1.256 . S
O810 Tb767 2.308 . S
O810 C830 1.266 . S
O811 Tb756 2.393 . S
O811 C830 1.248 . S
C812 O801 1.264 . S
C812 O802 1.243 . S
C813 C816 1.399 . S
C813 C818 1.383 . S
C813 C820 1.496 . S
C814 C815 1.399 . S
C814 C818 1.389 . S
C815 C814 1.399 . S
C815 C817 1.380 . S
C815 H832 0.929 . S
C816 C813 1.399 . S
C816 C817 1.392 . S
C816 H833 0.929 . S
C817 C815 1.380 . S
C817 C816 1.392 . S
C817 H834 0.929 . S
C818 C813 1.383 . S
C818 C814 1.389 . S
C818 H835 0.931 . S
C819 O804 1.266 . S
C819 O805 1.248 . S
C820 Tb756 2.802 . S
C820 O800 1.264 . S
C820 O803 1.256 . S
C820 C813 1.496 . S
C821 C788 1.448 . S
C821 H798 0.930 . S
C821 C822 1.328 . S
C822 C793 1.427 . S
C822 H799 0.929 . S
C822 C821 1.328 . S
C823 O807 1.264 . S
C823 O808 1.243 . S
C824 C827 1.399 . S
C824 C828 1.383 . S
C824 C831 1.496 . S
C825 C826 1.399 . S
C825 C828 1.389 . S
C826 C825 1.399 . S
C826 C829 1.380 . S
C826 H836 0.929 . S
C827 C824 1.399 . S
C827 C829 1.392 . S
C827 H837 0.929 . S
C828 C824 1.383 . S
C828 C825 1.389 . S
C828 H838 0.931 . S
C829 C826 1.380 . S
C829 C827 1.392 . S
C829 H839 0.929 . S
C830 O810 1.266 . S
C830 O811 1.248 . S
C831 Tb767 2.802 . S
C831 O806 1.264 . S
C831 O809 1.256 . S
C831 C824 1.496 . S
H832 C815 0.929 . S
H833 C816 0.929 . S
H834 C817 0.929 . S
H835 C818 0.931 . S
H836 C826 0.929 . S
H837 C827 0.929 . S
H838 C828 0.931 . S
H839 C829 0.929 . S
Tb840 N869 2.617 . S
Tb840 N875 2.572 . S
Tb840 O884 2.465 . S
Tb840 O885 2.387 . S
Tb840 O887 2.428 . S
Tb840 O888 2.308 . S
Tb840 O892 2.349 . S
Tb840 O895 2.393 . S
Tb840 C904 2.802 1_455 S
C841 N842 1.379 . S
C841 C844 1.416 . S
C841 C848 1.424 . S
N842 C841 1.379 . S
N842 C845 1.334 . S
N842 Tb851 2.617 . S
C843 C845 1.390 . S
C843 C846 1.339 . S
C843 H863 0.930 . S
C844 C841 1.416 . S
C844 C846 1.416 . S
C844 C850 1.448 . S
C845 N842 1.334 . S
C845 C843 1.390 . S
C845 H856 0.930 . S
C846 C843 1.339 . S
C846 C844 1.416 . S
C846 H867 0.930 . S
C847 C848 1.413 . S
C847 C849 1.427 . S
C847 C853 1.416 . S
C848 C841 1.424 . S
C848 C847 1.413 . S
C848 N852 1.361 . S
C849 C847 1.427 . S
C849 C850 1.328 . S
C849 H864 0.929 . S
C850 C844 1.448 . S
C850 C849 1.328 . S
C850 H865 0.930 . S
Tb851 N842 2.617 . S
Tb851 N852 2.572 . S
Tb851 O886 2.349 . S
Tb851 O889 2.393 . S
Tb851 O890 2.465 . S
Tb851 O891 2.387 . S
Tb851 O893 2.428 . S
Tb851 O894 2.308 . S
Tb851 C915 2.802 . S
N852 C848 1.361 . S
N852 Tb851 2.572 . S
N852 C854 1.340 . S
C853 C847 1.416 . S
C853 C855 1.332 . S
C853 H861 0.931 . S
C854 N852 1.340 . S
C854 C855 1.407 . S
C854 H860 0.930 . S
C855 C853 1.332 . S
C855 C854 1.407 . S
C855 H857 0.929 . S
H856 C845 0.930 . S
H857 C855 0.929 . S
H858 C873 0.930 . S
H859 C880 0.929 . S
H860 C854 0.930 . S
H861 C853 0.931 . S
H862 C876 0.929 . S
H863 C843 0.930 . S
H864 C849 0.929 . S
H865 C850 0.930 . S
H866 C871 0.930 . S
H867 C846 0.930 . S
H868 C879 0.931 . S
N869 Tb840 2.617 . S
N869 C870 1.379 . S
N869 C873 1.334 . S
C870 N869 1.379 . S
C870 C872 1.421 . S
C870 C878 1.424 1_455 S
C871 H866 0.930 . S
C871 C873 1.390 . S
C871 C874 1.339 . S
C872 C870 1.421 . S
C872 C874 1.421 . S
C872 C905 1.439 1_455 S
C873 H858 0.930 . S
C873 N869 1.334 . S
C873 C871 1.390 . S
C874 C871 1.339 . S
C874 C872 1.421 . S
C874 H881 0.930 . S
N875 Tb840 2.572 . S
N875 C876 1.340 1_455 S
N875 C878 1.361 1_455 S
C876 H862 0.929 . S
C876 N875 1.340 1_655 S
C876 C880 1.407 . S
C877 C878 1.413 . S
C877 C879 1.416 . S
C877 C906 1.427 . S
C878 C870 1.424 1_655 S
C878 N875 1.361 1_655 S
C878 C877 1.413 . S
C879 H868 0.931 . S
C879 C877 1.416 . S
C879 C880 1.332 . S
C880 H859 0.929 . S
C880 C876 1.407 . S
C880 C879 1.332 . S
H881 C874 0.930 . S
H882 C905 0.930 . S
H883 C906 0.929 . S
O884 Tb840 2.465 . S
O884 C904 1.264 1_455 S
O885 Tb840 2.387 . S
O885 C896 1.264 . S
O886 Tb851 2.349 . S
O886 C896 1.243 . S
O887 Tb840 2.428 . S
O887 C904 1.256 1_455 S
O888 Tb840 2.308 . S
O888 C903 1.266 . S
O889 Tb851 2.393 . S
O889 C903 1.248 . S
O890 Tb851 2.465 . S
O890 C915 1.264 . S
O891 Tb851 2.387 . S
O891 C907 1.264 . S
O892 Tb840 2.349 . S
O892 C907 1.243 . S
O893 Tb851 2.428 . S
O893 C915 1.256 . S
O894 Tb851 2.308 . S
O894 C914 1.266 . S
O895 Tb840 2.393 . S
O895 C914 1.248 . S
C896 O885 1.264 . S
C896 O886 1.243 . S
C897 C900 1.399 . S
C897 C902 1.383 . S
C897 C904 1.496 . S
C898 C899 1.399 . S
C898 C902 1.389 . S
C899 C898 1.399 . S
C899 C901 1.380 . S
C899 H916 0.929 . S
C900 C897 1.399 . S
C900 C901 1.392 . S
C900 H917 0.929 . S
C901 C899 1.380 . S
C901 C900 1.392 . S
C901 H918 0.929 . S
C902 C897 1.383 . S
C902 C898 1.389 . S
C902 H919 0.931 . S
C903 O888 1.266 . S
C903 O889 1.248 . S
C904 Tb840 2.802 1_655 S
C904 O884 1.264 1_655 S
C904 O887 1.256 1_655 S
C904 C897 1.496 . S
C905 C872 1.439 1_655 S
C905 H882 0.930 . S
C905 C906 1.328 . S
C906 C877 1.427 . S
C906 H883 0.929 . S
C906 C905 1.328 . S
C907 O891 1.264 . S
C907 O892 1.243 . S
C908 C911 1.399 . S
C908 C912 1.383 . S
C908 C915 1.496 . S
C909 C910 1.399 . S
C909 C912 1.389 . S
C910 C909 1.399 . S
C910 C913 1.380 . S
C910 H920 0.929 . S
C911 C908 1.399 . S
C911 C913 1.392 . S
C911 H921 0.929 . S
C912 C908 1.383 . S
C912 C909 1.389 . S
C912 H922 0.931 . S
C913 C910 1.380 . S
C913 C911 1.392 . S
C913 H923 0.929 . S
C914 O894 1.266 . S
C914 O895 1.248 . S
C915 Tb851 2.802 . S
C915 O890 1.264 . S
C915 O893 1.256 . S
C915 C908 1.496 . S
H916 C899 0.929 . S
H917 C900 0.929 . S
H918 C901 0.929 . S
H919 C902 0.931 . S
H920 C910 0.929 . S
H921 C911 0.929 . S
H922 C912 0.931 . S
H923 C913 0.929 . S
Tb924 N953 2.617 . S
Tb924 N959 2.572 . S
Tb924 O968 2.465 . S
Tb924 O969 2.387 . S
Tb924 O971 2.428 . S
Tb924 O972 2.308 . S
Tb924 O976 2.349 . S
Tb924 O979 2.393 . S
Tb924 C988 2.802 1_545 S
C925 N926 1.379 . S
C925 C928 1.416 . S
C925 C932 1.424 . S
N926 C925 1.379 . S
N926 C929 1.334 1_556 S
N926 Tb935 2.617 . S
C927 C929 1.390 . S
C927 C930 1.339 . S
C927 H947 0.930 . S
C928 C925 1.416 . S
C928 C930 1.416 1_556 S
C928 C934 1.448 1_655 S
C929 N926 1.334 1_554 S
C929 C927 1.390 . S
C929 H940 0.930 . S
C930 C927 1.339 . S
C930 C928 1.416 1_554 S
C930 H951 0.930 . S
C931 C932 1.413 1_455 S
C931 C933 1.427 . S
C931 C937 1.416 . S
C932 C925 1.424 . S
C932 C931 1.413 1_655 S
C932 N936 1.361 . S
C933 C931 1.427 . S
C933 C934 1.328 . S
C933 H948 0.929 . S
C934 C928 1.448 1_455 S
C934 C933 1.328 . S
C934 H949 0.930 1_556 S
Tb935 N926 2.617 . S
Tb935 N936 2.572 . S
Tb935 O970 2.349 . S
Tb935 O973 2.393 . S
Tb935 O974 2.465 . S
Tb935 O975 2.387 . S
Tb935 O977 2.428 . S
Tb935 O978 2.308 . S
Tb935 C999 2.802 . S
N936 C932 1.361 . S
N936 Tb935 2.572 . S
N936 C938 1.340 . S
C937 C931 1.416 . S
C937 C939 1.332 1_455 S
C937 H945 0.931 . S
C938 N936 1.340 . S
C938 C939 1.407 . S
C938 H944 0.930 . S
C939 C937 1.332 1_655 S
C939 C938 1.407 . S
C939 H941 0.929 1_655 S
H940 C929 0.930 . S
H941 C939 0.929 1_455 S
H942 C957 0.930 . S
H943 C964 0.929 . S
H944 C938 0.930 . S
H945 C937 0.931 . S
H946 C960 0.930 . S
H947 C927 0.930 . S
H948 C933 0.929 . S
H949 C934 0.930 1_554 S
H950 C955 0.930 . S
H951 C930 0.930 . S
H952 C963 0.931 . S
N953 Tb924 2.617 . S
N953 C954 1.379 . S
N953 C957 1.334 . S
C954 N953 1.379 . S
C954 C956 1.415 . S
C954 C962 1.424 1_545 S
C955 H950 0.930 . S
C955 C957 1.390 . S
C955 C958 1.339 . S
C956 C954 1.415 . S
C956 C958 1.419 . S
C956 C989 1.447 1_545 S
C957 H942 0.930 . S
C957 N953 1.334 . S
C957 C955 1.390 . S
C958 C955 1.339 . S
C958 C956 1.419 . S
C958 H965 0.930 . S
N959 Tb924 2.572 . S
N959 C960 1.340 1_545 S
N959 C962 1.361 1_545 S
C960 H946 0.930 . S
C960 N959 1.340 1_565 S
C960 C964 1.407 . S
C961 C962 1.413 . S
C961 C963 1.416 . S
C961 C990 1.427 . S
C962 C954 1.424 1_565 S
C962 N959 1.361 1_565 S
C962 C961 1.413 . S
C963 H952 0.931 . S
C963 C961 1.416 . S
C963 C964 1.332 . S
C964 H943 0.929 . S
C964 C960 1.407 . S
C964 C963 1.332 . S
H965 C958 0.930 . S
H966 C989 0.930 . S
H967 C990 0.929 . S
O968 Tb924 2.465 . S
O968 C988 1.264 1_545 S
O969 Tb924 2.387 . S
O969 C980 1.264 . S
O970 Tb935 2.349 . S
O970 C980 1.243 . S
O971 Tb924 2.428 . S
O971 C988 1.256 1_545 S
O972 Tb924 2.308 . S
O972 C987 1.266 . S
O973 Tb935 2.393 . S
O973 C987 1.248 . S
O974 Tb935 2.465 . S
O974 C999 1.264 . S
O975 Tb935 2.387 . S
O975 C991 1.264 . S
O976 Tb924 2.349 . S
O976 C991 1.243 . S
O977 Tb935 2.428 . S
O977 C999 1.256 . S
O978 Tb935 2.308 . S
O978 C998 1.266 . S
O979 Tb924 2.393 . S
O979 C998 1.248 . S
C980 O969 1.264 . S
C980 O970 1.243 . S
C981 C984 1.399 . S
C981 C986 1.383 . S
C981 C988 1.496 . S
C982 C983 1.399 . S
C982 C986 1.389 . S
C983 C982 1.399 . S
C983 C985 1.380 . S
C983 H1000 0.929 . S
C984 C981 1.399 . S
C984 C985 1.392 . S
C984 H1001 0.929 . S
C985 C983 1.380 . S
C985 C984 1.392 . S
C985 H1002 0.929 . S
C986 C981 1.383 . S
C986 C982 1.389 . S
C986 H1003 0.931 . S
C987 O972 1.266 . S
C987 O973 1.248 . S
C988 Tb924 2.802 1_565 S
C988 O968 1.264 1_565 S
C988 O971 1.256 1_565 S
C988 C981 1.496 . S
C989 C956 1.447 1_565 S
C989 H966 0.930 . S
C989 C990 1.328 . S
C990 C961 1.427 . S
C990 H967 0.929 . S
C990 C989 1.328 . S
C991 O975 1.264 . S
C991 O976 1.243 . S
C992 C995 1.399 . S
C992 C996 1.383 . S
C992 C999 1.496 . S
C993 C994 1.399 . S
C993 C996 1.389 . S
C994 C993 1.399 . S
C994 C997 1.380 . S
C994 H1004 0.929 . S
C995 C992 1.399 . S
C995 C997 1.392 . S
C995 H1005 0.929 . S
C996 C992 1.383 . S
C996 C993 1.389 . S
C996 H1006 0.931 . S
C997 C994 1.380 . S
C997 C995 1.392 . S
C997 H1007 0.929 . S
C998 O978 1.266 . S
C998 O979 1.248 . S
C999 Tb935 2.802 . S
C999 O974 1.264 . S
C999 O977 1.256 . S
C999 C992 1.496 . S
H1000 C983 0.929 . S
H1001 C984 0.929 . S
H1002 C985 0.929 . S
H1003 C986 0.931 . S
H1004 C994 0.929 . S
H1005 C995 0.929 . S
H1006 C996 0.931 . S
H1007 C997 0.929 . S
C1008 C1009 1.363 . S
C1008 C1014 1.379 1_565 S
C1008 N1016 1.356 . S
C1009 C1008 1.363 . S
C1009 C1015 1.363 . S
C1010 C1011 1.363 . S
C1010 C1015 1.379 1_545 S
C1010 N1017 1.356 . S
C1011 C1010 1.363 . S
C1011 C1014 1.363 . S
N1012 C1014 1.356 . S
N1012 H1024 0.984 . S
N1012 H1025 0.985 . S
N1013 C1015 1.356 . S
N1013 H1018 0.984 . S
N1013 H1019 0.985 . S
C1014 C1008 1.379 1_545 S
C1014 C1011 1.363 . S
C1014 N1012 1.356 . S
C1015 C1009 1.363 . S
C1015 C1010 1.379 1_565 S
C1015 N1013 1.356 . S
N1016 C1008 1.356 . S
N1016 H1022 0.984 . S
N1016 H1023 0.984 . S
N1017 C1010 1.356 . S
N1017 H1020 0.984 . S
N1017 H1021 0.985 . S
H1018 N1013 0.984 . S
H1019 N1013 0.985 . S
H1020 N1017 0.984 . S
H1021 N1017 0.985 . S
H1022 N1016 0.984 . S
H1023 N1016 0.984 . S
H1024 N1012 0.984 . S
H1025 N1012 0.985 . S
C1026 C1027 1.363 . S
C1026 C1032 1.379 . S
C1026 N1034 1.356 . S
C1027 C1026 1.363 . S
C1027 C1033 1.363 . S
C1028 C1029 1.363 . S
C1028 C1033 1.379 . S
C1028 N1035 1.356 . S
C1029 C1028 1.363 . S
C1029 C1032 1.363 . S
N1030 C1032 1.356 . S
N1030 H1042 0.984 . S
N1030 H1043 0.985 . S
N1031 C1033 1.356 . S
N1031 H1036 0.984 . S
N1031 H1037 0.985 . S
C1032 C1026 1.379 . S
C1032 C1029 1.363 . S
C1032 N1030 1.356 . S
C1033 C1027 1.363 . S
C1033 C1028 1.379 . S
C1033 N1031 1.356 . S
N1034 C1026 1.356 . S
N1034 H1040 0.984 . S
N1034 H1041 0.984 . S
N1035 C1028 1.356 . S
N1035 H1038 0.984 . S
N1035 H1039 0.985 . S
H1036 N1031 0.984 . S
H1037 N1031 0.985 . S
H1038 N1035 0.984 . S
H1039 N1035 0.985 . S
H1040 N1034 0.984 . S
H1041 N1034 0.984 . S
H1042 N1030 0.984 . S
H1043 N1030 0.985 . S
C1044 C1045 1.363 . S
C1044 C1050 1.379 1_655 S
C1044 N1052 1.356 . S
C1045 C1044 1.363 . S
C1045 C1051 1.363 . S
C1046 C1047 1.363 . S
C1046 C1051 1.379 1_455 S
C1046 N1053 1.356 . S
C1047 C1046 1.363 . S
C1047 C1050 1.363 . S
N1048 C1050 1.356 . S
N1048 H1060 0.984 . S
N1048 H1061 0.985 . S
N1049 C1051 1.356 . S
N1049 H1054 0.984 . S
N1049 H1055 0.985 . S
C1050 C1044 1.379 1_455 S
C1050 C1047 1.363 . S
C1050 N1048 1.356 . S
C1051 C1045 1.363 . S
C1051 C1046 1.379 1_655 S
C1051 N1049 1.356 . S
N1052 C1044 1.356 . S
N1052 H1058 0.984 . S
N1052 H1059 0.984 . S
N1053 C1046 1.356 . S
N1053 H1056 0.984 . S
N1053 H1057 0.985 . S
H1054 N1049 0.984 . S
H1055 N1049 0.985 . S
H1056 N1053 0.984 . S
H1057 N1053 0.985 . S
H1058 N1052 0.984 . S
H1059 N1052 0.984 . S
H1060 N1048 0.984 . S
H1061 N1048 0.985 . S
C1062 C1063 1.363 . S
C1062 C1068 1.379 1_565 S
C1062 N1070 1.356 . S
C1063 C1062 1.363 . S
C1063 C1069 1.363 . S
C1064 C1065 1.363 . S
C1064 C1069 1.379 1_545 S
C1064 N1071 1.356 . S
C1065 C1064 1.363 . S
C1065 C1068 1.363 . S
N1066 C1068 1.356 . S
N1066 H1078 0.984 . S
N1066 H1079 0.985 . S
N1067 C1069 1.356 . S
N1067 H1072 0.984 . S
N1067 H1073 0.985 . S
C1068 C1062 1.379 1_545 S
C1068 C1065 1.363 . S
C1068 N1066 1.356 . S
C1069 C1063 1.363 . S
C1069 C1064 1.379 1_565 S
C1069 N1067 1.356 . S
N1070 C1062 1.356 . S
N1070 H1076 0.984 . S
N1070 H1077 0.984 . S
N1071 C1064 1.356 . S
N1071 H1074 0.984 . S
N1071 H1075 0.985 . S
H1072 N1067 0.984 . S
H1073 N1067 0.985 . S
H1074 N1071 0.984 . S
H1075 N1071 0.985 . S
H1076 N1070 0.984 . S
H1077 N1070 0.984 . S
H1078 N1066 0.984 . S
H1079 N1066 0.985 . S
C1080 C1081 1.363 . S
C1080 C1086 1.379 . S
C1080 N1088 1.356 . S
C1081 C1080 1.363 . S
C1081 C1087 1.363 . S
C1082 C1083 1.363 . S
C1082 C1087 1.379 . S
C1082 N1089 1.356 . S
C1083 C1082 1.363 . S
C1083 C1086 1.363 . S
N1084 C1086 1.356 . S
N1084 H1096 0.984 . S
N1084 H1097 0.985 . S
N1085 C1087 1.356 . S
N1085 H1090 0.984 . S
N1085 H1091 0.985 . S
C1086 C1080 1.379 . S
C1086 C1083 1.363 . S
C1086 N1084 1.356 . S
C1087 C1081 1.363 . S
C1087 C1082 1.379 . S
C1087 N1085 1.356 . S
N1088 C1080 1.356 . S
N1088 H1094 0.984 . S
N1088 H1095 0.984 . S
N1089 C1082 1.356 . S
N1089 H1092 0.984 . S
N1089 H1093 0.985 . S
H1090 N1085 0.984 . S
H1091 N1085 0.985 . S
H1092 N1089 0.984 . S
H1093 N1089 0.985 . S
H1094 N1088 0.984 . S
H1095 N1088 0.984 . S
H1096 N1084 0.984 . S
H1097 N1084 0.985 . S
C1098 C1099 1.363 . S
C1098 C1104 1.379 1_655 S
C1098 N1106 1.356 . S
C1099 C1098 1.363 . S
C1099 C1105 1.363 . S
C1100 C1101 1.363 . S
C1100 C1105 1.379 1_455 S
C1100 N1107 1.356 . S
C1101 C1100 1.363 . S
C1101 C1104 1.363 . S
N1102 C1104 1.356 . S
N1102 H1114 0.984 . S
N1102 H1115 0.985 . S
N1103 C1105 1.356 . S
N1103 H1108 0.984 . S
N1103 H1109 0.985 . S
C1104 C1098 1.379 1_455 S
C1104 C1101 1.363 . S
C1104 N1102 1.356 . S
C1105 C1099 1.363 . S
C1105 C1100 1.379 1_655 S
C1105 N1103 1.356 . S
N1106 C1098 1.356 . S
N1106 H1112 0.984 . S
N1106 H1113 0.984 . S
N1107 C1100 1.356 . S
N1107 H1110 0.984 . S
N1107 H1111 0.985 . S
H1108 N1103 0.984 . S
H1109 N1103 0.985 . S
H1110 N1107 0.984 . S
H1111 N1107 0.985 . S
H1112 N1106 0.984 . S
H1113 N1106 0.984 . S
H1114 N1102 0.984 . S
H1115 N1102 0.985 . S
C1116 C1117 1.363 . S
C1116 C1122 1.379 1_455 S
C1116 N1124 1.356 . S
C1117 C1116 1.363 . S
C1117 C1123 1.363 . S
C1118 C1119 1.363 . S
C1118 C1123 1.379 1_655 S
C1118 N1125 1.356 . S
C1119 C1118 1.363 . S
C1119 C1122 1.363 . S
N1120 C1122 1.356 . S
N1120 H1132 0.984 . S
N1120 H1133 0.985 . S
N1121 C1123 1.356 . S
N1121 H1126 0.984 . S
N1121 H1127 0.985 . S
C1122 C1116 1.379 1_655 S
C1122 C1119 1.363 . S
C1122 N1120 1.356 . S
C1123 C1117 1.363 . S
C1123 C1118 1.379 1_455 S
C1123 N1121 1.356 . S
N1124 C1116 1.356 . S
N1124 H1130 0.984 . S
N1124 H1131 0.984 . S
N1125 C1118 1.356 . S
N1125 H1128 0.984 . S
N1125 H1129 0.985 . S
H1126 N1121 0.984 . S
H1127 N1121 0.985 . S
H1128 N1125 0.984 . S
H1129 N1125 0.985 . S
H1130 N1124 0.984 . S
H1131 N1124 0.984 . S
H1132 N1120 0.984 . S
H1133 N1120 0.985 . S
C1134 C1135 1.363 . S
C1134 C1140 1.379 1_565 S
C1134 N1142 1.356 . S
C1135 C1134 1.363 . S
C1135 C1141 1.363 . S
C1136 C1137 1.363 . S
C1136 C1141 1.379 1_545 S
C1136 N1143 1.356 . S
C1137 C1136 1.363 . S
C1137 C1140 1.363 . S
N1138 C1140 1.356 . S
N1138 H1150 0.984 . S
N1138 H1151 0.985 . S
N1139 C1141 1.356 . S
N1139 H1144 0.984 . S
N1139 H1145 0.985 . S
C1140 C1134 1.379 1_545 S
C1140 C1137 1.363 . S
C1140 N1138 1.356 . S
C1141 C1135 1.363 . S
C1141 C1136 1.379 1_565 S
C1141 N1139 1.356 . S
N1142 C1134 1.356 . S
N1142 H1148 0.984 . S
N1142 H1149 0.984 . S
N1143 C1136 1.356 . S
N1143 H1146 0.984 . S
N1143 H1147 0.985 . S
H1144 N1139 0.984 . S
H1145 N1139 0.985 . S
H1146 N1143 0.984 . S
H1147 N1143 0.985 . S
H1148 N1142 0.984 . S
H1149 N1142 0.984 . S
H1150 N1138 0.984 . S
H1151 N1138 0.985 . S
C1152 C1153 1.363 . S
C1152 C1158 1.379 . S
C1152 N1160 1.356 . S
C1153 C1152 1.363 . S
C1153 C1159 1.363 . S
C1154 C1155 1.363 . S
C1154 C1159 1.379 . S
C1154 N1161 1.356 . S
C1155 C1154 1.363 . S
C1155 C1158 1.363 . S
N1156 C1158 1.356 . S
N1156 H1168 0.984 . S
N1156 H1169 0.985 . S
N1157 C1159 1.356 . S
N1157 H1162 0.984 . S
N1157 H1163 0.985 . S
C1158 C1152 1.379 . S
C1158 C1155 1.363 . S
C1158 N1156 1.356 . S
C1159 C1153 1.363 . S
C1159 C1154 1.379 . S
C1159 N1157 1.356 . S
N1160 C1152 1.356 . S
N1160 H1166 0.984 . S
N1160 H1167 0.984 . S
N1161 C1154 1.356 . S
N1161 H1164 0.984 . S
N1161 H1165 0.985 . S
H1162 N1157 0.984 . S
H1163 N1157 0.985 . S
H1164 N1161 0.984 . S
H1165 N1161 0.985 . S
H1166 N1160 0.984 . S
H1167 N1160 0.984 . S
H1168 N1156 0.984 . S
H1169 N1156 0.985 . S
C1170 C1171 1.363 . S
C1170 C1176 1.379 1_455 S
C1170 N1178 1.356 . S
C1171 C1170 1.363 . S
C1171 C1177 1.363 . S
C1172 C1173 1.363 . S
C1172 C1177 1.379 1_655 S
C1172 N1179 1.356 . S
C1173 C1172 1.363 . S
C1173 C1176 1.363 . S
N1174 C1176 1.356 . S
N1174 H1186 0.984 . S
N1174 H1187 0.985 . S
N1175 C1177 1.356 . S
N1175 H1180 0.984 . S
N1175 H1181 0.985 . S
C1176 C1170 1.379 1_655 S
C1176 C1173 1.363 . S
C1176 N1174 1.356 . S
C1177 C1171 1.363 . S
C1177 C1172 1.379 1_455 S
C1177 N1175 1.356 . S
N1178 C1170 1.356 . S
N1178 H1184 0.984 . S
N1178 H1185 0.984 . S
N1179 C1172 1.356 . S
N1179 H1182 0.984 . S
N1179 H1183 0.985 . S
H1180 N1175 0.984 . S
H1181 N1175 0.985 . S
H1182 N1179 0.984 . S
H1183 N1179 0.985 . S
H1184 N1178 0.984 . S
H1185 N1178 0.984 . S
H1186 N1174 0.984 . S
H1187 N1174 0.985 . S
C1188 C1189 1.363 . S
C1188 C1194 1.379 1_545 S
C1188 N1196 1.356 . S
C1189 C1188 1.363 . S
C1189 C1195 1.363 . S
C1190 C1191 1.363 . S
C1190 C1195 1.379 1_565 S
C1190 N1197 1.356 . S
C1191 C1190 1.363 . S
C1191 C1194 1.363 . S
N1192 C1194 1.356 . S
N1192 H1204 0.984 . S
N1192 H1205 0.985 . S
N1193 C1195 1.356 . S
N1193 H1198 0.984 . S
N1193 H1199 0.985 . S
C1194 C1188 1.379 1_565 S
C1194 C1191 1.363 . S
C1194 N1192 1.356 . S
C1195 C1189 1.363 . S
C1195 C1190 1.379 1_545 S
C1195 N1193 1.356 . S
N1196 C1188 1.356 . S
N1196 H1202 0.984 . S
N1196 H1203 0.984 . S
N1197 C1190 1.356 . S
N1197 H1200 0.984 . S
N1197 H1201 0.985 . S
H1198 N1193 0.984 . S
H1199 N1193 0.985 . S
H1200 N1197 0.984 . S
H1201 N1197 0.985 . S
H1202 N1196 0.984 . S
H1203 N1196 0.984 . S
H1204 N1192 0.984 . S
H1205 N1192 0.985 . S
C1206 C1207 1.363 . S
C1206 C1212 1.379 . S
C1206 N1214 1.356 . S
C1207 C1206 1.363 . S
C1207 C1213 1.363 . S
C1208 C1209 1.363 . S
C1208 C1213 1.379 . S
C1208 N1215 1.356 . S
C1209 C1208 1.363 . S
C1209 C1212 1.363 . S
N1210 C1212 1.356 . S
N1210 H1222 0.984 . S
N1210 H1223 0.985 . S
N1211 C1213 1.356 . S
N1211 H1216 0.984 . S
N1211 H1217 0.985 . S
C1212 C1206 1.379 . S
C1212 C1209 1.363 . S
C1212 N1210 1.356 . S
C1213 C1207 1.363 . S
C1213 C1208 1.379 . S
C1213 N1211 1.356 . S
N1214 C1206 1.356 . S
N1214 H1220 0.984 . S
N1214 H1221 0.984 . S
N1215 C1208 1.356 . S
N1215 H1218 0.984 . S
N1215 H1219 0.985 . S
H1216 N1211 0.984 . S
H1217 N1211 0.985 . S
H1218 N1215 0.984 . S
H1219 N1215 0.985 . S
H1220 N1214 0.984 . S
H1221 N1214 0.984 . S
H1222 N1210 0.984 . S
H1223 N1210 0.985 . S
C1224 C1225 1.363 . S
C1224 C1230 1.379 . S
C1224 N1232 1.356 . S
C1225 C1224 1.363 . S
C1225 C1231 1.363 . S
C1226 C1227 1.363 . S
C1226 C1231 1.379 . S
C1226 N1233 1.356 . S
C1227 C1226 1.363 . S
C1227 C1230 1.363 . S
N1228 C1230 1.356 . S
N1228 H1240 0.984 . S
N1228 H1241 0.985 . S
N1229 C1231 1.356 . S
N1229 H1234 0.984 . S
N1229 H1235 0.985 . S
C1230 C1224 1.379 . S
C1230 C1227 1.363 . S
C1230 N1228 1.356 . S
C1231 C1225 1.363 . S
C1231 C1226 1.379 . S
C1231 N1229 1.356 . S
N1232 C1224 1.356 . S
N1232 H1238 0.984 . S
N1232 H1239 0.984 . S
N1233 C1226 1.356 . S
N1233 H1236 0.984 . S
N1233 H1237 0.985 . S
H1234 N1229 0.984 . S
H1235 N1229 0.985 . S
H1236 N1233 0.984 . S
H1237 N1233 0.985 . S
H1238 N1232 0.984 . S
H1239 N1232 0.984 . S
H1240 N1228 0.984 . S
H1241 N1228 0.985 . S
C1242 C1243 1.363 . S
C1242 C1248 1.379 . S
C1242 N1250 1.356 . S
C1243 C1242 1.363 . S
C1243 C1249 1.363 . S
C1244 C1245 1.363 . S
C1244 C1249 1.379 . S
C1244 N1251 1.356 . S
C1245 C1244 1.363 . S
C1245 C1248 1.363 . S
N1246 C1248 1.356 . S
N1246 H1258 0.984 . S
N1246 H1259 0.985 . S
N1247 C1249 1.356 . S
N1247 H1252 0.984 . S
N1247 H1253 0.985 . S
C1248 C1242 1.379 . S
C1248 C1245 1.363 . S
C1248 N1246 1.356 . S
C1249 C1243 1.363 . S
C1249 C1244 1.379 . S
C1249 N1247 1.356 . S
N1250 C1242 1.356 . S
N1250 H1256 0.984 . S
N1250 H1257 0.984 . S
N1251 C1244 1.356 . S
N1251 H1254 0.984 . S
N1251 H1255 0.985 . S
H1252 N1247 0.984 . S
H1253 N1247 0.985 . S
H1254 N1251 0.984 . S
H1255 N1251 0.985 . S
H1256 N1250 0.984 . S
H1257 N1250 0.984 . S
H1258 N1246 0.984 . S
H1259 N1246 0.985 . S
C1260 C1261 1.363 . S
C1260 C1266 1.379 . S
C1260 N1268 1.356 . S
C1261 C1260 1.363 . S
C1261 C1267 1.363 . S
C1262 C1263 1.363 . S
C1262 C1267 1.379 . S
C1262 N1269 1.356 . S
C1263 C1262 1.363 . S
C1263 C1266 1.363 . S
N1264 C1266 1.356 . S
N1264 H1276 0.984 . S
N1264 H1277 0.985 . S
N1265 C1267 1.356 . S
N1265 H1270 0.984 . S
N1265 H1271 0.985 . S
C1266 C1260 1.379 . S
C1266 C1263 1.363 . S
C1266 N1264 1.356 . S
C1267 C1261 1.363 . S
C1267 C1262 1.379 . S
C1267 N1265 1.356 . S
N1268 C1260 1.356 . S
N1268 H1274 0.984 . S
N1268 H1275 0.984 . S
N1269 C1262 1.356 . S
N1269 H1272 0.984 . S
N1269 H1273 0.985 . S
H1270 N1265 0.984 . S
H1271 N1265 0.985 . S
H1272 N1269 0.984 . S
H1273 N1269 0.985 . S
H1274 N1268 0.984 . S
H1275 N1268 0.984 . S
H1276 N1264 0.984 . S
H1277 N1264 0.985 . S
C1278 C1279 1.363 . S
C1278 C1284 1.379 . S
C1278 N1286 1.356 . S
C1279 C1278 1.363 . S
C1279 C1285 1.363 . S
C1280 C1281 1.363 . S
C1280 C1285 1.379 . S
C1280 N1287 1.356 . S
C1281 C1280 1.363 . S
C1281 C1284 1.363 . S
N1282 C1284 1.356 . S
N1282 H1294 0.984 . S
N1282 H1295 0.985 . S
N1283 C1285 1.356 . S
N1283 H1288 0.984 . S
N1283 H1289 0.985 . S
C1284 C1278 1.379 . S
C1284 C1281 1.363 . S
C1284 N1282 1.356 . S
C1285 C1279 1.363 . S
C1285 C1280 1.379 . S
C1285 N1283 1.356 . S
N1286 C1278 1.356 . S
N1286 H1292 0.984 . S
N1286 H1293 0.984 . S
N1287 C1280 1.356 . S
N1287 H1290 0.984 . S
N1287 H1291 0.985 . S
H1288 N1283 0.984 . S
H1289 N1283 0.985 . S
H1290 N1287 0.984 . S
H1291 N1287 0.985 . S
H1292 N1286 0.984 . S
H1293 N1286 0.984 . S
H1294 N1282 0.984 . S
H1295 N1282 0.985 . S
C1296 C1297 1.363 . S
C1296 C1302 1.379 . S
C1296 N1304 1.356 . S
C1297 C1296 1.363 . S
C1297 C1303 1.363 . S
C1298 C1299 1.363 . S
C1298 C1303 1.379 . S
C1298 N1305 1.356 . S
C1299 C1298 1.363 . S
C1299 C1302 1.363 . S
N1300 C1302 1.356 . S
N1300 H1312 0.984 . S
N1300 H1313 0.985 . S
N1301 C1303 1.356 . S
N1301 H1306 0.984 . S
N1301 H1307 0.985 . S
C1302 C1296 1.379 . S
C1302 C1299 1.363 . S
C1302 N1300 1.356 . S
C1303 C1297 1.363 . S
C1303 C1298 1.379 . S
C1303 N1301 1.356 . S
N1304 C1296 1.356 . S
N1304 H1310 0.984 . S
N1304 H1311 0.984 . S
N1305 C1298 1.356 . S
N1305 H1308 0.984 . S
N1305 H1309 0.985 . S
H1306 N1301 0.984 . S
H1307 N1301 0.985 . S
H1308 N1305 0.984 . S
H1309 N1305 0.985 . S
H1310 N1304 0.984 . S
H1311 N1304 0.984 . S
H1312 N1300 0.984 . S
H1313 N1300 0.985 . S
C1314 C1315 1.363 . S
C1314 C1320 1.379 . S
C1314 N1322 1.356 . S
C1315 C1314 1.363 . S
C1315 C1321 1.363 . S
C1316 C1317 1.363 . S
C1316 C1321 1.379 . S
C1316 N1323 1.356 . S
C1317 C1316 1.363 . S
C1317 C1320 1.363 . S
N1318 C1320 1.356 . S
N1318 H1330 0.984 . S
N1318 H1331 0.985 . S
N1319 C1321 1.356 . S
N1319 H1324 0.984 . S
N1319 H1325 0.985 . S
C1320 C1314 1.379 . S
C1320 C1317 1.363 . S
C1320 N1318 1.356 . S
C1321 C1315 1.363 . S
C1321 C1316 1.379 . S
C1321 N1319 1.356 . S
N1322 C1314 1.356 . S
N1322 H1328 0.984 . S
N1322 H1329 0.984 . S
N1323 C1316 1.356 . S
N1323 H1326 0.984 . S
N1323 H1327 0.985 . S
H1324 N1319 0.984 . S
H1325 N1319 0.985 . S
H1326 N1323 0.984 . S
H1327 N1323 0.985 . S
H1328 N1322 0.984 . S
H1329 N1322 0.984 . S
H1330 N1318 0.984 . S
H1331 N1318 0.985 . S
C1332 C1333 1.363 . S
C1332 C1338 1.379 . S
C1332 N1340 1.356 . S
C1333 C1332 1.363 . S
C1333 C1339 1.363 . S
C1334 C1335 1.363 . S
C1334 C1339 1.379 . S
C1334 N1341 1.356 . S
C1335 C1334 1.363 . S
C1335 C1338 1.363 . S
N1336 C1338 1.356 . S
N1336 H1348 0.984 . S
N1336 H1349 0.985 . S
N1337 C1339 1.356 . S
N1337 H1342 0.984 . S
N1337 H1343 0.985 . S
C1338 C1332 1.379 . S
C1338 C1335 1.363 . S
C1338 N1336 1.356 . S
C1339 C1333 1.363 . S
C1339 C1334 1.379 . S
C1339 N1337 1.356 . S
N1340 C1332 1.356 . S
N1340 H1346 0.984 . S
N1340 H1347 0.984 . S
N1341 C1334 1.356 . S
N1341 H1344 0.984 . S
N1341 H1345 0.985 . S
H1342 N1337 0.984 . S
H1343 N1337 0.985 . S
H1344 N1341 0.984 . S
H1345 N1341 0.985 . S
H1346 N1340 0.984 . S
H1347 N1340 0.984 . S
H1348 N1336 0.984 . S
H1349 N1336 0.985 . S
C1350 C1351 1.363 . S
C1350 C1356 1.379 . S
C1350 N1358 1.356 . S
C1351 C1350 1.363 . S
C1351 C1357 1.363 . S
C1352 C1353 1.363 . S
C1352 C1357 1.379 . S
C1352 N1359 1.356 . S
C1353 C1352 1.363 . S
C1353 C1356 1.363 . S
N1354 C1356 1.356 . S
N1354 H1366 0.984 . S
N1354 H1367 0.985 . S
N1355 C1357 1.356 . S
N1355 H1360 0.984 . S
N1355 H1361 0.985 . S
C1356 C1350 1.379 . S
C1356 C1353 1.363 . S
C1356 N1354 1.356 . S
C1357 C1351 1.363 . S
C1357 C1352 1.379 . S
C1357 N1355 1.356 . S
N1358 C1350 1.356 . S
N1358 H1364 0.984 . S
N1358 H1365 0.984 . S
N1359 C1352 1.356 . S
N1359 H1362 0.984 . S
N1359 H1363 0.985 . S
H1360 N1355 0.984 . S
H1361 N1355 0.985 . S
H1362 N1359 0.984 . S
H1363 N1359 0.985 . S
H1364 N1358 0.984 . S
H1365 N1358 0.984 . S
H1366 N1354 0.984 . S
H1367 N1354 0.985 . S
C1368 C1369 1.363 . S
C1368 C1374 1.379 . S
C1368 N1376 1.356 . S
C1369 C1368 1.363 . S
C1369 C1375 1.363 . S
C1370 C1371 1.363 . S
C1370 C1375 1.379 . S
C1370 N1377 1.356 . S
C1371 C1370 1.363 . S
C1371 C1374 1.363 . S
N1372 C1374 1.356 . S
N1372 H1384 0.984 . S
N1372 H1385 0.985 . S
N1373 C1375 1.356 . S
N1373 H1378 0.984 . S
N1373 H1379 0.985 . S
C1374 C1368 1.379 . S
C1374 C1371 1.363 . S
C1374 N1372 1.356 . S
C1375 C1369 1.363 . S
C1375 C1370 1.379 . S
C1375 N1373 1.356 . S
N1376 C1368 1.356 . S
N1376 H1382 0.984 . S
N1376 H1383 0.984 . S
N1377 C1370 1.356 . S
N1377 H1380 0.984 . S
N1377 H1381 0.985 . S
H1378 N1373 0.984 . S
H1379 N1373 0.985 . S
H1380 N1377 0.984 . S
H1381 N1377 0.985 . S
H1382 N1376 0.984 . S
H1383 N1376 0.984 . S
H1384 N1372 0.984 . S
H1385 N1372 0.985 . S
C1386 C1387 1.363 . S
C1386 C1392 1.379 . S
C1386 N1394 1.356 . S
C1387 C1386 1.363 . S
C1387 C1393 1.363 . S
C1388 C1389 1.363 . S
C1388 C1393 1.379 . S
C1388 N1395 1.356 . S
C1389 C1388 1.363 . S
C1389 C1392 1.363 . S
N1390 C1392 1.356 . S
N1390 H1402 0.984 . S
N1390 H1403 0.985 . S
N1391 C1393 1.356 . S
N1391 H1396 0.984 . S
N1391 H1397 0.985 . S
C1392 C1386 1.379 . S
C1392 C1389 1.363 . S
C1392 N1390 1.356 . S
C1393 C1387 1.363 . S
C1393 C1388 1.379 . S
C1393 N1391 1.356 . S
N1394 C1386 1.356 . S
N1394 H1400 0.984 . S
N1394 H1401 0.984 . S
N1395 C1388 1.356 . S
N1395 H1398 0.984 . S
N1395 H1399 0.985 . S
H1396 N1391 0.984 . S
H1397 N1391 0.985 . S
H1398 N1395 0.984 . S
H1399 N1395 0.985 . S
H1400 N1394 0.984 . S
H1401 N1394 0.984 . S
H1402 N1390 0.984 . S
H1403 N1390 0.985 . S
C1404 C1405 1.363 . S
C1404 C1410 1.379 . S
C1404 N1412 1.356 . S
C1405 C1404 1.363 . S
C1405 C1411 1.363 . S
C1406 C1407 1.363 . S
C1406 C1411 1.379 . S
C1406 N1413 1.356 . S
C1407 C1406 1.363 . S
C1407 C1410 1.363 . S
N1408 C1410 1.356 . S
N1408 H1420 0.984 . S
N1408 H1421 0.985 . S
N1409 C1411 1.356 . S
N1409 H1414 0.984 . S
N1409 H1415 0.985 . S
C1410 C1404 1.379 . S
C1410 C1407 1.363 . S
C1410 N1408 1.356 . S
C1411 C1405 1.363 . S
C1411 C1406 1.379 . S
C1411 N1409 1.356 . S
N1412 C1404 1.356 . S
N1412 H1418 0.984 . S
N1412 H1419 0.984 . S
N1413 C1406 1.356 . S
N1413 H1416 0.984 . S
N1413 H1417 0.985 . S
H1414 N1409 0.984 . S
H1415 N1409 0.985 . S
H1416 N1413 0.984 . S
H1417 N1413 0.985 . S
H1418 N1412 0.984 . S
H1419 N1412 0.984 . S
H1420 N1408 0.984 . S
H1421 N1408 0.985 . S
C1422 C1423 1.363 . S
C1422 C1428 1.379 . S
C1422 N1430 1.356 . S
C1423 C1422 1.363 . S
C1423 C1429 1.363 . S
C1424 C1425 1.363 . S
C1424 C1429 1.379 . S
C1424 N1431 1.356 . S
C1425 C1424 1.363 . S
C1425 C1428 1.363 . S
N1426 C1428 1.356 . S
N1426 H1438 0.984 . S
N1426 H1439 0.985 . S
N1427 C1429 1.356 . S
N1427 H1432 0.984 . S
N1427 H1433 0.985 . S
C1428 C1422 1.379 . S
C1428 C1425 1.363 . S
C1428 N1426 1.356 . S
C1429 C1423 1.363 . S
C1429 C1424 1.379 . S
C1429 N1427 1.356 . S
N1430 C1422 1.356 . S
N1430 H1436 0.984 . S
N1430 H1437 0.984 . S
N1431 C1424 1.356 . S
N1431 H1434 0.984 . S
N1431 H1435 0.985 . S
H1432 N1427 0.984 . S
H1433 N1427 0.985 . S
H1434 N1431 0.984 . S
H1435 N1431 0.985 . S
H1436 N1430 0.984 . S
H1437 N1430 0.984 . S
H1438 N1426 0.984 . S
H1439 N1426 0.985 . S
C1440 C1441 1.363 . S
C1440 C1446 1.379 . S
C1440 N1448 1.356 . S
C1441 C1440 1.363 . S
C1441 C1447 1.363 . S
C1442 C1443 1.363 . S
C1442 C1447 1.379 . S
C1442 N1449 1.356 . S
C1443 C1442 1.363 . S
C1443 C1446 1.363 . S
N1444 C1446 1.356 . S
N1444 H1456 0.984 . S
N1444 H1457 0.985 . S
N1445 C1447 1.356 . S
N1445 H1450 0.984 . S
N1445 H1451 0.985 . S
C1446 C1440 1.379 . S
C1446 C1443 1.363 . S
C1446 N1444 1.356 . S
C1447 C1441 1.363 . S
C1447 C1442 1.379 . S
C1447 N1445 1.356 . S
N1448 C1440 1.356 . S
N1448 H1454 0.984 . S
N1448 H1455 0.984 . S
N1449 C1442 1.356 . S
N1449 H1452 0.984 . S
N1449 H1453 0.985 . S
H1450 N1445 0.984 . S
H1451 N1445 0.985 . S
H1452 N1449 0.984 . S
H1453 N1449 0.985 . S
H1454 N1448 0.984 . S
H1455 N1448 0.984 . S
H1456 N1444 0.984 . S
H1457 N1444 0.985 . S
C1458 C1459 1.363 . S
C1458 C1464 1.379 . S
C1458 N1466 1.356 . S
C1459 C1458 1.363 . S
C1459 C1465 1.363 . S
C1460 C1461 1.363 . S
C1460 C1465 1.379 . S
C1460 N1467 1.356 . S
C1461 C1460 1.363 . S
C1461 C1464 1.363 . S
N1462 C1464 1.356 . S
N1462 H1474 0.984 . S
N1462 H1475 0.985 . S
N1463 C1465 1.356 . S
N1463 H1468 0.984 . S
N1463 H1469 0.985 . S
C1464 C1458 1.379 . S
C1464 C1461 1.363 . S
C1464 N1462 1.356 . S
C1465 C1459 1.363 . S
C1465 C1460 1.379 . S
C1465 N1463 1.356 . S
N1466 C1458 1.356 . S
N1466 H1472 0.984 . S
N1466 H1473 0.984 . S
N1467 C1460 1.356 . S
N1467 H1470 0.984 . S
N1467 H1471 0.985 . S
H1468 N1463 0.984 . S
H1469 N1463 0.985 . S
H1470 N1467 0.984 . S
H1471 N1467 0.985 . S
H1472 N1466 0.984 . S
H1473 N1466 0.984 . S
H1474 N1462 0.984 . S
H1475 N1462 0.985 . S
C1476 C1477 1.363 . S
C1476 C1482 1.379 . S
C1476 N1484 1.356 . S
C1477 C1476 1.363 . S
C1477 C1483 1.363 . S
C1478 C1479 1.363 . S
C1478 C1483 1.379 . S
C1478 N1485 1.356 . S
C1479 C1478 1.363 . S
C1479 C1482 1.363 . S
N1480 C1482 1.356 . S
N1480 H1492 0.984 . S
N1480 H1493 0.985 . S
N1481 C1483 1.356 . S
N1481 H1486 0.984 . S
N1481 H1487 0.985 . S
C1482 C1476 1.379 . S
C1482 C1479 1.363 . S
C1482 N1480 1.356 . S
C1483 C1477 1.363 . S
C1483 C1478 1.379 . S
C1483 N1481 1.356 . S
N1484 C1476 1.356 . S
N1484 H1490 0.984 . S
N1484 H1491 0.984 . S
N1485 C1478 1.356 . S
N1485 H1488 0.984 . S
N1485 H1489 0.985 . S
H1486 N1481 0.984 . S
H1487 N1481 0.985 . S
H1488 N1485 0.984 . S
H1489 N1485 0.985 . S
H1490 N1484 0.984 . S
H1491 N1484 0.984 . S
H1492 N1480 0.984 . S
H1493 N1480 0.985 . S
C1494 C1495 1.363 . S
C1494 C1500 1.379 . S
C1494 N1502 1.356 . S
C1495 C1494 1.363 . S
C1495 C1501 1.363 . S
C1496 C1497 1.363 . S
C1496 C1501 1.379 . S
C1496 N1503 1.356 . S
C1497 C1496 1.363 . S
C1497 C1500 1.363 . S
N1498 C1500 1.356 . S
N1498 H1510 0.984 . S
N1498 H1511 0.985 . S
N1499 C1501 1.356 . S
N1499 H1504 0.984 . S
N1499 H1505 0.985 . S
C1500 C1494 1.379 . S
C1500 C1497 1.363 . S
C1500 N1498 1.356 . S
C1501 C1495 1.363 . S
C1501 C1496 1.379 . S
C1501 N1499 1.356 . S
N1502 C1494 1.356 . S
N1502 H1508 0.984 . S
N1502 H1509 0.984 . S
N1503 C1496 1.356 . S
N1503 H1506 0.984 . S
N1503 H1507 0.985 . S
H1504 N1499 0.984 . S
H1505 N1499 0.985 . S
H1506 N1503 0.984 . S
H1507 N1503 0.985 . S
H1508 N1502 0.984 . S
H1509 N1502 0.984 . S
H1510 N1498 0.984 . S
H1511 N1498 0.985 . S
C1512 C1513 1.363 . S
C1512 C1518 1.379 . S
C1512 N1520 1.356 . S
C1513 C1512 1.363 . S
C1513 C1519 1.363 . S
C1514 C1515 1.363 . S
C1514 C1519 1.379 . S
C1514 N1521 1.356 . S
C1515 C1514 1.363 . S
C1515 C1518 1.363 . S
N1516 C1518 1.356 . S
N1516 H1528 0.984 . S
N1516 H1529 0.985 . S
N1517 C1519 1.356 . S
N1517 H1522 0.984 . S
N1517 H1523 0.985 . S
C1518 C1512 1.379 . S
C1518 C1515 1.363 . S
C1518 N1516 1.356 . S
C1519 C1513 1.363 . S
C1519 C1514 1.379 . S
C1519 N1517 1.356 . S
N1520 C1512 1.356 . S
N1520 H1526 0.984 . S
N1520 H1527 0.984 . S
N1521 C1514 1.356 . S
N1521 H1524 0.984 . S
N1521 H1525 0.985 . S
H1522 N1517 0.984 . S
H1523 N1517 0.985 . S
H1524 N1521 0.984 . S
H1525 N1521 0.985 . S
H1526 N1520 0.984 . S
H1527 N1520 0.984 . S
H1528 N1516 0.984 . S
H1529 N1516 0.985 . S
C1530 C1531 1.363 . S
C1530 C1536 1.379 . S
C1530 N1538 1.356 . S
C1531 C1530 1.363 . S
C1531 C1537 1.363 . S
C1532 C1533 1.363 . S
C1532 C1537 1.379 . S
C1532 N1539 1.356 . S
C1533 C1532 1.363 . S
C1533 C1536 1.363 . S
N1534 C1536 1.356 . S
N1534 H1546 0.984 . S
N1534 H1547 0.985 . S
N1535 C1537 1.356 . S
N1535 H1540 0.984 . S
N1535 H1541 0.985 . S
C1536 C1530 1.379 . S
C1536 C1533 1.363 . S
C1536 N1534 1.356 . S
C1537 C1531 1.363 . S
C1537 C1532 1.379 . S
C1537 N1535 1.356 . S
N1538 C1530 1.356 . S
N1538 H1544 0.984 . S
N1538 H1545 0.984 . S
N1539 C1532 1.356 . S
N1539 H1542 0.984 . S
N1539 H1543 0.985 . S
H1540 N1535 0.984 . S
H1541 N1535 0.985 . S
H1542 N1539 0.984 . S
H1543 N1539 0.985 . S
H1544 N1538 0.984 . S
H1545 N1538 0.984 . S
H1546 N1534 0.984 . S
H1547 N1534 0.985 . S
C1548 C1549 1.363 . S
C1548 C1554 1.379 . S
C1548 N1556 1.356 . S
C1549 C1548 1.363 . S
C1549 C1555 1.363 1_556 S
C1550 C1551 1.363 . S
C1550 C1555 1.379 . S
C1550 N1557 1.356 . S
C1551 C1550 1.363 . S
C1551 C1554 1.363 1_554 S
N1552 C1554 1.356 . S
N1552 H1564 0.984 . S
N1552 H1565 0.985 1_556 S
N1553 C1555 1.356 . S
N1553 H1558 0.984 1_554 S
N1553 H1559 0.985 . S
C1554 C1548 1.379 . S
C1554 C1551 1.363 1_556 S
C1554 N1552 1.356 . S
C1555 C1549 1.363 1_554 S
C1555 C1550 1.379 . S
C1555 N1553 1.356 . S
N1556 C1548 1.356 . S
N1556 H1562 0.984 . S
N1556 H1563 0.984 . S
N1557 C1550 1.356 . S
N1557 H1560 0.984 . S
N1557 H1561 0.985 . S
H1558 N1553 0.984 1_556 S
H1559 N1553 0.985 . S
H1560 N1557 0.984 . S
H1561 N1557 0.985 . S
H1562 N1556 0.984 . S
H1563 N1556 0.984 . S
H1564 N1552 0.984 . S
H1565 N1552 0.985 1_554 S
C1566 C1567 1.363 . S
C1566 C1572 1.379 1_455 S
C1566 N1574 1.356 . S
C1567 C1566 1.363 . S
C1567 C1573 1.363 . S
C1568 C1569 1.363 . S
C1568 C1573 1.379 1_655 S
C1568 N1575 1.356 . S
C1569 C1568 1.363 . S
C1569 C1572 1.363 . S
N1570 C1572 1.356 . S
N1570 H1582 0.984 . S
N1570 H1583 0.985 . S
N1571 C1573 1.356 . S
N1571 H1576 0.984 . S
N1571 H1577 0.985 . S
C1572 C1566 1.379 1_655 S
C1572 C1569 1.363 . S
C1572 N1570 1.356 . S
C1573 C1567 1.363 . S
C1573 C1568 1.379 1_455 S
C1573 N1571 1.356 . S
N1574 C1566 1.356 . S
N1574 H1580 0.984 . S
N1574 H1581 0.984 . S
N1575 C1568 1.356 . S
N1575 H1578 0.984 . S
N1575 H1579 0.985 . S
H1576 N1571 0.984 . S
H1577 N1571 0.985 . S
H1578 N1575 0.984 . S
H1579 N1575 0.985 . S
H1580 N1574 0.984 . S
H1581 N1574 0.984 . S
H1582 N1570 0.984 . S
H1583 N1570 0.985 . S
C1584 C1585 1.363 1_556 S
C1584 C1590 1.379 1_565 S
C1584 N1592 1.356 . S
C1585 C1584 1.363 1_554 S
C1585 C1591 1.363 . S
C1586 C1587 1.363 1_554 S
C1586 C1591 1.379 1_545 S
C1586 N1593 1.356 . S
C1587 C1586 1.363 1_556 S
C1587 C1590 1.363 . S
N1588 C1590 1.356 . S
N1588 H1600 0.984 . S
N1588 H1601 0.985 . S
N1589 C1591 1.356 . S
N1589 H1594 0.984 . S
N1589 H1595 0.985 . S
C1590 C1584 1.379 1_545 S
C1590 C1587 1.363 . S
C1590 N1588 1.356 . S
C1591 C1585 1.363 . S
C1591 C1586 1.379 1_565 S
C1591 N1589 1.356 . S
N1592 C1584 1.356 . S
N1592 H1598 0.984 . S
N1592 H1599 0.984 . S
N1593 C1586 1.356 . S
N1593 H1596 0.984 . S
N1593 H1597 0.985 . S
H1594 N1589 0.984 . S
H1595 N1589 0.985 . S
H1596 N1593 0.984 . S
H1597 N1593 0.985 . S
H1598 N1592 0.984 . S
H1599 N1592 0.984 . S
H1600 N1588 0.984 . S
H1601 N1588 0.985 . S
C1602 C1603 1.363 . S
C1602 C1608 1.379 . S
C1602 N1610 1.356 . S
C1603 C1602 1.363 . S
C1603 C1609 1.363 . S
C1604 C1605 1.363 . S
C1604 C1609 1.379 . S
C1604 N1611 1.356 . S
C1605 C1604 1.363 . S
C1605 C1608 1.363 . S
N1606 C1608 1.356 . S
N1606 H1618 0.984 . S
N1606 H1619 0.985 . S
N1607 C1609 1.356 . S
N1607 H1612 0.984 . S
N1607 H1613 0.985 . S
C1608 C1602 1.379 . S
C1608 C1605 1.363 . S
C1608 N1606 1.356 . S
C1609 C1603 1.363 . S
C1609 C1604 1.379 . S
C1609 N1607 1.356 . S
N1610 C1602 1.356 . S
N1610 H1616 0.984 . S
N1610 H1617 0.984 . S
N1611 C1604 1.356 . S
N1611 H1614 0.984 . S
N1611 H1615 0.985 . S
H1612 N1607 0.984 . S
H1613 N1607 0.985 . S
H1614 N1611 0.984 . S
H1615 N1611 0.985 . S
H1616 N1610 0.984 . S
H1617 N1610 0.984 . S
H1618 N1606 0.984 . S
H1619 N1606 0.985 . S
C1620 C1621 1.363 1_554 S
C1620 C1626 1.379 1_655 S
C1620 N1628 1.356 . S
C1621 C1620 1.363 1_556 S
C1621 C1627 1.363 . S
C1622 C1623 1.363 1_556 S
C1622 C1627 1.379 1_455 S
C1622 N1629 1.356 . S
C1623 C1622 1.363 1_554 S
C1623 C1626 1.363 . S
N1624 C1626 1.356 . S
N1624 H1636 0.984 . S
N1624 H1637 0.985 . S
N1625 C1627 1.356 . S
N1625 H1630 0.984 . S
N1625 H1631 0.985 . S
C1626 C1620 1.379 1_455 S
C1626 C1623 1.363 . S
C1626 N1624 1.356 . S
C1627 C1621 1.363 . S
C1627 C1622 1.379 1_655 S
C1627 N1625 1.356 . S
N1628 C1620 1.356 . S
N1628 H1634 0.984 . S
N1628 H1635 0.984 . S
N1629 C1622 1.356 . S
N1629 H1632 0.984 . S
N1629 H1633 0.985 . S
H1630 N1625 0.984 . S
H1631 N1625 0.985 . S
H1632 N1629 0.984 . S
H1633 N1629 0.985 . S
H1634 N1628 0.984 . S
H1635 N1628 0.984 . S
H1636 N1624 0.984 . S
H1637 N1624 0.985 . S
C1638 C1639 1.363 . S
C1638 C1644 1.379 1_565 S
C1638 N1646 1.356 . S
C1639 C1638 1.363 . S
C1639 C1645 1.363 . S
C1640 C1641 1.363 . S
C1640 C1645 1.379 1_545 S
C1640 N1647 1.356 . S
C1641 C1640 1.363 . S
C1641 C1644 1.363 . S
N1642 C1644 1.356 . S
N1642 H1654 0.984 . S
N1642 H1655 0.985 . S
N1643 C1645 1.356 . S
N1643 H1648 0.984 . S
N1643 H1649 0.985 . S
C1644 C1638 1.379 1_545 S
C1644 C1641 1.363 . S
C1644 N1642 1.356 . S
C1645 C1639 1.363 . S
C1645 C1640 1.379 1_565 S
C1645 N1643 1.356 . S
N1646 C1638 1.356 . S
N1646 H1652 0.984 . S
N1646 H1653 0.984 . S
N1647 C1640 1.356 . S
N1647 H1650 0.984 . S
N1647 H1651 0.985 . S
H1648 N1643 0.984 . S
H1649 N1643 0.985 . S
H1650 N1647 0.984 . S
H1651 N1647 0.985 . S
H1652 N1646 0.984 . S
H1653 N1646 0.984 . S
H1654 N1642 0.984 . S
H1655 N1642 0.985 . S
C1009 C403 1.411 . S
C1011 C58 1.244 . S
C1027 C487 1.411 . S
C1029 C142 1.244 . S
C1045 C226 1.244 . S
C1047 C67 1.411 . S
C1063 C310 1.244 . S
C1065 C151 1.411 . S
C1081 C394 1.245 . S
C1083 C235 1.411 . S
C1099 C319 1.411 . S
C1101 C478 1.244 . S
C1117 C739 1.411 . S
C1119 C562 1.245 . S
C1135 C646 1.244 . S
C1137 C823 1.411 . S
C1153 C907 1.411 . S
C1155 C730 1.245 . S
C1171 C814 1.244 . S
C1173 C991 1.411 . S
C1189 C898 1.244 . S
C1191 C571 1.411 . S
C1207 C655 1.411 . S
C1209 C982 1.245 . S
C1225 C392 1.453 . S
C1227 C69 1.316 . S
C1243 C153 1.316 . S
C1245 C476 1.453 . S
C1261 C237 1.316 . S
C1263 C56 1.453 . S
C1279 C321 1.316 . S
C1281 C140 1.453 . S
C1297 C224 1.453 . S
C1299 C405 1.316 . S
C1315 C308 1.453 . S
C1317 C489 1.316 . S
C1333 C728 1.453 . S
C1335 C573 1.316 . S
C1351 C657 1.316 . S
C1353 C812 1.453 . S
C1369 C741 1.316 . S
C1371 C896 1.453 . S
C1387 C980 1.453 . S
C1389 C825 1.316 . S
C1405 C909 1.316 . S
C1407 C560 1.453 . S
C1423 C644 1.453 . S
C1425 C993 1.316 . S
C1441 C914 1.819 . S
C1443 C74 1.819 . S
C1459 C158 1.819 . S
C1461 C998 1.819 . S
C1477 C242 1.819 . S
C1479 C578 1.819 . S
C1495 C326 1.819 . S
C1497 C662 1.819 . S
C1513 C410 1.819 . S
C1515 C746 1.819 . S
C1531 C830 1.819 . S
C1533 C494 1.819 . S
C1549 C819 2.036 . S
C1551 C63 2.036 . S
C1567 C903 2.036 . S
C1569 C147 2.036 . S
C1585 C231 2.036 . S
C1587 C987 2.036 . S
C1603 C315 2.036 . S
C1605 C567 2.036 . S
C1621 C651 2.036 . S
C1623 C399 2.036 . S
C1639 C735 2.036 . S
C1641 C483 2.036 . S
