# Generated by pormake.
# Topology wkj, (6)-cn, num edge types: 1
# Building blocks:
#     Node 0, Type 0, BuildingBlock: JUFBIX_clean_sbu_0, # of connection points: 6
#     Node 1, Type 0, BuildingBlock: JUFBIX_clean_sbu_0, # of connection points: 6
#     Node 2, Type 0, BuildingBlock: JUFBIX_clean_sbu_0, # of connection points: 6
#     Node 3, Type 0, BuildingBlock: JUFBIX_clean_sbu_0, # of connection points: 6
#     Node 4, Type 0, BuildingBlock: JUFBIX_clean_sbu_0, # of connection points: 6
#     Node 5, Type 0, BuildingBlock: JUFBIX_clean_sbu_0, # of connection points: 6
#     Node 6, Type 0, BuildingBlock: JUFBIX_clean_sbu_0, # of connection points: 6
#     Node 7, Type 0, BuildingBlock: JUFBIX_clean_sbu_0, # of connection points: 6
#     Node 8, Type 0, BuildingBlock: JUFBIX_clean_sbu_0, # of connection points: 6
#     Node 9, Type 0, BuildingBlock: JUFBIX_clean_sbu_0, # of connection points: 6
#     Node 10, Type 0, BuildingBlock: JUFBIX_clean_sbu_0, # of connection points: 6
#     Node 11, Type 0, BuildingBlock: JUFBIX_clean_sbu_0, # of connection points: 6
#     Edge 12, Type (0, 0), None
#     Edge 13, Type (0, 0), None
#     Edge 14, Type (0, 0), None
#     Edge 15, Type (0, 0), None
#     Edge 16, Type (0, 0), None
#     Edge 17, Type (0, 0), None
#     Edge 18, Type (0, 0), None
#     Edge 19, Type (0, 0), None
#     Edge 20, Type (0, 0), None
#     Edge 21, Type (0, 0), None
#     Edge 22, Type (0, 0), None
#     Edge 23, Type (0, 0), None
#     Edge 24, Type (0, 0), None
#     Edge 25, Type (0, 0), None
#     Edge 26, Type (0, 0), None
#     Edge 27, Type (0, 0), None
#     Edge 28, Type (0, 0), None
#     Edge 29, Type (0, 0), None
#     Edge 30, Type (0, 0), None
#     Edge 31, Type (0, 0), None
#     Edge 32, Type (0, 0), None
#     Edge 33, Type (0, 0), None
#     Edge 34, Type (0, 0), None
#     Edge 35, Type (0, 0), None
#     Edge 36, Type (0, 0), None
#     Edge 37, Type (0, 0), None
#     Edge 38, Type (0, 0), None
#     Edge 39, Type (0, 0), None
#     Edge 40, Type (0, 0), None
#     Edge 41, Type (0, 0), None
#     Edge 42, Type (0, 0), None
#     Edge 43, Type (0, 0), None
#     Edge 44, Type (0, 0), None
#     Edge 45, Type (0, 0), None
#     Edge 46, Type (0, 0), None
#     Edge 47, Type (0, 0), None
# Relax obj value: 1.161
# Max RMSD: 0.281
# Mean RMSD: 0.273
data_MOF--net-wkj--node1-JUFBIX_clean_sbu_0--edge1-none
_symmetry_space_group_name_H-M    P1
_symmetry_Int_Tables_number       1
_symmetry_cell_setting            triclinic
loop_
_symmetry_equiv_pos_as_xyz
'x, y, z'
_cell_length_a     23.665446
_cell_length_b     23.658192
_cell_length_c     12.770426
_cell_angle_alpha  90.003622
_cell_angle_beta   89.994425
_cell_angle_gamma 119.99637
loop_
_atom_site_label
_atom_site_type_symbol
_atom_site_fract_x
_atom_site_fract_y
_atom_site_fract_z
_atom_type_partial_charge
Co0 Co 0.39636 0.07164 0.22938 0.0
C1 C 0.47382 0.02651 0.32879 0.0
Co2 Co 0.48293 0.13781 0.29922 0.0
C3 C 0.31026 0.00776 1.07501 0.0
C4 C 0.2833 0.94961 0.21475 0.0
N5 N 0.32594 0.00811 0.17486 0.0
N6 N 0.26404 0.94875 1.0458 0.0
C7 C 0.24486 0.91259 0.1344 0.0
H8 H 0.34093 0.04616 1.02045 0.0
H9 H 0.28517 0.93311 0.29303 0.0
C10 C 0.4054 0.18792 0.20729 0.0
N11 N 0.54844 0.20762 0.36364 0.0
C12 C 0.60349 0.21287 0.4014 0.0
C13 C 0.54132 0.25398 0.41329 0.0
N14 N 0.6243 0.25238 0.48487 0.0
C15 C 0.58896 0.28262 0.48532 0.0
C16 C 0.51065 0.11672 0.0932 0.0
O17 O 0.37261 0.13262 0.16565 0.0
O18 O 0.45114 0.19582 0.26599 0.0
O19 O 0.53583 0.15987 0.16567 0.0
O20 O 0.44995 0.07517 0.1038 0.0
O21 O 0.51642 0.08572 0.33209 0.0
H22 H 0.49889 0.25984 0.41173 0.0
H23 H 0.61807 0.1769 0.38713 0.0
O24 O 0.41765 0.00938 0.29151 0.0
O25 O 0.34264 0.06185 0.34865 0.0
O26 O 0.4308 0.10559 0.44016 0.0
C27 C 0.3685 0.06849 0.43768 0.0
H28 H 0.21327 0.86017 0.13725 0.0
H29 H 0.5878 0.31194 0.54876 0.0
Co30 Co 0.31301 0.38231 0.68988 0.0
C31 C 0.44839 0.46369 0.69477 0.0
Co32 Co 0.35123 0.48039 0.75447 0.0
C33 C 0.23669 0.28235 0.55513 0.0
C34 C 0.30414 0.25967 0.62714 0.0
N35 N 0.28334 0.30298 0.62846 0.0
N36 N 0.23833 0.23892 0.49059 0.0
C37 C 0.27417 0.21812 0.54398 0.0
H38 H 0.21624 0.31205 0.52983 0.0
H39 H 0.34437 0.26363 0.6731 0.0
C40 C 0.2185 0.40855 0.70359 0.0
N41 N 0.36849 0.55771 0.8214 0.0
C42 C 0.42317 0.59873 0.87305 0.0
C43 C 0.32489 0.57623 0.85033 0.0
N44 N 0.41401 0.63814 0.93889 0.0
C45 C 0.3522 0.62416 0.92503 0.0
C46 C 0.34171 0.48608 0.54166 0.0
O47 O 0.22366 0.35846 0.69777 0.0
O48 O 0.26114 0.45528 0.75761 0.0
O49 O 0.35868 0.52139 0.62313 0.0
O50 O 0.31697 0.42426 0.55248 0.0
O51 O 0.43824 0.50544 0.74022 0.0
H52 H 0.27427 0.55294 0.82716 0.0
H53 H 0.46544 0.59237 0.87554 0.0
O54 O 0.40151 0.40695 0.67236 0.0
O55 O 0.3151 0.34248 0.82455 0.0
O56 O 0.35176 0.43902 0.89321 0.0
C57 C 0.34138 0.38036 0.90261 0.0
H58 H 0.29142 0.18747 0.51032 0.0
H59 H 0.32711 0.64306 0.97179 0.0
Co60 Co 0.88335 0.31923 0.89604 0.0
C61 C 0.92849 0.44187 0.99541 0.0
Co62 Co 0.81723 0.33971 0.9659 0.0
C63 C 0.94728 0.29701 0.74167 0.0
C64 C 0.00536 0.32821 0.88145 0.0
N65 N 0.94688 0.3123 0.84153 0.0
N66 N 0.0063 0.30985 0.7125 0.0
C67 C 0.04243 0.32684 0.80111 0.0
H68 H 0.90889 0.28926 0.68708 0.0
H69 H 0.02183 0.34658 0.95973 0.0
C70 C 0.7671 0.21201 0.87398 0.0
N71 N 0.74743 0.33543 1.03032 0.0
C72 C 0.74216 0.38523 1.06809 0.0
C73 C 0.70107 0.28194 1.07994 0.0
N74 N 0.70267 0.36654 0.15156 0.0
C75 C 0.67243 0.30095 0.15197 0.0
C76 C 0.8383 0.38849 0.75986 0.0
O77 O 0.82238 0.23446 0.83234 0.0
O78 O 0.75923 0.24989 0.93265 0.0
O79 O 0.79518 0.37056 0.83236 0.0
O80 O 0.8798 0.36926 0.77042 0.0
O81 O 0.8693 0.42529 0.99878 0.0
H82 H 0.6952 0.23364 1.07836 0.0
H83 H 0.77813 0.43578 1.05384 0.0
O84 O 0.94559 0.40278 0.95812 0.0
O85 O 0.89315 0.2753 1.01533 0.0
O86 O 0.84944 0.31978 0.10684 0.0
C87 C 0.88652 0.29454 0.10436 0.0
H88 H 0.09484 0.34772 0.80399 0.0
H89 H 0.6431 0.27046 0.21539 0.0
Co90 Co 0.57271 0.92522 0.35664 0.0
C91 C 0.49135 0.97925 0.36158 0.0
Co92 Co 0.47467 0.86538 0.42127 0.0
C93 C 0.67263 0.94882 0.22186 0.0
C94 C 0.6953 0.03897 0.29388 0.0
N95 N 0.65201 0.97486 0.2952 0.0
N96 N 0.71605 -0.00612 0.15732 0.0
C97 C 0.73684 0.05053 0.21072 0.0
H98 H 0.64293 0.89866 0.19656 0.0
H99 H 0.69135 0.07526 0.33985 0.0
C100 C 0.54647 0.80446 0.37033 0.0
N101 N 0.39738 0.80532 0.48822 0.0
C102 C 0.35636 0.81899 0.53987 0.0
C103 C 0.37888 0.74319 0.51717 0.0
N104 N 0.31696 0.77043 0.60571 0.0
C105 C 0.33097 0.72259 0.59186 0.0
C106 C 0.46895 0.85016 0.20846 0.0
O107 O 0.59655 0.85971 0.36451 0.0
O108 O 0.49978 0.80039 0.42442 0.0
O109 O 0.43367 0.83181 0.28994 0.0
O110 O 0.53075 0.88723 0.21925 0.0
O111 O 0.44962 0.92736 0.40704 0.0
H112 H 0.40218 0.71586 0.49401 0.0
H113 H 0.36269 0.86762 0.54233 0.0
O114 O 0.54807 -0.01091 0.33915 0.0
O115 O 0.61253 0.96714 0.49129 0.0
O116 O 0.51603 0.90728 0.55999 0.0
C117 C 0.57468 0.95555 0.56937 0.0
H118 H 0.76749 0.09842 0.17706 0.0
H119 H 0.31208 0.6786 0.63863 0.0
Co120 Co 0.63577 0.5587 0.56259 0.0
C121 C 0.51316 0.4812 0.66201 0.0
Co122 Co 0.61532 0.47208 0.63245 0.0
C123 C 0.65797 0.64481 0.4082 0.0
C124 C 0.62679 0.67176 0.54796 0.0
N125 N 0.64268 0.62914 0.50806 0.0
N126 N 0.64515 0.69102 0.379 0.0
C127 C 0.62817 0.71019 0.46761 0.0
H128 H 0.66572 0.61415 0.35362 0.0
H129 H 0.60843 0.66989 0.62625 0.0
C130 C 0.74297 0.54963 0.5405 0.0
N131 N 0.61962 0.40657 0.6969 0.0
C132 C 0.56986 0.35151 0.73468 0.0
C133 C 0.6731 0.41374 0.74657 0.0
N134 N 0.58856 0.33071 0.81816 0.0
C135 C 0.65412 0.3661 0.81861 0.0
C136 C 0.56653 0.44436 0.42643 0.0
O137 O 0.72052 0.58247 0.49887 0.0
O138 O 0.7051 0.50387 0.59916 0.0
O139 O 0.58445 0.41916 0.49892 0.0
O140 O 0.58575 0.5051 0.437 0.0
O141 O 0.52976 0.43859 0.66538 0.0
H142 H 0.72137 0.4562 0.745 0.0
H143 H 0.51931 0.3369 0.72041 0.0
O144 O 0.55223 0.53739 0.6247 0.0
O145 O 0.67968 0.61243 0.68185 0.0
O146 O 0.63525 0.52424 0.77337 0.0
C147 C 0.66046 0.58657 0.77088 0.0
H148 H 0.60732 0.74175 0.47048 0.0
H149 H 0.6846 0.36729 0.88207 0.0
Co150 Co 0.02982 0.64207 1.02329 0.0
C151 C -0.02424 0.50666 1.02818 0.0
Co152 Co 0.08961 0.60381 1.08788 0.0
C153 C 0.00624 0.71842 0.88851 0.0
C154 C 0.91613 0.65103 0.96063 0.0
N155 N -0.0198 0.67178 0.96188 0.0
N156 N 0.96118 0.71683 0.82404 0.0
C157 C 0.90457 0.68103 0.87748 0.0
H158 H 0.05637 0.73883 0.86317 0.0
H159 H 0.87985 0.61082 1.00664 0.0
C160 C 0.15056 0.73656 1.03702 0.0
N161 N 0.14963 0.58652 0.15478 0.0
C162 C 0.13594 0.53183 0.20649 0.0
C163 C 0.21177 0.6301 0.18361 0.0
N164 N 0.18451 0.54097 0.27227 0.0
C165 C 0.23237 0.60279 0.25832 0.0
C166 C 0.10485 0.61335 0.87508 0.0
O167 O 0.09534 0.73143 1.03116 0.0
O168 O 0.15461 0.69391 0.0911 0.0
O169 O 0.12318 0.59638 0.95655 0.0
O170 O 0.06779 0.63809 0.88589 0.0
O171 O 0.02765 0.51678 1.07359 0.0
H172 H 0.23913 0.68072 0.16036 0.0
H173 H 0.0873 0.48957 0.20904 0.0
O174 O 0.96594 0.55356 1.00579 0.0
O175 O -0.01209 0.63999 0.15797 0.0
O176 O 0.04771 0.60325 0.22661 0.0
C177 C -0.00054 0.61367 0.23602 0.0
H178 H 0.85668 0.66382 0.84388 0.0
H179 H 0.27637 0.62787 0.30502 0.0
Co180 Co 0.9216 0.55499 0.54139 0.0
C181 C 0.96812 0.47331 0.47915 0.0
Co182 Co 0.85746 0.47052 0.45353 0.0
C183 C 0.94664 0.63481 0.70324 0.0
C184 C 0.02042 0.6872 0.59023 0.0
N185 N -0.02428 0.62598 0.62027 0.0
N186 N 0.96658 0.69767 0.72272 0.0
C187 C 0.01609 0.73156 0.65547 0.0
H188 H 0.90743 0.59535 0.74617 0.0
H189 H 0.05136 0.69922 0.52192 0.0
C190 C 0.80431 0.55193 0.50897 0.0
N191 N 0.79243 0.4061 0.37961 0.0
C192 C 0.78838 0.41201 0.27658 0.0
C193 C 0.73057 0.3829 0.41423 0.0
N194 N 0.7281 0.39763 0.24628 0.0
C195 C 0.69223 0.38139 0.33318 0.0
C196 C 0.84594 0.43597 0.66988 0.0
O197 O 0.85612 0.58295 0.56038 0.0
O198 O 0.79907 0.50502 0.45682 0.0
O199 O 0.8185 0.4151 0.5817 0.0
O200 O 0.89016 0.4964 0.67191 0.0
O201 O 0.91126 0.43526 0.44483 0.0
H202 H 0.71684 0.38048 0.49543 0.0
H203 H 0.82881 0.42518 0.2236 0.0
O204 O -0.01748 0.52761 0.52259 0.0
O205 O 0.95991 0.61072 0.41546 0.0
O206 O 0.90358 0.52357 0.32315 0.0
C207 C 0.95015 0.58299 0.32688 0.0
H208 H 0.04778 0.784 0.65589 0.0
H209 H 0.64141 0.3677 0.33512 0.0
Co210 Co 0.25961 0.88436 0.7709 0.0
C211 C 0.20169 0.77093 0.95419 0.0
Co212 Co 0.31393 0.82484 0.88265 0.0
C213 C 0.34334 0.00017 0.60373 0.0
C214 C 0.23943 0.95128 0.59879 0.0
N215 N 0.28796 0.95145 0.65408 0.0
N216 N 0.32992 0.02867 0.52015 0.0
C217 C 0.26404 -0.00352 0.51861 0.0
H218 H 0.39239 0.01157 0.6232 0.0
H219 H 0.18821 0.91831 0.61406 0.0
C220 C 0.39913 0.93613 0.80078 0.0
N221 N 0.37321 0.81508 0.97442 0.0
C222 C 0.38269 0.82504 1.07957 0.0
C223 C 0.42637 0.81251 0.94174 0.0
N224 N 0.4409 0.83226 0.1114 0.0
C225 C 0.46851 0.82497 1.02443 0.0
C226 C 0.29311 0.78265 0.69303 0.0
O227 O 0.35214 0.94581 0.79661 0.0
O228 O 0.38747 0.88055 0.81585 0.0
O229 O 0.30624 0.76579 0.78234 0.0
O230 O 0.27619 0.82675 0.68498 0.0
O231 O 0.2494 0.76291 0.95818 0.0
H232 H 0.43647 0.80697 0.86092 0.0
H233 H 0.35069 0.83336 0.12986 0.0
O234 O 0.20264 0.81054 0.884 0.0
O235 O 0.25389 0.93395 0.87134 0.0
O236 O 0.30802 0.89324 0.9705 0.0
C237 C 0.27627 0.92564 0.95957 0.0
H238 H 0.23474 0.0035 0.46051 0.0
H239 H 0.51583 0.8284 1.02093 0.0
Co240 Co 0.40007 0.36124 0.208 0.0
C241 C 0.48173 0.4894 0.14569 0.0
Co242 Co 0.48449 0.38147 0.12013 0.0
C243 C 0.32031 0.30655 0.36991 0.0
C244 C 0.26787 0.32779 0.25681 0.0
N245 N 0.3291 0.34443 0.2869 0.0
N246 N 0.25749 0.26354 0.38931 0.0
C247 C 0.22357 0.27908 0.32202 0.0
H248 H 0.35979 0.30688 0.4129 0.0
H249 H 0.25582 0.34666 0.18845 0.0
C250 C 0.40309 0.24694 0.17568 0.0
N251 N 0.54887 0.38079 1.04623 0.0
C252 C 0.54299 0.37087 0.94319 0.0
C253 C 0.57206 0.34211 1.08083 0.0
N254 N 0.55743 0.32499 0.91285 0.0
C255 C 0.57365 0.30533 0.99974 0.0
C256 C 0.51905 0.40453 0.33647 0.0
O257 O 0.37211 0.2678 0.22708 0.0
O258 O 0.44997 0.28858 0.12345 0.0
O259 O 0.53989 0.3979 0.24829 0.0
O260 O 0.45865 0.3884 0.33849 0.0
O261 O 0.51976 0.47054 0.11141 0.0
H262 H 0.57447 0.33078 0.16202 0.0
H263 H 0.52983 0.39815 0.89024 0.0
O264 O 0.42745 0.44953 0.18914 0.0
O265 O 0.34434 0.34379 1.08207 0.0
O266 O 0.43145 0.37454 0.98975 0.0
C267 C 0.37206 0.36173 0.99349 0.0
H268 H 0.17113 0.25823 0.32238 0.0
H269 H 0.58738 0.26822 1.00165 0.0
Co270 Co 0.07063 0.36974 0.43756 0.0
C271 C 0.18408 0.42527 0.62077 0.0
Co272 Co 0.13017 0.48362 0.54925 0.0
C273 C 0.95485 0.3377 0.2704 0.0
C274 C 0.00367 0.28259 0.26548 0.0
N275 N 0.00353 0.331 0.32075 0.0
N276 N 0.92633 0.29577 0.18683 0.0
C277 C 0.95848 0.26203 0.1853 0.0
H278 H 0.94348 0.3754 0.28985 0.0
H279 H 0.03661 0.2643 0.28074 0.0
C280 C 0.01889 0.45755 0.46751 0.0
N281 N 0.13995 0.55268 0.64102 0.0
C282 C 0.12999 0.5522 0.74617 0.0
C283 C 0.14251 0.60843 0.60836 0.0
N284 N 0.12276 0.6032 0.77802 0.0
C285 C 0.13006 0.63813 0.69106 0.0
C286 C 0.1723 0.50492 0.35961 0.0
O287 O 0.00922 0.40087 0.46327 0.0
O288 O 0.07446 0.50147 0.48252 0.0
O289 O 0.18916 0.53494 0.44889 0.0
O290 O 0.12821 0.4439 0.3516 0.0
O291 O 0.1921 0.48101 0.62472 0.0
H292 H 0.14805 0.62407 0.52754 0.0
H293 H 0.12166 0.51187 0.79644 0.0
O294 O 0.14447 0.38658 0.55063 0.0
O295 O 0.02107 0.31446 0.53803 0.0
O296 O 0.06181 0.40933 0.63716 0.0
C297 C 0.0294 0.34518 0.62625 0.0
H298 H 0.95144 0.22569 0.12721 0.0
H299 H 0.12661 0.68202 0.68758 0.0
Co300 Co 0.59379 0.03336 0.87475 0.0
C301 C 0.46566 -0.0131 0.81246 0.0
Co302 Co 0.57357 0.09758 0.7869 0.0
C303 C 0.64846 0.00827 1.03664 0.0
C304 C 0.62721 0.93456 0.92354 0.0
N305 N 0.6106 0.97919 0.95364 0.0
N306 N 0.69145 -0.01157 1.05604 0.0
C307 C 0.6759 0.93894 0.98876 0.0
H308 H 0.64814 0.04743 1.07963 0.0
H309 H 0.60835 0.90363 0.85519 0.0
C310 C 0.70807 0.15067 0.84241 0.0
N311 N 0.57425 0.16265 0.71299 0.0
C312 C 0.58413 0.16668 0.60994 0.0
C313 C 0.61294 0.22452 0.74756 0.0
N314 N 0.63001 0.22696 0.57956 0.0
C315 C 0.6497 0.26286 0.66645 0.0
C316 C 0.5505 0.10907 1.00323 0.0
O317 O 0.68722 0.09884 0.89383 0.0
O318 O 0.66645 0.15594 0.79021 0.0
O319 O 0.55715 0.13658 0.91508 0.0
O320 O 0.56662 0.06479 1.00524 0.0
O321 O 0.48451 0.0438 0.77819 0.0
H322 H 0.62431 0.23827 0.82875 0.0
H323 H 0.55684 0.12622 0.557 0.0
O324 O 0.50552 0.97246 0.85588 0.0
O325 O 0.61124 -0.00494 0.74882 0.0
O326 O 0.58049 0.05145 0.65653 0.0
C327 C 0.59331 0.00486 0.66025 0.0
H328 H 0.69674 0.90733 0.98912 0.0
H329 H 0.68683 0.3137 0.66833 0.0
Co330 Co 0.58524 0.69549 0.1041 0.0
C331 C 0.52972 0.75337 0.28741 0.0
Co332 Co 0.4714 0.64113 0.21583 0.0
C333 C 0.61731 0.61174 0.93693 0.0
C334 C 0.67234 0.71568 0.93197 0.0
N335 N 0.62398 0.66714 0.98727 0.0
N336 N 0.65923 0.62516 0.85334 0.0
C337 C 0.69292 0.69106 0.85179 0.0
H338 H 0.57966 0.56268 0.95641 0.0
H339 H 0.69059 0.76692 0.94723 0.0
C340 C 0.49748 0.55593 0.134 0.0
N341 N 0.40237 0.58183 0.30759 0.0
C342 C 0.40285 0.57236 0.41275 0.0
C343 C 0.34664 0.52865 0.27494 0.0
N344 N 0.35187 0.51413 0.4446 0.0
C345 C 0.31695 0.4865 0.35765 0.0
C346 C 0.45007 0.66199 1.02621 0.0
O347 O 0.55415 0.60294 0.12979 0.0
O348 O 0.45357 0.56758 0.14901 0.0
O349 O 0.42008 0.64884 0.11552 0.0
O350 O 0.51108 0.67892 1.01817 0.0
O351 O 0.47399 0.70566 0.29136 0.0
H352 H 0.331 0.51854 0.19412 0.0
H353 H 0.44316 0.60437 0.46302 0.0
O354 O 0.56838 0.75244 0.21724 0.0
O355 O 0.64052 0.70118 0.20454 0.0
O356 O 0.54569 0.64704 0.30369 0.0
C357 C 0.60982 0.67878 0.29277 0.0
H358 H 0.72923 0.72037 0.79368 0.0
H359 H 0.27307 0.43917 0.35417 0.0
loop_
_geom_bond_atom_site_label_1
_geom_bond_atom_site_label_2
_geom_bond_distance
_geom_bond_site_symmetry_2
_ccdc_geom_bond_type
Co0 N5 2.057 1_545 S
Co0 O17 2.021 . S
Co0 O20 2.062 . S
Co0 O24 2.117 . S
Co0 O25 2.020 . S
C1 O21 1.259 . S
C1 O24 1.258 . S
Co2 N11 2.057 . S
Co2 O18 2.117 . S
Co2 O19 2.020 . S
Co2 O21 2.021 . S
Co2 O26 2.062 . S
C3 N5 1.316 1_546 S
C3 N6 1.347 1_545 S
C3 H8 0.931 . S
C4 N5 1.375 1_556 S
C4 C7 1.350 . S
C4 H9 0.930 1_556 S
N5 Co0 2.057 1_565 S
N5 C3 1.316 1_564 S
N5 C4 1.375 1_554 S
N6 C3 1.347 1_565 S
N6 C7 1.373 . S
C7 C4 1.350 . S
C7 N6 1.373 . S
C7 H28 0.931 . S
H8 C3 0.931 . S
H9 C4 0.930 1_554 S
C10 O17 1.259 . S
C10 O18 1.258 . S
N11 Co2 2.057 . S
N11 C12 1.316 . S
N11 C13 1.375 . S
C12 N11 1.316 . S
C12 N14 1.347 . S
C12 H23 0.931 . S
C13 N11 1.375 . S
C13 C15 1.350 . S
C13 H22 0.930 . S
N14 C12 1.347 . S
N14 C15 1.373 . S
C15 C13 1.350 . S
C15 N14 1.373 . S
C15 H29 0.931 . S
C16 O19 1.256 . S
C16 O20 1.255 . S
O17 Co0 2.021 . S
O17 C10 1.259 . S
O18 Co2 2.117 . S
O18 C10 1.258 . S
O19 Co2 2.020 . S
O19 C16 1.256 . S
O20 Co0 2.062 . S
O20 C16 1.255 . S
O21 C1 1.259 . S
O21 Co2 2.021 . S
H22 C13 0.930 . S
H23 C12 0.931 . S
O24 Co0 2.117 . S
O24 C1 1.258 . S
O25 Co0 2.020 . S
O25 C27 1.256 . S
O26 Co2 2.062 . S
O26 C27 1.255 . S
C27 O25 1.256 . S
C27 O26 1.255 . S
H28 C7 0.931 . S
H29 C15 0.931 . S
Co30 N35 2.057 . S
Co30 O47 2.021 . S
Co30 O50 2.062 . S
Co30 O54 2.117 . S
Co30 O55 2.020 . S
C31 O51 1.259 . S
C31 O54 1.258 . S
Co32 N41 2.057 . S
Co32 O48 2.117 . S
Co32 O49 2.020 . S
Co32 O51 2.021 . S
Co32 O56 2.062 . S
C33 N35 1.316 . S
C33 N36 1.347 . S
C33 H38 0.931 . S
C34 N35 1.375 . S
C34 C37 1.350 . S
C34 H39 0.930 . S
N35 Co30 2.057 . S
N35 C33 1.316 . S
N35 C34 1.375 . S
N36 C33 1.347 . S
N36 C37 1.373 . S
C37 C34 1.350 . S
C37 N36 1.373 . S
C37 H58 0.931 . S
H38 C33 0.931 . S
H39 C34 0.930 . S
C40 O47 1.259 . S
C40 O48 1.258 . S
N41 Co32 2.057 . S
N41 C42 1.316 . S
N41 C43 1.375 . S
C42 N41 1.316 . S
C42 N44 1.347 . S
C42 H53 0.931 . S
C43 N41 1.375 . S
C43 C45 1.350 . S
C43 H52 0.930 . S
N44 C42 1.347 . S
N44 C45 1.373 . S
C45 C43 1.350 . S
C45 N44 1.373 . S
C45 H59 0.931 . S
C46 O49 1.256 . S
C46 O50 1.255 . S
O47 Co30 2.021 . S
O47 C40 1.259 . S
O48 Co32 2.117 . S
O48 C40 1.258 . S
O49 Co32 2.020 . S
O49 C46 1.256 . S
O50 Co30 2.062 . S
O50 C46 1.255 . S
O51 C31 1.259 . S
O51 Co32 2.021 . S
H52 C43 0.930 . S
H53 C42 0.931 . S
O54 Co30 2.117 . S
O54 C31 1.258 . S
O55 Co30 2.020 . S
O55 C57 1.256 . S
O56 Co32 2.062 . S
O56 C57 1.255 . S
C57 O55 1.256 . S
C57 O56 1.255 . S
H58 C37 0.931 . S
H59 C45 0.931 . S
Co60 N65 2.057 1_655 S
Co60 O77 2.021 . S
Co60 O80 2.062 . S
Co60 O84 2.117 . S
Co60 O85 2.020 . S
C61 O81 1.259 . S
C61 O84 1.258 . S
Co62 N71 2.057 . S
Co62 O78 2.117 . S
Co62 O79 2.020 . S
Co62 O81 2.021 . S
Co62 O86 2.062 . S
C63 N65 1.316 1_655 S
C63 N66 1.347 1_655 S
C63 H68 0.931 . S
C64 N65 1.375 . S
C64 C67 1.350 . S
C64 H69 0.930 . S
N65 Co60 2.057 1_455 S
N65 C63 1.316 1_455 S
N65 C64 1.375 . S
N66 C63 1.347 1_455 S
N66 C67 1.373 . S
C67 C64 1.350 . S
C67 N66 1.373 . S
C67 H88 0.931 . S
H68 C63 0.931 . S
H69 C64 0.930 . S
C70 O77 1.259 . S
C70 O78 1.258 . S
N71 Co62 2.057 . S
N71 C72 1.316 1_556 S
N71 C73 1.375 . S
C72 N71 1.316 1_554 S
C72 N74 1.347 . S
C72 H83 0.931 . S
C73 N71 1.375 . S
C73 C75 1.350 1_556 S
C73 H82 0.930 . S
N74 C72 1.347 . S
N74 C75 1.373 . S
C75 C73 1.350 1_554 S
C75 N74 1.373 . S
C75 H89 0.931 . S
C76 O79 1.256 . S
C76 O80 1.255 . S
O77 Co60 2.021 . S
O77 C70 1.259 . S
O78 Co62 2.117 . S
O78 C70 1.258 . S
O79 Co62 2.020 . S
O79 C76 1.256 . S
O80 Co60 2.062 . S
O80 C76 1.255 . S
O81 C61 1.259 . S
O81 Co62 2.021 . S
H82 C73 0.930 . S
H83 C72 0.931 . S
O84 Co60 2.117 . S
O84 C61 1.258 . S
O85 Co60 2.020 . S
O85 C87 1.256 . S
O86 Co62 2.062 . S
O86 C87 1.255 . S
C87 O85 1.256 . S
C87 O86 1.255 . S
H88 C67 0.931 . S
H89 C75 0.931 . S
Co90 N95 2.057 . S
Co90 O107 2.021 . S
Co90 O110 2.062 . S
Co90 O114 2.117 . S
Co90 O115 2.020 . S
C91 O111 1.259 . S
C91 O114 1.258 . S
Co92 N101 2.057 . S
Co92 O108 2.117 . S
Co92 O109 2.020 . S
Co92 O111 2.021 . S
Co92 O116 2.062 . S
C93 N95 1.316 . S
C93 N96 1.347 1_565 S
C93 H98 0.931 . S
C94 N95 1.375 1_545 S
C94 C97 1.350 . S
C94 H99 0.930 . S
N95 Co90 2.057 . S
N95 C93 1.316 . S
N95 C94 1.375 1_565 S
N96 C93 1.347 1_545 S
N96 C97 1.373 . S
C97 C94 1.350 . S
C97 N96 1.373 . S
C97 H118 0.931 . S
H98 C93 0.931 . S
H99 C94 0.930 . S
C100 O107 1.259 . S
C100 O108 1.258 . S
N101 Co92 2.057 . S
N101 C102 1.316 . S
N101 C103 1.375 . S
C102 N101 1.316 . S
C102 N104 1.347 . S
C102 H113 0.931 . S
C103 N101 1.375 . S
C103 C105 1.350 . S
C103 H112 0.930 . S
N104 C102 1.347 . S
N104 C105 1.373 . S
C105 C103 1.350 . S
C105 N104 1.373 . S
C105 H119 0.931 . S
C106 O109 1.256 . S
C106 O110 1.255 . S
O107 Co90 2.021 . S
O107 C100 1.259 . S
O108 Co92 2.117 . S
O108 C100 1.258 . S
O109 Co92 2.020 . S
O109 C106 1.256 . S
O110 Co90 2.062 . S
O110 C106 1.255 . S
O111 C91 1.259 . S
O111 Co92 2.021 . S
H112 C103 0.930 . S
H113 C102 0.931 . S
O114 Co90 2.117 . S
O114 C91 1.258 . S
O115 Co90 2.020 . S
O115 C117 1.256 . S
O116 Co92 2.062 . S
O116 C117 1.255 . S
C117 O115 1.256 . S
C117 O116 1.255 . S
H118 C97 0.931 . S
H119 C105 0.931 . S
Co120 N125 2.057 . S
Co120 O137 2.021 . S
Co120 O140 2.062 . S
Co120 O144 2.117 . S
Co120 O145 2.020 . S
C121 O141 1.259 . S
C121 O144 1.258 . S
Co122 N131 2.057 . S
Co122 O138 2.117 . S
Co122 O139 2.020 . S
Co122 O141 2.021 . S
Co122 O146 2.062 . S
C123 N125 1.316 . S
C123 N126 1.347 . S
C123 H128 0.931 . S
C124 N125 1.375 . S
C124 C127 1.350 . S
C124 H129 0.930 . S
N125 Co120 2.057 . S
N125 C123 1.316 . S
N125 C124 1.375 . S
N126 C123 1.347 . S
N126 C127 1.373 . S
C127 C124 1.350 . S
C127 N126 1.373 . S
C127 H148 0.931 . S
H128 C123 0.931 . S
H129 C124 0.930 . S
C130 O137 1.259 . S
C130 O138 1.258 . S
N131 Co122 2.057 . S
N131 C132 1.316 . S
N131 C133 1.375 . S
C132 N131 1.316 . S
C132 N134 1.347 . S
C132 H143 0.931 . S
C133 N131 1.375 . S
C133 C135 1.350 . S
C133 H142 0.930 . S
N134 C132 1.347 . S
N134 C135 1.373 . S
C135 C133 1.350 . S
C135 N134 1.373 . S
C135 H149 0.931 . S
C136 O139 1.256 . S
C136 O140 1.255 . S
O137 Co120 2.021 . S
O137 C130 1.259 . S
O138 Co122 2.117 . S
O138 C130 1.258 . S
O139 Co122 2.020 . S
O139 C136 1.256 . S
O140 Co120 2.062 . S
O140 C136 1.255 . S
O141 C121 1.259 . S
O141 Co122 2.021 . S
H142 C133 0.930 . S
H143 C132 0.931 . S
O144 Co120 2.117 . S
O144 C121 1.258 . S
O145 Co120 2.020 . S
O145 C147 1.256 . S
O146 Co122 2.062 . S
O146 C147 1.255 . S
C147 O145 1.256 . S
C147 O146 1.255 . S
H148 C127 0.931 . S
H149 C135 0.931 . S
Co150 N155 2.057 . S
Co150 O167 2.021 . S
Co150 O170 2.062 . S
Co150 O174 2.117 . S
Co150 O175 2.020 1_556 S
C151 O171 1.259 1_556 S
C151 O174 1.258 . S
Co152 N161 2.057 . S
Co152 O168 2.117 . S
Co152 O169 2.020 1_554 S
Co152 O171 2.021 . S
Co152 O176 2.062 . S
C153 N155 1.316 . S
C153 N156 1.347 1_455 S
C153 H158 0.931 . S
C154 N155 1.375 1_655 S
C154 C157 1.350 . S
C154 H159 0.930 . S
N155 Co150 2.057 . S
N155 C153 1.316 . S
N155 C154 1.375 1_455 S
N156 C153 1.347 1_655 S
N156 C157 1.373 . S
C157 C154 1.350 . S
C157 N156 1.373 . S
C157 H178 0.931 . S
H158 C153 0.931 . S
H159 C154 0.930 . S
C160 O167 1.259 . S
C160 O168 1.258 1_556 S
N161 Co152 2.057 . S
N161 C162 1.316 . S
N161 C163 1.375 . S
C162 N161 1.316 . S
C162 N164 1.347 . S
C162 H173 0.931 . S
C163 N161 1.375 . S
C163 C165 1.350 . S
C163 H172 0.930 . S
N164 C162 1.347 . S
N164 C165 1.373 . S
C165 C163 1.350 . S
C165 N164 1.373 . S
C165 H179 0.931 . S
C166 O169 1.256 . S
C166 O170 1.255 . S
O167 Co150 2.021 . S
O167 C160 1.259 . S
O168 Co152 2.117 . S
O168 C160 1.258 1_554 S
O169 Co152 2.020 1_556 S
O169 C166 1.256 . S
O170 Co150 2.062 . S
O170 C166 1.255 . S
O171 C151 1.259 1_554 S
O171 Co152 2.021 . S
H172 C163 0.930 . S
H173 C162 0.931 . S
O174 Co150 2.117 . S
O174 C151 1.258 . S
O175 Co150 2.020 1_554 S
O175 C177 1.256 . S
O176 Co152 2.062 . S
O176 C177 1.255 . S
C177 O175 1.256 . S
C177 O176 1.255 . S
H178 C157 0.931 . S
H179 C165 0.931 . S
Co180 N185 2.057 . S
Co180 O197 2.021 . S
Co180 O200 2.062 . S
Co180 O204 2.117 . S
Co180 O205 2.020 . S
C181 O201 1.259 . S
C181 O204 1.258 . S
Co182 N191 2.057 . S
Co182 O198 2.117 . S
Co182 O199 2.020 . S
Co182 O201 2.021 . S
Co182 O206 2.062 . S
C183 N185 1.316 . S
C183 N186 1.347 1_655 S
C183 H188 0.931 . S
C184 N185 1.375 1_455 S
C184 C187 1.350 . S
C184 H189 0.930 . S
N185 Co180 2.057 . S
N185 C183 1.316 . S
N185 C184 1.375 1_655 S
N186 C183 1.347 1_455 S
N186 C187 1.373 . S
C187 C184 1.350 . S
C187 N186 1.373 . S
C187 H208 0.931 . S
H188 C183 0.931 . S
H189 C184 0.930 . S
C190 O197 1.259 . S
C190 O198 1.258 . S
N191 Co182 2.057 . S
N191 C192 1.316 . S
N191 C193 1.375 . S
C192 N191 1.316 . S
C192 N194 1.347 . S
C192 H203 0.931 . S
C193 N191 1.375 . S
C193 C195 1.350 . S
C193 H202 0.930 . S
N194 C192 1.347 . S
N194 C195 1.373 . S
C195 C193 1.350 . S
C195 N194 1.373 . S
C195 H209 0.931 . S
C196 O199 1.256 . S
C196 O200 1.255 . S
O197 Co180 2.021 . S
O197 C190 1.259 . S
O198 Co182 2.117 . S
O198 C190 1.258 . S
O199 Co182 2.020 . S
O199 C196 1.256 . S
O200 Co180 2.062 . S
O200 C196 1.255 . S
O201 C181 1.259 . S
O201 Co182 2.021 . S
H202 C193 0.930 . S
H203 C192 0.931 . S
O204 Co180 2.117 . S
O204 C181 1.258 . S
O205 Co180 2.020 . S
O205 C207 1.256 . S
O206 Co182 2.062 . S
O206 C207 1.255 . S
C207 O205 1.256 . S
C207 O206 1.255 . S
H208 C187 0.931 . S
H209 C195 0.931 . S
Co210 N215 2.057 . S
Co210 O227 2.021 . S
Co210 O230 2.062 . S
Co210 O234 2.117 . S
Co210 O235 2.020 . S
C211 O231 1.259 . S
C211 O234 1.258 . S
Co212 N221 2.057 . S
Co212 O228 2.117 . S
Co212 O229 2.020 . S
Co212 O231 2.021 . S
Co212 O236 2.062 . S
C213 N215 1.316 . S
C213 N216 1.347 . S
C213 H218 0.931 1_565 S
C214 N215 1.375 . S
C214 C217 1.350 . S
C214 H219 0.930 . S
N215 Co210 2.057 . S
N215 C213 1.316 . S
N215 C214 1.375 . S
N216 C213 1.347 . S
N216 C217 1.373 . S
C217 C214 1.350 . S
C217 N216 1.373 . S
C217 H238 0.931 . S
H218 C213 0.931 1_545 S
H219 C214 0.930 . S
C220 O227 1.259 . S
C220 O228 1.258 . S
N221 Co212 2.057 . S
N221 C222 1.316 . S
N221 C223 1.375 . S
C222 N221 1.316 . S
C222 N224 1.347 1_556 S
C222 H233 0.931 . S
C223 N221 1.375 . S
C223 C225 1.350 1_556 S
C223 H232 0.930 . S
N224 C222 1.347 1_554 S
N224 C225 1.373 . S
C225 C223 1.350 1_554 S
C225 N224 1.373 . S
C225 H239 0.931 . S
C226 O229 1.256 . S
C226 O230 1.255 . S
O227 Co210 2.021 . S
O227 C220 1.259 . S
O228 Co212 2.117 . S
O228 C220 1.258 . S
O229 Co212 2.020 . S
O229 C226 1.256 . S
O230 Co210 2.062 . S
O230 C226 1.255 . S
O231 C211 1.259 . S
O231 Co212 2.021 . S
H232 C223 0.930 . S
H233 C222 0.931 . S
O234 Co210 2.117 . S
O234 C211 1.258 . S
O235 Co210 2.020 . S
O235 C237 1.256 . S
O236 Co212 2.062 . S
O236 C237 1.255 . S
C237 O235 1.256 . S
C237 O236 1.255 . S
H238 C217 0.931 . S
H239 C225 0.931 . S
Co240 N245 2.057 . S
Co240 O257 2.021 . S
Co240 O260 2.062 . S
Co240 O264 2.117 . S
Co240 O265 2.020 . S
C241 O261 1.259 . S
C241 O264 1.258 . S
Co242 N251 2.057 1_554 S
Co242 O258 2.117 . S
Co242 O259 2.020 . S
Co242 O261 2.021 . S
Co242 O266 2.062 1_554 S
C243 N245 1.316 . S
C243 N246 1.347 . S
C243 H248 0.931 . S
C244 N245 1.375 . S
C244 C247 1.350 . S
C244 H249 0.930 . S
N245 Co240 2.057 . S
N245 C243 1.316 . S
N245 C244 1.375 . S
N246 C243 1.347 . S
N246 C247 1.373 . S
C247 C244 1.350 . S
C247 N246 1.373 . S
C247 H268 0.931 . S
H248 C243 0.931 . S
H249 C244 0.930 . S
C250 O257 1.259 . S
C250 O258 1.258 . S
N251 Co242 2.057 1_556 S
N251 C252 1.316 . S
N251 C253 1.375 . S
C252 N251 1.316 . S
C252 N254 1.347 . S
C252 H263 0.931 . S
C253 N251 1.375 . S
C253 C255 1.350 . S
C253 H262 0.930 . S
N254 C252 1.347 . S
N254 C255 1.373 . S
C255 C253 1.350 . S
C255 N254 1.373 . S
C255 H269 0.931 . S
C256 O259 1.256 . S
C256 O260 1.255 . S
O257 Co240 2.021 . S
O257 C250 1.259 . S
O258 Co242 2.117 . S
O258 C250 1.258 . S
O259 Co242 2.020 . S
O259 C256 1.256 . S
O260 Co240 2.062 . S
O260 C256 1.255 . S
O261 C241 1.259 . S
O261 Co242 2.021 . S
H262 C253 0.930 . S
H263 C252 0.931 . S
O264 Co240 2.117 . S
O264 C241 1.258 . S
O265 Co240 2.020 . S
O265 C267 1.256 1_554 S
O266 Co242 2.062 1_556 S
O266 C267 1.255 . S
C267 O265 1.256 1_556 S
C267 O266 1.255 . S
H268 C247 0.931 . S
H269 C255 0.931 . S
Co270 N275 2.057 . S
Co270 O287 2.021 . S
Co270 O290 2.062 . S
Co270 O294 2.117 . S
Co270 O295 2.020 . S
C271 O291 1.259 . S
C271 O294 1.258 . S
Co272 N281 2.057 . S
Co272 O288 2.117 . S
Co272 O289 2.020 . S
Co272 O291 2.021 . S
Co272 O296 2.062 . S
C273 N275 1.316 . S
C273 N276 1.347 . S
C273 H278 0.931 1_455 S
C274 N275 1.375 . S
C274 C277 1.350 . S
C274 H279 0.930 . S
N275 Co270 2.057 . S
N275 C273 1.316 . S
N275 C274 1.375 . S
N276 C273 1.347 . S
N276 C277 1.373 . S
C277 C274 1.350 . S
C277 N276 1.373 . S
C277 H298 0.931 . S
H278 C273 0.931 1_655 S
H279 C274 0.930 . S
C280 O287 1.259 . S
C280 O288 1.258 . S
N281 Co272 2.057 . S
N281 C282 1.316 . S
N281 C283 1.375 . S
C282 N281 1.316 . S
C282 N284 1.347 . S
C282 H293 0.931 . S
C283 N281 1.375 . S
C283 C285 1.350 . S
C283 H292 0.930 . S
N284 C282 1.347 . S
N284 C285 1.373 . S
C285 C283 1.350 . S
C285 N284 1.373 . S
C285 H299 0.931 . S
C286 O289 1.256 . S
C286 O290 1.255 . S
O287 Co270 2.021 . S
O287 C280 1.259 . S
O288 Co272 2.117 . S
O288 C280 1.258 . S
O289 Co272 2.020 . S
O289 C286 1.256 . S
O290 Co270 2.062 . S
O290 C286 1.255 . S
O291 C271 1.259 . S
O291 Co272 2.021 . S
H292 C283 0.930 . S
H293 C282 0.931 . S
O294 Co270 2.117 . S
O294 C271 1.258 . S
O295 Co270 2.020 . S
O295 C297 1.256 . S
O296 Co272 2.062 . S
O296 C297 1.255 . S
C297 O295 1.256 . S
C297 O296 1.255 . S
H298 C277 0.931 . S
H299 C285 0.931 . S
Co300 N305 2.057 . S
Co300 O317 2.021 . S
Co300 O320 2.062 . S
Co300 O324 2.117 . S
Co300 O325 2.020 . S
C301 O321 1.259 . S
C301 O324 1.258 . S
Co302 N311 2.057 . S
Co302 O318 2.117 . S
Co302 O319 2.020 . S
Co302 O321 2.021 . S
Co302 O326 2.062 . S
C303 N305 1.316 . S
C303 N306 1.347 1_546 S
C303 H308 0.931 . S
C304 N305 1.375 1_565 S
C304 C307 1.349 1_556 S
C304 H309 0.930 . S
N305 Co300 2.057 . S
N305 C303 1.316 . S
N305 C304 1.375 1_545 S
N306 C303 1.347 1_564 S
N306 C307 1.374 . S
C307 C304 1.349 1_554 S
C307 N306 1.374 . S
C307 H328 0.931 . S
H308 C303 0.931 . S
H309 C304 0.930 . S
C310 O317 1.259 . S
C310 O318 1.258 . S
N311 Co302 2.057 . S
N311 C312 1.316 . S
N311 C313 1.375 . S
C312 N311 1.316 . S
C312 N314 1.347 . S
C312 H323 0.931 . S
C313 N311 1.375 . S
C313 C315 1.350 . S
C313 H322 0.930 . S
N314 C312 1.347 . S
N314 C315 1.373 . S
C315 C313 1.350 . S
C315 N314 1.373 . S
C315 H329 0.931 . S
C316 O319 1.256 . S
C316 O320 1.255 . S
O317 Co300 2.021 . S
O317 C310 1.259 . S
O318 Co302 2.117 . S
O318 C310 1.258 . S
O319 Co302 2.020 . S
O319 C316 1.256 . S
O320 Co300 2.062 . S
O320 C316 1.255 . S
O321 C301 1.259 . S
O321 Co302 2.021 . S
H322 C313 0.930 . S
H323 C312 0.931 . S
O324 Co300 2.117 . S
O324 C301 1.258 . S
O325 Co300 2.020 . S
O325 C327 1.256 . S
O326 Co302 2.062 . S
O326 C327 1.255 . S
C327 O325 1.256 . S
C327 O326 1.255 . S
H328 C307 0.931 . S
H329 C315 0.931 . S
Co330 N335 2.057 1_554 S
Co330 O347 2.021 . S
Co330 O350 2.062 1_554 S
Co330 O354 2.117 . S
Co330 O355 2.020 . S
C331 O351 1.259 . S
C331 O354 1.258 . S
Co332 N341 2.057 . S
Co332 O348 2.117 . S
Co332 O349 2.020 . S
Co332 O351 2.021 . S
Co332 O356 2.062 . S
C333 N335 1.316 . S
C333 N336 1.347 . S
C333 H338 0.931 . S
C334 N335 1.375 . S
C334 C337 1.350 . S
C334 H339 0.930 . S
N335 Co330 2.057 1_556 S
N335 C333 1.316 . S
N335 C334 1.375 . S
N336 C333 1.347 . S
N336 C337 1.373 . S
C337 C334 1.350 . S
C337 N336 1.373 . S
C337 H358 0.931 . S
H338 C333 0.931 . S
H339 C334 0.930 . S
C340 O347 1.259 . S
C340 O348 1.258 . S
N341 Co332 2.057 . S
N341 C342 1.316 . S
N341 C343 1.375 . S
C342 N341 1.316 . S
C342 N344 1.347 . S
C342 H353 0.931 . S
C343 N341 1.375 . S
C343 C345 1.350 . S
C343 H352 0.930 . S
N344 C342 1.347 . S
N344 C345 1.373 . S
C345 C343 1.350 . S
C345 N344 1.373 . S
C345 H359 0.931 . S
C346 O349 1.256 1_556 S
C346 O350 1.255 . S
O347 Co330 2.021 . S
O347 C340 1.259 . S
O348 Co332 2.117 . S
O348 C340 1.258 . S
O349 Co332 2.020 . S
O349 C346 1.256 1_554 S
O350 Co330 2.062 1_556 S
O350 C346 1.255 . S
O351 C331 1.259 . S
O351 Co332 2.021 . S
H352 C343 0.930 . S
H353 C342 0.931 . S
O354 Co330 2.117 . S
O354 C331 1.258 . S
O355 Co330 2.020 . S
O355 C357 1.256 . S
O356 Co332 2.062 . S
O356 C357 1.255 . S
C357 O355 1.256 . S
C357 O356 1.255 . S
H358 C337 0.931 . S
H359 C345 0.931 . S
C10 C250 0.712 . S
C40 C271 2.700 . S
C70 C310 0.711 . S
C331 C100 2.699 . S
C130 C190 0.711 . S
C211 C160 2.699 . S
C316 C16 3.373 1_556 S
N344 C46 2.207 . S
C76 C196 3.373 . S
N224 C106 2.207 . S
C256 C136 3.373 . S
C166 N284 2.207 . S
C237 N6 1.151 . S
N246 N36 0.554 . S
C297 N66 1.151 . S
N96 N306 0.555 1_545 S
N126 C357 1.151 . S
N156 N186 0.555 1_655 S
C1 C91 2.363 1_545 S
C31 C121 2.363 . S
C61 C151 2.363 1_655 S
C280 C181 1.630 1_455 S
C220 C301 1.630 1_565 S
C340 C241 1.631 . S
N216 C27 3.500 1_565 S
C267 C57 3.537 . S
C87 N276 3.500 1_656 S
C327 C117 3.536 1_545 S
N336 C147 3.499 . S
C177 C207 3.536 1_455 S
N14 N314 0.371 . S
N44 C346 1.824 . S
N74 N194 0.370 . S
N104 C226 1.824 . S
N134 N254 0.370 . S
C286 N164 1.824 . S
