# Generated by pormake.
# Topology unp, (4)-cn, num edge types: 1
# Building blocks:
#     Node 0, Type 0, BuildingBlock: QUQFOY_clean_sbu_1, # of connection points: 4
#     Node 1, Type 0, BuildingBlock: QUQFOY_clean_sbu_1, # of connection points: 4
#     Node 2, Type 0, BuildingBlock: QUQFOY_clean_sbu_1, # of connection points: 4
#     Node 3, Type 0, BuildingBlock: QUQFOY_clean_sbu_1, # of connection points: 4
#     Node 4, Type 0, BuildingBlock: QUQFOY_clean_sbu_1, # of connection points: 4
#     Node 5, Type 0, BuildingBlock: QUQFOY_clean_sbu_1, # of connection points: 4
#     Node 6, Type 0, BuildingBlock: QUQFOY_clean_sbu_1, # of connection points: 4
#     Node 7, Type 0, BuildingBlock: QUQFOY_clean_sbu_1, # of connection points: 4
#     Node 8, Type 0, BuildingBlock: QUQFOY_clean_sbu_1, # of connection points: 4
#     Node 9, Type 0, BuildingBlock: QUQFOY_clean_sbu_1, # of connection points: 4
#     Node 10, Type 0, BuildingBlock: QUQFOY_clean_sbu_1, # of connection points: 4
#     Node 11, Type 0, BuildingBlock: QUQFOY_clean_sbu_1, # of connection points: 4
#     Node 12, Type 0, BuildingBlock: QUQFOY_clean_sbu_1, # of connection points: 4
#     Node 13, Type 0, BuildingBlock: QUQFOY_clean_sbu_1, # of connection points: 4
#     Node 14, Type 0, BuildingBlock: QUQFOY_clean_sbu_1, # of connection points: 4
#     Node 15, Type 0, BuildingBlock: QUQFOY_clean_sbu_1, # of connection points: 4
#     Node 16, Type 0, BuildingBlock: QUQFOY_clean_sbu_1, # of connection points: 4
#     Node 17, Type 0, BuildingBlock: QUQFOY_clean_sbu_1, # of connection points: 4
#     Edge 18, Type (0, 0), BuildingBlock: CIFDUS_clean_linker_0, # of connection points: 2
#     Edge 19, Type (0, 0), BuildingBlock: CIFDUS_clean_linker_0, # of connection points: 2
#     Edge 20, Type (0, 0), BuildingBlock: CIFDUS_clean_linker_0, # of connection points: 2
#     Edge 21, Type (0, 0), BuildingBlock: CIFDUS_clean_linker_0, # of connection points: 2
#     Edge 22, Type (0, 0), BuildingBlock: CIFDUS_clean_linker_0, # of connection points: 2
#     Edge 23, Type (0, 0), BuildingBlock: CIFDUS_clean_linker_0, # of connection points: 2
#     Edge 24, Type (0, 0), BuildingBlock: CIFDUS_clean_linker_0, # of connection points: 2
#     Edge 25, Type (0, 0), BuildingBlock: CIFDUS_clean_linker_0, # of connection points: 2
#     Edge 26, Type (0, 0), BuildingBlock: CIFDUS_clean_linker_0, # of connection points: 2
#     Edge 27, Type (0, 0), BuildingBlock: CIFDUS_clean_linker_0, # of connection points: 2
#     Edge 28, Type (0, 0), BuildingBlock: CIFDUS_clean_linker_0, # of connection points: 2
#     Edge 29, Type (0, 0), BuildingBlock: CIFDUS_clean_linker_0, # of connection points: 2
#     Edge 30, Type (0, 0), BuildingBlock: CIFDUS_clean_linker_0, # of connection points: 2
#     Edge 31, Type (0, 0), BuildingBlock: CIFDUS_clean_linker_0, # of connection points: 2
#     Edge 32, Type (0, 0), BuildingBlock: CIFDUS_clean_linker_0, # of connection points: 2
#     Edge 33, Type (0, 0), BuildingBlock: CIFDUS_clean_linker_0, # of connection points: 2
#     Edge 34, Type (0, 0), BuildingBlock: CIFDUS_clean_linker_0, # of connection points: 2
#     Edge 35, Type (0, 0), BuildingBlock: CIFDUS_clean_linker_0, # of connection points: 2
#     Edge 36, Type (0, 0), BuildingBlock: CIFDUS_clean_linker_0, # of connection points: 2
#     Edge 37, Type (0, 0), BuildingBlock: CIFDUS_clean_linker_0, # of connection points: 2
#     Edge 38, Type (0, 0), BuildingBlock: CIFDUS_clean_linker_0, # of connection points: 2
#     Edge 39, Type (0, 0), BuildingBlock: CIFDUS_clean_linker_0, # of connection points: 2
#     Edge 40, Type (0, 0), BuildingBlock: CIFDUS_clean_linker_0, # of connection points: 2
#     Edge 41, Type (0, 0), BuildingBlock: CIFDUS_clean_linker_0, # of connection points: 2
#     Edge 42, Type (0, 0), BuildingBlock: CIFDUS_clean_linker_0, # of connection points: 2
#     Edge 43, Type (0, 0), BuildingBlock: CIFDUS_clean_linker_0, # of connection points: 2
#     Edge 44, Type (0, 0), BuildingBlock: CIFDUS_clean_linker_0, # of connection points: 2
#     Edge 45, Type (0, 0), BuildingBlock: CIFDUS_clean_linker_0, # of connection points: 2
#     Edge 46, Type (0, 0), BuildingBlock: CIFDUS_clean_linker_0, # of connection points: 2
#     Edge 47, Type (0, 0), BuildingBlock: CIFDUS_clean_linker_0, # of connection points: 2
#     Edge 48, Type (0, 0), BuildingBlock: CIFDUS_clean_linker_0, # of connection points: 2
#     Edge 49, Type (0, 0), BuildingBlock: CIFDUS_clean_linker_0, # of connection points: 2
#     Edge 50, Type (0, 0), BuildingBlock: CIFDUS_clean_linker_0, # of connection points: 2
#     Edge 51, Type (0, 0), BuildingBlock: CIFDUS_clean_linker_0, # of connection points: 2
#     Edge 52, Type (0, 0), BuildingBlock: CIFDUS_clean_linker_0, # of connection points: 2
#     Edge 53, Type (0, 0), BuildingBlock: CIFDUS_clean_linker_0, # of connection points: 2
# Relax obj value: 0.369
# Max RMSD: 0.181
# Mean RMSD: 0.181
data_MOF--net-unp--node1-QUQFOY_clean_sbu_1--edge1-CIFDUS_clean_linker_0
_symmetry_space_group_name_H-M    P1
_symmetry_Int_Tables_number       1
_symmetry_cell_setting            triclinic
loop_
_symmetry_equiv_pos_as_xyz
'x, y, z'
_cell_length_a     42.520665
_cell_length_b     42.539976
_cell_length_c     64.654146
_cell_angle_alpha  89.980782
_cell_angle_beta   90.020166
_cell_angle_gamma 120.03444
loop_
_atom_site_label
_atom_site_type_symbol
_atom_site_fract_x
_atom_site_fract_y
_atom_site_fract_z
_atom_type_partial_charge
O0 O 0.17015 0.11542 0.13312 0.0
Cd1 Cd 0.17755 0.16693 0.13369 0.0
Cd2 Cd 0.16922 0.16036 0.09062 0.0
O3 O 0.17122 0.11439 0.09907 0.0
O4 O 0.21146 0.19523 0.15626 0.0
O5 O 0.22448 0.20685 0.12285 0.0
C6 C 0.23461 0.21402 0.14198 0.0
C7 C 0.1807 0.1715 0.05487 0.0
C8 C 0.16962 0.09954 0.1164 0.0
C9 C 0.11363 0.16828 0.11768 0.0
O10 O 0.12501 0.16482 0.1001 0.0
O11 O 0.13129 0.17063 0.134 0.0
O12 O 0.15229 0.14365 0.062 0.0
O13 O 0.20327 0.19434 0.06808 0.0
O14 O 0.88366 0.04434 0.1437 0.0
Cd15 Cd 0.83157 0.0025 0.13918 0.0
Cd16 Cd 0.84811 0.01213 0.097 0.0
O17 O 0.89223 0.05662 0.1104 0.0
O18 O 0.7986 0.0044 0.16012 0.0
O19 O 0.79639 0.0148 0.12659 0.0
C20 C 0.78452 0.01353 0.14519 0.0
C21 C 0.8454 0.02167 0.06124 0.0
C22 C 0.90336 0.06409 0.12897 0.0
C23 C 0.83188 0.94102 0.11911 0.0
O24 O 0.84054 0.96091 0.10304 0.0
O25 O 0.82551 0.95185 0.13606 0.0
O26 O 0.87145 0.01914 0.0695 0.0
O27 O 0.8197 0.01836 0.07323 0.0
O28 O 0.95014 0.82995 0.14368 0.0
Cd29 Cd 0.99425 0.82278 0.14139 0.0
Cd30 Cd 0.9941 0.84008 0.09891 0.0
O31 O 0.94632 0.83561 0.11002 0.0
O32 O 0.98943 0.78658 0.16225 0.0
O33 O 0.98708 0.77722 0.12834 0.0
C34 C 0.98473 0.76507 0.14697 0.0
C35 C 0.99386 0.83897 0.06232 0.0
C36 C 0.93396 0.83362 0.12818 0.0
C37 C 0.05861 0.88978 0.12768 0.0
O38 O 0.04296 0.8818 0.11014 0.0
O39 O 0.04413 0.86895 0.1431 0.0
O40 O 0.99472 0.86496 0.07279 0.0
O41 O 0.99326 0.81268 0.07256 0.0
O42 O 0.10746 0.16625 0.85633 0.0
Cd43 Cd 0.15805 0.17215 0.85211 0.0
Cd44 Cd 0.15377 0.15732 0.89616 0.0
O45 O 0.10839 0.16205 0.89033 0.0
O46 O 0.18097 0.20379 0.82774 0.0
O47 O 0.20175 0.2193 0.8598 0.0
C48 C 0.20423 0.22759 0.84037 0.0
C49 C 0.16368 0.15744 0.93217 0.0
C50 C 0.09287 0.16361 0.87386 0.0
C51 C 0.15869 0.10566 0.86387 0.0
O52 O 0.15731 0.11526 0.88232 0.0
O53 O 0.15976 0.12512 0.84871 0.0
O54 O 0.13629 0.13157 0.92296 0.0
O55 O 0.1863 0.18448 0.92102 0.0
O56 O 0.82091 0.94448 0.86597 0.0
Cd57 Cd 0.81424 0.98885 0.86234 0.0
Cd58 Cd 0.83106 0.00106 0.90421 0.0
O59 O 0.8297 0.95224 0.89962 0.0
O60 O 0.77871 0.9791 0.83991 0.0
O61 O 0.76879 0.98611 0.87286 0.0
C62 C 0.75725 0.97942 0.85395 0.0
C63 C 0.82318 0.01037 0.93936 0.0
C64 C 0.82661 0.93422 0.88331 0.0
C65 C 0.88167 0.05676 0.87194 0.0
O66 O 0.87342 0.04683 0.89065 0.0
O67 O 0.86085 0.03756 0.85739 0.0
O68 O 0.85189 0.01121 0.93254 0.0
O69 O 0.79795 0.00413 0.92618 0.0
O70 O 0.04278 0.87889 0.86023 0.0
Cd71 Cd 0.99809 0.82758 0.86084 0.0
Cd72 Cd 0.99669 0.83884 0.903 0.0
O73 O 0.04562 0.88331 0.89422 0.0
O74 O 0.00339 0.79663 0.83984 0.0
O75 O 0.00401 0.78833 0.87374 0.0
C76 C 0.00703 0.77905 0.8551 0.0
C77 C 0.99494 0.82762 0.9389 0.0
C78 C 0.05871 0.89625 0.87652 0.0
C79 C 0.93419 0.8306 0.87489 0.0
O80 O 0.94929 0.83617 0.89255 0.0
O81 O 0.94855 0.82472 0.85925 0.0
O82 O 0.99544 0.8558 0.93144 0.0
O83 O 0.99532 0.80482 0.92591 0.0
O84 O 0.83361 0.44594 0.46836 0.0
Cd85 Cd 0.84014 0.49694 0.47194 0.0
Cd86 Cd 0.82254 0.48987 0.42858 0.0
O87 O 0.82433 0.44304 0.43467 0.0
O88 O 0.86854 0.51709 0.49775 0.0
O89 O 0.88873 0.54105 0.46678 0.0
C90 C 0.89419 0.5415 0.48649 0.0
C91 C 0.82991 0.50371 0.39285 0.0
C92 C 0.82774 0.4291 0.45131 0.0
C93 C 0.77247 0.49693 0.46044 0.0
O94 O 0.7805 0.49428 0.44181 0.0
O95 O 0.79326 0.4991 0.47515 0.0
O96 O 0.80146 0.4763 0.40031 0.0
O97 O 0.85491 0.52437 0.40575 0.0
O98 O 0.54628 0.38405 0.47654 0.0
Cd99 Cd 0.49554 0.33893 0.47936 0.0
Cd100 Cd 0.49976 0.32816 0.43733 0.0
O101 O 0.54606 0.37766 0.44273 0.0
O102 O 0.46636 0.34697 0.50033 0.0
O103 O 0.45372 0.34069 0.46671 0.0
C104 C 0.44622 0.34654 0.48523 0.0
C105 C 0.48599 0.32203 0.40166 0.0
C106 C 0.56138 0.39532 0.45907 0.0
C107 C 0.49553 0.27172 0.46884 0.0
O108 O 0.49685 0.28207 0.45023 0.0
O109 O 0.49408 0.29048 0.48368 0.0
O110 O 0.51374 0.32164 0.40909 0.0
O111 O 0.46458 0.325 0.41462 0.0
O112 O 0.61015 0.16005 0.4789 0.0
Cd113 Cd 0.65479 0.15337 0.48024 0.0
Cd114 Cd 0.65703 0.16227 0.4368 0.0
O115 O 0.6083 0.1588 0.44484 0.0
O116 O 0.64986 0.12277 0.50455 0.0
O117 O 0.64886 0.10547 0.47204 0.0
C118 C 0.64629 0.09806 0.4916 0.0
C119 C 0.65782 0.15146 0.401 0.0
C120 C 0.59479 0.16024 0.4621 0.0
C121 C 0.71932 0.21865 0.46427 0.0
O122 O 0.70462 0.20747 0.44664 0.0
O123 O 0.70443 0.20013 0.48042 0.0
O124 O 0.65766 0.17945 0.40818 0.0
O125 O 0.65821 0.12895 0.41421 0.0
O126 O 0.78228 0.49484 0.18699 0.0
Cd127 Cd 0.83406 0.50388 0.19092 0.0
Cd128 Cd 0.81477 0.48862 0.23314 0.0
O129 O 0.7717 0.49195 0.22051 0.0
O130 O 0.86675 0.54035 0.17052 0.0
O131 O 0.87046 0.54996 0.20445 0.0
C132 C 0.88185 0.56207 0.18598 0.0
C133 C 0.81472 0.49277 0.26964 0.0
C134 C 0.76178 0.49211 0.20197 0.0
C135 C 0.83216 0.43839 0.20661 0.0
O136 O 0.82282 0.4466 0.22356 0.0
O137 O 0.83946 0.45871 0.19087 0.0
O138 O 0.78973 0.46596 0.25956 0.0
O139 O 0.84086 0.51805 0.25908 0.0
O140 O 0.49689 0.27552 0.19803 0.0
Cd141 Cd 0.48923 0.31948 0.19753 0.0
Cd142 Cd 0.50001 0.32167 0.24178 0.0
O143 O 0.49661 0.27361 0.23212 0.0
O144 O 0.45501 0.31382 0.17513 0.0
O145 O 0.44244 0.3125 0.2086 0.0
C146 C 0.43213 0.30972 0.18951 0.0
C147 C 0.49858 0.32215 0.27835 0.0
C148 C 0.49755 0.26017 0.21473 0.0
C149 C 0.55244 0.38568 0.21321 0.0
O150 O 0.54155 0.37097 0.23086 0.0
O151 O 0.53508 0.36968 0.19695 0.0
O152 O 0.52502 0.32367 0.26805 0.0
O153 O 0.47202 0.32069 0.26794 0.0
O154 O 0.72169 0.21274 0.20114 0.0
Cd155 Cd 0.6769 0.16185 0.19853 0.0
Cd156 Cd 0.66608 0.1702 0.24156 0.0
O157 O 0.71578 0.21543 0.23488 0.0
O158 O 0.68571 0.1356 0.17605 0.0
O159 O 0.68014 0.11948 0.20911 0.0
C160 C 0.6862 0.11432 0.19015 0.0
C161 C 0.65801 0.16363 0.27782 0.0
C162 C 0.73321 0.22925 0.21824 0.0
C163 C 0.60941 0.16187 0.20849 0.0
O164 O 0.62002 0.16482 0.22716 0.0
O165 O 0.62821 0.15973 0.1939 0.0
O166 O 0.65838 0.18974 0.26775 0.0
O167 O 0.66204 0.14011 0.26734 0.0
O168 O 0.48953 0.78865 0.80936 0.0
Cd169 Cd 0.49912 0.84014 0.8037 0.0
Cd170 Cd 0.48929 0.81845 0.76183 0.0
O171 O 0.49352 0.77727 0.7765 0.0
O172 O 0.53442 0.87382 0.8243 0.0
O173 O 0.54661 0.87474 0.7908 0.0
C174 C 0.55759 0.88701 0.8093 0.0
C175 C 0.49558 0.81736 0.72555 0.0
C176 C 0.49041 0.76807 0.79545 0.0
C177 C 0.43511 0.83574 0.78438 0.0
O178 O 0.44532 0.82494 0.76879 0.0
O179 O 0.45392 0.84539 0.80083 0.0
O180 O 0.46929 0.7916 0.73554 0.0
O181 O 0.51953 0.84451 0.73613 0.0
O182 O 0.20641 0.71171 0.81121 0.0
Cd183 Cd 0.15531 0.66691 0.81025 0.0
Cd184 Cd 0.17177 0.66408 0.76789 0.0
O185 O 0.21491 0.7135 0.77747 0.0
O186 O 0.12469 0.67298 0.83114 0.0
O187 O 0.11576 0.67241 0.79726 0.0
C188 C 0.10688 0.67618 0.81586 0.0
C189 C 0.16767 0.65884 0.73142 0.0
C190 C 0.22566 0.72713 0.79537 0.0
C191 C 0.15953 0.60269 0.7986 0.0
O192 O 0.16666 0.61714 0.78074 0.0
O193 O 0.15269 0.61771 0.81353 0.0
O194 O 0.19427 0.66058 0.7417 0.0
O195 O 0.14274 0.6607 0.74176 0.0
O196 O 0.28212 0.50058 0.80616 0.0
Cd197 Cd 0.32685 0.4943 0.80776 0.0
Cd198 Cd 0.32823 0.50336 0.7627 0.0
O199 O 0.27892 0.49759 0.77208 0.0
O200 O 0.32155 0.46307 0.8318 0.0
O201 O 0.32017 0.44637 0.79911 0.0
C202 C 0.31723 0.43841 0.8186 0.0
C203 C 0.33151 0.50338 0.72616 0.0
C204 C 0.26581 0.49928 0.78946 0.0
C205 C 0.39159 0.55795 0.79124 0.0
O206 O 0.3764 0.54612 0.7738 0.0
O207 O 0.37657 0.54092 0.80776 0.0
O208 O 0.33025 0.52844 0.73644 0.0
O209 O 0.33034 0.47695 0.73655 0.0
O210 O 0.44934 0.82384 0.52295 0.0
Cd211 Cd 0.5008 0.83108 0.5236 0.0
Cd212 Cd 0.48941 0.82298 0.56676 0.0
O213 O 0.44374 0.8245 0.55685 0.0
O214 O 0.52835 0.86208 0.49981 0.0
O215 O 0.54111 0.87943 0.5326 0.0
C216 C 0.54751 0.88709 0.51313 0.0
C217 C 0.50098 0.83399 0.60253 0.0
C218 C 0.43121 0.82295 0.53876 0.0
C219 C 0.49947 0.76698 0.5412 0.0
O220 O 0.4942 0.77872 0.55817 0.0
O221 O 0.504 0.7845 0.52453 0.0
O222 O 0.47289 0.80579 0.59541 0.0
O223 O 0.52286 0.85741 0.58931 0.0
O224 O 0.1635 0.61903 0.5267 0.0
Cd225 Cd 0.15613 0.66293 0.52973 0.0
Cd226 Cd 0.16293 0.65312 0.57244 0.0
O227 O 0.15943 0.60649 0.56002 0.0
O228 O 0.12813 0.66325 0.50526 0.0
O229 O 0.10655 0.6532 0.53731 0.0
C230 C 0.10135 0.65495 0.51772 0.0
C231 C 0.15019 0.64897 0.60824 0.0
C232 C 0.1624 0.5987 0.54139 0.0
C233 C 0.2206 0.72209 0.5497 0.0
O234 O 0.20888 0.70221 0.56573 0.0
O235 O 0.20258 0.71244 0.53296 0.0
O236 O 0.17759 0.64786 0.60086 0.0
O237 O 0.12868 0.65165 0.59521 0.0
O238 O 0.36563 0.53675 0.52109 0.0
Cd239 Cd 0.32278 0.48535 0.52589 0.0
Cd240 Cd 0.33363 0.50273 0.56728 0.0
O241 O 0.37939 0.54619 0.55423 0.0
O242 O 0.32506 0.45064 0.50637 0.0
O243 O 0.3343 0.45102 0.54024 0.0
C244 C 0.33391 0.43792 0.52211 0.0
C245 C 0.33918 0.49485 0.60296 0.0
C246 C 0.38639 0.55657 0.5355 0.0
C247 C 0.26305 0.48891 0.54541 0.0
O248 O 0.28354 0.49774 0.56121 0.0
O249 O 0.27262 0.48093 0.52853 0.0
O250 O 0.33936 0.52293 0.59557 0.0
O251 O 0.33683 0.47079 0.58995 0.0
H252 H 0.40401 0.30546 0.15122 0.0
H253 H 0.37493 0.28918 0.2159 0.0
H254 H 0.3108 0.26181 0.20679 0.0
H255 H 0.26292 0.23597 0.18043 0.0
H256 H 0.29199 0.25093 0.11574 0.0
H257 H 0.35624 0.28583 0.12492 0.0
C258 C 0.3837 0.2964 0.16335 0.0
C259 C 0.3942 0.29885 0.18419 0.0
C260 C 0.34686 0.28023 0.158 0.0
C261 C 0.36758 0.2874 0.19972 0.0
C262 C 0.33087 0.27161 0.19453 0.0
C263 C 0.28326 0.24733 0.16832 0.0
C264 C 0.27269 0.24038 0.14744 0.0
C265 C 0.32016 0.26687 0.17371 0.0
C266 C 0.29938 0.25565 0.13195 0.0
C267 C 0.33615 0.27549 0.13718 0.0
H268 H 0.75597 0.01519 0.18249 0.0
H269 H 0.75438 0.03986 0.11784 0.0
H270 H 0.71967 0.06977 0.12597 0.0
H271 H 0.69656 0.09529 0.15179 0.0
H272 H 0.69975 0.07228 0.21656 0.0
H273 H 0.72665 0.03492 0.20796 0.0
C274 C 0.74755 0.02659 0.17012 0.0
C275 C 0.75823 0.02576 0.14962 0.0
C276 C 0.72815 0.04432 0.17494 0.0
C277 C 0.74677 0.04036 0.13377 0.0
C278 C 0.72703 0.0576 0.13841 0.0
C279 C 0.70266 0.08169 0.16403 0.0
C280 C 0.69668 0.08702 0.18481 0.0
C281 C 0.71864 0.06076 0.15901 0.0
C282 C 0.70431 0.06885 0.20044 0.0
C283 C 0.71983 0.04758 0.19555 0.0
H284 H 0.90908 0.5952 0.14912 0.0
H285 H 0.91526 0.61582 0.2148 0.0
H286 H 0.95203 0.68098 0.20845 0.0
H287 H 0.97576 0.73201 0.18416 0.0
H288 H 0.96747 0.71144 0.11843 0.0
H289 H 0.93861 0.64628 0.12493 0.0
C290 C 0.91892 0.61388 0.16208 0.0
C291 C 0.90899 0.60068 0.18239 0.0
C292 C 0.93944 0.65134 0.1583 0.0
C293 C 0.92226 0.62525 0.199 0.0
C294 C 0.9432 0.66255 0.19538 0.0
C295 C 0.96818 0.71335 0.17124 0.0
C296 C 0.97329 0.72655 0.15084 0.0
C297 C 0.95093 0.67591 0.17508 0.0
C298 C 0.96361 0.702 0.13429 0.0
C299 C 0.94697 0.66471 0.13799 0.0
H300 H 0.2915 0.37766 0.795 0.0
H301 H 0.31566 0.4152 0.85814 0.0
H302 H 0.28635 0.35257 0.87041 0.0
H303 H 0.24746 0.28742 0.86345 0.0
H304 H 0.22063 0.25021 0.80037 0.0
H305 H 0.25765 0.31232 0.78787 0.0
C306 C 0.29099 0.37217 0.81142 0.0
C307 C 0.30541 0.40105 0.82564 0.0
C308 C 0.27323 0.33609 0.81842 0.0
C309 C 0.30449 0.39345 0.84687 0.0
C310 C 0.28763 0.35762 0.85392 0.0
C311 C 0.25021 0.29282 0.84696 0.0
C312 C 0.23098 0.26428 0.83289 0.0
C313 C 0.27089 0.32874 0.83987 0.0
C314 C 0.23487 0.27174 0.81156 0.0
C315 C 0.25601 0.30727 0.80438 0.0
H316 H 0.72756 0.96901 0.81563 0.0
H317 H 0.70224 0.96755 0.8804 0.0
H318 H 0.63814 0.94281 0.8719 0.0
H319 H 0.58871 0.91517 0.84651 0.0
H320 H 0.61399 0.91515 0.78184 0.0
H321 H 0.67877 0.94747 0.78987 0.0
C322 C 0.70811 0.96373 0.82788 0.0
C323 C 0.71959 0.96962 0.84864 0.0
C324 C 0.67126 0.94909 0.82292 0.0
C325 C 0.6941 0.96304 0.8643 0.0
C326 C 0.65741 0.94879 0.85946 0.0
C327 C 0.60838 0.92276 0.83411 0.0
C328 C 0.59648 0.91232 0.81363 0.0
C329 C 0.64557 0.94073 0.83888 0.0
C330 C 0.62236 0.92264 0.79775 0.0
C331 C 0.65944 0.94098 0.80234 0.0
H332 H 0.08133 0.68363 0.85293 0.0
H333 H 0.0719 0.69495 0.78721 0.0
H334 H 0.03593 0.72417 0.79368 0.0
H335 H 0.01405 0.75327 0.81797 0.0
H336 H 0.02506 0.74342 0.88369 0.0
H337 H 0.05313 0.70643 0.87721 0.0
C338 C 0.07093 0.69195 0.84 0.0
C339 C 0.07976 0.68761 0.81962 0.0
C340 C 0.05081 0.70929 0.84383 0.0
C341 C 0.06571 0.69818 0.80305 0.0
C342 C 0.04527 0.71505 0.80673 0.0
C343 C 0.02206 0.74257 0.8309 0.0
C344 C 0.01796 0.75157 0.85128 0.0
C345 C 0.03872 0.72181 0.82706 0.0
C346 C 0.02813 0.73714 0.86784 0.0
C347 C 0.04432 0.71609 0.86415 0.0
H348 H 0.95655 0.58949 0.4667 0.0
H349 H 0.91141 0.55133 0.52747 0.0
H350 H 0.97143 0.58736 0.54289 0.0
H351 H 0.03747 0.62381 0.53875 0.0
H352 H 0.08306 0.65992 0.47787 0.0
H353 H 0.02218 0.63115 0.46297 0.0
C354 C 0.95975 0.5895 0.48334 0.0
C355 C 0.92961 0.56738 0.49586 0.0
C356 C 0.99451 0.60979 0.49212 0.0
C357 C 0.93421 0.56782 0.51742 0.0
C358 C 0.96856 0.58841 0.52629 0.0
C359 C 0.0341 0.62602 0.52228 0.0
C360 C 0.06478 0.64364 0.50943 0.0
C361 C -0.00096 0.60864 0.51373 0.0
C362 C 0.0599 0.64627 0.48811 0.0
C363 C 0.02508 0.6297 0.47955 0.0
H364 H 0.34042 0.40927 0.48589 0.0
H365 H 0.35855 0.40956 0.55163 0.0
H366 H 0.3917 0.37721 0.54604 0.0
H367 H 0.42205 0.35606 0.52224 0.0
H368 H 0.40559 0.35749 0.45643 0.0
H369 H 0.36494 0.38161 0.46235 0.0
C370 C 0.35104 0.40169 0.49905 0.0
C371 C 0.34746 0.41229 0.51912 0.0
C372 C 0.37073 0.38375 0.4957 0.0
C373 C 0.36114 0.40198 0.53599 0.0
C374 C 0.38026 0.38362 0.53281 0.0
C375 C 0.40918 0.36117 0.50919 0.0
C376 C 0.41729 0.35553 0.48892 0.0
C377 C 0.38628 0.37552 0.51268 0.0
C378 C 0.40004 0.36184 0.4722 0.0
C379 C 0.37686 0.37575 0.47556 0.0
H380 H 0.62889 0.03816 0.4684 0.0
H381 H 0.64096 0.07537 0.53157 0.0
H382 H 0.61555 0.01319 0.54398 0.0
H383 H 0.58323 0.94781 0.5368 0.0
H384 H 0.56892 0.91043 0.47359 0.0
H385 H 0.60233 0.97306 0.46137 0.0
C386 C 0.62652 0.03275 0.48489 0.0
C387 C 0.63637 0.06133 0.49901 0.0
C388 C 0.61123 0.99682 0.49195 0.0
C389 C 0.63328 0.05385 0.52034 0.0
C390 C 0.61868 0.01826 0.52747 0.0
C391 C 0.588 0.95332 0.52037 0.0
C392 C 0.57321 0.92448 0.50613 0.0
C393 C 0.60653 0.98943 0.5134 0.0
C394 C 0.57974 0.93213 0.48489 0.0
C395 C 0.59875 0.96796 0.47787 0.0
H396 H 0.06848 0.14578 0.15104 0.0
H397 H 0.07519 0.17796 0.08714 0.0
H398 H 0.00972 0.15379 0.08632 0.0
H399 H 0.95024 0.11385 0.10162 0.0
H400 H 0.94275 0.07785 0.16479 0.0
H401 H 0.00876 0.11382 0.16815 0.0
C402 C 0.05577 0.14851 0.13713 0.0
C403 C 0.07659 0.16311 0.11907 0.0
C404 C 0.01784 0.13331 0.13653 0.0
C405 C 0.0597 0.16642 0.10117 0.0
C406 C 0.02222 0.15245 0.10065 0.0
C407 C 0.96292 0.11443 0.11629 0.0
C408 C 0.9416 0.0925 0.13277 0.0
C409 C 0.00089 0.13424 0.11791 0.0
C410 C 0.95849 0.09415 0.15176 0.0
C411 C 0.99631 0.11456 0.15366 0.0
H412 H 0.84485 0.90836 0.15156 0.0
H413 H 0.82952 0.90161 0.08538 0.0
H414 H 0.85408 0.8608 0.08297 0.0
H415 H 0.89074 0.83761 0.09864 0.0
H416 H 0.91011 0.84778 0.16449 0.0
H417 H 0.87248 0.87589 0.1681 0.0
C418 C 0.84578 0.89701 0.1367 0.0
C419 C 0.83603 0.90854 0.11863 0.0
C420 C 0.86129 0.87466 0.13532 0.0
C421 C 0.83735 0.89356 0.09949 0.0
C422 C 0.85157 0.87036 0.09808 0.0
C423 C 0.88612 0.84523 0.11387 0.0
C424 C 0.904 0.84144 0.13118 0.0
C425 C 0.86542 0.86239 0.11574 0.0
C426 C 0.89708 0.85079 0.15084 0.0
C427 C 0.8757 0.86708 0.15291 0.0
H428 H 0.15122 0.05366 0.14954 0.0
H429 H 0.17007 0.05946 0.08364 0.0
H430 H 0.14303 0.99382 0.08212 0.0
H431 H 0.10407 0.93473 0.09819 0.0
H432 H 0.08299 0.92817 0.16377 0.0
H433 H 0.12171 0.99396 0.16679 0.0
C434 C 0.15026 0.04068 0.13493 0.0
C435 C 0.1618 0.06144 0.11666 0.0
C436 C 0.13394 0.00265 0.13405 0.0
C437 C 0.16076 0.04415 0.09791 0.0
C438 C 0.14522 0.00653 0.09699 0.0
C439 C 0.10871 0.94758 0.11325 0.0
C440 C 0.09005 0.92671 0.13063 0.0
C441 C 0.13014 0.98544 0.11477 0.0
C442 C 0.09684 0.94363 0.1501 0.0
C443 C 0.11872 0.98134 0.1518 0.0
H444 H 0.08159 0.94098 0.84283 0.0
H445 H 0.10478 0.93657 0.90746 0.0
H446 H 0.14478 0.00217 0.90795 0.0
H447 H 0.16346 0.06095 0.89198 0.0
H448 H 0.13774 0.06613 0.82794 0.0
H449 H 0.10948 0.00022 0.82513 0.0
C450 C 0.09616 0.95424 0.85687 0.0
C451 C 0.08952 0.93396 0.8752 0.0
C452 C 0.11842 0.99224 0.85723 0.0
C453 C 0.10886 0.95158 0.89322 0.0
C454 C 0.13172 0.98915 0.89355 0.0
C455 C 0.15248 0.04779 0.87725 0.0
C456 C 0.15195 0.06837 0.86035 0.0
C457 C 0.13521 0.00985 0.87594 0.0
C458 C 0.13824 0.05095 0.84127 0.0
C459 C 0.12175 0.01316 0.8397 0.0
H460 H 0.04284 0.1437 0.84288 0.0
H461 H 0.05801 0.16775 0.90821 0.0
H462 H 0.99286 0.14265 0.91254 0.0
H463 H 0.93152 0.10416 0.89911 0.0
H464 H 0.9157 0.07656 0.83424 0.0
H465 H 0.98101 0.11361 0.82834 0.0
C466 C 0.03202 0.14434 0.85796 0.0
C467 C 0.05522 0.1569 0.87526 0.0
C468 C 0.99428 0.12884 0.86049 0.0
C469 C 0.04072 0.15771 0.89468 0.0
C470 C 0.00341 0.14327 0.89719 0.0
C471 C 0.94219 0.10689 0.88357 0.0
C472 C 0.91877 0.08688 0.86725 0.0
C473 C 0.97985 0.1272 0.88041 0.0
C474 C 0.93308 0.09132 0.84715 0.0
C475 C 0.97052 0.11231 0.84378 0.0
H476 H 0.8935 0.83711 0.90505 0.0
H477 H 0.9066 0.84064 0.83874 0.0
H478 H 0.86842 0.86819 0.83518 0.0
H479 H 0.84105 0.90124 0.85142 0.0
H480 H 0.831 0.90004 0.91792 0.0
H481 H 0.85784 0.86133 0.9208 0.0
C482 C 0.88737 0.84313 0.88976 0.0
C483 C 0.90356 0.83754 0.87224 0.0
C484 C 0.86634 0.85996 0.88787 0.0
C485 C 0.89477 0.84492 0.85253 0.0
C486 C 0.87314 0.86097 0.85049 0.0
C487 C 0.84389 0.89178 0.86651 0.0
C488 C 0.83473 0.9042 0.88445 0.0
C489 C 0.86025 0.87018 0.86812 0.0
C490 C 0.83837 0.89143 0.90386 0.0
C491 C 0.8538 0.86931 0.90555 0.0
H492 H 0.72272 0.49451 0.43316 0.0
H493 H 0.73883 0.48412 0.49817 0.0
H494 H 0.67371 0.45694 0.50426 0.0
H495 H 0.61167 0.42556 0.48993 0.0
H496 H 0.59617 0.43354 0.42455 0.0
H497 H 0.6614 0.47256 0.41992 0.0
C498 C 0.71216 0.48712 0.44876 0.0
C499 C 0.73557 0.49055 0.46507 0.0
C500 C 0.67458 0.4705 0.45206 0.0
C501 C 0.72144 0.48143 0.48525 0.0
C502 C 0.68409 0.46561 0.48874 0.0
C503 C 0.62247 0.43666 0.47478 0.0
C504 C 0.59914 0.42598 0.45755 0.0
C505 C 0.66025 0.45835 0.47209 0.0
C506 C 0.61358 0.4408 0.43803 0.0
C507 C 0.65093 0.46307 0.43534 0.0
H508 H 0.49345 0.22241 0.44141 0.0
H509 H 0.51398 0.25344 0.5057 0.0
H510 H 0.54153 0.2155 0.5103 0.0
H511 H 0.56998 0.18325 0.49438 0.0
H512 H 0.55142 0.15479 0.42965 0.0
H513 H 0.51257 0.18148 0.42705 0.0
C514 C 0.50316 0.22023 0.45657 0.0
C515 C 0.5024 0.24142 0.47305 0.0
C516 C 0.51987 0.19919 0.45897 0.0
C517 C 0.51451 0.23773 0.49267 0.0
C518 C 0.53055 0.21621 0.49528 0.0
C519 C 0.55667 0.18201 0.47984 0.0
C520 C 0.56433 0.16779 0.46213 0.0
C521 C 0.53498 0.19828 0.47829 0.0
C522 C 0.54656 0.16614 0.44346 0.0
C523 C 0.52436 0.1815 0.44192 0.0
H524 H 0.81415 0.38376 0.48419 0.0
H525 H 0.82233 0.38827 0.41756 0.0
H526 H 0.79509 0.32251 0.4161 0.0
H527 H 0.75948 0.26372 0.43313 0.0
H528 H 0.74816 0.25863 0.49958 0.0
H529 H 0.78688 0.32448 0.50171 0.0
C530 C 0.81082 0.37048 0.46938 0.0
C531 C 0.81957 0.3909 0.45099 0.0
C532 C 0.79419 0.33243 0.46858 0.0
C533 C 0.8153 0.3732 0.43195 0.0
C534 C 0.79963 0.33553 0.43108 0.0
C535 C 0.76611 0.27687 0.44814 0.0
C536 C 0.75022 0.25629 0.46611 0.0
C537 C 0.78744 0.31481 0.44921 0.0
C538 C 0.75968 0.27377 0.48545 0.0
C539 C 0.78164 0.31152 0.48668 0.0
H540 H 0.766 0.27486 0.18556 0.0
H541 H 0.76897 0.26915 0.25217 0.0
H542 H 0.80718 0.33486 0.25406 0.0
H543 H 0.82909 0.39382 0.23745 0.0
H544 H 0.82405 0.40017 0.17103 0.0
H545 H 0.79833 0.33454 0.16841 0.0
C546 C 0.77582 0.28788 0.20045 0.0
C547 C 0.7638 0.26716 0.21872 0.0
C548 C 0.79712 0.32592 0.2015 0.0
C549 C 0.77716 0.28448 0.23787 0.0
C550 C 0.79899 0.32212 0.23899 0.0
C551 C 0.82325 0.38098 0.22235 0.0
C552 C 0.82764 0.40171 0.20452 0.0
C553 C 0.80749 0.34317 0.221 0.0
C554 C 0.82064 0.38481 0.18504 0.0
C555 C 0.8056 0.34718 0.18353 0.0
H556 H 0.71521 0.49512 0.22943 0.0
H557 H 0.72288 0.46841 0.16595 0.0
H558 H 0.6569 0.43861 0.16249 0.0
H559 H 0.5972 0.40985 0.17966 0.0
H560 H 0.59027 0.43405 0.24377 0.0
H561 H 0.65564 0.47568 0.24466 0.0
C562 C 0.70254 0.48352 0.21468 0.0
C563 C 0.72386 0.48322 0.19814 0.0
C564 C 0.66459 0.46557 0.21298 0.0
C565 C 0.7071 0.46872 0.17901 0.0
C566 C 0.6693 0.45143 0.17706 0.0
C567 C 0.60981 0.42511 0.19363 0.0
C568 C 0.589 0.41827 0.21174 0.0
C569 C 0.6477 0.44812 0.19426 0.0
C570 C 0.60576 0.43839 0.2297 0.0
C571 C 0.6432 0.46208 0.23026 0.0
H572 H 0.52162 0.23646 0.1824 0.0
H573 H 0.4904 0.21538 0.24668 0.0
H574 H 0.51669 0.17619 0.24921 0.0
H575 H 0.55832 0.15776 0.23516 0.0
H576 H 0.59234 0.18088 0.17142 0.0
H577 H 0.55436 0.20837 0.16656 0.0
C578 C 0.51968 0.2225 0.1968 0.0
C579 C 0.50484 0.22957 0.21445 0.0
C580 C 0.53574 0.20061 0.19833 0.0
C581 C 0.50228 0.21099 0.23294 0.0
C582 C 0.51739 0.18859 0.23444 0.0
C583 C 0.55674 0.16798 0.22005 0.0
C584 C 0.5788 0.16803 0.20384 0.0
C585 C 0.53576 0.18472 0.21753 0.0
C586 C 0.57589 0.18076 0.18425 0.0
C587 C 0.5544 0.19681 0.18149 0.0
H588 H 0.27138 0.76985 0.76511 0.0
H589 H 0.2646 0.75349 0.83122 0.0
H590 H 0.33021 0.79333 0.83419 0.0
H591 H 0.39007 0.8225 0.81718 0.0
H592 H 0.39633 0.83521 0.75083 0.0
H593 H 0.33051 0.80792 0.74887 0.0
C594 C 0.2841 0.77559 0.78024 0.0
C595 C 0.26319 0.75797 0.79783 0.0
C596 C 0.32192 0.7977 0.78178 0.0
C597 C 0.28006 0.76632 0.81736 0.0
C598 C 0.31767 0.78898 0.81908 0.0
C599 C 0.37713 0.82045 0.80238 0.0
C600 C 0.39795 0.8303 0.78414 0.0
C601 C 0.33904 0.80337 0.80128 0.0
C602 C 0.38081 0.82741 0.76507 0.0
C603 C 0.34313 0.81159 0.76392 0.0
H604 H 0.23819 0.51812 0.82231 0.0
H605 H 0.22237 0.49374 0.757 0.0
H606 H 0.18095 0.51749 0.75512 0.0
H607 H 0.15907 0.55555 0.77039 0.0
H608 H 0.17663 0.58256 0.83525 0.0
H609 H 0.20648 0.5465 0.83904 0.0
C610 C 0.22499 0.51715 0.80777 0.0
C611 C 0.2342 0.50506 0.78971 0.0
C612 C 0.20169 0.53164 0.80667 0.0
C613 C 0.21641 0.50356 0.77107 0.0
C614 C 0.1927 0.5172 0.76995 0.0
C615 C 0.16854 0.55273 0.78549 0.0
C616 C 0.16637 0.57234 0.80239 0.0
C617 C 0.18664 0.53295 0.7874 0.0
C618 C 0.17815 0.56792 0.82194 0.0
C619 C 0.19559 0.5476 0.82407 0.0
H620 H 0.49611 0.71987 0.77046 0.0
H621 H 0.46593 0.73231 0.83236 0.0
H622 H 0.43858 0.66711 0.83818 0.0
H623 H 0.41296 0.60587 0.82324 0.0
H624 H 0.44039 0.59389 0.7606 0.0
H625 H 0.4797 0.65946 0.75772 0.0
C626 C 0.48425 0.70848 0.78539 0.0
C627 C 0.48229 0.73084 0.80075 0.0
C628 C 0.46775 0.67086 0.78845 0.0
C629 C 0.46745 0.7157 0.82015 0.0
C630 C 0.45161 0.67832 0.82347 0.0
C631 C 0.42853 0.61752 0.80923 0.0
C632 C 0.42329 0.59512 0.79204 0.0
C633 C 0.45006 0.65545 0.80738 0.0
C634 C 0.44362 0.61062 0.77397 0.0
C635 C 0.46594 0.64815 0.77225 0.0
H636 H 0.47526 0.71952 0.50897 0.0
H637 H 0.5082 0.73002 0.5729 0.0
H638 H 0.48073 0.66429 0.57569 0.0
H639 H 0.43767 0.60425 0.56202 0.0
H640 H 0.40128 0.59337 0.49872 0.0
H641 H 0.44022 0.65862 0.49355 0.0
C642 C 0.47751 0.7075 0.52329 0.0
C643 C 0.49326 0.72955 0.54079 0.0
C644 C 0.46035 0.6695 0.52503 0.0
C645 C 0.49586 0.71357 0.55927 0.0
C646 C 0.47995 0.67595 0.56092 0.0
C647 C 0.43877 0.61599 0.54695 0.0
C648 C 0.41591 0.59403 0.53094 0.0
C649 C 0.46049 0.65363 0.54423 0.0
C650 C 0.41823 0.60965 0.51142 0.0
C651 C 0.44041 0.64705 0.50846 0.0
H652 H 0.26628 0.75236 0.51697 0.0
H653 H 0.25994 0.76011 0.58323 0.0
H654 H 0.32583 0.79811 0.5852 0.0
H655 H 0.38503 0.81923 0.569 0.0
H656 H 0.39172 0.80835 0.50299 0.0
H657 H 0.32609 0.78213 0.50001 0.0
C658 C 0.27922 0.76332 0.53175 0.0
C659 C 0.2583 0.75297 0.54996 0.0
C660 C 0.31731 0.78407 0.53288 0.0
C661 C 0.27549 0.76734 0.56901 0.0
C662 C 0.31321 0.78892 0.57017 0.0
C663 C 0.3723 0.81182 0.55388 0.0
C664 C 0.39324 0.81501 0.53633 0.0
C665 C 0.33444 0.79587 0.55234 0.0
C666 C 0.37627 0.80579 0.51683 0.0
C667 C 0.33865 0.79063 0.51511 0.0
H668 H 0.23386 0.50804 0.51381 0.0
H669 H 0.22274 0.48407 0.57912 0.0
H670 H 0.18404 0.51089 0.58291 0.0
H671 H 0.16378 0.55126 0.56906 0.0
H672 H 0.17847 0.57916 0.5042 0.0
H673 H 0.20467 0.54024 0.4988 0.0
C674 C 0.22192 0.50757 0.52872 0.0
C675 C 0.23151 0.49455 0.54621 0.0
C676 C 0.20091 0.52445 0.53095 0.0
C677 C 0.21601 0.49428 0.56546 0.0
C678 C 0.19407 0.50982 0.56767 0.0
C679 C 0.17198 0.54827 0.55364 0.0
C680 C 0.16994 0.56883 0.53718 0.0
C681 C 0.18798 0.52668 0.55074 0.0
C682 C 0.18017 0.56409 0.51724 0.0
C683 C 0.19532 0.54191 0.51413 0.0
H684 H 0.14904 0.11902 0.02651 0.0
H685 H 0.22495 0.23362 0.03245 0.0
H686 H 0.22864 0.23963 0.99454 0.0
H687 H 0.20648 0.21211 0.9596 0.0
H688 H 0.1299 0.09705 0.95551 0.0
H689 H 0.13048 0.09151 0.99278 0.0
C690 C 0.16653 0.1454 0.01958 0.0
C691 C 0.1863 0.17591 0.03223 0.0
C692 C 0.16829 0.14855 0.99804 0.0
C693 C 0.20934 0.20972 0.02299 0.0
C694 C 0.21134 0.21314 0.00133 0.0
C695 C 0.19029 0.18586 0.96692 0.0
C696 C 0.16784 0.15514 0.95476 0.0
C697 C 0.19041 0.18276 0.98867 0.0
C698 C 0.14704 0.12125 0.96445 0.0
C699 C 0.14734 0.11796 0.98581 0.0
H700 H 0.87798 0.04261 0.9664 0.0
H701 H 0.76125 0.98954 0.96249 0.0
H702 H 0.75744 0.99143 1.00039 0.0
H703 H 0.78782 0.00298 0.03486 0.0
H704 H 0.90478 0.05439 0.03715 0.0
H705 H 0.90795 0.05856 0.99969 0.0
C706 C 0.85163 0.03168 0.97378 0.0
C707 C 0.81994 0.01551 0.96173 0.0
C708 C 0.84974 0.03242 0.99534 0.0
C709 C 0.78607 0.00206 0.97149 0.0
C710 C 0.78391 0.00298 0.99314 0.0
C711 C 0.81392 0.01559 0.0271 0.0
C712 C 0.846 0.02796 0.03874 0.0
C713 C 0.8156 0.01733 0.00529 0.0
C714 C 0.87968 0.0442 0.02853 0.0
C715 C 0.88157 0.04665 0.00709 0.0
H716 H 0.99301 0.87201 0.96775 0.0
H717 H 0.99527 0.77227 0.96117 0.0
H718 H 0.99487 0.7663 0.99901 0.0
H719 H 0.99439 0.79043 0.03414 0.0
H720 H 0.99243 0.89081 0.03891 0.0
H721 H 0.99221 0.89535 0.00161 0.0
C722 C 0.99339 0.84884 0.97448 0.0
C723 C 0.9942 0.82265 0.96162 0.0
C724 C 0.99325 0.84572 0.996 0.0
C725 C 0.99464 0.79285 0.97073 0.0
C726 C 0.99443 0.78946 0.99235 0.0
C727 C 0.99389 0.81321 0.02697 0.0
C728 C 0.99349 0.84023 0.03941 0.0
C729 C 0.99382 0.81585 0.00519 0.0
C730 C 0.99283 0.8696 0.02984 0.0
C731 C 0.99268 0.8723 0.00844 0.0
H732 H 0.86729 0.53775 0.2975 0.0
H733 H 0.75659 0.44917 0.2932 0.0
H734 H 0.75151 0.44639 0.33056 0.0
H735 H 0.77835 0.4667 0.36436 0.0
H736 H 0.88901 0.5541 0.37033 0.0
H737 H 0.89412 0.55995 0.33249 0.0
C738 C 0.84206 0.51806 0.30479 0.0
C739 C 0.81248 0.49355 0.29249 0.0
C740 C 0.83926 0.51629 0.32658 0.0
C741 C 0.77994 0.46817 0.30219 0.0
C742 C 0.7769 0.46654 0.32362 0.0
C743 C 0.80366 0.4872 0.35748 0.0
C744 C 0.83331 0.50978 0.37017 0.0
C745 C 0.80644 0.4901 0.33593 0.0
C746 C 0.86575 0.53633 0.36091 0.0
C747 C 0.86869 0.5396 0.33927 0.0
H748 H 0.44892 0.32103 0.30636 0.0
H749 H 0.55093 0.32214 0.30191 0.0
H750 H 0.55486 0.32117 0.33919 0.0
H751 H 0.53065 0.32055 0.37291 0.0
H752 H 0.42976 0.32069 0.37934 0.0
H753 H 0.424 0.3204 0.34147 0.0
C754 C 0.47192 0.32105 0.31361 0.0
C755 C 0.49956 0.32168 0.30125 0.0
C756 C 0.47425 0.32061 0.33539 0.0
C757 C 0.52923 0.32171 0.3109 0.0
C758 C 0.53158 0.32111 0.3323 0.0
C759 C 0.5072 0.32037 0.36616 0.0
C760 C 0.48064 0.32056 0.37896 0.0
C761 C 0.50436 0.3206 0.34464 0.0
C762 C 0.45059 0.32048 0.36981 0.0
C763 C 0.44735 0.32039 0.34818 0.0
H764 H 0.64362 0.18792 0.37219 0.0
H765 H 0.67 0.10289 0.3789 0.0
H766 H 0.67097 0.09757 0.34104 0.0
H767 H 0.66658 0.1195 0.30587 0.0
H768 H 0.63996 0.20488 0.30102 0.0
H769 H 0.63676 0.20745 0.33831 0.0
C770 C 0.64961 0.16813 0.36547 0.0
C771 C 0.65709 0.14609 0.37834 0.0
C772 C 0.65009 0.16531 0.34395 0.0
C773 C 0.66427 0.12028 0.3693 0.0
C774 C 0.66486 0.1173 0.34767 0.0
C775 C 0.65981 0.13839 0.31303 0.0
C776 C 0.6538 0.16213 0.30059 0.0
C777 C 0.65812 0.13997 0.3348 0.0
C778 C 0.64502 0.18647 0.31012 0.0
C779 C 0.64315 0.18802 0.3315 0.0
H780 H 0.46794 0.7816 0.63096 0.0
H781 H 0.54878 0.8948 0.62486 0.0
H782 H 0.5562 0.89974 0.66266 0.0
H783 H 0.53704 0.87171 0.69769 0.0
H784 H 0.4559 0.75799 0.70204 0.0
H785 H 0.45154 0.75351 0.66467 0.0
C786 C 0.48724 0.80747 0.63782 0.0
C787 C 0.50745 0.83789 0.62514 0.0
C788 C 0.49133 0.80998 0.65931 0.0
C789 C 0.53275 0.871 0.63432 0.0
C790 C 0.53695 0.8738 0.65591 0.0
C791 C 0.51875 0.84594 0.6904 0.0
C792 C 0.49663 0.81532 0.70271 0.0
C793 C 0.51607 0.84347 0.66862 0.0
C794 C 0.47302 0.7821 0.69303 0.0
C795 C 0.47044 0.77943 0.67161 0.0
H796 H 0.19076 0.64066 0.63722 0.0
H797 H 0.09906 0.65704 0.63038 0.0
H798 H 0.09525 0.66059 0.66816 0.0
H799 H 0.12012 0.66133 0.70326 0.0
H800 H 0.21297 0.64606 0.70833 0.0
H801 H 0.2141 0.63992 0.67115 0.0
C802 C 0.16974 0.64486 0.64389 0.0
C803 C 0.14532 0.64871 0.63096 0.0
C804 C 0.16805 0.64729 0.66539 0.0
C805 C 0.11822 0.65397 0.63999 0.0
C806 C 0.11612 0.65612 0.66158 0.0
C807 C 0.14046 0.65655 0.69618 0.0
C808 C 0.16654 0.6544 0.70865 0.0
C809 C 0.14121 0.6532 0.67447 0.0
C810 C 0.1927 0.64813 0.69921 0.0
C811 C 0.1934 0.64452 0.67788 0.0
H812 H 0.34441 0.54256 0.63182 0.0
H813 H 0.33526 0.43741 0.62517 0.0
H814 H 0.33275 0.43048 0.66299 0.0
H815 H 0.3312 0.45424 0.69809 0.0
H816 H 0.33915 0.55936 0.70282 0.0
H817 H 0.34387 0.56609 0.66562 0.0
C818 C 0.34202 0.51807 0.63853 0.0
C819 C 0.33997 0.49053 0.62566 0.0
C820 C 0.34014 0.51417 0.66003 0.0
C821 C 0.33694 0.45908 0.63474 0.0
C822 C 0.33539 0.45509 0.65635 0.0
C823 C 0.33403 0.47856 0.69092 0.0
C824 C 0.33466 0.50614 0.70333 0.0
C825 C 0.33662 0.48239 0.66919 0.0
C826 C 0.33839 0.53756 0.69378 0.0
C827 C 0.34118 0.54156 0.67243 0.0
loop_
_geom_bond_atom_site_label_1
_geom_bond_atom_site_label_2
_geom_bond_distance
_geom_bond_site_symmetry_2
_ccdc_geom_bond_type
O0 Cd1 2.223 . S
O0 C8 1.315 . S
Cd1 O0 2.223 . S
Cd1 O4 2.297 . S
Cd1 O5 2.439 . S
Cd1 O11 2.240 . S
Cd2 O3 2.240 . S
Cd2 O10 2.223 . S
Cd2 O12 2.297 . S
Cd2 O13 2.439 . S
O3 Cd2 2.240 . S
O3 C8 1.279 . S
O4 Cd1 2.297 . S
O4 C6 1.247 . S
O5 Cd1 2.439 . S
O5 C6 1.208 . S
C6 O4 1.247 . S
C6 O5 1.208 . S
C7 O12 1.247 . S
C7 O13 1.208 . S
C8 O0 1.315 . S
C8 O3 1.279 . S
C9 O10 1.315 . S
C9 O11 1.279 . S
O10 Cd2 2.223 . S
O10 C9 1.315 . S
O11 Cd1 2.240 . S
O11 C9 1.279 . S
O12 Cd2 2.297 . S
O12 C7 1.247 . S
O13 Cd2 2.439 . S
O13 C7 1.208 . S
O14 Cd15 2.223 1_545 S
O14 C22 1.315 . S
Cd15 O14 2.223 1_565 S
Cd15 O18 2.297 1_565 S
Cd15 O19 2.439 1_565 S
Cd15 O25 2.240 . S
Cd16 O17 2.240 . S
Cd16 O24 2.223 1_545 S
Cd16 O26 2.297 1_545 S
Cd16 O27 2.439 1_545 S
O17 Cd16 2.240 . S
O17 C22 1.279 . S
O18 Cd15 2.297 1_545 S
O18 C20 1.247 . S
O19 Cd15 2.439 1_545 S
O19 C20 1.208 . S
C20 O18 1.247 . S
C20 O19 1.208 . S
C21 O26 1.247 . S
C21 O27 1.208 . S
C22 O14 1.315 . S
C22 O17 1.279 . S
C23 O24 1.315 . S
C23 O25 1.279 . S
O24 Cd16 2.223 1_565 S
O24 C23 1.315 . S
O25 Cd15 2.240 . S
O25 C23 1.279 . S
O26 Cd16 2.297 1_565 S
O26 C21 1.247 . S
O27 Cd16 2.439 1_565 S
O27 C21 1.208 . S
O28 Cd29 2.223 1_655 S
O28 C36 1.315 . S
Cd29 O28 2.223 1_455 S
Cd29 O32 2.297 1_455 S
Cd29 O33 2.439 1_455 S
Cd29 O39 2.240 . S
Cd30 O31 2.240 . S
Cd30 O38 2.223 1_655 S
Cd30 O40 2.297 1_655 S
Cd30 O41 2.439 1_655 S
O31 Cd30 2.240 . S
O31 C36 1.279 . S
O32 Cd29 2.297 1_655 S
O32 C34 1.247 . S
O33 Cd29 2.439 1_655 S
O33 C34 1.208 . S
C34 O32 1.247 . S
C34 O33 1.208 . S
C35 O40 1.247 . S
C35 O41 1.208 . S
C36 O28 1.315 . S
C36 O31 1.279 . S
C37 O38 1.315 . S
C37 O39 1.279 . S
O38 Cd30 2.223 1_455 S
O38 C37 1.315 . S
O39 Cd29 2.240 . S
O39 C37 1.279 . S
O40 Cd30 2.297 1_455 S
O40 C35 1.247 . S
O41 Cd30 2.439 1_455 S
O41 C35 1.208 . S
O42 Cd43 2.223 . S
O42 C50 1.315 . S
Cd43 O42 2.223 . S
Cd43 O46 2.297 . S
Cd43 O47 2.439 . S
Cd43 O53 2.240 . S
Cd44 O45 2.240 . S
Cd44 O52 2.223 . S
Cd44 O54 2.297 . S
Cd44 O55 2.439 . S
O45 Cd44 2.240 . S
O45 C50 1.279 . S
O46 Cd43 2.297 . S
O46 C48 1.247 . S
O47 Cd43 2.439 . S
O47 C48 1.208 . S
C48 O46 1.247 . S
C48 O47 1.208 . S
C49 O54 1.247 . S
C49 O55 1.208 . S
C50 O42 1.315 . S
C50 O45 1.279 . S
C51 O52 1.315 . S
C51 O53 1.279 . S
O52 Cd44 2.223 . S
O52 C51 1.315 . S
O53 Cd43 2.240 . S
O53 C51 1.279 . S
O54 Cd44 2.297 . S
O54 C49 1.247 . S
O55 Cd44 2.439 . S
O55 C49 1.208 . S
O56 Cd57 2.223 1_565 S
O56 C64 1.315 . S
Cd57 O56 2.223 1_545 S
Cd57 O60 2.297 1_545 S
Cd57 O61 2.439 1_545 S
Cd57 O67 2.240 . S
Cd58 O59 2.240 . S
Cd58 O66 2.223 1_565 S
Cd58 O68 2.297 1_565 S
Cd58 O69 2.439 1_565 S
O59 Cd58 2.240 . S
O59 C64 1.279 . S
O60 Cd57 2.297 1_565 S
O60 C62 1.247 . S
O61 Cd57 2.439 1_565 S
O61 C62 1.208 . S
C62 O60 1.247 . S
C62 O61 1.208 . S
C63 O68 1.247 . S
C63 O69 1.208 . S
C64 O56 1.315 . S
C64 O59 1.279 . S
C65 O66 1.315 . S
C65 O67 1.279 . S
O66 Cd58 2.223 1_545 S
O66 C65 1.315 . S
O67 Cd57 2.240 . S
O67 C65 1.279 . S
O68 Cd58 2.297 1_545 S
O68 C63 1.247 . S
O69 Cd58 2.439 1_545 S
O69 C63 1.208 . S
O70 Cd71 2.223 1_455 S
O70 C78 1.315 . S
Cd71 O70 2.223 1_655 S
Cd71 O74 2.297 1_655 S
Cd71 O75 2.439 1_655 S
Cd71 O81 2.240 . S
Cd72 O73 2.240 . S
Cd72 O80 2.223 1_455 S
Cd72 O82 2.297 1_455 S
Cd72 O83 2.439 1_455 S
O73 Cd72 2.240 . S
O73 C78 1.279 . S
O74 Cd71 2.297 1_455 S
O74 C76 1.247 . S
O75 Cd71 2.439 1_455 S
O75 C76 1.208 . S
C76 O74 1.247 . S
C76 O75 1.208 . S
C77 O82 1.247 . S
C77 O83 1.208 . S
C78 O70 1.315 . S
C78 O73 1.279 . S
C79 O80 1.315 . S
C79 O81 1.279 . S
O80 Cd72 2.223 1_655 S
O80 C79 1.315 . S
O81 Cd71 2.240 . S
O81 C79 1.279 . S
O82 Cd72 2.297 1_655 S
O82 C77 1.247 . S
O83 Cd72 2.439 1_655 S
O83 C77 1.208 . S
O84 Cd85 2.223 . S
O84 C92 1.315 . S
Cd85 O84 2.223 . S
Cd85 O88 2.297 . S
Cd85 O89 2.439 . S
Cd85 O95 2.240 . S
Cd86 O87 2.240 . S
Cd86 O94 2.223 . S
Cd86 O96 2.297 . S
Cd86 O97 2.439 . S
O87 Cd86 2.240 . S
O87 C92 1.279 . S
O88 Cd85 2.297 . S
O88 C90 1.247 . S
O89 Cd85 2.439 . S
O89 C90 1.208 . S
C90 O88 1.247 . S
C90 O89 1.208 . S
C91 O96 1.247 . S
C91 O97 1.208 . S
C92 O84 1.315 . S
C92 O87 1.279 . S
C93 O94 1.315 . S
C93 O95 1.279 . S
O94 Cd86 2.223 . S
O94 C93 1.315 . S
O95 Cd85 2.240 . S
O95 C93 1.279 . S
O96 Cd86 2.297 . S
O96 C91 1.247 . S
O97 Cd86 2.439 . S
O97 C91 1.208 . S
O98 Cd99 2.223 . S
O98 C106 1.315 . S
Cd99 O98 2.223 . S
Cd99 O102 2.297 . S
Cd99 O103 2.439 . S
Cd99 O109 2.240 . S
Cd100 O101 2.240 . S
Cd100 O108 2.223 . S
Cd100 O110 2.297 . S
Cd100 O111 2.439 . S
O101 Cd100 2.240 . S
O101 C106 1.279 . S
O102 Cd99 2.297 . S
O102 C104 1.247 . S
O103 Cd99 2.439 . S
O103 C104 1.208 . S
C104 O102 1.247 . S
C104 O103 1.208 . S
C105 O110 1.247 . S
C105 O111 1.208 . S
C106 O98 1.315 . S
C106 O101 1.279 . S
C107 O108 1.315 . S
C107 O109 1.279 . S
O108 Cd100 2.223 . S
O108 C107 1.315 . S
O109 Cd99 2.240 . S
O109 C107 1.279 . S
O110 Cd100 2.297 . S
O110 C105 1.247 . S
O111 Cd100 2.439 . S
O111 C105 1.208 . S
O112 Cd113 2.223 . S
O112 C120 1.315 . S
Cd113 O112 2.223 . S
Cd113 O116 2.297 . S
Cd113 O117 2.439 . S
Cd113 O123 2.240 . S
Cd114 O115 2.240 . S
Cd114 O122 2.223 . S
Cd114 O124 2.297 . S
Cd114 O125 2.439 . S
O115 Cd114 2.240 . S
O115 C120 1.279 . S
O116 Cd113 2.297 . S
O116 C118 1.247 . S
O117 Cd113 2.439 . S
O117 C118 1.208 . S
C118 O116 1.247 . S
C118 O117 1.208 . S
C119 O124 1.247 . S
C119 O125 1.208 . S
C120 O112 1.315 . S
C120 O115 1.279 . S
C121 O122 1.315 . S
C121 O123 1.279 . S
O122 Cd114 2.223 . S
O122 C121 1.315 . S
O123 Cd113 2.240 . S
O123 C121 1.279 . S
O124 Cd114 2.297 . S
O124 C119 1.247 . S
O125 Cd114 2.439 . S
O125 C119 1.208 . S
O126 Cd127 2.223 . S
O126 C134 1.315 . S
Cd127 O126 2.223 . S
Cd127 O130 2.297 . S
Cd127 O131 2.439 . S
Cd127 O137 2.240 . S
Cd128 O129 2.240 . S
Cd128 O136 2.223 . S
Cd128 O138 2.297 . S
Cd128 O139 2.439 . S
O129 Cd128 2.240 . S
O129 C134 1.279 . S
O130 Cd127 2.297 . S
O130 C132 1.247 . S
O131 Cd127 2.439 . S
O131 C132 1.208 . S
C132 O130 1.247 . S
C132 O131 1.208 . S
C133 O138 1.247 . S
C133 O139 1.208 . S
C134 O126 1.315 . S
C134 O129 1.279 . S
C135 O136 1.315 . S
C135 O137 1.279 . S
O136 Cd128 2.223 . S
O136 C135 1.315 . S
O137 Cd127 2.240 . S
O137 C135 1.279 . S
O138 Cd128 2.297 . S
O138 C133 1.247 . S
O139 Cd128 2.439 . S
O139 C133 1.208 . S
O140 Cd141 2.223 . S
O140 C148 1.315 . S
Cd141 O140 2.223 . S
Cd141 O144 2.297 . S
Cd141 O145 2.439 . S
Cd141 O151 2.240 . S
Cd142 O143 2.240 . S
Cd142 O150 2.223 . S
Cd142 O152 2.297 . S
Cd142 O153 2.439 . S
O143 Cd142 2.240 . S
O143 C148 1.279 . S
O144 Cd141 2.297 . S
O144 C146 1.247 . S
O145 Cd141 2.439 . S
O145 C146 1.208 . S
C146 O144 1.247 . S
C146 O145 1.208 . S
C147 O152 1.247 . S
C147 O153 1.208 . S
C148 O140 1.315 . S
C148 O143 1.279 . S
C149 O150 1.315 . S
C149 O151 1.279 . S
O150 Cd142 2.223 . S
O150 C149 1.315 . S
O151 Cd141 2.240 . S
O151 C149 1.279 . S
O152 Cd142 2.297 . S
O152 C147 1.247 . S
O153 Cd142 2.439 . S
O153 C147 1.208 . S
O154 Cd155 2.223 . S
O154 C162 1.315 . S
Cd155 O154 2.223 . S
Cd155 O158 2.297 . S
Cd155 O159 2.439 . S
Cd155 O165 2.240 . S
Cd156 O157 2.240 . S
Cd156 O164 2.223 . S
Cd156 O166 2.297 . S
Cd156 O167 2.439 . S
O157 Cd156 2.240 . S
O157 C162 1.279 . S
O158 Cd155 2.297 . S
O158 C160 1.247 . S
O159 Cd155 2.439 . S
O159 C160 1.208 . S
C160 O158 1.247 . S
C160 O159 1.208 . S
C161 O166 1.247 . S
C161 O167 1.208 . S
C162 O154 1.315 . S
C162 O157 1.279 . S
C163 O164 1.315 . S
C163 O165 1.279 . S
O164 Cd156 2.223 . S
O164 C163 1.315 . S
O165 Cd155 2.240 . S
O165 C163 1.279 . S
O166 Cd156 2.297 . S
O166 C161 1.247 . S
O167 Cd156 2.439 . S
O167 C161 1.208 . S
O168 Cd169 2.223 . S
O168 C176 1.315 . S
Cd169 O168 2.223 . S
Cd169 O172 2.297 . S
Cd169 O173 2.439 . S
Cd169 O179 2.240 . S
Cd170 O171 2.240 . S
Cd170 O178 2.223 . S
Cd170 O180 2.297 . S
Cd170 O181 2.439 . S
O171 Cd170 2.240 . S
O171 C176 1.279 . S
O172 Cd169 2.297 . S
O172 C174 1.247 . S
O173 Cd169 2.439 . S
O173 C174 1.208 . S
C174 O172 1.247 . S
C174 O173 1.208 . S
C175 O180 1.247 . S
C175 O181 1.208 . S
C176 O168 1.315 . S
C176 O171 1.279 . S
C177 O178 1.315 . S
C177 O179 1.279 . S
O178 Cd170 2.223 . S
O178 C177 1.315 . S
O179 Cd169 2.240 . S
O179 C177 1.279 . S
O180 Cd170 2.297 . S
O180 C175 1.247 . S
O181 Cd170 2.439 . S
O181 C175 1.208 . S
O182 Cd183 2.223 . S
O182 C190 1.315 . S
Cd183 O182 2.223 . S
Cd183 O186 2.297 . S
Cd183 O187 2.439 . S
Cd183 O193 2.240 . S
Cd184 O185 2.240 . S
Cd184 O192 2.223 . S
Cd184 O194 2.297 . S
Cd184 O195 2.439 . S
O185 Cd184 2.240 . S
O185 C190 1.279 . S
O186 Cd183 2.297 . S
O186 C188 1.247 . S
O187 Cd183 2.439 . S
O187 C188 1.208 . S
C188 O186 1.247 . S
C188 O187 1.208 . S
C189 O194 1.247 . S
C189 O195 1.208 . S
C190 O182 1.315 . S
C190 O185 1.279 . S
C191 O192 1.315 . S
C191 O193 1.279 . S
O192 Cd184 2.223 . S
O192 C191 1.315 . S
O193 Cd183 2.240 . S
O193 C191 1.279 . S
O194 Cd184 2.297 . S
O194 C189 1.247 . S
O195 Cd184 2.439 . S
O195 C189 1.208 . S
O196 Cd197 2.223 . S
O196 C204 1.315 . S
Cd197 O196 2.223 . S
Cd197 O200 2.297 . S
Cd197 O201 2.439 . S
Cd197 O207 2.240 . S
Cd198 O199 2.240 . S
Cd198 O206 2.223 . S
Cd198 O208 2.297 . S
Cd198 O209 2.439 . S
O199 Cd198 2.240 . S
O199 C204 1.279 . S
O200 Cd197 2.297 . S
O200 C202 1.247 . S
O201 Cd197 2.439 . S
O201 C202 1.208 . S
C202 O200 1.247 . S
C202 O201 1.208 . S
C203 O208 1.247 . S
C203 O209 1.208 . S
C204 O196 1.315 . S
C204 O199 1.279 . S
C205 O206 1.315 . S
C205 O207 1.279 . S
O206 Cd198 2.223 . S
O206 C205 1.315 . S
O207 Cd197 2.240 . S
O207 C205 1.279 . S
O208 Cd198 2.297 . S
O208 C203 1.247 . S
O209 Cd198 2.439 . S
O209 C203 1.208 . S
O210 Cd211 2.223 . S
O210 C218 1.315 . S
Cd211 O210 2.223 . S
Cd211 O214 2.297 . S
Cd211 O215 2.439 . S
Cd211 O221 2.240 . S
Cd212 O213 2.240 . S
Cd212 O220 2.223 . S
Cd212 O222 2.297 . S
Cd212 O223 2.439 . S
O213 Cd212 2.240 . S
O213 C218 1.279 . S
O214 Cd211 2.297 . S
O214 C216 1.247 . S
O215 Cd211 2.439 . S
O215 C216 1.208 . S
C216 O214 1.247 . S
C216 O215 1.208 . S
C217 O222 1.247 . S
C217 O223 1.208 . S
C218 O210 1.315 . S
C218 O213 1.279 . S
C219 O220 1.315 . S
C219 O221 1.279 . S
O220 Cd212 2.223 . S
O220 C219 1.315 . S
O221 Cd211 2.240 . S
O221 C219 1.279 . S
O222 Cd212 2.297 . S
O222 C217 1.247 . S
O223 Cd212 2.439 . S
O223 C217 1.208 . S
O224 Cd225 2.223 . S
O224 C232 1.315 . S
Cd225 O224 2.223 . S
Cd225 O228 2.297 . S
Cd225 O229 2.439 . S
Cd225 O235 2.240 . S
Cd226 O227 2.240 . S
Cd226 O234 2.223 . S
Cd226 O236 2.297 . S
Cd226 O237 2.439 . S
O227 Cd226 2.240 . S
O227 C232 1.279 . S
O228 Cd225 2.297 . S
O228 C230 1.247 . S
O229 Cd225 2.439 . S
O229 C230 1.208 . S
C230 O228 1.247 . S
C230 O229 1.208 . S
C231 O236 1.247 . S
C231 O237 1.208 . S
C232 O224 1.315 . S
C232 O227 1.279 . S
C233 O234 1.315 . S
C233 O235 1.279 . S
O234 Cd226 2.223 . S
O234 C233 1.315 . S
O235 Cd225 2.240 . S
O235 C233 1.279 . S
O236 Cd226 2.297 . S
O236 C231 1.247 . S
O237 Cd226 2.439 . S
O237 C231 1.208 . S
O238 Cd239 2.223 . S
O238 C246 1.315 . S
Cd239 O238 2.223 . S
Cd239 O242 2.297 . S
Cd239 O243 2.439 . S
Cd239 O249 2.240 . S
Cd240 O241 2.240 . S
Cd240 O248 2.223 . S
Cd240 O250 2.297 . S
Cd240 O251 2.439 . S
O241 Cd240 2.240 . S
O241 C246 1.279 . S
O242 Cd239 2.297 . S
O242 C244 1.247 . S
O243 Cd239 2.439 . S
O243 C244 1.208 . S
C244 O242 1.247 . S
C244 O243 1.208 . S
C245 O250 1.247 . S
C245 O251 1.208 . S
C246 O238 1.315 . S
C246 O241 1.279 . S
C247 O248 1.315 . S
C247 O249 1.279 . S
O248 Cd240 2.223 . S
O248 C247 1.315 . S
O249 Cd239 2.240 . S
O249 C247 1.279 . S
O250 Cd240 2.297 . S
O250 C245 1.247 . S
O251 Cd240 2.439 . S
O251 C245 1.208 . S
H252 C258 0.930 . S
H253 C261 0.930 . S
H254 C262 0.930 . S
H255 C263 0.930 . S
H256 C266 0.930 . S
H257 C267 0.930 . S
C258 H252 0.930 . S
C258 C259 1.355 . S
C258 C260 1.415 . S
C259 C258 1.355 . S
C259 C261 1.419 . S
C260 C258 1.415 . S
C260 C265 1.425 . S
C260 C267 1.409 . S
C261 H253 0.930 . S
C261 C259 1.419 . S
C261 C262 1.362 . S
C262 H254 0.930 . S
C262 C261 1.362 . S
C262 C265 1.409 . S
C263 H255 0.930 . S
C263 C264 1.355 . S
C263 C265 1.415 . S
C264 C263 1.355 . S
C264 C266 1.419 . S
C265 C260 1.425 . S
C265 C262 1.409 . S
C265 C263 1.415 . S
C266 H256 0.930 . S
C266 C264 1.419 . S
C266 C267 1.362 . S
C267 H257 0.930 . S
C267 C260 1.409 . S
C267 C266 1.362 . S
H268 C274 0.930 . S
H269 C277 0.930 . S
H270 C278 0.930 . S
H271 C279 0.930 . S
H272 C282 0.930 . S
H273 C283 0.930 . S
C274 H268 0.930 . S
C274 C275 1.355 . S
C274 C276 1.415 . S
C275 C274 1.355 . S
C275 C277 1.419 . S
C276 C274 1.415 . S
C276 C281 1.425 . S
C276 C283 1.409 . S
C277 H269 0.930 . S
C277 C275 1.419 . S
C277 C278 1.362 . S
C278 H270 0.930 . S
C278 C277 1.362 . S
C278 C281 1.409 . S
C279 H271 0.930 . S
C279 C280 1.355 . S
C279 C281 1.415 . S
C280 C279 1.355 . S
C280 C282 1.419 . S
C281 C276 1.425 . S
C281 C278 1.409 . S
C281 C279 1.415 . S
C282 H272 0.930 . S
C282 C280 1.419 . S
C282 C283 1.362 . S
C283 H273 0.930 . S
C283 C276 1.409 . S
C283 C282 1.362 . S
H284 C290 0.930 . S
H285 C293 0.930 . S
H286 C294 0.930 . S
H287 C295 0.930 . S
H288 C298 0.930 . S
H289 C299 0.930 . S
C290 H284 0.930 . S
C290 C291 1.355 . S
C290 C292 1.415 . S
C291 C290 1.355 . S
C291 C293 1.419 . S
C292 C290 1.415 . S
C292 C297 1.425 . S
C292 C299 1.409 . S
C293 H285 0.930 . S
C293 C291 1.419 . S
C293 C294 1.362 . S
C294 H286 0.930 . S
C294 C293 1.362 . S
C294 C297 1.409 . S
C295 H287 0.930 . S
C295 C296 1.355 . S
C295 C297 1.415 . S
C296 C295 1.355 . S
C296 C298 1.419 . S
C297 C292 1.425 . S
C297 C294 1.409 . S
C297 C295 1.415 . S
C298 H288 0.930 . S
C298 C296 1.419 . S
C298 C299 1.362 . S
C299 H289 0.930 . S
C299 C292 1.409 . S
C299 C298 1.362 . S
H300 C306 0.930 . S
H301 C309 0.930 . S
H302 C310 0.930 . S
H303 C311 0.930 . S
H304 C314 0.930 . S
H305 C315 0.930 . S
C306 H300 0.930 . S
C306 C307 1.355 . S
C306 C308 1.415 . S
C307 C306 1.355 . S
C307 C309 1.419 . S
C308 C306 1.415 . S
C308 C313 1.425 . S
C308 C315 1.409 . S
C309 H301 0.930 . S
C309 C307 1.419 . S
C309 C310 1.362 . S
C310 H302 0.930 . S
C310 C309 1.362 . S
C310 C313 1.409 . S
C311 H303 0.930 . S
C311 C312 1.355 . S
C311 C313 1.415 . S
C312 C311 1.355 . S
C312 C314 1.419 . S
C313 C308 1.425 . S
C313 C310 1.409 . S
C313 C311 1.415 . S
C314 H304 0.930 . S
C314 C312 1.419 . S
C314 C315 1.362 . S
C315 H305 0.930 . S
C315 C308 1.409 . S
C315 C314 1.362 . S
H316 C322 0.930 . S
H317 C325 0.930 . S
H318 C326 0.930 . S
H319 C327 0.930 . S
H320 C330 0.930 . S
H321 C331 0.930 . S
C322 H316 0.930 . S
C322 C323 1.355 . S
C322 C324 1.415 . S
C323 C322 1.355 . S
C323 C325 1.419 . S
C324 C322 1.415 . S
C324 C329 1.425 . S
C324 C331 1.409 . S
C325 H317 0.930 . S
C325 C323 1.419 . S
C325 C326 1.362 . S
C326 H318 0.930 . S
C326 C325 1.362 . S
C326 C329 1.409 . S
C327 H319 0.930 . S
C327 C328 1.355 . S
C327 C329 1.415 . S
C328 C327 1.355 . S
C328 C330 1.419 . S
C329 C324 1.425 . S
C329 C326 1.409 . S
C329 C327 1.415 . S
C330 H320 0.930 . S
C330 C328 1.419 . S
C330 C331 1.362 . S
C331 H321 0.930 . S
C331 C324 1.409 . S
C331 C330 1.362 . S
H332 C338 0.930 . S
H333 C341 0.930 . S
H334 C342 0.930 . S
H335 C343 0.930 . S
H336 C346 0.930 . S
H337 C347 0.930 . S
C338 H332 0.930 . S
C338 C339 1.355 . S
C338 C340 1.415 . S
C339 C338 1.355 . S
C339 C341 1.419 . S
C340 C338 1.415 . S
C340 C345 1.425 . S
C340 C347 1.409 . S
C341 H333 0.930 . S
C341 C339 1.419 . S
C341 C342 1.362 . S
C342 H334 0.930 . S
C342 C341 1.362 . S
C342 C345 1.409 . S
C343 H335 0.930 . S
C343 C344 1.355 . S
C343 C345 1.415 . S
C344 C343 1.355 . S
C344 C346 1.419 . S
C345 C340 1.425 . S
C345 C342 1.409 . S
C345 C343 1.415 . S
C346 H336 0.930 . S
C346 C344 1.419 . S
C346 C347 1.362 . S
C347 H337 0.930 . S
C347 C340 1.409 . S
C347 C346 1.362 . S
H348 C354 0.930 . S
H349 C357 0.930 . S
H350 C358 0.930 . S
H351 C359 0.930 . S
H352 C362 0.930 . S
H353 C363 0.930 . S
C354 H348 0.930 . S
C354 C355 1.355 . S
C354 C356 1.415 . S
C355 C354 1.355 . S
C355 C357 1.419 . S
C356 C354 1.415 . S
C356 C361 1.415 . S
C356 C363 1.409 1_655 S
C357 H349 0.930 . S
C357 C355 1.419 . S
C357 C358 1.362 . S
C358 H350 0.930 . S
C358 C357 1.362 . S
C358 C361 1.444 . S
C359 H351 0.930 . S
C359 C360 1.355 . S
C359 C361 1.390 1_455 S
C360 C359 1.355 . S
C360 C362 1.419 . S
C361 C356 1.415 . S
C361 C358 1.444 . S
C361 C359 1.390 1_655 S
C362 H352 0.930 . S
C362 C360 1.419 . S
C362 C363 1.362 . S
C363 H353 0.930 . S
C363 C356 1.409 1_455 S
C363 C362 1.362 . S
H364 C370 0.930 . S
H365 C373 0.930 . S
H366 C374 0.930 . S
H367 C375 0.930 . S
H368 C378 0.930 . S
H369 C379 0.930 . S
C370 H364 0.930 . S
C370 C371 1.355 . S
C370 C372 1.415 . S
C371 C370 1.355 . S
C371 C373 1.419 . S
C372 C370 1.415 . S
C372 C377 1.425 . S
C372 C379 1.409 . S
C373 H365 0.930 . S
C373 C371 1.419 . S
C373 C374 1.362 . S
C374 H366 0.930 . S
C374 C373 1.362 . S
C374 C377 1.409 . S
C375 H367 0.930 . S
C375 C376 1.355 . S
C375 C377 1.415 . S
C376 C375 1.355 . S
C376 C378 1.419 . S
C377 C372 1.425 . S
C377 C374 1.409 . S
C377 C375 1.415 . S
C378 H368 0.930 . S
C378 C376 1.419 . S
C378 C379 1.362 . S
C379 H369 0.930 . S
C379 C372 1.409 . S
C379 C378 1.362 . S
H380 C386 0.930 . S
H381 C389 0.930 . S
H382 C390 0.930 . S
H383 C391 0.930 . S
H384 C394 0.930 . S
H385 C395 0.930 . S
C386 H380 0.930 . S
C386 C387 1.355 . S
C386 C388 1.415 1_545 S
C387 C386 1.355 . S
C387 C389 1.419 . S
C388 C386 1.415 1_565 S
C388 C393 1.425 . S
C388 C395 1.409 . S
C389 H381 0.930 . S
C389 C387 1.419 . S
C389 C390 1.362 . S
C390 H382 0.930 . S
C390 C389 1.362 . S
C390 C393 1.409 1_545 S
C391 H383 0.930 . S
C391 C392 1.355 . S
C391 C393 1.415 . S
C392 C391 1.355 . S
C392 C394 1.419 . S
C393 C388 1.425 . S
C393 C390 1.409 1_565 S
C393 C391 1.415 . S
C394 H384 0.930 . S
C394 C392 1.419 . S
C394 C395 1.362 . S
C395 H385 0.930 . S
C395 C388 1.409 . S
C395 C394 1.362 . S
H396 C402 0.930 . S
H397 C405 0.930 . S
H398 C406 0.930 . S
H399 C407 0.930 . S
H400 C410 0.930 . S
H401 C411 0.930 . S
C402 H396 0.930 . S
C402 C403 1.355 . S
C402 C404 1.415 . S
C403 C402 1.355 . S
C403 C405 1.419 . S
C404 C402 1.415 . S
C404 C409 1.425 1_455 S
C404 C411 1.409 1_455 S
C405 H397 0.930 . S
C405 C403 1.419 . S
C405 C406 1.362 . S
C406 H398 0.930 . S
C406 C405 1.362 . S
C406 C409 1.409 1_455 S
C407 H399 0.930 . S
C407 C408 1.355 . S
C407 C409 1.415 . S
C408 C407 1.355 . S
C408 C410 1.419 . S
C409 C404 1.425 1_655 S
C409 C406 1.409 1_655 S
C409 C407 1.415 . S
C410 H400 0.930 . S
C410 C408 1.419 . S
C410 C411 1.362 . S
C411 H401 0.930 . S
C411 C404 1.409 1_655 S
C411 C410 1.362 . S
H412 C418 0.930 . S
H413 C421 0.930 . S
H414 C422 0.930 . S
H415 C423 0.930 . S
H416 C426 0.930 . S
H417 C427 0.930 . S
C418 H412 0.930 . S
C418 C419 1.355 . S
C418 C420 1.415 . S
C419 C418 1.355 . S
C419 C421 1.419 . S
C420 C418 1.415 . S
C420 C425 1.425 . S
C420 C427 1.409 . S
C421 H413 0.930 . S
C421 C419 1.419 . S
C421 C422 1.362 . S
C422 H414 0.930 . S
C422 C421 1.362 . S
C422 C425 1.409 . S
C423 H415 0.930 . S
C423 C424 1.355 . S
C423 C425 1.415 . S
C424 C423 1.355 . S
C424 C426 1.419 . S
C425 C420 1.425 . S
C425 C422 1.409 . S
C425 C423 1.415 . S
C426 H416 0.930 . S
C426 C424 1.419 . S
C426 C427 1.362 . S
C427 H417 0.930 . S
C427 C420 1.409 . S
C427 C426 1.362 . S
H428 C434 0.930 . S
H429 C437 0.930 . S
H430 C438 0.930 . S
H431 C439 0.930 . S
H432 C442 0.930 . S
H433 C443 0.930 . S
C434 H428 0.930 . S
C434 C435 1.355 . S
C434 C436 1.415 . S
C435 C434 1.355 . S
C435 C437 1.419 . S
C436 C434 1.415 . S
C436 C441 1.425 1_545 S
C436 C443 1.409 1_545 S
C437 H429 0.930 . S
C437 C435 1.419 . S
C437 C438 1.362 . S
C438 H430 0.930 . S
C438 C437 1.362 . S
C438 C441 1.409 1_545 S
C439 H431 0.930 . S
C439 C440 1.355 . S
C439 C441 1.415 . S
C440 C439 1.355 . S
C440 C442 1.419 . S
C441 C436 1.425 1_565 S
C441 C438 1.409 1_565 S
C441 C439 1.415 . S
C442 H432 0.930 . S
C442 C440 1.419 . S
C442 C443 1.362 . S
C443 H433 0.930 . S
C443 C436 1.409 1_565 S
C443 C442 1.362 . S
H444 C450 0.930 . S
H445 C453 0.930 . S
H446 C454 0.930 . S
H447 C455 0.930 . S
H448 C458 0.930 . S
H449 C459 0.930 . S
C450 H444 0.930 . S
C450 C451 1.355 . S
C450 C452 1.415 . S
C451 C450 1.355 . S
C451 C453 1.419 . S
C452 C450 1.415 . S
C452 C457 1.425 1_565 S
C452 C459 1.409 1_565 S
C453 H445 0.930 . S
C453 C451 1.419 . S
C453 C454 1.362 . S
C454 H446 0.930 . S
C454 C453 1.362 . S
C454 C457 1.409 1_565 S
C455 H447 0.930 . S
C455 C456 1.355 . S
C455 C457 1.415 . S
C456 C455 1.355 . S
C456 C458 1.419 . S
C457 C452 1.425 1_545 S
C457 C454 1.409 1_545 S
C457 C455 1.415 . S
C458 H448 0.930 . S
C458 C456 1.419 . S
C458 C459 1.362 . S
C459 H449 0.930 . S
C459 C452 1.409 1_545 S
C459 C458 1.362 . S
H460 C466 0.930 . S
H461 C469 0.930 . S
H462 C470 0.930 . S
H463 C471 0.930 . S
H464 C474 0.930 . S
H465 C475 0.930 . S
C466 H460 0.930 . S
C466 C467 1.355 . S
C466 C468 1.415 . S
C467 C466 1.355 . S
C467 C469 1.419 . S
C468 C466 1.415 . S
C468 C473 1.425 1_455 S
C468 C475 1.409 1_455 S
C469 H461 0.930 . S
C469 C467 1.419 . S
C469 C470 1.362 . S
C470 H462 0.930 . S
C470 C469 1.362 . S
C470 C473 1.409 1_455 S
C471 H463 0.930 . S
C471 C472 1.355 . S
C471 C473 1.415 . S
C472 C471 1.355 . S
C472 C474 1.419 . S
C473 C468 1.425 1_655 S
C473 C470 1.409 1_655 S
C473 C471 1.415 . S
C474 H464 0.930 . S
C474 C472 1.419 . S
C474 C475 1.362 . S
C475 H465 0.930 . S
C475 C468 1.409 1_655 S
C475 C474 1.362 . S
H476 C482 0.930 . S
H477 C485 0.930 . S
H478 C486 0.930 . S
H479 C487 0.930 . S
H480 C490 0.930 . S
H481 C491 0.930 . S
C482 H476 0.930 . S
C482 C483 1.355 . S
C482 C484 1.415 . S
C483 C482 1.355 . S
C483 C485 1.419 . S
C484 C482 1.415 . S
C484 C489 1.425 . S
C484 C491 1.409 . S
C485 H477 0.930 . S
C485 C483 1.419 . S
C485 C486 1.362 . S
C486 H478 0.930 . S
C486 C485 1.362 . S
C486 C489 1.409 . S
C487 H479 0.930 . S
C487 C488 1.355 . S
C487 C489 1.415 . S
C488 C487 1.355 . S
C488 C490 1.419 . S
C489 C484 1.425 . S
C489 C486 1.409 . S
C489 C487 1.415 . S
C490 H480 0.930 . S
C490 C488 1.419 . S
C490 C491 1.362 . S
C491 H481 0.930 . S
C491 C484 1.409 . S
C491 C490 1.362 . S
H492 C498 0.930 . S
H493 C501 0.930 . S
H494 C502 0.930 . S
H495 C503 0.930 . S
H496 C506 0.930 . S
H497 C507 0.930 . S
C498 H492 0.930 . S
C498 C499 1.355 . S
C498 C500 1.415 . S
C499 C498 1.355 . S
C499 C501 1.419 . S
C500 C498 1.415 . S
C500 C505 1.425 . S
C500 C507 1.409 . S
C501 H493 0.930 . S
C501 C499 1.419 . S
C501 C502 1.362 . S
C502 H494 0.930 . S
C502 C501 1.362 . S
C502 C505 1.409 . S
C503 H495 0.930 . S
C503 C504 1.355 . S
C503 C505 1.415 . S
C504 C503 1.355 . S
C504 C506 1.419 . S
C505 C500 1.425 . S
C505 C502 1.409 . S
C505 C503 1.415 . S
C506 H496 0.930 . S
C506 C504 1.419 . S
C506 C507 1.362 . S
C507 H497 0.930 . S
C507 C500 1.409 . S
C507 C506 1.362 . S
H508 C514 0.930 . S
H509 C517 0.930 . S
H510 C518 0.930 . S
H511 C519 0.930 . S
H512 C522 0.930 . S
H513 C523 0.930 . S
C514 H508 0.930 . S
C514 C515 1.355 . S
C514 C516 1.415 . S
C515 C514 1.355 . S
C515 C517 1.419 . S
C516 C514 1.415 . S
C516 C521 1.425 . S
C516 C523 1.409 . S
C517 H509 0.930 . S
C517 C515 1.419 . S
C517 C518 1.362 . S
C518 H510 0.930 . S
C518 C517 1.362 . S
C518 C521 1.409 . S
C519 H511 0.930 . S
C519 C520 1.355 . S
C519 C521 1.415 . S
C520 C519 1.355 . S
C520 C522 1.419 . S
C521 C516 1.425 . S
C521 C518 1.409 . S
C521 C519 1.415 . S
C522 H512 0.930 . S
C522 C520 1.419 . S
C522 C523 1.362 . S
C523 H513 0.930 . S
C523 C516 1.409 . S
C523 C522 1.362 . S
H524 C530 0.930 . S
H525 C533 0.930 . S
H526 C534 0.930 . S
H527 C535 0.930 . S
H528 C538 0.930 . S
H529 C539 0.930 . S
C530 H524 0.930 . S
C530 C531 1.355 . S
C530 C532 1.415 . S
C531 C530 1.355 . S
C531 C533 1.419 . S
C532 C530 1.415 . S
C532 C537 1.425 . S
C532 C539 1.409 . S
C533 H525 0.930 . S
C533 C531 1.419 . S
C533 C534 1.362 . S
C534 H526 0.930 . S
C534 C533 1.362 . S
C534 C537 1.409 . S
C535 H527 0.930 . S
C535 C536 1.355 . S
C535 C537 1.415 . S
C536 C535 1.355 . S
C536 C538 1.419 . S
C537 C532 1.425 . S
C537 C534 1.409 . S
C537 C535 1.415 . S
C538 H528 0.930 . S
C538 C536 1.419 . S
C538 C539 1.362 . S
C539 H529 0.930 . S
C539 C532 1.409 . S
C539 C538 1.362 . S
H540 C546 0.930 . S
H541 C549 0.930 . S
H542 C550 0.930 . S
H543 C551 0.930 . S
H544 C554 0.930 . S
H545 C555 0.930 . S
C546 H540 0.930 . S
C546 C547 1.355 . S
C546 C548 1.415 . S
C547 C546 1.355 . S
C547 C549 1.419 . S
C548 C546 1.415 . S
C548 C553 1.425 . S
C548 C555 1.409 . S
C549 H541 0.930 . S
C549 C547 1.419 . S
C549 C550 1.362 . S
C550 H542 0.930 . S
C550 C549 1.362 . S
C550 C553 1.409 . S
C551 H543 0.930 . S
C551 C552 1.355 . S
C551 C553 1.415 . S
C552 C551 1.355 . S
C552 C554 1.419 . S
C553 C548 1.425 . S
C553 C550 1.409 . S
C553 C551 1.415 . S
C554 H544 0.930 . S
C554 C552 1.419 . S
C554 C555 1.362 . S
C555 H545 0.930 . S
C555 C548 1.409 . S
C555 C554 1.362 . S
H556 C562 0.930 . S
H557 C565 0.930 . S
H558 C566 0.930 . S
H559 C567 0.930 . S
H560 C570 0.930 . S
H561 C571 0.930 . S
C562 H556 0.930 . S
C562 C563 1.355 . S
C562 C564 1.415 . S
C563 C562 1.355 . S
C563 C565 1.419 . S
C564 C562 1.415 . S
C564 C569 1.425 . S
C564 C571 1.409 . S
C565 H557 0.930 . S
C565 C563 1.419 . S
C565 C566 1.362 . S
C566 H558 0.930 . S
C566 C565 1.362 . S
C566 C569 1.409 . S
C567 H559 0.930 . S
C567 C568 1.355 . S
C567 C569 1.415 . S
C568 C567 1.355 . S
C568 C570 1.419 . S
C569 C564 1.425 . S
C569 C566 1.409 . S
C569 C567 1.415 . S
C570 H560 0.930 . S
C570 C568 1.419 . S
C570 C571 1.362 . S
C571 H561 0.930 . S
C571 C564 1.409 . S
C571 C570 1.362 . S
H572 C578 0.930 . S
H573 C581 0.930 . S
H574 C582 0.930 . S
H575 C583 0.930 . S
H576 C586 0.930 . S
H577 C587 0.930 . S
C578 H572 0.930 . S
C578 C579 1.355 . S
C578 C580 1.415 . S
C579 C578 1.355 . S
C579 C581 1.419 . S
C580 C578 1.415 . S
C580 C585 1.425 . S
C580 C587 1.409 . S
C581 H573 0.930 . S
C581 C579 1.419 . S
C581 C582 1.362 . S
C582 H574 0.930 . S
C582 C581 1.362 . S
C582 C585 1.409 . S
C583 H575 0.930 . S
C583 C584 1.355 . S
C583 C585 1.415 . S
C584 C583 1.355 . S
C584 C586 1.419 . S
C585 C580 1.425 . S
C585 C582 1.409 . S
C585 C583 1.415 . S
C586 H576 0.930 . S
C586 C584 1.419 . S
C586 C587 1.362 . S
C587 H577 0.930 . S
C587 C580 1.409 . S
C587 C586 1.362 . S
H588 C594 0.930 . S
H589 C597 0.930 . S
H590 C598 0.930 . S
H591 C599 0.930 . S
H592 C602 0.930 . S
H593 C603 0.930 . S
C594 H588 0.930 . S
C594 C595 1.355 . S
C594 C596 1.415 . S
C595 C594 1.355 . S
C595 C597 1.419 . S
C596 C594 1.415 . S
C596 C601 1.425 . S
C596 C603 1.409 . S
C597 H589 0.930 . S
C597 C595 1.419 . S
C597 C598 1.362 . S
C598 H590 0.930 . S
C598 C597 1.362 . S
C598 C601 1.409 . S
C599 H591 0.930 . S
C599 C600 1.355 . S
C599 C601 1.415 . S
C600 C599 1.355 . S
C600 C602 1.419 . S
C601 C596 1.425 . S
C601 C598 1.409 . S
C601 C599 1.415 . S
C602 H592 0.930 . S
C602 C600 1.419 . S
C602 C603 1.362 . S
C603 H593 0.930 . S
C603 C596 1.409 . S
C603 C602 1.362 . S
H604 C610 0.930 . S
H605 C613 0.930 . S
H606 C614 0.930 . S
H607 C615 0.930 . S
H608 C618 0.930 . S
H609 C619 0.930 . S
C610 H604 0.930 . S
C610 C611 1.355 . S
C610 C612 1.415 . S
C611 C610 1.355 . S
C611 C613 1.419 . S
C612 C610 1.415 . S
C612 C617 1.425 . S
C612 C619 1.409 . S
C613 H605 0.930 . S
C613 C611 1.419 . S
C613 C614 1.362 . S
C614 H606 0.930 . S
C614 C613 1.362 . S
C614 C617 1.409 . S
C615 H607 0.930 . S
C615 C616 1.355 . S
C615 C617 1.415 . S
C616 C615 1.355 . S
C616 C618 1.419 . S
C617 C612 1.425 . S
C617 C614 1.409 . S
C617 C615 1.415 . S
C618 H608 0.930 . S
C618 C616 1.419 . S
C618 C619 1.362 . S
C619 H609 0.930 . S
C619 C612 1.409 . S
C619 C618 1.362 . S
H620 C626 0.930 . S
H621 C629 0.930 . S
H622 C630 0.930 . S
H623 C631 0.930 . S
H624 C634 0.930 . S
H625 C635 0.930 . S
C626 H620 0.930 . S
C626 C627 1.355 . S
C626 C628 1.415 . S
C627 C626 1.355 . S
C627 C629 1.419 . S
C628 C626 1.415 . S
C628 C633 1.425 . S
C628 C635 1.409 . S
C629 H621 0.930 . S
C629 C627 1.419 . S
C629 C630 1.362 . S
C630 H622 0.930 . S
C630 C629 1.362 . S
C630 C633 1.409 . S
C631 H623 0.930 . S
C631 C632 1.355 . S
C631 C633 1.415 . S
C632 C631 1.355 . S
C632 C634 1.419 . S
C633 C628 1.425 . S
C633 C630 1.409 . S
C633 C631 1.415 . S
C634 H624 0.930 . S
C634 C632 1.419 . S
C634 C635 1.362 . S
C635 H625 0.930 . S
C635 C628 1.409 . S
C635 C634 1.362 . S
H636 C642 0.930 . S
H637 C645 0.930 . S
H638 C646 0.930 . S
H639 C647 0.930 . S
H640 C650 0.930 . S
H641 C651 0.930 . S
C642 H636 0.930 . S
C642 C643 1.355 . S
C642 C644 1.415 . S
C643 C642 1.355 . S
C643 C645 1.419 . S
C644 C642 1.415 . S
C644 C649 1.425 . S
C644 C651 1.409 . S
C645 H637 0.930 . S
C645 C643 1.419 . S
C645 C646 1.362 . S
C646 H638 0.930 . S
C646 C645 1.362 . S
C646 C649 1.409 . S
C647 H639 0.930 . S
C647 C648 1.355 . S
C647 C649 1.415 . S
C648 C647 1.355 . S
C648 C650 1.419 . S
C649 C644 1.425 . S
C649 C646 1.409 . S
C649 C647 1.415 . S
C650 H640 0.930 . S
C650 C648 1.419 . S
C650 C651 1.362 . S
C651 H641 0.930 . S
C651 C644 1.409 . S
C651 C650 1.362 . S
H652 C658 0.930 . S
H653 C661 0.930 . S
H654 C662 0.930 . S
H655 C663 0.930 . S
H656 C666 0.930 . S
H657 C667 0.930 . S
C658 H652 0.930 . S
C658 C659 1.355 . S
C658 C660 1.415 . S
C659 C658 1.355 . S
C659 C661 1.419 . S
C660 C658 1.415 . S
C660 C665 1.425 . S
C660 C667 1.409 . S
C661 H653 0.930 . S
C661 C659 1.419 . S
C661 C662 1.362 . S
C662 H654 0.930 . S
C662 C661 1.362 . S
C662 C665 1.409 . S
C663 H655 0.930 . S
C663 C664 1.355 . S
C663 C665 1.415 . S
C664 C663 1.355 . S
C664 C666 1.419 . S
C665 C660 1.425 . S
C665 C662 1.409 . S
C665 C663 1.415 . S
C666 H656 0.930 . S
C666 C664 1.419 . S
C666 C667 1.362 . S
C667 H657 0.930 . S
C667 C660 1.409 . S
C667 C666 1.362 . S
H668 C674 0.930 . S
H669 C677 0.930 . S
H670 C678 0.930 . S
H671 C679 0.930 . S
H672 C682 0.930 . S
H673 C683 0.930 . S
C674 H668 0.930 . S
C674 C675 1.355 . S
C674 C676 1.415 . S
C675 C674 1.355 . S
C675 C677 1.419 . S
C676 C674 1.415 . S
C676 C681 1.425 . S
C676 C683 1.409 . S
C677 H669 0.930 . S
C677 C675 1.419 . S
C677 C678 1.362 . S
C678 H670 0.930 . S
C678 C677 1.362 . S
C678 C681 1.409 . S
C679 H671 0.930 . S
C679 C680 1.355 . S
C679 C681 1.415 . S
C680 C679 1.355 . S
C680 C682 1.419 . S
C681 C676 1.425 . S
C681 C678 1.409 . S
C681 C679 1.415 . S
C682 H672 0.930 . S
C682 C680 1.419 . S
C682 C683 1.362 . S
C683 H673 0.930 . S
C683 C676 1.409 . S
C683 C682 1.362 . S
H684 C690 0.930 . S
H685 C693 0.930 . S
H686 C694 0.930 1_556 S
H687 C695 0.930 . S
H688 C698 0.930 . S
H689 C699 0.930 1_554 S
C690 H684 0.930 . S
C690 C691 1.355 . S
C690 C692 1.415 . S
C691 C690 1.355 . S
C691 C693 1.419 . S
C692 C690 1.415 . S
C692 C697 1.425 1_554 S
C692 C699 1.409 1_554 S
C693 H685 0.930 . S
C693 C691 1.419 . S
C693 C694 1.362 . S
C694 H686 0.930 1_554 S
C694 C693 1.362 . S
C694 C697 1.409 1_554 S
C695 H687 0.930 . S
C695 C696 1.355 . S
C695 C697 1.415 . S
C696 C695 1.355 . S
C696 C698 1.419 . S
C697 C692 1.425 1_556 S
C697 C694 1.409 1_556 S
C697 C695 1.415 . S
C698 H688 0.930 . S
C698 C696 1.419 . S
C698 C699 1.362 . S
C699 H689 0.930 1_556 S
C699 C692 1.409 1_556 S
C699 C698 1.362 . S
H700 C706 0.930 . S
H701 C709 0.930 . S
H702 C710 0.930 . S
H703 C711 0.930 . S
H704 C714 0.930 . S
H705 C715 0.930 . S
C706 H700 0.930 . S
C706 C707 1.355 . S
C706 C708 1.467 . S
C707 C706 1.355 . S
C707 C709 1.419 1_545 S
C708 C706 1.467 . S
C708 C713 1.420 1_546 S
C708 C715 1.362 1_556 S
C709 H701 0.930 . S
C709 C707 1.419 1_565 S
C709 C710 1.362 . S
C710 H702 0.930 . S
C710 C709 1.362 . S
C710 C713 1.361 1_556 S
C711 H703 0.930 . S
C711 C712 1.355 . S
C711 C713 1.468 . S
C712 C711 1.355 . S
C712 C714 1.419 1_565 S
C713 C708 1.420 1_564 S
C713 C710 1.361 1_554 S
C713 C711 1.468 . S
C714 H704 0.930 . S
C714 C712 1.419 1_545 S
C714 C715 1.362 . S
C715 H705 0.930 . S
C715 C708 1.362 1_554 S
C715 C714 1.362 . S
H716 C722 0.930 . S
H717 C725 0.930 . S
H718 C726 0.930 . S
H719 C727 0.930 . S
H720 C730 0.930 . S
H721 C731 0.930 . S
C722 H716 0.930 . S
C722 C723 1.355 . S
C722 C724 1.415 . S
C723 C722 1.355 . S
C723 C725 1.419 1_655 S
C724 C722 1.415 . S
C724 C729 1.425 1_656 S
C724 C731 1.409 1_556 S
C725 H717 0.930 . S
C725 C723 1.419 1_455 S
C725 C726 1.362 . S
C726 H718 0.930 . S
C726 C725 1.362 . S
C726 C729 1.409 1_556 S
C727 H719 0.930 . S
C727 C728 1.355 . S
C727 C729 1.415 . S
C728 C727 1.355 . S
C728 C730 1.419 1_455 S
C729 C724 1.425 1_454 S
C729 C726 1.409 1_554 S
C729 C727 1.415 . S
C730 H720 0.930 . S
C730 C728 1.419 1_655 S
C730 C731 1.362 . S
C731 H721 0.930 . S
C731 C724 1.409 1_554 S
C731 C730 1.362 . S
H732 C738 0.930 . S
H733 C741 0.930 . S
H734 C742 0.930 . S
H735 C743 0.930 . S
H736 C746 0.930 . S
H737 C747 0.930 . S
C738 H732 0.930 . S
C738 C739 1.355 . S
C738 C740 1.415 . S
C739 C738 1.355 . S
C739 C741 1.419 . S
C740 C738 1.415 . S
C740 C745 1.425 . S
C740 C747 1.409 . S
C741 H733 0.930 . S
C741 C739 1.419 . S
C741 C742 1.362 . S
C742 H734 0.930 . S
C742 C741 1.362 . S
C742 C745 1.409 . S
C743 H735 0.930 . S
C743 C744 1.355 . S
C743 C745 1.415 . S
C744 C743 1.355 . S
C744 C746 1.419 . S
C745 C740 1.425 . S
C745 C742 1.409 . S
C745 C743 1.415 . S
C746 H736 0.930 . S
C746 C744 1.419 . S
C746 C747 1.362 . S
C747 H737 0.930 . S
C747 C740 1.409 . S
C747 C746 1.362 . S
H748 C754 0.930 . S
H749 C757 0.930 . S
H750 C758 0.930 . S
H751 C759 0.930 . S
H752 C762 0.930 . S
H753 C763 0.930 . S
C754 H748 0.930 . S
C754 C755 1.355 . S
C754 C756 1.415 . S
C755 C754 1.355 . S
C755 C757 1.419 . S
C756 C754 1.415 . S
C756 C761 1.425 . S
C756 C763 1.409 . S
C757 H749 0.930 . S
C757 C755 1.419 . S
C757 C758 1.362 . S
C758 H750 0.930 . S
C758 C757 1.362 . S
C758 C761 1.409 . S
C759 H751 0.930 . S
C759 C760 1.355 . S
C759 C761 1.415 . S
C760 C759 1.355 . S
C760 C762 1.419 . S
C761 C756 1.425 . S
C761 C758 1.409 . S
C761 C759 1.415 . S
C762 H752 0.930 . S
C762 C760 1.419 . S
C762 C763 1.362 . S
C763 H753 0.930 . S
C763 C756 1.409 . S
C763 C762 1.362 . S
H764 C770 0.930 . S
H765 C773 0.930 . S
H766 C774 0.930 . S
H767 C775 0.930 . S
H768 C778 0.930 . S
H769 C779 0.930 . S
C770 H764 0.930 . S
C770 C771 1.355 . S
C770 C772 1.415 . S
C771 C770 1.355 . S
C771 C773 1.419 . S
C772 C770 1.415 . S
C772 C777 1.425 . S
C772 C779 1.409 . S
C773 H765 0.930 . S
C773 C771 1.419 . S
C773 C774 1.362 . S
C774 H766 0.930 . S
C774 C773 1.362 . S
C774 C777 1.409 . S
C775 H767 0.930 . S
C775 C776 1.355 . S
C775 C777 1.415 . S
C776 C775 1.355 . S
C776 C778 1.419 . S
C777 C772 1.425 . S
C777 C774 1.409 . S
C777 C775 1.415 . S
C778 H768 0.930 . S
C778 C776 1.419 . S
C778 C779 1.362 . S
C779 H769 0.930 . S
C779 C772 1.409 . S
C779 C778 1.362 . S
H780 C786 0.930 . S
H781 C789 0.930 . S
H782 C790 0.930 . S
H783 C791 0.930 . S
H784 C794 0.930 . S
H785 C795 0.930 . S
C786 H780 0.930 . S
C786 C787 1.355 . S
C786 C788 1.415 . S
C787 C786 1.355 . S
C787 C789 1.419 . S
C788 C786 1.415 . S
C788 C793 1.425 . S
C788 C795 1.409 . S
C789 H781 0.930 . S
C789 C787 1.419 . S
C789 C790 1.362 . S
C790 H782 0.930 . S
C790 C789 1.362 . S
C790 C793 1.409 . S
C791 H783 0.930 . S
C791 C792 1.355 . S
C791 C793 1.415 . S
C792 C791 1.355 . S
C792 C794 1.419 . S
C793 C788 1.425 . S
C793 C790 1.409 . S
C793 C791 1.415 . S
C794 H784 0.930 . S
C794 C792 1.419 . S
C794 C795 1.362 . S
C795 H785 0.930 . S
C795 C788 1.409 . S
C795 C794 1.362 . S
H796 C802 0.930 . S
H797 C805 0.930 . S
H798 C806 0.930 . S
H799 C807 0.930 . S
H800 C810 0.930 . S
H801 C811 0.930 . S
C802 H796 0.930 . S
C802 C803 1.355 . S
C802 C804 1.415 . S
C803 C802 1.355 . S
C803 C805 1.419 . S
C804 C802 1.415 . S
C804 C809 1.425 . S
C804 C811 1.409 . S
C805 H797 0.930 . S
C805 C803 1.419 . S
C805 C806 1.362 . S
C806 H798 0.930 . S
C806 C805 1.362 . S
C806 C809 1.409 . S
C807 H799 0.930 . S
C807 C808 1.355 . S
C807 C809 1.415 . S
C808 C807 1.355 . S
C808 C810 1.419 . S
C809 C804 1.425 . S
C809 C806 1.409 . S
C809 C807 1.415 . S
C810 H800 0.930 . S
C810 C808 1.419 . S
C810 C811 1.362 . S
C811 H801 0.930 . S
C811 C804 1.409 . S
C811 C810 1.362 . S
H812 C818 0.930 . S
H813 C821 0.930 . S
H814 C822 0.930 . S
H815 C823 0.930 . S
H816 C826 0.930 . S
H817 C827 0.930 . S
C818 H812 0.930 . S
C818 C819 1.355 . S
C818 C820 1.415 . S
C819 C818 1.355 . S
C819 C821 1.419 . S
C820 C818 1.415 . S
C820 C825 1.425 . S
C820 C827 1.409 . S
C821 H813 0.930 . S
C821 C819 1.419 . S
C821 C822 1.362 . S
C822 H814 0.930 . S
C822 C821 1.362 . S
C822 C825 1.409 . S
C823 H815 0.930 . S
C823 C824 1.355 . S
C823 C825 1.415 . S
C824 C823 1.355 . S
C824 C826 1.419 . S
C825 C820 1.425 . S
C825 C822 1.409 . S
C825 C823 1.415 . S
C826 H816 0.930 . S
C826 C824 1.419 . S
C826 C827 1.362 . S
C827 H817 0.930 . S
C827 C820 1.409 . S
C827 C826 1.362 . S
C259 C146 1.212 . S
C264 C6 1.206 . S
C275 C20 1.203 . S
C280 C160 1.210 . S
C291 C132 1.210 . S
C296 C34 1.215 . S
C307 C202 1.189 . S
C312 C48 1.185 . S
C323 C62 1.193 . S
C328 C174 1.201 . S
C339 C188 1.199 . S
C344 C76 1.206 . S
C355 C90 1.185 . S
C360 C230 1.189 . S
C371 C244 1.216 . S
C376 C104 1.213 . S
C387 C118 1.185 . S
C392 C216 1.185 . S
C403 C9 1.290 . S
C408 C22 1.293 . S
C419 C23 1.210 . S
C424 C36 1.306 . S
C435 C8 1.275 . S
C440 C37 1.273 . S
C451 C78 1.302 . S
C456 C51 1.213 . S
C467 C50 1.280 . S
C472 C65 1.297 . S
C483 C79 1.239 . S
C488 C64 1.285 . S
C499 C93 1.245 . S
C504 C106 1.283 . S
C515 C107 1.276 . S
C520 C120 1.275 . S
C531 C92 1.302 . S
C536 C121 1.212 . S
C547 C162 1.278 . S
C552 C135 1.296 . S
C563 C134 1.281 . S
C568 C149 1.297 . S
C579 C148 1.306 . S
C584 C163 1.210 . S
C595 C190 1.301 . S
C600 C177 1.275 . S
C611 C204 1.295 . S
C616 C191 1.221 . S
C627 C176 1.288 . S
C632 C205 1.294 . S
C643 C219 1.213 . S
C648 C246 1.313 . S
C659 C233 1.210 . S
C664 C218 1.306 . S
C675 C247 1.209 . S
C680 C232 1.308 . S
C691 C7 1.710 . S
C696 C49 1.670 . S
C707 C63 1.621 . S
C712 C21 1.650 . S
C723 C77 1.642 . S
C728 C35 1.627 . S
C739 C133 1.622 . S
C744 C91 1.693 . S
C755 C147 1.693 . S
C760 C105 1.698 . S
C771 C119 1.640 . S
C776 C161 1.628 . S
C787 C217 1.710 . S
C792 C175 1.644 . S
C803 C231 1.709 . S
C808 C189 1.674 . S
C819 C245 1.632 . S
C824 C203 1.635 . S
