# Generated by pormake.
# Topology fnj, (5)-cn, num edge types: 1
# Building blocks:
#     Node 0, Type 0, BuildingBlock: XOMCOT_clean_sbu_0, # of connection points: 5
#     Node 1, Type 0, BuildingBlock: XOMCOT_clean_sbu_0, # of connection points: 5
#     Node 2, Type 0, BuildingBlock: XOMCOT_clean_sbu_0, # of connection points: 5
#     Node 3, Type 0, BuildingBlock: XOMCOT_clean_sbu_0, # of connection points: 5
#     Node 4, Type 0, BuildingBlock: XOMCOT_clean_sbu_0, # of connection points: 5
#     Node 5, Type 0, BuildingBlock: XOMCOT_clean_sbu_0, # of connection points: 5
#     Node 6, Type 0, BuildingBlock: XOMCOT_clean_sbu_0, # of connection points: 5
#     Node 7, Type 0, BuildingBlock: XOMCOT_clean_sbu_0, # of connection points: 5
#     Node 8, Type 0, BuildingBlock: XOMCOT_clean_sbu_0, # of connection points: 5
#     Node 9, Type 0, BuildingBlock: XOMCOT_clean_sbu_0, # of connection points: 5
#     Node 10, Type 0, BuildingBlock: XOMCOT_clean_sbu_0, # of connection points: 5
#     Node 11, Type 0, BuildingBlock: XOMCOT_clean_sbu_0, # of connection points: 5
#     Node 12, Type 0, BuildingBlock: XOMCOT_clean_sbu_0, # of connection points: 5
#     Node 13, Type 0, BuildingBlock: XOMCOT_clean_sbu_0, # of connection points: 5
#     Node 14, Type 0, BuildingBlock: XOMCOT_clean_sbu_0, # of connection points: 5
#     Node 15, Type 0, BuildingBlock: XOMCOT_clean_sbu_0, # of connection points: 5
#     Edge 16, Type (0, 0), BuildingBlock: AJUNOK_clean_linker_0, # of connection points: 2
#     Edge 17, Type (0, 0), BuildingBlock: AJUNOK_clean_linker_0, # of connection points: 2
#     Edge 18, Type (0, 0), BuildingBlock: AJUNOK_clean_linker_0, # of connection points: 2
#     Edge 19, Type (0, 0), BuildingBlock: AJUNOK_clean_linker_0, # of connection points: 2
#     Edge 20, Type (0, 0), BuildingBlock: AJUNOK_clean_linker_0, # of connection points: 2
#     Edge 21, Type (0, 0), BuildingBlock: AJUNOK_clean_linker_0, # of connection points: 2
#     Edge 22, Type (0, 0), BuildingBlock: AJUNOK_clean_linker_0, # of connection points: 2
#     Edge 23, Type (0, 0), BuildingBlock: AJUNOK_clean_linker_0, # of connection points: 2
#     Edge 24, Type (0, 0), BuildingBlock: AJUNOK_clean_linker_0, # of connection points: 2
#     Edge 25, Type (0, 0), BuildingBlock: AJUNOK_clean_linker_0, # of connection points: 2
#     Edge 26, Type (0, 0), BuildingBlock: AJUNOK_clean_linker_0, # of connection points: 2
#     Edge 27, Type (0, 0), BuildingBlock: AJUNOK_clean_linker_0, # of connection points: 2
#     Edge 28, Type (0, 0), BuildingBlock: AJUNOK_clean_linker_0, # of connection points: 2
#     Edge 29, Type (0, 0), BuildingBlock: AJUNOK_clean_linker_0, # of connection points: 2
#     Edge 30, Type (0, 0), BuildingBlock: AJUNOK_clean_linker_0, # of connection points: 2
#     Edge 31, Type (0, 0), BuildingBlock: AJUNOK_clean_linker_0, # of connection points: 2
#     Edge 32, Type (0, 0), BuildingBlock: AJUNOK_clean_linker_0, # of connection points: 2
#     Edge 33, Type (0, 0), BuildingBlock: AJUNOK_clean_linker_0, # of connection points: 2
#     Edge 34, Type (0, 0), BuildingBlock: AJUNOK_clean_linker_0, # of connection points: 2
#     Edge 35, Type (0, 0), BuildingBlock: AJUNOK_clean_linker_0, # of connection points: 2
#     Edge 36, Type (0, 0), BuildingBlock: AJUNOK_clean_linker_0, # of connection points: 2
#     Edge 37, Type (0, 0), BuildingBlock: AJUNOK_clean_linker_0, # of connection points: 2
#     Edge 38, Type (0, 0), BuildingBlock: AJUNOK_clean_linker_0, # of connection points: 2
#     Edge 39, Type (0, 0), BuildingBlock: AJUNOK_clean_linker_0, # of connection points: 2
#     Edge 40, Type (0, 0), BuildingBlock: AJUNOK_clean_linker_0, # of connection points: 2
#     Edge 41, Type (0, 0), BuildingBlock: AJUNOK_clean_linker_0, # of connection points: 2
#     Edge 42, Type (0, 0), BuildingBlock: AJUNOK_clean_linker_0, # of connection points: 2
#     Edge 43, Type (0, 0), BuildingBlock: AJUNOK_clean_linker_0, # of connection points: 2
#     Edge 44, Type (0, 0), BuildingBlock: AJUNOK_clean_linker_0, # of connection points: 2
#     Edge 45, Type (0, 0), BuildingBlock: AJUNOK_clean_linker_0, # of connection points: 2
#     Edge 46, Type (0, 0), BuildingBlock: AJUNOK_clean_linker_0, # of connection points: 2
#     Edge 47, Type (0, 0), BuildingBlock: AJUNOK_clean_linker_0, # of connection points: 2
#     Edge 48, Type (0, 0), BuildingBlock: AJUNOK_clean_linker_0, # of connection points: 2
#     Edge 49, Type (0, 0), BuildingBlock: AJUNOK_clean_linker_0, # of connection points: 2
#     Edge 50, Type (0, 0), BuildingBlock: AJUNOK_clean_linker_0, # of connection points: 2
#     Edge 51, Type (0, 0), BuildingBlock: AJUNOK_clean_linker_0, # of connection points: 2
#     Edge 52, Type (0, 0), BuildingBlock: AJUNOK_clean_linker_0, # of connection points: 2
#     Edge 53, Type (0, 0), BuildingBlock: AJUNOK_clean_linker_0, # of connection points: 2
#     Edge 54, Type (0, 0), BuildingBlock: AJUNOK_clean_linker_0, # of connection points: 2
#     Edge 55, Type (0, 0), BuildingBlock: AJUNOK_clean_linker_0, # of connection points: 2
# Relax obj value: 0.069
# Max RMSD: 0.157
# Mean RMSD: 0.156
data_MOF--net-fnj--node1-XOMCOT_clean_sbu_0--edge1-AJUNOK_clean_linker_0
_symmetry_space_group_name_H-M    P1
_symmetry_Int_Tables_number       1
_symmetry_cell_setting            triclinic
loop_
_symmetry_equiv_pos_as_xyz
'x, y, z'
_cell_length_a     58.490552
_cell_length_b     58.446693
_cell_length_c     13.599493
_cell_angle_alpha  90.474036
_cell_angle_beta   90.559875
_cell_angle_gamma 90.179514
loop_
_atom_site_label
_atom_site_type_symbol
_atom_site_fract_x
_atom_site_fract_y
_atom_site_fract_z
_atom_type_partial_charge
Co0 Co 0.37599 1.00628 0.03286 0.0
C1 C 0.37821 0.00961 0.81395 0.0
C2 C 0.35236 0.03127 0.87394 0.0
C3 C 0.35059 0.03171 0.77288 0.0
N4 N 0.37006 0.01781 0.90034 0.0
N5 N 0.36668 0.0178 0.73504 0.0
H6 H 0.39103 0.99649 0.80811 0.0
H7 H 0.34062 0.03923 0.92458 0.0
C8 C 0.36868 0.05754 0.06894 0.0
O9 O 0.37988 0.06378 0.99026 0.0
N10 N 0.38136 0.99467 0.1643 0.0
C11 C 0.39735 0.97948 0.19258 0.0
C12 C 0.39759 0.97841 0.29405 0.0
C13 C 0.37193 1.00238 0.24861 0.0
N14 N 0.38156 0.99282 0.32911 0.0
C15 C 0.42085 0.99736 0.96513 0.0
C16 C 0.44379 0.03072 0.07181 0.0
C17 C 0.4563 0.01568 1.01187 0.0
C18 C 0.44447 0.99884 0.95869 0.0
C19 C 0.41985 0.02873 0.07567 0.0
N20 N 0.40863 0.01237 0.02119 0.0
H21 H 0.41265 0.9833 0.9274 0.0
H22 H 0.4106 0.03978 0.12508 0.0
H23 H 0.40866 0.97049 0.14322 0.0
H24 H 0.35908 0.01557 0.25144 0.0
O25 O 0.37528 0.97552 0.9801 0.0
O26 O 0.34521 0.99472 0.03384 0.0
O27 O 0.36839 0.03664 0.09476 0.0
C28 C 0.35329 0.97646 0.99169 0.0
H29 H 0.338 0.04114 0.73106 0.0
H30 H 0.40899 0.96818 0.33868 0.0
H31 H 0.45244 0.04364 0.11604 0.0
H32 H 0.45349 0.98624 0.91509 0.0
Co33 Co 0.26177 0.13173 0.26457 0.0
C34 C 0.26142 0.13102 0.04499 0.0
C35 C 0.2342 0.11079 0.10225 0.0
C36 C 0.23387 0.10877 1.00118 0.0
N37 N 0.2511 0.12533 0.13021 0.0
N38 N 0.25105 0.12152 0.96555 0.0
H39 H 0.27717 0.14057 0.04021 0.0
H40 H 0.22343 0.10125 0.15122 0.0
C41 C 0.21026 0.12522 0.30606 0.0
O42 O 0.20427 0.14162 0.24571 0.0
N43 N 0.27247 0.13735 0.39758 0.0
C44 C 0.2884 0.15267 0.42708 0.0
C45 C 0.28986 0.15235 0.52833 0.0
C46 C 0.26457 0.12783 0.48076 0.0
N47 N 0.27489 0.13668 0.56195 0.0
C48 C 0.26457 0.17672 0.18773 0.0
C49 C 0.2383 0.19924 0.32483 0.0
C50 C 0.24981 0.21217 0.25357 0.0
C51 C 0.263 0.20043 0.18484 0.0
C52 C 0.24016 0.17511 0.32443 0.0
N53 N 0.25303 0.16406 0.25521 0.0
H54 H 0.27657 0.16888 0.13916 0.0
H55 H 0.23215 0.16549 0.38232 0.0
H56 H 0.29785 0.16372 0.37854 0.0
H57 H 0.2509 0.11535 0.48215 0.0
O58 O 0.2928 0.13479 0.21723 0.0
O59 O 0.27702 0.10234 0.26421 0.0
O60 O 0.23144 0.12069 0.31987 0.0
C61 C 0.29476 0.11286 0.22862 0.0
H62 H 0.22205 0.09852 0.95762 0.0
H63 H 0.30088 0.16304 0.57379 0.0
H64 H 0.22829 0.20768 0.3809 0.0
H65 H 0.27303 0.20963 0.13138 0.0
Co66 Co 0.1375 0.00859 0.51918 0.0
C67 C 0.13855 0.00862 0.73849 0.0
C68 C 0.15458 0.03868 0.68253 0.0
C69 C 0.15647 0.03906 0.78361 0.0
N70 N 0.14282 0.0198 0.65366 0.0
N71 N 0.14639 0.0201 0.8184 0.0
H72 H 0.13081 0.99185 0.74254 0.0
H73 H 0.16225 0.05105 0.63462 0.0
C74 C 0.14331 0.05983 0.46445 0.0
O75 O 0.12474 0.06637 0.51016 0.0
N76 N 0.13289 0.99733 0.38616 0.0
C77 C 0.11912 0.98001 0.35694 0.0
C78 C 0.11966 0.97841 0.25581 0.0
C79 C 0.14166 1.00596 0.30278 0.0
N80 N 0.13386 0.99474 0.22185 0.0
C81 C 0.09234 1.00669 0.59379 0.0
C82 C 0.07003 0.02794 0.44042 0.0
C83 C 0.05685 0.0164 0.51099 0.0
C84 C 0.06854 1.00622 0.58932 0.0
C85 C 0.09414 0.02786 0.44731 0.0
N86 N 0.10509 0.01713 0.52338 0.0
H87 H 0.10036 0.99679 0.65027 0.0
H88 H 0.10394 0.03528 0.38856 0.0
H89 H 0.10893 0.96966 0.40553 0.0
H90 H 0.15272 0.02077 0.30094 0.0
O91 O 0.13408 0.97768 0.56805 0.0
O92 O 0.16686 0.99338 0.52443 0.0
O93 O 0.14909 0.03872 0.4637 0.0
C94 C 0.15607 0.97569 0.55902 0.0
H95 H 0.16471 0.05224 0.82784 0.0
H96 H 0.11007 0.96635 0.2107 0.0
H97 H 0.06191 0.03646 0.37906 0.0
H98 H 0.05947 0.99662 0.64453 0.0
Co99 Co 0.262 0.89269 0.74244 0.0
C100 C 0.25748 0.88964 0.96086 0.0
C101 C 0.23919 0.91806 0.90121 0.0
C102 C 0.23836 0.91943 1.00228 0.0
N103 N 0.25077 0.89908 0.87464 0.0
N104 N 0.24991 0.90155 0.03967 0.0
H105 H 0.26868 0.87513 0.96708 0.0
H106 H 0.23296 0.93085 0.85061 0.0
C107 C 0.211 0.9008 0.71254 0.0
O108 O 0.20557 0.89032 0.79418 0.0
N109 N 0.27324 0.88693 0.61109 0.0
C110 C 0.28726 0.87005 0.58142 0.0
C111 C 0.28761 0.8697 0.47987 0.0
C112 C 0.26561 0.89681 0.52769 0.0
N113 N 0.27371 0.88635 0.44616 0.0
C114 C 0.27126 0.84773 0.80911 0.0
C115 C 0.23731 0.82493 0.70528 0.0
C116 C 0.2534 0.81227 0.75931 0.0
C117 C 0.27017 0.82404 0.81306 0.0
C118 C 0.23896 0.84892 0.70349 0.0
N119 N 0.25577 0.86006 0.75573 0.0
H120 H 0.28535 0.85595 0.84676 0.0
H121 H 0.22735 0.85827 0.65677 0.0
H122 H 0.29579 0.85815 0.62982 0.0
H123 H 0.25409 0.91117 0.5269 0.0
O124 O 0.29283 0.89336 0.79423 0.0
O125 O 0.27375 0.92341 0.7392 0.0
O126 O 0.23148 0.90025 0.68157 0.0
C127 C 0.29203 0.91533 0.78128 0.0
H128 H 0.23117 0.93334 0.04481 0.0
H129 H 0.29653 0.85741 0.4344 0.0
H130 H 0.22417 0.81634 0.66201 0.0
H131 H 0.28277 0.81494 0.85654 0.0
Co132 Co 0.63604 0.0194 0.98474 0.0
C133 C 0.63333 0.01516 0.20348 0.0
C134 C 0.66162 0.99674 0.14373 0.0
C135 C 0.66303 0.99586 0.24481 0.0
N136 N 0.64269 0.00843 0.11725 0.0
N137 N 0.64522 0.00748 0.28221 0.0
H138 H 0.61885 0.02637 0.20986 0.0
H139 H 0.67428 0.99039 0.09303 0.0
C140 C 0.64344 0.96826 0.95819 0.0
O141 O 0.63272 0.96344 0.03992 0.0
N142 N 0.63008 0.03037 0.85316 0.0
C143 C 0.6133 0.0445 0.82325 0.0
C144 C 0.61298 0.04483 0.72172 0.0
C145 C 0.63992 0.02264 0.77002 0.0
N146 N 0.62955 0.03082 0.68835 0.0
C147 C 0.59133 0.02903 0.05354 0.0
C148 C 0.56812 0.99539 0.94959 0.0
C149 C 0.55568 0.01126 1.0057 0.0
C150 C 0.56765 0.02798 0.0589 0.0
C151 C 0.59208 0.99687 0.94712 0.0
N152 N 0.60344 0.01348 0.99961 0.0
H153 H 0.59972 0.04317 0.09012 0.0
H154 H 0.60125 0.9853 0.89965 0.0
H155 H 0.6015 0.05316 0.8715 0.0
H156 H 0.65422 0.01101 0.76957 0.0
O157 O 0.63714 0.05042 0.03501 0.0
O158 O 0.66675 0.03085 0.97923 0.0
O159 O 0.64325 0.98861 0.92528 0.0
C160 C 0.65904 0.04935 1.02071 0.0
H161 H 0.67687 0.98852 0.28735 0.0
H162 H 0.60081 0.05387 0.676 0.0
H163 H 0.5594 0.98227 0.90667 0.0
H164 H 0.55869 0.04091 0.101 0.0
Co165 Co 0.75049 0.89131 0.78306 0.0
C166 C 0.75352 0.8896 1.0029 0.0
C167 C 0.77295 0.91715 0.94291 0.0
C168 C 0.7739 0.91885 0.04388 0.0
N169 N 0.76062 0.89847 0.91675 0.0
N170 N 0.76167 0.90149 0.08132 0.0
H171 H 0.74179 0.87551 1.00952 0.0
H172 H 0.77981 0.92945 0.892 0.0
C173 C 0.80187 0.89894 0.7637 0.0
O174 O 0.80535 0.88543 0.83907 0.0
N175 N 0.74043 0.88501 0.65006 0.0
C176 C 0.72616 0.86828 0.6189 0.0
C177 C 0.7257 0.8682 0.51746 0.0
C178 C 0.74821 0.89502 0.56794 0.0
N179 N 0.73978 0.88486 0.48564 0.0
C180 C 0.74428 0.8457 0.85189 0.0
C181 C 0.77505 0.82396 0.7311 0.0
C182 C 0.76026 0.8105 0.78815 0.0
C183 C 0.74514 0.82188 0.85035 0.0
C184 C 0.77381 0.84809 0.73564 0.0
N185 N 0.75853 0.85879 0.79605 0.0
H186 H 0.73067 0.85334 0.89299 0.0
H187 H 0.78417 0.858 0.68623 0.0
H188 H 0.71737 0.85648 0.66641 0.0
H189 H 0.75993 0.90936 0.56863 0.0
O190 O 0.71925 0.88921 0.82843 0.0
O191 O 0.73568 0.92105 0.7785 0.0
O192 O 0.78151 0.90136 0.7299 0.0
C193 C 0.71768 0.91105 0.81437 0.0
H194 H 0.78183 0.93255 0.0862 0.0
H195 H 0.71643 0.85622 0.47072 0.0
H196 H 0.78705 0.81597 0.68153 0.0
H197 H 0.7329 0.8124 0.89351 0.0
Co198 Co 0.87669 0.01261 0.53307 0.0
C199 C 0.87735 0.01253 0.31476 0.0
C200 C 0.85155 0.99011 0.37031 0.0
C201 C 0.85005 0.99004 0.269 0.0
N202 N 0.86884 1.00406 0.3989 0.0
N203 N 0.86642 1.00402 0.23457 0.0
H204 H 0.89055 0.02541 0.31149 0.0
H205 H 0.84036 0.98109 0.41958 0.0
C206 C 0.87085 0.96725 0.64937 0.0
O207 O 0.88686 0.97264 0.71396 0.0
N208 N 0.88425 0.02169 0.66685 0.0
C209 C 0.90244 0.03449 0.69445 0.0
C210 C 0.90276 0.03653 0.79514 0.0
C211 C 0.87313 0.01703 0.75103 0.0
N212 N 0.88465 0.02505 0.83095 0.0
C213 C 0.92141 0.02285 0.46223 0.0
C214 C 0.94494 0.98618 0.53811 0.0
C215 C 0.95729 1.00405 0.49468 0.0
C216 C 0.94511 0.02211 0.45397 0.0
C217 C 0.92085 0.98722 0.54213 0.0
N218 N 0.90929 1.00594 0.50813 0.0
H219 H 0.91314 0.03792 0.43483 0.0
H220 H 0.91189 0.97312 0.57393 0.0
H221 H 0.91482 0.04172 0.64508 0.0
H222 H 0.85765 1.00689 0.75417 0.0
O223 O 0.87711 0.04463 0.49645 0.0
O224 O 0.8465 0.02618 0.54596 0.0
O225 O 0.86735 0.98009 0.57442 0.0
C226 C 0.85539 0.04509 0.51344 0.0
H227 H 0.83788 0.98053 0.22413 0.0
H228 H 0.9155 0.04563 0.83855 0.0
H229 H 0.95383 0.97171 0.56949 0.0
H230 H 0.95398 0.03627 0.42009 0.0
Co231 Co 0.75277 0.12924 0.27991 0.0
C232 C 0.753 0.12664 0.06095 0.0
C233 C 0.7869 0.12306 0.11932 0.0
C234 C 0.78784 0.12178 1.01807 0.0
N235 N 0.76498 0.12614 0.14673 0.0
N236 N 0.76648 0.12409 0.98197 0.0
H237 H 0.73473 0.12911 0.05528 0.0
H238 H 0.80145 0.12204 0.1682 0.0
C239 C 0.80309 0.12258 0.36301 0.0
O240 O 0.81269 0.14247 0.34581 0.0
N241 N 0.7407 0.13198 0.41241 0.0
C242 C 0.72019 0.14023 0.43965 0.0
C243 C 0.71873 0.13943 0.54085 0.0
C244 C 0.75138 0.12646 0.49751 0.0
N245 N 0.73837 0.13064 0.577 0.0
C246 C 0.75032 0.17383 0.20394 0.0
C247 C 0.7698 0.19718 0.36094 0.0
C248 C 0.75944 0.20961 0.28449 0.0
C249 C 0.75032 0.19758 0.20413 0.0
C250 C 0.76959 0.17311 0.35751 0.0
N251 N 0.75967 0.16178 0.27979 0.0
H252 H 0.74151 0.16518 0.14455 0.0
H253 H 0.77636 0.1637 0.41921 0.0
H254 H 0.70725 0.14668 0.38989 0.0
H255 H 0.76875 0.12055 0.50233 0.0
O256 O 0.72204 0.13066 0.22611 0.0
O257 O 0.74047 0.09904 0.26867 0.0
O258 O 0.78247 0.11868 0.33747 0.0
C259 C 0.72238 0.1084 0.23048 0.0
H260 H 0.80311 0.11994 0.9744 0.0
H261 H 0.70436 0.145 0.58437 0.0
H262 H 0.77705 0.20593 0.4245 0.0
H263 H 0.7425 0.20648 0.14289 0.0
Co264 Co 0.87637 0.50003 0.58617 0.0
C265 C 0.87893 0.50417 0.36751 0.0
C266 C 0.85058 0.52249 0.42734 0.0
C267 C 0.84914 0.52335 0.32626 0.0
N268 N 0.86955 0.51087 0.45371 0.0
N269 N 0.86699 0.5118 0.28881 0.0
H270 H 0.89347 0.49303 0.36124 0.0
H271 H 0.83793 0.52884 0.47812 0.0
C272 C 0.86909 0.55119 0.61216 0.0
O273 O 0.87966 0.55592 0.52996 0.0
N274 N 0.88251 0.48921 0.71778 0.0
C275 C 0.89935 0.47517 0.74778 0.0
C276 C 0.89964 0.47484 0.84931 0.0
C277 C 0.8726 0.49691 0.80085 0.0
N278 N 0.88298 0.48877 0.88258 0.0
C279 C 0.92098 0.49021 0.5167 0.0
C280 C 0.9443 0.52509 0.61208 0.0
C281 C 0.95657 0.50932 0.55474 0.0
C282 C 0.94455 0.4917 0.50737 0.0
C283 C 0.92042 0.52306 0.61908 0.0
N284 N 0.90897 0.50595 0.56998 0.0
H285 H 0.91258 0.47574 0.48264 0.0
H286 H 0.91142 0.53474 0.6666 0.0
H287 H 0.91118 0.46653 0.6996 0.0
H288 H 0.85823 0.50845 0.80116 0.0
O289 O 0.87521 0.46897 0.53648 0.0
O290 O 0.84565 0.48853 0.59254 0.0
O291 O 0.86924 0.53087 0.6453 0.0
C292 C 0.85334 0.47001 0.55113 0.0
H293 H 0.83526 0.53066 0.28378 0.0
H294 H 0.91182 0.46584 0.8951 0.0
H295 H 0.95311 0.53867 0.65189 0.0
H296 H 0.95339 0.47859 0.46592 0.0
Co297 Co 0.76299 0.62964 0.78419 0.0
C298 C 0.75991 0.6307 0.56406 0.0
C299 C 0.74232 0.60205 0.62486 0.0
C300 C 0.74178 0.59999 0.52393 0.0
N301 N 0.75324 0.62162 0.65054 0.0
N302 N 0.7531 0.61791 0.48572 0.0
H303 H 0.77082 0.64543 0.5574 0.0
H304 H 0.73587 0.58964 0.67627 0.0
C305 C 0.71163 0.61962 0.80337 0.0
O306 O 0.70724 0.62894 0.71774 0.0
N307 N 0.77282 0.63677 0.91705 0.0
C308 C 0.78602 0.65443 0.94757 0.0
C309 C 0.78672 0.6546 0.04903 0.0
C310 C 0.76598 0.62626 0.99978 0.0
N311 N 0.77415 0.63685 0.08159 0.0
C312 C 0.76971 0.67484 0.71181 0.0
C313 C 0.73721 0.69709 0.82206 0.0
C314 C 0.75228 0.71025 0.76515 0.0
C315 C 0.76845 0.69863 0.70906 0.0
C316 C 0.7388 0.67295 0.82154 0.0
N317 N 0.75497 0.66202 0.76642 0.0
H318 H 0.78383 0.66706 0.67444 0.0
H319 H 0.72792 0.66328 0.86976 0.0
H320 H 0.79398 0.66671 0.89966 0.0
H321 H 0.75453 0.6117 1.00013 0.0
O322 O 0.7943 0.63128 0.73959 0.0
O323 O 0.77772 0.59989 0.79312 0.0
O324 O 0.73196 0.62023 0.83927 0.0
C325 C 0.79579 0.60954 0.75634 0.0
H326 H 0.73392 0.58615 0.4824 0.0
H327 H 0.79554 0.66699 0.09538 0.0
H328 H 0.72468 0.70538 0.86826 0.0
H329 H 0.78109 0.70793 0.66739 0.0
Co330 Co 0.63804 0.50424 1.00308 0.0
C331 C 0.63576 0.50749 0.22238 0.0
C332 C 0.66471 0.52518 0.16479 0.0
C333 C 0.66636 0.52548 0.26596 0.0
N334 N 0.64522 0.51434 0.13702 0.0
N335 N 0.64826 0.51411 0.30169 0.0
H336 H 0.62074 0.49695 0.22769 0.0
H337 H 0.67752 0.53139 0.11468 0.0
C338 C 0.64736 0.55562 0.98556 0.0
O339 O 0.63726 0.55965 0.06973 0.0
N340 N 0.63166 0.49397 0.8702 0.0
C341 C 0.61541 0.47895 0.84103 0.0
C342 C 0.61538 0.47763 0.73979 0.0
C343 C 0.64139 0.50146 0.78677 0.0
N344 N 0.63178 0.49174 0.70575 0.0
C345 C 0.5927 0.49628 0.07005 0.0
C346 C 0.5703 0.52866 0.95923 0.0
C347 C 0.55724 0.5126 1.01152 0.0
C348 C 0.56892 0.49684 0.06967 0.0
C349 C 0.59445 0.52768 0.96245 0.0
N350 N 0.60544 0.51149 1.01744 0.0
H351 H 0.60063 0.48241 0.10881 0.0
H352 H 0.60411 0.53907 0.91643 0.0
H353 H 0.60393 0.47011 0.88974 0.0
H354 H 0.65508 0.51395 0.78521 0.0
O355 O 0.6369 0.47287 0.04846 0.0
O356 O 0.66811 0.49028 0.99805 0.0
O357 O 0.64708 0.53543 0.94816 0.0
C358 C 0.65876 0.472 0.03464 0.0
H359 H 0.68045 0.53225 0.3096 0.0
H360 H 0.60352 0.46776 0.69485 0.0
H361 H 0.56197 0.54114 0.91279 0.0
H362 H 0.55971 0.48436 0.11258 0.0
Co363 Co 0.76023 0.38955 0.29005 0.0
C364 C 0.75983 0.39125 0.50901 0.0
C365 C 0.72619 0.39661 0.45048 0.0
C366 C 0.72525 0.39778 0.55174 0.0
N367 N 0.74794 0.39244 0.42316 0.0
N368 N 0.74646 0.39439 0.58801 0.0
H369 H 0.778 0.38814 0.51465 0.0
H370 H 0.71178 0.39868 0.40154 0.0
C371 C 0.70974 0.39606 0.2075 0.0
O372 O 0.69984 0.37648 0.22777 0.0
N373 N 0.7724 0.38697 0.15768 0.0
C374 C 0.79283 0.37851 0.13053 0.0
C375 C 0.79428 0.37922 0.02929 0.0
C376 C 0.76176 0.39252 0.0725 0.0
N377 N 0.77472 0.38815 0.99305 0.0
C378 C 0.76343 0.34476 0.36377 0.0
C379 C 0.74217 0.32178 0.21005 0.0
C380 C 0.75259 0.30913 0.28577 0.0
C381 C 0.76294 0.32101 0.3638 0.0
C382 C 0.74297 0.34583 0.2131 0.0
N383 N 0.75358 0.35698 0.28959 0.0
H384 H 0.77282 0.35328 0.42186 0.0
H385 H 0.73599 0.35537 0.15219 0.0
H386 H 0.80568 0.37193 0.18038 0.0
H387 H 0.74444 0.39858 0.06759 0.0
O388 O 0.79094 0.38841 0.34422 0.0
O389 O 0.77224 0.41989 0.30191 0.0
O390 O 0.73047 0.39977 0.2318 0.0
C391 C 0.79037 0.41067 0.34038 0.0
H392 H 0.71008 0.40046 0.59525 0.0
H393 H 0.80858 0.37343 0.98579 0.0
H394 H 0.73433 0.3132 0.14735 0.0
H395 H 0.77117 0.31198 0.42368 0.0
Co396 Co 0.1363 0.51518 0.51341 0.0
C397 C 0.13335 0.51035 0.73168 0.0
C398 C 0.16262 0.49344 0.67253 0.0
C399 C 0.16398 0.49263 0.77362 0.0
N400 N 0.14314 0.50413 0.64564 0.0
N401 N 0.14556 0.50331 0.8107 0.0
H402 H 0.11831 0.52083 0.73762 0.0
H403 H 0.17567 0.48779 0.62209 0.0
C404 C 0.14563 0.4643 0.48536 0.0
O405 O 0.13656 0.45853 0.56959 0.0
N406 N 0.13013 0.52625 0.38198 0.0
C407 C 0.113 0.53993 0.35198 0.0
C408 C 0.1126 0.54017 0.25041 0.0
C409 C 0.14011 0.51872 0.29874 0.0
N410 N 0.12948 0.52655 0.21698 0.0
C411 C 0.09159 0.52518 0.58138 0.0
C412 C 0.06848 0.4903 0.48494 0.0
C413 C 0.056 0.50658 0.53867 0.0
C414 C 0.06793 0.52397 0.58798 0.0
C415 C 0.09242 0.49201 0.48089 0.0
N416 N 0.10372 0.50928 0.52948 0.0
H417 H 0.09998 0.53957 0.61616 0.0
H418 H 0.10159 0.47995 0.43578 0.0
H419 H 0.10099 0.54833 0.40013 0.0
H420 H 0.15468 0.50745 0.29834 0.0
O421 O 0.13769 0.54614 0.56434 0.0
O422 O 0.16705 0.52652 0.50681 0.0
O423 O 0.14328 0.48452 0.45253 0.0
C424 C 0.15958 0.54494 0.54958 0.0
H425 H 0.17819 0.48607 0.81639 0.0
H426 H 0.10015 0.54886 0.20477 0.0
H427 H 0.05982 0.47659 0.44542 0.0
H428 H 0.05896 0.53716 0.62849 0.0
Co429 Co 0.25147 0.39312 0.25494 0.0
C430 C 0.25201 0.38763 0.47262 0.0
C431 C 0.28551 0.39472 0.41842 0.0
C432 C 0.28668 0.39343 0.51923 0.0
N433 N 0.26373 0.39095 0.38862 0.0
N434 N 0.26557 0.38911 0.55357 0.0
H435 H 0.23373 0.38543 0.47504 0.0
H436 H 0.29971 0.39848 0.37112 0.0
C437 C 0.30038 0.39876 0.16475 0.0
O438 O 0.3027 0.37724 0.13843 0.0
N439 N 0.23947 0.39584 0.1209 0.0
C440 C 0.21798 0.40108 0.09095 0.0
C441 C 0.21684 0.40009 0.98978 0.0
C442 C 0.25096 0.39177 0.0369 0.0
N443 N 0.23761 0.39425 0.9565 0.0
C444 C 0.23893 0.34845 0.19522 0.0
C445 C 0.27539 0.32457 0.27285 0.0
C446 C 0.25652 0.31221 0.23513 0.0
C447 C 0.23828 0.32462 0.19544 0.0
C448 C 0.27541 0.34872 0.27092 0.0
N449 N 0.25721 0.36044 0.2325 0.0
H450 H 0.22383 0.35731 0.1702 0.0
H451 H 0.28973 0.3578 0.30319 0.0
H452 H 0.20381 0.40508 0.13824 0.0
H453 H 0.26853 0.38645 0.03364 0.0
O454 O 0.22068 0.38963 0.30502 0.0
O455 O 0.23868 0.4227 0.28799 0.0
O456 O 0.28216 0.40546 0.20782 0.0
C457 C 0.22044 0.41177 0.31585 0.0
H458 H 0.30192 0.39596 0.56379 0.0
H459 H 0.20203 0.40366 0.94417 0.0
H460 H 0.28985 0.31568 0.30476 0.0
H461 H 0.22301 0.316 0.16851 0.0
Co462 Co 0.37634 0.51947 1.00929 0.0
C463 C 0.37806 0.51712 0.79029 0.0
C464 C 0.35021 0.49765 0.84737 0.0
C465 C 0.34854 0.49751 0.74614 0.0
N466 N 0.36904 0.50955 0.87536 0.0
N467 N 0.36594 0.51 0.71069 0.0
H468 H 0.39252 0.52844 0.78563 0.0
H469 H 0.3378 0.49059 0.89718 0.0
C470 C 0.36666 0.46803 0.03042 0.0
O471 O 0.37889 0.46323 0.95243 0.0
N472 N 0.38306 0.5296 0.14218 0.0
C473 C 0.39975 0.54414 0.17125 0.0
C474 C 0.3998 0.54555 0.27252 0.0
C475 C 0.37309 0.52252 0.22571 0.0
N476 N 0.38298 0.53197 0.30659 0.0
C477 C 0.42185 0.5262 0.94215 0.0
C478 C 0.44339 0.49311 0.05219 0.0
C479 C 0.45687 0.50859 0.99868 0.0
C480 C 0.44561 0.52495 0.9421 0.0
C481 C 0.4193 0.49492 0.05002 0.0
N482 N 0.40873 0.51134 0.99483 0.0
H483 H 0.41432 0.54035 0.90397 0.0
H484 H 0.40938 0.48397 0.09699 0.0
H485 H 0.41148 0.55262 0.12244 0.0
H486 H 0.35899 0.51061 0.22759 0.0
O487 O 0.37825 0.55082 0.96412 0.0
O488 O 0.34666 0.53421 1.01509 0.0
O489 O 0.36614 0.48862 0.06348 0.0
C490 C 0.35646 0.55232 0.97934 0.0
H491 H 0.3349 0.48995 0.70228 0.0
H492 H 0.41191 0.55512 0.31748 0.0
H493 H 0.45137 0.48046 0.09885 0.0
H494 H 0.45517 0.53732 0.89995 0.0
Co495 Co 0.24765 0.63209 0.8034 0.0
C496 C 0.25128 0.63602 0.58597 0.0
C497 C 0.27242 0.60923 0.64218 0.0
C498 C 0.27262 0.60809 0.54088 0.0
N499 N 0.25944 0.62711 0.67097 0.0
N500 N 0.25909 0.62479 0.50581 0.0
H501 H 0.2388 0.64952 0.58209 0.0
H502 H 0.27996 0.59685 0.69136 0.0
C503 C 0.29895 0.6263 0.83526 0.0
O504 O 0.30429 0.63727 0.75471 0.0
N505 N 0.23567 0.6366 0.93459 0.0
C506 C 0.21874 0.65084 0.96134 0.0
C507 C 0.21733 0.65105 0.06262 0.0
C508 C 0.2442 0.62823 1.01974 0.0
N509 N 0.23336 0.6368 0.09935 0.0
C510 C 0.23559 0.6769 0.74171 0.0
C511 C 0.27028 0.7007 0.83625 0.0
C512 C 0.25379 0.71285 0.78217 0.0
C513 C 0.23632 0.70059 0.73487 0.0
C514 C 0.26891 0.67676 0.8414 0.0
N515 N 0.25192 0.66508 0.79266 0.0
H516 H 0.22142 0.66819 0.70675 0.0
H517 H 0.28113 0.66789 0.88688 0.0
H518 H 0.20873 0.66107 0.91105 0.0
H519 H 0.25835 0.61643 0.02381 0.0
O520 O 0.217 0.62955 0.74952 0.0
O521 O 0.23798 0.60071 0.80385 0.0
O522 O 0.27839 0.6261 0.86532 0.0
C523 C 0.21943 0.60763 0.76023 0.0
H524 H 0.28073 0.59501 0.49661 0.0
H525 H 0.20613 0.66179 0.10571 0.0
H526 H 0.28373 0.70965 0.87625 0.0
H527 H 0.22317 0.70929 0.69287 0.0
C528 C 0.39196 1.00631 0.59797 0.0
C529 C 0.36993 0.01139 0.63284 0.0
C530 C 0.39559 1.00004 0.49928 0.0
C531 C 0.37736 0.99864 0.43105 0.0
H532 H 0.40659 0.00752 0.64712 0.0
H533 H 0.4129 0.9967 0.47574 0.0
S534 S 0.31607 0.00782 0.48607 0.0
N535 N 0.32935 0.01281 0.5918 0.0
N536 N 0.3363 1.0014 0.40676 0.0
C537 C 0.35521 1.00326 0.46509 0.0
C538 C 0.35146 0.00953 0.56569 0.0
C539 C 0.26452 0.14633 0.83203 0.0
C540 C 0.25732 0.12469 0.86418 0.0
C541 C 0.27039 0.15004 0.73369 0.0
C542 C 0.26942 0.13222 0.66346 0.0
H543 H 0.26518 0.16064 0.88308 0.0
H544 H 0.27529 0.16714 0.71214 0.0
S545 S 0.25407 0.07172 0.71255 0.0
N546 N 0.25103 0.08481 0.81969 0.0
N547 N 0.2623 0.09166 0.63506 0.0
C548 C 0.26277 0.11033 0.69522 0.0
C549 C 0.25667 0.10659 0.79543 0.0
C550 C 0.12036 0.99717 0.04933 0.0
C551 C 0.13779 1.00052 0.12021 0.0
C552 C 0.12341 1.0034 0.95099 0.0
C553 C 0.14394 0.0134 0.91956 0.0
H554 H 0.104 0.99014 0.07032 0.0
H555 H 0.10939 1.00085 0.89943 0.0
S556 S 0.1958 0.02374 0.07274 0.0
N557 N 0.17706 0.0129 0.14967 0.0
N558 N 0.18254 0.02498 0.96516 0.0
C559 C 0.1617 0.01646 0.98884 0.0
C560 C 0.15868 0.00993 0.08899 0.0
C561 C 0.28338 0.88691 0.26914 0.0
C562 C 0.26743 0.89055 0.3446 0.0
C563 C 0.27754 0.89038 0.16986 0.0
C564 C 0.25552 0.89768 0.14194 0.0
H565 H 0.30061 0.88156 0.28709 0.0
H566 H 0.29048 0.88768 0.11463 0.0
S567 S 0.20679 0.90772 0.30912 0.0
N568 N 0.22808 0.90043 0.38292 0.0
N569 N 0.21737 0.90731 0.197 0.0
C570 C 0.23933 0.90115 0.21626 0.0
C571 C 0.2452 0.8975 0.31729 0.0
C572 C 0.63049 0.04074 0.51169 0.0
C573 C 0.63388 0.02464 0.5869 0.0
C574 C 0.63411 0.03502 0.41249 0.0
C575 C 0.64132 0.01298 0.38445 0.0
H576 H 0.62522 0.05799 0.52978 0.0
H577 H 0.63159 0.04807 0.35742 0.0
S578 S 0.65074 0.96391 0.55097 0.0
N579 N 0.64345 0.98515 0.62489 0.0
N580 N 0.6506 0.97466 0.43906 0.0
C581 C 0.64456 0.99665 0.45852 0.0
C582 C 0.64075 1.0024 0.55948 0.0
C583 C 0.72902 0.88689 0.30968 0.0
C584 C 0.74555 0.88964 0.3848 0.0
C585 C 0.73436 0.89081 0.21087 0.0
C586 C 0.75645 0.89769 0.18332 0.0
H587 H 0.71174 0.88183 0.32757 0.0
H588 H 0.72103 0.88871 0.15569 0.0
S589 S 0.80642 0.90571 0.35007 0.0
N590 N 0.78534 0.8985 0.42359 0.0
N591 N 0.79521 0.90615 0.2382 0.0
C592 C 0.77318 0.9004 0.25738 0.0
C593 C 0.76779 0.89631 0.35798 0.0
C594 C 0.85322 0.01271 0.06552 0.0
C595 C 0.87116 0.00913 0.13335 0.0
C596 C 0.85771 0.01803 0.96692 0.0
C597 C 0.88028 0.01987 0.93272 0.0
H598 H 0.83564 0.01173 0.08933 0.0
H599 H 0.84345 0.02097 0.91733 0.0
S600 S 0.93311 0.00905 0.07897 0.0
N601 N 0.91214 1.00601 0.15818 0.0
N602 N 0.92067 0.01553 0.97337 0.0
C603 C 0.89831 0.01565 0.99959 0.0
C604 C 0.89372 0.01041 0.09974 0.0
C605 C 0.73651 0.14322 0.75108 0.0
C606 C 0.74496 0.12806 0.67916 0.0
C607 C 0.7435 0.14171 0.84981 0.0
C608 C 0.75938 0.12516 0.88039 0.0
H609 H 0.72478 0.15669 0.7307 0.0
H610 H 0.73679 0.15391 0.90243 0.0
S611 S 0.78494 0.07986 0.72478 0.0
N612 N 0.76868 0.0946 0.64839 0.0
N613 N 0.78227 0.09242 0.83324 0.0
C614 C 0.76767 0.10964 0.81019 0.0
C615 C 0.76035 0.11092 0.70985 0.0
C616 C 0.87838 0.48442 0.15837 0.0
C617 C 0.87094 0.50638 0.18653 0.0
C618 C 0.88207 0.47878 0.05917 0.0
C619 C 0.87855 0.49487 0.98403 0.0
H620 H 0.88103 0.47138 0.21336 0.0
H621 H 0.88752 0.46159 0.04102 0.0
S622 S 0.861 0.5554 1.02026 0.0
N623 N 0.86124 0.54461 0.1321 0.0
N624 N 0.86854 0.53426 0.94624 0.0
C625 C 0.87142 0.51703 1.01156 0.0
C626 C 0.86754 0.5227 0.11254 0.0
C627 C 0.75973 0.64476 0.34909 0.0
C628 C 0.7582 0.62215 0.38349 0.0
C629 C 0.76501 0.64941 0.25076 0.0
C630 C 0.7689 0.63165 0.18254 0.0
H631 H 0.75657 0.65901 0.39844 0.0
H632 H 0.76573 0.66707 0.22752 0.0
S633 S 0.76896 0.56955 0.23596 0.0
N634 N 0.76249 0.58181 0.34188 0.0
N635 N 0.77203 0.59063 0.15709 0.0
C636 C 0.76764 0.60898 0.21581 0.0
C637 C 0.76239 0.60421 0.31615 0.0
C638 C 0.643 0.51916 0.57665 0.0
C639 C 0.63666 0.49684 0.6042 0.0
C640 C 0.64695 0.52465 0.47782 0.0
C641 C 0.64451 0.50809 0.40286 0.0
H642 H 0.64447 0.5326 0.63158 0.0
H643 H 0.6515 0.54206 0.45948 0.0
S644 S 0.63129 0.44661 0.43659 0.0
N645 N 0.63032 0.45765 0.54865 0.0
N646 N 0.63741 0.46811 0.36331 0.0
C647 C 0.63883 0.48562 0.42944 0.0
C648 C 0.63498 0.47997 0.52996 0.0
C649 C 0.76918 0.37659 0.72069 0.0
C650 C 0.75356 0.39337 0.68966 0.0
C651 C 0.77623 0.37518 0.81939 0.0
C652 C 0.76809 0.39062 0.89088 0.0
H653 H 0.77563 0.36417 0.66846 0.0
H654 H 0.78775 0.36156 0.84011 0.0
S655 S 0.72893 0.43941 0.84421 0.0
N656 N 0.73132 0.42663 0.73611 0.0
N657 N 0.74497 0.42452 0.92088 0.0
C658 C 0.75297 0.40795 0.85982 0.0
C659 C 0.7456 0.40917 0.7595 0.0
C660 C 0.13323 0.53044 0.94056 0.0
C661 C 0.14144 0.50873 0.91289 0.0
C662 C 0.12957 0.53615 0.03976 0.0
C663 C 0.13387 0.52037 0.11545 0.0
H664 H 0.13 0.54327 0.88518 0.0
H665 H 0.12355 0.55318 0.05743 0.0
S666 S 0.15359 0.46045 0.08055 0.0
N667 N 0.15269 0.47101 0.96833 0.0
N668 N 0.1454 0.48143 0.15412 0.0
C669 C 0.14172 0.49842 0.08836 0.0
C670 C 0.1456 0.4927 0.98738 0.0
C671 C 0.26448 0.40323 0.82436 0.0
C672 C 0.24457 0.39217 0.85585 0.0
C673 C 0.27127 0.40199 0.72599 0.0
C674 C 0.25863 0.38925 0.65547 0.0
H675 H 0.27454 0.41339 0.8759 0.0
H676 H 0.28629 0.41154 0.70497 0.0
S677 S 0.20649 0.35488 0.70547 0.0
N678 N 0.21297 0.36706 0.81219 0.0
N679 N 0.22615 0.36367 0.62791 0.0
C680 C 0.23903 0.37743 0.68748 0.0
C681 C 0.23191 0.37913 0.78747 0.0
C682 C 0.3672 0.4994 0.53452 0.0
C683 C 0.36966 0.516 0.60937 0.0
C684 C 0.3713 0.50478 0.43571 0.0
C685 C 0.37792 0.527 0.40803 0.0
H686 H 0.36254 0.48203 0.55291 0.0
H687 H 0.36976 0.49131 0.38089 0.0
S688 S 0.38348 0.57735 0.57448 0.0
N689 N 0.37698 0.55602 0.6481 0.0
N690 N 0.38458 0.56615 0.46278 0.0
C691 C 0.37965 0.54392 0.48192 0.0
C692 C 0.37554 0.53842 0.58243 0.0
C693 C 0.26236 0.62998 0.23025 0.0
C694 C 0.23937 0.63335 0.20181 0.0
C695 C 0.26865 0.6272 0.3295 0.0
C696 C 0.25226 0.62788 0.40442 0.0
H697 H 0.27569 0.62987 0.17558 0.0
H698 H 0.28652 0.62482 0.34813 0.0
S699 S 0.18959 0.63342 0.3692 0.0
N700 N 0.2 0.63523 0.25704 0.0
N701 N 0.21191 0.63028 0.44308 0.0
C702 C 0.2292 0.63073 0.37717 0.0
C703 C 0.22275 0.63341 0.27611 0.0
C704 C 0.33579 0.06394 0.18255 0.0
C705 C 0.35209 0.07322 0.11791 0.0
C706 C 0.31786 0.07707 0.22016 0.0
C707 C 0.31537 0.1002 0.19568 0.0
H708 H 0.33614 0.04603 0.20162 0.0
H709 H 0.30552 0.06878 0.26702 0.0
S710 S 0.35414 0.13357 0.03576 0.0
N711 N 0.36512 0.10757 0.03561 0.0
N712 N 0.33147 0.13239 0.10694 0.0
C713 C 0.33202 0.11011 0.13466 0.0
C714 C 0.35031 0.09662 0.09562 0.0
C715 C 0.18304 0.07164 0.41553 0.0
C716 C 0.15968 0.07715 0.42392 0.0
C717 C 0.19909 0.0874 0.37965 0.0
C718 C 0.19262 0.10943 0.34837 0.0
H719 H 0.18915 0.05498 0.43795 0.0
H720 H 0.21676 0.08203 0.37502 0.0
S721 S 0.13356 0.13259 0.35399 0.0
N722 N 0.13093 0.10648 0.39822 0.0
N723 N 0.16094 0.13588 0.32863 0.0
C724 C 0.16929 0.1152 0.35588 0.0
C725 C 0.15293 0.0992 0.39418 0.0
C726 C 0.20354 0.93243 0.59315 0.0
C727 C 0.19507 0.9175 0.66552 0.0
C728 C 0.1906 0.95074 0.5576 0.0
C729 C 0.16842 0.95488 0.59157 0.0
H730 H 0.22075 0.93068 0.56607 0.0
H731 H 0.19826 0.96202 0.50424 0.0
S732 S 0.13721 0.92018 0.77471 0.0
N733 N 0.16236 0.90759 0.76586 0.0
N734 N 0.13784 0.94187 0.69773 0.0
C735 C 0.15917 0.93956 0.66029 0.0
C736 C 0.17252 0.92095 0.69752 0.0
C737 C 0.31612 0.96715 0.91232 0.0
C738 C 0.33797 0.95992 0.94229 0.0
C739 C 0.30184 0.95287 0.85626 0.0
C740 C 0.30874 0.9307 0.82939 0.0
H741 H 0.31011 0.98417 0.93045 0.0
H742 H 0.28504 0.95913 0.83599 0.0
S743 S 0.36432 0.90359 0.88952 0.0
N744 N 0.36604 0.92933 0.9402 0.0
N745 N 0.33881 0.9021 0.83665 0.0
C746 C 0.33051 0.92318 0.85906 0.0
C747 C 0.34524 0.9379 0.91504 0.0
C748 C 0.69304 0.94592 0.806 0.0
C749 C 0.69707 0.92408 0.8444 0.0
C750 C 0.67483 0.95938 0.83924 0.0
C751 C 0.65996 0.95179 0.91363 0.0
H752 H 0.70429 0.9529 0.75092 0.0
H753 H 0.67307 0.9763 0.80862 0.0
S754 S 0.6626 0.8952 0.03527 0.0
N755 N 0.68412 0.89485 0.95764 0.0
N756 N 0.6501 0.92027 1.0211 0.0
C757 C 0.66335 0.92958 0.95021 0.0
C758 C 0.68182 0.91573 0.91546 0.0
C759 C 0.81673 0.92981 0.65035 0.0
C760 C 0.82083 0.91412 0.72698 0.0
C761 C 0.83329 0.94611 0.6226 0.0
C762 C 0.8548 0.94768 0.67027 0.0
H763 H 0.80029 0.93001 0.61306 0.0
H764 H 0.82876 0.95818 0.56577 0.0
S765 S 0.87526 0.90928 0.86893 0.0
N766 N 0.84901 0.90028 0.84492 0.0
N767 N 0.8798 0.93074 0.79339 0.0
C768 C 0.85951 0.93144 0.74395 0.0
C769 C 0.8427 0.91477 0.77195 0.0
C770 C 0.85226 0.08621 0.46246 0.0
C771 C 0.84147 0.06538 0.4863 0.0
C772 C 0.83978 0.10487 0.42538 0.0
C773 C 0.81603 0.10336 0.4094 0.0
H774 H 0.87061 0.08802 0.47064 0.0
H775 H 0.84896 0.12033 0.4067 0.0
S776 S 0.77951 0.05259 0.46284 0.0
N777 N 0.80556 0.04462 0.49452 0.0
N778 N 0.78212 0.07909 0.42376 0.0
C779 C 0.80498 0.08268 0.4354 0.0
C780 C 0.81767 0.06388 0.47416 0.0
C781 C 0.71227 0.07268 0.1421 0.0
C782 C 0.70541 0.09415 0.17807 0.0
C783 C 0.69739 0.05893 0.08692 0.0
C784 C 0.67489 0.06592 0.06687 0.0
H785 H 0.72944 0.06644 0.15554 0.0
H786 H 0.70346 0.04236 0.06245 0.0
S787 S 0.64859 0.12089 0.14291 0.0
N788 N 0.67492 0.12221 0.18776 0.0
N789 N 0.64643 0.09589 0.08588 0.0
C790 C 0.66776 0.08745 0.10167 0.0
C791 C 0.68316 0.10171 0.15676 0.0
C792 C 0.81953 0.57401 0.76327 0.0
C793 C 0.81628 0.59619 0.72715 0.0
C794 C 0.83746 0.56021 0.72972 0.0
C795 C 0.85284 0.56783 0.65736 0.0
H796 H 0.80782 0.56699 0.81651 0.0
H797 H 0.83857 0.54303 0.75827 0.0
S798 S 0.85261 0.62531 0.54325 0.0
N799 N 0.83072 0.62579 0.61894 0.0
N800 N 0.86421 0.59975 0.55505 0.0
C801 C 0.85031 0.59037 0.62341 0.0
C802 C 0.83212 0.60455 0.65843 0.0
C803 C 0.67861 0.59169 0.79454 0.0
C804 C 0.69385 0.60515 0.8519 0.0
C805 C 0.66342 0.57598 0.83796 0.0
C806 C 0.66224 0.57358 0.9408 0.0
H807 H 0.67905 0.59261 0.71506 0.0
H808 H 0.65261 0.56549 0.79054 0.0
S809 S 0.69811 0.60502 0.12438 0.0
N810 N 0.70663 0.61494 1.0174 0.0
N811 N 0.67771 0.58621 0.09879 0.0
C812 C 0.67694 0.58739 0.99906 0.0
C813 C 0.69281 0.60292 0.95476 0.0
C814 C 0.66142 0.43146 0.09418 0.0
C815 C 0.67236 0.45216 0.0696 0.0
C816 C 0.67355 0.41322 0.13678 0.0
C817 C 0.6971 0.41504 0.15784 0.0
H818 H 0.6432 0.42941 0.08167 0.0
H819 H 0.66429 0.39778 0.15503 0.0
S820 S 0.73374 0.46597 0.10822 0.0
N821 N 0.7081 0.47334 0.06858 0.0
N822 N 0.73087 0.4397 0.14975 0.0
C823 C 0.70826 0.43571 0.13241 0.0
C824 C 0.69593 0.45406 0.088 0.0
C825 C 0.80023 0.44648 0.42906 0.0
C826 C 0.80721 0.42502 0.39327 0.0
C827 C 0.81501 0.46029 0.48456 0.0
C828 C 0.83751 0.45337 0.50513 0.0
H829 H 0.78306 0.45265 0.41514 0.0
H830 H 0.80887 0.47686 0.50879 0.0
S831 S 0.86407 0.39848 0.42989 0.0
N832 N 0.83781 0.39707 0.3844 0.0
N833 N 0.86607 0.42348 0.48692 0.0
C834 C 0.84474 0.43185 0.4706 0.0
C835 C 0.82945 0.41754 0.41516 0.0
C836 C 0.17882 0.4595 0.37238 0.0
C837 C 0.16299 0.44944 0.43693 0.0
C838 C 0.1971 0.44712 0.33339 0.0
C839 C 0.20032 0.42398 0.35592 0.0
H840 H 0.17772 0.47743 0.3541 0.0
H841 H 0.20891 0.45588 0.28554 0.0
S842 S 0.16366 0.389 0.51823 0.0
N843 N 0.15172 0.41458 0.52009 0.0
N844 N 0.1859 0.39109 0.44489 0.0
C845 C 0.18438 0.41337 0.41803 0.0
C846 C 0.16583 0.42614 0.4591 0.0
C847 C 0.33553 0.41075 0.06942 0.0
C848 C 0.31826 0.41616 0.13751 0.0
C849 C 0.35141 0.42733 0.03759 0.0
C850 C 0.35096 0.45014 0.07261 0.0
H851 H 0.3365 0.39367 0.03833 0.0
H852 H 0.36392 0.42223 0.98352 0.0
S853 S 0.31 0.47302 0.25641 0.0
N854 N 0.30249 0.44596 0.24246 0.0
N855 N 0.33187 0.47683 0.18262 0.0
C856 C 0.33414 0.45557 0.14286 0.0
C857 C 0.31797 0.43873 0.17513 0.0
C858 C 0.30643 0.59258 0.94318 0.0
C859 C 0.31512 0.60971 0.88097 0.0
C860 C 0.3201 0.57459 0.97679 0.0
C861 C 0.34318 0.57291 0.95067 0.0
H862 H 0.28857 0.59236 0.96315 0.0
H863 H 0.31227 0.56157 0.02177 0.0
S864 S 0.37515 0.61434 0.79769 0.0
N865 N 0.34887 0.62455 0.80013 0.0
N866 N 0.37472 0.59083 0.8642 0.0
C867 C 0.3525 0.59044 0.89241 0.0
C868 C 0.33846 0.60876 0.85735 0.0
C869 C 0.16723 0.58252 0.63233 0.0
C870 C 0.17546 0.56154 0.59584 0.0
C871 C 0.18148 0.59735 0.68669 0.0
C872 C 0.20421 0.59138 0.70845 0.0
H873 H 0.14962 0.58745 0.61953 0.0
H874 H 0.1746 0.61346 0.71273 0.0
S875 S 0.23435 0.53888 0.62647 0.0
N876 N 0.20814 0.53601 0.58217 0.0
N877 N 0.23465 0.56361 0.68577 0.0
C878 C 0.21271 0.57059 0.6715 0.0
C879 C 0.19841 0.55574 0.61463 0.0
C880 C 0.49454 0.01536 0.09652 0.0
C881 C 0.48167 0.01604 1.00878 0.0
C882 C 0.51843 0.01327 0.09483 0.0
C883 C 0.5303 0.01171 1.00537 0.0
H884 H 0.48606 0.01589 0.16695 0.0
H885 H 0.5277 0.01274 0.16413 0.0
S886 S 0.5047 0.01477 0.75543 0.0
N887 N 0.48265 0.0164 0.83005 0.0
N888 N 0.52752 0.01244 0.82712 0.0
C889 C 0.51767 0.01278 0.91723 0.0
C890 C 0.49339 0.01499 0.91889 0.0
C891 C 0.25907 0.27487 0.32795 0.0
C892 C 0.25504 0.28663 0.23929 0.0
C893 C 0.25628 0.2509 0.33386 0.0
C894 C 0.24951 0.23777 0.25115 0.0
H895 H 0.26419 0.28428 0.39351 0.0
H896 H 0.26005 0.24254 0.40289 0.0
S897 S 0.23679 0.26016 1.00194 0.0
N898 N 0.24405 0.28307 0.067 0.0
N899 N 0.23845 0.23846 0.07856 0.0
C900 C 0.24524 0.24939 0.16258 0.0
C901 C 0.24809 0.27364 0.15653 0.0
C902 C 0.01784 0.01458 0.58907 0.0
C903 C 0.03128 0.01368 0.50325 0.0
C904 C 0.99415 0.01037 0.58622 0.0
C905 C 0.98273 1.00533 0.49734 0.0
H906 H 0.02565 0.01876 0.6595 0.0
H907 H 0.98457 0.01169 0.65382 0.0
S908 S 0.00928 1.00029 0.25185 0.0
N909 N 0.03092 1.00642 0.32662 0.0
N910 N 0.9863 0.99964 0.3214 0.0
C911 C 0.9957 1.0045 0.41092 0.0
C912 C 0.01993 0.00843 0.41377 0.0
C913 C 0.23403 0.75079 0.79334 0.0
C914 C 0.25414 0.73821 0.77597 0.0
C915 C 0.23367 0.7747 0.78499 0.0
C916 C 0.25341 0.78688 0.75913 0.0
H917 H 0.21849 0.74209 0.81475 0.0
H918 H 0.218 0.78376 0.80119 0.0
S919 S 0.30978 0.76191 0.6968 0.0
N920 N 0.29383 0.73963 0.72558 0.0
N921 N 0.29321 0.78454 0.70984 0.0
C922 C 0.27348 0.77447 0.73934 0.0
C923 C 0.27385 0.75016 0.748 0.0
C924 C 0.7542 0.74751 0.86022 0.0
C925 C 0.75292 0.73591 0.76922 0.0
C926 C 0.75719 0.77142 0.86548 0.0
C927 C 0.75902 0.78486 0.78002 0.0
H928 H 0.75345 0.73797 0.92807 0.0
H929 H 0.7582 0.77947 0.93744 0.0
S930 S 0.75477 0.76305 0.52338 0.0
N931 N 0.75252 0.73989 0.59143 0.0
N932 N 0.75792 0.78465 0.60139 0.0
C933 C 0.75741 0.77349 0.68857 0.0
C934 C 0.75437 0.74914 0.6832 0.0
C935 C 0.77653 0.2488 0.3047 0.0
C936 C 0.75721 0.23493 0.28827 0.0
C937 C 0.7749 0.27274 0.30201 0.0
C938 C 0.75386 0.28372 0.28319 0.0
H939 H 0.7931 0.2411 0.31775 0.0
H940 H 0.79029 0.28276 0.31409 0.0
S941 S 0.69788 0.25509 0.24366 0.0
N942 N 0.71615 0.23386 0.25795 0.0
N943 N 0.71317 0.27883 0.25301 0.0
C944 C 0.73438 0.27003 0.26805 0.0
C945 C 0.73602 0.24567 0.27085 0.0
C946 C 0.99531 0.51075 0.6349 0.0
C947 C 0.98191 0.50988 0.5486 0.0
C948 C 0.01921 0.50913 0.63108 0.0
C949 C 0.03061 0.50654 0.54086 0.0
H950 H 0.98724 0.51217 0.70604 0.0
H951 H 0.02888 0.50979 0.69943 0.0
S952 S 1.00346 0.5053 0.29339 0.0
N953 N 0.98183 0.50756 0.36995 0.0
N954 N 0.02674 0.50454 0.36299 0.0
C955 C 0.01743 0.50601 0.45399 0.0
C956 C 0.99311 0.50771 0.45781 0.0
C957 C 0.49426 0.52988 1.01873 0.0
C958 C 0.48248 0.50896 1.00404 0.0
C959 C 0.51831 0.53108 1.0188 0.0
C960 C 0.53167 0.5114 1.00445 0.0
H961 H 0.48478 0.54552 0.03097 0.0
H962 H 0.52651 0.54748 0.0321 0.0
S963 S 0.50938 0.45275 0.95452 0.0
N964 N 0.48617 0.46835 0.96969 0.0
N965 N 0.5312 0.4705 0.96918 0.0
C966 C 0.5201 0.49043 0.98811 0.0
C967 C 0.49562 0.48922 0.98835 0.0
loop_
_geom_bond_atom_site_label_1
_geom_bond_atom_site_label_2
_geom_bond_distance
_geom_bond_site_symmetry_2
_ccdc_geom_bond_type
Co0 N4 2.148 1_554 S
Co0 N10 2.128 1_545 S
Co0 N20 2.194 1_554 S
Co0 O25 2.351 1_544 S
Co0 O26 2.155 1_544 S
Co0 O27 2.096 . S
C1 N4 1.301 . S
C1 N5 1.328 . S
C1 H6 0.930 1_545 S
C2 C3 1.333 . S
C2 N4 1.317 . S
C2 H7 0.930 . S
C3 C2 1.333 . S
C3 N5 1.350 . S
C3 H29 0.931 . S
N4 Co0 2.148 1_556 S
N4 C1 1.301 . S
N4 C2 1.317 . S
N5 C1 1.328 . S
N5 C3 1.350 . S
H6 C1 0.930 1_565 S
H7 C2 0.930 . S
C8 O9 1.224 . S
C8 O27 1.247 . S
O9 C8 1.224 . S
N10 Co0 2.128 1_565 S
N10 C11 1.355 . S
N10 C13 1.311 1_565 S
C11 N10 1.355 . S
C11 C12 1.363 . S
C11 H23 0.929 . S
C12 C11 1.363 . S
C12 N14 1.375 . S
C12 H30 0.931 . S
C13 N10 1.311 1_545 S
C13 N14 1.347 1_545 S
C13 H24 0.929 . S
N14 C12 1.375 . S
N14 C13 1.347 1_565 S
C15 C18 1.365 . S
C15 N20 1.328 1_565 S
C15 H21 0.929 . S
C16 C17 1.362 . S
C16 C19 1.378 . S
C16 H31 0.929 . S
C17 C16 1.362 . S
C17 C18 1.366 1_544 S
C18 C15 1.365 . S
C18 C17 1.366 1_566 S
C18 H32 0.930 . S
C19 C16 1.378 . S
C19 N20 1.315 1_554 S
C19 H22 0.930 . S
N20 Co0 2.194 1_556 S
N20 C15 1.328 1_545 S
N20 C19 1.315 1_556 S
H21 C15 0.929 . S
H22 C19 0.930 . S
H23 C11 0.929 . S
H24 C13 0.929 . S
O25 Co0 2.351 1_566 S
O25 C28 1.244 . S
O26 Co0 2.155 1_566 S
O26 C28 1.240 . S
O27 Co0 2.096 . S
O27 C8 1.247 . S
C28 O25 1.244 . S
C28 O26 1.240 . S
H29 C3 0.931 . S
H30 C12 0.931 . S
H31 C16 0.929 . S
H32 C18 0.930 . S
Co33 N37 2.148 . S
Co33 N43 2.128 . S
Co33 N53 2.194 . S
Co33 O58 2.351 . S
Co33 O59 2.155 . S
Co33 O60 2.096 . S
C34 N37 1.301 . S
C34 N38 1.328 1_554 S
C34 H39 0.930 . S
C35 C36 1.333 1_554 S
C35 N37 1.317 . S
C35 H40 0.930 . S
C36 C35 1.333 1_556 S
C36 N38 1.350 . S
C36 H62 0.931 . S
N37 Co33 2.148 . S
N37 C34 1.301 . S
N37 C35 1.317 . S
N38 C34 1.328 1_556 S
N38 C36 1.350 . S
H39 C34 0.930 . S
H40 C35 0.930 . S
C41 O42 1.224 . S
C41 O60 1.247 . S
O42 C41 1.224 . S
N43 Co33 2.128 . S
N43 C44 1.355 . S
N43 C46 1.311 . S
C44 N43 1.355 . S
C44 C45 1.363 . S
C44 H56 0.929 . S
C45 C44 1.363 . S
C45 N47 1.375 . S
C45 H63 0.931 . S
C46 N43 1.311 . S
C46 N47 1.347 . S
C46 H57 0.929 . S
N47 C45 1.375 . S
N47 C46 1.347 . S
C48 C51 1.365 . S
C48 N53 1.328 . S
C48 H54 0.929 . S
C49 C50 1.362 . S
C49 C52 1.378 . S
C49 H64 0.929 . S
C50 C49 1.362 . S
C50 C51 1.366 . S
C51 C48 1.365 . S
C51 C50 1.366 . S
C51 H65 0.930 . S
C52 C49 1.378 . S
C52 N53 1.315 . S
C52 H55 0.930 . S
N53 Co33 2.194 . S
N53 C48 1.328 . S
N53 C52 1.315 . S
H54 C48 0.929 . S
H55 C52 0.930 . S
H56 C44 0.929 . S
H57 C46 0.929 . S
O58 Co33 2.351 . S
O58 C61 1.244 . S
O59 Co33 2.155 . S
O59 C61 1.240 . S
O60 Co33 2.096 . S
O60 C41 1.247 . S
C61 O58 1.244 . S
C61 O59 1.240 . S
H62 C36 0.931 . S
H63 C45 0.931 . S
H64 C49 0.929 . S
H65 C51 0.930 . S
Co66 N70 2.148 . S
Co66 N76 2.128 1_545 S
Co66 N86 2.194 . S
Co66 O91 2.351 1_545 S
Co66 O92 2.155 1_545 S
Co66 O93 2.096 . S
C67 N70 1.301 . S
C67 N71 1.328 . S
C67 H72 0.930 1_545 S
C68 C69 1.333 . S
C68 N70 1.317 . S
C68 H73 0.930 . S
C69 C68 1.333 . S
C69 N71 1.350 . S
C69 H95 0.931 . S
N70 Co66 2.148 . S
N70 C67 1.301 . S
N70 C68 1.317 . S
N71 C67 1.328 . S
N71 C69 1.350 . S
H72 C67 0.930 1_565 S
H73 C68 0.930 . S
C74 O75 1.224 . S
C74 O93 1.247 . S
O75 C74 1.224 . S
N76 Co66 2.128 1_565 S
N76 C77 1.355 . S
N76 C79 1.311 1_565 S
C77 N76 1.355 . S
C77 C78 1.363 . S
C77 H89 0.929 . S
C78 C77 1.363 . S
C78 N80 1.375 . S
C78 H96 0.931 . S
C79 N76 1.311 1_545 S
C79 N80 1.347 1_545 S
C79 H90 0.929 . S
N80 C78 1.375 . S
N80 C79 1.347 1_565 S
C81 C84 1.365 . S
C81 N86 1.328 1_565 S
C81 H87 0.929 . S
C82 C83 1.362 . S
C82 C85 1.378 . S
C82 H97 0.929 . S
C83 C82 1.362 . S
C83 C84 1.366 1_545 S
C84 C81 1.365 . S
C84 C83 1.366 1_565 S
C84 H98 0.930 . S
C85 C82 1.378 . S
C85 N86 1.315 . S
C85 H88 0.930 . S
N86 Co66 2.194 . S
N86 C81 1.328 1_545 S
N86 C85 1.315 . S
H87 C81 0.929 . S
H88 C85 0.930 . S
H89 C77 0.929 . S
H90 C79 0.929 . S
O91 Co66 2.351 1_565 S
O91 C94 1.244 . S
O92 Co66 2.155 1_565 S
O92 C94 1.240 . S
O93 Co66 2.096 . S
O93 C74 1.247 . S
C94 O91 1.244 . S
C94 O92 1.240 . S
H95 C69 0.931 . S
H96 C78 0.931 . S
H97 C82 0.929 . S
H98 C84 0.930 . S
Co99 N103 2.148 . S
Co99 N109 2.128 . S
Co99 N119 2.194 . S
Co99 O124 2.351 . S
Co99 O125 2.155 . S
Co99 O126 2.096 . S
C100 N103 1.301 . S
C100 N104 1.328 1_556 S
C100 H105 0.930 . S
C101 C102 1.333 1_556 S
C101 N103 1.317 . S
C101 H106 0.930 . S
C102 C101 1.333 1_554 S
C102 N104 1.350 . S
C102 H128 0.931 . S
N103 Co99 2.148 . S
N103 C100 1.301 . S
N103 C101 1.317 . S
N104 C100 1.328 1_554 S
N104 C102 1.350 . S
H105 C100 0.930 . S
H106 C101 0.930 . S
C107 O108 1.224 . S
C107 O126 1.247 . S
O108 C107 1.224 . S
N109 Co99 2.128 . S
N109 C110 1.355 . S
N109 C112 1.311 . S
C110 N109 1.355 . S
C110 C111 1.363 . S
C110 H122 0.929 . S
C111 C110 1.363 . S
C111 N113 1.375 . S
C111 H129 0.931 . S
C112 N109 1.311 . S
C112 N113 1.347 . S
C112 H123 0.929 . S
N113 C111 1.375 . S
N113 C112 1.347 . S
C114 C117 1.365 . S
C114 N119 1.328 . S
C114 H120 0.929 . S
C115 C116 1.362 . S
C115 C118 1.378 . S
C115 H130 0.929 . S
C116 C115 1.362 . S
C116 C117 1.366 . S
C117 C114 1.365 . S
C117 C116 1.366 . S
C117 H131 0.930 . S
C118 C115 1.378 . S
C118 N119 1.315 . S
C118 H121 0.930 . S
N119 Co99 2.194 . S
N119 C114 1.328 . S
N119 C118 1.315 . S
H120 C114 0.929 . S
H121 C118 0.930 . S
H122 C110 0.929 . S
H123 C112 0.929 . S
O124 Co99 2.351 . S
O124 C127 1.244 . S
O125 Co99 2.155 . S
O125 C127 1.240 . S
O126 Co99 2.096 . S
O126 C107 1.247 . S
C127 O124 1.244 . S
C127 O125 1.240 . S
H128 C102 0.931 . S
H129 C111 0.931 . S
H130 C115 0.929 . S
H131 C117 0.930 . S
Co132 N136 2.148 1_545 S
Co132 N142 2.128 1_554 S
Co132 N152 2.194 . S
Co132 O157 2.351 . S
Co132 O158 2.155 . S
Co132 O159 2.096 1_544 S
C133 N136 1.301 1_545 S
C133 N137 1.328 1_545 S
C133 H138 0.930 . S
C134 C135 1.333 . S
C134 N136 1.317 . S
C134 H139 0.930 . S
C135 C134 1.333 . S
C135 N137 1.350 . S
C135 H161 0.931 . S
N136 Co132 2.148 1_565 S
N136 C133 1.301 1_565 S
N136 C134 1.317 . S
N137 C133 1.328 1_565 S
N137 C135 1.350 . S
H138 C133 0.930 . S
H139 C134 0.930 . S
C140 O141 1.224 . S
C140 O159 1.247 . S
O141 C140 1.224 . S
N142 Co132 2.128 1_556 S
N142 C143 1.355 . S
N142 C145 1.311 . S
C143 N142 1.355 . S
C143 C144 1.363 . S
C143 H155 0.929 . S
C144 C143 1.363 . S
C144 N146 1.375 . S
C144 H162 0.931 . S
C145 N142 1.311 . S
C145 N146 1.347 . S
C145 H156 0.929 1_545 S
N146 C144 1.375 . S
N146 C145 1.347 . S
C147 C150 1.365 . S
C147 N152 1.328 . S
C147 H153 0.929 . S
C148 C149 1.362 1_566 S
C148 C151 1.378 . S
C148 H163 0.929 . S
C149 C148 1.362 1_544 S
C149 C150 1.366 . S
C150 C147 1.365 . S
C150 C149 1.366 . S
C150 H164 0.930 . S
C151 C148 1.378 . S
C151 N152 1.315 1_566 S
C151 H154 0.930 . S
N152 Co132 2.194 . S
N152 C147 1.328 . S
N152 C151 1.315 1_544 S
H153 C147 0.929 . S
H154 C151 0.930 . S
H155 C143 0.929 . S
H156 C145 0.929 1_565 S
O157 Co132 2.351 . S
O157 C160 1.244 . S
O158 Co132 2.155 . S
O158 C160 1.240 . S
O159 Co132 2.096 1_566 S
O159 C140 1.247 . S
C160 O157 1.244 . S
C160 O158 1.240 . S
H161 C135 0.931 . S
H162 C144 0.931 . S
H163 C148 0.929 . S
H164 C150 0.930 . S
Co165 N169 2.148 . S
Co165 N175 2.128 . S
Co165 N185 2.194 . S
Co165 O190 2.351 . S
Co165 O191 2.155 . S
Co165 O192 2.096 . S
C166 N169 1.301 . S
C166 N170 1.328 1_556 S
C166 H171 0.930 . S
C167 C168 1.333 1_556 S
C167 N169 1.317 . S
C167 H172 0.930 . S
C168 C167 1.333 1_554 S
C168 N170 1.350 . S
C168 H194 0.931 . S
N169 Co165 2.148 . S
N169 C166 1.301 . S
N169 C167 1.317 . S
N170 C166 1.328 1_554 S
N170 C168 1.350 . S
H171 C166 0.930 . S
H172 C167 0.930 . S
C173 O174 1.224 . S
C173 O192 1.247 . S
O174 C173 1.224 . S
N175 Co165 2.128 . S
N175 C176 1.355 . S
N175 C178 1.311 . S
C176 N175 1.355 . S
C176 C177 1.363 . S
C176 H188 0.929 . S
C177 C176 1.363 . S
C177 N179 1.375 . S
C177 H195 0.931 . S
C178 N175 1.311 . S
C178 N179 1.347 . S
C178 H189 0.929 . S
N179 C177 1.375 . S
N179 C178 1.347 . S
C180 C183 1.365 . S
C180 N185 1.328 . S
C180 H186 0.929 . S
C181 C182 1.362 . S
C181 C184 1.378 . S
C181 H196 0.929 . S
C182 C181 1.362 . S
C182 C183 1.366 . S
C183 C180 1.365 . S
C183 C182 1.366 . S
C183 H197 0.930 . S
C184 C181 1.378 . S
C184 N185 1.315 . S
C184 H187 0.930 . S
N185 Co165 2.194 . S
N185 C180 1.328 . S
N185 C184 1.315 . S
H186 C180 0.929 . S
H187 C184 0.930 . S
H188 C176 0.929 . S
H189 C178 0.929 . S
O190 Co165 2.351 . S
O190 C193 1.244 . S
O191 Co165 2.155 . S
O191 C193 1.240 . S
O192 Co165 2.096 . S
O192 C173 1.247 . S
C193 O190 1.244 . S
C193 O191 1.240 . S
H194 C168 0.931 . S
H195 C177 0.931 . S
H196 C181 0.929 . S
H197 C183 0.930 . S
Co198 N202 2.148 1_545 S
Co198 N208 2.128 . S
Co198 N218 2.194 . S
Co198 O223 2.351 . S
Co198 O224 2.155 . S
Co198 O225 2.096 1_545 S
C199 N202 1.301 1_545 S
C199 N203 1.328 1_545 S
C199 H204 0.930 . S
C200 C201 1.333 . S
C200 N202 1.317 . S
C200 H205 0.930 . S
C201 C200 1.333 . S
C201 N203 1.350 . S
C201 H227 0.931 . S
N202 Co198 2.148 1_565 S
N202 C199 1.301 1_565 S
N202 C200 1.317 . S
N203 C199 1.328 1_565 S
N203 C201 1.350 . S
H204 C199 0.930 . S
H205 C200 0.930 . S
C206 O207 1.224 . S
C206 O225 1.247 . S
O207 C206 1.224 . S
N208 Co198 2.128 . S
N208 C209 1.355 . S
N208 C211 1.311 . S
C209 N208 1.355 . S
C209 C210 1.363 . S
C209 H221 0.929 . S
C210 C209 1.363 . S
C210 N212 1.375 . S
C210 H228 0.931 . S
C211 N208 1.311 . S
C211 N212 1.347 . S
C211 H222 0.929 1_545 S
N212 C210 1.375 . S
N212 C211 1.347 . S
C213 C216 1.365 . S
C213 N218 1.328 . S
C213 H219 0.929 . S
C214 C215 1.362 1_565 S
C214 C217 1.378 . S
C214 H229 0.929 . S
C215 C214 1.362 1_545 S
C215 C216 1.366 . S
C216 C213 1.365 . S
C216 C215 1.366 . S
C216 H230 0.930 . S
C217 C214 1.378 . S
C217 N218 1.315 1_565 S
C217 H220 0.930 . S
N218 Co198 2.194 . S
N218 C213 1.328 . S
N218 C217 1.315 1_545 S
H219 C213 0.929 . S
H220 C217 0.930 . S
H221 C209 0.929 . S
H222 C211 0.929 1_565 S
O223 Co198 2.351 . S
O223 C226 1.244 . S
O224 Co198 2.155 . S
O224 C226 1.240 . S
O225 Co198 2.096 1_565 S
O225 C206 1.247 . S
C226 O223 1.244 . S
C226 O224 1.240 . S
H227 C201 0.931 . S
H228 C210 0.931 . S
H229 C214 0.929 . S
H230 C216 0.930 . S
Co231 N235 2.148 . S
Co231 N241 2.128 . S
Co231 N251 2.194 . S
Co231 O256 2.351 . S
Co231 O257 2.155 . S
Co231 O258 2.096 . S
C232 N235 1.301 . S
C232 N236 1.328 1_554 S
C232 H237 0.930 . S
C233 C234 1.333 1_554 S
C233 N235 1.317 . S
C233 H238 0.930 . S
C234 C233 1.333 1_556 S
C234 N236 1.350 . S
C234 H260 0.931 . S
N235 Co231 2.148 . S
N235 C232 1.301 . S
N235 C233 1.317 . S
N236 C232 1.328 1_556 S
N236 C234 1.350 . S
H237 C232 0.930 . S
H238 C233 0.930 . S
C239 O240 1.224 . S
C239 O258 1.247 . S
O240 C239 1.224 . S
N241 Co231 2.128 . S
N241 C242 1.355 . S
N241 C244 1.311 . S
C242 N241 1.355 . S
C242 C243 1.363 . S
C242 H254 0.929 . S
C243 C242 1.363 . S
C243 N245 1.375 . S
C243 H261 0.931 . S
C244 N241 1.311 . S
C244 N245 1.347 . S
C244 H255 0.929 . S
N245 C243 1.375 . S
N245 C244 1.347 . S
C246 C249 1.365 . S
C246 N251 1.328 . S
C246 H252 0.929 . S
C247 C248 1.362 . S
C247 C250 1.378 . S
C247 H262 0.929 . S
C248 C247 1.362 . S
C248 C249 1.366 . S
C249 C246 1.365 . S
C249 C248 1.366 . S
C249 H263 0.930 . S
C250 C247 1.378 . S
C250 N251 1.315 . S
C250 H253 0.930 . S
N251 Co231 2.194 . S
N251 C246 1.328 . S
N251 C250 1.315 . S
H252 C246 0.929 . S
H253 C250 0.930 . S
H254 C242 0.929 . S
H255 C244 0.929 . S
O256 Co231 2.351 . S
O256 C259 1.244 . S
O257 Co231 2.155 . S
O257 C259 1.240 . S
O258 Co231 2.096 . S
O258 C239 1.247 . S
C259 O256 1.244 . S
C259 O257 1.240 . S
H260 C234 0.931 . S
H261 C243 0.931 . S
H262 C247 0.929 . S
H263 C249 0.930 . S
Co264 N268 2.148 . S
Co264 N274 2.128 . S
Co264 N284 2.194 . S
Co264 O289 2.351 . S
Co264 O290 2.155 . S
Co264 O291 2.096 . S
C265 N268 1.301 . S
C265 N269 1.328 . S
C265 H270 0.930 . S
C266 C267 1.333 . S
C266 N268 1.317 . S
C266 H271 0.930 . S
C267 C266 1.333 . S
C267 N269 1.350 . S
C267 H293 0.931 . S
N268 Co264 2.148 . S
N268 C265 1.301 . S
N268 C266 1.317 . S
N269 C265 1.328 . S
N269 C267 1.350 . S
H270 C265 0.930 . S
H271 C266 0.930 . S
C272 O273 1.224 . S
C272 O291 1.247 . S
O273 C272 1.224 . S
N274 Co264 2.128 . S
N274 C275 1.355 . S
N274 C277 1.311 . S
C275 N274 1.355 . S
C275 C276 1.363 . S
C275 H287 0.929 . S
C276 C275 1.363 . S
C276 N278 1.375 . S
C276 H294 0.931 . S
C277 N274 1.311 . S
C277 N278 1.347 . S
C277 H288 0.929 . S
N278 C276 1.375 . S
N278 C277 1.347 . S
C279 C282 1.365 . S
C279 N284 1.328 . S
C279 H285 0.929 . S
C280 C281 1.362 . S
C280 C283 1.378 . S
C280 H295 0.929 . S
C281 C280 1.362 . S
C281 C282 1.366 . S
C282 C279 1.365 . S
C282 C281 1.366 . S
C282 H296 0.930 . S
C283 C280 1.378 . S
C283 N284 1.315 . S
C283 H286 0.930 . S
N284 Co264 2.194 . S
N284 C279 1.328 . S
N284 C283 1.315 . S
H285 C279 0.929 . S
H286 C283 0.930 . S
H287 C275 0.929 . S
H288 C277 0.929 . S
O289 Co264 2.351 . S
O289 C292 1.244 . S
O290 Co264 2.155 . S
O290 C292 1.240 . S
O291 Co264 2.096 . S
O291 C272 1.247 . S
C292 O289 1.244 . S
C292 O290 1.240 . S
H293 C267 0.931 . S
H294 C276 0.931 . S
H295 C280 0.929 . S
H296 C282 0.930 . S
Co297 N301 2.148 . S
Co297 N307 2.128 . S
Co297 N317 2.194 . S
Co297 O322 2.351 . S
Co297 O323 2.155 . S
Co297 O324 2.096 . S
C298 N301 1.301 . S
C298 N302 1.328 . S
C298 H303 0.930 . S
C299 C300 1.333 . S
C299 N301 1.317 . S
C299 H304 0.930 . S
C300 C299 1.333 . S
C300 N302 1.350 . S
C300 H326 0.931 . S
N301 Co297 2.148 . S
N301 C298 1.301 . S
N301 C299 1.317 . S
N302 C298 1.328 . S
N302 C300 1.350 . S
H303 C298 0.930 . S
H304 C299 0.930 . S
C305 O306 1.224 . S
C305 O324 1.247 . S
O306 C305 1.224 . S
N307 Co297 2.128 . S
N307 C308 1.355 . S
N307 C310 1.311 . S
C308 N307 1.355 . S
C308 C309 1.363 1_556 S
C308 H320 0.929 . S
C309 C308 1.363 1_554 S
C309 N311 1.375 . S
C309 H327 0.931 . S
C310 N307 1.311 . S
C310 N311 1.347 1_556 S
C310 H321 0.929 . S
N311 C309 1.375 . S
N311 C310 1.347 1_554 S
C312 C315 1.365 . S
C312 N317 1.328 . S
C312 H318 0.929 . S
C313 C314 1.362 . S
C313 C316 1.378 . S
C313 H328 0.929 . S
C314 C313 1.362 . S
C314 C315 1.366 . S
C315 C312 1.365 . S
C315 C314 1.366 . S
C315 H329 0.930 . S
C316 C313 1.378 . S
C316 N317 1.315 . S
C316 H319 0.930 . S
N317 Co297 2.194 . S
N317 C312 1.328 . S
N317 C316 1.315 . S
H318 C312 0.929 . S
H319 C316 0.930 . S
H320 C308 0.929 . S
H321 C310 0.929 . S
O322 Co297 2.351 . S
O322 C325 1.244 . S
O323 Co297 2.155 . S
O323 C325 1.240 . S
O324 Co297 2.096 . S
O324 C305 1.247 . S
C325 O322 1.244 . S
C325 O323 1.240 . S
H326 C300 0.931 . S
H327 C309 0.931 . S
H328 C313 0.929 . S
H329 C315 0.930 . S
Co330 N334 2.148 . S
Co330 N340 2.128 1_554 S
Co330 N350 2.194 . S
Co330 O355 2.351 . S
Co330 O356 2.155 . S
Co330 O357 2.096 1_554 S
C331 N334 1.301 . S
C331 N335 1.328 . S
C331 H336 0.930 . S
C332 C333 1.333 . S
C332 N334 1.317 . S
C332 H337 0.930 . S
C333 C332 1.333 . S
C333 N335 1.350 . S
C333 H359 0.931 . S
N334 Co330 2.148 . S
N334 C331 1.301 . S
N334 C332 1.317 . S
N335 C331 1.328 . S
N335 C333 1.350 . S
H336 C331 0.930 . S
H337 C332 0.930 . S
C338 O339 1.224 . S
C338 O357 1.247 . S
O339 C338 1.224 . S
N340 Co330 2.128 1_556 S
N340 C341 1.355 . S
N340 C343 1.311 . S
C341 N340 1.355 . S
C341 C342 1.363 . S
C341 H353 0.929 . S
C342 C341 1.363 . S
C342 N344 1.375 . S
C342 H360 0.931 . S
C343 N340 1.311 . S
C343 N344 1.347 . S
C343 H354 0.929 . S
N344 C342 1.375 . S
N344 C343 1.347 . S
C345 C348 1.365 . S
C345 N350 1.328 . S
C345 H351 0.929 . S
C346 C347 1.362 1_556 S
C346 C349 1.378 . S
C346 H361 0.929 . S
C347 C346 1.362 1_554 S
C347 C348 1.366 . S
C348 C345 1.365 . S
C348 C347 1.366 . S
C348 H362 0.930 . S
C349 C346 1.378 . S
C349 N350 1.315 1_556 S
C349 H352 0.930 . S
N350 Co330 2.194 . S
N350 C345 1.328 . S
N350 C349 1.315 1_554 S
H351 C345 0.929 . S
H352 C349 0.930 . S
H353 C341 0.929 . S
H354 C343 0.929 . S
O355 Co330 2.351 . S
O355 C358 1.244 . S
O356 Co330 2.155 . S
O356 C358 1.240 . S
O357 Co330 2.096 1_556 S
O357 C338 1.247 . S
C358 O355 1.244 . S
C358 O356 1.240 . S
H359 C333 0.931 . S
H360 C342 0.931 . S
H361 C346 0.929 . S
H362 C348 0.930 . S
Co363 N367 2.148 . S
Co363 N373 2.128 . S
Co363 N383 2.194 . S
Co363 O388 2.351 . S
Co363 O389 2.155 . S
Co363 O390 2.096 . S
C364 N367 1.301 . S
C364 N368 1.328 . S
C364 H369 0.930 . S
C365 C366 1.333 . S
C365 N367 1.317 . S
C365 H370 0.930 . S
C366 C365 1.333 . S
C366 N368 1.350 . S
C366 H392 0.931 . S
N367 Co363 2.148 . S
N367 C364 1.301 . S
N367 C365 1.317 . S
N368 C364 1.328 . S
N368 C366 1.350 . S
H369 C364 0.930 . S
H370 C365 0.930 . S
C371 O372 1.224 . S
C371 O390 1.247 . S
O372 C371 1.224 . S
N373 Co363 2.128 . S
N373 C374 1.355 . S
N373 C376 1.311 . S
C374 N373 1.355 . S
C374 C375 1.363 1_554 S
C374 H386 0.929 . S
C375 C374 1.363 1_556 S
C375 N377 1.375 . S
C375 H393 0.931 . S
C376 N373 1.311 . S
C376 N377 1.347 1_554 S
C376 H387 0.929 . S
N377 C375 1.375 . S
N377 C376 1.347 1_556 S
C378 C381 1.365 . S
C378 N383 1.328 . S
C378 H384 0.929 . S
C379 C380 1.362 . S
C379 C382 1.378 . S
C379 H394 0.929 . S
C380 C379 1.362 . S
C380 C381 1.366 . S
C381 C378 1.365 . S
C381 C380 1.366 . S
C381 H395 0.930 . S
C382 C379 1.378 . S
C382 N383 1.315 . S
C382 H385 0.930 . S
N383 Co363 2.194 . S
N383 C378 1.328 . S
N383 C382 1.315 . S
H384 C378 0.929 . S
H385 C382 0.930 . S
H386 C374 0.929 . S
H387 C376 0.929 . S
O388 Co363 2.351 . S
O388 C391 1.244 . S
O389 Co363 2.155 . S
O389 C391 1.240 . S
O390 Co363 2.096 . S
O390 C371 1.247 . S
C391 O388 1.244 . S
C391 O389 1.240 . S
H392 C366 0.931 . S
H393 C375 0.931 . S
H394 C379 0.929 . S
H395 C381 0.930 . S
Co396 N400 2.148 . S
Co396 N406 2.128 . S
Co396 N416 2.194 . S
Co396 O421 2.351 . S
Co396 O422 2.155 . S
Co396 O423 2.096 . S
C397 N400 1.301 . S
C397 N401 1.328 . S
C397 H402 0.930 . S
C398 C399 1.333 . S
C398 N400 1.317 . S
C398 H403 0.930 . S
C399 C398 1.333 . S
C399 N401 1.350 . S
C399 H425 0.931 . S
N400 Co396 2.148 . S
N400 C397 1.301 . S
N400 C398 1.317 . S
N401 C397 1.328 . S
N401 C399 1.350 . S
H402 C397 0.930 . S
H403 C398 0.930 . S
C404 O405 1.224 . S
C404 O423 1.247 . S
O405 C404 1.224 . S
N406 Co396 2.128 . S
N406 C407 1.355 . S
N406 C409 1.311 . S
C407 N406 1.355 . S
C407 C408 1.363 . S
C407 H419 0.929 . S
C408 C407 1.363 . S
C408 N410 1.375 . S
C408 H426 0.931 . S
C409 N406 1.311 . S
C409 N410 1.347 . S
C409 H420 0.929 . S
N410 C408 1.375 . S
N410 C409 1.347 . S
C411 C414 1.365 . S
C411 N416 1.328 . S
C411 H417 0.929 . S
C412 C413 1.362 . S
C412 C415 1.378 . S
C412 H427 0.929 . S
C413 C412 1.362 . S
C413 C414 1.366 . S
C414 C411 1.365 . S
C414 C413 1.366 . S
C414 H428 0.930 . S
C415 C412 1.378 . S
C415 N416 1.315 . S
C415 H418 0.930 . S
N416 Co396 2.194 . S
N416 C411 1.328 . S
N416 C415 1.315 . S
H417 C411 0.929 . S
H418 C415 0.930 . S
H419 C407 0.929 . S
H420 C409 0.929 . S
O421 Co396 2.351 . S
O421 C424 1.244 . S
O422 Co396 2.155 . S
O422 C424 1.240 . S
O423 Co396 2.096 . S
O423 C404 1.247 . S
C424 O421 1.244 . S
C424 O422 1.240 . S
H425 C399 0.931 . S
H426 C408 0.931 . S
H427 C412 0.929 . S
H428 C414 0.930 . S
Co429 N433 2.148 . S
Co429 N439 2.128 . S
Co429 N449 2.194 . S
Co429 O454 2.351 . S
Co429 O455 2.155 . S
Co429 O456 2.096 . S
C430 N433 1.301 . S
C430 N434 1.328 . S
C430 H435 0.930 . S
C431 C432 1.333 . S
C431 N433 1.317 . S
C431 H436 0.930 . S
C432 C431 1.333 . S
C432 N434 1.350 . S
C432 H458 0.931 . S
N433 Co429 2.148 . S
N433 C430 1.301 . S
N433 C431 1.317 . S
N434 C430 1.328 . S
N434 C432 1.350 . S
H435 C430 0.930 . S
H436 C431 0.930 . S
C437 O438 1.224 . S
C437 O456 1.247 . S
O438 C437 1.224 . S
N439 Co429 2.128 . S
N439 C440 1.355 . S
N439 C442 1.311 . S
C440 N439 1.355 . S
C440 C441 1.363 1_554 S
C440 H452 0.929 . S
C441 C440 1.363 1_556 S
C441 N443 1.375 . S
C441 H459 0.931 . S
C442 N439 1.311 . S
C442 N443 1.347 1_554 S
C442 H453 0.929 . S
N443 C441 1.375 . S
N443 C442 1.347 1_556 S
C444 C447 1.365 . S
C444 N449 1.328 . S
C444 H450 0.929 . S
C445 C446 1.362 . S
C445 C448 1.378 . S
C445 H460 0.929 . S
C446 C445 1.362 . S
C446 C447 1.366 . S
C447 C444 1.365 . S
C447 C446 1.366 . S
C447 H461 0.930 . S
C448 C445 1.378 . S
C448 N449 1.315 . S
C448 H451 0.930 . S
N449 Co429 2.194 . S
N449 C444 1.328 . S
N449 C448 1.315 . S
H450 C444 0.929 . S
H451 C448 0.930 . S
H452 C440 0.929 . S
H453 C442 0.929 . S
O454 Co429 2.351 . S
O454 C457 1.244 . S
O455 Co429 2.155 . S
O455 C457 1.240 . S
O456 Co429 2.096 . S
O456 C437 1.247 . S
C457 O454 1.244 . S
C457 O455 1.240 . S
H458 C432 0.931 . S
H459 C441 0.931 . S
H460 C445 0.929 . S
H461 C447 0.930 . S
Co462 N466 2.148 1_554 S
Co462 N472 2.128 . S
Co462 N482 2.194 1_554 S
Co462 O487 2.351 1_554 S
Co462 O488 2.155 1_554 S
Co462 O489 2.096 . S
C463 N466 1.301 . S
C463 N467 1.328 . S
C463 H468 0.930 . S
C464 C465 1.333 . S
C464 N466 1.317 . S
C464 H469 0.930 . S
C465 C464 1.333 . S
C465 N467 1.350 . S
C465 H491 0.931 . S
N466 Co462 2.148 1_556 S
N466 C463 1.301 . S
N466 C464 1.317 . S
N467 C463 1.328 . S
N467 C465 1.350 . S
H468 C463 0.930 . S
H469 C464 0.930 . S
C470 O471 1.224 . S
C470 O489 1.247 . S
O471 C470 1.224 . S
N472 Co462 2.128 . S
N472 C473 1.355 . S
N472 C475 1.311 . S
C473 N472 1.355 . S
C473 C474 1.363 . S
C473 H485 0.929 . S
C474 C473 1.363 . S
C474 N476 1.375 . S
C474 H492 0.931 . S
C475 N472 1.311 . S
C475 N476 1.347 . S
C475 H486 0.929 . S
N476 C474 1.375 . S
N476 C475 1.347 . S
C477 C480 1.365 . S
C477 N482 1.328 . S
C477 H483 0.929 . S
C478 C479 1.362 . S
C478 C481 1.378 . S
C478 H493 0.929 . S
C479 C478 1.362 . S
C479 C480 1.366 1_554 S
C480 C477 1.365 . S
C480 C479 1.366 1_556 S
C480 H494 0.930 . S
C481 C478 1.378 . S
C481 N482 1.315 1_554 S
C481 H484 0.930 . S
N482 Co462 2.194 1_556 S
N482 C477 1.328 . S
N482 C481 1.315 1_556 S
H483 C477 0.929 . S
H484 C481 0.930 . S
H485 C473 0.929 . S
H486 C475 0.929 . S
O487 Co462 2.351 1_556 S
O487 C490 1.244 . S
O488 Co462 2.155 1_556 S
O488 C490 1.240 . S
O489 Co462 2.096 . S
O489 C470 1.247 . S
C490 O487 1.244 . S
C490 O488 1.240 . S
H491 C465 0.931 . S
H492 C474 0.931 . S
H493 C478 0.929 . S
H494 C480 0.930 . S
Co495 N499 2.148 . S
Co495 N505 2.128 . S
Co495 N515 2.194 . S
Co495 O520 2.351 . S
Co495 O521 2.155 . S
Co495 O522 2.096 . S
C496 N499 1.301 . S
C496 N500 1.328 . S
C496 H501 0.930 . S
C497 C498 1.333 . S
C497 N499 1.317 . S
C497 H502 0.930 . S
C498 C497 1.333 . S
C498 N500 1.350 . S
C498 H524 0.931 . S
N499 Co495 2.148 . S
N499 C496 1.301 . S
N499 C497 1.317 . S
N500 C496 1.328 . S
N500 C498 1.350 . S
H501 C496 0.930 . S
H502 C497 0.930 . S
C503 O504 1.224 . S
C503 O522 1.247 . S
O504 C503 1.224 . S
N505 Co495 2.128 . S
N505 C506 1.355 . S
N505 C508 1.311 . S
C506 N505 1.355 . S
C506 C507 1.363 1_556 S
C506 H518 0.929 . S
C507 C506 1.363 1_554 S
C507 N509 1.375 . S
C507 H525 0.931 . S
C508 N505 1.311 . S
C508 N509 1.347 1_556 S
C508 H519 0.929 . S
N509 C507 1.375 . S
N509 C508 1.347 1_554 S
C510 C513 1.365 . S
C510 N515 1.328 . S
C510 H516 0.929 . S
C511 C512 1.362 . S
C511 C514 1.378 . S
C511 H526 0.929 . S
C512 C511 1.362 . S
C512 C513 1.366 . S
C513 C510 1.365 . S
C513 C512 1.366 . S
C513 H527 0.930 . S
C514 C511 1.378 . S
C514 N515 1.315 . S
C514 H517 0.930 . S
N515 Co495 2.194 . S
N515 C510 1.328 . S
N515 C514 1.315 . S
H516 C510 0.929 . S
H517 C514 0.930 . S
H518 C506 0.929 . S
H519 C508 0.929 . S
O520 Co495 2.351 . S
O520 C523 1.244 . S
O521 Co495 2.155 . S
O521 C523 1.240 . S
O522 Co495 2.096 . S
O522 C503 1.247 . S
C523 O520 1.244 . S
C523 O521 1.240 . S
H524 C498 0.931 . S
H525 C507 0.931 . S
H526 C511 0.929 . S
H527 C513 0.930 . S
C528 C529 1.369 1_565 S
C528 C530 1.419 . S
C528 H532 0.930 . S
C529 C528 1.369 1_545 S
C529 C538 1.429 . S
C530 C528 1.419 . S
C530 C531 1.378 . S
C530 H533 0.929 . S
C531 C530 1.378 . S
C531 C537 1.409 1_565 S
H532 C528 0.930 . S
H533 C530 0.929 . S
S534 N535 1.613 . S
S534 N536 1.610 . S
N535 S534 1.613 . S
N535 C538 1.350 . S
N536 S534 1.610 . S
N536 C537 1.351 . S
C537 C531 1.409 1_545 S
C537 N536 1.351 . S
C537 C538 1.434 . S
C538 C529 1.429 . S
C538 N535 1.350 . S
C538 C537 1.434 . S
C539 C540 1.369 . S
C539 C541 1.419 . S
C539 H543 0.930 . S
C540 C539 1.369 . S
C540 C549 1.429 . S
C541 C539 1.419 . S
C541 C542 1.363 . S
C541 H544 0.929 . S
C542 C541 1.363 . S
C542 C548 1.428 . S
H543 C539 0.930 . S
H544 C541 0.929 . S
S545 N546 1.613 . S
S545 N547 1.610 . S
N546 S545 1.613 . S
N546 C549 1.350 . S
N547 S545 1.610 . S
N547 C548 1.351 . S
C548 C542 1.428 . S
C548 N547 1.351 . S
C548 C549 1.434 . S
C549 C540 1.429 . S
C549 N546 1.350 . S
C549 C548 1.434 . S
C550 C551 1.396 . S
C550 C552 1.419 1_554 S
C550 H554 0.930 . S
C551 C550 1.396 . S
C551 C560 1.391 1_565 S
C552 C550 1.419 1_556 S
C552 C553 1.363 1_565 S
C552 H555 0.929 . S
C553 C552 1.363 1_545 S
C553 C559 1.428 . S
H554 C550 0.930 . S
H555 C552 0.929 . S
S556 N557 1.613 . S
S556 N558 1.610 1_554 S
N557 S556 1.613 . S
N557 C560 1.350 . S
N558 S556 1.610 1_556 S
N558 C559 1.351 . S
C559 C553 1.428 . S
C559 N558 1.351 . S
C559 C560 1.434 1_556 S
C560 C551 1.391 1_545 S
C560 N557 1.350 . S
C560 C559 1.434 1_554 S
C561 C562 1.369 . S
C561 C563 1.419 . S
C561 H565 0.930 . S
C562 C561 1.369 . S
C562 C571 1.429 . S
C563 C561 1.419 . S
C563 C564 1.363 . S
C563 H566 0.929 . S
C564 C563 1.363 . S
C564 C570 1.428 . S
H565 C561 0.930 . S
H566 C563 0.929 . S
S567 N568 1.613 . S
S567 N569 1.610 . S
N568 S567 1.613 . S
N568 C571 1.350 . S
N569 S567 1.610 . S
N569 C570 1.351 . S
C570 C564 1.428 . S
C570 N569 1.351 . S
C570 C571 1.434 . S
C571 C562 1.429 . S
C571 N568 1.350 . S
C571 C570 1.434 . S
C572 C573 1.369 . S
C572 C574 1.419 . S
C572 H576 0.930 . S
C573 C572 1.369 . S
C573 C582 1.429 1_545 S
C574 C572 1.419 . S
C574 C575 1.353 1_545 S
C574 H577 0.929 . S
C575 C574 1.353 1_565 S
C575 C581 1.437 . S
H576 C572 0.930 . S
H577 C574 0.929 . S
S578 N579 1.613 . S
S578 N580 1.610 . S
N579 S578 1.613 . S
N579 C582 1.350 . S
N580 S578 1.610 . S
N580 C581 1.351 . S
C581 C575 1.437 . S
C581 N580 1.351 . S
C581 C582 1.434 . S
C582 C573 1.429 1_565 S
C582 N579 1.350 . S
C582 C581 1.434 . S
C583 C584 1.369 . S
C583 C585 1.419 . S
C583 H587 0.930 . S
C584 C583 1.369 . S
C584 C593 1.429 . S
C585 C583 1.419 . S
C585 C586 1.363 . S
C585 H588 0.929 . S
C586 C585 1.363 . S
C586 C592 1.428 . S
H587 C583 0.930 . S
H588 C585 0.929 . S
S589 N590 1.613 . S
S589 N591 1.610 . S
N590 S589 1.613 . S
N590 C593 1.350 . S
N591 S589 1.610 . S
N591 C592 1.351 . S
C592 C586 1.428 . S
C592 N591 1.351 . S
C592 C593 1.434 . S
C593 C584 1.429 . S
C593 N590 1.350 . S
C593 C592 1.434 . S
C594 C595 1.373 . S
C594 C596 1.419 1_554 S
C594 H598 0.930 . S
C595 C594 1.373 . S
C595 C604 1.422 1_565 S
C596 C594 1.419 1_556 S
C596 C597 1.363 1_565 S
C596 H599 0.929 . S
C597 C596 1.363 1_545 S
C597 C603 1.428 . S
H598 C594 0.930 . S
H599 C596 0.929 . S
S600 N601 1.613 . S
S600 N602 1.610 1_554 S
N601 S600 1.613 . S
N601 C604 1.350 . S
N602 S600 1.610 1_556 S
N602 C603 1.351 . S
C603 C597 1.428 . S
C603 N602 1.351 . S
C603 C604 1.434 1_556 S
C604 C595 1.422 1_545 S
C604 N601 1.350 . S
C604 C603 1.434 1_554 S
C605 C606 1.369 . S
C605 C607 1.419 . S
C605 H609 0.930 . S
C606 C605 1.369 . S
C606 C615 1.429 . S
C607 C605 1.419 . S
C607 C608 1.363 . S
C607 H610 0.929 . S
C608 C607 1.363 . S
C608 C614 1.428 . S
H609 C605 0.930 . S
H610 C607 0.929 . S
S611 N612 1.613 . S
S611 N613 1.610 . S
N612 S611 1.613 . S
N612 C615 1.350 . S
N613 S611 1.610 . S
N613 C614 1.351 . S
C614 C608 1.428 . S
C614 N613 1.351 . S
C614 C615 1.434 . S
C615 C606 1.429 . S
C615 N612 1.350 . S
C615 C614 1.434 . S
C616 C617 1.369 . S
C616 C618 1.419 1_554 S
C616 H620 0.930 . S
C617 C616 1.369 . S
C617 C626 1.429 . S
C618 C616 1.419 1_556 S
C618 C619 1.363 . S
C618 H621 0.929 . S
C619 C618 1.363 . S
C619 C625 1.428 . S
H620 C616 0.930 . S
H621 C618 0.929 . S
S622 N623 1.613 1_556 S
S622 N624 1.610 . S
N623 S622 1.613 1_554 S
N623 C626 1.350 . S
N624 S622 1.610 . S
N624 C625 1.351 . S
C625 C619 1.428 . S
C625 N624 1.351 . S
C625 C626 1.434 1_556 S
C626 C617 1.429 . S
C626 N623 1.350 . S
C626 C625 1.434 1_554 S
C627 C628 1.369 . S
C627 C629 1.419 . S
C627 H631 0.930 . S
C628 C627 1.369 . S
C628 C637 1.429 . S
C629 C627 1.419 . S
C629 C630 1.363 . S
C629 H632 0.929 . S
C630 C629 1.363 . S
C630 C636 1.428 . S
H631 C627 0.930 . S
H632 C629 0.929 . S
S633 N634 1.613 . S
S633 N635 1.610 . S
N634 S633 1.613 . S
N634 C637 1.350 . S
N635 S633 1.610 . S
N635 C636 1.351 . S
C636 C630 1.428 . S
C636 N635 1.351 . S
C636 C637 1.434 . S
C637 C628 1.429 . S
C637 N634 1.350 . S
C637 C636 1.434 . S
C638 C639 1.369 . S
C638 C640 1.419 . S
C638 H642 0.930 . S
C639 C638 1.369 . S
C639 C648 1.429 . S
C640 C638 1.419 . S
C640 C641 1.363 . S
C640 H643 0.929 . S
C641 C640 1.363 . S
C641 C647 1.428 . S
H642 C638 0.930 . S
H643 C640 0.929 . S
S644 N645 1.613 . S
S644 N646 1.610 . S
N645 S644 1.613 . S
N645 C648 1.350 . S
N646 S644 1.610 . S
N646 C647 1.351 . S
C647 C641 1.428 . S
C647 N646 1.351 . S
C647 C648 1.434 . S
C648 C639 1.429 . S
C648 N645 1.350 . S
C648 C647 1.434 . S
C649 C650 1.369 . S
C649 C651 1.419 . S
C649 H653 0.930 . S
C650 C649 1.369 . S
C650 C659 1.429 . S
C651 C649 1.419 . S
C651 C652 1.363 . S
C651 H654 0.929 . S
C652 C651 1.363 . S
C652 C658 1.428 . S
H653 C649 0.930 . S
H654 C651 0.929 . S
S655 N656 1.613 . S
S655 N657 1.610 . S
N656 S655 1.613 . S
N656 C659 1.350 . S
N657 S655 1.610 . S
N657 C658 1.351 . S
C658 C652 1.428 . S
C658 N657 1.351 . S
C658 C659 1.434 . S
C659 C650 1.429 . S
C659 N656 1.350 . S
C659 C658 1.434 . S
C660 C661 1.369 . S
C660 C662 1.419 1_556 S
C660 H664 0.930 . S
C661 C660 1.369 . S
C661 C670 1.429 . S
C662 C660 1.419 1_554 S
C662 C663 1.363 . S
C662 H665 0.929 . S
C663 C662 1.363 . S
C663 C669 1.428 . S
H664 C660 0.930 . S
H665 C662 0.929 . S
S666 N667 1.613 1_554 S
S666 N668 1.610 . S
N667 S666 1.613 1_556 S
N667 C670 1.350 . S
N668 S666 1.610 . S
N668 C669 1.351 . S
C669 C663 1.428 . S
C669 N668 1.351 . S
C669 C670 1.434 1_554 S
C670 C661 1.429 . S
C670 N667 1.350 . S
C670 C669 1.434 1_556 S
C671 C672 1.369 . S
C671 C673 1.419 . S
C671 H675 0.930 . S
C672 C671 1.369 . S
C672 C681 1.429 . S
C673 C671 1.419 . S
C673 C674 1.363 . S
C673 H676 0.929 . S
C674 C673 1.363 . S
C674 C680 1.428 . S
H675 C671 0.930 . S
H676 C673 0.929 . S
S677 N678 1.613 . S
S677 N679 1.610 . S
N678 S677 1.613 . S
N678 C681 1.350 . S
N679 S677 1.610 . S
N679 C680 1.351 . S
C680 C674 1.428 . S
C680 N679 1.351 . S
C680 C681 1.434 . S
C681 C672 1.429 . S
C681 N678 1.350 . S
C681 C680 1.434 . S
C682 C683 1.369 . S
C682 C684 1.419 . S
C682 H686 0.930 . S
C683 C682 1.369 . S
C683 C692 1.429 . S
C684 C682 1.419 . S
C684 C685 1.363 . S
C684 H687 0.929 . S
C685 C684 1.363 . S
C685 C691 1.428 . S
H686 C682 0.930 . S
H687 C684 0.929 . S
S688 N689 1.613 . S
S688 N690 1.610 . S
N689 S688 1.613 . S
N689 C692 1.350 . S
N690 S688 1.610 . S
N690 C691 1.351 . S
C691 C685 1.428 . S
C691 N690 1.351 . S
C691 C692 1.434 . S
C692 C683 1.429 . S
C692 N689 1.350 . S
C692 C691 1.434 . S
C693 C694 1.369 . S
C693 C695 1.419 . S
C693 H697 0.930 . S
C694 C693 1.369 . S
C694 C703 1.429 . S
C695 C693 1.419 . S
C695 C696 1.363 . S
C695 H698 0.929 . S
C696 C695 1.363 . S
C696 C702 1.428 . S
H697 C693 0.930 . S
H698 C695 0.929 . S
S699 N700 1.613 . S
S699 N701 1.610 . S
N700 S699 1.613 . S
N700 C703 1.350 . S
N701 S699 1.610 . S
N701 C702 1.351 . S
C702 C696 1.428 . S
C702 N701 1.351 . S
C702 C703 1.434 . S
C703 C694 1.429 . S
C703 N700 1.350 . S
C703 C702 1.434 . S
C704 C705 1.369 . S
C704 C706 1.419 . S
C704 H708 0.930 . S
C705 C704 1.369 . S
C705 C714 1.429 . S
C706 C704 1.419 . S
C706 C707 1.363 . S
C706 H709 0.929 . S
C707 C706 1.363 . S
C707 C713 1.428 . S
H708 C704 0.930 . S
H709 C706 0.929 . S
S710 N711 1.613 . S
S710 N712 1.610 . S
N711 S710 1.613 . S
N711 C714 1.350 . S
N712 S710 1.610 . S
N712 C713 1.351 . S
C713 C707 1.428 . S
C713 N712 1.351 . S
C713 C714 1.434 . S
C714 C705 1.429 . S
C714 N711 1.350 . S
C714 C713 1.434 . S
C715 C716 1.369 . S
C715 C717 1.419 . S
C715 H719 0.930 . S
C716 C715 1.369 . S
C716 C725 1.429 . S
C717 C715 1.419 . S
C717 C718 1.363 . S
C717 H720 0.929 . S
C718 C717 1.363 . S
C718 C724 1.428 . S
H719 C715 0.930 . S
H720 C717 0.929 . S
S721 N722 1.613 . S
S721 N723 1.610 . S
N722 S721 1.613 . S
N722 C725 1.350 . S
N723 S721 1.610 . S
N723 C724 1.351 . S
C724 C718 1.428 . S
C724 N723 1.351 . S
C724 C725 1.434 . S
C725 C716 1.429 . S
C725 N722 1.350 . S
C725 C724 1.434 . S
C726 C727 1.369 . S
C726 C728 1.419 . S
C726 H730 0.930 . S
C727 C726 1.369 . S
C727 C736 1.429 . S
C728 C726 1.419 . S
C728 C729 1.363 . S
C728 H731 0.929 . S
C729 C728 1.363 . S
C729 C735 1.428 . S
H730 C726 0.930 . S
H731 C728 0.929 . S
S732 N733 1.613 . S
S732 N734 1.610 . S
N733 S732 1.613 . S
N733 C736 1.350 . S
N734 S732 1.610 . S
N734 C735 1.351 . S
C735 C729 1.428 . S
C735 N734 1.351 . S
C735 C736 1.434 . S
C736 C727 1.429 . S
C736 N733 1.350 . S
C736 C735 1.434 . S
C737 C738 1.369 . S
C737 C739 1.419 . S
C737 H741 0.930 1_556 S
C738 C737 1.369 . S
C738 C747 1.429 . S
C739 C737 1.419 . S
C739 C740 1.363 . S
C739 H742 0.929 . S
C740 C739 1.363 . S
C740 C746 1.428 . S
H741 C737 0.930 1_554 S
H742 C739 0.929 . S
S743 N744 1.613 . S
S743 N745 1.610 . S
N744 S743 1.613 . S
N744 C747 1.350 . S
N745 S743 1.610 . S
N745 C746 1.351 . S
C746 C740 1.428 . S
C746 N745 1.351 . S
C746 C747 1.434 . S
C747 C738 1.429 . S
C747 N744 1.350 . S
C747 C746 1.434 . S
C748 C749 1.369 . S
C748 C750 1.419 . S
C748 H752 0.930 . S
C749 C748 1.369 . S
C749 C758 1.429 . S
C750 C748 1.419 . S
C750 C751 1.363 . S
C750 H753 0.929 . S
C751 C750 1.363 . S
C751 C757 1.428 . S
H752 C748 0.930 . S
H753 C750 0.929 . S
S754 N755 1.613 . S
S754 N756 1.610 . S
N755 S754 1.613 . S
N755 C758 1.350 . S
N756 S754 1.610 . S
N756 C757 1.351 . S
C757 C751 1.428 . S
C757 N756 1.351 . S
C757 C758 1.434 . S
C758 C749 1.429 . S
C758 N755 1.350 . S
C758 C757 1.434 . S
C759 C760 1.369 . S
C759 C761 1.419 . S
C759 H763 0.930 . S
C760 C759 1.369 . S
C760 C769 1.429 . S
C761 C759 1.419 . S
C761 C762 1.363 . S
C761 H764 0.929 . S
C762 C761 1.363 . S
C762 C768 1.428 . S
H763 C759 0.930 . S
H764 C761 0.929 . S
S765 N766 1.613 . S
S765 N767 1.610 . S
N766 S765 1.613 . S
N766 C769 1.350 . S
N767 S765 1.610 . S
N767 C768 1.351 . S
C768 C762 1.428 . S
C768 N767 1.351 . S
C768 C769 1.434 . S
C769 C760 1.429 . S
C769 N766 1.350 . S
C769 C768 1.434 . S
C770 C771 1.369 . S
C770 C772 1.419 . S
C770 H774 0.930 . S
C771 C770 1.369 . S
C771 C780 1.429 . S
C772 C770 1.419 . S
C772 C773 1.363 . S
C772 H775 0.929 . S
C773 C772 1.363 . S
C773 C779 1.428 . S
H774 C770 0.930 . S
H775 C772 0.929 . S
S776 N777 1.613 . S
S776 N778 1.610 . S
N777 S776 1.613 . S
N777 C780 1.350 . S
N778 S776 1.610 . S
N778 C779 1.351 . S
C779 C773 1.428 . S
C779 N778 1.351 . S
C779 C780 1.434 . S
C780 C771 1.429 . S
C780 N777 1.350 . S
C780 C779 1.434 . S
C781 C782 1.369 . S
C781 C783 1.419 . S
C781 H785 0.930 . S
C782 C781 1.369 . S
C782 C791 1.429 . S
C783 C781 1.419 . S
C783 C784 1.363 . S
C783 H786 0.929 . S
C784 C783 1.363 . S
C784 C790 1.428 . S
H785 C781 0.930 . S
H786 C783 0.929 . S
S787 N788 1.613 . S
S787 N789 1.610 . S
N788 S787 1.613 . S
N788 C791 1.350 . S
N789 S787 1.610 . S
N789 C790 1.351 . S
C790 C784 1.428 . S
C790 N789 1.351 . S
C790 C791 1.434 . S
C791 C782 1.429 . S
C791 N788 1.350 . S
C791 C790 1.434 . S
C792 C793 1.369 . S
C792 C794 1.419 . S
C792 H796 0.930 . S
C793 C792 1.369 . S
C793 C802 1.429 . S
C794 C792 1.419 . S
C794 C795 1.363 . S
C794 H797 0.929 . S
C795 C794 1.363 . S
C795 C801 1.428 . S
H796 C792 0.930 . S
H797 C794 0.929 . S
S798 N799 1.613 . S
S798 N800 1.610 . S
N799 S798 1.613 . S
N799 C802 1.350 . S
N800 S798 1.610 . S
N800 C801 1.351 . S
C801 C795 1.428 . S
C801 N800 1.351 . S
C801 C802 1.434 . S
C802 C793 1.429 . S
C802 N799 1.350 . S
C802 C801 1.434 . S
C803 C804 1.369 . S
C803 C805 1.419 . S
C803 H807 0.930 . S
C804 C803 1.369 . S
C804 C813 1.429 . S
C805 C803 1.419 . S
C805 C806 1.363 . S
C805 H808 0.929 . S
C806 C805 1.363 . S
C806 C812 1.428 . S
H807 C803 0.930 . S
H808 C805 0.929 . S
S809 N810 1.613 . S
S809 N811 1.610 . S
N810 S809 1.613 . S
N810 C813 1.350 1_554 S
N811 S809 1.610 . S
N811 C812 1.351 1_554 S
C812 C806 1.428 . S
C812 N811 1.351 1_556 S
C812 C813 1.434 . S
C813 C804 1.429 . S
C813 N810 1.350 1_556 S
C813 C812 1.434 . S
C814 C815 1.369 . S
C814 C816 1.419 . S
C814 H818 0.930 1_554 S
C815 C814 1.369 . S
C815 C824 1.429 . S
C816 C814 1.419 . S
C816 C817 1.363 . S
C816 H819 0.929 . S
C817 C816 1.363 . S
C817 C823 1.428 . S
H818 C814 0.930 1_556 S
H819 C816 0.929 . S
S820 N821 1.613 . S
S820 N822 1.610 . S
N821 S820 1.613 . S
N821 C824 1.350 . S
N822 S820 1.610 . S
N822 C823 1.351 . S
C823 C817 1.428 . S
C823 N822 1.351 . S
C823 C824 1.434 . S
C824 C815 1.429 . S
C824 N821 1.350 . S
C824 C823 1.434 . S
C825 C826 1.369 . S
C825 C827 1.419 . S
C825 H829 0.930 . S
C826 C825 1.369 . S
C826 C835 1.429 . S
C827 C825 1.419 . S
C827 C828 1.363 . S
C827 H830 0.929 . S
C828 C827 1.363 . S
C828 C834 1.428 . S
H829 C825 0.930 . S
H830 C827 0.929 . S
S831 N832 1.613 . S
S831 N833 1.610 . S
N832 S831 1.613 . S
N832 C835 1.350 . S
N833 S831 1.610 . S
N833 C834 1.351 . S
C834 C828 1.428 . S
C834 N833 1.351 . S
C834 C835 1.434 . S
C835 C826 1.429 . S
C835 N832 1.350 . S
C835 C834 1.434 . S
C836 C837 1.369 . S
C836 C838 1.419 . S
C836 H840 0.930 . S
C837 C836 1.369 . S
C837 C846 1.429 . S
C838 C836 1.419 . S
C838 C839 1.363 . S
C838 H841 0.929 . S
C839 C838 1.363 . S
C839 C845 1.428 . S
H840 C836 0.930 . S
H841 C838 0.929 . S
S842 N843 1.613 . S
S842 N844 1.610 . S
N843 S842 1.613 . S
N843 C846 1.350 . S
N844 S842 1.610 . S
N844 C845 1.351 . S
C845 C839 1.428 . S
C845 N844 1.351 . S
C845 C846 1.434 . S
C846 C837 1.429 . S
C846 N843 1.350 . S
C846 C845 1.434 . S
C847 C848 1.369 . S
C847 C849 1.419 . S
C847 H851 0.930 . S
C848 C847 1.369 . S
C848 C857 1.429 . S
C849 C847 1.419 . S
C849 C850 1.363 . S
C849 H852 0.929 . S
C850 C849 1.363 . S
C850 C856 1.428 . S
H851 C847 0.930 . S
H852 C849 0.929 . S
S853 N854 1.613 . S
S853 N855 1.610 . S
N854 S853 1.613 . S
N854 C857 1.350 . S
N855 S853 1.610 . S
N855 C856 1.351 . S
C856 C850 1.428 . S
C856 N855 1.351 . S
C856 C857 1.434 . S
C857 C848 1.429 . S
C857 N854 1.350 . S
C857 C856 1.434 . S
C858 C859 1.369 . S
C858 C860 1.419 . S
C858 H862 0.930 . S
C859 C858 1.369 . S
C859 C868 1.429 . S
C860 C858 1.419 . S
C860 C861 1.363 . S
C860 H863 0.929 . S
C861 C860 1.363 . S
C861 C867 1.428 . S
H862 C858 0.930 . S
H863 C860 0.929 . S
S864 N865 1.613 . S
S864 N866 1.610 . S
N865 S864 1.613 . S
N865 C868 1.350 . S
N866 S864 1.610 . S
N866 C867 1.351 . S
C867 C861 1.428 . S
C867 N866 1.351 . S
C867 C868 1.434 . S
C868 C859 1.429 . S
C868 N865 1.350 . S
C868 C867 1.434 . S
C869 C870 1.369 . S
C869 C871 1.419 . S
C869 H873 0.930 . S
C870 C869 1.369 . S
C870 C879 1.429 . S
C871 C869 1.419 . S
C871 C872 1.363 . S
C871 H874 0.929 . S
C872 C871 1.363 . S
C872 C878 1.428 . S
H873 C869 0.930 . S
H874 C871 0.929 . S
S875 N876 1.613 . S
S875 N877 1.610 . S
N876 S875 1.613 . S
N876 C879 1.350 . S
N877 S875 1.610 . S
N877 C878 1.351 . S
C878 C872 1.428 . S
C878 N877 1.351 . S
C878 C879 1.434 . S
C879 C870 1.429 . S
C879 N876 1.350 . S
C879 C878 1.434 . S
C880 C881 1.369 . S
C880 C882 1.419 . S
C880 H884 0.930 . S
C881 C880 1.369 . S
C881 C890 1.429 1_544 S
C882 C880 1.419 . S
C882 C883 1.363 . S
C882 H885 0.929 . S
C883 C882 1.363 . S
C883 C889 1.428 1_544 S
H884 C880 0.930 . S
H885 C882 0.929 . S
S886 N887 1.613 . S
S886 N888 1.610 . S
N887 S886 1.613 . S
N887 C890 1.350 . S
N888 S886 1.610 . S
N888 C889 1.351 . S
C889 C883 1.428 1_566 S
C889 N888 1.351 . S
C889 C890 1.434 . S
C890 C881 1.429 1_566 S
C890 N887 1.350 . S
C890 C889 1.434 . S
C891 C892 1.369 . S
C891 C893 1.419 . S
C891 H895 0.930 . S
C892 C891 1.369 . S
C892 C901 1.429 . S
C893 C891 1.419 . S
C893 C894 1.363 . S
C893 H896 0.929 . S
C894 C893 1.363 . S
C894 C900 1.428 . S
H895 C891 0.930 . S
H896 C893 0.929 . S
S897 N898 1.613 . S
S897 N899 1.610 . S
N898 S897 1.613 . S
N898 C901 1.350 . S
N899 S897 1.610 . S
N899 C900 1.351 . S
C900 C894 1.428 . S
C900 N899 1.351 . S
C900 C901 1.434 . S
C901 C892 1.429 . S
C901 N898 1.350 . S
C901 C900 1.434 . S
C902 C903 1.369 1_565 S
C902 C904 1.419 1_455 S
C902 H906 0.930 . S
C903 C902 1.369 1_545 S
C903 C912 1.429 . S
C904 C902 1.419 1_655 S
C904 C905 1.363 1_565 S
C904 H907 0.929 . S
C905 C904 1.363 1_545 S
C905 C911 1.428 . S
H906 C902 0.930 . S
H907 C904 0.929 . S
S908 N909 1.613 1_655 S
S908 N910 1.610 . S
N909 S908 1.613 1_455 S
N909 C912 1.350 . S
N910 S908 1.610 . S
N910 C911 1.351 . S
C911 C905 1.428 . S
C911 N910 1.351 . S
C911 C912 1.434 1_655 S
C912 C903 1.429 . S
C912 N909 1.350 . S
C912 C911 1.434 1_455 S
C913 C914 1.369 . S
C913 C915 1.419 . S
C913 H917 0.930 . S
C914 C913 1.369 . S
C914 C923 1.429 . S
C915 C913 1.419 . S
C915 C916 1.363 . S
C915 H918 0.929 . S
C916 C915 1.363 . S
C916 C922 1.428 . S
H917 C913 0.930 . S
H918 C915 0.929 . S
S919 N920 1.613 . S
S919 N921 1.610 . S
N920 S919 1.613 . S
N920 C923 1.350 . S
N921 S919 1.610 . S
N921 C922 1.351 . S
C922 C916 1.428 . S
C922 N921 1.351 . S
C922 C923 1.434 . S
C923 C914 1.429 . S
C923 N920 1.350 . S
C923 C922 1.434 . S
C924 C925 1.369 . S
C924 C926 1.419 . S
C924 H928 0.930 . S
C925 C924 1.369 . S
C925 C934 1.429 . S
C926 C924 1.419 . S
C926 C927 1.363 . S
C926 H929 0.929 . S
C927 C926 1.363 . S
C927 C933 1.428 . S
H928 C924 0.930 . S
H929 C926 0.929 . S
S930 N931 1.613 . S
S930 N932 1.610 . S
N931 S930 1.613 . S
N931 C934 1.350 . S
N932 S930 1.610 . S
N932 C933 1.351 . S
C933 C927 1.428 . S
C933 N932 1.351 . S
C933 C934 1.434 . S
C934 C925 1.429 . S
C934 N931 1.350 . S
C934 C933 1.434 . S
C935 C936 1.369 . S
C935 C937 1.419 . S
C935 H939 0.930 . S
C936 C935 1.369 . S
C936 C945 1.429 . S
C937 C935 1.419 . S
C937 C938 1.363 . S
C937 H940 0.929 . S
C938 C937 1.363 . S
C938 C944 1.428 . S
H939 C935 0.930 . S
H940 C937 0.929 . S
S941 N942 1.613 . S
S941 N943 1.610 . S
N942 S941 1.613 . S
N942 C945 1.350 . S
N943 S941 1.610 . S
N943 C944 1.351 . S
C944 C938 1.428 . S
C944 N943 1.351 . S
C944 C945 1.434 . S
C945 C936 1.429 . S
C945 N942 1.350 . S
C945 C944 1.434 . S
C946 C947 1.369 . S
C946 C948 1.419 1_655 S
C946 H950 0.930 . S
C947 C946 1.369 . S
C947 C956 1.429 . S
C948 C946 1.419 1_455 S
C948 C949 1.363 . S
C948 H951 0.929 . S
C949 C948 1.363 . S
C949 C955 1.428 . S
H950 C946 0.930 . S
H951 C948 0.929 . S
S952 N953 1.613 . S
S952 N954 1.610 1_655 S
N953 S952 1.613 . S
N953 C956 1.350 . S
N954 S952 1.610 1_455 S
N954 C955 1.351 . S
C955 C949 1.428 . S
C955 N954 1.351 . S
C955 C956 1.434 1_455 S
C956 C947 1.429 . S
C956 N953 1.350 . S
C956 C955 1.434 1_655 S
C957 C958 1.369 . S
C957 C959 1.419 . S
C957 H961 0.930 . S
C958 C957 1.369 . S
C958 C967 1.429 1_554 S
C959 C957 1.419 . S
C959 C960 1.363 . S
C959 H962 0.929 . S
C960 C959 1.363 . S
C960 C966 1.428 1_554 S
H961 C957 0.930 . S
H962 C959 0.929 . S
S963 N964 1.613 . S
S963 N965 1.610 . S
N964 S963 1.613 . S
N964 C967 1.350 . S
N965 S963 1.610 . S
N965 C966 1.351 . S
C966 C960 1.428 1_556 S
C966 N965 1.351 . S
C966 C967 1.434 . S
C967 C958 1.429 1_556 S
C967 N964 1.350 . S
C967 C966 1.434 . S
C529 N5 1.457 . S
C531 N14 1.463 . S
C540 N38 1.470 . S
C542 N47 1.469 . S
C551 N80 1.482 . S
C553 N71 1.471 . S
C562 N113 1.453 . S
C564 N104 1.460 . S
C573 N146 1.456 . S
C575 N137 1.461 . S
C584 N179 1.469 . S
C586 N170 1.472 . S
C595 N203 1.477 . S
C597 N212 1.466 . S
C606 N245 1.456 . S
C608 N236 1.458 . S
C617 N269 1.458 . S
C619 N278 1.456 . S
C628 N302 1.471 . S
C630 N311 1.469 . S
C639 N344 1.466 . S
C641 N335 1.473 . S
C650 N368 1.457 . S
C652 N377 1.456 . S
C661 N401 1.459 . S
C663 N410 1.455 . S
C672 N443 1.465 . S
C674 N434 1.474 . S
C683 N467 1.472 . S
C685 N476 1.467 . S
C694 N509 1.452 . S
C696 N500 1.461 . S
C705 C8 1.394 . S
C707 C61 1.393 . S
C716 C74 1.459 . S
C718 C41 1.461 . S
C727 C107 1.396 . S
C729 C94 1.393 . S
C738 C28 1.324 . S
C740 C127 1.325 . S
C749 C193 1.393 . S
C751 C140 1.394 . S
C760 C173 1.462 . S
C762 C206 1.461 . S
C771 C226 1.390 . S
C773 C239 1.394 . S
C782 C259 1.327 . S
C784 C160 1.327 . S
C793 C325 1.394 . S
C795 C272 1.395 . S
C804 C305 1.458 . S
C806 C338 1.460 . S
C815 C358 1.388 . S
C817 C371 1.393 . S
C826 C391 1.327 . S
C828 C292 1.326 . S
C837 C404 1.394 . S
C839 C457 1.393 . S
C848 C437 1.458 . S
C850 C470 1.459 . S
C859 C503 1.396 . S
C861 C490 1.392 . S
C870 C424 1.324 . S
C872 C523 1.323 . S
C881 C17 1.291 . S
C883 C149 1.293 . S
C892 C446 1.345 . S
C894 C50 1.342 . S
C903 C83 1.345 . S
C905 C215 1.343 . S
C914 C512 1.293 . S
C916 C116 1.293 . S
C925 C314 1.343 . S
C927 C182 1.345 . S
C936 C248 1.291 . S
C938 C380 1.293 . S
C947 C281 1.292 . S
C949 C413 1.294 . S
C958 C479 1.345 . S
C960 C347 1.344 . S
