# Generated by pormake.
# Topology umf, (4)-cn, num edge types: 1
# Building blocks:
#     Node 0, Type 0, BuildingBlock: QUQFOY_clean_sbu_1, # of connection points: 4
#     Node 1, Type 0, BuildingBlock: QUQFOY_clean_sbu_1, # of connection points: 4
#     Node 2, Type 0, BuildingBlock: QUQFOY_clean_sbu_1, # of connection points: 4
#     Node 3, Type 0, BuildingBlock: QUQFOY_clean_sbu_1, # of connection points: 4
#     Node 4, Type 0, BuildingBlock: QUQFOY_clean_sbu_1, # of connection points: 4
#     Node 5, Type 0, BuildingBlock: QUQFOY_clean_sbu_1, # of connection points: 4
#     Node 6, Type 0, BuildingBlock: QUQFOY_clean_sbu_1, # of connection points: 4
#     Node 7, Type 0, BuildingBlock: QUQFOY_clean_sbu_1, # of connection points: 4
#     Edge 8, Type (0, 0), BuildingBlock: FUNLAD_clean_linker_0, # of connection points: 2
#     Edge 9, Type (0, 0), BuildingBlock: FUNLAD_clean_linker_0, # of connection points: 2
#     Edge 10, Type (0, 0), BuildingBlock: FUNLAD_clean_linker_0, # of connection points: 2
#     Edge 11, Type (0, 0), BuildingBlock: FUNLAD_clean_linker_0, # of connection points: 2
#     Edge 12, Type (0, 0), BuildingBlock: FUNLAD_clean_linker_0, # of connection points: 2
#     Edge 13, Type (0, 0), BuildingBlock: FUNLAD_clean_linker_0, # of connection points: 2
#     Edge 14, Type (0, 0), BuildingBlock: FUNLAD_clean_linker_0, # of connection points: 2
#     Edge 15, Type (0, 0), BuildingBlock: FUNLAD_clean_linker_0, # of connection points: 2
#     Edge 16, Type (0, 0), BuildingBlock: FUNLAD_clean_linker_0, # of connection points: 2
#     Edge 17, Type (0, 0), BuildingBlock: FUNLAD_clean_linker_0, # of connection points: 2
#     Edge 18, Type (0, 0), BuildingBlock: FUNLAD_clean_linker_0, # of connection points: 2
#     Edge 19, Type (0, 0), BuildingBlock: FUNLAD_clean_linker_0, # of connection points: 2
#     Edge 20, Type (0, 0), BuildingBlock: FUNLAD_clean_linker_0, # of connection points: 2
#     Edge 21, Type (0, 0), BuildingBlock: FUNLAD_clean_linker_0, # of connection points: 2
#     Edge 22, Type (0, 0), BuildingBlock: FUNLAD_clean_linker_0, # of connection points: 2
#     Edge 23, Type (0, 0), BuildingBlock: FUNLAD_clean_linker_0, # of connection points: 2
# Relax obj value: 0.062
# Max RMSD: 0.220
# Mean RMSD: 0.220
data_MOF--net-umf--node1-QUQFOY_clean_sbu_1--edge1-FUNLAD_clean_linker_0
_symmetry_space_group_name_H-M    P1
_symmetry_Int_Tables_number       1
_symmetry_cell_setting            triclinic
loop_
_symmetry_equiv_pos_as_xyz
'x, y, z'
_cell_length_a     34.049046
_cell_length_b     34.05295
_cell_length_c     61.597548
_cell_angle_alpha  89.962933
_cell_angle_beta   89.929946
_cell_angle_gamma 90.176551
loop_
_atom_site_label
_atom_site_type_symbol
_atom_site_fract_x
_atom_site_fract_y
_atom_site_fract_z
_atom_type_partial_charge
O0 O 0.01217 0.26478 0.13842 0.0
Cd1 Cd 0.00968 0.26283 0.17182 0.0
Cd2 Cd 0.08428 0.23668 0.16565 0.0
O3 O 0.07596 0.25634 0.13374 0.0
O4 O 0.96918 0.30248 0.18103 0.0
O5 O 0.03269 0.30895 0.18744 0.0
C6 C -0.00215 0.32352 0.1884 0.0
C7 C 0.1313 0.2535 0.19172 0.0
C8 C 0.04196 0.26353 0.12596 0.0
C9 C 0.02468 0.17929 0.18311 0.0
O10 O 0.05744 0.1847 0.17365 0.0
O11 O 0.00112 0.20785 0.18596 0.0
O12 O 0.14028 0.23051 0.17577 0.0
O13 O 0.09728 0.27001 0.19133 0.0
O14 O 0.81421 0.06146 0.67162 0.0
Cd15 Cd 0.76174 0.08796 0.6647 0.0
Cd16 Cd 0.73571 0.01371 0.67116 0.0
O17 O 0.79109 0.00567 0.68479 0.0
O18 O 0.76766 0.14398 0.67487 0.0
O19 O 0.72958 0.10009 0.691 0.0
C20 C 0.74548 0.13452 0.69113 0.0
C21 C 0.67559 0.00036 0.68817 0.0
C22 C 0.81981 0.02891 0.68122 0.0
C23 C 0.73364 0.04584 0.6253 0.0
O24 O 0.73296 0.01602 0.63775 0.0
O25 O 0.74079 0.07989 0.63307 0.0
O26 O 0.6969 0.97227 0.6805 0.0
O27 O 0.6896 0.03553 0.68727 0.0
O28 O 0.97532 0.73868 0.1369 0.0
Cd29 Cd 0.97742 0.7413 0.17031 0.0
Cd30 Cd 0.90322 0.76756 0.16376 0.0
O31 O 0.91156 0.74689 0.13209 0.0
O32 O 0.01825 0.70217 0.17977 0.0
O33 O 0.95479 0.69527 0.18625 0.0
C34 C 0.98975 0.68102 0.18729 0.0
C35 C 0.85639 0.75083 0.19005 0.0
C36 C 0.94563 0.7396 0.12439 0.0
C37 C 0.96263 0.82538 0.18059 0.0
O38 O 0.93008 0.81987 0.17097 0.0
O39 O 0.98571 0.79664 0.18406 0.0
O40 O 0.84714 0.77328 0.17392 0.0
O41 O 0.89074 0.735 0.18986 0.0
O42 O 0.17889 0.9357 0.67246 0.0
Cd43 Cd 0.23092 0.90912 0.66461 0.0
Cd44 Cd 0.25728 0.98238 0.67155 0.0
O45 O 0.20252 0.99106 0.68581 0.0
O46 O 0.22206 0.85243 0.67245 0.0
O47 O 0.26181 0.89188 0.69061 0.0
C48 C 0.2439 0.85851 0.68927 0.0
C49 C 0.31804 0.99177 0.68844 0.0
C50 C 0.1737 0.96791 0.68243 0.0
C51 C 0.25838 0.95268 0.6254 0.0
O52 O 0.25933 0.98208 0.63812 0.0
O53 O 0.2513 0.9184 0.63292 0.0
O54 O 0.29772 0.02132 0.68167 0.0
O55 O 0.30267 0.95724 0.68673 0.0
O56 O 0.01384 0.73922 0.91672 0.0
Cd57 Cd 0.01363 0.74109 0.88329 0.0
Cd58 Cd 0.08723 0.76684 0.89028 0.0
O59 O 0.07754 0.74692 0.92202 0.0
O60 O 0.9742 0.70101 0.87329 0.0
O61 O 0.03821 0.69531 0.86817 0.0
C62 C 0.00351 0.68031 0.86654 0.0
C63 C 0.13782 0.75251 0.8658 0.0
C64 C 0.04317 0.74009 0.92948 0.0
C65 C 0.02898 0.82447 0.87224 0.0
O66 O 0.06117 0.81902 0.88218 0.0
O67 O 0.00554 0.79585 0.86895 0.0
O68 O 0.14406 0.77485 0.88241 0.0
O69 O 0.10421 0.73506 0.86455 0.0
O70 O 0.17736 0.06534 0.38417 0.0
Cd71 Cd 0.22974 0.0922 0.39122 0.0
Cd72 Cd 0.25593 0.01809 0.38458 0.0
O73 O 0.20053 0.00979 0.37091 0.0
O74 O 0.22386 0.1483 0.38115 0.0
O75 O 0.26202 0.10479 0.36502 0.0
C76 C 0.24616 0.13912 0.36493 0.0
C77 C 0.31618 0.00584 0.36753 0.0
C78 C 0.17179 0.03283 0.37451 0.0
C79 C 0.25795 0.04977 0.4305 0.0
O80 O 0.25869 0.02008 0.41798 0.0
O81 O 0.2507 0.08385 0.42283 0.0
O82 O 0.29504 0.97731 0.37502 0.0
O83 O 0.30191 0.04079 0.36862 0.0
O84 O 0.97777 0.26472 0.91822 0.0
Cd85 Cd 0.98033 0.26222 0.8848 0.0
Cd86 Cd 0.9065 0.23498 0.89124 0.0
O87 O 0.914 0.25597 0.9229 0.0
O88 O 0.02158 0.30139 0.87565 0.0
O89 O 0.95835 0.30833 0.86873 0.0
C90 C 0.99343 0.32257 0.86795 0.0
C91 C 0.86046 0.25055 0.86447 0.0
C92 C 0.94795 0.26355 0.93067 0.0
C93 C 0.96644 0.17793 0.87466 0.0
O94 O 0.93391 0.183 0.88437 0.0
O95 O 0.98918 0.20703 0.87103 0.0
O96 O 0.85087 0.22817 0.88061 0.0
O97 O 0.89456 0.26714 0.86497 0.0
O98 O 0.81229 0.93755 0.38212 0.0
Cd99 Cd 0.76028 0.91069 0.39007 0.0
Cd100 Cd 0.73413 0.98541 0.3841 0.0
O101 O 0.78919 0.99404 0.37004 0.0
O102 O 0.7663 0.85479 0.37974 0.0
O103 O 0.72685 0.89804 0.36439 0.0
C104 C 0.74327 0.86398 0.36386 0.0
C105 C 0.67358 -0.00248 0.36744 0.0
C106 C 0.81773 0.97042 0.37279 0.0
C107 C 0.7333 0.95267 0.42987 0.0
O108 O 0.73199 0.98256 0.41749 0.0
O109 O 0.74061 0.91876 0.422 0.0
O110 O 0.6946 0.02607 0.37496 0.0
O111 O 0.68809 0.96266 0.3683 0.0
C112 C 0.02341 0.3866 0.20397 0.0
C113 C 0.99181 0.36455 0.19569 0.0
C114 C 0.01942 0.42685 0.20797 0.0
C115 C 0.98377 0.44611 0.20351 0.0
C116 C 0.9516 0.42351 0.19645 0.0
C117 C 0.95554 0.38323 0.19255 0.0
C118 C 0.97904 0.4896 0.20518 0.0
C119 C 0.00934 0.51537 0.20503 0.0
C120 C 0.00453 0.55882 0.20315 0.0
C121 C 0.03649 0.58136 0.19568 0.0
C122 C 0.03235 0.62155 0.19155 0.0
C123 C 0.9961 0.64019 0.19485 0.0
H124 H 0.94398 0.56244 0.21439 0.0
C125 C 0.96476 0.61825 0.20355 0.0
C126 C 0.96894 0.5781 0.20779 0.0
H127 H 0.93656 0.63185 0.20656 0.0
H128 H 0.05164 0.37298 0.20684 0.0
H129 H 0.04457 0.44258 0.21425 0.0
H130 H 0.92361 0.43731 0.19314 0.0
H131 H 0.93057 0.36712 0.18625 0.0
H132 H 0.94922 0.50059 0.20443 0.0
H133 H 0.03916 0.50438 0.20417 0.0
H134 H 0.06443 0.56755 0.19223 0.0
H135 H 0.05714 0.6376 0.18494 0.0
C136 C 0.38095 0.96424 0.70308 0.0
C137 C 0.35912 0.99677 0.69595 0.0
C138 C 0.4212 0.96778 0.70732 0.0
C139 C 0.44066 0.00396 0.70427 0.0
C140 C 0.41826 0.03686 0.69832 0.0
C141 C 0.37802 0.03335 0.69418 0.0
C142 C 0.48416 0.00867 0.70623 0.0
C143 C 0.50994 0.97858 0.70558 0.0
C144 C 0.55343 0.98381 0.7039 0.0
C145 C 0.57608 0.95239 0.69606 0.0
C146 C 0.61627 0.95705 0.692 0.0
C147 C 0.63481 0.99332 0.69572 0.0
H148 H 0.55692 0.04388 0.7159 0.0
C149 C 0.61277 0.02407 0.7048 0.0
C150 C 0.57263 0.01934 0.70899 0.0
H151 H 0.62631 0.05225 0.70815 0.0
H152 H 0.36716 0.9357 0.70486 0.0
H153 H 0.43674 0.94191 0.71267 0.0
H154 H 0.43218 0.06524 0.69609 0.0
H155 H 0.36209 0.05905 0.6888 0.0
H156 H 0.49518 0.03858 0.70617 0.0
H157 H 0.499 0.94877 0.70414 0.0
H158 H 0.56236 0.92448 0.69224 0.0
H159 H 0.6324 0.9327 0.68508 0.0
C160 C 0.03667 0.38192 0.86399 0.0
C161 C 0.00033 0.36339 0.86044 0.0
C162 C 0.04132 0.42208 0.85987 0.0
C163 C 0.00983 0.44473 0.85213 0.0
C164 C 0.97417 0.42556 0.84725 0.0
C165 C 0.96946 0.38544 0.8515 0.0
C166 C 0.01519 0.48817 0.85027 0.0
C167 C 0.98521 0.51408 0.84952 0.0
C168 C 0.9902 0.55758 0.85126 0.0
C169 C 0.95754 0.58029 0.85728 0.0
C170 C 0.96139 0.62057 0.86122 0.0
C171 C -0.00193 0.63919 0.85918 0.0
H172 H 0.05211 0.56097 0.84246 0.0
C173 C 0.03032 0.61705 0.85195 0.0
C174 C 0.02644 0.57677 0.8479 0.0
H175 H 0.05892 0.63061 0.84995 0.0
H176 H 0.06111 0.36579 0.8708 0.0
H177 H 0.06931 0.43577 0.86352 0.0
H178 H 0.94955 0.44126 0.84045 0.0
H179 H 0.94121 0.37192 0.8483 0.0
H180 H 0.04505 0.49902 0.85163 0.0
H181 H 0.95525 0.50323 0.84967 0.0
H182 H 0.92912 0.56658 0.85974 0.0
H183 H 0.93589 0.63675 0.86669 0.0
C184 C 0.37906 0.03095 0.35143 0.0
C185 C 0.35704 -0.00047 0.35998 0.0
C186 C 0.41925 0.02679 0.34727 0.0
C187 C 0.43848 0.99116 0.35182 0.0
C188 C 0.41587 0.95913 0.35912 0.0
C189 C 0.37564 0.96324 0.36319 0.0
C190 C 0.48195 0.98637 0.35004 0.0
C191 C 0.50772 0.01666 0.35014 0.0
C192 C 0.55119 0.0119 0.35195 0.0
C193 C 0.5737 0.04393 0.35927 0.0
C194 C 0.61393 0.03991 0.3633 0.0
C195 C 0.63264 0.00369 0.36003 0.0
H196 H 0.55485 0.95129 0.34089 0.0
C197 C 0.6107 0.97225 0.3515 0.0
C198 C 0.5705 0.97632 0.34737 0.0
H199 H 0.62435 0.94407 0.34852 0.0
H200 H 0.36549 0.05919 0.3485 0.0
H201 H 0.43498 0.05181 0.34078 0.0
H202 H 0.42964 0.93115 0.36251 0.0
H203 H 0.35953 0.9384 0.36969 0.0
H204 H 0.49292 0.95654 0.35079 0.0
H205 H 0.49671 0.04647 0.35102 0.0
H206 H 0.55986 0.07187 0.36269 0.0
H207 H 0.62997 0.06477 0.3698 0.0
C208 C 0.99091 0.2815 0.96223 0.0
C209 C 0.95411 0.26886 0.95443 0.0
C210 C -0.00147 0.28351 0.98452 0.0
C211 C 0.96963 0.27252 0.99972 0.0
C212 C 0.9324 0.2612 0.99194 0.0
C213 C 0.9247 0.25933 0.96958 0.0
C214 C 0.97686 0.273 1.0237 0.0
C215 C 0.01298 0.27292 0.03291 0.0
C216 C 0.0202 0.27232 0.05689 0.0
C217 C 0.05738 0.26099 0.06467 0.0
C218 C 0.06509 0.25911 0.08703 0.0
C219 C 0.03575 0.26861 0.10218 0.0
H220 H 0.96284 0.29357 0.06703 0.0
C221 C -0.001 0.28118 0.09439 0.0
C222 C 0.99136 0.28322 0.0721 0.0
H223 H 0.97577 0.28926 0.10554 0.0
H224 H 0.01419 0.2896 0.95108 0.0
H225 H 0.02711 0.29388 0.98961 0.0
H226 H 0.90931 0.25303 1.00321 0.0
H227 H 0.89604 0.24951 0.96419 0.0
H228 H 0.95108 0.27139 0.03402 0.0
H229 H 0.03875 0.27129 1.02259 0.0
H230 H 0.08042 0.25289 0.0534 0.0
H231 H 0.09372 0.24935 0.09242 0.0
C232 C 0.7161 0.00266 0.59376 0.0
C233 C 0.72824 0.03963 0.60156 0.0
C234 C 0.71395 0.99507 0.57147 0.0
C235 C 0.72431 0.02418 0.55626 0.0
C236 C 0.73516 0.06155 0.56405 0.0
C237 C 0.73716 0.06921 0.58641 0.0
C238 C 0.72367 0.01705 0.53227 0.0
C239 C 0.724 0.98098 0.52299 0.0
C240 C 0.72451 0.9739 0.49899 0.0
C241 C 0.73608 0.93686 0.49112 0.0
C242 C 0.73795 0.92931 0.46874 0.0
C243 C 0.72818 0.95867 0.45366 0.0
H244 H 0.70275 0.03115 0.48901 0.0
C245 C 0.71534 0.99526 0.46156 0.0
C246 C 0.71331 0.00274 0.48386 0.0
H247 H 0.70704 0.01849 0.45047 0.0
H248 H 0.70848 0.97924 0.60491 0.0
H249 H 0.70397 0.96636 0.56639 0.0
H250 H 0.74284 0.0848 0.55278 0.0
H251 H 0.74658 0.098 0.59179 0.0
H252 H 0.72495 0.04289 0.52199 0.0
H253 H 0.72594 0.95518 0.53325 0.0
H254 H 0.74442 0.91382 0.50232 0.0
H255 H 0.74792 0.9008 0.46327 0.0
C256 C 0.9888 0.72158 0.09293 0.0
C257 C 0.95203 0.73429 0.10065 0.0
C258 C 0.99667 0.71955 0.07067 0.0
C259 C 0.96805 0.73064 0.0554 0.0
C260 C 0.93082 0.74203 0.0631 0.0
C261 C 0.92287 0.74389 0.08544 0.0
C262 C 0.97557 0.73026 0.03144 0.0
C263 C 0.01183 0.73022 1.02233 0.0
C264 C 0.01949 0.73103 0.99839 0.0
C265 C 0.05713 0.74164 0.99085 0.0
C266 C 0.06539 0.74366 0.96855 0.0
C267 C 0.03613 0.73502 0.95319 0.0
H268 H 0.96172 0.71131 0.98784 0.0
C269 C -0.00116 0.72324 0.96073 0.0
C270 C 0.99066 0.72105 0.98297 0.0
H271 H 0.97565 0.71586 0.94941 0.0
H272 H 0.01188 0.71342 0.10414 0.0
H273 H 0.02522 0.70912 0.06565 0.0
H274 H 0.90793 0.75027 0.05179 0.0
H275 H 0.89423 0.75376 0.09077 0.0
H276 H 0.94995 0.73208 1.02106 0.0
H277 H 0.03745 0.73158 0.03275 0.0
H278 H 0.08016 0.74906 1.00227 0.0
H279 H 0.09442 0.7528 0.96337 0.0
C280 C 0.27606 0.00652 0.46189 0.0
C281 C 0.26345 0.04336 0.45422 0.0
C282 C 0.27828 -0.00133 0.48415 0.0
C283 C 0.26751 0.02736 0.49946 0.0
C284 C 0.25622 0.06463 0.4918 0.0
C285 C 0.25416 0.07257 0.46947 0.0
C286 C 0.26811 0.01985 0.52342 0.0
C287 C 0.26808 0.98361 0.53253 0.0
C288 C 0.26742 0.97601 0.55648 0.0
C289 C 0.25656 0.93848 0.56406 0.0
C290 C 0.25459 0.93032 0.58637 0.0
C291 C 0.26353 0.95955 0.60169 0.0
H292 H 0.28771 0.03363 0.56694 0.0
C293 C 0.27562 0.9967 0.5941 0.0
C294 C 0.27775 0.00479 0.57185 0.0
H295 H 0.28325 0.01987 0.60539 0.0
H296 H 0.28399 0.9834 0.45065 0.0
H297 H 0.28863 0.97007 0.48913 0.0
H298 H 0.24822 0.08757 0.50315 0.0
H299 H 0.24438 0.10125 0.46418 0.0
H300 H 0.2665 0.04549 0.53381 0.0
H301 H 0.26652 0.95799 0.52212 0.0
H302 H 0.24887 0.91548 0.55267 0.0
H303 H 0.24521 0.90139 0.59159 0.0
C304 C 0.18716 0.22945 0.2148 0.0
C305 C 0.15595 0.25577 0.21159 0.0
C306 C 0.20434 0.22514 0.23535 0.0
C307 C 0.19082 0.24735 0.25317 0.0
C308 C 0.16149 0.27553 0.24949 0.0
C309 C 0.14433 0.27977 0.229 0.0
C310 C 0.20257 0.23893 0.27611 0.0
C311 C 0.23421 0.21751 0.28195 0.0
C312 C 0.24128 0.20248 0.30448 0.0
C313 C 0.26727 0.17087 0.30717 0.0
C314 C 0.27092 0.15198 0.32725 0.0
C315 C 0.24878 0.16434 0.34526 0.0
H316 H 0.20221 0.24194 0.32202 0.0
C317 C 0.22505 0.19783 0.34308 0.0
C318 C 0.2214 0.21679 0.32296 0.0
H319 H 0.20782 0.20836 0.35666 0.0
H320 H 0.19666 0.2103 0.20179 0.0
H321 H 0.22637 0.20265 0.23732 0.0
H322 H 0.15043 0.29315 0.26279 0.0
H323 H 0.12041 0.3004 0.22715 0.0
H324 H 0.18246 0.24909 0.28853 0.0
H325 H 0.2545 0.20783 0.26949 0.0
H326 H 0.28346 0.15941 0.29342 0.0
H327 H 0.28969 0.12643 0.32832 0.0
C328 C 0.80474 0.22608 0.84132 0.0
C329 C 0.83629 0.25223 0.8444 0.0
C330 C 0.78773 0.22133 0.82074 0.0
C331 C 0.80178 0.24292 0.80276 0.0
C332 C 0.83154 0.27089 0.80628 0.0
C333 C 0.84852 0.27556 0.82679 0.0
C334 C 0.78999 0.23414 0.77986 0.0
C335 C 0.75814 0.21278 0.7741 0.0
C336 C 0.75092 0.19764 0.75162 0.0
C337 C 0.72506 0.16574 0.74902 0.0
C338 C 0.72123 0.14688 0.72895 0.0
C339 C 0.74305 0.15958 0.71085 0.0
H340 H 0.78954 0.23761 0.73395 0.0
C341 C 0.76665 0.19331 0.71295 0.0
C342 C 0.77049 0.21223 0.73307 0.0
H343 H 0.78363 0.2041 0.6993 0.0
H344 H 0.79475 0.20743 0.85448 0.0
H345 H 0.76533 0.19903 0.81891 0.0
H346 H 0.84302 0.28804 0.79286 0.0
H347 H 0.87272 0.29604 0.82854 0.0
H348 H 0.81023 0.24401 0.76739 0.0
H349 H 0.73775 0.20325 0.78659 0.0
H350 H 0.7091 0.15406 0.76283 0.0
H351 H 0.70257 0.12113 0.72793 0.0
C352 C 0.76708 0.80832 0.34054 0.0
C353 C 0.74082 0.83953 0.34392 0.0
C354 C 0.77121 0.79134 0.31992 0.0
C355 C 0.74889 0.80506 0.3022 0.0
C356 C 0.72078 0.83439 0.30605 0.0
C357 C 0.71671 0.85135 0.32661 0.0
C358 C 0.75713 0.79353 0.2792 0.0
C359 C 0.77843 0.7619 0.2732 0.0
C360 C 0.79332 0.75506 0.25062 0.0
C361 C 0.82489 0.72906 0.24777 0.0
C362 C 0.84368 0.72563 0.22765 0.0
C363 C 0.83125 0.74799 0.20974 0.0
H364 H 0.7538 0.79435 0.23331 0.0
C365 C 0.79778 0.77171 0.21208 0.0
C366 C 0.77893 0.77515 0.23225 0.0
H367 H 0.7872 0.7891 0.19858 0.0
H368 H 0.78631 0.79867 0.35347 0.0
H369 H 0.79366 0.76929 0.31782 0.0
H370 H 0.70307 0.8456 0.29283 0.0
H371 H 0.69612 0.87528 0.32859 0.0
H372 H 0.74694 0.8138 0.26688 0.0
H373 H 0.78814 0.74146 0.28558 0.0
H374 H 0.83641 0.71271 0.26144 0.0
H375 H 0.86921 0.70685 0.22645 0.0
C376 C 0.26205 0.8413 0.7276 0.0
C377 C 0.24308 0.83116 0.7081 0.0
C378 C 0.2542 0.82068 0.74683 0.0
C379 C 0.22724 0.78915 0.74701 0.0
C380 C 0.21045 0.77747 0.72717 0.0
C381 C 0.21828 0.7981 0.70797 0.0
C382 C 0.21222 0.77073 0.76751 0.0
C383 C 0.22824 0.77583 0.7874 0.0
C384 C 0.20839 0.76403 0.80812 0.0
C385 C 0.21942 0.78305 0.82745 0.0
C386 C 0.19822 0.7772 0.84669 0.0
C387 C 0.16549 0.75195 0.84712 0.0
H388 H 0.16897 0.71967 0.79486 0.0
C389 C 0.15632 0.73053 0.82826 0.0
C390 C 0.17757 0.73633 0.80901 0.0
H391 H 0.13155 0.71048 0.82806 0.0
H392 H 0.28126 0.86668 0.72833 0.0
H393 H 0.2677 0.83125 0.76158 0.0
H394 H 0.18967 0.75332 0.72667 0.0
H395 H 0.20311 0.78944 0.69328 0.0
H396 H 0.18497 0.75441 0.76605 0.0
H397 H 0.25549 0.79213 0.78895 0.0
H398 H 0.24334 0.80411 0.82744 0.0
H399 H 0.20624 0.79412 0.8609 0.0
C400 C 0.04406 0.11072 0.19239 0.0
C401 C 0.01431 0.13895 0.19009 0.0
C402 C 0.03486 0.07154 0.19674 0.0
C403 C 0.99544 0.05935 0.19857 0.0
C404 C 0.96581 0.08804 0.19741 0.0
C405 C 0.97511 0.12746 0.19327 0.0
C406 C 0.98374 0.01719 0.20058 0.0
C407 C 0.0081 0.98666 0.19676 0.0
C408 C 0.99477 0.94507 0.19508 0.0
C409 C 0.0225 0.91477 0.19719 0.0
C410 C 0.012 0.87559 0.19328 0.0
C411 C 0.97356 0.86599 0.1869 0.0
H412 H 0.9339 0.95747 0.18687 0.0
C413 C 0.9456 0.8962 0.18535 0.0
C414 C 0.95602 0.9352 0.18932 0.0
H415 H 0.91567 0.88992 0.18049 0.0
H416 H 0.07468 0.1188 0.1905 0.0
H417 H 0.05896 0.05121 0.19832 0.0
H418 H 0.93519 0.07974 0.19898 0.0
H419 H 0.95154 0.14856 0.1917 0.0
H420 H 0.95306 0.01133 0.20415 0.0
H421 H 0.03902 0.99181 0.19372 0.0
H422 H 0.05266 0.92152 0.20142 0.0
H423 H 0.03426 0.85306 0.19458 0.0
C424 C 0.10496 0.94827 0.69137 0.0
C425 C 0.13341 0.97807 0.68948 0.0
C426 C 0.06584 0.95733 0.69584 0.0
C427 C 0.05394 0.99666 0.6982 0.0
C428 C 0.08286 0.0263 0.69739 0.0
C429 C 0.12222 0.01713 0.69314 0.0
C430 C 0.01185 0.00836 0.70034 0.0
C431 C 0.9811 0.98392 0.69691 0.0
C432 C 0.93956 -0.0028 0.69534 0.0
C433 C 0.90915 0.96947 0.69776 0.0
C434 C 0.86997 0.97985 0.69396 0.0
C435 C 0.86047 0.01816 0.68738 0.0
H436 H 0.95215 0.05793 0.68669 0.0
C437 C 0.89079 0.04613 0.68552 0.0
C438 C 0.9298 0.03583 0.68938 0.0
H439 H 0.88459 0.07597 0.6805 0.0
H440 H 0.11281 0.91774 0.68909 0.0
H441 H 0.04537 0.93316 0.69705 0.0
H442 H 0.0748 0.05685 0.69935 0.0
H443 H 0.14351 0.04072 0.69188 0.0
H444 H 0.00622 0.0391 0.70374 0.0
H445 H 0.98595 0.95292 0.69417 0.0
H446 H 0.91581 0.9394 0.70215 0.0
H447 H 0.84736 0.95758 0.69551 0.0
C448 C 0.95005 0.10683 0.87017 0.0
C449 C 0.97767 0.13748 0.86834 0.0
C450 C 0.96072 0.068 0.86611 0.0
C451 C -0.00061 0.05873 0.85995 0.0
C452 C 0.02678 0.08946 0.85758 0.0
C453 C 0.01602 0.12848 0.8616 0.0
C454 C 0.01303 0.01734 0.85813 0.0
C455 C 0.98876 0.98647 0.85463 0.0
C456 C 0.00059 0.9444 0.85665 0.0
C457 C 0.97105 0.91535 0.85686 0.0
C458 C 0.98015 0.87597 0.86105 0.0
C459 C 0.01906 0.86486 0.86525 0.0
H460 H 0.06396 0.95322 0.85896 0.0
C461 C 0.04883 0.89346 0.86397 0.0
C462 C 0.03984 0.93263 0.8596 0.0
H463 H 0.07926 0.88571 0.8667 0.0
H464 H 0.92019 0.11263 0.87532 0.0
H465 H 0.93889 0.0454 0.86879 0.0
H466 H 0.05687 0.08318 0.85306 0.0
H467 H 0.03802 0.15135 0.86007 0.0
H468 H 0.0441 0.01269 0.86073 0.0
H469 H 0.958 0.99199 0.85124 0.0
H470 H 0.94057 0.92331 0.85447 0.0
H471 H 0.95658 0.85459 0.86183 0.0
C472 C 0.88636 0.95112 0.36353 0.0
C473 C 0.85809 0.98083 0.36582 0.0
C474 C 0.92553 0.96037 0.35914 0.0
C475 C 0.93765 -0.00021 0.35725 0.0
C476 C 0.90892 0.02938 0.35843 0.0
C477 C 0.86952 0.02004 0.36263 0.0
C478 C 0.97979 0.01157 0.35515 0.0
C479 C 0.0104 0.98722 0.35878 0.0
C480 C 0.05199 0.00061 0.36035 0.0
C481 C 0.08232 0.97295 0.35805 0.0
C482 C 0.12153 0.98349 0.36185 0.0
C483 C 0.13113 0.02188 0.36831 0.0
H484 H 0.03957 0.06137 0.36879 0.0
C485 C 0.10089 0.04977 0.37005 0.0
C486 C 0.06186 0.03931 0.36619 0.0
H487 H 0.10717 0.07966 0.37498 0.0
H488 H 0.87834 0.9205 0.36545 0.0
H489 H 0.94589 0.93629 0.35756 0.0
H490 H 0.91716 0.06001 0.35683 0.0
H491 H 0.84838 0.04358 0.36419 0.0
H492 H 0.98557 0.04229 0.35166 0.0
H493 H 0.00535 0.95626 0.36171 0.0
H494 H 0.07558 0.94282 0.35375 0.0
H495 H 0.14408 0.96128 0.3604 0.0
loop_
_geom_bond_atom_site_label_1
_geom_bond_atom_site_label_2
_geom_bond_distance
_geom_bond_site_symmetry_2
_ccdc_geom_bond_type
O0 Cd1 2.223 . S
O0 C8 1.315 . S
Cd1 O0 2.223 . S
Cd1 O4 2.297 . S
Cd1 O5 2.439 . S
Cd1 O11 2.240 . S
Cd2 O3 2.240 . S
Cd2 O10 2.223 . S
Cd2 O12 2.297 . S
Cd2 O13 2.439 . S
O3 Cd2 2.240 . S
O3 C8 1.279 . S
O4 Cd1 2.297 . S
O4 C6 1.247 . S
O5 Cd1 2.439 . S
O5 C6 1.208 . S
C6 O4 1.247 . S
C6 O5 1.208 . S
C7 O12 1.247 . S
C7 O13 1.208 . S
C8 O0 1.315 . S
C8 O3 1.279 . S
C9 O10 1.315 . S
C9 O11 1.279 . S
O10 Cd2 2.223 . S
O10 C9 1.315 . S
O11 Cd1 2.240 . S
O11 C9 1.279 . S
O12 Cd2 2.297 . S
O12 C7 1.247 . S
O13 Cd2 2.439 . S
O13 C7 1.208 . S
O14 Cd15 2.223 . S
O14 C22 1.315 . S
Cd15 O14 2.223 . S
Cd15 O18 2.297 . S
Cd15 O19 2.439 . S
Cd15 O25 2.240 . S
Cd16 O17 2.240 . S
Cd16 O24 2.223 . S
Cd16 O26 2.297 . S
Cd16 O27 2.439 . S
O17 Cd16 2.240 . S
O17 C22 1.279 . S
O18 Cd15 2.297 . S
O18 C20 1.247 . S
O19 Cd15 2.439 . S
O19 C20 1.208 . S
C20 O18 1.247 . S
C20 O19 1.208 . S
C21 O26 1.247 . S
C21 O27 1.208 . S
C22 O14 1.315 . S
C22 O17 1.279 . S
C23 O24 1.315 . S
C23 O25 1.279 . S
O24 Cd16 2.223 . S
O24 C23 1.315 . S
O25 Cd15 2.240 . S
O25 C23 1.279 . S
O26 Cd16 2.297 . S
O26 C21 1.247 . S
O27 Cd16 2.439 . S
O27 C21 1.208 . S
O28 Cd29 2.223 . S
O28 C36 1.315 . S
Cd29 O28 2.223 . S
Cd29 O32 2.297 . S
Cd29 O33 2.439 . S
Cd29 O39 2.240 . S
Cd30 O31 2.240 . S
Cd30 O38 2.223 . S
Cd30 O40 2.297 . S
Cd30 O41 2.439 . S
O31 Cd30 2.240 . S
O31 C36 1.279 . S
O32 Cd29 2.297 . S
O32 C34 1.247 . S
O33 Cd29 2.439 . S
O33 C34 1.208 . S
C34 O32 1.247 . S
C34 O33 1.208 . S
C35 O40 1.247 . S
C35 O41 1.208 . S
C36 O28 1.315 . S
C36 O31 1.279 . S
C37 O38 1.315 . S
C37 O39 1.279 . S
O38 Cd30 2.223 . S
O38 C37 1.315 . S
O39 Cd29 2.240 . S
O39 C37 1.279 . S
O40 Cd30 2.297 . S
O40 C35 1.247 . S
O41 Cd30 2.439 . S
O41 C35 1.208 . S
O42 Cd43 2.223 . S
O42 C50 1.315 . S
Cd43 O42 2.223 . S
Cd43 O46 2.297 . S
Cd43 O47 2.439 . S
Cd43 O53 2.240 . S
Cd44 O45 2.240 . S
Cd44 O52 2.223 . S
Cd44 O54 2.297 . S
Cd44 O55 2.439 . S
O45 Cd44 2.240 . S
O45 C50 1.279 . S
O46 Cd43 2.297 . S
O46 C48 1.247 . S
O47 Cd43 2.439 . S
O47 C48 1.208 . S
C48 O46 1.247 . S
C48 O47 1.208 . S
C49 O54 1.247 . S
C49 O55 1.208 . S
C50 O42 1.315 . S
C50 O45 1.279 . S
C51 O52 1.315 . S
C51 O53 1.279 . S
O52 Cd44 2.223 . S
O52 C51 1.315 . S
O53 Cd43 2.240 . S
O53 C51 1.279 . S
O54 Cd44 2.297 . S
O54 C49 1.247 . S
O55 Cd44 2.439 . S
O55 C49 1.208 . S
O56 Cd57 2.223 . S
O56 C64 1.315 . S
Cd57 O56 2.223 . S
Cd57 O60 2.297 . S
Cd57 O61 2.439 . S
Cd57 O67 2.240 . S
Cd58 O59 2.240 . S
Cd58 O66 2.223 . S
Cd58 O68 2.297 . S
Cd58 O69 2.439 . S
O59 Cd58 2.240 . S
O59 C64 1.279 . S
O60 Cd57 2.297 . S
O60 C62 1.247 . S
O61 Cd57 2.439 . S
O61 C62 1.208 . S
C62 O60 1.247 . S
C62 O61 1.208 . S
C63 O68 1.247 . S
C63 O69 1.208 . S
C64 O56 1.315 . S
C64 O59 1.279 . S
C65 O66 1.315 . S
C65 O67 1.279 . S
O66 Cd58 2.223 . S
O66 C65 1.315 . S
O67 Cd57 2.240 . S
O67 C65 1.279 . S
O68 Cd58 2.297 . S
O68 C63 1.247 . S
O69 Cd58 2.439 . S
O69 C63 1.208 . S
O70 Cd71 2.223 . S
O70 C78 1.315 . S
Cd71 O70 2.223 . S
Cd71 O74 2.297 . S
Cd71 O75 2.439 . S
Cd71 O81 2.240 . S
Cd72 O73 2.240 . S
Cd72 O80 2.223 . S
Cd72 O82 2.297 . S
Cd72 O83 2.439 . S
O73 Cd72 2.240 . S
O73 C78 1.279 . S
O74 Cd71 2.297 . S
O74 C76 1.247 . S
O75 Cd71 2.439 . S
O75 C76 1.208 . S
C76 O74 1.247 . S
C76 O75 1.208 . S
C77 O82 1.247 . S
C77 O83 1.208 . S
C78 O70 1.315 . S
C78 O73 1.279 . S
C79 O80 1.315 . S
C79 O81 1.279 . S
O80 Cd72 2.223 . S
O80 C79 1.315 . S
O81 Cd71 2.240 . S
O81 C79 1.279 . S
O82 Cd72 2.297 . S
O82 C77 1.247 . S
O83 Cd72 2.439 . S
O83 C77 1.208 . S
O84 Cd85 2.223 . S
O84 C92 1.315 . S
Cd85 O84 2.223 . S
Cd85 O88 2.297 . S
Cd85 O89 2.439 . S
Cd85 O95 2.240 . S
Cd86 O87 2.240 . S
Cd86 O94 2.223 . S
Cd86 O96 2.297 . S
Cd86 O97 2.439 . S
O87 Cd86 2.240 . S
O87 C92 1.279 . S
O88 Cd85 2.297 . S
O88 C90 1.247 . S
O89 Cd85 2.439 . S
O89 C90 1.208 . S
C90 O88 1.247 . S
C90 O89 1.208 . S
C91 O96 1.247 . S
C91 O97 1.208 . S
C92 O84 1.315 . S
C92 O87 1.279 . S
C93 O94 1.315 . S
C93 O95 1.279 . S
O94 Cd86 2.223 . S
O94 C93 1.315 . S
O95 Cd85 2.240 . S
O95 C93 1.279 . S
O96 Cd86 2.297 . S
O96 C91 1.247 . S
O97 Cd86 2.439 . S
O97 C91 1.208 . S
O98 Cd99 2.223 . S
O98 C106 1.315 . S
Cd99 O98 2.223 . S
Cd99 O102 2.297 . S
Cd99 O103 2.439 . S
Cd99 O109 2.240 . S
Cd100 O101 2.240 . S
Cd100 O108 2.223 . S
Cd100 O110 2.297 . S
Cd100 O111 2.439 . S
O101 Cd100 2.240 . S
O101 C106 1.279 . S
O102 Cd99 2.297 . S
O102 C104 1.247 . S
O103 Cd99 2.439 . S
O103 C104 1.208 . S
C104 O102 1.247 . S
C104 O103 1.208 . S
C105 O110 1.247 . S
C105 O111 1.208 . S
C106 O98 1.315 . S
C106 O101 1.279 . S
C107 O108 1.315 . S
C107 O109 1.279 . S
O108 Cd100 2.223 . S
O108 C107 1.315 . S
O109 Cd99 2.240 . S
O109 C107 1.279 . S
O110 Cd100 2.297 . S
O110 C105 1.247 . S
O111 Cd100 2.439 . S
O111 C105 1.208 . S
C112 C113 1.386 . S
C112 C114 1.383 . S
C112 H128 0.951 . S
C113 C112 1.386 . S
C113 C117 1.383 . S
C114 C112 1.383 . S
C114 C115 1.402 . S
C114 H129 0.951 . S
C115 C114 1.402 . S
C115 C116 1.375 1_455 S
C115 C118 1.481 1_455 S
C116 C115 1.375 1_655 S
C116 C117 1.367 1_655 S
C116 H130 0.951 . S
C117 C113 1.383 . S
C117 C116 1.367 1_455 S
C117 H131 0.950 . S
C118 C115 1.481 1_655 S
C118 C119 1.297 . S
C118 H132 0.950 . S
C119 C118 1.297 . S
C119 C120 1.479 . S
C119 H133 0.950 . S
C120 C119 1.479 . S
C120 C121 1.375 . S
C120 C126 1.404 . S
C121 C120 1.375 . S
C121 C122 1.369 . S
C121 H134 0.950 1_655 S
C122 C121 1.369 . S
C122 C123 1.392 . S
C122 H135 0.951 . S
C123 C122 1.392 . S
C123 C125 1.384 . S
H124 C126 0.949 . S
C125 C123 1.384 . S
C125 C126 1.385 . S
C125 H127 0.950 . S
C126 C120 1.404 . S
C126 H124 0.949 . S
C126 C125 1.385 . S
H127 C125 0.950 . S
H128 C112 0.951 . S
H129 C114 0.951 . S
H130 C116 0.951 . S
H131 C117 0.950 . S
H132 C118 0.950 . S
H133 C119 0.950 . S
H134 C121 0.950 1_455 S
H135 C122 0.951 . S
C136 C137 1.386 . S
C136 C138 1.383 . S
C136 H152 0.951 . S
C137 C136 1.386 . S
C137 C141 1.383 1_565 S
C138 C136 1.383 . S
C138 C139 1.402 . S
C138 H153 0.951 . S
C139 C138 1.402 . S
C139 C140 1.375 1_565 S
C139 C142 1.481 1_565 S
C140 C139 1.375 1_545 S
C140 C141 1.367 . S
C140 H154 0.951 . S
C141 C137 1.383 1_545 S
C141 C140 1.367 . S
C141 H155 0.950 . S
C142 C139 1.481 1_545 S
C142 C143 1.297 1_545 S
C142 H156 0.950 . S
C143 C142 1.297 1_565 S
C143 C144 1.479 1_565 S
C143 H157 0.950 . S
C144 C143 1.479 1_545 S
C144 C145 1.375 1_545 S
C144 C150 1.404 . S
C145 C144 1.375 1_565 S
C145 C146 1.369 . S
C145 H158 0.950 . S
C146 C145 1.369 . S
C146 C147 1.392 1_565 S
C146 H159 0.951 . S
C147 C146 1.392 1_545 S
C147 C149 1.384 . S
H148 C150 0.949 . S
C149 C147 1.384 . S
C149 C150 1.385 . S
C149 H151 0.950 . S
C150 C144 1.404 . S
C150 H148 0.949 . S
C150 C149 1.385 . S
H151 C149 0.950 . S
H152 C136 0.951 . S
H153 C138 0.951 . S
H154 C140 0.951 . S
H155 C141 0.950 . S
H156 C142 0.950 . S
H157 C143 0.950 . S
H158 C145 0.950 . S
H159 C146 0.951 . S
C160 C161 1.386 . S
C160 C162 1.383 . S
C160 H176 0.951 . S
C161 C160 1.386 . S
C161 C165 1.383 . S
C162 C160 1.383 . S
C162 C163 1.402 . S
C162 H177 0.951 . S
C163 C162 1.402 . S
C163 C164 1.375 . S
C163 C166 1.481 1_655 S
C164 C163 1.375 . S
C164 C165 1.367 . S
C164 H178 0.951 . S
C165 C161 1.383 . S
C165 C164 1.367 . S
C165 H179 0.950 . S
C166 C163 1.481 1_455 S
C166 C167 1.297 . S
C166 H180 0.950 . S
C167 C166 1.297 . S
C167 C168 1.479 . S
C167 H181 0.950 . S
C168 C167 1.479 . S
C168 C169 1.375 . S
C168 C174 1.404 . S
C169 C168 1.375 . S
C169 C170 1.369 . S
C169 H182 0.950 . S
C170 C169 1.369 . S
C170 C171 1.392 . S
C170 H183 0.951 . S
C171 C170 1.392 . S
C171 C173 1.384 . S
H172 C174 0.949 . S
C173 C171 1.384 . S
C173 C174 1.385 . S
C173 H175 0.950 . S
C174 C168 1.404 . S
C174 H172 0.949 . S
C174 C173 1.385 . S
H175 C173 0.950 . S
H176 C160 0.951 . S
H177 C162 0.951 . S
H178 C164 0.951 . S
H179 C165 0.950 . S
H180 C166 0.950 . S
H181 C167 0.950 . S
H182 C169 0.950 . S
H183 C170 0.951 . S
C184 C185 1.386 . S
C184 C186 1.383 . S
C184 H200 0.951 . S
C185 C184 1.386 . S
C185 C189 1.383 . S
C186 C184 1.383 . S
C186 C187 1.402 . S
C186 H201 0.951 . S
C187 C186 1.402 . S
C187 C188 1.375 . S
C187 C190 1.481 . S
C188 C187 1.375 . S
C188 C189 1.367 . S
C188 H202 0.951 1_545 S
C189 C185 1.383 . S
C189 C188 1.367 . S
C189 H203 0.950 . S
C190 C187 1.481 . S
C190 C191 1.297 . S
C190 H204 0.950 1_545 S
C191 C190 1.297 . S
C191 C192 1.479 . S
C191 H205 0.950 . S
C192 C191 1.479 . S
C192 C193 1.375 . S
C192 C198 1.405 1_545 S
C193 C192 1.375 . S
C193 C194 1.369 1_545 S
C193 H206 0.950 . S
C194 C193 1.369 1_565 S
C194 C195 1.392 . S
C194 H207 0.951 . S
C195 C194 1.392 . S
C195 C197 1.384 . S
H196 C198 0.949 . S
C197 C195 1.384 . S
C197 C198 1.385 . S
C197 H199 0.950 . S
C198 C192 1.405 1_565 S
C198 H196 0.949 . S
C198 C197 1.385 . S
H199 C197 0.950 . S
H200 C184 0.951 . S
H201 C186 0.951 . S
H202 C188 0.951 1_565 S
H203 C189 0.950 . S
H204 C190 0.950 1_565 S
H205 C191 0.950 . S
H206 C193 0.950 . S
H207 C194 0.951 . S
C208 C209 1.386 . S
C208 C210 1.383 . S
C208 H224 0.951 . S
C209 C208 1.386 . S
C209 C213 1.383 . S
C210 C208 1.383 . S
C210 C211 1.402 . S
C210 H225 0.951 . S
C211 C210 1.402 . S
C211 C212 1.375 . S
C211 C214 1.496 . S
C212 C211 1.375 . S
C212 C213 1.367 . S
C212 H226 0.951 . S
C213 C209 1.383 . S
C213 C212 1.367 . S
C213 H227 0.950 . S
C214 C211 1.496 . S
C214 C215 1.288 1_556 S
C214 H228 0.943 1_556 S
C215 C214 1.288 1_554 S
C215 C216 1.479 1_655 S
C215 H229 0.950 . S
C216 C215 1.479 1_455 S
C216 C217 1.375 . S
C216 C222 1.404 . S
C217 C216 1.375 . S
C217 C218 1.369 . S
C217 H230 0.950 . S
C218 C217 1.369 . S
C218 C219 1.392 . S
C218 H231 0.951 . S
C219 C218 1.392 . S
C219 C221 1.384 . S
H220 C222 0.949 . S
C221 C219 1.384 . S
C221 C222 1.385 . S
C221 H223 0.950 . S
C222 C216 1.404 . S
C222 H220 0.949 . S
C222 C221 1.385 . S
H223 C221 0.950 . S
H224 C208 0.951 . S
H225 C210 0.951 . S
H226 C212 0.951 . S
H227 C213 0.950 . S
H228 C214 0.943 1_554 S
H229 C215 0.950 . S
H230 C217 0.950 . S
H231 C218 0.951 . S
C232 C233 1.386 . S
C232 C234 1.383 . S
C232 H248 0.951 . S
C233 C232 1.386 . S
C233 C237 1.383 . S
C234 C232 1.383 . S
C234 C235 1.402 . S
C234 H249 0.951 . S
C235 C234 1.402 . S
C235 C236 1.375 . S
C235 C238 1.481 . S
C236 C235 1.375 . S
C236 C237 1.367 . S
C236 H250 0.951 . S
C237 C233 1.383 . S
C237 C236 1.367 . S
C237 H251 0.950 . S
C238 C235 1.481 . S
C238 C239 1.297 1_545 S
C238 H252 0.950 . S
C239 C238 1.297 1_565 S
C239 C240 1.479 . S
C239 H253 0.950 . S
C240 C239 1.479 . S
C240 C241 1.375 . S
C240 C246 1.404 . S
C241 C240 1.375 . S
C241 C242 1.369 . S
C241 H254 0.950 . S
C242 C241 1.369 . S
C242 C243 1.392 . S
C242 H255 0.951 . S
C243 C242 1.392 . S
C243 C245 1.384 . S
H244 C246 0.949 . S
C245 C243 1.384 . S
C245 C246 1.385 . S
C245 H247 0.950 . S
C246 C240 1.404 . S
C246 H244 0.949 . S
C246 C245 1.385 . S
H247 C245 0.950 . S
H248 C232 0.951 . S
H249 C234 0.951 . S
H250 C236 0.951 . S
H251 C237 0.950 . S
H252 C238 0.950 . S
H253 C239 0.950 . S
H254 C241 0.950 . S
H255 C242 0.951 . S
C256 C257 1.386 . S
C256 C258 1.383 . S
C256 H272 0.951 . S
C257 C256 1.386 . S
C257 C261 1.383 . S
C258 C256 1.383 . S
C258 C259 1.402 . S
C258 H273 0.951 . S
C259 C258 1.402 . S
C259 C260 1.375 . S
C259 C262 1.481 1_655 S
C260 C259 1.375 . S
C260 C261 1.367 . S
C260 H274 0.951 1_655 S
C261 C257 1.383 . S
C261 C260 1.367 . S
C261 H275 0.950 . S
C262 C259 1.481 1_455 S
C262 C263 1.297 1_554 S
C262 H276 0.950 . S
C263 C262 1.297 1_556 S
C263 C264 1.479 . S
C263 H277 0.950 1_455 S
C264 C263 1.479 . S
C264 C265 1.375 . S
C264 C270 1.404 . S
C265 C264 1.375 . S
C265 C266 1.369 . S
C265 H278 0.950 1_455 S
C266 C265 1.369 . S
C266 C267 1.392 . S
C266 H279 0.951 . S
C267 C266 1.392 . S
C267 C269 1.384 . S
H268 C270 0.949 . S
C269 C267 1.384 . S
C269 C270 1.385 . S
C269 H271 0.950 . S
C270 C264 1.404 . S
C270 H268 0.949 . S
C270 C269 1.385 . S
H271 C269 0.950 . S
H272 C256 0.951 . S
H273 C258 0.951 . S
H274 C260 0.951 1_455 S
H275 C261 0.950 . S
H276 C262 0.950 . S
H277 C263 0.950 1_655 S
H278 C265 0.950 1_655 S
H279 C266 0.951 . S
C280 C281 1.386 . S
C280 C282 1.383 . S
C280 H296 0.951 . S
C281 C280 1.386 . S
C281 C285 1.383 . S
C282 C280 1.383 . S
C282 C283 1.402 . S
C282 H297 0.951 . S
C283 C282 1.402 . S
C283 C284 1.375 . S
C283 C286 1.481 . S
C284 C283 1.375 . S
C284 C285 1.367 . S
C284 H298 0.951 . S
C285 C281 1.383 . S
C285 C284 1.367 . S
C285 H299 0.950 . S
C286 C283 1.481 . S
C286 C287 1.297 1_545 S
C286 H300 0.950 . S
C287 C286 1.297 1_565 S
C287 C288 1.479 . S
C287 H301 0.950 . S
C288 C287 1.479 . S
C288 C289 1.375 . S
C288 C294 1.404 . S
C289 C288 1.375 . S
C289 C290 1.369 . S
C289 H302 0.950 . S
C290 C289 1.369 . S
C290 C291 1.392 . S
C290 H303 0.951 . S
C291 C290 1.392 . S
C291 C293 1.384 . S
H292 C294 0.949 1_545 S
C293 C291 1.384 . S
C293 C294 1.385 . S
C293 H295 0.950 . S
C294 C288 1.404 . S
C294 H292 0.949 1_565 S
C294 C293 1.385 . S
H295 C293 0.950 . S
H296 C280 0.951 . S
H297 C282 0.951 . S
H298 C284 0.951 . S
H299 C285 0.950 . S
H300 C286 0.950 . S
H301 C287 0.950 . S
H302 C289 0.950 . S
H303 C290 0.951 . S
C304 C305 1.386 . S
C304 C306 1.383 . S
C304 H320 0.951 . S
C305 C304 1.386 . S
C305 C309 1.383 . S
C306 C304 1.383 . S
C306 C307 1.402 . S
C306 H321 0.951 . S
C307 C306 1.402 . S
C307 C308 1.375 . S
C307 C310 1.481 . S
C308 C307 1.375 . S
C308 C309 1.367 . S
C308 H322 0.951 . S
C309 C305 1.383 . S
C309 C308 1.367 . S
C309 H323 0.950 . S
C310 C307 1.481 . S
C310 C311 1.297 . S
C310 H324 0.950 . S
C311 C310 1.297 . S
C311 C312 1.479 . S
C311 H325 0.950 . S
C312 C311 1.479 . S
C312 C313 1.375 . S
C312 C318 1.404 . S
C313 C312 1.375 . S
C313 C314 1.369 . S
C313 H326 0.950 . S
C314 C313 1.369 . S
C314 C315 1.392 . S
C314 H327 0.951 . S
C315 C314 1.392 . S
C315 C317 1.384 . S
H316 C318 0.949 . S
C317 C315 1.384 . S
C317 C318 1.385 . S
C317 H319 0.950 . S
C318 C312 1.404 . S
C318 H316 0.949 . S
C318 C317 1.385 . S
H319 C317 0.950 . S
H320 C304 0.951 . S
H321 C306 0.951 . S
H322 C308 0.951 . S
H323 C309 0.950 . S
H324 C310 0.950 . S
H325 C311 0.950 . S
H326 C313 0.950 . S
H327 C314 0.951 . S
C328 C329 1.386 . S
C328 C330 1.383 . S
C328 H344 0.951 . S
C329 C328 1.386 . S
C329 C333 1.383 . S
C330 C328 1.383 . S
C330 C331 1.402 . S
C330 H345 0.951 . S
C331 C330 1.402 . S
C331 C332 1.375 . S
C331 C334 1.481 . S
C332 C331 1.375 . S
C332 C333 1.367 . S
C332 H346 0.951 . S
C333 C329 1.383 . S
C333 C332 1.367 . S
C333 H347 0.950 . S
C334 C331 1.481 . S
C334 C335 1.297 . S
C334 H348 0.950 . S
C335 C334 1.297 . S
C335 C336 1.479 . S
C335 H349 0.950 . S
C336 C335 1.479 . S
C336 C337 1.375 . S
C336 C342 1.404 . S
C337 C336 1.375 . S
C337 C338 1.369 . S
C337 H350 0.950 . S
C338 C337 1.369 . S
C338 C339 1.392 . S
C338 H351 0.951 . S
C339 C338 1.392 . S
C339 C341 1.384 . S
H340 C342 0.949 . S
C341 C339 1.384 . S
C341 C342 1.385 . S
C341 H343 0.950 . S
C342 C336 1.404 . S
C342 H340 0.949 . S
C342 C341 1.385 . S
H343 C341 0.950 . S
H344 C328 0.951 . S
H345 C330 0.951 . S
H346 C332 0.951 . S
H347 C333 0.950 . S
H348 C334 0.950 . S
H349 C335 0.950 . S
H350 C337 0.950 . S
H351 C338 0.951 . S
C352 C353 1.386 . S
C352 C354 1.383 . S
C352 H368 0.951 . S
C353 C352 1.386 . S
C353 C357 1.383 . S
C354 C352 1.383 . S
C354 C355 1.402 . S
C354 H369 0.951 . S
C355 C354 1.402 . S
C355 C356 1.375 . S
C355 C358 1.481 . S
C356 C355 1.375 . S
C356 C357 1.367 . S
C356 H370 0.951 . S
C357 C353 1.383 . S
C357 C356 1.367 . S
C357 H371 0.950 . S
C358 C355 1.481 . S
C358 C359 1.297 . S
C358 H372 0.950 . S
C359 C358 1.297 . S
C359 C360 1.479 . S
C359 H373 0.950 . S
C360 C359 1.479 . S
C360 C361 1.375 . S
C360 C366 1.404 . S
C361 C360 1.375 . S
C361 C362 1.369 . S
C361 H374 0.950 . S
C362 C361 1.369 . S
C362 C363 1.392 . S
C362 H375 0.951 . S
C363 C362 1.392 . S
C363 C365 1.384 . S
H364 C366 0.949 . S
C365 C363 1.384 . S
C365 C366 1.385 . S
C365 H367 0.950 . S
C366 C360 1.404 . S
C366 H364 0.949 . S
C366 C365 1.385 . S
H367 C365 0.950 . S
H368 C352 0.951 . S
H369 C354 0.951 . S
H370 C356 0.951 . S
H371 C357 0.950 . S
H372 C358 0.950 . S
H373 C359 0.950 . S
H374 C361 0.950 . S
H375 C362 0.951 . S
C376 C377 1.386 . S
C376 C378 1.383 . S
C376 H392 0.951 . S
C377 C376 1.386 . S
C377 C381 1.383 . S
C378 C376 1.383 . S
C378 C379 1.402 . S
C378 H393 0.951 . S
C379 C378 1.402 . S
C379 C380 1.375 . S
C379 C382 1.481 . S
C380 C379 1.375 . S
C380 C381 1.367 . S
C380 H394 0.951 . S
C381 C377 1.383 . S
C381 C380 1.367 . S
C381 H395 0.950 . S
C382 C379 1.481 . S
C382 C383 1.297 . S
C382 H396 0.950 . S
C383 C382 1.297 . S
C383 C384 1.479 . S
C383 H397 0.950 . S
C384 C383 1.479 . S
C384 C385 1.375 . S
C384 C390 1.404 . S
C385 C384 1.375 . S
C385 C386 1.369 . S
C385 H398 0.950 . S
C386 C385 1.369 . S
C386 C387 1.392 . S
C386 H399 0.951 . S
C387 C386 1.392 . S
C387 C389 1.384 . S
H388 C390 0.949 . S
C389 C387 1.384 . S
C389 C390 1.385 . S
C389 H391 0.950 . S
C390 C384 1.404 . S
C390 H388 0.949 . S
C390 C389 1.385 . S
H391 C389 0.950 . S
H392 C376 0.951 . S
H393 C378 0.951 . S
H394 C380 0.951 . S
H395 C381 0.950 . S
H396 C382 0.950 . S
H397 C383 0.950 . S
H398 C385 0.950 . S
H399 C386 0.951 . S
C400 C401 1.386 . S
C400 C402 1.383 . S
C400 H416 0.951 . S
C401 C400 1.386 . S
C401 C405 1.383 . S
C402 C400 1.383 . S
C402 C403 1.402 . S
C402 H417 0.951 . S
C403 C402 1.402 . S
C403 C404 1.375 . S
C403 C406 1.481 1_455 S
C404 C403 1.375 . S
C404 C405 1.367 . S
C404 H418 0.951 . S
C405 C401 1.383 . S
C405 C404 1.367 . S
C405 H419 0.950 . S
C406 C403 1.481 1_655 S
C406 C407 1.297 1_545 S
C406 H420 0.950 . S
C407 C406 1.297 1_565 S
C407 C408 1.479 . S
C407 H421 0.950 1_565 S
C408 C407 1.479 . S
C408 C409 1.375 . S
C408 C414 1.404 . S
C409 C408 1.375 . S
C409 C410 1.369 . S
C409 H422 0.950 . S
C410 C409 1.369 . S
C410 C411 1.392 . S
C410 H423 0.951 . S
C411 C410 1.392 . S
C411 C413 1.384 . S
H412 C414 0.949 . S
C413 C411 1.384 . S
C413 C414 1.385 . S
C413 H415 0.950 . S
C414 C408 1.404 . S
C414 H412 0.949 . S
C414 C413 1.385 . S
H415 C413 0.950 . S
H416 C400 0.951 . S
H417 C402 0.951 . S
H418 C404 0.951 . S
H419 C405 0.950 . S
H420 C406 0.950 . S
H421 C407 0.950 1_545 S
H422 C409 0.950 . S
H423 C410 0.951 . S
C424 C425 1.386 . S
C424 C426 1.383 . S
C424 H440 0.951 . S
C425 C424 1.386 . S
C425 C429 1.383 . S
C426 C424 1.383 . S
C426 C427 1.402 . S
C426 H441 0.951 1_565 S
C427 C426 1.402 . S
C427 C428 1.375 . S
C427 C430 1.481 . S
C428 C427 1.375 . S
C428 C429 1.367 . S
C428 H442 0.951 . S
C429 C425 1.383 . S
C429 C428 1.367 . S
C429 H443 0.950 . S
C430 C427 1.481 . S
C430 C431 1.297 1_465 S
C430 H444 0.944 1_455 S
C431 C430 1.297 1_645 S
C431 C432 1.479 . S
C431 H445 0.950 1_655 S
C432 C431 1.479 . S
C432 C433 1.375 . S
C432 C438 1.404 . S
C433 C432 1.375 . S
C433 C434 1.369 . S
C433 H446 0.950 . S
C434 C433 1.369 . S
C434 C435 1.392 . S
C434 H447 0.951 . S
C435 C434 1.392 . S
C435 C437 1.384 . S
H436 C438 0.949 . S
C437 C435 1.384 . S
C437 C438 1.385 . S
C437 H439 0.950 . S
C438 C432 1.404 . S
C438 H436 0.949 . S
C438 C437 1.385 . S
H439 C437 0.950 . S
H440 C424 0.951 . S
H441 C426 0.951 1_545 S
H442 C428 0.951 . S
H443 C429 0.950 . S
H444 C430 0.944 1_655 S
H445 C431 0.950 1_455 S
H446 C433 0.950 . S
H447 C434 0.951 . S
C448 C449 1.386 . S
C448 C450 1.383 . S
C448 H464 0.951 . S
C449 C448 1.386 . S
C449 C453 1.383 . S
C450 C448 1.383 . S
C450 C451 1.402 . S
C450 H465 0.951 . S
C451 C450 1.402 . S
C451 C452 1.375 1_655 S
C451 C454 1.481 1_655 S
C452 C451 1.375 1_455 S
C452 C453 1.367 1_455 S
C452 H466 0.951 . S
C453 C449 1.383 . S
C453 C452 1.367 1_655 S
C453 H467 0.950 1_655 S
C454 C451 1.481 1_455 S
C454 C455 1.297 1_545 S
C454 H468 0.950 . S
C455 C454 1.297 1_565 S
C455 C456 1.479 . S
C455 H469 0.950 1_455 S
C456 C455 1.479 . S
C456 C457 1.375 1_455 S
C456 C462 1.404 . S
C457 C456 1.375 1_655 S
C457 C458 1.369 1_655 S
C457 H470 0.950 . S
C458 C457 1.369 1_455 S
C458 C459 1.392 . S
C458 H471 0.951 1_455 S
C459 C458 1.392 . S
C459 C461 1.384 . S
H460 C462 0.949 . S
C461 C459 1.384 . S
C461 C462 1.385 . S
C461 H463 0.950 . S
C462 C456 1.404 . S
C462 H460 0.949 . S
C462 C461 1.385 . S
H463 C461 0.950 . S
H464 C448 0.951 . S
H465 C450 0.951 . S
H466 C452 0.951 . S
H467 C453 0.950 1_455 S
H468 C454 0.950 . S
H469 C455 0.950 1_655 S
H470 C457 0.950 . S
H471 C458 0.951 1_655 S
C472 C473 1.386 . S
C472 C474 1.383 . S
C472 H488 0.951 . S
C473 C472 1.386 . S
C473 C477 1.383 . S
C474 C472 1.383 . S
C474 C475 1.402 . S
C474 H489 0.951 . S
C475 C474 1.402 . S
C475 C476 1.375 . S
C475 C478 1.481 1_565 S
C476 C475 1.375 . S
C476 C477 1.367 . S
C476 H490 0.951 . S
C477 C473 1.383 . S
C477 C476 1.367 . S
C477 H491 0.950 . S
C478 C475 1.481 1_545 S
C478 C479 1.297 1_655 S
C478 H492 0.950 . S
C479 C478 1.297 1_455 S
C479 C480 1.479 . S
C479 H493 0.950 1_455 S
C480 C479 1.479 . S
C480 C481 1.375 . S
C480 C486 1.404 . S
C481 C480 1.375 . S
C481 C482 1.369 . S
C481 H494 0.950 . S
C482 C481 1.369 . S
C482 C483 1.392 . S
C482 H495 0.951 . S
C483 C482 1.392 . S
C483 C485 1.384 . S
H484 C486 0.949 . S
C485 C483 1.384 . S
C485 C486 1.385 . S
C485 H487 0.950 . S
C486 C480 1.404 . S
C486 H484 0.949 . S
C486 C485 1.385 . S
H487 C485 0.950 . S
H488 C472 0.951 . S
H489 C474 0.951 . S
H490 C476 0.951 . S
H491 C477 0.950 . S
H492 C478 0.950 . S
H493 C479 0.950 1_655 S
H494 C481 0.950 . S
H495 C482 0.951 . S
C113 C6 1.449 . S
C123 C34 1.471 . S
C137 C49 1.445 . S
C147 C21 1.434 . S
C161 C90 1.458 . S
C171 C62 1.483 . S
C185 C77 1.458 . S
C195 C105 1.422 . S
C209 C92 1.365 . S
C219 C8 1.220 . S
C233 C23 1.291 . S
C243 C107 1.388 . S
C257 C36 1.276 . S
C267 C64 1.344 . S
C281 C79 1.369 . S
C291 C51 1.236 . S
C305 C7 1.575 . S
C315 C76 1.591 . S
C329 C91 1.582 . S
C339 C20 1.591 . S
C353 C104 1.566 . S
C363 C35 1.580 . S
C377 C48 1.567 . S
C387 C63 1.551 . S
C401 C9 1.242 . S
C411 C37 1.161 . S
C425 C50 1.229 . S
C435 C22 1.169 . S
C449 C93 1.246 . S
C459 C65 1.189 . S
C473 C106 1.242 . S
C483 C78 1.161 . S
