# Generated by pormake.
# Topology sod, (4)-cn, num edge types: 1
# Building blocks:
#     Node 0, Type 0, BuildingBlock: ICAMEG_clean_sbu_1, # of connection points: 4
#     Node 1, Type 0, BuildingBlock: ICAMEG_clean_sbu_1, # of connection points: 4
#     Node 2, Type 0, BuildingBlock: ICAMEG_clean_sbu_1, # of connection points: 4
#     Node 3, Type 0, BuildingBlock: ICAMEG_clean_sbu_1, # of connection points: 4
#     Node 4, Type 0, BuildingBlock: ICAMEG_clean_sbu_1, # of connection points: 4
#     Node 5, Type 0, BuildingBlock: ICAMEG_clean_sbu_1, # of connection points: 4
#     Node 6, Type 0, BuildingBlock: ICAMEG_clean_sbu_1, # of connection points: 4
#     Node 7, Type 0, BuildingBlock: ICAMEG_clean_sbu_1, # of connection points: 4
#     Node 8, Type 0, BuildingBlock: ICAMEG_clean_sbu_1, # of connection points: 4
#     Node 9, Type 0, BuildingBlock: ICAMEG_clean_sbu_1, # of connection points: 4
#     Node 10, Type 0, BuildingBlock: ICAMEG_clean_sbu_1, # of connection points: 4
#     Node 11, Type 0, BuildingBlock: ICAMEG_clean_sbu_1, # of connection points: 4
#     Edge 12, Type (0, 0), BuildingBlock: MIFKUJ_clean_linker_0, # of connection points: 2
#     Edge 13, Type (0, 0), BuildingBlock: MIFKUJ_clean_linker_0, # of connection points: 2
#     Edge 14, Type (0, 0), BuildingBlock: MIFKUJ_clean_linker_0, # of connection points: 2
#     Edge 15, Type (0, 0), BuildingBlock: MIFKUJ_clean_linker_0, # of connection points: 2
#     Edge 16, Type (0, 0), BuildingBlock: MIFKUJ_clean_linker_0, # of connection points: 2
#     Edge 17, Type (0, 0), BuildingBlock: MIFKUJ_clean_linker_0, # of connection points: 2
#     Edge 18, Type (0, 0), BuildingBlock: MIFKUJ_clean_linker_0, # of connection points: 2
#     Edge 19, Type (0, 0), BuildingBlock: MIFKUJ_clean_linker_0, # of connection points: 2
#     Edge 20, Type (0, 0), BuildingBlock: MIFKUJ_clean_linker_0, # of connection points: 2
#     Edge 21, Type (0, 0), BuildingBlock: MIFKUJ_clean_linker_0, # of connection points: 2
#     Edge 22, Type (0, 0), BuildingBlock: MIFKUJ_clean_linker_0, # of connection points: 2
#     Edge 23, Type (0, 0), BuildingBlock: MIFKUJ_clean_linker_0, # of connection points: 2
#     Edge 24, Type (0, 0), BuildingBlock: MIFKUJ_clean_linker_0, # of connection points: 2
#     Edge 25, Type (0, 0), BuildingBlock: MIFKUJ_clean_linker_0, # of connection points: 2
#     Edge 26, Type (0, 0), BuildingBlock: MIFKUJ_clean_linker_0, # of connection points: 2
#     Edge 27, Type (0, 0), BuildingBlock: MIFKUJ_clean_linker_0, # of connection points: 2
#     Edge 28, Type (0, 0), BuildingBlock: MIFKUJ_clean_linker_0, # of connection points: 2
#     Edge 29, Type (0, 0), BuildingBlock: MIFKUJ_clean_linker_0, # of connection points: 2
#     Edge 30, Type (0, 0), BuildingBlock: MIFKUJ_clean_linker_0, # of connection points: 2
#     Edge 31, Type (0, 0), BuildingBlock: MIFKUJ_clean_linker_0, # of connection points: 2
#     Edge 32, Type (0, 0), BuildingBlock: MIFKUJ_clean_linker_0, # of connection points: 2
#     Edge 33, Type (0, 0), BuildingBlock: MIFKUJ_clean_linker_0, # of connection points: 2
#     Edge 34, Type (0, 0), BuildingBlock: MIFKUJ_clean_linker_0, # of connection points: 2
#     Edge 35, Type (0, 0), BuildingBlock: MIFKUJ_clean_linker_0, # of connection points: 2
# Relax obj value: 0.209
# Max RMSD: 0.239
# Mean RMSD: 0.237
data_MOF--net-sod--node1-ICAMEG_clean_sbu_1--edge1-MIFKUJ_clean_linker_0
_symmetry_space_group_name_H-M    P1
_symmetry_Int_Tables_number       1
_symmetry_cell_setting            triclinic
loop_
_symmetry_equiv_pos_as_xyz
'x, y, z'
_cell_length_a     54.664705
_cell_length_b     59.617415
_cell_length_c     57.181242
_cell_angle_alpha  90.067758
_cell_angle_beta   89.915968
_cell_angle_gamma 90.040173
loop_
_atom_site_label
_atom_site_type_symbol
_atom_site_fract_x
_atom_site_fract_y
_atom_site_fract_z
_atom_type_partial_charge
Co0 Co 0.00565 0.24741 0.53209 0.0
Co1 Co 1.00085 0.24704 0.47299 0.0
O2 O 0.00309 0.26398 0.50245 0.0
C3 C 0.9805 0.2914 0.54392 0.0
O4 O 0.97702 0.29594 0.52174 0.0
C5 C 0.0267 0.29062 0.461 0.0
O6 O 0.03084 0.29486 0.48313 0.0
O7 O 0.03325 0.2332 0.48015 0.0
O8 O 0.02317 0.22196 0.51617 0.0
H9 H 0.0089 0.17737 0.42403 0.0
H10 H 0.02607 0.29379 0.52824 0.0
O11 O 0.98926 0.27247 0.55004 0.0
H12 H 0.09469 0.24685 0.5548 0.0
H13 H 0.01912 0.2381 0.61874 0.0
H14 H 0.99714 0.19991 0.54518 0.0
H15 H 0.05395 0.23028 0.54856 0.0
H16 H 0.01766 0.2591 0.58167 0.0
O17 O 0.01705 0.27204 0.45486 0.0
H18 H 0.00996 0.1995 0.46045 0.0
H19 H 0.98895 0.25803 0.42324 0.0
H20 H 0.99857 0.17825 0.58183 0.0
H21 H 0.06653 0.31082 0.53361 0.0
H22 H 0.00963 0.19735 0.61898 0.0
H23 H 0.10124 0.28745 0.54734 0.0
O24 O 0.97339 0.23305 0.52512 0.0
H25 H 0.94026 0.31049 0.4677 0.0
H26 H 0.95254 0.22919 0.45729 0.0
H27 H 0.91198 0.24555 0.44972 0.0
H28 H 0.90563 0.28652 0.4548 0.0
H29 H 0.98038 0.29342 0.47539 0.0
H30 H 0.98784 0.23655 0.3864 0.0
H31 H 0.99777 0.1959 0.38665 0.0
O32 O 0.98361 0.22159 0.48916 0.0
C33 C 0.03701 0.22103 0.49817 0.0
C34 C 0.00449 0.19507 0.4237 0.0
C35 C 0.99271 0.22828 0.40258 0.0
N36 N 0.99946 0.23003 0.44403 0.0
C37 C 0.00502 0.20769 0.44429 0.0
C38 C 0.99346 0.24038 0.4235 0.0
C39 C 0.99826 0.20547 0.40273 0.0
C40 C 0.04088 0.28342 0.53425 0.0
N41 N 0.0374 0.26105 0.53819 0.0
C42 C 0.06385 0.29322 0.53733 0.0
C43 C 0.08334 0.28006 0.54486 0.0
C44 C 0.07968 0.25729 0.54903 0.0
C45 C 0.05652 0.24801 0.54548 0.0
C46 C 0.01427 0.22959 0.60268 0.0
C47 C 1.00201 0.20836 0.56124 0.0
C48 C 0.0133 0.24142 0.58163 0.0
N49 N 0.00731 0.23076 0.56123 0.0
C50 C 0.00277 0.19599 0.58196 0.0
C51 C 0.00896 0.20672 0.60279 0.0
C52 C 0.96998 0.22049 0.50729 0.0
C53 C 0.94282 0.29263 0.46532 0.0
C54 C 0.94998 0.24702 0.45964 0.0
C55 C 0.92694 0.2562 0.45527 0.0
C56 C 0.92339 0.27917 0.45812 0.0
N57 N 0.96903 0.26033 0.46662 0.0
C58 C 0.9656 0.28286 0.46955 0.0
Co59 Co 0.74157 0.02875 0.51219 0.0
Co60 Co 0.74307 0.97525 0.4927 0.0
O61 O 0.76075 1.00286 0.5012 0.0
C62 C 0.78491 0.04901 0.48629 0.0
O63 O 0.78997 0.02994 0.47591 0.0
C64 C 0.78729 0.95622 0.5175 0.0
O65 O 0.78453 0.96992 0.53531 0.0
O66 O 0.73058 0.97334 0.52551 0.0
O67 O 0.71621 0.00847 0.52635 0.0
H68 H 0.66998 0.92405 0.49194 0.0
H69 H 0.79377 0.02365 0.52562 0.0
O70 O 0.76628 0.0507 0.49959 0.0
H71 H 0.74871 0.02972 0.60008 0.0
H72 H 0.72851 0.10519 0.54789 0.0
H73 H 0.6887 0.03976 0.51128 0.0
H74 H 0.72683 0.03163 0.56251 0.0
H75 H 0.75293 0.0726 0.53527 0.0
O76 O 0.77235 0.95663 0.5005 0.0
H77 H 0.69269 0.95863 0.5013 0.0
H78 H 0.75596 0.9329 0.46744 0.0
H79 H 0.66355 0.07189 0.52389 0.0
H80 H 0.8164 0.02198 0.56279 0.0
H81 H 0.68345 0.10493 0.54232 0.0
H82 H 0.79385 0.02497 0.6004 0.0
O83 O 0.72369 0.02874 0.48164 0.0
H84 H 0.80784 0.98775 0.43166 0.0
H85 H 0.72035 0.9722 0.44512 0.0
H86 H 0.73553 0.97689 0.40479 0.0
H87 H 0.77958 0.98455 0.39785 0.0
H88 H 0.79179 0.98354 0.47175 0.0
H89 H 0.73401 0.89793 0.45798 0.0
H90 H 0.69069 0.89334 0.47025 0.0
O91 O 0.71323 0.99259 0.48343 0.0
C92 C 0.71727 0.98863 0.53461 0.0
C93 C 0.68887 0.92583 0.48655 0.0
C94 C 0.72482 0.91116 0.46752 0.0
N95 N 0.72566 0.94782 0.48496 0.0
C96 C 0.70183 0.94541 0.49177 0.0
C97 C 0.73718 0.93098 0.47301 0.0
C98 C 0.70051 0.9086 0.47441 0.0
C99 C 0.78384 0.02531 0.54185 0.0
N100 N 0.75904 0.0281 0.54179 0.0
C101 C 0.79675 0.02421 0.56288 0.0
C102 C 0.78408 0.02585 0.58398 0.0
C103 C 0.75877 0.02853 0.58381 0.0
C104 C 0.74648 0.02959 0.56245 0.0
C105 C 0.71962 0.09091 0.53984 0.0
C106 C 0.69751 0.05405 0.51931 0.0
C107 C 0.73338 0.07245 0.53253 0.0
N108 N 0.72228 0.05429 0.52246 0.0
C109 C 0.68317 0.07221 0.5264 0.0
C110 C 0.69435 0.09074 0.53673 0.0
C111 C 0.71075 0.01215 0.47482 0.0
C112 C 0.7886 0.98438 0.43446 0.0
C113 C 0.73951 0.97578 0.44228 0.0
C114 C 0.74801 0.97828 0.41939 0.0
C115 C 0.77273 0.9826 0.4155 0.0
N116 N 0.75515 0.97777 0.46082 0.0
C117 C 0.77942 0.98192 0.45712 0.0
Co118 Co 0.01014 0.75728 0.48167 0.0
Co119 Co 0.00542 0.76076 0.54099 0.0
O120 O 0.00663 0.74259 0.51226 0.0
C121 C 0.98118 0.71468 0.47241 0.0
O122 O 0.97916 0.71034 0.49481 0.0
C123 C 0.03019 0.71715 0.55425 0.0
O124 O 0.03522 0.71277 0.53231 0.0
O125 O 0.03823 0.77358 0.53313 0.0
O126 O 0.03007 0.78209 0.49584 0.0
H127 H 0.01588 0.83195 0.58708 0.0
H128 H 0.02621 0.70945 0.48738 0.0
O129 O 0.99095 0.73293 0.46549 0.0
H130 H 0.09864 0.74976 0.45812 0.0
H131 H 0.02335 0.7603 0.39449 0.0
H132 H 0.00609 0.80444 0.46562 0.0
H133 H 0.05966 0.7696 0.46385 0.0
H134 H 0.02009 0.74174 0.43283 0.0
O135 O 0.02072 0.73592 0.55995 0.0
H136 H 0.01617 0.80848 0.55158 0.0
H137 H 0.99356 0.7519 0.59123 0.0
H138 H 0.00942 0.82371 0.42761 0.0
H139 H 0.0646 0.6889 0.48151 0.0
H140 H 0.01812 0.8016 0.3917 0.0
H141 H 0.10137 0.70908 0.46703 0.0
O142 O 0.9794 0.77446 0.48795 0.0
H143 H 0.94283 0.69923 0.5495 0.0
H144 H 0.95786 0.78048 0.55644 0.0
H145 H 0.91683 0.76552 0.56501 0.0
H146 H 0.90909 0.72458 0.56168 0.0
H147 H 0.98343 0.71492 0.54075 0.0
H148 H 0.99324 0.77473 0.62719 0.0
H149 H 0.00435 0.8151 0.62525 0.0
O150 O 0.98914 0.78609 0.52395 0.0
C151 C 0.04295 0.78433 0.51431 0.0
C152 C 0.01097 0.81439 0.58815 0.0
C153 C 0.9983 0.78227 0.61067 0.0
N154 N 0.00483 0.77884 0.56927 0.0
C155 C 0.01107 0.80101 0.56809 0.0
C156 C 0.99861 0.7694 0.59024 0.0
C157 C 0.00452 0.80492 0.60956 0.0
C158 C 0.04181 0.71839 0.48071 0.0
N159 N 0.04042 0.74081 0.47599 0.0
C160 C 0.06367 0.70664 0.4776 0.0
C161 C 0.0843 0.71797 0.46952 0.0
C162 C 0.08278 0.74077 0.46452 0.0
C163 C 0.06062 0.75196 0.46788 0.0
C164 C 0.01957 0.77013 0.41001 0.0
C165 C 0.00994 0.79471 0.45009 0.0
C166 C 0.0176 0.7597 0.43178 0.0
N167 N 0.01297 0.77201 0.45151 0.0
C168 C 0.01178 0.80571 0.42861 0.0
C169 C 0.01664 0.7933 0.40846 0.0
C170 C 0.97615 0.78745 0.50548 0.0
C171 C 0.94598 0.71709 0.55108 0.0
C172 C 0.95466 0.76267 0.55476 0.0
C173 C 0.93137 0.75428 0.55973 0.0
C174 C 0.92705 0.73132 0.55788 0.0
N175 N 0.9732 0.74862 0.54814 0.0
C176 C 0.96902 0.72609 0.54623 0.0
Co177 Co 0.26371 0.98184 0.50878 0.0
Co178 Co 0.27258 0.03528 0.49104 0.0
O179 O 0.2501 0.01067 0.49871 0.0
C180 C 0.23342 0.94865 0.4829 0.0
O181 O 0.2535 0.94113 0.473 0.0
C182 C 0.23105 0.05783 0.51633 0.0
O183 O 0.23016 0.0414 0.53157 0.0
O184 O 0.2856 0.03387 0.52357 0.0
O185 O 0.29295 0.99686 0.52346 0.0
H186 H 0.35415 0.07423 0.49108 0.0
H187 H 0.21305 0.99389 0.52232 0.0
O188 O 0.23417 0.96629 0.49552 0.0
H189 H 0.25597 0.98 0.59668 0.0
H190 H 0.26094 0.90399 0.54334 0.0
H191 H 0.31291 0.96134 0.50596 0.0
H192 H 0.27758 0.97589 0.55908 0.0
H193 H 0.24366 0.94051 0.53185 0.0
O194 O 0.24723 0.05787 0.50033 0.0
H195 H 0.32543 0.04333 0.49925 0.0
H196 H 0.26746 0.08012 0.46819 0.0
H197 H 0.33095 0.92505 0.51726 0.0
H198 H 0.19063 0.99784 0.55954 0.0
H199 H 0.3049 0.89606 0.53608 0.0
H200 H 0.21213 0.99095 0.59709 0.0
O201 O 0.28126 0.97988 0.47804 0.0
H202 H 0.20595 0.03403 0.4306 0.0
H203 H 0.29505 0.03769 0.44336 0.0
H204 H 0.279 0.03746 0.40312 0.0
H205 H 0.23412 0.0357 0.39652 0.0
H206 H 0.22283 0.03399 0.47059 0.0
H207 H 0.29552 0.11151 0.45987 0.0
H208 H 0.33924 0.10865 0.47125 0.0
O209 O 0.29855 0.01378 0.4804 0.0
C210 C 0.29586 0.01646 0.53207 0.0
C211 C 0.33514 0.07568 0.48602 0.0
C212 C 0.30223 0.09661 0.46853 0.0
N213 N 0.29478 0.05987 0.48421 0.0
C214 C 0.31879 0.05821 0.49058 0.0
C215 C 0.2864 0.07881 0.47339 0.0
C216 C 0.32677 0.09498 0.4749 0.0
C217 C 0.22248 0.99065 0.53856 0.0
N218 N 0.24658 0.9846 0.53846 0.0
C219 C 0.20971 0.993 0.5596 0.0
C220 C 0.22179 0.98916 0.58065 0.0
C221 C 0.24638 0.98303 0.58044 0.0
C222 C 0.25855 0.98082 0.55907 0.0
C223 C 0.27248 0.91647 0.53513 0.0
C224 C 0.30144 0.94881 0.51411 0.0
C225 C 0.26279 0.93718 0.52854 0.0
N226 N 0.27723 0.95305 0.51812 0.0
C227 C 0.31177 0.92829 0.52049 0.0
C228 C 0.29714 0.91203 0.53105 0.0
C229 C 0.29691 0.99437 0.4712 0.0
C230 C 0.22554 0.03485 0.43325 0.0
C231 C 0.27551 0.03686 0.44066 0.0
C232 C 0.26652 0.03678 0.41782 0.0
C233 C 0.24135 0.03578 0.41414 0.0
N234 N 0.25988 0.03593 0.45934 0.0
C235 C 0.23519 0.0349 0.45586 0.0
Co236 Co 0.49778 0.9773 0.25877 0.0
Co237 Co 0.51326 0.03219 0.26426 0.0
O238 O 0.5074 0.00584 0.24416 0.0
C239 C 0.52673 0.96388 0.21537 0.0
O240 O 0.53187 0.98478 0.21009 0.0
C241 C 0.49175 0.05158 0.21965 0.0
O242 O 0.4793 0.03323 0.21527 0.0
O243 O 0.4786 0.03046 0.27516 0.0
O244 O 0.47919 0.99374 0.2839 0.0
H245 H 0.50668 0.07642 0.33895 0.0
H246 H 0.48531 0.98655 0.20863 0.0
O247 O 0.51516 0.95916 0.23411 0.0
H248 H 0.40721 0.96708 0.24652 0.0
H249 H 0.4696 0.89678 0.26002 0.0
H250 H 0.49605 0.96128 0.30784 0.0
H251 H 0.44534 0.96793 0.26932 0.0
H252 H 0.48051 0.93266 0.24139 0.0
O253 O 0.5044 0.05328 0.23825 0.0
H254 H 0.50083 0.04356 0.31341 0.0
H255 H 0.53744 0.0768 0.25787 0.0
H256 H 0.48505 0.92572 0.3272 0.0
H257 H 0.44777 0.98549 0.18516 0.0
H258 H 0.47171 0.89316 0.30325 0.0
H259 H 0.40825 0.97573 0.20405 0.0
O260 O 0.52847 0.97811 0.2779 0.0
H261 H 0.58026 0.02975 0.204 0.0
H262 H 0.56181 0.03618 0.28817 0.0
H263 H 0.60477 0.03551 0.27502 0.0
H264 H 0.61423 0.03249 0.23267 0.0
H265 H 0.53759 0.02982 0.21793 0.0
H266 H 0.54349 0.11015 0.28271 0.0
H267 H 0.52799 0.11013 0.32356 0.0
O268 O 0.52319 0.01293 0.29121 0.0
C269 C 0.46963 0.01324 0.28537 0.0
C270 C 0.51338 0.0767 0.32113 0.0
C271 C 0.534 0.09563 0.28956 0.0
N272 N 0.51852 0.05827 0.28407 0.0
C273 C 0.51011 0.05811 0.30658 0.0
C274 C 0.5304 0.07673 0.27553 0.0
C275 C 0.52532 0.0956 0.31248 0.0
C276 C 0.46844 0.98185 0.217 0.0
N277 N 0.46785 0.97678 0.24029 0.0
C278 C 0.4471 0.98149 0.20361 0.0
C279 C 0.42493 0.97607 0.21422 0.0
C280 C 0.42434 0.97121 0.23803 0.0
C281 C 0.44605 0.97173 0.25086 0.0
C282 C 0.47538 0.91085 0.27066 0.0
C283 C 0.49019 0.94721 0.2973 0.0
C284 C 0.4817 0.9312 0.2602 0.0
N285 N 0.48889 0.94911 0.27353 0.0
C286 C 0.48402 0.92711 0.30836 0.0
C287 C 0.47656 0.90883 0.29491 0.0
C288 C 0.53341 0.99381 0.29231 0.0
C289 C 0.57637 0.03115 0.22251 0.0
C290 C 0.56574 0.03463 0.26971 0.0
C291 C 0.59012 0.0344 0.26237 0.0
C292 C 0.59542 0.03267 0.2386 0.0
N293 N 0.54712 0.03299 0.25383 0.0
C294 C 0.55222 0.03128 0.2305 0.0
Co295 Co 0.00347 0.53682 0.2496 0.0
Co296 Co 0.01523 0.48091 0.24656 0.0
O297 O 0.00919 0.50803 0.26543 0.0
C298 C 0.02738 0.54893 0.29593 0.0
O299 O 0.03202 0.52785 0.30075 0.0
C300 C 0.98977 0.46489 0.29075 0.0
O301 O 0.98375 0.48544 0.2965 0.0
O302 O 0.98261 0.48498 0.23144 0.0
O303 O 0.98766 0.52117 0.22239 0.0
H304 H 0.01586 0.4365 0.17178 0.0
H305 H 0.98381 0.52915 0.29779 0.0
O306 O 0.01814 0.55435 0.27628 0.0
H307 H 0.91254 0.55084 0.25039 0.0
H308 H 0.98075 0.61858 0.24382 0.0
H309 H 0.01011 0.55215 0.2007 0.0
H310 H 0.95356 0.54914 0.23277 0.0
H311 H 0.98645 0.58249 0.26407 0.0
O312 O 1.00047 0.46091 0.27135 0.0
H313 H 0.00922 0.47003 0.19624 0.0
H314 H 0.03256 0.43433 0.25647 0.0
H315 H 0.00441 0.58786 0.17973 0.0
H316 H 0.94318 0.53046 0.31606 0.0
H317 H 0.98964 0.62141 0.20131 0.0
H318 H 0.90708 0.5415 0.2924 0.0
O319 O 0.03633 0.53402 0.23448 0.0
H320 H 0.07425 0.47952 0.31413 0.0
H321 H 0.06569 0.47201 0.22867 0.0
H322 H 0.10647 0.46885 0.24659 0.0
H323 H 0.11097 0.47238 0.2896 0.0
H324 H 0.03395 0.48315 0.29553 0.0
H325 H 0.03924 0.40038 0.23267 0.0
H326 H 0.031 0.40135 0.18998 0.0
O327 O 0.03096 0.49909 0.22108 0.0
C328 C 0.97656 0.50246 0.21989 0.0
C329 C 0.01956 0.43588 0.19035 0.0
C330 C 0.03265 0.4156 0.22453 0.0
N331 N 0.02057 0.4542 0.22775 0.0
C332 C 0.01586 0.45483 0.2043 0.0
C333 C 0.02874 0.43486 0.23793 0.0
C334 C 0.02804 0.41616 0.20058 0.0
C335 C 0.9684 0.53408 0.28732 0.0
N336 N 0.9713 0.53908 0.26417 0.0
C337 C 0.94532 0.53478 0.2978 0.0
C338 C 0.92507 0.54087 0.2845 0.0
C339 C 0.92811 0.54607 0.26094 0.0
C340 C 0.95144 0.54502 0.25102 0.0
C341 C 0.98721 0.60408 0.23422 0.0
C342 C 0.00363 0.56664 0.21022 0.0
C343 C 0.99059 0.58361 0.24562 0.0
N344 N 0.99861 0.56518 0.23359 0.0
C345 C 1.00045 0.58683 0.19825 0.0
C346 C 0.99218 0.60565 0.21037 0.0
C347 C 0.04221 0.51782 0.221 0.0
C348 C 0.07252 0.47779 0.29536 0.0
C349 C 0.06741 0.47369 0.24742 0.0
C350 C 0.09059 0.4718 0.25745 0.0
C351 C 0.09311 0.47382 0.28159 0.0
N352 N 0.04724 0.47756 0.26103 0.0
C353 C 0.04964 0.47969 0.2847 0.0
Co354 Co 0.4999 0.02766 0.74274 0.0
Co355 Co 0.51291 0.97217 0.74065 0.0
O356 O 0.50625 0.99931 0.75893 0.0
C357 C 0.52773 0.06069 0.77139 0.0
O358 O 0.53943 0.06674 0.75233 0.0
C359 C 0.4867 0.95674 0.78453 0.0
O360 O 0.47996 0.9773 0.78947 0.0
O361 O 0.4805 0.97584 0.725 0.0
O362 O 0.48568 0.01181 0.71482 0.0
H363 H 0.51526 0.92707 0.66637 0.0
H364 H 0.48041 0.02219 0.7909 0.0
O365 O 0.51309 0.04404 0.77078 0.0
H366 H 0.40817 0.03661 0.74167 0.0
H367 H 0.47175 0.10803 0.73639 0.0
H368 H 0.5087 0.04407 0.69458 0.0
H369 H 0.44942 0.03586 0.72435 0.0
H370 H 0.47879 0.07215 0.75665 0.0
O371 O 0.49789 0.95243 0.76547 0.0
H372 H 0.50828 0.96087 0.69033 0.0
H373 H 0.53001 0.92566 0.75142 0.0
H374 H 0.50194 0.07965 0.67365 0.0
H375 H 0.43949 0.02321 0.80901 0.0
H376 H 0.48335 0.11196 0.69458 0.0
H377 H 0.40297 0.03035 0.78432 0.0
O378 O 0.5332 0.02559 0.72839 0.0
H379 H 0.57074 0.97373 0.80911 0.0
H380 H 0.56354 0.96221 0.72401 0.0
H381 H 0.60395 0.95921 0.74273 0.0
H382 H 0.60775 0.96485 0.78562 0.0
H383 H 0.53078 0.97692 0.78966 0.0
H384 H 0.53697 0.89142 0.72814 0.0
H385 H 0.5297 0.89201 0.68528 0.0
O386 O 0.52918 0.99029 0.7154 0.0
C387 C 0.47487 0.99294 0.71271 0.0
C388 C 0.51852 0.92661 0.68503 0.0
C389 C 0.53067 0.90659 0.7197 0.0
N390 N 0.51877 0.94529 0.72225 0.0
C391 C 0.51464 0.94571 0.69869 0.0
C392 C 0.52659 0.92602 0.73281 0.0
C393 C 0.52661 0.90694 0.69565 0.0
C394 C 0.46466 0.02546 0.78005 0.0
N395 N 0.46739 0.02884 0.75657 0.0
C396 C 0.44151 0.02596 0.7904 0.0
C397 C 0.42103 0.02994 0.77654 0.0
C398 C 0.42392 0.03343 0.75261 0.0
C399 C 0.44736 0.03286 0.74288 0.0
C400 C 0.47988 0.09408 0.72708 0.0
C401 C 0.50064 0.05805 0.70383 0.0
C402 C 0.48393 0.07372 0.73846 0.0
N403 N 0.49424 0.05601 0.72684 0.0
C404 C 0.49684 0.07815 0.69188 0.0
C405 C 0.4864 0.09627 0.70363 0.0
C406 C 0.54005 0.00923 0.71553 0.0
C407 C 0.5693 0.97105 0.79044 0.0
C408 C 0.56497 0.96462 0.7427 0.0
C409 C 0.58794 0.96291 0.7532 0.0
C410 C 0.59006 0.9661 0.77725 0.0
N411 N 0.5446 0.96926 0.75578 0.0
C412 C 0.54663 0.97267 0.77933 0.0
Co413 Co 0.98956 0.47134 0.75997 0.0
Co414 Co 0.99703 0.52752 0.76748 0.0
O415 O 0.99539 0.50122 0.74657 0.0
C416 C 0.01992 0.46286 0.71619 0.0
O417 O 0.02233 0.48436 0.71186 0.0
C418 C 0.97572 0.54426 0.72183 0.0
O419 O 0.96916 0.5239 0.71588 0.0
O420 O 0.963 0.52113 0.77811 0.0
O421 O 0.96855 0.48459 0.78545 0.0
H422 H 0.98401 0.56773 0.84382 0.0
H423 H 0.97627 0.48071 0.70997 0.0
O424 O 0.00948 0.45619 0.73488 0.0
H425 H 0.90122 0.45103 0.74614 0.0
H426 H 0.97336 0.38807 0.75842 0.0
H427 H 0.98978 0.45381 0.80843 0.0
H428 H 0.93897 0.4547 0.76914 0.0
H429 H 0.97894 0.42551 0.74099 0.0
O430 O 0.98497 0.54802 0.74191 0.0
H431 H 0.98347 0.53529 0.81713 0.0
H432 H 0.01249 0.57543 0.76234 0.0
H433 H 0.98395 0.41668 0.82659 0.0
H434 H 0.93918 0.47693 0.68624 0.0
H435 H 0.97569 0.38349 0.80152 0.0
H436 H 0.9011 0.46218 0.70431 0.0
O437 O 0.01972 0.47522 0.77935 0.0
H438 H 0.06477 0.53521 0.70829 0.0
H439 H 0.04379 0.53815 0.79211 0.0
H440 H 0.08642 0.54447 0.77979 0.0
H441 H 0.09716 0.54312 0.73758 0.0
H442 H 0.02245 0.52869 0.72139 0.0
H443 H 0.01315 0.60837 0.78843 0.0
H444 H 0.99893 0.60463 0.82952 0.0
O445 O 0.00999 0.50883 0.79386 0.0
C446 C 0.95657 0.50285 0.78804 0.0
C447 C 0.99028 0.56958 0.82596 0.0
C448 C 0.00659 0.59238 0.79486 0.0
N449 N 0.99794 0.5534 0.78816 0.0
C450 C 0.99004 0.55124 0.81074 0.0
C451 C 0.00608 0.57368 0.78013 0.0
C452 C 0.99863 0.59027 0.81792 0.0
C453 C 0.9601 0.47395 0.71802 0.0
N454 N 0.96009 0.46788 0.74105 0.0
C455 C 0.93897 0.47201 0.70446 0.0
C456 C 0.9176 0.46379 0.7146 0.0
C457 C 0.91766 0.45754 0.73805 0.0
C458 C 0.93914 0.45975 0.75105 0.0
C459 C 0.97691 0.40241 0.76952 0.0
C460 C 0.98607 0.43947 0.79741 0.0
C461 C 0.98021 0.42366 0.75976 0.0
N462 N 0.98462 0.44189 0.7737 0.0
C463 C 0.98283 0.41848 0.80779 0.0
C464 C 0.97822 0.39986 0.79371 0.0
C465 C 0.02283 0.49101 0.79413 0.0
C466 C 0.06031 0.53592 0.72672 0.0
C467 C 0.04827 0.53744 0.77371 0.0
C468 C 0.07247 0.54109 0.76684 0.0
C469 C 0.07848 0.54033 0.74317 0.0
N470 N 0.0305 0.53315 0.75748 0.0
C471 C 0.03631 0.53231 0.73425 0.0
Co472 Co 0.23298 0.53979 0.00644 0.0
Co473 Co 0.24641 0.48539 0.99632 0.0
O474 O 0.25759 0.51609 1.0024 0.0
C475 C 0.27485 0.56109 0.98039 0.0
O476 O 0.27889 0.5423 0.96907 0.0
C477 C 0.27934 0.45756 0.02542 0.0
O478 O 0.25993 0.45052 0.03682 0.0
O479 O 0.22946 0.48619 0.02736 0.0
O480 O 0.20895 0.51797 0.02042 0.0
H481 H 0.18444 0.42308 0.99723 0.0
H482 H 0.28247 0.54453 0.0272 0.0
O483 O 0.25649 0.56281 0.99399 0.0
H484 H 0.22494 0.55434 0.09293 0.0
H485 H 0.20352 0.61805 0.02429 0.0
H486 H 0.17974 0.54267 0.99694 0.0
H487 H 0.20965 0.54755 0.05306 0.0
H488 H 0.2339 0.58756 0.02243 0.0
O489 O 0.27733 0.47365 0.01087 0.0
H490 H 0.19936 0.46167 1.00345 0.0
H491 H 0.26944 0.44336 0.97757 0.0
H492 H 0.14882 0.5727 0.99843 0.0
H493 H 0.29856 0.55157 0.06681 0.0
H494 H 0.16068 0.61076 0.01203 0.0
H495 H 0.26971 0.55647 0.10003 0.0
O496 O 0.22036 0.53298 0.97442 0.0
H497 H 0.31768 0.49893 0.94248 0.0
H498 H 0.23214 0.47307 0.94732 0.0
H499 H 0.2529 0.47386 0.90908 0.0
H500 H 0.29604 0.48674 0.90647 0.0
H501 H 0.29608 0.49831 0.98034 0.0
H502 H 0.25525 0.40471 0.97088 0.0
H503 H 0.21249 0.39425 0.98088 0.0
O504 O 0.21577 0.49621 0.98053 0.0
C505 C 0.21265 0.50026 0.03244 0.0
C506 C 0.20314 0.42739 0.9929 0.0
C507 C 0.24287 0.41705 0.97815 0.0
N508 N 0.23529 0.45479 0.99102 0.0
C509 C 0.21171 0.44921 0.99642 0.0
C510 C 0.25081 0.439 0.98197 0.0
C511 C 0.21888 0.41122 0.98372 0.0
C512 C 0.2698 0.54683 0.04152 0.0
N513 N 0.24515 0.54579 0.03774 0.0
C514 C 0.27901 0.55074 0.06393 0.0
C515 C 0.26282 0.55348 0.08256 0.0
C516 C 0.23771 0.5523 0.0786 0.0
C517 C 0.22916 0.54843 0.05596 0.0
C518 C 0.19816 0.60156 0.01822 0.0
C519 C 0.18505 0.55915 1.00298 0.0
C520 C 0.2153 0.58423 0.0171 0.0
N521 N 0.20865 0.56335 0.00949 0.0
C522 C 0.16746 0.5761 0.00373 0.0
C523 C 0.17413 0.59746 0.01134 0.0
C524 C 0.21086 0.51406 0.96914 0.0
C525 C 0.2989 0.49324 0.94339 0.0
C526 C 0.25082 0.47896 0.94635 0.0
C527 C 0.26253 0.47924 0.92464 0.0
C528 C 0.28674 0.48644 0.92319 0.0
N529 N 0.26286 0.48567 0.96612 0.0
C530 C 0.28659 0.49276 0.96481 0.0
Co531 Co 0.50422 0.2727 0.96731 0.0
Co532 Co 0.49118 0.25619 0.0226 0.0
O533 O 0.50265 0.24908 0.99109 0.0
C534 C 0.48264 0.23314 0.94264 0.0
O535 O 0.46707 0.23062 0.95994 0.0
C536 C 0.52472 0.23144 0.05393 0.0
O537 O 0.53066 0.2508 0.06334 0.0
O538 O 0.51901 0.27803 0.02536 0.0
O539 O 0.5124 0.29601 0.99147 0.0
H540 H 0.4712 0.30845 0.08894 0.0
H541 H 0.53437 0.23152 0.96245 0.0
O542 O 0.49724 0.24978 0.9425 0.0
H543 H 0.5929 0.29448 0.95994 0.0
H544 H 0.52226 0.30338 0.88712 0.0
H545 H 0.48664 0.31972 0.96454 0.0
H546 H 0.5487 0.30155 0.96404 0.0
H547 H 0.52384 0.27522 0.91861 0.0
O548 O 0.5118 0.23107 0.03536 0.0
H549 H 0.4859 0.29841 0.0495 0.0
H550 H 0.47247 0.22948 0.06331 0.0
H551 H 0.4845 0.34827 0.93352 0.0
H552 H 0.57845 0.2237 0.95805 0.0
H553 H 0.50213 0.34007 0.89435 0.0
H554 H 0.60805 0.25531 0.95683 0.0
O555 O 0.46867 0.27909 0.97185 0.0
H556 H 0.45464 0.18198 0.99976 0.0
H557 H 0.43692 0.25731 0.031 0.0
H558 H 0.40311 0.2306 0.0251 0.0
H559 H 0.41187 0.19254 0.00951 0.0
H560 H 0.48784 0.20942 0.00545 0.0
H561 H 0.45682 0.23884 0.10239 0.0
H562 H 0.45647 0.27855 0.11573 0.0
O563 O 0.46943 0.28079 0.01088 0.0
C564 C 0.52262 0.29454 0.01147 0.0
C565 C 0.47145 0.29107 0.08345 0.0
C566 C 0.4635 0.25202 0.0911 0.0
N567 N 0.48016 0.26338 0.05408 0.0
C568 C 0.47984 0.28528 0.06117 0.0
C569 C 0.47228 0.24683 0.06883 0.0
C570 C 0.46319 0.2743 0.09848 0.0
C571 C 0.54712 0.24537 0.96177 0.0
N572 N 0.53894 0.26696 0.96339 0.0
C573 C 0.57207 0.24084 0.95933 0.0
C574 C 0.58867 0.25858 0.95866 0.0
C575 C 0.58019 0.28056 0.96039 0.0
C576 C 0.55513 0.28445 0.96275 0.0
C577 C 0.51434 0.30708 0.90404 0.0
C578 C 0.49451 0.31606 0.94762 0.0
C579 C 0.51518 0.29119 0.92195 0.0
N580 N 0.50514 0.29572 0.94335 0.0
C581 C 0.49316 0.33227 0.93008 0.0
C582 C 0.50304 0.32766 0.90812 0.0
C583 C 0.45948 0.28544 0.99131 0.0
C584 C 0.45058 0.19849 0.00664 0.0
C585 C 0.44089 0.24095 0.02391 0.0
C586 C 0.42166 0.2258 0.02076 0.0
C587 C 0.42659 0.20444 0.01206 0.0
N588 N 0.4644 0.235 0.01861 0.0
C589 C 0.46934 0.21408 0.01002 0.0
Co590 Co 0.75625 0.47346 0.01636 0.0
Co591 Co 0.75881 0.53019 0.00906 0.0
O592 O 0.73948 0.50244 0.01256 0.0
C593 C 0.70888 0.46242 0.99096 0.0
O594 O 0.70378 0.48368 0.98775 0.0
C595 C 0.71159 0.54446 0.03301 0.0
O596 O 0.70473 0.52358 0.03604 0.0
O597 O 0.77446 0.52431 0.04 0.0
O598 O 0.78384 0.48827 0.03366 0.0
H599 H 0.83617 0.57564 0.01315 0.0
H600 H 0.705 0.47958 0.03359 0.0
O601 O 0.7292 0.45663 1.00004 0.0
H602 H 0.75125 0.45203 0.10154 0.0
H603 H 0.76261 0.39046 0.03214 0.0
H604 H 0.8078 0.45906 0.01073 0.0
H605 H 0.77172 0.45766 0.06367 0.0
H606 H 0.74113 0.42662 0.0286 0.0
O607 O 0.73255 0.54892 0.02439 0.0
H608 H 0.81115 0.54136 0.01626 0.0
H609 H 0.74783 0.57771 0.99595 0.0
H610 H 0.83005 0.42328 0.01438 0.0
H611 H 0.68374 0.47391 0.07096 0.0
H612 H 0.80742 0.38864 0.02514 0.0
H613 H 0.70683 0.46001 0.10537 0.0
O614 O 0.77331 0.47848 0.98582 0.0
H615 H 0.68909 0.532 0.95151 0.0
H616 H 0.77753 0.54398 0.96213 0.0
H617 H 0.75942 0.54887 0.92309 0.0
H618 H 0.71482 0.54292 0.91755 0.0
H619 H 0.70791 0.52737 0.99014 0.0
H620 H 0.77214 0.6124 0.99282 0.0
H621 H 0.81667 0.6115 1.00135 0.0
O622 O 0.78585 0.5135 0.99291 0.0
C623 C 0.78644 0.50656 0.04504 0.0
C624 C 0.81679 0.57624 0.00934 0.0
C625 C 0.78085 0.59688 0.99797 0.0
N626 N 0.77806 0.55746 0.00621 0.0
C627 C 0.80252 0.55687 0.01104 0.0
C628 C 0.76716 0.57718 0.99986 0.0
C629 C 0.80584 0.59636 1.00274 0.0
C630 C 0.71526 0.47341 0.04827 0.0
N631 N 0.73967 0.46892 0.0462 0.0
C632 C 0.70309 0.47032 0.06952 0.0
C633 C 0.71605 0.46256 0.08882 0.0
C634 C 0.74095 0.45809 0.08668 0.0
C635 C 0.75251 0.46144 0.06517 0.0
C636 C 0.77267 0.40543 0.02743 0.0
C637 C 0.79783 0.44409 0.01549 0.0
C638 C 0.76059 0.42596 0.02528 0.0
N639 N 0.7732 0.44499 0.01949 0.0
C640 C 0.81052 0.42386 0.0175 0.0
C641 C 0.79782 0.40443 0.02352 0.0
C642 C 0.7868 0.49539 0.98106 0.0
C643 C 0.70851 0.5348 0.95371 0.0
C644 C 0.75814 0.54135 0.95994 0.0
C645 C 0.74797 0.54419 0.93776 0.0
C646 C 0.72296 0.54086 0.93466 0.0
N647 N 0.74386 0.53541 0.97861 0.0
C648 C 0.71931 0.53226 0.97566 0.0
Co649 Co 0.50885 0.74523 0.03319 0.0
Co650 Co 0.49919 0.74655 0.9746 0.0
O651 O 0.5044 0.76259 0.00423 0.0
C652 C 0.48453 0.78885 0.04761 0.0
O653 O 0.47839 0.7931 0.02592 0.0
C654 C 0.52527 0.78981 0.96164 0.0
O655 O 0.52955 0.79455 0.98365 0.0
O656 O 0.53142 0.73148 0.97895 0.0
O657 O 0.5241 0.71965 0.01542 0.0
H658 H 0.49956 0.67786 0.92355 0.0
H659 H 0.52981 0.79129 0.02961 0.0
O660 O 0.49474 0.77029 0.05286 0.0
H661 H 0.5997 0.74228 0.04788 0.0
H662 H 0.53028 0.73355 0.11802 0.0
H663 H 0.50042 0.69758 0.04579 0.0
H664 H 0.55813 0.72661 0.04473 0.0
H665 H 0.52524 0.7556 0.08191 0.0
O666 O 0.51521 0.77128 0.95599 0.0
H667 H 0.50478 0.69899 0.96028 0.0
H668 H 0.48429 0.75935 0.92609 0.0
H669 H 0.50538 0.6749 0.08148 0.0
H670 H 0.57101 0.80757 0.03244 0.0
H671 H 0.52044 0.69287 0.11793 0.0
H672 H 0.60636 0.78306 0.04185 0.0
O673 O 0.47565 0.73184 0.02842 0.0
H674 H 0.44085 0.81205 0.97491 0.0
H675 H 0.44915 0.73065 0.96207 0.0
H676 H 0.40879 0.74842 0.95771 0.0
H677 H 0.40442 0.78945 0.96402 0.0
H678 H 0.48072 0.79359 0.97947 0.0
H679 H 0.47911 0.73889 0.88894 0.0
H680 H 0.48664 0.69783 0.88753 0.0
O681 O 0.48222 0.72132 0.99135 0.0
C682 C 0.53614 0.71882 0.99633 0.0
C683 C 0.49618 0.69575 0.92395 0.0
C684 C 0.48474 0.73 0.90452 0.0
N685 N 0.49479 0.73037 0.9454 0.0
C686 C 0.49908 0.70781 0.94472 0.0
C687 C 0.48781 0.74151 0.92561 0.0
C688 C 0.48896 0.70696 0.90374 0.0
C689 C 0.54494 0.78048 0.03384 0.0
N690 N 0.54137 0.75802 0.0371 0.0
C691 C 0.56831 0.78982 0.03542 0.0
C692 C 0.58815 0.77604 0.0406 0.0
C693 C 0.58441 0.75317 0.04401 0.0
C694 C 0.5608 0.7444 0.04216 0.0
C695 C 0.52368 0.72553 0.10225 0.0
C696 C 0.50698 0.70555 0.06157 0.0
C697 C 0.52068 0.73795 0.08176 0.0
N698 N 0.51256 0.72789 0.06171 0.0
C699 C 0.50973 0.69261 0.08173 0.0
C700 C 0.51817 0.7027 0.10218 0.0
C701 C 0.47018 0.72008 0.01046 0.0
C702 C 0.44253 0.79418 0.972 0.0
C703 C 0.44747 0.7485 0.96496 0.0
C704 C 0.42453 0.75848 0.9624 0.0
C705 C 0.42209 0.78149 0.96593 0.0
N706 N 0.46752 0.76106 0.97083 0.0
C707 C 0.46518 0.78361 0.97443 0.0
H708 H 0.02401 0.28722 0.41336 0.0
H709 H 0.01858 0.31759 0.38521 0.0
H710 H 0.02491 0.36621 0.44076 0.0
H711 H 0.03029 0.33586 0.46914 0.0
H712 H 0.98435 0.37349 0.41312 0.0
H713 H 0.07018 0.36098 0.40152 0.0
H714 H 0.10715 0.33849 0.39376 0.0
H715 H 0.07808 0.31855 0.32718 0.0
H716 H 0.04077 0.34068 0.33468 0.0
H717 H 0.98693 0.46944 0.33836 0.0
H718 H 0.9935 0.44039 0.36777 0.0
H719 H 0.99868 0.39049 0.31325 0.0
H720 H 0.99309 0.41964 0.28375 0.0
H721 H 0.03426 0.38455 0.34157 0.0
H722 H 0.94809 0.3953 0.35289 0.0
H723 H 0.91023 0.41665 0.36028 0.0
H724 H 0.93841 0.43851 0.42656 0.0
H725 H 0.97658 0.41751 0.41943 0.0
C726 C 0.02468 0.30438 0.41958 0.0
C727 C 0.02762 0.30906 0.44355 0.0
C728 C 0.02157 0.32175 0.40343 0.0
C729 C 0.02132 0.34421 0.41084 0.0
C730 C 0.02499 0.34901 0.43464 0.0
C731 C 0.02829 0.33162 0.45082 0.0
C732 C 0.01606 0.36254 0.39389 0.0
C733 C 0.99548 0.37617 0.39764 0.0
C734 C 0.03012 0.36561 0.37335 0.0
C735 C 0.05259 0.35234 0.36876 0.0
C736 C 0.07159 0.35166 0.38531 0.0
C737 C 0.09262 0.339 0.38093 0.0
C738 C 0.09494 0.32705 0.36001 0.0
C739 C 0.07625 0.32779 0.34339 0.0
C740 C 0.05517 0.34041 0.34768 0.0
C741 C 0.98896 0.45221 0.33264 0.0
C742 C 0.98941 0.44687 0.30868 0.0
C743 C 0.99272 0.43555 0.34952 0.0
C744 C 0.99647 0.41309 0.34286 0.0
C745 C 0.99597 0.40765 0.31893 0.0
C746 C 0.99259 0.42433 0.30205 0.0
C747 C 1.00231 0.39549 0.36058 0.0
C748 C 0.02307 0.38196 0.35702 0.0
C749 C 0.98824 0.39239 0.38118 0.0
C750 C 0.9653 0.40501 0.38551 0.0
C751 C 0.94629 0.4048 0.36896 0.0
C752 C 0.92476 0.41681 0.37311 0.0
C753 C 0.92195 0.42898 0.39384 0.0
C754 C 0.94063 0.42911 0.41049 0.0
C755 C 0.96221 0.41713 0.40641 0.0
H756 H 0.90526 0.43827 0.39703 0.0
H757 H 0.11124 0.31726 0.35666 0.0
H758 H 0.66652 0.99203 0.4742 0.0
H759 H 0.63838 0.98907 0.44133 0.0
H760 H 0.68425 0.0335 0.40098 0.0
H761 H 0.71243 0.03691 0.43438 0.0
H762 H 0.63668 0.04144 0.3925 0.0
H763 H 0.68778 0.97634 0.39321 0.0
H764 H 0.70788 0.94298 0.41003 0.0
H765 H 0.6378 0.91398 0.42526 0.0
H766 H 0.61724 0.94714 0.40866 0.0
H767 H 0.57766 0.97195 0.2912 0.0
H768 H 0.61042 0.97522 0.32057 0.0
H769 H 0.5619 0.01281 0.36543 0.0
H770 H 0.52962 0.00993 0.33624 0.0
H771 H 0.61685 0.96414 0.36621 0.0
H772 H 0.59115 0.05558 0.39038 0.0
H773 H 0.57302 0.08911 0.37208 0.0
H774 H 0.596 0.06608 0.30443 0.0
H775 H 0.61436 0.03236 0.32228 0.0
C776 C 0.67036 1.00158 0.45849 0.0
C777 C 0.69164 0.01473 0.4568 0.0
C778 C 0.65439 0.99967 0.43962 0.0
C779 C 0.65955 0.01051 0.41842 0.0
C780 C 0.68002 0.0248 0.41711 0.0
C781 C 0.69598 0.02692 0.43621 0.0
C782 C 0.64377 0.00631 0.39768 0.0
C783 C 0.63245 0.02456 0.38668 0.0
C784 C 0.63861 0.98426 0.38971 0.0
C785 C 0.65096 0.96429 0.39974 0.0
C786 C 0.67665 0.96291 0.40026 0.0
C787 C 0.68813 0.94404 0.40975 0.0
C788 C 0.67413 0.92643 0.41872 0.0
C789 C 0.64862 0.92764 0.41827 0.0
C790 C 0.63704 0.94643 0.40877 0.0
C791 C 0.57389 0.98034 0.30762 0.0
C792 C 0.55117 0.9907 0.31147 0.0
C793 C 0.59263 0.98239 0.32429 0.0
C794 C 0.58881 0.99481 0.34493 0.0
C795 C 0.56552 1.00369 0.3494 0.0
C796 C 0.547 1.00183 0.33279 0.0
C797 C 0.6091 0.99924 0.36164 0.0
C798 C 0.62128 0.98103 0.37186 0.0
C799 C 0.61527 0.02134 0.36872 0.0
C800 C 0.60407 0.0414 0.35769 0.0
C801 C 0.59238 0.05767 0.37159 0.0
C802 C 0.58202 0.07667 0.36129 0.0
C803 C 0.58336 0.07967 0.33711 0.0
C804 C 0.59491 0.06361 0.32314 0.0
C805 C 0.60525 0.04453 0.33334 0.0
H806 H 0.57559 0.09451 0.3292 0.0
H807 H 0.68305 0.9118 0.42591 0.0
H808 H 0.03119 0.54234 0.34336 0.0
H809 H 0.02335 0.56985 0.37431 0.0
H810 H 0.01388 0.62149 0.32234 0.0
H811 H 0.0222 0.59431 0.29145 0.0
H812 H 0.03704 0.63822 0.35888 0.0
H813 H 0.96347 0.59579 0.34715 0.0
H814 H 0.93816 0.56172 0.34385 0.0
H815 H 0.95756 0.54291 0.41388 0.0
H816 H 0.98288 0.57704 0.41764 0.0
H817 H 0.97464 0.71842 0.42531 0.0
H818 H 0.98103 0.68922 0.39591 0.0
H819 H 0.99167 0.64041 0.45058 0.0
H820 H 0.98448 0.66944 0.4801 0.0
H821 H 0.96877 0.62175 0.4136 0.0
H822 H 0.04048 0.6684 0.42473 0.0
H823 H 0.06177 0.70486 0.4263 0.0
H824 H 0.04323 0.71735 0.35462 0.0
H825 H 0.02154 0.68108 0.35263 0.0
C826 C 0.02797 0.55964 0.33854 0.0
C827 C 0.02713 0.56603 0.31487 0.0
C828 C 0.02322 0.57533 0.35625 0.0
C829 C 0.01748 0.59769 0.35066 0.0
C830 C 0.01809 0.60435 0.32714 0.0
C831 C 0.02283 0.58873 0.30946 0.0
C832 C 0.00984 0.61396 0.3691 0.0
C833 C 0.02201 0.63465 0.37073 0.0
C834 C 0.99034 0.60936 0.38474 0.0
C835 C 0.97526 0.5888 0.38258 0.0
C836 C 0.96246 0.5843 0.36178 0.0
C837 C 0.9481 0.565 0.35984 0.0
C838 C 0.94641 0.55004 0.37857 0.0
C839 C 0.95894 0.55447 0.39936 0.0
C840 C 0.97323 0.57383 0.40144 0.0
C841 C 0.97769 0.70134 0.43107 0.0
C842 C 0.9792 0.69628 0.45504 0.0
C843 C 0.98156 0.68469 0.41425 0.0
C844 C 0.9876 0.66274 0.42102 0.0
C845 C 0.98727 0.65726 0.44491 0.0
C846 C 0.98303 0.67388 0.46179 0.0
C847 C 0.99594 0.646 0.40335 0.0
C848 C 0.98394 0.62523 0.40189 0.0
C849 C 0.01539 0.65068 0.38763 0.0
C850 C 0.02926 0.67208 0.38858 0.0
C851 C 0.0409 0.67893 0.40931 0.0
C852 C 0.05301 0.69957 0.41029 0.0
C853 C 0.0538 0.71343 0.39063 0.0
C854 C 0.04259 0.70661 0.36986 0.0
C855 C 0.03042 0.68599 0.36877 0.0
H856 H 0.06312 0.72943 0.39148 0.0
H857 H 0.9353 0.53508 0.37701 0.0
H858 H 0.28646 0.98052 0.42685 0.0
H859 H 0.3139 0.98325 0.39293 0.0
H860 H 0.37357 1.00103 0.43876 0.0
H861 H 0.3459 0.99933 0.47229 0.0
H862 H 0.37161 0.02987 0.40593 0.0
H863 H 0.36919 0.94914 0.4073 0.0
H864 H 0.3496 0.91186 0.40713 0.0
H865 H 0.31695 0.9261 0.34053 0.0
H866 H 0.3361 0.96359 0.34045 0.0
H867 H 0.47481 0.01664 0.3321 0.0
H868 H 0.44271 0.01365 0.36178 0.0
H869 H 0.38815 0.00951 0.3075 0.0
H870 H 0.4205 0.01295 0.27765 0.0
H871 H 0.38409 0.97546 0.34137 0.0
H872 H 0.39029 0.05552 0.33949 0.0
H873 H 0.41182 0.09187 0.34006 0.0
H874 H 0.43932 0.07767 0.40876 0.0
H875 H 0.41826 0.04107 0.40847 0.0
C876 C 0.30566 0.98417 0.42965 0.0
C877 C 0.31423 0.98939 0.45214 0.0
C878 C 0.32133 0.98588 0.41026 0.0
C879 C 0.34592 0.99238 0.41317 0.0
C880 C 0.3547 0.99616 0.43593 0.0
C881 C 0.33898 0.99491 0.45514 0.0
C882 C 0.36213 0.9971 0.3927 0.0
C883 C 0.37451 0.01778 0.392 0.0
C884 C 0.36536 0.98179 0.37397 0.0
C885 C 0.35385 0.95926 0.374 0.0
C886 C 0.35767 0.94439 0.39271 0.0
C887 C 0.34667 0.92321 0.39265 0.0
C888 C 0.33198 0.91664 0.37387 0.0
C889 C 0.3283 0.93122 0.35509 0.0
C890 C 0.33923 0.95243 0.35508 0.0
C891 C 0.45588 0.016 0.32655 0.0
C892 C 0.44994 0.01589 0.3027 0.0
C893 C 0.43757 0.01404 0.34349 0.0
C894 C 0.41298 0.01154 0.33689 0.0
C895 C 0.40698 0.01157 0.31299 0.0
C896 C 0.42536 0.01381 0.29599 0.0
C897 C 0.39394 0.00787 0.3551 0.0
C898 C 0.38098 0.98751 0.35529 0.0
C899 C 0.39034 0.02334 0.37354 0.0
C900 C 0.40282 0.04547 0.37388 0.0
C901 C 0.40107 0.06008 0.35466 0.0
C902 C 0.41317 0.08074 0.35494 0.0
C903 C 0.42697 0.08706 0.37441 0.0
C904 C 0.42864 0.07275 0.39368 0.0
C905 C 0.41659 0.05206 0.39348 0.0
H906 H 0.43634 0.10306 0.37459 0.0
H907 H 0.32349 0.90024 0.37385 0.0
H908 H 0.98214 0.58924 0.7289 0.0
H909 H 0.99098 0.6179 0.69956 0.0
H910 H 0.98298 0.56868 0.6448 0.0
H911 H 0.97407 0.53982 0.6741 0.0
H912 H 0.02586 0.59352 0.64074 0.0
H913 H 0.94028 0.60783 0.65122 0.0
H914 H 0.90262 0.6154 0.67366 0.0
H915 H 0.93408 0.67625 0.70039 0.0
H916 H 0.97208 0.66888 0.67836 0.0
H917 H 0.03082 0.67184 0.54611 0.0
H918 H 0.02183 0.64199 0.57406 0.0
H919 H 0.01848 0.69072 0.62982 0.0
H920 H 0.02673 0.7207 0.60182 0.0
H921 H 0.98053 0.66509 0.63255 0.0
H922 H 0.06632 0.65093 0.62368 0.0
H923 H 0.10473 0.64358 0.60236 0.0
H924 H 0.07422 0.58303 0.57395 0.0
H925 H 0.03549 0.59017 0.59488 0.0
C926 C 0.98186 0.58454 0.7106 0.0
C927 C 0.97733 0.5622 0.70388 0.0
C928 C 0.98692 0.60098 0.69383 0.0
C929 C 0.98765 0.59547 0.66995 0.0
C930 C 0.98255 0.57331 0.66312 0.0
C931 C 0.97724 0.55688 0.67989 0.0
C932 C 0.99475 0.61267 0.65232 0.0
C933 C 0.01575 0.60904 0.63865 0.0
C934 C 0.98197 0.63318 0.65008 0.0
C935 C 0.95912 0.63769 0.66331 0.0
C936 C 0.93925 0.62273 0.66204 0.0
C937 C 0.91783 0.627 0.67465 0.0
C938 C 0.91598 0.64626 0.68849 0.0
C939 C 0.93554 0.66132 0.68969 0.0
C940 C 0.95702 0.65712 0.67712 0.0
C941 C 0.02874 0.67616 0.56441 0.0
C942 C 0.02953 0.6987 0.5717 0.0
C943 C 0.02356 0.65903 0.58043 0.0
C944 C 0.0195 0.66398 0.60418 0.0
C945 C 0.02136 0.6864 0.61162 0.0
C946 C 0.02626 0.70354 0.59559 0.0
C947 C 0.01188 0.64613 0.62101 0.0
C948 C 0.99071 0.6496 0.63454 0.0
C949 C 0.02465 0.62555 0.62326 0.0
C950 C 0.04792 0.62121 0.61066 0.0
C951 C 0.06773 0.63614 0.61274 0.0
C952 C 0.08958 0.632 0.60075 0.0
C953 C 0.09189 0.61288 0.58676 0.0
C954 C 0.07238 0.59785 0.58477 0.0
C955 C 0.05049 0.60192 0.59671 0.0
H956 H 0.10882 0.6097 0.57749 0.0
H957 H 0.89938 0.64955 0.69824 0.0
H958 H 0.42669 0.98193 0.7171 0.0
H959 H 0.39484 0.98643 0.68726 0.0
H960 H 0.45007 0.00481 0.63666 0.0
H961 H 0.48149 1.00159 0.66687 0.0
H962 H 0.41607 0.03257 0.6328 0.0
H963 H 0.41652 0.95235 0.63677 0.0
H964 H 0.41427 0.91516 0.65548 0.0
H965 H 0.34148 0.92948 0.67952 0.0
H966 H 0.34342 0.9669 0.66121 0.0
H967 H 0.34508 0.01413 0.52862 0.0
H968 H 0.37453 0.0112 0.56088 0.0
H969 H 0.31572 0.01829 0.6107 0.0
H970 H 0.28633 0.02201 0.57833 0.0
H971 H 0.34911 0.97875 0.61614 0.0
H972 H 0.35005 0.05931 0.60846 0.0
H973 H 0.35375 0.09472 0.58649 0.0
H974 H 0.42667 0.0769 0.56557 0.0
H975 H 0.42326 0.0412 0.58712 0.0
C976 C 0.43194 0.98637 0.69942 0.0
C977 C 0.45645 0.9911 0.69407 0.0
C978 C 0.41377 0.98899 0.68235 0.0
C979 C 0.41994 0.99582 0.6595 0.0
C980 C 0.44469 0.99966 0.65409 0.0
C981 C 0.46269 0.99759 0.67126 0.0
C982 C 0.40071 1.00027 0.64154 0.0
C983 C 0.40167 0.02058 0.62904 0.0
C984 C 0.38143 0.98499 0.63679 0.0
C985 C 0.38022 0.96252 0.64784 0.0
C986 C 0.40011 0.94764 0.64621 0.0
C987 C 0.39888 0.9265 0.65671 0.0
C988 C 0.37778 0.91998 0.66874 0.0
C989 C 0.35783 0.93457 0.67023 0.0
C990 C 0.35898 0.95573 0.65978 0.0
C991 C 0.33864 0.01573 0.54648 0.0
C992 C 0.31365 0.01874 0.55114 0.0
C993 C 0.35537 0.01389 0.56484 0.0
C994 C 0.34727 0.0145 0.58815 0.0
C995 C 0.3223 0.01782 0.59283 0.0
C996 C 0.30562 0.02014 0.57441 0.0
C997 C 0.36488 0.01075 0.60747 0.0
C998 C 0.36356 0.99064 0.62013 0.0
C999 C 0.38413 0.02593 0.61201 0.0
C1000 C 0.38631 0.04749 0.59924 0.0
C1001 C 0.36679 0.06285 0.59901 0.0
C1002 C 0.36885 0.08299 0.58666 0.0
C1003 C 0.39041 0.08803 0.57459 0.0
C1004 C 0.40997 0.07296 0.57491 0.0
C1005 C 0.40799 0.05279 0.58721 0.0
H1006 H 0.39196 0.10363 0.56504 0.0
H1007 H 0.37686 0.90361 0.67685 0.0
H1008 H 0.97719 0.33677 0.53623 0.0
H1009 H 0.98402 0.3669 0.56457 0.0
H1010 H 0.99146 0.31801 0.61963 0.0
H1011 H 0.98425 0.28786 0.59153 0.0
H1012 H 0.96675 0.35369 0.63517 0.0
H1013 H 0.04434 0.34234 0.59619 0.0
H1014 H 0.07247 0.33888 0.56266 0.0
H1015 H 0.05052 0.40384 0.53804 0.0
H1016 H 0.02272 0.40792 0.57188 0.0
H1017 H 0.02585 0.41767 0.72039 0.0
H1018 H 0.0202 0.38946 0.68989 0.0
H1019 H 0.01231 0.44177 0.63843 0.0
H1020 H 0.01856 0.47017 0.66886 0.0
H1021 H 0.03597 0.4057 0.62022 0.0
H1022 H 0.96213 0.41813 0.66429 0.0
H1023 H 0.93822 0.42115 0.70073 0.0
H1024 H 0.95419 0.35248 0.71704 0.0
H1025 H 0.97851 0.34907 0.68081 0.0
C1026 C 0.97978 0.33241 0.55444 0.0
C1027 C 0.9803 0.30982 0.56152 0.0
C1028 C 0.98397 0.34968 0.57061 0.0
C1029 C 0.98878 0.34474 0.5942 0.0
C1030 C 0.98797 0.32229 0.60153 0.0
C1031 C 0.98384 0.30503 0.58539 0.0
C1032 C 0.99542 0.36282 0.61111 0.0
C1033 C 0.98199 0.36493 0.63196 0.0
C1034 C 0.01506 0.3778 0.6069 0.0
C1035 C 0.0313 0.37531 0.58634 0.0
C1036 C 0.04541 0.3558 0.58352 0.0
C1037 C 0.06132 0.35375 0.5645 0.0
C1038 C 0.06306 0.371 0.54804 0.0
C1039 C 0.04908 0.39045 0.55074 0.0
C1040 C 0.03336 0.39271 0.56992 0.0
C1041 C 0.02355 0.42319 0.70248 0.0
C1042 C 0.02251 0.44618 0.69709 0.0
C1043 C 0.02011 0.40703 0.68508 0.0
C1044 C 0.0151 0.41349 0.66196 0.0
C1045 C 0.01592 0.43638 0.65617 0.0
C1046 C 0.01964 0.45261 0.67358 0.0
C1047 C 0.00742 0.39647 0.64432 0.0
C1048 C 0.02058 0.39459 0.62334 0.0
C1049 C 0.98761 0.38161 0.64852 0.0
C1050 C 0.97226 0.38338 0.66989 0.0
C1051 C 0.9606 0.40368 0.67566 0.0
C1052 C 0.94699 0.40548 0.69629 0.0
C1053 C 0.94471 0.38705 0.7112 0.0
C1054 C 0.95597 0.36674 0.70546 0.0
C1055 C 0.96964 0.36485 0.68486 0.0
H1056 H 0.93422 0.38852 0.7272 0.0
H1057 H 0.07535 0.36934 0.53328 0.0
H1058 H 0.58896 0.01087 0.72375 0.0
H1059 H 0.6215 0.00558 0.69463 0.0
H1060 H 0.56765 0.00734 0.63949 0.0
H1061 H 0.53521 0.01165 0.66871 0.0
H1062 H 0.59507 0.97286 0.63345 0.0
H1063 H 0.61153 0.05063 0.64983 0.0
H1064 H 0.62073 0.0834 0.67467 0.0
H1065 H 0.68719 0.0521 0.69766 0.0
H1066 H 0.67822 0.019 0.67317 0.0
H1067 H 0.6682 0.99123 0.53297 0.0
H1068 H 0.64002 0.99212 0.56622 0.0
H1069 H 0.69987 0.97797 0.61303 0.0
H1070 H 0.72818 0.97686 0.57945 0.0
H1071 H 0.67253 0.01562 0.62608 0.0
H1072 H 0.65696 0.9392 0.60585 0.0
H1073 H 0.64748 0.90766 0.57945 0.0
H1074 H 0.57858 0.9379 0.56219 0.0
H1075 H 0.58779 0.96981 0.58822 0.0
C1076 C 0.58431 0.01089 0.70533 0.0
C1077 C 0.55977 0.01217 0.69831 0.0
C1078 C 0.60286 0.00776 0.68869 0.0
C1079 C 0.59714 0.00614 0.66474 0.0
C1080 C 0.57261 0.00845 0.65779 0.0
C1081 C 0.5541 0.01122 0.67443 0.0
C1082 C 0.61624 1.00049 0.647 0.0
C1083 C 0.61186 0.98242 0.63172 0.0
C1084 C 0.63863 0.01235 0.64516 0.0
C1085 C 0.64406 0.03224 0.65987 0.0
C1086 C 0.628 0.05066 0.66033 0.0
C1087 C 0.6332 0.06931 0.67432 0.0
C1088 C 0.6545 0.0698 0.68779 0.0
C1089 C 0.67068 0.05168 0.68725 0.0
C1090 C 0.66556 0.03298 0.67331 0.0
C1091 C 0.67513 0.98749 0.55028 0.0
C1092 C 0.70015 0.98344 0.5537 0.0
C1093 C 0.65908 0.98813 0.56928 0.0
C1094 C 0.66779 0.98503 0.59213 0.0
C1095 C 0.69274 0.98029 0.59553 0.0
C1096 C 0.70881 0.97935 0.57639 0.0
C1097 C 0.65097 0.98842 0.6123 0.0
C1098 C 0.6558 0.00598 0.62803 0.0
C1099 C 0.62886 0.97626 0.61443 0.0
C1100 C 0.62315 0.95698 0.59889 0.0
C1101 C 0.63986 0.93921 0.5963 0.0
C1102 C 0.63452 0.92125 0.58142 0.0
C1103 C 0.61246 0.92079 0.56912 0.0
C1104 C 0.59566 0.93828 0.57172 0.0
C1105 C 0.60092 0.95629 0.58657 0.0
H1106 H 0.60837 0.90688 0.55759 0.0
H1107 H 0.65849 0.08425 0.69861 0.0
H1108 H 0.44011 0.31076 0.95532 0.0
H1109 H 0.40896 0.34033 0.95875 0.0
H1110 H 0.3999 0.32484 0.03186 0.0
H1111 H 0.43122 0.29618 0.02894 0.0
H1112 H 0.35489 0.33244 0.0068 0.0
H1113 H 0.43563 0.36527 0.01933 0.0
H1114 H 0.47791 0.37252 0.00622 0.0
H1115 H 0.45081 0.40731 0.94588 0.0
H1116 H 0.40832 0.3999 0.95844 0.0
H1117 H 0.29319 0.42391 0.05527 0.0
H1118 H 0.32453 0.39539 0.04839 0.0
H1119 H 0.34474 0.42808 0.98389 0.0
H1120 H 0.31465 0.45727 0.99141 0.0
H1121 H 0.38345 0.41124 1.00053 0.0
H1122 H 0.30343 0.38097 0.98715 0.0
H1123 H 0.26064 0.37109 0.99643 0.0
H1124 H 0.28486 0.33026 0.05365 0.0
H1125 H 0.32777 0.33996 0.04484 0.0
C1126 C 0.43124 0.31345 0.97203 0.0
C1127 C 0.43829 0.30104 0.99184 0.0
C1128 C 0.41348 0.33036 0.97396 0.0
C1129 C 0.40221 0.33479 0.99561 0.0
C1130 C 0.40829 0.32165 0.015 0.0
C1131 C 0.42626 0.30517 0.01322 0.0
C1132 C 0.38529 0.35401 0.99883 0.0
C1133 C 0.36108 0.34969 0.00553 0.0
C1134 C 0.39332 0.37646 0.99664 0.0
C1135 C 0.41881 0.38187 0.98972 0.0
C1136 C 0.43869 0.3744 1.00323 0.0
C1137 C 0.46269 0.37852 0.99589 0.0
C1138 C 0.46705 0.39032 0.9752 0.0
C1139 C 0.4474 0.39815 0.96189 0.0
C1140 C 0.42336 0.39401 0.96912 0.0
C1141 C 0.30471 0.4253 0.03991 0.0
C1142 C 0.30119 0.4428 0.02383 0.0
C1143 C 0.32246 0.40881 0.03581 0.0
C1144 C 0.33651 0.40903 0.01514 0.0
C1145 C 0.33408 0.4273 0.99985 0.0
C1146 C 0.31678 0.44407 0.00423 0.0
C1147 C 0.35281 0.3898 0.00891 0.0
C1148 C 0.37699 0.39407 1.00164 0.0
C1149 C 0.34461 0.36722 0.01015 0.0
C1150 C 0.3188 0.36134 0.01545 0.0
C1151 C 0.29962 0.36998 1.00179 0.0
C1152 C 0.27535 0.36442 0.00696 0.0
C1153 C 0.27004 0.35016 0.02566 0.0
C1154 C 0.289 0.34134 0.03919 0.0
C1155 C 0.31329 0.34683 0.03409 0.0
H1156 H 0.25124 0.34589 0.02963 0.0
H1157 H 0.48564 0.39342 0.9695 0.0
H1158 H 0.27148 0.60223 1.00131 0.0
H1159 H 0.30393 0.62961 0.00732 0.0
H1160 H 0.35357 0.58852 0.96721 0.0
H1161 H 0.32115 0.56064 0.96148 0.0
H1162 H 0.37451 0.60153 0.00697 0.0
H1163 H 0.3308 0.6385 0.94579 0.0
H1164 H 0.29487 0.65437 0.92574 0.0
H1165 H 0.28385 0.70047 0.98253 0.0
H1166 H 0.31954 0.68467 1.00308 0.0
H1167 H 0.46822 0.68082 0.98672 0.0
H1168 H 0.43418 0.6546 0.98392 0.0
H1169 H 0.39269 0.69473 0.03263 0.0
H1170 H 0.42717 0.72128 0.03565 0.0
H1171 H 0.3669 0.68299 0.99086 0.0
H1172 H 0.41284 0.64658 0.05084 0.0
H1173 H 0.44994 0.63113 0.06921 0.0
H1174 H 0.4577 0.58403 0.01282 0.0
H1175 H 0.42085 0.59946 0.99389 0.0
C1176 C 0.28918 0.59907 0.99345 0.0
C1177 C 0.29364 0.57914 0.98089 0.0
C1178 C 0.30776 0.61485 0.99687 0.0
C1179 C 0.33124 0.61125 0.98766 0.0
C1180 C 0.33562 0.59168 0.97454 0.0
C1181 C 0.31699 0.57582 0.97111 0.0
C1182 C 0.35144 0.62738 0.99268 0.0
C1183 C 0.37293 0.61929 1.00315 0.0
C1184 C 0.34919 0.65071 0.98838 0.0
C1185 C 0.32769 0.66023 0.97609 0.0
C1186 C 0.32059 0.65189 0.9541 0.0
C1187 C 0.30029 0.6609 0.94262 0.0
C1188 C 0.28704 0.67837 0.95288 0.0
C1189 C 0.29411 0.68691 0.97462 0.0
C1190 C 0.31438 0.67795 0.98618 0.0
C1191 C 0.45198 0.684 0.99709 0.0
C1192 C 0.45038 0.70313 0.01145 0.0
C1193 C 0.43254 0.66893 0.99549 0.0
C1194 C 0.41091 0.67265 0.00809 0.0
C1195 C 0.40927 0.69155 0.02278 0.0
C1196 C 0.429 0.70658 0.02465 0.0
C1197 C 0.3899 0.65706 0.00497 0.0
C1198 C 0.36832 0.66524 0.99483 0.0
C1199 C 0.39212 0.6338 0.0094 0.0
C1200 C 0.41417 0.6243 0.02085 0.0
C1201 C 0.42255 0.63304 0.04225 0.0
C1202 C 0.44353 0.62427 0.05278 0.0
C1203 C 0.45619 0.60664 0.04216 0.0
C1204 C 0.44787 0.5977 0.02102 0.0
C1205 C 0.42693 0.60644 0.01039 0.0
H1206 H 0.47243 0.59987 0.05034 0.0
H1207 H 0.27134 0.68533 0.94397 0.0
H1208 H 0.5144 0.33926 0.00984 0.0
H1209 H 0.54529 0.36893 0.00907 0.0
H1210 H 0.60162 0.31982 0.02212 0.0
H1211 H 0.57037 0.29029 0.02422 0.0
H1212 H 0.61436 0.35729 0.04204 0.0
H1213 H 0.58464 0.33895 0.96458 0.0
H1214 H 0.55469 0.33462 0.93264 0.0
H1215 H 0.53409 0.4038 0.93968 0.0
H1216 H 0.5638 0.40851 0.97173 0.0
H1217 H 0.71364 0.41683 0.99345 0.0
H1218 H 0.6812 0.38917 0.99875 0.0
H1219 H 0.62693 0.4412 0.99194 0.0
H1220 H 0.65937 0.46908 0.9865 0.0
H1221 H 0.61296 0.40327 0.96975 0.0
H1222 H 0.64307 0.42216 0.04597 0.0
H1223 H 0.6751 0.42783 0.0757 0.0
H1224 H 0.69569 0.35854 0.07025 0.0
H1225 H 0.6638 0.35245 0.04038 0.0
C1226 C 0.5333 0.33499 0.01342 0.0
C1227 C 0.54003 0.31258 0.01737 0.0
C1228 C 0.55102 0.35188 0.01258 0.0
C1229 C 0.57598 0.34659 0.01474 0.0
C1230 C 0.58255 0.32438 0.02025 0.0
C1231 C 0.56469 0.30752 0.02166 0.0
C1232 C 0.59518 0.36384 0.00986 0.0
C1233 C 0.61413 0.36713 0.0261 0.0
C1234 C 0.59482 0.37717 0.98929 0.0
C1235 C 0.57634 0.37404 0.97062 0.0
C1236 C 0.57357 0.35317 0.95944 0.0
C1237 C 0.55667 0.35067 0.94128 0.0
C1238 C 0.54257 0.36896 0.93411 0.0
C1239 C 0.5451 0.38969 0.94523 0.0
C1240 C 0.56196 0.39229 0.96335 0.0
C1241 C 0.69481 0.42242 0.99279 0.0
C1242 C 0.68916 0.44527 0.98976 0.0
C1243 C 0.67626 0.40656 0.99598 0.0
C1244 C 0.65162 0.41316 0.99635 0.0
C1245 C 0.64582 0.43573 0.99194 0.0
C1246 C 0.66441 0.45165 0.98871 0.0
C1247 C 0.63201 0.3966 1.00184 0.0
C1248 C 0.61306 0.39344 0.98571 0.0
C1249 C 0.63238 0.38344 0.02247 0.0
C1250 C 0.65118 0.38689 0.04081 0.0
C1251 C 0.6545 0.40815 0.05104 0.0
C1252 C 0.67263 0.41144 0.0679 0.0
C1253 C 0.68752 0.3936 0.07476 0.0
C1254 C 0.68417 0.37236 0.06488 0.0
C1255 C 0.66602 0.36896 0.04803 0.0
H1256 H 0.7016 0.39621 0.08778 0.0
H1257 H 0.52978 0.36718 0.91983 0.0
H1258 H 0.66162 0.54089 0.03242 0.0
H1259 H 0.63207 0.57114 0.02624 0.0
H1260 H 0.69038 0.61981 0.0286 0.0
H1261 H 0.7201 0.58966 0.03459 0.0
H1262 H 0.64691 0.63429 0.05173 0.0
H1263 H 0.67247 0.60584 0.97696 0.0
H1264 H 0.68086 0.57684 0.94728 0.0
H1265 H 0.60579 0.55567 0.94985 0.0
H1266 H 0.59694 0.58471 0.97952 0.0
H1267 H 0.58551 0.72367 0.9938 0.0
H1268 H 0.61613 0.69399 0.99981 0.0
H1269 H 0.55859 0.64448 1.00184 0.0
H1270 H 0.52804 0.67417 0.99647 0.0
H1271 H 0.60223 0.63097 0.97624 0.0
H1272 H 0.57663 0.66132 0.05029 0.0
H1273 H 0.56865 0.69202 0.07816 0.0
H1274 H 0.64461 0.71035 0.07663 0.0
H1275 H 0.65297 0.67998 0.04833 0.0
C1276 C 0.66813 0.55805 0.03219 0.0
C1277 C 0.69326 0.56283 0.03393 0.0
C1278 C 0.65122 0.57532 0.02848 0.0
C1279 C 0.65906 0.59771 0.02668 0.0
C1280 C 0.68392 0.60267 0.02989 0.0
C1281 C 0.70088 0.58539 0.03331 0.0
C1282 C 0.64162 0.61567 0.01982 0.0
C1283 C 0.63735 0.63369 0.03513 0.0
C1284 C 0.62892 0.61482 0.99827 0.0
C1285 C 0.63412 0.59725 0.9806 0.0
C1286 C 0.6578 0.59488 0.97132 0.0
C1287 C 0.66262 0.57847 0.95447 0.0
C1288 C 0.64391 0.5643 0.94679 0.0
C1289 C 0.62028 0.56662 0.95585 0.0
C1290 C 0.61533 0.5831 0.97263 0.0
C1291 C 0.57958 0.70635 0.99479 0.0
C1292 C 0.5546 0.70102 0.9943 0.0
C1293 C 0.59698 0.68947 0.99843 0.0
C1294 C 0.58958 0.66706 1.00136 0.0
C1295 C 0.56468 0.66163 0.99951 0.0
C1296 C 0.54729 0.67853 0.99636 0.0
C1297 C 0.60748 0.64952 0.00815 0.0
C1298 C 0.6118 0.63157 0.99284 0.0
C1299 C 0.62024 0.65051 0.02966 0.0
C1300 C 0.61539 0.66851 0.04701 0.0
C1301 C 0.59161 0.67199 0.05574 0.0
C1302 C 0.58702 0.68931 0.07166 0.0
C1303 C 0.60611 0.70311 0.07917 0.0
C1304 C 0.62984 0.69962 0.0708 0.0
C1305 C 0.63452 0.68236 0.05482 0.0
H1306 H 0.60251 0.71654 0.09146 0.0
H1307 H 0.64769 0.55159 0.93375 0.0
H1308 H 0.52477 0.7849 0.91415 0.0
H1309 H 0.51941 0.81426 0.88481 0.0
H1310 H 0.52159 0.86463 0.93895 0.0
H1311 H 0.52708 0.8353 0.96848 0.0
H1312 H 0.48111 0.86867 0.90939 0.0
H1313 H 0.5681 0.861 0.90222 0.0
H1314 H 0.60693 0.84058 0.89691 0.0
H1315 H 0.58292 0.81728 0.82967 0.0
H1316 H 0.54378 0.83731 0.83472 0.0
H1317 H 0.48136 0.96254 0.8318 0.0
H1318 H 0.4883 0.93472 0.8624 0.0
H1319 H 0.49884 0.88361 0.80985 0.0
H1320 H 0.49271 0.91151 0.77918 0.0
H1321 H 0.53379 0.88079 0.83986 0.0
H1322 H 0.44667 0.88639 0.84674 0.0
H1323 H 0.40693 0.90542 0.85154 0.0
H1324 H 0.42964 0.93085 0.91836 0.0
H1325 H 0.46966 0.91221 0.91382 0.0
C1326 C 0.5246 0.80225 0.9198 0.0
C1327 C 0.52641 0.80774 0.94368 0.0
C1328 C 0.52152 0.81903 0.90299 0.0
C1329 C 0.52006 0.84165 0.90968 0.0
C1330 C 0.52264 0.84727 0.93341 0.0
C1331 C 0.526 0.83049 0.95024 0.0
C1332 C 0.5145 0.8592 0.89201 0.0
C1333 C 0.49281 0.87162 0.89437 0.0
C1334 C 0.52937 0.86253 0.87205 0.0
C1335 C 0.55291 0.8505 0.86895 0.0
C1336 C 0.57101 0.85137 0.88639 0.0
C1337 C 0.59309 0.8399 0.88341 0.0
C1338 C 0.59736 0.8276 0.86299 0.0
C1339 C 0.57958 0.8268 0.84549 0.0
C1340 C 0.55745 0.83823 0.84839 0.0
C1341 C 0.48464 0.94528 0.82675 0.0
C1342 C 0.48646 0.93927 0.80301 0.0
C1343 C 0.48862 0.92934 0.84431 0.0
C1344 C 0.49403 0.90694 0.83854 0.0
C1345 C 0.49485 0.90076 0.81483 0.0
C1346 C 0.49118 0.91673 0.79728 0.0
C1347 C 0.50019 0.89024 0.85705 0.0
C1348 C 0.52203 0.87795 0.85487 0.0
C1349 C 0.48529 0.88686 0.87705 0.0
C1350 C 0.46125 0.89809 0.87982 0.0
C1351 C 0.44326 0.89619 0.86237 0.0
C1352 C 0.42068 0.90688 0.86506 0.0
C1353 C 0.41579 0.91939 0.88521 0.0
C1354 C 0.43347 0.92118 0.90274 0.0
C1355 C 0.45609 0.91054 0.90013 0.0
H1356 H 0.39829 0.92765 0.88726 0.0
H1357 H 0.61447 0.81873 0.86072 0.0
H1358 H 0.20371 0.54143 0.93095 0.0
H1359 H 0.17318 0.53668 0.89984 0.0
H1360 H 0.14411 0.47869 0.93552 0.0
H1361 H 0.17498 0.48275 0.96574 0.0
H1362 H 0.14533 0.46923 0.89262 0.0
H1363 H 0.11632 0.53267 0.93615 0.0
H1364 H 0.11905 0.57023 0.95408 0.0
H1365 H 0.13062 0.59958 0.88642 0.0
H1366 H 0.12837 0.56212 0.86812 0.0
H1367 H 0.01973 0.50686 0.83844 0.0
H1368 H 0.05227 0.50951 0.86742 0.0
H1369 H 0.10176 0.47614 0.81987 0.0
H1370 H 0.06867 0.47259 0.79112 0.0
H1371 H 0.09162 0.5316 0.86737 0.0
H1372 H 0.14789 0.45091 0.84959 0.0
H1373 H 0.14126 0.41186 0.83669 0.0
H1374 H 0.06716 0.41449 0.86157 0.0
H1375 H 0.07345 0.45343 0.87489 0.0
C1376 C 0.19071 0.52775 0.93212 0.0
C1377 C 0.19178 0.51249 0.9508 0.0
C1378 C 0.17323 0.52504 0.91436 0.0
C1379 C 0.15612 0.50736 0.91531 0.0
C1380 C 0.15714 0.49233 0.93414 0.0
C1381 C 0.17479 0.49477 0.95154 0.0
C1382 C 0.13697 0.50434 0.89695 0.0
C1383 C 0.13365 0.48293 0.88707 0.0
C1384 C 0.12134 0.52201 0.88988 0.0
C1385 C 0.12245 0.54457 0.9008 0.0
C1386 C 0.11961 0.54712 0.92511 0.0
C1387 C 0.12106 0.56839 0.93534 0.0
C1388 C 0.12506 0.58727 0.9214 0.0
C1389 C 0.12756 0.58493 0.89719 0.0
C1390 C 0.1262 0.56368 0.88688 0.0
C1391 C 0.03743 0.49965 0.83436 0.0
C1392 C 0.04163 0.48931 0.81262 0.0
C1393 C 0.05612 0.50137 0.85087 0.0
C1394 C 0.07962 0.49309 0.84596 0.0
C1395 C 0.08374 0.48234 0.82434 0.0
C1396 C 0.06482 0.48023 0.80792 0.0
C1397 C 0.09974 0.49641 0.86329 0.0
C1398 C 0.10336 0.51792 0.87284 0.0
C1399 C 0.11499 0.47863 0.87077 0.0
C1400 C 0.11108 0.45517 0.86296 0.0
C1401 C 0.13021 0.44313 0.85235 0.0
C1402 C 0.12651 0.42102 0.84497 0.0
C1403 C 0.10378 0.41073 0.84823 0.0
C1404 C 0.08473 0.42251 0.85896 0.0
C1405 C 0.08834 0.4446 0.8664 0.0
H1406 H 0.10095 0.39362 0.84248 0.0
H1407 H 0.12618 0.60372 0.92935 0.0
H1408 H 0.55311 0.09995 0.77838 0.0
H1409 H 0.54624 0.12789 0.80914 0.0
H1410 H 0.49233 0.08478 0.84097 0.0
H1411 H 0.49913 0.05679 0.81053 0.0
H1412 H 0.475 0.12742 0.83444 0.0
H1413 H 0.5458 0.09264 0.86745 0.0
H1414 H 0.58811 0.07837 0.86799 0.0
H1415 H 0.61538 0.14462 0.85421 0.0
H1416 H 0.57318 0.15924 0.85325 0.0
H1417 H 0.45785 0.19312 0.93844 0.0
H1418 H 0.46589 0.1628 0.91045 0.0
H1419 H 0.52268 0.20252 0.87835 0.0
H1420 H 0.51493 0.23269 0.90615 0.0
H1421 H 0.53835 0.16053 0.88603 0.0
H1422 H 0.46794 0.19513 0.85155 0.0
H1423 H 0.42575 0.20967 0.85043 0.0
H1424 H 0.39789 0.14407 0.86633 0.0
H1425 H 0.43998 0.12919 0.86787 0.0
C1426 C 0.54014 0.09621 0.79217 0.0
C1427 C 0.52667 0.07609 0.79187 0.0
C1428 C 0.5362 0.11223 0.80974 0.0
C1429 C 0.51869 0.10847 0.82734 0.0
C1430 C 0.50584 0.08811 0.82753 0.0
C1431 C 0.50989 0.07204 0.81012 0.0
C1432 C 0.51284 0.1262 0.84484 0.0
C1433 C 0.48878 0.13441 0.84598 0.0
C1434 C 0.5309 0.13572 0.85951 0.0
C1435 C 0.5563 0.12699 0.86004 0.0
C1436 C 0.5608 0.10413 0.86432 0.0
C1437 C 0.58477 0.09599 0.86474 0.0
C1438 C 0.60442 0.11057 0.86107 0.0
C1439 C 0.60014 0.13334 0.85702 0.0
C1440 C 0.5762 0.14157 0.85655 0.0
C1441 C 0.47185 0.1955 0.92525 0.0
C1442 C 0.48566 0.21541 0.92455 0.0
C1443 C 0.47645 0.17814 0.90925 0.0
C1444 C 0.4949 0.18037 0.89223 0.0
C1445 C 0.50844 0.20034 0.89135 0.0
C1446 C 0.50384 0.21767 0.90723 0.0
C1447 C 0.50052 0.16182 0.87558 0.0
C1448 C 0.52454 0.15347 0.87456 0.0
C1449 C 0.48244 0.15222 0.86096 0.0
C1450 C 0.45712 0.16111 0.86009 0.0
C1451 C 0.45283 0.18385 0.85502 0.0
C1452 C 0.42893 0.19214 0.85427 0.0
C1453 C 0.40915 0.17782 0.85838 0.0
C1454 C 0.41323 0.15515 0.8632 0.0
C1455 C 0.4371 0.14678 0.864 0.0
H1456 H 0.39066 0.18427 0.85778 0.0
H1457 H 0.62296 0.10423 0.86142 0.0
H1458 H 0.93344 0.53896 0.80871 0.0
H1459 H 0.90285 0.53784 0.84022 0.0
H1460 H 0.90289 0.46561 0.83773 0.0
H1461 H 0.93392 0.46642 0.80728 0.0
H1462 H 0.85388 0.48788 0.84189 0.0
H1463 H 0.93572 0.48533 0.87601 0.0
H1464 H 0.97736 0.50068 0.8805 0.0
H1465 H 0.94759 0.56271 0.90599 0.0
H1466 H 0.90572 0.54785 0.90122 0.0
H1467 H 0.7961 0.46083 0.9499 0.0
H1468 H 0.82423 0.46145 0.91641 0.0
H1469 H 0.8451 0.52927 0.9338 0.0
H1470 H 0.81851 0.52832 0.96763 0.0
H1471 H 0.88324 0.50967 0.92078 0.0
H1472 H 0.80282 0.51499 0.88864 0.0
H1473 H 0.76005 0.50369 0.88168 0.0
H1474 H 0.78453 0.44204 0.85058 0.0
H1475 H 0.82747 0.45284 0.85769 0.0
C1476 C 0.9267 0.52285 0.81463 0.0
C1477 C 0.93614 0.50279 0.80526 0.0
C1478 C 0.90921 0.52225 0.83262 0.0
C1479 C 0.90056 0.50162 0.84119 0.0
C1480 C 0.90914 0.48168 0.83121 0.0
C1481 C 0.92694 0.48224 0.8137 0.0
C1482 C 0.8842 0.50053 0.86189 0.0
C1483 C 0.86025 0.49248 0.85921 0.0
C1484 C 0.89244 0.50697 0.88432 0.0
C1485 C 0.91761 0.51556 0.88807 0.0
C1486 C 0.93805 0.50229 0.88246 0.0
C1487 C 0.9617 0.51089 0.88504 0.0
C1488 C 0.96512 0.53268 0.89347 0.0
C1489 C 0.94491 0.54585 0.89944 0.0
C1490 C 0.92122 0.53734 0.89681 0.0
C1491 C 0.80685 0.47577 0.94667 0.0
C1492 C 0.80467 0.4946 0.96137 0.0
C1493 C 0.82281 0.4762 0.92739 0.0
C1494 C 0.83652 0.49561 0.92218 0.0
C1495 C 0.83479 0.5141 0.93726 0.0
C1496 C 0.81929 0.51354 0.95662 0.0
C1497 C 0.85252 0.49704 0.90101 0.0
C1498 C 0.87659 0.5051 0.90356 0.0
C1499 C 0.84413 0.49111 0.87836 0.0
C1500 C 0.81835 0.48461 0.87393 0.0
C1501 C 0.79908 0.49895 0.88047 0.0
C1502 C 0.77481 0.49265 0.87648 0.0
C1503 C 0.76957 0.47213 0.86575 0.0
C1504 C 0.78861 0.45791 0.85893 0.0
C1505 C 0.81292 0.46411 0.86292 0.0
H1506 H 0.75077 0.46728 0.86267 0.0
H1507 H 0.98343 0.53934 0.89541 0.0
H1508 H 0.47012 0.05456 0.17607 0.0
H1509 H 0.47624 0.08404 0.14667 0.0
H1510 H 0.52515 0.11865 0.19362 0.0
H1511 H 0.51846 0.09009 0.22302 0.0
H1512 H 0.49811 0.1478 0.17424 0.0
H1513 H 0.54524 0.08575 0.14575 0.0
H1514 H 0.55239 0.04684 0.13275 0.0
H1515 H 0.50091 0.0556 0.07685 0.0
H1516 H 0.4932 0.09449 0.08973 0.0
H1517 H 0.55019 0.22476 0.0947 0.0
H1518 H 0.5464 0.19309 0.12164 0.0
H1519 H 0.49726 0.16022 0.07357 0.0
H1520 H 0.50189 0.19118 0.04619 0.0
H1521 H 0.52397 0.12997 0.09318 0.0
H1522 H 0.47683 0.19329 0.12476 0.0
H1523 H 0.47122 0.23171 0.14022 0.0
H1524 H 0.52701 0.22021 0.19145 0.0
H1525 H 0.53273 0.18168 0.17664 0.0
C1526 C 0.48199 0.06857 0.18017 0.0
C1527 C 0.49381 0.06982 0.20197 0.0
C1528 C 0.48566 0.08534 0.16326 0.0
C1529 C 0.50149 0.10351 0.16772 0.0
C1530 C 0.51287 0.1049 0.18964 0.0
C1531 C 0.50904 0.08839 0.20651 0.0
C1532 C 0.50634 0.12126 0.14988 0.0
C1533 C 0.50399 0.14383 0.15658 0.0
C1534 C 0.51378 0.11627 0.1267 0.0
C1535 C 0.51844 0.09294 0.11886 0.0
C1536 C 0.5353 0.07932 0.1308 0.0
C1537 C 0.53948 0.05728 0.12343 0.0
C1538 C 0.52706 0.04874 0.10403 0.0
C1539 C 0.51049 0.06223 0.09191 0.0
C1540 C 0.50621 0.08428 0.09922 0.0
C1541 C 0.53898 0.21057 0.08965 0.0
C1542 C 0.52623 0.21068 0.0683 0.0
C1543 C 0.53656 0.19256 0.10523 0.0
C1544 C 0.52088 0.1745 0.10006 0.0
C1545 C 0.5093 0.17398 0.07816 0.0
C1546 C 0.51203 0.19177 0.06243 0.0
C1547 C 0.51579 0.1565 0.1176 0.0
C1548 C 0.51803 0.1339 0.11083 0.0
C1549 C 0.50863 0.16143 0.14089 0.0
C1550 C 0.50536 0.18471 0.14946 0.0
C1551 C 0.48799 0.19902 0.13923 0.0
C1552 C 0.48477 0.22078 0.14787 0.0
C1553 C 0.49888 0.22844 0.1666 0.0
C1554 C 0.51613 0.21429 0.17689 0.0
C1555 C 0.5193 0.19247 0.16846 0.0
H1556 H 0.49635 0.24529 0.17322 0.0
H1557 H 0.53032 0.03167 0.09835 0.0
H1558 H 0.95953 0.5369 0.19312 0.0
H1559 H 0.92646 0.53653 0.16489 0.0
H1560 H 0.91612 0.46571 0.17622 0.0
H1561 H 0.94915 0.46593 0.20546 0.0
H1562 H 0.91876 0.48225 0.12641 0.0
H1563 H 0.87679 0.49595 0.19943 0.0
H1564 H 0.87084 0.51573 0.23689 0.0
H1565 H 0.86051 0.57782 0.20026 0.0
H1566 H 0.86688 0.55848 0.16257 0.0
H1567 H 0.81141 0.47079 0.06261 0.0
H1568 H 0.84184 0.47015 0.09315 0.0
H1569 H 0.83702 0.5421 0.09981 0.0
H1570 H 0.80467 0.54273 0.06999 0.0
H1571 H 0.84239 0.52503 0.14122 0.0
H1572 H 0.88515 0.51469 0.06955 0.0
H1573 H 0.89401 0.49811 0.03093 0.0
H1574 H 0.90631 0.43399 0.06294 0.0
H1575 H 0.89717 0.45011 0.10173 0.0
C1576 C 0.95022 0.52117 0.18994 0.0
C1577 C 0.95687 0.50146 0.20198 0.0
C1578 C 0.93129 0.52105 0.17366 0.0
C1579 C 0.9187 0.50118 0.16865 0.0
C1580 C 0.9256 0.48126 0.17999 0.0
C1581 C 0.94442 0.48142 0.1967 0.0
C1582 C 0.89839 0.50159 0.15148 0.0
C1583 C 0.90183 0.4912 0.12975 0.0
C1584 C 0.87688 0.51423 0.15554 0.0
C1585 C 0.8725 0.52578 0.17817 0.0
C1586 C 0.87342 0.51385 0.19936 0.0
C1587 C 0.86995 0.52497 0.22064 0.0
C1588 C 0.86532 0.54801 0.22096 0.0
C1589 C 0.8641 0.55997 0.19999 0.0
C1590 C 0.86762 0.54893 0.17866 0.0
C1591 C 0.81633 0.48656 0.07071 0.0
C1592 C 0.80524 0.50683 0.06385 0.0
C1593 C 0.83416 0.48616 0.08807 0.0
C1594 C 0.8423 0.5061 0.09849 0.0
C1595 C 0.83116 0.52645 0.09197 0.0
C1596 C 0.81272 0.52681 0.07486 0.0
C1597 C 0.8625 0.5054 0.11602 0.0
C1598 C 0.85918 0.5159 0.1378 0.0
C1599 C 0.88445 0.4933 0.11181 0.0
C1600 C 0.89028 0.48358 0.08853 0.0
C1601 C 0.88961 0.49702 0.06834 0.0
C1602 C 0.89469 0.48771 0.04642 0.0
C1603 C 0.90066 0.465 0.04448 0.0
C1604 C 0.90165 0.45158 0.06447 0.0
C1605 C 0.89655 0.4608 0.08643 0.0
H1606 H 0.90458 0.45782 0.02749 0.0
H1607 H 0.86266 0.5566 0.23745 0.0
H1608 H 0.48202 0.83412 0.03983 0.0
H1609 H 0.48942 0.86426 0.06807 0.0
H1610 H 0.49589 0.81555 0.12335 0.0
H1611 H 0.48884 0.78524 0.09518 0.0
H1612 H 0.46886 0.85527 0.13618 0.0
H1613 H 0.54696 0.83401 0.10378 0.0
H1614 H 0.57612 0.82561 0.07206 0.0
H1615 H 0.56589 0.89172 0.04395 0.0
H1616 H 0.53677 0.90055 0.07572 0.0
H1617 H 0.52679 0.9187 0.22242 0.0
H1618 H 0.52089 0.88939 0.19314 0.0
H1619 H 0.52339 0.93903 0.13838 0.0
H1620 H 0.52987 0.96852 0.16767 0.0
H1621 H 0.54481 0.89968 0.12449 0.0
H1622 H 0.46904 0.92193 0.16003 0.0
H1623 H 0.44269 0.93025 0.19398 0.0
H1624 H 0.44853 0.8619 0.21682 0.0
H1625 H 0.47527 0.85323 0.18319 0.0
C1626 C 0.48451 0.8298 0.05806 0.0
C1627 C 0.48485 0.80722 0.06521 0.0
C1628 C 0.4889 0.84707 0.07416 0.0
C1629 C 0.49342 0.84215 0.09779 0.0
C1630 C 0.49246 0.81973 0.10522 0.0
C1631 C 0.48843 0.80243 0.08907 0.0
C1632 C 0.50057 0.86023 0.11441 0.0
C1633 C 0.48554 0.86486 0.13374 0.0
C1634 C 0.52213 0.87301 0.11106 0.0
C1635 C 0.53953 0.86784 0.09193 0.0
C1636 C 0.55081 0.84669 0.09073 0.0
C1637 C 0.56736 0.84187 0.07277 0.0
C1638 C 0.57272 0.85806 0.05587 0.0
C1639 C 0.56167 0.87917 0.05701 0.0
C1640 C 0.54522 0.88413 0.07504 0.0
C1641 C 0.52666 0.92336 0.20411 0.0
C1642 C 0.52861 0.94599 0.1974 0.0
C1643 C 0.52313 0.90658 0.18738 0.0
C1644 C 0.52103 0.91206 0.16359 0.0
C1645 C 0.52476 0.93441 0.15665 0.0
C1646 C 0.52856 0.95125 0.17342 0.0
C1647 C 0.51316 0.89473 0.14635 0.0
C1648 C 0.52801 0.89025 0.12688 0.0
C1649 C 0.4914 0.88211 0.14959 0.0
C1650 C 0.47429 0.88696 0.16916 0.0
C1651 C 0.46473 0.90867 0.17231 0.0
C1652 C 0.44976 0.91347 0.19151 0.0
C1653 C 0.44398 0.89663 0.20757 0.0
C1654 C 0.45303 0.87493 0.20436 0.0
C1655 C 0.46807 0.87005 0.18521 0.0
H1656 H 0.43248 0.90041 0.22249 0.0
H1657 H 0.58549 0.85427 0.04194 0.0
H1658 H 0.16322 0.50039 0.03262 0.0
H1659 H 0.13641 0.50326 0.06673 0.0
H1660 H 0.1991 0.49804 0.11222 0.0
H1661 H 0.22581 0.49381 0.07788 0.0
H1662 H 0.16213 0.47886 0.13269 0.0
H1663 H 0.17311 0.54975 0.09578 0.0
H1664 H 0.17325 0.57788 0.06419 0.0
H1665 H 0.09596 0.56884 0.0547 0.0
H1666 H 0.0954 0.54037 0.08592 0.0
H1667 H 0.09063 0.52799 0.2266 0.0
H1668 H 0.12274 0.52564 0.19633 0.0
H1669 H 0.0678 0.51102 0.14444 0.0
H1670 H 0.036 0.51279 0.1746 0.0
H1671 H 0.10474 0.54327 0.13038 0.0
H1672 H 0.09607 0.46969 0.16615 0.0
H1673 H 0.09677 0.44337 0.19937 0.0
H1674 H 0.17185 0.46021 0.21278 0.0
H1675 H 0.17145 0.48697 0.17988 0.0
C1676 C 0.17112 0.49912 0.04995 0.0
C1677 C 0.19647 0.49666 0.05272 0.0
C1678 C 0.15587 0.50111 0.06945 0.0
C1679 C 0.16575 0.50164 0.09213 0.0
C1680 C 0.19099 0.49784 0.09496 0.0
C1681 C 0.20623 0.49525 0.07536 0.0
C1682 C 0.14985 0.50726 0.11258 0.0
C1683 C 0.14991 0.49317 0.13228 0.0
C1684 C 0.13381 0.52598 0.11227 0.0
C1685 C 0.13423 0.54284 0.09316 0.0
C1686 C 0.15617 0.55362 0.08684 0.0
C1687 C 0.15633 0.56964 0.069 0.0
C1688 C 0.13461 0.57518 0.05752 0.0
C1689 C 0.11275 0.56457 0.06367 0.0
C1690 C 0.1125 0.54849 0.08143 0.0
C1691 C 0.08549 0.52487 0.2086 0.0
C1692 C 0.06093 0.5209 0.20274 0.0
C1693 C 0.10378 0.5233 0.19142 0.0
C1694 C 0.09762 0.51807 0.16817 0.0
C1695 C 0.07293 0.51514 0.16223 0.0
C1696 C 0.05481 0.51624 0.17941 0.0
C1697 C 0.11669 0.5146 0.14999 0.0
C1698 C 0.11724 0.52915 0.13078 0.0
C1699 C 0.13348 0.49656 0.15094 0.0
C1700 C 0.13365 0.48052 0.17072 0.0
C1701 C 0.11265 0.46796 0.17633 0.0
C1702 C 0.11302 0.4529 0.19505 0.0
C1703 C 0.13435 0.45009 0.20815 0.0
C1704 C 0.15534 0.46238 0.2026 0.0
C1705 C 0.15506 0.4775 0.18393 0.0
H1706 H 0.13461 0.43842 0.22263 0.0
H1707 H 0.13463 0.58776 0.04392 0.0
H1708 H 0.7995 0.92923 0.48086 0.0
H1709 H 0.83199 0.90161 0.47843 0.0
H1710 H 0.85476 0.91818 0.54851 0.0
H1711 H 0.82195 0.94633 0.55114 0.0
H1712 H 0.8939 0.91337 0.51792 0.0
H1713 H 0.82228 0.87108 0.53873 0.0
H1714 H 0.7794 0.85883 0.53468 0.0
H1715 H 0.79477 0.83336 0.46595 0.0
H1716 H 0.83769 0.84575 0.46945 0.0
H1717 H 0.96691 0.81889 0.53901 0.0
H1718 H 0.93572 0.84768 0.53944 0.0
H1719 H 0.91151 0.82692 0.471 0.0
H1720 H 0.94271 0.79722 0.47062 0.0
H1721 H 0.87318 0.83418 0.49967 0.0
H1722 H 0.94465 0.87542 0.47863 0.0
H1723 H 0.9875 0.88793 0.48185 0.0
H1724 H 0.97266 0.91572 0.54971 0.0
H1725 H 0.92977 0.90307 0.54706 0.0
C1726 C 0.81126 0.92707 0.4959 0.0
C1727 C 0.80783 0.93991 0.51636 0.0
C1728 C 0.82989 0.91118 0.49443 0.0
C1729 C 0.84558 0.90751 0.5134 0.0
C1730 C 0.84275 0.92065 0.53369 0.0
C1731 C 0.82397 0.93668 0.5352 0.0
C1732 C 0.86474 0.88983 0.51183 0.0
C1733 C 0.88937 0.89599 0.51429 0.0
C1734 C 0.85888 0.86727 0.50629 0.0
C1735 C 0.83316 0.85952 0.50428 0.0
C1736 C 0.81649 0.863 0.52269 0.0
C1737 C 0.79218 0.85602 0.5205 0.0
C1738 C 0.78435 0.84538 0.50005 0.0
C1739 C 0.80085 0.84163 0.48177 0.0
C1740 C 0.82518 0.8486 0.48386 0.0
C1741 C 0.95508 0.82029 0.52392 0.0
C1742 C 0.95742 0.80557 0.50474 0.0
C1743 C 0.93726 0.83699 0.52418 0.0
C1744 C 0.92145 0.83978 0.50513 0.0
C1745 C 0.92359 0.82516 0.48588 0.0
C1746 C 0.94148 0.80824 0.48564 0.0
C1747 C 0.90242 0.85766 0.50587 0.0
C1748 C 0.87777 0.85155 0.50325 0.0
C1749 C 0.90829 0.88029 0.51114 0.0
C1750 C 0.93402 0.88813 0.51271 0.0
C1751 C 0.95055 0.88406 0.49431 0.0
C1752 C 0.97485 0.8912 0.49603 0.0
C1753 C 0.98281 0.90257 0.51599 0.0
C1754 C 0.96647 0.90689 0.53426 0.0
C1755 C 0.94215 0.89976 0.53265 0.0
H1756 H 1.00163 0.90808 0.51729 0.0
H1757 H 0.76552 0.84 0.49838 0.0
H1758 H 0.92653 0.21927 0.53184 0.0
H1759 H 0.89395 0.19102 0.52843 0.0
H1760 H 0.93857 0.15318 0.48016 0.0
H1761 H 0.97044 0.18149 0.48284 0.0
H1762 H 0.89544 0.15514 0.46341 0.0
H1763 H 0.92786 0.13742 0.53923 0.0
H1764 H 0.94017 0.14517 0.57992 0.0
H1765 H 0.86631 0.16339 0.59709 0.0
H1766 H 0.85363 0.15607 0.55639 0.0
H1767 H 0.83072 0.05035 0.46618 0.0
H1768 H 0.8613 0.08028 0.46969 0.0
H1769 H 0.8102 0.12012 0.50944 0.0
H1770 H 0.77961 0.09059 0.50588 0.0
H1771 H 0.85508 0.11796 0.53071 0.0
H1772 H 0.82322 0.13402 0.45412 0.0
H1773 H 0.81192 0.12523 0.41339 0.0
H1774 H 0.88657 0.10838 0.39789 0.0
H1775 H 0.89825 0.11678 0.43864 0.0
C1776 C 0.9294 0.20478 0.52073 0.0
C1777 C 0.95101 0.20268 0.50758 0.0
C1778 C 0.9108 0.18861 0.51878 0.0
C1779 C 0.91374 0.16982 0.50406 0.0
C1780 C 0.93564 0.16753 0.49146 0.0
C1781 C 0.95395 0.18376 0.49311 0.0
C1782 C 0.89399 0.15274 0.50102 0.0
C1783 C 0.88688 0.14684 0.47819 0.0
C1784 C 0.8823 0.14215 0.5202 0.0
C1785 C 0.88986 0.14643 0.5447 0.0
C1786 C 0.91428 0.14324 0.55164 0.0
C1787 C 0.92132 0.14753 0.57471 0.0
C1788 C 0.90405 0.15482 0.59107 0.0
C1789 C 0.87968 0.15777 0.5844 0.0
C1790 C 0.87255 0.15355 0.56133 0.0
C1791 C 0.82586 0.0656 0.47538 0.0
C1792 C 0.80268 0.06793 0.48584 0.0
C1793 C 0.84339 0.0827 0.47741 0.0
C1794 C 0.83808 0.10245 0.48992 0.0
C1795 C 0.8148 0.105 0.49987 0.0
C1796 C 0.79728 0.08804 0.49774 0.0
C1797 C 0.85689 0.12026 0.49316 0.0
C1798 C 0.86372 0.12631 0.51601 0.0
C1799 C 0.86854 0.13081 0.47401 0.0
C1800 C 0.86156 0.12582 0.44949 0.0
C1801 C 0.83719 0.12827 0.44208 0.0
C1802 C 0.83072 0.12339 0.41898 0.0
C1803 C 0.8485 0.11619 0.40308 0.0
C1804 C 0.87281 0.11392 0.41024 0.0
C1805 C 0.87936 0.11876 0.43332 0.0
H1806 H 0.84346 0.11242 0.38521 0.0
H1807 H 0.90953 0.15814 0.60892 0.0
H1808 H 0.05896 0.80766 0.47626 0.0
H1809 H 0.09142 0.83533 0.47397 0.0
H1810 H 0.10446 0.82871 0.5479 0.0
H1811 H 0.07213 0.79997 0.55042 0.0
H1812 H 0.09429 0.8782 0.51264 0.0
H1813 H 0.14699 0.81396 0.53695 0.0
H1814 H 0.15836 0.77409 0.53283 0.0
H1815 H 0.16977 0.7834 0.45915 0.0
H1816 H 0.15813 0.82327 0.46285 0.0
H1817 H 0.19733 0.95004 0.51589 0.0
H1818 H 0.16536 0.92257 0.52293 0.0
H1819 H 0.18768 0.88597 0.46132 0.0
H1820 H 0.22093 0.91291 0.455 0.0
H1821 H 0.17968 0.85741 0.4927 0.0
H1822 H 0.13242 0.91943 0.46588 0.0
H1823 H 0.11763 0.95847 0.46414 0.0
H1824 H 0.09191 0.95368 0.53495 0.0
H1825 H 0.10684 0.9147 0.53722 0.0
C1826 C 0.06881 0.81169 0.49212 0.0
C1827 C 0.06304 0.8012 0.51353 0.0
C1828 C 0.08734 0.82769 0.49071 0.0
C1829 C 0.10041 0.83392 0.51068 0.0
C1830 C 0.09465 0.8239 0.53224 0.0
C1831 C 0.07622 0.8075 0.53364 0.0
C1832 C 0.11985 0.85113 0.50847 0.0
C1833 C 0.11315 0.87381 0.50889 0.0
C1834 C 0.144 0.84523 0.50227 0.0
C1835 C 0.15149 0.82147 0.50015 0.0
C1836 C 0.15174 0.80743 0.51986 0.0
C1837 C 0.15827 0.78486 0.51761 0.0
C1838 C 0.16472 0.7762 0.49573 0.0
C1839 C 0.16474 0.79012 0.47608 0.0
C1840 C 0.15821 0.8127 0.47825 0.0
C1841 C 0.19525 0.93639 0.50354 0.0
C1842 C 0.21166 0.9338 0.48473 0.0
C1843 C 0.1768 0.92062 0.50759 0.0
C1844 C 0.17368 0.90222 0.49251 0.0
C1845 C 0.18963 0.89994 0.4733 0.0
C1846 C 0.20853 0.91547 0.46955 0.0
C1847 C 0.15447 0.88495 0.49738 0.0
C1848 C 0.16105 0.86213 0.497 0.0
C1849 C 0.12999 0.89078 0.50311 0.0
C1850 C 0.12098 0.91422 0.5018 0.0
C1851 C 0.12378 0.92676 0.48114 0.0
C1852 C 0.11534 0.94887 0.48005 0.0
C1853 C 0.1039 0.95857 0.49945 0.0
C1854 C 0.10081 0.94616 0.51996 0.0
C1855 C 0.10924 0.92405 0.52115 0.0
H1856 H 0.09739 0.97568 0.49857 0.0
H1857 H 0.16974 0.75872 0.49401 0.0
H1858 H 0.07682 0.21743 0.46865 0.0
H1859 H 0.11059 0.1904 0.47139 0.0
H1860 H 0.07553 0.15923 0.5307 0.0
H1861 H 0.04241 0.18622 0.52847 0.0
H1862 H 0.12165 0.16431 0.53982 0.0
H1863 H 0.07566 0.13559 0.47468 0.0
H1864 H 0.05566 0.13757 0.43611 0.0
H1865 H 0.12468 0.15261 0.40376 0.0
H1866 H 0.14504 0.15107 0.44221 0.0
H1867 H 0.18992 0.06183 0.54398 0.0
H1868 H 0.15741 0.09001 0.54074 0.0
H1869 H 0.19655 0.12204 0.48438 0.0
H1870 H 0.22878 0.09408 0.48733 0.0
H1871 H 0.14924 0.11711 0.47338 0.0
H1872 H 0.19505 0.1451 0.53905 0.0
H1873 H 0.21453 0.14297 0.57785 0.0
H1874 H 0.14495 0.12857 0.60941 0.0
H1875 H 0.1251 0.13031 0.57073 0.0
C1876 C 0.07628 0.20471 0.48215 0.0
C1877 C 0.0569 0.20407 0.49833 0.0
C1878 C 0.09556 0.18923 0.4837 0.0
C1879 C 0.0956 0.17265 0.50123 0.0
C1880 C 0.07608 0.17189 0.51713 0.0
C1881 C 0.05704 0.18737 0.51574 0.0
C1882 C 0.11598 0.15619 0.50348 0.0
C1883 C 0.12746 0.15382 0.52532 0.0
C1884 C 0.12399 0.14275 0.48452 0.0
C1885 C 0.11183 0.14345 0.46136 0.0
C1886 C 0.08655 0.13948 0.45936 0.0
C1887 C 0.07515 0.1405 0.43752 0.0
C1888 C 0.08888 0.14527 0.4175 0.0
C1889 C 0.11406 0.14896 0.41928 0.0
C1890 C 0.12554 0.148 0.4411 0.0
C1891 C 0.1917 0.075 0.53106 0.0
C1892 C 0.21203 0.07564 0.51596 0.0
C1893 C 0.17311 0.09111 0.52921 0.0
C1894 C 0.17455 0.10822 0.51233 0.0
C1895 C 0.19494 0.10899 0.49746 0.0
C1896 C 0.21346 0.09298 0.49928 0.0
C1897 C 0.15473 0.12516 0.50975 0.0
C1898 C 0.1434 0.12762 0.48785 0.0
C1899 C 0.14674 0.1386 0.52869 0.0
C1900 C 0.15864 0.13762 0.55196 0.0
C1901 C 0.18394 0.1413 0.55424 0.0
C1902 C 0.19504 0.1402 0.57622 0.0
C1903 C 0.181 0.13558 0.59608 0.0
C1904 C 0.15581 0.13212 0.59401 0.0
C1905 C 0.14462 0.13318 0.57206 0.0
H1906 H 0.18963 0.13474 0.61308 0.0
H1907 H 0.08002 0.14606 0.40061 0.0
loop_
_geom_bond_atom_site_label_1
_geom_bond_atom_site_label_2
_geom_bond_distance
_geom_bond_site_symmetry_2
_ccdc_geom_bond_type
Co0 O2 2.143 . S
Co0 O8 2.074 . S
Co0 O11 2.093 1_455 S
Co0 O24 2.097 1_455 S
Co0 N41 2.151 . S
Co0 N49 2.214 . S
Co1 O2 2.160 1_655 S
Co1 O7 2.058 1_655 S
Co1 O17 2.057 1_655 S
Co1 O32 2.037 . S
Co1 N36 2.145 . S
Co1 N57 2.257 . S
O2 Co0 2.143 . S
O2 Co1 2.160 1_455 S
C3 O4 1.278 . S
C3 O11 1.224 . S
O4 C3 1.278 . S
C5 O6 1.245 . S
C5 O17 1.232 . S
O6 C5 1.245 . S
O7 Co1 2.058 1_455 S
O7 C33 1.269 . S
O8 Co0 2.074 . S
O8 C33 1.257 . S
H9 C34 0.930 . S
H10 C40 0.930 . S
O11 Co0 2.093 1_655 S
O11 C3 1.224 . S
H12 C44 0.929 . S
H13 C46 0.930 . S
H14 C47 0.930 . S
H15 C45 0.929 . S
H16 C48 0.928 . S
O17 Co1 2.057 1_455 S
O17 C5 1.232 . S
H18 C37 0.929 . S
H19 C38 0.929 . S
H20 C50 0.931 . S
H21 C42 0.929 . S
H22 C51 0.930 . S
H23 C43 0.931 . S
O24 Co0 2.097 1_655 S
O24 C52 1.214 . S
H25 C53 0.929 . S
H26 C54 0.929 . S
H27 C55 0.930 . S
H28 C56 0.929 . S
H29 C58 0.930 . S
H30 C35 0.930 . S
H31 C39 0.930 . S
O32 Co1 2.037 . S
O32 C52 1.234 . S
C33 O7 1.269 . S
C33 O8 1.257 . S
C34 H9 0.930 . S
C34 C37 1.388 . S
C34 C39 1.418 . S
C35 H30 0.930 . S
C35 C38 1.404 . S
C35 C39 1.353 . S
N36 Co1 2.145 . S
N36 C37 1.397 . S
N36 C38 1.334 . S
C37 H18 0.929 . S
C37 C34 1.388 . S
C37 N36 1.397 . S
C38 H19 0.929 . S
C38 C35 1.404 . S
C38 N36 1.334 . S
C39 H31 0.930 . S
C39 C34 1.418 . S
C39 C35 1.353 . S
C40 H10 0.930 . S
C40 N41 1.330 . S
C40 C42 1.446 . S
N41 Co0 2.151 . S
N41 C40 1.330 . S
N41 C45 1.418 . S
C42 H21 0.929 . S
C42 C40 1.446 . S
C42 C43 1.332 . S
C43 H23 0.931 . S
C43 C42 1.332 . S
C43 C44 1.267 . S
C44 H12 0.929 . S
C44 C43 1.267 . S
C44 C45 1.251 . S
C45 H15 0.929 . S
C45 N41 1.418 . S
C45 C44 1.251 . S
C46 H13 0.930 . S
C46 C48 1.406 . S
C46 C51 1.261 . S
C47 H14 0.930 . S
C47 N49 1.325 . S
C47 C50 1.357 . S
C48 H16 0.928 . S
C48 C46 1.406 . S
C48 N49 1.261 . S
N49 Co0 2.214 . S
N49 C47 1.325 . S
N49 C48 1.261 . S
C50 H20 0.931 . S
C50 C47 1.357 . S
C50 C51 1.312 . S
C51 H22 0.930 . S
C51 C46 1.261 . S
C51 C50 1.312 . S
C52 O24 1.214 . S
C52 O32 1.234 . S
C53 H25 0.929 . S
C53 C56 1.391 . S
C53 C58 1.391 . S
C54 H26 0.929 . S
C54 C55 1.390 . S
C54 N57 1.391 . S
C55 H27 0.930 . S
C55 C54 1.390 . S
C55 C56 1.392 . S
C56 H28 0.929 . S
C56 C53 1.391 . S
C56 C55 1.392 . S
N57 Co1 2.257 . S
N57 C54 1.391 . S
N57 C58 1.388 . S
C58 H29 0.930 . S
C58 C53 1.391 . S
C58 N57 1.388 . S
Co59 O61 2.143 . S
Co59 O67 2.074 . S
Co59 O70 2.093 . S
Co59 O83 2.097 . S
Co59 N100 2.151 . S
Co59 N108 2.214 . S
Co60 O61 2.160 1_565 S
Co60 O66 2.058 . S
Co60 O76 2.057 . S
Co60 O91 2.037 . S
Co60 N95 2.145 . S
Co60 N116 2.257 . S
O61 Co59 2.143 . S
O61 Co60 2.160 1_545 S
C62 O63 1.278 . S
C62 O70 1.224 . S
O63 C62 1.278 . S
C64 O65 1.245 . S
C64 O76 1.232 . S
O65 C64 1.245 . S
O66 Co60 2.058 . S
O66 C92 1.269 . S
O67 Co59 2.074 . S
O67 C92 1.257 1_545 S
H68 C93 0.930 . S
H69 C99 0.930 . S
O70 Co59 2.093 . S
O70 C62 1.224 . S
H71 C103 0.929 . S
H72 C105 0.930 . S
H73 C106 0.930 . S
H74 C104 0.929 . S
H75 C107 0.928 . S
O76 Co60 2.057 . S
O76 C64 1.232 . S
H77 C96 0.929 . S
H78 C97 0.929 . S
H79 C109 0.931 . S
H80 C101 0.929 . S
H81 C110 0.930 . S
H82 C102 0.931 . S
O83 Co59 2.097 . S
O83 C111 1.214 . S
H84 C112 0.929 . S
H85 C113 0.929 . S
H86 C114 0.930 . S
H87 C115 0.929 . S
H88 C117 0.930 . S
H89 C94 0.930 . S
H90 C98 0.930 . S
O91 Co60 2.037 . S
O91 C111 1.234 1_565 S
C92 O66 1.269 . S
C92 O67 1.257 1_565 S
C93 H68 0.930 . S
C93 C96 1.388 . S
C93 C98 1.418 . S
C94 H89 0.930 . S
C94 C97 1.404 . S
C94 C98 1.353 . S
N95 Co60 2.145 . S
N95 C96 1.397 . S
N95 C97 1.334 . S
C96 H77 0.929 . S
C96 C93 1.388 . S
C96 N95 1.397 . S
C97 H78 0.929 . S
C97 C94 1.404 . S
C97 N95 1.334 . S
C98 H90 0.930 . S
C98 C93 1.418 . S
C98 C94 1.353 . S
C99 H69 0.930 . S
C99 N100 1.330 . S
C99 C101 1.446 . S
N100 Co59 2.151 . S
N100 C99 1.330 . S
N100 C104 1.418 . S
C101 H80 0.929 . S
C101 C99 1.446 . S
C101 C102 1.332 . S
C102 H82 0.931 . S
C102 C101 1.332 . S
C102 C103 1.267 . S
C103 H71 0.929 . S
C103 C102 1.267 . S
C103 C104 1.251 . S
C104 H74 0.929 . S
C104 N100 1.418 . S
C104 C103 1.251 . S
C105 H72 0.930 . S
C105 C107 1.406 . S
C105 C110 1.261 . S
C106 H73 0.930 . S
C106 N108 1.325 . S
C106 C109 1.357 . S
C107 H75 0.928 . S
C107 C105 1.406 . S
C107 N108 1.261 . S
N108 Co59 2.214 . S
N108 C106 1.325 . S
N108 C107 1.261 . S
C109 H79 0.931 . S
C109 C106 1.357 . S
C109 C110 1.312 . S
C110 H81 0.930 . S
C110 C105 1.261 . S
C110 C109 1.312 . S
C111 O83 1.214 . S
C111 O91 1.234 1_545 S
C112 H84 0.929 . S
C112 C115 1.391 . S
C112 C117 1.391 . S
C113 H85 0.929 . S
C113 C114 1.390 . S
C113 N116 1.391 . S
C114 H86 0.930 . S
C114 C113 1.390 . S
C114 C115 1.392 . S
C115 H87 0.929 . S
C115 C112 1.391 . S
C115 C114 1.392 . S
N116 Co60 2.257 . S
N116 C113 1.391 . S
N116 C117 1.388 . S
C117 H88 0.930 . S
C117 C112 1.391 . S
C117 N116 1.388 . S
Co118 O120 2.143 . S
Co118 O126 2.074 . S
Co118 O129 2.093 1_455 S
Co118 O142 2.097 1_455 S
Co118 N159 2.151 . S
Co118 N167 2.214 . S
Co119 O120 2.160 1_655 S
Co119 O125 2.058 1_655 S
Co119 O135 2.057 1_655 S
Co119 O150 2.037 . S
Co119 N154 2.145 . S
Co119 N175 2.257 . S
O120 Co118 2.143 . S
O120 Co119 2.160 1_455 S
C121 O122 1.278 . S
C121 O129 1.224 . S
O122 C121 1.278 . S
C123 O124 1.245 . S
C123 O135 1.232 . S
O124 C123 1.245 . S
O125 Co119 2.058 1_455 S
O125 C151 1.269 . S
O126 Co118 2.074 . S
O126 C151 1.257 . S
H127 C152 0.930 . S
H128 C158 0.930 . S
O129 Co118 2.093 1_655 S
O129 C121 1.224 . S
H130 C162 0.929 . S
H131 C164 0.930 . S
H132 C165 0.930 . S
H133 C163 0.929 . S
H134 C166 0.928 . S
O135 Co119 2.057 1_455 S
O135 C123 1.232 . S
H136 C155 0.929 . S
H137 C156 0.929 . S
H138 C168 0.931 . S
H139 C160 0.929 . S
H140 C169 0.930 . S
H141 C161 0.931 . S
O142 Co118 2.097 1_655 S
O142 C170 1.214 . S
H143 C171 0.929 . S
H144 C172 0.929 . S
H145 C173 0.930 . S
H146 C174 0.929 . S
H147 C176 0.930 . S
H148 C153 0.930 . S
H149 C157 0.930 . S
O150 Co119 2.037 . S
O150 C170 1.234 . S
C151 O125 1.269 . S
C151 O126 1.257 . S
C152 H127 0.930 . S
C152 C155 1.388 . S
C152 C157 1.418 . S
C153 H148 0.930 . S
C153 C156 1.404 . S
C153 C157 1.353 . S
N154 Co119 2.145 . S
N154 C155 1.397 . S
N154 C156 1.334 . S
C155 H136 0.929 . S
C155 C152 1.388 . S
C155 N154 1.397 . S
C156 H137 0.929 . S
C156 C153 1.404 . S
C156 N154 1.334 . S
C157 H149 0.930 . S
C157 C152 1.418 . S
C157 C153 1.353 . S
C158 H128 0.930 . S
C158 N159 1.330 . S
C158 C160 1.446 . S
N159 Co118 2.151 . S
N159 C158 1.330 . S
N159 C163 1.418 . S
C160 H139 0.929 . S
C160 C158 1.446 . S
C160 C161 1.332 . S
C161 H141 0.931 . S
C161 C160 1.332 . S
C161 C162 1.267 . S
C162 H130 0.929 . S
C162 C161 1.267 . S
C162 C163 1.251 . S
C163 H133 0.929 . S
C163 N159 1.418 . S
C163 C162 1.251 . S
C164 H131 0.930 . S
C164 C166 1.406 . S
C164 C169 1.261 . S
C165 H132 0.930 . S
C165 N167 1.325 . S
C165 C168 1.357 . S
C166 H134 0.928 . S
C166 C164 1.406 . S
C166 N167 1.261 . S
N167 Co118 2.214 . S
N167 C165 1.325 . S
N167 C166 1.261 . S
C168 H138 0.931 . S
C168 C165 1.357 . S
C168 C169 1.312 . S
C169 H140 0.930 . S
C169 C164 1.261 . S
C169 C168 1.312 . S
C170 O142 1.214 . S
C170 O150 1.234 . S
C171 H143 0.929 . S
C171 C174 1.391 . S
C171 C176 1.391 . S
C172 H144 0.929 . S
C172 C173 1.390 . S
C172 N175 1.391 . S
C173 H145 0.930 . S
C173 C172 1.390 . S
C173 C174 1.392 . S
C174 H146 0.929 . S
C174 C171 1.391 . S
C174 C173 1.392 . S
N175 Co119 2.257 . S
N175 C172 1.391 . S
N175 C176 1.388 . S
C176 H147 0.930 . S
C176 C171 1.391 . S
C176 N175 1.388 . S
Co177 O179 2.163 . S
Co177 O185 2.074 . S
Co177 O188 2.093 . S
Co177 O201 2.097 . S
Co177 N218 2.151 . S
Co177 N226 2.214 . S
Co178 O179 2.139 1_545 S
Co178 O184 2.058 . S
Co178 O194 2.057 . S
Co178 O209 2.037 . S
Co178 N213 2.145 . S
Co178 N234 2.257 . S
O179 Co177 2.163 . S
O179 Co178 2.139 1_565 S
C180 O181 1.278 . S
C180 O188 1.224 . S
O181 C180 1.278 . S
C182 O183 1.245 . S
C182 O194 1.232 . S
O183 C182 1.245 . S
O184 Co178 2.058 . S
O184 C210 1.269 . S
O185 Co177 2.074 . S
O185 C210 1.257 1_565 S
H186 C211 0.930 . S
H187 C217 0.930 . S
O188 Co177 2.093 . S
O188 C180 1.224 . S
H189 C221 0.929 . S
H190 C223 0.930 . S
H191 C224 0.930 . S
H192 C222 0.929 . S
H193 C225 0.928 . S
O194 Co178 2.057 . S
O194 C182 1.232 . S
H195 C214 0.929 . S
H196 C215 0.929 . S
H197 C227 0.931 . S
H198 C219 0.929 . S
H199 C228 0.930 . S
H200 C220 0.931 . S
O201 Co177 2.097 . S
O201 C229 1.214 . S
H202 C230 0.929 . S
H203 C231 0.929 . S
H204 C232 0.930 . S
H205 C233 0.929 . S
H206 C235 0.930 . S
H207 C212 0.930 . S
H208 C216 0.930 . S
O209 Co178 2.037 . S
O209 C229 1.234 1_545 S
C210 O184 1.269 . S
C210 O185 1.257 1_545 S
C211 H186 0.930 . S
C211 C214 1.388 . S
C211 C216 1.418 . S
C212 H207 0.930 . S
C212 C215 1.404 . S
C212 C216 1.353 . S
N213 Co178 2.145 . S
N213 C214 1.397 . S
N213 C215 1.334 . S
C214 H195 0.929 . S
C214 C211 1.388 . S
C214 N213 1.397 . S
C215 H196 0.929 . S
C215 C212 1.404 . S
C215 N213 1.334 . S
C216 H208 0.930 . S
C216 C211 1.418 . S
C216 C212 1.353 . S
C217 H187 0.930 . S
C217 N218 1.330 . S
C217 C219 1.446 . S
N218 Co177 2.151 . S
N218 C217 1.330 . S
N218 C222 1.418 . S
C219 H198 0.929 . S
C219 C217 1.446 . S
C219 C220 1.332 . S
C220 H200 0.931 . S
C220 C219 1.332 . S
C220 C221 1.267 . S
C221 H189 0.929 . S
C221 C220 1.267 . S
C221 C222 1.251 . S
C222 H192 0.929 . S
C222 N218 1.418 . S
C222 C221 1.251 . S
C223 H190 0.930 . S
C223 C225 1.406 . S
C223 C228 1.261 . S
C224 H191 0.930 . S
C224 N226 1.325 . S
C224 C227 1.357 . S
C225 H193 0.928 . S
C225 C223 1.406 . S
C225 N226 1.261 . S
N226 Co177 2.214 . S
N226 C224 1.325 . S
N226 C225 1.261 . S
C227 H197 0.931 . S
C227 C224 1.357 . S
C227 C228 1.312 . S
C228 H199 0.930 . S
C228 C223 1.261 . S
C228 C227 1.312 . S
C229 O201 1.214 . S
C229 O209 1.234 1_565 S
C230 H202 0.929 . S
C230 C233 1.391 . S
C230 C235 1.391 . S
C231 H203 0.929 . S
C231 C232 1.390 . S
C231 N234 1.391 . S
C232 H204 0.930 . S
C232 C231 1.390 . S
C232 C233 1.392 . S
C233 H205 0.929 . S
C233 C230 1.391 . S
C233 C232 1.392 . S
N234 Co178 2.257 . S
N234 C231 1.391 . S
N234 C235 1.388 . S
C235 H206 0.930 . S
C235 C230 1.391 . S
C235 N234 1.388 . S
Co236 O238 2.172 . S
Co236 O244 2.074 . S
Co236 O247 2.093 . S
Co236 O260 2.097 . S
Co236 N277 2.151 . S
Co236 N285 2.214 . S
Co237 O238 2.131 1_545 S
Co237 O243 2.058 . S
Co237 O253 2.057 . S
Co237 O268 2.037 . S
Co237 N272 2.145 . S
Co237 N293 2.257 . S
O238 Co236 2.172 . S
O238 Co237 2.131 1_565 S
C239 O240 1.278 . S
C239 O247 1.224 . S
O240 C239 1.278 . S
C241 O242 1.245 . S
C241 O253 1.232 . S
O242 C241 1.245 . S
O243 Co237 2.058 . S
O243 C269 1.269 . S
O244 Co236 2.074 . S
O244 C269 1.257 1_565 S
H245 C270 0.930 . S
H246 C276 0.930 . S
O247 Co236 2.093 . S
O247 C239 1.224 . S
H248 C280 0.929 . S
H249 C282 0.930 . S
H250 C283 0.930 . S
H251 C281 0.929 . S
H252 C284 0.928 . S
O253 Co237 2.057 . S
O253 C241 1.232 . S
H254 C273 0.929 . S
H255 C274 0.929 . S
H256 C286 0.931 . S
H257 C278 0.929 . S
H258 C287 0.930 . S
H259 C279 0.931 . S
O260 Co236 2.097 . S
O260 C288 1.214 . S
H261 C289 0.929 . S
H262 C290 0.929 . S
H263 C291 0.930 . S
H264 C292 0.929 . S
H265 C294 0.930 . S
H266 C271 0.930 . S
H267 C275 0.930 . S
O268 Co237 2.037 . S
O268 C288 1.234 1_545 S
C269 O243 1.269 . S
C269 O244 1.257 1_545 S
C270 H245 0.930 . S
C270 C273 1.388 . S
C270 C275 1.418 . S
C271 H266 0.930 . S
C271 C274 1.404 . S
C271 C275 1.353 . S
N272 Co237 2.145 . S
N272 C273 1.397 . S
N272 C274 1.334 . S
C273 H254 0.929 . S
C273 C270 1.388 . S
C273 N272 1.397 . S
C274 H255 0.929 . S
C274 C271 1.404 . S
C274 N272 1.334 . S
C275 H267 0.930 . S
C275 C270 1.418 . S
C275 C271 1.353 . S
C276 H246 0.930 . S
C276 N277 1.330 . S
C276 C278 1.446 . S
N277 Co236 2.151 . S
N277 C276 1.330 . S
N277 C281 1.418 . S
C278 H257 0.929 . S
C278 C276 1.446 . S
C278 C279 1.332 . S
C279 H259 0.931 . S
C279 C278 1.332 . S
C279 C280 1.267 . S
C280 H248 0.929 . S
C280 C279 1.267 . S
C280 C281 1.251 . S
C281 H251 0.929 . S
C281 N277 1.418 . S
C281 C280 1.251 . S
C282 H249 0.930 . S
C282 C284 1.406 . S
C282 C287 1.261 . S
C283 H250 0.930 . S
C283 N285 1.325 . S
C283 C286 1.357 . S
C284 H252 0.928 . S
C284 C282 1.406 . S
C284 N285 1.261 . S
N285 Co236 2.214 . S
N285 C283 1.325 . S
N285 C284 1.261 . S
C286 H256 0.931 . S
C286 C283 1.357 . S
C286 C287 1.312 . S
C287 H258 0.930 . S
C287 C282 1.261 . S
C287 C286 1.312 . S
C288 O260 1.214 . S
C288 O268 1.234 1_565 S
C289 H261 0.929 . S
C289 C292 1.391 . S
C289 C294 1.391 . S
C290 H262 0.929 . S
C290 C291 1.390 . S
C290 N293 1.391 . S
C291 H263 0.930 . S
C291 C290 1.390 . S
C291 C292 1.392 . S
C292 H264 0.929 . S
C292 C289 1.391 . S
C292 C291 1.392 . S
N293 Co237 2.257 . S
N293 C290 1.391 . S
N293 C294 1.388 . S
C294 H265 0.930 . S
C294 C289 1.391 . S
C294 N293 1.388 . S
Co295 O297 2.143 . S
Co295 O303 2.074 . S
Co295 O306 2.093 1_655 S
Co295 O319 2.097 1_655 S
Co295 N336 2.151 . S
Co295 N344 2.214 . S
Co296 O297 2.160 1_455 S
Co296 O302 2.058 1_455 S
Co296 O312 2.045 1_455 S
Co296 O327 2.037 . S
Co296 N331 2.145 . S
Co296 N352 2.257 . S
O297 Co295 2.143 . S
O297 Co296 2.160 1_655 S
C298 O299 1.278 . S
C298 O306 1.224 . S
O299 C298 1.278 . S
C300 O301 1.245 . S
C300 O312 1.257 . S
O301 C300 1.245 . S
O302 Co296 2.058 1_655 S
O302 C328 1.269 . S
O303 Co295 2.074 . S
O303 C328 1.257 . S
H304 C329 0.930 . S
H305 C335 0.930 . S
O306 Co295 2.093 1_455 S
O306 C298 1.224 . S
H307 C339 0.929 . S
H308 C341 0.930 . S
H309 C342 0.930 . S
H310 C340 0.929 . S
H311 C343 0.928 . S
O312 Co296 2.045 1_655 S
O312 C300 1.257 . S
H313 C332 0.929 . S
H314 C333 0.929 . S
H315 C345 0.931 . S
H316 C337 0.929 . S
H317 C346 0.930 . S
H318 C338 0.931 . S
O319 Co295 2.097 1_455 S
O319 C347 1.214 . S
H320 C348 0.929 . S
H321 C349 0.929 . S
H322 C350 0.930 . S
H323 C351 0.929 . S
H324 C353 0.930 . S
H325 C330 0.930 . S
H326 C334 0.930 . S
O327 Co296 2.037 . S
O327 C347 1.234 . S
C328 O302 1.269 . S
C328 O303 1.257 . S
C329 H304 0.930 . S
C329 C332 1.388 . S
C329 C334 1.418 . S
C330 H325 0.930 . S
C330 C333 1.404 . S
C330 C334 1.353 . S
N331 Co296 2.145 . S
N331 C332 1.397 . S
N331 C333 1.334 . S
C332 H313 0.929 . S
C332 C329 1.388 . S
C332 N331 1.397 . S
C333 H314 0.929 . S
C333 C330 1.404 . S
C333 N331 1.334 . S
C334 H326 0.930 . S
C334 C329 1.418 . S
C334 C330 1.353 . S
C335 H305 0.930 . S
C335 N336 1.330 . S
C335 C337 1.446 . S
N336 Co295 2.151 . S
N336 C335 1.330 . S
N336 C340 1.418 . S
C337 H316 0.929 . S
C337 C335 1.446 . S
C337 C338 1.332 . S
C338 H318 0.931 . S
C338 C337 1.332 . S
C338 C339 1.267 . S
C339 H307 0.929 . S
C339 C338 1.267 . S
C339 C340 1.251 . S
C340 H310 0.929 . S
C340 N336 1.418 . S
C340 C339 1.251 . S
C341 H308 0.930 . S
C341 C343 1.406 . S
C341 C346 1.261 . S
C342 H309 0.930 . S
C342 N344 1.325 . S
C342 C345 1.357 . S
C343 H311 0.928 . S
C343 C341 1.406 . S
C343 N344 1.261 . S
N344 Co295 2.214 . S
N344 C342 1.325 . S
N344 C343 1.261 . S
C345 H315 0.931 . S
C345 C342 1.357 . S
C345 C346 1.312 . S
C346 H317 0.930 . S
C346 C341 1.261 . S
C346 C345 1.312 . S
C347 O319 1.214 . S
C347 O327 1.234 . S
C348 H320 0.929 . S
C348 C351 1.391 . S
C348 C353 1.391 . S
C349 H321 0.929 . S
C349 C350 1.390 . S
C349 N352 1.391 . S
C350 H322 0.930 . S
C350 C349 1.390 . S
C350 C351 1.392 . S
C351 H323 0.929 . S
C351 C348 1.391 . S
C351 C350 1.392 . S
N352 Co296 2.257 . S
N352 C349 1.391 . S
N352 C353 1.388 . S
C353 H324 0.930 . S
C353 C348 1.391 . S
C353 N352 1.388 . S
Co354 O356 2.143 . S
Co354 O362 2.074 . S
Co354 O365 2.093 . S
Co354 O378 2.097 . S
Co354 N395 2.151 . S
Co354 N403 2.214 . S
Co355 O356 2.160 1_565 S
Co355 O361 2.058 . S
Co355 O371 2.057 . S
Co355 O386 2.037 . S
Co355 N390 2.145 . S
Co355 N411 2.257 . S
O356 Co354 2.143 . S
O356 Co355 2.160 1_545 S
C357 O358 1.278 . S
C357 O365 1.224 . S
O358 C357 1.278 . S
C359 O360 1.245 . S
C359 O371 1.232 . S
O360 C359 1.245 . S
O361 Co355 2.058 . S
O361 C387 1.269 . S
O362 Co354 2.074 . S
O362 C387 1.257 1_545 S
H363 C388 0.930 . S
H364 C394 0.930 . S
O365 Co354 2.093 . S
O365 C357 1.224 . S
H366 C398 0.929 . S
H367 C400 0.930 . S
H368 C401 0.930 . S
H369 C399 0.929 . S
H370 C402 0.928 . S
O371 Co355 2.057 . S
O371 C359 1.232 . S
H372 C391 0.929 . S
H373 C392 0.929 . S
H374 C404 0.931 . S
H375 C396 0.929 . S
H376 C405 0.930 . S
H377 C397 0.931 . S
O378 Co354 2.097 . S
O378 C406 1.214 . S
H379 C407 0.929 . S
H380 C408 0.929 . S
H381 C409 0.930 . S
H382 C410 0.929 . S
H383 C412 0.930 . S
H384 C389 0.930 . S
H385 C393 0.930 . S
O386 Co355 2.037 . S
O386 C406 1.234 1_565 S
C387 O361 1.269 . S
C387 O362 1.257 1_565 S
C388 H363 0.930 . S
C388 C391 1.388 . S
C388 C393 1.418 . S
C389 H384 0.930 . S
C389 C392 1.404 . S
C389 C393 1.353 . S
N390 Co355 2.145 . S
N390 C391 1.397 . S
N390 C392 1.334 . S
C391 H372 0.929 . S
C391 C388 1.388 . S
C391 N390 1.397 . S
C392 H373 0.929 . S
C392 C389 1.404 . S
C392 N390 1.334 . S
C393 H385 0.930 . S
C393 C388 1.418 . S
C393 C389 1.353 . S
C394 H364 0.930 . S
C394 N395 1.330 . S
C394 C396 1.446 . S
N395 Co354 2.151 . S
N395 C394 1.330 . S
N395 C399 1.418 . S
C396 H375 0.929 . S
C396 C394 1.446 . S
C396 C397 1.332 . S
C397 H377 0.931 . S
C397 C396 1.332 . S
C397 C398 1.267 . S
C398 H366 0.929 . S
C398 C397 1.267 . S
C398 C399 1.251 . S
C399 H369 0.929 . S
C399 N395 1.418 . S
C399 C398 1.251 . S
C400 H367 0.930 . S
C400 C402 1.406 . S
C400 C405 1.261 . S
C401 H368 0.930 . S
C401 N403 1.325 . S
C401 C404 1.357 . S
C402 H370 0.928 . S
C402 C400 1.406 . S
C402 N403 1.261 . S
N403 Co354 2.214 . S
N403 C401 1.325 . S
N403 C402 1.261 . S
C404 H374 0.931 . S
C404 C401 1.357 . S
C404 C405 1.312 . S
C405 H376 0.930 . S
C405 C400 1.261 . S
C405 C404 1.312 . S
C406 O378 1.214 . S
C406 O386 1.234 1_545 S
C407 H379 0.929 . S
C407 C410 1.391 . S
C407 C412 1.391 . S
C408 H380 0.929 . S
C408 C409 1.390 . S
C408 N411 1.391 . S
C409 H381 0.930 . S
C409 C408 1.390 . S
C409 C410 1.392 . S
C410 H382 0.929 . S
C410 C407 1.391 . S
C410 C409 1.392 . S
N411 Co355 2.257 . S
N411 C408 1.391 . S
N411 C412 1.388 . S
C412 H383 0.930 . S
C412 C407 1.391 . S
C412 N411 1.388 . S
Co413 O415 2.143 . S
Co413 O421 2.074 . S
Co413 O424 2.093 1_655 S
Co413 O437 2.097 1_655 S
Co413 N454 2.151 . S
Co413 N462 2.214 . S
Co414 O415 2.160 1_455 S
Co414 O420 2.058 1_455 S
Co414 O430 2.047 1_455 S
Co414 O445 2.037 . S
Co414 N449 2.145 . S
Co414 N470 2.257 . S
O415 Co413 2.143 . S
O415 Co414 2.160 1_655 S
C416 O417 1.278 . S
C416 O424 1.224 . S
O417 C416 1.278 . S
C418 O419 1.245 . S
C418 O430 1.253 . S
O419 C418 1.245 . S
O420 Co414 2.058 1_655 S
O420 C446 1.269 . S
O421 Co413 2.074 . S
O421 C446 1.257 . S
H422 C447 0.930 . S
H423 C453 0.930 . S
O424 Co413 2.093 1_455 S
O424 C416 1.224 . S
H425 C457 0.929 . S
H426 C459 0.930 . S
H427 C460 0.930 . S
H428 C458 0.929 . S
H429 C461 0.928 . S
O430 Co414 2.047 1_655 S
O430 C418 1.253 . S
H431 C450 0.929 . S
H432 C451 0.929 . S
H433 C463 0.931 . S
H434 C455 0.929 . S
H435 C464 0.930 . S
H436 C456 0.931 . S
O437 Co413 2.097 1_455 S
O437 C465 1.214 . S
H438 C466 0.929 . S
H439 C467 0.929 . S
H440 C468 0.930 . S
H441 C469 0.929 . S
H442 C471 0.930 . S
H443 C448 0.930 . S
H444 C452 0.930 . S
O445 Co414 2.037 . S
O445 C465 1.234 . S
C446 O420 1.269 . S
C446 O421 1.257 . S
C447 H422 0.930 . S
C447 C450 1.388 . S
C447 C452 1.418 . S
C448 H443 0.930 . S
C448 C451 1.404 . S
C448 C452 1.353 . S
N449 Co414 2.145 . S
N449 C450 1.397 . S
N449 C451 1.334 . S
C450 H431 0.929 . S
C450 C447 1.388 . S
C450 N449 1.397 . S
C451 H432 0.929 . S
C451 C448 1.404 . S
C451 N449 1.334 . S
C452 H444 0.930 . S
C452 C447 1.418 . S
C452 C448 1.353 . S
C453 H423 0.930 . S
C453 N454 1.330 . S
C453 C455 1.446 . S
N454 Co413 2.151 . S
N454 C453 1.330 . S
N454 C458 1.418 . S
C455 H434 0.929 . S
C455 C453 1.446 . S
C455 C456 1.332 . S
C456 H436 0.931 . S
C456 C455 1.332 . S
C456 C457 1.267 . S
C457 H425 0.929 . S
C457 C456 1.267 . S
C457 C458 1.251 . S
C458 H428 0.929 . S
C458 N454 1.418 . S
C458 C457 1.251 . S
C459 H426 0.930 . S
C459 C461 1.406 . S
C459 C464 1.261 . S
C460 H427 0.930 . S
C460 N462 1.325 . S
C460 C463 1.357 . S
C461 H429 0.928 . S
C461 C459 1.406 . S
C461 N462 1.261 . S
N462 Co413 2.214 . S
N462 C460 1.325 . S
N462 C461 1.261 . S
C463 H433 0.931 . S
C463 C460 1.357 . S
C463 C464 1.312 . S
C464 H435 0.930 . S
C464 C459 1.261 . S
C464 C463 1.312 . S
C465 O437 1.214 . S
C465 O445 1.234 . S
C466 H438 0.929 . S
C466 C469 1.391 . S
C466 C471 1.391 . S
C467 H439 0.929 . S
C467 C468 1.390 . S
C467 N470 1.391 . S
C468 H440 0.930 . S
C468 C467 1.390 . S
C468 C469 1.392 . S
C469 H441 0.929 . S
C469 C466 1.391 . S
C469 C468 1.392 . S
N470 Co414 2.257 . S
N470 C467 1.391 . S
N470 C471 1.388 . S
C471 H442 0.930 . S
C471 C466 1.391 . S
C471 N470 1.388 . S
Co472 O474 2.143 . S
Co472 O480 2.074 . S
Co472 O483 2.093 1_554 S
Co472 O496 2.097 1_554 S
Co472 N513 2.151 . S
Co472 N521 2.214 . S
Co473 O474 2.160 1_556 S
Co473 O479 2.058 1_556 S
Co473 O489 2.057 1_556 S
Co473 O504 2.037 . S
Co473 N508 2.145 . S
Co473 N529 2.257 . S
O474 Co472 2.143 . S
O474 Co473 2.160 1_554 S
C475 O476 1.278 . S
C475 O483 1.224 . S
O476 C475 1.278 . S
C477 O478 1.245 . S
C477 O489 1.232 . S
O478 C477 1.245 . S
O479 Co473 2.058 1_554 S
O479 C505 1.269 . S
O480 Co472 2.074 . S
O480 C505 1.257 . S
H481 C506 0.930 . S
H482 C512 0.930 . S
O483 Co472 2.093 1_556 S
O483 C475 1.224 . S
H484 C516 0.929 . S
H485 C518 0.930 . S
H486 C519 0.930 . S
H487 C517 0.929 . S
H488 C520 0.928 . S
O489 Co473 2.057 1_554 S
O489 C477 1.232 . S
H490 C509 0.929 . S
H491 C510 0.929 . S
H492 C522 0.931 . S
H493 C514 0.929 . S
H494 C523 0.930 . S
H495 C515 0.931 . S
O496 Co472 2.097 1_556 S
O496 C524 1.214 . S
H497 C525 0.929 . S
H498 C526 0.929 . S
H499 C527 0.930 . S
H500 C528 0.929 . S
H501 C530 0.930 . S
H502 C507 0.930 . S
H503 C511 0.930 . S
O504 Co473 2.037 . S
O504 C524 1.234 . S
C505 O479 1.269 . S
C505 O480 1.257 . S
C506 H481 0.930 . S
C506 C509 1.388 . S
C506 C511 1.418 . S
C507 H502 0.930 . S
C507 C510 1.404 . S
C507 C511 1.353 . S
N508 Co473 2.145 . S
N508 C509 1.397 . S
N508 C510 1.334 . S
C509 H490 0.929 . S
C509 C506 1.388 . S
C509 N508 1.397 . S
C510 H491 0.929 . S
C510 C507 1.404 . S
C510 N508 1.334 . S
C511 H503 0.930 . S
C511 C506 1.418 . S
C511 C507 1.353 . S
C512 H482 0.930 . S
C512 N513 1.330 . S
C512 C514 1.446 . S
N513 Co472 2.151 . S
N513 C512 1.330 . S
N513 C517 1.418 . S
C514 H493 0.929 . S
C514 C512 1.446 . S
C514 C515 1.332 . S
C515 H495 0.931 . S
C515 C514 1.332 . S
C515 C516 1.267 . S
C516 H484 0.929 . S
C516 C515 1.267 . S
C516 C517 1.251 . S
C517 H487 0.929 . S
C517 N513 1.418 . S
C517 C516 1.251 . S
C518 H485 0.930 . S
C518 C520 1.406 . S
C518 C523 1.261 . S
C519 H486 0.930 . S
C519 N521 1.325 . S
C519 C522 1.357 . S
C520 H488 0.928 . S
C520 C518 1.406 . S
C520 N521 1.261 . S
N521 Co472 2.214 . S
N521 C519 1.325 . S
N521 C520 1.261 . S
C522 H492 0.931 . S
C522 C519 1.357 . S
C522 C523 1.312 . S
C523 H494 0.930 . S
C523 C518 1.261 . S
C523 C522 1.312 . S
C524 O496 1.214 . S
C524 O504 1.234 . S
C525 H497 0.929 . S
C525 C528 1.391 . S
C525 C530 1.391 . S
C526 H498 0.929 . S
C526 C527 1.390 . S
C526 N529 1.391 . S
C527 H499 0.930 . S
C527 C526 1.390 . S
C527 C528 1.392 . S
C528 H500 0.929 . S
C528 C525 1.391 . S
C528 C527 1.392 . S
N529 Co473 2.257 . S
N529 C526 1.391 . S
N529 C530 1.388 . S
C530 H501 0.930 . S
C530 C525 1.391 . S
C530 N529 1.388 . S
Co531 O533 2.174 . S
Co531 O539 2.074 . S
Co531 O542 2.093 . S
Co531 O555 2.097 . S
Co531 N572 2.151 . S
Co531 N580 2.214 . S
Co532 O533 2.129 1_554 S
Co532 O538 2.058 . S
Co532 O548 2.057 . S
Co532 O563 2.037 . S
Co532 N567 2.145 . S
Co532 N588 2.257 . S
O533 Co531 2.174 . S
O533 Co532 2.129 1_556 S
C534 O535 1.278 . S
C534 O542 1.224 . S
O535 C534 1.278 . S
C536 O537 1.245 . S
C536 O548 1.232 . S
O537 C536 1.245 . S
O538 Co532 2.058 . S
O538 C564 1.269 . S
O539 Co531 2.074 . S
O539 C564 1.257 1_556 S
H540 C565 0.930 . S
H541 C571 0.930 . S
O542 Co531 2.093 . S
O542 C534 1.224 . S
H543 C575 0.929 . S
H544 C577 0.930 . S
H545 C578 0.930 . S
H546 C576 0.929 . S
H547 C579 0.928 . S
O548 Co532 2.057 . S
O548 C536 1.232 . S
H549 C568 0.929 . S
H550 C569 0.929 . S
H551 C581 0.931 . S
H552 C573 0.929 . S
H553 C582 0.930 . S
H554 C574 0.931 . S
O555 Co531 2.097 . S
O555 C583 1.214 . S
H556 C584 0.929 . S
H557 C585 0.929 . S
H558 C586 0.930 . S
H559 C587 0.929 . S
H560 C589 0.930 . S
H561 C566 0.930 . S
H562 C570 0.930 . S
O563 Co532 2.037 . S
O563 C583 1.234 1_554 S
C564 O538 1.269 . S
C564 O539 1.257 1_554 S
C565 H540 0.930 . S
C565 C568 1.388 . S
C565 C570 1.418 . S
C566 H561 0.930 . S
C566 C569 1.404 . S
C566 C570 1.353 . S
N567 Co532 2.145 . S
N567 C568 1.397 . S
N567 C569 1.334 . S
C568 H549 0.929 . S
C568 C565 1.388 . S
C568 N567 1.397 . S
C569 H550 0.929 . S
C569 C566 1.404 . S
C569 N567 1.334 . S
C570 H562 0.930 . S
C570 C565 1.418 . S
C570 C566 1.353 . S
C571 H541 0.930 . S
C571 N572 1.330 . S
C571 C573 1.446 . S
N572 Co531 2.151 . S
N572 C571 1.330 . S
N572 C576 1.418 . S
C573 H552 0.929 . S
C573 C571 1.446 . S
C573 C574 1.332 . S
C574 H554 0.931 . S
C574 C573 1.332 . S
C574 C575 1.267 . S
C575 H543 0.929 . S
C575 C574 1.267 . S
C575 C576 1.251 . S
C576 H546 0.929 . S
C576 N572 1.418 . S
C576 C575 1.251 . S
C577 H544 0.930 . S
C577 C579 1.406 . S
C577 C582 1.261 . S
C578 H545 0.930 . S
C578 N580 1.325 . S
C578 C581 1.357 . S
C579 H547 0.928 . S
C579 C577 1.406 . S
C579 N580 1.261 . S
N580 Co531 2.214 . S
N580 C578 1.325 . S
N580 C579 1.261 . S
C581 H551 0.931 . S
C581 C578 1.357 . S
C581 C582 1.312 . S
C582 H553 0.930 . S
C582 C577 1.261 . S
C582 C581 1.312 . S
C583 O555 1.214 . S
C583 O563 1.234 1_556 S
C584 H556 0.929 . S
C584 C587 1.391 . S
C584 C589 1.391 . S
C585 H557 0.929 . S
C585 C586 1.390 . S
C585 N588 1.391 . S
C586 H558 0.930 . S
C586 C585 1.390 . S
C586 C587 1.392 . S
C587 H559 0.929 . S
C587 C584 1.391 . S
C587 C586 1.392 . S
N588 Co532 2.257 . S
N588 C585 1.391 . S
N588 C589 1.388 . S
C589 H560 0.930 . S
C589 C584 1.391 . S
C589 N588 1.388 . S
Co590 O592 2.143 . S
Co590 O598 2.074 . S
Co590 O601 2.093 1_554 S
Co590 O614 2.097 1_554 S
Co590 N631 2.151 . S
Co590 N639 2.214 . S
Co591 O592 2.160 1_556 S
Co591 O597 2.058 1_556 S
Co591 O607 2.057 1_556 S
Co591 O622 2.037 . S
Co591 N626 2.145 . S
Co591 N647 2.257 . S
O592 Co590 2.143 . S
O592 Co591 2.160 1_554 S
C593 O594 1.278 . S
C593 O601 1.224 . S
O594 C593 1.278 . S
C595 O596 1.245 . S
C595 O607 1.232 . S
O596 C595 1.245 . S
O597 Co591 2.058 1_554 S
O597 C623 1.269 . S
O598 Co590 2.074 . S
O598 C623 1.257 . S
H599 C624 0.930 . S
H600 C630 0.930 . S
O601 Co590 2.093 1_556 S
O601 C593 1.224 . S
H602 C634 0.929 . S
H603 C636 0.930 . S
H604 C637 0.930 . S
H605 C635 0.929 . S
H606 C638 0.928 . S
O607 Co591 2.057 1_554 S
O607 C595 1.232 . S
H608 C627 0.929 . S
H609 C628 0.929 . S
H610 C640 0.931 . S
H611 C632 0.929 . S
H612 C641 0.930 . S
H613 C633 0.931 . S
O614 Co590 2.097 1_556 S
O614 C642 1.214 . S
H615 C643 0.929 . S
H616 C644 0.929 . S
H617 C645 0.930 . S
H618 C646 0.929 . S
H619 C648 0.930 . S
H620 C625 0.930 . S
H621 C629 0.930 . S
O622 Co591 2.037 . S
O622 C642 1.234 . S
C623 O597 1.269 . S
C623 O598 1.257 . S
C624 H599 0.930 . S
C624 C627 1.388 . S
C624 C629 1.418 . S
C625 H620 0.930 . S
C625 C628 1.404 . S
C625 C629 1.353 . S
N626 Co591 2.145 . S
N626 C627 1.397 . S
N626 C628 1.334 . S
C627 H608 0.929 . S
C627 C624 1.388 . S
C627 N626 1.397 . S
C628 H609 0.929 . S
C628 C625 1.404 . S
C628 N626 1.334 . S
C629 H621 0.930 . S
C629 C624 1.418 . S
C629 C625 1.353 . S
C630 H600 0.930 . S
C630 N631 1.330 . S
C630 C632 1.446 . S
N631 Co590 2.151 . S
N631 C630 1.330 . S
N631 C635 1.418 . S
C632 H611 0.929 . S
C632 C630 1.446 . S
C632 C633 1.332 . S
C633 H613 0.931 . S
C633 C632 1.332 . S
C633 C634 1.267 . S
C634 H602 0.929 . S
C634 C633 1.267 . S
C634 C635 1.251 . S
C635 H605 0.929 . S
C635 N631 1.418 . S
C635 C634 1.251 . S
C636 H603 0.930 . S
C636 C638 1.406 . S
C636 C641 1.261 . S
C637 H604 0.930 . S
C637 N639 1.325 . S
C637 C640 1.357 . S
C638 H606 0.928 . S
C638 C636 1.406 . S
C638 N639 1.261 . S
N639 Co590 2.214 . S
N639 C637 1.325 . S
N639 C638 1.261 . S
C640 H610 0.931 . S
C640 C637 1.357 . S
C640 C641 1.312 . S
C641 H612 0.930 . S
C641 C636 1.261 . S
C641 C640 1.312 . S
C642 O614 1.214 . S
C642 O622 1.234 . S
C643 H615 0.929 . S
C643 C646 1.391 . S
C643 C648 1.391 . S
C644 H616 0.929 . S
C644 C645 1.390 . S
C644 N647 1.391 . S
C645 H617 0.930 . S
C645 C644 1.390 . S
C645 C646 1.392 . S
C646 H618 0.929 . S
C646 C643 1.391 . S
C646 C645 1.392 . S
N647 Co591 2.257 . S
N647 C644 1.391 . S
N647 C648 1.388 . S
C648 H619 0.930 . S
C648 C643 1.391 . S
C648 N647 1.388 . S
Co649 O651 2.143 . S
Co649 O657 2.074 . S
Co649 O660 2.093 . S
Co649 O673 2.097 . S
Co649 N690 2.151 . S
Co649 N698 2.214 . S
Co650 O651 2.160 1_556 S
Co650 O656 2.058 . S
Co650 O666 2.057 . S
Co650 O681 2.037 . S
Co650 N685 2.145 . S
Co650 N706 2.257 . S
O651 Co649 2.143 . S
O651 Co650 2.160 1_554 S
C652 O653 1.278 . S
C652 O660 1.224 . S
O653 C652 1.278 . S
C654 O655 1.245 . S
C654 O666 1.232 . S
O655 C654 1.245 . S
O656 Co650 2.058 . S
O656 C682 1.269 . S
O657 Co649 2.074 . S
O657 C682 1.257 1_554 S
H658 C683 0.930 . S
H659 C689 0.930 . S
O660 Co649 2.093 . S
O660 C652 1.224 . S
H661 C693 0.929 . S
H662 C695 0.930 . S
H663 C696 0.930 . S
H664 C694 0.929 . S
H665 C697 0.928 . S
O666 Co650 2.057 . S
O666 C654 1.232 . S
H667 C686 0.929 . S
H668 C687 0.929 . S
H669 C699 0.931 . S
H670 C691 0.929 . S
H671 C700 0.930 . S
H672 C692 0.931 . S
O673 Co649 2.097 . S
O673 C701 1.214 . S
H674 C702 0.929 . S
H675 C703 0.929 . S
H676 C704 0.930 . S
H677 C705 0.929 . S
H678 C707 0.930 . S
H679 C684 0.930 . S
H680 C688 0.930 . S
O681 Co650 2.037 . S
O681 C701 1.234 1_556 S
C682 O656 1.269 . S
C682 O657 1.257 1_556 S
C683 H658 0.930 . S
C683 C686 1.388 . S
C683 C688 1.418 . S
C684 H679 0.930 . S
C684 C687 1.404 . S
C684 C688 1.353 . S
N685 Co650 2.145 . S
N685 C686 1.397 . S
N685 C687 1.334 . S
C686 H667 0.929 . S
C686 C683 1.388 . S
C686 N685 1.397 . S
C687 H668 0.929 . S
C687 C684 1.404 . S
C687 N685 1.334 . S
C688 H680 0.930 . S
C688 C683 1.418 . S
C688 C684 1.353 . S
C689 H659 0.930 . S
C689 N690 1.330 . S
C689 C691 1.446 . S
N690 Co649 2.151 . S
N690 C689 1.330 . S
N690 C694 1.418 . S
C691 H670 0.929 . S
C691 C689 1.446 . S
C691 C692 1.332 . S
C692 H672 0.931 . S
C692 C691 1.332 . S
C692 C693 1.267 . S
C693 H661 0.929 . S
C693 C692 1.267 . S
C693 C694 1.251 . S
C694 H664 0.929 . S
C694 N690 1.418 . S
C694 C693 1.251 . S
C695 H662 0.930 . S
C695 C697 1.406 . S
C695 C700 1.261 . S
C696 H663 0.930 . S
C696 N698 1.325 . S
C696 C699 1.357 . S
C697 H665 0.928 . S
C697 C695 1.406 . S
C697 N698 1.261 . S
N698 Co649 2.214 . S
N698 C696 1.325 . S
N698 C697 1.261 . S
C699 H669 0.931 . S
C699 C696 1.357 . S
C699 C700 1.312 . S
C700 H671 0.930 . S
C700 C695 1.261 . S
C700 C699 1.312 . S
C701 O673 1.214 . S
C701 O681 1.234 1_554 S
C702 H674 0.929 . S
C702 C705 1.391 . S
C702 C707 1.391 . S
C703 H675 0.929 . S
C703 C704 1.390 . S
C703 N706 1.391 . S
C704 H676 0.930 . S
C704 C703 1.390 . S
C704 C705 1.392 . S
C705 H677 0.929 . S
C705 C702 1.391 . S
C705 C704 1.392 . S
N706 Co650 2.257 . S
N706 C703 1.391 . S
N706 C707 1.388 . S
C707 H678 0.930 . S
C707 C702 1.391 . S
C707 N706 1.388 . S
H708 C726 0.951 . S
H709 C728 0.951 . S
H710 C730 0.950 . S
H711 C731 0.950 . S
H712 C733 0.950 . S
H713 C736 0.950 . S
H714 C737 0.950 . S
H715 C739 0.950 1_655 S
H716 C740 0.950 . S
H717 C741 0.951 . S
H718 C743 0.951 . S
H719 C745 0.950 . S
H720 C746 0.950 . S
H721 C748 0.952 . S
H722 C751 0.950 . S
H723 C752 0.950 . S
H724 C754 0.950 1_455 S
H725 C755 0.950 . S
C726 H708 0.951 . S
C726 C727 1.366 1_655 S
C726 C728 1.388 . S
C727 C726 1.366 1_455 S
C727 C731 1.385 . S
C728 H709 0.951 . S
C728 C726 1.388 . S
C728 C729 1.366 1_655 S
C729 C728 1.366 1_455 S
C729 C730 1.414 . S
C729 C732 1.499 . S
C730 H710 0.950 . S
C730 C729 1.414 . S
C730 C731 1.374 . S
C731 H711 0.950 . S
C731 C727 1.385 . S
C731 C730 1.374 . S
C732 C729 1.499 . S
C732 C733 1.373 . S
C732 C734 1.389 . S
C733 H712 0.950 . S
C733 C732 1.373 . S
C733 C749 1.377 1_455 S
C734 C732 1.389 . S
C734 C735 1.524 . S
C734 C748 1.370 1_455 S
C735 C734 1.524 . S
C735 C736 1.397 . S
C735 C740 1.363 1_455 S
C736 H713 0.950 . S
C736 C735 1.397 . S
C736 C737 1.334 . S
C737 H714 0.950 . S
C737 C736 1.334 . S
C737 C738 1.287 . S
C738 C737 1.287 . S
C738 C739 1.524 . S
C738 H757 0.913 . S
C739 H715 0.950 1_455 S
C739 C738 1.524 . S
C739 C740 1.415 1_455 S
C740 H716 0.950 . S
C740 C735 1.363 1_655 S
C740 C739 1.415 1_655 S
C741 H717 0.951 . S
C741 C742 1.366 1_455 S
C741 C743 1.388 . S
C742 C741 1.366 1_655 S
C742 C746 1.385 . S
C743 H718 0.951 . S
C743 C741 1.388 . S
C743 C744 1.366 1_455 S
C744 C743 1.366 1_655 S
C744 C745 1.414 . S
C744 C747 1.499 . S
C745 H719 0.950 . S
C745 C744 1.414 . S
C745 C746 1.374 . S
C746 H720 0.950 . S
C746 C742 1.385 . S
C746 C745 1.374 . S
C747 C744 1.499 . S
C747 C748 1.379 . S
C747 C749 1.389 . S
C748 H721 0.952 . S
C748 C734 1.370 1_655 S
C748 C747 1.379 . S
C749 C733 1.377 1_655 S
C749 C747 1.389 . S
C749 C750 1.524 . S
C750 C749 1.524 . S
C750 C751 1.397 . S
C750 C755 1.363 1_655 S
C751 H722 0.950 . S
C751 C750 1.397 . S
C751 C752 1.334 . S
C752 H723 0.950 . S
C752 C751 1.334 . S
C752 C753 1.287 . S
C753 C752 1.287 . S
C753 C754 1.524 . S
C753 H756 0.999 . S
C754 H724 0.950 1_655 S
C754 C753 1.524 . S
C754 C755 1.415 1_655 S
C755 H725 0.950 . S
C755 C750 1.363 1_455 S
C755 C754 1.415 1_455 S
H756 C753 0.999 . S
H757 C738 0.913 . S
H758 C776 0.951 . S
H759 C778 0.951 1_565 S
H760 C780 0.950 . S
H761 C781 0.950 . S
H762 C783 0.950 . S
H763 C786 0.950 . S
H764 C787 0.950 . S
H765 C789 0.950 . S
H766 C790 0.950 . S
H767 C791 0.951 . S
H768 C793 0.951 1_545 S
H769 C795 0.950 . S
H770 C796 0.950 . S
H771 C798 0.950 . S
H772 C801 0.950 . S
H773 C802 0.950 . S
H774 C804 0.950 . S
H775 C805 0.950 . S
C776 H758 0.951 . S
C776 C777 1.366 . S
C776 C778 1.388 . S
C777 C776 1.366 . S
C777 C781 1.385 . S
C778 H759 0.951 1_545 S
C778 C776 1.388 . S
C778 C779 1.366 . S
C779 C778 1.366 . S
C779 C780 1.414 . S
C779 C782 1.499 . S
C780 H760 0.950 . S
C780 C779 1.414 . S
C780 C781 1.374 . S
C781 H761 0.950 . S
C781 C777 1.385 . S
C781 C780 1.374 . S
C782 C779 1.499 . S
C782 C783 1.373 . S
C782 C784 1.389 1_545 S
C783 H762 0.950 . S
C783 C782 1.373 . S
C783 C799 1.377 . S
C784 C782 1.389 1_565 S
C784 C785 1.524 . S
C784 C798 1.377 . S
C785 C784 1.524 . S
C785 C786 1.397 . S
C785 C790 1.363 . S
C786 H763 0.950 . S
C786 C785 1.397 . S
C786 C787 1.334 . S
C787 H764 0.950 . S
C787 C786 1.334 . S
C787 C788 1.287 . S
C788 C787 1.287 . S
C788 C789 1.524 . S
C788 H807 0.913 . S
C789 H765 0.950 . S
C789 C788 1.524 . S
C789 C790 1.415 . S
C790 H766 0.950 . S
C790 C785 1.363 . S
C790 C789 1.415 . S
C791 H767 0.951 . S
C791 C792 1.366 . S
C791 C793 1.388 . S
C792 C791 1.366 . S
C792 C796 1.385 . S
C793 H768 0.951 1_565 S
C793 C791 1.388 . S
C793 C794 1.366 . S
C794 C793 1.366 . S
C794 C795 1.414 . S
C794 C797 1.499 . S
C795 H769 0.950 . S
C795 C794 1.414 . S
C795 C796 1.374 . S
C796 H770 0.950 . S
C796 C792 1.385 . S
C796 C795 1.374 . S
C797 C794 1.499 . S
C797 C798 1.373 . S
C797 C799 1.389 1_565 S
C798 H771 0.950 . S
C798 C784 1.377 . S
C798 C797 1.373 . S
C799 C783 1.377 . S
C799 C797 1.389 1_545 S
C799 C800 1.524 . S
C800 C799 1.524 . S
C800 C801 1.397 . S
C800 C805 1.363 . S
C801 H772 0.950 . S
C801 C800 1.397 . S
C801 C802 1.334 . S
C802 H773 0.950 . S
C802 C801 1.334 . S
C802 C803 1.287 . S
C803 C802 1.287 . S
C803 C804 1.524 . S
C803 H806 0.999 . S
C804 H774 0.950 . S
C804 C803 1.524 . S
C804 C805 1.415 . S
C805 H775 0.950 . S
C805 C800 1.363 . S
C805 C804 1.415 . S
H806 C803 0.999 . S
H807 C788 0.913 . S
H808 C826 0.951 . S
H809 C828 0.951 . S
H810 C830 0.939 1_655 S
H811 C831 0.948 1_655 S
H812 C833 0.950 . S
H813 C836 0.950 . S
H814 C837 0.950 . S
H815 C839 0.950 . S
H816 C840 0.950 . S
H817 C841 0.951 . S
H818 C843 0.951 . S
H819 C845 0.950 . S
H820 C846 0.950 1_455 S
H821 C848 0.950 . S
H822 C851 0.950 . S
H823 C852 0.950 . S
H824 C854 0.950 . S
H825 C855 0.950 . S
C826 H808 0.951 . S
C826 C827 1.366 . S
C826 C828 1.388 . S
C827 C826 1.366 . S
C827 C831 1.385 . S
C828 H809 0.951 . S
C828 C826 1.388 . S
C828 C829 1.366 . S
C829 C828 1.366 . S
C829 C830 1.421 . S
C829 C832 1.499 . S
C830 H810 0.939 1_455 S
C830 C829 1.421 . S
C830 C831 1.378 . S
C831 H811 0.948 1_455 S
C831 C827 1.385 . S
C831 C830 1.378 . S
C832 C829 1.499 . S
C832 C833 1.373 . S
C832 C834 1.389 1_455 S
C833 H812 0.950 . S
C833 C832 1.373 . S
C833 C849 1.377 . S
C834 C832 1.389 1_655 S
C834 C835 1.524 . S
C834 C848 1.377 . S
C835 C834 1.524 . S
C835 C836 1.397 . S
C835 C840 1.363 . S
C836 H813 0.950 . S
C836 C835 1.397 . S
C836 C837 1.334 . S
C837 H814 0.950 . S
C837 C836 1.334 . S
C837 C838 1.287 . S
C838 C837 1.287 . S
C838 C839 1.524 . S
C838 H857 0.913 . S
C839 H815 0.950 . S
C839 C838 1.524 . S
C839 C840 1.415 . S
C840 H816 0.950 . S
C840 C835 1.363 . S
C840 C839 1.415 . S
C841 H817 0.951 . S
C841 C842 1.366 . S
C841 C843 1.388 . S
C842 C841 1.366 . S
C842 C846 1.385 . S
C843 H818 0.951 . S
C843 C841 1.388 . S
C843 C844 1.366 . S
C844 C843 1.366 . S
C844 C845 1.414 1_655 S
C844 C847 1.499 . S
C845 H819 0.950 . S
C845 C844 1.414 1_455 S
C845 C846 1.374 1_455 S
C846 H820 0.950 1_655 S
C846 C842 1.385 . S
C846 C845 1.374 1_655 S
C847 C844 1.499 . S
C847 C848 1.373 . S
C847 C849 1.389 1_655 S
C848 H821 0.950 . S
C848 C834 1.377 . S
C848 C847 1.373 . S
C849 C833 1.377 . S
C849 C847 1.389 1_455 S
C849 C850 1.524 . S
C850 C849 1.524 . S
C850 C851 1.397 . S
C850 C855 1.363 . S
C851 H822 0.950 . S
C851 C850 1.397 . S
C851 C852 1.334 . S
C852 H823 0.950 . S
C852 C851 1.334 . S
C852 C853 1.287 . S
C853 C852 1.287 . S
C853 C854 1.524 . S
C853 H856 0.999 . S
C854 H824 0.950 . S
C854 C853 1.524 . S
C854 C855 1.415 . S
C855 H825 0.950 . S
C855 C850 1.363 . S
C855 C854 1.415 . S
H856 C853 0.999 . S
H857 C838 0.913 . S
H858 C876 0.951 . S
H859 C878 0.951 . S
H860 C880 0.950 . S
H861 C881 0.950 . S
H862 C883 0.950 . S
H863 C886 0.950 . S
H864 C887 0.950 . S
H865 C889 0.950 . S
H866 C890 0.950 . S
H867 C891 0.951 . S
H868 C893 0.951 . S
H869 C895 0.950 . S
H870 C896 0.950 . S
H871 C898 0.950 . S
H872 C901 0.950 . S
H873 C902 0.950 . S
H874 C904 0.950 . S
H875 C905 0.950 . S
C876 H858 0.951 . S
C876 C877 1.366 . S
C876 C878 1.388 . S
C877 C876 1.366 . S
C877 C881 1.385 . S
C878 H859 0.951 . S
C878 C876 1.388 . S
C878 C879 1.366 . S
C879 C878 1.366 . S
C879 C880 1.414 . S
C879 C882 1.499 . S
C880 H860 0.950 . S
C880 C879 1.414 . S
C880 C881 1.374 . S
C881 H861 0.950 . S
C881 C877 1.385 . S
C881 C880 1.374 . S
C882 C879 1.499 . S
C882 C883 1.373 1_565 S
C882 C884 1.389 . S
C883 H862 0.950 . S
C883 C882 1.373 1_545 S
C883 C899 1.377 . S
C884 C882 1.389 . S
C884 C885 1.524 . S
C884 C898 1.377 . S
C885 C884 1.524 . S
C885 C886 1.397 . S
C885 C890 1.363 . S
C886 H863 0.950 . S
C886 C885 1.397 . S
C886 C887 1.334 . S
C887 H864 0.950 . S
C887 C886 1.334 . S
C887 C888 1.287 . S
C888 C887 1.287 . S
C888 C889 1.524 . S
C888 H907 0.913 . S
C889 H865 0.950 . S
C889 C888 1.524 . S
C889 C890 1.415 . S
C890 H866 0.950 . S
C890 C885 1.363 . S
C890 C889 1.415 . S
C891 H867 0.951 . S
C891 C892 1.366 . S
C891 C893 1.388 . S
C892 C891 1.366 . S
C892 C896 1.385 . S
C893 H868 0.951 . S
C893 C891 1.388 . S
C893 C894 1.366 . S
C894 C893 1.366 . S
C894 C895 1.414 . S
C894 C897 1.499 . S
C895 H869 0.950 . S
C895 C894 1.414 . S
C895 C896 1.374 . S
C896 H870 0.950 . S
C896 C892 1.385 . S
C896 C895 1.374 . S
C897 C894 1.499 . S
C897 C898 1.373 1_545 S
C897 C899 1.389 . S
C898 H871 0.950 . S
C898 C884 1.377 . S
C898 C897 1.373 1_565 S
C899 C883 1.377 . S
C899 C897 1.389 . S
C899 C900 1.524 . S
C900 C899 1.524 . S
C900 C901 1.397 . S
C900 C905 1.363 . S
C901 H872 0.950 . S
C901 C900 1.397 . S
C901 C902 1.334 . S
C902 H873 0.950 . S
C902 C901 1.334 . S
C902 C903 1.287 . S
C903 C902 1.287 . S
C903 C904 1.524 . S
C903 H906 0.999 . S
C904 H874 0.950 . S
C904 C903 1.524 . S
C904 C905 1.415 . S
C905 H875 0.950 . S
C905 C900 1.363 . S
C905 C904 1.415 . S
H906 C903 0.999 . S
H907 C888 0.913 . S
H908 C926 0.951 . S
H909 C928 0.951 . S
H910 C930 0.950 . S
H911 C931 0.934 1_455 S
H912 C933 0.950 . S
H913 C936 0.950 . S
H914 C937 0.950 . S
H915 C939 0.950 . S
H916 C940 0.950 . S
H917 C941 0.951 . S
H918 C943 0.951 . S
H919 C945 0.950 . S
H920 C946 0.950 1_655 S
H921 C948 0.950 . S
H922 C951 0.950 . S
H923 C952 0.950 . S
H924 C954 0.950 . S
H925 C955 0.950 . S
C926 H908 0.951 . S
C926 C927 1.366 . S
C926 C928 1.388 . S
C927 C926 1.366 . S
C927 C931 1.407 . S
C928 H909 0.951 . S
C928 C926 1.388 . S
C928 C929 1.366 . S
C929 C928 1.366 . S
C929 C930 1.414 1_655 S
C929 C932 1.499 . S
C930 H910 0.950 . S
C930 C929 1.414 1_455 S
C930 C931 1.369 1_455 S
C931 H911 0.934 1_655 S
C931 C927 1.407 . S
C931 C930 1.369 1_655 S
C932 C929 1.499 . S
C932 C933 1.373 1_655 S
C932 C934 1.389 . S
C933 H912 0.950 . S
C933 C932 1.373 1_455 S
C933 C949 1.377 . S
C934 C932 1.389 . S
C934 C935 1.524 . S
C934 C948 1.377 . S
C935 C934 1.524 . S
C935 C936 1.397 . S
C935 C940 1.363 . S
C936 H913 0.950 . S
C936 C935 1.397 . S
C936 C937 1.334 . S
C937 H914 0.950 . S
C937 C936 1.334 . S
C937 C938 1.287 . S
C938 C937 1.287 . S
C938 C939 1.524 . S
C938 H957 0.913 . S
C939 H915 0.950 . S
C939 C938 1.524 . S
C939 C940 1.415 . S
C940 H916 0.950 . S
C940 C935 1.363 . S
C940 C939 1.415 . S
C941 H917 0.951 . S
C941 C942 1.366 . S
C941 C943 1.388 . S
C942 C941 1.366 . S
C942 C946 1.385 . S
C943 H918 0.951 . S
C943 C941 1.388 . S
C943 C944 1.366 . S
C944 C943 1.366 . S
C944 C945 1.414 1_455 S
C944 C947 1.499 . S
C945 H919 0.950 . S
C945 C944 1.414 1_655 S
C945 C946 1.374 1_655 S
C946 H920 0.950 1_455 S
C946 C942 1.385 . S
C946 C945 1.374 1_455 S
C947 C944 1.499 . S
C947 C948 1.373 1_455 S
C947 C949 1.389 . S
C948 H921 0.950 . S
C948 C934 1.377 . S
C948 C947 1.373 1_655 S
C949 C933 1.377 . S
C949 C947 1.389 . S
C949 C950 1.524 . S
C950 C949 1.524 . S
C950 C951 1.397 . S
C950 C955 1.363 . S
C951 H922 0.950 . S
C951 C950 1.397 . S
C951 C952 1.334 . S
C952 H923 0.950 . S
C952 C951 1.334 . S
C952 C953 1.287 . S
C953 C952 1.287 . S
C953 C954 1.524 . S
C953 H956 0.999 . S
C954 H924 0.950 . S
C954 C953 1.524 . S
C954 C955 1.415 . S
C955 H925 0.950 . S
C955 C950 1.363 . S
C955 C954 1.415 . S
H956 C953 0.999 . S
H957 C938 0.913 . S
H958 C976 0.951 . S
H959 C978 0.951 . S
H960 C980 0.949 . S
H961 C981 0.950 1_545 S
H962 C983 0.950 . S
H963 C986 0.950 . S
H964 C987 0.950 . S
H965 C989 0.950 . S
H966 C990 0.950 . S
H967 C991 0.951 . S
H968 C993 0.951 . S
H969 C995 0.950 1_565 S
H970 C996 0.949 . S
H971 C998 0.950 . S
H972 C1001 0.950 . S
H973 C1002 0.950 . S
H974 C1004 0.950 . S
H975 C1005 0.950 . S
C976 H958 0.951 . S
C976 C977 1.366 . S
C976 C978 1.388 . S
C977 C976 1.366 . S
C977 C981 1.385 . S
C978 H959 0.951 . S
C978 C976 1.388 . S
C978 C979 1.366 . S
C979 C978 1.366 . S
C979 C980 1.415 1_565 S
C979 C982 1.499 . S
C980 H960 0.949 . S
C980 C979 1.415 1_545 S
C980 C981 1.374 1_545 S
C981 H961 0.950 1_565 S
C981 C977 1.385 . S
C981 C980 1.374 1_565 S
C982 C979 1.499 . S
C982 C983 1.373 1_565 S
C982 C984 1.389 . S
C983 H962 0.950 . S
C983 C982 1.373 1_545 S
C983 C999 1.377 . S
C984 C982 1.389 . S
C984 C985 1.524 . S
C984 C998 1.377 . S
C985 C984 1.524 . S
C985 C986 1.397 . S
C985 C990 1.363 . S
C986 H963 0.950 . S
C986 C985 1.397 . S
C986 C987 1.334 . S
C987 H964 0.950 . S
C987 C986 1.334 . S
C987 C988 1.287 . S
C988 C987 1.287 . S
C988 C989 1.524 . S
C988 H1007 0.913 . S
C989 H965 0.950 . S
C989 C988 1.524 . S
C989 C990 1.415 . S
C990 H966 0.950 . S
C990 C985 1.363 . S
C990 C989 1.415 . S
C991 H967 0.951 . S
C991 C992 1.366 . S
C991 C993 1.388 . S
C992 C991 1.366 . S
C992 C996 1.385 . S
C993 H968 0.951 . S
C993 C991 1.388 . S
C993 C994 1.366 . S
C994 C993 1.366 . S
C994 C995 1.414 . S
C994 C997 1.499 . S
C995 H969 0.950 1_545 S
C995 C994 1.414 . S
C995 C996 1.374 . S
C996 H970 0.949 . S
C996 C992 1.385 . S
C996 C995 1.374 . S
C997 C994 1.499 . S
C997 C998 1.373 1_545 S
C997 C999 1.389 . S
C998 H971 0.950 . S
C998 C984 1.377 . S
C998 C997 1.373 1_565 S
C999 C983 1.377 . S
C999 C997 1.389 . S
C999 C1000 1.524 . S
C1000 C999 1.524 . S
C1000 C1001 1.397 . S
C1000 C1005 1.363 . S
C1001 H972 0.950 . S
C1001 C1000 1.397 . S
C1001 C1002 1.334 . S
C1002 H973 0.950 . S
C1002 C1001 1.334 . S
C1002 C1003 1.287 . S
C1003 C1002 1.287 . S
C1003 C1004 1.524 . S
C1003 H1006 0.999 . S
C1004 H974 0.950 . S
C1004 C1003 1.524 . S
C1004 C1005 1.415 . S
C1005 H975 0.950 . S
C1005 C1000 1.363 . S
C1005 C1004 1.415 . S
H1006 C1003 0.999 . S
H1007 C988 0.913 . S
H1008 C1026 0.951 . S
H1009 C1028 0.951 . S
H1010 C1030 0.953 . S
H1011 C1031 0.943 1_455 S
H1012 C1033 0.950 . S
H1013 C1036 0.950 . S
H1014 C1037 0.950 . S
H1015 C1039 0.950 . S
H1016 C1040 0.950 . S
H1017 C1041 0.951 . S
H1018 C1043 0.951 . S
H1019 C1045 0.934 1_655 S
H1020 C1046 0.955 . S
H1021 C1048 0.950 . S
H1022 C1051 0.950 . S
H1023 C1052 0.950 . S
H1024 C1054 0.950 . S
H1025 C1055 0.950 . S
C1026 H1008 0.951 . S
C1026 C1027 1.366 . S
C1026 C1028 1.388 . S
C1027 C1026 1.366 . S
C1027 C1031 1.385 . S
C1028 H1009 0.951 . S
C1028 C1026 1.388 . S
C1028 C1029 1.366 . S
C1029 C1028 1.366 . S
C1029 C1030 1.413 1_655 S
C1029 C1032 1.499 . S
C1030 H1010 0.953 . S
C1030 C1029 1.413 1_455 S
C1030 C1031 1.373 1_455 S
C1031 H1011 0.943 1_655 S
C1031 C1027 1.385 . S
C1031 C1030 1.373 1_655 S
C1032 C1029 1.499 . S
C1032 C1033 1.373 . S
C1032 C1034 1.389 1_655 S
C1033 H1012 0.950 . S
C1033 C1032 1.373 . S
C1033 C1049 1.377 . S
C1034 C1032 1.389 1_455 S
C1034 C1035 1.524 . S
C1034 C1048 1.377 . S
C1035 C1034 1.524 . S
C1035 C1036 1.397 . S
C1035 C1040 1.363 . S
C1036 H1013 0.950 . S
C1036 C1035 1.397 . S
C1036 C1037 1.334 . S
C1037 H1014 0.950 . S
C1037 C1036 1.334 . S
C1037 C1038 1.287 . S
C1038 C1037 1.287 . S
C1038 C1039 1.524 . S
C1038 H1057 0.913 . S
C1039 H1015 0.950 . S
C1039 C1038 1.524 . S
C1039 C1040 1.415 . S
C1040 H1016 0.950 . S
C1040 C1035 1.363 . S
C1040 C1039 1.415 . S
C1041 H1017 0.951 . S
C1041 C1042 1.366 . S
C1041 C1043 1.388 . S
C1042 C1041 1.366 . S
C1042 C1046 1.385 . S
C1043 H1018 0.951 . S
C1043 C1041 1.388 . S
C1043 C1044 1.366 . S
C1044 C1043 1.366 . S
C1044 C1045 1.424 . S
C1044 C1047 1.499 . S
C1045 H1019 0.934 1_455 S
C1045 C1044 1.424 . S
C1045 C1046 1.381 . S
C1046 H1020 0.955 . S
C1046 C1042 1.385 . S
C1046 C1045 1.381 . S
C1047 C1044 1.499 . S
C1047 C1048 1.373 . S
C1047 C1049 1.389 1_455 S
C1048 H1021 0.950 . S
C1048 C1034 1.377 . S
C1048 C1047 1.373 . S
C1049 C1033 1.377 . S
C1049 C1047 1.389 1_655 S
C1049 C1050 1.524 . S
C1050 C1049 1.524 . S
C1050 C1051 1.397 . S
C1050 C1055 1.363 . S
C1051 H1022 0.950 . S
C1051 C1050 1.397 . S
C1051 C1052 1.334 . S
C1052 H1023 0.950 . S
C1052 C1051 1.334 . S
C1052 C1053 1.287 . S
C1053 C1052 1.287 . S
C1053 C1054 1.524 . S
C1053 H1056 0.999 . S
C1054 H1024 0.950 . S
C1054 C1053 1.524 . S
C1054 C1055 1.415 . S
C1055 H1025 0.950 . S
C1055 C1050 1.363 . S
C1055 C1054 1.415 . S
H1056 C1053 0.999 . S
H1057 C1038 0.913 . S
H1058 C1076 0.951 . S
H1059 C1078 0.951 . S
H1060 C1080 0.950 . S
H1061 C1081 0.950 . S
H1062 C1083 0.950 . S
H1063 C1086 0.950 . S
H1064 C1087 0.950 . S
H1065 C1089 0.950 . S
H1066 C1090 0.950 . S
H1067 C1091 0.951 . S
H1068 C1093 0.951 . S
H1069 C1095 0.950 . S
H1070 C1096 0.950 . S
H1071 C1098 0.950 . S
H1072 C1101 0.950 . S
H1073 C1102 0.950 . S
H1074 C1104 0.950 . S
H1075 C1105 0.950 . S
C1076 H1058 0.951 . S
C1076 C1077 1.366 . S
C1076 C1078 1.388 . S
C1077 C1076 1.366 . S
C1077 C1081 1.385 . S
C1078 H1059 0.951 . S
C1078 C1076 1.388 . S
C1078 C1079 1.366 . S
C1079 C1078 1.366 . S
C1079 C1080 1.414 . S
C1079 C1082 1.499 . S
C1080 H1060 0.950 . S
C1080 C1079 1.414 . S
C1080 C1081 1.374 . S
C1081 H1061 0.950 . S
C1081 C1077 1.385 . S
C1081 C1080 1.374 . S
C1082 C1079 1.499 . S
C1082 C1083 1.373 1_545 S
C1082 C1084 1.389 . S
C1083 H1062 0.950 . S
C1083 C1082 1.373 1_565 S
C1083 C1099 1.377 . S
C1084 C1082 1.389 . S
C1084 C1085 1.524 . S
C1084 C1098 1.377 . S
C1085 C1084 1.524 . S
C1085 C1086 1.397 . S
C1085 C1090 1.363 . S
C1086 H1063 0.950 . S
C1086 C1085 1.397 . S
C1086 C1087 1.334 . S
C1087 H1064 0.950 . S
C1087 C1086 1.334 . S
C1087 C1088 1.287 . S
C1088 C1087 1.287 . S
C1088 C1089 1.524 . S
C1088 H1107 0.913 . S
C1089 H1065 0.950 . S
C1089 C1088 1.524 . S
C1089 C1090 1.415 . S
C1090 H1066 0.950 . S
C1090 C1085 1.363 . S
C1090 C1089 1.415 . S
C1091 H1067 0.951 . S
C1091 C1092 1.366 . S
C1091 C1093 1.388 . S
C1092 C1091 1.366 . S
C1092 C1096 1.385 . S
C1093 H1068 0.951 . S
C1093 C1091 1.388 . S
C1093 C1094 1.366 . S
C1094 C1093 1.366 . S
C1094 C1095 1.414 . S
C1094 C1097 1.499 . S
C1095 H1069 0.950 . S
C1095 C1094 1.414 . S
C1095 C1096 1.374 . S
C1096 H1070 0.950 . S
C1096 C1092 1.385 . S
C1096 C1095 1.374 . S
C1097 C1094 1.499 . S
C1097 C1098 1.373 1_565 S
C1097 C1099 1.389 . S
C1098 H1071 0.950 . S
C1098 C1084 1.377 . S
C1098 C1097 1.373 1_545 S
C1099 C1083 1.377 . S
C1099 C1097 1.389 . S
C1099 C1100 1.524 . S
C1100 C1099 1.524 . S
C1100 C1101 1.397 . S
C1100 C1105 1.363 . S
C1101 H1072 0.950 . S
C1101 C1100 1.397 . S
C1101 C1102 1.334 . S
C1102 H1073 0.950 . S
C1102 C1101 1.334 . S
C1102 C1103 1.287 . S
C1103 C1102 1.287 . S
C1103 C1104 1.524 . S
C1103 H1106 0.999 . S
C1104 H1074 0.950 . S
C1104 C1103 1.524 . S
C1104 C1105 1.415 . S
C1105 H1075 0.950 . S
C1105 C1100 1.363 . S
C1105 C1104 1.415 . S
H1106 C1103 0.999 . S
H1107 C1088 0.913 . S
H1108 C1126 0.951 . S
H1109 C1128 0.951 . S
H1110 C1130 0.950 . S
H1111 C1131 0.950 . S
H1112 C1133 0.950 . S
H1113 C1136 0.950 1_554 S
H1114 C1137 0.950 . S
H1115 C1139 0.950 . S
H1116 C1140 0.950 . S
H1117 C1141 0.951 . S
H1118 C1143 0.951 . S
H1119 C1145 0.950 . S
H1120 C1146 0.950 . S
H1121 C1148 0.950 . S
H1122 C1151 0.950 1_556 S
H1123 C1152 0.950 . S
H1124 C1154 0.950 . S
H1125 C1155 0.950 . S
C1126 H1108 0.951 . S
C1126 C1127 1.366 . S
C1126 C1128 1.388 . S
C1127 C1126 1.366 . S
C1127 C1131 1.385 1_556 S
C1128 H1109 0.951 . S
C1128 C1126 1.388 . S
C1128 C1129 1.366 . S
C1129 C1128 1.366 . S
C1129 C1130 1.414 1_556 S
C1129 C1132 1.506 . S
C1130 H1110 0.950 . S
C1130 C1129 1.414 1_554 S
C1130 C1131 1.374 . S
C1131 H1111 0.950 . S
C1131 C1127 1.385 1_554 S
C1131 C1130 1.374 . S
C1132 C1129 1.506 . S
C1132 C1133 1.354 1_556 S
C1132 C1134 1.406 . S
C1133 H1112 0.950 . S
C1133 C1132 1.354 1_554 S
C1133 C1149 1.377 . S
C1134 C1132 1.406 . S
C1134 C1135 1.524 . S
C1134 C1148 1.377 . S
C1135 C1134 1.524 . S
C1135 C1136 1.397 . S
C1135 C1140 1.363 . S
C1136 H1113 0.950 1_556 S
C1136 C1135 1.397 . S
C1136 C1137 1.334 . S
C1137 H1114 0.950 . S
C1137 C1136 1.334 . S
C1137 C1138 1.287 . S
C1138 C1137 1.287 . S
C1138 C1139 1.524 . S
C1138 H1157 0.913 . S
C1139 H1115 0.950 . S
C1139 C1138 1.524 . S
C1139 C1140 1.415 . S
C1140 H1116 0.950 . S
C1140 C1135 1.363 . S
C1140 C1139 1.415 . S
C1141 H1117 0.951 . S
C1141 C1142 1.366 . S
C1141 C1143 1.388 . S
C1142 C1141 1.366 . S
C1142 C1146 1.385 1_554 S
C1143 H1118 0.951 . S
C1143 C1141 1.388 . S
C1143 C1144 1.366 . S
C1144 C1143 1.366 . S
C1144 C1145 1.414 1_554 S
C1144 C1147 1.499 . S
C1145 H1119 0.950 . S
C1145 C1144 1.414 1_556 S
C1145 C1146 1.374 . S
C1146 H1120 0.950 . S
C1146 C1142 1.385 1_556 S
C1146 C1145 1.374 . S
C1147 C1144 1.499 . S
C1147 C1148 1.373 1_554 S
C1147 C1149 1.389 . S
C1148 H1121 0.950 . S
C1148 C1134 1.377 . S
C1148 C1147 1.373 1_556 S
C1149 C1133 1.377 . S
C1149 C1147 1.389 . S
C1149 C1150 1.524 . S
C1150 C1149 1.524 . S
C1150 C1151 1.397 . S
C1150 C1155 1.363 . S
C1151 H1122 0.950 1_554 S
C1151 C1150 1.397 . S
C1151 C1152 1.334 . S
C1152 H1123 0.950 . S
C1152 C1151 1.334 . S
C1152 C1153 1.287 . S
C1153 C1152 1.287 . S
C1153 C1154 1.524 . S
C1153 H1156 0.999 . S
C1154 H1124 0.950 . S
C1154 C1153 1.524 . S
C1154 C1155 1.415 . S
C1155 H1125 0.950 . S
C1155 C1150 1.363 . S
C1155 C1154 1.415 . S
H1156 C1153 0.999 . S
H1157 C1138 0.913 . S
H1158 C1176 0.951 . S
H1159 C1178 0.951 . S
H1160 C1180 0.950 . S
H1161 C1181 0.950 . S
H1162 C1183 0.950 . S
H1163 C1186 0.950 . S
H1164 C1187 0.950 . S
H1165 C1189 0.950 . S
H1166 C1190 0.950 . S
H1167 C1191 0.951 . S
H1168 C1193 0.951 . S
H1169 C1195 0.950 . S
H1170 C1196 0.950 . S
H1171 C1198 0.950 . S
H1172 C1201 0.950 . S
H1173 C1202 0.950 . S
H1174 C1204 0.950 . S
H1175 C1205 0.950 . S
C1176 H1158 0.951 . S
C1176 C1177 1.366 . S
C1176 C1178 1.388 . S
C1177 C1176 1.366 . S
C1177 C1181 1.385 . S
C1178 H1159 0.951 . S
C1178 C1176 1.388 . S
C1178 C1179 1.366 . S
C1179 C1178 1.366 . S
C1179 C1180 1.414 . S
C1179 C1182 1.499 . S
C1180 H1160 0.950 . S
C1180 C1179 1.414 . S
C1180 C1181 1.374 . S
C1181 H1161 0.950 . S
C1181 C1177 1.385 . S
C1181 C1180 1.374 . S
C1182 C1179 1.499 . S
C1182 C1183 1.373 1_556 S
C1182 C1184 1.389 . S
C1183 H1162 0.950 . S
C1183 C1182 1.373 1_554 S
C1183 C1199 1.377 . S
C1184 C1182 1.389 . S
C1184 C1185 1.524 . S
C1184 C1198 1.377 . S
C1185 C1184 1.524 . S
C1185 C1186 1.397 . S
C1185 C1190 1.363 . S
C1186 H1163 0.950 . S
C1186 C1185 1.397 . S
C1186 C1187 1.334 . S
C1187 H1164 0.950 . S
C1187 C1186 1.334 . S
C1187 C1188 1.287 . S
C1188 C1187 1.287 . S
C1188 C1189 1.524 . S
C1188 H1207 0.913 . S
C1189 H1165 0.950 . S
C1189 C1188 1.524 . S
C1189 C1190 1.415 . S
C1190 H1166 0.950 . S
C1190 C1185 1.363 . S
C1190 C1189 1.415 . S
C1191 H1167 0.951 . S
C1191 C1192 1.366 . S
C1191 C1193 1.388 . S
C1192 C1191 1.366 . S
C1192 C1196 1.385 . S
C1193 H1168 0.951 . S
C1193 C1191 1.388 . S
C1193 C1194 1.366 . S
C1194 C1193 1.366 . S
C1194 C1195 1.414 . S
C1194 C1197 1.499 . S
C1195 H1169 0.950 . S
C1195 C1194 1.414 . S
C1195 C1196 1.374 . S
C1196 H1170 0.950 . S
C1196 C1192 1.385 . S
C1196 C1195 1.374 . S
C1197 C1194 1.499 . S
C1197 C1198 1.373 1_554 S
C1197 C1199 1.389 . S
C1198 H1171 0.950 . S
C1198 C1184 1.377 . S
C1198 C1197 1.373 1_556 S
C1199 C1183 1.377 . S
C1199 C1197 1.389 . S
C1199 C1200 1.524 . S
C1200 C1199 1.524 . S
C1200 C1201 1.397 . S
C1200 C1205 1.363 . S
C1201 H1172 0.950 . S
C1201 C1200 1.397 . S
C1201 C1202 1.334 . S
C1202 H1173 0.950 . S
C1202 C1201 1.334 . S
C1202 C1203 1.287 . S
C1203 C1202 1.287 . S
C1203 C1204 1.524 . S
C1203 H1206 0.999 . S
C1204 H1174 0.950 . S
C1204 C1203 1.524 . S
C1204 C1205 1.415 . S
C1205 H1175 0.950 . S
C1205 C1200 1.363 . S
C1205 C1204 1.415 . S
H1206 C1203 0.999 . S
H1207 C1188 0.913 . S
H1208 C1226 0.951 . S
H1209 C1228 0.951 . S
H1210 C1230 0.950 . S
H1211 C1231 0.950 . S
H1212 C1233 0.950 . S
H1213 C1236 0.950 . S
H1214 C1237 0.950 . S
H1215 C1239 0.950 . S
H1216 C1240 0.950 . S
H1217 C1241 0.951 . S
H1218 C1243 0.951 . S
H1219 C1245 0.950 . S
H1220 C1246 0.950 . S
H1221 C1248 0.950 . S
H1222 C1251 0.950 . S
H1223 C1252 0.950 . S
H1224 C1254 0.950 . S
H1225 C1255 0.950 . S
C1226 H1208 0.951 . S
C1226 C1227 1.366 . S
C1226 C1228 1.388 . S
C1227 C1226 1.366 . S
C1227 C1231 1.385 . S
C1228 H1209 0.951 . S
C1228 C1226 1.388 . S
C1228 C1229 1.366 . S
C1229 C1228 1.366 . S
C1229 C1230 1.414 . S
C1229 C1232 1.499 . S
C1230 H1210 0.950 . S
C1230 C1229 1.414 . S
C1230 C1231 1.374 . S
C1231 H1211 0.950 . S
C1231 C1227 1.385 . S
C1231 C1230 1.374 . S
C1232 C1229 1.499 . S
C1232 C1233 1.373 . S
C1232 C1234 1.389 1_554 S
C1233 H1212 0.950 . S
C1233 C1232 1.373 . S
C1233 C1249 1.377 . S
C1234 C1232 1.389 1_556 S
C1234 C1235 1.524 . S
C1234 C1248 1.377 . S
C1235 C1234 1.524 . S
C1235 C1236 1.397 . S
C1235 C1240 1.363 . S
C1236 H1213 0.950 . S
C1236 C1235 1.397 . S
C1236 C1237 1.334 . S
C1237 H1214 0.950 . S
C1237 C1236 1.334 . S
C1237 C1238 1.287 . S
C1238 C1237 1.287 . S
C1238 C1239 1.524 . S
C1238 H1257 0.913 . S
C1239 H1215 0.950 . S
C1239 C1238 1.524 . S
C1239 C1240 1.415 . S
C1240 H1216 0.950 . S
C1240 C1235 1.363 . S
C1240 C1239 1.415 . S
C1241 H1217 0.951 . S
C1241 C1242 1.366 . S
C1241 C1243 1.388 . S
C1242 C1241 1.366 . S
C1242 C1246 1.385 . S
C1243 H1218 0.951 . S
C1243 C1241 1.388 . S
C1243 C1244 1.366 . S
C1244 C1243 1.366 . S
C1244 C1245 1.414 . S
C1244 C1247 1.499 . S
C1245 H1219 0.950 . S
C1245 C1244 1.414 . S
C1245 C1246 1.374 . S
C1246 H1220 0.950 . S
C1246 C1242 1.385 . S
C1246 C1245 1.374 . S
C1247 C1244 1.499 . S
C1247 C1248 1.373 . S
C1247 C1249 1.389 1_556 S
C1248 H1221 0.950 . S
C1248 C1234 1.377 . S
C1248 C1247 1.373 . S
C1249 C1233 1.377 . S
C1249 C1247 1.389 1_554 S
C1249 C1250 1.524 . S
C1250 C1249 1.524 . S
C1250 C1251 1.397 . S
C1250 C1255 1.363 . S
C1251 H1222 0.950 . S
C1251 C1250 1.397 . S
C1251 C1252 1.334 . S
C1252 H1223 0.950 . S
C1252 C1251 1.334 . S
C1252 C1253 1.287 . S
C1253 C1252 1.287 . S
C1253 C1254 1.524 . S
C1253 H1256 0.999 . S
C1254 H1224 0.950 . S
C1254 C1253 1.524 . S
C1254 C1255 1.415 . S
C1255 H1225 0.950 . S
C1255 C1250 1.363 . S
C1255 C1254 1.415 . S
H1256 C1253 0.999 . S
H1257 C1238 0.913 . S
H1258 C1276 0.935 1_556 S
H1259 C1278 0.951 . S
H1260 C1280 0.950 . S
H1261 C1281 0.950 . S
H1262 C1283 0.950 . S
H1263 C1286 0.950 . S
H1264 C1287 0.950 . S
H1265 C1289 0.950 . S
H1266 C1290 0.950 . S
H1267 C1291 0.951 . S
H1268 C1293 0.951 . S
H1269 C1295 0.950 . S
H1270 C1296 0.950 . S
H1271 C1298 0.950 . S
H1272 C1301 0.950 . S
H1273 C1302 0.950 . S
H1274 C1304 0.950 . S
H1275 C1305 0.950 . S
C1276 H1258 0.935 1_554 S
C1276 C1277 1.388 . S
C1276 C1278 1.383 1_554 S
C1277 C1276 1.388 . S
C1277 C1281 1.385 . S
C1278 H1259 0.951 . S
C1278 C1276 1.383 1_556 S
C1278 C1279 1.366 1_556 S
C1279 C1278 1.366 1_554 S
C1279 C1280 1.414 . S
C1279 C1282 1.499 . S
C1280 H1260 0.950 . S
C1280 C1279 1.414 . S
C1280 C1281 1.374 . S
C1281 H1261 0.950 . S
C1281 C1277 1.385 . S
C1281 C1280 1.374 . S
C1282 C1279 1.499 . S
C1282 C1283 1.373 . S
C1282 C1284 1.389 1_554 S
C1283 H1262 0.950 . S
C1283 C1282 1.373 . S
C1283 C1299 1.377 . S
C1284 C1282 1.389 1_556 S
C1284 C1285 1.524 . S
C1284 C1298 1.377 . S
C1285 C1284 1.524 . S
C1285 C1286 1.397 . S
C1285 C1290 1.363 . S
C1286 H1263 0.950 . S
C1286 C1285 1.397 . S
C1286 C1287 1.334 . S
C1287 H1264 0.950 . S
C1287 C1286 1.334 . S
C1287 C1288 1.287 . S
C1288 C1287 1.287 . S
C1288 C1289 1.524 . S
C1288 H1307 0.913 . S
C1289 H1265 0.950 . S
C1289 C1288 1.524 . S
C1289 C1290 1.415 . S
C1290 H1266 0.950 . S
C1290 C1285 1.363 . S
C1290 C1289 1.415 . S
C1291 H1267 0.951 . S
C1291 C1292 1.366 1_554 S
C1291 C1293 1.388 . S
C1292 C1291 1.366 1_556 S
C1292 C1296 1.385 . S
C1293 H1268 0.951 . S
C1293 C1291 1.388 . S
C1293 C1294 1.366 1_554 S
C1294 C1293 1.366 1_556 S
C1294 C1295 1.414 . S
C1294 C1297 1.499 . S
C1295 H1269 0.950 . S
C1295 C1294 1.414 . S
C1295 C1296 1.374 . S
C1296 H1270 0.950 . S
C1296 C1292 1.385 . S
C1296 C1295 1.374 . S
C1297 C1294 1.499 . S
C1297 C1298 1.373 . S
C1297 C1299 1.389 1_556 S
C1298 H1271 0.950 . S
C1298 C1284 1.377 . S
C1298 C1297 1.373 . S
C1299 C1283 1.377 . S
C1299 C1297 1.389 1_554 S
C1299 C1300 1.524 . S
C1300 C1299 1.524 . S
C1300 C1301 1.397 . S
C1300 C1305 1.363 . S
C1301 H1272 0.950 . S
C1301 C1300 1.397 . S
C1301 C1302 1.334 . S
C1302 H1273 0.950 . S
C1302 C1301 1.334 . S
C1302 C1303 1.287 . S
C1303 C1302 1.287 . S
C1303 C1304 1.524 . S
C1303 H1306 0.999 . S
C1304 H1274 0.950 . S
C1304 C1303 1.524 . S
C1304 C1305 1.415 . S
C1305 H1275 0.950 . S
C1305 C1300 1.363 . S
C1305 C1304 1.415 . S
H1306 C1303 0.999 . S
H1307 C1288 0.913 . S
H1308 C1326 0.951 . S
H1309 C1328 0.951 . S
H1310 C1330 0.950 . S
H1311 C1331 0.950 . S
H1312 C1333 0.950 . S
H1313 C1336 0.950 . S
H1314 C1337 0.950 . S
H1315 C1339 0.950 . S
H1316 C1340 0.950 . S
H1317 C1341 0.951 . S
H1318 C1343 0.951 . S
H1319 C1345 0.950 . S
H1320 C1346 0.950 . S
H1321 C1348 0.950 . S
H1322 C1351 0.950 . S
H1323 C1352 0.950 . S
H1324 C1354 0.950 . S
H1325 C1355 0.950 . S
C1326 H1308 0.951 . S
C1326 C1327 1.366 . S
C1326 C1328 1.388 . S
C1327 C1326 1.366 . S
C1327 C1331 1.385 . S
C1328 H1309 0.951 . S
C1328 C1326 1.388 . S
C1328 C1329 1.366 . S
C1329 C1328 1.366 . S
C1329 C1330 1.414 . S
C1329 C1332 1.499 . S
C1330 H1310 0.950 . S
C1330 C1329 1.414 . S
C1330 C1331 1.374 . S
C1331 H1311 0.950 . S
C1331 C1327 1.385 . S
C1331 C1330 1.374 . S
C1332 C1329 1.499 . S
C1332 C1333 1.373 . S
C1332 C1334 1.389 . S
C1333 H1312 0.950 . S
C1333 C1332 1.373 . S
C1333 C1349 1.377 . S
C1334 C1332 1.389 . S
C1334 C1335 1.524 . S
C1334 C1348 1.377 . S
C1335 C1334 1.524 . S
C1335 C1336 1.397 . S
C1335 C1340 1.363 . S
C1336 H1313 0.950 . S
C1336 C1335 1.397 . S
C1336 C1337 1.334 . S
C1337 H1314 0.950 . S
C1337 C1336 1.334 . S
C1337 C1338 1.287 . S
C1338 C1337 1.287 . S
C1338 C1339 1.524 . S
C1338 H1357 0.913 . S
C1339 H1315 0.950 . S
C1339 C1338 1.524 . S
C1339 C1340 1.415 . S
C1340 H1316 0.950 . S
C1340 C1335 1.363 . S
C1340 C1339 1.415 . S
C1341 H1317 0.951 . S
C1341 C1342 1.366 . S
C1341 C1343 1.388 . S
C1342 C1341 1.366 . S
C1342 C1346 1.385 . S
C1343 H1318 0.951 . S
C1343 C1341 1.388 . S
C1343 C1344 1.366 . S
C1344 C1343 1.366 . S
C1344 C1345 1.414 . S
C1344 C1347 1.499 . S
C1345 H1319 0.950 . S
C1345 C1344 1.414 . S
C1345 C1346 1.374 . S
C1346 H1320 0.950 . S
C1346 C1342 1.385 . S
C1346 C1345 1.374 . S
C1347 C1344 1.499 . S
C1347 C1348 1.373 . S
C1347 C1349 1.389 . S
C1348 H1321 0.950 . S
C1348 C1334 1.377 . S
C1348 C1347 1.373 . S
C1349 C1333 1.377 . S
C1349 C1347 1.389 . S
C1349 C1350 1.524 . S
C1350 C1349 1.524 . S
C1350 C1351 1.397 . S
C1350 C1355 1.363 . S
C1351 H1322 0.950 . S
C1351 C1350 1.397 . S
C1351 C1352 1.334 . S
C1352 H1323 0.950 . S
C1352 C1351 1.334 . S
C1352 C1353 1.287 . S
C1353 C1352 1.287 . S
C1353 C1354 1.524 . S
C1353 H1356 0.999 . S
C1354 H1324 0.950 . S
C1354 C1353 1.524 . S
C1354 C1355 1.415 . S
C1355 H1325 0.950 . S
C1355 C1350 1.363 . S
C1355 C1354 1.415 . S
H1356 C1353 0.999 . S
H1357 C1338 0.913 . S
H1358 C1376 0.951 . S
H1359 C1378 0.951 . S
H1360 C1380 0.950 . S
H1361 C1381 0.950 . S
H1362 C1383 0.950 . S
H1363 C1386 0.950 . S
H1364 C1387 0.950 . S
H1365 C1389 0.950 . S
H1366 C1390 0.950 . S
H1367 C1391 0.951 . S
H1368 C1393 0.951 . S
H1369 C1395 0.950 . S
H1370 C1396 0.950 . S
H1371 C1398 0.950 . S
H1372 C1401 0.950 . S
H1373 C1402 0.950 . S
H1374 C1404 0.950 . S
H1375 C1405 0.950 . S
C1376 H1358 0.951 . S
C1376 C1377 1.366 . S
C1376 C1378 1.388 . S
C1377 C1376 1.366 . S
C1377 C1381 1.385 . S
C1378 H1359 0.951 . S
C1378 C1376 1.388 . S
C1378 C1379 1.366 . S
C1379 C1378 1.366 . S
C1379 C1380 1.414 . S
C1379 C1382 1.499 . S
C1380 H1360 0.950 . S
C1380 C1379 1.414 . S
C1380 C1381 1.374 . S
C1381 H1361 0.950 . S
C1381 C1377 1.385 . S
C1381 C1380 1.374 . S
C1382 C1379 1.499 . S
C1382 C1383 1.373 . S
C1382 C1384 1.389 . S
C1383 H1362 0.950 . S
C1383 C1382 1.373 . S
C1383 C1399 1.377 . S
C1384 C1382 1.389 . S
C1384 C1385 1.524 . S
C1384 C1398 1.377 . S
C1385 C1384 1.524 . S
C1385 C1386 1.397 . S
C1385 C1390 1.363 . S
C1386 H1363 0.950 . S
C1386 C1385 1.397 . S
C1386 C1387 1.334 . S
C1387 H1364 0.950 . S
C1387 C1386 1.334 . S
C1387 C1388 1.287 . S
C1388 C1387 1.287 . S
C1388 C1389 1.524 . S
C1388 H1407 0.913 . S
C1389 H1365 0.950 . S
C1389 C1388 1.524 . S
C1389 C1390 1.415 . S
C1390 H1366 0.950 . S
C1390 C1385 1.363 . S
C1390 C1389 1.415 . S
C1391 H1367 0.951 . S
C1391 C1392 1.366 . S
C1391 C1393 1.388 . S
C1392 C1391 1.366 . S
C1392 C1396 1.385 . S
C1393 H1368 0.951 . S
C1393 C1391 1.388 . S
C1393 C1394 1.366 . S
C1394 C1393 1.366 . S
C1394 C1395 1.414 . S
C1394 C1397 1.499 . S
C1395 H1369 0.950 . S
C1395 C1394 1.414 . S
C1395 C1396 1.374 . S
C1396 H1370 0.950 . S
C1396 C1392 1.385 . S
C1396 C1395 1.374 . S
C1397 C1394 1.499 . S
C1397 C1398 1.373 . S
C1397 C1399 1.389 . S
C1398 H1371 0.950 . S
C1398 C1384 1.377 . S
C1398 C1397 1.373 . S
C1399 C1383 1.377 . S
C1399 C1397 1.389 . S
C1399 C1400 1.524 . S
C1400 C1399 1.524 . S
C1400 C1401 1.397 . S
C1400 C1405 1.363 . S
C1401 H1372 0.950 . S
C1401 C1400 1.397 . S
C1401 C1402 1.334 . S
C1402 H1373 0.950 . S
C1402 C1401 1.334 . S
C1402 C1403 1.287 . S
C1403 C1402 1.287 . S
C1403 C1404 1.524 . S
C1403 H1406 0.999 . S
C1404 H1374 0.950 . S
C1404 C1403 1.524 . S
C1404 C1405 1.415 . S
C1405 H1375 0.950 . S
C1405 C1400 1.363 . S
C1405 C1404 1.415 . S
H1406 C1403 0.999 . S
H1407 C1388 0.913 . S
H1408 C1426 0.951 . S
H1409 C1428 0.951 . S
H1410 C1430 0.950 . S
H1411 C1431 0.950 . S
H1412 C1433 0.950 . S
H1413 C1436 0.950 . S
H1414 C1437 0.950 . S
H1415 C1439 0.950 . S
H1416 C1440 0.950 . S
H1417 C1441 0.951 . S
H1418 C1443 0.951 . S
H1419 C1445 0.950 . S
H1420 C1446 0.950 . S
H1421 C1448 0.950 . S
H1422 C1451 0.950 . S
H1423 C1452 0.950 . S
H1424 C1454 0.950 . S
H1425 C1455 0.950 . S
C1426 H1408 0.951 . S
C1426 C1427 1.366 . S
C1426 C1428 1.388 . S
C1427 C1426 1.366 . S
C1427 C1431 1.385 . S
C1428 H1409 0.951 . S
C1428 C1426 1.388 . S
C1428 C1429 1.366 . S
C1429 C1428 1.366 . S
C1429 C1430 1.414 . S
C1429 C1432 1.499 . S
C1430 H1410 0.950 . S
C1430 C1429 1.414 . S
C1430 C1431 1.374 . S
C1431 H1411 0.950 . S
C1431 C1427 1.385 . S
C1431 C1430 1.374 . S
C1432 C1429 1.499 . S
C1432 C1433 1.373 . S
C1432 C1434 1.389 . S
C1433 H1412 0.950 . S
C1433 C1432 1.373 . S
C1433 C1449 1.377 . S
C1434 C1432 1.389 . S
C1434 C1435 1.524 . S
C1434 C1448 1.377 . S
C1435 C1434 1.524 . S
C1435 C1436 1.397 . S
C1435 C1440 1.363 . S
C1436 H1413 0.950 . S
C1436 C1435 1.397 . S
C1436 C1437 1.334 . S
C1437 H1414 0.950 . S
C1437 C1436 1.334 . S
C1437 C1438 1.287 . S
C1438 C1437 1.287 . S
C1438 C1439 1.524 . S
C1438 H1457 0.913 . S
C1439 H1415 0.950 . S
C1439 C1438 1.524 . S
C1439 C1440 1.415 . S
C1440 H1416 0.950 . S
C1440 C1435 1.363 . S
C1440 C1439 1.415 . S
C1441 H1417 0.951 . S
C1441 C1442 1.366 . S
C1441 C1443 1.388 . S
C1442 C1441 1.366 . S
C1442 C1446 1.385 . S
C1443 H1418 0.951 . S
C1443 C1441 1.388 . S
C1443 C1444 1.366 . S
C1444 C1443 1.366 . S
C1444 C1445 1.414 . S
C1444 C1447 1.499 . S
C1445 H1419 0.950 . S
C1445 C1444 1.414 . S
C1445 C1446 1.374 . S
C1446 H1420 0.950 . S
C1446 C1442 1.385 . S
C1446 C1445 1.374 . S
C1447 C1444 1.499 . S
C1447 C1448 1.373 . S
C1447 C1449 1.389 . S
C1448 H1421 0.950 . S
C1448 C1434 1.377 . S
C1448 C1447 1.373 . S
C1449 C1433 1.377 . S
C1449 C1447 1.389 . S
C1449 C1450 1.524 . S
C1450 C1449 1.524 . S
C1450 C1451 1.397 . S
C1450 C1455 1.363 . S
C1451 H1422 0.950 . S
C1451 C1450 1.397 . S
C1451 C1452 1.334 . S
C1452 H1423 0.950 . S
C1452 C1451 1.334 . S
C1452 C1453 1.287 . S
C1453 C1452 1.287 . S
C1453 C1454 1.524 . S
C1453 H1456 0.999 . S
C1454 H1424 0.950 . S
C1454 C1453 1.524 . S
C1454 C1455 1.415 . S
C1455 H1425 0.950 . S
C1455 C1450 1.363 . S
C1455 C1454 1.415 . S
H1456 C1453 0.999 . S
H1457 C1438 0.913 . S
H1458 C1476 0.951 . S
H1459 C1478 0.951 . S
H1460 C1480 0.950 . S
H1461 C1481 0.950 . S
H1462 C1483 0.950 . S
H1463 C1486 0.950 . S
H1464 C1487 0.950 . S
H1465 C1489 0.950 . S
H1466 C1490 0.950 . S
H1467 C1491 0.951 . S
H1468 C1493 0.951 . S
H1469 C1495 0.950 . S
H1470 C1496 0.950 . S
H1471 C1498 0.950 . S
H1472 C1501 0.950 . S
H1473 C1502 0.950 . S
H1474 C1504 0.950 . S
H1475 C1505 0.950 . S
C1476 H1458 0.951 . S
C1476 C1477 1.366 . S
C1476 C1478 1.388 . S
C1477 C1476 1.366 . S
C1477 C1481 1.385 . S
C1478 H1459 0.951 . S
C1478 C1476 1.388 . S
C1478 C1479 1.366 . S
C1479 C1478 1.366 . S
C1479 C1480 1.414 . S
C1479 C1482 1.499 . S
C1480 H1460 0.950 . S
C1480 C1479 1.414 . S
C1480 C1481 1.374 . S
C1481 H1461 0.950 . S
C1481 C1477 1.385 . S
C1481 C1480 1.374 . S
C1482 C1479 1.499 . S
C1482 C1483 1.373 . S
C1482 C1484 1.389 . S
C1483 H1462 0.950 . S
C1483 C1482 1.373 . S
C1483 C1499 1.377 . S
C1484 C1482 1.389 . S
C1484 C1485 1.524 . S
C1484 C1498 1.377 . S
C1485 C1484 1.524 . S
C1485 C1486 1.397 . S
C1485 C1490 1.363 . S
C1486 H1463 0.950 . S
C1486 C1485 1.397 . S
C1486 C1487 1.334 . S
C1487 H1464 0.950 . S
C1487 C1486 1.334 . S
C1487 C1488 1.287 . S
C1488 C1487 1.287 . S
C1488 C1489 1.524 . S
C1488 H1507 0.913 . S
C1489 H1465 0.950 . S
C1489 C1488 1.524 . S
C1489 C1490 1.415 . S
C1490 H1466 0.950 . S
C1490 C1485 1.363 . S
C1490 C1489 1.415 . S
C1491 H1467 0.951 . S
C1491 C1492 1.366 . S
C1491 C1493 1.388 . S
C1492 C1491 1.366 . S
C1492 C1496 1.385 . S
C1493 H1468 0.951 . S
C1493 C1491 1.388 . S
C1493 C1494 1.366 . S
C1494 C1493 1.366 . S
C1494 C1495 1.414 . S
C1494 C1497 1.499 . S
C1495 H1469 0.950 . S
C1495 C1494 1.414 . S
C1495 C1496 1.374 . S
C1496 H1470 0.950 . S
C1496 C1492 1.385 . S
C1496 C1495 1.374 . S
C1497 C1494 1.499 . S
C1497 C1498 1.373 . S
C1497 C1499 1.389 . S
C1498 H1471 0.950 . S
C1498 C1484 1.377 . S
C1498 C1497 1.373 . S
C1499 C1483 1.377 . S
C1499 C1497 1.389 . S
C1499 C1500 1.524 . S
C1500 C1499 1.524 . S
C1500 C1501 1.397 . S
C1500 C1505 1.363 . S
C1501 H1472 0.950 . S
C1501 C1500 1.397 . S
C1501 C1502 1.334 . S
C1502 H1473 0.950 . S
C1502 C1501 1.334 . S
C1502 C1503 1.287 . S
C1503 C1502 1.287 . S
C1503 C1504 1.524 . S
C1503 H1506 0.999 . S
C1504 H1474 0.950 . S
C1504 C1503 1.524 . S
C1504 C1505 1.415 . S
C1505 H1475 0.950 . S
C1505 C1500 1.363 . S
C1505 C1504 1.415 . S
H1506 C1503 0.999 . S
H1507 C1488 0.913 . S
H1508 C1526 0.951 . S
H1509 C1528 0.951 . S
H1510 C1530 0.950 . S
H1511 C1531 0.950 . S
H1512 C1533 0.950 . S
H1513 C1536 0.950 . S
H1514 C1537 0.950 . S
H1515 C1539 0.950 . S
H1516 C1540 0.950 . S
H1517 C1541 0.951 . S
H1518 C1543 0.951 . S
H1519 C1545 0.950 . S
H1520 C1546 0.950 . S
H1521 C1548 0.950 . S
H1522 C1551 0.950 . S
H1523 C1552 0.950 . S
H1524 C1554 0.950 . S
H1525 C1555 0.950 . S
C1526 H1508 0.951 . S
C1526 C1527 1.366 . S
C1526 C1528 1.388 . S
C1527 C1526 1.366 . S
C1527 C1531 1.385 . S
C1528 H1509 0.951 . S
C1528 C1526 1.388 . S
C1528 C1529 1.366 . S
C1529 C1528 1.366 . S
C1529 C1530 1.414 . S
C1529 C1532 1.499 . S
C1530 H1510 0.950 . S
C1530 C1529 1.414 . S
C1530 C1531 1.374 . S
C1531 H1511 0.950 . S
C1531 C1527 1.385 . S
C1531 C1530 1.374 . S
C1532 C1529 1.499 . S
C1532 C1533 1.373 . S
C1532 C1534 1.389 . S
C1533 H1512 0.950 . S
C1533 C1532 1.373 . S
C1533 C1549 1.377 . S
C1534 C1532 1.389 . S
C1534 C1535 1.524 . S
C1534 C1548 1.377 . S
C1535 C1534 1.524 . S
C1535 C1536 1.397 . S
C1535 C1540 1.363 . S
C1536 H1513 0.950 . S
C1536 C1535 1.397 . S
C1536 C1537 1.334 . S
C1537 H1514 0.950 . S
C1537 C1536 1.334 . S
C1537 C1538 1.287 . S
C1538 C1537 1.287 . S
C1538 C1539 1.524 . S
C1538 H1557 0.913 . S
C1539 H1515 0.950 . S
C1539 C1538 1.524 . S
C1539 C1540 1.415 . S
C1540 H1516 0.950 . S
C1540 C1535 1.363 . S
C1540 C1539 1.415 . S
C1541 H1517 0.951 . S
C1541 C1542 1.366 . S
C1541 C1543 1.388 . S
C1542 C1541 1.366 . S
C1542 C1546 1.385 . S
C1543 H1518 0.951 . S
C1543 C1541 1.388 . S
C1543 C1544 1.366 . S
C1544 C1543 1.366 . S
C1544 C1545 1.414 . S
C1544 C1547 1.499 . S
C1545 H1519 0.950 . S
C1545 C1544 1.414 . S
C1545 C1546 1.374 . S
C1546 H1520 0.950 . S
C1546 C1542 1.385 . S
C1546 C1545 1.374 . S
C1547 C1544 1.499 . S
C1547 C1548 1.373 . S
C1547 C1549 1.389 . S
C1548 H1521 0.950 . S
C1548 C1534 1.377 . S
C1548 C1547 1.373 . S
C1549 C1533 1.377 . S
C1549 C1547 1.389 . S
C1549 C1550 1.524 . S
C1550 C1549 1.524 . S
C1550 C1551 1.397 . S
C1550 C1555 1.363 . S
C1551 H1522 0.950 . S
C1551 C1550 1.397 . S
C1551 C1552 1.334 . S
C1552 H1523 0.950 . S
C1552 C1551 1.334 . S
C1552 C1553 1.287 . S
C1553 C1552 1.287 . S
C1553 C1554 1.524 . S
C1553 H1556 0.999 . S
C1554 H1524 0.950 . S
C1554 C1553 1.524 . S
C1554 C1555 1.415 . S
C1555 H1525 0.950 . S
C1555 C1550 1.363 . S
C1555 C1554 1.415 . S
H1556 C1553 0.999 . S
H1557 C1538 0.913 . S
H1558 C1576 0.951 . S
H1559 C1578 0.951 . S
H1560 C1580 0.950 . S
H1561 C1581 0.950 . S
H1562 C1583 0.950 . S
H1563 C1586 0.950 . S
H1564 C1587 0.950 . S
H1565 C1589 0.950 . S
H1566 C1590 0.950 . S
H1567 C1591 0.951 . S
H1568 C1593 0.951 . S
H1569 C1595 0.950 . S
H1570 C1596 0.950 . S
H1571 C1598 0.950 . S
H1572 C1601 0.950 . S
H1573 C1602 0.950 . S
H1574 C1604 0.950 . S
H1575 C1605 0.950 . S
C1576 H1558 0.951 . S
C1576 C1577 1.366 . S
C1576 C1578 1.388 . S
C1577 C1576 1.366 . S
C1577 C1581 1.385 . S
C1578 H1559 0.951 . S
C1578 C1576 1.388 . S
C1578 C1579 1.366 . S
C1579 C1578 1.366 . S
C1579 C1580 1.414 . S
C1579 C1582 1.499 . S
C1580 H1560 0.950 . S
C1580 C1579 1.414 . S
C1580 C1581 1.374 . S
C1581 H1561 0.950 . S
C1581 C1577 1.385 . S
C1581 C1580 1.374 . S
C1582 C1579 1.499 . S
C1582 C1583 1.373 . S
C1582 C1584 1.389 . S
C1583 H1562 0.950 . S
C1583 C1582 1.373 . S
C1583 C1599 1.377 . S
C1584 C1582 1.389 . S
C1584 C1585 1.524 . S
C1584 C1598 1.377 . S
C1585 C1584 1.524 . S
C1585 C1586 1.397 . S
C1585 C1590 1.363 . S
C1586 H1563 0.950 . S
C1586 C1585 1.397 . S
C1586 C1587 1.334 . S
C1587 H1564 0.950 . S
C1587 C1586 1.334 . S
C1587 C1588 1.287 . S
C1588 C1587 1.287 . S
C1588 C1589 1.524 . S
C1588 H1607 0.913 . S
C1589 H1565 0.950 . S
C1589 C1588 1.524 . S
C1589 C1590 1.415 . S
C1590 H1566 0.950 . S
C1590 C1585 1.363 . S
C1590 C1589 1.415 . S
C1591 H1567 0.951 . S
C1591 C1592 1.366 . S
C1591 C1593 1.388 . S
C1592 C1591 1.366 . S
C1592 C1596 1.385 . S
C1593 H1568 0.951 . S
C1593 C1591 1.388 . S
C1593 C1594 1.366 . S
C1594 C1593 1.366 . S
C1594 C1595 1.414 . S
C1594 C1597 1.499 . S
C1595 H1569 0.950 . S
C1595 C1594 1.414 . S
C1595 C1596 1.374 . S
C1596 H1570 0.950 . S
C1596 C1592 1.385 . S
C1596 C1595 1.374 . S
C1597 C1594 1.499 . S
C1597 C1598 1.373 . S
C1597 C1599 1.389 . S
C1598 H1571 0.950 . S
C1598 C1584 1.377 . S
C1598 C1597 1.373 . S
C1599 C1583 1.377 . S
C1599 C1597 1.389 . S
C1599 C1600 1.524 . S
C1600 C1599 1.524 . S
C1600 C1601 1.397 . S
C1600 C1605 1.363 . S
C1601 H1572 0.950 . S
C1601 C1600 1.397 . S
C1601 C1602 1.334 . S
C1602 H1573 0.950 . S
C1602 C1601 1.334 . S
C1602 C1603 1.287 . S
C1603 C1602 1.287 . S
C1603 C1604 1.524 . S
C1603 H1606 0.999 . S
C1604 H1574 0.950 . S
C1604 C1603 1.524 . S
C1604 C1605 1.415 . S
C1605 H1575 0.950 . S
C1605 C1600 1.363 . S
C1605 C1604 1.415 . S
H1606 C1603 0.999 . S
H1607 C1588 0.913 . S
H1608 C1626 0.951 . S
H1609 C1628 0.951 . S
H1610 C1630 0.950 . S
H1611 C1631 0.950 . S
H1612 C1633 0.950 . S
H1613 C1636 0.950 . S
H1614 C1637 0.950 . S
H1615 C1639 0.950 . S
H1616 C1640 0.950 . S
H1617 C1641 0.951 . S
H1618 C1643 0.951 . S
H1619 C1645 0.950 . S
H1620 C1646 0.950 . S
H1621 C1648 0.950 . S
H1622 C1651 0.950 . S
H1623 C1652 0.950 . S
H1624 C1654 0.950 . S
H1625 C1655 0.950 . S
C1626 H1608 0.951 . S
C1626 C1627 1.366 . S
C1626 C1628 1.388 . S
C1627 C1626 1.366 . S
C1627 C1631 1.385 . S
C1628 H1609 0.951 . S
C1628 C1626 1.388 . S
C1628 C1629 1.366 . S
C1629 C1628 1.366 . S
C1629 C1630 1.414 . S
C1629 C1632 1.499 . S
C1630 H1610 0.950 . S
C1630 C1629 1.414 . S
C1630 C1631 1.374 . S
C1631 H1611 0.950 . S
C1631 C1627 1.385 . S
C1631 C1630 1.374 . S
C1632 C1629 1.499 . S
C1632 C1633 1.373 . S
C1632 C1634 1.389 . S
C1633 H1612 0.950 . S
C1633 C1632 1.373 . S
C1633 C1649 1.377 . S
C1634 C1632 1.389 . S
C1634 C1635 1.524 . S
C1634 C1648 1.377 . S
C1635 C1634 1.524 . S
C1635 C1636 1.397 . S
C1635 C1640 1.363 . S
C1636 H1613 0.950 . S
C1636 C1635 1.397 . S
C1636 C1637 1.334 . S
C1637 H1614 0.950 . S
C1637 C1636 1.334 . S
C1637 C1638 1.287 . S
C1638 C1637 1.287 . S
C1638 C1639 1.524 . S
C1638 H1657 0.913 . S
C1639 H1615 0.950 . S
C1639 C1638 1.524 . S
C1639 C1640 1.415 . S
C1640 H1616 0.950 . S
C1640 C1635 1.363 . S
C1640 C1639 1.415 . S
C1641 H1617 0.951 . S
C1641 C1642 1.366 . S
C1641 C1643 1.388 . S
C1642 C1641 1.366 . S
C1642 C1646 1.385 . S
C1643 H1618 0.951 . S
C1643 C1641 1.388 . S
C1643 C1644 1.366 . S
C1644 C1643 1.366 . S
C1644 C1645 1.414 . S
C1644 C1647 1.499 . S
C1645 H1619 0.950 . S
C1645 C1644 1.414 . S
C1645 C1646 1.374 . S
C1646 H1620 0.950 . S
C1646 C1642 1.385 . S
C1646 C1645 1.374 . S
C1647 C1644 1.499 . S
C1647 C1648 1.373 . S
C1647 C1649 1.389 . S
C1648 H1621 0.950 . S
C1648 C1634 1.377 . S
C1648 C1647 1.373 . S
C1649 C1633 1.377 . S
C1649 C1647 1.389 . S
C1649 C1650 1.524 . S
C1650 C1649 1.524 . S
C1650 C1651 1.397 . S
C1650 C1655 1.363 . S
C1651 H1622 0.950 . S
C1651 C1650 1.397 . S
C1651 C1652 1.334 . S
C1652 H1623 0.950 . S
C1652 C1651 1.334 . S
C1652 C1653 1.287 . S
C1653 C1652 1.287 . S
C1653 C1654 1.524 . S
C1653 H1656 0.999 . S
C1654 H1624 0.950 . S
C1654 C1653 1.524 . S
C1654 C1655 1.415 . S
C1655 H1625 0.950 . S
C1655 C1650 1.363 . S
C1655 C1654 1.415 . S
H1656 C1653 0.999 . S
H1657 C1638 0.913 . S
H1658 C1676 0.951 . S
H1659 C1678 0.951 . S
H1660 C1680 0.950 . S
H1661 C1681 0.950 . S
H1662 C1683 0.950 . S
H1663 C1686 0.950 . S
H1664 C1687 0.950 . S
H1665 C1689 0.950 . S
H1666 C1690 0.950 . S
H1667 C1691 0.951 . S
H1668 C1693 0.951 . S
H1669 C1695 0.950 . S
H1670 C1696 0.950 . S
H1671 C1698 0.950 . S
H1672 C1701 0.950 . S
H1673 C1702 0.950 . S
H1674 C1704 0.950 . S
H1675 C1705 0.950 . S
C1676 H1658 0.951 . S
C1676 C1677 1.366 . S
C1676 C1678 1.388 . S
C1677 C1676 1.366 . S
C1677 C1681 1.385 . S
C1678 H1659 0.951 . S
C1678 C1676 1.388 . S
C1678 C1679 1.366 . S
C1679 C1678 1.366 . S
C1679 C1680 1.414 . S
C1679 C1682 1.499 . S
C1680 H1660 0.950 . S
C1680 C1679 1.414 . S
C1680 C1681 1.374 . S
C1681 H1661 0.950 . S
C1681 C1677 1.385 . S
C1681 C1680 1.374 . S
C1682 C1679 1.499 . S
C1682 C1683 1.373 . S
C1682 C1684 1.389 . S
C1683 H1662 0.950 . S
C1683 C1682 1.373 . S
C1683 C1699 1.377 . S
C1684 C1682 1.389 . S
C1684 C1685 1.524 . S
C1684 C1698 1.377 . S
C1685 C1684 1.524 . S
C1685 C1686 1.397 . S
C1685 C1690 1.363 . S
C1686 H1663 0.950 . S
C1686 C1685 1.397 . S
C1686 C1687 1.334 . S
C1687 H1664 0.950 . S
C1687 C1686 1.334 . S
C1687 C1688 1.287 . S
C1688 C1687 1.287 . S
C1688 C1689 1.524 . S
C1688 H1707 0.913 . S
C1689 H1665 0.950 . S
C1689 C1688 1.524 . S
C1689 C1690 1.415 . S
C1690 H1666 0.950 . S
C1690 C1685 1.363 . S
C1690 C1689 1.415 . S
C1691 H1667 0.951 . S
C1691 C1692 1.366 . S
C1691 C1693 1.388 . S
C1692 C1691 1.366 . S
C1692 C1696 1.385 . S
C1693 H1668 0.951 . S
C1693 C1691 1.388 . S
C1693 C1694 1.366 . S
C1694 C1693 1.366 . S
C1694 C1695 1.414 . S
C1694 C1697 1.499 . S
C1695 H1669 0.950 . S
C1695 C1694 1.414 . S
C1695 C1696 1.374 . S
C1696 H1670 0.950 . S
C1696 C1692 1.385 . S
C1696 C1695 1.374 . S
C1697 C1694 1.499 . S
C1697 C1698 1.373 . S
C1697 C1699 1.389 . S
C1698 H1671 0.950 . S
C1698 C1684 1.377 . S
C1698 C1697 1.373 . S
C1699 C1683 1.377 . S
C1699 C1697 1.389 . S
C1699 C1700 1.524 . S
C1700 C1699 1.524 . S
C1700 C1701 1.397 . S
C1700 C1705 1.363 . S
C1701 H1672 0.950 . S
C1701 C1700 1.397 . S
C1701 C1702 1.334 . S
C1702 H1673 0.950 . S
C1702 C1701 1.334 . S
C1702 C1703 1.287 . S
C1703 C1702 1.287 . S
C1703 C1704 1.524 . S
C1703 H1706 0.999 . S
C1704 H1674 0.950 . S
C1704 C1703 1.524 . S
C1704 C1705 1.415 . S
C1705 H1675 0.950 . S
C1705 C1700 1.363 . S
C1705 C1704 1.415 . S
H1706 C1703 0.999 . S
H1707 C1688 0.913 . S
H1708 C1726 0.951 . S
H1709 C1728 0.951 . S
H1710 C1730 0.950 . S
H1711 C1731 0.950 . S
H1712 C1733 0.950 . S
H1713 C1736 0.950 . S
H1714 C1737 0.950 . S
H1715 C1739 0.950 . S
H1716 C1740 0.950 . S
H1717 C1741 0.951 . S
H1718 C1743 0.951 . S
H1719 C1745 0.950 . S
H1720 C1746 0.950 . S
H1721 C1748 0.950 . S
H1722 C1751 0.950 . S
H1723 C1752 0.950 . S
H1724 C1754 0.950 . S
H1725 C1755 0.950 . S
C1726 H1708 0.951 . S
C1726 C1727 1.366 . S
C1726 C1728 1.388 . S
C1727 C1726 1.366 . S
C1727 C1731 1.385 . S
C1728 H1709 0.951 . S
C1728 C1726 1.388 . S
C1728 C1729 1.366 . S
C1729 C1728 1.366 . S
C1729 C1730 1.414 . S
C1729 C1732 1.499 . S
C1730 H1710 0.950 . S
C1730 C1729 1.414 . S
C1730 C1731 1.374 . S
C1731 H1711 0.950 . S
C1731 C1727 1.385 . S
C1731 C1730 1.374 . S
C1732 C1729 1.499 . S
C1732 C1733 1.373 . S
C1732 C1734 1.389 . S
C1733 H1712 0.950 . S
C1733 C1732 1.373 . S
C1733 C1749 1.377 . S
C1734 C1732 1.389 . S
C1734 C1735 1.524 . S
C1734 C1748 1.377 . S
C1735 C1734 1.524 . S
C1735 C1736 1.397 . S
C1735 C1740 1.363 . S
C1736 H1713 0.950 . S
C1736 C1735 1.397 . S
C1736 C1737 1.334 . S
C1737 H1714 0.950 . S
C1737 C1736 1.334 . S
C1737 C1738 1.287 . S
C1738 C1737 1.287 . S
C1738 C1739 1.524 . S
C1738 H1757 0.913 . S
C1739 H1715 0.950 . S
C1739 C1738 1.524 . S
C1739 C1740 1.415 . S
C1740 H1716 0.950 . S
C1740 C1735 1.363 . S
C1740 C1739 1.415 . S
C1741 H1717 0.951 . S
C1741 C1742 1.366 . S
C1741 C1743 1.388 . S
C1742 C1741 1.366 . S
C1742 C1746 1.385 . S
C1743 H1718 0.951 . S
C1743 C1741 1.388 . S
C1743 C1744 1.366 . S
C1744 C1743 1.366 . S
C1744 C1745 1.414 . S
C1744 C1747 1.499 . S
C1745 H1719 0.950 . S
C1745 C1744 1.414 . S
C1745 C1746 1.374 . S
C1746 H1720 0.950 . S
C1746 C1742 1.385 . S
C1746 C1745 1.374 . S
C1747 C1744 1.499 . S
C1747 C1748 1.373 . S
C1747 C1749 1.389 . S
C1748 H1721 0.950 . S
C1748 C1734 1.377 . S
C1748 C1747 1.373 . S
C1749 C1733 1.377 . S
C1749 C1747 1.389 . S
C1749 C1750 1.524 . S
C1750 C1749 1.524 . S
C1750 C1751 1.397 . S
C1750 C1755 1.363 . S
C1751 H1722 0.950 . S
C1751 C1750 1.397 . S
C1751 C1752 1.334 . S
C1752 H1723 0.950 . S
C1752 C1751 1.334 . S
C1752 C1753 1.287 . S
C1753 C1752 1.287 . S
C1753 C1754 1.524 . S
C1753 H1756 0.999 . S
C1754 H1724 0.950 . S
C1754 C1753 1.524 . S
C1754 C1755 1.415 . S
C1755 H1725 0.950 . S
C1755 C1750 1.363 . S
C1755 C1754 1.415 . S
H1756 C1753 0.999 . S
H1757 C1738 0.913 . S
H1758 C1776 0.951 . S
H1759 C1778 0.951 . S
H1760 C1780 0.950 . S
H1761 C1781 0.950 . S
H1762 C1783 0.950 . S
H1763 C1786 0.950 . S
H1764 C1787 0.950 . S
H1765 C1789 0.950 . S
H1766 C1790 0.950 . S
H1767 C1791 0.951 . S
H1768 C1793 0.951 . S
H1769 C1795 0.950 . S
H1770 C1796 0.950 . S
H1771 C1798 0.950 . S
H1772 C1801 0.950 . S
H1773 C1802 0.950 . S
H1774 C1804 0.950 . S
H1775 C1805 0.950 . S
C1776 H1758 0.951 . S
C1776 C1777 1.366 . S
C1776 C1778 1.388 . S
C1777 C1776 1.366 . S
C1777 C1781 1.385 . S
C1778 H1759 0.951 . S
C1778 C1776 1.388 . S
C1778 C1779 1.366 . S
C1779 C1778 1.366 . S
C1779 C1780 1.414 . S
C1779 C1782 1.499 . S
C1780 H1760 0.950 . S
C1780 C1779 1.414 . S
C1780 C1781 1.374 . S
C1781 H1761 0.950 . S
C1781 C1777 1.385 . S
C1781 C1780 1.374 . S
C1782 C1779 1.499 . S
C1782 C1783 1.373 . S
C1782 C1784 1.389 . S
C1783 H1762 0.950 . S
C1783 C1782 1.373 . S
C1783 C1799 1.377 . S
C1784 C1782 1.389 . S
C1784 C1785 1.524 . S
C1784 C1798 1.377 . S
C1785 C1784 1.524 . S
C1785 C1786 1.397 . S
C1785 C1790 1.363 . S
C1786 H1763 0.950 . S
C1786 C1785 1.397 . S
C1786 C1787 1.334 . S
C1787 H1764 0.950 . S
C1787 C1786 1.334 . S
C1787 C1788 1.287 . S
C1788 C1787 1.287 . S
C1788 C1789 1.524 . S
C1788 H1807 0.913 . S
C1789 H1765 0.950 . S
C1789 C1788 1.524 . S
C1789 C1790 1.415 . S
C1790 H1766 0.950 . S
C1790 C1785 1.363 . S
C1790 C1789 1.415 . S
C1791 H1767 0.951 . S
C1791 C1792 1.366 . S
C1791 C1793 1.388 . S
C1792 C1791 1.366 . S
C1792 C1796 1.385 . S
C1793 H1768 0.951 . S
C1793 C1791 1.388 . S
C1793 C1794 1.366 . S
C1794 C1793 1.366 . S
C1794 C1795 1.414 . S
C1794 C1797 1.499 . S
C1795 H1769 0.950 . S
C1795 C1794 1.414 . S
C1795 C1796 1.374 . S
C1796 H1770 0.950 . S
C1796 C1792 1.385 . S
C1796 C1795 1.374 . S
C1797 C1794 1.499 . S
C1797 C1798 1.373 . S
C1797 C1799 1.389 . S
C1798 H1771 0.950 . S
C1798 C1784 1.377 . S
C1798 C1797 1.373 . S
C1799 C1783 1.377 . S
C1799 C1797 1.389 . S
C1799 C1800 1.524 . S
C1800 C1799 1.524 . S
C1800 C1801 1.397 . S
C1800 C1805 1.363 . S
C1801 H1772 0.950 . S
C1801 C1800 1.397 . S
C1801 C1802 1.334 . S
C1802 H1773 0.950 . S
C1802 C1801 1.334 . S
C1802 C1803 1.287 . S
C1803 C1802 1.287 . S
C1803 C1804 1.524 . S
C1803 H1806 0.999 . S
C1804 H1774 0.950 . S
C1804 C1803 1.524 . S
C1804 C1805 1.415 . S
C1805 H1775 0.950 . S
C1805 C1800 1.363 . S
C1805 C1804 1.415 . S
H1806 C1803 0.999 . S
H1807 C1788 0.913 . S
H1808 C1826 0.951 . S
H1809 C1828 0.951 . S
H1810 C1830 0.950 . S
H1811 C1831 0.950 . S
H1812 C1833 0.950 . S
H1813 C1836 0.950 . S
H1814 C1837 0.950 . S
H1815 C1839 0.950 . S
H1816 C1840 0.950 . S
H1817 C1841 0.951 . S
H1818 C1843 0.951 . S
H1819 C1845 0.950 . S
H1820 C1846 0.950 . S
H1821 C1848 0.950 . S
H1822 C1851 0.950 . S
H1823 C1852 0.950 . S
H1824 C1854 0.950 . S
H1825 C1855 0.950 . S
C1826 H1808 0.951 . S
C1826 C1827 1.366 . S
C1826 C1828 1.388 . S
C1827 C1826 1.366 . S
C1827 C1831 1.385 . S
C1828 H1809 0.951 . S
C1828 C1826 1.388 . S
C1828 C1829 1.366 . S
C1829 C1828 1.366 . S
C1829 C1830 1.414 . S
C1829 C1832 1.499 . S
C1830 H1810 0.950 . S
C1830 C1829 1.414 . S
C1830 C1831 1.374 . S
C1831 H1811 0.950 . S
C1831 C1827 1.385 . S
C1831 C1830 1.374 . S
C1832 C1829 1.499 . S
C1832 C1833 1.373 . S
C1832 C1834 1.389 . S
C1833 H1812 0.950 . S
C1833 C1832 1.373 . S
C1833 C1849 1.377 . S
C1834 C1832 1.389 . S
C1834 C1835 1.524 . S
C1834 C1848 1.377 . S
C1835 C1834 1.524 . S
C1835 C1836 1.397 . S
C1835 C1840 1.363 . S
C1836 H1813 0.950 . S
C1836 C1835 1.397 . S
C1836 C1837 1.334 . S
C1837 H1814 0.950 . S
C1837 C1836 1.334 . S
C1837 C1838 1.287 . S
C1838 C1837 1.287 . S
C1838 C1839 1.524 . S
C1838 H1857 0.913 . S
C1839 H1815 0.950 . S
C1839 C1838 1.524 . S
C1839 C1840 1.415 . S
C1840 H1816 0.950 . S
C1840 C1835 1.363 . S
C1840 C1839 1.415 . S
C1841 H1817 0.951 . S
C1841 C1842 1.366 . S
C1841 C1843 1.388 . S
C1842 C1841 1.366 . S
C1842 C1846 1.385 . S
C1843 H1818 0.951 . S
C1843 C1841 1.388 . S
C1843 C1844 1.366 . S
C1844 C1843 1.366 . S
C1844 C1845 1.414 . S
C1844 C1847 1.499 . S
C1845 H1819 0.950 . S
C1845 C1844 1.414 . S
C1845 C1846 1.374 . S
C1846 H1820 0.950 . S
C1846 C1842 1.385 . S
C1846 C1845 1.374 . S
C1847 C1844 1.499 . S
C1847 C1848 1.373 . S
C1847 C1849 1.389 . S
C1848 H1821 0.950 . S
C1848 C1834 1.377 . S
C1848 C1847 1.373 . S
C1849 C1833 1.377 . S
C1849 C1847 1.389 . S
C1849 C1850 1.524 . S
C1850 C1849 1.524 . S
C1850 C1851 1.397 . S
C1850 C1855 1.363 . S
C1851 H1822 0.950 . S
C1851 C1850 1.397 . S
C1851 C1852 1.334 . S
C1852 H1823 0.950 . S
C1852 C1851 1.334 . S
C1852 C1853 1.287 . S
C1853 C1852 1.287 . S
C1853 C1854 1.524 . S
C1853 H1856 0.999 . S
C1854 H1824 0.950 . S
C1854 C1853 1.524 . S
C1854 C1855 1.415 . S
C1855 H1825 0.950 . S
C1855 C1850 1.363 . S
C1855 C1854 1.415 . S
H1856 C1853 0.999 . S
H1857 C1838 0.913 . S
H1858 C1876 0.951 . S
H1859 C1878 0.951 . S
H1860 C1880 0.950 . S
H1861 C1881 0.950 . S
H1862 C1883 0.950 . S
H1863 C1886 0.950 . S
H1864 C1887 0.950 . S
H1865 C1889 0.950 . S
H1866 C1890 0.950 . S
H1867 C1891 0.951 . S
H1868 C1893 0.951 . S
H1869 C1895 0.950 . S
H1870 C1896 0.950 . S
H1871 C1898 0.950 . S
H1872 C1901 0.950 . S
H1873 C1902 0.950 . S
H1874 C1904 0.950 . S
H1875 C1905 0.950 . S
C1876 H1858 0.951 . S
C1876 C1877 1.366 . S
C1876 C1878 1.388 . S
C1877 C1876 1.366 . S
C1877 C1881 1.385 . S
C1878 H1859 0.951 . S
C1878 C1876 1.388 . S
C1878 C1879 1.366 . S
C1879 C1878 1.366 . S
C1879 C1880 1.414 . S
C1879 C1882 1.499 . S
C1880 H1860 0.950 . S
C1880 C1879 1.414 . S
C1880 C1881 1.374 . S
C1881 H1861 0.950 . S
C1881 C1877 1.385 . S
C1881 C1880 1.374 . S
C1882 C1879 1.499 . S
C1882 C1883 1.373 . S
C1882 C1884 1.389 . S
C1883 H1862 0.950 . S
C1883 C1882 1.373 . S
C1883 C1899 1.377 . S
C1884 C1882 1.389 . S
C1884 C1885 1.524 . S
C1884 C1898 1.377 . S
C1885 C1884 1.524 . S
C1885 C1886 1.397 . S
C1885 C1890 1.363 . S
C1886 H1863 0.950 . S
C1886 C1885 1.397 . S
C1886 C1887 1.334 . S
C1887 H1864 0.950 . S
C1887 C1886 1.334 . S
C1887 C1888 1.287 . S
C1888 C1887 1.287 . S
C1888 C1889 1.524 . S
C1888 H1907 0.913 . S
C1889 H1865 0.950 . S
C1889 C1888 1.524 . S
C1889 C1890 1.415 . S
C1890 H1866 0.950 . S
C1890 C1885 1.363 . S
C1890 C1889 1.415 . S
C1891 H1867 0.951 . S
C1891 C1892 1.366 . S
C1891 C1893 1.388 . S
C1892 C1891 1.366 . S
C1892 C1896 1.385 . S
C1893 H1868 0.951 . S
C1893 C1891 1.388 . S
C1893 C1894 1.366 . S
C1894 C1893 1.366 . S
C1894 C1895 1.414 . S
C1894 C1897 1.499 . S
C1895 H1869 0.950 . S
C1895 C1894 1.414 . S
C1895 C1896 1.374 . S
C1896 H1870 0.950 . S
C1896 C1892 1.385 . S
C1896 C1895 1.374 . S
C1897 C1894 1.499 . S
C1897 C1898 1.373 . S
C1897 C1899 1.389 . S
C1898 H1871 0.950 . S
C1898 C1884 1.377 . S
C1898 C1897 1.373 . S
C1899 C1883 1.377 . S
C1899 C1897 1.389 . S
C1899 C1900 1.524 . S
C1900 C1899 1.524 . S
C1900 C1901 1.397 . S
C1900 C1905 1.363 . S
C1901 H1872 0.950 . S
C1901 C1900 1.397 . S
C1901 C1902 1.334 . S
C1902 H1873 0.950 . S
C1902 C1901 1.334 . S
C1902 C1903 1.287 . S
C1903 C1902 1.287 . S
C1903 C1904 1.524 . S
C1903 H1906 0.999 . S
C1904 H1874 0.950 . S
C1904 C1903 1.524 . S
C1904 C1905 1.415 . S
C1905 H1875 0.950 . S
C1905 C1900 1.363 . S
C1905 C1904 1.415 . S
H1906 C1903 0.999 . S
H1907 C1888 0.913 . S
C727 C5 1.550 . S
C742 C300 1.549 . S
C777 C111 1.571 . S
C792 C288 1.570 . S
C827 C298 1.550 . S
C842 C121 1.550 . S
C877 C229 1.571 . S
C892 C269 1.573 . S
C927 C418 1.549 . S
C942 C123 1.550 . S
C977 C387 1.574 . S
C992 C210 1.573 . S
C1027 C3 1.550 . S
C1042 C416 1.551 . S
C1077 C406 1.570 . S
C1092 C92 1.573 . S
C1127 C583 1.548 . S
C1142 C477 1.556 . S
C1177 C475 1.554 . S
C1192 C701 1.546 . S
C1227 C564 1.547 . S
C1242 C593 1.556 . S
C1277 C595 1.557 . S
C1292 C682 1.550 . S
C1327 C654 1.550 . S
C1342 C359 1.549 . S
C1377 C524 1.571 . S
C1392 C465 1.570 . S
C1427 C357 1.550 . S
C1442 C534 1.550 . S
C1477 C446 1.573 . S
C1492 C642 1.572 . S
C1527 C241 1.549 . S
C1542 C536 1.550 . S
C1577 C328 1.574 . S
C1592 C623 1.574 . S
C1627 C652 1.550 . S
C1642 C239 1.551 . S
C1677 C505 1.573 . S
C1692 C347 1.571 . S
C1727 C64 1.556 . S
C1742 C170 1.548 . S
C1777 C52 1.546 . S
C1792 C62 1.554 . S
C1827 C151 1.547 . S
C1842 C180 1.555 . S
C1877 C33 1.549 . S
C1892 C182 1.557 . S
