# Generated by pormake.
# Topology wiv, (6)-cn, num edge types: 1
# Building blocks:
#     Node 0, Type 0, BuildingBlock: BETDIP_clean_sbu_0, # of connection points: 6
#     Node 1, Type 0, BuildingBlock: BETDIP_clean_sbu_0, # of connection points: 6
#     Node 2, Type 0, BuildingBlock: BETDIP_clean_sbu_0, # of connection points: 6
#     Node 3, Type 0, BuildingBlock: BETDIP_clean_sbu_0, # of connection points: 6
#     Node 4, Type 0, BuildingBlock: BETDIP_clean_sbu_0, # of connection points: 6
#     Node 5, Type 0, BuildingBlock: BETDIP_clean_sbu_0, # of connection points: 6
#     Node 6, Type 0, BuildingBlock: BETDIP_clean_sbu_0, # of connection points: 6
#     Node 7, Type 0, BuildingBlock: BETDIP_clean_sbu_0, # of connection points: 6
#     Node 8, Type 0, BuildingBlock: BETDIP_clean_sbu_0, # of connection points: 6
#     Node 9, Type 0, BuildingBlock: BETDIP_clean_sbu_0, # of connection points: 6
#     Node 10, Type 0, BuildingBlock: BETDIP_clean_sbu_0, # of connection points: 6
#     Node 11, Type 0, BuildingBlock: BETDIP_clean_sbu_0, # of connection points: 6
#     Node 12, Type 0, BuildingBlock: BETDIP_clean_sbu_0, # of connection points: 6
#     Node 13, Type 0, BuildingBlock: BETDIP_clean_sbu_0, # of connection points: 6
#     Node 14, Type 0, BuildingBlock: BETDIP_clean_sbu_0, # of connection points: 6
#     Node 15, Type 0, BuildingBlock: BETDIP_clean_sbu_0, # of connection points: 6
#     Edge 16, Type (0, 0), BuildingBlock: EZIPEK_clean_linker_0, # of connection points: 2
#     Edge 17, Type (0, 0), BuildingBlock: EZIPEK_clean_linker_0, # of connection points: 2
#     Edge 18, Type (0, 0), BuildingBlock: EZIPEK_clean_linker_0, # of connection points: 2
#     Edge 19, Type (0, 0), BuildingBlock: EZIPEK_clean_linker_0, # of connection points: 2
#     Edge 20, Type (0, 0), BuildingBlock: EZIPEK_clean_linker_0, # of connection points: 2
#     Edge 21, Type (0, 0), BuildingBlock: EZIPEK_clean_linker_0, # of connection points: 2
#     Edge 22, Type (0, 0), BuildingBlock: EZIPEK_clean_linker_0, # of connection points: 2
#     Edge 23, Type (0, 0), BuildingBlock: EZIPEK_clean_linker_0, # of connection points: 2
#     Edge 24, Type (0, 0), BuildingBlock: EZIPEK_clean_linker_0, # of connection points: 2
#     Edge 25, Type (0, 0), BuildingBlock: EZIPEK_clean_linker_0, # of connection points: 2
#     Edge 26, Type (0, 0), BuildingBlock: EZIPEK_clean_linker_0, # of connection points: 2
#     Edge 27, Type (0, 0), BuildingBlock: EZIPEK_clean_linker_0, # of connection points: 2
#     Edge 28, Type (0, 0), BuildingBlock: EZIPEK_clean_linker_0, # of connection points: 2
#     Edge 29, Type (0, 0), BuildingBlock: EZIPEK_clean_linker_0, # of connection points: 2
#     Edge 30, Type (0, 0), BuildingBlock: EZIPEK_clean_linker_0, # of connection points: 2
#     Edge 31, Type (0, 0), BuildingBlock: EZIPEK_clean_linker_0, # of connection points: 2
#     Edge 32, Type (0, 0), BuildingBlock: EZIPEK_clean_linker_0, # of connection points: 2
#     Edge 33, Type (0, 0), BuildingBlock: EZIPEK_clean_linker_0, # of connection points: 2
#     Edge 34, Type (0, 0), BuildingBlock: EZIPEK_clean_linker_0, # of connection points: 2
#     Edge 35, Type (0, 0), BuildingBlock: EZIPEK_clean_linker_0, # of connection points: 2
#     Edge 36, Type (0, 0), BuildingBlock: EZIPEK_clean_linker_0, # of connection points: 2
#     Edge 37, Type (0, 0), BuildingBlock: EZIPEK_clean_linker_0, # of connection points: 2
#     Edge 38, Type (0, 0), BuildingBlock: EZIPEK_clean_linker_0, # of connection points: 2
#     Edge 39, Type (0, 0), BuildingBlock: EZIPEK_clean_linker_0, # of connection points: 2
#     Edge 40, Type (0, 0), BuildingBlock: EZIPEK_clean_linker_0, # of connection points: 2
#     Edge 41, Type (0, 0), BuildingBlock: EZIPEK_clean_linker_0, # of connection points: 2
#     Edge 42, Type (0, 0), BuildingBlock: EZIPEK_clean_linker_0, # of connection points: 2
#     Edge 43, Type (0, 0), BuildingBlock: EZIPEK_clean_linker_0, # of connection points: 2
#     Edge 44, Type (0, 0), BuildingBlock: EZIPEK_clean_linker_0, # of connection points: 2
#     Edge 45, Type (0, 0), BuildingBlock: EZIPEK_clean_linker_0, # of connection points: 2
#     Edge 46, Type (0, 0), BuildingBlock: EZIPEK_clean_linker_0, # of connection points: 2
#     Edge 47, Type (0, 0), BuildingBlock: EZIPEK_clean_linker_0, # of connection points: 2
#     Edge 48, Type (0, 0), BuildingBlock: EZIPEK_clean_linker_0, # of connection points: 2
#     Edge 49, Type (0, 0), BuildingBlock: EZIPEK_clean_linker_0, # of connection points: 2
#     Edge 50, Type (0, 0), BuildingBlock: EZIPEK_clean_linker_0, # of connection points: 2
#     Edge 51, Type (0, 0), BuildingBlock: EZIPEK_clean_linker_0, # of connection points: 2
#     Edge 52, Type (0, 0), BuildingBlock: EZIPEK_clean_linker_0, # of connection points: 2
#     Edge 53, Type (0, 0), BuildingBlock: EZIPEK_clean_linker_0, # of connection points: 2
#     Edge 54, Type (0, 0), BuildingBlock: EZIPEK_clean_linker_0, # of connection points: 2
#     Edge 55, Type (0, 0), BuildingBlock: EZIPEK_clean_linker_0, # of connection points: 2
#     Edge 56, Type (0, 0), BuildingBlock: EZIPEK_clean_linker_0, # of connection points: 2
#     Edge 57, Type (0, 0), BuildingBlock: EZIPEK_clean_linker_0, # of connection points: 2
#     Edge 58, Type (0, 0), BuildingBlock: EZIPEK_clean_linker_0, # of connection points: 2
#     Edge 59, Type (0, 0), BuildingBlock: EZIPEK_clean_linker_0, # of connection points: 2
#     Edge 60, Type (0, 0), BuildingBlock: EZIPEK_clean_linker_0, # of connection points: 2
#     Edge 61, Type (0, 0), BuildingBlock: EZIPEK_clean_linker_0, # of connection points: 2
#     Edge 62, Type (0, 0), BuildingBlock: EZIPEK_clean_linker_0, # of connection points: 2
#     Edge 63, Type (0, 0), BuildingBlock: EZIPEK_clean_linker_0, # of connection points: 2
# Relax obj value: 0.180
# Max RMSD: 0.223
# Mean RMSD: 0.223
data_MOF--net-wiv--node1-BETDIP_clean_sbu_0--edge1-EZIPEK_clean_linker_0
_symmetry_space_group_name_H-M    P1
_symmetry_Int_Tables_number       1
_symmetry_cell_setting            triclinic
loop_
_symmetry_equiv_pos_as_xyz
'x, y, z'
_cell_length_a     34.658096
_cell_length_b     34.742157
_cell_length_c     19.766235
_cell_angle_alpha  89.774756
_cell_angle_beta   90.231971
_cell_angle_gamma 90.034988
loop_
_atom_site_label
_atom_site_type_symbol
_atom_site_fract_x
_atom_site_fract_y
_atom_site_fract_z
_atom_type_partial_charge
Tb0 Tb 0.33875 0.08978 0.19679 0.0
Tb1 Tb 0.40227 0.10185 0.08913 0.0
C2 C 0.30986 0.05711 0.29777 0.0
C3 C 0.31745 0.06292 0.37083 0.0
C4 C 0.33367 0.03267 0.40895 0.0
C5 C 0.34618 0.03876 0.47543 0.0
C6 C 0.34178 0.07496 0.50575 0.0
C7 C 0.3244 0.10491 0.4686 0.0
C8 C 0.31293 0.09916 0.40136 0.0
C9 C 0.34799 0.16484 0.17573 0.0
C10 C 0.4261 0.11487 0.23929 0.0
C11 C 0.43755 0.1198 0.98287 0.0
C12 C 0.42695 0.11653 0.91019 0.0
C13 C 0.40123 0.14267 0.8793 0.0
C14 C 0.38871 0.13695 0.81262 0.0
C15 C 0.40133 0.10486 0.77598 0.0
C16 C 0.42789 0.07944 0.80571 0.0
C17 C 0.44084 0.0854 0.87195 0.0
C18 C 0.39773 0.032 0.14505 0.0
C19 C 0.31354 0.08735 1.04164 0.0
O20 O 0.33943 0.04371 0.26474 0.0
O21 O 0.29204 0.08455 0.26405 0.0
O22 O 0.36609 0.13726 0.14864 0.0
O23 O 0.32243 0.14972 0.21554 0.0
O24 O 0.39207 0.1001 0.25636 0.0
O25 O 0.43578 0.12151 0.17559 0.0
O26 O 0.41842 0.14478 1.0194 0.0
O27 O 0.44242 0.08711 1.01485 0.0
O28 O 0.37013 0.05432 0.12915 0.0
O29 O 0.42921 0.0489 0.12606 0.0
O30 O 0.35013 0.09473 1.0267 0.0
O31 O 0.30185 0.0822 0.10554 0.0
H32 H 0.33792 0.00462 0.3864 0.0
H33 H 0.35969 0.01535 0.50306 0.0
H34 H 0.32087 0.13307 0.49106 0.0
H35 H 0.30097 0.12317 0.37317 0.0
H36 H 0.39013 0.1671 0.90695 0.0
H37 H 0.36864 0.15712 0.78995 0.0
H38 H 0.43818 0.0547 0.77788 0.0
H39 H 0.46098 0.06499 0.89392 0.0
Tb40 Tb 0.10185 0.60372 1.00332 0.0
Tb41 Tb 0.08823 0.66639 0.89919 0.0
C42 C 0.12585 0.56997 0.10781 0.0
C43 C 0.1209 0.57929 0.18051 0.0
C44 C 0.12978 0.61616 0.20558 0.0
C45 C 0.12142 0.62582 0.27258 0.0
C46 C 0.10398 0.59892 0.31595 0.0
C47 C 0.09561 0.5619 0.29149 0.0
C48 C 0.10414 0.55215 0.22442 0.0
C49 C 0.03069 0.60773 0.95532 0.0
C50 C 0.08214 0.69031 1.05158 0.0
C51 C 0.06211 0.69566 0.79244 0.0
C52 C 0.0658 0.68276 0.72114 0.0
C53 C 0.03353 0.66788 0.68653 0.0
C54 C 0.03732 0.6528 0.62119 0.0
C55 C 0.07326 0.65328 0.58843 0.0
C56 C 0.10534 0.66862 0.62259 0.0
C57 C 0.10181 0.68261 0.68853 0.0
C58 C 0.16039 0.66104 0.93974 0.0
C59 C 0.10922 0.57927 0.85186 0.0
O60 O 0.14722 0.59351 0.07181 0.0
O61 O 0.0943 0.55998 0.07577 0.0
O62 O 0.05356 0.63526 0.96685 0.0
O63 O 0.04587 0.57721 0.98202 0.0
O64 O 0.09542 0.65551 0.06569 0.0
O65 O 0.07324 0.70092 0.98859 0.0
O66 O 0.04184 0.67309 0.83165 0.0
O67 O 0.09338 0.70821 0.82278 0.0
O68 O 0.13729 0.63324 0.93048 0.0
O69 O 0.14332 0.69299 0.9229 0.0
O70 O 0.09921 0.61514 0.83704 0.0
O71 O 0.11524 0.56811 0.9154 0.0
H72 H 0.14251 0.6379 0.17319 0.0
H73 H 0.12799 0.65456 0.29038 0.0
H74 H 0.08206 0.54077 0.3241 0.0
H75 H 0.09682 0.52364 0.20635 0.0
H76 H 0.00551 0.66713 0.71064 0.0
H77 H 0.01224 0.64076 0.59613 0.0
H78 H 0.13335 0.66917 0.5985 0.0
H79 H 0.12741 0.69334 0.7138 0.0
Tb80 Tb 0.6823 0.90713 0.21535 0.0
Tb81 Tb 0.61782 0.89891 0.11304 0.0
C82 C 0.71591 0.92984 0.32097 0.0
C83 C 0.70613 0.92636 0.394 0.0
C84 C 0.68975 0.95773 0.42848 0.0
C85 C 0.67672 0.95356 0.49513 0.0
C86 C 0.68066 0.91822 0.52933 0.0
C87 C 0.69879 0.88748 0.49621 0.0
C88 C 0.71096 0.89134 0.42907 0.0
C89 C 0.6741 0.83652 0.16816 0.0
C90 C 0.59519 0.88418 0.26483 0.0
C91 C 0.58255 0.88012 1.007 0.0
C92 C 0.5947 0.88229 0.93512 0.0
C93 C 0.63152 0.86967 0.91498 0.0
C94 C 0.64432 0.87563 0.84871 0.0
C95 C 0.62053 0.89409 0.80108 0.0
C96 C 0.58348 0.90605 0.82047 0.0
C97 C 0.57071 0.90023 0.88698 0.0
C98 C 0.6218 0.96696 0.17209 0.0
C99 C 0.70522 0.91503 0.06213 0.0
O100 O 0.693 0.95162 0.28454 0.0
O101 O 0.72528 0.89822 0.28911 0.0
O102 O 0.64748 0.86036 0.18025 0.0
O103 O 0.70667 0.85186 0.18669 0.0
O104 O 0.6315 0.89362 0.27877 0.0
O105 O 0.58319 0.88117 0.20091 0.0
O106 O 0.60074 0.85533 1.04588 0.0
O107 O 0.57783 0.91332 1.03686 0.0
O108 O 0.64986 0.94562 0.15503 0.0
O109 O 0.59084 0.95251 0.14544 0.0
O110 O 0.66943 0.90417 1.04898 0.0
O111 O 0.71689 0.92192 0.12521 0.0
H112 H 0.68575 0.98515 0.40309 0.0
H113 H 0.66291 0.97771 0.51966 0.0
H114 H 0.70243 0.86007 0.52177 0.0
H115 H 0.7236 0.86661 0.40441 0.0
H116 H 0.65085 0.85586 0.95063 0.0
H117 H 0.673 0.86622 0.83474 0.0
H118 H 0.56471 0.92036 0.78436 0.0
H119 H 0.54237 0.91047 0.90122 0.0
Tb120 Tb 0.89784 0.39167 1.0181 0.0
Tb121 Tb 0.90074 0.33118 0.91333 0.0
C122 C 0.88855 0.42715 0.12779 0.0
C123 C 0.88928 0.41352 0.19926 0.0
C124 C 0.85998 0.4243 0.24431 0.0
C125 C 0.86025 0.41087 0.31144 0.0
C126 C 0.88993 0.38656 0.33467 0.0
C127 C 0.91928 0.37585 0.28989 0.0
C128 C 0.91895 0.38911 0.22292 0.0
C129 C 0.96548 0.38548 0.95666 0.0
C130 C 0.90655 0.30381 0.06699 0.0
C131 C 0.91622 0.28864 0.81523 0.0
C132 C 0.90803 0.29672 0.74272 0.0
C133 C 0.93782 0.29387 0.69498 0.0
C134 C 0.93249 0.3072 0.62852 0.0
C135 C 0.89769 0.32494 0.60907 0.0
C136 C 0.86791 0.32794 0.65673 0.0
C137 C 0.87283 0.31355 0.72256 0.0
C138 C 0.83023 0.35747 0.93806 0.0
C139 C 0.88793 0.41754 0.86708 0.0
O140 O 0.85977 0.41538 0.09006 0.0
O141 O 0.92132 0.42546 0.09555 0.0
O142 O 0.94351 0.35814 0.97434 0.0
O143 O 0.94891 0.41755 0.97276 0.0
O144 O 0.90614 0.34075 0.08242 0.0
O145 O 0.90487 0.29224 1.00269 0.0
O146 O 0.94108 0.31234 0.84226 0.0
O147 O 0.88665 0.2825 0.85518 0.0
O148 O 0.8563 0.35089 0.98135 0.0
O149 O 0.84322 0.34744 0.87978 0.0
O150 O 0.90479 0.38436 0.85339 0.0
O151 O 0.87725 0.42575 0.93006 0.0
H152 H 0.8368 0.44299 0.22749 0.0
H153 H 0.83732 0.41941 0.34529 0.0
H154 H 0.94234 0.35704 0.30674 0.0
H155 H 0.94195 0.38008 0.18966 0.0
H156 H 0.96561 0.28218 0.70963 0.0
H157 H 0.95601 0.30491 0.59284 0.0
H158 H 0.841 0.34186 0.64314 0.0
H159 H 0.84955 0.31701 0.75829 0.0
Tb160 Tb 0.32046 0.40102 0.15675 0.0
Tb161 Tb 0.38309 0.39685 0.26326 0.0
C162 C 0.27927 0.42256 0.05991 0.0
C163 C 0.28894 0.41868 0.98711 0.0
C164 C 0.27887 0.44757 0.9403 0.0
C165 C 0.29168 0.44563 0.87293 0.0
C166 C 0.31525 0.41503 0.85152 0.0
C167 C 0.326 0.38675 0.89884 0.0
C168 C 0.31269 0.38833 0.96547 0.0
C169 C 0.34859 0.33071 0.17633 0.0
C170 C 0.40737 0.39023 0.11 0.0
C171 C 0.41658 0.38296 0.37411 0.0
C172 C 0.4038 0.3901 0.44471 0.0
C173 C 0.41147 0.36299 0.49586 0.0
C174 C 0.39803 0.36885 0.56194 0.0
C175 C 0.37674 0.402 0.57817 0.0
C176 C 0.36916 0.42922 0.52718 0.0
C177 C 0.38261 0.4234 0.46121 0.0
C178 C 0.37803 0.46422 0.20106 0.0
C179 C 0.29587 0.4068 0.31106 0.0
O180 O 0.30221 0.44582 0.09302 0.0
O181 O 0.27241 0.39064 0.09391 0.0
O182 O 0.34267 0.35577 0.22172 0.0
O183 O 0.33636 0.34467 0.11963 0.0
O184 O 0.37243 0.40287 0.09647 0.0
O185 O 0.41741 0.38029 0.17316 0.0
O186 O 0.39736 0.35692 0.34023 0.0
O187 O 0.42325 0.4135 0.3373 0.0
O188 O 0.35047 0.44169 0.21594 0.0
O189 O 0.40846 0.45131 0.23156 0.0
O190 O 0.33293 0.41053 0.32495 0.0
O191 O 0.28318 0.40152 0.24786 0.0
H192 H 0.26133 0.47173 0.95594 0.0
H193 H 0.2833 0.46803 0.83756 0.0
H194 H 0.34464 0.36326 0.88399 0.0
H195 H 0.32168 0.36605 1.00033 0.0
H196 H 0.4275 0.33706 0.48452 0.0
H197 H 0.40391 0.34731 0.60038 0.0
H198 H 0.35241 0.45473 0.53829 0.0
H199 H 0.37601 0.44481 0.42293 0.0
Tb200 Tb 0.39309 0.61362 0.8458 0.0
Tb201 Tb 0.39991 0.67177 0.95073 0.0
C202 C 0.3819 0.57699 0.73728 0.0
C203 C 0.38137 0.58861 0.66516 0.0
C204 C 0.36668 0.62458 0.64462 0.0
C205 C 0.37066 0.63702 0.57751 0.0
C206 C 0.3893 0.61372 0.5298 0.0
C207 C 0.4031 0.5774 0.54986 0.0
C208 C 0.39915 0.56497 0.61698 0.0
C209 C 0.4631 0.61823 0.90304 0.0
C210 C 0.40225 0.7004 0.79716 0.0
C211 C 0.421 0.71158 1.04932 0.0
C212 C 0.41746 0.70252 0.12267 0.0
C213 C 0.45058 0.69179 0.15961 0.0
C214 C 0.44761 0.6772 0.22549 0.0
C215 C 0.41157 0.67466 0.25744 0.0
C216 C 0.3785 0.68652 0.22143 0.0
C217 C 0.38129 0.69942 0.15429 0.0
C218 C 0.32769 0.64871 0.93419 0.0
C219 C 0.38468 0.58474 0.99231 0.0
O220 O 0.35406 0.58965 0.77564 0.0
O221 O 0.41538 0.58002 0.76703 0.0
O222 O 0.44117 0.6458 0.88667 0.0
O223 O 0.44477 0.58673 0.88919 0.0
O224 O 0.40085 0.66373 0.78119 0.0
O225 O 0.40163 0.71163 0.86178 0.0
O226 O 0.44385 0.68838 1.01671 0.0
O227 O 0.3895 0.71925 1.0146 0.0
O228 O 0.35194 0.65455 0.88705 0.0
O229 O 0.34444 0.65539 0.99122 0.0
O230 O 0.40264 0.61726 1.00737 0.0
O231 O 0.37255 0.57816 0.92994 0.0
H232 H 0.35299 0.6435 0.68067 0.0
H233 H 0.35999 0.66521 0.56311 0.0
H234 H 0.41772 0.5591 0.51388 0.0
H235 H 0.41097 0.53732 0.63174 0.0
H236 H 0.47877 0.69317 0.13647 0.0
H237 H 0.4735 0.66773 0.25156 0.0
H238 H 0.35031 0.68461 0.24468 0.0
H239 H 0.35507 0.70661 0.12707 0.0
Tb240 Tb 0.67458 0.5988 0.15489 0.0
Tb241 Tb 0.61031 0.61129 0.25662 0.0
C242 C 0.70615 0.57502 1.04887 0.0
C243 C 0.69334 0.57806 0.97693 0.0
C244 C 0.6787 0.54558 0.94294 0.0
C245 C 0.66369 0.54885 0.87708 0.0
C246 C 0.66383 0.58452 0.84315 0.0
C247 C 0.67901 0.6168 0.87659 0.0
C248 C 0.69318 0.61373 0.94284 0.0
C249 C 0.66718 0.67053 0.19504 0.0
C250 C 0.58674 0.61551 0.10318 0.0
C251 C 0.57654 0.63532 0.3604 0.0
C252 C 0.58652 0.63053 0.43336 0.0
C253 C 0.62316 0.64101 0.45852 0.0
C254 C 0.63355 0.63299 0.5257 0.0
C255 C 0.60764 0.61433 0.56939 0.0
C256 C 0.57083 0.60439 0.54484 0.0
C257 C 0.56034 0.61255 0.4776 0.0
C258 C 0.61527 0.54026 0.20988 0.0
C259 C 0.69695 0.59308 0.30961 0.0
O260 O 0.68496 0.5532 0.08792 0.0
O261 O 0.7164 0.60689 0.07932 0.0
O262 O 0.63984 0.64702 0.18443 0.0
O263 O 0.69958 0.65429 0.17899 0.0
O264 O 0.62315 0.60658 0.09049 0.0
O265 O 0.57503 0.62325 0.16584 0.0
O266 O 0.59968 0.65677 0.32378 0.0
O267 O 0.56641 0.60385 0.32871 0.0
O268 O 0.64273 0.56353 0.22087 0.0
O269 O 0.58502 0.55479 0.23826 0.0
O270 O 0.66151 0.60518 0.32162 0.0
O271 O 0.70876 0.585 0.24699 0.0
H272 H 0.67806 0.51776 0.96791 0.0
H273 H 0.65186 0.52359 0.8526 0.0
H274 H 0.67932 0.64462 0.85165 0.0
H275 H 0.70377 0.63948 0.96741 0.0
H276 H 0.64421 0.65473 0.42606 0.0
H277 H 0.66212 0.64081 0.54338 0.0
H278 H 0.5504 0.5899 0.57755 0.0
H279 H 0.53202 0.60403 0.45968 0.0
Tb280 Tb 0.59909 0.39034 0.85352 0.0
Tb281 Tb 0.59423 0.33194 0.96242 0.0
C282 C 0.6138 0.42469 0.7439 0.0
C283 C 0.61407 0.41164 0.67254 0.0
C284 C 0.64044 0.42732 0.62615 0.0
C285 C 0.64051 0.41503 0.55853 0.0
C286 C 0.61442 0.38664 0.53663 0.0
C287 C 0.5882 0.37093 0.58293 0.0
C288 C 0.58779 0.38351 0.64999 0.0
C289 C 0.53001 0.38461 0.9101 0.0
C290 C 0.58947 0.30245 0.81017 0.0
C291 C 0.57781 0.28949 0.06056 0.0
C292 C 0.58688 0.29661 0.13281 0.0
C293 C 0.55678 0.29818 0.18012 0.0
C294 C 0.56353 0.3116 0.24585 0.0
C295 C 0.60033 0.32475 0.26497 0.0
C296 C 0.63059 0.32277 0.21809 0.0
C297 C 0.62403 0.30851 0.15289 0.0
C298 C 0.6648 0.35868 0.94166 0.0
C299 C 0.60608 0.41929 1.00266 0.0
O300 O 0.64053 0.41049 0.78378 0.0
O301 O 0.58008 0.42502 0.77314 0.0
O302 O 0.55265 0.35716 0.89668 0.0
O303 O 0.54648 0.41634 0.89115 0.0
O304 O 0.58813 0.33913 0.79291 0.0
O305 O 0.59262 0.29183 0.87491 0.0
O306 O 0.55366 0.31433 1.03434 0.0
O307 O 0.60689 0.28262 1.02002 0.0
O308 O 0.63999 0.35093 0.89679 0.0
O309 O 0.65062 0.34915 0.99946 0.0
O310 O 0.58931 0.38626 1.0186 0.0
O311 O 0.61685 0.42658 0.93955 0.0
H312 H 0.66083 0.44914 0.64216 0.0
H313 H 0.66091 0.42755 0.52336 0.0
H314 H 0.56779 0.34912 0.56693 0.0
H315 H 0.56663 0.37132 0.68396 0.0
H316 H 0.52769 0.29029 0.16547 0.0
H317 H 0.53973 0.31301 0.28111 0.0
H318 H 0.65912 0.33297 0.23163 0.0
H319 H 0.64776 0.3084 0.11745 0.0
Tb320 Tb 0.82044 0.59952 0.71385 0.0
Tb321 Tb 0.87822 0.60067 0.60206 0.0
C322 C 0.78 0.58278 0.8146 0.0
C323 C 0.79138 0.58222 0.88765 0.0
C324 C 0.80954 0.54971 0.91658 0.0
C325 C 0.82433 0.5509 0.98278 0.0
C326 C 0.82063 0.5843 1.02208 0.0
C327 C 0.80137 0.61625 0.99432 0.0
C328 C 0.78719 0.61534 0.92781 0.0
C329 C 0.84318 0.66904 0.68158 0.0
C330 C 0.90845 0.61316 0.75131 0.0
C331 C 0.92118 0.61293 0.50224 0.0
C332 C 0.91113 0.61153 0.42877 0.0
C333 C 0.8838 0.63707 0.40045 0.0
C334 C 0.87111 0.63272 0.33347 0.0
C335 C 0.88513 0.60259 0.29336 0.0
C336 C 0.913 0.57757 0.32075 0.0
C337 C 0.92602 0.58212 0.38762 0.0
C338 C 0.86198 0.53153 0.65691 0.0
C339 C 0.79178 0.59337 0.55745 0.0
O340 O 0.79613 0.55688 0.77593 0.0
O341 O 0.77875 0.61656 0.78487 0.0
O342 O 0.83663 0.64217 0.6392 0.0
O343 O 0.8341 0.65741 0.74147 0.0
O344 O 0.87447 0.60025 0.77191 0.0
O345 O 0.91597 0.61853 0.68614 0.0
O346 O 0.90552 0.64052 0.53777 0.0
O347 O 0.92018 0.58001 0.53452 0.0
O348 O 0.86566 0.56331 0.685 0.0
O349 O 0.86945 0.53723 0.59353 0.0
O350 O 0.82735 0.60106 0.53948 0.0
O351 O 0.78238 0.5888 0.6228 0.0
H352 H 0.81336 0.52366 0.88745 0.0
H353 H 0.83909 0.5259 1.00311 0.0
H354 H 0.79818 0.64232 1.02367 0.0
H355 H 0.77356 0.64093 0.90739 0.0
H356 H 0.87134 0.65988 0.43048 0.0
H357 H 0.84955 0.65228 0.31341 0.0
H358 H 0.92422 0.55414 0.29066 0.0
H359 H 0.94691 0.56191 0.40787 0.0
Tb360 Tb 0.60116 0.11234 0.52958 0.0
Tb361 Tb 0.59191 0.1741 0.41683 0.0
C362 C 0.61786 0.07749 0.63722 0.0
C363 C 0.60796 0.08629 0.7078 0.0
C364 C 0.63351 0.07624 0.76011 0.0
C365 C 0.62683 0.08895 0.8261 0.0
C366 C 0.59451 0.11182 0.84039 0.0
C367 C 0.56829 0.12092 0.78856 0.0
C368 C 0.57501 0.10829 0.72261 0.0
C369 C 0.53176 0.11778 0.47056 0.0
C370 C 0.58713 0.20054 0.57191 0.0
C371 C 0.56227 0.20665 0.31598 0.0
C372 C 0.5702 0.19998 0.24406 0.0
C373 C 0.54156 0.20725 0.19543 0.0
C374 C 0.54649 0.19504 0.12864 0.0
C375 C 0.57953 0.17412 0.11046 0.0
C376 C 0.60816 0.16684 0.15919 0.0
C377 C 0.60372 0.18005 0.22531 0.0
C378 C 0.66673 0.16186 0.4397 0.0
C379 C 0.61548 0.08633 0.38132 0.0
O380 O 0.64074 0.10258 0.6084 0.0
O381 O 0.58912 0.06755 0.59777 0.0
O382 O 0.55496 0.14479 0.48463 0.0
O383 O 0.54676 0.08679 0.49598 0.0
O384 O 0.5929 0.16428 0.5898 0.0
O385 O 0.58413 0.21148 0.50704 0.0
O386 O 0.54719 0.17678 0.34605 0.0
O387 O 0.59001 0.22224 0.35206 0.0
O388 O 0.63814 0.14603 0.46806 0.0
O389 O 0.65279 0.1865 0.39676 0.0
O390 O 0.59858 0.11891 0.36136 0.0
O391 O 0.62479 0.08005 0.44534 0.0
H392 H 0.65921 0.0596 0.74952 0.0
H393 H 0.64734 0.0818 0.86569 0.0
H394 H 0.54332 0.13869 0.79881 0.0
H395 H 0.55508 0.11668 0.68286 0.0
H396 H 0.51501 0.22147 0.2096 0.0
H397 H 0.52393 0.20058 0.09176 0.0
H398 H 0.63363 0.15043 0.14619 0.0
H399 H 0.6257 0.17324 0.26255 0.0
Tb400 Tb 0.17091 0.3927 0.71109 0.0
Tb401 Tb 0.11385 0.39433 0.59935 0.0
C402 C 0.21147 0.40381 0.81389 0.0
C403 C 0.19796 0.406 0.88526 0.0
C404 C 0.17062 0.43373 0.90538 0.0
C405 C 0.15514 0.4331 0.97083 0.0
C406 C 0.16667 0.40482 1.01763 0.0
C407 C 0.19414 0.37737 0.99805 0.0
C408 C 0.20951 0.37787 0.9325 0.0
C409 C 0.14605 0.32415 0.67613 0.0
C410 C 0.08314 0.38598 0.74968 0.0
C411 C 0.07014 0.38295 0.49988 0.0
C412 C 0.07993 0.38329 0.42648 0.0
C413 C 0.10893 0.35905 0.4006 0.0
C414 C 0.12105 0.36253 0.33328 0.0
C415 C 0.10473 0.39046 0.29039 0.0
C416 C 0.07534 0.41425 0.31552 0.0
C417 C 0.06295 0.41058 0.38281 0.0
C418 C 0.13467 0.4627 0.65022 0.0
C419 C 0.20064 0.39914 0.55635 0.0
O420 O 0.20082 0.43167 0.77306 0.0
O421 O 0.20811 0.37006 0.7853 0.0
O422 O 0.15431 0.35126 0.63529 0.0
O423 O 0.15179 0.33592 0.73701 0.0
O424 O 0.11782 0.39751 0.7687 0.0
O425 O 0.07499 0.37978 0.68481 0.0
O426 O 0.08477 0.35502 0.53663 0.0
O427 O 0.07269 0.41613 0.5306 0.0
O428 O 0.12847 0.43185 0.68051 0.0
O429 O 0.12695 0.45663 0.58701 0.0
O430 O 0.16481 0.39307 0.53734 0.0
O431 O 0.21002 0.40226 0.62197 0.0
H432 H 0.16038 0.45539 0.87012 0.0
H433 H 0.13378 0.45437 0.98472 0.0
H434 H 0.20328 0.3552 1.0333 0.0
H435 H 0.23013 0.35592 0.91839 0.0
H436 H 0.12304 0.33799 0.43275 0.0
H437 H 0.14388 0.34402 0.31505 0.0
H438 H 0.06241 0.43603 0.28329 0.0
H439 H 0.04081 0.42981 0.4013 0.0
Tb440 Tb 0.39599 0.88266 0.50145 0.0
Tb441 Tb 0.39611 0.82468 0.39567 0.0
C442 C 0.38683 0.9207 0.60836 0.0
C443 C 0.38086 0.90965 0.67992 0.0
C444 C 0.35502 0.88019 0.69835 0.0
C445 C 0.35388 0.8666 0.76519 0.0
C446 C 0.37884 0.882 0.8143 0.0
C447 C 0.40368 0.91225 0.79643 0.0
C448 C 0.40457 0.92604 0.72989 0.0
C449 C 0.46468 0.87249 0.44232 0.0
C450 C 0.39912 0.79545 0.54957 0.0
C451 C 0.40894 0.78331 0.29497 0.0
C452 C 0.40477 0.7939 0.22212 0.0
C453 C 0.43462 0.81424 0.18932 0.0
C454 C 0.42982 0.82817 0.12344 0.0
C455 C 0.39581 0.82062 0.08723 0.0
C456 C 0.36624 0.79952 0.11887 0.0
C457 C 0.37036 0.787 0.18617 0.0
C458 C 0.32612 0.85174 0.42118 0.0
C459 C 0.3881 0.91285 0.35498 0.0
O460 O 0.35885 0.91369 0.56526 0.0
O461 O 0.4205 0.91133 0.58416 0.0
O462 O 0.44078 0.84662 0.45825 0.0
O463 O 0.44995 0.90512 0.4596 0.0
O464 O 0.39814 0.83206 0.56628 0.0
O465 O 0.39902 0.78457 0.48462 0.0
O466 O 0.43551 0.80249 0.32725 0.0
O467 O 0.37759 0.77951 0.33143 0.0
O468 O 0.35203 0.84398 0.46444 0.0
O469 O 0.33991 0.8442 0.36243 0.0
O470 O 0.40377 0.87929 0.33943 0.0
O471 O 0.37705 0.91966 0.41764 0.0
H472 H 0.33661 0.86687 0.66077 0.0
H473 H 0.33462 0.84315 0.77807 0.0
H474 H 0.42313 0.92445 0.83366 0.0
H475 H 0.42486 0.9486 0.71683 0.0
H476 H 0.46151 0.82044 0.21516 0.0
H477 H 0.45286 0.84464 0.10035 0.0
H478 H 0.33962 0.79357 0.09196 0.0
H479 H 0.34661 0.77197 0.21001 0.0
Tb480 Tb 0.82997 0.90341 0.66591 0.0
Tb481 Tb 0.89107 0.89482 0.77211 0.0
C482 C 0.79641 0.9241 0.55865 0.0
C483 C 0.80935 0.92664 0.48716 0.0
C484 C 0.8254 0.9609 0.46122 0.0
C485 C 0.83999 0.96229 0.39523 0.0
C486 C 0.83816 0.92965 0.35375 0.0
C487 C 0.82116 0.89585 0.37864 0.0
C488 C 0.80702 0.89429 0.44469 0.0
C489 C 0.83509 0.83248 0.71586 0.0
C490 C 0.91753 0.87929 0.62527 0.0
C491 C 0.92535 0.87671 0.87977 0.0
C492 C 0.9189 0.88781 0.95111 0.0
C493 C 0.90922 0.85928 0.99868 0.0
C494 C 0.89849 0.86935 0.06438 0.0
C495 C 0.89748 0.90812 0.08384 0.0
C496 C 0.90837 0.93669 1.03729 0.0
C497 C 0.91883 0.92666 0.9713 0.0
C498 C 0.88867 0.96332 0.71172 0.0
C499 C 0.80363 0.91204 0.8184 0.0
O500 O 0.81211 0.94823 0.60132 0.0
O501 O 0.7935 0.88954 0.58457 0.0
O502 O 0.86268 0.85547 0.70404 0.0
O503 O 0.80356 0.84981 0.69727 0.0
O504 O 0.88429 0.89573 0.6071 0.0
O505 O 0.92439 0.87062 0.68934 0.0
O506 O 0.89776 0.85601 0.85282 0.0
O507 O 0.93786 0.90343 0.83829 0.0
O508 O 0.86048 0.94202 0.72764 0.0
O509 O 0.91896 0.94865 0.74042 0.0
O510 O 0.83971 0.90358 0.83412 0.0
O511 O 0.79266 0.91666 0.75406 0.0
H512 H 0.82735 0.98642 0.49228 0.0
H513 H 0.85301 0.98865 0.37674 0.0
H514 H 0.8195 0.8704 0.34725 0.0
H515 H 0.7947 0.86751 0.4627 0.0
H516 H 0.90885 0.82921 0.98435 0.0
H517 H 0.89021 0.84694 0.09973 0.0
H518 H 0.90786 0.96676 1.05161 0.0
H519 H 0.92588 0.94939 0.93579 0.0
Tb520 Tb 0.90152 0.11314 0.35275 0.0
Tb521 Tb 0.89953 0.17101 0.45956 0.0
C522 C 0.8929 0.0763 0.24396 0.0
C523 C 0.88924 0.08821 0.17206 0.0
C524 C 0.86517 0.0677 0.12757 0.0
C525 C 0.86215 0.07867 0.05927 0.0
C526 C 0.88316 0.11037 1.03465 0.0
C527 C 0.90705 0.1309 0.07908 0.0
C528 C 0.91025 0.11984 0.14691 0.0
C529 C 0.96874 0.12302 0.41582 0.0
C530 C 0.90485 0.20154 0.30752 0.0
C531 C 0.90875 0.21351 0.56029 0.0
C532 C 0.89949 0.20414 0.63173 0.0
C533 C 0.92953 0.20276 0.67967 0.0
C534 C 0.92342 0.18727 0.74419 0.0
C535 C 0.88728 0.17209 0.7618 0.0
C536 C 0.85697 0.1738 0.71447 0.0
C537 C 0.86294 0.18986 0.65014 0.0
C538 C 0.83087 0.14088 0.43143 0.0
C539 C 0.89346 0.08335 0.50059 0.0
O540 O 0.86422 0.08503 0.28406 0.0
O541 O 0.9263 0.08311 0.2723 0.0
O542 O 0.94518 0.1492 0.39904 0.0
O543 O 0.9543 0.09023 0.39767 0.0
O544 O 0.90683 0.16493 0.29046 0.0
O545 O 0.90191 0.21183 0.37232 0.0
O546 O 0.93592 0.19195 0.53533 0.0
O547 O 0.87999 0.21774 0.51755 0.0
O548 O 0.85664 0.15011 0.38936 0.0
O549 O 0.84389 0.14901 0.49068 0.0
O550 O 0.90779 0.11734 0.5169 0.0
O551 O 0.88334 0.07589 0.43724 0.0
H552 H 0.84884 0.04313 0.1456 0.0
H553 H 0.84347 0.06254 1.02569 0.0
H554 H 0.9234 0.15547 0.06109 0.0
H555 H 0.9295 0.13596 0.17939 0.0
H556 H 0.95821 0.21251 0.66635 0.0
H557 H 0.94721 0.18618 0.77987 0.0
H558 H 0.8289 0.16209 0.72699 0.0
H559 H 0.83936 0.18963 0.61405 0.0
Tb560 Tb 0.19025 0.1016 0.64571 0.0
Tb561 Tb 0.1274 0.08942 0.74067 0.0
C562 C 0.23064 0.10176 0.53946 0.0
C563 C 0.22007 0.09842 0.46639 0.0
C564 C 0.22889 0.06494 0.42976 0.0
C565 C 0.21708 0.06099 0.36203 0.0
C566 C 0.19529 0.09003 0.33006 0.0
C567 C 0.18685 0.12363 0.36634 0.0
C568 C 0.19967 0.1281 0.43311 0.0
C569 C 0.17473 0.16452 0.71611 0.0
C570 C 0.10039 0.11521 0.59796 0.0
C571 C 0.0903 0.08314 0.84951 0.0
C572 C 0.10364 0.08223 0.92141 0.0
C573 C 0.10074 0.11519 0.96227 0.0
C574 C 0.11559 0.11517 1.02842 0.0
C575 C 0.1336 0.08221 0.05518 0.0
C576 C 0.13597 0.04906 1.01509 0.0
C577 C 0.12098 0.04898 0.94914 0.0
C578 C 0.13798 0.03102 0.6576 0.0
C579 C 0.21535 0.08641 0.79524 0.0
O580 O 0.22607 0.07126 0.57761 0.0
O581 O 0.21908 0.13279 0.57025 0.0
O582 O 0.1505 0.14036 0.69338 0.0
O583 O 0.20871 0.15183 0.70076 0.0
O584 O 0.13725 0.10954 0.58284 0.0
O585 O 0.08902 0.11267 0.66193 0.0
O586 O 0.09425 0.1157 0.81683 0.0
O587 O 0.10016 0.05386 0.81205 0.0
O588 O 0.16463 0.05046 0.68583 0.0
O589 O 0.10488 0.04251 0.67946 0.0
O590 O 0.17842 0.09197 0.80787 0.0
O591 O 0.2275 0.08476 0.73174 0.0
H592 H 0.24467 0.04164 0.45371 0.0
H593 H 0.2242 0.03491 0.33498 0.0
H594 H 0.17026 0.14649 0.3428 0.0
H595 H 0.19233 0.1544 0.45927 0.0
H596 H 0.08745 0.14119 0.94276 0.0
H597 H 0.11338 0.14103 0.0586 0.0
H598 H 0.14971 0.02332 1.03474 0.0
H599 H 0.12362 0.02294 0.91958 0.0
Tb600 Tb 0.09305 0.87526 0.33453 0.0
Tb601 Tb 0.08675 0.81322 0.448 0.0
C602 C 0.10695 0.90829 0.22438 0.0
C603 C 0.09914 0.89552 0.15426 0.0
C604 C 0.12874 0.87788 0.11711 0.0
C605 C 0.12105 0.86157 1.05418 0.0
C606 C 0.08375 0.86297 1.02661 0.0
C607 C 0.05424 0.88145 0.06242 0.0
C608 C 0.06182 0.8975 0.12594 0.0
C609 C 0.02712 0.87246 0.40162 0.0
C610 C 0.08029 0.78713 0.29346 0.0
C611 C 0.05605 0.77743 0.54456 0.0
C612 C 0.05734 0.78173 0.61899 0.0
C613 C 0.02554 0.79782 0.65268 0.0
C614 C 0.02811 0.80746 0.72111 0.0
C615 C 0.06197 0.79975 0.75781 0.0
C616 C 0.09268 0.78096 0.72551 0.0
C617 C 0.09072 0.7728 0.65638 0.0
C618 C 0.1611 0.82574 0.41998 0.0
C619 C 0.11283 0.89986 0.48209 0.0
O620 O 0.13231 0.88753 0.25726 0.0
O621 O 0.0771 0.91678 0.26197 0.0
O622 O 0.04825 0.84429 0.3845 0.0
O623 O 0.04142 0.90329 0.37433 0.0
O624 O 0.0825 0.82369 0.27582 0.0
O625 O 0.08047 0.77562 0.35799 0.0
O626 O 0.03958 0.8059 0.51218 0.0
O627 O 0.08733 0.76545 0.51389 0.0
O628 O 0.13154 0.84107 0.39306 0.0
O629 O 0.14831 0.80189 0.46544 0.0
O630 O 0.09524 0.86798 0.50396 0.0
O631 O 0.12035 0.9054 0.41731 0.0
H632 H 0.15777 0.87596 0.13735 0.0
H633 H 0.1443 0.84803 1.0266 0.0
H634 H 0.02539 0.88326 1.04132 0.0
H635 H 0.03835 0.91087 0.15316 0.0
H636 H 0.99925 0.80457 0.62529 0.0
H637 H 0.00408 0.82192 0.74498 0.0
H638 H 0.11912 0.77487 0.75294 0.0
H639 H 0.11574 0.76046 0.63204 0.0
C640 C 0.41939 0.96943 0.29844 0.0
C641 C 0.38745 0.94441 0.30253 0.0
C642 C 0.36207 0.97389 0.19691 0.0
C643 C 0.39587 0.99722 0.19186 0.0
N644 N 0.46383 -0.00139 0.22111 0.0
N645 N 0.32899 0.92033 0.25213 0.0
C646 C 0.42674 0.98966 0.23749 0.0
C647 C 0.35894 0.9458 0.25043 0.0
N648 N 0.44262 0.97472 0.35326 0.0
N649 N 0.33325 0.97825 0.15024 0.0
H650 H 0.32429 0.90215 0.29325 0.0
H651 H 0.30956 0.91639 0.21249 0.0
H652 H 0.33679 0.99442 0.10618 0.0
H653 H 0.30592 0.96617 0.15514 0.0
H654 H 0.46488 0.99471 0.35355 0.0
H655 H 0.43586 0.96373 0.40071 0.0
H656 H 0.48703 0.99106 0.25202 0.0
H657 H 0.47213 0.0069 0.1727 0.0
C658 C 0.96507 0.58116 0.80527 0.0
C659 C 0.94055 0.61353 0.80156 0.0
C660 C 0.97275 0.64111 0.90181 0.0
C661 C 0.99747 0.60825 0.9058 0.0
N662 N 0.00926 0.5423 0.86898 0.0
N663 N 0.91772 0.67296 0.84826 0.0
C664 C 0.99106 0.57684 0.86049 0.0
C665 C 0.94346 0.64317 0.85049 0.0
N666 N 0.96487 0.55486 0.75394 0.0
N667 N 0.977 0.67018 0.9477 0.0
H668 H 0.89776 0.67633 0.80908 0.0
H669 H 0.91495 0.69369 0.8857 0.0
H670 H 0.99392 0.66764 0.99116 0.0
H671 H 0.96404 0.69705 0.94314 0.0
H672 H 0.98523 0.53302 0.74933 0.0
H673 H 0.94663 0.55678 0.71215 0.0
H674 H 0.99847 0.51696 0.84815 0.0
H675 H 0.03392 0.53769 0.89751 0.0
C676 C 0.59511 0.99533 0.28153 0.0
C677 C 0.62169 0.99752 0.22647 0.0
C678 C 0.64528 0.05937 0.27335 0.0
C679 C 0.62139 0.05448 0.33105 0.0
N680 N 0.58378 0.01072 0.39888 0.0
N681 N 0.67522 0.03067 0.17438 0.0
C682 C 0.59993 0.02008 0.33808 0.0
C683 C 0.64797 0.02915 0.22406 0.0
N684 N 0.56447 0.97053 0.28041 0.0
N685 N 0.66541 0.0929 0.26561 0.0
H686 H 0.67653 0.01086 0.135 0.0
H687 H 0.69787 0.05037 0.17412 0.0
H688 H 0.66629 0.11408 0.30286 0.0
H689 H 0.67971 0.10051 0.22131 0.0
H690 H 0.54242 0.97099 0.31594 0.0
H691 H 0.55804 0.95153 0.24189 0.0
H692 H 0.56687 0.98658 0.40674 0.0
H693 H 0.58759 0.02618 0.4432 0.0
C694 C 0.02288 0.41702 0.90052 0.0
C695 C 0.0017 0.38304 0.91491 0.0
C696 C 0.03711 0.34928 0.82565 0.0
C697 C 0.05287 0.3849 0.8033 0.0
N698 N 0.06033 0.45327 0.81898 0.0
N699 N 0.00742 0.31419 0.91836 0.0
C700 C 0.04591 0.41888 0.84116 0.0
C701 C 0.01405 0.34813 0.88535 0.0
N702 N 0.02349 0.44622 0.9466 0.0
N703 N 0.04405 0.31655 0.78988 0.0
H704 H 0.9946 0.31308 0.96595 0.0
H705 H 0.01864 0.2879 0.90276 0.0
H706 H 0.06205 0.31626 0.74793 0.0
H707 H 0.02995 0.29056 0.79899 0.0
H708 H 0.04116 0.47033 0.94248 0.0
H709 H 0.01083 0.44357 0.99416 0.0
H710 H 0.05486 0.47951 0.84191 0.0
H711 H 0.07554 0.45611 0.77399 0.0
C712 C 0.41401 0.50422 0.11333 0.0
C713 C 0.37891 0.4957 0.1481 0.0
C714 C 0.34611 0.54342 0.0747 0.0
C715 C 0.382 0.55407 1.04552 0.0
N716 N 0.4514 0.55062 1.05119 0.0
N717 N 0.31389 0.51633 0.17276 0.0
C718 C 0.41619 0.53664 0.0698 0.0
C719 C 0.3455 0.51785 0.13182 0.0
N720 N 0.44485 0.47979 0.11561 0.0
N721 N 0.31259 0.5579 1.04861 0.0
H722 H 0.31297 0.49992 0.21695 0.0
H723 H 0.29017 0.53446 0.16676 0.0
H724 H 0.31202 0.57757 1.00866 0.0
H725 H 0.28544 0.54804 0.06316 0.0
H726 H 0.4669 0.48166 0.0804 0.0
H727 H 0.44653 0.45418 0.14224 0.0
H728 H 0.477 0.54199 0.07417 0.0
H729 H 0.45509 0.57316 1.01744 0.0
C730 C 0.54061 0.65317 1.02649 0.0
C731 C 0.5593 0.61792 1.04353 0.0
C732 C 0.52438 0.58648 0.94919 0.0
C733 C 0.50188 0.62028 0.93933 0.0
N734 N 0.5077 0.68921 0.93782 0.0
N735 N 0.58059 0.55641 0.99907 0.0
C736 C 0.5156 0.65489 0.96868 0.0
C737 C 0.55479 0.58614 0.99828 0.0
N738 N 0.54755 0.68541 0.06391 0.0
N739 N 0.51741 0.55475 0.91043 0.0
H740 H 0.60291 0.5536 1.03378 0.0
H741 H 0.58207 0.53562 0.96137 0.0
H742 H 0.50256 0.5562 0.86455 0.0
H743 H 0.52708 0.52724 0.92292 0.0
H744 H 0.53198 0.71083 0.05759 0.0
H745 H 0.56769 0.68625 0.10321 0.0
H746 H 0.51963 0.71527 0.95337 0.0
H747 H 0.49291 0.69087 0.89187 0.0
C748 C 0.57833 0.5006 0.12309 0.0
C749 C 0.61368 0.50862 0.15756 0.0
C750 C 0.64456 0.45666 0.09158 0.0
C751 C 0.6093 0.44972 0.0564 0.0
N752 N 0.54387 0.46833 1.03405 0.0
N753 N 0.67743 0.48623 0.18715 0.0
C754 C 0.57647 0.47188 0.07232 0.0
C755 C 0.64611 0.48454 0.14496 0.0
N756 N 0.54544 0.52002 0.13853 0.0
N757 N 0.67687 0.437 0.07327 0.0
H758 H 0.679 0.50454 0.22864 0.0
H759 H 0.7004 0.46698 0.1854 0.0
H760 H 0.67609 0.41488 1.03815 0.0
H761 H 0.7046 0.44407 0.08942 0.0
H762 H 0.51862 0.50676 0.1354 0.0
H763 H 0.54465 0.5491 0.15051 0.0
H764 H 0.52291 0.48971 1.03138 0.0
H765 H 0.53935 0.44578 1.00086 0.0
C766 C 0.43726 0.41641 0.99948 0.0
C767 C 0.4348 0.38683 1.05053 0.0
C768 C 0.48024 0.34884 0.98156 0.0
C769 C 0.49187 0.38252 0.94684 0.0
N770 N 0.47357 0.44609 0.90907 0.0
N771 N 0.45029 0.32101 0.08029 0.0
C772 C 0.46789 0.41551 0.95155 0.0
C773 C 0.45552 0.35199 1.03892 0.0
N774 N 0.40975 0.44448 0.99308 0.0
N775 N 0.48928 0.31363 0.95569 0.0
H776 H 0.42833 0.31981 0.11572 0.0
H777 H 0.46814 0.29686 0.07944 0.0
H778 H 0.50341 0.31053 0.90959 0.0
H779 H 0.47866 0.28787 0.97538 0.0
H780 H 0.40723 0.46204 0.95044 0.0
H781 H 0.38751 0.44973 1.02646 0.0
H782 H 0.46338 0.4737 0.91921 0.0
H783 H 0.48787 0.4436 0.86302 0.0
C784 C 0.8421 0.45432 0.78814 0.0
C785 C 0.88054 0.44481 0.80849 0.0
C786 C 0.90496 0.48055 0.70901 0.0
C787 C 0.86739 0.49484 0.69594 0.0
N788 N 0.7993 0.48689 0.70768 0.0
N789 N 0.94897 0.45067 0.78905 0.0
C790 C 0.83564 0.47926 0.73136 0.0
C791 C 0.91203 0.45792 0.76832 0.0
N792 N 0.8118 0.43919 0.8229 0.0
N793 N 0.93364 0.48756 0.66342 0.0
H794 H 0.95529 0.43558 0.83324 0.0
H795 H 0.97331 0.46228 0.76602 0.0
H796 H 0.92914 0.50357 0.61941 0.0
H797 H 0.96072 0.47466 0.66572 0.0
H798 H 0.78315 0.4473 0.81671 0.0
H799 H 0.8157 0.41792 0.85898 0.0
H800 H 0.77402 0.47558 0.72766 0.0
H801 H 0.79459 0.50365 0.6645 0.0
C802 C 0.47565 0.14896 0.40382 0.0
C803 C 0.50204 0.11795 0.41399 0.0
C804 C 0.48633 0.09493 0.30015 0.0
C805 C 0.45532 0.12094 0.29435 0.0
N806 N 0.41825 0.172 0.34453 0.0
N807 N 0.51548 0.05257 0.38019 0.0
C808 C 0.44921 0.14781 0.34753 0.0
C809 C 0.50284 0.08847 0.36457 0.0
N810 N 0.47571 0.17933 0.44737 0.0
N811 N 0.4995 0.07519 0.24543 0.0
H812 H 0.51735 0.04263 0.42977 0.0
H813 H 0.51663 0.03086 0.34424 0.0
H814 H 0.48832 0.07886 0.19692 0.0
H815 H 0.52441 0.05834 0.24768 0.0
H816 H 0.46021 0.20454 0.43838 0.0
H817 H 0.49254 0.17985 0.49119 0.0
H818 H 0.40988 0.18932 0.38479 0.0
H819 H 0.39978 0.17309 0.30276 0.0
C820 C 0.15344 0.53389 0.78756 0.0
C821 C 0.11699 0.55255 0.79387 0.0
C822 C 0.09419 0.51806 0.6923 0.0
C823 C 0.13064 0.5 0.68638 0.0
N824 N 0.19819 0.50272 0.71125 0.0
N825 N 0.05727 0.57079 0.73695 0.0
C826 C 0.16126 0.51174 0.72876 0.0
C827 C 0.08897 0.54759 0.74122 0.0
N828 N 0.18078 0.5368 0.83724 0.0
N829 N 0.06365 0.5056 0.65428 0.0
H830 H 0.04976 0.59102 0.77302 0.0
H831 H 0.03968 0.57184 0.69408 0.0
H832 H 0.06611 0.48494 0.61656 0.0
H833 H 0.03529 0.51407 0.6632 0.0
H834 H 0.2056 0.51986 0.83821 0.0
H835 H 0.17807 0.55435 0.87945 0.0
H836 H 0.22235 0.51358 0.73629 0.0
H837 H 0.20433 0.48719 0.66749 0.0
C838 C 0.56641 0.89857 0.38258 0.0
C839 C 0.56782 0.87536 0.32272 0.0
C840 C 0.51535 0.83653 0.37238 0.0
C841 C 0.50502 0.8677 0.41418 0.0
N842 N 0.52933 0.92051 0.47959 0.0
N843 N 0.54801 0.8153 0.27127 0.0
C844 C 0.5334 0.89629 0.42578 0.0
C845 C 0.54346 0.84226 0.32061 0.0
N846 N 0.59669 0.92156 0.40046 0.0
N847 N 0.50261 0.80052 0.388 0.0
H848 H 0.57117 0.81543 0.23777 0.0
H849 H 0.52823 0.79308 0.26364 0.0
H850 H 0.48543 0.79527 0.43025 0.0
H851 H 0.51239 0.77585 0.3636 0.0
H852 H 0.59998 0.93288 0.44879 0.0
H853 H 0.61969 0.9286 0.36963 0.0
H854 H 0.546 0.94499 0.4875 0.0
H855 H 0.50949 0.91532 0.5181 0.0
C856 C 0.85702 0.01889 0.64627 0.0
C857 C 0.88944 0.99445 0.65761 0.0
C858 C 0.92556 0.03305 0.57369 0.0
C859 C 0.89156 0.05273 0.55433 0.0
N860 N 0.82319 0.06171 0.56906 0.0
N861 N 0.95227 0.97432 0.61635 0.0
C862 C 0.8567 0.04467 0.58948 0.0
C863 C 0.9231 0.00055 0.61725 0.0
N864 N 0.82733 0.01918 0.69151 0.0
N865 N 0.96071 0.04547 0.55147 0.0
H866 H 0.95153 0.94868 0.64272 0.0
H867 H 0.97498 0.97572 0.58208 0.0
H868 H 0.96407 0.06915 0.51982 0.0
H869 H 0.98673 0.03482 0.57044 0.0
H870 H 0.80472 0.0389 0.68923 0.0
H871 H 0.82728 0.00262 0.73554 0.0
H872 H 0.79617 0.05366 0.58726 0.0
H873 H 0.82227 0.08181 0.53004 0.0
C874 C 0.07143 0.10211 0.47988 0.0
C875 C 0.07139 0.12349 0.54137 0.0
C876 C 0.01637 0.15886 0.49232 0.0
C877 C 0.00785 0.1277 0.44885 0.0
N878 N 0.03409 0.07235 0.39107 0.0
N879 N 0.0436 0.17795 0.59937 0.0
C880 C 0.03707 0.09956 0.44043 0.0
C881 C 0.04345 0.15339 0.54608 0.0
N882 N 0.10504 0.08956 0.45268 0.0
N883 N 0.00311 0.19476 0.47729 0.0
H884 H 0.06494 0.17715 0.63626 0.0
H885 H 0.02171 0.19807 0.60688 0.0
H886 H 0.98708 0.2005 0.43365 0.0
H887 H 0.01169 0.21909 0.50428 0.0
H888 H 0.10658 0.07755 0.40456 0.0
H889 H 0.13163 0.09825 0.47096 0.0
H890 H 0.05252 0.04869 0.38894 0.0
H891 H 0.01395 0.07379 0.3519 0.0
C892 C 0.12308 0.97066 0.50423 0.0
C893 C 0.12263 0.93224 0.52946 0.0
C894 C 0.13796 0.95844 0.64246 0.0
C895 C 0.1419 0.99581 0.61462 0.0
N896 N 0.15383 0.03169 0.51359 0.0
N897 N 0.14303 0.89008 0.62081 0.0
C898 C 0.13956 -8e-05 0.54396 0.0
C899 C 0.13377 0.92605 0.59829 0.0
N900 N 0.10587 0.98069 0.4443 0.0
N901 N 0.1378 0.95374 0.71087 0.0
H902 H 0.14308 0.86597 0.58966 0.0
H903 H 0.15576 0.88546 0.66799 0.0
H904 H 0.14293 0.9764 0.74428 0.0
H905 H 0.13 0.92786 0.73345 0.0
H906 H 0.10366 0.00921 0.42849 0.0
H907 H 0.08933 0.96243 0.41449 0.0
H908 H 0.15771 0.03338 0.46141 0.0
H909 H 0.16545 0.05375 0.54161 0.0
C910 C 0.00568 0.89469 0.51821 0.0
C911 C 0.99843 0.87267 0.45892 0.0
C912 C 0.93731 0.85142 0.51118 0.0
C913 C 0.94734 0.87085 0.5722 0.0
N914 N 0.00096 0.89507 0.63928 0.0
N915 N 0.9593 0.82421 0.40468 0.0
C916 C 0.98483 0.88678 0.5779 0.0
C917 C 0.96493 0.84892 0.45736 0.0
N918 N 0.03053 0.92503 0.5178 0.0
N919 N 0.90166 0.83508 0.50475 0.0
H920 H 0.97778 0.82299 0.36323 0.0
H921 H 0.93763 0.80343 0.40405 0.0
H922 H 0.8824 0.83294 0.54504 0.0
H923 H 0.8908 0.82489 0.45898 0.0
H924 H 0.03502 0.9426 0.55979 0.0
H925 H 0.04208 0.93621 0.47384 0.0
H926 H 0.02971 0.90364 0.6441 0.0
H927 H 0.98763 0.88972 0.68533 0.0
C928 C 0.31526 0.22774 0.15398 0.0
C929 C 0.35036 0.20741 0.16359 0.0
C930 C 0.38237 0.26762 0.19698 0.0
C931 C 0.3476 0.28811 0.18629 0.0
N932 N 0.27896 0.28707 0.16801 0.0
N933 N 0.41935 0.21083 0.16992 0.0
C934 C 0.31343 0.26791 0.16836 0.0
C935 C 0.38454 0.22806 0.17878 0.0
N936 N 0.28436 0.20876 0.12677 0.0
N937 N 0.41313 0.28576 0.22598 0.0
H938 H 0.42125 0.18467 0.14512 0.0
H939 H 0.44567 0.22493 0.17573 0.0
H940 H 0.41212 0.31468 0.23944 0.0
H941 H 0.4381 0.27149 0.24146 0.0
H942 H 0.25857 0.22193 0.11278 0.0
H943 H 0.28604 0.18005 0.1117 0.0
H944 H 0.25231 0.27383 0.16127 0.0
H945 H 0.27669 0.31607 0.18095 0.0
C946 C 0.26179 0.62865 0.88984 0.0
C947 C 0.285 0.65407 0.92831 0.0
C948 C 0.22633 0.68062 0.97957 0.0
C949 C 0.20321 0.65781 0.93622 0.0
N950 N 0.20112 0.62257 0.83091 0.0
N951 N 0.28731 0.71358 0.99151 0.0
C952 C 0.22142 0.6353 0.88562 0.0
C953 C 0.26669 0.6829 0.96789 0.0
N954 N 0.27761 0.59726 0.8597 0.0
N955 N 0.21004 0.69966 1.03257 0.0
H956 H 0.31594 0.71845 0.978 0.0
H957 H 0.2746 0.73667 1.01649 0.0
H958 H 0.18072 0.69771 1.04375 0.0
H959 H 0.22632 0.71404 0.06906 0.0
H960 H 0.261 0.57644 0.83522 0.0
H961 H 0.30651 0.59007 0.8662 0.0
H962 H 0.21428 0.60877 0.7903 0.0
H963 H 0.17242 0.63 0.82235 0.0
C964 C 0.66745 0.77707 0.24083 0.0
C965 C 0.66813 0.79421 0.17525 0.0
C966 C 0.65975 0.73041 0.12389 0.0
C967 C 0.66306 0.71304 0.18904 0.0
N968 N 0.67399 0.71901 0.30884 0.0
N969 N 0.66896 0.78752 1.05423 0.0
C970 C 0.66767 0.73618 0.24738 0.0
C971 C 0.66502 0.77097 0.11672 0.0
N972 N 0.66639 0.79987 0.29702 0.0
N973 N 0.65177 0.70809 0.06876 0.0
H974 H 0.67272 0.81706 1.04736 0.0
H975 H 0.67133 0.77198 1.00954 0.0
H976 H 0.64953 0.67823 0.07118 0.0
H977 H 0.64461 0.71921 1.02138 0.0
H978 H 0.66101 0.78944 0.34552 0.0
H979 H 0.6683 0.82975 0.29498 0.0
H980 H 0.68238 0.7339 0.35206 0.0
H981 H 0.67329 0.68924 0.31587 0.0
C982 C 0.76767 0.3212 0.94141 0.0
C983 C 0.78804 0.35629 0.95088 0.0
C984 C 0.72811 0.39224 0.93573 0.0
C985 C 0.7071 0.35742 0.93216 0.0
N986 N 0.70597 0.28808 0.93883 0.0
N987 N 0.78556 0.42378 0.9772 0.0
C988 C 0.72664 0.32161 0.9371 0.0
C989 C 0.76751 0.39134 0.95482 0.0
N990 N 0.78766 0.28758 0.93545 0.0
N991 N 0.71083 0.42612 0.91824 0.0
H992 H 0.81435 0.4236 0.99218 0.0
H993 H 0.77109 0.4495 0.9866 0.0
H994 H 0.68286 0.42702 0.89903 0.0
H995 H 0.72563 0.45219 0.91504 0.0
H996 H 0.77513 0.26179 0.92016 0.0
H997 H 0.81738 0.28602 0.94329 0.0
H998 H 0.71795 0.26146 0.95102 0.0
H999 H 0.67619 0.28709 0.93109 0.0
C1000 C 0.80527 0.7291 0.67889 0.0
C1001 C 0.84132 0.71107 0.66867 0.0
C1002 C 0.87452 0.77072 0.70132 0.0
C1003 C 0.83823 0.78925 0.71059 0.0
N1004 N 0.77065 0.78013 0.73501 0.0
N1005 N 0.90988 0.71578 0.6575 0.0
C1006 C 0.80387 0.76689 0.70623 0.0
C1007 C 0.8758 0.73246 0.67549 0.0
N1008 N 0.77222 0.70957 0.66318 0.0
N1009 N 0.90739 0.78781 0.72465 0.0
H1010 H 0.91097 0.6879 0.63836 0.0
H1011 H 0.93604 0.73044 0.65494 0.0
H1012 H 0.90655 0.81208 0.75505 0.0
H1013 H 0.9346 0.77519 0.72336 0.0
H1014 H 0.74497 0.72218 0.66313 0.0
H1015 H 0.77269 0.68173 0.64354 0.0
H1016 H 0.74541 0.76397 0.73838 0.0
H1017 H 0.76984 0.805 0.76434 0.0
C1018 C 0.77298 0.18295 0.42054 0.0
C1019 C 0.78884 0.14537 0.42005 0.0
C1020 C 0.72584 0.11834 0.45048 0.0
C1021 C 0.70936 0.15569 0.44824 0.0
N1022 N 0.71999 0.22394 0.45374 0.0
N1023 N 0.77918 0.07702 0.41835 0.0
C1024 C 0.73375 0.18814 0.43892 0.0
C1025 C 0.76478 0.11297 0.4299 0.0
N1026 N 0.79526 0.21369 0.40209 0.0
N1027 N 0.70582 0.08883 0.47895 0.0
H1028 H 0.80742 0.07273 0.40186 0.0
H1029 H 0.76232 0.05219 0.41862 0.0
H1030 H 0.68108 0.09417 0.50661 0.0
H1031 H 0.71679 0.06117 0.48562 0.0
H1032 H 0.78436 0.24121 0.39368 0.0
H1033 H 0.8241 0.2111 0.38841 0.0
H1034 H 0.73682 0.24875 0.45468 0.0
H1035 H 0.69252 0.22802 0.4735 0.0
C1036 C 0.19174 0.26968 0.674 0.0
C1037 C 0.1534 0.28282 0.6648 0.0
C1038 C 0.12903 0.22119 0.70689 0.0
C1039 C 0.16724 0.2071 0.71286 0.0
N1040 N 0.23359 0.22476 0.7323 0.0
N1041 N 0.086 0.26871 0.65747 0.0
C1042 C 0.19848 0.23314 0.70431 0.0
C1043 C 0.12222 0.25763 0.67637 0.0
N1044 N 0.22176 0.29245 0.65423 0.0
N1045 N 0.09986 0.20188 0.73796 0.0
H1046 H 0.08097 0.29506 0.63337 0.0
H1047 H 0.06199 0.25077 0.66055 0.0
H1048 H 0.10521 0.17738 0.76674 0.0
H1049 H 0.07197 0.21275 0.7424 0.0
H1050 H 0.25021 0.28285 0.65284 0.0
H1051 H 0.2176 0.31949 0.63245 0.0
H1052 H 0.25681 0.2438 0.73252 0.0
H1053 H 0.23756 0.20125 0.76448 0.0
C1054 C 0.25898 0.87714 0.42174 0.0
C1055 C 0.28406 0.84552 0.43118 0.0
C1056 C 0.22913 0.80106 0.41816 0.0
C1057 C 0.20372 0.83289 0.40982 0.0
N1058 N 0.19842 0.8992 0.37618 0.0
N1059 N 0.29319 0.77726 0.44625 0.0
C1060 C 0.21959 0.87054 0.40464 0.0
C1061 C 0.26913 0.80739 0.43175 0.0
N1062 N 0.27291 0.91367 0.42956 0.0
N1063 N 0.21531 0.76469 0.40718 0.0
H1064 H 0.32262 0.78063 0.45509 0.0
H1065 H 0.28383 0.74924 0.45502 0.0
H1066 H 0.18709 0.75945 0.39104 0.0
H1067 H 0.23233 0.74006 0.40643 0.0
H1068 H 0.25543 0.93804 0.4301 0.0
H1069 H 0.30157 0.91918 0.44267 0.0
H1070 H 0.20863 0.92692 0.36699 0.0
H1071 H 0.17328 0.89278 0.35056 0.0
C1072 C 0.23791 0.05498 0.90637 0.0
C1073 C 0.24279 0.08409 0.85577 0.0
C1074 C 0.28728 0.11788 0.93397 0.0
C1075 C 0.28558 0.08707 0.98177 0.0
N1076 N 0.26231 0.02351 1.00846 0.0
N1077 N 0.27933 0.13908 0.81777 0.0
C1078 C 0.26146 0.05495 0.96678 0.0
C1079 C 0.26974 0.11415 0.8685 0.0
N1080 N 0.21087 0.02691 0.89641 0.0
N1081 N 0.3043 0.15182 0.95232 0.0
H1082 H 0.26859 0.13665 0.76883 0.0
H1083 H 0.30108 0.15959 0.82212 0.0
H1084 H 0.31587 0.15648 1.00039 0.0
H1085 H 0.30305 0.17672 0.92291 0.0
H1086 H 0.20231 0.00762 0.93389 0.0
H1087 H 0.19556 0.02397 0.85118 0.0
H1088 H 0.24914 0.99741 0.99692 0.0
H1089 H 0.27859 0.02254 1.05283 0.0
C1090 C 0.1064 0.74635 0.12061 0.0
C1091 C 0.07817 0.71738 0.11049 0.0
C1092 C 0.05043 0.73295 0.22265 0.0
C1093 C 0.08105 0.75922 0.23517 0.0
N1094 N 0.14324 0.78381 0.20152 0.0
N1095 N 0.02566 0.67974 0.15551 0.0
C1096 C 0.11043 0.76386 0.1855 0.0
C1097 C 0.05097 0.70961 0.16283 0.0
N1098 N 0.12943 0.7574 0.06807 0.0
N1099 N 0.01991 0.73153 0.26606 0.0
H1100 H 0.02354 0.66369 0.11116 0.0
H1101 H 0.00821 0.66965 0.19452 0.0
H1102 H 0.01875 0.7478 0.31023 0.0
H1103 H 0.99464 0.71632 0.25605 0.0
H1104 H 0.14843 0.78056 0.07052 0.0
H1105 H 0.12707 0.74563 1.01985 0.0
H1106 H 0.1673 0.78519 0.17022 0.0
H1107 H 0.14818 0.79546 0.24937 0.0
C1108 C 0.75921 0.88687 0.99101 0.0
C1109 C 0.73255 0.91719 1.00227 0.0
C1110 C 0.75161 0.94539 0.89122 0.0
C1111 C 0.77555 0.91305 0.87755 0.0
N1112 N 0.79363 0.84833 0.90905 0.0
N1113 N 0.69964 0.973 0.95809 0.0
C1114 C 0.77696 0.88258 0.92617 0.0
C1115 C 0.72756 0.94564 0.9506 0.0
N1116 N 0.76792 0.86195 1.04242 0.0
N1117 N 0.75313 0.97674 0.84948 0.0
H1118 H 0.68329 0.97556 1.00205 0.0
H1119 H 0.69127 0.99173 0.91946 0.0
H1120 H 0.77005 0.97759 0.80604 0.0
H1121 H 0.73983 0.00284 0.86038 0.0
H1122 H 0.79035 0.84206 1.0399 0.0
H1123 H 0.75542 0.86375 0.09008 0.0
H1124 H 0.79225 0.82377 0.93934 0.0
H1125 H 0.80492 0.84301 0.86116 0.0
C1126 C 0.93682 0.27845 0.17651 0.0
C1127 C 0.90725 0.27559 0.12621 0.0
C1128 C 0.87505 0.22617 0.19738 0.0
C1129 C 0.90363 0.23039 0.24924 0.0
N1130 N 0.95905 0.26465 0.29133 0.0
N1131 N 0.84461 0.2512 0.09517 0.0
C1132 C 0.93354 0.25798 0.23981 0.0
C1133 C 0.87559 0.25036 0.1382 0.0
N1134 N 0.96918 0.29946 0.16225 0.0
N1135 N 0.84683 0.19897 0.20484 0.0
H1136 H 0.84366 0.26827 1.0518 0.0
H1137 H 0.81857 0.23733 0.10476 0.0
H1138 H 0.842 0.18424 0.25011 0.0
H1139 H 0.82907 0.18986 0.16543 0.0
H1140 H 0.99361 0.30009 0.19299 0.0
H1141 H 0.9731 0.31371 0.11622 0.0
H1142 H 0.97872 0.28729 0.29148 0.0
H1143 H 0.95873 0.24921 0.33661 0.0
C1144 C 0.26847 0.43723 0.41733 0.0
C1145 C 0.26931 0.40557 0.37165 0.0
C1146 C 0.22999 0.36797 0.4527 0.0
C1147 C 0.22988 0.39933 0.49933 0.0
N1148 N 0.25475 0.46147 0.53031 0.0
N1149 N 0.25698 0.33826 0.35226 0.0
C1150 C 0.25108 0.43317 0.48298 0.0
C1151 C 0.25149 0.37034 0.39098 0.0
N1152 N 0.28315 0.47185 0.39661 0.0
N1153 N 0.20924 0.33553 0.46746 0.0
H1154 H 0.27193 0.33861 0.30664 0.0
H1155 H 0.24923 0.3106 0.36738 0.0
H1156 H 0.19705 0.33042 0.51479 0.0
H1157 H 0.20275 0.31433 0.43212 0.0
H1158 H 0.28051 0.49728 0.42384 0.0
H1159 H 0.29523 0.47596 0.34884 0.0
H1160 H 0.27297 0.48511 0.52507 0.0
H1161 H 0.24203 0.45969 0.57782 0.0
C1162 C 0.43464 0.72592 0.69031 0.0
C1163 C 0.40361 0.72813 0.73767 0.0
C1164 C 0.36753 0.76793 0.65495 0.0
C1165 C 0.39901 0.76734 0.60857 0.0
N1166 N 0.46479 0.74958 0.58679 0.0
N1167 N 0.34003 0.75198 0.76348 0.0
C1168 C 0.43308 0.74703 0.62742 0.0
C1169 C 0.3703 0.74969 0.71963 0.0
N1170 N 0.46562 0.70303 0.70522 0.0
N1171 N 0.33365 0.78551 0.63844 0.0
H1172 H 0.34033 0.73925 0.81133 0.0
H1173 H 0.3149 0.7673 0.75218 0.0
H1174 H 0.32805 0.79847 0.59168 0.0
H1175 H 0.32805 0.79847 0.59168 0.0
H1176 H 0.48668 0.69557 0.67025 0.0
H1177 H 0.46946 0.69001 0.75244 0.0
H1178 H 0.49206 0.7397 0.60056 0.0
H1179 H 0.4643 0.76352 0.53999 0.0
C1180 C 0.71854 0.56052 0.41979 0.0
C1181 C 0.72338 0.5904 0.37073 0.0
C1182 C 0.76375 0.62546 0.4534 0.0
C1183 C 0.76279 0.59374 0.49948 0.0
N1184 N 0.74281 0.52855 0.52133 0.0
N1185 N 0.75556 0.6489 0.33823 0.0
C1186 C 0.7409 0.56064 0.48142 0.0
C1187 C 0.74761 0.62203 0.38686 0.0
N1188 N 0.6922 0.53207 0.40782 0.0
N1189 N 0.77899 0.65972 0.4744 0.0
H1190 H 0.74419 0.64746 0.28942 0.0
H1191 H 0.77617 0.67045 0.34419 0.0
H1192 H 0.78964 0.66385 0.52327 0.0
H1193 H 0.77732 0.68506 0.44623 0.0
H1194 H 0.68379 0.51212 0.44436 0.0
H1195 H 0.67706 0.52984 0.36225 0.0
H1196 H 0.73129 0.50204 0.50742 0.0
H1197 H 0.758 0.52792 0.56692 0.0
C1198 C 0.61634 0.25564 0.63966 0.0
C1199 C 0.58555 0.2292 0.62961 0.0
C1200 C 0.56078 0.24548 0.74412 0.0
C1201 C 0.59009 0.27389 0.75207 0.0
N1202 N 0.64582 0.30644 0.70619 0.0
N1203 N 0.5261 0.2016 0.66919 0.0
C1204 C 0.61771 0.27906 0.69924 0.0
C1205 C 0.55729 0.22474 0.68139 0.0
N1206 N 0.64584 0.25667 0.59406 0.0
N1207 N 0.53621 0.23825 0.79655 0.0
H1208 H 0.52229 0.1869 0.62371 0.0
H1209 H 0.50246 0.1992 0.70117 0.0
H1210 H 0.5366 0.25391 0.84136 0.0
H1211 H 0.51708 0.21519 0.79789 0.0
H1212 H 0.67199 0.27062 0.60247 0.0
H1213 H 0.64519 0.24141 0.54889 0.0
H1214 H 0.66258 0.31649 0.66625 0.0
H1215 H 0.65177 0.3202 0.75186 0.0
C1216 C 0.33769 0.06694 0.63262 0.0
C1217 C 0.35723 0.08209 0.57526 0.0
C1218 C 0.40696 0.11016 0.64954 0.0
C1219 C 0.38603 0.09725 0.70681 0.0
N1220 N 0.33052 0.06582 0.75499 0.0
N1221 N 0.40916 0.11966 0.52803 0.0
C1222 C 0.3511 0.07628 0.69889 0.0
C1223 C 0.3915 0.10414 0.5835 0.0
N1224 N 0.30668 0.04311 0.62356 0.0
N1225 N 0.44225 0.12719 0.65839 0.0
H1226 H 0.40111 0.1133 0.47844 0.0
H1227 H 0.43059 0.1405 0.53109 0.0
H1228 H 0.45379 0.13342 0.70593 0.0
H1229 H 0.46137 0.13307 0.61923 0.0
H1230 H 0.29355 0.02762 0.66227 0.0
H1231 H 0.29509 0.03686 0.57612 0.0
H1232 H 0.30297 0.054 0.75342 0.0
H1233 H 0.3401 0.07092 0.80424 0.0
C1234 C 0.10308 0.605 0.5093 0.0
C1235 C 0.07801 0.63688 0.51904 0.0
C1236 C 0.06412 0.63782 0.39704 0.0
C1237 C 0.09362 0.61019 0.38643 0.0
N1238 N 0.14467 0.57055 0.43215 0.0
N1239 N 0.03808 0.68691 0.4703 0.0
C1240 C 0.11394 0.59442 0.44254 0.0
C1241 C 0.05921 0.65404 0.46243 0.0
N1242 N 0.11568 0.58416 0.56385 0.0
N1243 N 0.04002 0.6478 0.34497 0.0
H1244 H 0.03366 0.69986 0.51706 0.0
H1245 H 0.02766 0.70313 0.42973 0.0
H1246 H 0.04254 0.63634 0.29649 0.0
H1247 H 0.01526 0.66432 0.35162 0.0
H1248 H 0.13072 0.55833 0.55958 0.0
H1249 H 0.10777 0.59062 0.61336 0.0
H1250 H 0.16316 0.56157 0.47078 0.0
H1251 H 0.15374 0.56225 0.38413 0.0
C1252 C 0.63365 0.8865 0.60961 0.0
C1253 C 0.66453 0.91284 0.5989 0.0
C1254 C 0.66247 0.93062 0.71915 0.0
C1255 C 0.63481 0.90124 0.73102 0.0
N1256 N 0.59779 0.84745 0.68958 0.0
N1257 N 0.71231 0.9559 0.6458 0.0
C1258 C 0.62136 0.87818 0.67675 0.0
C1259 C 0.67996 0.93391 0.65431 0.0
N1260 N 0.6151 0.87035 0.55553 0.0
N1261 N 0.67117 0.95619 0.76931 0.0
H1262 H 0.72598 0.95923 0.5993 0.0
H1263 H 0.72748 0.96821 0.68585 0.0
H1264 H 0.65916 0.95459 0.81755 0.0
H1265 H 0.68744 0.981 0.76125 0.0
H1266 H 0.58953 0.85477 0.55973 0.0
H1267 H 0.62328 0.8752 0.50558 0.0
H1268 H 0.5906 0.82694 0.65336 0.0
H1269 H 0.58788 0.84058 0.73791 0.0
C1270 C 0.87201 0.33643 0.42154 0.0
C1271 C 0.8903 0.37189 0.40585 0.0
C1272 C 0.9129 0.37719 0.52377 0.0
C1273 C 0.89342 0.34227 0.53989 0.0
N1274 N 0.84719 0.2936 0.50805 0.0
N1275 N 0.9236 0.42899 0.44273 0.0
C1276 C 0.87076 0.32341 0.48994 0.0
C1277 C 0.90943 0.39316 0.45729 0.0
N1278 N 0.85687 0.31446 0.37065 0.0
N1279 N 0.93486 0.39499 0.5721 0.0
H1280 H 0.92248 0.44106 0.39434 0.0
H1281 H 0.93416 0.44795 0.47898 0.0
H1282 H 0.93565 0.38601 0.6225 0.0
H1283 H 0.95362 0.41768 0.56209 0.0
H1284 H 0.84767 0.28618 0.37753 0.0
H1285 H 0.85622 0.32339 0.3202 0.0
H1286 H 0.82654 0.28182 0.47582 0.0
H1287 H 0.84609 0.28243 0.557 0.0
C1288 C 0.37575 0.43465 0.69333 0.0
C1289 C 0.36053 0.40695 0.64774 0.0
C1290 C 0.3162 0.38357 0.73554 0.0
C1291 C 0.32964 0.41274 0.7801 0.0
N1292 N 0.36797 0.4679 0.80175 0.0
N1293 N 0.3125 0.36147 0.61839 0.0
C1294 C 0.35825 0.43907 0.75837 0.0
C1295 C 0.32953 0.38316 0.6674 0.0
N1296 N 0.40764 0.45538 0.67525 0.0
N1297 N 0.29184 0.35563 0.7588 0.0
H1298 H 0.28738 0.34542 0.62502 0.0
H1299 H 0.28738 0.34542 0.62502 0.0
H1300 H 0.28067 0.35553 0.80763 0.0
H1301 H 0.28502 0.33093 0.73165 0.0
H1302 H 0.42288 0.47324 0.70791 0.0
H1303 H 0.4207 0.45265 0.62806 0.0
H1304 H 0.387 0.49028 0.79073 0.0
H1305 H 0.387 0.49028 0.79073 0.0
C1306 C 0.38503 0.62423 0.33717 0.0
C1307 C 0.40803 0.6577 0.32711 0.0
C1308 C 0.42369 0.65787 0.44872 0.0
C1309 C 0.39619 0.62825 0.45971 0.0
N1310 N 0.34698 0.58611 0.41534 0.0
N1311 N 0.44676 0.7087 0.37559 0.0
C1312 C 0.37585 0.61217 0.40414 0.0
C1313 C 0.42685 0.67506 0.38349 0.0
N1314 N 0.37343 0.60286 0.28279 0.0
N1315 N 0.44791 0.66865 0.50007 0.0
H1316 H 0.45129 0.72173 0.32886 0.0
H1317 H 0.45648 0.7252 0.41613 0.0
H1318 H 0.44659 0.65684 0.54861 0.0
H1319 H 0.47169 0.68652 0.49286 0.0
H1320 H 0.35992 0.57619 0.28731 0.0
H1321 H 0.38101 0.60969 0.23315 0.0
H1322 H 0.32841 0.57652 0.37741 0.0
H1323 H 0.33943 0.57653 0.46358 0.0
C1324 C 0.66508 0.5712 0.71692 0.0
C1325 C 0.64709 0.58883 0.77342 0.0
C1326 C 0.6029 0.62323 0.69636 0.0
C1327 C 0.61974 0.60426 0.64017 0.0
N1328 N 0.66008 0.553 0.59891 0.0
N1329 N 0.59254 0.62353 0.81771 0.0
C1330 C 0.64882 0.57608 0.65108 0.0
C1331 C 0.61402 0.61241 0.76331 0.0
N1332 N 0.69859 0.55103 0.72545 0.0
N1333 N 0.5774 0.65268 0.68589 0.0
H1334 H 0.59934 0.61549 0.86726 0.0
H1335 H 0.56598 0.63736 0.81326 0.0
H1336 H 0.56871 0.66171 0.63782 0.0
H1337 H 0.56735 0.67027 0.72456 0.0
H1338 H 0.71546 0.54161 0.68527 0.0
H1339 H 0.71119 0.54613 0.77262 0.0
H1340 H 0.6776 0.52894 0.60565 0.0
H1341 H 0.64878 0.55551 0.55009 0.0
C1342 C 0.63622 0.34075 0.44639 0.0
C1343 C 0.61392 0.37321 0.46506 0.0
C1344 C 0.58838 0.37773 0.34917 0.0
C1345 C 0.60663 0.34232 0.33308 0.0
N1346 N 0.6457 0.28828 0.36773 0.0
N1347 N 0.56623 0.42115 0.43665 0.0
C1348 C 0.63024 0.32348 0.38191 0.0
C1349 C 0.58935 0.39138 0.41702 0.0
N1350 N 0.66358 0.32681 0.49003 0.0
N1351 N 0.57138 0.39907 0.29897 0.0
H1352 H 0.56724 0.43294 0.4851 0.0
H1353 H 0.54431 0.43251 0.40644 0.0
H1354 H 0.57087 0.39045 0.24847 0.0
H1355 H 0.56108 0.42691 0.30599 0.0
H1356 H 0.68377 0.30601 0.47682 0.0
H1357 H 0.66822 0.33832 0.53804 0.0
H1358 H 0.65889 0.27094 0.40394 0.0
H1359 H 0.64269 0.27483 0.32097 0.0
C1360 C 0.81936 0.57014 0.14778 0.0
C1361 C 0.83845 0.58674 0.09122 0.0
C1362 C 0.89031 0.61024 0.1664 0.0
C1363 C 0.86949 0.59649 0.22342 0.0
N1364 N 0.81299 0.56596 0.27005 0.0
N1365 N 0.89136 0.62351 1.04544 0.0
C1366 C 0.83367 0.57711 0.21449 0.0
C1367 C 0.87382 0.60697 0.10025 0.0
N1368 N 0.78798 0.54697 0.13752 0.0
N1369 N 0.92614 0.62597 0.17561 0.0
H1370 H 0.88167 0.61964 0.9959 0.0
H1371 H 0.91454 0.64246 1.04866 0.0
H1372 H 0.93834 0.63038 0.22329 0.0
H1373 H 0.94492 0.63274 0.1364 0.0
H1374 H 0.7749 0.53072 0.17534 0.0
H1375 H 0.77652 0.54153 0.08969 0.0
H1376 H 0.78476 0.55583 0.26792 0.0
H1377 H 0.8232 0.56888 0.31947 0.0
C1378 C 0.60899 0.16263 0.92618 0.0
C1379 C 0.58944 0.12813 0.90905 0.0
C1380 C 0.56158 0.12474 1.02297 0.0
C1381 C 0.58323 0.15795 1.04123 0.0
N1382 N 0.63318 0.20399 1.0149 0.0
N1383 N 0.54956 0.07423 0.94046 0.0
C1384 C 0.60857 0.1756 0.99417 0.0
C1385 C 0.56626 0.10861 0.95728 0.0
N1386 N 0.62702 0.18367 0.87691 0.0
N1387 N 0.53685 0.10855 0.0688 0.0
H1388 H 0.55164 0.06225 0.8923 0.0
H1389 H 0.5353 0.05638 0.97452 0.0
H1390 H 0.53451 0.11801 0.11861 0.0
H1391 H 0.51752 0.0866 0.0575 0.0
H1392 H 0.63771 0.21134 0.88461 0.0
H1393 H 0.6284 0.17493 0.82654 0.0
H1394 H 0.65555 0.2146 0.98514 0.0
H1395 H 0.63319 0.21516 0.06377 0.0
C1396 C 0.09967 0.37822 0.16461 0.0
C1397 C 0.11946 0.39557 0.2198 0.0
C1398 C 0.16666 0.42359 0.14084 0.0
C1399 C 0.1492 0.40314 0.08671 0.0
N1400 N 0.1003 0.35956 1.04606 0.0
N1401 N 0.17372 0.43186 0.26219 0.0
C1402 C 0.11589 0.38017 0.09832 0.0
C1403 C 0.15351 0.41747 0.20833 0.0
N1404 N 0.06513 0.36024 0.17561 0.0
N1405 N 0.19504 0.44983 0.12733 0.0
H1406 H 0.16417 0.42965 0.31203 0.0
H1407 H 0.20118 0.4438 0.2582 0.0
H1408 H 0.20504 0.45527 0.07853 0.0
H1409 H 0.2064 0.46858 0.16321 0.0
H1410 H 0.04695 0.35075 0.13711 0.0
H1411 H 0.05322 0.35685 0.22365 0.0
H1412 H 0.07876 0.33896 1.05192 0.0
H1413 H 0.11036 0.36154 0.99649 0.0
C1414 C 0.41196 0.81972 0.96257 0.0
C1415 C 0.39083 0.83608 1.01694 0.0
C1416 C 0.36191 0.88326 0.93827 0.0
C1417 C 0.38104 0.86506 0.88363 0.0
N1418 N 0.42011 0.81311 0.8413 0.0
N1419 N 0.34497 0.88281 0.05754 0.0
C1420 C 0.40471 0.83235 0.89512 0.0
C1421 C 0.36543 0.86761 1.00493 0.0
N1422 N 0.44014 0.79314 0.97554 0.0
N1423 N 0.34122 0.91615 0.92639 0.0
H1424 H 0.34918 0.87454 0.10779 0.0
H1425 H 0.32273 0.90264 1.05174 0.0
H1426 H 0.33658 0.92728 0.87794 0.0
H1427 H 0.33013 0.93363 0.96422 0.0
H1428 H 0.45956 0.78336 0.93946 0.0
H1429 H 0.44648 0.78292 1.02385 0.0
H1430 H 0.43378 0.78654 0.8454 0.0
H1431 H 0.41689 0.82224 0.79128 0.0
C1432 C 0.83284 0.94128 0.22847 0.0
C1433 C 0.85547 0.92977 0.28495 0.0
C1434 C 0.90863 0.91212 0.20927 0.0
C1435 C 0.884 0.91854 0.15281 0.0
N1436 N 0.82202 0.93712 0.10731 0.0
N1437 N 0.9146 0.90403 0.33098 0.0
C1438 C 0.84603 0.93298 0.16196 0.0
C1439 C 0.89345 0.91539 0.27587 0.0
N1440 N 0.7989 0.96041 0.23864 0.0
N1441 N 0.94668 0.90359 0.1989 0.0
H1442 H 0.90512 0.90751 0.38062 0.0
H1443 H 0.94079 0.88958 0.32779 0.0
H1444 H 0.95857 0.90095 0.15073 0.0
H1445 H 0.96725 0.90211 0.23731 0.0
H1446 H 0.7827 0.97294 0.19997 0.0
H1447 H 0.78847 0.96671 0.28675 0.0
H1448 H 0.79285 0.94374 0.11102 0.0
H1449 H 0.83057 0.93147 0.05781 0.0
C1450 C 0.90181 0.10407 0.91179 0.0
C1451 C 0.88005 0.12295 0.96256 0.0
C1452 C 0.86052 0.17258 0.88047 0.0
C1453 C 0.88186 0.15352 0.82946 0.0
N1454 N 0.91491 0.09654 0.79191 0.0
N1455 N 0.8324 0.17018 0.99284 0.0
C1456 C 0.9001 0.11779 0.84377 0.0
C1457 C 0.85739 0.15567 0.94602 0.0
N1458 N 0.9253 0.07398 0.9291 0.0
N1459 N 0.84459 0.20773 0.86719 0.0
H1460 H 0.82965 0.15865 1.0414 0.0
H1461 H 0.81208 0.19142 0.9821 0.0
H1462 H 0.84503 0.22071 0.81957 0.0
H1463 H 0.8335 0.22531 0.90467 0.0
H1464 H 0.9453 0.0619 0.89626 0.0
H1465 H 0.92669 0.06262 0.97798 0.0
H1466 H 0.92508 0.06852 0.79775 0.0
H1467 H 0.91374 0.10559 0.74153 0.0
C1468 C 0.13235 0.0618 0.1781 0.0
C1469 C 0.15048 0.08259 0.125 0.0
C1470 C 0.19768 0.10853 0.20609 0.0
C1471 C 0.18118 0.08578 0.25856 0.0
N1472 N 0.13671 0.03559 0.29166 0.0
N1473 N 0.20516 0.11898 0.08539 0.0
C1474 C 0.14983 0.06067 0.24356 0.0
C1475 C 0.18452 0.10404 0.13816 0.0
N1476 N 0.09746 0.04452 0.16681 0.0
N1477 N 0.22552 0.13504 0.22113 0.0
H1478 H 0.19673 0.11593 1.03496 0.0
H1479 H 0.2324 0.13126 0.09099 0.0
H1480 H 0.23774 0.13795 0.26911 0.0
H1481 H 0.23462 0.15598 0.18699 0.0
H1482 H 0.08056 0.03274 0.20511 0.0
H1483 H 0.08368 0.04477 0.11981 0.0
H1484 H 0.11711 0.0136 0.28161 0.0
H1485 H 0.14762 0.03468 0.34073 0.0
C1486 C 0.04596 0.79972 0.88279 0.0
C1487 C 0.06694 0.81538 0.82743 0.0
C1488 C 0.0946 0.86459 0.90189 0.0
C1489 C 0.07658 0.84697 0.95814 0.0
N1490 N 0.03992 0.79426 1.0049 0.0
N1491 N 0.11622 0.85892 0.7871 0.0
C1492 C 0.0534 0.81359 0.94942 0.0
C1493 C 0.09281 0.84651 0.83797 0.0
N1494 N 0.01902 0.77167 0.87179 0.0
N1495 N 0.1118 0.89985 0.90854 0.0
H1496 H 0.11244 0.85124 0.73668 0.0
H1497 H 0.14116 0.8748 0.79669 0.0
H1498 H 0.11272 0.91493 0.95405 0.0
H1499 H 0.12189 0.91584 0.86753 0.0
H1500 H -0.00018 0.76215 0.90861 0.0
H1501 H 0.01404 0.75952 0.82443 0.0
H1502 H 0.0262 0.76764 1.00248 0.0
H1503 H 0.0452 0.80333 1.05433 0.0
loop_
_geom_bond_atom_site_label_1
_geom_bond_atom_site_label_2
_geom_bond_distance
_geom_bond_site_symmetry_2
_ccdc_geom_bond_type
Tb0 C2 2.809 . S
Tb0 O20 2.484 . S
Tb0 O21 2.440 . S
Tb0 O22 2.658 . S
Tb0 O23 2.409 . S
Tb0 O24 2.378 . S
Tb0 O28 2.325 . S
Tb0 O31 2.341 . S
Tb1 C11 2.809 1_554 S
Tb1 O22 2.325 . S
Tb1 O25 2.341 . S
Tb1 O26 2.484 1_554 S
Tb1 O27 2.440 1_554 S
Tb1 O28 2.658 . S
Tb1 O29 2.409 . S
Tb1 O30 2.378 . S
C2 Tb0 2.809 . S
C2 C3 1.514 . S
C2 O20 1.248 . S
C2 O21 1.266 . S
C3 C2 1.514 . S
C3 C4 1.359 . S
C3 C8 1.348 . S
C4 C3 1.359 . S
C4 C5 1.380 . S
C4 H32 0.929 . S
C5 C4 1.380 . S
C5 C6 1.347 . S
C5 H33 0.931 . S
C6 C5 1.347 . S
C6 C7 1.369 . S
C7 C6 1.369 . S
C7 C8 1.408 . S
C7 H34 0.930 . S
C8 C3 1.348 . S
C8 C7 1.408 . S
C8 H35 0.930 . S
C9 O22 1.281 . S
C9 O23 1.254 . S
C10 O24 1.236 . S
C10 O25 1.266 . S
C11 Tb1 2.809 1_556 S
C11 C12 1.514 . S
C11 O26 1.248 . S
C11 O27 1.266 . S
C12 C11 1.514 . S
C12 C13 1.359 . S
C12 C17 1.348 . S
C13 C12 1.359 . S
C13 C14 1.380 . S
C13 H36 0.929 . S
C14 C13 1.380 . S
C14 C15 1.347 . S
C14 H37 0.931 . S
C15 C14 1.347 . S
C15 C16 1.369 . S
C16 C15 1.369 . S
C16 C17 1.408 . S
C16 H38 0.930 . S
C17 C12 1.348 . S
C17 C16 1.408 . S
C17 H39 0.930 . S
C18 O28 1.281 . S
C18 O29 1.254 . S
C19 O30 1.236 . S
C19 O31 1.266 . S
O20 Tb0 2.484 . S
O20 C2 1.248 . S
O21 Tb0 2.440 . S
O21 C2 1.266 . S
O22 Tb0 2.658 . S
O22 Tb1 2.325 . S
O22 C9 1.281 . S
O23 Tb0 2.409 . S
O23 C9 1.254 . S
O24 Tb0 2.378 . S
O24 C10 1.236 . S
O25 Tb1 2.341 . S
O25 C10 1.266 . S
O26 Tb1 2.484 1_556 S
O26 C11 1.248 . S
O27 Tb1 2.440 1_556 S
O27 C11 1.266 . S
O28 Tb0 2.325 . S
O28 Tb1 2.658 . S
O28 C18 1.281 . S
O29 Tb1 2.409 . S
O29 C18 1.254 . S
O30 Tb1 2.378 . S
O30 C19 1.236 . S
O31 Tb0 2.341 . S
O31 C19 1.266 . S
H32 C4 0.929 . S
H33 C5 0.931 . S
H34 C7 0.930 . S
H35 C8 0.930 . S
H36 C13 0.929 . S
H37 C14 0.931 . S
H38 C16 0.930 . S
H39 C17 0.930 . S
Tb40 C42 2.809 1_556 S
Tb40 O60 2.484 1_556 S
Tb40 O61 2.440 1_556 S
Tb40 O62 2.658 . S
Tb40 O63 2.409 . S
Tb40 O64 2.378 . S
Tb40 O68 2.325 . S
Tb40 O71 2.341 . S
Tb41 C51 2.809 . S
Tb41 O62 2.325 . S
Tb41 O65 2.341 . S
Tb41 O66 2.484 . S
Tb41 O67 2.440 . S
Tb41 O68 2.658 . S
Tb41 O69 2.409 . S
Tb41 O70 2.378 . S
C42 Tb40 2.809 1_554 S
C42 C43 1.514 . S
C42 O60 1.248 . S
C42 O61 1.266 . S
C43 C42 1.514 . S
C43 C44 1.359 . S
C43 C48 1.348 . S
C44 C43 1.359 . S
C44 C45 1.380 . S
C44 H72 0.929 . S
C45 C44 1.380 . S
C45 C46 1.347 . S
C45 H73 0.931 . S
C46 C45 1.347 . S
C46 C47 1.369 . S
C47 C46 1.369 . S
C47 C48 1.408 . S
C47 H74 0.930 . S
C48 C43 1.348 . S
C48 C47 1.408 . S
C48 H75 0.930 . S
C49 O62 1.281 . S
C49 O63 1.254 . S
C50 O64 1.236 . S
C50 O65 1.266 . S
C51 Tb41 2.809 . S
C51 C52 1.514 . S
C51 O66 1.248 . S
C51 O67 1.266 . S
C52 C51 1.514 . S
C52 C53 1.359 . S
C52 C57 1.348 . S
C53 C52 1.359 . S
C53 C54 1.380 . S
C53 H76 0.929 . S
C54 C53 1.380 . S
C54 C55 1.347 . S
C54 H77 0.931 . S
C55 C54 1.347 . S
C55 C56 1.369 . S
C56 C55 1.369 . S
C56 C57 1.408 . S
C56 H78 0.930 . S
C57 C52 1.348 . S
C57 C56 1.408 . S
C57 H79 0.930 . S
C58 O68 1.281 . S
C58 O69 1.254 . S
C59 O70 1.236 . S
C59 O71 1.266 . S
O60 Tb40 2.484 1_554 S
O60 C42 1.248 . S
O61 Tb40 2.440 1_554 S
O61 C42 1.266 . S
O62 Tb40 2.658 . S
O62 Tb41 2.325 . S
O62 C49 1.281 . S
O63 Tb40 2.409 . S
O63 C49 1.254 . S
O64 Tb40 2.378 . S
O64 C50 1.236 . S
O65 Tb41 2.341 . S
O65 C50 1.266 . S
O66 Tb41 2.484 . S
O66 C51 1.248 . S
O67 Tb41 2.440 . S
O67 C51 1.266 . S
O68 Tb40 2.325 . S
O68 Tb41 2.658 . S
O68 C58 1.281 . S
O69 Tb41 2.409 . S
O69 C58 1.254 . S
O70 Tb41 2.378 . S
O70 C59 1.236 . S
O71 Tb40 2.341 . S
O71 C59 1.266 . S
H72 C44 0.929 . S
H73 C45 0.931 . S
H74 C47 0.930 . S
H75 C48 0.930 . S
H76 C53 0.929 . S
H77 C54 0.931 . S
H78 C56 0.930 . S
H79 C57 0.930 . S
Tb80 C82 2.809 . S
Tb80 O100 2.484 . S
Tb80 O101 2.440 . S
Tb80 O102 2.658 . S
Tb80 O103 2.409 . S
Tb80 O104 2.378 . S
Tb80 O108 2.325 . S
Tb80 O111 2.341 . S
Tb81 C91 2.809 1_554 S
Tb81 O102 2.325 . S
Tb81 O105 2.341 . S
Tb81 O106 2.484 1_554 S
Tb81 O107 2.440 1_554 S
Tb81 O108 2.658 . S
Tb81 O109 2.409 . S
Tb81 O110 2.378 . S
C82 Tb80 2.809 . S
C82 C83 1.514 . S
C82 O100 1.248 . S
C82 O101 1.266 . S
C83 C82 1.514 . S
C83 C84 1.359 . S
C83 C88 1.348 . S
C84 C83 1.359 . S
C84 C85 1.380 . S
C84 H112 0.929 . S
C85 C84 1.380 . S
C85 C86 1.347 . S
C85 H113 0.931 . S
C86 C85 1.347 . S
C86 C87 1.369 . S
C87 C86 1.369 . S
C87 C88 1.408 . S
C87 H114 0.930 . S
C88 C83 1.348 . S
C88 C87 1.408 . S
C88 H115 0.930 . S
C89 O102 1.281 . S
C89 O103 1.254 . S
C90 O104 1.236 . S
C90 O105 1.266 . S
C91 Tb81 2.809 1_556 S
C91 C92 1.514 . S
C91 O106 1.248 . S
C91 O107 1.266 . S
C92 C91 1.514 . S
C92 C93 1.359 . S
C92 C97 1.348 . S
C93 C92 1.359 . S
C93 C94 1.380 . S
C93 H116 0.929 . S
C94 C93 1.380 . S
C94 C95 1.347 . S
C94 H117 0.931 . S
C95 C94 1.347 . S
C95 C96 1.369 . S
C96 C95 1.369 . S
C96 C97 1.408 . S
C96 H118 0.930 . S
C97 C92 1.348 . S
C97 C96 1.408 . S
C97 H119 0.930 . S
C98 O108 1.281 . S
C98 O109 1.254 . S
C99 O110 1.236 . S
C99 O111 1.266 . S
O100 Tb80 2.484 . S
O100 C82 1.248 . S
O101 Tb80 2.440 . S
O101 C82 1.266 . S
O102 Tb80 2.658 . S
O102 Tb81 2.325 . S
O102 C89 1.281 . S
O103 Tb80 2.409 . S
O103 C89 1.254 . S
O104 Tb80 2.378 . S
O104 C90 1.236 . S
O105 Tb81 2.341 . S
O105 C90 1.266 . S
O106 Tb81 2.484 1_556 S
O106 C91 1.248 . S
O107 Tb81 2.440 1_556 S
O107 C91 1.266 . S
O108 Tb80 2.325 . S
O108 Tb81 2.658 . S
O108 C98 1.281 . S
O109 Tb81 2.409 . S
O109 C98 1.254 . S
O110 Tb81 2.378 . S
O110 C99 1.236 . S
O111 Tb80 2.341 . S
O111 C99 1.266 . S
H112 C84 0.929 . S
H113 C85 0.931 . S
H114 C87 0.930 . S
H115 C88 0.930 . S
H116 C93 0.929 . S
H117 C94 0.931 . S
H118 C96 0.930 . S
H119 C97 0.930 . S
Tb120 C122 2.809 1_556 S
Tb120 O140 2.484 1_556 S
Tb120 O141 2.440 1_556 S
Tb120 O142 2.658 . S
Tb120 O143 2.409 . S
Tb120 O144 2.378 . S
Tb120 O148 2.325 . S
Tb120 O151 2.341 . S
Tb121 C131 2.809 . S
Tb121 O142 2.325 . S
Tb121 O145 2.341 . S
Tb121 O146 2.484 . S
Tb121 O147 2.440 . S
Tb121 O148 2.658 . S
Tb121 O149 2.409 . S
Tb121 O150 2.378 . S
C122 Tb120 2.809 1_554 S
C122 C123 1.514 . S
C122 O140 1.248 . S
C122 O141 1.266 . S
C123 C122 1.514 . S
C123 C124 1.359 . S
C123 C128 1.348 . S
C124 C123 1.359 . S
C124 C125 1.380 . S
C124 H152 0.929 . S
C125 C124 1.380 . S
C125 C126 1.347 . S
C125 H153 0.931 . S
C126 C125 1.347 . S
C126 C127 1.369 . S
C127 C126 1.369 . S
C127 C128 1.408 . S
C127 H154 0.930 . S
C128 C123 1.348 . S
C128 C127 1.408 . S
C128 H155 0.930 . S
C129 O142 1.281 . S
C129 O143 1.254 . S
C130 O144 1.236 . S
C130 O145 1.266 . S
C131 Tb121 2.809 . S
C131 C132 1.514 . S
C131 O146 1.248 . S
C131 O147 1.266 . S
C132 C131 1.514 . S
C132 C133 1.359 . S
C132 C137 1.348 . S
C133 C132 1.359 . S
C133 C134 1.380 . S
C133 H156 0.929 . S
C134 C133 1.380 . S
C134 C135 1.347 . S
C134 H157 0.931 . S
C135 C134 1.347 . S
C135 C136 1.369 . S
C136 C135 1.369 . S
C136 C137 1.408 . S
C136 H158 0.930 . S
C137 C132 1.348 . S
C137 C136 1.408 . S
C137 H159 0.930 . S
C138 O148 1.281 . S
C138 O149 1.254 . S
C139 O150 1.236 . S
C139 O151 1.266 . S
O140 Tb120 2.484 1_554 S
O140 C122 1.248 . S
O141 Tb120 2.440 1_554 S
O141 C122 1.266 . S
O142 Tb120 2.658 . S
O142 Tb121 2.325 . S
O142 C129 1.281 . S
O143 Tb120 2.409 . S
O143 C129 1.254 . S
O144 Tb120 2.378 . S
O144 C130 1.236 . S
O145 Tb121 2.341 . S
O145 C130 1.266 . S
O146 Tb121 2.484 . S
O146 C131 1.248 . S
O147 Tb121 2.440 . S
O147 C131 1.266 . S
O148 Tb120 2.325 . S
O148 Tb121 2.658 . S
O148 C138 1.281 . S
O149 Tb121 2.409 . S
O149 C138 1.254 . S
O150 Tb121 2.378 . S
O150 C139 1.236 . S
O151 Tb120 2.341 . S
O151 C139 1.266 . S
H152 C124 0.929 . S
H153 C125 0.931 . S
H154 C127 0.930 . S
H155 C128 0.930 . S
H156 C133 0.929 . S
H157 C134 0.931 . S
H158 C136 0.930 . S
H159 C137 0.930 . S
Tb160 C162 2.809 1_554 S
Tb160 O180 2.484 1_554 S
Tb160 O181 2.440 1_554 S
Tb160 O182 2.658 . S
Tb160 O183 2.409 . S
Tb160 O184 2.378 . S
Tb160 O188 2.325 . S
Tb160 O191 2.341 . S
Tb161 C171 2.809 . S
Tb161 O182 2.325 . S
Tb161 O185 2.341 . S
Tb161 O186 2.484 . S
Tb161 O187 2.440 . S
Tb161 O188 2.658 . S
Tb161 O189 2.409 . S
Tb161 O190 2.378 . S
C162 Tb160 2.809 1_556 S
C162 C163 1.514 . S
C162 O180 1.248 . S
C162 O181 1.266 . S
C163 C162 1.514 . S
C163 C164 1.359 . S
C163 C168 1.348 . S
C164 C163 1.359 . S
C164 C165 1.380 . S
C164 H192 0.929 . S
C165 C164 1.380 . S
C165 C166 1.347 . S
C165 H193 0.931 . S
C166 C165 1.347 . S
C166 C167 1.369 . S
C167 C166 1.369 . S
C167 C168 1.408 . S
C167 H194 0.930 . S
C168 C163 1.348 . S
C168 C167 1.408 . S
C168 H195 0.930 . S
C169 O182 1.281 . S
C169 O183 1.254 . S
C170 O184 1.236 . S
C170 O185 1.266 . S
C171 Tb161 2.809 . S
C171 C172 1.514 . S
C171 O186 1.248 . S
C171 O187 1.266 . S
C172 C171 1.514 . S
C172 C173 1.359 . S
C172 C177 1.348 . S
C173 C172 1.359 . S
C173 C174 1.380 . S
C173 H196 0.929 . S
C174 C173 1.380 . S
C174 C175 1.347 . S
C174 H197 0.931 . S
C175 C174 1.347 . S
C175 C176 1.369 . S
C176 C175 1.369 . S
C176 C177 1.408 . S
C176 H198 0.930 . S
C177 C172 1.348 . S
C177 C176 1.408 . S
C177 H199 0.930 . S
C178 O188 1.281 . S
C178 O189 1.254 . S
C179 O190 1.236 . S
C179 O191 1.266 . S
O180 Tb160 2.484 1_556 S
O180 C162 1.248 . S
O181 Tb160 2.440 1_556 S
O181 C162 1.266 . S
O182 Tb160 2.658 . S
O182 Tb161 2.325 . S
O182 C169 1.281 . S
O183 Tb160 2.409 . S
O183 C169 1.254 . S
O184 Tb160 2.378 . S
O184 C170 1.236 . S
O185 Tb161 2.341 . S
O185 C170 1.266 . S
O186 Tb161 2.484 . S
O186 C171 1.248 . S
O187 Tb161 2.440 . S
O187 C171 1.266 . S
O188 Tb160 2.325 . S
O188 Tb161 2.658 . S
O188 C178 1.281 . S
O189 Tb161 2.409 . S
O189 C178 1.254 . S
O190 Tb161 2.378 . S
O190 C179 1.236 . S
O191 Tb160 2.341 . S
O191 C179 1.266 . S
H192 C164 0.929 . S
H193 C165 0.931 . S
H194 C167 0.930 . S
H195 C168 0.930 . S
H196 C173 0.929 . S
H197 C174 0.931 . S
H198 C176 0.930 . S
H199 C177 0.930 . S
Tb200 C202 2.809 . S
Tb200 O220 2.484 . S
Tb200 O221 2.440 . S
Tb200 O222 2.658 . S
Tb200 O223 2.409 . S
Tb200 O224 2.378 . S
Tb200 O228 2.325 . S
Tb200 O231 2.341 . S
Tb201 C211 2.809 1_556 S
Tb201 O222 2.325 . S
Tb201 O225 2.341 . S
Tb201 O226 2.484 1_556 S
Tb201 O227 2.440 1_556 S
Tb201 O228 2.658 . S
Tb201 O229 2.409 . S
Tb201 O230 2.378 . S
C202 Tb200 2.809 . S
C202 C203 1.514 . S
C202 O220 1.248 . S
C202 O221 1.266 . S
C203 C202 1.514 . S
C203 C204 1.359 . S
C203 C208 1.348 . S
C204 C203 1.359 . S
C204 C205 1.380 . S
C204 H232 0.929 . S
C205 C204 1.380 . S
C205 C206 1.347 . S
C205 H233 0.931 . S
C206 C205 1.347 . S
C206 C207 1.369 . S
C207 C206 1.369 . S
C207 C208 1.408 . S
C207 H234 0.930 . S
C208 C203 1.348 . S
C208 C207 1.408 . S
C208 H235 0.930 . S
C209 O222 1.281 . S
C209 O223 1.254 . S
C210 O224 1.236 . S
C210 O225 1.266 . S
C211 Tb201 2.809 1_554 S
C211 C212 1.514 . S
C211 O226 1.248 . S
C211 O227 1.266 . S
C212 C211 1.514 . S
C212 C213 1.359 . S
C212 C217 1.348 . S
C213 C212 1.359 . S
C213 C214 1.380 . S
C213 H236 0.929 . S
C214 C213 1.380 . S
C214 C215 1.347 . S
C214 H237 0.931 . S
C215 C214 1.347 . S
C215 C216 1.369 . S
C216 C215 1.369 . S
C216 C217 1.408 . S
C216 H238 0.930 . S
C217 C212 1.348 . S
C217 C216 1.408 . S
C217 H239 0.930 . S
C218 O228 1.281 . S
C218 O229 1.254 . S
C219 O230 1.236 . S
C219 O231 1.266 . S
O220 Tb200 2.484 . S
O220 C202 1.248 . S
O221 Tb200 2.440 . S
O221 C202 1.266 . S
O222 Tb200 2.658 . S
O222 Tb201 2.325 . S
O222 C209 1.281 . S
O223 Tb200 2.409 . S
O223 C209 1.254 . S
O224 Tb200 2.378 . S
O224 C210 1.236 . S
O225 Tb201 2.341 . S
O225 C210 1.266 . S
O226 Tb201 2.484 1_554 S
O226 C211 1.248 . S
O227 Tb201 2.440 1_554 S
O227 C211 1.266 . S
O228 Tb200 2.325 . S
O228 Tb201 2.658 . S
O228 C218 1.281 . S
O229 Tb201 2.409 . S
O229 C218 1.254 . S
O230 Tb201 2.378 . S
O230 C219 1.236 . S
O231 Tb200 2.341 . S
O231 C219 1.266 . S
H232 C204 0.929 . S
H233 C205 0.931 . S
H234 C207 0.930 . S
H235 C208 0.930 . S
H236 C213 0.929 . S
H237 C214 0.931 . S
H238 C216 0.930 . S
H239 C217 0.930 . S
Tb240 C242 2.809 1_554 S
Tb240 O260 2.484 1_554 S
Tb240 O261 2.440 1_554 S
Tb240 O262 2.658 . S
Tb240 O263 2.409 . S
Tb240 O264 2.378 . S
Tb240 O268 2.325 . S
Tb240 O271 2.341 . S
Tb241 C251 2.809 . S
Tb241 O262 2.325 . S
Tb241 O265 2.341 . S
Tb241 O266 2.484 . S
Tb241 O267 2.440 . S
Tb241 O268 2.658 . S
Tb241 O269 2.409 . S
Tb241 O270 2.378 . S
C242 Tb240 2.809 1_556 S
C242 C243 1.514 . S
C242 O260 1.248 . S
C242 O261 1.266 . S
C243 C242 1.514 . S
C243 C244 1.359 . S
C243 C248 1.348 . S
C244 C243 1.359 . S
C244 C245 1.380 . S
C244 H272 0.929 . S
C245 C244 1.380 . S
C245 C246 1.347 . S
C245 H273 0.931 . S
C246 C245 1.347 . S
C246 C247 1.369 . S
C247 C246 1.369 . S
C247 C248 1.408 . S
C247 H274 0.930 . S
C248 C243 1.348 . S
C248 C247 1.408 . S
C248 H275 0.930 . S
C249 O262 1.281 . S
C249 O263 1.254 . S
C250 O264 1.236 . S
C250 O265 1.266 . S
C251 Tb241 2.809 . S
C251 C252 1.514 . S
C251 O266 1.248 . S
C251 O267 1.266 . S
C252 C251 1.514 . S
C252 C253 1.359 . S
C252 C257 1.348 . S
C253 C252 1.359 . S
C253 C254 1.380 . S
C253 H276 0.929 . S
C254 C253 1.380 . S
C254 C255 1.347 . S
C254 H277 0.931 . S
C255 C254 1.347 . S
C255 C256 1.369 . S
C256 C255 1.369 . S
C256 C257 1.408 . S
C256 H278 0.930 . S
C257 C252 1.348 . S
C257 C256 1.408 . S
C257 H279 0.930 . S
C258 O268 1.281 . S
C258 O269 1.254 . S
C259 O270 1.236 . S
C259 O271 1.266 . S
O260 Tb240 2.484 1_556 S
O260 C242 1.248 . S
O261 Tb240 2.440 1_556 S
O261 C242 1.266 . S
O262 Tb240 2.658 . S
O262 Tb241 2.325 . S
O262 C249 1.281 . S
O263 Tb240 2.409 . S
O263 C249 1.254 . S
O264 Tb240 2.378 . S
O264 C250 1.236 . S
O265 Tb241 2.341 . S
O265 C250 1.266 . S
O266 Tb241 2.484 . S
O266 C251 1.248 . S
O267 Tb241 2.440 . S
O267 C251 1.266 . S
O268 Tb240 2.325 . S
O268 Tb241 2.658 . S
O268 C258 1.281 . S
O269 Tb241 2.409 . S
O269 C258 1.254 . S
O270 Tb241 2.378 . S
O270 C259 1.236 . S
O271 Tb240 2.341 . S
O271 C259 1.266 . S
H272 C244 0.929 . S
H273 C245 0.931 . S
H274 C247 0.930 . S
H275 C248 0.930 . S
H276 C253 0.929 . S
H277 C254 0.931 . S
H278 C256 0.930 . S
H279 C257 0.930 . S
Tb280 C282 2.809 . S
Tb280 O300 2.484 . S
Tb280 O301 2.440 . S
Tb280 O302 2.658 . S
Tb280 O303 2.409 . S
Tb280 O304 2.378 . S
Tb280 O308 2.325 . S
Tb280 O311 2.341 . S
Tb281 C291 2.809 1_556 S
Tb281 O302 2.325 . S
Tb281 O305 2.341 . S
Tb281 O306 2.484 1_556 S
Tb281 O307 2.440 1_556 S
Tb281 O308 2.658 . S
Tb281 O309 2.409 . S
Tb281 O310 2.378 . S
C282 Tb280 2.809 . S
C282 C283 1.514 . S
C282 O300 1.248 . S
C282 O301 1.266 . S
C283 C282 1.514 . S
C283 C284 1.359 . S
C283 C288 1.348 . S
C284 C283 1.359 . S
C284 C285 1.380 . S
C284 H312 0.929 . S
C285 C284 1.380 . S
C285 C286 1.347 . S
C285 H313 0.931 . S
C286 C285 1.347 . S
C286 C287 1.369 . S
C287 C286 1.369 . S
C287 C288 1.408 . S
C287 H314 0.930 . S
C288 C283 1.348 . S
C288 C287 1.408 . S
C288 H315 0.930 . S
C289 O302 1.281 . S
C289 O303 1.254 . S
C290 O304 1.236 . S
C290 O305 1.266 . S
C291 Tb281 2.809 1_554 S
C291 C292 1.514 . S
C291 O306 1.248 . S
C291 O307 1.266 . S
C292 C291 1.514 . S
C292 C293 1.359 . S
C292 C297 1.348 . S
C293 C292 1.359 . S
C293 C294 1.380 . S
C293 H316 0.929 . S
C294 C293 1.380 . S
C294 C295 1.347 . S
C294 H317 0.931 . S
C295 C294 1.347 . S
C295 C296 1.369 . S
C296 C295 1.369 . S
C296 C297 1.408 . S
C296 H318 0.930 . S
C297 C292 1.348 . S
C297 C296 1.408 . S
C297 H319 0.930 . S
C298 O308 1.281 . S
C298 O309 1.254 . S
C299 O310 1.236 . S
C299 O311 1.266 . S
O300 Tb280 2.484 . S
O300 C282 1.248 . S
O301 Tb280 2.440 . S
O301 C282 1.266 . S
O302 Tb280 2.658 . S
O302 Tb281 2.325 . S
O302 C289 1.281 . S
O303 Tb280 2.409 . S
O303 C289 1.254 . S
O304 Tb280 2.378 . S
O304 C290 1.236 . S
O305 Tb281 2.341 . S
O305 C290 1.266 . S
O306 Tb281 2.484 1_554 S
O306 C291 1.248 . S
O307 Tb281 2.440 1_554 S
O307 C291 1.266 . S
O308 Tb280 2.325 . S
O308 Tb281 2.658 . S
O308 C298 1.281 . S
O309 Tb281 2.409 . S
O309 C298 1.254 . S
O310 Tb281 2.378 . S
O310 C299 1.236 . S
O311 Tb280 2.341 . S
O311 C299 1.266 . S
H312 C284 0.929 . S
H313 C285 0.931 . S
H314 C287 0.930 . S
H315 C288 0.930 . S
H316 C293 0.929 . S
H317 C294 0.931 . S
H318 C296 0.930 . S
H319 C297 0.930 . S
Tb320 C322 2.809 . S
Tb320 O340 2.484 . S
Tb320 O341 2.440 . S
Tb320 O342 2.658 . S
Tb320 O343 2.409 . S
Tb320 O344 2.378 . S
Tb320 O348 2.325 . S
Tb320 O351 2.341 . S
Tb321 C331 2.809 . S
Tb321 O342 2.325 . S
Tb321 O345 2.341 . S
Tb321 O346 2.484 . S
Tb321 O347 2.440 . S
Tb321 O348 2.658 . S
Tb321 O349 2.409 . S
Tb321 O350 2.378 . S
C322 Tb320 2.809 . S
C322 C323 1.514 . S
C322 O340 1.248 . S
C322 O341 1.266 . S
C323 C322 1.514 . S
C323 C324 1.359 . S
C323 C328 1.348 . S
C324 C323 1.359 . S
C324 C325 1.380 . S
C324 H352 0.929 . S
C325 C324 1.380 . S
C325 C326 1.347 1_556 S
C325 H353 0.931 1_556 S
C326 C325 1.347 1_554 S
C326 C327 1.369 1_554 S
C327 C326 1.369 1_556 S
C327 C328 1.408 . S
C327 H354 0.930 1_556 S
C328 C323 1.348 . S
C328 C327 1.408 . S
C328 H355 0.930 . S
C329 O342 1.281 . S
C329 O343 1.254 . S
C330 O344 1.236 . S
C330 O345 1.266 . S
C331 Tb321 2.809 . S
C331 C332 1.514 . S
C331 O346 1.248 . S
C331 O347 1.266 . S
C332 C331 1.514 . S
C332 C333 1.359 . S
C332 C337 1.348 . S
C333 C332 1.359 . S
C333 C334 1.380 . S
C333 H356 0.929 . S
C334 C333 1.380 . S
C334 C335 1.347 . S
C334 H357 0.931 . S
C335 C334 1.347 . S
C335 C336 1.369 . S
C336 C335 1.369 . S
C336 C337 1.408 . S
C336 H358 0.930 . S
C337 C332 1.348 . S
C337 C336 1.408 . S
C337 H359 0.930 . S
C338 O348 1.281 . S
C338 O349 1.254 . S
C339 O350 1.236 . S
C339 O351 1.266 . S
O340 Tb320 2.484 . S
O340 C322 1.248 . S
O341 Tb320 2.440 . S
O341 C322 1.266 . S
O342 Tb320 2.658 . S
O342 Tb321 2.325 . S
O342 C329 1.281 . S
O343 Tb320 2.409 . S
O343 C329 1.254 . S
O344 Tb320 2.378 . S
O344 C330 1.236 . S
O345 Tb321 2.341 . S
O345 C330 1.266 . S
O346 Tb321 2.484 . S
O346 C331 1.248 . S
O347 Tb321 2.440 . S
O347 C331 1.266 . S
O348 Tb320 2.325 . S
O348 Tb321 2.658 . S
O348 C338 1.281 . S
O349 Tb321 2.409 . S
O349 C338 1.254 . S
O350 Tb321 2.378 . S
O350 C339 1.236 . S
O351 Tb320 2.341 . S
O351 C339 1.266 . S
H352 C324 0.929 . S
H353 C325 0.931 1_554 S
H354 C327 0.930 1_554 S
H355 C328 0.930 . S
H356 C333 0.929 . S
H357 C334 0.931 . S
H358 C336 0.930 . S
H359 C337 0.930 . S
Tb360 C362 2.809 . S
Tb360 O380 2.484 . S
Tb360 O381 2.440 . S
Tb360 O382 2.658 . S
Tb360 O383 2.409 . S
Tb360 O384 2.378 . S
Tb360 O388 2.325 . S
Tb360 O391 2.341 . S
Tb361 C371 2.809 . S
Tb361 O382 2.325 . S
Tb361 O385 2.341 . S
Tb361 O386 2.484 . S
Tb361 O387 2.440 . S
Tb361 O388 2.658 . S
Tb361 O389 2.409 . S
Tb361 O390 2.378 . S
C362 Tb360 2.809 . S
C362 C363 1.514 . S
C362 O380 1.248 . S
C362 O381 1.266 . S
C363 C362 1.514 . S
C363 C364 1.359 . S
C363 C368 1.348 . S
C364 C363 1.359 . S
C364 C365 1.380 . S
C364 H392 0.929 . S
C365 C364 1.380 . S
C365 C366 1.347 . S
C365 H393 0.931 . S
C366 C365 1.347 . S
C366 C367 1.369 . S
C367 C366 1.369 . S
C367 C368 1.408 . S
C367 H394 0.930 . S
C368 C363 1.348 . S
C368 C367 1.408 . S
C368 H395 0.930 . S
C369 O382 1.281 . S
C369 O383 1.254 . S
C370 O384 1.236 . S
C370 O385 1.266 . S
C371 Tb361 2.809 . S
C371 C372 1.514 . S
C371 O386 1.248 . S
C371 O387 1.266 . S
C372 C371 1.514 . S
C372 C373 1.359 . S
C372 C377 1.348 . S
C373 C372 1.359 . S
C373 C374 1.380 . S
C373 H396 0.929 . S
C374 C373 1.380 . S
C374 C375 1.347 1_554 S
C374 H397 0.931 1_554 S
C375 C374 1.347 1_556 S
C375 C376 1.369 1_556 S
C376 C375 1.369 1_554 S
C376 C377 1.408 . S
C376 H398 0.930 1_554 S
C377 C372 1.348 . S
C377 C376 1.408 . S
C377 H399 0.930 . S
C378 O388 1.281 . S
C378 O389 1.254 . S
C379 O390 1.236 . S
C379 O391 1.266 . S
O380 Tb360 2.484 . S
O380 C362 1.248 . S
O381 Tb360 2.440 . S
O381 C362 1.266 . S
O382 Tb360 2.658 . S
O382 Tb361 2.325 . S
O382 C369 1.281 . S
O383 Tb360 2.409 . S
O383 C369 1.254 . S
O384 Tb360 2.378 . S
O384 C370 1.236 . S
O385 Tb361 2.341 . S
O385 C370 1.266 . S
O386 Tb361 2.484 . S
O386 C371 1.248 . S
O387 Tb361 2.440 . S
O387 C371 1.266 . S
O388 Tb360 2.325 . S
O388 Tb361 2.658 . S
O388 C378 1.281 . S
O389 Tb361 2.409 . S
O389 C378 1.254 . S
O390 Tb361 2.378 . S
O390 C379 1.236 . S
O391 Tb360 2.341 . S
O391 C379 1.266 . S
H392 C364 0.929 . S
H393 C365 0.931 . S
H394 C367 0.930 . S
H395 C368 0.930 . S
H396 C373 0.929 . S
H397 C374 0.931 1_556 S
H398 C376 0.930 1_556 S
H399 C377 0.930 . S
Tb400 C402 2.809 . S
Tb400 O420 2.484 . S
Tb400 O421 2.440 . S
Tb400 O422 2.658 . S
Tb400 O423 2.409 . S
Tb400 O424 2.378 . S
Tb400 O428 2.325 . S
Tb400 O431 2.341 . S
Tb401 C411 2.809 . S
Tb401 O422 2.325 . S
Tb401 O425 2.341 . S
Tb401 O426 2.484 . S
Tb401 O427 2.440 . S
Tb401 O428 2.658 . S
Tb401 O429 2.409 . S
Tb401 O430 2.378 . S
C402 Tb400 2.809 . S
C402 C403 1.514 . S
C402 O420 1.248 . S
C402 O421 1.266 . S
C403 C402 1.514 . S
C403 C404 1.359 . S
C403 C408 1.348 . S
C404 C403 1.359 . S
C404 C405 1.380 . S
C404 H432 0.929 . S
C405 C404 1.380 . S
C405 C406 1.347 1_556 S
C405 H433 0.931 1_556 S
C406 C405 1.347 1_554 S
C406 C407 1.369 1_554 S
C407 C406 1.369 1_556 S
C407 C408 1.408 . S
C407 H434 0.930 1_556 S
C408 C403 1.348 . S
C408 C407 1.408 . S
C408 H435 0.930 . S
C409 O422 1.281 . S
C409 O423 1.254 . S
C410 O424 1.236 . S
C410 O425 1.266 . S
C411 Tb401 2.809 . S
C411 C412 1.514 . S
C411 O426 1.248 . S
C411 O427 1.266 . S
C412 C411 1.514 . S
C412 C413 1.359 . S
C412 C417 1.348 . S
C413 C412 1.359 . S
C413 C414 1.380 . S
C413 H436 0.929 . S
C414 C413 1.380 . S
C414 C415 1.347 . S
C414 H437 0.931 . S
C415 C414 1.347 . S
C415 C416 1.369 . S
C416 C415 1.369 . S
C416 C417 1.408 . S
C416 H438 0.930 . S
C417 C412 1.348 . S
C417 C416 1.408 . S
C417 H439 0.930 . S
C418 O428 1.281 . S
C418 O429 1.254 . S
C419 O430 1.236 . S
C419 O431 1.266 . S
O420 Tb400 2.484 . S
O420 C402 1.248 . S
O421 Tb400 2.440 . S
O421 C402 1.266 . S
O422 Tb400 2.658 . S
O422 Tb401 2.325 . S
O422 C409 1.281 . S
O423 Tb400 2.409 . S
O423 C409 1.254 . S
O424 Tb400 2.378 . S
O424 C410 1.236 . S
O425 Tb401 2.341 . S
O425 C410 1.266 . S
O426 Tb401 2.484 . S
O426 C411 1.248 . S
O427 Tb401 2.440 . S
O427 C411 1.266 . S
O428 Tb400 2.325 . S
O428 Tb401 2.658 . S
O428 C418 1.281 . S
O429 Tb401 2.409 . S
O429 C418 1.254 . S
O430 Tb401 2.378 . S
O430 C419 1.236 . S
O431 Tb400 2.341 . S
O431 C419 1.266 . S
H432 C404 0.929 . S
H433 C405 0.931 1_554 S
H434 C407 0.930 1_554 S
H435 C408 0.930 . S
H436 C413 0.929 . S
H437 C414 0.931 . S
H438 C416 0.930 . S
H439 C417 0.930 . S
Tb440 C442 2.809 . S
Tb440 O460 2.484 . S
Tb440 O461 2.440 . S
Tb440 O462 2.658 . S
Tb440 O463 2.409 . S
Tb440 O464 2.378 . S
Tb440 O468 2.325 . S
Tb440 O471 2.341 . S
Tb441 C451 2.809 . S
Tb441 O462 2.325 . S
Tb441 O465 2.341 . S
Tb441 O466 2.484 . S
Tb441 O467 2.440 . S
Tb441 O468 2.658 . S
Tb441 O469 2.409 . S
Tb441 O470 2.378 . S
C442 Tb440 2.809 . S
C442 C443 1.514 . S
C442 O460 1.248 . S
C442 O461 1.266 . S
C443 C442 1.514 . S
C443 C444 1.359 . S
C443 C448 1.348 . S
C444 C443 1.359 . S
C444 C445 1.380 . S
C444 H472 0.929 . S
C445 C444 1.380 . S
C445 C446 1.347 . S
C445 H473 0.931 . S
C446 C445 1.347 . S
C446 C447 1.369 . S
C447 C446 1.369 . S
C447 C448 1.408 . S
C447 H474 0.930 . S
C448 C443 1.348 . S
C448 C447 1.408 . S
C448 H475 0.930 . S
C449 O462 1.281 . S
C449 O463 1.254 . S
C450 O464 1.236 . S
C450 O465 1.266 . S
C451 Tb441 2.809 . S
C451 C452 1.514 . S
C451 O466 1.248 . S
C451 O467 1.266 . S
C452 C451 1.514 . S
C452 C453 1.359 . S
C452 C457 1.348 . S
C453 C452 1.359 . S
C453 C454 1.380 . S
C453 H476 0.929 . S
C454 C453 1.380 . S
C454 C455 1.347 1_554 S
C454 H477 0.931 1_554 S
C455 C454 1.347 1_556 S
C455 C456 1.369 1_556 S
C456 C455 1.369 1_554 S
C456 C457 1.408 . S
C456 H478 0.930 1_554 S
C457 C452 1.348 . S
C457 C456 1.408 . S
C457 H479 0.930 . S
C458 O468 1.281 . S
C458 O469 1.254 . S
C459 O470 1.236 . S
C459 O471 1.266 . S
O460 Tb440 2.484 . S
O460 C442 1.248 . S
O461 Tb440 2.440 . S
O461 C442 1.266 . S
O462 Tb440 2.658 . S
O462 Tb441 2.325 . S
O462 C449 1.281 . S
O463 Tb440 2.409 . S
O463 C449 1.254 . S
O464 Tb440 2.378 . S
O464 C450 1.236 . S
O465 Tb441 2.341 . S
O465 C450 1.266 . S
O466 Tb441 2.484 . S
O466 C451 1.248 . S
O467 Tb441 2.440 . S
O467 C451 1.266 . S
O468 Tb440 2.325 . S
O468 Tb441 2.658 . S
O468 C458 1.281 . S
O469 Tb441 2.409 . S
O469 C458 1.254 . S
O470 Tb441 2.378 . S
O470 C459 1.236 . S
O471 Tb440 2.341 . S
O471 C459 1.266 . S
H472 C444 0.929 . S
H473 C445 0.931 . S
H474 C447 0.930 . S
H475 C448 0.930 . S
H476 C453 0.929 . S
H477 C454 0.931 1_556 S
H478 C456 0.930 1_556 S
H479 C457 0.930 . S
Tb480 C482 2.809 . S
Tb480 O500 2.484 . S
Tb480 O501 2.440 . S
Tb480 O502 2.658 . S
Tb480 O503 2.409 . S
Tb480 O504 2.378 . S
Tb480 O508 2.325 . S
Tb480 O511 2.341 . S
Tb481 C491 2.809 . S
Tb481 O502 2.325 . S
Tb481 O505 2.341 . S
Tb481 O506 2.484 . S
Tb481 O507 2.440 . S
Tb481 O508 2.658 . S
Tb481 O509 2.409 . S
Tb481 O510 2.378 . S
C482 Tb480 2.809 . S
C482 C483 1.514 . S
C482 O500 1.248 . S
C482 O501 1.266 . S
C483 C482 1.514 . S
C483 C484 1.359 . S
C483 C488 1.348 . S
C484 C483 1.359 . S
C484 C485 1.380 . S
C484 H512 0.929 . S
C485 C484 1.380 . S
C485 C486 1.347 . S
C485 H513 0.931 . S
C486 C485 1.347 . S
C486 C487 1.369 . S
C487 C486 1.369 . S
C487 C488 1.408 . S
C487 H514 0.930 . S
C488 C483 1.348 . S
C488 C487 1.408 . S
C488 H515 0.930 . S
C489 O502 1.281 . S
C489 O503 1.254 . S
C490 O504 1.236 . S
C490 O505 1.266 . S
C491 Tb481 2.809 . S
C491 C492 1.514 . S
C491 O506 1.248 . S
C491 O507 1.266 . S
C492 C491 1.514 . S
C492 C493 1.359 . S
C492 C497 1.348 . S
C493 C492 1.359 . S
C493 C494 1.380 . S
C493 H516 0.929 . S
C494 C493 1.380 . S
C494 C495 1.347 1_556 S
C494 H517 0.930 . S
C495 C494 1.347 1_554 S
C495 C496 1.369 1_554 S
C496 C495 1.369 1_556 S
C496 C497 1.408 . S
C496 H518 0.930 1_556 S
C497 C492 1.348 . S
C497 C496 1.408 . S
C497 H519 0.930 . S
C498 O508 1.281 . S
C498 O509 1.254 . S
C499 O510 1.236 . S
C499 O511 1.266 . S
O500 Tb480 2.484 . S
O500 C482 1.248 . S
O501 Tb480 2.440 . S
O501 C482 1.266 . S
O502 Tb480 2.658 . S
O502 Tb481 2.325 . S
O502 C489 1.281 . S
O503 Tb480 2.409 . S
O503 C489 1.254 . S
O504 Tb480 2.378 . S
O504 C490 1.236 . S
O505 Tb481 2.341 . S
O505 C490 1.266 . S
O506 Tb481 2.484 . S
O506 C491 1.248 . S
O507 Tb481 2.440 . S
O507 C491 1.266 . S
O508 Tb480 2.325 . S
O508 Tb481 2.658 . S
O508 C498 1.281 . S
O509 Tb481 2.409 . S
O509 C498 1.254 . S
O510 Tb481 2.378 . S
O510 C499 1.236 . S
O511 Tb480 2.341 . S
O511 C499 1.266 . S
H512 C484 0.929 . S
H513 C485 0.931 . S
H514 C487 0.930 . S
H515 C488 0.930 . S
H516 C493 0.929 . S
H517 C494 0.930 . S
H518 C496 0.930 1_554 S
H519 C497 0.930 . S
Tb520 C522 2.809 . S
Tb520 O540 2.484 . S
Tb520 O541 2.440 . S
Tb520 O542 2.658 . S
Tb520 O543 2.409 . S
Tb520 O544 2.378 . S
Tb520 O548 2.325 . S
Tb520 O551 2.341 . S
Tb521 C531 2.809 . S
Tb521 O542 2.325 . S
Tb521 O545 2.341 . S
Tb521 O546 2.484 . S
Tb521 O547 2.440 . S
Tb521 O548 2.658 . S
Tb521 O549 2.409 . S
Tb521 O550 2.378 . S
C522 Tb520 2.809 . S
C522 C523 1.514 . S
C522 O540 1.248 . S
C522 O541 1.266 . S
C523 C522 1.514 . S
C523 C524 1.359 . S
C523 C528 1.348 . S
C524 C523 1.359 . S
C524 C525 1.380 . S
C524 H552 0.929 . S
C525 C524 1.380 . S
C525 C526 1.347 1_554 S
C525 H553 0.930 . S
C526 C525 1.347 1_556 S
C526 C527 1.369 1_556 S
C527 C526 1.369 1_554 S
C527 C528 1.408 . S
C527 H554 0.930 1_554 S
C528 C523 1.348 . S
C528 C527 1.408 . S
C528 H555 0.930 . S
C529 O542 1.281 . S
C529 O543 1.254 . S
C530 O544 1.236 . S
C530 O545 1.266 . S
C531 Tb521 2.809 . S
C531 C532 1.514 . S
C531 O546 1.248 . S
C531 O547 1.266 . S
C532 C531 1.514 . S
C532 C533 1.359 . S
C532 C537 1.348 . S
C533 C532 1.359 . S
C533 C534 1.380 . S
C533 H556 0.929 . S
C534 C533 1.380 . S
C534 C535 1.347 . S
C534 H557 0.931 . S
C535 C534 1.347 . S
C535 C536 1.369 . S
C536 C535 1.369 . S
C536 C537 1.408 . S
C536 H558 0.930 . S
C537 C532 1.348 . S
C537 C536 1.408 . S
C537 H559 0.930 . S
C538 O548 1.281 . S
C538 O549 1.254 . S
C539 O550 1.236 . S
C539 O551 1.266 . S
O540 Tb520 2.484 . S
O540 C522 1.248 . S
O541 Tb520 2.440 . S
O541 C522 1.266 . S
O542 Tb520 2.658 . S
O542 Tb521 2.325 . S
O542 C529 1.281 . S
O543 Tb520 2.409 . S
O543 C529 1.254 . S
O544 Tb520 2.378 . S
O544 C530 1.236 . S
O545 Tb521 2.341 . S
O545 C530 1.266 . S
O546 Tb521 2.484 . S
O546 C531 1.248 . S
O547 Tb521 2.440 . S
O547 C531 1.266 . S
O548 Tb520 2.325 . S
O548 Tb521 2.658 . S
O548 C538 1.281 . S
O549 Tb521 2.409 . S
O549 C538 1.254 . S
O550 Tb521 2.378 . S
O550 C539 1.236 . S
O551 Tb520 2.341 . S
O551 C539 1.266 . S
H552 C524 0.929 . S
H553 C525 0.930 . S
H554 C527 0.930 1_556 S
H555 C528 0.930 . S
H556 C533 0.929 . S
H557 C534 0.931 . S
H558 C536 0.930 . S
H559 C537 0.930 . S
Tb560 C562 2.809 . S
Tb560 O580 2.484 . S
Tb560 O581 2.440 . S
Tb560 O582 2.658 . S
Tb560 O583 2.409 . S
Tb560 O584 2.378 . S
Tb560 O588 2.325 . S
Tb560 O591 2.341 . S
Tb561 C571 2.809 . S
Tb561 O582 2.325 . S
Tb561 O585 2.341 . S
Tb561 O586 2.484 . S
Tb561 O587 2.440 . S
Tb561 O588 2.658 . S
Tb561 O589 2.409 . S
Tb561 O590 2.378 . S
C562 Tb560 2.809 . S
C562 C563 1.514 . S
C562 O580 1.248 . S
C562 O581 1.266 . S
C563 C562 1.514 . S
C563 C564 1.359 . S
C563 C568 1.348 . S
C564 C563 1.359 . S
C564 C565 1.380 . S
C564 H592 0.929 . S
C565 C564 1.380 . S
C565 C566 1.347 . S
C565 H593 0.931 . S
C566 C565 1.347 . S
C566 C567 1.369 . S
C567 C566 1.369 . S
C567 C568 1.408 . S
C567 H594 0.930 . S
C568 C563 1.348 . S
C568 C567 1.408 . S
C568 H595 0.930 . S
C569 O582 1.281 . S
C569 O583 1.254 . S
C570 O584 1.236 . S
C570 O585 1.266 . S
C571 Tb561 2.809 . S
C571 C572 1.514 . S
C571 O586 1.248 . S
C571 O587 1.266 . S
C572 C571 1.514 . S
C572 C573 1.359 . S
C572 C577 1.348 . S
C573 C572 1.359 . S
C573 C574 1.380 . S
C573 H596 0.929 . S
C574 C573 1.380 . S
C574 C575 1.347 1_556 S
C574 H597 0.930 . S
C575 C574 1.347 1_554 S
C575 C576 1.369 1_554 S
C576 C575 1.369 1_556 S
C576 C577 1.408 . S
C576 H598 0.930 1_556 S
C577 C572 1.348 . S
C577 C576 1.408 . S
C577 H599 0.930 . S
C578 O588 1.281 . S
C578 O589 1.254 . S
C579 O590 1.236 . S
C579 O591 1.266 . S
O580 Tb560 2.484 . S
O580 C562 1.248 . S
O581 Tb560 2.440 . S
O581 C562 1.266 . S
O582 Tb560 2.658 . S
O582 Tb561 2.325 . S
O582 C569 1.281 . S
O583 Tb560 2.409 . S
O583 C569 1.254 . S
O584 Tb560 2.378 . S
O584 C570 1.236 . S
O585 Tb561 2.341 . S
O585 C570 1.266 . S
O586 Tb561 2.484 . S
O586 C571 1.248 . S
O587 Tb561 2.440 . S
O587 C571 1.266 . S
O588 Tb560 2.325 . S
O588 Tb561 2.658 . S
O588 C578 1.281 . S
O589 Tb561 2.409 . S
O589 C578 1.254 . S
O590 Tb561 2.378 . S
O590 C579 1.236 . S
O591 Tb560 2.341 . S
O591 C579 1.266 . S
H592 C564 0.929 . S
H593 C565 0.931 . S
H594 C567 0.930 . S
H595 C568 0.930 . S
H596 C573 0.929 . S
H597 C574 0.930 . S
H598 C576 0.930 1_554 S
H599 C577 0.930 . S
Tb600 C602 2.809 . S
Tb600 O620 2.484 . S
Tb600 O621 2.440 . S
Tb600 O622 2.658 . S
Tb600 O623 2.409 . S
Tb600 O624 2.378 . S
Tb600 O628 2.325 . S
Tb600 O631 2.341 . S
Tb601 C611 2.809 . S
Tb601 O622 2.325 . S
Tb601 O625 2.341 . S
Tb601 O626 2.484 . S
Tb601 O627 2.440 . S
Tb601 O628 2.658 . S
Tb601 O629 2.409 . S
Tb601 O630 2.378 . S
C602 Tb600 2.809 . S
C602 C603 1.514 . S
C602 O620 1.248 . S
C602 O621 1.266 . S
C603 C602 1.514 . S
C603 C604 1.359 . S
C603 C608 1.348 . S
C604 C603 1.359 . S
C604 C605 1.380 . S
C604 H632 0.929 . S
C605 C604 1.380 . S
C605 C606 1.347 1_554 S
C605 H633 0.930 . S
C606 C605 1.347 1_556 S
C606 C607 1.369 1_556 S
C607 C606 1.369 1_554 S
C607 C608 1.408 . S
C607 H634 0.930 1_554 S
C608 C603 1.348 . S
C608 C607 1.408 . S
C608 H635 0.930 . S
C609 O622 1.281 . S
C609 O623 1.254 . S
C610 O624 1.236 . S
C610 O625 1.266 . S
C611 Tb601 2.809 . S
C611 C612 1.514 . S
C611 O626 1.248 . S
C611 O627 1.266 . S
C612 C611 1.514 . S
C612 C613 1.359 . S
C612 C617 1.348 . S
C613 C612 1.359 . S
C613 C614 1.380 . S
C613 H636 0.929 . S
C614 C613 1.380 . S
C614 C615 1.347 . S
C614 H637 0.931 . S
C615 C614 1.347 . S
C615 C616 1.369 . S
C616 C615 1.369 . S
C616 C617 1.408 . S
C616 H638 0.930 . S
C617 C612 1.348 . S
C617 C616 1.408 . S
C617 H639 0.930 . S
C618 O628 1.281 . S
C618 O629 1.254 . S
C619 O630 1.236 . S
C619 O631 1.266 . S
O620 Tb600 2.484 . S
O620 C602 1.248 . S
O621 Tb600 2.440 . S
O621 C602 1.266 . S
O622 Tb600 2.658 . S
O622 Tb601 2.325 . S
O622 C609 1.281 . S
O623 Tb600 2.409 . S
O623 C609 1.254 . S
O624 Tb600 2.378 . S
O624 C610 1.236 . S
O625 Tb601 2.341 . S
O625 C610 1.266 . S
O626 Tb601 2.484 . S
O626 C611 1.248 . S
O627 Tb601 2.440 . S
O627 C611 1.266 . S
O628 Tb600 2.325 . S
O628 Tb601 2.658 . S
O628 C618 1.281 . S
O629 Tb601 2.409 . S
O629 C618 1.254 . S
O630 Tb601 2.378 . S
O630 C619 1.236 . S
O631 Tb600 2.341 . S
O631 C619 1.266 . S
H632 C604 0.929 . S
H633 C605 0.930 . S
H634 C607 0.930 1_556 S
H635 C608 0.930 . S
H636 C613 0.929 . S
H637 C614 0.931 . S
H638 C616 0.930 . S
H639 C617 0.930 . S
C640 C641 1.363 . S
C640 C646 1.379 . S
C640 N648 1.356 . S
C641 C640 1.363 . S
C641 C647 1.363 . S
C642 C643 1.363 . S
C642 C647 1.379 . S
C642 N649 1.356 . S
C643 C642 1.363 . S
C643 C646 1.363 . S
N644 C646 1.356 1_545 S
N644 H656 0.984 . S
N644 H657 0.985 . S
N645 C647 1.356 . S
N645 H650 0.984 . S
N645 H651 0.985 . S
C646 C640 1.379 . S
C646 C643 1.363 . S
C646 N644 1.356 1_565 S
C647 C641 1.363 . S
C647 C642 1.379 . S
C647 N645 1.356 . S
N648 C640 1.356 . S
N648 H654 0.984 . S
N648 H655 0.984 . S
N649 C642 1.356 . S
N649 H652 0.984 . S
N649 H653 0.985 . S
H650 N645 0.984 . S
H651 N645 0.985 . S
H652 N649 0.984 . S
H653 N649 0.985 . S
H654 N648 0.984 . S
H655 N648 0.984 . S
H656 N644 0.984 . S
H657 N644 0.985 . S
C658 C659 1.363 . S
C658 C664 1.379 . S
C658 N666 1.356 . S
C659 C658 1.363 . S
C659 C665 1.363 . S
C660 C661 1.363 . S
C660 C665 1.379 . S
C660 N667 1.356 . S
C661 C660 1.363 . S
C661 C664 1.363 . S
N662 C664 1.356 1_455 S
N662 H674 0.984 . S
N662 H675 0.985 . S
N663 C665 1.356 . S
N663 H668 0.984 . S
N663 H669 0.985 . S
C664 C658 1.379 . S
C664 C661 1.363 . S
C664 N662 1.356 1_655 S
C665 C659 1.363 . S
C665 C660 1.379 . S
C665 N663 1.356 . S
N666 C658 1.356 . S
N666 H672 0.984 . S
N666 H673 0.984 . S
N667 C660 1.356 . S
N667 H670 0.984 . S
N667 H671 0.985 . S
H668 N663 0.984 . S
H669 N663 0.985 . S
H670 N667 0.984 . S
H671 N667 0.985 . S
H672 N666 0.984 . S
H673 N666 0.984 . S
H674 N662 0.984 . S
H675 N662 0.985 . S
C676 C677 1.363 . S
C676 C682 1.379 . S
C676 N684 1.356 1_545 S
C677 C676 1.363 . S
C677 C683 1.363 . S
C678 C679 1.363 . S
C678 C683 1.379 . S
C678 N685 1.356 . S
C679 C678 1.363 . S
C679 C682 1.363 . S
N680 C682 1.356 . S
N680 H692 0.984 . S
N680 H693 0.985 . S
N681 C683 1.356 . S
N681 H686 0.984 . S
N681 H687 0.985 . S
C682 C676 1.379 . S
C682 C679 1.363 . S
C682 N680 1.356 . S
C683 C677 1.363 . S
C683 C678 1.379 . S
C683 N681 1.356 . S
N684 C676 1.356 1_565 S
N684 H690 0.984 . S
N684 H691 0.984 . S
N685 C678 1.356 . S
N685 H688 0.984 . S
N685 H689 0.985 . S
H686 N681 0.984 . S
H687 N681 0.985 . S
H688 N685 0.984 . S
H689 N685 0.985 . S
H690 N684 0.984 . S
H691 N684 0.984 . S
H692 N680 0.984 . S
H693 N680 0.985 . S
C694 C695 1.363 . S
C694 C700 1.379 . S
C694 N702 1.356 1_455 S
C695 C694 1.363 . S
C695 C701 1.363 . S
C696 C697 1.363 . S
C696 C701 1.379 . S
C696 N703 1.356 . S
C697 C696 1.363 . S
C697 C700 1.363 . S
N698 C700 1.356 . S
N698 H710 0.984 . S
N698 H711 0.985 . S
N699 C701 1.356 . S
N699 H704 0.984 . S
N699 H705 0.985 . S
C700 C694 1.379 . S
C700 C697 1.363 . S
C700 N698 1.356 . S
C701 C695 1.363 . S
C701 C696 1.379 . S
C701 N699 1.356 . S
N702 C694 1.356 1_655 S
N702 H708 0.984 . S
N702 H709 0.984 . S
N703 C696 1.356 . S
N703 H706 0.984 . S
N703 H707 0.985 . S
H704 N699 0.984 . S
H705 N699 0.985 . S
H706 N703 0.984 . S
H707 N703 0.985 . S
H708 N702 0.984 . S
H709 N702 0.984 . S
H710 N698 0.984 . S
H711 N698 0.985 . S
C712 C713 1.363 . S
C712 C718 1.379 . S
C712 N720 1.356 . S
C713 C712 1.363 . S
C713 C719 1.363 . S
C714 C715 1.363 . S
C714 C719 1.379 . S
C714 N721 1.356 . S
C715 C714 1.363 . S
C715 C718 1.363 . S
N716 C718 1.356 1_556 S
N716 H728 0.984 . S
N716 H729 0.985 . S
N717 C719 1.356 . S
N717 H722 0.984 . S
N717 H723 0.985 . S
C718 C712 1.379 . S
C718 C715 1.363 . S
C718 N716 1.356 1_554 S
C719 C713 1.363 . S
C719 C714 1.379 . S
C719 N717 1.356 . S
N720 C712 1.356 . S
N720 H726 0.984 . S
N720 H727 0.984 . S
N721 C714 1.356 . S
N721 H724 0.984 . S
N721 H725 0.985 . S
H722 N717 0.984 . S
H723 N717 0.985 . S
H724 N721 0.984 . S
H725 N721 0.985 . S
H726 N720 0.984 . S
H727 N720 0.984 . S
H728 N716 0.984 . S
H729 N716 0.985 . S
C730 C731 1.363 1_554 S
C730 C736 1.379 1_554 S
C730 N738 1.356 . S
C731 C730 1.363 1_556 S
C731 C737 1.363 . S
C732 C733 1.363 . S
C732 C737 1.379 . S
C732 N739 1.356 . S
C733 C732 1.363 . S
C733 C736 1.363 . S
N734 C736 1.356 . S
N734 H746 0.984 1_556 S
N734 H747 0.985 . S
N735 C737 1.356 . S
N735 H740 0.984 . S
N735 H741 0.985 . S
C736 C730 1.379 1_556 S
C736 C733 1.363 . S
C736 N734 1.356 . S
C737 C731 1.363 . S
C737 C732 1.379 . S
C737 N735 1.356 . S
N738 C730 1.356 . S
N738 H744 0.984 . S
N738 H745 0.984 . S
N739 C732 1.356 . S
N739 H742 0.984 . S
N739 H743 0.985 . S
H740 N735 0.984 . S
H741 N735 0.985 . S
H742 N739 0.984 . S
H743 N739 0.985 . S
H744 N738 0.984 . S
H745 N738 0.984 . S
H746 N734 0.984 1_554 S
H747 N734 0.985 . S
C748 C749 1.363 . S
C748 C754 1.379 . S
C748 N756 1.356 . S
C749 C748 1.363 . S
C749 C755 1.363 . S
C750 C751 1.363 . S
C750 C755 1.379 . S
C750 N757 1.356 . S
C751 C750 1.363 . S
C751 C754 1.363 . S
N752 C754 1.356 1_556 S
N752 H764 0.984 . S
N752 H765 0.985 . S
N753 C755 1.356 . S
N753 H758 0.984 . S
N753 H759 0.985 . S
C754 C748 1.379 . S
C754 C751 1.363 . S
C754 N752 1.356 1_554 S
C755 C749 1.363 . S
C755 C750 1.379 . S
C755 N753 1.356 . S
N756 C748 1.356 . S
N756 H762 0.984 . S
N756 H763 0.984 . S
N757 C750 1.356 . S
N757 H760 0.984 1_554 S
N757 H761 0.985 . S
H758 N753 0.984 . S
H759 N753 0.985 . S
H760 N757 0.984 1_556 S
H761 N757 0.985 . S
H762 N756 0.984 . S
H763 N756 0.984 . S
H764 N752 0.984 . S
H765 N752 0.985 . S
C766 C767 1.363 . S
C766 C772 1.379 . S
C766 N774 1.356 . S
C767 C766 1.363 . S
C767 C773 1.363 1_556 S
C768 C769 1.363 . S
C768 C773 1.379 1_556 S
C768 N775 1.356 . S
C769 C768 1.363 . S
C769 C772 1.363 . S
N770 C772 1.356 . S
N770 H782 0.984 . S
N770 H783 0.985 . S
N771 C773 1.356 . S
N771 H776 0.984 . S
N771 H777 0.985 . S
C772 C766 1.379 . S
C772 C769 1.363 . S
C772 N770 1.356 . S
C773 C767 1.363 1_554 S
C773 C768 1.379 1_554 S
C773 N771 1.356 . S
N774 C766 1.356 . S
N774 H780 0.984 . S
N774 H781 0.984 . S
N775 C768 1.356 . S
N775 H778 0.984 . S
N775 H779 0.985 1_556 S
H776 N771 0.984 . S
H777 N771 0.985 . S
H778 N775 0.984 . S
H779 N775 0.985 1_554 S
H780 N774 0.984 . S
H781 N774 0.984 . S
H782 N770 0.984 . S
H783 N770 0.985 . S
C784 C785 1.363 . S
C784 C790 1.379 . S
C784 N792 1.356 . S
C785 C784 1.363 . S
C785 C791 1.363 . S
C786 C787 1.363 . S
C786 C791 1.379 . S
C786 N793 1.356 . S
C787 C786 1.363 . S
C787 C790 1.363 . S
N788 C790 1.356 . S
N788 H800 0.984 . S
N788 H801 0.985 . S
N789 C791 1.356 . S
N789 H794 0.984 . S
N789 H795 0.985 . S
C790 C784 1.379 . S
C790 C787 1.363 . S
C790 N788 1.356 . S
C791 C785 1.363 . S
C791 C786 1.379 . S
C791 N789 1.356 . S
N792 C784 1.356 . S
N792 H798 0.984 . S
N792 H799 0.984 . S
N793 C786 1.356 . S
N793 H796 0.984 . S
N793 H797 0.985 . S
H794 N789 0.984 . S
H795 N789 0.985 . S
H796 N793 0.984 . S
H797 N793 0.985 . S
H798 N792 0.984 . S
H799 N792 0.984 . S
H800 N788 0.984 . S
H801 N788 0.985 . S
C802 C803 1.363 . S
C802 C808 1.379 . S
C802 N810 1.356 . S
C803 C802 1.363 . S
C803 C809 1.363 . S
C804 C805 1.363 . S
C804 C809 1.379 . S
C804 N811 1.356 . S
C805 C804 1.363 . S
C805 C808 1.363 . S
N806 C808 1.356 . S
N806 H818 0.984 . S
N806 H819 0.985 . S
N807 C809 1.356 . S
N807 H812 0.984 . S
N807 H813 0.985 . S
C808 C802 1.379 . S
C808 C805 1.363 . S
C808 N806 1.356 . S
C809 C803 1.363 . S
C809 C804 1.379 . S
C809 N807 1.356 . S
N810 C802 1.356 . S
N810 H816 0.984 . S
N810 H817 0.984 . S
N811 C804 1.356 . S
N811 H814 0.984 . S
N811 H815 0.985 . S
H812 N807 0.984 . S
H813 N807 0.985 . S
H814 N811 0.984 . S
H815 N811 0.985 . S
H816 N810 0.984 . S
H817 N810 0.984 . S
H818 N806 0.984 . S
H819 N806 0.985 . S
C820 C821 1.363 . S
C820 C826 1.379 . S
C820 N828 1.356 . S
C821 C820 1.363 . S
C821 C827 1.363 . S
C822 C823 1.363 . S
C822 C827 1.379 . S
C822 N829 1.356 . S
C823 C822 1.363 . S
C823 C826 1.363 . S
N824 C826 1.356 . S
N824 H836 0.984 . S
N824 H837 0.985 . S
N825 C827 1.356 . S
N825 H830 0.984 . S
N825 H831 0.985 . S
C826 C820 1.379 . S
C826 C823 1.363 . S
C826 N824 1.356 . S
C827 C821 1.363 . S
C827 C822 1.379 . S
C827 N825 1.356 . S
N828 C820 1.356 . S
N828 H834 0.984 . S
N828 H835 0.984 . S
N829 C822 1.356 . S
N829 H832 0.984 . S
N829 H833 0.985 . S
H830 N825 0.984 . S
H831 N825 0.985 . S
H832 N829 0.984 . S
H833 N829 0.985 . S
H834 N828 0.984 . S
H835 N828 0.984 . S
H836 N824 0.984 . S
H837 N824 0.985 . S
C838 C839 1.363 . S
C838 C844 1.379 . S
C838 N846 1.356 . S
C839 C838 1.363 . S
C839 C845 1.363 . S
C840 C841 1.363 . S
C840 C845 1.379 . S
C840 N847 1.356 . S
C841 C840 1.363 . S
C841 C844 1.363 . S
N842 C844 1.356 . S
N842 H854 0.984 . S
N842 H855 0.985 . S
N843 C845 1.356 . S
N843 H848 0.984 . S
N843 H849 0.985 . S
C844 C838 1.379 . S
C844 C841 1.363 . S
C844 N842 1.356 . S
C845 C839 1.363 . S
C845 C840 1.379 . S
C845 N843 1.356 . S
N846 C838 1.356 . S
N846 H852 0.984 . S
N846 H853 0.984 . S
N847 C840 1.356 . S
N847 H850 0.984 . S
N847 H851 0.985 . S
H848 N843 0.984 . S
H849 N843 0.985 . S
H850 N847 0.984 . S
H851 N847 0.985 . S
H852 N846 0.984 . S
H853 N846 0.984 . S
H854 N842 0.984 . S
H855 N842 0.985 . S
C856 C857 1.363 . S
C856 C862 1.379 . S
C856 N864 1.356 . S
C857 C856 1.363 . S
C857 C863 1.363 . S
C858 C859 1.363 . S
C858 C863 1.379 . S
C858 N865 1.356 . S
C859 C858 1.363 . S
C859 C862 1.363 . S
N860 C862 1.356 . S
N860 H872 0.984 . S
N860 H873 0.985 . S
N861 C863 1.356 1_565 S
N861 H866 0.984 . S
N861 H867 0.985 . S
C862 C856 1.379 . S
C862 C859 1.363 . S
C862 N860 1.356 . S
C863 C857 1.363 . S
C863 C858 1.379 . S
C863 N861 1.356 1_545 S
N864 C856 1.356 . S
N864 H870 0.984 . S
N864 H871 0.984 . S
N865 C858 1.356 . S
N865 H868 0.984 . S
N865 H869 0.985 . S
H866 N861 0.984 . S
H867 N861 0.985 . S
H868 N865 0.984 . S
H869 N865 0.985 . S
H870 N864 0.984 . S
H871 N864 0.984 . S
H872 N860 0.984 . S
H873 N860 0.985 . S
C874 C875 1.363 . S
C874 C880 1.379 . S
C874 N882 1.356 . S
C875 C874 1.363 . S
C875 C881 1.363 . S
C876 C877 1.363 . S
C876 C881 1.379 . S
C876 N883 1.356 1_455 S
C877 C876 1.363 . S
C877 C880 1.363 . S
N878 C880 1.356 . S
N878 H890 0.984 . S
N878 H891 0.985 . S
N879 C881 1.356 . S
N879 H884 0.984 . S
N879 H885 0.985 . S
C880 C874 1.379 . S
C880 C877 1.363 . S
C880 N878 1.356 . S
C881 C875 1.363 . S
C881 C876 1.379 . S
C881 N879 1.356 . S
N882 C874 1.356 . S
N882 H888 0.984 . S
N882 H889 0.984 . S
N883 C876 1.356 1_655 S
N883 H886 0.984 . S
N883 H887 0.985 . S
H884 N879 0.984 . S
H885 N879 0.985 . S
H886 N883 0.984 . S
H887 N883 0.985 . S
H888 N882 0.984 . S
H889 N882 0.984 . S
H890 N878 0.984 . S
H891 N878 0.985 . S
C892 C893 1.363 . S
C892 C898 1.379 . S
C892 N900 1.356 . S
C893 C892 1.363 . S
C893 C899 1.363 . S
C894 C895 1.363 . S
C894 C899 1.379 . S
C894 N901 1.356 . S
C895 C894 1.363 . S
C895 C898 1.363 . S
N896 C898 1.356 1_545 S
N896 H908 0.984 . S
N896 H909 0.985 . S
N897 C899 1.356 . S
N897 H902 0.984 . S
N897 H903 0.985 . S
C898 C892 1.379 . S
C898 C895 1.363 . S
C898 N896 1.356 1_565 S
C899 C893 1.363 . S
C899 C894 1.379 . S
C899 N897 1.356 . S
N900 C892 1.356 . S
N900 H906 0.984 . S
N900 H907 0.984 . S
N901 C894 1.356 . S
N901 H904 0.984 . S
N901 H905 0.985 . S
H902 N897 0.984 . S
H903 N897 0.985 . S
H904 N901 0.984 . S
H905 N901 0.985 . S
H906 N900 0.984 . S
H907 N900 0.984 . S
H908 N896 0.984 . S
H909 N896 0.985 . S
C910 C911 1.363 . S
C910 C916 1.379 . S
C910 N918 1.356 1_655 S
C911 C910 1.363 . S
C911 C917 1.363 . S
C912 C913 1.363 . S
C912 C917 1.379 . S
C912 N919 1.356 . S
C913 C912 1.363 . S
C913 C916 1.363 . S
N914 C916 1.356 . S
N914 H926 0.984 . S
N914 H927 0.985 . S
N915 C917 1.356 . S
N915 H920 0.984 . S
N915 H921 0.985 . S
C916 C910 1.379 . S
C916 C913 1.363 . S
C916 N914 1.356 . S
C917 C911 1.363 . S
C917 C912 1.379 . S
C917 N915 1.356 . S
N918 C910 1.356 1_455 S
N918 H924 0.984 . S
N918 H925 0.984 . S
N919 C912 1.356 . S
N919 H922 0.984 . S
N919 H923 0.985 . S
H920 N915 0.984 . S
H921 N915 0.985 . S
H922 N919 0.984 . S
H923 N919 0.985 . S
H924 N918 0.984 . S
H925 N918 0.984 . S
H926 N914 0.984 . S
H927 N914 0.985 . S
C928 C929 1.363 . S
C928 C934 1.379 . S
C928 N936 1.356 . S
C929 C928 1.363 . S
C929 C935 1.363 . S
C930 C931 1.363 . S
C930 C935 1.379 . S
C930 N937 1.356 . S
C931 C930 1.363 . S
C931 C934 1.363 . S
N932 C934 1.356 . S
N932 H944 0.984 . S
N932 H945 0.985 . S
N933 C935 1.356 . S
N933 H938 0.984 . S
N933 H939 0.985 . S
C934 C928 1.379 . S
C934 C931 1.363 . S
C934 N932 1.356 . S
C935 C929 1.363 . S
C935 C930 1.379 . S
C935 N933 1.356 . S
N936 C928 1.356 . S
N936 H942 0.984 . S
N936 H943 0.984 . S
N937 C930 1.356 . S
N937 H940 0.984 . S
N937 H941 0.985 . S
H938 N933 0.984 . S
H939 N933 0.985 . S
H940 N937 0.984 . S
H941 N937 0.985 . S
H942 N936 0.984 . S
H943 N936 0.984 . S
H944 N932 0.984 . S
H945 N932 0.985 . S
C946 C947 1.363 . S
C946 C952 1.379 . S
C946 N954 1.356 . S
C947 C946 1.363 . S
C947 C953 1.363 . S
C948 C949 1.363 . S
C948 C953 1.379 . S
C948 N955 1.356 . S
C949 C948 1.363 . S
C949 C952 1.363 . S
N950 C952 1.356 . S
N950 H962 0.984 . S
N950 H963 0.985 . S
N951 C953 1.356 . S
N951 H956 0.984 . S
N951 H957 0.985 . S
C952 C946 1.379 . S
C952 C949 1.363 . S
C952 N950 1.356 . S
C953 C947 1.363 . S
C953 C948 1.379 . S
C953 N951 1.356 . S
N954 C946 1.356 . S
N954 H960 0.984 . S
N954 H961 0.984 . S
N955 C948 1.356 . S
N955 H958 0.984 . S
N955 H959 0.985 . S
H956 N951 0.984 . S
H957 N951 0.985 . S
H958 N955 0.984 . S
H959 N955 0.985 . S
H960 N954 0.984 . S
H961 N954 0.984 . S
H962 N950 0.984 . S
H963 N950 0.985 . S
C964 C965 1.363 . S
C964 C970 1.379 . S
C964 N972 1.356 . S
C965 C964 1.363 . S
C965 C971 1.363 . S
C966 C967 1.363 . S
C966 C971 1.379 . S
C966 N973 1.356 . S
C967 C966 1.363 . S
C967 C970 1.363 . S
N968 C970 1.356 . S
N968 H980 0.984 . S
N968 H981 0.985 . S
N969 C971 1.356 . S
N969 H974 0.984 . S
N969 H975 0.985 1_554 S
C970 C964 1.379 . S
C970 C967 1.363 . S
C970 N968 1.356 . S
C971 C965 1.363 . S
C971 C966 1.379 . S
C971 N969 1.356 . S
N972 C964 1.356 . S
N972 H978 0.984 . S
N972 H979 0.984 . S
N973 C966 1.356 . S
N973 H976 0.984 . S
N973 H977 0.985 . S
H974 N969 0.984 . S
H975 N969 0.985 1_556 S
H976 N973 0.984 . S
H977 N973 0.985 . S
H978 N972 0.984 . S
H979 N972 0.984 . S
H980 N968 0.984 . S
H981 N968 0.985 . S
C982 C983 1.363 . S
C982 C988 1.379 . S
C982 N990 1.356 . S
C983 C982 1.363 . S
C983 C989 1.363 . S
C984 C985 1.363 . S
C984 C989 1.379 . S
C984 N991 1.356 . S
C985 C984 1.363 . S
C985 C988 1.363 . S
N986 C988 1.356 . S
N986 H998 0.984 . S
N986 H999 0.985 . S
N987 C989 1.356 . S
N987 H992 0.984 . S
N987 H993 0.985 . S
C988 C982 1.379 . S
C988 C985 1.363 . S
C988 N986 1.356 . S
C989 C983 1.363 . S
C989 C984 1.379 . S
C989 N987 1.356 . S
N990 C982 1.356 . S
N990 H996 0.984 . S
N990 H997 0.984 . S
N991 C984 1.356 . S
N991 H994 0.984 . S
N991 H995 0.985 . S
H992 N987 0.984 . S
H993 N987 0.985 . S
H994 N991 0.984 . S
H995 N991 0.985 . S
H996 N990 0.984 . S
H997 N990 0.984 . S
H998 N986 0.984 . S
H999 N986 0.985 . S
C1000 C1001 1.363 . S
C1000 C1006 1.379 . S
C1000 N1008 1.356 . S
C1001 C1000 1.363 . S
C1001 C1007 1.363 . S
C1002 C1003 1.363 . S
C1002 C1007 1.379 . S
C1002 N1009 1.356 . S
C1003 C1002 1.363 . S
C1003 C1006 1.363 . S
N1004 C1006 1.356 . S
N1004 H1016 0.984 . S
N1004 H1017 0.985 . S
N1005 C1007 1.356 . S
N1005 H1010 0.984 . S
N1005 H1011 0.985 . S
C1006 C1000 1.379 . S
C1006 C1003 1.363 . S
C1006 N1004 1.356 . S
C1007 C1001 1.363 . S
C1007 C1002 1.379 . S
C1007 N1005 1.356 . S
N1008 C1000 1.356 . S
N1008 H1014 0.984 . S
N1008 H1015 0.984 . S
N1009 C1002 1.356 . S
N1009 H1012 0.984 . S
N1009 H1013 0.985 . S
H1010 N1005 0.984 . S
H1011 N1005 0.985 . S
H1012 N1009 0.984 . S
H1013 N1009 0.985 . S
H1014 N1008 0.984 . S
H1015 N1008 0.984 . S
H1016 N1004 0.984 . S
H1017 N1004 0.985 . S
C1018 C1019 1.363 . S
C1018 C1024 1.379 . S
C1018 N1026 1.356 . S
C1019 C1018 1.363 . S
C1019 C1025 1.363 . S
C1020 C1021 1.363 . S
C1020 C1025 1.379 . S
C1020 N1027 1.356 . S
C1021 C1020 1.363 . S
C1021 C1024 1.363 . S
N1022 C1024 1.356 . S
N1022 H1034 0.984 . S
N1022 H1035 0.985 . S
N1023 C1025 1.356 . S
N1023 H1028 0.984 . S
N1023 H1029 0.985 . S
C1024 C1018 1.379 . S
C1024 C1021 1.363 . S
C1024 N1022 1.356 . S
C1025 C1019 1.363 . S
C1025 C1020 1.379 . S
C1025 N1023 1.356 . S
N1026 C1018 1.356 . S
N1026 H1032 0.984 . S
N1026 H1033 0.984 . S
N1027 C1020 1.356 . S
N1027 H1030 0.984 . S
N1027 H1031 0.985 . S
H1028 N1023 0.984 . S
H1029 N1023 0.985 . S
H1030 N1027 0.984 . S
H1031 N1027 0.985 . S
H1032 N1026 0.984 . S
H1033 N1026 0.984 . S
H1034 N1022 0.984 . S
H1035 N1022 0.985 . S
C1036 C1037 1.363 . S
C1036 C1042 1.379 . S
C1036 N1044 1.356 . S
C1037 C1036 1.363 . S
C1037 C1043 1.363 . S
C1038 C1039 1.363 . S
C1038 C1043 1.379 . S
C1038 N1045 1.356 . S
C1039 C1038 1.363 . S
C1039 C1042 1.363 . S
N1040 C1042 1.356 . S
N1040 H1052 0.984 . S
N1040 H1053 0.985 . S
N1041 C1043 1.356 . S
N1041 H1046 0.984 . S
N1041 H1047 0.985 . S
C1042 C1036 1.379 . S
C1042 C1039 1.363 . S
C1042 N1040 1.356 . S
C1043 C1037 1.363 . S
C1043 C1038 1.379 . S
C1043 N1041 1.356 . S
N1044 C1036 1.356 . S
N1044 H1050 0.984 . S
N1044 H1051 0.984 . S
N1045 C1038 1.356 . S
N1045 H1048 0.984 . S
N1045 H1049 0.985 . S
H1046 N1041 0.984 . S
H1047 N1041 0.985 . S
H1048 N1045 0.984 . S
H1049 N1045 0.985 . S
H1050 N1044 0.984 . S
H1051 N1044 0.984 . S
H1052 N1040 0.984 . S
H1053 N1040 0.985 . S
C1054 C1055 1.363 . S
C1054 C1060 1.379 . S
C1054 N1062 1.356 . S
C1055 C1054 1.363 . S
C1055 C1061 1.363 . S
C1056 C1057 1.363 . S
C1056 C1061 1.379 . S
C1056 N1063 1.356 . S
C1057 C1056 1.363 . S
C1057 C1060 1.363 . S
N1058 C1060 1.356 . S
N1058 H1070 0.984 . S
N1058 H1071 0.985 . S
N1059 C1061 1.356 . S
N1059 H1064 0.984 . S
N1059 H1065 0.985 . S
C1060 C1054 1.379 . S
C1060 C1057 1.363 . S
C1060 N1058 1.356 . S
C1061 C1055 1.363 . S
C1061 C1056 1.379 . S
C1061 N1059 1.356 . S
N1062 C1054 1.356 . S
N1062 H1068 0.984 . S
N1062 H1069 0.984 . S
N1063 C1056 1.356 . S
N1063 H1066 0.984 . S
N1063 H1067 0.985 . S
H1064 N1059 0.984 . S
H1065 N1059 0.985 . S
H1066 N1063 0.984 . S
H1067 N1063 0.985 . S
H1068 N1062 0.984 . S
H1069 N1062 0.984 . S
H1070 N1058 0.984 . S
H1071 N1058 0.985 . S
C1072 C1073 1.363 . S
C1072 C1078 1.379 . S
C1072 N1080 1.356 . S
C1073 C1072 1.363 . S
C1073 C1079 1.363 . S
C1074 C1075 1.363 . S
C1074 C1079 1.379 . S
C1074 N1081 1.356 . S
C1075 C1074 1.363 . S
C1075 C1078 1.363 . S
N1076 C1078 1.356 . S
N1076 H1088 0.984 . S
N1076 H1089 0.985 . S
N1077 C1079 1.356 . S
N1077 H1082 0.984 . S
N1077 H1083 0.985 . S
C1078 C1072 1.379 . S
C1078 C1075 1.363 . S
C1078 N1076 1.356 . S
C1079 C1073 1.363 . S
C1079 C1074 1.379 . S
C1079 N1077 1.356 . S
N1080 C1072 1.356 . S
N1080 H1086 0.984 . S
N1080 H1087 0.984 . S
N1081 C1074 1.356 . S
N1081 H1084 0.984 . S
N1081 H1085 0.985 . S
H1082 N1077 0.984 . S
H1083 N1077 0.985 . S
H1084 N1081 0.984 . S
H1085 N1081 0.985 . S
H1086 N1080 0.984 . S
H1087 N1080 0.984 . S
H1088 N1076 0.984 . S
H1089 N1076 0.985 . S
C1090 C1091 1.363 . S
C1090 C1096 1.379 . S
C1090 N1098 1.356 . S
C1091 C1090 1.363 . S
C1091 C1097 1.363 . S
C1092 C1093 1.363 . S
C1092 C1097 1.379 . S
C1092 N1099 1.356 . S
C1093 C1092 1.363 . S
C1093 C1096 1.363 . S
N1094 C1096 1.356 . S
N1094 H1106 0.984 . S
N1094 H1107 0.985 . S
N1095 C1097 1.356 . S
N1095 H1100 0.984 . S
N1095 H1101 0.985 . S
C1096 C1090 1.379 . S
C1096 C1093 1.363 . S
C1096 N1094 1.356 . S
C1097 C1091 1.363 . S
C1097 C1092 1.379 . S
C1097 N1095 1.356 . S
N1098 C1090 1.356 . S
N1098 H1104 0.984 . S
N1098 H1105 0.984 . S
N1099 C1092 1.356 . S
N1099 H1102 0.984 . S
N1099 H1103 0.985 . S
H1100 N1095 0.984 . S
H1101 N1095 0.985 . S
H1102 N1099 0.984 . S
H1103 N1099 0.985 . S
H1104 N1098 0.984 . S
H1105 N1098 0.984 . S
H1106 N1094 0.984 . S
H1107 N1094 0.985 . S
C1108 C1109 1.363 . S
C1108 C1114 1.379 . S
C1108 N1116 1.356 . S
C1109 C1108 1.363 . S
C1109 C1115 1.363 . S
C1110 C1111 1.363 . S
C1110 C1115 1.379 . S
C1110 N1117 1.356 . S
C1111 C1110 1.363 . S
C1111 C1114 1.363 . S
N1112 C1114 1.356 . S
N1112 H1124 0.984 . S
N1112 H1125 0.985 . S
N1113 C1115 1.356 . S
N1113 H1118 0.984 . S
N1113 H1119 0.985 . S
C1114 C1108 1.379 . S
C1114 C1111 1.363 . S
C1114 N1112 1.356 . S
C1115 C1109 1.363 . S
C1115 C1110 1.379 . S
C1115 N1113 1.356 . S
N1116 C1108 1.356 . S
N1116 H1122 0.984 . S
N1116 H1123 0.984 . S
N1117 C1110 1.356 . S
N1117 H1120 0.984 . S
N1117 H1121 0.985 . S
H1118 N1113 0.984 . S
H1119 N1113 0.985 . S
H1120 N1117 0.984 . S
H1121 N1117 0.985 . S
H1122 N1116 0.984 . S
H1123 N1116 0.984 . S
H1124 N1112 0.984 . S
H1125 N1112 0.985 . S
C1126 C1127 1.363 . S
C1126 C1132 1.379 . S
C1126 N1134 1.356 . S
C1127 C1126 1.363 . S
C1127 C1133 1.363 . S
C1128 C1129 1.363 . S
C1128 C1133 1.379 . S
C1128 N1135 1.356 . S
C1129 C1128 1.363 . S
C1129 C1132 1.363 . S
N1130 C1132 1.356 . S
N1130 H1142 0.984 . S
N1130 H1143 0.985 . S
N1131 C1133 1.356 . S
N1131 H1136 0.984 . S
N1131 H1137 0.985 . S
C1132 C1126 1.379 . S
C1132 C1129 1.363 . S
C1132 N1130 1.356 . S
C1133 C1127 1.363 . S
C1133 C1128 1.379 . S
C1133 N1131 1.356 . S
N1134 C1126 1.356 . S
N1134 H1140 0.984 . S
N1134 H1141 0.984 . S
N1135 C1128 1.356 . S
N1135 H1138 0.984 . S
N1135 H1139 0.985 . S
H1136 N1131 0.984 . S
H1137 N1131 0.985 . S
H1138 N1135 0.984 . S
H1139 N1135 0.985 . S
H1140 N1134 0.984 . S
H1141 N1134 0.984 . S
H1142 N1130 0.984 . S
H1143 N1130 0.985 . S
C1144 C1145 1.363 . S
C1144 C1150 1.379 . S
C1144 N1152 1.356 . S
C1145 C1144 1.363 . S
C1145 C1151 1.363 . S
C1146 C1147 1.363 . S
C1146 C1151 1.379 . S
C1146 N1153 1.356 . S
C1147 C1146 1.363 . S
C1147 C1150 1.363 . S
N1148 C1150 1.356 . S
N1148 H1160 0.984 . S
N1148 H1161 0.985 . S
N1149 C1151 1.356 . S
N1149 H1154 0.984 . S
N1149 H1155 0.985 . S
C1150 C1144 1.379 . S
C1150 C1147 1.363 . S
C1150 N1148 1.356 . S
C1151 C1145 1.363 . S
C1151 C1146 1.379 . S
C1151 N1149 1.356 . S
N1152 C1144 1.356 . S
N1152 H1158 0.984 . S
N1152 H1159 0.984 . S
N1153 C1146 1.356 . S
N1153 H1156 0.984 . S
N1153 H1157 0.985 . S
H1154 N1149 0.984 . S
H1155 N1149 0.985 . S
H1156 N1153 0.984 . S
H1157 N1153 0.985 . S
H1158 N1152 0.984 . S
H1159 N1152 0.984 . S
H1160 N1148 0.984 . S
H1161 N1148 0.985 . S
C1162 C1163 1.363 . S
C1162 C1168 1.379 . S
C1162 N1170 1.356 . S
C1163 C1162 1.363 . S
C1163 C1169 1.363 . S
C1164 C1165 1.363 . S
C1164 C1169 1.379 . S
C1164 N1171 1.356 . S
C1165 C1164 1.363 . S
C1165 C1168 1.363 . S
N1166 C1168 1.356 . S
N1166 H1178 0.984 . S
N1166 H1179 0.985 . S
N1167 C1169 1.356 . S
N1167 H1172 0.984 . S
N1167 H1173 0.985 . S
C1168 C1162 1.379 . S
C1168 C1165 1.363 . S
C1168 N1166 1.356 . S
C1169 C1163 1.363 . S
C1169 C1164 1.379 . S
C1169 N1167 1.356 . S
N1170 C1162 1.356 . S
N1170 H1176 0.984 . S
N1170 H1177 0.984 . S
N1171 C1164 1.356 . S
N1171 H1174 0.984 . S
N1171 H1175 0.985 . S
H1172 N1167 0.984 . S
H1173 N1167 0.985 . S
H1174 N1171 0.984 . S
H1175 N1171 0.985 . S
H1176 N1170 0.984 . S
H1177 N1170 0.984 . S
H1178 N1166 0.984 . S
H1179 N1166 0.985 . S
C1180 C1181 1.363 . S
C1180 C1186 1.379 . S
C1180 N1188 1.356 . S
C1181 C1180 1.363 . S
C1181 C1187 1.363 . S
C1182 C1183 1.363 . S
C1182 C1187 1.379 . S
C1182 N1189 1.356 . S
C1183 C1182 1.363 . S
C1183 C1186 1.363 . S
N1184 C1186 1.356 . S
N1184 H1196 0.984 . S
N1184 H1197 0.985 . S
N1185 C1187 1.356 . S
N1185 H1190 0.984 . S
N1185 H1191 0.985 . S
C1186 C1180 1.379 . S
C1186 C1183 1.363 . S
C1186 N1184 1.356 . S
C1187 C1181 1.363 . S
C1187 C1182 1.379 . S
C1187 N1185 1.356 . S
N1188 C1180 1.356 . S
N1188 H1194 0.984 . S
N1188 H1195 0.984 . S
N1189 C1182 1.356 . S
N1189 H1192 0.984 . S
N1189 H1193 0.985 . S
H1190 N1185 0.984 . S
H1191 N1185 0.985 . S
H1192 N1189 0.984 . S
H1193 N1189 0.985 . S
H1194 N1188 0.984 . S
H1195 N1188 0.984 . S
H1196 N1184 0.984 . S
H1197 N1184 0.985 . S
C1198 C1199 1.363 . S
C1198 C1204 1.379 . S
C1198 N1206 1.356 . S
C1199 C1198 1.363 . S
C1199 C1205 1.363 . S
C1200 C1201 1.363 . S
C1200 C1205 1.379 . S
C1200 N1207 1.356 . S
C1201 C1200 1.363 . S
C1201 C1204 1.363 . S
N1202 C1204 1.356 . S
N1202 H1214 0.984 . S
N1202 H1215 0.985 . S
N1203 C1205 1.356 . S
N1203 H1208 0.984 . S
N1203 H1209 0.985 . S
C1204 C1198 1.379 . S
C1204 C1201 1.363 . S
C1204 N1202 1.356 . S
C1205 C1199 1.363 . S
C1205 C1200 1.379 . S
C1205 N1203 1.356 . S
N1206 C1198 1.356 . S
N1206 H1212 0.984 . S
N1206 H1213 0.984 . S
N1207 C1200 1.356 . S
N1207 H1210 0.984 . S
N1207 H1211 0.985 . S
H1208 N1203 0.984 . S
H1209 N1203 0.985 . S
H1210 N1207 0.984 . S
H1211 N1207 0.985 . S
H1212 N1206 0.984 . S
H1213 N1206 0.984 . S
H1214 N1202 0.984 . S
H1215 N1202 0.985 . S
C1216 C1217 1.363 . S
C1216 C1222 1.379 . S
C1216 N1224 1.356 . S
C1217 C1216 1.363 . S
C1217 C1223 1.363 . S
C1218 C1219 1.363 . S
C1218 C1223 1.379 . S
C1218 N1225 1.356 . S
C1219 C1218 1.363 . S
C1219 C1222 1.363 . S
N1220 C1222 1.356 . S
N1220 H1232 0.984 . S
N1220 H1233 0.985 . S
N1221 C1223 1.356 . S
N1221 H1226 0.984 . S
N1221 H1227 0.985 . S
C1222 C1216 1.379 . S
C1222 C1219 1.363 . S
C1222 N1220 1.356 . S
C1223 C1217 1.363 . S
C1223 C1218 1.379 . S
C1223 N1221 1.356 . S
N1224 C1216 1.356 . S
N1224 H1230 0.984 . S
N1224 H1231 0.984 . S
N1225 C1218 1.356 . S
N1225 H1228 0.984 . S
N1225 H1229 0.985 . S
H1226 N1221 0.984 . S
H1227 N1221 0.985 . S
H1228 N1225 0.984 . S
H1229 N1225 0.985 . S
H1230 N1224 0.984 . S
H1231 N1224 0.984 . S
H1232 N1220 0.984 . S
H1233 N1220 0.985 . S
C1234 C1235 1.363 . S
C1234 C1240 1.379 . S
C1234 N1242 1.356 . S
C1235 C1234 1.363 . S
C1235 C1241 1.363 . S
C1236 C1237 1.363 . S
C1236 C1241 1.379 . S
C1236 N1243 1.356 . S
C1237 C1236 1.363 . S
C1237 C1240 1.363 . S
N1238 C1240 1.356 . S
N1238 H1250 0.984 . S
N1238 H1251 0.985 . S
N1239 C1241 1.356 . S
N1239 H1244 0.984 . S
N1239 H1245 0.985 . S
C1240 C1234 1.379 . S
C1240 C1237 1.363 . S
C1240 N1238 1.356 . S
C1241 C1235 1.363 . S
C1241 C1236 1.379 . S
C1241 N1239 1.356 . S
N1242 C1234 1.356 . S
N1242 H1248 0.984 . S
N1242 H1249 0.984 . S
N1243 C1236 1.356 . S
N1243 H1246 0.984 . S
N1243 H1247 0.985 . S
H1244 N1239 0.984 . S
H1245 N1239 0.985 . S
H1246 N1243 0.984 . S
H1247 N1243 0.985 . S
H1248 N1242 0.984 . S
H1249 N1242 0.984 . S
H1250 N1238 0.984 . S
H1251 N1238 0.985 . S
C1252 C1253 1.363 . S
C1252 C1258 1.379 . S
C1252 N1260 1.356 . S
C1253 C1252 1.363 . S
C1253 C1259 1.363 . S
C1254 C1255 1.363 . S
C1254 C1259 1.379 . S
C1254 N1261 1.356 . S
C1255 C1254 1.363 . S
C1255 C1258 1.363 . S
N1256 C1258 1.356 . S
N1256 H1268 0.984 . S
N1256 H1269 0.985 . S
N1257 C1259 1.356 . S
N1257 H1262 0.984 . S
N1257 H1263 0.985 . S
C1258 C1252 1.379 . S
C1258 C1255 1.363 . S
C1258 N1256 1.356 . S
C1259 C1253 1.363 . S
C1259 C1254 1.379 . S
C1259 N1257 1.356 . S
N1260 C1252 1.356 . S
N1260 H1266 0.984 . S
N1260 H1267 0.984 . S
N1261 C1254 1.356 . S
N1261 H1264 0.984 . S
N1261 H1265 0.985 . S
H1262 N1257 0.984 . S
H1263 N1257 0.985 . S
H1264 N1261 0.984 . S
H1265 N1261 0.985 . S
H1266 N1260 0.984 . S
H1267 N1260 0.984 . S
H1268 N1256 0.984 . S
H1269 N1256 0.985 . S
C1270 C1271 1.363 . S
C1270 C1276 1.379 . S
C1270 N1278 1.356 . S
C1271 C1270 1.363 . S
C1271 C1277 1.363 . S
C1272 C1273 1.363 . S
C1272 C1277 1.379 . S
C1272 N1279 1.356 . S
C1273 C1272 1.363 . S
C1273 C1276 1.363 . S
N1274 C1276 1.356 . S
N1274 H1286 0.984 . S
N1274 H1287 0.985 . S
N1275 C1277 1.356 . S
N1275 H1280 0.984 . S
N1275 H1281 0.985 . S
C1276 C1270 1.379 . S
C1276 C1273 1.363 . S
C1276 N1274 1.356 . S
C1277 C1271 1.363 . S
C1277 C1272 1.379 . S
C1277 N1275 1.356 . S
N1278 C1270 1.356 . S
N1278 H1284 0.984 . S
N1278 H1285 0.984 . S
N1279 C1272 1.356 . S
N1279 H1282 0.984 . S
N1279 H1283 0.985 . S
H1280 N1275 0.984 . S
H1281 N1275 0.985 . S
H1282 N1279 0.984 . S
H1283 N1279 0.985 . S
H1284 N1278 0.984 . S
H1285 N1278 0.984 . S
H1286 N1274 0.984 . S
H1287 N1274 0.985 . S
C1288 C1289 1.363 . S
C1288 C1294 1.379 . S
C1288 N1296 1.356 . S
C1289 C1288 1.363 . S
C1289 C1295 1.363 . S
C1290 C1291 1.363 . S
C1290 C1295 1.379 . S
C1290 N1297 1.356 . S
C1291 C1290 1.363 . S
C1291 C1294 1.363 . S
N1292 C1294 1.356 . S
N1292 H1304 0.984 . S
N1292 H1305 0.985 . S
N1293 C1295 1.356 . S
N1293 H1298 0.984 . S
N1293 H1299 0.985 . S
C1294 C1288 1.379 . S
C1294 C1291 1.363 . S
C1294 N1292 1.356 . S
C1295 C1289 1.363 . S
C1295 C1290 1.379 . S
C1295 N1293 1.356 . S
N1296 C1288 1.356 . S
N1296 H1302 0.984 . S
N1296 H1303 0.984 . S
N1297 C1290 1.356 . S
N1297 H1300 0.984 . S
N1297 H1301 0.985 . S
H1298 N1293 0.984 . S
H1299 N1293 0.985 . S
H1300 N1297 0.984 . S
H1301 N1297 0.985 . S
H1302 N1296 0.984 . S
H1303 N1296 0.984 . S
H1304 N1292 0.984 . S
H1305 N1292 0.985 . S
C1306 C1307 1.363 . S
C1306 C1312 1.379 . S
C1306 N1314 1.356 . S
C1307 C1306 1.363 . S
C1307 C1313 1.363 . S
C1308 C1309 1.363 . S
C1308 C1313 1.379 . S
C1308 N1315 1.356 . S
C1309 C1308 1.363 . S
C1309 C1312 1.363 . S
N1310 C1312 1.356 . S
N1310 H1322 0.984 . S
N1310 H1323 0.985 . S
N1311 C1313 1.356 . S
N1311 H1316 0.984 . S
N1311 H1317 0.985 . S
C1312 C1306 1.379 . S
C1312 C1309 1.363 . S
C1312 N1310 1.356 . S
C1313 C1307 1.363 . S
C1313 C1308 1.379 . S
C1313 N1311 1.356 . S
N1314 C1306 1.356 . S
N1314 H1320 0.984 . S
N1314 H1321 0.984 . S
N1315 C1308 1.356 . S
N1315 H1318 0.984 . S
N1315 H1319 0.985 . S
H1316 N1311 0.984 . S
H1317 N1311 0.985 . S
H1318 N1315 0.984 . S
H1319 N1315 0.985 . S
H1320 N1314 0.984 . S
H1321 N1314 0.984 . S
H1322 N1310 0.984 . S
H1323 N1310 0.985 . S
C1324 C1325 1.363 . S
C1324 C1330 1.379 . S
C1324 N1332 1.356 . S
C1325 C1324 1.363 . S
C1325 C1331 1.363 . S
C1326 C1327 1.363 . S
C1326 C1331 1.379 . S
C1326 N1333 1.356 . S
C1327 C1326 1.363 . S
C1327 C1330 1.363 . S
N1328 C1330 1.356 . S
N1328 H1340 0.984 . S
N1328 H1341 0.985 . S
N1329 C1331 1.356 . S
N1329 H1334 0.984 . S
N1329 H1335 0.985 . S
C1330 C1324 1.379 . S
C1330 C1327 1.363 . S
C1330 N1328 1.356 . S
C1331 C1325 1.363 . S
C1331 C1326 1.379 . S
C1331 N1329 1.356 . S
N1332 C1324 1.356 . S
N1332 H1338 0.984 . S
N1332 H1339 0.984 . S
N1333 C1326 1.356 . S
N1333 H1336 0.984 . S
N1333 H1337 0.985 . S
H1334 N1329 0.984 . S
H1335 N1329 0.985 . S
H1336 N1333 0.984 . S
H1337 N1333 0.985 . S
H1338 N1332 0.984 . S
H1339 N1332 0.984 . S
H1340 N1328 0.984 . S
H1341 N1328 0.985 . S
C1342 C1343 1.363 . S
C1342 C1348 1.379 . S
C1342 N1350 1.356 . S
C1343 C1342 1.363 . S
C1343 C1349 1.363 . S
C1344 C1345 1.363 . S
C1344 C1349 1.379 . S
C1344 N1351 1.356 . S
C1345 C1344 1.363 . S
C1345 C1348 1.363 . S
N1346 C1348 1.356 . S
N1346 H1358 0.984 . S
N1346 H1359 0.985 . S
N1347 C1349 1.356 . S
N1347 H1352 0.984 . S
N1347 H1353 0.985 . S
C1348 C1342 1.379 . S
C1348 C1345 1.363 . S
C1348 N1346 1.356 . S
C1349 C1343 1.363 . S
C1349 C1344 1.379 . S
C1349 N1347 1.356 . S
N1350 C1342 1.356 . S
N1350 H1356 0.984 . S
N1350 H1357 0.984 . S
N1351 C1344 1.356 . S
N1351 H1354 0.984 . S
N1351 H1355 0.985 . S
H1352 N1347 0.984 . S
H1353 N1347 0.985 . S
H1354 N1351 0.984 . S
H1355 N1351 0.985 . S
H1356 N1350 0.984 . S
H1357 N1350 0.984 . S
H1358 N1346 0.984 . S
H1359 N1346 0.985 . S
C1360 C1361 1.363 . S
C1360 C1366 1.379 . S
C1360 N1368 1.356 . S
C1361 C1360 1.363 . S
C1361 C1367 1.363 . S
C1362 C1363 1.363 . S
C1362 C1367 1.379 . S
C1362 N1369 1.356 . S
C1363 C1362 1.363 . S
C1363 C1366 1.363 . S
N1364 C1366 1.356 . S
N1364 H1376 0.984 . S
N1364 H1377 0.985 . S
N1365 C1367 1.356 . S
N1365 H1370 0.984 . S
N1365 H1371 0.985 . S
C1366 C1360 1.379 . S
C1366 C1363 1.363 . S
C1366 N1364 1.356 . S
C1367 C1361 1.363 . S
C1367 C1362 1.379 . S
C1367 N1365 1.356 . S
N1368 C1360 1.356 . S
N1368 H1374 0.984 . S
N1368 H1375 0.984 . S
N1369 C1362 1.356 . S
N1369 H1372 0.984 . S
N1369 H1373 0.985 . S
H1370 N1365 0.984 . S
H1371 N1365 0.985 . S
H1372 N1369 0.984 . S
H1373 N1369 0.985 . S
H1374 N1368 0.984 . S
H1375 N1368 0.984 . S
H1376 N1364 0.984 . S
H1377 N1364 0.985 . S
C1378 C1379 1.363 . S
C1378 C1384 1.379 . S
C1378 N1386 1.356 . S
C1379 C1378 1.363 . S
C1379 C1385 1.363 . S
C1380 C1381 1.363 . S
C1380 C1385 1.379 . S
C1380 N1387 1.356 . S
C1381 C1380 1.363 . S
C1381 C1384 1.363 . S
N1382 C1384 1.356 . S
N1382 H1394 0.984 . S
N1382 H1395 0.985 . S
N1383 C1385 1.356 . S
N1383 H1388 0.984 . S
N1383 H1389 0.985 . S
C1384 C1378 1.379 . S
C1384 C1381 1.363 . S
C1384 N1382 1.356 . S
C1385 C1379 1.363 . S
C1385 C1380 1.379 . S
C1385 N1383 1.356 . S
N1386 C1378 1.356 . S
N1386 H1392 0.984 . S
N1386 H1393 0.984 . S
N1387 C1380 1.356 . S
N1387 H1390 0.984 1_556 S
N1387 H1391 0.985 . S
H1388 N1383 0.984 . S
H1389 N1383 0.985 . S
H1390 N1387 0.984 1_554 S
H1391 N1387 0.985 . S
H1392 N1386 0.984 . S
H1393 N1386 0.984 . S
H1394 N1382 0.984 . S
H1395 N1382 0.985 . S
C1396 C1397 1.363 . S
C1396 C1402 1.379 . S
C1396 N1404 1.356 . S
C1397 C1396 1.363 . S
C1397 C1403 1.363 . S
C1398 C1399 1.363 . S
C1398 C1403 1.379 . S
C1398 N1405 1.356 . S
C1399 C1398 1.363 . S
C1399 C1402 1.363 . S
N1400 C1402 1.356 . S
N1400 H1412 0.984 . S
N1400 H1413 0.985 . S
N1401 C1403 1.356 . S
N1401 H1406 0.984 . S
N1401 H1407 0.985 . S
C1402 C1396 1.379 . S
C1402 C1399 1.363 . S
C1402 N1400 1.356 . S
C1403 C1397 1.363 . S
C1403 C1398 1.379 . S
C1403 N1401 1.356 . S
N1404 C1396 1.356 . S
N1404 H1410 0.984 . S
N1404 H1411 0.984 . S
N1405 C1398 1.356 . S
N1405 H1408 0.994 . S
N1405 H1409 0.985 . S
H1406 N1401 0.984 . S
H1407 N1401 0.985 . S
H1408 N1405 0.994 . S
H1409 N1405 0.985 . S
H1410 N1404 0.984 . S
H1411 N1404 0.984 . S
H1412 N1400 0.984 . S
H1413 N1400 0.985 . S
C1414 C1415 1.363 . S
C1414 C1420 1.379 . S
C1414 N1422 1.356 . S
C1415 C1414 1.363 . S
C1415 C1421 1.363 . S
C1416 C1417 1.363 . S
C1416 C1421 1.379 . S
C1416 N1423 1.356 . S
C1417 C1416 1.363 . S
C1417 C1420 1.363 . S
N1418 C1420 1.356 . S
N1418 H1430 0.984 . S
N1418 H1431 0.985 . S
N1419 C1421 1.356 . S
N1419 H1424 0.984 . S
N1419 H1425 0.985 . S
C1420 C1414 1.379 . S
C1420 C1417 1.363 . S
C1420 N1418 1.356 . S
C1421 C1415 1.363 . S
C1421 C1416 1.379 . S
C1421 N1419 1.356 . S
N1422 C1414 1.356 . S
N1422 H1428 0.984 . S
N1422 H1429 0.984 . S
N1423 C1416 1.356 . S
N1423 H1426 0.984 . S
N1423 H1427 0.985 . S
H1424 N1419 0.984 . S
H1425 N1419 0.985 . S
H1426 N1423 0.984 . S
H1427 N1423 0.985 . S
H1428 N1422 0.984 . S
H1429 N1422 0.984 . S
H1430 N1418 0.984 . S
H1431 N1418 0.985 . S
C1432 C1433 1.363 . S
C1432 C1438 1.379 . S
C1432 N1440 1.356 . S
C1433 C1432 1.363 . S
C1433 C1439 1.363 . S
C1434 C1435 1.363 . S
C1434 C1439 1.379 . S
C1434 N1441 1.356 . S
C1435 C1434 1.363 . S
C1435 C1438 1.363 . S
N1436 C1438 1.356 . S
N1436 H1448 0.984 . S
N1436 H1449 0.985 1_554 S
N1437 C1439 1.356 . S
N1437 H1442 0.984 . S
N1437 H1443 0.985 . S
C1438 C1432 1.379 . S
C1438 C1435 1.363 . S
C1438 N1436 1.356 . S
C1439 C1433 1.363 . S
C1439 C1434 1.379 . S
C1439 N1437 1.356 . S
N1440 C1432 1.356 . S
N1440 H1446 0.984 . S
N1440 H1447 0.984 . S
N1441 C1434 1.356 . S
N1441 H1444 0.984 . S
N1441 H1445 0.985 . S
H1442 N1437 0.984 . S
H1443 N1437 0.985 . S
H1444 N1441 0.984 . S
H1445 N1441 0.985 . S
H1446 N1440 0.984 . S
H1447 N1440 0.984 . S
H1448 N1436 0.984 . S
H1449 N1436 0.985 1_556 S
C1450 C1451 1.363 . S
C1450 C1456 1.379 . S
C1450 N1458 1.356 . S
C1451 C1450 1.363 . S
C1451 C1457 1.363 . S
C1452 C1453 1.363 . S
C1452 C1457 1.379 . S
C1452 N1459 1.356 . S
C1453 C1452 1.363 . S
C1453 C1456 1.363 . S
N1454 C1456 1.356 . S
N1454 H1466 0.984 . S
N1454 H1467 0.985 . S
N1455 C1457 1.356 . S
N1455 H1460 0.984 1_556 S
N1455 H1461 0.985 . S
C1456 C1450 1.379 . S
C1456 C1453 1.363 . S
C1456 N1454 1.356 . S
C1457 C1451 1.363 . S
C1457 C1452 1.379 . S
C1457 N1455 1.356 . S
N1458 C1450 1.356 . S
N1458 H1464 0.984 . S
N1458 H1465 0.984 . S
N1459 C1452 1.356 . S
N1459 H1462 0.984 . S
N1459 H1463 0.985 . S
H1460 N1455 0.984 1_554 S
H1461 N1455 0.985 . S
H1462 N1459 0.984 . S
H1463 N1459 0.985 . S
H1464 N1458 0.984 . S
H1465 N1458 0.984 . S
H1466 N1454 0.984 . S
H1467 N1454 0.985 . S
C1468 C1469 1.363 . S
C1468 C1474 1.379 . S
C1468 N1476 1.356 . S
C1469 C1468 1.363 . S
C1469 C1475 1.363 . S
C1470 C1471 1.363 . S
C1470 C1475 1.379 . S
C1470 N1477 1.356 . S
C1471 C1470 1.363 . S
C1471 C1474 1.363 . S
N1472 C1474 1.356 . S
N1472 H1484 0.984 . S
N1472 H1485 0.985 . S
N1473 C1475 1.356 . S
N1473 H1478 0.984 1_554 S
N1473 H1479 0.985 . S
C1474 C1468 1.379 . S
C1474 C1471 1.363 . S
C1474 N1472 1.356 . S
C1475 C1469 1.363 . S
C1475 C1470 1.379 . S
C1475 N1473 1.356 . S
N1476 C1468 1.356 . S
N1476 H1482 0.984 . S
N1476 H1483 0.984 . S
N1477 C1470 1.356 . S
N1477 H1480 0.984 . S
N1477 H1481 0.985 . S
H1478 N1473 0.984 1_556 S
H1479 N1473 0.985 . S
H1480 N1477 0.984 . S
H1481 N1477 0.985 . S
H1482 N1476 0.984 . S
H1483 N1476 0.984 . S
H1484 N1472 0.984 . S
H1485 N1472 0.985 . S
C1486 C1487 1.363 . S
C1486 C1492 1.379 . S
C1486 N1494 1.356 . S
C1487 C1486 1.363 . S
C1487 C1493 1.363 . S
C1488 C1489 1.363 . S
C1488 C1493 1.379 . S
C1488 N1495 1.356 . S
C1489 C1488 1.363 . S
C1489 C1492 1.363 . S
N1490 C1492 1.356 . S
N1490 H1502 0.984 . S
N1490 H1503 0.985 1_556 S
N1491 C1493 1.356 . S
N1491 H1496 0.984 . S
N1491 H1497 0.985 . S
C1492 C1486 1.379 . S
C1492 C1489 1.363 . S
C1492 N1490 1.356 . S
C1493 C1487 1.363 . S
C1493 C1488 1.379 . S
C1493 N1491 1.356 . S
N1494 C1486 1.356 . S
N1494 H1500 0.984 . S
N1494 H1501 0.984 . S
N1495 C1488 1.356 . S
N1495 H1498 0.984 . S
N1495 H1499 0.985 . S
H1496 N1491 0.984 . S
H1497 N1491 0.985 . S
H1498 N1495 0.984 . S
H1499 N1495 0.985 . S
H1500 N1494 0.984 . S
H1501 N1494 0.984 . S
H1502 N1490 0.984 . S
H1503 N1490 0.985 1_554 S
C641 C459 1.777 . S
C643 C18 1.734 1_565 S
C659 C330 1.777 . S
C661 C49 1.734 1_655 S
C677 C98 1.734 1_545 S
C679 C379 1.777 . S
C695 C129 1.734 1_455 S
C697 C410 1.777 . S
C713 C178 1.734 . S
C715 C219 1.777 1_554 S
C731 C250 1.777 1_556 S
C733 C209 1.734 . S
C749 C258 1.734 . S
C751 C299 1.777 1_554 S
C767 C170 1.777 1_556 S
C769 C289 1.734 . S
C785 C139 1.777 . S
C787 C338 1.734 . S
C803 C369 1.734 . S
C805 C10 1.777 . S
C821 C59 1.777 . S
C823 C418 1.734 . S
C839 C90 1.777 . S
C841 C449 1.734 . S
C857 C498 1.734 1_545 S
C859 C539 1.777 . S
C875 C570 1.777 . S
C877 C529 1.734 1_455 S
C893 C619 1.777 . S
C895 C578 1.734 1_565 S
C911 C609 1.734 1_655 S
C913 C490 1.777 . S
C929 C9 1.240 . S
C931 C169 1.240 . S
C947 C218 1.240 . S
C949 C58 1.240 . S
C965 C89 1.240 . S
C967 C249 1.240 . S
C983 C138 1.240 . S
C985 C298 1.240 . S
C1001 C329 1.240 . S
C1003 C489 1.240 . S
C1019 C538 1.240 . S
C1021 C378 1.240 . S
C1037 C409 1.240 . S
C1039 C569 1.240 . S
C1055 C458 1.240 . S
C1057 C618 1.240 . S
C1073 C579 2.515 . S
C1075 C19 2.515 1_556 S
C1091 C50 2.515 1_554 S
C1093 C610 2.515 . S
C1109 C99 2.515 1_556 S
C1111 C499 2.515 . S
C1127 C130 2.515 1_554 S
C1129 C530 2.515 . S
C1145 C179 2.515 . S
C1147 C419 2.515 . S
C1163 C210 2.515 . S
C1165 C450 2.515 . S
C1181 C259 2.515 . S
C1183 C339 2.515 . S
C1199 C370 2.515 . S
C1201 C290 2.515 . S
C1217 C6 1.206 . S
C1219 C15 1.206 . S
C1235 C55 1.206 . S
C1237 C46 1.206 . S
C1253 C86 1.206 . S
C1255 C95 1.206 . S
C1271 C126 1.206 . S
C1273 C135 1.206 . S
C1289 C175 1.206 . S
C1291 C166 1.206 . S
C1307 C215 1.206 . S
C1309 C206 1.206 . S
C1325 C246 1.206 . S
C1327 C255 1.206 . S
C1343 C286 1.206 . S
C1345 C295 1.206 . S
C1361 C326 1.206 . S
C1363 C335 1.206 . S
C1379 C366 1.206 . S
C1381 C375 1.206 . S
C1397 C415 1.206 . S
C1399 C406 1.206 . S
C1415 C455 1.206 . S
C1417 C446 1.206 . S
C1433 C486 1.206 . S
C1435 C495 1.206 . S
C1451 C526 1.206 . S
C1453 C535 1.206 . S
C1469 C575 1.206 . S
C1471 C566 1.206 . S
C1487 C615 1.206 . S
C1489 C606 1.206 . S
