# Generated by pormake.
# Topology umm, (4)-cn, num edge types: 1
# Building blocks:
#     Node 0, Type 0, BuildingBlock: MUDLON_clean_sbu_0, # of connection points: 4
#     Node 1, Type 0, BuildingBlock: MUDLON_clean_sbu_0, # of connection points: 4
#     Node 2, Type 0, BuildingBlock: MUDLON_clean_sbu_0, # of connection points: 4
#     Node 3, Type 0, BuildingBlock: MUDLON_clean_sbu_0, # of connection points: 4
#     Node 4, Type 0, BuildingBlock: MUDLON_clean_sbu_0, # of connection points: 4
#     Node 5, Type 0, BuildingBlock: MUDLON_clean_sbu_0, # of connection points: 4
#     Node 6, Type 0, BuildingBlock: MUDLON_clean_sbu_0, # of connection points: 4
#     Node 7, Type 0, BuildingBlock: MUDLON_clean_sbu_0, # of connection points: 4
#     Node 8, Type 0, BuildingBlock: MUDLON_clean_sbu_0, # of connection points: 4
#     Node 9, Type 0, BuildingBlock: MUDLON_clean_sbu_0, # of connection points: 4
#     Node 10, Type 0, BuildingBlock: MUDLON_clean_sbu_0, # of connection points: 4
#     Node 11, Type 0, BuildingBlock: MUDLON_clean_sbu_0, # of connection points: 4
#     Edge 12, Type (0, 0), BuildingBlock: AJUNOK_clean_linker_0, # of connection points: 2
#     Edge 13, Type (0, 0), BuildingBlock: AJUNOK_clean_linker_0, # of connection points: 2
#     Edge 14, Type (0, 0), BuildingBlock: AJUNOK_clean_linker_0, # of connection points: 2
#     Edge 15, Type (0, 0), BuildingBlock: AJUNOK_clean_linker_0, # of connection points: 2
#     Edge 16, Type (0, 0), BuildingBlock: AJUNOK_clean_linker_0, # of connection points: 2
#     Edge 17, Type (0, 0), BuildingBlock: AJUNOK_clean_linker_0, # of connection points: 2
#     Edge 18, Type (0, 0), BuildingBlock: AJUNOK_clean_linker_0, # of connection points: 2
#     Edge 19, Type (0, 0), BuildingBlock: AJUNOK_clean_linker_0, # of connection points: 2
#     Edge 20, Type (0, 0), BuildingBlock: AJUNOK_clean_linker_0, # of connection points: 2
#     Edge 21, Type (0, 0), BuildingBlock: AJUNOK_clean_linker_0, # of connection points: 2
#     Edge 22, Type (0, 0), BuildingBlock: AJUNOK_clean_linker_0, # of connection points: 2
#     Edge 23, Type (0, 0), BuildingBlock: AJUNOK_clean_linker_0, # of connection points: 2
#     Edge 24, Type (0, 0), BuildingBlock: AJUNOK_clean_linker_0, # of connection points: 2
#     Edge 25, Type (0, 0), BuildingBlock: AJUNOK_clean_linker_0, # of connection points: 2
#     Edge 26, Type (0, 0), BuildingBlock: AJUNOK_clean_linker_0, # of connection points: 2
#     Edge 27, Type (0, 0), BuildingBlock: AJUNOK_clean_linker_0, # of connection points: 2
#     Edge 28, Type (0, 0), BuildingBlock: AJUNOK_clean_linker_0, # of connection points: 2
#     Edge 29, Type (0, 0), BuildingBlock: AJUNOK_clean_linker_0, # of connection points: 2
#     Edge 30, Type (0, 0), BuildingBlock: AJUNOK_clean_linker_0, # of connection points: 2
#     Edge 31, Type (0, 0), BuildingBlock: AJUNOK_clean_linker_0, # of connection points: 2
#     Edge 32, Type (0, 0), BuildingBlock: AJUNOK_clean_linker_0, # of connection points: 2
#     Edge 33, Type (0, 0), BuildingBlock: AJUNOK_clean_linker_0, # of connection points: 2
#     Edge 34, Type (0, 0), BuildingBlock: AJUNOK_clean_linker_0, # of connection points: 2
#     Edge 35, Type (0, 0), BuildingBlock: AJUNOK_clean_linker_0, # of connection points: 2
# Relax obj value: 0.064
# Max RMSD: 0.171
# Mean RMSD: 0.171
data_MOF--net-umm--node1-MUDLON_clean_sbu_0--edge1-AJUNOK_clean_linker_0
_symmetry_space_group_name_H-M    P1
_symmetry_Int_Tables_number       1
_symmetry_cell_setting            triclinic
loop_
_symmetry_equiv_pos_as_xyz
'x, y, z'
_cell_length_a     43.750591
_cell_length_b     43.683101
_cell_length_c     21.999495
_cell_angle_alpha  89.956162
_cell_angle_beta   90.097314
_cell_angle_gamma 120.06311
loop_
_atom_site_label
_atom_site_type_symbol
_atom_site_fract_x
_atom_site_fract_y
_atom_site_fract_z
_atom_type_partial_charge
Mg0 Mg 0.40954 0.55556 0.0946 0.0
C1 C 0.46872 0.54301 0.09867 0.0
O2 O 0.4827 0.57756 0.09795 0.0
C3 C 0.34143 0.55191 0.09321 0.0
O4 O 0.36396 0.58321 0.11528 0.0
C5 C 0.40923 0.57411 0.22533 0.0
O6 O 0.38054 0.54286 0.22241 0.0
O7 O 0.42671 0.58749 0.17684 0.0
O8 O 0.43515 0.52389 0.09773 0.0
O9 O 0.42935 0.58558 1.01158 0.0
C10 C 0.41239 0.56894 0.96429 0.0
O11 O 0.38524 0.53689 0.97061 0.0
O12 O 0.35237 0.53038 0.0829 0.0
Mg13 Mg 0.87484 0.40226 0.43486 0.0
C14 C 0.94401 0.46417 0.44235 0.0
O15 O 0.92088 0.47497 0.44343 0.0
C16 C 0.81131 0.33381 0.43061 0.0
O17 O 0.80224 0.35616 0.45222 0.0
C18 C 0.85473 0.39981 0.56524 0.0
O19 O 0.85949 0.37245 0.56191 0.0
O20 O 0.85804 0.41733 0.51706 0.0
O21 O 0.93235 0.43098 0.43897 0.0
O22 O 0.86399 0.42166 0.35197 0.0
C23 C 0.86591 0.40589 0.30476 0.0
O24 O 0.87342 0.3805 0.31146 0.0
O25 O 0.84394 0.34499 0.42151 0.0
Mg26 Mg 0.48049 0.86303 0.76079 0.0
C27 C 0.48753 0.93444 0.76264 0.0
O28 O 0.45315 0.91345 0.75946 0.0
C29 C 0.51115 0.81462 0.74566 0.0
O30 O 0.49376 0.80165 0.79661 0.0
C31 C 0.43772 0.84446 0.88163 0.0
O32 O 0.41597 0.85064 0.84977 0.0
O33 O 0.46417 0.84568 0.85509 0.0
O34 O 0.50715 0.92057 0.76373 0.0
O35 O 0.44164 0.85031 0.68839 0.0
C36 C 0.43899 0.82959 0.64533 0.0
O37 O 0.45234 0.80884 0.6532 0.0
O38 O 0.51337 0.84274 0.72439 0.0
Mg39 Mg 0.62551 0.47705 0.09857 0.0
C40 C 0.56504 0.48668 0.10196 0.0
O41 O 0.55305 0.45245 0.10222 0.0
C42 C 0.69156 0.47829 0.09106 0.0
O43 O 0.66778 0.44679 0.11063 0.0
C44 C 0.62756 0.45922 0.22892 0.0
O45 O 0.65577 0.49076 0.22505 0.0
O46 O 0.60955 0.44536 0.18101 0.0
O47 O 0.59841 0.50737 0.10098 0.0
O48 O 0.60575 0.4468 1.01584 0.0
C49 C 0.62199 0.46433 0.96878 0.0
O50 O 0.64791 0.49702 0.9756 0.0
O51 O 0.68249 0.50166 0.08548 0.0
Mg52 Mg 0.16601 0.62962 0.43617 0.0
C53 C 0.09573 0.56567 0.44132 0.0
O54 O 0.11757 0.55331 0.43775 0.0
C55 C 0.22121 0.70724 0.43248 0.0
O56 O 0.23531 0.69669 0.4744 0.0
C57 C 0.18157 0.63156 0.56858 0.0
O58 O 0.16649 0.65107 0.56603 0.0
O59 O 0.18663 0.61967 0.51918 0.0
O60 O 0.10867 0.5991 0.44224 0.0
O61 O 0.17719 0.60906 0.35523 0.0
C62 C 0.17001 0.62036 0.30706 0.0
O63 O 0.15771 0.64218 0.31234 0.0
O64 O 0.19022 0.68566 0.41365 0.0
Mg65 Mg 0.55308 0.15747 0.76669 0.0
C66 C 0.54307 0.08719 0.77032 0.0
O67 O 0.57725 0.10946 0.77211 0.0
C68 C 0.55076 0.22206 0.75947 0.0
O69 O 0.58191 0.23027 0.78146 0.0
C70 C 0.57097 0.17376 0.89936 0.0
O71 O 0.53839 0.1678 0.89881 0.0
O72 O 0.58494 0.17283 0.84925 0.0
O73 O 0.52248 0.09994 0.7682 0.0
O74 O 0.58433 0.16823 0.68514 0.0
C75 C 0.56795 0.16654 0.63629 0.0
O76 O 0.5352 0.15986 0.64011 0.0
O77 O 0.52818 0.18948 0.75235 0.0
Mg78 Mg 0.48591 0.62744 0.59481 0.0
C79 C 0.49199 0.56304 0.59004 0.0
O80 O 0.45774 0.55041 0.59319 0.0
C81 C 0.51125 0.70613 0.59702 0.0
O82 O 0.48851 0.69705 0.55211 0.0
C83 C 0.47309 0.629 0.46159 0.0
O84 O 0.50776 0.64753 0.46393 0.0
O85 O 0.45607 0.61807 0.51113 0.0
O86 O 0.51232 0.5965 0.58962 0.0
O87 O 0.45287 0.60731 0.67446 0.0
C88 C 0.47055 0.61803 0.72353 0.0
O89 O 0.50497 0.63866 0.71992 0.0
O90 O 0.51837 0.6833 0.61812 0.0
Mg91 Mg 0.86976 0.47444 0.93395 0.0
C92 C 0.94177 0.48836 0.9249 0.0
O93 O 0.92157 0.45376 0.92487 0.0
C94 C 0.80711 0.47285 0.97496 0.0
O95 O 0.80072 0.44012 0.97176 0.0
C96 C 0.85522 0.45954 0.80182 0.0
O97 O 0.86611 0.49355 0.8043 0.0
O98 O 0.85239 0.44322 0.85124 0.0
O99 O 0.92691 0.50707 0.92759 0.0
O100 O 0.86317 0.44337 1.0146 0.0
C101 C 0.86879 0.46113 0.06327 0.0
O102 O 0.87815 0.49471 0.05891 0.0
O103 O 0.83672 0.4975 0.95567 0.0
Mg104 Mg 0.40685 0.8636 0.26846 0.0
C105 C 0.47265 0.93512 0.27413 0.0
O106 O 0.48524 0.9145 0.28958 0.0
C107 C 0.32859 0.81413 0.28069 0.0
O108 O 0.33533 0.79846 0.23603 0.0
C109 C 0.43488 0.8529 0.14639 0.0
O110 O 0.4655 0.87417 0.17194 0.0
O111 O 0.40686 0.84226 0.1777 0.0
O112 O 0.43971 0.92106 0.2632 0.0
O113 O 0.42374 0.84747 0.35012 0.0
C114 C 0.41824 0.86196 0.39597 0.0
O115 O 0.40758 0.88475 0.38551 0.0
O116 O 0.35261 0.84472 0.29739 0.0
Mg117 Mg 0.55269 0.40222 0.59796 0.0
C118 C 0.54376 0.46281 0.58661 0.0
O119 O 0.57776 0.47403 0.58402 0.0
C120 C 0.55375 0.34088 0.63749 0.0
O121 O 0.58643 0.36678 0.63052 0.0
C122 C 0.5672 0.40156 0.46592 0.0
O123 O 0.53306 0.37916 0.4684 0.0
O124 O 0.58368 0.41488 0.51529 0.0
O125 O 0.52266 0.42961 0.59187 0.0
O126 O 0.58443 0.42593 0.67827 0.0
C127 C 0.5665 0.41412 0.72679 0.0
O128 O 0.53265 0.39092 0.72212 0.0
O129 O 0.5288 0.34607 0.62088 0.0
Mg130 Mg 0.16511 0.55676 0.93443 0.0
C131 C 0.09474 0.54653 0.92537 0.0
O132 O 0.11667 0.58084 0.92598 0.0
C133 C 0.22728 0.55619 0.97155 0.0
O134 O 0.2351 0.5893 0.96646 0.0
C135 C 0.1893 0.57685 0.80573 0.0
O136 O 0.18758 0.546 0.8093 0.0
O137 O 0.18308 0.58938 0.85324 0.0
O138 O 0.10777 0.52616 0.92766 0.0
O139 O 0.17281 0.58626 1.0175 0.0
C140 C 0.16804 0.56741 0.06454 0.0
O141 O 0.15843 0.53392 0.05734 0.0
O142 O 0.1969 0.53202 0.95409 0.0
Mg143 Mg 0.63058 0.15805 0.2675 0.0
C144 C 0.57051 0.08757 0.25841 0.0
O145 O 0.55854 0.1097 0.25388 0.0
C146 C 0.69364 0.22023 0.30598 0.0
O147 O 0.66891 0.22865 0.29934 0.0
C148 C 0.63204 0.17324 0.13485 0.0
O149 O 0.65576 0.16329 0.13883 0.0
O150 O 0.6174 0.17522 0.18346 0.0
O151 O 0.60375 0.10049 0.26409 0.0
O152 O 0.60776 0.16694 0.34823 0.0
C153 C 0.62047 0.16145 0.39639 0.0
O154 O 0.64342 0.15059 0.39103 0.0
O155 O 0.68691 0.18953 0.28948 0.0
C156 C 0.45928 0.6172 0.29075 0.0
C157 C 0.42349 0.59102 0.28523 0.0
C158 C 0.47464 0.63024 0.3478 0.0
C159 C 0.45486 0.61785 0.40176 0.0
H160 H 0.47602 0.62675 0.25095 0.0
H161 H 0.5026 0.64949 0.3495 0.0
S162 S 0.35892 0.55261 0.41158 0.0
N163 N 0.36783 0.55548 0.33824 0.0
N164 N 0.39661 0.58005 0.44533 0.0
C165 C 0.41853 0.59311 0.39663 0.0
C166 C 0.40291 0.57969 0.33846 0.0
C167 C 0.85597 0.44721 0.63097 0.0
C168 C 0.85017 0.41262 0.62524 0.0
C169 C 0.8562 0.46157 0.68805 0.0
C170 C 0.8505 0.44195 0.74187 0.0
H171 H 0.86171 0.46391 0.59131 0.0
H172 H 0.86196 0.48874 0.68988 0.0
S173 S 0.8297 0.34853 0.75117 0.0
N174 N 0.83541 0.35792 0.67794 0.0
N175 N 0.83579 0.38486 0.78509 0.0
C176 C 0.84278 0.40664 0.73655 0.0
C177 C 0.84266 0.39203 0.67833 0.0
C178 C 0.46467 0.84986 0.98492 0.0
C179 C 0.43471 0.84161 0.9493 0.0
C180 C 0.46401 0.85208 0.0486 0.0
C181 C 0.43322 0.8456 0.07975 0.0
H182 H 0.4894 0.85617 0.96339 0.0
H183 H 0.48819 0.85981 0.07347 0.0
S184 S 0.34651 0.81949 1.00839 0.0
N185 N 0.3726 0.82455 0.95048 0.0
N186 N 0.37117 0.82812 0.06991 0.0
C187 C 0.40251 0.83547 0.04496 0.0
C188 C 0.40333 0.83368 0.97993 0.0
C189 C 0.57976 0.41377 0.29501 0.0
C190 C 0.61451 0.44223 0.28916 0.0
C191 C 0.56526 0.4 0.35216 0.0
C192 C 0.58488 0.41398 0.40598 0.0
H193 H 0.56308 0.40276 0.25533 0.0
H194 H 0.53801 0.37884 0.35405 0.0
S195 S 0.67855 0.48588 0.41521 0.0
N196 N 0.66928 0.48194 0.34189 0.0
N197 N 0.64205 0.45607 0.4492 0.0
C198 C 0.6203 0.44123 0.40062 0.0
C199 C 0.63506 0.45533 0.34231 0.0
C200 C 0.1813 0.63323 0.6823 0.0
C201 C 0.18853 0.6205 0.6286 0.0
C202 C 0.18336 0.62026 0.73954 0.0
C203 C 0.19259 0.59383 0.74561 0.0
H204 H 0.17285 0.65267 0.68025 0.0
H205 H 0.17622 0.63007 0.77905 0.0
S206 S 0.21843 0.55461 0.62006 0.0
N207 N 0.20856 0.5822 0.58581 0.0
N208 N 0.21235 0.55777 0.69331 0.0
C209 C 0.2018 0.58223 0.69264 0.0
C210 C 0.19982 0.59556 0.63423 0.0
C211 C 0.58799 0.17892 0.06972 0.0
C212 C 0.61942 0.17763 0.07432 0.0
C213 C 0.57327 0.17889 1.01299 0.0
C214 C 0.5894 0.17775 0.95832 0.0
H215 H 0.57389 0.17874 0.11025 0.0
H216 H 0.5485 0.17887 1.01224 0.0
S217 S 0.67404 0.17774 0.94504 0.0
N218 N 0.66766 0.17786 1.01893 0.0
N219 N 0.64007 0.17786 0.91256 0.0
C220 C 0.62175 0.17816 0.96217 0.0
C221 C 0.63669 0.17806 0.02003 0.0
C222 C 0.29199 0.52602 1.01645 0.0
C223 C 0.30692 0.5457 0.07006 0.0
C224 C 0.26422 0.52729 0.98608 0.0
C225 C 0.25084 0.5484 1.0084 0.0
H226 H 0.30335 0.51153 0.99566 0.0
H227 H 0.25481 0.51361 0.94311 0.0
S228 S 0.27631 0.59953 0.15231 0.0
N229 N 0.30262 0.58266 0.14821 0.0
N230 N 0.25131 0.58555 0.09087 0.0
C231 C 0.26369 0.56584 0.0642 0.0
C232 C 0.2915 0.56432 0.09516 0.0
C233 C 0.78829 0.28465 0.35325 0.0
C234 C 0.78319 0.29929 0.40681 0.0
C235 C 0.75942 0.25702 0.32214 0.0
C236 C 0.72475 0.2435 0.34367 0.0
H237 H 0.8143 0.29617 0.33303 0.0
H238 H 0.76398 0.24786 0.2792 0.0
S239 S 0.69809 0.26833 0.48691 0.0
N240 N 0.74134 0.2946 0.48396 0.0
N241 N 0.68748 0.24362 0.42517 0.0
C242 C 0.7198 0.25608 0.39937 0.0
C243 C 0.74894 0.28371 0.43109 0.0
C244 C 0.52058 0.76298 0.73328 0.0
C245 C 0.52003 0.79214 0.70709 0.0
C246 C 0.5209 0.73669 0.69712 0.0
C247 C 0.51999 0.73814 0.63325 0.0
H248 H 0.51893 0.75945 0.78213 0.0
H249 H 0.51923 0.71381 0.71956 0.0
S250 S 0.52394 0.81132 0.54172 0.0
N251 N 0.52358 0.82316 0.61286 0.0
N252 N 0.52262 0.77292 0.54525 0.0
C253 C 0.52204 0.76831 0.60642 0.0
C254 C 0.52255 0.79555 0.64324 0.0
C255 C 0.73638 0.45946 0.08701 0.0
C256 C 0.72555 0.48325 0.06764 0.0
C257 C 0.76383 0.45769 0.05805 0.0
C258 C 0.78194 0.47978 1.00867 0.0
H259 H 0.72256 0.4409 0.12341 0.0
H260 H 0.77026 0.43802 0.07359 0.0
S261 S 0.76611 0.54872 0.94286 0.0
N262 N 0.73665 0.53105 0.99796 0.0
N263 N 0.78895 0.52793 0.94395 0.0
C264 C 0.77311 0.50531 0.99101 0.0
C265 C 0.74473 0.50699 0.02043 0.0
C266 C 0.24042 0.73858 0.33263 0.0
C267 C 0.24452 0.73923 0.39623 0.0
C268 C 0.26681 0.76446 0.29551 0.0
C269 C 0.29783 0.79248 0.32061 0.0
H270 H 0.21794 0.71652 0.3109 0.0
H271 H 0.26367 0.76155 0.24663 0.0
S272 S 0.31915 0.8086 0.48511 0.0
N273 N 0.28052 0.77171 0.483 0.0
N274 N 0.32951 0.82102 0.41364 0.0
C275 C 0.30087 0.795 0.38443 0.0
C276 C 0.27438 0.76818 0.42212 0.0
C277 C 0.57014 0.28591 0.75074 0.0
C278 C 0.54558 0.25083 0.73466 0.0
C279 C 0.57125 0.31454 0.72043 0.0
C280 C 0.54762 0.30952 0.673 0.0
H281 H 0.58981 0.29148 0.78555 0.0
H282 H 0.59154 0.34097 0.73336 0.0
S283 S 0.4758 0.22334 0.61675 0.0
N284 N 0.49519 0.21268 0.67062 0.0
N285 N 0.49706 0.26704 0.61419 0.0
C286 C 0.52132 0.27479 0.65887 0.0
C287 C 0.52034 0.24531 0.68958 0.0
C288 C 0.52926 0.55019 0.09979 0.0
C289 C 0.4923 0.52757 0.10005 0.0
C290 C 0.55251 0.53685 0.10064 0.0
C291 C 0.53986 0.50026 0.10182 0.0
H292 H 0.54057 0.57863 0.09876 0.0
H293 H 0.58064 0.55546 0.10021 0.0
S294 S 0.44531 0.42947 0.10346 0.0
N295 N 0.44416 0.46664 0.10191 0.0
N296 N 0.48757 0.44142 0.10357 0.0
C297 C 0.50289 0.47726 0.10232 0.0
C298 C 0.47921 0.4909 0.10142 0.0
C299 C 1.00753 0.47939 0.43871 0.0
C300 C 0.98253 0.49051 0.44359 0.0
C301 C 0.04391 0.50388 0.43839 0.0
C302 C 0.05694 0.54059 0.44291 0.0
H303 H 0.99902 0.45154 0.43469 0.0
H304 H 0.06192 0.49378 0.43417 0.0
S305 S 1.00269 0.58371 0.45817 0.0
N306 N 0.9736 0.54106 0.45421 0.0
N307 N 0.04175 0.58677 0.45347 0.0
C308 C 0.03227 0.55211 0.44835 0.0
C309 C 0.9952 0.52719 0.44873 0.0
C310 C 0.49316 0.02437 0.76311 0.0
C311 C 0.52952 0.04837 0.76936 0.0
C312 C 0.47999 0.98773 0.76099 0.0
C313 C 0.50259 0.97346 0.76504 0.0
H314 H 0.47463 0.03388 0.7595 0.0
H315 H 0.45176 0.97051 0.75593 0.0
S316 S 0.60006 0.02479 0.78289 0.0
N317 N 0.58802 0.05504 0.78034 0.0
N318 N 0.56321 0.98642 0.77626 0.0
C319 C 0.539 0.99714 0.77157 0.0
C320 C 0.55245 0.03446 0.77377 0.0
C321 C 0.48267 0.50146 0.59246 0.0
C322 C 0.50604 0.53824 0.58788 0.0
C323 C 0.49493 0.47727 0.59145 0.0
C324 C 0.5311 0.48878 0.58573 0.0
H325 H 0.45454 0.49109 0.59729 0.0
H326 H 0.47584 0.44935 0.59562 0.0
S327 S 0.60338 0.58231 0.57064 0.0
N328 N 0.56715 0.58489 0.57636 0.0
N329 N 0.59026 0.53976 0.57427 0.0
C330 C 0.55478 0.52552 0.58047 0.0
C331 C 0.54226 0.55013 0.58162 0.0
C332 C 0.0323 0.49582 0.92427 0.0
C333 C 0.05589 0.53249 0.92377 0.0
C334 C 0.99563 0.48204 0.92414 0.0
C335 C 0.98086 0.50429 0.92361 0.0
H336 H 0.04214 0.47749 0.9251 0.0
H337 H 0.97877 0.45356 0.92488 0.0
S338 S 0.03096 0.60241 0.92108 0.0
N339 N 0.06165 0.59099 0.92185 0.0
N340 N 0.99288 0.56495 0.92176 0.0
C341 C 1.00409 0.54102 0.92264 0.0
C342 C 0.0415 0.55512 0.92268 0.0
C343 C 0.53347 0.9885 0.27895 0.0
C344 C 0.49694 0.97402 0.26881 0.0
C345 C 0.55714 0.02504 0.27456 0.0
C346 C 0.5453 0.04874 0.26001 0.0
H347 H 0.54405 0.97153 0.29063 0.0
H348 H 0.58486 0.03476 0.28337 0.0
S349 S 0.45235 0.02447 0.22742 0.0
N350 N 0.45024 0.98644 0.24233 0.0
N351 N 0.49442 0.05483 0.23399 0.0
C352 C 0.50885 0.03458 0.24908 0.0
C353 C 0.48478 0.99737 0.25351 0.0
C354 C 0.47402 0.62251 0.83662 0.0
C355 C 0.45368 0.60691 0.78403 0.0
C356 C 0.46002 0.61106 0.89478 0.0
C357 C 0.42515 0.58337 0.90275 0.0
H358 H 0.50132 0.6434 0.83307 0.0
H359 H 0.4771 0.62327 0.93365 0.0
S360 S 0.35963 0.53586 0.7803 0.0
N361 N 0.39599 0.56395 0.7439 0.0
N362 N 0.36961 0.54236 0.8533 0.0
C363 C 0.40399 0.56847 0.8507 0.0
C364 C 0.41824 0.58026 0.79134 0.0
C365 C 0.86774 0.45181 0.23476 0.0
C366 C 0.8633 0.41793 0.24307 0.0
C367 C 0.8689 0.46516 0.17644 0.0
C368 C 0.86542 0.44511 0.12406 0.0
H369 H 0.87142 0.46863 0.27347 0.0
H370 H 0.87306 0.49172 0.1726 0.0
S371 S 0.84984 0.35342 0.12136 0.0
N372 N 0.85295 0.36354 0.19423 0.0
N373 N 0.85508 0.38868 0.08459 0.0
C374 C 0.85957 0.41062 0.13177 0.0
C375 C 0.85855 0.39706 0.19126 0.0
C376 C 0.43548 0.81873 0.5326 0.0
C377 C 0.42931 0.83501 0.58281 0.0
C378 C 0.43177 0.82735 0.47248 0.0
C379 C 0.42165 0.85261 0.45992 0.0
H380 H 0.4443 0.79982 0.53956 0.0
H381 H 0.43735 0.81445 0.43568 0.0
S382 S 0.39939 0.90084 0.57503 0.0
N383 N 0.41033 0.87599 0.61555 0.0
N384 N 0.40349 0.89239 0.5034 0.0
C385 C 0.4142 0.86821 0.50978 0.0
C386 C 0.41789 0.85933 0.57089 0.0
C387 C 0.562 0.40997 0.83983 0.0
C388 C 0.58258 0.42602 0.78774 0.0
C389 C 0.5754 0.42161 0.89831 0.0
C390 C 0.60986 0.44994 0.90705 0.0
H391 H 0.53499 0.3885 0.83565 0.0
H392 H 0.55817 0.40901 0.93679 0.0
S393 S 0.67588 0.49891 0.78634 0.0
N394 N 0.64012 0.47018 0.74905 0.0
N395 N 0.66534 0.49214 0.85906 0.0
C396 C 0.63125 0.4654 0.85558 0.0
C397 C 0.61763 0.45343 0.79591 0.0
C398 C 0.16934 0.61258 0.13551 0.0
C399 C 0.17183 0.5821 0.12638 0.0
C400 C 0.16976 0.62518 0.19415 0.0
C401 C 0.17308 0.60804 0.24591 0.0
H402 H 0.16591 0.6262 0.09726 0.0
H403 H 0.16684 0.64827 0.19881 0.0
S404 S 0.18448 0.52939 0.24605 0.0
N405 N 0.18043 0.53652 0.17357 0.0
N406 N 0.18161 0.5605 0.28379 0.0
C407 C 0.17731 0.5785 0.23727 0.0
C408 C 0.17652 0.56543 0.17751 0.0
C409 C 0.56454 0.16672 0.52286 0.0
C410 C 0.58378 0.16881 0.5757 0.0
C411 C 0.57708 0.16549 0.46488 0.0
C412 C 0.6092 0.166 0.45748 0.0
H413 H 0.53914 0.16527 0.52613 0.0
H414 H 0.56091 0.16301 0.42578 0.0
S415 S 0.67169 0.17535 0.58034 0.0
N416 N 0.63812 0.17437 0.61625 0.0
N417 N 0.66152 0.17172 0.50743 0.0
C418 C 0.62944 0.16956 0.50966 0.0
C419 C 0.61681 0.17111 0.5687 0.0
loop_
_geom_bond_atom_site_label_1
_geom_bond_atom_site_label_2
_geom_bond_distance
_geom_bond_site_symmetry_2
_ccdc_geom_bond_type
Mg0 O7 2.141 . S
Mg0 O8 2.048 . S
Mg0 O9 2.048 1_554 S
Mg0 O12 2.141 . S
C1 O2 1.313 . S
C1 O8 1.195 . S
O2 C1 1.313 . S
C3 O4 1.245 . S
C3 O12 1.289 . S
O4 C3 1.245 . S
C5 O6 1.245 . S
C5 O7 1.289 . S
O6 C5 1.245 . S
O7 Mg0 2.141 . S
O7 C5 1.289 . S
O8 Mg0 2.048 . S
O8 C1 1.195 . S
O9 Mg0 2.048 1_556 S
O9 C10 1.195 . S
C10 O9 1.195 . S
C10 O11 1.313 . S
O11 C10 1.313 . S
O12 Mg0 2.141 . S
O12 C3 1.289 . S
Mg13 O20 2.141 . S
Mg13 O21 2.048 . S
Mg13 O22 2.048 . S
Mg13 O25 2.141 . S
C14 O15 1.313 . S
C14 O21 1.195 . S
O15 C14 1.313 . S
C16 O17 1.245 . S
C16 O25 1.289 . S
O17 C16 1.245 . S
C18 O19 1.245 . S
C18 O20 1.289 . S
O19 C18 1.245 . S
O20 Mg13 2.141 . S
O20 C18 1.289 . S
O21 Mg13 2.048 . S
O21 C14 1.195 . S
O22 Mg13 2.048 . S
O22 C23 1.195 . S
C23 O22 1.195 . S
C23 O24 1.313 . S
O24 C23 1.313 . S
O25 Mg13 2.141 . S
O25 C16 1.289 . S
Mg26 O33 2.141 . S
Mg26 O34 2.048 . S
Mg26 O35 2.048 . S
Mg26 O38 2.141 . S
C27 O28 1.313 . S
C27 O34 1.195 . S
O28 C27 1.313 . S
C29 O30 1.245 . S
C29 O38 1.289 . S
O30 C29 1.245 . S
C31 O32 1.245 . S
C31 O33 1.289 . S
O32 C31 1.245 . S
O33 Mg26 2.141 . S
O33 C31 1.289 . S
O34 Mg26 2.048 . S
O34 C27 1.195 . S
O35 Mg26 2.048 . S
O35 C36 1.195 . S
C36 O35 1.195 . S
C36 O37 1.313 . S
O37 C36 1.313 . S
O38 Mg26 2.141 . S
O38 C29 1.289 . S
Mg39 O46 2.141 . S
Mg39 O47 2.048 . S
Mg39 O48 2.048 1_554 S
Mg39 O51 2.141 . S
C40 O41 1.313 . S
C40 O47 1.195 . S
O41 C40 1.313 . S
C42 O43 1.245 . S
C42 O51 1.289 . S
O43 C42 1.245 . S
C44 O45 1.245 . S
C44 O46 1.289 . S
O45 C44 1.245 . S
O46 Mg39 2.141 . S
O46 C44 1.289 . S
O47 Mg39 2.048 . S
O47 C40 1.195 . S
O48 Mg39 2.048 1_556 S
O48 C49 1.195 . S
C49 O48 1.195 . S
C49 O50 1.313 . S
O50 C49 1.313 . S
O51 Mg39 2.141 . S
O51 C42 1.289 . S
Mg52 O59 2.141 . S
Mg52 O60 2.048 . S
Mg52 O61 2.048 . S
Mg52 O64 2.141 . S
C53 O54 1.313 . S
C53 O60 1.195 . S
O54 C53 1.313 . S
C55 O56 1.245 . S
C55 O64 1.289 . S
O56 C55 1.245 . S
C57 O58 1.245 . S
C57 O59 1.289 . S
O58 C57 1.245 . S
O59 Mg52 2.141 . S
O59 C57 1.289 . S
O60 Mg52 2.048 . S
O60 C53 1.195 . S
O61 Mg52 2.048 . S
O61 C62 1.195 . S
C62 O61 1.195 . S
C62 O63 1.313 . S
O63 C62 1.313 . S
O64 Mg52 2.141 . S
O64 C55 1.289 . S
Mg65 O72 2.141 . S
Mg65 O73 2.048 . S
Mg65 O74 2.048 . S
Mg65 O77 2.141 . S
C66 O67 1.313 . S
C66 O73 1.195 . S
O67 C66 1.313 . S
C68 O69 1.245 . S
C68 O77 1.289 . S
O69 C68 1.245 . S
C70 O71 1.245 . S
C70 O72 1.289 . S
O71 C70 1.245 . S
O72 Mg65 2.141 . S
O72 C70 1.289 . S
O73 Mg65 2.048 . S
O73 C66 1.195 . S
O74 Mg65 2.048 . S
O74 C75 1.195 . S
C75 O74 1.195 . S
C75 O76 1.313 . S
O76 C75 1.313 . S
O77 Mg65 2.141 . S
O77 C68 1.289 . S
Mg78 O85 2.141 . S
Mg78 O86 2.048 . S
Mg78 O87 2.048 . S
Mg78 O90 2.141 . S
C79 O80 1.313 . S
C79 O86 1.195 . S
O80 C79 1.313 . S
C81 O82 1.245 . S
C81 O90 1.289 . S
O82 C81 1.245 . S
C83 O84 1.245 . S
C83 O85 1.289 . S
O84 C83 1.245 . S
O85 Mg78 2.141 . S
O85 C83 1.289 . S
O86 Mg78 2.048 . S
O86 C79 1.195 . S
O87 Mg78 2.048 . S
O87 C88 1.195 . S
C88 O87 1.195 . S
C88 O89 1.313 . S
O89 C88 1.313 . S
O90 Mg78 2.141 . S
O90 C81 1.289 . S
Mg91 O98 2.141 . S
Mg91 O99 2.048 . S
Mg91 O100 2.048 1_556 S
Mg91 O103 2.141 . S
C92 O93 1.313 . S
C92 O99 1.195 . S
O93 C92 1.313 . S
C94 O95 1.245 . S
C94 O103 1.289 . S
O95 C94 1.245 . S
C96 O97 1.245 . S
C96 O98 1.289 . S
O97 C96 1.245 . S
O98 Mg91 2.141 . S
O98 C96 1.289 . S
O99 Mg91 2.048 . S
O99 C92 1.195 . S
O100 Mg91 2.048 1_554 S
O100 C101 1.195 . S
C101 O100 1.195 . S
C101 O102 1.313 . S
O102 C101 1.313 . S
O103 Mg91 2.141 . S
O103 C94 1.289 . S
Mg104 O111 2.141 . S
Mg104 O112 2.048 . S
Mg104 O113 2.048 . S
Mg104 O116 2.141 . S
C105 O106 1.313 . S
C105 O112 1.195 . S
O106 C105 1.313 . S
C107 O108 1.245 . S
C107 O116 1.289 . S
O108 C107 1.245 . S
C109 O110 1.245 . S
C109 O111 1.289 . S
O110 C109 1.245 . S
O111 Mg104 2.141 . S
O111 C109 1.289 . S
O112 Mg104 2.048 . S
O112 C105 1.195 . S
O113 Mg104 2.048 . S
O113 C114 1.195 . S
C114 O113 1.195 . S
C114 O115 1.313 . S
O115 C114 1.313 . S
O116 Mg104 2.141 . S
O116 C107 1.289 . S
Mg117 O124 2.141 . S
Mg117 O125 2.048 . S
Mg117 O126 2.048 . S
Mg117 O129 2.141 . S
C118 O119 1.313 . S
C118 O125 1.195 . S
O119 C118 1.313 . S
C120 O121 1.245 . S
C120 O129 1.289 . S
O121 C120 1.245 . S
C122 O123 1.245 . S
C122 O124 1.289 . S
O123 C122 1.245 . S
O124 Mg117 2.141 . S
O124 C122 1.289 . S
O125 Mg117 2.048 . S
O125 C118 1.195 . S
O126 Mg117 2.048 . S
O126 C127 1.195 . S
C127 O126 1.195 . S
C127 O128 1.313 . S
O128 C127 1.313 . S
O129 Mg117 2.141 . S
O129 C120 1.289 . S
Mg130 O137 2.141 . S
Mg130 O138 2.048 . S
Mg130 O139 2.048 1_556 S
Mg130 O142 2.141 . S
C131 O132 1.313 . S
C131 O138 1.195 . S
O132 C131 1.313 . S
C133 O134 1.245 . S
C133 O142 1.289 . S
O134 C133 1.245 . S
C135 O136 1.245 . S
C135 O137 1.289 . S
O136 C135 1.245 . S
O137 Mg130 2.141 . S
O137 C135 1.289 . S
O138 Mg130 2.048 . S
O138 C131 1.195 . S
O139 Mg130 2.048 1_554 S
O139 C140 1.195 . S
C140 O139 1.195 . S
C140 O141 1.313 . S
O141 C140 1.313 . S
O142 Mg130 2.141 . S
O142 C133 1.289 . S
Mg143 O150 2.141 . S
Mg143 O151 2.048 . S
Mg143 O152 2.048 . S
Mg143 O155 2.141 . S
C144 O145 1.313 . S
C144 O151 1.195 . S
O145 C144 1.313 . S
C146 O147 1.245 . S
C146 O155 1.289 . S
O147 C146 1.245 . S
C148 O149 1.245 . S
C148 O150 1.289 . S
O149 C148 1.245 . S
O150 Mg143 2.141 . S
O150 C148 1.289 . S
O151 Mg143 2.048 . S
O151 C144 1.195 . S
O152 Mg143 2.048 . S
O152 C153 1.195 . S
C153 O152 1.195 . S
C153 O154 1.313 . S
O154 C153 1.313 . S
O155 Mg143 2.141 . S
O155 C146 1.289 . S
C156 C157 1.369 . S
C156 C158 1.419 . S
C156 H160 0.930 . S
C157 C156 1.369 . S
C157 C166 1.429 . S
C158 C156 1.419 . S
C158 C159 1.363 . S
C158 H161 0.929 . S
C159 C158 1.363 . S
C159 C165 1.428 . S
H160 C156 0.930 . S
H161 C158 0.929 . S
S162 N163 1.613 . S
S162 N164 1.610 . S
N163 S162 1.613 . S
N163 C166 1.350 . S
N164 S162 1.610 . S
N164 C165 1.351 . S
C165 C159 1.428 . S
C165 N164 1.351 . S
C165 C166 1.434 . S
C166 C157 1.429 . S
C166 N163 1.350 . S
C166 C165 1.434 . S
C167 C168 1.369 . S
C167 C169 1.419 . S
C167 H171 0.930 . S
C168 C167 1.369 . S
C168 C177 1.429 . S
C169 C167 1.419 . S
C169 C170 1.363 . S
C169 H172 0.929 . S
C170 C169 1.363 . S
C170 C176 1.428 . S
H171 C167 0.930 . S
H172 C169 0.929 . S
S173 N174 1.613 . S
S173 N175 1.610 . S
N174 S173 1.613 . S
N174 C177 1.350 . S
N175 S173 1.610 . S
N175 C176 1.351 . S
C176 C170 1.428 . S
C176 N175 1.351 . S
C176 C177 1.434 . S
C177 C168 1.429 . S
C177 N174 1.350 . S
C177 C176 1.434 . S
C178 C179 1.369 . S
C178 C180 1.419 1_556 S
C178 H182 0.930 . S
C179 C178 1.369 . S
C179 C188 1.429 . S
C180 C178 1.419 1_554 S
C180 C181 1.363 . S
C180 H183 0.929 . S
C181 C180 1.363 . S
C181 C187 1.428 . S
H182 C178 0.930 . S
H183 C180 0.929 . S
S184 N185 1.613 . S
S184 N186 1.610 1_556 S
N185 S184 1.613 . S
N185 C188 1.350 . S
N186 S184 1.610 1_554 S
N186 C187 1.351 . S
C187 C181 1.428 . S
C187 N186 1.351 . S
C187 C188 1.434 1_554 S
C188 C179 1.429 . S
C188 N185 1.350 . S
C188 C187 1.434 1_556 S
C189 C190 1.369 . S
C189 C191 1.419 . S
C189 H193 0.930 . S
C190 C189 1.369 . S
C190 C199 1.429 . S
C191 C189 1.419 . S
C191 C192 1.363 . S
C191 H194 0.929 . S
C192 C191 1.363 . S
C192 C198 1.428 . S
H193 C189 0.930 . S
H194 C191 0.929 . S
S195 N196 1.613 . S
S195 N197 1.610 . S
N196 S195 1.613 . S
N196 C199 1.350 . S
N197 S195 1.610 . S
N197 C198 1.351 . S
C198 C192 1.428 . S
C198 N197 1.351 . S
C198 C199 1.434 . S
C199 C190 1.429 . S
C199 N196 1.350 . S
C199 C198 1.434 . S
C200 C201 1.369 . S
C200 C202 1.419 . S
C200 H204 0.930 . S
C201 C200 1.369 . S
C201 C210 1.429 . S
C202 C200 1.419 . S
C202 C203 1.363 . S
C202 H205 0.929 . S
C203 C202 1.363 . S
C203 C209 1.428 . S
H204 C200 0.930 . S
H205 C202 0.929 . S
S206 N207 1.613 . S
S206 N208 1.610 . S
N207 S206 1.613 . S
N207 C210 1.350 . S
N208 S206 1.610 . S
N208 C209 1.351 . S
C209 C203 1.428 . S
C209 N208 1.351 . S
C209 C210 1.434 . S
C210 C201 1.429 . S
C210 N207 1.350 . S
C210 C209 1.434 . S
C211 C212 1.369 . S
C211 C213 1.419 1_554 S
C211 H215 0.930 . S
C212 C211 1.369 . S
C212 C221 1.429 . S
C213 C211 1.419 1_556 S
C213 C214 1.363 . S
C213 H216 0.929 . S
C214 C213 1.363 . S
C214 C220 1.428 . S
H215 C211 0.930 . S
H216 C213 0.929 . S
S217 N218 1.613 . S
S217 N219 1.610 1_554 S
N218 S217 1.613 . S
N218 C221 1.350 . S
N219 S217 1.610 1_556 S
N219 C220 1.351 . S
C220 C214 1.428 . S
C220 N219 1.351 . S
C220 C221 1.434 1_556 S
C221 C212 1.429 . S
C221 N218 1.350 . S
C221 C220 1.434 1_554 S
C222 C223 1.369 1_556 S
C222 C224 1.419 . S
C222 H226 0.930 . S
C223 C222 1.369 1_554 S
C223 C232 1.429 . S
C224 C222 1.419 . S
C224 C225 1.363 . S
C224 H227 0.929 . S
C225 C224 1.363 . S
C225 C231 1.428 1_556 S
H226 C222 0.930 . S
H227 C224 0.929 . S
S228 N229 1.613 . S
S228 N230 1.610 . S
N229 S228 1.613 . S
N229 C232 1.350 . S
N230 S228 1.610 . S
N230 C231 1.351 . S
C231 C225 1.428 1_554 S
C231 N230 1.351 . S
C231 C232 1.434 . S
C232 C223 1.429 . S
C232 N229 1.350 . S
C232 C231 1.434 . S
C233 C234 1.369 . S
C233 C235 1.419 . S
C233 H237 0.930 . S
C234 C233 1.369 . S
C234 C243 1.429 . S
C235 C233 1.419 . S
C235 C236 1.363 . S
C235 H238 0.929 . S
C236 C235 1.363 . S
C236 C242 1.428 . S
H237 C233 0.930 . S
H238 C235 0.929 . S
S239 N240 1.613 . S
S239 N241 1.610 . S
N240 S239 1.613 . S
N240 C243 1.350 . S
N241 S239 1.610 . S
N241 C242 1.351 . S
C242 C236 1.428 . S
C242 N241 1.351 . S
C242 C243 1.434 . S
C243 C234 1.429 . S
C243 N240 1.350 . S
C243 C242 1.434 . S
C244 C245 1.369 . S
C244 C246 1.419 . S
C244 H248 0.930 . S
C245 C244 1.369 . S
C245 C254 1.429 . S
C246 C244 1.419 . S
C246 C247 1.363 . S
C246 H249 0.929 . S
C247 C246 1.363 . S
C247 C253 1.428 . S
H248 C244 0.930 . S
H249 C246 0.929 . S
S250 N251 1.613 . S
S250 N252 1.610 . S
N251 S250 1.613 . S
N251 C254 1.350 . S
N252 S250 1.610 . S
N252 C253 1.351 . S
C253 C247 1.428 . S
C253 N252 1.351 . S
C253 C254 1.434 . S
C254 C245 1.429 . S
C254 N251 1.350 . S
C254 C253 1.434 . S
C255 C256 1.369 . S
C255 C257 1.419 1_554 S
C255 H259 0.930 . S
C256 C255 1.369 . S
C256 C265 1.429 1_554 S
C257 C255 1.419 1_556 S
C257 C258 1.363 . S
C257 H260 0.929 . S
C258 C257 1.363 . S
C258 C264 1.428 . S
H259 C255 0.930 . S
H260 C257 0.929 . S
S261 N262 1.613 . S
S261 N263 1.610 . S
N262 S261 1.613 . S
N262 C265 1.350 . S
N263 S261 1.610 . S
N263 C264 1.351 . S
C264 C258 1.428 . S
C264 N263 1.351 . S
C264 C265 1.434 . S
C265 C256 1.429 1_556 S
C265 N262 1.350 . S
C265 C264 1.434 . S
C266 C267 1.369 . S
C266 C268 1.419 . S
C266 H270 0.930 . S
C267 C266 1.369 . S
C267 C276 1.429 . S
C268 C266 1.419 . S
C268 C269 1.363 . S
C268 H271 0.929 . S
C269 C268 1.363 . S
C269 C275 1.428 . S
H270 C266 0.930 . S
H271 C268 0.929 . S
S272 N273 1.613 . S
S272 N274 1.610 . S
N273 S272 1.613 . S
N273 C276 1.350 . S
N274 S272 1.610 . S
N274 C275 1.351 . S
C275 C269 1.428 . S
C275 N274 1.351 . S
C275 C276 1.434 . S
C276 C267 1.429 . S
C276 N273 1.350 . S
C276 C275 1.434 . S
C277 C278 1.369 . S
C277 C279 1.419 . S
C277 H281 0.930 . S
C278 C277 1.369 . S
C278 C287 1.429 . S
C279 C277 1.419 . S
C279 C280 1.363 . S
C279 H282 0.929 . S
C280 C279 1.363 . S
C280 C286 1.428 . S
H281 C277 0.930 . S
H282 C279 0.929 . S
S283 N284 1.613 . S
S283 N285 1.610 . S
N284 S283 1.613 . S
N284 C287 1.350 . S
N285 S283 1.610 . S
N285 C286 1.351 . S
C286 C280 1.428 . S
C286 N285 1.351 . S
C286 C287 1.434 . S
C287 C278 1.429 . S
C287 N284 1.350 . S
C287 C286 1.434 . S
C288 C289 1.369 . S
C288 C290 1.419 . S
C288 H292 0.930 . S
C289 C288 1.369 . S
C289 C298 1.429 . S
C290 C288 1.419 . S
C290 C291 1.363 . S
C290 H293 0.929 . S
C291 C290 1.363 . S
C291 C297 1.428 . S
H292 C288 0.930 . S
H293 C290 0.929 . S
S294 N295 1.613 . S
S294 N296 1.610 . S
N295 S294 1.613 . S
N295 C298 1.350 . S
N296 S294 1.610 . S
N296 C297 1.351 . S
C297 C291 1.428 . S
C297 N296 1.351 . S
C297 C298 1.434 . S
C298 C289 1.429 . S
C298 N295 1.350 . S
C298 C297 1.434 . S
C299 C300 1.369 . S
C299 C301 1.419 1_655 S
C299 H303 0.930 . S
C300 C299 1.369 . S
C300 C309 1.429 . S
C301 C299 1.419 1_455 S
C301 C302 1.363 . S
C301 H304 0.929 . S
C302 C301 1.363 . S
C302 C308 1.428 . S
H303 C299 0.930 . S
H304 C301 0.929 . S
S305 N306 1.613 1_455 S
S305 N307 1.610 . S
N306 S305 1.613 1_655 S
N306 C309 1.350 . S
N307 S305 1.610 . S
N307 C308 1.351 . S
C308 C302 1.428 . S
C308 N307 1.351 . S
C308 C309 1.434 1_455 S
C309 C300 1.429 . S
C309 N306 1.350 . S
C309 C308 1.434 1_655 S
C310 C311 1.369 . S
C310 C312 1.419 1_545 S
C310 H314 0.930 . S
C311 C310 1.369 . S
C311 C320 1.429 . S
C312 C310 1.419 1_565 S
C312 C313 1.363 . S
C312 H315 0.929 . S
C313 C312 1.363 . S
C313 C319 1.428 . S
H314 C310 0.930 . S
H315 C312 0.929 . S
S316 N317 1.613 1_565 S
S316 N318 1.610 . S
N317 S316 1.613 1_545 S
N317 C320 1.350 . S
N318 S316 1.610 . S
N318 C319 1.351 . S
C319 C313 1.428 . S
C319 N318 1.351 . S
C319 C320 1.434 1_565 S
C320 C311 1.429 . S
C320 N317 1.350 . S
C320 C319 1.434 1_545 S
C321 C322 1.369 . S
C321 C323 1.419 . S
C321 H325 0.930 . S
C322 C321 1.369 . S
C322 C331 1.429 . S
C323 C321 1.419 . S
C323 C324 1.363 . S
C323 H326 0.929 . S
C324 C323 1.363 . S
C324 C330 1.428 . S
H325 C321 0.930 . S
H326 C323 0.929 . S
S327 N328 1.613 . S
S327 N329 1.610 . S
N328 S327 1.613 . S
N328 C331 1.350 . S
N329 S327 1.610 . S
N329 C330 1.351 . S
C330 C324 1.428 . S
C330 N329 1.351 . S
C330 C331 1.434 . S
C331 C322 1.429 . S
C331 N328 1.350 . S
C331 C330 1.434 . S
C332 C333 1.369 . S
C332 C334 1.419 1_455 S
C332 H336 0.930 1_556 S
C333 C332 1.369 . S
C333 C342 1.429 . S
C334 C332 1.419 1_655 S
C334 C335 1.363 . S
C334 H337 0.929 1_556 S
C335 C334 1.363 . S
C335 C341 1.428 . S
H336 C332 0.930 1_554 S
H337 C334 0.929 1_554 S
S338 N339 1.613 1_655 S
S338 N340 1.610 . S
N339 S338 1.613 1_455 S
N339 C342 1.350 . S
N340 S338 1.610 . S
N340 C341 1.351 . S
C341 C335 1.428 . S
C341 N340 1.351 . S
C341 C342 1.434 1_655 S
C342 C333 1.429 . S
C342 N339 1.350 . S
C342 C341 1.434 1_455 S
C343 C344 1.369 . S
C343 C345 1.419 1_565 S
C343 H347 0.930 . S
C344 C343 1.369 . S
C344 C353 1.429 . S
C345 C343 1.419 1_545 S
C345 C346 1.363 . S
C345 H348 0.929 . S
C346 C345 1.363 . S
C346 C352 1.428 . S
H347 C343 0.930 . S
H348 C345 0.929 . S
S349 N350 1.613 . S
S349 N351 1.610 1_565 S
N350 S349 1.613 . S
N350 C353 1.350 . S
N351 S349 1.610 1_545 S
N351 C352 1.351 . S
C352 C346 1.428 . S
C352 N351 1.351 . S
C352 C353 1.434 1_545 S
C353 C344 1.429 . S
C353 N350 1.350 . S
C353 C352 1.434 1_565 S
C354 C355 1.369 . S
C354 C356 1.419 . S
C354 H358 0.930 . S
C355 C354 1.369 . S
C355 C364 1.429 . S
C356 C354 1.419 . S
C356 C357 1.363 . S
C356 H359 0.929 . S
C357 C356 1.363 . S
C357 C363 1.428 . S
H358 C354 0.930 . S
H359 C356 0.929 . S
S360 N361 1.613 . S
S360 N362 1.610 . S
N361 S360 1.613 . S
N361 C364 1.350 . S
N362 S360 1.610 . S
N362 C363 1.351 . S
C363 C357 1.428 . S
C363 N362 1.351 . S
C363 C364 1.434 . S
C364 C355 1.429 . S
C364 N361 1.350 . S
C364 C363 1.434 . S
C365 C366 1.369 . S
C365 C367 1.419 . S
C365 H369 0.930 . S
C366 C365 1.369 . S
C366 C375 1.429 . S
C367 C365 1.419 . S
C367 C368 1.363 . S
C367 H370 0.929 . S
C368 C367 1.363 . S
C368 C374 1.428 . S
H369 C365 0.930 . S
H370 C367 0.929 . S
S371 N372 1.613 . S
S371 N373 1.610 . S
N372 S371 1.613 . S
N372 C375 1.350 . S
N373 S371 1.610 . S
N373 C374 1.351 . S
C374 C368 1.428 . S
C374 N373 1.351 . S
C374 C375 1.434 . S
C375 C366 1.429 . S
C375 N372 1.350 . S
C375 C374 1.434 . S
C376 C377 1.369 . S
C376 C378 1.419 . S
C376 H380 0.930 . S
C377 C376 1.369 . S
C377 C386 1.429 . S
C378 C376 1.419 . S
C378 C379 1.363 . S
C378 H381 0.929 . S
C379 C378 1.363 . S
C379 C385 1.428 . S
H380 C376 0.930 . S
H381 C378 0.929 . S
S382 N383 1.613 . S
S382 N384 1.610 . S
N383 S382 1.613 . S
N383 C386 1.350 . S
N384 S382 1.610 . S
N384 C385 1.351 . S
C385 C379 1.428 . S
C385 N384 1.351 . S
C385 C386 1.434 . S
C386 C377 1.429 . S
C386 N383 1.350 . S
C386 C385 1.434 . S
C387 C388 1.369 . S
C387 C389 1.419 . S
C387 H391 0.930 . S
C388 C387 1.369 . S
C388 C397 1.429 . S
C389 C387 1.419 . S
C389 C390 1.363 . S
C389 H392 0.929 . S
C390 C389 1.363 . S
C390 C396 1.428 . S
H391 C387 0.930 . S
H392 C389 0.929 . S
S393 N394 1.613 . S
S393 N395 1.610 . S
N394 S393 1.613 . S
N394 C397 1.350 . S
N395 S393 1.610 . S
N395 C396 1.351 . S
C396 C390 1.428 . S
C396 N395 1.351 . S
C396 C397 1.434 . S
C397 C388 1.429 . S
C397 N394 1.350 . S
C397 C396 1.434 . S
C398 C399 1.369 . S
C398 C400 1.419 . S
C398 H402 0.930 . S
C399 C398 1.369 . S
C399 C408 1.429 . S
C400 C398 1.419 . S
C400 C401 1.363 . S
C400 H403 0.929 . S
C401 C400 1.363 . S
C401 C407 1.428 . S
H402 C398 0.930 . S
H403 C400 0.929 . S
S404 N405 1.613 . S
S404 N406 1.610 . S
N405 S404 1.613 . S
N405 C408 1.350 . S
N406 S404 1.610 . S
N406 C407 1.351 . S
C407 C401 1.428 . S
C407 N406 1.351 . S
C407 C408 1.434 . S
C408 C399 1.429 . S
C408 N405 1.350 . S
C408 C407 1.434 . S
C409 C410 1.369 . S
C409 C411 1.419 . S
C409 H413 0.930 . S
C410 C409 1.369 . S
C410 C419 1.429 . S
C411 C409 1.419 . S
C411 C412 1.363 . S
C411 H414 0.929 . S
C412 C411 1.363 . S
C412 C418 1.428 . S
H413 C409 0.930 . S
H414 C411 0.929 . S
S415 N416 1.613 . S
S415 N417 1.610 . S
N416 S415 1.613 . S
N416 C419 1.350 . S
N417 S415 1.610 . S
N417 C418 1.351 . S
C418 C412 1.428 . S
C418 N417 1.351 . S
C418 C419 1.434 . S
C419 C410 1.429 . S
C419 N416 1.350 . S
C419 C418 1.434 . S
C157 C5 1.692 . S
C159 C83 1.698 . S
C168 C18 1.692 . S
C170 C96 1.698 . S
C179 C31 1.693 . S
C181 C109 1.698 . S
C190 C44 1.693 . S
C192 C122 1.697 . S
C201 C57 1.699 . S
C203 C135 1.693 . S
C212 C148 1.695 . S
C214 C70 1.697 . S
C223 C3 1.784 . S
C225 C133 1.780 . S
C234 C16 1.784 . S
C236 C146 1.780 . S
C245 C29 1.781 . S
C247 C81 1.782 . S
C256 C42 1.780 . S
C258 C94 1.783 . S
C267 C55 1.784 . S
C269 C107 1.780 . S
C278 C68 1.782 . S
C280 C120 1.782 . S
C289 C1 1.792 . S
C291 C40 1.793 . S
C300 C14 1.794 . S
C302 C53 1.790 . S
C311 C66 1.792 . S
C313 C27 1.790 . S
C322 C79 1.792 . S
C324 C118 1.794 . S
C333 C131 1.794 . S
C335 C92 1.792 . S
C344 C105 1.792 . S
C346 C144 1.793 . S
C355 C88 1.059 . S
C357 C10 1.052 . S
C366 C23 1.050 . S
C368 C101 1.059 . S
C377 C36 1.052 . S
C379 C114 1.057 . S
C388 C127 1.060 . S
C390 C49 1.052 . S
C399 C140 1.060 . S
C401 C62 1.052 . S
C410 C75 1.054 . S
C412 C153 1.055 . S
