# Generated by pormake.
# Topology irl, (4)-cn, num edge types: 1
# Building blocks:
#     Node 0, Type 0, BuildingBlock: KUFVIS_clean_sbu_0, # of connection points: 4
#     Node 1, Type 0, BuildingBlock: KUFVIS_clean_sbu_0, # of connection points: 4
#     Node 2, Type 0, BuildingBlock: KUFVIS_clean_sbu_0, # of connection points: 4
#     Node 3, Type 0, BuildingBlock: KUFVIS_clean_sbu_0, # of connection points: 4
#     Node 4, Type 0, BuildingBlock: KUFVIS_clean_sbu_0, # of connection points: 4
#     Node 5, Type 0, BuildingBlock: KUFVIS_clean_sbu_0, # of connection points: 4
#     Node 6, Type 0, BuildingBlock: KUFVIS_clean_sbu_0, # of connection points: 4
#     Node 7, Type 0, BuildingBlock: KUFVIS_clean_sbu_0, # of connection points: 4
#     Edge 8, Type (0, 0), BuildingBlock: MIFKUJ_clean_linker_0, # of connection points: 2
#     Edge 9, Type (0, 0), BuildingBlock: MIFKUJ_clean_linker_0, # of connection points: 2
#     Edge 10, Type (0, 0), BuildingBlock: MIFKUJ_clean_linker_0, # of connection points: 2
#     Edge 11, Type (0, 0), BuildingBlock: MIFKUJ_clean_linker_0, # of connection points: 2
#     Edge 12, Type (0, 0), BuildingBlock: MIFKUJ_clean_linker_0, # of connection points: 2
#     Edge 13, Type (0, 0), BuildingBlock: MIFKUJ_clean_linker_0, # of connection points: 2
#     Edge 14, Type (0, 0), BuildingBlock: MIFKUJ_clean_linker_0, # of connection points: 2
#     Edge 15, Type (0, 0), BuildingBlock: MIFKUJ_clean_linker_0, # of connection points: 2
#     Edge 16, Type (0, 0), BuildingBlock: MIFKUJ_clean_linker_0, # of connection points: 2
#     Edge 17, Type (0, 0), BuildingBlock: MIFKUJ_clean_linker_0, # of connection points: 2
#     Edge 18, Type (0, 0), BuildingBlock: MIFKUJ_clean_linker_0, # of connection points: 2
#     Edge 19, Type (0, 0), BuildingBlock: MIFKUJ_clean_linker_0, # of connection points: 2
#     Edge 20, Type (0, 0), BuildingBlock: MIFKUJ_clean_linker_0, # of connection points: 2
#     Edge 21, Type (0, 0), BuildingBlock: MIFKUJ_clean_linker_0, # of connection points: 2
#     Edge 22, Type (0, 0), BuildingBlock: MIFKUJ_clean_linker_0, # of connection points: 2
#     Edge 23, Type (0, 0), BuildingBlock: MIFKUJ_clean_linker_0, # of connection points: 2
# Relax obj value: 0.102
# Max RMSD: 0.152
# Mean RMSD: 0.152
data_MOF--net-irl--node1-KUFVIS_clean_sbu_0--edge1-MIFKUJ_clean_linker_0
_symmetry_space_group_name_H-M    P1
_symmetry_Int_Tables_number       1
_symmetry_cell_setting            triclinic
loop_
_symmetry_equiv_pos_as_xyz
'x, y, z'
_cell_length_a     44.286066
_cell_length_b     57.751164
_cell_length_c     35.836011
_cell_angle_alpha  90.104837
_cell_angle_beta   89.97214
_cell_angle_gamma 89.884091
loop_
_atom_site_label
_atom_site_type_symbol
_atom_site_fract_x
_atom_site_fract_y
_atom_site_fract_z
_atom_type_partial_charge
Mn0 Mn 0.06623 0.16176 -0.00207 0.0
Mn1 Mn 0.03985 0.2164 0.00459 0.0
C2 C 0.05848 0.17792 0.0557 0.0
C3 C 0.05508 0.12277 0.99002 0.0
C4 C 0.1049 0.20461 0.98489 0.0
O5 O 0.05059 0.16858 0.94625 0.0
O6 O 0.02893 0.20358 0.95468 0.0
C7 C 0.97426 0.20663 0.00388 0.0
N8 N 0.9988 0.21599 0.02107 0.0
C9 C 0.96855 0.229 0.07286 0.0
C10 C 0.94291 0.21966 0.05557 0.0
C11 C 0.9458 0.20839 0.02096 0.0
C12 C 0.99629 0.22682 0.05441 0.0
H13 H 0.97642 0.19784 0.97739 0.0
C14 C 0.03483 0.18562 0.93485 0.0
O15 O 0.08159 0.13082 0.98145 0.0
O16 O 0.03549 0.13723 0.00345 0.0
N17 N 0.04853 0.23072 0.0516 0.0
C18 C 0.07568 0.23771 0.06549 0.0
C19 C 0.07684 0.24875 0.10041 0.0
C20 C 0.05009 0.25262 0.12056 0.0
C21 C 0.02239 0.24551 0.10553 0.0
C22 C 0.02261 0.23475 0.07048 0.0
H23 H 0.09633 0.23476 0.05017 0.0
O24 O 0.07592 0.15996 0.0521 0.0
O25 O 0.0456 0.18544 0.02547 0.0
O26 O 0.10287 0.18268 0.98887 0.0
O27 O 0.08247 0.21842 0.98863 0.0
C28 C 0.99463 0.24834 0.12423 0.0
C29 C 0.96775 0.24 0.10799 0.0
H30 H 0.92094 0.22086 0.06875 0.0
H31 H 0.92615 0.20101 0.00755 0.0
H32 H 0.09831 0.25418 0.11182 0.0
H33 H 0.0511 0.26095 0.14764 0.0
H34 H 0.99377 0.25661 0.15136 0.0
H35 H 0.94662 0.24194 0.12293 0.0
Mn36 Mn 0.94079 0.84926 0.0163 0.0
Mn37 Mn 0.96498 0.79386 0.01829 0.0
C38 C 0.94617 0.83099 0.07255 0.0
C39 C 0.9543 0.88812 0.01225 0.0
C40 C 0.90052 0.80763 -0.00049 0.0
O41 O 0.95654 0.84386 0.9643 0.0
O42 O 0.9757 0.80793 0.96931 0.0
C43 C 0.03073 0.80285 0.01739 0.0
N44 N 0.00618 0.79313 0.03399 0.0
C45 C 0.03681 0.77719 0.08311 0.0
C46 C 0.06246 0.78688 0.06639 0.0
C47 C 0.05939 0.79982 0.03344 0.0
C48 C 0.00886 0.78075 0.06579 0.0
H49 H 0.02843 0.81287 0.99212 0.0
C50 C 0.97068 0.82656 0.95094 0.0
O51 O 0.92765 0.8812 0.00181 0.0
O52 O 0.97252 0.87257 0.02527 0.0
N53 N 0.95647 0.77787 0.06383 0.0
C54 C 0.92934 0.77056 0.07731 0.0
C55 C 0.92838 0.75789 0.11071 0.0
C56 C 0.9553 0.75262 0.12962 0.0
C57 C 0.98298 0.75998 0.11486 0.0
C58 C 0.98255 0.77248 0.08142 0.0
H59 H 0.90859 0.7745 0.06285 0.0
O60 O 0.92994 0.84966 0.07003 0.0
O61 O 0.95977 0.82411 0.04228 0.0
O62 O 0.90338 0.82948 0.00446 0.0
O63 O 0.92228 0.79319 0.00296 0.0
C64 C 0.01094 0.75572 0.13232 0.0
C65 C 0.03782 0.76441 0.11656 0.0
H66 H 0.08459 0.78464 0.07874 0.0
H67 H 0.07906 0.80746 0.02047 0.0
H68 H 0.90692 0.75223 0.12188 0.0
H69 H 0.95444 0.74301 0.15553 0.0
H70 H 0.01201 0.746 0.15811 0.0
H71 H 0.05912 0.76132 0.13055 0.0
Mn72 Mn 0.05733 0.84037 0.48711 0.0
Mn73 Mn 0.03713 0.78442 0.49784 0.0
C74 C 0.04432 0.81837 0.43573 0.0
C75 C 0.04301 0.87945 0.48755 0.0
C76 C 0.10219 0.80075 0.5 0.0
O77 O 0.04926 0.8379 0.5426 0.0
O78 O 0.03296 0.80101 0.54611 0.0
C79 C 0.97198 0.79127 0.51287 0.0
N80 N 0.99442 0.78151 0.49212 0.0
C81 C 0.95848 0.76157 0.45338 0.0
C82 C 0.93496 0.77133 0.47444 0.0
C83 C 0.94175 0.78628 0.50425 0.0
C84 C 0.98815 0.76718 0.4633 0.0
H85 H 0.97714 0.80278 0.53578 0.0
C86 C 0.03887 0.82073 0.56077 0.0
O87 O 0.07091 0.87327 0.49306 0.0
O88 O 0.02374 0.86298 0.48178 0.0
N89 N 0.04006 0.76623 0.4534 0.0
C90 C 0.06535 0.75906 0.43501 0.0
C91 C 0.06256 0.74398 0.40449 0.0
C92 C 0.03386 0.73638 0.39338 0.0
C93 C 0.00813 0.74416 0.41247 0.0
C94 C 0.01235 0.75891 0.44302 0.0
H95 H 0.08748 0.76472 0.44361 0.0
O96 O 0.05992 0.83721 0.43176 0.0
O97 O 0.03615 0.81331 0.46956 0.0
O98 O 0.09716 0.82219 0.4934 0.0
O99 O 0.08126 0.7857 0.50308 0.0
C100 C 0.97849 0.73793 0.40236 0.0
C101 C 0.95367 0.74674 0.42268 0.0
H102 H 0.91161 0.76756 0.46784 0.0
H103 H 0.92371 0.79393 0.52055 0.0
H104 H 0.08248 0.73808 0.38976 0.0
H105 H 0.03195 0.72439 0.37041 0.0
H106 H 0.97452 0.72656 0.37881 0.0
H107 H 0.93097 0.74205 0.41437 0.0
Mn108 Mn 0.93554 0.15768 0.47762 0.0
Mn109 Mn 0.95944 0.21313 0.48282 0.0
C110 C 0.94947 0.17689 0.42397 0.0
C111 C 0.9473 0.11822 0.48204 0.0
C112 C 0.89328 0.19983 0.48412 0.0
O113 O 0.94329 0.16191 0.53282 0.0
O114 O 0.95978 0.19865 0.53298 0.0
C115 C 0.02275 0.20276 0.50347 0.0
N116 N 0.00253 0.21331 0.48044 0.0
C117 C 0.04241 0.23038 0.44423 0.0
C118 C 0.06369 0.21982 0.46769 0.0
C119 C 0.05381 0.20588 0.49736 0.0
C120 C 0.01178 0.22656 0.45163 0.0
H121 H 0.01524 0.19205 0.52633 0.0
C122 C 0.95319 0.17976 0.54963 0.0
O123 O 0.91978 0.12561 0.48665 0.0
O124 O 0.96761 0.13368 0.47488 0.0
N125 N 0.96076 0.22992 0.43695 0.0
C126 C 0.93735 0.23829 0.41629 0.0
C127 C 0.94337 0.25271 0.3857 0.0
C128 C 0.97333 0.25855 0.37697 0.0
C129 C 0.99702 0.24965 0.39848 0.0
C130 C 0.98964 0.23564 0.42893 0.0
H131 H 0.91427 0.23413 0.42329 0.0
O132 O 0.93289 0.15842 0.42237 0.0
O133 O 0.9586 0.18315 0.45704 0.0
O134 O 0.89707 0.17786 0.48179 0.0
O135 O 0.91508 0.21431 0.48464 0.0
C136 C 0.02768 0.2541 0.39086 0.0
C137 C 0.05038 0.24435 0.41359 0.0
H138 H 0.08766 0.2222 0.46307 0.0
H139 H 0.07008 0.19759 0.5155 0.0
H140 H 0.92496 0.25953 0.36917 0.0
H141 H 0.97798 0.27006 0.35392 0.0
H142 H 0.03406 0.26482 0.36738 0.0
H143 H 0.07388 0.24767 0.4072 0.0
Mn144 Mn 0.56913 0.65724 0.00382 0.0
Mn145 Mn 0.54247 0.71172 0.01136 0.0
C146 C 0.55542 0.67127 0.06132 0.0
C147 C 0.55774 0.61882 0.99052 0.0
C148 C 0.60899 0.70011 0.00094 0.0
O149 O 0.55963 0.66617 0.9508 0.0
O150 O 0.53691 0.70073 0.95901 0.0
C151 C 0.47752 0.70232 -0.00067 0.0
N152 N 0.50005 0.71097 0.0211 0.0
C153 C 0.46463 0.72247 0.06863 0.0
C154 C 0.44102 0.71383 0.0466 0.0
C155 C 0.44751 0.70367 0.01184 0.0
C156 C 0.49407 0.72071 0.05464 0.0
H157 H 0.48245 0.69439 0.97269 0.0
C158 C 0.54533 0.68369 0.93846 0.0
O159 O 0.58521 0.62647 0.98696 0.0
O160 O 0.53747 0.63333 0.00206 0.0
N161 N 0.54616 0.72444 0.06052 0.0
C162 C 0.57161 0.73108 0.07901 0.0
C163 C 0.56908 0.74132 0.11445 0.0
C164 C 0.54045 0.74473 0.13044 0.0
C165 C 0.51458 0.73789 0.1108 0.0
C166 C 0.51848 0.72803 0.07538 0.0
H167 H 0.59368 0.72851 0.06691 0.0
O168 O 0.57285 0.65326 0.05883 0.0
O169 O 0.54607 0.6801 0.03007 0.0
O170 O 0.60666 0.67805 0.00261 0.0
O171 O 0.58636 0.71389 0.00254 0.0
C172 C 0.48511 0.74017 0.1252 0.0
C173 C 0.46016 0.7324 0.10417 0.0
H174 H 0.41786 0.71474 0.05622 0.0
H175 H 0.42943 0.69686 -0.00523 0.0
H176 H 0.58916 0.74653 0.12946 0.0
H177 H 0.53863 0.75254 0.15785 0.0
H178 H 0.4814 0.7476 0.1526 0.0
H179 H 0.43765 0.73396 0.11574 0.0
Mn180 Mn 0.43899 0.34712 0.00964 0.0
Mn181 Mn 0.4609 0.29186 0.02354 0.0
C182 C 0.44 0.33249 0.06902 0.0
C183 C 0.45322 0.38544 0.00083 0.0
C184 C 0.39907 0.30521 -0.00625 0.0
O185 O 0.45938 0.33834 0.96141 0.0
O186 O 0.47695 0.30255 0.97439 0.0
C187 C 0.5267 0.29939 0.03111 0.0
N188 N 0.50021 0.29146 0.04551 0.0
C189 C 0.52476 0.27953 0.10225 0.0
C190 C 0.55235 0.2874 0.08789 0.0
C191 C 0.5533 0.2974 0.05219 0.0
C192 C 0.49903 0.28182 0.07984 0.0
H193 H 0.52749 0.30725 0.00381 0.0
C194 C 0.47448 0.32028 0.95312 0.0
O195 O 0.42739 0.37788 0.98864 0.0
O196 O 0.47026 0.37087 0.01851 0.0
N197 N 0.44718 0.27948 0.0701 0.0
C198 C 0.41853 0.27396 0.0807 0.0
C199 C 0.41353 0.26435 0.11614 0.0
C200 C 0.43802 0.26043 0.14023 0.0
C201 C 0.46732 0.26606 0.12858 0.0
C202 C 0.47096 0.27535 0.09278 0.0
H203 H 0.39959 0.27701 0.06239 0.0
O204 O 0.42403 0.35081 0.0617 0.0
O205 O 0.45524 0.32365 0.04141 0.0
O206 O 0.40233 0.32714 -0.00381 0.0
O207 O 0.4199 0.29073 0.00201 0.0
C208 C 0.49298 0.26326 0.15138 0.0
C209 C 0.52167 0.27001 0.13823 0.0
H210 H 0.57288 0.28606 0.10417 0.0
H211 H 0.57448 0.30364 0.04103 0.0
H212 H 0.39084 0.26009 0.12494 0.0
H213 H 0.43403 0.25326 0.1677 0.0
H214 H 0.49083 0.25624 0.17927 0.0
H215 H 0.54116 0.26809 0.15623 0.0
Mn216 Mn 0.55326 0.34289 0.49104 0.0
Mn217 Mn 0.52903 0.28771 0.49884 0.0
C218 C 0.53716 0.32308 0.43871 0.0
C219 C 0.54211 0.38251 0.49495 0.0
C220 C 0.59535 0.30081 0.49756 0.0
O221 O 0.54753 0.33909 0.54681 0.0
O222 O 0.52887 0.30292 0.54855 0.0
C223 C 0.4657 0.29801 0.51956 0.0
N224 N 0.48596 0.28751 0.49644 0.0
C225 C 0.44614 0.271 0.4594 0.0
C226 C 0.42482 0.28152 0.48293 0.0
C227 C 0.43466 0.29515 0.51307 0.0
C228 C 0.47675 0.27455 0.46717 0.0
H229 H 0.4732 0.30849 0.54275 0.0
C230 C 0.53693 0.32179 0.56446 0.0
O231 O 0.56964 0.37495 0.49833 0.0
O232 O 0.52134 0.36711 0.48957 0.0
N233 N 0.52783 0.27059 0.45322 0.0
C234 C 0.55132 0.26204 0.43279 0.0
C235 C 0.54538 0.24802 0.40165 0.0
C236 C 0.51543 0.24271 0.39217 0.0
C237 C 0.49164 0.25162 0.41369 0.0
C238 C 0.49894 0.26536 0.44455 0.0
H239 H 0.5744 0.26588 0.44021 0.0
O240 O 0.55371 0.34148 0.43557 0.0
O241 O 0.52942 0.31731 0.47246 0.0
O242 O 0.59168 0.32266 0.49339 0.0
O243 O 0.57345 0.28653 0.50051 0.0
C244 C 0.46098 0.24739 0.40581 0.0
C245 C 0.43823 0.25722 0.42844 0.0
H246 H 0.40086 0.27933 0.47804 0.0
H247 H 0.41835 0.3034 0.53127 0.0
H248 H 0.56384 0.24117 0.38517 0.0
H249 H 0.51105 0.2316 0.36854 0.0
H250 H 0.45463 0.23664 0.38242 0.0
H251 H 0.41474 0.25403 0.42182 0.0
Mn252 Mn 0.44291 0.66301 0.48244 0.0
Mn253 Mn 0.4651 0.71895 0.48285 0.0
C254 C 0.44915 0.6824 0.42664 0.0
C255 C 0.45615 0.62375 0.48541 0.0
C256 C 0.40082 0.70397 0.49881 0.0
O257 O 0.45757 0.66792 0.53542 0.0
O258 O 0.47464 0.70451 0.53156 0.0
C259 C 0.5311 0.71118 0.4865 0.0
N260 N 0.5067 0.72078 0.46931 0.0
C261 C 0.53824 0.73977 0.42418 0.0
C262 C 0.56377 0.7302 0.44146 0.0
C263 C 0.56016 0.71574 0.47266 0.0
C264 C 0.50987 0.73445 0.43903 0.0
H265 H 0.52837 0.70018 0.51061 0.0
C266 C 0.4702 0.68569 0.54948 0.0
O267 O 0.42941 0.6309 0.49507 0.0
O268 O 0.47495 0.63936 0.4739 0.0
N269 N 0.45735 0.73554 0.43783 0.0
C270 C 0.43033 0.74269 0.42372 0.0
C271 C 0.42989 0.75731 0.39251 0.0
C272 C 0.45719 0.76464 0.37652 0.0
C273 C 0.4847 0.75694 0.3914 0.0
C274 C 0.48373 0.7425 0.42264 0.0
H275 H 0.40929 0.73747 0.43636 0.0
O276 O 0.43338 0.66351 0.42818 0.0
O277 O 0.46198 0.6889 0.4576 0.0
O278 O 0.40465 0.68222 0.49371 0.0
O279 O 0.42209 0.71876 0.49621 0.0
C280 C 0.51305 0.76313 0.37669 0.0
C281 C 0.53979 0.75435 0.39276 0.0
H282 H 0.58622 0.73375 0.43096 0.0
H283 H 0.57974 0.70823 0.48609 0.0
H284 H 0.40859 0.76319 0.38113 0.0
H285 H 0.4567 0.77638 0.35315 0.0
H286 H 0.51456 0.77463 0.35304 0.0
H287 H 0.56141 0.759 0.38082 0.0
H288 H 0.92516 0.92437 0.97806 0.0
H289 H 0.94402 0.96402 0.97019 0.0
H290 H 0.02534 0.94586 0.02968 0.0
H291 H 0.00668 0.90656 0.03789 0.0
H292 H 0.00464 0.98641 0.05308 0.0
H293 H 0.0267 0.95072 0.93689 0.0
H294 H 0.01681 0.92855 0.87938 0.0
H295 H 0.95407 0.98064 0.84319 0.0
H296 H 0.96318 0.00296 0.90088 0.0
H297 H 0.09196 0.08489 -0.00469 0.0
H298 H 0.07632 0.04402 -0.00556 0.0
H299 H 0.98459 0.06484 0.97188 0.0
H300 H -0.00021 0.10556 0.97402 0.0
H301 H 0.01305 0.02275 0.92807 0.0
H302 H 0.99074 0.056 0.05139 0.0
H303 H 0.00575 0.07742 0.10802 0.0
H304 H 0.07602 0.02775 0.12881 0.0
H305 H 0.0617 0.00626 0.07189 0.0
C306 C 0.94696 0.92891 0.9896 0.0
C307 C 0.96443 0.91236 0.00854 0.0
C308 C 0.95779 0.95149 0.9849 0.0
C309 C 0.98622 0.9578 -0.00093 0.0
C310 C 0.00337 0.94137 0.01852 0.0
C311 C 0.99266 0.91889 0.02311 0.0
C312 C 0.99819 0.98154 -0.00608 0.0
C313 C 0.00672 0.9942 0.02568 0.0
C314 C 0.00102 0.99174 0.95818 0.0
C315 C 0.99536 0.97839 0.92344 0.0
C316 C 0.01056 0.95735 0.91686 0.0
C317 C 0.00515 0.94477 0.88418 0.0
C318 C 0.98478 0.95315 0.85767 0.0
C319 C 0.96981 0.97415 0.86378 0.0
C320 C 0.97509 0.98678 0.89647 0.0
C321 C 0.06859 0.08066 0.98962 0.0
C322 C 0.047 0.09825 0.98503 0.0
C323 C 0.05972 0.05741 0.9891 0.0
C324 C 0.02935 0.05157 0.98305 0.0
C325 C 0.00813 0.06909 0.97641 0.0
C326 C 0.01681 0.09227 0.97788 0.0
C327 C 0.01903 0.02743 0.98719 0.0
C328 C 0.01089 0.01478 0.95533 0.0
C329 C 0.0171 0.01701 0.02272 0.0
C330 C 0.0254 0.02971 0.05719 0.0
C331 C 0.00957 0.04978 0.06785 0.0
C332 C 0.01791 0.06191 0.10002 0.0
C333 C 0.04189 0.054 0.12193 0.0
C334 C 0.05749 0.03389 0.11177 0.0
C335 C 0.04927 0.02173 0.07957 0.0
H336 H 0.04833 0.06341 0.14682 0.0
H337 H 0.98065 0.9434 0.83237 0.0
H338 H 0.98579 0.89612 0.47934 0.0
H339 H 0.96903 0.93636 0.47974 0.0
H340 H 0.06085 0.95887 0.49652 0.0
H341 H 0.0778 0.91839 0.49682 0.0
H342 H 0.02314 0.98268 0.54058 0.0
H343 H 0.02651 0.96324 0.41088 0.0
H344 H 0.01558 0.94026 0.35445 0.0
H345 H 0.9206 0.95215 0.36943 0.0
H346 H 0.93094 0.97496 0.42629 0.0
H347 H 0.00386 0.10002 0.48672 0.0
H348 H 0.01847 0.0593 0.48977 0.0
H349 H 0.92476 0.03932 0.48605 0.0
H350 H 0.90983 0.08031 0.48328 0.0
H351 H 0.96218 0.01423 0.43615 0.0
H352 H 0.96002 0.03498 0.5656 0.0
H353 H 0.97222 0.05869 0.62082 0.0
H354 H 0.06667 0.04503 0.6047 0.0
H355 H 0.05507 0.02151 0.549 0.0
C356 C 0.0025 0.90959 0.48309 0.0
C357 C 0.03319 0.90403 0.48788 0.0
C358 C 0.99285 0.93264 0.48315 0.0
C359 C 0.01369 0.95072 0.48762 0.0
C360 C 0.04434 0.94523 0.49291 0.0
C361 C 0.05403 0.9221 0.49297 0.0
C362 C 0.00336 0.97529 0.48698 0.0
C363 C 0.01017 0.98964 0.5175 0.0
C364 C 0.9858 0.9843 0.45727 0.0
C365 C 0.97949 0.97061 0.42307 0.0
C366 C 0.00327 0.9608 0.40232 0.0
C367 C 0.99719 0.94783 0.37022 0.0
C368 C 0.96741 0.94469 0.35842 0.0
C369 C 0.94366 0.95457 0.37864 0.0
C370 C 0.94962 0.96753 0.41079 0.0
C371 C 0.98628 0.08701 0.48667 0.0
C372 C 0.95565 0.09341 0.48478 0.0
C373 C 0.9947 0.06372 0.48855 0.0
C374 C 0.97272 0.04627 0.48837 0.0
C375 C 0.94208 0.05253 0.48628 0.0
C376 C 0.93359 0.07593 0.48484 0.0
C377 C 0.98201 0.02154 0.48968 0.0
C378 C 0.97505 0.00719 0.45926 0.0
C379 C -0.00038 0.01259 0.51932 0.0
C380 C 0.00668 0.02665 0.5529 0.0
C381 C 0.98341 0.03719 0.57363 0.0
C382 C 0.99022 0.05057 0.60505 0.0
C383 C 0.02021 0.05341 0.61621 0.0
C384 C 0.04345 0.04283 0.596 0.0
C385 C 0.03677 0.02946 0.56451 0.0
H386 H 0.02543 0.06377 0.64055 0.0
H387 H 0.96275 0.93465 0.33356 0.0
H388 H 0.50243 0.60353 0.97072 0.0
H389 H 0.48556 0.56358 0.96474 0.0
H390 H 0.57603 0.5395 0.98721 0.0
H391 H 0.59338 0.57985 0.99202 0.0
H392 H 0.5479 0.51224 0.93563 0.0
H393 H 0.52438 0.54279 0.05709 0.0
H394 H 0.50319 0.57123 0.10143 0.0
H395 H 0.41456 0.56005 0.05642 0.0
H396 H 0.43529 0.53177 0.01146 0.0
H397 H 0.5099 0.40226 0.0105 0.0
H398 H 0.52747 0.44182 0.00103 0.0
H399 H 0.4379 0.46245 0.96739 0.0
H400 H 0.42004 0.4226 0.97651 0.0
H401 H 0.46476 0.49129 0.02217 0.0
H402 H 0.48866 0.45853 0.90308 0.0
H403 H 0.51044 0.42942 0.86043 0.0
H404 H 0.5991 0.44387 0.90281 0.0
H405 H 0.57779 0.47279 0.94625 0.0
C406 C 0.51886 0.58974 0.97394 0.0
C407 C 0.54912 0.59471 0.9824 0.0
C408 C 0.50916 0.56692 0.97056 0.0
C409 C 0.52936 0.54858 0.97649 0.0
C410 C 0.56004 0.55344 0.98279 0.0
C411 C 0.56991 0.57643 0.98558 0.0
C412 C 0.51782 0.52453 0.97862 0.0
C413 C 0.52997 0.50758 0.95482 0.0
C414 C 0.49401 0.51858 0.00323 0.0
C415 C 0.48143 0.53531 0.03068 0.0
C416 C 0.5004 0.54649 0.05651 0.0
C417 C 0.48847 0.56258 0.08176 0.0
C418 C 0.45756 0.56749 0.08166 0.0
C419 C 0.4385 0.55625 0.05643 0.0
C420 C 0.45032 0.54018 0.03108 0.0
C421 C 0.4939 0.41517 0.00097 0.0
C422 C 0.46354 0.40937 -0.00565 0.0
C423 C 0.50405 0.43772 -0.00462 0.0
C424 C 0.48403 0.45495 0.98327 0.0
C425 C 0.45367 0.4493 0.97664 0.0
C426 C 0.44354 0.42659 0.98181 0.0
C427 C 0.49475 0.47904 0.97915 0.0
C428 C 0.48254 0.49599 0.00278 0.0
C429 C 0.51861 0.48488 0.95464 0.0
C430 C 0.53157 0.46771 0.92818 0.0
C431 C 0.51277 0.45538 0.90354 0.0
C432 C 0.52504 0.43893 0.87918 0.0
C433 C 0.55612 0.43476 0.87896 0.0
C434 C 0.57502 0.4471 0.90303 0.0
C435 C 0.56286 0.46354 0.92752 0.0
H436 H 0.56557 0.42201 0.86008 0.0
H437 H 0.44836 0.57999 0.10115 0.0
H438 H 0.5804 0.41987 0.49278 0.0
H439 H 0.56659 0.461 0.49235 0.0
H440 H 0.47245 0.4426 0.50113 0.0
H441 H 0.48604 0.40167 0.5003 0.0
H442 H 0.47774 0.47458 0.4517 0.0
H443 H 0.5151 0.46518 0.57639 0.0
H444 H 0.55192 0.45431 0.62493 0.0
H445 H 0.61563 0.50293 0.58036 0.0
H446 H 0.57931 0.51387 0.53122 0.0
H447 H 0.42033 0.58618 0.5004 0.0
H448 H 0.43561 0.54539 0.50329 0.0
H449 H 0.5275 0.56465 0.47867 0.0
H450 H 0.51244 0.60537 0.47565 0.0
H451 H 0.52387 0.53276 0.53607 0.0
H452 H 0.48509 0.54201 0.41154 0.0
H453 H 0.44716 0.55292 0.36434 0.0
H454 H 0.38451 0.50428 0.41106 0.0
H455 H 0.42194 0.49331 0.45889 0.0
C456 C 0.55679 0.42464 0.49482 0.0
C457 C 0.53434 0.4075 0.49656 0.0
C458 C 0.54889 0.44817 0.49473 0.0
C459 C 0.51842 0.45503 0.49709 0.0
C460 C 0.49608 0.43786 0.49917 0.0
C461 C 0.50392 0.41441 0.49882 0.0
C462 C 0.50956 0.47998 0.49638 0.0
C463 C 0.48757 0.48719 0.47057 0.0
C464 C 0.52275 0.49669 0.52036 0.0
C465 C 0.5446 0.49017 0.5499 0.0
C466 C 0.53705 0.47342 0.57677 0.0
C467 C 0.55781 0.46727 0.60442 0.0
C468 C 0.58613 0.47787 0.60567 0.0
C469 C 0.5937 0.4947 0.57932 0.0
C470 C 0.57303 0.5009 0.55159 0.0
C471 C 0.44379 0.58173 0.49563 0.0
C472 C 0.46513 0.59902 0.48763 0.0
C473 C 0.45248 0.55841 0.4972 0.0
C474 C 0.48269 0.55194 0.49095 0.0
C475 C 0.50409 0.56922 0.48359 0.0
C476 C 0.49539 0.59249 0.48172 0.0
C477 C 0.49197 0.52716 0.49168 0.0
C478 C 0.51405 0.52006 0.51735 0.0
C479 C 0.4787 0.51049 0.46783 0.0
C480 C 0.45621 0.51701 0.43902 0.0
C481 C 0.46314 0.53378 0.41194 0.0
C482 C 0.44175 0.53995 0.38504 0.0
C483 C 0.41341 0.52935 0.38477 0.0
C484 C 0.40644 0.51251 0.41134 0.0
C485 C 0.42775 0.50629 0.43833 0.0
H486 H 0.39688 0.53415 0.36391 0.0
H487 H 0.60217 0.47309 0.6271 0.0
H488 H 0.09328 0.1912 0.1142 0.0
H489 H 0.07628 0.1988 0.17833 0.0
H490 H 0.98429 0.18514 0.14509 0.0
H491 H 0.00127 0.17809 0.08108 0.0
H492 H 0.98579 0.22042 0.19203 0.0
H493 H 0.02713 0.14367 0.18712 0.0
H494 H 0.06598 0.11403 0.17446 0.0
H495 H 0.12586 0.14694 0.25234 0.0
H496 H 0.08745 0.17696 0.26512 0.0
H497 H 0.91739 0.18573 0.36156 0.0
H498 H 0.93733 0.19396 0.29964 0.0
H499 H 0.02731 0.19852 0.34564 0.0
H500 H 0.00749 0.18747 0.40668 0.0
H501 H 0.02963 0.17192 0.29232 0.0
H502 H 0.98523 0.25034 0.29478 0.0
H503 H 0.94432 0.27925 0.3032 0.0
H504 H 0.88763 0.24082 0.2285 0.0
H505 H 0.92823 0.21203 0.21925 0.0
C506 C 0.06942 0.19025 0.12073 0.0
C507 C 0.04837 0.18475 0.09295 0.0
C508 C 0.05975 0.19446 0.1572 0.0
C509 C 0.02905 0.19237 0.16647 0.0
C510 C 0.00803 0.18701 0.13849 0.0
C511 C 0.01768 0.18305 0.10202 0.0
C512 C 0.01886 0.19444 0.20563 0.0
C513 C 0.99541 0.2099 0.21408 0.0
C514 C 0.03147 0.18075 0.23433 0.0
C515 C 0.05457 0.16271 0.22674 0.0
C516 C 0.04868 0.14469 0.20132 0.0
C517 C 0.0706 0.1278 0.19416 0.0
C518 C 0.09842 0.12864 0.21249 0.0
C519 C 0.10433 0.14634 0.23811 0.0
C520 C 0.08249 0.16329 0.24534 0.0
C521 C 0.94132 0.18907 0.35843 0.0
C522 C 0.96084 0.18686 0.38902 0.0
C523 C 0.95272 0.19415 0.32307 0.0
C524 C 0.98386 0.19753 0.31774 0.0
C525 C 0.00318 0.19624 0.34886 0.0
C526 C 0.99185 0.19033 0.38393 0.0
C527 C 0.99677 0.19843 0.27941 0.0
C528 C 0.02057 0.18315 0.27081 0.0
C529 C 0.98416 0.21208 0.25047 0.0
C530 C 0.95949 0.22892 0.25696 0.0
C531 C 0.96385 0.24798 0.28063 0.0
C532 C 0.94084 0.26437 0.28534 0.0
C533 C 0.91333 0.26171 0.26676 0.0
C534 C 0.90888 0.2428 0.24305 0.0
C535 C 0.93192 0.22653 0.2379 0.0
H536 H 0.89555 0.27438 0.27056 0.0
H537 H 0.11536 0.11555 0.20692 0.0
H538 H 0.98518 0.81 0.42321 0.0
H539 H 0.96183 0.79874 0.36411 0.0
H540 H 0.05011 0.79397 0.31346 0.0
H541 H 0.07339 0.80416 0.37315 0.0
H542 H 0.96562 0.82714 0.3095 0.0
H543 H 0.05444 0.76777 0.2435 0.0
H544 H 0.07981 0.73 0.25193 0.0
H545 H 0.00392 0.70534 0.31491 0.0
H546 H 0.97879 0.74331 0.30822 0.0
H547 H 0.00117 0.82486 0.10337 0.0
H548 H 0.01231 0.81281 0.16747 0.0
H549 H 0.91689 0.80645 0.18967 0.0
H550 H 0.9058 0.81821 0.12524 0.0
H551 H 0.99629 0.77262 0.20936 0.0
H552 H 0.90726 0.83035 0.27848 0.0
H553 H 0.87749 0.86559 0.26535 0.0
H554 H 0.94808 0.89068 0.19395 0.0
H555 H 0.9784 0.85577 0.20709 0.0
C556 C -0.00045 0.80538 0.39988 0.0
C557 C 0.03102 0.80734 0.40271 0.0
C558 C 0.98624 0.79906 0.3661 0.0
C559 C 0.00417 0.79526 0.33432 0.0
C560 C 0.03577 0.79615 0.3377 0.0
C561 C 0.04908 0.80228 0.37163 0.0
C562 C 0.99025 0.79577 0.29673 0.0
C563 C 0.97165 0.81475 0.28794 0.0
C564 C 0.99853 0.78009 0.26818 0.0
C565 C 0.01504 0.75839 0.27588 0.0
C566 C 0.04349 0.75439 0.25973 0.0
C567 C 0.05782 0.73299 0.26425 0.0
C568 C 0.04356 0.71532 0.28413 0.0
C569 C 0.01504 0.71909 0.29974 0.0
C570 C 0.00097 0.74066 0.29616 0.0
C571 C 0.98272 0.82021 0.12174 0.0
C572 C 0.95276 0.82156 0.10944 0.0
C573 C 0.98904 0.81347 0.15822 0.0
C574 C 0.96539 0.80866 0.18305 0.0
C575 C 0.93538 0.81001 0.17075 0.0
C576 C 0.92909 0.81668 0.13417 0.0
C577 C 0.9723 0.804 0.22251 0.0
C578 C 0.9897 0.78451 0.23135 0.0
C579 C 0.96269 0.81911 0.25118 0.0
C580 C 0.94487 0.84031 0.24337 0.0
C581 C 0.91642 0.84342 0.26004 0.0
C582 C 0.89947 0.86334 0.25261 0.0
C583 C 0.91083 0.88032 0.22871 0.0
C584 C 0.93924 0.87746 0.21232 0.0
C585 C 0.95629 0.8576 0.21971 0.0
H586 H 0.89766 0.89571 0.22297 0.0
H587 H 0.05453 0.69868 0.2873 0.0
H588 H 0.03913 0.78692 0.61327 0.0
H589 H 0.02898 0.79086 0.67975 0.0
H590 H 0.01536 0.86439 0.66597 0.0
H591 H 0.02683 0.86068 0.59928 0.0
H592 H 0.0445 0.85694 0.72806 0.0
H593 H 0.95516 0.82698 0.67427 0.0
H594 H 0.92376 0.80127 0.63544 0.0
H595 H 0.94989 0.74297 0.70232 0.0
H596 H 0.98187 0.76827 0.7412 0.0
H597 H 0.96795 0.86402 0.90444 0.0
H598 H 0.98099 0.86547 0.8384 0.0
H599 H 0.00947 0.79404 0.8423 0.0
H600 H 0.9962 0.79225 0.90841 0.0
H601 H 0.96968 0.80363 0.78468 0.0
H602 H 0.06123 0.83735 0.83735 0.0
H603 H 0.08805 0.86601 0.87616 0.0
H604 H 0.05056 0.92131 0.81086 0.0
H605 H 0.02329 0.89297 0.77186 0.0
C606 C 0.03398 0.80394 0.62437 0.0
C607 C 0.03342 0.82346 0.60108 0.0
C608 C 0.0281 0.80617 0.66235 0.0
C609 C 0.02069 0.82783 0.67766 0.0
C610 C 0.02087 0.84749 0.65467 0.0
C611 C 0.02735 0.84534 0.61664 0.0
C612 C 0.0124 0.82966 0.71757 0.0
C613 C 0.02784 0.8455 0.74034 0.0
C614 C 0.99055 0.81481 0.73359 0.0
C615 C 0.97112 0.79951 0.71049 0.0
C616 C 0.95438 0.80865 0.68056 0.0
C617 C 0.93646 0.79415 0.65854 0.0
C618 C 0.93487 0.7705 0.66636 0.0
C619 C 0.95116 0.7613 0.69628 0.0
C620 C 0.96917 0.77571 0.71834 0.0
C621 C 0.97719 0.84862 0.89142 0.0
C622 C 0.98086 0.82794 0.91172 0.0
C623 C 0.98475 0.84955 0.85369 0.0
C624 C 0.99628 0.8299 0.83564 0.0
C625 C 0.00056 0.80939 0.85587 0.0
C626 C 0.99305 0.80842 0.89365 0.0
C627 C 0.00248 0.83031 0.79518 0.0
C628 C 0.98635 0.81502 0.77229 0.0
C629 C 0.02304 0.8461 0.77902 0.0
C630 C 0.04008 0.86305 0.80186 0.0
C631 C 0.05863 0.85563 0.83136 0.0
C632 C 0.07392 0.87181 0.85337 0.0
C633 C 0.07097 0.89547 0.84602 0.0
C634 C 0.05284 0.90298 0.8165 0.0
C635 C 0.03751 0.88687 0.7944 0.0
H636 H 0.08275 0.90797 0.86316 0.0
H637 H 0.92099 0.7593 0.64929 0.0
H638 H 0.02109 0.14652 0.89619 0.0
H639 H 0.00159 0.1436 0.83274 0.0
H640 H 0.00111 0.21815 0.82397 0.0
H641 H 0.01947 0.22119 0.88827 0.0
H642 H 0.95277 0.20102 0.79162 0.0
H643 H 0.05944 0.18365 0.78734 0.0
H644 H 0.10585 0.16278 0.8053 0.0
H645 H 0.0668 0.09865 0.76868 0.0
H646 H 0.02001 0.11911 0.75093 0.0
H647 H 0.96457 0.21582 0.59683 0.0
H648 H 0.97284 0.21433 0.66396 0.0
H649 H 0.95991 0.14033 0.66251 0.0
H650 H 0.95161 0.14156 0.59498 0.0
H651 H 0.0113 0.15408 0.70061 0.0
H652 H 0.90632 0.17295 0.69861 0.0
H653 H 0.86107 0.1947 0.67903 0.0
H654 H 0.89794 0.25699 0.72594 0.0
H655 H 0.94365 0.2357 0.74528 0.0
C656 C 0.0168 0.16231 0.88076 0.0
C657 C 0.02219 0.1841 0.89691 0.0
C658 C 0.00569 0.1606 0.84449 0.0
C659 C 0.00055 0.18064 0.82333 0.0
C660 C 0.00504 0.20246 0.83978 0.0
C661 C 0.01562 0.20419 0.87641 0.0
C662 C 0.99144 0.17883 0.78368 0.0
C663 C 0.96572 0.19094 0.77165 0.0
C664 C 0.00789 0.16515 0.75782 0.0
C665 C 0.03613 0.15288 0.76816 0.0
C666 C 0.06069 0.16508 0.78333 0.0
C667 C 0.08707 0.15332 0.79345 0.0
C668 C 0.08924 0.12939 0.78823 0.0
C669 C 0.06507 0.11718 0.77276 0.0
C670 C 0.03863 0.12884 0.76264 0.0
C671 C 0.96335 0.19919 0.61068 0.0
C672 C 0.95745 0.17879 0.5905 0.0
C673 C 0.9679 0.19842 0.64911 0.0
C674 C 0.96665 0.17726 0.66813 0.0
C675 C 0.96079 0.15683 0.64822 0.0
C676 C 0.95601 0.15759 0.60971 0.0
C677 C 0.97296 0.17654 0.70855 0.0
C678 C 0.99818 0.16396 0.72069 0.0
C679 C 0.95618 0.18991 0.73437 0.0
C680 C 0.92854 0.20274 0.72316 0.0
C681 C 0.90489 0.19132 0.70452 0.0
C682 C 0.87914 0.20356 0.69349 0.0
C683 C 0.87666 0.22722 0.70117 0.0
C684 C 0.8999 0.23866 0.71999 0.0
C685 C 0.92572 0.22651 0.73103 0.0
H686 H 0.85671 0.23666 0.69259 0.0
H687 H 0.10967 0.12032 0.7961 0.0
H688 H 0.58472 0.68317 0.12476 0.0
H689 H 0.56197 0.69101 0.18607 0.0
H690 H 0.47342 0.67854 0.14003 0.0
H691 H 0.49619 0.67082 0.07879 0.0
H692 H 0.51771 0.72493 0.20483 0.0
H693 H 0.43339 0.64979 0.21019 0.0
H694 H 0.42685 0.61055 0.18403 0.0
H695 H 0.52305 0.6026 0.17599 0.0
H696 H 0.53016 0.64162 0.2026 0.0
H697 H 0.40959 0.69197 0.37118 0.0
H698 H 0.42201 0.69964 0.3056 0.0
H699 H 0.51659 0.70198 0.33368 0.0
H700 H 0.50434 0.69298 0.39866 0.0
H701 H 0.46274 0.66396 0.27421 0.0
H702 H 0.54384 0.74349 0.26489 0.0
H703 H 0.54517 0.7856 0.27651 0.0
H704 H 0.44839 0.78715 0.2833 0.0
H705 H 0.44654 0.74501 0.27238 0.0
C706 C 0.56041 0.68235 0.1279 0.0
C707 C 0.54197 0.6772 0.09729 0.0
C708 C 0.54748 0.6868 0.16268 0.0
C709 C 0.51608 0.68535 0.16736 0.0
C710 C 0.4977 0.67969 0.13686 0.0
C711 C 0.51062 0.67551 0.10201 0.0
C712 C 0.50266 0.6896 0.20437 0.0
C713 C 0.50603 0.71157 0.22035 0.0
C714 C 0.48619 0.67238 0.22346 0.0
C715 C 0.48226 0.64873 0.208 0.0
C716 C 0.45313 0.63962 0.20295 0.0
C717 C 0.44933 0.61743 0.18804 0.0
C718 C 0.47452 0.60412 0.17826 0.0
C719 C 0.50356 0.61296 0.18345 0.0
C720 C 0.50748 0.63513 0.1984 0.0
C721 C 0.43292 0.6949 0.36344 0.0
C722 C 0.45601 0.69253 0.38999 0.0
C723 C 0.43995 0.69944 0.32614 0.0
C724 C 0.47015 0.70178 0.31499 0.0
C725 C 0.4931 0.70084 0.34193 0.0
C726 C 0.48611 0.6958 0.37906 0.0
C727 C 0.47833 0.69932 0.27525 0.0
C728 C 0.4742 0.67748 0.25872 0.0
C729 C 0.49373 0.71677 0.25541 0.0
C730 C 0.4951 0.74105 0.26847 0.0
C731 C 0.52289 0.75276 0.26964 0.0
C732 C 0.52372 0.77666 0.27582 0.0
C733 C 0.49687 0.78905 0.28067 0.0
C734 C 0.46918 0.77752 0.27971 0.0
C735 C 0.46824 0.75357 0.27403 0.0
H736 H 0.49752 0.80757 0.28522 0.0
H737 H 0.47154 0.58692 0.1668 0.0
H738 H 0.47789 0.31642 0.42229 0.0
H739 H 0.45678 0.30824 0.36033 0.0
H740 H 0.5468 0.3007 0.31611 0.0
H741 H 0.56788 0.30843 0.37807 0.0
H742 H 0.507 0.34168 0.29447 0.0
H743 H 0.51258 0.25603 0.28636 0.0
H744 H 0.50175 0.21521 0.30177 0.0
H745 H 0.40746 0.23131 0.31291 0.0
H746 H 0.41774 0.27208 0.29658 0.0
H747 H 0.49492 0.33172 0.10071 0.0
H748 H 0.50708 0.32471 0.16627 0.0
H749 H 0.41237 0.31574 0.19075 0.0
H750 H 0.40022 0.32257 0.12459 0.0
H751 H 0.44927 0.28233 0.22439 0.0
H752 H 0.44386 0.36468 0.21437 0.0
H753 H 0.4548 0.40287 0.18693 0.0
H754 H 0.5493 0.39341 0.209 0.0
H755 H 0.53899 0.35499 0.23608 0.0
C756 C 0.49302 0.3118 0.39971 0.0
C757 C 0.52443 0.31257 0.40486 0.0
C758 C 0.48098 0.3071 0.3644 0.0
C759 C 0.50027 0.3036 0.33384 0.0
C760 C 0.53159 0.30293 0.33954 0.0
C761 C 0.54359 0.30752 0.37477 0.0
C762 C 0.48875 0.30713 0.29566 0.0
C763 C 0.49459 0.32862 0.279 0.0
C764 C 0.47164 0.29046 0.27618 0.0
C765 C 0.46599 0.26707 0.29103 0.0
C766 C 0.48964 0.2509 0.29273 0.0
C767 C 0.48353 0.22773 0.30106 0.0
C768 C 0.45395 0.22068 0.30837 0.0
C769 C 0.43037 0.23679 0.3073 0.0
C770 C 0.43631 0.2599 0.29842 0.0
C771 C 0.47682 0.32789 0.12007 0.0
C772 C 0.44681 0.3269 0.10785 0.0
C773 C 0.4837 0.32414 0.15744 0.0
C774 C 0.46058 0.31982 0.18325 0.0
C775 C 0.43048 0.31895 0.17111 0.0
C776 C 0.42357 0.32285 0.13358 0.0
C777 C 0.46816 0.31664 0.22299 0.0
C778 C 0.46139 0.29546 0.24004 0.0
C779 C 0.48438 0.33366 0.24298 0.0
C780 C 0.49066 0.35687 0.22703 0.0
C781 C 0.467 0.37067 0.21314 0.0
C782 C 0.47309 0.39237 0.19768 0.0
C783 C 0.50273 0.40055 0.19616 0.0
C784 C 0.52635 0.38705 0.21018 0.0
C785 C 0.5204 0.36532 0.22564 0.0
H786 H 0.50739 0.41735 0.18417 0.0
H787 H 0.44931 0.20275 0.31496 0.0
H788 H 0.50243 0.35631 0.91952 0.0
H789 H 0.52211 0.35781 0.85588 0.0
H790 H 0.49881 0.28588 0.84021 0.0
H791 H 0.4806 0.28402 0.90477 0.0
H792 H 0.54893 0.29536 0.8037 0.0
H793 H 0.45024 0.33195 0.81412 0.0
H794 H 0.41422 0.36016 0.84071 0.0
H795 H 0.4712 0.41618 0.80584 0.0
H796 H 0.50772 0.38827 0.77942 0.0
H797 H 0.51793 0.28793 0.61211 0.0
H798 H 0.51512 0.28954 0.67986 0.0
H799 H 0.5476 0.35989 0.67838 0.0
H800 H 0.55035 0.35859 0.61018 0.0
H801 H 0.49905 0.35446 0.72425 0.0
H802 H 0.59416 0.31767 0.70569 0.0
H803 H 0.62989 0.28934 0.67902 0.0
H804 H 0.57991 0.23368 0.72859 0.0
H805 H 0.54358 0.26166 0.75511 0.0
C806 C 0.50199 0.34073 0.90261 0.0
C807 C 0.48966 0.32012 0.91665 0.0
C808 C 0.51312 0.34162 0.86628 0.0
C809 C 0.51108 0.32215 0.84294 0.0
C810 C 0.50041 0.30116 0.85767 0.0
C811 C 0.48997 0.3001 0.89444 0.0
C812 C 0.51785 0.32408 0.80256 0.0
C813 C 0.53788 0.30817 0.78626 0.0
C814 C 0.50408 0.34125 0.77999 0.0
C815 C 0.48179 0.35803 0.79508 0.0
C816 C 0.45511 0.35028 0.81223 0.0
C817 C 0.43462 0.36621 0.82728 0.0
C818 C 0.44046 0.38994 0.82504 0.0
C819 C 0.46673 0.3978 0.80759 0.0
C820 C 0.48731 0.38193 0.79254 0.0
C821 C 0.52452 0.3038 0.62603 0.0
C822 C 0.53447 0.32313 0.6056 0.0
C823 C 0.52308 0.30461 0.66484 0.0
C824 C 0.53164 0.32469 0.6841 0.0
C825 C 0.54111 0.34417 0.66395 0.0
C826 C 0.54265 0.34338 0.625 0.0
C827 C 0.52959 0.32541 0.72527 0.0
C828 C 0.51042 0.34184 0.74172 0.0
C829 C 0.5441 0.30869 0.74789 0.0
C830 C 0.56601 0.29178 0.73218 0.0
C831 C 0.59065 0.29938 0.71068 0.0
C832 C 0.61103 0.28339 0.69562 0.0
C833 C 0.60714 0.25972 0.70205 0.0
C834 C 0.58288 0.25202 0.72362 0.0
C835 C 0.56241 0.26794 0.73872 0.0
H836 H 0.62295 0.24737 0.69036 0.0
H837 H 0.4246 0.40225 0.83677 0.0
H838 H 0.52221 0.71964 0.89746 0.0
H839 H 0.50989 0.71962 0.83099 0.0
H840 H 0.53832 0.64829 0.82249 0.0
H841 H 0.55132 0.64825 0.88847 0.0
H842 H 0.5593 0.67198 0.76561 0.0
H843 H 0.46363 0.66292 0.8252 0.0
H844 H 0.4225 0.67235 0.8691 0.0
H845 H 0.40996 0.73819 0.81579 0.0
H846 H 0.45135 0.7293 0.77189 0.0
H847 H 0.4833 0.64769 0.59208 0.0
H848 H 0.49699 0.64718 0.65843 0.0
H849 H 0.49005 0.72163 0.66252 0.0
H850 H 0.47696 0.7224 0.59632 0.0
H851 H 0.45778 0.69565 0.72097 0.0
H852 H 0.55535 0.70316 0.66142 0.0
H853 H 0.59545 0.6916 0.61739 0.0
H854 H 0.60244 0.62536 0.67099 0.0
H855 H 0.562 0.63642 0.715 0.0
C856 C 0.52584 0.70395 0.88146 0.0
C857 C 0.53774 0.68396 0.89832 0.0
C858 C 0.5187 0.70395 0.84352 0.0
C859 C 0.52291 0.68387 0.82195 0.0
C860 C 0.53495 0.66397 0.83863 0.0
C861 C 0.54231 0.664 0.87642 0.0
C862 C 0.51485 0.68355 0.78191 0.0
C863 C 0.53698 0.67688 0.75593 0.0
C864 C 0.48582 0.69015 0.76928 0.0
C865 C 0.46081 0.69554 0.7955 0.0
C866 C 0.45226 0.67949 0.82302 0.0
C867 C 0.42888 0.68472 0.84788 0.0
C868 C 0.41368 0.70588 0.8453 0.0
C869 C 0.42179 0.72182 0.81779 0.0
C870 C 0.4452 0.71669 0.79289 0.0
C871 C 0.48479 0.66393 0.60713 0.0
C872 C 0.47917 0.68508 0.58906 0.0
C873 C 0.49263 0.66361 0.64488 0.0
C874 C 0.49446 0.68438 0.66507 0.0
C875 C 0.48868 0.70547 0.64722 0.0
C876 C 0.4814 0.70585 0.60942 0.0
C877 C 0.50224 0.68421 0.705 0.0
C878 C 0.48004 0.69074 0.73086 0.0
C879 C 0.53102 0.67715 0.71756 0.0
C880 C 0.5554 0.67052 0.69121 0.0
C881 C 0.56521 0.68604 0.66358 0.0
C882 C 0.58805 0.6796 0.63868 0.0
C883 C 0.60142 0.65773 0.64131 0.0
C884 C 0.59203 0.64228 0.66893 0.0
C885 C 0.56916 0.64863 0.69387 0.0
H886 H 0.61911 0.65278 0.62202 0.0
H887 H 0.39558 0.7099 0.86457 0.0
H888 H 0.34662 0.32908 0.97919 0.0
H889 H 0.29638 0.31284 0.96865 0.0
H890 H 0.33334 0.24379 0.97444 0.0
H891 H 0.38357 0.25972 0.98442 0.0
H892 H 0.28984 0.24674 0.92118 0.0
H893 H 0.30219 0.2679 0.05027 0.0
H894 H 0.31389 0.2945 0.10215 0.0
H895 H 0.24129 0.33925 0.06859 0.0
H896 H 0.22946 0.31306 0.0161 0.0
H897 H 0.15986 0.18262 0.97881 0.0
H898 H 0.2095 0.20061 0.97177 0.0
H899 H 0.16763 0.26804 0.96715 0.0
H900 H 0.11812 0.25039 0.97452 0.0
H901 H 0.21294 0.26723 0.01648 0.0
H902 H 0.19828 0.24362 0.88948 0.0
H903 H 0.1871 0.21622 0.83851 0.0
H904 H 0.26398 0.17503 0.86913 0.0
H905 H 0.27539 0.20201 0.92065 0.0
C906 C 0.34418 0.31044 0.9777 0.0
C907 C 0.36916 0.29574 0.98313 0.0
C908 C 0.31542 0.30119 0.97174 0.0
C909 C 0.31109 0.2771 0.97131 0.0
C910 C 0.33617 0.26242 0.97473 0.0
C911 C 0.36489 0.27162 0.98063 0.0
C912 C 0.28029 0.26712 0.97019 0.0
C913 C 0.27304 0.25108 0.94211 0.0
C914 C 0.2583 0.27302 -0.00273 0.0
C915 C 0.26516 0.28865 0.02904 0.0
C916 C 0.28886 0.28349 0.0538 0.0
C917 C 0.2955 0.29849 0.08333 0.0
C918 C 0.27839 0.31859 0.08861 0.0
C919 C 0.25455 0.32369 0.06442 0.0
C920 C 0.24787 0.30878 0.03479 0.0
C921 C 0.16115 0.20126 0.97588 0.0
C922 C 0.13491 0.21502 0.9774 0.0
C923 C 0.18956 0.21151 0.97171 0.0
C924 C 0.19223 0.23567 0.96877 0.0
C925 C 0.16608 0.24937 0.96942 0.0
C926 C 0.13775 0.23918 0.97357 0.0
C927 C 0.22234 0.24685 0.96737 0.0
C928 C 0.22954 0.26304 -0.00478 0.0
C929 C 0.24426 0.24095 0.94021 0.0
C930 C 0.23752 0.22473 0.90916 0.0
C931 C 0.21267 0.22862 0.88554 0.0
C932 C 0.20631 0.21318 0.85651 0.0
C933 C 0.22477 0.19387 0.85064 0.0
C934 C 0.24968 0.18998 0.87373 0.0
C935 C 0.25612 0.20536 0.90284 0.0
H936 H 0.21982 0.18193 0.82815 0.0
H937 H 0.28356 0.33017 0.11149 0.0
H938 H 0.66306 0.67868 0.98513 0.0
H939 H 0.71275 0.69685 0.97938 0.0
H940 H 0.6732 0.76351 0.00386 0.0
H941 H 0.62364 0.74575 0.00866 0.0
H942 H 0.71195 0.76766 0.94893 0.0
H943 H 0.71254 0.73192 0.07025 0.0
H944 H 0.70762 0.69974 0.11498 0.0
H945 H 0.77919 0.66304 0.0595 0.0
H946 H 0.78426 0.69489 0.01413 0.0
H947 H 0.84512 0.82898 0.00565 0.0
H948 H 0.79542 0.81075 1e-05 0.0
H949 H 0.83789 0.74603 0.97017 0.0
H950 H 0.88737 0.76387 0.97605 0.0
H951 H 0.79819 0.74023 0.02534 0.0
H952 H 0.7991 0.77772 0.9058 0.0
H953 H 0.80396 0.81064 0.86248 0.0
H954 H 0.72963 0.84496 0.91627 0.0
H955 H 0.72457 0.81238 0.96026 0.0
C956 C 0.66496 0.6972 0.98928 0.0
C957 C 0.63932 0.7107 -0.00254 0.0
C958 C 0.69338 0.70756 0.98607 0.0
C959 C 0.69674 0.73153 0.99155 0.0
C960 C 0.67116 0.74501 -0.00061 0.0
C961 C 0.6428 0.73475 0.00226 0.0
C962 C 0.72685 0.7427 0.98965 0.0
C963 C 0.73075 0.7618 0.9659 0.0
C964 C 0.75153 0.73481 0.01127 0.0
C965 C 0.74855 0.71567 0.03857 0.0
C966 C 0.72706 0.71691 0.06743 0.0
C967 C 0.72428 0.69874 0.09292 0.0
C968 C 0.74302 0.67933 0.09002 0.0
C969 C 0.76465 0.67807 0.06168 0.0
C970 C 0.7675 0.69618 0.03608 0.0
C971 C 0.84385 0.81097 -0.00271 0.0
C972 C 0.87027 0.79787 0.99159 0.0
C973 C 0.81543 0.80059 -0.00597 0.0
C974 C 0.81299 0.77701 0.98469 0.0
C975 C 0.83926 0.76419 0.97762 0.0
C976 C 0.86756 0.77448 0.98096 0.0
C977 C 0.78329 0.7652 0.98466 0.0
C978 C 0.77946 0.74601 0.00817 0.0
C979 C 0.75868 0.77311 0.96301 0.0
C980 C 0.76165 0.7927 0.93655 0.0
C981 C 0.78395 0.79237 0.90859 0.0
C982 C 0.78671 0.81095 0.88388 0.0
C983 C 0.76717 0.8299 0.88668 0.0
C984 C 0.74477 0.83029 0.91416 0.0
C985 C 0.74193 0.81176 0.93896 0.0
H986 H 0.76934 0.84427 0.86752 0.0
H987 H 0.74083 0.66528 0.10979 0.0
H988 H 0.12088 0.75582 0.50352 0.0
H989 H 0.17194 0.741 0.50786 0.0
H990 H 0.20672 0.81071 0.50877 0.0
H991 H 0.15509 0.82596 0.50336 0.0
H992 H 0.23962 0.78383 0.46398 0.0
H993 H 0.20454 0.77796 0.58907 0.0
H994 H 0.16953 0.76778 0.63994 0.0
H995 H 0.17827 0.69573 0.61213 0.0
H996 H 0.21301 0.7055 0.56072 0.0
H997 H 0.3855 0.74846 0.51632 0.0
H998 H 0.33525 0.76511 0.52143 0.0
H999 H 0.29579 0.6979 0.50286 0.0
H1000 H 0.34641 0.68079 0.49761 0.0
H1001 H 0.26657 0.72514 0.5595 0.0
H1002 H 0.30119 0.7326 0.43231 0.0
H1003 H 0.33835 0.74384 0.38442 0.0
H1004 H 0.33184 0.8148 0.41951 0.0
H1005 H 0.2951 0.80391 0.46817 0.0
C1006 C 0.13922 0.76817 0.5048 0.0
C1007 C 0.13372 0.79219 0.50332 0.0
C1008 C 0.16852 0.75958 0.50748 0.0
C1009 C 0.19317 0.7747 0.50941 0.0
C1010 C 0.18798 0.79871 0.50757 0.0
C1011 C 0.15848 0.8074 0.50455 0.0
C1012 C 0.22424 0.76514 0.51238 0.0
C1013 C 0.24563 0.77131 0.48528 0.0
C1014 C 0.232 0.74848 0.5398 0.0
C1015 C 0.21122 0.74249 0.57083 0.0
C1016 C 0.19883 0.75996 0.59362 0.0
C1017 C 0.17906 0.75426 0.62258 0.0
C1018 C 0.17163 0.73113 0.62922 0.0
C1019 C 0.18403 0.71364 0.60695 0.0
C1020 C 0.2038 0.71925 0.57792 0.0
C1021 C 0.36626 0.73703 0.51361 0.0
C1022 C 0.37009 0.71324 0.50607 0.0
C1023 C 0.33751 0.74666 0.51656 0.0
C1024 C 0.31188 0.7328 0.51196 0.0
C1025 C 0.31539 0.70887 0.50635 0.0
C1026 C 0.34431 0.69914 0.5033 0.0
C1027 C 0.28159 0.74368 0.51096 0.0
C1028 C 0.26045 0.73774 0.53839 0.0
C1029 C 0.27417 0.76073 0.48412 0.0
C1030 C 0.29558 0.7674 0.45411 0.0
C1031 C 0.30781 0.75058 0.42997 0.0
C1032 C 0.32881 0.75689 0.40269 0.0
C1033 C 0.33749 0.78001 0.39897 0.0
C1034 C 0.32511 0.79689 0.42245 0.0
C1035 C 0.3042 0.79066 0.44988 0.0
H1036 H 0.35376 0.78486 0.37785 0.0
H1037 H 0.15632 0.72675 0.65165 0.0
H1038 H 0.64978 0.32389 0.495 0.0
H1039 H 0.70047 0.30683 0.49427 0.0
H1040 H 0.66175 0.23845 0.49981 0.0
H1041 H 0.61139 0.25516 0.50128 0.0
H1042 H 0.70885 0.24125 0.54509 0.0
H1043 H 0.68792 0.26122 0.41722 0.0
H1044 H 0.67389 0.28736 0.36569 0.0
H1045 H 0.75057 0.33026 0.38966 0.0
H1046 H 0.76483 0.30453 0.44168 0.0
H1047 H 0.83901 0.1765 0.48787 0.0
H1048 H 0.78824 0.19344 0.49111 0.0
H1049 H 0.82666 0.26198 0.48827 0.0
H1050 H 0.87703 0.24545 0.4846 0.0
H1051 H 0.77974 0.25895 0.44184 0.0
H1052 H 0.80084 0.23901 0.56948 0.0
H1053 H 0.81502 0.21292 0.62102 0.0
H1054 H 0.73829 0.16998 0.59744 0.0
H1055 H 0.72388 0.19566 0.54542 0.0
C1056 C 0.65205 0.30523 0.4962 0.0
C1057 C 0.62638 0.29097 0.49808 0.0
C1058 C 0.68105 0.29549 0.49564 0.0
C1059 C 0.68491 0.27131 0.49658 0.0
C1060 C 0.65938 0.25712 0.49911 0.0
C1061 C 0.63051 0.26679 0.49983 0.0
C1062 C 0.71541 0.26062 0.49437 0.0
C1063 C 0.72422 0.24494 0.52228 0.0
C1064 C 0.7357 0.26568 0.46498 0.0
C1065 C 0.72726 0.28108 0.43357 0.0
C1066 C 0.70166 0.27632 0.41167 0.0
C1067 C 0.69369 0.29105 0.38235 0.0
C1068 C 0.71128 0.31049 0.37447 0.0
C1069 C 0.73694 0.31521 0.39583 0.0
C1070 C 0.74499 0.30056 0.42522 0.0
C1071 C 0.83665 0.19517 0.48792 0.0
C1072 C 0.86222 0.20954 0.48608 0.0
C1073 C 0.80762 0.20483 0.48992 0.0
C1074 C 0.80369 0.229 0.49021 0.0
C1075 C 0.82912 0.24331 0.48804 0.0
C1076 C 0.858 0.23374 0.48609 0.0
C1077 C 0.77317 0.23962 0.49255 0.0
C1078 C 0.76436 0.25527 0.46464 0.0
C1079 C 0.75291 0.23453 0.52194 0.0
C1080 C 0.76146 0.21912 0.55331 0.0
C1081 C 0.78713 0.2239 0.5751 0.0
C1082 C 0.79518 0.20921 0.60443 0.0
C1083 C 0.77762 0.18977 0.61243 0.0
C1084 C 0.7519 0.18502 0.59118 0.0
C1085 C 0.74377 0.19965 0.56178 0.0
H1086 H 0.78389 0.17841 0.63515 0.0
H1087 H 0.70507 0.32188 0.35176 0.0
loop_
_geom_bond_atom_site_label_1
_geom_bond_atom_site_label_2
_geom_bond_distance
_geom_bond_site_symmetry_2
_ccdc_geom_bond_type
Mn0 O5 2.095 1_554 S
Mn0 O15 2.162 . S
Mn0 O16 2.297 . S
Mn0 O24 2.385 . S
Mn0 O25 2.209 . S
Mn0 O26 2.094 . S
Mn1 O6 2.121 1_554 S
Mn1 N8 2.257 1_455 S
Mn1 N17 2.282 . S
Mn1 O25 2.215 . S
Mn1 O27 2.117 . S
C2 O24 1.234 . S
C2 O25 1.283 . S
C3 O15 1.281 . S
C3 O16 1.236 . S
C4 O26 1.240 . S
C4 O27 1.264 . S
O5 Mn0 2.095 1_556 S
O5 C14 1.250 . S
O6 Mn1 2.121 1_556 S
O6 C14 1.258 . S
C7 N8 1.326 . S
C7 C11 1.460 . S
C7 H13 0.929 1_554 S
N8 Mn1 2.257 1_655 S
N8 C7 1.326 . S
N8 C12 1.362 . S
C9 C10 1.258 . S
C9 C12 1.431 . S
C9 C29 1.449 . S
C10 C9 1.258 . S
C10 C11 1.477 . S
C10 H30 0.931 . S
C11 C7 1.460 . S
C11 C10 1.477 . S
C11 H31 0.939 . S
C12 N8 1.362 . S
C12 C9 1.431 . S
C12 C22 1.476 1_655 S
H13 C7 0.929 1_556 S
C14 O5 1.250 . S
C14 O6 1.258 . S
O15 Mn0 2.162 . S
O15 C3 1.281 . S
O16 Mn0 2.297 . S
O16 C3 1.236 . S
N17 Mn1 2.282 . S
N17 C18 1.328 . S
N17 C22 1.318 . S
C18 N17 1.328 . S
C18 C19 1.457 . S
C18 H23 0.929 . S
C19 C18 1.457 . S
C19 C20 1.291 . S
C19 H32 0.931 . S
C20 C19 1.291 . S
C20 C21 1.373 . S
C20 H33 0.929 . S
C21 C20 1.373 . S
C21 C22 1.396 . S
C21 C28 1.403 1_455 S
C22 C12 1.476 1_455 S
C22 N17 1.318 . S
C22 C21 1.396 . S
H23 C18 0.929 . S
O24 Mn0 2.385 . S
O24 C2 1.234 . S
O25 Mn0 2.209 . S
O25 Mn1 2.215 . S
O25 C2 1.283 . S
O26 Mn0 2.094 . S
O26 C4 1.240 . S
O27 Mn1 2.117 . S
O27 C4 1.264 . S
C28 C21 1.403 1_655 S
C28 C29 1.399 . S
C28 H34 0.929 . S
C29 C9 1.449 . S
C29 C28 1.399 . S
C29 H35 0.930 . S
H30 C10 0.931 . S
H31 C11 0.939 . S
H32 C19 0.931 . S
H33 C20 0.929 . S
H34 C28 0.929 . S
H35 C29 0.930 . S
Mn36 O41 2.095 1_554 S
Mn36 O51 2.162 . S
Mn36 O52 2.297 . S
Mn36 O60 2.385 . S
Mn36 O61 2.209 . S
Mn36 O62 2.094 . S
Mn37 O42 2.121 1_554 S
Mn37 N44 2.257 1_655 S
Mn37 N53 2.282 . S
Mn37 O61 2.215 . S
Mn37 O63 2.117 . S
C38 O60 1.234 . S
C38 O61 1.283 . S
C39 O51 1.281 . S
C39 O52 1.236 . S
C40 O62 1.240 . S
C40 O63 1.264 . S
O41 Mn36 2.095 1_556 S
O41 C50 1.250 . S
O42 Mn37 2.121 1_556 S
O42 C50 1.258 . S
C43 N44 1.326 . S
C43 C47 1.460 . S
C43 H49 0.929 1_554 S
N44 Mn37 2.257 1_455 S
N44 C43 1.326 . S
N44 C48 1.362 . S
C45 C46 1.258 . S
C45 C48 1.431 . S
C45 C65 1.449 . S
C46 C45 1.258 . S
C46 C47 1.477 . S
C46 H66 0.931 . S
C47 C43 1.460 . S
C47 C46 1.477 . S
C47 H67 0.939 . S
C48 N44 1.362 . S
C48 C45 1.431 . S
C48 C58 1.476 1_455 S
H49 C43 0.929 1_556 S
C50 O41 1.250 . S
C50 O42 1.258 . S
O51 Mn36 2.162 . S
O51 C39 1.281 . S
O52 Mn36 2.297 . S
O52 C39 1.236 . S
N53 Mn37 2.282 . S
N53 C54 1.328 . S
N53 C58 1.318 . S
C54 N53 1.328 . S
C54 C55 1.457 . S
C54 H59 0.929 . S
C55 C54 1.457 . S
C55 C56 1.291 . S
C55 H68 0.931 . S
C56 C55 1.291 . S
C56 C57 1.373 . S
C56 H69 0.929 . S
C57 C56 1.373 . S
C57 C58 1.396 . S
C57 C64 1.403 1_655 S
C58 C48 1.476 1_655 S
C58 N53 1.318 . S
C58 C57 1.396 . S
H59 C54 0.929 . S
O60 Mn36 2.385 . S
O60 C38 1.234 . S
O61 Mn36 2.209 . S
O61 Mn37 2.215 . S
O61 C38 1.283 . S
O62 Mn36 2.094 . S
O62 C40 1.240 . S
O63 Mn37 2.117 . S
O63 C40 1.264 . S
C64 C57 1.403 1_455 S
C64 C65 1.399 . S
C64 H70 0.929 . S
C65 C45 1.449 . S
C65 C64 1.399 . S
C65 H71 0.930 . S
H66 C46 0.931 . S
H67 C47 0.939 . S
H68 C55 0.931 . S
H69 C56 0.929 . S
H70 C64 0.929 . S
H71 C65 0.930 . S
Mn72 O77 2.095 . S
Mn72 O87 2.162 . S
Mn72 O88 2.297 . S
Mn72 O96 2.385 . S
Mn72 O97 2.209 . S
Mn72 O98 2.094 . S
Mn73 O78 2.121 . S
Mn73 N80 2.257 1_455 S
Mn73 N89 2.282 . S
Mn73 O97 2.215 . S
Mn73 O99 2.117 . S
C74 O96 1.234 . S
C74 O97 1.283 . S
C75 O87 1.281 . S
C75 O88 1.236 . S
C76 O98 1.240 . S
C76 O99 1.264 . S
O77 Mn72 2.095 . S
O77 C86 1.250 . S
O78 Mn73 2.121 . S
O78 C86 1.258 . S
C79 N80 1.326 . S
C79 C83 1.460 . S
C79 H85 0.929 . S
N80 Mn73 2.257 1_655 S
N80 C79 1.326 . S
N80 C84 1.362 . S
C81 C82 1.258 . S
C81 C84 1.431 . S
C81 C101 1.449 . S
C82 C81 1.258 . S
C82 C83 1.477 . S
C82 H102 0.931 . S
C83 C79 1.460 . S
C83 C82 1.477 . S
C83 H103 0.930 . S
C84 N80 1.362 . S
C84 C81 1.431 . S
C84 C94 1.476 1_655 S
H85 C79 0.929 . S
C86 O77 1.250 . S
C86 O78 1.258 . S
O87 Mn72 2.162 . S
O87 C75 1.281 . S
O88 Mn72 2.297 . S
O88 C75 1.236 . S
N89 Mn73 2.282 . S
N89 C90 1.328 . S
N89 C94 1.318 . S
C90 N89 1.328 . S
C90 C91 1.457 . S
C90 H95 0.929 . S
C91 C90 1.457 . S
C91 C92 1.291 . S
C91 H104 0.931 . S
C92 C91 1.291 . S
C92 C93 1.373 . S
C92 H105 0.929 . S
C93 C92 1.373 . S
C93 C94 1.396 . S
C93 C100 1.403 1_455 S
C94 C84 1.476 1_455 S
C94 N89 1.318 . S
C94 C93 1.396 . S
H95 C90 0.929 . S
O96 Mn72 2.385 . S
O96 C74 1.234 . S
O97 Mn72 2.209 . S
O97 Mn73 2.215 . S
O97 C74 1.283 . S
O98 Mn72 2.094 . S
O98 C76 1.240 . S
O99 Mn73 2.117 . S
O99 C76 1.264 . S
C100 C93 1.403 1_655 S
C100 C101 1.399 . S
C100 H106 0.929 . S
C101 C81 1.449 . S
C101 C100 1.399 . S
C101 H107 0.930 . S
H102 C82 0.931 . S
H103 C83 0.930 . S
H104 C91 0.931 . S
H105 C92 0.929 . S
H106 C100 0.929 . S
H107 C101 0.930 . S
Mn108 O113 2.095 . S
Mn108 O123 2.162 . S
Mn108 O124 2.297 . S
Mn108 O132 2.385 . S
Mn108 O133 2.209 . S
Mn108 O134 2.094 . S
Mn109 O114 2.121 . S
Mn109 N116 2.257 1_655 S
Mn109 N125 2.282 . S
Mn109 O133 2.215 . S
Mn109 O135 2.117 . S
C110 O132 1.234 . S
C110 O133 1.283 . S
C111 O123 1.281 . S
C111 O124 1.236 . S
C112 O134 1.240 . S
C112 O135 1.264 . S
O113 Mn108 2.095 . S
O113 C122 1.250 . S
O114 Mn109 2.121 . S
O114 C122 1.258 . S
C115 N116 1.326 . S
C115 C119 1.460 . S
C115 H121 0.929 . S
N116 Mn109 2.257 1_455 S
N116 C115 1.326 . S
N116 C120 1.362 . S
C117 C118 1.258 . S
C117 C120 1.431 . S
C117 C137 1.449 . S
C118 C117 1.258 . S
C118 C119 1.477 . S
C118 H138 0.931 . S
C119 C115 1.460 . S
C119 C118 1.477 . S
C119 H139 0.930 . S
C120 N116 1.362 . S
C120 C117 1.431 . S
C120 C130 1.476 1_455 S
H121 C115 0.929 . S
C122 O113 1.250 . S
C122 O114 1.258 . S
O123 Mn108 2.162 . S
O123 C111 1.281 . S
O124 Mn108 2.297 . S
O124 C111 1.236 . S
N125 Mn109 2.282 . S
N125 C126 1.328 . S
N125 C130 1.318 . S
C126 N125 1.328 . S
C126 C127 1.457 . S
C126 H131 0.929 . S
C127 C126 1.457 . S
C127 C128 1.291 . S
C127 H140 0.931 . S
C128 C127 1.291 . S
C128 C129 1.373 . S
C128 H141 0.929 . S
C129 C128 1.373 . S
C129 C130 1.396 . S
C129 C136 1.403 1_655 S
C130 C120 1.476 1_655 S
C130 N125 1.318 . S
C130 C129 1.396 . S
H131 C126 0.929 . S
O132 Mn108 2.385 . S
O132 C110 1.234 . S
O133 Mn108 2.209 . S
O133 Mn109 2.215 . S
O133 C110 1.283 . S
O134 Mn108 2.094 . S
O134 C112 1.240 . S
O135 Mn109 2.117 . S
O135 C112 1.264 . S
C136 C129 1.403 1_455 S
C136 C137 1.399 . S
C136 H142 0.929 . S
C137 C117 1.449 . S
C137 C136 1.399 . S
C137 H143 0.930 . S
H138 C118 0.931 . S
H139 C119 0.930 . S
H140 C127 0.931 . S
H141 C128 0.929 . S
H142 C136 0.929 . S
H143 C137 0.930 . S
Mn144 O149 2.095 1_554 S
Mn144 O159 2.162 . S
Mn144 O160 2.297 . S
Mn144 O168 2.385 . S
Mn144 O169 2.209 . S
Mn144 O170 2.094 . S
Mn145 O150 2.121 1_554 S
Mn145 N152 2.257 . S
Mn145 N161 2.282 . S
Mn145 O169 2.215 . S
Mn145 O171 2.117 . S
C146 O168 1.234 . S
C146 O169 1.283 . S
C147 O159 1.281 . S
C147 O160 1.236 . S
C148 O170 1.240 . S
C148 O171 1.264 . S
O149 Mn144 2.095 1_556 S
O149 C158 1.250 . S
O150 Mn145 2.121 1_556 S
O150 C158 1.258 . S
C151 N152 1.326 . S
C151 C155 1.460 . S
C151 H157 0.929 1_554 S
N152 Mn145 2.257 . S
N152 C151 1.326 . S
N152 C156 1.362 . S
C153 C154 1.258 . S
C153 C156 1.431 . S
C153 C173 1.449 . S
C154 C153 1.258 . S
C154 C155 1.477 . S
C154 H174 0.931 . S
C155 C151 1.460 . S
C155 C154 1.477 . S
C155 H175 0.939 . S
C156 N152 1.362 . S
C156 C153 1.431 . S
C156 C166 1.476 . S
H157 C151 0.929 1_556 S
C158 O149 1.250 . S
C158 O150 1.258 . S
O159 Mn144 2.162 . S
O159 C147 1.281 . S
O160 Mn144 2.297 . S
O160 C147 1.236 . S
N161 Mn145 2.282 . S
N161 C162 1.328 . S
N161 C166 1.318 . S
C162 N161 1.328 . S
C162 C163 1.457 . S
C162 H167 0.929 . S
C163 C162 1.457 . S
C163 C164 1.291 . S
C163 H176 0.931 . S
C164 C163 1.291 . S
C164 C165 1.373 . S
C164 H177 0.929 . S
C165 C164 1.373 . S
C165 C166 1.396 . S
C165 C172 1.403 . S
C166 C156 1.476 . S
C166 N161 1.318 . S
C166 C165 1.396 . S
H167 C162 0.929 . S
O168 Mn144 2.385 . S
O168 C146 1.234 . S
O169 Mn144 2.209 . S
O169 Mn145 2.215 . S
O169 C146 1.283 . S
O170 Mn144 2.094 . S
O170 C148 1.240 . S
O171 Mn145 2.117 . S
O171 C148 1.264 . S
C172 C165 1.403 . S
C172 C173 1.399 . S
C172 H178 0.929 . S
C173 C153 1.449 . S
C173 C172 1.399 . S
C173 H179 0.930 . S
H174 C154 0.931 . S
H175 C155 0.939 . S
H176 C163 0.931 . S
H177 C164 0.929 . S
H178 C172 0.929 . S
H179 C173 0.930 . S
Mn180 O185 2.095 1_554 S
Mn180 O195 2.162 . S
Mn180 O196 2.297 . S
Mn180 O204 2.385 . S
Mn180 O205 2.209 . S
Mn180 O206 2.094 . S
Mn181 O186 2.121 1_554 S
Mn181 N188 2.257 . S
Mn181 N197 2.282 . S
Mn181 O205 2.215 . S
Mn181 O207 2.117 . S
C182 O204 1.234 . S
C182 O205 1.283 . S
C183 O195 1.281 . S
C183 O196 1.236 . S
C184 O206 1.240 . S
C184 O207 1.264 . S
O185 Mn180 2.095 1_556 S
O185 C194 1.250 . S
O186 Mn181 2.121 1_556 S
O186 C194 1.258 . S
C187 N188 1.326 . S
C187 C191 1.460 . S
C187 H193 0.929 1_554 S
N188 Mn181 2.257 . S
N188 C187 1.326 . S
N188 C192 1.362 . S
C189 C190 1.258 . S
C189 C192 1.431 . S
C189 C209 1.449 . S
C190 C189 1.258 . S
C190 C191 1.477 . S
C190 H210 0.931 . S
C191 C187 1.460 . S
C191 C190 1.477 . S
C191 H211 0.939 . S
C192 N188 1.362 . S
C192 C189 1.431 . S
C192 C202 1.476 . S
H193 C187 0.929 1_556 S
C194 O185 1.250 . S
C194 O186 1.258 . S
O195 Mn180 2.162 . S
O195 C183 1.281 . S
O196 Mn180 2.297 . S
O196 C183 1.236 . S
N197 Mn181 2.282 . S
N197 C198 1.328 . S
N197 C202 1.318 . S
C198 N197 1.328 . S
C198 C199 1.457 . S
C198 H203 0.929 . S
C199 C198 1.457 . S
C199 C200 1.291 . S
C199 H212 0.931 . S
C200 C199 1.291 . S
C200 C201 1.373 . S
C200 H213 0.929 . S
C201 C200 1.373 . S
C201 C202 1.396 . S
C201 C208 1.403 . S
C202 C192 1.476 . S
C202 N197 1.318 . S
C202 C201 1.396 . S
H203 C198 0.929 . S
O204 Mn180 2.385 . S
O204 C182 1.234 . S
O205 Mn180 2.209 . S
O205 Mn181 2.215 . S
O205 C182 1.283 . S
O206 Mn180 2.094 . S
O206 C184 1.240 . S
O207 Mn181 2.117 . S
O207 C184 1.264 . S
C208 C201 1.403 . S
C208 C209 1.399 . S
C208 H214 0.929 . S
C209 C189 1.449 . S
C209 C208 1.399 . S
C209 H215 0.930 . S
H210 C190 0.931 . S
H211 C191 0.939 . S
H212 C199 0.931 . S
H213 C200 0.929 . S
H214 C208 0.929 . S
H215 C209 0.930 . S
Mn216 O221 2.095 . S
Mn216 O231 2.162 . S
Mn216 O232 2.297 . S
Mn216 O240 2.385 . S
Mn216 O241 2.209 . S
Mn216 O242 2.094 . S
Mn217 O222 2.121 . S
Mn217 N224 2.257 . S
Mn217 N233 2.282 . S
Mn217 O241 2.215 . S
Mn217 O243 2.117 . S
C218 O240 1.234 . S
C218 O241 1.283 . S
C219 O231 1.281 . S
C219 O232 1.236 . S
C220 O242 1.240 . S
C220 O243 1.264 . S
O221 Mn216 2.095 . S
O221 C230 1.250 . S
O222 Mn217 2.121 . S
O222 C230 1.258 . S
C223 N224 1.326 . S
C223 C227 1.460 . S
C223 H229 0.929 . S
N224 Mn217 2.257 . S
N224 C223 1.326 . S
N224 C228 1.362 . S
C225 C226 1.258 . S
C225 C228 1.431 . S
C225 C245 1.449 . S
C226 C225 1.258 . S
C226 C227 1.477 . S
C226 H246 0.931 . S
C227 C223 1.460 . S
C227 C226 1.477 . S
C227 H247 0.930 . S
C228 N224 1.362 . S
C228 C225 1.431 . S
C228 C238 1.476 . S
H229 C223 0.929 . S
C230 O221 1.250 . S
C230 O222 1.258 . S
O231 Mn216 2.162 . S
O231 C219 1.281 . S
O232 Mn216 2.297 . S
O232 C219 1.236 . S
N233 Mn217 2.282 . S
N233 C234 1.328 . S
N233 C238 1.318 . S
C234 N233 1.328 . S
C234 C235 1.457 . S
C234 H239 0.929 . S
C235 C234 1.457 . S
C235 C236 1.291 . S
C235 H248 0.931 . S
C236 C235 1.291 . S
C236 C237 1.373 . S
C236 H249 0.929 . S
C237 C236 1.373 . S
C237 C238 1.396 . S
C237 C244 1.403 . S
C238 C228 1.476 . S
C238 N233 1.318 . S
C238 C237 1.396 . S
H239 C234 0.929 . S
O240 Mn216 2.385 . S
O240 C218 1.234 . S
O241 Mn216 2.209 . S
O241 Mn217 2.215 . S
O241 C218 1.283 . S
O242 Mn216 2.094 . S
O242 C220 1.240 . S
O243 Mn217 2.117 . S
O243 C220 1.264 . S
C244 C237 1.403 . S
C244 C245 1.399 . S
C244 H250 0.929 . S
C245 C225 1.449 . S
C245 C244 1.399 . S
C245 H251 0.930 . S
H246 C226 0.931 . S
H247 C227 0.930 . S
H248 C235 0.931 . S
H249 C236 0.929 . S
H250 C244 0.929 . S
H251 C245 0.930 . S
Mn252 O257 2.095 . S
Mn252 O267 2.162 . S
Mn252 O268 2.297 . S
Mn252 O276 2.385 . S
Mn252 O277 2.209 . S
Mn252 O278 2.094 . S
Mn253 O258 2.121 . S
Mn253 N260 2.257 . S
Mn253 N269 2.282 . S
Mn253 O277 2.215 . S
Mn253 O279 2.117 . S
C254 O276 1.234 . S
C254 O277 1.283 . S
C255 O267 1.281 . S
C255 O268 1.236 . S
C256 O278 1.240 . S
C256 O279 1.264 . S
O257 Mn252 2.095 . S
O257 C266 1.250 . S
O258 Mn253 2.121 . S
O258 C266 1.258 . S
C259 N260 1.326 . S
C259 C263 1.460 . S
C259 H265 0.929 . S
N260 Mn253 2.257 . S
N260 C259 1.326 . S
N260 C264 1.362 . S
C261 C262 1.258 . S
C261 C264 1.431 . S
C261 C281 1.449 . S
C262 C261 1.258 . S
C262 C263 1.477 . S
C262 H282 0.931 . S
C263 C259 1.460 . S
C263 C262 1.477 . S
C263 H283 0.930 . S
C264 N260 1.362 . S
C264 C261 1.431 . S
C264 C274 1.476 . S
H265 C259 0.929 . S
C266 O257 1.250 . S
C266 O258 1.258 . S
O267 Mn252 2.162 . S
O267 C255 1.281 . S
O268 Mn252 2.297 . S
O268 C255 1.236 . S
N269 Mn253 2.282 . S
N269 C270 1.328 . S
N269 C274 1.318 . S
C270 N269 1.328 . S
C270 C271 1.457 . S
C270 H275 0.929 . S
C271 C270 1.457 . S
C271 C272 1.291 . S
C271 H284 0.931 . S
C272 C271 1.291 . S
C272 C273 1.373 . S
C272 H285 0.929 . S
C273 C272 1.373 . S
C273 C274 1.396 . S
C273 C280 1.403 . S
C274 C264 1.476 . S
C274 N269 1.318 . S
C274 C273 1.396 . S
H275 C270 0.929 . S
O276 Mn252 2.385 . S
O276 C254 1.234 . S
O277 Mn252 2.209 . S
O277 Mn253 2.215 . S
O277 C254 1.283 . S
O278 Mn252 2.094 . S
O278 C256 1.240 . S
O279 Mn253 2.117 . S
O279 C256 1.264 . S
C280 C273 1.403 . S
C280 C281 1.399 . S
C280 H286 0.929 . S
C281 C261 1.449 . S
C281 C280 1.399 . S
C281 H287 0.930 . S
H282 C262 0.931 . S
H283 C263 0.930 . S
H284 C271 0.931 . S
H285 C272 0.929 . S
H286 C280 0.929 . S
H287 C281 0.930 . S
H288 C306 0.951 . S
H289 C308 0.951 . S
H290 C310 0.950 . S
H291 C311 0.950 . S
H292 C313 0.950 . S
H293 C316 0.950 . S
H294 C317 0.950 . S
H295 C319 0.950 . S
H296 C320 0.950 . S
H297 C321 0.951 . S
H298 C323 0.951 . S
H299 C325 0.950 . S
H300 C326 0.950 . S
H301 C328 0.950 . S
H302 C331 0.950 . S
H303 C332 0.950 . S
H304 C334 0.950 . S
H305 C335 0.950 . S
C306 H288 0.951 . S
C306 C307 1.366 1_556 S
C306 C308 1.388 . S
C307 C306 1.366 1_554 S
C307 C311 1.385 . S
C308 H289 0.951 . S
C308 C306 1.388 . S
C308 C309 1.366 1_556 S
C309 C308 1.366 1_554 S
C309 C310 1.414 . S
C309 C312 1.499 . S
C310 H290 0.950 . S
C310 C309 1.414 . S
C310 C311 1.374 . S
C311 H291 0.950 . S
C311 C307 1.385 . S
C311 C310 1.374 . S
C312 C309 1.499 . S
C312 C313 1.373 . S
C312 C314 1.389 1_654 S
C313 H292 0.950 . S
C313 C312 1.373 . S
C313 C329 1.377 1_565 S
C314 C312 1.389 1_456 S
C314 C315 1.524 . S
C314 C328 1.377 1_565 S
C315 C314 1.524 . S
C315 C316 1.397 . S
C315 C320 1.363 . S
C316 H293 0.950 . S
C316 C315 1.397 . S
C316 C317 1.334 . S
C317 H294 0.950 . S
C317 C316 1.334 . S
C317 C318 1.287 . S
C318 C317 1.287 . S
C318 C319 1.524 . S
C318 H337 0.913 . S
C319 H295 0.950 . S
C319 C318 1.524 . S
C319 C320 1.415 . S
C320 H296 0.950 . S
C320 C315 1.363 . S
C320 C319 1.415 . S
C321 H297 0.951 . S
C321 C322 1.366 . S
C321 C323 1.388 . S
C322 C321 1.366 . S
C322 C326 1.385 1_554 S
C323 H298 0.951 . S
C323 C321 1.388 . S
C323 C324 1.366 . S
C324 C323 1.366 . S
C324 C325 1.414 1_554 S
C324 C327 1.499 . S
C325 H299 0.950 . S
C325 C324 1.414 1_556 S
C325 C326 1.374 . S
C326 H300 0.950 . S
C326 C322 1.385 1_556 S
C326 C325 1.374 . S
C327 C324 1.499 . S
C327 C328 1.373 1_554 S
C327 C329 1.389 1_455 S
C328 H301 0.950 . S
C328 C314 1.377 1_545 S
C328 C327 1.373 1_556 S
C329 C313 1.377 1_545 S
C329 C327 1.389 1_655 S
C329 C330 1.524 . S
C330 C329 1.524 . S
C330 C331 1.397 . S
C330 C335 1.363 . S
C331 H302 0.950 . S
C331 C330 1.397 . S
C331 C332 1.334 . S
C332 H303 0.950 . S
C332 C331 1.334 . S
C332 C333 1.287 . S
C333 C332 1.287 . S
C333 C334 1.524 . S
C333 H336 0.999 . S
C334 H304 0.950 . S
C334 C333 1.524 . S
C334 C335 1.415 . S
C335 H305 0.950 . S
C335 C330 1.363 . S
C335 C334 1.415 . S
H336 C333 0.999 . S
H337 C318 0.913 . S
H338 C356 0.951 . S
H339 C358 0.951 1_655 S
H340 C360 0.950 . S
H341 C361 0.950 . S
H342 C363 0.950 . S
H343 C366 0.950 . S
H344 C367 0.950 . S
H345 C369 0.950 . S
H346 C370 0.950 1_655 S
H347 C371 0.951 . S
H348 C373 0.951 1_455 S
H349 C375 0.950 . S
H350 C376 0.950 . S
H351 C378 0.950 . S
H352 C381 0.950 . S
H353 C382 0.950 . S
H354 C384 0.950 . S
H355 C385 0.950 1_455 S
C356 H338 0.951 . S
C356 C357 1.366 . S
C356 C358 1.388 . S
C357 C356 1.366 . S
C357 C361 1.385 . S
C358 H339 0.951 1_455 S
C358 C356 1.388 . S
C358 C359 1.366 . S
C359 C358 1.366 . S
C359 C360 1.414 . S
C359 C362 1.499 . S
C360 H340 0.950 . S
C360 C359 1.414 . S
C360 C361 1.374 . S
C361 H341 0.950 . S
C361 C357 1.385 . S
C361 C360 1.374 . S
C362 C359 1.499 . S
C362 C363 1.373 1_455 S
C362 C364 1.389 . S
C363 H342 0.950 . S
C363 C362 1.373 1_655 S
C363 C379 1.377 1_565 S
C364 C362 1.389 . S
C364 C365 1.524 . S
C364 C378 1.377 1_565 S
C365 C364 1.524 . S
C365 C366 1.397 . S
C365 C370 1.363 . S
C366 H343 0.950 . S
C366 C365 1.397 . S
C366 C367 1.334 . S
C367 H344 0.950 . S
C367 C366 1.334 . S
C367 C368 1.287 . S
C368 C367 1.287 . S
C368 C369 1.524 . S
C368 H387 0.913 . S
C369 H345 0.950 . S
C369 C368 1.524 . S
C369 C370 1.415 . S
C370 H346 0.950 1_455 S
C370 C365 1.363 . S
C370 C369 1.415 . S
C371 H347 0.951 . S
C371 C372 1.366 . S
C371 C373 1.388 . S
C372 C371 1.366 . S
C372 C376 1.385 . S
C373 H348 0.951 1_655 S
C373 C371 1.388 . S
C373 C374 1.366 . S
C374 C373 1.366 . S
C374 C375 1.414 . S
C374 C377 1.499 . S
C375 H349 0.950 . S
C375 C374 1.414 . S
C375 C376 1.374 . S
C376 H350 0.950 . S
C376 C372 1.385 . S
C376 C375 1.374 . S
C377 C374 1.499 . S
C377 C378 1.373 1_655 S
C377 C379 1.389 . S
C378 H351 0.950 . S
C378 C364 1.377 1_545 S
C378 C377 1.373 1_455 S
C379 C363 1.377 1_545 S
C379 C377 1.389 . S
C379 C380 1.524 . S
C380 C379 1.524 . S
C380 C381 1.397 . S
C380 C385 1.363 . S
C381 H352 0.950 . S
C381 C380 1.397 . S
C381 C382 1.334 . S
C382 H353 0.950 . S
C382 C381 1.334 . S
C382 C383 1.287 . S
C383 C382 1.287 . S
C383 C384 1.524 . S
C383 H386 0.999 . S
C384 H354 0.950 . S
C384 C383 1.524 . S
C384 C385 1.415 . S
C385 H355 0.950 1_655 S
C385 C380 1.363 . S
C385 C384 1.415 . S
H386 C383 0.999 . S
H387 C368 0.913 . S
H388 C406 0.951 . S
H389 C408 0.951 . S
H390 C410 0.950 . S
H391 C411 0.950 . S
H392 C413 0.950 . S
H393 C416 0.950 . S
H394 C417 0.950 . S
H395 C419 0.950 1_556 S
H396 C420 0.942 1_556 S
H397 C421 0.951 . S
H398 C423 0.951 . S
H399 C425 0.950 . S
H400 C426 0.950 . S
H401 C428 0.950 . S
H402 C431 0.950 . S
H403 C432 0.950 . S
H404 C434 0.950 . S
H405 C435 0.950 . S
C406 H388 0.951 . S
C406 C407 1.366 1_556 S
C406 C408 1.388 . S
C407 C406 1.366 1_554 S
C407 C411 1.385 . S
C408 H389 0.951 . S
C408 C406 1.388 . S
C408 C409 1.366 1_556 S
C409 C408 1.366 1_554 S
C409 C410 1.414 . S
C409 C412 1.499 . S
C410 H390 0.950 . S
C410 C409 1.414 . S
C410 C411 1.374 . S
C411 H391 0.950 . S
C411 C407 1.385 . S
C411 C410 1.374 . S
C412 C409 1.499 . S
C412 C413 1.373 . S
C412 C414 1.389 . S
C413 H392 0.950 . S
C413 C412 1.373 . S
C413 C429 1.377 . S
C414 C412 1.389 . S
C414 C415 1.524 . S
C414 C428 1.377 . S
C415 C414 1.524 . S
C415 C416 1.397 . S
C415 C420 1.369 . S
C416 H393 0.950 . S
C416 C415 1.397 . S
C416 C417 1.334 . S
C417 H394 0.950 . S
C417 C416 1.334 . S
C417 C418 1.287 . S
C418 C417 1.287 . S
C418 C419 1.524 . S
C418 H437 0.913 . S
C419 H395 0.950 1_554 S
C419 C418 1.524 . S
C419 C420 1.417 . S
C420 H396 0.942 1_554 S
C420 C415 1.369 . S
C420 C419 1.417 . S
C421 H397 0.951 . S
C421 C422 1.366 . S
C421 C423 1.388 . S
C422 C421 1.366 . S
C422 C426 1.385 1_554 S
C423 H398 0.951 . S
C423 C421 1.388 . S
C423 C424 1.366 . S
C424 C423 1.366 . S
C424 C425 1.414 1_554 S
C424 C427 1.499 . S
C425 H399 0.950 . S
C425 C424 1.414 1_556 S
C425 C426 1.374 . S
C426 H400 0.950 . S
C426 C422 1.385 1_556 S
C426 C425 1.374 . S
C427 C424 1.499 . S
C427 C428 1.373 . S
C427 C429 1.389 . S
C428 H401 0.950 . S
C428 C414 1.377 . S
C428 C427 1.373 . S
C429 C413 1.377 . S
C429 C427 1.389 . S
C429 C430 1.524 1_554 S
C430 C429 1.524 1_556 S
C430 C431 1.397 . S
C430 C435 1.363 1_556 S
C431 H402 0.950 . S
C431 C430 1.397 . S
C431 C432 1.334 . S
C432 H403 0.950 . S
C432 C431 1.334 . S
C432 C433 1.287 . S
C433 C432 1.287 . S
C433 C434 1.524 1_556 S
C433 H436 0.999 . S
C434 H404 0.950 . S
C434 C433 1.524 1_554 S
C434 C435 1.415 . S
C435 H405 0.950 . S
C435 C430 1.363 1_554 S
C435 C434 1.415 . S
H436 C433 0.999 . S
H437 C418 0.913 . S
H438 C456 0.951 . S
H439 C458 0.951 . S
H440 C460 0.950 . S
H441 C461 0.950 . S
H442 C463 0.950 . S
H443 C466 0.950 . S
H444 C467 0.950 . S
H445 C469 0.950 . S
H446 C470 0.950 . S
H447 C471 0.951 . S
H448 C473 0.951 . S
H449 C475 0.950 . S
H450 C476 0.950 . S
H451 C478 0.950 . S
H452 C481 0.950 . S
H453 C482 0.950 . S
H454 C484 0.950 . S
H455 C485 0.950 . S
C456 H438 0.951 . S
C456 C457 1.366 . S
C456 C458 1.388 . S
C457 C456 1.366 . S
C457 C461 1.385 . S
C458 H439 0.951 . S
C458 C456 1.388 . S
C458 C459 1.366 . S
C459 C458 1.366 . S
C459 C460 1.414 . S
C459 C462 1.499 . S
C460 H440 0.950 . S
C460 C459 1.414 . S
C460 C461 1.374 . S
C461 H441 0.950 . S
C461 C457 1.385 . S
C461 C460 1.374 . S
C462 C459 1.499 . S
C462 C463 1.373 . S
C462 C464 1.389 . S
C463 H442 0.950 . S
C463 C462 1.373 . S
C463 C479 1.377 . S
C464 C462 1.389 . S
C464 C465 1.524 . S
C464 C478 1.377 . S
C465 C464 1.524 . S
C465 C466 1.397 . S
C465 C470 1.363 . S
C466 H443 0.950 . S
C466 C465 1.397 . S
C466 C467 1.334 . S
C467 H444 0.950 . S
C467 C466 1.334 . S
C467 C468 1.287 . S
C468 C467 1.287 . S
C468 C469 1.524 . S
C468 H487 0.913 . S
C469 H445 0.950 . S
C469 C468 1.524 . S
C469 C470 1.415 . S
C470 H446 0.950 . S
C470 C465 1.363 . S
C470 C469 1.415 . S
C471 H447 0.951 . S
C471 C472 1.366 . S
C471 C473 1.388 . S
C472 C471 1.366 . S
C472 C476 1.385 . S
C473 H448 0.951 . S
C473 C471 1.388 . S
C473 C474 1.366 . S
C474 C473 1.366 . S
C474 C475 1.414 . S
C474 C477 1.499 . S
C475 H449 0.950 . S
C475 C474 1.414 . S
C475 C476 1.374 . S
C476 H450 0.950 . S
C476 C472 1.385 . S
C476 C475 1.374 . S
C477 C474 1.499 . S
C477 C478 1.373 . S
C477 C479 1.389 . S
C478 H451 0.950 . S
C478 C464 1.377 . S
C478 C477 1.373 . S
C479 C463 1.377 . S
C479 C477 1.389 . S
C479 C480 1.524 . S
C480 C479 1.524 . S
C480 C481 1.397 . S
C480 C485 1.363 . S
C481 H452 0.950 . S
C481 C480 1.397 . S
C481 C482 1.334 . S
C482 H453 0.950 . S
C482 C481 1.334 . S
C482 C483 1.287 . S
C483 C482 1.287 . S
C483 C484 1.524 . S
C483 H486 0.999 . S
C484 H454 0.950 . S
C484 C483 1.524 . S
C484 C485 1.415 . S
C485 H455 0.950 . S
C485 C480 1.363 . S
C485 C484 1.415 . S
H486 C483 0.999 . S
H487 C468 0.913 . S
H488 C506 0.951 . S
H489 C508 0.951 . S
H490 C510 0.950 1_655 S
H491 C511 0.950 . S
H492 C513 0.950 . S
H493 C516 0.950 . S
H494 C517 0.950 . S
H495 C519 0.950 . S
H496 C520 0.950 . S
H497 C521 0.951 . S
H498 C523 0.951 . S
H499 C525 0.950 1_455 S
H500 C526 0.950 . S
H501 C528 0.950 . S
H502 C531 0.950 . S
H503 C532 0.950 . S
H504 C534 0.950 . S
H505 C535 0.950 . S
C506 H488 0.951 . S
C506 C507 1.366 . S
C506 C508 1.388 . S
C507 C506 1.366 . S
C507 C511 1.385 . S
C508 H489 0.951 . S
C508 C506 1.388 . S
C508 C509 1.366 . S
C509 C508 1.366 . S
C509 C510 1.414 . S
C509 C512 1.499 . S
C510 H490 0.950 1_455 S
C510 C509 1.414 . S
C510 C511 1.374 . S
C511 H491 0.950 . S
C511 C507 1.385 . S
C511 C510 1.374 . S
C512 C509 1.499 . S
C512 C513 1.373 1_455 S
C512 C514 1.389 . S
C513 H492 0.950 . S
C513 C512 1.373 1_655 S
C513 C529 1.377 . S
C514 C512 1.389 . S
C514 C515 1.524 . S
C514 C528 1.377 . S
C515 C514 1.524 . S
C515 C516 1.397 . S
C515 C520 1.363 . S
C516 H493 0.950 . S
C516 C515 1.397 . S
C516 C517 1.334 . S
C517 H494 0.950 . S
C517 C516 1.334 . S
C517 C518 1.287 . S
C518 C517 1.287 . S
C518 C519 1.524 . S
C518 H537 0.913 . S
C519 H495 0.950 . S
C519 C518 1.524 . S
C519 C520 1.415 . S
C520 H496 0.950 . S
C520 C515 1.363 . S
C520 C519 1.415 . S
C521 H497 0.951 . S
C521 C522 1.366 . S
C521 C523 1.388 . S
C522 C521 1.366 . S
C522 C526 1.385 . S
C523 H498 0.951 . S
C523 C521 1.388 . S
C523 C524 1.366 . S
C524 C523 1.366 . S
C524 C525 1.414 . S
C524 C527 1.499 . S
C525 H499 0.950 1_655 S
C525 C524 1.414 . S
C525 C526 1.374 . S
C526 H500 0.950 . S
C526 C522 1.385 . S
C526 C525 1.374 . S
C527 C524 1.499 . S
C527 C528 1.373 1_655 S
C527 C529 1.389 . S
C528 H501 0.950 . S
C528 C514 1.377 . S
C528 C527 1.373 1_455 S
C529 C513 1.377 . S
C529 C527 1.389 . S
C529 C530 1.524 . S
C530 C529 1.524 . S
C530 C531 1.397 . S
C530 C535 1.363 . S
C531 H502 0.950 . S
C531 C530 1.397 . S
C531 C532 1.334 . S
C532 H503 0.950 . S
C532 C531 1.334 . S
C532 C533 1.287 . S
C533 C532 1.287 . S
C533 C534 1.524 . S
C533 H536 0.999 . S
C534 H504 0.950 . S
C534 C533 1.524 . S
C534 C535 1.415 . S
C535 H505 0.950 . S
C535 C530 1.363 . S
C535 C534 1.415 . S
H536 C533 0.999 . S
H537 C518 0.913 . S
H538 C556 0.951 . S
H539 C558 0.951 1_655 S
H540 C560 0.950 . S
H541 C561 0.950 . S
H542 C563 0.950 . S
H543 C566 0.950 . S
H544 C567 0.950 . S
H545 C569 0.950 . S
H546 C570 0.950 . S
H547 C571 0.951 . S
H548 C573 0.951 1_455 S
H549 C575 0.950 . S
H550 C576 0.950 . S
H551 C578 0.950 . S
H552 C581 0.950 . S
H553 C582 0.950 . S
H554 C584 0.950 . S
H555 C585 0.950 . S
C556 H538 0.951 . S
C556 C557 1.366 . S
C556 C558 1.388 . S
C557 C556 1.366 . S
C557 C561 1.385 . S
C558 H539 0.951 1_455 S
C558 C556 1.388 . S
C558 C559 1.366 . S
C559 C558 1.366 . S
C559 C560 1.414 . S
C559 C562 1.499 . S
C560 H540 0.950 . S
C560 C559 1.414 . S
C560 C561 1.374 . S
C561 H541 0.950 . S
C561 C557 1.385 . S
C561 C560 1.374 . S
C562 C559 1.499 . S
C562 C563 1.373 1_455 S
C562 C564 1.389 . S
C563 H542 0.950 . S
C563 C562 1.373 1_655 S
C563 C579 1.377 . S
C564 C562 1.389 . S
C564 C565 1.524 . S
C564 C578 1.377 . S
C565 C564 1.524 . S
C565 C566 1.397 . S
C565 C570 1.363 . S
C566 H543 0.950 . S
C566 C565 1.397 . S
C566 C567 1.334 . S
C567 H544 0.950 . S
C567 C566 1.334 . S
C567 C568 1.287 . S
C568 C567 1.287 . S
C568 C569 1.524 . S
C568 H587 0.913 . S
C569 H545 0.950 . S
C569 C568 1.524 . S
C569 C570 1.415 . S
C570 H546 0.950 . S
C570 C565 1.363 . S
C570 C569 1.415 . S
C571 H547 0.951 . S
C571 C572 1.366 . S
C571 C573 1.388 . S
C572 C571 1.366 . S
C572 C576 1.385 . S
C573 H548 0.951 1_655 S
C573 C571 1.388 . S
C573 C574 1.366 . S
C574 C573 1.366 . S
C574 C575 1.414 . S
C574 C577 1.499 . S
C575 H549 0.950 . S
C575 C574 1.414 . S
C575 C576 1.374 . S
C576 H550 0.950 . S
C576 C572 1.385 . S
C576 C575 1.374 . S
C577 C574 1.499 . S
C577 C578 1.373 1_655 S
C577 C579 1.389 . S
C578 H551 0.950 . S
C578 C564 1.377 . S
C578 C577 1.373 1_455 S
C579 C563 1.377 . S
C579 C577 1.389 . S
C579 C580 1.524 . S
C580 C579 1.524 . S
C580 C581 1.397 . S
C580 C585 1.363 . S
C581 H552 0.950 . S
C581 C580 1.397 . S
C581 C582 1.334 . S
C582 H553 0.950 . S
C582 C581 1.334 . S
C582 C583 1.287 . S
C583 C582 1.287 . S
C583 C584 1.524 . S
C583 H586 0.999 . S
C584 H554 0.950 . S
C584 C583 1.524 . S
C584 C585 1.415 . S
C585 H555 0.950 . S
C585 C580 1.363 . S
C585 C584 1.415 . S
H586 C583 0.999 . S
H587 C568 0.913 . S
H588 C606 0.951 . S
H589 C608 0.951 . S
H590 C610 0.950 . S
H591 C611 0.950 . S
H592 C613 0.950 . S
H593 C616 0.950 . S
H594 C617 0.950 . S
H595 C619 0.950 . S
H596 C620 0.950 . S
H597 C621 0.951 . S
H598 C623 0.951 . S
H599 C625 0.950 . S
H600 C626 0.950 . S
H601 C628 0.950 . S
H602 C631 0.950 . S
H603 C632 0.950 . S
H604 C634 0.950 . S
H605 C635 0.950 . S
C606 H588 0.951 . S
C606 C607 1.366 . S
C606 C608 1.388 . S
C607 C606 1.366 . S
C607 C611 1.385 . S
C608 H589 0.951 . S
C608 C606 1.388 . S
C608 C609 1.366 . S
C609 C608 1.366 . S
C609 C610 1.414 . S
C609 C612 1.499 . S
C610 H590 0.950 . S
C610 C609 1.414 . S
C610 C611 1.374 . S
C611 H591 0.950 . S
C611 C607 1.385 . S
C611 C610 1.374 . S
C612 C609 1.499 . S
C612 C613 1.373 . S
C612 C614 1.389 1_455 S
C613 H592 0.950 . S
C613 C612 1.373 . S
C613 C629 1.377 . S
C614 C612 1.389 1_655 S
C614 C615 1.524 . S
C614 C628 1.377 . S
C615 C614 1.524 . S
C615 C616 1.397 . S
C615 C620 1.363 . S
C616 H593 0.950 . S
C616 C615 1.397 . S
C616 C617 1.334 . S
C617 H594 0.950 . S
C617 C616 1.334 . S
C617 C618 1.287 . S
C618 C617 1.287 . S
C618 C619 1.524 . S
C618 H637 0.913 . S
C619 H595 0.950 . S
C619 C618 1.524 . S
C619 C620 1.415 . S
C620 H596 0.950 . S
C620 C615 1.363 . S
C620 C619 1.415 . S
C621 H597 0.951 . S
C621 C622 1.366 . S
C621 C623 1.388 . S
C622 C621 1.366 . S
C622 C626 1.385 . S
C623 H598 0.951 . S
C623 C621 1.388 . S
C623 C624 1.366 . S
C624 C623 1.366 . S
C624 C625 1.414 . S
C624 C627 1.499 . S
C625 H599 0.950 . S
C625 C624 1.414 . S
C625 C626 1.374 . S
C626 H600 0.950 . S
C626 C622 1.385 . S
C626 C625 1.374 . S
C627 C624 1.499 . S
C627 C628 1.373 . S
C627 C629 1.389 1_655 S
C628 H601 0.950 . S
C628 C614 1.377 . S
C628 C627 1.373 . S
C629 C613 1.377 . S
C629 C627 1.389 1_455 S
C629 C630 1.524 . S
C630 C629 1.524 . S
C630 C631 1.397 . S
C630 C635 1.363 . S
C631 H602 0.950 . S
C631 C630 1.397 . S
C631 C632 1.334 . S
C632 H603 0.950 . S
C632 C631 1.334 . S
C632 C633 1.287 . S
C633 C632 1.287 . S
C633 C634 1.524 . S
C633 H636 0.999 . S
C634 H604 0.950 . S
C634 C633 1.524 . S
C634 C635 1.415 . S
C635 H605 0.950 . S
C635 C630 1.363 . S
C635 C634 1.415 . S
H636 C633 0.999 . S
H637 C618 0.913 . S
H638 C656 0.951 . S
H639 C658 0.951 . S
H640 C660 0.950 . S
H641 C661 0.950 . S
H642 C663 0.950 . S
H643 C666 0.950 . S
H644 C667 0.950 . S
H645 C669 0.950 . S
H646 C670 0.950 . S
H647 C671 0.951 . S
H648 C673 0.951 . S
H649 C675 0.950 . S
H650 C676 0.950 . S
H651 C678 0.950 . S
H652 C681 0.950 . S
H653 C682 0.950 . S
H654 C684 0.950 . S
H655 C685 0.950 . S
C656 H638 0.951 . S
C656 C657 1.366 1_655 S
C656 C658 1.388 . S
C657 C656 1.366 1_455 S
C657 C661 1.385 . S
C658 H639 0.951 . S
C658 C656 1.388 . S
C658 C659 1.366 1_655 S
C659 C658 1.366 1_455 S
C659 C660 1.414 . S
C659 C662 1.499 . S
C660 H640 0.950 . S
C660 C659 1.414 . S
C660 C661 1.374 . S
C661 H641 0.950 . S
C661 C657 1.385 . S
C661 C660 1.374 . S
C662 C659 1.499 . S
C662 C663 1.373 . S
C662 C664 1.389 . S
C663 H642 0.950 . S
C663 C662 1.373 . S
C663 C679 1.377 1_455 S
C664 C662 1.389 . S
C664 C665 1.524 . S
C664 C678 1.377 1_455 S
C665 C664 1.524 . S
C665 C666 1.397 . S
C665 C670 1.363 1_455 S
C666 H643 0.950 . S
C666 C665 1.397 . S
C666 C667 1.334 . S
C667 H644 0.950 . S
C667 C666 1.334 . S
C667 C668 1.287 . S
C668 C667 1.287 . S
C668 C669 1.524 1_455 S
C668 H687 0.913 . S
C669 H645 0.950 . S
C669 C668 1.524 1_655 S
C669 C670 1.415 . S
C670 H646 0.950 . S
C670 C665 1.363 1_655 S
C670 C669 1.415 . S
C671 H647 0.951 . S
C671 C672 1.366 1_455 S
C671 C673 1.388 . S
C672 C671 1.366 1_655 S
C672 C676 1.385 . S
C673 H648 0.951 . S
C673 C671 1.388 . S
C673 C674 1.366 1_455 S
C674 C673 1.366 1_655 S
C674 C675 1.414 . S
C674 C677 1.499 . S
C675 H649 0.950 . S
C675 C674 1.414 . S
C675 C676 1.374 . S
C676 H650 0.950 . S
C676 C672 1.385 . S
C676 C675 1.374 . S
C677 C674 1.499 . S
C677 C678 1.373 . S
C677 C679 1.389 . S
C678 H651 0.950 . S
C678 C664 1.377 1_655 S
C678 C677 1.373 . S
C679 C663 1.377 1_655 S
C679 C677 1.389 . S
C679 C680 1.524 . S
C680 C679 1.524 . S
C680 C681 1.397 . S
C680 C685 1.363 1_655 S
C681 H652 0.950 . S
C681 C680 1.397 . S
C681 C682 1.334 . S
C682 H653 0.950 . S
C682 C681 1.334 . S
C682 C683 1.287 . S
C683 C682 1.287 . S
C683 C684 1.524 1_655 S
C683 H686 0.999 . S
C684 H654 0.950 . S
C684 C683 1.524 1_455 S
C684 C685 1.415 . S
C685 H655 0.950 . S
C685 C680 1.363 1_455 S
C685 C684 1.415 . S
H686 C683 0.999 . S
H687 C668 0.913 . S
H688 C706 0.951 . S
H689 C708 0.951 . S
H690 C710 0.950 . S
H691 C711 0.950 . S
H692 C713 0.950 . S
H693 C716 0.950 . S
H694 C717 0.950 . S
H695 C719 0.950 . S
H696 C720 0.950 . S
H697 C721 0.951 . S
H698 C723 0.951 . S
H699 C725 0.950 . S
H700 C726 0.950 . S
H701 C728 0.950 . S
H702 C731 0.950 . S
H703 C732 0.950 . S
H704 C734 0.950 . S
H705 C735 0.950 . S
C706 H688 0.951 . S
C706 C707 1.366 . S
C706 C708 1.388 . S
C707 C706 1.366 . S
C707 C711 1.385 . S
C708 H689 0.951 . S
C708 C706 1.388 . S
C708 C709 1.366 . S
C709 C708 1.366 . S
C709 C710 1.414 . S
C709 C712 1.499 . S
C710 H690 0.950 . S
C710 C709 1.414 . S
C710 C711 1.374 . S
C711 H691 0.950 . S
C711 C707 1.385 . S
C711 C710 1.374 . S
C712 C709 1.499 . S
C712 C713 1.373 . S
C712 C714 1.389 . S
C713 H692 0.950 . S
C713 C712 1.373 . S
C713 C729 1.377 . S
C714 C712 1.389 . S
C714 C715 1.524 . S
C714 C728 1.377 . S
C715 C714 1.524 . S
C715 C716 1.397 . S
C715 C720 1.363 . S
C716 H693 0.950 . S
C716 C715 1.397 . S
C716 C717 1.334 . S
C717 H694 0.950 . S
C717 C716 1.334 . S
C717 C718 1.287 . S
C718 C717 1.287 . S
C718 C719 1.524 . S
C718 H737 0.913 . S
C719 H695 0.950 . S
C719 C718 1.524 . S
C719 C720 1.415 . S
C720 H696 0.950 . S
C720 C715 1.363 . S
C720 C719 1.415 . S
C721 H697 0.951 . S
C721 C722 1.366 . S
C721 C723 1.388 . S
C722 C721 1.366 . S
C722 C726 1.385 . S
C723 H698 0.951 . S
C723 C721 1.388 . S
C723 C724 1.366 . S
C724 C723 1.366 . S
C724 C725 1.414 . S
C724 C727 1.499 . S
C725 H699 0.950 . S
C725 C724 1.414 . S
C725 C726 1.374 . S
C726 H700 0.950 . S
C726 C722 1.385 . S
C726 C725 1.374 . S
C727 C724 1.499 . S
C727 C728 1.373 . S
C727 C729 1.389 . S
C728 H701 0.950 . S
C728 C714 1.377 . S
C728 C727 1.373 . S
C729 C713 1.377 . S
C729 C727 1.389 . S
C729 C730 1.524 . S
C730 C729 1.524 . S
C730 C731 1.397 . S
C730 C735 1.363 . S
C731 H702 0.950 . S
C731 C730 1.397 . S
C731 C732 1.334 . S
C732 H703 0.950 . S
C732 C731 1.334 . S
C732 C733 1.287 . S
C733 C732 1.287 . S
C733 C734 1.524 . S
C733 H736 0.999 . S
C734 H704 0.950 . S
C734 C733 1.524 . S
C734 C735 1.415 . S
C735 H705 0.950 . S
C735 C730 1.363 . S
C735 C734 1.415 . S
H736 C733 0.999 . S
H737 C718 0.913 . S
H738 C756 0.951 . S
H739 C758 0.951 . S
H740 C760 0.950 . S
H741 C761 0.950 . S
H742 C763 0.950 . S
H743 C766 0.950 . S
H744 C767 0.950 . S
H745 C769 0.950 . S
H746 C770 0.950 . S
H747 C771 0.951 . S
H748 C773 0.951 . S
H749 C775 0.950 . S
H750 C776 0.950 . S
H751 C778 0.950 . S
H752 C781 0.950 . S
H753 C782 0.950 . S
H754 C784 0.950 . S
H755 C785 0.950 . S
C756 H738 0.951 . S
C756 C757 1.366 . S
C756 C758 1.388 . S
C757 C756 1.366 . S
C757 C761 1.385 . S
C758 H739 0.951 . S
C758 C756 1.388 . S
C758 C759 1.366 . S
C759 C758 1.366 . S
C759 C760 1.414 . S
C759 C762 1.499 . S
C760 H740 0.950 . S
C760 C759 1.414 . S
C760 C761 1.374 . S
C761 H741 0.950 . S
C761 C757 1.385 . S
C761 C760 1.374 . S
C762 C759 1.499 . S
C762 C763 1.373 . S
C762 C764 1.389 . S
C763 H742 0.950 . S
C763 C762 1.373 . S
C763 C779 1.377 . S
C764 C762 1.389 . S
C764 C765 1.524 . S
C764 C778 1.377 . S
C765 C764 1.524 . S
C765 C766 1.397 . S
C765 C770 1.363 . S
C766 H743 0.950 . S
C766 C765 1.397 . S
C766 C767 1.334 . S
C767 H744 0.950 . S
C767 C766 1.334 . S
C767 C768 1.287 . S
C768 C767 1.287 . S
C768 C769 1.524 . S
C768 H787 0.913 . S
C769 H745 0.950 . S
C769 C768 1.524 . S
C769 C770 1.415 . S
C770 H746 0.950 . S
C770 C765 1.363 . S
C770 C769 1.415 . S
C771 H747 0.951 . S
C771 C772 1.366 . S
C771 C773 1.388 . S
C772 C771 1.366 . S
C772 C776 1.385 . S
C773 H748 0.951 . S
C773 C771 1.388 . S
C773 C774 1.366 . S
C774 C773 1.366 . S
C774 C775 1.414 . S
C774 C777 1.499 . S
C775 H749 0.950 . S
C775 C774 1.414 . S
C775 C776 1.374 . S
C776 H750 0.950 . S
C776 C772 1.385 . S
C776 C775 1.374 . S
C777 C774 1.499 . S
C777 C778 1.373 . S
C777 C779 1.389 . S
C778 H751 0.950 . S
C778 C764 1.377 . S
C778 C777 1.373 . S
C779 C763 1.377 . S
C779 C777 1.389 . S
C779 C780 1.524 . S
C780 C779 1.524 . S
C780 C781 1.397 . S
C780 C785 1.363 . S
C781 H752 0.950 . S
C781 C780 1.397 . S
C781 C782 1.334 . S
C782 H753 0.950 . S
C782 C781 1.334 . S
C782 C783 1.287 . S
C783 C782 1.287 . S
C783 C784 1.524 . S
C783 H786 0.999 . S
C784 H754 0.950 . S
C784 C783 1.524 . S
C784 C785 1.415 . S
C785 H755 0.950 . S
C785 C780 1.363 . S
C785 C784 1.415 . S
H786 C783 0.999 . S
H787 C768 0.913 . S
H788 C806 0.951 . S
H789 C808 0.951 . S
H790 C810 0.950 . S
H791 C811 0.950 . S
H792 C813 0.950 . S
H793 C816 0.950 . S
H794 C817 0.950 . S
H795 C819 0.950 . S
H796 C820 0.950 . S
H797 C821 0.951 . S
H798 C823 0.951 . S
H799 C825 0.950 . S
H800 C826 0.950 . S
H801 C828 0.950 . S
H802 C831 0.950 . S
H803 C832 0.950 . S
H804 C834 0.950 . S
H805 C835 0.950 . S
C806 H788 0.951 . S
C806 C807 1.366 . S
C806 C808 1.388 . S
C807 C806 1.366 . S
C807 C811 1.385 . S
C808 H789 0.951 . S
C808 C806 1.388 . S
C808 C809 1.366 . S
C809 C808 1.366 . S
C809 C810 1.414 . S
C809 C812 1.499 . S
C810 H790 0.950 . S
C810 C809 1.414 . S
C810 C811 1.374 . S
C811 H791 0.950 . S
C811 C807 1.385 . S
C811 C810 1.374 . S
C812 C809 1.499 . S
C812 C813 1.373 . S
C812 C814 1.389 . S
C813 H792 0.950 . S
C813 C812 1.373 . S
C813 C829 1.377 . S
C814 C812 1.389 . S
C814 C815 1.524 . S
C814 C828 1.377 . S
C815 C814 1.524 . S
C815 C816 1.397 . S
C815 C820 1.363 . S
C816 H793 0.950 . S
C816 C815 1.397 . S
C816 C817 1.334 . S
C817 H794 0.950 . S
C817 C816 1.334 . S
C817 C818 1.287 . S
C818 C817 1.287 . S
C818 C819 1.524 . S
C818 H837 0.913 . S
C819 H795 0.950 . S
C819 C818 1.524 . S
C819 C820 1.415 . S
C820 H796 0.950 . S
C820 C815 1.363 . S
C820 C819 1.415 . S
C821 H797 0.951 . S
C821 C822 1.366 . S
C821 C823 1.388 . S
C822 C821 1.366 . S
C822 C826 1.385 . S
C823 H798 0.951 . S
C823 C821 1.388 . S
C823 C824 1.366 . S
C824 C823 1.366 . S
C824 C825 1.414 . S
C824 C827 1.499 . S
C825 H799 0.950 . S
C825 C824 1.414 . S
C825 C826 1.374 . S
C826 H800 0.950 . S
C826 C822 1.385 . S
C826 C825 1.374 . S
C827 C824 1.499 . S
C827 C828 1.373 . S
C827 C829 1.389 . S
C828 H801 0.950 . S
C828 C814 1.377 . S
C828 C827 1.373 . S
C829 C813 1.377 . S
C829 C827 1.389 . S
C829 C830 1.524 . S
C830 C829 1.524 . S
C830 C831 1.397 . S
C830 C835 1.363 . S
C831 H802 0.950 . S
C831 C830 1.397 . S
C831 C832 1.334 . S
C832 H803 0.950 . S
C832 C831 1.334 . S
C832 C833 1.287 . S
C833 C832 1.287 . S
C833 C834 1.524 . S
C833 H836 0.999 . S
C834 H804 0.950 . S
C834 C833 1.524 . S
C834 C835 1.415 . S
C835 H805 0.950 . S
C835 C830 1.363 . S
C835 C834 1.415 . S
H836 C833 0.999 . S
H837 C818 0.913 . S
H838 C856 0.951 . S
H839 C858 0.951 . S
H840 C860 0.950 . S
H841 C861 0.950 . S
H842 C863 0.950 . S
H843 C866 0.950 . S
H844 C867 0.950 . S
H845 C869 0.950 . S
H846 C870 0.950 . S
H847 C871 0.951 . S
H848 C873 0.951 . S
H849 C875 0.950 . S
H850 C876 0.950 . S
H851 C878 0.950 . S
H852 C881 0.950 . S
H853 C882 0.950 . S
H854 C884 0.950 . S
H855 C885 0.950 . S
C856 H838 0.951 . S
C856 C857 1.366 . S
C856 C858 1.388 . S
C857 C856 1.366 . S
C857 C861 1.385 . S
C858 H839 0.951 . S
C858 C856 1.388 . S
C858 C859 1.366 . S
C859 C858 1.366 . S
C859 C860 1.414 . S
C859 C862 1.499 . S
C860 H840 0.950 . S
C860 C859 1.414 . S
C860 C861 1.374 . S
C861 H841 0.950 . S
C861 C857 1.385 . S
C861 C860 1.374 . S
C862 C859 1.499 . S
C862 C863 1.373 . S
C862 C864 1.389 . S
C863 H842 0.950 . S
C863 C862 1.373 . S
C863 C879 1.377 . S
C864 C862 1.389 . S
C864 C865 1.524 . S
C864 C878 1.377 . S
C865 C864 1.524 . S
C865 C866 1.397 . S
C865 C870 1.363 . S
C866 H843 0.950 . S
C866 C865 1.397 . S
C866 C867 1.334 . S
C867 H844 0.950 . S
C867 C866 1.334 . S
C867 C868 1.287 . S
C868 C867 1.287 . S
C868 C869 1.524 . S
C868 H887 0.913 . S
C869 H845 0.950 . S
C869 C868 1.524 . S
C869 C870 1.415 . S
C870 H846 0.950 . S
C870 C865 1.363 . S
C870 C869 1.415 . S
C871 H847 0.951 . S
C871 C872 1.366 . S
C871 C873 1.388 . S
C872 C871 1.366 . S
C872 C876 1.385 . S
C873 H848 0.951 . S
C873 C871 1.388 . S
C873 C874 1.366 . S
C874 C873 1.366 . S
C874 C875 1.414 . S
C874 C877 1.499 . S
C875 H849 0.950 . S
C875 C874 1.414 . S
C875 C876 1.374 . S
C876 H850 0.950 . S
C876 C872 1.385 . S
C876 C875 1.374 . S
C877 C874 1.499 . S
C877 C878 1.373 . S
C877 C879 1.389 . S
C878 H851 0.950 . S
C878 C864 1.377 . S
C878 C877 1.373 . S
C879 C863 1.377 . S
C879 C877 1.389 . S
C879 C880 1.524 . S
C880 C879 1.524 . S
C880 C881 1.397 . S
C880 C885 1.363 . S
C881 H852 0.950 . S
C881 C880 1.397 . S
C881 C882 1.334 . S
C882 H853 0.950 . S
C882 C881 1.334 . S
C882 C883 1.287 . S
C883 C882 1.287 . S
C883 C884 1.524 . S
C883 H886 0.999 . S
C884 H854 0.950 . S
C884 C883 1.524 . S
C884 C885 1.415 . S
C885 H855 0.950 . S
C885 C880 1.363 . S
C885 C884 1.415 . S
H886 C883 0.999 . S
H887 C868 0.913 . S
H888 C906 0.951 1_556 S
H889 C908 0.951 1_556 S
H890 C910 0.950 . S
H891 C911 0.950 . S
H892 C913 0.950 . S
H893 C916 0.950 . S
H894 C917 0.950 . S
H895 C919 0.950 . S
H896 C920 0.950 . S
H897 C921 0.951 . S
H898 C923 0.951 . S
H899 C925 0.950 1_556 S
H900 C926 0.947 1_556 S
H901 C928 0.950 . S
H902 C931 0.950 . S
H903 C932 0.950 . S
H904 C934 0.950 . S
H905 C935 0.950 . S
C906 H888 0.951 1_554 S
C906 C907 1.366 . S
C906 C908 1.388 . S
C907 C906 1.366 . S
C907 C911 1.385 . S
C908 H889 0.951 1_554 S
C908 C906 1.388 . S
C908 C909 1.366 . S
C909 C908 1.366 . S
C909 C910 1.414 . S
C909 C912 1.499 . S
C910 H890 0.950 . S
C910 C909 1.414 . S
C910 C911 1.374 . S
C911 H891 0.950 . S
C911 C907 1.385 . S
C911 C910 1.374 . S
C912 C909 1.499 . S
C912 C913 1.373 1_554 S
C912 C914 1.389 . S
C913 H892 0.950 . S
C913 C912 1.373 1_556 S
C913 C929 1.377 . S
C914 C912 1.389 . S
C914 C915 1.524 . S
C914 C928 1.377 . S
C915 C914 1.524 . S
C915 C916 1.397 . S
C915 C920 1.363 . S
C916 H893 0.950 . S
C916 C915 1.397 . S
C916 C917 1.334 . S
C917 H894 0.950 . S
C917 C916 1.334 . S
C917 C918 1.287 . S
C918 C917 1.287 . S
C918 C919 1.524 . S
C918 H937 0.913 . S
C919 H895 0.950 . S
C919 C918 1.524 . S
C919 C920 1.415 . S
C920 H896 0.950 . S
C920 C915 1.363 . S
C920 C919 1.415 . S
C921 H897 0.951 . S
C921 C922 1.366 . S
C921 C923 1.388 . S
C922 C921 1.366 . S
C922 C926 1.389 . S
C923 H898 0.951 . S
C923 C921 1.388 . S
C923 C924 1.366 . S
C924 C923 1.366 . S
C924 C925 1.414 . S
C924 C927 1.499 . S
C925 H899 0.950 1_554 S
C925 C924 1.414 . S
C925 C926 1.374 . S
C926 H900 0.947 1_554 S
C926 C922 1.389 . S
C926 C925 1.374 . S
C927 C924 1.499 . S
C927 C928 1.373 . S
C927 C929 1.389 1_554 S
C928 H901 0.950 . S
C928 C914 1.377 . S
C928 C927 1.373 . S
C929 C913 1.377 . S
C929 C927 1.389 1_556 S
C929 C930 1.524 . S
C930 C929 1.524 . S
C930 C931 1.397 . S
C930 C935 1.363 . S
C931 H902 0.950 . S
C931 C930 1.397 . S
C931 C932 1.334 . S
C932 H903 0.950 . S
C932 C931 1.334 . S
C932 C933 1.287 . S
C933 C932 1.287 . S
C933 C934 1.524 . S
C933 H936 0.999 . S
C934 H904 0.950 . S
C934 C933 1.524 . S
C934 C935 1.415 . S
C935 H905 0.950 . S
C935 C930 1.363 . S
C935 C934 1.415 . S
H936 C933 0.999 . S
H937 C918 0.913 . S
H938 C956 0.951 . S
H939 C958 0.951 . S
H940 C960 0.950 . S
H941 C961 0.950 . S
H942 C963 0.950 . S
H943 C966 0.950 . S
H944 C967 0.950 . S
H945 C969 0.964 . S
H946 C970 0.950 . S
H947 C971 0.951 . S
H948 C973 0.951 . S
H949 C975 0.950 . S
H950 C976 0.950 . S
H951 C978 0.950 . S
H952 C981 0.950 . S
H953 C982 0.950 . S
H954 C984 0.950 . S
H955 C985 0.950 . S
C956 H938 0.951 . S
C956 C957 1.366 1_556 S
C956 C958 1.388 . S
C957 C956 1.366 1_554 S
C957 C961 1.385 . S
C958 H939 0.951 . S
C958 C956 1.388 . S
C958 C959 1.366 1_556 S
C959 C958 1.366 1_554 S
C959 C960 1.414 . S
C959 C962 1.499 . S
C960 H940 0.950 . S
C960 C959 1.414 . S
C960 C961 1.374 . S
C961 H941 0.950 . S
C961 C957 1.385 . S
C961 C960 1.374 . S
C962 C959 1.499 . S
C962 C963 1.373 . S
C962 C964 1.389 . S
C963 H942 0.950 . S
C963 C962 1.373 . S
C963 C979 1.377 . S
C964 C962 1.389 . S
C964 C965 1.524 . S
C964 C978 1.377 . S
C965 C964 1.524 . S
C965 C966 1.397 . S
C965 C970 1.363 1_554 S
C966 H943 0.950 . S
C966 C965 1.397 . S
C966 C967 1.334 . S
C967 H944 0.950 . S
C967 C966 1.334 . S
C967 C968 1.287 . S
C968 C967 1.287 . S
C968 C969 1.504 1_554 S
C968 H987 0.913 . S
C969 H945 0.964 . S
C969 C968 1.504 1_556 S
C969 C970 1.419 . S
C970 H946 0.950 . S
C970 C965 1.363 1_556 S
C970 C969 1.419 . S
C971 H947 0.951 . S
C971 C972 1.366 . S
C971 C973 1.388 . S
C972 C971 1.366 . S
C972 C976 1.385 1_554 S
C973 H948 0.951 . S
C973 C971 1.388 . S
C973 C974 1.366 . S
C974 C973 1.366 . S
C974 C975 1.414 1_554 S
C974 C977 1.499 . S
C975 H949 0.950 . S
C975 C974 1.414 1_556 S
C975 C976 1.374 . S
C976 H950 0.950 . S
C976 C972 1.385 1_556 S
C976 C975 1.374 . S
C977 C974 1.499 . S
C977 C978 1.373 . S
C977 C979 1.389 . S
C978 H951 0.950 . S
C978 C964 1.377 . S
C978 C977 1.373 . S
C979 C963 1.377 . S
C979 C977 1.389 . S
C979 C980 1.523 1_554 S
C980 C979 1.523 1_556 S
C980 C981 1.403 . S
C980 C985 1.358 1_556 S
C981 H952 0.950 . S
C981 C980 1.403 . S
C981 C982 1.334 . S
C982 H953 0.950 . S
C982 C981 1.334 . S
C982 C983 1.287 . S
C983 C982 1.287 . S
C983 C984 1.524 1_556 S
C983 H986 0.999 . S
C984 H954 0.950 . S
C984 C983 1.524 1_554 S
C984 C985 1.415 . S
C985 H955 0.950 . S
C985 C980 1.358 1_554 S
C985 C984 1.415 . S
H986 C983 0.999 . S
H987 C968 0.913 . S
H988 C1006 0.951 . S
H989 C1008 0.951 . S
H990 C1010 0.950 . S
H991 C1011 0.950 . S
H992 C1013 0.950 . S
H993 C1016 0.950 . S
H994 C1017 0.950 . S
H995 C1019 0.950 . S
H996 C1020 0.950 . S
H997 C1021 0.951 . S
H998 C1023 0.951 . S
H999 C1025 0.950 . S
H1000 C1026 0.950 . S
H1001 C1028 0.950 . S
H1002 C1031 0.950 . S
H1003 C1032 0.950 . S
H1004 C1034 0.950 . S
H1005 C1035 0.950 . S
C1006 H988 0.951 . S
C1006 C1007 1.366 . S
C1006 C1008 1.388 . S
C1007 C1006 1.366 . S
C1007 C1011 1.385 . S
C1008 H989 0.951 . S
C1008 C1006 1.388 . S
C1008 C1009 1.366 . S
C1009 C1008 1.366 . S
C1009 C1010 1.414 . S
C1009 C1012 1.499 . S
C1010 H990 0.950 . S
C1010 C1009 1.414 . S
C1010 C1011 1.374 . S
C1011 H991 0.950 . S
C1011 C1007 1.385 . S
C1011 C1010 1.374 . S
C1012 C1009 1.499 . S
C1012 C1013 1.373 . S
C1012 C1014 1.389 . S
C1013 H992 0.950 . S
C1013 C1012 1.373 . S
C1013 C1029 1.377 . S
C1014 C1012 1.389 . S
C1014 C1015 1.524 . S
C1014 C1028 1.377 . S
C1015 C1014 1.524 . S
C1015 C1016 1.397 . S
C1015 C1020 1.363 . S
C1016 H993 0.950 . S
C1016 C1015 1.397 . S
C1016 C1017 1.334 . S
C1017 H994 0.950 . S
C1017 C1016 1.334 . S
C1017 C1018 1.287 . S
C1018 C1017 1.287 . S
C1018 C1019 1.524 . S
C1018 H1037 0.913 . S
C1019 H995 0.950 . S
C1019 C1018 1.524 . S
C1019 C1020 1.415 . S
C1020 H996 0.950 . S
C1020 C1015 1.363 . S
C1020 C1019 1.415 . S
C1021 H997 0.951 . S
C1021 C1022 1.366 . S
C1021 C1023 1.388 . S
C1022 C1021 1.366 . S
C1022 C1026 1.385 . S
C1023 H998 0.951 . S
C1023 C1021 1.388 . S
C1023 C1024 1.366 . S
C1024 C1023 1.366 . S
C1024 C1025 1.414 . S
C1024 C1027 1.499 . S
C1025 H999 0.950 . S
C1025 C1024 1.414 . S
C1025 C1026 1.374 . S
C1026 H1000 0.950 . S
C1026 C1022 1.385 . S
C1026 C1025 1.374 . S
C1027 C1024 1.499 . S
C1027 C1028 1.373 . S
C1027 C1029 1.389 . S
C1028 H1001 0.950 . S
C1028 C1014 1.377 . S
C1028 C1027 1.373 . S
C1029 C1013 1.377 . S
C1029 C1027 1.389 . S
C1029 C1030 1.524 . S
C1030 C1029 1.524 . S
C1030 C1031 1.397 . S
C1030 C1035 1.363 . S
C1031 H1002 0.950 . S
C1031 C1030 1.397 . S
C1031 C1032 1.334 . S
C1032 H1003 0.950 . S
C1032 C1031 1.334 . S
C1032 C1033 1.287 . S
C1033 C1032 1.287 . S
C1033 C1034 1.524 . S
C1033 H1036 0.999 . S
C1034 H1004 0.950 . S
C1034 C1033 1.524 . S
C1034 C1035 1.415 . S
C1035 H1005 0.950 . S
C1035 C1030 1.363 . S
C1035 C1034 1.415 . S
H1036 C1033 0.999 . S
H1037 C1018 0.913 . S
H1038 C1056 0.951 . S
H1039 C1058 0.951 . S
H1040 C1060 0.950 . S
H1041 C1061 0.950 . S
H1042 C1063 0.950 . S
H1043 C1066 0.950 . S
H1044 C1067 0.950 . S
H1045 C1069 0.950 . S
H1046 C1070 0.950 . S
H1047 C1071 0.951 . S
H1048 C1073 0.951 . S
H1049 C1075 0.950 . S
H1050 C1076 0.950 . S
H1051 C1078 0.950 . S
H1052 C1081 0.950 . S
H1053 C1082 0.950 . S
H1054 C1084 0.950 . S
H1055 C1085 0.950 . S
C1056 H1038 0.951 . S
C1056 C1057 1.366 . S
C1056 C1058 1.388 . S
C1057 C1056 1.366 . S
C1057 C1061 1.385 . S
C1058 H1039 0.951 . S
C1058 C1056 1.388 . S
C1058 C1059 1.366 . S
C1059 C1058 1.366 . S
C1059 C1060 1.414 . S
C1059 C1062 1.499 . S
C1060 H1040 0.950 . S
C1060 C1059 1.414 . S
C1060 C1061 1.374 . S
C1061 H1041 0.950 . S
C1061 C1057 1.385 . S
C1061 C1060 1.374 . S
C1062 C1059 1.499 . S
C1062 C1063 1.373 . S
C1062 C1064 1.389 . S
C1063 H1042 0.950 . S
C1063 C1062 1.373 . S
C1063 C1079 1.377 . S
C1064 C1062 1.389 . S
C1064 C1065 1.524 . S
C1064 C1078 1.377 . S
C1065 C1064 1.524 . S
C1065 C1066 1.397 . S
C1065 C1070 1.363 . S
C1066 H1043 0.950 . S
C1066 C1065 1.397 . S
C1066 C1067 1.334 . S
C1067 H1044 0.950 . S
C1067 C1066 1.334 . S
C1067 C1068 1.287 . S
C1068 C1067 1.287 . S
C1068 C1069 1.524 . S
C1068 H1087 0.913 . S
C1069 H1045 0.950 . S
C1069 C1068 1.524 . S
C1069 C1070 1.415 . S
C1070 H1046 0.950 . S
C1070 C1065 1.363 . S
C1070 C1069 1.415 . S
C1071 H1047 0.951 . S
C1071 C1072 1.366 . S
C1071 C1073 1.388 . S
C1072 C1071 1.366 . S
C1072 C1076 1.385 . S
C1073 H1048 0.951 . S
C1073 C1071 1.388 . S
C1073 C1074 1.366 . S
C1074 C1073 1.366 . S
C1074 C1075 1.414 . S
C1074 C1077 1.499 . S
C1075 H1049 0.950 . S
C1075 C1074 1.414 . S
C1075 C1076 1.374 . S
C1076 H1050 0.950 . S
C1076 C1072 1.385 . S
C1076 C1075 1.374 . S
C1077 C1074 1.499 . S
C1077 C1078 1.373 . S
C1077 C1079 1.389 . S
C1078 H1051 0.950 . S
C1078 C1064 1.377 . S
C1078 C1077 1.373 . S
C1079 C1063 1.377 . S
C1079 C1077 1.389 . S
C1079 C1080 1.524 . S
C1080 C1079 1.524 . S
C1080 C1081 1.397 . S
C1080 C1085 1.363 . S
C1081 H1052 0.950 . S
C1081 C1080 1.397 . S
C1081 C1082 1.334 . S
C1082 H1053 0.950 . S
C1082 C1081 1.334 . S
C1082 C1083 1.287 . S
C1083 C1082 1.287 . S
C1083 C1084 1.524 . S
C1083 H1086 0.999 . S
C1084 H1054 0.950 . S
C1084 C1083 1.524 . S
C1084 C1085 1.415 . S
C1085 H1055 0.950 . S
C1085 C1080 1.363 . S
C1085 C1084 1.415 . S
H1086 C1083 0.999 . S
H1087 C1068 0.913 . S
C307 C39 1.508 . S
C322 C3 1.508 . S
C357 C75 1.508 . S
C372 C111 1.508 . S
C407 C147 1.508 . S
C422 C183 1.508 . S
C457 C219 1.508 . S
C472 C255 1.508 . S
C507 C2 1.036 . S
C522 C110 1.036 . S
C557 C74 1.036 . S
C572 C38 1.036 . S
C607 C86 1.118 . S
C622 C50 1.118 . S
C657 C14 1.118 . S
C672 C122 1.119 . S
C707 C146 1.035 . S
C722 C254 1.035 . S
C757 C218 1.035 . S
C772 C182 1.035 . S
C807 C194 1.118 . S
C822 C230 1.119 . S
C857 C158 1.118 . S
C872 C266 1.118 . S
C907 C184 1.514 . S
C922 C4 1.514 . S
C957 C148 1.514 . S
C972 C40 1.514 . S
C1007 C76 1.514 . S
C1022 C256 1.514 . S
C1057 C220 1.514 . S
C1072 C112 1.514 . S
