# Generated by pormake.
# Topology rho, (4)-cn, num edge types: 1
# Building blocks:
#     Node 0, Type 0, BuildingBlock: QUQFOY_clean_sbu_1, # of connection points: 4
#     Node 1, Type 0, BuildingBlock: QUQFOY_clean_sbu_1, # of connection points: 4
#     Node 2, Type 0, BuildingBlock: QUQFOY_clean_sbu_1, # of connection points: 4
#     Node 3, Type 0, BuildingBlock: QUQFOY_clean_sbu_1, # of connection points: 4
#     Node 4, Type 0, BuildingBlock: QUQFOY_clean_sbu_1, # of connection points: 4
#     Node 5, Type 0, BuildingBlock: QUQFOY_clean_sbu_1, # of connection points: 4
#     Node 6, Type 0, BuildingBlock: QUQFOY_clean_sbu_1, # of connection points: 4
#     Node 7, Type 0, BuildingBlock: QUQFOY_clean_sbu_1, # of connection points: 4
#     Node 8, Type 0, BuildingBlock: QUQFOY_clean_sbu_1, # of connection points: 4
#     Node 9, Type 0, BuildingBlock: QUQFOY_clean_sbu_1, # of connection points: 4
#     Node 10, Type 0, BuildingBlock: QUQFOY_clean_sbu_1, # of connection points: 4
#     Node 11, Type 0, BuildingBlock: QUQFOY_clean_sbu_1, # of connection points: 4
#     Node 12, Type 0, BuildingBlock: QUQFOY_clean_sbu_1, # of connection points: 4
#     Node 13, Type 0, BuildingBlock: QUQFOY_clean_sbu_1, # of connection points: 4
#     Node 14, Type 0, BuildingBlock: QUQFOY_clean_sbu_1, # of connection points: 4
#     Node 15, Type 0, BuildingBlock: QUQFOY_clean_sbu_1, # of connection points: 4
#     Node 16, Type 0, BuildingBlock: QUQFOY_clean_sbu_1, # of connection points: 4
#     Node 17, Type 0, BuildingBlock: QUQFOY_clean_sbu_1, # of connection points: 4
#     Node 18, Type 0, BuildingBlock: QUQFOY_clean_sbu_1, # of connection points: 4
#     Node 19, Type 0, BuildingBlock: QUQFOY_clean_sbu_1, # of connection points: 4
#     Node 20, Type 0, BuildingBlock: QUQFOY_clean_sbu_1, # of connection points: 4
#     Node 21, Type 0, BuildingBlock: QUQFOY_clean_sbu_1, # of connection points: 4
#     Node 22, Type 0, BuildingBlock: QUQFOY_clean_sbu_1, # of connection points: 4
#     Node 23, Type 0, BuildingBlock: QUQFOY_clean_sbu_1, # of connection points: 4
#     Node 24, Type 0, BuildingBlock: QUQFOY_clean_sbu_1, # of connection points: 4
#     Node 25, Type 0, BuildingBlock: QUQFOY_clean_sbu_1, # of connection points: 4
#     Node 26, Type 0, BuildingBlock: QUQFOY_clean_sbu_1, # of connection points: 4
#     Node 27, Type 0, BuildingBlock: QUQFOY_clean_sbu_1, # of connection points: 4
#     Node 28, Type 0, BuildingBlock: QUQFOY_clean_sbu_1, # of connection points: 4
#     Node 29, Type 0, BuildingBlock: QUQFOY_clean_sbu_1, # of connection points: 4
#     Node 30, Type 0, BuildingBlock: QUQFOY_clean_sbu_1, # of connection points: 4
#     Node 31, Type 0, BuildingBlock: QUQFOY_clean_sbu_1, # of connection points: 4
#     Node 32, Type 0, BuildingBlock: QUQFOY_clean_sbu_1, # of connection points: 4
#     Node 33, Type 0, BuildingBlock: QUQFOY_clean_sbu_1, # of connection points: 4
#     Node 34, Type 0, BuildingBlock: QUQFOY_clean_sbu_1, # of connection points: 4
#     Node 35, Type 0, BuildingBlock: QUQFOY_clean_sbu_1, # of connection points: 4
#     Node 36, Type 0, BuildingBlock: QUQFOY_clean_sbu_1, # of connection points: 4
#     Node 37, Type 0, BuildingBlock: QUQFOY_clean_sbu_1, # of connection points: 4
#     Node 38, Type 0, BuildingBlock: QUQFOY_clean_sbu_1, # of connection points: 4
#     Node 39, Type 0, BuildingBlock: QUQFOY_clean_sbu_1, # of connection points: 4
#     Node 40, Type 0, BuildingBlock: QUQFOY_clean_sbu_1, # of connection points: 4
#     Node 41, Type 0, BuildingBlock: QUQFOY_clean_sbu_1, # of connection points: 4
#     Node 42, Type 0, BuildingBlock: QUQFOY_clean_sbu_1, # of connection points: 4
#     Node 43, Type 0, BuildingBlock: QUQFOY_clean_sbu_1, # of connection points: 4
#     Node 44, Type 0, BuildingBlock: QUQFOY_clean_sbu_1, # of connection points: 4
#     Node 45, Type 0, BuildingBlock: QUQFOY_clean_sbu_1, # of connection points: 4
#     Node 46, Type 0, BuildingBlock: QUQFOY_clean_sbu_1, # of connection points: 4
#     Node 47, Type 0, BuildingBlock: QUQFOY_clean_sbu_1, # of connection points: 4
#     Edge 48, Type (0, 0), BuildingBlock: UVAHIK_clean_linker_0, # of connection points: 2
#     Edge 49, Type (0, 0), BuildingBlock: UVAHIK_clean_linker_0, # of connection points: 2
#     Edge 50, Type (0, 0), BuildingBlock: UVAHIK_clean_linker_0, # of connection points: 2
#     Edge 51, Type (0, 0), BuildingBlock: UVAHIK_clean_linker_0, # of connection points: 2
#     Edge 52, Type (0, 0), BuildingBlock: UVAHIK_clean_linker_0, # of connection points: 2
#     Edge 53, Type (0, 0), BuildingBlock: UVAHIK_clean_linker_0, # of connection points: 2
#     Edge 54, Type (0, 0), BuildingBlock: UVAHIK_clean_linker_0, # of connection points: 2
#     Edge 55, Type (0, 0), BuildingBlock: UVAHIK_clean_linker_0, # of connection points: 2
#     Edge 56, Type (0, 0), BuildingBlock: UVAHIK_clean_linker_0, # of connection points: 2
#     Edge 57, Type (0, 0), BuildingBlock: UVAHIK_clean_linker_0, # of connection points: 2
#     Edge 58, Type (0, 0), BuildingBlock: UVAHIK_clean_linker_0, # of connection points: 2
#     Edge 59, Type (0, 0), BuildingBlock: UVAHIK_clean_linker_0, # of connection points: 2
#     Edge 60, Type (0, 0), BuildingBlock: UVAHIK_clean_linker_0, # of connection points: 2
#     Edge 61, Type (0, 0), BuildingBlock: UVAHIK_clean_linker_0, # of connection points: 2
#     Edge 62, Type (0, 0), BuildingBlock: UVAHIK_clean_linker_0, # of connection points: 2
#     Edge 63, Type (0, 0), BuildingBlock: UVAHIK_clean_linker_0, # of connection points: 2
#     Edge 64, Type (0, 0), BuildingBlock: UVAHIK_clean_linker_0, # of connection points: 2
#     Edge 65, Type (0, 0), BuildingBlock: UVAHIK_clean_linker_0, # of connection points: 2
#     Edge 66, Type (0, 0), BuildingBlock: UVAHIK_clean_linker_0, # of connection points: 2
#     Edge 67, Type (0, 0), BuildingBlock: UVAHIK_clean_linker_0, # of connection points: 2
#     Edge 68, Type (0, 0), BuildingBlock: UVAHIK_clean_linker_0, # of connection points: 2
#     Edge 69, Type (0, 0), BuildingBlock: UVAHIK_clean_linker_0, # of connection points: 2
#     Edge 70, Type (0, 0), BuildingBlock: UVAHIK_clean_linker_0, # of connection points: 2
#     Edge 71, Type (0, 0), BuildingBlock: UVAHIK_clean_linker_0, # of connection points: 2
#     Edge 72, Type (0, 0), BuildingBlock: UVAHIK_clean_linker_0, # of connection points: 2
#     Edge 73, Type (0, 0), BuildingBlock: UVAHIK_clean_linker_0, # of connection points: 2
#     Edge 74, Type (0, 0), BuildingBlock: UVAHIK_clean_linker_0, # of connection points: 2
#     Edge 75, Type (0, 0), BuildingBlock: UVAHIK_clean_linker_0, # of connection points: 2
#     Edge 76, Type (0, 0), BuildingBlock: UVAHIK_clean_linker_0, # of connection points: 2
#     Edge 77, Type (0, 0), BuildingBlock: UVAHIK_clean_linker_0, # of connection points: 2
#     Edge 78, Type (0, 0), BuildingBlock: UVAHIK_clean_linker_0, # of connection points: 2
#     Edge 79, Type (0, 0), BuildingBlock: UVAHIK_clean_linker_0, # of connection points: 2
#     Edge 80, Type (0, 0), BuildingBlock: UVAHIK_clean_linker_0, # of connection points: 2
#     Edge 81, Type (0, 0), BuildingBlock: UVAHIK_clean_linker_0, # of connection points: 2
#     Edge 82, Type (0, 0), BuildingBlock: UVAHIK_clean_linker_0, # of connection points: 2
#     Edge 83, Type (0, 0), BuildingBlock: UVAHIK_clean_linker_0, # of connection points: 2
#     Edge 84, Type (0, 0), BuildingBlock: UVAHIK_clean_linker_0, # of connection points: 2
#     Edge 85, Type (0, 0), BuildingBlock: UVAHIK_clean_linker_0, # of connection points: 2
#     Edge 86, Type (0, 0), BuildingBlock: UVAHIK_clean_linker_0, # of connection points: 2
#     Edge 87, Type (0, 0), BuildingBlock: UVAHIK_clean_linker_0, # of connection points: 2
#     Edge 88, Type (0, 0), BuildingBlock: UVAHIK_clean_linker_0, # of connection points: 2
#     Edge 89, Type (0, 0), BuildingBlock: UVAHIK_clean_linker_0, # of connection points: 2
#     Edge 90, Type (0, 0), BuildingBlock: UVAHIK_clean_linker_0, # of connection points: 2
#     Edge 91, Type (0, 0), BuildingBlock: UVAHIK_clean_linker_0, # of connection points: 2
#     Edge 92, Type (0, 0), BuildingBlock: UVAHIK_clean_linker_0, # of connection points: 2
#     Edge 93, Type (0, 0), BuildingBlock: UVAHIK_clean_linker_0, # of connection points: 2
#     Edge 94, Type (0, 0), BuildingBlock: UVAHIK_clean_linker_0, # of connection points: 2
#     Edge 95, Type (0, 0), BuildingBlock: UVAHIK_clean_linker_0, # of connection points: 2
#     Edge 96, Type (0, 0), BuildingBlock: UVAHIK_clean_linker_0, # of connection points: 2
#     Edge 97, Type (0, 0), BuildingBlock: UVAHIK_clean_linker_0, # of connection points: 2
#     Edge 98, Type (0, 0), BuildingBlock: UVAHIK_clean_linker_0, # of connection points: 2
#     Edge 99, Type (0, 0), BuildingBlock: UVAHIK_clean_linker_0, # of connection points: 2
#     Edge 100, Type (0, 0), BuildingBlock: UVAHIK_clean_linker_0, # of connection points: 2
#     Edge 101, Type (0, 0), BuildingBlock: UVAHIK_clean_linker_0, # of connection points: 2
#     Edge 102, Type (0, 0), BuildingBlock: UVAHIK_clean_linker_0, # of connection points: 2
#     Edge 103, Type (0, 0), BuildingBlock: UVAHIK_clean_linker_0, # of connection points: 2
#     Edge 104, Type (0, 0), BuildingBlock: UVAHIK_clean_linker_0, # of connection points: 2
#     Edge 105, Type (0, 0), BuildingBlock: UVAHIK_clean_linker_0, # of connection points: 2
#     Edge 106, Type (0, 0), BuildingBlock: UVAHIK_clean_linker_0, # of connection points: 2
#     Edge 107, Type (0, 0), BuildingBlock: UVAHIK_clean_linker_0, # of connection points: 2
#     Edge 108, Type (0, 0), BuildingBlock: UVAHIK_clean_linker_0, # of connection points: 2
#     Edge 109, Type (0, 0), BuildingBlock: UVAHIK_clean_linker_0, # of connection points: 2
#     Edge 110, Type (0, 0), BuildingBlock: UVAHIK_clean_linker_0, # of connection points: 2
#     Edge 111, Type (0, 0), BuildingBlock: UVAHIK_clean_linker_0, # of connection points: 2
#     Edge 112, Type (0, 0), BuildingBlock: UVAHIK_clean_linker_0, # of connection points: 2
#     Edge 113, Type (0, 0), BuildingBlock: UVAHIK_clean_linker_0, # of connection points: 2
#     Edge 114, Type (0, 0), BuildingBlock: UVAHIK_clean_linker_0, # of connection points: 2
#     Edge 115, Type (0, 0), BuildingBlock: UVAHIK_clean_linker_0, # of connection points: 2
#     Edge 116, Type (0, 0), BuildingBlock: UVAHIK_clean_linker_0, # of connection points: 2
#     Edge 117, Type (0, 0), BuildingBlock: UVAHIK_clean_linker_0, # of connection points: 2
#     Edge 118, Type (0, 0), BuildingBlock: UVAHIK_clean_linker_0, # of connection points: 2
#     Edge 119, Type (0, 0), BuildingBlock: UVAHIK_clean_linker_0, # of connection points: 2
#     Edge 120, Type (0, 0), BuildingBlock: UVAHIK_clean_linker_0, # of connection points: 2
#     Edge 121, Type (0, 0), BuildingBlock: UVAHIK_clean_linker_0, # of connection points: 2
#     Edge 122, Type (0, 0), BuildingBlock: UVAHIK_clean_linker_0, # of connection points: 2
#     Edge 123, Type (0, 0), BuildingBlock: UVAHIK_clean_linker_0, # of connection points: 2
#     Edge 124, Type (0, 0), BuildingBlock: UVAHIK_clean_linker_0, # of connection points: 2
#     Edge 125, Type (0, 0), BuildingBlock: UVAHIK_clean_linker_0, # of connection points: 2
#     Edge 126, Type (0, 0), BuildingBlock: UVAHIK_clean_linker_0, # of connection points: 2
#     Edge 127, Type (0, 0), BuildingBlock: UVAHIK_clean_linker_0, # of connection points: 2
#     Edge 128, Type (0, 0), BuildingBlock: UVAHIK_clean_linker_0, # of connection points: 2
#     Edge 129, Type (0, 0), BuildingBlock: UVAHIK_clean_linker_0, # of connection points: 2
#     Edge 130, Type (0, 0), BuildingBlock: UVAHIK_clean_linker_0, # of connection points: 2
#     Edge 131, Type (0, 0), BuildingBlock: UVAHIK_clean_linker_0, # of connection points: 2
#     Edge 132, Type (0, 0), BuildingBlock: UVAHIK_clean_linker_0, # of connection points: 2
#     Edge 133, Type (0, 0), BuildingBlock: UVAHIK_clean_linker_0, # of connection points: 2
#     Edge 134, Type (0, 0), BuildingBlock: UVAHIK_clean_linker_0, # of connection points: 2
#     Edge 135, Type (0, 0), BuildingBlock: UVAHIK_clean_linker_0, # of connection points: 2
#     Edge 136, Type (0, 0), BuildingBlock: UVAHIK_clean_linker_0, # of connection points: 2
#     Edge 137, Type (0, 0), BuildingBlock: UVAHIK_clean_linker_0, # of connection points: 2
#     Edge 138, Type (0, 0), BuildingBlock: UVAHIK_clean_linker_0, # of connection points: 2
#     Edge 139, Type (0, 0), BuildingBlock: UVAHIK_clean_linker_0, # of connection points: 2
#     Edge 140, Type (0, 0), BuildingBlock: UVAHIK_clean_linker_0, # of connection points: 2
#     Edge 141, Type (0, 0), BuildingBlock: UVAHIK_clean_linker_0, # of connection points: 2
#     Edge 142, Type (0, 0), BuildingBlock: UVAHIK_clean_linker_0, # of connection points: 2
#     Edge 143, Type (0, 0), BuildingBlock: UVAHIK_clean_linker_0, # of connection points: 2
# Relax obj value: 0.015
# Max RMSD: 0.065
# Mean RMSD: 0.065
data_MOF--net-rho--node1-QUQFOY_clean_sbu_1--edge1-UVAHIK_clean_linker_0
_symmetry_space_group_name_H-M    P1
_symmetry_Int_Tables_number       1
_symmetry_cell_setting            triclinic
loop_
_symmetry_equiv_pos_as_xyz
'x, y, z'
_cell_length_a     97.274627
_cell_length_b     97.284263
_cell_length_c     97.279287
_cell_angle_alpha  89.987495
_cell_angle_beta   90.011294
_cell_angle_gamma 89.998363
loop_
_atom_site_label
_atom_site_type_symbol
_atom_site_fract_x
_atom_site_fract_y
_atom_site_fract_z
_atom_type_partial_charge
O0 O 0.10677 0.24418 0.42299 0.0
Cd1 Cd 0.1027 0.23876 0.40289 0.0
Cd2 Cd 0.10143 0.26713 0.40036 0.0
O3 O 0.10833 0.26666 0.4205 0.0
O4 O 0.10725 0.21881 0.4024 0.0
O5 O 0.11886 0.23433 0.39057 0.0
C6 C 0.11734 0.22168 0.39432 0.0
C7 C 0.11079 0.28293 0.38479 0.0
C8 C 0.10915 0.25599 0.42802 0.0
C9 C 0.07543 0.25078 0.39513 0.0
O10 O 0.08103 0.26246 0.39685 0.0
O11 O 0.08247 0.23983 0.39632 0.0
O12 O 0.1029 0.28676 0.39471 0.0
O13 O 0.11383 0.27003 0.38394 0.0
O14 O 0.74082 0.08147 0.39638 0.0
Cd15 Cd 0.73599 0.1018 0.40001 0.0
Cd16 Cd 0.76437 0.10326 0.40277 0.0
O17 O 0.76344 0.08303 0.39626 0.0
O18 O 0.71638 0.10322 0.39429 0.0
O19 O 0.7331 0.11437 0.38371 0.0
C20 C 0.7202 0.11127 0.38449 0.0
C21 C 0.78153 0.11787 0.39429 0.0
C22 C 0.75255 0.07593 0.39486 0.0
C23 C 0.74688 0.10944 0.4278 0.0
O24 O 0.75877 0.10731 0.42283 0.0
O25 O 0.73627 0.10847 0.42022 0.0
O26 O 0.78432 0.10784 0.40246 0.0
O27 O 0.76891 0.11939 0.39044 0.0
O28 O 0.89634 0.76011 0.42294 0.0
Cd29 Cd 0.90051 0.76528 0.4028 0.0
Cd30 Cd 0.90141 0.73678 0.40052 0.0
O31 O 0.89422 0.73767 0.42052 0.0
O32 O 0.89616 0.78526 0.40206 0.0
O33 O 0.88442 0.76971 0.39039 0.0
C34 C 0.88606 0.78239 0.39399 0.0
C35 C 0.89267 0.72009 0.38552 0.0
C36 C 0.89363 0.74837 0.428 0.0
C37 C 0.92765 0.75286 0.3954 0.0
O38 O 0.92189 0.74129 0.39725 0.0
O39 O 0.92073 0.76391 0.39633 0.0
O40 O 0.90032 0.7169 0.39583 0.0
O41 O 0.88948 0.73288 0.38391 0.0
O42 O 0.25959 0.92337 0.39666 0.0
Cd43 Cd 0.26491 0.90324 0.4007 0.0
Cd44 Cd 0.23639 0.90094 0.40223 0.0
O45 O 0.23708 0.92101 0.39518 0.0
O46 O 0.28483 0.90264 0.39607 0.0
O47 O 0.26921 0.89087 0.38454 0.0
C48 C 0.28189 0.89454 0.38602 0.0
C49 C 0.21967 0.88584 0.39369 0.0
C50 C 0.24779 0.92846 0.39431 0.0
C51 C 0.25306 0.89567 0.42808 0.0
O52 O 0.24135 0.89752 0.42258 0.0
O53 O 0.26395 0.8967 0.42093 0.0
O54 O 0.21652 0.89607 0.40148 0.0
O55 O 0.23241 0.88439 0.39024 0.0
O56 O 0.08188 0.74083 0.60656 0.0
Cd57 Cd 0.10229 0.73615 0.60313 0.0
Cd58 Cd 0.10365 0.76444 0.60051 0.0
O59 O 0.08339 0.76344 0.60693 0.0
O60 O 0.10378 0.71654 0.60884 0.0
O61 O 0.11468 0.73331 0.61958 0.0
C62 C 0.11167 0.7204 0.61875 0.0
C63 C 0.11825 0.78144 0.60932 0.0
C64 C 0.0763 0.75253 0.60816 0.0
C65 C 0.11007 0.74716 0.57543 0.0
O66 O 0.10777 0.75902 0.58041 0.0
O67 O 0.10917 0.73654 0.58299 0.0
O68 O 0.10826 0.78437 0.60114 0.0
O69 O 0.11974 0.76875 0.61297 0.0
O70 O 0.24378 0.10675 0.58005 0.0
Cd71 Cd 0.23837 0.1028 0.60018 0.0
Cd72 Cd 0.26664 0.10148 0.60288 0.0
O73 O 0.26627 0.10804 0.58263 0.0
O74 O 0.21861 0.10811 0.60118 0.0
O75 O 0.23487 0.11894 0.61278 0.0
C76 C 0.22207 0.11794 0.60935 0.0
C77 C 0.28254 0.11092 0.61831 0.0
C78 C 0.25566 0.10891 0.57505 0.0
C79 C 0.25017 0.07555 0.60824 0.0
O80 O 0.26187 0.08116 0.60666 0.0
O81 O 0.23924 0.08258 0.60679 0.0
O82 O 0.28629 0.10286 0.60849 0.0
O83 O 0.26967 0.11407 0.61914 0.0
O84 O 0.92356 0.26106 0.60463 0.0
Cd85 Cd 0.90318 0.26594 0.6013 0.0
Cd86 Cd 0.9018 0.23751 0.59858 0.0
O87 O 0.92206 0.23844 0.60502 0.0
O88 O 0.90236 0.28576 0.60627 0.0
O89 O 0.89119 0.26977 0.61787 0.0
C90 C 0.89457 0.28253 0.61647 0.0
C91 C 0.8871 0.22057 0.6073 0.0
C92 C 0.92915 0.24935 0.60624 0.0
C93 C 0.89518 0.25488 0.57364 0.0
O94 O 0.89762 0.24302 0.57853 0.0
O95 O 0.89605 0.26547 0.58126 0.0
O96 O 0.89708 0.21761 0.59913 0.0
O97 O 0.88571 0.23324 0.61104 0.0
O98 O 0.7592 0.89679 0.58038 0.0
Cd99 Cd 0.76483 0.90062 0.60047 0.0
Cd100 Cd 0.73639 0.90297 0.60299 0.0
O101 O 0.73665 0.89636 0.58277 0.0
O102 O 0.78476 0.89594 0.60061 0.0
O103 O 0.76939 0.88436 0.61265 0.0
C104 C 0.78199 0.88587 0.60874 0.0
C105 C 0.72042 0.89364 0.61839 0.0
C106 C 0.74729 0.89504 0.57529 0.0
C107 C 0.75364 0.92825 0.60856 0.0
O108 O 0.74174 0.92314 0.60684 0.0
O109 O 0.76429 0.92079 0.60721 0.0
O110 O 0.71675 0.90188 0.60868 0.0
O111 O 0.73325 0.89031 0.61916 0.0
O112 O 0.39605 0.07993 0.2601 0.0
Cd113 Cd 0.4002 0.10007 0.26534 0.0
Cd114 Cd 0.40158 0.10252 0.23695 0.0
O115 O 0.39458 0.08244 0.23761 0.0
O116 O 0.39496 0.10123 0.2851 0.0
O117 O 0.38419 0.11282 0.2688 0.0
C118 C 0.38519 0.10946 0.28162 0.0
C119 C 0.39294 0.11757 0.22022 0.0
C120 C 0.3937 0.07491 0.24827 0.0
C121 C 0.42756 0.10762 0.2535 0.0
O122 O 0.42195 0.10596 0.24182 0.0
O123 O 0.42049 0.10645 0.26444 0.0
O124 O 0.40075 0.10736 0.21707 0.0
O125 O 0.38954 0.11904 0.23297 0.0
O126 O 0.92372 0.3958 0.25971 0.0
Cd127 Cd 0.90352 0.39991 0.2647 0.0
Cd128 Cd 0.90114 0.40103 0.23665 0.0
O129 O 0.92134 0.39434 0.23722 0.0
O130 O 0.90194 0.39454 0.2844 0.0
O131 O 0.89069 0.38389 0.26777 0.0
C132 C 0.89376 0.38481 0.28067 0.0
C133 C 0.88565 0.39127 0.22103 0.0
C134 C 0.92883 0.39351 0.2479 0.0
C135 C 0.89584 0.42716 0.2527 0.0
O136 O 0.89749 0.42146 0.24106 0.0
O137 O 0.89711 0.42018 0.26368 0.0
O138 O 0.89549 0.3992 0.21706 0.0
O139 O 0.88482 0.38845 0.23398 0.0
O140 O 0.57976 0.89708 0.24161 0.0
Cd141 Cd 0.59999 0.90104 0.23658 0.0
Cd142 Cd 0.60222 0.90201 0.26496 0.0
O143 O 0.58211 0.89509 0.26407 0.0
O144 O 0.60106 0.89642 0.21669 0.0
O145 O 0.61239 0.88484 0.23262 0.0
C146 C 0.60906 0.88635 0.21985 0.0
C147 C 0.61715 0.89309 0.28162 0.0
C148 C 0.57465 0.8945 0.25336 0.0
C149 C 0.6077 0.92814 0.24887 0.0
O150 O 0.60577 0.92243 0.26046 0.0
O151 O 0.60665 0.9212 0.23785 0.0
O152 O 0.60692 0.90085 0.28484 0.0
O153 O 0.61869 0.88988 0.26883 0.0
O154 O 0.10705 0.58002 0.24241 0.0
Cd155 Cd 0.10332 0.60024 0.23715 0.0
Cd156 Cd 0.10109 0.6025 0.26542 0.0
O157 O 0.10763 0.58226 0.26497 0.0
O158 O 0.10882 0.60126 0.21745 0.0
O159 O 0.11958 0.61274 0.23382 0.0
C160 C 0.11866 0.60938 0.22101 0.0
C161 C 0.11038 0.61777 0.28155 0.0
C162 C 0.10883 0.57483 0.25428 0.0
C163 C 0.07574 0.60828 0.24832 0.0
O164 O 0.08091 0.60643 0.26018 0.0
O165 O 0.08314 0.60701 0.23763 0.0
O166 O 0.10219 0.60799 0.28512 0.0
O167 O 0.11373 0.61866 0.26873 0.0
O168 O 0.42145 0.89746 0.7604 0.0
Cd169 Cd 0.40104 0.9008 0.76516 0.0
Cd170 Cd 0.39966 0.90308 0.73688 0.0
O171 O 0.42 0.89688 0.73778 0.0
O172 O 0.40008 0.89596 0.78503 0.0
O173 O 0.38903 0.88424 0.76904 0.0
C174 C 0.39232 0.88574 0.78182 0.0
C175 C 0.3846 0.89323 0.72093 0.0
C176 C 0.42707 0.89579 0.74872 0.0
C177 C 0.39299 0.92831 0.75371 0.0
O178 O 0.39537 0.92324 0.7419 0.0
O179 O 0.39393 0.92084 0.7644 0.0
O180 O 0.39425 0.90151 0.7172 0.0
O181 O 0.38374 0.89012 0.73381 0.0
O182 O 0.10735 0.42253 0.75921 0.0
Cd183 Cd 0.10351 0.40231 0.76438 0.0
Cd184 Cd 0.10126 0.40028 0.7361 0.0
O185 O 0.10797 0.42047 0.73664 0.0
O186 O 0.10825 0.40155 0.78427 0.0
O187 O 0.11975 0.38996 0.7685 0.0
C188 C 0.11827 0.39346 0.78122 0.0
C189 C 0.11073 0.3848 0.7203 0.0
C190 C 0.1092 0.4278 0.74739 0.0
C191 C 0.07587 0.39455 0.75302 0.0
O192 O 0.081 0.39651 0.74117 0.0
O193 O 0.08332 0.39562 0.7637 0.0
O194 O 0.10266 0.39459 0.71648 0.0
O195 O 0.11386 0.38402 0.73319 0.0
O196 O 0.60557 0.08119 0.74234 0.0
Cd197 Cd 0.60165 0.10155 0.7379 0.0
Cd198 Cd 0.60046 0.10264 0.76631 0.0
O199 O 0.60735 0.08256 0.76489 0.0
O200 O 0.60603 0.10281 0.71796 0.0
O201 O 0.61793 0.11385 0.73383 0.0
C202 C 0.61626 0.11062 0.72106 0.0
C203 C 0.60964 0.11738 0.78296 0.0
C204 C 0.60802 0.07557 0.75387 0.0
C205 C 0.57441 0.10867 0.75032 0.0
O206 O 0.58003 0.10627 0.76188 0.0
O207 O 0.58147 0.10815 0.73933 0.0
O208 O 0.6019 0.10715 0.78621 0.0
O209 O 0.61267 0.11903 0.77013 0.0
O210 O 0.89698 0.57989 0.76116 0.0
Cd211 Cd 0.90106 0.59999 0.76653 0.0
Cd212 Cd 0.90226 0.60254 0.73807 0.0
O213 O 0.89522 0.58248 0.73871 0.0
O214 O 0.89644 0.60063 0.78645 0.0
O215 O 0.88492 0.61238 0.7708 0.0
C216 C 0.8864 0.60873 0.78348 0.0
C217 C 0.89357 0.61758 0.72138 0.0
C218 C 0.89449 0.57491 0.74934 0.0
C219 C 0.9283 0.60765 0.75448 0.0
O220 O 0.92265 0.60594 0.74282 0.0
O221 O 0.92128 0.60651 0.76545 0.0
O222 O 0.90136 0.60737 0.7182 0.0
O223 O 0.89023 0.61908 0.73414 0.0
O224 O 0.26179 0.39665 0.0814 0.0
Cd225 Cd 0.26634 0.40019 0.10182 0.0
Cd226 Cd 0.23811 0.40257 0.10298 0.0
O227 O 0.23916 0.39612 0.08272 0.0
O228 O 0.28601 0.3947 0.10339 0.0
O229 O 0.26931 0.38381 0.11426 0.0
C230 C 0.28222 0.38477 0.1113 0.0
C231 C 0.22185 0.39315 0.118 0.0
C232 C 0.25014 0.39494 0.07573 0.0
C233 C 0.25505 0.42782 0.10947 0.0
O234 O 0.24325 0.42274 0.1071 0.0
O235 O 0.26574 0.42034 0.10866 0.0
O236 O 0.21834 0.40132 0.10817 0.0
O237 O 0.23468 0.38986 0.11904 0.0
O238 O 0.2397 0.58041 0.89666 0.0
Cd239 Cd 0.23544 0.60078 0.9007 0.0
Cd240 Cd 0.26365 0.602 0.9018 0.0
O241 O 0.26225 0.58191 0.89491 0.0
O242 O 0.21578 0.60288 0.8954 0.0
O243 O 0.23266 0.61357 0.88458 0.0
C244 C 0.21969 0.61083 0.88555 0.0
C245 C 0.28036 0.61671 0.89264 0.0
C246 C 0.25127 0.57485 0.89421 0.0
C247 C 0.24773 0.6078 0.92795 0.0
O248 O 0.25928 0.6056 0.92225 0.0
O249 O 0.2367 0.60716 0.92097 0.0
O250 O 0.28358 0.60646 0.90038 0.0
O251 O 0.26754 0.61839 0.8896 0.0
O252 O 0.39567 0.26033 0.92134 0.0
Cd253 Cd 0.39942 0.26456 0.9009 0.0
Cd254 Cd 0.40048 0.23633 0.90002 0.0
O255 O 0.39384 0.23777 0.9202 0.0
O256 O 0.39511 0.28451 0.89938 0.0
O257 O 0.38309 0.26853 0.88863 0.0
C258 C 0.38485 0.28135 0.89164 0.0
C259 C 0.39056 0.22055 0.88484 0.0
C260 C 0.39327 0.24885 0.9271 0.0
C261 C 0.42657 0.25198 0.89371 0.0
O262 O 0.42093 0.24047 0.89624 0.0
O263 O 0.41955 0.263 0.89416 0.0
O264 O 0.39834 0.21665 0.89482 0.0
O265 O 0.38791 0.23352 0.88374 0.0
O266 O 0.75998 0.42281 0.89736 0.0
Cd267 Cd 0.76543 0.40266 0.90115 0.0
Cd268 Cd 0.73692 0.4003 0.90345 0.0
O269 O 0.73745 0.42043 0.8966 0.0
O270 O 0.78533 0.4023 0.89641 0.0
O271 O 0.76977 0.39048 0.88485 0.0
C272 C 0.78243 0.39424 0.88632 0.0
C273 C 0.72013 0.3854 0.89476 0.0
C274 C 0.74811 0.4279 0.89541 0.0
C275 C 0.75417 0.39468 0.92876 0.0
O276 O 0.74229 0.39658 0.92365 0.0
O277 O 0.76483 0.39585 0.9213 0.0
O278 O 0.71705 0.39542 0.90284 0.0
O279 O 0.73284 0.38399 0.89119 0.0
O280 O 0.60481 0.74197 0.92182 0.0
Cd281 Cd 0.60116 0.73761 0.9014 0.0
Cd282 Cd 0.59985 0.766 0.90036 0.0
O283 O 0.60656 0.76454 0.92051 0.0
O284 O 0.60567 0.7177 0.90003 0.0
O285 O 0.61757 0.73374 0.88922 0.0
C286 C 0.61594 0.72093 0.89231 0.0
C287 C 0.60904 0.78273 0.88571 0.0
C288 C 0.60718 0.7535 0.92749 0.0
C289 C 0.57396 0.74991 0.89398 0.0
O290 O 0.57949 0.76148 0.89651 0.0
O291 O 0.58106 0.73895 0.89455 0.0
O292 O 0.6012 0.78592 0.8959 0.0
O293 O 0.61218 0.76993 0.88408 0.0
O294 O 0.74129 0.6056 0.08141 0.0
Cd295 Cd 0.73709 0.60192 0.10187 0.0
Cd296 Cd 0.76538 0.60117 0.10293 0.0
O297 O 0.76381 0.60778 0.08277 0.0
O298 O 0.71718 0.60632 0.10351 0.0
O299 O 0.73331 0.6183 0.1141 0.0
C300 C 0.72047 0.6166 0.11119 0.0
C301 C 0.78199 0.61068 0.11751 0.0
C302 C 0.75279 0.60816 0.07576 0.0
C303 C 0.74986 0.57496 0.10929 0.0
O304 O 0.76132 0.58072 0.10679 0.0
O305 O 0.73876 0.58184 0.10871 0.0
O306 O 0.78529 0.60292 0.10731 0.0
O307 O 0.76914 0.61356 0.11921 0.0
O308 O 0.42171 0.75956 0.10554 0.0
Cd309 Cd 0.40134 0.76414 0.1018 0.0
Cd310 Cd 0.40008 0.73582 0.1007 0.0
O311 O 0.42029 0.73701 0.10728 0.0
O312 O 0.40028 0.78413 0.10609 0.0
O313 O 0.3892 0.7684 0.11815 0.0
C314 C 0.3925 0.78114 0.11638 0.0
C315 C 0.38485 0.72005 0.11059 0.0
C316 C 0.42733 0.748 0.1079 0.0
C317 C 0.39384 0.75167 0.07467 0.0
O318 O 0.39623 0.74012 0.08028 0.0
O319 O 0.39452 0.76268 0.08169 0.0
O320 O 0.39476 0.71615 0.10271 0.0
O321 O 0.38385 0.73301 0.11334 0.0
O322 O 0.58095 0.24291 0.1067 0.0
Cd323 Cd 0.60137 0.23849 0.103 0.0
Cd324 Cd 0.60255 0.26682 0.10193 0.0
O325 O 0.5824 0.26545 0.10862 0.0
O326 O 0.60275 0.21855 0.10741 0.0
O327 O 0.61361 0.23452 0.11935 0.0
C328 C 0.61053 0.22172 0.11764 0.0
C329 C 0.61736 0.28337 0.1112 0.0
C330 C 0.57535 0.25446 0.10913 0.0
C331 C 0.60874 0.25097 0.07588 0.0
O332 O 0.60629 0.2625 0.0815 0.0
O333 O 0.60816 0.23996 0.08289 0.0
O334 O 0.60715 0.2867 0.10345 0.0
O335 O 0.61892 0.27053 0.11422 0.0
O336 O 0.8972 0.76077 0.57957 0.0
Cd337 Cd 0.90138 0.76605 0.59969 0.0
Cd338 Cd 0.90237 0.73764 0.60219 0.0
O339 O 0.89516 0.73835 0.58218 0.0
O340 O 0.89678 0.78597 0.60043 0.0
O341 O 0.88527 0.77026 0.61213 0.0
C342 C 0.88674 0.78296 0.60853 0.0
C343 C 0.89364 0.72107 0.61733 0.0
C344 C 0.89451 0.74899 0.57462 0.0
C345 C 0.92857 0.75383 0.60721 0.0
O346 O 0.92283 0.74222 0.60545 0.0
O347 O 0.92161 0.76484 0.60616 0.0
O348 O 0.90132 0.71779 0.60706 0.0
O349 O 0.89043 0.73386 0.61881 0.0
O350 O 0.26181 0.92243 0.60712 0.0
Cd351 Cd 0.2663 0.9021 0.6031 0.0
Cd352 Cd 0.238 0.90075 0.60173 0.0
O353 O 0.23923 0.92088 0.60853 0.0
O354 O 0.28601 0.90028 0.60836 0.0
O355 O 0.26932 0.88933 0.6192 0.0
C356 C 0.28224 0.89225 0.61819 0.0
C357 C 0.22122 0.88594 0.61063 0.0
C358 C 0.25018 0.92796 0.60937 0.0
C359 C 0.25424 0.89498 0.57575 0.0
O360 O 0.24263 0.89711 0.58136 0.0
O361 O 0.26521 0.89572 0.58282 0.0
O362 O 0.21808 0.89618 0.60285 0.0
O363 O 0.234 0.88434 0.61389 0.0
O364 O 0.10847 0.24281 0.57964 0.0
Cd365 Cd 0.10425 0.23732 0.5997 0.0
Cd366 Cd 0.10287 0.26558 0.60251 0.0
O367 O 0.10972 0.26528 0.58236 0.0
O368 O 0.10955 0.21755 0.60068 0.0
O369 O 0.12022 0.23376 0.6125 0.0
C370 C 0.11927 0.22098 0.60901 0.0
C371 C 0.11203 0.28159 0.61801 0.0
C372 C 0.1107 0.25471 0.57473 0.0
C373 C 0.07687 0.24905 0.60737 0.0
O374 O 0.0825 0.26076 0.60596 0.0
O375 O 0.08393 0.23813 0.60597 0.0
O376 O 0.10408 0.28526 0.60807 0.0
O377 O 0.11523 0.26873 0.61894 0.0
O378 O 0.74225 0.08027 0.60604 0.0
Cd379 Cd 0.73677 0.10043 0.60229 0.0
Cd380 Cd 0.76536 0.10269 0.59953 0.0
O381 O 0.76481 0.08253 0.60632 0.0
O382 O 0.71693 0.10086 0.60731 0.0
O383 O 0.73268 0.11268 0.61861 0.0
C384 C 0.71999 0.10897 0.61731 0.0
C385 C 0.78252 0.11747 0.60773 0.0
C386 C 0.75414 0.07512 0.60772 0.0
C387 C 0.74763 0.10842 0.57453 0.0
O388 O 0.75958 0.10653 0.57947 0.0
O389 O 0.73707 0.1072 0.58212 0.0
O390 O 0.78527 0.1074 0.59959 0.0
O391 O 0.76992 0.11895 0.61168 0.0
O392 O 0.92206 0.26215 0.39584 0.0
Cd393 Cd 0.90166 0.2668 0.39933 0.0
Cd394 Cd 0.90048 0.23843 0.40194 0.0
O395 O 0.9207 0.23953 0.3954 0.0
O396 O 0.90021 0.28645 0.39374 0.0
O397 O 0.88925 0.26976 0.38292 0.0
C398 C 0.89229 0.28266 0.38382 0.0
C399 C 0.88584 0.22132 0.39342 0.0
C400 C 0.92772 0.25049 0.39418 0.0
C401 C 0.89403 0.25572 0.42703 0.0
O402 O 0.89643 0.24389 0.42203 0.0
O403 O 0.8948 0.26636 0.41947 0.0
O404 O 0.89594 0.21847 0.40151 0.0
O405 O 0.88431 0.23396 0.38964 0.0
O406 O 0.76003 0.89695 0.4237 0.0
Cd407 Cd 0.76556 0.90106 0.40364 0.0
Cd408 Cd 0.73713 0.90223 0.4008 0.0
O409 O 0.73758 0.89533 0.42092 0.0
O410 O 0.78549 0.89641 0.40309 0.0
O411 O 0.76988 0.88496 0.39121 0.0
C412 C 0.78255 0.88641 0.39492 0.0
C413 C 0.72057 0.89345 0.38567 0.0
C414 C 0.74815 0.89453 0.42857 0.0
C415 C 0.75355 0.92828 0.39576 0.0
O416 O 0.74188 0.92261 0.39731 0.0
O417 O 0.76452 0.92129 0.39711 0.0
O418 O 0.7173 0.90129 0.39581 0.0
O419 O 0.73335 0.89011 0.3843 0.0
O420 O 0.08099 0.73984 0.39761 0.0
Cd421 Cd 0.10142 0.73521 0.40103 0.0
Cd422 Cd 0.10271 0.76357 0.40345 0.0
O423 O 0.08246 0.76245 0.39697 0.0
O424 O 0.10294 0.71559 0.39537 0.0
O425 O 0.11377 0.73237 0.38456 0.0
C426 C 0.11078 0.71946 0.38543 0.0
C427 C 0.1172 0.78069 0.3947 0.0
C428 C 0.07539 0.75151 0.39586 0.0
C429 C 0.10923 0.74642 0.42863 0.0
O430 O 0.10686 0.75823 0.42356 0.0
O431 O 0.10837 0.73574 0.42114 0.0
O432 O 0.10716 0.78354 0.40284 0.0
O433 O 0.11879 0.76802 0.39103 0.0
O434 O 0.24403 0.10645 0.42301 0.0
Cd435 Cd 0.23836 0.10286 0.40287 0.0
Cd436 Cd 0.26681 0.10029 0.40036 0.0
O437 O 0.26658 0.10679 0.42063 0.0
O438 O 0.21847 0.10773 0.40276 0.0
O439 O 0.23395 0.11927 0.39083 0.0
C440 C 0.22133 0.11785 0.39471 0.0
C441 C 0.28292 0.10945 0.385 0.0
C442 C 0.25594 0.1081 0.42812 0.0
C443 C 0.24933 0.07521 0.39456 0.0
O444 O 0.26127 0.0802 0.3964 0.0
O445 O 0.23874 0.08275 0.39592 0.0
O446 O 0.28648 0.10116 0.3947 0.0
O447 O 0.27014 0.11297 0.38424 0.0
O448 O 0.60632 0.9226 0.74111 0.0
Cd449 Cd 0.60225 0.90229 0.73659 0.0
Cd450 Cd 0.60077 0.90092 0.7649 0.0
O451 O 0.6077 0.921 0.76369 0.0
O452 O 0.60754 0.90055 0.71689 0.0
O453 O 0.61835 0.88953 0.73356 0.0
C454 C 0.61737 0.89251 0.72065 0.0
C455 C 0.6096 0.88616 0.78176 0.0
C456 C 0.6086 0.9281 0.75275 0.0
C457 C 0.57483 0.89526 0.74854 0.0
O458 O 0.58039 0.89736 0.76018 0.0
O459 O 0.58195 0.89597 0.7376 0.0
O460 O 0.60181 0.89641 0.78483 0.0
O461 O 0.61287 0.8845 0.76899 0.0
O462 O 0.08161 0.60599 0.74226 0.0
Cd463 Cd 0.10199 0.60244 0.73759 0.0
Cd464 Cd 0.10338 0.59989 0.76573 0.0
O465 O 0.08306 0.60616 0.76488 0.0
O466 O 0.10349 0.60805 0.71795 0.0
O467 O 0.11446 0.61881 0.73467 0.0
C468 C 0.11143 0.61794 0.72176 0.0
C469 C 0.1184 0.60961 0.7818 0.0
C470 C 0.07599 0.6075 0.75396 0.0
C471 C 0.10978 0.57473 0.74868 0.0
O472 O 0.1076 0.57976 0.76054 0.0
O473 O 0.10877 0.58226 0.73804 0.0
O474 O 0.10874 0.6013 0.78544 0.0
O475 O 0.11931 0.61281 0.76894 0.0
O476 O 0.42098 0.10622 0.76181 0.0
Cd477 Cd 0.40053 0.10267 0.76622 0.0
Cd478 Cd 0.39944 0.10056 0.73803 0.0
O479 O 0.41971 0.10696 0.73918 0.0
O480 O 0.39878 0.10813 0.78588 0.0
O481 O 0.38808 0.11905 0.76908 0.0
C482 C 0.39093 0.11808 0.78202 0.0
C483 C 0.38445 0.11023 0.72189 0.0
C484 C 0.42669 0.10802 0.75019 0.0
C485 C 0.39288 0.07515 0.75468 0.0
O486 O 0.39529 0.08034 0.74293 0.0
O487 O 0.39367 0.08253 0.76544 0.0
O488 O 0.39426 0.10209 0.71828 0.0
O489 O 0.38341 0.11334 0.73477 0.0
O490 O 0.8976 0.4231 0.76071 0.0
Cd491 Cd 0.90144 0.40292 0.766 0.0
Cd492 Cd 0.90332 0.40069 0.73752 0.0
O493 O 0.89635 0.42077 0.7382 0.0
O494 O 0.89671 0.40232 0.7859 0.0
O495 O 0.88515 0.39069 0.7702 0.0
C496 C 0.88661 0.39431 0.78289 0.0
C497 C 0.8947 0.38575 0.72074 0.0
C498 C 0.89539 0.42821 0.74889 0.0
C499 C 0.9289 0.39509 0.75441 0.0
O500 O 0.9236 0.39709 0.74263 0.0
O501 O 0.92159 0.39613 0.76519 0.0
O502 O 0.90261 0.3959 0.71765 0.0
O503 O 0.8912 0.38427 0.73347 0.0
O504 O 0.58086 0.10659 0.24213 0.0
Cd505 Cd 0.60125 0.10292 0.23755 0.0
Cd506 Cd 0.60265 0.10159 0.26578 0.0
O507 O 0.58237 0.10797 0.26471 0.0
O508 O 0.60253 0.10753 0.21765 0.0
O509 O 0.6135 0.11928 0.23369 0.0
C510 C 0.61036 0.11771 0.22088 0.0
C511 C 0.61779 0.11146 0.28165 0.0
C512 C 0.57528 0.10871 0.25375 0.0
C513 C 0.60888 0.07571 0.24973 0.0
O514 O 0.60664 0.08124 0.26135 0.0
O515 O 0.60803 0.08279 0.23878 0.0
O516 O 0.60795 0.10347 0.28547 0.0
O517 O 0.61878 0.11434 0.26872 0.0
O518 O 0.89776 0.58052 0.24112 0.0
Cd519 Cd 0.90129 0.60097 0.23671 0.0
Cd520 Cd 0.90355 0.60198 0.26499 0.0
O521 O 0.897 0.58177 0.26374 0.0
O522 O 0.89638 0.6024 0.2169 0.0
O523 O 0.88482 0.61319 0.23318 0.0
C524 C 0.88623 0.61018 0.22033 0.0
C525 C 0.89437 0.61663 0.2817 0.0
C526 C 0.89593 0.57481 0.25273 0.0
C527 C 0.92887 0.60855 0.24823 0.0
O528 O 0.92377 0.60603 0.26 0.0
O529 O 0.9214 0.60788 0.23753 0.0
O530 O 0.90242 0.6066 0.28488 0.0
O531 O 0.89106 0.61812 0.26893 0.0
O532 O 0.39645 0.92294 0.2595 0.0
Cd533 Cd 0.40021 0.90275 0.26488 0.0
Cd534 Cd 0.40231 0.90055 0.23631 0.0
O535 O 0.39542 0.92067 0.23696 0.0
O536 O 0.39556 0.90235 0.2848 0.0
O537 O 0.38389 0.89061 0.26927 0.0
C538 C 0.38543 0.89433 0.28192 0.0
C539 C 0.39371 0.88556 0.21954 0.0
C540 C 0.39438 0.92809 0.24767 0.0
C541 C 0.42773 0.89485 0.2534 0.0
O542 O 0.42254 0.89688 0.24158 0.0
O543 O 0.42034 0.89589 0.26413 0.0
O544 O 0.40168 0.89567 0.21644 0.0
O545 O 0.39014 0.88417 0.23225 0.0
O546 O 0.10706 0.4227 0.24204 0.0
Cd547 Cd 0.10332 0.4025 0.23671 0.0
Cd548 Cd 0.10108 0.4001 0.26497 0.0
O549 O 0.1076 0.42036 0.26459 0.0
O550 O 0.10887 0.40152 0.21701 0.0
O551 O 0.11958 0.38999 0.2334 0.0
C552 C 0.1187 0.39338 0.22058 0.0
C553 C 0.11037 0.38481 0.28108 0.0
C554 C 0.10882 0.42783 0.25393 0.0
C555 C 0.07574 0.3944 0.24783 0.0
O556 O 0.08091 0.39617 0.2597 0.0
O557 O 0.08314 0.39574 0.23714 0.0
O558 O 0.10216 0.39456 0.28466 0.0
O559 O 0.11374 0.38395 0.26826 0.0
O560 O 0.74083 0.60572 0.92242 0.0
Cd561 Cd 0.73623 0.60224 0.90201 0.0
Cd562 Cd 0.76472 0.59985 0.90096 0.0
O563 O 0.76346 0.60647 0.92113 0.0
O564 O 0.71637 0.60704 0.90091 0.0
O565 O 0.7324 0.61872 0.88988 0.0
C566 C 0.71961 0.61723 0.89311 0.0
C567 C 0.78187 0.60854 0.88648 0.0
C568 C 0.75246 0.60755 0.9281 0.0
C569 C 0.74767 0.57465 0.8944 0.0
O570 O 0.75945 0.5797 0.89692 0.0
O571 O 0.73699 0.58215 0.89506 0.0
O572 O 0.7847 0.60047 0.89658 0.0
O573 O 0.7692 0.61217 0.88482 0.0
O574 O 0.76308 0.42175 0.10705 0.0
Cd575 Cd 0.76739 0.40132 0.10329 0.0
Cd576 Cd 0.73916 0.40025 0.10125 0.0
O577 O 0.74047 0.4204 0.10796 0.0
O578 O 0.78701 0.39935 0.10881 0.0
O579 O 0.77007 0.38868 0.11955 0.0
C580 C 0.78304 0.39143 0.11866 0.0
C581 C 0.72225 0.38569 0.11026 0.0
C582 C 0.75146 0.42739 0.10902 0.0
C583 C 0.75581 0.394 0.07573 0.0
O584 O 0.74408 0.39636 0.08098 0.0
O585 O 0.76659 0.39469 0.08309 0.0
O586 O 0.71921 0.39582 0.10229 0.0
O587 O 0.735 0.38404 0.11359 0.0
O588 O 0.60594 0.74127 0.08074 0.0
Cd589 Cd 0.60221 0.73684 0.10115 0.0
Cd590 Cd 0.6008 0.76524 0.1023 0.0
O591 O 0.60748 0.76384 0.08215 0.0
O592 O 0.6068 0.71696 0.1026 0.0
O593 O 0.61854 0.73306 0.11347 0.0
C594 C 0.61696 0.72023 0.11042 0.0
C595 C 0.60986 0.78216 0.11683 0.0
C596 C 0.6082 0.75285 0.07512 0.0
C597 C 0.57494 0.74903 0.10851 0.0
O598 O 0.58045 0.76064 0.10614 0.0
O599 O 0.58206 0.73809 0.10786 0.0
O600 O 0.60198 0.7852 0.10663 0.0
O601 O 0.6131 0.76939 0.11855 0.0
O602 O 0.24292 0.57968 0.10725 0.0
Cd603 Cd 0.2377 0.59982 0.10311 0.0
Cd604 Cd 0.26591 0.60226 0.10162 0.0
O605 O 0.26543 0.58212 0.10849 0.0
O606 O 0.21796 0.60103 0.10844 0.0
O607 O 0.23434 0.61259 0.11913 0.0
C608 C 0.22151 0.60926 0.11819 0.0
C609 C 0.28183 0.61772 0.11097 0.0
C610 C 0.25476 0.57462 0.10948 0.0
C611 C 0.24941 0.6074 0.07569 0.0
O612 O 0.26114 0.60578 0.08124 0.0
O613 O 0.23852 0.60618 0.08281 0.0
O614 O 0.28558 0.60782 0.10302 0.0
O615 O 0.26894 0.61865 0.11404 0.0
O616 O 0.39643 0.26231 0.08026 0.0
Cd617 Cd 0.40037 0.2667 0.10063 0.0
Cd618 Cd 0.40167 0.23844 0.10193 0.0
O619 O 0.3948 0.23975 0.08183 0.0
O620 O 0.395 0.28636 0.10262 0.0
O621 O 0.3842 0.26949 0.11335 0.0
C622 C 0.38515 0.28245 0.11058 0.0
C623 C 0.39275 0.22163 0.11669 0.0
C624 C 0.39406 0.25071 0.07473 0.0
C625 C 0.42767 0.2546 0.10783 0.0
O626 O 0.42206 0.24301 0.10558 0.0
O627 O 0.4206 0.26558 0.10715 0.0
O628 O 0.40051 0.2185 0.10643 0.0
O629 O 0.38953 0.2344 0.11834 0.0
O630 O 0.26121 0.3967 0.92235 0.0
Cd631 Cd 0.26543 0.40035 0.90188 0.0
Cd632 Cd 0.23716 0.40115 0.90082 0.0
O633 O 0.23868 0.39453 0.92099 0.0
O634 O 0.28531 0.39582 0.90018 0.0
O635 O 0.26907 0.38395 0.88963 0.0
C636 C 0.28194 0.38558 0.89249 0.0
C637 C 0.22063 0.39174 0.88608 0.0
C638 C 0.24971 0.39416 0.92801 0.0
C639 C 0.25273 0.42733 0.89445 0.0
O640 O 0.24127 0.42159 0.89699 0.0
O641 O 0.26382 0.42043 0.895 0.0
O642 O 0.21728 0.39946 0.89631 0.0
O643 O 0.23349 0.38881 0.88449 0.0
O644 O 0.57994 0.24149 0.89755 0.0
Cd645 Cd 0.60042 0.23741 0.90128 0.0
Cd646 Cd 0.6012 0.26572 0.90211 0.0
O647 O 0.58112 0.26401 0.89528 0.0
O648 O 0.60216 0.21751 0.89689 0.0
O649 O 0.61269 0.23368 0.88491 0.0
C650 C 0.60983 0.22082 0.88662 0.0
C651 C 0.61587 0.28237 0.89284 0.0
C652 C 0.57421 0.25293 0.8949 0.0
C653 C 0.60761 0.25016 0.9283 0.0
O654 O 0.60493 0.2616 0.92259 0.0
O655 O 0.60725 0.23909 0.92136 0.0
O656 O 0.60557 0.28563 0.90048 0.0
O657 O 0.61759 0.26953 0.88991 0.0
O658 O 0.42075 0.76048 0.89607 0.0
Cd659 Cd 0.40035 0.76486 0.89988 0.0
Cd660 Cd 0.39931 0.73646 0.90088 0.0
O661 O 0.41939 0.73795 0.89401 0.0
O662 O 0.399 0.78481 0.89553 0.0
O663 O 0.3881 0.7689 0.88355 0.0
C664 C 0.39124 0.78169 0.88527 0.0
C665 C 0.38452 0.71982 0.89171 0.0
C666 C 0.42639 0.74897 0.89351 0.0
C667 C 0.3932 0.75226 0.92701 0.0
O668 O 0.39569 0.74076 0.92133 0.0
O669 O 0.39365 0.7633 0.92002 0.0
O670 O 0.3948 0.71655 0.89939 0.0
O671 O 0.38287 0.73266 0.88871 0.0
C672 C 0.12126 0.36217 0.28729 0.0
C673 C 0.11503 0.37456 0.29136 0.0
C674 C 0.12425 0.35196 0.29702 0.0
C675 C 0.12796 0.34588 0.33459 0.0
H676 H 0.11529 0.30906 0.32612 0.0
C677 C 0.11286 0.3071 0.37635 0.0
C678 C 0.11542 0.29302 0.37435 0.0
C679 C 0.11584 0.31662 0.36604 0.0
C680 C 0.11915 0.3192 0.32859 0.0
H681 H 0.10757 0.38616 0.30888 0.0
H682 H 0.11277 0.36848 0.32573 0.0
H683 H 0.11521 0.32664 0.30823 0.0
H684 H 0.12355 0.27796 0.36009 0.0
H685 H 0.12881 0.29467 0.342 0.0
H686 H 0.13152 0.33857 0.35504 0.0
C687 C 0.11543 0.36661 0.31508 0.0
C688 C 0.1191 0.32929 0.31832 0.0
C689 C 0.11236 0.37674 0.30538 0.0
C690 C 0.12147 0.28873 0.36195 0.0
C691 C 0.12439 0.29829 0.35156 0.0
C692 C 0.12802 0.33581 0.34484 0.0
C693 C 0.1212 0.35401 0.31101 0.0
C694 C 0.12315 0.34285 0.32131 0.0
C695 C 0.12143 0.31233 0.35342 0.0
C696 C 0.12326 0.32244 0.34207 0.0
H697 H 0.12344 0.36018 0.27655 0.0
H698 H 0.1288 0.3424 0.29357 0.0
H699 H 0.1314 0.35615 0.33716 0.0
H700 H 0.10821 0.31076 0.38578 0.0
H701 H 0.11324 0.32731 0.36778 0.0
C702 C 0.69602 0.11362 0.37618 0.0
C703 C 0.71011 0.11604 0.37412 0.0
C704 C 0.68648 0.11677 0.36594 0.0
C705 C 0.68369 0.12013 0.32855 0.0
H706 H 0.64702 0.13305 0.33734 0.0
C707 C 0.64052 0.12232 0.28755 0.0
C708 C 0.62806 0.11634 0.29179 0.0
C709 C 0.65081 0.12537 0.29718 0.0
C710 C 0.65721 0.12942 0.33471 0.0
H711 H 0.7252 0.12407 0.35981 0.0
H712 H 0.70844 0.12958 0.34183 0.0
H713 H 0.66472 0.13293 0.35509 0.0
H714 H 0.61642 0.10942 0.30951 0.0
H715 H 0.63424 0.11469 0.32618 0.0
H716 H 0.67605 0.11619 0.30829 0.0
C717 C 0.70483 0.12517 0.35139 0.0
C718 C 0.66736 0.12936 0.34488 0.0
C719 C 0.71441 0.1221 0.36172 0.0
C720 C 0.62589 0.11402 0.30589 0.0
C721 C 0.6361 0.11713 0.31548 0.0
C722 C 0.67353 0.12019 0.31836 0.0
C723 C 0.69076 0.12237 0.35332 0.0
C724 C 0.68062 0.12436 0.34203 0.0
C725 C 0.64879 0.12261 0.31124 0.0
C726 C 0.66006 0.12448 0.32143 0.0
H727 H 0.69235 0.10897 0.38561 0.0
H728 H 0.67577 0.1143 0.36772 0.0
H729 H 0.69376 0.11609 0.32604 0.0
H730 H 0.6425 0.12423 0.27677 0.0
H731 H 0.66042 0.1297 0.2936 0.0
C732 C 0.88392 0.71295 0.36224 0.0
C733 C 0.88866 0.70942 0.37543 0.0
C734 C 0.88213 0.70278 0.35217 0.0
C735 C 0.89557 0.66848 0.34367 0.0
H736 H 0.86653 0.66733 0.31637 0.0
C737 C 0.89215 0.62345 0.30632 0.0
C738 C 0.89004 0.62658 0.29238 0.0
C739 C 0.88996 0.63337 0.31644 0.0
C740 C 0.87475 0.66759 0.32388 0.0
H741 H 0.89426 0.69239 0.3887 0.0
H742 H 0.89089 0.67476 0.37133 0.0
H743 H 0.86624 0.68516 0.3342 0.0
H744 H 0.88329 0.64237 0.27818 0.0
H745 H 0.87964 0.65985 0.29592 0.0
H746 H 0.90424 0.65116 0.3334 0.0
C747 C 0.88892 0.68537 0.36859 0.0
C748 C 0.87458 0.67779 0.33408 0.0
C749 C 0.89077 0.69549 0.37858 0.0
C750 C 0.88499 0.63965 0.28884 0.0
C751 C 0.88288 0.64965 0.29901 0.0
C752 C 0.89574 0.65836 0.33354 0.0
C753 C 0.88501 0.68892 0.35514 0.0
C754 C 0.88495 0.67826 0.34417 0.0
C755 C 0.88573 0.64672 0.31289 0.0
C756 C 0.8853 0.65768 0.32357 0.0
H757 H 0.88221 0.7236 0.3595 0.0
H758 H 0.87913 0.70586 0.3419 0.0
H759 H 0.90393 0.66875 0.35102 0.0
H760 H 0.89587 0.61342 0.30941 0.0
H761 H 0.89192 0.63065 0.32706 0.0
C762 C 0.37847 0.89333 0.30658 0.0
C763 C 0.37545 0.89047 0.29276 0.0
C764 C 0.36854 0.89149 0.31677 0.0
C765 C 0.33475 0.8758 0.32492 0.0
H766 H 0.33274 0.90618 0.35065 0.0
C767 C 0.28926 0.88512 0.36308 0.0
C768 C 0.29267 0.89057 0.37603 0.0
C769 C 0.29944 0.88328 0.35303 0.0
C770 C 0.33326 0.89749 0.3437 0.0
H771 H 0.35983 0.88275 0.27886 0.0
H772 H 0.34234 0.87967 0.29671 0.0
H773 H 0.3503 0.90618 0.33297 0.0
H774 H 0.30953 0.89745 0.3889 0.0
H775 H 0.32719 0.89402 0.37158 0.0
H776 H 0.31748 0.86725 0.33571 0.0
C777 C 0.35246 0.88325 0.29966 0.0
C778 C 0.34335 0.89749 0.33353 0.0
C779 C 0.36247 0.88504 0.28943 0.0
C780 C 0.30652 0.8934 0.37897 0.0
C781 C 0.31665 0.89151 0.369 0.0
C782 C 0.32458 0.8758 0.33516 0.0
C783 C 0.35529 0.88682 0.3134 0.0
C784 C 0.34433 0.88661 0.32408 0.0
C785 C 0.3132 0.88683 0.35577 0.0
C786 C 0.32381 0.88661 0.34475 0.0
H787 H 0.38842 0.89737 0.30953 0.0
H788 H 0.37118 0.89401 0.32729 0.0
H789 H 0.33524 0.86725 0.31782 0.0
H790 H 0.27867 0.88285 0.3605 0.0
H791 H 0.29643 0.87969 0.34293 0.0
C792 C 0.11378 0.62618 0.69756 0.0
C793 C 0.11614 0.62831 0.71165 0.0
C794 C 0.11686 0.63641 0.68798 0.0
C795 C 0.11995 0.67382 0.68505 0.0
H796 H 0.133 0.66497 0.64845 0.0
C797 C 0.12223 0.71464 0.64166 0.0
C798 C 0.11633 0.71033 0.62919 0.0
C799 C 0.12519 0.70508 0.65203 0.0
C800 C 0.12933 0.66761 0.65862 0.0
H801 H 0.12401 0.64274 0.72669 0.0
H802 H 0.1294 0.66071 0.70989 0.0
H803 H 0.13295 0.64728 0.66622 0.0
H804 H 0.10943 0.69255 0.61763 0.0
H805 H 0.11456 0.67599 0.63561 0.0
H806 H 0.11591 0.69404 0.67732 0.0
C807 C 0.12508 0.6511 0.7063 0.0
C808 C 0.12931 0.65748 0.66881 0.0
C809 C 0.12208 0.64078 0.71591 0.0
C810 C 0.11397 0.69623 0.62712 0.0
C811 C 0.117 0.6867 0.63741 0.0
C812 C 0.11997 0.68397 0.67485 0.0
C813 C 0.12233 0.64909 0.69223 0.0
C814 C 0.12426 0.66035 0.68204 0.0
C815 C 0.12243 0.69101 0.65008 0.0
C816 C 0.12431 0.68088 0.66141 0.0
H817 H 0.10922 0.6167 0.69391 0.0
H818 H 0.11443 0.63456 0.67727 0.0
H819 H 0.11587 0.67635 0.6951 0.0
H820 H 0.12417 0.72544 0.64357 0.0
H821 H 0.12949 0.70871 0.66164 0.0
C822 C 0.30674 0.11294 0.62667 0.0
C823 C 0.29268 0.11558 0.62868 0.0
C824 C 0.31631 0.11593 0.63694 0.0
C825 C 0.31897 0.11937 0.67436 0.0
H826 H 0.35597 0.13144 0.66571 0.0
C827 C 0.3619 0.12128 0.71565 0.0
C828 C 0.37429 0.11504 0.7116 0.0
C829 C 0.35173 0.12434 0.70591 0.0
C830 C 0.34568 0.12805 0.6683 0.0
H831 H 0.2777 0.12389 0.64293 0.0
H832 H 0.29448 0.12915 0.66095 0.0
H833 H 0.33837 0.13157 0.64784 0.0
H834 H 0.38593 0.10764 0.69407 0.0
H835 H 0.36831 0.11294 0.67719 0.0
H836 H 0.32641 0.11544 0.69471 0.0
C837 C 0.29806 0.12466 0.65141 0.0
C838 C 0.3356 0.12812 0.65806 0.0
C839 C 0.28846 0.12173 0.64106 0.0
C840 C 0.37651 0.11244 0.69756 0.0
C841 C 0.36642 0.11557 0.68785 0.0
C842 C 0.32907 0.1193 0.68461 0.0
C843 C 0.31208 0.12161 0.64953 0.0
C844 C 0.32221 0.12343 0.66086 0.0
C845 C 0.3538 0.12133 0.69191 0.0
C846 C 0.34264 0.12329 0.68161 0.0
H847 H 0.31036 0.10821 0.61726 0.0
H848 H 0.32698 0.11327 0.63519 0.0
H849 H 0.30881 0.11556 0.67684 0.0
H850 H 0.35988 0.1234 0.72639 0.0
H851 H 0.34217 0.12889 0.70935 0.0
C852 C 0.89292 0.30707 0.6237 0.0
C853 C 0.89058 0.29313 0.62664 0.0
C854 C 0.89102 0.31709 0.63377 0.0
C855 C 0.87607 0.32448 0.66804 0.0
H856 H 0.90589 0.3509 0.66952 0.0
C857 C 0.88562 0.36262 0.71352 0.0
C858 C 0.89069 0.3757 0.71003 0.0
C859 C 0.88376 0.35256 0.70335 0.0
C860 C 0.89736 0.34375 0.66916 0.0
H861 H 0.8837 0.27884 0.64229 0.0
H862 H 0.88052 0.29642 0.66005 0.0
H863 H 0.90586 0.33337 0.65181 0.0
H864 H 0.89682 0.3888 0.69306 0.0
H865 H 0.89333 0.37148 0.67542 0.0
H866 H 0.8677 0.33493 0.6856 0.0
C867 C 0.88374 0.29957 0.64987 0.0
C868 C 0.89734 0.33367 0.65898 0.0
C869 C 0.88559 0.2895 0.63971 0.0
C870 C 0.89308 0.37877 0.69613 0.0
C871 C 0.89116 0.3688 0.68601 0.0
C872 C 0.87609 0.33463 0.67829 0.0
C873 C 0.88683 0.31343 0.64711 0.0
C874 C 0.88665 0.32399 0.65819 0.0
C875 C 0.88689 0.35545 0.68952 0.0
C876 C 0.88668 0.34447 0.67886 0.0
H877 H 0.89661 0.31024 0.61368 0.0
H878 H 0.89316 0.3277 0.63119 0.0
H879 H 0.86768 0.31718 0.66769 0.0
H880 H 0.8837 0.35994 0.72416 0.0
H881 H 0.88049 0.34237 0.7064 0.0
C882 C 0.69617 0.89153 0.62657 0.0
C883 C 0.71022 0.88889 0.62866 0.0
C884 C 0.68653 0.88831 0.6367 0.0
C885 C 0.68348 0.88426 0.67398 0.0
H886 H 0.64677 0.87177 0.66473 0.0
C887 C 0.64007 0.88163 0.71468 0.0
C888 C 0.62766 0.88773 0.71048 0.0
C889 C 0.65039 0.87869 0.70506 0.0
C890 C 0.65697 0.87527 0.66749 0.0
H891 H 0.72512 0.8804 0.64289 0.0
H892 H 0.70821 0.87478 0.66069 0.0
H893 H 0.66458 0.87211 0.64709 0.0
H894 H 0.61613 0.89497 0.69281 0.0
H895 H 0.63401 0.8899 0.67615 0.0
H896 H 0.67574 0.88787 0.69427 0.0
C897 C 0.7047 0.87942 0.65119 0.0
C898 C 0.66717 0.87546 0.65738 0.0
C899 C 0.71437 0.88255 0.64097 0.0
C900 C 0.62556 0.89028 0.69641 0.0
C901 C 0.63581 0.88728 0.68682 0.0
C902 C 0.67325 0.88408 0.68411 0.0
C903 C 0.69068 0.88242 0.64923 0.0
C904 C 0.68045 0.88032 0.66041 0.0
C905 C 0.64845 0.88168 0.69104 0.0
C906 C 0.65977 0.87994 0.68088 0.0
H907 H 0.69261 0.89639 0.6172 0.0
H908 H 0.67586 0.89094 0.6349 0.0
H909 H 0.69356 0.88818 0.67664 0.0
H910 H 0.642 0.87955 0.72545 0.0
H911 H 0.65996 0.87426 0.70862 0.0
C912 C 0.37718 0.11117 0.30596 0.0
C913 C 0.37503 0.11411 0.29198 0.0
C914 C 0.36709 0.11418 0.31571 0.0
C915 C 0.32978 0.11831 0.31893 0.0
H916 H 0.33915 0.12957 0.356 0.0
C917 C 0.2891 0.12053 0.36244 0.0
C918 C 0.29317 0.11403 0.3747 0.0
C919 C 0.29877 0.12347 0.35217 0.0
C920 C 0.33636 0.12641 0.34569 0.0
H921 H 0.36075 0.12295 0.27733 0.0
H922 H 0.34305 0.12825 0.29444 0.0
H923 H 0.35679 0.12962 0.33818 0.0
H924 H 0.31067 0.10602 0.38597 0.0
H925 H 0.32742 0.11111 0.36817 0.0
H926 H 0.30944 0.1147 0.32655 0.0
C927 C 0.35255 0.12351 0.29781 0.0
C928 C 0.34647 0.12643 0.33548 0.0
C929 C 0.36272 0.12057 0.28803 0.0
C930 C 0.30717 0.11102 0.37666 0.0
C931 C 0.31681 0.11403 0.36647 0.0
C932 C 0.31965 0.11829 0.32915 0.0
C933 C 0.35455 0.12017 0.31175 0.0
C934 C 0.34339 0.12203 0.32206 0.0
C935 C 0.31272 0.12009 0.354 0.0
C936 C 0.32291 0.12199 0.34275 0.0
H937 H 0.38655 0.1062 0.30937 0.0
H938 H 0.36893 0.11129 0.32631 0.0
H939 H 0.32708 0.11473 0.30874 0.0
H940 H 0.27839 0.12297 0.36061 0.0
H941 H 0.2953 0.12825 0.34272 0.0
C942 C 0.88163 0.28856 0.36099 0.0
C943 C 0.88765 0.29279 0.37343 0.0
C944 C 0.87872 0.29816 0.35064 0.0
C945 C 0.87512 0.33571 0.34405 0.0
H946 H 0.88825 0.32668 0.30752 0.0
C947 C 0.8913 0.37675 0.30493 0.0
C948 C 0.88884 0.37461 0.29086 0.0
C949 C 0.88804 0.36662 0.31456 0.0
C950 C 0.88426 0.3293 0.31759 0.0
H951 H 0.89479 0.31049 0.38497 0.0
H952 H 0.88978 0.32711 0.36704 0.0
H953 H 0.88799 0.30903 0.32533 0.0
H954 H 0.88059 0.36029 0.2759 0.0
H955 H 0.87488 0.34251 0.2928 0.0
H956 H 0.87183 0.35609 0.33644 0.0
C957 C 0.8872 0.31643 0.36524 0.0
C958 C 0.88411 0.31917 0.3278 0.0
C959 C 0.89017 0.30686 0.37551 0.0
C960 C 0.88261 0.36226 0.28667 0.0
C961 C 0.87942 0.35205 0.29634 0.0
C962 C 0.87528 0.34582 0.33385 0.0
C963 C 0.88166 0.3122 0.35259 0.0
C964 C 0.8799 0.32235 0.34126 0.0
C965 C 0.88228 0.35405 0.31038 0.0
C966 C 0.88021 0.34284 0.3206 0.0
H967 H 0.87957 0.27779 0.35907 0.0
H968 H 0.87434 0.29459 0.34105 0.0
H969 H 0.87155 0.33843 0.35424 0.0
H970 H 0.89608 0.38615 0.30851 0.0
H971 H 0.89055 0.36846 0.32525 0.0
C972 C 0.69604 0.89157 0.37847 0.0
C973 C 0.70999 0.88936 0.3755 0.0
C974 C 0.68602 0.8896 0.36841 0.0
C975 C 0.67874 0.8747 0.33406 0.0
H976 H 0.65192 0.90417 0.33281 0.0
C977 C 0.64038 0.88417 0.2887 0.0
C978 C 0.62724 0.889 0.29227 0.0
C979 C 0.65048 0.88232 0.29884 0.0
C980 C 0.65919 0.89573 0.33311 0.0
H981 H 0.72433 0.88266 0.35982 0.0
H982 H 0.70675 0.87937 0.34207 0.0
H983 H 0.6695 0.90427 0.35047 0.0
H984 H 0.61407 0.89473 0.30933 0.0
H985 H 0.63148 0.89127 0.32691 0.0
H986 H 0.66836 0.8663 0.31647 0.0
C987 C 0.70358 0.88253 0.35226 0.0
C988 C 0.66929 0.89579 0.34326 0.0
C989 C 0.71365 0.88444 0.36242 0.0
C990 C 0.62415 0.89116 0.30621 0.0
C991 C 0.63417 0.88926 0.31629 0.0
C992 C 0.66856 0.87465 0.32383 0.0
C993 C 0.68969 0.88548 0.35505 0.0
C994 C 0.67912 0.88523 0.34398 0.0
C995 C 0.64758 0.88524 0.31271 0.0
C996 C 0.65858 0.88511 0.32334 0.0
H997 H 0.69284 0.8952 0.3885 0.0
H998 H 0.67539 0.89162 0.37101 0.0
H999 H 0.68615 0.8664 0.33435 0.0
H1000 H 0.64307 0.88242 0.27804 0.0
H1001 H 0.66072 0.87923 0.29574 0.0
C1002 C 0.11238 0.6258 0.30586 0.0
C1003 C 0.11503 0.628 0.29184 0.0
C1004 C 0.11543 0.63591 0.31557 0.0
C1005 C 0.11901 0.67323 0.31887 0.0
H1006 H 0.13153 0.66391 0.35555 0.0
C1007 C 0.12139 0.71372 0.36254 0.0
C1008 C 0.1154 0.7094 0.37496 0.0
C1009 C 0.12431 0.70418 0.35213 0.0
C1010 C 0.12801 0.66669 0.34536 0.0
H1011 H 0.12337 0.64244 0.27704 0.0
H1012 H 0.12871 0.6602 0.29408 0.0
H1013 H 0.13142 0.64636 0.33765 0.0
H1014 H 0.10826 0.69162 0.38639 0.0
H1015 H 0.11328 0.67512 0.36835 0.0
H1016 H 0.11517 0.69344 0.32671 0.0
C1017 C 0.12419 0.65062 0.29752 0.0
C1018 C 0.12795 0.65663 0.3351 0.0
C1019 C 0.12122 0.64042 0.28778 0.0
C1020 C 0.11288 0.69531 0.37695 0.0
C1021 C 0.11585 0.68581 0.36662 0.0
C1022 C 0.11906 0.6833 0.32915 0.0
C1023 C 0.12117 0.64853 0.31152 0.0
C1024 C 0.1231 0.65968 0.32183 0.0
C1025 C 0.12139 0.69013 0.35399 0.0
C1026 C 0.12321 0.68004 0.34262 0.0
H1027 H 0.10762 0.61635 0.30935 0.0
H1028 H 0.11279 0.63401 0.32622 0.0
H1029 H 0.11509 0.67589 0.30879 0.0
H1030 H 0.12345 0.7245 0.36069 0.0
H1031 H 0.12869 0.70783 0.34256 0.0
C1032 C 0.37653 0.89075 0.69667 0.0
C1033 C 0.37442 0.88826 0.71074 0.0
C1034 C 0.3664 0.88746 0.68705 0.0
C1035 C 0.32908 0.88359 0.68411 0.0
H1036 H 0.33815 0.87107 0.64737 0.0
C1037 C 0.28822 0.88127 0.64084 0.0
C1038 C 0.29242 0.88738 0.62844 0.0
C1039 C 0.29787 0.87823 0.65112 0.0
C1040 C 0.33544 0.87458 0.65758 0.0
H1041 H 0.36017 0.87992 0.72571 0.0
H1042 H 0.34238 0.87416 0.70883 0.0
H1043 H 0.35585 0.8713 0.66514 0.0
H1044 H 0.31009 0.89454 0.61686 0.0
H1045 H 0.32678 0.88931 0.63467 0.0
H1046 H 0.30879 0.88732 0.67643 0.0
C1047 C 0.35189 0.87874 0.70529 0.0
C1048 C 0.34559 0.87471 0.66776 0.0
C1049 C 0.36211 0.88196 0.71494 0.0
C1050 C 0.30649 0.88985 0.6263 0.0
C1051 C 0.3161 0.88675 0.6365 0.0
C1052 C 0.31892 0.88347 0.67392 0.0
C1053 C 0.35385 0.88165 0.69125 0.0
C1054 C 0.34263 0.87957 0.68105 0.0
C1055 C 0.3119 0.88114 0.64914 0.0
C1056 C 0.32208 0.87932 0.66043 0.0
H1057 H 0.38589 0.89559 0.69308 0.0
H1058 H 0.3682 0.89001 0.67636 0.0
H1059 H 0.32648 0.88752 0.69419 0.0
H1060 H 0.27745 0.87925 0.6428 0.0
H1061 H 0.29431 0.8738 0.66069 0.0
C1062 C 0.12165 0.36208 0.71451 0.0
C1063 C 0.11549 0.37443 0.71021 0.0
C1064 C 0.12474 0.35174 0.70495 0.0
C1065 C 0.12881 0.34517 0.66749 0.0
H1066 H 0.11608 0.30846 0.67636 0.0
C1067 C 0.11395 0.30585 0.62618 0.0
C1068 C 0.11656 0.29181 0.62836 0.0
C1069 C 0.11686 0.31551 0.63638 0.0
C1070 C 0.11996 0.31857 0.67379 0.0
H1071 H 0.10825 0.38581 0.69245 0.0
H1072 H 0.1136 0.36791 0.6759 0.0
H1073 H 0.11585 0.32627 0.69401 0.0
H1074 H 0.12469 0.27694 0.64283 0.0
H1075 H 0.1298 0.29389 0.66075 0.0
H1076 H 0.13252 0.3376 0.64717 0.0
C1077 C 0.11614 0.36618 0.6866 0.0
C1078 C 0.11982 0.3288 0.68392 0.0
C1079 C 0.11298 0.37643 0.69613 0.0
C1080 C 0.12257 0.28769 0.64084 0.0
C1081 C 0.12541 0.29738 0.65113 0.0
C1082 C 0.12895 0.33496 0.65739 0.0
C1083 C 0.12185 0.35361 0.6909 0.0
C1084 C 0.12389 0.34232 0.68078 0.0
C1085 C 0.12242 0.31138 0.64907 0.0
C1086 C 0.12417 0.32164 0.6603 0.0
H1087 H 0.1237 0.36022 0.7253 0.0
H1088 H 0.12924 0.34222 0.70858 0.0
H1089 H 0.13227 0.35541 0.66481 0.0
H1090 H 0.10933 0.30939 0.61668 0.0
H1091 H 0.11424 0.32616 0.6345 0.0
C1092 C 0.69541 0.11042 0.62444 0.0
C1093 C 0.70931 0.11301 0.62737 0.0
C1094 C 0.68532 0.1125 0.63441 0.0
C1095 C 0.67772 0.12836 0.66827 0.0
H1096 H 0.6511 0.09875 0.67021 0.0
C1097 C 0.63939 0.11965 0.71379 0.0
C1098 C 0.62627 0.11466 0.71032 0.0
C1099 C 0.64947 0.12137 0.70362 0.0
C1100 C 0.65832 0.10722 0.66972 0.0
H1101 H 0.72345 0.12045 0.6429 0.0
H1102 H 0.70577 0.1239 0.66049 0.0
H1103 H 0.66877 0.09828 0.65264 0.0
H1104 H 0.61314 0.10854 0.69337 0.0
H1105 H 0.63053 0.11175 0.67573 0.0
H1106 H 0.66722 0.13715 0.6856 0.0
C1107 C 0.70268 0.12037 0.65039 0.0
C1108 C 0.66847 0.10695 0.65962 0.0
C1109 C 0.71282 0.11837 0.64033 0.0
C1110 C 0.62319 0.11223 0.69642 0.0
C1111 C 0.6332 0.114 0.6863 0.0
C1112 C 0.66751 0.12861 0.67846 0.0
C1113 C 0.68886 0.1171 0.64764 0.0
C1114 C 0.67822 0.11757 0.65865 0.0
C1115 C 0.64658 0.11815 0.68981 0.0
C1116 C 0.6576 0.1181 0.6792 0.0
H1117 H 0.69232 0.10645 0.6145 0.0
H1118 H 0.67473 0.11021 0.63182 0.0
H1119 H 0.68506 0.13671 0.66779 0.0
H1120 H 0.64208 0.1216 0.72441 0.0
H1121 H 0.65969 0.12457 0.70666 0.0
C1122 C 0.8918 0.69652 0.62449 0.0
C1123 C 0.88961 0.71047 0.62749 0.0
C1124 C 0.88988 0.68649 0.63455 0.0
C1125 C 0.87512 0.67914 0.66892 0.0
H1126 H 0.90467 0.65241 0.6701 0.0
C1127 C 0.88466 0.64082 0.71426 0.0
C1128 C 0.88956 0.62769 0.71071 0.0
C1129 C 0.88281 0.65091 0.70412 0.0
C1130 C 0.89621 0.65965 0.66983 0.0
H1131 H 0.88299 0.72478 0.64324 0.0
H1132 H 0.87978 0.70718 0.66097 0.0
H1133 H 0.90467 0.66999 0.65243 0.0
H1134 H 0.89542 0.61456 0.69368 0.0
H1135 H 0.89195 0.63195 0.67609 0.0
H1136 H 0.86679 0.66874 0.68653 0.0
C1137 C 0.88289 0.70402 0.65076 0.0
C1138 C 0.89622 0.66976 0.65967 0.0
C1139 C 0.88475 0.7141 0.64061 0.0
C1140 C 0.89181 0.62462 0.69679 0.0
C1141 C 0.8899 0.63463 0.6867 0.0
C1142 C 0.87511 0.66896 0.67915 0.0
C1143 C 0.88582 0.69014 0.64793 0.0
C1144 C 0.88562 0.67955 0.65898 0.0
C1145 C 0.8858 0.64802 0.69026 0.0
C1146 C 0.88561 0.65902 0.67962 0.0
H1147 H 0.89538 0.69334 0.61443 0.0
H1148 H 0.8919 0.67586 0.63192 0.0
H1149 H 0.8668 0.68653 0.66866 0.0
H1150 H 0.88285 0.64349 0.72492 0.0
H1151 H 0.87967 0.66113 0.70722 0.0
C1152 C 0.28816 0.36194 0.12193 0.0
C1153 C 0.29238 0.37444 0.11601 0.0
C1154 C 0.29781 0.35165 0.12491 0.0
C1155 C 0.33533 0.34533 0.12902 0.0
H1156 H 0.3268 0.30882 0.11552 0.0
C1157 C 0.37695 0.30663 0.11329 0.0
C1158 C 0.37484 0.29252 0.11551 0.0
C1159 C 0.36671 0.31616 0.11649 0.0
C1160 C 0.32928 0.31887 0.11961 0.0
H1161 H 0.31008 0.38614 0.10913 0.0
H1162 H 0.32678 0.36831 0.11429 0.0
H1163 H 0.30901 0.32648 0.11561 0.0
H1164 H 0.36046 0.27738 0.12331 0.0
H1165 H 0.3425 0.2941 0.12893 0.0
H1166 H 0.35572 0.33785 0.13261 0.0
C1167 C 0.31608 0.36642 0.11672 0.0
C1168 C 0.31906 0.32901 0.11966 0.0
C1169 C 0.30647 0.37663 0.11367 0.0
C1170 C 0.36241 0.28819 0.12148 0.0
C1171 C 0.35209 0.29775 0.12461 0.0
C1172 C 0.34553 0.3352 0.12897 0.0
C1173 C 0.31186 0.35371 0.12216 0.0
C1174 C 0.32208 0.34246 0.12401 0.0
C1175 C 0.35405 0.31183 0.12195 0.0
C1176 C 0.34274 0.32196 0.12391 0.0
H1177 H 0.27738 0.35994 0.12385 0.0
H1178 H 0.29425 0.34202 0.1292 0.0
H1179 H 0.33792 0.35551 0.13269 0.0
H1180 H 0.38641 0.31033 0.10872 0.0
H1181 H 0.36853 0.32689 0.11413 0.0
C1182 C 0.36125 0.71278 0.88288 0.0
C1183 C 0.37446 0.70919 0.88752 0.0
C1184 C 0.35117 0.70264 0.88098 0.0
C1185 C 0.34273 0.66812 0.89396 0.0
H1186 H 0.31509 0.66762 0.86524 0.0
C1187 C 0.305 0.6234 0.89022 0.0
C1188 C 0.29106 0.62666 0.88835 0.0
C1189 C 0.31517 0.63327 0.88808 0.0
C1190 C 0.32269 0.66769 0.87337 0.0
H1191 H 0.38775 0.69209 0.89284 0.0
H1192 H 0.37037 0.6745 0.88928 0.0
H1193 H 0.33301 0.68535 0.86504 0.0
H1194 H 0.2769 0.64268 0.88207 0.0
H1195 H 0.29474 0.66009 0.87851 0.0
H1196 H 0.33246 0.6507 0.90245 0.0
C1197 C 0.36762 0.68514 0.88747 0.0
C1198 C 0.33295 0.67784 0.87325 0.0
C1199 C 0.37762 0.69523 0.88943 0.0
C1200 C 0.28756 0.63985 0.88359 0.0
C1201 C 0.29778 0.64982 0.88152 0.0
C1202 C 0.33254 0.65805 0.89408 0.0
C1203 C 0.35415 0.68874 0.88366 0.0
C1204 C 0.34315 0.67809 0.88351 0.0
C1205 C 0.31168 0.64673 0.88414 0.0
C1206 C 0.32245 0.65761 0.88375 0.0
H1207 H 0.3585 0.72346 0.88134 0.0
H1208 H 0.34089 0.70577 0.87807 0.0
H1209 H 0.35017 0.66821 0.90224 0.0
H1210 H 0.30807 0.61328 0.89372 0.0
H1211 H 0.3258 0.63044 0.88986 0.0
C1212 C 0.28887 0.36237 0.88344 0.0
C1213 C 0.29252 0.37555 0.8881 0.0
C1214 C 0.29899 0.35232 0.88131 0.0
C1215 C 0.33376 0.34386 0.89364 0.0
H1216 H 0.33372 0.31631 0.86484 0.0
C1217 C 0.3783 0.30601 0.88916 0.0
C1218 C 0.37494 0.29209 0.88737 0.0
C1219 C 0.36845 0.31623 0.88713 0.0
C1220 C 0.33381 0.3239 0.87299 0.0
H1221 H 0.30968 0.38883 0.89322 0.0
H1222 H 0.32724 0.37151 0.88926 0.0
H1223 H 0.316 0.33425 0.86501 0.0
H1224 H 0.35877 0.278 0.88132 0.0
H1225 H 0.3414 0.29592 0.87795 0.0
H1226 H 0.35132 0.33354 0.90179 0.0
C1227 C 0.31658 0.36875 0.88761 0.0
C1228 C 0.32367 0.33416 0.87308 0.0
C1229 C 0.3065 0.37872 0.8898 0.0
C1230 C 0.36167 0.28865 0.88277 0.0
C1231 C 0.35173 0.29892 0.88081 0.0
C1232 C 0.34383 0.33366 0.89355 0.0
C1233 C 0.31294 0.3553 0.88378 0.0
C1234 C 0.3236 0.34432 0.88338 0.0
C1235 C 0.35492 0.3128 0.88338 0.0
C1236 C 0.34407 0.3236 0.88318 0.0
H1237 H 0.27817 0.35961 0.88205 0.0
H1238 H 0.29583 0.34205 0.87839 0.0
H1239 H 0.33382 0.35127 0.90195 0.0
H1240 H 0.38848 0.30903 0.89253 0.0
H1241 H 0.37135 0.32684 0.88885 0.0
C1242 C 0.62279 0.30697 0.89071 0.0
C1243 C 0.62592 0.29302 0.88867 0.0
C1244 C 0.63282 0.31705 0.88886 0.0
C1245 C 0.66744 0.32455 0.87477 0.0
H1246 H 0.66819 0.35092 0.90464 0.0
C1247 C 0.71287 0.36239 0.88543 0.0
C1248 C 0.7094 0.37544 0.89057 0.0
C1249 C 0.70265 0.35243 0.8833 0.0
C1250 C 0.66803 0.3438 0.89608 0.0
H1251 H 0.64185 0.27878 0.88234 0.0
H1252 H 0.6595 0.29648 0.87925 0.0
H1253 H 0.65043 0.33347 0.90409 0.0
H1254 H 0.69245 0.3886 0.8966 0.0
H1255 H 0.67472 0.37146 0.89262 0.0
H1256 H 0.68524 0.33495 0.86688 0.0
C1257 C 0.64922 0.29959 0.88219 0.0
C1258 C 0.65782 0.33376 0.89578 0.0
C1259 C 0.63912 0.28945 0.88398 0.0
C1260 C 0.69549 0.37858 0.89281 0.0
C1261 C 0.68532 0.36872 0.89061 0.0
C1262 C 0.67771 0.33468 0.87506 0.0
C1263 C 0.64628 0.31346 0.88503 0.0
C1264 C 0.6573 0.32407 0.88508 0.0
C1265 C 0.68879 0.35538 0.88624 0.0
C1266 C 0.67805 0.34449 0.88569 0.0
H1267 H 0.61268 0.3101 0.89416 0.0
H1268 H 0.63011 0.32768 0.89081 0.0
H1269 H 0.6673 0.31724 0.86638 0.0
H1270 H 0.72351 0.35966 0.88362 0.0
H1271 H 0.70569 0.34225 0.87997 0.0
C1272 C 0.71257 0.64043 0.88407 0.0
C1273 C 0.70898 0.62731 0.88895 0.0
C1274 C 0.70244 0.65051 0.88208 0.0
C1275 C 0.66795 0.65922 0.89502 0.0
H1276 H 0.66723 0.68615 0.86564 0.0
C1277 C 0.62285 0.69633 0.89025 0.0
C1278 C 0.62599 0.71027 0.88818 0.0
C1279 C 0.63285 0.68623 0.88834 0.0
C1280 C 0.66737 0.67874 0.87395 0.0
H1281 H 0.69189 0.61417 0.89464 0.0
H1282 H 0.67432 0.63152 0.89092 0.0
H1283 H 0.68507 0.66833 0.86584 0.0
H1284 H 0.6419 0.72449 0.88175 0.0
H1285 H 0.65951 0.70678 0.87857 0.0
H1286 H 0.65047 0.66957 0.90327 0.0
C1287 C 0.68495 0.63422 0.88899 0.0
C1288 C 0.67758 0.66855 0.87407 0.0
C1289 C 0.69503 0.62423 0.89104 0.0
C1290 C 0.63917 0.71383 0.88342 0.0
C1291 C 0.64925 0.70368 0.88158 0.0
C1292 C 0.65781 0.66934 0.8949 0.0
C1293 C 0.68855 0.6476 0.88491 0.0
C1294 C 0.6779 0.65859 0.88456 0.0
C1295 C 0.64629 0.6898 0.88442 0.0
C1296 C 0.65729 0.67916 0.88432 0.0
H1297 H 0.72324 0.64312 0.88238 0.0
H1298 H 0.70556 0.66072 0.87896 0.0
H1299 H 0.6681 0.65197 0.90348 0.0
H1300 H 0.61275 0.69322 0.89375 0.0
H1301 H 0.63013 0.67561 0.89029 0.0
C1302 C 0.62372 0.69564 0.113 0.0
C1303 C 0.62695 0.7096 0.11478 0.0
C1304 C 0.63364 0.68552 0.11518 0.0
C1305 C 0.66816 0.67819 0.12977 0.0
H1306 H 0.66865 0.65062 0.101 0.0
C1307 C 0.71338 0.63984 0.12006 0.0
C1308 C 0.70982 0.6266 0.11548 0.0
C1309 C 0.70321 0.64986 0.12202 0.0
C1310 C 0.66857 0.65809 0.10925 0.0
H1311 H 0.64293 0.72385 0.12094 0.0
H1312 H 0.66042 0.7061 0.12456 0.0
H1313 H 0.65107 0.66826 0.10082 0.0
H1314 H 0.69275 0.61321 0.11035 0.0
H1315 H 0.67509 0.6305 0.11403 0.0
H1316 H 0.68592 0.66798 0.13804 0.0
C1317 C 0.65014 0.703 0.1216 0.0
C1318 C 0.65845 0.66823 0.10915 0.0
C1319 C 0.64014 0.71317 0.1195 0.0
C1320 C 0.69586 0.62336 0.11372 0.0
C1321 C 0.68573 0.6333 0.11575 0.0
C1322 C 0.67836 0.66798 0.12987 0.0
C1323 C 0.6471 0.68908 0.11906 0.0
C1324 C 0.65803 0.67836 0.11944 0.0
C1325 C 0.6893 0.6468 0.11948 0.0
C1326 C 0.67859 0.65775 0.11965 0.0
H1327 H 0.61361 0.69252 0.10954 0.0
H1328 H 0.63084 0.67487 0.11347 0.0
H1329 H 0.6681 0.68583 0.13787 0.0
H1330 H 0.72406 0.64265 0.12149 0.0
H1331 H 0.7063 0.66017 0.12487 0.0
C1332 C 0.37665 0.69585 0.11322 0.0
C1333 C 0.37453 0.70996 0.11547 0.0
C1334 C 0.3664 0.68631 0.11635 0.0
C1335 C 0.32894 0.6836 0.11939 0.0
H1336 H 0.33757 0.64688 0.1323 0.0
C1337 C 0.28781 0.64053 0.12162 0.0
C1338 C 0.292 0.62806 0.11564 0.0
C1339 C 0.29746 0.65081 0.1246 0.0
C1340 C 0.33499 0.65709 0.12868 0.0
H1341 H 0.36012 0.72507 0.12327 0.0
H1342 H 0.34214 0.70833 0.12878 0.0
H1343 H 0.35537 0.66454 0.13231 0.0
H1344 H 0.30967 0.61639 0.10864 0.0
H1345 H 0.32639 0.63419 0.11382 0.0
H1346 H 0.30867 0.67602 0.11535 0.0
C1347 C 0.35175 0.7047 0.12448 0.0
C1348 C 0.34519 0.66721 0.12868 0.0
C1349 C 0.36207 0.71427 0.12141 0.0
C1350 C 0.30608 0.62588 0.11323 0.0
C1351 C 0.3157 0.63607 0.11629 0.0
C1352 C 0.31872 0.67347 0.11939 0.0
C1353 C 0.35372 0.69062 0.12178 0.0
C1354 C 0.3424 0.68049 0.12368 0.0
C1355 C 0.31151 0.64876 0.1218 0.0
C1356 C 0.32173 0.65999 0.12368 0.0
H1357 H 0.38612 0.69217 0.10866 0.0
H1358 H 0.36822 0.67559 0.11396 0.0
H1359 H 0.32647 0.69367 0.11534 0.0
H1360 H 0.27703 0.64252 0.12359 0.0
H1361 H 0.29392 0.66042 0.12895 0.0
C1362 C 0.71481 0.3627 0.11949 0.0
C1363 C 0.71144 0.37585 0.11451 0.0
C1364 C 0.7045 0.35283 0.12156 0.0
C1365 C 0.66981 0.34467 0.10874 0.0
H1366 H 0.6689 0.31768 0.13807 0.0
C1367 C 0.62441 0.30792 0.11346 0.0
C1368 C 0.62746 0.29395 0.11543 0.0
C1369 C 0.63447 0.31794 0.11543 0.0
C1370 C 0.66909 0.32511 0.12978 0.0
H1371 H 0.69458 0.38926 0.10876 0.0
H1372 H 0.67671 0.37226 0.11265 0.0
H1373 H 0.68695 0.33529 0.13783 0.0
H1374 H 0.64328 0.27959 0.12178 0.0
H1375 H 0.661 0.29717 0.12507 0.0
H1376 H 0.65216 0.33454 0.10056 0.0
C1377 C 0.68729 0.36938 0.11458 0.0
C1378 C 0.67942 0.33519 0.12964 0.0
C1379 C 0.69755 0.37917 0.11243 0.0
C1380 C 0.64062 0.29028 0.12018 0.0
C1381 C 0.65076 0.30035 0.12209 0.0
C1382 C 0.65954 0.33468 0.10889 0.0
C1383 C 0.69066 0.35596 0.11874 0.0
C1384 C 0.67982 0.34515 0.11915 0.0
C1385 C 0.64789 0.31426 0.11932 0.0
C1386 C 0.65896 0.32483 0.11945 0.0
H1387 H 0.72543 0.35984 0.12117 0.0
H1388 H 0.70745 0.34257 0.12474 0.0
H1389 H 0.67001 0.35192 0.10029 0.0
H1390 H 0.61432 0.31111 0.10997 0.0
H1391 H 0.63181 0.32859 0.11354 0.0
C1392 C 0.61859 0.86304 0.78909 0.0
C1393 C 0.61367 0.87619 0.79252 0.0
C1394 C 0.62047 0.85305 0.79932 0.0
C1395 C 0.60715 0.84459 0.83373 0.0
H1396 H 0.63642 0.81755 0.83485 0.0
C1397 C 0.61113 0.80736 0.87886 0.0
C1398 C 0.61327 0.79343 0.87573 0.0
C1399 C 0.61319 0.81748 0.86891 0.0
C1400 C 0.62814 0.82499 0.83461 0.0
H1401 H 0.6078 0.88947 0.80944 0.0
H1402 H 0.61134 0.87225 0.82719 0.0
H1403 H 0.63649 0.83533 0.81697 0.0
H1404 H 0.61996 0.77925 0.8599 0.0
H1405 H 0.6234 0.797 0.84238 0.0
H1406 H 0.59865 0.83429 0.85113 0.0
C1407 C 0.61338 0.86948 0.81661 0.0
C1408 C 0.62818 0.83516 0.82437 0.0
C1409 C 0.61144 0.87938 0.80642 0.0
C1410 C 0.61823 0.7899 0.86262 0.0
C1411 C 0.62023 0.80007 0.85259 0.0
C1412 C 0.60711 0.83449 0.84389 0.0
C1413 C 0.6175 0.85606 0.81316 0.0
C1414 C 0.61772 0.84514 0.82389 0.0
C1415 C 0.61734 0.81394 0.85553 0.0
C1416 C 0.61764 0.82462 0.84455 0.0
H1417 H 0.62038 0.86026 0.77846 0.0
H1418 H 0.62362 0.84281 0.79631 0.0
H1419 H 0.59872 0.85186 0.83346 0.0
H1420 H 0.60747 0.81045 0.88891 0.0
H1421 H 0.6112 0.82809 0.87163 0.0
C1422 C 0.19552 0.61339 0.87724 0.0
C1423 C 0.20963 0.61574 0.87521 0.0
C1424 C 0.18603 0.61647 0.86693 0.0
C1425 C 0.18362 0.61951 0.82945 0.0
H1426 H 0.14661 0.63175 0.83776 0.0
C1427 C 0.14085 0.62088 0.78798 0.0
C1428 C 0.12851 0.61457 0.79207 0.0
C1429 C 0.15097 0.62413 0.79771 0.0
C1430 C 0.1569 0.62833 0.83526 0.0
H1431 H 0.22478 0.6237 0.86093 0.0
H1432 H 0.20812 0.62915 0.84286 0.0
H1433 H 0.16412 0.63209 0.85571 0.0
H1434 H 0.11688 0.60725 0.80963 0.0
H1435 H 0.13441 0.61289 0.82651 0.0
H1436 H 0.17628 0.61535 0.80911 0.0
C1437 C 0.20445 0.62479 0.85243 0.0
C1438 C 0.16694 0.62851 0.84555 0.0
C1439 C 0.21398 0.62176 0.86281 0.0
C1440 C 0.12628 0.61209 0.80612 0.0
C1441 C 0.13631 0.61542 0.81583 0.0
C1442 C 0.17357 0.61934 0.81915 0.0
C1443 C 0.19038 0.62197 0.85429 0.0
C1444 C 0.18032 0.62374 0.84288 0.0
C1445 C 0.14888 0.62125 0.81174 0.0
C1446 C 0.16 0.62338 0.82204 0.0
H1447 H 0.19181 0.60877 0.88666 0.0
H1448 H 0.17532 0.61399 0.86867 0.0
H1449 H 0.19378 0.61564 0.82706 0.0
H1450 H 0.14288 0.62291 0.77722 0.0
H1451 H 0.16051 0.62872 0.79425 0.0
C1452 C 0.38026 0.14091 0.78786 0.0
C1453 C 0.38613 0.12841 0.79213 0.0
C1454 C 0.3772 0.1512 0.79747 0.0
C1455 C 0.37273 0.15754 0.83494 0.0
H1456 H 0.38629 0.19406 0.82652 0.0
C1457 C 0.38787 0.19634 0.8767 0.0
C1458 C 0.3857 0.21045 0.87451 0.0
C1459 C 0.38481 0.18678 0.86644 0.0
C1460 C 0.38218 0.184 0.82896 0.0
H1461 H 0.39286 0.11672 0.80989 0.0
H1462 H 0.38756 0.13455 0.82654 0.0
H1463 H 0.38641 0.17638 0.80875 0.0
H1464 H 0.37813 0.22556 0.85997 0.0
H1465 H 0.37273 0.20879 0.84199 0.0
H1466 H 0.3689 0.16504 0.85527 0.0
C1467 C 0.38522 0.13643 0.81582 0.0
C1468 C 0.38225 0.17385 0.81876 0.0
C1469 C 0.38836 0.12622 0.80624 0.0
C1470 C 0.37991 0.21475 0.86198 0.0
C1471 C 0.37691 0.20516 0.85165 0.0
C1472 C 0.37265 0.16768 0.84513 0.0
C1473 C 0.37983 0.14914 0.81155 0.0
C1474 C 0.37788 0.1604 0.82174 0.0
C1475 C 0.37953 0.19108 0.85369 0.0
C1476 C 0.37773 0.18093 0.84237 0.0
H1477 H 0.37843 0.14291 0.77706 0.0
H1478 H 0.37294 0.16084 0.79387 0.0
H1479 H 0.36904 0.14735 0.8375 0.0
H1480 H 0.39231 0.19266 0.88623 0.0
H1481 H 0.38713 0.17606 0.86833 0.0
C1482 C 0.86359 0.38498 0.79017 0.0
C1483 C 0.87656 0.39037 0.79363 0.0
C1484 C 0.8535 0.38316 0.80031 0.0
C1485 C 0.84413 0.39736 0.8341 0.0
H1486 H 0.81822 0.36713 0.83608 0.0
C1487 C 0.80707 0.3932 0.87933 0.0
C1488 C 0.79324 0.39035 0.87633 0.0
C1489 C 0.81723 0.39134 0.86939 0.0
C1490 C 0.82533 0.37568 0.83558 0.0
H1491 H 0.88941 0.39716 0.81054 0.0
H1492 H 0.87201 0.39376 0.82813 0.0
H1493 H 0.83612 0.36712 0.81832 0.0
H1494 H 0.7793 0.38267 0.86073 0.0
H1495 H 0.79712 0.37957 0.84321 0.0
H1496 H 0.8334 0.40605 0.85113 0.0
C1497 C 0.86946 0.39128 0.81758 0.0
C1498 C 0.83557 0.37567 0.82542 0.0
C1499 C 0.87947 0.39315 0.80749 0.0
C1500 C 0.78988 0.38494 0.86335 0.0
C1501 C 0.80009 0.38314 0.85333 0.0
C1502 C 0.83395 0.39737 0.84418 0.0
C1503 C 0.85622 0.38667 0.81408 0.0
C1504 C 0.84517 0.38647 0.82466 0.0
C1505 C 0.81383 0.3867 0.85613 0.0
C1506 C 0.8245 0.38649 0.84516 0.0
H1507 H 0.86104 0.38275 0.77956 0.0
H1508 H 0.8434 0.37961 0.79726 0.0
H1509 H 0.85109 0.40603 0.83358 0.0
H1510 H 0.81004 0.39722 0.88928 0.0
H1511 H 0.82776 0.39385 0.87201 0.0
C1512 C 0.61285 0.19706 0.12429 0.0
C1513 C 0.61479 0.21099 0.12757 0.0
C1514 C 0.6149 0.18687 0.13417 0.0
C1515 C 0.62945 0.17922 0.16863 0.0
H1516 H 0.60024 0.1521 0.16914 0.0
C1517 C 0.61943 0.14087 0.21378 0.0
C1518 C 0.61461 0.12772 0.21022 0.0
C1519 C 0.62145 0.1509 0.20362 0.0
C1520 C 0.60862 0.15944 0.16905 0.0
H1521 H 0.62114 0.2251 0.1436 0.0
H1522 H 0.62456 0.20723 0.16101 0.0
H1523 H 0.6003 0.16977 0.15158 0.0
H1524 H 0.60908 0.11448 0.19316 0.0
H1525 H 0.61286 0.13177 0.17553 0.0
H1526 H 0.63761 0.16883 0.18633 0.0
C1527 C 0.62155 0.20421 0.15073 0.0
C1528 C 0.60865 0.1696 0.15895 0.0
C1529 C 0.61956 0.21445 0.14077 0.0
C1530 C 0.61263 0.12456 0.19627 0.0
C1531 C 0.61472 0.13451 0.18616 0.0
C1532 C 0.62942 0.16898 0.1788 0.0
C1533 C 0.61884 0.19033 0.14764 0.0
C1534 C 0.6191 0.17957 0.15853 0.0
C1535 C 0.61872 0.14793 0.18973 0.0
C1536 C 0.61903 0.1589 0.17904 0.0
H1537 H 0.60934 0.19403 0.11417 0.0
H1538 H 0.61306 0.17626 0.13134 0.0
H1539 H 0.63766 0.18673 0.16857 0.0
H1540 H 0.62103 0.14361 0.22446 0.0
H1541 H 0.62451 0.16115 0.20672 0.0
C1542 C 0.86292 0.61913 0.21356 0.0
C1543 C 0.87611 0.61454 0.20983 0.0
C1544 C 0.85281 0.62123 0.20349 0.0
C1545 C 0.84427 0.60894 0.16874 0.0
H1546 H 0.81662 0.63765 0.16884 0.0
C1547 C 0.8066 0.61348 0.12412 0.0
C1548 C 0.79264 0.61508 0.12746 0.0
C1549 C 0.81676 0.61557 0.13402 0.0
C1550 C 0.82424 0.62953 0.16874 0.0
H1551 H 0.88933 0.60954 0.19259 0.0
H1552 H 0.8719 0.61348 0.17513 0.0
H1553 H 0.83457 0.63749 0.18656 0.0
H1554 H 0.77843 0.62089 0.1436 0.0
H1555 H 0.79626 0.62437 0.16105 0.0
H1556 H 0.834 0.60082 0.15115 0.0
C1557 C 0.86919 0.61508 0.18581 0.0
C1558 C 0.8345 0.62944 0.17888 0.0
C1559 C 0.87922 0.6129 0.19582 0.0
C1560 C 0.78911 0.61958 0.14073 0.0
C1561 C 0.79933 0.6216 0.15071 0.0
C1562 C 0.83409 0.60903 0.15867 0.0
C1563 C 0.85574 0.61882 0.18953 0.0
C1564 C 0.84471 0.61918 0.17891 0.0
C1565 C 0.81324 0.61919 0.14756 0.0
C1566 C 0.824 0.61937 0.15845 0.0
H1567 H 0.86022 0.62047 0.22428 0.0
H1568 H 0.84254 0.62409 0.20671 0.0
H1569 H 0.85171 0.60065 0.16866 0.0
H1570 H 0.80969 0.61019 0.11394 0.0
H1571 H 0.8274 0.61397 0.13115 0.0
C1572 C 0.39106 0.80584 0.12315 0.0
C1573 C 0.38855 0.79198 0.12633 0.0
C1574 C 0.38928 0.81604 0.13307 0.0
C1575 C 0.37444 0.82413 0.16725 0.0
H1576 H 0.40461 0.85015 0.16841 0.0
C1577 C 0.38441 0.86249 0.2124 0.0
C1578 C 0.3897 0.87547 0.20886 0.0
C1579 C 0.38247 0.85239 0.20229 0.0
C1580 C 0.39598 0.84312 0.16813 0.0
H1581 H 0.3815 0.77803 0.14222 0.0
H1582 H 0.37852 0.79593 0.15967 0.0
H1583 H 0.4043 0.83245 0.15087 0.0
H1584 H 0.39619 0.88834 0.19185 0.0
H1585 H 0.39255 0.87095 0.1743 0.0
H1586 H 0.36624 0.83486 0.18471 0.0
C1587 C 0.38178 0.79889 0.14945 0.0
C1588 C 0.3958 0.83295 0.15805 0.0
C1589 C 0.38351 0.78863 0.13946 0.0
C1590 C 0.39227 0.87839 0.19496 0.0
C1591 C 0.39026 0.86838 0.18489 0.0
C1592 C 0.37461 0.83439 0.17739 0.0
C1593 C 0.38504 0.81266 0.14646 0.0
C1594 C 0.38499 0.82339 0.15738 0.0
C1595 C 0.38574 0.85512 0.18846 0.0
C1596 C 0.38534 0.84408 0.17786 0.0
H1597 H 0.3948 0.8088 0.11309 0.0
H1598 H 0.39156 0.82659 0.13031 0.0
H1599 H 0.36595 0.81694 0.16699 0.0
H1600 H 0.38235 0.85993 0.22304 0.0
H1601 H 0.379 0.84228 0.2054 0.0
C1602 C 0.21547 0.38215 0.14053 0.0
C1603 C 0.21149 0.38853 0.12818 0.0
C1604 C 0.20571 0.37925 0.15073 0.0
C1605 C 0.16804 0.37634 0.15691 0.0
H1606 H 0.17708 0.38826 0.19385 0.0
C1607 C 0.12695 0.39175 0.19631 0.0
C1608 C 0.12899 0.38882 0.21031 0.0
C1609 C 0.13711 0.38875 0.18664 0.0
C1610 C 0.17445 0.38462 0.18367 0.0
H1611 H 0.19408 0.39634 0.11664 0.0
H1612 H 0.17717 0.39133 0.13431 0.0
H1613 H 0.19484 0.38817 0.17616 0.0
H1614 H 0.14318 0.38003 0.22508 0.0
H1615 H 0.16102 0.37476 0.20811 0.0
H1616 H 0.14756 0.3732 0.16431 0.0
C1617 C 0.18777 0.38847 0.13615 0.0
C1618 C 0.18464 0.38457 0.17351 0.0
C1619 C 0.19751 0.39143 0.12603 0.0
C1620 C 0.14129 0.38241 0.21436 0.0
C1621 C 0.15154 0.37948 0.20466 0.0
C1622 C 0.15786 0.37639 0.16705 0.0
C1623 C 0.19176 0.38256 0.14873 0.0
C1624 C 0.18147 0.38077 0.15992 0.0
C1625 C 0.14963 0.38278 0.19071 0.0
C1626 C 0.16085 0.38088 0.18047 0.0
H1627 H 0.22617 0.37979 0.1425 0.0
H1628 H 0.2091 0.37458 0.16025 0.0
H1629 H 0.16532 0.3731 0.14661 0.0
H1630 H 0.11759 0.39669 0.19282 0.0
H1631 H 0.13535 0.39162 0.17603 0.0
C1632 C 0.78952 0.61798 0.86363 0.0
C1633 C 0.79277 0.61254 0.87663 0.0
C1634 C 0.79982 0.61986 0.85372 0.0
C1635 C 0.83381 0.60576 0.84484 0.0
H1636 H 0.83599 0.636 0.81896 0.0
C1637 C 0.87933 0.60991 0.80811 0.0
C1638 C 0.8764 0.61272 0.79425 0.0
C1639 C 0.86934 0.61181 0.81822 0.0
C1640 C 0.83544 0.62745 0.82606 0.0
H1641 H 0.80948 0.60569 0.88972 0.0
H1642 H 0.82736 0.60919 0.87264 0.0
H1643 H 0.81802 0.63595 0.83664 0.0
H1644 H 0.86088 0.62041 0.78022 0.0
H1645 H 0.84328 0.62357 0.79795 0.0
H1646 H 0.851 0.59713 0.83431 0.0
C1647 C 0.81684 0.61167 0.86992 0.0
C1648 C 0.82516 0.62742 0.83618 0.0
C1649 C 0.80659 0.60974 0.87976 0.0
C1650 C 0.86345 0.61816 0.79082 0.0
C1651 C 0.85338 0.62 0.80098 0.0
C1652 C 0.84402 0.60579 0.83479 0.0
C1653 C 0.81355 0.61635 0.85665 0.0
C1654 C 0.82432 0.61661 0.84577 0.0
C1655 C 0.85611 0.61646 0.81474 0.0
C1656 C 0.84506 0.61667 0.82534 0.0
H1657 H 0.77896 0.62022 0.86091 0.0
H1658 H 0.79694 0.62345 0.84358 0.0
H1659 H 0.83325 0.59708 0.85179 0.0
H1660 H 0.88926 0.60587 0.81113 0.0
H1661 H 0.87191 0.60931 0.82877 0.0
C1662 C 0.38325 0.86255 0.78888 0.0
C1663 C 0.38823 0.87564 0.79246 0.0
C1664 C 0.38125 0.85247 0.79901 0.0
C1665 C 0.39424 0.84362 0.83348 0.0
H1666 H 0.36467 0.81689 0.83418 0.0
C1667 C 0.38933 0.80635 0.87847 0.0
C1668 C 0.38714 0.79244 0.87528 0.0
C1669 C 0.38748 0.81651 0.86852 0.0
C1670 C 0.37303 0.82424 0.83405 0.0
H1671 H 0.39412 0.88871 0.80953 0.0
H1672 H 0.3904 0.87135 0.8271 0.0
H1673 H 0.36497 0.83475 0.81638 0.0
H1674 H 0.38056 0.77834 0.85933 0.0
H1675 H 0.37745 0.79616 0.84181 0.0
H1676 H 0.40244 0.83317 0.85094 0.0
C1677 C 0.38839 0.86868 0.81648 0.0
C1678 C 0.37321 0.83446 0.82386 0.0
C1679 C 0.39044 0.87868 0.8064 0.0
C1680 C 0.38232 0.78898 0.8621 0.0
C1681 C 0.38052 0.79919 0.85207 0.0
C1682 C 0.39406 0.83348 0.8436 0.0
C1683 C 0.38418 0.85533 0.81289 0.0
C1684 C 0.38377 0.84434 0.82354 0.0
C1685 C 0.38348 0.81303 0.85507 0.0
C1686 C 0.38342 0.82372 0.84412 0.0
H1687 H 0.38146 0.8599 0.77822 0.0
H1688 H 0.37803 0.84229 0.79589 0.0
H1689 H 0.40274 0.8508 0.83333 0.0
H1690 H 0.3929 0.80939 0.88857 0.0
H1691 H 0.38952 0.8271 0.87128 0.0
C1692 C 0.21374 0.38284 0.86279 0.0
C1693 C 0.21007 0.3875 0.87598 0.0
C1694 C 0.20368 0.38099 0.85263 0.0
C1695 C 0.16945 0.39439 0.84387 0.0
H1696 H 0.16865 0.3656 0.81632 0.0
C1697 C 0.1249 0.39132 0.80589 0.0
C1698 C 0.12816 0.3892 0.79199 0.0
C1699 C 0.1347 0.3891 0.81612 0.0
C1700 C 0.16881 0.37375 0.82389 0.0
H1701 H 0.19288 0.39286 0.88913 0.0
H1702 H 0.17542 0.38941 0.8716 0.0
H1703 H 0.18625 0.36515 0.83438 0.0
H1704 H 0.14407 0.38243 0.77795 0.0
H1705 H 0.16138 0.37875 0.79588 0.0
H1706 H 0.15228 0.40317 0.83343 0.0
C1707 C 0.18607 0.38753 0.86895 0.0
C1708 C 0.17888 0.37349 0.83423 0.0
C1709 C 0.19609 0.38943 0.87903 0.0
C1710 C 0.14126 0.38414 0.78859 0.0
C1711 C 0.15116 0.382 0.79886 0.0
C1712 C 0.15947 0.39466 0.8336 0.0
C1713 C 0.18977 0.38375 0.8555 0.0
C1714 C 0.17922 0.38376 0.84441 0.0
C1715 C 0.14809 0.38483 0.81272 0.0
C1716 C 0.15892 0.38431 0.82354 0.0
H1717 H 0.22444 0.38127 0.86013 0.0
H1718 H 0.20687 0.37809 0.84237 0.0
H1719 H 0.16964 0.40268 0.8513 0.0
H1720 H 0.11484 0.39504 0.80889 0.0
H1721 H 0.13187 0.39103 0.82671 0.0
C1722 C 0.61861 0.14057 0.79007 0.0
C1723 C 0.61394 0.12736 0.79362 0.0
C1724 C 0.62066 0.15057 0.80027 0.0
C1725 C 0.60814 0.15878 0.83502 0.0
H1726 H 0.63691 0.18636 0.83531 0.0
C1727 C 0.61247 0.19623 0.87989 0.0
C1728 C 0.61418 0.21019 0.87664 0.0
C1729 C 0.61456 0.1861 0.86995 0.0
C1730 C 0.62877 0.17877 0.8353 0.0
H1731 H 0.60872 0.11398 0.81067 0.0
H1732 H 0.61256 0.1312 0.82835 0.0
H1733 H 0.63684 0.16856 0.81747 0.0
H1734 H 0.62016 0.22444 0.86059 0.0
H1735 H 0.62365 0.20669 0.84308 0.0
H1736 H 0.59992 0.16895 0.85263 0.0
C1737 C 0.61427 0.13402 0.81771 0.0
C1738 C 0.62873 0.16858 0.82509 0.0
C1739 C 0.61215 0.12411 0.80757 0.0
C1740 C 0.61877 0.21376 0.86341 0.0
C1741 C 0.62079 0.20359 0.85339 0.0
C1742 C 0.60818 0.1689 0.84517 0.0
C1743 C 0.61811 0.1475 0.81417 0.0
C1744 C 0.61844 0.15841 0.82491 0.0
C1745 C 0.6183 0.18967 0.85646 0.0
C1746 C 0.61854 0.17897 0.84552 0.0
H1747 H 0.62007 0.14339 0.7794 0.0
H1748 H 0.62359 0.16085 0.79718 0.0
H1749 H 0.59983 0.15137 0.83499 0.0
H1750 H 0.60911 0.1931 0.89004 0.0
H1751 H 0.61288 0.17546 0.87277 0.0
C1752 C 0.87737 0.38848 0.19689 0.0
C1753 C 0.87526 0.38638 0.21102 0.0
C1754 C 0.86709 0.38528 0.1874 0.0
C1755 C 0.82966 0.3825 0.1847 0.0
H1756 H 0.83821 0.36899 0.14819 0.0
C1757 C 0.78868 0.38065 0.14149 0.0
C1758 C 0.79306 0.38648 0.12901 0.0
C1759 C 0.79823 0.3775 0.15182 0.0
C1760 C 0.83565 0.37278 0.15834 0.0
H1761 H 0.86085 0.37882 0.22625 0.0
H1762 H 0.8428 0.37323 0.20959 0.0
H1763 H 0.85597 0.36898 0.16591 0.0
H1764 H 0.81093 0.393 0.11736 0.0
H1765 H 0.82746 0.38754 0.13526 0.0
H1766 H 0.80948 0.38674 0.177 0.0
C1767 C 0.85242 0.37743 0.2059 0.0
C1768 C 0.84582 0.37277 0.16849 0.0
C1769 C 0.86279 0.38055 0.21542 0.0
C1770 C 0.8072 0.38854 0.12686 0.0
C1771 C 0.81671 0.38531 0.13711 0.0
C1772 C 0.81948 0.38251 0.17454 0.0
C1773 C 0.8544 0.37995 0.19179 0.0
C1774 C 0.84307 0.378 0.18168 0.0
C1775 C 0.81234 0.37999 0.14982 0.0
C1776 C 0.82247 0.37801 0.16113 0.0
H1777 H 0.88686 0.39294 0.19314 0.0
H1778 H 0.86891 0.38753 0.17665 0.0
H1779 H 0.82722 0.38672 0.19471 0.0
H1780 H 0.77786 0.37895 0.14346 0.0
H1781 H 0.79455 0.3733 0.16146 0.0
C1782 C 0.61111 0.87946 0.19523 0.0
C1783 C 0.61332 0.87637 0.20917 0.0
C1784 C 0.61325 0.86952 0.18512 0.0
C1785 C 0.62847 0.8353 0.17769 0.0
H1786 H 0.59908 0.83394 0.15079 0.0
C1787 C 0.61898 0.7896 0.13987 0.0
C1788 C 0.61404 0.79296 0.1267 0.0
C1789 C 0.62089 0.79988 0.14979 0.0
C1790 C 0.6075 0.83427 0.15807 0.0
H1791 H 0.62019 0.86063 0.22336 0.0
H1792 H 0.62374 0.84311 0.20565 0.0
H1793 H 0.5989 0.85164 0.1683 0.0
H1794 H 0.60823 0.80982 0.11331 0.0
H1795 H 0.61182 0.82766 0.13042 0.0
H1796 H 0.63691 0.81767 0.16742 0.0
C1797 C 0.62047 0.85329 0.20255 0.0
C1798 C 0.6074 0.84445 0.16814 0.0
C1799 C 0.61841 0.86331 0.21271 0.0
C1800 C 0.61187 0.80686 0.12341 0.0
C1801 C 0.61385 0.81709 0.13326 0.0
C1802 C 0.62857 0.82503 0.16756 0.0
C1803 C 0.61753 0.85618 0.18868 0.0
C1804 C 0.61791 0.84519 0.17803 0.0
C1805 C 0.61795 0.8137 0.1467 0.0
C1806 C 0.61812 0.82448 0.15756 0.0
H1807 H 0.60736 0.88947 0.19213 0.0
H1808 H 0.61122 0.8722 0.17451 0.0
H1809 H 0.63674 0.8356 0.18514 0.0
H1810 H 0.62073 0.77898 0.14271 0.0
H1811 H 0.62403 0.79692 0.16005 0.0
C1812 C 0.14126 0.62032 0.21475 0.0
C1813 C 0.12893 0.61394 0.21072 0.0
C1814 C 0.15149 0.62324 0.20503 0.0
C1815 C 0.15775 0.62633 0.1674 0.0
H1816 H 0.1947 0.61443 0.17643 0.0
C1817 C 0.19721 0.61105 0.12632 0.0
C1818 C 0.21121 0.61393 0.12841 0.0
C1819 C 0.18752 0.61406 0.13646 0.0
C1820 C 0.18451 0.61806 0.1738 0.0
H1821 H 0.11748 0.60613 0.19325 0.0
H1822 H 0.13521 0.61118 0.17642 0.0
H1823 H 0.17699 0.61441 0.19417 0.0
H1824 H 0.22596 0.62268 0.14264 0.0
H1825 H 0.20896 0.62798 0.16044 0.0
H1826 H 0.16516 0.62958 0.14694 0.0
C1827 C 0.137 0.61402 0.18703 0.0
C1828 C 0.17434 0.61805 0.18399 0.0
C1829 C 0.12685 0.61104 0.19672 0.0
C1830 C 0.21525 0.62034 0.14072 0.0
C1831 C 0.20553 0.62329 0.15094 0.0
C1832 C 0.1679 0.62634 0.15724 0.0
C1833 C 0.14954 0.61996 0.19107 0.0
C1834 C 0.16075 0.62183 0.18081 0.0
C1835 C 0.19157 0.62 0.149 0.0
C1836 C 0.18132 0.62186 0.16022 0.0
H1837 H 0.14318 0.62268 0.22546 0.0
H1838 H 0.16099 0.62793 0.20846 0.0
H1839 H 0.14745 0.62956 0.16468 0.0
H1840 H 0.19374 0.60612 0.11696 0.0
H1841 H 0.17691 0.61122 0.13468 0.0
C1842 C 0.38376 0.21438 0.13985 0.0
C1843 C 0.3887 0.2109 0.12671 0.0
C1844 C 0.38192 0.20419 0.14989 0.0
C1845 C 0.39541 0.16991 0.15856 0.0
H1846 H 0.366 0.16864 0.18543 0.0
C1847 C 0.39129 0.12466 0.19563 0.0
C1848 C 0.38895 0.12768 0.20955 0.0
C1849 C 0.38936 0.13467 0.18555 0.0
C1850 C 0.37432 0.16893 0.17804 0.0
H1851 H 0.39463 0.19393 0.11352 0.0
H1852 H 0.39117 0.17626 0.13084 0.0
H1853 H 0.36592 0.18651 0.16763 0.0
H1854 H 0.38206 0.14341 0.22375 0.0
H1855 H 0.37884 0.16105 0.20607 0.0
H1856 H 0.40396 0.15257 0.16892 0.0
C1857 C 0.38908 0.18685 0.13355 0.0
C1858 C 0.37428 0.17916 0.16786 0.0
C1859 C 0.39098 0.19699 0.12359 0.0
C1860 C 0.38394 0.14077 0.2131 0.0
C1861 C 0.38207 0.15086 0.20297 0.0
C1862 C 0.39546 0.15976 0.16867 0.0
C1863 C 0.38495 0.19035 0.14695 0.0
C1864 C 0.38478 0.17967 0.15792 0.0
C1865 C 0.38514 0.14802 0.18911 0.0
C1866 C 0.38487 0.15904 0.17848 0.0
H1867 H 0.38193 0.22502 0.14256 0.0
H1868 H 0.37875 0.20724 0.16012 0.0
H1869 H 0.40387 0.17022 0.15132 0.0
H1870 H 0.39499 0.11463 0.19252 0.0
H1871 H 0.39148 0.13202 0.17494 0.0
C1872 C 0.86379 0.79023 0.61803 0.0
C1873 C 0.87671 0.7937 0.61254 0.0
C1874 C 0.85368 0.80034 0.61987 0.0
C1875 C 0.84407 0.834 0.60552 0.0
H1876 H 0.81829 0.83601 0.63586 0.0
C1877 C 0.80669 0.87901 0.60956 0.0
C1878 C 0.7929 0.87595 0.61256 0.0
C1879 C 0.81694 0.86915 0.61139 0.0
C1880 C 0.82537 0.8355 0.62728 0.0
H1881 H 0.88946 0.81062 0.60559 0.0
H1882 H 0.87202 0.82818 0.60902 0.0
H1883 H 0.83631 0.81836 0.6359 0.0
H1884 H 0.77914 0.86032 0.62049 0.0
H1885 H 0.7971 0.84293 0.62354 0.0
H1886 H 0.83318 0.85091 0.59677 0.0
C1887 C 0.86953 0.81763 0.61157 0.0
C1888 C 0.83567 0.82541 0.6273 0.0
C1889 C 0.87956 0.80756 0.60968 0.0
C1890 C 0.78968 0.86299 0.61809 0.0
C1891 C 0.79997 0.85304 0.61987 0.0
C1892 C 0.83383 0.84402 0.60549 0.0
C1893 C 0.85633 0.8141 0.61627 0.0
C1894 C 0.84523 0.82464 0.61647 0.0
C1895 C 0.81367 0.85591 0.61618 0.0
C1896 C 0.82442 0.84501 0.61641 0.0
H1897 H 0.86128 0.77962 0.62032 0.0
H1898 H 0.84361 0.79728 0.62349 0.0
H1899 H 0.851 0.83348 0.59682 0.0
H1900 H 0.80956 0.88895 0.60544 0.0
H1901 H 0.82742 0.87182 0.60877 0.0
C1902 C 0.87876 0.19667 0.39269 0.0
C1903 C 0.87584 0.21048 0.3896 0.0
C1904 C 0.86877 0.18653 0.39095 0.0
C1905 C 0.83499 0.17836 0.37521 0.0
H1906 H 0.8326 0.15316 0.406 0.0
C1907 C 0.78916 0.14067 0.38471 0.0
C1908 C 0.79242 0.12778 0.39039 0.0
C1909 C 0.79942 0.15064 0.38286 0.0
C1910 C 0.83322 0.15996 0.39721 0.0
H1911 H 0.86035 0.22435 0.38159 0.0
H1912 H 0.84277 0.20657 0.37867 0.0
H1913 H 0.85031 0.1707 0.4058 0.0
H1914 H 0.80911 0.11493 0.3977 0.0
H1915 H 0.82692 0.1321 0.39424 0.0
H1916 H 0.81769 0.16758 0.36673 0.0
C1917 C 0.85285 0.20361 0.38236 0.0
C1918 C 0.8434 0.17004 0.39709 0.0
C1919 C 0.86291 0.2138 0.38405 0.0
C1920 C 0.80621 0.12481 0.39346 0.0
C1921 C 0.81643 0.1347 0.39156 0.0
C1922 C 0.82474 0.16821 0.37532 0.0
C1923 C 0.85556 0.18991 0.38616 0.0
C1924 C 0.84452 0.17931 0.38606 0.0
C1925 C 0.81312 0.14787 0.38662 0.0
C1926 C 0.82383 0.15881 0.38629 0.0
H1927 H 0.88866 0.19372 0.39683 0.0
H1928 H 0.87132 0.17603 0.39365 0.0
H1929 H 0.8356 0.18532 0.36654 0.0
H1930 H 0.77862 0.14328 0.38226 0.0
H1931 H 0.79652 0.1607 0.37906 0.0
C1932 C 0.8072 0.87943 0.39365 0.0
C1933 C 0.79335 0.87647 0.39087 0.0
C1934 C 0.81735 0.86951 0.39163 0.0
C1935 C 0.82526 0.83576 0.37567 0.0
H1936 H 0.8513 0.83353 0.40578 0.0
C1937 C 0.86315 0.78997 0.38465 0.0
C1938 C 0.87617 0.79327 0.38999 0.0
C1939 C 0.85318 0.80024 0.38286 0.0
C1940 C 0.84426 0.83411 0.39717 0.0
H1941 H 0.77936 0.86094 0.38312 0.0
H1942 H 0.79715 0.84345 0.37976 0.0
H1943 H 0.8337 0.85117 0.40601 0.0
H1944 H 0.88926 0.81001 0.39673 0.0
H1945 H 0.87207 0.82783 0.39339 0.0
H1946 H 0.83586 0.81845 0.36697 0.0
C1947 C 0.80015 0.85353 0.3834 0.0
C1948 C 0.83414 0.84425 0.3973 0.0
C1949 C 0.78995 0.86354 0.38536 0.0
C1950 C 0.87927 0.8071 0.39275 0.0
C1951 C 0.86938 0.81731 0.39091 0.0
C1952 C 0.83544 0.82554 0.37554 0.0
C1953 C 0.81392 0.8563 0.38689 0.0
C1954 C 0.82458 0.84531 0.38652 0.0
C1955 C 0.85607 0.81397 0.38636 0.0
C1956 C 0.84513 0.82468 0.38625 0.0
H1957 H 0.8102 0.88934 0.39775 0.0
H1958 H 0.8279 0.87211 0.3941 0.0
H1959 H 0.81807 0.83631 0.36719 0.0
H1960 H 0.86044 0.7794 0.38244 0.0
H1961 H 0.84302 0.79732 0.37936 0.0
C1962 C 0.12388 0.80541 0.3933 0.0
C1963 C 0.12705 0.79158 0.39064 0.0
C1964 C 0.1337 0.81567 0.39131 0.0
C1965 C 0.16752 0.8239 0.37564 0.0
H1966 H 0.16907 0.85018 0.40556 0.0
C1967 C 0.21261 0.86263 0.38468 0.0
C1968 C 0.20902 0.87565 0.38982 0.0
C1969 C 0.20254 0.85244 0.38294 0.0
C1970 C 0.16869 0.84307 0.397 0.0
H1971 H 0.14281 0.77774 0.38314 0.0
H1972 H 0.16012 0.79572 0.37982 0.0
H1973 H 0.15168 0.83234 0.40575 0.0
H1974 H 0.19197 0.8885 0.39625 0.0
H1975 H 0.17451 0.87094 0.39299 0.0
H1976 H 0.18477 0.83468 0.36703 0.0
C1977 C 0.14997 0.79862 0.38335 0.0
C1978 C 0.15868 0.83281 0.39711 0.0
C1979 C 0.14007 0.78831 0.38527 0.0
C1980 C 0.19511 0.87852 0.39244 0.0
C1981 C 0.1851 0.86842 0.39065 0.0
C1982 C 0.17761 0.83422 0.37554 0.0
C1983 C 0.147 0.81237 0.38672 0.0
C1984 C 0.15786 0.82316 0.38639 0.0
C1985 C 0.18872 0.85513 0.38628 0.0
C1986 C 0.17821 0.844 0.38618 0.0
H1987 H 0.1139 0.80831 0.39729 0.0
H1988 H 0.13095 0.8262 0.39368 0.0
H1989 H 0.16715 0.81664 0.36721 0.0
H1990 H 0.22325 0.8601 0.38259 0.0
H1991 H 0.20568 0.8423 0.37959 0.0
C1992 C 0.21386 0.14081 0.38537 0.0
C1993 C 0.21052 0.1279 0.39095 0.0
C1994 C 0.20366 0.15085 0.38358 0.0
C1995 C 0.16991 0.16028 0.39796 0.0
H1996 H 0.1676 0.18574 0.36737 0.0
C1997 C 0.12441 0.19703 0.39349 0.0
C1998 C 0.12733 0.21085 0.39047 0.0
C1999 C 0.1344 0.18689 0.39173 0.0
C2000 C 0.16818 0.17876 0.37602 0.0
H2001 H 0.19375 0.1151 0.39818 0.0
H2002 H 0.17606 0.13241 0.39484 0.0
H2003 H 0.18547 0.16796 0.36752 0.0
H2004 H 0.14284 0.22475 0.38253 0.0
H2005 H 0.16042 0.20697 0.37957 0.0
H2006 H 0.15283 0.17102 0.40658 0.0
C2007 C 0.18656 0.13496 0.39218 0.0
C2008 C 0.17841 0.16858 0.37611 0.0
C2009 C 0.19671 0.125 0.39401 0.0
C2010 C 0.14027 0.21419 0.38495 0.0
C2011 C 0.15033 0.204 0.38323 0.0
C2012 C 0.15975 0.17039 0.39787 0.0
C2013 C 0.18995 0.14814 0.38732 0.0
C2014 C 0.1793 0.15914 0.38704 0.0
C2015 C 0.14761 0.19029 0.38697 0.0
C2016 C 0.15865 0.17968 0.38686 0.0
H2017 H 0.22442 0.14335 0.38292 0.0
H2018 H 0.20663 0.16091 0.37985 0.0
H2019 H 0.17051 0.15345 0.40673 0.0
H2020 H 0.1145 0.19407 0.39761 0.0
H2021 H 0.13184 0.17638 0.39439 0.0
C2022 C 0.21565 0.14045 0.62038 0.0
C2023 C 0.2117 0.12816 0.61387 0.0
C2024 C 0.20588 0.15065 0.62324 0.0
C2025 C 0.1682 0.15689 0.62584 0.0
H2026 H 0.17743 0.19395 0.61443 0.0
C2027 C 0.12735 0.19664 0.61054 0.0
C2028 C 0.12943 0.21059 0.61362 0.0
C2029 C 0.13745 0.18688 0.61353 0.0
C2030 C 0.17474 0.18373 0.61793 0.0
H2031 H 0.19434 0.11674 0.60578 0.0
H2032 H 0.17743 0.13443 0.61072 0.0
H2033 H 0.19515 0.1762 0.61447 0.0
H2034 H 0.14362 0.22519 0.6227 0.0
H2035 H 0.16133 0.20809 0.62796 0.0
H2036 H 0.14771 0.16431 0.62889 0.0
C2037 C 0.18801 0.13621 0.61371 0.0
C2038 C 0.18491 0.17354 0.61795 0.0
C2039 C 0.19774 0.12608 0.61079 0.0
C2040 C 0.14169 0.21452 0.6202 0.0
C2041 C 0.15187 0.20474 0.62313 0.0
C2042 C 0.15805 0.16706 0.62582 0.0
C2043 C 0.19197 0.14872 0.61977 0.0
C2044 C 0.18168 0.15992 0.62157 0.0
C2045 C 0.14993 0.19083 0.61965 0.0
C2046 C 0.16111 0.18052 0.62152 0.0
H2047 H 0.22633 0.14236 0.62288 0.0
H2048 H 0.20924 0.16013 0.62803 0.0
H2049 H 0.16542 0.14657 0.62895 0.0
H2050 H 0.11803 0.19325 0.60547 0.0
H2051 H 0.13566 0.17631 0.61054 0.0
C2052 C 0.79017 0.14035 0.61708 0.0
C2053 C 0.79341 0.12742 0.6115 0.0
C2054 C 0.80044 0.15033 0.61883 0.0
C2055 C 0.83418 0.1595 0.60428 0.0
H2056 H 0.8368 0.18504 0.63476 0.0
C2057 C 0.8799 0.19597 0.60834 0.0
C2058 C 0.87707 0.20982 0.61129 0.0
C2059 C 0.86987 0.1859 0.61023 0.0
C2060 C 0.83613 0.17803 0.62614 0.0
H2061 H 0.81007 0.11449 0.60426 0.0
H2062 H 0.8279 0.13167 0.60754 0.0
H2063 H 0.81883 0.16736 0.63477 0.0
H2064 H 0.86169 0.22386 0.61923 0.0
H2065 H 0.84403 0.20619 0.6224 0.0
H2066 H 0.85126 0.17011 0.59553 0.0
C2067 C 0.81742 0.1343 0.61023 0.0
C2068 C 0.82584 0.16791 0.62615 0.0
C2069 C 0.80719 0.12441 0.60842 0.0
C2070 C 0.86419 0.21327 0.61687 0.0
C2071 C 0.85408 0.20315 0.61871 0.0
C2072 C 0.8444 0.16954 0.60428 0.0
C2073 C 0.81413 0.14752 0.61506 0.0
C2074 C 0.82484 0.15845 0.61525 0.0
C2075 C 0.8567 0.1894 0.61503 0.0
C2076 C 0.84561 0.17886 0.61525 0.0
H2077 H 0.77964 0.14298 0.61954 0.0
H2078 H 0.79756 0.16041 0.62255 0.0
H2079 H 0.83349 0.15265 0.59553 0.0
H2080 H 0.88977 0.19293 0.60418 0.0
H2081 H 0.87235 0.17536 0.60762 0.0
C2082 C 0.21406 0.86276 0.61964 0.0
C2083 C 0.21053 0.87586 0.61465 0.0
C2084 C 0.20392 0.85265 0.62142 0.0
C2085 C 0.16987 0.84373 0.60758 0.0
H2086 H 0.16844 0.81689 0.63703 0.0
C2087 C 0.12499 0.80613 0.61096 0.0
C2088 C 0.12813 0.79226 0.61347 0.0
C2089 C 0.13484 0.81634 0.61306 0.0
C2090 C 0.16878 0.82426 0.62869 0.0
H2091 H 0.19352 0.88894 0.60858 0.0
H2092 H 0.17593 0.87152 0.61192 0.0
H2093 H 0.18615 0.83484 0.63731 0.0
H2094 H 0.14388 0.77829 0.62079 0.0
H2095 H 0.16124 0.79619 0.62426 0.0
H2096 H 0.15275 0.8332 0.59881 0.0
C2097 C 0.18653 0.86887 0.61411 0.0
C2098 C 0.17891 0.83453 0.62886 0.0
C2099 C 0.19661 0.8789 0.61227 0.0
C2100 C 0.14115 0.7889 0.61878 0.0
C2101 C 0.15109 0.79916 0.62079 0.0
C2102 C 0.15982 0.83352 0.60741 0.0
C2103 C 0.19008 0.8555 0.61828 0.0
C2104 C 0.17948 0.84446 0.61834 0.0
C2105 C 0.14815 0.81296 0.61758 0.0
C2106 C 0.15904 0.82372 0.618 0.0
H2107 H 0.2247 0.8601 0.62155 0.0
H2108 H 0.20701 0.84245 0.62462 0.0
H2109 H 0.17023 0.85095 0.59912 0.0
H2110 H 0.115 0.80909 0.60703 0.0
H2111 H 0.1321 0.8269 0.61082 0.0
C2112 C 0.11313 0.27022 0.44926 0.0
C2113 C 0.11235 0.25727 0.44288 0.0
C2114 C 0.11522 0.27126 0.46347 0.0
C2115 C 0.12683 0.25142 0.49397 0.0
H2116 H 0.10292 0.27605 0.51422 0.0
C2117 C 0.11536 0.24452 0.55155 0.0
C2118 C 0.11374 0.25623 0.55986 0.0
C2119 C 0.11719 0.24581 0.53737 0.0
C2120 C 0.10986 0.26929 0.50873 0.0
H2121 H 0.11353 0.23527 0.44643 0.0
H2122 H 0.11707 0.23708 0.47108 0.0
H2123 H 0.1026 0.27628 0.48915 0.0
H2124 H 0.11319 0.27853 0.55978 0.0
H2125 H 0.11645 0.28076 0.53497 0.0
H2126 H 0.13386 0.2442 0.51353 0.0
C2127 C 0.1162 0.24646 0.46513 0.0
C2128 C 0.10967 0.26943 0.49435 0.0
C2129 C 0.11407 0.24542 0.45098 0.0
C2130 C 0.11437 0.26929 0.55368 0.0
C2131 C 0.11616 0.27057 0.53946 0.0
C2132 C 0.12702 0.25128 0.50833 0.0
C2133 C 0.11665 0.25937 0.47159 0.0
C2134 C 0.11794 0.26029 0.4868 0.0
C2135 C 0.11744 0.25883 0.53112 0.0
C2136 C 0.11833 0.26002 0.51589 0.0
H2137 H 0.11188 0.27956 0.44334 0.0
H2138 H 0.11564 0.28136 0.46812 0.0
H2139 H 0.13352 0.24443 0.48846 0.0
H2140 H 0.11493 0.23429 0.55594 0.0
H2141 H 0.11796 0.23654 0.53125 0.0
C2142 C 0.73302 0.11184 0.55345 0.0
C2143 C 0.74608 0.11149 0.55967 0.0
C2144 C 0.73173 0.11382 0.53925 0.0
C2145 C 0.75075 0.12591 0.50845 0.0
H2146 H 0.72656 0.1012 0.48863 0.0
C2147 C 0.75721 0.11437 0.45086 0.0
C2148 C 0.74545 0.11244 0.44269 0.0
C2149 C 0.75605 0.11622 0.46505 0.0
C2150 C 0.73318 0.10835 0.49401 0.0
H2151 H 0.76798 0.11335 0.55583 0.0
H2152 H 0.76572 0.11671 0.53118 0.0
H2153 H 0.72672 0.10095 0.5137 0.0
H2154 H 0.72317 0.11131 0.44303 0.0
H2155 H 0.72116 0.11457 0.46787 0.0
H2156 H 0.75746 0.13309 0.48876 0.0
C2157 C 0.75646 0.11557 0.53726 0.0
C2158 C 0.73328 0.10821 0.50839 0.0
C2159 C 0.75776 0.11354 0.55141 0.0
C2160 C 0.73245 0.11275 0.44902 0.0
C2161 C 0.73129 0.11454 0.46326 0.0
C2162 C 0.75066 0.12606 0.49408 0.0
C2163 C 0.74345 0.11559 0.53097 0.0
C2164 C 0.74227 0.11679 0.51577 0.0
C2165 C 0.7431 0.11615 0.47145 0.0
C2166 C 0.74209 0.11708 0.48669 0.0
H2167 H 0.7238 0.11032 0.5595 0.0
H2168 H 0.72154 0.11391 0.53474 0.0
H2169 H 0.75762 0.13284 0.51383 0.0
H2170 H 0.76739 0.11421 0.44635 0.0
H2171 H 0.76537 0.11725 0.47106 0.0
C2172 C 0.8892 0.75906 0.451 0.0
C2173 C 0.89043 0.74718 0.44286 0.0
C2174 C 0.8872 0.75804 0.46518 0.0
C2175 C 0.89345 0.7347 0.49416 0.0
H2176 H 0.87063 0.76072 0.51394 0.0
C2177 C 0.88995 0.73469 0.55356 0.0
C2178 C 0.89122 0.74768 0.55979 0.0
C2179 C 0.88783 0.73355 0.53937 0.0
C2180 C 0.87708 0.75341 0.50857 0.0
H2181 H 0.8901 0.72488 0.44325 0.0
H2182 H 0.88655 0.72312 0.46805 0.0
H2183 H 0.87043 0.7606 0.48887 0.0
H2184 H 0.89083 0.76966 0.55598 0.0
H2185 H 0.88722 0.76768 0.53134 0.0
H2186 H 0.90036 0.72773 0.51386 0.0
C2187 C 0.88728 0.73322 0.46343 0.0
C2188 C 0.87697 0.75334 0.49421 0.0
C2189 C 0.88923 0.73424 0.44921 0.0
C2190 C 0.88992 0.75949 0.55155 0.0
C2191 C 0.88775 0.75835 0.53741 0.0
C2192 C 0.89356 0.73477 0.50854 0.0
C2193 C 0.88639 0.74512 0.4716 0.0
C2194 C 0.88536 0.74418 0.48683 0.0
C2195 C 0.88685 0.74538 0.53111 0.0
C2196 C 0.88559 0.74431 0.51591 0.0
H2197 H 0.89006 0.7692 0.44647 0.0
H2198 H 0.88674 0.76741 0.47117 0.0
H2199 H 0.90016 0.72762 0.48881 0.0
H2200 H 0.89087 0.72537 0.5596 0.0
H2201 H 0.88704 0.72341 0.53485 0.0
C2202 C 0.26663 0.89316 0.44998 0.0
C2203 C 0.25391 0.89305 0.44308 0.0
C2204 C 0.26719 0.8919 0.46432 0.0
C2205 C 0.24553 0.89776 0.49484 0.0
H2206 H 0.27343 0.8769 0.51425 0.0
C2207 C 0.24268 0.89059 0.55319 0.0
C2208 C 0.25487 0.89241 0.56073 0.0
C2209 C 0.24301 0.88943 0.5389 0.0
C2210 C 0.26565 0.88286 0.50897 0.0
H2211 H 0.23188 0.89086 0.44583 0.0
H2212 H 0.23288 0.8885 0.47068 0.0
H2213 H 0.27322 0.87706 0.48908 0.0
H2214 H 0.27707 0.89393 0.55914 0.0
H2215 H 0.27763 0.89205 0.53409 0.0
H2216 H 0.238 0.90368 0.51459 0.0
C2217 C 0.24241 0.88986 0.46507 0.0
C2218 C 0.26552 0.88295 0.49456 0.0
C2219 C 0.24184 0.89114 0.45079 0.0
C2220 C 0.26748 0.89254 0.55365 0.0
C2221 C 0.26781 0.89141 0.53929 0.0
C2222 C 0.24566 0.89767 0.50918 0.0
C2223 C 0.25505 0.8905 0.47204 0.0
C2224 C 0.2554 0.89034 0.48734 0.0
C2225 C 0.25554 0.89013 0.53174 0.0
C2226 C 0.25564 0.89016 0.51644 0.0
H2227 H 0.27613 0.89461 0.44436 0.0
H2228 H 0.27709 0.89251 0.46938 0.0
H2229 H 0.23779 0.90383 0.48963 0.0
H2230 H 0.23279 0.89029 0.5583 0.0
H2231 H 0.2334 0.88815 0.53343 0.0
C2232 C 0.1139 0.73275 0.55429 0.0
C2233 C 0.11312 0.74576 0.56054 0.0
C2234 C 0.11574 0.73157 0.54006 0.0
C2235 C 0.12654 0.75116 0.50909 0.0
H2236 H 0.10252 0.72597 0.48967 0.0
C2237 C 0.11398 0.75702 0.45161 0.0
C2238 C 0.1124 0.74517 0.4435 0.0
C2239 C 0.11603 0.75599 0.46578 0.0
C2240 C 0.10948 0.73289 0.49493 0.0
H2241 H 0.11411 0.76773 0.55675 0.0
H2242 H 0.11723 0.76567 0.53205 0.0
H2243 H 0.10268 0.72611 0.51473 0.0
H2244 H 0.1121 0.72287 0.44395 0.0
H2245 H 0.11573 0.72107 0.46875 0.0
H2246 H 0.13309 0.75817 0.48929 0.0
C2247 C 0.11653 0.75636 0.53812 0.0
C2248 C 0.10958 0.73296 0.50931 0.0
C2249 C 0.11464 0.75754 0.5523 0.0
C2250 C 0.11325 0.73221 0.44988 0.0
C2251 C 0.11525 0.73118 0.46411 0.0
C2252 C 0.12644 0.75109 0.49472 0.0
C2253 C 0.11693 0.74338 0.53179 0.0
C2254 C 0.11791 0.74229 0.51656 0.0
C2255 C 0.11653 0.74307 0.47224 0.0
C2256 C 0.11771 0.74214 0.48746 0.0
H2257 H 0.1128 0.72346 0.56033 0.0
H2258 H 0.11616 0.72142 0.53552 0.0
H2259 H 0.13327 0.7583 0.51436 0.0
H2260 H 0.11339 0.76717 0.44707 0.0
H2261 H 0.11679 0.76536 0.47174 0.0
C2262 C 0.24556 0.11298 0.45117 0.0
C2263 C 0.25734 0.111 0.44303 0.0
C2264 C 0.24669 0.11489 0.46535 0.0
C2265 C 0.26961 0.10746 0.49447 0.0
H2266 H 0.24506 0.13212 0.51393 0.0
C2267 C 0.2701 0.11219 0.55383 0.0
C2268 C 0.25708 0.1118 0.56013 0.0
C2269 C 0.27128 0.11389 0.53959 0.0
C2270 C 0.25196 0.12515 0.50865 0.0
H2271 H 0.27961 0.10982 0.44345 0.0
H2272 H 0.28158 0.11322 0.46826 0.0
H2273 H 0.24514 0.13193 0.48886 0.0
H2274 H 0.23514 0.11333 0.55639 0.0
H2275 H 0.23721 0.11624 0.53167 0.0
H2276 H 0.27622 0.10048 0.51428 0.0
C2277 C 0.27145 0.11315 0.46364 0.0
C2278 C 0.252 0.12503 0.49429 0.0
C2279 C 0.27032 0.11128 0.4494 0.0
C2280 C 0.24532 0.11356 0.55191 0.0
C2281 C 0.24651 0.11533 0.53771 0.0
C2282 C 0.26958 0.10759 0.50886 0.0
C2283 C 0.25963 0.11486 0.47179 0.0
C2284 C 0.26062 0.11599 0.48702 0.0
C2285 C 0.25948 0.11535 0.53135 0.0
C2286 C 0.26055 0.11624 0.51611 0.0
H2287 H 0.23539 0.11283 0.44663 0.0
H2288 H 0.23736 0.11598 0.47133 0.0
H2289 H 0.27627 0.10027 0.48921 0.0
H2290 H 0.27937 0.11088 0.55986 0.0
H2291 H 0.28143 0.114 0.53501 0.0
C2292 C 0.89025 0.24461 0.55054 0.0
C2293 C 0.8919 0.25635 0.55881 0.0
C2294 C 0.88809 0.24587 0.53641 0.0
C2295 C 0.89454 0.26936 0.50759 0.0
H2296 H 0.87058 0.2443 0.48792 0.0
C2297 C 0.89017 0.27003 0.44823 0.0
C2298 C 0.89094 0.25705 0.4419 0.0
C2299 C 0.88828 0.27112 0.46246 0.0
C2300 C 0.87735 0.25135 0.49326 0.0
H2301 H 0.8922 0.27865 0.5587 0.0
H2302 H 0.88839 0.28083 0.53397 0.0
H2303 H 0.87082 0.24413 0.51299 0.0
H2304 H 0.88989 0.23506 0.44556 0.0
H2305 H 0.88669 0.23698 0.47025 0.0
H2306 H 0.90133 0.27634 0.48786 0.0
C2307 C 0.88889 0.27065 0.53845 0.0
C2308 C 0.87749 0.25125 0.50762 0.0
C2309 C 0.891 0.2694 0.55264 0.0
C2310 C 0.88937 0.24523 0.45007 0.0
C2311 C 0.88743 0.24632 0.46425 0.0
C2312 C 0.89441 0.26946 0.49322 0.0
C2313 C 0.88755 0.25889 0.53016 0.0
C2314 C 0.88629 0.26005 0.51496 0.0
C2315 C 0.88703 0.25927 0.47065 0.0
C2316 C 0.88603 0.26025 0.48588 0.0
H2317 H 0.89087 0.2344 0.55494 0.0
H2318 H 0.88728 0.23659 0.53031 0.0
H2319 H 0.90155 0.27617 0.51292 0.0
H2320 H 0.89131 0.27935 0.44225 0.0
H2321 H 0.88787 0.28125 0.46706 0.0
C2322 C 0.73357 0.89091 0.44962 0.0
C2323 C 0.74663 0.89145 0.44343 0.0
C2324 C 0.73229 0.88905 0.46384 0.0
C2325 C 0.75142 0.8777 0.49484 0.0
H2326 H 0.72699 0.90251 0.51423 0.0
C2327 C 0.75769 0.88998 0.55229 0.0
C2328 C 0.7459 0.892 0.56041 0.0
C2329 C 0.75657 0.88798 0.53812 0.0
C2330 C 0.73368 0.89533 0.50898 0.0
H2331 H 0.76856 0.89002 0.44732 0.0
H2332 H 0.76632 0.88685 0.47201 0.0
H2333 H 0.72716 0.90235 0.48917 0.0
H2334 H 0.72363 0.89315 0.55998 0.0
H2335 H 0.72168 0.88959 0.53518 0.0
H2336 H 0.75816 0.87089 0.51465 0.0
C2337 C 0.75705 0.88776 0.46589 0.0
C2338 C 0.73378 0.89524 0.4946 0.0
C2339 C 0.75834 0.88968 0.45173 0.0
C2340 C 0.73292 0.89165 0.55404 0.0
C2341 C 0.7318 0.88969 0.53982 0.0
C2342 C 0.75131 0.87777 0.50921 0.0
C2343 C 0.74403 0.8876 0.47215 0.0
C2344 C 0.74285 0.88662 0.48737 0.0
C2345 C 0.74363 0.88796 0.53168 0.0
C2346 C 0.74265 0.8868 0.51645 0.0
H2347 H 0.72434 0.89222 0.44355 0.0
H2348 H 0.72211 0.88884 0.46834 0.0
H2349 H 0.75835 0.87076 0.48958 0.0
H2350 H 0.76786 0.89018 0.55683 0.0
H2351 H 0.7659 0.88688 0.53216 0.0
C2352 C 0.44957 0.11005 0.26692 0.0
C2353 C 0.44257 0.11023 0.25426 0.0
C2354 C 0.46391 0.11134 0.26737 0.0
C2355 C 0.4943 0.10571 0.24546 0.0
H2356 H 0.51381 0.12657 0.27326 0.0
C2357 C 0.55265 0.11302 0.24228 0.0
C2358 C 0.56025 0.11125 0.25444 0.0
C2359 C 0.53835 0.11413 0.24268 0.0
C2360 C 0.50851 0.12061 0.2655 0.0
H2361 H 0.44514 0.11254 0.23221 0.0
H2362 H 0.46999 0.11495 0.23303 0.0
H2363 H 0.48865 0.12629 0.27324 0.0
H2364 H 0.55876 0.10976 0.27664 0.0
H2365 H 0.53371 0.11155 0.27732 0.0
H2366 H 0.51402 0.09989 0.23776 0.0
C2367 C 0.46446 0.11352 0.24259 0.0
C2368 C 0.4941 0.12045 0.26549 0.0
C2369 C 0.45018 0.11222 0.24214 0.0
C2370 C 0.55322 0.11112 0.26708 0.0
C2371 C 0.53886 0.11219 0.26747 0.0
C2372 C 0.50864 0.10586 0.24547 0.0
C2373 C 0.47154 0.11283 0.25517 0.0
C2374 C 0.48684 0.11306 0.2554 0.0
C2375 C 0.53124 0.11344 0.25524 0.0
C2376 C 0.51594 0.11337 0.25543 0.0
H2377 H 0.44403 0.10854 0.27645 0.0
H2378 H 0.46905 0.1107 0.27722 0.0
H2379 H 0.48906 0.09964 0.23774 0.0
H2380 H 0.55771 0.11332 0.23237 0.0
H2381 H 0.53283 0.11539 0.23309 0.0
C2382 C 0.89128 0.55229 0.24117 0.0
C2383 C 0.89328 0.55981 0.25335 0.0
C2384 C 0.88998 0.538 0.24152 0.0
C2385 C 0.88329 0.50819 0.26434 0.0
H2386 H 0.90374 0.48849 0.23638 0.0
C2387 C 0.89348 0.44925 0.26596 0.0
C2388 C 0.8932 0.44216 0.25335 0.0
C2389 C 0.89221 0.46359 0.26631 0.0
C2390 C 0.89781 0.49381 0.24415 0.0
H2391 H 0.89498 0.55818 0.27553 0.0
H2392 H 0.89286 0.53317 0.27612 0.0
H2393 H 0.90377 0.51345 0.23637 0.0
H2394 H 0.89072 0.44458 0.2313 0.0
H2395 H 0.88836 0.46944 0.23196 0.0
H2396 H 0.87748 0.48841 0.27218 0.0
C2397 C 0.89218 0.53837 0.2663 0.0
C2398 C 0.89782 0.50815 0.24415 0.0
C2399 C 0.89346 0.55271 0.26596 0.0
C2400 C 0.89112 0.44969 0.24119 0.0
C2401 C 0.88984 0.46398 0.24155 0.0
C2402 C 0.88329 0.49379 0.26435 0.0
C2403 C 0.89069 0.53083 0.25405 0.0
C2404 C 0.89052 0.51553 0.25419 0.0
C2405 C 0.89065 0.47114 0.25407 0.0
C2406 C 0.8905 0.48643 0.25421 0.0
H2407 H 0.89096 0.55741 0.23129 0.0
H2408 H 0.88855 0.53255 0.23193 0.0
H2409 H 0.87748 0.51357 0.27217 0.0
H2410 H 0.89506 0.44377 0.27552 0.0
H2411 H 0.89296 0.46879 0.27612 0.0
C2412 C 0.55337 0.89048 0.26749 0.0
C2413 C 0.55974 0.89147 0.25455 0.0
C2414 C 0.53913 0.88864 0.26851 0.0
C2415 C 0.50833 0.87817 0.24856 0.0
H2416 H 0.48874 0.90186 0.27393 0.0
C2417 C 0.45075 0.89037 0.24274 0.0
C2418 C 0.44264 0.89184 0.25461 0.0
C2419 C 0.46494 0.88843 0.24375 0.0
C2420 C 0.49404 0.89499 0.26696 0.0
H2421 H 0.55615 0.8909 0.23253 0.0
H2422 H 0.53141 0.88778 0.23432 0.0
H2423 H 0.5138 0.90175 0.27391 0.0
H2424 H 0.44311 0.89206 0.27691 0.0
H2425 H 0.46792 0.8886 0.27867 0.0
H2426 H 0.48858 0.87163 0.24141 0.0
C2427 C 0.53741 0.88831 0.2437 0.0
C2428 C 0.50842 0.89493 0.26695 0.0
C2429 C 0.5516 0.89019 0.24267 0.0
C2430 C 0.44904 0.891 0.26755 0.0
C2431 C 0.46328 0.88909 0.26856 0.0
C2432 C 0.49396 0.87823 0.24858 0.0
C2433 C 0.53097 0.88768 0.25662 0.0
C2434 C 0.51573 0.88671 0.25757 0.0
C2435 C 0.47141 0.88793 0.25667 0.0
C2436 C 0.48664 0.88683 0.25759 0.0
H2437 H 0.55933 0.8914 0.27685 0.0
H2438 H 0.5345 0.88806 0.27862 0.0
H2439 H 0.51365 0.87154 0.24137 0.0
H2440 H 0.44619 0.89096 0.23259 0.0
H2441 H 0.4709 0.88776 0.23437 0.0
C2442 C 0.11353 0.5518 0.24374 0.0
C2443 C 0.1117 0.5599 0.25557 0.0
C2444 C 0.11533 0.5376 0.2448 0.0
C2445 C 0.10773 0.50849 0.26765 0.0
H2446 H 0.13215 0.48882 0.24304 0.0
C2447 C 0.11202 0.44911 0.26827 0.0
C2448 C 0.11169 0.44275 0.25529 0.0
C2449 C 0.11378 0.46336 0.26939 0.0
C2450 C 0.12524 0.49416 0.24995 0.0
H2451 H 0.11067 0.5594 0.27784 0.0
H2452 H 0.11388 0.53456 0.27968 0.0
H2453 H 0.13215 0.51389 0.2431 0.0
H2454 H 0.11333 0.44638 0.23333 0.0
H2455 H 0.11631 0.47111 0.2353 0.0
H2456 H 0.1006 0.48875 0.27428 0.0
C2457 C 0.11379 0.53923 0.26957 0.0
C2458 C 0.12524 0.50852 0.24998 0.0
C2459 C 0.11203 0.55347 0.26852 0.0
C2460 C 0.11353 0.45091 0.2435 0.0
C2461 C 0.11533 0.46511 0.24463 0.0
C2462 C 0.10773 0.49411 0.26761 0.0
C2463 C 0.11533 0.53111 0.25771 0.0
C2464 C 0.1163 0.51587 0.25865 0.0
C2465 C 0.11533 0.47154 0.25757 0.0
C2466 C 0.1163 0.48677 0.25858 0.0
H2467 H 0.11334 0.55639 0.23359 0.0
H2468 H 0.11631 0.53165 0.23544 0.0
H2469 H 0.1006 0.51381 0.27434 0.0
H2470 H 0.11067 0.44314 0.27757 0.0
H2471 H 0.11388 0.46797 0.27952 0.0
C2472 C 0.44909 0.89346 0.7353 0.0
C2473 C 0.44211 0.8933 0.74797 0.0
C2474 C 0.46344 0.89227 0.73484 0.0
C2475 C 0.49383 0.89818 0.7567 0.0
H2476 H 0.51342 0.87731 0.72897 0.0
C2477 C 0.55218 0.891 0.75997 0.0
C2478 C 0.5598 0.89275 0.74782 0.0
C2479 C 0.53788 0.88988 0.75954 0.0
C2480 C 0.50809 0.88327 0.73671 0.0
H2481 H 0.44472 0.8911 0.77002 0.0
H2482 H 0.46959 0.88886 0.76919 0.0
H2483 H 0.48826 0.87746 0.729 0.0
H2484 H 0.55834 0.8942 0.72562 0.0
H2485 H 0.53329 0.8924 0.72489 0.0
H2486 H 0.51352 0.90411 0.76437 0.0
C2487 C 0.46404 0.89021 0.75963 0.0
C2488 C 0.49368 0.88336 0.73672 0.0
C2489 C 0.44975 0.89142 0.76009 0.0
C2490 C 0.55279 0.89286 0.73517 0.0
C2491 C 0.53843 0.89178 0.73475 0.0
C2492 C 0.50817 0.8981 0.75668 0.0
C2493 C 0.47109 0.89088 0.74703 0.0
C2494 C 0.48639 0.89075 0.74679 0.0
C2495 C 0.5308 0.89055 0.74696 0.0
C2496 C 0.51549 0.89058 0.74676 0.0
H2497 H 0.44352 0.89489 0.72576 0.0
H2498 H 0.46856 0.8929 0.72498 0.0
H2499 H 0.48856 0.90425 0.7644 0.0
H2500 H 0.55723 0.89072 0.7699 0.0
H2501 H 0.53235 0.88864 0.76913 0.0
C2502 C 0.11275 0.44923 0.73333 0.0
C2503 C 0.1122 0.44271 0.74623 0.0
C2504 C 0.11465 0.46347 0.7324 0.0
C2505 C 0.12602 0.49397 0.7524 0.0
H2506 H 0.10195 0.51407 0.72779 0.0
C2507 C 0.1144 0.5516 0.75906 0.0
C2508 C 0.11279 0.55984 0.74728 0.0
C2509 C 0.11623 0.53741 0.75787 0.0
C2510 C 0.10892 0.50862 0.73455 0.0
H2511 H 0.11359 0.44607 0.76825 0.0
H2512 H 0.11677 0.47079 0.76662 0.0
H2513 H 0.10179 0.48901 0.72756 0.0
H2514 H 0.11224 0.5596 0.72498 0.0
H2515 H 0.11549 0.53478 0.72293 0.0
H2516 H 0.13293 0.51358 0.75961 0.0
C2517 C 0.11588 0.46492 0.7572 0.0
C2518 C 0.10883 0.49424 0.73442 0.0
C2519 C 0.11395 0.45072 0.75814 0.0
C2520 C 0.11342 0.55356 0.73427 0.0
C2521 C 0.1152 0.53933 0.73309 0.0
C2522 C 0.12611 0.50833 0.75254 0.0
C2523 C 0.1161 0.4715 0.74434 0.0
C2524 C 0.1172 0.48674 0.74352 0.0
C2525 C 0.11647 0.53107 0.74489 0.0
C2526 C 0.11738 0.51584 0.74379 0.0
H2527 H 0.11147 0.44338 0.72395 0.0
H2528 H 0.11492 0.4682 0.72233 0.0
H2529 H 0.13278 0.48851 0.75937 0.0
H2530 H 0.11399 0.55607 0.76924 0.0
H2531 H 0.11701 0.53135 0.76718 0.0
C2532 C 0.44878 0.1107 0.73697 0.0
C2533 C 0.44171 0.11063 0.74958 0.0
C2534 C 0.46312 0.11198 0.73662 0.0
C2535 C 0.4934 0.10585 0.75856 0.0
H2536 H 0.51305 0.12719 0.73122 0.0
C2537 C 0.55181 0.11277 0.76192 0.0
C2538 C 0.55939 0.11126 0.74972 0.0
C2539 C 0.53751 0.11396 0.76155 0.0
C2540 C 0.5077 0.1211 0.73885 0.0
H2541 H 0.44417 0.11249 0.77169 0.0
H2542 H 0.46903 0.11487 0.77105 0.0
H2543 H 0.48789 0.12701 0.73117 0.0
H2544 H 0.55787 0.1103 0.72748 0.0
H2545 H 0.53284 0.11221 0.72686 0.0
H2546 H 0.51308 0.09979 0.76618 0.0
C2547 C 0.46355 0.11365 0.76144 0.0
C2548 C 0.4933 0.12099 0.73882 0.0
C2549 C 0.44926 0.11236 0.76179 0.0
C2550 C 0.55235 0.11146 0.73708 0.0
C2551 C 0.538 0.1126 0.73672 0.0
C2552 C 0.50774 0.10594 0.75858 0.0
C2553 C 0.47069 0.11321 0.74888 0.0
C2554 C 0.48598 0.11341 0.74873 0.0
C2555 C 0.5304 0.1136 0.74898 0.0
C2556 C 0.51509 0.11362 0.74879 0.0
H2557 H 0.44328 0.10939 0.72737 0.0
H2558 H 0.46831 0.11152 0.72678 0.0
H2559 H 0.48812 0.09964 0.76614 0.0
H2560 H 0.55689 0.1128 0.77183 0.0
H2561 H 0.53201 0.11501 0.77117 0.0
C2562 C 0.89051 0.55378 0.73498 0.0
C2563 C 0.89138 0.56005 0.74799 0.0
C2564 C 0.88863 0.53956 0.73383 0.0
C2565 C 0.87793 0.50862 0.75348 0.0
H2566 H 0.902 0.48921 0.72834 0.0
C2567 C 0.89065 0.45121 0.75948 0.0
C2568 C 0.89225 0.44308 0.74763 0.0
C2569 C 0.88857 0.46537 0.75842 0.0
C2570 C 0.89503 0.49446 0.73524 0.0
H2571 H 0.89051 0.55628 0.76997 0.0
H2572 H 0.88733 0.53159 0.76795 0.0
H2573 H 0.90177 0.51426 0.7284 0.0
H2574 H 0.89253 0.44349 0.72533 0.0
H2575 H 0.88884 0.46826 0.72349 0.0
H2576 H 0.87143 0.48882 0.76054 0.0
C2577 C 0.88798 0.53765 0.75863 0.0
C2578 C 0.89489 0.50884 0.73528 0.0
C2579 C 0.88991 0.55182 0.75978 0.0
C2580 C 0.89138 0.44944 0.73467 0.0
C2581 C 0.88934 0.46365 0.73361 0.0
C2582 C 0.87807 0.49426 0.75344 0.0
C2583 C 0.8875 0.53131 0.74565 0.0
C2584 C 0.88654 0.51609 0.74459 0.0
C2585 C 0.88804 0.47179 0.74548 0.0
C2586 C 0.88682 0.48701 0.74451 0.0
H2587 H 0.89157 0.55981 0.72568 0.0
H2588 H 0.88816 0.53501 0.72369 0.0
H2589 H 0.8712 0.5139 0.76061 0.0
H2590 H 0.89125 0.44668 0.76964 0.0
H2591 H 0.8878 0.47135 0.76777 0.0
C2592 C 0.24427 0.55157 0.11413 0.0
C2593 C 0.25609 0.55975 0.11258 0.0
C2594 C 0.24539 0.53739 0.11609 0.0
C2595 C 0.26867 0.50844 0.10932 0.0
H2596 H 0.24337 0.48865 0.13293 0.0
C2597 C 0.26927 0.44906 0.11342 0.0
C2598 C 0.25631 0.4427 0.11256 0.0
C2599 C 0.27032 0.46329 0.11533 0.0
C2600 C 0.25048 0.49402 0.12625 0.0
H2601 H 0.27839 0.55942 0.11225 0.0
H2602 H 0.28032 0.53462 0.11574 0.0
H2603 H 0.24333 0.51373 0.13294 0.0
H2604 H 0.2343 0.44631 0.11346 0.0
H2605 H 0.23615 0.47101 0.1167 0.0
H2606 H 0.27561 0.48873 0.1024 0.0
C2607 C 0.27019 0.53921 0.1153 0.0
C2608 C 0.25045 0.50839 0.12626 0.0
C2609 C 0.26907 0.55343 0.11338 0.0
C2610 C 0.24446 0.45085 0.11405 0.0
C2611 C 0.24552 0.46503 0.11602 0.0
C2612 C 0.2687 0.49406 0.10931 0.0
C2613 C 0.25834 0.531 0.11653 0.0
C2614 C 0.25936 0.51577 0.11759 0.0
C2615 C 0.25845 0.47145 0.11651 0.0
C2616 C 0.25941 0.48668 0.11758 0.0
H2617 H 0.2341 0.55606 0.11358 0.0
H2618 H 0.23605 0.53137 0.11682 0.0
H2619 H 0.27556 0.51379 0.1024 0.0
H2620 H 0.27861 0.4431 0.11234 0.0
H2621 H 0.28044 0.46791 0.11581 0.0
C2622 C 0.23973 0.55227 0.88984 0.0
C2623 C 0.25191 0.55989 0.89137 0.0
C2624 C 0.24015 0.53799 0.88845 0.0
C2625 C 0.2629 0.50838 0.88076 0.0
H2626 H 0.23615 0.48848 0.90259 0.0
C2627 C 0.26563 0.44952 0.89116 0.0
C2628 C 0.2531 0.44231 0.8916 0.0
C2629 C 0.26577 0.46385 0.88976 0.0
C2630 C 0.24357 0.49385 0.89627 0.0
H2631 H 0.27416 0.55847 0.89208 0.0
H2632 H 0.27488 0.53347 0.8898 0.0
H2633 H 0.23588 0.51343 0.90252 0.0
H2634 H 0.23093 0.44447 0.89022 0.0
H2635 H 0.23121 0.46931 0.88759 0.0
H2636 H 0.27066 0.48866 0.87465 0.0
C2637 C 0.265 0.53859 0.88957 0.0
C2638 C 0.24342 0.50819 0.89622 0.0
C2639 C 0.26458 0.55292 0.89094 0.0
C2640 C 0.24077 0.44969 0.89007 0.0
C2641 C 0.24091 0.46396 0.88864 0.0
C2642 C 0.26306 0.49398 0.8808 0.0
C2643 C 0.25277 0.53094 0.8886 0.0
C2644 C 0.25303 0.51565 0.88844 0.0
C2645 C 0.25339 0.47126 0.88876 0.0
C2646 C 0.25335 0.48655 0.88853 0.0
H2647 H 0.22979 0.5573 0.88998 0.0
H2648 H 0.23055 0.53245 0.88743 0.0
H2649 H 0.27039 0.51382 0.87457 0.0
H2650 H 0.27532 0.44415 0.89231 0.0
H2651 H 0.27555 0.46916 0.88996 0.0
C2652 C 0.44919 0.2403 0.88991 0.0
C2653 C 0.44158 0.25253 0.89105 0.0
C2654 C 0.46349 0.24066 0.88871 0.0
C2655 C 0.49323 0.26314 0.88078 0.0
H2656 H 0.51286 0.23686 0.90343 0.0
C2657 C 0.55206 0.26584 0.89136 0.0
C2658 C 0.55921 0.25329 0.89211 0.0
C2659 C 0.53773 0.26602 0.88996 0.0
C2660 C 0.50757 0.24414 0.89688 0.0
H2661 H 0.44305 0.27478 0.89128 0.0
H2662 H 0.46807 0.2754 0.88931 0.0
H2663 H 0.4879 0.23668 0.90316 0.0
H2664 H 0.55694 0.23111 0.8913 0.0
H2665 H 0.53209 0.23145 0.88867 0.0
H2666 H 0.51302 0.27066 0.87463 0.0
C2667 C 0.46293 0.26552 0.88925 0.0
C2668 C 0.49323 0.24404 0.89673 0.0
C2669 C 0.44859 0.26516 0.89043 0.0
C2670 C 0.55177 0.24097 0.89091 0.0
C2671 C 0.53749 0.24115 0.88947 0.0
C2672 C 0.50763 0.26324 0.88094 0.0
C2673 C 0.47057 0.25326 0.88865 0.0
C2674 C 0.48586 0.25349 0.88864 0.0
C2675 C 0.53026 0.25366 0.88926 0.0
C2676 C 0.51496 0.25369 0.88895 0.0
H2677 H 0.44414 0.23038 0.89022 0.0
H2678 H 0.46902 0.23103 0.88798 0.0
H2679 H 0.48786 0.27049 0.87437 0.0
H2680 H 0.55747 0.27553 0.89226 0.0
H2681 H 0.53247 0.27583 0.88991 0.0
C2682 C 0.73344 0.55341 0.89053 0.0
C2683 C 0.7464 0.55976 0.89134 0.0
C2684 C 0.73237 0.53917 0.8887 0.0
C2685 C 0.75215 0.50835 0.87797 0.0
H2686 H 0.72728 0.48881 0.90222 0.0
C2687 C 0.75854 0.45095 0.89059 0.0
C2688 C 0.74675 0.44277 0.89231 0.0
C2689 C 0.75739 0.46511 0.88853 0.0
C2690 C 0.73411 0.4941 0.8952 0.0
H2691 H 0.76841 0.55615 0.89041 0.0
H2692 H 0.76654 0.53143 0.8873 0.0
H2693 H 0.7272 0.51387 0.90196 0.0
H2694 H 0.72445 0.44308 0.89284 0.0
H2695 H 0.72245 0.46784 0.88917 0.0
H2696 H 0.75928 0.48859 0.87143 0.0
C2697 C 0.75718 0.53742 0.88798 0.0
C2698 C 0.73406 0.50847 0.89504 0.0
C2699 C 0.75825 0.55161 0.88986 0.0
C2700 C 0.73374 0.44907 0.89159 0.0
C2701 C 0.7326 0.46327 0.88956 0.0
C2702 C 0.7522 0.49399 0.87812 0.0
C2703 C 0.74425 0.531 0.88756 0.0
C2704 C 0.74328 0.51577 0.88663 0.0
C2705 C 0.74442 0.47148 0.88815 0.0
C2706 C 0.74337 0.48669 0.88693 0.0
H2707 H 0.7241 0.55938 0.89161 0.0
H2708 H 0.72225 0.53455 0.88828 0.0
H2709 H 0.75921 0.51366 0.87119 0.0
H2710 H 0.76872 0.44647 0.89108 0.0
H2711 H 0.76671 0.47113 0.88767 0.0
C2712 C 0.44885 0.76076 0.88922 0.0
C2713 C 0.44138 0.74849 0.89074 0.0
C2714 C 0.46314 0.76051 0.8879 0.0
C2715 C 0.49309 0.73817 0.88038 0.0
H2716 H 0.5125 0.76529 0.90221 0.0
C2717 C 0.55202 0.73659 0.89073 0.0
C2718 C 0.55899 0.74926 0.89116 0.0
C2719 C 0.53769 0.73616 0.88936 0.0
C2720 C 0.50727 0.75777 0.89589 0.0
H2721 H 0.44306 0.72626 0.89152 0.0
H2722 H 0.46809 0.72584 0.88937 0.0
H2723 H 0.48754 0.76512 0.90211 0.0
H2724 H 0.55638 0.77137 0.88977 0.0
H2725 H 0.53154 0.7706 0.88718 0.0
H2726 H 0.51295 0.73076 0.87429 0.0
C2727 C 0.46284 0.73566 0.88909 0.0
C2728 C 0.49293 0.75767 0.89583 0.0
C2729 C 0.4485 0.73591 0.89038 0.0
C2730 C 0.55136 0.76144 0.88963 0.0
C2731 C 0.53709 0.76101 0.88822 0.0
C2732 C 0.50749 0.73827 0.88044 0.0
C2733 C 0.47035 0.74798 0.88812 0.0
C2734 C 0.48564 0.74793 0.88803 0.0
C2735 C 0.53004 0.74839 0.88836 0.0
C2736 C 0.51474 0.74813 0.88815 0.0
H2737 H 0.4437 0.77063 0.8893 0.0
H2738 H 0.46856 0.77017 0.88687 0.0
H2739 H 0.48778 0.73059 0.8742 0.0
H2740 H 0.55758 0.72701 0.89189 0.0
H2741 H 0.53258 0.72628 0.88958 0.0
C2742 C 0.73699 0.55273 0.11236 0.0
C2743 C 0.74951 0.55997 0.11207 0.0
C2744 C 0.73686 0.53839 0.11367 0.0
C2745 C 0.75919 0.50846 0.10723 0.0
H2746 H 0.7321 0.48834 0.12845 0.0
C2747 C 0.76296 0.44999 0.11349 0.0
C2748 C 0.7508 0.44238 0.11178 0.0
C2749 C 0.76252 0.46426 0.11488 0.0
C2750 C 0.73967 0.49382 0.12239 0.0
H2751 H 0.77166 0.55785 0.11364 0.0
H2752 H 0.77142 0.53299 0.11613 0.0
H2753 H 0.73182 0.51349 0.12853 0.0
H2754 H 0.72856 0.44382 0.11069 0.0
H2755 H 0.72782 0.46881 0.11298 0.0
H2756 H 0.76698 0.48891 0.10097 0.0
C2757 C 0.76171 0.53833 0.11502 0.0
C2758 C 0.73951 0.50822 0.12244 0.0
C2759 C 0.76184 0.55261 0.11367 0.0
C2760 C 0.73813 0.44936 0.11198 0.0
C2761 C 0.73769 0.46368 0.11336 0.0
C2762 C 0.75936 0.49412 0.10719 0.0
C2763 C 0.74925 0.53101 0.11474 0.0
C2764 C 0.74931 0.51571 0.11489 0.0
C2765 C 0.74991 0.47132 0.11455 0.0
C2766 C 0.74964 0.48661 0.1148 0.0
H2767 H 0.7273 0.55808 0.11115 0.0
H2768 H 0.72709 0.53307 0.11334 0.0
H2769 H 0.76669 0.51387 0.10104 0.0
H2770 H 0.77289 0.44495 0.11351 0.0
H2771 H 0.7721 0.4698 0.11607 0.0
C2772 C 0.55228 0.76045 0.1128 0.0
C2773 C 0.55995 0.74831 0.11122 0.0
C2774 C 0.53799 0.75997 0.11406 0.0
C2775 C 0.50837 0.73709 0.12128 0.0
H2776 H 0.4886 0.76412 0.09966 0.0
C2777 C 0.44942 0.73485 0.11087 0.0
C2778 C 0.44232 0.74744 0.11064 0.0
C2779 C 0.46377 0.73456 0.11221 0.0
C2780 C 0.49393 0.75661 0.10592 0.0
H2781 H 0.5586 0.72606 0.11026 0.0
H2782 H 0.53358 0.72524 0.11231 0.0
H2783 H 0.51355 0.76433 0.09983 0.0
H2784 H 0.44469 0.76957 0.11233 0.0
H2785 H 0.46953 0.76904 0.11483 0.0
H2786 H 0.4886 0.72931 0.12724 0.0
C2787 C 0.53867 0.73514 0.11268 0.0
C2788 C 0.50827 0.75673 0.10602 0.0
C2789 C 0.55301 0.73562 0.11146 0.0
C2790 C 0.44982 0.75968 0.11231 0.0
C2791 C 0.46409 0.75939 0.11367 0.0
C2792 C 0.49396 0.73696 0.12118 0.0
C2793 C 0.53098 0.74734 0.11372 0.0
C2794 C 0.51568 0.74704 0.11375 0.0
C2795 C 0.47128 0.74686 0.11335 0.0
C2796 C 0.48658 0.74679 0.11355 0.0
H2797 H 0.55727 0.7704 0.11282 0.0
H2798 H 0.53241 0.76954 0.11514 0.0
H2799 H 0.51377 0.72953 0.12741 0.0
H2800 H 0.44397 0.72523 0.10961 0.0
H2801 H 0.46899 0.72474 0.11185 0.0
C2802 C 0.55331 0.26771 0.11206 0.0
C2803 C 0.56033 0.25507 0.11173 0.0
C2804 C 0.53896 0.26809 0.11317 0.0
C2805 C 0.50872 0.24639 0.10603 0.0
H2806 H 0.48876 0.27344 0.12744 0.0
C2807 C 0.45024 0.243 0.11207 0.0
C2808 C 0.44267 0.25521 0.11053 0.0
C2809 C 0.46452 0.24336 0.11344 0.0
C2810 C 0.4942 0.26589 0.12133 0.0
H2811 H 0.55777 0.23294 0.11304 0.0
H2812 H 0.53289 0.23362 0.11516 0.0
H2813 H 0.51392 0.27338 0.12777 0.0
H2814 H 0.44419 0.27745 0.10972 0.0
H2815 H 0.46921 0.27806 0.11199 0.0
H2816 H 0.48913 0.23895 0.09948 0.0
C2817 C 0.53842 0.24324 0.11424 0.0
C2818 C 0.50861 0.26586 0.12151 0.0
C2819 C 0.55272 0.24286 0.1131 0.0
C2820 C 0.4497 0.26784 0.11088 0.0
C2821 C 0.46404 0.2682 0.11224 0.0
C2822 C 0.49438 0.24642 0.10585 0.0
C2823 C 0.53133 0.25583 0.11399 0.0
C2824 C 0.51603 0.25604 0.11392 0.0
C2825 C 0.47163 0.25594 0.11327 0.0
C2826 C 0.48693 0.25611 0.11355 0.0
H2827 H 0.55885 0.27731 0.11102 0.0
H2828 H 0.53381 0.27796 0.11287 0.0
H2829 H 0.5141 0.2389 0.09979 0.0
H2830 H 0.44518 0.23308 0.11198 0.0
H2831 H 0.47002 0.23374 0.11451 0.0
C2832 C 0.61109 0.76612 0.0531 0.0
C2833 C 0.61084 0.75347 0.06012 0.0
C2834 C 0.61228 0.76651 0.03876 0.0
C2835 C 0.60546 0.7448 0.00848 0.0
H2836 H 0.62678 0.77204 0.98866 0.0
C2837 C 0.6115 0.74175 0.94998 0.0
C2838 C 0.60993 0.75401 0.94249 0.0
C2839 C 0.6129 0.74202 0.96425 0.0
C2840 C 0.62069 0.76444 0.99406 0.0
H2841 H 0.61235 0.73136 0.05757 0.0
H2842 H 0.61459 0.73207 0.03269 0.0
H2843 H 0.62702 0.77192 0.01383 0.0
H2844 H 0.6091 0.77624 0.94414 0.0
H2845 H 0.61139 0.77669 0.96916 0.0
H2846 H 0.59901 0.73739 0.98885 0.0
C2847 C 0.61357 0.74168 0.03822 0.0
C2848 C 0.62083 0.76437 0.00847 0.0
C2849 C 0.61236 0.74128 0.05251 0.0
C2850 C 0.61028 0.7666 0.94959 0.0
C2851 C 0.61165 0.76687 0.96393 0.0
C2852 C 0.60533 0.74488 0.99414 0.0
C2853 C 0.61325 0.75427 0.03113 0.0
C2854 C 0.61326 0.75449 0.01584 0.0
C2855 C 0.61271 0.75456 0.97144 0.0
C2856 C 0.61298 0.75464 0.98674 0.0
H2857 H 0.60995 0.77571 0.05864 0.0
H2858 H 0.61193 0.77638 0.03361 0.0
H2859 H 0.59925 0.73726 0.01382 0.0
H2860 H 0.61142 0.73187 0.94484 0.0
H2861 H 0.61399 0.73237 0.96969 0.0
C2862 C 0.25948 0.61203 0.95046 0.0
C2863 C 0.24722 0.61034 0.94298 0.0
C2864 C 0.25924 0.61319 0.96475 0.0
C2865 C 0.23677 0.62003 0.99478 0.0
H2866 H 0.2646 0.599 0.01409 0.0
C2867 C 0.23584 0.60984 0.05378 0.0
C2868 C 0.24856 0.60996 0.06067 0.0
C2869 C 0.23528 0.61106 0.03944 0.0
C2870 C 0.25686 0.60509 0.00888 0.0
H2871 H 0.22502 0.60905 0.94471 0.0
H2872 H 0.22462 0.61093 0.96976 0.0
H2873 H 0.26431 0.59908 0.98913 0.0
H2874 H 0.2706 0.61211 0.0579 0.0
H2875 H 0.26958 0.61439 0.03304 0.0
H2876 H 0.22928 0.62591 0.01468 0.0
C2877 C 0.23442 0.61147 0.9645 0.0
C2878 C 0.2567 0.60514 0.99454 0.0
C2879 C 0.23466 0.61034 0.95014 0.0
C2880 C 0.26063 0.61183 0.05294 0.0
C2881 C 0.26006 0.61306 0.03866 0.0
C2882 C 0.23693 0.61998 0.00919 0.0
C2883 C 0.24674 0.61264 0.97199 0.0
C2884 C 0.24672 0.61267 0.98729 0.0
C2885 C 0.24741 0.61242 0.0317 0.0
C2886 C 0.24704 0.61256 0.0164 0.0
H2887 H 0.26934 0.61222 0.94529 0.0
H2888 H 0.2689 0.61439 0.97017 0.0
H2889 H 0.229 0.62602 0.98951 0.0
H2890 H 0.22634 0.60842 0.05941 0.0
H2891 H 0.22537 0.61045 0.03438 0.0
C2892 C 0.38971 0.26214 0.05208 0.0
C2893 C 0.39124 0.25 0.05976 0.0
C2894 C 0.3883 0.26165 0.0378 0.0
C2895 C 0.38049 0.23874 0.00834 0.0
H2896 H 0.40206 0.26551 0.98817 0.0
C2897 C 0.3903 0.23595 0.94935 0.0
C2898 C 0.3906 0.24847 0.94212 0.0
C2899 C 0.38908 0.23582 0.9637 0.0
C2900 C 0.39581 0.25808 0.99362 0.0
H2901 H 0.39198 0.22774 0.05844 0.0
H2902 H 0.38967 0.22691 0.03345 0.0
H2903 H 0.40219 0.26586 0.01313 0.0
H2904 H 0.38913 0.27063 0.94428 0.0
H2905 H 0.38681 0.27037 0.96915 0.0
H2906 H 0.37424 0.2309 0.98869 0.0
C2907 C 0.38944 0.23681 0.03852 0.0
C2908 C 0.39588 0.25828 0.00795 0.0
C2909 C 0.39082 0.2373 0.05284 0.0
C2910 C 0.38909 0.2608 0.9495 0.0
C2911 C 0.38784 0.26066 0.9638 0.0
C2912 C 0.38042 0.23854 0.99393 0.0
C2913 C 0.38843 0.24901 0.03081 0.0
C2914 C 0.38818 0.24867 0.01551 0.0
C2915 C 0.38811 0.2482 0.97111 0.0
C2916 C 0.38804 0.24826 0.98641 0.0
H2917 H 0.38984 0.2721 0.05705 0.0
H2918 H 0.38725 0.27123 0.03221 0.0
H2919 H 0.37437 0.23125 0.01385 0.0
H2920 H 0.39144 0.22627 0.94398 0.0
H2921 H 0.38939 0.22604 0.96902 0.0
C2922 C 0.7449 0.38968 0.05279 0.0
C2923 C 0.75686 0.39108 0.06079 0.0
C2924 C 0.74576 0.38788 0.03858 0.0
C2925 C 0.76856 0.39486 0.00931 0.0
H2926 H 0.74299 0.37136 0.98973 0.0
C2927 C 0.76855 0.39096 0.94994 0.0
C2928 C 0.75554 0.39169 0.94366 0.0
C2929 C 0.76972 0.38907 0.96416 0.0
C2930 C 0.75016 0.37802 0.99504 0.0
H2931 H 0.77915 0.39129 0.06009 0.0
H2932 H 0.78064 0.38809 0.03523 0.0
H2933 H 0.74328 0.37121 0.01481 0.0
H2934 H 0.73356 0.39063 0.94742 0.0
H2935 H 0.73561 0.38745 0.97212 0.0
H2936 H 0.77522 0.4019 0.98956 0.0
C2937 C 0.77059 0.38853 0.03999 0.0
C2938 C 0.75033 0.37793 0.00941 0.0
C2939 C 0.76973 0.39028 0.05425 0.0
C2940 C 0.74375 0.39012 0.95188 0.0
C2941 C 0.74493 0.3882 0.96607 0.0
C2942 C 0.76838 0.39496 0.99493 0.0
C2943 C 0.7586 0.38745 0.03197 0.0
C2944 C 0.75936 0.38653 0.01672 0.0
C2945 C 0.75791 0.38781 0.97241 0.0
C2946 C 0.75901 0.38672 0.98763 0.0
H2947 H 0.73481 0.39024 0.05747 0.0
H2948 H 0.73631 0.38726 0.03271 0.0
H2949 H 0.77553 0.40173 0.01461 0.0
H2950 H 0.77784 0.39209 0.94392 0.0
H2951 H 0.77987 0.38866 0.9687 0.0
C2952 C 0.61175 0.2621 0.95071 0.0
C2953 C 0.61043 0.24978 0.94328 0.0
C2954 C 0.61322 0.2619 0.96499 0.0
C2955 C 0.62161 0.23972 0.99484 0.0
H2956 H 0.59963 0.26646 0.01459 0.0
C2957 C 0.61194 0.23778 0.05385 0.0
C2958 C 0.61144 0.25041 0.06088 0.0
C2959 C 0.61318 0.23744 0.03951 0.0
C2960 C 0.60599 0.25905 0.00926 0.0
H2961 H 0.61013 0.22754 0.94502 0.0
H2962 H 0.61254 0.22723 0.97002 0.0
H2963 H 0.59937 0.26632 0.98963 0.0
H2964 H 0.61255 0.27256 0.05836 0.0
H2965 H 0.61488 0.27193 0.03349 0.0
H2966 H 0.62809 0.23238 0.01461 0.0
C2967 C 0.61255 0.23704 0.96476 0.0
C2968 C 0.60585 0.25897 0.99492 0.0
C2969 C 0.61111 0.23722 0.95043 0.0
C2970 C 0.61275 0.26265 0.05329 0.0
C2971 C 0.61401 0.2623 0.03901 0.0
C2972 C 0.62176 0.2398 0.00925 0.0
C2973 C 0.61336 0.24939 0.97222 0.0
C2974 C 0.61369 0.24936 0.98752 0.0
C2975 C 0.61395 0.24971 0.03191 0.0
C2976 C 0.61398 0.24952 0.01661 0.0
H2977 H 0.61141 0.27195 0.94554 0.0
H2978 H 0.61411 0.2716 0.97038 0.0
H2979 H 0.62785 0.23225 0.98945 0.0
H2980 H 0.61096 0.22816 0.05938 0.0
H2981 H 0.61302 0.22758 0.03435 0.0
C2982 C 0.74105 0.61222 0.05321 0.0
C2983 C 0.7533 0.61079 0.06075 0.0
C2984 C 0.74135 0.61345 0.03892 0.0
C2985 C 0.76389 0.62082 0.00905 0.0
H2986 H 0.7367 0.5992 0.98952 0.0
C2987 C 0.76572 0.61034 0.95016 0.0
C2988 C 0.75308 0.61022 0.94311 0.0
C2989 C 0.76608 0.61165 0.96449 0.0
C2990 C 0.74425 0.60545 0.99479 0.0
H2991 H 0.77554 0.61003 0.05914 0.0
H2992 H 0.77604 0.612 0.03412 0.0
H2993 H 0.73673 0.59933 0.01448 0.0
H2994 H 0.73097 0.61203 0.94559 0.0
H2995 H 0.73165 0.61446 0.97045 0.0
H2996 H 0.77148 0.62679 0.98922 0.0
C2997 C 0.7662 0.6123 0.03931 0.0
C2998 C 0.74427 0.60553 0.00913 0.0
C2999 C 0.7659 0.61112 0.05366 0.0
C3000 C 0.74089 0.61194 0.95067 0.0
C3001 C 0.74126 0.61326 0.96495 0.0
C3002 C 0.76389 0.62073 0.99465 0.0
C3003 C 0.7539 0.61321 0.03176 0.0
C3004 C 0.75403 0.61327 0.01646 0.0
C3005 C 0.75383 0.61287 0.97207 0.0
C3006 C 0.75401 0.61309 0.98736 0.0
H3007 H 0.73116 0.61216 0.05833 0.0
H3008 H 0.7317 0.61444 0.03345 0.0
H3009 H 0.77149 0.62697 0.01438 0.0
H3010 H 0.7753 0.60904 0.94466 0.0
H3011 H 0.77593 0.61124 0.96967 0.0
C3012 C 0.39015 0.76533 0.94913 0.0
C3013 C 0.39057 0.75274 0.94202 0.0
C3014 C 0.38895 0.76559 0.96348 0.0
C3015 C 0.39593 0.74369 0.99362 0.0
H3016 H 0.37421 0.77051 0.01357 0.0
C3017 C 0.38965 0.74005 0.05209 0.0
C3018 C 0.39108 0.75226 0.05968 0.0
C3019 C 0.3883 0.74043 0.03781 0.0
C3020 C 0.38041 0.76302 0.00814 0.0
H3021 H 0.38936 0.73059 0.94441 0.0
H3022 H 0.38709 0.73107 0.96928 0.0
H3023 H 0.3741 0.77061 0.98841 0.0
H3024 H 0.39171 0.77451 0.05818 0.0
H3025 H 0.38949 0.77515 0.03318 0.0
H3026 H 0.40235 0.73615 0.01322 0.0
C3027 C 0.38799 0.74073 0.96383 0.0
C3028 C 0.38035 0.76309 0.99373 0.0
C3029 C 0.38922 0.74047 0.94953 0.0
C3030 C 0.39063 0.76491 0.05266 0.0
C3031 C 0.3893 0.76528 0.03833 0.0
C3032 C 0.39599 0.74363 0.00796 0.0
C3033 C 0.38813 0.75327 0.97101 0.0
C3034 C 0.38806 0.75336 0.98631 0.0
C3035 C 0.38839 0.75302 0.03071 0.0
C3036 C 0.38819 0.75324 0.01542 0.0
H3037 H 0.39116 0.77498 0.94366 0.0
H3038 H 0.38916 0.77542 0.9687 0.0
H3039 H 0.40225 0.73626 0.98826 0.0
H3040 H 0.38982 0.73013 0.05715 0.0
H3041 H 0.38733 0.73081 0.03229 0.0
C3042 C 0.23684 0.39224 0.05368 0.0
C3043 C 0.24948 0.39232 0.06071 0.0
C3044 C 0.23644 0.39094 0.03934 0.0
C3045 C 0.25825 0.39708 0.00899 0.0
H3046 H 0.23096 0.37558 0.98945 0.0
C3047 C 0.26144 0.39017 0.95058 0.0
C3048 C 0.24919 0.39157 0.94303 0.0
C3049 C 0.26113 0.38899 0.96487 0.0
C3050 C 0.23857 0.38172 0.99477 0.0
H3051 H 0.27158 0.39045 0.05819 0.0
H3052 H 0.27086 0.38805 0.03333 0.0
H3053 H 0.23098 0.3758 0.01461 0.0
H3054 H 0.22695 0.39234 0.94463 0.0
H3055 H 0.22644 0.39045 0.96966 0.0
H3056 H 0.26577 0.40315 0.98929 0.0
C3057 C 0.26126 0.38927 0.03884 0.0
C3058 C 0.23858 0.38184 0.00917 0.0
C3059 C 0.26166 0.39057 0.05312 0.0
C3060 C 0.23658 0.39127 0.95012 0.0
C3061 C 0.23628 0.39013 0.96447 0.0
C3062 C 0.25823 0.39697 0.99465 0.0
C3063 C 0.24868 0.3897 0.03174 0.0
C3064 C 0.24848 0.38947 0.01645 0.0
C3065 C 0.24858 0.38925 0.97204 0.0
C3066 C 0.24845 0.38924 0.98734 0.0
H3067 H 0.22726 0.39355 0.0592 0.0
H3068 H 0.22659 0.39138 0.03418 0.0
H3069 H 0.26582 0.40332 0.01425 0.0
H3070 H 0.27133 0.39022 0.94546 0.0
H3071 H 0.27078 0.38802 0.97035 0.0
C3072 C 0.05399 0.60963 0.76742 0.0
C3073 C 0.06098 0.61006 0.75476 0.0
C3074 C 0.03965 0.61083 0.7679 0.0
C3075 C 0.00928 0.60543 0.7459 0.0
H3076 H 0.98966 0.6255 0.7742 0.0
C3077 C 0.95087 0.61235 0.74304 0.0
C3078 C 0.94332 0.61022 0.75518 0.0
C3079 C 0.96516 0.61356 0.74343 0.0
C3080 C 0.995 0.61976 0.7663 0.0
H3081 H 0.05838 0.61278 0.73276 0.0
H3082 H 0.03352 0.61506 0.73364 0.0
H3083 H 0.01483 0.62545 0.77412 0.0
H3084 H 0.9449 0.60818 0.77733 0.0
H3085 H 0.96994 0.61013 0.77798 0.0
H3086 H 0.98959 0.59961 0.73813 0.0
C3087 C 0.03906 0.61348 0.74317 0.0
C3088 C 0.00941 0.61973 0.76625 0.0
C3089 C 0.05335 0.61225 0.74268 0.0
C3090 C 0.95039 0.60981 0.76779 0.0
C3091 C 0.96474 0.61099 0.76817 0.0
C3092 C 0.99494 0.60545 0.74595 0.0
C3093 C 0.032 0.61251 0.75574 0.0
C3094 C 0.01671 0.61262 0.75599 0.0
C3095 C 0.97231 0.6126 0.75595 0.0
C3096 C 0.98761 0.61267 0.75609 0.0
H3097 H 0.05955 0.60795 0.77692 0.0
H3098 H 0.03453 0.60997 0.77774 0.0
H3099 H 0.01455 0.59957 0.73804 0.0
H3100 H 0.94576 0.61286 0.73316 0.0
H3101 H 0.97064 0.6151 0.73386 0.0
C3102 C 0.38843 0.95138 0.74317 0.0
C3103 C 0.38982 0.94318 0.75499 0.0
C3104 C 0.38645 0.96556 0.74428 0.0
C3105 C 0.39295 0.99443 0.76774 0.0
H3106 H 0.36967 0.01435 0.74222 0.0
C3107 C 0.38881 0.05379 0.76869 0.0
C3108 C 0.38979 0.06025 0.75579 0.0
C3109 C 0.3869 0.03955 0.76961 0.0
C3110 C 0.37626 0.00894 0.74939 0.0
H3111 H 0.38982 0.94346 0.7773 0.0
H3112 H 0.38631 0.96825 0.77922 0.0
H3113 H 0.36967 0.98927 0.74204 0.0
H3114 H 0.38912 0.05682 0.73375 0.0
H3115 H 0.38589 0.0321 0.73537 0.0
H3116 H 0.39977 0.0141 0.77488 0.0
C3117 C 0.38689 0.96369 0.76908 0.0
C3118 C 0.37626 0.99457 0.74929 0.0
C3119 C 0.38882 0.94947 0.76797 0.0
C3120 C 0.38842 0.0522 0.74386 0.0
C3121 C 0.38647 0.03801 0.74479 0.0
C3122 C 0.39295 0.00881 0.76785 0.0
C3123 C 0.38584 0.97192 0.75724 0.0
C3124 C 0.38479 0.98714 0.75828 0.0
C3125 C 0.38585 0.03148 0.75766 0.0
C3126 C 0.3848 0.01624 0.7585 0.0
H3127 H 0.38913 0.9469 0.733 0.0
H3128 H 0.38586 0.97159 0.73494 0.0
H3129 H 0.39976 0.98904 0.7747 0.0
H3130 H 0.38979 0.05967 0.77809 0.0
H3131 H 0.38631 0.03485 0.77969 0.0
C3132 C 0.05465 0.39098 0.76736 0.0
C3133 C 0.06095 0.39164 0.75436 0.0
C3134 C 0.04042 0.38922 0.76851 0.0
C3135 C 0.00945 0.37841 0.74898 0.0
H3136 H 0.99011 0.40253 0.77412 0.0
C3137 C 0.95181 0.39052 0.74356 0.0
C3138 C 0.94382 0.39213 0.7555 0.0
C3139 C 0.96601 0.38862 0.74445 0.0
C3140 C 0.99534 0.39555 0.76722 0.0
H3141 H 0.05722 0.39056 0.73239 0.0
H3142 H 0.03248 0.38759 0.7344 0.0
H3143 H 0.01516 0.40242 0.77386 0.0
H3144 H 0.94453 0.39263 0.77779 0.0
H3145 H 0.96936 0.38923 0.77933 0.0
H3146 H 0.98963 0.37174 0.74214 0.0
C3147 C 0.03853 0.38831 0.74372 0.0
C3148 C 0.00972 0.39548 0.76707 0.0
C3149 C 0.05273 0.39011 0.74256 0.0
C3150 C 0.95036 0.39146 0.76838 0.0
C3151 C 0.96461 0.38959 0.76927 0.0
C3152 C 0.99508 0.37847 0.74913 0.0
C3153 C 0.03217 0.38801 0.75669 0.0
C3154 C 0.01694 0.3871 0.75777 0.0
C3155 C 0.97261 0.38828 0.7573 0.0
C3156 C 0.98785 0.38722 0.75808 0.0
H3157 H 0.06067 0.39209 0.77666 0.0
H3158 H 0.03585 0.38888 0.77866 0.0
H3159 H 0.0147 0.37164 0.74187 0.0
H3160 H 0.94713 0.39098 0.73346 0.0
H3161 H 0.97187 0.38783 0.73502 0.0
C3162 C 0.61331 0.95068 0.74136 0.0
C3163 C 0.61147 0.94305 0.75349 0.0
C3164 C 0.61468 0.96496 0.74183 0.0
C3165 C 0.62168 0.99459 0.76474 0.0
H3166 H 0.60042 0.01437 0.73743 0.0
C3167 C 0.6111 0.05347 0.76697 0.0
C3168 C 0.61092 0.06061 0.7544 0.0
C3169 C 0.61254 0.03914 0.76722 0.0
C3170 C 0.60659 0.00904 0.74501 0.0
H3171 H 0.61016 0.94445 0.77571 0.0
H3172 H 0.6124 0.96945 0.77651 0.0
H3173 H 0.60058 0.98942 0.73722 0.0
H3174 H 0.61283 0.05834 0.73228 0.0
H3175 H 0.61552 0.03351 0.73275 0.0
H3176 H 0.62756 0.01435 0.77259 0.0
C3177 C 0.6129 0.96434 0.76664 0.0
C3178 C 0.60668 0.9947 0.7449 0.0
C3179 C 0.61156 0.95001 0.76617 0.0
C3180 C 0.61276 0.05317 0.74215 0.0
C3181 C 0.61424 0.03891 0.7424 0.0
C3182 C 0.6216 0.009 0.76486 0.0
C3183 C 0.61418 0.972 0.75444 0.0
C3184 C 0.61427 0.98729 0.7547 0.0
C3185 C 0.61384 0.03167 0.75491 0.0
C3186 C 0.61409 0.01638 0.75494 0.0
H3187 H 0.61344 0.94567 0.73142 0.0
H3188 H 0.61595 0.97051 0.73226 0.0
H3189 H 0.6277 0.98918 0.77239 0.0
H3190 H 0.60971 0.05888 0.7766 0.0
H3191 H 0.61212 0.03388 0.77702 0.0
C3192 C 0.95189 0.389 0.25846 0.0
C3193 C 0.94373 0.39054 0.24662 0.0
C3194 C 0.96609 0.38719 0.25738 0.0
C3195 C 0.99504 0.39446 0.23427 0.0
H3196 H 0.01498 0.37064 0.25925 0.0
C3197 C 0.05445 0.3908 0.23358 0.0
C3198 C 0.06084 0.39135 0.24654 0.0
C3199 C 0.04022 0.38886 0.23252 0.0
C3200 C 0.00957 0.37739 0.25224 0.0
H3201 H 0.94413 0.391 0.22432 0.0
H3202 H 0.96897 0.38779 0.22246 0.0
H3203 H 0.98991 0.37046 0.25929 0.0
H3204 H 0.05729 0.38991 0.26852 0.0
H3205 H 0.0326 0.38666 0.26666 0.0
H3206 H 0.01469 0.40164 0.22745 0.0
C3207 C 0.96434 0.38812 0.23258 0.0
C3208 C 0.9952 0.37728 0.25226 0.0
C3209 C 0.9501 0.38987 0.23366 0.0
C3210 C 0.05274 0.38955 0.25837 0.0
C3211 C 0.03856 0.38758 0.2573 0.0
C3212 C 0.00942 0.39458 0.23426 0.0
C3213 C 0.97252 0.3869 0.24444 0.0
C3214 C 0.98776 0.386 0.24346 0.0
C3215 C 0.03209 0.38737 0.24438 0.0
C3216 C 0.01686 0.38623 0.24343 0.0
H3217 H 0.94736 0.38945 0.26861 0.0
H3218 H 0.9721 0.38646 0.26673 0.0
H3219 H 0.98963 0.40143 0.22747 0.0
H3220 H 0.06038 0.39211 0.22425 0.0
H3221 H 0.03558 0.38859 0.2224 0.0
C3222 C 0.61343 0.0531 0.26116 0.0
C3223 C 0.61161 0.06072 0.24901 0.0
C3224 C 0.61466 0.03881 0.2607 0.0
C3225 C 0.62131 0.00909 0.23778 0.0
H3226 H 0.60014 0.98948 0.26528 0.0
C3227 C 0.61045 0.95026 0.23573 0.0
C3228 C 0.61045 0.94313 0.24831 0.0
C3229 C 0.61187 0.96459 0.23544 0.0
C3230 C 0.60628 0.99477 0.25764 0.0
H3231 H 0.61021 0.0593 0.2268 0.0
H3232 H 0.61221 0.03428 0.22604 0.0
H3233 H 0.60046 0.01443 0.26545 0.0
H3234 H 0.61262 0.94543 0.2704 0.0
H3235 H 0.61526 0.97026 0.26987 0.0
H3236 H 0.62699 0.98928 0.22991 0.0
C3237 C 0.61279 0.0394 0.2359 0.0
C3238 C 0.60646 0.0091 0.25774 0.0
C3239 C 0.6116 0.05374 0.23635 0.0
C3240 C 0.61242 0.95058 0.26053 0.0
C3241 C 0.61386 0.96485 0.26024 0.0
C3242 C 0.62112 0.99468 0.23768 0.0
C3243 C 0.61405 0.03175 0.24811 0.0
C3244 C 0.61402 0.01646 0.24786 0.0
C3245 C 0.61333 0.97207 0.24773 0.0
C3246 C 0.61365 0.98736 0.24767 0.0
H3247 H 0.61363 0.05813 0.27108 0.0
H3248 H 0.61592 0.03326 0.27028 0.0
H3249 H 0.62731 0.01444 0.23008 0.0
H3250 H 0.60896 0.94484 0.22612 0.0
H3251 H 0.61134 0.96984 0.22564 0.0
C3252 C 0.05272 0.61298 0.25888 0.0
C3253 C 0.06084 0.61132 0.24704 0.0
C3254 C 0.03853 0.61492 0.25782 0.0
C3255 C 0.00946 0.60807 0.23465 0.0
H3256 H 0.98981 0.63178 0.25996 0.0
C3257 C 0.95013 0.6125 0.23406 0.0
C3258 C 0.94376 0.61161 0.24701 0.0
C3259 C 0.96436 0.61436 0.23302 0.0
C3260 C 0.99515 0.62508 0.25285 0.0
H3261 H 0.0604 0.6108 0.22475 0.0
H3262 H 0.0356 0.61428 0.2229 0.0
H3263 H 0.01489 0.63173 0.25994 0.0
H3264 H 0.94736 0.61239 0.26902 0.0
H3265 H 0.97208 0.61555 0.2672 0.0
H3266 H 0.98971 0.60122 0.22777 0.0
C3267 C 0.04023 0.61392 0.23302 0.0
C3268 C 0.00952 0.62504 0.25284 0.0
C3269 C 0.05446 0.612 0.23408 0.0
C3270 C 0.9519 0.61302 0.25888 0.0
C3271 C 0.96609 0.61493 0.25783 0.0
C3272 C 0.99508 0.60812 0.23466 0.0
C3273 C 0.03208 0.61526 0.24489 0.0
C3274 C 0.01685 0.61634 0.24393 0.0
C3275 C 0.97252 0.61544 0.2449 0.0
C3276 C 0.98776 0.61643 0.24394 0.0
H3277 H 0.05726 0.61251 0.26904 0.0
H3278 H 0.03256 0.61572 0.26718 0.0
H3279 H 0.01477 0.60112 0.22777 0.0
H3280 H 0.94417 0.61149 0.22471 0.0
H3281 H 0.96899 0.61486 0.22291 0.0
C3282 C 0.38986 0.05374 0.23393 0.0
C3283 C 0.39062 0.06004 0.24692 0.0
C3284 C 0.38803 0.03951 0.23279 0.0
C3285 C 0.37725 0.00858 0.2524 0.0
H3286 H 0.4014 0.98916 0.22734 0.0
C3287 C 0.38968 0.95108 0.25829 0.0
C3288 C 0.39132 0.94298 0.24643 0.0
C3289 C 0.38768 0.96525 0.25726 0.0
C3290 C 0.3944 0.99442 0.23422 0.0
H3291 H 0.38962 0.0563 0.2689 0.0
H3292 H 0.38651 0.03159 0.2669 0.0
H3293 H 0.40121 0.01422 0.22745 0.0
H3294 H 0.39179 0.94347 0.22414 0.0
H3295 H 0.38824 0.96827 0.22235 0.0
H3296 H 0.37066 0.98878 0.25938 0.0
C3297 C 0.38722 0.03764 0.25758 0.0
C3298 C 0.39429 0.0088 0.23428 0.0
C3299 C 0.3891 0.05182 0.25872 0.0
C3300 C 0.39059 0.94939 0.23348 0.0
C3301 C 0.38863 0.96362 0.23246 0.0
C3302 C 0.37735 0.99421 0.25233 0.0
C3303 C 0.38684 0.03128 0.24461 0.0
C3304 C 0.38591 0.01605 0.24356 0.0
C3305 C 0.38729 0.97173 0.24435 0.0
C3306 C 0.38613 0.98696 0.24343 0.0
H3307 H 0.39097 0.05976 0.22462 0.0
H3308 H 0.38764 0.03494 0.22264 0.0
H3309 H 0.37048 0.01385 0.25949 0.0
H3310 H 0.39017 0.94651 0.26844 0.0
H3311 H 0.38687 0.9712 0.26664 0.0
C3312 C 0.76844 0.05381 0.61096 0.0
C3313 C 0.75548 0.06023 0.61074 0.0
C3314 C 0.76952 0.03958 0.61287 0.0
C3315 C 0.7501 0.00898 0.62489 0.0
H3316 H 0.77399 0.98901 0.60003 0.0
C3317 C 0.74331 0.95133 0.61349 0.0
C3318 C 0.75506 0.94315 0.61149 0.0
C3319 C 0.7445 0.96553 0.61527 0.0
C3320 C 0.76744 0.99442 0.60722 0.0
H3321 H 0.73353 0.05672 0.61275 0.0
H3322 H 0.73543 0.03202 0.61598 0.0
H3323 H 0.77409 0.01407 0.59985 0.0
H3324 H 0.77733 0.9435 0.6102 0.0
H3325 H 0.77938 0.96832 0.61338 0.0
H3326 H 0.74322 0.98933 0.63204 0.0
C3327 C 0.74477 0.03796 0.6148 0.0
C3328 C 0.7675 0.0088 0.60712 0.0
C3329 C 0.74368 0.05214 0.61285 0.0
C3330 C 0.76806 0.94948 0.61168 0.0
C3331 C 0.76924 0.96372 0.61342 0.0
C3332 C 0.75004 0.99461 0.62499 0.0
C3333 C 0.75768 0.03148 0.61467 0.0
C3334 C 0.75864 0.01625 0.61577 0.0
C3335 C 0.75746 0.97193 0.61509 0.0
C3336 C 0.75852 0.98716 0.61597 0.0
H3337 H 0.77774 0.05972 0.6094 0.0
H3338 H 0.77963 0.03492 0.61286 0.0
H3339 H 0.74333 0.01441 0.63187 0.0
H3340 H 0.73313 0.94682 0.61341 0.0
H3341 H 0.7352 0.97155 0.61636 0.0
C3342 C 0.74141 0.05325 0.38994 0.0
C3343 C 0.75344 0.06092 0.39227 0.0
C3344 C 0.74196 0.03896 0.38877 0.0
C3345 C 0.76524 0.00931 0.38313 0.0
H3346 H 0.73685 0.98959 0.40297 0.0
C3347 C 0.76682 0.9504 0.39367 0.0
C3348 C 0.75425 0.94328 0.3931 0.0
C3349 C 0.76718 0.96474 0.39237 0.0
C3350 C 0.74475 0.99491 0.39721 0.0
H3351 H 0.77557 0.05956 0.3947 0.0
H3352 H 0.7765 0.03454 0.39281 0.0
H3353 H 0.73667 0.01455 0.40276 0.0
H3354 H 0.73226 0.94563 0.39004 0.0
H3355 H 0.73292 0.97048 0.38759 0.0
H3356 H 0.77337 0.98954 0.37771 0.0
C3357 C 0.76665 0.03963 0.39177 0.0
C3358 C 0.74465 0.00924 0.39708 0.0
C3359 C 0.76611 0.05397 0.39291 0.0
C3360 C 0.74212 0.95077 0.39068 0.0
C3361 C 0.74248 0.96505 0.38935 0.0
C3362 C 0.76535 0.99491 0.38326 0.0
C3363 C 0.75454 0.03194 0.38997 0.0
C3364 C 0.75483 0.01664 0.38999 0.0
C3365 C 0.75496 0.97225 0.39046 0.0
C3366 C 0.75505 0.98754 0.39024 0.0
H3367 H 0.73149 0.05826 0.38925 0.0
H3368 H 0.73247 0.03338 0.38709 0.0
H3369 H 0.77319 0.0147 0.37749 0.0
H3370 H 0.77636 0.94495 0.39552 0.0
H3371 H 0.77695 0.96997 0.39334 0.0
C3372 C 0.95016 0.74113 0.39113 0.0
C3373 C 0.94269 0.75338 0.3929 0.0
C3374 C 0.96446 0.74138 0.38998 0.0
C3375 C 0.99447 0.76387 0.38321 0.0
H3376 H 0.01382 0.73605 0.4042 0.0
C3377 C 0.05343 0.76497 0.39337 0.0
C3378 C 0.06037 0.75229 0.39329 0.0
C3379 C 0.03909 0.76548 0.39214 0.0
C3380 C 0.0086 0.74378 0.39811 0.0
H3381 H 0.94443 0.77557 0.39436 0.0
H3382 H 0.96948 0.77598 0.39248 0.0
H3383 H 0.98886 0.73629 0.40411 0.0
H3384 H 0.05769 0.73023 0.39123 0.0
H3385 H 0.03283 0.73114 0.38893 0.0
H3386 H 0.01434 0.77141 0.37733 0.0
C3387 C 0.96422 0.76619 0.39188 0.0
C3388 C 0.99426 0.74392 0.39807 0.0
C3389 C 0.94986 0.76594 0.39301 0.0
C3390 C 0.0527 0.74018 0.39147 0.0
C3391 C 0.03841 0.74069 0.39023 0.0
C3392 C 0.00887 0.76374 0.38326 0.0
C3393 C 0.9717 0.75388 0.39061 0.0
C3394 C 0.987 0.75391 0.39056 0.0
C3395 C 0.0314 0.75331 0.39082 0.0
C3396 C 0.0161 0.75363 0.39066 0.0
H3397 H 0.94499 0.73128 0.39086 0.0
H3398 H 0.96988 0.73174 0.38872 0.0
H3399 H 0.98918 0.77165 0.37724 0.0
H3400 H 0.05902 0.7745 0.39476 0.0
H3401 H 0.03401 0.77537 0.39272 0.0
C3402 C 0.25951 0.05207 0.38959 0.0
C3403 C 0.24781 0.06035 0.39146 0.0
C3404 C 0.25822 0.03791 0.38761 0.0
C3405 C 0.23482 0.00915 0.39481 0.0
H3406 H 0.25939 0.98923 0.37056 0.0
C3407 C 0.23363 0.94979 0.39057 0.0
C3408 C 0.24656 0.94334 0.39119 0.0
C3409 C 0.23264 0.96403 0.38868 0.0
C3410 C 0.25248 0.99464 0.37741 0.0
H3411 H 0.22552 0.06022 0.39232 0.0
H3412 H 0.22328 0.03546 0.38879 0.0
H3413 H 0.25967 0.0143 0.37064 0.0
H3414 H 0.26857 0.9468 0.38985 0.0
H3415 H 0.26683 0.97151 0.38662 0.0
H3416 H 0.22785 0.98948 0.4018 0.0
C3417 C 0.23347 0.03995 0.38901 0.0
C3418 C 0.25265 0.00901 0.37746 0.0
C3419 C 0.23475 0.05415 0.39095 0.0
C3420 C 0.25843 0.9514 0.38945 0.0
C3421 C 0.25744 0.96559 0.3875 0.0
C3422 C 0.23465 0.99477 0.39475 0.0
C3423 C 0.2452 0.03165 0.38746 0.0
C3424 C 0.24401 0.01643 0.38636 0.0
C3425 C 0.24455 0.97211 0.38727 0.0
C3426 C 0.24368 0.98734 0.38625 0.0
H3427 H 0.26973 0.05648 0.38991 0.0
H3428 H 0.26748 0.03182 0.38663 0.0
H3429 H 0.22814 0.01453 0.4019 0.0
H3430 H 0.22427 0.9439 0.39185 0.0
H3431 H 0.22254 0.96873 0.38841 0.0
C3432 C 0.05282 0.26214 0.39038 0.0
C3433 C 0.06042 0.25003 0.39249 0.0
C3434 C 0.03854 0.26169 0.38906 0.0
C3435 C 0.00888 0.23868 0.38246 0.0
H3436 H 0.98897 0.26674 0.40258 0.0
C3437 C 0.9498 0.23717 0.39205 0.0
C3438 C 0.94274 0.24978 0.39164 0.0
C3439 C 0.96416 0.23678 0.39094 0.0
C3440 C 0.99435 0.25893 0.39674 0.0
H3441 H 0.05894 0.22786 0.39439 0.0
H3442 H 0.03392 0.22709 0.39224 0.0
H3443 H 0.01393 0.26679 0.40279 0.0
H3444 H 0.94522 0.27181 0.38906 0.0
H3445 H 0.97011 0.27109 0.38696 0.0
H3446 H 0.98916 0.23078 0.37653 0.0
C3447 C 0.03907 0.23694 0.39149 0.0
C3448 C 0.00869 0.25896 0.39686 0.0
C3449 C 0.05341 0.23738 0.39277 0.0
C3450 C 0.95031 0.26192 0.38957 0.0
C3451 C 0.96461 0.26152 0.38844 0.0
C3452 C 0.99447 0.23865 0.38234 0.0
C3453 C 0.03145 0.24912 0.38988 0.0
C3454 C 0.01615 0.2489 0.38966 0.0
C3455 C 0.97174 0.24899 0.3894 0.0
C3456 C 0.98704 0.24883 0.38942 0.0
H3457 H 0.05788 0.27205 0.38996 0.0
H3458 H 0.03302 0.27124 0.38754 0.0
H3459 H 0.01432 0.23084 0.37673 0.0
H3460 H 0.94429 0.22763 0.39364 0.0
H3461 H 0.96934 0.22696 0.3918 0.0
C3462 C 0.23678 0.05353 0.61068 0.0
C3463 C 0.24941 0.06057 0.61102 0.0
C3464 C 0.23636 0.0392 0.61208 0.0
C3465 C 0.25849 0.00889 0.60699 0.0
H3466 H 0.23038 0.98933 0.6274 0.0
C3467 C 0.26161 0.95053 0.61411 0.0
C3468 C 0.24947 0.94295 0.61211 0.0
C3469 C 0.26119 0.96482 0.61534 0.0
C3470 C 0.23823 0.99465 0.62157 0.0
H3471 H 0.27142 0.05811 0.6138 0.0
H3472 H 0.27065 0.03328 0.6164 0.0
H3473 H 0.23033 0.01449 0.62708 0.0
H3474 H 0.22729 0.94445 0.61038 0.0
H3475 H 0.22658 0.96948 0.61235 0.0
H3476 H 0.26633 0.98919 0.60132 0.0
C3477 C 0.2611 0.03876 0.61475 0.0
C3478 C 0.2382 0.00906 0.62139 0.0
C3479 C 0.26152 0.05303 0.61333 0.0
C3480 C 0.23683 0.94998 0.61191 0.0
C3481 C 0.23642 0.96432 0.61309 0.0
C3482 C 0.25851 0.99455 0.60716 0.0
C3483 C 0.24856 0.03163 0.61387 0.0
C3484 C 0.24839 0.01633 0.61415 0.0
C3485 C 0.24863 0.97193 0.61453 0.0
C3486 C 0.24845 0.98723 0.6145 0.0
H3487 H 0.22726 0.05902 0.60892 0.0
H3488 H 0.22654 0.03401 0.61129 0.0
H3489 H 0.2663 0.01415 0.60104 0.0
H3490 H 0.27152 0.94546 0.61447 0.0
H3491 H 0.27076 0.97032 0.61675 0.0
C3492 C 0.95115 0.23589 0.6084 0.0
C3493 C 0.94416 0.24855 0.60883 0.0
C3494 C 0.96549 0.2354 0.60967 0.0
C3495 C 0.99591 0.25745 0.60455 0.0
H3496 H 0.0154 0.229 0.62456 0.0
C3497 C 0.05424 0.26035 0.61208 0.0
C3498 C 0.06184 0.24827 0.60983 0.0
C3499 C 0.03994 0.25991 0.61316 0.0
C3500 C 0.01009 0.23695 0.61884 0.0
H3501 H 0.94674 0.27054 0.61158 0.0
H3502 H 0.9716 0.26965 0.61397 0.0
H3503 H 0.99023 0.22908 0.62433 0.0
H3504 H 0.06033 0.22614 0.60748 0.0
H3505 H 0.03528 0.2254 0.60923 0.0
H3506 H 0.01564 0.26529 0.59895 0.0
C3507 C 0.96606 0.26013 0.61235 0.0
C3508 C 0.99568 0.23699 0.6187 0.0
C3509 C 0.95178 0.26062 0.61105 0.0
C3510 C 0.0548 0.23565 0.6092 0.0
C3511 C 0.04044 0.23521 0.61026 0.0
C3512 C 0.01025 0.25741 0.60469 0.0
C3513 C 0.97313 0.24756 0.6114 0.0
C3514 C 0.98843 0.24731 0.61161 0.0
C3515 C 0.03283 0.24739 0.61197 0.0
C3516 C 0.01753 0.24722 0.61189 0.0
H3517 H 0.9456 0.22639 0.6067 0.0
H3518 H 0.97061 0.22556 0.60881 0.0
H3519 H 0.99068 0.26535 0.5987 0.0
H3520 H 0.05931 0.27024 0.61276 0.0
H3521 H 0.03442 0.26945 0.61477 0.0
C3522 C 0.05434 0.76605 0.61033 0.0
C3523 C 0.06127 0.75336 0.61064 0.0
C3524 C 0.03999 0.76658 0.61141 0.0
C3525 C 0.00957 0.74482 0.60537 0.0
H3526 H 0.9899 0.77294 0.62563 0.0
C3527 C 0.95107 0.74219 0.61175 0.0
C3528 C 0.94359 0.7544 0.60977 0.0
C3529 C 0.96536 0.74248 0.61303 0.0
C3530 C 0.99525 0.7651 0.61984 0.0
H3531 H 0.05856 0.73133 0.61301 0.0
H3532 H 0.03367 0.7323 0.61506 0.0
H3533 H 0.01506 0.77271 0.62586 0.0
H3534 H 0.9453 0.77657 0.60806 0.0
H3535 H 0.97033 0.77705 0.61015 0.0
H3536 H 0.9899 0.73725 0.59923 0.0
C3537 C 0.03927 0.74182 0.61368 0.0
C3538 C 0.00966 0.76496 0.61997 0.0
C3539 C 0.05357 0.74128 0.61258 0.0
C3540 C 0.95074 0.76697 0.60957 0.0
C3541 C 0.96508 0.76725 0.61082 0.0
C3542 C 0.99523 0.74496 0.60524 0.0
C3543 C 0.03227 0.75444 0.61283 0.0
C3544 C 0.01698 0.75476 0.61279 0.0
C3545 C 0.97258 0.75498 0.61231 0.0
C3546 C 0.98788 0.75503 0.61252 0.0
H3547 H 0.05995 0.77555 0.60884 0.0
H3548 H 0.03492 0.77646 0.61064 0.0
H3549 H 0.01487 0.73701 0.59946 0.0
H3550 H 0.94591 0.73232 0.6121 0.0
H3551 H 0.97078 0.73286 0.61446 0.0
loop_
_geom_bond_atom_site_label_1
_geom_bond_atom_site_label_2
_geom_bond_distance
_geom_bond_site_symmetry_2
_ccdc_geom_bond_type
O0 Cd1 2.223 . S
O0 C8 1.315 . S
Cd1 O0 2.223 . S
Cd1 O4 2.297 . S
Cd1 O5 2.439 . S
Cd1 O11 2.240 . S
Cd2 O3 2.240 . S
Cd2 O10 2.223 . S
Cd2 O12 2.297 . S
Cd2 O13 2.439 . S
O3 Cd2 2.240 . S
O3 C8 1.279 . S
O4 Cd1 2.297 . S
O4 C6 1.247 . S
O5 Cd1 2.439 . S
O5 C6 1.208 . S
C6 O4 1.247 . S
C6 O5 1.208 . S
C7 O12 1.247 . S
C7 O13 1.208 . S
C8 O0 1.315 . S
C8 O3 1.279 . S
C9 O10 1.315 . S
C9 O11 1.279 . S
O10 Cd2 2.223 . S
O10 C9 1.315 . S
O11 Cd1 2.240 . S
O11 C9 1.279 . S
O12 Cd2 2.297 . S
O12 C7 1.247 . S
O13 Cd2 2.439 . S
O13 C7 1.208 . S
O14 Cd15 2.223 . S
O14 C22 1.315 . S
Cd15 O14 2.223 . S
Cd15 O18 2.297 . S
Cd15 O19 2.439 . S
Cd15 O25 2.240 . S
Cd16 O17 2.240 . S
Cd16 O24 2.223 . S
Cd16 O26 2.297 . S
Cd16 O27 2.439 . S
O17 Cd16 2.240 . S
O17 C22 1.279 . S
O18 Cd15 2.297 . S
O18 C20 1.247 . S
O19 Cd15 2.439 . S
O19 C20 1.208 . S
C20 O18 1.247 . S
C20 O19 1.208 . S
C21 O26 1.247 . S
C21 O27 1.208 . S
C22 O14 1.315 . S
C22 O17 1.279 . S
C23 O24 1.315 . S
C23 O25 1.279 . S
O24 Cd16 2.223 . S
O24 C23 1.315 . S
O25 Cd15 2.240 . S
O25 C23 1.279 . S
O26 Cd16 2.297 . S
O26 C21 1.247 . S
O27 Cd16 2.439 . S
O27 C21 1.208 . S
O28 Cd29 2.223 . S
O28 C36 1.315 . S
Cd29 O28 2.223 . S
Cd29 O32 2.297 . S
Cd29 O33 2.439 . S
Cd29 O39 2.240 . S
Cd30 O31 2.240 . S
Cd30 O38 2.223 . S
Cd30 O40 2.297 . S
Cd30 O41 2.439 . S
O31 Cd30 2.240 . S
O31 C36 1.279 . S
O32 Cd29 2.297 . S
O32 C34 1.247 . S
O33 Cd29 2.439 . S
O33 C34 1.208 . S
C34 O32 1.247 . S
C34 O33 1.208 . S
C35 O40 1.247 . S
C35 O41 1.208 . S
C36 O28 1.315 . S
C36 O31 1.279 . S
C37 O38 1.315 . S
C37 O39 1.279 . S
O38 Cd30 2.223 . S
O38 C37 1.315 . S
O39 Cd29 2.240 . S
O39 C37 1.279 . S
O40 Cd30 2.297 . S
O40 C35 1.247 . S
O41 Cd30 2.439 . S
O41 C35 1.208 . S
O42 Cd43 2.223 . S
O42 C50 1.315 . S
Cd43 O42 2.223 . S
Cd43 O46 2.297 . S
Cd43 O47 2.439 . S
Cd43 O53 2.240 . S
Cd44 O45 2.240 . S
Cd44 O52 2.223 . S
Cd44 O54 2.297 . S
Cd44 O55 2.439 . S
O45 Cd44 2.240 . S
O45 C50 1.279 . S
O46 Cd43 2.297 . S
O46 C48 1.247 . S
O47 Cd43 2.439 . S
O47 C48 1.208 . S
C48 O46 1.247 . S
C48 O47 1.208 . S
C49 O54 1.247 . S
C49 O55 1.208 . S
C50 O42 1.315 . S
C50 O45 1.279 . S
C51 O52 1.315 . S
C51 O53 1.279 . S
O52 Cd44 2.223 . S
O52 C51 1.315 . S
O53 Cd43 2.240 . S
O53 C51 1.279 . S
O54 Cd44 2.297 . S
O54 C49 1.247 . S
O55 Cd44 2.439 . S
O55 C49 1.208 . S
O56 Cd57 2.223 . S
O56 C64 1.315 . S
Cd57 O56 2.223 . S
Cd57 O60 2.297 . S
Cd57 O61 2.439 . S
Cd57 O67 2.240 . S
Cd58 O59 2.240 . S
Cd58 O66 2.223 . S
Cd58 O68 2.297 . S
Cd58 O69 2.439 . S
O59 Cd58 2.240 . S
O59 C64 1.279 . S
O60 Cd57 2.297 . S
O60 C62 1.247 . S
O61 Cd57 2.439 . S
O61 C62 1.208 . S
C62 O60 1.247 . S
C62 O61 1.208 . S
C63 O68 1.247 . S
C63 O69 1.208 . S
C64 O56 1.315 . S
C64 O59 1.279 . S
C65 O66 1.315 . S
C65 O67 1.279 . S
O66 Cd58 2.223 . S
O66 C65 1.315 . S
O67 Cd57 2.240 . S
O67 C65 1.279 . S
O68 Cd58 2.297 . S
O68 C63 1.247 . S
O69 Cd58 2.439 . S
O69 C63 1.208 . S
O70 Cd71 2.223 . S
O70 C78 1.315 . S
Cd71 O70 2.223 . S
Cd71 O74 2.297 . S
Cd71 O75 2.439 . S
Cd71 O81 2.240 . S
Cd72 O73 2.240 . S
Cd72 O80 2.223 . S
Cd72 O82 2.297 . S
Cd72 O83 2.439 . S
O73 Cd72 2.240 . S
O73 C78 1.279 . S
O74 Cd71 2.297 . S
O74 C76 1.247 . S
O75 Cd71 2.439 . S
O75 C76 1.208 . S
C76 O74 1.247 . S
C76 O75 1.208 . S
C77 O82 1.247 . S
C77 O83 1.208 . S
C78 O70 1.315 . S
C78 O73 1.279 . S
C79 O80 1.315 . S
C79 O81 1.279 . S
O80 Cd72 2.223 . S
O80 C79 1.315 . S
O81 Cd71 2.240 . S
O81 C79 1.279 . S
O82 Cd72 2.297 . S
O82 C77 1.247 . S
O83 Cd72 2.439 . S
O83 C77 1.208 . S
O84 Cd85 2.223 . S
O84 C92 1.315 . S
Cd85 O84 2.223 . S
Cd85 O88 2.297 . S
Cd85 O89 2.439 . S
Cd85 O95 2.240 . S
Cd86 O87 2.240 . S
Cd86 O94 2.223 . S
Cd86 O96 2.297 . S
Cd86 O97 2.439 . S
O87 Cd86 2.240 . S
O87 C92 1.279 . S
O88 Cd85 2.297 . S
O88 C90 1.247 . S
O89 Cd85 2.439 . S
O89 C90 1.208 . S
C90 O88 1.247 . S
C90 O89 1.208 . S
C91 O96 1.247 . S
C91 O97 1.208 . S
C92 O84 1.315 . S
C92 O87 1.279 . S
C93 O94 1.315 . S
C93 O95 1.279 . S
O94 Cd86 2.223 . S
O94 C93 1.315 . S
O95 Cd85 2.240 . S
O95 C93 1.279 . S
O96 Cd86 2.297 . S
O96 C91 1.247 . S
O97 Cd86 2.439 . S
O97 C91 1.208 . S
O98 Cd99 2.223 . S
O98 C106 1.315 . S
Cd99 O98 2.223 . S
Cd99 O102 2.297 . S
Cd99 O103 2.439 . S
Cd99 O109 2.240 . S
Cd100 O101 2.240 . S
Cd100 O108 2.223 . S
Cd100 O110 2.297 . S
Cd100 O111 2.439 . S
O101 Cd100 2.240 . S
O101 C106 1.279 . S
O102 Cd99 2.297 . S
O102 C104 1.247 . S
O103 Cd99 2.439 . S
O103 C104 1.208 . S
C104 O102 1.247 . S
C104 O103 1.208 . S
C105 O110 1.247 . S
C105 O111 1.208 . S
C106 O98 1.315 . S
C106 O101 1.279 . S
C107 O108 1.315 . S
C107 O109 1.279 . S
O108 Cd100 2.223 . S
O108 C107 1.315 . S
O109 Cd99 2.240 . S
O109 C107 1.279 . S
O110 Cd100 2.297 . S
O110 C105 1.247 . S
O111 Cd100 2.439 . S
O111 C105 1.208 . S
O112 Cd113 2.223 . S
O112 C120 1.315 . S
Cd113 O112 2.223 . S
Cd113 O116 2.297 . S
Cd113 O117 2.439 . S
Cd113 O123 2.240 . S
Cd114 O115 2.240 . S
Cd114 O122 2.223 . S
Cd114 O124 2.297 . S
Cd114 O125 2.439 . S
O115 Cd114 2.240 . S
O115 C120 1.279 . S
O116 Cd113 2.297 . S
O116 C118 1.247 . S
O117 Cd113 2.439 . S
O117 C118 1.208 . S
C118 O116 1.247 . S
C118 O117 1.208 . S
C119 O124 1.247 . S
C119 O125 1.208 . S
C120 O112 1.315 . S
C120 O115 1.279 . S
C121 O122 1.315 . S
C121 O123 1.279 . S
O122 Cd114 2.223 . S
O122 C121 1.315 . S
O123 Cd113 2.240 . S
O123 C121 1.279 . S
O124 Cd114 2.297 . S
O124 C119 1.247 . S
O125 Cd114 2.439 . S
O125 C119 1.208 . S
O126 Cd127 2.223 . S
O126 C134 1.315 . S
Cd127 O126 2.223 . S
Cd127 O130 2.297 . S
Cd127 O131 2.439 . S
Cd127 O137 2.240 . S
Cd128 O129 2.240 . S
Cd128 O136 2.223 . S
Cd128 O138 2.297 . S
Cd128 O139 2.439 . S
O129 Cd128 2.240 . S
O129 C134 1.279 . S
O130 Cd127 2.297 . S
O130 C132 1.247 . S
O131 Cd127 2.439 . S
O131 C132 1.208 . S
C132 O130 1.247 . S
C132 O131 1.208 . S
C133 O138 1.247 . S
C133 O139 1.208 . S
C134 O126 1.315 . S
C134 O129 1.279 . S
C135 O136 1.315 . S
C135 O137 1.279 . S
O136 Cd128 2.223 . S
O136 C135 1.315 . S
O137 Cd127 2.240 . S
O137 C135 1.279 . S
O138 Cd128 2.297 . S
O138 C133 1.247 . S
O139 Cd128 2.439 . S
O139 C133 1.208 . S
O140 Cd141 2.223 . S
O140 C148 1.315 . S
Cd141 O140 2.223 . S
Cd141 O144 2.297 . S
Cd141 O145 2.439 . S
Cd141 O151 2.240 . S
Cd142 O143 2.240 . S
Cd142 O150 2.223 . S
Cd142 O152 2.297 . S
Cd142 O153 2.439 . S
O143 Cd142 2.240 . S
O143 C148 1.279 . S
O144 Cd141 2.297 . S
O144 C146 1.247 . S
O145 Cd141 2.439 . S
O145 C146 1.208 . S
C146 O144 1.247 . S
C146 O145 1.208 . S
C147 O152 1.247 . S
C147 O153 1.208 . S
C148 O140 1.315 . S
C148 O143 1.279 . S
C149 O150 1.315 . S
C149 O151 1.279 . S
O150 Cd142 2.223 . S
O150 C149 1.315 . S
O151 Cd141 2.240 . S
O151 C149 1.279 . S
O152 Cd142 2.297 . S
O152 C147 1.247 . S
O153 Cd142 2.439 . S
O153 C147 1.208 . S
O154 Cd155 2.223 . S
O154 C162 1.315 . S
Cd155 O154 2.223 . S
Cd155 O158 2.297 . S
Cd155 O159 2.439 . S
Cd155 O165 2.240 . S
Cd156 O157 2.240 . S
Cd156 O164 2.223 . S
Cd156 O166 2.297 . S
Cd156 O167 2.439 . S
O157 Cd156 2.240 . S
O157 C162 1.279 . S
O158 Cd155 2.297 . S
O158 C160 1.247 . S
O159 Cd155 2.439 . S
O159 C160 1.208 . S
C160 O158 1.247 . S
C160 O159 1.208 . S
C161 O166 1.247 . S
C161 O167 1.208 . S
C162 O154 1.315 . S
C162 O157 1.279 . S
C163 O164 1.315 . S
C163 O165 1.279 . S
O164 Cd156 2.223 . S
O164 C163 1.315 . S
O165 Cd155 2.240 . S
O165 C163 1.279 . S
O166 Cd156 2.297 . S
O166 C161 1.247 . S
O167 Cd156 2.439 . S
O167 C161 1.208 . S
O168 Cd169 2.223 . S
O168 C176 1.315 . S
Cd169 O168 2.223 . S
Cd169 O172 2.297 . S
Cd169 O173 2.439 . S
Cd169 O179 2.240 . S
Cd170 O171 2.240 . S
Cd170 O178 2.223 . S
Cd170 O180 2.297 . S
Cd170 O181 2.439 . S
O171 Cd170 2.240 . S
O171 C176 1.279 . S
O172 Cd169 2.297 . S
O172 C174 1.247 . S
O173 Cd169 2.439 . S
O173 C174 1.208 . S
C174 O172 1.247 . S
C174 O173 1.208 . S
C175 O180 1.247 . S
C175 O181 1.208 . S
C176 O168 1.315 . S
C176 O171 1.279 . S
C177 O178 1.315 . S
C177 O179 1.279 . S
O178 Cd170 2.223 . S
O178 C177 1.315 . S
O179 Cd169 2.240 . S
O179 C177 1.279 . S
O180 Cd170 2.297 . S
O180 C175 1.247 . S
O181 Cd170 2.439 . S
O181 C175 1.208 . S
O182 Cd183 2.223 . S
O182 C190 1.315 . S
Cd183 O182 2.223 . S
Cd183 O186 2.297 . S
Cd183 O187 2.439 . S
Cd183 O193 2.240 . S
Cd184 O185 2.240 . S
Cd184 O192 2.223 . S
Cd184 O194 2.297 . S
Cd184 O195 2.439 . S
O185 Cd184 2.240 . S
O185 C190 1.279 . S
O186 Cd183 2.297 . S
O186 C188 1.247 . S
O187 Cd183 2.439 . S
O187 C188 1.208 . S
C188 O186 1.247 . S
C188 O187 1.208 . S
C189 O194 1.247 . S
C189 O195 1.208 . S
C190 O182 1.315 . S
C190 O185 1.279 . S
C191 O192 1.315 . S
C191 O193 1.279 . S
O192 Cd184 2.223 . S
O192 C191 1.315 . S
O193 Cd183 2.240 . S
O193 C191 1.279 . S
O194 Cd184 2.297 . S
O194 C189 1.247 . S
O195 Cd184 2.439 . S
O195 C189 1.208 . S
O196 Cd197 2.223 . S
O196 C204 1.315 . S
Cd197 O196 2.223 . S
Cd197 O200 2.297 . S
Cd197 O201 2.439 . S
Cd197 O207 2.240 . S
Cd198 O199 2.240 . S
Cd198 O206 2.223 . S
Cd198 O208 2.297 . S
Cd198 O209 2.439 . S
O199 Cd198 2.240 . S
O199 C204 1.279 . S
O200 Cd197 2.297 . S
O200 C202 1.247 . S
O201 Cd197 2.439 . S
O201 C202 1.208 . S
C202 O200 1.247 . S
C202 O201 1.208 . S
C203 O208 1.247 . S
C203 O209 1.208 . S
C204 O196 1.315 . S
C204 O199 1.279 . S
C205 O206 1.315 . S
C205 O207 1.279 . S
O206 Cd198 2.223 . S
O206 C205 1.315 . S
O207 Cd197 2.240 . S
O207 C205 1.279 . S
O208 Cd198 2.297 . S
O208 C203 1.247 . S
O209 Cd198 2.439 . S
O209 C203 1.208 . S
O210 Cd211 2.223 . S
O210 C218 1.315 . S
Cd211 O210 2.223 . S
Cd211 O214 2.297 . S
Cd211 O215 2.439 . S
Cd211 O221 2.240 . S
Cd212 O213 2.240 . S
Cd212 O220 2.223 . S
Cd212 O222 2.297 . S
Cd212 O223 2.439 . S
O213 Cd212 2.240 . S
O213 C218 1.279 . S
O214 Cd211 2.297 . S
O214 C216 1.247 . S
O215 Cd211 2.439 . S
O215 C216 1.208 . S
C216 O214 1.247 . S
C216 O215 1.208 . S
C217 O222 1.247 . S
C217 O223 1.208 . S
C218 O210 1.315 . S
C218 O213 1.279 . S
C219 O220 1.315 . S
C219 O221 1.279 . S
O220 Cd212 2.223 . S
O220 C219 1.315 . S
O221 Cd211 2.240 . S
O221 C219 1.279 . S
O222 Cd212 2.297 . S
O222 C217 1.247 . S
O223 Cd212 2.439 . S
O223 C217 1.208 . S
O224 Cd225 2.223 . S
O224 C232 1.315 . S
Cd225 O224 2.223 . S
Cd225 O228 2.297 . S
Cd225 O229 2.439 . S
Cd225 O235 2.240 . S
Cd226 O227 2.240 . S
Cd226 O234 2.223 . S
Cd226 O236 2.297 . S
Cd226 O237 2.439 . S
O227 Cd226 2.240 . S
O227 C232 1.279 . S
O228 Cd225 2.297 . S
O228 C230 1.247 . S
O229 Cd225 2.439 . S
O229 C230 1.208 . S
C230 O228 1.247 . S
C230 O229 1.208 . S
C231 O236 1.247 . S
C231 O237 1.208 . S
C232 O224 1.315 . S
C232 O227 1.279 . S
C233 O234 1.315 . S
C233 O235 1.279 . S
O234 Cd226 2.223 . S
O234 C233 1.315 . S
O235 Cd225 2.240 . S
O235 C233 1.279 . S
O236 Cd226 2.297 . S
O236 C231 1.247 . S
O237 Cd226 2.439 . S
O237 C231 1.208 . S
O238 Cd239 2.223 . S
O238 C246 1.315 . S
Cd239 O238 2.223 . S
Cd239 O242 2.297 . S
Cd239 O243 2.439 . S
Cd239 O249 2.240 . S
Cd240 O241 2.240 . S
Cd240 O248 2.223 . S
Cd240 O250 2.297 . S
Cd240 O251 2.439 . S
O241 Cd240 2.240 . S
O241 C246 1.279 . S
O242 Cd239 2.297 . S
O242 C244 1.247 . S
O243 Cd239 2.439 . S
O243 C244 1.208 . S
C244 O242 1.247 . S
C244 O243 1.208 . S
C245 O250 1.247 . S
C245 O251 1.208 . S
C246 O238 1.315 . S
C246 O241 1.279 . S
C247 O248 1.315 . S
C247 O249 1.279 . S
O248 Cd240 2.223 . S
O248 C247 1.315 . S
O249 Cd239 2.240 . S
O249 C247 1.279 . S
O250 Cd240 2.297 . S
O250 C245 1.247 . S
O251 Cd240 2.439 . S
O251 C245 1.208 . S
O252 Cd253 2.223 . S
O252 C260 1.315 . S
Cd253 O252 2.223 . S
Cd253 O256 2.297 . S
Cd253 O257 2.439 . S
Cd253 O263 2.240 . S
Cd254 O255 2.240 . S
Cd254 O262 2.223 . S
Cd254 O264 2.297 . S
Cd254 O265 2.439 . S
O255 Cd254 2.240 . S
O255 C260 1.279 . S
O256 Cd253 2.297 . S
O256 C258 1.247 . S
O257 Cd253 2.439 . S
O257 C258 1.208 . S
C258 O256 1.247 . S
C258 O257 1.208 . S
C259 O264 1.247 . S
C259 O265 1.208 . S
C260 O252 1.315 . S
C260 O255 1.279 . S
C261 O262 1.315 . S
C261 O263 1.279 . S
O262 Cd254 2.223 . S
O262 C261 1.315 . S
O263 Cd253 2.240 . S
O263 C261 1.279 . S
O264 Cd254 2.297 . S
O264 C259 1.247 . S
O265 Cd254 2.439 . S
O265 C259 1.208 . S
O266 Cd267 2.223 . S
O266 C274 1.315 . S
Cd267 O266 2.223 . S
Cd267 O270 2.297 . S
Cd267 O271 2.439 . S
Cd267 O277 2.240 . S
Cd268 O269 2.240 . S
Cd268 O276 2.223 . S
Cd268 O278 2.297 . S
Cd268 O279 2.439 . S
O269 Cd268 2.240 . S
O269 C274 1.279 . S
O270 Cd267 2.297 . S
O270 C272 1.247 . S
O271 Cd267 2.439 . S
O271 C272 1.208 . S
C272 O270 1.247 . S
C272 O271 1.208 . S
C273 O278 1.247 . S
C273 O279 1.208 . S
C274 O266 1.315 . S
C274 O269 1.279 . S
C275 O276 1.315 . S
C275 O277 1.279 . S
O276 Cd268 2.223 . S
O276 C275 1.315 . S
O277 Cd267 2.240 . S
O277 C275 1.279 . S
O278 Cd268 2.297 . S
O278 C273 1.247 . S
O279 Cd268 2.439 . S
O279 C273 1.208 . S
O280 Cd281 2.223 . S
O280 C288 1.315 . S
Cd281 O280 2.223 . S
Cd281 O284 2.297 . S
Cd281 O285 2.439 . S
Cd281 O291 2.240 . S
Cd282 O283 2.240 . S
Cd282 O290 2.223 . S
Cd282 O292 2.297 . S
Cd282 O293 2.439 . S
O283 Cd282 2.240 . S
O283 C288 1.279 . S
O284 Cd281 2.297 . S
O284 C286 1.247 . S
O285 Cd281 2.439 . S
O285 C286 1.208 . S
C286 O284 1.247 . S
C286 O285 1.208 . S
C287 O292 1.247 . S
C287 O293 1.208 . S
C288 O280 1.315 . S
C288 O283 1.279 . S
C289 O290 1.315 . S
C289 O291 1.279 . S
O290 Cd282 2.223 . S
O290 C289 1.315 . S
O291 Cd281 2.240 . S
O291 C289 1.279 . S
O292 Cd282 2.297 . S
O292 C287 1.247 . S
O293 Cd282 2.439 . S
O293 C287 1.208 . S
O294 Cd295 2.223 . S
O294 C302 1.315 . S
Cd295 O294 2.223 . S
Cd295 O298 2.297 . S
Cd295 O299 2.439 . S
Cd295 O305 2.240 . S
Cd296 O297 2.240 . S
Cd296 O304 2.223 . S
Cd296 O306 2.297 . S
Cd296 O307 2.439 . S
O297 Cd296 2.240 . S
O297 C302 1.279 . S
O298 Cd295 2.297 . S
O298 C300 1.247 . S
O299 Cd295 2.439 . S
O299 C300 1.208 . S
C300 O298 1.247 . S
C300 O299 1.208 . S
C301 O306 1.247 . S
C301 O307 1.208 . S
C302 O294 1.315 . S
C302 O297 1.279 . S
C303 O304 1.315 . S
C303 O305 1.279 . S
O304 Cd296 2.223 . S
O304 C303 1.315 . S
O305 Cd295 2.240 . S
O305 C303 1.279 . S
O306 Cd296 2.297 . S
O306 C301 1.247 . S
O307 Cd296 2.439 . S
O307 C301 1.208 . S
O308 Cd309 2.223 . S
O308 C316 1.315 . S
Cd309 O308 2.223 . S
Cd309 O312 2.297 . S
Cd309 O313 2.439 . S
Cd309 O319 2.240 . S
Cd310 O311 2.240 . S
Cd310 O318 2.223 . S
Cd310 O320 2.297 . S
Cd310 O321 2.439 . S
O311 Cd310 2.240 . S
O311 C316 1.279 . S
O312 Cd309 2.297 . S
O312 C314 1.247 . S
O313 Cd309 2.439 . S
O313 C314 1.208 . S
C314 O312 1.247 . S
C314 O313 1.208 . S
C315 O320 1.247 . S
C315 O321 1.208 . S
C316 O308 1.315 . S
C316 O311 1.279 . S
C317 O318 1.315 . S
C317 O319 1.279 . S
O318 Cd310 2.223 . S
O318 C317 1.315 . S
O319 Cd309 2.240 . S
O319 C317 1.279 . S
O320 Cd310 2.297 . S
O320 C315 1.247 . S
O321 Cd310 2.439 . S
O321 C315 1.208 . S
O322 Cd323 2.223 . S
O322 C330 1.315 . S
Cd323 O322 2.223 . S
Cd323 O326 2.297 . S
Cd323 O327 2.439 . S
Cd323 O333 2.240 . S
Cd324 O325 2.240 . S
Cd324 O332 2.223 . S
Cd324 O334 2.297 . S
Cd324 O335 2.439 . S
O325 Cd324 2.240 . S
O325 C330 1.279 . S
O326 Cd323 2.297 . S
O326 C328 1.247 . S
O327 Cd323 2.439 . S
O327 C328 1.208 . S
C328 O326 1.247 . S
C328 O327 1.208 . S
C329 O334 1.247 . S
C329 O335 1.208 . S
C330 O322 1.315 . S
C330 O325 1.279 . S
C331 O332 1.315 . S
C331 O333 1.279 . S
O332 Cd324 2.223 . S
O332 C331 1.315 . S
O333 Cd323 2.240 . S
O333 C331 1.279 . S
O334 Cd324 2.297 . S
O334 C329 1.247 . S
O335 Cd324 2.439 . S
O335 C329 1.208 . S
O336 Cd337 2.223 . S
O336 C344 1.315 . S
Cd337 O336 2.223 . S
Cd337 O340 2.297 . S
Cd337 O341 2.439 . S
Cd337 O347 2.240 . S
Cd338 O339 2.240 . S
Cd338 O346 2.223 . S
Cd338 O348 2.297 . S
Cd338 O349 2.439 . S
O339 Cd338 2.240 . S
O339 C344 1.279 . S
O340 Cd337 2.297 . S
O340 C342 1.247 . S
O341 Cd337 2.439 . S
O341 C342 1.208 . S
C342 O340 1.247 . S
C342 O341 1.208 . S
C343 O348 1.247 . S
C343 O349 1.208 . S
C344 O336 1.315 . S
C344 O339 1.279 . S
C345 O346 1.315 . S
C345 O347 1.279 . S
O346 Cd338 2.223 . S
O346 C345 1.315 . S
O347 Cd337 2.240 . S
O347 C345 1.279 . S
O348 Cd338 2.297 . S
O348 C343 1.247 . S
O349 Cd338 2.439 . S
O349 C343 1.208 . S
O350 Cd351 2.223 . S
O350 C358 1.315 . S
Cd351 O350 2.223 . S
Cd351 O354 2.297 . S
Cd351 O355 2.439 . S
Cd351 O361 2.240 . S
Cd352 O353 2.240 . S
Cd352 O360 2.223 . S
Cd352 O362 2.297 . S
Cd352 O363 2.439 . S
O353 Cd352 2.240 . S
O353 C358 1.279 . S
O354 Cd351 2.297 . S
O354 C356 1.247 . S
O355 Cd351 2.439 . S
O355 C356 1.208 . S
C356 O354 1.247 . S
C356 O355 1.208 . S
C357 O362 1.247 . S
C357 O363 1.208 . S
C358 O350 1.315 . S
C358 O353 1.279 . S
C359 O360 1.315 . S
C359 O361 1.279 . S
O360 Cd352 2.223 . S
O360 C359 1.315 . S
O361 Cd351 2.240 . S
O361 C359 1.279 . S
O362 Cd352 2.297 . S
O362 C357 1.247 . S
O363 Cd352 2.439 . S
O363 C357 1.208 . S
O364 Cd365 2.223 . S
O364 C372 1.315 . S
Cd365 O364 2.223 . S
Cd365 O368 2.297 . S
Cd365 O369 2.439 . S
Cd365 O375 2.240 . S
Cd366 O367 2.240 . S
Cd366 O374 2.223 . S
Cd366 O376 2.297 . S
Cd366 O377 2.439 . S
O367 Cd366 2.240 . S
O367 C372 1.279 . S
O368 Cd365 2.297 . S
O368 C370 1.247 . S
O369 Cd365 2.439 . S
O369 C370 1.208 . S
C370 O368 1.247 . S
C370 O369 1.208 . S
C371 O376 1.247 . S
C371 O377 1.208 . S
C372 O364 1.315 . S
C372 O367 1.279 . S
C373 O374 1.315 . S
C373 O375 1.279 . S
O374 Cd366 2.223 . S
O374 C373 1.315 . S
O375 Cd365 2.240 . S
O375 C373 1.279 . S
O376 Cd366 2.297 . S
O376 C371 1.247 . S
O377 Cd366 2.439 . S
O377 C371 1.208 . S
O378 Cd379 2.223 . S
O378 C386 1.315 . S
Cd379 O378 2.223 . S
Cd379 O382 2.297 . S
Cd379 O383 2.439 . S
Cd379 O389 2.240 . S
Cd380 O381 2.240 . S
Cd380 O388 2.223 . S
Cd380 O390 2.297 . S
Cd380 O391 2.439 . S
O381 Cd380 2.240 . S
O381 C386 1.279 . S
O382 Cd379 2.297 . S
O382 C384 1.247 . S
O383 Cd379 2.439 . S
O383 C384 1.208 . S
C384 O382 1.247 . S
C384 O383 1.208 . S
C385 O390 1.247 . S
C385 O391 1.208 . S
C386 O378 1.315 . S
C386 O381 1.279 . S
C387 O388 1.315 . S
C387 O389 1.279 . S
O388 Cd380 2.223 . S
O388 C387 1.315 . S
O389 Cd379 2.240 . S
O389 C387 1.279 . S
O390 Cd380 2.297 . S
O390 C385 1.247 . S
O391 Cd380 2.439 . S
O391 C385 1.208 . S
O392 Cd393 2.223 . S
O392 C400 1.315 . S
Cd393 O392 2.223 . S
Cd393 O396 2.297 . S
Cd393 O397 2.439 . S
Cd393 O403 2.240 . S
Cd394 O395 2.240 . S
Cd394 O402 2.223 . S
Cd394 O404 2.297 . S
Cd394 O405 2.439 . S
O395 Cd394 2.240 . S
O395 C400 1.279 . S
O396 Cd393 2.297 . S
O396 C398 1.247 . S
O397 Cd393 2.439 . S
O397 C398 1.208 . S
C398 O396 1.247 . S
C398 O397 1.208 . S
C399 O404 1.247 . S
C399 O405 1.208 . S
C400 O392 1.315 . S
C400 O395 1.279 . S
C401 O402 1.315 . S
C401 O403 1.279 . S
O402 Cd394 2.223 . S
O402 C401 1.315 . S
O403 Cd393 2.240 . S
O403 C401 1.279 . S
O404 Cd394 2.297 . S
O404 C399 1.247 . S
O405 Cd394 2.439 . S
O405 C399 1.208 . S
O406 Cd407 2.223 . S
O406 C414 1.315 . S
Cd407 O406 2.223 . S
Cd407 O410 2.297 . S
Cd407 O411 2.439 . S
Cd407 O417 2.240 . S
Cd408 O409 2.240 . S
Cd408 O416 2.223 . S
Cd408 O418 2.297 . S
Cd408 O419 2.439 . S
O409 Cd408 2.240 . S
O409 C414 1.279 . S
O410 Cd407 2.297 . S
O410 C412 1.247 . S
O411 Cd407 2.439 . S
O411 C412 1.208 . S
C412 O410 1.247 . S
C412 O411 1.208 . S
C413 O418 1.247 . S
C413 O419 1.208 . S
C414 O406 1.315 . S
C414 O409 1.279 . S
C415 O416 1.315 . S
C415 O417 1.279 . S
O416 Cd408 2.223 . S
O416 C415 1.315 . S
O417 Cd407 2.240 . S
O417 C415 1.279 . S
O418 Cd408 2.297 . S
O418 C413 1.247 . S
O419 Cd408 2.439 . S
O419 C413 1.208 . S
O420 Cd421 2.223 . S
O420 C428 1.315 . S
Cd421 O420 2.223 . S
Cd421 O424 2.297 . S
Cd421 O425 2.439 . S
Cd421 O431 2.240 . S
Cd422 O423 2.240 . S
Cd422 O430 2.223 . S
Cd422 O432 2.297 . S
Cd422 O433 2.439 . S
O423 Cd422 2.240 . S
O423 C428 1.279 . S
O424 Cd421 2.297 . S
O424 C426 1.247 . S
O425 Cd421 2.439 . S
O425 C426 1.208 . S
C426 O424 1.247 . S
C426 O425 1.208 . S
C427 O432 1.247 . S
C427 O433 1.208 . S
C428 O420 1.315 . S
C428 O423 1.279 . S
C429 O430 1.315 . S
C429 O431 1.279 . S
O430 Cd422 2.223 . S
O430 C429 1.315 . S
O431 Cd421 2.240 . S
O431 C429 1.279 . S
O432 Cd422 2.297 . S
O432 C427 1.247 . S
O433 Cd422 2.439 . S
O433 C427 1.208 . S
O434 Cd435 2.223 . S
O434 C442 1.315 . S
Cd435 O434 2.223 . S
Cd435 O438 2.297 . S
Cd435 O439 2.439 . S
Cd435 O445 2.240 . S
Cd436 O437 2.240 . S
Cd436 O444 2.223 . S
Cd436 O446 2.297 . S
Cd436 O447 2.439 . S
O437 Cd436 2.240 . S
O437 C442 1.279 . S
O438 Cd435 2.297 . S
O438 C440 1.247 . S
O439 Cd435 2.439 . S
O439 C440 1.208 . S
C440 O438 1.247 . S
C440 O439 1.208 . S
C441 O446 1.247 . S
C441 O447 1.208 . S
C442 O434 1.315 . S
C442 O437 1.279 . S
C443 O444 1.315 . S
C443 O445 1.279 . S
O444 Cd436 2.223 . S
O444 C443 1.315 . S
O445 Cd435 2.240 . S
O445 C443 1.279 . S
O446 Cd436 2.297 . S
O446 C441 1.247 . S
O447 Cd436 2.439 . S
O447 C441 1.208 . S
O448 Cd449 2.223 . S
O448 C456 1.315 . S
Cd449 O448 2.223 . S
Cd449 O452 2.297 . S
Cd449 O453 2.439 . S
Cd449 O459 2.240 . S
Cd450 O451 2.240 . S
Cd450 O458 2.223 . S
Cd450 O460 2.297 . S
Cd450 O461 2.439 . S
O451 Cd450 2.240 . S
O451 C456 1.279 . S
O452 Cd449 2.297 . S
O452 C454 1.247 . S
O453 Cd449 2.439 . S
O453 C454 1.208 . S
C454 O452 1.247 . S
C454 O453 1.208 . S
C455 O460 1.247 . S
C455 O461 1.208 . S
C456 O448 1.315 . S
C456 O451 1.279 . S
C457 O458 1.315 . S
C457 O459 1.279 . S
O458 Cd450 2.223 . S
O458 C457 1.315 . S
O459 Cd449 2.240 . S
O459 C457 1.279 . S
O460 Cd450 2.297 . S
O460 C455 1.247 . S
O461 Cd450 2.439 . S
O461 C455 1.208 . S
O462 Cd463 2.223 . S
O462 C470 1.315 . S
Cd463 O462 2.223 . S
Cd463 O466 2.297 . S
Cd463 O467 2.439 . S
Cd463 O473 2.240 . S
Cd464 O465 2.240 . S
Cd464 O472 2.223 . S
Cd464 O474 2.297 . S
Cd464 O475 2.439 . S
O465 Cd464 2.240 . S
O465 C470 1.279 . S
O466 Cd463 2.297 . S
O466 C468 1.247 . S
O467 Cd463 2.439 . S
O467 C468 1.208 . S
C468 O466 1.247 . S
C468 O467 1.208 . S
C469 O474 1.247 . S
C469 O475 1.208 . S
C470 O462 1.315 . S
C470 O465 1.279 . S
C471 O472 1.315 . S
C471 O473 1.279 . S
O472 Cd464 2.223 . S
O472 C471 1.315 . S
O473 Cd463 2.240 . S
O473 C471 1.279 . S
O474 Cd464 2.297 . S
O474 C469 1.247 . S
O475 Cd464 2.439 . S
O475 C469 1.208 . S
O476 Cd477 2.223 . S
O476 C484 1.315 . S
Cd477 O476 2.223 . S
Cd477 O480 2.297 . S
Cd477 O481 2.439 . S
Cd477 O487 2.240 . S
Cd478 O479 2.240 . S
Cd478 O486 2.223 . S
Cd478 O488 2.297 . S
Cd478 O489 2.439 . S
O479 Cd478 2.240 . S
O479 C484 1.279 . S
O480 Cd477 2.297 . S
O480 C482 1.247 . S
O481 Cd477 2.439 . S
O481 C482 1.208 . S
C482 O480 1.247 . S
C482 O481 1.208 . S
C483 O488 1.247 . S
C483 O489 1.208 . S
C484 O476 1.315 . S
C484 O479 1.279 . S
C485 O486 1.315 . S
C485 O487 1.279 . S
O486 Cd478 2.223 . S
O486 C485 1.315 . S
O487 Cd477 2.240 . S
O487 C485 1.279 . S
O488 Cd478 2.297 . S
O488 C483 1.247 . S
O489 Cd478 2.439 . S
O489 C483 1.208 . S
O490 Cd491 2.223 . S
O490 C498 1.315 . S
Cd491 O490 2.223 . S
Cd491 O494 2.297 . S
Cd491 O495 2.439 . S
Cd491 O501 2.240 . S
Cd492 O493 2.240 . S
Cd492 O500 2.223 . S
Cd492 O502 2.297 . S
Cd492 O503 2.439 . S
O493 Cd492 2.240 . S
O493 C498 1.279 . S
O494 Cd491 2.297 . S
O494 C496 1.247 . S
O495 Cd491 2.439 . S
O495 C496 1.208 . S
C496 O494 1.247 . S
C496 O495 1.208 . S
C497 O502 1.247 . S
C497 O503 1.208 . S
C498 O490 1.315 . S
C498 O493 1.279 . S
C499 O500 1.315 . S
C499 O501 1.279 . S
O500 Cd492 2.223 . S
O500 C499 1.315 . S
O501 Cd491 2.240 . S
O501 C499 1.279 . S
O502 Cd492 2.297 . S
O502 C497 1.247 . S
O503 Cd492 2.439 . S
O503 C497 1.208 . S
O504 Cd505 2.223 . S
O504 C512 1.315 . S
Cd505 O504 2.223 . S
Cd505 O508 2.297 . S
Cd505 O509 2.439 . S
Cd505 O515 2.240 . S
Cd506 O507 2.240 . S
Cd506 O514 2.223 . S
Cd506 O516 2.297 . S
Cd506 O517 2.439 . S
O507 Cd506 2.240 . S
O507 C512 1.279 . S
O508 Cd505 2.297 . S
O508 C510 1.247 . S
O509 Cd505 2.439 . S
O509 C510 1.208 . S
C510 O508 1.247 . S
C510 O509 1.208 . S
C511 O516 1.247 . S
C511 O517 1.208 . S
C512 O504 1.315 . S
C512 O507 1.279 . S
C513 O514 1.315 . S
C513 O515 1.279 . S
O514 Cd506 2.223 . S
O514 C513 1.315 . S
O515 Cd505 2.240 . S
O515 C513 1.279 . S
O516 Cd506 2.297 . S
O516 C511 1.247 . S
O517 Cd506 2.439 . S
O517 C511 1.208 . S
O518 Cd519 2.223 . S
O518 C526 1.315 . S
Cd519 O518 2.223 . S
Cd519 O522 2.297 . S
Cd519 O523 2.439 . S
Cd519 O529 2.240 . S
Cd520 O521 2.240 . S
Cd520 O528 2.223 . S
Cd520 O530 2.297 . S
Cd520 O531 2.439 . S
O521 Cd520 2.240 . S
O521 C526 1.279 . S
O522 Cd519 2.297 . S
O522 C524 1.247 . S
O523 Cd519 2.439 . S
O523 C524 1.208 . S
C524 O522 1.247 . S
C524 O523 1.208 . S
C525 O530 1.247 . S
C525 O531 1.208 . S
C526 O518 1.315 . S
C526 O521 1.279 . S
C527 O528 1.315 . S
C527 O529 1.279 . S
O528 Cd520 2.223 . S
O528 C527 1.315 . S
O529 Cd519 2.240 . S
O529 C527 1.279 . S
O530 Cd520 2.297 . S
O530 C525 1.247 . S
O531 Cd520 2.439 . S
O531 C525 1.208 . S
O532 Cd533 2.223 . S
O532 C540 1.315 . S
Cd533 O532 2.223 . S
Cd533 O536 2.297 . S
Cd533 O537 2.439 . S
Cd533 O543 2.240 . S
Cd534 O535 2.240 . S
Cd534 O542 2.223 . S
Cd534 O544 2.297 . S
Cd534 O545 2.439 . S
O535 Cd534 2.240 . S
O535 C540 1.279 . S
O536 Cd533 2.297 . S
O536 C538 1.247 . S
O537 Cd533 2.439 . S
O537 C538 1.208 . S
C538 O536 1.247 . S
C538 O537 1.208 . S
C539 O544 1.247 . S
C539 O545 1.208 . S
C540 O532 1.315 . S
C540 O535 1.279 . S
C541 O542 1.315 . S
C541 O543 1.279 . S
O542 Cd534 2.223 . S
O542 C541 1.315 . S
O543 Cd533 2.240 . S
O543 C541 1.279 . S
O544 Cd534 2.297 . S
O544 C539 1.247 . S
O545 Cd534 2.439 . S
O545 C539 1.208 . S
O546 Cd547 2.223 . S
O546 C554 1.315 . S
Cd547 O546 2.223 . S
Cd547 O550 2.297 . S
Cd547 O551 2.439 . S
Cd547 O557 2.240 . S
Cd548 O549 2.240 . S
Cd548 O556 2.223 . S
Cd548 O558 2.297 . S
Cd548 O559 2.439 . S
O549 Cd548 2.240 . S
O549 C554 1.279 . S
O550 Cd547 2.297 . S
O550 C552 1.247 . S
O551 Cd547 2.439 . S
O551 C552 1.208 . S
C552 O550 1.247 . S
C552 O551 1.208 . S
C553 O558 1.247 . S
C553 O559 1.208 . S
C554 O546 1.315 . S
C554 O549 1.279 . S
C555 O556 1.315 . S
C555 O557 1.279 . S
O556 Cd548 2.223 . S
O556 C555 1.315 . S
O557 Cd547 2.240 . S
O557 C555 1.279 . S
O558 Cd548 2.297 . S
O558 C553 1.247 . S
O559 Cd548 2.439 . S
O559 C553 1.208 . S
O560 Cd561 2.223 . S
O560 C568 1.315 . S
Cd561 O560 2.223 . S
Cd561 O564 2.297 . S
Cd561 O565 2.439 . S
Cd561 O571 2.240 . S
Cd562 O563 2.240 . S
Cd562 O570 2.223 . S
Cd562 O572 2.297 . S
Cd562 O573 2.439 . S
O563 Cd562 2.240 . S
O563 C568 1.279 . S
O564 Cd561 2.297 . S
O564 C566 1.247 . S
O565 Cd561 2.439 . S
O565 C566 1.208 . S
C566 O564 1.247 . S
C566 O565 1.208 . S
C567 O572 1.247 . S
C567 O573 1.208 . S
C568 O560 1.315 . S
C568 O563 1.279 . S
C569 O570 1.315 . S
C569 O571 1.279 . S
O570 Cd562 2.223 . S
O570 C569 1.315 . S
O571 Cd561 2.240 . S
O571 C569 1.279 . S
O572 Cd562 2.297 . S
O572 C567 1.247 . S
O573 Cd562 2.439 . S
O573 C567 1.208 . S
O574 Cd575 2.223 . S
O574 C582 1.315 . S
Cd575 O574 2.223 . S
Cd575 O578 2.297 . S
Cd575 O579 2.439 . S
Cd575 O585 2.240 . S
Cd576 O577 2.240 . S
Cd576 O584 2.223 . S
Cd576 O586 2.297 . S
Cd576 O587 2.439 . S
O577 Cd576 2.240 . S
O577 C582 1.279 . S
O578 Cd575 2.297 . S
O578 C580 1.247 . S
O579 Cd575 2.439 . S
O579 C580 1.208 . S
C580 O578 1.247 . S
C580 O579 1.208 . S
C581 O586 1.247 . S
C581 O587 1.208 . S
C582 O574 1.315 . S
C582 O577 1.279 . S
C583 O584 1.315 . S
C583 O585 1.279 . S
O584 Cd576 2.223 . S
O584 C583 1.315 . S
O585 Cd575 2.240 . S
O585 C583 1.279 . S
O586 Cd576 2.297 . S
O586 C581 1.247 . S
O587 Cd576 2.439 . S
O587 C581 1.208 . S
O588 Cd589 2.223 . S
O588 C596 1.315 . S
Cd589 O588 2.223 . S
Cd589 O592 2.297 . S
Cd589 O593 2.439 . S
Cd589 O599 2.240 . S
Cd590 O591 2.240 . S
Cd590 O598 2.223 . S
Cd590 O600 2.297 . S
Cd590 O601 2.439 . S
O591 Cd590 2.240 . S
O591 C596 1.279 . S
O592 Cd589 2.297 . S
O592 C594 1.247 . S
O593 Cd589 2.439 . S
O593 C594 1.208 . S
C594 O592 1.247 . S
C594 O593 1.208 . S
C595 O600 1.247 . S
C595 O601 1.208 . S
C596 O588 1.315 . S
C596 O591 1.279 . S
C597 O598 1.315 . S
C597 O599 1.279 . S
O598 Cd590 2.223 . S
O598 C597 1.315 . S
O599 Cd589 2.240 . S
O599 C597 1.279 . S
O600 Cd590 2.297 . S
O600 C595 1.247 . S
O601 Cd590 2.439 . S
O601 C595 1.208 . S
O602 Cd603 2.223 . S
O602 C610 1.315 . S
Cd603 O602 2.223 . S
Cd603 O606 2.297 . S
Cd603 O607 2.439 . S
Cd603 O613 2.240 . S
Cd604 O605 2.240 . S
Cd604 O612 2.223 . S
Cd604 O614 2.297 . S
Cd604 O615 2.439 . S
O605 Cd604 2.240 . S
O605 C610 1.279 . S
O606 Cd603 2.297 . S
O606 C608 1.247 . S
O607 Cd603 2.439 . S
O607 C608 1.208 . S
C608 O606 1.247 . S
C608 O607 1.208 . S
C609 O614 1.247 . S
C609 O615 1.208 . S
C610 O602 1.315 . S
C610 O605 1.279 . S
C611 O612 1.315 . S
C611 O613 1.279 . S
O612 Cd604 2.223 . S
O612 C611 1.315 . S
O613 Cd603 2.240 . S
O613 C611 1.279 . S
O614 Cd604 2.297 . S
O614 C609 1.247 . S
O615 Cd604 2.439 . S
O615 C609 1.208 . S
O616 Cd617 2.223 . S
O616 C624 1.315 . S
Cd617 O616 2.223 . S
Cd617 O620 2.297 . S
Cd617 O621 2.439 . S
Cd617 O627 2.240 . S
Cd618 O619 2.240 . S
Cd618 O626 2.223 . S
Cd618 O628 2.297 . S
Cd618 O629 2.439 . S
O619 Cd618 2.240 . S
O619 C624 1.279 . S
O620 Cd617 2.297 . S
O620 C622 1.247 . S
O621 Cd617 2.439 . S
O621 C622 1.208 . S
C622 O620 1.247 . S
C622 O621 1.208 . S
C623 O628 1.247 . S
C623 O629 1.208 . S
C624 O616 1.315 . S
C624 O619 1.279 . S
C625 O626 1.315 . S
C625 O627 1.279 . S
O626 Cd618 2.223 . S
O626 C625 1.315 . S
O627 Cd617 2.240 . S
O627 C625 1.279 . S
O628 Cd618 2.297 . S
O628 C623 1.247 . S
O629 Cd618 2.439 . S
O629 C623 1.208 . S
O630 Cd631 2.223 . S
O630 C638 1.315 . S
Cd631 O630 2.223 . S
Cd631 O634 2.297 . S
Cd631 O635 2.439 . S
Cd631 O641 2.240 . S
Cd632 O633 2.240 . S
Cd632 O640 2.223 . S
Cd632 O642 2.297 . S
Cd632 O643 2.439 . S
O633 Cd632 2.240 . S
O633 C638 1.279 . S
O634 Cd631 2.297 . S
O634 C636 1.247 . S
O635 Cd631 2.439 . S
O635 C636 1.208 . S
C636 O634 1.247 . S
C636 O635 1.208 . S
C637 O642 1.247 . S
C637 O643 1.208 . S
C638 O630 1.315 . S
C638 O633 1.279 . S
C639 O640 1.315 . S
C639 O641 1.279 . S
O640 Cd632 2.223 . S
O640 C639 1.315 . S
O641 Cd631 2.240 . S
O641 C639 1.279 . S
O642 Cd632 2.297 . S
O642 C637 1.247 . S
O643 Cd632 2.439 . S
O643 C637 1.208 . S
O644 Cd645 2.223 . S
O644 C652 1.315 . S
Cd645 O644 2.223 . S
Cd645 O648 2.297 . S
Cd645 O649 2.439 . S
Cd645 O655 2.240 . S
Cd646 O647 2.240 . S
Cd646 O654 2.223 . S
Cd646 O656 2.297 . S
Cd646 O657 2.439 . S
O647 Cd646 2.240 . S
O647 C652 1.279 . S
O648 Cd645 2.297 . S
O648 C650 1.247 . S
O649 Cd645 2.439 . S
O649 C650 1.208 . S
C650 O648 1.247 . S
C650 O649 1.208 . S
C651 O656 1.247 . S
C651 O657 1.208 . S
C652 O644 1.315 . S
C652 O647 1.279 . S
C653 O654 1.315 . S
C653 O655 1.279 . S
O654 Cd646 2.223 . S
O654 C653 1.315 . S
O655 Cd645 2.240 . S
O655 C653 1.279 . S
O656 Cd646 2.297 . S
O656 C651 1.247 . S
O657 Cd646 2.439 . S
O657 C651 1.208 . S
O658 Cd659 2.223 . S
O658 C666 1.315 . S
Cd659 O658 2.223 . S
Cd659 O662 2.297 . S
Cd659 O663 2.439 . S
Cd659 O669 2.240 . S
Cd660 O661 2.240 . S
Cd660 O668 2.223 . S
Cd660 O670 2.297 . S
Cd660 O671 2.439 . S
O661 Cd660 2.240 . S
O661 C666 1.279 . S
O662 Cd659 2.297 . S
O662 C664 1.247 . S
O663 Cd659 2.439 . S
O663 C664 1.208 . S
C664 O662 1.247 . S
C664 O663 1.208 . S
C665 O670 1.247 . S
C665 O671 1.208 . S
C666 O658 1.315 . S
C666 O661 1.279 . S
C667 O668 1.315 . S
C667 O669 1.279 . S
O668 Cd660 2.223 . S
O668 C667 1.315 . S
O669 Cd659 2.240 . S
O669 C667 1.279 . S
O670 Cd660 2.297 . S
O670 C665 1.247 . S
O671 Cd660 2.439 . S
O671 C665 1.208 . S
C672 C673 1.349 . S
C672 C674 1.327 . S
C672 H697 0.950 . S
C673 C672 1.349 . S
C673 C689 1.349 . S
C674 C672 1.327 . S
C674 C693 1.429 . S
C674 H698 0.950 . S
C675 C692 1.574 . S
C675 C694 1.368 . S
C675 H699 0.949 . S
H676 C680 0.949 . S
C677 C678 1.349 . S
C677 C679 1.327 . S
C677 H700 0.950 . S
C678 C677 1.349 . S
C678 C690 1.349 . S
C679 C677 1.327 . S
C679 C695 1.429 . S
C679 H701 0.950 . S
C680 H676 0.949 . S
C680 C688 1.574 . S
C680 C696 1.368 . S
H681 C689 0.950 . S
H682 C687 0.950 . S
H683 C688 0.949 . S
H684 C690 0.950 . S
H685 C691 0.950 . S
H686 C692 0.949 . S
C687 H682 0.950 . S
C687 C689 1.327 . S
C687 C693 1.429 . S
C688 C680 1.574 . S
C688 H683 0.949 . S
C688 C694 1.368 . S
C689 C673 1.349 . S
C689 H681 0.950 . S
C689 C687 1.327 . S
C690 C678 1.349 . S
C690 H684 0.950 . S
C690 C691 1.327 . S
C691 H685 0.950 . S
C691 C690 1.327 . S
C691 C695 1.429 . S
C692 C675 1.574 . S
C692 H686 0.949 . S
C692 C696 1.368 . S
C693 C674 1.429 . S
C693 C687 1.429 . S
C693 C694 1.523 . S
C694 C675 1.368 . S
C694 C688 1.368 . S
C694 C693 1.523 . S
C695 C679 1.429 . S
C695 C691 1.429 . S
C695 C696 1.523 . S
C696 C680 1.368 . S
C696 C692 1.368 . S
C696 C695 1.523 . S
H697 C672 0.950 . S
H698 C674 0.950 . S
H699 C675 0.949 . S
H700 C677 0.950 . S
H701 C679 0.950 . S
C702 C703 1.349 . S
C702 C704 1.327 . S
C702 H727 0.950 . S
C703 C702 1.349 . S
C703 C719 1.349 . S
C704 C702 1.327 . S
C704 C723 1.429 . S
C704 H728 0.950 . S
C705 C722 1.574 . S
C705 C724 1.368 . S
C705 H729 0.949 . S
H706 C710 0.949 . S
C707 C708 1.349 . S
C707 C709 1.327 . S
C707 H730 0.950 . S
C708 C707 1.349 . S
C708 C720 1.349 . S
C709 C707 1.327 . S
C709 C725 1.429 . S
C709 H731 0.950 . S
C710 H706 0.949 . S
C710 C718 1.574 . S
C710 C726 1.368 . S
H711 C719 0.950 . S
H712 C717 0.950 . S
H713 C718 0.949 . S
H714 C720 0.950 . S
H715 C721 0.950 . S
H716 C722 0.949 . S
C717 H712 0.950 . S
C717 C719 1.327 . S
C717 C723 1.429 . S
C718 C710 1.574 . S
C718 H713 0.949 . S
C718 C724 1.368 . S
C719 C703 1.349 . S
C719 H711 0.950 . S
C719 C717 1.327 . S
C720 C708 1.349 . S
C720 H714 0.950 . S
C720 C721 1.327 . S
C721 H715 0.950 . S
C721 C720 1.327 . S
C721 C725 1.429 . S
C722 C705 1.574 . S
C722 H716 0.949 . S
C722 C726 1.368 . S
C723 C704 1.429 . S
C723 C717 1.429 . S
C723 C724 1.523 . S
C724 C705 1.368 . S
C724 C718 1.368 . S
C724 C723 1.523 . S
C725 C709 1.429 . S
C725 C721 1.429 . S
C725 C726 1.523 . S
C726 C710 1.368 . S
C726 C722 1.368 . S
C726 C725 1.523 . S
H727 C702 0.950 . S
H728 C704 0.950 . S
H729 C705 0.949 . S
H730 C707 0.950 . S
H731 C709 0.950 . S
C732 C733 1.349 . S
C732 C734 1.327 . S
C732 H757 0.950 . S
C733 C732 1.349 . S
C733 C749 1.349 . S
C734 C732 1.327 . S
C734 C753 1.429 . S
C734 H758 0.950 . S
C735 C752 1.574 . S
C735 C754 1.368 . S
C735 H759 0.949 . S
H736 C740 0.949 . S
C737 C738 1.349 . S
C737 C739 1.327 . S
C737 H760 0.950 . S
C738 C737 1.349 . S
C738 C750 1.349 . S
C739 C737 1.327 . S
C739 C755 1.429 . S
C739 H761 0.950 . S
C740 H736 0.949 . S
C740 C748 1.574 . S
C740 C756 1.368 . S
H741 C749 0.950 . S
H742 C747 0.950 . S
H743 C748 0.949 . S
H744 C750 0.950 . S
H745 C751 0.950 . S
H746 C752 0.949 . S
C747 H742 0.950 . S
C747 C749 1.327 . S
C747 C753 1.429 . S
C748 C740 1.574 . S
C748 H743 0.949 . S
C748 C754 1.368 . S
C749 C733 1.349 . S
C749 H741 0.950 . S
C749 C747 1.327 . S
C750 C738 1.349 . S
C750 H744 0.950 . S
C750 C751 1.327 . S
C751 H745 0.950 . S
C751 C750 1.327 . S
C751 C755 1.429 . S
C752 C735 1.574 . S
C752 H746 0.949 . S
C752 C756 1.368 . S
C753 C734 1.429 . S
C753 C747 1.429 . S
C753 C754 1.523 . S
C754 C735 1.368 . S
C754 C748 1.368 . S
C754 C753 1.523 . S
C755 C739 1.429 . S
C755 C751 1.429 . S
C755 C756 1.523 . S
C756 C740 1.368 . S
C756 C752 1.368 . S
C756 C755 1.523 . S
H757 C732 0.950 . S
H758 C734 0.950 . S
H759 C735 0.949 . S
H760 C737 0.950 . S
H761 C739 0.950 . S
C762 C763 1.349 . S
C762 C764 1.327 . S
C762 H787 0.950 . S
C763 C762 1.349 . S
C763 C779 1.349 . S
C764 C762 1.327 . S
C764 C783 1.429 . S
C764 H788 0.950 . S
C765 C782 1.574 . S
C765 C784 1.368 . S
C765 H789 0.949 . S
H766 C770 0.949 . S
C767 C768 1.349 . S
C767 C769 1.327 . S
C767 H790 0.950 . S
C768 C767 1.349 . S
C768 C780 1.349 . S
C769 C767 1.327 . S
C769 C785 1.429 . S
C769 H791 0.950 . S
C770 H766 0.949 . S
C770 C778 1.574 . S
C770 C786 1.368 . S
H771 C779 0.950 . S
H772 C777 0.950 . S
H773 C778 0.949 . S
H774 C780 0.950 . S
H775 C781 0.950 . S
H776 C782 0.949 . S
C777 H772 0.950 . S
C777 C779 1.327 . S
C777 C783 1.429 . S
C778 C770 1.574 . S
C778 H773 0.949 . S
C778 C784 1.368 . S
C779 C763 1.349 . S
C779 H771 0.950 . S
C779 C777 1.327 . S
C780 C768 1.349 . S
C780 H774 0.950 . S
C780 C781 1.327 . S
C781 H775 0.950 . S
C781 C780 1.327 . S
C781 C785 1.429 . S
C782 C765 1.574 . S
C782 H776 0.949 . S
C782 C786 1.368 . S
C783 C764 1.429 . S
C783 C777 1.429 . S
C783 C784 1.523 . S
C784 C765 1.368 . S
C784 C778 1.368 . S
C784 C783 1.523 . S
C785 C769 1.429 . S
C785 C781 1.429 . S
C785 C786 1.523 . S
C786 C770 1.368 . S
C786 C782 1.368 . S
C786 C785 1.523 . S
H787 C762 0.950 . S
H788 C764 0.950 . S
H789 C765 0.949 . S
H790 C767 0.950 . S
H791 C769 0.950 . S
C792 C793 1.349 . S
C792 C794 1.327 . S
C792 H817 0.950 . S
C793 C792 1.349 . S
C793 C809 1.349 . S
C794 C792 1.327 . S
C794 C813 1.429 . S
C794 H818 0.950 . S
C795 C812 1.574 . S
C795 C814 1.368 . S
C795 H819 0.949 . S
H796 C800 0.949 . S
C797 C798 1.349 . S
C797 C799 1.327 . S
C797 H820 0.950 . S
C798 C797 1.349 . S
C798 C810 1.349 . S
C799 C797 1.327 . S
C799 C815 1.429 . S
C799 H821 0.950 . S
C800 H796 0.949 . S
C800 C808 1.574 . S
C800 C816 1.368 . S
H801 C809 0.950 . S
H802 C807 0.950 . S
H803 C808 0.949 . S
H804 C810 0.950 . S
H805 C811 0.950 . S
H806 C812 0.949 . S
C807 H802 0.950 . S
C807 C809 1.327 . S
C807 C813 1.429 . S
C808 C800 1.574 . S
C808 H803 0.949 . S
C808 C814 1.368 . S
C809 C793 1.349 . S
C809 H801 0.950 . S
C809 C807 1.327 . S
C810 C798 1.349 . S
C810 H804 0.950 . S
C810 C811 1.327 . S
C811 H805 0.950 . S
C811 C810 1.327 . S
C811 C815 1.429 . S
C812 C795 1.574 . S
C812 H806 0.949 . S
C812 C816 1.368 . S
C813 C794 1.429 . S
C813 C807 1.429 . S
C813 C814 1.523 . S
C814 C795 1.368 . S
C814 C808 1.368 . S
C814 C813 1.523 . S
C815 C799 1.429 . S
C815 C811 1.429 . S
C815 C816 1.523 . S
C816 C800 1.368 . S
C816 C812 1.368 . S
C816 C815 1.523 . S
H817 C792 0.950 . S
H818 C794 0.950 . S
H819 C795 0.949 . S
H820 C797 0.950 . S
H821 C799 0.950 . S
C822 C823 1.349 . S
C822 C824 1.327 . S
C822 H847 0.950 . S
C823 C822 1.349 . S
C823 C839 1.349 . S
C824 C822 1.327 . S
C824 C843 1.429 . S
C824 H848 0.950 . S
C825 C842 1.574 . S
C825 C844 1.368 . S
C825 H849 0.949 . S
H826 C830 0.949 . S
C827 C828 1.349 . S
C827 C829 1.327 . S
C827 H850 0.950 . S
C828 C827 1.349 . S
C828 C840 1.349 . S
C829 C827 1.327 . S
C829 C845 1.429 . S
C829 H851 0.950 . S
C830 H826 0.949 . S
C830 C838 1.574 . S
C830 C846 1.368 . S
H831 C839 0.950 . S
H832 C837 0.950 . S
H833 C838 0.949 . S
H834 C840 0.950 . S
H835 C841 0.950 . S
H836 C842 0.949 . S
C837 H832 0.950 . S
C837 C839 1.327 . S
C837 C843 1.429 . S
C838 C830 1.574 . S
C838 H833 0.949 . S
C838 C844 1.368 . S
C839 C823 1.349 . S
C839 H831 0.950 . S
C839 C837 1.327 . S
C840 C828 1.349 . S
C840 H834 0.950 . S
C840 C841 1.327 . S
C841 H835 0.950 . S
C841 C840 1.327 . S
C841 C845 1.429 . S
C842 C825 1.574 . S
C842 H836 0.949 . S
C842 C846 1.368 . S
C843 C824 1.429 . S
C843 C837 1.429 . S
C843 C844 1.523 . S
C844 C825 1.368 . S
C844 C838 1.368 . S
C844 C843 1.523 . S
C845 C829 1.429 . S
C845 C841 1.429 . S
C845 C846 1.523 . S
C846 C830 1.368 . S
C846 C842 1.368 . S
C846 C845 1.523 . S
H847 C822 0.950 . S
H848 C824 0.950 . S
H849 C825 0.949 . S
H850 C827 0.950 . S
H851 C829 0.950 . S
C852 C853 1.349 . S
C852 C854 1.327 . S
C852 H877 0.950 . S
C853 C852 1.349 . S
C853 C869 1.349 . S
C854 C852 1.327 . S
C854 C873 1.429 . S
C854 H878 0.950 . S
C855 C872 1.574 . S
C855 C874 1.368 . S
C855 H879 0.949 . S
H856 C860 0.949 . S
C857 C858 1.349 . S
C857 C859 1.327 . S
C857 H880 0.950 . S
C858 C857 1.349 . S
C858 C870 1.349 . S
C859 C857 1.327 . S
C859 C875 1.429 . S
C859 H881 0.950 . S
C860 H856 0.949 . S
C860 C868 1.574 . S
C860 C876 1.368 . S
H861 C869 0.950 . S
H862 C867 0.950 . S
H863 C868 0.949 . S
H864 C870 0.950 . S
H865 C871 0.950 . S
H866 C872 0.949 . S
C867 H862 0.950 . S
C867 C869 1.327 . S
C867 C873 1.429 . S
C868 C860 1.574 . S
C868 H863 0.949 . S
C868 C874 1.368 . S
C869 C853 1.349 . S
C869 H861 0.950 . S
C869 C867 1.327 . S
C870 C858 1.349 . S
C870 H864 0.950 . S
C870 C871 1.327 . S
C871 H865 0.950 . S
C871 C870 1.327 . S
C871 C875 1.429 . S
C872 C855 1.574 . S
C872 H866 0.949 . S
C872 C876 1.368 . S
C873 C854 1.429 . S
C873 C867 1.429 . S
C873 C874 1.523 . S
C874 C855 1.368 . S
C874 C868 1.368 . S
C874 C873 1.523 . S
C875 C859 1.429 . S
C875 C871 1.429 . S
C875 C876 1.523 . S
C876 C860 1.368 . S
C876 C872 1.368 . S
C876 C875 1.523 . S
H877 C852 0.950 . S
H878 C854 0.950 . S
H879 C855 0.949 . S
H880 C857 0.950 . S
H881 C859 0.950 . S
C882 C883 1.349 . S
C882 C884 1.327 . S
C882 H907 0.950 . S
C883 C882 1.349 . S
C883 C899 1.349 . S
C884 C882 1.327 . S
C884 C903 1.429 . S
C884 H908 0.950 . S
C885 C902 1.574 . S
C885 C904 1.368 . S
C885 H909 0.949 . S
H886 C890 0.949 . S
C887 C888 1.349 . S
C887 C889 1.327 . S
C887 H910 0.950 . S
C888 C887 1.349 . S
C888 C900 1.349 . S
C889 C887 1.327 . S
C889 C905 1.429 . S
C889 H911 0.950 . S
C890 H886 0.949 . S
C890 C898 1.574 . S
C890 C906 1.368 . S
H891 C899 0.950 . S
H892 C897 0.950 . S
H893 C898 0.949 . S
H894 C900 0.950 . S
H895 C901 0.950 . S
H896 C902 0.949 . S
C897 H892 0.950 . S
C897 C899 1.327 . S
C897 C903 1.429 . S
C898 C890 1.574 . S
C898 H893 0.949 . S
C898 C904 1.368 . S
C899 C883 1.349 . S
C899 H891 0.950 . S
C899 C897 1.327 . S
C900 C888 1.349 . S
C900 H894 0.950 . S
C900 C901 1.327 . S
C901 H895 0.950 . S
C901 C900 1.327 . S
C901 C905 1.429 . S
C902 C885 1.574 . S
C902 H896 0.949 . S
C902 C906 1.368 . S
C903 C884 1.429 . S
C903 C897 1.429 . S
C903 C904 1.523 . S
C904 C885 1.368 . S
C904 C898 1.368 . S
C904 C903 1.523 . S
C905 C889 1.429 . S
C905 C901 1.429 . S
C905 C906 1.523 . S
C906 C890 1.368 . S
C906 C902 1.368 . S
C906 C905 1.523 . S
H907 C882 0.950 . S
H908 C884 0.950 . S
H909 C885 0.949 . S
H910 C887 0.950 . S
H911 C889 0.950 . S
C912 C913 1.349 . S
C912 C914 1.327 . S
C912 H937 0.950 . S
C913 C912 1.349 . S
C913 C929 1.349 . S
C914 C912 1.327 . S
C914 C933 1.429 . S
C914 H938 0.950 . S
C915 C932 1.574 . S
C915 C934 1.368 . S
C915 H939 0.949 . S
H916 C920 0.949 . S
C917 C918 1.349 . S
C917 C919 1.327 . S
C917 H940 0.950 . S
C918 C917 1.349 . S
C918 C930 1.349 . S
C919 C917 1.327 . S
C919 C935 1.429 . S
C919 H941 0.950 . S
C920 H916 0.949 . S
C920 C928 1.574 . S
C920 C936 1.368 . S
H921 C929 0.950 . S
H922 C927 0.950 . S
H923 C928 0.949 . S
H924 C930 0.950 . S
H925 C931 0.950 . S
H926 C932 0.949 . S
C927 H922 0.950 . S
C927 C929 1.327 . S
C927 C933 1.429 . S
C928 C920 1.574 . S
C928 H923 0.949 . S
C928 C934 1.368 . S
C929 C913 1.349 . S
C929 H921 0.950 . S
C929 C927 1.327 . S
C930 C918 1.349 . S
C930 H924 0.950 . S
C930 C931 1.327 . S
C931 H925 0.950 . S
C931 C930 1.327 . S
C931 C935 1.429 . S
C932 C915 1.574 . S
C932 H926 0.949 . S
C932 C936 1.368 . S
C933 C914 1.429 . S
C933 C927 1.429 . S
C933 C934 1.523 . S
C934 C915 1.368 . S
C934 C928 1.368 . S
C934 C933 1.523 . S
C935 C919 1.429 . S
C935 C931 1.429 . S
C935 C936 1.523 . S
C936 C920 1.368 . S
C936 C932 1.368 . S
C936 C935 1.523 . S
H937 C912 0.950 . S
H938 C914 0.950 . S
H939 C915 0.949 . S
H940 C917 0.950 . S
H941 C919 0.950 . S
C942 C943 1.349 . S
C942 C944 1.327 . S
C942 H967 0.950 . S
C943 C942 1.349 . S
C943 C959 1.349 . S
C944 C942 1.327 . S
C944 C963 1.429 . S
C944 H968 0.950 . S
C945 C962 1.574 . S
C945 C964 1.368 . S
C945 H969 0.949 . S
H946 C950 0.949 . S
C947 C948 1.349 . S
C947 C949 1.327 . S
C947 H970 0.950 . S
C948 C947 1.349 . S
C948 C960 1.349 . S
C949 C947 1.327 . S
C949 C965 1.429 . S
C949 H971 0.950 . S
C950 H946 0.949 . S
C950 C958 1.574 . S
C950 C966 1.368 . S
H951 C959 0.950 . S
H952 C957 0.950 . S
H953 C958 0.949 . S
H954 C960 0.950 . S
H955 C961 0.950 . S
H956 C962 0.949 . S
C957 H952 0.950 . S
C957 C959 1.327 . S
C957 C963 1.429 . S
C958 C950 1.574 . S
C958 H953 0.949 . S
C958 C964 1.368 . S
C959 C943 1.349 . S
C959 H951 0.950 . S
C959 C957 1.327 . S
C960 C948 1.349 . S
C960 H954 0.950 . S
C960 C961 1.327 . S
C961 H955 0.950 . S
C961 C960 1.327 . S
C961 C965 1.429 . S
C962 C945 1.574 . S
C962 H956 0.949 . S
C962 C966 1.368 . S
C963 C944 1.429 . S
C963 C957 1.429 . S
C963 C964 1.523 . S
C964 C945 1.368 . S
C964 C958 1.368 . S
C964 C963 1.523 . S
C965 C949 1.429 . S
C965 C961 1.429 . S
C965 C966 1.523 . S
C966 C950 1.368 . S
C966 C962 1.368 . S
C966 C965 1.523 . S
H967 C942 0.950 . S
H968 C944 0.950 . S
H969 C945 0.949 . S
H970 C947 0.950 . S
H971 C949 0.950 . S
C972 C973 1.349 . S
C972 C974 1.327 . S
C972 H997 0.950 . S
C973 C972 1.349 . S
C973 C989 1.349 . S
C974 C972 1.327 . S
C974 C993 1.429 . S
C974 H998 0.950 . S
C975 C992 1.574 . S
C975 C994 1.368 . S
C975 H999 0.949 . S
H976 C980 0.949 . S
C977 C978 1.349 . S
C977 C979 1.327 . S
C977 H1000 0.950 . S
C978 C977 1.349 . S
C978 C990 1.349 . S
C979 C977 1.327 . S
C979 C995 1.429 . S
C979 H1001 0.950 . S
C980 H976 0.949 . S
C980 C988 1.574 . S
C980 C996 1.368 . S
H981 C989 0.950 . S
H982 C987 0.950 . S
H983 C988 0.949 . S
H984 C990 0.950 . S
H985 C991 0.950 . S
H986 C992 0.949 . S
C987 H982 0.950 . S
C987 C989 1.327 . S
C987 C993 1.429 . S
C988 C980 1.574 . S
C988 H983 0.949 . S
C988 C994 1.368 . S
C989 C973 1.349 . S
C989 H981 0.950 . S
C989 C987 1.327 . S
C990 C978 1.349 . S
C990 H984 0.950 . S
C990 C991 1.327 . S
C991 H985 0.950 . S
C991 C990 1.327 . S
C991 C995 1.429 . S
C992 C975 1.574 . S
C992 H986 0.949 . S
C992 C996 1.368 . S
C993 C974 1.429 . S
C993 C987 1.429 . S
C993 C994 1.523 . S
C994 C975 1.368 . S
C994 C988 1.368 . S
C994 C993 1.523 . S
C995 C979 1.429 . S
C995 C991 1.429 . S
C995 C996 1.523 . S
C996 C980 1.368 . S
C996 C992 1.368 . S
C996 C995 1.523 . S
H997 C972 0.950 . S
H998 C974 0.950 . S
H999 C975 0.949 . S
H1000 C977 0.950 . S
H1001 C979 0.950 . S
C1002 C1003 1.349 . S
C1002 C1004 1.327 . S
C1002 H1027 0.950 . S
C1003 C1002 1.349 . S
C1003 C1019 1.349 . S
C1004 C1002 1.327 . S
C1004 C1023 1.429 . S
C1004 H1028 0.950 . S
C1005 C1022 1.574 . S
C1005 C1024 1.368 . S
C1005 H1029 0.949 . S
H1006 C1010 0.949 . S
C1007 C1008 1.349 . S
C1007 C1009 1.327 . S
C1007 H1030 0.950 . S
C1008 C1007 1.349 . S
C1008 C1020 1.349 . S
C1009 C1007 1.327 . S
C1009 C1025 1.429 . S
C1009 H1031 0.950 . S
C1010 H1006 0.949 . S
C1010 C1018 1.574 . S
C1010 C1026 1.368 . S
H1011 C1019 0.950 . S
H1012 C1017 0.950 . S
H1013 C1018 0.949 . S
H1014 C1020 0.950 . S
H1015 C1021 0.950 . S
H1016 C1022 0.949 . S
C1017 H1012 0.950 . S
C1017 C1019 1.327 . S
C1017 C1023 1.429 . S
C1018 C1010 1.574 . S
C1018 H1013 0.949 . S
C1018 C1024 1.368 . S
C1019 C1003 1.349 . S
C1019 H1011 0.950 . S
C1019 C1017 1.327 . S
C1020 C1008 1.349 . S
C1020 H1014 0.950 . S
C1020 C1021 1.327 . S
C1021 H1015 0.950 . S
C1021 C1020 1.327 . S
C1021 C1025 1.429 . S
C1022 C1005 1.574 . S
C1022 H1016 0.949 . S
C1022 C1026 1.368 . S
C1023 C1004 1.429 . S
C1023 C1017 1.429 . S
C1023 C1024 1.523 . S
C1024 C1005 1.368 . S
C1024 C1018 1.368 . S
C1024 C1023 1.523 . S
C1025 C1009 1.429 . S
C1025 C1021 1.429 . S
C1025 C1026 1.523 . S
C1026 C1010 1.368 . S
C1026 C1022 1.368 . S
C1026 C1025 1.523 . S
H1027 C1002 0.950 . S
H1028 C1004 0.950 . S
H1029 C1005 0.949 . S
H1030 C1007 0.950 . S
H1031 C1009 0.950 . S
C1032 C1033 1.349 . S
C1032 C1034 1.327 . S
C1032 H1057 0.950 . S
C1033 C1032 1.349 . S
C1033 C1049 1.349 . S
C1034 C1032 1.327 . S
C1034 C1053 1.429 . S
C1034 H1058 0.950 . S
C1035 C1052 1.574 . S
C1035 C1054 1.368 . S
C1035 H1059 0.949 . S
H1036 C1040 0.949 . S
C1037 C1038 1.349 . S
C1037 C1039 1.327 . S
C1037 H1060 0.950 . S
C1038 C1037 1.349 . S
C1038 C1050 1.349 . S
C1039 C1037 1.327 . S
C1039 C1055 1.429 . S
C1039 H1061 0.950 . S
C1040 H1036 0.949 . S
C1040 C1048 1.574 . S
C1040 C1056 1.368 . S
H1041 C1049 0.950 . S
H1042 C1047 0.950 . S
H1043 C1048 0.949 . S
H1044 C1050 0.950 . S
H1045 C1051 0.950 . S
H1046 C1052 0.949 . S
C1047 H1042 0.950 . S
C1047 C1049 1.327 . S
C1047 C1053 1.429 . S
C1048 C1040 1.574 . S
C1048 H1043 0.949 . S
C1048 C1054 1.368 . S
C1049 C1033 1.349 . S
C1049 H1041 0.950 . S
C1049 C1047 1.327 . S
C1050 C1038 1.349 . S
C1050 H1044 0.950 . S
C1050 C1051 1.327 . S
C1051 H1045 0.950 . S
C1051 C1050 1.327 . S
C1051 C1055 1.429 . S
C1052 C1035 1.574 . S
C1052 H1046 0.949 . S
C1052 C1056 1.368 . S
C1053 C1034 1.429 . S
C1053 C1047 1.429 . S
C1053 C1054 1.523 . S
C1054 C1035 1.368 . S
C1054 C1048 1.368 . S
C1054 C1053 1.523 . S
C1055 C1039 1.429 . S
C1055 C1051 1.429 . S
C1055 C1056 1.523 . S
C1056 C1040 1.368 . S
C1056 C1052 1.368 . S
C1056 C1055 1.523 . S
H1057 C1032 0.950 . S
H1058 C1034 0.950 . S
H1059 C1035 0.949 . S
H1060 C1037 0.950 . S
H1061 C1039 0.950 . S
C1062 C1063 1.349 . S
C1062 C1064 1.327 . S
C1062 H1087 0.950 . S
C1063 C1062 1.349 . S
C1063 C1079 1.349 . S
C1064 C1062 1.327 . S
C1064 C1083 1.429 . S
C1064 H1088 0.950 . S
C1065 C1082 1.574 . S
C1065 C1084 1.368 . S
C1065 H1089 0.949 . S
H1066 C1070 0.949 . S
C1067 C1068 1.349 . S
C1067 C1069 1.327 . S
C1067 H1090 0.950 . S
C1068 C1067 1.349 . S
C1068 C1080 1.349 . S
C1069 C1067 1.327 . S
C1069 C1085 1.429 . S
C1069 H1091 0.950 . S
C1070 H1066 0.949 . S
C1070 C1078 1.574 . S
C1070 C1086 1.368 . S
H1071 C1079 0.950 . S
H1072 C1077 0.950 . S
H1073 C1078 0.949 . S
H1074 C1080 0.950 . S
H1075 C1081 0.950 . S
H1076 C1082 0.949 . S
C1077 H1072 0.950 . S
C1077 C1079 1.327 . S
C1077 C1083 1.429 . S
C1078 C1070 1.574 . S
C1078 H1073 0.949 . S
C1078 C1084 1.368 . S
C1079 C1063 1.349 . S
C1079 H1071 0.950 . S
C1079 C1077 1.327 . S
C1080 C1068 1.349 . S
C1080 H1074 0.950 . S
C1080 C1081 1.327 . S
C1081 H1075 0.950 . S
C1081 C1080 1.327 . S
C1081 C1085 1.429 . S
C1082 C1065 1.574 . S
C1082 H1076 0.949 . S
C1082 C1086 1.368 . S
C1083 C1064 1.429 . S
C1083 C1077 1.429 . S
C1083 C1084 1.523 . S
C1084 C1065 1.368 . S
C1084 C1078 1.368 . S
C1084 C1083 1.523 . S
C1085 C1069 1.429 . S
C1085 C1081 1.429 . S
C1085 C1086 1.523 . S
C1086 C1070 1.368 . S
C1086 C1082 1.368 . S
C1086 C1085 1.523 . S
H1087 C1062 0.950 . S
H1088 C1064 0.950 . S
H1089 C1065 0.949 . S
H1090 C1067 0.950 . S
H1091 C1069 0.950 . S
C1092 C1093 1.349 . S
C1092 C1094 1.327 . S
C1092 H1117 0.950 . S
C1093 C1092 1.349 . S
C1093 C1109 1.349 . S
C1094 C1092 1.327 . S
C1094 C1113 1.429 . S
C1094 H1118 0.950 . S
C1095 C1112 1.574 . S
C1095 C1114 1.368 . S
C1095 H1119 0.949 . S
H1096 C1100 0.949 . S
C1097 C1098 1.349 . S
C1097 C1099 1.327 . S
C1097 H1120 0.950 . S
C1098 C1097 1.349 . S
C1098 C1110 1.349 . S
C1099 C1097 1.327 . S
C1099 C1115 1.429 . S
C1099 H1121 0.950 . S
C1100 H1096 0.949 . S
C1100 C1108 1.574 . S
C1100 C1116 1.368 . S
H1101 C1109 0.950 . S
H1102 C1107 0.950 . S
H1103 C1108 0.949 . S
H1104 C1110 0.950 . S
H1105 C1111 0.950 . S
H1106 C1112 0.949 . S
C1107 H1102 0.950 . S
C1107 C1109 1.327 . S
C1107 C1113 1.429 . S
C1108 C1100 1.574 . S
C1108 H1103 0.949 . S
C1108 C1114 1.368 . S
C1109 C1093 1.349 . S
C1109 H1101 0.950 . S
C1109 C1107 1.327 . S
C1110 C1098 1.349 . S
C1110 H1104 0.950 . S
C1110 C1111 1.327 . S
C1111 H1105 0.950 . S
C1111 C1110 1.327 . S
C1111 C1115 1.429 . S
C1112 C1095 1.574 . S
C1112 H1106 0.949 . S
C1112 C1116 1.368 . S
C1113 C1094 1.429 . S
C1113 C1107 1.429 . S
C1113 C1114 1.523 . S
C1114 C1095 1.368 . S
C1114 C1108 1.368 . S
C1114 C1113 1.523 . S
C1115 C1099 1.429 . S
C1115 C1111 1.429 . S
C1115 C1116 1.523 . S
C1116 C1100 1.368 . S
C1116 C1112 1.368 . S
C1116 C1115 1.523 . S
H1117 C1092 0.950 . S
H1118 C1094 0.950 . S
H1119 C1095 0.949 . S
H1120 C1097 0.950 . S
H1121 C1099 0.950 . S
C1122 C1123 1.349 . S
C1122 C1124 1.327 . S
C1122 H1147 0.950 . S
C1123 C1122 1.349 . S
C1123 C1139 1.349 . S
C1124 C1122 1.327 . S
C1124 C1143 1.429 . S
C1124 H1148 0.950 . S
C1125 C1142 1.574 . S
C1125 C1144 1.368 . S
C1125 H1149 0.949 . S
H1126 C1130 0.949 . S
C1127 C1128 1.349 . S
C1127 C1129 1.327 . S
C1127 H1150 0.950 . S
C1128 C1127 1.349 . S
C1128 C1140 1.349 . S
C1129 C1127 1.327 . S
C1129 C1145 1.429 . S
C1129 H1151 0.950 . S
C1130 H1126 0.949 . S
C1130 C1138 1.574 . S
C1130 C1146 1.368 . S
H1131 C1139 0.950 . S
H1132 C1137 0.950 . S
H1133 C1138 0.949 . S
H1134 C1140 0.950 . S
H1135 C1141 0.950 . S
H1136 C1142 0.949 . S
C1137 H1132 0.950 . S
C1137 C1139 1.327 . S
C1137 C1143 1.429 . S
C1138 C1130 1.574 . S
C1138 H1133 0.949 . S
C1138 C1144 1.368 . S
C1139 C1123 1.349 . S
C1139 H1131 0.950 . S
C1139 C1137 1.327 . S
C1140 C1128 1.349 . S
C1140 H1134 0.950 . S
C1140 C1141 1.327 . S
C1141 H1135 0.950 . S
C1141 C1140 1.327 . S
C1141 C1145 1.429 . S
C1142 C1125 1.574 . S
C1142 H1136 0.949 . S
C1142 C1146 1.368 . S
C1143 C1124 1.429 . S
C1143 C1137 1.429 . S
C1143 C1144 1.523 . S
C1144 C1125 1.368 . S
C1144 C1138 1.368 . S
C1144 C1143 1.523 . S
C1145 C1129 1.429 . S
C1145 C1141 1.429 . S
C1145 C1146 1.523 . S
C1146 C1130 1.368 . S
C1146 C1142 1.368 . S
C1146 C1145 1.523 . S
H1147 C1122 0.950 . S
H1148 C1124 0.950 . S
H1149 C1125 0.949 . S
H1150 C1127 0.950 . S
H1151 C1129 0.950 . S
C1152 C1153 1.349 . S
C1152 C1154 1.327 . S
C1152 H1177 0.950 . S
C1153 C1152 1.349 . S
C1153 C1169 1.349 . S
C1154 C1152 1.327 . S
C1154 C1173 1.429 . S
C1154 H1178 0.950 . S
C1155 C1172 1.574 . S
C1155 C1174 1.368 . S
C1155 H1179 0.949 . S
H1156 C1160 0.949 . S
C1157 C1158 1.349 . S
C1157 C1159 1.327 . S
C1157 H1180 0.950 . S
C1158 C1157 1.349 . S
C1158 C1170 1.349 . S
C1159 C1157 1.327 . S
C1159 C1175 1.429 . S
C1159 H1181 0.950 . S
C1160 H1156 0.949 . S
C1160 C1168 1.574 . S
C1160 C1176 1.368 . S
H1161 C1169 0.950 . S
H1162 C1167 0.950 . S
H1163 C1168 0.949 . S
H1164 C1170 0.950 . S
H1165 C1171 0.950 . S
H1166 C1172 0.949 . S
C1167 H1162 0.950 . S
C1167 C1169 1.327 . S
C1167 C1173 1.429 . S
C1168 C1160 1.574 . S
C1168 H1163 0.949 . S
C1168 C1174 1.368 . S
C1169 C1153 1.349 . S
C1169 H1161 0.950 . S
C1169 C1167 1.327 . S
C1170 C1158 1.349 . S
C1170 H1164 0.950 . S
C1170 C1171 1.327 . S
C1171 H1165 0.950 . S
C1171 C1170 1.327 . S
C1171 C1175 1.429 . S
C1172 C1155 1.574 . S
C1172 H1166 0.949 . S
C1172 C1176 1.368 . S
C1173 C1154 1.429 . S
C1173 C1167 1.429 . S
C1173 C1174 1.523 . S
C1174 C1155 1.368 . S
C1174 C1168 1.368 . S
C1174 C1173 1.523 . S
C1175 C1159 1.429 . S
C1175 C1171 1.429 . S
C1175 C1176 1.523 . S
C1176 C1160 1.368 . S
C1176 C1172 1.368 . S
C1176 C1175 1.523 . S
H1177 C1152 0.950 . S
H1178 C1154 0.950 . S
H1179 C1155 0.949 . S
H1180 C1157 0.950 . S
H1181 C1159 0.950 . S
C1182 C1183 1.349 . S
C1182 C1184 1.327 . S
C1182 H1207 0.950 . S
C1183 C1182 1.349 . S
C1183 C1199 1.349 . S
C1184 C1182 1.327 . S
C1184 C1203 1.429 . S
C1184 H1208 0.950 . S
C1185 C1202 1.574 . S
C1185 C1204 1.368 . S
C1185 H1209 0.949 . S
H1186 C1190 0.949 . S
C1187 C1188 1.349 . S
C1187 C1189 1.327 . S
C1187 H1210 0.950 . S
C1188 C1187 1.349 . S
C1188 C1200 1.349 . S
C1189 C1187 1.327 . S
C1189 C1205 1.429 . S
C1189 H1211 0.950 . S
C1190 H1186 0.949 . S
C1190 C1198 1.574 . S
C1190 C1206 1.368 . S
H1191 C1199 0.950 . S
H1192 C1197 0.950 . S
H1193 C1198 0.949 . S
H1194 C1200 0.950 . S
H1195 C1201 0.950 . S
H1196 C1202 0.949 . S
C1197 H1192 0.950 . S
C1197 C1199 1.327 . S
C1197 C1203 1.429 . S
C1198 C1190 1.574 . S
C1198 H1193 0.949 . S
C1198 C1204 1.368 . S
C1199 C1183 1.349 . S
C1199 H1191 0.950 . S
C1199 C1197 1.327 . S
C1200 C1188 1.349 . S
C1200 H1194 0.950 . S
C1200 C1201 1.327 . S
C1201 H1195 0.950 . S
C1201 C1200 1.327 . S
C1201 C1205 1.429 . S
C1202 C1185 1.574 . S
C1202 H1196 0.949 . S
C1202 C1206 1.368 . S
C1203 C1184 1.429 . S
C1203 C1197 1.429 . S
C1203 C1204 1.523 . S
C1204 C1185 1.368 . S
C1204 C1198 1.368 . S
C1204 C1203 1.523 . S
C1205 C1189 1.429 . S
C1205 C1201 1.429 . S
C1205 C1206 1.523 . S
C1206 C1190 1.368 . S
C1206 C1202 1.368 . S
C1206 C1205 1.523 . S
H1207 C1182 0.950 . S
H1208 C1184 0.950 . S
H1209 C1185 0.949 . S
H1210 C1187 0.950 . S
H1211 C1189 0.950 . S
C1212 C1213 1.349 . S
C1212 C1214 1.327 . S
C1212 H1237 0.950 . S
C1213 C1212 1.349 . S
C1213 C1229 1.349 . S
C1214 C1212 1.327 . S
C1214 C1233 1.429 . S
C1214 H1238 0.950 . S
C1215 C1232 1.574 . S
C1215 C1234 1.368 . S
C1215 H1239 0.949 . S
H1216 C1220 0.949 . S
C1217 C1218 1.349 . S
C1217 C1219 1.327 . S
C1217 H1240 0.950 . S
C1218 C1217 1.349 . S
C1218 C1230 1.349 . S
C1219 C1217 1.327 . S
C1219 C1235 1.429 . S
C1219 H1241 0.950 . S
C1220 H1216 0.949 . S
C1220 C1228 1.574 . S
C1220 C1236 1.368 . S
H1221 C1229 0.950 . S
H1222 C1227 0.950 . S
H1223 C1228 0.949 . S
H1224 C1230 0.950 . S
H1225 C1231 0.950 . S
H1226 C1232 0.949 . S
C1227 H1222 0.950 . S
C1227 C1229 1.327 . S
C1227 C1233 1.429 . S
C1228 C1220 1.574 . S
C1228 H1223 0.949 . S
C1228 C1234 1.368 . S
C1229 C1213 1.349 . S
C1229 H1221 0.950 . S
C1229 C1227 1.327 . S
C1230 C1218 1.349 . S
C1230 H1224 0.950 . S
C1230 C1231 1.327 . S
C1231 H1225 0.950 . S
C1231 C1230 1.327 . S
C1231 C1235 1.429 . S
C1232 C1215 1.574 . S
C1232 H1226 0.949 . S
C1232 C1236 1.368 . S
C1233 C1214 1.429 . S
C1233 C1227 1.429 . S
C1233 C1234 1.523 . S
C1234 C1215 1.368 . S
C1234 C1228 1.368 . S
C1234 C1233 1.523 . S
C1235 C1219 1.429 . S
C1235 C1231 1.429 . S
C1235 C1236 1.523 . S
C1236 C1220 1.368 . S
C1236 C1232 1.368 . S
C1236 C1235 1.523 . S
H1237 C1212 0.950 . S
H1238 C1214 0.950 . S
H1239 C1215 0.949 . S
H1240 C1217 0.950 . S
H1241 C1219 0.950 . S
C1242 C1243 1.349 . S
C1242 C1244 1.327 . S
C1242 H1267 0.950 . S
C1243 C1242 1.349 . S
C1243 C1259 1.349 . S
C1244 C1242 1.327 . S
C1244 C1263 1.429 . S
C1244 H1268 0.950 . S
C1245 C1262 1.574 . S
C1245 C1264 1.368 . S
C1245 H1269 0.949 . S
H1246 C1250 0.949 . S
C1247 C1248 1.349 . S
C1247 C1249 1.327 . S
C1247 H1270 0.950 . S
C1248 C1247 1.349 . S
C1248 C1260 1.349 . S
C1249 C1247 1.327 . S
C1249 C1265 1.429 . S
C1249 H1271 0.950 . S
C1250 H1246 0.949 . S
C1250 C1258 1.574 . S
C1250 C1266 1.368 . S
H1251 C1259 0.950 . S
H1252 C1257 0.950 . S
H1253 C1258 0.949 . S
H1254 C1260 0.950 . S
H1255 C1261 0.950 . S
H1256 C1262 0.949 . S
C1257 H1252 0.950 . S
C1257 C1259 1.327 . S
C1257 C1263 1.429 . S
C1258 C1250 1.574 . S
C1258 H1253 0.949 . S
C1258 C1264 1.368 . S
C1259 C1243 1.349 . S
C1259 H1251 0.950 . S
C1259 C1257 1.327 . S
C1260 C1248 1.349 . S
C1260 H1254 0.950 . S
C1260 C1261 1.327 . S
C1261 H1255 0.950 . S
C1261 C1260 1.327 . S
C1261 C1265 1.429 . S
C1262 C1245 1.574 . S
C1262 H1256 0.949 . S
C1262 C1266 1.368 . S
C1263 C1244 1.429 . S
C1263 C1257 1.429 . S
C1263 C1264 1.523 . S
C1264 C1245 1.368 . S
C1264 C1258 1.368 . S
C1264 C1263 1.523 . S
C1265 C1249 1.429 . S
C1265 C1261 1.429 . S
C1265 C1266 1.523 . S
C1266 C1250 1.368 . S
C1266 C1262 1.368 . S
C1266 C1265 1.523 . S
H1267 C1242 0.950 . S
H1268 C1244 0.950 . S
H1269 C1245 0.949 . S
H1270 C1247 0.950 . S
H1271 C1249 0.950 . S
C1272 C1273 1.349 . S
C1272 C1274 1.327 . S
C1272 H1297 0.950 . S
C1273 C1272 1.349 . S
C1273 C1289 1.349 . S
C1274 C1272 1.327 . S
C1274 C1293 1.429 . S
C1274 H1298 0.950 . S
C1275 C1292 1.574 . S
C1275 C1294 1.368 . S
C1275 H1299 0.949 . S
H1276 C1280 0.949 . S
C1277 C1278 1.349 . S
C1277 C1279 1.327 . S
C1277 H1300 0.950 . S
C1278 C1277 1.349 . S
C1278 C1290 1.349 . S
C1279 C1277 1.327 . S
C1279 C1295 1.429 . S
C1279 H1301 0.950 . S
C1280 H1276 0.949 . S
C1280 C1288 1.574 . S
C1280 C1296 1.368 . S
H1281 C1289 0.950 . S
H1282 C1287 0.950 . S
H1283 C1288 0.949 . S
H1284 C1290 0.950 . S
H1285 C1291 0.950 . S
H1286 C1292 0.949 . S
C1287 H1282 0.950 . S
C1287 C1289 1.327 . S
C1287 C1293 1.429 . S
C1288 C1280 1.574 . S
C1288 H1283 0.949 . S
C1288 C1294 1.368 . S
C1289 C1273 1.349 . S
C1289 H1281 0.950 . S
C1289 C1287 1.327 . S
C1290 C1278 1.349 . S
C1290 H1284 0.950 . S
C1290 C1291 1.327 . S
C1291 H1285 0.950 . S
C1291 C1290 1.327 . S
C1291 C1295 1.429 . S
C1292 C1275 1.574 . S
C1292 H1286 0.949 . S
C1292 C1296 1.368 . S
C1293 C1274 1.429 . S
C1293 C1287 1.429 . S
C1293 C1294 1.523 . S
C1294 C1275 1.368 . S
C1294 C1288 1.368 . S
C1294 C1293 1.523 . S
C1295 C1279 1.429 . S
C1295 C1291 1.429 . S
C1295 C1296 1.523 . S
C1296 C1280 1.368 . S
C1296 C1292 1.368 . S
C1296 C1295 1.523 . S
H1297 C1272 0.950 . S
H1298 C1274 0.950 . S
H1299 C1275 0.949 . S
H1300 C1277 0.950 . S
H1301 C1279 0.950 . S
C1302 C1303 1.349 . S
C1302 C1304 1.327 . S
C1302 H1327 0.950 . S
C1303 C1302 1.349 . S
C1303 C1319 1.349 . S
C1304 C1302 1.327 . S
C1304 C1323 1.429 . S
C1304 H1328 0.950 . S
C1305 C1322 1.574 . S
C1305 C1324 1.368 . S
C1305 H1329 0.949 . S
H1306 C1310 0.949 . S
C1307 C1308 1.349 . S
C1307 C1309 1.327 . S
C1307 H1330 0.950 . S
C1308 C1307 1.349 . S
C1308 C1320 1.349 . S
C1309 C1307 1.327 . S
C1309 C1325 1.429 . S
C1309 H1331 0.950 . S
C1310 H1306 0.949 . S
C1310 C1318 1.574 . S
C1310 C1326 1.368 . S
H1311 C1319 0.950 . S
H1312 C1317 0.950 . S
H1313 C1318 0.949 . S
H1314 C1320 0.950 . S
H1315 C1321 0.950 . S
H1316 C1322 0.949 . S
C1317 H1312 0.950 . S
C1317 C1319 1.327 . S
C1317 C1323 1.429 . S
C1318 C1310 1.574 . S
C1318 H1313 0.949 . S
C1318 C1324 1.368 . S
C1319 C1303 1.349 . S
C1319 H1311 0.950 . S
C1319 C1317 1.327 . S
C1320 C1308 1.349 . S
C1320 H1314 0.950 . S
C1320 C1321 1.327 . S
C1321 H1315 0.950 . S
C1321 C1320 1.327 . S
C1321 C1325 1.429 . S
C1322 C1305 1.574 . S
C1322 H1316 0.949 . S
C1322 C1326 1.368 . S
C1323 C1304 1.429 . S
C1323 C1317 1.429 . S
C1323 C1324 1.523 . S
C1324 C1305 1.368 . S
C1324 C1318 1.368 . S
C1324 C1323 1.523 . S
C1325 C1309 1.429 . S
C1325 C1321 1.429 . S
C1325 C1326 1.523 . S
C1326 C1310 1.368 . S
C1326 C1322 1.368 . S
C1326 C1325 1.523 . S
H1327 C1302 0.950 . S
H1328 C1304 0.950 . S
H1329 C1305 0.949 . S
H1330 C1307 0.950 . S
H1331 C1309 0.950 . S
C1332 C1333 1.349 . S
C1332 C1334 1.327 . S
C1332 H1357 0.950 . S
C1333 C1332 1.349 . S
C1333 C1349 1.349 . S
C1334 C1332 1.327 . S
C1334 C1353 1.429 . S
C1334 H1358 0.950 . S
C1335 C1352 1.574 . S
C1335 C1354 1.368 . S
C1335 H1359 0.949 . S
H1336 C1340 0.949 . S
C1337 C1338 1.349 . S
C1337 C1339 1.327 . S
C1337 H1360 0.950 . S
C1338 C1337 1.349 . S
C1338 C1350 1.349 . S
C1339 C1337 1.327 . S
C1339 C1355 1.429 . S
C1339 H1361 0.950 . S
C1340 H1336 0.949 . S
C1340 C1348 1.574 . S
C1340 C1356 1.368 . S
H1341 C1349 0.950 . S
H1342 C1347 0.950 . S
H1343 C1348 0.949 . S
H1344 C1350 0.950 . S
H1345 C1351 0.950 . S
H1346 C1352 0.949 . S
C1347 H1342 0.950 . S
C1347 C1349 1.327 . S
C1347 C1353 1.429 . S
C1348 C1340 1.574 . S
C1348 H1343 0.949 . S
C1348 C1354 1.368 . S
C1349 C1333 1.349 . S
C1349 H1341 0.950 . S
C1349 C1347 1.327 . S
C1350 C1338 1.349 . S
C1350 H1344 0.950 . S
C1350 C1351 1.327 . S
C1351 H1345 0.950 . S
C1351 C1350 1.327 . S
C1351 C1355 1.429 . S
C1352 C1335 1.574 . S
C1352 H1346 0.949 . S
C1352 C1356 1.368 . S
C1353 C1334 1.429 . S
C1353 C1347 1.429 . S
C1353 C1354 1.523 . S
C1354 C1335 1.368 . S
C1354 C1348 1.368 . S
C1354 C1353 1.523 . S
C1355 C1339 1.429 . S
C1355 C1351 1.429 . S
C1355 C1356 1.523 . S
C1356 C1340 1.368 . S
C1356 C1352 1.368 . S
C1356 C1355 1.523 . S
H1357 C1332 0.950 . S
H1358 C1334 0.950 . S
H1359 C1335 0.949 . S
H1360 C1337 0.950 . S
H1361 C1339 0.950 . S
C1362 C1363 1.349 . S
C1362 C1364 1.327 . S
C1362 H1387 0.950 . S
C1363 C1362 1.349 . S
C1363 C1379 1.349 . S
C1364 C1362 1.327 . S
C1364 C1383 1.429 . S
C1364 H1388 0.950 . S
C1365 C1382 1.574 . S
C1365 C1384 1.368 . S
C1365 H1389 0.949 . S
H1366 C1370 0.949 . S
C1367 C1368 1.349 . S
C1367 C1369 1.327 . S
C1367 H1390 0.950 . S
C1368 C1367 1.349 . S
C1368 C1380 1.349 . S
C1369 C1367 1.327 . S
C1369 C1385 1.429 . S
C1369 H1391 0.950 . S
C1370 H1366 0.949 . S
C1370 C1378 1.574 . S
C1370 C1386 1.368 . S
H1371 C1379 0.950 . S
H1372 C1377 0.950 . S
H1373 C1378 0.949 . S
H1374 C1380 0.950 . S
H1375 C1381 0.950 . S
H1376 C1382 0.949 . S
C1377 H1372 0.950 . S
C1377 C1379 1.327 . S
C1377 C1383 1.429 . S
C1378 C1370 1.574 . S
C1378 H1373 0.949 . S
C1378 C1384 1.368 . S
C1379 C1363 1.349 . S
C1379 H1371 0.950 . S
C1379 C1377 1.327 . S
C1380 C1368 1.349 . S
C1380 H1374 0.950 . S
C1380 C1381 1.327 . S
C1381 H1375 0.950 . S
C1381 C1380 1.327 . S
C1381 C1385 1.429 . S
C1382 C1365 1.574 . S
C1382 H1376 0.949 . S
C1382 C1386 1.368 . S
C1383 C1364 1.429 . S
C1383 C1377 1.429 . S
C1383 C1384 1.523 . S
C1384 C1365 1.368 . S
C1384 C1378 1.368 . S
C1384 C1383 1.523 . S
C1385 C1369 1.429 . S
C1385 C1381 1.429 . S
C1385 C1386 1.523 . S
C1386 C1370 1.368 . S
C1386 C1382 1.368 . S
C1386 C1385 1.523 . S
H1387 C1362 0.950 . S
H1388 C1364 0.950 . S
H1389 C1365 0.949 . S
H1390 C1367 0.950 . S
H1391 C1369 0.950 . S
C1392 C1393 1.349 . S
C1392 C1394 1.327 . S
C1392 H1417 0.950 . S
C1393 C1392 1.349 . S
C1393 C1409 1.349 . S
C1394 C1392 1.327 . S
C1394 C1413 1.429 . S
C1394 H1418 0.950 . S
C1395 C1412 1.574 . S
C1395 C1414 1.368 . S
C1395 H1419 0.949 . S
H1396 C1400 0.949 . S
C1397 C1398 1.349 . S
C1397 C1399 1.327 . S
C1397 H1420 0.950 . S
C1398 C1397 1.349 . S
C1398 C1410 1.349 . S
C1399 C1397 1.327 . S
C1399 C1415 1.429 . S
C1399 H1421 0.950 . S
C1400 H1396 0.949 . S
C1400 C1408 1.574 . S
C1400 C1416 1.368 . S
H1401 C1409 0.950 . S
H1402 C1407 0.950 . S
H1403 C1408 0.949 . S
H1404 C1410 0.950 . S
H1405 C1411 0.950 . S
H1406 C1412 0.949 . S
C1407 H1402 0.950 . S
C1407 C1409 1.327 . S
C1407 C1413 1.429 . S
C1408 C1400 1.574 . S
C1408 H1403 0.949 . S
C1408 C1414 1.368 . S
C1409 C1393 1.349 . S
C1409 H1401 0.950 . S
C1409 C1407 1.327 . S
C1410 C1398 1.349 . S
C1410 H1404 0.950 . S
C1410 C1411 1.327 . S
C1411 H1405 0.950 . S
C1411 C1410 1.327 . S
C1411 C1415 1.429 . S
C1412 C1395 1.574 . S
C1412 H1406 0.949 . S
C1412 C1416 1.368 . S
C1413 C1394 1.429 . S
C1413 C1407 1.429 . S
C1413 C1414 1.523 . S
C1414 C1395 1.368 . S
C1414 C1408 1.368 . S
C1414 C1413 1.523 . S
C1415 C1399 1.429 . S
C1415 C1411 1.429 . S
C1415 C1416 1.523 . S
C1416 C1400 1.368 . S
C1416 C1412 1.368 . S
C1416 C1415 1.523 . S
H1417 C1392 0.950 . S
H1418 C1394 0.950 . S
H1419 C1395 0.949 . S
H1420 C1397 0.950 . S
H1421 C1399 0.950 . S
C1422 C1423 1.349 . S
C1422 C1424 1.327 . S
C1422 H1447 0.950 . S
C1423 C1422 1.349 . S
C1423 C1439 1.349 . S
C1424 C1422 1.327 . S
C1424 C1443 1.429 . S
C1424 H1448 0.950 . S
C1425 C1442 1.574 . S
C1425 C1444 1.368 . S
C1425 H1449 0.949 . S
H1426 C1430 0.949 . S
C1427 C1428 1.349 . S
C1427 C1429 1.327 . S
C1427 H1450 0.950 . S
C1428 C1427 1.349 . S
C1428 C1440 1.349 . S
C1429 C1427 1.327 . S
C1429 C1445 1.429 . S
C1429 H1451 0.950 . S
C1430 H1426 0.949 . S
C1430 C1438 1.574 . S
C1430 C1446 1.368 . S
H1431 C1439 0.950 . S
H1432 C1437 0.950 . S
H1433 C1438 0.949 . S
H1434 C1440 0.950 . S
H1435 C1441 0.950 . S
H1436 C1442 0.949 . S
C1437 H1432 0.950 . S
C1437 C1439 1.327 . S
C1437 C1443 1.429 . S
C1438 C1430 1.574 . S
C1438 H1433 0.949 . S
C1438 C1444 1.368 . S
C1439 C1423 1.349 . S
C1439 H1431 0.950 . S
C1439 C1437 1.327 . S
C1440 C1428 1.349 . S
C1440 H1434 0.950 . S
C1440 C1441 1.327 . S
C1441 H1435 0.950 . S
C1441 C1440 1.327 . S
C1441 C1445 1.429 . S
C1442 C1425 1.574 . S
C1442 H1436 0.949 . S
C1442 C1446 1.368 . S
C1443 C1424 1.429 . S
C1443 C1437 1.429 . S
C1443 C1444 1.523 . S
C1444 C1425 1.368 . S
C1444 C1438 1.368 . S
C1444 C1443 1.523 . S
C1445 C1429 1.429 . S
C1445 C1441 1.429 . S
C1445 C1446 1.523 . S
C1446 C1430 1.368 . S
C1446 C1442 1.368 . S
C1446 C1445 1.523 . S
H1447 C1422 0.950 . S
H1448 C1424 0.950 . S
H1449 C1425 0.949 . S
H1450 C1427 0.950 . S
H1451 C1429 0.950 . S
C1452 C1453 1.349 . S
C1452 C1454 1.327 . S
C1452 H1477 0.950 . S
C1453 C1452 1.349 . S
C1453 C1469 1.349 . S
C1454 C1452 1.327 . S
C1454 C1473 1.429 . S
C1454 H1478 0.950 . S
C1455 C1472 1.574 . S
C1455 C1474 1.368 . S
C1455 H1479 0.949 . S
H1456 C1460 0.949 . S
C1457 C1458 1.349 . S
C1457 C1459 1.327 . S
C1457 H1480 0.950 . S
C1458 C1457 1.349 . S
C1458 C1470 1.349 . S
C1459 C1457 1.327 . S
C1459 C1475 1.429 . S
C1459 H1481 0.950 . S
C1460 H1456 0.949 . S
C1460 C1468 1.574 . S
C1460 C1476 1.368 . S
H1461 C1469 0.950 . S
H1462 C1467 0.950 . S
H1463 C1468 0.949 . S
H1464 C1470 0.950 . S
H1465 C1471 0.950 . S
H1466 C1472 0.949 . S
C1467 H1462 0.950 . S
C1467 C1469 1.327 . S
C1467 C1473 1.429 . S
C1468 C1460 1.574 . S
C1468 H1463 0.949 . S
C1468 C1474 1.368 . S
C1469 C1453 1.349 . S
C1469 H1461 0.950 . S
C1469 C1467 1.327 . S
C1470 C1458 1.349 . S
C1470 H1464 0.950 . S
C1470 C1471 1.327 . S
C1471 H1465 0.950 . S
C1471 C1470 1.327 . S
C1471 C1475 1.429 . S
C1472 C1455 1.574 . S
C1472 H1466 0.949 . S
C1472 C1476 1.368 . S
C1473 C1454 1.429 . S
C1473 C1467 1.429 . S
C1473 C1474 1.523 . S
C1474 C1455 1.368 . S
C1474 C1468 1.368 . S
C1474 C1473 1.523 . S
C1475 C1459 1.429 . S
C1475 C1471 1.429 . S
C1475 C1476 1.523 . S
C1476 C1460 1.368 . S
C1476 C1472 1.368 . S
C1476 C1475 1.523 . S
H1477 C1452 0.950 . S
H1478 C1454 0.950 . S
H1479 C1455 0.949 . S
H1480 C1457 0.950 . S
H1481 C1459 0.950 . S
C1482 C1483 1.349 . S
C1482 C1484 1.327 . S
C1482 H1507 0.950 . S
C1483 C1482 1.349 . S
C1483 C1499 1.349 . S
C1484 C1482 1.327 . S
C1484 C1503 1.429 . S
C1484 H1508 0.950 . S
C1485 C1502 1.574 . S
C1485 C1504 1.368 . S
C1485 H1509 0.949 . S
H1486 C1490 0.949 . S
C1487 C1488 1.349 . S
C1487 C1489 1.327 . S
C1487 H1510 0.950 . S
C1488 C1487 1.349 . S
C1488 C1500 1.349 . S
C1489 C1487 1.327 . S
C1489 C1505 1.429 . S
C1489 H1511 0.950 . S
C1490 H1486 0.949 . S
C1490 C1498 1.574 . S
C1490 C1506 1.368 . S
H1491 C1499 0.950 . S
H1492 C1497 0.950 . S
H1493 C1498 0.949 . S
H1494 C1500 0.950 . S
H1495 C1501 0.950 . S
H1496 C1502 0.949 . S
C1497 H1492 0.950 . S
C1497 C1499 1.327 . S
C1497 C1503 1.429 . S
C1498 C1490 1.574 . S
C1498 H1493 0.949 . S
C1498 C1504 1.368 . S
C1499 C1483 1.349 . S
C1499 H1491 0.950 . S
C1499 C1497 1.327 . S
C1500 C1488 1.349 . S
C1500 H1494 0.950 . S
C1500 C1501 1.327 . S
C1501 H1495 0.950 . S
C1501 C1500 1.327 . S
C1501 C1505 1.429 . S
C1502 C1485 1.574 . S
C1502 H1496 0.949 . S
C1502 C1506 1.368 . S
C1503 C1484 1.429 . S
C1503 C1497 1.429 . S
C1503 C1504 1.523 . S
C1504 C1485 1.368 . S
C1504 C1498 1.368 . S
C1504 C1503 1.523 . S
C1505 C1489 1.429 . S
C1505 C1501 1.429 . S
C1505 C1506 1.523 . S
C1506 C1490 1.368 . S
C1506 C1502 1.368 . S
C1506 C1505 1.523 . S
H1507 C1482 0.950 . S
H1508 C1484 0.950 . S
H1509 C1485 0.949 . S
H1510 C1487 0.950 . S
H1511 C1489 0.950 . S
C1512 C1513 1.349 . S
C1512 C1514 1.327 . S
C1512 H1537 0.950 . S
C1513 C1512 1.349 . S
C1513 C1529 1.349 . S
C1514 C1512 1.327 . S
C1514 C1533 1.429 . S
C1514 H1538 0.950 . S
C1515 C1532 1.574 . S
C1515 C1534 1.368 . S
C1515 H1539 0.949 . S
H1516 C1520 0.949 . S
C1517 C1518 1.349 . S
C1517 C1519 1.327 . S
C1517 H1540 0.950 . S
C1518 C1517 1.349 . S
C1518 C1530 1.349 . S
C1519 C1517 1.327 . S
C1519 C1535 1.429 . S
C1519 H1541 0.950 . S
C1520 H1516 0.949 . S
C1520 C1528 1.574 . S
C1520 C1536 1.368 . S
H1521 C1529 0.950 . S
H1522 C1527 0.950 . S
H1523 C1528 0.949 . S
H1524 C1530 0.950 . S
H1525 C1531 0.950 . S
H1526 C1532 0.949 . S
C1527 H1522 0.950 . S
C1527 C1529 1.327 . S
C1527 C1533 1.429 . S
C1528 C1520 1.574 . S
C1528 H1523 0.949 . S
C1528 C1534 1.368 . S
C1529 C1513 1.349 . S
C1529 H1521 0.950 . S
C1529 C1527 1.327 . S
C1530 C1518 1.349 . S
C1530 H1524 0.950 . S
C1530 C1531 1.327 . S
C1531 H1525 0.950 . S
C1531 C1530 1.327 . S
C1531 C1535 1.429 . S
C1532 C1515 1.574 . S
C1532 H1526 0.949 . S
C1532 C1536 1.368 . S
C1533 C1514 1.429 . S
C1533 C1527 1.429 . S
C1533 C1534 1.523 . S
C1534 C1515 1.368 . S
C1534 C1528 1.368 . S
C1534 C1533 1.523 . S
C1535 C1519 1.429 . S
C1535 C1531 1.429 . S
C1535 C1536 1.523 . S
C1536 C1520 1.368 . S
C1536 C1532 1.368 . S
C1536 C1535 1.523 . S
H1537 C1512 0.950 . S
H1538 C1514 0.950 . S
H1539 C1515 0.949 . S
H1540 C1517 0.950 . S
H1541 C1519 0.950 . S
C1542 C1543 1.349 . S
C1542 C1544 1.327 . S
C1542 H1567 0.950 . S
C1543 C1542 1.349 . S
C1543 C1559 1.349 . S
C1544 C1542 1.327 . S
C1544 C1563 1.429 . S
C1544 H1568 0.950 . S
C1545 C1562 1.574 . S
C1545 C1564 1.368 . S
C1545 H1569 0.949 . S
H1546 C1550 0.949 . S
C1547 C1548 1.349 . S
C1547 C1549 1.327 . S
C1547 H1570 0.950 . S
C1548 C1547 1.349 . S
C1548 C1560 1.349 . S
C1549 C1547 1.327 . S
C1549 C1565 1.429 . S
C1549 H1571 0.950 . S
C1550 H1546 0.949 . S
C1550 C1558 1.574 . S
C1550 C1566 1.368 . S
H1551 C1559 0.950 . S
H1552 C1557 0.950 . S
H1553 C1558 0.949 . S
H1554 C1560 0.950 . S
H1555 C1561 0.950 . S
H1556 C1562 0.949 . S
C1557 H1552 0.950 . S
C1557 C1559 1.327 . S
C1557 C1563 1.429 . S
C1558 C1550 1.574 . S
C1558 H1553 0.949 . S
C1558 C1564 1.368 . S
C1559 C1543 1.349 . S
C1559 H1551 0.950 . S
C1559 C1557 1.327 . S
C1560 C1548 1.349 . S
C1560 H1554 0.950 . S
C1560 C1561 1.327 . S
C1561 H1555 0.950 . S
C1561 C1560 1.327 . S
C1561 C1565 1.429 . S
C1562 C1545 1.574 . S
C1562 H1556 0.949 . S
C1562 C1566 1.368 . S
C1563 C1544 1.429 . S
C1563 C1557 1.429 . S
C1563 C1564 1.523 . S
C1564 C1545 1.368 . S
C1564 C1558 1.368 . S
C1564 C1563 1.523 . S
C1565 C1549 1.429 . S
C1565 C1561 1.429 . S
C1565 C1566 1.523 . S
C1566 C1550 1.368 . S
C1566 C1562 1.368 . S
C1566 C1565 1.523 . S
H1567 C1542 0.950 . S
H1568 C1544 0.950 . S
H1569 C1545 0.949 . S
H1570 C1547 0.950 . S
H1571 C1549 0.950 . S
C1572 C1573 1.349 . S
C1572 C1574 1.327 . S
C1572 H1597 0.950 . S
C1573 C1572 1.349 . S
C1573 C1589 1.349 . S
C1574 C1572 1.327 . S
C1574 C1593 1.429 . S
C1574 H1598 0.950 . S
C1575 C1592 1.574 . S
C1575 C1594 1.368 . S
C1575 H1599 0.949 . S
H1576 C1580 0.949 . S
C1577 C1578 1.349 . S
C1577 C1579 1.327 . S
C1577 H1600 0.950 . S
C1578 C1577 1.349 . S
C1578 C1590 1.349 . S
C1579 C1577 1.327 . S
C1579 C1595 1.429 . S
C1579 H1601 0.950 . S
C1580 H1576 0.949 . S
C1580 C1588 1.574 . S
C1580 C1596 1.368 . S
H1581 C1589 0.950 . S
H1582 C1587 0.950 . S
H1583 C1588 0.949 . S
H1584 C1590 0.950 . S
H1585 C1591 0.950 . S
H1586 C1592 0.949 . S
C1587 H1582 0.950 . S
C1587 C1589 1.327 . S
C1587 C1593 1.429 . S
C1588 C1580 1.574 . S
C1588 H1583 0.949 . S
C1588 C1594 1.368 . S
C1589 C1573 1.349 . S
C1589 H1581 0.950 . S
C1589 C1587 1.327 . S
C1590 C1578 1.349 . S
C1590 H1584 0.950 . S
C1590 C1591 1.327 . S
C1591 H1585 0.950 . S
C1591 C1590 1.327 . S
C1591 C1595 1.429 . S
C1592 C1575 1.574 . S
C1592 H1586 0.949 . S
C1592 C1596 1.368 . S
C1593 C1574 1.429 . S
C1593 C1587 1.429 . S
C1593 C1594 1.523 . S
C1594 C1575 1.368 . S
C1594 C1588 1.368 . S
C1594 C1593 1.523 . S
C1595 C1579 1.429 . S
C1595 C1591 1.429 . S
C1595 C1596 1.523 . S
C1596 C1580 1.368 . S
C1596 C1592 1.368 . S
C1596 C1595 1.523 . S
H1597 C1572 0.950 . S
H1598 C1574 0.950 . S
H1599 C1575 0.949 . S
H1600 C1577 0.950 . S
H1601 C1579 0.950 . S
C1602 C1603 1.349 . S
C1602 C1604 1.327 . S
C1602 H1627 0.950 . S
C1603 C1602 1.349 . S
C1603 C1619 1.349 . S
C1604 C1602 1.327 . S
C1604 C1623 1.429 . S
C1604 H1628 0.950 . S
C1605 C1622 1.574 . S
C1605 C1624 1.368 . S
C1605 H1629 0.949 . S
H1606 C1610 0.949 . S
C1607 C1608 1.349 . S
C1607 C1609 1.327 . S
C1607 H1630 0.950 . S
C1608 C1607 1.349 . S
C1608 C1620 1.349 . S
C1609 C1607 1.327 . S
C1609 C1625 1.429 . S
C1609 H1631 0.950 . S
C1610 H1606 0.949 . S
C1610 C1618 1.574 . S
C1610 C1626 1.368 . S
H1611 C1619 0.950 . S
H1612 C1617 0.950 . S
H1613 C1618 0.949 . S
H1614 C1620 0.950 . S
H1615 C1621 0.950 . S
H1616 C1622 0.949 . S
C1617 H1612 0.950 . S
C1617 C1619 1.327 . S
C1617 C1623 1.429 . S
C1618 C1610 1.574 . S
C1618 H1613 0.949 . S
C1618 C1624 1.368 . S
C1619 C1603 1.349 . S
C1619 H1611 0.950 . S
C1619 C1617 1.327 . S
C1620 C1608 1.349 . S
C1620 H1614 0.950 . S
C1620 C1621 1.327 . S
C1621 H1615 0.950 . S
C1621 C1620 1.327 . S
C1621 C1625 1.429 . S
C1622 C1605 1.574 . S
C1622 H1616 0.949 . S
C1622 C1626 1.368 . S
C1623 C1604 1.429 . S
C1623 C1617 1.429 . S
C1623 C1624 1.523 . S
C1624 C1605 1.368 . S
C1624 C1618 1.368 . S
C1624 C1623 1.523 . S
C1625 C1609 1.429 . S
C1625 C1621 1.429 . S
C1625 C1626 1.523 . S
C1626 C1610 1.368 . S
C1626 C1622 1.368 . S
C1626 C1625 1.523 . S
H1627 C1602 0.950 . S
H1628 C1604 0.950 . S
H1629 C1605 0.949 . S
H1630 C1607 0.950 . S
H1631 C1609 0.950 . S
C1632 C1633 1.349 . S
C1632 C1634 1.327 . S
C1632 H1657 0.950 . S
C1633 C1632 1.349 . S
C1633 C1649 1.349 . S
C1634 C1632 1.327 . S
C1634 C1653 1.429 . S
C1634 H1658 0.950 . S
C1635 C1652 1.574 . S
C1635 C1654 1.368 . S
C1635 H1659 0.949 . S
H1636 C1640 0.949 . S
C1637 C1638 1.349 . S
C1637 C1639 1.327 . S
C1637 H1660 0.950 . S
C1638 C1637 1.349 . S
C1638 C1650 1.349 . S
C1639 C1637 1.327 . S
C1639 C1655 1.429 . S
C1639 H1661 0.950 . S
C1640 H1636 0.949 . S
C1640 C1648 1.574 . S
C1640 C1656 1.368 . S
H1641 C1649 0.950 . S
H1642 C1647 0.950 . S
H1643 C1648 0.949 . S
H1644 C1650 0.950 . S
H1645 C1651 0.950 . S
H1646 C1652 0.949 . S
C1647 H1642 0.950 . S
C1647 C1649 1.327 . S
C1647 C1653 1.429 . S
C1648 C1640 1.574 . S
C1648 H1643 0.949 . S
C1648 C1654 1.368 . S
C1649 C1633 1.349 . S
C1649 H1641 0.950 . S
C1649 C1647 1.327 . S
C1650 C1638 1.349 . S
C1650 H1644 0.950 . S
C1650 C1651 1.327 . S
C1651 H1645 0.950 . S
C1651 C1650 1.327 . S
C1651 C1655 1.429 . S
C1652 C1635 1.574 . S
C1652 H1646 0.949 . S
C1652 C1656 1.368 . S
C1653 C1634 1.429 . S
C1653 C1647 1.429 . S
C1653 C1654 1.523 . S
C1654 C1635 1.368 . S
C1654 C1648 1.368 . S
C1654 C1653 1.523 . S
C1655 C1639 1.429 . S
C1655 C1651 1.429 . S
C1655 C1656 1.523 . S
C1656 C1640 1.368 . S
C1656 C1652 1.368 . S
C1656 C1655 1.523 . S
H1657 C1632 0.950 . S
H1658 C1634 0.950 . S
H1659 C1635 0.949 . S
H1660 C1637 0.950 . S
H1661 C1639 0.950 . S
C1662 C1663 1.349 . S
C1662 C1664 1.327 . S
C1662 H1687 0.950 . S
C1663 C1662 1.349 . S
C1663 C1679 1.349 . S
C1664 C1662 1.327 . S
C1664 C1683 1.429 . S
C1664 H1688 0.950 . S
C1665 C1682 1.574 . S
C1665 C1684 1.368 . S
C1665 H1689 0.949 . S
H1666 C1670 0.949 . S
C1667 C1668 1.349 . S
C1667 C1669 1.327 . S
C1667 H1690 0.950 . S
C1668 C1667 1.349 . S
C1668 C1680 1.349 . S
C1669 C1667 1.327 . S
C1669 C1685 1.429 . S
C1669 H1691 0.950 . S
C1670 H1666 0.949 . S
C1670 C1678 1.574 . S
C1670 C1686 1.368 . S
H1671 C1679 0.950 . S
H1672 C1677 0.950 . S
H1673 C1678 0.949 . S
H1674 C1680 0.950 . S
H1675 C1681 0.950 . S
H1676 C1682 0.949 . S
C1677 H1672 0.950 . S
C1677 C1679 1.327 . S
C1677 C1683 1.429 . S
C1678 C1670 1.574 . S
C1678 H1673 0.949 . S
C1678 C1684 1.368 . S
C1679 C1663 1.349 . S
C1679 H1671 0.950 . S
C1679 C1677 1.327 . S
C1680 C1668 1.349 . S
C1680 H1674 0.950 . S
C1680 C1681 1.327 . S
C1681 H1675 0.950 . S
C1681 C1680 1.327 . S
C1681 C1685 1.429 . S
C1682 C1665 1.574 . S
C1682 H1676 0.949 . S
C1682 C1686 1.368 . S
C1683 C1664 1.429 . S
C1683 C1677 1.429 . S
C1683 C1684 1.523 . S
C1684 C1665 1.368 . S
C1684 C1678 1.368 . S
C1684 C1683 1.523 . S
C1685 C1669 1.429 . S
C1685 C1681 1.429 . S
C1685 C1686 1.523 . S
C1686 C1670 1.368 . S
C1686 C1682 1.368 . S
C1686 C1685 1.523 . S
H1687 C1662 0.950 . S
H1688 C1664 0.950 . S
H1689 C1665 0.949 . S
H1690 C1667 0.950 . S
H1691 C1669 0.950 . S
C1692 C1693 1.349 . S
C1692 C1694 1.327 . S
C1692 H1717 0.950 . S
C1693 C1692 1.349 . S
C1693 C1709 1.349 . S
C1694 C1692 1.327 . S
C1694 C1713 1.429 . S
C1694 H1718 0.950 . S
C1695 C1712 1.574 . S
C1695 C1714 1.368 . S
C1695 H1719 0.949 . S
H1696 C1700 0.949 . S
C1697 C1698 1.349 . S
C1697 C1699 1.327 . S
C1697 H1720 0.950 . S
C1698 C1697 1.349 . S
C1698 C1710 1.349 . S
C1699 C1697 1.327 . S
C1699 C1715 1.429 . S
C1699 H1721 0.950 . S
C1700 H1696 0.949 . S
C1700 C1708 1.574 . S
C1700 C1716 1.368 . S
H1701 C1709 0.950 . S
H1702 C1707 0.950 . S
H1703 C1708 0.949 . S
H1704 C1710 0.950 . S
H1705 C1711 0.950 . S
H1706 C1712 0.949 . S
C1707 H1702 0.950 . S
C1707 C1709 1.327 . S
C1707 C1713 1.429 . S
C1708 C1700 1.574 . S
C1708 H1703 0.949 . S
C1708 C1714 1.368 . S
C1709 C1693 1.349 . S
C1709 H1701 0.950 . S
C1709 C1707 1.327 . S
C1710 C1698 1.349 . S
C1710 H1704 0.950 . S
C1710 C1711 1.327 . S
C1711 H1705 0.950 . S
C1711 C1710 1.327 . S
C1711 C1715 1.429 . S
C1712 C1695 1.574 . S
C1712 H1706 0.949 . S
C1712 C1716 1.368 . S
C1713 C1694 1.429 . S
C1713 C1707 1.429 . S
C1713 C1714 1.523 . S
C1714 C1695 1.368 . S
C1714 C1708 1.368 . S
C1714 C1713 1.523 . S
C1715 C1699 1.429 . S
C1715 C1711 1.429 . S
C1715 C1716 1.523 . S
C1716 C1700 1.368 . S
C1716 C1712 1.368 . S
C1716 C1715 1.523 . S
H1717 C1692 0.950 . S
H1718 C1694 0.950 . S
H1719 C1695 0.949 . S
H1720 C1697 0.950 . S
H1721 C1699 0.950 . S
C1722 C1723 1.349 . S
C1722 C1724 1.327 . S
C1722 H1747 0.950 . S
C1723 C1722 1.349 . S
C1723 C1739 1.349 . S
C1724 C1722 1.327 . S
C1724 C1743 1.429 . S
C1724 H1748 0.950 . S
C1725 C1742 1.574 . S
C1725 C1744 1.368 . S
C1725 H1749 0.949 . S
H1726 C1730 0.949 . S
C1727 C1728 1.349 . S
C1727 C1729 1.327 . S
C1727 H1750 0.950 . S
C1728 C1727 1.349 . S
C1728 C1740 1.349 . S
C1729 C1727 1.327 . S
C1729 C1745 1.429 . S
C1729 H1751 0.950 . S
C1730 H1726 0.949 . S
C1730 C1738 1.574 . S
C1730 C1746 1.368 . S
H1731 C1739 0.950 . S
H1732 C1737 0.950 . S
H1733 C1738 0.949 . S
H1734 C1740 0.950 . S
H1735 C1741 0.950 . S
H1736 C1742 0.949 . S
C1737 H1732 0.950 . S
C1737 C1739 1.327 . S
C1737 C1743 1.429 . S
C1738 C1730 1.574 . S
C1738 H1733 0.949 . S
C1738 C1744 1.368 . S
C1739 C1723 1.349 . S
C1739 H1731 0.950 . S
C1739 C1737 1.327 . S
C1740 C1728 1.349 . S
C1740 H1734 0.950 . S
C1740 C1741 1.327 . S
C1741 H1735 0.950 . S
C1741 C1740 1.327 . S
C1741 C1745 1.429 . S
C1742 C1725 1.574 . S
C1742 H1736 0.949 . S
C1742 C1746 1.368 . S
C1743 C1724 1.429 . S
C1743 C1737 1.429 . S
C1743 C1744 1.523 . S
C1744 C1725 1.368 . S
C1744 C1738 1.368 . S
C1744 C1743 1.523 . S
C1745 C1729 1.429 . S
C1745 C1741 1.429 . S
C1745 C1746 1.523 . S
C1746 C1730 1.368 . S
C1746 C1742 1.368 . S
C1746 C1745 1.523 . S
H1747 C1722 0.950 . S
H1748 C1724 0.950 . S
H1749 C1725 0.949 . S
H1750 C1727 0.950 . S
H1751 C1729 0.950 . S
C1752 C1753 1.349 . S
C1752 C1754 1.327 . S
C1752 H1777 0.950 . S
C1753 C1752 1.349 . S
C1753 C1769 1.349 . S
C1754 C1752 1.327 . S
C1754 C1773 1.429 . S
C1754 H1778 0.950 . S
C1755 C1772 1.574 . S
C1755 C1774 1.368 . S
C1755 H1779 0.949 . S
H1756 C1760 0.949 . S
C1757 C1758 1.349 . S
C1757 C1759 1.327 . S
C1757 H1780 0.950 . S
C1758 C1757 1.349 . S
C1758 C1770 1.349 . S
C1759 C1757 1.327 . S
C1759 C1775 1.429 . S
C1759 H1781 0.950 . S
C1760 H1756 0.949 . S
C1760 C1768 1.574 . S
C1760 C1776 1.368 . S
H1761 C1769 0.950 . S
H1762 C1767 0.950 . S
H1763 C1768 0.949 . S
H1764 C1770 0.950 . S
H1765 C1771 0.950 . S
H1766 C1772 0.949 . S
C1767 H1762 0.950 . S
C1767 C1769 1.327 . S
C1767 C1773 1.429 . S
C1768 C1760 1.574 . S
C1768 H1763 0.949 . S
C1768 C1774 1.368 . S
C1769 C1753 1.349 . S
C1769 H1761 0.950 . S
C1769 C1767 1.327 . S
C1770 C1758 1.349 . S
C1770 H1764 0.950 . S
C1770 C1771 1.327 . S
C1771 H1765 0.950 . S
C1771 C1770 1.327 . S
C1771 C1775 1.429 . S
C1772 C1755 1.574 . S
C1772 H1766 0.949 . S
C1772 C1776 1.368 . S
C1773 C1754 1.429 . S
C1773 C1767 1.429 . S
C1773 C1774 1.523 . S
C1774 C1755 1.368 . S
C1774 C1768 1.368 . S
C1774 C1773 1.523 . S
C1775 C1759 1.429 . S
C1775 C1771 1.429 . S
C1775 C1776 1.523 . S
C1776 C1760 1.368 . S
C1776 C1772 1.368 . S
C1776 C1775 1.523 . S
H1777 C1752 0.950 . S
H1778 C1754 0.950 . S
H1779 C1755 0.949 . S
H1780 C1757 0.950 . S
H1781 C1759 0.950 . S
C1782 C1783 1.349 . S
C1782 C1784 1.327 . S
C1782 H1807 0.950 . S
C1783 C1782 1.349 . S
C1783 C1799 1.349 . S
C1784 C1782 1.327 . S
C1784 C1803 1.429 . S
C1784 H1808 0.950 . S
C1785 C1802 1.574 . S
C1785 C1804 1.368 . S
C1785 H1809 0.949 . S
H1786 C1790 0.949 . S
C1787 C1788 1.349 . S
C1787 C1789 1.327 . S
C1787 H1810 0.950 . S
C1788 C1787 1.349 . S
C1788 C1800 1.349 . S
C1789 C1787 1.327 . S
C1789 C1805 1.429 . S
C1789 H1811 0.950 . S
C1790 H1786 0.949 . S
C1790 C1798 1.574 . S
C1790 C1806 1.368 . S
H1791 C1799 0.950 . S
H1792 C1797 0.950 . S
H1793 C1798 0.949 . S
H1794 C1800 0.950 . S
H1795 C1801 0.950 . S
H1796 C1802 0.949 . S
C1797 H1792 0.950 . S
C1797 C1799 1.327 . S
C1797 C1803 1.429 . S
C1798 C1790 1.574 . S
C1798 H1793 0.949 . S
C1798 C1804 1.368 . S
C1799 C1783 1.349 . S
C1799 H1791 0.950 . S
C1799 C1797 1.327 . S
C1800 C1788 1.349 . S
C1800 H1794 0.950 . S
C1800 C1801 1.327 . S
C1801 H1795 0.950 . S
C1801 C1800 1.327 . S
C1801 C1805 1.429 . S
C1802 C1785 1.574 . S
C1802 H1796 0.949 . S
C1802 C1806 1.368 . S
C1803 C1784 1.429 . S
C1803 C1797 1.429 . S
C1803 C1804 1.523 . S
C1804 C1785 1.368 . S
C1804 C1798 1.368 . S
C1804 C1803 1.523 . S
C1805 C1789 1.429 . S
C1805 C1801 1.429 . S
C1805 C1806 1.523 . S
C1806 C1790 1.368 . S
C1806 C1802 1.368 . S
C1806 C1805 1.523 . S
H1807 C1782 0.950 . S
H1808 C1784 0.950 . S
H1809 C1785 0.949 . S
H1810 C1787 0.950 . S
H1811 C1789 0.950 . S
C1812 C1813 1.349 . S
C1812 C1814 1.327 . S
C1812 H1837 0.950 . S
C1813 C1812 1.349 . S
C1813 C1829 1.349 . S
C1814 C1812 1.327 . S
C1814 C1833 1.429 . S
C1814 H1838 0.950 . S
C1815 C1832 1.574 . S
C1815 C1834 1.368 . S
C1815 H1839 0.949 . S
H1816 C1820 0.949 . S
C1817 C1818 1.349 . S
C1817 C1819 1.327 . S
C1817 H1840 0.950 . S
C1818 C1817 1.349 . S
C1818 C1830 1.349 . S
C1819 C1817 1.327 . S
C1819 C1835 1.429 . S
C1819 H1841 0.950 . S
C1820 H1816 0.949 . S
C1820 C1828 1.574 . S
C1820 C1836 1.368 . S
H1821 C1829 0.950 . S
H1822 C1827 0.950 . S
H1823 C1828 0.949 . S
H1824 C1830 0.950 . S
H1825 C1831 0.950 . S
H1826 C1832 0.949 . S
C1827 H1822 0.950 . S
C1827 C1829 1.327 . S
C1827 C1833 1.429 . S
C1828 C1820 1.574 . S
C1828 H1823 0.949 . S
C1828 C1834 1.368 . S
C1829 C1813 1.349 . S
C1829 H1821 0.950 . S
C1829 C1827 1.327 . S
C1830 C1818 1.349 . S
C1830 H1824 0.950 . S
C1830 C1831 1.327 . S
C1831 H1825 0.950 . S
C1831 C1830 1.327 . S
C1831 C1835 1.429 . S
C1832 C1815 1.574 . S
C1832 H1826 0.949 . S
C1832 C1836 1.368 . S
C1833 C1814 1.429 . S
C1833 C1827 1.429 . S
C1833 C1834 1.523 . S
C1834 C1815 1.368 . S
C1834 C1828 1.368 . S
C1834 C1833 1.523 . S
C1835 C1819 1.429 . S
C1835 C1831 1.429 . S
C1835 C1836 1.523 . S
C1836 C1820 1.368 . S
C1836 C1832 1.368 . S
C1836 C1835 1.523 . S
H1837 C1812 0.950 . S
H1838 C1814 0.950 . S
H1839 C1815 0.949 . S
H1840 C1817 0.950 . S
H1841 C1819 0.950 . S
C1842 C1843 1.349 . S
C1842 C1844 1.327 . S
C1842 H1867 0.950 . S
C1843 C1842 1.349 . S
C1843 C1859 1.349 . S
C1844 C1842 1.327 . S
C1844 C1863 1.429 . S
C1844 H1868 0.950 . S
C1845 C1862 1.574 . S
C1845 C1864 1.368 . S
C1845 H1869 0.949 . S
H1846 C1850 0.949 . S
C1847 C1848 1.349 . S
C1847 C1849 1.327 . S
C1847 H1870 0.950 . S
C1848 C1847 1.349 . S
C1848 C1860 1.349 . S
C1849 C1847 1.327 . S
C1849 C1865 1.429 . S
C1849 H1871 0.950 . S
C1850 H1846 0.949 . S
C1850 C1858 1.574 . S
C1850 C1866 1.368 . S
H1851 C1859 0.950 . S
H1852 C1857 0.950 . S
H1853 C1858 0.949 . S
H1854 C1860 0.950 . S
H1855 C1861 0.950 . S
H1856 C1862 0.949 . S
C1857 H1852 0.950 . S
C1857 C1859 1.327 . S
C1857 C1863 1.429 . S
C1858 C1850 1.574 . S
C1858 H1853 0.949 . S
C1858 C1864 1.368 . S
C1859 C1843 1.349 . S
C1859 H1851 0.950 . S
C1859 C1857 1.327 . S
C1860 C1848 1.349 . S
C1860 H1854 0.950 . S
C1860 C1861 1.327 . S
C1861 H1855 0.950 . S
C1861 C1860 1.327 . S
C1861 C1865 1.429 . S
C1862 C1845 1.574 . S
C1862 H1856 0.949 . S
C1862 C1866 1.368 . S
C1863 C1844 1.429 . S
C1863 C1857 1.429 . S
C1863 C1864 1.523 . S
C1864 C1845 1.368 . S
C1864 C1858 1.368 . S
C1864 C1863 1.523 . S
C1865 C1849 1.429 . S
C1865 C1861 1.429 . S
C1865 C1866 1.523 . S
C1866 C1850 1.368 . S
C1866 C1862 1.368 . S
C1866 C1865 1.523 . S
H1867 C1842 0.950 . S
H1868 C1844 0.950 . S
H1869 C1845 0.949 . S
H1870 C1847 0.950 . S
H1871 C1849 0.950 . S
C1872 C1873 1.349 . S
C1872 C1874 1.327 . S
C1872 H1897 0.950 . S
C1873 C1872 1.349 . S
C1873 C1889 1.349 . S
C1874 C1872 1.327 . S
C1874 C1893 1.429 . S
C1874 H1898 0.950 . S
C1875 C1892 1.574 . S
C1875 C1894 1.368 . S
C1875 H1899 0.949 . S
H1876 C1880 0.949 . S
C1877 C1878 1.349 . S
C1877 C1879 1.327 . S
C1877 H1900 0.950 . S
C1878 C1877 1.349 . S
C1878 C1890 1.349 . S
C1879 C1877 1.327 . S
C1879 C1895 1.429 . S
C1879 H1901 0.950 . S
C1880 H1876 0.949 . S
C1880 C1888 1.574 . S
C1880 C1896 1.368 . S
H1881 C1889 0.950 . S
H1882 C1887 0.950 . S
H1883 C1888 0.949 . S
H1884 C1890 0.950 . S
H1885 C1891 0.950 . S
H1886 C1892 0.949 . S
C1887 H1882 0.950 . S
C1887 C1889 1.327 . S
C1887 C1893 1.429 . S
C1888 C1880 1.574 . S
C1888 H1883 0.949 . S
C1888 C1894 1.368 . S
C1889 C1873 1.349 . S
C1889 H1881 0.950 . S
C1889 C1887 1.327 . S
C1890 C1878 1.349 . S
C1890 H1884 0.950 . S
C1890 C1891 1.327 . S
C1891 H1885 0.950 . S
C1891 C1890 1.327 . S
C1891 C1895 1.429 . S
C1892 C1875 1.574 . S
C1892 H1886 0.949 . S
C1892 C1896 1.368 . S
C1893 C1874 1.429 . S
C1893 C1887 1.429 . S
C1893 C1894 1.523 . S
C1894 C1875 1.368 . S
C1894 C1888 1.368 . S
C1894 C1893 1.523 . S
C1895 C1879 1.429 . S
C1895 C1891 1.429 . S
C1895 C1896 1.523 . S
C1896 C1880 1.368 . S
C1896 C1892 1.368 . S
C1896 C1895 1.523 . S
H1897 C1872 0.950 . S
H1898 C1874 0.950 . S
H1899 C1875 0.949 . S
H1900 C1877 0.950 . S
H1901 C1879 0.950 . S
C1902 C1903 1.349 . S
C1902 C1904 1.327 . S
C1902 H1927 0.950 . S
C1903 C1902 1.349 . S
C1903 C1919 1.349 . S
C1904 C1902 1.327 . S
C1904 C1923 1.429 . S
C1904 H1928 0.950 . S
C1905 C1922 1.574 . S
C1905 C1924 1.368 . S
C1905 H1929 0.949 . S
H1906 C1910 0.949 . S
C1907 C1908 1.349 . S
C1907 C1909 1.327 . S
C1907 H1930 0.950 . S
C1908 C1907 1.349 . S
C1908 C1920 1.349 . S
C1909 C1907 1.327 . S
C1909 C1925 1.429 . S
C1909 H1931 0.950 . S
C1910 H1906 0.949 . S
C1910 C1918 1.574 . S
C1910 C1926 1.368 . S
H1911 C1919 0.950 . S
H1912 C1917 0.950 . S
H1913 C1918 0.949 . S
H1914 C1920 0.950 . S
H1915 C1921 0.950 . S
H1916 C1922 0.949 . S
C1917 H1912 0.950 . S
C1917 C1919 1.327 . S
C1917 C1923 1.429 . S
C1918 C1910 1.574 . S
C1918 H1913 0.949 . S
C1918 C1924 1.368 . S
C1919 C1903 1.349 . S
C1919 H1911 0.950 . S
C1919 C1917 1.327 . S
C1920 C1908 1.349 . S
C1920 H1914 0.950 . S
C1920 C1921 1.327 . S
C1921 H1915 0.950 . S
C1921 C1920 1.327 . S
C1921 C1925 1.429 . S
C1922 C1905 1.574 . S
C1922 H1916 0.949 . S
C1922 C1926 1.368 . S
C1923 C1904 1.429 . S
C1923 C1917 1.429 . S
C1923 C1924 1.523 . S
C1924 C1905 1.368 . S
C1924 C1918 1.368 . S
C1924 C1923 1.523 . S
C1925 C1909 1.429 . S
C1925 C1921 1.429 . S
C1925 C1926 1.523 . S
C1926 C1910 1.368 . S
C1926 C1922 1.368 . S
C1926 C1925 1.523 . S
H1927 C1902 0.950 . S
H1928 C1904 0.950 . S
H1929 C1905 0.949 . S
H1930 C1907 0.950 . S
H1931 C1909 0.950 . S
C1932 C1933 1.349 . S
C1932 C1934 1.327 . S
C1932 H1957 0.950 . S
C1933 C1932 1.349 . S
C1933 C1949 1.349 . S
C1934 C1932 1.327 . S
C1934 C1953 1.429 . S
C1934 H1958 0.950 . S
C1935 C1952 1.574 . S
C1935 C1954 1.368 . S
C1935 H1959 0.949 . S
H1936 C1940 0.949 . S
C1937 C1938 1.349 . S
C1937 C1939 1.327 . S
C1937 H1960 0.950 . S
C1938 C1937 1.349 . S
C1938 C1950 1.349 . S
C1939 C1937 1.327 . S
C1939 C1955 1.429 . S
C1939 H1961 0.950 . S
C1940 H1936 0.949 . S
C1940 C1948 1.574 . S
C1940 C1956 1.368 . S
H1941 C1949 0.950 . S
H1942 C1947 0.950 . S
H1943 C1948 0.949 . S
H1944 C1950 0.950 . S
H1945 C1951 0.950 . S
H1946 C1952 0.949 . S
C1947 H1942 0.950 . S
C1947 C1949 1.327 . S
C1947 C1953 1.429 . S
C1948 C1940 1.574 . S
C1948 H1943 0.949 . S
C1948 C1954 1.368 . S
C1949 C1933 1.349 . S
C1949 H1941 0.950 . S
C1949 C1947 1.327 . S
C1950 C1938 1.349 . S
C1950 H1944 0.950 . S
C1950 C1951 1.327 . S
C1951 H1945 0.950 . S
C1951 C1950 1.327 . S
C1951 C1955 1.429 . S
C1952 C1935 1.574 . S
C1952 H1946 0.949 . S
C1952 C1956 1.368 . S
C1953 C1934 1.429 . S
C1953 C1947 1.429 . S
C1953 C1954 1.523 . S
C1954 C1935 1.368 . S
C1954 C1948 1.368 . S
C1954 C1953 1.523 . S
C1955 C1939 1.429 . S
C1955 C1951 1.429 . S
C1955 C1956 1.523 . S
C1956 C1940 1.368 . S
C1956 C1952 1.368 . S
C1956 C1955 1.523 . S
H1957 C1932 0.950 . S
H1958 C1934 0.950 . S
H1959 C1935 0.949 . S
H1960 C1937 0.950 . S
H1961 C1939 0.950 . S
C1962 C1963 1.349 . S
C1962 C1964 1.327 . S
C1962 H1987 0.950 . S
C1963 C1962 1.349 . S
C1963 C1979 1.349 . S
C1964 C1962 1.327 . S
C1964 C1983 1.429 . S
C1964 H1988 0.950 . S
C1965 C1982 1.574 . S
C1965 C1984 1.368 . S
C1965 H1989 0.949 . S
H1966 C1970 0.949 . S
C1967 C1968 1.349 . S
C1967 C1969 1.327 . S
C1967 H1990 0.950 . S
C1968 C1967 1.349 . S
C1968 C1980 1.349 . S
C1969 C1967 1.327 . S
C1969 C1985 1.429 . S
C1969 H1991 0.950 . S
C1970 H1966 0.949 . S
C1970 C1978 1.574 . S
C1970 C1986 1.368 . S
H1971 C1979 0.950 . S
H1972 C1977 0.950 . S
H1973 C1978 0.949 . S
H1974 C1980 0.950 . S
H1975 C1981 0.950 . S
H1976 C1982 0.949 . S
C1977 H1972 0.950 . S
C1977 C1979 1.327 . S
C1977 C1983 1.429 . S
C1978 C1970 1.574 . S
C1978 H1973 0.949 . S
C1978 C1984 1.368 . S
C1979 C1963 1.349 . S
C1979 H1971 0.950 . S
C1979 C1977 1.327 . S
C1980 C1968 1.349 . S
C1980 H1974 0.950 . S
C1980 C1981 1.327 . S
C1981 H1975 0.950 . S
C1981 C1980 1.327 . S
C1981 C1985 1.429 . S
C1982 C1965 1.574 . S
C1982 H1976 0.949 . S
C1982 C1986 1.368 . S
C1983 C1964 1.429 . S
C1983 C1977 1.429 . S
C1983 C1984 1.523 . S
C1984 C1965 1.368 . S
C1984 C1978 1.368 . S
C1984 C1983 1.523 . S
C1985 C1969 1.429 . S
C1985 C1981 1.429 . S
C1985 C1986 1.523 . S
C1986 C1970 1.368 . S
C1986 C1982 1.368 . S
C1986 C1985 1.523 . S
H1987 C1962 0.950 . S
H1988 C1964 0.950 . S
H1989 C1965 0.949 . S
H1990 C1967 0.950 . S
H1991 C1969 0.950 . S
C1992 C1993 1.349 . S
C1992 C1994 1.327 . S
C1992 H2017 0.950 . S
C1993 C1992 1.349 . S
C1993 C2009 1.349 . S
C1994 C1992 1.327 . S
C1994 C2013 1.429 . S
C1994 H2018 0.950 . S
C1995 C2012 1.574 . S
C1995 C2014 1.368 . S
C1995 H2019 0.949 . S
H1996 C2000 0.949 . S
C1997 C1998 1.349 . S
C1997 C1999 1.327 . S
C1997 H2020 0.950 . S
C1998 C1997 1.349 . S
C1998 C2010 1.349 . S
C1999 C1997 1.327 . S
C1999 C2015 1.429 . S
C1999 H2021 0.950 . S
C2000 H1996 0.949 . S
C2000 C2008 1.574 . S
C2000 C2016 1.368 . S
H2001 C2009 0.950 . S
H2002 C2007 0.950 . S
H2003 C2008 0.949 . S
H2004 C2010 0.950 . S
H2005 C2011 0.950 . S
H2006 C2012 0.949 . S
C2007 H2002 0.950 . S
C2007 C2009 1.327 . S
C2007 C2013 1.429 . S
C2008 C2000 1.574 . S
C2008 H2003 0.949 . S
C2008 C2014 1.368 . S
C2009 C1993 1.349 . S
C2009 H2001 0.950 . S
C2009 C2007 1.327 . S
C2010 C1998 1.349 . S
C2010 H2004 0.950 . S
C2010 C2011 1.327 . S
C2011 H2005 0.950 . S
C2011 C2010 1.327 . S
C2011 C2015 1.429 . S
C2012 C1995 1.574 . S
C2012 H2006 0.949 . S
C2012 C2016 1.368 . S
C2013 C1994 1.429 . S
C2013 C2007 1.429 . S
C2013 C2014 1.523 . S
C2014 C1995 1.368 . S
C2014 C2008 1.368 . S
C2014 C2013 1.523 . S
C2015 C1999 1.429 . S
C2015 C2011 1.429 . S
C2015 C2016 1.523 . S
C2016 C2000 1.368 . S
C2016 C2012 1.368 . S
C2016 C2015 1.523 . S
H2017 C1992 0.950 . S
H2018 C1994 0.950 . S
H2019 C1995 0.949 . S
H2020 C1997 0.950 . S
H2021 C1999 0.950 . S
C2022 C2023 1.349 . S
C2022 C2024 1.327 . S
C2022 H2047 0.950 . S
C2023 C2022 1.349 . S
C2023 C2039 1.349 . S
C2024 C2022 1.327 . S
C2024 C2043 1.429 . S
C2024 H2048 0.950 . S
C2025 C2042 1.574 . S
C2025 C2044 1.368 . S
C2025 H2049 0.949 . S
H2026 C2030 0.949 . S
C2027 C2028 1.349 . S
C2027 C2029 1.327 . S
C2027 H2050 0.950 . S
C2028 C2027 1.349 . S
C2028 C2040 1.349 . S
C2029 C2027 1.327 . S
C2029 C2045 1.429 . S
C2029 H2051 0.950 . S
C2030 H2026 0.949 . S
C2030 C2038 1.574 . S
C2030 C2046 1.368 . S
H2031 C2039 0.950 . S
H2032 C2037 0.950 . S
H2033 C2038 0.949 . S
H2034 C2040 0.950 . S
H2035 C2041 0.950 . S
H2036 C2042 0.949 . S
C2037 H2032 0.950 . S
C2037 C2039 1.327 . S
C2037 C2043 1.429 . S
C2038 C2030 1.574 . S
C2038 H2033 0.949 . S
C2038 C2044 1.368 . S
C2039 C2023 1.349 . S
C2039 H2031 0.950 . S
C2039 C2037 1.327 . S
C2040 C2028 1.349 . S
C2040 H2034 0.950 . S
C2040 C2041 1.327 . S
C2041 H2035 0.950 . S
C2041 C2040 1.327 . S
C2041 C2045 1.429 . S
C2042 C2025 1.574 . S
C2042 H2036 0.949 . S
C2042 C2046 1.368 . S
C2043 C2024 1.429 . S
C2043 C2037 1.429 . S
C2043 C2044 1.523 . S
C2044 C2025 1.368 . S
C2044 C2038 1.368 . S
C2044 C2043 1.523 . S
C2045 C2029 1.429 . S
C2045 C2041 1.429 . S
C2045 C2046 1.523 . S
C2046 C2030 1.368 . S
C2046 C2042 1.368 . S
C2046 C2045 1.523 . S
H2047 C2022 0.950 . S
H2048 C2024 0.950 . S
H2049 C2025 0.949 . S
H2050 C2027 0.950 . S
H2051 C2029 0.950 . S
C2052 C2053 1.349 . S
C2052 C2054 1.327 . S
C2052 H2077 0.950 . S
C2053 C2052 1.349 . S
C2053 C2069 1.349 . S
C2054 C2052 1.327 . S
C2054 C2073 1.429 . S
C2054 H2078 0.950 . S
C2055 C2072 1.574 . S
C2055 C2074 1.368 . S
C2055 H2079 0.949 . S
H2056 C2060 0.949 . S
C2057 C2058 1.349 . S
C2057 C2059 1.327 . S
C2057 H2080 0.950 . S
C2058 C2057 1.349 . S
C2058 C2070 1.349 . S
C2059 C2057 1.327 . S
C2059 C2075 1.429 . S
C2059 H2081 0.950 . S
C2060 H2056 0.949 . S
C2060 C2068 1.574 . S
C2060 C2076 1.368 . S
H2061 C2069 0.950 . S
H2062 C2067 0.950 . S
H2063 C2068 0.949 . S
H2064 C2070 0.950 . S
H2065 C2071 0.950 . S
H2066 C2072 0.949 . S
C2067 H2062 0.950 . S
C2067 C2069 1.327 . S
C2067 C2073 1.429 . S
C2068 C2060 1.574 . S
C2068 H2063 0.949 . S
C2068 C2074 1.368 . S
C2069 C2053 1.349 . S
C2069 H2061 0.950 . S
C2069 C2067 1.327 . S
C2070 C2058 1.349 . S
C2070 H2064 0.950 . S
C2070 C2071 1.327 . S
C2071 H2065 0.950 . S
C2071 C2070 1.327 . S
C2071 C2075 1.429 . S
C2072 C2055 1.574 . S
C2072 H2066 0.949 . S
C2072 C2076 1.368 . S
C2073 C2054 1.429 . S
C2073 C2067 1.429 . S
C2073 C2074 1.523 . S
C2074 C2055 1.368 . S
C2074 C2068 1.368 . S
C2074 C2073 1.523 . S
C2075 C2059 1.429 . S
C2075 C2071 1.429 . S
C2075 C2076 1.523 . S
C2076 C2060 1.368 . S
C2076 C2072 1.368 . S
C2076 C2075 1.523 . S
H2077 C2052 0.950 . S
H2078 C2054 0.950 . S
H2079 C2055 0.949 . S
H2080 C2057 0.950 . S
H2081 C2059 0.950 . S
C2082 C2083 1.349 . S
C2082 C2084 1.327 . S
C2082 H2107 0.950 . S
C2083 C2082 1.349 . S
C2083 C2099 1.349 . S
C2084 C2082 1.327 . S
C2084 C2103 1.429 . S
C2084 H2108 0.950 . S
C2085 C2102 1.574 . S
C2085 C2104 1.368 . S
C2085 H2109 0.949 . S
H2086 C2090 0.949 . S
C2087 C2088 1.349 . S
C2087 C2089 1.327 . S
C2087 H2110 0.950 . S
C2088 C2087 1.349 . S
C2088 C2100 1.349 . S
C2089 C2087 1.327 . S
C2089 C2105 1.429 . S
C2089 H2111 0.950 . S
C2090 H2086 0.949 . S
C2090 C2098 1.574 . S
C2090 C2106 1.368 . S
H2091 C2099 0.950 . S
H2092 C2097 0.950 . S
H2093 C2098 0.949 . S
H2094 C2100 0.950 . S
H2095 C2101 0.950 . S
H2096 C2102 0.949 . S
C2097 H2092 0.950 . S
C2097 C2099 1.327 . S
C2097 C2103 1.429 . S
C2098 C2090 1.574 . S
C2098 H2093 0.949 . S
C2098 C2104 1.368 . S
C2099 C2083 1.349 . S
C2099 H2091 0.950 . S
C2099 C2097 1.327 . S
C2100 C2088 1.349 . S
C2100 H2094 0.950 . S
C2100 C2101 1.327 . S
C2101 H2095 0.950 . S
C2101 C2100 1.327 . S
C2101 C2105 1.429 . S
C2102 C2085 1.574 . S
C2102 H2096 0.949 . S
C2102 C2106 1.368 . S
C2103 C2084 1.429 . S
C2103 C2097 1.429 . S
C2103 C2104 1.523 . S
C2104 C2085 1.368 . S
C2104 C2098 1.368 . S
C2104 C2103 1.523 . S
C2105 C2089 1.429 . S
C2105 C2101 1.429 . S
C2105 C2106 1.523 . S
C2106 C2090 1.368 . S
C2106 C2102 1.368 . S
C2106 C2105 1.523 . S
H2107 C2082 0.950 . S
H2108 C2084 0.950 . S
H2109 C2085 0.949 . S
H2110 C2087 0.950 . S
H2111 C2089 0.950 . S
C2112 C2113 1.349 . S
C2112 C2114 1.327 . S
C2112 H2137 0.950 . S
C2113 C2112 1.349 . S
C2113 C2129 1.349 . S
C2114 C2112 1.327 . S
C2114 C2133 1.429 . S
C2114 H2138 0.950 . S
C2115 C2132 1.574 . S
C2115 C2134 1.368 . S
C2115 H2139 0.949 . S
H2116 C2120 0.949 . S
C2117 C2118 1.349 . S
C2117 C2119 1.327 . S
C2117 H2140 0.950 . S
C2118 C2117 1.349 . S
C2118 C2130 1.349 . S
C2119 C2117 1.327 . S
C2119 C2135 1.429 . S
C2119 H2141 0.950 . S
C2120 H2116 0.949 . S
C2120 C2128 1.574 . S
C2120 C2136 1.368 . S
H2121 C2129 0.950 . S
H2122 C2127 0.950 . S
H2123 C2128 0.949 . S
H2124 C2130 0.950 . S
H2125 C2131 0.950 . S
H2126 C2132 0.949 . S
C2127 H2122 0.950 . S
C2127 C2129 1.327 . S
C2127 C2133 1.429 . S
C2128 C2120 1.574 . S
C2128 H2123 0.949 . S
C2128 C2134 1.368 . S
C2129 C2113 1.349 . S
C2129 H2121 0.950 . S
C2129 C2127 1.327 . S
C2130 C2118 1.349 . S
C2130 H2124 0.950 . S
C2130 C2131 1.327 . S
C2131 H2125 0.950 . S
C2131 C2130 1.327 . S
C2131 C2135 1.429 . S
C2132 C2115 1.574 . S
C2132 H2126 0.949 . S
C2132 C2136 1.368 . S
C2133 C2114 1.429 . S
C2133 C2127 1.429 . S
C2133 C2134 1.523 . S
C2134 C2115 1.368 . S
C2134 C2128 1.368 . S
C2134 C2133 1.523 . S
C2135 C2119 1.429 . S
C2135 C2131 1.429 . S
C2135 C2136 1.523 . S
C2136 C2120 1.368 . S
C2136 C2132 1.368 . S
C2136 C2135 1.523 . S
H2137 C2112 0.950 . S
H2138 C2114 0.950 . S
H2139 C2115 0.949 . S
H2140 C2117 0.950 . S
H2141 C2119 0.950 . S
C2142 C2143 1.349 . S
C2142 C2144 1.327 . S
C2142 H2167 0.950 . S
C2143 C2142 1.349 . S
C2143 C2159 1.349 . S
C2144 C2142 1.327 . S
C2144 C2163 1.429 . S
C2144 H2168 0.950 . S
C2145 C2162 1.574 . S
C2145 C2164 1.368 . S
C2145 H2169 0.949 . S
H2146 C2150 0.949 . S
C2147 C2148 1.349 . S
C2147 C2149 1.327 . S
C2147 H2170 0.950 . S
C2148 C2147 1.349 . S
C2148 C2160 1.349 . S
C2149 C2147 1.327 . S
C2149 C2165 1.429 . S
C2149 H2171 0.950 . S
C2150 H2146 0.949 . S
C2150 C2158 1.574 . S
C2150 C2166 1.368 . S
H2151 C2159 0.950 . S
H2152 C2157 0.950 . S
H2153 C2158 0.949 . S
H2154 C2160 0.950 . S
H2155 C2161 0.950 . S
H2156 C2162 0.949 . S
C2157 H2152 0.950 . S
C2157 C2159 1.327 . S
C2157 C2163 1.429 . S
C2158 C2150 1.574 . S
C2158 H2153 0.949 . S
C2158 C2164 1.368 . S
C2159 C2143 1.349 . S
C2159 H2151 0.950 . S
C2159 C2157 1.327 . S
C2160 C2148 1.349 . S
C2160 H2154 0.950 . S
C2160 C2161 1.327 . S
C2161 H2155 0.950 . S
C2161 C2160 1.327 . S
C2161 C2165 1.429 . S
C2162 C2145 1.574 . S
C2162 H2156 0.949 . S
C2162 C2166 1.368 . S
C2163 C2144 1.429 . S
C2163 C2157 1.429 . S
C2163 C2164 1.523 . S
C2164 C2145 1.368 . S
C2164 C2158 1.368 . S
C2164 C2163 1.523 . S
C2165 C2149 1.429 . S
C2165 C2161 1.429 . S
C2165 C2166 1.523 . S
C2166 C2150 1.368 . S
C2166 C2162 1.368 . S
C2166 C2165 1.523 . S
H2167 C2142 0.950 . S
H2168 C2144 0.950 . S
H2169 C2145 0.949 . S
H2170 C2147 0.950 . S
H2171 C2149 0.950 . S
C2172 C2173 1.349 . S
C2172 C2174 1.327 . S
C2172 H2197 0.950 . S
C2173 C2172 1.349 . S
C2173 C2189 1.349 . S
C2174 C2172 1.327 . S
C2174 C2193 1.429 . S
C2174 H2198 0.950 . S
C2175 C2192 1.574 . S
C2175 C2194 1.368 . S
C2175 H2199 0.949 . S
H2176 C2180 0.949 . S
C2177 C2178 1.349 . S
C2177 C2179 1.327 . S
C2177 H2200 0.950 . S
C2178 C2177 1.349 . S
C2178 C2190 1.349 . S
C2179 C2177 1.327 . S
C2179 C2195 1.429 . S
C2179 H2201 0.950 . S
C2180 H2176 0.949 . S
C2180 C2188 1.574 . S
C2180 C2196 1.368 . S
H2181 C2189 0.950 . S
H2182 C2187 0.950 . S
H2183 C2188 0.949 . S
H2184 C2190 0.950 . S
H2185 C2191 0.950 . S
H2186 C2192 0.949 . S
C2187 H2182 0.950 . S
C2187 C2189 1.327 . S
C2187 C2193 1.429 . S
C2188 C2180 1.574 . S
C2188 H2183 0.949 . S
C2188 C2194 1.368 . S
C2189 C2173 1.349 . S
C2189 H2181 0.950 . S
C2189 C2187 1.327 . S
C2190 C2178 1.349 . S
C2190 H2184 0.950 . S
C2190 C2191 1.327 . S
C2191 H2185 0.950 . S
C2191 C2190 1.327 . S
C2191 C2195 1.429 . S
C2192 C2175 1.574 . S
C2192 H2186 0.949 . S
C2192 C2196 1.368 . S
C2193 C2174 1.429 . S
C2193 C2187 1.429 . S
C2193 C2194 1.523 . S
C2194 C2175 1.368 . S
C2194 C2188 1.368 . S
C2194 C2193 1.523 . S
C2195 C2179 1.429 . S
C2195 C2191 1.429 . S
C2195 C2196 1.523 . S
C2196 C2180 1.368 . S
C2196 C2192 1.368 . S
C2196 C2195 1.523 . S
H2197 C2172 0.950 . S
H2198 C2174 0.950 . S
H2199 C2175 0.949 . S
H2200 C2177 0.950 . S
H2201 C2179 0.950 . S
C2202 C2203 1.349 . S
C2202 C2204 1.327 . S
C2202 H2227 0.950 . S
C2203 C2202 1.349 . S
C2203 C2219 1.349 . S
C2204 C2202 1.327 . S
C2204 C2223 1.429 . S
C2204 H2228 0.950 . S
C2205 C2222 1.574 . S
C2205 C2224 1.368 . S
C2205 H2229 0.949 . S
H2206 C2210 0.949 . S
C2207 C2208 1.349 . S
C2207 C2209 1.327 . S
C2207 H2230 0.950 . S
C2208 C2207 1.349 . S
C2208 C2220 1.349 . S
C2209 C2207 1.327 . S
C2209 C2225 1.429 . S
C2209 H2231 0.950 . S
C2210 H2206 0.949 . S
C2210 C2218 1.574 . S
C2210 C2226 1.368 . S
H2211 C2219 0.950 . S
H2212 C2217 0.950 . S
H2213 C2218 0.949 . S
H2214 C2220 0.950 . S
H2215 C2221 0.950 . S
H2216 C2222 0.949 . S
C2217 H2212 0.950 . S
C2217 C2219 1.327 . S
C2217 C2223 1.429 . S
C2218 C2210 1.574 . S
C2218 H2213 0.949 . S
C2218 C2224 1.368 . S
C2219 C2203 1.349 . S
C2219 H2211 0.950 . S
C2219 C2217 1.327 . S
C2220 C2208 1.349 . S
C2220 H2214 0.950 . S
C2220 C2221 1.327 . S
C2221 H2215 0.950 . S
C2221 C2220 1.327 . S
C2221 C2225 1.429 . S
C2222 C2205 1.574 . S
C2222 H2216 0.949 . S
C2222 C2226 1.368 . S
C2223 C2204 1.429 . S
C2223 C2217 1.429 . S
C2223 C2224 1.523 . S
C2224 C2205 1.368 . S
C2224 C2218 1.368 . S
C2224 C2223 1.523 . S
C2225 C2209 1.429 . S
C2225 C2221 1.429 . S
C2225 C2226 1.523 . S
C2226 C2210 1.368 . S
C2226 C2222 1.368 . S
C2226 C2225 1.523 . S
H2227 C2202 0.950 . S
H2228 C2204 0.950 . S
H2229 C2205 0.949 . S
H2230 C2207 0.950 . S
H2231 C2209 0.950 . S
C2232 C2233 1.349 . S
C2232 C2234 1.327 . S
C2232 H2257 0.950 . S
C2233 C2232 1.349 . S
C2233 C2249 1.349 . S
C2234 C2232 1.327 . S
C2234 C2253 1.429 . S
C2234 H2258 0.950 . S
C2235 C2252 1.574 . S
C2235 C2254 1.368 . S
C2235 H2259 0.949 . S
H2236 C2240 0.949 . S
C2237 C2238 1.349 . S
C2237 C2239 1.327 . S
C2237 H2260 0.950 . S
C2238 C2237 1.349 . S
C2238 C2250 1.349 . S
C2239 C2237 1.327 . S
C2239 C2255 1.429 . S
C2239 H2261 0.950 . S
C2240 H2236 0.949 . S
C2240 C2248 1.574 . S
C2240 C2256 1.368 . S
H2241 C2249 0.950 . S
H2242 C2247 0.950 . S
H2243 C2248 0.949 . S
H2244 C2250 0.950 . S
H2245 C2251 0.950 . S
H2246 C2252 0.949 . S
C2247 H2242 0.950 . S
C2247 C2249 1.327 . S
C2247 C2253 1.429 . S
C2248 C2240 1.574 . S
C2248 H2243 0.949 . S
C2248 C2254 1.368 . S
C2249 C2233 1.349 . S
C2249 H2241 0.950 . S
C2249 C2247 1.327 . S
C2250 C2238 1.349 . S
C2250 H2244 0.950 . S
C2250 C2251 1.327 . S
C2251 H2245 0.950 . S
C2251 C2250 1.327 . S
C2251 C2255 1.429 . S
C2252 C2235 1.574 . S
C2252 H2246 0.949 . S
C2252 C2256 1.368 . S
C2253 C2234 1.429 . S
C2253 C2247 1.429 . S
C2253 C2254 1.523 . S
C2254 C2235 1.368 . S
C2254 C2248 1.368 . S
C2254 C2253 1.523 . S
C2255 C2239 1.429 . S
C2255 C2251 1.429 . S
C2255 C2256 1.523 . S
C2256 C2240 1.368 . S
C2256 C2252 1.368 . S
C2256 C2255 1.523 . S
H2257 C2232 0.950 . S
H2258 C2234 0.950 . S
H2259 C2235 0.949 . S
H2260 C2237 0.950 . S
H2261 C2239 0.950 . S
C2262 C2263 1.349 . S
C2262 C2264 1.327 . S
C2262 H2287 0.950 . S
C2263 C2262 1.349 . S
C2263 C2279 1.349 . S
C2264 C2262 1.327 . S
C2264 C2283 1.429 . S
C2264 H2288 0.950 . S
C2265 C2282 1.574 . S
C2265 C2284 1.368 . S
C2265 H2289 0.949 . S
H2266 C2270 0.949 . S
C2267 C2268 1.349 . S
C2267 C2269 1.327 . S
C2267 H2290 0.950 . S
C2268 C2267 1.349 . S
C2268 C2280 1.349 . S
C2269 C2267 1.327 . S
C2269 C2285 1.429 . S
C2269 H2291 0.950 . S
C2270 H2266 0.949 . S
C2270 C2278 1.574 . S
C2270 C2286 1.368 . S
H2271 C2279 0.950 . S
H2272 C2277 0.950 . S
H2273 C2278 0.949 . S
H2274 C2280 0.950 . S
H2275 C2281 0.950 . S
H2276 C2282 0.949 . S
C2277 H2272 0.950 . S
C2277 C2279 1.327 . S
C2277 C2283 1.429 . S
C2278 C2270 1.574 . S
C2278 H2273 0.949 . S
C2278 C2284 1.368 . S
C2279 C2263 1.349 . S
C2279 H2271 0.950 . S
C2279 C2277 1.327 . S
C2280 C2268 1.349 . S
C2280 H2274 0.950 . S
C2280 C2281 1.327 . S
C2281 H2275 0.950 . S
C2281 C2280 1.327 . S
C2281 C2285 1.429 . S
C2282 C2265 1.574 . S
C2282 H2276 0.949 . S
C2282 C2286 1.368 . S
C2283 C2264 1.429 . S
C2283 C2277 1.429 . S
C2283 C2284 1.523 . S
C2284 C2265 1.368 . S
C2284 C2278 1.368 . S
C2284 C2283 1.523 . S
C2285 C2269 1.429 . S
C2285 C2281 1.429 . S
C2285 C2286 1.523 . S
C2286 C2270 1.368 . S
C2286 C2282 1.368 . S
C2286 C2285 1.523 . S
H2287 C2262 0.950 . S
H2288 C2264 0.950 . S
H2289 C2265 0.949 . S
H2290 C2267 0.950 . S
H2291 C2269 0.950 . S
C2292 C2293 1.349 . S
C2292 C2294 1.327 . S
C2292 H2317 0.950 . S
C2293 C2292 1.349 . S
C2293 C2309 1.349 . S
C2294 C2292 1.327 . S
C2294 C2313 1.429 . S
C2294 H2318 0.950 . S
C2295 C2312 1.574 . S
C2295 C2314 1.368 . S
C2295 H2319 0.949 . S
H2296 C2300 0.949 . S
C2297 C2298 1.349 . S
C2297 C2299 1.327 . S
C2297 H2320 0.950 . S
C2298 C2297 1.349 . S
C2298 C2310 1.349 . S
C2299 C2297 1.327 . S
C2299 C2315 1.429 . S
C2299 H2321 0.950 . S
C2300 H2296 0.949 . S
C2300 C2308 1.574 . S
C2300 C2316 1.368 . S
H2301 C2309 0.950 . S
H2302 C2307 0.950 . S
H2303 C2308 0.949 . S
H2304 C2310 0.950 . S
H2305 C2311 0.950 . S
H2306 C2312 0.949 . S
C2307 H2302 0.950 . S
C2307 C2309 1.327 . S
C2307 C2313 1.429 . S
C2308 C2300 1.574 . S
C2308 H2303 0.949 . S
C2308 C2314 1.368 . S
C2309 C2293 1.349 . S
C2309 H2301 0.950 . S
C2309 C2307 1.327 . S
C2310 C2298 1.349 . S
C2310 H2304 0.950 . S
C2310 C2311 1.327 . S
C2311 H2305 0.950 . S
C2311 C2310 1.327 . S
C2311 C2315 1.429 . S
C2312 C2295 1.574 . S
C2312 H2306 0.949 . S
C2312 C2316 1.368 . S
C2313 C2294 1.429 . S
C2313 C2307 1.429 . S
C2313 C2314 1.523 . S
C2314 C2295 1.368 . S
C2314 C2308 1.368 . S
C2314 C2313 1.523 . S
C2315 C2299 1.429 . S
C2315 C2311 1.429 . S
C2315 C2316 1.523 . S
C2316 C2300 1.368 . S
C2316 C2312 1.368 . S
C2316 C2315 1.523 . S
H2317 C2292 0.950 . S
H2318 C2294 0.950 . S
H2319 C2295 0.949 . S
H2320 C2297 0.950 . S
H2321 C2299 0.950 . S
C2322 C2323 1.349 . S
C2322 C2324 1.327 . S
C2322 H2347 0.950 . S
C2323 C2322 1.349 . S
C2323 C2339 1.349 . S
C2324 C2322 1.327 . S
C2324 C2343 1.429 . S
C2324 H2348 0.950 . S
C2325 C2342 1.574 . S
C2325 C2344 1.368 . S
C2325 H2349 0.949 . S
H2326 C2330 0.949 . S
C2327 C2328 1.349 . S
C2327 C2329 1.327 . S
C2327 H2350 0.950 . S
C2328 C2327 1.349 . S
C2328 C2340 1.349 . S
C2329 C2327 1.327 . S
C2329 C2345 1.429 . S
C2329 H2351 0.950 . S
C2330 H2326 0.949 . S
C2330 C2338 1.574 . S
C2330 C2346 1.368 . S
H2331 C2339 0.950 . S
H2332 C2337 0.950 . S
H2333 C2338 0.949 . S
H2334 C2340 0.950 . S
H2335 C2341 0.950 . S
H2336 C2342 0.949 . S
C2337 H2332 0.950 . S
C2337 C2339 1.327 . S
C2337 C2343 1.429 . S
C2338 C2330 1.574 . S
C2338 H2333 0.949 . S
C2338 C2344 1.368 . S
C2339 C2323 1.349 . S
C2339 H2331 0.950 . S
C2339 C2337 1.327 . S
C2340 C2328 1.349 . S
C2340 H2334 0.950 . S
C2340 C2341 1.327 . S
C2341 H2335 0.950 . S
C2341 C2340 1.327 . S
C2341 C2345 1.429 . S
C2342 C2325 1.574 . S
C2342 H2336 0.949 . S
C2342 C2346 1.368 . S
C2343 C2324 1.429 . S
C2343 C2337 1.429 . S
C2343 C2344 1.523 . S
C2344 C2325 1.368 . S
C2344 C2338 1.368 . S
C2344 C2343 1.523 . S
C2345 C2329 1.429 . S
C2345 C2341 1.429 . S
C2345 C2346 1.523 . S
C2346 C2330 1.368 . S
C2346 C2342 1.368 . S
C2346 C2345 1.523 . S
H2347 C2322 0.950 . S
H2348 C2324 0.950 . S
H2349 C2325 0.949 . S
H2350 C2327 0.950 . S
H2351 C2329 0.950 . S
C2352 C2353 1.349 . S
C2352 C2354 1.327 . S
C2352 H2377 0.950 . S
C2353 C2352 1.349 . S
C2353 C2369 1.349 . S
C2354 C2352 1.327 . S
C2354 C2373 1.429 . S
C2354 H2378 0.950 . S
C2355 C2372 1.574 . S
C2355 C2374 1.368 . S
C2355 H2379 0.949 . S
H2356 C2360 0.949 . S
C2357 C2358 1.349 . S
C2357 C2359 1.327 . S
C2357 H2380 0.950 . S
C2358 C2357 1.349 . S
C2358 C2370 1.349 . S
C2359 C2357 1.327 . S
C2359 C2375 1.429 . S
C2359 H2381 0.950 . S
C2360 H2356 0.949 . S
C2360 C2368 1.574 . S
C2360 C2376 1.368 . S
H2361 C2369 0.950 . S
H2362 C2367 0.950 . S
H2363 C2368 0.949 . S
H2364 C2370 0.950 . S
H2365 C2371 0.950 . S
H2366 C2372 0.949 . S
C2367 H2362 0.950 . S
C2367 C2369 1.327 . S
C2367 C2373 1.429 . S
C2368 C2360 1.574 . S
C2368 H2363 0.949 . S
C2368 C2374 1.368 . S
C2369 C2353 1.349 . S
C2369 H2361 0.950 . S
C2369 C2367 1.327 . S
C2370 C2358 1.349 . S
C2370 H2364 0.950 . S
C2370 C2371 1.327 . S
C2371 H2365 0.950 . S
C2371 C2370 1.327 . S
C2371 C2375 1.429 . S
C2372 C2355 1.574 . S
C2372 H2366 0.949 . S
C2372 C2376 1.368 . S
C2373 C2354 1.429 . S
C2373 C2367 1.429 . S
C2373 C2374 1.523 . S
C2374 C2355 1.368 . S
C2374 C2368 1.368 . S
C2374 C2373 1.523 . S
C2375 C2359 1.429 . S
C2375 C2371 1.429 . S
C2375 C2376 1.523 . S
C2376 C2360 1.368 . S
C2376 C2372 1.368 . S
C2376 C2375 1.523 . S
H2377 C2352 0.950 . S
H2378 C2354 0.950 . S
H2379 C2355 0.949 . S
H2380 C2357 0.950 . S
H2381 C2359 0.950 . S
C2382 C2383 1.349 . S
C2382 C2384 1.327 . S
C2382 H2407 0.950 . S
C2383 C2382 1.349 . S
C2383 C2399 1.349 . S
C2384 C2382 1.327 . S
C2384 C2403 1.429 . S
C2384 H2408 0.950 . S
C2385 C2402 1.574 . S
C2385 C2404 1.368 . S
C2385 H2409 0.949 . S
H2386 C2390 0.949 . S
C2387 C2388 1.349 . S
C2387 C2389 1.327 . S
C2387 H2410 0.950 . S
C2388 C2387 1.349 . S
C2388 C2400 1.349 . S
C2389 C2387 1.327 . S
C2389 C2405 1.429 . S
C2389 H2411 0.950 . S
C2390 H2386 0.949 . S
C2390 C2398 1.574 . S
C2390 C2406 1.368 . S
H2391 C2399 0.950 . S
H2392 C2397 0.950 . S
H2393 C2398 0.949 . S
H2394 C2400 0.950 . S
H2395 C2401 0.950 . S
H2396 C2402 0.949 . S
C2397 H2392 0.950 . S
C2397 C2399 1.327 . S
C2397 C2403 1.429 . S
C2398 C2390 1.574 . S
C2398 H2393 0.949 . S
C2398 C2404 1.368 . S
C2399 C2383 1.349 . S
C2399 H2391 0.950 . S
C2399 C2397 1.327 . S
C2400 C2388 1.349 . S
C2400 H2394 0.950 . S
C2400 C2401 1.327 . S
C2401 H2395 0.950 . S
C2401 C2400 1.327 . S
C2401 C2405 1.429 . S
C2402 C2385 1.574 . S
C2402 H2396 0.949 . S
C2402 C2406 1.368 . S
C2403 C2384 1.429 . S
C2403 C2397 1.429 . S
C2403 C2404 1.523 . S
C2404 C2385 1.368 . S
C2404 C2398 1.368 . S
C2404 C2403 1.523 . S
C2405 C2389 1.429 . S
C2405 C2401 1.429 . S
C2405 C2406 1.523 . S
C2406 C2390 1.368 . S
C2406 C2402 1.368 . S
C2406 C2405 1.523 . S
H2407 C2382 0.950 . S
H2408 C2384 0.950 . S
H2409 C2385 0.949 . S
H2410 C2387 0.950 . S
H2411 C2389 0.950 . S
C2412 C2413 1.349 . S
C2412 C2414 1.327 . S
C2412 H2437 0.950 . S
C2413 C2412 1.349 . S
C2413 C2429 1.349 . S
C2414 C2412 1.327 . S
C2414 C2433 1.429 . S
C2414 H2438 0.950 . S
C2415 C2432 1.574 . S
C2415 C2434 1.368 . S
C2415 H2439 0.949 . S
H2416 C2420 0.949 . S
C2417 C2418 1.349 . S
C2417 C2419 1.327 . S
C2417 H2440 0.950 . S
C2418 C2417 1.349 . S
C2418 C2430 1.349 . S
C2419 C2417 1.327 . S
C2419 C2435 1.429 . S
C2419 H2441 0.950 . S
C2420 H2416 0.949 . S
C2420 C2428 1.574 . S
C2420 C2436 1.368 . S
H2421 C2429 0.950 . S
H2422 C2427 0.950 . S
H2423 C2428 0.949 . S
H2424 C2430 0.950 . S
H2425 C2431 0.950 . S
H2426 C2432 0.949 . S
C2427 H2422 0.950 . S
C2427 C2429 1.327 . S
C2427 C2433 1.429 . S
C2428 C2420 1.574 . S
C2428 H2423 0.949 . S
C2428 C2434 1.368 . S
C2429 C2413 1.349 . S
C2429 H2421 0.950 . S
C2429 C2427 1.327 . S
C2430 C2418 1.349 . S
C2430 H2424 0.950 . S
C2430 C2431 1.327 . S
C2431 H2425 0.950 . S
C2431 C2430 1.327 . S
C2431 C2435 1.429 . S
C2432 C2415 1.574 . S
C2432 H2426 0.949 . S
C2432 C2436 1.368 . S
C2433 C2414 1.429 . S
C2433 C2427 1.429 . S
C2433 C2434 1.523 . S
C2434 C2415 1.368 . S
C2434 C2428 1.368 . S
C2434 C2433 1.523 . S
C2435 C2419 1.429 . S
C2435 C2431 1.429 . S
C2435 C2436 1.523 . S
C2436 C2420 1.368 . S
C2436 C2432 1.368 . S
C2436 C2435 1.523 . S
H2437 C2412 0.950 . S
H2438 C2414 0.950 . S
H2439 C2415 0.949 . S
H2440 C2417 0.950 . S
H2441 C2419 0.950 . S
C2442 C2443 1.349 . S
C2442 C2444 1.327 . S
C2442 H2467 0.950 . S
C2443 C2442 1.349 . S
C2443 C2459 1.349 . S
C2444 C2442 1.327 . S
C2444 C2463 1.429 . S
C2444 H2468 0.950 . S
C2445 C2462 1.574 . S
C2445 C2464 1.368 . S
C2445 H2469 0.949 . S
H2446 C2450 0.949 . S
C2447 C2448 1.349 . S
C2447 C2449 1.327 . S
C2447 H2470 0.950 . S
C2448 C2447 1.349 . S
C2448 C2460 1.349 . S
C2449 C2447 1.327 . S
C2449 C2465 1.429 . S
C2449 H2471 0.950 . S
C2450 H2446 0.949 . S
C2450 C2458 1.574 . S
C2450 C2466 1.368 . S
H2451 C2459 0.950 . S
H2452 C2457 0.950 . S
H2453 C2458 0.949 . S
H2454 C2460 0.950 . S
H2455 C2461 0.950 . S
H2456 C2462 0.949 . S
C2457 H2452 0.950 . S
C2457 C2459 1.327 . S
C2457 C2463 1.429 . S
C2458 C2450 1.574 . S
C2458 H2453 0.949 . S
C2458 C2464 1.368 . S
C2459 C2443 1.349 . S
C2459 H2451 0.950 . S
C2459 C2457 1.327 . S
C2460 C2448 1.349 . S
C2460 H2454 0.950 . S
C2460 C2461 1.327 . S
C2461 H2455 0.950 . S
C2461 C2460 1.327 . S
C2461 C2465 1.429 . S
C2462 C2445 1.574 . S
C2462 H2456 0.949 . S
C2462 C2466 1.368 . S
C2463 C2444 1.429 . S
C2463 C2457 1.429 . S
C2463 C2464 1.523 . S
C2464 C2445 1.368 . S
C2464 C2458 1.368 . S
C2464 C2463 1.523 . S
C2465 C2449 1.429 . S
C2465 C2461 1.429 . S
C2465 C2466 1.523 . S
C2466 C2450 1.368 . S
C2466 C2462 1.368 . S
C2466 C2465 1.523 . S
H2467 C2442 0.950 . S
H2468 C2444 0.950 . S
H2469 C2445 0.949 . S
H2470 C2447 0.950 . S
H2471 C2449 0.950 . S
C2472 C2473 1.349 . S
C2472 C2474 1.327 . S
C2472 H2497 0.950 . S
C2473 C2472 1.349 . S
C2473 C2489 1.349 . S
C2474 C2472 1.327 . S
C2474 C2493 1.429 . S
C2474 H2498 0.950 . S
C2475 C2492 1.574 . S
C2475 C2494 1.368 . S
C2475 H2499 0.949 . S
H2476 C2480 0.949 . S
C2477 C2478 1.349 . S
C2477 C2479 1.327 . S
C2477 H2500 0.950 . S
C2478 C2477 1.349 . S
C2478 C2490 1.349 . S
C2479 C2477 1.327 . S
C2479 C2495 1.429 . S
C2479 H2501 0.950 . S
C2480 H2476 0.949 . S
C2480 C2488 1.574 . S
C2480 C2496 1.368 . S
H2481 C2489 0.950 . S
H2482 C2487 0.950 . S
H2483 C2488 0.949 . S
H2484 C2490 0.950 . S
H2485 C2491 0.950 . S
H2486 C2492 0.949 . S
C2487 H2482 0.950 . S
C2487 C2489 1.327 . S
C2487 C2493 1.429 . S
C2488 C2480 1.574 . S
C2488 H2483 0.949 . S
C2488 C2494 1.368 . S
C2489 C2473 1.349 . S
C2489 H2481 0.950 . S
C2489 C2487 1.327 . S
C2490 C2478 1.349 . S
C2490 H2484 0.950 . S
C2490 C2491 1.327 . S
C2491 H2485 0.950 . S
C2491 C2490 1.327 . S
C2491 C2495 1.429 . S
C2492 C2475 1.574 . S
C2492 H2486 0.949 . S
C2492 C2496 1.368 . S
C2493 C2474 1.429 . S
C2493 C2487 1.429 . S
C2493 C2494 1.523 . S
C2494 C2475 1.368 . S
C2494 C2488 1.368 . S
C2494 C2493 1.523 . S
C2495 C2479 1.429 . S
C2495 C2491 1.429 . S
C2495 C2496 1.523 . S
C2496 C2480 1.368 . S
C2496 C2492 1.368 . S
C2496 C2495 1.523 . S
H2497 C2472 0.950 . S
H2498 C2474 0.950 . S
H2499 C2475 0.949 . S
H2500 C2477 0.950 . S
H2501 C2479 0.950 . S
C2502 C2503 1.349 . S
C2502 C2504 1.327 . S
C2502 H2527 0.950 . S
C2503 C2502 1.349 . S
C2503 C2519 1.349 . S
C2504 C2502 1.327 . S
C2504 C2523 1.429 . S
C2504 H2528 0.950 . S
C2505 C2522 1.574 . S
C2505 C2524 1.368 . S
C2505 H2529 0.949 . S
H2506 C2510 0.949 . S
C2507 C2508 1.349 . S
C2507 C2509 1.327 . S
C2507 H2530 0.950 . S
C2508 C2507 1.349 . S
C2508 C2520 1.349 . S
C2509 C2507 1.327 . S
C2509 C2525 1.429 . S
C2509 H2531 0.950 . S
C2510 H2506 0.949 . S
C2510 C2518 1.574 . S
C2510 C2526 1.368 . S
H2511 C2519 0.950 . S
H2512 C2517 0.950 . S
H2513 C2518 0.949 . S
H2514 C2520 0.950 . S
H2515 C2521 0.950 . S
H2516 C2522 0.949 . S
C2517 H2512 0.950 . S
C2517 C2519 1.327 . S
C2517 C2523 1.429 . S
C2518 C2510 1.574 . S
C2518 H2513 0.949 . S
C2518 C2524 1.368 . S
C2519 C2503 1.349 . S
C2519 H2511 0.950 . S
C2519 C2517 1.327 . S
C2520 C2508 1.349 . S
C2520 H2514 0.950 . S
C2520 C2521 1.327 . S
C2521 H2515 0.950 . S
C2521 C2520 1.327 . S
C2521 C2525 1.429 . S
C2522 C2505 1.574 . S
C2522 H2516 0.949 . S
C2522 C2526 1.368 . S
C2523 C2504 1.429 . S
C2523 C2517 1.429 . S
C2523 C2524 1.523 . S
C2524 C2505 1.368 . S
C2524 C2518 1.368 . S
C2524 C2523 1.523 . S
C2525 C2509 1.429 . S
C2525 C2521 1.429 . S
C2525 C2526 1.523 . S
C2526 C2510 1.368 . S
C2526 C2522 1.368 . S
C2526 C2525 1.523 . S
H2527 C2502 0.950 . S
H2528 C2504 0.950 . S
H2529 C2505 0.949 . S
H2530 C2507 0.950 . S
H2531 C2509 0.950 . S
C2532 C2533 1.349 . S
C2532 C2534 1.327 . S
C2532 H2557 0.950 . S
C2533 C2532 1.349 . S
C2533 C2549 1.349 . S
C2534 C2532 1.327 . S
C2534 C2553 1.429 . S
C2534 H2558 0.950 . S
C2535 C2552 1.574 . S
C2535 C2554 1.368 . S
C2535 H2559 0.949 . S
H2536 C2540 0.949 . S
C2537 C2538 1.349 . S
C2537 C2539 1.327 . S
C2537 H2560 0.950 . S
C2538 C2537 1.349 . S
C2538 C2550 1.349 . S
C2539 C2537 1.327 . S
C2539 C2555 1.429 . S
C2539 H2561 0.950 . S
C2540 H2536 0.949 . S
C2540 C2548 1.574 . S
C2540 C2556 1.368 . S
H2541 C2549 0.950 . S
H2542 C2547 0.950 . S
H2543 C2548 0.949 . S
H2544 C2550 0.950 . S
H2545 C2551 0.950 . S
H2546 C2552 0.949 . S
C2547 H2542 0.950 . S
C2547 C2549 1.327 . S
C2547 C2553 1.429 . S
C2548 C2540 1.574 . S
C2548 H2543 0.949 . S
C2548 C2554 1.368 . S
C2549 C2533 1.349 . S
C2549 H2541 0.950 . S
C2549 C2547 1.327 . S
C2550 C2538 1.349 . S
C2550 H2544 0.950 . S
C2550 C2551 1.327 . S
C2551 H2545 0.950 . S
C2551 C2550 1.327 . S
C2551 C2555 1.429 . S
C2552 C2535 1.574 . S
C2552 H2546 0.949 . S
C2552 C2556 1.368 . S
C2553 C2534 1.429 . S
C2553 C2547 1.429 . S
C2553 C2554 1.523 . S
C2554 C2535 1.368 . S
C2554 C2548 1.368 . S
C2554 C2553 1.523 . S
C2555 C2539 1.429 . S
C2555 C2551 1.429 . S
C2555 C2556 1.523 . S
C2556 C2540 1.368 . S
C2556 C2552 1.368 . S
C2556 C2555 1.523 . S
H2557 C2532 0.950 . S
H2558 C2534 0.950 . S
H2559 C2535 0.949 . S
H2560 C2537 0.950 . S
H2561 C2539 0.950 . S
C2562 C2563 1.349 . S
C2562 C2564 1.327 . S
C2562 H2587 0.950 . S
C2563 C2562 1.349 . S
C2563 C2579 1.349 . S
C2564 C2562 1.327 . S
C2564 C2583 1.429 . S
C2564 H2588 0.950 . S
C2565 C2582 1.574 . S
C2565 C2584 1.368 . S
C2565 H2589 0.949 . S
H2566 C2570 0.949 . S
C2567 C2568 1.349 . S
C2567 C2569 1.327 . S
C2567 H2590 0.950 . S
C2568 C2567 1.349 . S
C2568 C2580 1.349 . S
C2569 C2567 1.327 . S
C2569 C2585 1.429 . S
C2569 H2591 0.950 . S
C2570 H2566 0.949 . S
C2570 C2578 1.574 . S
C2570 C2586 1.368 . S
H2571 C2579 0.950 . S
H2572 C2577 0.950 . S
H2573 C2578 0.949 . S
H2574 C2580 0.950 . S
H2575 C2581 0.950 . S
H2576 C2582 0.949 . S
C2577 H2572 0.950 . S
C2577 C2579 1.327 . S
C2577 C2583 1.429 . S
C2578 C2570 1.574 . S
C2578 H2573 0.949 . S
C2578 C2584 1.368 . S
C2579 C2563 1.349 . S
C2579 H2571 0.950 . S
C2579 C2577 1.327 . S
C2580 C2568 1.349 . S
C2580 H2574 0.950 . S
C2580 C2581 1.327 . S
C2581 H2575 0.950 . S
C2581 C2580 1.327 . S
C2581 C2585 1.429 . S
C2582 C2565 1.574 . S
C2582 H2576 0.949 . S
C2582 C2586 1.368 . S
C2583 C2564 1.429 . S
C2583 C2577 1.429 . S
C2583 C2584 1.523 . S
C2584 C2565 1.368 . S
C2584 C2578 1.368 . S
C2584 C2583 1.523 . S
C2585 C2569 1.429 . S
C2585 C2581 1.429 . S
C2585 C2586 1.523 . S
C2586 C2570 1.368 . S
C2586 C2582 1.368 . S
C2586 C2585 1.523 . S
H2587 C2562 0.950 . S
H2588 C2564 0.950 . S
H2589 C2565 0.949 . S
H2590 C2567 0.950 . S
H2591 C2569 0.950 . S
C2592 C2593 1.349 . S
C2592 C2594 1.327 . S
C2592 H2617 0.950 . S
C2593 C2592 1.349 . S
C2593 C2609 1.349 . S
C2594 C2592 1.327 . S
C2594 C2613 1.429 . S
C2594 H2618 0.950 . S
C2595 C2612 1.574 . S
C2595 C2614 1.368 . S
C2595 H2619 0.949 . S
H2596 C2600 0.949 . S
C2597 C2598 1.349 . S
C2597 C2599 1.327 . S
C2597 H2620 0.950 . S
C2598 C2597 1.349 . S
C2598 C2610 1.349 . S
C2599 C2597 1.327 . S
C2599 C2615 1.429 . S
C2599 H2621 0.950 . S
C2600 H2596 0.949 . S
C2600 C2608 1.574 . S
C2600 C2616 1.368 . S
H2601 C2609 0.950 . S
H2602 C2607 0.950 . S
H2603 C2608 0.949 . S
H2604 C2610 0.950 . S
H2605 C2611 0.950 . S
H2606 C2612 0.949 . S
C2607 H2602 0.950 . S
C2607 C2609 1.327 . S
C2607 C2613 1.429 . S
C2608 C2600 1.574 . S
C2608 H2603 0.949 . S
C2608 C2614 1.368 . S
C2609 C2593 1.349 . S
C2609 H2601 0.950 . S
C2609 C2607 1.327 . S
C2610 C2598 1.349 . S
C2610 H2604 0.950 . S
C2610 C2611 1.327 . S
C2611 H2605 0.950 . S
C2611 C2610 1.327 . S
C2611 C2615 1.429 . S
C2612 C2595 1.574 . S
C2612 H2606 0.949 . S
C2612 C2616 1.368 . S
C2613 C2594 1.429 . S
C2613 C2607 1.429 . S
C2613 C2614 1.523 . S
C2614 C2595 1.368 . S
C2614 C2608 1.368 . S
C2614 C2613 1.523 . S
C2615 C2599 1.429 . S
C2615 C2611 1.429 . S
C2615 C2616 1.523 . S
C2616 C2600 1.368 . S
C2616 C2612 1.368 . S
C2616 C2615 1.523 . S
H2617 C2592 0.950 . S
H2618 C2594 0.950 . S
H2619 C2595 0.949 . S
H2620 C2597 0.950 . S
H2621 C2599 0.950 . S
C2622 C2623 1.349 . S
C2622 C2624 1.327 . S
C2622 H2647 0.950 . S
C2623 C2622 1.349 . S
C2623 C2639 1.349 . S
C2624 C2622 1.327 . S
C2624 C2643 1.429 . S
C2624 H2648 0.950 . S
C2625 C2642 1.574 . S
C2625 C2644 1.368 . S
C2625 H2649 0.949 . S
H2626 C2630 0.949 . S
C2627 C2628 1.349 . S
C2627 C2629 1.327 . S
C2627 H2650 0.950 . S
C2628 C2627 1.349 . S
C2628 C2640 1.349 . S
C2629 C2627 1.327 . S
C2629 C2645 1.429 . S
C2629 H2651 0.950 . S
C2630 H2626 0.949 . S
C2630 C2638 1.574 . S
C2630 C2646 1.368 . S
H2631 C2639 0.950 . S
H2632 C2637 0.950 . S
H2633 C2638 0.949 . S
H2634 C2640 0.950 . S
H2635 C2641 0.950 . S
H2636 C2642 0.949 . S
C2637 H2632 0.950 . S
C2637 C2639 1.327 . S
C2637 C2643 1.429 . S
C2638 C2630 1.574 . S
C2638 H2633 0.949 . S
C2638 C2644 1.368 . S
C2639 C2623 1.349 . S
C2639 H2631 0.950 . S
C2639 C2637 1.327 . S
C2640 C2628 1.349 . S
C2640 H2634 0.950 . S
C2640 C2641 1.327 . S
C2641 H2635 0.950 . S
C2641 C2640 1.327 . S
C2641 C2645 1.429 . S
C2642 C2625 1.574 . S
C2642 H2636 0.949 . S
C2642 C2646 1.368 . S
C2643 C2624 1.429 . S
C2643 C2637 1.429 . S
C2643 C2644 1.523 . S
C2644 C2625 1.368 . S
C2644 C2638 1.368 . S
C2644 C2643 1.523 . S
C2645 C2629 1.429 . S
C2645 C2641 1.429 . S
C2645 C2646 1.523 . S
C2646 C2630 1.368 . S
C2646 C2642 1.368 . S
C2646 C2645 1.523 . S
H2647 C2622 0.950 . S
H2648 C2624 0.950 . S
H2649 C2625 0.949 . S
H2650 C2627 0.950 . S
H2651 C2629 0.950 . S
C2652 C2653 1.349 . S
C2652 C2654 1.327 . S
C2652 H2677 0.950 . S
C2653 C2652 1.349 . S
C2653 C2669 1.349 . S
C2654 C2652 1.327 . S
C2654 C2673 1.429 . S
C2654 H2678 0.950 . S
C2655 C2672 1.574 . S
C2655 C2674 1.368 . S
C2655 H2679 0.949 . S
H2656 C2660 0.949 . S
C2657 C2658 1.349 . S
C2657 C2659 1.327 . S
C2657 H2680 0.950 . S
C2658 C2657 1.349 . S
C2658 C2670 1.349 . S
C2659 C2657 1.327 . S
C2659 C2675 1.429 . S
C2659 H2681 0.950 . S
C2660 H2656 0.949 . S
C2660 C2668 1.574 . S
C2660 C2676 1.368 . S
H2661 C2669 0.950 . S
H2662 C2667 0.950 . S
H2663 C2668 0.949 . S
H2664 C2670 0.950 . S
H2665 C2671 0.950 . S
H2666 C2672 0.949 . S
C2667 H2662 0.950 . S
C2667 C2669 1.327 . S
C2667 C2673 1.429 . S
C2668 C2660 1.574 . S
C2668 H2663 0.949 . S
C2668 C2674 1.368 . S
C2669 C2653 1.349 . S
C2669 H2661 0.950 . S
C2669 C2667 1.327 . S
C2670 C2658 1.349 . S
C2670 H2664 0.950 . S
C2670 C2671 1.327 . S
C2671 H2665 0.950 . S
C2671 C2670 1.327 . S
C2671 C2675 1.429 . S
C2672 C2655 1.574 . S
C2672 H2666 0.949 . S
C2672 C2676 1.368 . S
C2673 C2654 1.429 . S
C2673 C2667 1.429 . S
C2673 C2674 1.523 . S
C2674 C2655 1.368 . S
C2674 C2668 1.368 . S
C2674 C2673 1.523 . S
C2675 C2659 1.429 . S
C2675 C2671 1.429 . S
C2675 C2676 1.523 . S
C2676 C2660 1.368 . S
C2676 C2672 1.368 . S
C2676 C2675 1.523 . S
H2677 C2652 0.950 . S
H2678 C2654 0.950 . S
H2679 C2655 0.949 . S
H2680 C2657 0.950 . S
H2681 C2659 0.950 . S
C2682 C2683 1.349 . S
C2682 C2684 1.327 . S
C2682 H2707 0.950 . S
C2683 C2682 1.349 . S
C2683 C2699 1.349 . S
C2684 C2682 1.327 . S
C2684 C2703 1.429 . S
C2684 H2708 0.950 . S
C2685 C2702 1.574 . S
C2685 C2704 1.368 . S
C2685 H2709 0.949 . S
H2686 C2690 0.949 . S
C2687 C2688 1.349 . S
C2687 C2689 1.327 . S
C2687 H2710 0.950 . S
C2688 C2687 1.349 . S
C2688 C2700 1.349 . S
C2689 C2687 1.327 . S
C2689 C2705 1.429 . S
C2689 H2711 0.950 . S
C2690 H2686 0.949 . S
C2690 C2698 1.574 . S
C2690 C2706 1.368 . S
H2691 C2699 0.950 . S
H2692 C2697 0.950 . S
H2693 C2698 0.949 . S
H2694 C2700 0.950 . S
H2695 C2701 0.950 . S
H2696 C2702 0.949 . S
C2697 H2692 0.950 . S
C2697 C2699 1.327 . S
C2697 C2703 1.429 . S
C2698 C2690 1.574 . S
C2698 H2693 0.949 . S
C2698 C2704 1.368 . S
C2699 C2683 1.349 . S
C2699 H2691 0.950 . S
C2699 C2697 1.327 . S
C2700 C2688 1.349 . S
C2700 H2694 0.950 . S
C2700 C2701 1.327 . S
C2701 H2695 0.950 . S
C2701 C2700 1.327 . S
C2701 C2705 1.429 . S
C2702 C2685 1.574 . S
C2702 H2696 0.949 . S
C2702 C2706 1.368 . S
C2703 C2684 1.429 . S
C2703 C2697 1.429 . S
C2703 C2704 1.523 . S
C2704 C2685 1.368 . S
C2704 C2698 1.368 . S
C2704 C2703 1.523 . S
C2705 C2689 1.429 . S
C2705 C2701 1.429 . S
C2705 C2706 1.523 . S
C2706 C2690 1.368 . S
C2706 C2702 1.368 . S
C2706 C2705 1.523 . S
H2707 C2682 0.950 . S
H2708 C2684 0.950 . S
H2709 C2685 0.949 . S
H2710 C2687 0.950 . S
H2711 C2689 0.950 . S
C2712 C2713 1.349 . S
C2712 C2714 1.327 . S
C2712 H2737 0.950 . S
C2713 C2712 1.349 . S
C2713 C2729 1.349 . S
C2714 C2712 1.327 . S
C2714 C2733 1.429 . S
C2714 H2738 0.950 . S
C2715 C2732 1.574 . S
C2715 C2734 1.368 . S
C2715 H2739 0.949 . S
H2716 C2720 0.949 . S
C2717 C2718 1.349 . S
C2717 C2719 1.327 . S
C2717 H2740 0.950 . S
C2718 C2717 1.349 . S
C2718 C2730 1.349 . S
C2719 C2717 1.327 . S
C2719 C2735 1.429 . S
C2719 H2741 0.950 . S
C2720 H2716 0.949 . S
C2720 C2728 1.574 . S
C2720 C2736 1.368 . S
H2721 C2729 0.950 . S
H2722 C2727 0.950 . S
H2723 C2728 0.949 . S
H2724 C2730 0.950 . S
H2725 C2731 0.950 . S
H2726 C2732 0.949 . S
C2727 H2722 0.950 . S
C2727 C2729 1.327 . S
C2727 C2733 1.429 . S
C2728 C2720 1.574 . S
C2728 H2723 0.949 . S
C2728 C2734 1.368 . S
C2729 C2713 1.349 . S
C2729 H2721 0.950 . S
C2729 C2727 1.327 . S
C2730 C2718 1.349 . S
C2730 H2724 0.950 . S
C2730 C2731 1.327 . S
C2731 H2725 0.950 . S
C2731 C2730 1.327 . S
C2731 C2735 1.429 . S
C2732 C2715 1.574 . S
C2732 H2726 0.949 . S
C2732 C2736 1.368 . S
C2733 C2714 1.429 . S
C2733 C2727 1.429 . S
C2733 C2734 1.523 . S
C2734 C2715 1.368 . S
C2734 C2728 1.368 . S
C2734 C2733 1.523 . S
C2735 C2719 1.429 . S
C2735 C2731 1.429 . S
C2735 C2736 1.523 . S
C2736 C2720 1.368 . S
C2736 C2732 1.368 . S
C2736 C2735 1.523 . S
H2737 C2712 0.950 . S
H2738 C2714 0.950 . S
H2739 C2715 0.949 . S
H2740 C2717 0.950 . S
H2741 C2719 0.950 . S
C2742 C2743 1.349 . S
C2742 C2744 1.327 . S
C2742 H2767 0.950 . S
C2743 C2742 1.349 . S
C2743 C2759 1.349 . S
C2744 C2742 1.327 . S
C2744 C2763 1.429 . S
C2744 H2768 0.950 . S
C2745 C2762 1.574 . S
C2745 C2764 1.368 . S
C2745 H2769 0.949 . S
H2746 C2750 0.949 . S
C2747 C2748 1.349 . S
C2747 C2749 1.327 . S
C2747 H2770 0.950 . S
C2748 C2747 1.349 . S
C2748 C2760 1.349 . S
C2749 C2747 1.327 . S
C2749 C2765 1.429 . S
C2749 H2771 0.950 . S
C2750 H2746 0.949 . S
C2750 C2758 1.574 . S
C2750 C2766 1.368 . S
H2751 C2759 0.950 . S
H2752 C2757 0.950 . S
H2753 C2758 0.949 . S
H2754 C2760 0.950 . S
H2755 C2761 0.950 . S
H2756 C2762 0.949 . S
C2757 H2752 0.950 . S
C2757 C2759 1.327 . S
C2757 C2763 1.429 . S
C2758 C2750 1.574 . S
C2758 H2753 0.949 . S
C2758 C2764 1.368 . S
C2759 C2743 1.349 . S
C2759 H2751 0.950 . S
C2759 C2757 1.327 . S
C2760 C2748 1.349 . S
C2760 H2754 0.950 . S
C2760 C2761 1.327 . S
C2761 H2755 0.950 . S
C2761 C2760 1.327 . S
C2761 C2765 1.429 . S
C2762 C2745 1.574 . S
C2762 H2756 0.949 . S
C2762 C2766 1.368 . S
C2763 C2744 1.429 . S
C2763 C2757 1.429 . S
C2763 C2764 1.523 . S
C2764 C2745 1.368 . S
C2764 C2758 1.368 . S
C2764 C2763 1.523 . S
C2765 C2749 1.429 . S
C2765 C2761 1.429 . S
C2765 C2766 1.523 . S
C2766 C2750 1.368 . S
C2766 C2762 1.368 . S
C2766 C2765 1.523 . S
H2767 C2742 0.950 . S
H2768 C2744 0.950 . S
H2769 C2745 0.949 . S
H2770 C2747 0.950 . S
H2771 C2749 0.950 . S
C2772 C2773 1.349 . S
C2772 C2774 1.327 . S
C2772 H2797 0.950 . S
C2773 C2772 1.349 . S
C2773 C2789 1.349 . S
C2774 C2772 1.327 . S
C2774 C2793 1.429 . S
C2774 H2798 0.950 . S
C2775 C2792 1.574 . S
C2775 C2794 1.368 . S
C2775 H2799 0.949 . S
H2776 C2780 0.949 . S
C2777 C2778 1.349 . S
C2777 C2779 1.327 . S
C2777 H2800 0.950 . S
C2778 C2777 1.349 . S
C2778 C2790 1.349 . S
C2779 C2777 1.327 . S
C2779 C2795 1.429 . S
C2779 H2801 0.950 . S
C2780 H2776 0.949 . S
C2780 C2788 1.574 . S
C2780 C2796 1.368 . S
H2781 C2789 0.950 . S
H2782 C2787 0.950 . S
H2783 C2788 0.949 . S
H2784 C2790 0.950 . S
H2785 C2791 0.950 . S
H2786 C2792 0.949 . S
C2787 H2782 0.950 . S
C2787 C2789 1.327 . S
C2787 C2793 1.429 . S
C2788 C2780 1.574 . S
C2788 H2783 0.949 . S
C2788 C2794 1.368 . S
C2789 C2773 1.349 . S
C2789 H2781 0.950 . S
C2789 C2787 1.327 . S
C2790 C2778 1.349 . S
C2790 H2784 0.950 . S
C2790 C2791 1.327 . S
C2791 H2785 0.950 . S
C2791 C2790 1.327 . S
C2791 C2795 1.429 . S
C2792 C2775 1.574 . S
C2792 H2786 0.949 . S
C2792 C2796 1.368 . S
C2793 C2774 1.429 . S
C2793 C2787 1.429 . S
C2793 C2794 1.523 . S
C2794 C2775 1.368 . S
C2794 C2788 1.368 . S
C2794 C2793 1.523 . S
C2795 C2779 1.429 . S
C2795 C2791 1.429 . S
C2795 C2796 1.523 . S
C2796 C2780 1.368 . S
C2796 C2792 1.368 . S
C2796 C2795 1.523 . S
H2797 C2772 0.950 . S
H2798 C2774 0.950 . S
H2799 C2775 0.949 . S
H2800 C2777 0.950 . S
H2801 C2779 0.950 . S
C2802 C2803 1.349 . S
C2802 C2804 1.327 . S
C2802 H2827 0.950 . S
C2803 C2802 1.349 . S
C2803 C2819 1.349 . S
C2804 C2802 1.327 . S
C2804 C2823 1.429 . S
C2804 H2828 0.950 . S
C2805 C2822 1.574 . S
C2805 C2824 1.368 . S
C2805 H2829 0.949 . S
H2806 C2810 0.949 . S
C2807 C2808 1.349 . S
C2807 C2809 1.327 . S
C2807 H2830 0.950 . S
C2808 C2807 1.349 . S
C2808 C2820 1.349 . S
C2809 C2807 1.327 . S
C2809 C2825 1.429 . S
C2809 H2831 0.950 . S
C2810 H2806 0.949 . S
C2810 C2818 1.574 . S
C2810 C2826 1.368 . S
H2811 C2819 0.950 . S
H2812 C2817 0.950 . S
H2813 C2818 0.949 . S
H2814 C2820 0.950 . S
H2815 C2821 0.950 . S
H2816 C2822 0.949 . S
C2817 H2812 0.950 . S
C2817 C2819 1.327 . S
C2817 C2823 1.429 . S
C2818 C2810 1.574 . S
C2818 H2813 0.949 . S
C2818 C2824 1.368 . S
C2819 C2803 1.349 . S
C2819 H2811 0.950 . S
C2819 C2817 1.327 . S
C2820 C2808 1.349 . S
C2820 H2814 0.950 . S
C2820 C2821 1.327 . S
C2821 H2815 0.950 . S
C2821 C2820 1.327 . S
C2821 C2825 1.429 . S
C2822 C2805 1.574 . S
C2822 H2816 0.949 . S
C2822 C2826 1.368 . S
C2823 C2804 1.429 . S
C2823 C2817 1.429 . S
C2823 C2824 1.523 . S
C2824 C2805 1.368 . S
C2824 C2818 1.368 . S
C2824 C2823 1.523 . S
C2825 C2809 1.429 . S
C2825 C2821 1.429 . S
C2825 C2826 1.523 . S
C2826 C2810 1.368 . S
C2826 C2822 1.368 . S
C2826 C2825 1.523 . S
H2827 C2802 0.950 . S
H2828 C2804 0.950 . S
H2829 C2805 0.949 . S
H2830 C2807 0.950 . S
H2831 C2809 0.950 . S
C2832 C2833 1.349 . S
C2832 C2834 1.327 . S
C2832 H2857 0.950 . S
C2833 C2832 1.349 . S
C2833 C2849 1.349 . S
C2834 C2832 1.327 . S
C2834 C2853 1.429 . S
C2834 H2858 0.950 . S
C2835 C2852 1.574 1_554 S
C2835 C2854 1.368 . S
C2835 H2859 0.949 . S
H2836 C2840 0.949 . S
C2837 C2838 1.349 . S
C2837 C2839 1.327 . S
C2837 H2860 0.950 . S
C2838 C2837 1.349 . S
C2838 C2850 1.349 . S
C2839 C2837 1.327 . S
C2839 C2855 1.429 . S
C2839 H2861 0.950 . S
C2840 H2836 0.949 . S
C2840 C2848 1.574 1_556 S
C2840 C2856 1.368 . S
H2841 C2849 0.950 . S
H2842 C2847 0.950 . S
H2843 C2848 0.949 . S
H2844 C2850 0.950 . S
H2845 C2851 0.950 . S
H2846 C2852 0.949 . S
C2847 H2842 0.950 . S
C2847 C2849 1.327 . S
C2847 C2853 1.429 . S
C2848 C2840 1.574 1_554 S
C2848 H2843 0.949 . S
C2848 C2854 1.368 . S
C2849 C2833 1.349 . S
C2849 H2841 0.950 . S
C2849 C2847 1.327 . S
C2850 C2838 1.349 . S
C2850 H2844 0.950 . S
C2850 C2851 1.327 . S
C2851 H2845 0.950 . S
C2851 C2850 1.327 . S
C2851 C2855 1.429 . S
C2852 C2835 1.574 1_556 S
C2852 H2846 0.949 . S
C2852 C2856 1.368 . S
C2853 C2834 1.429 . S
C2853 C2847 1.429 . S
C2853 C2854 1.523 . S
C2854 C2835 1.368 . S
C2854 C2848 1.368 . S
C2854 C2853 1.523 . S
C2855 C2839 1.429 . S
C2855 C2851 1.429 . S
C2855 C2856 1.523 . S
C2856 C2840 1.368 . S
C2856 C2852 1.368 . S
C2856 C2855 1.523 . S
H2857 C2832 0.950 . S
H2858 C2834 0.950 . S
H2859 C2835 0.949 . S
H2860 C2837 0.950 . S
H2861 C2839 0.950 . S
C2862 C2863 1.349 . S
C2862 C2864 1.327 . S
C2862 H2887 0.950 . S
C2863 C2862 1.349 . S
C2863 C2879 1.349 . S
C2864 C2862 1.327 . S
C2864 C2883 1.429 . S
C2864 H2888 0.950 . S
C2865 C2882 1.574 1_556 S
C2865 C2884 1.368 . S
C2865 H2889 0.949 . S
H2866 C2870 0.949 . S
C2867 C2868 1.349 . S
C2867 C2869 1.327 . S
C2867 H2890 0.950 . S
C2868 C2867 1.349 . S
C2868 C2880 1.349 . S
C2869 C2867 1.327 . S
C2869 C2885 1.429 . S
C2869 H2891 0.950 . S
C2870 H2866 0.949 . S
C2870 C2878 1.574 1_554 S
C2870 C2886 1.368 . S
H2871 C2879 0.950 . S
H2872 C2877 0.950 . S
H2873 C2878 0.949 . S
H2874 C2880 0.950 . S
H2875 C2881 0.950 . S
H2876 C2882 0.949 . S
C2877 H2872 0.950 . S
C2877 C2879 1.327 . S
C2877 C2883 1.429 . S
C2878 C2870 1.574 1_556 S
C2878 H2873 0.949 . S
C2878 C2884 1.368 . S
C2879 C2863 1.349 . S
C2879 H2871 0.950 . S
C2879 C2877 1.327 . S
C2880 C2868 1.349 . S
C2880 H2874 0.950 . S
C2880 C2881 1.327 . S
C2881 H2875 0.950 . S
C2881 C2880 1.327 . S
C2881 C2885 1.429 . S
C2882 C2865 1.574 1_554 S
C2882 H2876 0.949 . S
C2882 C2886 1.368 . S
C2883 C2864 1.429 . S
C2883 C2877 1.429 . S
C2883 C2884 1.523 . S
C2884 C2865 1.368 . S
C2884 C2878 1.368 . S
C2884 C2883 1.523 . S
C2885 C2869 1.429 . S
C2885 C2881 1.429 . S
C2885 C2886 1.523 . S
C2886 C2870 1.368 . S
C2886 C2882 1.368 . S
C2886 C2885 1.523 . S
H2887 C2862 0.950 . S
H2888 C2864 0.950 . S
H2889 C2865 0.949 . S
H2890 C2867 0.950 . S
H2891 C2869 0.950 . S
C2892 C2893 1.349 . S
C2892 C2894 1.327 . S
C2892 H2917 0.950 . S
C2893 C2892 1.349 . S
C2893 C2909 1.349 . S
C2894 C2892 1.327 . S
C2894 C2913 1.429 . S
C2894 H2918 0.950 . S
C2895 C2912 1.574 1_554 S
C2895 C2914 1.368 . S
C2895 H2919 0.949 . S
H2896 C2900 0.949 . S
C2897 C2898 1.349 . S
C2897 C2899 1.327 . S
C2897 H2920 0.950 . S
C2898 C2897 1.349 . S
C2898 C2910 1.349 . S
C2899 C2897 1.327 . S
C2899 C2915 1.429 . S
C2899 H2921 0.950 . S
C2900 H2896 0.949 . S
C2900 C2908 1.574 1_556 S
C2900 C2916 1.368 . S
H2901 C2909 0.950 . S
H2902 C2907 0.950 . S
H2903 C2908 0.949 . S
H2904 C2910 0.950 . S
H2905 C2911 0.950 . S
H2906 C2912 0.949 . S
C2907 H2902 0.950 . S
C2907 C2909 1.327 . S
C2907 C2913 1.429 . S
C2908 C2900 1.574 1_554 S
C2908 H2903 0.949 . S
C2908 C2914 1.368 . S
C2909 C2893 1.349 . S
C2909 H2901 0.950 . S
C2909 C2907 1.327 . S
C2910 C2898 1.349 . S
C2910 H2904 0.950 . S
C2910 C2911 1.327 . S
C2911 H2905 0.950 . S
C2911 C2910 1.327 . S
C2911 C2915 1.429 . S
C2912 C2895 1.574 1_556 S
C2912 H2906 0.949 . S
C2912 C2916 1.368 . S
C2913 C2894 1.429 . S
C2913 C2907 1.429 . S
C2913 C2914 1.523 . S
C2914 C2895 1.368 . S
C2914 C2908 1.368 . S
C2914 C2913 1.523 . S
C2915 C2899 1.429 . S
C2915 C2911 1.429 . S
C2915 C2916 1.523 . S
C2916 C2900 1.368 . S
C2916 C2912 1.368 . S
C2916 C2915 1.523 . S
H2917 C2892 0.950 . S
H2918 C2894 0.950 . S
H2919 C2895 0.949 . S
H2920 C2897 0.950 . S
H2921 C2899 0.950 . S
C2922 C2923 1.349 . S
C2922 C2924 1.327 . S
C2922 H2947 0.950 . S
C2923 C2922 1.349 . S
C2923 C2939 1.349 . S
C2924 C2922 1.327 . S
C2924 C2943 1.429 . S
C2924 H2948 0.950 . S
C2925 C2942 1.574 1_554 S
C2925 C2944 1.368 . S
C2925 H2949 0.949 . S
H2926 C2930 0.949 . S
C2927 C2928 1.349 . S
C2927 C2929 1.327 . S
C2927 H2950 0.950 . S
C2928 C2927 1.349 . S
C2928 C2940 1.349 . S
C2929 C2927 1.327 . S
C2929 C2945 1.429 . S
C2929 H2951 0.950 . S
C2930 H2926 0.949 . S
C2930 C2938 1.574 1_556 S
C2930 C2946 1.368 . S
H2931 C2939 0.950 . S
H2932 C2937 0.950 . S
H2933 C2938 0.949 . S
H2934 C2940 0.950 . S
H2935 C2941 0.950 . S
H2936 C2942 0.949 . S
C2937 H2932 0.950 . S
C2937 C2939 1.327 . S
C2937 C2943 1.429 . S
C2938 C2930 1.574 1_554 S
C2938 H2933 0.949 . S
C2938 C2944 1.368 . S
C2939 C2923 1.349 . S
C2939 H2931 0.950 . S
C2939 C2937 1.327 . S
C2940 C2928 1.349 . S
C2940 H2934 0.950 . S
C2940 C2941 1.327 . S
C2941 H2935 0.950 . S
C2941 C2940 1.327 . S
C2941 C2945 1.429 . S
C2942 C2925 1.574 1_556 S
C2942 H2936 0.949 . S
C2942 C2946 1.368 . S
C2943 C2924 1.429 . S
C2943 C2937 1.429 . S
C2943 C2944 1.523 . S
C2944 C2925 1.368 . S
C2944 C2938 1.368 . S
C2944 C2943 1.523 . S
C2945 C2929 1.429 . S
C2945 C2941 1.429 . S
C2945 C2946 1.523 . S
C2946 C2930 1.368 . S
C2946 C2942 1.368 . S
C2946 C2945 1.523 . S
H2947 C2922 0.950 . S
H2948 C2924 0.950 . S
H2949 C2925 0.949 . S
H2950 C2927 0.950 . S
H2951 C2929 0.950 . S
C2952 C2953 1.349 . S
C2952 C2954 1.327 . S
C2952 H2977 0.950 . S
C2953 C2952 1.349 . S
C2953 C2969 1.349 . S
C2954 C2952 1.327 . S
C2954 C2973 1.429 . S
C2954 H2978 0.950 . S
C2955 C2972 1.574 1_556 S
C2955 C2974 1.368 . S
C2955 H2979 0.949 . S
H2956 C2960 0.949 . S
C2957 C2958 1.349 . S
C2957 C2959 1.327 . S
C2957 H2980 0.950 . S
C2958 C2957 1.349 . S
C2958 C2970 1.349 . S
C2959 C2957 1.327 . S
C2959 C2975 1.429 . S
C2959 H2981 0.950 . S
C2960 H2956 0.949 . S
C2960 C2968 1.574 1_554 S
C2960 C2976 1.368 . S
H2961 C2969 0.950 . S
H2962 C2967 0.950 . S
H2963 C2968 0.949 . S
H2964 C2970 0.950 . S
H2965 C2971 0.950 . S
H2966 C2972 0.949 . S
C2967 H2962 0.950 . S
C2967 C2969 1.327 . S
C2967 C2973 1.429 . S
C2968 C2960 1.574 1_556 S
C2968 H2963 0.949 . S
C2968 C2974 1.368 . S
C2969 C2953 1.349 . S
C2969 H2961 0.950 . S
C2969 C2967 1.327 . S
C2970 C2958 1.349 . S
C2970 H2964 0.950 . S
C2970 C2971 1.327 . S
C2971 H2965 0.950 . S
C2971 C2970 1.327 . S
C2971 C2975 1.429 . S
C2972 C2955 1.574 1_554 S
C2972 H2966 0.949 . S
C2972 C2976 1.368 . S
C2973 C2954 1.429 . S
C2973 C2967 1.429 . S
C2973 C2974 1.523 . S
C2974 C2955 1.368 . S
C2974 C2968 1.368 . S
C2974 C2973 1.523 . S
C2975 C2959 1.429 . S
C2975 C2971 1.429 . S
C2975 C2976 1.523 . S
C2976 C2960 1.368 . S
C2976 C2972 1.368 . S
C2976 C2975 1.523 . S
H2977 C2952 0.950 . S
H2978 C2954 0.950 . S
H2979 C2955 0.949 . S
H2980 C2957 0.950 . S
H2981 C2959 0.950 . S
C2982 C2983 1.349 . S
C2982 C2984 1.327 . S
C2982 H3007 0.950 . S
C2983 C2982 1.349 . S
C2983 C2999 1.349 . S
C2984 C2982 1.327 . S
C2984 C3003 1.429 . S
C2984 H3008 0.950 . S
C2985 C3002 1.574 1_554 S
C2985 C3004 1.368 . S
C2985 H3009 0.949 . S
H2986 C2990 0.949 . S
C2987 C2988 1.349 . S
C2987 C2989 1.327 . S
C2987 H3010 0.950 . S
C2988 C2987 1.349 . S
C2988 C3000 1.349 . S
C2989 C2987 1.327 . S
C2989 C3005 1.429 . S
C2989 H3011 0.950 . S
C2990 H2986 0.949 . S
C2990 C2998 1.574 1_556 S
C2990 C3006 1.368 . S
H2991 C2999 0.950 . S
H2992 C2997 0.950 . S
H2993 C2998 0.949 . S
H2994 C3000 0.950 . S
H2995 C3001 0.950 . S
H2996 C3002 0.949 . S
C2997 H2992 0.950 . S
C2997 C2999 1.327 . S
C2997 C3003 1.429 . S
C2998 C2990 1.574 1_554 S
C2998 H2993 0.949 . S
C2998 C3004 1.368 . S
C2999 C2983 1.349 . S
C2999 H2991 0.950 . S
C2999 C2997 1.327 . S
C3000 C2988 1.349 . S
C3000 H2994 0.950 . S
C3000 C3001 1.327 . S
C3001 H2995 0.950 . S
C3001 C3000 1.327 . S
C3001 C3005 1.429 . S
C3002 C2985 1.574 1_556 S
C3002 H2996 0.949 . S
C3002 C3006 1.368 . S
C3003 C2984 1.429 . S
C3003 C2997 1.429 . S
C3003 C3004 1.523 . S
C3004 C2985 1.368 . S
C3004 C2998 1.368 . S
C3004 C3003 1.523 . S
C3005 C2989 1.429 . S
C3005 C3001 1.429 . S
C3005 C3006 1.523 . S
C3006 C2990 1.368 . S
C3006 C3002 1.368 . S
C3006 C3005 1.523 . S
H3007 C2982 0.950 . S
H3008 C2984 0.950 . S
H3009 C2985 0.949 . S
H3010 C2987 0.950 . S
H3011 C2989 0.950 . S
C3012 C3013 1.349 . S
C3012 C3014 1.327 . S
C3012 H3037 0.950 . S
C3013 C3012 1.349 . S
C3013 C3029 1.349 . S
C3014 C3012 1.327 . S
C3014 C3033 1.429 . S
C3014 H3038 0.950 . S
C3015 C3032 1.574 1_556 S
C3015 C3034 1.368 . S
C3015 H3039 0.949 . S
H3016 C3020 0.949 . S
C3017 C3018 1.349 . S
C3017 C3019 1.327 . S
C3017 H3040 0.950 . S
C3018 C3017 1.349 . S
C3018 C3030 1.349 . S
C3019 C3017 1.327 . S
C3019 C3035 1.429 . S
C3019 H3041 0.950 . S
C3020 H3016 0.949 . S
C3020 C3028 1.574 1_554 S
C3020 C3036 1.368 . S
H3021 C3029 0.950 . S
H3022 C3027 0.950 . S
H3023 C3028 0.949 . S
H3024 C3030 0.950 . S
H3025 C3031 0.950 . S
H3026 C3032 0.949 . S
C3027 H3022 0.950 . S
C3027 C3029 1.327 . S
C3027 C3033 1.429 . S
C3028 C3020 1.574 1_556 S
C3028 H3023 0.949 . S
C3028 C3034 1.368 . S
C3029 C3013 1.349 . S
C3029 H3021 0.950 . S
C3029 C3027 1.327 . S
C3030 C3018 1.349 . S
C3030 H3024 0.950 . S
C3030 C3031 1.327 . S
C3031 H3025 0.950 . S
C3031 C3030 1.327 . S
C3031 C3035 1.429 . S
C3032 C3015 1.574 1_554 S
C3032 H3026 0.949 . S
C3032 C3036 1.368 . S
C3033 C3014 1.429 . S
C3033 C3027 1.429 . S
C3033 C3034 1.523 . S
C3034 C3015 1.368 . S
C3034 C3028 1.368 . S
C3034 C3033 1.523 . S
C3035 C3019 1.429 . S
C3035 C3031 1.429 . S
C3035 C3036 1.523 . S
C3036 C3020 1.368 . S
C3036 C3032 1.368 . S
C3036 C3035 1.523 . S
H3037 C3012 0.950 . S
H3038 C3014 0.950 . S
H3039 C3015 0.949 . S
H3040 C3017 0.950 . S
H3041 C3019 0.950 . S
C3042 C3043 1.349 . S
C3042 C3044 1.327 . S
C3042 H3067 0.950 . S
C3043 C3042 1.349 . S
C3043 C3059 1.349 . S
C3044 C3042 1.327 . S
C3044 C3063 1.429 . S
C3044 H3068 0.950 . S
C3045 C3062 1.574 1_554 S
C3045 C3064 1.368 . S
C3045 H3069 0.949 . S
H3046 C3050 0.949 . S
C3047 C3048 1.349 . S
C3047 C3049 1.327 . S
C3047 H3070 0.950 . S
C3048 C3047 1.349 . S
C3048 C3060 1.349 . S
C3049 C3047 1.327 . S
C3049 C3065 1.429 . S
C3049 H3071 0.950 . S
C3050 H3046 0.949 . S
C3050 C3058 1.574 1_556 S
C3050 C3066 1.368 . S
H3051 C3059 0.950 . S
H3052 C3057 0.950 . S
H3053 C3058 0.949 . S
H3054 C3060 0.950 . S
H3055 C3061 0.950 . S
H3056 C3062 0.949 . S
C3057 H3052 0.950 . S
C3057 C3059 1.327 . S
C3057 C3063 1.429 . S
C3058 C3050 1.574 1_554 S
C3058 H3053 0.949 . S
C3058 C3064 1.368 . S
C3059 C3043 1.349 . S
C3059 H3051 0.950 . S
C3059 C3057 1.327 . S
C3060 C3048 1.349 . S
C3060 H3054 0.950 . S
C3060 C3061 1.327 . S
C3061 H3055 0.950 . S
C3061 C3060 1.327 . S
C3061 C3065 1.429 . S
C3062 C3045 1.574 1_556 S
C3062 H3056 0.949 . S
C3062 C3066 1.368 . S
C3063 C3044 1.429 . S
C3063 C3057 1.429 . S
C3063 C3064 1.523 . S
C3064 C3045 1.368 . S
C3064 C3058 1.368 . S
C3064 C3063 1.523 . S
C3065 C3049 1.429 . S
C3065 C3061 1.429 . S
C3065 C3066 1.523 . S
C3066 C3050 1.368 . S
C3066 C3062 1.368 . S
C3066 C3065 1.523 . S
H3067 C3042 0.950 . S
H3068 C3044 0.950 . S
H3069 C3045 0.949 . S
H3070 C3047 0.950 . S
H3071 C3049 0.950 . S
C3072 C3073 1.349 . S
C3072 C3074 1.327 . S
C3072 H3097 0.950 . S
C3073 C3072 1.349 . S
C3073 C3089 1.349 . S
C3074 C3072 1.327 . S
C3074 C3093 1.429 . S
C3074 H3098 0.950 . S
C3075 C3092 1.574 1_455 S
C3075 C3094 1.368 . S
C3075 H3099 0.949 . S
H3076 C3080 0.949 . S
C3077 C3078 1.349 . S
C3077 C3079 1.327 . S
C3077 H3100 0.950 . S
C3078 C3077 1.349 . S
C3078 C3090 1.349 . S
C3079 C3077 1.327 . S
C3079 C3095 1.429 . S
C3079 H3101 0.950 . S
C3080 H3076 0.949 . S
C3080 C3088 1.574 1_655 S
C3080 C3096 1.368 . S
H3081 C3089 0.950 . S
H3082 C3087 0.950 . S
H3083 C3088 0.949 . S
H3084 C3090 0.950 . S
H3085 C3091 0.950 . S
H3086 C3092 0.949 . S
C3087 H3082 0.950 . S
C3087 C3089 1.327 . S
C3087 C3093 1.429 . S
C3088 C3080 1.574 1_455 S
C3088 H3083 0.949 . S
C3088 C3094 1.368 . S
C3089 C3073 1.349 . S
C3089 H3081 0.950 . S
C3089 C3087 1.327 . S
C3090 C3078 1.349 . S
C3090 H3084 0.950 . S
C3090 C3091 1.327 . S
C3091 H3085 0.950 . S
C3091 C3090 1.327 . S
C3091 C3095 1.429 . S
C3092 C3075 1.574 1_655 S
C3092 H3086 0.949 . S
C3092 C3096 1.368 . S
C3093 C3074 1.429 . S
C3093 C3087 1.429 . S
C3093 C3094 1.523 . S
C3094 C3075 1.368 . S
C3094 C3088 1.368 . S
C3094 C3093 1.523 . S
C3095 C3079 1.429 . S
C3095 C3091 1.429 . S
C3095 C3096 1.523 . S
C3096 C3080 1.368 . S
C3096 C3092 1.368 . S
C3096 C3095 1.523 . S
H3097 C3072 0.950 . S
H3098 C3074 0.950 . S
H3099 C3075 0.949 . S
H3100 C3077 0.950 . S
H3101 C3079 0.950 . S
C3102 C3103 1.349 . S
C3102 C3104 1.327 . S
C3102 H3127 0.950 . S
C3103 C3102 1.349 . S
C3103 C3119 1.349 . S
C3104 C3102 1.327 . S
C3104 C3123 1.429 . S
C3104 H3128 0.950 . S
C3105 C3122 1.574 1_565 S
C3105 C3124 1.368 . S
C3105 H3129 0.949 . S
H3106 C3110 0.949 . S
C3107 C3108 1.349 . S
C3107 C3109 1.327 . S
C3107 H3130 0.950 . S
C3108 C3107 1.349 . S
C3108 C3120 1.349 . S
C3109 C3107 1.327 . S
C3109 C3125 1.429 . S
C3109 H3131 0.950 . S
C3110 H3106 0.949 . S
C3110 C3118 1.574 1_545 S
C3110 C3126 1.368 . S
H3111 C3119 0.950 . S
H3112 C3117 0.950 . S
H3113 C3118 0.949 . S
H3114 C3120 0.950 . S
H3115 C3121 0.950 . S
H3116 C3122 0.949 . S
C3117 H3112 0.950 . S
C3117 C3119 1.327 . S
C3117 C3123 1.429 . S
C3118 C3110 1.574 1_565 S
C3118 H3113 0.949 . S
C3118 C3124 1.368 . S
C3119 C3103 1.349 . S
C3119 H3111 0.950 . S
C3119 C3117 1.327 . S
C3120 C3108 1.349 . S
C3120 H3114 0.950 . S
C3120 C3121 1.327 . S
C3121 H3115 0.950 . S
C3121 C3120 1.327 . S
C3121 C3125 1.429 . S
C3122 C3105 1.574 1_545 S
C3122 H3116 0.949 . S
C3122 C3126 1.368 . S
C3123 C3104 1.429 . S
C3123 C3117 1.429 . S
C3123 C3124 1.523 . S
C3124 C3105 1.368 . S
C3124 C3118 1.368 . S
C3124 C3123 1.523 . S
C3125 C3109 1.429 . S
C3125 C3121 1.429 . S
C3125 C3126 1.523 . S
C3126 C3110 1.368 . S
C3126 C3122 1.368 . S
C3126 C3125 1.523 . S
H3127 C3102 0.950 . S
H3128 C3104 0.950 . S
H3129 C3105 0.949 . S
H3130 C3107 0.950 . S
H3131 C3109 0.950 . S
C3132 C3133 1.349 . S
C3132 C3134 1.327 . S
C3132 H3157 0.950 . S
C3133 C3132 1.349 . S
C3133 C3149 1.349 . S
C3134 C3132 1.327 . S
C3134 C3153 1.429 . S
C3134 H3158 0.950 . S
C3135 C3152 1.574 1_455 S
C3135 C3154 1.368 . S
C3135 H3159 0.949 . S
H3136 C3140 0.949 . S
C3137 C3138 1.349 . S
C3137 C3139 1.327 . S
C3137 H3160 0.950 . S
C3138 C3137 1.349 . S
C3138 C3150 1.349 . S
C3139 C3137 1.327 . S
C3139 C3155 1.429 . S
C3139 H3161 0.950 . S
C3140 H3136 0.949 . S
C3140 C3148 1.574 1_655 S
C3140 C3156 1.368 . S
H3141 C3149 0.950 . S
H3142 C3147 0.950 . S
H3143 C3148 0.949 . S
H3144 C3150 0.950 . S
H3145 C3151 0.950 . S
H3146 C3152 0.949 . S
C3147 H3142 0.950 . S
C3147 C3149 1.327 . S
C3147 C3153 1.429 . S
C3148 C3140 1.574 1_455 S
C3148 H3143 0.949 . S
C3148 C3154 1.368 . S
C3149 C3133 1.349 . S
C3149 H3141 0.950 . S
C3149 C3147 1.327 . S
C3150 C3138 1.349 . S
C3150 H3144 0.950 . S
C3150 C3151 1.327 . S
C3151 H3145 0.950 . S
C3151 C3150 1.327 . S
C3151 C3155 1.429 . S
C3152 C3135 1.574 1_655 S
C3152 H3146 0.949 . S
C3152 C3156 1.368 . S
C3153 C3134 1.429 . S
C3153 C3147 1.429 . S
C3153 C3154 1.523 . S
C3154 C3135 1.368 . S
C3154 C3148 1.368 . S
C3154 C3153 1.523 . S
C3155 C3139 1.429 . S
C3155 C3151 1.429 . S
C3155 C3156 1.523 . S
C3156 C3140 1.368 . S
C3156 C3152 1.368 . S
C3156 C3155 1.523 . S
H3157 C3132 0.950 . S
H3158 C3134 0.950 . S
H3159 C3135 0.949 . S
H3160 C3137 0.950 . S
H3161 C3139 0.950 . S
C3162 C3163 1.349 . S
C3162 C3164 1.327 . S
C3162 H3187 0.950 . S
C3163 C3162 1.349 . S
C3163 C3179 1.349 . S
C3164 C3162 1.327 . S
C3164 C3183 1.429 . S
C3164 H3188 0.950 . S
C3165 C3182 1.574 1_565 S
C3165 C3184 1.368 . S
C3165 H3189 0.949 . S
H3166 C3170 0.949 . S
C3167 C3168 1.349 . S
C3167 C3169 1.327 . S
C3167 H3190 0.950 . S
C3168 C3167 1.349 . S
C3168 C3180 1.349 . S
C3169 C3167 1.327 . S
C3169 C3185 1.429 . S
C3169 H3191 0.950 . S
C3170 H3166 0.949 . S
C3170 C3178 1.574 1_545 S
C3170 C3186 1.368 . S
H3171 C3179 0.950 . S
H3172 C3177 0.950 . S
H3173 C3178 0.949 . S
H3174 C3180 0.950 . S
H3175 C3181 0.950 . S
H3176 C3182 0.949 . S
C3177 H3172 0.950 . S
C3177 C3179 1.327 . S
C3177 C3183 1.429 . S
C3178 C3170 1.574 1_565 S
C3178 H3173 0.949 . S
C3178 C3184 1.368 . S
C3179 C3163 1.349 . S
C3179 H3171 0.950 . S
C3179 C3177 1.327 . S
C3180 C3168 1.349 . S
C3180 H3174 0.950 . S
C3180 C3181 1.327 . S
C3181 H3175 0.950 . S
C3181 C3180 1.327 . S
C3181 C3185 1.429 . S
C3182 C3165 1.574 1_545 S
C3182 H3176 0.949 . S
C3182 C3186 1.368 . S
C3183 C3164 1.429 . S
C3183 C3177 1.429 . S
C3183 C3184 1.523 . S
C3184 C3165 1.368 . S
C3184 C3178 1.368 . S
C3184 C3183 1.523 . S
C3185 C3169 1.429 . S
C3185 C3181 1.429 . S
C3185 C3186 1.523 . S
C3186 C3170 1.368 . S
C3186 C3182 1.368 . S
C3186 C3185 1.523 . S
H3187 C3162 0.950 . S
H3188 C3164 0.950 . S
H3189 C3165 0.949 . S
H3190 C3167 0.950 . S
H3191 C3169 0.950 . S
C3192 C3193 1.349 . S
C3192 C3194 1.327 . S
C3192 H3217 0.950 . S
C3193 C3192 1.349 . S
C3193 C3209 1.349 . S
C3194 C3192 1.327 . S
C3194 C3213 1.429 . S
C3194 H3218 0.950 . S
C3195 C3212 1.574 1_655 S
C3195 C3214 1.368 . S
C3195 H3219 0.949 . S
H3196 C3200 0.949 . S
C3197 C3198 1.349 . S
C3197 C3199 1.327 . S
C3197 H3220 0.950 . S
C3198 C3197 1.349 . S
C3198 C3210 1.349 . S
C3199 C3197 1.327 . S
C3199 C3215 1.429 . S
C3199 H3221 0.950 . S
C3200 H3196 0.949 . S
C3200 C3208 1.574 1_455 S
C3200 C3216 1.368 . S
H3201 C3209 0.950 . S
H3202 C3207 0.950 . S
H3203 C3208 0.949 . S
H3204 C3210 0.950 . S
H3205 C3211 0.950 . S
H3206 C3212 0.949 . S
C3207 H3202 0.950 . S
C3207 C3209 1.327 . S
C3207 C3213 1.429 . S
C3208 C3200 1.574 1_655 S
C3208 H3203 0.949 . S
C3208 C3214 1.368 . S
C3209 C3193 1.349 . S
C3209 H3201 0.950 . S
C3209 C3207 1.327 . S
C3210 C3198 1.349 . S
C3210 H3204 0.950 . S
C3210 C3211 1.327 . S
C3211 H3205 0.950 . S
C3211 C3210 1.327 . S
C3211 C3215 1.429 . S
C3212 C3195 1.574 1_455 S
C3212 H3206 0.949 . S
C3212 C3216 1.368 . S
C3213 C3194 1.429 . S
C3213 C3207 1.429 . S
C3213 C3214 1.523 . S
C3214 C3195 1.368 . S
C3214 C3208 1.368 . S
C3214 C3213 1.523 . S
C3215 C3199 1.429 . S
C3215 C3211 1.429 . S
C3215 C3216 1.523 . S
C3216 C3200 1.368 . S
C3216 C3212 1.368 . S
C3216 C3215 1.523 . S
H3217 C3192 0.950 . S
H3218 C3194 0.950 . S
H3219 C3195 0.949 . S
H3220 C3197 0.950 . S
H3221 C3199 0.950 . S
C3222 C3223 1.349 . S
C3222 C3224 1.327 . S
C3222 H3247 0.950 . S
C3223 C3222 1.349 . S
C3223 C3239 1.349 . S
C3224 C3222 1.327 . S
C3224 C3243 1.429 . S
C3224 H3248 0.950 . S
C3225 C3242 1.574 1_545 S
C3225 C3244 1.368 . S
C3225 H3249 0.949 . S
H3226 C3230 0.949 . S
C3227 C3228 1.349 . S
C3227 C3229 1.327 . S
C3227 H3250 0.950 . S
C3228 C3227 1.349 . S
C3228 C3240 1.349 . S
C3229 C3227 1.327 . S
C3229 C3245 1.429 . S
C3229 H3251 0.950 . S
C3230 H3226 0.949 . S
C3230 C3238 1.574 1_565 S
C3230 C3246 1.368 . S
H3231 C3239 0.950 . S
H3232 C3237 0.950 . S
H3233 C3238 0.949 . S
H3234 C3240 0.950 . S
H3235 C3241 0.950 . S
H3236 C3242 0.949 . S
C3237 H3232 0.950 . S
C3237 C3239 1.327 . S
C3237 C3243 1.429 . S
C3238 C3230 1.574 1_545 S
C3238 H3233 0.949 . S
C3238 C3244 1.368 . S
C3239 C3223 1.349 . S
C3239 H3231 0.950 . S
C3239 C3237 1.327 . S
C3240 C3228 1.349 . S
C3240 H3234 0.950 . S
C3240 C3241 1.327 . S
C3241 H3235 0.950 . S
C3241 C3240 1.327 . S
C3241 C3245 1.429 . S
C3242 C3225 1.574 1_565 S
C3242 H3236 0.949 . S
C3242 C3246 1.368 . S
C3243 C3224 1.429 . S
C3243 C3237 1.429 . S
C3243 C3244 1.523 . S
C3244 C3225 1.368 . S
C3244 C3238 1.368 . S
C3244 C3243 1.523 . S
C3245 C3229 1.429 . S
C3245 C3241 1.429 . S
C3245 C3246 1.523 . S
C3246 C3230 1.368 . S
C3246 C3242 1.368 . S
C3246 C3245 1.523 . S
H3247 C3222 0.950 . S
H3248 C3224 0.950 . S
H3249 C3225 0.949 . S
H3250 C3227 0.950 . S
H3251 C3229 0.950 . S
C3252 C3253 1.349 . S
C3252 C3254 1.327 . S
C3252 H3277 0.950 . S
C3253 C3252 1.349 . S
C3253 C3269 1.349 . S
C3254 C3252 1.327 . S
C3254 C3273 1.429 . S
C3254 H3278 0.950 . S
C3255 C3272 1.574 1_455 S
C3255 C3274 1.368 . S
C3255 H3279 0.949 . S
H3256 C3260 0.949 . S
C3257 C3258 1.349 . S
C3257 C3259 1.327 . S
C3257 H3280 0.950 . S
C3258 C3257 1.349 . S
C3258 C3270 1.349 . S
C3259 C3257 1.327 . S
C3259 C3275 1.429 . S
C3259 H3281 0.950 . S
C3260 H3256 0.949 . S
C3260 C3268 1.574 1_655 S
C3260 C3276 1.368 . S
H3261 C3269 0.950 . S
H3262 C3267 0.950 . S
H3263 C3268 0.949 . S
H3264 C3270 0.950 . S
H3265 C3271 0.950 . S
H3266 C3272 0.949 . S
C3267 H3262 0.950 . S
C3267 C3269 1.327 . S
C3267 C3273 1.429 . S
C3268 C3260 1.574 1_455 S
C3268 H3263 0.949 . S
C3268 C3274 1.368 . S
C3269 C3253 1.349 . S
C3269 H3261 0.950 . S
C3269 C3267 1.327 . S
C3270 C3258 1.349 . S
C3270 H3264 0.950 . S
C3270 C3271 1.327 . S
C3271 H3265 0.950 . S
C3271 C3270 1.327 . S
C3271 C3275 1.429 . S
C3272 C3255 1.574 1_655 S
C3272 H3266 0.949 . S
C3272 C3276 1.368 . S
C3273 C3254 1.429 . S
C3273 C3267 1.429 . S
C3273 C3274 1.523 . S
C3274 C3255 1.368 . S
C3274 C3268 1.368 . S
C3274 C3273 1.523 . S
C3275 C3259 1.429 . S
C3275 C3271 1.429 . S
C3275 C3276 1.523 . S
C3276 C3260 1.368 . S
C3276 C3272 1.368 . S
C3276 C3275 1.523 . S
H3277 C3252 0.950 . S
H3278 C3254 0.950 . S
H3279 C3255 0.949 . S
H3280 C3257 0.950 . S
H3281 C3259 0.950 . S
C3282 C3283 1.349 . S
C3282 C3284 1.327 . S
C3282 H3307 0.950 . S
C3283 C3282 1.349 . S
C3283 C3299 1.349 . S
C3284 C3282 1.327 . S
C3284 C3303 1.429 . S
C3284 H3308 0.950 . S
C3285 C3302 1.574 1_545 S
C3285 C3304 1.368 . S
C3285 H3309 0.949 . S
H3286 C3290 0.949 . S
C3287 C3288 1.349 . S
C3287 C3289 1.327 . S
C3287 H3310 0.950 . S
C3288 C3287 1.349 . S
C3288 C3300 1.349 . S
C3289 C3287 1.327 . S
C3289 C3305 1.429 . S
C3289 H3311 0.950 . S
C3290 H3286 0.949 . S
C3290 C3298 1.574 1_565 S
C3290 C3306 1.368 . S
H3291 C3299 0.950 . S
H3292 C3297 0.950 . S
H3293 C3298 0.949 . S
H3294 C3300 0.950 . S
H3295 C3301 0.950 . S
H3296 C3302 0.949 . S
C3297 H3292 0.950 . S
C3297 C3299 1.327 . S
C3297 C3303 1.429 . S
C3298 C3290 1.574 1_545 S
C3298 H3293 0.949 . S
C3298 C3304 1.368 . S
C3299 C3283 1.349 . S
C3299 H3291 0.950 . S
C3299 C3297 1.327 . S
C3300 C3288 1.349 . S
C3300 H3294 0.950 . S
C3300 C3301 1.327 . S
C3301 H3295 0.950 . S
C3301 C3300 1.327 . S
C3301 C3305 1.429 . S
C3302 C3285 1.574 1_565 S
C3302 H3296 0.949 . S
C3302 C3306 1.368 . S
C3303 C3284 1.429 . S
C3303 C3297 1.429 . S
C3303 C3304 1.523 . S
C3304 C3285 1.368 . S
C3304 C3298 1.368 . S
C3304 C3303 1.523 . S
C3305 C3289 1.429 . S
C3305 C3301 1.429 . S
C3305 C3306 1.523 . S
C3306 C3290 1.368 . S
C3306 C3302 1.368 . S
C3306 C3305 1.523 . S
H3307 C3282 0.950 . S
H3308 C3284 0.950 . S
H3309 C3285 0.949 . S
H3310 C3287 0.950 . S
H3311 C3289 0.950 . S
C3312 C3313 1.349 . S
C3312 C3314 1.327 . S
C3312 H3337 0.950 . S
C3313 C3312 1.349 . S
C3313 C3329 1.349 . S
C3314 C3312 1.327 . S
C3314 C3333 1.429 . S
C3314 H3338 0.950 . S
C3315 C3332 1.574 1_545 S
C3315 C3334 1.368 . S
C3315 H3339 0.949 . S
H3316 C3320 0.949 . S
C3317 C3318 1.349 . S
C3317 C3319 1.327 . S
C3317 H3340 0.950 . S
C3318 C3317 1.349 . S
C3318 C3330 1.349 . S
C3319 C3317 1.327 . S
C3319 C3335 1.429 . S
C3319 H3341 0.950 . S
C3320 H3316 0.949 . S
C3320 C3328 1.574 1_565 S
C3320 C3336 1.368 . S
H3321 C3329 0.950 . S
H3322 C3327 0.950 . S
H3323 C3328 0.949 . S
H3324 C3330 0.950 . S
H3325 C3331 0.950 . S
H3326 C3332 0.949 . S
C3327 H3322 0.950 . S
C3327 C3329 1.327 . S
C3327 C3333 1.429 . S
C3328 C3320 1.574 1_545 S
C3328 H3323 0.949 . S
C3328 C3334 1.368 . S
C3329 C3313 1.349 . S
C3329 H3321 0.950 . S
C3329 C3327 1.327 . S
C3330 C3318 1.349 . S
C3330 H3324 0.950 . S
C3330 C3331 1.327 . S
C3331 H3325 0.950 . S
C3331 C3330 1.327 . S
C3331 C3335 1.429 . S
C3332 C3315 1.574 1_565 S
C3332 H3326 0.949 . S
C3332 C3336 1.368 . S
C3333 C3314 1.429 . S
C3333 C3327 1.429 . S
C3333 C3334 1.523 . S
C3334 C3315 1.368 . S
C3334 C3328 1.368 . S
C3334 C3333 1.523 . S
C3335 C3319 1.429 . S
C3335 C3331 1.429 . S
C3335 C3336 1.523 . S
C3336 C3320 1.368 . S
C3336 C3332 1.368 . S
C3336 C3335 1.523 . S
H3337 C3312 0.950 . S
H3338 C3314 0.950 . S
H3339 C3315 0.949 . S
H3340 C3317 0.950 . S
H3341 C3319 0.950 . S
C3342 C3343 1.349 . S
C3342 C3344 1.327 . S
C3342 H3367 0.950 . S
C3343 C3342 1.349 . S
C3343 C3359 1.349 . S
C3344 C3342 1.327 . S
C3344 C3363 1.429 . S
C3344 H3368 0.950 . S
C3345 C3362 1.574 1_545 S
C3345 C3364 1.368 . S
C3345 H3369 0.949 . S
H3346 C3350 0.949 . S
C3347 C3348 1.349 . S
C3347 C3349 1.327 . S
C3347 H3370 0.950 . S
C3348 C3347 1.349 . S
C3348 C3360 1.349 . S
C3349 C3347 1.327 . S
C3349 C3365 1.429 . S
C3349 H3371 0.950 . S
C3350 H3346 0.949 . S
C3350 C3358 1.574 1_565 S
C3350 C3366 1.368 . S
H3351 C3359 0.950 . S
H3352 C3357 0.950 . S
H3353 C3358 0.949 . S
H3354 C3360 0.950 . S
H3355 C3361 0.950 . S
H3356 C3362 0.949 . S
C3357 H3352 0.950 . S
C3357 C3359 1.327 . S
C3357 C3363 1.429 . S
C3358 C3350 1.574 1_545 S
C3358 H3353 0.949 . S
C3358 C3364 1.368 . S
C3359 C3343 1.349 . S
C3359 H3351 0.950 . S
C3359 C3357 1.327 . S
C3360 C3348 1.349 . S
C3360 H3354 0.950 . S
C3360 C3361 1.327 . S
C3361 H3355 0.950 . S
C3361 C3360 1.327 . S
C3361 C3365 1.429 . S
C3362 C3345 1.574 1_565 S
C3362 H3356 0.949 . S
C3362 C3366 1.368 . S
C3363 C3344 1.429 . S
C3363 C3357 1.429 . S
C3363 C3364 1.523 . S
C3364 C3345 1.368 . S
C3364 C3358 1.368 . S
C3364 C3363 1.523 . S
C3365 C3349 1.429 . S
C3365 C3361 1.429 . S
C3365 C3366 1.523 . S
C3366 C3350 1.368 . S
C3366 C3362 1.368 . S
C3366 C3365 1.523 . S
H3367 C3342 0.950 . S
H3368 C3344 0.950 . S
H3369 C3345 0.949 . S
H3370 C3347 0.950 . S
H3371 C3349 0.950 . S
C3372 C3373 1.349 . S
C3372 C3374 1.327 . S
C3372 H3397 0.950 . S
C3373 C3372 1.349 . S
C3373 C3389 1.349 . S
C3374 C3372 1.327 . S
C3374 C3393 1.429 . S
C3374 H3398 0.950 . S
C3375 C3392 1.574 1_655 S
C3375 C3394 1.368 . S
C3375 H3399 0.949 . S
H3376 C3380 0.949 . S
C3377 C3378 1.349 . S
C3377 C3379 1.327 . S
C3377 H3400 0.950 . S
C3378 C3377 1.349 . S
C3378 C3390 1.349 . S
C3379 C3377 1.327 . S
C3379 C3395 1.429 . S
C3379 H3401 0.950 . S
C3380 H3376 0.949 . S
C3380 C3388 1.574 1_455 S
C3380 C3396 1.368 . S
H3381 C3389 0.950 . S
H3382 C3387 0.950 . S
H3383 C3388 0.949 . S
H3384 C3390 0.950 . S
H3385 C3391 0.950 . S
H3386 C3392 0.949 . S
C3387 H3382 0.950 . S
C3387 C3389 1.327 . S
C3387 C3393 1.429 . S
C3388 C3380 1.574 1_655 S
C3388 H3383 0.949 . S
C3388 C3394 1.368 . S
C3389 C3373 1.349 . S
C3389 H3381 0.950 . S
C3389 C3387 1.327 . S
C3390 C3378 1.349 . S
C3390 H3384 0.950 . S
C3390 C3391 1.327 . S
C3391 H3385 0.950 . S
C3391 C3390 1.327 . S
C3391 C3395 1.429 . S
C3392 C3375 1.574 1_455 S
C3392 H3386 0.949 . S
C3392 C3396 1.368 . S
C3393 C3374 1.429 . S
C3393 C3387 1.429 . S
C3393 C3394 1.523 . S
C3394 C3375 1.368 . S
C3394 C3388 1.368 . S
C3394 C3393 1.523 . S
C3395 C3379 1.429 . S
C3395 C3391 1.429 . S
C3395 C3396 1.523 . S
C3396 C3380 1.368 . S
C3396 C3392 1.368 . S
C3396 C3395 1.523 . S
H3397 C3372 0.950 . S
H3398 C3374 0.950 . S
H3399 C3375 0.949 . S
H3400 C3377 0.950 . S
H3401 C3379 0.950 . S
C3402 C3403 1.349 . S
C3402 C3404 1.327 . S
C3402 H3427 0.950 . S
C3403 C3402 1.349 . S
C3403 C3419 1.349 . S
C3404 C3402 1.327 . S
C3404 C3423 1.429 . S
C3404 H3428 0.950 . S
C3405 C3422 1.574 1_545 S
C3405 C3424 1.368 . S
C3405 H3429 0.949 . S
H3406 C3410 0.949 . S
C3407 C3408 1.349 . S
C3407 C3409 1.327 . S
C3407 H3430 0.950 . S
C3408 C3407 1.349 . S
C3408 C3420 1.349 . S
C3409 C3407 1.327 . S
C3409 C3425 1.429 . S
C3409 H3431 0.950 . S
C3410 H3406 0.949 . S
C3410 C3418 1.574 1_565 S
C3410 C3426 1.368 . S
H3411 C3419 0.950 . S
H3412 C3417 0.950 . S
H3413 C3418 0.949 . S
H3414 C3420 0.950 . S
H3415 C3421 0.950 . S
H3416 C3422 0.949 . S
C3417 H3412 0.950 . S
C3417 C3419 1.327 . S
C3417 C3423 1.429 . S
C3418 C3410 1.574 1_545 S
C3418 H3413 0.949 . S
C3418 C3424 1.368 . S
C3419 C3403 1.349 . S
C3419 H3411 0.950 . S
C3419 C3417 1.327 . S
C3420 C3408 1.349 . S
C3420 H3414 0.950 . S
C3420 C3421 1.327 . S
C3421 H3415 0.950 . S
C3421 C3420 1.327 . S
C3421 C3425 1.429 . S
C3422 C3405 1.574 1_565 S
C3422 H3416 0.949 . S
C3422 C3426 1.368 . S
C3423 C3404 1.429 . S
C3423 C3417 1.429 . S
C3423 C3424 1.523 . S
C3424 C3405 1.368 . S
C3424 C3418 1.368 . S
C3424 C3423 1.523 . S
C3425 C3409 1.429 . S
C3425 C3421 1.429 . S
C3425 C3426 1.523 . S
C3426 C3410 1.368 . S
C3426 C3422 1.368 . S
C3426 C3425 1.523 . S
H3427 C3402 0.950 . S
H3428 C3404 0.950 . S
H3429 C3405 0.949 . S
H3430 C3407 0.950 . S
H3431 C3409 0.950 . S
C3432 C3433 1.349 . S
C3432 C3434 1.327 . S
C3432 H3457 0.950 . S
C3433 C3432 1.349 . S
C3433 C3449 1.349 . S
C3434 C3432 1.327 . S
C3434 C3453 1.429 . S
C3434 H3458 0.950 . S
C3435 C3452 1.574 1_455 S
C3435 C3454 1.368 . S
C3435 H3459 0.949 . S
H3436 C3440 0.949 . S
C3437 C3438 1.349 . S
C3437 C3439 1.327 . S
C3437 H3460 0.950 . S
C3438 C3437 1.349 . S
C3438 C3450 1.349 . S
C3439 C3437 1.327 . S
C3439 C3455 1.429 . S
C3439 H3461 0.950 . S
C3440 H3436 0.949 . S
C3440 C3448 1.574 1_655 S
C3440 C3456 1.368 . S
H3441 C3449 0.950 . S
H3442 C3447 0.950 . S
H3443 C3448 0.949 . S
H3444 C3450 0.950 . S
H3445 C3451 0.950 . S
H3446 C3452 0.949 . S
C3447 H3442 0.950 . S
C3447 C3449 1.327 . S
C3447 C3453 1.429 . S
C3448 C3440 1.574 1_455 S
C3448 H3443 0.949 . S
C3448 C3454 1.368 . S
C3449 C3433 1.349 . S
C3449 H3441 0.950 . S
C3449 C3447 1.327 . S
C3450 C3438 1.349 . S
C3450 H3444 0.950 . S
C3450 C3451 1.327 . S
C3451 H3445 0.950 . S
C3451 C3450 1.327 . S
C3451 C3455 1.429 . S
C3452 C3435 1.574 1_655 S
C3452 H3446 0.949 . S
C3452 C3456 1.368 . S
C3453 C3434 1.429 . S
C3453 C3447 1.429 . S
C3453 C3454 1.523 . S
C3454 C3435 1.368 . S
C3454 C3448 1.368 . S
C3454 C3453 1.523 . S
C3455 C3439 1.429 . S
C3455 C3451 1.429 . S
C3455 C3456 1.523 . S
C3456 C3440 1.368 . S
C3456 C3452 1.368 . S
C3456 C3455 1.523 . S
H3457 C3432 0.950 . S
H3458 C3434 0.950 . S
H3459 C3435 0.949 . S
H3460 C3437 0.950 . S
H3461 C3439 0.950 . S
C3462 C3463 1.349 . S
C3462 C3464 1.327 . S
C3462 H3487 0.950 . S
C3463 C3462 1.349 . S
C3463 C3479 1.349 . S
C3464 C3462 1.327 . S
C3464 C3483 1.429 . S
C3464 H3488 0.950 . S
C3465 C3482 1.574 1_545 S
C3465 C3484 1.368 . S
C3465 H3489 0.949 . S
H3466 C3470 0.949 . S
C3467 C3468 1.349 . S
C3467 C3469 1.327 . S
C3467 H3490 0.950 . S
C3468 C3467 1.349 . S
C3468 C3480 1.349 . S
C3469 C3467 1.327 . S
C3469 C3485 1.429 . S
C3469 H3491 0.950 . S
C3470 H3466 0.949 . S
C3470 C3478 1.574 1_565 S
C3470 C3486 1.368 . S
H3471 C3479 0.950 . S
H3472 C3477 0.950 . S
H3473 C3478 0.949 . S
H3474 C3480 0.950 . S
H3475 C3481 0.950 . S
H3476 C3482 0.949 . S
C3477 H3472 0.950 . S
C3477 C3479 1.327 . S
C3477 C3483 1.429 . S
C3478 C3470 1.574 1_545 S
C3478 H3473 0.949 . S
C3478 C3484 1.368 . S
C3479 C3463 1.349 . S
C3479 H3471 0.950 . S
C3479 C3477 1.327 . S
C3480 C3468 1.349 . S
C3480 H3474 0.950 . S
C3480 C3481 1.327 . S
C3481 H3475 0.950 . S
C3481 C3480 1.327 . S
C3481 C3485 1.429 . S
C3482 C3465 1.574 1_565 S
C3482 H3476 0.949 . S
C3482 C3486 1.368 . S
C3483 C3464 1.429 . S
C3483 C3477 1.429 . S
C3483 C3484 1.523 . S
C3484 C3465 1.368 . S
C3484 C3478 1.368 . S
C3484 C3483 1.523 . S
C3485 C3469 1.429 . S
C3485 C3481 1.429 . S
C3485 C3486 1.523 . S
C3486 C3470 1.368 . S
C3486 C3482 1.368 . S
C3486 C3485 1.523 . S
H3487 C3462 0.950 . S
H3488 C3464 0.950 . S
H3489 C3465 0.949 . S
H3490 C3467 0.950 . S
H3491 C3469 0.950 . S
C3492 C3493 1.349 . S
C3492 C3494 1.327 . S
C3492 H3517 0.950 . S
C3493 C3492 1.349 . S
C3493 C3509 1.349 . S
C3494 C3492 1.327 . S
C3494 C3513 1.429 . S
C3494 H3518 0.950 . S
C3495 C3512 1.574 1_655 S
C3495 C3514 1.368 . S
C3495 H3519 0.949 . S
H3496 C3500 0.949 . S
C3497 C3498 1.349 . S
C3497 C3499 1.327 . S
C3497 H3520 0.950 . S
C3498 C3497 1.349 . S
C3498 C3510 1.349 . S
C3499 C3497 1.327 . S
C3499 C3515 1.429 . S
C3499 H3521 0.950 . S
C3500 H3496 0.949 . S
C3500 C3508 1.574 1_455 S
C3500 C3516 1.368 . S
H3501 C3509 0.950 . S
H3502 C3507 0.950 . S
H3503 C3508 0.949 . S
H3504 C3510 0.950 . S
H3505 C3511 0.950 . S
H3506 C3512 0.949 . S
C3507 H3502 0.950 . S
C3507 C3509 1.327 . S
C3507 C3513 1.429 . S
C3508 C3500 1.574 1_655 S
C3508 H3503 0.949 . S
C3508 C3514 1.368 . S
C3509 C3493 1.349 . S
C3509 H3501 0.950 . S
C3509 C3507 1.327 . S
C3510 C3498 1.349 . S
C3510 H3504 0.950 . S
C3510 C3511 1.327 . S
C3511 H3505 0.950 . S
C3511 C3510 1.327 . S
C3511 C3515 1.429 . S
C3512 C3495 1.574 1_455 S
C3512 H3506 0.949 . S
C3512 C3516 1.368 . S
C3513 C3494 1.429 . S
C3513 C3507 1.429 . S
C3513 C3514 1.523 . S
C3514 C3495 1.368 . S
C3514 C3508 1.368 . S
C3514 C3513 1.523 . S
C3515 C3499 1.429 . S
C3515 C3511 1.429 . S
C3515 C3516 1.523 . S
C3516 C3500 1.368 . S
C3516 C3512 1.368 . S
C3516 C3515 1.523 . S
H3517 C3492 0.950 . S
H3518 C3494 0.950 . S
H3519 C3495 0.949 . S
H3520 C3497 0.950 . S
H3521 C3499 0.950 . S
C3522 C3523 1.349 . S
C3522 C3524 1.327 . S
C3522 H3547 0.950 . S
C3523 C3522 1.349 . S
C3523 C3539 1.349 . S
C3524 C3522 1.327 . S
C3524 C3543 1.429 . S
C3524 H3548 0.950 . S
C3525 C3542 1.574 1_455 S
C3525 C3544 1.368 . S
C3525 H3549 0.949 . S
H3526 C3530 0.949 . S
C3527 C3528 1.349 . S
C3527 C3529 1.327 . S
C3527 H3550 0.950 . S
C3528 C3527 1.349 . S
C3528 C3540 1.349 . S
C3529 C3527 1.327 . S
C3529 C3545 1.429 . S
C3529 H3551 0.950 . S
C3530 H3526 0.949 . S
C3530 C3538 1.574 1_655 S
C3530 C3546 1.368 . S
H3531 C3539 0.950 . S
H3532 C3537 0.950 . S
H3533 C3538 0.949 . S
H3534 C3540 0.950 . S
H3535 C3541 0.950 . S
H3536 C3542 0.949 . S
C3537 H3532 0.950 . S
C3537 C3539 1.327 . S
C3537 C3543 1.429 . S
C3538 C3530 1.574 1_455 S
C3538 H3533 0.949 . S
C3538 C3544 1.368 . S
C3539 C3523 1.349 . S
C3539 H3531 0.950 . S
C3539 C3537 1.327 . S
C3540 C3528 1.349 . S
C3540 H3534 0.950 . S
C3540 C3541 1.327 . S
C3541 H3535 0.950 . S
C3541 C3540 1.327 . S
C3541 C3545 1.429 . S
C3542 C3525 1.574 1_655 S
C3542 H3536 0.949 . S
C3542 C3546 1.368 . S
C3543 C3524 1.429 . S
C3543 C3537 1.429 . S
C3543 C3544 1.523 . S
C3544 C3525 1.368 . S
C3544 C3538 1.368 . S
C3544 C3543 1.523 . S
C3545 C3529 1.429 . S
C3545 C3541 1.429 . S
C3545 C3546 1.523 . S
C3546 C3530 1.368 . S
C3546 C3542 1.368 . S
C3546 C3545 1.523 . S
H3547 C3522 0.950 . S
H3548 C3524 0.950 . S
H3549 C3525 0.949 . S
H3550 C3527 0.950 . S
H3551 C3529 0.950 . S
C673 C553 1.374 . S
C678 C7 1.374 . S
C703 C20 1.374 . S
C708 C511 1.374 . S
C733 C35 1.374 . S
C738 C525 1.374 . S
C763 C538 1.374 . S
C768 C48 1.374 . S
C793 C468 1.374 . S
C798 C62 1.374 . S
C823 C77 1.374 . S
C828 C483 1.374 . S
C853 C90 1.374 . S
C858 C497 1.374 . S
C883 C105 1.374 . S
C888 C454 1.374 . S
C913 C118 1.374 . S
C918 C441 1.374 . S
C943 C398 1.374 . S
C948 C132 1.374 . S
C973 C413 1.374 . S
C978 C147 1.374 . S
C1003 C161 1.374 . S
C1008 C426 1.374 . S
C1033 C175 1.374 . S
C1038 C356 1.374 . S
C1063 C189 1.374 . S
C1068 C371 1.374 . S
C1093 C384 1.374 . S
C1098 C202 1.374 . S
C1123 C343 1.374 . S
C1128 C217 1.374 . S
C1153 C230 1.374 . S
C1158 C622 1.374 . S
C1183 C665 1.374 . S
C1188 C245 1.374 . S
C1213 C636 1.374 . S
C1218 C258 1.374 . S
C1243 C651 1.374 . S
C1248 C273 1.374 . S
C1273 C566 1.374 . S
C1278 C286 1.374 . S
C1303 C594 1.374 . S
C1308 C300 1.374 . S
C1333 C315 1.374 . S
C1338 C609 1.374 . S
C1363 C581 1.374 . S
C1368 C329 1.374 . S
C1393 C455 1.374 . S
C1398 C287 1.374 . S
C1423 C244 1.374 . S
C1428 C469 1.374 . S
C1453 C482 1.374 . S
C1458 C259 1.374 . S
C1483 C496 1.374 . S
C1488 C272 1.374 . S
C1513 C328 1.374 . S
C1518 C510 1.374 . S
C1543 C524 1.374 . S
C1548 C301 1.374 . S
C1573 C314 1.374 . S
C1578 C539 1.374 . S
C1603 C231 1.374 . S
C1608 C552 1.374 . S
C1633 C567 1.374 . S
C1638 C216 1.374 . S
C1663 C174 1.374 . S
C1668 C664 1.374 . S
C1693 C637 1.374 . S
C1698 C188 1.374 . S
C1723 C203 1.374 . S
C1728 C650 1.374 . S
C1753 C133 1.374 . S
C1758 C580 1.374 . S
C1783 C146 1.374 . S
C1788 C595 1.374 . S
C1813 C160 1.374 . S
C1818 C608 1.374 . S
C1843 C623 1.374 . S
C1848 C119 1.374 . S
C1873 C342 1.374 . S
C1878 C104 1.374 . S
C1903 C399 1.374 . S
C1908 C21 1.374 . S
C1933 C412 1.374 . S
C1938 C34 1.374 . S
C1963 C427 1.374 . S
C1968 C49 1.374 . S
C1993 C440 1.374 . S
C1998 C6 1.374 . S
C2023 C76 1.374 . S
C2028 C370 1.374 . S
C2053 C385 1.374 . S
C2058 C91 1.374 . S
C2083 C357 1.374 . S
C2088 C63 1.374 . S
C2113 C8 1.529 . S
C2118 C372 1.529 . S
C2143 C387 1.529 . S
C2148 C23 1.529 . S
C2173 C36 1.529 . S
C2178 C344 1.529 . S
C2203 C51 1.529 . S
C2208 C359 1.529 . S
C2233 C65 1.529 . S
C2238 C429 1.529 . S
C2263 C442 1.529 . S
C2268 C78 1.529 . S
C2293 C93 1.529 . S
C2298 C401 1.529 . S
C2323 C414 1.529 . S
C2328 C106 1.529 . S
C2353 C121 1.529 . S
C2358 C512 1.529 . S
C2383 C526 1.529 . S
C2388 C135 1.529 . S
C2413 C148 1.529 . S
C2418 C541 1.529 . S
C2443 C162 1.529 . S
C2448 C554 1.529 . S
C2473 C176 1.529 . S
C2478 C457 1.529 . S
C2503 C190 1.529 . S
C2508 C471 1.529 . S
C2533 C484 1.529 . S
C2538 C205 1.529 . S
C2563 C218 1.529 . S
C2568 C498 1.529 . S
C2593 C610 1.529 . S
C2598 C233 1.529 . S
C2623 C246 1.529 . S
C2628 C639 1.529 . S
C2653 C261 1.529 . S
C2658 C652 1.529 . S
C2683 C569 1.529 . S
C2688 C274 1.529 . S
C2713 C666 1.529 . S
C2718 C289 1.529 . S
C2743 C303 1.529 . S
C2748 C582 1.529 . S
C2773 C597 1.529 . S
C2778 C316 1.529 . S
C2803 C330 1.529 . S
C2808 C625 1.529 . S
C2833 C596 1.529 . S
C2838 C288 1.529 . S
C2863 C247 1.529 . S
C2868 C611 1.529 . S
C2893 C624 1.529 . S
C2898 C260 1.529 . S
C2923 C583 1.529 . S
C2928 C275 1.529 . S
C2953 C653 1.529 . S
C2958 C331 1.529 . S
C2983 C302 1.529 . S
C2988 C568 1.529 . S
C3013 C667 1.529 . S
C3018 C317 1.529 . S
C3043 C232 1.529 . S
C3048 C638 1.529 . S
C3073 C470 1.529 . S
C3078 C219 1.529 . S
C3103 C177 1.529 . S
C3108 C485 1.529 . S
C3133 C191 1.529 . S
C3138 C499 1.529 . S
C3163 C456 1.529 . S
C3168 C204 1.529 . S
C3193 C134 1.529 . S
C3198 C555 1.529 . S
C3223 C513 1.529 . S
C3228 C149 1.529 . S
C3253 C163 1.529 . S
C3258 C527 1.529 . S
C3283 C120 1.529 . S
C3288 C540 1.529 . S
C3313 C386 1.529 . S
C3318 C107 1.529 . S
C3343 C22 1.529 . S
C3348 C415 1.529 . S
C3373 C37 1.529 . S
C3378 C428 1.529 . S
C3403 C443 1.529 . S
C3408 C50 1.529 . S
C3433 C9 1.529 . S
C3438 C400 1.529 . S
C3463 C79 1.529 . S
C3468 C358 1.529 . S
C3493 C92 1.529 . S
C3498 C373 1.529 . S
C3523 C64 1.529 . S
C3528 C345 1.529 . S
