# Generated by pormake.
# Topology ukj, (4)-cn, num edge types: 1
# Building blocks:
#     Node 0, Type 0, BuildingBlock: QUQFOY_clean_sbu_1, # of connection points: 4
#     Node 1, Type 0, BuildingBlock: QUQFOY_clean_sbu_1, # of connection points: 4
#     Node 2, Type 0, BuildingBlock: QUQFOY_clean_sbu_1, # of connection points: 4
#     Node 3, Type 0, BuildingBlock: QUQFOY_clean_sbu_1, # of connection points: 4
#     Node 4, Type 0, BuildingBlock: QUQFOY_clean_sbu_1, # of connection points: 4
#     Node 5, Type 0, BuildingBlock: QUQFOY_clean_sbu_1, # of connection points: 4
#     Node 6, Type 0, BuildingBlock: QUQFOY_clean_sbu_1, # of connection points: 4
#     Node 7, Type 0, BuildingBlock: QUQFOY_clean_sbu_1, # of connection points: 4
#     Node 8, Type 0, BuildingBlock: QUQFOY_clean_sbu_1, # of connection points: 4
#     Node 9, Type 0, BuildingBlock: QUQFOY_clean_sbu_1, # of connection points: 4
#     Node 10, Type 0, BuildingBlock: QUQFOY_clean_sbu_1, # of connection points: 4
#     Node 11, Type 0, BuildingBlock: QUQFOY_clean_sbu_1, # of connection points: 4
#     Node 12, Type 0, BuildingBlock: QUQFOY_clean_sbu_1, # of connection points: 4
#     Node 13, Type 0, BuildingBlock: QUQFOY_clean_sbu_1, # of connection points: 4
#     Node 14, Type 0, BuildingBlock: QUQFOY_clean_sbu_1, # of connection points: 4
#     Node 15, Type 0, BuildingBlock: QUQFOY_clean_sbu_1, # of connection points: 4
#     Node 16, Type 0, BuildingBlock: QUQFOY_clean_sbu_1, # of connection points: 4
#     Node 17, Type 0, BuildingBlock: QUQFOY_clean_sbu_1, # of connection points: 4
#     Node 18, Type 0, BuildingBlock: QUQFOY_clean_sbu_1, # of connection points: 4
#     Node 19, Type 0, BuildingBlock: QUQFOY_clean_sbu_1, # of connection points: 4
#     Node 20, Type 0, BuildingBlock: QUQFOY_clean_sbu_1, # of connection points: 4
#     Node 21, Type 0, BuildingBlock: QUQFOY_clean_sbu_1, # of connection points: 4
#     Node 22, Type 0, BuildingBlock: QUQFOY_clean_sbu_1, # of connection points: 4
#     Node 23, Type 0, BuildingBlock: QUQFOY_clean_sbu_1, # of connection points: 4
#     Node 24, Type 0, BuildingBlock: QUQFOY_clean_sbu_1, # of connection points: 4
#     Node 25, Type 0, BuildingBlock: QUQFOY_clean_sbu_1, # of connection points: 4
#     Node 26, Type 0, BuildingBlock: QUQFOY_clean_sbu_1, # of connection points: 4
#     Node 27, Type 0, BuildingBlock: QUQFOY_clean_sbu_1, # of connection points: 4
#     Node 28, Type 0, BuildingBlock: QUQFOY_clean_sbu_1, # of connection points: 4
#     Node 29, Type 0, BuildingBlock: QUQFOY_clean_sbu_1, # of connection points: 4
#     Node 30, Type 0, BuildingBlock: QUQFOY_clean_sbu_1, # of connection points: 4
#     Node 31, Type 0, BuildingBlock: QUQFOY_clean_sbu_1, # of connection points: 4
#     Edge 32, Type (0, 0), BuildingBlock: EZIPEK_clean_linker_0, # of connection points: 2
#     Edge 33, Type (0, 0), BuildingBlock: EZIPEK_clean_linker_0, # of connection points: 2
#     Edge 34, Type (0, 0), BuildingBlock: EZIPEK_clean_linker_0, # of connection points: 2
#     Edge 35, Type (0, 0), BuildingBlock: EZIPEK_clean_linker_0, # of connection points: 2
#     Edge 36, Type (0, 0), BuildingBlock: EZIPEK_clean_linker_0, # of connection points: 2
#     Edge 37, Type (0, 0), BuildingBlock: EZIPEK_clean_linker_0, # of connection points: 2
#     Edge 38, Type (0, 0), BuildingBlock: EZIPEK_clean_linker_0, # of connection points: 2
#     Edge 39, Type (0, 0), BuildingBlock: EZIPEK_clean_linker_0, # of connection points: 2
#     Edge 40, Type (0, 0), BuildingBlock: EZIPEK_clean_linker_0, # of connection points: 2
#     Edge 41, Type (0, 0), BuildingBlock: EZIPEK_clean_linker_0, # of connection points: 2
#     Edge 42, Type (0, 0), BuildingBlock: EZIPEK_clean_linker_0, # of connection points: 2
#     Edge 43, Type (0, 0), BuildingBlock: EZIPEK_clean_linker_0, # of connection points: 2
#     Edge 44, Type (0, 0), BuildingBlock: EZIPEK_clean_linker_0, # of connection points: 2
#     Edge 45, Type (0, 0), BuildingBlock: EZIPEK_clean_linker_0, # of connection points: 2
#     Edge 46, Type (0, 0), BuildingBlock: EZIPEK_clean_linker_0, # of connection points: 2
#     Edge 47, Type (0, 0), BuildingBlock: EZIPEK_clean_linker_0, # of connection points: 2
#     Edge 48, Type (0, 0), BuildingBlock: EZIPEK_clean_linker_0, # of connection points: 2
#     Edge 49, Type (0, 0), BuildingBlock: EZIPEK_clean_linker_0, # of connection points: 2
#     Edge 50, Type (0, 0), BuildingBlock: EZIPEK_clean_linker_0, # of connection points: 2
#     Edge 51, Type (0, 0), BuildingBlock: EZIPEK_clean_linker_0, # of connection points: 2
#     Edge 52, Type (0, 0), BuildingBlock: EZIPEK_clean_linker_0, # of connection points: 2
#     Edge 53, Type (0, 0), BuildingBlock: EZIPEK_clean_linker_0, # of connection points: 2
#     Edge 54, Type (0, 0), BuildingBlock: EZIPEK_clean_linker_0, # of connection points: 2
#     Edge 55, Type (0, 0), BuildingBlock: EZIPEK_clean_linker_0, # of connection points: 2
#     Edge 56, Type (0, 0), BuildingBlock: EZIPEK_clean_linker_0, # of connection points: 2
#     Edge 57, Type (0, 0), BuildingBlock: EZIPEK_clean_linker_0, # of connection points: 2
#     Edge 58, Type (0, 0), BuildingBlock: EZIPEK_clean_linker_0, # of connection points: 2
#     Edge 59, Type (0, 0), BuildingBlock: EZIPEK_clean_linker_0, # of connection points: 2
#     Edge 60, Type (0, 0), BuildingBlock: EZIPEK_clean_linker_0, # of connection points: 2
#     Edge 61, Type (0, 0), BuildingBlock: EZIPEK_clean_linker_0, # of connection points: 2
#     Edge 62, Type (0, 0), BuildingBlock: EZIPEK_clean_linker_0, # of connection points: 2
#     Edge 63, Type (0, 0), BuildingBlock: EZIPEK_clean_linker_0, # of connection points: 2
#     Edge 64, Type (0, 0), BuildingBlock: EZIPEK_clean_linker_0, # of connection points: 2
#     Edge 65, Type (0, 0), BuildingBlock: EZIPEK_clean_linker_0, # of connection points: 2
#     Edge 66, Type (0, 0), BuildingBlock: EZIPEK_clean_linker_0, # of connection points: 2
#     Edge 67, Type (0, 0), BuildingBlock: EZIPEK_clean_linker_0, # of connection points: 2
#     Edge 68, Type (0, 0), BuildingBlock: EZIPEK_clean_linker_0, # of connection points: 2
#     Edge 69, Type (0, 0), BuildingBlock: EZIPEK_clean_linker_0, # of connection points: 2
#     Edge 70, Type (0, 0), BuildingBlock: EZIPEK_clean_linker_0, # of connection points: 2
#     Edge 71, Type (0, 0), BuildingBlock: EZIPEK_clean_linker_0, # of connection points: 2
#     Edge 72, Type (0, 0), BuildingBlock: EZIPEK_clean_linker_0, # of connection points: 2
#     Edge 73, Type (0, 0), BuildingBlock: EZIPEK_clean_linker_0, # of connection points: 2
#     Edge 74, Type (0, 0), BuildingBlock: EZIPEK_clean_linker_0, # of connection points: 2
#     Edge 75, Type (0, 0), BuildingBlock: EZIPEK_clean_linker_0, # of connection points: 2
#     Edge 76, Type (0, 0), BuildingBlock: EZIPEK_clean_linker_0, # of connection points: 2
#     Edge 77, Type (0, 0), BuildingBlock: EZIPEK_clean_linker_0, # of connection points: 2
#     Edge 78, Type (0, 0), BuildingBlock: EZIPEK_clean_linker_0, # of connection points: 2
#     Edge 79, Type (0, 0), BuildingBlock: EZIPEK_clean_linker_0, # of connection points: 2
#     Edge 80, Type (0, 0), BuildingBlock: EZIPEK_clean_linker_0, # of connection points: 2
#     Edge 81, Type (0, 0), BuildingBlock: EZIPEK_clean_linker_0, # of connection points: 2
#     Edge 82, Type (0, 0), BuildingBlock: EZIPEK_clean_linker_0, # of connection points: 2
#     Edge 83, Type (0, 0), BuildingBlock: EZIPEK_clean_linker_0, # of connection points: 2
#     Edge 84, Type (0, 0), BuildingBlock: EZIPEK_clean_linker_0, # of connection points: 2
#     Edge 85, Type (0, 0), BuildingBlock: EZIPEK_clean_linker_0, # of connection points: 2
#     Edge 86, Type (0, 0), BuildingBlock: EZIPEK_clean_linker_0, # of connection points: 2
#     Edge 87, Type (0, 0), BuildingBlock: EZIPEK_clean_linker_0, # of connection points: 2
#     Edge 88, Type (0, 0), BuildingBlock: EZIPEK_clean_linker_0, # of connection points: 2
#     Edge 89, Type (0, 0), BuildingBlock: EZIPEK_clean_linker_0, # of connection points: 2
#     Edge 90, Type (0, 0), BuildingBlock: EZIPEK_clean_linker_0, # of connection points: 2
#     Edge 91, Type (0, 0), BuildingBlock: EZIPEK_clean_linker_0, # of connection points: 2
#     Edge 92, Type (0, 0), BuildingBlock: EZIPEK_clean_linker_0, # of connection points: 2
#     Edge 93, Type (0, 0), BuildingBlock: EZIPEK_clean_linker_0, # of connection points: 2
#     Edge 94, Type (0, 0), BuildingBlock: EZIPEK_clean_linker_0, # of connection points: 2
#     Edge 95, Type (0, 0), BuildingBlock: EZIPEK_clean_linker_0, # of connection points: 2
# Relax obj value: 0.043
# Max RMSD: 0.114
# Mean RMSD: 0.110
data_MOF--net-ukj--node1-QUQFOY_clean_sbu_1--edge1-EZIPEK_clean_linker_0
_symmetry_space_group_name_H-M    P1
_symmetry_Int_Tables_number       1
_symmetry_cell_setting            triclinic
loop_
_symmetry_equiv_pos_as_xyz
'x, y, z'
_cell_length_a     18.646139
_cell_length_b     64.527217
_cell_length_c     42.066036
_cell_angle_alpha  89.853855
_cell_angle_beta   90.043224
_cell_angle_gamma 90.045207
loop_
_atom_site_label
_atom_site_type_symbol
_atom_site_fract_x
_atom_site_fract_y
_atom_site_fract_z
_atom_type_partial_charge
O0 O 0.12404 0.35458 0.22376 0.0
Cd1 Cd 0.12716 0.34334 0.26947 0.0
Cd2 Cd 0.0718 0.38132 0.27667 0.0
O3 O 0.04376 0.37959 0.2283 0.0
O4 O 0.13785 0.31217 0.2646 0.0
O5 O 0.03928 0.32671 0.28282 0.0
C6 C 0.07188 0.31016 0.27338 0.0
C7 C 0.0179 0.38636 0.32608 0.0
C8 C 0.08409 0.36823 0.21095 0.0
C9 C 0.22654 0.37536 0.29182 0.0
O10 O 0.17847 0.38745 0.2814 0.0
O11 O 0.21401 0.35596 0.29467 0.0
O12 O 0.02849 0.40183 0.30699 0.0
O13 O 0.02583 0.36785 0.31467 0.0
O14 O 0.09897 0.94243 0.22493 0.0
Cd15 Cd 0.09628 0.95147 0.27112 0.0
Cd16 Cd 0.16646 0.91802 0.27873 0.0
O17 O 0.19527 0.92298 0.2305 0.0
O18 O 0.09306 0.98273 0.26929 0.0
O19 O 0.18763 0.96522 0.28639 0.0
C20 C 0.15978 0.98273 0.27783 0.0
C21 C 0.2142 0.9115 0.32915 0.0
C22 C 0.14853 0.93173 0.2126 0.0
C23 C 0.0119 0.91539 0.29051 0.0
O24 O 0.0666 0.90575 0.28041 0.0
O25 O 0.01474 0.93502 0.29484 0.0
O26 O 0.22793 0.89923 0.30559 0.0
O27 O 0.18553 0.92926 0.32253 0.0
O28 O 0.15446 0.9416 0.06124 0.0
Cd29 Cd 0.14987 0.95007 1.01443 0.0
Cd30 Cd 0.09031 0.91391 1.01103 0.0
O31 O 0.06594 0.91896 0.05945 0.0
O32 O 0.14859 0.98143 1.01524 0.0
O33 O 0.05526 0.96263 1.00038 0.0
C34 C 0.08144 0.98058 1.00763 0.0
C35 C 0.03157 0.90576 0.96348 0.0
C36 C 0.11096 0.92967 0.07553 0.0
C37 C 0.24348 0.91637 0.9935 0.0
O38 O 0.19505 0.90536 1.00631 0.0
O39 O 0.23299 0.93574 0.98875 0.0
O40 O 0.03365 0.89257 0.98672 0.0
O41 O 0.05209 0.92455 0.96921 0.0
O42 O 0.09809 0.35061 0.06257 0.0
Cd43 Cd 0.09852 0.33777 0.01775 0.0
Cd44 Cd 0.1448 0.37714 1.00821 0.0
O45 O 0.16984 0.37762 0.05683 0.0
O46 O 0.09617 0.30671 0.02552 0.0
O47 O 0.18886 0.32255 1.00382 0.0
C48 C 0.16111 0.30569 1.01506 0.0
C49 C 0.20139 0.38618 0.96066 0.0
C50 C 0.13246 0.36572 0.07467 0.0
C51 C 0.99229 0.36649 0.99208 0.0
O52 O 0.03718 0.37988 1.00141 0.0
O53 O 0.00886 0.34729 0.99153 0.0
O54 O 0.18024 0.40026 0.98037 0.0
O55 O 0.2013 0.36713 0.97048 0.0
O56 O 0.87318 0.68255 0.81077 0.0
Cd57 Cd 0.86153 0.6941 0.76574 0.0
Cd58 Cd 0.91969 0.65607 0.755 0.0
O59 O 0.95026 0.65695 0.80318 0.0
O60 O 0.85237 0.72512 0.77221 0.0
O61 O 0.9467 0.71076 0.74959 0.0
C62 C 0.91645 0.72717 0.761 0.0
C63 C 0.97263 0.64963 0.70557 0.0
C64 C 0.91341 0.66839 0.82187 0.0
C65 C 0.76127 0.66179 0.74448 0.0
O66 O 0.81309 0.64984 0.75116 0.0
O67 O 0.77037 0.68143 0.7437 0.0
O68 O 0.96206 0.63472 0.72567 0.0
O69 O 0.96413 0.66844 0.71565 0.0
O70 O 0.87569 0.09888 0.81056 0.0
Cd71 Cd 0.88248 0.08803 0.76511 0.0
Cd72 Cd 0.82391 0.12572 0.75663 0.0
O73 O 0.79625 0.12404 0.80522 0.0
O74 O 0.88647 0.05701 0.77183 0.0
O75 O 0.79618 0.07256 0.74758 0.0
C76 C 0.82303 0.05582 0.75965 0.0
C77 C 0.76844 0.13285 0.70783 0.0
C78 C 0.83565 0.11255 0.82293 0.0
C79 C 0.98209 0.12004 0.7441 0.0
O80 O 0.93054 0.13182 0.75177 0.0
O81 O 0.97304 0.10043 0.7426 0.0
O82 O 0.78037 0.14751 0.72811 0.0
O83 O 0.77711 0.11392 0.71749 0.0
O84 O 0.83911 0.09836 0.97292 0.0
Cd85 Cd 0.84431 0.08747 0.01857 0.0
Cd86 Cd 0.9006 0.12403 0.02499 0.0
O87 O 0.92649 0.12119 0.97634 0.0
O88 O 0.84291 0.05638 1.01292 0.0
O89 O 0.9365 0.07323 0.03215 0.0
C90 C 0.90908 0.05604 0.02205 0.0
C91 C 0.95716 0.13296 0.0726 0.0
C92 C 0.88161 0.11098 0.95949 0.0
C93 C 0.74753 0.11903 0.04253 0.0
O94 O 0.79432 0.13094 0.03039 0.0
O95 O 0.76043 0.09968 0.04577 0.0
O96 O 0.95306 0.1461 0.04936 0.0
O97 O 0.94111 0.11383 0.06667 0.0
O98 O 0.90549 0.68558 0.97202 0.0
Cd99 Cd 0.8965 0.69734 0.01729 0.0
Cd100 Cd 0.84731 0.65951 0.02354 0.0
O101 O 0.82424 0.66088 0.97452 0.0
O102 O 0.89267 0.72858 1.01146 0.0
O103 O 0.80155 0.7105 0.03037 0.0
C104 C 0.82685 0.72812 0.02092 0.0
C105 C 0.78977 0.65142 0.07124 0.0
C106 C 0.86771 0.67193 0.9581 0.0
C107 C -0.00121 0.66781 0.04254 0.0
O108 O 0.95423 0.65519 0.0307 0.0
O109 O 0.98268 0.68698 0.04517 0.0
O110 O 0.80691 0.637 0.05129 0.0
O111 O 0.79373 0.67044 0.06146 0.0
O112 O 0.11873 0.85062 0.72348 0.0
Cd113 Cd 0.12965 0.83881 0.76843 0.0
Cd114 Cd 0.0704 0.87665 0.779 0.0
O115 O 0.03955 0.87568 0.73075 0.0
O116 O 0.14037 0.80779 0.76197 0.0
O117 O 0.0448 0.82173 0.78408 0.0
C118 C 0.07611 0.80545 0.77283 0.0
C119 C 0.0191 0.88346 0.82871 0.0
C120 C 0.07782 0.86455 0.71214 0.0
C121 C 0.22912 0.87123 0.78917 0.0
O122 O 0.17688 0.883 0.78242 0.0
O123 O 0.22051 0.85158 0.79041 0.0
O124 O 0.02913 0.89822 0.8083 0.0
O125 O 0.02703 0.86458 0.81884 0.0
O126 O 0.09451 0.43995 0.72302 0.0
Cd127 Cd 0.09199 0.44919 0.76893 0.0
Cd128 Cd 0.16642 0.41681 0.77626 0.0
O129 O 0.19576 0.42281 0.72835 0.0
O130 O 0.08674 0.4804 0.76657 0.0
O131 O 0.1824 0.46349 0.78393 0.0
C132 C 0.15339 0.48081 0.77522 0.0
C133 C 0.21507 0.41121 0.82673 0.0
C134 C 0.14679 0.43052 0.71051 0.0
C135 C 0.01209 0.41243 0.78789 0.0
O136 O 0.06797 0.4034 0.77767 0.0
O137 O 0.01272 0.43203 0.79266 0.0
O138 O 0.23098 0.39903 0.80332 0.0
O139 O 0.18312 0.42846 0.81994 0.0
O140 O 0.15419 0.44 0.56022 0.0
Cd141 Cd 0.14964 0.44849 0.51348 0.0
Cd142 Cd 0.0863 0.41309 0.50905 0.0
O143 O 0.06399 0.41786 0.55755 0.0
O144 O 0.15274 0.47982 0.51282 0.0
O145 O 0.05472 0.46177 0.50228 0.0
C146 C 0.08431 0.47956 0.50772 0.0
C147 C 0.02618 0.40616 0.46161 0.0
C148 C 0.1097 0.42809 0.57393 0.0
C149 C 0.23807 0.41379 0.49085 0.0
O150 O 0.18899 0.40304 0.50371 0.0
O151 O 0.22931 0.43328 0.48673 0.0
O152 O 0.02371 0.39314 0.48505 0.0
O153 O 0.05149 0.42448 0.46724 0.0
O154 O 0.08719 0.84855 0.56307 0.0
Cd155 Cd 0.08986 0.83602 0.51809 0.0
Cd156 Cd 0.13746 0.8752 0.50933 0.0
O157 O 0.1612 0.8751 0.55822 0.0
O158 O 0.08778 0.80488 0.52512 0.0
O159 O 0.18145 0.82112 0.50504 0.0
C160 C 0.15352 0.8041 0.5156 0.0
C161 C 0.19554 0.88447 0.46216 0.0
C162 C 0.12232 0.86333 0.57567 0.0
C163 C 0.98512 0.865 0.49215 0.0
O164 O 0.02998 0.87823 0.50208 0.0
O165 O 0.00142 0.84579 0.49128 0.0
O166 O 0.17528 0.89844 0.48224 0.0
O167 O 0.19359 0.8653 0.47138 0.0
O168 O 0.85528 0.1884 0.31044 0.0
Cd169 Cd 0.85166 0.19968 0.26479 0.0
Cd170 Cd 0.90467 0.16124 0.2565 0.0
O171 O 0.9312 0.16228 0.30508 0.0
O172 O 0.84426 0.23084 0.27017 0.0
O173 O 0.94054 0.21557 0.25086 0.0
C174 C 0.90997 0.23233 0.26077 0.0
C175 C 0.96 0.1552 0.20751 0.0
C176 C 0.89318 0.1741 0.32273 0.0
C177 C 0.7501 0.1683 0.24157 0.0
O178 O 0.7978 0.15583 0.25118 0.0
O179 O 0.76347 0.1877 0.23959 0.0
O180 O 0.94588 0.14003 0.22671 0.0
O181 O 0.95459 0.17386 0.21861 0.0
O182 O 0.89062 0.59767 0.30825 0.0
Cd183 Cd 0.89072 0.58955 0.26155 0.0
Cd184 Cd 0.81873 0.62246 0.25657 0.0
O185 O 0.79062 0.6157 0.30417 0.0
O186 O 0.90079 0.55835 0.25972 0.0
O187 O 0.79882 0.57467 0.25003 0.0
C188 C 0.83226 0.5574 0.25496 0.0
C189 C 0.77253 0.62715 0.20554 0.0
C190 C 0.83953 0.60738 0.32137 0.0
C191 C 0.96924 0.62707 0.24278 0.0
O192 O 0.91673 0.63594 0.25615 0.0
O193 O 0.96606 0.6077 0.23633 0.0
O194 O 0.75507 0.63966 0.22835 0.0
O195 O 0.80479 0.61009 0.21319 0.0
O196 O 0.83635 0.59414 0.471 0.0
Cd197 Cd 0.83877 0.58467 0.51739 0.0
Cd198 Cd 0.90225 0.62035 0.52327 0.0
O199 O 0.92551 0.61659 0.47461 0.0
O200 O 0.83495 0.55334 0.51658 0.0
O201 O 0.93263 0.57094 0.52915 0.0
C202 C 0.90299 0.55332 0.52258 0.0
C203 C 0.96226 0.62786 0.57067 0.0
C204 C 0.88039 0.60644 0.45776 0.0
C205 C 0.74829 0.61859 0.54016 0.0
O206 O 0.79844 0.62953 0.52856 0.0
O207 O 0.7568 0.59906 0.54375 0.0
O208 O 0.96027 0.64125 0.5477 0.0
O209 O 0.94112 0.60917 0.56464 0.0
O210 O 0.89728 0.18691 0.47296 0.0
Cd211 Cd 0.89466 0.19709 0.51884 0.0
Cd212 Cd 0.82796 0.16235 0.52466 0.0
O213 O 0.80231 0.16672 0.47613 0.0
O214 O 0.89826 0.22834 0.51515 0.0
O215 O 0.80248 0.21133 0.53202 0.0
C216 C 0.83127 0.22864 0.52308 0.0
C217 C 0.77053 0.15508 0.57279 0.0
C218 C 0.85032 0.1758 0.45936 0.0
C219 C 0.98305 0.163 0.54091 0.0
O220 O 0.93166 0.1526 0.52919 0.0
O221 O 0.97625 0.18253 0.54512 0.0
O222 O 0.76982 0.14175 0.54982 0.0
O223 O 0.79262 0.17365 0.56645 0.0
O224 O 0.64659 0.34579 0.71986 0.0
Cd225 Cd 0.64732 0.33486 0.76578 0.0
Cd226 Cd 0.59641 0.37297 0.7735 0.0
O227 O 0.5696 0.37163 0.72498 0.0
O228 O 0.6513 0.30363 0.7616 0.0
O229 O 0.55588 0.32021 0.77926 0.0
C230 C 0.58493 0.303 0.77031 0.0
C231 C 0.54063 0.37961 0.82217 0.0
C232 C 0.60821 0.35992 0.70741 0.0
C233 C 0.74918 0.36575 0.7896 0.0
O234 O 0.70306 0.37836 0.77894 0.0
O235 O 0.73426 0.34648 0.79207 0.0
O236 O 0.55351 0.39448 0.80224 0.0
O237 O 0.54808 0.36077 0.8121 0.0
O238 O 0.59281 0.93681 0.72154 0.0
Cd239 Cd 0.59694 0.94677 0.76769 0.0
Cd240 Cd 0.65299 0.90935 0.77202 0.0
O241 O 0.67605 0.91252 0.7232 0.0
O242 O 0.59367 0.97807 0.76393 0.0
O243 O 0.68888 0.96117 0.78137 0.0
C244 C 0.66013 0.97848 0.77257 0.0
C245 C 0.71213 0.90329 0.82016 0.0
C246 C 0.63276 0.92392 0.70722 0.0
C247 C 0.49955 0.91471 0.79044 0.0
O248 O 0.54678 0.90297 0.77854 0.0
O249 O 0.5122 0.93404 0.79407 0.0
O250 O 0.69925 0.8882 0.80072 0.0
O251 O 0.70322 0.92199 0.80961 0.0
O252 O 0.63499 0.93705 0.55868 0.0
Cd253 Cd 0.63782 0.94636 0.51236 0.0
Cd254 Cd 0.56711 0.91287 0.50527 0.0
O255 O 0.53855 0.91751 0.55326 0.0
O256 O 0.64823 0.97761 0.51273 0.0
O257 O 0.54736 0.96166 0.4998 0.0
C258 C 0.5804 0.97877 0.50641 0.0
C259 C 0.52023 0.90786 0.45445 0.0
C260 C 0.58575 0.92611 0.57102 0.0
C261 C 0.7195 0.90972 0.49254 0.0
O262 O 0.66619 0.90022 0.50427 0.0
O263 O 0.71617 0.92927 0.48739 0.0
O264 O 0.50565 0.89497 0.47726 0.0
O265 O 0.54966 0.92535 0.46206 0.0
O266 O 0.59945 0.34683 0.55735 0.0
Cd267 Cd 0.60021 0.3364 0.51154 0.0
Cd268 Cd 0.6627 0.37181 0.50496 0.0
O269 O 0.69219 0.36776 0.55308 0.0
O270 O 0.59749 0.30519 0.5159 0.0
O271 O 0.69186 0.32219 0.49751 0.0
C272 C 0.66392 0.30491 0.50713 0.0
C273 C 0.71665 0.37986 0.45629 0.0
C274 C 0.64607 0.35833 0.57041 0.0
C275 C 0.5072 0.36957 0.4901 0.0
O276 O 0.55747 0.38044 0.50178 0.0
O277 O 0.51619 0.35014 0.48577 0.0
O278 O 0.71635 0.39315 0.47931 0.0
O279 O 0.69758 0.36102 0.46273 0.0
O280 O 0.34668 0.69028 0.31235 0.0
Cd281 Cd 0.3399 0.70242 0.26715 0.0
Cd282 Cd 0.38867 0.6631 0.25679 0.0
O283 O 0.41644 0.66297 0.30521 0.0
O284 O 0.33579 0.73338 0.27462 0.0
O285 O 0.4273 0.71813 0.251 0.0
C286 C 0.39954 0.73475 0.26289 0.0
C287 C 0.44454 0.65413 0.20903 0.0
C288 C 0.38204 0.67513 0.32371 0.0
C289 C 0.23383 0.67264 0.24315 0.0
O290 O 0.28104 0.65951 0.25113 0.0
O291 O 0.2481 0.692 0.24314 0.0
O292 O 0.42684 0.64007 0.22955 0.0
O293 O 0.44078 0.67333 0.21784 0.0
O294 O 0.37848 0.10265 0.31099 0.0
Cd295 Cd 0.38369 0.09191 0.26562 0.0
Cd296 Cd 0.32191 0.12884 0.25805 0.0
O297 O 0.29365 0.12631 0.30653 0.0
O298 O 0.38851 0.06096 0.27292 0.0
O299 O 0.29703 0.07616 0.24906 0.0
C300 C 0.32441 0.05959 0.26144 0.0
C301 C 0.26581 0.13517 0.20919 0.0
C302 C 0.3357 0.11538 0.32385 0.0
C303 C 0.48049 0.12449 0.24491 0.0
O304 O 0.42816 0.1358 0.25322 0.0
O305 O 0.47282 0.10484 0.24273 0.0
O306 O 0.27594 0.15005 0.22928 0.0
O307 O 0.27665 0.11639 0.2191 0.0
O308 O 0.34302 0.09797 0.47259 0.0
Cd309 Cd 0.34746 0.08683 0.51822 0.0
Cd310 Cd 0.40503 0.12342 0.52569 0.0
O311 O 0.42867 0.12142 0.47691 0.0
O312 O 0.34263 0.05551 0.5147 0.0
O313 O 0.44064 0.07218 0.52924 0.0
C314 C 0.41027 0.0549 0.52138 0.0
C315 C 0.46246 0.13128 0.57343 0.0
C316 C 0.3842 0.11126 0.45977 0.0
C317 C 0.25246 0.1191 0.54311 0.0
O318 O 0.29977 0.13098 0.53139 0.0
O319 O 0.26463 0.09967 0.5458 0.0
O320 O 0.45944 0.14477 0.55063 0.0
O321 O 0.44494 0.11233 0.5669 0.0
O322 O 0.39059 0.68641 0.47423 0.0
Cd323 Cd 0.38747 0.69615 0.52055 0.0
Cd324 Cd 0.32498 0.66081 0.52573 0.0
O325 O 0.29749 0.6655 0.47757 0.0
O326 O 0.39439 0.7275 0.51983 0.0
O327 O 0.29483 0.71078 0.53204 0.0
C328 C 0.32644 0.72817 0.52582 0.0
C329 C 0.27008 0.65358 0.57431 0.0
C330 C 0.34428 0.67499 0.46068 0.0
C331 C 0.47795 0.6622 0.54264 0.0
O332 O 0.42928 0.65147 0.52949 0.0
O333 O 0.468 0.68154 0.54746 0.0
O334 O 0.26773 0.6403 0.55128 0.0
O335 O 0.29183 0.67217 0.56778 0.0
O336 O 0.66039 0.84994 0.22294 0.0
Cd337 Cd 0.64795 0.83944 0.26867 0.0
Cd338 Cd 0.59622 0.87643 0.27234 0.0
O339 O 0.5733 0.87289 0.22341 0.0
O340 O 0.6425 0.80814 0.2655 0.0
O341 O 0.55065 0.82747 0.28036 0.0
C342 C 0.57552 0.80942 0.27307 0.0
C343 C 0.5384 0.88369 0.32027 0.0
C344 C 0.61936 0.86222 0.20789 0.0
C345 C 0.74671 0.86991 0.29296 0.0
O346 O 0.70275 0.88191 0.27922 0.0
O347 O 0.73067 0.85086 0.29738 0.0
O348 O 0.55159 0.89833 0.29996 0.0
O349 O 0.54612 0.86476 0.31074 0.0
O350 O 0.60268 0.43846 0.21923 0.0
Cd351 Cd 0.59884 0.44949 0.26466 0.0
Cd352 Cd 0.65512 0.4112 0.27357 0.0
O353 O 0.6793 0.41248 0.22464 0.0
O354 O 0.59466 0.48065 0.25895 0.0
O355 O 0.6887 0.46457 0.27919 0.0
C356 C 0.66041 0.48153 0.26855 0.0
C357 C 0.71256 0.40342 0.32172 0.0
C358 C 0.64055 0.42422 0.207 0.0
C359 C 0.49848 0.4178 0.28736 0.0
O360 O 0.54873 0.40566 0.27944 0.0
O361 O 0.50904 0.43737 0.28845 0.0
O362 O 0.69877 0.38899 0.30129 0.0
O363 O 0.70444 0.42247 0.31253 0.0
O364 O 0.6414 0.43673 0.05728 0.0
Cd365 Cd 0.63991 0.44643 1.01128 0.0
Cd366 Cd 0.57215 0.41241 1.00592 0.0
O367 O 0.54368 0.41776 0.05399 0.0
O368 O 0.64448 0.47775 1.01418 0.0
O369 O 0.54817 0.46093 0.9976 0.0
C370 C 0.57747 0.47824 1.00616 0.0
C371 C 0.52484 0.40519 0.95571 0.0
C372 C 0.59269 0.42628 0.07088 0.0
C373 C 0.72589 0.4109 0.99259 0.0
O374 O 0.67349 0.4012 1.00481 0.0
O375 O 0.72058 0.43031 0.98646 0.0
O376 O 0.51377 0.3927 0.9794 0.0
O377 O 0.5508 0.42334 0.96205 0.0
O378 O 0.61794 0.84863 0.06061 0.0
Cd379 Cd 0.60642 0.83771 1.01515 0.0
Cd380 Cd 0.66888 0.87415 1.0046 0.0
O381 O 0.70121 0.87244 0.05231 0.0
O382 O 0.59596 0.80667 0.02104 0.0
O383 O 0.69078 0.82101 0.99841 0.0
C384 C 0.65986 0.8046 1.00965 0.0
C385 C 0.72091 0.88167 0.95541 0.0
C386 C 0.66166 0.862 0.07132 0.0
C387 C 0.51155 0.87161 0.9938 0.0
O388 O 0.56402 0.88289 1.0021 0.0
O389 O 0.51865 0.85191 0.9921 0.0
O390 O 0.72141 0.89517 0.97809 0.0
O391 O 0.70247 0.86287 0.96247 0.0
O392 O 0.35366 0.18467 0.81021 0.0
Cd393 Cd 0.35253 0.19495 0.76403 0.0
Cd394 Cd 0.40728 0.15706 0.75788 0.0
O395 O 0.43252 0.15918 0.80657 0.0
O396 O 0.34583 0.22622 0.7673 0.0
O397 O 0.44293 0.21011 0.75047 0.0
C398 C 0.41238 0.22721 0.75893 0.0
C399 C 0.46367 0.1518 0.70897 0.0
C400 C 0.39258 0.17097 0.82345 0.0
C401 C 0.25327 0.16298 0.74141 0.0
O402 O 0.30089 0.15089 0.75222 0.0
O403 O 0.26605 0.18236 0.73855 0.0
O404 O 0.4515 0.13639 0.72801 0.0
O405 O 0.45587 0.17033 0.72027 0.0
O406 O 0.38725 0.59879 0.81 0.0
Cd407 Cd 0.38589 0.58859 0.76398 0.0
Cd408 Cd 0.3348 0.62687 0.75828 0.0
O409 O 0.3106 0.62481 0.80717 0.0
O410 O 0.3863 0.55743 0.76957 0.0
O411 O 0.29488 0.57435 0.74864 0.0
C412 C 0.32105 0.55713 0.75926 0.0
C413 C 0.27663 0.6327 0.70975 0.0
C414 C 0.35018 0.61263 0.82368 0.0
C415 C 0.48869 0.61953 0.74152 0.0
O416 O 0.44188 0.63198 0.75199 0.0
O417 O 0.47438 0.60023 0.73881 0.0
O418 O 0.29094 0.64795 0.72868 0.0
O419 O 0.28391 0.61409 0.72091 0.0
O420 O 0.34999 0.59697 0.97274 0.0
Cd421 Cd 0.34918 0.58679 0.01858 0.0
Cd422 Cd 0.41715 0.6208 0.0257 0.0
O423 O 0.44574 0.61672 0.97744 0.0
O424 O 0.34518 0.55548 1.01507 0.0
O425 O 0.44036 0.57226 0.03295 0.0
C426 C 0.41175 0.55498 0.02378 0.0
C427 C 0.4637 0.62744 0.07613 0.0
C428 C 0.39802 0.60811 0.95995 0.0
C429 C 0.26306 0.62226 0.03849 0.0
O430 O 0.31623 0.63214 0.02732 0.0
O431 O 0.26758 0.60268 0.04334 0.0
O432 O 0.47535 0.64016 0.0528 0.0
O433 O 0.43802 0.60934 0.06925 0.0
O434 O 0.39049 0.18683 0.97273 0.0
Cd435 Cd 0.38951 0.19686 0.01884 0.0
Cd436 Cd 0.32233 0.16204 0.02522 0.0
O437 O 0.2979 0.16568 0.97657 0.0
O438 O 0.39766 0.22817 0.01753 0.0
O439 O 0.29818 0.21183 0.03121 0.0
C440 C 0.33014 0.22907 0.02439 0.0
C441 C 0.26499 0.15575 0.07357 0.0
C442 C 0.34497 0.17496 0.95956 0.0
C443 C 0.47699 0.16227 0.04104 0.0
O444 O 0.42513 0.15182 0.02987 0.0
O445 O 0.47061 0.18183 0.04487 0.0
O446 O 0.26297 0.14213 0.05102 0.0
O447 O 0.28819 0.17413 0.06661 0.0
C448 C 0.09034 0.35055 0.15873 0.0
C449 C 0.08621 0.36952 0.1754 0.0
C450 C 0.11107 0.38766 0.12485 0.0
C451 C 0.12687 0.36832 0.11003 0.0
N452 N 0.15406 0.33212 0.11799 0.0
N453 N 0.10516 0.4066 0.17461 0.0
C454 C 0.12344 0.35001 0.12861 0.0
C455 C 0.09993 0.38831 0.15859 0.0
N456 N 0.06126 0.33298 0.1714 0.0
N457 N 0.10354 0.40521 0.10699 0.0
H458 H 0.09762 0.40779 0.19907 0.0
H459 H 0.12259 0.42028 0.16387 0.0
H460 H 0.10969 0.40547 0.08241 0.0
H461 H 0.08495 0.41913 0.1164 0.0
H462 H 0.05853 0.31908 0.15884 0.0
H463 H 0.03232 0.33313 0.19265 0.0
H464 H 0.15673 0.31871 0.13185 0.0
H465 H 0.1846 0.33164 0.09722 0.0
C466 C 0.11758 0.94825 0.12757 0.0
C467 C 0.11517 0.92909 0.11104 0.0
C468 C 0.13886 0.91083 0.16157 0.0
C469 C 0.14862 0.93018 0.17716 0.0
N470 N 0.16237 0.96722 0.17289 0.0
N471 N 0.13753 0.89222 0.11151 0.0
C472 C 0.14265 0.94883 0.15941 0.0
C473 C 0.12956 0.91036 0.1278 0.0
N474 N 0.09346 0.96593 0.11315 0.0
N475 N 0.13511 0.89298 0.17899 0.0
H476 H 0.13154 0.89114 0.08693 0.0
H477 H 0.15593 0.8786 0.12207 0.0
H478 H 0.14202 0.89258 0.20357 0.0
H479 H 0.11966 0.8788 0.16934 0.0
H480 H 0.08681 0.97992 0.12508 0.0
H481 H 0.07284 0.96609 0.09014 0.0
H482 H 0.1664 0.98104 0.16016 0.0
H483 H 0.18187 0.96824 0.19604 0.0
C484 C 0.92688 0.68525 0.87418 0.0
C485 C 0.91624 0.66667 0.85722 0.0
C486 C 0.88027 0.64983 0.90741 0.0
C487 C 0.8779 0.66956 0.92275 0.0
N488 N 0.8806 0.70688 0.91567 0.0
N489 N 0.87286 0.63144 0.85717 0.0
C490 C 0.89624 0.68751 0.90469 0.0
C491 C 0.89034 0.64892 0.87366 0.0
N492 N 0.96587 0.70095 0.8609 0.0
N493 N 0.87661 0.63196 0.92476 0.0
H494 H 0.8807 0.63007 0.83273 0.0
H495 H 0.84609 0.61894 0.8675 0.0
H496 H 0.87319 0.63167 0.94944 0.0
H497 H 0.88473 0.61738 0.9148 0.0
H498 H 0.98024 0.71423 0.87349 0.0
H499 H 0.99025 0.69954 0.83867 0.0
H500 H 0.88799 0.72024 0.90204 0.0
H501 H 0.85165 0.70939 0.93642 0.0
C502 C 0.8667 0.09416 0.90655 0.0
C503 C 0.87643 0.11274 0.92403 0.0
C504 C 0.85624 0.13254 0.87454 0.0
C505 C 0.83745 0.11393 0.85844 0.0
N506 N 0.80608 0.07776 0.86257 0.0
N507 N 0.86603 0.1501 0.92531 0.0
C508 C 0.83666 0.095 0.87565 0.0
C509 C 0.8673 0.13213 0.90825 0.0
N510 N 0.88844 0.07563 0.91906 0.0
N511 N 0.86675 0.15042 0.85775 0.0
H512 H 0.87296 0.15057 0.94987 0.0
H513 H 0.85193 0.16433 0.91536 0.0
H514 H 0.85936 0.15146 0.83325 0.0
H515 H 0.8883 0.16378 0.86787 0.0
H516 H 0.88811 0.06187 0.90613 0.0
H517 H 0.91467 0.07446 0.94092 0.0
H518 H 0.79871 0.06399 0.87518 0.0
H519 H 0.78077 0.07803 0.84045 0.0
C520 C 0.09278 0.88524 0.66035 0.0
C521 C 0.07666 0.86643 0.67664 0.0
C522 C 0.11002 0.84709 0.62917 0.0
C523 C 0.1163 0.86557 0.61112 0.0
N524 N 0.09842 0.90274 0.60923 0.0
N525 N 0.04615 0.83032 0.67175 0.0
C526 C 0.10345 0.88489 0.62655 0.0
C527 C 0.07729 0.84768 0.65936 0.0
N528 N 0.10078 0.90324 0.67693 0.0
N529 N 0.1383 0.82898 0.61815 0.0
H530 H 0.01843 0.83054 0.69331 0.0
H531 H 0.04088 0.81664 0.65878 0.0
H532 H 0.16931 0.82842 0.59753 0.0
H533 H 0.1389 0.81539 0.63164 0.0
H534 H 0.12014 0.91683 0.66659 0.0
H535 H 0.09316 0.90419 0.70141 0.0
H536 H 0.08216 0.91677 0.61911 0.0
H537 H 0.10419 0.90322 0.58463 0.0
C538 C 0.1032 0.44584 0.62619 0.0
C539 C 0.11248 0.42714 0.60926 0.0
C540 C 0.14832 0.40979 0.65902 0.0
C541 C 0.14698 0.4292 0.67504 0.0
N542 N 0.13926 0.46649 0.67121 0.0
N543 N 0.1552 0.39189 0.60836 0.0
C544 C 0.12939 0.44745 0.65772 0.0
C545 C 0.13825 0.40923 0.62532 0.0
N546 N 0.06709 0.46192 0.6124 0.0
N547 N 0.15544 0.39181 0.67592 0.0
H548 H 0.14709 0.39076 0.58389 0.0
H549 H 0.18188 0.37923 0.61824 0.0
H550 H 0.16261 0.39142 0.70047 0.0
H551 H 0.1486 0.3772 0.66586 0.0
H552 H 0.05249 0.47526 0.62473 0.0
H553 H 0.04478 0.46089 0.58969 0.0
H554 H 0.13372 0.48033 0.65862 0.0
H555 H 0.16045 0.46838 0.69395 0.0
C556 C 0.86634 0.15441 0.37405 0.0
C557 C 0.89169 0.17248 0.35817 0.0
C558 C 0.87179 0.19257 0.40663 0.0
C559 C 0.85467 0.17426 0.42386 0.0
N560 N 0.8507 0.13677 0.42458 0.0
N561 N 0.93823 0.20714 0.36269 0.0
C562 C 0.85595 0.15484 0.40778 0.0
C563 C 0.90064 0.19102 0.37561 0.0
N564 N 0.84953 0.1371 0.357 0.0
N565 N 0.85825 0.21161 0.41946 0.0
H566 H 0.96272 0.20616 0.34043 0.0
H567 H 0.9518 0.22038 0.37552 0.0
H568 H 0.83319 0.21349 0.44142 0.0
H569 H 0.86417 0.22537 0.4067 0.0
H570 H 0.8233 0.12436 0.3669 0.0
H571 H 0.85697 0.13607 0.33251 0.0
H572 H 0.85899 0.12227 0.41438 0.0
H573 H 0.84437 0.13626 0.44916 0.0
C574 C 0.84973 0.58929 0.3734 0.0
C575 C 0.83983 0.60819 0.35681 0.0
C576 C 0.85777 0.62703 0.40709 0.0
C577 C 0.87684 0.60813 0.42242 0.0
N578 N 0.90842 0.57214 0.41737 0.0
N579 N 0.84581 0.64558 0.35708 0.0
C580 C 0.87798 0.58952 0.40467 0.0
C581 C 0.84674 0.62727 0.37343 0.0
N582 N 0.83025 0.57104 0.35947 0.0
N583 N 0.84742 0.64454 0.42466 0.0
H584 H 0.83724 0.64645 0.33262 0.0
H585 H 0.85871 0.65975 0.36746 0.0
H586 H 0.85535 0.64504 0.44918 0.0
H587 H 0.82579 0.65811 0.41522 0.0
H588 H 0.8307 0.55689 0.37149 0.0
H589 H 0.80578 0.57053 0.33716 0.0
H590 H 0.91629 0.55858 0.40442 0.0
H591 H 0.93329 0.57217 0.43961 0.0
C592 C 0.62852 0.34147 0.62335 0.0
C593 C 0.64361 0.35987 0.60595 0.0
C594 C 0.63313 0.37964 0.6559 0.0
C595 C 0.60936 0.36146 0.67195 0.0
N596 N 0.56437 0.32662 0.66771 0.0
N597 N 0.64555 0.39738 0.60527 0.0
C598 C 0.60081 0.34288 0.65458 0.0
C599 C 0.64204 0.37927 0.62207 0.0
N600 N 0.64279 0.32251 0.61044 0.0
N601 N 0.64973 0.39702 0.67283 0.0
H602 H 0.65075 0.39794 0.58064 0.0
H603 H 0.63695 0.41183 0.61558 0.0
H604 H 0.64342 0.39798 0.6974 0.0
H605 H 0.67482 0.40988 0.66273 0.0
H606 H 0.63825 0.30872 0.62327 0.0
H607 H 0.66713 0.32075 0.5883 0.0
H608 H 0.55111 0.31333 0.65494 0.0
H609 H 0.54029 0.32753 0.69006 0.0
C610 C 0.61388 0.90429 0.65506 0.0
C611 C 0.62618 0.92317 0.67173 0.0
C612 C 0.58866 0.94253 0.62426 0.0
C613 C 0.58641 0.92405 0.60633 0.0
N614 N 0.60824 0.88725 0.60369 0.0
N615 N 0.6427 0.96028 0.66857 0.0
C616 C 0.60204 0.90484 0.62144 0.0
C617 C 0.61866 0.94229 0.65519 0.0
N618 N 0.61003 0.88594 0.67123 0.0
N619 N 0.56077 0.96035 0.61183 0.0
H620 H 0.66907 0.96065 0.69042 0.0
H621 H 0.64401 0.97435 0.65635 0.0
H622 H 0.53569 0.96072 0.58963 0.0
H623 H 0.55519 0.97392 0.62497 0.0
H624 H 0.59372 0.87214 0.66063 0.0
H625 H 0.61696 0.88477 0.69573 0.0
H626 H 0.62767 0.87333 0.61289 0.0
H627 H 0.59879 0.88695 0.57926 0.0
C628 C 0.39258 0.69093 0.37726 0.0
C629 C 0.38173 0.67279 0.3591 0.0
C630 C 0.34701 0.65455 0.40836 0.0
C631 C 0.34716 0.67374 0.4251 0.0
N632 N 0.34908 0.71106 0.42129 0.0
N633 N 0.33662 0.6377 0.35699 0.0
C634 C 0.36369 0.69219 0.40823 0.0
C635 C 0.35571 0.65461 0.3745 0.0
N636 N 0.43197 0.70691 0.36511 0.0
N637 N 0.34176 0.63626 0.42456 0.0
H638 H 0.34234 0.63707 0.33237 0.0
H639 H 0.31009 0.62496 0.36672 0.0
H640 H 0.33672 0.63541 0.44918 0.0
H641 H 0.34878 0.6219 0.41373 0.0
H642 H 0.44606 0.71987 0.37852 0.0
H643 H 0.45746 0.7059 0.34308 0.0
H644 H 0.35563 0.72494 0.40886 0.0
H645 H 0.32182 0.71254 0.44282 0.0
C646 C 0.36258 0.13344 0.41023 0.0
C647 C 0.37829 0.11394 0.42455 0.0
C648 C 0.34248 0.09663 0.37538 0.0
C649 C 0.33696 0.11596 0.35939 0.0
N650 N 0.35406 0.15308 0.36105 0.0
N651 N 0.40281 0.07766 0.41696 0.0
C652 C 0.35015 0.13454 0.37664 0.0
C653 C 0.37407 0.09575 0.40591 0.0
N654 N 0.35673 0.15077 0.42858 0.0
N655 N 0.31671 0.07903 0.36146 0.0
H656 H 0.43105 0.07688 0.43836 0.0
H657 H 0.40626 0.06429 0.40318 0.0
H658 H 0.29024 0.07923 0.3396 0.0
H659 H 0.31442 0.0648 0.37324 0.0
H660 H 0.3379 0.16487 0.4198 0.0
H661 H 0.36509 0.15067 0.45307 0.0
H662 H 0.37144 0.16667 0.37196 0.0
H663 H 0.3452 0.15461 0.33671 0.0
C664 C 0.64956 0.8451 0.15583 0.0
C665 C 0.6285 0.8634 0.17236 0.0
C666 C 0.63601 0.88246 0.1215 0.0
C667 C 0.66426 0.86455 0.10647 0.0
N668 N 0.71888 0.83112 0.1124 0.0
N669 N 0.62024 0.90092 0.17108 0.0
C670 C 0.67812 0.84669 0.12477 0.0
C671 C 0.62682 0.88256 0.15529 0.0
N672 N 0.6387 0.82595 0.16888 0.0
N673 N 0.61575 0.89913 0.10359 0.0
H674 H 0.61721 0.90199 0.19572 0.0
H675 H 0.62548 0.91525 0.15985 0.0
H676 H 0.62326 0.8998 0.07904 0.0
H677 H 0.58719 0.91159 0.11289 0.0
H678 H 0.64771 0.81224 0.15643 0.0
H679 H 0.61234 0.82368 0.19038 0.0
H680 H 0.73595 0.81844 0.12583 0.0
H681 H 0.74209 0.8322 0.08986 0.0
C682 C 0.59635 0.40533 0.12267 0.0
C683 C 0.59699 0.42474 0.10639 0.0
C684 C 0.64784 0.44101 0.15401 0.0
C685 C 0.6378 0.42254 0.17165 0.0
N686 N 0.59063 0.38772 0.17373 0.0
N687 N 0.60587 0.46201 0.11034 0.0
C688 C 0.60883 0.40479 0.15627 0.0
C689 C 0.61747 0.44285 0.12327 0.0
N690 N 0.58729 0.38733 0.10616 0.0
N691 N 0.68765 0.45678 0.16653 0.0
H692 H 0.58019 0.46412 0.08855 0.0
H693 H 0.61416 0.47572 0.12287 0.0
H694 H 0.71282 0.45559 0.18864 0.0
H695 H 0.70203 0.46992 0.15354 0.0
H696 H 0.59411 0.37275 0.11644 0.0
H697 H 0.57895 0.38687 0.0817 0.0
H698 H 0.5618 0.37532 0.16433 0.0
H699 H 0.59977 0.38662 0.19812 0.0
C700 C 0.36804 0.1519 0.87565 0.0
C701 C 0.38995 0.17004 0.85896 0.0
C702 C 0.36318 0.19079 0.90608 0.0
C703 C 0.34996 0.17265 0.92422 0.0
N704 N 0.35455 0.13521 0.92708 0.0
N705 N 0.42909 0.20553 0.8622 0.0
C706 C 0.35634 0.15293 0.90928 0.0
C707 C 0.39405 0.18909 0.87549 0.0
N708 N 0.35568 0.13393 0.8595 0.0
N709 N 0.34392 0.20974 0.91765 0.0
H710 H 0.45553 0.20444 0.84039 0.0
H711 H 0.43887 0.21925 0.87451 0.0
H712 H 0.31622 0.21139 0.93903 0.0
H713 H 0.34754 0.22332 0.90426 0.0
H714 H 0.33209 0.12096 0.86997 0.0
H715 H 0.36402 0.13249 0.83511 0.0
H716 H 0.36656 0.12067 0.91777 0.0
H717 H 0.34716 0.13518 0.95162 0.0
C718 C 0.377 0.63127 0.87591 0.0
C719 C 0.35466 0.61322 0.85921 0.0
C720 C 0.38095 0.59226 0.90652 0.0
C721 C 0.39468 0.61039 0.92455 0.0
N722 N 0.39183 0.6478 0.92727 0.0
N723 N 0.3176 0.57745 0.86198 0.0
C724 C 0.38906 0.63013 0.90952 0.0
C725 C 0.3512 0.59402 0.87564 0.0
N726 N 0.38966 0.64927 0.85975 0.0
N727 N 0.39786 0.57321 0.91865 0.0
H728 H 0.2923 0.57844 0.83993 0.0
H729 H 0.30776 0.56361 0.87403 0.0
H730 H 0.42218 0.5713 0.94078 0.0
H731 H 0.39513 0.55962 0.90535 0.0
H732 H 0.41363 0.66217 0.87019 0.0
H733 H 0.38146 0.65082 0.83536 0.0
H734 H 0.38 0.6624 0.918 0.0
H735 H 0.40015 0.64776 0.95175 0.0
C736 C 0.95759 0.26214 0.29406 0.0
C737 C 0.95089 0.25241 0.26375 0.0
C738 C 0.02779 0.2797 0.24027 0.0
C739 C 0.03301 0.28971 0.27047 0.0
N740 N -0.00116 0.29137 0.3256 0.0
N741 N 0.98335 0.25088 0.20846 0.0
C742 C -0.00351 0.28118 0.29713 0.0
C743 C 0.98735 0.2609 0.23705 0.0
N744 N 0.93114 0.25236 0.32048 0.0
N745 N 0.05756 0.28893 0.2141 0.0
H746 H 0.94844 0.23857 0.20421 0.0
H747 H 0.01596 0.25411 0.18904 0.0
H748 H 0.08782 0.30245 0.21508 0.0
H749 H 0.04951 0.28408 0.19084 0.0
H750 H 0.94132 0.25706 0.34368 0.0
H751 H 0.90327 0.23839 0.3197 0.0
H752 H 0.96517 0.28806 0.34466 0.0
H753 H 0.03274 0.3039 0.32994 0.0
C754 C 0.18179 0.02062 0.29014 0.0
C755 C 0.20449 1.00209 0.27506 0.0
C756 C 0.30781 0.02103 0.25207 0.0
C757 C 0.28166 0.03992 0.26497 0.0
N758 N 0.18972 0.05803 0.29441 0.0
N759 N 0.28471 0.98519 0.23818 0.0
C760 C 0.21722 0.0398 0.28327 0.0
C761 C 0.26675 1.0024 0.25535 0.0
N762 N 0.12869 0.01966 0.31252 0.0
N763 N 0.37208 0.02087 0.23643 0.0
H764 H 0.25781 0.97111 0.23997 0.0
H765 H 0.32305 0.98517 0.22022 0.0
H766 H 0.40032 0.03431 0.23065 0.0
H767 H 0.39944 1.00736 0.23054 0.0
H768 H 0.11461 0.03199 0.32713 0.0
H769 H 0.10303 1.00587 0.31877 0.0
H770 H 0.13849 0.0594 0.30399 0.0
H771 H 0.21606 0.07221 0.29256 0.0
C772 C 0.05229 1.01766 0.99242 0.0
C773 C 0.03463 0.99952 1.00992 0.0
C774 C 0.93242 0.01809 0.03428 0.0
C775 C 0.95349 0.0367 0.01868 0.0
N776 N 0.03621 0.05461 0.98393 0.0
N777 N 0.96231 0.983 0.05034 0.0
C778 C 0.0145 0.0366 0.99821 0.0
C779 C 0.97539 0.99982 0.03135 0.0
N780 N 0.10276 1.01647 0.96891 0.0
N781 N 0.87113 1.01785 0.05212 0.0
H782 H 0.99045 0.96913 0.04867 0.0
H783 H 0.92682 0.98312 0.06942 0.0
H784 H 0.84207 0.03117 0.05756 0.0
H785 H 0.84678 1.00433 0.0603 0.0
H786 H 0.11327 0.02832 0.95276 0.0
H787 H 0.13012 1.00282 0.96357 0.0
H788 H 0.08524 0.05634 0.97242 0.0
H789 H 0.00698 0.06834 0.98478 0.0
C790 C 0.25043 0.25653 0.04925 0.0
C791 C 0.28903 0.24914 0.02244 0.0
C792 C 0.23795 0.27766 0.9901 0.0
C793 C 0.20391 0.28594 0.01744 0.0
N794 N 0.18751 0.285 0.07437 0.0
N795 N 0.32642 0.25435 0.96789 0.0
C796 C 0.21237 0.27574 0.04733 0.0
C797 C 0.28522 0.2603 0.99313 0.0
N798 N 0.25044 0.24526 0.07683 0.0
N799 N 0.22173 0.28561 0.96079 0.0
H800 H 0.35786 0.24104 0.96782 0.0
H801 H 0.33333 0.26336 0.94756 0.0
H802 H 0.18612 0.29787 0.95745 0.0
H803 H 0.23779 0.27884 0.93951 0.0
H804 H 0.21557 0.24809 0.09564 0.0
H805 H 0.28287 0.23231 0.08043 0.0
H806 H 0.19946 0.27981 0.09721 0.0
H807 H 0.15974 0.29897 0.07429 0.0
C808 C 0.98811 0.7567 0.73653 0.0
C809 C 0.95646 0.74741 0.7638 0.0
C810 C 0.0055 0.77568 0.79726 0.0
C811 C 0.03724 0.785 0.77001 0.0
N812 N 0.05159 0.78582 0.71295 0.0
N813 N 0.94539 0.74603 0.82096 0.0
C814 C 0.02746 0.7757 0.7395 0.0
C815 C 0.96722 0.75651 0.79434 0.0
N816 N 0.98066 0.74724 0.70762 0.0
N817 N 0.01184 0.78523 0.82612 0.0
H818 H 0.91853 0.73189 0.82027 0.0
H819 H 0.9585 0.75032 0.84405 0.0
H820 H 0.04553 0.79787 0.83005 0.0
H821 H 0.98158 0.78131 0.84602 0.0
H822 H 0.01018 0.75111 0.6875 0.0
H823 H 0.94629 0.73475 0.70379 0.0
H824 H 0.03971 0.78147 0.68977 0.0
H825 H 0.08035 0.79962 0.71371 0.0
C826 C 0.68113 1.01617 0.78648 0.0
C827 C 0.70339 0.99809 0.77007 0.0
C828 C 0.80568 1.01763 0.74753 0.0
C829 C 0.78028 0.0361 0.76201 0.0
N830 N 0.68945 0.05345 0.79312 0.0
N831 N 0.78091 0.98232 0.73106 0.0
C832 C 0.71643 0.03552 0.78067 0.0
C833 C 0.76443 0.99898 0.74973 0.0
N834 N 0.62854 1.01461 0.80902 0.0
N835 N 0.86944 1.01789 0.73149 0.0
H836 H 0.75296 0.96835 0.73187 0.0
H837 H 0.81869 0.98277 0.71287 0.0
H838 H 0.89811 0.03145 0.72691 0.0
H839 H 0.89603 1.00455 0.72417 0.0
H840 H 0.61493 0.02653 0.82451 0.0
H841 H 0.60262 1.0007 0.81436 0.0
H842 H 0.63868 0.05457 0.80324 0.0
H843 H 0.71569 0.06767 0.79175 0.0
C844 C 0.72591 0.77799 0.04298 0.0
C845 C 0.6996 0.78445 1.0127 0.0
C846 C 0.74645 0.75218 0.98945 0.0
C847 C 0.7803 0.74705 0.01875 0.0
N848 N 0.80799 0.75601 0.07283 0.0
N849 N 0.69071 0.7786 0.95635 0.0
C850 C 0.77141 0.76021 0.0454 0.0
C851 C 0.71189 0.77182 0.98568 0.0
N852 N 0.70651 0.78868 0.06962 0.0
N853 N 0.74459 0.73785 0.96564 0.0
H854 H 0.66259 0.7924 0.95292 0.0
H855 H 0.70513 0.77129 0.93526 0.0
H856 H 0.76608 0.72305 0.96833 0.0
H857 H 0.71546 0.73975 0.94471 0.0
H858 H 0.71703 0.78352 0.09263 0.0
H859 H 0.67471 0.80194 0.0689 0.0
H860 H 0.81085 0.76621 0.09193 0.0
H861 H 0.83986 0.74285 0.07568 0.0
C862 C 0.21422 0.53773 0.78213 0.0
C863 C 0.27596 0.53785 0.76205 0.0
C864 C 0.25822 0.50055 0.75144 0.0
C865 C 0.19738 0.50028 0.77202 0.0
N866 N 0.1146 0.51857 0.80562 0.0
N867 N 0.36073 0.51918 0.72989 0.0
C868 C 0.17461 0.51892 0.78691 0.0
C869 C 0.29903 0.51917 0.74747 0.0
N870 N 0.19614 0.55536 0.79829 0.0
N871 N 0.27425 0.48337 0.7338 0.0
H872 H 0.38803 0.5327 0.72364 0.0
H873 H 0.3871 0.5058 0.72264 0.0
H874 H 0.24672 0.46938 0.73563 0.0
H875 H 0.31135 0.48322 0.71535 0.0
H876 H 0.15746 0.5561 0.81601 0.0
H877 H 0.22237 0.56946 0.7953 0.0
H878 H 0.08851 0.5317 0.81398 0.0
H879 H 0.08883 0.5049 0.8123 0.0
C880 C 0.94767 0.52283 0.48994 0.0
C881 C 0.9473 0.5339 0.51932 0.0
C882 C 0.03942 0.50995 0.54042 0.0
C883 C 0.03958 0.49886 0.51105 0.0
N884 N 0.98957 0.49344 0.45896 0.0
N885 N -0.00466 0.53891 0.57187 0.0
C886 C 0.99223 0.50493 0.48624 0.0
C887 C -0.00585 0.52771 0.54428 0.0
N888 N 0.9093 0.53028 0.46464 0.0
N889 N 0.07881 0.50261 0.5655 0.0
H890 H 0.9576 0.5503 0.57719 0.0
H891 H 0.03479 0.53757 0.58923 0.0
H892 H 0.11194 0.48968 0.56421 0.0
H893 H 0.0757 0.50832 0.58854 0.0
H894 H 0.91387 0.52472 0.44155 0.0
H895 H 0.8761 0.5432 0.4658 0.0
H896 H 0.94922 0.49471 0.44198 0.0
H897 H 0.02638 0.48178 0.45372 0.0
C898 C 0.28354 0.75988 0.49494 0.0
C899 C 0.28463 0.74814 0.52379 0.0
C900 C 0.20274 0.77379 0.54787 0.0
C901 C 0.19692 0.78446 0.51822 0.0
N902 N 0.22098 0.78504 0.46203 0.0
N903 N 0.24011 0.74313 0.57708 0.0
C904 C 0.2348 0.77685 0.49142 0.0
C905 C 0.24224 0.75482 0.54993 0.0
N906 N 0.32886 0.75492 0.47061 0.0
N907 N 0.17397 0.78238 0.57465 0.0
H908 H 0.27372 0.73049 0.58111 0.0
H909 H 0.20261 0.74534 0.59508 0.0
H910 H 0.14473 0.79609 0.5745 0.0
H911 H 0.1839 0.77691 0.59754 0.0
H912 H 0.33725 0.76445 0.45095 0.0
H913 H 0.36237 0.74206 0.47079 0.0
H914 H 0.24008 0.77868 0.44095 0.0
H915 H 0.18425 0.79698 0.45825 0.0
C916 C 0.74737 0.5304 0.23221 0.0
C917 C 0.79155 0.53728 0.25765 0.0
C918 C 0.74383 0.50887 0.29121 0.0
C919 C 0.70409 0.50106 0.26506 0.0
N920 N 0.67968 0.50226 0.20864 0.0
N921 N 0.83991 0.53084 0.31024 0.0
C922 C 0.70865 0.51133 0.23505 0.0
C923 C 0.79259 0.52575 0.28668 0.0
N924 N 0.74275 0.54198 0.20502 0.0
N925 N 0.7319 0.50097 0.32094 0.0
H926 H 0.87352 0.54369 0.30938 0.0
H927 H 0.84959 0.52143 0.32993 0.0
H928 H 0.69526 0.48911 0.32543 0.0
H929 H 0.7526 0.50752 0.34161 0.0
H930 H 0.70413 0.53947 0.18754 0.0
H931 H 0.77512 0.55484 0.20055 0.0
H932 H 0.68835 0.50763 0.18561 0.0
H933 H 0.65241 0.48818 0.20919 0.0
C934 C 0.69008 0.26756 0.49265 0.0
C935 C 0.70805 0.28552 0.51048 0.0
C936 C 0.80518 0.26602 0.53737 0.0
C937 C 0.78748 0.24808 0.51946 0.0
N938 N 0.71049 0.23104 0.48146 0.0
N939 N 0.78662 0.30269 0.54771 0.0
C940 C 0.72899 0.24866 0.49756 0.0
C941 C 0.76691 0.28498 0.53216 0.0
N942 N 0.63844 0.26903 0.4696 0.0
N943 N 0.85579 0.26451 0.56084 0.0
H944 H 0.75752 0.31644 0.54656 0.0
H945 H 0.83388 0.3043 0.5606 0.0
H946 H 0.88384 0.25088 0.56566 0.0
H947 H 0.8667 0.27609 0.57729 0.0
H948 H 0.62622 0.2574 0.45343 0.0
H949 H 0.61013 0.28265 0.46501 0.0
H950 H 0.66397 0.22937 0.46808 0.0
H951 H 0.74036 0.21742 0.4823 0.0
C952 C 0.4604 0.25731 0.79146 0.0
C953 C 0.45427 0.2471 0.76148 0.0
C954 C 0.53482 0.27329 0.73761 0.0
C955 C 0.54168 0.28335 0.76766 0.0
N956 N 0.50736 0.28606 0.82263 0.0
N957 N 0.48946 0.24431 0.7066 0.0
C958 C 0.50314 0.27568 0.79436 0.0
C959 C 0.4928 0.2548 0.7348 0.0
N960 N 0.42935 0.24861 0.81778 0.0
N961 N 0.56438 0.28225 0.71116 0.0
H962 H 0.45369 0.23219 0.70247 0.0
H963 H 0.52392 0.24693 0.68758 0.0
H964 H 0.59507 0.29571 0.71178 0.0
H965 H 0.55459 0.27737 0.68802 0.0
H966 H 0.43791 0.25362 0.84093 0.0
H967 H 0.39787 0.23531 0.81707 0.0
H968 H 0.47339 0.28348 0.84183 0.0
H969 H 0.54372 0.29803 0.82677 0.0
C970 C 0.45412 0.02458 0.48802 0.0
C971 C 0.45306 0.03518 0.51781 0.0
C972 C 0.53945 1.00961 0.53933 0.0
C973 C 0.53979 0.99889 0.50963 0.0
N974 N 0.49346 0.99511 0.45654 0.0
N975 N 0.49844 0.0388 0.57109 0.0
C976 C 0.49581 1.0061 0.4843 0.0
C977 C 0.49712 0.02799 0.54315 0.0
N978 N 0.41918 0.033 0.46246 0.0
N979 N 0.57551 1.00137 0.56473 0.0
H980 H 0.46244 0.05066 0.57632 0.0
H981 H 0.53657 0.03668 0.58885 0.0
H982 H 0.60661 0.98802 0.56348 0.0
H983 H 0.57138 1.00677 0.58791 0.0
H984 H 0.42481 0.02781 0.43921 0.0
H985 H 0.38801 0.04633 0.46373 0.0
H986 H 0.45501 0.99731 0.43892 0.0
H987 H 0.52855 0.98299 0.45146 0.0
C988 C 0.49297 0.78603 0.24185 0.0
C989 C 0.5273 0.79091 0.27109 0.0
C990 C 0.46862 0.76079 0.29587 0.0
C991 C 0.44202 0.75441 0.26565 0.0
N992 N 0.43475 0.75999 0.20911 0.0
N993 N 0.55348 0.78196 0.3254 0.0
C994 C 0.45627 0.76672 0.23837 0.0
C995 C 0.51663 0.778 0.29797 0.0
N996 N 0.49272 0.8003 0.21781 0.0
N997 N 0.44696 0.75063 0.32273 0.0
H998 H 0.58708 0.79479 0.32804 0.0
H999 H 0.55477 0.77184 0.3447 0.0
H1000 H 0.41251 0.73794 0.32224 0.0
H1001 H 0.45804 0.75582 0.34563 0.0
H1002 H 0.46343 0.79856 0.1969 0.0
H1003 H 0.51568 0.81493 0.22026 0.0
H1004 H 0.45056 0.76703 0.18794 0.0
H1005 H 0.40489 0.74648 0.20584 0.0
C1006 C 0.47503 0.49823 0.03157 0.0
C1007 C 0.53375 0.49779 1.0098 0.0
C1008 C 0.51511 0.53513 0.99878 0.0
C1009 C 0.45586 0.53549 0.02029 0.0
N1010 N 0.3751 0.51708 0.05491 0.0
N1011 N 0.61371 0.51603 0.97465 0.0
C1012 C 0.43464 0.51691 0.03593 0.0
C1013 C 0.55488 0.51635 0.99406 0.0
N1014 N 0.46091 0.48114 0.04988 0.0
N1015 N 0.53046 0.55243 0.98116 0.0
H1016 H 0.63969 0.50239 0.96812 0.0
H1017 H 0.63902 0.52922 0.96587 0.0
H1018 H 0.50382 0.56649 0.9838 0.0
H1019 H 0.56645 0.55278 0.96231 0.0
H1020 H 0.42548 0.48102 0.06896 0.0
H1021 H 0.48855 0.4672 0.04781 0.0
H1022 H 0.34985 0.50378 0.06335 0.0
H1023 H 0.34835 0.53065 0.06119 0.0
C1024 C 0.05833 0.38299 0.41551 0.0
C1025 C 0.01469 0.39918 0.42791 0.0
C1026 C 0.96408 0.40482 0.37412 0.0
C1027 C 0.01229 0.38985 0.3614 0.0
N1028 N 0.11752 0.36845 0.36985 0.0
N1029 N 0.92673 0.42585 0.41932 0.0
C1030 C 0.06166 0.37965 0.38211 0.0
C1031 C 0.9677 0.41018 0.40722 0.0
N1032 N 0.09966 0.37111 0.43533 0.0
N1033 N 0.91397 0.41365 0.35459 0.0
H1034 H 0.92397 0.429 0.44361 0.0
H1035 H 0.89726 0.43619 0.40555 0.0
H1036 H 0.90937 0.40993 0.33058 0.0
H1037 H 0.87314 0.42336 0.36234 0.0
H1038 H 0.12128 0.35692 0.42848 0.0
H1039 H 0.1103 0.37458 0.45897 0.0
H1040 H 0.16048 0.36309 0.38339 0.0
H1041 H 0.12717 0.36652 0.34573 0.0
C1042 C 0.24928 0.91545 0.38765 0.0
C1043 C 0.21617 0.90372 0.36299 0.0
C1044 C 0.16764 0.87983 0.40369 0.0
C1045 C 0.20753 0.89013 0.42783 0.0
N1046 N 0.29366 0.91623 0.44211 0.0
N1047 N 0.14633 0.87345 0.34806 0.0
C1048 C 0.25043 0.90753 0.41955 0.0
C1049 C 0.17754 0.88533 0.37114 0.0
N1050 N 0.27857 0.93435 0.38082 0.0
N1051 N 0.1141 0.86626 0.4118 0.0
H1052 H 0.13822 0.87825 0.32473 0.0
H1053 H 0.12981 0.85823 0.35208 0.0
H1054 H 0.0998 0.86272 0.43508 0.0
H1055 H 0.07739 0.86028 0.39556 0.0
H1056 H 0.29484 0.94485 0.39813 0.0
H1057 H 0.28286 0.94016 0.35777 0.0
H1058 H 0.32888 0.92837 0.43765 0.0
H1059 H 0.29856 0.91019 0.46503 0.0
C1060 C 0.96525 0.90194 0.87687 0.0
C1061 C 0.01699 0.88814 0.86376 0.0
C1062 C 0.07402 0.88486 0.91661 0.0
C1063 C 0.02241 0.89863 0.92976 0.0
N1064 N 0.91287 0.91783 0.92404 0.0
N1065 N 0.13216 0.87131 0.86979 0.0
C1066 C 0.96657 0.90661 0.91024 0.0
C1067 C 0.0737 0.88059 0.88339 0.0
N1068 N 0.91666 0.91126 0.85715 0.0
N1069 N 0.12478 0.87592 0.93576 0.0
H1070 H 0.13777 0.86882 0.84551 0.0
H1071 H 0.17945 0.86809 0.88197 0.0
H1072 H 0.13481 0.88042 0.95907 0.0
H1073 H 0.15505 0.86311 0.92905 0.0
H1074 H 0.8828 0.92323 0.86405 0.0
H1075 H 0.91208 0.90761 0.83311 0.0
H1076 H 0.86624 0.92235 0.91235 0.0
H1077 H 0.91234 0.92128 0.94826 0.0
C1078 C 0.24987 0.41666 0.88485 0.0
C1079 C 0.21955 0.40388 0.86071 0.0
C1080 C 0.17542 0.38001 0.90235 0.0
C1081 C 0.21258 0.39147 0.92613 0.0
N1082 N 0.29144 0.41962 0.9396 0.0
N1083 N 0.15742 0.37198 0.84704 0.0
C1084 C 0.25154 0.40953 0.91718 0.0
C1085 C 0.18507 0.38497 0.86961 0.0
N1086 N 0.2768 0.43568 0.87691 0.0
N1087 N 0.12409 0.36585 0.91087 0.0
H1088 H 0.14926 0.37601 0.82338 0.0
H1089 H 0.14424 0.35659 0.85187 0.0
H1090 H 0.10914 0.36273 0.93421 0.0
H1091 H 0.08913 0.35894 0.89473 0.0
H1092 H 0.2908 0.44693 0.89347 0.0
H1093 H 0.28255 0.44068 0.85347 0.0
H1094 H 0.322 0.43276 0.93509 0.0
H1095 H 0.29809 0.41398 0.96267 0.0
C1096 C 0.91882 0.65262 0.65084 0.0
C1097 C 0.97557 0.64517 0.6705 0.0
C1098 C 0.02695 0.62695 0.62401 0.0
C1099 C 0.97095 0.63482 0.60448 0.0
N1100 N 0.86822 0.65741 0.59845 0.0
N1101 N 0.0774 0.62263 0.67711 0.0
C1102 C 0.91895 0.64847 0.61762 0.0
C1103 C 0.02811 0.63164 0.65739 0.0
N1104 N 0.85995 0.66172 0.66437 0.0
N1105 N 0.08084 0.61579 0.61022 0.0
H1106 H 0.08188 0.62642 0.70111 0.0
H1107 H 0.1122 0.61088 0.67026 0.0
H1108 H 0.08139 0.61233 0.586 0.0
H1109 H 0.12745 0.61127 0.62192 0.0
H1110 H 0.81271 0.66484 0.65209 0.0
H1111 H 0.85398 0.66417 0.68864 0.0
H1112 H 0.83789 0.67021 0.60518 0.0
H1113 H 0.8584 0.65299 0.5751 0.0
C1114 C 0.71118 0.15157 0.66046 0.0
C1115 C 0.76364 0.13766 0.67286 0.0
C1116 C 0.81589 0.13412 0.6192 0.0
C1117 C 0.76388 0.14809 0.60674 0.0
N1118 N 0.65634 0.16796 0.61403 0.0
N1119 N 0.87796 0.12068 0.66517 0.0
C1120 C 0.7102 0.15635 0.62707 0.0
C1121 C 0.81845 0.12998 0.65243 0.0
N1122 N 0.664 0.16078 0.68085 0.0
N1123 N 0.86433 0.12485 0.59936 0.0
H1124 H 0.88587 0.11834 0.68939 0.0
H1125 H 0.924 0.11732 0.65221 0.0
H1126 H 0.87241 0.12914 0.5758 0.0
H1127 H 0.89435 0.1119 0.60581 0.0
H1128 H 0.62952 0.17276 0.6745 0.0
H1129 H 0.66085 0.1569 0.70488 0.0
H1130 H 0.6112 0.17288 0.62639 0.0
H1131 H 0.65414 0.17145 0.58982 0.0
C1132 C 0.91573 0.16068 0.15117 0.0
C1133 C 0.96658 0.15136 0.17228 0.0
C1134 C 0.01668 0.13155 0.12703 0.0
C1135 C 0.96444 0.14028 0.10639 0.0
N1136 N 0.86687 0.16437 0.0981 0.0
N1137 N 0.05973 0.12606 0.18098 0.0
C1138 C 0.91557 0.15538 0.11822 0.0
C1139 C 0.01555 0.13631 0.16032 0.0
N1140 N 0.86184 0.17284 0.16308 0.0
N1141 N 0.06982 0.11953 0.11442 0.0
H1142 H 0.06451 0.13007 0.20488 0.0
H1143 H 0.08991 0.11311 0.17488 0.0
H1144 H 0.07274 0.11611 0.09023 0.0
H1145 H 0.11445 0.11449 0.12712 0.0
H1146 H 0.81799 0.178 0.15002 0.0
H1147 H 0.85534 0.17643 0.18694 0.0
H1148 H 0.84101 0.17831 0.10278 0.0
H1149 H 0.8529 0.15834 0.07604 0.0
C1150 C 0.8178 0.65731 0.12955 0.0
C1151 C 0.77852 0.64633 0.10587 0.0
C1152 C 0.73857 0.6216 0.14732 0.0
C1153 C 0.7703 0.63413 0.17136 0.0
N1154 N 0.83721 0.66519 0.18488 0.0
N1155 N 0.69434 0.61936 0.09295 0.0
C1156 C 0.8076 0.65255 0.16234 0.0
C1157 C 0.7369 0.62882 0.11504 0.0
N1158 N 0.87114 0.6708 0.12092 0.0
N1159 N 0.71083 0.60267 0.15518 0.0
H1160 H 0.68779 0.6251 0.06993 0.0
H1161 H 0.66124 0.60682 0.09787 0.0
H1162 H 0.70688 0.5974 0.17856 0.0
H1163 H 0.69548 0.59165 0.13848 0.0
H1164 H 0.90742 0.67719 0.13699 0.0
H1165 H 0.88622 0.67375 0.09756 0.0
H1166 H 0.85339 0.68033 0.17999 0.0
H1167 H 0.84385 0.66113 0.20863 0.0
C1168 C 0.5652 0.38006 0.91311 0.0
C1169 C 0.52241 0.39746 0.92191 0.0
C1170 C 0.48142 0.40032 0.86614 0.0
C1171 C 0.52923 0.3843 0.85688 0.0
N1172 N 0.62905 0.36218 0.87145 0.0
N1173 N 0.4497 0.42638 0.9052 0.0
C1174 C 0.57359 0.37479 0.88038 0.0
C1175 C 0.48348 0.40825 0.89792 0.0
N1176 N 0.60124 0.36892 0.93575 0.0
N1177 N 0.43235 0.40758 0.84472 0.0
H1178 H 0.44718 0.43224 0.92822 0.0
H1179 H 0.42876 0.43635 0.88806 0.0
H1180 H 0.42722 0.40152 0.82186 0.0
H1181 H 0.39236 0.41813 0.85046 0.0
H1182 H 0.62205 0.3542 0.93152 0.0
H1183 H 0.60864 0.37376 0.95908 0.0
H1184 H 0.6689 0.35713 0.887 0.0
H1185 H 0.64121 0.35847 0.84805 0.0
C1186 C 0.77532 0.87968 0.90001 0.0
C1187 C 0.72471 0.88849 0.92129 0.0
C1188 C 0.67052 0.9081 0.87687 0.0
C1189 C 0.72082 0.89919 0.85525 0.0
N1190 N 0.81615 0.87481 0.84555 0.0
N1191 N 0.62789 0.91264 0.93067 0.0
C1192 C 0.77189 0.88451 0.8667 0.0
C1193 C 0.67424 0.90332 0.90993 0.0
N1194 N 0.82904 0.86757 0.91205 0.0
N1195 N 0.61359 0.91936 0.86555 0.0
H1196 H 0.61742 0.90722 0.95351 0.0
H1197 H 0.60116 0.92643 0.9257 0.0
H1198 H 0.60417 0.92246 0.8417 0.0
H1199 H 0.57 0.92392 0.87926 0.0
H1200 H 0.87243 0.86226 0.89886 0.0
H1201 H 0.83339 0.86411 0.93621 0.0
H1202 H 0.84843 0.86219 0.85122 0.0
H1203 H 0.81947 0.87909 0.82168 0.0
C1204 C 0.48341 0.91261 0.39631 0.0
C1205 C 0.51897 0.90089 0.4203 0.0
C1206 C 0.56972 0.87844 0.37851 0.0
C1207 C 0.52732 0.8886 0.35494 0.0
N1208 N 0.43491 0.91334 0.34261 0.0
N1209 N 0.59304 0.87122 0.43383 0.0
C1210 C 0.48165 0.90514 0.36425 0.0
C1211 C 0.55989 0.88317 0.4113 0.0
N1212 N 0.45255 0.93113 0.40388 0.0
N1213 N 0.62505 0.86573 0.36974 0.0
H1214 H 0.59977 0.87554 0.45744 0.0
H1215 H 0.61211 0.85636 0.42913 0.0
H1216 H 0.63934 0.86273 0.34635 0.0
H1217 H 0.66332 0.8601 0.3856 0.0
H1218 H 0.43403 0.94161 0.38691 0.0
H1219 H 0.45022 0.93676 0.42705 0.0
H1220 H 0.39715 0.92458 0.34816 0.0
H1221 H 0.42934 0.90753 0.31962 0.0
C1222 C 0.77509 0.37954 0.40154 0.0
C1223 C 0.72095 0.38702 0.42233 0.0
C1224 C 0.66362 0.40529 0.37741 0.0
C1225 C 0.71859 0.39826 0.35653 0.0
N1226 N 0.81964 0.37584 0.34737 0.0
N1227 N 0.61739 0.40891 0.43077 0.0
C1228 C 0.77248 0.38457 0.36827 0.0
C1229 C 0.6669 0.40057 0.41048 0.0
N1230 N 0.8309 0.36845 0.41401 0.0
N1231 N 0.60358 0.4146 0.36518 0.0
H1232 H 0.60989 0.40399 0.45409 0.0
H1233 H 0.58559 0.42164 0.42501 0.0
H1234 H 0.5958 0.41761 0.34114 0.0
H1235 H 0.5573 0.41741 0.37827 0.0
H1236 H 0.8764 0.36425 0.40126 0.0
H1237 H 0.83426 0.36474 0.43812 0.0
H1238 H 0.85516 0.36402 0.35328 0.0
H1239 H 0.82152 0.37993 0.32339 0.0
C1240 C 0.41082 0.65758 0.15106 0.0
C1241 C 0.45527 0.64843 0.17474 0.0
C1242 C 0.50146 0.62409 0.1344 0.0
C1243 C 0.46401 0.63498 0.11002 0.0
N1244 N 0.38447 0.66328 0.09559 0.0
N1245 N 0.5494 0.62454 0.18824 0.0
C1246 C 0.42032 0.65228 0.11846 0.0
C1247 C 0.50239 0.63209 0.16616 0.0
N1248 N 0.35415 0.66979 0.1598 0.0
N1249 N 0.53477 0.60581 0.1275 0.0
H1250 H 0.55325 0.63053 0.21119 0.0
H1251 H 0.58855 0.6136 0.18319 0.0
H1252 H 0.5379 0.59986 0.10454 0.0
H1253 H 0.55491 0.59582 0.1448 0.0
H1254 H 0.31456 0.67474 0.14404 0.0
H1255 H 0.34103 0.67313 0.18327 0.0
H1256 H 0.36279 0.67791 0.09973 0.0
H1257 H 0.3779 0.65839 0.07224 0.0
C1258 C 0.31468 0.1318 0.15369 0.0
C1259 C 0.26032 0.13968 0.17414 0.0
C1260 C 0.20603 0.1579 0.12808 0.0
C1261 C 0.25887 0.14922 0.10773 0.0
N1262 N 0.35812 0.1255 0.10056 0.0
N1263 N 0.16035 0.16273 0.18191 0.0
C1264 C 0.31084 0.1353 0.12034 0.0
C1265 C 0.2075 0.15343 0.16159 0.0
N1266 N 0.37502 0.12292 0.16637 0.0
N1267 N 0.15254 0.16962 0.11496 0.0
H1268 H 0.15731 0.15896 0.20598 0.0
H1269 H 0.12538 0.17455 0.17544 0.0
H1270 H 0.14999 0.17283 0.09067 0.0
H1271 H 0.10813 0.17501 0.12737 0.0
H1272 H 0.42054 0.1194 0.15315 0.0
H1273 H 0.38428 0.12128 0.19063 0.0
H1274 H 0.388 0.11261 0.10745 0.0
H1275 H 0.36515 0.12921 0.07671 0.0
C1276 C 0.41899 0.15754 0.65279 0.0
C1277 C 0.4704 0.14827 0.67366 0.0
C1278 C 0.52163 0.1292 0.6279 0.0
C1279 C 0.46938 0.13811 0.60744 0.0
N1280 N 0.37194 0.16235 0.59968 0.0
N1281 N 0.56552 0.12352 0.68173 0.0
C1282 C 0.41999 0.15292 0.61965 0.0
C1283 C 0.52041 0.13364 0.66131 0.0
N1284 N 0.36348 0.16895 0.66497 0.0
N1285 N 0.57483 0.11733 0.61499 0.0
H1286 H 0.57026 0.1274 0.70568 0.0
H1287 H 0.59684 0.11085 0.67537 0.0
H1288 H 0.57764 0.11414 0.59072 0.0
H1289 H 0.61942 0.11211 0.62754 0.0
H1290 H 0.31917 0.17381 0.65192 0.0
H1291 H 0.35596 0.17197 0.68895 0.0
H1292 H 0.34597 0.17618 0.60502 0.0
H1293 H 0.359 0.15692 0.57714 0.0
C1294 C 0.31743 0.62704 0.6531 0.0
C1295 C 0.26777 0.63639 0.67456 0.0
C1296 C 0.21424 0.65574 0.6294 0.0
C1297 C 0.26451 0.64658 0.60831 0.0
N1298 N 0.35861 0.62147 0.59931 0.0
N1299 N 0.17286 0.66098 0.68373 0.0
C1300 C 0.31366 0.63147 0.61992 0.0
C1301 C 0.21712 0.65109 0.66279 0.0
N1302 N 0.37382 0.61566 0.66465 0.0
N1303 N 0.16143 0.66808 0.61709 0.0
H1304 H 0.16953 0.65689 0.70768 0.0
H1305 H 0.14055 0.67355 0.67784 0.0
H1306 H 0.15762 0.67142 0.59287 0.0
H1307 H 0.11827 0.67371 0.6301 0.0
H1308 H 0.4172 0.61086 0.65098 0.0
H1309 H 0.38297 0.61266 0.68857 0.0
H1310 H 0.38463 0.60764 0.60478 0.0
H1311 H 0.36825 0.62627 0.57609 0.0
C1312 C 0.3441 0.38257 0.26661 0.0
C1313 C 0.30013 0.38396 0.29396 0.0
C1314 C 0.38516 0.40874 0.31774 0.0
C1315 C 0.4256 0.40856 0.28921 0.0
N1316 N 0.43317 0.39942 0.23371 0.0
N1317 N 0.27232 0.40061 0.34367 0.0
C1318 C 0.40207 0.3966 0.26287 0.0
C1319 C 0.31885 0.3977 0.31904 0.0
N1320 N 0.33006 0.36797 0.24392 0.0
N1321 N 0.41088 0.41894 0.34376 0.0
H1322 H 0.22498 0.39216 0.34597 0.0
H1323 H 0.27856 0.41218 0.36066 0.0
H1324 H 0.45747 0.42787 0.34309 0.0
H1325 H 0.38833 0.41761 0.36632 0.0
H1326 H 0.36478 0.36479 0.22516 0.0
H1327 H 0.28707 0.35767 0.24531 0.0
H1328 H 0.41385 0.39271 0.21291 0.0
H1329 H 0.47352 0.41032 0.22959 0.0
C1330 C 0.83478 0.89286 0.32137 0.0
C1331 C 0.82043 0.87793 0.29741 0.0
C1332 C 0.92465 0.89007 0.26756 0.0
C1333 C 0.94365 0.90352 0.29298 0.0
N1334 N 0.92366 0.91463 0.347 0.0
N1335 N 0.86043 0.85932 0.25111 0.0
C1336 C 0.90073 0.90406 0.32081 0.0
C1337 C 0.86891 0.87539 0.27189 0.0
N1338 N 0.7844 0.89685 0.34404 0.0
N1339 N 0.95619 0.8923 0.23838 0.0
H1340 H 0.81933 0.84844 0.25321 0.0
H1341 H 0.89826 0.85565 0.2338 0.0
H1342 H 0.99289 0.90403 0.23315 0.0
H1343 H 0.93951 0.88421 0.21829 0.0
H1344 H 0.78756 0.90947 0.35939 0.0
H1345 H 0.73722 0.88828 0.346 0.0
H1346 H 0.89745 0.91396 0.36885 0.0
H1347 H 0.97221 0.92265 0.34769 0.0
C1348 C 0.3553 0.90465 0.01996 0.0
C1349 C 0.31606 0.90707 0.99131 0.0
C1350 C 0.40492 0.88568 0.96327 0.0
C1351 C 0.43998 0.8817 0.99263 0.0
N1352 N 0.44126 0.88429 0.04982 0.0
N1353 N 0.29763 0.89816 0.93638 0.0
C1354 C 0.41299 0.89033 0.02123 0.0
C1355 C 0.33925 0.89711 0.96307 0.0
N1356 N 0.33781 0.9163 0.04594 0.0
N1357 N 0.43553 0.87914 0.93557 0.0
H1358 H 0.25099 0.90707 0.93526 0.0
H1359 H 0.3071 0.88936 0.9161 0.0
H1360 H 0.48242 0.87033 0.93506 0.0
H1361 H 0.41715 0.88359 0.91321 0.0
H1362 H 0.36879 0.91685 0.06652 0.0
H1363 H 0.29594 0.92702 0.04585 0.0
H1364 H 0.41927 0.88836 0.07168 0.0
H1365 H 0.48271 0.87351 0.05181 0.0
C1366 C 0.89384 0.38375 0.96099 0.0
C1367 C 0.91722 0.37363 0.98913 0.0
C1368 C 0.82185 0.3905 0.01935 0.0
C1369 C 0.79528 0.39968 0.99093 0.0
N1370 N 0.79785 0.40209 0.9338 0.0
N1371 N 0.8945 0.36354 0.0433 0.0
C1372 C 0.82896 0.39549 0.96141 0.0
C1373 C 0.87777 0.37567 0.01765 0.0
N1374 N 0.93468 0.38251 0.93416 0.0
N1375 N 0.79608 0.39676 0.04822 0.0
H1376 H 0.93559 0.35258 0.04282 0.0
H1377 H 0.86332 0.36286 0.06381 0.0
H1378 H 0.75745 0.40833 0.05067 0.0
H1379 H 0.81821 0.39214 0.06983 0.0
H1380 H 0.92562 0.39148 0.91396 0.0
H1381 H 0.97985 0.37303 0.93279 0.0
H1382 H 0.81557 0.39751 0.91145 0.0
H1383 H 0.75099 0.41091 0.93332 0.0
C1384 C 0.66751 0.63935 0.76882 0.0
C1385 C 0.6889 0.65213 0.74294 0.0
C1386 C 0.58001 0.64205 0.71397 0.0
C1387 C 0.56279 0.62772 0.73858 0.0
N1388 N 0.59654 0.61026 0.78711 0.0
N1389 N 0.67023 0.66395 0.68921 0.0
C1390 C 0.60902 0.62548 0.7651 0.0
C1391 C 0.64642 0.65305 0.71499 0.0
N1392 N 0.70085 0.6413 0.79766 0.0
N1393 N 0.53192 0.64557 0.69007 0.0
H1394 H 0.71677 0.6729 0.68971 0.0
H1395 H 0.64621 0.66317 0.66688 0.0
H1396 H 0.48449 0.63716 0.68792 0.0
H1397 H 0.53706 0.65753 0.67355 0.0
H1398 H 0.68311 0.63397 0.81829 0.0
H1399 H 0.74154 0.65206 0.8019 0.0
H1400 H 0.63272 0.60649 0.80509 0.0
H1401 H 0.55324 0.60008 0.78577 0.0
C1402 C 0.07629 0.14198 0.76892 0.0
C1403 C 0.05432 0.12973 0.74261 0.0
C1404 C 0.16244 0.14043 0.71365 0.0
C1405 C 0.17977 0.1544 0.73864 0.0
N1406 N 0.14686 0.17088 0.78794 0.0
N1407 N 0.07168 0.11906 0.68832 0.0
C1408 C 0.13424 0.15604 0.76545 0.0
C1409 C 0.0961 0.1294 0.71447 0.0
N1410 N 0.04399 0.13933 0.79786 0.0
N1411 N 0.21033 0.13727 0.68962 0.0
H1412 H 0.02493 0.11021 0.68858 0.0
H1413 H 0.09539 0.12028 0.66598 0.0
H1414 H 0.25798 0.1456 0.68777 0.0
H1415 H 0.2049 0.12558 0.67276 0.0
H1416 H 0.06228 0.14626 0.81868 0.0
H1417 H 0.00379 0.12837 0.80188 0.0
H1418 H 0.11105 0.17421 0.80621 0.0
H1419 H 0.18983 0.18119 0.78677 0.0
C1420 C 0.58519 0.14944 0.07206 0.0
C1421 C 0.54789 0.1518 0.04283 0.0
C1422 C 0.632 0.12796 0.01706 0.0
C1423 C 0.67376 0.12733 0.04516 0.0
N1424 N 0.69581 0.13922 0.09848 0.0
N1425 N 0.54568 0.14713 0.98585 0.0
C1426 C 0.65195 0.13857 0.07248 0.0
C1427 C 0.57398 0.14206 1.01488 0.0
N1428 N 0.55587 0.15698 0.09943 0.0
N1429 N 0.64807 0.1151 0.99227 0.0
H1430 H 0.50542 0.15818 0.9829 0.0
H1431 H 0.56732 0.14213 0.96438 0.0
H1432 H 0.69067 0.10464 0.99288 0.0
H1433 H 0.61514 0.11336 0.97244 0.0
H1434 H 0.5768 0.15395 0.12192 0.0
H1435 H 0.50755 0.16512 0.09976 0.0
H1436 H 0.68726 0.14907 0.11768 0.0
H1437 H 0.74321 0.13067 0.09993 0.0
C1438 C 0.15692 0.63531 0.07046 0.0
C1439 C 0.19433 0.63381 0.0412 0.0
C1440 C 0.11666 0.66071 0.01836 0.0
C1441 C 0.07329 0.66016 0.04591 0.0
N1442 N 0.04682 0.64524 0.09707 0.0
N1443 N 0.19893 0.64174 0.98502 0.0
C1444 C 0.09207 0.64701 0.07175 0.0
C1445 C 0.17139 0.64569 1.01454 0.0
N1446 N 0.18431 0.62621 0.09718 0.0
N1447 N 0.10444 0.67533 0.99542 0.0
H1448 H 0.2358 0.62993 0.98067 0.0
H1449 H 0.17927 0.64853 0.96428 0.0
H1450 H 0.06418 0.68647 0.99734 0.0
H1451 H 0.13865 0.67771 0.97618 0.0
H1452 H 0.16316 0.62857 0.1198 0.0
H1453 H 0.23158 0.61758 0.09707 0.0
H1454 H 0.0526 0.63393 0.1146 0.0
H1455 H 0.00123 0.65445 0.09945 0.0
C1456 C 0.41191 0.89093 0.81794 0.0
C1457 C 0.4265 0.90587 0.79384 0.0
C1458 C 0.32065 0.89424 0.76447 0.0
C1459 C 0.30122 0.88107 0.7902 0.0
N1460 N 0.32395 0.86852 0.84324 0.0
N1461 N 0.38846 0.92401 0.74651 0.0
C1462 C 0.34568 0.87981 0.81749 0.0
C1463 C 0.37841 0.90836 0.76803 0.0
N1464 N 0.46221 0.88694 0.84074 0.0
N1465 N 0.28625 0.89243 0.73585 0.0
H1466 H 0.43121 0.9344 0.74768 0.0
H1467 H 0.3508 0.92787 0.72918 0.0
H1468 H 0.2464 0.88141 0.73161 0.0
H1469 H 0.30263 0.90012 0.71531 0.0
H1470 H 0.45878 0.87456 0.8566 0.0
H1471 H 0.50986 0.89529 0.84241 0.0
H1472 H 0.35014 0.86884 0.8651 0.0
H1473 H 0.27697 0.85977 0.84333 0.0
C1474 C 0.83634 0.38879 0.81826 0.0
C1475 C 0.82279 0.37392 0.79409 0.0
C1476 C 0.92713 0.38647 0.76467 0.0
C1477 C 0.94507 0.39995 0.79022 0.0
N1478 N 0.92353 0.41104 0.8441 0.0
N1479 N 0.86413 0.35563 0.74769 0.0
C1480 C 0.90165 0.4003 0.81789 0.0
C1481 C 0.87177 0.37161 0.76869 0.0
N1482 N 0.78577 0.39236 0.84103 0.0
N1483 N 0.95898 0.3889 0.7356 0.0
H1484 H 0.82326 0.34467 0.74941 0.0
H1485 H 0.90247 0.35211 0.73052 0.0
H1486 H -0.0048 0.40078 0.73051 0.0
H1487 H 0.94291 0.38082 0.7154 0.0
H1488 H 0.78772 0.40497 0.8564 0.0
H1489 H 0.73943 0.38342 0.84306 0.0
H1490 H 0.89657 0.41053 0.86574 0.0
H1491 H 0.97193 0.41911 0.84506 0.0
C1492 C 0.34682 0.40017 0.51758 0.0
C1493 C 0.3101 0.40416 0.48869 0.0
C1494 C 0.40233 0.38471 0.45949 0.0
C1495 C 0.43496 0.37922 0.48883 0.0
N1496 N 0.42953 0.37804 0.5461 0.0
N1497 N 0.29641 0.3981 0.43257 0.0
C1498 C 0.40452 0.38589 0.51796 0.0
C1499 C 0.33603 0.39585 0.45967 0.0
N1500 N 0.3272 0.41037 0.54469 0.0
N1501 N 0.43574 0.37989 0.43159 0.0
H1502 H 0.24903 0.4067 0.43186 0.0
H1503 H 0.30814 0.39043 0.41145 0.0
H1504 H 0.48328 0.37139 0.4308 0.0
H1505 H 0.41884 0.38539 0.40953 0.0
H1506 H 0.35658 0.40975 0.56574 0.0
H1507 H 0.28548 0.42112 0.54534 0.0
H1508 H 0.40484 0.38067 0.56792 0.0
H1509 H 0.47063 0.36711 0.54734 0.0
C1510 C 0.88398 0.88097 0.46093 0.0
C1511 C 0.90997 0.87216 0.48964 0.0
C1512 C 0.81653 0.89005 0.51971 0.0
C1513 C 0.78815 0.8982 0.49092 0.0
N1514 N 0.78582 0.89831 0.43368 0.0
N1515 N 0.89169 0.86418 0.54494 0.0
C1516 C 0.81925 0.89278 0.46131 0.0
C1517 C 0.87275 0.8753 0.51852 0.0
N1518 N 0.9222 0.87844 0.43356 0.0
N1519 N 0.79184 0.89714 0.54831 0.0
H1520 H 0.93279 0.85321 0.54475 0.0
H1521 H 0.86234 0.86427 0.56599 0.0
H1522 H 0.75221 0.90847 0.5503 0.0
H1523 H 0.81534 0.89337 0.57003 0.0
H1524 H 0.91108 0.88637 0.41254 0.0
H1525 H 0.96715 0.86885 0.43244 0.0
H1526 H 0.80129 0.89275 0.41153 0.0
H1527 H 0.73922 0.90726 0.4332 0.0
C1528 C 0.57352 0.14718 0.2692 0.0
C1529 C 0.55193 0.1347 0.24308 0.0
C1530 C 0.65929 0.14576 0.21384 0.0
C1531 C 0.67632 0.15987 0.23869 0.0
N1532 N 0.64269 0.17649 0.28777 0.0
N1533 N 0.56941 0.12393 0.18884 0.0
C1534 C 0.63072 0.16149 0.26548 0.0
C1535 C 0.59349 0.13446 0.21486 0.0
N1536 N 0.54192 0.14447 0.29828 0.0
N1537 N 0.70703 0.14272 0.18972 0.0
H1538 H 0.523 0.11493 0.18917 0.0
H1539 H 0.593 0.12511 0.16647 0.0
H1540 H 0.75398 0.15136 0.18758 0.0
H1541 H 0.7022 0.1309 0.17305 0.0
H1542 H 0.56013 0.15159 0.31896 0.0
H1543 H 0.50264 0.13328 0.30257 0.0
H1544 H 0.60673 0.17977 0.30602 0.0
H1545 H 0.6851 0.18698 0.28644 0.0
C1546 C 0.07217 0.64347 0.27053 0.0
C1547 C 0.03773 0.63866 0.24136 0.0
C1548 C 0.12689 0.65947 0.21244 0.0
C1549 C 0.15918 0.66488 0.24181 0.0
N1550 N 0.15299 0.66631 0.29891 0.0
N1551 N 0.02286 0.64518 0.18535 0.0
C1552 C 0.12838 0.65827 0.27089 0.0
C1553 C 0.0623 0.64756 0.21246 0.0
N1554 N 0.05267 0.63334 0.2978 0.0
N1555 N 0.15912 0.66518 0.18464 0.0
H1556 H 0.97663 0.63606 0.18444 0.0
H1557 H 0.03302 0.65344 0.16455 0.0
H1558 H 0.20416 0.67478 0.1841 0.0
H1559 H 0.14312 0.65973 0.16245 0.0
H1560 H 0.08068 0.63458 0.31914 0.0
H1561 H 0.01238 0.62212 0.29849 0.0
H1562 H 0.12841 0.66367 0.32077 0.0
H1563 H 0.19387 0.67735 0.29989 0.0
C1564 C 0.64662 0.63655 0.51369 0.0
C1565 C 0.67632 0.62838 0.54217 0.0
C1566 C 0.57595 0.64321 0.57245 0.0
C1567 C 0.55065 0.65295 0.54428 0.0
N1568 N 0.56963 0.66227 0.4894 0.0
N1569 N 0.67525 0.62606 0.59932 0.0
C1570 C 0.58859 0.65067 0.51534 0.0
C1571 C 0.64258 0.63225 0.57183 0.0
N1572 N 0.67236 0.63019 0.48486 0.0
N1573 N 0.53553 0.64404 0.59948 0.0
H1574 H 0.72317 0.61771 0.59947 0.0
H1575 H 0.6574 0.63031 0.62183 0.0
H1576 H 0.4881 0.65257 0.60086 0.0
H1577 H 0.54674 0.63534 0.61977 0.0
H1578 H 0.64819 0.63397 0.46328 0.0
H1579 H 0.71342 0.61933 0.48254 0.0
H1580 H 0.59986 0.66287 0.4686 0.0
H1581 H 0.5276 0.67292 0.48974 0.0
C1582 C 0.08926 0.14929 0.57245 0.0
C1583 C 0.05401 0.15256 0.54292 0.0
C1584 C 0.13897 0.12913 0.51679 0.0
C1585 C 0.17881 0.12759 0.54537 0.0
N1586 N 0.19771 0.138 0.59964 0.0
N1587 N 0.05514 0.14931 0.48573 0.0
C1588 C 0.15558 0.13818 0.57307 0.0
C1589 C 0.08161 0.14346 0.51474 0.0
N1590 N 0.05839 0.1562 0.59987 0.0
N1591 N 0.15617 0.11686 0.49145 0.0
H1592 H 0.01519 0.16048 0.483 0.0
H1593 H 0.07798 0.14483 0.46423 0.0
H1594 H 0.19815 0.10619 0.492 0.0
H1595 H 0.12459 0.11578 0.47108 0.0
H1596 H 0.07754 0.15245 0.62243 0.0
H1597 H 0.01052 0.16456 0.60005 0.0
H1598 H 0.18814 0.14734 0.61935 0.0
H1599 H 0.24474 0.12929 0.60115 0.0
loop_
_geom_bond_atom_site_label_1
_geom_bond_atom_site_label_2
_geom_bond_distance
_geom_bond_site_symmetry_2
_ccdc_geom_bond_type
O0 Cd1 2.223 . S
O0 C8 1.315 . S
Cd1 O0 2.223 . S
Cd1 O4 2.297 . S
Cd1 O5 2.439 . S
Cd1 O11 2.240 . S
Cd2 O3 2.240 . S
Cd2 O10 2.223 . S
Cd2 O12 2.297 . S
Cd2 O13 2.439 . S
O3 Cd2 2.240 . S
O3 C8 1.279 . S
O4 Cd1 2.297 . S
O4 C6 1.247 . S
O5 Cd1 2.439 . S
O5 C6 1.208 . S
C6 O4 1.247 . S
C6 O5 1.208 . S
C7 O12 1.247 . S
C7 O13 1.208 . S
C8 O0 1.315 . S
C8 O3 1.279 . S
C9 O10 1.315 . S
C9 O11 1.279 . S
O10 Cd2 2.223 . S
O10 C9 1.315 . S
O11 Cd1 2.240 . S
O11 C9 1.279 . S
O12 Cd2 2.297 . S
O12 C7 1.247 . S
O13 Cd2 2.439 . S
O13 C7 1.208 . S
O14 Cd15 2.223 . S
O14 C22 1.315 . S
Cd15 O14 2.223 . S
Cd15 O18 2.297 . S
Cd15 O19 2.439 . S
Cd15 O25 2.240 . S
Cd16 O17 2.240 . S
Cd16 O24 2.223 . S
Cd16 O26 2.297 . S
Cd16 O27 2.439 . S
O17 Cd16 2.240 . S
O17 C22 1.279 . S
O18 Cd15 2.297 . S
O18 C20 1.247 . S
O19 Cd15 2.439 . S
O19 C20 1.208 . S
C20 O18 1.247 . S
C20 O19 1.208 . S
C21 O26 1.247 . S
C21 O27 1.208 . S
C22 O14 1.315 . S
C22 O17 1.279 . S
C23 O24 1.315 . S
C23 O25 1.279 . S
O24 Cd16 2.223 . S
O24 C23 1.315 . S
O25 Cd15 2.240 . S
O25 C23 1.279 . S
O26 Cd16 2.297 . S
O26 C21 1.247 . S
O27 Cd16 2.439 . S
O27 C21 1.208 . S
O28 Cd29 2.223 . S
O28 C36 1.315 . S
Cd29 O28 2.223 . S
Cd29 O32 2.297 . S
Cd29 O33 2.439 1_554 S
Cd29 O39 2.240 1_554 S
Cd30 O31 2.240 1_556 S
Cd30 O38 2.223 1_556 S
Cd30 O40 2.297 . S
Cd30 O41 2.439 . S
O31 Cd30 2.240 1_554 S
O31 C36 1.279 . S
O32 Cd29 2.297 . S
O32 C34 1.247 . S
O33 Cd29 2.439 1_556 S
O33 C34 1.208 1_556 S
C34 O32 1.247 . S
C34 O33 1.208 1_554 S
C35 O40 1.247 . S
C35 O41 1.208 . S
C36 O28 1.315 . S
C36 O31 1.279 . S
C37 O38 1.315 . S
C37 O39 1.279 1_554 S
O38 Cd30 2.223 1_554 S
O38 C37 1.315 . S
O39 Cd29 2.240 1_556 S
O39 C37 1.279 1_556 S
O40 Cd30 2.297 . S
O40 C35 1.247 . S
O41 Cd30 2.439 . S
O41 C35 1.208 . S
O42 Cd43 2.223 . S
O42 C50 1.315 . S
Cd43 O42 2.223 . S
Cd43 O46 2.297 . S
Cd43 O47 2.439 1_554 S
Cd43 O53 2.240 1_554 S
Cd44 O45 2.240 1_556 S
Cd44 O52 2.223 1_556 S
Cd44 O54 2.297 . S
Cd44 O55 2.439 . S
O45 Cd44 2.240 1_554 S
O45 C50 1.279 . S
O46 Cd43 2.297 . S
O46 C48 1.247 . S
O47 Cd43 2.439 1_556 S
O47 C48 1.208 1_556 S
C48 O46 1.247 . S
C48 O47 1.208 1_554 S
C49 O54 1.247 . S
C49 O55 1.208 . S
C50 O42 1.315 . S
C50 O45 1.279 . S
C51 O52 1.315 . S
C51 O53 1.279 1_554 S
O52 Cd44 2.223 1_554 S
O52 C51 1.315 . S
O53 Cd43 2.240 1_556 S
O53 C51 1.279 1_556 S
O54 Cd44 2.297 . S
O54 C49 1.247 . S
O55 Cd44 2.439 . S
O55 C49 1.208 . S
O56 Cd57 2.223 . S
O56 C64 1.315 . S
Cd57 O56 2.223 . S
Cd57 O60 2.297 . S
Cd57 O61 2.439 . S
Cd57 O67 2.240 . S
Cd58 O59 2.240 . S
Cd58 O66 2.223 . S
Cd58 O68 2.297 . S
Cd58 O69 2.439 . S
O59 Cd58 2.240 . S
O59 C64 1.279 . S
O60 Cd57 2.297 . S
O60 C62 1.247 . S
O61 Cd57 2.439 . S
O61 C62 1.208 . S
C62 O60 1.247 . S
C62 O61 1.208 . S
C63 O68 1.247 . S
C63 O69 1.208 . S
C64 O56 1.315 . S
C64 O59 1.279 . S
C65 O66 1.315 . S
C65 O67 1.279 . S
O66 Cd58 2.223 . S
O66 C65 1.315 . S
O67 Cd57 2.240 . S
O67 C65 1.279 . S
O68 Cd58 2.297 . S
O68 C63 1.247 . S
O69 Cd58 2.439 . S
O69 C63 1.208 . S
O70 Cd71 2.223 . S
O70 C78 1.315 . S
Cd71 O70 2.223 . S
Cd71 O74 2.297 . S
Cd71 O75 2.439 . S
Cd71 O81 2.240 . S
Cd72 O73 2.240 . S
Cd72 O80 2.223 . S
Cd72 O82 2.297 . S
Cd72 O83 2.439 . S
O73 Cd72 2.240 . S
O73 C78 1.279 . S
O74 Cd71 2.297 . S
O74 C76 1.247 . S
O75 Cd71 2.439 . S
O75 C76 1.208 . S
C76 O74 1.247 . S
C76 O75 1.208 . S
C77 O82 1.247 . S
C77 O83 1.208 . S
C78 O70 1.315 . S
C78 O73 1.279 . S
C79 O80 1.315 . S
C79 O81 1.279 . S
O80 Cd72 2.223 . S
O80 C79 1.315 . S
O81 Cd71 2.240 . S
O81 C79 1.279 . S
O82 Cd72 2.297 . S
O82 C77 1.247 . S
O83 Cd72 2.439 . S
O83 C77 1.208 . S
O84 Cd85 2.223 . S
O84 C92 1.315 . S
Cd85 O84 2.223 . S
Cd85 O88 2.297 . S
Cd85 O89 2.439 1_556 S
Cd85 O95 2.240 1_556 S
Cd86 O87 2.240 1_554 S
Cd86 O94 2.223 1_554 S
Cd86 O96 2.297 . S
Cd86 O97 2.439 . S
O87 Cd86 2.240 1_556 S
O87 C92 1.279 . S
O88 Cd85 2.297 . S
O88 C90 1.247 . S
O89 Cd85 2.439 1_554 S
O89 C90 1.208 1_554 S
C90 O88 1.247 . S
C90 O89 1.208 1_556 S
C91 O96 1.247 . S
C91 O97 1.208 . S
C92 O84 1.315 . S
C92 O87 1.279 . S
C93 O94 1.315 . S
C93 O95 1.279 1_556 S
O94 Cd86 2.223 1_556 S
O94 C93 1.315 . S
O95 Cd85 2.240 1_554 S
O95 C93 1.279 1_554 S
O96 Cd86 2.297 . S
O96 C91 1.247 . S
O97 Cd86 2.439 . S
O97 C91 1.208 . S
O98 Cd99 2.223 . S
O98 C106 1.315 . S
Cd99 O98 2.223 . S
Cd99 O102 2.297 . S
Cd99 O103 2.439 1_556 S
Cd99 O109 2.240 1_556 S
Cd100 O101 2.240 1_554 S
Cd100 O108 2.223 1_554 S
Cd100 O110 2.297 . S
Cd100 O111 2.439 . S
O101 Cd100 2.240 1_556 S
O101 C106 1.279 . S
O102 Cd99 2.297 . S
O102 C104 1.247 . S
O103 Cd99 2.439 1_554 S
O103 C104 1.208 1_554 S
C104 O102 1.247 . S
C104 O103 1.208 1_556 S
C105 O110 1.247 . S
C105 O111 1.208 . S
C106 O98 1.315 . S
C106 O101 1.279 . S
C107 O108 1.315 . S
C107 O109 1.279 1_556 S
O108 Cd100 2.223 1_556 S
O108 C107 1.315 . S
O109 Cd99 2.240 1_554 S
O109 C107 1.279 1_554 S
O110 Cd100 2.297 . S
O110 C105 1.247 . S
O111 Cd100 2.439 . S
O111 C105 1.208 . S
O112 Cd113 2.223 . S
O112 C120 1.315 . S
Cd113 O112 2.223 . S
Cd113 O116 2.297 . S
Cd113 O117 2.439 . S
Cd113 O123 2.240 . S
Cd114 O115 2.240 . S
Cd114 O122 2.223 . S
Cd114 O124 2.297 . S
Cd114 O125 2.439 . S
O115 Cd114 2.240 . S
O115 C120 1.279 . S
O116 Cd113 2.297 . S
O116 C118 1.247 . S
O117 Cd113 2.439 . S
O117 C118 1.208 . S
C118 O116 1.247 . S
C118 O117 1.208 . S
C119 O124 1.247 . S
C119 O125 1.208 . S
C120 O112 1.315 . S
C120 O115 1.279 . S
C121 O122 1.315 . S
C121 O123 1.279 . S
O122 Cd114 2.223 . S
O122 C121 1.315 . S
O123 Cd113 2.240 . S
O123 C121 1.279 . S
O124 Cd114 2.297 . S
O124 C119 1.247 . S
O125 Cd114 2.439 . S
O125 C119 1.208 . S
O126 Cd127 2.223 . S
O126 C134 1.315 . S
Cd127 O126 2.223 . S
Cd127 O130 2.297 . S
Cd127 O131 2.439 . S
Cd127 O137 2.240 . S
Cd128 O129 2.240 . S
Cd128 O136 2.223 . S
Cd128 O138 2.297 . S
Cd128 O139 2.439 . S
O129 Cd128 2.240 . S
O129 C134 1.279 . S
O130 Cd127 2.297 . S
O130 C132 1.247 . S
O131 Cd127 2.439 . S
O131 C132 1.208 . S
C132 O130 1.247 . S
C132 O131 1.208 . S
C133 O138 1.247 . S
C133 O139 1.208 . S
C134 O126 1.315 . S
C134 O129 1.279 . S
C135 O136 1.315 . S
C135 O137 1.279 . S
O136 Cd128 2.223 . S
O136 C135 1.315 . S
O137 Cd127 2.240 . S
O137 C135 1.279 . S
O138 Cd128 2.297 . S
O138 C133 1.247 . S
O139 Cd128 2.439 . S
O139 C133 1.208 . S
O140 Cd141 2.223 . S
O140 C148 1.315 . S
Cd141 O140 2.223 . S
Cd141 O144 2.297 . S
Cd141 O145 2.439 . S
Cd141 O151 2.240 . S
Cd142 O143 2.240 . S
Cd142 O150 2.223 . S
Cd142 O152 2.297 . S
Cd142 O153 2.439 . S
O143 Cd142 2.240 . S
O143 C148 1.279 . S
O144 Cd141 2.297 . S
O144 C146 1.247 . S
O145 Cd141 2.439 . S
O145 C146 1.208 . S
C146 O144 1.247 . S
C146 O145 1.208 . S
C147 O152 1.247 . S
C147 O153 1.208 . S
C148 O140 1.315 . S
C148 O143 1.279 . S
C149 O150 1.315 . S
C149 O151 1.279 . S
O150 Cd142 2.223 . S
O150 C149 1.315 . S
O151 Cd141 2.240 . S
O151 C149 1.279 . S
O152 Cd142 2.297 . S
O152 C147 1.247 . S
O153 Cd142 2.439 . S
O153 C147 1.208 . S
O154 Cd155 2.223 . S
O154 C162 1.315 . S
Cd155 O154 2.223 . S
Cd155 O158 2.297 . S
Cd155 O159 2.439 . S
Cd155 O165 2.240 . S
Cd156 O157 2.240 . S
Cd156 O164 2.223 . S
Cd156 O166 2.297 . S
Cd156 O167 2.439 . S
O157 Cd156 2.240 . S
O157 C162 1.279 . S
O158 Cd155 2.297 . S
O158 C160 1.247 . S
O159 Cd155 2.439 . S
O159 C160 1.208 . S
C160 O158 1.247 . S
C160 O159 1.208 . S
C161 O166 1.247 . S
C161 O167 1.208 . S
C162 O154 1.315 . S
C162 O157 1.279 . S
C163 O164 1.315 . S
C163 O165 1.279 . S
O164 Cd156 2.223 . S
O164 C163 1.315 . S
O165 Cd155 2.240 . S
O165 C163 1.279 . S
O166 Cd156 2.297 . S
O166 C161 1.247 . S
O167 Cd156 2.439 . S
O167 C161 1.208 . S
O168 Cd169 2.223 . S
O168 C176 1.315 . S
Cd169 O168 2.223 . S
Cd169 O172 2.297 . S
Cd169 O173 2.439 . S
Cd169 O179 2.240 . S
Cd170 O171 2.240 . S
Cd170 O178 2.223 . S
Cd170 O180 2.297 . S
Cd170 O181 2.439 . S
O171 Cd170 2.240 . S
O171 C176 1.279 . S
O172 Cd169 2.297 . S
O172 C174 1.247 . S
O173 Cd169 2.439 . S
O173 C174 1.208 . S
C174 O172 1.247 . S
C174 O173 1.208 . S
C175 O180 1.247 . S
C175 O181 1.208 . S
C176 O168 1.315 . S
C176 O171 1.279 . S
C177 O178 1.315 . S
C177 O179 1.279 . S
O178 Cd170 2.223 . S
O178 C177 1.315 . S
O179 Cd169 2.240 . S
O179 C177 1.279 . S
O180 Cd170 2.297 . S
O180 C175 1.247 . S
O181 Cd170 2.439 . S
O181 C175 1.208 . S
O182 Cd183 2.223 . S
O182 C190 1.315 . S
Cd183 O182 2.223 . S
Cd183 O186 2.297 . S
Cd183 O187 2.439 . S
Cd183 O193 2.240 . S
Cd184 O185 2.240 . S
Cd184 O192 2.223 . S
Cd184 O194 2.297 . S
Cd184 O195 2.439 . S
O185 Cd184 2.240 . S
O185 C190 1.279 . S
O186 Cd183 2.297 . S
O186 C188 1.247 . S
O187 Cd183 2.439 . S
O187 C188 1.208 . S
C188 O186 1.247 . S
C188 O187 1.208 . S
C189 O194 1.247 . S
C189 O195 1.208 . S
C190 O182 1.315 . S
C190 O185 1.279 . S
C191 O192 1.315 . S
C191 O193 1.279 . S
O192 Cd184 2.223 . S
O192 C191 1.315 . S
O193 Cd183 2.240 . S
O193 C191 1.279 . S
O194 Cd184 2.297 . S
O194 C189 1.247 . S
O195 Cd184 2.439 . S
O195 C189 1.208 . S
O196 Cd197 2.223 . S
O196 C204 1.315 . S
Cd197 O196 2.223 . S
Cd197 O200 2.297 . S
Cd197 O201 2.439 . S
Cd197 O207 2.240 . S
Cd198 O199 2.240 . S
Cd198 O206 2.223 . S
Cd198 O208 2.297 . S
Cd198 O209 2.439 . S
O199 Cd198 2.240 . S
O199 C204 1.279 . S
O200 Cd197 2.297 . S
O200 C202 1.247 . S
O201 Cd197 2.439 . S
O201 C202 1.208 . S
C202 O200 1.247 . S
C202 O201 1.208 . S
C203 O208 1.247 . S
C203 O209 1.208 . S
C204 O196 1.315 . S
C204 O199 1.279 . S
C205 O206 1.315 . S
C205 O207 1.279 . S
O206 Cd198 2.223 . S
O206 C205 1.315 . S
O207 Cd197 2.240 . S
O207 C205 1.279 . S
O208 Cd198 2.297 . S
O208 C203 1.247 . S
O209 Cd198 2.439 . S
O209 C203 1.208 . S
O210 Cd211 2.223 . S
O210 C218 1.315 . S
Cd211 O210 2.223 . S
Cd211 O214 2.297 . S
Cd211 O215 2.439 . S
Cd211 O221 2.240 . S
Cd212 O213 2.240 . S
Cd212 O220 2.223 . S
Cd212 O222 2.297 . S
Cd212 O223 2.439 . S
O213 Cd212 2.240 . S
O213 C218 1.279 . S
O214 Cd211 2.297 . S
O214 C216 1.247 . S
O215 Cd211 2.439 . S
O215 C216 1.208 . S
C216 O214 1.247 . S
C216 O215 1.208 . S
C217 O222 1.247 . S
C217 O223 1.208 . S
C218 O210 1.315 . S
C218 O213 1.279 . S
C219 O220 1.315 . S
C219 O221 1.279 . S
O220 Cd212 2.223 . S
O220 C219 1.315 . S
O221 Cd211 2.240 . S
O221 C219 1.279 . S
O222 Cd212 2.297 . S
O222 C217 1.247 . S
O223 Cd212 2.439 . S
O223 C217 1.208 . S
O224 Cd225 2.223 . S
O224 C232 1.315 . S
Cd225 O224 2.223 . S
Cd225 O228 2.297 . S
Cd225 O229 2.439 . S
Cd225 O235 2.240 . S
Cd226 O227 2.240 . S
Cd226 O234 2.223 . S
Cd226 O236 2.297 . S
Cd226 O237 2.439 . S
O227 Cd226 2.240 . S
O227 C232 1.279 . S
O228 Cd225 2.297 . S
O228 C230 1.247 . S
O229 Cd225 2.439 . S
O229 C230 1.208 . S
C230 O228 1.247 . S
C230 O229 1.208 . S
C231 O236 1.247 . S
C231 O237 1.208 . S
C232 O224 1.315 . S
C232 O227 1.279 . S
C233 O234 1.315 . S
C233 O235 1.279 . S
O234 Cd226 2.223 . S
O234 C233 1.315 . S
O235 Cd225 2.240 . S
O235 C233 1.279 . S
O236 Cd226 2.297 . S
O236 C231 1.247 . S
O237 Cd226 2.439 . S
O237 C231 1.208 . S
O238 Cd239 2.223 . S
O238 C246 1.315 . S
Cd239 O238 2.223 . S
Cd239 O242 2.297 . S
Cd239 O243 2.439 . S
Cd239 O249 2.240 . S
Cd240 O241 2.240 . S
Cd240 O248 2.223 . S
Cd240 O250 2.297 . S
Cd240 O251 2.439 . S
O241 Cd240 2.240 . S
O241 C246 1.279 . S
O242 Cd239 2.297 . S
O242 C244 1.247 . S
O243 Cd239 2.439 . S
O243 C244 1.208 . S
C244 O242 1.247 . S
C244 O243 1.208 . S
C245 O250 1.247 . S
C245 O251 1.208 . S
C246 O238 1.315 . S
C246 O241 1.279 . S
C247 O248 1.315 . S
C247 O249 1.279 . S
O248 Cd240 2.223 . S
O248 C247 1.315 . S
O249 Cd239 2.240 . S
O249 C247 1.279 . S
O250 Cd240 2.297 . S
O250 C245 1.247 . S
O251 Cd240 2.439 . S
O251 C245 1.208 . S
O252 Cd253 2.223 . S
O252 C260 1.315 . S
Cd253 O252 2.223 . S
Cd253 O256 2.297 . S
Cd253 O257 2.439 . S
Cd253 O263 2.240 . S
Cd254 O255 2.240 . S
Cd254 O262 2.223 . S
Cd254 O264 2.297 . S
Cd254 O265 2.439 . S
O255 Cd254 2.240 . S
O255 C260 1.279 . S
O256 Cd253 2.297 . S
O256 C258 1.247 . S
O257 Cd253 2.439 . S
O257 C258 1.208 . S
C258 O256 1.247 . S
C258 O257 1.208 . S
C259 O264 1.247 . S
C259 O265 1.208 . S
C260 O252 1.315 . S
C260 O255 1.279 . S
C261 O262 1.315 . S
C261 O263 1.279 . S
O262 Cd254 2.223 . S
O262 C261 1.315 . S
O263 Cd253 2.240 . S
O263 C261 1.279 . S
O264 Cd254 2.297 . S
O264 C259 1.247 . S
O265 Cd254 2.439 . S
O265 C259 1.208 . S
O266 Cd267 2.223 . S
O266 C274 1.315 . S
Cd267 O266 2.223 . S
Cd267 O270 2.297 . S
Cd267 O271 2.439 . S
Cd267 O277 2.240 . S
Cd268 O269 2.240 . S
Cd268 O276 2.223 . S
Cd268 O278 2.297 . S
Cd268 O279 2.439 . S
O269 Cd268 2.240 . S
O269 C274 1.279 . S
O270 Cd267 2.297 . S
O270 C272 1.247 . S
O271 Cd267 2.439 . S
O271 C272 1.208 . S
C272 O270 1.247 . S
C272 O271 1.208 . S
C273 O278 1.247 . S
C273 O279 1.208 . S
C274 O266 1.315 . S
C274 O269 1.279 . S
C275 O276 1.315 . S
C275 O277 1.279 . S
O276 Cd268 2.223 . S
O276 C275 1.315 . S
O277 Cd267 2.240 . S
O277 C275 1.279 . S
O278 Cd268 2.297 . S
O278 C273 1.247 . S
O279 Cd268 2.439 . S
O279 C273 1.208 . S
O280 Cd281 2.223 . S
O280 C288 1.315 . S
Cd281 O280 2.223 . S
Cd281 O284 2.297 . S
Cd281 O285 2.439 . S
Cd281 O291 2.240 . S
Cd282 O283 2.240 . S
Cd282 O290 2.223 . S
Cd282 O292 2.297 . S
Cd282 O293 2.439 . S
O283 Cd282 2.240 . S
O283 C288 1.279 . S
O284 Cd281 2.297 . S
O284 C286 1.247 . S
O285 Cd281 2.439 . S
O285 C286 1.208 . S
C286 O284 1.247 . S
C286 O285 1.208 . S
C287 O292 1.247 . S
C287 O293 1.208 . S
C288 O280 1.315 . S
C288 O283 1.279 . S
C289 O290 1.315 . S
C289 O291 1.279 . S
O290 Cd282 2.223 . S
O290 C289 1.315 . S
O291 Cd281 2.240 . S
O291 C289 1.279 . S
O292 Cd282 2.297 . S
O292 C287 1.247 . S
O293 Cd282 2.439 . S
O293 C287 1.208 . S
O294 Cd295 2.223 . S
O294 C302 1.315 . S
Cd295 O294 2.223 . S
Cd295 O298 2.297 . S
Cd295 O299 2.439 . S
Cd295 O305 2.240 . S
Cd296 O297 2.240 . S
Cd296 O304 2.223 . S
Cd296 O306 2.297 . S
Cd296 O307 2.439 . S
O297 Cd296 2.240 . S
O297 C302 1.279 . S
O298 Cd295 2.297 . S
O298 C300 1.247 . S
O299 Cd295 2.439 . S
O299 C300 1.208 . S
C300 O298 1.247 . S
C300 O299 1.208 . S
C301 O306 1.247 . S
C301 O307 1.208 . S
C302 O294 1.315 . S
C302 O297 1.279 . S
C303 O304 1.315 . S
C303 O305 1.279 . S
O304 Cd296 2.223 . S
O304 C303 1.315 . S
O305 Cd295 2.240 . S
O305 C303 1.279 . S
O306 Cd296 2.297 . S
O306 C301 1.247 . S
O307 Cd296 2.439 . S
O307 C301 1.208 . S
O308 Cd309 2.223 . S
O308 C316 1.315 . S
Cd309 O308 2.223 . S
Cd309 O312 2.297 . S
Cd309 O313 2.439 . S
Cd309 O319 2.240 . S
Cd310 O311 2.240 . S
Cd310 O318 2.223 . S
Cd310 O320 2.297 . S
Cd310 O321 2.439 . S
O311 Cd310 2.240 . S
O311 C316 1.279 . S
O312 Cd309 2.297 . S
O312 C314 1.247 . S
O313 Cd309 2.439 . S
O313 C314 1.208 . S
C314 O312 1.247 . S
C314 O313 1.208 . S
C315 O320 1.247 . S
C315 O321 1.208 . S
C316 O308 1.315 . S
C316 O311 1.279 . S
C317 O318 1.315 . S
C317 O319 1.279 . S
O318 Cd310 2.223 . S
O318 C317 1.315 . S
O319 Cd309 2.240 . S
O319 C317 1.279 . S
O320 Cd310 2.297 . S
O320 C315 1.247 . S
O321 Cd310 2.439 . S
O321 C315 1.208 . S
O322 Cd323 2.223 . S
O322 C330 1.315 . S
Cd323 O322 2.223 . S
Cd323 O326 2.297 . S
Cd323 O327 2.439 . S
Cd323 O333 2.240 . S
Cd324 O325 2.240 . S
Cd324 O332 2.223 . S
Cd324 O334 2.297 . S
Cd324 O335 2.439 . S
O325 Cd324 2.240 . S
O325 C330 1.279 . S
O326 Cd323 2.297 . S
O326 C328 1.247 . S
O327 Cd323 2.439 . S
O327 C328 1.208 . S
C328 O326 1.247 . S
C328 O327 1.208 . S
C329 O334 1.247 . S
C329 O335 1.208 . S
C330 O322 1.315 . S
C330 O325 1.279 . S
C331 O332 1.315 . S
C331 O333 1.279 . S
O332 Cd324 2.223 . S
O332 C331 1.315 . S
O333 Cd323 2.240 . S
O333 C331 1.279 . S
O334 Cd324 2.297 . S
O334 C329 1.247 . S
O335 Cd324 2.439 . S
O335 C329 1.208 . S
O336 Cd337 2.223 . S
O336 C344 1.315 . S
Cd337 O336 2.223 . S
Cd337 O340 2.297 . S
Cd337 O341 2.439 . S
Cd337 O347 2.240 . S
Cd338 O339 2.240 . S
Cd338 O346 2.223 . S
Cd338 O348 2.297 . S
Cd338 O349 2.439 . S
O339 Cd338 2.240 . S
O339 C344 1.279 . S
O340 Cd337 2.297 . S
O340 C342 1.247 . S
O341 Cd337 2.439 . S
O341 C342 1.208 . S
C342 O340 1.247 . S
C342 O341 1.208 . S
C343 O348 1.247 . S
C343 O349 1.208 . S
C344 O336 1.315 . S
C344 O339 1.279 . S
C345 O346 1.315 . S
C345 O347 1.279 . S
O346 Cd338 2.223 . S
O346 C345 1.315 . S
O347 Cd337 2.240 . S
O347 C345 1.279 . S
O348 Cd338 2.297 . S
O348 C343 1.247 . S
O349 Cd338 2.439 . S
O349 C343 1.208 . S
O350 Cd351 2.223 . S
O350 C358 1.315 . S
Cd351 O350 2.223 . S
Cd351 O354 2.297 . S
Cd351 O355 2.439 . S
Cd351 O361 2.240 . S
Cd352 O353 2.240 . S
Cd352 O360 2.223 . S
Cd352 O362 2.297 . S
Cd352 O363 2.439 . S
O353 Cd352 2.240 . S
O353 C358 1.279 . S
O354 Cd351 2.297 . S
O354 C356 1.247 . S
O355 Cd351 2.439 . S
O355 C356 1.208 . S
C356 O354 1.247 . S
C356 O355 1.208 . S
C357 O362 1.247 . S
C357 O363 1.208 . S
C358 O350 1.315 . S
C358 O353 1.279 . S
C359 O360 1.315 . S
C359 O361 1.279 . S
O360 Cd352 2.223 . S
O360 C359 1.315 . S
O361 Cd351 2.240 . S
O361 C359 1.279 . S
O362 Cd352 2.297 . S
O362 C357 1.247 . S
O363 Cd352 2.439 . S
O363 C357 1.208 . S
O364 Cd365 2.223 . S
O364 C372 1.315 . S
Cd365 O364 2.223 . S
Cd365 O368 2.297 . S
Cd365 O369 2.439 1_554 S
Cd365 O375 2.240 1_554 S
Cd366 O367 2.240 1_556 S
Cd366 O374 2.223 1_556 S
Cd366 O376 2.297 . S
Cd366 O377 2.439 . S
O367 Cd366 2.240 1_554 S
O367 C372 1.279 . S
O368 Cd365 2.297 . S
O368 C370 1.247 . S
O369 Cd365 2.439 1_556 S
O369 C370 1.208 1_556 S
C370 O368 1.247 . S
C370 O369 1.208 1_554 S
C371 O376 1.247 . S
C371 O377 1.208 . S
C372 O364 1.315 . S
C372 O367 1.279 . S
C373 O374 1.315 . S
C373 O375 1.279 1_554 S
O374 Cd366 2.223 1_554 S
O374 C373 1.315 . S
O375 Cd365 2.240 1_556 S
O375 C373 1.279 1_556 S
O376 Cd366 2.297 . S
O376 C371 1.247 . S
O377 Cd366 2.439 . S
O377 C371 1.208 . S
O378 Cd379 2.223 . S
O378 C386 1.315 . S
Cd379 O378 2.223 . S
Cd379 O382 2.297 . S
Cd379 O383 2.439 1_554 S
Cd379 O389 2.240 1_554 S
Cd380 O381 2.240 1_556 S
Cd380 O388 2.223 1_556 S
Cd380 O390 2.297 . S
Cd380 O391 2.439 . S
O381 Cd380 2.240 1_554 S
O381 C386 1.279 . S
O382 Cd379 2.297 . S
O382 C384 1.247 . S
O383 Cd379 2.439 1_556 S
O383 C384 1.208 1_556 S
C384 O382 1.247 . S
C384 O383 1.208 1_554 S
C385 O390 1.247 . S
C385 O391 1.208 . S
C386 O378 1.315 . S
C386 O381 1.279 . S
C387 O388 1.315 . S
C387 O389 1.279 1_554 S
O388 Cd380 2.223 1_554 S
O388 C387 1.315 . S
O389 Cd379 2.240 1_556 S
O389 C387 1.279 1_556 S
O390 Cd380 2.297 . S
O390 C385 1.247 . S
O391 Cd380 2.439 . S
O391 C385 1.208 . S
O392 Cd393 2.223 . S
O392 C400 1.315 . S
Cd393 O392 2.223 . S
Cd393 O396 2.297 . S
Cd393 O397 2.439 . S
Cd393 O403 2.240 . S
Cd394 O395 2.240 . S
Cd394 O402 2.223 . S
Cd394 O404 2.297 . S
Cd394 O405 2.439 . S
O395 Cd394 2.240 . S
O395 C400 1.279 . S
O396 Cd393 2.297 . S
O396 C398 1.247 . S
O397 Cd393 2.439 . S
O397 C398 1.208 . S
C398 O396 1.247 . S
C398 O397 1.208 . S
C399 O404 1.247 . S
C399 O405 1.208 . S
C400 O392 1.315 . S
C400 O395 1.279 . S
C401 O402 1.315 . S
C401 O403 1.279 . S
O402 Cd394 2.223 . S
O402 C401 1.315 . S
O403 Cd393 2.240 . S
O403 C401 1.279 . S
O404 Cd394 2.297 . S
O404 C399 1.247 . S
O405 Cd394 2.439 . S
O405 C399 1.208 . S
O406 Cd407 2.223 . S
O406 C414 1.315 . S
Cd407 O406 2.223 . S
Cd407 O410 2.297 . S
Cd407 O411 2.439 . S
Cd407 O417 2.240 . S
Cd408 O409 2.240 . S
Cd408 O416 2.223 . S
Cd408 O418 2.297 . S
Cd408 O419 2.439 . S
O409 Cd408 2.240 . S
O409 C414 1.279 . S
O410 Cd407 2.297 . S
O410 C412 1.247 . S
O411 Cd407 2.439 . S
O411 C412 1.208 . S
C412 O410 1.247 . S
C412 O411 1.208 . S
C413 O418 1.247 . S
C413 O419 1.208 . S
C414 O406 1.315 . S
C414 O409 1.279 . S
C415 O416 1.315 . S
C415 O417 1.279 . S
O416 Cd408 2.223 . S
O416 C415 1.315 . S
O417 Cd407 2.240 . S
O417 C415 1.279 . S
O418 Cd408 2.297 . S
O418 C413 1.247 . S
O419 Cd408 2.439 . S
O419 C413 1.208 . S
O420 Cd421 2.223 . S
O420 C428 1.315 . S
Cd421 O420 2.223 . S
Cd421 O424 2.297 . S
Cd421 O425 2.439 1_556 S
Cd421 O431 2.240 1_556 S
Cd422 O423 2.240 1_554 S
Cd422 O430 2.223 1_554 S
Cd422 O432 2.297 . S
Cd422 O433 2.439 . S
O423 Cd422 2.240 1_556 S
O423 C428 1.279 . S
O424 Cd421 2.297 . S
O424 C426 1.247 . S
O425 Cd421 2.439 1_554 S
O425 C426 1.208 1_554 S
C426 O424 1.247 . S
C426 O425 1.208 1_556 S
C427 O432 1.247 . S
C427 O433 1.208 . S
C428 O420 1.315 . S
C428 O423 1.279 . S
C429 O430 1.315 . S
C429 O431 1.279 1_556 S
O430 Cd422 2.223 1_556 S
O430 C429 1.315 . S
O431 Cd421 2.240 1_554 S
O431 C429 1.279 1_554 S
O432 Cd422 2.297 . S
O432 C427 1.247 . S
O433 Cd422 2.439 . S
O433 C427 1.208 . S
O434 Cd435 2.223 . S
O434 C442 1.315 . S
Cd435 O434 2.223 . S
Cd435 O438 2.297 . S
Cd435 O439 2.439 1_556 S
Cd435 O445 2.240 1_556 S
Cd436 O437 2.240 1_554 S
Cd436 O444 2.223 1_554 S
Cd436 O446 2.297 . S
Cd436 O447 2.439 . S
O437 Cd436 2.240 1_556 S
O437 C442 1.279 . S
O438 Cd435 2.297 . S
O438 C440 1.247 . S
O439 Cd435 2.439 1_554 S
O439 C440 1.208 1_554 S
C440 O438 1.247 . S
C440 O439 1.208 1_556 S
C441 O446 1.247 . S
C441 O447 1.208 . S
C442 O434 1.315 . S
C442 O437 1.279 . S
C443 O444 1.315 . S
C443 O445 1.279 1_556 S
O444 Cd436 2.223 1_556 S
O444 C443 1.315 . S
O445 Cd435 2.240 1_554 S
O445 C443 1.279 1_554 S
O446 Cd436 2.297 . S
O446 C441 1.247 . S
O447 Cd436 2.439 . S
O447 C441 1.208 . S
C448 C449 1.363 . S
C448 C454 1.379 . S
C448 N456 1.356 . S
C449 C448 1.363 . S
C449 C455 1.363 . S
C450 C451 1.363 . S
C450 C455 1.379 . S
C450 N457 1.356 . S
C451 C450 1.363 . S
C451 C454 1.363 . S
N452 C454 1.356 . S
N452 H464 0.984 . S
N452 H465 0.985 . S
N453 C455 1.356 . S
N453 H458 0.984 . S
N453 H459 0.985 . S
C454 C448 1.379 . S
C454 C451 1.363 . S
C454 N452 1.356 . S
C455 C449 1.363 . S
C455 C450 1.379 . S
C455 N453 1.356 . S
N456 C448 1.356 . S
N456 H462 0.984 . S
N456 H463 0.984 . S
N457 C450 1.356 . S
N457 H460 0.984 . S
N457 H461 0.985 . S
H458 N453 0.984 . S
H459 N453 0.985 . S
H460 N457 0.984 . S
H461 N457 0.985 . S
H462 N456 0.984 . S
H463 N456 0.984 . S
H464 N452 0.984 . S
H465 N452 0.985 . S
C466 C467 1.363 . S
C466 C472 1.379 . S
C466 N474 1.356 . S
C467 C466 1.363 . S
C467 C473 1.363 . S
C468 C469 1.363 . S
C468 C473 1.379 . S
C468 N475 1.356 . S
C469 C468 1.363 . S
C469 C472 1.363 . S
N470 C472 1.356 . S
N470 H482 0.984 . S
N470 H483 0.985 . S
N471 C473 1.356 . S
N471 H476 0.984 . S
N471 H477 0.985 . S
C472 C466 1.379 . S
C472 C469 1.363 . S
C472 N470 1.356 . S
C473 C467 1.363 . S
C473 C468 1.379 . S
C473 N471 1.356 . S
N474 C466 1.356 . S
N474 H480 0.984 . S
N474 H481 0.984 . S
N475 C468 1.356 . S
N475 H478 0.984 . S
N475 H479 0.985 . S
H476 N471 0.984 . S
H477 N471 0.985 . S
H478 N475 0.984 . S
H479 N475 0.985 . S
H480 N474 0.984 . S
H481 N474 0.984 . S
H482 N470 0.984 . S
H483 N470 0.985 . S
C484 C485 1.363 . S
C484 C490 1.379 . S
C484 N492 1.356 . S
C485 C484 1.363 . S
C485 C491 1.363 . S
C486 C487 1.363 . S
C486 C491 1.379 . S
C486 N493 1.356 . S
C487 C486 1.363 . S
C487 C490 1.363 . S
N488 C490 1.356 . S
N488 H500 0.984 . S
N488 H501 0.985 . S
N489 C491 1.356 . S
N489 H494 0.984 . S
N489 H495 0.985 . S
C490 C484 1.379 . S
C490 C487 1.363 . S
C490 N488 1.356 . S
C491 C485 1.363 . S
C491 C486 1.379 . S
C491 N489 1.356 . S
N492 C484 1.356 . S
N492 H498 0.984 . S
N492 H499 0.984 . S
N493 C486 1.356 . S
N493 H496 0.984 . S
N493 H497 0.985 . S
H494 N489 0.984 . S
H495 N489 0.985 . S
H496 N493 0.984 . S
H497 N493 0.985 . S
H498 N492 0.984 . S
H499 N492 0.984 . S
H500 N488 0.984 . S
H501 N488 0.985 . S
C502 C503 1.363 . S
C502 C508 1.379 . S
C502 N510 1.356 . S
C503 C502 1.363 . S
C503 C509 1.363 . S
C504 C505 1.363 . S
C504 C509 1.379 . S
C504 N511 1.356 . S
C505 C504 1.363 . S
C505 C508 1.363 . S
N506 C508 1.356 . S
N506 H518 0.984 . S
N506 H519 0.985 . S
N507 C509 1.356 . S
N507 H512 0.984 . S
N507 H513 0.985 . S
C508 C502 1.379 . S
C508 C505 1.363 . S
C508 N506 1.356 . S
C509 C503 1.363 . S
C509 C504 1.379 . S
C509 N507 1.356 . S
N510 C502 1.356 . S
N510 H516 0.984 . S
N510 H517 0.984 . S
N511 C504 1.356 . S
N511 H514 0.984 . S
N511 H515 0.985 . S
H512 N507 0.984 . S
H513 N507 0.985 . S
H514 N511 0.984 . S
H515 N511 0.985 . S
H516 N510 0.984 . S
H517 N510 0.984 . S
H518 N506 0.984 . S
H519 N506 0.985 . S
C520 C521 1.363 . S
C520 C526 1.379 . S
C520 N528 1.356 . S
C521 C520 1.363 . S
C521 C527 1.363 . S
C522 C523 1.363 . S
C522 C527 1.379 . S
C522 N529 1.356 . S
C523 C522 1.363 . S
C523 C526 1.363 . S
N524 C526 1.356 . S
N524 H536 0.984 . S
N524 H537 0.985 . S
N525 C527 1.356 . S
N525 H530 0.984 . S
N525 H531 0.985 . S
C526 C520 1.379 . S
C526 C523 1.363 . S
C526 N524 1.356 . S
C527 C521 1.363 . S
C527 C522 1.379 . S
C527 N525 1.356 . S
N528 C520 1.356 . S
N528 H534 0.984 . S
N528 H535 0.984 . S
N529 C522 1.356 . S
N529 H532 0.984 . S
N529 H533 0.985 . S
H530 N525 0.984 . S
H531 N525 0.985 . S
H532 N529 0.984 . S
H533 N529 0.985 . S
H534 N528 0.984 . S
H535 N528 0.984 . S
H536 N524 0.984 . S
H537 N524 0.985 . S
C538 C539 1.363 . S
C538 C544 1.379 . S
C538 N546 1.356 . S
C539 C538 1.363 . S
C539 C545 1.363 . S
C540 C541 1.363 . S
C540 C545 1.379 . S
C540 N547 1.356 . S
C541 C540 1.363 . S
C541 C544 1.363 . S
N542 C544 1.356 . S
N542 H554 0.984 . S
N542 H555 0.985 . S
N543 C545 1.356 . S
N543 H548 0.984 . S
N543 H549 0.985 . S
C544 C538 1.379 . S
C544 C541 1.363 . S
C544 N542 1.356 . S
C545 C539 1.363 . S
C545 C540 1.379 . S
C545 N543 1.356 . S
N546 C538 1.356 . S
N546 H552 0.984 . S
N546 H553 0.984 . S
N547 C540 1.356 . S
N547 H550 0.984 . S
N547 H551 0.985 . S
H548 N543 0.984 . S
H549 N543 0.985 . S
H550 N547 0.984 . S
H551 N547 0.985 . S
H552 N546 0.984 . S
H553 N546 0.984 . S
H554 N542 0.984 . S
H555 N542 0.985 . S
C556 C557 1.363 . S
C556 C562 1.379 . S
C556 N564 1.356 . S
C557 C556 1.363 . S
C557 C563 1.363 . S
C558 C559 1.363 . S
C558 C563 1.379 . S
C558 N565 1.356 . S
C559 C558 1.363 . S
C559 C562 1.363 . S
N560 C562 1.356 . S
N560 H572 0.984 . S
N560 H573 0.985 . S
N561 C563 1.356 . S
N561 H566 0.984 . S
N561 H567 0.985 . S
C562 C556 1.379 . S
C562 C559 1.363 . S
C562 N560 1.356 . S
C563 C557 1.363 . S
C563 C558 1.379 . S
C563 N561 1.356 . S
N564 C556 1.356 . S
N564 H570 0.984 . S
N564 H571 0.984 . S
N565 C558 1.356 . S
N565 H568 0.984 . S
N565 H569 0.985 . S
H566 N561 0.984 . S
H567 N561 0.985 . S
H568 N565 0.984 . S
H569 N565 0.985 . S
H570 N564 0.984 . S
H571 N564 0.984 . S
H572 N560 0.984 . S
H573 N560 0.985 . S
C574 C575 1.363 . S
C574 C580 1.379 . S
C574 N582 1.356 . S
C575 C574 1.363 . S
C575 C581 1.363 . S
C576 C577 1.363 . S
C576 C581 1.379 . S
C576 N583 1.356 . S
C577 C576 1.363 . S
C577 C580 1.363 . S
N578 C580 1.356 . S
N578 H590 0.984 . S
N578 H591 0.985 . S
N579 C581 1.356 . S
N579 H584 0.984 . S
N579 H585 0.985 . S
C580 C574 1.379 . S
C580 C577 1.363 . S
C580 N578 1.356 . S
C581 C575 1.363 . S
C581 C576 1.379 . S
C581 N579 1.356 . S
N582 C574 1.356 . S
N582 H588 0.984 . S
N582 H589 0.984 . S
N583 C576 1.356 . S
N583 H586 0.984 . S
N583 H587 0.985 . S
H584 N579 0.984 . S
H585 N579 0.985 . S
H586 N583 0.984 . S
H587 N583 0.985 . S
H588 N582 0.984 . S
H589 N582 0.984 . S
H590 N578 0.984 . S
H591 N578 0.985 . S
C592 C593 1.363 . S
C592 C598 1.379 . S
C592 N600 1.356 . S
C593 C592 1.363 . S
C593 C599 1.363 . S
C594 C595 1.363 . S
C594 C599 1.379 . S
C594 N601 1.356 . S
C595 C594 1.363 . S
C595 C598 1.363 . S
N596 C598 1.356 . S
N596 H608 0.984 . S
N596 H609 0.985 . S
N597 C599 1.356 . S
N597 H602 0.984 . S
N597 H603 0.985 . S
C598 C592 1.379 . S
C598 C595 1.363 . S
C598 N596 1.356 . S
C599 C593 1.363 . S
C599 C594 1.379 . S
C599 N597 1.356 . S
N600 C592 1.356 . S
N600 H606 0.984 . S
N600 H607 0.984 . S
N601 C594 1.356 . S
N601 H604 0.984 . S
N601 H605 0.985 . S
H602 N597 0.984 . S
H603 N597 0.985 . S
H604 N601 0.984 . S
H605 N601 0.985 . S
H606 N600 0.984 . S
H607 N600 0.984 . S
H608 N596 0.984 . S
H609 N596 0.985 . S
C610 C611 1.363 . S
C610 C616 1.379 . S
C610 N618 1.356 . S
C611 C610 1.363 . S
C611 C617 1.363 . S
C612 C613 1.363 . S
C612 C617 1.379 . S
C612 N619 1.356 . S
C613 C612 1.363 . S
C613 C616 1.363 . S
N614 C616 1.356 . S
N614 H626 0.984 . S
N614 H627 0.985 . S
N615 C617 1.356 . S
N615 H620 0.984 . S
N615 H621 0.985 . S
C616 C610 1.379 . S
C616 C613 1.363 . S
C616 N614 1.356 . S
C617 C611 1.363 . S
C617 C612 1.379 . S
C617 N615 1.356 . S
N618 C610 1.356 . S
N618 H624 0.984 . S
N618 H625 0.984 . S
N619 C612 1.356 . S
N619 H622 0.984 . S
N619 H623 0.985 . S
H620 N615 0.984 . S
H621 N615 0.985 . S
H622 N619 0.984 . S
H623 N619 0.985 . S
H624 N618 0.984 . S
H625 N618 0.984 . S
H626 N614 0.984 . S
H627 N614 0.985 . S
C628 C629 1.363 . S
C628 C634 1.379 . S
C628 N636 1.356 . S
C629 C628 1.363 . S
C629 C635 1.363 . S
C630 C631 1.363 . S
C630 C635 1.379 . S
C630 N637 1.356 . S
C631 C630 1.363 . S
C631 C634 1.363 . S
N632 C634 1.356 . S
N632 H644 0.984 . S
N632 H645 0.985 . S
N633 C635 1.356 . S
N633 H638 0.984 . S
N633 H639 0.985 . S
C634 C628 1.379 . S
C634 C631 1.363 . S
C634 N632 1.356 . S
C635 C629 1.363 . S
C635 C630 1.379 . S
C635 N633 1.356 . S
N636 C628 1.356 . S
N636 H642 0.984 . S
N636 H643 0.984 . S
N637 C630 1.356 . S
N637 H640 0.984 . S
N637 H641 0.985 . S
H638 N633 0.984 . S
H639 N633 0.985 . S
H640 N637 0.984 . S
H641 N637 0.985 . S
H642 N636 0.984 . S
H643 N636 0.984 . S
H644 N632 0.984 . S
H645 N632 0.985 . S
C646 C647 1.363 . S
C646 C652 1.379 . S
C646 N654 1.356 . S
C647 C646 1.363 . S
C647 C653 1.363 . S
C648 C649 1.363 . S
C648 C653 1.379 . S
C648 N655 1.356 . S
C649 C648 1.363 . S
C649 C652 1.363 . S
N650 C652 1.356 . S
N650 H662 0.984 . S
N650 H663 0.985 . S
N651 C653 1.356 . S
N651 H656 0.984 . S
N651 H657 0.985 . S
C652 C646 1.379 . S
C652 C649 1.363 . S
C652 N650 1.356 . S
C653 C647 1.363 . S
C653 C648 1.379 . S
C653 N651 1.356 . S
N654 C646 1.356 . S
N654 H660 0.984 . S
N654 H661 0.984 . S
N655 C648 1.356 . S
N655 H658 0.984 . S
N655 H659 0.985 . S
H656 N651 0.984 . S
H657 N651 0.985 . S
H658 N655 0.984 . S
H659 N655 0.985 . S
H660 N654 0.984 . S
H661 N654 0.984 . S
H662 N650 0.984 . S
H663 N650 0.985 . S
C664 C665 1.363 . S
C664 C670 1.379 . S
C664 N672 1.356 . S
C665 C664 1.363 . S
C665 C671 1.363 . S
C666 C667 1.363 . S
C666 C671 1.379 . S
C666 N673 1.356 . S
C667 C666 1.363 . S
C667 C670 1.363 . S
N668 C670 1.356 . S
N668 H680 0.984 . S
N668 H681 0.985 . S
N669 C671 1.356 . S
N669 H674 0.984 . S
N669 H675 0.985 . S
C670 C664 1.379 . S
C670 C667 1.363 . S
C670 N668 1.356 . S
C671 C665 1.363 . S
C671 C666 1.379 . S
C671 N669 1.356 . S
N672 C664 1.356 . S
N672 H678 0.984 . S
N672 H679 0.984 . S
N673 C666 1.356 . S
N673 H676 0.984 . S
N673 H677 0.985 . S
H674 N669 0.984 . S
H675 N669 0.985 . S
H676 N673 0.984 . S
H677 N673 0.985 . S
H678 N672 0.984 . S
H679 N672 0.984 . S
H680 N668 0.984 . S
H681 N668 0.985 . S
C682 C683 1.363 . S
C682 C688 1.379 . S
C682 N690 1.356 . S
C683 C682 1.363 . S
C683 C689 1.363 . S
C684 C685 1.363 . S
C684 C689 1.379 . S
C684 N691 1.356 . S
C685 C684 1.363 . S
C685 C688 1.363 . S
N686 C688 1.356 . S
N686 H698 0.984 . S
N686 H699 0.985 . S
N687 C689 1.356 . S
N687 H692 0.984 . S
N687 H693 0.985 . S
C688 C682 1.379 . S
C688 C685 1.363 . S
C688 N686 1.356 . S
C689 C683 1.363 . S
C689 C684 1.379 . S
C689 N687 1.356 . S
N690 C682 1.356 . S
N690 H696 0.984 . S
N690 H697 0.984 . S
N691 C684 1.356 . S
N691 H694 0.984 . S
N691 H695 0.985 . S
H692 N687 0.984 . S
H693 N687 0.985 . S
H694 N691 0.984 . S
H695 N691 0.985 . S
H696 N690 0.984 . S
H697 N690 0.984 . S
H698 N686 0.984 . S
H699 N686 0.985 . S
C700 C701 1.363 . S
C700 C706 1.379 . S
C700 N708 1.356 . S
C701 C700 1.363 . S
C701 C707 1.363 . S
C702 C703 1.363 . S
C702 C707 1.379 . S
C702 N709 1.356 . S
C703 C702 1.363 . S
C703 C706 1.363 . S
N704 C706 1.356 . S
N704 H716 0.984 . S
N704 H717 0.985 . S
N705 C707 1.356 . S
N705 H710 0.984 . S
N705 H711 0.985 . S
C706 C700 1.379 . S
C706 C703 1.363 . S
C706 N704 1.356 . S
C707 C701 1.363 . S
C707 C702 1.379 . S
C707 N705 1.356 . S
N708 C700 1.356 . S
N708 H714 0.984 . S
N708 H715 0.984 . S
N709 C702 1.356 . S
N709 H712 0.984 . S
N709 H713 0.985 . S
H710 N705 0.984 . S
H711 N705 0.985 . S
H712 N709 0.984 . S
H713 N709 0.985 . S
H714 N708 0.984 . S
H715 N708 0.984 . S
H716 N704 0.984 . S
H717 N704 0.985 . S
C718 C719 1.363 . S
C718 C724 1.379 . S
C718 N726 1.356 . S
C719 C718 1.363 . S
C719 C725 1.363 . S
C720 C721 1.363 . S
C720 C725 1.379 . S
C720 N727 1.356 . S
C721 C720 1.363 . S
C721 C724 1.363 . S
N722 C724 1.356 . S
N722 H734 0.984 . S
N722 H735 0.985 . S
N723 C725 1.356 . S
N723 H728 0.984 . S
N723 H729 0.985 . S
C724 C718 1.379 . S
C724 C721 1.363 . S
C724 N722 1.356 . S
C725 C719 1.363 . S
C725 C720 1.379 . S
C725 N723 1.356 . S
N726 C718 1.356 . S
N726 H732 0.984 . S
N726 H733 0.984 . S
N727 C720 1.356 . S
N727 H730 0.984 . S
N727 H731 0.985 . S
H728 N723 0.984 . S
H729 N723 0.985 . S
H730 N727 0.984 . S
H731 N727 0.985 . S
H732 N726 0.984 . S
H733 N726 0.984 . S
H734 N722 0.984 . S
H735 N722 0.985 . S
C736 C737 1.363 . S
C736 C742 1.379 . S
C736 N744 1.356 . S
C737 C736 1.363 . S
C737 C743 1.363 1_655 S
C738 C739 1.363 . S
C738 C743 1.379 . S
C738 N745 1.356 . S
C739 C738 1.363 . S
C739 C742 1.363 1_455 S
N740 C742 1.356 . S
N740 H752 0.984 . S
N740 H753 0.985 . S
N741 C743 1.356 . S
N741 H746 0.984 . S
N741 H747 0.985 . S
C742 C736 1.379 . S
C742 C739 1.363 1_655 S
C742 N740 1.356 . S
C743 C737 1.363 1_455 S
C743 C738 1.379 . S
C743 N741 1.356 . S
N744 C736 1.356 . S
N744 H750 0.984 . S
N744 H751 0.984 . S
N745 C738 1.356 . S
N745 H748 0.984 . S
N745 H749 0.985 . S
H746 N741 0.984 . S
H747 N741 0.985 . S
H748 N745 0.984 . S
H749 N745 0.985 . S
H750 N744 0.984 . S
H751 N744 0.984 . S
H752 N740 0.984 . S
H753 N740 0.985 . S
C754 C755 1.363 . S
C754 C760 1.379 1_565 S
C754 N762 1.356 . S
C755 C754 1.363 . S
C755 C761 1.363 . S
C756 C757 1.363 . S
C756 C761 1.379 1_545 S
C756 N763 1.356 . S
C757 C756 1.363 . S
C757 C760 1.363 . S
N758 C760 1.356 . S
N758 H770 0.984 . S
N758 H771 0.985 . S
N759 C761 1.356 . S
N759 H764 0.984 . S
N759 H765 0.985 . S
C760 C754 1.379 1_545 S
C760 C757 1.363 . S
C760 N758 1.356 . S
C761 C755 1.363 . S
C761 C756 1.379 1_565 S
C761 N759 1.356 . S
N762 C754 1.356 . S
N762 H768 0.984 . S
N762 H769 0.984 . S
N763 C756 1.356 . S
N763 H766 0.984 . S
N763 H767 0.985 . S
H764 N759 0.984 . S
H765 N759 0.985 . S
H766 N763 0.984 . S
H767 N763 0.985 . S
H768 N762 0.984 . S
H769 N762 0.984 . S
H770 N758 0.984 . S
H771 N758 0.985 . S
C772 C773 1.363 1_556 S
C772 C778 1.379 1_565 S
C772 N780 1.356 . S
C773 C772 1.363 1_554 S
C773 C779 1.363 1_455 S
C774 C775 1.363 1_554 S
C774 C779 1.379 1_545 S
C774 N781 1.356 . S
C775 C774 1.363 1_556 S
C775 C778 1.363 1_655 S
N776 C778 1.356 . S
N776 H788 0.984 . S
N776 H789 0.985 . S
N777 C779 1.356 . S
N777 H782 0.984 . S
N777 H783 0.985 . S
C778 C772 1.379 1_545 S
C778 C775 1.363 1_455 S
C778 N776 1.356 . S
C779 C773 1.363 1_655 S
C779 C774 1.379 1_565 S
C779 N777 1.356 . S
N780 C772 1.356 . S
N780 H786 0.984 . S
N780 H787 0.984 . S
N781 C774 1.356 . S
N781 H784 0.984 . S
N781 H785 0.985 . S
H782 N777 0.984 . S
H783 N777 0.985 . S
H784 N781 0.984 . S
H785 N781 0.985 . S
H786 N780 0.984 . S
H787 N780 0.984 . S
H788 N776 0.984 . S
H789 N776 0.985 . S
C790 C791 1.363 1_554 S
C790 C796 1.379 . S
C790 N798 1.356 . S
C791 C790 1.363 1_556 S
C791 C797 1.363 . S
C792 C793 1.363 1_556 S
C792 C797 1.379 . S
C792 N799 1.356 . S
C793 C792 1.363 1_554 S
C793 C796 1.363 . S
N794 C796 1.356 . S
N794 H806 0.984 . S
N794 H807 0.985 . S
N795 C797 1.356 . S
N795 H800 0.984 . S
N795 H801 0.985 . S
C796 C790 1.379 . S
C796 C793 1.363 . S
C796 N794 1.356 . S
C797 C791 1.363 . S
C797 C792 1.379 . S
C797 N795 1.356 . S
N798 C790 1.356 . S
N798 H804 0.984 . S
N798 H805 0.984 . S
N799 C792 1.356 . S
N799 H802 0.984 . S
N799 H803 0.985 . S
H800 N795 0.984 . S
H801 N795 0.985 . S
H802 N799 0.984 . S
H803 N799 0.985 . S
H804 N798 0.984 . S
H805 N798 0.984 . S
H806 N794 0.984 . S
H807 N794 0.985 . S
C808 C809 1.363 1_455 S
C808 C814 1.379 . S
C808 N816 1.356 . S
C809 C808 1.363 1_655 S
C809 C815 1.363 . S
C810 C811 1.363 1_655 S
C810 C815 1.379 . S
C810 N817 1.356 . S
C811 C810 1.363 1_455 S
C811 C814 1.363 . S
N812 C814 1.356 . S
N812 H824 0.984 . S
N812 H825 0.985 . S
N813 C815 1.356 . S
N813 H818 0.984 . S
N813 H819 0.985 . S
C814 C808 1.379 . S
C814 C811 1.363 . S
C814 N812 1.356 . S
C815 C809 1.363 . S
C815 C810 1.379 . S
C815 N813 1.356 . S
N816 C808 1.356 . S
N816 H822 0.984 . S
N816 H823 0.984 . S
N817 C810 1.356 . S
N817 H820 0.984 . S
N817 H821 0.985 . S
H818 N813 0.984 . S
H819 N813 0.985 . S
H820 N817 0.984 . S
H821 N817 0.985 . S
H822 N816 0.984 . S
H823 N816 0.984 . S
H824 N812 0.984 . S
H825 N812 0.985 . S
C826 C827 1.363 . S
C826 C832 1.379 1_565 S
C826 N834 1.356 . S
C827 C826 1.363 . S
C827 C833 1.363 . S
C828 C829 1.363 . S
C828 C833 1.379 1_545 S
C828 N835 1.356 . S
C829 C828 1.363 . S
C829 C832 1.363 . S
N830 C832 1.356 . S
N830 H842 0.984 . S
N830 H843 0.985 . S
N831 C833 1.356 . S
N831 H836 0.984 . S
N831 H837 0.985 . S
C832 C826 1.379 1_545 S
C832 C829 1.363 . S
C832 N830 1.356 . S
C833 C827 1.363 . S
C833 C828 1.379 1_565 S
C833 N831 1.356 . S
N834 C826 1.356 . S
N834 H840 0.984 . S
N834 H841 0.984 . S
N835 C828 1.356 . S
N835 H838 0.984 . S
N835 H839 0.985 . S
H836 N831 0.984 . S
H837 N831 0.985 . S
H838 N835 0.984 . S
H839 N835 0.985 . S
H840 N834 0.984 . S
H841 N834 0.984 . S
H842 N830 0.984 . S
H843 N830 0.985 . S
C844 C845 1.363 . S
C844 C850 1.379 . S
C844 N852 1.356 . S
C845 C844 1.363 . S
C845 C851 1.363 1_554 S
C846 C847 1.363 . S
C846 C851 1.379 . S
C846 N853 1.356 . S
C847 C846 1.363 . S
C847 C850 1.363 1_556 S
N848 C850 1.356 . S
N848 H860 0.984 . S
N848 H861 0.985 . S
N849 C851 1.356 . S
N849 H854 0.984 . S
N849 H855 0.985 . S
C850 C844 1.379 . S
C850 C847 1.363 1_554 S
C850 N848 1.356 . S
C851 C845 1.363 1_556 S
C851 C846 1.379 . S
C851 N849 1.356 . S
N852 C844 1.356 . S
N852 H858 0.984 . S
N852 H859 0.984 . S
N853 C846 1.356 . S
N853 H856 0.984 . S
N853 H857 0.985 . S
H854 N849 0.984 . S
H855 N849 0.985 . S
H856 N853 0.984 . S
H857 N853 0.985 . S
H858 N852 0.984 . S
H859 N852 0.984 . S
H860 N848 0.984 . S
H861 N848 0.985 . S
C862 C863 1.363 . S
C862 C868 1.379 . S
C862 N870 1.356 . S
C863 C862 1.363 . S
C863 C869 1.363 . S
C864 C865 1.363 . S
C864 C869 1.379 . S
C864 N871 1.356 . S
C865 C864 1.363 . S
C865 C868 1.363 . S
N866 C868 1.356 . S
N866 H878 0.984 . S
N866 H879 0.985 . S
N867 C869 1.356 . S
N867 H872 0.984 . S
N867 H873 0.985 . S
C868 C862 1.379 . S
C868 C865 1.363 . S
C868 N866 1.356 . S
C869 C863 1.363 . S
C869 C864 1.379 . S
C869 N867 1.356 . S
N870 C862 1.356 . S
N870 H876 0.984 . S
N870 H877 0.984 . S
N871 C864 1.356 . S
N871 H874 0.984 . S
N871 H875 0.985 . S
H872 N867 0.984 . S
H873 N867 0.985 . S
H874 N871 0.984 . S
H875 N871 0.985 . S
H876 N870 0.984 . S
H877 N870 0.984 . S
H878 N866 0.984 . S
H879 N866 0.985 . S
C880 C881 1.363 . S
C880 C886 1.379 . S
C880 N888 1.356 . S
C881 C880 1.363 . S
C881 C887 1.363 1_655 S
C882 C883 1.363 . S
C882 C887 1.379 . S
C882 N889 1.356 . S
C883 C882 1.363 . S
C883 C886 1.363 1_455 S
N884 C886 1.356 . S
N884 H896 0.984 . S
N884 H897 0.985 . S
N885 C887 1.356 . S
N885 H890 0.984 . S
N885 H891 0.985 . S
C886 C880 1.379 . S
C886 C883 1.363 1_655 S
C886 N884 1.356 . S
C887 C881 1.363 1_455 S
C887 C882 1.379 . S
C887 N885 1.356 . S
N888 C880 1.356 . S
N888 H894 0.984 . S
N888 H895 0.984 . S
N889 C882 1.356 . S
N889 H892 0.984 . S
N889 H893 0.985 . S
H890 N885 0.984 . S
H891 N885 0.985 . S
H892 N889 0.984 . S
H893 N889 0.985 . S
H894 N888 0.984 . S
H895 N888 0.984 . S
H896 N884 0.984 . S
H897 N884 0.985 . S
C898 C899 1.363 . S
C898 C904 1.379 . S
C898 N906 1.356 . S
C899 C898 1.363 . S
C899 C905 1.363 . S
C900 C901 1.363 . S
C900 C905 1.379 . S
C900 N907 1.356 . S
C901 C900 1.363 . S
C901 C904 1.363 . S
N902 C904 1.356 . S
N902 H914 0.984 . S
N902 H915 0.985 . S
N903 C905 1.356 . S
N903 H908 0.984 . S
N903 H909 0.985 . S
C904 C898 1.379 . S
C904 C901 1.363 . S
C904 N902 1.356 . S
C905 C899 1.363 . S
C905 C900 1.379 . S
C905 N903 1.356 . S
N906 C898 1.356 . S
N906 H912 0.984 . S
N906 H913 0.984 . S
N907 C900 1.356 . S
N907 H910 0.984 . S
N907 H911 0.985 . S
H908 N903 0.984 . S
H909 N903 0.985 . S
H910 N907 0.984 . S
H911 N907 0.985 . S
H912 N906 0.984 . S
H913 N906 0.984 . S
H914 N902 0.984 . S
H915 N902 0.985 . S
C916 C917 1.363 . S
C916 C922 1.379 . S
C916 N924 1.356 . S
C917 C916 1.363 . S
C917 C923 1.363 . S
C918 C919 1.363 . S
C918 C923 1.379 . S
C918 N925 1.356 . S
C919 C918 1.363 . S
C919 C922 1.363 . S
N920 C922 1.356 . S
N920 H932 0.984 . S
N920 H933 0.985 . S
N921 C923 1.356 . S
N921 H926 0.984 . S
N921 H927 0.985 . S
C922 C916 1.379 . S
C922 C919 1.363 . S
C922 N920 1.356 . S
C923 C917 1.363 . S
C923 C918 1.379 . S
C923 N921 1.356 . S
N924 C916 1.356 . S
N924 H930 0.984 . S
N924 H931 0.984 . S
N925 C918 1.356 . S
N925 H928 0.984 . S
N925 H929 0.985 . S
H926 N921 0.984 . S
H927 N921 0.985 . S
H928 N925 0.984 . S
H929 N925 0.985 . S
H930 N924 0.984 . S
H931 N924 0.984 . S
H932 N920 0.984 . S
H933 N920 0.985 . S
C934 C935 1.363 . S
C934 C940 1.379 . S
C934 N942 1.356 . S
C935 C934 1.363 . S
C935 C941 1.363 . S
C936 C937 1.363 . S
C936 C941 1.379 . S
C936 N943 1.356 . S
C937 C936 1.363 . S
C937 C940 1.363 . S
N938 C940 1.356 . S
N938 H950 0.984 . S
N938 H951 0.985 . S
N939 C941 1.356 . S
N939 H944 0.984 . S
N939 H945 0.985 . S
C940 C934 1.379 . S
C940 C937 1.363 . S
C940 N938 1.356 . S
C941 C935 1.363 . S
C941 C936 1.379 . S
C941 N939 1.356 . S
N942 C934 1.356 . S
N942 H948 0.984 . S
N942 H949 0.984 . S
N943 C936 1.356 . S
N943 H946 0.984 . S
N943 H947 0.985 . S
H944 N939 0.984 . S
H945 N939 0.985 . S
H946 N943 0.984 . S
H947 N943 0.985 . S
H948 N942 0.984 . S
H949 N942 0.984 . S
H950 N938 0.984 . S
H951 N938 0.985 . S
C952 C953 1.363 . S
C952 C958 1.379 . S
C952 N960 1.356 . S
C953 C952 1.363 . S
C953 C959 1.363 . S
C954 C955 1.363 . S
C954 C959 1.379 . S
C954 N961 1.356 . S
C955 C954 1.363 . S
C955 C958 1.363 . S
N956 C958 1.356 . S
N956 H968 0.984 . S
N956 H969 0.985 . S
N957 C959 1.356 . S
N957 H962 0.984 . S
N957 H963 0.985 . S
C958 C952 1.379 . S
C958 C955 1.363 . S
C958 N956 1.356 . S
C959 C953 1.363 . S
C959 C954 1.379 . S
C959 N957 1.356 . S
N960 C952 1.356 . S
N960 H966 0.984 . S
N960 H967 0.984 . S
N961 C954 1.356 . S
N961 H964 0.984 . S
N961 H965 0.985 . S
H962 N957 0.984 . S
H963 N957 0.985 . S
H964 N961 0.984 . S
H965 N961 0.985 . S
H966 N960 0.984 . S
H967 N960 0.984 . S
H968 N956 0.984 . S
H969 N956 0.985 . S
C970 C971 1.363 . S
C970 C976 1.379 1_545 S
C970 N978 1.356 . S
C971 C970 1.363 . S
C971 C977 1.363 . S
C972 C973 1.363 . S
C972 C977 1.379 1_565 S
C972 N979 1.356 . S
C973 C972 1.363 . S
C973 C976 1.363 . S
N974 C976 1.356 . S
N974 H986 0.984 . S
N974 H987 0.985 . S
N975 C977 1.356 . S
N975 H980 0.984 . S
N975 H981 0.985 . S
C976 C970 1.379 1_565 S
C976 C973 1.363 . S
C976 N974 1.356 . S
C977 C971 1.363 . S
C977 C972 1.379 1_545 S
C977 N975 1.356 . S
N978 C970 1.356 . S
N978 H984 0.984 . S
N978 H985 0.984 . S
N979 C972 1.356 . S
N979 H982 0.984 . S
N979 H983 0.985 . S
H980 N975 0.984 . S
H981 N975 0.985 . S
H982 N979 0.984 . S
H983 N979 0.985 . S
H984 N978 0.984 . S
H985 N978 0.984 . S
H986 N974 0.984 . S
H987 N974 0.985 . S
C988 C989 1.363 . S
C988 C994 1.379 . S
C988 N996 1.356 . S
C989 C988 1.363 . S
C989 C995 1.363 . S
C990 C991 1.363 . S
C990 C995 1.379 . S
C990 N997 1.356 . S
C991 C990 1.363 . S
C991 C994 1.363 . S
N992 C994 1.356 . S
N992 H1004 0.984 . S
N992 H1005 0.985 . S
N993 C995 1.356 . S
N993 H998 0.984 . S
N993 H999 0.985 . S
C994 C988 1.379 . S
C994 C991 1.363 . S
C994 N992 1.356 . S
C995 C989 1.363 . S
C995 C990 1.379 . S
C995 N993 1.356 . S
N996 C988 1.356 . S
N996 H1002 0.984 . S
N996 H1003 0.984 . S
N997 C990 1.356 . S
N997 H1000 0.984 . S
N997 H1001 0.985 . S
H998 N993 0.984 . S
H999 N993 0.985 . S
H1000 N997 0.984 . S
H1001 N997 0.985 . S
H1002 N996 0.984 . S
H1003 N996 0.984 . S
H1004 N992 0.984 . S
H1005 N992 0.985 . S
C1006 C1007 1.363 . S
C1006 C1012 1.378 1_554 S
C1006 N1014 1.356 . S
C1007 C1006 1.363 . S
C1007 C1013 1.364 . S
C1008 C1009 1.363 . S
C1008 C1013 1.378 1_556 S
C1008 N1015 1.356 . S
C1009 C1008 1.363 . S
C1009 C1012 1.364 . S
N1010 C1012 1.357 . S
N1010 H1022 0.984 . S
N1010 H1023 0.985 . S
N1011 C1013 1.357 . S
N1011 H1016 0.984 . S
N1011 H1017 0.986 . S
C1012 C1006 1.378 1_556 S
C1012 C1009 1.364 . S
C1012 N1010 1.357 . S
C1013 C1007 1.364 . S
C1013 C1008 1.378 1_554 S
C1013 N1011 1.357 . S
N1014 C1006 1.356 . S
N1014 H1020 0.984 . S
N1014 H1021 0.984 . S
N1015 C1008 1.356 . S
N1015 H1018 0.984 . S
N1015 H1019 0.985 . S
H1016 N1011 0.984 . S
H1017 N1011 0.986 . S
H1018 N1015 0.984 . S
H1019 N1015 0.985 . S
H1020 N1014 0.984 . S
H1021 N1014 0.984 . S
H1022 N1010 0.984 . S
H1023 N1010 0.985 . S
C1024 C1025 1.363 . S
C1024 C1030 1.379 . S
C1024 N1032 1.356 . S
C1025 C1024 1.363 . S
C1025 C1031 1.363 . S
C1026 C1027 1.363 . S
C1026 C1031 1.379 . S
C1026 N1033 1.356 . S
C1027 C1026 1.363 . S
C1027 C1030 1.363 . S
N1028 C1030 1.356 . S
N1028 H1040 0.984 . S
N1028 H1041 0.985 . S
N1029 C1031 1.356 . S
N1029 H1034 0.984 . S
N1029 H1035 0.985 1_455 S
C1030 C1024 1.379 . S
C1030 C1027 1.363 . S
C1030 N1028 1.356 . S
C1031 C1025 1.363 . S
C1031 C1026 1.379 . S
C1031 N1029 1.356 . S
N1032 C1024 1.356 . S
N1032 H1038 0.984 . S
N1032 H1039 0.984 . S
N1033 C1026 1.356 . S
N1033 H1036 0.984 . S
N1033 H1037 0.985 1_455 S
H1034 N1029 0.984 . S
H1035 N1029 0.985 1_655 S
H1036 N1033 0.984 . S
H1037 N1033 0.985 1_655 S
H1038 N1032 0.984 . S
H1039 N1032 0.984 . S
H1040 N1028 0.984 . S
H1041 N1028 0.985 . S
C1042 C1043 1.363 . S
C1042 C1048 1.379 . S
C1042 N1050 1.356 . S
C1043 C1042 1.363 . S
C1043 C1049 1.363 . S
C1044 C1045 1.363 . S
C1044 C1049 1.379 . S
C1044 N1051 1.356 . S
C1045 C1044 1.363 . S
C1045 C1048 1.363 . S
N1046 C1048 1.356 . S
N1046 H1058 0.984 . S
N1046 H1059 0.985 . S
N1047 C1049 1.356 . S
N1047 H1052 0.984 . S
N1047 H1053 0.985 . S
C1048 C1042 1.379 . S
C1048 C1045 1.363 . S
C1048 N1046 1.356 . S
C1049 C1043 1.363 . S
C1049 C1044 1.379 . S
C1049 N1047 1.356 . S
N1050 C1042 1.356 . S
N1050 H1056 0.984 . S
N1050 H1057 0.984 . S
N1051 C1044 1.356 . S
N1051 H1054 0.984 . S
N1051 H1055 0.985 . S
H1052 N1047 0.984 . S
H1053 N1047 0.985 . S
H1054 N1051 0.984 . S
H1055 N1051 0.985 . S
H1056 N1050 0.984 . S
H1057 N1050 0.984 . S
H1058 N1046 0.984 . S
H1059 N1046 0.985 . S
C1060 C1061 1.363 . S
C1060 C1066 1.379 . S
C1060 N1068 1.356 . S
C1061 C1060 1.363 . S
C1061 C1067 1.363 . S
C1062 C1063 1.363 . S
C1062 C1067 1.379 . S
C1062 N1069 1.356 . S
C1063 C1062 1.363 . S
C1063 C1066 1.363 . S
N1064 C1066 1.356 . S
N1064 H1076 0.984 1_455 S
N1064 H1077 0.985 . S
N1065 C1067 1.356 . S
N1065 H1070 0.984 . S
N1065 H1071 0.985 . S
C1066 C1060 1.379 . S
C1066 C1063 1.363 . S
C1066 N1064 1.356 . S
C1067 C1061 1.363 . S
C1067 C1062 1.379 . S
C1067 N1065 1.356 . S
N1068 C1060 1.356 . S
N1068 H1074 0.984 1_455 S
N1068 H1075 0.984 . S
N1069 C1062 1.356 . S
N1069 H1072 0.984 . S
N1069 H1073 0.985 . S
H1070 N1065 0.984 . S
H1071 N1065 0.985 . S
H1072 N1069 0.984 . S
H1073 N1069 0.985 . S
H1074 N1068 0.984 1_655 S
H1075 N1068 0.984 . S
H1076 N1064 0.984 1_655 S
H1077 N1064 0.985 . S
C1078 C1079 1.363 . S
C1078 C1084 1.379 . S
C1078 N1086 1.356 . S
C1079 C1078 1.363 . S
C1079 C1085 1.363 . S
C1080 C1081 1.363 . S
C1080 C1085 1.379 . S
C1080 N1087 1.356 . S
C1081 C1080 1.363 . S
C1081 C1084 1.363 . S
N1082 C1084 1.356 . S
N1082 H1094 0.984 . S
N1082 H1095 0.985 . S
N1083 C1085 1.356 . S
N1083 H1088 0.984 . S
N1083 H1089 0.985 . S
C1084 C1078 1.379 . S
C1084 C1081 1.363 . S
C1084 N1082 1.356 . S
C1085 C1079 1.363 . S
C1085 C1080 1.379 . S
C1085 N1083 1.356 . S
N1086 C1078 1.356 . S
N1086 H1092 0.984 . S
N1086 H1093 0.984 . S
N1087 C1080 1.356 . S
N1087 H1090 0.984 . S
N1087 H1091 0.985 . S
H1088 N1083 0.984 . S
H1089 N1083 0.985 . S
H1090 N1087 0.984 . S
H1091 N1087 0.985 . S
H1092 N1086 0.984 . S
H1093 N1086 0.984 . S
H1094 N1082 0.984 . S
H1095 N1082 0.985 . S
C1096 C1097 1.363 . S
C1096 C1102 1.379 . S
C1096 N1104 1.356 . S
C1097 C1096 1.363 . S
C1097 C1103 1.363 1_655 S
C1098 C1099 1.363 1_455 S
C1098 C1103 1.379 . S
C1098 N1105 1.356 . S
C1099 C1098 1.363 1_655 S
C1099 C1102 1.363 . S
N1100 C1102 1.356 . S
N1100 H1112 0.984 . S
N1100 H1113 0.985 . S
N1101 C1103 1.356 . S
N1101 H1106 0.984 . S
N1101 H1107 0.985 . S
C1102 C1096 1.379 . S
C1102 C1099 1.363 . S
C1102 N1100 1.356 . S
C1103 C1097 1.363 1_455 S
C1103 C1098 1.379 . S
C1103 N1101 1.356 . S
N1104 C1096 1.356 . S
N1104 H1110 0.984 . S
N1104 H1111 0.984 . S
N1105 C1098 1.356 . S
N1105 H1108 0.984 . S
N1105 H1109 0.985 . S
H1106 N1101 0.984 . S
H1107 N1101 0.985 . S
H1108 N1105 0.984 . S
H1109 N1105 0.985 . S
H1110 N1104 0.984 . S
H1111 N1104 0.984 . S
H1112 N1100 0.984 . S
H1113 N1100 0.985 . S
C1114 C1115 1.363 . S
C1114 C1120 1.379 . S
C1114 N1122 1.356 . S
C1115 C1114 1.363 . S
C1115 C1121 1.363 . S
C1116 C1117 1.363 . S
C1116 C1121 1.379 . S
C1116 N1123 1.356 . S
C1117 C1116 1.363 . S
C1117 C1120 1.363 . S
N1118 C1120 1.356 . S
N1118 H1130 0.984 . S
N1118 H1131 0.985 . S
N1119 C1121 1.356 . S
N1119 H1124 0.984 . S
N1119 H1125 0.985 . S
C1120 C1114 1.379 . S
C1120 C1117 1.363 . S
C1120 N1118 1.356 . S
C1121 C1115 1.363 . S
C1121 C1116 1.379 . S
C1121 N1119 1.356 . S
N1122 C1114 1.356 . S
N1122 H1128 0.984 . S
N1122 H1129 0.984 . S
N1123 C1116 1.356 . S
N1123 H1126 0.984 . S
N1123 H1127 0.985 . S
H1124 N1119 0.984 . S
H1125 N1119 0.985 . S
H1126 N1123 0.984 . S
H1127 N1123 0.985 . S
H1128 N1122 0.984 . S
H1129 N1122 0.984 . S
H1130 N1118 0.984 . S
H1131 N1118 0.985 . S
C1132 C1133 1.363 . S
C1132 C1138 1.379 . S
C1132 N1140 1.356 . S
C1133 C1132 1.363 . S
C1133 C1139 1.363 . S
C1134 C1135 1.363 . S
C1134 C1139 1.379 . S
C1134 N1141 1.356 . S
C1135 C1134 1.363 . S
C1135 C1138 1.363 . S
N1136 C1138 1.356 . S
N1136 H1148 0.984 . S
N1136 H1149 0.985 . S
N1137 C1139 1.358 . S
N1137 H1142 0.985 . S
N1137 H1143 0.982 1_655 S
C1138 C1132 1.379 . S
C1138 C1135 1.363 . S
C1138 N1136 1.356 . S
C1139 C1133 1.363 . S
C1139 C1134 1.379 . S
C1139 N1137 1.358 . S
N1140 C1132 1.356 . S
N1140 H1146 0.984 . S
N1140 H1147 0.984 . S
N1141 C1134 1.356 . S
N1141 H1144 0.984 . S
N1141 H1145 0.985 1_655 S
H1142 N1137 0.985 . S
H1143 N1137 0.982 1_455 S
H1144 N1141 0.984 . S
H1145 N1141 0.985 1_455 S
H1146 N1140 0.984 . S
H1147 N1140 0.984 . S
H1148 N1136 0.984 . S
H1149 N1136 0.985 . S
C1150 C1151 1.363 . S
C1150 C1156 1.379 . S
C1150 N1158 1.356 . S
C1151 C1150 1.363 . S
C1151 C1157 1.363 . S
C1152 C1153 1.363 . S
C1152 C1157 1.379 . S
C1152 N1159 1.356 . S
C1153 C1152 1.363 . S
C1153 C1156 1.363 . S
N1154 C1156 1.356 . S
N1154 H1166 0.984 . S
N1154 H1167 0.985 . S
N1155 C1157 1.356 . S
N1155 H1160 0.984 . S
N1155 H1161 0.985 . S
C1156 C1150 1.379 . S
C1156 C1153 1.363 . S
C1156 N1154 1.356 . S
C1157 C1151 1.363 . S
C1157 C1152 1.379 . S
C1157 N1155 1.356 . S
N1158 C1150 1.356 . S
N1158 H1164 0.984 . S
N1158 H1165 0.984 . S
N1159 C1152 1.356 . S
N1159 H1162 0.984 . S
N1159 H1163 0.985 . S
H1160 N1155 0.984 . S
H1161 N1155 0.985 . S
H1162 N1159 0.984 . S
H1163 N1159 0.985 . S
H1164 N1158 0.984 . S
H1165 N1158 0.984 . S
H1166 N1154 0.984 . S
H1167 N1154 0.985 . S
C1168 C1169 1.363 . S
C1168 C1174 1.379 . S
C1168 N1176 1.356 . S
C1169 C1168 1.363 . S
C1169 C1175 1.363 . S
C1170 C1171 1.363 . S
C1170 C1175 1.379 . S
C1170 N1177 1.356 . S
C1171 C1170 1.363 . S
C1171 C1174 1.363 . S
N1172 C1174 1.356 . S
N1172 H1184 0.984 . S
N1172 H1185 0.985 . S
N1173 C1175 1.356 . S
N1173 H1178 0.984 . S
N1173 H1179 0.985 . S
C1174 C1168 1.379 . S
C1174 C1171 1.363 . S
C1174 N1172 1.356 . S
C1175 C1169 1.363 . S
C1175 C1170 1.379 . S
C1175 N1173 1.356 . S
N1176 C1168 1.356 . S
N1176 H1182 0.984 . S
N1176 H1183 0.984 . S
N1177 C1170 1.356 . S
N1177 H1180 0.984 . S
N1177 H1181 0.985 . S
H1178 N1173 0.984 . S
H1179 N1173 0.985 . S
H1180 N1177 0.984 . S
H1181 N1177 0.985 . S
H1182 N1176 0.984 . S
H1183 N1176 0.984 . S
H1184 N1172 0.984 . S
H1185 N1172 0.985 . S
C1186 C1187 1.363 . S
C1186 C1192 1.379 . S
C1186 N1194 1.356 . S
C1187 C1186 1.363 . S
C1187 C1193 1.363 . S
C1188 C1189 1.363 . S
C1188 C1193 1.379 . S
C1188 N1195 1.356 . S
C1189 C1188 1.363 . S
C1189 C1192 1.363 . S
N1190 C1192 1.356 . S
N1190 H1202 0.984 . S
N1190 H1203 0.985 . S
N1191 C1193 1.356 . S
N1191 H1196 0.984 . S
N1191 H1197 0.985 . S
C1192 C1186 1.379 . S
C1192 C1189 1.363 . S
C1192 N1190 1.356 . S
C1193 C1187 1.363 . S
C1193 C1188 1.379 . S
C1193 N1191 1.356 . S
N1194 C1186 1.356 . S
N1194 H1200 0.984 . S
N1194 H1201 0.984 . S
N1195 C1188 1.356 . S
N1195 H1198 0.984 . S
N1195 H1199 0.985 . S
H1196 N1191 0.984 . S
H1197 N1191 0.985 . S
H1198 N1195 0.984 . S
H1199 N1195 0.985 . S
H1200 N1194 0.984 . S
H1201 N1194 0.984 . S
H1202 N1190 0.984 . S
H1203 N1190 0.985 . S
C1204 C1205 1.363 . S
C1204 C1210 1.379 . S
C1204 N1212 1.356 . S
C1205 C1204 1.363 . S
C1205 C1211 1.363 . S
C1206 C1207 1.363 . S
C1206 C1211 1.379 . S
C1206 N1213 1.356 . S
C1207 C1206 1.363 . S
C1207 C1210 1.363 . S
N1208 C1210 1.356 . S
N1208 H1220 0.984 . S
N1208 H1221 0.985 . S
N1209 C1211 1.356 . S
N1209 H1214 0.984 . S
N1209 H1215 0.985 . S
C1210 C1204 1.379 . S
C1210 C1207 1.363 . S
C1210 N1208 1.356 . S
C1211 C1205 1.363 . S
C1211 C1206 1.379 . S
C1211 N1209 1.356 . S
N1212 C1204 1.356 . S
N1212 H1218 0.984 . S
N1212 H1219 0.984 . S
N1213 C1206 1.356 . S
N1213 H1216 0.984 . S
N1213 H1217 0.985 . S
H1214 N1209 0.984 . S
H1215 N1209 0.985 . S
H1216 N1213 0.984 . S
H1217 N1213 0.985 . S
H1218 N1212 0.984 . S
H1219 N1212 0.984 . S
H1220 N1208 0.984 . S
H1221 N1208 0.985 . S
C1222 C1223 1.363 . S
C1222 C1228 1.379 . S
C1222 N1230 1.356 . S
C1223 C1222 1.363 . S
C1223 C1229 1.363 . S
C1224 C1225 1.363 . S
C1224 C1229 1.379 . S
C1224 N1231 1.356 . S
C1225 C1224 1.363 . S
C1225 C1228 1.363 . S
N1226 C1228 1.356 . S
N1226 H1238 0.984 . S
N1226 H1239 0.985 . S
N1227 C1229 1.356 . S
N1227 H1232 0.984 . S
N1227 H1233 0.985 . S
C1228 C1222 1.379 . S
C1228 C1225 1.363 . S
C1228 N1226 1.356 . S
C1229 C1223 1.363 . S
C1229 C1224 1.379 . S
C1229 N1227 1.356 . S
N1230 C1222 1.356 . S
N1230 H1236 0.984 . S
N1230 H1237 0.984 . S
N1231 C1224 1.356 . S
N1231 H1234 0.984 . S
N1231 H1235 0.985 . S
H1232 N1227 0.984 . S
H1233 N1227 0.985 . S
H1234 N1231 0.984 . S
H1235 N1231 0.985 . S
H1236 N1230 0.984 . S
H1237 N1230 0.984 . S
H1238 N1226 0.984 . S
H1239 N1226 0.985 . S
C1240 C1241 1.363 . S
C1240 C1246 1.379 . S
C1240 N1248 1.356 . S
C1241 C1240 1.363 . S
C1241 C1247 1.363 . S
C1242 C1243 1.363 . S
C1242 C1247 1.379 . S
C1242 N1249 1.356 . S
C1243 C1242 1.363 . S
C1243 C1246 1.363 . S
N1244 C1246 1.356 . S
N1244 H1256 0.984 . S
N1244 H1257 0.985 . S
N1245 C1247 1.356 . S
N1245 H1250 0.984 . S
N1245 H1251 0.985 . S
C1246 C1240 1.379 . S
C1246 C1243 1.363 . S
C1246 N1244 1.356 . S
C1247 C1241 1.363 . S
C1247 C1242 1.379 . S
C1247 N1245 1.356 . S
N1248 C1240 1.356 . S
N1248 H1254 0.984 . S
N1248 H1255 0.984 . S
N1249 C1242 1.356 . S
N1249 H1252 0.984 . S
N1249 H1253 0.985 . S
H1250 N1245 0.984 . S
H1251 N1245 0.985 . S
H1252 N1249 0.984 . S
H1253 N1249 0.985 . S
H1254 N1248 0.984 . S
H1255 N1248 0.984 . S
H1256 N1244 0.984 . S
H1257 N1244 0.985 . S
C1258 C1259 1.363 . S
C1258 C1264 1.379 . S
C1258 N1266 1.356 . S
C1259 C1258 1.363 . S
C1259 C1265 1.363 . S
C1260 C1261 1.363 . S
C1260 C1265 1.379 . S
C1260 N1267 1.356 . S
C1261 C1260 1.363 . S
C1261 C1264 1.363 . S
N1262 C1264 1.356 . S
N1262 H1274 0.984 . S
N1262 H1275 0.985 . S
N1263 C1265 1.356 . S
N1263 H1268 0.984 . S
N1263 H1269 0.985 . S
C1264 C1258 1.379 . S
C1264 C1261 1.363 . S
C1264 N1262 1.356 . S
C1265 C1259 1.363 . S
C1265 C1260 1.379 . S
C1265 N1263 1.356 . S
N1266 C1258 1.356 . S
N1266 H1272 0.984 . S
N1266 H1273 0.984 . S
N1267 C1260 1.356 . S
N1267 H1270 0.984 . S
N1267 H1271 0.985 . S
H1268 N1263 0.984 . S
H1269 N1263 0.985 . S
H1270 N1267 0.984 . S
H1271 N1267 0.985 . S
H1272 N1266 0.984 . S
H1273 N1266 0.984 . S
H1274 N1262 0.984 . S
H1275 N1262 0.985 . S
C1276 C1277 1.363 . S
C1276 C1282 1.379 . S
C1276 N1284 1.356 . S
C1277 C1276 1.363 . S
C1277 C1283 1.363 . S
C1278 C1279 1.363 . S
C1278 C1283 1.379 . S
C1278 N1285 1.356 . S
C1279 C1278 1.363 . S
C1279 C1282 1.363 . S
N1280 C1282 1.356 . S
N1280 H1292 0.984 . S
N1280 H1293 0.985 . S
N1281 C1283 1.356 . S
N1281 H1286 0.984 . S
N1281 H1287 0.985 . S
C1282 C1276 1.379 . S
C1282 C1279 1.363 . S
C1282 N1280 1.356 . S
C1283 C1277 1.363 . S
C1283 C1278 1.379 . S
C1283 N1281 1.356 . S
N1284 C1276 1.356 . S
N1284 H1290 0.984 . S
N1284 H1291 0.984 . S
N1285 C1278 1.356 . S
N1285 H1288 0.984 . S
N1285 H1289 0.985 . S
H1286 N1281 0.984 . S
H1287 N1281 0.985 . S
H1288 N1285 0.984 . S
H1289 N1285 0.985 . S
H1290 N1284 0.984 . S
H1291 N1284 0.984 . S
H1292 N1280 0.984 . S
H1293 N1280 0.985 . S
C1294 C1295 1.363 . S
C1294 C1300 1.379 . S
C1294 N1302 1.356 . S
C1295 C1294 1.363 . S
C1295 C1301 1.363 . S
C1296 C1297 1.363 . S
C1296 C1301 1.379 . S
C1296 N1303 1.356 . S
C1297 C1296 1.363 . S
C1297 C1300 1.363 . S
N1298 C1300 1.356 . S
N1298 H1310 0.984 . S
N1298 H1311 0.985 . S
N1299 C1301 1.356 . S
N1299 H1304 0.984 . S
N1299 H1305 0.985 . S
C1300 C1294 1.379 . S
C1300 C1297 1.363 . S
C1300 N1298 1.356 . S
C1301 C1295 1.363 . S
C1301 C1296 1.379 . S
C1301 N1299 1.356 . S
N1302 C1294 1.356 . S
N1302 H1308 0.984 . S
N1302 H1309 0.984 . S
N1303 C1296 1.356 . S
N1303 H1306 0.984 . S
N1303 H1307 0.985 . S
H1304 N1299 0.984 . S
H1305 N1299 0.985 . S
H1306 N1303 0.984 . S
H1307 N1303 0.985 . S
H1308 N1302 0.984 . S
H1309 N1302 0.984 . S
H1310 N1298 0.984 . S
H1311 N1298 0.985 . S
C1312 C1313 1.363 . S
C1312 C1318 1.379 . S
C1312 N1320 1.356 . S
C1313 C1312 1.363 . S
C1313 C1319 1.363 . S
C1314 C1315 1.363 . S
C1314 C1319 1.379 . S
C1314 N1321 1.356 . S
C1315 C1314 1.363 . S
C1315 C1318 1.363 . S
N1316 C1318 1.356 . S
N1316 H1328 0.984 . S
N1316 H1329 0.985 . S
N1317 C1319 1.356 . S
N1317 H1322 0.984 . S
N1317 H1323 0.985 . S
C1318 C1312 1.379 . S
C1318 C1315 1.363 . S
C1318 N1316 1.356 . S
C1319 C1313 1.363 . S
C1319 C1314 1.379 . S
C1319 N1317 1.356 . S
N1320 C1312 1.356 . S
N1320 H1326 0.984 . S
N1320 H1327 0.984 . S
N1321 C1314 1.356 . S
N1321 H1324 0.984 . S
N1321 H1325 0.985 . S
H1322 N1317 0.984 . S
H1323 N1317 0.985 . S
H1324 N1321 0.984 . S
H1325 N1321 0.985 . S
H1326 N1320 0.984 . S
H1327 N1320 0.984 . S
H1328 N1316 0.984 . S
H1329 N1316 0.985 . S
C1330 C1331 1.363 . S
C1330 C1336 1.379 . S
C1330 N1338 1.356 . S
C1331 C1330 1.363 . S
C1331 C1337 1.363 . S
C1332 C1333 1.363 . S
C1332 C1337 1.379 . S
C1332 N1339 1.356 . S
C1333 C1332 1.363 . S
C1333 C1336 1.363 . S
N1334 C1336 1.356 . S
N1334 H1346 0.984 . S
N1334 H1347 0.985 . S
N1335 C1337 1.356 . S
N1335 H1340 0.984 . S
N1335 H1341 0.985 . S
C1336 C1330 1.379 . S
C1336 C1333 1.363 . S
C1336 N1334 1.356 . S
C1337 C1331 1.363 . S
C1337 C1332 1.379 . S
C1337 N1335 1.356 . S
N1338 C1330 1.356 . S
N1338 H1344 0.984 . S
N1338 H1345 0.984 . S
N1339 C1332 1.356 . S
N1339 H1342 0.984 1_655 S
N1339 H1343 0.985 . S
H1340 N1335 0.984 . S
H1341 N1335 0.985 . S
H1342 N1339 0.984 1_455 S
H1343 N1339 0.985 . S
H1344 N1338 0.984 . S
H1345 N1338 0.984 . S
H1346 N1334 0.984 . S
H1347 N1334 0.985 . S
C1348 C1349 1.363 . S
C1348 C1354 1.379 . S
C1348 N1356 1.356 . S
C1349 C1348 1.363 . S
C1349 C1355 1.363 1_554 S
C1350 C1351 1.363 1_556 S
C1350 C1355 1.379 . S
C1350 N1357 1.356 . S
C1351 C1350 1.363 1_554 S
C1351 C1354 1.363 . S
N1352 C1354 1.356 . S
N1352 H1364 0.984 . S
N1352 H1365 0.985 . S
N1353 C1355 1.356 . S
N1353 H1358 0.984 . S
N1353 H1359 0.985 . S
C1354 C1348 1.379 . S
C1354 C1351 1.363 . S
C1354 N1352 1.356 . S
C1355 C1349 1.363 1_556 S
C1355 C1350 1.379 . S
C1355 N1353 1.356 . S
N1356 C1348 1.356 . S
N1356 H1362 0.984 . S
N1356 H1363 0.984 . S
N1357 C1350 1.356 . S
N1357 H1360 0.984 . S
N1357 H1361 0.985 . S
H1358 N1353 0.984 . S
H1359 N1353 0.985 . S
H1360 N1357 0.984 . S
H1361 N1357 0.985 . S
H1362 N1356 0.984 . S
H1363 N1356 0.984 . S
H1364 N1352 0.984 . S
H1365 N1352 0.985 . S
C1366 C1367 1.363 1_556 S
C1366 C1372 1.379 . S
C1366 N1374 1.356 . S
C1367 C1366 1.363 1_554 S
C1367 C1373 1.363 . S
C1368 C1369 1.363 . S
C1368 C1373 1.379 . S
C1368 N1375 1.356 . S
C1369 C1368 1.363 . S
C1369 C1372 1.363 1_554 S
N1370 C1372 1.356 . S
N1370 H1382 0.984 . S
N1370 H1383 0.985 . S
N1371 C1373 1.356 . S
N1371 H1376 0.984 . S
N1371 H1377 0.985 . S
C1372 C1366 1.379 . S
C1372 C1369 1.363 1_556 S
C1372 N1370 1.356 . S
C1373 C1367 1.363 . S
C1373 C1368 1.379 . S
C1373 N1371 1.356 . S
N1374 C1366 1.356 . S
N1374 H1380 0.984 . S
N1374 H1381 0.984 1_655 S
N1375 C1368 1.356 . S
N1375 H1378 0.984 . S
N1375 H1379 0.985 . S
H1376 N1371 0.984 . S
H1377 N1371 0.985 . S
H1378 N1375 0.984 . S
H1379 N1375 0.985 . S
H1380 N1374 0.984 . S
H1381 N1374 0.984 1_455 S
H1382 N1370 0.984 . S
H1383 N1370 0.985 . S
C1384 C1385 1.363 . S
C1384 C1390 1.379 . S
C1384 N1392 1.356 . S
C1385 C1384 1.363 . S
C1385 C1391 1.363 . S
C1386 C1387 1.363 . S
C1386 C1391 1.379 . S
C1386 N1393 1.356 . S
C1387 C1386 1.363 . S
C1387 C1390 1.363 . S
N1388 C1390 1.356 . S
N1388 H1400 0.984 . S
N1388 H1401 0.985 . S
N1389 C1391 1.356 . S
N1389 H1394 0.984 . S
N1389 H1395 0.985 . S
C1390 C1384 1.379 . S
C1390 C1387 1.363 . S
C1390 N1388 1.356 . S
C1391 C1385 1.363 . S
C1391 C1386 1.379 . S
C1391 N1389 1.356 . S
N1392 C1384 1.356 . S
N1392 H1398 0.984 . S
N1392 H1399 0.984 . S
N1393 C1386 1.356 . S
N1393 H1396 0.984 . S
N1393 H1397 0.985 . S
H1394 N1389 0.984 . S
H1395 N1389 0.985 . S
H1396 N1393 0.984 . S
H1397 N1393 0.985 . S
H1398 N1392 0.984 . S
H1399 N1392 0.984 . S
H1400 N1388 0.984 . S
H1401 N1388 0.985 . S
C1402 C1403 1.363 . S
C1402 C1408 1.379 . S
C1402 N1410 1.356 . S
C1403 C1402 1.363 . S
C1403 C1409 1.363 . S
C1404 C1405 1.363 . S
C1404 C1409 1.379 . S
C1404 N1411 1.356 . S
C1405 C1404 1.363 . S
C1405 C1408 1.363 . S
N1406 C1408 1.356 . S
N1406 H1418 0.984 . S
N1406 H1419 0.985 . S
N1407 C1409 1.356 . S
N1407 H1412 0.984 . S
N1407 H1413 0.985 . S
C1408 C1402 1.379 . S
C1408 C1405 1.363 . S
C1408 N1406 1.356 . S
C1409 C1403 1.363 . S
C1409 C1404 1.379 . S
C1409 N1407 1.356 . S
N1410 C1402 1.356 . S
N1410 H1416 0.984 . S
N1410 H1417 0.984 1_455 S
N1411 C1404 1.356 . S
N1411 H1414 0.984 . S
N1411 H1415 0.985 . S
H1412 N1407 0.984 . S
H1413 N1407 0.985 . S
H1414 N1411 0.984 . S
H1415 N1411 0.985 . S
H1416 N1410 0.984 . S
H1417 N1410 0.984 1_655 S
H1418 N1406 0.984 . S
H1419 N1406 0.985 . S
C1420 C1421 1.363 1_554 S
C1420 C1426 1.379 . S
C1420 N1428 1.356 . S
C1421 C1420 1.363 1_556 S
C1421 C1427 1.363 . S
C1422 C1423 1.363 . S
C1422 C1427 1.379 . S
C1422 N1429 1.356 . S
C1423 C1422 1.363 . S
C1423 C1426 1.363 1_556 S
N1424 C1426 1.356 . S
N1424 H1436 0.984 . S
N1424 H1437 0.985 . S
N1425 C1427 1.356 . S
N1425 H1430 0.984 . S
N1425 H1431 0.985 . S
C1426 C1420 1.379 . S
C1426 C1423 1.363 1_554 S
C1426 N1424 1.356 . S
C1427 C1421 1.363 . S
C1427 C1422 1.379 . S
C1427 N1425 1.356 . S
N1428 C1420 1.356 . S
N1428 H1434 0.984 . S
N1428 H1435 0.984 . S
N1429 C1422 1.356 . S
N1429 H1432 0.984 . S
N1429 H1433 0.985 . S
H1430 N1425 0.984 . S
H1431 N1425 0.985 . S
H1432 N1429 0.984 . S
H1433 N1429 0.985 . S
H1434 N1428 0.984 . S
H1435 N1428 0.984 . S
H1436 N1424 0.984 . S
H1437 N1424 0.985 . S
C1438 C1439 1.363 1_554 S
C1438 C1444 1.379 . S
C1438 N1446 1.356 . S
C1439 C1438 1.363 1_556 S
C1439 C1445 1.363 . S
C1440 C1441 1.363 . S
C1440 C1445 1.379 . S
C1440 N1447 1.356 . S
C1441 C1440 1.363 . S
C1441 C1444 1.363 1_556 S
N1442 C1444 1.356 . S
N1442 H1454 0.984 . S
N1442 H1455 0.985 1_455 S
N1443 C1445 1.356 . S
N1443 H1448 0.984 . S
N1443 H1449 0.985 . S
C1444 C1438 1.379 . S
C1444 C1441 1.363 1_554 S
C1444 N1442 1.356 . S
C1445 C1439 1.363 . S
C1445 C1440 1.379 . S
C1445 N1443 1.356 . S
N1446 C1438 1.356 . S
N1446 H1452 0.984 . S
N1446 H1453 0.984 . S
N1447 C1440 1.356 . S
N1447 H1450 0.984 . S
N1447 H1451 0.985 . S
H1448 N1443 0.984 . S
H1449 N1443 0.985 . S
H1450 N1447 0.984 . S
H1451 N1447 0.985 . S
H1452 N1446 0.984 . S
H1453 N1446 0.984 . S
H1454 N1442 0.984 . S
H1455 N1442 0.985 1_655 S
C1456 C1457 1.363 . S
C1456 C1462 1.379 . S
C1456 N1464 1.356 . S
C1457 C1456 1.363 . S
C1457 C1463 1.363 . S
C1458 C1459 1.363 . S
C1458 C1463 1.379 . S
C1458 N1465 1.356 . S
C1459 C1458 1.363 . S
C1459 C1462 1.363 . S
N1460 C1462 1.356 . S
N1460 H1472 0.984 . S
N1460 H1473 0.985 . S
N1461 C1463 1.356 . S
N1461 H1466 0.984 . S
N1461 H1467 0.985 . S
C1462 C1456 1.379 . S
C1462 C1459 1.363 . S
C1462 N1460 1.356 . S
C1463 C1457 1.363 . S
C1463 C1458 1.379 . S
C1463 N1461 1.356 . S
N1464 C1456 1.356 . S
N1464 H1470 0.984 . S
N1464 H1471 0.984 . S
N1465 C1458 1.356 . S
N1465 H1468 0.984 . S
N1465 H1469 0.985 . S
H1466 N1461 0.984 . S
H1467 N1461 0.985 . S
H1468 N1465 0.984 . S
H1469 N1465 0.985 . S
H1470 N1464 0.984 . S
H1471 N1464 0.984 . S
H1472 N1460 0.984 . S
H1473 N1460 0.985 . S
C1474 C1475 1.363 . S
C1474 C1480 1.379 . S
C1474 N1482 1.356 . S
C1475 C1474 1.363 . S
C1475 C1481 1.363 . S
C1476 C1477 1.363 . S
C1476 C1481 1.379 . S
C1476 N1483 1.356 . S
C1477 C1476 1.363 . S
C1477 C1480 1.363 . S
N1478 C1480 1.356 . S
N1478 H1490 0.984 . S
N1478 H1491 0.985 . S
N1479 C1481 1.356 . S
N1479 H1484 0.984 . S
N1479 H1485 0.985 . S
C1480 C1474 1.379 . S
C1480 C1477 1.363 . S
C1480 N1478 1.356 . S
C1481 C1475 1.363 . S
C1481 C1476 1.379 . S
C1481 N1479 1.356 . S
N1482 C1474 1.356 . S
N1482 H1488 0.984 . S
N1482 H1489 0.984 . S
N1483 C1476 1.356 . S
N1483 H1486 0.984 1_655 S
N1483 H1487 0.985 . S
H1484 N1479 0.984 . S
H1485 N1479 0.985 . S
H1486 N1483 0.984 1_455 S
H1487 N1483 0.985 . S
H1488 N1482 0.984 . S
H1489 N1482 0.984 . S
H1490 N1478 0.984 . S
H1491 N1478 0.985 . S
C1492 C1493 1.363 . S
C1492 C1498 1.379 . S
C1492 N1500 1.356 . S
C1493 C1492 1.363 . S
C1493 C1499 1.363 . S
C1494 C1495 1.363 . S
C1494 C1499 1.379 . S
C1494 N1501 1.356 . S
C1495 C1494 1.363 . S
C1495 C1498 1.363 . S
N1496 C1498 1.356 . S
N1496 H1508 0.984 . S
N1496 H1509 0.985 . S
N1497 C1499 1.356 . S
N1497 H1502 0.984 . S
N1497 H1503 0.985 . S
C1498 C1492 1.379 . S
C1498 C1495 1.363 . S
C1498 N1496 1.356 . S
C1499 C1493 1.363 . S
C1499 C1494 1.379 . S
C1499 N1497 1.356 . S
N1500 C1492 1.356 . S
N1500 H1506 0.984 . S
N1500 H1507 0.984 . S
N1501 C1494 1.356 . S
N1501 H1504 0.984 . S
N1501 H1505 0.985 . S
H1502 N1497 0.984 . S
H1503 N1497 0.985 . S
H1504 N1501 0.984 . S
H1505 N1501 0.985 . S
H1506 N1500 0.984 . S
H1507 N1500 0.984 . S
H1508 N1496 0.984 . S
H1509 N1496 0.985 . S
C1510 C1511 1.363 . S
C1510 C1516 1.379 . S
C1510 N1518 1.356 . S
C1511 C1510 1.363 . S
C1511 C1517 1.363 . S
C1512 C1513 1.363 . S
C1512 C1517 1.379 . S
C1512 N1519 1.356 . S
C1513 C1512 1.363 . S
C1513 C1516 1.363 . S
N1514 C1516 1.356 . S
N1514 H1526 0.984 . S
N1514 H1527 0.985 . S
N1515 C1517 1.356 . S
N1515 H1520 0.984 . S
N1515 H1521 0.985 . S
C1516 C1510 1.379 . S
C1516 C1513 1.363 . S
C1516 N1514 1.356 . S
C1517 C1511 1.363 . S
C1517 C1512 1.379 . S
C1517 N1515 1.356 . S
N1518 C1510 1.356 . S
N1518 H1524 0.984 . S
N1518 H1525 0.984 1_655 S
N1519 C1512 1.356 . S
N1519 H1522 0.984 . S
N1519 H1523 0.985 . S
H1520 N1515 0.984 . S
H1521 N1515 0.985 . S
H1522 N1519 0.984 . S
H1523 N1519 0.985 . S
H1524 N1518 0.984 . S
H1525 N1518 0.984 1_455 S
H1526 N1514 0.984 . S
H1527 N1514 0.985 . S
C1528 C1529 1.363 . S
C1528 C1534 1.379 . S
C1528 N1536 1.356 . S
C1529 C1528 1.363 . S
C1529 C1535 1.363 . S
C1530 C1531 1.363 . S
C1530 C1535 1.379 . S
C1530 N1537 1.356 . S
C1531 C1530 1.363 . S
C1531 C1534 1.363 . S
N1532 C1534 1.356 . S
N1532 H1544 0.984 . S
N1532 H1545 0.985 . S
N1533 C1535 1.356 . S
N1533 H1538 0.984 . S
N1533 H1539 0.985 . S
C1534 C1528 1.379 . S
C1534 C1531 1.363 . S
C1534 N1532 1.356 . S
C1535 C1529 1.363 . S
C1535 C1530 1.379 . S
C1535 N1533 1.356 . S
N1536 C1528 1.356 . S
N1536 H1542 0.984 . S
N1536 H1543 0.984 . S
N1537 C1530 1.356 . S
N1537 H1540 0.984 . S
N1537 H1541 0.985 . S
H1538 N1533 0.984 . S
H1539 N1533 0.985 . S
H1540 N1537 0.984 . S
H1541 N1537 0.985 . S
H1542 N1536 0.984 . S
H1543 N1536 0.984 . S
H1544 N1532 0.984 . S
H1545 N1532 0.985 . S
C1546 C1547 1.363 . S
C1546 C1552 1.379 . S
C1546 N1554 1.356 . S
C1547 C1546 1.363 . S
C1547 C1553 1.363 . S
C1548 C1549 1.363 . S
C1548 C1553 1.379 . S
C1548 N1555 1.356 . S
C1549 C1548 1.363 . S
C1549 C1552 1.363 . S
N1550 C1552 1.356 . S
N1550 H1562 0.984 . S
N1550 H1563 0.985 . S
N1551 C1553 1.356 . S
N1551 H1556 0.984 . S
N1551 H1557 0.985 . S
C1552 C1546 1.379 . S
C1552 C1549 1.363 . S
C1552 N1550 1.356 . S
C1553 C1547 1.363 . S
C1553 C1548 1.379 . S
C1553 N1551 1.356 . S
N1554 C1546 1.356 . S
N1554 H1560 0.984 . S
N1554 H1561 0.984 1_455 S
N1555 C1548 1.356 . S
N1555 H1558 0.984 . S
N1555 H1559 0.985 . S
H1556 N1551 0.984 . S
H1557 N1551 0.985 . S
H1558 N1555 0.984 . S
H1559 N1555 0.985 . S
H1560 N1554 0.984 . S
H1561 N1554 0.984 1_655 S
H1562 N1550 0.984 . S
H1563 N1550 0.985 . S
C1564 C1565 1.363 . S
C1564 C1570 1.379 . S
C1564 N1572 1.356 . S
C1565 C1564 1.363 . S
C1565 C1571 1.363 . S
C1566 C1567 1.363 . S
C1566 C1571 1.379 . S
C1566 N1573 1.356 . S
C1567 C1566 1.363 . S
C1567 C1570 1.363 . S
N1568 C1570 1.356 . S
N1568 H1580 0.984 . S
N1568 H1581 0.985 . S
N1569 C1571 1.356 . S
N1569 H1574 0.984 . S
N1569 H1575 0.985 . S
C1570 C1564 1.379 . S
C1570 C1567 1.363 . S
C1570 N1568 1.356 . S
C1571 C1565 1.363 . S
C1571 C1566 1.379 . S
C1571 N1569 1.356 . S
N1572 C1564 1.356 . S
N1572 H1578 0.984 . S
N1572 H1579 0.984 . S
N1573 C1566 1.356 . S
N1573 H1576 0.984 . S
N1573 H1577 0.985 . S
H1574 N1569 0.984 . S
H1575 N1569 0.985 . S
H1576 N1573 0.984 . S
H1577 N1573 0.985 . S
H1578 N1572 0.984 . S
H1579 N1572 0.984 . S
H1580 N1568 0.984 . S
H1581 N1568 0.985 . S
C1582 C1583 1.363 . S
C1582 C1588 1.379 . S
C1582 N1590 1.356 . S
C1583 C1582 1.363 . S
C1583 C1589 1.363 . S
C1584 C1585 1.363 . S
C1584 C1589 1.379 . S
C1584 N1591 1.356 . S
C1585 C1584 1.363 . S
C1585 C1588 1.363 . S
N1586 C1588 1.356 . S
N1586 H1598 0.984 . S
N1586 H1599 0.985 . S
N1587 C1589 1.356 . S
N1587 H1592 0.984 1_455 S
N1587 H1593 0.985 . S
C1588 C1582 1.379 . S
C1588 C1585 1.363 . S
C1588 N1586 1.356 . S
C1589 C1583 1.363 . S
C1589 C1584 1.379 . S
C1589 N1587 1.356 . S
N1590 C1582 1.356 . S
N1590 H1596 0.984 . S
N1590 H1597 0.984 . S
N1591 C1584 1.356 . S
N1591 H1594 0.984 . S
N1591 H1595 0.985 . S
H1592 N1587 0.984 1_655 S
H1593 N1587 0.985 . S
H1594 N1591 0.984 . S
H1595 N1591 0.985 . S
H1596 N1590 0.984 . S
H1597 N1590 0.984 . S
H1598 N1586 0.984 . S
H1599 N1586 0.985 . S
C449 C8 1.444 . S
C451 C50 1.450 . S
C467 C36 1.446 . S
C469 C22 1.449 . S
C485 C64 1.444 . S
C487 C106 1.450 . S
C503 C92 1.446 . S
C505 C78 1.449 . S
C521 C120 1.379 . S
C523 C162 1.378 . S
C539 C148 1.378 . S
C541 C134 1.379 . S
C557 C176 1.379 . S
C559 C218 1.378 . S
C575 C190 1.379 . S
C577 C204 1.378 . S
C593 C274 1.378 . S
C595 C232 1.379 . S
C611 C246 1.379 . S
C613 C260 1.378 . S
C629 C288 1.379 . S
C631 C330 1.378 . S
C647 C316 1.378 . S
C649 C302 1.379 . S
C665 C344 1.444 . S
C667 C386 1.450 . S
C683 C372 1.446 . S
C685 C358 1.449 . S
C701 C400 1.444 . S
C703 C442 1.450 . S
C719 C414 1.444 . S
C721 C428 1.450 . S
C737 C174 1.582 . S
C739 C6 1.582 . S
C755 C20 1.582 . S
C757 C300 1.582 . S
C773 C34 1.497 . S
C775 C90 1.496 . S
C791 C440 1.497 . S
C793 C48 1.496 . S
C809 C62 1.582 . S
C811 C118 1.582 . S
C827 C244 1.582 . S
C829 C76 1.582 . S
C845 C384 1.497 . S
C847 C104 1.496 . S
C863 C412 1.582 . S
C865 C132 1.582 . S
C881 C202 1.521 . S
C883 C146 1.521 . S
C899 C328 1.521 . S
C901 C160 1.521 . S
C917 C188 1.582 . S
C919 C356 1.582 . S
C935 C272 1.521 . S
C937 C216 1.521 . S
C953 C398 1.582 . S
C955 C230 1.582 . S
C971 C314 1.521 . S
C973 C258 1.521 . S
C989 C342 1.582 . S
C991 C286 1.582 . S
C1007 C370 1.497 . S
C1009 C426 1.496 . S
C1025 C147 1.495 . S
C1027 C7 1.494 . S
C1043 C21 1.494 . S
C1045 C161 1.495 . S
C1061 C119 1.424 . S
C1063 C35 1.420 . S
C1079 C133 1.424 . S
C1081 C49 1.420 . S
C1097 C63 1.494 . S
C1099 C203 1.495 . S
C1115 C77 1.494 . S
C1117 C217 1.495 . S
C1133 C175 1.424 . S
C1135 C91 1.420 . S
C1151 C105 1.424 . S
C1153 C189 1.420 . S
C1169 C371 1.424 . S
C1171 C231 1.420 . S
C1187 C385 1.424 . S
C1189 C245 1.420 . S
C1205 C259 1.495 . S
C1207 C343 1.494 . S
C1223 C273 1.495 . S
C1225 C357 1.494 . S
C1241 C287 1.424 . S
C1243 C427 1.420 . S
C1259 C301 1.424 . S
C1261 C441 1.420 . S
C1277 C399 1.494 . S
C1279 C315 1.495 . S
C1295 C413 1.494 . S
C1297 C329 1.495 . S
C1313 C9 1.553 . S
C1315 C359 1.553 . S
C1331 C345 1.553 . S
C1333 C23 1.553 1_655 S
C1349 C37 1.510 . S
C1351 C387 1.510 . S
C1367 C51 1.510 1_655 S
C1369 C373 1.510 . S
C1385 C65 1.553 . S
C1387 C415 1.553 . S
C1403 C79 1.553 1_455 S
C1405 C401 1.553 . S
C1421 C443 1.510 . S
C1423 C93 1.510 . S
C1439 C429 1.510 . S
C1441 C107 1.510 1_455 S
C1457 C247 1.551 . S
C1459 C121 1.551 . S
C1475 C233 1.551 . S
C1477 C135 1.551 1_655 S
C1493 C149 1.521 . S
C1495 C275 1.521 . S
C1511 C163 1.521 1_655 S
C1513 C261 1.521 . S
C1529 C303 1.551 . S
C1531 C177 1.551 . S
C1547 C191 1.551 1_455 S
C1549 C289 1.551 . S
C1565 C205 1.521 . S
C1567 C331 1.521 . S
C1583 C219 1.521 1_455 S
C1585 C317 1.521 . S
