# Generated by pormake.
# Topology ict, (4)-cn, num edge types: 1
# Building blocks:
#     Node 0, Type 0, BuildingBlock: CEKHIL_clean_sbu_0, # of connection points: 4
#     Node 1, Type 0, BuildingBlock: CEKHIL_clean_sbu_0, # of connection points: 4
#     Node 2, Type 0, BuildingBlock: CEKHIL_clean_sbu_0, # of connection points: 4
#     Node 3, Type 0, BuildingBlock: CEKHIL_clean_sbu_0, # of connection points: 4
#     Node 4, Type 0, BuildingBlock: CEKHIL_clean_sbu_0, # of connection points: 4
#     Node 5, Type 0, BuildingBlock: CEKHIL_clean_sbu_0, # of connection points: 4
#     Node 6, Type 0, BuildingBlock: CEKHIL_clean_sbu_0, # of connection points: 4
#     Node 7, Type 0, BuildingBlock: CEKHIL_clean_sbu_0, # of connection points: 4
#     Node 8, Type 0, BuildingBlock: CEKHIL_clean_sbu_0, # of connection points: 4
#     Node 9, Type 0, BuildingBlock: CEKHIL_clean_sbu_0, # of connection points: 4
#     Node 10, Type 0, BuildingBlock: CEKHIL_clean_sbu_0, # of connection points: 4
#     Node 11, Type 0, BuildingBlock: CEKHIL_clean_sbu_0, # of connection points: 4
#     Node 12, Type 0, BuildingBlock: CEKHIL_clean_sbu_0, # of connection points: 4
#     Node 13, Type 0, BuildingBlock: CEKHIL_clean_sbu_0, # of connection points: 4
#     Node 14, Type 0, BuildingBlock: CEKHIL_clean_sbu_0, # of connection points: 4
#     Node 15, Type 0, BuildingBlock: CEKHIL_clean_sbu_0, # of connection points: 4
#     Node 16, Type 0, BuildingBlock: CEKHIL_clean_sbu_0, # of connection points: 4
#     Node 17, Type 0, BuildingBlock: CEKHIL_clean_sbu_0, # of connection points: 4
#     Node 18, Type 0, BuildingBlock: CEKHIL_clean_sbu_0, # of connection points: 4
#     Node 19, Type 0, BuildingBlock: CEKHIL_clean_sbu_0, # of connection points: 4
#     Node 20, Type 0, BuildingBlock: CEKHIL_clean_sbu_0, # of connection points: 4
#     Node 21, Type 0, BuildingBlock: CEKHIL_clean_sbu_0, # of connection points: 4
#     Node 22, Type 0, BuildingBlock: CEKHIL_clean_sbu_0, # of connection points: 4
#     Node 23, Type 0, BuildingBlock: CEKHIL_clean_sbu_0, # of connection points: 4
#     Node 24, Type 0, BuildingBlock: CEKHIL_clean_sbu_0, # of connection points: 4
#     Node 25, Type 0, BuildingBlock: CEKHIL_clean_sbu_0, # of connection points: 4
#     Node 26, Type 0, BuildingBlock: CEKHIL_clean_sbu_0, # of connection points: 4
#     Node 27, Type 0, BuildingBlock: CEKHIL_clean_sbu_0, # of connection points: 4
#     Node 28, Type 0, BuildingBlock: CEKHIL_clean_sbu_0, # of connection points: 4
#     Node 29, Type 0, BuildingBlock: CEKHIL_clean_sbu_0, # of connection points: 4
#     Node 30, Type 0, BuildingBlock: CEKHIL_clean_sbu_0, # of connection points: 4
#     Node 31, Type 0, BuildingBlock: CEKHIL_clean_sbu_0, # of connection points: 4
#     Node 32, Type 0, BuildingBlock: CEKHIL_clean_sbu_0, # of connection points: 4
#     Node 33, Type 0, BuildingBlock: CEKHIL_clean_sbu_0, # of connection points: 4
#     Node 34, Type 0, BuildingBlock: CEKHIL_clean_sbu_0, # of connection points: 4
#     Node 35, Type 0, BuildingBlock: CEKHIL_clean_sbu_0, # of connection points: 4
#     Edge 36, Type (0, 0), BuildingBlock: OJICUG_clean_linker_0, # of connection points: 2
#     Edge 37, Type (0, 0), BuildingBlock: OJICUG_clean_linker_0, # of connection points: 2
#     Edge 38, Type (0, 0), BuildingBlock: OJICUG_clean_linker_0, # of connection points: 2
#     Edge 39, Type (0, 0), BuildingBlock: OJICUG_clean_linker_0, # of connection points: 2
#     Edge 40, Type (0, 0), BuildingBlock: OJICUG_clean_linker_0, # of connection points: 2
#     Edge 41, Type (0, 0), BuildingBlock: OJICUG_clean_linker_0, # of connection points: 2
#     Edge 42, Type (0, 0), BuildingBlock: OJICUG_clean_linker_0, # of connection points: 2
#     Edge 43, Type (0, 0), BuildingBlock: OJICUG_clean_linker_0, # of connection points: 2
#     Edge 44, Type (0, 0), BuildingBlock: OJICUG_clean_linker_0, # of connection points: 2
#     Edge 45, Type (0, 0), BuildingBlock: OJICUG_clean_linker_0, # of connection points: 2
#     Edge 46, Type (0, 0), BuildingBlock: OJICUG_clean_linker_0, # of connection points: 2
#     Edge 47, Type (0, 0), BuildingBlock: OJICUG_clean_linker_0, # of connection points: 2
#     Edge 48, Type (0, 0), BuildingBlock: OJICUG_clean_linker_0, # of connection points: 2
#     Edge 49, Type (0, 0), BuildingBlock: OJICUG_clean_linker_0, # of connection points: 2
#     Edge 50, Type (0, 0), BuildingBlock: OJICUG_clean_linker_0, # of connection points: 2
#     Edge 51, Type (0, 0), BuildingBlock: OJICUG_clean_linker_0, # of connection points: 2
#     Edge 52, Type (0, 0), BuildingBlock: OJICUG_clean_linker_0, # of connection points: 2
#     Edge 53, Type (0, 0), BuildingBlock: OJICUG_clean_linker_0, # of connection points: 2
#     Edge 54, Type (0, 0), BuildingBlock: OJICUG_clean_linker_0, # of connection points: 2
#     Edge 55, Type (0, 0), BuildingBlock: OJICUG_clean_linker_0, # of connection points: 2
#     Edge 56, Type (0, 0), BuildingBlock: OJICUG_clean_linker_0, # of connection points: 2
#     Edge 57, Type (0, 0), BuildingBlock: OJICUG_clean_linker_0, # of connection points: 2
#     Edge 58, Type (0, 0), BuildingBlock: OJICUG_clean_linker_0, # of connection points: 2
#     Edge 59, Type (0, 0), BuildingBlock: OJICUG_clean_linker_0, # of connection points: 2
#     Edge 60, Type (0, 0), BuildingBlock: OJICUG_clean_linker_0, # of connection points: 2
#     Edge 61, Type (0, 0), BuildingBlock: OJICUG_clean_linker_0, # of connection points: 2
#     Edge 62, Type (0, 0), BuildingBlock: OJICUG_clean_linker_0, # of connection points: 2
#     Edge 63, Type (0, 0), BuildingBlock: OJICUG_clean_linker_0, # of connection points: 2
#     Edge 64, Type (0, 0), BuildingBlock: OJICUG_clean_linker_0, # of connection points: 2
#     Edge 65, Type (0, 0), BuildingBlock: OJICUG_clean_linker_0, # of connection points: 2
#     Edge 66, Type (0, 0), BuildingBlock: OJICUG_clean_linker_0, # of connection points: 2
#     Edge 67, Type (0, 0), BuildingBlock: OJICUG_clean_linker_0, # of connection points: 2
#     Edge 68, Type (0, 0), BuildingBlock: OJICUG_clean_linker_0, # of connection points: 2
#     Edge 69, Type (0, 0), BuildingBlock: OJICUG_clean_linker_0, # of connection points: 2
#     Edge 70, Type (0, 0), BuildingBlock: OJICUG_clean_linker_0, # of connection points: 2
#     Edge 71, Type (0, 0), BuildingBlock: OJICUG_clean_linker_0, # of connection points: 2
#     Edge 72, Type (0, 0), BuildingBlock: OJICUG_clean_linker_0, # of connection points: 2
#     Edge 73, Type (0, 0), BuildingBlock: OJICUG_clean_linker_0, # of connection points: 2
#     Edge 74, Type (0, 0), BuildingBlock: OJICUG_clean_linker_0, # of connection points: 2
#     Edge 75, Type (0, 0), BuildingBlock: OJICUG_clean_linker_0, # of connection points: 2
#     Edge 76, Type (0, 0), BuildingBlock: OJICUG_clean_linker_0, # of connection points: 2
#     Edge 77, Type (0, 0), BuildingBlock: OJICUG_clean_linker_0, # of connection points: 2
#     Edge 78, Type (0, 0), BuildingBlock: OJICUG_clean_linker_0, # of connection points: 2
#     Edge 79, Type (0, 0), BuildingBlock: OJICUG_clean_linker_0, # of connection points: 2
#     Edge 80, Type (0, 0), BuildingBlock: OJICUG_clean_linker_0, # of connection points: 2
#     Edge 81, Type (0, 0), BuildingBlock: OJICUG_clean_linker_0, # of connection points: 2
#     Edge 82, Type (0, 0), BuildingBlock: OJICUG_clean_linker_0, # of connection points: 2
#     Edge 83, Type (0, 0), BuildingBlock: OJICUG_clean_linker_0, # of connection points: 2
#     Edge 84, Type (0, 0), BuildingBlock: OJICUG_clean_linker_0, # of connection points: 2
#     Edge 85, Type (0, 0), BuildingBlock: OJICUG_clean_linker_0, # of connection points: 2
#     Edge 86, Type (0, 0), BuildingBlock: OJICUG_clean_linker_0, # of connection points: 2
#     Edge 87, Type (0, 0), BuildingBlock: OJICUG_clean_linker_0, # of connection points: 2
#     Edge 88, Type (0, 0), BuildingBlock: OJICUG_clean_linker_0, # of connection points: 2
#     Edge 89, Type (0, 0), BuildingBlock: OJICUG_clean_linker_0, # of connection points: 2
#     Edge 90, Type (0, 0), BuildingBlock: OJICUG_clean_linker_0, # of connection points: 2
#     Edge 91, Type (0, 0), BuildingBlock: OJICUG_clean_linker_0, # of connection points: 2
#     Edge 92, Type (0, 0), BuildingBlock: OJICUG_clean_linker_0, # of connection points: 2
#     Edge 93, Type (0, 0), BuildingBlock: OJICUG_clean_linker_0, # of connection points: 2
#     Edge 94, Type (0, 0), BuildingBlock: OJICUG_clean_linker_0, # of connection points: 2
#     Edge 95, Type (0, 0), BuildingBlock: OJICUG_clean_linker_0, # of connection points: 2
#     Edge 96, Type (0, 0), BuildingBlock: OJICUG_clean_linker_0, # of connection points: 2
#     Edge 97, Type (0, 0), BuildingBlock: OJICUG_clean_linker_0, # of connection points: 2
#     Edge 98, Type (0, 0), BuildingBlock: OJICUG_clean_linker_0, # of connection points: 2
#     Edge 99, Type (0, 0), BuildingBlock: OJICUG_clean_linker_0, # of connection points: 2
#     Edge 100, Type (0, 0), BuildingBlock: OJICUG_clean_linker_0, # of connection points: 2
#     Edge 101, Type (0, 0), BuildingBlock: OJICUG_clean_linker_0, # of connection points: 2
#     Edge 102, Type (0, 0), BuildingBlock: OJICUG_clean_linker_0, # of connection points: 2
#     Edge 103, Type (0, 0), BuildingBlock: OJICUG_clean_linker_0, # of connection points: 2
#     Edge 104, Type (0, 0), BuildingBlock: OJICUG_clean_linker_0, # of connection points: 2
#     Edge 105, Type (0, 0), BuildingBlock: OJICUG_clean_linker_0, # of connection points: 2
#     Edge 106, Type (0, 0), BuildingBlock: OJICUG_clean_linker_0, # of connection points: 2
#     Edge 107, Type (0, 0), BuildingBlock: OJICUG_clean_linker_0, # of connection points: 2
# Relax obj value: 0.097
# Max RMSD: 0.122
# Mean RMSD: 0.122
data_MOF--net-ict--node1-CEKHIL_clean_sbu_0--edge1-OJICUG_clean_linker_0
_symmetry_space_group_name_H-M    P1
_symmetry_Int_Tables_number       1
_symmetry_cell_setting            triclinic
loop_
_symmetry_equiv_pos_as_xyz
'x, y, z'
_cell_length_a     46.931343
_cell_length_b     46.950651
_cell_length_c     26.855243
_cell_angle_alpha  90.025017
_cell_angle_beta   90.021182
_cell_angle_gamma 120.01603
loop_
_atom_site_label
_atom_site_type_symbol
_atom_site_fract_x
_atom_site_fract_y
_atom_site_fract_z
_atom_type_partial_charge
Co0 Co 0.23745 0.2206 0.04131 0.0
O1 O 0.24977 0.22568 0.97181 0.0
O2 O 0.28461 0.24708 0.03478 0.0
C3 C 0.19544 0.23059 0.03065 0.0
O4 O 0.2345 0.22193 0.11775 0.0
Co5 Co 0.16825 0.16799 0.07949 0.0
O6 O 0.18143 0.19445 0.14136 0.0
C7 C 0.21692 0.14852 0.04805 0.0
C8 C 0.27999 0.24325 0.98692 0.0
C9 C 0.21174 0.21358 0.15086 0.0
O10 O 0.23999 0.17878 0.04426 0.0
O11 O 0.18699 0.13993 0.05803 0.0
O12 O 0.22537 0.25514 0.03434 0.0
O13 O 0.19239 0.2018 0.03087 0.0
Co14 Co 0.78372 0.01593 0.04578 0.0
O15 O 0.77512 0.02379 0.97882 0.0
O16 O 0.7573 0.03738 0.04582 0.0
C17 C 0.77201 0.96398 0.02795 0.0
O18 O 0.78723 0.01063 0.12165 0.0
Co19 Co 0.8379 0.9977 0.06669 0.0
O20 O 0.82004 0.9891 0.13492 0.0
C21 C 0.85613 0.06627 0.04033 0.0
C22 C 0.75873 0.03669 0.9974 0.0
C23 C 0.80093 0.99903 0.15085 0.0
O24 O 0.82618 0.05998 0.04531 0.0
O25 O 0.86445 0.04416 0.04314 0.0
O26 O 0.7483 0.9694 0.03999 0.0
O27 O 0.80081 0.98953 0.02638 0.0
Co28 Co 0.98479 0.76845 0.0442 0.0
O29 O 0.97666 0.75243 0.97699 0.0
O30 O 0.96484 0.72077 0.04349 0.0
C31 C 0.03582 0.80997 0.02588 0.0
O32 O 0.99132 0.777 0.12 0.0
Co33 Co 0.99999 0.83942 0.06779 0.0
O34 O 0.01477 0.83154 0.13254 0.0
C35 C 0.93381 0.78829 0.03348 0.0
C36 C 0.96493 0.72315 0.99513 0.0
C37 C 0.00583 0.80269 0.14834 0.0
O38 O 0.94008 0.76529 0.04477 0.0
O39 O 0.95542 0.8189 0.03615 0.0
O40 O 0.0316 0.78113 0.03692 0.0
O41 O 0.00963 0.81217 0.02557 0.0
Co42 Co 0.22044 0.23447 0.47198 0.0
O43 O 0.22679 0.24628 0.54178 0.0
O44 O 0.24605 0.28158 0.47915 0.0
C45 C 0.23173 0.19312 0.47882 0.0
O46 O 0.2204 0.23224 0.39542 0.0
Co47 Co 0.16736 0.16529 0.43435 0.0
O48 O 0.19185 0.1794 0.37069 0.0
C49 C 0.14831 0.2115 0.47783 0.0
C50 C 0.24321 0.27666 0.52699 0.0
C51 C 0.21116 0.20975 0.36166 0.0
O52 O 0.17792 0.23575 0.47305 0.0
O53 O 0.14031 0.18165 0.46844 0.0
O54 O 0.25582 0.22331 0.47539 0.0
O55 O 0.20273 0.18947 0.48094 0.0
Co56 Co 0.76547 0.98326 0.47046 0.0
O57 O 0.74894 0.97709 0.53716 0.0
O58 O 0.71756 0.96262 0.47005 0.0
C59 C 0.80657 0.03518 0.48601 0.0
O60 O 0.77517 0.98747 0.39479 0.0
Co61 Co 0.83715 0.99784 0.45417 0.0
O62 O 0.82962 0.00773 0.38562 0.0
C63 C 0.78518 0.93259 0.48899 0.0
C64 C 0.71968 0.96413 0.51851 0.0
C65 C 0.80132 0.9991 0.36741 0.0
O66 O 0.76264 0.93873 0.47432 0.0
O67 O 0.81586 0.95418 0.48848 0.0
O68 O 0.77767 0.0302 0.47337 0.0
O69 O 0.80886 0.00917 0.49016 0.0
Co70 Co 0.01969 0.78636 0.47064 0.0
O71 O 0.02314 0.77652 0.53937 0.0
O72 O 0.03895 0.75842 0.47493 0.0
C73 C 0.96788 0.77771 0.47677 0.0
O74 O 0.01882 0.79003 0.39421 0.0
Co75 Co 0.00922 0.84478 0.4423 0.0
O76 O 0.00536 0.82835 0.37341 0.0
C77 C 0.07127 0.85662 0.48845 0.0
C78 C 0.03614 0.75957 0.523 0.0
C79 C 0.01184 0.8059 0.3617 0.0
O80 O 0.06479 0.8274 0.47626 0.0
O81 O 0.05057 0.86658 0.4828 0.0
O82 O 0.97238 0.75274 0.47059 0.0
O83 O 0.9942 0.80572 0.48228 0.0
Co84 Co 0.76536 0.78174 0.97094 0.0
O85 O 0.75201 0.77488 0.03972 0.0
O86 O 0.71829 0.75319 0.97544 0.0
C87 C 0.80909 0.77446 0.98189 0.0
O88 O 0.76985 0.78218 0.89472 0.0
Co89 Co 0.83392 0.83855 0.93752 0.0
O90 O 0.82271 0.81546 0.87272 0.0
C91 C 0.78155 0.85284 0.96777 0.0
C92 C 0.72216 0.75663 0.02346 0.0
C93 C 0.79316 0.79408 0.86213 0.0
O94 O 0.75997 0.82197 0.96959 0.0
O95 O 0.81212 0.86378 0.95906 0.0
O96 O 0.77985 0.74895 0.97684 0.0
O97 O 0.8104 0.80249 0.98315 0.0
Co98 Co 0.21875 0.98505 0.97368 0.0
O99 O 0.22493 0.97488 0.04059 0.0
O100 O 0.24705 0.96579 0.97412 0.0
C101 C 0.22665 0.03519 0.99452 0.0
O102 O 0.21855 0.9936 0.89836 0.0
Co103 Co 0.16293 1.00006 0.94824 0.0
O104 O 0.18803 0.01764 0.88593 0.0
C105 C 0.14736 0.93159 0.96875 0.0
C106 C 0.24317 0.96395 0.02228 0.0
C107 C 0.20808 0.00882 0.8703 0.0
O108 O 0.17804 0.93999 0.96827 0.0
O109 O 0.13712 0.95217 0.96474 0.0
O110 O 0.25194 0.03182 0.98468 0.0
O111 O 0.19853 0.00867 0.99265 0.0
Co112 Co 0.01889 0.23391 0.96849 0.0
O113 O 0.02627 0.24819 0.03674 0.0
O114 O 0.03679 0.2811 0.97198 0.0
C115 C 0.96875 0.18992 0.98459 0.0
O116 O 0.0133 0.2277 0.8924 0.0
Co117 Co 0.00763 0.16508 0.9387 0.0
O118 O 0.99272 0.17406 0.87478 0.0
C119 C 0.0722 0.21742 0.9765 0.0
C120 C 0.03713 0.27774 0.0201 0.0
C121 C 1.00046 0.20315 0.86183 0.0
O122 O 0.0646 0.23966 0.96674 0.0
O123 O 0.05179 0.18657 0.97206 0.0
O124 O 0.97137 0.21844 0.97619 0.0
O125 O 0.99591 0.18953 0.98373 0.0
Co126 Co 0.78423 0.76698 0.54284 0.0
O127 O 0.7757 0.75322 0.47422 0.0
O128 O 0.75766 0.71965 0.53908 0.0
C129 C 0.77368 0.80876 0.53466 0.0
O130 O 0.78652 0.77183 0.61911 0.0
Co131 Co 0.84003 0.83698 0.57288 0.0
O132 O 0.81762 0.82551 0.63833 0.0
C133 C 0.85558 0.7883 0.5299 0.0
C134 C 0.75921 0.72332 0.49097 0.0
C135 C 0.79758 0.79586 0.65052 0.0
O136 O 0.82628 0.76473 0.53967 0.0
O137 O 0.86449 0.81867 0.53631 0.0
O138 O 0.74936 0.77891 0.54056 0.0
O139 O 0.80232 0.81167 0.53068 0.0
Co140 Co 0.23846 0.01864 0.54899 0.0
O141 O 0.25212 0.02194 0.48062 0.0
O142 O 0.28574 0.03782 0.54549 0.0
C143 C 0.19508 0.96687 0.54274 0.0
O144 O 0.23339 0.01809 0.62514 0.0
Co145 Co 0.16935 0.00881 0.57492 0.0
O146 O 0.18199 0.00673 0.64452 0.0
C147 C 0.22057 0.07058 0.52992 0.0
C148 C 0.28201 0.0351 0.49738 0.0
C149 C 0.21061 0.01257 0.65701 0.0
O150 O 0.24292 0.06382 0.54314 0.0
O151 O 0.18976 0.05007 0.53424 0.0
O152 O 0.22447 0.97124 0.54939 0.0
O153 O 0.19364 0.99326 0.53665 0.0
Co154 Co 0.9846 0.21666 0.5398 0.0
O155 O 0.97885 0.22395 0.47063 0.0
O156 O 0.96745 0.2463 0.53457 0.0
C157 C 0.03506 0.22229 0.52954 0.0
O158 O 0.98802 0.21608 0.6163 0.0
Co159 Co 0.99427 0.15862 0.57381 0.0
O160 O 0.00401 0.18014 0.63972 0.0
C161 C 0.92838 0.14618 0.5425 0.0
C162 C 0.96802 0.24289 0.48655 0.0
C163 C 0.99718 0.20255 0.64973 0.0
O164 O 0.93838 0.17721 0.54066 0.0
O165 O 0.9474 0.13455 0.55136 0.0
O166 O 0.03226 0.24834 0.53459 0.0
O167 O 0.00781 0.19477 0.52813 0.0
Co168 Co 0.90144 0.55213 0.37661 0.0
O169 O 0.91418 0.55846 0.30728 0.0
O170 O 0.94851 0.57988 0.37086 0.0
C171 C 0.85815 0.56031 0.36669 0.0
O172 O 0.89813 0.55248 0.45302 0.0
Co173 Co 0.83282 0.49712 0.4132 0.0
O174 O 0.84546 0.52107 0.47727 0.0
C175 C 0.88326 0.48056 0.38039 0.0
C176 C 0.94424 0.57643 0.32293 0.0
C177 C 0.87542 0.54179 0.48658 0.0
O178 O 0.90565 0.51117 0.37809 0.0
O179 O 0.853 0.47077 0.3899 0.0
O180 O 0.88768 0.58552 0.37087 0.0
O181 O 0.85628 0.53204 0.36585 0.0
Co182 Co 0.44969 0.34987 0.37557 0.0
O183 O 0.43956 0.35516 0.30799 0.0
O184 O 0.4208 0.36841 0.37433 0.0
C185 C 0.4419 0.29883 0.36141 0.0
O186 O 0.45398 0.34681 0.45161 0.0
Co187 Co 0.50824 0.33868 0.3988 0.0
O188 O 0.49297 0.33353 0.46841 0.0
C189 C 0.5195 0.40233 0.35943 0.0
C190 C 0.42205 0.36702 0.32599 0.0
C191 C 0.47063 0.33963 0.48237 0.0
O192 O 0.49024 0.39535 0.37233 0.0
O193 O 0.52955 0.38155 0.36216 0.0
O194 O 0.4168 0.30231 0.37233 0.0
O195 O 0.46965 0.32568 0.35863 0.0
Co196 Co 0.6533 0.09898 0.37897 0.0
O197 O 0.64715 0.08502 0.31034 0.0
O198 O 0.63282 0.05151 0.37503 0.0
C199 C 0.70537 0.14107 0.36882 0.0
O200 O 0.65725 0.10461 0.45546 0.0
Co201 Co 0.66725 0.16919 0.40759 0.0
O202 O 0.67908 0.15851 0.47285 0.0
C203 C 0.60241 0.11939 0.36781 0.0
C204 C 0.63423 0.05515 0.32686 0.0
C205 C 0.6703 0.12921 0.48604 0.0
O206 O 0.60867 0.09617 0.37756 0.0
O207 O 0.62376 0.14991 0.37297 0.0
O208 O 0.70024 0.11138 0.37483 0.0
O209 O 0.67938 0.14357 0.36584 0.0
Co210 Co 0.88692 0.56956 0.80619 0.0
O211 O 0.89443 0.5824 0.87536 0.0
O212 O 0.91495 0.61665 0.8116 0.0
C213 C 0.89499 0.52618 0.8144 0.0
O214 O 0.88567 0.56537 0.72979 0.0
Co215 Co 0.82944 0.50096 0.77405 0.0
O216 O 0.85302 0.51203 0.70954 0.0
C217 C 0.81634 0.55154 0.81596 0.0
C218 C 0.91204 0.61242 0.85962 0.0
C219 C 0.87406 0.54154 0.69797 0.0
O220 O 0.84622 0.57413 0.80732 0.0
O221 O 0.80606 0.52086 0.80966 0.0
O222 O 0.92026 0.55562 0.80978 0.0
O223 O 0.86689 0.5246 0.81737 0.0
Co224 Co 0.43499 0.31499 0.80083 0.0
O225 O 0.41937 0.30806 0.86821 0.0
O226 O 0.38758 0.29728 0.80198 0.0
C227 C 0.47892 0.36504 0.81776 0.0
O228 O 0.44337 0.32061 0.72498 0.0
Co229 Co 0.50455 0.32512 0.77788 0.0
O230 O 0.4973 0.33937 0.71222 0.0
C231 C 0.45066 0.26149 0.81482 0.0
C232 C 0.39012 0.29724 0.85032 0.0
C233 C 0.46901 0.33275 0.69645 0.0
O234 O 0.42902 0.26913 0.80102 0.0
O235 O 0.48168 0.2817 0.81292 0.0
O236 O 0.45069 0.36267 0.80754 0.0
O237 O 0.47887 0.33769 0.8185 0.0
Co238 Co 0.68611 0.11773 0.80856 0.0
O239 O 0.69073 0.10991 0.87802 0.0
O240 O 0.70429 0.08901 0.81456 0.0
C241 C 0.63505 0.11095 0.81599 0.0
O242 O 0.68395 0.11884 0.73196 0.0
Co243 Co 0.67663 0.17582 0.77461 0.0
O244 O 0.66959 0.15588 0.70762 0.0
C245 C 0.73879 0.18776 0.82085 0.0
C246 C 0.70277 0.09189 0.86253 0.0
C247 C 0.67582 0.13299 0.69808 0.0
O248 O 0.73172 0.15809 0.81081 0.0
O249 O 0.7185 0.1981 0.81395 0.0
O250 O 0.63851 0.08524 0.81144 0.0
O251 O 0.66197 0.13868 0.81885 0.0
Co252 Co 0.43493 0.11555 0.30741 0.0
O253 O 0.42215 0.10912 0.37663 0.0
O254 O 0.38787 0.08755 0.31301 0.0
C255 C 0.47832 0.10754 0.31757 0.0
O256 O 0.43837 0.1153 0.23105 0.0
Co257 Co 0.50331 0.17055 0.27058 0.0
O258 O 0.49142 0.14493 0.20792 0.0
C259 C 0.45272 0.18703 0.30324 0.0
C260 C 0.39213 0.09095 0.36095 0.0
C261 C 0.46136 0.12483 0.19811 0.0
O262 O 0.43049 0.15638 0.30604 0.0
O263 O 0.48293 0.19693 0.29316 0.0
O264 O 0.44884 0.08229 0.31317 0.0
O265 O 0.48012 0.13579 0.31832 0.0
Co266 Co 0.88569 0.31795 0.30519 0.0
O267 O 0.89491 0.31054 0.372 0.0
O268 O 0.91437 0.29906 0.30466 0.0
C269 C 0.89386 0.36862 0.32306 0.0
O270 O 0.88228 0.32394 0.22966 0.0
Co271 Co 0.82763 0.3304 0.28472 0.0
O272 O 0.84861 0.34462 0.21873 0.0
C273 C 0.81566 0.26537 0.31882 0.0
C274 C 0.91258 0.29916 0.3531 0.0
C275 C 0.86935 0.33703 0.20196 0.0
O276 O 0.84494 0.27258 0.30569 0.0
O277 O 0.80561 0.28619 0.31747 0.0
O278 O 0.91892 0.36521 0.31149 0.0
O279 O 0.86597 0.34185 0.32458 0.0
Co280 Co 0.68337 0.5686 0.30443 0.0
O281 O 0.68891 0.58232 0.37307 0.0
O282 O 0.70386 0.61589 0.30826 0.0
C283 C 0.63118 0.52646 0.313 0.0
O284 O 0.68058 0.56373 0.22825 0.0
Co285 Co 0.6696 0.49881 0.27405 0.0
O286 O 0.65831 0.51012 0.2087 0.0
C287 C 0.7342 0.54817 0.31543 0.0
C288 C 0.70219 0.61222 0.35638 0.0
C289 C 0.66783 0.53978 0.19672 0.0
O290 O 0.72792 0.57145 0.30665 0.0
O291 O 0.71299 0.5177 0.30918 0.0
O292 O 0.63644 0.55622 0.30731 0.0
O293 O 0.65709 0.52383 0.31661 0.0
Co294 Co 0.45035 0.0988 0.87796 0.0
O295 O 0.44316 0.08605 0.80885 0.0
O296 O 0.42495 0.05153 0.87261 0.0
C297 C 0.43831 0.13948 0.86999 0.0
O298 O 0.45161 0.10255 0.95435 0.0
Co299 Co 0.50398 0.16893 0.91118 0.0
O300 O 0.48089 0.15596 0.97608 0.0
C301 C 0.52236 0.12203 0.86865 0.0
C302 C 0.42708 0.0559 0.82462 0.0
C303 C 0.46164 0.12587 0.98686 0.0
O304 O 0.49302 0.09786 0.87597 0.0
O305 O 0.53041 0.15209 0.87626 0.0
O306 O 0.41453 0.10928 0.87498 0.0
O307 O 0.46744 0.14348 0.86703 0.0
Co308 Co 0.90301 0.35161 0.88061 0.0
O309 O 0.91707 0.35575 0.81239 0.0
O310 O 0.95058 0.37266 0.87735 0.0
C311 C 0.86126 0.29909 0.8738 0.0
O312 O 0.89714 0.35034 0.95679 0.0
Co313 Co 0.83231 0.33839 0.90469 0.0
O314 O 0.84454 0.33581 0.97431 0.0
C315 C 0.88234 0.40173 0.86205 0.0
C316 C 0.94699 0.36993 0.82919 0.0
C317 C 0.87344 0.34307 0.98785 0.0
O318 O 0.90538 0.3959 0.87502 0.0
O319 O 0.85175 0.38028 0.86575 0.0
O320 O 0.89109 0.30474 0.88073 0.0
O321 O 0.85854 0.32474 0.86757 0.0
Co322 Co 0.65193 0.55084 0.87589 0.0
O323 O 0.64525 0.55738 0.80681 0.0
O324 O 0.63022 0.57639 0.87107 0.0
C325 C 0.70451 0.56229 0.86643 0.0
O326 O 0.6553 0.55054 0.95216 0.0
Co327 Co 0.66951 0.49828 0.91107 0.0
O328 O 0.67943 0.52162 0.97564 0.0
C329 C 0.60195 0.47824 0.87597 0.0
C330 C 0.63157 0.57376 0.82305 0.0
C331 C 0.66847 0.54088 0.98537 0.0
O332 O 0.60807 0.50825 0.87613 0.0
O333 O 0.62393 0.47032 0.88466 0.0
O334 O 0.6984 0.58631 0.87114 0.0
O335 O 0.67917 0.53328 0.86472 0.0
Co336 Co 0.56689 0.88326 0.7092 0.0
O337 O 0.57917 0.89073 0.63969 0.0
O338 O 0.6139 0.91172 0.70283 0.0
C339 C 0.52301 0.89064 0.70126 0.0
O340 O 0.5635 0.88216 0.78588 0.0
Co341 Co 0.49856 0.82564 0.74253 0.0
O342 O 0.51195 0.84495 0.80968 0.0
C343 C 0.5489 0.81284 0.69885 0.0
C344 C 0.60929 0.90876 0.65487 0.0
C345 C 0.54115 0.86761 0.81958 0.0
O346 O 0.5717 0.84266 0.70758 0.0
O347 O 0.51829 0.8028 0.70537 0.0
O348 O 0.55232 0.91615 0.70588 0.0
O349 O 0.52184 0.86276 0.69869 0.0
Co350 Co 0.11648 0.68542 0.7101 0.0
O351 O 0.10903 0.69237 0.64183 0.0
O352 O 0.08695 0.70305 0.70683 0.0
C353 C 0.11044 0.63521 0.69434 0.0
O354 O 0.11763 0.68078 0.78629 0.0
Co355 Co 0.17393 0.6739 0.74033 0.0
O356 O 0.15435 0.66532 0.80749 0.0
C357 C 0.18716 0.74064 0.71212 0.0
C358 C 0.0903 0.70317 0.65869 0.0
C359 C 0.13203 0.67202 0.81883 0.0
O360 O 0.15625 0.73134 0.71193 0.0
O361 O 0.19829 0.72098 0.71884 0.0
O362 O 0.08457 0.63783 0.70299 0.0
O363 O 0.13802 0.66237 0.69488 0.0
Co364 Co 0.31552 0.4319 0.71327 0.0
O365 O 0.30771 0.41598 0.64605 0.0
O366 O 0.29576 0.38419 0.7124 0.0
C367 C 0.36661 0.47378 0.69562 0.0
O368 O 0.32175 0.44045 0.78909 0.0
Co369 Co 0.32966 0.50261 0.73618 0.0
O370 O 0.3442 0.49494 0.80132 0.0
C371 C 0.26413 0.45101 0.70086 0.0
C372 C 0.29591 0.38666 0.66404 0.0
C373 C 0.33579 0.46624 0.8173 0.0
O374 O 0.27061 0.42833 0.71332 0.0
O375 O 0.28549 0.48171 0.70309 0.0
O376 O 0.3625 0.44497 0.70652 0.0
O377 O 0.34024 0.47568 0.69478 0.0
Co378 Co 0.55185 0.90112 0.13824 0.0
O379 O 0.55993 0.91502 0.20683 0.0
O380 O 0.58153 0.94822 0.14222 0.0
C381 C 0.55764 0.85641 0.14913 0.0
O382 O 0.55022 0.89527 0.06189 0.0
Co383 Co 0.49215 0.83299 0.10946 0.0
O384 O 0.51559 0.84173 0.04512 0.0
C385 C 0.48225 0.886 0.14934 0.0
C386 C 0.57852 0.94468 0.19037 0.0
C387 C 0.53758 0.87049 0.03168 0.0
O388 O 0.5122 0.90759 0.13868 0.0
O389 O 0.47084 0.855 0.14486 0.0
O390 O 0.58368 0.88521 0.14322 0.0
O391 O 0.53027 0.85637 0.15158 0.0
Co392 Co 0.09918 0.64817 0.13688 0.0
O393 O 0.08411 0.64007 0.20471 0.0
O394 O 0.05221 0.63205 0.13939 0.0
C395 C 0.14449 0.69722 0.1543 0.0
O396 O 0.10629 0.65496 0.06104 0.0
Co397 Co 0.16747 0.65745 0.10729 0.0
O398 O 0.16018 0.67575 0.04548 0.0
C399 C 0.11179 0.59105 0.13139 0.0
C400 C 0.05493 0.6307 0.18748 0.0
C401 C 0.13138 0.66849 0.03154 0.0
O402 O 0.09122 0.60165 0.1326 0.0
O403 O 0.1428 0.6097 0.12493 0.0
O404 O 0.11648 0.69589 0.14653 0.0
O405 O 0.14356 0.66941 0.15288 0.0
Co406 Co 0.35088 0.45047 0.1396 0.0
O407 O 0.35477 0.44087 0.20831 0.0
O408 O 0.36779 0.42046 0.14363 0.0
C409 C 0.30041 0.44514 0.14803 0.0
O410 O 0.34912 0.45368 0.06313 0.0
Co411 Co 0.34407 0.51117 0.11153 0.0
O412 O 0.33913 0.49446 0.04267 0.0
C413 C 0.40511 0.51938 0.15618 0.0
C414 C 0.36613 0.42252 0.19178 0.0
C415 C 0.34356 0.47069 0.03077 0.0
O416 O 0.39711 0.48985 0.14335 0.0
O417 O 0.38554 0.53081 0.15173 0.0
O418 O 0.30294 0.41901 0.14148 0.0
O419 O 0.32783 0.47225 0.15216 0.0
Co420 Co 0.09944 0.4501 0.63765 0.0
O421 O 0.08693 0.44394 0.70706 0.0
O422 O 0.05219 0.42373 0.64378 0.0
C423 C 0.14125 0.43959 0.64725 0.0
O424 O 0.10252 0.44992 0.56108 0.0
Co425 Co 0.16889 0.50306 0.60085 0.0
O426 O 0.15539 0.47915 0.53674 0.0
C427 C 0.12082 0.52245 0.63587 0.0
C428 C 0.05672 0.42675 0.69171 0.0
C429 C 0.12513 0.45963 0.52743 0.0
O430 O 0.09731 0.49224 0.63696 0.0
O431 O 0.15075 0.53081 0.62635 0.0
O432 O 0.11126 0.41525 0.64286 0.0
O433 O 0.14448 0.46844 0.64821 0.0
Co434 Co 0.55047 0.64856 0.63854 0.0
O435 O 0.55737 0.64069 0.7066 0.0
O436 O 0.57791 0.62861 0.64102 0.0
C437 C 0.55969 0.70013 0.65153 0.0
O438 O 0.54986 0.65438 0.56259 0.0
Co439 Co 0.49444 0.66276 0.60971 0.0
O440 O 0.51933 0.67805 0.5467 0.0
C441 C 0.47846 0.59523 0.63653 0.0
C442 C 0.57492 0.62863 0.68919 0.0
C443 C 0.53952 0.66896 0.53297 0.0
O444 O 0.50914 0.60355 0.63642 0.0
O445 O 0.46833 0.61572 0.63021 0.0
O446 O 0.58453 0.69543 0.64552 0.0
O447 O 0.53125 0.67391 0.6531 0.0
Co448 Co 0.35057 0.90162 0.63727 0.0
O449 O 0.35806 0.91622 0.70526 0.0
O450 O 0.37212 0.94921 0.63987 0.0
C451 C 0.29855 0.86102 0.6525 0.0
O452 O 0.34574 0.89543 0.5613 0.0
Co453 Co 0.33309 0.83099 0.60809 0.0
O454 O 0.31994 0.8414 0.54367 0.0
C455 C 0.39952 0.87906 0.64634 0.0
C456 C 0.37131 0.94594 0.68809 0.0
C457 C 0.33097 0.87116 0.53064 0.0
O458 O 0.39437 0.90308 0.63746 0.0
O459 O 0.37724 0.84885 0.64088 0.0
O460 O 0.30421 0.89057 0.643 0.0
O461 O 0.32399 0.85745 0.65313 0.0
Co462 Co 0.11519 0.43199 0.20802 0.0
O463 O 0.10839 0.41779 0.13967 0.0
O464 O 0.09006 0.3844 0.20461 0.0
C465 C 0.10233 0.47162 0.19336 0.0
O466 O 0.11617 0.4375 0.28427 0.0
Co467 Co 0.16657 0.50271 0.23896 0.0
O468 O 0.14252 0.49137 0.30297 0.0
C469 C 0.18742 0.45642 0.20107 0.0
C470 C 0.09228 0.38795 0.15643 0.0
C471 C 0.12462 0.46136 0.31544 0.0
O472 O 0.15824 0.43182 0.20774 0.0
O473 O 0.19455 0.48631 0.20775 0.0
O474 O 0.07903 0.44173 0.20255 0.0
O475 O 0.13174 0.47619 0.19278 0.0
Co476 Co 0.56866 0.6827 0.21191 0.0
O477 O 0.58182 0.68717 0.14308 0.0
O478 O 0.616 0.70458 0.20736 0.0
C479 C 0.52786 0.62978 0.20594 0.0
O480 O 0.56467 0.68144 0.28811 0.0
Co481 Co 0.49821 0.66699 0.24248 0.0
O482 O 0.51202 0.66302 0.31051 0.0
C483 C 0.54554 0.73157 0.19901 0.0
C484 C 0.61191 0.70162 0.15935 0.0
C485 C 0.54178 0.67204 0.32114 0.0
O486 O 0.56961 0.72638 0.20756 0.0
O487 O 0.51539 0.70958 0.20584 0.0
O488 O 0.55809 0.63631 0.21135 0.0
O489 O 0.52397 0.65485 0.20093 0.0
Co490 Co 0.31817 0.88389 0.20874 0.0
O491 O 0.31201 0.89074 0.13948 0.0
O492 O 0.29538 0.90837 0.20352 0.0
C493 C 0.37136 0.89714 0.2004 0.0
O494 O 0.32078 0.8831 0.28517 0.0
Co495 Co 0.33741 0.83249 0.24358 0.0
O496 O 0.34483 0.85419 0.30924 0.0
C497 C 0.2699 0.81085 0.20627 0.0
C498 C 0.29757 0.90643 0.15551 0.0
C499 C 0.33338 0.87306 0.31879 0.0
O500 O 0.27501 0.84052 0.20776 0.0
O501 O 0.29251 0.80382 0.21499 0.0
O502 O 0.36421 0.92042 0.20525 0.0
O503 O 0.34668 0.86774 0.19794 0.0
C504 C 0.36676 0.2881 0.93608 0.0
C505 C 0.36149 0.28459 0.88431 0.0
H506 H 0.34535 0.27798 0.00878 0.0
C507 C 0.32903 0.26798 0.86632 0.0
H508 H 0.39146 0.30082 0.95127 0.0
C509 C 0.30243 0.25467 0.8996 0.0
C510 C 0.30785 0.25789 0.9514 0.0
H511 H 0.32419 0.26481 0.82668 0.0
H512 H 0.27766 0.24167 0.88474 0.0
C513 C 0.3403 0.27499 0.96917 0.0
C514 C 0.71433 0.08041 0.94958 0.0
C515 C 0.71555 0.07663 0.89772 0.0
H516 H 0.72693 0.07067 0.02212 0.0
C517 C 0.73021 0.059 0.87949 0.0
H518 H 0.7032 0.09391 0.9648 0.0
C519 C 0.7438 0.0459 0.91213 0.0
C520 C 0.74304 0.04997 0.96395 0.0
H521 H 0.73159 0.05564 0.83983 0.0
H522 H 0.75517 0.03272 0.89653 0.0
C523 C 0.7279 0.06713 0.98244 0.0
C524 C 0.95581 0.69946 0.90951 0.0
C525 C 0.95228 0.69441 0.96133 0.0
H526 H 0.94618 0.6777 0.83701 0.0
C527 C 0.93626 0.66207 0.97962 0.0
H528 H 0.96814 0.72407 0.8941 0.0
C529 C 0.92354 0.63534 0.9466 0.0
C530 C 0.92677 0.64051 0.89475 0.0
H531 H 0.93316 0.6574 0.01929 0.0
H532 H 0.9109 0.61065 0.9617 0.0
C533 C 0.94328 0.67286 0.87666 0.0
C534 C 0.28626 0.36329 0.57826 0.0
C535 C 0.28305 0.358 0.63002 0.0
H536 H 0.27642 0.34199 0.50552 0.0
C537 C 0.26712 0.32554 0.64792 0.0
H538 H 0.29846 0.38798 0.5631 0.0
C539 C 0.25432 0.29896 0.61453 0.0
C540 C 0.25735 0.30442 0.56275 0.0
H541 H 0.26424 0.32068 0.68755 0.0
H542 H 0.24188 0.27417 0.62928 0.0
C543 C 0.27363 0.33689 0.5451 0.0
C544 C 0.63178 0.91983 0.56747 0.0
C545 C 0.6371 0.92416 0.61926 0.0
H546 H 0.65368 0.92917 0.4946 0.0
C547 C 0.66946 0.94261 0.63696 0.0
H548 H 0.60707 0.90572 0.55265 0.0
C549 C 0.69593 0.95591 0.60389 0.0
C550 C 0.69081 0.95118 0.55216 0.0
H551 H 0.67446 0.94646 0.67651 0.0
H552 H 0.72056 0.96967 0.61914 0.0
C553 C 0.65841 0.93327 0.53418 0.0
C554 C 0.06489 0.72771 0.53957 0.0
C555 C 0.04837 0.74357 0.55771 0.0
H556 H 0.09099 0.70252 0.55722 0.0
C557 C 0.04463 0.74499 0.60949 0.0
H558 H 0.0682 0.7262 0.49993 0.0
C559 C 0.05763 0.7313 0.64245 0.0
C560 C 0.07475 0.71605 0.62428 0.0
H561 H 0.03199 0.75703 0.62467 0.0
H562 H 0.05476 0.73318 0.68213 0.0
C563 C 0.07798 0.71416 0.57247 0.0
C564 C 0.67253 0.73203 0.14278 0.0
C565 C 0.64013 0.71474 0.12466 0.0
H566 H 0.72383 0.75878 0.125 0.0
C567 C 0.63491 0.71062 0.07296 0.0
H568 H 0.67736 0.73563 0.1824 0.0
C569 C 0.66155 0.72382 0.04003 0.0
C570 C 0.69394 0.74148 0.05814 0.0
H571 H 0.61022 0.6974 0.05784 0.0
H572 H 0.65673 0.7205 1.00039 0.0
C573 C 0.69916 0.7453 0.10986 0.0
C574 C 0.28793 0.92043 0.06899 0.0
C575 C 0.28415 0.92135 0.12088 0.0
H576 H 0.27809 0.93335 0.99682 0.0
C577 C 0.26733 0.93672 0.13965 0.0
H578 H 0.30083 0.90877 0.05339 0.0
C579 C 0.25436 0.95065 0.10741 0.0
C580 C 0.25795 0.94968 0.05554 0.0
H581 H 0.264 0.93789 0.17936 0.0
H582 H 0.24139 0.96214 0.12334 0.0
C583 C 0.27499 0.93454 0.03659 0.0
C584 C 0.07883 0.36494 0.06999 0.0
C585 C 0.07742 0.35966 0.12176 0.0
H586 H 0.06704 0.34326 0.99721 0.0
C587 C 0.06196 0.32728 0.1397 0.0
H588 H 0.09053 0.38965 0.05495 0.0
C589 C 0.04857 0.30074 0.10656 0.0
C590 C 0.05023 0.30602 0.05477 0.0
H591 H 0.06045 0.3224 0.17932 0.0
H592 H 0.03709 0.27604 0.1216 0.0
C593 C 0.06532 0.33839 0.03684 0.0
C594 C 0.7318 0.67296 0.37221 0.0
C595 C 0.71572 0.64067 0.39074 0.0
H596 H 0.75813 0.72438 0.38934 0.0
C597 C 0.71344 0.63576 0.44257 0.0
H598 H 0.734 0.67756 0.33249 0.0
C599 C 0.72724 0.66259 0.47519 0.0
C600 C 0.74366 0.69488 0.45664 0.0
H601 H 0.70121 0.61116 0.45804 0.0
H602 H 0.72529 0.65799 0.51491 0.0
C603 C 0.74565 0.69979 0.40482 0.0
C604 C 0.3428 0.06531 0.48087 0.0
C605 C 0.31036 0.04789 0.46287 0.0
H606 H 0.39411 0.09266 0.46277 0.0
C607 C 0.30511 0.04394 0.41115 0.0
H608 H 0.34765 0.06884 0.52048 0.0
C609 C 0.33168 0.05754 0.37811 0.0
C610 C 0.36409 0.07548 0.39603 0.0
H611 H 0.28041 0.03065 0.39605 0.0
H612 H 0.32675 0.05433 0.33849 0.0
C613 C 0.3694 0.07902 0.44777 0.0
C614 C 0.94338 0.2687 0.36731 0.0
C615 C 0.92876 0.28625 0.38617 0.0
H616 H 0.96727 0.24107 0.38438 0.0
C617 C 0.92841 0.29048 0.438 0.0
H618 H 0.94398 0.265 0.3276 0.0
C619 C 0.94176 0.27697 0.47036 0.0
C620 C 0.95567 0.25874 0.45176 0.0
H621 H 0.91746 0.30398 0.45382 0.0
H622 H 0.94064 0.28038 0.51006 0.0
C623 C 0.95665 0.25498 0.39986 0.0
C624 C 0.0314 0.62068 0.27333 0.0
C625 C 0.02635 0.61816 0.22152 0.0
H626 H 0.00957 0.60974 0.34579 0.0
C627 C 0.99397 0.60261 0.20318 0.0
H628 H 0.05605 0.63257 0.28872 0.0
C629 C 0.96721 0.58928 0.23609 0.0
C630 C 0.97236 0.59148 0.28792 0.0
H631 H 0.98929 0.60022 0.16347 0.0
H632 H 0.94251 0.57703 0.2209 0.0
C633 C 0.00475 0.60761 0.30612 0.0
C634 C 0.39006 0.39608 0.31092 0.0
C635 C 0.40565 0.37941 0.29229 0.0
H636 H 0.36526 0.42275 0.29372 0.0
C637 C 0.40671 0.3757 0.24042 0.0
H638 H 0.38885 0.39936 0.35063 0.0
C639 C 0.39316 0.38897 0.20785 0.0
C640 C 0.37831 0.40636 0.22635 0.0
H641 H 0.41847 0.3629 0.22479 0.0
H642 H 0.39492 0.38613 0.16814 0.0
C643 C 0.37657 0.40947 0.27826 0.0
C644 C 0.5911 0.96778 0.27695 0.0
C645 C 0.5942 0.97299 0.22514 0.0
H646 H 0.60138 0.98953 0.3497 0.0
C647 C 0.61133 0.0054 0.20719 0.0
H648 H 0.57803 0.94309 0.29204 0.0
C649 C 0.6246 0.03202 0.24031 0.0
C650 C 0.62115 0.02681 0.29211 0.0
H651 H 0.6141 0.01026 0.16755 0.0
H652 H 0.63735 0.05671 0.22522 0.0
C653 C 0.60449 0.99439 0.31006 0.0
C654 C 0.4012 0.00675 0.7045 0.0
C655 C 0.38513 0.97434 0.72249 0.0
H656 H 0.42713 0.05806 0.72279 0.0
C657 C 0.38264 0.96902 0.77424 0.0
H658 H 0.40352 0.01162 0.66485 0.0
C659 C 0.39607 0.9955 0.80734 0.0
C660 C 0.41235 0.02791 0.78947 0.0
H661 H 0.37039 0.94432 0.78934 0.0
H662 H 0.39384 0.99052 0.84696 0.0
C663 C 0.41472 0.03331 0.73771 0.0
C664 C 0.03431 0.41508 0.77888 0.0
C665 C 0.02882 0.41156 0.72714 0.0
H666 H 0.01281 0.40455 0.85184 0.0
C667 C 0.99634 0.39356 0.70954 0.0
H668 H 0.05907 0.42877 0.79364 0.0
C669 C 0.96993 0.3797 0.74282 0.0
C670 C 0.97534 0.38347 0.79453 0.0
H671 H 0.99125 0.39034 0.66996 0.0
H672 H 0.94519 0.36624 0.72788 0.0
C673 C 0.00783 0.40115 0.81225 0.0
C674 C 0.60125 0.60408 0.80727 0.0
C675 C 0.61772 0.5883 0.78856 0.0
H676 H 0.57487 0.62912 0.79062 0.0
C677 C 0.62045 0.58625 0.73668 0.0
H678 H 0.5987 0.60607 0.84702 0.0
C679 C 0.60684 0.5996 0.70422 0.0
C680 C 0.59013 0.61513 0.72303 0.0
H681 H 0.63302 0.57424 0.72111 0.0
H682 H 0.60919 0.59751 0.66445 0.0
C683 C 0.58757 0.61728 0.77489 0.0
C684 C 0.25259 0.09727 0.99617 0.0
C685 C 0.22856 0.06581 0.01236 0.0
H686 H 0.26788 0.1489 0.99473 0.0
C687 C 0.20374 0.0628 0.04464 0.0
H688 H 0.27205 0.10016 0.97137 0.0
C689 C 0.20156 0.09013 0.05826 0.0
C690 C 0.22395 0.12143 0.03959 0.0
H691 H 0.18527 0.03897 0.05864 0.0
H692 H 0.18143 0.08642 0.08226 0.0
C693 C 0.25022 0.12504 0.00962 0.0
C694 C 0.94229 0.13735 0.03 0.0
C695 C 0.93848 0.1604 1.00189 0.0
H696 H 0.91957 0.09069 0.06531 0.0
C697 C 0.90651 0.15402 0.99075 0.0
H698 H 0.96648 0.14176 0.04042 0.0
C699 C 0.87893 0.12392 1.00515 0.0
C700 C 0.88328 0.10024 0.03102 0.0
H701 H 0.90293 0.17158 0.96949 0.0
H702 H 0.85453 0.11864 0.99428 0.0
C703 C 0.91523 0.10794 0.04451 0.0
C704 C 0.86895 0.79976 0.96993 0.0
C705 C 0.83961 0.77295 0.98707 0.0
H706 H 0.92122 0.82509 0.97047 0.0
C707 C 0.84098 0.74828 0.01494 0.0
H708 H 0.86874 0.81888 0.94774 0.0
C709 C 0.87165 0.75195 0.02858 0.0
C710 C 0.901 0.78035 0.01447 0.0
H711 H 0.8186 0.72739 0.02875 0.0
H712 H 0.87238 0.73364 0.05222 0.0
C713 C 0.89914 0.80339 0.9833 0.0
C714 C 0.12265 0.24742 0.49133 0.0
C715 C 0.1217 0.21708 0.49622 0.0
H716 H 0.09559 0.27321 0.49841 0.0
C717 C 0.09382 0.1905 0.51773 0.0
H718 H 0.14396 0.26843 0.47527 0.0
C719 C 0.06676 0.19328 0.53106 0.0
C720 C 0.06657 0.22272 0.52337 0.0
H721 H 0.09245 0.16699 0.52334 0.0
H722 H 0.04544 0.17175 0.54595 0.0
C723 C 0.09512 0.25021 0.50477 0.0
C724 C 0.7952 0.86733 0.55362 0.0
C725 C 0.7703 0.8383 0.53219 0.0
H726 H 0.81869 0.91948 0.55768 0.0
C727 C 0.74666 0.83973 0.5017 0.0
H728 H 0.81359 0.86705 0.57753 0.0
C729 C 0.74981 0.87037 0.48953 0.0
C730 C 0.77665 0.89962 0.50785 0.0
H731 H 0.72736 0.8176 0.48441 0.0
H732 H 0.7327 0.8713 0.46343 0.0
C733 C 0.79823 0.89751 0.54187 0.0
C734 C 0.13308 0.88152 0.497 0.0
C735 C 0.10361 0.88067 0.51004 0.0
H736 H 0.18612 0.91 0.49787 0.0
C737 C 0.10517 0.90547 0.54118 0.0
H738 H 0.1326 0.86265 0.47323 0.0
C739 C 0.13529 0.93202 0.55523 0.0
C740 C 0.16478 0.93454 0.53879 0.0
H741 H 0.08295 0.90519 0.55296 0.0
H742 H 0.13543 0.95153 0.57693 0.0
C743 C 0.16363 0.90845 0.51131 0.0
C744 C 0.74776 0.90224 0.03054 0.0
C745 C 0.76728 0.93282 1.00735 0.0
H746 H 0.73673 0.85188 0.03568 0.0
C747 C 0.78666 0.93487 0.96626 0.0
H748 H 0.73267 0.90017 0.06236 0.0
C749 C 0.78888 0.90778 0.95111 0.0
C750 C 0.77184 0.87786 0.97674 0.0
H751 H 0.80156 0.95806 0.94719 0.0
H752 H 0.80547 0.9108 0.9209 0.0
C753 C 0.75005 0.87473 0.01523 0.0
C754 C 0.12538 0.87629 0.01032 0.0
C755 C 0.12173 0.89688 0.97589 0.0
H756 H 0.10046 0.83175 0.05385 0.0
C757 C 0.09095 0.88603 0.9537 0.0
H758 H 0.1489 0.88425 0.02813 0.0
C759 C 0.06375 0.85677 0.96858 0.0
C760 C 0.06654 0.83738 1.00583 0.0
H761 H 0.08748 0.90113 0.92659 0.0
H762 H 0.04008 0.84998 0.95218 0.0
C763 C 0.09778 0.84646 0.0252 0.0
C764 C 0.13655 0.20912 0.0468 0.0
C765 C 0.16589 0.23379 0.02577 0.0
H766 H 0.08425 0.18517 0.04802 0.0
C767 C 0.16482 0.25686 0.99351 0.0
H768 H 0.13656 0.19128 0.07226 0.0
C769 C 0.13429 0.25326 0.97922 0.0
C770 C 0.10487 0.2265 0.99704 0.0
H771 H 0.18719 0.276 0.97658 0.0
H772 H 0.13364 0.2699 0.95193 0.0
C773 C 0.10649 0.20552 0.03266 0.0
C774 C 0.90901 0.7496 0.50654 0.0
C775 C 0.93546 0.77544 0.48092 0.0
H776 H 0.86234 0.73325 0.54277 0.0
C777 C 0.93299 0.80274 0.46623 0.0
H778 H 0.91049 0.72835 0.51854 0.0
C779 C 0.90606 0.80564 0.48015 0.0
C780 C 0.88075 0.78132 0.50932 0.0
H781 H 0.95274 0.82281 0.44587 0.0
H782 H 0.90575 0.82776 0.46958 0.0
C783 C 0.88166 0.7525 0.52065 0.0
C784 C 0.21128 0.13463 0.46039 0.0
C785 C 0.23573 0.16395 0.48188 0.0
H786 H 0.18794 0.08236 0.45817 0.0
C787 C 0.25918 0.16301 0.51345 0.0
H788 H 0.1931 0.13459 0.43555 0.0
C789 C 0.25612 0.13259 0.52684 0.0
C790 C 0.22954 0.10308 0.50875 0.0
H791 H 0.27811 0.18534 0.5308 0.0
H792 H 0.27293 0.13205 0.55394 0.0
C793 C 0.20825 0.10463 0.47356 0.0
C794 C 0.87523 0.12418 0.49434 0.0
C795 C 0.89342 0.12165 0.53412 0.0
H796 H 0.83248 0.09811 0.44719 0.0
C797 C 0.8799 0.09242 0.56169 0.0
H798 H 0.8853 0.14648 0.47238 0.0
C799 C 0.85041 0.06526 0.5473 0.0
C800 C 0.8335 0.06659 0.50512 0.0
H801 H 0.89317 0.08992 0.59286 0.0
H802 H 0.8416 0.04255 0.56795 0.0
C803 C 0.8452 0.09661 0.47986 0.0
C804 C 0.87125 0.42347 0.39278 0.0
C805 C 0.89148 0.45441 0.37122 0.0
H806 H 0.85655 0.37268 0.39439 0.0
C807 C 0.91601 0.45813 0.33727 0.0
H808 H 0.85255 0.41982 0.41975 0.0
C809 C 0.91847 0.43058 0.32267 0.0
C810 C 0.89625 0.39928 0.34177 0.0
H811 H 0.93193 0.48175 0.32007 0.0
H812 H 0.93634 0.4334 0.29475 0.0
C813 C 0.8735 0.39635 0.37811 0.0
C814 C 0.57307 0.49518 0.34569 0.0
C815 C 0.59834 0.49672 0.31557 0.0
H816 H 0.5275 0.46345 0.38383 0.0
C817 C 0.59443 0.46771 0.29444 0.0
H818 H 0.5757 0.51728 0.36272 0.0
C819 C 0.56735 0.43747 0.30622 0.0
C820 C 0.54348 0.43527 0.33993 0.0
H821 H 0.61325 0.46807 0.27078 0.0
H822 H 0.56605 0.4155 0.2908 0.0
C823 C 0.54564 0.46446 0.35789 0.0
C824 C 0.50973 0.08029 0.34873 0.0
C825 C 0.50866 0.10557 0.32212 0.0
H826 H 0.54074 0.06465 0.38468 0.0
C827 C 0.53821 0.13246 0.30559 0.0
H828 H 0.48722 0.05932 0.36203 0.0
C829 C 0.56826 0.13554 0.31847 0.0
C830 C 0.56979 0.11187 0.34848 0.0
H831 H 0.5383 0.15208 0.28436 0.0
H832 H 0.59049 0.15734 0.30634 0.0
C833 C 0.54026 0.08341 0.36185 0.0
C834 C 0.7895 0.58675 0.81839 0.0
C835 C 0.79233 0.56009 0.83623 0.0
H836 H 0.75877 0.6088 0.81463 0.0
C837 C 0.76939 0.53864 0.87105 0.0
H838 H 0.80703 0.60371 0.79163 0.0
C839 C 0.74249 0.54173 0.88437 0.0
C840 C 0.73767 0.56626 0.86314 0.0
H841 H 0.77136 0.51832 0.8863 0.0
H842 H 0.72442 0.52356 0.90921 0.0
C843 C 0.7621 0.58978 0.83175 0.0
C844 C 0.45683 0.19737 0.88899 0.0
C845 C 0.43373 0.16818 0.86567 0.0
H846 H 0.47953 0.24956 0.8917 0.0
C847 C 0.4118 0.16907 0.83079 0.0
H848 H 0.47391 0.1974 0.91612 0.0
C849 C 0.41524 0.19944 0.81614 0.0
C850 C 0.44068 0.22887 0.83634 0.0
H851 H 0.39401 0.14679 0.81193 0.0
H852 H 0.39983 0.20004 0.78662 0.0
C853 C 0.46018 0.2273 0.87468 0.0
C854 C 0.77224 0.2355 0.87536 0.0
C855 C 0.77105 0.21167 0.84248 0.0
H856 H 0.80199 0.28124 0.91217 0.0
C857 C 0.80071 0.21365 0.82746 0.0
H858 H 0.74982 0.23428 0.8885 0.0
C859 C 0.83106 0.24093 0.84149 0.0
C860 C 0.83175 0.26618 0.87066 0.0
H861 H 0.80043 0.1955 0.80226 0.0
H862 H 0.85364 0.24353 0.82641 0.0
C863 C 0.80216 0.26238 0.88919 0.0
C864 C 0.4641 0.24393 0.2907 0.0
C865 C 0.44434 0.21307 0.31274 0.0
H866 H 0.4784 0.2946 0.28882 0.0
C867 C 0.4202 0.20936 0.34749 0.0
H868 H 0.48248 0.24756 0.26314 0.0
C869 C 0.41771 0.23686 0.36236 0.0
C870 C 0.4395 0.26812 0.34272 0.0
H871 H 0.40464 0.18579 0.36509 0.0
H872 H 0.40015 0.23404 0.39083 0.0
C873 C 0.46181 0.27099 0.3056 0.0
C874 C 0.78961 0.20321 0.31978 0.0
C875 C 0.79198 0.23236 0.33837 0.0
H876 H 0.75972 0.15034 0.3156 0.0
C877 C 0.7689 0.2301 0.37369 0.0
H878 H 0.8072 0.20427 0.29268 0.0
C879 C 0.74231 0.19983 0.3866 0.0
C880 C 0.73809 0.17082 0.36501 0.0
H881 H 0.77047 0.25204 0.38971 0.0
H882 H 0.72404 0.19941 0.41157 0.0
C883 C 0.76264 0.17244 0.33307 0.0
C884 C 0.82677 0.58746 0.33524 0.0
C885 C 0.82783 0.56229 0.36214 0.0
H886 H 0.79576 0.60289 0.29878 0.0
C887 C 0.79827 0.53538 0.37865 0.0
H888 H 0.84928 0.60842 0.32193 0.0
C889 C 0.76821 0.53212 0.36531 0.0
C890 C 0.76672 0.55569 0.33505 0.0
H891 H 0.79819 0.51586 0.40014 0.0
H892 H 0.74595 0.51029 0.37732 0.0
C893 C 0.79624 0.5842 0.3218 0.0
C894 C 0.60224 0.13867 0.81075 0.0
C895 C 0.60321 0.10993 0.82133 0.0
H896 H 0.57616 0.16472 0.81695 0.0
C897 C 0.57549 0.08313 0.84304 0.0
H898 H 0.62294 0.1596 0.79341 0.0
C899 C 0.54815 0.08611 0.85696 0.0
C900 C 0.5485 0.11599 0.84947 0.0
H901 H 0.57568 0.06071 0.85175 0.0
H902 H 0.52759 0.06577 0.87561 0.0
C903 C 0.57538 0.14168 0.82461 0.0
C904 C 0.8702 0.46654 0.79993 0.0
C905 C 0.89693 0.49582 0.81762 0.0
H906 H 0.84523 0.41425 0.79918 0.0
C907 C 0.92193 0.4944 0.8445 0.0
H908 H 0.85079 0.46682 0.77855 0.0
C909 C 0.9186 0.46373 0.85694 0.0
C910 C 0.89025 0.4344 0.84252 0.0
H911 H 0.94274 0.51671 0.85873 0.0
H912 H 0.93705 0.46297 0.88024 0.0
C913 C 0.86695 0.43631 0.81202 0.0
C914 C 0.56111 0.41871 0.87726 0.0
C915 C 0.56843 0.4507 0.86474 0.0
H916 H 0.52775 0.36746 0.8722 0.0
C917 C 0.54463 0.45489 0.83886 0.0
H918 H 0.57837 0.41434 0.89797 0.0
C919 C 0.51469 0.42726 0.82401 0.0
C920 C 0.50859 0.39534 0.83462 0.0
H921 H 0.54956 0.47927 0.82874 0.0
H922 H 0.49696 0.43078 0.80311 0.0
C923 C 0.53188 0.39161 0.86225 0.0
C924 C 0.58743 0.75881 0.68239 0.0
C925 C 0.56233 0.73273 0.65506 0.0
H926 H 0.60306 0.80548 0.71835 0.0
C927 C 0.53623 0.73607 0.63659 0.0
H928 H 0.60779 0.75673 0.69717 0.0
C929 C 0.53364 0.76344 0.64825 0.0
C930 C 0.55689 0.78824 0.67925 0.0
H931 H 0.51674 0.71677 0.6149 0.0
H932 H 0.51232 0.76436 0.63485 0.0
C933 C 0.58471 0.78657 0.69454 0.0
C934 C 0.20911 0.7942 0.66534 0.0
C935 C 0.21213 0.77543 0.70372 0.0
H936 H 0.23479 0.83699 0.6183 0.0
C937 C 0.24211 0.78805 0.72924 0.0
H938 H 0.18624 0.78481 0.64493 0.0
C939 C 0.26937 0.81718 0.714 0.0
C940 C 0.26739 0.83461 0.67304 0.0
H941 H 0.24504 0.77432 0.7593 0.0
H942 H 0.2926 0.82526 0.7329 0.0
C943 C 0.23678 0.82386 0.65002 0.0
C944 C 0.20184 0.41589 0.69819 0.0
C945 C 0.23146 0.44256 0.68066 0.0
H946 H 0.14897 0.39358 0.70067 0.0
C947 C 0.23007 0.46392 0.64543 0.0
H948 H 0.20224 0.39894 0.72512 0.0
C949 C 0.20014 0.46073 0.63141 0.0
C950 C 0.17066 0.43608 0.65207 0.0
H951 H 0.25239 0.4842 0.63018 0.0
H952 H 0.20032 0.47882 0.60626 0.0
C953 C 0.17145 0.4127 0.68398 0.0
C954 C 0.41142 0.87987 0.22184 0.0
C955 C 0.40498 0.90237 0.1973 0.0
H956 H 0.4414 0.85771 0.22617 0.0
C957 C 0.42785 0.92408 0.16232 0.0
H958 H 0.39439 0.86301 0.24913 0.0
C959 C 0.45516 0.92095 0.1488 0.0
C960 C 0.45947 0.89601 0.17016 0.0
H961 H 0.42313 0.94139 0.1425 0.0
H962 H 0.47121 0.93611 0.11914 0.0
C963 C 0.43831 0.87674 0.20849 0.0
C964 C 0.11571 0.54176 0.11243 0.0
C965 C 0.10051 0.55595 0.13971 0.0
H966 H 0.12755 0.50351 0.10828 0.0
C967 C 0.08053 0.53877 0.18065 0.0
H968 H 0.13112 0.55442 0.08065 0.0
C969 C 0.07851 0.50927 0.19673 0.0
C970 C 0.09649 0.49705 0.17184 0.0
H971 H 0.06887 0.54947 0.20255 0.0
H972 H 0.06516 0.49757 0.2305 0.0
C973 C 0.11377 0.51271 0.12838 0.0
C974 C 0.49763 0.57252 0.17078 0.0
C975 C 0.499 0.59643 0.20383 0.0
H976 H 0.46606 0.52843 0.12925 0.0
C977 C 0.47007 0.59116 0.22713 0.0
H978 H 0.51968 0.57633 0.15196 0.0
C979 C 0.43989 0.56428 0.21426 0.0
C980 C 0.43783 0.54203 0.17754 0.0
H981 H 0.47047 0.60907 0.25296 0.0
H982 H 0.41781 0.56205 0.23086 0.0
C983 C 0.46703 0.54528 0.15766 0.0
C984 C 0.08452 0.57299 0.68929 0.0
C985 C 0.10958 0.60492 0.67681 0.0
H986 H 0.06823 0.52113 0.68622 0.0
C987 C 0.13583 0.60869 0.64712 0.0
H988 H 0.06387 0.56945 0.71185 0.0
C989 C 0.13808 0.58164 0.63211 0.0
C990 C 0.11435 0.54972 0.6467 0.0
H991 H 0.15518 0.63285 0.63573 0.0
H992 H 0.15916 0.58602 0.6099 0.0
C993 C 0.08696 0.54545 0.67446 0.0
C994 C 0.42862 0.5106 0.69526 0.0
C995 C 0.39736 0.50135 0.67577 0.0
H996 H 0.47981 0.54836 0.69775 0.0
C997 C 0.39457 0.52056 0.63822 0.0
H998 H 0.43132 0.49602 0.72413 0.0
C999 C 0.42179 0.54968 0.62294 0.0
C1000 C 0.45263 0.56069 0.64507 0.0
H1001 H 0.3709 0.51365 0.62168 0.0
H1002 H 0.41829 0.5645 0.59535 0.0
C1003 C 0.45626 0.54034 0.68002 0.0
C1004 C 0.46139 0.91494 0.65644 0.0
C1005 C 0.43176 0.8855 0.66578 0.0
H1006 H 0.51437 0.94007 0.66093 0.0
C1007 C 0.43282 0.86061 0.69326 0.0
H1008 H 0.46126 0.93469 0.63582 0.0
C1009 C 0.46266 0.86385 0.7079 0.0
C1010 C 0.49244 0.892 0.69548 0.0
H1011 H 0.41049 0.83799 0.70244 0.0
H1012 H 0.46234 0.84348 0.72729 0.0
C1013 C 0.49168 0.91814 0.67114 0.0
C1014 C 0.21298 0.42047 0.1865 0.0
C1015 C 0.21437 0.45111 0.18328 0.0
H1016 H 0.2394 0.39416 0.17736 0.0
C1017 C 0.24264 0.47792 0.16294 0.0
H1018 H 0.19139 0.39924 0.20152 0.0
C1019 C 0.26948 0.47492 0.14886 0.0
C1020 C 0.26909 0.44505 0.15465 0.0
H1021 H 0.24446 0.50171 0.15858 0.0
H1022 H 0.29106 0.49656 0.13481 0.0
C1023 C 0.24028 0.41748 0.17233 0.0
C1024 C 0.52874 0.79572 0.14496 0.0
C1025 C 0.55797 0.82522 0.15452 0.0
H1026 H 0.50229 0.74362 0.15058 0.0
C1027 C 0.58505 0.82385 0.17428 0.0
H1028 H 0.50756 0.79576 0.12913 0.0
C1029 C 0.58195 0.79331 0.18719 0.0
C1030 C 0.55174 0.76398 0.18045 0.0
H1031 H 0.60788 0.84629 0.18211 0.0
H1032 H 0.60256 0.7928 0.20439 0.0
C1033 C 0.52568 0.76565 0.15757 0.0
C1034 C 0.17971 0.75919 0.16579 0.0
C1035 C 0.17574 0.72742 0.16691 0.0
H1036 H 0.21287 0.81105 0.17728 0.0
C1037 C 0.20239 0.72378 0.18181 0.0
H1038 H 0.1595 0.76269 0.15463 0.0
C1039 C 0.23223 0.75082 0.19503 0.0
C1040 C 0.23683 0.78278 0.19356 0.0
H1041 H 0.20032 0.69976 0.18371 0.0
H1042 H 0.25182 0.74636 0.2063 0.0
C1043 C 0.21016 0.78676 0.1789 0.0
C1044 C 0.20743 0.23751 0.23162 0.0
C1045 C 0.2205 0.22131 0.20388 0.0
H1046 H 0.19563 0.24775 0.30436 0.0
C1047 C 0.23531 0.20589 0.22914 0.0
H1048 H 0.19531 0.24899 0.21289 0.0
C1049 C 0.23453 0.20427 0.28126 0.0
C1050 C 0.21986 0.21892 0.30895 0.0
H1051 H 0.24483 0.19259 0.20856 0.0
H1052 H 0.24366 0.18993 0.29983 0.0
C1053 C 0.20762 0.2368 0.28384 0.0
C1054 C 0.82862 0.01179 0.23267 0.0
C1055 C 0.79941 0.00148 0.20592 0.0
H1056 H 0.85218 0.01964 0.30265 0.0
C1057 C 0.77022 0.99227 0.23263 0.0
H1058 H 0.85165 0.01952 0.21339 0.0
C1059 C 0.77031 0.99188 0.28536 0.0
C1060 C 0.79971 0.00123 0.31189 0.0
H1061 H 0.74731 0.98424 0.21292 0.0
H1062 H 0.74743 0.98372 0.30518 0.0
C1063 C 0.82884 0.01186 0.28438 0.0
C1064 C 0.03684 0.82822 0.27971 0.0
C1065 C 0.01442 0.80106 0.30781 0.0
H1066 H 0.0523 0.84952 0.20769 0.0
C1067 C 0.99158 0.77219 0.28285 0.0
H1068 H 0.05463 0.85075 0.29807 0.0
C1069 C 0.9899 0.77147 0.23036 0.0
C1070 C 0.01099 0.79969 0.20243 0.0
H1071 H 0.97374 0.75105 0.30384 0.0
H1072 H 0.97085 0.74971 0.21197 0.0
C1073 C 0.03531 0.8275 0.22785 0.0
C1074 C 0.78095 0.81125 0.78199 0.0
C1075 C 0.78526 0.78805 0.80873 0.0
H1076 H 0.78124 0.83158 0.71057 0.0
C1077 C 0.78904 0.76421 0.78261 0.0
H1078 H 0.77856 0.83018 0.80143 0.0
C1079 C 0.79016 0.76471 0.73026 0.0
C1080 C 0.78841 0.78963 0.70377 0.0
H1081 H 0.7931 0.74653 0.80265 0.0
H1082 H 0.79495 0.7473 0.71086 0.0
C1083 C 0.78268 0.81214 0.73008 0.0
C1084 C 0.21191 0.03782 0.73825 0.0
C1085 C 0.21782 0.01587 0.71096 0.0
H1086 H 0.20545 0.05358 0.80967 0.0
C1087 C 0.22547 0.99444 0.73664 0.0
H1088 H 0.20607 0.05465 0.71929 0.0
C1089 C 0.22472 0.99345 0.78912 0.0
C1090 C 0.21637 0.01392 0.81631 0.0
H1091 H 0.22982 0.97707 0.71626 0.0
H1092 H 0.22857 0.9753 0.80811 0.0
C1093 C 0.21144 0.03706 0.79012 0.0
C1094 C 0.96881 0.18294 0.73027 0.0
C1095 C 0.99445 0.20829 0.70311 0.0
H1096 H 0.95041 0.16193 0.8019 0.0
C1097 C 0.01994 0.23491 0.72893 0.0
H1098 H 0.94908 0.16202 0.71116 0.0
C1099 C 0.02069 0.23499 0.78138 0.0
C1100 C 0.99623 0.20816 0.80835 0.0
H1101 H 0.04028 0.25444 0.70866 0.0
H1102 H 0.0416 0.25466 0.80054 0.0
C1103 C 0.96968 0.18285 0.7822 0.0
C1104 C 0.87998 0.57195 0.56589 0.0
C1105 C 0.88439 0.54854 0.53961 0.0
H1106 H 0.87442 0.58889 0.63779 0.0
C1107 C 0.89034 0.52635 0.56622 0.0
H1108 H 0.87464 0.58882 0.54602 0.0
C1109 C 0.88949 0.52589 0.61823 0.0
C1110 C 0.88316 0.54795 0.64472 0.0
H1111 H 0.89318 0.50771 0.54671 0.0
H1112 H 0.89194 0.50703 0.63775 0.0
C1113 C 0.87983 0.57196 0.61825 0.0
C1114 C 0.49595 0.36111 0.56451 0.0
C1115 C 0.46724 0.34192 0.53686 0.0
H1116 H 0.51867 0.37401 0.63588 0.0
C1117 C 0.43747 0.32241 0.56238 0.0
H1118 H 0.51917 0.37655 0.54582 0.0
C1119 C 0.43714 0.32053 0.6149 0.0
C1120 C 0.46659 0.33822 0.64226 0.0
H1121 H 0.41501 0.3072 0.54179 0.0
H1122 H 0.41436 0.30397 0.63372 0.0
C1123 C 0.49561 0.35949 0.61628 0.0
C1124 C 0.65098 0.09986 0.62015 0.0
C1125 C 0.67764 0.12612 0.64485 0.0
H1126 H 0.62788 0.07966 0.54942 0.0
C1127 C 0.70368 0.1501 0.6166 0.0
H1128 H 0.63032 0.0814 0.64127 0.0
C1129 C 0.70223 0.14927 0.56467 0.0
C1130 C 0.67463 0.12445 0.5396 0.0
H1131 H 0.7243 0.17074 0.63479 0.0
H1132 H 0.72196 0.16924 0.54407 0.0
C1133 C 0.64959 0.09888 0.5677 0.0
C1134 C 0.46391 0.09889 0.11823 0.0
C1135 C 0.45285 0.1172 0.14506 0.0
H1136 H 0.47399 0.08613 0.04603 0.0
C1137 C 0.44005 0.13421 0.11901 0.0
H1138 H 0.47449 0.08614 0.13764 0.0
C1139 C 0.44068 0.13502 0.06691 0.0
C1140 C 0.45329 0.1181 0.04 0.0
H1141 H 0.43207 0.14907 0.13894 0.0
H1142 H 0.43299 0.15034 0.04767 0.0
C1143 C 0.46361 0.09888 0.06597 0.0
C1144 C 0.88911 0.32524 0.12024 0.0
C1145 C 0.87668 0.34231 0.14759 0.0
H1146 H 0.89833 0.31229 0.04719 0.0
C1147 C 0.86805 0.36292 0.12156 0.0
H1148 H 0.89604 0.30922 0.13907 0.0
C1149 C 0.86922 0.36448 0.06979 0.0
C1150 C 0.8795 0.34591 0.0422 0.0
H1151 H 0.85896 0.37697 0.14109 0.0
H1152 H 0.86073 0.37932 0.05105 0.0
C1153 C 0.89055 0.32707 0.06775 0.0
C1154 C 0.63735 0.52519 0.11641 0.0
C1155 C 0.66592 0.54632 0.14337 0.0
H1156 H 0.61566 0.50802 0.04445 0.0
C1157 C 0.69397 0.56963 0.11747 0.0
H1158 H 0.6155 0.50688 0.13557 0.0
C1159 C 0.69423 0.5698 0.06518 0.0
C1160 C 0.66614 0.54737 0.0384 0.0
H1161 H 0.71642 0.58583 0.13743 0.0
H1162 H 0.71687 0.58607 0.04573 0.0
C1163 C 0.63738 0.52593 0.06439 0.0
C1164 C 0.55173 0.90198 0.95032 0.0
C1165 C 0.547 0.87455 0.97822 0.0
H1166 H 0.55383 0.92152 0.87682 0.0
C1167 C 0.54637 0.84797 0.95306 0.0
H1168 H 0.55206 0.92268 0.96867 0.0
C1169 C 0.5476 0.84746 0.9012 0.0
C1170 C 0.54963 0.87353 0.87302 0.0
H1171 H 0.54303 0.8266 0.97344 0.0
H1172 H 0.54485 0.82564 0.88291 0.0
C1173 C 0.55283 0.90137 0.89787 0.0
C1174 C 0.09903 0.65126 0.95086 0.0
C1175 C 0.12731 0.67341 0.97787 0.0
H1176 H 0.07808 0.63336 0.87809 0.0
C1177 C 0.15443 0.69791 0.95164 0.0
H1178 H 0.07785 0.63197 0.97001 0.0
C1179 C 0.15449 0.69865 0.89975 0.0
C1180 C 0.1274 0.67508 0.87258 0.0
H1181 H 0.17648 0.71554 0.97122 0.0
H1182 H 0.17658 0.71664 0.88067 0.0
C1183 C 0.09913 0.65201 0.89837 0.0
C1184 C 0.32277 0.43641 0.95226 0.0
C1185 C 0.3455 0.46557 0.97674 0.0
H1186 H 0.3017 0.41341 0.88176 0.0
C1187 C 0.36748 0.49268 0.94811 0.0
H1188 H 0.30532 0.41527 0.97362 0.0
C1189 C 0.36556 0.49166 0.8963 0.0
C1190 C 0.34129 0.46358 0.87138 0.0
H1191 H 0.38528 0.5154 0.96603 0.0
H1192 H 0.38223 0.51365 0.87579 0.0
C1193 C 0.32068 0.4354 0.89977 0.0
C1194 C 0.1076 0.47375 0.4487 0.0
C1195 C 0.11605 0.453 0.47433 0.0
H1196 H 0.10368 0.49256 0.37786 0.0
C1197 C 0.12277 0.43151 0.44698 0.0
H1198 H 0.10301 0.49102 0.46899 0.0
C1199 C 0.12249 0.43188 0.39465 0.0
C1200 C 0.11657 0.45454 0.36907 0.0
H1201 H 0.13006 0.41582 0.46603 0.0
H1202 H 0.1295 0.41638 0.37438 0.0
C1203 C 0.10816 0.47474 0.39661 0.0
C1204 C 0.55268 0.65049 0.40008 0.0
C1205 C 0.55016 0.67523 0.37445 0.0
H1206 H 0.5519 0.62926 0.47149 0.0
C1207 C 0.54931 0.70027 0.40157 0.0
H1208 H 0.55285 0.63065 0.3797 0.0
C1209 C 0.54864 0.69946 0.45346 0.0
C1210 C 0.5486 0.67345 0.47949 0.0
H1211 H 0.54711 0.71942 0.38251 0.0
H1212 H 0.54623 0.71828 0.47321 0.0
C1213 C 0.55212 0.6497 0.45246 0.0
C1214 C 0.3017 0.85628 0.39734 0.0
C1215 C 0.33018 0.87893 0.37185 0.0
H1216 H 0.27967 0.83624 0.46805 0.0
C1217 C 0.35749 0.90222 0.39919 0.0
H1218 H 0.2806 0.83773 0.37698 0.0
C1219 C 0.35681 0.90177 0.4515 0.0
C1220 C 0.32916 0.87736 0.47697 0.0
H1221 H 0.37994 0.91947 0.38019 0.0
H1222 H 0.37876 0.91877 0.47183 0.0
C1223 C 0.30127 0.85533 0.44938 0.0
loop_
_geom_bond_atom_site_label_1
_geom_bond_atom_site_label_2
_geom_bond_distance
_geom_bond_site_symmetry_2
_ccdc_geom_bond_type
Co0 O1 2.216 1_554 S
Co0 O2 2.091 . S
Co0 O4 2.004 . S
Co0 O10 2.021 . S
Co0 O12 2.137 . S
Co0 O13 2.244 . S
O1 Co0 2.216 1_556 S
O1 C8 1.247 . S
O2 Co0 2.091 . S
O2 C8 1.261 1_554 S
C3 O12 1.247 . S
C3 O13 1.272 . S
O4 Co0 2.004 . S
O4 C9 1.259 . S
Co5 O6 2.061 . S
Co5 O11 2.052 . S
Co5 O13 2.135 . S
O6 Co5 2.061 . S
O6 C9 1.235 . S
C7 O10 1.238 . S
C7 O11 1.241 . S
C8 O1 1.247 . S
C8 O2 1.261 1_556 S
C9 O4 1.259 . S
C9 O6 1.235 . S
O10 Co0 2.021 . S
O10 C7 1.238 . S
O11 Co5 2.052 . S
O11 C7 1.241 . S
O12 Co0 2.137 . S
O12 C3 1.247 . S
O13 Co0 2.244 . S
O13 C3 1.272 . S
O13 Co5 2.135 . S
Co14 O15 2.216 1_554 S
Co14 O16 2.091 . S
Co14 O18 2.004 . S
Co14 O24 2.021 . S
Co14 O26 2.137 1_545 S
Co14 O27 2.244 1_545 S
O15 Co14 2.216 1_556 S
O15 C22 1.247 . S
O16 Co14 2.091 . S
O16 C22 1.261 1_554 S
C17 O26 1.247 . S
C17 O27 1.272 . S
O18 Co14 2.004 . S
O18 C23 1.259 . S
Co19 O20 2.061 . S
Co19 O25 2.052 . S
Co19 O27 2.135 1_545 S
O20 Co19 2.061 . S
O20 C23 1.235 . S
C21 O24 1.238 . S
C21 O25 1.241 . S
C22 O15 1.247 . S
C22 O16 1.261 1_556 S
C23 O18 1.259 . S
C23 O20 1.235 . S
O24 Co14 2.021 . S
O24 C21 1.238 . S
O25 Co19 2.052 . S
O25 C21 1.241 . S
O26 Co14 2.137 1_565 S
O26 C17 1.247 . S
O27 Co14 2.244 1_565 S
O27 C17 1.272 . S
O27 Co19 2.135 1_565 S
Co28 O29 2.216 1_554 S
Co28 O30 2.091 . S
Co28 O32 2.004 . S
Co28 O38 2.021 . S
Co28 O40 2.137 1_655 S
Co28 O41 2.244 1_655 S
O29 Co28 2.216 1_556 S
O29 C36 1.247 . S
O30 Co28 2.091 . S
O30 C36 1.261 1_554 S
C31 O40 1.247 . S
C31 O41 1.272 . S
O32 Co28 2.004 . S
O32 C37 1.259 . S
Co33 O34 2.061 . S
Co33 O39 2.052 . S
Co33 O41 2.135 1_655 S
O34 Co33 2.061 . S
O34 C37 1.235 . S
C35 O38 1.238 . S
C35 O39 1.241 . S
C36 O29 1.247 . S
C36 O30 1.261 1_556 S
C37 O32 1.259 . S
C37 O34 1.235 . S
O38 Co28 2.021 . S
O38 C35 1.238 . S
O39 Co33 2.052 . S
O39 C35 1.241 . S
O40 Co28 2.137 1_455 S
O40 C31 1.247 . S
O41 Co28 2.244 1_455 S
O41 C31 1.272 . S
O41 Co33 2.135 1_455 S
Co42 O43 2.216 . S
Co42 O44 2.091 . S
Co42 O46 2.004 . S
Co42 O52 2.021 . S
Co42 O54 2.137 . S
Co42 O55 2.244 . S
O43 Co42 2.216 . S
O43 C50 1.247 . S
O44 Co42 2.091 . S
O44 C50 1.261 . S
C45 O54 1.247 . S
C45 O55 1.272 . S
O46 Co42 2.004 . S
O46 C51 1.259 . S
Co47 O48 2.061 . S
Co47 O53 2.052 . S
Co47 O55 2.135 . S
O48 Co47 2.061 . S
O48 C51 1.235 . S
C49 O52 1.238 . S
C49 O53 1.241 . S
C50 O43 1.247 . S
C50 O44 1.261 . S
C51 O46 1.259 . S
C51 O48 1.235 . S
O52 Co42 2.021 . S
O52 C49 1.238 . S
O53 Co47 2.052 . S
O53 C49 1.241 . S
O54 Co42 2.137 . S
O54 C45 1.247 . S
O55 Co42 2.244 . S
O55 C45 1.272 . S
O55 Co47 2.135 . S
Co56 O57 2.216 . S
Co56 O58 2.091 . S
Co56 O60 2.004 . S
Co56 O66 2.021 . S
Co56 O68 2.137 1_565 S
Co56 O69 2.244 1_565 S
O57 Co56 2.216 . S
O57 C64 1.247 . S
O58 Co56 2.091 . S
O58 C64 1.261 . S
C59 O68 1.247 . S
C59 O69 1.272 . S
O60 Co56 2.004 . S
O60 C65 1.259 . S
Co61 O62 2.061 . S
Co61 O67 2.052 . S
Co61 O69 2.135 1_565 S
O62 Co61 2.061 . S
O62 C65 1.235 . S
C63 O66 1.238 . S
C63 O67 1.241 . S
C64 O57 1.247 . S
C64 O58 1.261 . S
C65 O60 1.259 . S
C65 O62 1.235 . S
O66 Co56 2.021 . S
O66 C63 1.238 . S
O67 Co61 2.052 . S
O67 C63 1.241 . S
O68 Co56 2.137 1_545 S
O68 C59 1.247 . S
O69 Co56 2.244 1_545 S
O69 C59 1.272 . S
O69 Co61 2.135 1_545 S
Co70 O71 2.216 . S
Co70 O72 2.091 . S
Co70 O74 2.004 . S
Co70 O80 2.021 . S
Co70 O82 2.137 1_455 S
Co70 O83 2.244 1_455 S
O71 Co70 2.216 . S
O71 C78 1.247 . S
O72 Co70 2.091 . S
O72 C78 1.261 . S
C73 O82 1.247 . S
C73 O83 1.272 . S
O74 Co70 2.004 . S
O74 C79 1.259 . S
Co75 O76 2.061 . S
Co75 O81 2.052 . S
Co75 O83 2.135 1_455 S
O76 Co75 2.061 . S
O76 C79 1.235 . S
C77 O80 1.238 . S
C77 O81 1.241 . S
C78 O71 1.247 . S
C78 O72 1.261 . S
C79 O74 1.259 . S
C79 O76 1.235 . S
O80 Co70 2.021 . S
O80 C77 1.238 . S
O81 Co75 2.052 . S
O81 C77 1.241 . S
O82 Co70 2.137 1_655 S
O82 C73 1.247 . S
O83 Co70 2.244 1_655 S
O83 C73 1.272 . S
O83 Co75 2.135 1_655 S
Co84 O85 2.216 1_556 S
Co84 O86 2.091 . S
Co84 O88 2.004 . S
Co84 O94 2.021 . S
Co84 O96 2.137 . S
Co84 O97 2.244 . S
O85 Co84 2.216 1_554 S
O85 C92 1.247 . S
O86 Co84 2.091 . S
O86 C92 1.261 1_556 S
C87 O96 1.247 . S
C87 O97 1.272 . S
O88 Co84 2.004 . S
O88 C93 1.259 . S
Co89 O90 2.061 . S
Co89 O95 2.052 . S
Co89 O97 2.135 . S
O90 Co89 2.061 . S
O90 C93 1.235 . S
C91 O94 1.238 . S
C91 O95 1.241 . S
C92 O85 1.247 . S
C92 O86 1.261 1_554 S
C93 O88 1.259 . S
C93 O90 1.235 . S
O94 Co84 2.021 . S
O94 C91 1.238 . S
O95 Co89 2.052 . S
O95 C91 1.241 . S
O96 Co84 2.137 . S
O96 C87 1.247 . S
O97 Co84 2.244 . S
O97 C87 1.272 . S
O97 Co89 2.135 . S
Co98 O99 2.216 1_556 S
Co98 O100 2.091 . S
Co98 O102 2.004 . S
Co98 O108 2.021 . S
Co98 O110 2.137 1_565 S
Co98 O111 2.244 1_565 S
O99 Co98 2.216 1_554 S
O99 C106 1.247 . S
O100 Co98 2.091 . S
O100 C106 1.261 1_556 S
C101 O110 1.247 . S
C101 O111 1.272 . S
O102 Co98 2.004 . S
O102 C107 1.259 . S
Co103 O104 2.061 . S
Co103 O109 2.052 . S
Co103 O111 2.135 1_565 S
O104 Co103 2.061 . S
O104 C107 1.235 . S
C105 O108 1.238 . S
C105 O109 1.241 . S
C106 O99 1.247 . S
C106 O100 1.261 1_554 S
C107 O102 1.259 . S
C107 O104 1.235 . S
O108 Co98 2.021 . S
O108 C105 1.238 . S
O109 Co103 2.052 . S
O109 C105 1.241 . S
O110 Co98 2.137 1_545 S
O110 C101 1.247 . S
O111 Co98 2.244 1_545 S
O111 C101 1.272 . S
O111 Co103 2.135 1_545 S
Co112 O113 2.216 1_556 S
Co112 O114 2.091 . S
Co112 O116 2.004 . S
Co112 O122 2.021 . S
Co112 O124 2.137 1_455 S
Co112 O125 2.244 1_455 S
O113 Co112 2.216 1_554 S
O113 C120 1.247 . S
O114 Co112 2.091 . S
O114 C120 1.261 1_556 S
C115 O124 1.247 . S
C115 O125 1.272 . S
O116 Co112 2.004 . S
O116 C121 1.259 . S
Co117 O118 2.061 . S
Co117 O123 2.052 . S
Co117 O125 2.135 1_455 S
O118 Co117 2.061 . S
O118 C121 1.235 . S
C119 O122 1.238 . S
C119 O123 1.241 . S
C120 O113 1.247 . S
C120 O114 1.261 1_554 S
C121 O116 1.259 . S
C121 O118 1.235 . S
O122 Co112 2.021 . S
O122 C119 1.238 . S
O123 Co117 2.052 . S
O123 C119 1.241 . S
O124 Co112 2.137 1_655 S
O124 C115 1.247 . S
O125 Co112 2.244 1_655 S
O125 C115 1.272 . S
O125 Co117 2.135 1_655 S
Co126 O127 2.216 . S
Co126 O128 2.091 . S
Co126 O130 2.004 . S
Co126 O136 2.021 . S
Co126 O138 2.137 . S
Co126 O139 2.244 . S
O127 Co126 2.216 . S
O127 C134 1.247 . S
O128 Co126 2.091 . S
O128 C134 1.261 . S
C129 O138 1.247 . S
C129 O139 1.272 . S
O130 Co126 2.004 . S
O130 C135 1.259 . S
Co131 O132 2.061 . S
Co131 O137 2.052 . S
Co131 O139 2.135 . S
O132 Co131 2.061 . S
O132 C135 1.235 . S
C133 O136 1.238 . S
C133 O137 1.241 . S
C134 O127 1.247 . S
C134 O128 1.261 . S
C135 O130 1.259 . S
C135 O132 1.235 . S
O136 Co126 2.021 . S
O136 C133 1.238 . S
O137 Co131 2.052 . S
O137 C133 1.241 . S
O138 Co126 2.137 . S
O138 C129 1.247 . S
O139 Co126 2.244 . S
O139 C129 1.272 . S
O139 Co131 2.135 . S
Co140 O141 2.216 . S
Co140 O142 2.091 . S
Co140 O144 2.004 . S
Co140 O150 2.021 . S
Co140 O152 2.137 1_545 S
Co140 O153 2.244 1_545 S
O141 Co140 2.216 . S
O141 C148 1.247 . S
O142 Co140 2.091 . S
O142 C148 1.261 . S
C143 O152 1.247 . S
C143 O153 1.272 . S
O144 Co140 2.004 . S
O144 C149 1.259 . S
Co145 O146 2.061 . S
Co145 O151 2.052 . S
Co145 O153 2.135 1_545 S
O146 Co145 2.061 . S
O146 C149 1.235 . S
C147 O150 1.238 . S
C147 O151 1.241 . S
C148 O141 1.247 . S
C148 O142 1.261 . S
C149 O144 1.259 . S
C149 O146 1.235 . S
O150 Co140 2.021 . S
O150 C147 1.238 . S
O151 Co145 2.052 . S
O151 C147 1.241 . S
O152 Co140 2.137 1_565 S
O152 C143 1.247 . S
O153 Co140 2.244 1_565 S
O153 C143 1.272 . S
O153 Co145 2.135 1_565 S
Co154 O155 2.216 . S
Co154 O156 2.091 . S
Co154 O158 2.004 . S
Co154 O164 2.021 . S
Co154 O166 2.137 1_655 S
Co154 O167 2.244 1_655 S
O155 Co154 2.216 . S
O155 C162 1.247 . S
O156 Co154 2.091 . S
O156 C162 1.261 . S
C157 O166 1.247 . S
C157 O167 1.272 . S
O158 Co154 2.004 . S
O158 C163 1.259 . S
Co159 O160 2.061 . S
Co159 O165 2.052 . S
Co159 O167 2.135 1_655 S
O160 Co159 2.061 . S
O160 C163 1.235 . S
C161 O164 1.238 . S
C161 O165 1.241 . S
C162 O155 1.247 . S
C162 O156 1.261 . S
C163 O158 1.259 . S
C163 O160 1.235 . S
O164 Co154 2.021 . S
O164 C161 1.238 . S
O165 Co159 2.052 . S
O165 C161 1.241 . S
O166 Co154 2.137 1_455 S
O166 C157 1.247 . S
O167 Co154 2.244 1_455 S
O167 C157 1.272 . S
O167 Co159 2.135 1_455 S
Co168 O169 2.216 . S
Co168 O170 2.091 . S
Co168 O172 2.004 . S
Co168 O178 2.021 . S
Co168 O180 2.137 . S
Co168 O181 2.244 . S
O169 Co168 2.216 . S
O169 C176 1.247 . S
O170 Co168 2.091 . S
O170 C176 1.261 . S
C171 O180 1.247 . S
C171 O181 1.272 . S
O172 Co168 2.004 . S
O172 C177 1.259 . S
Co173 O174 2.061 . S
Co173 O179 2.052 . S
Co173 O181 2.135 . S
O174 Co173 2.061 . S
O174 C177 1.235 . S
C175 O178 1.238 . S
C175 O179 1.241 . S
C176 O169 1.247 . S
C176 O170 1.261 . S
C177 O172 1.259 . S
C177 O174 1.235 . S
O178 Co168 2.021 . S
O178 C175 1.238 . S
O179 Co173 2.052 . S
O179 C175 1.241 . S
O180 Co168 2.137 . S
O180 C171 1.247 . S
O181 Co168 2.244 . S
O181 C171 1.272 . S
O181 Co173 2.135 . S
Co182 O183 2.216 . S
Co182 O184 2.091 . S
Co182 O186 2.004 . S
Co182 O192 2.021 . S
Co182 O194 2.137 . S
Co182 O195 2.244 . S
O183 Co182 2.216 . S
O183 C190 1.247 . S
O184 Co182 2.091 . S
O184 C190 1.261 . S
C185 O194 1.247 . S
C185 O195 1.272 . S
O186 Co182 2.004 . S
O186 C191 1.259 . S
Co187 O188 2.061 . S
Co187 O193 2.052 . S
Co187 O195 2.135 . S
O188 Co187 2.061 . S
O188 C191 1.235 . S
C189 O192 1.238 . S
C189 O193 1.241 . S
C190 O183 1.247 . S
C190 O184 1.261 . S
C191 O186 1.259 . S
C191 O188 1.235 . S
O192 Co182 2.021 . S
O192 C189 1.238 . S
O193 Co187 2.052 . S
O193 C189 1.241 . S
O194 Co182 2.137 . S
O194 C185 1.247 . S
O195 Co182 2.244 . S
O195 C185 1.272 . S
O195 Co187 2.135 . S
Co196 O197 2.216 . S
Co196 O198 2.091 . S
Co196 O200 2.004 . S
Co196 O206 2.021 . S
Co196 O208 2.137 . S
Co196 O209 2.244 . S
O197 Co196 2.216 . S
O197 C204 1.247 . S
O198 Co196 2.091 . S
O198 C204 1.261 . S
C199 O208 1.247 . S
C199 O209 1.272 . S
O200 Co196 2.004 . S
O200 C205 1.259 . S
Co201 O202 2.061 . S
Co201 O207 2.052 . S
Co201 O209 2.135 . S
O202 Co201 2.061 . S
O202 C205 1.235 . S
C203 O206 1.238 . S
C203 O207 1.241 . S
C204 O197 1.247 . S
C204 O198 1.261 . S
C205 O200 1.259 . S
C205 O202 1.235 . S
O206 Co196 2.021 . S
O206 C203 1.238 . S
O207 Co201 2.052 . S
O207 C203 1.241 . S
O208 Co196 2.137 . S
O208 C199 1.247 . S
O209 Co196 2.244 . S
O209 C199 1.272 . S
O209 Co201 2.135 . S
Co210 O211 2.216 . S
Co210 O212 2.091 . S
Co210 O214 2.004 . S
Co210 O220 2.021 . S
Co210 O222 2.137 . S
Co210 O223 2.244 . S
O211 Co210 2.216 . S
O211 C218 1.247 . S
O212 Co210 2.091 . S
O212 C218 1.261 . S
C213 O222 1.247 . S
C213 O223 1.272 . S
O214 Co210 2.004 . S
O214 C219 1.259 . S
Co215 O216 2.061 . S
Co215 O221 2.052 . S
Co215 O223 2.135 . S
O216 Co215 2.061 . S
O216 C219 1.235 . S
C217 O220 1.238 . S
C217 O221 1.241 . S
C218 O211 1.247 . S
C218 O212 1.261 . S
C219 O214 1.259 . S
C219 O216 1.235 . S
O220 Co210 2.021 . S
O220 C217 1.238 . S
O221 Co215 2.052 . S
O221 C217 1.241 . S
O222 Co210 2.137 . S
O222 C213 1.247 . S
O223 Co210 2.244 . S
O223 C213 1.272 . S
O223 Co215 2.135 . S
Co224 O225 2.216 . S
Co224 O226 2.091 . S
Co224 O228 2.004 . S
Co224 O234 2.021 . S
Co224 O236 2.137 . S
Co224 O237 2.244 . S
O225 Co224 2.216 . S
O225 C232 1.247 . S
O226 Co224 2.091 . S
O226 C232 1.261 . S
C227 O236 1.247 . S
C227 O237 1.272 . S
O228 Co224 2.004 . S
O228 C233 1.259 . S
Co229 O230 2.061 . S
Co229 O235 2.052 . S
Co229 O237 2.135 . S
O230 Co229 2.061 . S
O230 C233 1.235 . S
C231 O234 1.238 . S
C231 O235 1.241 . S
C232 O225 1.247 . S
C232 O226 1.261 . S
C233 O228 1.259 . S
C233 O230 1.235 . S
O234 Co224 2.021 . S
O234 C231 1.238 . S
O235 Co229 2.052 . S
O235 C231 1.241 . S
O236 Co224 2.137 . S
O236 C227 1.247 . S
O237 Co224 2.244 . S
O237 C227 1.272 . S
O237 Co229 2.135 . S
Co238 O239 2.216 . S
Co238 O240 2.091 . S
Co238 O242 2.004 . S
Co238 O248 2.021 . S
Co238 O250 2.137 . S
Co238 O251 2.244 . S
O239 Co238 2.216 . S
O239 C246 1.247 . S
O240 Co238 2.091 . S
O240 C246 1.261 . S
C241 O250 1.247 . S
C241 O251 1.272 . S
O242 Co238 2.004 . S
O242 C247 1.259 . S
Co243 O244 2.061 . S
Co243 O249 2.052 . S
Co243 O251 2.135 . S
O244 Co243 2.061 . S
O244 C247 1.235 . S
C245 O248 1.238 . S
C245 O249 1.241 . S
C246 O239 1.247 . S
C246 O240 1.261 . S
C247 O242 1.259 . S
C247 O244 1.235 . S
O248 Co238 2.021 . S
O248 C245 1.238 . S
O249 Co243 2.052 . S
O249 C245 1.241 . S
O250 Co238 2.137 . S
O250 C241 1.247 . S
O251 Co238 2.244 . S
O251 C241 1.272 . S
O251 Co243 2.135 . S
Co252 O253 2.216 . S
Co252 O254 2.091 . S
Co252 O256 2.004 . S
Co252 O262 2.021 . S
Co252 O264 2.137 . S
Co252 O265 2.244 . S
O253 Co252 2.216 . S
O253 C260 1.247 . S
O254 Co252 2.091 . S
O254 C260 1.261 . S
C255 O264 1.247 . S
C255 O265 1.272 . S
O256 Co252 2.004 . S
O256 C261 1.259 . S
Co257 O258 2.061 . S
Co257 O263 2.052 . S
Co257 O265 2.135 . S
O258 Co257 2.061 . S
O258 C261 1.235 . S
C259 O262 1.238 . S
C259 O263 1.241 . S
C260 O253 1.247 . S
C260 O254 1.261 . S
C261 O256 1.259 . S
C261 O258 1.235 . S
O262 Co252 2.021 . S
O262 C259 1.238 . S
O263 Co257 2.052 . S
O263 C259 1.241 . S
O264 Co252 2.137 . S
O264 C255 1.247 . S
O265 Co252 2.244 . S
O265 C255 1.272 . S
O265 Co257 2.135 . S
Co266 O267 2.216 . S
Co266 O268 2.091 . S
Co266 O270 2.004 . S
Co266 O276 2.021 . S
Co266 O278 2.137 . S
Co266 O279 2.244 . S
O267 Co266 2.216 . S
O267 C274 1.247 . S
O268 Co266 2.091 . S
O268 C274 1.261 . S
C269 O278 1.247 . S
C269 O279 1.272 . S
O270 Co266 2.004 . S
O270 C275 1.259 . S
Co271 O272 2.061 . S
Co271 O277 2.052 . S
Co271 O279 2.135 . S
O272 Co271 2.061 . S
O272 C275 1.235 . S
C273 O276 1.238 . S
C273 O277 1.241 . S
C274 O267 1.247 . S
C274 O268 1.261 . S
C275 O270 1.259 . S
C275 O272 1.235 . S
O276 Co266 2.021 . S
O276 C273 1.238 . S
O277 Co271 2.052 . S
O277 C273 1.241 . S
O278 Co266 2.137 . S
O278 C269 1.247 . S
O279 Co266 2.244 . S
O279 C269 1.272 . S
O279 Co271 2.135 . S
Co280 O281 2.216 . S
Co280 O282 2.091 . S
Co280 O284 2.004 . S
Co280 O290 2.021 . S
Co280 O292 2.137 . S
Co280 O293 2.244 . S
O281 Co280 2.216 . S
O281 C288 1.247 . S
O282 Co280 2.091 . S
O282 C288 1.261 . S
C283 O292 1.247 . S
C283 O293 1.272 . S
O284 Co280 2.004 . S
O284 C289 1.259 . S
Co285 O286 2.061 . S
Co285 O291 2.052 . S
Co285 O293 2.135 . S
O286 Co285 2.061 . S
O286 C289 1.235 . S
C287 O290 1.238 . S
C287 O291 1.241 . S
C288 O281 1.247 . S
C288 O282 1.261 . S
C289 O284 1.259 . S
C289 O286 1.235 . S
O290 Co280 2.021 . S
O290 C287 1.238 . S
O291 Co285 2.052 . S
O291 C287 1.241 . S
O292 Co280 2.137 . S
O292 C283 1.247 . S
O293 Co280 2.244 . S
O293 C283 1.272 . S
O293 Co285 2.135 . S
Co294 O295 2.216 . S
Co294 O296 2.091 . S
Co294 O298 2.004 . S
Co294 O304 2.021 . S
Co294 O306 2.137 . S
Co294 O307 2.244 . S
O295 Co294 2.216 . S
O295 C302 1.247 . S
O296 Co294 2.091 . S
O296 C302 1.261 . S
C297 O306 1.247 . S
C297 O307 1.272 . S
O298 Co294 2.004 . S
O298 C303 1.259 . S
Co299 O300 2.061 . S
Co299 O305 2.052 . S
Co299 O307 2.135 . S
O300 Co299 2.061 . S
O300 C303 1.235 . S
C301 O304 1.238 . S
C301 O305 1.241 . S
C302 O295 1.247 . S
C302 O296 1.261 . S
C303 O298 1.259 . S
C303 O300 1.235 . S
O304 Co294 2.021 . S
O304 C301 1.238 . S
O305 Co299 2.052 . S
O305 C301 1.241 . S
O306 Co294 2.137 . S
O306 C297 1.247 . S
O307 Co294 2.244 . S
O307 C297 1.272 . S
O307 Co299 2.135 . S
Co308 O309 2.216 . S
Co308 O310 2.091 . S
Co308 O312 2.004 . S
Co308 O318 2.021 . S
Co308 O320 2.137 . S
Co308 O321 2.244 . S
O309 Co308 2.216 . S
O309 C316 1.247 . S
O310 Co308 2.091 . S
O310 C316 1.261 . S
C311 O320 1.247 . S
C311 O321 1.272 . S
O312 Co308 2.004 . S
O312 C317 1.259 . S
Co313 O314 2.061 . S
Co313 O319 2.052 . S
Co313 O321 2.135 . S
O314 Co313 2.061 . S
O314 C317 1.235 . S
C315 O318 1.238 . S
C315 O319 1.241 . S
C316 O309 1.247 . S
C316 O310 1.261 . S
C317 O312 1.259 . S
C317 O314 1.235 . S
O318 Co308 2.021 . S
O318 C315 1.238 . S
O319 Co313 2.052 . S
O319 C315 1.241 . S
O320 Co308 2.137 . S
O320 C311 1.247 . S
O321 Co308 2.244 . S
O321 C311 1.272 . S
O321 Co313 2.135 . S
Co322 O323 2.216 . S
Co322 O324 2.091 . S
Co322 O326 2.004 . S
Co322 O332 2.021 . S
Co322 O334 2.137 . S
Co322 O335 2.244 . S
O323 Co322 2.216 . S
O323 C330 1.247 . S
O324 Co322 2.091 . S
O324 C330 1.261 . S
C325 O334 1.247 . S
C325 O335 1.272 . S
O326 Co322 2.004 . S
O326 C331 1.259 . S
Co327 O328 2.061 . S
Co327 O333 2.052 . S
Co327 O335 2.135 . S
O328 Co327 2.061 . S
O328 C331 1.235 . S
C329 O332 1.238 . S
C329 O333 1.241 . S
C330 O323 1.247 . S
C330 O324 1.261 . S
C331 O326 1.259 . S
C331 O328 1.235 . S
O332 Co322 2.021 . S
O332 C329 1.238 . S
O333 Co327 2.052 . S
O333 C329 1.241 . S
O334 Co322 2.137 . S
O334 C325 1.247 . S
O335 Co322 2.244 . S
O335 C325 1.272 . S
O335 Co327 2.135 . S
Co336 O337 2.216 . S
Co336 O338 2.091 . S
Co336 O340 2.004 . S
Co336 O346 2.021 . S
Co336 O348 2.137 . S
Co336 O349 2.244 . S
O337 Co336 2.216 . S
O337 C344 1.247 . S
O338 Co336 2.091 . S
O338 C344 1.261 . S
C339 O348 1.247 . S
C339 O349 1.272 . S
O340 Co336 2.004 . S
O340 C345 1.259 . S
Co341 O342 2.061 . S
Co341 O347 2.052 . S
Co341 O349 2.135 . S
O342 Co341 2.061 . S
O342 C345 1.235 . S
C343 O346 1.238 . S
C343 O347 1.241 . S
C344 O337 1.247 . S
C344 O338 1.261 . S
C345 O340 1.259 . S
C345 O342 1.235 . S
O346 Co336 2.021 . S
O346 C343 1.238 . S
O347 Co341 2.052 . S
O347 C343 1.241 . S
O348 Co336 2.137 . S
O348 C339 1.247 . S
O349 Co336 2.244 . S
O349 C339 1.272 . S
O349 Co341 2.135 . S
Co350 O351 2.216 . S
Co350 O352 2.091 . S
Co350 O354 2.004 . S
Co350 O360 2.021 . S
Co350 O362 2.137 . S
Co350 O363 2.244 . S
O351 Co350 2.216 . S
O351 C358 1.247 . S
O352 Co350 2.091 . S
O352 C358 1.261 . S
C353 O362 1.247 . S
C353 O363 1.272 . S
O354 Co350 2.004 . S
O354 C359 1.259 . S
Co355 O356 2.061 . S
Co355 O361 2.052 . S
Co355 O363 2.135 . S
O356 Co355 2.061 . S
O356 C359 1.235 . S
C357 O360 1.238 . S
C357 O361 1.241 . S
C358 O351 1.247 . S
C358 O352 1.261 . S
C359 O354 1.259 . S
C359 O356 1.235 . S
O360 Co350 2.021 . S
O360 C357 1.238 . S
O361 Co355 2.052 . S
O361 C357 1.241 . S
O362 Co350 2.137 . S
O362 C353 1.247 . S
O363 Co350 2.244 . S
O363 C353 1.272 . S
O363 Co355 2.135 . S
Co364 O365 2.216 . S
Co364 O366 2.091 . S
Co364 O368 2.004 . S
Co364 O374 2.021 . S
Co364 O376 2.137 . S
Co364 O377 2.244 . S
O365 Co364 2.216 . S
O365 C372 1.247 . S
O366 Co364 2.091 . S
O366 C372 1.261 . S
C367 O376 1.247 . S
C367 O377 1.272 . S
O368 Co364 2.004 . S
O368 C373 1.259 . S
Co369 O370 2.061 . S
Co369 O375 2.052 . S
Co369 O377 2.135 . S
O370 Co369 2.061 . S
O370 C373 1.235 . S
C371 O374 1.238 . S
C371 O375 1.241 . S
C372 O365 1.247 . S
C372 O366 1.261 . S
C373 O368 1.259 . S
C373 O370 1.235 . S
O374 Co364 2.021 . S
O374 C371 1.238 . S
O375 Co369 2.052 . S
O375 C371 1.241 . S
O376 Co364 2.137 . S
O376 C367 1.247 . S
O377 Co364 2.244 . S
O377 C367 1.272 . S
O377 Co369 2.135 . S
Co378 O379 2.216 . S
Co378 O380 2.091 . S
Co378 O382 2.004 . S
Co378 O388 2.021 . S
Co378 O390 2.137 . S
Co378 O391 2.244 . S
O379 Co378 2.216 . S
O379 C386 1.247 . S
O380 Co378 2.091 . S
O380 C386 1.261 . S
C381 O390 1.247 . S
C381 O391 1.272 . S
O382 Co378 2.004 . S
O382 C387 1.259 . S
Co383 O384 2.061 . S
Co383 O389 2.052 . S
Co383 O391 2.135 . S
O384 Co383 2.061 . S
O384 C387 1.235 . S
C385 O388 1.238 . S
C385 O389 1.241 . S
C386 O379 1.247 . S
C386 O380 1.261 . S
C387 O382 1.259 . S
C387 O384 1.235 . S
O388 Co378 2.021 . S
O388 C385 1.238 . S
O389 Co383 2.052 . S
O389 C385 1.241 . S
O390 Co378 2.137 . S
O390 C381 1.247 . S
O391 Co378 2.244 . S
O391 C381 1.272 . S
O391 Co383 2.135 . S
Co392 O393 2.216 . S
Co392 O394 2.091 . S
Co392 O396 2.004 . S
Co392 O402 2.021 . S
Co392 O404 2.137 . S
Co392 O405 2.244 . S
O393 Co392 2.216 . S
O393 C400 1.247 . S
O394 Co392 2.091 . S
O394 C400 1.261 . S
C395 O404 1.247 . S
C395 O405 1.272 . S
O396 Co392 2.004 . S
O396 C401 1.259 . S
Co397 O398 2.061 . S
Co397 O403 2.052 . S
Co397 O405 2.135 . S
O398 Co397 2.061 . S
O398 C401 1.235 . S
C399 O402 1.238 . S
C399 O403 1.241 . S
C400 O393 1.247 . S
C400 O394 1.261 . S
C401 O396 1.259 . S
C401 O398 1.235 . S
O402 Co392 2.021 . S
O402 C399 1.238 . S
O403 Co397 2.052 . S
O403 C399 1.241 . S
O404 Co392 2.137 . S
O404 C395 1.247 . S
O405 Co392 2.244 . S
O405 C395 1.272 . S
O405 Co397 2.135 . S
Co406 O407 2.216 . S
Co406 O408 2.091 . S
Co406 O410 2.004 . S
Co406 O416 2.021 . S
Co406 O418 2.137 . S
Co406 O419 2.244 . S
O407 Co406 2.216 . S
O407 C414 1.247 . S
O408 Co406 2.091 . S
O408 C414 1.261 . S
C409 O418 1.247 . S
C409 O419 1.272 . S
O410 Co406 2.004 . S
O410 C415 1.259 . S
Co411 O412 2.061 . S
Co411 O417 2.052 . S
Co411 O419 2.135 . S
O412 Co411 2.061 . S
O412 C415 1.235 . S
C413 O416 1.238 . S
C413 O417 1.241 . S
C414 O407 1.247 . S
C414 O408 1.261 . S
C415 O410 1.259 . S
C415 O412 1.235 . S
O416 Co406 2.021 . S
O416 C413 1.238 . S
O417 Co411 2.052 . S
O417 C413 1.241 . S
O418 Co406 2.137 . S
O418 C409 1.247 . S
O419 Co406 2.244 . S
O419 C409 1.272 . S
O419 Co411 2.135 . S
Co420 O421 2.216 . S
Co420 O422 2.091 . S
Co420 O424 2.004 . S
Co420 O430 2.021 . S
Co420 O432 2.137 . S
Co420 O433 2.244 . S
O421 Co420 2.216 . S
O421 C428 1.247 . S
O422 Co420 2.091 . S
O422 C428 1.261 . S
C423 O432 1.247 . S
C423 O433 1.272 . S
O424 Co420 2.004 . S
O424 C429 1.259 . S
Co425 O426 2.061 . S
Co425 O431 2.052 . S
Co425 O433 2.135 . S
O426 Co425 2.061 . S
O426 C429 1.235 . S
C427 O430 1.238 . S
C427 O431 1.241 . S
C428 O421 1.247 . S
C428 O422 1.261 . S
C429 O424 1.259 . S
C429 O426 1.235 . S
O430 Co420 2.021 . S
O430 C427 1.238 . S
O431 Co425 2.052 . S
O431 C427 1.241 . S
O432 Co420 2.137 . S
O432 C423 1.247 . S
O433 Co420 2.244 . S
O433 C423 1.272 . S
O433 Co425 2.135 . S
Co434 O435 2.216 . S
Co434 O436 2.091 . S
Co434 O438 2.004 . S
Co434 O444 2.021 . S
Co434 O446 2.137 . S
Co434 O447 2.244 . S
O435 Co434 2.216 . S
O435 C442 1.247 . S
O436 Co434 2.091 . S
O436 C442 1.261 . S
C437 O446 1.247 . S
C437 O447 1.272 . S
O438 Co434 2.004 . S
O438 C443 1.259 . S
Co439 O440 2.061 . S
Co439 O445 2.052 . S
Co439 O447 2.135 . S
O440 Co439 2.061 . S
O440 C443 1.235 . S
C441 O444 1.238 . S
C441 O445 1.241 . S
C442 O435 1.247 . S
C442 O436 1.261 . S
C443 O438 1.259 . S
C443 O440 1.235 . S
O444 Co434 2.021 . S
O444 C441 1.238 . S
O445 Co439 2.052 . S
O445 C441 1.241 . S
O446 Co434 2.137 . S
O446 C437 1.247 . S
O447 Co434 2.244 . S
O447 C437 1.272 . S
O447 Co439 2.135 . S
Co448 O449 2.216 . S
Co448 O450 2.091 . S
Co448 O452 2.004 . S
Co448 O458 2.021 . S
Co448 O460 2.137 . S
Co448 O461 2.244 . S
O449 Co448 2.216 . S
O449 C456 1.247 . S
O450 Co448 2.091 . S
O450 C456 1.261 . S
C451 O460 1.247 . S
C451 O461 1.272 . S
O452 Co448 2.004 . S
O452 C457 1.259 . S
Co453 O454 2.061 . S
Co453 O459 2.052 . S
Co453 O461 2.135 . S
O454 Co453 2.061 . S
O454 C457 1.235 . S
C455 O458 1.238 . S
C455 O459 1.241 . S
C456 O449 1.247 . S
C456 O450 1.261 . S
C457 O452 1.259 . S
C457 O454 1.235 . S
O458 Co448 2.021 . S
O458 C455 1.238 . S
O459 Co453 2.052 . S
O459 C455 1.241 . S
O460 Co448 2.137 . S
O460 C451 1.247 . S
O461 Co448 2.244 . S
O461 C451 1.272 . S
O461 Co453 2.135 . S
Co462 O463 2.216 . S
Co462 O464 2.091 . S
Co462 O466 2.004 . S
Co462 O472 2.021 . S
Co462 O474 2.137 . S
Co462 O475 2.244 . S
O463 Co462 2.216 . S
O463 C470 1.247 . S
O464 Co462 2.091 . S
O464 C470 1.261 . S
C465 O474 1.247 . S
C465 O475 1.272 . S
O466 Co462 2.004 . S
O466 C471 1.259 . S
Co467 O468 2.061 . S
Co467 O473 2.052 . S
Co467 O475 2.135 . S
O468 Co467 2.061 . S
O468 C471 1.235 . S
C469 O472 1.238 . S
C469 O473 1.241 . S
C470 O463 1.247 . S
C470 O464 1.261 . S
C471 O466 1.259 . S
C471 O468 1.235 . S
O472 Co462 2.021 . S
O472 C469 1.238 . S
O473 Co467 2.052 . S
O473 C469 1.241 . S
O474 Co462 2.137 . S
O474 C465 1.247 . S
O475 Co462 2.244 . S
O475 C465 1.272 . S
O475 Co467 2.135 . S
Co476 O477 2.216 . S
Co476 O478 2.091 . S
Co476 O480 2.004 . S
Co476 O486 2.021 . S
Co476 O488 2.137 . S
Co476 O489 2.244 . S
O477 Co476 2.216 . S
O477 C484 1.247 . S
O478 Co476 2.091 . S
O478 C484 1.261 . S
C479 O488 1.247 . S
C479 O489 1.272 . S
O480 Co476 2.004 . S
O480 C485 1.259 . S
Co481 O482 2.061 . S
Co481 O487 2.052 . S
Co481 O489 2.135 . S
O482 Co481 2.061 . S
O482 C485 1.235 . S
C483 O486 1.238 . S
C483 O487 1.241 . S
C484 O477 1.247 . S
C484 O478 1.261 . S
C485 O480 1.259 . S
C485 O482 1.235 . S
O486 Co476 2.021 . S
O486 C483 1.238 . S
O487 Co481 2.052 . S
O487 C483 1.241 . S
O488 Co476 2.137 . S
O488 C479 1.247 . S
O489 Co476 2.244 . S
O489 C479 1.272 . S
O489 Co481 2.135 . S
Co490 O491 2.216 . S
Co490 O492 2.091 . S
Co490 O494 2.004 . S
Co490 O500 2.021 . S
Co490 O502 2.137 . S
Co490 O503 2.244 . S
O491 Co490 2.216 . S
O491 C498 1.247 . S
O492 Co490 2.091 . S
O492 C498 1.261 . S
C493 O502 1.247 . S
C493 O503 1.272 . S
O494 Co490 2.004 . S
O494 C499 1.259 . S
Co495 O496 2.061 . S
Co495 O501 2.052 . S
Co495 O503 2.135 . S
O496 Co495 2.061 . S
O496 C499 1.235 . S
C497 O500 1.238 . S
C497 O501 1.241 . S
C498 O491 1.247 . S
C498 O492 1.261 . S
C499 O494 1.259 . S
C499 O496 1.235 . S
O500 Co490 2.021 . S
O500 C497 1.238 . S
O501 Co495 2.052 . S
O501 C497 1.241 . S
O502 Co490 2.137 . S
O502 C493 1.247 . S
O503 Co490 2.244 . S
O503 C493 1.272 . S
O503 Co495 2.135 . S
C504 C505 1.387 . S
C504 H508 0.950 . S
C504 C513 1.390 . S
C505 C504 1.387 . S
C505 C507 1.387 . S
H506 C513 0.958 . S
C507 C505 1.387 . S
C507 C509 1.390 . S
C507 H511 0.950 . S
H508 C504 0.950 . S
C509 C507 1.390 . S
C509 C510 1.387 . S
C509 H512 0.950 . S
C510 C509 1.387 . S
C510 C513 1.387 . S
H511 C507 0.950 . S
H512 C509 0.950 . S
C513 C504 1.390 . S
C513 H506 0.958 . S
C513 C510 1.387 . S
C514 C515 1.387 . S
C514 H518 0.950 . S
C514 C523 1.390 . S
C515 C514 1.387 . S
C515 C517 1.387 . S
H516 C523 0.950 . S
C517 C515 1.387 . S
C517 C519 1.390 . S
C517 H521 0.950 . S
H518 C514 0.950 . S
C519 C517 1.390 . S
C519 C520 1.387 . S
C519 H522 0.978 . S
C520 C519 1.387 . S
C520 C523 1.387 . S
H521 C517 0.950 . S
H522 C519 0.978 . S
C523 C514 1.390 . S
C523 H516 0.950 . S
C523 C520 1.387 . S
C524 C525 1.387 . S
C524 H528 0.950 . S
C524 C533 1.390 . S
C525 C524 1.387 . S
C525 C527 1.387 . S
H526 C533 0.950 . S
C527 C525 1.387 . S
C527 C529 1.390 . S
C527 H531 0.950 . S
H528 C524 0.950 . S
C529 C527 1.390 . S
C529 C530 1.387 . S
C529 H532 0.950 . S
C530 C529 1.387 . S
C530 C533 1.387 . S
H531 C527 0.950 . S
H532 C529 0.950 . S
C533 C524 1.390 . S
C533 H526 0.950 . S
C533 C530 1.387 . S
C534 C535 1.387 . S
C534 H538 0.950 . S
C534 C543 1.390 . S
C535 C534 1.387 . S
C535 C537 1.387 . S
H536 C543 0.950 . S
C537 C535 1.387 . S
C537 C539 1.390 . S
C537 H541 0.950 . S
H538 C534 0.950 . S
C539 C537 1.390 . S
C539 C540 1.387 . S
C539 H542 0.950 . S
C540 C539 1.387 . S
C540 C543 1.387 . S
H541 C537 0.950 . S
H542 C539 0.950 . S
C543 C534 1.390 . S
C543 H536 0.950 . S
C543 C540 1.387 . S
C544 C545 1.387 . S
C544 H548 0.950 . S
C544 C553 1.390 . S
C545 C544 1.387 . S
C545 C547 1.387 . S
H546 C553 0.950 . S
C547 C545 1.387 . S
C547 C549 1.390 . S
C547 H551 0.950 . S
H548 C544 0.950 . S
C549 C547 1.390 . S
C549 C550 1.387 . S
C549 H552 0.950 . S
C550 C549 1.387 . S
C550 C553 1.387 . S
H551 C547 0.950 . S
H552 C549 0.950 . S
C553 C544 1.390 . S
C553 H546 0.950 . S
C553 C550 1.387 . S
C554 C555 1.387 . S
C554 H558 0.950 . S
C554 C563 1.390 . S
C555 C554 1.387 . S
C555 C557 1.387 . S
H556 C563 0.950 . S
C557 C555 1.387 . S
C557 C559 1.390 . S
C557 H561 0.950 . S
H558 C554 0.950 . S
C559 C557 1.390 . S
C559 C560 1.387 . S
C559 H562 0.950 . S
C560 C559 1.387 . S
C560 C563 1.387 . S
H561 C557 0.950 . S
H562 C559 0.950 . S
C563 C554 1.390 . S
C563 H556 0.950 . S
C563 C560 1.387 . S
C564 C565 1.387 . S
C564 H568 0.950 . S
C564 C573 1.390 . S
C565 C564 1.387 . S
C565 C567 1.387 . S
H566 C573 0.950 . S
C567 C565 1.387 . S
C567 C569 1.390 . S
C567 H571 0.950 . S
H568 C564 0.950 . S
C569 C567 1.390 . S
C569 C570 1.387 . S
C569 H572 0.950 . S
C570 C569 1.387 . S
C570 C573 1.387 . S
H571 C567 0.950 . S
H572 C569 0.950 . S
C573 C564 1.390 . S
C573 H566 0.950 . S
C573 C570 1.387 . S
C574 C575 1.387 . S
C574 H578 0.950 . S
C574 C583 1.390 . S
C575 C574 1.387 . S
C575 C577 1.387 . S
H576 C583 0.950 . S
C577 C575 1.387 . S
C577 C579 1.390 . S
C577 H581 0.950 . S
H578 C574 0.950 . S
C579 C577 1.390 . S
C579 C580 1.387 . S
C579 H582 0.950 . S
C580 C579 1.387 . S
C580 C583 1.387 . S
H581 C577 0.950 . S
H582 C579 0.950 . S
C583 C574 1.390 . S
C583 H576 0.950 . S
C583 C580 1.387 . S
C584 C585 1.387 . S
C584 H588 0.950 . S
C584 C593 1.390 . S
C585 C584 1.387 . S
C585 C587 1.387 . S
H586 C593 0.950 . S
C587 C585 1.387 . S
C587 C589 1.390 . S
C587 H591 0.950 . S
H588 C584 0.950 . S
C589 C587 1.390 . S
C589 C590 1.387 . S
C589 H592 0.950 . S
C590 C589 1.387 . S
C590 C593 1.387 . S
H591 C587 0.950 . S
H592 C589 0.950 . S
C593 C584 1.390 . S
C593 H586 0.950 . S
C593 C590 1.387 . S
C594 C595 1.387 . S
C594 H598 0.950 . S
C594 C603 1.390 . S
C595 C594 1.387 . S
C595 C597 1.387 . S
H596 C603 0.950 . S
C597 C595 1.387 . S
C597 C599 1.390 . S
C597 H601 0.950 . S
H598 C594 0.950 . S
C599 C597 1.390 . S
C599 C600 1.387 . S
C599 H602 0.950 . S
C600 C599 1.387 . S
C600 C603 1.387 . S
H601 C597 0.950 . S
H602 C599 0.950 . S
C603 C594 1.390 . S
C603 H596 0.950 . S
C603 C600 1.387 . S
C604 C605 1.387 . S
C604 H608 0.950 . S
C604 C613 1.390 . S
C605 C604 1.387 . S
C605 C607 1.387 . S
H606 C613 0.950 . S
C607 C605 1.387 . S
C607 C609 1.390 . S
C607 H611 0.950 . S
H608 C604 0.950 . S
C609 C607 1.390 . S
C609 C610 1.387 . S
C609 H612 0.950 . S
C610 C609 1.387 . S
C610 C613 1.387 . S
H611 C607 0.950 . S
H612 C609 0.950 . S
C613 C604 1.390 . S
C613 H606 0.950 . S
C613 C610 1.387 . S
C614 C615 1.387 . S
C614 H618 0.950 . S
C614 C623 1.390 . S
C615 C614 1.387 . S
C615 C617 1.387 . S
H616 C623 0.950 . S
C617 C615 1.387 . S
C617 C619 1.390 . S
C617 H621 0.950 . S
H618 C614 0.950 . S
C619 C617 1.390 . S
C619 C620 1.387 . S
C619 H622 0.950 . S
C620 C619 1.387 . S
C620 C623 1.387 . S
H621 C617 0.950 . S
H622 C619 0.950 . S
C623 C614 1.390 . S
C623 H616 0.950 . S
C623 C620 1.387 . S
C624 C625 1.387 . S
C624 H628 0.950 . S
C624 C633 1.390 1_455 S
C625 C624 1.387 . S
C625 C627 1.387 . S
H626 C633 0.950 . S
C627 C625 1.387 . S
C627 C629 1.390 1_455 S
C627 H631 0.950 . S
H628 C624 0.950 . S
C629 C627 1.390 1_655 S
C629 C630 1.387 . S
C629 H632 0.950 . S
C630 C629 1.387 . S
C630 C633 1.387 . S
H631 C627 0.950 . S
H632 C629 0.950 . S
C633 C624 1.390 1_655 S
C633 H626 0.950 . S
C633 C630 1.387 . S
C634 C635 1.387 . S
C634 H638 0.950 . S
C634 C643 1.390 . S
C635 C634 1.387 . S
C635 C637 1.387 . S
H636 C643 0.950 . S
C637 C635 1.387 . S
C637 C639 1.390 . S
C637 H641 0.950 . S
H638 C634 0.950 . S
C639 C637 1.390 . S
C639 C640 1.387 . S
C639 H642 0.950 . S
C640 C639 1.387 . S
C640 C643 1.387 . S
H641 C637 0.950 . S
H642 C639 0.950 . S
C643 C634 1.390 . S
C643 H636 0.950 . S
C643 C640 1.387 . S
C644 C645 1.387 . S
C644 H648 0.950 . S
C644 C653 1.390 1_565 S
C645 C644 1.387 . S
C645 C647 1.387 . S
H646 C653 0.950 . S
C647 C645 1.387 . S
C647 C649 1.390 1_565 S
C647 H651 0.950 . S
H648 C644 0.950 . S
C649 C647 1.390 1_545 S
C649 C650 1.387 . S
C649 H652 0.950 . S
C650 C649 1.387 . S
C650 C653 1.387 . S
H651 C647 0.950 . S
H652 C649 0.950 . S
C653 C644 1.390 1_545 S
C653 H646 0.950 . S
C653 C650 1.387 . S
C654 C655 1.387 . S
C654 H658 0.950 . S
C654 C663 1.390 1_565 S
C655 C654 1.387 . S
C655 C657 1.387 . S
H656 C663 0.950 . S
C657 C655 1.387 . S
C657 C659 1.390 1_565 S
C657 H661 0.950 . S
H658 C654 0.950 . S
C659 C657 1.390 1_545 S
C659 C660 1.387 . S
C659 H662 0.950 . S
C660 C659 1.387 . S
C660 C663 1.387 . S
H661 C657 0.950 . S
H662 C659 0.950 . S
C663 C654 1.390 1_545 S
C663 H656 0.950 . S
C663 C660 1.387 . S
C664 C665 1.387 . S
C664 H668 0.950 . S
C664 C673 1.390 1_455 S
C665 C664 1.387 . S
C665 C667 1.387 . S
H666 C673 0.950 . S
C667 C665 1.387 . S
C667 C669 1.390 1_455 S
C667 H671 0.950 . S
H668 C664 0.950 . S
C669 C667 1.390 1_655 S
C669 C670 1.387 . S
C669 H672 0.950 . S
C670 C669 1.387 . S
C670 C673 1.387 . S
H671 C667 0.950 . S
H672 C669 0.950 . S
C673 C664 1.390 1_655 S
C673 H666 0.950 . S
C673 C670 1.387 . S
C674 C675 1.387 . S
C674 H678 0.950 . S
C674 C683 1.390 . S
C675 C674 1.387 . S
C675 C677 1.387 . S
H676 C683 0.950 . S
C677 C675 1.387 . S
C677 C679 1.390 . S
C677 H681 0.950 . S
H678 C674 0.950 . S
C679 C677 1.390 . S
C679 C680 1.387 . S
C679 H682 0.950 . S
C680 C679 1.387 . S
C680 C683 1.387 . S
H681 C677 0.950 . S
H682 C679 0.950 . S
C683 C674 1.390 . S
C683 H676 0.950 . S
C683 C680 1.387 . S
C684 C685 1.387 . S
C684 H688 0.950 . S
C684 C693 1.390 . S
C685 C684 1.387 . S
C685 C687 1.387 1_556 S
H686 C693 0.950 . S
C687 C685 1.387 1_554 S
C687 C689 1.390 . S
C687 H691 0.950 . S
H688 C684 0.950 . S
C689 C687 1.390 . S
C689 C690 1.387 . S
C689 H692 0.950 . S
C690 C689 1.387 . S
C690 C693 1.387 1_554 S
H691 C687 0.950 . S
H692 C689 0.950 . S
C693 C684 1.390 . S
C693 H686 0.950 . S
C693 C690 1.387 1_556 S
C694 C695 1.387 1_554 S
C694 H698 0.950 . S
C694 C703 1.390 . S
C695 C694 1.387 1_556 S
C695 C697 1.387 . S
H696 C703 0.950 . S
C697 C695 1.387 . S
C697 C699 1.390 . S
C697 H701 0.950 . S
H698 C694 0.950 . S
C699 C697 1.390 . S
C699 C700 1.387 1_556 S
C699 H702 0.950 . S
C700 C699 1.387 1_554 S
C700 C703 1.387 . S
H701 C697 0.950 . S
H702 C699 0.950 . S
C703 C694 1.390 . S
C703 H696 0.950 . S
C703 C700 1.387 . S
C704 C705 1.387 . S
C704 H708 0.950 . S
C704 C713 1.390 1_556 S
C705 C704 1.387 . S
C705 C707 1.387 1_556 S
H706 C713 0.950 1_556 S
C707 C705 1.387 1_554 S
C707 C709 1.390 . S
C707 H711 0.950 . S
H708 C704 0.950 . S
C709 C707 1.390 . S
C709 C710 1.387 . S
C709 H712 0.950 . S
C710 C709 1.387 . S
C710 C713 1.387 . S
H711 C707 0.950 . S
H712 C709 0.950 . S
C713 C704 1.390 1_554 S
C713 H706 0.950 1_554 S
C713 C710 1.387 . S
C714 C715 1.387 . S
C714 H718 0.950 . S
C714 C723 1.390 . S
C715 C714 1.387 . S
C715 C717 1.387 . S
H716 C723 0.950 . S
C717 C715 1.387 . S
C717 C719 1.390 . S
C717 H721 0.950 . S
H718 C714 0.950 . S
C719 C717 1.390 . S
C719 C720 1.387 . S
C719 H722 0.950 . S
C720 C719 1.387 . S
C720 C723 1.387 . S
H721 C717 0.950 . S
H722 C719 0.950 . S
C723 C714 1.390 . S
C723 H716 0.950 . S
C723 C720 1.387 . S
C724 C725 1.387 . S
C724 H728 0.950 . S
C724 C733 1.390 . S
C725 C724 1.387 . S
C725 C727 1.387 . S
H726 C733 0.950 . S
C727 C725 1.387 . S
C727 C729 1.390 . S
C727 H731 0.950 . S
H728 C724 0.950 . S
C729 C727 1.390 . S
C729 C730 1.387 . S
C729 H732 0.950 . S
C730 C729 1.387 . S
C730 C733 1.387 . S
H731 C727 0.950 . S
H732 C729 0.950 . S
C733 C724 1.390 . S
C733 H726 0.950 . S
C733 C730 1.387 . S
C734 C735 1.387 . S
C734 H738 0.950 . S
C734 C743 1.390 . S
C735 C734 1.387 . S
C735 C737 1.387 . S
H736 C743 0.950 . S
C737 C735 1.387 . S
C737 C739 1.390 . S
C737 H741 0.950 . S
H738 C734 0.950 . S
C739 C737 1.390 . S
C739 C740 1.387 . S
C739 H742 0.950 . S
C740 C739 1.387 . S
C740 C743 1.387 . S
H741 C737 0.950 . S
H742 C739 0.950 . S
C743 C734 1.390 . S
C743 H736 0.950 . S
C743 C740 1.387 . S
C744 C745 1.387 . S
C744 H748 0.950 . S
C744 C753 1.390 . S
C745 C744 1.387 . S
C745 C747 1.387 1_554 S
H746 C753 0.950 . S
C747 C745 1.387 1_556 S
C747 C749 1.390 . S
C747 H751 0.950 . S
H748 C744 0.950 . S
C749 C747 1.390 . S
C749 C750 1.387 . S
C749 H752 0.950 . S
C750 C749 1.387 . S
C750 C753 1.387 1_556 S
H751 C747 0.950 . S
H752 C749 0.950 . S
C753 C744 1.390 . S
C753 H746 0.950 . S
C753 C750 1.387 1_554 S
C754 C755 1.387 1_554 S
C754 H758 0.950 . S
C754 C763 1.390 . S
C755 C754 1.387 1_556 S
C755 C757 1.387 . S
H756 C763 0.950 . S
C757 C755 1.387 . S
C757 C759 1.390 . S
C757 H761 0.950 . S
H758 C754 0.950 . S
C759 C757 1.390 . S
C759 C760 1.387 1_556 S
C759 H762 0.950 . S
C760 C759 1.387 1_554 S
C760 C763 1.387 . S
H761 C757 0.950 . S
H762 C759 0.950 . S
C763 C754 1.390 . S
C763 H756 0.950 . S
C763 C760 1.387 . S
C764 C765 1.387 . S
C764 H768 0.950 . S
C764 C773 1.390 1_554 S
C765 C764 1.387 . S
C765 C767 1.387 1_554 S
H766 C773 0.950 1_554 S
C767 C765 1.387 1_556 S
C767 C769 1.390 . S
C767 H771 0.950 . S
H768 C764 0.950 . S
C769 C767 1.390 . S
C769 C770 1.387 . S
C769 H772 0.950 . S
C770 C769 1.387 . S
C770 C773 1.387 . S
H771 C767 0.950 . S
H772 C769 0.950 . S
C773 C764 1.390 1_556 S
C773 H766 0.950 1_556 S
C773 C770 1.387 . S
C774 C775 1.387 . S
C774 H778 0.950 . S
C774 C783 1.390 . S
C775 C774 1.387 . S
C775 C777 1.387 . S
H776 C783 0.950 . S
C777 C775 1.387 . S
C777 C779 1.390 . S
C777 H781 0.950 . S
H778 C774 0.950 . S
C779 C777 1.390 . S
C779 C780 1.387 . S
C779 H782 0.950 . S
C780 C779 1.387 . S
C780 C783 1.387 . S
H781 C777 0.950 . S
H782 C779 0.950 . S
C783 C774 1.390 . S
C783 H776 0.950 . S
C783 C780 1.387 . S
C784 C785 1.387 . S
C784 H788 0.950 . S
C784 C793 1.390 . S
C785 C784 1.387 . S
C785 C787 1.387 . S
H786 C793 0.950 . S
C787 C785 1.387 . S
C787 C789 1.390 . S
C787 H791 0.950 . S
H788 C784 0.950 . S
C789 C787 1.390 . S
C789 C790 1.387 . S
C789 H792 0.950 . S
C790 C789 1.387 . S
C790 C793 1.387 . S
H791 C787 0.950 . S
H792 C789 0.950 . S
C793 C784 1.390 . S
C793 H786 0.950 . S
C793 C790 1.387 . S
C794 C795 1.387 . S
C794 H798 0.950 . S
C794 C803 1.390 . S
C795 C794 1.387 . S
C795 C797 1.387 . S
H796 C803 0.950 . S
C797 C795 1.387 . S
C797 C799 1.390 . S
C797 H801 0.950 . S
H798 C794 0.950 . S
C799 C797 1.390 . S
C799 C800 1.387 . S
C799 H802 0.950 . S
C800 C799 1.387 . S
C800 C803 1.387 . S
H801 C797 0.950 . S
H802 C799 0.950 . S
C803 C794 1.390 . S
C803 H796 0.950 . S
C803 C800 1.387 . S
C804 C805 1.387 . S
C804 H808 0.950 . S
C804 C813 1.390 . S
C805 C804 1.387 . S
C805 C807 1.387 . S
H806 C813 0.950 . S
C807 C805 1.387 . S
C807 C809 1.390 . S
C807 H811 0.950 . S
H808 C804 0.950 . S
C809 C807 1.390 . S
C809 C810 1.387 . S
C809 H812 0.950 . S
C810 C809 1.387 . S
C810 C813 1.387 . S
H811 C807 0.950 . S
H812 C809 0.950 . S
C813 C804 1.390 . S
C813 H806 0.950 . S
C813 C810 1.387 . S
C814 C815 1.387 . S
C814 H818 0.950 . S
C814 C823 1.390 . S
C815 C814 1.387 . S
C815 C817 1.387 . S
H816 C823 0.950 . S
C817 C815 1.387 . S
C817 C819 1.390 . S
C817 H821 0.950 . S
H818 C814 0.950 . S
C819 C817 1.390 . S
C819 C820 1.387 . S
C819 H822 0.950 . S
C820 C819 1.387 . S
C820 C823 1.387 . S
H821 C817 0.950 . S
H822 C819 0.950 . S
C823 C814 1.390 . S
C823 H816 0.950 . S
C823 C820 1.387 . S
C824 C825 1.387 . S
C824 H828 0.950 . S
C824 C833 1.390 . S
C825 C824 1.387 . S
C825 C827 1.387 . S
H826 C833 0.950 . S
C827 C825 1.387 . S
C827 C829 1.390 . S
C827 H831 0.950 . S
H828 C824 0.950 . S
C829 C827 1.390 . S
C829 C830 1.387 . S
C829 H832 0.950 . S
C830 C829 1.387 . S
C830 C833 1.387 . S
H831 C827 0.950 . S
H832 C829 0.950 . S
C833 C824 1.390 . S
C833 H826 0.950 . S
C833 C830 1.387 . S
C834 C835 1.387 . S
C834 H838 0.950 . S
C834 C843 1.390 . S
C835 C834 1.387 . S
C835 C837 1.387 . S
H836 C843 0.950 . S
C837 C835 1.387 . S
C837 C839 1.390 . S
C837 H841 0.950 . S
H838 C834 0.950 . S
C839 C837 1.390 . S
C839 C840 1.387 . S
C839 H842 0.950 . S
C840 C839 1.387 . S
C840 C843 1.387 . S
H841 C837 0.950 . S
H842 C839 0.950 . S
C843 C834 1.390 . S
C843 H836 0.950 . S
C843 C840 1.387 . S
C844 C845 1.387 . S
C844 H848 0.950 . S
C844 C853 1.390 . S
C845 C844 1.387 . S
C845 C847 1.387 . S
H846 C853 0.950 . S
C847 C845 1.387 . S
C847 C849 1.390 . S
C847 H851 0.950 . S
H848 C844 0.950 . S
C849 C847 1.390 . S
C849 C850 1.387 . S
C849 H852 0.950 . S
C850 C849 1.387 . S
C850 C853 1.387 . S
H851 C847 0.950 . S
H852 C849 0.950 . S
C853 C844 1.390 . S
C853 H846 0.950 . S
C853 C850 1.387 . S
C854 C855 1.387 . S
C854 H858 0.950 . S
C854 C863 1.390 . S
C855 C854 1.387 . S
C855 C857 1.387 . S
H856 C863 0.950 . S
C857 C855 1.387 . S
C857 C859 1.390 . S
C857 H861 0.950 . S
H858 C854 0.950 . S
C859 C857 1.390 . S
C859 C860 1.387 . S
C859 H862 0.950 . S
C860 C859 1.387 . S
C860 C863 1.387 . S
H861 C857 0.950 . S
H862 C859 0.950 . S
C863 C854 1.390 . S
C863 H856 0.950 . S
C863 C860 1.387 . S
C864 C865 1.387 . S
C864 H868 0.950 . S
C864 C873 1.390 . S
C865 C864 1.387 . S
C865 C867 1.387 . S
H866 C873 0.950 . S
C867 C865 1.387 . S
C867 C869 1.390 . S
C867 H871 0.950 . S
H868 C864 0.950 . S
C869 C867 1.390 . S
C869 C870 1.387 . S
C869 H872 0.950 . S
C870 C869 1.387 . S
C870 C873 1.387 . S
H871 C867 0.950 . S
H872 C869 0.950 . S
C873 C864 1.390 . S
C873 H866 0.950 . S
C873 C870 1.387 . S
C874 C875 1.387 . S
C874 H878 0.950 . S
C874 C883 1.390 . S
C875 C874 1.387 . S
C875 C877 1.387 . S
H876 C883 0.950 . S
C877 C875 1.387 . S
C877 C879 1.390 . S
C877 H881 0.950 . S
H878 C874 0.950 . S
C879 C877 1.390 . S
C879 C880 1.387 . S
C879 H882 0.950 . S
C880 C879 1.387 . S
C880 C883 1.387 . S
H881 C877 0.950 . S
H882 C879 0.950 . S
C883 C874 1.390 . S
C883 H876 0.950 . S
C883 C880 1.387 . S
C884 C885 1.387 . S
C884 H888 0.950 . S
C884 C893 1.390 . S
C885 C884 1.387 . S
C885 C887 1.387 . S
H886 C893 0.950 . S
C887 C885 1.387 . S
C887 C889 1.390 . S
C887 H891 0.950 . S
H888 C884 0.950 . S
C889 C887 1.390 . S
C889 C890 1.387 . S
C889 H892 0.950 . S
C890 C889 1.387 . S
C890 C893 1.387 . S
H891 C887 0.950 . S
H892 C889 0.950 . S
C893 C884 1.390 . S
C893 H886 0.950 . S
C893 C890 1.387 . S
C894 C895 1.387 . S
C894 H898 0.950 . S
C894 C903 1.390 . S
C895 C894 1.387 . S
C895 C897 1.387 . S
H896 C903 0.950 . S
C897 C895 1.387 . S
C897 C899 1.390 . S
C897 H901 0.950 . S
H898 C894 0.950 . S
C899 C897 1.390 . S
C899 C900 1.387 . S
C899 H902 0.950 . S
C900 C899 1.387 . S
C900 C903 1.387 . S
H901 C897 0.950 . S
H902 C899 0.950 . S
C903 C894 1.390 . S
C903 H896 0.950 . S
C903 C900 1.387 . S
C904 C905 1.387 . S
C904 H908 0.950 . S
C904 C913 1.390 . S
C905 C904 1.387 . S
C905 C907 1.387 . S
H906 C913 0.950 . S
C907 C905 1.387 . S
C907 C909 1.390 . S
C907 H911 0.950 . S
H908 C904 0.950 . S
C909 C907 1.390 . S
C909 C910 1.387 . S
C909 H912 0.950 . S
C910 C909 1.387 . S
C910 C913 1.387 . S
H911 C907 0.950 . S
H912 C909 0.950 . S
C913 C904 1.390 . S
C913 H906 0.950 . S
C913 C910 1.387 . S
C914 C915 1.387 . S
C914 H918 0.950 . S
C914 C923 1.390 . S
C915 C914 1.387 . S
C915 C917 1.387 . S
H916 C923 0.950 . S
C917 C915 1.387 . S
C917 C919 1.390 . S
C917 H921 0.950 . S
H918 C914 0.950 . S
C919 C917 1.390 . S
C919 C920 1.387 . S
C919 H922 0.950 . S
C920 C919 1.387 . S
C920 C923 1.387 . S
H921 C917 0.950 . S
H922 C919 0.950 . S
C923 C914 1.390 . S
C923 H916 0.950 . S
C923 C920 1.387 . S
C924 C925 1.387 . S
C924 H928 0.950 . S
C924 C933 1.390 . S
C925 C924 1.387 . S
C925 C927 1.387 . S
H926 C933 0.950 . S
C927 C925 1.387 . S
C927 C929 1.390 . S
C927 H931 0.950 . S
H928 C924 0.950 . S
C929 C927 1.390 . S
C929 C930 1.387 . S
C929 H932 0.950 . S
C930 C929 1.387 . S
C930 C933 1.387 . S
H931 C927 0.950 . S
H932 C929 0.950 . S
C933 C924 1.390 . S
C933 H926 0.950 . S
C933 C930 1.387 . S
C934 C935 1.387 . S
C934 H938 0.950 . S
C934 C943 1.390 . S
C935 C934 1.387 . S
C935 C937 1.387 . S
H936 C943 0.950 . S
C937 C935 1.387 . S
C937 C939 1.390 . S
C937 H941 0.950 . S
H938 C934 0.950 . S
C939 C937 1.390 . S
C939 C940 1.387 . S
C939 H942 0.950 . S
C940 C939 1.387 . S
C940 C943 1.387 . S
H941 C937 0.950 . S
H942 C939 0.950 . S
C943 C934 1.390 . S
C943 H936 0.950 . S
C943 C940 1.387 . S
C944 C945 1.387 . S
C944 H948 0.950 . S
C944 C953 1.390 . S
C945 C944 1.387 . S
C945 C947 1.387 . S
H946 C953 0.950 . S
C947 C945 1.387 . S
C947 C949 1.390 . S
C947 H951 0.950 . S
H948 C944 0.950 . S
C949 C947 1.390 . S
C949 C950 1.387 . S
C949 H952 0.950 . S
C950 C949 1.387 . S
C950 C953 1.387 . S
H951 C947 0.950 . S
H952 C949 0.950 . S
C953 C944 1.390 . S
C953 H946 0.950 . S
C953 C950 1.387 . S
C954 C955 1.387 . S
C954 H958 0.950 . S
C954 C963 1.390 . S
C955 C954 1.387 . S
C955 C957 1.387 . S
H956 C963 0.950 . S
C957 C955 1.387 . S
C957 C959 1.390 . S
C957 H961 0.950 . S
H958 C954 0.950 . S
C959 C957 1.390 . S
C959 C960 1.387 . S
C959 H962 0.950 . S
C960 C959 1.387 . S
C960 C963 1.387 . S
H961 C957 0.950 . S
H962 C959 0.950 . S
C963 C954 1.390 . S
C963 H956 0.950 . S
C963 C960 1.387 . S
C964 C965 1.387 . S
C964 H968 0.950 . S
C964 C973 1.390 . S
C965 C964 1.387 . S
C965 C967 1.387 . S
H966 C973 0.950 . S
C967 C965 1.387 . S
C967 C969 1.390 . S
C967 H971 0.950 . S
H968 C964 0.950 . S
C969 C967 1.390 . S
C969 C970 1.387 . S
C969 H972 0.950 . S
C970 C969 1.387 . S
C970 C973 1.387 . S
H971 C967 0.950 . S
H972 C969 0.950 . S
C973 C964 1.390 . S
C973 H966 0.950 . S
C973 C970 1.387 . S
C974 C975 1.387 . S
C974 H978 0.950 . S
C974 C983 1.390 . S
C975 C974 1.387 . S
C975 C977 1.387 . S
H976 C983 0.950 . S
C977 C975 1.387 . S
C977 C979 1.390 . S
C977 H981 0.950 . S
H978 C974 0.950 . S
C979 C977 1.390 . S
C979 C980 1.387 . S
C979 H982 0.950 . S
C980 C979 1.387 . S
C980 C983 1.387 . S
H981 C977 0.950 . S
H982 C979 0.950 . S
C983 C974 1.390 . S
C983 H976 0.950 . S
C983 C980 1.387 . S
C984 C985 1.387 . S
C984 H988 0.950 . S
C984 C993 1.390 . S
C985 C984 1.387 . S
C985 C987 1.387 . S
H986 C993 0.950 . S
C987 C985 1.387 . S
C987 C989 1.390 . S
C987 H991 0.950 . S
H988 C984 0.950 . S
C989 C987 1.390 . S
C989 C990 1.387 . S
C989 H992 0.950 . S
C990 C989 1.387 . S
C990 C993 1.387 . S
H991 C987 0.950 . S
H992 C989 0.950 . S
C993 C984 1.390 . S
C993 H986 0.950 . S
C993 C990 1.387 . S
C994 C995 1.387 . S
C994 H998 0.950 . S
C994 C1003 1.390 . S
C995 C994 1.387 . S
C995 C997 1.387 . S
H996 C1003 0.950 . S
C997 C995 1.387 . S
C997 C999 1.390 . S
C997 H1001 0.950 . S
H998 C994 0.950 . S
C999 C997 1.390 . S
C999 C1000 1.387 . S
C999 H1002 0.950 . S
C1000 C999 1.387 . S
C1000 C1003 1.387 . S
H1001 C997 0.950 . S
H1002 C999 0.950 . S
C1003 C994 1.390 . S
C1003 H996 0.950 . S
C1003 C1000 1.387 . S
C1004 C1005 1.387 . S
C1004 H1008 0.950 . S
C1004 C1013 1.390 . S
C1005 C1004 1.387 . S
C1005 C1007 1.387 . S
H1006 C1013 0.950 . S
C1007 C1005 1.387 . S
C1007 C1009 1.390 . S
C1007 H1011 0.950 . S
H1008 C1004 0.950 . S
C1009 C1007 1.390 . S
C1009 C1010 1.387 . S
C1009 H1012 0.950 . S
C1010 C1009 1.387 . S
C1010 C1013 1.387 . S
H1011 C1007 0.950 . S
H1012 C1009 0.950 . S
C1013 C1004 1.390 . S
C1013 H1006 0.950 . S
C1013 C1010 1.387 . S
C1014 C1015 1.387 . S
C1014 H1018 0.950 . S
C1014 C1023 1.390 . S
C1015 C1014 1.387 . S
C1015 C1017 1.387 . S
H1016 C1023 0.950 . S
C1017 C1015 1.387 . S
C1017 C1019 1.390 . S
C1017 H1021 0.950 . S
H1018 C1014 0.950 . S
C1019 C1017 1.390 . S
C1019 C1020 1.387 . S
C1019 H1022 0.950 . S
C1020 C1019 1.387 . S
C1020 C1023 1.387 . S
H1021 C1017 0.950 . S
H1022 C1019 0.950 . S
C1023 C1014 1.390 . S
C1023 H1016 0.950 . S
C1023 C1020 1.387 . S
C1024 C1025 1.387 . S
C1024 H1028 0.950 . S
C1024 C1033 1.390 . S
C1025 C1024 1.387 . S
C1025 C1027 1.387 . S
H1026 C1033 0.950 . S
C1027 C1025 1.387 . S
C1027 C1029 1.390 . S
C1027 H1031 0.950 . S
H1028 C1024 0.950 . S
C1029 C1027 1.390 . S
C1029 C1030 1.387 . S
C1029 H1032 0.950 . S
C1030 C1029 1.387 . S
C1030 C1033 1.387 . S
H1031 C1027 0.950 . S
H1032 C1029 0.950 . S
C1033 C1024 1.390 . S
C1033 H1026 0.950 . S
C1033 C1030 1.387 . S
C1034 C1035 1.387 . S
C1034 H1038 0.950 . S
C1034 C1043 1.390 . S
C1035 C1034 1.387 . S
C1035 C1037 1.387 . S
H1036 C1043 0.950 . S
C1037 C1035 1.387 . S
C1037 C1039 1.390 . S
C1037 H1041 0.950 . S
H1038 C1034 0.950 . S
C1039 C1037 1.390 . S
C1039 C1040 1.387 . S
C1039 H1042 0.950 . S
C1040 C1039 1.387 . S
C1040 C1043 1.387 . S
H1041 C1037 0.950 . S
H1042 C1039 0.950 . S
C1043 C1034 1.390 . S
C1043 H1036 0.950 . S
C1043 C1040 1.387 . S
C1044 C1045 1.387 . S
C1044 H1048 0.950 . S
C1044 C1053 1.390 . S
C1045 C1044 1.387 . S
C1045 C1047 1.387 . S
H1046 C1053 0.950 . S
C1047 C1045 1.387 . S
C1047 C1049 1.390 . S
C1047 H1051 0.950 . S
H1048 C1044 0.950 . S
C1049 C1047 1.390 . S
C1049 C1050 1.387 . S
C1049 H1052 0.950 . S
C1050 C1049 1.387 . S
C1050 C1053 1.387 . S
H1051 C1047 0.950 . S
H1052 C1049 0.950 . S
C1053 C1044 1.390 . S
C1053 H1046 0.950 . S
C1053 C1050 1.387 . S
C1054 C1055 1.387 . S
C1054 H1058 0.950 . S
C1054 C1063 1.390 1_545 S
C1055 C1054 1.387 . S
C1055 C1057 1.387 . S
H1056 C1063 0.950 . S
C1057 C1055 1.387 . S
C1057 C1059 1.390 1_545 S
C1057 H1061 0.950 . S
H1058 C1054 0.950 . S
C1059 C1057 1.390 1_565 S
C1059 C1060 1.387 . S
C1059 H1062 0.950 . S
C1060 C1059 1.387 . S
C1060 C1063 1.387 . S
H1061 C1057 0.950 . S
H1062 C1059 0.950 . S
C1063 C1054 1.390 1_565 S
C1063 H1056 0.950 . S
C1063 C1060 1.387 . S
C1064 C1065 1.387 . S
C1064 H1068 0.950 . S
C1064 C1073 1.390 . S
C1065 C1064 1.387 . S
C1065 C1067 1.387 1_455 S
H1066 C1073 0.950 . S
C1067 C1065 1.387 1_655 S
C1067 C1069 1.390 . S
C1067 H1071 0.950 . S
H1068 C1064 0.950 . S
C1069 C1067 1.390 . S
C1069 C1070 1.387 . S
C1069 H1072 0.950 . S
C1070 C1069 1.387 . S
C1070 C1073 1.387 1_655 S
H1071 C1067 0.950 . S
H1072 C1069 0.950 . S
C1073 C1064 1.390 . S
C1073 H1066 0.950 . S
C1073 C1070 1.387 1_455 S
C1074 C1075 1.387 . S
C1074 H1078 0.950 . S
C1074 C1083 1.390 . S
C1075 C1074 1.387 . S
C1075 C1077 1.387 . S
H1076 C1083 0.950 . S
C1077 C1075 1.387 . S
C1077 C1079 1.390 . S
C1077 H1081 0.950 . S
H1078 C1074 0.950 . S
C1079 C1077 1.390 . S
C1079 C1080 1.387 . S
C1079 H1082 0.950 . S
C1080 C1079 1.387 . S
C1080 C1083 1.387 . S
H1081 C1077 0.950 . S
H1082 C1079 0.950 . S
C1083 C1074 1.390 . S
C1083 H1076 0.950 . S
C1083 C1080 1.387 . S
C1084 C1085 1.387 . S
C1084 H1088 0.950 . S
C1084 C1093 1.391 . S
C1085 C1084 1.387 . S
C1085 C1087 1.384 1_545 S
H1086 C1093 0.948 . S
C1087 C1085 1.384 1_565 S
C1087 C1089 1.391 . S
C1087 H1091 0.948 . S
H1088 C1084 0.950 . S
C1089 C1087 1.391 . S
C1089 C1090 1.387 . S
C1089 H1092 0.950 . S
C1090 C1089 1.387 . S
C1090 C1093 1.383 1_565 S
H1091 C1087 0.948 . S
H1092 C1089 0.950 . S
C1093 C1084 1.391 . S
C1093 H1086 0.948 . S
C1093 C1090 1.383 1_545 S
C1094 C1095 1.387 . S
C1094 H1098 0.950 . S
C1094 C1103 1.390 . S
C1095 C1094 1.387 . S
C1095 C1097 1.387 1_655 S
H1096 C1103 0.950 . S
C1097 C1095 1.387 1_455 S
C1097 C1099 1.390 . S
C1097 H1101 0.950 . S
H1098 C1094 0.950 . S
C1099 C1097 1.390 . S
C1099 C1100 1.387 . S
C1099 H1102 0.950 . S
C1100 C1099 1.387 . S
C1100 C1103 1.387 1_455 S
H1101 C1097 0.950 . S
H1102 C1099 0.950 . S
C1103 C1094 1.390 . S
C1103 H1096 0.950 . S
C1103 C1100 1.387 1_655 S
C1104 C1105 1.387 . S
C1104 H1108 0.950 . S
C1104 C1113 1.390 . S
C1105 C1104 1.387 . S
C1105 C1107 1.387 . S
H1106 C1113 0.950 . S
C1107 C1105 1.387 . S
C1107 C1109 1.390 . S
C1107 H1111 0.950 . S
H1108 C1104 0.950 . S
C1109 C1107 1.390 . S
C1109 C1110 1.387 . S
C1109 H1112 0.950 . S
C1110 C1109 1.387 . S
C1110 C1113 1.387 . S
H1111 C1107 0.950 . S
H1112 C1109 0.950 . S
C1113 C1104 1.390 . S
C1113 H1106 0.950 . S
C1113 C1110 1.387 . S
C1114 C1115 1.387 . S
C1114 H1118 0.950 . S
C1114 C1123 1.390 . S
C1115 C1114 1.387 . S
C1115 C1117 1.387 . S
H1116 C1123 0.950 . S
C1117 C1115 1.387 . S
C1117 C1119 1.390 . S
C1117 H1121 0.950 . S
H1118 C1114 0.950 . S
C1119 C1117 1.390 . S
C1119 C1120 1.387 . S
C1119 H1122 0.950 . S
C1120 C1119 1.387 . S
C1120 C1123 1.387 . S
H1121 C1117 0.950 . S
H1122 C1119 0.950 . S
C1123 C1114 1.390 . S
C1123 H1116 0.950 . S
C1123 C1120 1.387 . S
C1124 C1125 1.387 . S
C1124 H1128 0.950 . S
C1124 C1133 1.390 . S
C1125 C1124 1.387 . S
C1125 C1127 1.387 . S
H1126 C1133 0.950 . S
C1127 C1125 1.387 . S
C1127 C1129 1.390 . S
C1127 H1131 0.950 . S
H1128 C1124 0.950 . S
C1129 C1127 1.390 . S
C1129 C1130 1.387 . S
C1129 H1132 0.950 . S
C1130 C1129 1.387 . S
C1130 C1133 1.387 . S
H1131 C1127 0.950 . S
H1132 C1129 0.950 . S
C1133 C1124 1.390 . S
C1133 H1126 0.950 . S
C1133 C1130 1.387 . S
C1134 C1135 1.387 . S
C1134 H1138 0.950 . S
C1134 C1143 1.390 . S
C1135 C1134 1.387 . S
C1135 C1137 1.387 . S
H1136 C1143 0.950 . S
C1137 C1135 1.387 . S
C1137 C1139 1.390 . S
C1137 H1141 0.950 . S
H1138 C1134 0.950 . S
C1139 C1137 1.390 . S
C1139 C1140 1.387 . S
C1139 H1142 0.950 . S
C1140 C1139 1.387 . S
C1140 C1143 1.387 . S
H1141 C1137 0.950 . S
H1142 C1139 0.950 . S
C1143 C1134 1.390 . S
C1143 H1136 0.950 . S
C1143 C1140 1.387 . S
C1144 C1145 1.387 . S
C1144 H1148 0.950 . S
C1144 C1153 1.390 . S
C1145 C1144 1.387 . S
C1145 C1147 1.387 . S
H1146 C1153 0.950 . S
C1147 C1145 1.387 . S
C1147 C1149 1.390 . S
C1147 H1151 0.950 . S
H1148 C1144 0.950 . S
C1149 C1147 1.390 . S
C1149 C1150 1.387 . S
C1149 H1152 0.950 . S
C1150 C1149 1.387 . S
C1150 C1153 1.387 . S
H1151 C1147 0.950 . S
H1152 C1149 0.950 . S
C1153 C1144 1.390 . S
C1153 H1146 0.950 . S
C1153 C1150 1.387 . S
C1154 C1155 1.387 . S
C1154 H1158 0.950 . S
C1154 C1163 1.390 . S
C1155 C1154 1.387 . S
C1155 C1157 1.387 . S
H1156 C1163 0.950 . S
C1157 C1155 1.387 . S
C1157 C1159 1.390 . S
C1157 H1161 0.950 . S
H1158 C1154 0.950 . S
C1159 C1157 1.390 . S
C1159 C1160 1.387 . S
C1159 H1162 0.950 . S
C1160 C1159 1.387 . S
C1160 C1163 1.387 . S
H1161 C1157 0.950 . S
H1162 C1159 0.950 . S
C1163 C1154 1.390 . S
C1163 H1156 0.950 . S
C1163 C1160 1.387 . S
C1164 C1165 1.387 . S
C1164 H1168 0.950 . S
C1164 C1173 1.390 . S
C1165 C1164 1.387 . S
C1165 C1167 1.387 . S
H1166 C1173 0.950 . S
C1167 C1165 1.387 . S
C1167 C1169 1.390 . S
C1167 H1171 0.950 . S
H1168 C1164 0.950 . S
C1169 C1167 1.390 . S
C1169 C1170 1.387 . S
C1169 H1172 0.950 . S
C1170 C1169 1.387 . S
C1170 C1173 1.387 . S
H1171 C1167 0.950 . S
H1172 C1169 0.950 . S
C1173 C1164 1.390 . S
C1173 H1166 0.950 . S
C1173 C1170 1.387 . S
C1174 C1175 1.387 . S
C1174 H1178 0.950 . S
C1174 C1183 1.390 . S
C1175 C1174 1.387 . S
C1175 C1177 1.387 . S
H1176 C1183 0.950 . S
C1177 C1175 1.387 . S
C1177 C1179 1.390 . S
C1177 H1181 0.950 . S
H1178 C1174 0.950 . S
C1179 C1177 1.390 . S
C1179 C1180 1.387 . S
C1179 H1182 0.950 . S
C1180 C1179 1.387 . S
C1180 C1183 1.387 . S
H1181 C1177 0.950 . S
H1182 C1179 0.950 . S
C1183 C1174 1.390 . S
C1183 H1176 0.950 . S
C1183 C1180 1.387 . S
C1184 C1185 1.387 . S
C1184 H1188 0.950 . S
C1184 C1193 1.390 . S
C1185 C1184 1.387 . S
C1185 C1187 1.387 . S
H1186 C1193 0.950 . S
C1187 C1185 1.387 . S
C1187 C1189 1.390 . S
C1187 H1191 0.950 . S
H1188 C1184 0.950 . S
C1189 C1187 1.390 . S
C1189 C1190 1.387 . S
C1189 H1192 0.950 . S
C1190 C1189 1.387 . S
C1190 C1193 1.387 . S
H1191 C1187 0.950 . S
H1192 C1189 0.950 . S
C1193 C1184 1.390 . S
C1193 H1186 0.950 . S
C1193 C1190 1.387 . S
C1194 C1195 1.387 . S
C1194 H1198 0.950 . S
C1194 C1203 1.390 . S
C1195 C1194 1.387 . S
C1195 C1197 1.387 . S
H1196 C1203 0.950 . S
C1197 C1195 1.387 . S
C1197 C1199 1.390 . S
C1197 H1201 0.950 . S
H1198 C1194 0.950 . S
C1199 C1197 1.390 . S
C1199 C1200 1.387 . S
C1199 H1202 0.950 . S
C1200 C1199 1.387 . S
C1200 C1203 1.387 . S
H1201 C1197 0.950 . S
H1202 C1199 0.950 . S
C1203 C1194 1.390 . S
C1203 H1196 0.950 . S
C1203 C1200 1.387 . S
C1204 C1205 1.387 . S
C1204 H1208 0.950 . S
C1204 C1213 1.390 . S
C1205 C1204 1.387 . S
C1205 C1207 1.387 . S
H1206 C1213 0.950 . S
C1207 C1205 1.387 . S
C1207 C1209 1.390 . S
C1207 H1211 0.950 . S
H1208 C1204 0.950 . S
C1209 C1207 1.390 . S
C1209 C1210 1.387 . S
C1209 H1212 0.950 . S
C1210 C1209 1.387 . S
C1210 C1213 1.387 . S
H1211 C1207 0.950 . S
H1212 C1209 0.950 . S
C1213 C1204 1.390 . S
C1213 H1206 0.950 . S
C1213 C1210 1.387 . S
C1214 C1215 1.387 . S
C1214 H1218 0.950 . S
C1214 C1223 1.390 . S
C1215 C1214 1.387 . S
C1215 C1217 1.387 . S
H1216 C1223 0.950 . S
C1217 C1215 1.387 . S
C1217 C1219 1.390 . S
C1217 H1221 0.950 . S
H1218 C1214 0.950 . S
C1219 C1217 1.390 . S
C1219 C1220 1.387 . S
C1219 H1222 0.950 . S
C1220 C1219 1.387 . S
C1220 C1223 1.387 . S
H1221 C1217 0.950 . S
H1222 C1219 0.950 . S
C1223 C1214 1.390 . S
C1223 H1216 0.950 . S
C1223 C1220 1.387 . S
C505 C232 1.259 . S
C510 C8 1.260 . S
C515 C246 1.259 . S
C520 C22 1.259 . S
C525 C36 1.260 . S
C530 C218 1.260 . S
C535 C372 1.260 . S
C540 C50 1.260 . S
C545 C344 1.259 . S
C550 C64 1.259 . S
C555 C78 1.259 . S
C560 C358 1.259 . S
C565 C484 1.259 . S
C570 C92 1.260 . S
C575 C498 1.260 . S
C580 C106 1.259 . S
C585 C470 1.259 . S
C590 C120 1.259 . S
C595 C288 1.260 . S
C600 C134 1.260 . S
C605 C148 1.259 . S
C610 C260 1.260 . S
C615 C274 1.259 . S
C620 C162 1.260 . S
C625 C400 1.259 . S
C630 C176 1.259 . S
C635 C190 1.260 . S
C640 C414 1.259 . S
C645 C386 1.259 . S
C650 C204 1.259 . S
C655 C456 1.260 . S
C660 C302 1.260 . S
C665 C428 1.260 . S
C670 C316 1.260 . S
C675 C330 1.259 . S
C680 C442 1.260 . S
C685 C101 1.561 . S
C690 C7 1.553 . S
C695 C115 1.561 . S
C700 C21 1.555 . S
C705 C87 1.561 . S
C710 C35 1.554 . S
C715 C49 1.554 . S
C720 C157 1.561 . S
C725 C129 1.561 . S
C730 C63 1.553 . S
C735 C77 1.555 . S
C740 C143 1.560 . S
C745 C17 1.560 . S
C750 C91 1.555 . S
C755 C105 1.555 . S
C760 C31 1.561 . S
C765 C3 1.561 . S
C770 C119 1.554 . S
C775 C73 1.561 . S
C780 C133 1.554 . S
C785 C45 1.560 . S
C790 C147 1.555 . S
C795 C161 1.555 . S
C800 C59 1.560 . S
C805 C175 1.555 . S
C810 C269 1.560 . S
C815 C283 1.560 . S
C820 C189 1.555 . S
C825 C255 1.561 . S
C830 C203 1.554 . S
C835 C217 1.554 . S
C840 C325 1.561 . S
C845 C297 1.561 . S
C850 C231 1.553 . S
C855 C245 1.553 . S
C860 C311 1.561 . S
C865 C259 1.553 . S
C870 C185 1.561 . S
C875 C273 1.553 . S
C880 C199 1.561 . S
C885 C171 1.561 . S
C890 C287 1.554 . S
C895 C241 1.561 . S
C900 C301 1.554 . S
C905 C213 1.560 . S
C910 C315 1.555 . S
C915 C329 1.553 . S
C920 C227 1.561 . S
C925 C437 1.560 . S
C930 C343 1.555 . S
C935 C357 1.553 . S
C940 C451 1.561 . S
C945 C371 1.554 . S
C950 C423 1.561 . S
C955 C493 1.561 . S
C960 C385 1.554 . S
C965 C399 1.555 . S
C970 C465 1.560 . S
C975 C479 1.560 . S
C980 C413 1.555 . S
C985 C353 1.560 . S
C990 C427 1.555 . S
C995 C367 1.560 . S
C1000 C441 1.555 . S
C1005 C455 1.554 . S
C1010 C339 1.561 . S
C1015 C469 1.554 . S
C1020 C409 1.561 . S
C1025 C381 1.561 . S
C1030 C483 1.554 . S
C1035 C395 1.561 . S
C1040 C497 1.555 . S
C1045 C9 1.543 . S
C1050 C51 1.542 . S
C1055 C23 1.542 . S
C1060 C65 1.542 . S
C1065 C79 1.542 . S
C1070 C37 1.542 . S
C1075 C93 1.543 . S
C1080 C135 1.543 . S
C1085 C149 1.543 . S
C1090 C107 1.543 . S
C1095 C163 1.543 . S
C1100 C121 1.543 . S
C1105 C177 1.543 . S
C1110 C219 1.542 . S
C1115 C191 1.542 . S
C1120 C233 1.542 . S
C1125 C247 1.543 . S
C1130 C205 1.542 . S
C1135 C261 1.542 . S
C1140 C303 1.543 1_554 S
C1145 C275 1.542 . S
C1150 C317 1.542 1_554 S
C1155 C289 1.543 . S
C1160 C331 1.543 1_554 S
C1165 C387 1.543 1_556 S
C1170 C345 1.543 . S
C1175 C401 1.543 1_556 S
C1180 C359 1.543 . S
C1185 C415 1.543 1_556 S
C1190 C373 1.543 . S
C1195 C429 1.543 . S
C1200 C471 1.542 . S
C1205 C485 1.542 . S
C1210 C443 1.542 . S
C1215 C499 1.543 . S
C1220 C457 1.542 . S
