# Generated by pormake.
# Topology pts-e, (5)-cn, num edge types: 1
# Building blocks:
#     Node 0, Type 0, BuildingBlock: BEQFEK_clean_sbu_0, # of connection points: 5
#     Node 1, Type 0, BuildingBlock: BEQFEK_clean_sbu_0, # of connection points: 5
#     Node 2, Type 0, BuildingBlock: BEQFEK_clean_sbu_0, # of connection points: 5
#     Node 3, Type 0, BuildingBlock: BEQFEK_clean_sbu_0, # of connection points: 5
#     Node 4, Type 0, BuildingBlock: BEQFEK_clean_sbu_0, # of connection points: 5
#     Node 5, Type 0, BuildingBlock: BEQFEK_clean_sbu_0, # of connection points: 5
#     Node 6, Type 0, BuildingBlock: BEQFEK_clean_sbu_0, # of connection points: 5
#     Node 7, Type 0, BuildingBlock: BEQFEK_clean_sbu_0, # of connection points: 5
#     Edge 8, Type (0, 0), BuildingBlock: ZUJKAS_clean_linker_0, # of connection points: 2
#     Edge 9, Type (0, 0), BuildingBlock: ZUJKAS_clean_linker_0, # of connection points: 2
#     Edge 10, Type (0, 0), BuildingBlock: ZUJKAS_clean_linker_0, # of connection points: 2
#     Edge 11, Type (0, 0), BuildingBlock: ZUJKAS_clean_linker_0, # of connection points: 2
#     Edge 12, Type (0, 0), BuildingBlock: ZUJKAS_clean_linker_0, # of connection points: 2
#     Edge 13, Type (0, 0), BuildingBlock: ZUJKAS_clean_linker_0, # of connection points: 2
#     Edge 14, Type (0, 0), BuildingBlock: ZUJKAS_clean_linker_0, # of connection points: 2
#     Edge 15, Type (0, 0), BuildingBlock: ZUJKAS_clean_linker_0, # of connection points: 2
#     Edge 16, Type (0, 0), BuildingBlock: ZUJKAS_clean_linker_0, # of connection points: 2
#     Edge 17, Type (0, 0), BuildingBlock: ZUJKAS_clean_linker_0, # of connection points: 2
#     Edge 18, Type (0, 0), BuildingBlock: ZUJKAS_clean_linker_0, # of connection points: 2
#     Edge 19, Type (0, 0), BuildingBlock: ZUJKAS_clean_linker_0, # of connection points: 2
#     Edge 20, Type (0, 0), BuildingBlock: ZUJKAS_clean_linker_0, # of connection points: 2
#     Edge 21, Type (0, 0), BuildingBlock: ZUJKAS_clean_linker_0, # of connection points: 2
#     Edge 22, Type (0, 0), BuildingBlock: ZUJKAS_clean_linker_0, # of connection points: 2
#     Edge 23, Type (0, 0), BuildingBlock: ZUJKAS_clean_linker_0, # of connection points: 2
#     Edge 24, Type (0, 0), BuildingBlock: ZUJKAS_clean_linker_0, # of connection points: 2
#     Edge 25, Type (0, 0), BuildingBlock: ZUJKAS_clean_linker_0, # of connection points: 2
#     Edge 26, Type (0, 0), BuildingBlock: ZUJKAS_clean_linker_0, # of connection points: 2
#     Edge 27, Type (0, 0), BuildingBlock: ZUJKAS_clean_linker_0, # of connection points: 2
# Relax obj value: 0.370
# Max RMSD: 0.219
# Mean RMSD: 0.219
data_MOF--net-pts-e--node1-BEQFEK_clean_sbu_0--edge1-ZUJKAS_clean_linker_0
_symmetry_space_group_name_H-M    P1
_symmetry_Int_Tables_number       1
_symmetry_cell_setting            triclinic
loop_
_symmetry_equiv_pos_as_xyz
'x, y, z'
_cell_length_a     44.226417
_cell_length_b     44.218539
_cell_length_c     66.24383
_cell_angle_alpha  89.959207
_cell_angle_beta   89.985833
_cell_angle_gamma 90.000841
loop_
_atom_site_label
_atom_site_type_symbol
_atom_site_fract_x
_atom_site_fract_y
_atom_site_fract_z
_atom_type_partial_charge
Co0 Co 0.20795 0.05045 0.15363 0.0
Co1 Co 0.26825 0.02884 0.17309 0.0
C2 C 0.24094 0.08944 0.18301 0.0
O3 O 0.21926 0.08515 0.17069 0.0
O4 O 0.26159 0.0696 0.18547 0.0
C5 C 0.1504 0.07552 0.14336 0.0
O6 O 0.15037 0.08529 0.16209 0.0
C7 C 0.33294 0.02623 0.184 0.0
C8 C 0.33933 0.97682 0.18697 0.0
C9 C 0.35458 0.00414 0.18771 0.0
N10 N 0.30628 0.01244 0.18081 0.0
N11 N 0.31022 0.98297 0.18283 0.0
C12 C 0.33708 0.05985 0.18423 0.0
H13 H 0.31743 0.07081 0.19155 0.0
H14 H 0.33851 0.06835 0.16851 0.0
H15 H 0.35787 0.06636 0.19252 0.0
C16 C 0.24204 0.03934 0.11623 0.0
N17 N 0.23991 0.03905 0.13649 0.0
N18 N 0.26575 0.0302 0.14429 0.0
C19 C 0.28533 0.02451 0.12906 0.0
C20 C 0.27096 0.0304 0.11077 0.0
C21 C 0.21631 0.0469 0.10243 0.0
H22 H 0.1963 0.03316 0.10665 0.0
H23 H 0.21031 0.07111 0.10424 0.0
H24 H 0.22182 0.04233 0.08639 0.0
O25 O 0.19441 0.01689 0.17145 0.0
O26 O 0.23748 0.00118 0.18489 0.0
H27 H 0.3182 0.99347 0.14047 0.0
H28 H 0.32952 0.01235 0.11742 0.0
C29 C 0.31751 0.0151 0.132 0.0
H30 H 0.3294 0.03243 0.14108 0.0
H31 H 0.29309 0.96698 0.18096 0.0
O32 O 0.17322 0.06128 0.1368 0.0
C33 C 0.20886 -0.00068 0.18324 0.0
Co34 Co 0.98479 0.20979 0.65524 0.0
Co35 Co 0.01091 0.26897 0.67365 0.0
C36 C 0.95026 0.24336 0.68633 0.0
O37 O 0.952 0.22193 0.67356 0.0
O38 O 0.97131 0.26296 0.68798 0.0
C39 C 0.95992 0.15189 0.64661 0.0
O40 O 0.95313 0.15191 0.66593 0.0
C41 C 0.01533 0.33412 0.68225 0.0
C42 C 0.06438 0.33885 0.68793 0.0
C43 C 0.03775 0.35518 0.68651 0.0
N44 N 0.02832 0.30673 0.68085 0.0
N45 N 0.05756 0.30968 0.68444 0.0
C46 C 0.98203 0.33957 0.68032 0.0
H47 H 0.96915 0.3194 0.68518 0.0
H48 H 0.97632 0.3441 0.66431 0.0
H49 H 0.975 0.35932 0.68953 0.0
C50 C 0.99414 0.24328 0.61739 0.0
N51 N 0.99565 0.24137 0.63763 0.0
N52 N 0.00727 0.26643 0.64494 0.0
C53 C 0.01412 0.28501 0.62934 0.0
C54 C 0.00561 0.27103 0.61141 0.0
C55 C 0.98352 0.21812 0.60403 0.0
H56 H -0.00243 0.19777 0.60684 0.0
H57 H 0.95975 0.21243 0.60784 0.0
H58 H 0.98509 0.22401 0.58779 0.0
O59 O 0.01938 0.19535 0.67196 0.0
O60 O 0.0387 0.2377 0.68428 0.0
H61 H 0.04835 0.31391 0.64158 0.0
H62 H 0.03535 0.32492 0.61671 0.0
C63 C 0.02838 0.3155 0.63152 0.0
H64 H 0.01193 0.3312 0.63851 0.0
H65 H 0.07298 0.29183 0.68414 0.0
O66 O 0.97214 0.17513 0.63896 0.0
C67 C 0.03885 0.20901 0.68279 0.0
Co68 Co 0.8239 0.98849 0.15129 0.0
Co69 Co 0.76341 0.00709 0.17163 0.0
C70 C 0.79169 0.94689 0.17992 0.0
O71 O 0.81315 0.95274 0.16769 0.0
O72 O 0.77046 0.96584 0.18314 0.0
C73 C 0.88046 0.96212 0.13941 0.0
O74 O 0.87983 0.94902 0.15721 0.0
C75 C 0.69899 0.00795 0.18231 0.0
C76 C 0.69172 0.05687 0.18728 0.0
C77 C 0.67695 0.02924 0.18689 0.0
N78 N 0.72545 0.02246 0.18004 0.0
N79 N 0.72104 0.0516 0.18329 0.0
C80 C 0.69474 0.97495 0.1782 0.0
H81 H 0.71348 0.96619 0.16871 0.0
H82 H 0.67279 0.97086 0.17055 0.0
H83 H 0.69479 0.96246 0.19273 0.0
C84 C 0.78933 0.00078 0.11438 0.0
N85 N 0.7916 9e-05 0.13461 0.0
N86 N 0.76548 0.00736 0.14271 0.0
C87 C 0.7455 0.01285 0.12766 0.0
C88 C 0.75997 0.00853 0.10919 0.0
C89 C 0.81527 0.99506 0.10034 0.0
H90 H 0.83502 0.00871 0.10518 0.0
H91 H 0.82165 0.97082 0.1011 0.0
H92 H 0.80972 0.00113 0.08453 0.0
O93 O 0.83711 0.0217 0.16942 0.0
O94 O 0.79392 0.03442 0.18404 0.0
H95 H 0.71094 0.04046 0.14071 0.0
H96 H 0.7009 0.02451 0.11647 0.0
C97 C 0.71286 0.02025 0.1309 0.0
H98 H 0.70171 0.00108 0.13868 0.0
H99 H 0.7379 0.06801 0.18215 0.0
O100 O 0.85856 0.97878 0.13408 0.0
C101 C 0.82234 0.03771 0.18196 0.0
Co102 Co 0.04675 0.82447 0.65258 0.0
Co103 Co 0.02623 0.76393 0.67201 0.0
C104 C 0.08574 0.79288 0.6827 0.0
O105 O 0.08119 0.81449 0.67034 0.0
O106 O 0.0665 0.7716 0.68485 0.0
C107 C 0.07347 0.8812 0.64089 0.0
O108 O 0.08697 0.88033 0.65855 0.0
C109 C 0.02689 0.69952 0.68172 0.0
C110 C 0.97846 0.69068 0.68757 0.0
C111 C 0.00649 0.67678 0.68653 0.0
N112 N 0.01155 0.72556 0.68001 0.0
N113 N 0.98268 0.72025 0.68373 0.0
C114 C 0.05981 0.69641 0.67692 0.0
H115 H 0.06746 0.71547 0.66728 0.0
H116 H 0.06433 0.67462 0.66918 0.0
H117 H 0.07295 0.69692 0.69119 0.0
C118 C 0.03849 0.78955 0.61525 0.0
N119 N 0.03722 0.79193 0.63547 0.0
N120 N 0.02801 0.76616 0.64323 0.0
C121 C 0.02262 0.74656 0.62796 0.0
C122 C 0.02941 0.76075 0.60978 0.0
C123 C 0.04746 0.81482 0.60143 0.0
H124 H 0.03211 0.83431 0.60389 0.0
H125 H 0.07081 0.82219 0.60511 0.0
H126 H 0.04631 0.80815 0.58532 0.0
O127 O 0.01181 0.83704 0.66962 0.0
O128 O -0.00248 0.79373 0.68344 0.0
H129 H 0.99248 0.71421 0.64114 0.0
H130 H 0.00548 0.70435 0.61607 0.0
C131 C 0.01204 0.7147 0.63068 0.0
H132 H 0.03051 0.7011 0.63742 0.0
H133 H 0.96578 0.73665 0.68312 0.0
O134 O 0.05657 0.85944 0.63565 0.0
C135 C 0.99454 0.82218 0.68139 0.0
Co136 Co 0.20851 0.98753 0.85929 0.0
Co137 Co 0.26812 0.00696 0.83792 0.0
C138 C 0.23888 0.94576 0.83089 0.0
O139 O 0.2181 0.95085 0.84377 0.0
O140 O 0.25934 0.96537 0.82709 0.0
C141 C 0.1539 0.9606 0.87678 0.0
O142 O 0.15494 0.93985 0.86261 0.0
C143 C 0.3334 0.00758 0.82891 0.0
C144 C 0.3383 0.05306 0.81538 0.0
C145 C 0.35448 0.02757 0.82091 0.0
N146 N 0.30611 0.02094 0.82834 0.0
N147 N 0.3092 0.04801 0.82013 0.0
C148 C 0.33861 0.97584 0.83597 0.0
H149 H 0.31738 0.96256 0.83518 0.0
H150 H 0.34628 0.97602 0.85189 0.0
H151 H 0.35641 0.96483 0.82672 0.0
C152 C 0.24421 0.00154 0.89547 0.0
N153 N 0.24159 -0.00043 0.87529 0.0
N154 N 0.26682 0.00873 0.86676 0.0
C155 C 0.28616 0.01762 0.88147 0.0
C156 C 0.27235 0.01331 0.90011 0.0
C157 C 0.22061 0.99105 0.91009 0.0
H158 H 0.21121 0.96906 0.90508 0.0
H159 H 0.2299 0.98829 0.92553 0.0
H160 H 0.20207 0.00792 0.91051 0.0
O161 O 0.19518 0.01968 0.84011 0.0
O162 O 0.23792 0.03442 0.82579 0.0
H163 H 0.32353 0.04545 0.89112 0.0
H164 H 0.33338 0.01392 0.87535 0.0
C165 C 0.31635 0.03188 0.87787 0.0
H166 H 0.31551 0.04658 0.86433 0.0
H167 H 0.29147 0.06323 0.818 0.0
O168 O 0.17395 0.98108 0.87736 0.0
C169 C 0.20939 0.03647 0.82769 0.0
Co170 Co 0.04611 0.2079 0.35633 0.0
Co171 Co 0.02713 0.26866 0.33653 0.0
C172 C 0.08836 0.24112 0.32917 0.0
O173 O 0.08253 0.21915 0.34099 0.0
O174 O 0.06909 0.26206 0.32592 0.0
C175 C 0.06843 0.14939 0.36697 0.0
O176 O 0.07912 0.1491 0.34846 0.0
C177 C 0.02695 0.3338 0.32864 0.0
C178 C 0.98064 0.34051 0.31689 0.0
C179 C 0.00704 0.35582 0.32168 0.0
N180 N 0.01282 0.30695 0.32797 0.0
N181 N 0.98526 0.31104 0.32079 0.0
C182 C 0.05789 0.33801 0.33732 0.0
H183 H 0.06406 0.31842 0.34697 0.0
H184 H 0.05902 0.35919 0.34627 0.0
H185 H 0.07455 0.33948 0.32483 0.0
C186 C 0.03138 0.24085 0.39344 0.0
N187 N 0.03362 0.23962 0.37322 0.0
N188 N 0.02509 0.26557 0.36538 0.0
C189 C 0.0167 0.28419 0.38061 0.0
C190 C 0.02036 0.26901 0.39887 0.0
C191 C 0.04131 0.21597 0.4073 0.0
H192 H 0.02538 0.19669 0.40595 0.0
H193 H 0.06413 0.20805 0.40279 0.0
H194 H 0.04224 0.22342 0.42326 0.0
O195 O 0.01362 0.1952 0.33735 0.0
O196 O 0.00044 0.23862 0.3232 0.0
H197 H 0.99238 0.32321 0.39164 0.0
H198 H 0.02299 0.33115 0.3745 0.0
C199 C 0.00419 0.31533 0.37782 0.0
H200 H 0.98826 0.31565 0.36491 0.0
H201 H 0.96943 0.29381 0.31892 0.0
O202 O 0.05459 0.17262 0.37326 0.0
C203 C -0.00239 0.2101 0.32485 0.0
Co204 Co 0.82628 0.03711 0.85948 0.0
Co205 Co 0.76524 0.02773 0.83694 0.0
C206 C 0.80063 0.08567 0.83323 0.0
O207 O 0.82084 0.07623 0.84542 0.0
O208 O 0.77783 0.06937 0.82863 0.0
C209 C 0.87419 0.06113 0.88571 0.0
O210 O 0.86455 0.08866 0.88193 0.0
C211 C 0.70055 0.03446 0.82639 0.0
C212 C 0.69145 0.98929 0.81343 0.0
C213 C 0.67783 0.01651 0.81827 0.0
N214 N 0.7263 0.01828 0.82659 0.0
N215 N 0.72072 0.99144 0.81865 0.0
C216 C 0.69827 0.06681 0.83288 0.0
H217 H 0.69097 0.06795 0.84886 0.0
H218 H 0.68132 0.07899 0.82357 0.0
H219 H 0.72052 0.07816 0.83164 0.0
C220 C 0.78839 0.02305 0.89481 0.0
N221 N 0.79188 0.02674 0.87478 0.0
N222 N 0.76576 0.02261 0.8657 0.0
C223 C 0.74472 0.01601 0.87989 0.0
C224 C 0.75847 0.01614 0.89874 0.0
C225 C 0.81295 0.02788 0.91003 0.0
H226 H 0.8318 0.01199 0.90697 0.0
H227 H 0.82166 0.05129 0.90858 0.0
H228 H 0.80489 0.02447 0.92571 0.0
O229 O 0.83644 0.00554 0.83932 0.0
O230 O 0.79309 -0.00093 0.82322 0.0
H231 H 0.71043 0.9943 0.86218 0.0
H232 H 0.70153 -0.00245 0.88877 0.0
C233 C 0.71228 0.00898 0.87568 0.0
H234 H 0.69995 0.03031 0.87273 0.0
H235 H 0.73681 0.97434 0.81714 0.0
O236 O 0.8613 0.0386 0.87755 0.0
C237 C 0.82092 0.99275 0.8256 0.0
Co238 Co 0.98493 0.82493 0.35614 0.0
Co239 Co 0.00673 0.76543 0.33574 0.0
C240 C 0.94586 0.79349 0.3264 0.0
O241 O 0.95002 0.81462 0.33914 0.0
O242 O 0.96582 0.77306 0.32357 0.0
C243 C 0.95673 0.88037 0.36923 0.0
O244 O 0.94251 0.87984 0.35182 0.0
C245 C 0.00795 0.70026 0.32666 0.0
C246 C 0.05519 0.69457 0.31638 0.0
C247 C 0.02871 0.67884 0.32013 0.0
N248 N 0.02175 0.72733 0.32704 0.0
N249 N 0.0499 0.72379 0.32075 0.0
C250 C 0.9752 0.69543 0.33146 0.0
H251 H 0.97272 0.68859 0.34747 0.0
H252 H 0.96565 0.6772 0.32187 0.0
H253 H 0.96219 0.71654 0.32921 0.0
C254 C -0.00354 0.78965 0.39297 0.0
N255 N 0.99619 0.79224 0.37273 0.0
N256 N 0.00625 0.76707 0.36459 0.0
C257 C 0.01401 0.74779 0.37961 0.0
C258 C 0.00754 0.76137 0.39805 0.0
C259 C 0.98788 0.81461 0.40713 0.0
H260 H 0.00238 0.83458 0.4041 0.0
H261 H 0.96404 0.82123 0.40437 0.0
H262 H 0.99066 0.80805 0.42317 0.0
O263 O 0.01855 0.8388 0.3383 0.0
O264 O 0.03452 0.7962 0.32432 0.0
H265 H 0.04488 0.71807 0.36449 0.0
H266 H 0.03752 0.7081 0.39054 0.0
C267 C 0.02739 0.71709 0.37645 0.0
H268 H 0.0094 0.70132 0.37155 0.0
H269 H 0.06564 0.74128 0.3197 0.0
O270 O 0.97479 0.85913 0.37367 0.0
C271 C 0.03624 0.82476 0.32636 0.0
H272 H 0.29651 0.98212 0.09149 0.0
H273 H 0.31043 0.97881 0.05561 0.0
H274 H 0.28527 0.07232 0.04751 0.0
H275 H 0.27226 0.07578 0.08329 0.0
H276 H 0.27108 0.98586 0.02515 0.0
H277 H 0.36255 0.06969 0.0155 0.0
H278 H 0.35119 0.05584 0.04002 0.0
H279 H 0.33047 0.08595 0.02798 0.0
C280 C 0.29486 0.00212 0.0821 0.0
C281 C 0.2834 0.0292 0.09004 0.0
C282 C 0.30267 0.00021 0.06163 0.0
C283 C 0.29933 0.02544 0.04887 0.0
C284 C 0.28884 0.05277 0.05707 0.0
H285 H 0.2466 0.04951 0.92816 0.0
H286 H 0.25902 0.05222 0.96416 0.0
C287 C 0.28113 0.05467 0.07747 0.0
C288 C 0.30317 0.02245 0.02665 0.0
H289 H 0.33407 0.05708 0.9853 0.0
C290 C 0.28541 0.00097 0.0165 0.0
C291 C 0.32187 0.04216 0.01529 0.0
C292 C 0.34283 0.06448 0.0253 0.0
C293 C 0.28458 -0.00018 0.99534 0.0
C294 C 0.30184 0.02071 0.98404 0.0
C295 C 0.32074 0.04122 0.99407 0.0
C296 C 0.29806 0.023 0.96191 0.0
C297 C 0.26423 0.97716 0.98508 0.0
C298 C 0.31659 0.00647 0.94871 0.0
C299 C 0.30957 0.005 0.92808 0.0
C300 C 0.28386 0.01988 0.92059 0.0
C301 C 0.26652 0.03786 0.93365 0.0
C302 C 0.27357 0.03941 0.95416 0.0
H303 H 0.25476 0.96041 0.99587 0.0
H304 H 0.2452 0.98922 0.97768 0.0
H305 H 0.2769 0.96492 0.97314 0.0
H306 H 0.33551 0.99357 0.95451 0.0
H307 H 0.32308 0.99083 0.91826 0.0
H308 H 0.9832 0.24277 0.42614 0.0
H309 H 0.9806 0.253 0.46241 0.0
H310 H 0.04205 0.32794 0.45499 0.0
H311 H 0.04457 0.31769 0.41849 0.0
H312 H 0.03492 0.25034 0.48603 0.0
H313 H 0.97464 0.3602 0.49416 0.0
H314 H 0.97063 0.33662 0.47205 0.0
H315 H 0.00452 0.35816 0.47573 0.0
C316 C 0.99551 0.26191 0.43221 0.0
C317 C 0.01414 0.27942 0.41966 0.0
C318 C 0.99409 0.26768 0.45289 0.0
C319 C 0.01113 0.2912 0.46139 0.0
C320 C 0.02844 0.3099 0.4487 0.0
H321 H 0.05685 0.28493 0.59041 0.0
H322 H 0.06077 0.29487 0.55395 0.0
C323 C 0.02985 0.30409 0.4279 0.0
C324 C 0.01313 0.29371 0.48368 0.0
H325 H 0.99269 0.33723 0.52405 0.0
C326 C 0.02592 0.26946 0.49435 0.0
C327 C 0.00128 0.31863 0.49444 0.0
C328 C 0.98679 0.3449 0.48362 0.0
C329 C 0.02666 0.2691 0.51551 0.0
C330 C 0.01463 0.29391 0.52634 0.0
C331 C 0.00219 0.31843 0.51569 0.0
C332 C 0.01249 0.29326 0.54869 0.0
C333 C 0.03921 0.24162 0.52615 0.0
C334 C 0.98405 0.29036 0.55788 0.0
C335 C 0.98184 0.28483 0.57859 0.0
C336 C 0.00801 0.28229 0.59046 0.0
C337 C 0.03639 0.287 0.58153 0.0
C338 C 0.03862 0.29248 0.56075 0.0
H339 H 0.04256 0.2223 0.51567 0.0
H340 H 0.06141 0.24735 0.53293 0.0
H341 H 0.02388 0.23433 0.53851 0.0
H342 H 0.96363 0.29084 0.54885 0.0
H343 H 0.95974 0.28119 0.58522 0.0
H344 H 0.76181 0.9638 0.08135 0.0
H345 H 0.74899 0.9672 0.04553 0.0
H346 H 0.71594 0.05801 0.05458 0.0
H347 H 0.73016 0.05504 0.09042 0.0
H348 H 0.69864 0.97713 0.02356 0.0
H349 H 0.78006 0.07157 0.01234 0.0
H350 H 0.77808 0.05046 0.03558 0.0
H351 H 0.75042 0.07915 0.03014 0.0
C352 C 0.75156 0.98439 0.07569 0.0
C353 C 0.74728 0.00929 0.08851 0.0
C354 C 0.74413 0.98628 0.05526 0.0
C355 C 0.73211 0.01309 0.04723 0.0
C356 C 0.72589 0.03735 0.06032 0.0
H357 H 0.72041 0.05515 0.91764 0.0
H358 H 0.7069 0.05498 0.95369 0.0
C359 C 0.73364 0.03554 0.08081 0.0
C360 C 0.72813 0.01586 0.025 0.0
H361 H 0.75492 0.05354 0.98362 0.0
C362 C 0.71067 0.99407 0.01486 0.0
C363 C 0.74396 0.03788 0.01358 0.0
C364 C 0.7644 0.06095 0.02338 0.0
C365 C 0.70928 0.99322 0.99366 0.0
C366 C 0.72576 0.01468 0.98232 0.0
C367 C 0.74214 0.03724 0.99241 0.0
C368 C 0.72905 0.01241 0.9601 0.0
C369 C 0.69072 0.96902 0.98351 0.0
C370 C 0.74549 0.9883 0.95174 0.0
C371 C 0.75332 0.98852 0.9313 0.0
C372 C 0.74467 0.01273 0.91889 0.0
C373 C 0.72687 0.03605 0.92694 0.0
C374 C 0.71931 0.03603 0.94748 0.0
H375 H 0.67346 0.95942 0.99389 0.0
H376 H 0.6792 0.97808 0.96989 0.0
H377 H 0.70587 0.95039 0.97865 0.0
H378 H 0.75373 0.97017 0.96127 0.0
H379 H 0.76746 0.97058 0.9254 0.0
H380 H 0.96358 0.75136 0.42567 0.0
H381 H 0.97014 0.74083 0.46177 0.0
H382 H 0.06661 0.73471 0.45311 0.0
H383 H 0.06004 0.74569 0.41697 0.0
H384 H -0.00072 0.6936 0.48497 0.0
H385 H 0.05442 0.80608 0.49286 0.0
H386 H 0.03371 0.79531 0.47053 0.0
H387 H 0.0712 0.78101 0.47469 0.0
C388 C 0.98609 0.74707 0.43146 0.0
C389 C 0.01133 0.74932 0.4187 0.0
C390 C 0.98982 0.74106 0.45202 0.0
C391 C 0.01888 0.73738 0.46014 0.0
C392 C 0.04402 0.7378 0.44716 0.0
H393 H 0.07709 0.75081 0.58513 0.0
H394 H 0.07573 0.73957 0.54891 0.0
C395 C 0.04027 0.74381 0.42655 0.0
C396 C 0.02284 0.73602 0.48236 0.0
H397 H 0.04931 0.77696 0.52227 0.0
C398 C 0.01041 0.71167 0.49317 0.0
C399 C 0.03714 0.75978 0.49299 0.0
C400 C 0.0497 0.78719 0.48227 0.0
C401 C 0.01209 0.71038 0.51437 0.0
C402 C 0.02606 0.73435 0.525 0.0
C403 C 0.03877 0.75848 0.51412 0.0
C404 C 0.02697 0.73581 0.54741 0.0
C405 C -0.00089 0.68328 0.52515 0.0
C406 C 8e-05 0.73672 0.55874 0.0
C407 C 0.00092 0.74283 0.57949 0.0
C408 C 0.02861 0.74843 0.58909 0.0
C409 C 0.05553 0.74629 0.57798 0.0
C410 C 0.05472 0.73999 0.55733 0.0
H411 H -0.00223 0.6633 0.51502 0.0
H412 H 0.01285 0.67723 0.53858 0.0
H413 H 0.97584 0.68866 0.53028 0.0
H414 H 0.97836 0.73432 0.55138 0.0
H415 H 0.9799 0.74487 0.58777 0.0
H416 H 0.14159 0.21407 0.33925 0.0
H417 H 0.18236 0.19997 0.31624 0.0
H418 H 0.13752 0.24762 0.26789 0.0
H419 H 0.09747 0.2629 0.29108 0.0
H420 H 0.1707 0.16342 0.28693 0.0
H421 H 0.22305 0.2646 0.2529 0.0
H422 H 0.20016 0.26663 0.27544 0.0
H423 H 0.18269 0.26624 0.25086 0.0
C424 C 0.14105 0.2225 0.3239 0.0
C425 C 0.11626 0.23942 0.31692 0.0
C426 C 0.16436 0.21441 0.31074 0.0
C427 C 0.16316 0.22271 0.29027 0.0
C428 C 0.13949 0.24148 0.28365 0.0
H429 H 0.20325 0.13824 0.18019 0.0
H430 H 0.19167 0.17455 0.2068 0.0
C431 C 0.11642 0.25009 0.29694 0.0
C432 C 0.1831 0.2073 0.2754 0.0
H433 H 0.2259 0.21834 0.23302 0.0
C434 C 0.1834 0.17552 0.27548 0.0
C435 C 0.19949 0.22298 0.26029 0.0
C436 C 0.20158 0.257 0.26 0.0
C437 C 0.19827 0.15904 0.26041 0.0
C438 C 0.21357 0.17469 0.24485 0.0
C439 C 0.21422 0.20643 0.24503 0.0
C440 C 0.22597 0.1581 0.2273 0.0
C441 C 0.19607 0.12494 0.26063 0.0
C442 C 0.25016 0.13785 0.22964 0.0
C443 C 0.25686 0.11692 0.21443 0.0
C444 C 0.23933 0.1159 0.19672 0.0
C445 C 0.21698 0.13814 0.19373 0.0
C446 C 0.21039 0.15905 0.20889 0.0
H447 H 0.17974 0.11659 0.2721 0.0
H448 H 0.18905 0.11638 0.24559 0.0
H449 H 0.21859 0.1152 0.26414 0.0
H450 H 0.26257 0.13696 0.24372 0.0
H451 H 0.27433 0.10026 0.21719 0.0
H452 H 0.8381 0.13211 0.84399 0.0
H453 H 0.85513 0.17378 0.82258 0.0
H454 H 0.7946 0.14421 0.77549 0.0
H455 H 0.7766 0.10339 0.7971 0.0
H456 H 0.88507 0.1639 0.78983 0.0
H457 H 0.78643 0.23306 0.76831 0.0
H458 H 0.78515 0.20657 0.78906 0.0
H459 H 0.77918 0.19386 0.7635 0.0
C460 C 0.82771 0.13509 0.82931 0.0
C461 C 0.80614 0.11432 0.8222 0.0
C462 C 0.83747 0.15894 0.81707 0.0
C463 C 0.82609 0.16236 0.7974 0.0
C464 C 0.80323 0.14268 0.79074 0.0
H465 H 0.89821 0.21015 0.68487 0.0
H466 H 0.86511 0.1979 0.7132 0.0
C467 C 0.79308 0.11911 0.80311 0.0
C468 C 0.84145 0.18298 0.78288 0.0
H469 H 0.82892 0.23383 0.74484 0.0
C470 C 0.87283 0.17976 0.78038 0.0
C471 C 0.82557 0.20361 0.7704 0.0
C472 C 0.79227 0.20969 0.77312 0.0
C473 C 0.88845 0.19526 0.76515 0.0
C474 C 0.87233 0.2147 0.75207 0.0
C475 C 0.84118 0.21889 0.75493 0.0
C476 C 0.8873 0.22803 0.73417 0.0
C477 C 0.92187 0.18949 0.76246 0.0
C478 C 0.90977 0.25021 0.73635 0.0
C479 C 0.92878 0.25737 0.72013 0.0
C480 C 0.92571 0.24221 0.70157 0.0
C481 C 0.9014 0.22203 0.699 0.0
C482 C 0.88234 0.21506 0.71517 0.0
H483 H 0.93024 0.17104 0.77238 0.0
H484 H 0.92687 0.18346 0.74653 0.0
H485 H 0.93465 0.21039 0.76608 0.0
H486 H 0.91382 0.26053 0.75093 0.0
H487 H 0.9472 0.27307 0.72262 0.0
H488 H 0.81996 0.89408 0.17038 0.0
H489 H 0.83498 0.85407 0.19375 0.0
H490 H 0.7869 0.89904 0.24182 0.0
H491 H 0.77071 0.93834 0.21828 0.0
H492 H 0.87144 0.86664 0.22309 0.0
H493 H 0.77067 0.81338 0.25715 0.0
H494 H 0.76851 0.83603 0.23449 0.0
H495 H 0.76881 0.85377 0.25898 0.0
C496 C 0.81167 0.89482 0.18577 0.0
C497 C 0.7943 0.91942 0.19254 0.0
C498 C 0.82029 0.87195 0.19913 0.0
C499 C 0.81208 0.87339 0.21959 0.0
C500 C 0.79299 0.89689 0.22606 0.0
H501 H 0.89701 0.83102 0.32978 0.0
H502 H 0.86075 0.8436 0.30333 0.0
C503 C 0.78385 0.91952 0.21258 0.0
C504 C 0.82769 0.85375 0.23457 0.0
H505 H 0.81705 0.81032 0.27672 0.0
C506 C 0.85946 0.85374 0.2345 0.0
C507 C 0.81216 0.83712 0.24963 0.0
C508 C 0.77815 0.83482 0.24995 0.0
C509 C 0.87608 0.83879 0.24948 0.0
C510 C 0.86057 0.82308 0.26492 0.0
C511 C 0.82884 0.82229 0.26479 0.0
C512 C 0.87731 0.81016 0.28226 0.0
C513 C 0.91015 0.84123 0.24925 0.0
C514 C 0.89762 0.78612 0.27953 0.0
C515 C 0.91853 0.77884 0.29464 0.0
C516 C 0.91946 0.79564 0.31267 0.0
C517 C 0.89718 0.81784 0.316 0.0
C518 C 0.8763 0.82501 0.30093 0.0
H519 H 0.91834 0.85802 0.23802 0.0
H520 H 0.91873 0.84778 0.26438 0.0
H521 H 0.92003 0.81891 0.24537 0.0
H522 H 0.89855 0.77425 0.26524 0.0
H523 H 0.93521 0.7615 0.2916 0.0
H524 H 0.25697 0.93923 0.79175 0.0
H525 H 0.23954 0.90064 0.76804 0.0
H526 H 0.19698 0.85222 0.81694 0.0
H527 H 0.21305 0.89158 0.84056 0.0
H528 H 0.24145 0.84003 0.76153 0.0
H529 H 0.12509 0.87473 0.78319 0.0
H530 H 0.15813 0.89461 0.79188 0.0
H531 H 0.14681 0.85974 0.80373 0.0
C532 C 0.24457 0.91996 0.79754 0.0
C533 C 0.23589 0.91869 0.81794 0.0
C534 C 0.23457 0.89791 0.78395 0.0
C535 C 0.2161 0.87405 0.79061 0.0
C536 C 0.21035 0.87096 0.81136 0.0
H537 H 0.09435 0.76259 0.71834 0.0
H538 H 0.13064 0.77545 0.74487 0.0
C539 C 0.21975 0.89333 0.82487 0.0
C540 C 0.2001 0.85478 0.77564 0.0
H541 H 0.12941 0.83698 0.7586 0.0
C542 C 0.21696 0.83912 0.761 0.0
C543 C 0.16807 0.85385 0.7748 0.0
C544 C 0.14843 0.87184 0.78909 0.0
C545 C 0.20262 0.82288 0.74544 0.0
C546 C 0.17071 0.82231 0.74456 0.0
C547 C 0.15391 0.83715 0.75951 0.0
C548 C 0.1539 0.80944 0.72723 0.0
C549 C 0.22161 0.80682 0.72989 0.0
C550 C 0.15552 0.82369 0.70835 0.0
C551 C 0.13466 0.81663 0.69323 0.0
C552 C 0.11176 0.79515 0.69673 0.0
C553 C 0.11169 0.77921 0.71512 0.0
C554 C 0.13241 0.78652 0.73032 0.0
H555 H 0.24496 0.80271 0.73544 0.0
H556 H 0.21123 0.78486 0.72563 0.0
H557 H 0.22306 0.82102 0.71611 0.0
H558 H 0.17158 0.84178 0.70575 0.0
H559 H 0.13543 0.82926 0.67922 0.0
H560 H 0.97576 0.88121 0.67833 0.0
H561 H 0.9432 0.90895 0.70177 0.0
H562 H 0.93214 0.82827 0.73766 0.0
H563 H 0.9636 0.80016 0.71396 0.0
H564 H 0.88036 0.85782 0.73535 0.0
H565 H 0.97087 0.93894 0.75571 0.0
H566 H 0.96207 0.93941 0.72929 0.0
H567 H 0.97798 0.9059 0.74052 0.0
C568 C 0.96617 0.8693 0.69111 0.0
C569 C 0.97252 0.8385 0.69433 0.0
C570 C 0.94776 0.88527 0.70461 0.0
C571 C 0.93586 0.87093 0.72181 0.0
C572 C 0.94121 0.83991 0.7246 0.0
H573 H 0.87618 0.96546 0.82961 0.0
H574 H 0.9026 0.93418 0.80482 0.0
C575 C 0.95924 0.82385 0.71099 0.0
C576 C 0.91835 0.88818 0.73716 0.0
H577 H 0.922 0.94907 0.76877 0.0
C578 C 0.88949 0.87775 0.74269 0.0
C579 C 0.93047 0.91385 0.74706 0.0
C580 C 0.96215 0.92502 0.74302 0.0
C581 C 0.87236 0.89236 0.75767 0.0
C582 C 0.884 0.91872 0.76699 0.0
C583 C 0.91293 0.92902 0.76155 0.0
C584 C 0.86683 0.93594 0.78253 0.0
C585 C 0.84237 0.87883 0.76371 0.0
C586 C 0.8378 0.94724 0.77838 0.0
C587 C 0.82243 0.96472 0.79268 0.0
C588 C 0.83604 0.97186 0.81128 0.0
C589 C 0.86503 0.9604 0.81545 0.0
C590 C 0.8802 0.94256 0.80126 0.0
H591 H 0.84131 0.85432 0.76009 0.0
H592 H 0.83804 0.88175 0.78011 0.0
H593 H 0.824 0.89025 0.75522 0.0
H594 H 0.82729 0.94322 0.76387 0.0
H595 H 0.80028 0.97349 0.78886 0.0
H596 H 0.14739 0.99314 0.18702 0.0
H597 H 0.11981 0.96244 0.2116 0.0
H598 H 0.20403 0.92694 0.23425 0.0
H599 H 0.23189 0.95788 0.20995 0.0
H600 H 0.11752 0.90092 0.21849 0.0
H601 H 0.16441 0.9607 0.28513 0.0
H602 H 0.16834 0.97501 0.25974 0.0
H603 H 0.19264 0.94523 0.26861 0.0
C604 C 0.1601 0.97865 0.19711 0.0
C605 C 0.19193 0.97823 0.19658 0.0
C606 C 0.14427 0.96113 0.21119 0.0
C607 C 0.15987 0.94289 0.22506 0.0
C608 C 0.19154 0.94142 0.22403 0.0
H609 H 0.07793 0.80249 0.2996 0.0
H610 H 0.10877 0.83093 0.27558 0.0
C611 C 0.20742 0.95898 0.21 0.0
C612 C 0.14298 0.92565 0.24071 0.0
H613 H 0.13475 0.91707 0.29171 0.0
C614 C 0.12129 0.90443 0.2345 0.0
C615 C 0.14755 0.93062 0.26161 0.0
C616 C 0.16927 0.95432 0.26923 0.0
C617 C 0.10435 0.88776 0.2486 0.0
C618 C 0.10963 0.89202 0.26949 0.0
C619 C 0.13101 0.91355 0.27571 0.0
C620 C 0.09262 0.87484 0.2851 0.0
C621 C 0.08048 0.86622 0.24099 0.0
C622 C 0.07431 0.89012 0.29909 0.0
C623 C 0.05681 0.87394 0.31301 0.0
C624 C 0.05735 0.84211 0.31326 0.0
C625 C 0.07673 0.82696 0.29977 0.0
C626 C 0.09425 0.84317 0.2859 0.0
H627 H 0.07391 0.87132 0.22515 0.0
H628 H 0.08948 0.84281 0.24143 0.0
H629 H 0.05992 0.86711 0.2506 0.0
H630 H 0.07289 0.91458 0.29885 0.0
H631 H 0.04222 0.88639 0.32318 0.0
H632 H 0.04209 0.14733 0.68698 0.0
H633 H 0.0722 0.11879 0.71143 0.0
H634 H 0.11333 0.20154 0.73212 0.0
H635 H 0.08315 0.23036 0.70793 0.0
H636 H 0.13463 0.11381 0.71796 0.0
H637 H 0.07672 0.16548 0.78379 0.0
H638 H 0.06242 0.16874 0.75836 0.0
H639 H 0.09307 0.19238 0.76664 0.0
C640 C 0.05777 0.15949 0.69656 0.0
C641 C 0.05994 0.19122 0.69559 0.0
C642 C 0.07493 0.14311 0.71056 0.0
C643 C 0.09449 0.15812 0.72389 0.0
C644 C 0.09783 0.18958 0.72229 0.0
H645 H 0.23227 0.07609 0.79981 0.0
H646 H 0.20432 0.10592 0.77501 0.0
C647 C 0.08069 0.20599 0.70834 0.0
C648 C 0.11088 0.14096 0.73975 0.0
H649 H 0.11916 0.13441 0.79087 0.0
C650 C 0.13126 0.11828 0.7339 0.0
C651 C 0.10604 0.14648 0.76056 0.0
C652 C 0.08317 0.16938 0.76779 0.0
C653 C 0.14737 0.10136 0.74828 0.0
C654 C 0.14332 0.10763 0.76907 0.0
C655 C 0.12251 0.1299 0.77493 0.0
C656 C 0.16019 0.09097 0.78495 0.0
C657 C 0.16816 0.07653 0.7411 0.0
C658 C 0.14461 0.07366 0.79937 0.0
C659 C 0.16051 0.05673 0.81373 0.0
C660 C 0.19234 0.05688 0.81399 0.0
C661 C 0.20779 0.07522 0.79999 0.0
C662 C 0.19187 0.09215 0.78568 0.0
H663 H 0.1628 0.06945 0.72541 0.0
H664 H 0.19182 0.08487 0.74132 0.0
H665 H 0.16671 0.05644 0.75111 0.0
H666 H 0.12014 0.07263 0.79918 0.0
H667 H 0.14786 0.04292 0.82428 0.0
H668 H 0.88031 0.05906 0.17812 0.0
H669 H 0.90847 0.09024 0.20212 0.0
H670 H 0.83038 0.09367 0.24109 0.0
H671 H 0.80174 0.06365 0.21681 0.0
H672 H 0.85672 0.14665 0.24039 0.0
H673 H 0.94488 0.05992 0.25337 0.0
H674 H 0.94273 0.07113 0.2274 0.0
H675 H 0.91112 0.05221 0.23903 0.0
C676 C 0.86906 0.06665 0.19173 0.0
C677 C 0.83881 0.05867 0.19558 0.0
C678 C 0.88529 0.08425 0.20555 0.0
C679 C 0.87186 0.09363 0.22374 0.0
C680 C 0.84136 0.08655 0.22727 0.0
H681 H 0.97633 0.15208 0.32833 0.0
H682 H 0.94398 0.12467 0.30461 0.0
C683 C 0.82498 0.06937 0.21333 0.0
C684 C 0.88949 0.11066 0.23916 0.0
H685 H 0.95409 0.10854 0.2674 0.0
C686 C 0.87796 0.13823 0.24635 0.0
C687 C 0.91691 0.09945 0.24732 0.0
C688 C 0.92948 0.06891 0.24155 0.0
C689 C 0.89321 0.15506 0.2612 0.0
C690 C 0.92137 0.14457 0.26861 0.0
C691 C 0.93269 0.1168 0.26162 0.0
C692 C 0.93957 0.16193 0.28358 0.0
C693 C 0.8785 0.18348 0.2691 0.0
C694 C 0.94791 0.19204 0.27975 0.0
C695 C 0.96594 0.20793 0.29347 0.0
C696 C 0.97667 0.19383 0.31112 0.0
C697 C 0.96842 0.16363 0.31491 0.0
C698 C 0.94997 0.14791 0.30132 0.0
H699 H 0.85356 0.18282 0.26712 0.0
H700 H 0.88353 0.18696 0.28536 0.0
H701 H 0.88715 0.20323 0.26052 0.0
H702 H 0.94104 0.20314 0.26592 0.0
H703 H 0.97219 0.23101 0.28992 0.0
H704 H 0.09298 0.08404 0.15714 0.0
H705 H 0.04691 0.06689 0.14062 0.0
H706 H 0.09733 0.04669 0.08651 0.0
H707 H 0.14389 0.06308 0.1032 0.0
H708 H 0.01378 0.07627 0.1058 0.0
H709 H 0.07021 0.96338 0.1052 0.0
H710 H 0.08668 0.9953 0.11801 0.0
H711 H 0.0873 0.99341 0.09093 0.0
C712 C 0.0942 0.0768 0.14154 0.0
C713 C 0.12211 0.07405 0.13166 0.0
C714 C 0.06782 0.06702 0.13208 0.0
C715 C 0.06895 0.05466 0.11256 0.0
C716 C 0.09619 0.05537 0.10178 0.0
H717 H 0.88749 0.97905 0.10004 0.0
H718 H 0.93449 -0.00336 0.08445 0.0
C719 C 0.1227 0.06484 0.11132 0.0
C720 C 0.04265 0.03722 0.10526 0.0
H721 H 0.01781 0.96427 0.10253 0.0
C722 C 0.01458 0.05184 0.10443 0.0
C723 C 0.04402 0.00532 0.10346 0.0
C724 C 0.07357 0.98826 0.10452 0.0
C725 C 0.98757 0.03528 0.1041 0.0
C726 C 0.98891 0.00325 0.10403 0.0
C727 C 0.01702 0.98879 0.10259 0.0
C728 C 0.96246 0.98495 0.11007 0.0
C729 C 0.95802 0.05219 0.10594 0.0
C730 C 0.96321 0.97004 0.12879 0.0
C731 C 0.93658 0.95952 0.13759 0.0
C732 C 0.90882 0.96412 0.12783 0.0
C733 C 0.90859 0.97583 0.10807 0.0
C734 C 0.93534 0.98599 0.09916 0.0
H735 H 0.96139 0.07687 0.10816 0.0
H736 H 0.94455 0.04898 0.09198 0.0
H737 H 0.94464 0.04335 0.11885 0.0
H738 H 0.98402 0.96878 0.1374 0.0
H739 H 0.93751 0.95035 0.15274 0.0
H740 H 0.95304 0.09467 0.66123 0.0
H741 H 0.9697 0.04842 0.64473 0.0
H742 H 0.98592 0.09776 0.58957 0.0
H743 H 0.96986 0.1445 0.60616 0.0
H744 H 0.95819 0.0146 0.61011 0.0
H745 H 0.07069 0.07155 0.60669 0.0
H746 H 0.03942 0.08789 0.62029 0.0
H747 H 0.03976 0.08841 0.59318 0.0
C748 C 0.95929 0.09561 0.64543 0.0
C749 C 0.961 0.12332 0.63517 0.0
C750 C 0.96879 0.06912 0.63599 0.0
C751 C 0.97988 0.06992 0.61613 0.0
C752 C 0.97818 0.09689 0.60508 0.0
H753 H 0.05546 0.88875 0.6018 0.0
H754 H 0.03727 0.93591 0.58676 0.0
C755 C 0.9689 0.1235 0.61457 0.0
C756 C -0.00293 0.04362 0.60859 0.0
H757 H 0.06995 0.01905 0.60439 0.0
C758 C 0.98254 0.01548 0.6082 0.0
C759 C 0.02885 0.04511 0.6061 0.0
C760 C 0.04578 0.07476 0.60665 0.0
C761 C -0.00083 0.98854 0.60754 0.0
C762 C 0.03117 0.99 0.60676 0.0
C763 C 0.04545 0.01816 0.60499 0.0
C764 C 0.04982 0.96357 0.61233 0.0
C765 C 0.98249 0.95891 0.60978 0.0
C766 C 0.06536 0.96411 0.63082 0.0
C767 C 0.07616 0.93737 0.63931 0.0
C768 C 0.07125 0.90972 0.62948 0.0
C769 C 0.05894 0.90974 0.60989 0.0
C770 C 0.04845 0.9366 0.60129 0.0
H771 H 0.95792 0.96217 0.61252 0.0
H772 H 0.98512 0.94542 0.59578 0.0
H773 H 0.99199 0.9456 0.62251 0.0
H774 H 0.06687 0.98482 0.63951 0.0
H775 H 0.0858 0.9381 0.65433 0.0
H776 H 0.89228 0.00766 0.90164 0.0
H777 H 0.94176 0.9955 0.91491 0.0
H778 H 0.96714 0.08966 0.91183 0.0
H779 H 0.91737 0.10197 0.89775 0.0
H780 H 0.00226 0.05711 0.88948 0.0
H781 H 0.99599 -0.00136 0.9625 0.0
H782 H 0.96844 0.98222 0.94603 0.0
H783 H 0.96514 0.0215 0.95314 0.0
C784 C 0.90806 0.02599 0.90425 0.0
C785 C 0.90129 0.05566 0.89814 0.0
C786 C 0.93627 0.01904 0.91224 0.0
C787 C 0.9582 0.04166 0.91454 0.0
C788 C 0.95047 0.07186 0.91028 0.0
H789 H 0.14921 0.99329 0.91144 0.0
H790 H 0.10247 0.01185 0.9266 0.0
C791 C 0.92211 0.07885 0.90215 0.0
C792 C 0.99025 0.03249 0.91645 0.0
H793 H 0.03524 0.97928 0.93881 0.0
C794 C 0.00976 0.0409 0.90071 0.0
C795 C 0.00019 0.01128 0.93105 0.0
C796 C 0.98132 0.00321 0.94923 0.0
C797 C 0.03772 0.02675 0.89814 0.0
C798 C 0.04624 0.00344 0.91155 0.0
C799 C 0.02809 -0.00334 0.92828 0.0
C800 C 0.07337 0.98532 0.90734 0.0
C801 C 0.05726 0.03553 0.88038 0.0
C802 C 0.07223 0.96307 0.89226 0.0
C803 C 0.0989 0.9525 0.88345 0.0
C804 C 0.12687 0.96437 0.88956 0.0
C805 C 0.12793 0.98414 0.90619 0.0
C806 C 0.1013 0.9946 0.91502 0.0
H807 H 0.0493 0.05664 0.87299 0.0
H808 H 0.08106 0.03876 0.88525 0.0
H809 H 0.05694 0.01708 0.86902 0.0
H810 H 0.05069 0.95585 0.88614 0.0
H811 H 0.09739 0.93717 0.87074 0.0
H812 H 0.94375 0.93769 0.35699 0.0
H813 H 0.96116 0.98386 0.37325 0.0
H814 H 0.98957 0.93257 0.42534 0.0
H815 H 0.97313 0.88594 0.40876 0.0
H816 H 0.95631 0.01642 0.40832 0.0
H817 H 0.06951 0.96119 0.4027 0.0
H818 H 0.03634 0.94426 0.39173 0.0
H819 H 0.04162 0.94382 0.41863 0.0
C820 C 0.95281 0.93629 0.37216 0.0
C821 C 0.95796 0.90821 0.38137 0.0
C822 C 0.96274 0.96273 0.38148 0.0
C823 C 0.97758 0.96144 0.40021 0.0
C824 C 0.97903 0.93388 0.41062 0.0
H825 H 0.05461 0.14344 0.40698 0.0
H826 H 0.03787 0.09715 0.4239 0.0
C827 C 0.96952 0.90732 0.40116 0.0
C828 C 0.99556 0.9879 0.40668 0.0
H829 H 0.06832 0.0135 0.40513 0.0
C830 C 0.98083 0.01586 0.40828 0.0
C831 C 0.0276 0.98688 0.4067 0.0
C832 C 0.04485 0.95753 0.40477 0.0
C833 C -0.00291 0.04304 0.40748 0.0
C834 C 0.02899 0.04199 0.40561 0.0
C835 C 0.04387 0.01406 0.40648 0.0
C836 C 0.04616 0.06837 0.3981 0.0
C837 C 0.97975 0.07243 0.40651 0.0
C838 C 0.05871 0.06697 0.37864 0.0
C839 C 0.06873 0.09318 0.36906 0.0
C840 C 0.06602 0.12123 0.37876 0.0
C841 C 0.05637 0.12214 0.39901 0.0
C842 C 0.04668 0.09579 0.40868 0.0
H843 H 0.9549 0.06884 0.40595 0.0
H844 H 0.9849 0.0862 0.42007 0.0
H845 H 0.98653 0.08562 0.39298 0.0
H846 H 0.0587 0.04594 0.37025 0.0
H847 H 0.07627 0.09172 0.35354 0.0
H848 H 0.39177 0.97076 0.21153 0.0
H849 H 0.44704 0.97312 0.21331 0.0
H850 H 0.44708 0.04634 0.17024 0.0
H851 H 0.39212 0.04317 0.16772 0.0
H852 H 0.48702 0.00111 0.16071 0.0
H853 H 0.50092 0.03558 0.24085 0.0
H854 H 0.47815 0.00242 0.23712 0.0
H855 H 0.46524 0.03832 0.22775 0.0
C856 C 0.4036 0.9876 0.20265 0.0
C857 C 0.3876 0.00742 0.18997 0.0
C858 C 0.4351 0.98905 0.20378 0.0
C859 C 0.45104 0.01036 0.19225 0.0
C860 C 0.4351 0.03006 0.1795 0.0
H861 H 0.63359 0.06661 0.17246 0.0
H862 H 0.57876 0.06003 0.17427 0.0
C863 C 0.40366 0.02852 0.1783 0.0
C864 C 0.48443 0.01106 0.1925 0.0
H865 H 0.54561 0.02331 0.22284 0.0
C866 C 0.49983 0.00597 0.17429 0.0
C867 C 0.50101 0.01726 0.21029 0.0
C868 C 0.48555 0.02397 0.23009 0.0
C869 C 0.53144 0.00711 0.17336 0.0
C870 C 0.54794 0.01367 0.19105 0.0
C871 C 0.5327 0.01817 0.20935 0.0
C872 C 0.58099 0.01764 0.1905 0.0
C873 C 0.54705 0.00141 0.15346 0.0
C874 C 0.60016 0.99618 0.19938 0.0
C875 C 0.63152 -0.00017 0.19833 0.0
C876 C 0.64396 0.02508 0.18847 0.0
C877 C 0.62458 0.04687 0.18007 0.0
C878 C 0.59334 0.04311 0.18101 0.0
H879 H 0.53168 0.99079 0.14226 0.0
H880 H 0.5551 0.02324 0.14716 0.0
H881 H 0.56707 0.98658 0.15561 0.0
H882 H 0.59086 0.97654 0.20695 0.0
H883 H 0.64593 0.98313 0.2054 0.0
H884 H 0.97031 0.632 0.67269 0.0
H885 H 0.97908 0.5774 0.67445 0.0
H886 H 0.06308 0.59285 0.70581 0.0
H887 H 0.05432 0.64761 0.7043 0.0
H888 H 0.04016 0.54775 0.65941 0.0
H889 H 0.00669 0.52919 0.73966 0.0
H890 H 0.99129 0.56 0.72497 0.0
H891 H 0.02986 0.56134 0.73316 0.0
C892 C 0.99058 0.62375 0.68004 0.0
C893 C 0.01189 0.64397 0.68808 0.0
C894 C 0.99557 0.59267 0.68097 0.0
C895 C 0.02169 0.58136 0.69023 0.0
C896 C 0.04282 0.60137 0.69859 0.0
H897 H 0.06967 0.39249 0.71111 0.0
H898 H 0.06816 0.44789 0.71213 0.0
C899 C 0.03793 0.63255 0.69754 0.0
C900 C 0.02695 0.54853 0.69067 0.0
H901 H 0.02022 0.48628 0.7207 0.0
C902 C 0.03603 0.53424 0.67281 0.0
C903 C 0.0217 0.5313 0.70825 0.0
C904 C 0.01176 0.54603 0.72767 0.0
C905 C 0.03965 0.50279 0.67198 0.0
C906 C 0.03323 0.48532 0.68937 0.0
C907 C 0.02495 0.49978 0.7074 0.0
C908 C 0.03398 0.45195 0.68892 0.0
C909 C 0.05043 0.48863 0.65255 0.0
C910 C 0.01498 0.43602 0.67574 0.0
C911 C 0.01592 0.40452 0.67505 0.0
C912 C 0.03543 0.3884 0.68786 0.0
C913 C 0.05426 0.40439 0.70118 0.0
C914 C 0.0534 0.43595 0.70181 0.0
H915 H 0.06288 0.50517 0.64304 0.0
H916 H 0.0654 0.46896 0.65553 0.0
H917 H 0.0306 0.48063 0.6438 0.0
H918 H -0.00046 0.44798 0.66586 0.0
H919 H 0.00195 0.39299 0.6641 0.0
H920 H 0.39323 0.00201 0.84832 0.0
H921 H 0.44843 0.00136 0.84692 0.0
H922 H 0.4459 0.04733 0.78949 0.0
H923 H 0.39059 0.04803 0.7908 0.0
H924 H 0.48781 0.97696 0.81885 0.0
H925 H 0.50049 0.10162 0.82351 0.0
H926 H 0.46523 0.0826 0.82875 0.0
H927 H 0.47682 0.08926 0.8031 0.0
C928 C 0.40435 0.01127 0.83516 0.0
C929 C 0.38762 0.02461 0.81949 0.0
C930 C 0.4359 0.01122 0.8345 0.0
C931 C 0.45118 0.0247 0.81826 0.0
C932 C 0.43451 0.03737 0.80236 0.0
H933 H 0.6401 -0.00162 0.78843 0.0
H934 H 0.58487 0.00177 0.78785 0.0
C935 C 0.40298 0.03756 0.80306 0.0
C936 C 0.48457 0.02552 0.81798 0.0
H937 H 0.54505 0.07345 0.81646 0.0
C938 C 0.50036 -0.00197 0.81835 0.0
C939 C 0.5008 0.0531 0.81767 0.0
C940 C 0.48502 0.08334 0.81843 0.0
C941 C 0.53203 -0.00266 0.81809 0.0
C942 C 0.54823 0.02488 0.817 0.0
C943 C 0.53248 0.0524 0.817 0.0
C944 C 0.5816 0.02549 0.81633 0.0
C945 C 0.54787 0.96715 0.81936 0.0
C946 C 0.59799 0.03887 0.83209 0.0
C947 C 0.62952 0.03722 0.83236 0.0
C948 C 0.64508 0.02237 0.81675 0.0
C949 C 0.62863 0.00998 0.80062 0.0
C950 C 0.59714 0.01174 0.80033 0.0
H951 H 0.53269 0.94919 0.82526 0.0
H952 H 0.55538 0.96033 0.80404 0.0
H953 H 0.56813 0.96853 0.82922 0.0
H954 H 0.58632 0.04953 0.84459 0.0
H955 H 0.64145 0.04616 0.84529 0.0
H956 H 0.05859 0.38846 0.31305 0.0
H957 H 0.06377 0.44351 0.31196 0.0
H958 H 0.96892 0.45321 0.32549 0.0
H959 H 0.96365 0.39827 0.32716 0.0
H960 H 0.9923 0.48867 0.29137 0.0
H961 H 0.05831 0.50144 0.36247 0.0
H962 H 0.07159 0.47383 0.34459 0.0
H963 H 0.03605 0.46816 0.35708 0.0
C964 C 0.03901 0.40223 0.3163 0.0
C965 C 0.01088 0.38899 0.32074 0.0
C966 C 0.04195 0.43368 0.31546 0.0
C967 C 0.01679 0.45226 0.31889 0.0
C968 C 0.9886 0.43914 0.32289 0.0
H969 H -0.00091 0.64116 0.34623 0.0
H970 H 0.99592 0.58605 0.34461 0.0
C971 C 0.98566 0.40779 0.32381 0.0
C972 C 0.01959 0.48547 0.31819 0.0
H973 H 0.04844 0.5458 0.3438 0.0
C974 C 0.00469 0.50123 0.30274 0.0
C975 C 0.03555 0.50157 0.3332 0.0
C976 C 0.05118 0.48554 0.35039 0.0
C977 C 0.0053 0.53291 0.30192 0.0
C978 C 0.02133 0.549 0.3169 0.0
C979 C 0.03628 0.53323 0.33232 0.0
C980 C 0.02216 0.58233 0.31717 0.0
C981 C 0.98828 0.54902 0.28537 0.0
C982 C 0.03799 0.59832 0.30226 0.0
C983 C 0.03962 0.62983 0.30306 0.0
C984 C 0.02521 0.64576 0.31868 0.0
C985 C 0.00941 0.62963 0.3336 0.0
C986 C 0.00793 0.59814 0.33285 0.0
H987 H 0.9728 0.53359 0.27711 0.0
H988 H 0.9749 0.56806 0.29167 0.0
H989 H 0.00466 0.55859 0.27439 0.0
H990 H 0.04949 0.58639 0.29021 0.0
H991 H 0.05225 0.64176 0.29152 0.0
loop_
_geom_bond_atom_site_label_1
_geom_bond_atom_site_label_2
_geom_bond_distance
_geom_bond_site_symmetry_2
_ccdc_geom_bond_type
Co0 O3 1.970 . S
Co0 N17 1.989 . S
Co0 O25 1.967 1_545 S
Co0 O32 1.920 . S
Co1 O4 1.966 . S
Co1 N10 2.022 . S
Co1 N18 1.993 . S
Co1 O26 1.941 1_545 S
C2 O3 1.258 . S
C2 O4 1.263 . S
O3 Co0 1.970 . S
O3 C2 1.258 . S
O4 Co1 1.966 . S
O4 C2 1.263 . S
C5 O6 1.235 . S
C5 O32 1.289 . S
O6 C5 1.235 . S
C7 C9 1.400 . S
C7 N10 1.351 . S
C7 C12 1.501 . S
C8 C9 1.387 . S
C8 N11 1.335 1_545 S
C9 C7 1.400 . S
C9 C8 1.387 . S
N10 Co1 2.022 . S
N10 C7 1.351 . S
N10 N11 1.348 1_545 S
N11 C8 1.335 1_565 S
N11 N10 1.348 1_565 S
N11 H31 0.883 . S
C12 C7 1.501 . S
C12 H13 0.961 . S
C12 H14 0.961 . S
C12 H15 0.960 . S
H13 C12 0.961 . S
H14 C12 0.961 . S
H15 C12 0.960 . S
C16 N17 1.342 . S
C16 C20 1.401 . S
C16 C21 1.499 . S
N17 Co0 1.989 . S
N17 C16 1.342 . S
N17 N18 1.388 . S
N18 Co1 1.993 . S
N18 N17 1.388 . S
N18 C19 1.346 . S
C19 N18 1.346 . S
C19 C20 1.396 . S
C19 C29 1.510 . S
C20 C16 1.401 . S
C20 C19 1.396 . S
C21 C16 1.499 . S
C21 H22 0.959 . S
C21 H23 0.960 . S
C21 H24 0.969 . S
H22 C21 0.959 . S
H23 C21 0.960 . S
H24 C21 0.969 . S
O25 Co0 1.967 1_565 S
O25 C33 1.258 . S
O26 Co1 1.941 1_565 S
O26 C33 1.266 . S
H27 C29 0.959 . S
H28 C29 0.961 . S
C29 C19 1.510 . S
C29 H27 0.959 . S
C29 H28 0.961 . S
C29 H30 0.960 . S
H30 C29 0.960 . S
H31 N11 0.883 . S
O32 Co0 1.920 . S
O32 C5 1.289 . S
C33 O25 1.258 . S
C33 O26 1.266 . S
Co34 O37 1.970 1_455 S
Co34 N51 1.989 . S
Co34 O59 1.967 . S
Co34 O66 1.920 . S
Co35 O38 1.966 1_455 S
Co35 N44 2.022 . S
Co35 N52 1.993 . S
Co35 O60 1.941 . S
C36 O37 1.258 . S
C36 O38 1.263 . S
O37 Co34 1.970 1_655 S
O37 C36 1.258 . S
O38 Co35 1.966 1_655 S
O38 C36 1.263 . S
C39 O40 1.235 . S
C39 O66 1.289 1_655 S
O40 C39 1.235 . S
C41 C43 1.400 1_655 S
C41 N44 1.351 1_655 S
C41 C46 1.501 . S
C42 C43 1.387 . S
C42 N45 1.341 . S
C43 C41 1.400 1_455 S
C43 C42 1.387 . S
N44 Co35 2.022 . S
N44 C41 1.351 1_455 S
N44 N45 1.365 . S
N45 C42 1.341 . S
N45 N44 1.365 . S
N45 H65 0.862 . S
C46 C41 1.501 . S
C46 H47 0.961 . S
C46 H48 0.961 . S
C46 H49 0.960 . S
H47 C46 0.961 . S
H48 C46 0.961 . S
H49 C46 0.960 . S
C50 N51 1.342 . S
C50 C54 1.401 . S
C50 C55 1.499 . S
N51 Co34 1.989 . S
N51 C50 1.342 . S
N51 N52 1.388 . S
N52 Co35 1.993 . S
N52 N51 1.388 . S
N52 C53 1.346 . S
C53 N52 1.346 . S
C53 C54 1.396 . S
C53 C63 1.510 . S
C54 C50 1.401 . S
C54 C53 1.396 . S
C55 C50 1.499 . S
C55 H56 0.959 . S
C55 H57 0.960 . S
C55 H58 0.961 . S
H56 C55 0.959 . S
H57 C55 0.960 . S
H58 C55 0.961 . S
O59 Co34 1.967 . S
O59 C67 1.258 . S
O60 Co35 1.941 . S
O60 C67 1.266 . S
H61 C63 0.959 . S
H62 C63 0.961 . S
C63 C53 1.510 . S
C63 H61 0.959 . S
C63 H62 0.961 . S
C63 H64 0.960 . S
H64 C63 0.960 . S
H65 N45 0.862 . S
O66 Co34 1.920 . S
O66 C39 1.289 1_455 S
C67 O59 1.258 . S
C67 O60 1.266 . S
Co68 O71 1.970 1_545 S
Co68 N85 1.989 . S
Co68 O93 1.967 . S
Co68 O100 1.920 . S
Co69 O72 1.966 1_545 S
Co69 N78 2.022 . S
Co69 N86 1.993 . S
Co69 O94 1.941 . S
C70 O71 1.258 . S
C70 O72 1.263 . S
O71 Co68 1.970 1_565 S
O71 C70 1.258 . S
O72 Co69 1.966 1_565 S
O72 C70 1.263 . S
C73 O74 1.235 . S
C73 O100 1.289 1_565 S
O74 C73 1.235 . S
C75 C77 1.400 1_565 S
C75 N78 1.351 1_565 S
C75 C80 1.501 . S
C76 C77 1.387 . S
C76 N79 1.341 . S
C77 C75 1.400 1_545 S
C77 C76 1.387 . S
N78 Co69 2.022 . S
N78 C75 1.351 1_545 S
N78 N79 1.365 . S
N79 C76 1.341 . S
N79 N78 1.365 . S
N79 H99 0.862 . S
C80 C75 1.501 . S
C80 H81 0.961 . S
C80 H82 0.961 . S
C80 H83 0.960 . S
H81 C80 0.961 . S
H82 C80 0.961 . S
H83 C80 0.960 . S
C84 N85 1.342 . S
C84 C88 1.401 . S
C84 C89 1.499 . S
N85 Co68 1.989 . S
N85 C84 1.342 . S
N85 N86 1.388 . S
N86 Co69 1.993 . S
N86 N85 1.388 . S
N86 C87 1.346 . S
C87 N86 1.346 . S
C87 C88 1.396 . S
C87 C97 1.510 . S
C88 C84 1.401 . S
C88 C87 1.396 . S
C89 C84 1.499 . S
C89 H90 0.959 . S
C89 H91 0.960 . S
C89 H92 0.961 . S
H90 C89 0.959 . S
H91 C89 0.960 . S
H92 C89 0.961 . S
O93 Co68 1.967 . S
O93 C101 1.258 . S
O94 Co69 1.941 . S
O94 C101 1.266 . S
H95 C97 0.959 . S
H96 C97 0.961 . S
C97 C87 1.510 . S
C97 H95 0.959 . S
C97 H96 0.961 . S
C97 H98 0.960 . S
H98 C97 0.960 . S
H99 N79 0.862 . S
O100 Co68 1.920 . S
O100 C73 1.289 1_545 S
C101 O93 1.258 . S
C101 O94 1.266 . S
Co102 O105 1.970 . S
Co102 N119 1.989 . S
Co102 O127 1.967 1_455 S
Co102 O134 1.920 . S
Co103 O106 1.966 . S
Co103 N112 2.022 . S
Co103 N120 1.993 . S
Co103 O128 1.941 1_455 S
C104 O105 1.258 . S
C104 O106 1.263 . S
O105 Co102 1.970 . S
O105 C104 1.258 . S
O106 Co103 1.966 . S
O106 C104 1.263 . S
C107 O108 1.235 . S
C107 O134 1.289 . S
O108 C107 1.235 . S
C109 C111 1.400 . S
C109 N112 1.351 . S
C109 C114 1.501 . S
C110 C111 1.387 . S
C110 N113 1.335 1_455 S
C111 C109 1.400 . S
C111 C110 1.387 . S
N112 Co103 2.022 . S
N112 C109 1.351 . S
N112 N113 1.350 1_455 S
N113 C110 1.335 1_655 S
N113 N112 1.350 1_655 S
N113 H133 0.881 . S
C114 C109 1.501 . S
C114 H115 0.961 . S
C114 H116 0.961 . S
C114 H117 0.960 . S
H115 C114 0.961 . S
H116 C114 0.961 . S
H117 C114 0.960 . S
C118 N119 1.342 . S
C118 C122 1.401 . S
C118 C123 1.499 . S
N119 Co102 1.989 . S
N119 C118 1.342 . S
N119 N120 1.388 . S
N120 Co103 1.993 . S
N120 N119 1.388 . S
N120 C121 1.346 . S
C121 N120 1.346 . S
C121 C122 1.396 . S
C121 C131 1.510 . S
C122 C118 1.401 . S
C122 C121 1.396 . S
C123 C118 1.499 . S
C123 H124 0.959 . S
C123 H125 0.960 . S
C123 H126 0.971 . S
H124 C123 0.959 . S
H125 C123 0.960 . S
H126 C123 0.971 . S
O127 Co102 1.967 1_655 S
O127 C135 1.258 . S
O128 Co103 1.941 1_655 S
O128 C135 1.266 . S
H129 C131 0.959 . S
H130 C131 0.961 . S
C131 C121 1.510 . S
C131 H129 0.959 . S
C131 H130 0.961 . S
C131 H132 0.960 . S
H132 C131 0.960 . S
H133 N113 0.881 . S
O134 Co102 1.920 . S
O134 C107 1.289 . S
C135 O127 1.258 . S
C135 O128 1.266 . S
Co136 O139 1.970 1_545 S
Co136 N153 1.989 . S
Co136 O161 1.967 . S
Co136 O168 1.920 . S
Co137 O140 1.966 1_545 S
Co137 N146 2.022 . S
Co137 N154 1.993 . S
Co137 O162 1.941 . S
C138 O139 1.258 . S
C138 O140 1.263 . S
O139 Co136 1.970 1_565 S
O139 C138 1.258 . S
O140 Co137 1.966 1_565 S
O140 C138 1.263 . S
C141 O142 1.235 . S
C141 O168 1.289 1_565 S
O142 C141 1.235 . S
C143 C145 1.400 1_565 S
C143 N146 1.351 1_565 S
C143 C148 1.501 . S
C144 C145 1.387 . S
C144 N147 1.341 . S
C145 C143 1.400 1_545 S
C145 C144 1.387 . S
N146 Co137 2.022 . S
N146 C143 1.351 1_545 S
N146 N147 1.365 . S
N147 C144 1.341 . S
N147 N146 1.365 . S
N147 H167 0.862 . S
C148 C143 1.501 . S
C148 H149 0.961 . S
C148 H150 0.961 . S
C148 H151 0.960 . S
H149 C148 0.961 . S
H150 C148 0.961 . S
H151 C148 0.960 . S
C152 N153 1.342 . S
C152 C156 1.401 . S
C152 C157 1.499 . S
N153 Co136 1.989 . S
N153 C152 1.342 . S
N153 N154 1.388 . S
N154 Co137 1.993 . S
N154 N153 1.388 . S
N154 C155 1.346 . S
C155 N154 1.346 . S
C155 C156 1.396 . S
C155 C165 1.510 . S
C156 C152 1.401 . S
C156 C155 1.396 . S
C157 C152 1.499 . S
C157 H158 0.959 . S
C157 H159 0.960 . S
C157 H160 0.961 . S
H158 C157 0.959 . S
H159 C157 0.960 . S
H160 C157 0.961 . S
O161 Co136 1.967 . S
O161 C169 1.258 . S
O162 Co137 1.941 . S
O162 C169 1.266 . S
H163 C165 0.959 . S
H164 C165 0.961 . S
C165 C155 1.510 . S
C165 H163 0.959 . S
C165 H164 0.961 . S
C165 H166 0.960 . S
H166 C165 0.960 . S
H167 N147 0.862 . S
O168 Co136 1.920 . S
O168 C141 1.289 1_545 S
C169 O161 1.258 . S
C169 O162 1.266 . S
Co170 O173 1.970 . S
Co170 N187 1.989 . S
Co170 O195 1.967 1_455 S
Co170 O202 1.920 . S
Co171 O174 1.966 . S
Co171 N180 2.022 . S
Co171 N188 1.993 . S
Co171 O196 1.941 1_455 S
C172 O173 1.258 . S
C172 O174 1.263 . S
O173 Co170 1.970 . S
O173 C172 1.258 . S
O174 Co171 1.966 . S
O174 C172 1.263 . S
C175 O176 1.235 . S
C175 O202 1.289 . S
O176 C175 1.235 . S
C177 C179 1.400 . S
C177 N180 1.351 . S
C177 C182 1.501 . S
C178 C179 1.387 . S
C178 N181 1.335 1_455 S
C179 C177 1.400 . S
C179 C178 1.387 . S
N180 Co171 2.022 . S
N180 C177 1.351 . S
N180 N181 1.348 1_455 S
N181 C178 1.335 1_655 S
N181 N180 1.348 1_655 S
N181 H201 0.883 . S
C182 C177 1.501 . S
C182 H183 0.961 . S
C182 H184 0.961 . S
C182 H185 0.960 . S
H183 C182 0.961 . S
H184 C182 0.961 . S
H185 C182 0.960 . S
C186 N187 1.342 . S
C186 C190 1.401 . S
C186 C191 1.499 . S
N187 Co170 1.989 . S
N187 C186 1.342 . S
N187 N188 1.388 . S
N188 Co171 1.993 . S
N188 N187 1.388 . S
N188 C189 1.346 . S
C189 N188 1.346 . S
C189 C190 1.396 . S
C189 C199 1.510 . S
C190 C186 1.401 . S
C190 C189 1.396 . S
C191 C186 1.499 . S
C191 H192 0.959 . S
C191 H193 0.960 . S
C191 H194 0.969 . S
H192 C191 0.959 . S
H193 C191 0.960 . S
H194 C191 0.969 . S
O195 Co170 1.967 1_655 S
O195 C203 1.258 . S
O196 Co171 1.941 1_655 S
O196 C203 1.266 . S
H197 C199 0.959 . S
H198 C199 0.961 . S
C199 C189 1.510 . S
C199 H197 0.959 . S
C199 H198 0.961 . S
C199 H200 0.960 . S
H200 C199 0.960 . S
H201 N181 0.883 . S
O202 Co170 1.920 . S
O202 C175 1.289 . S
C203 O195 1.258 . S
C203 O196 1.266 . S
Co204 O207 1.970 . S
Co204 N221 1.989 . S
Co204 O229 1.967 1_545 S
Co204 O236 1.920 . S
Co205 O208 1.966 . S
Co205 N214 2.022 . S
Co205 N222 1.993 . S
Co205 O230 1.941 1_545 S
C206 O207 1.258 . S
C206 O208 1.263 . S
O207 Co204 1.970 . S
O207 C206 1.258 . S
O208 Co205 1.966 . S
O208 C206 1.263 . S
C209 O210 1.235 . S
C209 O236 1.289 . S
O210 C209 1.235 . S
C211 C213 1.400 . S
C211 N214 1.351 . S
C211 C216 1.501 . S
C212 C213 1.387 . S
C212 N215 1.335 1_545 S
C213 C211 1.400 . S
C213 C212 1.387 . S
N214 Co205 2.022 . S
N214 C211 1.351 . S
N214 N215 1.350 1_545 S
N215 C212 1.335 1_565 S
N215 N214 1.350 1_565 S
N215 H235 0.881 . S
C216 C211 1.501 . S
C216 H217 0.961 . S
C216 H218 0.961 . S
C216 H219 0.960 . S
H217 C216 0.961 . S
H218 C216 0.961 . S
H219 C216 0.960 . S
C220 N221 1.342 . S
C220 C224 1.401 . S
C220 C225 1.499 . S
N221 Co204 1.989 . S
N221 C220 1.342 . S
N221 N222 1.388 . S
N222 Co205 1.993 . S
N222 N221 1.388 . S
N222 C223 1.346 . S
C223 N222 1.346 . S
C223 C224 1.396 . S
C223 C233 1.510 . S
C224 C220 1.401 . S
C224 C223 1.396 . S
C225 C220 1.499 . S
C225 H226 0.959 . S
C225 H227 0.960 . S
C225 H228 0.971 . S
H226 C225 0.959 . S
H227 C225 0.960 . S
H228 C225 0.971 . S
O229 Co204 1.967 1_565 S
O229 C237 1.258 . S
O230 Co205 1.941 1_565 S
O230 C237 1.266 . S
H231 C233 0.959 . S
H232 C233 0.961 . S
C233 C223 1.510 . S
C233 H231 0.959 . S
C233 H232 0.961 . S
C233 H234 0.960 . S
H234 C233 0.960 . S
H235 N215 0.881 . S
O236 Co204 1.920 . S
O236 C209 1.289 . S
C237 O229 1.258 . S
C237 O230 1.266 . S
Co238 O241 1.970 1_455 S
Co238 N255 1.989 . S
Co238 O263 1.967 . S
Co238 O270 1.920 . S
Co239 O242 1.966 1_455 S
Co239 N248 2.022 . S
Co239 N256 1.993 . S
Co239 O264 1.941 . S
C240 O241 1.258 . S
C240 O242 1.263 . S
O241 Co238 1.970 1_655 S
O241 C240 1.258 . S
O242 Co239 1.966 1_655 S
O242 C240 1.263 . S
C243 O244 1.235 . S
C243 O270 1.289 1_655 S
O244 C243 1.235 . S
C245 C247 1.400 1_655 S
C245 N248 1.351 1_655 S
C245 C250 1.501 . S
C246 C247 1.387 . S
C246 N249 1.341 . S
C247 C245 1.400 1_455 S
C247 C246 1.387 . S
N248 Co239 2.022 . S
N248 C245 1.351 1_455 S
N248 N249 1.365 . S
N249 C246 1.341 . S
N249 N248 1.365 . S
N249 H269 0.862 . S
C250 C245 1.501 . S
C250 H251 0.961 . S
C250 H252 0.961 . S
C250 H253 0.960 . S
H251 C250 0.961 . S
H252 C250 0.961 . S
H253 C250 0.960 . S
C254 N255 1.342 . S
C254 C258 1.401 . S
C254 C259 1.499 . S
N255 Co238 1.989 . S
N255 C254 1.342 . S
N255 N256 1.388 . S
N256 Co239 1.993 . S
N256 N255 1.388 . S
N256 C257 1.346 . S
C257 N256 1.346 . S
C257 C258 1.396 . S
C257 C267 1.510 . S
C258 C254 1.401 . S
C258 C257 1.396 . S
C259 C254 1.499 . S
C259 H260 0.959 . S
C259 H261 0.960 . S
C259 H262 0.961 . S
H260 C259 0.959 . S
H261 C259 0.960 . S
H262 C259 0.961 . S
O263 Co238 1.967 . S
O263 C271 1.258 . S
O264 Co239 1.941 . S
O264 C271 1.266 . S
H265 C267 0.959 . S
H266 C267 0.961 . S
C267 C257 1.510 . S
C267 H265 0.959 . S
C267 H266 0.961 . S
C267 H268 0.960 . S
H268 C267 0.960 . S
H269 N249 0.862 . S
O270 Co238 1.920 . S
O270 C243 1.289 1_455 S
C271 O263 1.258 . S
C271 O264 1.266 . S
H272 C280 0.929 1_565 S
H273 C282 0.930 1_565 S
H274 C284 0.930 . S
H275 C287 0.929 . S
H276 C290 0.930 . S
H277 C292 0.960 . S
H278 C292 0.960 . S
H279 C292 0.960 . S
C280 H272 0.929 1_545 S
C280 C281 1.377 . S
C280 C282 1.384 . S
C281 C280 1.377 . S
C281 C287 1.390 . S
C282 H273 0.930 1_545 S
C282 C280 1.384 . S
C282 C283 1.372 . S
C283 C282 1.372 . S
C283 C284 1.400 . S
C283 C288 1.490 . S
C284 H274 0.930 . S
C284 C283 1.400 . S
C284 C287 1.386 . S
H285 C301 0.930 . S
H286 C302 0.931 . S
C287 H275 0.929 . S
C287 C281 1.390 . S
C287 C284 1.386 . S
C288 C283 1.490 . S
C288 C290 1.395 1_545 S
C288 C291 1.403 . S
H289 C295 0.930 . S
C290 H276 0.930 . S
C290 C288 1.395 1_565 S
C290 C293 1.403 1_554 S
C291 C288 1.403 . S
C291 C292 1.524 . S
C291 C295 1.400 1_554 S
C292 H277 0.960 . S
C292 H278 0.960 . S
C292 H279 0.960 . S
C292 C291 1.524 . S
C293 C290 1.403 1_556 S
C293 C294 1.392 1_565 S
C293 C297 1.495 . S
C294 C293 1.392 1_545 S
C294 C295 1.385 . S
C294 C296 1.478 . S
C295 H289 0.930 . S
C295 C291 1.400 1_556 S
C295 C294 1.385 . S
C296 C294 1.478 . S
C296 C298 1.381 . S
C296 C302 1.383 . S
C297 C293 1.495 . S
C297 H303 0.959 . S
C297 H304 0.961 . S
C297 H305 0.960 . S
C298 C296 1.381 . S
C298 C299 1.394 . S
C298 H306 0.930 1_545 S
C299 C298 1.394 . S
C299 C300 1.383 . S
C299 H307 0.929 . S
C300 C299 1.383 . S
C300 C301 1.377 . S
C301 H285 0.930 . S
C301 C300 1.377 . S
C301 C302 1.379 . S
C302 H286 0.931 . S
C302 C296 1.383 . S
C302 C301 1.379 . S
H303 C297 0.959 . S
H304 C297 0.961 . S
H305 C297 0.960 . S
H306 C298 0.930 1_565 S
H307 C299 0.929 . S
H308 C316 0.929 . S
H309 C318 0.930 . S
H310 C320 0.930 . S
H311 C323 0.929 . S
H312 C326 0.930 . S
H313 C328 0.956 1_655 S
H314 C328 0.935 1_655 S
H315 C328 0.981 . S
C316 H308 0.929 . S
C316 C317 1.377 1_655 S
C316 C318 1.384 . S
C317 C316 1.377 1_455 S
C317 C323 1.390 . S
C318 H309 0.930 . S
C318 C316 1.384 . S
C318 C319 1.372 1_655 S
C319 C318 1.372 1_455 S
C319 C320 1.400 . S
C319 C324 1.490 . S
C320 H310 0.930 . S
C320 C319 1.400 . S
C320 C323 1.386 . S
H321 C337 0.930 . S
H322 C338 0.931 . S
C323 H311 0.929 . S
C323 C317 1.390 . S
C323 C320 1.386 . S
C324 C319 1.490 . S
C324 C326 1.395 . S
C324 C327 1.403 . S
H325 C331 0.930 . S
C326 H312 0.930 . S
C326 C324 1.395 . S
C326 C329 1.403 . S
C327 C324 1.403 . S
C327 C328 1.533 . S
C327 C331 1.400 . S
C328 H313 0.956 1_455 S
C328 H314 0.935 1_455 S
C328 H315 0.981 . S
C328 C327 1.533 . S
C329 C326 1.403 . S
C329 C330 1.392 . S
C329 C333 1.495 . S
C330 C329 1.392 . S
C330 C331 1.385 . S
C330 C332 1.478 . S
C331 H325 0.930 . S
C331 C327 1.400 . S
C331 C330 1.385 . S
C332 C330 1.478 . S
C332 C334 1.381 . S
C332 C338 1.383 . S
C333 C329 1.495 . S
C333 H339 0.959 . S
C333 H340 0.961 . S
C333 H341 0.960 . S
C334 C332 1.381 . S
C334 C335 1.394 . S
C334 H342 0.930 1_455 S
C335 C334 1.394 . S
C335 C336 1.383 . S
C335 H343 0.929 1_455 S
C336 C335 1.383 . S
C336 C337 1.377 . S
C337 H321 0.930 . S
C337 C336 1.377 . S
C337 C338 1.379 . S
C338 H322 0.931 . S
C338 C332 1.383 . S
C338 C337 1.379 . S
H339 C333 0.959 . S
H340 C333 0.961 . S
H341 C333 0.960 . S
H342 C334 0.930 1_655 S
H343 C335 0.929 1_655 S
H344 C352 0.920 1_565 S
H345 C354 0.930 . S
H346 C356 0.930 . S
H347 C359 0.929 . S
H348 C362 0.930 . S
H349 C364 0.960 . S
H350 C364 0.960 . S
H351 C364 0.960 . S
C352 H344 0.920 1_545 S
C352 C353 1.388 . S
C352 C354 1.383 1_545 S
C353 C352 1.388 . S
C353 C359 1.390 . S
C354 H345 0.930 . S
C354 C352 1.383 1_565 S
C354 C355 1.372 1_565 S
C355 C354 1.372 1_545 S
C355 C356 1.400 . S
C355 C360 1.490 . S
C356 H346 0.930 . S
C356 C355 1.400 . S
C356 C359 1.386 . S
H357 C373 0.930 . S
H358 C374 0.931 . S
C359 H347 0.929 . S
C359 C353 1.390 . S
C359 C356 1.386 . S
C360 C355 1.490 . S
C360 C362 1.395 1_545 S
C360 C363 1.403 . S
H361 C367 0.930 . S
C362 H348 0.930 . S
C362 C360 1.395 1_565 S
C362 C365 1.403 1_554 S
C363 C360 1.403 . S
C363 C364 1.524 . S
C363 C367 1.400 1_554 S
C364 H349 0.960 . S
C364 H350 0.960 . S
C364 H351 0.960 . S
C364 C363 1.524 . S
C365 C362 1.403 1_556 S
C365 C366 1.392 1_565 S
C365 C369 1.495 . S
C366 C365 1.392 1_545 S
C366 C367 1.385 . S
C366 C368 1.478 . S
C367 H361 0.930 . S
C367 C363 1.400 1_556 S
C367 C366 1.385 . S
C368 C366 1.478 . S
C368 C370 1.381 1_545 S
C368 C374 1.383 . S
C369 C365 1.495 . S
C369 H375 0.959 . S
C369 H376 0.961 . S
C369 H377 0.960 . S
C370 C368 1.381 1_565 S
C370 C371 1.394 . S
C370 H378 0.930 . S
C371 C370 1.394 . S
C371 C372 1.383 1_565 S
C371 H379 0.929 . S
C372 C371 1.383 1_545 S
C372 C373 1.377 . S
C373 H357 0.930 . S
C373 C372 1.377 . S
C373 C374 1.379 . S
C374 H358 0.931 . S
C374 C368 1.383 . S
C374 C373 1.379 . S
H375 C369 0.959 . S
H376 C369 0.961 . S
H377 C369 0.960 . S
H378 C370 0.930 . S
H379 C371 0.929 . S
H380 C388 0.929 . S
H381 C390 0.930 . S
H382 C392 0.930 . S
H383 C395 0.929 . S
H384 C398 0.930 . S
H385 C400 0.960 . S
H386 C400 0.960 . S
H387 C400 0.960 . S
C388 H380 0.929 . S
C388 C389 1.377 1_655 S
C388 C390 1.384 . S
C389 C388 1.377 1_455 S
C389 C395 1.390 . S
C390 H381 0.930 . S
C390 C388 1.384 . S
C390 C391 1.372 1_655 S
C391 C390 1.372 1_455 S
C391 C392 1.400 . S
C391 C396 1.490 . S
C392 H382 0.930 . S
C392 C391 1.400 . S
C392 C395 1.386 . S
H393 C409 0.930 . S
H394 C410 0.931 . S
C395 H383 0.929 . S
C395 C389 1.390 . S
C395 C392 1.386 . S
C396 C391 1.490 . S
C396 C398 1.395 . S
C396 C399 1.403 . S
H397 C403 0.930 . S
C398 H384 0.930 . S
C398 C396 1.395 . S
C398 C401 1.403 . S
C399 C396 1.403 . S
C399 C400 1.524 . S
C399 C403 1.400 . S
C400 H385 0.960 . S
C400 H386 0.960 . S
C400 H387 0.960 . S
C400 C399 1.524 . S
C401 C398 1.403 . S
C401 C402 1.392 . S
C401 C405 1.490 1_455 S
C402 C401 1.392 . S
C402 C403 1.385 . S
C402 C404 1.478 . S
C403 H397 0.930 . S
C403 C399 1.400 . S
C403 C402 1.385 . S
C404 C402 1.478 . S
C404 C406 1.381 1_455 S
C404 C410 1.383 . S
C405 C401 1.490 1_655 S
C405 H411 0.963 . S
C405 H412 0.947 1_655 S
C405 H413 0.975 . S
C406 C404 1.381 1_655 S
C406 C407 1.394 . S
C406 H414 0.930 . S
C407 C406 1.394 . S
C407 C408 1.383 1_655 S
C407 H415 0.929 . S
C408 C407 1.383 1_455 S
C408 C409 1.377 . S
C409 H393 0.930 . S
C409 C408 1.377 . S
C409 C410 1.379 . S
C410 H394 0.931 . S
C410 C404 1.383 . S
C410 C409 1.379 . S
H411 C405 0.963 . S
H412 C405 0.947 1_455 S
H413 C405 0.975 . S
H414 C406 0.930 . S
H415 C407 0.929 . S
H416 C424 0.929 . S
H417 C426 0.930 . S
H418 C428 0.930 . S
H419 C431 0.929 . S
H420 C434 0.930 . S
H421 C436 0.960 . S
H422 C436 0.960 . S
H423 C436 0.960 . S
C424 H416 0.929 . S
C424 C425 1.377 . S
C424 C426 1.384 . S
C425 C424 1.377 . S
C425 C431 1.390 . S
C426 H417 0.930 . S
C426 C424 1.384 . S
C426 C427 1.372 . S
C427 C426 1.372 . S
C427 C428 1.400 . S
C427 C432 1.490 . S
C428 H418 0.930 . S
C428 C427 1.400 . S
C428 C431 1.386 . S
H429 C445 0.930 . S
H430 C446 0.931 . S
C431 H419 0.929 . S
C431 C425 1.390 . S
C431 C428 1.386 . S
C432 C427 1.490 . S
C432 C434 1.395 . S
C432 C435 1.403 . S
H433 C439 0.930 . S
C434 H420 0.930 . S
C434 C432 1.395 . S
C434 C437 1.403 . S
C435 C432 1.403 . S
C435 C436 1.524 . S
C435 C439 1.400 . S
C436 H421 0.960 . S
C436 H422 0.960 . S
C436 H423 0.960 . S
C436 C435 1.524 . S
C437 C434 1.403 . S
C437 C438 1.392 . S
C437 C441 1.495 . S
C438 C437 1.392 . S
C438 C439 1.385 . S
C438 C440 1.478 . S
C439 H433 0.930 . S
C439 C435 1.400 . S
C439 C438 1.385 . S
C440 C438 1.478 . S
C440 C442 1.381 . S
C440 C446 1.383 . S
C441 C437 1.495 . S
C441 H447 0.959 . S
C441 H448 0.961 . S
C441 H449 0.960 . S
C442 C440 1.381 . S
C442 C443 1.394 . S
C442 H450 0.930 . S
C443 C442 1.394 . S
C443 C444 1.383 . S
C443 H451 0.929 . S
C444 C443 1.383 . S
C444 C445 1.377 . S
C445 H429 0.930 . S
C445 C444 1.377 . S
C445 C446 1.379 . S
C446 H430 0.931 . S
C446 C440 1.383 . S
C446 C445 1.379 . S
H447 C441 0.959 . S
H448 C441 0.961 . S
H449 C441 0.960 . S
H450 C442 0.930 . S
H451 C443 0.929 . S
H452 C460 0.929 . S
H453 C462 0.930 . S
H454 C464 0.930 . S
H455 C467 0.929 . S
H456 C470 0.930 . S
H457 C472 0.960 . S
H458 C472 0.960 . S
H459 C472 0.960 . S
C460 H452 0.929 . S
C460 C461 1.377 . S
C460 C462 1.384 . S
C461 C460 1.377 . S
C461 C467 1.390 . S
C462 H453 0.930 . S
C462 C460 1.384 . S
C462 C463 1.372 . S
C463 C462 1.372 . S
C463 C464 1.400 . S
C463 C468 1.490 . S
C464 H454 0.930 . S
C464 C463 1.400 . S
C464 C467 1.386 . S
H465 C481 0.930 . S
H466 C482 0.931 . S
C467 H455 0.929 . S
C467 C461 1.390 . S
C467 C464 1.386 . S
C468 C463 1.490 . S
C468 C470 1.395 . S
C468 C471 1.403 . S
H469 C475 0.930 . S
C470 H456 0.930 . S
C470 C468 1.395 . S
C470 C473 1.403 . S
C471 C468 1.403 . S
C471 C472 1.524 . S
C471 C475 1.400 . S
C472 H457 0.960 . S
C472 H458 0.960 . S
C472 H459 0.960 . S
C472 C471 1.524 . S
C473 C470 1.403 . S
C473 C474 1.392 . S
C473 C477 1.495 . S
C474 C473 1.392 . S
C474 C475 1.385 . S
C474 C476 1.478 . S
C475 H469 0.930 . S
C475 C471 1.400 . S
C475 C474 1.385 . S
C476 C474 1.478 . S
C476 C478 1.381 . S
C476 C482 1.383 . S
C477 C473 1.495 . S
C477 H483 0.959 . S
C477 H484 0.961 . S
C477 H485 0.960 . S
C478 C476 1.381 . S
C478 C479 1.394 . S
C478 H486 0.930 . S
C479 C478 1.394 . S
C479 C480 1.383 . S
C479 H487 0.929 . S
C480 C479 1.383 . S
C480 C481 1.377 . S
C481 H465 0.930 . S
C481 C480 1.377 . S
C481 C482 1.379 . S
C482 H466 0.931 . S
C482 C476 1.383 . S
C482 C481 1.379 . S
H483 C477 0.959 . S
H484 C477 0.961 . S
H485 C477 0.960 . S
H486 C478 0.930 . S
H487 C479 0.929 . S
H488 C496 0.929 . S
H489 C498 0.930 . S
H490 C500 0.930 . S
H491 C503 0.929 . S
H492 C506 0.930 . S
H493 C508 0.960 . S
H494 C508 0.960 . S
H495 C508 0.960 . S
C496 H488 0.929 . S
C496 C497 1.377 . S
C496 C498 1.384 . S
C497 C496 1.377 . S
C497 C503 1.390 . S
C498 H489 0.930 . S
C498 C496 1.384 . S
C498 C499 1.372 . S
C499 C498 1.372 . S
C499 C500 1.400 . S
C499 C504 1.490 . S
C500 H490 0.930 . S
C500 C499 1.400 . S
C500 C503 1.386 . S
H501 C517 0.930 . S
H502 C518 0.931 . S
C503 H491 0.929 . S
C503 C497 1.390 . S
C503 C500 1.386 . S
C504 C499 1.490 . S
C504 C506 1.395 . S
C504 C507 1.403 . S
H505 C511 0.930 . S
C506 H492 0.930 . S
C506 C504 1.395 . S
C506 C509 1.403 . S
C507 C504 1.403 . S
C507 C508 1.524 . S
C507 C511 1.400 . S
C508 H493 0.960 . S
C508 H494 0.960 . S
C508 H495 0.960 . S
C508 C507 1.524 . S
C509 C506 1.403 . S
C509 C510 1.392 . S
C509 C513 1.495 . S
C510 C509 1.392 . S
C510 C511 1.385 . S
C510 C512 1.478 . S
C511 H505 0.930 . S
C511 C507 1.400 . S
C511 C510 1.385 . S
C512 C510 1.478 . S
C512 C514 1.381 . S
C512 C518 1.383 . S
C513 C509 1.495 . S
C513 H519 0.959 . S
C513 H520 0.961 . S
C513 H521 0.960 . S
C514 C512 1.381 . S
C514 C515 1.394 . S
C514 H522 0.930 . S
C515 C514 1.394 . S
C515 C516 1.383 . S
C515 H523 0.929 . S
C516 C515 1.383 . S
C516 C517 1.377 . S
C517 H501 0.930 . S
C517 C516 1.377 . S
C517 C518 1.379 . S
C518 H502 0.931 . S
C518 C512 1.383 . S
C518 C517 1.379 . S
H519 C513 0.959 . S
H520 C513 0.961 . S
H521 C513 0.960 . S
H522 C514 0.930 . S
H523 C515 0.929 . S
H524 C532 0.929 . S
H525 C534 0.930 . S
H526 C536 0.930 . S
H527 C539 0.929 . S
H528 C542 0.930 . S
H529 C544 0.960 . S
H530 C544 0.960 . S
H531 C544 0.960 . S
C532 H524 0.929 . S
C532 C533 1.377 . S
C532 C534 1.384 . S
C533 C532 1.377 . S
C533 C539 1.390 . S
C534 H525 0.930 . S
C534 C532 1.384 . S
C534 C535 1.372 . S
C535 C534 1.372 . S
C535 C536 1.400 . S
C535 C540 1.490 . S
C536 H526 0.930 . S
C536 C535 1.400 . S
C536 C539 1.386 . S
H537 C553 0.930 . S
H538 C554 0.931 . S
C539 H527 0.929 . S
C539 C533 1.390 . S
C539 C536 1.386 . S
C540 C535 1.490 . S
C540 C542 1.395 . S
C540 C543 1.403 . S
H541 C547 0.930 . S
C542 H528 0.930 . S
C542 C540 1.395 . S
C542 C545 1.403 . S
C543 C540 1.403 . S
C543 C544 1.524 . S
C543 C547 1.400 . S
C544 H529 0.960 . S
C544 H530 0.960 . S
C544 H531 0.960 . S
C544 C543 1.524 . S
C545 C542 1.403 . S
C545 C546 1.392 . S
C545 C549 1.495 . S
C546 C545 1.392 . S
C546 C547 1.385 . S
C546 C548 1.478 . S
C547 H541 0.930 . S
C547 C543 1.400 . S
C547 C546 1.385 . S
C548 C546 1.478 . S
C548 C550 1.381 . S
C548 C554 1.383 . S
C549 C545 1.495 . S
C549 H555 0.959 . S
C549 H556 0.961 . S
C549 H557 0.960 . S
C550 C548 1.381 . S
C550 C551 1.394 . S
C550 H558 0.930 . S
C551 C550 1.394 . S
C551 C552 1.383 . S
C551 H559 0.929 . S
C552 C551 1.383 . S
C552 C553 1.377 . S
C553 H537 0.930 . S
C553 C552 1.377 . S
C553 C554 1.379 . S
C554 H538 0.931 . S
C554 C548 1.383 . S
C554 C553 1.379 . S
H555 C549 0.959 . S
H556 C549 0.961 . S
H557 C549 0.960 . S
H558 C550 0.930 . S
H559 C551 0.929 . S
H560 C568 0.929 . S
H561 C570 0.930 . S
H562 C572 0.930 . S
H563 C575 0.929 . S
H564 C578 0.930 . S
H565 C580 0.960 . S
H566 C580 0.960 . S
H567 C580 0.960 . S
C568 H560 0.929 . S
C568 C569 1.377 . S
C568 C570 1.384 . S
C569 C568 1.377 . S
C569 C575 1.390 . S
C570 H561 0.930 . S
C570 C568 1.384 . S
C570 C571 1.372 . S
C571 C570 1.372 . S
C571 C572 1.400 . S
C571 C576 1.490 . S
C572 H562 0.930 . S
C572 C571 1.400 . S
C572 C575 1.386 . S
H573 C589 0.930 . S
H574 C590 0.931 . S
C575 H563 0.929 . S
C575 C569 1.390 . S
C575 C572 1.386 . S
C576 C571 1.490 . S
C576 C578 1.395 . S
C576 C579 1.403 . S
H577 C583 0.930 . S
C578 H564 0.930 . S
C578 C576 1.395 . S
C578 C581 1.403 . S
C579 C576 1.403 . S
C579 C580 1.524 . S
C579 C583 1.400 . S
C580 H565 0.960 . S
C580 H566 0.960 . S
C580 H567 0.960 . S
C580 C579 1.524 . S
C581 C578 1.403 . S
C581 C582 1.392 . S
C581 C585 1.495 . S
C582 C581 1.392 . S
C582 C583 1.385 . S
C582 C584 1.478 . S
C583 H577 0.930 . S
C583 C579 1.400 . S
C583 C582 1.385 . S
C584 C582 1.478 . S
C584 C586 1.381 . S
C584 C590 1.383 . S
C585 C581 1.495 . S
C585 H591 0.959 . S
C585 H592 0.961 . S
C585 H593 0.960 . S
C586 C584 1.381 . S
C586 C587 1.394 . S
C586 H594 0.930 . S
C587 C586 1.394 . S
C587 C588 1.383 . S
C587 H595 0.929 . S
C588 C587 1.383 . S
C588 C589 1.377 . S
C589 H573 0.930 . S
C589 C588 1.377 . S
C589 C590 1.379 . S
C590 H574 0.931 . S
C590 C584 1.383 . S
C590 C589 1.379 . S
H591 C585 0.959 . S
H592 C585 0.961 . S
H593 C585 0.960 . S
H594 C586 0.930 . S
H595 C587 0.929 . S
H596 C604 0.929 . S
H597 C606 0.930 . S
H598 C608 0.930 . S
H599 C611 0.929 . S
H600 C614 0.930 . S
H601 C616 0.960 . S
H602 C616 0.960 . S
H603 C616 0.960 . S
C604 H596 0.929 . S
C604 C605 1.377 . S
C604 C606 1.384 . S
C605 C604 1.377 . S
C605 C611 1.390 . S
C606 H597 0.930 . S
C606 C604 1.384 . S
C606 C607 1.372 . S
C607 C606 1.372 . S
C607 C608 1.400 . S
C607 C612 1.490 . S
C608 H598 0.930 . S
C608 C607 1.400 . S
C608 C611 1.386 . S
H609 C625 0.930 . S
H610 C626 0.931 . S
C611 H599 0.929 . S
C611 C605 1.390 . S
C611 C608 1.386 . S
C612 C607 1.490 . S
C612 C614 1.395 . S
C612 C615 1.403 . S
H613 C619 0.930 . S
C614 H600 0.930 . S
C614 C612 1.395 . S
C614 C617 1.403 . S
C615 C612 1.403 . S
C615 C616 1.524 . S
C615 C619 1.400 . S
C616 H601 0.960 . S
C616 H602 0.960 . S
C616 H603 0.960 . S
C616 C615 1.524 . S
C617 C614 1.403 . S
C617 C618 1.392 . S
C617 C621 1.495 . S
C618 C617 1.392 . S
C618 C619 1.385 . S
C618 C620 1.478 . S
C619 H613 0.930 . S
C619 C615 1.400 . S
C619 C618 1.385 . S
C620 C618 1.478 . S
C620 C622 1.381 . S
C620 C626 1.383 . S
C621 C617 1.495 . S
C621 H627 0.959 . S
C621 H628 0.961 . S
C621 H629 0.960 . S
C622 C620 1.381 . S
C622 C623 1.394 . S
C622 H630 0.930 . S
C623 C622 1.394 . S
C623 C624 1.383 . S
C623 H631 0.929 . S
C624 C623 1.383 . S
C624 C625 1.377 . S
C625 H609 0.930 . S
C625 C624 1.377 . S
C625 C626 1.379 . S
C626 H610 0.931 . S
C626 C620 1.383 . S
C626 C625 1.379 . S
H627 C621 0.959 . S
H628 C621 0.961 . S
H629 C621 0.960 . S
H630 C622 0.930 . S
H631 C623 0.929 . S
H632 C640 0.929 . S
H633 C642 0.930 . S
H634 C644 0.930 . S
H635 C647 0.929 . S
H636 C650 0.930 . S
H637 C652 0.960 . S
H638 C652 0.960 . S
H639 C652 0.960 . S
C640 H632 0.929 . S
C640 C641 1.377 . S
C640 C642 1.384 . S
C641 C640 1.377 . S
C641 C647 1.390 . S
C642 H633 0.930 . S
C642 C640 1.384 . S
C642 C643 1.372 . S
C643 C642 1.372 . S
C643 C644 1.400 . S
C643 C648 1.490 . S
C644 H634 0.930 . S
C644 C643 1.400 . S
C644 C647 1.386 . S
H645 C661 0.930 . S
H646 C662 0.931 . S
C647 H635 0.929 . S
C647 C641 1.390 . S
C647 C644 1.386 . S
C648 C643 1.490 . S
C648 C650 1.395 . S
C648 C651 1.403 . S
H649 C655 0.930 . S
C650 H636 0.930 . S
C650 C648 1.395 . S
C650 C653 1.403 . S
C651 C648 1.403 . S
C651 C652 1.524 . S
C651 C655 1.400 . S
C652 H637 0.960 . S
C652 H638 0.960 . S
C652 H639 0.960 . S
C652 C651 1.524 . S
C653 C650 1.403 . S
C653 C654 1.392 . S
C653 C657 1.495 . S
C654 C653 1.392 . S
C654 C655 1.385 . S
C654 C656 1.478 . S
C655 H649 0.930 . S
C655 C651 1.400 . S
C655 C654 1.385 . S
C656 C654 1.478 . S
C656 C658 1.381 . S
C656 C662 1.383 . S
C657 C653 1.495 . S
C657 H663 0.959 . S
C657 H664 0.961 . S
C657 H665 0.960 . S
C658 C656 1.381 . S
C658 C659 1.394 . S
C658 H666 0.930 . S
C659 C658 1.394 . S
C659 C660 1.383 . S
C659 H667 0.929 . S
C660 C659 1.383 . S
C660 C661 1.377 . S
C661 H645 0.930 . S
C661 C660 1.377 . S
C661 C662 1.379 . S
C662 H646 0.931 . S
C662 C656 1.383 . S
C662 C661 1.379 . S
H663 C657 0.959 . S
H664 C657 0.961 . S
H665 C657 0.960 . S
H666 C658 0.930 . S
H667 C659 0.929 . S
H668 C676 0.929 . S
H669 C678 0.930 . S
H670 C680 0.930 . S
H671 C683 0.929 . S
H672 C686 0.930 . S
H673 C688 0.960 . S
H674 C688 0.960 . S
H675 C688 0.960 . S
C676 H668 0.929 . S
C676 C677 1.377 . S
C676 C678 1.384 . S
C677 C676 1.377 . S
C677 C683 1.390 . S
C678 H669 0.930 . S
C678 C676 1.384 . S
C678 C679 1.372 . S
C679 C678 1.372 . S
C679 C680 1.400 . S
C679 C684 1.490 . S
C680 H670 0.930 . S
C680 C679 1.400 . S
C680 C683 1.386 . S
H681 C697 0.930 . S
H682 C698 0.931 . S
C683 H671 0.929 . S
C683 C677 1.390 . S
C683 C680 1.386 . S
C684 C679 1.490 . S
C684 C686 1.395 . S
C684 C687 1.403 . S
H685 C691 0.930 . S
C686 H672 0.930 . S
C686 C684 1.395 . S
C686 C689 1.403 . S
C687 C684 1.403 . S
C687 C688 1.524 . S
C687 C691 1.400 . S
C688 H673 0.960 . S
C688 H674 0.960 . S
C688 H675 0.960 . S
C688 C687 1.524 . S
C689 C686 1.403 . S
C689 C690 1.392 . S
C689 C693 1.495 . S
C690 C689 1.392 . S
C690 C691 1.385 . S
C690 C692 1.478 . S
C691 H685 0.930 . S
C691 C687 1.400 . S
C691 C690 1.385 . S
C692 C690 1.478 . S
C692 C694 1.381 . S
C692 C698 1.383 . S
C693 C689 1.495 . S
C693 H699 0.959 . S
C693 H700 0.961 . S
C693 H701 0.960 . S
C694 C692 1.381 . S
C694 C695 1.394 . S
C694 H702 0.930 . S
C695 C694 1.394 . S
C695 C696 1.383 . S
C695 H703 0.929 . S
C696 C695 1.383 . S
C696 C697 1.377 . S
C697 H681 0.930 . S
C697 C696 1.377 . S
C697 C698 1.379 . S
C698 H682 0.931 . S
C698 C692 1.383 . S
C698 C697 1.379 . S
H699 C693 0.959 . S
H700 C693 0.961 . S
H701 C693 0.960 . S
H702 C694 0.930 . S
H703 C695 0.929 . S
H704 C712 0.929 . S
H705 C714 0.930 . S
H706 C716 0.930 . S
H707 C719 0.929 . S
H708 C722 0.930 . S
H709 C724 0.960 . S
H710 C724 0.960 . S
H711 C724 0.960 . S
C712 H704 0.929 . S
C712 C713 1.377 . S
C712 C714 1.384 . S
C713 C712 1.377 . S
C713 C719 1.390 . S
C714 H705 0.930 . S
C714 C712 1.384 . S
C714 C715 1.372 . S
C715 C714 1.372 . S
C715 C716 1.400 . S
C715 C720 1.490 . S
C716 H706 0.930 . S
C716 C715 1.400 . S
C716 C719 1.386 . S
H717 C733 0.930 . S
H718 C734 0.931 . S
C719 H707 0.929 . S
C719 C713 1.390 . S
C719 C716 1.386 . S
C720 C715 1.490 . S
C720 C722 1.395 . S
C720 C723 1.403 . S
H721 C727 0.939 . S
C722 H708 0.930 . S
C722 C720 1.395 . S
C722 C725 1.403 . S
C723 C720 1.403 . S
C723 C724 1.524 1_545 S
C723 C727 1.400 1_545 S
C724 H709 0.960 . S
C724 H710 0.960 . S
C724 H711 0.960 . S
C724 C723 1.524 1_565 S
C725 C722 1.403 . S
C725 C726 1.392 1_455 S
C725 C729 1.495 1_455 S
C726 C725 1.392 1_655 S
C726 C727 1.385 1_645 S
C726 C728 1.478 . S
C727 H721 0.939 . S
C727 C723 1.400 1_565 S
C727 C726 1.385 1_465 S
C728 C726 1.478 . S
C728 C730 1.393 . S
C728 C734 1.383 . S
C729 C725 1.495 1_655 S
C729 H735 0.959 . S
C729 H736 0.961 . S
C729 H737 0.960 . S
C730 C728 1.393 . S
C730 C731 1.383 1_545 S
C730 H738 0.931 . S
C731 C730 1.383 1_565 S
C731 C732 1.383 . S
C731 H739 0.929 . S
C732 C731 1.383 . S
C732 C733 1.372 1_565 S
C733 H717 0.930 . S
C733 C732 1.372 1_545 S
C733 C734 1.385 . S
C734 H718 0.931 . S
C734 C728 1.383 . S
C734 C733 1.385 . S
H735 C729 0.959 . S
H736 C729 0.961 . S
H737 C729 0.960 . S
H738 C730 0.931 . S
H739 C731 0.929 . S
H740 C748 0.929 . S
H741 C750 0.930 . S
H742 C752 0.930 . S
H743 C755 0.929 . S
H744 C758 0.930 . S
H745 C760 0.960 . S
H746 C760 0.960 . S
H747 C760 0.960 . S
C748 H740 0.929 . S
C748 C749 1.377 . S
C748 C750 1.384 . S
C749 C748 1.377 . S
C749 C755 1.390 1_655 S
C750 H741 0.930 . S
C750 C748 1.384 . S
C750 C751 1.372 1_655 S
C751 C750 1.372 1_455 S
C751 C752 1.400 . S
C751 C756 1.490 . S
C752 H742 0.930 . S
C752 C751 1.400 . S
C752 C755 1.386 . S
H753 C769 0.930 . S
H754 C770 0.931 . S
C755 H743 0.929 . S
C755 C749 1.390 1_455 S
C755 C752 1.386 . S
C756 C751 1.490 . S
C756 C758 1.395 1_455 S
C756 C759 1.403 . S
H757 C763 0.930 . S
C758 H744 0.930 . S
C758 C756 1.395 1_655 S
C758 C761 1.403 1_545 S
C759 C756 1.403 . S
C759 C760 1.524 . S
C759 C763 1.400 . S
C760 H745 0.960 . S
C760 H746 0.960 . S
C760 H747 0.960 . S
C760 C759 1.524 . S
C761 C758 1.403 1_565 S
C761 C762 1.392 1_655 S
C761 C765 1.495 . S
C762 C761 1.392 1_455 S
C762 C763 1.385 1_565 S
C762 C764 1.478 . S
C763 H757 0.930 . S
C763 C759 1.400 . S
C763 C762 1.385 1_545 S
C764 C762 1.478 . S
C764 C766 1.381 . S
C764 C770 1.383 . S
C765 C761 1.495 . S
C765 H771 0.959 . S
C765 H772 0.961 . S
C765 H773 0.960 . S
C766 C764 1.381 . S
C766 C767 1.394 . S
C766 H774 0.930 . S
C767 C766 1.394 . S
C767 C768 1.383 . S
C767 H775 0.929 . S
C768 C767 1.383 . S
C768 C769 1.377 . S
C769 H753 0.930 . S
C769 C768 1.377 . S
C769 C770 1.379 . S
C770 H754 0.931 . S
C770 C764 1.383 . S
C770 C769 1.379 . S
H771 C765 0.959 . S
H772 C765 0.961 . S
H773 C765 0.960 . S
H774 C766 0.930 . S
H775 C767 0.929 . S
H776 C784 0.929 . S
H777 C786 0.930 1_565 S
H778 C788 0.930 . S
H779 C791 0.929 . S
H780 C794 0.930 1_655 S
H781 C796 0.936 1_455 S
H782 C796 0.982 . S
H783 C796 0.973 . S
C784 H776 0.929 . S
C784 C785 1.377 . S
C784 C786 1.384 . S
C785 C784 1.377 . S
C785 C791 1.390 . S
C786 H777 0.930 1_545 S
C786 C784 1.384 . S
C786 C787 1.372 . S
C787 C786 1.372 . S
C787 C788 1.400 . S
C787 C792 1.490 . S
C788 H778 0.930 . S
C788 C787 1.400 . S
C788 C791 1.386 . S
H789 C805 0.930 . S
H790 C806 0.931 . S
C791 H779 0.929 . S
C791 C785 1.390 . S
C791 C788 1.386 . S
C792 C787 1.490 . S
C792 C794 1.395 1_655 S
C792 C795 1.403 1_655 S
H793 C799 0.930 . S
C794 H780 0.930 1_455 S
C794 C792 1.395 1_455 S
C794 C797 1.403 . S
C795 C792 1.403 1_455 S
C795 C796 1.514 1_455 S
C795 C799 1.400 . S
C796 H781 0.936 1_655 S
C796 H782 0.982 . S
C796 H783 0.973 . S
C796 C795 1.514 1_655 S
C797 C794 1.403 . S
C797 C798 1.392 . S
C797 C801 1.495 1_545 S
C798 C797 1.392 . S
C798 C799 1.385 . S
C798 C800 1.478 . S
C799 H793 0.930 . S
C799 C795 1.400 . S
C799 C798 1.385 . S
C800 C798 1.478 . S
C800 C802 1.381 1_545 S
C800 C806 1.383 . S
C801 C797 1.495 1_565 S
C801 H807 0.959 . S
C801 H808 0.971 . S
C801 H809 0.960 . S
C802 C800 1.381 1_565 S
C802 C803 1.394 . S
C802 H810 0.930 . S
C803 C802 1.394 . S
C803 C804 1.383 . S
C803 H811 0.929 . S
C804 C803 1.383 . S
C804 C805 1.377 1_565 S
C805 H789 0.930 . S
C805 C804 1.377 1_545 S
C805 C806 1.379 . S
C806 H790 0.931 . S
C806 C800 1.383 . S
C806 C805 1.379 . S
H807 C801 0.959 . S
H808 C801 0.971 . S
H809 C801 0.960 . S
H810 C802 0.930 . S
H811 C803 0.929 . S
H812 C820 0.929 . S
H813 C822 0.930 . S
H814 C824 0.930 . S
H815 C827 0.929 . S
H816 C830 0.930 . S
H817 C832 0.960 . S
H818 C832 0.960 . S
H819 C832 0.960 . S
C820 H812 0.929 . S
C820 C821 1.377 . S
C820 C822 1.384 . S
C821 C820 1.377 . S
C821 C827 1.390 1_655 S
C822 H813 0.930 . S
C822 C820 1.384 . S
C822 C823 1.372 1_655 S
C823 C822 1.372 1_455 S
C823 C824 1.400 . S
C823 C828 1.490 . S
C824 H814 0.930 . S
C824 C823 1.400 . S
C824 C827 1.386 . S
H825 C841 0.930 . S
H826 C842 0.931 . S
C827 H815 0.929 . S
C827 C821 1.390 1_455 S
C827 C824 1.386 . S
C828 C823 1.490 . S
C828 C830 1.395 1_465 S
C828 C831 1.403 1_565 S
H829 C835 0.930 . S
C830 H816 0.930 . S
C830 C828 1.395 1_645 S
C830 C833 1.403 . S
C831 C828 1.403 1_545 S
C831 C832 1.524 1_545 S
C831 C835 1.400 . S
C832 H817 0.960 . S
C832 H818 0.960 . S
C832 H819 0.960 . S
C832 C831 1.524 1_565 S
C833 C830 1.403 . S
C833 C834 1.392 1_655 S
C833 C837 1.495 . S
C834 C833 1.392 1_455 S
C834 C835 1.385 . S
C834 C836 1.478 . S
C835 H829 0.930 . S
C835 C831 1.400 . S
C835 C834 1.385 . S
C836 C834 1.478 . S
C836 C838 1.381 . S
C836 C842 1.383 . S
C837 C833 1.495 . S
C837 H843 0.959 . S
C837 H844 0.961 . S
C837 H845 0.960 . S
C838 C836 1.381 . S
C838 C839 1.394 . S
C838 H846 0.930 1_455 S
C839 C838 1.394 . S
C839 C840 1.383 . S
C839 H847 0.929 . S
C840 C839 1.383 . S
C840 C841 1.377 . S
C841 H825 0.930 . S
C841 C840 1.377 . S
C841 C842 1.379 . S
C842 H826 0.931 . S
C842 C836 1.383 . S
C842 C841 1.379 . S
H843 C837 0.959 . S
H844 C837 0.961 . S
H845 C837 0.960 . S
H846 C838 0.930 1_655 S
H847 C839 0.929 . S
H848 C856 0.929 . S
H849 C858 0.930 1_565 S
H850 C860 0.930 . S
H851 C863 0.929 . S
H852 C866 0.930 1_565 S
H853 C868 0.960 . S
H854 C868 0.960 . S
H855 C868 0.960 . S
C856 H848 0.929 . S
C856 C857 1.377 . S
C856 C858 1.384 . S
C857 C856 1.377 . S
C857 C863 1.390 . S
C858 H849 0.930 1_545 S
C858 C856 1.384 . S
C858 C859 1.372 . S
C859 C858 1.372 . S
C859 C860 1.400 . S
C859 C864 1.490 . S
C860 H850 0.930 . S
C860 C859 1.400 . S
C860 C863 1.386 . S
H861 C877 0.930 . S
H862 C878 0.931 . S
C863 H851 0.929 . S
C863 C857 1.390 . S
C863 C860 1.386 . S
C864 C859 1.490 . S
C864 C866 1.395 . S
C864 C867 1.403 . S
H865 C871 0.930 . S
C866 H852 0.930 1_545 S
C866 C864 1.395 . S
C866 C869 1.403 1_545 S
C867 C864 1.403 . S
C867 C868 1.524 . S
C867 C871 1.400 . S
C868 H853 0.960 . S
C868 H854 0.960 . S
C868 H855 0.960 . S
C868 C867 1.524 . S
C869 C866 1.403 1_565 S
C869 C870 1.392 1_565 S
C869 C873 1.495 . S
C870 C869 1.392 1_545 S
C870 C871 1.385 . S
C870 C872 1.478 . S
C871 H865 0.930 . S
C871 C867 1.400 . S
C871 C870 1.385 . S
C872 C870 1.478 . S
C872 C874 1.381 1_545 S
C872 C878 1.383 . S
C873 C869 1.495 . S
C873 H879 0.959 . S
C873 H880 0.961 . S
C873 H881 0.960 . S
C874 C872 1.381 1_565 S
C874 C875 1.394 . S
C874 H882 0.930 . S
C875 C874 1.394 . S
C875 C876 1.383 . S
C875 H883 0.929 . S
C876 C875 1.383 . S
C876 C877 1.377 1_565 S
C877 H861 0.930 . S
C877 C876 1.377 1_545 S
C877 C878 1.379 . S
C878 H862 0.931 . S
C878 C872 1.383 . S
C878 C877 1.379 . S
H879 C873 0.959 . S
H880 C873 0.961 . S
H881 C873 0.960 . S
H882 C874 0.930 . S
H883 C875 0.929 . S
H884 C892 0.929 . S
H885 C894 0.930 1_655 S
H886 C896 0.930 . S
H887 C899 0.929 . S
H888 C902 0.930 . S
H889 C904 0.960 . S
H890 C904 0.960 . S
H891 C904 0.960 . S
C892 H884 0.929 . S
C892 C893 1.377 . S
C892 C894 1.384 . S
C893 C892 1.377 . S
C893 C899 1.390 . S
C894 H885 0.930 1_455 S
C894 C892 1.384 . S
C894 C895 1.372 . S
C895 C894 1.372 . S
C895 C896 1.400 . S
C895 C900 1.490 . S
C896 H886 0.930 . S
C896 C895 1.400 . S
C896 C899 1.386 . S
H897 C913 0.930 . S
H898 C914 0.931 . S
C899 H887 0.929 . S
C899 C893 1.390 . S
C899 C896 1.386 . S
C900 C895 1.490 . S
C900 C902 1.395 . S
C900 C903 1.403 . S
H901 C907 0.930 . S
C902 H888 0.930 . S
C902 C900 1.395 . S
C902 C905 1.403 . S
C903 C900 1.403 . S
C903 C904 1.524 . S
C903 C907 1.400 . S
C904 H889 0.960 . S
C904 H890 0.960 . S
C904 H891 0.960 . S
C904 C903 1.524 . S
C905 C902 1.403 . S
C905 C906 1.392 . S
C905 C909 1.495 . S
C906 C905 1.392 . S
C906 C907 1.385 . S
C906 C908 1.478 . S
C907 H901 0.930 . S
C907 C903 1.400 . S
C907 C906 1.385 . S
C908 C906 1.478 . S
C908 C910 1.381 1_455 S
C908 C914 1.383 . S
C909 C905 1.495 . S
C909 H915 0.958 1_455 S
C909 H916 0.961 . S
C909 H917 0.959 1_455 S
C910 C908 1.381 1_655 S
C910 C911 1.394 . S
C910 H918 0.930 . S
C911 C910 1.394 . S
C911 C912 1.383 . S
C911 H919 0.929 . S
C912 C911 1.383 . S
C912 C913 1.377 1_655 S
C913 H897 0.930 . S
C913 C912 1.377 1_455 S
C913 C914 1.379 . S
C914 H898 0.931 . S
C914 C908 1.383 . S
C914 C913 1.379 . S
H915 C909 0.958 1_655 S
H916 C909 0.961 . S
H917 C909 0.959 1_655 S
H918 C910 0.930 . S
H919 C911 0.929 . S
H920 C928 0.929 . S
H921 C930 0.930 . S
H922 C932 0.930 . S
H923 C935 0.929 . S
H924 C938 0.930 . S
H925 C940 0.960 . S
H926 C940 0.960 . S
H927 C940 0.960 . S
C928 H920 0.929 . S
C928 C929 1.377 1_545 S
C928 C930 1.384 . S
C929 C928 1.377 1_565 S
C929 C935 1.390 . S
C930 H921 0.930 . S
C930 C928 1.384 . S
C930 C931 1.372 . S
C931 C930 1.372 . S
C931 C932 1.400 . S
C931 C936 1.490 . S
C932 H922 0.930 . S
C932 C931 1.400 . S
C932 C935 1.386 1_545 S
H933 C949 0.930 . S
H934 C950 0.931 . S
C935 H923 0.929 . S
C935 C929 1.390 . S
C935 C932 1.386 1_565 S
C936 C931 1.490 . S
C936 C938 1.395 1_545 S
C936 C939 1.403 . S
H937 C943 0.930 . S
C938 H924 0.930 . S
C938 C936 1.395 1_565 S
C938 C941 1.403 . S
C939 C936 1.403 . S
C939 C940 1.524 . S
C939 C943 1.400 . S
C940 H925 0.960 . S
C940 H926 0.960 . S
C940 H927 0.960 . S
C940 C939 1.524 . S
C941 C938 1.403 . S
C941 C942 1.393 1_565 S
C941 C945 1.495 . S
C942 C941 1.393 1_545 S
C942 C943 1.385 . S
C942 C944 1.478 . S
C943 H937 0.930 . S
C943 C939 1.400 . S
C943 C942 1.385 . S
C944 C942 1.478 . S
C944 C946 1.381 . S
C944 C950 1.383 . S
C945 C941 1.495 . S
C945 H951 0.959 . S
C945 H952 0.961 . S
C945 H953 0.960 . S
C946 C944 1.381 . S
C946 C947 1.394 . S
C946 H954 0.930 . S
C947 C946 1.394 . S
C947 C948 1.383 . S
C947 H955 0.929 . S
C948 C947 1.383 . S
C948 C949 1.377 . S
C949 H933 0.930 . S
C949 C948 1.377 . S
C949 C950 1.379 . S
C950 H934 0.931 . S
C950 C944 1.383 . S
C950 C949 1.379 . S
H951 C945 0.959 . S
H952 C945 0.961 . S
H953 C945 0.960 . S
H954 C946 0.930 . S
H955 C947 0.929 . S
H956 C964 0.929 . S
H957 C966 0.930 . S
H958 C968 0.930 . S
H959 C971 0.929 . S
H960 C974 0.930 . S
H961 C976 0.960 . S
H962 C976 0.960 . S
H963 C976 0.960 . S
C964 H956 0.929 . S
C964 C965 1.377 . S
C964 C966 1.384 . S
C965 C964 1.377 . S
C965 C971 1.390 . S
C966 H957 0.930 . S
C966 C964 1.384 . S
C966 C967 1.372 . S
C967 C966 1.372 . S
C967 C968 1.400 . S
C967 C972 1.490 . S
C968 H958 0.930 . S
C968 C967 1.400 . S
C968 C971 1.386 . S
H969 C985 0.930 . S
H970 C986 0.931 . S
C971 H959 0.929 . S
C971 C965 1.390 . S
C971 C968 1.386 . S
C972 C967 1.490 . S
C972 C974 1.395 . S
C972 C975 1.403 . S
H973 C979 0.930 . S
C974 H960 0.930 . S
C974 C972 1.395 . S
C974 C977 1.403 . S
C975 C972 1.403 . S
C975 C976 1.524 . S
C975 C979 1.400 . S
C976 H961 0.960 . S
C976 H962 0.960 . S
C976 H963 0.960 . S
C976 C975 1.524 . S
C977 C974 1.403 . S
C977 C978 1.392 . S
C977 C981 1.495 1_455 S
C978 C977 1.392 . S
C978 C979 1.385 . S
C978 C980 1.478 . S
C979 H973 0.930 . S
C979 C975 1.400 . S
C979 C978 1.385 . S
C980 C978 1.478 . S
C980 C982 1.381 . S
C980 C986 1.383 1_455 S
C981 C977 1.495 1_655 S
C981 H987 0.959 . S
C981 H988 0.961 . S
C981 H989 0.954 1_655 S
C982 C980 1.381 . S
C982 C983 1.394 . S
C982 H990 0.930 . S
C983 C982 1.394 . S
C983 C984 1.383 1_455 S
C983 H991 0.929 . S
C984 C983 1.383 1_655 S
C984 C985 1.377 . S
C985 H969 0.930 . S
C985 C984 1.377 . S
C985 C986 1.379 . S
C986 H970 0.931 . S
C986 C980 1.383 1_655 S
C986 C985 1.379 . S
H987 C981 0.959 . S
H988 C981 0.961 . S
H989 C981 0.954 1_455 S
H990 C982 0.930 . S
H991 C983 0.929 . S
C281 C20 1.715 . S
C300 C156 1.698 . S
C317 C190 1.717 . S
C336 C54 1.707 . S
C353 C88 1.712 . S
C372 C224 1.725 . S
C389 C258 1.711 . S
C408 C122 1.722 . S
C425 C172 0.879 . S
C444 C2 0.836 . S
C461 C206 0.879 . S
C480 C36 0.836 . S
C497 C70 0.887 . S
C516 C240 0.876 . S
C533 C138 0.871 . S
C552 C104 0.890 . S
C569 C135 1.078 . S
C588 C237 1.101 . S
C605 C33 1.080 . S
C624 C271 1.063 . S
C641 C67 1.078 . S
C660 C169 1.102 . S
C677 C101 1.079 . S
C696 C203 1.106 . S
C713 C5 0.133 . S
C732 C73 0.101 . S
C749 C39 0.133 . S
C768 C107 0.133 . S
C785 C209 0.153 . S
C804 C141 0.145 . S
C821 C243 0.139 . S
C840 C175 0.178 . S
C857 C9 1.231 . S
C876 C77 1.262 1_565 S
C893 C111 1.227 . S
C912 C43 1.241 1_655 S
C929 C145 1.227 1_565 S
C948 C213 1.195 . S
C965 C179 1.244 . S
C984 C247 1.256 1_655 S
