# Generated by pormake.
# Topology unf, (4)-cn, num edge types: 1
# Building blocks:
#     Node 0, Type 0, BuildingBlock: CEKHIL_clean_sbu_0, # of connection points: 4
#     Node 1, Type 0, BuildingBlock: CEKHIL_clean_sbu_0, # of connection points: 4
#     Node 2, Type 0, BuildingBlock: CEKHIL_clean_sbu_0, # of connection points: 4
#     Node 3, Type 0, BuildingBlock: CEKHIL_clean_sbu_0, # of connection points: 4
#     Node 4, Type 0, BuildingBlock: CEKHIL_clean_sbu_0, # of connection points: 4
#     Node 5, Type 0, BuildingBlock: CEKHIL_clean_sbu_0, # of connection points: 4
#     Node 6, Type 0, BuildingBlock: CEKHIL_clean_sbu_0, # of connection points: 4
#     Node 7, Type 0, BuildingBlock: CEKHIL_clean_sbu_0, # of connection points: 4
#     Node 8, Type 0, BuildingBlock: CEKHIL_clean_sbu_0, # of connection points: 4
#     Node 9, Type 0, BuildingBlock: CEKHIL_clean_sbu_0, # of connection points: 4
#     Node 10, Type 0, BuildingBlock: CEKHIL_clean_sbu_0, # of connection points: 4
#     Node 11, Type 0, BuildingBlock: CEKHIL_clean_sbu_0, # of connection points: 4
#     Edge 12, Type (0, 0), BuildingBlock: UVAHIK_clean_linker_0, # of connection points: 2
#     Edge 13, Type (0, 0), BuildingBlock: UVAHIK_clean_linker_0, # of connection points: 2
#     Edge 14, Type (0, 0), BuildingBlock: UVAHIK_clean_linker_0, # of connection points: 2
#     Edge 15, Type (0, 0), BuildingBlock: UVAHIK_clean_linker_0, # of connection points: 2
#     Edge 16, Type (0, 0), BuildingBlock: UVAHIK_clean_linker_0, # of connection points: 2
#     Edge 17, Type (0, 0), BuildingBlock: UVAHIK_clean_linker_0, # of connection points: 2
#     Edge 18, Type (0, 0), BuildingBlock: UVAHIK_clean_linker_0, # of connection points: 2
#     Edge 19, Type (0, 0), BuildingBlock: UVAHIK_clean_linker_0, # of connection points: 2
#     Edge 20, Type (0, 0), BuildingBlock: UVAHIK_clean_linker_0, # of connection points: 2
#     Edge 21, Type (0, 0), BuildingBlock: UVAHIK_clean_linker_0, # of connection points: 2
#     Edge 22, Type (0, 0), BuildingBlock: UVAHIK_clean_linker_0, # of connection points: 2
#     Edge 23, Type (0, 0), BuildingBlock: UVAHIK_clean_linker_0, # of connection points: 2
#     Edge 24, Type (0, 0), BuildingBlock: UVAHIK_clean_linker_0, # of connection points: 2
#     Edge 25, Type (0, 0), BuildingBlock: UVAHIK_clean_linker_0, # of connection points: 2
#     Edge 26, Type (0, 0), BuildingBlock: UVAHIK_clean_linker_0, # of connection points: 2
#     Edge 27, Type (0, 0), BuildingBlock: UVAHIK_clean_linker_0, # of connection points: 2
#     Edge 28, Type (0, 0), BuildingBlock: UVAHIK_clean_linker_0, # of connection points: 2
#     Edge 29, Type (0, 0), BuildingBlock: UVAHIK_clean_linker_0, # of connection points: 2
#     Edge 30, Type (0, 0), BuildingBlock: UVAHIK_clean_linker_0, # of connection points: 2
#     Edge 31, Type (0, 0), BuildingBlock: UVAHIK_clean_linker_0, # of connection points: 2
#     Edge 32, Type (0, 0), BuildingBlock: UVAHIK_clean_linker_0, # of connection points: 2
#     Edge 33, Type (0, 0), BuildingBlock: UVAHIK_clean_linker_0, # of connection points: 2
#     Edge 34, Type (0, 0), BuildingBlock: UVAHIK_clean_linker_0, # of connection points: 2
#     Edge 35, Type (0, 0), BuildingBlock: UVAHIK_clean_linker_0, # of connection points: 2
# Relax obj value: 0.234
# Max RMSD: 0.180
# Mean RMSD: 0.178
data_MOF--net-unf--node1-CEKHIL_clean_sbu_0--edge1-UVAHIK_clean_linker_0
_symmetry_space_group_name_H-M    P1
_symmetry_Int_Tables_number       1
_symmetry_cell_setting            triclinic
loop_
_symmetry_equiv_pos_as_xyz
'x, y, z'
_cell_length_a     49.579113
_cell_length_b     49.079221
_cell_length_c     46.492201
_cell_angle_alpha  89.6938
_cell_angle_beta   90.560437
_cell_angle_gamma 120.35647
loop_
_atom_site_label
_atom_site_type_symbol
_atom_site_fract_x
_atom_site_fract_y
_atom_site_fract_z
_atom_type_partial_charge
Co0 Co 0.09789 0.40354 0.07986 0.0
O1 O 0.12842 0.4242 0.10983 0.0
O2 O 0.09431 0.37279 0.10789 0.0
C3 C 0.08038 0.43769 0.07724 0.0
O4 O 0.06227 0.37404 0.0533 0.0
Co5 Co 0.10517 0.43616 0.02069 0.0
O6 O 0.06246 0.40023 0.01335 0.0
C7 C 0.14422 0.4084 0.03423 0.0
C8 C 0.11744 0.39637 0.12123 0.0
C9 C 0.05001 0.37578 0.02935 0.0
O10 O 0.12883 0.39695 0.05759 0.0
O11 O 0.13978 0.42645 0.01732 0.0
O12 O 0.07024 0.41617 0.0972 0.0
O13 O 0.10321 0.44016 0.06203 0.0
Co14 Co 0.58996 0.68409 0.09859 0.0
O15 O 0.57498 0.69555 0.13144 0.0
O16 O 0.62483 0.71144 0.12323 0.0
C17 C 0.55444 0.6324 0.09889 0.0
O18 O 0.6137 0.67548 0.0679 0.0
Co19 Co 0.54801 0.65696 0.04394 0.0
O20 O 0.58079 0.64765 0.03175 0.0
C21 C 0.57876 0.72496 0.05619 0.0
C22 C 0.60394 0.71155 0.13987 0.0
C23 C 0.60732 0.65962 0.04434 0.0
O24 O 0.59453 0.72177 0.07674 0.0
O25 O 0.55707 0.70158 0.04228 0.0
O26 O 0.57861 0.64345 0.116 0.0
O27 O 0.55085 0.65327 0.08516 0.0
Co28 Co 0.30188 0.89849 0.07756 0.0
O29 O 0.29064 0.86961 0.10922 0.0
O30 O 0.27689 0.90599 0.10423 0.0
C31 C 0.35276 0.91363 0.07523 0.0
O32 O 0.31024 0.93334 0.04919 0.0
Co33 Co 0.32408 0.88581 0.01959 0.0
O34 O 0.3345 0.92954 0.01009 0.0
C35 C 0.25741 0.84985 0.03384 0.0
C36 C 0.276 0.88319 0.11932 0.0
C37 C 0.32449 0.94413 0.02521 0.0
O38 O 0.26292 0.86754 0.05598 0.0
O39 O 0.27904 0.85157 0.01778 0.0
O40 O 0.34304 0.92578 0.09444 0.0
O41 O 0.33109 0.89004 0.06092 0.0
Co42 Co 0.58202 0.89122 0.42203 0.0
O43 O 0.56493 0.86127 0.39107 0.0
O44 O 0.61498 0.89777 0.39644 0.0
C45 C 0.54645 0.90669 0.42256 0.0
O46 O 0.60835 0.92655 0.45002 0.0
Co47 Co 0.54637 0.88096 0.47929 0.0
O48 O 0.58064 0.92419 0.48887 0.0
C49 C 0.57748 0.8446 0.46822 0.0
C50 C 0.5935 0.87407 0.38187 0.0
C51 C 0.60543 0.93785 0.4739 0.0
O52 O 0.58918 0.8606 0.4451 0.0
O53 O 0.55819 0.84767 0.48402 0.0
O54 O 0.56869 0.91831 0.40364 0.0
O55 O 0.54417 0.88343 0.43768 0.0
Co56 Co 0.08771 0.68085 0.40073 0.0
O57 O 0.11654 0.69291 0.36968 0.0
O58 O 0.08364 0.71046 0.37618 0.0
C59 C 0.06919 0.62871 0.39942 0.0
O60 O 0.05398 0.67267 0.42977 0.0
Co61 Co 0.0978 0.65084 0.45584 0.0
O62 O 0.05501 0.64176 0.46517 0.0
C63 C 0.13753 0.71898 0.44606 0.0
C64 C 0.10601 0.71108 0.36123 0.0
C65 C 0.04231 0.65557 0.45241 0.0
O66 O 0.1202 0.71686 0.42445 0.0
O67 O 0.13408 0.69494 0.46012 0.0
O68 O 0.05833 0.64138 0.38152 0.0
O69 O 0.09328 0.64834 0.41437 0.0
Co70 Co 0.29989 0.4039 0.42217 0.0
O71 O 0.29137 0.42388 0.39066 0.0
O72 O 0.27033 0.37214 0.39604 0.0
C73 C 0.35207 0.4348 0.42252 0.0
O74 O 0.3044 0.37492 0.45081 0.0
Co75 Co 0.3291 0.4401 0.47892 0.0
O76 O 0.33708 0.4049 0.48611 0.0
C77 C 0.26227 0.4153 0.46757 0.0
C78 C 0.27284 0.39563 0.38083 0.0
C79 C 0.32188 0.37867 0.47285 0.0
O80 O 0.26449 0.40219 0.44454 0.0
O81 O 0.28573 0.4329 0.48375 0.0
O82 O 0.3384 0.41169 0.40426 0.0
O83 O 0.33372 0.44074 0.43742 0.0
Co84 Co 0.89055 0.59187 0.91836 0.0
O85 O 0.91624 0.57302 0.91688 0.0
O86 O 0.88851 0.57157 0.95461 0.0
C87 C 0.86734 0.57506 0.87522 0.0
O88 O 0.86076 0.60769 0.92752 0.0
Co89 Co 0.89968 0.64393 0.8748 0.0
O90 O 0.85899 0.63589 0.89002 0.0
C91 C 0.94622 0.65864 0.92086 0.0
C92 C 0.90818 0.56456 0.94338 0.0
C93 C 0.8487 0.62202 0.91406 0.0
O94 O 0.92754 0.63205 0.93283 0.0
O95 O 0.9405 0.66693 0.89644 0.0
O96 O 0.85683 0.55638 0.89741 0.0
O97 O 0.89286 0.60159 0.87936 0.0
Co98 Co 0.40912 0.31101 0.91449 0.0
O99 O 0.43217 0.30342 0.88586 0.0
O100 O 0.38224 0.2899 0.88203 0.0
C101 C 0.44543 0.36099 0.9244 0.0
O102 O 0.3781 0.31654 0.93858 0.0
Co103 Co 0.43268 0.32613 0.97785 0.0
O104 O 0.39958 0.3372 0.98167 0.0
C105 C 0.40423 0.26093 0.95644 0.0
C106 C 0.40639 0.29024 0.87091 0.0
C107 C 0.3779 0.32888 0.96291 0.0
O108 O 0.39652 0.26898 0.93276 0.0
O109 O 0.42049 0.2806 0.97624 0.0
O110 O 0.42722 0.3548 0.90207 0.0
O111 O 0.44329 0.3369 0.93777 0.0
Co112 Co 0.69371 0.08743 0.91521 0.0
O113 O 0.64922 0.06815 0.9114 0.0
O114 O 0.67654 0.09168 0.95083 0.0
C115 C 0.70697 0.11386 0.87344 0.0
O116 O 0.73963 0.11075 0.9267 0.0
Co117 Co 0.73093 0.07024 0.87291 0.0
O118 O 0.76735 0.10831 0.88981 0.0
C119 C 0.6931 0.02499 0.91784 0.0
C120 C 0.64944 0.07605 0.93806 0.0
C121 C 0.76569 0.11953 0.91397 0.0
O122 O 0.68838 0.04613 0.92893 0.0
O123 O 0.70768 0.02905 0.89418 0.0
O124 O 0.70024 0.12542 0.89554 0.0
O125 O 0.70174 0.0854 0.87639 0.0
Co126 Co 0.38321 0.08293 0.58478 0.0
O127 O 0.40598 0.061 0.58814 0.0
O128 O 0.40613 0.0883 0.54991 0.0
C129 C 0.39525 0.10633 0.62801 0.0
O130 O 0.36377 0.10953 0.57397 0.0
Co131 Co 0.32711 0.06594 0.62493 0.0
O132 O 0.33018 0.10477 0.60849 0.0
C133 C 0.32048 0.02219 0.579 0.0
C134 C 0.41539 0.07048 0.56208 0.0
C135 C 0.3456 0.1178 0.58575 0.0
O136 O 0.34657 0.04363 0.56849 0.0
O137 O 0.30966 0.02545 0.6028 0.0
O138 O 0.41501 0.11844 0.60698 0.0
O139 O 0.37108 0.07888 0.62313 0.0
Co140 Co 0.89167 0.30198 0.5779 0.0
O141 O 0.85806 0.29239 0.60374 0.0
O142 O 0.89903 0.28723 0.61405 0.0
C143 C 0.89915 0.34852 0.56224 0.0
O144 O 0.93158 0.31108 0.55729 0.0
Co145 Co 0.88372 0.30794 0.51207 0.0
O146 O 0.92949 0.32545 0.51164 0.0
C147 C 0.85347 0.24513 0.53917 0.0
C148 C 0.87268 0.28438 0.62217 0.0
C149 C 0.94426 0.32211 0.53266 0.0
O150 O 0.86799 0.25739 0.56292 0.0
O151 O 0.85504 0.26143 0.51701 0.0
O152 O 0.91127 0.34681 0.58664 0.0
O153 O 0.8803 0.3219 0.55005 0.0
Co154 Co 0.69488 0.59122 0.5794 0.0
O155 O 0.64998 0.56814 0.57996 0.0
O156 O 0.67902 0.57277 0.54215 0.0
C157 C 0.70246 0.57342 0.62153 0.0
O158 O 0.74113 0.61136 0.57084 0.0
Co159 Co 0.73397 0.64204 0.62529 0.0
O160 O 0.77004 0.6411 0.60806 0.0
C161 C 0.69922 0.65504 0.581 0.0
C162 C 0.65139 0.56189 0.55308 0.0
C163 C 0.76755 0.62804 0.58378 0.0
O164 O 0.69445 0.63038 0.56714 0.0
O165 O 0.71201 0.66225 0.60598 0.0
O166 O 0.69634 0.55636 0.59841 0.0
O167 O 0.70087 0.59875 0.61882 0.0
C168 C 0.18025 0.38836 0.04717 0.0
C169 C 0.16772 0.39971 0.02627 0.0
C170 C 0.20215 0.37976 0.0396 0.0
C171 C 0.25713 0.38891 0.98133 0.0
H172 H 0.25688 0.31895 0.02077 0.0
C173 C 0.33365 0.33647 0.94703 0.0
C174 C 0.35173 0.33415 0.96935 0.0
C175 C 0.31009 0.34323 0.95316 0.0
C176 C 0.25722 0.33858 0.00965 0.0
H177 H 0.16801 0.41055 0.98095 0.0
H178 H 0.20532 0.39458 0.96756 0.0
H179 H 0.21776 0.33311 0.03278 0.0
H180 H 0.35875 0.33632 0.01561 0.0
H181 H 0.31718 0.34746 0.02627 0.0
H182 H 0.29629 0.39375 0.9578 0.0
C183 C 0.19901 0.39315 0.98997 0.0
C184 C 0.23496 0.34687 0.01662 0.0
C185 C 0.17747 0.40219 0.99762 0.0
C186 C 0.34529 0.33803 -0.00207 0.0
C187 C 0.32141 0.34424 0.00407 0.0
C188 C 0.27908 0.38029 0.97407 0.0
C189 C 0.21169 0.38185 0.01086 0.0
C190 C 0.23481 0.37238 0.00278 0.0
C191 C 0.30381 0.34722 0.98174 0.0
C192 C 0.27951 0.35525 0.98836 0.0
H193 H 0.17341 0.38642 0.06949 0.0
H194 H 0.21183 0.37182 0.05642 0.0
H195 H 0.25814 0.409 0.97052 0.0
H196 H 0.33817 0.33377 0.92478 0.0
H197 H 0.2967 0.34528 0.93559 0.0
C198 C 0.61519 0.78363 0.05649 0.0
C199 C 0.58756 0.75714 0.04646 0.0
C200 C 0.6254 0.81342 0.04449 0.0
C201 C 0.61864 0.84903 0.97726 0.0
H202 H 0.65788 0.92692 0.02105 0.0
C203 C 0.66424 0.98921 0.95902 0.0
C204 C 0.6811 0.99468 0.93338 0.0
C205 C 0.65271 0.96064 0.9737 0.0
C206 C 0.64679 0.90533 0.00857 0.0
H207 H 0.54798 0.74161 0.01727 0.0
H208 H 0.56561 0.79351 0.99675 0.0
H209 H 0.63633 0.87639 0.04617 0.0
H210 H 0.69915 0.9743 0.90321 0.0
H211 H 0.67917 0.9245 0.92899 0.0
H212 H 0.62869 0.8778 0.93971 0.0
C213 C 0.57975 0.79112 0.01337 0.0
C214 C 0.63471 0.87646 0.02293 0.0
C215 C 0.56958 0.76139 0.02527 0.0
C216 C 0.6862 0.97088 0.92282 0.0
C217 C 0.67463 0.94228 0.93752 0.0
C218 C 0.63074 0.87784 0.96293 0.0
C219 C 0.60815 0.81728 0.02231 0.0
C220 C 0.62048 0.84802 0.0074 0.0
C221 C 0.65772 0.93685 0.96308 0.0
C222 C 0.64498 0.9063 0.97841 0.0
H223 H 0.62959 0.78121 0.0728 0.0
H224 H 0.64747 0.83314 0.05175 0.0
H225 H 0.60821 0.82753 0.96465 0.0
H226 H 0.65973 0.00693 0.96777 0.0
H227 H 0.63942 0.95698 0.99313 0.0
C228 C 0.2173 0.80735 0.00198 0.0
C229 C 0.22446 0.82784 0.0255 0.0
C230 C 0.18646 0.78859 0.99253 0.0
C231 C 0.10402 0.75646 0.0135 0.0
H232 H 0.0903 0.75116 0.93095 0.0
C233 C -0.00296 0.70995 0.92416 0.0
C234 C 0.97634 0.67992 0.93549 0.0
C235 C 0.02647 0.7289 0.93668 0.0
C236 C 0.09367 0.75268 0.95406 0.0
H237 H 0.20451 0.84381 0.05813 0.0
H238 H 0.15077 0.81134 0.04135 0.0
H239 H 0.1432 0.78161 0.95008 0.0
H240 H 0.97013 0.64667 0.96944 0.0
H241 H 0.02153 0.67956 0.99095 0.0
H242 H 0.05431 0.72797 0.01741 0.0
C243 C 0.16902 0.8096 0.0304 0.0
C244 C 0.12405 0.76974 0.96503 0.0
C245 C 0.19989 0.82832 0.03993 0.0
C246 C 0.98541 0.6697 0.96015 0.0
C247 C 0.01487 0.68862 0.97261 0.0
C248 C 0.07356 0.73938 0.00251 0.0
C249 C 0.16204 0.78992 0.00629 0.0
C250 C 0.12961 0.7717 0.99485 0.0
C251 C 0.03591 0.71823 0.96076 0.0
C252 C 0.06807 0.73724 0.97265 0.0
H253 H 0.23557 0.80613 0.9905 0.0
H254 H 0.18177 0.77317 0.97426 0.0
H255 H 0.10755 0.75737 0.03658 0.0
H256 H 0.99076 0.71868 0.90532 0.0
H257 H 0.04196 0.75184 0.92734 0.0
C258 C 0.68389 0.6962 0.58482 0.0
C259 C 0.68886 0.67567 0.56771 0.0
C260 C 0.67271 0.71464 0.57258 0.0
C261 C 0.63207 0.72065 0.50737 0.0
H262 H 0.6574 0.80311 0.53926 0.0
C263 C 0.60168 0.81151 0.45834 0.0
C264 C 0.58833 0.82302 0.4779 0.0
C265 C 0.61382 0.79281 0.46796 0.0
C266 C 0.65011 0.78006 0.53024 0.0
H267 H 0.68679 0.659 0.52417 0.0
H268 H 0.66846 0.69212 0.50259 0.0
H269 H 0.68074 0.77318 0.55793 0.0
H270 H 0.57699 0.82373 0.52276 0.0
H271 H 0.59882 0.79162 0.53953 0.0
H272 H 0.60204 0.72832 0.47911 0.0
C273 C 0.67226 0.69328 0.52564 0.0
C274 C 0.6633 0.7628 0.541 0.0
C275 C 0.68298 0.67444 0.53797 0.0
C276 C 0.58697 0.8151 0.50715 0.0
C277 C 0.59963 0.79693 0.5168 0.0
C278 C 0.61929 0.73823 0.49626 0.0
C279 C 0.66671 0.71343 0.54283 0.0
C280 C 0.6541 0.73263 0.53004 0.0
C281 C 0.61335 0.78586 0.49733 0.0
C282 C 0.62788 0.76784 0.50793 0.0
H283 H 0.68789 0.69746 0.60785 0.0
H284 H 0.66812 0.72931 0.58665 0.0
H285 H 0.62404 0.69736 0.49864 0.0
H286 H 0.60296 0.81715 0.43565 0.0
H287 H 0.62436 0.78452 0.4526 0.0
C288 C 0.16315 0.7779 0.44368 0.0
C289 C 0.16115 0.75083 0.45631 0.0
C290 C 0.18312 0.80776 0.4552 0.0
C291 C 0.22089 0.84501 0.52361 0.0
H292 H 0.26511 0.9205 0.47694 0.0
C293 C 0.31577 0.98575 0.53923 0.0
C294 C 0.30262 0.99208 0.56314 0.0
C295 C 0.29962 0.9567 0.52515 0.0
C296 C 0.25311 0.89961 0.49026 0.0
H297 H 0.17996 0.73421 0.49001 0.0
H298 H 0.21512 0.78638 0.50979 0.0
H299 H 0.2371 0.86888 0.45371 0.0
H300 H 0.26179 0.97307 0.59049 0.0
H301 H 0.23348 0.92263 0.56563 0.0
H302 H 0.2372 0.87557 0.56016 0.0
C303 C 0.20068 0.78437 0.49136 0.0
C304 C 0.23684 0.87009 0.47695 0.0
C305 C 0.18064 0.75448 0.47991 0.0
C306 C 0.27271 0.96892 0.57228 0.0
C307 C 0.25655 0.93993 0.55814 0.0
C308 C 0.23717 0.87447 0.53689 0.0
C309 C 0.20163 0.81124 0.47953 0.0
C310 C 0.2204 0.84249 0.49349 0.0
C311 C 0.26996 0.93338 0.53462 0.0
C312 C 0.25324 0.90211 0.52037 0.0
H313 H 0.14854 0.776 0.42543 0.0
H314 H 0.18311 0.82796 0.44572 0.0
H315 H 0.20812 0.82425 0.53696 0.0
H316 H 0.33884 0.00298 0.53167 0.0
H317 H 0.31071 0.95224 0.50727 0.0
C318 C 0.9891 0.33554 0.50016 0.0
C319 C 0.97742 0.33162 0.52822 0.0
C320 C 0.02058 0.34599 0.49551 0.0
C321 C 0.09242 0.3558 0.5306 0.0
H322 H 0.13196 0.41134 0.46552 0.0
C323 C 0.22464 0.41314 0.50454 0.0
C324 C 0.23088 0.40893 0.47596 0.0
C325 C 0.19449 0.40554 0.51258 0.0
C326 C 0.12119 0.3958 0.48373 0.0
H327 H 0.98969 0.33532 0.5735 0.0
H328 H 0.04507 0.35432 0.56539 0.0
H329 H 0.07797 0.39462 0.477 0.0
H330 H 0.21053 0.3941 0.43332 0.0
H331 H 0.15818 0.38141 0.4473 0.0
H332 H 0.1361 0.35745 0.53732 0.0
C333 C 0.02966 0.34878 0.54694 0.0
C334 C 0.0902 0.38605 0.49026 0.0
C335 C -0.00206 0.33796 0.55161 0.0
C336 C 0.20651 0.39756 0.45552 0.0
C337 C 0.17656 0.39043 0.46347 0.0
C338 C 0.12362 0.36589 0.52423 0.0
C339 C 0.04141 0.35322 0.5188 0.0
C340 C 0.07517 0.36539 0.5134 0.0
C341 C 0.1702 0.39412 0.4921 0.0
C342 C 0.13808 0.38551 0.50041 0.0
H343 H 0.97389 0.33051 0.48162 0.0
H344 H 0.02853 0.34826 0.47355 0.0
H345 H 0.08156 0.3397 0.54842 0.0
H346 H 0.24287 0.42172 0.52082 0.0
H347 H 0.19019 0.40873 0.53476 0.0
C348 C 0.65661 0.65731 0.04788 0.0
C349 C 0.63177 0.65505 0.03116 0.0
C350 C 0.67938 0.65243 0.03541 0.0
C351 C 0.71771 0.65839 0.9677 0.0
H352 H 0.73869 0.59864 0.00066 0.0
C353 C 0.80207 0.6288 0.9104 0.0
C354 C 0.82252 0.62348 0.92741 0.0
C355 C 0.77792 0.63121 0.92304 0.0
C356 C 0.73352 0.61579 0.99139 0.0
H357 H 0.61146 0.64613 0.98825 0.0
H358 H 0.65172 0.63842 0.96641 0.0
H359 H 0.69892 0.60651 0.02329 0.0
H360 H 0.83371 0.61643 0.971 0.0
H361 H 0.79243 0.62189 0.99322 0.0
H362 H 0.75284 0.6687 0.93643 0.0
C363 C 0.65334 0.64371 0.98917 0.0
C364 C 0.71063 0.62014 0.00432 0.0
C365 C 0.63028 0.648 0.00171 0.0
C366 C 0.81817 0.62033 0.9573 0.0
C367 C 0.79434 0.62329 0.97002 0.0
C368 C 0.74096 0.65447 0.95505 0.0
C369 C 0.67802 0.64579 0.00591 0.0
C370 C 0.70246 0.64137 0.9925 0.0
C371 C 0.77397 0.62892 0.95307 0.0
C372 C 0.74911 0.63301 0.96663 0.0
H373 H 0.65827 0.66249 0.07066 0.0
H374 H 0.6983 0.6543 0.04871 0.0
H375 H 0.71203 0.67516 0.95837 0.0
H376 H 0.8046 0.63094 0.88725 0.0
H377 H 0.76229 0.63476 0.90916 0.0
C378 C 0.3921 0.21609 0.9894 0.0
C379 C 0.39396 0.22737 0.96126 0.0
C380 C 0.38371 0.18479 0.99427 0.0
C381 C 0.34755 0.10585 0.96016 0.0
H382 H 0.38945 0.09006 0.02345 0.0
C383 C 0.33833 0.98497 0.9867 0.0
C384 C 0.33047 0.97534 0.01545 0.0
C385 C 0.34531 0.01515 0.97804 0.0
C386 C 0.37755 0.09419 0.00576 0.0
H387 H 0.38805 0.21463 0.91609 0.0
H388 H 0.37429 0.15993 0.92456 0.0
H389 H 0.40374 0.14406 0.01173 0.0
H390 H 0.32353 0.98966 0.05755 0.0
H391 H 0.33631 0.04244 0.04245 0.0
H392 H 0.32189 0.0556 0.95404 0.0
C393 C 0.37872 0.17519 0.9429 0.0
C394 C 0.38555 0.12505 -0.00088 0.0
C395 C 0.38671 0.20652 0.93804 0.0
C396 C 0.32939 -0.0037 0.03524 0.0
C397 C 0.33684 0.02654 0.02668 0.0
C398 C 0.33987 0.07489 0.96658 0.0
C399 C 0.37748 0.16408 0.9711 0.0
C400 C 0.37021 0.13125 0.97664 0.0
C401 C 0.34508 0.03627 -0.0019 0.0
C402 C 0.35444 0.06887 0.98977 0.0
H403 H 0.39705 0.23146 0.00777 0.0
H404 H 0.3821 0.17684 0.01629 0.0
H405 H 0.33513 0.10976 0.94285 0.0
H406 H 0.33924 0.96928 0.97096 0.0
H407 H 0.35171 0.0223 0.95589 0.0
C408 C 0.01281 0.34402 0.99004 0.0
C409 C 0.02062 0.34802 0.01946 0.0
C410 C 0.98537 0.31758 0.98044 0.0
C411 C 0.90687 0.25987 0.00097 0.0
H412 H 0.91121 0.20924 0.93942 0.0
C413 C 0.79645 0.14928 0.95748 0.0
C414 C 0.79496 0.14382 0.92773 0.0
C415 C 0.82419 0.17253 0.9703 0.0
C416 C 0.90947 0.22333 0.95635 0.0
H417 H 0.00557 0.32776 0.06196 0.0
H418 H 0.95694 0.28173 0.04506 0.0
H419 H 0.95919 0.25354 0.95864 0.0
H420 H 0.82107 0.15873 0.88797 0.0
H421 H 0.86891 0.19995 0.91 0.0
H422 H 0.85719 0.23077 -0.00206 0.0
C423 C 0.9724 0.29901 0.02955 0.0
C424 C 0.93699 0.24854 0.96744 0.0
C425 C 0.0002 0.32521 0.03914 0.0
C426 C 0.82163 0.16212 0.91103 0.0
C427 C 0.84915 0.18566 0.92373 0.0
C428 C 0.87925 0.23495 0.98955 0.0
C429 C 0.96494 0.29491 0.0001 0.0
C430 C 0.93588 0.26715 0.98966 0.0
C431 C 0.85086 0.19113 0.95355 0.0
C432 C 0.8802 0.21655 0.96687 0.0
H433 H 0.02811 0.36113 0.97434 0.0
H434 H 0.97992 0.315 0.95764 0.0
H435 H 0.90551 0.27412 0.01799 0.0
H436 H 0.77629 0.13537 0.97092 0.0
H437 H 0.82474 0.17571 0.99337 0.0
C438 C 0.35984 0.15977 0.54814 0.0
C439 C 0.34258 0.14372 0.57264 0.0
C440 C 0.35755 0.18483 0.53645 0.0
C441 C 0.33465 0.22549 0.50745 0.0
H442 H 0.33278 0.28551 0.56013 0.0
C443 C 0.30671 0.32152 0.47083 0.0
C444 C 0.32446 0.35155 0.48342 0.0
C445 C 0.30928 0.29606 0.48099 0.0
C446 C 0.33351 0.2691 0.54512 0.0
H447 H 0.30899 0.14124 0.60376 0.0
H448 H 0.30482 0.18457 0.5832 0.0
H449 H 0.33713 0.24155 0.57905 0.0
H450 H 0.3593 0.37841 0.51626 0.0
H451 H 0.36389 0.33418 0.5337 0.0
H452 H 0.33161 0.25349 0.47349 0.0
C453 C 0.32047 0.17809 0.57328 0.0
C454 C 0.33563 0.2437 0.55597 0.0
C455 C 0.32274 0.15309 0.58495 0.0
C456 C 0.34503 0.35558 0.5062 0.0
C457 C 0.3476 0.33017 0.51631 0.0
C458 C 0.3325 0.25093 0.49657 0.0
C459 C 0.338 0.19439 0.54903 0.0
C460 C 0.33613 0.22156 0.53729 0.0
C461 C 0.32965 0.3001 0.50394 0.0
C462 C 0.33191 0.27301 0.51531 0.0
H463 H 0.3754 0.15324 0.53814 0.0
H464 H 0.37158 0.19714 0.51791 0.0
H465 H 0.33475 0.20867 0.49252 0.0
H466 H 0.29066 0.31757 0.45323 0.0
H467 H 0.2949 0.27309 0.47121 0.0
C468 C 0.82627 0.19544 0.51062 0.0
C469 C 0.83307 0.21058 0.53745 0.0
C470 C 0.80474 0.16326 0.5084 0.0
C471 C 0.73409 0.103 0.54087 0.0
H472 H 0.74657 0.04635 0.49234 0.0
C473 C 0.63372 0.97706 0.51335 0.0
C474 C 0.63239 0.96749 0.48466 0.0
C475 C 0.65983 0.00458 0.52357 0.0
C476 C 0.74265 0.06193 0.50582 0.0
H477 H 0.82343 0.20385 0.58317 0.0
H478 H 0.78499 0.14737 0.5791 0.0
H479 H 0.79074 0.09842 0.50392 0.0
H480 H 0.65712 0.97965 0.44409 0.0
H481 H 0.70201 0.0279 0.46161 0.0
H482 H 0.68574 0.06738 0.54155 0.0
C483 C 0.79664 0.16053 0.55991 0.0
C484 C 0.76797 0.09159 0.51259 0.0
C485 C 0.81866 0.19272 0.56221 0.0
C486 C 0.65751 0.98617 0.46638 0.0
C487 C 0.68341 0.01374 0.47651 0.0
C488 C 0.70865 0.07344 0.53384 0.0
C489 C 0.78926 0.14568 0.53291 0.0
C490 C 0.76375 0.11264 0.5296 0.0
C491 C 0.68501 0.02319 0.50527 0.0
C492 C 0.7125 0.05291 0.5156 0.0
H493 H 0.83717 0.2086 0.49121 0.0
H494 H 0.79922 0.1524 0.4873 0.0
H495 H 0.73022 0.11899 0.55381 0.0
H496 H 0.61482 0.96308 0.52804 0.0
H497 H 0.66043 0.01106 0.5459 0.0
C498 C 0.001 0.67075 0.45426 0.0
C499 C 0.01344 0.65242 0.46476 0.0
C500 C 0.97442 0.66853 0.46671 0.0
C501 C 0.92843 0.64358 0.53362 0.0
H502 H 0.86442 0.64494 0.4861 0.0
C503 C 0.79385 0.61639 0.54388 0.0
C504 C 0.79609 0.63206 0.56982 0.0
C505 C 0.82058 0.61965 0.53086 0.0
C506 C 0.88199 0.64433 0.49966 0.0
H507 H 0.00706 0.61672 0.49612 0.0
H508 H 0.96056 0.6126 0.51747 0.0
H509 H 0.91002 0.64797 0.46351 0.0
H510 H 0.82839 0.66369 0.60225 0.0
H511 H 0.87506 0.66967 0.57929 0.0
H512 H 0.90003 0.63911 0.5697 0.0
C513 C 0.97175 0.62918 0.50002 0.0
C514 C 0.9083 0.64643 0.48674 0.0
C515 C -0.00166 0.63144 0.48765 0.0
C516 C 0.82576 0.6512 0.58234 0.0
C517 C 0.85252 0.6545 0.56926 0.0
C518 C 0.90211 0.64144 0.54654 0.0
C519 C 0.95961 0.64787 0.48986 0.0
C520 C 0.93177 0.64597 0.50356 0.0
C521 C 0.85022 0.6387 0.5434 0.0
C522 C 0.87854 0.64169 0.5297 0.0
H523 H 0.01206 0.6872 0.4367 0.0
H524 H 0.96584 0.68349 0.45855 0.0
H525 H 0.94627 0.64356 0.54723 0.0
H526 H 0.7714 0.60132 0.53367 0.0
H527 H 0.81793 0.60677 0.51119 0.0
C528 C 0.23276 0.36053 0.34428 0.0
C529 C 0.25587 0.39083 0.35336 0.0
C530 C 0.21694 0.35653 0.31812 0.0
C531 C 0.22499 0.3957 0.24847 0.0
H532 H 0.13437 0.34909 0.24528 0.0
C533 C 0.15778 0.41775 0.16013 0.0
C534 C 0.13162 0.39183 0.14753 0.0
C535 C 0.17223 0.41367 0.18428 0.0
C536 C 0.15968 0.36173 0.24572 0.0
H537 H 0.28057 0.44059 0.34223 0.0
H538 H 0.25319 0.4336 0.29681 0.0
H539 H 0.16138 0.34857 0.28949 0.0
H540 H 0.09974 0.34131 0.15055 0.0
H541 H 0.12514 0.33419 0.19306 0.0
H542 H 0.22348 0.40944 0.20507 0.0
C543 C 0.24739 0.41292 0.3097 0.0
C544 C 0.17511 0.36142 0.27098 0.0
C545 C 0.26292 0.41694 0.33584 0.0
C546 C 0.11989 0.36173 0.15984 0.0
C547 C 0.13434 0.35765 0.18417 0.0
C548 C 0.20964 0.39596 0.2233 0.0
C549 C 0.22431 0.38272 0.30052 0.0
C550 C 0.2079 0.37918 0.27281 0.0
C551 C 0.16087 0.38358 0.19642 0.0
C552 C 0.17683 0.37977 0.22193 0.0
H553 H 0.22683 0.33998 0.35741 0.0
H554 H 0.19925 0.33299 0.31149 0.0
H555 H 0.25031 0.40905 0.24911 0.0
H556 H 0.16732 0.44127 0.15124 0.0
H557 H 0.19226 0.43421 0.19358 0.0
C558 C 0.64231 0.75434 0.17274 0.0
C559 C 0.61213 0.72877 0.16733 0.0
C560 C 0.64873 0.77168 0.19828 0.0
C561 C 0.61863 0.76729 0.27143 0.0
H562 H 0.64772 0.85661 0.26313 0.0
C563 C 0.57919 0.83114 0.34621 0.0
C564 C 0.60155 0.86059 0.35743 0.0
C565 C 0.5873 0.81689 0.32481 0.0
C566 C 0.64018 0.83185 0.26589 0.0
H567 H 0.56548 0.70039 0.18461 0.0
H568 H 0.5767 0.73015 0.22895 0.0
H569 H 0.65132 0.82714 0.22242 0.0
H570 H 0.64973 0.89871 0.35453 0.0
H571 H 0.66371 0.87386 0.31642 0.0
H572 H 0.60593 0.7715 0.3143 0.0
C573 C 0.59541 0.73697 0.21367 0.0
C574 C 0.64234 0.81504 0.24268 0.0
C575 C 0.5889 0.7201 0.18815 0.0
C576 C 0.63201 0.87596 0.34626 0.0
C577 C 0.64004 0.8618 0.32452 0.0
C578 C 0.6164 0.784 0.2945 0.0
C579 C 0.62522 0.76313 0.21888 0.0
C580 C 0.6303 0.78233 0.24493 0.0
C581 C 0.61785 0.8319 0.314 0.0
C582 C 0.6259 0.81608 0.29153 0.0
H583 H 0.66058 0.76148 0.15693 0.0
H584 H 0.67188 0.79183 0.20183 0.0
H585 H 0.60968 0.74219 0.27383 0.0
H586 H 0.55555 0.81871 0.35438 0.0
H587 H 0.56958 0.79407 0.31664 0.0
C588 C 0.26379 0.8531 0.16519 0.0
C589 C 0.25887 0.87282 0.14662 0.0
C590 C 0.2472 0.8425 0.19074 0.0
C591 C 0.17371 0.82263 0.22344 0.0
H592 H 0.21583 0.81832 0.29258 0.0
C593 C 0.11022 0.75347 0.3278 0.0
C594 C 0.12083 0.73315 0.33707 0.0
C595 C 0.12618 0.7758 0.3062 0.0
C596 C 0.20377 0.81955 0.27349 0.0
H597 H 0.23289 0.89709 0.14015 0.0
H598 H 0.20327 0.87786 0.18493 0.0
H599 H 0.24663 0.84941 0.25168 0.0
H600 H 0.15593 0.71979 0.33063 0.0
H601 H 0.1835 0.75847 0.29328 0.0
H602 H 0.13078 0.79145 0.24497 0.0
C603 C 0.22019 0.87092 0.17966 0.0
C604 C 0.22136 0.8373 0.25015 0.0
C605 C 0.23716 0.88193 0.15416 0.0
C606 C 0.1472 0.73514 0.32407 0.0
C607 C 0.16319 0.7575 0.30284 0.0
C608 C 0.15603 0.80476 0.2469 0.0
C609 C 0.22513 0.85113 0.19815 0.0
C610 C 0.20651 0.83793 0.22451 0.0
C611 C 0.15313 0.77831 0.29395 0.0
C612 C 0.17101 0.80205 0.27162 0.0
H613 H 0.28039 0.84574 0.15995 0.0
H614 H 0.25111 0.82684 0.2044 0.0
H615 H 0.16174 0.82273 0.20386 0.0
H616 H 0.08993 0.75242 0.33748 0.0
H617 H 0.11792 0.79153 0.29953 0.0
C618 C 0.81839 0.54417 0.84583 0.0
C619 C 0.84972 0.56853 0.84797 0.0
C620 C 0.80115 0.54051 0.82065 0.0
C621 C 0.80036 0.58844 0.76033 0.0
H622 H 0.73967 0.5086 0.72577 0.0
C623 C 0.72416 0.54464 0.64922 0.0
C624 C 0.71416 0.56679 0.64836 0.0
C625 C 0.73831 0.54124 0.67413 0.0
C626 C 0.75666 0.53103 0.73516 0.0
H627 H 0.88816 0.60685 0.82502 0.0
H628 H 0.8584 0.60017 0.78116 0.0
H629 H 0.7706 0.50913 0.76752 0.0
H630 H 0.70922 0.60125 0.67326 0.0
H631 H 0.7333 0.59498 0.71661 0.0
H632 H 0.78708 0.6105 0.72803 0.0
C633 C 0.84684 0.58438 0.79903 0.0
C634 C 0.77414 0.53133 0.75913 0.0
C635 C 0.86393 0.58812 0.82413 0.0
C636 C 0.71709 0.58429 0.67316 0.0
C637 C 0.731 0.58079 0.69797 0.0
C638 C 0.78296 0.58814 0.73655 0.0
C639 C 0.81506 0.56112 0.79727 0.0
C640 C 0.79627 0.5601 0.77186 0.0
C641 C 0.74255 0.5599 0.6985 0.0
C642 C 0.76083 0.55949 0.72375 0.0
H643 H 0.8069 0.52872 0.86392 0.0
H644 H 0.77665 0.52245 0.81994 0.0
H645 H 0.81686 0.61098 0.76988 0.0
H646 H 0.72213 0.53083 0.63037 0.0
H647 H 0.74709 0.52503 0.67391 0.0
C648 C 0.37536 0.25066 0.83288 0.0
C649 C 0.40436 0.27455 0.84343 0.0
C650 C 0.37392 0.2334 0.80854 0.0
C651 C 0.41534 0.23426 0.74393 0.0
H652 H 0.37395 0.14348 0.75402 0.0
C653 C 0.42432 0.15428 0.65891 0.0
C654 C 0.39749 0.12487 0.65368 0.0
C655 C 0.42542 0.17274 0.68217 0.0
C656 C 0.38517 0.16872 0.7506 0.0
H657 H 0.45437 0.30024 0.83623 0.0
H658 H 0.45172 0.27054 0.79322 0.0
H659 H 0.37374 0.17637 0.79297 0.0
H660 H 0.35098 0.09143 0.66887 0.0
H661 H 0.35237 0.12394 0.7086 0.0
H662 H 0.42618 0.22678 0.70138 0.0
C663 C 0.43023 0.265 0.80394 0.0
C664 C 0.38508 0.18751 0.77296 0.0
C665 C 0.43173 0.28185 0.82856 0.0
C666 C 0.37202 0.11399 0.67236 0.0
C667 C 0.37292 0.1326 0.69532 0.0
C668 C 0.41501 0.21544 0.72136 0.0
C669 C 0.40139 0.24021 0.79411 0.0
C670 C 0.40027 0.22041 0.76984 0.0
C671 C 0.39955 0.1623 0.70044 0.0
C672 C 0.40005 0.18242 0.72447 0.0
H673 H 0.35393 0.24451 0.84403 0.0
H674 H 0.35141 0.21445 0.80119 0.0
H675 H 0.42709 0.25963 0.74106 0.0
H676 H 0.44438 0.16316 0.64493 0.0
H677 H 0.44657 0.19518 0.6858 0.0
C678 C 0.73728 0.16646 0.8494 0.0
C679 C 0.7243 0.13357 0.84863 0.0
C680 C 0.75555 0.18523 0.82665 0.0
C681 C 0.80089 0.18374 0.76427 0.0
H682 H 0.79311 0.25456 0.73797 0.0
C683 C 0.87511 0.26341 0.67081 0.0
C684 C 0.85904 0.27138 0.65055 0.0
C685 C 0.8612 0.24957 0.69702 0.0
C686 C 0.79547 0.23478 0.74498 0.0
H687 H 0.71961 0.0944 0.82335 0.0
H688 H 0.75061 0.12695 0.7833 0.0
H689 H 0.76279 0.2236 0.779 0.0
H690 H 0.81604 0.27159 0.64197 0.0
H691 H 0.79161 0.24693 0.68718 0.0
H692 H 0.83244 0.19399 0.72944 0.0
C693 C 0.74746 0.13843 0.80173 0.0
C694 C 0.77836 0.21725 0.76873 0.0
C695 C 0.72943 0.11973 0.82455 0.0
C696 C 0.82909 0.26581 0.65718 0.0
C697 C 0.81515 0.25186 0.68324 0.0
C698 C 0.81784 0.20114 0.74041 0.0
C699 C 0.761 0.17144 0.80261 0.0
C700 C 0.78053 0.19124 0.77841 0.0
C701 C 0.83089 0.24331 0.70339 0.0
C702 C 0.815 0.22659 0.73023 0.0
H703 H 0.73392 0.17778 0.86784 0.0
H704 H 0.7659 0.2106 0.82817 0.0
H705 H 0.80357 0.16421 0.77148 0.0
H706 H 0.89829 0.26757 0.66633 0.0
H707 H 0.87413 0.24365 0.71223 0.0
C708 C 0.07351 0.47496 0.04565 0.0
C709 C 0.06382 0.45462 0.06948 0.0
C710 C 0.05642 0.48896 0.03662 0.0
C711 C 0.97725 0.47775 0.03943 0.0
H712 H 0.01859 0.56081 0.00428 0.0
C713 C 0.91306 0.53897 0.9885 0.0
C714 C 0.9232 0.55043 0.96055 0.0
C715 C 0.92918 0.52793 0.00528 0.0
C716 C 0.00676 0.5376 0.0141 0.0
H717 H 0.02927 0.43381 0.1032 0.0
H718 H -0.00037 0.45878 0.08768 0.0
H719 H 0.04971 0.5419 0.02878 0.0
H720 H 0.95783 0.55894 0.92814 0.0
H721 H 0.98596 0.54007 0.95746 0.0
H722 H 0.93426 0.47363 0.02445 0.0
C723 C 0.02015 0.46346 0.07569 0.0
C724 C 0.02454 0.52671 0.02803 0.0
C725 C 0.03723 0.44932 0.08468 0.0
C726 C 0.94938 0.55021 0.94956 0.0
C727 C 0.96566 0.53966 0.96641 0.0
C728 C 0.95941 0.48883 0.02571 0.0
C729 C 0.02934 0.48312 0.05131 0.0
C730 C 0.0101 0.49629 0.04011 0.0
C731 C 0.95595 0.52874 0.9945 0.0
C732 C 0.97413 0.51848 0.01222 0.0
H733 H 0.09387 0.47948 0.03347 0.0
H734 H 0.06393 0.50354 0.01747 0.0
H735 H 0.96537 0.4541 0.0483 0.0
H736 H 0.89297 0.5389 0.99751 0.0
H737 H 0.92125 0.51956 0.0269 0.0
C738 C 0.51171 0.58885 0.07105 0.0
C739 C 0.538 0.59946 0.08906 0.0
C740 C 0.50022 0.56071 0.05589 0.0
C741 C 0.52983 0.51296 0.02501 0.0
H742 H 0.44289 0.45703 0.00415 0.0
C743 C 0.48457 0.39878 0.95895 0.0
C744 C 0.4611 0.39201 0.9384 0.0
C745 C 0.49534 0.42502 0.97676 0.0
C746 C 0.46728 0.47274 0.00957 0.0
H747 H 0.5713 0.58782 0.1074 0.0
H748 H 0.55082 0.53813 0.08116 0.0
H749 H 0.45628 0.49741 0.0408 0.0
H750 H 0.43145 0.40793 0.91919 0.0
H751 H 0.45037 0.4541 0.9505 0.0
H752 H 0.54075 0.48813 0.99383 0.0
C753 C 0.53952 0.55196 0.07835 0.0
C754 C 0.47492 0.49567 0.03064 0.0
C755 C 0.55102 0.58018 0.09359 0.0
C756 C 0.44976 0.41284 0.93475 0.0
C757 C 0.46029 0.43896 0.95284 0.0
C758 C 0.52216 0.4899 0.00407 0.0
C759 C 0.5148 0.54263 0.05851 0.0
C760 C 0.50629 0.51619 0.03841 0.0
C761 C 0.48255 0.44474 0.97448 0.0
C762 C 0.49085 0.46979 0.996 0.0
H763 H 0.50114 0.60324 0.06732 0.0
H764 H 0.48124 0.55428 0.0407 0.0
H765 H 0.55427 0.52886 0.03008 0.0
H766 H 0.49362 0.38297 0.96214 0.0
H767 H 0.51242 0.42888 0.99333 0.0
C768 C 0.3938 0.92134 0.0402 0.0
C769 C 0.3856 0.93031 0.06579 0.0
C770 C 0.42361 0.93983 0.0288 0.0
C771 C 0.50449 -0.00343 0.04368 0.0
H772 H 0.50516 0.02459 0.96537 0.0
C773 C 0.61998 0.07381 0.98243 0.0
C774 C 0.61994 0.06523 0.95364 0.0
C775 C 0.59195 0.06109 0.99766 0.0
C776 C 0.50545 0.01676 0.98714 0.0
H777 H 0.40275 0.96451 0.10054 0.0
H778 H 0.45543 -0.00357 0.08083 0.0
H779 H 0.45558 0.99306 0.98992 0.0
H780 H 0.59057 0.03706 0.91809 0.0
H781 H 0.54217 0.0144 0.9446 0.0
H782 H 0.55425 0.01894 0.04054 0.0
C783 C 0.43847 0.97534 0.06949 0.0
C784 C 0.47706 -0.00117 0.00118 0.0
C785 C 0.4084 0.9571 0.0807 0.0
C786 C 0.59139 0.04433 0.94019 0.0
C787 C 0.56353 0.03146 0.95541 0.0
C788 C 0.53298 0.01414 0.02945 0.0
C789 C 0.44595 0.96728 0.04305 0.0
C790 C 0.47632 0.98814 0.02934 0.0
C791 C 0.56343 0.03943 0.9844 0.0
C792 C 0.53372 0.0239 0.00078 0.0
H793 H 0.37688 0.9007 0.02833 0.0
H794 H 0.42907 0.93299 0.00853 0.0
H795 H 0.50437 0.98853 0.06545 0.0
H796 H 0.64167 0.08993 0.99333 0.0
H797 H 0.59268 0.06806 0.01984 0.0
C798 C 0.51119 0.91367 0.45559 0.0
C799 C 0.53048 0.92378 0.4313 0.0
C800 C 0.50013 0.93233 0.46702 0.0
C801 C 0.48097 0.99303 0.454 0.0
H802 H 0.50376 0.01412 0.53427 0.0
C803 C 0.4442 0.06974 0.5183 0.0
C804 C 0.43357 0.05918 0.54633 0.0
C805 C 0.45914 0.05687 0.50275 0.0
C806 C 0.49693 0.00826 0.51195 0.0
H807 H 0.55146 0.96026 0.39866 0.0
H808 H 0.53123 0.99264 0.41844 0.0
H809 H 0.52137 0.98285 0.50869 0.0
H810 H 0.43054 0.02718 0.58017 0.0
H811 H 0.45572 0.00432 0.55306 0.0
H812 H 0.45528 0.01716 0.45755 0.0
C813 C 0.52522 0.97045 0.42874 0.0
C814 C 0.50715 0.99049 0.49731 0.0
C815 C 0.53674 0.95194 0.41749 0.0
C816 C 0.43868 0.03602 0.5587 0.0
C817 C 0.45333 0.02302 0.54316 0.0
C818 C 0.47029 0.01048 0.4688 0.0
C819 C 0.50768 0.9612 0.45411 0.0
C820 C 0.49877 0.98223 0.46842 0.0
C821 C 0.46358 0.03309 0.51492 0.0
C822 C 0.47763 0.01772 0.49814 0.0
H823 H 0.50564 0.89195 0.46655 0.0
H824 H 0.48623 0.92456 0.48639 0.0
H825 H 0.47429 0.98688 0.43167 0.0
H826 H 0.44059 0.08761 0.50822 0.0
H827 H 0.46708 0.06543 0.48119 0.0
C828 C 0.93953 0.40496 0.55473 0.0
C829 C 0.91123 0.37839 0.54641 0.0
C830 C 0.95319 0.43183 0.5374 0.0
C831 C 0.95377 0.4559 0.46199 0.0
H832 H 0.00469 0.53962 0.49437 0.0
C833 C 0.01884 0.57704 0.40034 0.0
C834 C 0.05038 0.59559 0.40864 0.0
C835 C -0.00061 0.54849 0.41442 0.0
C836 C 0.99049 0.51631 0.48511 0.0
H837 H 0.87404 0.35947 0.51444 0.0
H838 H 0.89737 0.40685 0.48463 0.0
H839 H 0.97324 0.49522 0.52612 0.0
H840 H 0.08702 0.59761 0.43607 0.0
H841 H 0.053 0.54812 0.46072 0.0
H842 H 0.97108 0.47757 0.42084 0.0
C843 C 0.9095 0.40666 0.50405 0.0
C844 C 0.97261 0.4909 0.50324 0.0
C845 C 0.89602 0.37964 0.52123 0.0
C846 C 0.06271 0.584 0.42949 0.0
C847 C 0.0433 0.55579 0.44366 0.0
C848 C 0.97138 0.48151 0.44378 0.0
C849 C 0.93859 0.43279 0.5116 0.0
C850 C 0.95465 0.46026 0.49199 0.0
C851 C 0.01134 0.53847 0.43696 0.0
C852 C 0.99043 0.51169 0.45536 0.0
H853 H 0.95187 0.40451 0.57392 0.0
H854 H 0.97585 0.45132 0.54368 0.0
H855 H 0.94047 0.43256 0.45263 0.0
H856 H 0.00875 0.58544 0.38432 0.0
H857 H 0.97475 0.53529 0.40892 0.0
C858 C 0.40089 0.47692 0.44595 0.0
C859 C 0.38559 0.44923 0.42943 0.0
C860 C 0.43197 0.48906 0.45453 0.0
C861 C 0.48579 0.46323 0.47417 0.0
H862 H 0.55003 0.55151 0.46792 0.0
C863 C 0.59376 0.52639 0.54856 0.0
C864 C 0.62282 0.54513 0.53538 0.0
C865 C 0.5663 0.51268 0.53216 0.0
C866 C 0.53238 0.52674 0.46952 0.0
H867 H 0.3908 0.41277 0.40848 0.0
H868 H 0.44495 0.43364 0.42415 0.0
H869 H 0.49902 0.53267 0.44464 0.0
H870 H 0.64618 0.56398 0.49477 0.0
H871 H 0.59783 0.5406 0.46612 0.0
H872 H 0.51861 0.45759 0.50014 0.0
C873 C 0.43295 0.44606 0.43013 0.0
C874 C 0.50326 0.51606 0.4564 0.0
C875 C 0.40207 0.43425 0.42111 0.0
C876 C 0.62405 0.54946 0.50542 0.0
C877 C 0.59649 0.53627 0.48908 0.0
C878 C 0.51468 0.47403 0.48773 0.0
C879 C 0.44803 0.47337 0.44715 0.0
C880 C 0.47965 0.48429 0.45889 0.0
C881 C 0.56741 0.518 0.50239 0.0
C882 C 0.53806 0.50592 0.48576 0.0
H883 H 0.38868 0.4889 0.45264 0.0
H884 H 0.44309 0.51004 0.46785 0.0
H885 H 0.46783 0.43867 0.47655 0.0
H886 H 0.59219 0.52269 0.57162 0.0
H887 H 0.54409 0.49886 0.5429 0.0
loop_
_geom_bond_atom_site_label_1
_geom_bond_atom_site_label_2
_geom_bond_distance
_geom_bond_site_symmetry_2
_ccdc_geom_bond_type
Co0 O1 2.216 . S
Co0 O2 2.091 . S
Co0 O4 2.004 . S
Co0 O10 2.021 . S
Co0 O12 2.137 . S
Co0 O13 2.244 . S
O1 Co0 2.216 . S
O1 C8 1.247 . S
O2 Co0 2.091 . S
O2 C8 1.261 . S
C3 O12 1.247 . S
C3 O13 1.272 . S
O4 Co0 2.004 . S
O4 C9 1.259 . S
Co5 O6 2.061 . S
Co5 O11 2.052 . S
Co5 O13 2.135 . S
O6 Co5 2.061 . S
O6 C9 1.235 . S
C7 O10 1.238 . S
C7 O11 1.241 . S
C8 O1 1.247 . S
C8 O2 1.261 . S
C9 O4 1.259 . S
C9 O6 1.235 . S
O10 Co0 2.021 . S
O10 C7 1.238 . S
O11 Co5 2.052 . S
O11 C7 1.241 . S
O12 Co0 2.137 . S
O12 C3 1.247 . S
O13 Co0 2.244 . S
O13 C3 1.272 . S
O13 Co5 2.135 . S
Co14 O15 2.216 . S
Co14 O16 2.091 . S
Co14 O18 2.004 . S
Co14 O24 2.021 . S
Co14 O26 2.137 . S
Co14 O27 2.244 . S
O15 Co14 2.216 . S
O15 C22 1.247 . S
O16 Co14 2.091 . S
O16 C22 1.261 . S
C17 O26 1.247 . S
C17 O27 1.272 . S
O18 Co14 2.004 . S
O18 C23 1.259 . S
Co19 O20 2.061 . S
Co19 O25 2.052 . S
Co19 O27 2.135 . S
O20 Co19 2.061 . S
O20 C23 1.235 . S
C21 O24 1.238 . S
C21 O25 1.241 . S
C22 O15 1.247 . S
C22 O16 1.261 . S
C23 O18 1.259 . S
C23 O20 1.235 . S
O24 Co14 2.021 . S
O24 C21 1.238 . S
O25 Co19 2.052 . S
O25 C21 1.241 . S
O26 Co14 2.137 . S
O26 C17 1.247 . S
O27 Co14 2.244 . S
O27 C17 1.272 . S
O27 Co19 2.135 . S
Co28 O29 2.216 . S
Co28 O30 2.091 . S
Co28 O32 2.004 . S
Co28 O38 2.021 . S
Co28 O40 2.137 . S
Co28 O41 2.244 . S
O29 Co28 2.216 . S
O29 C36 1.247 . S
O30 Co28 2.091 . S
O30 C36 1.261 . S
C31 O40 1.247 . S
C31 O41 1.272 . S
O32 Co28 2.004 . S
O32 C37 1.259 . S
Co33 O34 2.061 . S
Co33 O39 2.052 . S
Co33 O41 2.135 . S
O34 Co33 2.061 . S
O34 C37 1.235 . S
C35 O38 1.238 . S
C35 O39 1.241 . S
C36 O29 1.247 . S
C36 O30 1.261 . S
C37 O32 1.259 . S
C37 O34 1.235 . S
O38 Co28 2.021 . S
O38 C35 1.238 . S
O39 Co33 2.052 . S
O39 C35 1.241 . S
O40 Co28 2.137 . S
O40 C31 1.247 . S
O41 Co28 2.244 . S
O41 C31 1.272 . S
O41 Co33 2.135 . S
Co42 O43 2.216 . S
Co42 O44 2.091 . S
Co42 O46 2.004 . S
Co42 O52 2.021 . S
Co42 O54 2.137 . S
Co42 O55 2.244 . S
O43 Co42 2.216 . S
O43 C50 1.247 . S
O44 Co42 2.091 . S
O44 C50 1.261 . S
C45 O54 1.247 . S
C45 O55 1.272 . S
O46 Co42 2.004 . S
O46 C51 1.259 . S
Co47 O48 2.061 . S
Co47 O53 2.052 . S
Co47 O55 2.135 . S
O48 Co47 2.061 . S
O48 C51 1.235 . S
C49 O52 1.238 . S
C49 O53 1.241 . S
C50 O43 1.247 . S
C50 O44 1.261 . S
C51 O46 1.259 . S
C51 O48 1.235 . S
O52 Co42 2.021 . S
O52 C49 1.238 . S
O53 Co47 2.052 . S
O53 C49 1.241 . S
O54 Co42 2.137 . S
O54 C45 1.247 . S
O55 Co42 2.244 . S
O55 C45 1.272 . S
O55 Co47 2.135 . S
Co56 O57 2.216 . S
Co56 O58 2.091 . S
Co56 O60 2.004 . S
Co56 O66 2.021 . S
Co56 O68 2.137 . S
Co56 O69 2.244 . S
O57 Co56 2.216 . S
O57 C64 1.247 . S
O58 Co56 2.091 . S
O58 C64 1.261 . S
C59 O68 1.247 . S
C59 O69 1.272 . S
O60 Co56 2.004 . S
O60 C65 1.259 . S
Co61 O62 2.061 . S
Co61 O67 2.052 . S
Co61 O69 2.135 . S
O62 Co61 2.061 . S
O62 C65 1.235 . S
C63 O66 1.238 . S
C63 O67 1.241 . S
C64 O57 1.247 . S
C64 O58 1.261 . S
C65 O60 1.259 . S
C65 O62 1.235 . S
O66 Co56 2.021 . S
O66 C63 1.238 . S
O67 Co61 2.052 . S
O67 C63 1.241 . S
O68 Co56 2.137 . S
O68 C59 1.247 . S
O69 Co56 2.244 . S
O69 C59 1.272 . S
O69 Co61 2.135 . S
Co70 O71 2.216 . S
Co70 O72 2.091 . S
Co70 O74 2.004 . S
Co70 O80 2.021 . S
Co70 O82 2.137 . S
Co70 O83 2.244 . S
O71 Co70 2.216 . S
O71 C78 1.247 . S
O72 Co70 2.091 . S
O72 C78 1.261 . S
C73 O82 1.247 . S
C73 O83 1.272 . S
O74 Co70 2.004 . S
O74 C79 1.259 . S
Co75 O76 2.061 . S
Co75 O81 2.052 . S
Co75 O83 2.135 . S
O76 Co75 2.061 . S
O76 C79 1.235 . S
C77 O80 1.238 . S
C77 O81 1.241 . S
C78 O71 1.247 . S
C78 O72 1.261 . S
C79 O74 1.259 . S
C79 O76 1.235 . S
O80 Co70 2.021 . S
O80 C77 1.238 . S
O81 Co75 2.052 . S
O81 C77 1.241 . S
O82 Co70 2.137 . S
O82 C73 1.247 . S
O83 Co70 2.244 . S
O83 C73 1.272 . S
O83 Co75 2.135 . S
Co84 O85 2.216 . S
Co84 O86 2.091 . S
Co84 O88 2.004 . S
Co84 O94 2.021 . S
Co84 O96 2.137 . S
Co84 O97 2.244 . S
O85 Co84 2.216 . S
O85 C92 1.247 . S
O86 Co84 2.091 . S
O86 C92 1.261 . S
C87 O96 1.247 . S
C87 O97 1.272 . S
O88 Co84 2.004 . S
O88 C93 1.259 . S
Co89 O90 2.061 . S
Co89 O95 2.052 . S
Co89 O97 2.135 . S
O90 Co89 2.061 . S
O90 C93 1.235 . S
C91 O94 1.238 . S
C91 O95 1.241 . S
C92 O85 1.247 . S
C92 O86 1.261 . S
C93 O88 1.259 . S
C93 O90 1.235 . S
O94 Co84 2.021 . S
O94 C91 1.238 . S
O95 Co89 2.052 . S
O95 C91 1.241 . S
O96 Co84 2.137 . S
O96 C87 1.247 . S
O97 Co84 2.244 . S
O97 C87 1.272 . S
O97 Co89 2.135 . S
Co98 O99 2.216 . S
Co98 O100 2.091 . S
Co98 O102 2.004 . S
Co98 O108 2.021 . S
Co98 O110 2.137 . S
Co98 O111 2.244 . S
O99 Co98 2.216 . S
O99 C106 1.247 . S
O100 Co98 2.091 . S
O100 C106 1.261 . S
C101 O110 1.247 . S
C101 O111 1.272 . S
O102 Co98 2.004 . S
O102 C107 1.259 . S
Co103 O104 2.061 . S
Co103 O109 2.052 . S
Co103 O111 2.135 . S
O104 Co103 2.061 . S
O104 C107 1.235 . S
C105 O108 1.238 . S
C105 O109 1.241 . S
C106 O99 1.247 . S
C106 O100 1.261 . S
C107 O102 1.259 . S
C107 O104 1.235 . S
O108 Co98 2.021 . S
O108 C105 1.238 . S
O109 Co103 2.052 . S
O109 C105 1.241 . S
O110 Co98 2.137 . S
O110 C101 1.247 . S
O111 Co98 2.244 . S
O111 C101 1.272 . S
O111 Co103 2.135 . S
Co112 O113 2.216 . S
Co112 O114 2.091 . S
Co112 O116 2.004 . S
Co112 O122 2.021 . S
Co112 O124 2.137 . S
Co112 O125 2.244 . S
O113 Co112 2.216 . S
O113 C120 1.247 . S
O114 Co112 2.091 . S
O114 C120 1.261 . S
C115 O124 1.247 . S
C115 O125 1.272 . S
O116 Co112 2.004 . S
O116 C121 1.259 . S
Co117 O118 2.061 . S
Co117 O123 2.052 . S
Co117 O125 2.135 . S
O118 Co117 2.061 . S
O118 C121 1.235 . S
C119 O122 1.238 . S
C119 O123 1.241 . S
C120 O113 1.247 . S
C120 O114 1.261 . S
C121 O116 1.259 . S
C121 O118 1.235 . S
O122 Co112 2.021 . S
O122 C119 1.238 . S
O123 Co117 2.052 . S
O123 C119 1.241 . S
O124 Co112 2.137 . S
O124 C115 1.247 . S
O125 Co112 2.244 . S
O125 C115 1.272 . S
O125 Co117 2.135 . S
Co126 O127 2.216 . S
Co126 O128 2.091 . S
Co126 O130 2.004 . S
Co126 O136 2.021 . S
Co126 O138 2.137 . S
Co126 O139 2.244 . S
O127 Co126 2.216 . S
O127 C134 1.247 . S
O128 Co126 2.091 . S
O128 C134 1.261 . S
C129 O138 1.247 . S
C129 O139 1.272 . S
O130 Co126 2.004 . S
O130 C135 1.259 . S
Co131 O132 2.061 . S
Co131 O137 2.052 . S
Co131 O139 2.135 . S
O132 Co131 2.061 . S
O132 C135 1.235 . S
C133 O136 1.238 . S
C133 O137 1.241 . S
C134 O127 1.247 . S
C134 O128 1.261 . S
C135 O130 1.259 . S
C135 O132 1.235 . S
O136 Co126 2.021 . S
O136 C133 1.238 . S
O137 Co131 2.052 . S
O137 C133 1.241 . S
O138 Co126 2.137 . S
O138 C129 1.247 . S
O139 Co126 2.244 . S
O139 C129 1.272 . S
O139 Co131 2.135 . S
Co140 O141 2.216 . S
Co140 O142 2.091 . S
Co140 O144 2.004 . S
Co140 O150 2.021 . S
Co140 O152 2.137 . S
Co140 O153 2.244 . S
O141 Co140 2.216 . S
O141 C148 1.247 . S
O142 Co140 2.091 . S
O142 C148 1.261 . S
C143 O152 1.247 . S
C143 O153 1.272 . S
O144 Co140 2.004 . S
O144 C149 1.259 . S
Co145 O146 2.061 . S
Co145 O151 2.052 . S
Co145 O153 2.135 . S
O146 Co145 2.061 . S
O146 C149 1.235 . S
C147 O150 1.238 . S
C147 O151 1.241 . S
C148 O141 1.247 . S
C148 O142 1.261 . S
C149 O144 1.259 . S
C149 O146 1.235 . S
O150 Co140 2.021 . S
O150 C147 1.238 . S
O151 Co145 2.052 . S
O151 C147 1.241 . S
O152 Co140 2.137 . S
O152 C143 1.247 . S
O153 Co140 2.244 . S
O153 C143 1.272 . S
O153 Co145 2.135 . S
Co154 O155 2.216 . S
Co154 O156 2.091 . S
Co154 O158 2.004 . S
Co154 O164 2.021 . S
Co154 O166 2.137 . S
Co154 O167 2.244 . S
O155 Co154 2.216 . S
O155 C162 1.247 . S
O156 Co154 2.091 . S
O156 C162 1.261 . S
C157 O166 1.247 . S
C157 O167 1.272 . S
O158 Co154 2.004 . S
O158 C163 1.259 . S
Co159 O160 2.061 . S
Co159 O165 2.052 . S
Co159 O167 2.135 . S
O160 Co159 2.061 . S
O160 C163 1.235 . S
C161 O164 1.238 . S
C161 O165 1.241 . S
C162 O155 1.247 . S
C162 O156 1.261 . S
C163 O158 1.259 . S
C163 O160 1.235 . S
O164 Co154 2.021 . S
O164 C161 1.238 . S
O165 Co159 2.052 . S
O165 C161 1.241 . S
O166 Co154 2.137 . S
O166 C157 1.247 . S
O167 Co154 2.244 . S
O167 C157 1.272 . S
O167 Co159 2.135 . S
C168 C169 1.349 . S
C168 C170 1.327 . S
C168 H193 0.950 . S
C169 C168 1.349 . S
C169 C185 1.349 . S
C170 C168 1.327 . S
C170 C189 1.429 . S
C170 H194 0.950 . S
C171 C188 1.574 . S
C171 C190 1.368 1_556 S
C171 H195 0.949 . S
H172 C176 0.945 1_554 S
C173 C174 1.349 . S
C173 C175 1.327 . S
C173 H196 0.950 . S
C174 C173 1.349 . S
C174 C186 1.349 . S
C175 C173 1.327 . S
C175 C191 1.429 . S
C175 H197 0.950 . S
C176 H172 0.945 1_556 S
C176 C184 1.565 1_556 S
C176 C192 1.381 . S
H177 C185 0.950 . S
H178 C183 0.950 1_556 S
H179 C184 0.949 . S
H180 C186 0.950 . S
H181 C187 0.950 . S
H182 C188 0.949 . S
C183 H178 0.950 1_554 S
C183 C185 1.327 . S
C183 C189 1.429 . S
C184 C176 1.565 1_554 S
C184 H179 0.949 . S
C184 C190 1.368 . S
C185 C169 1.349 . S
C185 H177 0.950 . S
C185 C183 1.327 . S
C186 C174 1.349 . S
C186 H180 0.950 . S
C186 C187 1.327 . S
C187 H181 0.950 . S
C187 C186 1.327 . S
C187 C191 1.429 . S
C188 C171 1.574 . S
C188 H182 0.949 . S
C188 C192 1.368 . S
C189 C170 1.429 . S
C189 C183 1.429 . S
C189 C190 1.523 . S
C190 C171 1.368 1_554 S
C190 C184 1.368 . S
C190 C189 1.523 . S
C191 C175 1.429 . S
C191 C187 1.429 . S
C191 C192 1.523 . S
C192 C176 1.381 . S
C192 C188 1.368 . S
C192 C191 1.523 . S
H193 C168 0.950 . S
H194 C170 0.950 . S
H195 C171 0.949 . S
H196 C173 0.950 . S
H197 C175 0.950 . S
C198 C199 1.349 . S
C198 C200 1.327 . S
C198 H223 0.950 . S
C199 C198 1.349 . S
C199 C215 1.349 . S
C200 C198 1.327 . S
C200 C219 1.429 . S
C200 H224 0.950 . S
C201 C218 1.574 . S
C201 C220 1.368 1_556 S
C201 H225 0.949 . S
H202 C206 0.954 . S
C203 C204 1.349 1_565 S
C203 C205 1.327 . S
C203 H226 0.950 . S
C204 C203 1.349 1_545 S
C204 C216 1.349 . S
C205 C203 1.327 . S
C205 C221 1.429 . S
C205 H227 0.950 . S
C206 H202 0.954 . S
C206 C214 1.584 . S
C206 C222 1.354 1_554 S
H207 C215 0.950 . S
H208 C213 0.960 . S
H209 C214 0.949 . S
H210 C216 0.950 . S
H211 C217 0.950 . S
H212 C218 0.949 . S
C213 H208 0.960 . S
C213 C215 1.327 . S
C213 C219 1.429 . S
C214 C206 1.584 . S
C214 H209 0.949 . S
C214 C220 1.368 . S
C215 C199 1.349 . S
C215 H207 0.950 . S
C215 C213 1.327 . S
C216 C204 1.349 . S
C216 H210 0.950 . S
C216 C217 1.327 1_545 S
C217 H211 0.950 . S
C217 C216 1.327 1_565 S
C217 C221 1.429 . S
C218 C201 1.574 . S
C218 H212 0.949 . S
C218 C222 1.368 . S
C219 C200 1.429 . S
C219 C213 1.429 . S
C219 C220 1.523 . S
C220 C201 1.368 1_554 S
C220 C214 1.368 . S
C220 C219 1.523 . S
C221 C205 1.429 . S
C221 C217 1.429 . S
C221 C222 1.523 . S
C222 C206 1.354 1_556 S
C222 C218 1.368 . S
C222 C221 1.523 . S
H223 C198 0.950 . S
H224 C200 0.950 . S
H225 C201 0.949 . S
H226 C203 0.950 . S
H227 C205 0.950 . S
C228 C229 1.349 . S
C228 C230 1.327 . S
C228 H253 0.950 . S
C229 C228 1.349 . S
C229 C245 1.349 . S
C230 C228 1.327 . S
C230 C249 1.429 . S
C230 H254 0.950 . S
C231 C248 1.574 1_554 S
C231 C250 1.368 . S
C231 H255 0.949 . S
H232 C236 0.949 . S
C233 C234 1.349 . S
C233 C235 1.327 1_655 S
C233 H256 0.950 . S
C234 C233 1.349 . S
C234 C246 1.349 1_655 S
C235 C233 1.327 1_455 S
C235 C251 1.429 . S
C235 H257 0.950 . S
C236 H232 0.949 . S
C236 C244 1.574 . S
C236 C252 1.368 . S
H237 C245 0.950 . S
H238 C243 0.950 . S
H239 C244 0.949 . S
H240 C246 0.950 . S
H241 C247 0.950 . S
H242 C248 0.949 . S
C243 H238 0.950 . S
C243 C245 1.327 . S
C243 C249 1.429 . S
C244 C236 1.574 . S
C244 H239 0.949 . S
C244 C250 1.368 1_556 S
C245 C229 1.349 . S
C245 H237 0.950 . S
C245 C243 1.327 . S
C246 C234 1.349 1_455 S
C246 H240 0.950 . S
C246 C247 1.327 . S
C247 H241 0.950 . S
C247 C246 1.327 . S
C247 C251 1.429 . S
C248 C231 1.574 1_556 S
C248 H242 0.949 . S
C248 C252 1.368 . S
C249 C230 1.429 . S
C249 C243 1.429 . S
C249 C250 1.523 . S
C250 C231 1.368 . S
C250 C244 1.368 1_554 S
C250 C249 1.523 . S
C251 C235 1.429 . S
C251 C247 1.429 . S
C251 C252 1.523 . S
C252 C236 1.368 . S
C252 C248 1.368 . S
C252 C251 1.523 . S
H253 C228 0.950 . S
H254 C230 0.950 . S
H255 C231 0.949 . S
H256 C233 0.950 . S
H257 C235 0.950 . S
C258 C259 1.349 . S
C258 C260 1.327 . S
C258 H283 0.950 . S
C259 C258 1.349 . S
C259 C275 1.349 . S
C260 C258 1.327 . S
C260 C279 1.429 . S
C260 H284 0.950 . S
C261 C278 1.574 . S
C261 C280 1.368 . S
C261 H285 0.949 . S
H262 C266 0.949 . S
C263 C264 1.349 . S
C263 C265 1.327 . S
C263 H286 0.950 . S
C264 C263 1.349 . S
C264 C276 1.349 . S
C265 C263 1.327 . S
C265 C281 1.429 . S
C265 H287 0.950 . S
C266 H262 0.949 . S
C266 C274 1.574 . S
C266 C282 1.368 . S
H267 C275 0.950 . S
H268 C273 0.950 . S
H269 C274 0.949 . S
H270 C276 0.950 . S
H271 C277 0.950 . S
H272 C278 0.949 . S
C273 H268 0.950 . S
C273 C275 1.327 . S
C273 C279 1.429 . S
C274 C266 1.574 . S
C274 H269 0.949 . S
C274 C280 1.368 . S
C275 C259 1.349 . S
C275 H267 0.950 . S
C275 C273 1.327 . S
C276 C264 1.349 . S
C276 H270 0.950 . S
C276 C277 1.327 . S
C277 H271 0.950 . S
C277 C276 1.327 . S
C277 C281 1.429 . S
C278 C261 1.574 . S
C278 H272 0.949 . S
C278 C282 1.368 . S
C279 C260 1.429 . S
C279 C273 1.429 . S
C279 C280 1.523 . S
C280 C261 1.368 . S
C280 C274 1.368 . S
C280 C279 1.523 . S
C281 C265 1.429 . S
C281 C277 1.429 . S
C281 C282 1.523 . S
C282 C266 1.368 . S
C282 C278 1.368 . S
C282 C281 1.523 . S
H283 C258 0.950 . S
H284 C260 0.950 . S
H285 C261 0.949 . S
H286 C263 0.950 . S
H287 C265 0.950 . S
C288 C289 1.349 . S
C288 C290 1.327 . S
C288 H313 0.950 . S
C289 C288 1.349 . S
C289 C305 1.349 . S
C290 C288 1.327 . S
C290 C309 1.429 . S
C290 H314 0.950 . S
C291 C308 1.574 . S
C291 C310 1.368 . S
C291 H315 0.949 . S
H292 C296 0.949 . S
C293 C294 1.349 1_565 S
C293 C295 1.327 . S
C293 H316 0.950 . S
C294 C293 1.349 1_545 S
C294 C306 1.349 . S
C295 C293 1.327 . S
C295 C311 1.429 . S
C295 H317 0.950 . S
C296 H292 0.949 . S
C296 C304 1.574 . S
C296 C312 1.368 . S
H297 C305 0.950 . S
H298 C303 0.950 . S
H299 C304 0.949 . S
H300 C306 0.950 . S
H301 C307 0.950 . S
H302 C308 0.949 . S
C303 H298 0.950 . S
C303 C305 1.327 . S
C303 C309 1.429 . S
C304 C296 1.574 . S
C304 H299 0.949 . S
C304 C310 1.368 . S
C305 C289 1.349 . S
C305 H297 0.950 . S
C305 C303 1.327 . S
C306 C294 1.349 . S
C306 H300 0.950 . S
C306 C307 1.327 1_545 S
C307 H301 0.950 . S
C307 C306 1.327 1_565 S
C307 C311 1.429 . S
C308 C291 1.574 . S
C308 H302 0.949 . S
C308 C312 1.368 . S
C309 C290 1.429 . S
C309 C303 1.429 . S
C309 C310 1.523 . S
C310 C291 1.368 . S
C310 C304 1.368 . S
C310 C309 1.523 . S
C311 C295 1.429 . S
C311 C307 1.429 . S
C311 C312 1.523 . S
C312 C296 1.368 . S
C312 C308 1.368 . S
C312 C311 1.523 . S
H313 C288 0.950 . S
H314 C290 0.950 . S
H315 C291 0.949 . S
H316 C293 0.950 . S
H317 C295 0.950 . S
C318 C319 1.349 . S
C318 C320 1.327 1_655 S
C318 H343 0.950 . S
C319 C318 1.349 . S
C319 C335 1.349 1_655 S
C320 C318 1.327 1_455 S
C320 C339 1.429 . S
C320 H344 0.950 . S
C321 C338 1.574 . S
C321 C340 1.368 . S
C321 H345 0.949 . S
H322 C326 0.949 . S
C323 C324 1.349 . S
C323 C325 1.327 . S
C323 H346 0.950 . S
C324 C323 1.349 . S
C324 C336 1.349 . S
C325 C323 1.327 . S
C325 C341 1.429 . S
C325 H347 0.950 . S
C326 H322 0.949 . S
C326 C334 1.574 . S
C326 C342 1.368 . S
H327 C335 0.950 . S
H328 C333 0.950 . S
H329 C334 0.949 . S
H330 C336 0.950 . S
H331 C337 0.950 . S
H332 C338 0.949 . S
C333 H328 0.950 . S
C333 C335 1.327 . S
C333 C339 1.429 . S
C334 C326 1.574 . S
C334 H329 0.949 . S
C334 C340 1.368 . S
C335 C319 1.349 1_455 S
C335 H327 0.950 . S
C335 C333 1.327 . S
C336 C324 1.349 . S
C336 H330 0.950 . S
C336 C337 1.327 . S
C337 H331 0.950 . S
C337 C336 1.327 . S
C337 C341 1.429 . S
C338 C321 1.574 . S
C338 H332 0.949 . S
C338 C342 1.368 . S
C339 C320 1.429 . S
C339 C333 1.429 . S
C339 C340 1.523 . S
C340 C321 1.368 . S
C340 C334 1.368 . S
C340 C339 1.523 . S
C341 C325 1.429 . S
C341 C337 1.429 . S
C341 C342 1.523 . S
C342 C326 1.368 . S
C342 C338 1.368 . S
C342 C341 1.523 . S
H343 C318 0.950 . S
H344 C320 0.950 . S
H345 C321 0.949 . S
H346 C323 0.950 . S
H347 C325 0.950 . S
C348 C349 1.349 . S
C348 C350 1.327 . S
C348 H373 0.950 . S
C349 C348 1.349 . S
C349 C365 1.349 . S
C350 C348 1.327 . S
C350 C369 1.429 . S
C350 H374 0.950 . S
C351 C368 1.574 1_554 S
C351 C370 1.368 . S
C351 H375 0.949 . S
H352 C356 0.949 . S
C353 C354 1.349 . S
C353 C355 1.327 . S
C353 H376 0.950 . S
C354 C353 1.349 . S
C354 C366 1.349 . S
C355 C353 1.327 . S
C355 C371 1.429 . S
C355 H377 0.950 . S
C356 H352 0.949 . S
C356 C364 1.574 1_556 S
C356 C372 1.368 . S
H357 C365 0.950 . S
H358 C363 0.950 . S
H359 C364 0.949 . S
H360 C366 0.950 . S
H361 C367 0.950 . S
H362 C368 0.949 . S
C363 H358 0.950 . S
C363 C365 1.327 . S
C363 C369 1.429 . S
C364 C356 1.574 1_554 S
C364 H359 0.949 . S
C364 C370 1.368 . S
C365 C349 1.349 . S
C365 H357 0.950 . S
C365 C363 1.327 . S
C366 C354 1.349 . S
C366 H360 0.950 . S
C366 C367 1.327 . S
C367 H361 0.950 . S
C367 C366 1.327 . S
C367 C371 1.429 . S
C368 C351 1.574 1_556 S
C368 H362 0.949 . S
C368 C372 1.368 . S
C369 C350 1.429 . S
C369 C363 1.429 . S
C369 C370 1.523 . S
C370 C351 1.368 . S
C370 C364 1.368 . S
C370 C369 1.523 . S
C371 C355 1.429 . S
C371 C367 1.429 . S
C371 C372 1.523 . S
C372 C356 1.368 . S
C372 C368 1.368 . S
C372 C371 1.523 . S
H373 C348 0.950 . S
H374 C350 0.950 . S
H375 C351 0.949 . S
H376 C353 0.950 . S
H377 C355 0.950 . S
C378 C379 1.349 . S
C378 C380 1.327 . S
C378 H403 0.950 . S
C379 C378 1.349 . S
C379 C395 1.349 . S
C380 C378 1.327 . S
C380 C399 1.429 . S
C380 H404 0.950 . S
C381 C398 1.574 . S
C381 C400 1.368 . S
C381 H405 0.949 . S
H382 C386 0.949 . S
C383 C384 1.349 1_545 S
C383 C385 1.327 . S
C383 H406 0.950 1_545 S
C384 C383 1.349 1_565 S
C384 C396 1.315 1_565 S
C385 C383 1.327 . S
C385 C401 1.429 . S
C385 H407 0.950 1_554 S
C386 H382 0.949 . S
C386 C394 1.574 . S
C386 C402 1.368 . S
H387 C395 0.950 . S
H388 C393 0.950 . S
H389 C394 0.949 . S
H390 C396 0.946 1_565 S
H391 C397 0.950 . S
H392 C398 0.949 . S
C393 H388 0.950 . S
C393 C395 1.327 . S
C393 C399 1.429 . S
C394 C386 1.574 . S
C394 H389 0.949 . S
C394 C400 1.368 1_554 S
C395 C379 1.349 . S
C395 H387 0.950 . S
C395 C393 1.327 . S
C396 C384 1.315 1_545 S
C396 H390 0.946 1_545 S
C396 C397 1.367 . S
C397 H391 0.950 . S
C397 C396 1.367 . S
C397 C401 1.429 . S
C398 C381 1.574 . S
C398 H392 0.949 . S
C398 C402 1.368 1_556 S
C399 C380 1.429 . S
C399 C393 1.429 . S
C399 C400 1.523 . S
C400 C381 1.368 . S
C400 C394 1.368 1_556 S
C400 C399 1.523 . S
C401 C385 1.429 . S
C401 C397 1.429 . S
C401 C402 1.523 . S
C402 C386 1.368 . S
C402 C398 1.368 1_554 S
C402 C401 1.523 . S
H403 C378 0.950 . S
H404 C380 0.950 . S
H405 C381 0.949 . S
H406 C383 0.950 1_565 S
H407 C385 0.950 1_556 S
C408 C409 1.349 . S
C408 C410 1.327 1_455 S
C408 H433 0.950 . S
C409 C408 1.349 . S
C409 C425 1.349 1_455 S
C410 C408 1.327 1_655 S
C410 C429 1.429 . S
C410 H434 0.950 1_554 S
C411 C428 1.574 . S
C411 C430 1.368 . S
C411 H435 0.949 . S
H412 C416 0.949 . S
C413 C414 1.349 . S
C413 C415 1.327 . S
C413 H436 0.950 1_556 S
C414 C413 1.349 . S
C414 C426 1.349 . S
C415 C413 1.327 . S
C415 C431 1.429 . S
C415 H437 0.950 1_556 S
C416 H412 0.949 . S
C416 C424 1.574 . S
C416 C432 1.368 . S
H417 C425 0.950 . S
H418 C423 0.950 . S
H419 C424 0.949 . S
H420 C426 0.950 . S
H421 C427 0.950 . S
H422 C428 0.949 . S
C423 H418 0.950 . S
C423 C425 1.327 . S
C423 C429 1.429 . S
C424 C416 1.574 . S
C424 H419 0.949 . S
C424 C430 1.368 1_556 S
C425 C409 1.349 1_655 S
C425 H417 0.950 . S
C425 C423 1.327 . S
C426 C414 1.349 . S
C426 H420 0.950 . S
C426 C427 1.327 . S
C427 H421 0.950 . S
C427 C426 1.327 . S
C427 C431 1.429 . S
C428 C411 1.574 . S
C428 H422 0.949 . S
C428 C432 1.368 1_554 S
C429 C410 1.429 . S
C429 C423 1.429 . S
C429 C430 1.523 . S
C430 C411 1.368 . S
C430 C424 1.368 1_554 S
C430 C429 1.523 . S
C431 C415 1.429 . S
C431 C427 1.429 . S
C431 C432 1.523 . S
C432 C416 1.368 . S
C432 C428 1.368 1_556 S
C432 C431 1.523 . S
H433 C408 0.950 . S
H434 C410 0.950 1_556 S
H435 C411 0.949 . S
H436 C413 0.950 1_554 S
H437 C415 0.950 1_554 S
C438 C439 1.349 . S
C438 C440 1.327 . S
C438 H463 0.950 . S
C439 C438 1.349 . S
C439 C455 1.349 . S
C440 C438 1.327 . S
C440 C459 1.429 . S
C440 H464 0.950 . S
C441 C458 1.574 . S
C441 C460 1.368 . S
C441 H465 0.949 . S
H442 C446 0.949 . S
C443 C444 1.349 . S
C443 C445 1.327 . S
C443 H466 0.950 . S
C444 C443 1.349 . S
C444 C456 1.349 . S
C445 C443 1.327 . S
C445 C461 1.429 . S
C445 H467 0.950 . S
C446 H442 0.949 . S
C446 C454 1.574 . S
C446 C462 1.368 . S
H447 C455 0.950 . S
H448 C453 0.950 . S
H449 C454 0.949 . S
H450 C456 0.950 . S
H451 C457 0.950 . S
H452 C458 0.949 . S
C453 H448 0.950 . S
C453 C455 1.327 . S
C453 C459 1.429 . S
C454 C446 1.574 . S
C454 H449 0.949 . S
C454 C460 1.368 . S
C455 C439 1.349 . S
C455 H447 0.950 . S
C455 C453 1.327 . S
C456 C444 1.349 . S
C456 H450 0.950 . S
C456 C457 1.327 . S
C457 H451 0.950 . S
C457 C456 1.327 . S
C457 C461 1.429 . S
C458 C441 1.574 . S
C458 H452 0.949 . S
C458 C462 1.368 . S
C459 C440 1.429 . S
C459 C453 1.429 . S
C459 C460 1.523 . S
C460 C441 1.368 . S
C460 C454 1.368 . S
C460 C459 1.523 . S
C461 C445 1.429 . S
C461 C457 1.429 . S
C461 C462 1.523 . S
C462 C446 1.368 . S
C462 C458 1.368 . S
C462 C461 1.523 . S
H463 C438 0.950 . S
H464 C440 0.950 . S
H465 C441 0.949 . S
H466 C443 0.950 . S
H467 C445 0.950 . S
C468 C469 1.349 . S
C468 C470 1.327 . S
C468 H493 0.950 . S
C469 C468 1.349 . S
C469 C485 1.349 . S
C470 C468 1.327 . S
C470 C489 1.429 . S
C470 H494 0.950 . S
C471 C488 1.574 . S
C471 C490 1.368 . S
C471 H495 0.949 . S
H472 C476 0.949 . S
C473 C474 1.349 . S
C473 C475 1.327 1_565 S
C473 H496 0.950 . S
C474 C473 1.349 . S
C474 C486 1.349 1_565 S
C475 C473 1.327 1_545 S
C475 C491 1.429 . S
C475 H497 0.950 . S
C476 H472 0.949 . S
C476 C484 1.574 . S
C476 C492 1.368 . S
H477 C485 0.950 . S
H478 C483 0.950 . S
H479 C484 0.949 . S
H480 C486 0.950 . S
H481 C487 0.950 . S
H482 C488 0.949 . S
C483 H478 0.950 . S
C483 C485 1.327 . S
C483 C489 1.429 . S
C484 C476 1.574 . S
C484 H479 0.949 . S
C484 C490 1.368 . S
C485 C469 1.349 . S
C485 H477 0.950 . S
C485 C483 1.327 . S
C486 C474 1.349 1_545 S
C486 H480 0.950 . S
C486 C487 1.327 . S
C487 H481 0.950 . S
C487 C486 1.327 . S
C487 C491 1.429 . S
C488 C471 1.574 . S
C488 H482 0.949 . S
C488 C492 1.368 . S
C489 C470 1.429 . S
C489 C483 1.429 . S
C489 C490 1.523 . S
C490 C471 1.368 . S
C490 C484 1.368 . S
C490 C489 1.523 . S
C491 C475 1.429 . S
C491 C487 1.429 . S
C491 C492 1.523 . S
C492 C476 1.368 . S
C492 C488 1.368 . S
C492 C491 1.523 . S
H493 C468 0.950 . S
H494 C470 0.950 . S
H495 C471 0.949 . S
H496 C473 0.950 . S
H497 C475 0.950 . S
C498 C499 1.349 . S
C498 C500 1.327 1_455 S
C498 H523 0.950 . S
C499 C498 1.349 . S
C499 C515 1.349 1_455 S
C500 C498 1.327 1_655 S
C500 C519 1.429 . S
C500 H524 0.950 . S
C501 C518 1.574 . S
C501 C520 1.368 . S
C501 H525 0.949 . S
H502 C506 0.949 . S
C503 C504 1.349 . S
C503 C505 1.327 . S
C503 H526 0.950 . S
C504 C503 1.349 . S
C504 C516 1.349 . S
C505 C503 1.327 . S
C505 C521 1.429 . S
C505 H527 0.950 . S
C506 H502 0.949 . S
C506 C514 1.574 . S
C506 C522 1.368 . S
H507 C515 0.950 1_455 S
H508 C513 0.950 . S
H509 C514 0.949 . S
H510 C516 0.950 . S
H511 C517 0.950 . S
H512 C518 0.949 . S
C513 H508 0.950 . S
C513 C515 1.327 . S
C513 C519 1.429 . S
C514 C506 1.574 . S
C514 H509 0.949 . S
C514 C520 1.368 . S
C515 C499 1.349 1_655 S
C515 H507 0.950 1_655 S
C515 C513 1.327 . S
C516 C504 1.349 . S
C516 H510 0.950 . S
C516 C517 1.327 . S
C517 H511 0.950 . S
C517 C516 1.327 . S
C517 C521 1.429 . S
C518 C501 1.574 . S
C518 H512 0.949 . S
C518 C522 1.368 . S
C519 C500 1.429 . S
C519 C513 1.429 . S
C519 C520 1.523 . S
C520 C501 1.368 . S
C520 C514 1.368 . S
C520 C519 1.523 . S
C521 C505 1.429 . S
C521 C517 1.429 . S
C521 C522 1.523 . S
C522 C506 1.368 . S
C522 C518 1.368 . S
C522 C521 1.523 . S
H523 C498 0.950 . S
H524 C500 0.950 . S
H525 C501 0.949 . S
H526 C503 0.950 . S
H527 C505 0.950 . S
C528 C529 1.349 . S
C528 C530 1.327 . S
C528 H553 0.950 . S
C529 C528 1.349 . S
C529 C545 1.349 . S
C530 C528 1.327 . S
C530 C549 1.429 . S
C530 H554 0.950 . S
C531 C548 1.574 . S
C531 C550 1.368 . S
C531 H555 0.949 . S
H532 C536 0.949 . S
C533 C534 1.349 . S
C533 C535 1.327 . S
C533 H556 0.950 . S
C534 C533 1.349 . S
C534 C546 1.349 . S
C535 C533 1.327 . S
C535 C551 1.429 . S
C535 H557 0.950 . S
C536 H532 0.949 . S
C536 C544 1.574 . S
C536 C552 1.368 . S
H537 C545 0.950 . S
H538 C543 0.950 . S
H539 C544 0.949 . S
H540 C546 0.950 . S
H541 C547 0.950 . S
H542 C548 0.949 . S
C543 H538 0.950 . S
C543 C545 1.327 . S
C543 C549 1.429 . S
C544 C536 1.574 . S
C544 H539 0.949 . S
C544 C550 1.368 . S
C545 C529 1.349 . S
C545 H537 0.950 . S
C545 C543 1.327 . S
C546 C534 1.349 . S
C546 H540 0.950 . S
C546 C547 1.327 . S
C547 H541 0.950 . S
C547 C546 1.327 . S
C547 C551 1.429 . S
C548 C531 1.574 . S
C548 H542 0.949 . S
C548 C552 1.368 . S
C549 C530 1.429 . S
C549 C543 1.429 . S
C549 C550 1.523 . S
C550 C531 1.368 . S
C550 C544 1.368 . S
C550 C549 1.523 . S
C551 C535 1.429 . S
C551 C547 1.429 . S
C551 C552 1.523 . S
C552 C536 1.368 . S
C552 C548 1.368 . S
C552 C551 1.523 . S
H553 C528 0.950 . S
H554 C530 0.950 . S
H555 C531 0.949 . S
H556 C533 0.950 . S
H557 C535 0.950 . S
C558 C559 1.349 . S
C558 C560 1.327 . S
C558 H583 0.950 . S
C559 C558 1.349 . S
C559 C575 1.349 . S
C560 C558 1.327 . S
C560 C579 1.429 . S
C560 H584 0.950 . S
C561 C578 1.574 . S
C561 C580 1.368 . S
C561 H585 0.949 . S
H562 C566 0.949 . S
C563 C564 1.349 . S
C563 C565 1.327 . S
C563 H586 0.950 . S
C564 C563 1.349 . S
C564 C576 1.349 . S
C565 C563 1.327 . S
C565 C581 1.429 . S
C565 H587 0.950 . S
C566 H562 0.949 . S
C566 C574 1.574 . S
C566 C582 1.368 . S
H567 C575 0.950 . S
H568 C573 0.950 . S
H569 C574 0.949 . S
H570 C576 0.950 . S
H571 C577 0.950 . S
H572 C578 0.949 . S
C573 H568 0.950 . S
C573 C575 1.327 . S
C573 C579 1.429 . S
C574 C566 1.574 . S
C574 H569 0.949 . S
C574 C580 1.368 . S
C575 C559 1.349 . S
C575 H567 0.950 . S
C575 C573 1.327 . S
C576 C564 1.349 . S
C576 H570 0.950 . S
C576 C577 1.327 . S
C577 H571 0.950 . S
C577 C576 1.327 . S
C577 C581 1.429 . S
C578 C561 1.574 . S
C578 H572 0.949 . S
C578 C582 1.368 . S
C579 C560 1.429 . S
C579 C573 1.429 . S
C579 C580 1.523 . S
C580 C561 1.368 . S
C580 C574 1.368 . S
C580 C579 1.523 . S
C581 C565 1.429 . S
C581 C577 1.429 . S
C581 C582 1.523 . S
C582 C566 1.368 . S
C582 C578 1.368 . S
C582 C581 1.523 . S
H583 C558 0.950 . S
H584 C560 0.950 . S
H585 C561 0.949 . S
H586 C563 0.950 . S
H587 C565 0.950 . S
C588 C589 1.349 . S
C588 C590 1.327 . S
C588 H613 0.950 . S
C589 C588 1.349 . S
C589 C605 1.349 . S
C590 C588 1.327 . S
C590 C609 1.429 . S
C590 H614 0.950 . S
C591 C608 1.574 . S
C591 C610 1.368 . S
C591 H615 0.949 . S
H592 C596 0.949 . S
C593 C594 1.349 . S
C593 C595 1.327 . S
C593 H616 0.950 . S
C594 C593 1.349 . S
C594 C606 1.349 . S
C595 C593 1.327 . S
C595 C611 1.429 . S
C595 H617 0.950 . S
C596 H592 0.949 . S
C596 C604 1.574 . S
C596 C612 1.368 . S
H597 C605 0.950 . S
H598 C603 0.950 . S
H599 C604 0.949 . S
H600 C606 0.950 . S
H601 C607 0.950 . S
H602 C608 0.949 . S
C603 H598 0.950 . S
C603 C605 1.327 . S
C603 C609 1.429 . S
C604 C596 1.574 . S
C604 H599 0.949 . S
C604 C610 1.368 . S
C605 C589 1.349 . S
C605 H597 0.950 . S
C605 C603 1.327 . S
C606 C594 1.349 . S
C606 H600 0.950 . S
C606 C607 1.327 . S
C607 H601 0.950 . S
C607 C606 1.327 . S
C607 C611 1.429 . S
C608 C591 1.574 . S
C608 H602 0.949 . S
C608 C612 1.368 . S
C609 C590 1.429 . S
C609 C603 1.429 . S
C609 C610 1.523 . S
C610 C591 1.368 . S
C610 C604 1.368 . S
C610 C609 1.523 . S
C611 C595 1.429 . S
C611 C607 1.429 . S
C611 C612 1.523 . S
C612 C596 1.368 . S
C612 C608 1.368 . S
C612 C611 1.523 . S
H613 C588 0.950 . S
H614 C590 0.950 . S
H615 C591 0.949 . S
H616 C593 0.950 . S
H617 C595 0.950 . S
C618 C619 1.349 . S
C618 C620 1.327 . S
C618 H643 0.950 . S
C619 C618 1.349 . S
C619 C635 1.349 . S
C620 C618 1.327 . S
C620 C639 1.429 . S
C620 H644 0.950 . S
C621 C638 1.574 . S
C621 C640 1.368 . S
C621 H645 0.949 . S
H622 C626 0.949 . S
C623 C624 1.349 . S
C623 C625 1.327 . S
C623 H646 0.950 . S
C624 C623 1.349 . S
C624 C636 1.349 . S
C625 C623 1.327 . S
C625 C641 1.429 . S
C625 H647 0.950 . S
C626 H622 0.949 . S
C626 C634 1.574 . S
C626 C642 1.368 . S
H627 C635 0.950 . S
H628 C633 0.950 . S
H629 C634 0.949 . S
H630 C636 0.950 . S
H631 C637 0.950 . S
H632 C638 0.949 . S
C633 H628 0.950 . S
C633 C635 1.327 . S
C633 C639 1.429 . S
C634 C626 1.574 . S
C634 H629 0.949 . S
C634 C640 1.368 . S
C635 C619 1.349 . S
C635 H627 0.950 . S
C635 C633 1.327 . S
C636 C624 1.349 . S
C636 H630 0.950 . S
C636 C637 1.327 . S
C637 H631 0.950 . S
C637 C636 1.327 . S
C637 C641 1.429 . S
C638 C621 1.574 . S
C638 H632 0.949 . S
C638 C642 1.368 . S
C639 C620 1.429 . S
C639 C633 1.429 . S
C639 C640 1.523 . S
C640 C621 1.368 . S
C640 C634 1.368 . S
C640 C639 1.523 . S
C641 C625 1.429 . S
C641 C637 1.429 . S
C641 C642 1.523 . S
C642 C626 1.368 . S
C642 C638 1.368 . S
C642 C641 1.523 . S
H643 C618 0.950 . S
H644 C620 0.950 . S
H645 C621 0.949 . S
H646 C623 0.950 . S
H647 C625 0.950 . S
C648 C649 1.349 . S
C648 C650 1.327 . S
C648 H673 0.950 . S
C649 C648 1.349 . S
C649 C665 1.349 . S
C650 C648 1.327 . S
C650 C669 1.429 . S
C650 H674 0.950 . S
C651 C668 1.574 . S
C651 C670 1.368 . S
C651 H675 0.949 . S
H652 C656 0.949 . S
C653 C654 1.349 . S
C653 C655 1.327 . S
C653 H676 0.950 . S
C654 C653 1.349 . S
C654 C666 1.349 . S
C655 C653 1.327 . S
C655 C671 1.429 . S
C655 H677 0.950 . S
C656 H652 0.949 . S
C656 C664 1.574 . S
C656 C672 1.368 . S
H657 C665 0.950 . S
H658 C663 0.950 . S
H659 C664 0.949 . S
H660 C666 0.950 . S
H661 C667 0.950 . S
H662 C668 0.949 . S
C663 H658 0.950 . S
C663 C665 1.327 . S
C663 C669 1.429 . S
C664 C656 1.574 . S
C664 H659 0.949 . S
C664 C670 1.368 . S
C665 C649 1.349 . S
C665 H657 0.950 . S
C665 C663 1.327 . S
C666 C654 1.349 . S
C666 H660 0.950 . S
C666 C667 1.327 . S
C667 H661 0.950 . S
C667 C666 1.327 . S
C667 C671 1.429 . S
C668 C651 1.574 . S
C668 H662 0.949 . S
C668 C672 1.368 . S
C669 C650 1.429 . S
C669 C663 1.429 . S
C669 C670 1.523 . S
C670 C651 1.368 . S
C670 C664 1.368 . S
C670 C669 1.523 . S
C671 C655 1.429 . S
C671 C667 1.429 . S
C671 C672 1.523 . S
C672 C656 1.368 . S
C672 C668 1.368 . S
C672 C671 1.523 . S
H673 C648 0.950 . S
H674 C650 0.950 . S
H675 C651 0.949 . S
H676 C653 0.950 . S
H677 C655 0.950 . S
C678 C679 1.349 . S
C678 C680 1.327 . S
C678 H703 0.950 . S
C679 C678 1.349 . S
C679 C695 1.349 . S
C680 C678 1.327 . S
C680 C699 1.429 . S
C680 H704 0.950 . S
C681 C698 1.574 . S
C681 C700 1.368 . S
C681 H705 0.949 . S
H682 C686 0.949 . S
C683 C684 1.349 . S
C683 C685 1.327 . S
C683 H706 0.950 . S
C684 C683 1.349 . S
C684 C696 1.349 . S
C685 C683 1.327 . S
C685 C701 1.429 . S
C685 H707 0.950 . S
C686 H682 0.949 . S
C686 C694 1.574 . S
C686 C702 1.368 . S
H687 C695 0.950 . S
H688 C693 0.950 . S
H689 C694 0.949 . S
H690 C696 0.950 . S
H691 C697 0.950 . S
H692 C698 0.949 . S
C693 H688 0.950 . S
C693 C695 1.327 . S
C693 C699 1.429 . S
C694 C686 1.574 . S
C694 H689 0.949 . S
C694 C700 1.368 . S
C695 C679 1.349 . S
C695 H687 0.950 . S
C695 C693 1.327 . S
C696 C684 1.349 . S
C696 H690 0.950 . S
C696 C697 1.327 . S
C697 H691 0.950 . S
C697 C696 1.327 . S
C697 C701 1.429 . S
C698 C681 1.574 . S
C698 H692 0.949 . S
C698 C702 1.368 . S
C699 C680 1.429 . S
C699 C693 1.429 . S
C699 C700 1.523 . S
C700 C681 1.368 . S
C700 C694 1.368 . S
C700 C699 1.523 . S
C701 C685 1.429 . S
C701 C697 1.429 . S
C701 C702 1.523 . S
C702 C686 1.368 . S
C702 C698 1.368 . S
C702 C701 1.523 . S
H703 C678 0.950 . S
H704 C680 0.950 . S
H705 C681 0.949 . S
H706 C683 0.950 . S
H707 C685 0.950 . S
C708 C709 1.349 . S
C708 C710 1.327 . S
C708 H733 0.950 . S
C709 C708 1.349 . S
C709 C725 1.349 . S
C710 C708 1.327 . S
C710 C729 1.429 . S
C710 H734 0.950 . S
C711 C728 1.574 . S
C711 C730 1.368 1_656 S
C711 H735 0.949 . S
H712 C716 0.949 1_554 S
C713 C714 1.349 . S
C713 C715 1.327 . S
C713 H736 0.950 . S
C714 C713 1.349 . S
C714 C726 1.349 . S
C715 C713 1.327 . S
C715 C731 1.429 . S
C715 H737 0.950 . S
C716 H712 0.949 1_556 S
C716 C724 1.573 1_556 S
C716 C732 1.370 1_455 S
H717 C725 0.950 . S
H718 C723 0.957 . S
H719 C724 0.949 . S
H720 C726 0.950 . S
H721 C727 0.950 1_455 S
H722 C728 0.949 . S
C723 H718 0.957 . S
C723 C725 1.327 . S
C723 C729 1.429 . S
C724 C716 1.573 1_554 S
C724 H719 0.949 . S
C724 C730 1.368 . S
C725 C709 1.349 . S
C725 H717 0.950 . S
C725 C723 1.327 . S
C726 C714 1.349 . S
C726 H720 0.950 . S
C726 C727 1.327 . S
C727 H721 0.950 1_655 S
C727 C726 1.327 . S
C727 C731 1.429 . S
C728 C711 1.574 . S
C728 H722 0.949 . S
C728 C732 1.368 . S
C729 C710 1.429 . S
C729 C723 1.429 . S
C729 C730 1.523 . S
C730 C711 1.368 1_454 S
C730 C724 1.368 . S
C730 C729 1.523 . S
C731 C715 1.429 . S
C731 C727 1.429 . S
C731 C732 1.523 . S
C732 C716 1.370 1_655 S
C732 C728 1.368 . S
C732 C731 1.523 . S
H733 C708 0.950 . S
H734 C710 0.950 . S
H735 C711 0.949 . S
H736 C713 0.950 . S
H737 C715 0.950 . S
C738 C739 1.349 . S
C738 C740 1.327 . S
C738 H763 0.950 . S
C739 C738 1.349 . S
C739 C755 1.349 . S
C740 C738 1.327 . S
C740 C759 1.429 . S
C740 H764 0.950 . S
C741 C758 1.574 . S
C741 C760 1.368 1_556 S
C741 H765 0.949 . S
H742 C746 0.949 . S
C743 C744 1.349 . S
C743 C745 1.327 . S
C743 H766 0.950 . S
C744 C743 1.349 . S
C744 C756 1.349 . S
C745 C743 1.327 . S
C745 C761 1.429 . S
C745 H767 0.950 . S
C746 H742 0.949 . S
C746 C754 1.574 . S
C746 C762 1.368 1_554 S
H747 C755 0.950 . S
H748 C753 0.950 1_556 S
H749 C754 0.949 . S
H750 C756 0.950 . S
H751 C757 0.950 . S
H752 C758 0.949 . S
C753 H748 0.950 1_554 S
C753 C755 1.327 . S
C753 C759 1.429 . S
C754 C746 1.574 . S
C754 H749 0.949 . S
C754 C760 1.368 . S
C755 C739 1.349 . S
C755 H747 0.950 . S
C755 C753 1.327 . S
C756 C744 1.349 . S
C756 H750 0.950 . S
C756 C757 1.327 . S
C757 H751 0.950 . S
C757 C756 1.327 . S
C757 C761 1.429 . S
C758 C741 1.574 . S
C758 H752 0.949 . S
C758 C762 1.368 . S
C759 C740 1.429 . S
C759 C753 1.429 . S
C759 C760 1.523 . S
C760 C741 1.368 1_554 S
C760 C754 1.368 . S
C760 C759 1.523 . S
C761 C745 1.429 . S
C761 C757 1.429 . S
C761 C762 1.523 . S
C762 C746 1.368 1_556 S
C762 C758 1.368 . S
C762 C761 1.523 . S
H763 C738 0.950 . S
H764 C740 0.950 . S
H765 C741 0.949 . S
H766 C743 0.950 . S
H767 C745 0.950 . S
C768 C769 1.349 . S
C768 C770 1.327 . S
C768 H793 0.950 . S
C769 C768 1.349 . S
C769 C785 1.349 . S
C770 C768 1.327 . S
C770 C789 1.429 . S
C770 H794 0.950 1_554 S
C771 C788 1.574 1_565 S
C771 C790 1.368 . S
C771 H795 0.949 . S
H772 C776 0.949 1_545 S
C773 C774 1.349 . S
C773 C775 1.327 . S
C773 H796 0.950 . S
C774 C773 1.349 . S
C774 C786 1.349 . S
C775 C773 1.327 . S
C775 C791 1.429 . S
C775 H797 0.950 1_556 S
C776 H772 0.949 1_565 S
C776 C784 1.572 . S
C776 C792 1.370 1_565 S
H777 C785 0.950 . S
H778 C783 0.950 . S
H779 C784 0.949 . S
H780 C786 0.950 . S
H781 C787 0.950 . S
H782 C788 0.949 . S
C783 H778 0.950 . S
C783 C785 1.327 . S
C783 C789 1.429 . S
C784 C776 1.572 . S
C784 H779 0.949 . S
C784 C790 1.368 1_556 S
C785 C769 1.349 . S
C785 H777 0.950 . S
C785 C783 1.327 . S
C786 C774 1.349 . S
C786 H780 0.950 . S
C786 C787 1.327 . S
C787 H781 0.950 . S
C787 C786 1.327 . S
C787 C791 1.429 . S
C788 C771 1.574 1_545 S
C788 H782 0.949 . S
C788 C792 1.368 1_554 S
C789 C770 1.429 . S
C789 C783 1.429 . S
C789 C790 1.523 . S
C790 C771 1.368 . S
C790 C784 1.368 1_554 S
C790 C789 1.523 . S
C791 C775 1.429 . S
C791 C787 1.429 . S
C791 C792 1.523 . S
C792 C776 1.370 1_545 S
C792 C788 1.368 1_556 S
C792 C791 1.523 . S
H793 C768 0.950 . S
H794 C770 0.950 1_556 S
H795 C771 0.949 . S
H796 C773 0.950 . S
H797 C775 0.950 1_554 S
C798 C799 1.349 . S
C798 C800 1.327 . S
C798 H823 0.950 . S
C799 C798 1.349 . S
C799 C815 1.349 . S
C800 C798 1.327 . S
C800 C819 1.429 . S
C800 H824 0.950 . S
C801 C818 1.574 . S
C801 C820 1.368 1_545 S
C801 H825 0.949 . S
H802 C806 0.949 . S
C803 C804 1.349 . S
C803 C805 1.327 . S
C803 H826 0.950 . S
C804 C803 1.349 . S
C804 C816 1.349 . S
C805 C803 1.327 . S
C805 C821 1.429 . S
C805 H827 0.950 . S
C806 H802 0.949 . S
C806 C814 1.574 . S
C806 C822 1.368 1_565 S
H807 C815 0.950 . S
H808 C813 0.950 . S
H809 C814 0.949 . S
H810 C816 0.950 . S
H811 C817 0.950 . S
H812 C818 0.949 . S
C813 H808 0.950 . S
C813 C815 1.327 . S
C813 C819 1.429 . S
C814 C806 1.574 . S
C814 H809 0.949 . S
C814 C820 1.368 . S
C815 C799 1.349 . S
C815 H807 0.950 . S
C815 C813 1.327 . S
C816 C804 1.349 . S
C816 H810 0.950 . S
C816 C817 1.327 . S
C817 H811 0.950 . S
C817 C816 1.327 . S
C817 C821 1.429 . S
C818 C801 1.574 . S
C818 H812 0.949 . S
C818 C822 1.368 . S
C819 C800 1.429 . S
C819 C813 1.429 . S
C819 C820 1.523 . S
C820 C801 1.368 1_565 S
C820 C814 1.368 . S
C820 C819 1.523 . S
C821 C805 1.429 . S
C821 C817 1.429 . S
C821 C822 1.523 . S
C822 C806 1.368 1_545 S
C822 C818 1.368 . S
C822 C821 1.523 . S
H823 C798 0.950 . S
H824 C800 0.950 . S
H825 C801 0.949 . S
H826 C803 0.950 . S
H827 C805 0.950 . S
C828 C829 1.349 . S
C828 C830 1.327 . S
C828 H853 0.950 . S
C829 C828 1.349 . S
C829 C845 1.349 . S
C830 C828 1.327 . S
C830 C849 1.429 . S
C830 H854 0.950 1_655 S
C831 C848 1.574 . S
C831 C850 1.368 . S
C831 H855 0.949 . S
H832 C836 0.949 . S
C833 C834 1.349 . S
C833 C835 1.327 . S
C833 H856 0.950 . S
C834 C833 1.349 . S
C834 C846 1.349 . S
C835 C833 1.327 . S
C835 C851 1.429 . S
C835 H857 0.950 1_455 S
C836 H832 0.949 . S
C836 C844 1.574 . S
C836 C852 1.368 . S
H837 C845 0.950 . S
H838 C843 0.950 . S
H839 C844 0.949 . S
H840 C846 0.950 . S
H841 C847 0.950 . S
H842 C848 0.949 . S
C843 H838 0.950 . S
C843 C845 1.327 . S
C843 C849 1.429 . S
C844 C836 1.574 . S
C844 H839 0.949 . S
C844 C850 1.368 1_455 S
C845 C829 1.349 . S
C845 H837 0.950 . S
C845 C843 1.327 . S
C846 C834 1.349 . S
C846 H840 0.950 . S
C846 C847 1.327 . S
C847 H841 0.950 . S
C847 C846 1.327 . S
C847 C851 1.429 . S
C848 C831 1.574 . S
C848 H842 0.949 . S
C848 C852 1.368 1_655 S
C849 C830 1.429 . S
C849 C843 1.429 . S
C849 C850 1.523 . S
C850 C831 1.368 . S
C850 C844 1.368 1_655 S
C850 C849 1.523 . S
C851 C835 1.429 . S
C851 C847 1.429 . S
C851 C852 1.523 . S
C852 C836 1.368 . S
C852 C848 1.368 1_455 S
C852 C851 1.523 . S
H853 C828 0.950 . S
H854 C830 0.950 1_455 S
H855 C831 0.949 . S
H856 C833 0.950 . S
H857 C835 0.950 1_655 S
C858 C859 1.349 . S
C858 C860 1.327 . S
C858 H883 0.950 . S
C859 C858 1.349 . S
C859 C875 1.349 . S
C860 C858 1.327 . S
C860 C879 1.429 . S
C860 H884 0.950 . S
C861 C878 1.574 . S
C861 C880 1.368 . S
C861 H885 0.949 . S
H862 C866 0.949 . S
C863 C864 1.349 . S
C863 C865 1.327 . S
C863 H886 0.950 . S
C864 C863 1.349 . S
C864 C876 1.349 . S
C865 C863 1.327 . S
C865 C881 1.429 . S
C865 H887 0.950 . S
C866 H862 0.949 . S
C866 C874 1.574 . S
C866 C882 1.368 . S
H867 C875 0.950 . S
H868 C873 0.950 . S
H869 C874 0.949 . S
H870 C876 0.950 . S
H871 C877 0.950 . S
H872 C878 0.949 . S
C873 H868 0.950 . S
C873 C875 1.327 . S
C873 C879 1.429 . S
C874 C866 1.574 . S
C874 H869 0.949 . S
C874 C880 1.368 . S
C875 C859 1.349 . S
C875 H867 0.950 . S
C875 C873 1.327 . S
C876 C864 1.349 . S
C876 H870 0.950 . S
C876 C877 1.327 . S
C877 H871 0.950 . S
C877 C876 1.327 . S
C877 C881 1.429 . S
C878 C861 1.574 . S
C878 H872 0.949 . S
C878 C882 1.368 . S
C879 C860 1.429 . S
C879 C873 1.429 . S
C879 C880 1.523 . S
C880 C861 1.368 . S
C880 C874 1.368 . S
C880 C879 1.523 . S
C881 C865 1.429 . S
C881 C877 1.429 . S
C881 C882 1.523 . S
C882 C866 1.368 . S
C882 C878 1.368 . S
C882 C881 1.523 . S
H883 C858 0.950 . S
H884 C860 0.950 . S
H885 C861 0.949 . S
H886 C863 0.950 . S
H887 C865 0.950 . S
C169 C7 0.603 . S
C174 C107 0.607 . S
C199 C21 0.574 . S
C204 C119 0.577 . S
C229 C35 0.564 . S
C234 C91 0.564 . S
C259 C161 0.564 . S
C264 C49 0.564 . S
C289 C63 0.574 . S
C294 C133 0.576 . S
C319 C149 0.607 . S
C324 C77 0.604 . S
C349 C23 0.596 . S
C354 C93 0.600 . S
C379 C105 0.544 . S
C384 C37 0.549 . S
C409 C9 0.571 . S
C414 C121 0.578 . S
C439 C135 0.578 . S
C444 C79 0.571 . S
C469 C147 0.544 . S
C474 C51 0.549 . S
C499 C65 0.596 . S
C504 C163 0.600 . S
C529 C78 1.559 . S
C534 C8 1.559 . S
C559 C22 1.603 . S
C564 C50 1.606 . S
C589 C36 1.606 . S
C594 C64 1.602 . S
C619 C87 1.568 . S
C624 C157 1.568 . S
C649 C106 1.562 . S
C654 C129 1.554 . S
C679 C115 1.554 . S
C684 C148 1.562 . S
C709 C3 1.600 . S
C714 C92 1.602 . S
C739 C17 1.639 . S
C744 C101 1.639 . S
C769 C31 1.636 . S
C774 C120 1.637 . S
C799 C45 1.636 . S
C804 C134 1.637 . S
C829 C143 1.639 . S
C834 C59 1.639 . S
C859 C73 1.600 . S
C864 C162 1.602 . S
