# Generated by pormake.
# Topology wkj, (6)-cn, num edge types: 1
# Building blocks:
#     Node 0, Type 0, BuildingBlock: PAMTUU_clean_sbu_0, # of connection points: 6
#     Node 1, Type 0, BuildingBlock: PAMTUU_clean_sbu_0, # of connection points: 6
#     Node 2, Type 0, BuildingBlock: PAMTUU_clean_sbu_0, # of connection points: 6
#     Node 3, Type 0, BuildingBlock: PAMTUU_clean_sbu_0, # of connection points: 6
#     Node 4, Type 0, BuildingBlock: PAMTUU_clean_sbu_0, # of connection points: 6
#     Node 5, Type 0, BuildingBlock: PAMTUU_clean_sbu_0, # of connection points: 6
#     Node 6, Type 0, BuildingBlock: PAMTUU_clean_sbu_0, # of connection points: 6
#     Node 7, Type 0, BuildingBlock: PAMTUU_clean_sbu_0, # of connection points: 6
#     Node 8, Type 0, BuildingBlock: PAMTUU_clean_sbu_0, # of connection points: 6
#     Node 9, Type 0, BuildingBlock: PAMTUU_clean_sbu_0, # of connection points: 6
#     Node 10, Type 0, BuildingBlock: PAMTUU_clean_sbu_0, # of connection points: 6
#     Node 11, Type 0, BuildingBlock: PAMTUU_clean_sbu_0, # of connection points: 6
#     Edge 12, Type (0, 0), BuildingBlock: KIFKEQ_clean_linker_1, # of connection points: 2
#     Edge 13, Type (0, 0), BuildingBlock: KIFKEQ_clean_linker_1, # of connection points: 2
#     Edge 14, Type (0, 0), BuildingBlock: KIFKEQ_clean_linker_1, # of connection points: 2
#     Edge 15, Type (0, 0), BuildingBlock: KIFKEQ_clean_linker_1, # of connection points: 2
#     Edge 16, Type (0, 0), BuildingBlock: KIFKEQ_clean_linker_1, # of connection points: 2
#     Edge 17, Type (0, 0), BuildingBlock: KIFKEQ_clean_linker_1, # of connection points: 2
#     Edge 18, Type (0, 0), BuildingBlock: KIFKEQ_clean_linker_1, # of connection points: 2
#     Edge 19, Type (0, 0), BuildingBlock: KIFKEQ_clean_linker_1, # of connection points: 2
#     Edge 20, Type (0, 0), BuildingBlock: KIFKEQ_clean_linker_1, # of connection points: 2
#     Edge 21, Type (0, 0), BuildingBlock: KIFKEQ_clean_linker_1, # of connection points: 2
#     Edge 22, Type (0, 0), BuildingBlock: KIFKEQ_clean_linker_1, # of connection points: 2
#     Edge 23, Type (0, 0), BuildingBlock: KIFKEQ_clean_linker_1, # of connection points: 2
#     Edge 24, Type (0, 0), BuildingBlock: KIFKEQ_clean_linker_1, # of connection points: 2
#     Edge 25, Type (0, 0), BuildingBlock: KIFKEQ_clean_linker_1, # of connection points: 2
#     Edge 26, Type (0, 0), BuildingBlock: KIFKEQ_clean_linker_1, # of connection points: 2
#     Edge 27, Type (0, 0), BuildingBlock: KIFKEQ_clean_linker_1, # of connection points: 2
#     Edge 28, Type (0, 0), BuildingBlock: KIFKEQ_clean_linker_1, # of connection points: 2
#     Edge 29, Type (0, 0), BuildingBlock: KIFKEQ_clean_linker_1, # of connection points: 2
#     Edge 30, Type (0, 0), BuildingBlock: KIFKEQ_clean_linker_1, # of connection points: 2
#     Edge 31, Type (0, 0), BuildingBlock: KIFKEQ_clean_linker_1, # of connection points: 2
#     Edge 32, Type (0, 0), BuildingBlock: KIFKEQ_clean_linker_1, # of connection points: 2
#     Edge 33, Type (0, 0), BuildingBlock: KIFKEQ_clean_linker_1, # of connection points: 2
#     Edge 34, Type (0, 0), BuildingBlock: KIFKEQ_clean_linker_1, # of connection points: 2
#     Edge 35, Type (0, 0), BuildingBlock: KIFKEQ_clean_linker_1, # of connection points: 2
#     Edge 36, Type (0, 0), BuildingBlock: KIFKEQ_clean_linker_1, # of connection points: 2
#     Edge 37, Type (0, 0), BuildingBlock: KIFKEQ_clean_linker_1, # of connection points: 2
#     Edge 38, Type (0, 0), BuildingBlock: KIFKEQ_clean_linker_1, # of connection points: 2
#     Edge 39, Type (0, 0), BuildingBlock: KIFKEQ_clean_linker_1, # of connection points: 2
#     Edge 40, Type (0, 0), BuildingBlock: KIFKEQ_clean_linker_1, # of connection points: 2
#     Edge 41, Type (0, 0), BuildingBlock: KIFKEQ_clean_linker_1, # of connection points: 2
#     Edge 42, Type (0, 0), BuildingBlock: KIFKEQ_clean_linker_1, # of connection points: 2
#     Edge 43, Type (0, 0), BuildingBlock: KIFKEQ_clean_linker_1, # of connection points: 2
#     Edge 44, Type (0, 0), BuildingBlock: KIFKEQ_clean_linker_1, # of connection points: 2
#     Edge 45, Type (0, 0), BuildingBlock: KIFKEQ_clean_linker_1, # of connection points: 2
#     Edge 46, Type (0, 0), BuildingBlock: KIFKEQ_clean_linker_1, # of connection points: 2
#     Edge 47, Type (0, 0), BuildingBlock: KIFKEQ_clean_linker_1, # of connection points: 2
# Relax obj value: 0.799
# Max RMSD: 0.189
# Mean RMSD: 0.189
data_MOF--net-wkj--node1-PAMTUU_clean_sbu_0--edge1-KIFKEQ_clean_linker_1
_symmetry_space_group_name_H-M    P1
_symmetry_Int_Tables_number       1
_symmetry_cell_setting            triclinic
loop_
_symmetry_equiv_pos_as_xyz
'x, y, z'
_cell_length_a     49.930053
_cell_length_b     49.989727
_cell_length_c     30.119094
_cell_angle_alpha  89.73715
_cell_angle_beta   90.167588
_cell_angle_gamma 120.2006
loop_
_atom_site_label
_atom_site_type_symbol
_atom_site_fract_x
_atom_site_fract_y
_atom_site_fract_z
_atom_type_partial_charge
Tb0 Tb 0.51874 0.09006 0.3482 0.0
Tb1 Tb 0.45446 0.08266 0.36238 0.0
C2 C 0.46342 0.03083 0.39958 0.0
C3 C 0.60051 0.13659 0.32608 0.0
C4 C 0.63609 0.19832 0.29758 0.0
C5 C 0.64001 0.17502 0.27787 0.0
C6 C 0.62213 0.14427 0.29188 0.0
C7 C 0.59995 0.16039 0.34999 0.0
C8 C 0.61768 0.19109 0.33585 0.0
C9 C 0.57355 0.10513 0.32808 0.0
O10 O 0.49368 0.06142 0.28849 0.0
O11 O 0.44484 0.05302 0.30015 0.0
O12 O 0.47795 0.11785 0.31184 0.0
O13 O 0.52308 0.13698 0.34565 0.0
O14 O 0.40611 0.06288 0.36124 0.0
O15 O 0.43627 0.11121 0.37752 0.0
O16 O 0.47917 0.09627 0.43213 0.0
O17 O 0.52448 0.09652 0.42027 0.0
O18 O 0.49094 0.04379 0.37971 0.0
O19 O 0.44516 0.0422 0.39709 0.0
C20 C 0.46439 0.04851 0.27516 0.0
O21 O 0.5616 0.09478 0.36712 0.0
O22 O 0.55223 0.10033 0.29904 0.0
C23 C 0.50413 0.14218 0.32171 0.0
C24 C 0.38811 0.0847 0.41344 0.0
C25 C 0.34875 0.07195 0.4867 0.0
C26 C 0.33755 0.07042 0.44337 0.0
C27 C 0.35719 0.07685 0.40693 0.0
C28 C 0.39962 0.08731 0.45661 0.0
C29 C 0.38017 0.08112 0.49291 0.0
C30 C 0.40769 0.0883 0.37525 0.0
C31 C 0.50572 0.09873 0.4486 0.0
H32 H 0.65387 0.17978 0.24813 0.0
H33 H 0.62275 0.12623 0.27287 0.0
H34 H 0.58338 0.155 0.37652 0.0
H35 H 0.61438 0.2086 0.35181 0.0
H36 H 0.31345 0.06331 0.43767 0.0
H37 H 0.34801 0.07473 0.37367 0.0
H38 H 0.42338 0.09308 0.46225 0.0
H39 H 0.38937 0.08177 0.52575 0.0
Tb40 Tb 0.44165 0.54688 0.68183 0.0
Tb41 Tb 0.39022 0.4777 0.70045 0.0
C42 C 0.4552 0.50205 0.7354 0.0
C43 C 0.46666 0.62533 0.64848 0.0
C44 C 0.43367 0.65256 0.61369 0.0
C45 C 0.46156 0.65823 0.59383 0.0
C46 C 0.47785 0.64451 0.61101 0.0
C47 C 0.44123 0.62314 0.6717 0.0
C48 C 0.42488 0.63673 0.65446 0.0
C49 C 0.47595 0.60205 0.65627 0.0
O50 O 0.4499 0.51897 0.62898 0.0
O51 O 0.40357 0.47365 0.63012 0.0
O52 O 0.36703 0.49499 0.65799 0.0
O53 O 0.39643 0.54542 0.67579 0.0
O54 O 0.37457 0.43011 0.70387 0.0
O55 O 0.34431 0.44789 0.71999 0.0
O56 O 0.39994 0.50082 0.76987 0.0
O57 O 0.43644 0.55141 0.75481 0.0
O58 O 0.46531 0.53125 0.72645 0.0
O59 O 0.43434 0.48094 0.70977 0.0
C60 C 0.43057 0.49171 0.60996 0.0
O61 O 0.4749 0.59303 0.69708 0.0
O62 O 0.46288 0.57853 0.62947 0.0
C63 C 0.37037 0.52253 0.66002 0.0
C64 C 0.33498 0.40226 0.75561 0.0
C65 C 0.31117 0.36066 0.8272 0.0
C66 C 0.30012 0.35071 0.78399 0.0
C67 C 0.31195 0.37144 0.74842 0.0
C68 C 0.3459 0.41245 0.79863 0.0
C69 C 0.3341 0.39178 0.83418 0.0
C70 C 0.34722 0.42343 0.71787 0.0
C71 C 0.41953 0.52975 0.78467 0.0
H72 H 0.46882 0.67012 0.56218 0.0
H73 H 0.49728 0.64634 0.5925 0.0
H74 H 0.4321 0.6084 0.70074 0.0
H75 H 0.40361 0.63217 0.67056 0.0
H76 H 0.28247 0.32692 0.77771 0.0
H77 H 0.30326 0.36337 0.71524 0.0
H78 H 0.36369 0.43623 0.8046 0.0
H79 H 0.34359 0.39999 0.86697 0.0
Tb80 Tb 0.91394 0.43249 1.01325 0.0
Tb81 Tb 0.92007 0.37476 1.0278 0.0
C82 C 0.97277 0.43562 1.06455 0.0
C83 C 0.86811 0.46775 0.98836 0.0
C84 C 0.80654 0.44101 0.95891 0.0
C85 C 0.83007 0.46807 0.93857 0.0
C86 C 0.86074 0.48124 0.95307 0.0
C87 C 0.84404 0.44361 1.01271 0.0
C88 C 0.81342 0.43035 0.99811 0.0
C89 C 0.89951 0.47229 0.99127 0.0
O90 O 0.94664 0.43865 0.95791 0.0
O91 O 0.94667 0.39301 0.96286 0.0
O92 O 0.88549 0.36324 0.97669 0.0
O93 O 0.86679 0.38989 1.00908 0.0
O94 O 0.9394 0.34595 1.02748 0.0
O95 O 0.89114 0.32802 1.04422 0.0
O96 O 0.90673 0.38606 1.09707 0.0
O97 O 0.90595 0.43084 1.08484 0.0
O98 O 0.95868 0.45015 1.04842 0.0
O99 O 0.96264 0.4064 1.05818 0.0
C100 C 0.9554 0.41967 0.94146 0.0
O101 O 0.90941 0.4708 1.03075 0.0
O102 O 0.9045 0.45568 0.9629 0.0
C103 C 0.86147 0.36569 0.98542 0.0
C104 C 0.91764 0.30675 1.08113 0.0
C105 C 0.93162 0.28185 0.15548 0.0
C106 C 0.9329 0.27161 1.11257 0.0
C107 C 0.92587 0.28398 1.07559 0.0
C108 C 0.91517 0.31611 1.12393 0.0
C109 C 0.92197 0.30369 0.16077 0.0
C110 C 0.91391 0.32226 1.04228 0.0
C111 C 0.90389 0.40983 1.11319 0.0
H112 H 0.82556 0.47675 0.90812 0.0
H113 H 0.87898 0.49971 0.9337 0.0
H114 H 0.84918 0.43275 1.04007 0.0
H115 H 0.79573 0.40965 1.01454 0.0
H116 H 0.94033 0.25489 1.10757 0.0
H117 H 0.92792 0.27659 1.04264 0.0
H118 H 0.90914 0.3339 0.12883 0.0
H119 H 0.92146 0.31266 0.19324 0.0
Tb120 Tb 0.48025 0.91127 0.34851 0.0
Tb121 Tb 0.54499 0.91997 0.36411 0.0
C122 C 0.53414 0.9707 0.40045 0.0
C123 C 0.39934 0.86282 0.32316 0.0
C124 C 0.36773 0.80163 0.29202 0.0
C125 C 0.36319 0.82445 0.27163 0.0
C126 C 0.37909 0.85494 0.28698 0.0
C127 C 0.40025 0.83918 0.34739 0.0
C128 C 0.38453 0.80876 0.33191 0.0
C129 C 0.42523 0.8948 0.32717 0.0
O130 O 0.5051 0.93902 0.28782 0.0
O131 O 0.55461 0.95027 0.3023 0.0
O132 O 0.52206 0.88409 0.31438 0.0
O133 O 0.47672 0.86475 0.3476 0.0
O134 O 0.59355 0.94126 0.36402 0.0
O135 O 0.56448 0.8925 0.37928 0.0
O136 O 0.51985 0.90558 0.43345 0.0
O137 O 0.47486 0.90593 0.42082 0.0
O138 O 0.50724 0.95792 0.37883 0.0
O139 O 0.55237 0.95925 0.39987 0.0
C140 C 0.53472 0.95337 0.27581 0.0
O141 O 0.43638 0.90416 0.36681 0.0
O142 O 0.44727 0.90169 0.29858 0.0
C143 C 0.49588 0.85968 0.32428 0.0
C144 C 0.61277 0.91969 0.41579 0.0
C145 C 0.65169 0.93149 0.48961 0.0
C146 C 0.61937 0.91284 0.49396 0.0
C147 C 0.60006 0.90713 0.45746 0.0
C148 C 0.64506 0.93706 0.41082 0.0
C149 C 0.66442 0.94307 0.44754 0.0
C150 C 0.59274 0.91607 0.37781 0.0
C151 C 0.49336 0.90337 0.44949 0.0
H152 H 0.35055 0.81972 0.24063 0.0
H153 H 0.37825 0.87285 0.26766 0.0
H154 H 0.41576 0.84467 0.37545 0.0
H155 H 0.38827 0.79158 0.34835 0.0
H156 H 0.60884 0.90419 0.52615 0.0
H157 H 0.5752 0.8938 0.46223 0.0
H158 H 0.65524 0.94684 0.37883 0.0
H159 H 0.68924 0.95761 0.44339 0.0
Tb160 Tb 0.56912 0.45945 0.68082 0.0
Tb161 Tb 0.61495 0.52919 0.70399 0.0
C162 C 0.54782 0.49515 0.7412 0.0
C163 C 0.54682 0.38051 0.65242 0.0
C164 C 0.57956 0.35243 0.62061 0.0
C165 C 0.5506 0.34482 0.60227 0.0
C166 C 0.53444 0.35896 0.61793 0.0
C167 C 0.57346 0.38482 0.67473 0.0
C168 C 0.58968 0.37077 0.65901 0.0
C169 C 0.53706 0.4036 0.6571 0.0
O170 O 0.56837 0.4856 0.61861 0.0
O171 O 0.59009 0.53483 0.64521 0.0
O172 O 0.6393 0.5138 0.6593 0.0
O173 O 0.61534 0.46411 0.68073 0.0
O174 O 0.62979 0.5766 0.7069 0.0
O175 O 0.66123 0.55958 0.72076 0.0
O176 O 0.6087 0.50485 0.77176 0.0
O177 O 0.5721 0.45472 0.75475 0.0
O178 O 0.54 0.4765 0.70688 0.0
O179 O 0.57607 0.51842 0.74576 0.0
C180 C 0.5752 0.51493 0.61262 0.0
O181 O 0.53672 0.41311 0.69709 0.0
O182 O 0.55079 0.42674 0.6296 0.0
C183 C 0.63978 0.488 0.66376 0.0
C184 C 0.67098 0.60512 0.75626 0.0
C185 C 0.69698 0.6469 0.82686 0.0
C186 C 0.70701 0.65664 0.78318 0.0
C187 C 0.69411 0.63579 0.7481 0.0
C188 C 0.66111 0.59514 0.79974 0.0
C189 C 0.67403 0.61589 0.83481 0.0
C190 C 0.65772 0.58374 0.71913 0.0
C191 C 0.58898 0.47561 0.78541 0.0
H192 H 0.54222 0.33095 0.57246 0.0
H193 H 0.51403 0.35547 0.60018 0.0
H194 H 0.58343 0.40138 0.70153 0.0
H195 H 0.61176 0.37681 0.674 0.0
H196 H 0.7246 0.68036 0.77618 0.0
H197 H 0.70202 0.64366 0.71454 0.0
H198 H 0.64322 0.57146 0.80643 0.0
H199 H 0.66531 0.60788 0.86801 0.0
Tb200 Tb 0.08996 0.56674 1.01439 0.0
Tb201 Tb 0.08323 0.62419 1.02687 0.0
C202 C 0.03129 0.56317 1.06535 0.0
C203 C 0.1371 0.533 0.99141 0.0
C204 C 0.19837 0.56351 0.9602 0.0
C205 C 0.17565 0.53618 0.93961 0.0
C206 C 0.1451 0.52111 0.95502 0.0
C207 C 0.16072 0.55728 1.01604 0.0
C208 C 0.1912 0.57243 1.00054 0.0
C209 C 0.10526 0.5273 0.99474 0.0
O210 O 0.06114 0.56283 0.95477 0.0
O211 O 0.05389 0.60409 0.96442 0.0
O212 O 0.11795 0.63493 0.97607 0.0
O213 O 0.13685 0.60944 1.01171 0.0
O214 O 0.06356 0.65273 1.02626 0.0
O215 O 0.1123 0.67127 1.04049 0.0
O216 O 0.09748 0.61402 1.09655 0.0
O217 O 0.09605 0.56802 1.08647 0.0
O218 O 0.04378 0.54831 1.04555 0.0
O219 O 0.043 0.59292 1.06251 0.0
C220 C 0.04892 0.57953 0.94038 0.0
O221 O 0.09573 0.52939 1.03407 0.0
O222 O 0.09904 0.54263 0.96545 0.0
C223 C 0.14212 0.63295 0.98627 0.0
C224 C 0.08665 0.69277 1.0783 0.0
C225 C 0.07595 0.71948 0.15311 0.0
C226 C 0.07397 0.72953 1.11018 0.0
C227 C 0.07936 0.71626 1.07297 0.0
C228 C 0.08967 0.68345 1.12103 0.0
C229 C 0.08449 0.69675 0.15807 0.0
C230 C 0.08934 0.67678 1.03946 0.0
C231 C 0.09923 0.5898 1.11386 0.0
H232 H 0.18042 0.52879 0.90833 0.0
H233 H 0.12723 0.50256 0.93542 0.0
H234 H 0.15515 0.56694 1.04428 0.0
H235 H 0.2083 0.59329 1.01718 0.0
H236 H 0.06735 0.74692 1.10541 0.0
H237 H 0.07694 0.72365 1.04007 0.0
H238 H 0.09503 0.66516 1.1258 0.0
H239 H 0.08546 0.68787 0.19055 0.0
Tb240 Tb 0.87675 0.45016 0.56084 0.0
Tb241 Tb 0.90399 0.51956 0.53274 0.0
C242 C 0.93787 0.48284 0.50463 0.0
C243 C 0.81734 0.38044 0.61472 0.0
C244 C 0.77309 0.36602 0.6822 0.0
C245 C 0.79643 0.35829 0.68714 0.0
C246 C 0.81844 0.36552 0.65365 0.0
C247 C 0.79227 0.38552 0.60827 0.0
C248 C 0.77039 0.37836 0.64166 0.0
C249 C 0.84409 0.39437 0.58402 0.0
O250 O 0.91004 0.47397 0.61745 0.0
O251 O 0.91676 0.52201 0.60563 0.0
O252 O 0.8542 0.50201 0.53842 0.0
O253 O 0.84488 0.4646 0.58804 0.0
O254 O 0.94109 0.56541 0.53492 0.0
O255 O 0.89594 0.55493 0.5118 0.0
O256 O 0.89553 0.49797 0.46409 0.0
O257 O 0.8729 0.44693 0.48527 0.0
O258 O 0.91864 0.45835 0.52796 0.0
O259 O 0.93765 0.50901 0.50573 0.0
C260 C 0.9213 0.50291 0.63144 0.0
O261 O 0.83987 0.40571 0.54739 0.0
O262 O 0.87103 0.4132 0.60171 0.0
C263 C 0.83628 0.48265 0.56885 0.0
C264 C 0.93873 0.59962 0.48333 0.0
C265 C 0.96447 0.64466 0.41614 0.0
C266 C 0.96138 0.65305 0.45943 0.0
C267 C 0.94851 0.63062 0.49277 0.0
C268 C 0.94192 0.59108 0.44035 0.0
C269 C 0.9547 0.61346 0.40695 0.0
C270 C 0.92451 0.57653 0.51854 0.0
C271 C 0.8831 0.46815 0.45272 0.0
H272 H 0.79923 0.34904 0.71828 0.0
H273 H 0.83744 0.3613 0.65937 0.0
H274 H 0.79052 0.39688 0.5786 0.0
H275 H 0.75257 0.38444 0.63697 0.0
H276 H 0.96862 0.67686 0.46737 0.0
H277 H 0.94604 0.63744 0.52592 0.0
H278 H 0.9345 0.56717 0.4327 0.0
H279 H 0.95737 0.60642 0.37407 0.0
Tb280 Tb 0.42322 0.87534 0.89687 0.0
Tb281 Tb 0.37735 0.90037 0.87007 0.0
C282 C 0.44628 0.93818 0.8503 0.0
C283 C 0.44278 0.82276 0.95233 0.0
C284 C 0.41536 0.77568 1.01691 0.0
C285 C 0.44519 0.80128 1.02369 0.0
C286 C 0.45876 0.82473 0.99164 0.0
C287 C 0.41429 0.79568 0.94385 0.0
C288 C 0.40073 0.7724 0.97586 0.0
C289 C 0.45338 0.85028 0.92355 0.0
O290 O 0.42745 0.90709 0.95413 0.0
O291 O 0.38483 0.91221 0.94301 0.0
O292 O 0.34513 0.85497 0.89772 0.0
O293 O 0.37648 0.83451 0.90854 0.0
O294 O 0.36812 0.93702 0.86757 0.0
O295 O 0.33476 0.89153 0.84393 0.0
O296 O 0.39194 0.8913 0.80185 0.0
O297 O 0.42496 0.87369 0.82183 0.0
O298 O 0.45253 0.91606 0.85725 0.0
O299 O 0.42433 0.93828 0.87334 0.0
C300 C 0.40877 0.91725 0.96856 0.0
O301 O 0.44004 0.84516 0.88492 0.0
O302 O 0.45516 0.87461 0.94227 0.0
C303 C 0.34874 0.83164 0.90892 0.0
C304 C 0.33186 0.93347 0.81426 0.0
C305 C 0.31172 0.95795 0.74653 0.0
C306 C 0.2998 0.95437 0.78966 0.0
C307 C 0.30982 0.94219 0.82326 0.0
C308 C 0.34393 0.93694 0.77139 0.0
C309 C 0.33397 0.94919 0.73772 0.0
C310 C 0.34089 0.91982 0.85 0.0
C311 C 0.41171 0.8817 0.7898 0.0
H312 H 0.45686 0.80456 1.05528 0.0
H313 H 0.48072 0.84531 0.99887 0.0
H314 H 0.40139 0.79327 0.91372 0.0
H315 H 0.37779 0.75286 0.96979 0.0
H316 H 0.28255 0.96072 0.79733 0.0
H317 H 0.30018 0.93937 0.8563 0.0
H318 H 0.3609 0.93014 0.76401 0.0
H319 H 0.34402 0.95223 0.70496 0.0
Tb320 Tb 0.54941 0.42454 0.23787 0.0
Tb321 Tb 0.47976 0.3829 0.21326 0.0
C322 C 0.51713 0.45221 0.17915 0.0
C323 C 0.62127 0.43485 0.28436 0.0
C324 C 0.64086 0.40425 0.34359 0.0
C325 C 0.64915 0.4353 0.35081 0.0
C326 C 0.63939 0.45046 0.32141 0.0
C327 C 0.6151 0.40465 0.27534 0.0
C328 C 0.62492 0.38959 0.30454 0.0
C329 C 0.60585 0.44841 0.25837 0.0
O330 O 0.52757 0.43754 0.2934 0.0
O331 O 0.47816 0.39782 0.28408 0.0
O332 O 0.49787 0.35097 0.21497 0.0
O333 O 0.53524 0.37789 0.26486 0.0
O334 O 0.43483 0.37545 0.2039 0.0
O335 O 0.44286 0.33713 0.20942 0.0
O336 O 0.49993 0.39227 0.14341 0.0
O337 O 0.55134 0.42159 0.16235 0.0
O338 O 0.54135 0.45794 0.20342 0.0
O339 O 0.49086 0.4258 0.18088 0.0
C340 C 0.49844 0.42199 0.30808 0.0
O341 O 0.5943 0.43517 0.22049 0.0
O342 O 0.58649 0.45379 0.28007 0.0
C343 C 0.51731 0.3516 0.24467 0.0
C344 C 0.40148 0.3302 0.16485 0.0
C345 C 0.35988 0.30271 1.09404 0.0
C346 C 0.34967 0.29463 0.13808 0.0
C347 C 0.3704 0.30831 0.17327 0.0
C348 C 0.41206 0.33761 1.12108 0.0
C349 C 0.39142 0.324 1.08593 0.0
C350 C 0.4225 0.34553 0.20196 0.0
C351 C 0.52961 0.40922 0.13062 0.0
H352 H 0.6611 0.44712 0.3809 0.0
H353 H 0.64441 0.4737 0.32903 0.0
H354 H 0.6012 0.39188 0.247 0.0
H355 H 0.61837 0.36577 0.29796 0.0
H356 H 0.32558 0.27826 0.1453 0.0
H357 H 0.36204 0.30226 0.20706 0.0
H358 H 0.43607 0.35448 1.11416 0.0
H359 H 0.39994 0.33128 1.05246 0.0
Tb360 Tb 0.12662 0.55431 0.56271 0.0
Tb361 Tb 0.10252 0.48319 0.53816 0.0
C362 C 0.0637 0.51269 0.51721 0.0
C363 C 0.17839 0.62603 0.6188 0.0
C364 C 0.22384 0.64364 0.68544 0.0
C365 C 0.19807 0.64749 0.6918 0.0
C366 C 0.17543 0.63863 0.65873 0.0
C367 C 0.20573 0.62514 0.61091 0.0
C368 C 0.22818 0.63379 0.64395 0.0
C369 C 0.15144 0.60956 0.58887 0.0
O370 O 0.09733 0.52711 0.62254 0.0
O371 O 0.08763 0.47778 0.60945 0.0
O372 O 0.14601 0.49712 0.57268 0.0
O373 O 0.16818 0.54954 0.57046 0.0
O374 O 0.06692 0.43671 0.53483 0.0
O375 O 0.11336 0.45064 0.51346 0.0
O376 O 0.11242 0.50684 0.46968 0.0
O377 O 0.12728 0.55713 0.48785 0.0
O378 O 0.08538 0.54148 0.52338 0.0
O379 O 0.06416 0.49129 0.54134 0.0
C380 C 0.08504 0.49761 0.63592 0.0
O381 O 0.15722 0.60147 0.55073 0.0
O382 O 0.12646 0.58697 0.60677 0.0
C383 C 0.17028 0.52469 0.57776 0.0
C384 C 0.07269 0.40542 0.48211 0.0
C385 C 0.04872 0.36121 0.41411 0.0
C386 C 0.05235 0.35265 0.45717 0.0
C387 C 0.06426 0.37464 0.49091 0.0
C388 C 0.06944 0.41429 0.43921 0.0
C389 C 0.05744 0.39228 0.40541 0.0
C390 C 0.08513 0.42772 0.51831 0.0
C391 C 0.12069 0.53579 0.45668 0.0
H392 H 0.194 0.65473 0.7237 0.0
H393 H 0.15463 0.63957 0.66558 0.0
H394 H 0.20894 0.61576 0.58037 0.0
H395 H 0.24786 0.63069 0.6382 0.0
H396 H 0.04606 0.329 0.46476 0.0
H397 H 0.06687 0.3676 0.52397 0.0
H398 H 0.07601 0.43806 0.43197 0.0
H399 H 0.05439 0.39947 0.37271 0.0
Tb400 Tb 0.57931 0.12829 0.89745 0.0
Tb401 Tb 0.62177 0.10236 0.86899 0.0
C402 C 0.55044 0.06635 0.84375 0.0
C403 C 0.56875 0.18688 0.95163 0.0
C404 C 0.59876 0.23143 1.01861 0.0
C405 C 0.56724 0.20875 1.02278 0.0
C406 C 0.55237 0.18659 0.98954 0.0
C407 C 0.59946 0.21124 0.94583 0.0
C408 C 0.61427 0.23329 0.97896 0.0
C409 C 0.55558 0.15995 0.92152 0.0
O410 O 0.56975 0.094 0.95296 0.0
O411 O 0.6131 0.09081 0.94272 0.0
O412 O 0.65378 0.15229 0.87346 0.0
O413 O 0.62612 0.16124 0.92369 0.0
O414 O 0.63353 0.06799 0.87858 0.0
O415 O 0.66311 0.10909 0.84055 0.0
O416 O 0.60606 0.10839 0.80035 0.0
O417 O 0.57828 0.13137 0.82164 0.0
O418 O 0.54547 0.08629 0.86512 0.0
O419 O 0.57693 0.06673 0.84558 0.0
C420 C 0.58853 0.08424 0.96778 0.0
O421 O 0.57032 0.16419 0.88419 0.0
O422 O 0.54853 0.13343 0.93966 0.0
C423 C 0.65261 0.17034 0.90362 0.0
C424 C 0.66454 0.064 0.82359 0.0
C425 C 0.67665 0.02787 0.76498 0.0
C426 C 0.69908 0.04694 0.79611 0.0
C427 C 0.69299 0.06483 0.8253 0.0
C428 C 0.64209 0.04515 0.79252 0.0
C429 C 0.6481 0.02716 0.76343 0.0
C430 C 0.65872 0.08262 0.85505 0.0
C431 C 0.58841 0.12056 0.78894 0.0
H432 H 0.55481 0.20656 1.05324 0.0
H433 H 0.52874 0.16809 0.99475 0.0
H434 H 0.61283 0.21229 0.91694 0.0
H435 H 0.6385 0.25058 0.97483 0.0
H436 H 0.72119 0.04786 0.79807 0.0
H437 H 0.71049 0.07929 0.84931 0.0
H438 H 0.62005 0.04442 0.79077 0.0
H439 H 0.63061 0.01312 0.73916 0.0
Tb440 Tb 0.45307 0.57808 0.23774 0.0
Tb441 Tb 0.5241 0.62301 0.21721 0.0
C442 C 0.49307 0.5552 0.1899 0.0
C443 C 0.37948 0.56077 0.286 0.0
C444 C 0.35899 0.591 0.34365 0.0
C445 C 0.35434 0.56154 0.35448 0.0
C446 C 0.3646 0.54657 0.32588 0.0
C447 C 0.38135 0.58882 0.27331 0.0
C448 C 0.37118 0.60375 0.30186 0.0
C449 C 0.39692 0.54898 0.26129 0.0
O450 O 0.47758 0.57193 0.29837 0.0
O451 O 0.52888 0.60662 0.28493 0.0
O452 O 0.51078 0.65074 0.25784 0.0
O453 O 0.45963 0.62533 0.24257 0.0
O454 O 0.57066 0.6347 0.21145 0.0
O455 O 0.55669 0.66841 0.19875 0.0
O456 O 0.50194 0.61289 0.14737 0.0
O457 O 0.45131 0.57675 0.1628 0.0
O458 O 0.46481 0.54912 0.19842 0.0
O459 O 0.51648 0.57691 0.21155 0.0
C460 C 0.50734 0.58504 0.31116 0.0
O461 O 0.40624 0.56065 0.22194 0.0
O462 O 0.41894 0.54802 0.28326 0.0
C463 C 0.48451 0.65056 0.25609 0.0
C464 C 0.60084 0.67518 0.16186 0.0
C465 C 0.64259 0.69934 1.09074 0.0
C466 C 0.65251 0.71009 0.13404 0.0
C467 C 0.63169 0.69809 0.16938 0.0
C468 C 0.59066 0.66456 1.11875 0.0
C469 C 0.61142 0.67656 1.0834 0.0
C470 C 0.57961 0.663 0.19941 0.0
C471 C 0.47326 0.59258 0.13261 0.0
H472 H 0.34532 0.55129 0.38671 0.0
H473 H 0.36288 0.525 0.33633 0.0
H474 H 0.39255 0.60038 0.24264 0.0
H475 H 0.37489 0.62635 0.29263 0.0
H476 H 0.67634 0.72761 0.14058 0.0
H477 H 0.63972 0.70656 0.20264 0.0
H478 H 0.56683 0.64686 1.11256 0.0
H479 H 0.60326 0.66733 1.0505 0.0
H480 H 0.46374 0.15585 0.27996 0.0
H481 H 0.55509 0.20175 0.33772 0.0
H482 H 0.46819 0.20518 0.26327 0.0
H483 H 0.56046 0.25223 0.31881 0.0
H484 H 0.54982 0.34053 0.31133 0.0
H485 H 0.54872 0.29208 0.32967 0.0
H486 H 0.4867 0.24753 0.21941 0.0
H487 H 0.4869 0.29512 0.20272 0.0
C488 C 0.48521 0.17655 0.28861 0.0
C489 C 0.50912 0.17414 0.31003 0.0
C490 C 0.48793 0.2054 0.27851 0.0
C491 C 0.51493 0.23373 0.28871 0.0
C492 C 0.53906 0.23145 0.31032 0.0
C493 C 0.53615 0.20226 0.32092 0.0
C494 C 0.53585 0.32034 0.29107 0.0
C495 C 0.51815 0.32218 0.25565 0.0
C496 C 0.53534 0.29228 0.30148 0.0
C497 C 0.51719 0.26481 0.2768 0.0
C498 C 0.50029 0.26721 0.24065 0.0
C499 C 0.50061 0.29501 0.23058 0.0
H500 H 0.35944 0.57162 0.67454 0.0
H501 H 0.31904 0.48192 0.61287 0.0
H502 H 0.31277 0.5742 0.65564 0.0
H503 H 0.27345 0.48468 0.59324 0.0
H504 H 0.18056 0.4778 0.60302 0.0
H505 H 0.22854 0.47968 0.62259 0.0
H506 H 0.27869 0.57864 0.60247 0.0
H507 H 0.22977 0.57676 0.58394 0.0
C508 C 0.34086 0.55257 0.65659 0.0
C509 C 0.34332 0.52643 0.64576 0.0
C510 C 0.31391 0.55404 0.6456 0.0
C511 C 0.28842 0.52936 0.62345 0.0
C512 C 0.29165 0.50386 0.61145 0.0
C513 C 0.31828 0.50237 0.6225 0.0
C514 C 0.20167 0.50013 0.60269 0.0
C515 C 0.20076 0.52707 0.59136 0.0
C516 C 0.22963 0.5012 0.61368 0.0
C517 C 0.2583 0.52925 0.61357 0.0
C518 C 0.25743 0.55647 0.60323 0.0
C519 C 0.22919 0.5554 0.59233 0.0
H520 H 0.84778 0.31322 0.9398 0.0
H521 H 0.80191 0.35631 1.00327 0.0
H522 H 0.79841 0.26857 0.92204 0.0
H523 H 0.75133 0.31141 0.9833 0.0
H524 H 0.66365 0.21123 0.97369 0.0
H525 H 0.71196 0.25869 0.99306 0.0
H526 H 0.75595 0.24654 0.87783 0.0
H527 H 0.70855 0.19907 0.85999 0.0
C528 C 0.82708 0.31354 0.94951 0.0
C529 C 0.82948 0.33911 0.97283 0.0
C530 C 0.79822 0.28758 0.93879 0.0
C531 C 0.76991 0.28568 0.95028 0.0
C532 C 0.77216 0.31132 0.97375 0.0
C533 C 0.80138 0.33747 0.98493 0.0
C534 C 0.68367 0.2187 0.95251 0.0
C535 C 0.6818 0.20064 0.91534 0.0
C536 C 0.71163 0.24627 0.96354 0.0
C537 C 0.73888 0.25702 0.93775 0.0
C538 C 0.73641 0.23924 0.89988 0.0
C539 C 0.70874 0.21173 0.88919 0.0
H540 H 0.5333 0.70781 0.27886 0.0
H541 H 0.43427 0.66082 0.26089 0.0
H542 H 0.53382 0.75561 0.29538 0.0
H543 H 0.43476 0.70926 0.27723 0.0
H544 H 0.44678 0.80032 0.34641 0.0
H545 H 0.44214 0.74973 0.33098 0.0
H546 H 0.52961 0.796 0.26191 0.0
H547 H 0.53413 0.84571 0.27722 0.0
C548 C 0.51145 0.70748 0.27841 0.0
C549 C 0.48377 0.67985 0.26817 0.0
C550 C 0.51177 0.73534 0.28766 0.0
C551 C 0.48441 0.73716 0.28733 0.0
C552 C 0.45646 0.70932 0.27813 0.0
C553 C 0.45618 0.68131 0.2685 0.0
C554 C 0.46492 0.79968 0.32767 0.0
C555 C 0.49089 0.82768 0.31329 0.0
C556 C 0.46226 0.77046 0.31868 0.0
C557 C 0.48569 0.7681 0.29552 0.0
C558 C 0.51124 0.79619 0.28066 0.0
C559 C 0.51374 0.8251 0.28926 0.0
H560 H 0.64922 0.43774 0.66581 0.0
H561 H 0.69498 0.53418 0.62914 0.0
H562 H 0.69497 0.43532 0.64278 0.0
H563 H 0.74085 0.53217 0.60735 0.0
H564 H 0.81098 0.5161 0.53377 0.0
H565 H 0.76404 0.51613 0.55522 0.0
H566 H 0.7469 0.44837 0.65716 0.0
H567 H 0.79383 0.44798 0.63479 0.0
C568 C 0.669 0.45851 0.65289 0.0
C569 C 0.66791 0.48612 0.64929 0.0
C570 C 0.69559 0.45721 0.63988 0.0
C571 C 0.72225 0.48351 0.62274 0.0
C572 C 0.72101 0.5111 0.61936 0.0
C573 C 0.69448 0.51235 0.63227 0.0
C574 C 0.79728 0.5011 0.56076 0.0
C575 C 0.80667 0.48205 0.58234 0.0
C576 C 0.77016 0.50127 0.57346 0.0
C577 C 0.7511 0.48245 0.60849 0.0
C578 C 0.76034 0.46307 0.6298 0.0
C579 C 0.78757 0.46292 0.61703 0.0
H580 H 0.28871 0.81933 0.91515 0.0
H581 H 0.34231 0.77416 0.93232 0.0
H582 H 0.24181 0.77164 0.93369 0.0
H583 H 0.29453 0.72544 0.95024 0.0
H584 H 0.20103 0.64834 1.0186 0.0
H585 H 0.2513 0.69452 1.00088 0.0
H586 H 0.20572 0.72337 0.90623 0.0
H587 H 0.15629 0.67826 0.92441 0.0
C588 C 0.29068 0.79918 0.92265 0.0
C589 C 0.31991 0.8012 0.9217 0.0
C590 C 0.26332 0.77134 0.93309 0.0
C591 C 0.26355 0.7438 0.94302 0.0
C592 C 0.29289 0.7458 0.94301 0.0
C593 C 0.32051 0.77392 0.93246 0.0
C594 C 0.20182 0.66447 0.9938 0.0
C595 C 0.1741 0.65925 0.97333 0.0
C596 C 0.23084 0.69113 0.98347 0.0
C597 C 0.23317 0.71367 0.95251 0.0
C598 C 0.20544 0.70758 0.93117 0.0
C599 C 0.17673 0.68121 0.94143 0.0
H600 H 0.58518 0.26366 1.07968 0.0
H601 H 0.65243 0.23664 1.04786 0.0
H602 H 0.60697 0.27809 0.15423 0.0
H603 H 0.67268 0.24862 1.12193 0.0
H604 H 0.59703 0.21947 0.27893 0.0
H605 H 0.59844 0.24714 0.21319 0.0
H606 H 0.6928 0.26905 0.18865 0.0
H607 H 0.69015 0.23884 0.25403 0.0
C608 C 0.60504 0.26144 1.08842 0.0
C609 C 0.61663 0.24835 1.05843 0.0
C610 C 0.61745 0.26945 0.13127 0.0
C611 C 0.64079 0.26327 0.1454 0.0
C612 C 0.65475 0.25381 1.11324 0.0
C613 C 0.64291 0.24662 1.07028 0.0
C614 C 0.61862 0.23128 0.26072 0.0
C615 C 0.64308 0.22604 0.27081 0.0
C616 C 0.61953 0.24743 0.22243 0.0
C617 C 0.64518 0.25906 0.19359 0.0
C618 C 0.67191 0.25887 0.2085 0.0
C619 C 0.67065 0.24191 0.24634 0.0
H620 H 0.31264 0.57708 0.40437 0.0
H621 H 0.40332 0.64949 0.36367 0.0
H622 H 0.31877 0.60357 0.47472 0.0
H623 H 0.41066 0.67463 0.43385 0.0
H624 H 0.37405 0.60813 0.60049 0.0
H625 H 0.34445 0.6024 0.53504 0.0
H626 H 0.40983 0.69713 0.49763 0.0
H627 H 0.44091 0.70179 0.56287 0.0
C628 C 0.33356 0.59903 0.41014 0.0
C629 C 0.35782 0.61079 0.37915 0.0
C630 C 0.33731 0.61417 0.45063 0.0
C631 C 0.36591 0.64054 0.46156 0.0
C632 C 0.38831 0.65436 0.42773 0.0
C633 C 0.3842 0.63973 0.38699 0.0
C634 C 0.38152 0.62823 0.57939 0.0
C635 C 0.41041 0.65502 0.58597 0.0
C636 C 0.36433 0.625 0.54125 0.0
C637 C 0.37556 0.64871 0.509 0.0
C638 C 0.40137 0.67764 0.52018 0.0
C639 C 0.41908 0.68056 0.5579 0.0
H640 H 0.7662 0.45361 0.91314 0.0
H641 H 0.78569 0.38061 0.94266 0.0
H642 H 0.73607 0.42486 0.84853 0.0
H643 H 0.75815 0.35317 0.87768 0.0
H644 H 0.7416 0.32113 0.74548 0.0
H645 H 0.72738 0.32956 0.81938 0.0
H646 H 0.75593 0.42403 0.78213 0.0
H647 H 0.76758 0.41459 0.70868 0.0
C648 C 0.7632 0.43096 0.9066 0.0
C649 C 0.77901 0.41976 0.93221 0.0
C650 C 0.74629 0.41458 0.8692 0.0
C651 C 0.74613 0.38747 0.85581 0.0
C652 C 0.75781 0.37406 0.88571 0.0
C653 C 0.77388 0.38997 0.92358 0.0
C654 C 0.74365 0.34325 0.75301 0.0
C655 C 0.75634 0.36741 0.7218 0.0
C656 C 0.73578 0.34829 0.79549 0.0
C657 C 0.74179 0.37799 0.80805 0.0
C658 C 0.75089 0.40082 0.7747 0.0
C659 C 0.75788 0.39549 0.73209 0.0
H660 H 0.35849 0.76378 1.04171 0.0
H661 H 0.43151 0.74602 1.07953 0.0
H662 H 0.33673 0.74996 1.11473 0.0
H663 H 0.40824 0.72938 0.15291 0.0
H664 H 0.41031 0.78479 0.27602 0.0
H665 H 0.41251 0.75845 0.21133 0.0
H666 H 0.317 0.73036 0.18131 0.0
H667 H 0.31604 0.7594 0.24553 0.0
C668 C 0.36904 0.75536 1.06524 0.0
C669 C 0.39723 0.7569 1.05546 0.0
C670 C 0.35636 0.74713 1.10764 0.0
C671 C 0.37139 0.73982 0.14124 0.0
C672 C 0.39685 0.73651 0.12894 0.0
C673 C 0.4101 0.7457 1.08672 0.0
C674 C 0.38931 0.77193 0.25675 0.0
C675 C 0.36334 0.77499 0.26508 0.0
C676 C 0.39048 0.75655 0.21904 0.0
C677 C 0.36547 0.74353 0.18894 0.0
C678 C 0.33745 0.7417 0.20203 0.0
C679 C 0.33663 0.75796 0.23923 0.0
H680 H 0.6903 0.41933 0.39927 0.0
H681 H 0.5964 0.34749 0.37169 0.0
H682 H 0.68775 0.39564 0.47135 0.0
H683 H 0.59304 0.32492 0.44328 0.0
H684 H 0.57124 0.30122 0.57463 0.0
H685 H 0.599 0.30374 0.5068 0.0
H686 H 0.66486 0.40005 0.53371 0.0
H687 H 0.63848 0.39671 0.60156 0.0
C688 C 0.6694 0.39808 0.40822 0.0
C689 C 0.64329 0.38577 0.38039 0.0
C690 C 0.66781 0.38451 0.44962 0.0
C691 C 0.63974 0.35902 0.46447 0.0
C692 C 0.61516 0.34451 0.43387 0.0
C693 C 0.61697 0.35768 0.39235 0.0
C694 C 0.59256 0.32239 0.56688 0.0
C695 C 0.60204 0.34905 0.59254 0.0
C696 C 0.60835 0.32403 0.52773 0.0
C697 C 0.63309 0.35265 0.51296 0.0
C698 C 0.64565 0.37763 0.54289 0.0
C699 C 0.63033 0.37576 0.58237 0.0
H700 H 0.21406 0.62291 0.94602 0.0
H701 H 0.2407 0.55598 0.91122 0.0
H702 H 0.2394 0.65283 0.88138 0.0
H703 H 0.2687 0.58738 0.84692 0.0
H704 H 0.23486 0.59786 0.7087 0.0
H705 H 0.24812 0.58822 0.78126 0.0
H706 H 0.2684 0.67936 0.82329 0.0
H707 H 0.25234 0.68767 0.75038 0.0
C708 C 0.22702 0.61552 0.9258 0.0
C709 C 0.2246 0.58663 0.93301 0.0
C710 C 0.24179 0.63287 0.8881 0.0
C711 C 0.25488 0.62185 0.85687 0.0
C712 C 0.25731 0.59577 0.86862 0.0
C713 C 0.24167 0.57789 0.90586 0.0
C714 C 0.24307 0.61626 0.73302 0.0
C715 C 0.24174 0.64315 0.72436 0.0
C716 C 0.25099 0.61083 0.77511 0.0
C717 C 0.25823 0.63244 0.80955 0.0
C718 C 0.26144 0.66141 0.79858 0.0
C719 C 0.25256 0.66643 0.75665 0.0
H720 H 0.37244 0.93623 1.01845 0.0
H721 H 0.46122 0.94237 1.02519 0.0
H722 H 0.38369 0.96564 1.08797 0.0
H723 H 0.47259 0.97185 1.09343 0.0
H724 H 0.50041 0.03841 0.21321 0.0
H725 H 0.48717 0.0097 0.14427 0.0
H726 H 0.39148 0.98235 0.16215 0.0
H727 H 0.40511 0.01251 0.23146 0.0
C728 C 0.39452 0.94361 1.03438 0.0
C729 C 0.41551 0.93577 1.01405 0.0
C730 C 0.40118 0.96093 1.07548 0.0
C731 C 0.42963 0.97237 1.09953 0.0
C732 C 0.45046 0.96455 1.07857 0.0
C733 C 0.4437 0.94695 1.03806 0.0
C734 C 0.47631 0.02639 0.20319 0.0
C735 C 0.45433 0.02877 0.23044 0.0
C736 C 0.46841 0.00904 0.16243 0.0
C737 C 0.43773 0.99196 0.14485 0.0
C738 C 0.41555 0.99441 0.17213 0.0
C739 C 0.42351 0.0121 0.21313 0.0
H740 H 0.43946 0.39644 0.35071 0.0
H741 H 0.5328 0.4706 0.37002 0.0
H742 H 0.42339 0.4114 0.41878 0.0
H743 H 0.5167 0.48574 0.43751 0.0
H744 H 0.48898 0.50454 0.57751 0.0
H745 H 0.5037 0.48709 0.51054 0.0
H746 H 0.40829 0.43607 0.4707 0.0
H747 H 0.39358 0.452 0.53929 0.0
C748 C 0.45697 0.41604 0.3691 0.0
C749 C 0.48805 0.43166 0.35261 0.0
C750 C 0.44747 0.42499 0.40925 0.0
C751 C 0.46822 0.45035 0.43679 0.0
C752 C 0.49922 0.46593 0.41992 0.0
C753 C 0.50872 0.45707 0.37981 0.0
C754 C 0.47095 0.48998 0.55441 0.0
C755 C 0.43981 0.48077 0.56565 0.0
C756 C 0.47961 0.47994 0.51464 0.0
C757 C 0.45806 0.46047 0.48158 0.0
C758 C 0.42668 0.45097 0.49317 0.0
C759 C 0.41795 0.46045 0.53358 0.0
H760 H 0.07742 0.53045 0.70727 0.0
H761 H 0.04952 0.43697 0.67116 0.0
H762 H 0.04858 0.51182 0.77707 0.0
H763 H 0.02049 0.41813 0.74081 0.0
H764 H 0.95039 0.38603 0.8625 0.0
H765 H 0.97981 0.40342 0.79252 0.0
H766 H 0.03905 0.4928 0.84964 0.0
H767 H 0.00785 0.47627 0.91804 0.0
C768 C 0.06531 0.5058 0.71376 0.0
C769 C 0.06683 0.48583 0.68153 0.0
C770 C 0.04837 0.49475 0.75494 0.0
C771 C 0.03115 0.46273 0.76719 0.0
C772 C 0.03255 0.4428 0.73463 0.0
C773 C 0.04979 0.4539 0.69372 0.0
C774 C 0.96954 0.4096 0.8605 0.0
C775 C 0.97574 0.42941 0.8977 0.0
C776 C 0.9869 0.41987 0.81942 0.0
C777 C 0.01227 0.45061 0.81261 0.0
C778 C 0.01919 0.46971 0.85078 0.0
C779 C 1.00125 0.45984 0.89116 0.0
H780 H 0.49818 0.95393 0.20508 0.0
H781 H 0.59455 0.99835 0.23999 0.0
H782 H 0.51176 0.98226 0.13516 0.0
H783 H 0.60789 0.02864 0.17025 0.0
H784 H 0.62692 0.06935 1.02103 0.0
H785 H 0.61629 0.0402 1.0912 0.0
H786 H 0.52376 0.0255 1.09069 0.0
H787 H 0.53464 0.05501 1.02172 0.0
C788 C 0.52243 0.97015 0.19878 0.0
C789 C 0.54476 0.97294 0.23077 0.0
C790 C 0.53032 0.98735 0.1577 0.0
C791 C 0.56107 0.0097 0.14486 0.0
C792 C 0.5837 0.01238 0.1767 0.0
C793 C 0.57588 0.99464 0.21786 0.0
C794 C 0.60418 0.06015 1.03567 0.0
C795 C 0.58201 0.06562 1.01347 0.0
C796 C 0.59791 0.04303 1.07709 0.0
C797 C 0.56869 0.02927 1.09947 0.0
C798 C 0.54659 0.03466 1.07678 0.0
C799 C 0.55302 0.05223 1.036 0.0
H800 H 0.54645 0.55107 0.59962 0.0
H801 H 0.58368 0.50582 0.52147 0.0
H802 H 0.53066 0.56683 0.53121 0.0
H803 H 0.57065 0.52414 0.45301 0.0
H804 H 0.47504 0.55936 0.39305 0.0
H805 H 0.49179 0.545 0.46199 0.0
H806 H 0.57954 0.57116 0.40195 0.0
H807 H 0.56342 0.5869 0.33403 0.0
C808 C 0.55171 0.54449 0.56806 0.0
C809 C 0.56615 0.52604 0.56822 0.0
C810 C 0.54249 0.55381 0.52786 0.0
C811 C 0.54844 0.54691 0.48426 0.0
C812 C 0.56465 0.53009 0.48449 0.0
C813 C 0.57227 0.51927 0.5247 0.0
C814 C 0.49808 0.56241 0.39403 0.0
C815 C 0.51741 0.57497 0.3558 0.0
C816 C 0.50798 0.55408 0.43459 0.0
C817 C 0.53765 0.55657 0.43986 0.0
C818 C 0.55662 0.56843 0.40123 0.0
C819 C 0.54715 0.57774 0.36132 0.0
H820 H 0.03295 0.52887 0.88619 0.0
H821 H 0.01948 0.60684 0.88936 0.0
H822 H 0.00385 0.51152 0.81657 0.0
H823 H 0.99003 0.58968 0.81934 0.0
H824 H 0.94727 0.56116 0.6749 0.0
H825 H 0.9758 0.5793 0.74505 0.0
H826 H 0.96605 0.4895 0.76564 0.0
H827 H 0.93794 0.47181 0.69547 0.0
C828 C 0.02369 0.54245 0.87235 0.0
C829 C 0.02937 0.5695 0.89558 0.0
C830 C 0.00647 0.53227 0.83143 0.0
C831 C 0.99337 0.54837 0.80956 0.0
C832 C 0.99911 0.57575 0.83281 0.0
C833 C 0.01633 0.58586 0.87419 0.0
C834 C 0.95102 0.54498 0.69411 0.0
C835 C 0.93938 0.51444 0.6773 0.0
C836 C 0.96775 0.55561 0.73559 0.0
C837 C 0.97447 0.53666 0.76386 0.0
C838 C 0.96269 0.50604 0.74681 0.0
C839 C 0.94589 0.49542 0.70545 0.0
H840 H 0.45614 0.97206 0.40358 0.0
H841 H 0.4559 0.04315 0.48406 0.0
H842 H 0.47142 0.95399 0.46852 0.0
H843 H 0.47852 0.0294 0.54527 0.0
H844 H 0.54128 0.95896 0.4857 0.0
H845 H 0.51861 0.97297 0.5461 0.0
H846 H 0.52509 0.04759 0.46689 0.0
H847 H 0.5403 0.02903 0.40264 0.0
C848 C 0.45861 0.98329 0.43523 0.0
C849 C 0.45778 0.01072 0.43807 0.0
C850 C 0.46693 0.97282 0.47308 0.0
C851 C 0.48139 0.99405 0.50831 0.0
C852 C 0.47073 0.01467 0.51623 0.0
C853 C 0.45892 0.0233 0.48035 0.0
C854 C 0.53798 0.97859 0.48119 0.0
C855 C 0.53892 0.99077 0.43848 0.0
C856 C 0.52622 0.98743 0.51664 0.0
C857 C 0.51555 0.008 0.50795 0.0
C858 C 0.52964 0.02882 0.47201 0.0
C859 C 0.53787 0.01805 0.43464 0.0
H860 H 0.41796 0.44592 0.7763 0.0
H861 H 0.48909 0.53999 0.80471 0.0
H862 H 0.42532 0.43057 0.85023 0.0
H863 H 0.49394 0.52326 0.8791 0.0
H864 H 0.5618 0.52316 0.82279 0.0
H865 H 0.53002 0.50595 0.88918 0.0
H866 H 0.46563 0.42153 0.8244 0.0
H867 H 0.49688 0.43807 0.75736 0.0
C868 C 0.43566 0.46318 0.7976 0.0
C869 C 0.45655 0.49335 0.78195 0.0
C870 C 0.43895 0.45473 0.84083 0.0
C871 C 0.46697 0.47438 0.86288 0.0
C872 C 0.47735 0.50613 0.85647 0.0
C873 C 0.47545 0.5157 0.81342 0.0
C874 C 0.54032 0.50118 0.82199 0.0
C875 C 0.52938 0.48394 0.7824 0.0
C876 C 0.52277 0.49058 0.86086 0.0
C877 C 0.49198 0.46607 0.85741 0.0
C878 C 0.48679 0.4438 0.82461 0.0
C879 C 0.50398 0.45369 0.78537 0.0
H880 H 0.03199 0.48641 1.07049 0.0
H881 H 0.95913 0.41363 0.14816 0.0
H882 H 0.04908 0.51882 0.13609 0.0
H883 H 0.97214 0.44906 0.21021 0.0
H884 H 0.0438 0.58323 0.14988 0.0
H885 H 0.03017 0.54678 0.21109 0.0
H886 H 0.95447 0.47803 0.13419 0.0
H887 H 0.97243 0.51158 1.06932 0.0
C888 C 0.02024 0.47709 1.10177 0.0
C889 C 0.99263 0.44872 1.10357 0.0
C890 C 0.03009 0.49537 0.13998 0.0
C891 C 0.00828 0.48801 0.17457 0.0
C892 C 0.98739 0.45648 0.18165 0.0
C893 C 0.97924 0.43656 0.14533 0.0
C894 C 0.02391 0.56025 0.14618 0.0
C895 C 0.0112 0.54877 1.10388 0.0
C896 C 0.01534 0.53976 0.18206 0.0
C897 C 0.99455 0.50835 0.17416 0.0
C898 C 0.97336 0.50143 0.13874 0.0
C899 C 0.98375 0.52034 1.101 0.0
H900 H 0.04482 0.45803 0.47382 0.0
H901 H 0.05923 0.54992 0.45393 0.0
H902 H 0.0199 0.44288 0.40179 0.0
H903 H 0.03397 0.5338 0.38191 0.0
H904 H 0.95714 0.51806 0.42909 0.0
H905 H 0.98192 0.51088 0.36496 0.0
H906 H 0.96881 0.42595 0.42041 0.0
H907 H 0.94301 0.43207 0.48449 0.0
C908 C 0.04187 0.47476 0.45481 0.0
C909 C 0.05012 0.50403 0.47238 0.0
C910 C 0.02873 0.4665 0.41256 0.0
C911 C 0.0181 0.48495 0.39273 0.0
C912 C 0.03625 0.51696 0.40178 0.0
C913 C 0.04982 0.5261 0.44371 0.0
C914 C 0.96031 0.49818 0.42852 0.0
C915 C 0.95214 0.47781 0.46513 0.0
C916 C 0.97334 0.49333 0.39072 0.0
C917 C 0.98358 0.47184 0.39333 0.0
C918 C 0.96623 0.44618 0.42169 0.0
C919 C 0.95236 0.45008 0.45939 0.0
H920 H 0.41342 0.96 0.8049 0.0
H921 H 0.48782 0.94049 0.78872 0.0
H922 H 0.42623 0.98595 0.73306 0.0
H923 H 0.49929 0.96628 0.71666 0.0
H924 H 0.56518 0.04412 0.77081 0.0
H925 H 0.53276 0.01835 0.70731 0.0
H926 H 0.4621 0.03469 0.75962 0.0
H927 H 0.4946 0.0611 0.82281 0.0
C928 C 0.43313 0.96212 0.78693 0.0
C929 C 0.45267 0.95224 0.80563 0.0
C930 C 0.43968 0.9758 0.7448 0.0
C931 C 0.46919 0.98547 0.72705 0.0
C932 C 0.48053 0.9652 0.736 0.0
C933 C 0.47478 0.9513 0.77792 0.0
C934 C 0.54228 0.04145 0.76955 0.0
C935 C 0.53063 0.05091 0.805 0.0
C936 C 0.52412 0.02774 0.73212 0.0
C937 C 0.49264 0.01919 0.73308 0.0
C938 C 0.48469 0.03669 0.76128 0.0
C939 C 0.50286 0.05103 0.79852 0.0
H940 H 0.54525 0.58896 0.13992 0.0
H941 H 0.45249 0.51035 0.13283 0.0
H942 H 0.55708 0.57482 1.06865 0.0
H943 H 0.46517 0.49682 1.06155 0.0
H944 H 0.48223 0.43572 1.10335 0.0
H945 H 0.48818 0.46844 1.04018 0.0
H946 H 0.57303 0.54114 1.09564 0.0
H947 H 0.56759 0.50869 0.15891 0.0
C948 C 0.52766 0.56811 1.12389 0.0
C949 C 0.4993 0.54794 0.1451 0.0
C950 C 0.53393 0.56077 1.08198 0.0
C951 C 0.51447 0.53062 1.06616 0.0
C952 C 0.48294 0.51719 1.0783 0.0
C953 C 0.47579 0.52415 1.1199 0.0
C954 C 0.50188 0.45907 1.10276 0.0
C955 C 0.52226 0.47136 0.13926 0.0
C956 C 0.50602 0.4774 1.0655 0.0
C957 C 0.52742 0.50926 1.06808 0.0
C958 C 0.55311 0.51799 1.09652 0.0
C959 C 0.54965 0.49982 0.13375 0.0
H960 H 0.30339 0.0079 0.75252 0.0
H961 H 0.29796 0.93929 0.66055 0.0
H962 H 0.29616 0.0358 0.69134 0.0
H963 H 0.29227 0.96769 0.59943 0.0
H964 H 0.29224 0.01914 0.4903 0.0
H965 H 0.26756 0.98988 0.55742 0.0
H966 H 0.33397 0.06667 0.6369 0.0
H967 H 0.35742 0.09634 0.56999 0.0
C968 C 0.29992 0.99839 0.71938 0.0
C969 C 0.30202 0.97185 0.71105 0.0
C970 C 0.2959 0.01443 0.68434 0.0
C971 C 0.29408 0.0043 0.6404 0.0
C972 C 0.29333 0.97617 0.63279 0.0
C973 C 0.29721 0.96012 0.66775 0.0
C974 C 0.30052 0.03036 0.52211 0.0
C975 C 0.32743 0.0596 0.52506 0.0
C976 C 0.28655 0.01346 0.56061 0.0
C977 C 0.29957 0.02544 0.60242 0.0
C978 C 0.32344 0.0565 0.60532 0.0
C979 C 0.33718 0.07349 0.56688 0.0
H980 H 0.30286 0.29788 1.09195 0.0
H981 H 0.36652 0.28429 1.01156 0.0
H982 H 0.27428 0.29646 1.02561 0.0
H983 H 0.33923 0.28472 0.94521 0.0
H984 H 0.29638 0.36905 0.91095 0.0
H985 H 0.29355 0.33939 0.97631 0.0
H986 H 0.29836 0.27143 0.89357 0.0
H987 H 0.30278 0.30223 0.82806 0.0
C988 C 0.31015 0.29351 1.0603 0.0
C989 C 0.33756 0.29227 1.05669 0.0
C990 C 0.29389 0.29295 1.02221 0.0
C991 C 0.30506 0.2916 0.97998 0.0
C992 C 0.32995 0.28601 0.97706 0.0
C993 C 0.34597 0.28623 1.01512 0.0
C994 C 0.29621 0.34746 0.90668 0.0
C995 C 0.30084 0.33848 0.86468 0.0
C996 C 0.29405 0.33008 0.94415 0.0
C997 C 0.29638 0.30327 0.9403 0.0
C998 C 0.29715 0.29231 0.89768 0.0
C999 C 0.2995 0.30986 0.86013 0.0
H1000 H 0.90834 0.26722 0.23966 0.0
H1001 H 0.98507 0.27959 0.15879 0.0
H1002 H 0.93882 0.27462 0.30608 0.0
H1003 H 0.01515 0.28539 0.22545 0.0
H1004 H 0.06666 0.36653 0.32763 0.0
H1005 H 0.03759 0.33253 0.26692 0.0
H1006 H 0.97009 0.26772 0.36001 0.0
H1007 H 0.99862 0.30271 0.42078 0.0
C1008 C 0.93129 0.2702 0.23623 0.0
C1009 C 0.94475 0.27398 0.19413 0.0
C1010 C 0.94873 0.27413 0.27438 0.0
C1011 C 0.97985 0.28166 0.27095 0.0
C1012 C 0.99153 0.28051 0.22903 0.0
C1013 C 0.97415 0.27686 0.19081 0.0
C1014 C 0.04583 0.34484 0.33517 0.0
C1015 C 0.03448 0.33769 0.37873 0.0
C1016 C 0.02939 0.32498 0.30043 0.0
C1017 C 1.00126 0.29745 0.30854 0.0
C1018 C 0.99146 0.28894 0.35265 0.0
C1019 C 0.00789 0.30893 0.38746 0.0
H1020 H 0.72962 0.04678 0.71693 0.0
H1021 H 0.63856 0.96805 0.74035 0.0
H1022 H 0.73658 0.01994 0.65442 0.0
H1023 H 0.64487 0.94178 0.67726 0.0
H1024 H 0.6512 0.89776 0.56178 0.0
H1025 H 0.66899 0.9184 0.6362 0.0
H1026 H 0.71184 0.01138 0.58308 0.0
H1027 H 0.6947 0.9908 0.5093 0.0
C1028 C 0.71143 0.02344 0.7094 0.0
C1029 C 0.68325 0.00971 0.73275 0.0
C1030 C 0.71537 0.00813 0.67354 0.0
C1031 C 0.69117 0.9789 0.66044 0.0
C1032 C 0.66415 0.96415 0.68649 0.0
C1033 C 0.66025 0.9794 0.72226 0.0
C1034 C 0.66546 0.92257 0.56599 0.0
C1035 C 0.67093 0.94272 0.53012 0.0
C1036 C 0.67559 0.93439 0.60851 0.0
C1037 C 0.69099 0.96651 0.61574 0.0
C1038 C 0.70005 0.98652 0.57884 0.0
C1039 C 0.69013 0.9747 0.53634 0.0
H1040 H 0.63482 0.71493 1.00689 0.0
H1041 H 0.70072 0.70686 1.09077 0.0
H1042 H 0.66423 0.717 0.94186 0.0
H1043 H 0.73119 0.71039 1.02562 0.0
H1044 H 0.70452 0.70494 0.82711 0.0
H1045 H 0.70744 0.73473 0.8926 0.0
H1046 H 0.71509 0.66802 0.9755 0.0
H1047 H 0.71367 0.63931 0.91011 0.0
C1048 C 0.6562 0.71464 1.01144 0.0
C1049 C 0.66492 0.70967 1.05359 0.0
C1050 C 0.67343 0.71634 0.97418 0.0
C1051 C 0.69976 0.71315 0.97847 0.0
C1052 C 0.71066 0.71228 1.02123 0.0
C1053 C 0.69328 0.71041 1.05856 0.0
C1054 C 0.70824 0.69747 0.85918 0.0
C1055 C 0.70785 0.66929 0.86383 0.0
C1056 C 0.70974 0.71444 0.89672 0.0
C1057 C 0.71053 0.70328 0.93934 0.0
C1058 C 0.71438 0.67735 0.94329 0.0
C1059 C 0.71309 0.66054 0.90582 0.0
H1060 H 0.10169 0.7339 0.23599 0.0
H1061 H 0.02443 0.72508 0.15934 0.0
H1062 H 0.07348 0.72834 0.30399 0.0
H1063 H 0.99677 0.72128 0.22758 0.0
H1064 H 0.94478 0.64069 0.33086 0.0
H1065 H 0.97339 0.67427 0.26938 0.0
H1066 H 0.04471 0.73668 0.36003 0.0
H1067 H 0.01639 0.70202 0.42162 0.0
C1068 C 0.07918 0.7321 0.23379 0.0
C1069 C 0.06476 0.72866 0.19243 0.0
C1070 C 0.06306 0.72925 0.27287 0.0
C1071 C 0.03236 0.72323 0.27114 0.0
C1072 C 0.02003 0.72495 0.22988 0.0
C1073 C 0.03604 0.72744 0.19073 0.0
C1074 C 0.96635 0.6618 0.33772 0.0
C1075 C 0.97878 0.66831 0.38074 0.0
C1076 C 0.98257 0.68145 0.30256 0.0
C1077 C 0.0116 0.70811 0.30966 0.0
C1078 C 0.02262 0.71611 0.3534 0.0
C1079 C 0.00635 0.69634 0.38868 0.0
H1080 H 0.47674 0.10205 0.53118 0.0
H1081 H 0.55985 0.1051 0.4865 0.0
H1082 H 0.49519 0.10715 0.60869 0.0
H1083 H 0.57795 0.1099 0.56244 0.0
H1084 H 0.60419 0.10161 0.70868 0.0
H1085 H 0.58434 0.09649 0.63289 0.0
H1086 H 0.52314 0.12831 0.67618 0.0
H1087 H 0.54317 0.13331 0.75221 0.0
C1088 C 0.49902 0.10392 0.53704 0.0
C1089 C 0.51616 0.10305 0.4997 0.0
C1090 C 0.50997 0.10691 0.58272 0.0
C1091 C 0.53882 0.10898 0.59501 0.0
C1092 C 0.55565 0.1081 0.55742 0.0
C1093 C 0.54494 0.10543 0.51225 0.0
C1094 C 0.58674 0.10798 0.7026 0.0
C1095 C 0.57642 0.11859 0.73905 0.0
C1096 C 0.57496 0.10501 0.65776 0.0
C1097 C 0.55147 0.11206 0.64512 0.0
C1098 C 0.54087 0.1223 0.68187 0.0
C1099 C 0.55287 0.12551 0.72671 0.0
H1100 H 0.39204 0.49435 0.86459 0.0
H1101 H 0.46311 0.58557 0.82604 0.0
H1102 H 0.40441 0.50869 0.94327 0.0
H1103 H 0.47565 0.59987 0.90402 0.0
H1104 H 0.50969 0.61835 1.05345 0.0
H1105 H 0.49711 0.60373 0.97501 0.0
H1106 H 0.40615 0.53129 1.01293 0.0
H1107 H 0.41875 0.54612 1.0909 0.0
C1108 C 0.41017 0.51769 0.87219 0.0
C1109 C 0.42579 0.53845 0.83622 0.0
C1110 C 0.41756 0.52622 0.91859 0.0
C1111 C 0.44155 0.55609 0.93317 0.0
C1112 C 0.45723 0.5766 0.89696 0.0
C1113 C 0.44962 0.56822 0.8508 0.0
C1114 C 0.48676 0.59943 1.04561 0.0
C1115 C 0.46551 0.58425 1.08117 0.0
C1116 C 0.47926 0.59074 0.99932 0.0
C1117 C 0.45 0.56577 0.98444 0.0
C1118 C 0.42901 0.55043 1.02029 0.0
C1119 C 0.43637 0.55935 1.06637 0.0
H1120 H 0.89552 0.45609 0.15072 0.0
H1121 H 0.90231 0.37795 0.19529 0.0
H1122 H 0.89073 0.46883 0.22676 0.0
H1123 H 0.89736 0.39078 0.27289 0.0
H1124 H 0.87077 0.41062 0.41624 0.0
H1125 H 0.87546 0.39611 0.34006 0.0
H1126 H 0.90535 0.48906 0.29656 0.0
H1127 H 0.90048 0.50327 0.37254 0.0
C1128 C 0.89599 0.44118 0.17649 0.0
C1129 C 0.8994 0.41549 0.16407 0.0
C1130 C 0.89339 0.4489 0.22164 0.0
C1131 C 0.89364 0.43153 0.2591 0.0
C1132 C 0.89669 0.40543 0.2469 0.0
C1133 C 0.89959 0.39778 0.20125 0.0
C1134 C 0.87802 0.42817 0.39064 0.0
C1135 C 0.88451 0.45844 0.40284 0.0
C1136 C 0.88108 0.41971 0.34579 0.0
C1137 C 0.89071 0.44075 0.30907 0.0
C1138 C 0.89729 0.47108 0.32155 0.0
C1139 C 0.89446 0.47957 0.36641 0.0
H1140 H 0.43893 0.89663 0.48659 0.0
H1141 H 0.52223 0.90028 0.53248 0.0
H1142 H 0.42075 0.89194 0.56243 0.0
H1143 H 0.50372 0.89527 0.60975 0.0
H1144 H 0.45668 0.86946 0.75272 0.0
H1145 H 0.47623 0.87439 0.67678 0.0
H1146 H 0.41382 0.90485 0.63298 0.0
H1147 H 0.39435 0.8998 0.70907 0.0
C1148 C 0.45386 0.89647 0.51259 0.0
C1149 C 0.48274 0.89899 0.50045 0.0
C1150 C 0.4431 0.89385 0.55766 0.0
C1151 C 0.45996 0.89314 0.59549 0.0
C1152 C 0.48889 0.89535 0.58358 0.0
C1153 C 0.4999 0.89829 0.53803 0.0
C1154 C 0.44658 0.87696 0.72718 0.0
C1155 C 0.42284 0.88351 0.73954 0.0
C1156 C 0.45833 0.88013 0.68236 0.0
C1157 C 0.44732 0.89002 0.6455 0.0
C1158 C 0.42354 0.89666 0.65803 0.0
C1159 C 0.41195 0.89368 0.70298 0.0
H1160 H 0.54262 0.42042 0.82518 0.0
H1161 H 0.6177 0.50881 0.86582 0.0
H1162 H 0.52905 0.40535 0.90283 0.0
H1163 H 0.60433 0.49368 0.94415 0.0
H1164 H 0.58661 0.45327 1.09087 0.0
H1165 H 0.60064 0.46891 1.01316 0.0
H1166 H 0.50772 0.40259 0.97314 0.0
H1167 H 0.49381 0.38718 1.05103 0.0
C1168 C 0.55679 0.43692 0.85037 0.0
C1169 C 0.58202 0.46615 0.83657 0.0
C1170 C 0.54859 0.42813 0.89627 0.0
C1171 C 0.56508 0.44763 0.93287 0.0
C1172 C 0.59049 0.47694 0.91906 0.0
C1173 C 0.59844 0.48592 0.87292 0.0
C1174 C 0.5689 0.44155 1.06585 0.0
C1175 C 0.53875 0.41807 1.07973 0.0
C1176 C 0.57709 0.45095 1.02002 0.0
C1177 C 0.55593 0.43752 0.98378 0.0
C1178 C 0.52571 0.414 0.99782 0.0
C1179 C 0.51744 0.40486 1.04375 0.0
H1180 H 0.13168 0.59203 0.41737 0.0
H1181 H 0.10403 0.4993 0.37762 0.0
H1182 H 0.12693 0.6054 0.34053 0.0
H1183 H 0.09899 0.51239 0.30067 0.0
H1184 H 0.10715 0.54354 0.15333 0.0
H1185 H 0.11191 0.5314 0.22996 0.0
H1186 H 0.10638 0.61048 0.27278 0.0
H1187 H 0.10148 0.62268 0.19468 0.0
C1188 C 0.12479 0.57418 0.39249 0.0
C1189 C 0.11895 0.5443 0.40609 0.0
C1190 C 0.12172 0.58199 0.34718 0.0
C1191 C 0.11259 0.56062 0.31122 0.0
C1192 C 0.10662 0.53061 0.32502 0.0
C1193 C 0.10957 0.52277 0.37044 0.0
C1194 C 0.10689 0.55879 0.17851 0.0
C1195 C 0.10382 0.58457 0.165 0.0
C1196 C 0.10951 0.55144 0.22401 0.0
C1197 C 0.10957 0.56929 0.26077 0.0
C1198 C 0.10682 0.59546 0.24745 0.0
C1199 C 0.10396 0.60275 0.20147 0.0
loop_
_geom_bond_atom_site_label_1
_geom_bond_atom_site_label_2
_geom_bond_distance
_geom_bond_site_symmetry_2
_ccdc_geom_bond_type
Tb0 C9 2.764 . S
Tb0 O10 2.325 . S
Tb0 O13 2.303 . S
Tb0 O17 2.322 . S
Tb0 O18 2.349 . S
Tb0 O21 2.415 . S
Tb0 O22 2.399 . S
Tb1 O11 2.322 . S
Tb1 O12 2.349 . S
Tb1 O14 2.415 . S
Tb1 O15 2.399 . S
Tb1 O16 2.325 . S
Tb1 O19 2.303 . S
Tb1 C30 2.764 . S
C2 O18 1.261 . S
C2 O19 1.257 . S
C3 C6 1.358 . S
C3 C7 1.332 . S
C3 C9 1.504 . S
C4 C5 1.373 . S
C4 C8 1.308 . S
C5 C4 1.373 . S
C5 C6 1.429 . S
C5 H32 0.932 . S
C6 C3 1.358 . S
C6 C5 1.429 . S
C6 H33 0.930 . S
C7 C3 1.332 . S
C7 C8 1.394 . S
C7 H34 0.932 . S
C8 C4 1.308 . S
C8 C7 1.394 . S
C8 H35 0.929 . S
C9 Tb0 2.764 . S
C9 C3 1.504 . S
C9 O21 1.239 . S
C9 O22 1.263 . S
O10 Tb0 2.325 . S
O10 C20 1.236 . S
O11 Tb1 2.322 . S
O11 C20 1.257 . S
O12 Tb1 2.349 . S
O12 C23 1.261 . S
O13 Tb0 2.303 . S
O13 C23 1.257 . S
O14 Tb1 2.415 . S
O14 C30 1.239 . S
O15 Tb1 2.399 . S
O15 C30 1.263 . S
O16 Tb1 2.325 . S
O16 C31 1.236 . S
O17 Tb0 2.322 . S
O17 C31 1.257 . S
O18 Tb0 2.349 . S
O18 C2 1.261 . S
O19 Tb1 2.303 . S
O19 C2 1.257 . S
C20 O10 1.236 . S
C20 O11 1.257 . S
O21 Tb0 2.415 . S
O21 C9 1.239 . S
O22 Tb0 2.399 . S
O22 C9 1.263 . S
C23 O12 1.261 . S
C23 O13 1.257 . S
C24 C27 1.358 . S
C24 C28 1.332 . S
C24 C30 1.504 . S
C25 C26 1.373 . S
C25 C29 1.308 . S
C26 C25 1.373 . S
C26 C27 1.429 . S
C26 H36 0.932 . S
C27 C24 1.358 . S
C27 C26 1.429 . S
C27 H37 0.930 . S
C28 C24 1.332 . S
C28 C29 1.394 . S
C28 H38 0.932 . S
C29 C25 1.308 . S
C29 C28 1.394 . S
C29 H39 0.929 . S
C30 Tb1 2.764 . S
C30 O14 1.239 . S
C30 O15 1.263 . S
C30 C24 1.504 . S
C31 O16 1.236 . S
C31 O17 1.257 . S
H32 C5 0.932 . S
H33 C6 0.930 . S
H34 C7 0.932 . S
H35 C8 0.929 . S
H36 C26 0.932 . S
H37 C27 0.930 . S
H38 C28 0.932 . S
H39 C29 0.929 . S
Tb40 C49 2.764 . S
Tb40 O50 2.325 . S
Tb40 O53 2.303 . S
Tb40 O57 2.322 . S
Tb40 O58 2.349 . S
Tb40 O61 2.415 . S
Tb40 O62 2.399 . S
Tb41 O51 2.322 . S
Tb41 O52 2.349 . S
Tb41 O54 2.415 . S
Tb41 O55 2.399 . S
Tb41 O56 2.325 . S
Tb41 O59 2.303 . S
Tb41 C70 2.764 . S
C42 O58 1.261 . S
C42 O59 1.257 . S
C43 C46 1.358 . S
C43 C47 1.332 . S
C43 C49 1.504 . S
C44 C45 1.373 . S
C44 C48 1.308 . S
C45 C44 1.373 . S
C45 C46 1.429 . S
C45 H72 0.932 . S
C46 C43 1.358 . S
C46 C45 1.429 . S
C46 H73 0.930 . S
C47 C43 1.332 . S
C47 C48 1.394 . S
C47 H74 0.932 . S
C48 C44 1.308 . S
C48 C47 1.394 . S
C48 H75 0.929 . S
C49 Tb40 2.764 . S
C49 C43 1.504 . S
C49 O61 1.239 . S
C49 O62 1.263 . S
O50 Tb40 2.325 . S
O50 C60 1.236 . S
O51 Tb41 2.322 . S
O51 C60 1.257 . S
O52 Tb41 2.349 . S
O52 C63 1.261 . S
O53 Tb40 2.303 . S
O53 C63 1.257 . S
O54 Tb41 2.415 . S
O54 C70 1.239 . S
O55 Tb41 2.399 . S
O55 C70 1.263 . S
O56 Tb41 2.325 . S
O56 C71 1.236 . S
O57 Tb40 2.322 . S
O57 C71 1.257 . S
O58 Tb40 2.349 . S
O58 C42 1.261 . S
O59 Tb41 2.303 . S
O59 C42 1.257 . S
C60 O50 1.236 . S
C60 O51 1.257 . S
O61 Tb40 2.415 . S
O61 C49 1.239 . S
O62 Tb40 2.399 . S
O62 C49 1.263 . S
C63 O52 1.261 . S
C63 O53 1.257 . S
C64 C67 1.358 . S
C64 C68 1.332 . S
C64 C70 1.504 . S
C65 C66 1.373 . S
C65 C69 1.308 . S
C66 C65 1.373 . S
C66 C67 1.429 . S
C66 H76 0.932 . S
C67 C64 1.358 . S
C67 C66 1.429 . S
C67 H77 0.930 . S
C68 C64 1.332 . S
C68 C69 1.394 . S
C68 H78 0.932 . S
C69 C65 1.308 . S
C69 C68 1.394 . S
C69 H79 0.929 . S
C70 Tb41 2.764 . S
C70 O54 1.239 . S
C70 O55 1.263 . S
C70 C64 1.504 . S
C71 O56 1.236 . S
C71 O57 1.257 . S
H72 C45 0.932 . S
H73 C46 0.930 . S
H74 C47 0.932 . S
H75 C48 0.929 . S
H76 C66 0.932 . S
H77 C67 0.930 . S
H78 C68 0.932 . S
H79 C69 0.929 . S
Tb80 C89 2.764 . S
Tb80 O90 2.325 . S
Tb80 O93 2.303 . S
Tb80 O97 2.322 . S
Tb80 O98 2.349 . S
Tb80 O101 2.415 . S
Tb80 O102 2.399 . S
Tb81 O91 2.322 . S
Tb81 O92 2.349 . S
Tb81 O94 2.415 . S
Tb81 O95 2.399 . S
Tb81 O96 2.325 . S
Tb81 O99 2.303 . S
Tb81 C110 2.764 1_556 S
C82 O98 1.261 . S
C82 O99 1.257 . S
C83 C86 1.358 . S
C83 C87 1.332 . S
C83 C89 1.504 . S
C84 C85 1.373 . S
C84 C88 1.308 . S
C85 C84 1.373 . S
C85 C86 1.429 . S
C85 H112 0.932 . S
C86 C83 1.358 . S
C86 C85 1.429 . S
C86 H113 0.930 . S
C87 C83 1.332 . S
C87 C88 1.394 . S
C87 H114 0.932 . S
C88 C84 1.308 . S
C88 C87 1.394 . S
C88 H115 0.929 . S
C89 Tb80 2.764 . S
C89 C83 1.504 . S
C89 O101 1.239 . S
C89 O102 1.263 . S
O90 Tb80 2.325 . S
O90 C100 1.236 . S
O91 Tb81 2.322 . S
O91 C100 1.257 . S
O92 Tb81 2.349 . S
O92 C103 1.261 . S
O93 Tb80 2.303 . S
O93 C103 1.257 . S
O94 Tb81 2.415 . S
O94 C110 1.239 1_556 S
O95 Tb81 2.399 . S
O95 C110 1.263 1_556 S
O96 Tb81 2.325 . S
O96 C111 1.236 . S
O97 Tb80 2.322 . S
O97 C111 1.257 . S
O98 Tb80 2.349 . S
O98 C82 1.261 . S
O99 Tb81 2.303 . S
O99 C82 1.257 . S
C100 O90 1.236 . S
C100 O91 1.257 . S
O101 Tb80 2.415 . S
O101 C89 1.239 . S
O102 Tb80 2.399 . S
O102 C89 1.263 . S
C103 O92 1.261 . S
C103 O93 1.257 . S
C104 C107 1.358 . S
C104 C108 1.332 . S
C104 C110 1.504 . S
C105 C106 1.373 . S
C105 C109 1.308 . S
C106 C105 1.373 . S
C106 C107 1.429 . S
C106 H116 0.932 . S
C107 C104 1.358 . S
C107 C106 1.429 . S
C107 H117 0.930 . S
C108 C104 1.332 . S
C108 C109 1.394 . S
C108 H118 0.932 . S
C109 C105 1.308 . S
C109 C108 1.394 . S
C109 H119 0.929 . S
C110 Tb81 2.764 1_554 S
C110 O94 1.239 1_554 S
C110 O95 1.263 1_554 S
C110 C104 1.504 . S
C111 O96 1.236 . S
C111 O97 1.257 . S
H112 C85 0.932 . S
H113 C86 0.930 . S
H114 C87 0.932 . S
H115 C88 0.929 . S
H116 C106 0.932 . S
H117 C107 0.930 . S
H118 C108 0.932 . S
H119 C109 0.929 . S
Tb120 C129 2.764 . S
Tb120 O130 2.325 . S
Tb120 O133 2.303 . S
Tb120 O137 2.322 . S
Tb120 O138 2.349 . S
Tb120 O141 2.415 . S
Tb120 O142 2.399 . S
Tb121 O131 2.322 . S
Tb121 O132 2.349 . S
Tb121 O134 2.415 . S
Tb121 O135 2.399 . S
Tb121 O136 2.325 . S
Tb121 O139 2.303 . S
Tb121 C150 2.764 . S
C122 O138 1.261 . S
C122 O139 1.257 . S
C123 C126 1.358 . S
C123 C127 1.332 . S
C123 C129 1.504 . S
C124 C125 1.373 . S
C124 C128 1.308 . S
C125 C124 1.373 . S
C125 C126 1.429 . S
C125 H152 0.932 . S
C126 C123 1.358 . S
C126 C125 1.429 . S
C126 H153 0.930 . S
C127 C123 1.332 . S
C127 C128 1.394 . S
C127 H154 0.932 . S
C128 C124 1.308 . S
C128 C127 1.394 . S
C128 H155 0.929 . S
C129 Tb120 2.764 . S
C129 C123 1.504 . S
C129 O141 1.239 . S
C129 O142 1.263 . S
O130 Tb120 2.325 . S
O130 C140 1.236 . S
O131 Tb121 2.322 . S
O131 C140 1.257 . S
O132 Tb121 2.349 . S
O132 C143 1.261 . S
O133 Tb120 2.303 . S
O133 C143 1.257 . S
O134 Tb121 2.415 . S
O134 C150 1.239 . S
O135 Tb121 2.399 . S
O135 C150 1.263 . S
O136 Tb121 2.325 . S
O136 C151 1.236 . S
O137 Tb120 2.322 . S
O137 C151 1.257 . S
O138 Tb120 2.349 . S
O138 C122 1.261 . S
O139 Tb121 2.303 . S
O139 C122 1.257 . S
C140 O130 1.236 . S
C140 O131 1.257 . S
O141 Tb120 2.415 . S
O141 C129 1.239 . S
O142 Tb120 2.399 . S
O142 C129 1.263 . S
C143 O132 1.261 . S
C143 O133 1.257 . S
C144 C147 1.358 . S
C144 C148 1.332 . S
C144 C150 1.504 . S
C145 C146 1.373 . S
C145 C149 1.308 . S
C146 C145 1.373 . S
C146 C147 1.429 . S
C146 H156 0.932 . S
C147 C144 1.358 . S
C147 C146 1.429 . S
C147 H157 0.930 . S
C148 C144 1.332 . S
C148 C149 1.394 . S
C148 H158 0.932 . S
C149 C145 1.308 . S
C149 C148 1.394 . S
C149 H159 0.929 . S
C150 Tb121 2.764 . S
C150 O134 1.239 . S
C150 O135 1.263 . S
C150 C144 1.504 . S
C151 O136 1.236 . S
C151 O137 1.257 . S
H152 C125 0.932 . S
H153 C126 0.930 . S
H154 C127 0.932 . S
H155 C128 0.929 . S
H156 C146 0.932 . S
H157 C147 0.930 . S
H158 C148 0.932 . S
H159 C149 0.929 . S
Tb160 C169 2.764 . S
Tb160 O170 2.325 . S
Tb160 O173 2.303 . S
Tb160 O177 2.322 . S
Tb160 O178 2.349 . S
Tb160 O181 2.415 . S
Tb160 O182 2.399 . S
Tb161 O171 2.322 . S
Tb161 O172 2.349 . S
Tb161 O174 2.415 . S
Tb161 O175 2.399 . S
Tb161 O176 2.325 . S
Tb161 O179 2.303 . S
Tb161 C190 2.764 . S
C162 O178 1.261 . S
C162 O179 1.257 . S
C163 C166 1.358 . S
C163 C167 1.332 . S
C163 C169 1.504 . S
C164 C165 1.373 . S
C164 C168 1.308 . S
C165 C164 1.373 . S
C165 C166 1.429 . S
C165 H192 0.932 . S
C166 C163 1.358 . S
C166 C165 1.429 . S
C166 H193 0.930 . S
C167 C163 1.332 . S
C167 C168 1.394 . S
C167 H194 0.932 . S
C168 C164 1.308 . S
C168 C167 1.394 . S
C168 H195 0.929 . S
C169 Tb160 2.764 . S
C169 C163 1.504 . S
C169 O181 1.239 . S
C169 O182 1.263 . S
O170 Tb160 2.325 . S
O170 C180 1.236 . S
O171 Tb161 2.322 . S
O171 C180 1.257 . S
O172 Tb161 2.349 . S
O172 C183 1.261 . S
O173 Tb160 2.303 . S
O173 C183 1.257 . S
O174 Tb161 2.415 . S
O174 C190 1.239 . S
O175 Tb161 2.399 . S
O175 C190 1.263 . S
O176 Tb161 2.325 . S
O176 C191 1.236 . S
O177 Tb160 2.322 . S
O177 C191 1.257 . S
O178 Tb160 2.349 . S
O178 C162 1.261 . S
O179 Tb161 2.303 . S
O179 C162 1.257 . S
C180 O170 1.236 . S
C180 O171 1.257 . S
O181 Tb160 2.415 . S
O181 C169 1.239 . S
O182 Tb160 2.399 . S
O182 C169 1.263 . S
C183 O172 1.261 . S
C183 O173 1.257 . S
C184 C187 1.358 . S
C184 C188 1.332 . S
C184 C190 1.504 . S
C185 C186 1.373 . S
C185 C189 1.308 . S
C186 C185 1.373 . S
C186 C187 1.429 . S
C186 H196 0.932 . S
C187 C184 1.358 . S
C187 C186 1.429 . S
C187 H197 0.930 . S
C188 C184 1.332 . S
C188 C189 1.394 . S
C188 H198 0.932 . S
C189 C185 1.308 . S
C189 C188 1.394 . S
C189 H199 0.929 . S
C190 Tb161 2.764 . S
C190 O174 1.239 . S
C190 O175 1.263 . S
C190 C184 1.504 . S
C191 O176 1.236 . S
C191 O177 1.257 . S
H192 C165 0.932 . S
H193 C166 0.930 . S
H194 C167 0.932 . S
H195 C168 0.929 . S
H196 C186 0.932 . S
H197 C187 0.930 . S
H198 C188 0.932 . S
H199 C189 0.929 . S
Tb200 C209 2.764 . S
Tb200 O210 2.325 . S
Tb200 O213 2.303 . S
Tb200 O217 2.322 . S
Tb200 O218 2.349 . S
Tb200 O221 2.415 . S
Tb200 O222 2.399 . S
Tb201 O211 2.322 . S
Tb201 O212 2.349 . S
Tb201 O214 2.415 . S
Tb201 O215 2.399 . S
Tb201 O216 2.325 . S
Tb201 O219 2.303 . S
Tb201 C230 2.764 1_556 S
C202 O218 1.261 . S
C202 O219 1.257 . S
C203 C206 1.358 . S
C203 C207 1.332 . S
C203 C209 1.504 . S
C204 C205 1.373 . S
C204 C208 1.308 . S
C205 C204 1.373 . S
C205 C206 1.429 . S
C205 H232 0.932 . S
C206 C203 1.358 . S
C206 C205 1.429 . S
C206 H233 0.930 . S
C207 C203 1.332 . S
C207 C208 1.394 . S
C207 H234 0.932 . S
C208 C204 1.308 . S
C208 C207 1.394 . S
C208 H235 0.929 . S
C209 Tb200 2.764 . S
C209 C203 1.504 . S
C209 O221 1.239 . S
C209 O222 1.263 . S
O210 Tb200 2.325 . S
O210 C220 1.236 . S
O211 Tb201 2.322 . S
O211 C220 1.257 . S
O212 Tb201 2.349 . S
O212 C223 1.261 . S
O213 Tb200 2.303 . S
O213 C223 1.257 . S
O214 Tb201 2.415 . S
O214 C230 1.239 1_556 S
O215 Tb201 2.399 . S
O215 C230 1.263 1_556 S
O216 Tb201 2.325 . S
O216 C231 1.236 . S
O217 Tb200 2.322 . S
O217 C231 1.257 . S
O218 Tb200 2.349 . S
O218 C202 1.261 . S
O219 Tb201 2.303 . S
O219 C202 1.257 . S
C220 O210 1.236 . S
C220 O211 1.257 . S
O221 Tb200 2.415 . S
O221 C209 1.239 . S
O222 Tb200 2.399 . S
O222 C209 1.263 . S
C223 O212 1.261 . S
C223 O213 1.257 . S
C224 C227 1.358 . S
C224 C228 1.332 . S
C224 C230 1.504 . S
C225 C226 1.373 . S
C225 C229 1.308 . S
C226 C225 1.373 . S
C226 C227 1.429 . S
C226 H236 0.932 . S
C227 C224 1.358 . S
C227 C226 1.429 . S
C227 H237 0.930 . S
C228 C224 1.332 . S
C228 C229 1.394 . S
C228 H238 0.932 . S
C229 C225 1.308 . S
C229 C228 1.394 . S
C229 H239 0.929 . S
C230 Tb201 2.764 1_554 S
C230 O214 1.239 1_554 S
C230 O215 1.263 1_554 S
C230 C224 1.504 . S
C231 O216 1.236 . S
C231 O217 1.257 . S
H232 C205 0.932 . S
H233 C206 0.930 . S
H234 C207 0.932 . S
H235 C208 0.929 . S
H236 C226 0.932 . S
H237 C227 0.930 . S
H238 C228 0.932 . S
H239 C229 0.929 . S
Tb240 C249 2.764 . S
Tb240 O250 2.325 . S
Tb240 O253 2.303 . S
Tb240 O257 2.322 . S
Tb240 O258 2.349 . S
Tb240 O261 2.415 . S
Tb240 O262 2.399 . S
Tb241 O251 2.322 . S
Tb241 O252 2.349 . S
Tb241 O254 2.415 . S
Tb241 O255 2.399 . S
Tb241 O256 2.325 . S
Tb241 O259 2.303 . S
Tb241 C270 2.764 . S
C242 O258 1.261 . S
C242 O259 1.257 . S
C243 C246 1.358 . S
C243 C247 1.332 . S
C243 C249 1.504 . S
C244 C245 1.373 . S
C244 C248 1.308 . S
C245 C244 1.373 . S
C245 C246 1.429 . S
C245 H272 0.932 . S
C246 C243 1.358 . S
C246 C245 1.429 . S
C246 H273 0.930 . S
C247 C243 1.332 . S
C247 C248 1.394 . S
C247 H274 0.932 . S
C248 C244 1.308 . S
C248 C247 1.394 . S
C248 H275 0.929 . S
C249 Tb240 2.764 . S
C249 C243 1.504 . S
C249 O261 1.239 . S
C249 O262 1.263 . S
O250 Tb240 2.325 . S
O250 C260 1.236 . S
O251 Tb241 2.322 . S
O251 C260 1.257 . S
O252 Tb241 2.349 . S
O252 C263 1.261 . S
O253 Tb240 2.303 . S
O253 C263 1.257 . S
O254 Tb241 2.415 . S
O254 C270 1.239 . S
O255 Tb241 2.399 . S
O255 C270 1.263 . S
O256 Tb241 2.325 . S
O256 C271 1.236 . S
O257 Tb240 2.322 . S
O257 C271 1.257 . S
O258 Tb240 2.349 . S
O258 C242 1.261 . S
O259 Tb241 2.303 . S
O259 C242 1.257 . S
C260 O250 1.236 . S
C260 O251 1.257 . S
O261 Tb240 2.415 . S
O261 C249 1.239 . S
O262 Tb240 2.399 . S
O262 C249 1.263 . S
C263 O252 1.261 . S
C263 O253 1.257 . S
C264 C267 1.358 . S
C264 C268 1.332 . S
C264 C270 1.504 . S
C265 C266 1.373 . S
C265 C269 1.308 . S
C266 C265 1.373 . S
C266 C267 1.429 . S
C266 H276 0.932 . S
C267 C264 1.358 . S
C267 C266 1.429 . S
C267 H277 0.930 . S
C268 C264 1.332 . S
C268 C269 1.394 . S
C268 H278 0.932 . S
C269 C265 1.308 . S
C269 C268 1.394 . S
C269 H279 0.929 . S
C270 Tb241 2.764 . S
C270 O254 1.239 . S
C270 O255 1.263 . S
C270 C264 1.504 . S
C271 O256 1.236 . S
C271 O257 1.257 . S
H272 C245 0.932 . S
H273 C246 0.930 . S
H274 C247 0.932 . S
H275 C248 0.929 . S
H276 C266 0.932 . S
H277 C267 0.930 . S
H278 C268 0.932 . S
H279 C269 0.929 . S
Tb280 C289 2.764 . S
Tb280 O290 2.325 . S
Tb280 O293 2.303 . S
Tb280 O297 2.322 . S
Tb280 O298 2.349 . S
Tb280 O301 2.415 . S
Tb280 O302 2.399 . S
Tb281 O291 2.322 . S
Tb281 O292 2.349 . S
Tb281 O294 2.415 . S
Tb281 O295 2.399 . S
Tb281 O296 2.325 . S
Tb281 O299 2.303 . S
Tb281 C310 2.764 . S
C282 O298 1.261 . S
C282 O299 1.257 . S
C283 C286 1.358 . S
C283 C287 1.332 . S
C283 C289 1.504 . S
C284 C285 1.373 . S
C284 C288 1.308 . S
C285 C284 1.373 . S
C285 C286 1.429 . S
C285 H312 0.932 . S
C286 C283 1.358 . S
C286 C285 1.429 . S
C286 H313 0.930 . S
C287 C283 1.332 . S
C287 C288 1.394 . S
C287 H314 0.932 . S
C288 C284 1.308 . S
C288 C287 1.394 . S
C288 H315 0.929 . S
C289 Tb280 2.764 . S
C289 C283 1.504 . S
C289 O301 1.239 . S
C289 O302 1.263 . S
O290 Tb280 2.325 . S
O290 C300 1.236 . S
O291 Tb281 2.322 . S
O291 C300 1.257 . S
O292 Tb281 2.349 . S
O292 C303 1.261 . S
O293 Tb280 2.303 . S
O293 C303 1.257 . S
O294 Tb281 2.415 . S
O294 C310 1.239 . S
O295 Tb281 2.399 . S
O295 C310 1.263 . S
O296 Tb281 2.325 . S
O296 C311 1.236 . S
O297 Tb280 2.322 . S
O297 C311 1.257 . S
O298 Tb280 2.349 . S
O298 C282 1.261 . S
O299 Tb281 2.303 . S
O299 C282 1.257 . S
C300 O290 1.236 . S
C300 O291 1.257 . S
O301 Tb280 2.415 . S
O301 C289 1.239 . S
O302 Tb280 2.399 . S
O302 C289 1.263 . S
C303 O292 1.261 . S
C303 O293 1.257 . S
C304 C307 1.358 . S
C304 C308 1.332 . S
C304 C310 1.504 . S
C305 C306 1.373 . S
C305 C309 1.308 . S
C306 C305 1.373 . S
C306 C307 1.429 . S
C306 H316 0.932 . S
C307 C304 1.358 . S
C307 C306 1.429 . S
C307 H317 0.930 . S
C308 C304 1.332 . S
C308 C309 1.394 . S
C308 H318 0.932 . S
C309 C305 1.308 . S
C309 C308 1.394 . S
C309 H319 0.929 . S
C310 Tb281 2.764 . S
C310 O294 1.239 . S
C310 O295 1.263 . S
C310 C304 1.504 . S
C311 O296 1.236 . S
C311 O297 1.257 . S
H312 C285 0.932 . S
H313 C286 0.930 . S
H314 C287 0.932 . S
H315 C288 0.929 . S
H316 C306 0.932 . S
H317 C307 0.930 . S
H318 C308 0.932 . S
H319 C309 0.929 . S
Tb320 C329 2.764 . S
Tb320 O330 2.325 . S
Tb320 O333 2.303 . S
Tb320 O337 2.322 . S
Tb320 O338 2.349 . S
Tb320 O341 2.415 . S
Tb320 O342 2.399 . S
Tb321 O331 2.322 . S
Tb321 O332 2.349 . S
Tb321 O334 2.415 . S
Tb321 O335 2.399 . S
Tb321 O336 2.325 . S
Tb321 O339 2.303 . S
Tb321 C350 2.764 1_554 S
C322 O338 1.261 . S
C322 O339 1.257 . S
C323 C326 1.358 . S
C323 C327 1.332 . S
C323 C329 1.504 . S
C324 C325 1.373 . S
C324 C328 1.308 . S
C325 C324 1.373 . S
C325 C326 1.429 . S
C325 H352 0.932 . S
C326 C323 1.358 . S
C326 C325 1.429 . S
C326 H353 0.930 . S
C327 C323 1.332 . S
C327 C328 1.394 . S
C327 H354 0.932 . S
C328 C324 1.308 . S
C328 C327 1.394 . S
C328 H355 0.929 . S
C329 Tb320 2.764 . S
C329 C323 1.504 . S
C329 O341 1.239 . S
C329 O342 1.263 . S
O330 Tb320 2.325 . S
O330 C340 1.236 . S
O331 Tb321 2.322 . S
O331 C340 1.257 . S
O332 Tb321 2.349 . S
O332 C343 1.261 . S
O333 Tb320 2.303 . S
O333 C343 1.257 . S
O334 Tb321 2.415 . S
O334 C350 1.239 1_554 S
O335 Tb321 2.399 . S
O335 C350 1.263 1_554 S
O336 Tb321 2.325 . S
O336 C351 1.236 . S
O337 Tb320 2.322 . S
O337 C351 1.257 . S
O338 Tb320 2.349 . S
O338 C322 1.261 . S
O339 Tb321 2.303 . S
O339 C322 1.257 . S
C340 O330 1.236 . S
C340 O331 1.257 . S
O341 Tb320 2.415 . S
O341 C329 1.239 . S
O342 Tb320 2.399 . S
O342 C329 1.263 . S
C343 O332 1.261 . S
C343 O333 1.257 . S
C344 C347 1.358 . S
C344 C348 1.332 . S
C344 C350 1.504 . S
C345 C346 1.373 . S
C345 C349 1.308 . S
C346 C345 1.373 . S
C346 C347 1.429 . S
C346 H356 0.932 . S
C347 C344 1.358 . S
C347 C346 1.429 . S
C347 H357 0.930 . S
C348 C344 1.332 . S
C348 C349 1.394 . S
C348 H358 0.932 . S
C349 C345 1.308 . S
C349 C348 1.394 . S
C349 H359 0.929 . S
C350 Tb321 2.764 1_556 S
C350 O334 1.239 1_556 S
C350 O335 1.263 1_556 S
C350 C344 1.504 . S
C351 O336 1.236 . S
C351 O337 1.257 . S
H352 C325 0.932 . S
H353 C326 0.930 . S
H354 C327 0.932 . S
H355 C328 0.929 . S
H356 C346 0.932 . S
H357 C347 0.930 . S
H358 C348 0.932 . S
H359 C349 0.929 . S
Tb360 C369 2.764 . S
Tb360 O370 2.325 . S
Tb360 O373 2.303 . S
Tb360 O377 2.322 . S
Tb360 O378 2.349 . S
Tb360 O381 2.415 . S
Tb360 O382 2.399 . S
Tb361 O371 2.322 . S
Tb361 O372 2.349 . S
Tb361 O374 2.415 . S
Tb361 O375 2.399 . S
Tb361 O376 2.325 . S
Tb361 O379 2.303 . S
Tb361 C390 2.764 . S
C362 O378 1.261 . S
C362 O379 1.257 . S
C363 C366 1.358 . S
C363 C367 1.332 . S
C363 C369 1.504 . S
C364 C365 1.373 . S
C364 C368 1.308 . S
C365 C364 1.373 . S
C365 C366 1.429 . S
C365 H392 0.932 . S
C366 C363 1.358 . S
C366 C365 1.429 . S
C366 H393 0.930 . S
C367 C363 1.332 . S
C367 C368 1.394 . S
C367 H394 0.932 . S
C368 C364 1.308 . S
C368 C367 1.394 . S
C368 H395 0.929 . S
C369 Tb360 2.764 . S
C369 C363 1.504 . S
C369 O381 1.239 . S
C369 O382 1.263 . S
O370 Tb360 2.325 . S
O370 C380 1.236 . S
O371 Tb361 2.322 . S
O371 C380 1.257 . S
O372 Tb361 2.349 . S
O372 C383 1.261 . S
O373 Tb360 2.303 . S
O373 C383 1.257 . S
O374 Tb361 2.415 . S
O374 C390 1.239 . S
O375 Tb361 2.399 . S
O375 C390 1.263 . S
O376 Tb361 2.325 . S
O376 C391 1.236 . S
O377 Tb360 2.322 . S
O377 C391 1.257 . S
O378 Tb360 2.349 . S
O378 C362 1.261 . S
O379 Tb361 2.303 . S
O379 C362 1.257 . S
C380 O370 1.236 . S
C380 O371 1.257 . S
O381 Tb360 2.415 . S
O381 C369 1.239 . S
O382 Tb360 2.399 . S
O382 C369 1.263 . S
C383 O372 1.261 . S
C383 O373 1.257 . S
C384 C387 1.358 . S
C384 C388 1.332 . S
C384 C390 1.504 . S
C385 C386 1.373 . S
C385 C389 1.308 . S
C386 C385 1.373 . S
C386 C387 1.429 . S
C386 H396 0.932 . S
C387 C384 1.358 . S
C387 C386 1.429 . S
C387 H397 0.930 . S
C388 C384 1.332 . S
C388 C389 1.394 . S
C388 H398 0.932 . S
C389 C385 1.308 . S
C389 C388 1.394 . S
C389 H399 0.929 . S
C390 Tb361 2.764 . S
C390 O374 1.239 . S
C390 O375 1.263 . S
C390 C384 1.504 . S
C391 O376 1.236 . S
C391 O377 1.257 . S
H392 C365 0.932 . S
H393 C366 0.930 . S
H394 C367 0.932 . S
H395 C368 0.929 . S
H396 C386 0.932 . S
H397 C387 0.930 . S
H398 C388 0.932 . S
H399 C389 0.929 . S
Tb400 C409 2.764 . S
Tb400 O410 2.325 . S
Tb400 O413 2.303 . S
Tb400 O417 2.322 . S
Tb400 O418 2.349 . S
Tb400 O421 2.415 . S
Tb400 O422 2.399 . S
Tb401 O411 2.322 . S
Tb401 O412 2.349 . S
Tb401 O414 2.415 . S
Tb401 O415 2.399 . S
Tb401 O416 2.325 . S
Tb401 O419 2.303 . S
Tb401 C430 2.764 . S
C402 O418 1.261 . S
C402 O419 1.257 . S
C403 C406 1.358 . S
C403 C407 1.332 . S
C403 C409 1.504 . S
C404 C405 1.373 . S
C404 C408 1.308 . S
C405 C404 1.373 . S
C405 C406 1.429 . S
C405 H432 0.932 . S
C406 C403 1.358 . S
C406 C405 1.429 . S
C406 H433 0.930 . S
C407 C403 1.332 . S
C407 C408 1.394 . S
C407 H434 0.932 . S
C408 C404 1.308 . S
C408 C407 1.394 . S
C408 H435 0.929 . S
C409 Tb400 2.764 . S
C409 C403 1.504 . S
C409 O421 1.239 . S
C409 O422 1.263 . S
O410 Tb400 2.325 . S
O410 C420 1.236 . S
O411 Tb401 2.322 . S
O411 C420 1.257 . S
O412 Tb401 2.349 . S
O412 C423 1.261 . S
O413 Tb400 2.303 . S
O413 C423 1.257 . S
O414 Tb401 2.415 . S
O414 C430 1.239 . S
O415 Tb401 2.399 . S
O415 C430 1.263 . S
O416 Tb401 2.325 . S
O416 C431 1.236 . S
O417 Tb400 2.322 . S
O417 C431 1.257 . S
O418 Tb400 2.349 . S
O418 C402 1.261 . S
O419 Tb401 2.303 . S
O419 C402 1.257 . S
C420 O410 1.236 . S
C420 O411 1.257 . S
O421 Tb400 2.415 . S
O421 C409 1.239 . S
O422 Tb400 2.399 . S
O422 C409 1.263 . S
C423 O412 1.261 . S
C423 O413 1.257 . S
C424 C427 1.358 . S
C424 C428 1.332 . S
C424 C430 1.504 . S
C425 C426 1.373 . S
C425 C429 1.308 . S
C426 C425 1.373 . S
C426 C427 1.429 . S
C426 H436 0.932 . S
C427 C424 1.358 . S
C427 C426 1.429 . S
C427 H437 0.930 . S
C428 C424 1.332 . S
C428 C429 1.394 . S
C428 H438 0.932 . S
C429 C425 1.308 . S
C429 C428 1.394 . S
C429 H439 0.929 . S
C430 Tb401 2.764 . S
C430 O414 1.239 . S
C430 O415 1.263 . S
C430 C424 1.504 . S
C431 O416 1.236 . S
C431 O417 1.257 . S
H432 C405 0.932 . S
H433 C406 0.930 . S
H434 C407 0.932 . S
H435 C408 0.929 . S
H436 C426 0.932 . S
H437 C427 0.930 . S
H438 C428 0.932 . S
H439 C429 0.929 . S
Tb440 C449 2.764 . S
Tb440 O450 2.325 . S
Tb440 O453 2.303 . S
Tb440 O457 2.322 . S
Tb440 O458 2.349 . S
Tb440 O461 2.415 . S
Tb440 O462 2.399 . S
Tb441 O451 2.322 . S
Tb441 O452 2.349 . S
Tb441 O454 2.415 . S
Tb441 O455 2.399 . S
Tb441 O456 2.325 . S
Tb441 O459 2.303 . S
Tb441 C470 2.764 1_554 S
C442 O458 1.261 . S
C442 O459 1.257 . S
C443 C446 1.358 . S
C443 C447 1.332 . S
C443 C449 1.504 . S
C444 C445 1.373 . S
C444 C448 1.308 . S
C445 C444 1.373 . S
C445 C446 1.429 . S
C445 H472 0.932 . S
C446 C443 1.358 . S
C446 C445 1.429 . S
C446 H473 0.930 . S
C447 C443 1.332 . S
C447 C448 1.394 . S
C447 H474 0.932 . S
C448 C444 1.308 . S
C448 C447 1.394 . S
C448 H475 0.929 . S
C449 Tb440 2.764 . S
C449 C443 1.504 . S
C449 O461 1.239 . S
C449 O462 1.263 . S
O450 Tb440 2.325 . S
O450 C460 1.236 . S
O451 Tb441 2.322 . S
O451 C460 1.257 . S
O452 Tb441 2.349 . S
O452 C463 1.261 . S
O453 Tb440 2.303 . S
O453 C463 1.257 . S
O454 Tb441 2.415 . S
O454 C470 1.239 1_554 S
O455 Tb441 2.399 . S
O455 C470 1.263 1_554 S
O456 Tb441 2.325 . S
O456 C471 1.236 . S
O457 Tb440 2.322 . S
O457 C471 1.257 . S
O458 Tb440 2.349 . S
O458 C442 1.261 . S
O459 Tb441 2.303 . S
O459 C442 1.257 . S
C460 O450 1.236 . S
C460 O451 1.257 . S
O461 Tb440 2.415 . S
O461 C449 1.239 . S
O462 Tb440 2.399 . S
O462 C449 1.263 . S
C463 O452 1.261 . S
C463 O453 1.257 . S
C464 C467 1.358 . S
C464 C468 1.332 . S
C464 C470 1.504 . S
C465 C466 1.373 . S
C465 C469 1.308 . S
C466 C465 1.373 . S
C466 C467 1.429 . S
C466 H476 0.932 . S
C467 C464 1.358 . S
C467 C466 1.429 . S
C467 H477 0.930 . S
C468 C464 1.332 . S
C468 C469 1.394 . S
C468 H478 0.932 . S
C469 C465 1.308 . S
C469 C468 1.394 . S
C469 H479 0.929 . S
C470 Tb441 2.764 1_556 S
C470 O454 1.239 1_556 S
C470 O455 1.263 1_556 S
C470 C464 1.504 . S
C471 O456 1.236 . S
C471 O457 1.257 . S
H472 C445 0.932 . S
H473 C446 0.930 . S
H474 C447 0.932 . S
H475 C448 0.929 . S
H476 C466 0.932 . S
H477 C467 0.930 . S
H478 C468 0.932 . S
H479 C469 0.929 . S
H480 C488 0.950 . S
H481 C493 0.950 . S
H482 C490 0.950 . S
H483 C492 0.950 . S
H484 C494 0.950 . S
H485 C496 0.950 . S
H486 C498 0.950 . S
H487 C499 0.950 . S
C488 H480 0.950 . S
C488 C489 1.386 . S
C488 C490 1.391 . S
C489 C488 1.386 . S
C489 C493 1.393 . S
C490 H482 0.950 . S
C490 C488 1.391 . S
C490 C491 1.400 . S
C491 C490 1.400 . S
C491 C492 1.398 . S
C491 C497 1.491 . S
C492 H483 0.950 . S
C492 C491 1.398 . S
C492 C493 1.391 . S
C493 H481 0.950 . S
C493 C489 1.393 . S
C493 C492 1.391 . S
C494 H484 0.950 . S
C494 C495 1.386 . S
C494 C496 1.391 . S
C495 C494 1.386 . S
C495 C499 1.393 . S
C496 H485 0.950 . S
C496 C494 1.391 . S
C496 C497 1.400 . S
C497 C491 1.491 . S
C497 C496 1.400 . S
C497 C498 1.398 . S
C498 H486 0.950 . S
C498 C497 1.398 . S
C498 C499 1.391 . S
C499 H487 0.950 . S
C499 C495 1.393 . S
C499 C498 1.391 . S
H500 C508 0.950 . S
H501 C513 0.950 . S
H502 C510 0.950 . S
H503 C512 0.950 . S
H504 C514 0.950 . S
H505 C516 0.950 . S
H506 C518 0.950 . S
H507 C519 0.950 . S
C508 H500 0.950 . S
C508 C509 1.386 . S
C508 C510 1.391 . S
C509 C508 1.386 . S
C509 C513 1.393 . S
C510 H502 0.950 . S
C510 C508 1.391 . S
C510 C511 1.400 . S
C511 C510 1.400 . S
C511 C512 1.398 . S
C511 C517 1.491 . S
C512 H503 0.950 . S
C512 C511 1.398 . S
C512 C513 1.391 . S
C513 H501 0.950 . S
C513 C509 1.393 . S
C513 C512 1.391 . S
C514 H504 0.950 . S
C514 C515 1.386 . S
C514 C516 1.391 . S
C515 C514 1.386 . S
C515 C519 1.393 . S
C516 H505 0.950 . S
C516 C514 1.391 . S
C516 C517 1.400 . S
C517 C511 1.491 . S
C517 C516 1.400 . S
C517 C518 1.398 . S
C518 H506 0.950 . S
C518 C517 1.398 . S
C518 C519 1.391 . S
C519 H507 0.950 . S
C519 C515 1.393 . S
C519 C518 1.391 . S
H520 C528 0.950 . S
H521 C533 0.950 . S
H522 C530 0.950 . S
H523 C532 0.950 . S
H524 C534 0.950 . S
H525 C536 0.950 . S
H526 C538 0.950 . S
H527 C539 0.950 . S
C528 H520 0.950 . S
C528 C529 1.386 . S
C528 C530 1.391 . S
C529 C528 1.386 . S
C529 C533 1.393 . S
C530 H522 0.950 . S
C530 C528 1.391 . S
C530 C531 1.400 . S
C531 C530 1.400 . S
C531 C532 1.398 . S
C531 C537 1.491 . S
C532 H523 0.950 . S
C532 C531 1.398 . S
C532 C533 1.391 . S
C533 H521 0.950 . S
C533 C529 1.393 . S
C533 C532 1.391 . S
C534 H524 0.950 . S
C534 C535 1.386 . S
C534 C536 1.391 . S
C535 C534 1.386 . S
C535 C539 1.393 . S
C536 H525 0.950 . S
C536 C534 1.391 . S
C536 C537 1.400 . S
C537 C531 1.491 . S
C537 C536 1.400 . S
C537 C538 1.398 . S
C538 H526 0.950 . S
C538 C537 1.398 . S
C538 C539 1.391 . S
C539 H527 0.950 . S
C539 C535 1.393 . S
C539 C538 1.391 . S
H540 C548 0.950 . S
H541 C553 0.950 . S
H542 C550 0.950 . S
H543 C552 0.950 . S
H544 C554 0.950 . S
H545 C556 0.950 . S
H546 C558 0.950 . S
H547 C559 0.950 . S
C548 H540 0.950 . S
C548 C549 1.386 . S
C548 C550 1.391 . S
C549 C548 1.386 . S
C549 C553 1.393 . S
C550 H542 0.950 . S
C550 C548 1.391 . S
C550 C551 1.400 . S
C551 C550 1.400 . S
C551 C552 1.398 . S
C551 C557 1.491 . S
C552 H543 0.950 . S
C552 C551 1.398 . S
C552 C553 1.391 . S
C553 H541 0.950 . S
C553 C549 1.393 . S
C553 C552 1.391 . S
C554 H544 0.950 . S
C554 C555 1.386 . S
C554 C556 1.391 . S
C555 C554 1.386 . S
C555 C559 1.393 . S
C556 H545 0.950 . S
C556 C554 1.391 . S
C556 C557 1.400 . S
C557 C551 1.491 . S
C557 C556 1.400 . S
C557 C558 1.398 . S
C558 H546 0.950 . S
C558 C557 1.398 . S
C558 C559 1.391 . S
C559 H547 0.950 . S
C559 C555 1.393 . S
C559 C558 1.391 . S
H560 C568 0.950 . S
H561 C573 0.950 . S
H562 C570 0.950 . S
H563 C572 0.950 . S
H564 C574 0.950 . S
H565 C576 0.950 . S
H566 C578 0.950 . S
H567 C579 0.950 . S
C568 H560 0.950 . S
C568 C569 1.386 . S
C568 C570 1.391 . S
C569 C568 1.386 . S
C569 C573 1.393 . S
C570 H562 0.950 . S
C570 C568 1.391 . S
C570 C571 1.400 . S
C571 C570 1.400 . S
C571 C572 1.398 . S
C571 C577 1.491 . S
C572 H563 0.950 . S
C572 C571 1.398 . S
C572 C573 1.391 . S
C573 H561 0.950 . S
C573 C569 1.393 . S
C573 C572 1.391 . S
C574 H564 0.950 . S
C574 C575 1.386 . S
C574 C576 1.391 . S
C575 C574 1.386 . S
C575 C579 1.393 . S
C576 H565 0.950 . S
C576 C574 1.391 . S
C576 C577 1.400 . S
C577 C571 1.491 . S
C577 C576 1.400 . S
C577 C578 1.398 . S
C578 H566 0.950 . S
C578 C577 1.398 . S
C578 C579 1.391 . S
C579 H567 0.950 . S
C579 C575 1.393 . S
C579 C578 1.391 . S
H580 C588 0.950 . S
H581 C593 0.950 . S
H582 C590 0.950 . S
H583 C592 0.950 . S
H584 C594 0.950 . S
H585 C596 0.950 . S
H586 C598 0.950 . S
H587 C599 0.950 . S
C588 H580 0.950 . S
C588 C589 1.386 . S
C588 C590 1.391 . S
C589 C588 1.386 . S
C589 C593 1.393 . S
C590 H582 0.950 . S
C590 C588 1.391 . S
C590 C591 1.400 . S
C591 C590 1.400 . S
C591 C592 1.398 . S
C591 C597 1.491 . S
C592 H583 0.950 . S
C592 C591 1.398 . S
C592 C593 1.391 . S
C593 H581 0.950 . S
C593 C589 1.393 . S
C593 C592 1.391 . S
C594 H584 0.950 . S
C594 C595 1.386 . S
C594 C596 1.391 . S
C595 C594 1.386 . S
C595 C599 1.393 . S
C596 H585 0.950 . S
C596 C594 1.391 . S
C596 C597 1.400 . S
C597 C591 1.491 . S
C597 C596 1.400 . S
C597 C598 1.398 . S
C598 H586 0.950 . S
C598 C597 1.398 . S
C598 C599 1.391 . S
C599 H587 0.950 . S
C599 C595 1.393 . S
C599 C598 1.391 . S
H600 C608 0.950 . S
H601 C613 0.950 . S
H602 C610 0.950 . S
H603 C612 0.950 . S
H604 C614 0.950 . S
H605 C616 0.950 . S
H606 C618 0.950 . S
H607 C619 0.950 . S
C608 H600 0.950 . S
C608 C609 1.386 . S
C608 C610 1.391 . S
C609 C608 1.386 . S
C609 C613 1.393 . S
C610 H602 0.950 . S
C610 C608 1.391 . S
C610 C611 1.400 . S
C611 C610 1.400 . S
C611 C612 1.398 . S
C611 C617 1.491 1_556 S
C612 H603 0.950 . S
C612 C611 1.398 . S
C612 C613 1.391 . S
C613 H601 0.950 . S
C613 C609 1.393 . S
C613 C612 1.391 . S
C614 H604 0.950 . S
C614 C615 1.386 . S
C614 C616 1.391 . S
C615 C614 1.386 . S
C615 C619 1.393 . S
C616 H605 0.950 . S
C616 C614 1.391 . S
C616 C617 1.400 . S
C617 C611 1.491 1_554 S
C617 C616 1.400 . S
C617 C618 1.398 . S
C618 H606 0.950 . S
C618 C617 1.398 . S
C618 C619 1.391 . S
C619 H607 0.950 . S
C619 C615 1.393 . S
C619 C618 1.391 . S
H620 C628 0.950 . S
H621 C633 0.950 . S
H622 C630 0.950 . S
H623 C632 0.950 . S
H624 C634 0.950 . S
H625 C636 0.950 . S
H626 C638 0.950 . S
H627 C639 0.950 . S
C628 H620 0.950 . S
C628 C629 1.386 . S
C628 C630 1.391 . S
C629 C628 1.386 . S
C629 C633 1.393 . S
C630 H622 0.950 . S
C630 C628 1.391 . S
C630 C631 1.400 . S
C631 C630 1.400 . S
C631 C632 1.398 . S
C631 C637 1.491 . S
C632 H623 0.950 . S
C632 C631 1.398 . S
C632 C633 1.391 . S
C633 H621 0.950 . S
C633 C629 1.393 . S
C633 C632 1.391 . S
C634 H624 0.950 . S
C634 C635 1.386 . S
C634 C636 1.391 . S
C635 C634 1.386 . S
C635 C639 1.393 . S
C636 H625 0.950 . S
C636 C634 1.391 . S
C636 C637 1.400 . S
C637 C631 1.491 . S
C637 C636 1.400 . S
C637 C638 1.398 . S
C638 H626 0.950 . S
C638 C637 1.398 . S
C638 C639 1.391 . S
C639 H627 0.950 . S
C639 C635 1.393 . S
C639 C638 1.391 . S
H640 C648 0.950 . S
H641 C653 0.950 . S
H642 C650 0.950 . S
H643 C652 0.950 . S
H644 C654 0.950 . S
H645 C656 0.950 . S
H646 C658 0.950 . S
H647 C659 0.950 . S
C648 H640 0.950 . S
C648 C649 1.386 . S
C648 C650 1.391 . S
C649 C648 1.386 . S
C649 C653 1.393 . S
C650 H642 0.950 . S
C650 C648 1.391 . S
C650 C651 1.400 . S
C651 C650 1.400 . S
C651 C652 1.398 . S
C651 C657 1.491 . S
C652 H643 0.950 . S
C652 C651 1.398 . S
C652 C653 1.391 . S
C653 H641 0.950 . S
C653 C649 1.393 . S
C653 C652 1.391 . S
C654 H644 0.950 . S
C654 C655 1.386 . S
C654 C656 1.391 . S
C655 C654 1.386 . S
C655 C659 1.393 . S
C656 H645 0.950 . S
C656 C654 1.391 . S
C656 C657 1.400 . S
C657 C651 1.491 . S
C657 C656 1.400 . S
C657 C658 1.398 . S
C658 H646 0.950 . S
C658 C657 1.398 . S
C658 C659 1.391 . S
C659 H647 0.950 . S
C659 C655 1.393 . S
C659 C658 1.391 . S
H660 C668 0.950 . S
H661 C673 0.950 . S
H662 C670 0.950 1_554 S
H663 C672 0.950 . S
H664 C674 0.950 . S
H665 C676 0.950 1_556 S
H666 C678 0.950 . S
H667 C679 0.950 . S
C668 H660 0.950 . S
C668 C669 1.386 . S
C668 C670 1.391 . S
C669 C668 1.386 . S
C669 C673 1.393 . S
C670 H662 0.950 1_556 S
C670 C668 1.391 . S
C670 C671 1.400 . S
C671 C670 1.400 . S
C671 C672 1.398 . S
C671 C677 1.491 1_556 S
C672 H663 0.950 . S
C672 C671 1.398 . S
C672 C673 1.391 . S
C673 H661 0.950 . S
C673 C669 1.393 . S
C673 C672 1.391 . S
C674 H664 0.950 . S
C674 C675 1.386 . S
C674 C676 1.391 . S
C675 C674 1.386 . S
C675 C679 1.393 . S
C676 H665 0.950 1_554 S
C676 C674 1.391 . S
C676 C677 1.400 . S
C677 C671 1.491 1_554 S
C677 C676 1.400 . S
C677 C678 1.398 . S
C678 H666 0.950 . S
C678 C677 1.398 . S
C678 C679 1.391 . S
C679 H667 0.950 . S
C679 C675 1.393 . S
C679 C678 1.391 . S
H680 C688 0.950 . S
H681 C693 0.950 . S
H682 C690 0.950 . S
H683 C692 0.950 . S
H684 C694 0.950 . S
H685 C696 0.950 . S
H686 C698 0.950 . S
H687 C699 0.950 . S
C688 H680 0.950 . S
C688 C689 1.386 . S
C688 C690 1.391 . S
C689 C688 1.386 . S
C689 C693 1.393 . S
C690 H682 0.950 . S
C690 C688 1.391 . S
C690 C691 1.400 . S
C691 C690 1.400 . S
C691 C692 1.398 . S
C691 C697 1.491 . S
C692 H683 0.950 . S
C692 C691 1.398 . S
C692 C693 1.391 . S
C693 H681 0.950 . S
C693 C689 1.393 . S
C693 C692 1.391 . S
C694 H684 0.950 . S
C694 C695 1.386 . S
C694 C696 1.391 . S
C695 C694 1.386 . S
C695 C699 1.393 . S
C696 H685 0.950 . S
C696 C694 1.391 . S
C696 C697 1.400 . S
C697 C691 1.491 . S
C697 C696 1.400 . S
C697 C698 1.398 . S
C698 H686 0.950 . S
C698 C697 1.398 . S
C698 C699 1.391 . S
C699 H687 0.950 . S
C699 C695 1.393 . S
C699 C698 1.391 . S
H700 C708 0.950 . S
H701 C713 0.950 . S
H702 C710 0.950 . S
H703 C712 0.950 . S
H704 C714 0.950 . S
H705 C716 0.950 . S
H706 C718 0.950 . S
H707 C719 0.950 . S
C708 H700 0.950 . S
C708 C709 1.386 . S
C708 C710 1.391 . S
C709 C708 1.386 . S
C709 C713 1.393 . S
C710 H702 0.950 . S
C710 C708 1.391 . S
C710 C711 1.400 . S
C711 C710 1.400 . S
C711 C712 1.398 . S
C711 C717 1.491 . S
C712 H703 0.950 . S
C712 C711 1.398 . S
C712 C713 1.391 . S
C713 H701 0.950 . S
C713 C709 1.393 . S
C713 C712 1.391 . S
C714 H704 0.950 . S
C714 C715 1.386 . S
C714 C716 1.391 . S
C715 C714 1.386 . S
C715 C719 1.393 . S
C716 H705 0.950 . S
C716 C714 1.391 . S
C716 C717 1.400 . S
C717 C711 1.491 . S
C717 C716 1.400 . S
C717 C718 1.398 . S
C718 H706 0.950 . S
C718 C717 1.398 . S
C718 C719 1.391 . S
C719 H707 0.950 . S
C719 C715 1.393 . S
C719 C718 1.391 . S
H720 C728 0.950 . S
H721 C733 0.950 . S
H722 C730 0.950 1_545 S
H723 C732 0.950 . S
H724 C734 0.950 . S
H725 C736 0.950 1_565 S
H726 C738 0.950 . S
H727 C739 0.950 . S
C728 H720 0.950 . S
C728 C729 1.386 . S
C728 C730 1.391 . S
C729 C728 1.386 . S
C729 C733 1.393 . S
C730 H722 0.950 1_565 S
C730 C728 1.391 . S
C730 C731 1.400 . S
C731 C730 1.400 . S
C731 C732 1.398 . S
C731 C737 1.491 1_566 S
C732 H723 0.950 . S
C732 C731 1.398 . S
C732 C733 1.391 . S
C733 H721 0.950 . S
C733 C729 1.393 . S
C733 C732 1.391 . S
C734 H724 0.950 . S
C734 C735 1.386 . S
C734 C736 1.391 . S
C735 C734 1.386 . S
C735 C739 1.393 . S
C736 H725 0.950 1_545 S
C736 C734 1.391 . S
C736 C737 1.400 . S
C737 C731 1.491 1_544 S
C737 C736 1.400 . S
C737 C738 1.398 . S
C738 H726 0.950 . S
C738 C737 1.398 . S
C738 C739 1.391 . S
C739 H727 0.950 . S
C739 C735 1.393 . S
C739 C738 1.391 . S
H740 C748 0.950 . S
H741 C753 0.950 . S
H742 C750 0.950 . S
H743 C752 0.950 . S
H744 C754 0.950 . S
H745 C756 0.950 . S
H746 C758 0.950 . S
H747 C759 0.950 . S
C748 H740 0.950 . S
C748 C749 1.386 . S
C748 C750 1.391 . S
C749 C748 1.386 . S
C749 C753 1.393 . S
C750 H742 0.950 . S
C750 C748 1.391 . S
C750 C751 1.400 . S
C751 C750 1.400 . S
C751 C752 1.398 . S
C751 C757 1.491 . S
C752 H743 0.950 . S
C752 C751 1.398 . S
C752 C753 1.391 . S
C753 H741 0.950 . S
C753 C749 1.393 . S
C753 C752 1.391 . S
C754 H744 0.950 . S
C754 C755 1.386 . S
C754 C756 1.391 . S
C755 C754 1.386 . S
C755 C759 1.393 . S
C756 H745 0.950 . S
C756 C754 1.391 . S
C756 C757 1.400 . S
C757 C751 1.491 . S
C757 C756 1.400 . S
C757 C758 1.398 . S
C758 H746 0.950 . S
C758 C757 1.398 . S
C758 C759 1.391 . S
C759 H747 0.950 . S
C759 C755 1.393 . S
C759 C758 1.391 . S
H760 C768 0.950 . S
H761 C773 0.950 1_655 S
H762 C770 0.950 . S
H763 C772 0.950 . S
H764 C774 0.950 . S
H765 C776 0.950 . S
H766 C778 0.950 . S
H767 C779 0.950 1_455 S
C768 H760 0.950 . S
C768 C769 1.386 . S
C768 C770 1.391 . S
C769 C768 1.386 . S
C769 C773 1.393 . S
C770 H762 0.950 . S
C770 C768 1.391 . S
C770 C771 1.400 . S
C771 C770 1.400 . S
C771 C772 1.398 1_455 S
C771 C777 1.491 1_455 S
C772 H763 0.950 . S
C772 C771 1.398 1_655 S
C772 C773 1.391 1_655 S
C773 H761 0.950 1_455 S
C773 C769 1.393 . S
C773 C772 1.391 1_455 S
C774 H764 0.950 . S
C774 C775 1.386 . S
C774 C776 1.391 . S
C775 C774 1.386 . S
C775 C779 1.393 . S
C776 H765 0.950 . S
C776 C774 1.391 . S
C776 C777 1.400 . S
C777 C771 1.491 1_655 S
C777 C776 1.400 . S
C777 C778 1.398 1_655 S
C778 H766 0.950 . S
C778 C777 1.398 1_455 S
C778 C779 1.391 1_455 S
C779 H767 0.950 1_655 S
C779 C775 1.393 . S
C779 C778 1.391 1_655 S
H780 C788 0.950 . S
H781 C793 0.950 . S
H782 C790 0.950 . S
H783 C792 0.950 1_545 S
H784 C794 0.950 . S
H785 C796 0.950 . S
H786 C798 0.950 1_565 S
H787 C799 0.950 . S
C788 H780 0.950 . S
C788 C789 1.386 . S
C788 C790 1.391 . S
C789 C788 1.386 . S
C789 C793 1.393 . S
C790 H782 0.950 . S
C790 C788 1.391 . S
C790 C791 1.400 . S
C791 C790 1.400 . S
C791 C792 1.398 . S
C791 C797 1.491 1_564 S
C792 H783 0.950 1_565 S
C792 C791 1.398 . S
C792 C793 1.391 . S
C793 H781 0.950 . S
C793 C789 1.393 . S
C793 C792 1.391 . S
C794 H784 0.950 . S
C794 C795 1.386 . S
C794 C796 1.391 . S
C795 C794 1.386 . S
C795 C799 1.393 . S
C796 H785 0.950 . S
C796 C794 1.391 . S
C796 C797 1.400 . S
C797 C791 1.491 1_546 S
C797 C796 1.400 . S
C797 C798 1.398 . S
C798 H786 0.950 1_545 S
C798 C797 1.398 . S
C798 C799 1.391 . S
C799 H787 0.950 . S
C799 C795 1.393 . S
C799 C798 1.391 . S
H800 C808 0.950 . S
H801 C813 0.950 . S
H802 C810 0.950 . S
H803 C812 0.950 . S
H804 C814 0.950 . S
H805 C816 0.950 . S
H806 C818 0.950 . S
H807 C819 0.950 . S
C808 H800 0.950 . S
C808 C809 1.386 . S
C808 C810 1.391 . S
C809 C808 1.386 . S
C809 C813 1.393 . S
C810 H802 0.950 . S
C810 C808 1.391 . S
C810 C811 1.400 . S
C811 C810 1.400 . S
C811 C812 1.398 . S
C811 C817 1.491 . S
C812 H803 0.950 . S
C812 C811 1.398 . S
C812 C813 1.391 . S
C813 H801 0.950 . S
C813 C809 1.393 . S
C813 C812 1.391 . S
C814 H804 0.950 . S
C814 C815 1.386 . S
C814 C816 1.391 . S
C815 C814 1.386 . S
C815 C819 1.393 . S
C816 H805 0.950 . S
C816 C814 1.391 . S
C816 C817 1.400 . S
C817 C811 1.491 . S
C817 C816 1.400 . S
C817 C818 1.398 . S
C818 H806 0.950 . S
C818 C817 1.398 . S
C818 C819 1.391 . S
C819 H807 0.950 . S
C819 C815 1.393 . S
C819 C818 1.391 . S
H820 C828 0.950 . S
H821 C833 0.950 . S
H822 C830 0.950 . S
H823 C832 0.907 1_655 S
H824 C834 0.950 . S
H825 C836 0.950 . S
H826 C838 0.909 1_455 S
H827 C839 0.950 . S
C828 H820 0.950 . S
C828 C829 1.386 . S
C828 C830 1.391 . S
C829 C828 1.386 . S
C829 C833 1.393 . S
C830 H822 0.950 . S
C830 C828 1.391 . S
C830 C831 1.400 . S
C831 C830 1.400 . S
C831 C832 1.422 . S
C831 C837 1.491 1_455 S
C832 H823 0.907 1_455 S
C832 C831 1.422 . S
C832 C833 1.410 . S
C833 H821 0.950 . S
C833 C829 1.393 . S
C833 C832 1.410 . S
C834 H824 0.950 . S
C834 C835 1.386 . S
C834 C836 1.391 . S
C835 C834 1.386 . S
C835 C839 1.393 . S
C836 H825 0.950 . S
C836 C834 1.391 . S
C836 C837 1.400 . S
C837 C831 1.491 1_655 S
C837 C836 1.400 . S
C837 C838 1.421 . S
C838 H826 0.909 1_655 S
C838 C837 1.421 . S
C838 C839 1.410 . S
C839 H827 0.950 . S
C839 C835 1.393 . S
C839 C838 1.410 . S
H840 C848 0.950 . S
H841 C853 0.950 . S
H842 C850 0.950 . S
H843 C852 0.950 1_565 S
H844 C854 0.950 . S
H845 C856 0.950 . S
H846 C858 0.950 1_545 S
H847 C859 0.950 . S
C848 H840 0.950 . S
C848 C849 1.386 . S
C848 C850 1.391 . S
C849 C848 1.386 . S
C849 C853 1.393 . S
C850 H842 0.950 . S
C850 C848 1.391 . S
C850 C851 1.400 . S
C851 C850 1.400 . S
C851 C852 1.398 . S
C851 C857 1.491 1_545 S
C852 H843 0.950 1_545 S
C852 C851 1.398 . S
C852 C853 1.391 . S
C853 H841 0.950 . S
C853 C849 1.393 . S
C853 C852 1.391 . S
C854 H844 0.950 . S
C854 C855 1.386 . S
C854 C856 1.391 . S
C855 C854 1.386 . S
C855 C859 1.393 . S
C856 H845 0.950 . S
C856 C854 1.391 . S
C856 C857 1.400 . S
C857 C851 1.491 1_565 S
C857 C856 1.400 . S
C857 C858 1.398 . S
C858 H846 0.950 1_565 S
C858 C857 1.398 . S
C858 C859 1.391 . S
C859 H847 0.950 . S
C859 C855 1.393 . S
C859 C858 1.391 . S
H860 C868 0.950 . S
H861 C873 0.950 . S
H862 C870 0.950 . S
H863 C872 0.950 . S
H864 C874 0.950 . S
H865 C876 0.950 . S
H866 C878 0.950 . S
H867 C879 0.950 . S
C868 H860 0.950 . S
C868 C869 1.386 . S
C868 C870 1.391 . S
C869 C868 1.386 . S
C869 C873 1.393 . S
C870 H862 0.950 . S
C870 C868 1.391 . S
C870 C871 1.400 . S
C871 C870 1.400 . S
C871 C872 1.398 . S
C871 C877 1.491 . S
C872 H863 0.950 . S
C872 C871 1.398 . S
C872 C873 1.391 . S
C873 H861 0.950 . S
C873 C869 1.393 . S
C873 C872 1.391 . S
C874 H864 0.950 . S
C874 C875 1.386 . S
C874 C876 1.391 . S
C875 C874 1.386 . S
C875 C879 1.393 . S
C876 H865 0.950 . S
C876 C874 1.391 . S
C876 C877 1.400 . S
C877 C871 1.491 . S
C877 C876 1.400 . S
C877 C878 1.398 . S
C878 H866 0.950 . S
C878 C877 1.398 . S
C878 C879 1.391 . S
C879 H867 0.950 . S
C879 C875 1.393 . S
C879 C878 1.391 . S
H880 C888 0.950 . S
H881 C893 0.950 . S
H882 C890 0.950 . S
H883 C892 0.950 1_455 S
H884 C894 0.950 . S
H885 C896 0.950 . S
H886 C898 0.950 1_655 S
H887 C899 0.950 . S
C888 H880 0.950 . S
C888 C889 1.386 . S
C888 C890 1.391 . S
C889 C888 1.386 . S
C889 C893 1.393 . S
C890 H882 0.950 . S
C890 C888 1.391 . S
C890 C891 1.400 . S
C891 C890 1.400 . S
C891 C892 1.398 . S
C891 C897 1.491 1_655 S
C892 H883 0.950 1_655 S
C892 C891 1.398 . S
C892 C893 1.391 . S
C893 H881 0.950 . S
C893 C889 1.393 . S
C893 C892 1.391 . S
C894 H884 0.950 . S
C894 C895 1.386 . S
C894 C896 1.391 . S
C895 C894 1.386 . S
C895 C899 1.393 . S
C896 H885 0.950 . S
C896 C894 1.391 . S
C896 C897 1.400 . S
C897 C891 1.491 1_455 S
C897 C896 1.400 . S
C897 C898 1.398 . S
C898 H886 0.950 1_455 S
C898 C897 1.398 . S
C898 C899 1.391 . S
C899 H887 0.950 . S
C899 C895 1.393 . S
C899 C898 1.391 . S
H900 C908 0.950 . S
H901 C913 0.950 . S
H902 C910 0.950 1_655 S
H903 C912 0.950 . S
H904 C914 0.950 . S
H905 C916 0.950 1_455 S
H906 C918 0.950 . S
H907 C919 0.950 . S
C908 H900 0.950 . S
C908 C909 1.386 . S
C908 C910 1.391 . S
C909 C908 1.386 . S
C909 C913 1.393 . S
C910 H902 0.950 1_455 S
C910 C908 1.391 . S
C910 C911 1.400 . S
C911 C910 1.400 . S
C911 C912 1.398 . S
C911 C917 1.491 1_455 S
C912 H903 0.950 . S
C912 C911 1.398 . S
C912 C913 1.391 . S
C913 H901 0.950 . S
C913 C909 1.393 . S
C913 C912 1.391 . S
C914 H904 0.950 . S
C914 C915 1.386 . S
C914 C916 1.391 . S
C915 C914 1.386 . S
C915 C919 1.393 . S
C916 H905 0.950 1_655 S
C916 C914 1.391 . S
C916 C917 1.400 . S
C917 C911 1.491 1_655 S
C917 C916 1.400 . S
C917 C918 1.398 . S
C918 H906 0.950 . S
C918 C917 1.398 . S
C918 C919 1.391 . S
C919 H907 0.950 . S
C919 C915 1.393 . S
C919 C918 1.391 . S
H920 C928 0.950 . S
H921 C933 0.950 . S
H922 C930 0.950 1_545 S
H923 C932 0.950 . S
H924 C934 0.950 . S
H925 C936 0.950 1_565 S
H926 C938 0.950 . S
H927 C939 0.950 . S
C928 H920 0.950 . S
C928 C929 1.386 . S
C928 C930 1.391 . S
C929 C928 1.386 . S
C929 C933 1.393 . S
C930 H922 0.950 1_565 S
C930 C928 1.391 . S
C930 C931 1.400 . S
C931 C930 1.400 . S
C931 C932 1.398 . S
C931 C937 1.491 1_565 S
C932 H923 0.950 . S
C932 C931 1.398 . S
C932 C933 1.391 . S
C933 H921 0.950 . S
C933 C929 1.393 . S
C933 C932 1.391 . S
C934 H924 0.950 . S
C934 C935 1.386 . S
C934 C936 1.391 . S
C935 C934 1.386 . S
C935 C939 1.393 . S
C936 H925 0.950 1_545 S
C936 C934 1.391 . S
C936 C937 1.400 . S
C937 C931 1.491 1_545 S
C937 C936 1.400 . S
C937 C938 1.398 . S
C938 H926 0.950 . S
C938 C937 1.398 . S
C938 C939 1.391 . S
C939 H927 0.950 . S
C939 C935 1.393 . S
C939 C938 1.391 . S
H940 C948 0.950 . S
H941 C953 0.950 . S
H942 C950 0.950 . S
H943 C952 0.950 . S
H944 C954 0.950 . S
H945 C956 0.950 . S
H946 C958 0.950 . S
H947 C959 0.950 . S
C948 H940 0.950 . S
C948 C949 1.386 . S
C948 C950 1.391 . S
C949 C948 1.386 . S
C949 C953 1.393 . S
C950 H942 0.950 . S
C950 C948 1.391 . S
C950 C951 1.400 . S
C951 C950 1.400 . S
C951 C952 1.398 . S
C951 C957 1.491 . S
C952 H943 0.950 . S
C952 C951 1.398 . S
C952 C953 1.391 . S
C953 H941 0.950 . S
C953 C949 1.393 . S
C953 C952 1.391 . S
C954 H944 0.950 . S
C954 C955 1.386 . S
C954 C956 1.391 . S
C955 C954 1.386 . S
C955 C959 1.393 . S
C956 H945 0.950 . S
C956 C954 1.391 . S
C956 C957 1.400 . S
C957 C951 1.491 . S
C957 C956 1.400 . S
C957 C958 1.398 . S
C958 H946 0.950 . S
C958 C957 1.398 . S
C958 C959 1.391 . S
C959 H947 0.950 . S
C959 C955 1.393 . S
C959 C958 1.391 . S
H960 C968 0.950 . S
H961 C973 0.950 . S
H962 C970 0.950 1_545 S
H963 C972 0.950 . S
H964 C974 0.950 . S
H965 C976 0.950 1_565 S
H966 C978 0.950 . S
H967 C979 0.950 . S
C968 H960 0.950 . S
C968 C969 1.386 . S
C968 C970 1.391 . S
C969 C968 1.386 . S
C969 C973 1.393 . S
C970 H962 0.950 1_565 S
C970 C968 1.391 . S
C970 C971 1.400 . S
C971 C970 1.400 . S
C971 C972 1.398 . S
C971 C977 1.491 1_565 S
C972 H963 0.950 . S
C972 C971 1.398 . S
C972 C973 1.391 . S
C973 H961 0.950 . S
C973 C969 1.393 . S
C973 C972 1.391 . S
C974 H964 0.950 . S
C974 C975 1.386 . S
C974 C976 1.391 . S
C975 C974 1.386 . S
C975 C979 1.393 . S
C976 H965 0.950 1_545 S
C976 C974 1.391 . S
C976 C977 1.400 . S
C977 C971 1.491 1_545 S
C977 C976 1.400 . S
C977 C978 1.398 . S
C978 H966 0.950 . S
C978 C977 1.398 . S
C978 C979 1.391 . S
C979 H967 0.950 . S
C979 C975 1.393 . S
C979 C978 1.391 . S
H980 C988 0.950 . S
H981 C993 0.950 . S
H982 C990 0.950 . S
H983 C992 0.950 . S
H984 C994 0.950 . S
H985 C996 0.950 . S
H986 C998 0.950 . S
H987 C999 0.950 . S
C988 H980 0.950 . S
C988 C989 1.386 . S
C988 C990 1.391 . S
C989 C988 1.386 . S
C989 C993 1.393 . S
C990 H982 0.950 . S
C990 C988 1.391 . S
C990 C991 1.400 . S
C991 C990 1.400 . S
C991 C992 1.398 . S
C991 C997 1.491 . S
C992 H983 0.950 . S
C992 C991 1.398 . S
C992 C993 1.391 . S
C993 H981 0.950 . S
C993 C989 1.393 . S
C993 C992 1.391 . S
C994 H984 0.950 . S
C994 C995 1.386 . S
C994 C996 1.391 . S
C995 C994 1.386 . S
C995 C999 1.393 . S
C996 H985 0.950 . S
C996 C994 1.391 . S
C996 C997 1.400 . S
C997 C991 1.491 . S
C997 C996 1.400 . S
C997 C998 1.398 . S
C998 H986 0.950 . S
C998 C997 1.398 . S
C998 C999 1.391 . S
C999 H987 0.950 . S
C999 C995 1.393 . S
C999 C998 1.391 . S
H1000 C1008 0.950 . S
H1001 C1013 0.950 . S
H1002 C1010 0.950 . S
H1003 C1012 0.950 1_455 S
H1004 C1014 0.950 . S
H1005 C1016 0.950 . S
H1006 C1018 0.950 1_655 S
H1007 C1019 0.950 . S
C1008 H1000 0.950 . S
C1008 C1009 1.386 . S
C1008 C1010 1.391 . S
C1009 C1008 1.386 . S
C1009 C1013 1.393 . S
C1010 H1002 0.950 . S
C1010 C1008 1.391 . S
C1010 C1011 1.400 . S
C1011 C1010 1.400 . S
C1011 C1012 1.398 . S
C1011 C1017 1.491 1_655 S
C1012 H1003 0.950 1_655 S
C1012 C1011 1.398 . S
C1012 C1013 1.391 . S
C1013 H1001 0.950 . S
C1013 C1009 1.393 . S
C1013 C1012 1.391 . S
C1014 H1004 0.950 . S
C1014 C1015 1.386 . S
C1014 C1016 1.391 . S
C1015 C1014 1.386 . S
C1015 C1019 1.393 . S
C1016 H1005 0.950 . S
C1016 C1014 1.391 . S
C1016 C1017 1.400 . S
C1017 C1011 1.491 1_455 S
C1017 C1016 1.400 . S
C1017 C1018 1.398 . S
C1018 H1006 0.950 1_455 S
C1018 C1017 1.398 . S
C1018 C1019 1.391 . S
C1019 H1007 0.950 . S
C1019 C1015 1.393 . S
C1019 C1018 1.391 . S
H1020 C1028 0.950 . S
H1021 C1033 0.950 . S
H1022 C1030 0.950 . S
H1023 C1032 0.950 . S
H1024 C1034 0.950 . S
H1025 C1036 0.950 . S
H1026 C1038 0.950 . S
H1027 C1039 0.950 . S
C1028 H1020 0.950 . S
C1028 C1029 1.386 . S
C1028 C1030 1.391 . S
C1029 C1028 1.386 . S
C1029 C1033 1.393 . S
C1030 H1022 0.950 . S
C1030 C1028 1.391 . S
C1030 C1031 1.400 . S
C1031 C1030 1.400 . S
C1031 C1032 1.398 . S
C1031 C1037 1.491 1_545 S
C1032 H1023 0.950 . S
C1032 C1031 1.398 . S
C1032 C1033 1.391 . S
C1033 H1021 0.950 . S
C1033 C1029 1.393 . S
C1033 C1032 1.391 . S
C1034 H1024 0.950 . S
C1034 C1035 1.386 . S
C1034 C1036 1.391 . S
C1035 C1034 1.386 . S
C1035 C1039 1.393 . S
C1036 H1025 0.950 . S
C1036 C1034 1.391 . S
C1036 C1037 1.400 . S
C1037 C1031 1.491 1_565 S
C1037 C1036 1.400 . S
C1037 C1038 1.398 . S
C1038 H1026 0.950 . S
C1038 C1037 1.398 . S
C1038 C1039 1.391 . S
C1039 H1027 0.950 . S
C1039 C1035 1.393 . S
C1039 C1038 1.391 . S
H1040 C1048 0.950 . S
H1041 C1053 0.950 . S
H1042 C1050 0.950 . S
H1043 C1052 0.950 . S
H1044 C1054 0.950 . S
H1045 C1056 0.950 . S
H1046 C1058 0.950 . S
H1047 C1059 0.950 . S
C1048 H1040 0.950 . S
C1048 C1049 1.386 . S
C1048 C1050 1.391 . S
C1049 C1048 1.386 . S
C1049 C1053 1.393 . S
C1050 H1042 0.950 . S
C1050 C1048 1.391 . S
C1050 C1051 1.400 . S
C1051 C1050 1.400 . S
C1051 C1052 1.398 . S
C1051 C1057 1.491 . S
C1052 H1043 0.950 . S
C1052 C1051 1.398 . S
C1052 C1053 1.391 . S
C1053 H1041 0.950 . S
C1053 C1049 1.393 . S
C1053 C1052 1.391 . S
C1054 H1044 0.950 . S
C1054 C1055 1.386 . S
C1054 C1056 1.391 . S
C1055 C1054 1.386 . S
C1055 C1059 1.393 . S
C1056 H1045 0.950 . S
C1056 C1054 1.391 . S
C1056 C1057 1.400 . S
C1057 C1051 1.491 . S
C1057 C1056 1.400 . S
C1057 C1058 1.398 . S
C1058 H1046 0.950 . S
C1058 C1057 1.398 . S
C1058 C1059 1.391 . S
C1059 H1047 0.950 . S
C1059 C1055 1.393 . S
C1059 C1058 1.391 . S
H1060 C1068 0.950 . S
H1061 C1073 0.950 . S
H1062 C1070 0.950 . S
H1063 C1072 0.950 1_655 S
H1064 C1074 0.950 . S
H1065 C1076 0.950 . S
H1066 C1078 0.950 1_455 S
H1067 C1079 0.950 . S
C1068 H1060 0.950 . S
C1068 C1069 1.386 . S
C1068 C1070 1.391 . S
C1069 C1068 1.386 . S
C1069 C1073 1.393 . S
C1070 H1062 0.950 . S
C1070 C1068 1.391 . S
C1070 C1071 1.400 . S
C1071 C1070 1.400 . S
C1071 C1072 1.398 . S
C1071 C1077 1.491 1_455 S
C1072 H1063 0.950 1_455 S
C1072 C1071 1.398 . S
C1072 C1073 1.391 . S
C1073 H1061 0.950 . S
C1073 C1069 1.393 . S
C1073 C1072 1.391 . S
C1074 H1064 0.950 . S
C1074 C1075 1.386 . S
C1074 C1076 1.391 . S
C1075 C1074 1.386 . S
C1075 C1079 1.393 . S
C1076 H1065 0.950 . S
C1076 C1074 1.391 . S
C1076 C1077 1.400 . S
C1077 C1071 1.491 1_655 S
C1077 C1076 1.400 . S
C1077 C1078 1.398 . S
C1078 H1066 0.950 1_655 S
C1078 C1077 1.398 . S
C1078 C1079 1.391 . S
C1079 H1067 0.950 . S
C1079 C1075 1.393 . S
C1079 C1078 1.391 . S
H1080 C1088 0.950 . S
H1081 C1093 0.950 . S
H1082 C1090 0.950 . S
H1083 C1092 0.950 . S
H1084 C1094 0.950 . S
H1085 C1096 0.950 . S
H1086 C1098 0.950 . S
H1087 C1099 0.950 . S
C1088 H1080 0.950 . S
C1088 C1089 1.386 . S
C1088 C1090 1.391 . S
C1089 C1088 1.386 . S
C1089 C1093 1.393 . S
C1090 H1082 0.950 . S
C1090 C1088 1.391 . S
C1090 C1091 1.400 . S
C1091 C1090 1.400 . S
C1091 C1092 1.398 . S
C1091 C1097 1.491 . S
C1092 H1083 0.950 . S
C1092 C1091 1.398 . S
C1092 C1093 1.391 . S
C1093 H1081 0.950 . S
C1093 C1089 1.393 . S
C1093 C1092 1.391 . S
C1094 H1084 0.950 . S
C1094 C1095 1.386 . S
C1094 C1096 1.391 . S
C1095 C1094 1.386 . S
C1095 C1099 1.393 . S
C1096 H1085 0.950 . S
C1096 C1094 1.391 . S
C1096 C1097 1.400 . S
C1097 C1091 1.491 . S
C1097 C1096 1.400 . S
C1097 C1098 1.398 . S
C1098 H1086 0.950 . S
C1098 C1097 1.398 . S
C1098 C1099 1.391 . S
C1099 H1087 0.950 . S
C1099 C1095 1.393 . S
C1099 C1098 1.391 . S
H1100 C1108 0.950 . S
H1101 C1113 0.950 . S
H1102 C1110 0.950 . S
H1103 C1112 0.950 . S
H1104 C1114 0.950 . S
H1105 C1116 0.950 . S
H1106 C1118 0.950 . S
H1107 C1119 0.950 . S
C1108 H1100 0.950 . S
C1108 C1109 1.386 . S
C1108 C1110 1.391 . S
C1109 C1108 1.386 . S
C1109 C1113 1.393 . S
C1110 H1102 0.950 . S
C1110 C1108 1.391 . S
C1110 C1111 1.400 . S
C1111 C1110 1.400 . S
C1111 C1112 1.398 . S
C1111 C1117 1.491 . S
C1112 H1103 0.950 . S
C1112 C1111 1.398 . S
C1112 C1113 1.391 . S
C1113 H1101 0.950 . S
C1113 C1109 1.393 . S
C1113 C1112 1.391 . S
C1114 H1104 0.950 . S
C1114 C1115 1.386 . S
C1114 C1116 1.391 . S
C1115 C1114 1.386 . S
C1115 C1119 1.393 . S
C1116 H1105 0.950 . S
C1116 C1114 1.391 . S
C1116 C1117 1.400 . S
C1117 C1111 1.491 . S
C1117 C1116 1.400 . S
C1117 C1118 1.398 . S
C1118 H1106 0.950 . S
C1118 C1117 1.398 . S
C1118 C1119 1.391 . S
C1119 H1107 0.950 . S
C1119 C1115 1.393 . S
C1119 C1118 1.391 . S
H1120 C1128 0.950 . S
H1121 C1133 0.950 . S
H1122 C1130 0.950 . S
H1123 C1132 0.950 . S
H1124 C1134 0.950 . S
H1125 C1136 0.950 . S
H1126 C1138 0.950 . S
H1127 C1139 0.950 . S
C1128 H1120 0.950 . S
C1128 C1129 1.386 . S
C1128 C1130 1.391 . S
C1129 C1128 1.386 . S
C1129 C1133 1.393 . S
C1130 H1122 0.950 . S
C1130 C1128 1.391 . S
C1130 C1131 1.400 . S
C1131 C1130 1.400 . S
C1131 C1132 1.398 . S
C1131 C1137 1.491 . S
C1132 H1123 0.950 . S
C1132 C1131 1.398 . S
C1132 C1133 1.391 . S
C1133 H1121 0.950 . S
C1133 C1129 1.393 . S
C1133 C1132 1.391 . S
C1134 H1124 0.950 . S
C1134 C1135 1.386 . S
C1134 C1136 1.391 . S
C1135 C1134 1.386 . S
C1135 C1139 1.393 . S
C1136 H1125 0.950 . S
C1136 C1134 1.391 . S
C1136 C1137 1.400 . S
C1137 C1131 1.491 . S
C1137 C1136 1.400 . S
C1137 C1138 1.398 . S
C1138 H1126 0.950 . S
C1138 C1137 1.398 . S
C1138 C1139 1.391 . S
C1139 H1127 0.950 . S
C1139 C1135 1.393 . S
C1139 C1138 1.391 . S
H1140 C1148 0.950 . S
H1141 C1153 0.950 . S
H1142 C1150 0.950 . S
H1143 C1152 0.950 . S
H1144 C1154 0.950 . S
H1145 C1156 0.950 . S
H1146 C1158 0.950 . S
H1147 C1159 0.950 . S
C1148 H1140 0.950 . S
C1148 C1149 1.386 . S
C1148 C1150 1.391 . S
C1149 C1148 1.386 . S
C1149 C1153 1.393 . S
C1150 H1142 0.950 . S
C1150 C1148 1.391 . S
C1150 C1151 1.400 . S
C1151 C1150 1.400 . S
C1151 C1152 1.398 . S
C1151 C1157 1.491 . S
C1152 H1143 0.950 . S
C1152 C1151 1.398 . S
C1152 C1153 1.391 . S
C1153 H1141 0.950 . S
C1153 C1149 1.393 . S
C1153 C1152 1.391 . S
C1154 H1144 0.950 . S
C1154 C1155 1.386 . S
C1154 C1156 1.391 . S
C1155 C1154 1.386 . S
C1155 C1159 1.393 . S
C1156 H1145 0.950 . S
C1156 C1154 1.391 . S
C1156 C1157 1.400 . S
C1157 C1151 1.491 . S
C1157 C1156 1.400 . S
C1157 C1158 1.398 . S
C1158 H1146 0.950 . S
C1158 C1157 1.398 . S
C1158 C1159 1.391 . S
C1159 H1147 0.950 . S
C1159 C1155 1.393 . S
C1159 C1158 1.391 . S
H1160 C1168 0.950 . S
H1161 C1173 0.950 . S
H1162 C1170 0.950 . S
H1163 C1172 0.950 . S
H1164 C1174 0.950 . S
H1165 C1176 0.950 . S
H1166 C1178 0.950 . S
H1167 C1179 0.950 . S
C1168 H1160 0.950 . S
C1168 C1169 1.386 . S
C1168 C1170 1.391 . S
C1169 C1168 1.386 . S
C1169 C1173 1.393 . S
C1170 H1162 0.950 . S
C1170 C1168 1.391 . S
C1170 C1171 1.400 . S
C1171 C1170 1.400 . S
C1171 C1172 1.398 . S
C1171 C1177 1.491 . S
C1172 H1163 0.950 . S
C1172 C1171 1.398 . S
C1172 C1173 1.391 . S
C1173 H1161 0.950 . S
C1173 C1169 1.393 . S
C1173 C1172 1.391 . S
C1174 H1164 0.950 . S
C1174 C1175 1.386 . S
C1174 C1176 1.391 . S
C1175 C1174 1.386 . S
C1175 C1179 1.393 . S
C1176 H1165 0.950 . S
C1176 C1174 1.391 . S
C1176 C1177 1.400 . S
C1177 C1171 1.491 . S
C1177 C1176 1.400 . S
C1177 C1178 1.398 . S
C1178 H1166 0.950 . S
C1178 C1177 1.398 . S
C1178 C1179 1.391 . S
C1179 H1167 0.950 . S
C1179 C1175 1.393 . S
C1179 C1178 1.391 . S
H1180 C1188 0.950 . S
H1181 C1193 0.950 . S
H1182 C1190 0.950 . S
H1183 C1192 0.950 . S
H1184 C1194 0.950 . S
H1185 C1196 0.950 . S
H1186 C1198 0.950 . S
H1187 C1199 0.950 . S
C1188 H1180 0.950 . S
C1188 C1189 1.386 . S
C1188 C1190 1.391 . S
C1189 C1188 1.386 . S
C1189 C1193 1.393 . S
C1190 H1182 0.950 . S
C1190 C1188 1.391 . S
C1190 C1191 1.400 . S
C1191 C1190 1.400 . S
C1191 C1192 1.398 . S
C1191 C1197 1.491 . S
C1192 H1183 0.950 . S
C1192 C1191 1.398 . S
C1192 C1193 1.391 . S
C1193 H1181 0.950 . S
C1193 C1189 1.393 . S
C1193 C1192 1.391 . S
C1194 H1184 0.950 . S
C1194 C1195 1.386 . S
C1194 C1196 1.391 . S
C1195 C1194 1.386 . S
C1195 C1199 1.393 . S
C1196 H1185 0.950 . S
C1196 C1194 1.391 . S
C1196 C1197 1.400 . S
C1197 C1191 1.491 . S
C1197 C1196 1.400 . S
C1197 C1198 1.398 . S
C1198 H1186 0.950 . S
C1198 C1197 1.398 . S
C1198 C1199 1.391 . S
C1199 H1187 0.950 . S
C1199 C1195 1.393 . S
C1199 C1198 1.391 . S
C489 C23 0.930 . S
C495 C343 0.940 . S
C509 C63 0.929 . S
C515 C383 0.921 . S
C529 C103 0.940 . S
C535 C423 0.930 . S
C549 C463 0.932 . S
C555 C143 0.941 . S
C569 C183 0.922 . S
C575 C263 0.923 . S
C589 C303 0.924 . S
C595 C223 0.935 . S
C609 C404 1.419 . S
C615 C4 1.417 . S
C629 C444 1.417 . S
C635 C44 1.418 . S
C649 C84 1.414 . S
C655 C244 1.430 . S
C669 C284 1.428 . S
C675 C124 1.413 . S
C689 C324 1.413 . S
C695 C164 1.428 . S
C709 C204 1.431 . S
C715 C364 1.415 . S
C729 C300 4.441 . S
C735 C20 4.439 . S
C749 C340 4.442 . S
C755 C60 4.438 . S
C769 C380 4.435 . S
C775 C100 4.441 . S
C789 C140 4.436 . S
C795 C420 4.437 . S
C809 C180 4.441 . S
C815 C460 4.440 . S
C829 C220 4.435 . S
C835 C260 4.438 . S
C849 C2 0.688 . S
C855 C122 0.647 . S
C869 C42 0.647 . S
C875 C162 0.684 . S
C889 C82 0.680 . S
C895 C202 0.647 . S
C909 C362 0.647 . S
C915 C242 0.686 . S
C929 C282 0.647 . S
C935 C402 0.681 . S
C949 C442 0.647 . S
C955 C322 0.685 . S
C969 C305 0.824 . S
C975 C25 0.857 . S
C989 C345 0.836 . S
C995 C65 0.826 . S
C1009 C105 0.869 . S
C1015 C385 0.831 . S
C1029 C425 0.873 . S
C1035 C145 0.864 . S
C1049 C465 0.873 . S
C1055 C185 0.865 . S
C1069 C225 0.862 . S
C1075 C265 0.826 . S
C1089 C31 4.584 . S
C1095 C431 4.587 . S
C1109 C71 4.584 . S
C1115 C471 4.587 1_556 S
C1129 C111 4.587 1_554 S
C1135 C271 4.584 . S
C1149 C151 4.586 . S
C1155 C311 4.584 . S
C1169 C191 4.586 . S
C1175 C351 4.585 1_556 S
C1189 C391 4.587 . S
C1195 C231 4.583 1_554 S
