# Generated by pormake.
# Topology mdf, (4)-cn, num edge types: 1
# Building blocks:
#     Node 0, Type 0, BuildingBlock: GALJAG_clean_sbu_0, # of connection points: 4
#     Node 1, Type 0, BuildingBlock: GALJAG_clean_sbu_0, # of connection points: 4
#     Node 2, Type 0, BuildingBlock: GALJAG_clean_sbu_0, # of connection points: 4
#     Node 3, Type 0, BuildingBlock: GALJAG_clean_sbu_0, # of connection points: 4
#     Node 4, Type 0, BuildingBlock: GALJAG_clean_sbu_0, # of connection points: 4
#     Node 5, Type 0, BuildingBlock: GALJAG_clean_sbu_0, # of connection points: 4
#     Node 6, Type 0, BuildingBlock: GALJAG_clean_sbu_0, # of connection points: 4
#     Node 7, Type 0, BuildingBlock: GALJAG_clean_sbu_0, # of connection points: 4
#     Edge 8, Type (0, 0), BuildingBlock: EZIPEK_clean_linker_0, # of connection points: 2
#     Edge 9, Type (0, 0), BuildingBlock: EZIPEK_clean_linker_0, # of connection points: 2
#     Edge 10, Type (0, 0), BuildingBlock: EZIPEK_clean_linker_0, # of connection points: 2
#     Edge 11, Type (0, 0), BuildingBlock: EZIPEK_clean_linker_0, # of connection points: 2
#     Edge 12, Type (0, 0), BuildingBlock: EZIPEK_clean_linker_0, # of connection points: 2
#     Edge 13, Type (0, 0), BuildingBlock: EZIPEK_clean_linker_0, # of connection points: 2
#     Edge 14, Type (0, 0), BuildingBlock: EZIPEK_clean_linker_0, # of connection points: 2
#     Edge 15, Type (0, 0), BuildingBlock: EZIPEK_clean_linker_0, # of connection points: 2
#     Edge 16, Type (0, 0), BuildingBlock: EZIPEK_clean_linker_0, # of connection points: 2
#     Edge 17, Type (0, 0), BuildingBlock: EZIPEK_clean_linker_0, # of connection points: 2
#     Edge 18, Type (0, 0), BuildingBlock: EZIPEK_clean_linker_0, # of connection points: 2
#     Edge 19, Type (0, 0), BuildingBlock: EZIPEK_clean_linker_0, # of connection points: 2
#     Edge 20, Type (0, 0), BuildingBlock: EZIPEK_clean_linker_0, # of connection points: 2
#     Edge 21, Type (0, 0), BuildingBlock: EZIPEK_clean_linker_0, # of connection points: 2
#     Edge 22, Type (0, 0), BuildingBlock: EZIPEK_clean_linker_0, # of connection points: 2
#     Edge 23, Type (0, 0), BuildingBlock: EZIPEK_clean_linker_0, # of connection points: 2
# Relax obj value: 0.054
# Max RMSD: 0.086
# Mean RMSD: 0.086
data_MOF--net-mdf--node1-GALJAG_clean_sbu_0--edge1-EZIPEK_clean_linker_0
_symmetry_space_group_name_H-M    P1
_symmetry_Int_Tables_number       1
_symmetry_cell_setting            triclinic
loop_
_symmetry_equiv_pos_as_xyz
'x, y, z'
_cell_length_a     28.72567
_cell_length_b     28.636725
_cell_length_c     7.9017245
_cell_angle_alpha  90.312025
_cell_angle_beta   90.187853
_cell_angle_gamma 89.956036
loop_
_atom_site_label
_atom_site_type_symbol
_atom_site_fract_x
_atom_site_fract_y
_atom_site_fract_z
_atom_type_partial_charge
In0 In 0.2434 0.52831 0.41166 0.0
O1 O 0.26628 0.56274 0.16815 0.0
O2 O 0.30439 0.57772 0.39594 0.0
C3 C 0.17534 0.46922 0.31782 0.0
C4 C 0.30751 0.46373 0.48849 0.0
C5 C 0.19533 0.59341 0.58335 0.0
O6 O 0.19535 0.49554 0.21266 0.0
O7 O 0.18846 0.4739 0.46935 0.0
O8 O 0.218 0.56168 0.65831 0.0
O9 O 0.19769 0.59245 0.4241 0.0
C10 C 0.29945 0.58443 0.23911 0.0
O11 O 0.29049 0.49039 0.60096 0.0
O12 O 0.29253 0.47017 0.34033 0.0
In13 In 0.4846 0.74159 0.65095 0.0
O14 O 0.45375 0.72669 0.90973 0.0
O15 O 0.42781 0.68897 0.69457 0.0
C16 C 0.54553 0.81081 0.70001 0.0
C17 C 0.54443 0.67161 0.5884 0.0
C18 C 0.42337 0.79078 0.46974 0.0
O19 O 0.51993 0.79599 0.81812 0.0
O20 O 0.54073 0.79047 0.55904 0.0
O21 O 0.44617 0.75741 0.40447 0.0
O22 O 0.43079 0.7983 0.62474 0.0
C23 C 0.42595 0.69625 0.85205 0.0
O24 O 0.51846 0.68819 0.47366 0.0
O25 O 0.5399 0.69009 0.73273 0.0
In26 In 0.2577 0.97656 0.90854 0.0
O27 O 0.27775 0.94947 0.17159 0.0
O28 O 0.3069 0.91712 0.95169 0.0
C29 C 0.19127 0.03981 0.96837 0.0
C30 C 0.3296 0.0334 0.82505 0.0
C31 C 0.20344 0.91737 0.73488 0.0
O32 O 0.20986 0.01669 0.08753 0.0
O33 O 0.20607 0.03065 0.8213 0.0
O34 O 0.23228 0.94371 0.66088 0.0
O35 O 0.20225 0.92095 0.89385 0.0
C36 C 0.30431 0.91832 0.11066 0.0
O37 O 0.32416 0.99358 0.75829 0.0
O38 O 0.29811 0.0442 0.92834 0.0
In39 In 0.0126 0.76015 0.15981 0.0
O40 O 0.97386 0.70843 0.32838 0.0
O41 O 0.95737 0.7093 0.06521 0.0
C42 C 0.07167 0.80368 0.37133 0.0
C43 C 0.07569 0.71594 0.96726 0.0
C44 C 0.95353 0.82945 0.07927 0.0
O45 O 0.0463 0.77043 0.42102 0.0
O46 O 0.06657 0.81498 0.21857 0.0
O47 O 0.97757 0.80835 0.96917 0.0
O48 O 0.95946 0.81598 0.22958 0.0
C49 C 0.94994 0.69153 0.20822 0.0
O50 O 0.05534 0.75263 0.9186 0.0
O51 O 0.06458 0.70192 0.11253 0.0
In52 In 0.74325 0.02567 0.84109 0.0
O53 O 0.77575 0.05169 0.5989 0.0
O54 O 0.78962 0.08942 0.82796 0.0
C55 C 0.68036 0.95876 0.78292 0.0
C56 C 0.81287 0.96831 0.93046 0.0
C57 C 0.68404 0.08728 0.97492 0.0
O58 O 0.69789 0.98197 0.66244 0.0
O59 O 0.69429 0.96989 0.92913 0.0
O60 O 0.716 0.06812 0.06151 0.0
O61 O 0.68265 0.07611 0.81979 0.0
C62 C 0.79721 0.08507 0.671 0.0
O63 O 0.78734 0.98782 0.04109 0.0
O64 O 0.80423 0.97955 0.77979 0.0
In65 In 0.98727 0.2493 0.11117 0.0
O66 O 0.94591 0.23788 0.35521 0.0
O67 O 0.94346 0.18568 0.16185 0.0
C68 C 0.04626 0.32007 0.16915 0.0
C69 C 0.05199 0.18358 0.05858 0.0
C70 C 0.9246 0.29175 0.9087 0.0
O71 O 0.02153 0.30287 0.2855 0.0
O72 O 0.04116 0.3017 0.02481 0.0
O73 O 0.94945 0.25808 0.85768 0.0
O74 O 0.93091 0.30339 0.06109 0.0
C75 C 0.93029 0.1987 0.30657 0.0
O76 O 0.02621 0.19841 0.94019 0.0
O77 O 0.04565 0.20238 0.20159 0.0
In78 In 0.75247 0.4749 0.34551 0.0
O79 O 0.77585 0.43708 0.58601 0.0
O80 O 0.80331 0.41379 0.35056 0.0
C81 C 0.68275 0.53085 0.4455 0.0
C82 C 0.81814 0.54071 0.29599 0.0
C83 C 0.70248 0.42328 0.12683 0.0
O84 O 0.70002 0.50044 0.54288 0.0
O85 O 0.70032 0.53275 0.29977 0.0
O86 O 0.73617 0.44829 0.07874 0.0
O87 O 0.6947 0.42376 0.28395 0.0
C88 C 0.80289 0.40937 0.50922 0.0
O89 O 0.80211 0.51619 0.17572 0.0
O90 O 0.80169 0.53165 0.43969 0.0
In91 In 0.51243 0.25371 0.58628 0.0
O92 O 0.49436 0.19629 0.77492 0.0
O93 O 0.45587 0.19992 0.54366 0.0
C94 C 0.57756 0.30764 0.73555 0.0
C95 C 0.56331 0.20729 0.3579 0.0
C96 C 0.4456 0.319 0.56694 0.0
O97 O 0.55423 0.2778 0.817 0.0
O98 O 0.56914 0.30903 0.57895 0.0
O99 O 0.46808 0.30556 0.43807 0.0
O100 O 0.4561 0.29892 0.70351 0.0
C101 C 0.46248 0.17923 0.68231 0.0
O102 O 0.5336 0.23758 0.31357 0.0
O103 O 0.56768 0.20137 0.51524 0.0
C104 C 0.40118 0.6193 0.96467 0.0
C105 C 0.39528 0.66848 0.96121 0.0
C106 C 0.32923 0.66285 0.15507 0.0
C107 C 0.33222 0.61349 0.14375 0.0
N108 N 0.36801 0.5438 0.03086 0.0
N109 N 0.35166 0.73754 0.03678 0.0
C110 C 0.36727 0.59142 0.04605 0.0
C111 C 0.359 0.69056 0.05327 0.0
N112 N 0.44032 0.59955 0.89636 0.0
N113 N 0.29794 0.6831 0.26311 0.0
H114 H 0.37281 0.759 0.96367 0.0
H115 H 0.32278 0.75494 0.08539 0.0
H116 H 0.2742 0.6639 0.33409 0.0
H117 H 0.29718 0.71868 0.29038 0.0
H118 H 0.44911 0.56449 0.90917 0.0
H119 H 0.46659 0.61902 0.83945 0.0
H120 H 0.38959 0.52579 0.94761 0.0
H121 H 0.34503 0.52195 0.09463 0.0
C122 C 0.34401 0.82212 0.40833 0.0
C123 C 0.39229 0.82147 0.3719 0.0
C124 C 0.38303 0.88908 0.18668 0.0
C125 C 0.33422 0.88772 0.21399 0.0
N126 N 0.26794 0.85162 0.35241 0.0
N127 N 0.45736 0.84955 0.20867 0.0
C128 C 0.31465 0.85432 0.32503 0.0
C129 C 0.41168 0.8534 0.25512 0.0
N130 N 0.32544 0.79083 0.51926 0.0
N131 N 0.40229 0.92612 0.10346 0.0
H132 H 0.48021 0.82528 0.26106 0.0
H133 H 0.47191 0.86805 0.10889 0.0
H134 H 0.38264 0.95405 0.05797 0.0
H135 H 0.43798 0.9318 0.09458 0.0
H136 H 0.29004 0.7902 0.54833 0.0
H137 H 0.34518 0.76517 0.57946 0.0
H138 H 0.24329 0.87333 0.29571 0.0
H139 H 0.24329 0.87333 0.29571 0.0
C140 C 0.14365 0.80968 0.55227 0.0
C141 C 0.10295 0.83047 0.48397 0.0
C142 C 0.1302 0.90804 0.56864 0.0
C143 C 0.17007 0.88735 0.64322 0.0
N144 N 0.21116 0.8184 0.73521 0.0
N145 N 0.05112 0.89634 0.4708 0.0
C146 C 0.1756 0.83804 0.64479 0.0
C147 C 0.09441 0.87883 0.50465 0.0
N148 N 0.15277 0.7635 0.52238 0.0
N149 N 0.12644 0.95555 0.55866 0.0
H150 H 0.02338 0.87499 0.43439 0.0
H151 H 0.04127 0.93061 0.49722 0.0
H152 H 0.15104 0.97838 0.60981 0.0
H153 H 0.10068 0.97232 0.4885 0.0
H154 H 0.18429 0.74754 0.55234 0.0
H155 H 0.12975 0.74158 0.45768 0.0
H156 H 0.21386 0.78268 0.75739 0.0
H157 H 0.23659 0.83815 0.7972 0.0
C158 C 0.15505 0.68329 0.90841 0.0
C159 C 0.10787 0.6891 0.85866 0.0
C160 C 0.11818 0.63257 0.62859 0.0
C161 C 0.16587 0.62782 0.67409 0.0
N162 N 0.23224 0.6562 0.83149 0.0
N163 N 0.04641 0.67612 0.65454 0.0
C164 C 0.18508 0.65524 0.80716 0.0
C165 C 0.0902 0.66623 0.71264 0.0
N166 N 0.17107 0.70438 0.05294 0.0
N167 N 0.09852 0.60275 0.51311 0.0
H168 H 0.02305 0.69784 0.71772 0.0
H169 H 0.03432 0.66538 0.53634 0.0
H170 H 0.11716 0.57786 0.44532 0.0
H171 H 0.06276 0.59969 0.49517 0.0
H172 H 0.20319 0.69681 0.10776 0.0
H173 H 0.15117 0.72789 0.12351 0.0
H174 H 0.24881 0.67926 0.91415 0.0
H175 H 0.25541 0.63702 0.75717 0.0
C176 C 0.82016 0.13186 0.41589 0.0
C177 C 0.83101 0.11537 0.58039 0.0
C178 C 0.90703 0.15497 0.56867 0.0
C179 C 0.89604 0.1711 0.40387 0.0
N180 N 0.84115 0.17896 0.1741 0.0
N181 N 0.88986 0.10045 0.79332 0.0
C182 C 0.8527 0.15988 0.32721 0.0
C183 C 0.87561 0.1245 0.65292 0.0
N184 N 0.77888 0.12001 0.34179 0.0
N185 N 0.94792 0.16811 0.64397 0.0
H186 H 0.87005 0.07465 0.85109 0.0
H187 H 0.92342 0.10185 0.84288 0.0
H188 H 0.9738 0.18685 0.58204 0.0
H189 H 0.95514 0.16284 0.7715 0.0
H190 H 0.77489 0.11855 0.21137 0.0
H191 H 0.74978 0.109 0.40902 0.0
H192 H 0.80868 0.17601 0.11728 0.0
H193 H 0.86311 0.20052 0.10527 0.0
C194 C 0.84431 0.31977 0.83027 0.0
C195 C 0.89282 0.3183 0.79619 0.0
C196 C 0.88248 0.37632 0.57176 0.0
C197 C 0.83358 0.37581 0.59956 0.0
N198 N 0.76714 0.33859 0.72596 0.0
N199 N 0.95753 0.34004 0.61888 0.0
C200 C 0.81424 0.34513 0.72066 0.0
C201 C 0.9116 0.3446 0.66098 0.0
N202 N 0.82692 0.29763 0.96912 0.0
N203 N 0.90177 0.40923 0.4689 0.0
H204 H 0.98129 0.32021 0.68772 0.0
H205 H 0.97161 0.35374 0.50871 0.0
H206 H 0.88244 0.43232 0.3959 0.0
H207 H 0.93723 0.4165 0.46727 0.0
H208 H 0.79283 0.30177 0.01079 0.0
H209 H 0.84739 0.27777 0.0504 0.0
H210 H 0.75153 0.31237 0.79666 0.0
H211 H 0.744 0.35585 0.64573 0.0
C212 C 0.67717 0.3449 0.02138 0.0
C213 C 0.67451 0.39418 0.00959 0.0
C214 C 0.61039 0.38742 0.80486 0.0
C215 C 0.61307 0.33791 0.81764 0.0
N216 N 0.65791 0.27024 0.8943 0.0
N217 N 0.64494 0.46287 0.87057 0.0
C218 C 0.64896 0.31682 0.91375 0.0
C219 C 0.64335 0.4156 0.89386 0.0
N220 N 0.70648 0.3248 0.13656 0.0
N221 N 0.57507 0.40761 0.71467 0.0
H222 H 0.66691 0.48488 0.9395 0.0
H223 H 0.62684 0.48021 0.77543 0.0
H224 H 0.55118 0.38862 0.64298 0.0
H225 H 0.5675 0.44314 0.71763 0.0
H226 H 0.70614 0.28934 0.16399 0.0
H227 H 0.73006 0.34378 0.21027 0.0
H228 H 0.68792 0.25456 0.94072 0.0
H229 H 0.63858 0.24849 0.81442 0.0
C230 C 0.66987 0.16212 0.12811 0.0
C231 C 0.65145 0.12162 0.04998 0.0
C232 C 0.57284 0.14532 0.13529 0.0
C233 C 0.59264 0.18128 0.2368 0.0
N234 N 0.66052 0.22188 0.34242 0.0
N235 N 0.58569 0.07201 0.98695 0.0
C236 C 0.64135 0.18907 0.23703 0.0
C237 C 0.60284 0.11275 0.05316 0.0
N238 N 0.71399 0.17616 0.09043 0.0
N239 N 0.52556 0.14177 0.12012 0.0
H240 H 0.60659 0.04709 0.92766 0.0
H241 H 0.55139 0.06111 0.00174 0.0
H242 H 0.50256 0.164 0.18303 0.0
H243 H 0.50914 0.11921 0.03522 0.0
H244 H 0.72893 0.20674 0.1372 0.0
H245 H 0.73392 0.15949 0.99789 0.0
H246 H 0.69618 0.22414 0.36554 0.0
H247 H 0.6407 0.24515 0.41434 0.0
C248 C 0.33089 0.37984 0.47127 0.0
C249 C 0.34125 0.42606 0.52526 0.0
C250 C 0.41651 0.3996 0.63484 0.0
C251 C 0.40893 0.35521 0.55852 0.0
N252 N 0.3603 0.30338 0.39344 0.0
N253 N 0.39698 0.48184 0.63345 0.0
C254 C 0.36657 0.34547 0.47284 0.0
C255 C 0.38474 0.4365 0.60171 0.0
N256 N 0.28634 0.36833 0.4259 0.0
N257 N 0.45381 0.40658 0.73965 0.0
H258 H 0.37505 0.51006 0.60907 0.0
H259 H 0.43042 0.49182 0.67009 0.0
H260 H 0.47797 0.38056 0.76711 0.0
H261 H 0.45835 0.43683 0.81166 0.0
H262 H 0.27559 0.33431 0.39998 0.0
H263 H 0.25883 0.39208 0.43138 0.0
H264 H 0.33259 0.29648 0.31173 0.0
H265 H 0.38428 0.27609 0.40087 0.0
C266 C 0.65432 0.87645 0.83301 0.0
C267 C 0.64603 0.92076 0.7578 0.0
C268 C 0.57218 0.89221 0.64003 0.0
C269 C 0.57926 0.84908 0.7241 0.0
N270 N 0.62354 0.8013 0.91689 0.0
N271 N 0.59331 0.97387 0.61783 0.0
C272 C 0.61918 0.84165 0.82613 0.0
C273 C 0.60409 0.92944 0.66762 0.0
N274 N 0.69667 0.86677 0.90447 0.0
N275 N 0.53471 0.89772 0.53472 0.0
H276 H 0.61504 0.00243 0.6393 0.0
H277 H 0.56104 0.98343 0.56869 0.0
H278 H 0.50838 0.87288 0.52232 0.0
H279 H 0.53087 0.92581 0.45269 0.0
H280 H 0.70704 0.83348 0.94111 0.0
H281 H 0.72332 0.89115 0.91571 0.0
H282 H 0.64858 0.79637 0.01067 0.0
H283 H 0.60026 0.7735 0.90705 0.0
C284 C 0.08032 0.10197 0.10874 0.0
C285 C 0.08701 0.14638 0.03329 0.0
C286 C 0.1642 0.12241 0.93521 0.0
C287 C 0.15592 0.07669 0.99733 0.0
N288 N 0.10336 0.0205 0.11909 0.0
N289 N 0.13206 0.19743 0.85552 0.0
C290 C 0.11334 0.0658 0.07874 0.0
C291 C 0.12786 0.15606 0.93982 0.0
N292 N 0.04232 0.09428 0.20864 0.0
N293 N 0.20764 0.13449 0.88018 0.0
H294 H 0.10733 0.22404 0.86232 0.0
H295 H 0.15841 0.20414 0.76883 0.0
H296 H 0.23572 0.11144 0.87985 0.0
H297 H 0.21723 0.16853 0.85066 0.0
H298 H 0.03843 0.0648 0.28385 0.0
H299 H 0.0157 0.11867 0.22465 0.0
H300 H 0.07092 0.00948 0.16151 0.0
H301 H 0.12624 0.99288 0.09683 0.0
C302 C 0.93152 0.60947 0.29542 0.0
C303 C 0.91613 0.65301 0.23151 0.0
C304 C 0.8377 0.62081 0.19036 0.0
C305 C 0.85208 0.57897 0.27082 0.0
N306 N 0.91041 0.53681 0.42932 0.0
N307 N 0.85285 0.70318 0.14715 0.0
C308 C 0.89828 0.57437 0.33287 0.0
C309 C 0.86875 0.65949 0.18583 0.0
N310 N 0.97807 0.60064 0.31173 0.0
N311 N 0.79427 0.62384 0.11988 0.0
H312 H 0.87415 0.73263 0.15034 0.0
H313 H 0.81783 0.71111 0.12862 0.0
H314 H 0.76948 0.5974 0.12895 0.0
H315 H 0.78386 0.65129 0.04251 0.0
H316 H 0.9914 0.56775 0.34013 0.0
H317 H 0.00359 0.62486 0.27941 0.0
H318 H 0.94224 0.53413 0.49213 0.0
H319 H 0.88716 0.51027 0.4591 0.0
C320 C 0.39346 0.06707 0.63484 0.0
C321 C 0.37 0.06526 0.79353 0.0
C322 C 0.41057 0.13652 0.88531 0.0
C323 C 0.43466 0.13772 0.7296 0.0
N324 N 0.46076 0.09604 0.48187 0.0
N325 N 0.37347 0.08709 0.08992 0.0
C326 C 0.42997 0.10019 0.61268 0.0
C327 C 0.38386 0.09655 0.92514 0.0
N328 N 0.37993 0.03928 0.50247 0.0
N329 N 0.41128 0.17406 0.99287 0.0
H330 H 0.35821 0.0558 0.12712 0.0
H331 H 0.38584 0.10722 0.19076 0.0
H332 H 0.42958 0.20467 0.96828 0.0
H333 H 0.39012 0.17634 0.09956 0.0
H334 H 0.39547 0.0402 0.38407 0.0
H335 H 0.35078 0.01787 0.50343 0.0
H336 H 0.46216 0.06715 0.40147 0.0
H337 H 0.4885 0.11907 0.46562 0.0
C338 C 0.8465 0.88789 0.8915 0.0
C339 C 0.84889 0.93279 0.97018 0.0
C340 C 0.92399 0.91172 0.09795 0.0
C341 C 0.91876 0.86555 0.03495 0.0
N342 N 0.8725 0.80746 0.89011 0.0
N343 N 0.88852 0.98691 0.15697 0.0
C344 C 0.87949 0.85309 0.93589 0.0
C345 C 0.88703 0.9444 0.07743 0.0
N346 N 0.81308 0.87826 0.77255 0.0
N347 N 0.96552 0.92503 0.16797 0.0
H348 H 0.86444 0.01342 0.13465 0.0
H349 H 0.91229 0.99512 0.25232 0.0
H350 H 0.99402 0.90256 0.17512 0.0
H351 H 0.97349 0.95924 0.20243 0.0
H352 H 0.81394 0.84884 0.69459 0.0
H353 H 0.78589 0.90071 0.74216 0.0
H354 H 0.84141 0.79506 0.83882 0.0
H355 H 0.89634 0.78093 0.91514 0.0
C356 C 0.06204 0.40225 0.26144 0.0
C357 C 0.079 0.35906 0.19902 0.0
C358 C 0.15763 0.39191 0.18275 0.0
C359 C 0.1416 0.43271 0.26732 0.0
N360 N 0.07973 0.47396 0.4106 0.0
N361 N 0.144 0.31 0.12188 0.0
C362 C 0.09415 0.43706 0.31387 0.0
C363 C 0.12708 0.35316 0.16405 0.0
N364 N 0.01529 0.411 0.26261 0.0
N365 N 0.20206 0.38992 0.12152 0.0
H366 H 0.12296 0.28046 0.11132 0.0
H367 H 0.17936 0.30244 0.11265 0.0
H368 H 0.2262 0.41671 0.13835 0.0
H369 H 0.21396 0.3632 0.04286 0.0
H370 H 0.0014 0.4439 0.28829 0.0
H371 H 0.99067 0.38677 0.22052 0.0
H372 H 0.04654 0.47621 0.4629 0.0
H373 H 0.10213 0.5004 0.45024 0.0
C374 C 0.62664 0.64247 0.59966 0.0
C375 C 0.57925 0.63443 0.55636 0.0
C376 C 0.59948 0.55684 0.44555 0.0
C377 C 0.64616 0.56398 0.49859 0.0
N378 N 0.70278 0.60912 0.65448 0.0
N379 N 0.51875 0.58084 0.46982 0.0
C380 C 0.6592 0.60532 0.58564 0.0
C381 C 0.56508 0.59073 0.48775 0.0
N382 N 0.64116 0.68636 0.64423 0.0
N383 N 0.5882 0.518 0.3528 0.0
H384 H 0.49251 0.60442 0.50217 0.0
H385 H 0.50611 0.54792 0.43718 0.0
H386 H 0.61199 0.49134 0.32705 0.0
H387 H 0.55614 0.51345 0.29308 0.0
H388 H 0.67601 0.69539 0.66014 0.0
H389 H 0.61895 0.71514 0.64895 0.0
H390 H 0.71265 0.63625 0.73525 0.0
H391 H 0.72796 0.58303 0.64307 0.0
loop_
_geom_bond_atom_site_label_1
_geom_bond_atom_site_label_2
_geom_bond_distance
_geom_bond_site_symmetry_2
_ccdc_geom_bond_type
In0 O1 2.294 . S
In0 O2 2.326 . S
In0 O6 2.266 . S
In0 O7 2.326 . S
In0 O8 2.266 . S
In0 O9 2.326 . S
In0 O11 2.294 . S
In0 O12 2.326 . S
O1 In0 2.294 . S
O1 C10 1.240 . S
O2 In0 2.326 . S
O2 C10 1.252 . S
C3 O6 1.252 . S
C3 O7 1.260 . S
C4 O11 1.240 . S
C4 O12 1.252 . S
C5 O8 1.252 . S
C5 O9 1.260 . S
O6 In0 2.266 . S
O6 C3 1.252 . S
O7 In0 2.326 . S
O7 C3 1.260 . S
O8 In0 2.266 . S
O8 C5 1.252 . S
O9 In0 2.326 . S
O9 C5 1.260 . S
C10 O1 1.240 . S
C10 O2 1.252 . S
O11 In0 2.294 . S
O11 C4 1.240 . S
O12 In0 2.326 . S
O12 C4 1.252 . S
In13 O14 2.294 . S
In13 O15 2.326 . S
In13 O19 2.266 . S
In13 O20 2.326 . S
In13 O21 2.266 . S
In13 O22 2.326 . S
In13 O24 2.294 . S
In13 O25 2.326 . S
O14 In13 2.294 . S
O14 C23 1.240 . S
O15 In13 2.326 . S
O15 C23 1.252 . S
C16 O19 1.252 . S
C16 O20 1.260 . S
C17 O24 1.240 . S
C17 O25 1.252 . S
C18 O21 1.252 . S
C18 O22 1.260 . S
O19 In13 2.266 . S
O19 C16 1.252 . S
O20 In13 2.326 . S
O20 C16 1.260 . S
O21 In13 2.266 . S
O21 C18 1.252 . S
O22 In13 2.326 . S
O22 C18 1.260 . S
C23 O14 1.240 . S
C23 O15 1.252 . S
O24 In13 2.294 . S
O24 C17 1.240 . S
O25 In13 2.326 . S
O25 C17 1.252 . S
In26 O27 2.294 1_556 S
In26 O28 2.326 . S
In26 O32 2.266 1_566 S
In26 O33 2.326 1_565 S
In26 O34 2.266 . S
In26 O35 2.326 . S
In26 O37 2.294 1_565 S
In26 O38 2.326 1_565 S
O27 In26 2.294 1_554 S
O27 C36 1.240 . S
O28 In26 2.326 . S
O28 C36 1.252 1_556 S
C29 O32 1.252 1_556 S
C29 O33 1.260 . S
C30 O37 1.240 . S
C30 O38 1.252 . S
C31 O34 1.252 . S
C31 O35 1.260 . S
O32 In26 2.266 1_544 S
O32 C29 1.252 1_554 S
O33 In26 2.326 1_545 S
O33 C29 1.260 . S
O34 In26 2.266 . S
O34 C31 1.252 . S
O35 In26 2.326 . S
O35 C31 1.260 . S
C36 O27 1.240 . S
C36 O28 1.252 1_554 S
O37 In26 2.294 1_545 S
O37 C30 1.240 . S
O38 In26 2.326 1_545 S
O38 C30 1.252 . S
In39 O40 2.294 1_455 S
In39 O41 2.326 1_455 S
In39 O45 2.266 . S
In39 O46 2.326 . S
In39 O47 2.266 1_454 S
In39 O48 2.326 1_455 S
In39 O50 2.294 1_554 S
In39 O51 2.326 . S
O40 In39 2.294 1_655 S
O40 C49 1.240 . S
O41 In39 2.326 1_655 S
O41 C49 1.252 . S
C42 O45 1.252 . S
C42 O46 1.260 . S
C43 O50 1.240 . S
C43 O51 1.252 1_556 S
C44 O47 1.252 1_554 S
C44 O48 1.260 . S
O45 In39 2.266 . S
O45 C42 1.252 . S
O46 In39 2.326 . S
O46 C42 1.260 . S
O47 In39 2.266 1_656 S
O47 C44 1.252 1_556 S
O48 In39 2.326 1_655 S
O48 C44 1.260 . S
C49 O40 1.240 . S
C49 O41 1.252 . S
O50 In39 2.294 1_556 S
O50 C43 1.240 . S
O51 In39 2.326 . S
O51 C43 1.252 1_554 S
In52 O53 2.294 . S
In52 O54 2.326 . S
In52 O58 2.266 1_545 S
In52 O59 2.326 1_545 S
In52 O60 2.266 1_556 S
In52 O61 2.326 . S
In52 O63 2.294 1_546 S
In52 O64 2.326 1_545 S
O53 In52 2.294 . S
O53 C62 1.240 . S
O54 In52 2.326 . S
O54 C62 1.252 . S
C55 O58 1.252 . S
C55 O59 1.260 . S
C56 O63 1.240 1_556 S
C56 O64 1.252 . S
C57 O60 1.252 . S
C57 O61 1.260 1_554 S
O58 In52 2.266 1_565 S
O58 C55 1.252 . S
O59 In52 2.326 1_565 S
O59 C55 1.260 . S
O60 In52 2.266 1_554 S
O60 C57 1.252 . S
O61 In52 2.326 . S
O61 C57 1.260 1_556 S
C62 O53 1.240 . S
C62 O54 1.252 . S
O63 In52 2.294 1_564 S
O63 C56 1.240 1_554 S
O64 In52 2.326 1_565 S
O64 C56 1.252 . S
In65 O66 2.294 . S
In65 O67 2.326 . S
In65 O71 2.266 1_655 S
In65 O72 2.326 1_655 S
In65 O73 2.266 1_554 S
In65 O74 2.326 . S
In65 O76 2.294 1_654 S
In65 O77 2.326 1_655 S
O66 In65 2.294 . S
O66 C75 1.240 . S
O67 In65 2.326 . S
O67 C75 1.252 . S
C68 O71 1.252 . S
C68 O72 1.260 . S
C69 O76 1.240 1_554 S
C69 O77 1.252 . S
C70 O73 1.252 . S
C70 O74 1.260 1_556 S
O71 In65 2.266 1_455 S
O71 C68 1.252 . S
O72 In65 2.326 1_455 S
O72 C68 1.260 . S
O73 In65 2.266 1_556 S
O73 C70 1.252 . S
O74 In65 2.326 . S
O74 C70 1.260 1_554 S
C75 O66 1.240 . S
C75 O67 1.252 . S
O76 In65 2.294 1_456 S
O76 C69 1.240 1_556 S
O77 In65 2.326 1_455 S
O77 C69 1.252 . S
In78 O79 2.294 . S
In78 O80 2.326 . S
In78 O84 2.266 . S
In78 O85 2.326 . S
In78 O86 2.266 . S
In78 O87 2.326 . S
In78 O89 2.294 . S
In78 O90 2.326 . S
O79 In78 2.294 . S
O79 C88 1.240 . S
O80 In78 2.326 . S
O80 C88 1.252 . S
C81 O84 1.252 . S
C81 O85 1.260 . S
C82 O89 1.240 . S
C82 O90 1.252 . S
C83 O86 1.252 . S
C83 O87 1.260 . S
O84 In78 2.266 . S
O84 C81 1.252 . S
O85 In78 2.326 . S
O85 C81 1.260 . S
O86 In78 2.266 . S
O86 C83 1.252 . S
O87 In78 2.326 . S
O87 C83 1.260 . S
C88 O79 1.240 . S
C88 O80 1.252 . S
O89 In78 2.294 . S
O89 C82 1.240 . S
O90 In78 2.326 . S
O90 C82 1.252 . S
In91 O92 2.294 . S
In91 O93 2.326 . S
In91 O97 2.266 . S
In91 O98 2.326 . S
In91 O99 2.266 . S
In91 O100 2.326 . S
In91 O102 2.294 . S
In91 O103 2.326 . S
O92 In91 2.294 . S
O92 C101 1.240 . S
O93 In91 2.326 . S
O93 C101 1.252 . S
C94 O97 1.252 . S
C94 O98 1.260 . S
C95 O102 1.240 . S
C95 O103 1.252 . S
C96 O99 1.252 . S
C96 O100 1.260 . S
O97 In91 2.266 . S
O97 C94 1.252 . S
O98 In91 2.326 . S
O98 C94 1.260 . S
O99 In91 2.266 . S
O99 C96 1.252 . S
O100 In91 2.326 . S
O100 C96 1.260 . S
C101 O92 1.240 . S
C101 O93 1.252 . S
O102 In91 2.294 . S
O102 C95 1.240 . S
O103 In91 2.326 . S
O103 C95 1.252 . S
C104 C105 1.363 . S
C104 C110 1.379 1_556 S
C104 N112 1.356 . S
C105 C104 1.363 . S
C105 C111 1.363 . S
C106 C107 1.363 . S
C106 C111 1.379 1_554 S
C106 N113 1.356 . S
C107 C106 1.363 . S
C107 C110 1.363 . S
N108 C110 1.356 . S
N108 H120 0.984 . S
N108 H121 0.985 . S
N109 C111 1.356 . S
N109 H114 0.984 . S
N109 H115 0.985 . S
C110 C104 1.379 1_554 S
C110 C107 1.363 . S
C110 N108 1.356 . S
C111 C105 1.363 . S
C111 C106 1.379 1_556 S
C111 N109 1.356 . S
N112 C104 1.356 . S
N112 H118 0.984 . S
N112 H119 0.984 . S
N113 C106 1.356 . S
N113 H116 0.984 . S
N113 H117 0.985 . S
H114 N109 0.984 . S
H115 N109 0.985 . S
H116 N113 0.984 . S
H117 N113 0.985 . S
H118 N112 0.984 . S
H119 N112 0.984 . S
H120 N108 0.984 . S
H121 N108 0.985 . S
C122 C123 1.363 . S
C122 C128 1.379 . S
C122 N130 1.356 . S
C123 C122 1.363 . S
C123 C129 1.363 . S
C124 C125 1.363 . S
C124 C129 1.379 . S
C124 N131 1.356 1_554 S
C125 C124 1.363 . S
C125 C128 1.363 . S
N126 C128 1.356 . S
N126 H138 0.984 . S
N126 H139 0.985 . S
N127 C129 1.356 . S
N127 H132 0.984 . S
N127 H133 0.985 . S
C128 C122 1.379 . S
C128 C125 1.363 . S
C128 N126 1.356 . S
C129 C123 1.363 . S
C129 C124 1.379 . S
C129 N127 1.356 . S
N130 C122 1.356 . S
N130 H136 0.984 . S
N130 H137 0.984 . S
N131 C124 1.356 1_556 S
N131 H134 0.984 . S
N131 H135 0.985 . S
H132 N127 0.984 . S
H133 N127 0.985 . S
H134 N131 0.984 . S
H135 N131 0.985 . S
H136 N130 0.984 . S
H137 N130 0.984 . S
H138 N126 0.984 . S
H139 N126 0.985 . S
C140 C141 1.363 . S
C140 C146 1.379 . S
C140 N148 1.356 . S
C141 C140 1.363 . S
C141 C147 1.363 . S
C142 C143 1.363 . S
C142 C147 1.379 . S
C142 N149 1.356 . S
C143 C142 1.363 . S
C143 C146 1.363 . S
N144 C146 1.356 . S
N144 H156 0.984 . S
N144 H157 0.985 . S
N145 C147 1.356 . S
N145 H150 0.984 . S
N145 H151 0.985 . S
C146 C140 1.379 . S
C146 C143 1.363 . S
C146 N144 1.356 . S
C147 C141 1.363 . S
C147 C142 1.379 . S
C147 N145 1.356 . S
N148 C140 1.356 . S
N148 H154 0.984 . S
N148 H155 0.984 . S
N149 C142 1.356 . S
N149 H152 0.984 . S
N149 H153 0.985 . S
H150 N145 0.984 . S
H151 N145 0.985 . S
H152 N149 0.984 . S
H153 N149 0.985 . S
H154 N148 0.984 . S
H155 N148 0.984 . S
H156 N144 0.984 . S
H157 N144 0.985 . S
C158 C159 1.363 . S
C158 C164 1.379 . S
C158 N166 1.356 1_556 S
C159 C158 1.363 . S
C159 C165 1.363 . S
C160 C161 1.363 . S
C160 C165 1.379 . S
C160 N167 1.356 . S
C161 C160 1.363 . S
C161 C164 1.363 . S
N162 C164 1.356 . S
N162 H174 0.984 . S
N162 H175 0.985 . S
N163 C165 1.356 . S
N163 H168 0.984 . S
N163 H169 0.985 . S
C164 C158 1.379 . S
C164 C161 1.363 . S
C164 N162 1.356 . S
C165 C159 1.363 . S
C165 C160 1.379 . S
C165 N163 1.356 . S
N166 C158 1.356 1_554 S
N166 H172 0.984 . S
N166 H173 0.984 . S
N167 C160 1.356 . S
N167 H170 0.984 . S
N167 H171 0.985 . S
H168 N163 0.984 . S
H169 N163 0.985 . S
H170 N167 0.984 . S
H171 N167 0.985 . S
H172 N166 0.984 . S
H173 N166 0.984 . S
H174 N162 0.984 . S
H175 N162 0.985 . S
C176 C177 1.363 . S
C176 C182 1.379 . S
C176 N184 1.356 . S
C177 C176 1.363 . S
C177 C183 1.363 . S
C178 C179 1.363 . S
C178 C183 1.379 . S
C178 N185 1.356 . S
C179 C178 1.363 . S
C179 C182 1.363 . S
N180 C182 1.356 . S
N180 H192 0.984 . S
N180 H193 0.985 . S
N181 C183 1.356 . S
N181 H186 0.984 . S
N181 H187 0.985 . S
C182 C176 1.379 . S
C182 C179 1.363 . S
C182 N180 1.356 . S
C183 C177 1.363 . S
C183 C178 1.379 . S
C183 N181 1.356 . S
N184 C176 1.356 . S
N184 H190 0.984 . S
N184 H191 0.984 . S
N185 C178 1.356 . S
N185 H188 0.984 . S
N185 H189 0.985 . S
H186 N181 0.984 . S
H187 N181 0.985 . S
H188 N185 0.984 . S
H189 N185 0.985 . S
H190 N184 0.984 . S
H191 N184 0.984 . S
H192 N180 0.984 . S
H193 N180 0.985 . S
C194 C195 1.363 . S
C194 C200 1.379 . S
C194 N202 1.356 1_556 S
C195 C194 1.363 . S
C195 C201 1.363 . S
C196 C197 1.363 . S
C196 C201 1.379 . S
C196 N203 1.356 . S
C197 C196 1.363 . S
C197 C200 1.363 . S
N198 C200 1.356 . S
N198 H210 0.984 . S
N198 H211 0.985 . S
N199 C201 1.356 . S
N199 H204 0.984 . S
N199 H205 0.985 . S
C200 C194 1.379 . S
C200 C197 1.363 . S
C200 N198 1.356 . S
C201 C195 1.363 . S
C201 C196 1.379 . S
C201 N199 1.356 . S
N202 C194 1.356 1_554 S
N202 H208 0.984 . S
N202 H209 0.984 . S
N203 C196 1.356 . S
N203 H206 0.984 . S
N203 H207 0.985 . S
H204 N199 0.984 . S
H205 N199 0.985 . S
H206 N203 0.984 . S
H207 N203 0.985 . S
H208 N202 0.984 . S
H209 N202 0.984 . S
H210 N198 0.984 . S
H211 N198 0.985 . S
C212 C213 1.363 . S
C212 C218 1.379 . S
C212 N220 1.356 . S
C213 C212 1.363 . S
C213 C219 1.363 1_554 S
C214 C215 1.363 . S
C214 C219 1.379 . S
C214 N221 1.356 . S
C215 C214 1.363 . S
C215 C218 1.363 1_556 S
N216 C218 1.356 . S
N216 H228 0.984 . S
N216 H229 0.985 1_554 S
N217 C219 1.356 . S
N217 H222 0.984 1_556 S
N217 H223 0.985 . S
C218 C212 1.379 . S
C218 C215 1.363 1_554 S
C218 N216 1.356 . S
C219 C213 1.363 1_556 S
C219 C214 1.379 . S
C219 N217 1.356 . S
N220 C212 1.356 . S
N220 H226 0.984 . S
N220 H227 0.984 . S
N221 C214 1.356 . S
N221 H224 0.984 . S
N221 H225 0.985 . S
H222 N217 0.984 1_554 S
H223 N217 0.985 . S
H224 N221 0.984 . S
H225 N221 0.985 . S
H226 N220 0.984 . S
H227 N220 0.984 . S
H228 N216 0.984 . S
H229 N216 0.985 1_556 S
C230 C231 1.363 . S
C230 C236 1.379 . S
C230 N238 1.356 . S
C231 C230 1.363 . S
C231 C237 1.363 . S
C232 C233 1.363 . S
C232 C237 1.379 . S
C232 N239 1.356 . S
C233 C232 1.363 . S
C233 C236 1.363 . S
N234 C236 1.356 . S
N234 H246 0.984 . S
N234 H247 0.985 . S
N235 C237 1.356 . S
N235 H240 0.984 . S
N235 H241 0.985 . S
C236 C230 1.379 . S
C236 C233 1.363 . S
C236 N234 1.356 . S
C237 C231 1.363 . S
C237 C232 1.379 . S
C237 N235 1.356 . S
N238 C230 1.356 . S
N238 H244 0.984 . S
N238 H245 0.984 . S
N239 C232 1.356 . S
N239 H242 0.984 . S
N239 H243 0.985 . S
H240 N235 0.984 . S
H241 N235 0.985 . S
H242 N239 0.984 . S
H243 N239 0.985 . S
H244 N238 0.984 . S
H245 N238 0.984 . S
H246 N234 0.984 . S
H247 N234 0.985 . S
C248 C249 1.363 . S
C248 C254 1.379 . S
C248 N256 1.356 . S
C249 C248 1.363 . S
C249 C255 1.363 . S
C250 C251 1.363 . S
C250 C255 1.379 . S
C250 N257 1.356 . S
C251 C250 1.363 . S
C251 C254 1.363 . S
N252 C254 1.356 . S
N252 H264 0.984 . S
N252 H265 0.985 . S
N253 C255 1.356 . S
N253 H258 0.984 . S
N253 H259 0.985 . S
C254 C248 1.379 . S
C254 C251 1.363 . S
C254 N252 1.356 . S
C255 C249 1.363 . S
C255 C250 1.379 . S
C255 N253 1.356 . S
N256 C248 1.356 . S
N256 H262 0.984 . S
N256 H263 0.984 . S
N257 C250 1.356 . S
N257 H260 0.984 . S
N257 H261 0.985 . S
H258 N253 0.984 . S
H259 N253 0.985 . S
H260 N257 0.984 . S
H261 N257 0.985 . S
H262 N256 0.984 . S
H263 N256 0.984 . S
H264 N252 0.984 . S
H265 N252 0.985 . S
C266 C267 1.363 . S
C266 C272 1.379 . S
C266 N274 1.356 . S
C267 C266 1.363 . S
C267 C273 1.363 . S
C268 C269 1.363 . S
C268 C273 1.379 . S
C268 N275 1.356 . S
C269 C268 1.363 . S
C269 C272 1.363 . S
N270 C272 1.356 . S
N270 H282 0.984 . S
N270 H283 0.985 . S
N271 C273 1.356 . S
N271 H276 0.985 1_565 S
N271 H277 0.986 . S
C272 C266 1.379 . S
C272 C269 1.363 . S
C272 N270 1.356 . S
C273 C267 1.363 . S
C273 C268 1.379 . S
C273 N271 1.356 . S
N274 C266 1.356 . S
N274 H280 0.985 . S
N274 H281 0.984 . S
N275 C268 1.356 . S
N275 H278 0.984 . S
N275 H279 0.985 . S
H276 N271 0.985 1_545 S
H277 N271 0.986 . S
H278 N275 0.984 . S
H279 N275 0.985 . S
H280 N274 0.985 . S
H281 N274 0.984 . S
H282 N270 0.984 . S
H283 N270 0.985 . S
C284 C285 1.363 . S
C284 C290 1.379 . S
C284 N292 1.356 . S
C285 C284 1.363 . S
C285 C291 1.363 1_554 S
C286 C287 1.363 . S
C286 C291 1.379 . S
C286 N293 1.356 . S
C287 C286 1.363 . S
C287 C290 1.363 1_556 S
N288 C290 1.356 . S
N288 H300 0.984 . S
N288 H301 0.985 . S
N289 C291 1.356 . S
N289 H294 0.984 . S
N289 H295 0.985 . S
C290 C284 1.379 . S
C290 C287 1.363 1_554 S
C290 N288 1.356 . S
C291 C285 1.363 1_556 S
C291 C286 1.379 . S
C291 N289 1.356 . S
N292 C284 1.356 . S
N292 H298 0.984 . S
N292 H299 0.984 . S
N293 C286 1.356 . S
N293 H296 0.984 . S
N293 H297 0.985 . S
H294 N289 0.984 . S
H295 N289 0.985 . S
H296 N293 0.984 . S
H297 N293 0.985 . S
H298 N292 0.984 . S
H299 N292 0.984 . S
H300 N288 0.984 . S
H301 N288 0.985 . S
C302 C303 1.363 . S
C302 C308 1.379 . S
C302 N310 1.356 . S
C303 C302 1.363 . S
C303 C309 1.363 . S
C304 C305 1.363 . S
C304 C309 1.379 . S
C304 N311 1.356 . S
C305 C304 1.363 . S
C305 C308 1.363 . S
N306 C308 1.356 . S
N306 H318 0.984 . S
N306 H319 0.985 . S
N307 C309 1.356 1_556 S
N307 H312 0.984 1_556 S
N307 H313 0.985 . S
C308 C302 1.379 . S
C308 C305 1.363 . S
C308 N306 1.356 . S
C309 C303 1.363 . S
C309 C304 1.379 . S
C309 N307 1.356 1_554 S
N310 C302 1.356 . S
N310 H316 0.984 . S
N310 H317 0.984 . S
N311 C304 1.356 . S
N311 H314 0.984 . S
N311 H315 0.985 1_554 S
H312 N307 0.984 1_554 S
H313 N307 0.985 . S
H314 N311 0.984 . S
H315 N311 0.985 1_556 S
H316 N310 0.984 . S
H317 N310 0.984 . S
H318 N306 0.984 . S
H319 N306 0.985 . S
C320 C321 1.363 . S
C320 C326 1.379 . S
C320 N328 1.356 . S
C321 C320 1.363 . S
C321 C327 1.363 . S
C322 C323 1.363 . S
C322 C327 1.379 . S
C322 N329 1.356 . S
C323 C322 1.363 . S
C323 C326 1.363 . S
N324 C326 1.356 . S
N324 H336 0.984 . S
N324 H337 0.985 . S
N325 C327 1.356 1_554 S
N325 H330 0.984 . S
N325 H331 0.985 . S
C326 C320 1.379 . S
C326 C323 1.363 . S
C326 N324 1.356 . S
C327 C321 1.363 . S
C327 C322 1.379 . S
C327 N325 1.356 1_556 S
N328 C320 1.356 . S
N328 H334 0.984 . S
N328 H335 0.984 . S
N329 C322 1.356 . S
N329 H332 0.984 . S
N329 H333 0.985 1_556 S
H330 N325 0.984 . S
H331 N325 0.985 . S
H332 N329 0.984 . S
H333 N329 0.985 1_554 S
H334 N328 0.984 . S
H335 N328 0.984 . S
H336 N324 0.984 . S
H337 N324 0.985 . S
C338 C339 1.363 . S
C338 C344 1.379 . S
C338 N346 1.356 . S
C339 C338 1.363 . S
C339 C345 1.363 1_556 S
C340 C341 1.363 . S
C340 C345 1.379 . S
C340 N347 1.356 . S
C341 C340 1.363 . S
C341 C344 1.363 1_554 S
N342 C344 1.356 . S
N342 H354 0.984 . S
N342 H355 0.985 . S
N343 C345 1.356 . S
N343 H348 0.984 . S
N343 H349 0.985 . S
C344 C338 1.379 . S
C344 C341 1.363 1_556 S
C344 N342 1.356 . S
C345 C339 1.363 1_554 S
C345 C340 1.379 . S
C345 N343 1.356 . S
N346 C338 1.356 . S
N346 H352 0.984 . S
N346 H353 0.984 . S
N347 C340 1.356 . S
N347 H350 0.984 . S
N347 H351 0.985 . S
H348 N343 0.984 . S
H349 N343 0.985 . S
H350 N347 0.984 . S
H351 N347 0.985 . S
H352 N346 0.984 . S
H353 N346 0.984 . S
H354 N342 0.984 . S
H355 N342 0.985 . S
C356 C357 1.363 . S
C356 C362 1.379 . S
C356 N364 1.356 . S
C357 C356 1.363 . S
C357 C363 1.363 . S
C358 C359 1.363 . S
C358 C363 1.379 . S
C358 N365 1.356 . S
C359 C358 1.363 . S
C359 C362 1.363 . S
N360 C362 1.356 . S
N360 H372 0.984 . S
N360 H373 0.985 . S
N361 C363 1.356 1_556 S
N361 H366 0.984 . S
N361 H367 0.985 . S
C362 C356 1.379 . S
C362 C359 1.363 . S
C362 N360 1.356 . S
C363 C357 1.363 . S
C363 C358 1.379 . S
C363 N361 1.356 1_554 S
N364 C356 1.356 . S
N364 H370 0.984 . S
N364 H371 0.984 . S
N365 C358 1.356 . S
N365 H368 0.984 . S
N365 H369 0.985 1_554 S
H366 N361 0.984 . S
H367 N361 0.985 . S
H368 N365 0.984 . S
H369 N365 0.985 1_556 S
H370 N364 0.984 . S
H371 N364 0.984 . S
H372 N360 0.984 . S
H373 N360 0.985 . S
C374 C375 1.363 . S
C374 C380 1.379 . S
C374 N382 1.356 . S
C375 C374 1.363 . S
C375 C381 1.363 . S
C376 C377 1.363 . S
C376 C381 1.379 . S
C376 N383 1.356 . S
C377 C376 1.363 . S
C377 C380 1.363 . S
N378 C380 1.356 . S
N378 H390 0.984 . S
N378 H391 0.985 . S
N379 C381 1.356 . S
N379 H384 0.984 . S
N379 H385 0.985 . S
C380 C374 1.379 . S
C380 C377 1.363 . S
C380 N378 1.356 . S
C381 C375 1.363 . S
C381 C376 1.379 . S
C381 N379 1.356 . S
N382 C374 1.356 . S
N382 H388 0.984 . S
N382 H389 0.984 . S
N383 C376 1.356 . S
N383 H386 0.984 . S
N383 H387 0.985 . S
H384 N379 0.984 . S
H385 N379 0.985 . S
H386 N383 0.984 . S
H387 N383 0.985 . S
H388 N382 0.984 . S
H389 N382 0.984 . S
H390 N378 0.984 . S
H391 N378 0.985 . S
C105 C23 1.481 . S
C107 C10 1.481 . S
C123 C18 1.481 . S
C125 C36 1.481 . S
C141 C42 1.481 . S
C143 C31 1.481 . S
C159 C43 1.481 . S
C161 C5 1.481 . S
C177 C62 1.481 . S
C179 C75 1.481 . S
C195 C70 1.481 . S
C197 C88 1.481 . S
C213 C83 1.481 . S
C215 C94 1.481 . S
C231 C57 1.481 . S
C233 C95 1.481 . S
C249 C4 1.520 . S
C251 C96 1.517 . S
C267 C55 1.524 . S
C269 C16 1.524 . S
C285 C69 1.520 . S
C287 C29 1.517 . S
C303 C49 1.513 . S
C305 C82 1.513 . S
C321 C30 1.513 . S
C323 C101 1.513 . S
C339 C56 1.520 . S
C341 C44 1.517 . S
C357 C68 1.524 . S
C359 C3 1.524 . S
C375 C17 1.520 . S
C377 C81 1.517 . S
