# Generated by pormake.
# Topology unu, (4)-cn, num edge types: 1
# Building blocks:
#     Node 0, Type 0, BuildingBlock: QUQFOY_clean_sbu_1, # of connection points: 4
#     Node 1, Type 0, BuildingBlock: QUQFOY_clean_sbu_1, # of connection points: 4
#     Node 2, Type 0, BuildingBlock: QUQFOY_clean_sbu_1, # of connection points: 4
#     Node 3, Type 0, BuildingBlock: QUQFOY_clean_sbu_1, # of connection points: 4
#     Node 4, Type 0, BuildingBlock: QUQFOY_clean_sbu_1, # of connection points: 4
#     Node 5, Type 0, BuildingBlock: QUQFOY_clean_sbu_1, # of connection points: 4
#     Node 6, Type 0, BuildingBlock: QUQFOY_clean_sbu_1, # of connection points: 4
#     Node 7, Type 0, BuildingBlock: QUQFOY_clean_sbu_1, # of connection points: 4
#     Node 8, Type 0, BuildingBlock: QUQFOY_clean_sbu_1, # of connection points: 4
#     Node 9, Type 0, BuildingBlock: QUQFOY_clean_sbu_1, # of connection points: 4
#     Node 10, Type 0, BuildingBlock: QUQFOY_clean_sbu_1, # of connection points: 4
#     Node 11, Type 0, BuildingBlock: QUQFOY_clean_sbu_1, # of connection points: 4
#     Node 12, Type 0, BuildingBlock: QUQFOY_clean_sbu_1, # of connection points: 4
#     Node 13, Type 0, BuildingBlock: QUQFOY_clean_sbu_1, # of connection points: 4
#     Node 14, Type 0, BuildingBlock: QUQFOY_clean_sbu_1, # of connection points: 4
#     Node 15, Type 0, BuildingBlock: QUQFOY_clean_sbu_1, # of connection points: 4
#     Node 16, Type 0, BuildingBlock: QUQFOY_clean_sbu_1, # of connection points: 4
#     Node 17, Type 0, BuildingBlock: QUQFOY_clean_sbu_1, # of connection points: 4
#     Node 18, Type 0, BuildingBlock: QUQFOY_clean_sbu_1, # of connection points: 4
#     Node 19, Type 0, BuildingBlock: QUQFOY_clean_sbu_1, # of connection points: 4
#     Node 20, Type 0, BuildingBlock: QUQFOY_clean_sbu_1, # of connection points: 4
#     Node 21, Type 0, BuildingBlock: QUQFOY_clean_sbu_1, # of connection points: 4
#     Node 22, Type 0, BuildingBlock: QUQFOY_clean_sbu_1, # of connection points: 4
#     Node 23, Type 0, BuildingBlock: QUQFOY_clean_sbu_1, # of connection points: 4
#     Node 24, Type 0, BuildingBlock: QUQFOY_clean_sbu_1, # of connection points: 4
#     Node 25, Type 0, BuildingBlock: QUQFOY_clean_sbu_1, # of connection points: 4
#     Node 26, Type 0, BuildingBlock: QUQFOY_clean_sbu_1, # of connection points: 4
#     Node 27, Type 0, BuildingBlock: QUQFOY_clean_sbu_1, # of connection points: 4
#     Node 28, Type 0, BuildingBlock: QUQFOY_clean_sbu_1, # of connection points: 4
#     Node 29, Type 0, BuildingBlock: QUQFOY_clean_sbu_1, # of connection points: 4
#     Node 30, Type 0, BuildingBlock: QUQFOY_clean_sbu_1, # of connection points: 4
#     Node 31, Type 0, BuildingBlock: QUQFOY_clean_sbu_1, # of connection points: 4
#     Node 32, Type 0, BuildingBlock: QUQFOY_clean_sbu_1, # of connection points: 4
#     Node 33, Type 0, BuildingBlock: QUQFOY_clean_sbu_1, # of connection points: 4
#     Node 34, Type 0, BuildingBlock: QUQFOY_clean_sbu_1, # of connection points: 4
#     Node 35, Type 0, BuildingBlock: QUQFOY_clean_sbu_1, # of connection points: 4
#     Edge 36, Type (0, 0), BuildingBlock: EZIPEK_clean_linker_0, # of connection points: 2
#     Edge 37, Type (0, 0), BuildingBlock: EZIPEK_clean_linker_0, # of connection points: 2
#     Edge 38, Type (0, 0), BuildingBlock: EZIPEK_clean_linker_0, # of connection points: 2
#     Edge 39, Type (0, 0), BuildingBlock: EZIPEK_clean_linker_0, # of connection points: 2
#     Edge 40, Type (0, 0), BuildingBlock: EZIPEK_clean_linker_0, # of connection points: 2
#     Edge 41, Type (0, 0), BuildingBlock: EZIPEK_clean_linker_0, # of connection points: 2
#     Edge 42, Type (0, 0), BuildingBlock: EZIPEK_clean_linker_0, # of connection points: 2
#     Edge 43, Type (0, 0), BuildingBlock: EZIPEK_clean_linker_0, # of connection points: 2
#     Edge 44, Type (0, 0), BuildingBlock: EZIPEK_clean_linker_0, # of connection points: 2
#     Edge 45, Type (0, 0), BuildingBlock: EZIPEK_clean_linker_0, # of connection points: 2
#     Edge 46, Type (0, 0), BuildingBlock: EZIPEK_clean_linker_0, # of connection points: 2
#     Edge 47, Type (0, 0), BuildingBlock: EZIPEK_clean_linker_0, # of connection points: 2
#     Edge 48, Type (0, 0), BuildingBlock: EZIPEK_clean_linker_0, # of connection points: 2
#     Edge 49, Type (0, 0), BuildingBlock: EZIPEK_clean_linker_0, # of connection points: 2
#     Edge 50, Type (0, 0), BuildingBlock: EZIPEK_clean_linker_0, # of connection points: 2
#     Edge 51, Type (0, 0), BuildingBlock: EZIPEK_clean_linker_0, # of connection points: 2
#     Edge 52, Type (0, 0), BuildingBlock: EZIPEK_clean_linker_0, # of connection points: 2
#     Edge 53, Type (0, 0), BuildingBlock: EZIPEK_clean_linker_0, # of connection points: 2
#     Edge 54, Type (0, 0), BuildingBlock: EZIPEK_clean_linker_0, # of connection points: 2
#     Edge 55, Type (0, 0), BuildingBlock: EZIPEK_clean_linker_0, # of connection points: 2
#     Edge 56, Type (0, 0), BuildingBlock: EZIPEK_clean_linker_0, # of connection points: 2
#     Edge 57, Type (0, 0), BuildingBlock: EZIPEK_clean_linker_0, # of connection points: 2
#     Edge 58, Type (0, 0), BuildingBlock: EZIPEK_clean_linker_0, # of connection points: 2
#     Edge 59, Type (0, 0), BuildingBlock: EZIPEK_clean_linker_0, # of connection points: 2
#     Edge 60, Type (0, 0), BuildingBlock: EZIPEK_clean_linker_0, # of connection points: 2
#     Edge 61, Type (0, 0), BuildingBlock: EZIPEK_clean_linker_0, # of connection points: 2
#     Edge 62, Type (0, 0), BuildingBlock: EZIPEK_clean_linker_0, # of connection points: 2
#     Edge 63, Type (0, 0), BuildingBlock: EZIPEK_clean_linker_0, # of connection points: 2
#     Edge 64, Type (0, 0), BuildingBlock: EZIPEK_clean_linker_0, # of connection points: 2
#     Edge 65, Type (0, 0), BuildingBlock: EZIPEK_clean_linker_0, # of connection points: 2
#     Edge 66, Type (0, 0), BuildingBlock: EZIPEK_clean_linker_0, # of connection points: 2
#     Edge 67, Type (0, 0), BuildingBlock: EZIPEK_clean_linker_0, # of connection points: 2
#     Edge 68, Type (0, 0), BuildingBlock: EZIPEK_clean_linker_0, # of connection points: 2
#     Edge 69, Type (0, 0), BuildingBlock: EZIPEK_clean_linker_0, # of connection points: 2
#     Edge 70, Type (0, 0), BuildingBlock: EZIPEK_clean_linker_0, # of connection points: 2
#     Edge 71, Type (0, 0), BuildingBlock: EZIPEK_clean_linker_0, # of connection points: 2
#     Edge 72, Type (0, 0), BuildingBlock: EZIPEK_clean_linker_0, # of connection points: 2
#     Edge 73, Type (0, 0), BuildingBlock: EZIPEK_clean_linker_0, # of connection points: 2
#     Edge 74, Type (0, 0), BuildingBlock: EZIPEK_clean_linker_0, # of connection points: 2
#     Edge 75, Type (0, 0), BuildingBlock: EZIPEK_clean_linker_0, # of connection points: 2
#     Edge 76, Type (0, 0), BuildingBlock: EZIPEK_clean_linker_0, # of connection points: 2
#     Edge 77, Type (0, 0), BuildingBlock: EZIPEK_clean_linker_0, # of connection points: 2
#     Edge 78, Type (0, 0), BuildingBlock: EZIPEK_clean_linker_0, # of connection points: 2
#     Edge 79, Type (0, 0), BuildingBlock: EZIPEK_clean_linker_0, # of connection points: 2
#     Edge 80, Type (0, 0), BuildingBlock: EZIPEK_clean_linker_0, # of connection points: 2
#     Edge 81, Type (0, 0), BuildingBlock: EZIPEK_clean_linker_0, # of connection points: 2
#     Edge 82, Type (0, 0), BuildingBlock: EZIPEK_clean_linker_0, # of connection points: 2
#     Edge 83, Type (0, 0), BuildingBlock: EZIPEK_clean_linker_0, # of connection points: 2
#     Edge 84, Type (0, 0), BuildingBlock: EZIPEK_clean_linker_0, # of connection points: 2
#     Edge 85, Type (0, 0), BuildingBlock: EZIPEK_clean_linker_0, # of connection points: 2
#     Edge 86, Type (0, 0), BuildingBlock: EZIPEK_clean_linker_0, # of connection points: 2
#     Edge 87, Type (0, 0), BuildingBlock: EZIPEK_clean_linker_0, # of connection points: 2
#     Edge 88, Type (0, 0), BuildingBlock: EZIPEK_clean_linker_0, # of connection points: 2
#     Edge 89, Type (0, 0), BuildingBlock: EZIPEK_clean_linker_0, # of connection points: 2
#     Edge 90, Type (0, 0), BuildingBlock: EZIPEK_clean_linker_0, # of connection points: 2
#     Edge 91, Type (0, 0), BuildingBlock: EZIPEK_clean_linker_0, # of connection points: 2
#     Edge 92, Type (0, 0), BuildingBlock: EZIPEK_clean_linker_0, # of connection points: 2
#     Edge 93, Type (0, 0), BuildingBlock: EZIPEK_clean_linker_0, # of connection points: 2
#     Edge 94, Type (0, 0), BuildingBlock: EZIPEK_clean_linker_0, # of connection points: 2
#     Edge 95, Type (0, 0), BuildingBlock: EZIPEK_clean_linker_0, # of connection points: 2
#     Edge 96, Type (0, 0), BuildingBlock: EZIPEK_clean_linker_0, # of connection points: 2
#     Edge 97, Type (0, 0), BuildingBlock: EZIPEK_clean_linker_0, # of connection points: 2
#     Edge 98, Type (0, 0), BuildingBlock: EZIPEK_clean_linker_0, # of connection points: 2
#     Edge 99, Type (0, 0), BuildingBlock: EZIPEK_clean_linker_0, # of connection points: 2
#     Edge 100, Type (0, 0), BuildingBlock: EZIPEK_clean_linker_0, # of connection points: 2
#     Edge 101, Type (0, 0), BuildingBlock: EZIPEK_clean_linker_0, # of connection points: 2
#     Edge 102, Type (0, 0), BuildingBlock: EZIPEK_clean_linker_0, # of connection points: 2
#     Edge 103, Type (0, 0), BuildingBlock: EZIPEK_clean_linker_0, # of connection points: 2
#     Edge 104, Type (0, 0), BuildingBlock: EZIPEK_clean_linker_0, # of connection points: 2
#     Edge 105, Type (0, 0), BuildingBlock: EZIPEK_clean_linker_0, # of connection points: 2
#     Edge 106, Type (0, 0), BuildingBlock: EZIPEK_clean_linker_0, # of connection points: 2
#     Edge 107, Type (0, 0), BuildingBlock: EZIPEK_clean_linker_0, # of connection points: 2
# Relax obj value: 0.078
# Max RMSD: 0.135
# Mean RMSD: 0.135
data_MOF--net-unu--node1-QUQFOY_clean_sbu_1--edge1-EZIPEK_clean_linker_0
_symmetry_space_group_name_H-M    P1
_symmetry_Int_Tables_number       1
_symmetry_cell_setting            triclinic
loop_
_symmetry_equiv_pos_as_xyz
'x, y, z'
_cell_length_a     31.723551
_cell_length_b     31.780932
_cell_length_c     94.878178
_cell_angle_alpha  90.255882
_cell_angle_beta   89.777171
_cell_angle_gamma 120.07731
loop_
_atom_site_label
_atom_site_type_symbol
_atom_site_fract_x
_atom_site_fract_y
_atom_site_fract_z
_atom_type_partial_charge
O0 O 0.19112 1.00766 0.13328 0.0
Cd1 Cd 0.25595 0.07252 0.13201 0.0
Cd2 Cd 0.23035 0.07496 0.15864 0.0
O3 O 0.17791 1.00182 0.15623 0.0
O4 O 0.28666 0.05928 0.11533 0.0
O5 O 0.31998 0.0755 0.13638 0.0
C6 C 0.32019 0.06183 0.12355 0.0
C7 C 0.28795 0.11663 0.17606 0.0
C8 C 0.16524 0.98445 0.14382 0.0
C9 C 0.21999 0.14037 0.13789 0.0
O10 O 0.20857 0.11894 0.14969 0.0
O11 O 0.24533 0.13197 0.12903 0.0
O12 O 0.24201 0.09762 0.17869 0.0
O13 O 0.30094 0.10727 0.16405 0.0
O14 O 0.05129 0.19488 0.13068 0.0
Cd15 Cd 0.98594 0.19402 0.1301 0.0
Cd16 Cd 0.9875 0.17051 0.1567 0.0
O17 O 0.0607 0.19292 0.15364 0.0
O18 O 0.99649 0.23676 0.11342 0.0
O19 O 0.98343 0.25501 0.13477 0.0
C20 C 0.99523 0.26818 0.12182 0.0
C21 C 0.94738 0.18764 0.17432 0.0
C22 C 0.07635 0.19513 0.14112 0.0
C23 C 0.9194 0.09109 0.13725 0.0
O24 O 0.94324 0.10297 0.14867 0.0
O25 O 0.92589 0.12341 0.12818 0.0
O26 O 0.96887 0.1632 0.17705 0.0
O27 O 0.95348 0.20708 0.16199 0.0
O28 O 0.86096 0.86668 0.13113 0.0
Cd29 Cd 0.86266 0.80281 0.13044 0.0
Cd30 Cd 0.88338 0.8269 0.15722 0.0
O31 O 0.86158 0.87796 0.1541 0.0
O32 O 0.82104 0.77073 0.11343 0.0
O33 O 0.80154 0.73866 0.13458 0.0
C34 C 0.78908 0.73761 0.1216 0.0
C35 C 0.86153 0.76566 0.1737 0.0
C36 C 0.86023 0.89148 0.14156 0.0
C37 C 0.96563 0.84091 0.13857 0.0
O38 O 0.95219 0.85145 0.15 0.0
O39 O 0.93432 0.81527 0.12916 0.0
O40 O 0.8858 0.81085 0.17744 0.0
O41 O 0.84521 0.75535 0.16095 0.0
O42 O 1.02459 0.17536 0.4208 0.0
Cd43 Cd 0.09045 0.23912 0.42133 0.0
Cd44 Cd 0.08677 0.21676 0.39472 0.0
O45 O 1.01268 0.16922 0.39782 0.0
O46 O 0.0859 0.27115 0.43904 0.0
O47 O 0.08646 0.29963 0.41775 0.0
C48 C 0.08043 0.30112 0.43118 0.0
C49 C 0.12939 0.27971 0.37893 0.0
C50 C 0.99779 0.15358 0.41025 0.0
C51 C 0.1527 0.19914 0.41272 0.0
O52 O 0.12732 0.18775 0.4016 0.0
O53 O 0.14984 0.22729 0.42184 0.0
O54 O 0.10653 0.23502 0.37466 0.0
O55 O 0.12404 0.28884 0.3919 0.0
O56 O 0.8685 0.85476 0.42077 0.0
Cd57 Cd 0.80446 0.85634 0.42101 0.0
Cd58 Cd 0.82905 0.87599 0.39427 0.0
O59 O 0.87738 0.85088 0.3978 0.0
O60 O 0.76985 0.81611 0.43792 0.0
O61 O 0.74418 0.79337 0.41602 0.0
C62 C 0.74065 0.78283 0.42927 0.0
C63 C 0.77099 0.85688 0.3768 0.0
C64 C 0.89155 0.85076 0.41036 0.0
C65 C 0.84348 0.95828 0.41302 0.0
O66 O 0.85521 0.94476 0.40182 0.0
O67 O 0.81559 0.92698 0.42207 0.0
O68 O 0.81691 0.88149 0.37387 0.0
O69 O 0.75807 0.83897 0.38932 0.0
O70 O 0.19077 1.01971 0.42047 0.0
Cd71 Cd 0.18877 0.9541 0.42142 0.0
Cd72 Cd 0.16777 0.95519 0.39465 0.0
O73 O 0.19343 0.02916 0.39739 0.0
O74 O 0.22986 0.96193 0.43831 0.0
O75 O 0.25146 0.95592 0.41649 0.0
C76 C 0.26267 0.96463 0.42968 0.0
C77 C 0.18545 0.91306 0.37778 0.0
C78 C 0.19421 0.04522 0.40979 0.0
C79 C 0.08596 0.89048 0.41391 0.0
O80 O 0.09915 0.91412 0.40248 0.0
O81 O 0.11765 0.89502 0.42297 0.0
O82 O 0.16151 0.93459 0.37447 0.0
O83 O 0.20352 0.91953 0.39033 0.0
O84 O 0.87405 0.02264 0.91971 0.0
Cd85 Cd 0.81151 0.95572 0.92141 0.0
Cd86 Cd 0.8355 0.9543 0.89468 0.0
O87 O 0.88477 0.02819 0.89665 0.0
O88 O 0.78106 0.96691 0.93851 0.0
O89 O 0.74562 0.94908 0.91777 0.0
C90 C 0.74593 0.96243 0.93065 0.0
C91 C 0.77424 0.91186 0.87821 0.0
C92 C 0.89787 0.04642 0.90894 0.0
C93 C 0.8506 0.89074 0.91482 0.0
O94 O 0.86119 0.91257 0.90307 0.0
O95 O 0.82424 0.89744 0.92373 0.0
O96 O 0.81958 0.93071 0.87477 0.0
O97 O 0.76382 0.92118 0.89061 0.0
O98 O 1.02361 0.85573 0.92317 0.0
Cd99 Cd 0.09049 0.86011 0.92201 0.0
Cd100 Cd 0.07449 0.86114 0.89589 0.0
O101 O 1.00128 0.82461 0.90205 0.0
O102 O 0.09775 0.83014 0.93976 0.0
O103 O 0.08239 0.79383 0.91892 0.0
C104 C 0.08496 0.79115 0.93245 0.0
C105 C 0.11978 0.84304 0.88036 0.0
C106 C 0.98988 0.83361 0.91417 0.0
C107 C 0.14233 0.95527 0.90863 0.0
O108 O 0.10883 0.93399 0.89958 0.0
O109 O 0.14831 0.93064 0.91819 0.0
O110 O 0.08847 0.85435 0.8757 0.0
O111 O 0.12128 0.83665 0.89375 0.0
O112 O 0.19919 0.17937 0.91374 0.0
Cd113 Cd 0.19651 0.24229 0.9164 0.0
Cd114 Cd 0.17104 0.2214 0.8897 0.0
O115 O 0.19429 0.17099 0.89062 0.0
O116 O 0.23853 0.27 0.93352 0.0
O117 O 0.2561 0.3085 0.91326 0.0
C118 C 0.26921 0.30617 0.92596 0.0
C119 C 0.18892 0.28279 0.87359 0.0
C120 C 0.19856 0.15629 0.90272 0.0
C121 C 0.0922 0.20257 0.91064 0.0
O122 O 0.10379 0.1948 0.8985 0.0
O123 O 0.12516 0.22772 0.91967 0.0
O124 O 0.16227 0.23767 0.87004 0.0
O125 O 0.20926 0.29297 0.88587 0.0
O126 O 0.04355 0.86381 0.62867 0.0
Cd127 Cd 0.97624 0.80171 0.62725 0.0
Cd128 Cd 0.9742 0.82872 0.65374 0.0
O129 O 0.048 0.87803 0.65156 0.0
O130 O 0.9871 0.76949 0.61058 0.0
O131 O 0.96789 0.73555 0.63152 0.0
C132 C 0.98134 0.73458 0.61872 0.0
C133 C 0.93306 0.77394 0.67173 0.0
C134 C 0.06673 0.88932 0.63929 0.0
C135 C 0.91196 0.84233 0.63247 0.0
O136 O 0.9322 0.85255 0.64447 0.0
O137 O 0.91981 0.81636 0.62374 0.0
O138 O 0.95298 0.82015 0.67386 0.0
O139 O 0.94036 0.75894 0.65976 0.0
O140 O 0.19115 0.18892 0.62741 0.0
Cd141 Cd 0.25538 0.18764 0.62811 0.0
Cd142 Cd 0.22611 0.16671 0.65456 0.0
O143 O 0.17817 0.19138 0.65019 0.0
O144 O 0.29219 0.22825 0.61149 0.0
O145 O 0.3148 0.25063 0.63362 0.0
C146 C 0.3201 0.26142 0.62036 0.0
C147 C 0.28009 0.18376 0.67299 0.0
C148 C 0.16614 0.19205 0.63742 0.0
C149 C 0.21628 0.08561 0.6361 0.0
O150 O 0.20206 0.0985 0.64692 0.0
O151 O 0.24532 0.11731 0.62732 0.0
O152 O 0.23365 0.15904 0.67511 0.0
O153 O 0.29573 0.20348 0.66077 0.0
O154 O 0.86948 1.01879 0.62402 0.0
Cd155 Cd 0.86986 0.08377 0.62416 0.0
Cd156 Cd 0.88973 0.07884 0.65079 0.0
O157 O 0.86485 1.00573 0.64695 0.0
O158 O 0.82808 0.078 0.60768 0.0
O159 O 0.80705 0.08023 0.62987 0.0
C160 C 0.79542 0.07346 0.61667 0.0
C161 C 0.87305 0.11698 0.6691 0.0
C162 C 0.86554 0.99181 0.63437 0.0
C163 C 0.97155 0.14796 0.63224 0.0
O164 O 0.95831 0.12205 0.64325 0.0
O165 O 0.94009 0.14427 0.62323 0.0
O166 O 0.89669 0.09437 0.67137 0.0
O167 O 0.85447 0.11357 0.65675 0.0
O168 O 0.85511 0.34692 0.46099 0.0
Cd169 Cd 0.91927 0.41244 0.46046 0.0
Cd170 Cd 0.8961 0.40946 0.48726 0.0
O171 O 0.84703 0.33597 0.48402 0.0
O172 O 0.95402 0.40583 0.44364 0.0
O173 O 0.97955 0.41007 0.46558 0.0
C174 C 0.98326 0.4024 0.45236 0.0
C175 C 0.95646 0.44904 0.5041 0.0
C176 C 0.83223 0.32081 0.47154 0.0
C177 C 0.88094 0.47637 0.4686 0.0
O178 O 0.86989 0.45205 0.47991 0.0
O179 O 0.90805 0.47198 0.45941 0.0
O180 O 0.91098 0.42824 0.50756 0.0
O181 O 0.96758 0.4434 0.49138 0.0
O182 O 0.70169 0.51588 0.46173 0.0
Cd183 Cd 0.63623 0.51479 0.46144 0.0
Cd184 Cd 0.64028 0.4954 0.48811 0.0
O185 O 0.71392 0.52032 0.4847 0.0
O186 O 0.64077 0.5506 0.44369 0.0
O187 O 0.64047 0.57958 0.46493 0.0
C188 C 0.64618 0.58637 0.45147 0.0
C189 C 0.60047 0.5155 0.50513 0.0
C190 C 0.72844 0.51988 0.47217 0.0
C191 C 0.57255 0.41285 0.46969 0.0
O192 O 0.59792 0.42626 0.48083 0.0
O193 O 0.57613 0.44423 0.4607 0.0
O194 O 0.62239 0.49194 0.50845 0.0
O195 O 0.60517 0.53176 0.49241 0.0
O196 O 0.53182 0.19422 0.46145 0.0
Cd197 Cd 0.53313 0.1301 0.46078 0.0
Cd198 Cd 0.55347 0.15347 0.48738 0.0
O199 O 0.52779 0.20144 0.48448 0.0
O200 O 0.49623 0.09832 0.44314 0.0
O201 O 0.46841 0.06945 0.46445 0.0
C202 C 0.46081 0.06806 0.45104 0.0
C203 C 0.53457 0.09325 0.50397 0.0
C204 C 0.52792 0.21662 0.47205 0.0
C205 C 0.63571 0.16918 0.46875 0.0
O206 O 0.62255 0.18115 0.47997 0.0
O207 O 0.60404 0.14117 0.45978 0.0
O208 O 0.51805 0.08195 0.49124 0.0
O209 O 0.5575 0.1386 0.50757 0.0
O210 O 0.68864 0.50886 0.75212 0.0
Cd211 Cd 0.75443 0.57016 0.75586 0.0
Cd212 Cd 0.75342 0.57549 0.72828 0.0
O213 O 0.6783 0.52885 0.73071 0.0
O214 O 0.74675 0.60111 0.77345 0.0
O215 O 0.75568 0.63279 0.75208 0.0
C216 C 0.74581 0.6332 0.7653 0.0
C217 C 0.79446 0.63798 0.71203 0.0
C218 C 0.6622 0.50033 0.74129 0.0
C219 C 0.8146 0.53762 0.74194 0.0
O220 O 0.79281 0.54144 0.73125 0.0
O221 O 0.81101 0.55456 0.75383 0.0
O222 O 0.76793 0.59354 0.70792 0.0
O223 O 0.79337 0.64783 0.72519 0.0
O224 O 0.54649 0.19563 0.7516 0.0
Cd225 Cd 0.48786 0.20212 0.75754 0.0
Cd226 Cd 0.47677 0.20019 0.72996 0.0
O227 O 0.52375 0.17187 0.72973 0.0
O228 O 0.46281 0.16245 0.77509 0.0
O229 O 0.42033 0.14468 0.75537 0.0
C230 C 0.42482 0.13205 0.76797 0.0
C231 C 0.41419 0.18139 0.71386 0.0
C232 C 0.55345 0.18093 0.73986 0.0
C233 C 0.51926 0.29714 0.74584 0.0
O234 O 0.51114 0.27305 0.73448 0.0
O235 O 0.50642 0.27506 0.75764 0.0
O236 O 0.45895 0.20179 0.70986 0.0
O237 O 0.40408 0.16724 0.72678 0.0
O238 O 0.8609 0.3723 0.74767 0.0
Cd239 Cd 0.85423 0.30651 0.75259 0.0
Cd240 Cd 0.85306 0.2996 0.72493 0.0
O241 O 0.88154 0.37495 0.72537 0.0
O242 O 0.89518 0.32001 0.76984 0.0
O243 O 0.91155 0.2967 0.74959 0.0
C244 C 0.92513 0.31303 0.76225 0.0
C245 C 0.87179 0.25592 0.70868 0.0
C246 C 0.87435 0.39497 0.73608 0.0
C247 C 0.75759 0.24343 0.74139 0.0
O248 O 0.78043 0.26062 0.72991 0.0
O249 O 0.78103 0.25186 0.75294 0.0
O250 O 0.85061 0.27951 0.70479 0.0
O251 O 0.88648 0.26057 0.72156 0.0
O252 O 0.53683 0.36148 0.2576 0.0
Cd253 Cd 0.47695 0.29313 0.25775 0.0
Cd254 Cd 0.49218 0.30184 0.23032 0.0
O255 O 0.54321 0.37471 0.23473 0.0
O256 O 0.44429 0.2922 0.27598 0.0
O257 O 0.41411 0.29349 0.25508 0.0
C258 C 0.41324 0.29777 0.26862 0.0
C259 C 0.42905 0.26175 0.21436 0.0
C260 C 0.559 0.38883 0.24724 0.0
C261 C 0.51903 0.23618 0.24528 0.0
O262 O 0.52146 0.25954 0.23425 0.0
O263 O 0.49698 0.23908 0.25623 0.0
O264 O 0.47355 0.28727 0.21003 0.0
O265 O 0.41983 0.26453 0.22752 0.0
O266 O 0.69135 0.19116 0.25251 0.0
Cd267 Cd 0.75602 0.192 0.25482 0.0
Cd268 Cd 0.75601 0.20252 0.22781 0.0
O269 O 0.6808 0.17201 0.22996 0.0
O270 O 0.74778 0.15414 0.27242 0.0
O271 O 0.75274 0.12793 0.25111 0.0
C272 C 0.74409 0.11937 0.26444 0.0
C273 C 0.80152 0.18584 0.21187 0.0
C274 C 0.66469 0.17863 0.24161 0.0
C275 C 0.81676 0.29154 0.24514 0.0
O276 O 0.79292 0.27373 0.23389 0.0
O277 O 0.81464 0.26355 0.25507 0.0
O278 O 0.77636 0.2052 0.20773 0.0
O279 O 0.7971 0.17154 0.2248 0.0
O280 O 0.85927 0.5125 0.25138 0.0
Cd281 Cd 0.85851 0.57691 0.25275 0.0
Cd282 Cd 0.83084 0.55231 0.2264 0.0
O283 O 0.85472 0.50234 0.22831 0.0
O284 O 0.90145 0.60797 0.26955 0.0
O285 O 0.91933 0.64126 0.24851 0.0
C286 C 0.93251 0.64181 0.26139 0.0
C287 C 0.84991 0.61316 0.20993 0.0
C288 C 0.85901 0.48868 0.24057 0.0
C289 C 0.75412 0.54036 0.24702 0.0
O290 O 0.76378 0.5283 0.2352 0.0
O291 O 0.7884 0.56642 0.2556 0.0
O292 O 0.82438 0.56786 0.2064 0.0
O293 O 0.86856 0.62377 0.22243 0.0
O294 O 0.71762 0.19344 0.96279 0.0
Cd295 Cd 0.64998 0.13137 0.96265 0.0
Cd296 Cd 0.65377 0.16173 0.98898 0.0
O297 O 0.72714 0.20994 0.98555 0.0
O298 O 0.65706 0.09641 0.94601 0.0
O299 O 0.64261 0.06593 0.96737 0.0
C300 C 0.65312 0.06277 0.9544 0.0
C301 C 0.61445 0.10835 1.00735 0.0
C302 C 0.74315 0.21998 0.97296 0.0
C303 C 0.58717 0.17309 0.96905 0.0
O304 O 0.61075 0.18556 0.98051 0.0
O305 O 0.59255 0.14547 0.96031 0.0
O306 O 0.63661 0.15477 1.0094 0.0
O307 O 0.61904 0.09229 0.99522 0.0
O308 O 0.8607 0.51542 0.9581 0.0
Cd309 Cd 0.92629 0.51702 0.95951 0.0
Cd310 Cd 0.89691 0.49692 0.98583 0.0
O311 O 0.84889 0.52109 0.98081 0.0
O312 O 0.96685 0.56066 0.94377 0.0
O313 O 0.98206 0.58033 0.96638 0.0
C314 C 0.99106 0.59302 0.95329 0.0
C315 C 0.94918 0.51374 1.00474 0.0
C316 C 0.83593 0.5195 0.96802 0.0
C317 C 0.88955 0.41597 0.96802 0.0
O318 O 0.87363 0.42861 0.97852 0.0
O319 O 0.91894 0.44771 0.95931 0.0
O320 O 0.90256 0.49051 1.00659 0.0
O321 O 0.96611 0.53221 0.99248 0.0
O322 O 0.53193 0.34071 0.96031 0.0
Cd323 Cd 0.53569 0.40708 0.95851 0.0
Cd324 Cd 0.56299 0.41049 0.98532 0.0
O325 O 0.54015 0.33712 0.98329 0.0
O326 O 0.49305 0.39484 0.9417 0.0
O327 O 0.47679 0.4143 0.96248 0.0
C328 C 0.46308 0.40024 0.94968 0.0
C329 C 0.54807 0.45091 1.00338 0.0
C330 C 0.5341 0.31823 0.97106 0.0
C331 C 0.64015 0.47275 0.96414 0.0
O332 O 0.62932 0.45315 0.97621 0.0
O333 O 0.60687 0.46401 0.95516 0.0
O334 O 0.57497 0.43171 1.00547 0.0
O335 O 0.5259 0.4433 0.99143 0.0
O336 O 0.52139 0.68293 0.79633 0.0
Cd337 Cd 0.58763 0.7462 0.79729 0.0
Cd338 Cd 0.56246 0.73705 0.82379 0.0
O339 O 0.51185 0.66489 0.81898 0.0
O340 O 0.62219 0.74399 0.77976 0.0
O341 O 0.6446 0.73609 0.80118 0.0
C342 C 0.64873 0.73363 0.7877 0.0
C343 C 0.62534 0.77461 0.83998 0.0
C344 C 0.49719 0.65408 0.80626 0.0
C345 C 0.55175 0.81061 0.80746 0.0
O346 O 0.53768 0.78225 0.81795 0.0
O347 O 0.57999 0.80828 0.79823 0.0
O348 O 0.58042 0.75273 0.84411 0.0
O349 O 0.63446 0.77005 0.82694 0.0
O350 O 0.38278 0.86582 0.80165 0.0
Cd351 Cd 0.31706 0.86399 0.80024 0.0
Cd352 Cd 0.31402 0.83524 0.82662 0.0
O353 O 0.38773 0.85821 0.82459 0.0
O354 O 0.32987 0.90705 0.7835 0.0
O355 O 0.31274 0.92438 0.80446 0.0
C356 C 0.3265 0.93787 0.79164 0.0
C357 C 0.26991 0.84909 0.84373 0.0
C358 C 0.40583 0.86355 0.81226 0.0
C359 C 0.25041 0.7595 0.80564 0.0
O360 O 0.2719 0.76926 0.81744 0.0
O361 O 0.25821 0.79348 0.79704 0.0
O362 O 0.29098 0.82434 0.84659 0.0
O363 O 0.27876 0.87083 0.83168 0.0
O364 O 0.19385 0.53684 0.79542 0.0
Cd365 Cd 0.19546 0.47311 0.79354 0.0
Cd366 Cd 0.2178 0.49333 0.82045 0.0
O367 O 0.19614 0.54489 0.81855 0.0
O368 O 0.15246 0.44273 0.7767 0.0
O369 O 0.13495 0.40856 0.79763 0.0
C370 C 0.12138 0.40878 0.78484 0.0
C371 C 0.19646 0.43148 0.83669 0.0
C372 C 0.19375 0.56005 0.80633 0.0
C373 C 0.29862 0.50934 0.80067 0.0
O374 O 0.28601 0.51788 0.81255 0.0
O375 O 0.26669 0.48557 0.79123 0.0
O376 O 0.22218 0.47648 0.84046 0.0
O377 O 0.17877 0.42172 0.82407 0.0
O378 O 0.35696 0.83949 0.08479 0.0
Cd379 Cd 0.42277 0.89826 0.09013 0.0
Cd380 Cd 0.42863 0.90747 0.06254 0.0
O381 O 0.35313 0.86114 0.06303 0.0
O382 O 0.40931 0.92473 0.10769 0.0
O383 O 0.43249 0.96537 0.08768 0.0
C384 C 0.4161 0.96191 0.10037 0.0
C385 C 0.47279 0.9703 0.0466 0.0
C386 C 0.3337 0.83207 0.07336 0.0
C387 C 0.4847 0.86568 0.07761 0.0
O388 O 0.46681 0.87262 0.06651 0.0
O389 O 0.47744 0.87977 0.08953 0.0
O390 O 0.4479 0.92581 0.04244 0.0
O391 O 0.46898 0.98 0.05961 0.0
O392 O 0.21715 0.52674 0.08285 0.0
Cd393 Cd 0.15816 0.53336 0.08828 0.0
Cd394 Cd 0.15002 0.53251 0.06065 0.0
O395 O 0.19703 0.50416 0.06077 0.0
O396 O 0.13207 0.49342 0.10578 0.0
O397 O 0.09067 0.47591 0.08589 0.0
C398 C 0.09443 0.46308 0.09853 0.0
C399 C 0.08706 0.51375 0.04467 0.0
C400 C 0.22544 0.51253 0.07121 0.0
C401 C 0.19102 0.62892 0.07666 0.0
O402 O 0.18433 0.60523 0.06528 0.0
O403 O 0.1768 0.60644 0.08838 0.0
O404 O 0.13178 0.53433 0.04059 0.0
O405 O 0.07729 0.49955 0.0576 0.0
O406 O 0.5306 0.70013 0.08305 0.0
Cd407 Cd 0.52385 0.63413 0.08759 0.0
Cd408 Cd 0.52665 0.63041 0.0599 0.0
O409 O 0.55513 0.70569 0.06104 0.0
O410 O 0.56299 0.6464 0.10521 0.0
O411 O 0.58201 0.62539 0.085 0.0
C412 C 0.59416 0.64072 0.0978 0.0
C413 C 0.54742 0.58817 0.04372 0.0
C414 C 0.54587 0.72422 0.07173 0.0
C415 C 0.42881 0.5727 0.0751 0.0
O416 O 0.45335 0.59118 0.06394 0.0
O417 O 0.45057 0.57946 0.08691 0.0
O418 O 0.52764 0.61289 0.03965 0.0
O419 O 0.56003 0.59126 0.05677 0.0
O420 O 0.20375 0.69755 0.58391 0.0
Cd421 Cd 0.14219 0.63028 0.58593 0.0
Cd422 Cd 0.16421 0.62795 0.55911 0.0
O423 O 0.21389 0.70186 0.56085 0.0
O424 O 0.11197 0.64173 0.60302 0.0
O425 O 0.07537 0.62151 0.58244 0.0
C426 C 0.07615 0.63584 0.59523 0.0
C427 C 0.103 0.58618 0.54267 0.0
C428 C 0.22735 0.72071 0.57305 0.0
C429 C 0.18322 0.56706 0.57941 0.0
O430 O 0.19084 0.58681 0.56738 0.0
O431 O 0.15832 0.57452 0.58866 0.0
O432 O 0.14829 0.60554 0.53914 0.0
O433 O 0.09251 0.59407 0.55523 0.0
O434 O 0.36289 0.52851 0.58717 0.0
Cd435 Cd 0.42801 0.52903 0.58766 0.0
Cd436 Cd 0.42376 0.54617 0.56083 0.0
O437 O 0.35015 0.52154 0.56421 0.0
O438 O 0.42319 0.49387 0.60557 0.0
O439 O 0.42313 0.46385 0.58446 0.0
C440 C 0.41736 0.45763 0.59794 0.0
C441 C 0.46343 0.5255 0.5439 0.0
C442 C 0.33593 0.52341 0.57668 0.0
C443 C 0.49172 0.63012 0.57884 0.0
O444 O 0.46616 0.61578 0.56774 0.0
O445 O 0.48831 0.59948 0.58807 0.0
O446 O 0.44131 0.54878 0.54048 0.0
O447 O 0.45895 0.50977 0.55668 0.0
O448 O 0.52802 0.84753 0.58485 0.0
Cd449 Cd 0.52644 0.91148 0.58481 0.0
Cd450 Cd 0.50871 0.88664 0.55825 0.0
O451 O 0.53473 0.83936 0.562 0.0
O452 O 0.56154 0.9438 0.60263 0.0
O453 O 0.59165 0.9717 0.58141 0.0
C454 C 0.59791 0.97343 0.5949 0.0
C455 C 0.52879 0.94666 0.54153 0.0
C456 C 0.53338 0.82483 0.57458 0.0
C457 C 0.42467 0.87165 0.57588 0.0
O458 O 0.43889 0.85878 0.56505 0.0
O459 O 0.4555 0.90051 0.5849 0.0
O460 O 0.54397 0.95813 0.55437 0.0
O461 O 0.50676 0.90131 0.53792 0.0
O462 O 0.36508 0.5239 0.29684 0.0
Cd463 Cd 0.30069 0.45834 0.29793 0.0
Cd464 Cd 0.30734 0.48783 0.32417 0.0
O465 O 0.38035 0.53615 0.31962 0.0
O466 O 0.30536 0.42044 0.28157 0.0
O467 O 0.307 0.40093 0.30386 0.0
C468 C 0.31219 0.39433 0.29066 0.0
C469 C 0.26952 0.42983 0.34169 0.0
C470 C 0.3931 0.54881 0.30686 0.0
C471 C 0.23453 0.49467 0.3062 0.0
O472 O 0.26225 0.51114 0.31684 0.0
O473 O 0.23823 0.46534 0.29771 0.0
O474 O 0.29234 0.47565 0.34477 0.0
O475 O 0.27287 0.41703 0.32897 0.0
O476 O 0.51851 0.84403 0.2944 0.0
Cd477 Cd 0.58353 0.845 0.29257 0.0
Cd478 Cd 0.56932 0.82904 0.31973 0.0
O479 O 0.51967 0.85336 0.31747 0.0
O480 O 0.61642 0.88701 0.27576 0.0
O481 O 0.64339 0.90828 0.29764 0.0
C482 C 0.64614 0.91976 0.28447 0.0
C483 C 0.62973 0.84919 0.3366 0.0
C484 C 0.50011 0.85056 0.30552 0.0
C485 C 0.54781 0.74402 0.30119 0.0
O486 O 0.54088 0.7591 0.31287 0.0
O487 O 0.57252 0.77423 0.29147 0.0
O488 O 0.58427 0.82584 0.34006 0.0
O489 O 0.64115 0.86503 0.32383 0.0
O490 O 0.17758 0.66139 0.29684 0.0
Cd491 Cd 0.19219 0.73173 0.29513 0.0
Cd492 Cd 0.2095 0.73264 0.32256 0.0
O493 O 0.19026 0.65977 0.3196 0.0
O494 O 0.15394 0.72585 0.27773 0.0
O495 O 0.13824 0.747 0.2983 0.0
C496 C 0.12507 0.73396 0.28542 0.0
C497 C 0.1868 0.77111 0.3393 0.0
C498 C 0.18181 0.63973 0.30745 0.0
C499 C 0.29612 0.79257 0.30418 0.0
O500 O 0.27923 0.77764 0.3164 0.0
O501 O 0.26757 0.78116 0.29359 0.0
O502 O 0.21145 0.75058 0.34286 0.0
O503 O 0.17016 0.76485 0.32658 0.0
C504 C 0.33319 0.13908 0.19915 0.0
C505 C 0.32455 0.15343 0.18585 0.0
C506 C 0.37928 0.23945 0.19211 0.0
C507 C 0.39111 0.22481 0.20488 0.0
N508 N 0.38661 0.16019 0.21934 0.0
N509 N 0.34251 0.21684 0.16892 0.0
C510 C 0.36979 0.17448 0.20814 0.0
C511 C 0.34872 0.20352 0.18209 0.0
N512 N 0.30644 0.09153 0.20321 0.0
N513 N 0.39567 0.28769 0.18984 0.0
H514 H 0.31854 0.19223 0.16152 0.0
H515 H 0.36335 0.25186 0.16493 0.0
H516 H 0.4176 0.31475 0.19704 0.0
H517 H 0.3843 0.30071 0.18149 0.0
H518 H 0.30668 0.0798 0.21342 0.0
H519 H 0.28139 0.06412 0.19661 0.0
H520 H 0.37652 0.12413 0.22129 0.0
H521 H 0.41417 0.18448 0.22603 0.0
C522 C 0.88153 0.23116 0.19913 0.0
C523 C 0.83923 0.18603 0.20248 0.0
C524 C 0.86861 0.1425 0.18768 0.0
C525 C 0.91121 0.18748 0.18439 0.0
N526 N 0.9578 0.27473 0.18606 0.0
N527 N 0.7955 0.09855 0.20193 0.0
C528 C 0.91752 0.2319 0.18987 0.0
C529 C 0.83379 0.14164 0.19737 0.0
N530 N 0.88833 0.27295 0.20544 0.0
N531 N 0.85967 0.10095 0.18075 0.0
H532 H 0.76783 0.09649 0.20838 0.0
H533 H 0.79262 0.06487 0.20014 0.0
H534 H 0.88334 0.09973 0.17333 0.0
H535 H 0.82689 0.06822 0.18136 0.0
H536 H 0.91974 0.3067 0.20455 0.0
H537 H 0.86326 0.27381 0.2124 0.0
H538 H 0.96292 0.30902 0.18831 0.0
H539 H 0.98625 0.27625 0.18011 0.0
C540 C 0.89914 0.68952 0.19576 0.0
C541 C 0.85306 0.6518 0.20042 0.0
C542 C 0.81225 0.68915 0.18778 0.0
C543 C 0.85831 0.72703 0.18321 0.0
N544 N 0.94501 0.75976 0.18071 0.0
N545 N 0.76641 0.61946 0.20299 0.0
C546 C 0.90171 0.72659 0.18676 0.0
C547 C 0.80969 0.65231 0.19687 0.0
N548 N 0.94053 0.69008 0.20007 0.0
N549 N 0.77083 0.6881 0.18325 0.0
H550 H 0.76276 0.59225 0.20982 0.0
H551 H 0.73453 0.62102 0.20226 0.0
H552 H 0.77131 0.71612 0.17745 0.0
H553 H 0.73592 0.65848 0.18454 0.0
H554 H 0.97553 0.71948 0.19875 0.0
H555 H 0.94001 0.66165 0.20567 0.0
H556 H 0.97707 0.75855 0.18148 0.0
H557 H 0.94863 0.78709 0.17393 0.0
C558 C 0.20791 0.31745 0.36529 0.0
C559 C 0.16556 0.31882 0.36961 0.0
C560 C 0.19364 0.39506 0.3566 0.0
C561 C 0.23547 0.39311 0.35198 0.0
N562 N 0.28123 0.35144 0.35089 0.0
N563 N 0.12072 0.36131 0.37119 0.0
C564 C 0.24221 0.35396 0.35605 0.0
C565 C 0.15933 0.35847 0.36583 0.0
N566 N 0.21688 0.28294 0.37079 0.0
N567 N 0.18486 0.42999 0.35134 0.0
H568 H 0.09295 0.33355 0.37707 0.0
H569 H 0.11716 0.39204 0.37052 0.0
H570 H 0.2085 0.45735 0.34453 0.0
H571 H 0.15257 0.43035 0.35285 0.0
H572 H 0.2493 0.2827 0.36941 0.0
H573 H 0.19333 0.25609 0.37776 0.0
H574 H 0.2852 0.321 0.35175 0.0
H575 H 0.30915 0.37938 0.34509 0.0
C576 C 0.70966 0.88043 0.36931 0.0
C577 C 0.73444 0.85427 0.36652 0.0
C578 C 0.69 0.82451 0.3442 0.0
C579 C 0.66726 0.85274 0.34663 0.0
N580 N 0.65955 0.91236 0.36032 0.0
N581 N 0.7532 0.80641 0.35068 0.0
C582 C 0.67804 0.88183 0.35891 0.0
C583 C 0.72623 0.82798 0.35373 0.0
N584 N 0.71656 0.90417 0.3819 0.0
N585 N 0.67515 0.79246 0.33314 0.0
H586 H 0.77774 0.80544 0.35777 0.0
H587 H 0.7535 0.79196 0.34084 0.0
H588 H 0.64892 0.78883 0.32589 0.0
H589 H 0.6859 0.76671 0.33171 0.0
H590 H 0.69538 0.91874 0.38536 0.0
H591 H 0.74206 0.90742 0.38936 0.0
H592 H 0.6698 0.9385 0.36821 0.0
H593 H 0.6364 0.91424 0.35289 0.0
C594 C 0.15925 0.82656 0.37139 0.0
C595 C 0.1867 0.87695 0.36801 0.0
C596 C 0.21195 0.85738 0.34555 0.0
C597 C 0.18441 0.80697 0.34891 0.0
N598 N 0.136 0.74319 0.36534 0.0
N599 N 0.2341 0.94052 0.35139 0.0
C600 C 0.15924 0.79149 0.36194 0.0
C601 C 0.21148 0.89235 0.35493 0.0
N602 N 0.13074 0.81212 0.38325 0.0
N603 N 0.24131 0.87204 0.33386 0.0
H604 H 0.2375 0.96753 0.35836 0.0
H605 H 0.24726 0.95374 0.34136 0.0
H606 H 0.24337 0.848 0.32677 0.0
H607 H 0.26665 0.9081 0.33163 0.0
H608 H 0.10561 0.77616 0.38564 0.0
H609 H 0.1295 0.8364 0.39042 0.0
H610 H 0.1221 0.72958 0.37529 0.0
H611 H 0.13248 0.71631 0.3583 0.0
C612 C 0.69102 0.85966 0.84612 0.0
C613 C 0.66476 0.80929 0.84954 0.0
C614 C 0.7068 0.82712 0.87236 0.0
C615 C 0.73538 0.87702 0.86852 0.0
N616 N 0.75899 0.94012 0.85116 0.0
N617 N 0.65234 0.74383 0.8648 0.0
C618 C 0.72893 0.89297 0.85518 0.0
C619 C 0.67374 0.79271 0.86241 0.0
N620 N 0.67785 0.87624 0.83462 0.0
N621 N 0.71137 0.81243 0.88552 0.0
H622 H 0.6285 0.71777 0.85766 0.0
H623 H 0.66114 0.72878 0.87321 0.0
H624 H 0.73737 0.83529 0.8928 0.0
H625 H 0.68756 0.77818 0.8896 0.0
H626 H 0.69136 0.91292 0.83251 0.0
H627 H 0.65025 0.85352 0.8277 0.0
H628 H 0.76068 0.95243 0.84091 0.0
H629 H 0.78448 0.96666 0.85788 0.0
C630 C 0.19657 0.88983 0.86622 0.0
C631 C 0.1577 0.8442 0.87087 0.0
C632 C 0.19084 0.8021 0.857 0.0
C633 C 0.23202 0.84772 0.85335 0.0
N634 N 0.27796 0.93469 0.85624 0.0
N635 N 0.1214 0.75727 0.8725 0.0
C636 C 0.23584 0.89157 0.85839 0.0
C637 C 0.1561 0.80046 0.86687 0.0
N638 N 0.19597 0.93163 0.86928 0.0
N639 N 0.18322 0.7605 0.85041 0.0
H640 H 0.09402 0.75441 0.87923 0.0
H641 H 0.12185 0.7249 0.87131 0.0
H642 H 0.20657 0.75993 0.84275 0.0
H643 H 0.15129 0.72713 0.85147 0.0
H644 H 0.21991 0.96518 0.8648 0.0
H645 H 0.16949 0.9325 0.87562 0.0
H646 H 0.2853 0.96735 0.86093 0.0
H647 H 0.30768 0.93721 0.85074 0.0
C648 C 0.16844 0.348 0.86839 0.0
C649 C 0.19192 0.32165 0.86426 0.0
C650 C 0.21894 0.36813 0.84224 0.0
C651 C 0.19312 0.39244 0.84598 0.0
N652 N 0.13855 0.40208 0.86154 0.0
N653 N 0.23461 0.30207 0.84672 0.0
C654 C 0.1668 0.38164 0.85881 0.0
C655 C 0.21553 0.33025 0.85099 0.0
N656 N 0.14741 0.34062 0.88144 0.0
N657 N 0.2488 0.38298 0.83067 0.0
H658 H 0.23592 0.27633 0.85321 0.0
H659 H 0.24663 0.30208 0.8365 0.0
H660 H 0.25229 0.41037 0.82393 0.0
H661 H 0.2731 0.37098 0.82829 0.0
H662 H 0.13503 0.36256 0.8858 0.0
H663 H 0.14433 0.31383 0.88835 0.0
H664 H 0.11426 0.3922 0.86994 0.0
H665 H 0.13656 0.4267 0.85472 0.0
C666 C 0.88073 0.69551 0.70454 0.0
C667 C 0.82989 0.67513 0.70215 0.0
C668 C 0.8471 0.71637 0.67928 0.0
C669 C 0.89789 0.73923 0.68212 0.0
N670 N 0.96322 0.7568 0.69823 0.0
N671 N 0.76449 0.67153 0.68846 0.0
C672 C 0.91471 0.73088 0.69503 0.0
C673 C 0.813 0.68694 0.68982 0.0
N674 N 0.89665 0.67893 0.71542 0.0
N675 N 0.83143 0.72274 0.66647 0.0
H676 H 0.73875 0.65041 0.69607 0.0
H677 H 0.75012 0.6829 0.68047 0.0
H678 H 0.8549 0.74603 0.65875 0.0
H679 H 0.79546 0.70277 0.66309 0.0
H680 H 0.93287 0.68822 0.71673 0.0
H681 H 0.87329 0.65244 0.72251 0.0
H682 H 0.97706 0.75676 0.70816 0.0
H683 H 0.98949 0.7811 0.69122 0.0
C684 C 0.36644 0.15122 0.69148 0.0
C685 C 0.37659 0.17879 0.70405 0.0
C686 C 0.32056 0.20706 0.69679 0.0
C687 C 0.31408 0.18324 0.68363 0.0
N688 N 0.33306 0.13503 0.66785 0.0
N689 N 0.36917 0.23856 0.71798 0.0
C690 C 0.33782 0.15613 0.68079 0.0
C691 C 0.35488 0.2079 0.7066 0.0
N692 N 0.38265 0.11883 0.69003 0.0
N693 N 0.29398 0.22899 0.6999 0.0
H694 H 0.39426 0.24059 0.7254 0.0
H695 H 0.35916 0.26483 0.71952 0.0
H696 H 0.27083 0.23178 0.69266 0.0
H697 H 0.29248 0.24176 0.7099 0.0
H698 H 0.37236 0.09369 0.68184 0.0
H699 H 0.40319 0.114 0.69775 0.0
H700 H 0.35411 0.12017 0.6645 0.0
H701 H 0.30994 0.13464 0.66003 0.0
C702 C 0.82815 0.1766 0.69566 0.0
C703 C 0.87277 0.21935 0.69909 0.0
C704 C 0.91742 0.19357 0.68343 0.0
C705 C 0.87273 0.15103 0.67984 0.0
N706 N 0.78542 0.10288 0.68152 0.0
N707 N 0.96032 0.26538 0.69827 0.0
C708 C 0.82802 0.14278 0.6857 0.0
C709 C 0.91758 0.22678 0.6936 0.0
N710 N 0.78633 0.16718 0.70257 0.0
N711 N 0.95925 0.20393 0.67637 0.0
H712 H 0.96168 0.29169 0.70516 0.0
H713 H 0.99452 0.26989 0.6961 0.0
H714 H 0.96088 0.18123 0.66869 0.0
H715 H 0.99181 0.23675 0.67721 0.0
H716 H 0.75328 0.13491 0.70168 0.0
H717 H 0.78507 0.19049 0.71011 0.0
H718 H 0.75094 0.09711 0.68396 0.0
H719 H 0.78431 0.07585 0.675 0.0
C720 C 0.03946 0.50086 0.53624 0.0
C721 C 0.06428 0.5514 0.53302 0.0
C722 C 1.01911 0.53436 0.51077 0.0
C723 C 0.99457 0.48377 0.51392 0.0
N724 N 0.97672 0.41861 0.53003 0.0
N725 N 0.08247 0.61642 0.51681 0.0
C726 C 1.0034 0.46698 0.5268 0.0
C727 C 0.05543 0.56815 0.52015 0.0
N728 N 0.0527 0.48507 0.54792 0.0
N729 N 1.00535 0.55036 0.49925 0.0
H730 H 0.10695 0.64264 0.52381 0.0
H731 H 0.08281 0.63047 0.50691 0.0
H732 H 0.97878 0.52711 0.49215 0.0
H733 H 1.01736 0.58675 0.49716 0.0
H734 H 0.04036 0.44874 0.55018 0.0
H735 H 0.07891 0.50849 0.55509 0.0
H736 H 0.97652 0.40426 0.53988 0.0
H737 H 0.95251 0.39245 0.52298 0.0
C738 C 0.54153 0.56614 0.53007 0.0
C739 C 0.49816 0.52262 0.5339 0.0
C740 C 0.52245 0.47482 0.51901 0.0
C741 C 0.56583 0.51834 0.51519 0.0
N742 N 0.61473 0.60563 0.51561 0.0
N743 N 0.44943 0.43532 0.53355 0.0
C744 C 0.57474 0.56409 0.52029 0.0
C745 C 0.48931 0.47687 0.52882 0.0
N746 N 0.55243 0.60906 0.53652 0.0
N747 N 0.51145 0.43193 0.51253 0.0
H748 H 0.42287 0.43556 0.54 0.0
H749 H 0.44367 0.4005 0.53177 0.0
H750 H 0.53419 0.42879 0.50517 0.0
H751 H 0.47825 0.39986 0.51355 0.0
H752 H 0.58557 0.64117 0.5355 0.0
H753 H 0.52961 0.61219 0.54386 0.0
H754 H 0.62059 0.64047 0.51739 0.0
H755 H 0.64139 0.60538 0.5092 0.0
C756 C 0.48731 1.01728 0.51842 0.0
C757 C 0.53277 0.05577 0.51368 0.0
C758 C 0.57597 0.02235 0.52697 0.0
C759 C 0.53054 0.98381 0.53169 0.0
N760 N 0.44333 0.94783 0.53389 0.0
N761 N 0.6198 0.09087 0.5112 0.0
C762 C 0.48621 0.98183 0.52782 0.0
C763 C 0.57704 0.0575 0.51746 0.0
N764 N 0.44515 1.01441 0.51378 0.0
N765 N 0.61817 0.02566 0.53174 0.0
H766 H 0.62229 0.11674 0.50402 0.0
H767 H 0.65247 0.09092 0.51217 0.0
H768 H 0.6188 0.99895 0.53794 0.0
H769 H 0.65255 0.0559 0.53028 0.0
H770 H 0.41065 0.98439 0.51526 0.0
H771 H 0.44459 0.04144 0.50773 0.0
H772 H 0.41045 0.9473 0.53285 0.0
H773 H 0.44078 0.92156 0.54092 0.0
C774 C 0.50364 0.045 0.03157 0.0
C775 C 0.51024 1.00754 0.03719 0.0
C776 C 0.5875 0.0384 1.02416 0.0
C777 C 0.57979 0.07464 1.01805 0.0
N778 N 0.52733 0.10826 1.01405 0.0
N779 N 0.56094 0.97198 0.0409 0.0
C780 C 0.53729 0.07724 1.02138 0.0
C781 C 0.55279 1.00497 0.03398 0.0
N782 N 0.46544 0.05004 0.03613 0.0
N783 N 0.62782 0.03577 1.02039 0.0
H784 H 0.53692 0.94765 0.04834 0.0
H785 H 0.5926 0.97007 0.04005 0.0
H786 H 0.65541 0.06157 1.014 0.0
H787 H 0.63377 1.00754 1.02313 0.0
H788 H 0.46158 0.07992 0.03382 0.0
H789 H 0.43899 0.02582 0.04311 0.0
H790 H 0.4945 0.10806 1.01473 0.0
H791 H 0.55027 0.13194 1.00632 0.0
C792 C 1.01904 0.5582 1.02161 0.0
C793 C 0.98214 0.51364 1.01584 0.0
C794 C 1.01132 0.46836 0.02996 0.0
C795 C 0.04945 0.51301 0.03523 0.0
N796 N 0.08515 0.59959 0.03842 0.0
N797 N 0.94675 0.42683 1.01281 0.0
C798 C 0.05226 0.5578 0.03163 0.0
C799 C 0.97876 0.46874 1.01971 0.0
N800 N 1.02266 0.60092 1.01728 0.0
N801 N 1.00604 0.42556 0.03486 0.0
H802 H 0.92276 0.42523 1.00508 0.0
H803 H 0.9462 0.394 1.01387 0.0
H804 H 1.0306 0.42398 0.04181 0.0
H805 H 0.97576 0.39164 0.03287 0.0
H806 H 0.05179 0.6352 1.01963 0.0
H807 H 0.99701 0.60227 1.01075 0.0
H808 H 0.08671 0.63288 0.03739 0.0
H809 H 0.10928 0.60061 0.04603 0.0
C810 C 0.52318 0.46873 0.02686 0.0
C811 C 0.54777 0.48573 1.01381 0.0
C812 C 0.57851 0.57031 1.02142 0.0
C813 C 0.55028 0.55313 0.0339 0.0
N814 N 0.48944 0.48599 0.04758 0.0
N815 N 0.5963 0.55222 0.99801 0.0
C816 C 0.52119 0.50232 0.03645 0.0
C817 C 0.57458 0.53643 1.01089 0.0
N818 N 0.50174 0.42044 0.03011 0.0
N819 N 0.61054 0.61899 1.01993 0.0
H820 H 0.59691 0.52905 0.9903 0.0
H821 H 0.61133 0.58796 0.99457 0.0
H822 H 0.61464 0.64459 0.02754 0.0
H823 H 0.636 0.63377 1.01183 0.0
H824 H 0.48844 0.40659 0.0401 0.0
H825 H 0.50012 0.3944 1.02305 0.0
H826 H 0.46327 0.44962 0.04906 0.0
H827 H 0.48619 0.50907 0.05479 0.0
C828 C 0.37204 0.02097 0.12702 0.0
C829 C 0.35507 0.04602 0.11833 0.0
C830 C 0.38102 1.01882 0.09747 0.0
C831 C 0.40128 0.99685 0.10617 0.0
N832 N 0.43235 0.99609 0.12931 0.0
N833 N 0.36399 0.08472 0.0958 0.0
C834 C 0.40227 1.00432 0.12097 0.0
C835 C 0.3666 0.0504 0.10374 0.0
N836 N 0.35715 1.00947 0.14069 0.0
N837 N 0.37147 1.00727 0.08352 0.0
H838 H 0.35661 0.1105 0.10021 0.0
H839 H 0.37539 0.09132 0.08531 0.0
H840 H 0.37574 0.98065 0.07842 0.0
H841 H 0.35302 1.01998 0.07737 0.0
H842 H 0.36555 0.98728 0.14671 0.0
H843 H 0.33224 1.01676 0.14562 0.0
H844 H 0.43681 1.00451 0.14004 0.0
H845 H 0.45731 0.98704 0.12517 0.0
C846 C 0.05274 0.40767 0.11921 0.0
C847 C 0.05922 0.41358 0.10438 0.0
C848 C 1.00493 0.32527 0.10213 0.0
C849 C 1.01061 0.31867 0.11665 0.0
N850 N 0.04913 0.35835 0.13883 0.0
N851 N 0.04627 0.37246 0.08168 0.0
C852 C 0.03648 0.36107 0.12526 0.0
C853 C 0.03616 0.37102 0.09574 0.0
N854 N 0.06161 0.4463 0.12758 0.0
N855 N 0.96965 0.28806 0.09439 0.0
H856 H 0.07227 0.40318 0.07641 0.0
H857 H 0.03286 0.34103 0.07555 0.0
H858 H 0.94408 0.25513 0.09893 0.0
H859 H 0.96211 0.29246 0.08398 0.0
H860 H 0.05392 0.44275 0.13835 0.0
H861 H 0.07039 0.48011 0.12345 0.0
H862 H 0.07188 0.38925 0.14474 0.0
H863 H 0.04222 0.32644 0.14377 0.0
C864 C 0.64947 0.65405 0.11849 0.0
C865 C 0.64382 0.65559 0.10369 0.0
C866 C 0.73252 0.69126 0.10156 0.0
C867 C 0.73869 0.70247 0.11618 0.0
N868 N 0.69795 0.69907 0.13841 0.0
N869 N 0.68553 0.68644 0.0812 0.0
C870 C 0.69589 0.68467 0.12471 0.0
C871 C 0.68672 0.67656 0.09514 0.0
N872 N 0.6108 0.62312 0.12666 0.0
N873 N 0.77014 0.6943 0.09373 0.0
H874 H 0.65477 0.68181 0.07598 0.0
H875 H 0.71716 0.70541 0.07518 0.0
H876 H 0.80308 0.70161 0.09825 0.0
H877 H 0.76605 0.68321 0.08322 0.0
H878 H 0.61425 0.61833 0.13738 0.0
H879 H 0.57719 0.59789 0.12237 0.0
H880 H 0.66668 0.68986 0.14429 0.0
H881 H 0.72952 0.72435 0.1435 0.0
C882 C 0.99039 0.32796 0.45013 0.0
C883 C 1.01127 0.37866 0.44781 0.0
C884 C 0.08096 0.38015 0.43578 0.0
C885 C 0.05782 0.32877 0.43707 0.0
N886 N 0.98476 0.25279 0.44241 0.0
N887 N 0.07357 0.45273 0.43729 0.0
C888 C 1.01114 0.30242 0.44351 0.0
C889 C 0.0558 0.40473 0.44028 0.0
N890 N 0.95026 0.3038 0.4586 0.0
N891 N 0.12743 0.40544 0.43065 0.0
H892 H 0.05692 0.47192 0.44092 0.0
H893 H 0.10296 0.47276 0.43058 0.0
H894 H 0.1466 0.38842 0.42732 0.0
H895 H 0.14829 0.44322 0.43066 0.0
H896 H 0.93738 0.26839 0.4621 0.0
H897 H 0.93185 0.32002 0.46308 0.0
H898 H 0.94837 0.23216 0.44542 0.0
H899 H 0.99709 0.23224 0.4371 0.0
C900 C 0.64441 0.6639 0.44648 0.0
C901 C 0.66818 0.63618 0.44541 0.0
C902 C 0.73456 0.70191 0.4319 0.0
C903 C 0.7131 0.73138 0.43401 0.0
N904 N 0.65052 0.74315 0.44443 0.0
N905 N 0.74159 0.63384 0.44009 0.0
C906 C 0.66881 0.71315 0.44165 0.0
C907 C 0.71464 0.6564 0.43884 0.0
N908 N 0.59809 0.64267 0.45173 0.0
N909 N 0.77443 0.71749 0.42333 0.0
H910 H 0.72983 0.60158 0.44563 0.0
H911 H 0.77789 0.64968 0.43697 0.0
H912 H 0.79217 0.7516 0.41858 0.0
H913 H 0.7877 0.69503 0.42001 0.0
H914 H 0.57677 0.65908 0.45158 0.0
H915 H 0.5795 0.60685 0.45533 0.0
H916 H 0.62131 0.7341 0.4512 0.0
H917 H 0.66655 0.77856 0.44055 0.0
C918 C 0.39004 0.06568 0.43867 0.0
C919 C 0.41054 0.03986 0.44519 0.0
C920 C 0.33297 0.96328 0.44186 0.0
C921 C 0.31444 0.98886 0.43425 0.0
N922 N 0.32817 0.0633 0.42334 0.0
N923 N 0.40402 0.96362 0.45163 0.0
C924 C 0.34405 0.03961 0.43193 0.0
C925 C 0.38262 0.98843 0.44645 0.0
N926 N 0.41281 0.11527 0.43978 0.0
N927 N 0.30289 0.91521 0.44486 0.0
H928 H 0.44014 0.98103 0.45502 0.0
H929 H 0.38739 0.92588 0.4516 0.0
H930 H 0.26715 0.89563 0.44117 0.0
H931 H 0.31225 0.8955 0.45162 0.0
H932 H 0.39685 0.13549 0.43668 0.0
H933 H 0.44538 0.13613 0.4452 0.0
H934 H 0.35063 0.09883 0.41988 0.0
H935 H 0.29382 0.04653 0.41869 0.0
C936 C 0.68885 0.99781 0.92786 0.0
C937 C 0.70987 0.97599 0.93631 0.0
C938 C 0.68617 1.00369 0.95757 0.0
C939 C 0.66414 0.02449 0.94909 0.0
N940 N 0.62522 1.01847 0.92678 0.0
N941 N 0.70632 0.93977 0.95891 0.0
C942 C 0.65892 1.01374 0.93445 0.0
C943 C 0.70106 0.97277 0.95107 0.0
N944 N 0.69942 1.00701 0.91385 0.0
N945 N 0.69618 1.01499 0.97152 0.0
H946 H 0.71395 0.91438 0.95434 0.0
H947 H 0.69674 0.93358 0.96954 0.0
H948 H 0.68805 0.03804 0.97715 0.0
H949 H 0.71707 1.00432 0.97733 0.0
H950 H 0.68807 0.02719 0.90798 0.0
H951 H 0.72323 0.99968 0.9083 0.0
H952 H 0.6178 1.00771 0.91625 0.0
H953 H 0.60054 0.02694 0.93146 0.0
C954 C 0.06357 0.66431 0.94174 0.0
C955 C 1.01919 0.64536 0.94935 0.0
C956 C 1.02374 0.72482 0.94821 0.0
C957 C 0.06574 0.74274 0.9394 0.0
N958 N 0.1251 0.72955 0.92732 0.0
N959 N 0.95269 0.65486 0.95796 0.0
C960 C 0.08553 0.71241 0.93605 0.0
C961 C 0.99851 0.67508 0.95226 0.0
N962 N 0.08512 0.63655 0.94026 0.0
N963 N 1.00688 0.75484 0.95255 0.0
H964 H 0.93236 0.61869 0.96111 0.0
H965 H 0.93264 0.6726 0.95849 0.0
H966 H 1.0197 0.78978 0.94876 0.0
H967 H 0.98165 0.74605 0.96066 0.0
H968 H 0.11964 0.6492 0.93598 0.0
H969 H 0.06967 0.60138 0.94429 0.0
H970 H 0.1381 0.70798 0.92307 0.0
H971 H 0.14414 0.76549 0.92385 0.0
C972 C 0.37063 0.36436 0.95277 0.0
C973 C 0.41348 0.38719 0.94423 0.0
C974 C 0.36185 0.36183 0.92312 0.0
C975 C 0.31899 0.34123 0.93167 0.0
N976 N 0.28619 0.3433 0.9545 0.0
N977 N 0.44652 0.42478 0.92174 0.0
C978 C 0.32461 0.34943 0.94645 0.0
C979 C 0.40793 0.39176 0.92956 0.0
N980 N 0.37226 0.35325 0.96657 0.0
N981 N 0.36017 0.35056 0.90915 0.0
H982 H 0.47995 0.44931 0.92628 0.0
H983 H 0.44317 0.43178 0.9112 0.0
H984 H 0.32878 0.32603 0.90382 0.0
H985 H 0.39159 0.3617 0.90314 0.0
H986 H 0.34081 0.33243 0.97251 0.0
H987 H 0.40363 0.35957 0.97177 0.0
H988 H 0.28964 0.35233 0.96518 0.0
H989 H 0.25288 0.33539 0.95011 0.0
C990 C 1.01574 0.67696 0.62195 0.0
C991 C 0.99338 0.69715 0.61339 0.0
C992 C 1.01894 0.67082 0.59227 0.0
C993 C 0.03987 0.64916 0.60082 0.0
N994 N 0.03699 0.61387 0.62353 0.0
N995 N 0.95554 0.69178 0.59093 0.0
C996 C 0.03106 0.64621 0.61557 0.0
C997 C 0.98877 0.68668 0.59873 0.0
N998 N 1.02596 0.68909 0.63585 0.0
N999 N 1.03002 0.68013 0.57829 0.0
H1000 H 0.93094 0.70057 0.5955 0.0
H1001 H 0.94846 0.68116 0.58039 0.0
H1002 H 0.05425 0.67306 0.57286 0.0
H1003 H 1.01877 0.70022 0.57233 0.0
H1004 H 0.04675 0.67861 0.64178 0.0
H1005 H 1.01853 0.71313 0.64123 0.0
H1006 H 1.02751 0.60794 0.63417 0.0
H1007 H 0.04523 0.58878 0.61906 0.0
C1008 C 0.32751 0.34292 0.61761 0.0
C1009 C 0.34847 0.31293 0.61569 0.0
C1010 C 0.41802 0.37977 0.60329 0.0
C1011 C 0.39476 0.408 0.60416 0.0
N1012 N 0.32179 0.41151 0.60919 0.0
N1013 N 0.41086 0.30014 0.6056 0.0
C1014 C 0.34817 0.38841 0.61062 0.0
C1015 C 0.39298 0.3306 0.60819 0.0
N1016 N 0.2873 0.32781 0.62601 0.0
N1017 N 0.46446 0.40044 0.59816 0.0
H1018 H 0.39442 0.26481 0.60957 0.0
H1019 H 0.44019 0.30875 0.59893 0.0
H1020 H 0.48351 0.43619 0.59452 0.0
H1021 H 0.48542 0.38365 0.59846 0.0
H1022 H 0.27437 0.35067 0.62923 0.0
H1023 H 0.26883 0.29365 0.63071 0.0
H1024 H 0.28543 0.39612 0.6122 0.0
H1025 H 0.33411 0.44379 0.60362 0.0
C1026 C 0.71303 0.99961 0.6146 0.0
C1027 C 0.74357 0.05023 0.61223 0.0
C1028 C 0.67654 0.05216 0.5998 0.0
C1029 C 0.64773 1.00083 0.60108 0.0
N1030 N 0.64332 0.92462 0.60679 0.0
N1031 N 0.7569 0.12443 0.60153 0.0
C1032 C 0.66708 0.97428 0.6078 0.0
C1033 C 0.72603 0.07648 0.60451 0.0
N1034 N 0.72807 0.97527 0.62322 0.0
N1035 N 0.65613 0.07767 0.59444 0.0
H1036 H 0.79248 0.14353 0.60537 0.0
H1037 H 0.74833 0.14452 0.59469 0.0
H1038 H 0.62014 0.06083 0.59095 0.0
H1039 H 0.67341 0.11546 0.59443 0.0
H1040 H 0.70492 0.94 0.62677 0.0
H1041 H 0.76255 0.99118 0.62777 0.0
H1042 H 0.65846 0.90376 0.61001 0.0
H1043 H 0.61068 0.90417 0.60138 0.0
C1044 C 0.74882 0.70234 0.77965 0.0
C1045 C 0.72351 0.6622 0.77036 0.0
C1046 C 0.64929 0.66736 0.77336 0.0
C1047 C 0.67556 0.71034 0.78156 0.0
N1048 N 0.75184 0.77243 0.79118 0.0
N1049 N 0.65174 0.61171 0.75641 0.0
C1050 C 0.72582 0.72884 0.78438 0.0
C1051 C 0.6746 0.6467 0.76652 0.0
N1052 N 0.7946 0.7148 0.78403 0.0
N1053 N 0.59946 0.64381 0.77294 0.0
H1054 H 0.66729 0.59317 0.75163 0.0
H1055 H 0.61854 0.60365 0.75195 0.0
H1056 H 0.57871 0.65565 0.77838 0.0
H1057 H 0.57822 0.60942 0.76851 0.0
H1058 H 0.81318 0.74018 0.79195 0.0
H1059 H 0.81299 0.69747 0.78027 0.0
H1060 H 0.7895 0.79038 0.7924 0.0
H1061 H 0.73613 0.79267 0.79464 0.0
C1062 C 0.36771 0.03996 0.76532 0.0
C1063 C 0.38997 0.08266 0.77391 0.0
C1064 C 0.36663 0.03062 0.7949 0.0
C1065 C 0.34155 0.98807 0.78632 0.0
N1066 N 0.30219 0.95653 0.76392 0.0
N1067 N 0.39171 0.11592 0.79697 0.0
C1068 C 0.33661 0.99422 0.77173 0.0
C1069 C 0.38307 0.07709 0.78873 0.0
N1070 N 0.37864 0.04136 0.75132 0.0
N1071 N 0.37839 0.0281 0.80859 0.0
H1072 H 0.40082 0.14969 0.79273 0.0
H1073 H 0.38364 0.11266 0.80771 0.0
H1074 H 0.37103 0.99621 0.81363 0.0
H1075 H 0.40071 0.05907 0.81453 0.0
H1076 H 0.36592 1.0099 0.74524 0.0
H1077 H 0.40474 0.0722 0.74611 0.0
H1078 H 0.2951 0.96054 0.75343 0.0
H1079 H 0.27684 0.92346 0.76843 0.0
C1080 C 1.01725 0.34792 0.75893 0.0
C1081 C 0.97505 0.32743 0.76777 0.0
C1082 C 1.02863 0.35659 0.78846 0.0
C1083 C 0.0707 0.37398 0.77964 0.0
N1084 N 0.10067 0.36592 0.75694 0.0
N1085 N 0.94352 0.29571 0.79091 0.0
C1086 C 0.06352 0.36273 0.76504 0.0
C1087 C 0.98172 0.32614 0.78252 0.0
N1088 N 1.01492 0.35724 0.745 0.0
N1089 N 0.03193 0.37138 0.80215 0.0
H1090 H 0.90948 0.2707 0.78682 0.0
H1091 H 0.94765 0.29109 0.8016 0.0
H1092 H 0.06403 0.39678 0.807 0.0
H1093 H 1.00122 0.36248 0.80828 0.0
H1094 H 0.04604 0.37602 0.73877 0.0
H1095 H 0.9837 0.35221 0.73998 0.0
H1096 H 0.09588 0.35469 0.74644 0.0
H1097 H 0.13405 0.37364 0.76123 0.0
C1098 C 0.41203 0.36573 0.28186 0.0
C1099 C 0.38558 0.31951 0.27517 0.0
C1100 C 0.3096 0.3217 0.27857 0.0
C1101 C 0.33579 0.36597 0.28621 0.0
N1102 N 0.41095 0.42638 0.29709 0.0
N1103 N 0.30869 0.25044 0.26862 0.0
C1104 C 0.38654 0.38642 0.28859 0.0
C1105 C 0.33412 0.29661 0.27391 0.0
N1106 N 0.46176 0.39204 0.28084 0.0
N1107 N 0.26148 0.30405 0.27563 0.0
H1108 H 0.32568 0.23134 0.2652 0.0
H1109 H 0.27084 0.22968 0.2686 0.0
H1110 H 0.24221 0.3204 0.27943 0.0
H1111 H 0.24137 0.27499 0.26883 0.0
H1112 H 0.48247 0.42826 0.28396 0.0
H1113 H 0.48245 0.37992 0.27552 0.0
H1114 H 0.4462 0.43868 0.30072 0.0
H1115 H 0.39522 0.44544 0.30143 0.0
C1116 C 0.72032 0.99159 0.27357 0.0
C1117 C 0.67379 0.97161 0.28004 0.0
C1118 C 0.6726 0.04687 0.2753 0.0
C1119 C 0.72093 0.06867 0.26994 0.0
N1120 N 0.79318 0.06412 0.26529 0.0
N1121 N 0.60898 0.98282 0.28924 0.0
C1122 C 0.74548 0.0416 0.2694 0.0
C1123 C 0.65116 1.00019 0.28162 0.0
N1124 N 0.73999 0.96253 0.27124 0.0
N1125 N 0.64574 0.06931 0.27351 0.0
H1126 H 0.5908 0.94814 0.29364 0.0
H1127 H 0.5941 1.00425 0.2922 0.0
H1128 H 0.65895 0.10268 0.26847 0.0
H1129 H 0.60859 0.0526 0.27568 0.0
H1130 H 0.77132 0.97304 0.26529 0.0
H1131 H 0.7231 0.92646 0.27461 0.0
H1132 H 0.81479 0.0481 0.26591 0.0
H1133 H 0.81233 0.10047 0.26218 0.0
C1134 C 0.98788 0.68971 0.28137 0.0
C1135 C 0.98247 0.67775 0.26682 0.0
C1136 C 0.07166 0.72546 0.26484 0.0
C1137 C 0.0765 0.72361 0.27967 0.0
N1138 N 0.03373 0.69751 0.30227 0.0
N1139 N 1.02374 0.68177 0.24468 0.0
C1140 C 0.03331 0.70473 0.2881 0.0
C1141 C 1.02549 0.69553 0.25842 0.0
N1142 N 0.94975 0.68715 0.28882 0.0
N1143 N 0.11109 0.75595 0.25685 0.0
H1144 H 0.99207 0.6578 0.23937 0.0
H1145 H 0.05509 0.69056 0.23889 0.0
H1146 H 0.14462 0.78049 0.26133 0.0
H1147 H 0.10852 0.76113 0.24611 0.0
H1148 H 0.95311 0.69918 0.29922 0.0
H1149 H 0.91695 0.67908 0.28403 0.0
H1150 H 1.00174 0.67868 0.30814 0.0
H1151 H 0.06439 0.70571 0.30814 0.0
C1152 C 0.11198 0.14872 0.12951 0.0
C1153 C 0.11865 0.18807 0.13831 0.0
C1154 C 0.20247 0.20726 0.14305 0.0
C1155 C 0.19531 0.16803 0.13422 0.0
N1156 N 0.15018 0.11363 0.11529 0.0
N1157 N 0.17355 0.26145 0.15083 0.0
C1158 C 0.15262 0.1435 0.12603 0.0
C1159 C 0.1651 0.21964 0.14424 0.0
N1160 N 0.06625 0.11357 0.12552 0.0
N1161 N 0.24449 0.23135 0.15065 0.0
H1162 H 0.1469 0.27138 0.15177 0.0
H1163 H 0.20776 0.28802 0.15435 0.0
H1164 H 0.27335 0.22485 0.14912 0.0
H1165 H 0.2501 0.25629 0.1586 0.0
H1166 H 0.05923 0.08173 0.12034 0.0
H1167 H 0.03458 0.11298 0.1288 0.0
H1168 H 0.12114 0.09771 0.10824 0.0
H1169 H 0.17956 0.10926 0.1125 0.0
C1170 C 0.85181 1.00757 0.14316 0.0
C1171 C 0.89105 0.03827 0.13414 0.0
C1172 C 0.90866 0.97293 0.12994 0.0
C1173 C 0.86876 0.94127 0.13873 0.0
N1174 N 0.79601 0.92531 0.15124 0.0
N1175 N 0.94504 0.04492 0.11534 0.0
C1176 C 0.83813 0.95756 0.14456 0.0
C1177 C 0.91483 1.01875 0.12615 0.0
N1178 N 0.8289 0.02694 0.15073 0.0
N1179 N 0.9435 0.96152 0.12626 0.0
H1180 H 0.95031 0.07877 0.11237 0.0
H1181 H 0.96042 0.03072 0.10844 0.0
H1182 H 0.94362 0.93068 0.12988 0.0
H1183 H 0.97564 0.98567 0.12108 0.0
H1184 H 0.80391 1.00848 0.15874 0.0
H1185 H 0.83661 0.06264 0.14919 0.0
H1186 H 0.77007 0.93399 0.15468 0.0
H1187 H 0.78518 0.88861 0.15234 0.0
C1188 C 0.03883 0.90924 0.12779 0.0
C1189 C 1.01899 0.86648 0.13596 0.0
C1190 C 0.09903 0.89641 0.1472 0.0
C1191 C 0.11546 0.94269 0.14102 0.0
N1192 N 0.09614 0.99534 0.12748 0.0
N1193 N 1.0297 0.81743 0.15315 0.0
C1194 C 0.08435 0.94958 0.13169 0.0
C1195 C 0.04928 0.8593 0.14548 0.0
N1196 N 1.01345 0.91197 0.11659 0.0
N1197 N 0.13098 0.88783 0.15449 0.0
H1198 H 0.99444 0.78872 0.15131 0.0
H1199 H 0.04753 0.81184 0.16149 0.0
H1200 H 0.16745 0.91433 0.15588 0.0
H1201 H 0.12243 0.85368 0.15822 0.0
H1202 H 1.02806 0.94098 0.10954 0.0
H1203 H 0.97998 0.88289 0.11346 0.0
H1204 H 0.07234 1.00264 0.12188 0.0
H1205 H 0.12704 0.02677 0.13095 0.0
C1206 C 0.21384 0.17401 0.40664 0.0
C1207 C 0.17673 0.17047 0.4158 0.0
C1208 C 0.15197 0.08606 0.42084 0.0
C1209 C 0.19005 0.08944 0.41205 0.0
N1210 N 0.26413 0.14011 0.39916 0.0
N1211 N 0.12238 0.12901 0.43514 0.0
C1212 C 0.22332 0.13463 0.40575 0.0
C1213 C 0.15047 0.1287 0.42424 0.0
N1214 N 0.23887 0.21452 0.39851 0.0
N1215 N 0.11449 0.04168 0.42491 0.0
H1216 H 0.12039 0.15975 0.43789 0.0
H1217 H 0.10547 0.10055 0.44232 0.0
H1218 H 0.11087 1.0088 0.42153 0.0
H1219 H 0.08366 0.03731 0.43017 0.0
H1220 H 0.26225 0.2173 0.39037 0.0
H1221 H 0.23451 0.24481 0.39969 0.0
H1222 H 0.2918 0.17334 0.39541 0.0
H1223 H 0.27225 0.11215 0.39854 0.0
C1224 C 0.90794 0.09336 0.40636 0.0
C1225 C 0.95328 0.10532 0.41259 0.0
C1226 C 0.91369 0.02667 0.42472 0.0
C1227 C 0.87186 1.01098 0.41628 0.0
N1228 N 0.828 0.0288 0.39897 0.0
N1229 N 1.00094 0.07721 0.42519 0.0
C1230 C 0.86844 0.04445 0.40717 0.0
C1231 C 0.95656 0.07064 0.42128 0.0
N1232 N 0.9024 0.12862 0.39993 0.0
N1233 N 0.9133 0.99853 0.4356 0.0
H1234 H 0.03392 0.10602 0.42165 0.0
H1235 H 1.00508 0.05073 0.43041 0.0
H1236 H 0.88237 0.96598 0.43838 0.0
H1237 H 0.94192 1.01024 0.44276 0.0
H1238 H 0.86905 0.12294 0.39625 0.0
H1239 H 0.93037 0.16477 0.3994 0.0
H1240 H 0.82536 0.0494 0.39088 0.0
H1241 H 0.79771 0.99402 0.40002 0.0
C1242 C 0.99955 0.82877 0.40832 0.0
C1243 C 0.03326 0.86651 0.41726 0.0
C1244 C 0.97398 0.89241 0.42181 0.0
C1245 C 0.9394 0.85417 0.41307 0.0
N1246 N 0.91537 0.77889 0.40081 0.0
N1247 N 0.04616 0.92213 0.43624 0.0
C1248 C 0.9509 0.81994 0.4072 0.0
C1249 C 1.01785 0.89359 0.42543 0.0
N1250 N 1.01479 0.80256 0.40059 0.0
N1251 N 0.96732 0.93024 0.42563 0.0
H1252 H 0.07858 0.92371 0.43912 0.0
H1253 H 0.03473 0.9398 0.44324 0.0
H1254 H 0.93829 0.93396 0.42211 0.0
H1255 H 0.99375 0.96113 0.43085 0.0
H1256 H 0.99424 0.77854 0.39258 0.0
H1257 H 0.04921 0.80649 0.402 0.0
H1258 H 0.92055 0.75063 0.39738 0.0
H1259 H 0.8794 0.77121 0.40004 0.0
C1260 C 0.90344 0.86886 0.92938 0.0
C1261 C 0.87184 0.85923 0.91775 0.0
C1262 C 0.90344 0.81036 0.9066 0.0
C1263 C 0.94016 0.82719 0.91711 0.0
N1264 N 0.95249 0.84309 0.94205 0.0
N1265 N 0.83 0.80807 0.89791 0.0
C1266 C 0.93281 0.84689 0.9297 0.0
C1267 C 0.86791 0.82545 0.90721 0.0
N1268 N 0.90847 0.9015 0.93958 0.0
N1269 N 0.90218 0.77953 0.89634 0.0
H1270 H 0.80287 0.81742 0.89866 0.0
H1271 H 0.82324 0.78227 0.89015 0.0
H1272 H 0.92196 0.76153 0.89718 0.0
H1273 H 0.88041 0.77005 0.8874 0.0
H1274 H 0.93565 0.91386 0.94723 0.0
H1275 H 0.88797 0.91875 0.93993 0.0
H1276 H 0.94546 0.85396 0.95174 0.0
H1277 H 0.96974 0.82259 0.94278 0.0
C1278 C 0.13706 0.02677 0.91613 0.0
C1279 C 0.16503 1.00872 0.90966 0.0
C1280 C 0.21974 0.08958 0.89965 0.0
C1281 C 0.18778 0.10548 0.90463 0.0
N1282 N 0.10984 0.08514 0.91489 0.0
N1283 N 0.23172 0.02096 0.89479 0.0
C1284 C 0.14493 0.07308 0.91223 0.0
C1285 C 0.20631 0.0397 0.90133 0.0
N1286 N 0.10227 0.99914 0.92586 0.0
N1287 N 0.26301 0.12222 0.89357 0.0
H1288 H 0.22415 0.98543 0.89654 0.0
H1289 H 0.25873 0.03973 0.88728 0.0
H1290 H 0.2732 0.15862 0.89207 0.0
H1291 H 0.29 0.11413 0.89087 0.0
H1292 H 0.08391 1.01228 0.93194 0.0
H1293 H 0.09534 0.96471 0.92889 0.0
H1294 H 0.07569 0.06073 0.919 0.0
H1295 H 0.11234 0.1175 0.91154 0.0
C1296 C 1.0244 0.13389 0.92338 0.0
C1297 C 0.03959 0.17417 0.91432 0.0
C1298 C 0.95688 0.13565 0.90434 0.0
C1299 C 0.9456 0.0916 0.91119 0.0
N1300 N 0.97297 0.047 0.92557 0.0
N1301 N 1.02021 0.21562 0.89663 0.0
C1302 C 0.9802 0.09034 0.92046 0.0
C1303 C 1.00541 0.17592 0.90507 0.0
N1304 N 0.05282 0.13654 0.93451 0.0
N1305 N 0.92121 0.13915 0.89735 0.0
H1306 H 0.05455 0.24661 0.89768 0.0
H1307 H 0.99943 0.21719 0.8884 0.0
H1308 H 0.88539 0.11039 0.89676 0.0
H1309 H 0.92602 0.1715 0.89316 0.0
H1310 H 0.04152 0.10938 0.9421 0.0
H1311 H 0.08493 0.16818 0.93712 0.0
H1312 H 0.99913 0.04376 0.93131 0.0
H1313 H 0.94341 1.01336 0.92281 0.0
C1314 C 0.83649 0.90225 0.6374 0.0
C1315 C 0.87041 0.94826 0.63168 0.0
C1316 C 0.91369 0.91144 0.62024 0.0
C1317 C 0.88679 0.8691 0.62841 0.0
N1318 N 0.821 0.82221 0.64442 0.0
N1319 N 0.9475 0.99823 0.61972 0.0
C1320 C 0.84715 0.86368 0.63674 0.0
C1321 C 0.91027 0.95322 0.62342 0.0
N1322 N 0.79409 0.89536 0.64325 0.0
N1323 N 0.9441 0.91247 0.60986 0.0
H1324 H 0.94947 0.03059 0.62288 0.0
H1325 H 0.97952 1.00374 0.61495 0.0
H1326 H 0.94722 0.88225 0.60726 0.0
H1327 H 0.9618 0.94137 0.60285 0.0
H1328 H 0.7661 0.86158 0.64655 0.0
H1329 H 0.78517 0.92279 0.64367 0.0
H1330 H 0.79548 0.81795 0.65205 0.0
H1331 H 0.82647 0.79257 0.64337 0.0
C1332 C 0.14953 1.01518 0.62398 0.0
C1333 C 0.1903 0.03279 0.63297 0.0
C1334 C 0.15531 0.95167 0.64369 0.0
C1335 C 0.11068 0.93761 0.6367 0.0
N1336 N 0.06299 0.96077 0.62211 0.0
N1337 N 0.23409 1.01835 0.65108 0.0
C1338 C 0.10729 0.97028 0.62716 0.0
C1339 C 0.19405 1.00085 0.64262 0.0
N1340 N 0.15039 0.04235 0.61276 0.0
N1341 N 0.16072 0.91808 0.65117 0.0
H1342 H 0.26402 0.05316 0.64972 0.0
H1343 H 0.23698 0.99924 0.65955 0.0
H1344 H 0.13299 0.88191 0.65205 0.0
H1345 H 0.19366 0.92498 0.65554 0.0
H1346 H 0.12298 0.02946 0.60518 0.0
H1347 H 0.18092 0.07555 0.6102 0.0
H1348 H 0.05816 0.98586 0.61635 0.0
H1349 H 1.03011 0.93048 0.62503 0.0
C1350 C 0.1054 0.22123 0.64 0.0
C1351 C 0.11865 0.18843 0.63401 0.0
C1352 C 0.0418 0.14908 0.62087 0.0
C1353 C 1.02444 0.17412 0.62919 0.0
N1354 N 0.03924 0.23533 0.64648 0.0
N1355 N 0.09384 0.11416 0.62071 0.0
C1356 C 0.05646 0.21119 0.63857 0.0
C1357 C 0.08576 0.15093 0.62475 0.0
N1358 N 0.13953 0.262 0.64684 0.0
N1359 N 1.01502 0.12151 0.60971 0.0
H1360 H 0.12278 0.11058 0.62439 0.0
H1361 H 0.06846 0.08371 0.6151 0.0
H1362 H 0.98246 0.11942 0.60669 0.0
H1363 H 1.02782 0.10529 0.60263 0.0
H1364 H 0.13302 0.28924 0.65043 0.0
H1365 H 0.17576 0.27064 0.6478 0.0
H1366 H 0.05858 0.25864 0.65476 0.0
H1367 H 1.00436 0.2302 0.64498 0.0
C1368 C 0.81821 0.54859 0.47563 0.0
C1369 C 0.77245 0.51544 0.46956 0.0
C1370 C 0.81061 0.47506 0.45718 0.0
C1371 C 0.85289 0.50109 0.46548 0.0
N1372 N 0.89836 0.56358 0.48254 0.0
N1373 N 0.72347 0.43977 0.45688 0.0
C1374 C 0.8573 0.53862 0.47459 0.0
C1375 C 0.76826 0.47707 0.46076 0.0
N1376 N 0.82452 0.58973 0.48216 0.0
N1377 N 0.81013 0.4467 0.44626 0.0
H1378 H 0.69082 0.43644 0.46042 0.0
H1379 H 0.71858 0.40879 0.45161 0.0
H1380 H 0.84066 0.44446 0.44337 0.0
H1381 H 0.78124 0.42989 0.43919 0.0
H1382 H 0.85815 0.61728 0.48574 0.0
H1383 H 0.79682 0.59826 0.48288 0.0
H1384 H 0.90184 0.5873 0.49065 0.0
H1385 H 0.92842 0.55885 0.48123 0.0
C1386 C 0.49982 0.27771 0.47618 0.0
C1387 C 0.53256 0.26513 0.46977 0.0
C1388 C 0.57318 0.34407 0.4578 0.0
C1389 C 0.54759 0.36016 0.4664 0.0
N1390 N 0.48584 0.34293 0.48379 0.0
N1391 N 0.60807 0.29212 0.4569 0.0
C1392 C 0.51021 0.32688 0.4755 0.0
C1393 C 0.57092 0.29954 0.46103 0.0
N1394 N 0.4587 0.24277 0.48269 0.0
N1395 N 0.60144 0.37229 0.44695 0.0
H1396 H 0.61134 0.26269 0.46022 0.0
H1397 H 0.63907 0.31837 0.45168 0.0
H1398 H 0.60397 0.40528 0.44432 0.0
H1399 H 0.61789 0.36034 0.43967 0.0
H1400 H 0.43144 0.2489 0.48653 0.0
H1401 H 0.44985 0.20645 0.48314 0.0
H1402 H 0.46233 0.32246 0.4919 0.0
H1403 H 0.49092 0.37789 0.48279 0.0
C1404 C 0.77098 0.23145 0.47525 0.0
C1405 C 0.78364 0.27694 0.4691 0.0
C1406 C 0.70464 0.23883 0.45706 0.0
C1407 C 0.68846 0.19689 0.46544 0.0
N1408 N 0.7056 0.15178 0.48245 0.0
N1409 N 0.75704 0.32573 0.45646 0.0
C1410 C 0.72174 0.19255 0.47441 0.0
C1411 C 0.74932 0.28106 0.46042 0.0
N1412 N 0.80594 0.22524 0.48166 0.0
N1413 N 0.67635 0.23911 0.4463 0.0
H1414 H 0.78672 0.35836 0.45983 0.0
H1415 H 0.73087 0.33063 0.4513 0.0
H1416 H 0.64325 0.20865 0.4436 0.0
H1417 H 0.6883 0.26769 0.43915 0.0
H1418 H 0.7998 0.19177 0.48531 0.0
H1419 H 0.8423 0.25284 0.48223 0.0
H1420 H 0.72603 0.14844 0.49047 0.0
H1421 H 0.67059 0.12186 0.48131 0.0
C1422 C 0.88132 0.51541 0.74509 0.0
C1423 C 0.83401 0.50356 0.74056 0.0
C1424 C 0.82589 0.43193 0.72826 0.0
C1425 C 0.86895 0.43864 0.73469 0.0
N1426 N 0.93708 0.48566 0.75004 0.0
N1427 N 0.75584 0.44098 0.73183 0.0
C1428 C 0.89665 0.48025 0.74335 0.0
C1429 C 0.80485 0.45923 0.7332 0.0
N1430 N 0.91183 0.5602 0.75069 0.0
N1431 N 0.80397 0.39864 0.7177 0.0
H1432 H 0.73758 0.45672 0.73673 0.0
H1433 H 0.7326 0.4069 0.72749 0.0
H1434 H 0.81799 0.37771 0.71362 0.0
H1435 H 0.77463 0.39579 0.71198 0.0
H1436 H 0.94826 0.57249 0.753 0.0
H1437 H 0.90159 0.58645 0.75202 0.0
H1438 H 0.95585 0.51212 0.75769 0.0
H1439 H 0.95044 0.462 0.74828 0.0
C1440 C 0.59578 0.36656 0.73638 0.0
C1441 C 0.55361 0.3506 0.74492 0.0
C1442 C 0.57913 0.43604 0.74989 0.0
C1443 C 0.61837 0.45113 0.74017 0.0
N1444 N 0.65396 0.42889 0.72101 0.0
N1445 N 0.50074 0.3705 0.75804 0.0
C1446 C 0.6229 0.41578 0.73225 0.0
C1447 C 0.54384 0.38545 0.7512 0.0
N1448 N 0.61234 0.33545 0.73304 0.0
N1449 N 0.57607 0.47002 0.75799 0.0
H1450 H 0.47441 0.33389 0.75911 0.0
H1451 H 0.48961 0.39437 0.76169 0.0
H1452 H 0.59966 0.50723 0.75664 0.0
H1453 H 0.55175 0.46121 0.76635 0.0
H1454 H 0.64507 0.34654 0.72776 0.0
H1455 H 0.59693 0.3004 0.73714 0.0
H1456 H 0.65483 0.40345 0.71422 0.0
H1457 H 0.6751 0.46459 0.71757 0.0
C1458 C 0.68638 0.24995 0.73342 0.0
C1459 C 0.70381 0.22345 0.74107 0.0
C1460 C 0.61901 0.16158 0.74628 0.0
C1461 C 0.60238 0.18647 0.73749 0.0
N1462 N 0.62197 0.24614 0.71914 0.0
N1463 N 0.68627 0.14942 0.75286 0.0
C1464 C 0.63662 0.22749 0.72975 0.0
C1465 C 0.66999 0.17773 0.74696 0.0
N1466 N 0.71671 0.29809 0.73052 0.0
N1467 N 0.58608 0.12302 0.7541 0.0
H1468 H 0.72319 0.16035 0.75347 0.0
H1469 H 0.66316 0.11383 0.75616 0.0
H1470 H 0.54856 0.10879 0.75312 0.0
H1471 H 0.59601 0.10668 0.7619 0.0
H1472 H 0.70468 0.31985 0.7259 0.0
H1473 H 0.75219 0.31775 0.73438 0.0
H1474 H 0.64655 0.27357 0.71248 0.0
H1475 H 0.58592 0.23102 0.71594 0.0
C1476 C 0.63759 0.23893 0.2396 0.0
C1477 C 0.62459 0.18975 0.24164 0.0
C1478 C 0.54045 0.16919 0.24713 0.0
C1479 C 0.55484 0.21913 0.24607 0.0
N1480 N 0.61992 0.30276 0.24483 0.0
N1481 N 0.56607 0.10886 0.2492 0.0
C1482 C 0.60433 0.25428 0.24341 0.0
C1483 C 0.57665 0.15499 0.24599 0.0
N1484 N 0.68166 0.27109 0.23376 0.0
N1485 N 0.49232 0.13547 0.24875 0.0
H1486 H 0.59142 0.09732 0.24794 0.0
H1487 H 0.53338 0.0831 0.25378 0.0
H1488 H 0.46558 0.14519 0.24991 0.0
H1489 H 0.4787 0.09812 0.24817 0.0
H1490 H 0.691 0.30612 0.23067 0.0
H1491 H 0.70717 0.26143 0.23065 0.0
H1492 H 0.65649 0.32978 0.24468 0.0
H1493 H 0.59672 0.31579 0.24756 0.0
C1494 C 0.80574 0.35898 0.25384 0.0
C1495 C 0.83667 0.34446 0.24731 0.0
C1496 C 0.88723 0.42719 0.23787 0.0
C1497 C 0.85234 0.43934 0.24277 0.0
N1498 N 0.77344 0.41356 0.25325 0.0
N1499 N 0.90596 0.36322 0.23272 0.0
C1500 C 0.8105 0.40454 0.25032 0.0
C1501 C 0.87748 0.37835 0.23929 0.0
N1502 N 0.77084 0.32861 0.26317 0.0
N1503 N 0.92988 0.46245 0.2321 0.0
H1504 H 0.90132 0.32867 0.23435 0.0
H1505 H 0.93268 0.38393 0.22532 0.0
H1506 H 0.93764 0.49823 0.23082 0.0
H1507 H 0.95885 0.45721 0.22951 0.0
H1508 H 0.75036 0.33905 0.26932 0.0
H1509 H 0.7656 0.29453 0.26583 0.0
H1510 H 0.73984 0.38753 0.2573 0.0
H1511 H 0.77394 0.44538 0.25031 0.0
C1512 C 0.68531 0.48129 0.26183 0.0
C1513 C 0.70179 0.51648 0.25109 0.0
C1514 C 0.61846 0.47719 0.24165 0.0
C1515 C 0.60613 0.43515 0.24983 0.0
N1516 N 0.63325 0.39699 0.26722 0.0
N1517 N 0.68328 0.55218 0.23159 0.0
C1518 C 0.64049 0.4373 0.26002 0.0
C1519 C 0.66779 0.51597 0.24134 0.0
N1520 N 0.71288 0.4891 0.27361 0.0
N1521 N 0.58301 0.4806 0.2345 0.0
H1522 H 0.71817 0.58269 0.23199 0.0
H1523 H 0.66235 0.5512 0.22302 0.0
H1524 H 0.54627 0.45405 0.23516 0.0
H1525 H 0.58918 0.51183 0.22921 0.0
H1526 H 0.70048 0.46606 0.28232 0.0
H1527 H 0.74502 0.52167 0.27547 0.0
H1528 H 0.66052 0.39644 0.27317 0.0
H1529 H 0.60283 0.36264 0.26637 0.0
C1530 C 0.58351 0.23931 0.95672 0.0
C1531 C 0.5599 0.19824 0.96554 0.0
C1532 C 0.50991 0.23043 0.9755 0.0
C1533 C 0.54052 0.27546 0.96874 0.0
N1534 N 0.61315 0.32525 0.95486 0.0
N1535 N 0.4992 0.15258 0.98304 0.0
C1536 C 0.57866 0.28043 0.95966 0.0
C1537 C 0.52208 0.1929 0.97472 0.0
N1538 N 0.61217 0.23985 0.94587 0.0
N1539 N 0.46925 0.22353 0.98251 0.0
H1540 H 0.50566 0.12356 0.98198 0.0
H1541 H 0.47546 0.14866 0.9912 0.0
H1542 H 0.45963 0.25043 0.98319 0.0
H1543 H 0.44319 0.19021 0.98666 0.0
H1544 H 0.62716 0.26745 0.93837 0.0
H1545 H 0.61644 0.21017 0.94346 0.0
H1546 H 0.6444 0.33133 0.94948 0.0
H1547 H 0.61396 0.35741 0.95762 0.0
C1548 C 0.82388 0.34409 0.95628 0.0
C1549 C 0.8651 0.36313 0.9651 0.0
C1550 C 0.8321 0.28311 0.97635 0.0
C1551 C 0.78673 0.26785 0.96965 0.0
N1552 N 0.73735 0.28912 0.9551 0.0
N1553 N 0.91066 0.35135 0.98323 0.0
C1554 C 0.78216 0.29933 0.95989 0.0
C1555 C 0.87017 0.33244 0.97492 0.0
N1556 N 0.8237 0.37005 0.94488 0.0
N1557 N 0.8388 0.25052 0.98394 0.0
H1558 H 0.93984 0.38658 0.98176 0.0
H1559 H 0.91452 0.33303 0.99175 0.0
H1560 H 0.81165 0.21419 0.98502 0.0
H1561 H 0.87226 0.25835 0.98813 0.0
H1562 H 0.79584 0.35616 0.93743 0.0
H1563 H 0.85388 0.40323 0.94209 0.0
H1564 H 0.73193 0.31348 0.94914 0.0
H1565 H 0.70476 0.25929 0.95841 0.0
C1566 C 0.77508 0.54864 0.97 0.0
C1567 C 0.78794 0.5148 0.96462 0.0
C1568 C 0.70924 0.47179 0.95245 0.0
C1569 C 0.6926 0.49832 0.96037 0.0
N1570 N 0.70947 0.56382 0.97629 0.0
N1571 N 0.76247 0.43818 0.95259 0.0
C1572 C 0.72582 0.53788 0.96888 0.0
C1573 C 0.75413 0.47519 0.95611 0.0
N1574 N 0.8099 0.59105 0.97599 0.0
N1575 N 0.68124 0.44173 0.94184 0.0
H1576 H 0.7925 0.43616 0.95607 0.0
H1577 H 0.7366 0.40635 0.94762 0.0
H1578 H 0.64823 0.43874 0.93889 0.0
H1579 H 0.69341 0.42427 0.93501 0.0
H1580 H 0.80362 0.61894 0.97906 0.0
H1581 H 0.84631 0.60014 0.97672 0.0
H1582 H 0.72982 0.58926 0.98403 0.0
H1583 H 0.67437 0.55821 0.97492 0.0
C1584 C 0.49358 0.88584 0.81663 0.0
C1585 C 0.44852 0.85688 0.80963 0.0
C1586 C 0.48498 0.81674 0.79624 0.0
C1587 C 0.52615 0.83835 0.80514 0.0
N1588 N 0.57109 0.89439 0.82373 0.0
N1589 N 0.39872 0.78667 0.79488 0.0
C1590 C 0.53108 0.87368 0.81523 0.0
C1591 C 0.44363 0.82058 0.79983 0.0
N1592 N 0.50072 0.92515 0.8244 0.0
N1593 N 0.48455 0.79083 0.78467 0.0
H1594 H 0.36638 0.78465 0.79818 0.0
H1595 H 0.39284 0.75671 0.78886 0.0
H1596 H 0.51432 0.78723 0.78178 0.0
H1597 H 0.45684 0.77756 0.77718 0.0
H1598 H 0.53417 0.95015 0.82877 0.0
H1599 H 0.47404 0.93497 0.82551 0.0
H1600 H 0.5746 0.91588 0.83246 0.0
H1601 H 0.60025 0.88841 0.82218 0.0
C1602 C 0.18352 0.67455 0.81027 0.0
C1603 C 0.22302 0.70736 0.80165 0.0
C1604 C 0.24169 0.6436 0.79597 0.0
C1605 C 0.2017 0.61 0.8044 0.0
N1606 N 0.12831 0.59065 0.8171 0.0
N1607 N 0.27819 0.71855 0.78269 0.0
C1608 C 0.17044 0.62454 0.81076 0.0
C1609 C 0.2476 0.68997 0.79312 0.0
N1610 N 0.15982 0.69189 0.81835 0.0
N1611 N 0.27676 0.6332 0.79174 0.0
H1612 H 0.28326 0.75279 0.78036 0.0
H1613 H 0.29413 0.70606 0.77541 0.0
H1614 H 0.27679 0.60161 0.79459 0.0
H1615 H 0.30903 0.65853 0.78684 0.0
H1616 H 0.13467 0.67168 0.82616 0.0
H1617 H 0.16702 0.72765 0.81747 0.0
H1618 H 0.10191 0.59816 0.82088 0.0
H1619 H 0.11797 0.55392 0.81756 0.0
C1620 C 0.4329 0.5646 0.80786 0.0
C1621 C 0.44785 0.61226 0.80298 0.0
C1622 C 0.3703 0.58036 0.79035 0.0
C1623 C 0.3517 0.53591 0.79762 0.0
N1624 N 0.36495 0.48398 0.81303 0.0
N1625 N 0.42515 0.66672 0.7919 0.0
C1626 C 0.38321 0.52735 0.80619 0.0
C1627 C 0.41537 0.62045 0.79464 0.0
N1628 N 0.46613 0.5548 0.81383 0.0
N1629 N 0.34402 0.58496 0.77972 0.0
H1630 H 0.45504 0.69763 0.79605 0.0
H1631 H 0.40036 0.6743 0.78701 0.0
H1632 H 0.31083 0.55607 0.77633 0.0
H1633 H 0.35777 0.61566 0.77333 0.0
H1634 H 0.45835 0.51989 0.81651 0.0
H1635 H 0.50277 0.58113 0.81497 0.0
H1636 H 0.38387 0.47714 0.82079 0.0
H1637 H 0.32976 0.4553 0.81112 0.0
C1638 C 0.55027 0.84264 0.08174 0.0
C1639 C 0.50424 0.83175 0.07631 0.0
C1640 C 0.4993 0.7626 0.06331 0.0
C1641 C 0.5407 0.76806 0.07052 0.0
N1642 N 0.60496 0.81213 0.08729 0.0
N1643 N 0.42876 0.77172 0.0655 0.0
C1644 C 0.56615 0.80795 0.07994 0.0
C1645 C 0.47713 0.78912 0.06804 0.0
N1646 N 0.57916 0.88619 0.08824 0.0
N1647 N 0.48006 0.73124 0.05219 0.0
H1648 H 0.40937 0.78682 0.07007 0.0
H1649 H 0.40664 0.73873 0.06043 0.0
H1650 H 0.49503 0.711 0.04824 0.0
H1651 H 0.45227 0.72948 0.04593 0.0
H1652 H 0.61494 0.89805 0.09125 0.0
H1653 H 0.56846 0.91206 0.08967 0.0
H1654 H 0.62175 0.83699 0.09546 0.0
H1655 H 0.61893 0.78898 0.08552 0.0
C1656 C 0.26852 0.6989 0.06792 0.0
C1657 C 0.22517 0.68248 0.07594 0.0
C1658 C 0.24906 0.76769 0.08064 0.0
C1659 C 0.28986 0.78322 0.0715 0.0
N1660 N 0.32841 0.76174 0.05301 0.0
N1661 N 0.16989 0.70151 0.08806 0.0
C1662 C 0.29583 0.74821 0.06388 0.0
C1663 C 0.21401 0.71696 0.08178 0.0
N1664 N 0.28583 0.66813 0.06501 0.0
N1665 N 0.24438 0.80143 0.08838 0.0
H1666 H 0.14378 0.66479 0.08901 0.0
H1667 H 0.15788 0.72505 0.09134 0.0
H1668 H 0.26784 0.83874 0.08709 0.0
H1669 H 0.21874 0.79239 0.09639 0.0
H1670 H 0.31931 0.67953 0.06015 0.0
H1671 H 0.27002 0.63299 0.06907 0.0
H1672 H 0.33061 0.73655 0.04643 0.0
H1673 H 0.34939 0.79747 0.04958 0.0
C1674 C 0.34016 0.50712 0.07952 0.0
C1675 C 0.37518 0.55332 0.07417 0.0
C1676 C 0.31012 0.55951 0.06222 0.0
C1677 C 0.27448 0.51779 0.06941 0.0
N1678 N 0.25513 0.45244 0.0856 0.0
N1679 N 0.39036 0.62945 0.06411 0.0
C1680 C 0.28943 0.49161 0.07826 0.0
C1681 C 0.35928 0.58107 0.06648 0.0
N1682 N 0.3551 0.47776 0.08546 0.0
N1683 N 0.29732 0.57967 0.05157 0.0
H1684 H 0.42529 0.64836 0.06839 0.0
H1685 H 0.37928 0.652 0.05951 0.0
H1686 H 0.26175 0.5653 0.04799 0.0
H1687 H 0.323 0.6077 0.04528 0.0
H1688 H 0.33122 0.4419 0.08837 0.0
H1689 H 0.39179 0.4882 0.08648 0.0
H1690 H 0.26367 0.43505 0.09342 0.0
H1691 H 0.21785 0.43875 0.08419 0.0
C1692 C 0.25476 0.57055 0.59086 0.0
C1693 C 0.21193 0.54326 0.58286 0.0
C1694 C 0.24603 0.49429 0.57339 0.0
C1695 C 0.29214 0.52836 0.57908 0.0
N1696 N 0.3419 0.60581 0.59081 0.0
N1697 N 0.16538 0.47811 0.5666 0.0
C1698 C 0.29687 0.56801 0.58735 0.0
C1699 C 0.20697 0.50435 0.57426 0.0
N1700 N 0.25595 0.60037 0.60144 0.0
N1701 N 0.23938 0.45224 0.56741 0.0
H1702 H 0.13535 0.48298 0.56778 0.0
H1703 H 0.16143 0.45317 0.55882 0.0
H1704 H 0.2671 0.44371 0.56682 0.0
H1705 H 0.20555 0.42411 0.56417 0.0
H1706 H 0.28533 0.61817 0.60831 0.0
H1707 H 0.22561 0.60291 0.60435 0.0
H1708 H 0.34712 0.63756 0.59565 0.0
H1709 H 0.37432 0.6085 0.58729 0.0
C1710 C 0.55345 0.71573 0.57252 0.0
C1711 C 0.51637 0.683 0.58179 0.0
C1712 C 0.49161 0.74302 0.58632 0.0
C1713 C 0.52963 0.77694 0.5774 0.0
N1714 N 0.60405 0.7993 0.56476 0.0
N1715 N 0.46265 0.67213 0.60115 0.0
C1716 C 0.56304 0.76453 0.57136 0.0
C1717 C 0.49039 0.69938 0.59009 0.0
N1718 N 0.5783 0.69947 0.56454 0.0
N1719 N 0.45382 0.74987 0.59013 0.0
H1720 H 0.46094 0.63982 0.60416 0.0
H1721 H 0.44585 0.68441 0.60821 0.0
H1722 H 0.44959 0.77824 0.58634 0.0
H1723 H 0.42322 0.72389 0.59556 0.0
H1724 H 0.60164 0.71938 0.55633 0.0
H1725 H 0.57378 0.66484 0.5659 0.0
H1726 H 0.63169 0.79332 0.56118 0.0
H1727 H 0.61245 0.83542 0.56401 0.0
C1728 C 0.33913 0.84799 0.56941 0.0
C1729 C 0.37165 0.84409 0.57883 0.0
C1730 C 0.30984 0.76065 0.5843 0.0
C1731 C 0.27628 0.76437 0.57519 0.0
N1732 N 0.25569 0.81474 0.56128 0.0
N1733 N 0.38241 0.8031 0.59856 0.0
C1734 C 0.28985 0.80917 0.56842 0.0
C1735 C 0.35472 0.8028 0.58754 0.0
N1736 N 0.35607 0.88831 0.56113 0.0
N1737 N 0.30108 0.71619 0.58887 0.0
H1738 H 0.41568 0.83347 0.60118 0.0
H1739 H 0.36988 0.77519 0.60595 0.0
H1740 H 0.27092 0.68346 0.58578 0.0
H1741 H 0.32674 0.71128 0.59432 0.0
H1742 H 0.33642 0.89138 0.55283 0.0
H1743 H 0.39097 0.91827 0.56242 0.0
H1744 H 0.26225 0.84776 0.55713 0.0
H1745 H 0.21947 0.78697 0.56046 0.0
C1746 C 0.1724 0.51663 0.31386 0.0
C1747 C 0.20368 0.51658 0.30315 0.0
C1748 C 0.21481 0.59307 0.29398 0.0
C1749 C 0.18477 0.59466 0.30505 0.0
N1750 N 0.12412 0.55093 0.32287 0.0
N1751 N 0.23728 0.54336 0.28 0.0
C1752 C 0.15997 0.55405 0.31416 0.0
C1753 C 0.21842 0.55065 0.29211 0.0
N1754 N 0.15572 0.48133 0.32393 0.0
N1755 N 0.24363 0.63315 0.28595 0.0
H1756 H 0.23977 0.51231 0.27824 0.0
H1757 H 0.24464 0.56498 0.27107 0.0
H1758 H 0.24517 0.66644 0.28689 0.0
H1759 H 0.27051 0.63512 0.27919 0.0
H1760 H 0.13771 0.482 0.33305 0.0
H1761 H 0.16137 0.45173 0.32315 0.0
H1762 H 0.10205 0.52056 0.32899 0.0
H1763 H 0.11343 0.57709 0.32298 0.0
C1764 C 0.52292 0.65795 0.30726 0.0
C1765 C 0.51732 0.69091 0.2985 0.0
C1766 C 0.43144 0.63036 0.29493 0.0
C1767 C 0.43685 0.59673 0.30352 0.0
N1768 N 0.49044 0.57447 0.31503 0.0
N1769 N 0.47089 0.7028 0.28052 0.0
C1770 C 0.48355 0.60924 0.3088 0.0
C1771 C 0.47331 0.67479 0.29101 0.0
N1772 N 0.56552 0.67394 0.31444 0.0
N1773 N 0.38601 0.62203 0.29147 0.0
H1774 H 0.50074 0.73568 0.27742 0.0
H1775 H 0.44091 0.69087 0.27389 0.0
H1776 H 0.35383 0.59231 0.29508 0.0
H1777 H 0.37994 0.64741 0.28633 0.0
H1778 H 0.57024 0.65401 0.32233 0.0
H1779 H 0.5957 0.70838 0.31275 0.0
H1780 H 0.52451 0.58021 0.31798 0.0
H1781 H 0.46251 0.53848 0.31611 0.0
C1782 C 0.43447 0.87317 0.30294 0.0
C1783 C 0.4482 0.83736 0.30485 0.0
C1784 C 0.36253 0.77279 0.30444 0.0
C1785 C 0.34844 0.80833 0.30229 0.0
N1786 N 0.36943 0.891 0.29808 0.0
N1787 N 0.42664 0.75285 0.3051 0.0
C1788 C 0.38408 0.85825 0.30103 0.0
C1789 C 0.41257 0.78715 0.30489 0.0
N1790 N 0.46963 0.9212 0.30319 0.0
N1791 N 0.3278 0.72521 0.30669 0.0
H1792 H 0.46261 0.76119 0.30631 0.0
H1793 H 0.40318 0.71605 0.30318 0.0
H1794 H 0.29059 0.71213 0.30572 0.0
H1795 H 0.33531 0.69891 0.31042 0.0
H1796 H 0.4626 0.9498 0.30281 0.0
H1797 H 0.50648 0.93262 0.30448 0.0
H1798 H 0.39305 0.92772 0.29616 0.0
H1799 H 0.33282 0.88056 0.29675 0.0
loop_
_geom_bond_atom_site_label_1
_geom_bond_atom_site_label_2
_geom_bond_distance
_geom_bond_site_symmetry_2
_ccdc_geom_bond_type
O0 Cd1 2.223 1_565 S
O0 C8 1.315 . S
Cd1 O0 2.223 1_545 S
Cd1 O4 2.297 1_545 S
Cd1 O5 2.439 . S
Cd1 O11 2.240 . S
Cd2 O3 2.240 1_545 S
Cd2 O10 2.223 . S
Cd2 O12 2.297 . S
Cd2 O13 2.439 . S
O3 Cd2 2.240 1_565 S
O3 C8 1.279 . S
O4 Cd1 2.297 1_565 S
O4 C6 1.247 . S
O5 Cd1 2.439 . S
O5 C6 1.208 1_545 S
C6 O4 1.247 . S
C6 O5 1.208 1_565 S
C7 O12 1.247 . S
C7 O13 1.208 . S
C8 O0 1.315 . S
C8 O3 1.279 . S
C9 O10 1.315 . S
C9 O11 1.279 . S
O10 Cd2 2.223 . S
O10 C9 1.315 . S
O11 Cd1 2.240 . S
O11 C9 1.279 . S
O12 Cd2 2.297 . S
O12 C7 1.247 . S
O13 Cd2 2.439 . S
O13 C7 1.208 . S
O14 Cd15 2.223 1_455 S
O14 C22 1.315 . S
Cd15 O14 2.223 1_655 S
Cd15 O18 2.297 1_655 S
Cd15 O19 2.439 . S
Cd15 O25 2.240 . S
Cd16 O17 2.240 1_655 S
Cd16 O24 2.223 . S
Cd16 O26 2.297 . S
Cd16 O27 2.439 . S
O17 Cd16 2.240 1_455 S
O17 C22 1.279 . S
O18 Cd15 2.297 1_455 S
O18 C20 1.247 . S
O19 Cd15 2.439 . S
O19 C20 1.208 1_655 S
C20 O18 1.247 . S
C20 O19 1.208 1_455 S
C21 O26 1.247 . S
C21 O27 1.208 . S
C22 O14 1.315 . S
C22 O17 1.279 . S
C23 O24 1.315 . S
C23 O25 1.279 . S
O24 Cd16 2.223 . S
O24 C23 1.315 . S
O25 Cd15 2.240 . S
O25 C23 1.279 . S
O26 Cd16 2.297 . S
O26 C21 1.247 . S
O27 Cd16 2.439 . S
O27 C21 1.208 . S
O28 Cd29 2.223 . S
O28 C36 1.315 . S
Cd29 O28 2.223 . S
Cd29 O32 2.297 . S
Cd29 O33 2.439 . S
Cd29 O39 2.240 . S
Cd30 O31 2.240 . S
Cd30 O38 2.223 . S
Cd30 O40 2.297 . S
Cd30 O41 2.439 . S
O31 Cd30 2.240 . S
O31 C36 1.279 . S
O32 Cd29 2.297 . S
O32 C34 1.247 . S
O33 Cd29 2.439 . S
O33 C34 1.208 . S
C34 O32 1.247 . S
C34 O33 1.208 . S
C35 O40 1.247 . S
C35 O41 1.208 . S
C36 O28 1.315 . S
C36 O31 1.279 . S
C37 O38 1.315 . S
C37 O39 1.279 . S
O38 Cd30 2.223 . S
O38 C37 1.315 . S
O39 Cd29 2.240 . S
O39 C37 1.279 . S
O40 Cd30 2.297 . S
O40 C35 1.247 . S
O41 Cd30 2.439 . S
O41 C35 1.208 . S
O42 Cd43 2.223 1_655 S
O42 C50 1.315 . S
Cd43 O42 2.223 1_455 S
Cd43 O46 2.297 1_455 S
Cd43 O47 2.439 . S
Cd43 O53 2.240 . S
Cd44 O45 2.240 1_455 S
Cd44 O52 2.223 . S
Cd44 O54 2.297 . S
Cd44 O55 2.439 . S
O45 Cd44 2.240 1_655 S
O45 C50 1.279 . S
O46 Cd43 2.297 1_655 S
O46 C48 1.247 . S
O47 Cd43 2.439 . S
O47 C48 1.208 1_455 S
C48 O46 1.247 . S
C48 O47 1.208 1_655 S
C49 O54 1.247 . S
C49 O55 1.208 . S
C50 O42 1.315 . S
C50 O45 1.279 . S
C51 O52 1.315 . S
C51 O53 1.279 . S
O52 Cd44 2.223 . S
O52 C51 1.315 . S
O53 Cd43 2.240 . S
O53 C51 1.279 . S
O54 Cd44 2.297 . S
O54 C49 1.247 . S
O55 Cd44 2.439 . S
O55 C49 1.208 . S
O56 Cd57 2.223 . S
O56 C64 1.315 . S
Cd57 O56 2.223 . S
Cd57 O60 2.297 . S
Cd57 O61 2.439 . S
Cd57 O67 2.240 . S
Cd58 O59 2.240 . S
Cd58 O66 2.223 . S
Cd58 O68 2.297 . S
Cd58 O69 2.439 . S
O59 Cd58 2.240 . S
O59 C64 1.279 . S
O60 Cd57 2.297 . S
O60 C62 1.247 . S
O61 Cd57 2.439 . S
O61 C62 1.208 . S
C62 O60 1.247 . S
C62 O61 1.208 . S
C63 O68 1.247 . S
C63 O69 1.208 . S
C64 O56 1.315 . S
C64 O59 1.279 . S
C65 O66 1.315 . S
C65 O67 1.279 . S
O66 Cd58 2.223 . S
O66 C65 1.315 . S
O67 Cd57 2.240 . S
O67 C65 1.279 . S
O68 Cd58 2.297 . S
O68 C63 1.247 . S
O69 Cd58 2.439 . S
O69 C63 1.208 . S
O70 Cd71 2.223 1_545 S
O70 C78 1.315 . S
Cd71 O70 2.223 1_565 S
Cd71 O74 2.297 1_565 S
Cd71 O75 2.439 . S
Cd71 O81 2.240 . S
Cd72 O73 2.240 1_565 S
Cd72 O80 2.223 . S
Cd72 O82 2.297 . S
Cd72 O83 2.439 . S
O73 Cd72 2.240 1_545 S
O73 C78 1.279 . S
O74 Cd71 2.297 1_545 S
O74 C76 1.247 . S
O75 Cd71 2.439 . S
O75 C76 1.208 1_565 S
C76 O74 1.247 . S
C76 O75 1.208 1_545 S
C77 O82 1.247 . S
C77 O83 1.208 . S
C78 O70 1.315 . S
C78 O73 1.279 . S
C79 O80 1.315 . S
C79 O81 1.279 . S
O80 Cd72 2.223 . S
O80 C79 1.315 . S
O81 Cd71 2.240 . S
O81 C79 1.279 . S
O82 Cd72 2.297 . S
O82 C77 1.247 . S
O83 Cd72 2.439 . S
O83 C77 1.208 . S
O84 Cd85 2.223 1_545 S
O84 C92 1.315 . S
Cd85 O84 2.223 1_565 S
Cd85 O88 2.297 1_565 S
Cd85 O89 2.439 . S
Cd85 O95 2.240 . S
Cd86 O87 2.240 1_565 S
Cd86 O94 2.223 . S
Cd86 O96 2.297 . S
Cd86 O97 2.439 . S
O87 Cd86 2.240 1_545 S
O87 C92 1.279 . S
O88 Cd85 2.297 1_545 S
O88 C90 1.247 . S
O89 Cd85 2.439 . S
O89 C90 1.208 1_565 S
C90 O88 1.247 . S
C90 O89 1.208 1_545 S
C91 O96 1.247 . S
C91 O97 1.208 . S
C92 O84 1.315 . S
C92 O87 1.279 . S
C93 O94 1.315 . S
C93 O95 1.279 . S
O94 Cd86 2.223 . S
O94 C93 1.315 . S
O95 Cd85 2.240 . S
O95 C93 1.279 . S
O96 Cd86 2.297 . S
O96 C91 1.247 . S
O97 Cd86 2.439 . S
O97 C91 1.208 . S
O98 Cd99 2.223 1_655 S
O98 C106 1.315 . S
Cd99 O98 2.223 1_455 S
Cd99 O102 2.297 1_455 S
Cd99 O103 2.439 . S
Cd99 O109 2.240 . S
Cd100 O101 2.240 1_455 S
Cd100 O108 2.223 . S
Cd100 O110 2.297 . S
Cd100 O111 2.439 . S
O101 Cd100 2.240 1_655 S
O101 C106 1.279 . S
O102 Cd99 2.297 1_655 S
O102 C104 1.247 . S
O103 Cd99 2.439 . S
O103 C104 1.208 1_455 S
C104 O102 1.247 . S
C104 O103 1.208 1_655 S
C105 O110 1.247 . S
C105 O111 1.208 . S
C106 O98 1.315 . S
C106 O101 1.279 . S
C107 O108 1.315 . S
C107 O109 1.279 . S
O108 Cd100 2.223 . S
O108 C107 1.315 . S
O109 Cd99 2.240 . S
O109 C107 1.279 . S
O110 Cd100 2.297 . S
O110 C105 1.247 . S
O111 Cd100 2.439 . S
O111 C105 1.208 . S
O112 Cd113 2.223 . S
O112 C120 1.315 . S
Cd113 O112 2.223 . S
Cd113 O116 2.297 . S
Cd113 O117 2.439 . S
Cd113 O123 2.240 . S
Cd114 O115 2.240 . S
Cd114 O122 2.223 . S
Cd114 O124 2.297 . S
Cd114 O125 2.439 . S
O115 Cd114 2.240 . S
O115 C120 1.279 . S
O116 Cd113 2.297 . S
O116 C118 1.247 . S
O117 Cd113 2.439 . S
O117 C118 1.208 . S
C118 O116 1.247 . S
C118 O117 1.208 . S
C119 O124 1.247 . S
C119 O125 1.208 . S
C120 O112 1.315 . S
C120 O115 1.279 . S
C121 O122 1.315 . S
C121 O123 1.279 . S
O122 Cd114 2.223 . S
O122 C121 1.315 . S
O123 Cd113 2.240 . S
O123 C121 1.279 . S
O124 Cd114 2.297 . S
O124 C119 1.247 . S
O125 Cd114 2.439 . S
O125 C119 1.208 . S
O126 Cd127 2.223 1_455 S
O126 C134 1.315 . S
Cd127 O126 2.223 1_655 S
Cd127 O130 2.297 1_655 S
Cd127 O131 2.439 . S
Cd127 O137 2.240 . S
Cd128 O129 2.240 1_655 S
Cd128 O136 2.223 . S
Cd128 O138 2.297 . S
Cd128 O139 2.439 . S
O129 Cd128 2.240 1_455 S
O129 C134 1.279 . S
O130 Cd127 2.297 1_455 S
O130 C132 1.247 . S
O131 Cd127 2.439 . S
O131 C132 1.208 1_655 S
C132 O130 1.247 . S
C132 O131 1.208 1_455 S
C133 O138 1.247 . S
C133 O139 1.208 . S
C134 O126 1.315 . S
C134 O129 1.279 . S
C135 O136 1.315 . S
C135 O137 1.279 . S
O136 Cd128 2.223 . S
O136 C135 1.315 . S
O137 Cd127 2.240 . S
O137 C135 1.279 . S
O138 Cd128 2.297 . S
O138 C133 1.247 . S
O139 Cd128 2.439 . S
O139 C133 1.208 . S
O140 Cd141 2.223 . S
O140 C148 1.315 . S
Cd141 O140 2.223 . S
Cd141 O144 2.297 . S
Cd141 O145 2.439 . S
Cd141 O151 2.240 . S
Cd142 O143 2.240 . S
Cd142 O150 2.223 . S
Cd142 O152 2.297 . S
Cd142 O153 2.439 . S
O143 Cd142 2.240 . S
O143 C148 1.279 . S
O144 Cd141 2.297 . S
O144 C146 1.247 . S
O145 Cd141 2.439 . S
O145 C146 1.208 . S
C146 O144 1.247 . S
C146 O145 1.208 . S
C147 O152 1.247 . S
C147 O153 1.208 . S
C148 O140 1.315 . S
C148 O143 1.279 . S
C149 O150 1.315 . S
C149 O151 1.279 . S
O150 Cd142 2.223 . S
O150 C149 1.315 . S
O151 Cd141 2.240 . S
O151 C149 1.279 . S
O152 Cd142 2.297 . S
O152 C147 1.247 . S
O153 Cd142 2.439 . S
O153 C147 1.208 . S
O154 Cd155 2.223 1_565 S
O154 C162 1.315 . S
Cd155 O154 2.223 1_545 S
Cd155 O158 2.297 1_545 S
Cd155 O159 2.439 . S
Cd155 O165 2.240 . S
Cd156 O157 2.240 1_545 S
Cd156 O164 2.223 . S
Cd156 O166 2.297 . S
Cd156 O167 2.439 . S
O157 Cd156 2.240 1_565 S
O157 C162 1.279 . S
O158 Cd155 2.297 1_565 S
O158 C160 1.247 . S
O159 Cd155 2.439 . S
O159 C160 1.208 1_545 S
C160 O158 1.247 . S
C160 O159 1.208 1_565 S
C161 O166 1.247 . S
C161 O167 1.208 . S
C162 O154 1.315 . S
C162 O157 1.279 . S
C163 O164 1.315 . S
C163 O165 1.279 . S
O164 Cd156 2.223 . S
O164 C163 1.315 . S
O165 Cd155 2.240 . S
O165 C163 1.279 . S
O166 Cd156 2.297 . S
O166 C161 1.247 . S
O167 Cd156 2.439 . S
O167 C161 1.208 . S
O168 Cd169 2.223 . S
O168 C176 1.315 . S
Cd169 O168 2.223 . S
Cd169 O172 2.297 . S
Cd169 O173 2.439 . S
Cd169 O179 2.240 . S
Cd170 O171 2.240 . S
Cd170 O178 2.223 . S
Cd170 O180 2.297 . S
Cd170 O181 2.439 . S
O171 Cd170 2.240 . S
O171 C176 1.279 . S
O172 Cd169 2.297 . S
O172 C174 1.247 . S
O173 Cd169 2.439 . S
O173 C174 1.208 . S
C174 O172 1.247 . S
C174 O173 1.208 . S
C175 O180 1.247 . S
C175 O181 1.208 . S
C176 O168 1.315 . S
C176 O171 1.279 . S
C177 O178 1.315 . S
C177 O179 1.279 . S
O178 Cd170 2.223 . S
O178 C177 1.315 . S
O179 Cd169 2.240 . S
O179 C177 1.279 . S
O180 Cd170 2.297 . S
O180 C175 1.247 . S
O181 Cd170 2.439 . S
O181 C175 1.208 . S
O182 Cd183 2.223 . S
O182 C190 1.315 . S
Cd183 O182 2.223 . S
Cd183 O186 2.297 . S
Cd183 O187 2.439 . S
Cd183 O193 2.240 . S
Cd184 O185 2.240 . S
Cd184 O192 2.223 . S
Cd184 O194 2.297 . S
Cd184 O195 2.439 . S
O185 Cd184 2.240 . S
O185 C190 1.279 . S
O186 Cd183 2.297 . S
O186 C188 1.247 . S
O187 Cd183 2.439 . S
O187 C188 1.208 . S
C188 O186 1.247 . S
C188 O187 1.208 . S
C189 O194 1.247 . S
C189 O195 1.208 . S
C190 O182 1.315 . S
C190 O185 1.279 . S
C191 O192 1.315 . S
C191 O193 1.279 . S
O192 Cd184 2.223 . S
O192 C191 1.315 . S
O193 Cd183 2.240 . S
O193 C191 1.279 . S
O194 Cd184 2.297 . S
O194 C189 1.247 . S
O195 Cd184 2.439 . S
O195 C189 1.208 . S
O196 Cd197 2.223 . S
O196 C204 1.315 . S
Cd197 O196 2.223 . S
Cd197 O200 2.297 . S
Cd197 O201 2.439 . S
Cd197 O207 2.240 . S
Cd198 O199 2.240 . S
Cd198 O206 2.223 . S
Cd198 O208 2.297 . S
Cd198 O209 2.439 . S
O199 Cd198 2.240 . S
O199 C204 1.279 . S
O200 Cd197 2.297 . S
O200 C202 1.247 . S
O201 Cd197 2.439 . S
O201 C202 1.208 . S
C202 O200 1.247 . S
C202 O201 1.208 . S
C203 O208 1.247 . S
C203 O209 1.208 . S
C204 O196 1.315 . S
C204 O199 1.279 . S
C205 O206 1.315 . S
C205 O207 1.279 . S
O206 Cd198 2.223 . S
O206 C205 1.315 . S
O207 Cd197 2.240 . S
O207 C205 1.279 . S
O208 Cd198 2.297 . S
O208 C203 1.247 . S
O209 Cd198 2.439 . S
O209 C203 1.208 . S
O210 Cd211 2.223 . S
O210 C218 1.315 . S
Cd211 O210 2.223 . S
Cd211 O214 2.297 . S
Cd211 O215 2.439 . S
Cd211 O221 2.240 . S
Cd212 O213 2.240 . S
Cd212 O220 2.223 . S
Cd212 O222 2.297 . S
Cd212 O223 2.439 . S
O213 Cd212 2.240 . S
O213 C218 1.279 . S
O214 Cd211 2.297 . S
O214 C216 1.247 . S
O215 Cd211 2.439 . S
O215 C216 1.208 . S
C216 O214 1.247 . S
C216 O215 1.208 . S
C217 O222 1.247 . S
C217 O223 1.208 . S
C218 O210 1.315 . S
C218 O213 1.279 . S
C219 O220 1.315 . S
C219 O221 1.279 . S
O220 Cd212 2.223 . S
O220 C219 1.315 . S
O221 Cd211 2.240 . S
O221 C219 1.279 . S
O222 Cd212 2.297 . S
O222 C217 1.247 . S
O223 Cd212 2.439 . S
O223 C217 1.208 . S
O224 Cd225 2.223 . S
O224 C232 1.315 . S
Cd225 O224 2.223 . S
Cd225 O228 2.297 . S
Cd225 O229 2.439 . S
Cd225 O235 2.240 . S
Cd226 O227 2.240 . S
Cd226 O234 2.223 . S
Cd226 O236 2.297 . S
Cd226 O237 2.439 . S
O227 Cd226 2.240 . S
O227 C232 1.279 . S
O228 Cd225 2.297 . S
O228 C230 1.247 . S
O229 Cd225 2.439 . S
O229 C230 1.208 . S
C230 O228 1.247 . S
C230 O229 1.208 . S
C231 O236 1.247 . S
C231 O237 1.208 . S
C232 O224 1.315 . S
C232 O227 1.279 . S
C233 O234 1.315 . S
C233 O235 1.279 . S
O234 Cd226 2.223 . S
O234 C233 1.315 . S
O235 Cd225 2.240 . S
O235 C233 1.279 . S
O236 Cd226 2.297 . S
O236 C231 1.247 . S
O237 Cd226 2.439 . S
O237 C231 1.208 . S
O238 Cd239 2.223 . S
O238 C246 1.315 . S
Cd239 O238 2.223 . S
Cd239 O242 2.297 . S
Cd239 O243 2.439 . S
Cd239 O249 2.240 . S
Cd240 O241 2.240 . S
Cd240 O248 2.223 . S
Cd240 O250 2.297 . S
Cd240 O251 2.439 . S
O241 Cd240 2.240 . S
O241 C246 1.279 . S
O242 Cd239 2.297 . S
O242 C244 1.247 . S
O243 Cd239 2.439 . S
O243 C244 1.208 . S
C244 O242 1.247 . S
C244 O243 1.208 . S
C245 O250 1.247 . S
C245 O251 1.208 . S
C246 O238 1.315 . S
C246 O241 1.279 . S
C247 O248 1.315 . S
C247 O249 1.279 . S
O248 Cd240 2.223 . S
O248 C247 1.315 . S
O249 Cd239 2.240 . S
O249 C247 1.279 . S
O250 Cd240 2.297 . S
O250 C245 1.247 . S
O251 Cd240 2.439 . S
O251 C245 1.208 . S
O252 Cd253 2.223 . S
O252 C260 1.315 . S
Cd253 O252 2.223 . S
Cd253 O256 2.297 . S
Cd253 O257 2.439 . S
Cd253 O263 2.240 . S
Cd254 O255 2.240 . S
Cd254 O262 2.223 . S
Cd254 O264 2.297 . S
Cd254 O265 2.439 . S
O255 Cd254 2.240 . S
O255 C260 1.279 . S
O256 Cd253 2.297 . S
O256 C258 1.247 . S
O257 Cd253 2.439 . S
O257 C258 1.208 . S
C258 O256 1.247 . S
C258 O257 1.208 . S
C259 O264 1.247 . S
C259 O265 1.208 . S
C260 O252 1.315 . S
C260 O255 1.279 . S
C261 O262 1.315 . S
C261 O263 1.279 . S
O262 Cd254 2.223 . S
O262 C261 1.315 . S
O263 Cd253 2.240 . S
O263 C261 1.279 . S
O264 Cd254 2.297 . S
O264 C259 1.247 . S
O265 Cd254 2.439 . S
O265 C259 1.208 . S
O266 Cd267 2.223 . S
O266 C274 1.315 . S
Cd267 O266 2.223 . S
Cd267 O270 2.297 . S
Cd267 O271 2.439 . S
Cd267 O277 2.240 . S
Cd268 O269 2.240 . S
Cd268 O276 2.223 . S
Cd268 O278 2.297 . S
Cd268 O279 2.439 . S
O269 Cd268 2.240 . S
O269 C274 1.279 . S
O270 Cd267 2.297 . S
O270 C272 1.247 . S
O271 Cd267 2.439 . S
O271 C272 1.208 . S
C272 O270 1.247 . S
C272 O271 1.208 . S
C273 O278 1.247 . S
C273 O279 1.208 . S
C274 O266 1.315 . S
C274 O269 1.279 . S
C275 O276 1.315 . S
C275 O277 1.279 . S
O276 Cd268 2.223 . S
O276 C275 1.315 . S
O277 Cd267 2.240 . S
O277 C275 1.279 . S
O278 Cd268 2.297 . S
O278 C273 1.247 . S
O279 Cd268 2.439 . S
O279 C273 1.208 . S
O280 Cd281 2.223 . S
O280 C288 1.315 . S
Cd281 O280 2.223 . S
Cd281 O284 2.297 . S
Cd281 O285 2.439 . S
Cd281 O291 2.240 . S
Cd282 O283 2.240 . S
Cd282 O290 2.223 . S
Cd282 O292 2.297 . S
Cd282 O293 2.439 . S
O283 Cd282 2.240 . S
O283 C288 1.279 . S
O284 Cd281 2.297 . S
O284 C286 1.247 . S
O285 Cd281 2.439 . S
O285 C286 1.208 . S
C286 O284 1.247 . S
C286 O285 1.208 . S
C287 O292 1.247 . S
C287 O293 1.208 . S
C288 O280 1.315 . S
C288 O283 1.279 . S
C289 O290 1.315 . S
C289 O291 1.279 . S
O290 Cd282 2.223 . S
O290 C289 1.315 . S
O291 Cd281 2.240 . S
O291 C289 1.279 . S
O292 Cd282 2.297 . S
O292 C287 1.247 . S
O293 Cd282 2.439 . S
O293 C287 1.208 . S
O294 Cd295 2.223 . S
O294 C302 1.315 . S
Cd295 O294 2.223 . S
Cd295 O298 2.297 . S
Cd295 O299 2.439 . S
Cd295 O305 2.240 . S
Cd296 O297 2.240 . S
Cd296 O304 2.223 . S
Cd296 O306 2.297 . S
Cd296 O307 2.439 . S
O297 Cd296 2.240 . S
O297 C302 1.279 . S
O298 Cd295 2.297 . S
O298 C300 1.247 . S
O299 Cd295 2.439 . S
O299 C300 1.208 . S
C300 O298 1.247 . S
C300 O299 1.208 . S
C301 O306 1.247 . S
C301 O307 1.208 . S
C302 O294 1.315 . S
C302 O297 1.279 . S
C303 O304 1.315 . S
C303 O305 1.279 . S
O304 Cd296 2.223 . S
O304 C303 1.315 . S
O305 Cd295 2.240 . S
O305 C303 1.279 . S
O306 Cd296 2.297 . S
O306 C301 1.247 . S
O307 Cd296 2.439 . S
O307 C301 1.208 . S
O308 Cd309 2.223 . S
O308 C316 1.315 . S
Cd309 O308 2.223 . S
Cd309 O312 2.297 . S
Cd309 O313 2.439 . S
Cd309 O319 2.240 . S
Cd310 O311 2.240 . S
Cd310 O318 2.223 . S
Cd310 O320 2.297 . S
Cd310 O321 2.439 . S
O311 Cd310 2.240 . S
O311 C316 1.279 . S
O312 Cd309 2.297 . S
O312 C314 1.247 . S
O313 Cd309 2.439 . S
O313 C314 1.208 . S
C314 O312 1.247 . S
C314 O313 1.208 . S
C315 O320 1.247 . S
C315 O321 1.208 . S
C316 O308 1.315 . S
C316 O311 1.279 . S
C317 O318 1.315 . S
C317 O319 1.279 . S
O318 Cd310 2.223 . S
O318 C317 1.315 . S
O319 Cd309 2.240 . S
O319 C317 1.279 . S
O320 Cd310 2.297 . S
O320 C315 1.247 . S
O321 Cd310 2.439 . S
O321 C315 1.208 . S
O322 Cd323 2.223 . S
O322 C330 1.315 . S
Cd323 O322 2.223 . S
Cd323 O326 2.297 . S
Cd323 O327 2.439 . S
Cd323 O333 2.240 . S
Cd324 O325 2.240 . S
Cd324 O332 2.223 . S
Cd324 O334 2.297 . S
Cd324 O335 2.439 . S
O325 Cd324 2.240 . S
O325 C330 1.279 . S
O326 Cd323 2.297 . S
O326 C328 1.247 . S
O327 Cd323 2.439 . S
O327 C328 1.208 . S
C328 O326 1.247 . S
C328 O327 1.208 . S
C329 O334 1.247 . S
C329 O335 1.208 . S
C330 O322 1.315 . S
C330 O325 1.279 . S
C331 O332 1.315 . S
C331 O333 1.279 . S
O332 Cd324 2.223 . S
O332 C331 1.315 . S
O333 Cd323 2.240 . S
O333 C331 1.279 . S
O334 Cd324 2.297 . S
O334 C329 1.247 . S
O335 Cd324 2.439 . S
O335 C329 1.208 . S
O336 Cd337 2.223 . S
O336 C344 1.315 . S
Cd337 O336 2.223 . S
Cd337 O340 2.297 . S
Cd337 O341 2.439 . S
Cd337 O347 2.240 . S
Cd338 O339 2.240 . S
Cd338 O346 2.223 . S
Cd338 O348 2.297 . S
Cd338 O349 2.439 . S
O339 Cd338 2.240 . S
O339 C344 1.279 . S
O340 Cd337 2.297 . S
O340 C342 1.247 . S
O341 Cd337 2.439 . S
O341 C342 1.208 . S
C342 O340 1.247 . S
C342 O341 1.208 . S
C343 O348 1.247 . S
C343 O349 1.208 . S
C344 O336 1.315 . S
C344 O339 1.279 . S
C345 O346 1.315 . S
C345 O347 1.279 . S
O346 Cd338 2.223 . S
O346 C345 1.315 . S
O347 Cd337 2.240 . S
O347 C345 1.279 . S
O348 Cd338 2.297 . S
O348 C343 1.247 . S
O349 Cd338 2.439 . S
O349 C343 1.208 . S
O350 Cd351 2.223 . S
O350 C358 1.315 . S
Cd351 O350 2.223 . S
Cd351 O354 2.297 . S
Cd351 O355 2.439 . S
Cd351 O361 2.240 . S
Cd352 O353 2.240 . S
Cd352 O360 2.223 . S
Cd352 O362 2.297 . S
Cd352 O363 2.439 . S
O353 Cd352 2.240 . S
O353 C358 1.279 . S
O354 Cd351 2.297 . S
O354 C356 1.247 . S
O355 Cd351 2.439 . S
O355 C356 1.208 . S
C356 O354 1.247 . S
C356 O355 1.208 . S
C357 O362 1.247 . S
C357 O363 1.208 . S
C358 O350 1.315 . S
C358 O353 1.279 . S
C359 O360 1.315 . S
C359 O361 1.279 . S
O360 Cd352 2.223 . S
O360 C359 1.315 . S
O361 Cd351 2.240 . S
O361 C359 1.279 . S
O362 Cd352 2.297 . S
O362 C357 1.247 . S
O363 Cd352 2.439 . S
O363 C357 1.208 . S
O364 Cd365 2.223 . S
O364 C372 1.315 . S
Cd365 O364 2.223 . S
Cd365 O368 2.297 . S
Cd365 O369 2.439 . S
Cd365 O375 2.240 . S
Cd366 O367 2.240 . S
Cd366 O374 2.223 . S
Cd366 O376 2.297 . S
Cd366 O377 2.439 . S
O367 Cd366 2.240 . S
O367 C372 1.279 . S
O368 Cd365 2.297 . S
O368 C370 1.247 . S
O369 Cd365 2.439 . S
O369 C370 1.208 . S
C370 O368 1.247 . S
C370 O369 1.208 . S
C371 O376 1.247 . S
C371 O377 1.208 . S
C372 O364 1.315 . S
C372 O367 1.279 . S
C373 O374 1.315 . S
C373 O375 1.279 . S
O374 Cd366 2.223 . S
O374 C373 1.315 . S
O375 Cd365 2.240 . S
O375 C373 1.279 . S
O376 Cd366 2.297 . S
O376 C371 1.247 . S
O377 Cd366 2.439 . S
O377 C371 1.208 . S
O378 Cd379 2.223 . S
O378 C386 1.315 . S
Cd379 O378 2.223 . S
Cd379 O382 2.297 . S
Cd379 O383 2.439 . S
Cd379 O389 2.240 . S
Cd380 O381 2.240 . S
Cd380 O388 2.223 . S
Cd380 O390 2.297 . S
Cd380 O391 2.439 . S
O381 Cd380 2.240 . S
O381 C386 1.279 . S
O382 Cd379 2.297 . S
O382 C384 1.247 . S
O383 Cd379 2.439 . S
O383 C384 1.208 . S
C384 O382 1.247 . S
C384 O383 1.208 . S
C385 O390 1.247 . S
C385 O391 1.208 . S
C386 O378 1.315 . S
C386 O381 1.279 . S
C387 O388 1.315 . S
C387 O389 1.279 . S
O388 Cd380 2.223 . S
O388 C387 1.315 . S
O389 Cd379 2.240 . S
O389 C387 1.279 . S
O390 Cd380 2.297 . S
O390 C385 1.247 . S
O391 Cd380 2.439 . S
O391 C385 1.208 . S
O392 Cd393 2.223 . S
O392 C400 1.315 . S
Cd393 O392 2.223 . S
Cd393 O396 2.297 . S
Cd393 O397 2.439 . S
Cd393 O403 2.240 . S
Cd394 O395 2.240 . S
Cd394 O402 2.223 . S
Cd394 O404 2.297 . S
Cd394 O405 2.439 . S
O395 Cd394 2.240 . S
O395 C400 1.279 . S
O396 Cd393 2.297 . S
O396 C398 1.247 . S
O397 Cd393 2.439 . S
O397 C398 1.208 . S
C398 O396 1.247 . S
C398 O397 1.208 . S
C399 O404 1.247 . S
C399 O405 1.208 . S
C400 O392 1.315 . S
C400 O395 1.279 . S
C401 O402 1.315 . S
C401 O403 1.279 . S
O402 Cd394 2.223 . S
O402 C401 1.315 . S
O403 Cd393 2.240 . S
O403 C401 1.279 . S
O404 Cd394 2.297 . S
O404 C399 1.247 . S
O405 Cd394 2.439 . S
O405 C399 1.208 . S
O406 Cd407 2.223 . S
O406 C414 1.315 . S
Cd407 O406 2.223 . S
Cd407 O410 2.297 . S
Cd407 O411 2.439 . S
Cd407 O417 2.240 . S
Cd408 O409 2.240 . S
Cd408 O416 2.223 . S
Cd408 O418 2.297 . S
Cd408 O419 2.439 . S
O409 Cd408 2.240 . S
O409 C414 1.279 . S
O410 Cd407 2.297 . S
O410 C412 1.247 . S
O411 Cd407 2.439 . S
O411 C412 1.208 . S
C412 O410 1.247 . S
C412 O411 1.208 . S
C413 O418 1.247 . S
C413 O419 1.208 . S
C414 O406 1.315 . S
C414 O409 1.279 . S
C415 O416 1.315 . S
C415 O417 1.279 . S
O416 Cd408 2.223 . S
O416 C415 1.315 . S
O417 Cd407 2.240 . S
O417 C415 1.279 . S
O418 Cd408 2.297 . S
O418 C413 1.247 . S
O419 Cd408 2.439 . S
O419 C413 1.208 . S
O420 Cd421 2.223 . S
O420 C428 1.315 . S
Cd421 O420 2.223 . S
Cd421 O424 2.297 . S
Cd421 O425 2.439 . S
Cd421 O431 2.240 . S
Cd422 O423 2.240 . S
Cd422 O430 2.223 . S
Cd422 O432 2.297 . S
Cd422 O433 2.439 . S
O423 Cd422 2.240 . S
O423 C428 1.279 . S
O424 Cd421 2.297 . S
O424 C426 1.247 . S
O425 Cd421 2.439 . S
O425 C426 1.208 . S
C426 O424 1.247 . S
C426 O425 1.208 . S
C427 O432 1.247 . S
C427 O433 1.208 . S
C428 O420 1.315 . S
C428 O423 1.279 . S
C429 O430 1.315 . S
C429 O431 1.279 . S
O430 Cd422 2.223 . S
O430 C429 1.315 . S
O431 Cd421 2.240 . S
O431 C429 1.279 . S
O432 Cd422 2.297 . S
O432 C427 1.247 . S
O433 Cd422 2.439 . S
O433 C427 1.208 . S
O434 Cd435 2.223 . S
O434 C442 1.315 . S
Cd435 O434 2.223 . S
Cd435 O438 2.297 . S
Cd435 O439 2.439 . S
Cd435 O445 2.240 . S
Cd436 O437 2.240 . S
Cd436 O444 2.223 . S
Cd436 O446 2.297 . S
Cd436 O447 2.439 . S
O437 Cd436 2.240 . S
O437 C442 1.279 . S
O438 Cd435 2.297 . S
O438 C440 1.247 . S
O439 Cd435 2.439 . S
O439 C440 1.208 . S
C440 O438 1.247 . S
C440 O439 1.208 . S
C441 O446 1.247 . S
C441 O447 1.208 . S
C442 O434 1.315 . S
C442 O437 1.279 . S
C443 O444 1.315 . S
C443 O445 1.279 . S
O444 Cd436 2.223 . S
O444 C443 1.315 . S
O445 Cd435 2.240 . S
O445 C443 1.279 . S
O446 Cd436 2.297 . S
O446 C441 1.247 . S
O447 Cd436 2.439 . S
O447 C441 1.208 . S
O448 Cd449 2.223 . S
O448 C456 1.315 . S
Cd449 O448 2.223 . S
Cd449 O452 2.297 . S
Cd449 O453 2.439 . S
Cd449 O459 2.240 . S
Cd450 O451 2.240 . S
Cd450 O458 2.223 . S
Cd450 O460 2.297 . S
Cd450 O461 2.439 . S
O451 Cd450 2.240 . S
O451 C456 1.279 . S
O452 Cd449 2.297 . S
O452 C454 1.247 . S
O453 Cd449 2.439 . S
O453 C454 1.208 . S
C454 O452 1.247 . S
C454 O453 1.208 . S
C455 O460 1.247 . S
C455 O461 1.208 . S
C456 O448 1.315 . S
C456 O451 1.279 . S
C457 O458 1.315 . S
C457 O459 1.279 . S
O458 Cd450 2.223 . S
O458 C457 1.315 . S
O459 Cd449 2.240 . S
O459 C457 1.279 . S
O460 Cd450 2.297 . S
O460 C455 1.247 . S
O461 Cd450 2.439 . S
O461 C455 1.208 . S
O462 Cd463 2.223 . S
O462 C470 1.315 . S
Cd463 O462 2.223 . S
Cd463 O466 2.297 . S
Cd463 O467 2.439 . S
Cd463 O473 2.240 . S
Cd464 O465 2.240 . S
Cd464 O472 2.223 . S
Cd464 O474 2.297 . S
Cd464 O475 2.439 . S
O465 Cd464 2.240 . S
O465 C470 1.279 . S
O466 Cd463 2.297 . S
O466 C468 1.247 . S
O467 Cd463 2.439 . S
O467 C468 1.208 . S
C468 O466 1.247 . S
C468 O467 1.208 . S
C469 O474 1.247 . S
C469 O475 1.208 . S
C470 O462 1.315 . S
C470 O465 1.279 . S
C471 O472 1.315 . S
C471 O473 1.279 . S
O472 Cd464 2.223 . S
O472 C471 1.315 . S
O473 Cd463 2.240 . S
O473 C471 1.279 . S
O474 Cd464 2.297 . S
O474 C469 1.247 . S
O475 Cd464 2.439 . S
O475 C469 1.208 . S
O476 Cd477 2.223 . S
O476 C484 1.315 . S
Cd477 O476 2.223 . S
Cd477 O480 2.297 . S
Cd477 O481 2.439 . S
Cd477 O487 2.240 . S
Cd478 O479 2.240 . S
Cd478 O486 2.223 . S
Cd478 O488 2.297 . S
Cd478 O489 2.439 . S
O479 Cd478 2.240 . S
O479 C484 1.279 . S
O480 Cd477 2.297 . S
O480 C482 1.247 . S
O481 Cd477 2.439 . S
O481 C482 1.208 . S
C482 O480 1.247 . S
C482 O481 1.208 . S
C483 O488 1.247 . S
C483 O489 1.208 . S
C484 O476 1.315 . S
C484 O479 1.279 . S
C485 O486 1.315 . S
C485 O487 1.279 . S
O486 Cd478 2.223 . S
O486 C485 1.315 . S
O487 Cd477 2.240 . S
O487 C485 1.279 . S
O488 Cd478 2.297 . S
O488 C483 1.247 . S
O489 Cd478 2.439 . S
O489 C483 1.208 . S
O490 Cd491 2.223 . S
O490 C498 1.315 . S
Cd491 O490 2.223 . S
Cd491 O494 2.297 . S
Cd491 O495 2.439 . S
Cd491 O501 2.240 . S
Cd492 O493 2.240 . S
Cd492 O500 2.223 . S
Cd492 O502 2.297 . S
Cd492 O503 2.439 . S
O493 Cd492 2.240 . S
O493 C498 1.279 . S
O494 Cd491 2.297 . S
O494 C496 1.247 . S
O495 Cd491 2.439 . S
O495 C496 1.208 . S
C496 O494 1.247 . S
C496 O495 1.208 . S
C497 O502 1.247 . S
C497 O503 1.208 . S
C498 O490 1.315 . S
C498 O493 1.279 . S
C499 O500 1.315 . S
C499 O501 1.279 . S
O500 Cd492 2.223 . S
O500 C499 1.315 . S
O501 Cd491 2.240 . S
O501 C499 1.279 . S
O502 Cd492 2.297 . S
O502 C497 1.247 . S
O503 Cd492 2.439 . S
O503 C497 1.208 . S
C504 C505 1.363 . S
C504 C510 1.379 . S
C504 N512 1.356 . S
C505 C504 1.363 . S
C505 C511 1.363 . S
C506 C507 1.363 . S
C506 C511 1.379 . S
C506 N513 1.356 . S
C507 C506 1.363 . S
C507 C510 1.363 . S
N508 C510 1.356 . S
N508 H520 0.984 . S
N508 H521 0.985 . S
N509 C511 1.356 . S
N509 H514 0.984 . S
N509 H515 0.985 . S
C510 C504 1.379 . S
C510 C507 1.363 . S
C510 N508 1.356 . S
C511 C505 1.363 . S
C511 C506 1.379 . S
C511 N509 1.356 . S
N512 C504 1.356 . S
N512 H518 0.984 . S
N512 H519 0.984 . S
N513 C506 1.356 . S
N513 H516 0.984 . S
N513 H517 0.985 . S
H514 N509 0.984 . S
H515 N509 0.985 . S
H516 N513 0.984 . S
H517 N513 0.985 . S
H518 N512 0.984 . S
H519 N512 0.984 . S
H520 N508 0.984 . S
H521 N508 0.985 . S
C522 C523 1.363 . S
C522 C528 1.379 . S
C522 N530 1.356 . S
C523 C522 1.363 . S
C523 C529 1.363 . S
C524 C525 1.363 . S
C524 C529 1.379 . S
C524 N531 1.356 . S
C525 C524 1.363 . S
C525 C528 1.363 . S
N526 C528 1.356 . S
N526 H538 0.984 . S
N526 H539 0.985 . S
N527 C529 1.356 . S
N527 H532 0.984 . S
N527 H533 0.985 . S
C528 C522 1.379 . S
C528 C525 1.363 . S
C528 N526 1.356 . S
C529 C523 1.363 . S
C529 C524 1.379 . S
C529 N527 1.356 . S
N530 C522 1.356 . S
N530 H536 0.984 . S
N530 H537 0.984 . S
N531 C524 1.356 . S
N531 H534 0.984 . S
N531 H535 0.985 . S
H532 N527 0.984 . S
H533 N527 0.985 . S
H534 N531 0.984 . S
H535 N531 0.985 . S
H536 N530 0.984 . S
H537 N530 0.984 . S
H538 N526 0.984 . S
H539 N526 0.985 . S
C540 C541 1.363 . S
C540 C546 1.379 . S
C540 N548 1.356 . S
C541 C540 1.363 . S
C541 C547 1.363 . S
C542 C543 1.363 . S
C542 C547 1.379 . S
C542 N549 1.356 . S
C543 C542 1.363 . S
C543 C546 1.363 . S
N544 C546 1.356 . S
N544 H556 0.984 . S
N544 H557 0.985 . S
N545 C547 1.356 . S
N545 H550 0.984 . S
N545 H551 0.985 . S
C546 C540 1.379 . S
C546 C543 1.363 . S
C546 N544 1.356 . S
C547 C541 1.363 . S
C547 C542 1.379 . S
C547 N545 1.356 . S
N548 C540 1.356 . S
N548 H554 0.984 . S
N548 H555 0.984 . S
N549 C542 1.356 . S
N549 H552 0.984 . S
N549 H553 0.985 . S
H550 N545 0.984 . S
H551 N545 0.985 . S
H552 N549 0.984 . S
H553 N549 0.985 . S
H554 N548 0.984 . S
H555 N548 0.984 . S
H556 N544 0.984 . S
H557 N544 0.985 . S
C558 C559 1.363 . S
C558 C564 1.379 . S
C558 N566 1.356 . S
C559 C558 1.363 . S
C559 C565 1.363 . S
C560 C561 1.363 . S
C560 C565 1.379 . S
C560 N567 1.356 . S
C561 C560 1.363 . S
C561 C564 1.363 . S
N562 C564 1.356 . S
N562 H574 0.984 . S
N562 H575 0.985 . S
N563 C565 1.356 . S
N563 H568 0.984 . S
N563 H569 0.985 . S
C564 C558 1.379 . S
C564 C561 1.363 . S
C564 N562 1.356 . S
C565 C559 1.363 . S
C565 C560 1.379 . S
C565 N563 1.356 . S
N566 C558 1.356 . S
N566 H572 0.984 . S
N566 H573 0.984 . S
N567 C560 1.356 . S
N567 H570 0.984 . S
N567 H571 0.985 . S
H568 N563 0.984 . S
H569 N563 0.985 . S
H570 N567 0.984 . S
H571 N567 0.985 . S
H572 N566 0.984 . S
H573 N566 0.984 . S
H574 N562 0.984 . S
H575 N562 0.985 . S
C576 C577 1.363 . S
C576 C582 1.379 . S
C576 N584 1.356 . S
C577 C576 1.363 . S
C577 C583 1.363 . S
C578 C579 1.363 . S
C578 C583 1.379 . S
C578 N585 1.356 . S
C579 C578 1.363 . S
C579 C582 1.363 . S
N580 C582 1.356 . S
N580 H592 0.984 . S
N580 H593 0.985 . S
N581 C583 1.356 . S
N581 H586 0.984 . S
N581 H587 0.985 . S
C582 C576 1.379 . S
C582 C579 1.363 . S
C582 N580 1.356 . S
C583 C577 1.363 . S
C583 C578 1.379 . S
C583 N581 1.356 . S
N584 C576 1.356 . S
N584 H590 0.984 . S
N584 H591 0.984 . S
N585 C578 1.356 . S
N585 H588 0.984 . S
N585 H589 0.985 . S
H586 N581 0.984 . S
H587 N581 0.985 . S
H588 N585 0.984 . S
H589 N585 0.985 . S
H590 N584 0.984 . S
H591 N584 0.984 . S
H592 N580 0.984 . S
H593 N580 0.985 . S
C594 C595 1.363 . S
C594 C600 1.379 . S
C594 N602 1.356 . S
C595 C594 1.363 . S
C595 C601 1.363 . S
C596 C597 1.363 . S
C596 C601 1.379 . S
C596 N603 1.356 . S
C597 C596 1.363 . S
C597 C600 1.363 . S
N598 C600 1.356 . S
N598 H610 0.984 . S
N598 H611 0.985 . S
N599 C601 1.356 . S
N599 H604 0.984 . S
N599 H605 0.985 . S
C600 C594 1.379 . S
C600 C597 1.363 . S
C600 N598 1.356 . S
C601 C595 1.363 . S
C601 C596 1.379 . S
C601 N599 1.356 . S
N602 C594 1.356 . S
N602 H608 0.984 . S
N602 H609 0.984 . S
N603 C596 1.356 . S
N603 H606 0.984 . S
N603 H607 0.985 . S
H604 N599 0.984 . S
H605 N599 0.985 . S
H606 N603 0.984 . S
H607 N603 0.985 . S
H608 N602 0.984 . S
H609 N602 0.984 . S
H610 N598 0.984 . S
H611 N598 0.985 . S
C612 C613 1.363 . S
C612 C618 1.379 . S
C612 N620 1.356 . S
C613 C612 1.363 . S
C613 C619 1.363 . S
C614 C615 1.363 . S
C614 C619 1.379 . S
C614 N621 1.356 . S
C615 C614 1.363 . S
C615 C618 1.363 . S
N616 C618 1.356 . S
N616 H628 0.984 . S
N616 H629 0.985 . S
N617 C619 1.356 . S
N617 H622 0.984 . S
N617 H623 0.985 . S
C618 C612 1.379 . S
C618 C615 1.363 . S
C618 N616 1.356 . S
C619 C613 1.363 . S
C619 C614 1.379 . S
C619 N617 1.356 . S
N620 C612 1.356 . S
N620 H626 0.984 . S
N620 H627 0.984 . S
N621 C614 1.356 . S
N621 H624 0.984 . S
N621 H625 0.985 . S
H622 N617 0.984 . S
H623 N617 0.985 . S
H624 N621 0.984 . S
H625 N621 0.985 . S
H626 N620 0.984 . S
H627 N620 0.984 . S
H628 N616 0.984 . S
H629 N616 0.985 . S
C630 C631 1.363 . S
C630 C636 1.379 . S
C630 N638 1.356 . S
C631 C630 1.363 . S
C631 C637 1.363 . S
C632 C633 1.363 . S
C632 C637 1.379 . S
C632 N639 1.356 . S
C633 C632 1.363 . S
C633 C636 1.363 . S
N634 C636 1.356 . S
N634 H646 0.984 . S
N634 H647 0.985 . S
N635 C637 1.356 . S
N635 H640 0.984 . S
N635 H641 0.985 . S
C636 C630 1.379 . S
C636 C633 1.363 . S
C636 N634 1.356 . S
C637 C631 1.363 . S
C637 C632 1.379 . S
C637 N635 1.356 . S
N638 C630 1.356 . S
N638 H644 0.984 . S
N638 H645 0.984 . S
N639 C632 1.356 . S
N639 H642 0.984 . S
N639 H643 0.985 . S
H640 N635 0.984 . S
H641 N635 0.985 . S
H642 N639 0.984 . S
H643 N639 0.985 . S
H644 N638 0.984 . S
H645 N638 0.984 . S
H646 N634 0.984 . S
H647 N634 0.985 . S
C648 C649 1.363 . S
C648 C654 1.379 . S
C648 N656 1.356 . S
C649 C648 1.363 . S
C649 C655 1.363 . S
C650 C651 1.363 . S
C650 C655 1.379 . S
C650 N657 1.356 . S
C651 C650 1.363 . S
C651 C654 1.363 . S
N652 C654 1.356 . S
N652 H664 0.984 . S
N652 H665 0.985 . S
N653 C655 1.356 . S
N653 H658 0.984 . S
N653 H659 0.985 . S
C654 C648 1.379 . S
C654 C651 1.363 . S
C654 N652 1.356 . S
C655 C649 1.363 . S
C655 C650 1.379 . S
C655 N653 1.356 . S
N656 C648 1.356 . S
N656 H662 0.984 . S
N656 H663 0.984 . S
N657 C650 1.356 . S
N657 H660 0.984 . S
N657 H661 0.985 . S
H658 N653 0.984 . S
H659 N653 0.985 . S
H660 N657 0.984 . S
H661 N657 0.985 . S
H662 N656 0.984 . S
H663 N656 0.984 . S
H664 N652 0.984 . S
H665 N652 0.985 . S
C666 C667 1.363 . S
C666 C672 1.379 . S
C666 N674 1.356 . S
C667 C666 1.363 . S
C667 C673 1.363 . S
C668 C669 1.363 . S
C668 C673 1.379 . S
C668 N675 1.356 . S
C669 C668 1.363 . S
C669 C672 1.363 . S
N670 C672 1.356 . S
N670 H682 0.984 . S
N670 H683 0.985 . S
N671 C673 1.356 . S
N671 H676 0.984 . S
N671 H677 0.985 . S
C672 C666 1.379 . S
C672 C669 1.363 . S
C672 N670 1.356 . S
C673 C667 1.363 . S
C673 C668 1.379 . S
C673 N671 1.356 . S
N674 C666 1.356 . S
N674 H680 0.984 . S
N674 H681 0.984 . S
N675 C668 1.356 . S
N675 H678 0.984 . S
N675 H679 0.985 . S
H676 N671 0.984 . S
H677 N671 0.985 . S
H678 N675 0.984 . S
H679 N675 0.985 . S
H680 N674 0.984 . S
H681 N674 0.984 . S
H682 N670 0.984 . S
H683 N670 0.985 . S
C684 C685 1.363 . S
C684 C690 1.379 . S
C684 N692 1.356 . S
C685 C684 1.363 . S
C685 C691 1.363 . S
C686 C687 1.363 . S
C686 C691 1.379 . S
C686 N693 1.356 . S
C687 C686 1.363 . S
C687 C690 1.363 . S
N688 C690 1.356 . S
N688 H700 0.984 . S
N688 H701 0.985 . S
N689 C691 1.356 . S
N689 H694 0.984 . S
N689 H695 0.985 . S
C690 C684 1.379 . S
C690 C687 1.363 . S
C690 N688 1.356 . S
C691 C685 1.363 . S
C691 C686 1.379 . S
C691 N689 1.356 . S
N692 C684 1.356 . S
N692 H698 0.984 . S
N692 H699 0.984 . S
N693 C686 1.356 . S
N693 H696 0.984 . S
N693 H697 0.985 . S
H694 N689 0.984 . S
H695 N689 0.985 . S
H696 N693 0.984 . S
H697 N693 0.985 . S
H698 N692 0.984 . S
H699 N692 0.984 . S
H700 N688 0.984 . S
H701 N688 0.985 . S
C702 C703 1.363 . S
C702 C708 1.379 . S
C702 N710 1.356 . S
C703 C702 1.363 . S
C703 C709 1.363 . S
C704 C705 1.363 . S
C704 C709 1.379 . S
C704 N711 1.356 . S
C705 C704 1.363 . S
C705 C708 1.363 . S
N706 C708 1.356 . S
N706 H718 0.984 . S
N706 H719 0.985 . S
N707 C709 1.356 . S
N707 H712 0.984 . S
N707 H713 0.985 . S
C708 C702 1.379 . S
C708 C705 1.363 . S
C708 N706 1.356 . S
C709 C703 1.363 . S
C709 C704 1.379 . S
C709 N707 1.356 . S
N710 C702 1.356 . S
N710 H716 0.984 . S
N710 H717 0.984 . S
N711 C704 1.356 . S
N711 H714 0.984 . S
N711 H715 0.985 . S
H712 N707 0.984 . S
H713 N707 0.985 . S
H714 N711 0.984 . S
H715 N711 0.985 . S
H716 N710 0.984 . S
H717 N710 0.984 . S
H718 N706 0.984 . S
H719 N706 0.985 . S
C720 C721 1.363 1_655 S
C720 C726 1.379 . S
C720 N728 1.356 . S
C721 C720 1.363 1_455 S
C721 C727 1.363 . S
C722 C723 1.363 1_455 S
C722 C727 1.379 . S
C722 N729 1.356 . S
C723 C722 1.363 1_655 S
C723 C726 1.363 . S
N724 C726 1.356 . S
N724 H736 0.984 . S
N724 H737 0.985 . S
N725 C727 1.356 . S
N725 H730 0.984 . S
N725 H731 0.985 . S
C726 C720 1.379 . S
C726 C723 1.363 . S
C726 N724 1.356 . S
C727 C721 1.363 . S
C727 C722 1.379 . S
C727 N725 1.356 . S
N728 C720 1.356 . S
N728 H734 0.984 . S
N728 H735 0.984 1_655 S
N729 C722 1.356 . S
N729 H732 0.984 1_455 S
N729 H733 0.985 . S
H730 N725 0.984 . S
H731 N725 0.985 . S
H732 N729 0.984 1_655 S
H733 N729 0.985 . S
H734 N728 0.984 . S
H735 N728 0.984 1_455 S
H736 N724 0.984 . S
H737 N724 0.985 . S
C738 C739 1.363 . S
C738 C744 1.379 . S
C738 N746 1.356 . S
C739 C738 1.363 . S
C739 C745 1.363 . S
C740 C741 1.363 . S
C740 C745 1.379 . S
C740 N747 1.356 . S
C741 C740 1.363 . S
C741 C744 1.363 . S
N742 C744 1.356 . S
N742 H754 0.984 . S
N742 H755 0.985 . S
N743 C745 1.356 . S
N743 H748 0.984 . S
N743 H749 0.985 . S
C744 C738 1.379 . S
C744 C741 1.363 . S
C744 N742 1.356 . S
C745 C739 1.363 . S
C745 C740 1.379 . S
C745 N743 1.356 . S
N746 C738 1.356 . S
N746 H752 0.984 . S
N746 H753 0.984 . S
N747 C740 1.356 . S
N747 H750 0.984 . S
N747 H751 0.985 . S
H748 N743 0.984 . S
H749 N743 0.985 . S
H750 N747 0.984 . S
H751 N747 0.985 . S
H752 N746 0.984 . S
H753 N746 0.984 . S
H754 N742 0.984 . S
H755 N742 0.985 . S
C756 C757 1.363 1_565 S
C756 C762 1.379 . S
C756 N764 1.356 . S
C757 C756 1.363 1_545 S
C757 C763 1.363 . S
C758 C759 1.363 1_545 S
C758 C763 1.379 . S
C758 N765 1.356 . S
C759 C758 1.363 1_565 S
C759 C762 1.363 . S
N760 C762 1.356 . S
N760 H772 0.984 . S
N760 H773 0.985 . S
N761 C763 1.356 . S
N761 H766 0.984 . S
N761 H767 0.985 . S
C762 C756 1.379 . S
C762 C759 1.363 . S
C762 N760 1.356 . S
C763 C757 1.363 . S
C763 C758 1.379 . S
C763 N761 1.356 . S
N764 C756 1.356 . S
N764 H770 0.984 . S
N764 H771 0.984 1_565 S
N765 C758 1.356 . S
N765 H768 0.984 1_545 S
N765 H769 0.985 . S
H766 N761 0.984 . S
H767 N761 0.985 . S
H768 N765 0.984 1_565 S
H769 N765 0.985 . S
H770 N764 0.984 . S
H771 N764 0.984 1_545 S
H772 N760 0.984 . S
H773 N760 0.985 . S
C774 C775 1.363 1_545 S
C774 C780 1.328 1_554 S
C774 N782 1.356 . S
C775 C774 1.363 1_565 S
C775 C781 1.413 . S
C776 C777 1.363 1_565 S
C776 C781 1.328 1_556 S
C776 N783 1.356 . S
C777 C776 1.363 1_545 S
C777 C780 1.413 . S
N778 C780 1.379 . S
N778 H790 0.979 1_556 S
N778 H791 0.985 . S
N779 C781 1.379 . S
N779 H784 0.984 . S
N779 H785 0.979 1_554 S
C780 C774 1.328 1_556 S
C780 C777 1.413 . S
C780 N778 1.379 . S
C781 C775 1.413 . S
C781 C776 1.328 1_554 S
C781 N779 1.379 . S
N782 C774 1.356 . S
N782 H788 0.984 . S
N782 H789 0.984 1_545 S
N783 C776 1.356 . S
N783 H786 0.984 1_565 S
N783 H787 0.985 . S
H784 N779 0.984 . S
H785 N779 0.979 1_556 S
H786 N783 0.984 1_545 S
H787 N783 0.985 . S
H788 N782 0.984 . S
H789 N782 0.984 1_565 S
H790 N778 0.979 1_554 S
H791 N778 0.985 . S
C792 C793 1.363 1_455 S
C792 C798 1.369 1_556 S
C792 N800 1.356 . S
C793 C792 1.363 1_655 S
C793 C799 1.373 . S
C794 C795 1.363 1_655 S
C794 C799 1.369 1_554 S
C794 N801 1.356 . S
C795 C794 1.363 1_455 S
C795 C798 1.373 . S
N796 C798 1.360 . S
N796 H808 0.984 1_554 S
N796 H809 0.985 . S
N797 C799 1.360 . S
N797 H802 0.984 . S
N797 H803 0.985 1_556 S
C798 C792 1.369 1_554 S
C798 C795 1.373 . S
C798 N796 1.360 . S
C799 C793 1.373 . S
C799 C794 1.369 1_556 S
C799 N797 1.360 . S
N800 C792 1.356 . S
N800 H806 0.984 . S
N800 H807 0.984 1_455 S
N801 C794 1.356 . S
N801 H804 0.984 1_655 S
N801 H805 0.985 . S
H802 N797 0.984 . S
H803 N797 0.985 1_554 S
H804 N801 0.984 1_455 S
H805 N801 0.985 . S
H806 N800 0.984 . S
H807 N800 0.984 1_655 S
H808 N796 0.984 1_556 S
H809 N796 0.985 . S
C810 C811 1.295 1_554 S
C810 C816 1.441 . S
C810 N818 1.343 1_554 S
C811 C810 1.295 1_556 S
C811 C817 1.363 . S
C812 C813 1.295 1_556 S
C812 C817 1.441 . S
C812 N819 1.343 1_556 S
C813 C812 1.295 1_554 S
C813 C816 1.363 . S
N814 C816 1.356 . S
N814 H826 0.984 . S
N814 H827 0.985 . S
N815 C817 1.356 . S
N815 H820 0.984 . S
N815 H821 0.985 . S
C816 C810 1.441 . S
C816 C813 1.363 . S
C816 N814 1.356 . S
C817 C811 1.363 . S
C817 C812 1.441 . S
C817 N815 1.356 . S
N818 C810 1.343 1_556 S
N818 H824 0.984 1_556 S
N818 H825 0.984 . S
N819 C812 1.343 1_554 S
N819 H822 0.984 . S
N819 H823 0.985 1_554 S
H820 N815 0.984 . S
H821 N815 0.985 . S
H822 N819 0.984 . S
H823 N819 0.985 1_556 S
H824 N818 0.984 1_554 S
H825 N818 0.984 . S
H826 N814 0.984 . S
H827 N814 0.985 . S
C828 C829 1.363 . S
C828 C834 1.379 . S
C828 N836 1.356 . S
C829 C828 1.363 . S
C829 C835 1.363 . S
C830 C831 1.363 . S
C830 C835 1.379 . S
C830 N837 1.356 . S
C831 C830 1.363 . S
C831 C834 1.363 . S
N832 C834 1.356 . S
N832 H844 0.984 . S
N832 H845 0.985 . S
N833 C835 1.356 1_545 S
N833 H838 0.984 . S
N833 H839 0.985 . S
C834 C828 1.379 . S
C834 C831 1.363 . S
C834 N832 1.356 . S
C835 C829 1.363 . S
C835 C830 1.379 . S
C835 N833 1.356 1_565 S
N836 C828 1.356 . S
N836 H842 0.984 . S
N836 H843 0.984 . S
N837 C830 1.356 . S
N837 H840 0.984 . S
N837 H841 0.985 . S
H838 N833 0.984 . S
H839 N833 0.985 . S
H840 N837 0.984 . S
H841 N837 0.985 . S
H842 N836 0.984 . S
H843 N836 0.984 . S
H844 N832 0.984 . S
H845 N832 0.985 . S
C846 C847 1.363 . S
C846 C852 1.379 . S
C846 N854 1.356 . S
C847 C846 1.363 . S
C847 C853 1.363 . S
C848 C849 1.363 . S
C848 C853 1.379 . S
C848 N855 1.356 1_455 S
C849 C848 1.363 . S
C849 C852 1.363 . S
N850 C852 1.356 . S
N850 H862 0.984 . S
N850 H863 0.985 . S
N851 C853 1.356 . S
N851 H856 0.984 . S
N851 H857 0.985 . S
C852 C846 1.379 . S
C852 C849 1.363 . S
C852 N850 1.356 . S
C853 C847 1.363 . S
C853 C848 1.379 . S
C853 N851 1.356 . S
N854 C846 1.356 . S
N854 H860 0.984 . S
N854 H861 0.984 . S
N855 C848 1.356 1_655 S
N855 H858 0.984 . S
N855 H859 0.985 . S
H856 N851 0.984 . S
H857 N851 0.985 . S
H858 N855 0.984 . S
H859 N855 0.985 . S
H860 N854 0.984 . S
H861 N854 0.984 . S
H862 N850 0.984 . S
H863 N850 0.985 . S
C864 C865 1.363 . S
C864 C870 1.379 . S
C864 N872 1.356 . S
C865 C864 1.363 . S
C865 C871 1.363 . S
C866 C867 1.363 . S
C866 C871 1.379 . S
C866 N873 1.356 . S
C867 C866 1.363 . S
C867 C870 1.363 . S
N868 C870 1.356 . S
N868 H880 0.984 . S
N868 H881 0.985 . S
N869 C871 1.356 . S
N869 H874 0.984 . S
N869 H875 0.985 . S
C870 C864 1.379 . S
C870 C867 1.363 . S
C870 N868 1.356 . S
C871 C865 1.363 . S
C871 C866 1.379 . S
C871 N869 1.356 . S
N872 C864 1.356 . S
N872 H878 0.984 . S
N872 H879 0.984 . S
N873 C866 1.356 . S
N873 H876 0.984 . S
N873 H877 0.985 . S
H874 N869 0.984 . S
H875 N869 0.985 . S
H876 N873 0.984 . S
H877 N873 0.985 . S
H878 N872 0.984 . S
H879 N872 0.984 . S
H880 N868 0.984 . S
H881 N868 0.985 . S
C882 C883 1.363 . S
C882 C888 1.379 . S
C882 N890 1.356 . S
C883 C882 1.363 . S
C883 C889 1.363 . S
C884 C885 1.363 . S
C884 C889 1.379 . S
C884 N891 1.356 1_655 S
C885 C884 1.363 . S
C885 C888 1.363 . S
N886 C888 1.356 . S
N886 H898 0.984 . S
N886 H899 0.985 . S
N887 C889 1.356 . S
N887 H892 0.984 . S
N887 H893 0.985 . S
C888 C882 1.379 . S
C888 C885 1.363 . S
C888 N886 1.356 . S
C889 C883 1.363 . S
C889 C884 1.379 . S
C889 N887 1.356 . S
N890 C882 1.356 . S
N890 H896 0.984 . S
N890 H897 0.984 . S
N891 C884 1.356 1_455 S
N891 H894 0.984 . S
N891 H895 0.985 . S
H892 N887 0.984 . S
H893 N887 0.985 . S
H894 N891 0.984 . S
H895 N891 0.985 . S
H896 N890 0.984 . S
H897 N890 0.984 . S
H898 N886 0.984 . S
H899 N886 0.985 . S
C900 C901 1.363 . S
C900 C906 1.379 . S
C900 N908 1.356 . S
C901 C900 1.363 . S
C901 C907 1.363 . S
C902 C903 1.363 . S
C902 C907 1.379 . S
C902 N909 1.356 . S
C903 C902 1.363 . S
C903 C906 1.363 . S
N904 C906 1.356 . S
N904 H916 0.984 . S
N904 H917 0.985 . S
N905 C907 1.356 . S
N905 H910 0.984 . S
N905 H911 0.985 . S
C906 C900 1.379 . S
C906 C903 1.363 . S
C906 N904 1.356 . S
C907 C901 1.363 . S
C907 C902 1.379 . S
C907 N905 1.356 . S
N908 C900 1.356 . S
N908 H914 0.984 . S
N908 H915 0.984 . S
N909 C902 1.356 . S
N909 H912 0.984 . S
N909 H913 0.985 . S
H910 N905 0.984 . S
H911 N905 0.985 . S
H912 N909 0.984 . S
H913 N909 0.985 . S
H914 N908 0.984 . S
H915 N908 0.984 . S
H916 N904 0.984 . S
H917 N904 0.985 . S
C918 C919 1.363 . S
C918 C924 1.379 . S
C918 N926 1.356 . S
C919 C918 1.363 . S
C919 C925 1.363 . S
C920 C921 1.363 . S
C920 C925 1.379 . S
C920 N927 1.356 1_545 S
C921 C920 1.363 . S
C921 C924 1.363 . S
N922 C924 1.356 . S
N922 H934 0.984 . S
N922 H935 0.985 . S
N923 C925 1.356 . S
N923 H928 0.984 . S
N923 H929 0.985 1_545 S
C924 C918 1.379 . S
C924 C921 1.363 . S
C924 N922 1.356 . S
C925 C919 1.363 . S
C925 C920 1.379 . S
C925 N923 1.356 . S
N926 C918 1.356 . S
N926 H932 0.984 . S
N926 H933 0.984 . S
N927 C920 1.356 1_565 S
N927 H930 0.984 . S
N927 H931 0.985 . S
H928 N923 0.984 . S
H929 N923 0.985 1_565 S
H930 N927 0.984 . S
H931 N927 0.985 . S
H932 N926 0.984 . S
H933 N926 0.984 . S
H934 N922 0.984 . S
H935 N922 0.985 . S
C936 C937 1.363 . S
C936 C942 1.379 . S
C936 N944 1.356 . S
C937 C936 1.363 . S
C937 C943 1.363 . S
C938 C939 1.363 . S
C938 C943 1.379 . S
C938 N945 1.356 . S
C939 C938 1.363 . S
C939 C942 1.363 . S
N940 C942 1.356 . S
N940 H952 0.984 . S
N940 H953 0.985 . S
N941 C943 1.356 . S
N941 H946 0.984 . S
N941 H947 0.985 . S
C942 C936 1.379 . S
C942 C939 1.363 . S
C942 N940 1.356 . S
C943 C937 1.363 . S
C943 C938 1.379 . S
C943 N941 1.356 . S
N944 C936 1.356 . S
N944 H950 0.984 . S
N944 H951 0.984 . S
N945 C938 1.356 . S
N945 H948 0.984 . S
N945 H949 0.985 . S
H946 N941 0.984 . S
H947 N941 0.985 . S
H948 N945 0.984 . S
H949 N945 0.985 . S
H950 N944 0.984 . S
H951 N944 0.984 . S
H952 N940 0.984 . S
H953 N940 0.985 . S
C954 C955 1.363 . S
C954 C960 1.379 . S
C954 N962 1.356 . S
C955 C954 1.363 . S
C955 C961 1.363 . S
C956 C957 1.363 . S
C956 C961 1.379 . S
C956 N963 1.356 . S
C957 C956 1.363 . S
C957 C960 1.363 . S
N958 C960 1.356 . S
N958 H970 0.984 . S
N958 H971 0.985 . S
N959 C961 1.356 . S
N959 H964 0.984 . S
N959 H965 0.985 . S
C960 C954 1.379 . S
C960 C957 1.363 . S
C960 N958 1.356 . S
C961 C955 1.363 . S
C961 C956 1.379 . S
C961 N959 1.356 . S
N962 C954 1.356 . S
N962 H968 0.984 . S
N962 H969 0.984 . S
N963 C956 1.356 . S
N963 H966 0.984 . S
N963 H967 0.985 . S
H964 N959 0.984 . S
H965 N959 0.985 . S
H966 N963 0.984 . S
H967 N963 0.985 . S
H968 N962 0.984 . S
H969 N962 0.984 . S
H970 N958 0.984 . S
H971 N958 0.985 . S
C972 C973 1.363 . S
C972 C978 1.379 . S
C972 N980 1.356 . S
C973 C972 1.363 . S
C973 C979 1.363 . S
C974 C975 1.363 . S
C974 C979 1.379 . S
C974 N981 1.356 . S
C975 C974 1.363 . S
C975 C978 1.363 . S
N976 C978 1.356 . S
N976 H988 0.984 . S
N976 H989 0.985 . S
N977 C979 1.356 . S
N977 H982 0.984 . S
N977 H983 0.985 . S
C978 C972 1.379 . S
C978 C975 1.363 . S
C978 N976 1.356 . S
C979 C973 1.363 . S
C979 C974 1.379 . S
C979 N977 1.356 . S
N980 C972 1.356 . S
N980 H986 0.984 . S
N980 H987 0.984 . S
N981 C974 1.356 . S
N981 H984 0.984 . S
N981 H985 0.985 . S
H982 N977 0.984 . S
H983 N977 0.985 . S
H984 N981 0.984 . S
H985 N981 0.985 . S
H986 N980 0.984 . S
H987 N980 0.984 . S
H988 N976 0.984 . S
H989 N976 0.985 . S
C990 C991 1.363 . S
C990 C996 1.379 . S
C990 N998 1.356 . S
C991 C990 1.363 . S
C991 C997 1.363 . S
C992 C993 1.363 . S
C992 C997 1.379 . S
C992 N999 1.356 . S
C993 C992 1.363 . S
C993 C996 1.363 . S
N994 C996 1.356 . S
N994 H1006 0.984 . S
N994 H1007 0.985 . S
N995 C997 1.362 . S
N995 H1000 0.981 1_455 S
N995 H1001 0.982 1_455 S
C996 C990 1.379 . S
C996 C993 1.363 . S
C996 N994 1.356 . S
C997 C991 1.363 . S
C997 C992 1.379 . S
C997 N995 1.362 . S
N998 C990 1.356 . S
N998 H1004 0.984 . S
N998 H1005 0.984 . S
N999 C992 1.356 . S
N999 H1002 0.984 . S
N999 H1003 0.985 . S
H1000 N995 0.981 1_655 S
H1001 N995 0.982 1_655 S
H1002 N999 0.984 . S
H1003 N999 0.985 . S
H1004 N998 0.984 . S
H1005 N998 0.984 . S
H1006 N994 0.984 . S
H1007 N994 0.985 . S
C1008 C1009 1.363 . S
C1008 C1014 1.379 . S
C1008 N1016 1.356 . S
C1009 C1008 1.363 . S
C1009 C1015 1.363 . S
C1010 C1011 1.363 . S
C1010 C1015 1.379 . S
C1010 N1017 1.356 . S
C1011 C1010 1.363 . S
C1011 C1014 1.363 . S
N1012 C1014 1.356 . S
N1012 H1024 0.984 . S
N1012 H1025 0.985 . S
N1013 C1015 1.356 . S
N1013 H1018 0.984 . S
N1013 H1019 0.985 . S
C1014 C1008 1.379 . S
C1014 C1011 1.363 . S
C1014 N1012 1.356 . S
C1015 C1009 1.363 . S
C1015 C1010 1.379 . S
C1015 N1013 1.356 . S
N1016 C1008 1.356 . S
N1016 H1022 0.984 . S
N1016 H1023 0.984 . S
N1017 C1010 1.356 . S
N1017 H1020 0.984 . S
N1017 H1021 0.985 . S
H1018 N1013 0.984 . S
H1019 N1013 0.985 . S
H1020 N1017 0.984 . S
H1021 N1017 0.985 . S
H1022 N1016 0.984 . S
H1023 N1016 0.984 . S
H1024 N1012 0.984 . S
H1025 N1012 0.985 . S
C1026 C1027 1.363 . S
C1026 C1032 1.379 . S
C1026 N1034 1.356 . S
C1027 C1026 1.363 . S
C1027 C1033 1.363 . S
C1028 C1029 1.363 . S
C1028 C1033 1.379 . S
C1028 N1035 1.356 . S
C1029 C1028 1.363 . S
C1029 C1032 1.363 . S
N1030 C1032 1.356 . S
N1030 H1042 0.984 . S
N1030 H1043 0.985 . S
N1031 C1033 1.356 1_545 S
N1031 H1036 0.984 . S
N1031 H1037 0.985 . S
C1032 C1026 1.379 . S
C1032 C1029 1.363 . S
C1032 N1030 1.356 . S
C1033 C1027 1.363 . S
C1033 C1028 1.379 . S
C1033 N1031 1.356 1_565 S
N1034 C1026 1.356 . S
N1034 H1040 0.984 . S
N1034 H1041 0.984 . S
N1035 C1028 1.356 . S
N1035 H1038 0.984 . S
N1035 H1039 0.985 1_565 S
H1036 N1031 0.984 . S
H1037 N1031 0.985 . S
H1038 N1035 0.984 . S
H1039 N1035 0.985 1_545 S
H1040 N1034 0.984 . S
H1041 N1034 0.984 . S
H1042 N1030 0.984 . S
H1043 N1030 0.985 . S
C1044 C1045 1.363 . S
C1044 C1050 1.379 . S
C1044 N1052 1.356 . S
C1045 C1044 1.363 . S
C1045 C1051 1.363 . S
C1046 C1047 1.363 . S
C1046 C1051 1.379 . S
C1046 N1053 1.356 . S
C1047 C1046 1.363 . S
C1047 C1050 1.363 . S
N1048 C1050 1.356 . S
N1048 H1060 0.984 . S
N1048 H1061 0.985 . S
N1049 C1051 1.356 . S
N1049 H1054 0.984 . S
N1049 H1055 0.985 . S
C1050 C1044 1.379 . S
C1050 C1047 1.363 . S
C1050 N1048 1.356 . S
C1051 C1045 1.363 . S
C1051 C1046 1.379 . S
C1051 N1049 1.356 . S
N1052 C1044 1.356 . S
N1052 H1058 0.984 . S
N1052 H1059 0.984 . S
N1053 C1046 1.356 . S
N1053 H1056 0.984 . S
N1053 H1057 0.985 . S
H1054 N1049 0.984 . S
H1055 N1049 0.985 . S
H1056 N1053 0.984 . S
H1057 N1053 0.985 . S
H1058 N1052 0.984 . S
H1059 N1052 0.984 . S
H1060 N1048 0.984 . S
H1061 N1048 0.985 . S
C1062 C1063 1.363 1_565 S
C1062 C1068 1.379 . S
C1062 N1070 1.356 1_565 S
C1063 C1062 1.363 1_545 S
C1063 C1069 1.363 . S
C1064 C1065 1.363 1_545 S
C1064 C1069 1.379 . S
C1064 N1071 1.356 1_545 S
C1065 C1064 1.363 1_565 S
C1065 C1068 1.363 . S
N1066 C1068 1.356 . S
N1066 H1078 0.984 . S
N1066 H1079 0.985 . S
N1067 C1069 1.356 . S
N1067 H1072 0.984 . S
N1067 H1073 0.985 . S
C1068 C1062 1.379 . S
C1068 C1065 1.363 . S
C1068 N1066 1.356 . S
C1069 C1063 1.363 . S
C1069 C1064 1.379 . S
C1069 N1067 1.356 . S
N1070 C1062 1.356 1_545 S
N1070 H1076 0.984 1_545 S
N1070 H1077 0.984 . S
N1071 C1064 1.356 1_565 S
N1071 H1074 0.984 . S
N1071 H1075 0.985 1_565 S
H1072 N1067 0.984 . S
H1073 N1067 0.985 . S
H1074 N1071 0.984 . S
H1075 N1071 0.985 1_545 S
H1076 N1070 0.984 1_565 S
H1077 N1070 0.984 . S
H1078 N1066 0.984 . S
H1079 N1066 0.985 . S
C1080 C1081 1.362 1_455 S
C1080 C1086 1.380 . S
C1080 N1088 1.356 1_455 S
C1081 C1080 1.362 1_655 S
C1081 C1087 1.363 . S
C1082 C1083 1.362 1_655 S
C1082 C1087 1.381 . S
C1082 N1089 1.355 1_655 S
C1083 C1082 1.362 1_455 S
C1083 C1086 1.363 . S
N1084 C1086 1.356 . S
N1084 H1096 0.984 . S
N1084 H1097 0.985 . S
N1085 C1087 1.356 . S
N1085 H1090 0.984 . S
N1085 H1091 0.985 . S
C1086 C1080 1.380 . S
C1086 C1083 1.363 . S
C1086 N1084 1.356 . S
C1087 C1081 1.363 . S
C1087 C1082 1.381 . S
C1087 N1085 1.356 . S
N1088 C1080 1.356 1_655 S
N1088 H1094 0.984 1_655 S
N1088 H1095 0.984 . S
N1089 C1082 1.355 1_455 S
N1089 H1092 0.984 . S
N1089 H1093 0.985 1_455 S
H1090 N1085 0.984 . S
H1091 N1085 0.985 . S
H1092 N1089 0.984 . S
H1093 N1089 0.985 1_655 S
H1094 N1088 0.984 1_455 S
H1095 N1088 0.984 . S
H1096 N1084 0.984 . S
H1097 N1084 0.985 . S
C1098 C1099 1.363 . S
C1098 C1104 1.379 . S
C1098 N1106 1.356 . S
C1099 C1098 1.363 . S
C1099 C1105 1.363 . S
C1100 C1101 1.363 . S
C1100 C1105 1.379 . S
C1100 N1107 1.356 . S
C1101 C1100 1.363 . S
C1101 C1104 1.363 . S
N1102 C1104 1.356 . S
N1102 H1114 0.984 . S
N1102 H1115 0.985 . S
N1103 C1105 1.356 . S
N1103 H1108 0.984 . S
N1103 H1109 0.985 . S
C1104 C1098 1.379 . S
C1104 C1101 1.363 . S
C1104 N1102 1.356 . S
C1105 C1099 1.363 . S
C1105 C1100 1.379 . S
C1105 N1103 1.356 . S
N1106 C1098 1.356 . S
N1106 H1112 0.984 . S
N1106 H1113 0.984 . S
N1107 C1100 1.356 . S
N1107 H1110 0.984 . S
N1107 H1111 0.985 . S
H1108 N1103 0.984 . S
H1109 N1103 0.985 . S
H1110 N1107 0.984 . S
H1111 N1107 0.985 . S
H1112 N1106 0.984 . S
H1113 N1106 0.984 . S
H1114 N1102 0.984 . S
H1115 N1102 0.985 . S
C1116 C1117 1.363 . S
C1116 C1122 1.379 1_565 S
C1116 N1124 1.356 . S
C1117 C1116 1.363 . S
C1117 C1123 1.363 . S
C1118 C1119 1.363 . S
C1118 C1123 1.379 1_545 S
C1118 N1125 1.356 . S
C1119 C1118 1.363 . S
C1119 C1122 1.363 . S
N1120 C1122 1.356 . S
N1120 H1132 0.984 . S
N1120 H1133 0.985 . S
N1121 C1123 1.356 . S
N1121 H1126 0.984 . S
N1121 H1127 0.985 . S
C1122 C1116 1.379 1_545 S
C1122 C1119 1.363 . S
C1122 N1120 1.356 . S
C1123 C1117 1.363 . S
C1123 C1118 1.379 1_565 S
C1123 N1121 1.356 . S
N1124 C1116 1.356 . S
N1124 H1130 0.984 . S
N1124 H1131 0.984 . S
N1125 C1118 1.356 . S
N1125 H1128 0.984 . S
N1125 H1129 0.985 . S
H1126 N1121 0.984 . S
H1127 N1121 0.985 . S
H1128 N1125 0.984 . S
H1129 N1125 0.985 . S
H1130 N1124 0.984 . S
H1131 N1124 0.984 . S
H1132 N1120 0.984 . S
H1133 N1120 0.985 . S
C1134 C1135 1.363 . S
C1134 C1140 1.395 . S
C1134 N1142 1.356 . S
C1135 C1134 1.363 . S
C1135 C1141 1.350 1_655 S
C1136 C1137 1.363 . S
C1136 C1141 1.395 . S
C1136 N1143 1.356 . S
C1137 C1136 1.363 . S
C1137 C1140 1.350 1_455 S
N1138 C1140 1.348 1_455 S
N1138 H1150 0.984 1_455 S
N1138 H1151 0.985 . S
N1139 C1141 1.348 1_655 S
N1139 H1144 0.984 . S
N1139 H1145 0.985 1_655 S
C1140 C1134 1.395 . S
C1140 C1137 1.350 1_655 S
C1140 N1138 1.348 1_655 S
C1141 C1135 1.350 1_455 S
C1141 C1136 1.395 . S
C1141 N1139 1.348 1_455 S
N1142 C1134 1.356 . S
N1142 H1148 0.984 . S
N1142 H1149 0.984 . S
N1143 C1136 1.356 . S
N1143 H1146 0.984 . S
N1143 H1147 0.985 . S
H1144 N1139 0.984 . S
H1145 N1139 0.985 1_455 S
H1146 N1143 0.984 . S
H1147 N1143 0.985 . S
H1148 N1142 0.984 . S
H1149 N1142 0.984 . S
H1150 N1138 0.984 1_655 S
H1151 N1138 0.985 . S
C1152 C1153 1.363 . S
C1152 C1158 1.379 . S
C1152 N1160 1.356 . S
C1153 C1152 1.363 . S
C1153 C1159 1.363 . S
C1154 C1155 1.363 . S
C1154 C1159 1.379 . S
C1154 N1161 1.356 . S
C1155 C1154 1.363 . S
C1155 C1158 1.363 . S
N1156 C1158 1.356 . S
N1156 H1168 0.984 . S
N1156 H1169 0.985 . S
N1157 C1159 1.356 . S
N1157 H1162 0.984 . S
N1157 H1163 0.985 . S
C1158 C1152 1.379 . S
C1158 C1155 1.363 . S
C1158 N1156 1.356 . S
C1159 C1153 1.363 . S
C1159 C1154 1.379 . S
C1159 N1157 1.356 . S
N1160 C1152 1.356 . S
N1160 H1166 0.984 . S
N1160 H1167 0.984 . S
N1161 C1154 1.356 . S
N1161 H1164 0.984 . S
N1161 H1165 0.985 . S
H1162 N1157 0.984 . S
H1163 N1157 0.985 . S
H1164 N1161 0.984 . S
H1165 N1161 0.985 . S
H1166 N1160 0.984 . S
H1167 N1160 0.984 . S
H1168 N1156 0.984 . S
H1169 N1156 0.985 . S
C1170 C1171 1.363 1_565 S
C1170 C1176 1.379 . S
C1170 N1178 1.356 1_565 S
C1171 C1170 1.363 1_545 S
C1171 C1177 1.363 . S
C1172 C1173 1.363 . S
C1172 C1177 1.379 1_565 S
C1172 N1179 1.356 . S
C1173 C1172 1.363 . S
C1173 C1176 1.363 . S
N1174 C1176 1.356 . S
N1174 H1186 0.984 . S
N1174 H1187 0.985 . S
N1175 C1177 1.356 . S
N1175 H1180 0.984 . S
N1175 H1181 0.985 . S
C1176 C1170 1.379 . S
C1176 C1173 1.363 . S
C1176 N1174 1.356 . S
C1177 C1171 1.363 . S
C1177 C1172 1.379 1_545 S
C1177 N1175 1.356 . S
N1178 C1170 1.356 1_545 S
N1178 H1184 0.984 . S
N1178 H1185 0.984 . S
N1179 C1172 1.356 . S
N1179 H1182 0.984 . S
N1179 H1183 0.985 . S
H1180 N1175 0.984 . S
H1181 N1175 0.985 . S
H1182 N1179 0.984 . S
H1183 N1179 0.985 . S
H1184 N1178 0.984 . S
H1185 N1178 0.984 . S
H1186 N1174 0.984 . S
H1187 N1174 0.985 . S
C1188 C1189 1.363 . S
C1188 C1194 1.379 1_655 S
C1188 N1196 1.356 . S
C1189 C1188 1.363 . S
C1189 C1195 1.363 1_655 S
C1190 C1191 1.363 . S
C1190 C1195 1.379 . S
C1190 N1197 1.356 . S
C1191 C1190 1.363 . S
C1191 C1194 1.363 . S
N1192 C1194 1.356 . S
N1192 H1204 0.984 . S
N1192 H1205 0.985 . S
N1193 C1195 1.356 1_655 S
N1193 H1198 0.984 . S
N1193 H1199 0.985 . S
C1194 C1188 1.379 1_455 S
C1194 C1191 1.363 . S
C1194 N1192 1.356 . S
C1195 C1189 1.363 1_455 S
C1195 C1190 1.379 . S
C1195 N1193 1.356 1_455 S
N1196 C1188 1.356 . S
N1196 H1202 0.984 . S
N1196 H1203 0.984 . S
N1197 C1190 1.356 . S
N1197 H1200 0.984 . S
N1197 H1201 0.985 . S
H1198 N1193 0.984 . S
H1199 N1193 0.985 . S
H1200 N1197 0.984 . S
H1201 N1197 0.985 . S
H1202 N1196 0.984 . S
H1203 N1196 0.984 . S
H1204 N1192 0.984 . S
H1205 N1192 0.985 . S
C1206 C1207 1.363 . S
C1206 C1212 1.379 . S
C1206 N1214 1.356 . S
C1207 C1206 1.363 . S
C1207 C1213 1.363 . S
C1208 C1209 1.363 . S
C1208 C1213 1.379 . S
C1208 N1215 1.356 . S
C1209 C1208 1.363 . S
C1209 C1212 1.363 . S
N1210 C1212 1.356 . S
N1210 H1222 0.984 . S
N1210 H1223 0.985 . S
N1211 C1213 1.356 . S
N1211 H1216 0.984 . S
N1211 H1217 0.985 . S
C1212 C1206 1.379 . S
C1212 C1209 1.363 . S
C1212 N1210 1.356 . S
C1213 C1207 1.363 . S
C1213 C1208 1.379 . S
C1213 N1211 1.356 . S
N1214 C1206 1.356 . S
N1214 H1220 0.984 . S
N1214 H1221 0.984 . S
N1215 C1208 1.356 . S
N1215 H1218 0.984 . S
N1215 H1219 0.985 . S
H1216 N1211 0.984 . S
H1217 N1211 0.985 . S
H1218 N1215 0.984 . S
H1219 N1215 0.985 . S
H1220 N1214 0.984 . S
H1221 N1214 0.984 . S
H1222 N1210 0.984 . S
H1223 N1210 0.985 . S
C1224 C1225 1.363 . S
C1224 C1230 1.379 . S
C1224 N1232 1.356 . S
C1225 C1224 1.363 . S
C1225 C1231 1.363 . S
C1226 C1227 1.363 . S
C1226 C1231 1.379 1_565 S
C1226 N1233 1.356 . S
C1227 C1226 1.363 . S
C1227 C1230 1.362 1_565 S
N1228 C1230 1.356 1_565 S
N1228 H1240 0.984 . S
N1228 H1241 0.985 . S
N1229 C1231 1.356 . S
N1229 H1234 0.984 . S
N1229 H1235 0.985 . S
C1230 C1224 1.379 . S
C1230 C1227 1.362 1_545 S
C1230 N1228 1.356 1_545 S
C1231 C1225 1.363 . S
C1231 C1226 1.379 1_545 S
C1231 N1229 1.356 . S
N1232 C1224 1.356 . S
N1232 H1238 0.984 . S
N1232 H1239 0.984 . S
N1233 C1226 1.356 . S
N1233 H1236 0.984 . S
N1233 H1237 0.985 . S
H1234 N1229 0.984 . S
H1235 N1229 0.985 . S
H1236 N1233 0.984 . S
H1237 N1233 0.985 . S
H1238 N1232 0.984 . S
H1239 N1232 0.984 . S
H1240 N1228 0.984 . S
H1241 N1228 0.985 . S
C1242 C1243 1.363 1_655 S
C1242 C1248 1.379 . S
C1242 N1250 1.356 1_655 S
C1243 C1242 1.363 1_455 S
C1243 C1249 1.363 . S
C1244 C1245 1.363 . S
C1244 C1249 1.379 1_655 S
C1244 N1251 1.356 . S
C1245 C1244 1.363 . S
C1245 C1248 1.363 . S
N1246 C1248 1.356 . S
N1246 H1258 0.984 . S
N1246 H1259 0.985 . S
N1247 C1249 1.356 . S
N1247 H1252 0.984 . S
N1247 H1253 0.985 . S
C1248 C1242 1.379 . S
C1248 C1245 1.363 . S
C1248 N1246 1.356 . S
C1249 C1243 1.363 . S
C1249 C1244 1.379 1_455 S
C1249 N1247 1.356 . S
N1250 C1242 1.356 1_455 S
N1250 H1256 0.984 . S
N1250 H1257 0.984 . S
N1251 C1244 1.356 . S
N1251 H1254 0.984 . S
N1251 H1255 0.985 . S
H1252 N1247 0.984 . S
H1253 N1247 0.985 . S
H1254 N1251 0.984 . S
H1255 N1251 0.985 . S
H1256 N1250 0.984 . S
H1257 N1250 0.984 . S
H1258 N1246 0.984 . S
H1259 N1246 0.985 . S
C1260 C1261 1.363 . S
C1260 C1266 1.379 . S
C1260 N1268 1.356 . S
C1261 C1260 1.363 . S
C1261 C1267 1.363 . S
C1262 C1263 1.363 . S
C1262 C1267 1.379 . S
C1262 N1269 1.356 . S
C1263 C1262 1.363 . S
C1263 C1266 1.363 . S
N1264 C1266 1.356 . S
N1264 H1276 0.984 . S
N1264 H1277 0.985 . S
N1265 C1267 1.356 . S
N1265 H1270 0.984 . S
N1265 H1271 0.985 . S
C1266 C1260 1.379 . S
C1266 C1263 1.363 . S
C1266 N1264 1.356 . S
C1267 C1261 1.363 . S
C1267 C1262 1.379 . S
C1267 N1265 1.356 . S
N1268 C1260 1.356 . S
N1268 H1274 0.984 . S
N1268 H1275 0.984 . S
N1269 C1262 1.356 . S
N1269 H1272 0.984 . S
N1269 H1273 0.985 . S
H1270 N1265 0.984 . S
H1271 N1265 0.985 . S
H1272 N1269 0.984 . S
H1273 N1269 0.985 . S
H1274 N1268 0.984 . S
H1275 N1268 0.984 . S
H1276 N1264 0.984 . S
H1277 N1264 0.985 . S
C1278 C1279 1.363 . S
C1278 C1284 1.379 1_565 S
C1278 N1286 1.356 . S
C1279 C1278 1.363 . S
C1279 C1285 1.361 1_565 S
C1280 C1281 1.363 . S
C1280 C1285 1.385 . S
C1280 N1287 1.356 . S
C1281 C1280 1.363 . S
C1281 C1284 1.363 . S
N1282 C1284 1.356 . S
N1282 H1294 0.984 . S
N1282 H1295 0.985 . S
N1283 C1285 1.350 1_565 S
N1283 H1288 0.984 . S
N1283 H1289 0.985 . S
C1284 C1278 1.379 1_545 S
C1284 C1281 1.363 . S
C1284 N1282 1.356 . S
C1285 C1279 1.361 1_545 S
C1285 C1280 1.385 . S
C1285 N1283 1.350 1_545 S
N1286 C1278 1.356 . S
N1286 H1292 0.984 . S
N1286 H1293 0.984 . S
N1287 C1280 1.356 . S
N1287 H1290 0.984 . S
N1287 H1291 0.985 . S
H1288 N1283 0.984 . S
H1289 N1283 0.985 . S
H1290 N1287 0.984 . S
H1291 N1287 0.985 . S
H1292 N1286 0.984 . S
H1293 N1286 0.984 . S
H1294 N1282 0.984 . S
H1295 N1282 0.985 . S
C1296 C1297 1.363 . S
C1296 C1302 1.379 1_455 S
C1296 N1304 1.356 . S
C1297 C1296 1.363 . S
C1297 C1303 1.352 1_455 S
C1298 C1299 1.363 . S
C1298 C1303 1.390 . S
C1298 N1305 1.356 . S
C1299 C1298 1.363 . S
C1299 C1302 1.363 . S
N1300 C1302 1.356 . S
N1300 H1312 0.984 . S
N1300 H1313 0.985 . S
N1301 C1303 1.351 1_455 S
N1301 H1306 0.984 . S
N1301 H1307 0.985 . S
C1302 C1296 1.379 1_655 S
C1302 C1299 1.363 . S
C1302 N1300 1.356 . S
C1303 C1297 1.352 1_655 S
C1303 C1298 1.390 . S
C1303 N1301 1.351 1_655 S
N1304 C1296 1.356 . S
N1304 H1310 0.984 . S
N1304 H1311 0.984 . S
N1305 C1298 1.356 . S
N1305 H1308 0.984 . S
N1305 H1309 0.985 . S
H1306 N1301 0.984 . S
H1307 N1301 0.985 . S
H1308 N1305 0.984 . S
H1309 N1305 0.985 . S
H1310 N1304 0.984 . S
H1311 N1304 0.984 . S
H1312 N1300 0.984 . S
H1313 N1300 0.985 . S
C1314 C1315 1.363 . S
C1314 C1320 1.379 . S
C1314 N1322 1.356 . S
C1315 C1314 1.363 . S
C1315 C1321 1.363 . S
C1316 C1317 1.363 . S
C1316 C1321 1.379 . S
C1316 N1323 1.356 . S
C1317 C1316 1.363 . S
C1317 C1320 1.363 . S
N1318 C1320 1.356 . S
N1318 H1330 0.984 . S
N1318 H1331 0.985 . S
N1319 C1321 1.356 . S
N1319 H1324 0.984 . S
N1319 H1325 0.985 . S
C1320 C1314 1.379 . S
C1320 C1317 1.363 . S
C1320 N1318 1.356 . S
C1321 C1315 1.363 . S
C1321 C1316 1.379 . S
C1321 N1319 1.356 . S
N1322 C1314 1.356 . S
N1322 H1328 0.984 . S
N1322 H1329 0.984 . S
N1323 C1316 1.356 . S
N1323 H1326 0.984 . S
N1323 H1327 0.985 . S
H1324 N1319 0.984 . S
H1325 N1319 0.985 . S
H1326 N1323 0.984 . S
H1327 N1323 0.985 . S
H1328 N1322 0.984 . S
H1329 N1322 0.984 . S
H1330 N1318 0.984 . S
H1331 N1318 0.985 . S
C1332 C1333 1.363 . S
C1332 C1338 1.379 1_545 S
C1332 N1340 1.356 . S
C1333 C1332 1.363 . S
C1333 C1339 1.350 1_545 S
C1334 C1335 1.363 . S
C1334 C1339 1.393 . S
C1334 N1341 1.356 . S
C1335 C1334 1.363 . S
C1335 C1338 1.363 . S
N1336 C1338 1.356 . S
N1336 H1348 0.984 . S
N1336 H1349 0.985 . S
N1337 C1339 1.350 1_545 S
N1337 H1342 0.984 . S
N1337 H1343 0.985 . S
C1338 C1332 1.379 1_565 S
C1338 C1335 1.363 . S
C1338 N1336 1.356 . S
C1339 C1333 1.350 1_565 S
C1339 C1334 1.393 . S
C1339 N1337 1.350 1_565 S
N1340 C1332 1.356 . S
N1340 H1346 0.984 . S
N1340 H1347 0.984 . S
N1341 C1334 1.356 . S
N1341 H1344 0.984 . S
N1341 H1345 0.985 . S
H1342 N1337 0.984 . S
H1343 N1337 0.985 . S
H1344 N1341 0.984 . S
H1345 N1341 0.985 . S
H1346 N1340 0.984 . S
H1347 N1340 0.984 . S
H1348 N1336 0.984 . S
H1349 N1336 0.985 . S
C1350 C1351 1.363 . S
C1350 C1356 1.394 . S
C1350 N1358 1.356 . S
C1351 C1350 1.363 . S
C1351 C1357 1.363 . S
C1352 C1353 1.363 . S
C1352 C1357 1.379 1_655 S
C1352 N1359 1.356 . S
C1353 C1352 1.363 . S
C1353 C1356 1.359 1_655 S
N1354 C1356 1.342 1_655 S
N1354 H1366 0.984 . S
N1354 H1367 0.985 . S
N1355 C1357 1.356 . S
N1355 H1360 0.984 . S
N1355 H1361 0.985 . S
C1356 C1350 1.394 . S
C1356 C1353 1.359 1_455 S
C1356 N1354 1.342 1_455 S
C1357 C1351 1.363 . S
C1357 C1352 1.379 1_455 S
C1357 N1355 1.356 . S
N1358 C1350 1.356 . S
N1358 H1364 0.984 . S
N1358 H1365 0.984 . S
N1359 C1352 1.356 . S
N1359 H1362 0.984 . S
N1359 H1363 0.985 . S
H1360 N1355 0.984 . S
H1361 N1355 0.985 . S
H1362 N1359 0.984 . S
H1363 N1359 0.985 . S
H1364 N1358 0.984 . S
H1365 N1358 0.984 . S
H1366 N1354 0.984 . S
H1367 N1354 0.985 . S
C1368 C1369 1.363 . S
C1368 C1374 1.379 . S
C1368 N1376 1.356 . S
C1369 C1368 1.363 . S
C1369 C1375 1.363 . S
C1370 C1371 1.363 . S
C1370 C1375 1.379 . S
C1370 N1377 1.356 . S
C1371 C1370 1.363 . S
C1371 C1374 1.363 . S
N1372 C1374 1.356 . S
N1372 H1384 0.984 . S
N1372 H1385 0.985 . S
N1373 C1375 1.356 . S
N1373 H1378 0.984 . S
N1373 H1379 0.985 . S
C1374 C1368 1.379 . S
C1374 C1371 1.363 . S
C1374 N1372 1.356 . S
C1375 C1369 1.363 . S
C1375 C1370 1.379 . S
C1375 N1373 1.356 . S
N1376 C1368 1.356 . S
N1376 H1382 0.984 . S
N1376 H1383 0.984 . S
N1377 C1370 1.356 . S
N1377 H1380 0.984 . S
N1377 H1381 0.985 . S
H1378 N1373 0.984 . S
H1379 N1373 0.985 . S
H1380 N1377 0.984 . S
H1381 N1377 0.985 . S
H1382 N1376 0.984 . S
H1383 N1376 0.984 . S
H1384 N1372 0.984 . S
H1385 N1372 0.985 . S
C1386 C1387 1.363 . S
C1386 C1392 1.379 . S
C1386 N1394 1.356 . S
C1387 C1386 1.363 . S
C1387 C1393 1.363 . S
C1388 C1389 1.363 . S
C1388 C1393 1.379 . S
C1388 N1395 1.356 . S
C1389 C1388 1.363 . S
C1389 C1392 1.363 . S
N1390 C1392 1.356 . S
N1390 H1402 0.984 . S
N1390 H1403 0.985 . S
N1391 C1393 1.356 . S
N1391 H1396 0.984 . S
N1391 H1397 0.985 . S
C1392 C1386 1.379 . S
C1392 C1389 1.363 . S
C1392 N1390 1.356 . S
C1393 C1387 1.363 . S
C1393 C1388 1.379 . S
C1393 N1391 1.356 . S
N1394 C1386 1.356 . S
N1394 H1400 0.984 . S
N1394 H1401 0.984 . S
N1395 C1388 1.356 . S
N1395 H1398 0.984 . S
N1395 H1399 0.985 . S
H1396 N1391 0.984 . S
H1397 N1391 0.985 . S
H1398 N1395 0.984 . S
H1399 N1395 0.985 . S
H1400 N1394 0.984 . S
H1401 N1394 0.984 . S
H1402 N1390 0.984 . S
H1403 N1390 0.985 . S
C1404 C1405 1.363 . S
C1404 C1410 1.379 . S
C1404 N1412 1.356 . S
C1405 C1404 1.363 . S
C1405 C1411 1.363 . S
C1406 C1407 1.363 . S
C1406 C1411 1.379 . S
C1406 N1413 1.356 . S
C1407 C1406 1.363 . S
C1407 C1410 1.363 . S
N1408 C1410 1.356 . S
N1408 H1420 0.984 . S
N1408 H1421 0.985 . S
N1409 C1411 1.356 . S
N1409 H1414 0.984 . S
N1409 H1415 0.985 . S
C1410 C1404 1.379 . S
C1410 C1407 1.363 . S
C1410 N1408 1.356 . S
C1411 C1405 1.363 . S
C1411 C1406 1.379 . S
C1411 N1409 1.356 . S
N1412 C1404 1.356 . S
N1412 H1418 0.984 . S
N1412 H1419 0.984 . S
N1413 C1406 1.356 . S
N1413 H1416 0.984 . S
N1413 H1417 0.985 . S
H1414 N1409 0.984 . S
H1415 N1409 0.985 . S
H1416 N1413 0.984 . S
H1417 N1413 0.985 . S
H1418 N1412 0.984 . S
H1419 N1412 0.984 . S
H1420 N1408 0.984 . S
H1421 N1408 0.985 . S
C1422 C1423 1.363 . S
C1422 C1428 1.379 . S
C1422 N1430 1.356 . S
C1423 C1422 1.363 . S
C1423 C1429 1.363 . S
C1424 C1425 1.363 . S
C1424 C1429 1.379 . S
C1424 N1431 1.356 . S
C1425 C1424 1.363 . S
C1425 C1428 1.363 . S
N1426 C1428 1.356 . S
N1426 H1438 0.984 . S
N1426 H1439 0.985 . S
N1427 C1429 1.356 . S
N1427 H1432 0.984 . S
N1427 H1433 0.985 . S
C1428 C1422 1.379 . S
C1428 C1425 1.363 . S
C1428 N1426 1.356 . S
C1429 C1423 1.363 . S
C1429 C1424 1.379 . S
C1429 N1427 1.356 . S
N1430 C1422 1.356 . S
N1430 H1436 0.984 . S
N1430 H1437 0.984 . S
N1431 C1424 1.356 . S
N1431 H1434 0.984 . S
N1431 H1435 0.985 . S
H1432 N1427 0.984 . S
H1433 N1427 0.985 . S
H1434 N1431 0.984 . S
H1435 N1431 0.985 . S
H1436 N1430 0.984 . S
H1437 N1430 0.984 . S
H1438 N1426 0.984 . S
H1439 N1426 0.985 . S
C1440 C1441 1.363 . S
C1440 C1446 1.379 . S
C1440 N1448 1.356 . S
C1441 C1440 1.363 . S
C1441 C1447 1.363 . S
C1442 C1443 1.363 . S
C1442 C1447 1.379 . S
C1442 N1449 1.356 . S
C1443 C1442 1.363 . S
C1443 C1446 1.363 . S
N1444 C1446 1.356 . S
N1444 H1456 0.984 . S
N1444 H1457 0.985 . S
N1445 C1447 1.356 . S
N1445 H1450 0.984 . S
N1445 H1451 0.985 . S
C1446 C1440 1.379 . S
C1446 C1443 1.363 . S
C1446 N1444 1.356 . S
C1447 C1441 1.363 . S
C1447 C1442 1.379 . S
C1447 N1445 1.356 . S
N1448 C1440 1.356 . S
N1448 H1454 0.984 . S
N1448 H1455 0.984 . S
N1449 C1442 1.356 . S
N1449 H1452 0.984 . S
N1449 H1453 0.985 . S
H1450 N1445 0.984 . S
H1451 N1445 0.985 . S
H1452 N1449 0.984 . S
H1453 N1449 0.985 . S
H1454 N1448 0.984 . S
H1455 N1448 0.984 . S
H1456 N1444 0.984 . S
H1457 N1444 0.985 . S
C1458 C1459 1.363 . S
C1458 C1464 1.379 . S
C1458 N1466 1.356 . S
C1459 C1458 1.363 . S
C1459 C1465 1.363 . S
C1460 C1461 1.363 . S
C1460 C1465 1.379 . S
C1460 N1467 1.356 . S
C1461 C1460 1.363 . S
C1461 C1464 1.363 . S
N1462 C1464 1.356 . S
N1462 H1474 0.984 . S
N1462 H1475 0.985 . S
N1463 C1465 1.356 . S
N1463 H1468 0.984 . S
N1463 H1469 0.985 . S
C1464 C1458 1.379 . S
C1464 C1461 1.363 . S
C1464 N1462 1.356 . S
C1465 C1459 1.363 . S
C1465 C1460 1.379 . S
C1465 N1463 1.356 . S
N1466 C1458 1.356 . S
N1466 H1472 0.984 . S
N1466 H1473 0.984 . S
N1467 C1460 1.356 . S
N1467 H1470 0.984 . S
N1467 H1471 0.985 . S
H1468 N1463 0.984 . S
H1469 N1463 0.985 . S
H1470 N1467 0.984 . S
H1471 N1467 0.985 . S
H1472 N1466 0.984 . S
H1473 N1466 0.984 . S
H1474 N1462 0.984 . S
H1475 N1462 0.985 . S
C1476 C1477 1.363 . S
C1476 C1482 1.379 . S
C1476 N1484 1.356 . S
C1477 C1476 1.363 . S
C1477 C1483 1.363 . S
C1478 C1479 1.363 . S
C1478 C1483 1.379 . S
C1478 N1485 1.356 . S
C1479 C1478 1.363 . S
C1479 C1482 1.363 . S
N1480 C1482 1.356 . S
N1480 H1492 0.984 . S
N1480 H1493 0.985 . S
N1481 C1483 1.356 . S
N1481 H1486 0.984 . S
N1481 H1487 0.985 . S
C1482 C1476 1.379 . S
C1482 C1479 1.363 . S
C1482 N1480 1.356 . S
C1483 C1477 1.363 . S
C1483 C1478 1.379 . S
C1483 N1481 1.356 . S
N1484 C1476 1.356 . S
N1484 H1490 0.984 . S
N1484 H1491 0.984 . S
N1485 C1478 1.356 . S
N1485 H1488 0.984 . S
N1485 H1489 0.985 . S
H1486 N1481 0.984 . S
H1487 N1481 0.985 . S
H1488 N1485 0.984 . S
H1489 N1485 0.985 . S
H1490 N1484 0.984 . S
H1491 N1484 0.984 . S
H1492 N1480 0.984 . S
H1493 N1480 0.985 . S
C1494 C1495 1.363 . S
C1494 C1500 1.379 . S
C1494 N1502 1.356 . S
C1495 C1494 1.363 . S
C1495 C1501 1.363 . S
C1496 C1497 1.363 . S
C1496 C1501 1.379 . S
C1496 N1503 1.356 . S
C1497 C1496 1.363 . S
C1497 C1500 1.363 . S
N1498 C1500 1.356 . S
N1498 H1510 0.984 . S
N1498 H1511 0.985 . S
N1499 C1501 1.356 . S
N1499 H1504 0.984 . S
N1499 H1505 0.985 . S
C1500 C1494 1.379 . S
C1500 C1497 1.363 . S
C1500 N1498 1.356 . S
C1501 C1495 1.363 . S
C1501 C1496 1.379 . S
C1501 N1499 1.356 . S
N1502 C1494 1.356 . S
N1502 H1508 0.984 . S
N1502 H1509 0.984 . S
N1503 C1496 1.356 . S
N1503 H1506 0.984 . S
N1503 H1507 0.985 . S
H1504 N1499 0.984 . S
H1505 N1499 0.985 . S
H1506 N1503 0.984 . S
H1507 N1503 0.985 . S
H1508 N1502 0.984 . S
H1509 N1502 0.984 . S
H1510 N1498 0.984 . S
H1511 N1498 0.985 . S
C1512 C1513 1.363 . S
C1512 C1518 1.379 . S
C1512 N1520 1.356 . S
C1513 C1512 1.363 . S
C1513 C1519 1.363 . S
C1514 C1515 1.363 . S
C1514 C1519 1.379 . S
C1514 N1521 1.356 . S
C1515 C1514 1.363 . S
C1515 C1518 1.363 . S
N1516 C1518 1.356 . S
N1516 H1528 0.984 . S
N1516 H1529 0.985 . S
N1517 C1519 1.356 . S
N1517 H1522 0.984 . S
N1517 H1523 0.985 . S
C1518 C1512 1.379 . S
C1518 C1515 1.363 . S
C1518 N1516 1.356 . S
C1519 C1513 1.363 . S
C1519 C1514 1.379 . S
C1519 N1517 1.356 . S
N1520 C1512 1.356 . S
N1520 H1526 0.984 . S
N1520 H1527 0.984 . S
N1521 C1514 1.356 . S
N1521 H1524 0.984 . S
N1521 H1525 0.985 . S
H1522 N1517 0.984 . S
H1523 N1517 0.985 . S
H1524 N1521 0.984 . S
H1525 N1521 0.985 . S
H1526 N1520 0.984 . S
H1527 N1520 0.984 . S
H1528 N1516 0.984 . S
H1529 N1516 0.985 . S
C1530 C1531 1.363 . S
C1530 C1536 1.379 . S
C1530 N1538 1.356 . S
C1531 C1530 1.363 . S
C1531 C1537 1.363 . S
C1532 C1533 1.363 . S
C1532 C1537 1.379 . S
C1532 N1539 1.356 . S
C1533 C1532 1.363 . S
C1533 C1536 1.363 . S
N1534 C1536 1.356 . S
N1534 H1546 0.984 . S
N1534 H1547 0.985 . S
N1535 C1537 1.356 . S
N1535 H1540 0.984 . S
N1535 H1541 0.985 . S
C1536 C1530 1.379 . S
C1536 C1533 1.363 . S
C1536 N1534 1.356 . S
C1537 C1531 1.363 . S
C1537 C1532 1.379 . S
C1537 N1535 1.356 . S
N1538 C1530 1.356 . S
N1538 H1544 0.984 . S
N1538 H1545 0.984 . S
N1539 C1532 1.356 . S
N1539 H1542 0.984 . S
N1539 H1543 0.985 . S
H1540 N1535 0.984 . S
H1541 N1535 0.985 . S
H1542 N1539 0.984 . S
H1543 N1539 0.985 . S
H1544 N1538 0.984 . S
H1545 N1538 0.984 . S
H1546 N1534 0.984 . S
H1547 N1534 0.985 . S
C1548 C1549 1.363 . S
C1548 C1554 1.379 . S
C1548 N1556 1.356 . S
C1549 C1548 1.363 . S
C1549 C1555 1.363 . S
C1550 C1551 1.363 . S
C1550 C1555 1.379 . S
C1550 N1557 1.356 . S
C1551 C1550 1.363 . S
C1551 C1554 1.363 . S
N1552 C1554 1.356 . S
N1552 H1564 0.984 . S
N1552 H1565 0.985 . S
N1553 C1555 1.356 . S
N1553 H1558 0.984 . S
N1553 H1559 0.985 . S
C1554 C1548 1.379 . S
C1554 C1551 1.363 . S
C1554 N1552 1.356 . S
C1555 C1549 1.363 . S
C1555 C1550 1.379 . S
C1555 N1553 1.356 . S
N1556 C1548 1.356 . S
N1556 H1562 0.984 . S
N1556 H1563 0.984 . S
N1557 C1550 1.356 . S
N1557 H1560 0.984 . S
N1557 H1561 0.985 . S
H1558 N1553 0.984 . S
H1559 N1553 0.985 . S
H1560 N1557 0.984 . S
H1561 N1557 0.985 . S
H1562 N1556 0.984 . S
H1563 N1556 0.984 . S
H1564 N1552 0.984 . S
H1565 N1552 0.985 . S
C1566 C1567 1.363 . S
C1566 C1572 1.379 . S
C1566 N1574 1.356 . S
C1567 C1566 1.363 . S
C1567 C1573 1.363 . S
C1568 C1569 1.363 . S
C1568 C1573 1.379 . S
C1568 N1575 1.356 . S
C1569 C1568 1.363 . S
C1569 C1572 1.363 . S
N1570 C1572 1.356 . S
N1570 H1582 0.984 . S
N1570 H1583 0.985 . S
N1571 C1573 1.356 . S
N1571 H1576 0.984 . S
N1571 H1577 0.985 . S
C1572 C1566 1.379 . S
C1572 C1569 1.363 . S
C1572 N1570 1.356 . S
C1573 C1567 1.363 . S
C1573 C1568 1.379 . S
C1573 N1571 1.356 . S
N1574 C1566 1.356 . S
N1574 H1580 0.984 . S
N1574 H1581 0.984 . S
N1575 C1568 1.356 . S
N1575 H1578 0.984 . S
N1575 H1579 0.985 . S
H1576 N1571 0.984 . S
H1577 N1571 0.985 . S
H1578 N1575 0.984 . S
H1579 N1575 0.985 . S
H1580 N1574 0.984 . S
H1581 N1574 0.984 . S
H1582 N1570 0.984 . S
H1583 N1570 0.985 . S
C1584 C1585 1.363 . S
C1584 C1590 1.379 . S
C1584 N1592 1.356 . S
C1585 C1584 1.363 . S
C1585 C1591 1.363 . S
C1586 C1587 1.363 . S
C1586 C1591 1.379 . S
C1586 N1593 1.356 . S
C1587 C1586 1.363 . S
C1587 C1590 1.363 . S
N1588 C1590 1.356 . S
N1588 H1600 0.984 . S
N1588 H1601 0.985 . S
N1589 C1591 1.356 . S
N1589 H1594 0.984 . S
N1589 H1595 0.985 . S
C1590 C1584 1.379 . S
C1590 C1587 1.363 . S
C1590 N1588 1.356 . S
C1591 C1585 1.363 . S
C1591 C1586 1.379 . S
C1591 N1589 1.356 . S
N1592 C1584 1.356 . S
N1592 H1598 0.984 . S
N1592 H1599 0.984 . S
N1593 C1586 1.356 . S
N1593 H1596 0.984 . S
N1593 H1597 0.985 . S
H1594 N1589 0.984 . S
H1595 N1589 0.985 . S
H1596 N1593 0.984 . S
H1597 N1593 0.985 . S
H1598 N1592 0.984 . S
H1599 N1592 0.984 . S
H1600 N1588 0.984 . S
H1601 N1588 0.985 . S
C1602 C1603 1.363 . S
C1602 C1608 1.379 . S
C1602 N1610 1.356 . S
C1603 C1602 1.363 . S
C1603 C1609 1.363 . S
C1604 C1605 1.363 . S
C1604 C1609 1.379 . S
C1604 N1611 1.356 . S
C1605 C1604 1.363 . S
C1605 C1608 1.363 . S
N1606 C1608 1.356 . S
N1606 H1618 0.984 . S
N1606 H1619 0.985 . S
N1607 C1609 1.356 . S
N1607 H1612 0.984 . S
N1607 H1613 0.985 . S
C1608 C1602 1.379 . S
C1608 C1605 1.363 . S
C1608 N1606 1.356 . S
C1609 C1603 1.363 . S
C1609 C1604 1.379 . S
C1609 N1607 1.356 . S
N1610 C1602 1.356 . S
N1610 H1616 0.984 . S
N1610 H1617 0.984 . S
N1611 C1604 1.356 . S
N1611 H1614 0.984 . S
N1611 H1615 0.985 . S
H1612 N1607 0.984 . S
H1613 N1607 0.985 . S
H1614 N1611 0.984 . S
H1615 N1611 0.985 . S
H1616 N1610 0.984 . S
H1617 N1610 0.984 . S
H1618 N1606 0.984 . S
H1619 N1606 0.985 . S
C1620 C1621 1.363 . S
C1620 C1626 1.379 . S
C1620 N1628 1.356 . S
C1621 C1620 1.363 . S
C1621 C1627 1.363 . S
C1622 C1623 1.363 . S
C1622 C1627 1.379 . S
C1622 N1629 1.356 . S
C1623 C1622 1.363 . S
C1623 C1626 1.363 . S
N1624 C1626 1.356 . S
N1624 H1636 0.984 . S
N1624 H1637 0.985 . S
N1625 C1627 1.356 . S
N1625 H1630 0.984 . S
N1625 H1631 0.985 . S
C1626 C1620 1.379 . S
C1626 C1623 1.363 . S
C1626 N1624 1.356 . S
C1627 C1621 1.363 . S
C1627 C1622 1.379 . S
C1627 N1625 1.356 . S
N1628 C1620 1.356 . S
N1628 H1634 0.984 . S
N1628 H1635 0.984 . S
N1629 C1622 1.356 . S
N1629 H1632 0.984 . S
N1629 H1633 0.985 . S
H1630 N1625 0.984 . S
H1631 N1625 0.985 . S
H1632 N1629 0.984 . S
H1633 N1629 0.985 . S
H1634 N1628 0.984 . S
H1635 N1628 0.984 . S
H1636 N1624 0.984 . S
H1637 N1624 0.985 . S
C1638 C1639 1.363 . S
C1638 C1644 1.379 . S
C1638 N1646 1.356 . S
C1639 C1638 1.363 . S
C1639 C1645 1.363 . S
C1640 C1641 1.363 . S
C1640 C1645 1.379 . S
C1640 N1647 1.356 . S
C1641 C1640 1.363 . S
C1641 C1644 1.363 . S
N1642 C1644 1.356 . S
N1642 H1654 0.984 . S
N1642 H1655 0.985 . S
N1643 C1645 1.356 . S
N1643 H1648 0.984 . S
N1643 H1649 0.985 . S
C1644 C1638 1.379 . S
C1644 C1641 1.363 . S
C1644 N1642 1.356 . S
C1645 C1639 1.363 . S
C1645 C1640 1.379 . S
C1645 N1643 1.356 . S
N1646 C1638 1.356 . S
N1646 H1652 0.984 . S
N1646 H1653 0.984 . S
N1647 C1640 1.356 . S
N1647 H1650 0.984 . S
N1647 H1651 0.985 . S
H1648 N1643 0.984 . S
H1649 N1643 0.985 . S
H1650 N1647 0.984 . S
H1651 N1647 0.985 . S
H1652 N1646 0.984 . S
H1653 N1646 0.984 . S
H1654 N1642 0.984 . S
H1655 N1642 0.985 . S
C1656 C1657 1.363 . S
C1656 C1662 1.379 . S
C1656 N1664 1.356 . S
C1657 C1656 1.363 . S
C1657 C1663 1.363 . S
C1658 C1659 1.363 . S
C1658 C1663 1.379 . S
C1658 N1665 1.356 . S
C1659 C1658 1.363 . S
C1659 C1662 1.363 . S
N1660 C1662 1.356 . S
N1660 H1672 0.984 . S
N1660 H1673 0.985 . S
N1661 C1663 1.356 . S
N1661 H1666 0.984 . S
N1661 H1667 0.985 . S
C1662 C1656 1.379 . S
C1662 C1659 1.363 . S
C1662 N1660 1.356 . S
C1663 C1657 1.363 . S
C1663 C1658 1.379 . S
C1663 N1661 1.356 . S
N1664 C1656 1.356 . S
N1664 H1670 0.984 . S
N1664 H1671 0.984 . S
N1665 C1658 1.356 . S
N1665 H1668 0.984 . S
N1665 H1669 0.985 . S
H1666 N1661 0.984 . S
H1667 N1661 0.985 . S
H1668 N1665 0.984 . S
H1669 N1665 0.985 . S
H1670 N1664 0.984 . S
H1671 N1664 0.984 . S
H1672 N1660 0.984 . S
H1673 N1660 0.985 . S
C1674 C1675 1.363 . S
C1674 C1680 1.379 . S
C1674 N1682 1.356 . S
C1675 C1674 1.363 . S
C1675 C1681 1.363 . S
C1676 C1677 1.363 . S
C1676 C1681 1.379 . S
C1676 N1683 1.356 . S
C1677 C1676 1.363 . S
C1677 C1680 1.363 . S
N1678 C1680 1.356 . S
N1678 H1690 0.984 . S
N1678 H1691 0.985 . S
N1679 C1681 1.356 . S
N1679 H1684 0.984 . S
N1679 H1685 0.985 . S
C1680 C1674 1.379 . S
C1680 C1677 1.363 . S
C1680 N1678 1.356 . S
C1681 C1675 1.363 . S
C1681 C1676 1.379 . S
C1681 N1679 1.356 . S
N1682 C1674 1.356 . S
N1682 H1688 0.984 . S
N1682 H1689 0.984 . S
N1683 C1676 1.356 . S
N1683 H1686 0.984 . S
N1683 H1687 0.985 . S
H1684 N1679 0.984 . S
H1685 N1679 0.985 . S
H1686 N1683 0.984 . S
H1687 N1683 0.985 . S
H1688 N1682 0.984 . S
H1689 N1682 0.984 . S
H1690 N1678 0.984 . S
H1691 N1678 0.985 . S
C1692 C1693 1.363 . S
C1692 C1698 1.379 . S
C1692 N1700 1.356 . S
C1693 C1692 1.363 . S
C1693 C1699 1.363 . S
C1694 C1695 1.363 . S
C1694 C1699 1.379 . S
C1694 N1701 1.356 . S
C1695 C1694 1.363 . S
C1695 C1698 1.363 . S
N1696 C1698 1.356 . S
N1696 H1708 0.984 . S
N1696 H1709 0.985 . S
N1697 C1699 1.356 . S
N1697 H1702 0.984 . S
N1697 H1703 0.985 . S
C1698 C1692 1.379 . S
C1698 C1695 1.363 . S
C1698 N1696 1.356 . S
C1699 C1693 1.363 . S
C1699 C1694 1.379 . S
C1699 N1697 1.356 . S
N1700 C1692 1.356 . S
N1700 H1706 0.984 . S
N1700 H1707 0.984 . S
N1701 C1694 1.356 . S
N1701 H1704 0.984 . S
N1701 H1705 0.985 . S
H1702 N1697 0.984 . S
H1703 N1697 0.985 . S
H1704 N1701 0.984 . S
H1705 N1701 0.985 . S
H1706 N1700 0.984 . S
H1707 N1700 0.984 . S
H1708 N1696 0.984 . S
H1709 N1696 0.985 . S
C1710 C1711 1.363 . S
C1710 C1716 1.379 . S
C1710 N1718 1.356 . S
C1711 C1710 1.363 . S
C1711 C1717 1.363 . S
C1712 C1713 1.363 . S
C1712 C1717 1.379 . S
C1712 N1719 1.356 . S
C1713 C1712 1.363 . S
C1713 C1716 1.363 . S
N1714 C1716 1.356 . S
N1714 H1726 0.984 . S
N1714 H1727 0.985 . S
N1715 C1717 1.356 . S
N1715 H1720 0.984 . S
N1715 H1721 0.985 . S
C1716 C1710 1.379 . S
C1716 C1713 1.363 . S
C1716 N1714 1.356 . S
C1717 C1711 1.363 . S
C1717 C1712 1.379 . S
C1717 N1715 1.356 . S
N1718 C1710 1.356 . S
N1718 H1724 0.984 . S
N1718 H1725 0.984 . S
N1719 C1712 1.356 . S
N1719 H1722 0.984 . S
N1719 H1723 0.985 . S
H1720 N1715 0.984 . S
H1721 N1715 0.985 . S
H1722 N1719 0.984 . S
H1723 N1719 0.985 . S
H1724 N1718 0.984 . S
H1725 N1718 0.984 . S
H1726 N1714 0.984 . S
H1727 N1714 0.985 . S
C1728 C1729 1.363 . S
C1728 C1734 1.379 . S
C1728 N1736 1.356 . S
C1729 C1728 1.363 . S
C1729 C1735 1.363 . S
C1730 C1731 1.363 . S
C1730 C1735 1.379 . S
C1730 N1737 1.356 . S
C1731 C1730 1.363 . S
C1731 C1734 1.363 . S
N1732 C1734 1.356 . S
N1732 H1744 0.984 . S
N1732 H1745 0.985 . S
N1733 C1735 1.356 . S
N1733 H1738 0.984 . S
N1733 H1739 0.985 . S
C1734 C1728 1.379 . S
C1734 C1731 1.363 . S
C1734 N1732 1.356 . S
C1735 C1729 1.363 . S
C1735 C1730 1.379 . S
C1735 N1733 1.356 . S
N1736 C1728 1.356 . S
N1736 H1742 0.984 . S
N1736 H1743 0.984 . S
N1737 C1730 1.356 . S
N1737 H1740 0.984 . S
N1737 H1741 0.985 . S
H1738 N1733 0.984 . S
H1739 N1733 0.985 . S
H1740 N1737 0.984 . S
H1741 N1737 0.985 . S
H1742 N1736 0.984 . S
H1743 N1736 0.984 . S
H1744 N1732 0.984 . S
H1745 N1732 0.985 . S
C1746 C1747 1.363 . S
C1746 C1752 1.379 . S
C1746 N1754 1.356 . S
C1747 C1746 1.363 . S
C1747 C1753 1.363 . S
C1748 C1749 1.363 . S
C1748 C1753 1.379 . S
C1748 N1755 1.356 . S
C1749 C1748 1.363 . S
C1749 C1752 1.363 . S
N1750 C1752 1.356 . S
N1750 H1762 0.984 . S
N1750 H1763 0.985 . S
N1751 C1753 1.356 . S
N1751 H1756 0.984 . S
N1751 H1757 0.985 . S
C1752 C1746 1.379 . S
C1752 C1749 1.363 . S
C1752 N1750 1.356 . S
C1753 C1747 1.363 . S
C1753 C1748 1.379 . S
C1753 N1751 1.356 . S
N1754 C1746 1.356 . S
N1754 H1760 0.984 . S
N1754 H1761 0.984 . S
N1755 C1748 1.356 . S
N1755 H1758 0.984 . S
N1755 H1759 0.985 . S
H1756 N1751 0.984 . S
H1757 N1751 0.985 . S
H1758 N1755 0.984 . S
H1759 N1755 0.985 . S
H1760 N1754 0.984 . S
H1761 N1754 0.984 . S
H1762 N1750 0.984 . S
H1763 N1750 0.985 . S
C1764 C1765 1.363 . S
C1764 C1770 1.379 . S
C1764 N1772 1.356 . S
C1765 C1764 1.363 . S
C1765 C1771 1.363 . S
C1766 C1767 1.363 . S
C1766 C1771 1.379 . S
C1766 N1773 1.356 . S
C1767 C1766 1.363 . S
C1767 C1770 1.363 . S
N1768 C1770 1.356 . S
N1768 H1780 0.984 . S
N1768 H1781 0.985 . S
N1769 C1771 1.356 . S
N1769 H1774 0.984 . S
N1769 H1775 0.985 . S
C1770 C1764 1.379 . S
C1770 C1767 1.363 . S
C1770 N1768 1.356 . S
C1771 C1765 1.363 . S
C1771 C1766 1.379 . S
C1771 N1769 1.356 . S
N1772 C1764 1.356 . S
N1772 H1778 0.984 . S
N1772 H1779 0.984 . S
N1773 C1766 1.356 . S
N1773 H1776 0.984 . S
N1773 H1777 0.985 . S
H1774 N1769 0.984 . S
H1775 N1769 0.985 . S
H1776 N1773 0.984 . S
H1777 N1773 0.985 . S
H1778 N1772 0.984 . S
H1779 N1772 0.984 . S
H1780 N1768 0.984 . S
H1781 N1768 0.985 . S
C1782 C1783 1.363 . S
C1782 C1788 1.379 . S
C1782 N1790 1.356 . S
C1783 C1782 1.363 . S
C1783 C1789 1.363 . S
C1784 C1785 1.363 . S
C1784 C1789 1.379 . S
C1784 N1791 1.356 . S
C1785 C1784 1.363 . S
C1785 C1788 1.363 . S
N1786 C1788 1.356 . S
N1786 H1798 0.984 . S
N1786 H1799 0.985 . S
N1787 C1789 1.356 . S
N1787 H1792 0.984 . S
N1787 H1793 0.985 . S
C1788 C1782 1.379 . S
C1788 C1785 1.363 . S
C1788 N1786 1.356 . S
C1789 C1783 1.363 . S
C1789 C1784 1.379 . S
C1789 N1787 1.356 . S
N1790 C1782 1.356 . S
N1790 H1796 0.984 . S
N1790 H1797 0.984 . S
N1791 C1784 1.356 . S
N1791 H1794 0.984 . S
N1791 H1795 0.985 . S
H1792 N1787 0.984 . S
H1793 N1787 0.985 . S
H1794 N1791 0.984 . S
H1795 N1791 0.985 . S
H1796 N1790 0.984 . S
H1797 N1790 0.984 . S
H1798 N1786 0.984 . S
H1799 N1786 0.985 . S
C505 C7 1.452 . S
C507 C259 1.452 . S
C523 C273 1.452 . S
C525 C21 1.452 . S
C541 C287 1.452 . S
C543 C35 1.452 . S
C559 C49 1.452 . S
C561 C469 1.452 . S
C577 C63 1.452 . S
C579 C483 1.452 . S
C595 C77 1.452 . S
C597 C497 1.452 . S
C613 C343 1.452 . S
C615 C91 1.452 . S
C631 C105 1.452 . S
C633 C357 1.452 . S
C649 C119 1.452 . S
C651 C371 1.452 . S
C667 C217 1.452 . S
C669 C133 1.452 . S
C685 C231 1.452 . S
C687 C147 1.452 . S
C703 C245 1.452 . S
C705 C161 1.452 . S
C721 C427 1.452 . S
C723 C175 1.452 . S
C739 C441 1.452 . S
C741 C189 1.452 . S
C757 C203 1.452 . S
C759 C455 1.452 . S
C775 C385 1.452 . S
C777 C301 1.452 . S
C793 C315 1.452 . S
C795 C399 1.452 . S
C811 C329 1.452 . S
C813 C413 1.452 . S
C829 C6 1.469 . S
C831 C384 1.469 . S
C847 C398 1.469 . S
C849 C20 1.469 . S
C865 C412 1.469 . S
C867 C34 1.469 . S
C883 C174 1.469 . S
C885 C48 1.469 . S
C901 C188 1.469 . S
C903 C62 1.469 . S
C919 C202 1.469 . S
C921 C76 1.469 . S
C937 C90 1.469 . S
C939 C300 1.469 . S
C955 C314 1.469 . S
C957 C104 1.469 . S
C973 C328 1.469 . S
C975 C118 1.469 . S
C991 C132 1.469 . S
C993 C426 1.469 . S
C1009 C146 1.469 . S
C1011 C440 1.469 . S
C1027 C160 1.469 . S
C1029 C454 1.469 . S
C1045 C216 1.469 . S
C1047 C342 1.469 . S
C1063 C230 1.469 . S
C1065 C356 1.469 . S
C1081 C244 1.469 . S
C1083 C370 1.469 . S
C1099 C258 1.469 . S
C1101 C468 1.469 . S
C1117 C482 1.469 . S
C1119 C272 1.469 . S
C1135 C286 1.469 . S
C1137 C496 1.469 . S
C1153 C22 1.291 . S
C1155 C9 1.283 . S
C1171 C23 1.283 . S
C1173 C36 1.291 . S
C1189 C37 1.283 . S
C1191 C8 1.291 . S
C1207 C51 1.283 . S
C1209 C78 1.291 . S
C1225 C50 1.291 . S
C1227 C65 1.283 . S
C1243 C79 1.283 . S
C1245 C64 1.291 . S
C1261 C93 1.283 . S
C1263 C106 1.291 . S
C1279 C107 1.283 . S
C1281 C120 1.291 . S
C1297 C121 1.283 . S
C1299 C92 1.291 . S
C1315 C162 1.291 . S
C1317 C135 1.283 . S
C1333 C149 1.283 . S
C1335 C134 1.291 . S
C1351 C148 1.291 . S
C1353 C163 1.283 . S
C1369 C190 1.291 . S
C1371 C177 1.283 . S
C1387 C204 1.291 . S
C1389 C191 1.283 . S
C1405 C176 1.291 . S
C1407 C205 1.283 . S
C1423 C219 1.283 . S
C1425 C246 1.291 . S
C1441 C233 1.283 . S
C1443 C218 1.291 . S
C1459 C247 1.283 . S
C1461 C232 1.291 . S
C1477 C274 1.291 . S
C1479 C261 1.283 . S
C1495 C275 1.283 . S
C1497 C288 1.291 . S
C1513 C289 1.283 . S
C1515 C260 1.291 . S
C1531 C303 1.283 . S
C1533 C330 1.291 . S
C1549 C317 1.283 . S
C1551 C302 1.291 . S
C1567 C316 1.291 . S
C1569 C331 1.283 . S
C1585 C358 1.291 . S
C1587 C345 1.283 . S
C1603 C359 1.283 . S
C1605 C372 1.291 . S
C1621 C344 1.291 . S
C1623 C373 1.283 . S
C1639 C387 1.283 . S
C1641 C414 1.291 . S
C1657 C401 1.283 . S
C1659 C386 1.291 . S
C1675 C415 1.283 . S
C1677 C400 1.291 . S
C1693 C429 1.283 . S
C1695 C442 1.291 . S
C1711 C443 1.283 . S
C1713 C456 1.291 . S
C1729 C457 1.283 . S
C1731 C428 1.291 . S
C1747 C471 1.283 . S
C1749 C498 1.291 . S
C1765 C485 1.283 . S
C1767 C470 1.291 . S
C1783 C484 1.291 . S
C1785 C499 1.283 . S
