# Generated by pormake.
# Topology wjh, (4)-cn, num edge types: 1
# Building blocks:
#     Node 0, Type 0, BuildingBlock: CEKHIL_clean_sbu_0, # of connection points: 4
#     Node 1, Type 0, BuildingBlock: CEKHIL_clean_sbu_0, # of connection points: 4
#     Node 2, Type 0, BuildingBlock: CEKHIL_clean_sbu_0, # of connection points: 4
#     Node 3, Type 0, BuildingBlock: CEKHIL_clean_sbu_0, # of connection points: 4
#     Node 4, Type 0, BuildingBlock: CEKHIL_clean_sbu_0, # of connection points: 4
#     Node 5, Type 0, BuildingBlock: CEKHIL_clean_sbu_0, # of connection points: 4
#     Node 6, Type 0, BuildingBlock: CEKHIL_clean_sbu_0, # of connection points: 4
#     Node 7, Type 0, BuildingBlock: CEKHIL_clean_sbu_0, # of connection points: 4
#     Node 8, Type 0, BuildingBlock: CEKHIL_clean_sbu_0, # of connection points: 4
#     Node 9, Type 0, BuildingBlock: CEKHIL_clean_sbu_0, # of connection points: 4
#     Node 10, Type 0, BuildingBlock: CEKHIL_clean_sbu_0, # of connection points: 4
#     Node 11, Type 0, BuildingBlock: CEKHIL_clean_sbu_0, # of connection points: 4
#     Edge 12, Type (0, 0), BuildingBlock: AJUNOK_clean_linker_0, # of connection points: 2
#     Edge 13, Type (0, 0), BuildingBlock: AJUNOK_clean_linker_0, # of connection points: 2
#     Edge 14, Type (0, 0), BuildingBlock: AJUNOK_clean_linker_0, # of connection points: 2
#     Edge 15, Type (0, 0), BuildingBlock: AJUNOK_clean_linker_0, # of connection points: 2
#     Edge 16, Type (0, 0), BuildingBlock: AJUNOK_clean_linker_0, # of connection points: 2
#     Edge 17, Type (0, 0), BuildingBlock: AJUNOK_clean_linker_0, # of connection points: 2
#     Edge 18, Type (0, 0), BuildingBlock: AJUNOK_clean_linker_0, # of connection points: 2
#     Edge 19, Type (0, 0), BuildingBlock: AJUNOK_clean_linker_0, # of connection points: 2
#     Edge 20, Type (0, 0), BuildingBlock: AJUNOK_clean_linker_0, # of connection points: 2
#     Edge 21, Type (0, 0), BuildingBlock: AJUNOK_clean_linker_0, # of connection points: 2
#     Edge 22, Type (0, 0), BuildingBlock: AJUNOK_clean_linker_0, # of connection points: 2
#     Edge 23, Type (0, 0), BuildingBlock: AJUNOK_clean_linker_0, # of connection points: 2
#     Edge 24, Type (0, 0), BuildingBlock: AJUNOK_clean_linker_0, # of connection points: 2
#     Edge 25, Type (0, 0), BuildingBlock: AJUNOK_clean_linker_0, # of connection points: 2
#     Edge 26, Type (0, 0), BuildingBlock: AJUNOK_clean_linker_0, # of connection points: 2
#     Edge 27, Type (0, 0), BuildingBlock: AJUNOK_clean_linker_0, # of connection points: 2
#     Edge 28, Type (0, 0), BuildingBlock: AJUNOK_clean_linker_0, # of connection points: 2
#     Edge 29, Type (0, 0), BuildingBlock: AJUNOK_clean_linker_0, # of connection points: 2
#     Edge 30, Type (0, 0), BuildingBlock: AJUNOK_clean_linker_0, # of connection points: 2
#     Edge 31, Type (0, 0), BuildingBlock: AJUNOK_clean_linker_0, # of connection points: 2
#     Edge 32, Type (0, 0), BuildingBlock: AJUNOK_clean_linker_0, # of connection points: 2
#     Edge 33, Type (0, 0), BuildingBlock: AJUNOK_clean_linker_0, # of connection points: 2
#     Edge 34, Type (0, 0), BuildingBlock: AJUNOK_clean_linker_0, # of connection points: 2
#     Edge 35, Type (0, 0), BuildingBlock: AJUNOK_clean_linker_0, # of connection points: 2
# Relax obj value: 0.077
# Max RMSD: 0.099
# Mean RMSD: 0.099
data_MOF--net-wjh--node1-CEKHIL_clean_sbu_0--edge1-AJUNOK_clean_linker_0
_symmetry_space_group_name_H-M    P1
_symmetry_Int_Tables_number       1
_symmetry_cell_setting            triclinic
loop_
_symmetry_equiv_pos_as_xyz
'x, y, z'
_cell_length_a     43.938672
_cell_length_b     43.823229
_cell_length_c     19.607755
_cell_angle_alpha  90.016668
_cell_angle_beta   89.940287
_cell_angle_gamma 120.02755
loop_
_atom_site_label
_atom_site_type_symbol
_atom_site_fract_x
_atom_site_fract_y
_atom_site_fract_z
_atom_type_partial_charge
Co0 Co 0.55366 0.17198 0.02679 0.0
O1 O 0.57494 0.22221 0.03373 0.0
O2 O 0.5196 0.1845 0.06012 0.0
C3 C 0.57674 0.17189 0.92344 0.0
O4 O 0.52265 0.11832 0.02647 0.0
Co5 Co 0.6008 0.13749 0.0175 0.0
O6 O 0.55561 0.09425 -0.0032 0.0
C7 C 0.59292 0.16632 0.14832 0.0
C8 C 0.54522 0.21704 0.05786 0.0
C9 C 0.52607 0.09168 0.01057 0.0
O10 O 0.56827 0.17035 0.12276 0.0
O11 O 0.61108 0.15649 0.11308 0.0
O12 O 0.54817 0.17386 0.92759 0.0
O13 O 0.5911 0.17254 0.98087 0.0
Co14 Co 0.39916 0.54274 0.18279 0.0
O15 O 0.37014 0.56397 0.18792 0.0
O16 O 0.35357 0.50967 0.22144 0.0
C17 C 0.41997 0.56187 0.07626 0.0
O18 O 0.42186 0.5119 0.18616 0.0
Co19 Co 0.48038 0.59012 0.16688 0.0
O20 O 0.47886 0.54435 0.15601 0.0
C21 C 0.44634 0.58659 0.2987 0.0
C22 C 0.3464 0.53503 0.21646 0.0
C23 C 0.45198 0.51511 0.1723 0.0
O24 O 0.41741 0.56087 0.27628 0.0
O25 O 0.47368 0.60376 0.26127 0.0
O26 O 0.38956 0.53349 0.08485 0.0
O27 O 0.43494 0.57859 0.13134 0.0
Co28 Co 0.87948 0.39694 0.36015 0.0
O29 O 0.82931 0.36935 0.36794 0.0
O30 O 0.86575 0.35016 0.39476 0.0
C31 C 0.88004 0.42 0.25629 0.0
O32 O 0.93284 0.41808 0.35963 0.0
Co33 Co 0.91594 0.47882 0.34952 0.0
O34 O 0.95861 0.47554 0.33127 0.0
C35 C 0.88587 0.44298 0.48042 0.0
C36 C 0.83372 0.34452 0.39352 0.0
C37 C 0.9601 0.44789 0.34483 0.0
O38 O 0.88177 0.41402 0.45577 0.0
O39 O 0.89618 0.47088 0.44449 0.0
O40 O 0.87713 0.38897 0.26096 0.0
O41 O 0.88009 0.43428 0.31353 0.0
Co42 Co 0.50888 0.87148 0.52246 0.0
O43 O 0.48634 0.82115 0.5306 0.0
O44 O 0.54195 0.85791 0.55672 0.0
C45 C 0.48619 0.87162 0.41868 0.0
O46 O 0.54122 0.92498 0.52137 0.0
Co47 Co 0.46408 0.90831 0.51144 0.0
O48 O 0.50998 0.95069 0.4905 0.0
C49 C 0.46986 0.87861 0.64285 0.0
C50 C 0.51574 0.82567 0.55515 0.0
C51 C 0.53899 0.95224 0.50489 0.0
O52 O 0.49433 0.87402 0.61811 0.0
O53 O 0.45254 0.88916 0.60692 0.0
O54 O 0.51427 0.86881 0.42332 0.0
O55 O 0.4721 0.8719 0.47595 0.0
Co56 Co 0.65762 0.49814 0.68568 0.0
O57 O 0.68723 0.47776 0.6944 0.0
O58 O 0.70279 0.53231 0.72441 0.0
C59 C 0.63775 0.47755 0.57956 0.0
O60 O 0.6339 0.52809 0.68443 0.0
Co61 Co 0.57667 0.44907 0.66873 0.0
O62 O 0.57795 0.49416 0.64915 0.0
C63 C 0.61011 0.45524 0.80228 0.0
C64 C 0.7105 0.50726 0.72187 0.0
C65 C 0.60397 0.52395 0.66576 0.0
O66 O 0.63888 0.48106 0.77944 0.0
O67 O 0.58308 0.43711 0.76469 0.0
O68 O 0.6679 0.50629 0.58776 0.0
O69 O 0.62263 0.46127 0.63495 0.0
Co70 Co 0.1798 0.6497 0.85717 0.0
O71 O 0.23002 0.67734 0.8653 0.0
O72 O 0.19351 0.69645 0.89178 0.0
C73 C 0.17984 0.62708 0.75311 0.0
O74 O 0.12643 0.62867 0.85614 0.0
Co75 Co 0.1428 0.56782 0.84437 0.0
O76 O 0.10061 0.57168 0.82452 0.0
C77 C 0.17252 0.60285 0.97613 0.0
C78 C 0.22564 0.70238 0.88984 0.0
C79 C 0.09918 0.59922 0.83955 0.0
O80 O 0.17703 0.6322 0.95263 0.0
O81 O 0.16208 0.57516 0.93955 0.0
O82 O 0.18263 0.65804 0.75805 0.0
O83 O 0.17932 0.61249 0.81022 0.0
Co84 Co 0.87508 0.50164 0.88929 0.0
O85 O 0.82488 0.48008 0.88347 0.0
O86 O 0.86229 0.53473 0.85154 0.0
C87 C 0.87643 0.48192 -0.00456 0.0
O88 O 0.92854 0.53271 0.8871 0.0
Co89 Co 0.90932 0.45438 0.90519 0.0
O90 O 0.95299 0.50034 0.91881 0.0
C91 C 0.88072 0.45951 0.77236 0.0
C92 C 0.82985 0.50919 0.85606 0.0
C93 C 0.95536 0.52957 0.90217 0.0
O94 O 0.87628 0.48448 0.79521 0.0
O95 O 0.89067 0.44209 0.80954 0.0
O96 O 0.87407 0.51017 -0.01254 0.0
O97 O 0.87506 0.46558 0.94003 0.0
Co98 Co 0.39959 0.86624 0.05175 0.0
O99 O 0.37032 0.81599 0.04464 0.0
O100 O 0.35403 0.85426 0.01399 0.0
C101 C 0.42025 0.86678 0.15786 0.0
O102 O 0.42259 0.91986 0.05103 0.0
Co103 Co 0.48088 0.89974 0.06834 0.0
O104 O 0.47924 0.94374 0.08296 0.0
C105 C 0.44741 0.87223 0.93479 0.0
C106 C 0.34656 0.82157 0.01773 0.0
C107 C 0.45264 0.94648 0.06667 0.0
O108 O 0.41806 0.86785 0.9576 0.0
O109 O 0.47457 0.88172 0.97218 0.0
O110 O 0.38986 0.86476 0.14993 0.0
O111 O 0.43518 0.86548 0.10238 0.0
Co112 Co 0.55225 0.39063 0.21472 0.0
O113 O 0.57392 0.36213 0.20753 0.0
O114 O 0.51854 0.34389 0.18095 0.0
C115 C 0.57494 0.41361 0.31844 0.0
O116 O 0.52106 0.41299 0.21536 0.0
Co117 Co 0.59948 0.47249 0.22488 0.0
O118 O 0.5541 0.47012 0.24525 0.0
C119 C 0.59222 0.43608 0.09423 0.0
C120 C 0.54435 0.33734 0.18329 0.0
C121 C 0.52454 0.4431 0.23137 0.0
O122 O 0.56695 0.40736 0.11881 0.0
O123 O 0.61058 0.46389 0.12984 0.0
O124 O 0.54653 0.38287 0.31393 0.0
O125 O 0.5894 0.42755 0.26114 0.0
Co126 Co 0.18436 0.54505 0.38621 0.0
O127 O 0.23447 0.56612 0.37814 0.0
O128 O 0.19626 0.51134 0.34833 0.0
C129 C 0.18417 0.56555 0.49212 0.0
O130 O 0.13086 0.51428 0.38636 0.0
Co131 Co 0.15058 0.59259 0.40267 0.0
O132 O 0.10711 0.54697 0.42008 0.0
C133 C 0.17702 0.58575 0.26826 0.0
C134 C 0.22884 0.53667 0.35121 0.0
C135 C 0.10435 0.5176 0.40327 0.0
O136 O 0.18243 0.5616 0.2921 0.0
O137 O 0.16708 0.60324 0.30538 0.0
O138 O 0.18625 0.53714 0.48427 0.0
O139 O 0.18519 0.58165 0.43657 0.0
Co140 Co 0.66258 0.17697 0.55599 0.0
O141 O 0.68979 0.2274 0.55185 0.0
O142 O 0.70884 0.19195 0.51742 0.0
C143 C 0.64146 0.17431 0.66261 0.0
O144 O 0.64171 0.12354 0.55218 0.0
Co145 Co 0.581 0.13979 0.57347 0.0
O146 O 0.58527 0.09722 0.58693 0.0
C147 C 0.61382 0.17001 0.44035 0.0
C148 C 0.71465 0.22403 0.52366 0.0
C149 C 0.61244 0.09598 0.5684 0.0
O150 O 0.64378 0.17587 0.46252 0.0
O151 O 0.58641 0.15849 0.47802 0.0
O152 O 0.6724 0.17768 0.65399 0.0
O153 O 0.62607 0.17523 0.6076 0.0
Co154 Co 0.5045 0.65024 0.71133 0.0
O155 O 0.48384 0.67978 0.70691 0.0
O156 O 0.53877 0.6969 0.67833 0.0
C157 C 0.48222 0.6265 0.81499 0.0
O158 O 0.53481 0.62698 0.70868 0.0
Co159 Co 0.45574 0.56845 0.71877 0.0
O160 O 0.50081 0.56896 0.73103 0.0
C161 C 0.46335 0.60637 0.59014 0.0
C162 C 0.51353 0.70423 0.68225 0.0
C163 C 0.53062 0.59611 0.71928 0.0
O164 O 0.48913 0.63453 0.61521 0.0
O165 O 0.44449 0.5784 0.62503 0.0
O166 O 0.51092 0.65702 0.81065 0.0
O167 O 0.46718 0.6133 0.75773 0.0
C168 C 0.62843 0.17015 0.25055 0.0
C169 C 0.59961 0.17146 0.22263 0.0
C170 C 0.63365 0.17135 0.32093 0.0
C171 C 0.61014 0.17367 0.36642 0.0
H172 H 0.64679 0.1673 0.218 0.0
H173 H 0.65556 0.16899 0.33971 0.0
S174 S 0.53304 0.18249 0.31989 0.0
N175 N 0.54902 0.17864 0.24624 0.0
N176 N 0.55891 0.18074 0.37882 0.0
C177 C 0.58224 0.17688 0.33939 0.0
C178 C 0.57699 0.17587 0.26748 0.0
C179 C 0.48207 0.61788 0.40134 0.0
C180 C 0.44898 0.595 0.37239 0.0
C181 C 0.48614 0.62284 0.47187 0.0
C182 C 0.45734 0.60491 0.5161 0.0
H183 H 0.50536 0.6311 0.3697 0.0
H184 H 0.51236 0.63948 0.49198 0.0
S185 S 0.36425 0.54694 0.46637 0.0
N186 N 0.38607 0.55786 0.39357 0.0
N187 N 0.39412 0.56688 0.52637 0.0
C188 C 0.42382 0.58373 0.48797 0.0
C189 C 0.41953 0.57888 0.41605 0.0
C190 C 0.88531 0.48104 0.65352 0.0
C191 C 0.87752 0.45302 0.69826 0.0
C192 C 0.88684 0.47714 0.58315 0.0
C193 C 0.8804 0.44497 0.55454 0.0
H194 H 0.89176 0.50672 0.67307 0.0
H195 H 0.89412 0.49997 0.55128 0.0
S196 S 0.85348 0.36187 0.64975 0.0
N197 N 0.85971 0.39106 0.70933 0.0
N198 N 0.86205 0.38332 0.57667 0.0
C199 C 0.87046 0.41605 0.59865 0.0
C200 C 0.86922 0.42019 0.67056 0.0
C201 C 0.437 0.88002 0.74571 0.0
C202 C 0.46235 0.87315 0.71697 0.0
C203 C 0.43132 0.87812 0.81605 0.0
C204 C 0.45093 0.86952 0.86061 0.0
H205 H 0.42191 0.88785 0.71398 0.0
H206 H 0.41239 0.88487 0.83575 0.0
S207 S 0.51704 0.84445 0.81167 0.0
N208 N 0.50477 0.85379 0.73878 0.0
N209 N 0.4942 0.85073 0.87133 0.0
C210 C 0.47514 0.86092 0.83276 0.0
C211 C 0.48079 0.86256 0.76089 0.0
C212 C 0.57019 0.41899 0.97562 0.0
C213 C 0.59853 0.4381 0.02018 0.0
C214 C 0.57447 0.42377 0.90506 0.0
C215 C 0.60734 0.44764 0.87636 0.0
H216 H 0.54411 0.40136 -0.00457 0.0
H217 H 0.55148 0.40945 0.87312 0.0
S218 S 0.69118 0.49937 0.97141 0.0
N219 N 0.6613 0.47858 0.03111 0.0
N220 N 0.66975 0.4873 0.89833 0.0
C221 C 0.63644 0.46515 0.92044 0.0
C222 C 0.63193 0.46047 -0.00762 0.0
C223 C 0.17446 0.61849 0.16607 0.0
C224 C 0.18007 0.59203 0.19363 0.0
C225 C 0.17338 0.62263 0.0956 0.0
C226 C 0.17759 0.60032 0.04985 0.0
H227 H 0.16994 0.63567 0.19902 0.0
H228 H 0.1679 0.64267 0.07702 0.0
S229 S 0.19753 0.52991 0.09477 0.0
N230 N 0.1933 0.5453 0.16881 0.0
N231 N 0.19099 0.55312 0.03636 0.0
C232 C 0.18495 0.57491 0.07633 0.0
C233 C 0.18631 0.5708 0.14816 0.0
C234 C 0.57401 0.3063 0.13625 0.0
C235 C 0.54239 0.30535 0.15276 0.0
C236 C 0.57422 0.27789 0.10446 0.0
C237 C 0.54282 0.24681 0.08841 0.0
H238 H 0.59913 0.3295 0.14704 0.0
H239 H 0.59949 0.2803 0.09329 0.0
S240 S 0.45263 0.23029 0.12151 0.0
N241 N 0.47854 0.27064 0.15048 0.0
N242 N 0.47893 0.21652 0.09199 0.0
C243 C 0.51083 0.24514 0.10504 0.0
C244 C 0.51061 0.27457 0.13674 0.0
C245 C 0.31634 0.56527 0.26566 0.0
C246 C 0.31515 0.53345 0.24926 0.0
C247 C 0.28861 0.56569 0.29984 0.0
C248 C 0.25805 0.53429 0.31833 0.0
H249 H 0.33921 0.59035 0.25299 0.0
H250 H 0.29107 0.59105 0.31088 0.0
S251 S 0.24137 0.44367 0.28706 0.0
N252 N 0.28092 0.46947 0.25471 0.0
N253 N 0.22808 0.47023 0.31748 0.0
C254 C 0.25621 0.50212 0.30192 0.0
C255 C 0.28493 0.50171 0.26792 0.0
C256 C 0.77338 0.25182 0.46311 0.0
C257 C 0.74629 0.25519 0.49449 0.0
C258 C 0.80204 0.28079 0.43106 0.0
C259 C 0.80413 0.31388 0.428 0.0
H260 H 0.77231 0.22658 0.46266 0.0
H261 H 0.82222 0.27708 0.4073 0.0
S262 S 0.74192 0.33761 0.50688 0.0
N263 N 0.72508 0.29534 0.52392 0.0
N264 N 0.7781 0.34896 0.46312 0.0
C265 C 0.77773 0.31775 0.46051 0.0
C266 C 0.74905 0.28865 0.49387 0.0
C267 C 0.48547 0.76554 0.60548 0.0
C268 C 0.51723 0.79567 0.58693 0.0
C269 C 0.48498 0.7369 0.63785 0.0
C270 C 0.51621 0.73667 0.6524 0.0
H271 H 0.46051 0.76407 0.59565 0.0
H272 H 0.45963 0.71441 0.65037 0.0
S273 S 0.60664 0.80915 0.61513 0.0
N274 N 0.58102 0.82396 0.58672 0.0
N275 N 0.58007 0.76942 0.64623 0.0
C276 C 0.54832 0.7666 0.63431 0.0
C277 C 0.54884 0.79625 0.60205 0.0
C278 C 0.74096 0.4785 0.77535 0.0
C279 C 0.74193 0.50983 0.75571 0.0
C280 C 0.76914 0.47898 0.80927 0.0
C281 C 0.79999 0.51081 0.82429 0.0
H282 H 0.71795 0.45311 0.76515 0.0
H283 H 0.76683 0.45392 0.82261 0.0
S284 S 0.81602 0.6005 0.78475 0.0
N285 N 0.77606 0.57387 0.75514 0.0
N286 N 0.82979 0.57478 0.81748 0.0
C287 C 0.8015 0.54252 0.80516 0.0
C288 C 0.77229 0.54203 0.7714 0.0
C289 C 0.28587 0.73242 0.93899 0.0
C290 C 0.25572 0.73402 0.92097 0.0
C291 C 0.31443 0.76059 0.97138 0.0
C292 C 0.31455 0.79203 0.98643 0.0
H293 H 0.28738 0.7089 0.92895 0.0
H294 H 0.3369 0.75773 0.98381 0.0
S295 S 0.24227 0.81017 0.94947 0.0
N296 N 0.22752 0.76968 0.92093 0.0
N297 N 0.28189 0.82329 0.98047 0.0
C298 C 0.28473 0.7943 0.96834 0.0
C299 C 0.25516 0.76515 0.93609 0.0
C300 C 0.59153 0.16854 0.7334 0.0
C301 C 0.62481 0.17111 0.73009 0.0
C302 C 0.57585 0.16812 0.79597 0.0
C303 C 0.59275 0.17013 0.8579 0.0
H304 H 0.57757 0.16751 0.68716 0.0
H305 H 0.55053 0.16671 0.79562 0.0
S306 S 0.67961 0.17568 0.87769 0.0
N307 N 0.67361 0.1745 0.79444 0.0
N308 N 0.64436 0.17369 0.91212 0.0
C309 C 0.62568 0.17179 0.85547 0.0
C310 C 0.64165 0.17228 0.79161 0.0
C311 C 0.48425 0.62282 0.94233 0.0
C312 C 0.46691 0.60817 0.88056 0.0
C313 C 0.46921 0.60702 0.00501 0.0
C314 C 0.43616 0.57592 0.0086 0.0
H315 H 0.50942 0.64701 0.94249 0.0
H316 H 0.48345 0.61978 0.05114 0.0
S317 S 0.38039 0.52607 0.8615 0.0
N318 N 0.41511 0.55993 0.82684 0.0
N319 N 0.38711 0.53041 0.94461 0.0
C320 C 0.41891 0.56046 0.94721 0.0
C321 C 0.4342 0.57654 0.88326 0.0
C322 C 0.88071 0.4366 0.06586 0.0
C323 C 0.87967 0.46823 0.06269 0.0
C324 C 0.88156 0.42153 0.12844 0.0
C325 C 0.88151 0.43751 0.19048 0.0
H326 H 0.88025 0.42288 0.01957 0.0
H327 H 0.88174 0.3969 0.12807 0.0
S328 S 0.88052 0.52147 0.21044 0.0
N329 N 0.87983 0.51563 0.12719 0.0
N330 N 0.88144 0.48757 0.24475 0.0
C331 C 0.88135 0.46965 0.18806 0.0
C332 C 0.88042 0.48494 0.12424 0.0
C333 C 0.48566 0.87201 0.29079 0.0
C334 C 0.47001 0.87269 0.35283 0.0
C335 C 0.46961 0.87079 0.22824 0.0
C336 C 0.4372 0.87011 0.22507 0.0
H337 H 0.51026 0.8719 0.29042 0.0
H338 H 0.48257 0.8698 0.18197 0.0
S339 S 0.38585 0.87286 0.37277 0.0
N340 N 0.42053 0.87367 0.40706 0.0
N341 N 0.39062 0.87137 0.28955 0.0
C342 C 0.42161 0.87155 0.2866 0.0
C343 C 0.43795 0.87284 0.35039 0.0
C344 C 0.58883 0.43186 0.50869 0.0
C345 C 0.6216 0.4633 0.51208 0.0
C346 C 0.57361 0.41627 0.44603 0.0
C347 C 0.5905 0.4315 0.38413 0.0
H348 H 0.57492 0.41875 0.55491 0.0
H349 H 0.54864 0.39186 0.44626 0.0
S350 S 0.67623 0.51448 0.36466 0.0
N351 N 0.66995 0.50961 0.44785 0.0
N352 N 0.64164 0.48048 0.33014 0.0
C353 C 0.62297 0.46337 0.3867 0.0
C354 C 0.63844 0.47923 0.4506 0.0
C355 C 0.18006 0.611 0.56258 0.0
C356 C 0.18109 0.57936 0.55937 0.0
C357 C 0.17899 0.62595 0.6252 0.0
C358 C 0.17881 0.60984 0.6872 0.0
H359 H 0.1806 0.62475 0.51631 0.0
H360 H 0.17875 0.65055 0.62489 0.0
S361 S 0.18002 0.52599 0.70701 0.0
N362 N 0.18091 0.53195 0.62378 0.0
N363 N 0.17891 0.55979 0.74136 0.0
C364 C 0.17911 0.57777 0.68471 0.0
C365 C 0.18025 0.5626 0.62089 0.0
C366 C 0.4879 0.04358 0.0895 0.0
C367 C 0.4966 0.05574 0.02194 0.0
C368 C 0.47013 1.00735 0.10426 0.0
C369 C 0.45962 0.98232 0.0517 0.0
H370 H 0.49796 0.06212 0.13151 0.0
H371 H 0.46691 0.99897 0.15704 0.0
S372 S 0.47231 1.00069 0.86629 0.0
N373 N 0.49102 0.04009 0.90214 0.0
N374 N 0.45607 0.97198 0.92955 0.0
C375 C 0.46517 0.99415 0.98381 0.0
C376 C 0.4841 0.03096 0.96894 0.0
C377 C 0.485 0.45128 0.15319 0.0
C378 C 0.49508 0.44956 0.22057 0.0
C379 C 0.46747 0.46984 0.13764 0.0
C380 C 0.45858 0.48621 0.1893 0.0
H381 H 0.49387 0.44138 0.11155 0.0
H382 H 0.46323 0.47364 0.08464 0.0
S383 S 0.47513 0.48544 0.37434 0.0
N384 N 0.49238 0.46317 0.33953 0.0
N385 N 0.45795 0.49656 0.3108 0.0
C386 C 0.46546 0.48167 0.25736 0.0
C387 C 0.48411 0.46366 0.27294 0.0
C388 C 0.04321 0.47609 0.44137 0.0
C389 C 0.06849 0.48866 0.38911 0.0
C390 C 1.00717 0.45815 0.42606 0.0
C391 C 0.99541 0.45326 0.35808 0.0
H392 H 0.05134 0.4825 0.49406 0.0
H393 H 0.98854 0.45131 0.46756 0.0
S394 S 0.05105 0.47847 0.20327 0.0
N395 N 0.07935 0.49187 0.26713 0.0
N396 N 1.01158 0.45973 0.2385 0.0
C397 C 1.02033 0.46343 0.30564 0.0
C398 C 0.05696 0.48075 0.3212 0.0
C399 C 0.57818 0.99891 0.58528 0.0
C400 C 0.56907 0.98775 0.5173 0.0
C401 C 0.59617 0.03492 0.60198 0.0
C402 C 0.60657 0.06075 0.55095 0.0
H403 H 0.56809 0.97979 0.62634 0.0
H404 H 0.59942 0.04249 0.65524 0.0
S405 S 0.59344 0.0451 0.36486 0.0
N406 N 0.57457 1.00518 0.39853 0.0
N407 N 0.60997 0.07286 0.42951 0.0
C408 C 0.60092 0.0499 0.48245 0.0
C409 C 0.58171 1.01331 0.46565 0.0
C410 C 0.59494 0.564 0.7418 0.0
C411 C 0.59646 0.55291 0.67512 0.0
C412 C 0.5762 0.58154 0.75593 0.0
C413 C 0.55947 0.58938 0.70344 0.0
H414 H 0.60523 0.55602 0.78411 0.0
H415 H 0.57262 0.58665 0.80855 0.0
S416 S 0.55965 0.57003 0.51958 0.0
N417 N 0.58231 0.55363 0.5558 0.0
N418 N 0.54851 0.58795 0.58186 0.0
C419 C 0.56372 0.58141 0.63597 0.0
C420 C 0.58193 0.56281 0.62186 0.0
C421 C 0.05253 0.59063 0.92088 0.0
C422 C 0.06382 0.59385 0.85271 0.0
C423 C 1.01658 0.57268 0.9373 0.0
C424 C 0.99094 0.55849 0.8859 0.0
H425 H 0.07148 0.59874 0.962 0.0
H426 H 1.00886 0.56753 -0.00957 0.0
S427 S 1.00701 0.56413 0.69959 0.0
N428 N 0.04674 0.58417 0.73362 0.0
N429 N 0.97918 0.55205 0.76422 0.0
C430 C 1.00196 0.56476 0.8175 0.0
C431 C 0.03848 0.58207 0.80089 0.0
loop_
_geom_bond_atom_site_label_1
_geom_bond_atom_site_label_2
_geom_bond_distance
_geom_bond_site_symmetry_2
_ccdc_geom_bond_type
Co0 O1 2.216 . S
Co0 O2 2.091 . S
Co0 O4 2.004 . S
Co0 O10 2.021 . S
Co0 O12 2.137 1_554 S
Co0 O13 2.244 1_554 S
O1 Co0 2.216 . S
O1 C8 1.247 . S
O2 Co0 2.091 . S
O2 C8 1.261 . S
C3 O12 1.247 . S
C3 O13 1.272 . S
O4 Co0 2.004 . S
O4 C9 1.259 . S
Co5 O6 2.061 . S
Co5 O11 2.052 . S
Co5 O13 2.135 1_554 S
O6 Co5 2.061 . S
O6 C9 1.235 . S
C7 O10 1.238 . S
C7 O11 1.241 . S
C8 O1 1.247 . S
C8 O2 1.261 . S
C9 O4 1.259 . S
C9 O6 1.235 . S
O10 Co0 2.021 . S
O10 C7 1.238 . S
O11 Co5 2.052 . S
O11 C7 1.241 . S
O12 Co0 2.137 1_556 S
O12 C3 1.247 . S
O13 Co0 2.244 1_556 S
O13 C3 1.272 . S
O13 Co5 2.135 1_556 S
Co14 O15 2.216 . S
Co14 O16 2.091 . S
Co14 O18 2.004 . S
Co14 O24 2.021 . S
Co14 O26 2.137 . S
Co14 O27 2.244 . S
O15 Co14 2.216 . S
O15 C22 1.247 . S
O16 Co14 2.091 . S
O16 C22 1.261 . S
C17 O26 1.247 . S
C17 O27 1.272 . S
O18 Co14 2.004 . S
O18 C23 1.259 . S
Co19 O20 2.061 . S
Co19 O25 2.052 . S
Co19 O27 2.135 . S
O20 Co19 2.061 . S
O20 C23 1.235 . S
C21 O24 1.238 . S
C21 O25 1.241 . S
C22 O15 1.247 . S
C22 O16 1.261 . S
C23 O18 1.259 . S
C23 O20 1.235 . S
O24 Co14 2.021 . S
O24 C21 1.238 . S
O25 Co19 2.052 . S
O25 C21 1.241 . S
O26 Co14 2.137 . S
O26 C17 1.247 . S
O27 Co14 2.244 . S
O27 C17 1.272 . S
O27 Co19 2.135 . S
Co28 O29 2.216 . S
Co28 O30 2.091 . S
Co28 O32 2.004 . S
Co28 O38 2.021 . S
Co28 O40 2.137 . S
Co28 O41 2.244 . S
O29 Co28 2.216 . S
O29 C36 1.247 . S
O30 Co28 2.091 . S
O30 C36 1.261 . S
C31 O40 1.247 . S
C31 O41 1.272 . S
O32 Co28 2.004 . S
O32 C37 1.259 . S
Co33 O34 2.061 . S
Co33 O39 2.052 . S
Co33 O41 2.135 . S
O34 Co33 2.061 . S
O34 C37 1.235 . S
C35 O38 1.238 . S
C35 O39 1.241 . S
C36 O29 1.247 . S
C36 O30 1.261 . S
C37 O32 1.259 . S
C37 O34 1.235 . S
O38 Co28 2.021 . S
O38 C35 1.238 . S
O39 Co33 2.052 . S
O39 C35 1.241 . S
O40 Co28 2.137 . S
O40 C31 1.247 . S
O41 Co28 2.244 . S
O41 C31 1.272 . S
O41 Co33 2.135 . S
Co42 O43 2.216 . S
Co42 O44 2.091 . S
Co42 O46 2.004 . S
Co42 O52 2.021 . S
Co42 O54 2.137 . S
Co42 O55 2.244 . S
O43 Co42 2.216 . S
O43 C50 1.247 . S
O44 Co42 2.091 . S
O44 C50 1.261 . S
C45 O54 1.247 . S
C45 O55 1.272 . S
O46 Co42 2.004 . S
O46 C51 1.259 . S
Co47 O48 2.061 . S
Co47 O53 2.052 . S
Co47 O55 2.135 . S
O48 Co47 2.061 . S
O48 C51 1.235 . S
C49 O52 1.238 . S
C49 O53 1.241 . S
C50 O43 1.247 . S
C50 O44 1.261 . S
C51 O46 1.259 . S
C51 O48 1.235 . S
O52 Co42 2.021 . S
O52 C49 1.238 . S
O53 Co47 2.052 . S
O53 C49 1.241 . S
O54 Co42 2.137 . S
O54 C45 1.247 . S
O55 Co42 2.244 . S
O55 C45 1.272 . S
O55 Co47 2.135 . S
Co56 O57 2.216 . S
Co56 O58 2.091 . S
Co56 O60 2.004 . S
Co56 O66 2.021 . S
Co56 O68 2.137 . S
Co56 O69 2.244 . S
O57 Co56 2.216 . S
O57 C64 1.247 . S
O58 Co56 2.091 . S
O58 C64 1.261 . S
C59 O68 1.247 . S
C59 O69 1.272 . S
O60 Co56 2.004 . S
O60 C65 1.259 . S
Co61 O62 2.061 . S
Co61 O67 2.052 . S
Co61 O69 2.135 . S
O62 Co61 2.061 . S
O62 C65 1.235 . S
C63 O66 1.238 . S
C63 O67 1.241 . S
C64 O57 1.247 . S
C64 O58 1.261 . S
C65 O60 1.259 . S
C65 O62 1.235 . S
O66 Co56 2.021 . S
O66 C63 1.238 . S
O67 Co61 2.052 . S
O67 C63 1.241 . S
O68 Co56 2.137 . S
O68 C59 1.247 . S
O69 Co56 2.244 . S
O69 C59 1.272 . S
O69 Co61 2.135 . S
Co70 O71 2.216 . S
Co70 O72 2.091 . S
Co70 O74 2.004 . S
Co70 O80 2.021 . S
Co70 O82 2.137 . S
Co70 O83 2.244 . S
O71 Co70 2.216 . S
O71 C78 1.247 . S
O72 Co70 2.091 . S
O72 C78 1.261 . S
C73 O82 1.247 . S
C73 O83 1.272 . S
O74 Co70 2.004 . S
O74 C79 1.259 . S
Co75 O76 2.061 . S
Co75 O81 2.052 . S
Co75 O83 2.135 . S
O76 Co75 2.061 . S
O76 C79 1.235 . S
C77 O80 1.238 1_554 S
C77 O81 1.241 1_554 S
C78 O71 1.247 . S
C78 O72 1.261 . S
C79 O74 1.259 . S
C79 O76 1.235 . S
O80 Co70 2.021 . S
O80 C77 1.238 1_556 S
O81 Co75 2.052 . S
O81 C77 1.241 1_556 S
O82 Co70 2.137 . S
O82 C73 1.247 . S
O83 Co70 2.244 . S
O83 C73 1.272 . S
O83 Co75 2.135 . S
Co84 O85 2.216 . S
Co84 O86 2.091 . S
Co84 O88 2.004 . S
Co84 O94 2.021 . S
Co84 O96 2.137 . S
Co84 O97 2.244 . S
O85 Co84 2.216 . S
O85 C92 1.247 . S
O86 Co84 2.091 . S
O86 C92 1.261 . S
C87 O96 1.247 . S
C87 O97 1.272 . S
O88 Co84 2.004 . S
O88 C93 1.259 . S
Co89 O90 2.061 . S
Co89 O95 2.052 . S
Co89 O97 2.135 . S
O90 Co89 2.061 . S
O90 C93 1.235 . S
C91 O94 1.238 . S
C91 O95 1.241 . S
C92 O85 1.247 . S
C92 O86 1.261 . S
C93 O88 1.259 . S
C93 O90 1.235 . S
O94 Co84 2.021 . S
O94 C91 1.238 . S
O95 Co89 2.052 . S
O95 C91 1.241 . S
O96 Co84 2.137 . S
O96 C87 1.247 . S
O97 Co84 2.244 . S
O97 C87 1.272 . S
O97 Co89 2.135 . S
Co98 O99 2.216 . S
Co98 O100 2.091 . S
Co98 O102 2.004 . S
Co98 O108 2.021 1_554 S
Co98 O110 2.137 . S
Co98 O111 2.244 . S
O99 Co98 2.216 . S
O99 C106 1.247 . S
O100 Co98 2.091 . S
O100 C106 1.261 . S
C101 O110 1.247 . S
C101 O111 1.272 . S
O102 Co98 2.004 . S
O102 C107 1.259 . S
Co103 O104 2.061 . S
Co103 O109 2.052 1_554 S
Co103 O111 2.135 . S
O104 Co103 2.061 . S
O104 C107 1.235 . S
C105 O108 1.238 . S
C105 O109 1.241 . S
C106 O99 1.247 . S
C106 O100 1.261 . S
C107 O102 1.259 . S
C107 O104 1.235 . S
O108 Co98 2.021 1_556 S
O108 C105 1.238 . S
O109 Co103 2.052 1_556 S
O109 C105 1.241 . S
O110 Co98 2.137 . S
O110 C101 1.247 . S
O111 Co98 2.244 . S
O111 C101 1.272 . S
O111 Co103 2.135 . S
Co112 O113 2.216 . S
Co112 O114 2.091 . S
Co112 O116 2.004 . S
Co112 O122 2.021 . S
Co112 O124 2.137 . S
Co112 O125 2.244 . S
O113 Co112 2.216 . S
O113 C120 1.247 . S
O114 Co112 2.091 . S
O114 C120 1.261 . S
C115 O124 1.247 . S
C115 O125 1.272 . S
O116 Co112 2.004 . S
O116 C121 1.259 . S
Co117 O118 2.061 . S
Co117 O123 2.052 . S
Co117 O125 2.135 . S
O118 Co117 2.061 . S
O118 C121 1.235 . S
C119 O122 1.238 . S
C119 O123 1.241 . S
C120 O113 1.247 . S
C120 O114 1.261 . S
C121 O116 1.259 . S
C121 O118 1.235 . S
O122 Co112 2.021 . S
O122 C119 1.238 . S
O123 Co117 2.052 . S
O123 C119 1.241 . S
O124 Co112 2.137 . S
O124 C115 1.247 . S
O125 Co112 2.244 . S
O125 C115 1.272 . S
O125 Co117 2.135 . S
Co126 O127 2.216 . S
Co126 O128 2.091 . S
Co126 O130 2.004 . S
Co126 O136 2.021 . S
Co126 O138 2.137 . S
Co126 O139 2.244 . S
O127 Co126 2.216 . S
O127 C134 1.247 . S
O128 Co126 2.091 . S
O128 C134 1.261 . S
C129 O138 1.247 . S
C129 O139 1.272 . S
O130 Co126 2.004 . S
O130 C135 1.259 . S
Co131 O132 2.061 . S
Co131 O137 2.052 . S
Co131 O139 2.135 . S
O132 Co131 2.061 . S
O132 C135 1.235 . S
C133 O136 1.238 . S
C133 O137 1.241 . S
C134 O127 1.247 . S
C134 O128 1.261 . S
C135 O130 1.259 . S
C135 O132 1.235 . S
O136 Co126 2.021 . S
O136 C133 1.238 . S
O137 Co131 2.052 . S
O137 C133 1.241 . S
O138 Co126 2.137 . S
O138 C129 1.247 . S
O139 Co126 2.244 . S
O139 C129 1.272 . S
O139 Co131 2.135 . S
Co140 O141 2.216 . S
Co140 O142 2.091 . S
Co140 O144 2.004 . S
Co140 O150 2.021 . S
Co140 O152 2.137 . S
Co140 O153 2.244 . S
O141 Co140 2.216 . S
O141 C148 1.247 . S
O142 Co140 2.091 . S
O142 C148 1.261 . S
C143 O152 1.247 . S
C143 O153 1.272 . S
O144 Co140 2.004 . S
O144 C149 1.259 . S
Co145 O146 2.061 . S
Co145 O151 2.052 . S
Co145 O153 2.135 . S
O146 Co145 2.061 . S
O146 C149 1.235 . S
C147 O150 1.238 . S
C147 O151 1.241 . S
C148 O141 1.247 . S
C148 O142 1.261 . S
C149 O144 1.259 . S
C149 O146 1.235 . S
O150 Co140 2.021 . S
O150 C147 1.238 . S
O151 Co145 2.052 . S
O151 C147 1.241 . S
O152 Co140 2.137 . S
O152 C143 1.247 . S
O153 Co140 2.244 . S
O153 C143 1.272 . S
O153 Co145 2.135 . S
Co154 O155 2.216 . S
Co154 O156 2.091 . S
Co154 O158 2.004 . S
Co154 O164 2.021 . S
Co154 O166 2.137 . S
Co154 O167 2.244 . S
O155 Co154 2.216 . S
O155 C162 1.247 . S
O156 Co154 2.091 . S
O156 C162 1.261 . S
C157 O166 1.247 . S
C157 O167 1.272 . S
O158 Co154 2.004 . S
O158 C163 1.259 . S
Co159 O160 2.061 . S
Co159 O165 2.052 . S
Co159 O167 2.135 . S
O160 Co159 2.061 . S
O160 C163 1.235 . S
C161 O164 1.238 . S
C161 O165 1.241 . S
C162 O155 1.247 . S
C162 O156 1.261 . S
C163 O158 1.259 . S
C163 O160 1.235 . S
O164 Co154 2.021 . S
O164 C161 1.238 . S
O165 Co159 2.052 . S
O165 C161 1.241 . S
O166 Co154 2.137 . S
O166 C157 1.247 . S
O167 Co154 2.244 . S
O167 C157 1.272 . S
O167 Co159 2.135 . S
C168 C169 1.369 . S
C168 C170 1.419 . S
C168 H172 0.930 . S
C169 C168 1.369 . S
C169 C178 1.429 . S
C170 C168 1.419 . S
C170 C171 1.363 . S
C170 H173 0.929 . S
C171 C170 1.363 . S
C171 C177 1.428 . S
H172 C168 0.930 . S
H173 C170 0.929 . S
S174 N175 1.613 . S
S174 N176 1.610 . S
N175 S174 1.613 . S
N175 C178 1.350 . S
N176 S174 1.610 . S
N176 C177 1.351 . S
C177 C171 1.428 . S
C177 N176 1.351 . S
C177 C178 1.434 . S
C178 C169 1.429 . S
C178 N175 1.350 . S
C178 C177 1.434 . S
C179 C180 1.369 . S
C179 C181 1.419 . S
C179 H183 0.930 . S
C180 C179 1.369 . S
C180 C189 1.429 . S
C181 C179 1.419 . S
C181 C182 1.363 . S
C181 H184 0.929 . S
C182 C181 1.363 . S
C182 C188 1.428 . S
H183 C179 0.930 . S
H184 C181 0.929 . S
S185 N186 1.613 . S
S185 N187 1.610 . S
N186 S185 1.613 . S
N186 C189 1.350 . S
N187 S185 1.610 . S
N187 C188 1.351 . S
C188 C182 1.428 . S
C188 N187 1.351 . S
C188 C189 1.434 . S
C189 C180 1.429 . S
C189 N186 1.350 . S
C189 C188 1.434 . S
C190 C191 1.369 . S
C190 C192 1.419 . S
C190 H194 0.930 . S
C191 C190 1.369 . S
C191 C200 1.429 . S
C192 C190 1.419 . S
C192 C193 1.363 . S
C192 H195 0.929 . S
C193 C192 1.363 . S
C193 C199 1.428 . S
H194 C190 0.930 . S
H195 C192 0.929 . S
S196 N197 1.613 . S
S196 N198 1.610 . S
N197 S196 1.613 . S
N197 C200 1.350 . S
N198 S196 1.610 . S
N198 C199 1.351 . S
C199 C193 1.428 . S
C199 N198 1.351 . S
C199 C200 1.434 . S
C200 C191 1.429 . S
C200 N197 1.350 . S
C200 C199 1.434 . S
C201 C202 1.369 . S
C201 C203 1.419 . S
C201 H205 0.930 . S
C202 C201 1.369 . S
C202 C211 1.429 . S
C203 C201 1.419 . S
C203 C204 1.363 . S
C203 H206 0.929 . S
C204 C203 1.363 . S
C204 C210 1.428 . S
H205 C201 0.930 . S
H206 C203 0.929 . S
S207 N208 1.613 . S
S207 N209 1.610 . S
N208 S207 1.613 . S
N208 C211 1.350 . S
N209 S207 1.610 . S
N209 C210 1.351 . S
C210 C204 1.428 . S
C210 N209 1.351 . S
C210 C211 1.434 . S
C211 C202 1.429 . S
C211 N208 1.350 . S
C211 C210 1.434 . S
C212 C213 1.369 1_556 S
C212 C214 1.419 . S
C212 H216 0.930 . S
C213 C212 1.369 1_554 S
C213 C222 1.429 . S
C214 C212 1.419 . S
C214 C215 1.363 . S
C214 H217 0.929 . S
C215 C214 1.363 . S
C215 C221 1.428 . S
H216 C212 0.930 . S
H217 C214 0.929 . S
S218 N219 1.613 . S
S218 N220 1.610 1_554 S
N219 S218 1.613 . S
N219 C222 1.350 . S
N220 S218 1.610 1_556 S
N220 C221 1.351 . S
C221 C215 1.428 . S
C221 N220 1.351 . S
C221 C222 1.434 1_556 S
C222 C213 1.429 . S
C222 N219 1.350 . S
C222 C221 1.434 1_554 S
C223 C224 1.369 . S
C223 C225 1.419 . S
C223 H227 0.930 . S
C224 C223 1.369 . S
C224 C233 1.429 . S
C225 C223 1.419 . S
C225 C226 1.363 . S
C225 H228 0.929 . S
C226 C225 1.363 . S
C226 C232 1.428 . S
H227 C223 0.930 . S
H228 C225 0.929 . S
S229 N230 1.613 . S
S229 N231 1.610 . S
N230 S229 1.613 . S
N230 C233 1.350 . S
N231 S229 1.610 . S
N231 C232 1.351 . S
C232 C226 1.428 . S
C232 N231 1.351 . S
C232 C233 1.434 . S
C233 C224 1.429 . S
C233 N230 1.350 . S
C233 C232 1.434 . S
C234 C235 1.369 . S
C234 C236 1.419 . S
C234 H238 0.930 . S
C235 C234 1.369 . S
C235 C244 1.429 . S
C236 C234 1.419 . S
C236 C237 1.363 . S
C236 H239 0.929 . S
C237 C236 1.363 . S
C237 C243 1.428 . S
H238 C234 0.930 . S
H239 C236 0.929 . S
S240 N241 1.613 . S
S240 N242 1.610 . S
N241 S240 1.613 . S
N241 C244 1.350 . S
N242 S240 1.610 . S
N242 C243 1.351 . S
C243 C237 1.428 . S
C243 N242 1.351 . S
C243 C244 1.434 . S
C244 C235 1.429 . S
C244 N241 1.350 . S
C244 C243 1.434 . S
C245 C246 1.369 . S
C245 C247 1.419 . S
C245 H249 0.930 . S
C246 C245 1.369 . S
C246 C255 1.429 . S
C247 C245 1.419 . S
C247 C248 1.363 . S
C247 H250 0.929 . S
C248 C247 1.363 . S
C248 C254 1.428 . S
H249 C245 0.930 . S
H250 C247 0.929 . S
S251 N252 1.613 . S
S251 N253 1.610 . S
N252 S251 1.613 . S
N252 C255 1.350 . S
N253 S251 1.610 . S
N253 C254 1.351 . S
C254 C248 1.428 . S
C254 N253 1.351 . S
C254 C255 1.434 . S
C255 C246 1.429 . S
C255 N252 1.350 . S
C255 C254 1.434 . S
C256 C257 1.369 . S
C256 C258 1.419 . S
C256 H260 0.930 . S
C257 C256 1.369 . S
C257 C266 1.429 . S
C258 C256 1.419 . S
C258 C259 1.363 . S
C258 H261 0.929 . S
C259 C258 1.363 . S
C259 C265 1.428 . S
H260 C256 0.930 . S
H261 C258 0.929 . S
S262 N263 1.613 . S
S262 N264 1.610 . S
N263 S262 1.613 . S
N263 C266 1.350 . S
N264 S262 1.610 . S
N264 C265 1.351 . S
C265 C259 1.428 . S
C265 N264 1.351 . S
C265 C266 1.434 . S
C266 C257 1.429 . S
C266 N263 1.350 . S
C266 C265 1.434 . S
C267 C268 1.369 . S
C267 C269 1.419 . S
C267 H271 0.930 . S
C268 C267 1.369 . S
C268 C277 1.429 . S
C269 C267 1.419 . S
C269 C270 1.363 . S
C269 H272 0.929 . S
C270 C269 1.363 . S
C270 C276 1.428 . S
H271 C267 0.930 . S
H272 C269 0.929 . S
S273 N274 1.613 . S
S273 N275 1.610 . S
N274 S273 1.613 . S
N274 C277 1.350 . S
N275 S273 1.610 . S
N275 C276 1.351 . S
C276 C270 1.428 . S
C276 N275 1.351 . S
C276 C277 1.434 . S
C277 C268 1.429 . S
C277 N274 1.350 . S
C277 C276 1.434 . S
C278 C279 1.369 . S
C278 C280 1.419 . S
C278 H282 0.930 . S
C279 C278 1.369 . S
C279 C288 1.429 . S
C280 C278 1.419 . S
C280 C281 1.363 . S
C280 H283 0.929 . S
C281 C280 1.363 . S
C281 C287 1.428 . S
H282 C278 0.930 . S
H283 C280 0.929 . S
S284 N285 1.613 . S
S284 N286 1.610 . S
N285 S284 1.613 . S
N285 C288 1.350 . S
N286 S284 1.610 . S
N286 C287 1.351 . S
C287 C281 1.428 . S
C287 N286 1.351 . S
C287 C288 1.434 . S
C288 C279 1.429 . S
C288 N285 1.350 . S
C288 C287 1.434 . S
C289 C290 1.369 . S
C289 C291 1.419 . S
C289 H293 0.930 . S
C290 C289 1.369 . S
C290 C299 1.429 . S
C291 C289 1.419 . S
C291 C292 1.363 1_556 S
C291 H294 0.929 . S
C292 C291 1.363 1_554 S
C292 C298 1.428 1_554 S
H293 C289 0.930 . S
H294 C291 0.929 . S
S295 N296 1.613 . S
S295 N297 1.610 1_556 S
N296 S295 1.613 . S
N296 C299 1.350 . S
N297 S295 1.610 1_554 S
N297 C298 1.351 1_554 S
C298 C292 1.428 1_556 S
C298 N297 1.351 1_556 S
C298 C299 1.434 . S
C299 C290 1.429 . S
C299 N296 1.350 . S
C299 C298 1.434 . S
C300 C301 1.369 . S
C300 C302 1.419 . S
C300 H304 0.930 . S
C301 C300 1.369 . S
C301 C310 1.429 . S
C302 C300 1.419 . S
C302 C303 1.363 . S
C302 H305 0.929 . S
C303 C302 1.363 . S
C303 C309 1.428 . S
H304 C300 0.930 . S
H305 C302 0.929 . S
S306 N307 1.613 . S
S306 N308 1.610 . S
N307 S306 1.613 . S
N307 C310 1.350 . S
N308 S306 1.610 . S
N308 C309 1.351 . S
C309 C303 1.428 . S
C309 N308 1.351 . S
C309 C310 1.434 . S
C310 C301 1.429 . S
C310 N307 1.350 . S
C310 C309 1.434 . S
C311 C312 1.369 . S
C311 C313 1.419 1_556 S
C311 H315 0.930 . S
C312 C311 1.369 . S
C312 C321 1.429 . S
C313 C311 1.419 1_554 S
C313 C314 1.363 . S
C313 H316 0.929 . S
C314 C313 1.363 . S
C314 C320 1.428 1_554 S
H315 C311 0.930 . S
H316 C313 0.929 . S
S317 N318 1.613 . S
S317 N319 1.610 1_556 S
N318 S317 1.613 . S
N318 C321 1.350 . S
N319 S317 1.610 1_554 S
N319 C320 1.351 1_554 S
C320 C314 1.428 1_556 S
C320 N319 1.351 1_556 S
C320 C321 1.434 . S
C321 C312 1.429 . S
C321 N318 1.350 . S
C321 C320 1.434 . S
C322 C323 1.369 . S
C322 C324 1.419 . S
C322 H326 0.930 . S
C323 C322 1.369 . S
C323 C332 1.429 . S
C324 C322 1.419 . S
C324 C325 1.363 . S
C324 H327 0.929 . S
C325 C324 1.363 . S
C325 C331 1.428 . S
H326 C322 0.930 . S
H327 C324 0.929 . S
S328 N329 1.613 . S
S328 N330 1.610 . S
N329 S328 1.613 . S
N329 C332 1.350 . S
N330 S328 1.610 . S
N330 C331 1.351 . S
C331 C325 1.428 . S
C331 N330 1.351 . S
C331 C332 1.434 . S
C332 C323 1.429 . S
C332 N329 1.350 . S
C332 C331 1.434 . S
C333 C334 1.369 . S
C333 C335 1.419 . S
C333 H337 0.930 . S
C334 C333 1.369 . S
C334 C343 1.429 . S
C335 C333 1.419 . S
C335 C336 1.363 . S
C335 H338 0.929 . S
C336 C335 1.363 . S
C336 C342 1.428 . S
H337 C333 0.930 . S
H338 C335 0.929 . S
S339 N340 1.613 . S
S339 N341 1.610 . S
N340 S339 1.613 . S
N340 C343 1.350 . S
N341 S339 1.610 . S
N341 C342 1.351 . S
C342 C336 1.428 . S
C342 N341 1.351 . S
C342 C343 1.434 . S
C343 C334 1.429 . S
C343 N340 1.350 . S
C343 C342 1.434 . S
C344 C345 1.369 . S
C344 C346 1.419 . S
C344 H348 0.930 . S
C345 C344 1.369 . S
C345 C354 1.429 . S
C346 C344 1.419 . S
C346 C347 1.363 . S
C346 H349 0.929 . S
C347 C346 1.363 . S
C347 C353 1.428 . S
H348 C344 0.930 . S
H349 C346 0.929 . S
S350 N351 1.613 . S
S350 N352 1.610 . S
N351 S350 1.613 . S
N351 C354 1.350 . S
N352 S350 1.610 . S
N352 C353 1.351 . S
C353 C347 1.428 . S
C353 N352 1.351 . S
C353 C354 1.434 . S
C354 C345 1.429 . S
C354 N351 1.350 . S
C354 C353 1.434 . S
C355 C356 1.369 . S
C355 C357 1.419 . S
C355 H359 0.930 . S
C356 C355 1.369 . S
C356 C365 1.429 . S
C357 C355 1.419 . S
C357 C358 1.363 . S
C357 H360 0.929 . S
C358 C357 1.363 . S
C358 C364 1.428 . S
H359 C355 0.930 . S
H360 C357 0.929 . S
S361 N362 1.613 . S
S361 N363 1.610 . S
N362 S361 1.613 . S
N362 C365 1.350 . S
N363 S361 1.610 . S
N363 C364 1.351 . S
C364 C358 1.428 . S
C364 N363 1.351 . S
C364 C365 1.434 . S
C365 C356 1.429 . S
C365 N362 1.350 . S
C365 C364 1.434 . S
C366 C367 1.369 . S
C366 C368 1.419 1_545 S
C366 H370 0.930 . S
C367 C366 1.369 . S
C367 C376 1.429 1_554 S
C368 C366 1.419 1_565 S
C368 C369 1.363 . S
C368 H371 0.929 . S
C369 C368 1.363 . S
C369 C375 1.428 1_554 S
H370 C366 0.930 . S
H371 C368 0.929 . S
S372 N373 1.617 1_565 S
S372 N374 1.608 . S
N373 S372 1.617 1_545 S
N373 C376 1.350 . S
N374 S372 1.608 . S
N374 C375 1.351 . S
C375 C369 1.428 1_556 S
C375 N374 1.351 . S
C375 C376 1.434 1_565 S
C376 C367 1.429 1_556 S
C376 N373 1.350 . S
C376 C375 1.434 1_545 S
C377 C378 1.369 . S
C377 C379 1.419 . S
C377 H381 0.930 . S
C378 C377 1.369 . S
C378 C387 1.429 . S
C379 C377 1.419 . S
C379 C380 1.363 . S
C379 H382 0.929 . S
C380 C379 1.363 . S
C380 C386 1.428 . S
H381 C377 0.930 . S
H382 C379 0.929 . S
S383 N384 1.613 . S
S383 N385 1.610 . S
N384 S383 1.613 . S
N384 C387 1.350 . S
N385 S383 1.610 . S
N385 C386 1.351 . S
C386 C380 1.428 . S
C386 N385 1.351 . S
C386 C387 1.434 . S
C387 C378 1.429 . S
C387 N384 1.350 . S
C387 C386 1.434 . S
C388 C389 1.369 . S
C388 C390 1.419 1_455 S
C388 H392 0.930 . S
C389 C388 1.369 . S
C389 C398 1.429 . S
C390 C388 1.419 1_655 S
C390 C391 1.363 . S
C390 H393 0.929 . S
C391 C390 1.363 . S
C391 C397 1.428 . S
H392 C388 0.930 . S
H393 C390 0.929 . S
S394 N395 1.615 1_655 S
S394 N396 1.606 . S
N395 S394 1.615 1_455 S
N395 C398 1.350 . S
N396 S394 1.606 . S
N396 C397 1.351 . S
C397 C391 1.428 . S
C397 N396 1.351 . S
C397 C398 1.434 1_655 S
C398 C389 1.429 . S
C398 N395 1.350 . S
C398 C397 1.434 1_455 S
C399 C400 1.369 . S
C399 C401 1.419 1_565 S
C399 H403 0.930 . S
C400 C399 1.369 . S
C400 C409 1.429 . S
C401 C399 1.419 1_545 S
C401 C402 1.363 . S
C401 H404 0.929 . S
C402 C401 1.363 . S
C402 C408 1.428 . S
H403 C399 0.930 . S
H404 C401 0.929 . S
S405 N406 1.610 . S
S405 N407 1.612 1_565 S
N406 S405 1.610 . S
N406 C409 1.350 . S
N407 S405 1.612 1_545 S
N407 C408 1.351 . S
C408 C402 1.428 . S
C408 N407 1.351 . S
C408 C409 1.434 1_545 S
C409 C400 1.429 . S
C409 N406 1.350 . S
C409 C408 1.434 1_565 S
C410 C411 1.369 . S
C410 C412 1.419 . S
C410 H414 0.930 . S
C411 C410 1.369 . S
C411 C420 1.429 . S
C412 C410 1.419 . S
C412 C413 1.363 . S
C412 H415 0.929 . S
C413 C412 1.363 . S
C413 C419 1.428 . S
H414 C410 0.930 . S
H415 C412 0.929 . S
S416 N417 1.613 . S
S416 N418 1.610 . S
N417 S416 1.613 . S
N417 C420 1.350 . S
N418 S416 1.610 . S
N418 C419 1.351 . S
C419 C413 1.428 . S
C419 N418 1.351 . S
C419 C420 1.434 . S
C420 C411 1.429 . S
C420 N417 1.350 . S
C420 C419 1.434 . S
C421 C422 1.369 . S
C421 C423 1.419 1_455 S
C421 H425 0.930 . S
C422 C421 1.369 . S
C422 C431 1.429 . S
C423 C421 1.419 1_655 S
C423 C424 1.363 . S
C423 H426 0.929 . S
C424 C423 1.363 . S
C424 C430 1.428 . S
H425 C421 0.930 . S
H426 C423 0.929 . S
S427 N428 1.616 1_655 S
S427 N429 1.609 . S
N428 S427 1.616 1_455 S
N428 C431 1.350 . S
N429 S427 1.609 . S
N429 C430 1.351 . S
C430 C424 1.428 . S
C430 N429 1.351 . S
C430 C431 1.434 1_655 S
C431 C422 1.429 . S
C431 N428 1.350 . S
C431 C430 1.434 1_455 S
C169 C7 1.190 . S
C171 C147 1.189 . S
C180 C21 1.194 . S
C182 C161 1.194 . S
C191 C91 1.188 . S
C193 C35 1.190 . S
C202 C49 1.196 . S
C204 C105 1.191 . S
C213 C119 1.188 . S
C215 C63 1.191 . S
C224 C133 1.193 . S
C226 C77 1.189 . S
C235 C120 1.439 . S
C237 C8 1.439 . S
C246 C22 1.436 . S
C248 C134 1.440 . S
C257 C148 1.440 . S
C259 C36 1.436 . S
C268 C50 1.441 . S
C270 C162 1.437 . S
C279 C64 1.441 . S
C281 C92 1.436 . S
C290 C78 1.439 . S
C292 C106 1.438 . S
C301 C143 1.607 . S
C303 C3 1.607 . S
C312 C157 1.608 . S
C314 C17 1.607 . S
C323 C87 1.607 1_554 S
C325 C31 1.607 . S
C334 C45 1.606 . S
C336 C101 1.606 . S
C345 C59 1.607 . S
C347 C115 1.607 . S
C356 C129 1.606 . S
C358 C73 1.606 . S
C367 C9 1.373 . S
C369 C107 1.373 . S
C378 C121 1.370 . S
C380 C23 1.371 . S
C389 C135 1.376 . S
C391 C37 1.376 . S
C400 C51 1.373 . S
C402 C149 1.373 . S
C411 C65 1.372 . S
C413 C163 1.373 . S
C422 C79 1.378 . S
C424 C93 1.377 . S
