# Generated by pormake.
# Topology vby, (6)-cn, num edge types: 1
# Building blocks:
#     Node 0, Type 0, BuildingBlock: CIFDUS_clean_sbu_1, # of connection points: 6
#     Node 1, Type 0, BuildingBlock: CIFDUS_clean_sbu_1, # of connection points: 6
#     Node 2, Type 0, BuildingBlock: CIFDUS_clean_sbu_1, # of connection points: 6
#     Node 3, Type 0, BuildingBlock: CIFDUS_clean_sbu_1, # of connection points: 6
#     Node 4, Type 0, BuildingBlock: CIFDUS_clean_sbu_1, # of connection points: 6
#     Node 5, Type 0, BuildingBlock: CIFDUS_clean_sbu_1, # of connection points: 6
#     Node 6, Type 0, BuildingBlock: CIFDUS_clean_sbu_1, # of connection points: 6
#     Node 7, Type 0, BuildingBlock: CIFDUS_clean_sbu_1, # of connection points: 6
#     Edge 8, Type (0, 0), BuildingBlock: ZUJKAS_clean_linker_0, # of connection points: 2
#     Edge 9, Type (0, 0), BuildingBlock: ZUJKAS_clean_linker_0, # of connection points: 2
#     Edge 10, Type (0, 0), BuildingBlock: ZUJKAS_clean_linker_0, # of connection points: 2
#     Edge 11, Type (0, 0), BuildingBlock: ZUJKAS_clean_linker_0, # of connection points: 2
#     Edge 12, Type (0, 0), BuildingBlock: ZUJKAS_clean_linker_0, # of connection points: 2
#     Edge 13, Type (0, 0), BuildingBlock: ZUJKAS_clean_linker_0, # of connection points: 2
#     Edge 14, Type (0, 0), BuildingBlock: ZUJKAS_clean_linker_0, # of connection points: 2
#     Edge 15, Type (0, 0), BuildingBlock: ZUJKAS_clean_linker_0, # of connection points: 2
#     Edge 16, Type (0, 0), BuildingBlock: ZUJKAS_clean_linker_0, # of connection points: 2
#     Edge 17, Type (0, 0), BuildingBlock: ZUJKAS_clean_linker_0, # of connection points: 2
#     Edge 18, Type (0, 0), BuildingBlock: ZUJKAS_clean_linker_0, # of connection points: 2
#     Edge 19, Type (0, 0), BuildingBlock: ZUJKAS_clean_linker_0, # of connection points: 2
#     Edge 20, Type (0, 0), BuildingBlock: ZUJKAS_clean_linker_0, # of connection points: 2
#     Edge 21, Type (0, 0), BuildingBlock: ZUJKAS_clean_linker_0, # of connection points: 2
#     Edge 22, Type (0, 0), BuildingBlock: ZUJKAS_clean_linker_0, # of connection points: 2
#     Edge 23, Type (0, 0), BuildingBlock: ZUJKAS_clean_linker_0, # of connection points: 2
#     Edge 24, Type (0, 0), BuildingBlock: ZUJKAS_clean_linker_0, # of connection points: 2
#     Edge 25, Type (0, 0), BuildingBlock: ZUJKAS_clean_linker_0, # of connection points: 2
#     Edge 26, Type (0, 0), BuildingBlock: ZUJKAS_clean_linker_0, # of connection points: 2
#     Edge 27, Type (0, 0), BuildingBlock: ZUJKAS_clean_linker_0, # of connection points: 2
#     Edge 28, Type (0, 0), BuildingBlock: ZUJKAS_clean_linker_0, # of connection points: 2
#     Edge 29, Type (0, 0), BuildingBlock: ZUJKAS_clean_linker_0, # of connection points: 2
#     Edge 30, Type (0, 0), BuildingBlock: ZUJKAS_clean_linker_0, # of connection points: 2
#     Edge 31, Type (0, 0), BuildingBlock: ZUJKAS_clean_linker_0, # of connection points: 2
# Relax obj value: 0.087
# Max RMSD: 0.124
# Mean RMSD: 0.124
data_MOF--net-vby--node1-CIFDUS_clean_sbu_1--edge1-ZUJKAS_clean_linker_0
_symmetry_space_group_name_H-M    P1
_symmetry_Int_Tables_number       1
_symmetry_cell_setting            triclinic
loop_
_symmetry_equiv_pos_as_xyz
'x, y, z'
_cell_length_a     20.132093
_cell_length_b     77.593095
_cell_length_c     39.732839
_cell_angle_alpha  90.108918
_cell_angle_beta   89.887786
_cell_angle_gamma 90.30323
loop_
_atom_site_label
_atom_site_type_symbol
_atom_site_fract_x
_atom_site_fract_y
_atom_site_fract_z
_atom_type_partial_charge
O0 O 0.08315 0.35459 0.98809 0.0
Mn1 Mn 0.06247 0.38048 1.00182 0.0
O2 O 0.08398 0.33983 0.03506 0.0
Mn3 Mn 0.12094 0.35912 0.0539 0.0
O4 O 0.04819 0.40744 0.01424 0.0
O5 O 0.05795 0.38413 0.9492 0.0
Mn6 Mn 0.99524 0.40034 0.9559 0.0
O7 O 0.96225 0.37393 0.00566 0.0
O8 O 0.03769 0.42022 0.96485 0.0
O9 O 0.16494 0.38549 1.00004 0.0
O10 O 0.20251 0.36631 0.03781 0.0
O11 O 0.97663 0.39355 0.91488 0.0
O12 O 0.91953 0.39662 0.98123 0.0
C13 C 0.07015 0.37439 0.08668 0.0
C14 C 0.08364 0.3401 0.00347 0.0
C15 C 0.0507 0.42118 0.99576 0.0
C16 C 0.02338 0.38259 0.92097 0.0
C17 C 0.91243 0.38317 0.99845 0.0
C18 C 0.21243 0.37812 0.01613 0.0
O19 O 0.06648 0.377 0.05393 0.0
O20 O 0.10658 0.36188 0.09765 0.0
O21 O 0.9206 0.666 0.99739 0.0
Mn22 Mn 0.93019 0.63927 1.00223 0.0
O23 O 0.82793 0.67031 0.02665 0.0
Mn24 Mn 0.83123 0.65008 0.05121 0.0
O25 O 0.9383 0.612 0.0073 0.0
O26 O 0.95069 0.63922 0.95058 0.0
Mn27 Mn 0.01899 0.62475 0.95077 0.0
O28 O 0.0313 0.64292 0.01599 0.0
O29 O 0.99512 0.60295 0.9626 0.0
O30 O 0.82768 0.63558 0.98882 0.0
O31 O 0.77311 0.63355 0.03739 0.0
O32 O 0.01287 0.62937 0.90737 0.0
O33 O 0.09135 0.63373 0.9722 0.0
C34 C 0.91349 0.6477 0.08226 0.0
C35 C 0.87299 0.67569 0.00704 0.0
C36 C 0.96242 0.59979 0.98903 0.0
C37 C 0.96458 0.63895 0.91805 0.0
C38 C 0.08727 0.64054 1.00101 0.0
C39 C 0.77525 0.63131 0.00587 0.0
O40 O 0.90932 0.6393 0.05357 0.0
O41 O 0.85945 0.65501 0.09271 0.0
O42 O 0.96225 0.64491 0.49967 0.0
Mn43 Mn 0.06446 0.64097 0.50248 0.0
O44 O 0.93123 0.6225 0.5297 0.0
Mn45 Mn 0.01214 0.62152 0.55128 0.0
O46 O 0.16826 0.63797 0.50353 0.0
O47 O 0.06294 0.64263 0.44963 0.0
Mn48 Mn 0.11416 0.66134 0.44809 0.0
O49 O 0.07875 0.66769 0.51287 0.0
O50 O 0.19784 0.65716 0.46425 0.0
O51 O 0.05402 0.61358 0.49214 0.0
O52 O 0.06158 0.6028 0.54241 0.0
O53 O 0.10269 0.65751 0.40477 0.0
O54 O 0.07438 0.68076 0.46414 0.0
C55 C 0.0442 0.63664 0.58781 0.0
C56 C 0.91723 0.63454 0.50975 0.0
C57 C 0.21283 0.64651 0.48719 0.0
C58 C 0.06652 0.64504 0.41667 0.0
C59 C 0.07594 0.68165 0.49568 0.0
C60 C 0.06301 0.60042 0.51135 0.0
O61 O 0.06324 0.64033 0.55643 0.0
O62 O 0.0016 0.62447 0.59414 0.0
O63 O 0.90854 0.35539 0.51904 0.0
Mn64 Mn 0.92828 0.38157 0.50563 0.0
O65 O 0.91015 0.34191 0.47097 0.0
Mn66 Mn 0.86405 0.3606 0.45623 0.0
O67 O 0.9427 0.4086 0.49469 0.0
O68 O 0.93878 0.38551 0.55688 0.0
Mn69 Mn 0.00289 0.40165 0.55385 0.0
O70 O 0.02834 0.37566 0.4992 0.0
O71 O 0.95786 0.42118 0.54456 0.0
O72 O 0.82719 0.38656 0.51107 0.0
O73 O 0.78497 0.36591 0.47783 0.0
O74 O 0.01874 0.39142 0.59329 0.0
O75 O 0.0741 0.39798 0.52512 0.0
C76 C 0.90658 0.37581 0.421 0.0
C77 C 0.90925 0.3412 0.50246 0.0
C78 C 0.94281 0.42222 0.5137 0.0
C79 C 0.9726 0.38085 0.58349 0.0
C80 C 0.07871 0.38502 0.50606 0.0
C81 C 0.77794 0.37795 0.49925 0.0
O82 O 0.91763 0.3788 0.4533 0.0
O83 O 0.86588 0.3636 0.41222 0.0
O84 O 0.58602 0.8536 0.99358 0.0
Mn85 Mn 0.56576 0.88038 0.00255 0.0
O86 O 0.59269 0.84221 0.04428 0.0
Mn87 Mn 0.62484 0.86264 0.05953 0.0
O88 O 0.54868 0.90739 0.01363 0.0
O89 O 0.56351 0.88112 0.94816 0.0
Mn90 Mn 0.51027 0.89926 0.95659 0.0
O91 O 0.46498 0.87417 0.00565 0.0
O92 O 0.55539 0.91905 0.96436 0.0
O93 O 0.66877 0.88556 1.00084 0.0
O94 O 0.7061 0.86948 0.04362 0.0
O95 O 0.49508 0.89705 0.91416 0.0
O96 O 0.42911 0.89653 0.97753 0.0
C97 C 0.56714 0.87811 0.0881 0.0
C98 C 0.58987 0.84031 0.01288 0.0
C99 C 0.55608 0.92097 0.99547 0.0
C100 C 0.53942 0.88519 0.91787 0.0
C101 C 0.41741 0.88348 0.99534 0.0
C102 C 0.71624 0.87967 0.01918 0.0
O103 O 0.56589 0.87917 0.05497 0.0
O104 O 0.60739 0.86732 0.10222 0.0
O105 O 0.42351 0.16712 0.99276 0.0
Mn106 Mn 0.43393 0.1408 0.00467 0.0
O107 O 0.33712 0.17429 0.02432 0.0
Mn108 Mn 0.34176 0.15462 0.04959 0.0
O109 O 0.44114 0.11385 0.01803 0.0
O110 O 0.45296 0.13842 0.95185 0.0
Mn111 Mn 0.50585 0.12078 0.9642 0.0
O112 O 0.53414 0.1462 0.01559 0.0
O113 O 0.45773 0.10131 0.96953 0.0
O114 O 0.33157 0.13574 0.99244 0.0
O115 O 0.27916 0.13841 0.04083 0.0
O116 O 0.53245 0.1234 0.92305 0.0
O117 O 0.5781 0.12328 0.9923 0.0
C118 C 0.40162 0.14931 0.08797 0.0
C119 C 0.37873 0.17786 1.0017 0.0
C120 C 0.43936 0.10021 0.99949 0.0
C121 C 0.48422 0.13439 0.9233 0.0
C122 C 0.58386 0.13638 0.01071 0.0
C123 C 0.27972 0.13325 0.01092 0.0
O124 O 0.41989 0.14448 0.05717 0.0
O125 O 0.35053 0.15923 0.0922 0.0
O126 O 0.46613 0.14333 0.49047 0.0
Mn127 Mn 0.56737 0.13972 0.50268 0.0
O128 O 0.40743 0.13594 0.53581 0.0
Mn129 Mn 0.47759 0.12404 0.55268 0.0
O130 O 0.66932 0.13634 0.51355 0.0
O131 O 0.58404 0.14269 0.45233 0.0
Mn132 Mn 0.65609 0.15542 0.44829 0.0
O133 O 0.57924 0.16641 0.51126 0.0
O134 O 0.72528 0.14352 0.4666 0.0
O135 O 0.55849 0.11287 0.49351 0.0
O136 O 0.49097 0.10287 0.53376 0.0
O137 O 0.63181 0.15133 0.40518 0.0
O138 O 0.63902 0.17654 0.46748 0.0
C139 C 0.53867 0.13563 0.58672 0.0
C140 C 0.41096 0.14219 0.50657 0.0
C141 C 0.72335 0.13756 0.49627 0.0
C142 C 0.58364 0.14297 0.41953 0.0
C143 C 0.6078 0.17876 0.49498 0.0
C144 C 0.52632 0.10052 0.50786 0.0
O145 O 0.54995 0.13725 0.55416 0.0
O146 O 0.49034 0.12573 0.59665 0.0
O147 O 0.42404 0.85329 0.51245 0.0
Mn148 Mn 0.4347 0.8799 0.50443 0.0
O149 O 0.33752 0.84946 0.47838 0.0
Mn150 Mn 0.3488 0.87 0.4554 0.0
O151 O 0.44289 0.90667 0.49327 0.0
O152 O 0.44296 0.88245 0.55635 0.0
Mn153 Mn 0.4941 0.90119 0.55743 0.0
O154 O 0.53787 0.87744 0.49961 0.0
O155 O 0.45248 0.92036 0.54178 0.0
O156 O 0.33127 0.88277 0.51361 0.0
O157 O 0.29348 0.88803 0.46405 0.0
O158 O 0.4829 0.89689 0.60102 0.0
O159 O 0.57537 0.89639 0.53804 0.0
C160 C 0.41755 0.87246 0.41975 0.0
C161 C 0.37789 0.84371 0.50006 0.0
C162 C 0.4424 0.92065 0.51059 0.0
C163 C 0.44825 0.8841 0.58924 0.0
C164 C 0.58529 0.88576 0.51411 0.0
C165 C 0.2849 0.88865 0.49511 0.0
O166 O 0.4335 0.87646 0.45126 0.0
O167 O 0.359 0.86652 0.4124 0.0
H168 H 0.30073 0.38387 0.06519 0.0
H169 H 0.4213 0.38472 0.06001 0.0
H170 H 0.40425 0.38381 0.95186 0.0
H171 H 0.28194 0.38286 0.95697 0.0
H172 H 0.48672 0.35554 0.021 0.0
H173 H 0.55148 0.42238 0.98088 0.0
H174 H 0.47647 0.41765 0.00424 0.0
H175 H 0.48268 0.41145 0.9609 0.0
C176 C 0.32255 0.38435 0.04024 0.0
C177 C 0.28228 0.38329 0.01145 0.0
C178 C 0.39136 0.38475 0.03737 0.0
C179 C 0.42142 0.38418 0.00565 0.0
C180 C 0.38158 0.38431 0.97659 0.0
H181 H 0.83146 0.3708 0.95091 0.0
H182 H 0.71024 0.36869 0.95404 0.0
C183 C 0.312 0.38391 0.97947 0.0
C184 C 0.4941 0.3818 0.00375 0.0
H185 H 0.64002 0.40313 0.98956 0.0
C186 C 0.52035 0.3659 0.01393 0.0
C187 C 0.53742 0.39539 0.99487 0.0
C188 C 0.5111 0.41276 0.98468 0.0
C189 C 0.58921 0.36327 0.01543 0.0
C190 C 0.63244 0.3769 0.0068 0.0
C191 C 0.60629 0.39275 0.99636 0.0
C192 C 0.70525 0.37485 0.00703 0.0
C193 C 0.61576 0.34601 0.02617 0.0
C194 C 0.7423 0.37836 0.03622 0.0
C195 C 0.81179 0.37946 0.03453 0.0
C196 C 0.84427 0.37702 0.00364 0.0
C197 C 0.80721 0.37242 0.97509 0.0
C198 C 0.73818 0.37133 0.97677 0.0
H199 H 0.57545 0.33654 0.03133 0.0
H200 H 0.64864 0.34077 0.00619 0.0
H201 H 0.64625 0.34763 0.04923 0.0
H202 H 0.71732 0.3812 0.05974 0.0
H203 H 0.83953 0.38338 0.05662 0.0
H204 H 0.15892 0.61742 0.03513 0.0
H205 H 0.2805 0.61722 0.03643 0.0
H206 H 0.28463 0.66955 1.00043 0.0
H207 H 0.16262 0.66966 0.9986 0.0
H208 H 0.34382 0.63134 0.96136 0.0
H209 H 0.43842 0.65587 0.08429 0.0
H210 H 0.36134 0.64388 0.08179 0.0
H211 H 0.36576 0.6653 0.0652 0.0
C212 C 0.18567 0.62923 0.02955 0.0
C213 C 0.1514 0.6437 0.01756 0.0
C214 C 0.25515 0.62901 0.02977 0.0
C215 C 0.29139 0.64333 0.01833 0.0
C216 C 0.2574 0.6584 0.00948 0.0
H217 H 0.71139 0.65657 0.97278 0.0
H218 H 0.59019 0.65954 0.97093 0.0
C219 C 0.18774 0.65857 0.00899 0.0
C220 C 0.36321 0.64156 0.01081 0.0
H221 H 0.51802 0.64685 0.04431 0.0
C222 C 0.38202 0.6348 0.97939 0.0
C223 C 0.41259 0.64604 0.03443 0.0
C224 C 0.39415 0.65319 0.06844 0.0
C225 C 0.44927 0.6323 0.97112 0.0
C226 C 0.49864 0.63665 0.99483 0.0
C227 C 0.47986 0.64357 0.02614 0.0
C228 C 0.57019 0.63363 0.98824 0.0
C229 C 0.46758 0.62492 0.93728 0.0
C230 C 0.59879 0.61781 0.99699 0.0
C231 C 0.66798 0.6161 0.99806 0.0
C232 C 0.70949 0.63009 0.9899 0.0
C233 C 0.68061 0.64538 0.97803 0.0
C234 C 0.61139 0.64719 0.9775 0.0
H235 H 0.42355 0.62305 0.92083 0.0
H236 H 0.50348 0.63363 0.92444 0.0
H237 H 0.49241 0.61231 0.9408 0.0
H238 H 0.56773 0.60723 0.00545 0.0
H239 H 0.68895 0.60438 0.0082 0.0
H240 H 0.84827 0.66413 0.49469 0.0
H241 H 0.72672 0.66645 0.4887 0.0
H242 H 0.70823 0.61122 0.49696 0.0
H243 H 0.82812 0.60882 0.50282 0.0
H244 H 0.6242 0.62706 0.4469 0.0
H245 H 0.608 0.65704 0.57421 0.0
H246 H 0.66326 0.66694 0.54417 0.0
H247 H 0.68124 0.64582 0.55992 0.0
C248 C 0.81817 0.65252 0.49446 0.0
C249 C 0.84722 0.63633 0.49971 0.0
C250 C 0.74899 0.65385 0.49131 0.0
C251 C 0.70877 0.639 0.49305 0.0
C252 C 0.73842 0.62281 0.49582 0.0
H253 H 0.27907 0.62083 0.52233 0.0
H254 H 0.40092 0.6175 0.52662 0.0
C255 C 0.80689 0.62149 0.49924 0.0
C256 C 0.6356 0.64004 0.49449 0.0
H257 H 0.50712 0.65175 0.5458 0.0
C258 C 0.59854 0.63245 0.46849 0.0
C259 C 0.6026 0.64682 0.52301 0.0
C260 C 0.64051 0.65454 0.55212 0.0
C261 C 0.52899 0.63176 0.47003 0.0
C262 C 0.49606 0.6387 0.49835 0.0
C263 C 0.53298 0.64616 0.52447 0.0
C264 C 0.42338 0.6407 0.49856 0.0
C265 C 0.4907 0.624 0.44109 0.0
C266 C 0.39686 0.65496 0.48221 0.0
C267 C 0.32864 0.65692 0.47992 0.0
C268 C 0.28482 0.64456 0.49375 0.0
C269 C 0.31143 0.6305 0.51135 0.0
C270 C 0.3807 0.62857 0.51371 0.0
H271 H 0.52353 0.61712 0.42309 0.0
H272 H 0.45242 0.61488 0.45065 0.0
H273 H 0.46459 0.6344 0.42736 0.0
H274 H 0.42917 0.66447 0.47058 0.0
H275 H 0.31042 0.66809 0.46657 0.0
H276 H 0.69885 0.35984 0.54131 0.0
H277 H 0.57701 0.36089 0.54285 0.0
H278 H 0.58065 0.40483 0.47655 0.0
H279 H 0.70263 0.4039 0.47536 0.0
H280 H 0.47813 0.38928 0.55633 0.0
H281 H 0.48256 0.36377 0.42538 0.0
H282 H 0.55351 0.36266 0.45302 0.0
H283 H 0.53228 0.38269 0.43333 0.0
C284 C 0.67352 0.37017 0.52835 0.0
C285 C 0.70957 0.38204 0.50883 0.0
C286 C 0.60413 0.37066 0.52896 0.0
C287 C 0.57008 0.38279 0.50948 0.0
C288 C 0.60622 0.39533 0.49163 0.0
H289 H 0.16079 0.40268 0.46473 0.0
H290 H 0.28214 0.40015 0.46291 0.0
C291 C 0.67568 0.39495 0.49131 0.0
C292 C 0.49724 0.38131 0.50538 0.0
H293 H 0.3772 0.37042 0.44831 0.0
C294 C 0.45596 0.38511 0.5328 0.0
C295 C 0.46877 0.37573 0.47466 0.0
C296 C 0.51135 0.37083 0.4449 0.0
C297 C 0.38657 0.38386 0.53004 0.0
C298 C 0.35807 0.37839 0.49926 0.0
C299 C 0.39937 0.3745 0.47189 0.0
C300 C 0.28518 0.3776 0.49477 0.0
C301 C 0.34395 0.38878 0.55978 0.0
C302 C 0.24686 0.36518 0.51175 0.0
C303 C 0.17749 0.36639 0.51214 0.0
C304 C 0.14598 0.3801 0.49575 0.0
C305 C 0.18417 0.39181 0.47693 0.0
C306 C 0.25332 0.39045 0.47613 0.0
H307 H 0.37312 0.39532 0.57985 0.0
H308 H 0.30323 0.39745 0.55176 0.0
H309 H 0.32095 0.37699 0.57059 0.0
H310 H 0.27075 0.35515 0.52622 0.0
H311 H 0.14902 0.35751 0.52755 0.0
H312 H 0.80944 0.88358 0.06674 0.0
H313 H 0.92915 0.88335 0.05935 0.0
H314 H 0.90472 0.88512 0.95167 0.0
H315 H 0.78259 0.88494 0.95886 0.0
H316 H 0.991 0.85424 0.00603 0.0
H317 H 0.05366 0.92422 0.99779 0.0
H318 H 0.98222 0.91692 0.02145 0.0
H319 H 0.98152 0.91559 0.97646 0.0
C320 C 0.82922 0.88427 0.04138 0.0
C321 C 0.78663 0.88416 0.0133 0.0
C322 C 0.89768 0.88407 0.0373 0.0
C323 C 0.92533 0.88398 0.00508 0.0
C324 C 0.88366 0.88506 0.97677 0.0
H325 H 0.33075 0.88055 0.94497 0.0
H326 H 0.21026 0.87805 0.94891 0.0
C327 C 0.81425 0.88517 0.98087 0.0
C328 C -0.0022 0.88188 1.00195 0.0
H329 H 0.14281 0.90474 1.00093 0.0
C330 C 0.02439 0.86523 0.00455 0.0
C331 C 0.04064 0.89629 1.00087 0.0
C332 C 0.01361 0.91434 0.99901 0.0
C333 C 0.09337 0.86267 0.00585 0.0
C334 C 0.13612 0.87711 0.00478 0.0
C335 C 0.10948 0.89373 1.00212 0.0
C336 C 0.2089 0.8753 0.00299 0.0
C337 C 0.12057 0.84466 0.00813 0.0
C338 C 0.24793 0.87396 0.0322 0.0
C339 C 0.31745 0.87527 0.03 0.0
C340 C 0.34762 0.87813 0.99861 0.0
C341 C 0.30835 0.87841 0.96945 0.0
C342 C 0.23968 0.87699 0.97162 0.0
H343 H 0.08063 0.83472 0.00828 0.0
H344 H 0.15421 0.84219 0.98649 0.0
H345 H 0.15042 0.84339 0.03145 0.0
H346 H 0.22454 0.87274 0.05666 0.0
H347 H 0.34693 0.87517 0.05278 0.0
H348 H 0.19482 0.10827 0.03078 0.0
H349 H 0.07386 0.11079 0.02946 0.0
H350 H 0.09177 0.15488 0.96411 0.0
H351 H 0.21287 0.15206 0.96481 0.0
H352 H 0.01364 0.13909 0.05581 0.0
H353 H 0.93328 0.13044 0.92326 0.0
H354 H 0.01368 0.1236 0.938 0.0
H355 H -0.00115 0.14594 0.92893 0.0
C356 C 0.17271 0.1178 0.01439 0.0
C357 C 0.21325 0.12965 0.99708 0.0
C358 C 0.10356 0.11947 0.01422 0.0
C359 C 0.07336 0.13306 0.99678 0.0
C360 C 0.1135 0.14409 0.97725 0.0
H361 H 0.65501 0.16527 0.99524 0.0
H362 H 0.777 0.16743 0.99528 0.0
C363 C 0.18287 0.14232 0.97722 0.0
C364 C 0.00134 0.13667 1.00211 0.0
H365 H 0.85229 0.14047 0.96178 0.0
C366 C 0.97844 0.13938 0.03519 0.0
C367 C 0.9553 0.13731 0.97528 0.0
C368 C 0.97622 0.13403 0.93939 0.0
C369 C 0.91093 0.14238 0.04214 0.0
C370 C 0.8648 0.1426 0.0154 0.0
C371 C 0.88781 0.14042 0.98226 0.0
C372 C 0.79184 0.1433 0.02137 0.0
C373 C 0.8893 0.14526 0.07806 0.0
C374 C 0.75971 0.12938 0.0371 0.0
C375 C 0.69041 0.12814 0.03699 0.0
C376 C 0.65177 0.1409 0.02159 0.0
C377 C 0.68358 0.15551 0.00814 0.0
C378 C 0.75323 0.15663 0.00776 0.0
H379 H 0.93155 0.1493 0.09426 0.0
H380 H 0.84992 0.15521 0.0795 0.0
H381 H 0.86866 0.13306 0.0883 0.0
H382 H 0.78831 0.11883 0.04731 0.0
H383 H 0.66712 0.11655 0.04677 0.0
H384 H 0.34175 0.1166 0.47864 0.0
H385 H 0.22078 0.11558 0.47539 0.0
H386 H 0.21267 0.17002 0.49693 0.0
H387 H 0.33447 0.17092 0.50117 0.0
H388 H 0.14834 0.14679 0.54514 0.0
H389 H 0.06956 0.13313 0.41345 0.0
H390 H 0.14188 0.12208 0.42867 0.0
H391 H 0.14459 0.14502 0.42324 0.0
C392 C 0.31432 0.12856 0.4806 0.0
C393 C 0.34712 0.14393 0.48945 0.0
C394 C 0.24515 0.12792 0.47906 0.0
C395 C 0.20786 0.14273 0.48586 0.0
C396 C 0.24081 0.15848 0.49153 0.0
H397 H 0.79832 0.16336 0.51912 0.0
H398 H 0.91943 0.16323 0.52184 0.0
C399 C 0.31024 0.15907 0.49343 0.0
C400 C 0.13574 0.14108 0.49244 0.0
H401 H 0.98768 0.13067 0.45584 0.0
C402 C 0.11305 0.14339 0.5256 0.0
C403 C 0.09033 0.1363 0.46702 0.0
C404 C 0.11234 0.13406 0.43099 0.0
C405 C 0.04581 0.14111 0.53394 0.0
C406 C 0.00032 0.13647 0.50848 0.0
C407 C 0.02307 0.134 0.47539 0.0
C408 C 0.92797 0.13569 0.51483 0.0
C409 C 0.02363 0.14347 0.56991 0.0
C410 C 0.89263 0.12014 0.51114 0.0
C411 C 0.82306 0.12019 0.50971 0.0
C412 C 0.78851 0.13579 0.51213 0.0
C413 C 0.82389 0.1511 0.5185 0.0
C414 C 0.89308 0.15107 0.51972 0.0
H415 H 0.06631 0.1444 0.58751 0.0
H416 H 0.99418 0.15547 0.57204 0.0
H417 H 0.99117 0.13256 0.5777 0.0
H418 H 0.91897 0.10817 0.50715 0.0
H419 H 0.79684 0.10835 0.50375 0.0
H420 H 0.64947 0.8564 0.4922 0.0
H421 H 0.77076 0.85321 0.48486 0.0
H422 H 0.79746 0.90746 0.50461 0.0
H423 H 0.67822 0.9107 0.5121 0.0
H424 H 0.87886 0.88599 0.44446 0.0
H425 H 0.88951 0.8663 0.57927 0.0
H426 H 0.82335 0.85905 0.55196 0.0
H427 H 0.82608 0.88106 0.56563 0.0
C428 C 0.68131 0.86765 0.4941 0.0
C429 C 0.65482 0.88374 0.50314 0.0
C430 C 0.75026 0.86583 0.49 0.0
C431 C 0.79255 0.88013 0.49444 0.0
C432 C 0.76546 0.89632 0.50111 0.0
H433 H 0.19852 0.91309 0.51897 0.0
H434 H 0.0763 0.91003 0.52024 0.0
C435 C 0.69739 0.89811 0.50552 0.0
C436 C 0.86534 0.87835 0.49605 0.0
H437 H 0.99061 0.87403 0.55322 0.0
C438 C 0.90355 0.88308 0.468 0.0
C439 C 0.89687 0.87481 0.52701 0.0
C440 C 0.85723 0.86997 0.55784 0.0
C441 C 0.97288 0.88468 0.47041 0.0
C442 C 0.00406 0.88166 0.50168 0.0
C443 C 0.96608 0.87651 0.52945 0.0
C444 C 0.07667 0.88316 0.50548 0.0
C445 C 0.01266 0.8898 0.43979 0.0
C446 C 0.11629 0.86889 0.49825 0.0
C447 C 0.18516 0.87051 0.49846 0.0
C448 C 0.21555 0.88645 0.50557 0.0
C449 C 0.17603 0.90061 0.51423 0.0
C450 C 0.10662 0.89891 0.51452 0.0
H451 H 0.98055 0.8927 0.41783 0.0
H452 H 0.04364 0.90131 0.44554 0.0
H453 H 0.04681 0.87917 0.43287 0.0
H454 H 0.09387 0.85671 0.49104 0.0
H455 H 0.21463 0.85955 0.49073 0.0
H456 H 0.98289 0.57236 0.94824 0.0
H457 H 0.99462 0.54235 0.96357 0.0
H458 H 0.94319 0.5544 0.06623 0.0
H459 H 0.93223 0.58515 0.05113 0.0
H460 H 0.0908 0.53297 0.02309 0.0
H461 H 0.82994 0.50869 0.02817 0.0
H462 H 0.85259 0.52661 1.00148 0.0
H463 H 0.85153 0.52936 0.04623 0.0
C464 C 0.97316 0.56878 0.97413 0.0
C465 C 0.95726 0.58131 0.99859 0.0
C466 C 0.97988 0.55152 0.98277 0.0
C467 C 0.97016 0.54618 0.01598 0.0
C468 C 0.95086 0.55835 0.04038 0.0
H469 H 0.00036 0.4343 0.05538 0.0
H470 H 0.98496 0.46517 0.06829 0.0
C471 C 0.94434 0.57586 0.03173 0.0
C472 C 0.98557 0.52806 0.02463 0.0
H473 H 0.9153 0.488 0.02966 0.0
C474 C 0.05248 0.52315 0.0254 0.0
C475 C 0.93554 0.51532 0.02725 0.0
C476 C 0.86315 0.5201 0.02574 0.0
C477 C 0.07081 0.50576 0.0276 0.0
C478 C 0.0208 0.49284 0.02845 0.0
C479 C 0.95372 0.49784 0.0293 0.0
C480 C 0.03691 0.47425 0.0239 0.0
C481 C 0.14381 0.50144 0.028 0.0
C482 C 0.07223 0.46912 0.99519 0.0
C483 C 0.08214 0.45173 0.98831 0.0
C484 C 0.05572 0.43889 0.00948 0.0
C485 C 0.02254 0.4439 0.03904 0.0
C486 C 0.01295 0.46151 0.04612 0.0
H487 H 0.17329 0.51195 0.03986 0.0
H488 H 0.1534 0.48926 0.04172 0.0
H489 H 0.1618 0.50001 1.00172 0.0
H490 H 0.0895 0.47854 0.97706 0.0
H491 H 0.10712 0.44828 0.96507 0.0
H492 H 0.98516 0.43418 0.45182 0.0
H493 H 0.00479 0.46464 0.4369 0.0
H494 H 0.9163 0.48053 0.53069 0.0
H495 H 0.89667 0.45047 0.54565 0.0
H496 H 0.89134 0.50038 0.45527 0.0
H497 H 0.14286 0.49263 0.51146 0.0
H498 H 0.10331 0.47522 0.4887 0.0
H499 H 0.07294 0.48129 0.52943 0.0
C500 C 0.96772 0.44421 0.4686 0.0
C501 C 0.93929 0.43993 0.49987 0.0
C502 C 0.97936 0.46157 0.46019 0.0
C503 C 0.96209 0.4748 0.48278 0.0
C504 C 0.92969 0.47055 0.51286 0.0
H505 H 0.06114 0.57228 0.55151 0.0
H506 H 0.03763 0.54278 0.53734 0.0
C507 C 0.91846 0.45333 0.52132 0.0
C508 C 0.98402 0.49288 0.47745 0.0
H509 H 0.10804 0.52079 0.49961 0.0
C510 C 0.93932 0.50488 0.46412 0.0
C511 C 0.04605 0.49867 0.48974 0.0
C512 C 0.09447 0.48636 0.50565 0.0
C513 C 0.95419 0.52267 0.46392 0.0
C514 C 0.01578 0.52852 0.47697 0.0
C515 C 0.06133 0.51634 0.48907 0.0
C516 C 0.02989 0.54711 0.48377 0.0
C517 C 0.90218 0.53513 0.45197 0.0
C518 C 0.03372 0.55971 0.45827 0.0
C519 C 0.04643 0.57715 0.46642 0.0
C520 C 0.05651 0.58211 0.50012 0.0
C521 C 0.05419 0.56921 0.52514 0.0
C522 C 0.04057 0.55213 0.51714 0.0
H523 H 0.85417 0.52862 0.44634 0.0
H524 H 0.89354 0.54524 0.47129 0.0
H525 H 0.91986 0.54159 0.42871 0.0
H526 H 0.02685 0.5561 0.43219 0.0
H527 H 0.04755 0.58669 0.44657 0.0
H528 H 0.46244 0.94144 0.96962 0.0
H529 H 0.44263 0.97176 0.98072 0.0
H530 H 0.59091 0.97118 0.05894 0.0
H531 H 0.61219 0.94036 0.04718 0.0
H532 H 0.40029 0.98859 0.03616 0.0
H533 H 0.65225 0.01138 0.999 0.0
H534 H 0.62216 0.98997 0.98952 0.0
H535 H 0.64978 0.99517 0.03128 0.0
C536 C 0.49061 0.94767 0.98948 0.0
C537 C 0.53908 0.93851 0.00753 0.0
C538 C 0.47916 0.96506 0.99577 0.0
C539 C 0.51582 0.9739 0.0203 0.0
C540 C 0.56276 0.9647 0.03943 0.0
H541 H 0.49816 0.08637 0.05557 0.0
H542 H 0.51599 0.05538 0.06555 0.0
C543 C 0.5743 0.94706 0.0331 0.0
C544 C 0.50389 0.99272 0.02505 0.0
H545 H 0.57506 0.03256 0.01516 0.0
C546 C 0.43884 0.99818 0.03207 0.0
C547 C 0.55375 1.0053 0.019 0.0
C548 C 0.62333 1.00027 0.00898 0.0
C549 C 0.42216 0.01574 0.03293 0.0
C550 C 0.47182 0.02831 0.02677 0.0
C551 C 0.53726 0.02293 0.02048 0.0
C552 C 0.45541 0.04693 0.02366 0.0
C553 C 0.35107 0.02071 0.03981 0.0
C554 C 0.4142 0.05243 0.99742 0.0
C555 C 0.40336 0.06996 0.99207 0.0
C556 C 0.4336 0.08248 0.01272 0.0
C557 C 0.47247 0.07702 0.03999 0.0
C558 C 0.48362 0.05935 0.04529 0.0
H559 H 0.32336 1.01022 0.05275 0.0
H560 H 0.34854 0.03257 0.05544 0.0
H561 H 0.32578 0.02331 0.01556 0.0
H562 H 0.39293 0.04318 0.97999 0.0
H563 H 0.37467 0.07381 0.97031 0.0
H564 H 0.63181 0.07963 0.4913 0.0
H565 H 0.62587 0.0482 0.48156 0.0
H566 H 0.41208 0.05029 0.48728 0.0
H567 H 0.41786 0.08128 0.4965 0.0
H568 H 0.56812 0.02435 0.5272 0.0
H569 H 0.44036 0.02077 0.40413 0.0
H570 H 0.4806 0.0402 0.41898 0.0
H571 H 0.39876 0.03451 0.43369 0.0
C572 C 0.58374 0.07339 0.48916 0.0
C573 C 0.52529 0.08285 0.49411 0.0
C574 C 0.58031 0.05546 0.48402 0.0
C575 C 0.51841 0.04691 0.48325 0.0
C576 C 0.46025 0.05657 0.48697 0.0
H577 H 0.34905 0.94559 0.50365 0.0
H578 H 0.37151 0.97635 0.49372 0.0
C579 C 0.46365 0.0743 0.49225 0.0
C580 C 0.51348 0.02781 0.48121 0.0
H581 H 0.43658 0.9952 0.43799 0.0
C582 C 0.54054 0.01793 0.50734 0.0
C583 C 0.47652 0.01945 0.45559 0.0
C584 C 0.4479 0.02927 0.42635 0.0
C585 C 0.52968 1.00002 0.5091 0.0
C586 C 0.49173 0.99175 0.48374 0.0
C587 C 0.46572 1.00157 0.45734 0.0
C588 C 0.47676 0.97299 0.48492 0.0
C589 C 0.55659 0.99019 0.53879 0.0
C590 C 0.52782 0.96085 0.48163 0.0
C591 C 0.51462 0.9433 0.48638 0.0
C592 C 0.45018 0.9376 0.49454 0.0
C593 C 0.39857 0.94964 0.49632 0.0
C594 C 0.41161 0.96719 0.49109 0.0
H595 H 0.57249 0.99892 0.55951 0.0
H596 H 0.51871 0.98106 0.54872 0.0
H597 H 0.60028 0.98259 0.53061 0.0
H598 H 0.57835 0.96504 0.47673 0.0
H599 H 0.55564 0.9343 0.48606 0.0
H600 H 0.21354 0.33619 0.99215 0.0
H601 H 0.27212 0.30898 0.98321 0.0
H602 H 0.08459 0.2824 0.97358 0.0
H603 H 0.02547 0.30972 0.98361 0.0
H604 H 0.21243 0.27451 0.03085 0.0
H605 H 0.25255 0.27128 0.89221 0.0
H606 H 0.25186 0.2917 0.91418 0.0
H607 H 0.17608 0.27978 0.90924 0.0
C608 C 0.18484 0.32467 0.98666 0.0
C609 C 0.11502 0.32508 0.98752 0.0
C610 C 0.21836 0.30913 0.98196 0.0
C611 C 0.18265 0.29375 0.9776 0.0
C612 C 0.11288 0.29421 0.97673 0.0
H613 H 0.28667 0.18707 0.95644 0.0
H614 H 0.24482 0.21633 0.94837 0.0
C615 C 0.07918 0.30978 0.98202 0.0
C616 C 0.21844 0.27711 0.97707 0.0
H617 H 0.29401 0.24829 0.92462 0.0
C618 C 0.23044 0.26875 0.00769 0.0
C619 C 0.24191 0.26976 0.94684 0.0
C620 C 0.2303 0.2785 0.91357 0.0
C621 C 0.26468 0.25302 0.0088 0.0
C622 C 0.28857 0.24562 0.97848 0.0
C623 C 0.27644 0.25405 0.94785 0.0
C624 C 0.32187 0.22855 0.978 0.0
C625 C 0.27321 0.2442 0.04234 0.0
C626 C 0.38129 0.22579 0.99571 0.0
C627 C 0.40577 0.20905 0.99994 0.0
C628 C 0.37161 0.1949 0.98615 0.0
C629 C 0.31515 0.19784 0.96631 0.0
C630 C 0.29072 0.21453 0.96208 0.0
H631 H 0.23996 0.24967 0.06194 0.0
H632 H 0.26295 0.23017 0.04014 0.0
H633 H 0.32525 0.24588 0.05094 0.0
H634 H 0.4066 0.23646 0.00788 0.0
H635 H 0.44804 0.20704 0.01627 0.0
H636 H 0.59143 0.81097 0.04943 0.0
H637 H 0.64712 0.78446 0.03662 0.0
H638 H 0.68268 0.80185 0.93499 0.0
H639 H 0.63155 0.82977 0.94901 0.0
H640 H 0.62678 0.7595 0.9995 0.0
H641 H 0.86604 0.78786 0.95566 0.0
H642 H 0.80126 0.80089 0.97378 0.0
H643 H 0.79509 0.79353 0.93089 0.0
C644 C 0.61058 0.80932 0.02412 0.0
C645 C 0.60758 0.82278 1.0004 0.0
C646 C 0.64267 0.79395 0.01679 0.0
C647 C 0.67102 0.79108 0.98503 0.0
C648 C 0.6636 0.80389 0.96014 0.0
H649 H 0.84748 0.68894 0.94468 0.0
H650 H 0.80442 0.71807 0.93356 0.0
C651 C 0.6329 0.81973 0.9679 0.0
C652 C 0.7078 0.77458 0.97931 0.0
H653 H 0.86009 0.75764 0.95948 0.0
C654 C 0.67759 0.7592 0.99041 0.0
C655 C 0.77451 0.77396 0.96758 0.0
C656 C 0.81149 0.78994 0.95656 0.0
C657 C 0.7125 0.74362 0.99167 0.0
C658 C 0.77906 0.74309 0.98049 0.0
C659 C 0.80882 0.75813 0.96783 0.0
C660 C 0.81891 0.72719 0.98451 0.0
C661 C 0.67892 0.72793 0.00647 0.0
C662 C 0.84357 0.72297 0.01641 0.0
C663 C 0.86794 0.70646 0.0227 0.0
C664 C 0.86891 0.69394 0.99713 0.0
C665 C 0.84891 0.69853 0.96452 0.0
C666 C 0.82392 0.71509 0.95825 0.0
H667 H 0.62466 0.72981 0.00992 0.0
H668 H 0.68703 0.7165 0.99014 0.0
H669 H 0.70106 0.72512 0.03143 0.0
H670 H 0.83965 0.73206 0.03704 0.0
H671 H 0.88173 0.70309 0.0482 0.0
H672 H 0.15306 0.6876 0.55164 0.0
H673 H 0.2125 0.71447 0.56518 0.0
H674 H 0.11242 0.74003 0.48364 0.0
H675 H 0.05252 0.71353 0.47044 0.0
H676 H 0.29965 0.73171 0.52115 0.0
H677 H 0.09498 0.77514 0.55844 0.0
H678 H 0.0849 0.752 0.55691 0.0
H679 H 0.07967 0.7646 0.51899 0.0
C680 C 0.14169 0.69914 0.53752 0.0
C681 C 0.09723 0.69845 0.51022 0.0
C682 C 0.17646 0.71443 0.54498 0.0
C683 C 0.16668 0.72936 0.52562 0.0
C684 C 0.11999 0.72886 0.49943 0.0
H685 H 0.3523 0.81795 0.45681 0.0
H686 H 0.31285 0.78898 0.46969 0.0
C687 C 0.08554 0.71365 0.49194 0.0
C688 C 0.20807 0.74514 0.53079 0.0
H689 H 0.19646 0.78884 0.54003 0.0
C690 C 0.27727 0.74414 0.52611 0.0
C691 C 0.17912 0.76142 0.53716 0.0
C692 C 0.10564 0.76336 0.54347 0.0
C693 C 0.31734 0.75909 0.52568 0.0
C694 C 0.28767 0.77537 0.5304 0.0
C695 C 0.21924 0.7763 0.53678 0.0
C696 C 0.32406 0.79168 0.5235 0.0
C697 C 0.3907 0.75759 0.51874 0.0
C698 C 0.34546 0.8027 0.54955 0.0
C699 C 0.36909 0.8194 0.54219 0.0
C700 C 0.37015 0.82526 0.50875 0.0
C701 C 0.35212 0.81378 0.48283 0.0
C702 C 0.32955 0.79719 0.49011 0.0
H703 H 0.40796 0.74403 0.52009 0.0
H704 H 0.40165 0.76265 0.4932 0.0
H705 H 0.41928 0.76551 0.53704 0.0
H706 H 0.34118 0.79866 0.57554 0.0
H707 H 0.38202 0.82804 0.56262 0.0
H708 H 0.78616 0.33176 0.48589 0.0
H709 H 0.73161 0.30419 0.49559 0.0
H710 H 0.89612 0.28801 0.55697 0.0
H711 H 0.95239 0.316 0.54676 0.0
H712 H 0.81433 0.27074 0.47816 0.0
H713 H 0.6979 0.27627 0.60502 0.0
H714 H 0.71175 0.29501 0.57893 0.0
H715 H 0.78103 0.28442 0.59788 0.0
C716 C 0.8101 0.32256 0.50229 0.0
C717 C 0.87338 0.32604 0.51577 0.0
C718 C 0.77888 0.30678 0.50765 0.0
C719 C 0.80976 0.29411 0.52695 0.0
C720 C 0.87148 0.29775 0.5421 0.0
H721 H 0.67163 0.18795 0.55236 0.0
H722 H 0.71925 0.21662 0.56345 0.0
C723 C 0.90336 0.31369 0.53648 0.0
C724 C 0.77927 0.2767 0.52798 0.0
H725 H 0.67381 0.25116 0.57361 0.0
C726 C 0.78429 0.26632 0.49918 0.0
C727 C 0.73957 0.27116 0.55524 0.0
C728 C 0.73169 0.28222 0.58615 0.0
C729 C 0.75025 0.25054 0.49682 0.0
C730 C 0.70888 0.24515 0.52376 0.0
C731 C 0.70512 0.25536 0.55293 0.0
C732 C 0.66957 0.22891 0.52173 0.0
C733 C 0.75911 0.23978 0.46544 0.0
C734 C 0.62269 0.2266 0.49597 0.0
C735 C 0.59562 0.2103 0.48966 0.0
C736 C 0.61366 0.19614 0.50951 0.0
C737 C 0.65545 0.19879 0.53733 0.0
C738 C 0.68332 0.2151 0.54339 0.0
H739 H 0.80486 0.24344 0.45143 0.0
H740 H 0.76158 0.22585 0.47165 0.0
H741 H 0.71612 0.2418 0.44848 0.0
H742 H 0.61038 0.23715 0.47935 0.0
H743 H 0.56457 0.20847 0.46768 0.0
H744 H 0.94384 0.37384 0.11071 0.0
H745 H 0.91608 0.38044 0.16948 0.0
H746 H 0.10999 0.40332 0.18285 0.0
H747 H 0.13617 0.39738 0.12414 0.0
H748 H 0.98072 0.36535 0.21941 0.0
H749 H 0.00407 0.43583 0.23817 0.0
H750 H -0.00165 0.42627 0.19683 0.0
H751 H 0.07645 0.42675 0.21889 0.0
C752 C 0.97845 0.3814 0.12558 0.0
C753 C 0.04127 0.38562 0.11257 0.0
C754 C 0.96326 0.38482 0.15942 0.0
C755 C 0.0108 0.39246 0.18079 0.0
C756 C 0.0716 0.39788 0.16695 0.0
H757 H 0.0347 0.37538 0.39889 0.0
H758 H 0.06726 0.38068 0.34 0.0
C759 C 0.08634 0.39465 0.13313 0.0
C760 C 0.0006 0.39267 0.21801 0.0
H761 H 0.00546 0.41852 0.28791 0.0
C762 C 0.98581 0.37703 0.23427 0.0
C763 C 0.00791 0.40783 0.23766 0.0
C764 C 0.02198 0.42514 0.22194 0.0
C765 C 0.9781 0.37616 0.2694 0.0
C766 C 0.98577 0.39129 0.2889 0.0
C767 C 0.00056 0.40691 0.27285 0.0
C768 C 0.97232 0.39128 0.32561 0.0
C769 C 0.96034 0.35915 0.28552 0.0
C770 C 0.9097 0.39636 0.33725 0.0
C771 C 0.89164 0.39362 0.37077 0.0
C772 C 0.93592 0.38581 0.39332 0.0
C773 C 0.00056 0.382 0.38235 0.0
C774 C 0.01869 0.38472 0.34861 0.0
H775 H 0.95534 0.34858 0.26676 0.0
H776 H -0.00084 0.35556 0.30398 0.0
H777 H 0.91273 0.36038 0.29946 0.0
H778 H 0.87311 0.40131 0.31985 0.0
H779 H 0.84075 0.39606 0.37826 0.0
H780 H 0.95511 0.61585 0.1031 0.0
H781 H 0.98759 0.60941 0.16143 0.0
H782 H 0.00165 0.66377 0.18272 0.0
H783 H 0.96971 0.67021 0.12485 0.0
H784 H 0.10505 0.63723 0.2149 0.0
H785 H 0.83389 0.62633 0.23445 0.0
H786 H 0.8733 0.61849 0.19662 0.0
H787 H 0.86447 0.64121 0.2031 0.0
C788 C 0.96897 0.62637 0.11967 0.0
C789 C 0.96083 0.64353 0.1093 0.0
C790 C 0.98637 0.6227 0.15315 0.0
C791 C 0.9961 0.63614 0.17646 0.0
C792 C 0.99453 0.65322 0.16517 0.0
H793 H 0.9528 0.65402 0.38662 0.0
H794 H 0.93309 0.64886 0.32691 0.0
C795 C 0.97715 0.65687 0.13192 0.0
C796 C -0.00014 0.63269 0.21319 0.0
H797 H 0.90195 0.62545 0.2822 0.0
C798 C 0.06102 0.63433 0.22965 0.0
C799 C 0.94185 0.6295 0.23238 0.0
C800 C 0.87435 0.6288 0.216 0.0
C801 C 0.06575 0.633 0.26492 0.0
C802 C 0.00777 0.62944 0.28425 0.0
C803 C 0.94661 0.62775 0.26754 0.0
C804 C 0.00858 0.62925 0.3219 0.0
C805 C 0.13236 0.63638 0.28111 0.0
C806 C 0.05328 0.61888 0.33991 0.0
C807 C 0.06442 0.62184 0.37432 0.0
C808 C 0.03001 0.63493 0.39137 0.0
C809 C 0.97885 0.64354 0.37438 0.0
C810 C 0.96845 0.64081 0.33996 0.0
H811 H 0.16705 0.64315 0.26377 0.0
H812 H 0.12693 0.64428 0.30427 0.0
H813 H 0.15533 0.62392 0.28804 0.0
H814 H 0.08325 0.60943 0.32689 0.0
H815 H 0.1052 0.61529 0.38651 0.0
H816 H 0.99594 0.67148 0.90059 0.0
H817 H 0.0112 0.67808 0.84095 0.0
H818 H 0.88551 0.63506 0.8146 0.0
H819 H 0.87074 0.6284 0.87422 0.0
H820 H 0.07264 0.64777 0.80531 0.0
H821 H 0.84986 0.67398 0.74104 0.0
H822 H 0.8672 0.67816 0.78495 0.0
H823 H 0.83731 0.65737 0.7721 0.0
C824 C 0.96728 0.66427 0.88224 0.0
C825 C 0.93229 0.6494 0.89214 0.0
C826 C 0.97735 0.66781 0.84804 0.0
C827 C 0.95047 0.65689 0.82331 0.0
C828 C 0.90662 0.64371 0.8332 0.0
H829 H 0.1096 0.62053 0.6364 0.0
H830 H 0.09407 0.62708 0.69524 0.0
C831 C 0.89699 0.64013 0.86744 0.0
C832 C 0.97794 0.65714 0.78854 0.0
H833 H 0.9377 0.66438 0.70653 0.0
C834 C 0.04361 0.65166 0.78365 0.0
C835 C 0.93997 0.6621 0.76046 0.0
C836 C 0.86969 0.66834 0.76462 0.0
C837 C 0.07232 0.65086 0.75137 0.0
C838 C 0.03376 0.65539 0.72284 0.0
C839 C 0.96811 0.66111 0.72805 0.0
C840 C 0.05759 0.653 0.68733 0.0
C841 C 0.1438 0.64522 0.7487 0.0
C842 C 0.04384 0.66537 0.6623 0.0
C843 C 0.05026 0.66125 0.62795 0.0
C844 C 0.07199 0.64484 0.61819 0.0
C845 C 0.09424 0.63346 0.64319 0.0
C846 C 0.08515 0.63722 0.67722 0.0
H847 H 0.17233 0.64911 0.77142 0.0
H848 H 0.14559 0.63094 0.74729 0.0
H849 H 0.16882 0.65072 0.72622 0.0
H850 H 0.02296 0.67772 0.66922 0.0
H851 H 0.03134 0.67014 0.60933 0.0
H852 H 0.87328 0.3896 0.62584 0.0
H853 H 0.88092 0.38337 0.686 0.0
H854 H 0.02287 0.34334 0.66512 0.0
H855 H 0.017 0.35003 0.60508 0.0
H856 H 0.8776 0.35767 0.73442 0.0
H857 H 0.13445 0.38077 0.71128 0.0
H858 H 0.07017 0.38171 0.67986 0.0
H859 H 0.11344 0.36186 0.68739 0.0
C860 C 0.90268 0.37869 0.63386 0.0
C861 C 0.94465 0.37031 0.61078 0.0
C862 C 0.90798 0.37534 0.66841 0.0
C863 C 0.95451 0.36335 0.68017 0.0
C864 C 0.98803 0.35299 0.65667 0.0
H865 H 0.00486 0.34972 0.89833 0.0
H866 H 0.99583 0.34258 0.8383 0.0
C867 C 0.98344 0.35653 0.62221 0.0
C868 C 0.97555 0.36362 0.71612 0.0
H869 H 0.10988 0.37162 0.76646 0.0
C870 C 0.92847 0.36056 0.7415 0.0
C871 C 0.04137 0.36814 0.72541 0.0
C872 C 0.09266 0.37351 0.69964 0.0
C873 C 0.94556 0.36163 0.77582 0.0
C874 C 0.01244 0.36517 0.78511 0.0
C875 C 0.05918 0.36841 0.75959 0.0
C876 C 0.03351 0.36723 0.82101 0.0
C877 C 0.89081 0.35984 0.80161 0.0
C878 C 0.06558 0.38248 0.83131 0.0
C879 C 0.07459 0.38604 0.8655 0.0
C880 C 0.05026 0.37466 0.89019 0.0
C881 C 0.02514 0.35859 0.87992 0.0
C882 C 0.01794 0.35477 0.84555 0.0
H883 H 0.84106 0.362 0.79036 0.0
H884 H 0.89124 0.34659 0.81204 0.0
H885 H 0.89766 0.36914 0.82262 0.0
H886 H 0.07884 0.39229 0.8131 0.0
H887 H 0.09255 0.39873 0.87266 0.0
H888 H 0.44938 0.86868 0.11407 0.0
H889 H 0.4277 0.87275 0.1741 0.0
H890 H 0.57803 0.9124 0.17786 0.0
H891 H 0.60026 0.90819 0.11784 0.0
H892 H 0.57078 0.86924 0.21365 0.0
H893 H 0.40343 0.92374 0.24643 0.0
H894 H 0.39095 0.91127 0.20845 0.0
H895 H 0.46093 0.92551 0.21161 0.0
C896 C 0.4741 0.8792 0.12705 0.0
C897 C 0.52608 0.88823 0.11119 0.0
C898 C 0.46263 0.88127 0.16157 0.0
C899 C 0.5018 0.89274 0.18041 0.0
C900 C 0.54707 0.90354 0.16368 0.0
H901 H 0.49216 0.90071 0.40097 0.0
H902 H 0.52882 0.90646 0.34279 0.0
C903 C 0.55877 0.90138 0.12917 0.0
C904 C 0.50495 0.89093 0.21748 0.0
H905 H 0.44452 0.90704 0.29125 0.0
C906 C 0.54362 0.87757 0.23071 0.0
C907 C 0.47041 0.90196 0.2395 0.0
C908 C 0.42886 0.91648 0.22606 0.0
C909 C 0.54749 0.87471 0.26553 0.0
C910 C 0.51043 0.88528 0.28773 0.0
C911 C 0.47339 0.89901 0.2744 0.0
C912 C 0.5028 0.88106 0.32409 0.0
C913 C 0.59117 0.86033 0.278 0.0
C914 C 0.47909 0.86471 0.33324 0.0
C915 C 0.46052 0.86132 0.36631 0.0
C916 C 0.46308 0.87433 0.39094 0.0
C917 C 0.49113 0.89036 0.38264 0.0
C918 C 0.51088 0.89371 0.3493 0.0
H919 H 0.63404 0.85828 0.26083 0.0
H920 H 0.61034 0.86298 0.30369 0.0
H921 H 0.56206 0.84815 0.27853 0.0
H922 H 0.47019 0.85488 0.31439 0.0
H923 H 0.43786 0.84894 0.37191 0.0
H924 H 0.32891 0.14049 0.14097 0.0
H925 H 0.36417 0.13464 0.19727 0.0
H926 H 0.56882 0.13382 0.16436 0.0
H927 H 0.53275 0.14145 0.1067 0.0
H928 H 0.41773 0.11033 0.22682 0.0
H929 H 0.58893 0.16664 0.23983 0.0
H930 H 0.53805 0.16369 0.20299 0.0
H931 H 0.61145 0.15091 0.20876 0.0
C932 C 0.38174 0.13909 0.14537 0.0
C933 C 0.42812 0.1418 0.11939 0.0
C934 C 0.4019 0.13557 0.17786 0.0
C935 C 0.46933 0.13402 0.18565 0.0
C936 C 0.51645 0.13544 0.15931 0.0
H937 H 0.5803 0.11106 0.39275 0.0
H938 H 0.54643 0.10652 0.33428 0.0
C939 C 0.49594 0.13947 0.12625 0.0
C940 C 0.48692 0.13153 0.2218 0.0
H941 H 0.5633 0.1511 0.28863 0.0
C942 C 0.45026 0.11917 0.24018 0.0
C943 C 0.52891 0.1431 0.23955 0.0
C944 C 0.56879 0.15692 0.22193 0.0
C945 C 0.45106 0.11879 0.27548 0.0
C946 C 0.49191 0.1305 0.29301 0.0
C947 C 0.53142 0.14225 0.2749 0.0
C948 C 0.49495 0.13081 0.33026 0.0
C949 C 0.40535 0.1066 0.29398 0.0
C950 C 0.47278 0.14533 0.348 0.0
C951 C 0.49063 0.14769 0.38169 0.0
C952 C 0.53207 0.13575 0.39775 0.0
C953 C 0.54691 0.12023 0.38125 0.0
C954 C 0.52867 0.11779 0.3476 0.0
H955 H 0.37142 0.09955 0.27668 0.0
H956 H 0.43518 0.09706 0.3081 0.0
H957 H 0.37505 0.11386 0.31255 0.0
H958 H 0.44648 0.1555 0.33504 0.0
H959 H 0.47993 0.15995 0.39358 0.0
H960 H 0.47425 0.11362 0.87046 0.0
H961 H 0.47992 0.12145 0.81232 0.0
H962 H 0.44225 0.17462 0.83859 0.0
H963 H 0.44609 0.1668 0.89881 0.0
H964 H 0.416 0.13184 0.76697 0.0
H965 H 0.59778 0.1854 0.78646 0.0
H966 H 0.57039 0.1722 0.82101 0.0
H967 H 0.51677 0.18857 0.804 0.0
C968 C 0.46666 0.12705 0.86407 0.0
C969 C 0.46174 0.13965 0.88937 0.0
C970 C 0.46954 0.13156 0.83038 0.0
C971 C 0.46425 0.14883 0.82035 0.0
C972 C 0.45036 0.16132 0.84539 0.0
H973 H 0.51198 0.16843 0.60438 0.0
H974 H 0.49659 0.17533 0.664 0.0
C975 C 0.45054 0.15682 0.87987 0.0
C976 C 0.47761 0.15298 0.78399 0.0
H977 H 0.58094 0.17586 0.73146 0.0
C978 C 0.45212 0.14154 0.75955 0.0
C979 C 0.52379 0.16584 0.77341 0.0
C980 C 0.55417 0.17864 0.79755 0.0
C981 C 0.47554 0.14152 0.72629 0.0
C982 C 0.52363 0.15383 0.71632 0.0
C983 C 0.545 0.16626 0.73953 0.0
C984 C 0.55233 0.15347 0.68186 0.0
C985 C 0.45061 0.1278 0.70234 0.0
C986 C 0.59408 0.13989 0.67226 0.0
C987 C 0.60388 0.13613 0.63816 0.0
C988 C 0.57108 0.14572 0.6133 0.0
C989 C 0.53873 0.16097 0.62293 0.0
C990 C 0.5287 0.16474 0.6571 0.0
H991 H 0.40492 0.12134 0.71185 0.0
H992 H 0.4402 0.13336 0.67718 0.0
H993 H 0.48953 0.11783 0.69919 0.0
H994 H 0.61322 0.13111 0.69102 0.0
H995 H 0.62819 0.12416 0.63154 0.0
H996 H 0.50529 0.8534 0.60147 0.0
H997 H 0.52556 0.84458 0.6596 0.0
H998 H 0.37107 0.87868 0.69363 0.0
H999 H 0.35148 0.88763 0.63563 0.0
H1000 H 0.56369 0.87596 0.69949 0.0
H1001 H 0.3698 0.83564 0.76111 0.0
H1002 H 0.38846 0.83418 0.71664 0.0
H1003 H 0.34203 0.85211 0.7325 0.0
C1004 C 0.47217 0.85799 0.62102 0.0
C1005 C 0.4269 0.87121 0.61404 0.0
C1006 C 0.48468 0.85319 0.65439 0.0
C1007 C 0.45047 0.86114 0.681 0.0
C1008 C 0.39783 0.87227 0.67353 0.0
H1009 H 0.57976 0.90399 0.86604 0.0
H1010 H 0.5641 0.89628 0.80798 0.0
C1011 C 0.38585 0.87718 0.64021 0.0
C1012 C 0.47899 0.86105 0.71547 0.0
H1013 H 0.446 0.85012 0.79691 0.0
C1014 C 0.53873 0.87002 0.72079 0.0
C1015 C 0.44643 0.85334 0.74309 0.0
C1016 C 0.38325 0.84315 0.73829 0.0
C1017 C 0.56606 0.8719 0.7531 0.0
C1018 C 0.53177 0.86495 0.78134 0.0
C1019 C 0.47295 0.85543 0.77565 0.0
C1020 C 0.55167 0.86889 0.8169 0.0
C1021 C 0.63137 0.88144 0.75613 0.0
C1022 C 0.54926 0.85624 0.84243 0.0
C1023 C 0.55472 0.8609 0.87664 0.0
C1024 C 0.56436 0.87824 0.88563 0.0
C1025 C 0.57393 0.89044 0.8599 0.0
C1026 C 0.56518 0.88599 0.82628 0.0
H1027 H 0.66297 0.87919 0.73361 0.0
H1028 H 0.62178 0.89551 0.75729 0.0
H1029 H 0.65958 0.87752 0.77879 0.0
H1030 H 0.53884 0.84292 0.83606 0.0
H1031 H 0.54546 0.8513 0.89585 0.0
loop_
_geom_bond_atom_site_label_1
_geom_bond_atom_site_label_2
_geom_bond_distance
_geom_bond_site_symmetry_2
_ccdc_geom_bond_type
O0 Mn1 2.163 1_556 S
O0 C14 1.244 1_556 S
Mn1 O0 2.163 1_554 S
Mn1 O4 2.160 . S
Mn1 O5 2.221 1_554 S
Mn1 O7 2.163 1_455 S
Mn1 O9 2.160 1_554 S
Mn1 O19 2.221 . S
O2 Mn3 2.087 . S
O2 C14 1.256 . S
Mn3 O2 2.087 . S
Mn3 O10 2.089 . S
Mn3 O19 2.290 . S
Mn3 O20 2.251 . S
O4 Mn1 2.160 . S
O4 C15 1.239 1_554 S
O5 Mn1 2.221 1_556 S
O5 Mn6 2.290 1_455 S
O5 C16 1.278 . S
Mn6 O5 2.290 1_655 S
Mn6 O8 2.089 . S
Mn6 O11 2.251 . S
Mn6 O12 2.087 . S
O7 Mn1 2.163 1_655 S
O7 C17 1.244 1_554 S
O8 Mn6 2.089 . S
O8 C15 1.256 1_655 S
O9 Mn1 2.160 1_556 S
O9 C18 1.239 1_556 S
O10 Mn3 2.089 . S
O10 C18 1.256 . S
O11 Mn6 2.251 . S
O11 C16 1.241 1_655 S
O12 Mn6 2.087 . S
O12 C17 1.256 . S
C13 O19 1.278 . S
C13 O20 1.241 . S
C14 O0 1.244 1_554 S
C14 O2 1.256 . S
C15 O4 1.239 1_556 S
C15 O8 1.256 1_455 S
C16 O5 1.278 . S
C16 O11 1.241 1_455 S
C17 O7 1.244 1_556 S
C17 O12 1.256 . S
C18 O9 1.239 1_554 S
C18 O10 1.256 . S
O19 Mn1 2.221 . S
O19 Mn3 2.290 . S
O19 C13 1.278 . S
O20 Mn3 2.251 . S
O20 C13 1.241 . S
O21 Mn22 2.163 1_556 S
O21 C35 1.244 1_556 S
Mn22 O21 2.163 1_554 S
Mn22 O25 2.160 . S
Mn22 O26 2.221 1_554 S
Mn22 O28 2.163 1_655 S
Mn22 O30 2.160 1_554 S
Mn22 O40 2.221 . S
O23 Mn24 2.087 . S
O23 C35 1.256 . S
Mn24 O23 2.087 . S
Mn24 O31 2.089 . S
Mn24 O40 2.290 . S
Mn24 O41 2.251 . S
O25 Mn22 2.160 . S
O25 C36 1.239 1_554 S
O26 Mn22 2.221 1_556 S
O26 Mn27 2.290 1_655 S
O26 C37 1.278 . S
Mn27 O26 2.290 1_455 S
Mn27 O29 2.089 . S
Mn27 O32 2.251 . S
Mn27 O33 2.087 . S
O28 Mn22 2.163 1_455 S
O28 C38 1.244 1_554 S
O29 Mn27 2.089 . S
O29 C36 1.256 1_455 S
O30 Mn22 2.160 1_556 S
O30 C39 1.239 1_556 S
O31 Mn24 2.089 . S
O31 C39 1.256 . S
O32 Mn27 2.251 . S
O32 C37 1.241 1_455 S
O33 Mn27 2.087 . S
O33 C38 1.256 . S
C34 O40 1.278 . S
C34 O41 1.241 . S
C35 O21 1.244 1_554 S
C35 O23 1.256 . S
C36 O25 1.239 1_556 S
C36 O29 1.256 1_655 S
C37 O26 1.278 . S
C37 O32 1.241 1_655 S
C38 O28 1.244 1_556 S
C38 O33 1.256 . S
C39 O30 1.239 1_554 S
C39 O31 1.256 . S
O40 Mn22 2.221 . S
O40 Mn24 2.290 . S
O40 C34 1.278 . S
O41 Mn24 2.251 . S
O41 C34 1.241 . S
O42 Mn43 2.163 1_655 S
O42 C56 1.244 . S
Mn43 O42 2.163 1_455 S
Mn43 O46 2.160 . S
Mn43 O47 2.221 . S
Mn43 O49 2.163 . S
Mn43 O51 2.160 . S
Mn43 O61 2.221 . S
O44 Mn45 2.087 . S
O44 C56 1.256 . S
Mn45 O44 2.087 . S
Mn45 O52 2.089 . S
Mn45 O61 2.290 1_655 S
Mn45 O62 2.251 . S
O46 Mn43 2.160 . S
O46 C57 1.239 . S
O47 Mn43 2.221 . S
O47 Mn48 2.290 . S
O47 C58 1.278 . S
Mn48 O47 2.290 . S
Mn48 O50 2.089 . S
Mn48 O53 2.251 . S
Mn48 O54 2.087 . S
O49 Mn43 2.163 . S
O49 C59 1.244 . S
O50 Mn48 2.089 . S
O50 C57 1.256 . S
O51 Mn43 2.160 . S
O51 C60 1.239 . S
O52 Mn45 2.089 . S
O52 C60 1.256 1_655 S
O53 Mn48 2.251 . S
O53 C58 1.241 . S
O54 Mn48 2.087 . S
O54 C59 1.256 . S
C55 O61 1.278 . S
C55 O62 1.241 1_455 S
C56 O42 1.244 . S
C56 O44 1.256 . S
C57 O46 1.239 . S
C57 O50 1.256 . S
C58 O47 1.278 . S
C58 O53 1.241 . S
C59 O49 1.244 . S
C59 O54 1.256 . S
C60 O51 1.239 . S
C60 O52 1.256 1_455 S
O61 Mn43 2.221 . S
O61 Mn45 2.290 1_455 S
O61 C55 1.278 . S
O62 Mn45 2.251 . S
O62 C55 1.241 1_655 S
O63 Mn64 2.163 . S
O63 C77 1.244 . S
Mn64 O63 2.163 . S
Mn64 O67 2.160 . S
Mn64 O68 2.221 . S
Mn64 O70 2.163 1_655 S
Mn64 O72 2.160 . S
Mn64 O82 2.221 . S
O65 Mn66 2.087 . S
O65 C77 1.256 . S
Mn66 O65 2.087 . S
Mn66 O73 2.089 . S
Mn66 O82 2.290 . S
Mn66 O83 2.251 . S
O67 Mn64 2.160 . S
O67 C78 1.239 . S
O68 Mn64 2.221 . S
O68 Mn69 2.290 1_655 S
O68 C79 1.278 . S
Mn69 O68 2.290 1_455 S
Mn69 O71 2.089 . S
Mn69 O74 2.251 . S
Mn69 O75 2.087 . S
O70 Mn64 2.163 1_455 S
O70 C80 1.244 . S
O71 Mn69 2.089 . S
O71 C78 1.256 1_455 S
O72 Mn64 2.160 . S
O72 C81 1.239 . S
O73 Mn66 2.089 . S
O73 C81 1.256 . S
O74 Mn69 2.251 . S
O74 C79 1.241 1_455 S
O75 Mn69 2.087 . S
O75 C80 1.256 . S
C76 O82 1.278 . S
C76 O83 1.241 . S
C77 O63 1.244 . S
C77 O65 1.256 . S
C78 O67 1.239 . S
C78 O71 1.256 1_655 S
C79 O68 1.278 . S
C79 O74 1.241 1_655 S
C80 O70 1.244 . S
C80 O75 1.256 . S
C81 O72 1.239 . S
C81 O73 1.256 . S
O82 Mn64 2.221 . S
O82 Mn66 2.290 . S
O82 C76 1.278 . S
O83 Mn66 2.251 . S
O83 C76 1.241 . S
O84 Mn85 2.163 1_556 S
O84 C98 1.244 1_556 S
Mn85 O84 2.163 1_554 S
Mn85 O88 2.160 . S
Mn85 O89 2.221 1_554 S
Mn85 O91 2.163 . S
Mn85 O93 2.160 1_554 S
Mn85 O103 2.221 . S
O86 Mn87 2.087 . S
O86 C98 1.256 . S
Mn87 O86 2.087 . S
Mn87 O94 2.089 . S
Mn87 O103 2.290 . S
Mn87 O104 2.251 . S
O88 Mn85 2.160 . S
O88 C99 1.239 1_554 S
O89 Mn85 2.221 1_556 S
O89 Mn90 2.290 . S
O89 C100 1.278 . S
Mn90 O89 2.290 . S
Mn90 O92 2.089 . S
Mn90 O95 2.251 . S
Mn90 O96 2.087 . S
O91 Mn85 2.163 . S
O91 C101 1.244 1_554 S
O92 Mn90 2.089 . S
O92 C99 1.256 . S
O93 Mn85 2.160 1_556 S
O93 C102 1.239 1_556 S
O94 Mn87 2.089 . S
O94 C102 1.256 . S
O95 Mn90 2.251 . S
O95 C100 1.241 . S
O96 Mn90 2.087 . S
O96 C101 1.256 . S
C97 O103 1.278 . S
C97 O104 1.241 . S
C98 O84 1.244 1_554 S
C98 O86 1.256 . S
C99 O88 1.239 1_556 S
C99 O92 1.256 . S
C100 O89 1.278 . S
C100 O95 1.241 . S
C101 O91 1.244 1_556 S
C101 O96 1.256 . S
C102 O93 1.239 1_554 S
C102 O94 1.256 . S
O103 Mn85 2.221 . S
O103 Mn87 2.290 . S
O103 C97 1.278 . S
O104 Mn87 2.251 . S
O104 C97 1.241 . S
O105 Mn106 2.163 1_556 S
O105 C119 1.244 1_556 S
Mn106 O105 2.163 1_554 S
Mn106 O109 2.160 . S
Mn106 O110 2.221 1_554 S
Mn106 O112 2.163 . S
Mn106 O114 2.160 1_554 S
Mn106 O124 2.221 . S
O107 Mn108 2.087 . S
O107 C119 1.256 . S
Mn108 O107 2.087 . S
Mn108 O115 2.089 . S
Mn108 O124 2.290 . S
Mn108 O125 2.251 . S
O109 Mn106 2.160 . S
O109 C120 1.239 1_554 S
O110 Mn106 2.221 1_556 S
O110 Mn111 2.290 . S
O110 C121 1.278 . S
Mn111 O110 2.290 . S
Mn111 O113 2.089 . S
Mn111 O116 2.251 . S
Mn111 O117 2.087 . S
O112 Mn106 2.163 . S
O112 C122 1.244 1_554 S
O113 Mn111 2.089 . S
O113 C120 1.256 . S
O114 Mn106 2.160 1_556 S
O114 C123 1.239 1_556 S
O115 Mn108 2.089 . S
O115 C123 1.256 . S
O116 Mn111 2.251 . S
O116 C121 1.241 . S
O117 Mn111 2.087 . S
O117 C122 1.256 . S
C118 O124 1.278 . S
C118 O125 1.241 . S
C119 O105 1.244 1_554 S
C119 O107 1.256 . S
C120 O109 1.239 1_556 S
C120 O113 1.256 . S
C121 O110 1.278 . S
C121 O116 1.241 . S
C122 O112 1.244 1_556 S
C122 O117 1.256 . S
C123 O114 1.239 1_554 S
C123 O115 1.256 . S
O124 Mn106 2.221 . S
O124 Mn108 2.290 . S
O124 C118 1.278 . S
O125 Mn108 2.251 . S
O125 C118 1.241 . S
O126 Mn127 2.163 . S
O126 C140 1.244 . S
Mn127 O126 2.163 . S
Mn127 O130 2.160 . S
Mn127 O131 2.221 . S
Mn127 O133 2.163 . S
Mn127 O135 2.160 . S
Mn127 O145 2.221 . S
O128 Mn129 2.087 . S
O128 C140 1.256 . S
Mn129 O128 2.087 . S
Mn129 O136 2.089 . S
Mn129 O145 2.290 . S
Mn129 O146 2.251 . S
O130 Mn127 2.160 . S
O130 C141 1.239 . S
O131 Mn127 2.221 . S
O131 Mn132 2.290 . S
O131 C142 1.278 . S
Mn132 O131 2.290 . S
Mn132 O134 2.089 . S
Mn132 O137 2.251 . S
Mn132 O138 2.087 . S
O133 Mn127 2.163 . S
O133 C143 1.244 . S
O134 Mn132 2.089 . S
O134 C141 1.256 . S
O135 Mn127 2.160 . S
O135 C144 1.239 . S
O136 Mn129 2.089 . S
O136 C144 1.256 . S
O137 Mn132 2.251 . S
O137 C142 1.241 . S
O138 Mn132 2.087 . S
O138 C143 1.256 . S
C139 O145 1.278 . S
C139 O146 1.241 . S
C140 O126 1.244 . S
C140 O128 1.256 . S
C141 O130 1.239 . S
C141 O134 1.256 . S
C142 O131 1.278 . S
C142 O137 1.241 . S
C143 O133 1.244 . S
C143 O138 1.256 . S
C144 O135 1.239 . S
C144 O136 1.256 . S
O145 Mn127 2.221 . S
O145 Mn129 2.290 . S
O145 C139 1.278 . S
O146 Mn129 2.251 . S
O146 C139 1.241 . S
O147 Mn148 2.163 . S
O147 C161 1.244 . S
Mn148 O147 2.163 . S
Mn148 O151 2.160 . S
Mn148 O152 2.221 . S
Mn148 O154 2.163 . S
Mn148 O156 2.160 . S
Mn148 O166 2.221 . S
O149 Mn150 2.087 . S
O149 C161 1.256 . S
Mn150 O149 2.087 . S
Mn150 O157 2.089 . S
Mn150 O166 2.290 . S
Mn150 O167 2.251 . S
O151 Mn148 2.160 . S
O151 C162 1.239 . S
O152 Mn148 2.221 . S
O152 Mn153 2.290 . S
O152 C163 1.278 . S
Mn153 O152 2.290 . S
Mn153 O155 2.089 . S
Mn153 O158 2.251 . S
Mn153 O159 2.087 . S
O154 Mn148 2.163 . S
O154 C164 1.244 . S
O155 Mn153 2.089 . S
O155 C162 1.256 . S
O156 Mn148 2.160 . S
O156 C165 1.239 . S
O157 Mn150 2.089 . S
O157 C165 1.256 . S
O158 Mn153 2.251 . S
O158 C163 1.241 . S
O159 Mn153 2.087 . S
O159 C164 1.256 . S
C160 O166 1.278 . S
C160 O167 1.241 . S
C161 O147 1.244 . S
C161 O149 1.256 . S
C162 O151 1.239 . S
C162 O155 1.256 . S
C163 O152 1.278 . S
C163 O158 1.241 . S
C164 O154 1.244 . S
C164 O159 1.256 . S
C165 O156 1.239 . S
C165 O157 1.256 . S
O166 Mn148 2.221 . S
O166 Mn150 2.290 . S
O166 C160 1.278 . S
O167 Mn150 2.251 . S
O167 C160 1.241 . S
H168 C176 0.929 . S
H169 C178 0.930 . S
H170 C180 0.930 . S
H171 C183 0.929 . S
H172 C186 0.930 . S
H173 C188 0.960 . S
H174 C188 0.960 1_554 S
H175 C188 0.960 . S
C176 H168 0.929 . S
C176 C177 1.377 1_554 S
C176 C178 1.384 . S
C177 C176 1.377 1_556 S
C177 C183 1.390 . S
C178 H169 0.930 . S
C178 C176 1.384 . S
C178 C179 1.364 1_554 S
C179 C178 1.364 1_556 S
C179 C180 1.408 . S
C179 C184 1.489 1_556 S
C180 H170 0.930 . S
C180 C179 1.408 . S
C180 C183 1.386 . S
H181 C197 0.930 . S
H182 C198 0.931 . S
C183 H171 0.929 . S
C183 C177 1.390 . S
C183 C180 1.386 . S
C184 C179 1.489 1_554 S
C184 C186 1.395 . S
C184 C187 1.403 1_554 S
H185 C191 0.930 . S
C186 H172 0.930 . S
C186 C184 1.395 . S
C186 C189 1.403 . S
C187 C184 1.403 1_556 S
C187 C188 1.524 . S
C187 C191 1.400 . S
C188 H173 0.960 . S
C188 H174 0.960 1_556 S
C188 H175 0.960 . S
C188 C187 1.524 . S
C189 C186 1.403 . S
C189 C190 1.392 . S
C189 C193 1.495 . S
C190 C189 1.392 . S
C190 C191 1.385 1_554 S
C190 C192 1.478 . S
C191 H185 0.930 . S
C191 C187 1.400 . S
C191 C190 1.385 1_556 S
C192 C190 1.478 . S
C192 C194 1.381 . S
C192 C198 1.383 1_554 S
C193 C189 1.495 . S
C193 H199 0.959 . S
C193 H200 0.961 . S
C193 H201 0.960 . S
C194 C192 1.381 . S
C194 C195 1.394 . S
C194 H202 0.930 . S
C195 C194 1.394 . S
C195 C196 1.383 . S
C195 H203 0.929 . S
C196 C195 1.383 . S
C196 C197 1.377 1_554 S
C197 H181 0.930 . S
C197 C196 1.377 1_556 S
C197 C198 1.379 . S
C198 H182 0.931 . S
C198 C192 1.383 1_556 S
C198 C197 1.379 . S
H199 C193 0.959 . S
H200 C193 0.961 . S
H201 C193 0.960 . S
H202 C194 0.930 . S
H203 C195 0.929 . S
H204 C212 0.931 . S
H205 C214 0.926 1_556 S
H206 C216 0.930 . S
H207 C219 0.929 . S
H208 C222 0.930 . S
H209 C224 0.960 . S
H210 C224 0.960 . S
H211 C224 0.960 . S
C212 H204 0.931 . S
C212 C213 1.377 . S
C212 C214 1.386 . S
C213 C212 1.377 . S
C213 C219 1.390 . S
C214 H205 0.926 1_554 S
C214 C212 1.386 . S
C214 C215 1.375 . S
C215 C214 1.375 . S
C215 C216 1.400 . S
C215 C220 1.490 . S
C216 H206 0.930 . S
C216 C215 1.400 . S
C216 C219 1.386 . S
H217 C233 0.930 . S
H218 C234 0.931 . S
C219 H207 0.929 . S
C219 C213 1.390 . S
C219 C216 1.386 . S
C220 C215 1.490 . S
C220 C222 1.395 1_554 S
C220 C223 1.403 . S
H221 C227 0.930 . S
C222 H208 0.930 . S
C222 C220 1.395 1_556 S
C222 C225 1.403 . S
C223 C220 1.403 . S
C223 C224 1.524 . S
C223 C227 1.400 . S
C224 H209 0.960 . S
C224 H210 0.960 . S
C224 H211 0.960 . S
C224 C223 1.524 . S
C225 C222 1.403 . S
C225 C226 1.392 . S
C225 C229 1.495 . S
C226 C225 1.392 . S
C226 C227 1.385 1_556 S
C226 C228 1.478 . S
C227 H221 0.930 . S
C227 C223 1.400 . S
C227 C226 1.385 1_554 S
C228 C226 1.478 . S
C228 C230 1.381 . S
C228 C234 1.383 . S
C229 C225 1.495 . S
C229 H235 0.959 . S
C229 H236 0.961 . S
C229 H237 0.960 . S
C230 C228 1.381 . S
C230 C231 1.394 . S
C230 H238 0.930 . S
C231 C230 1.394 . S
C231 C232 1.383 . S
C231 H239 0.929 . S
C232 C231 1.383 . S
C232 C233 1.377 . S
C233 H217 0.930 . S
C233 C232 1.377 . S
C233 C234 1.379 . S
C234 H218 0.931 . S
C234 C228 1.383 . S
C234 C233 1.379 . S
H235 C229 0.959 . S
H236 C229 0.961 . S
H237 C229 0.960 . S
H238 C230 0.930 . S
H239 C231 0.929 . S
H240 C248 0.929 . S
H241 C250 0.930 . S
H242 C252 0.930 . S
H243 C255 0.929 . S
H244 C258 0.930 . S
H245 C260 0.960 . S
H246 C260 0.960 . S
H247 C260 0.960 . S
C248 H240 0.929 . S
C248 C249 1.377 . S
C248 C250 1.384 . S
C249 C248 1.377 . S
C249 C255 1.390 . S
C250 H241 0.930 . S
C250 C248 1.384 . S
C250 C251 1.372 . S
C251 C250 1.372 . S
C251 C252 1.400 . S
C251 C256 1.490 . S
C252 H242 0.930 . S
C252 C251 1.400 . S
C252 C255 1.386 . S
H253 C269 0.930 . S
H254 C270 0.931 . S
C255 H243 0.929 . S
C255 C249 1.390 . S
C255 C252 1.386 . S
C256 C251 1.490 . S
C256 C258 1.395 . S
C256 C259 1.403 . S
H257 C263 0.930 . S
C258 H244 0.930 . S
C258 C256 1.395 . S
C258 C261 1.403 . S
C259 C256 1.403 . S
C259 C260 1.524 . S
C259 C263 1.400 . S
C260 H245 0.960 . S
C260 H246 0.960 . S
C260 H247 0.960 . S
C260 C259 1.524 . S
C261 C258 1.403 . S
C261 C262 1.392 . S
C261 C265 1.495 . S
C262 C261 1.392 . S
C262 C263 1.385 . S
C262 C264 1.478 . S
C263 H257 0.930 . S
C263 C259 1.400 . S
C263 C262 1.385 . S
C264 C262 1.478 . S
C264 C266 1.381 . S
C264 C270 1.383 . S
C265 C261 1.495 . S
C265 H271 0.959 . S
C265 H272 0.961 . S
C265 H273 0.960 . S
C266 C264 1.381 . S
C266 C267 1.394 . S
C266 H274 0.930 . S
C267 C266 1.394 . S
C267 C268 1.383 . S
C267 H275 0.929 . S
C268 C267 1.383 . S
C268 C269 1.377 . S
C269 H253 0.930 . S
C269 C268 1.377 . S
C269 C270 1.379 . S
C270 H254 0.931 . S
C270 C264 1.383 . S
C270 C269 1.379 . S
H271 C265 0.959 . S
H272 C265 0.961 . S
H273 C265 0.960 . S
H274 C266 0.930 . S
H275 C267 0.929 . S
H276 C284 0.929 . S
H277 C286 0.930 . S
H278 C288 0.930 . S
H279 C291 0.929 . S
H280 C294 0.930 . S
H281 C296 0.960 . S
H282 C296 0.960 . S
H283 C296 0.960 . S
C284 H276 0.929 . S
C284 C285 1.377 . S
C284 C286 1.384 . S
C285 C284 1.377 . S
C285 C291 1.390 . S
C286 H277 0.930 . S
C286 C284 1.384 . S
C286 C287 1.372 . S
C287 C286 1.372 . S
C287 C288 1.400 . S
C287 C292 1.490 . S
C288 H278 0.930 . S
C288 C287 1.400 . S
C288 C291 1.386 . S
H289 C305 0.930 . S
H290 C306 0.931 . S
C291 H279 0.929 . S
C291 C285 1.390 . S
C291 C288 1.386 . S
C292 C287 1.490 . S
C292 C294 1.395 . S
C292 C295 1.403 . S
H293 C299 0.930 . S
C294 H280 0.930 . S
C294 C292 1.395 . S
C294 C297 1.403 . S
C295 C292 1.403 . S
C295 C296 1.524 . S
C295 C299 1.400 . S
C296 H281 0.960 . S
C296 H282 0.960 . S
C296 H283 0.960 . S
C296 C295 1.524 . S
C297 C294 1.403 . S
C297 C298 1.392 . S
C297 C301 1.495 . S
C298 C297 1.392 . S
C298 C299 1.385 . S
C298 C300 1.478 . S
C299 H293 0.930 . S
C299 C295 1.400 . S
C299 C298 1.385 . S
C300 C298 1.478 . S
C300 C302 1.381 . S
C300 C306 1.383 . S
C301 C297 1.495 . S
C301 H307 0.959 . S
C301 H308 0.961 . S
C301 H309 0.960 . S
C302 C300 1.381 . S
C302 C303 1.394 . S
C302 H310 0.930 . S
C303 C302 1.394 . S
C303 C304 1.383 . S
C303 H311 0.929 . S
C304 C303 1.383 . S
C304 C305 1.377 . S
C305 H289 0.930 . S
C305 C304 1.377 . S
C305 C306 1.379 . S
C306 H290 0.931 . S
C306 C300 1.383 . S
C306 C305 1.379 . S
H307 C301 0.959 . S
H308 C301 0.961 . S
H309 C301 0.960 . S
H310 C302 0.930 . S
H311 C303 0.929 . S
H312 C320 0.929 . S
H313 C322 0.930 . S
H314 C324 0.930 . S
H315 C327 0.929 . S
H316 C330 0.930 . S
H317 C332 0.961 . S
H318 C332 0.960 1_655 S
H319 C332 0.960 1_656 S
C320 H312 0.929 . S
C320 C321 1.377 1_554 S
C320 C322 1.384 . S
C321 C320 1.377 1_556 S
C321 C327 1.390 . S
C322 H313 0.930 . S
C322 C320 1.384 . S
C322 C323 1.363 1_554 S
C323 C322 1.363 1_556 S
C323 C324 1.410 . S
C323 C328 1.489 1_656 S
C324 H314 0.930 . S
C324 C323 1.410 . S
C324 C327 1.386 . S
H325 C341 0.930 . S
H326 C342 0.931 . S
C327 H315 0.929 . S
C327 C321 1.390 . S
C327 C324 1.386 . S
C328 C323 1.489 1_454 S
C328 C330 1.395 . S
C328 C331 1.403 . S
H329 C335 0.930 . S
C330 H316 0.930 . S
C330 C328 1.395 . S
C330 C333 1.403 . S
C331 C328 1.403 . S
C331 C332 1.524 . S
C331 C335 1.400 . S
C332 H317 0.961 . S
C332 H318 0.960 1_455 S
C332 H319 0.960 1_454 S
C332 C331 1.524 . S
C333 C330 1.403 . S
C333 C334 1.392 . S
C333 C337 1.495 . S
C334 C333 1.392 . S
C334 C335 1.385 . S
C334 C336 1.478 . S
C335 H329 0.930 . S
C335 C331 1.400 . S
C335 C334 1.385 . S
C336 C334 1.478 . S
C336 C338 1.381 . S
C336 C342 1.383 1_554 S
C337 C333 1.495 . S
C337 H343 0.959 . S
C337 H344 0.961 1_554 S
C337 H345 0.960 . S
C338 C336 1.381 . S
C338 C339 1.394 . S
C338 H346 0.930 . S
C339 C338 1.394 . S
C339 C340 1.383 . S
C339 H347 0.929 . S
C340 C339 1.383 . S
C340 C341 1.377 1_554 S
C341 H325 0.930 . S
C341 C340 1.377 1_556 S
C341 C342 1.379 . S
C342 H326 0.931 . S
C342 C336 1.383 1_556 S
C342 C341 1.379 . S
H343 C337 0.959 . S
H344 C337 0.961 1_556 S
H345 C337 0.960 . S
H346 C338 0.930 . S
H347 C339 0.929 . S
H348 C356 0.929 . S
H349 C358 0.930 . S
H350 C360 0.930 . S
H351 C363 0.929 . S
H352 C366 0.930 . S
H353 C368 0.960 . S
H354 C368 0.960 1_455 S
H355 C368 0.960 1_455 S
C356 H348 0.929 . S
C356 C357 1.377 1_554 S
C356 C358 1.384 . S
C357 C356 1.377 1_556 S
C357 C363 1.390 . S
C358 H349 0.930 . S
C358 C356 1.384 . S
C358 C359 1.372 1_554 S
C359 C358 1.372 1_556 S
C359 C360 1.400 . S
C359 C364 1.490 1_456 S
C360 H350 0.930 . S
C360 C359 1.400 . S
C360 C363 1.386 . S
H361 C377 0.930 . S
H362 C378 0.931 . S
C363 H351 0.929 . S
C363 C357 1.390 . S
C363 C360 1.386 . S
C364 C359 1.490 1_654 S
C364 C366 1.395 . S
C364 C367 1.403 1_554 S
H365 C371 0.930 . S
C366 H352 0.930 . S
C366 C364 1.395 . S
C366 C369 1.403 . S
C367 C364 1.403 1_556 S
C367 C368 1.524 . S
C367 C371 1.400 . S
C368 H353 0.960 . S
C368 H354 0.960 1_655 S
C368 H355 0.960 1_655 S
C368 C367 1.524 . S
C369 C366 1.403 . S
C369 C370 1.392 . S
C369 C373 1.495 . S
C370 C369 1.392 . S
C370 C371 1.385 1_554 S
C370 C372 1.478 . S
C371 H365 0.930 . S
C371 C367 1.400 . S
C371 C370 1.385 1_556 S
C372 C370 1.478 . S
C372 C374 1.381 . S
C372 C378 1.383 1_554 S
C373 C369 1.495 . S
C373 H379 0.959 . S
C373 H380 0.961 . S
C373 H381 0.960 . S
C374 C372 1.381 . S
C374 C375 1.394 . S
C374 H382 0.930 . S
C375 C374 1.394 . S
C375 C376 1.383 . S
C375 H383 0.929 . S
C376 C375 1.383 . S
C376 C377 1.377 1_554 S
C377 H361 0.930 . S
C377 C376 1.377 1_556 S
C377 C378 1.379 . S
C378 H362 0.931 . S
C378 C372 1.383 1_556 S
C378 C377 1.379 . S
H379 C373 0.959 . S
H380 C373 0.961 . S
H381 C373 0.960 . S
H382 C374 0.930 . S
H383 C375 0.929 . S
H384 C392 0.929 . S
H385 C394 0.930 . S
H386 C396 0.930 . S
H387 C399 0.929 . S
H388 C402 0.930 . S
H389 C404 0.960 . S
H390 C404 0.960 . S
H391 C404 0.960 . S
C392 H384 0.929 . S
C392 C393 1.377 . S
C392 C394 1.384 . S
C393 C392 1.377 . S
C393 C399 1.390 . S
C394 H385 0.930 . S
C394 C392 1.384 . S
C394 C395 1.372 . S
C395 C394 1.372 . S
C395 C396 1.400 . S
C395 C400 1.490 . S
C396 H386 0.930 . S
C396 C395 1.400 . S
C396 C399 1.386 . S
H397 C413 0.930 . S
H398 C414 0.931 . S
C399 H387 0.929 . S
C399 C393 1.390 . S
C399 C396 1.386 . S
C400 C395 1.490 . S
C400 C402 1.395 . S
C400 C403 1.403 . S
H401 C407 0.930 . S
C402 H388 0.930 . S
C402 C400 1.395 . S
C402 C405 1.403 . S
C403 C400 1.403 . S
C403 C404 1.524 . S
C403 C407 1.400 . S
C404 H389 0.960 . S
C404 H390 0.960 . S
C404 H391 0.960 . S
C404 C403 1.524 . S
C405 C402 1.403 . S
C405 C406 1.392 . S
C405 C409 1.495 . S
C406 C405 1.392 . S
C406 C407 1.385 . S
C406 C408 1.478 1_455 S
C407 H401 0.930 . S
C407 C403 1.400 . S
C407 C406 1.385 . S
C408 C406 1.478 1_655 S
C408 C410 1.381 . S
C408 C414 1.383 . S
C409 C405 1.495 . S
C409 H415 0.959 . S
C409 H416 0.961 1_455 S
C409 H417 0.960 1_455 S
C410 C408 1.381 . S
C410 C411 1.394 . S
C410 H418 0.930 . S
C411 C410 1.394 . S
C411 C412 1.383 . S
C411 H419 0.929 . S
C412 C411 1.383 . S
C412 C413 1.377 . S
C413 H397 0.930 . S
C413 C412 1.377 . S
C413 C414 1.379 . S
C414 H398 0.931 . S
C414 C408 1.383 . S
C414 C413 1.379 . S
H415 C409 0.959 . S
H416 C409 0.961 1_655 S
H417 C409 0.960 1_655 S
H418 C410 0.930 . S
H419 C411 0.929 . S
H420 C428 0.929 . S
H421 C430 0.930 . S
H422 C432 0.930 . S
H423 C435 0.929 . S
H424 C438 0.930 . S
H425 C440 0.960 . S
H426 C440 0.960 . S
H427 C440 0.960 . S
C428 H420 0.929 . S
C428 C429 1.377 . S
C428 C430 1.384 . S
C429 C428 1.377 . S
C429 C435 1.390 . S
C430 H421 0.930 . S
C430 C428 1.384 . S
C430 C431 1.372 . S
C431 C430 1.372 . S
C431 C432 1.400 . S
C431 C436 1.490 . S
C432 H422 0.930 . S
C432 C431 1.400 . S
C432 C435 1.386 . S
H433 C449 0.930 . S
H434 C450 0.931 . S
C435 H423 0.929 . S
C435 C429 1.390 . S
C435 C432 1.386 . S
C436 C431 1.490 . S
C436 C438 1.395 . S
C436 C439 1.403 . S
H437 C443 0.930 . S
C438 H424 0.930 . S
C438 C436 1.395 . S
C438 C441 1.403 . S
C439 C436 1.403 . S
C439 C440 1.524 . S
C439 C443 1.400 . S
C440 H425 0.960 . S
C440 H426 0.960 . S
C440 H427 0.960 . S
C440 C439 1.524 . S
C441 C438 1.403 . S
C441 C442 1.392 . S
C441 C445 1.495 . S
C442 C441 1.392 . S
C442 C443 1.385 . S
C442 C444 1.478 1_655 S
C443 H437 0.930 . S
C443 C439 1.400 . S
C443 C442 1.385 . S
C444 C442 1.478 1_455 S
C444 C446 1.381 . S
C444 C450 1.383 . S
C445 C441 1.495 . S
C445 H451 0.959 . S
C445 H452 0.961 1_655 S
C445 H453 0.960 1_655 S
C446 C444 1.381 . S
C446 C447 1.394 . S
C446 H454 0.930 . S
C447 C446 1.394 . S
C447 C448 1.383 . S
C447 H455 0.929 . S
C448 C447 1.383 . S
C448 C449 1.377 . S
C449 H433 0.930 . S
C449 C448 1.377 . S
C449 C450 1.379 . S
C450 H434 0.931 . S
C450 C444 1.383 . S
C450 C449 1.379 . S
H451 C445 0.959 . S
H452 C445 0.961 1_455 S
H453 C445 0.960 1_455 S
H454 C446 0.930 . S
H455 C447 0.929 . S
H456 C464 0.929 . S
H457 C466 0.930 . S
H458 C468 0.930 . S
H459 C471 0.929 . S
H460 C474 0.930 1_556 S
H461 C476 0.960 . S
H462 C476 0.960 1_556 S
H463 C476 0.960 . S
C464 H456 0.929 . S
C464 C465 1.377 1_456 S
C464 C466 1.384 . S
C465 C464 1.377 1_654 S
C465 C471 1.390 . S
C466 H457 0.930 . S
C466 C464 1.384 . S
C466 C467 1.372 1_456 S
C467 C466 1.372 1_654 S
C467 C468 1.400 . S
C467 C472 1.490 . S
C468 H458 0.930 . S
C468 C467 1.400 . S
C468 C471 1.386 . S
H469 C485 0.930 1_655 S
H470 C486 0.931 1_655 S
C471 H459 0.929 . S
C471 C465 1.390 . S
C471 C468 1.386 . S
C472 C467 1.490 . S
C472 C474 1.395 1_655 S
C472 C475 1.403 . S
H473 C479 0.930 . S
C474 H460 0.930 1_554 S
C474 C472 1.395 1_455 S
C474 C477 1.403 . S
C475 C472 1.403 . S
C475 C476 1.524 . S
C475 C479 1.400 . S
C476 H461 0.960 . S
C476 H462 0.960 1_554 S
C476 H463 0.960 . S
C476 C475 1.524 . S
C477 C474 1.403 . S
C477 C478 1.392 . S
C477 C481 1.495 1_554 S
C478 C477 1.392 . S
C478 C479 1.385 1_455 S
C478 C480 1.478 . S
C479 H473 0.930 . S
C479 C475 1.400 . S
C479 C478 1.385 1_655 S
C480 C478 1.478 . S
C480 C482 1.381 1_554 S
C480 C486 1.383 . S
C481 C477 1.495 1_556 S
C481 H487 0.960 . S
C481 H488 0.955 1_556 S
C481 H489 0.966 . S
C482 C480 1.381 1_556 S
C482 C483 1.394 . S
C482 H490 0.930 . S
C483 C482 1.394 . S
C483 C484 1.383 1_556 S
C483 H491 0.929 . S
C484 C483 1.383 1_554 S
C484 C485 1.377 . S
C485 H469 0.930 1_455 S
C485 C484 1.377 . S
C485 C486 1.379 . S
C486 H470 0.931 1_455 S
C486 C480 1.383 . S
C486 C485 1.379 . S
H487 C481 0.960 . S
H488 C481 0.955 1_554 S
H489 C481 0.966 . S
H490 C482 0.930 . S
H491 C483 0.929 . S
H492 C500 0.929 . S
H493 C502 0.930 . S
H494 C504 0.930 . S
H495 C507 0.929 . S
H496 C510 0.930 . S
H497 C512 0.960 . S
H498 C512 0.960 . S
H499 C512 0.960 . S
C500 H492 0.929 . S
C500 C501 1.377 . S
C500 C502 1.384 . S
C501 C500 1.377 . S
C501 C507 1.390 . S
C502 H493 0.930 . S
C502 C500 1.384 . S
C502 C503 1.372 . S
C503 C502 1.372 . S
C503 C504 1.400 . S
C503 C508 1.490 . S
C504 H494 0.930 . S
C504 C503 1.400 . S
C504 C507 1.386 . S
H505 C521 0.930 . S
H506 C522 0.931 . S
C507 H495 0.929 . S
C507 C501 1.390 . S
C507 C504 1.386 . S
C508 C503 1.490 . S
C508 C510 1.395 . S
C508 C511 1.403 1_655 S
H509 C515 0.930 . S
C510 H496 0.930 . S
C510 C508 1.395 . S
C510 C513 1.403 . S
C511 C508 1.403 1_455 S
C511 C512 1.524 . S
C511 C515 1.400 . S
C512 H497 0.960 . S
C512 H498 0.960 . S
C512 H499 0.960 . S
C512 C511 1.524 . S
C513 C510 1.403 . S
C513 C514 1.392 . S
C513 C517 1.495 . S
C514 C513 1.392 . S
C514 C515 1.385 1_655 S
C514 C516 1.478 1_655 S
C515 H509 0.930 . S
C515 C511 1.400 . S
C515 C514 1.385 1_455 S
C516 C514 1.478 1_455 S
C516 C518 1.381 . S
C516 C522 1.383 1_455 S
C517 C513 1.495 . S
C517 H523 0.959 . S
C517 H524 0.961 . S
C517 H525 0.960 . S
C518 C516 1.381 . S
C518 C519 1.394 . S
C518 H526 0.930 . S
C519 C518 1.394 . S
C519 C520 1.383 . S
C519 H527 0.929 . S
C520 C519 1.383 . S
C520 C521 1.377 . S
C521 H505 0.930 . S
C521 C520 1.377 . S
C521 C522 1.379 1_455 S
C522 H506 0.931 . S
C522 C516 1.383 1_655 S
C522 C521 1.379 1_655 S
H523 C517 0.959 . S
H524 C517 0.961 . S
H525 C517 0.960 . S
H526 C518 0.930 . S
H527 C519 0.929 . S
H528 C536 0.929 . S
H529 C538 0.930 . S
H530 C540 0.930 . S
H531 C543 0.929 . S
H532 C546 0.930 . S
H533 C548 0.960 . S
H534 C548 0.960 . S
H535 C548 0.960 1_554 S
C536 H528 0.929 . S
C536 C537 1.377 1_556 S
C536 C538 1.384 . S
C537 C536 1.377 1_554 S
C537 C543 1.390 . S
C538 H529 0.930 . S
C538 C536 1.384 . S
C538 C539 1.372 1_556 S
C539 C538 1.372 1_554 S
C539 C540 1.400 . S
C539 C544 1.490 . S
C540 H530 0.930 . S
C540 C539 1.400 . S
C540 C543 1.386 . S
H541 C557 0.930 . S
H542 C558 0.931 . S
C543 H531 0.929 . S
C543 C537 1.390 . S
C543 C540 1.386 . S
C544 C539 1.490 . S
C544 C546 1.395 . S
C544 C547 1.403 1_554 S
H545 C551 0.930 1_556 S
C546 H532 0.930 . S
C546 C544 1.395 . S
C546 C549 1.403 1_565 S
C547 C544 1.403 1_556 S
C547 C548 1.524 . S
C547 C551 1.400 1_566 S
C548 H533 0.960 . S
C548 H534 0.960 . S
C548 H535 0.960 1_556 S
C548 C547 1.524 . S
C549 C546 1.403 1_545 S
C549 C550 1.392 . S
C549 C553 1.495 . S
C550 C549 1.392 . S
C550 C551 1.385 . S
C550 C552 1.478 . S
C551 H545 0.930 1_554 S
C551 C547 1.400 1_544 S
C551 C550 1.385 . S
C552 C550 1.478 . S
C552 C554 1.381 1_554 S
C552 C558 1.383 . S
C553 C549 1.495 . S
C553 H559 0.959 . S
C553 H560 0.961 . S
C553 H561 0.960 . S
C554 C552 1.381 1_556 S
C554 C555 1.394 . S
C554 H562 0.930 . S
C555 C554 1.394 . S
C555 C556 1.383 1_556 S
C555 H563 0.929 . S
C556 C555 1.383 1_554 S
C556 C557 1.377 . S
C557 H541 0.930 . S
C557 C556 1.377 . S
C557 C558 1.379 . S
C558 H542 0.931 . S
C558 C552 1.383 . S
C558 C557 1.379 . S
H559 C553 0.959 . S
H560 C553 0.961 . S
H561 C553 0.960 . S
H562 C554 0.930 . S
H563 C555 0.929 . S
H564 C572 0.929 . S
H565 C574 0.930 . S
H566 C576 0.930 . S
H567 C579 0.929 . S
H568 C582 0.930 . S
H569 C584 0.960 . S
H570 C584 0.960 . S
H571 C584 0.960 . S
C572 H564 0.929 . S
C572 C573 1.377 . S
C572 C574 1.384 . S
C573 C572 1.377 . S
C573 C579 1.390 . S
C574 H565 0.930 . S
C574 C572 1.384 . S
C574 C575 1.372 . S
C575 C574 1.372 . S
C575 C576 1.400 . S
C575 C580 1.490 . S
C576 H566 0.930 . S
C576 C575 1.400 . S
C576 C579 1.386 . S
H577 C593 0.930 . S
H578 C594 0.931 . S
C579 H567 0.929 . S
C579 C573 1.390 . S
C579 C576 1.386 . S
C580 C575 1.490 . S
C580 C582 1.395 . S
C580 C583 1.403 . S
H581 C587 0.930 . S
C582 H568 0.930 . S
C582 C580 1.395 . S
C582 C585 1.403 1_545 S
C583 C580 1.403 . S
C583 C584 1.524 . S
C583 C587 1.400 1_545 S
C584 H569 0.960 . S
C584 H570 0.960 . S
C584 H571 0.960 . S
C584 C583 1.524 . S
C585 C582 1.403 1_565 S
C585 C586 1.392 . S
C585 C589 1.495 . S
C586 C585 1.392 . S
C586 C587 1.385 . S
C586 C588 1.478 . S
C587 H581 0.930 . S
C587 C583 1.400 1_565 S
C587 C586 1.385 . S
C588 C586 1.478 . S
C588 C590 1.381 . S
C588 C594 1.383 . S
C589 C585 1.495 . S
C589 H595 0.959 . S
C589 H596 0.961 . S
C589 H597 0.960 . S
C590 C588 1.381 . S
C590 C591 1.394 . S
C590 H598 0.930 . S
C591 C590 1.394 . S
C591 C592 1.383 . S
C591 H599 0.929 . S
C592 C591 1.383 . S
C592 C593 1.377 . S
C593 H577 0.930 . S
C593 C592 1.377 . S
C593 C594 1.379 . S
C594 H578 0.931 . S
C594 C588 1.383 . S
C594 C593 1.379 . S
H595 C589 0.959 . S
H596 C589 0.961 . S
H597 C589 0.960 . S
H598 C590 0.930 . S
H599 C591 0.929 . S
H600 C608 0.929 . S
H601 C610 0.930 . S
H602 C612 0.930 . S
H603 C615 0.929 . S
H604 C618 0.930 . S
H605 C620 0.960 . S
H606 C620 0.960 . S
H607 C620 0.960 . S
C608 H600 0.929 . S
C608 C609 1.377 1_554 S
C608 C610 1.384 . S
C609 C608 1.377 1_556 S
C609 C615 1.390 . S
C610 H601 0.930 . S
C610 C608 1.384 . S
C610 C611 1.372 1_554 S
C611 C610 1.372 1_556 S
C611 C612 1.400 . S
C611 C616 1.490 . S
C612 H602 0.930 . S
C612 C611 1.400 . S
C612 C615 1.386 . S
H613 C629 0.930 . S
H614 C630 0.931 . S
C615 H603 0.929 . S
C615 C609 1.390 . S
C615 C612 1.386 . S
C616 C611 1.490 . S
C616 C618 1.395 1_556 S
C616 C619 1.403 . S
H617 C623 0.930 . S
C618 H604 0.930 . S
C618 C616 1.395 1_554 S
C618 C621 1.403 . S
C619 C616 1.403 . S
C619 C620 1.524 . S
C619 C623 1.400 . S
C620 H605 0.960 . S
C620 H606 0.960 . S
C620 H607 0.960 . S
C620 C619 1.524 . S
C621 C618 1.403 . S
C621 C622 1.392 1_554 S
C621 C625 1.495 . S
C622 C621 1.392 1_556 S
C622 C623 1.385 . S
C622 C624 1.478 . S
C623 H617 0.930 . S
C623 C619 1.400 . S
C623 C622 1.385 . S
C624 C622 1.478 . S
C624 C626 1.368 1_556 S
C624 C630 1.399 . S
C625 C621 1.495 . S
C625 H631 0.959 . S
C625 H632 0.961 . S
C625 H633 0.960 . S
C626 C624 1.368 1_554 S
C626 C627 1.394 . S
C626 H634 0.930 . S
C627 C626 1.394 . S
C627 C628 1.383 1_554 S
C627 H635 0.929 . S
C628 C627 1.383 1_556 S
C628 C629 1.377 . S
C629 H613 0.930 . S
C629 C628 1.377 . S
C629 C630 1.379 . S
C630 H614 0.931 . S
C630 C624 1.399 . S
C630 C629 1.379 . S
H631 C625 0.959 . S
H632 C625 0.961 . S
H633 C625 0.960 . S
H634 C626 0.930 . S
H635 C627 0.929 . S
H636 C644 0.929 . S
H637 C646 0.930 . S
H638 C648 0.930 . S
H639 C651 0.929 . S
H640 C654 0.930 . S
H641 C656 0.960 . S
H642 C656 0.960 . S
H643 C656 0.960 . S
C644 H636 0.929 . S
C644 C645 1.377 1_554 S
C644 C646 1.384 . S
C645 C644 1.377 1_556 S
C645 C651 1.390 . S
C646 H637 0.930 . S
C646 C644 1.384 . S
C646 C647 1.372 1_554 S
C647 C646 1.372 1_556 S
C647 C648 1.400 . S
C647 C652 1.490 . S
C648 H638 0.930 . S
C648 C647 1.400 . S
C648 C651 1.386 . S
H649 C665 0.930 . S
H650 C666 0.931 . S
C651 H639 0.929 . S
C651 C645 1.390 . S
C651 C648 1.386 . S
C652 C647 1.490 . S
C652 C654 1.395 1_556 S
C652 C655 1.403 . S
H653 C659 0.930 . S
C654 H640 0.930 . S
C654 C652 1.395 1_554 S
C654 C657 1.403 . S
C655 C652 1.403 . S
C655 C656 1.524 . S
C655 C659 1.400 . S
C656 H641 0.960 . S
C656 H642 0.960 . S
C656 H643 0.960 . S
C656 C655 1.524 . S
C657 C654 1.403 . S
C657 C658 1.392 1_554 S
C657 C661 1.495 . S
C658 C657 1.392 1_556 S
C658 C659 1.385 . S
C658 C660 1.478 . S
C659 H653 0.930 . S
C659 C655 1.400 . S
C659 C658 1.385 . S
C660 C658 1.478 . S
C660 C662 1.381 1_556 S
C660 C666 1.383 . S
C661 C657 1.495 . S
C661 H667 0.959 . S
C661 H668 0.961 . S
C661 H669 0.960 . S
C662 C660 1.381 1_554 S
C662 C663 1.394 . S
C662 H670 0.930 . S
C663 C662 1.394 . S
C663 C664 1.383 1_554 S
C663 H671 0.929 . S
C664 C663 1.383 1_556 S
C664 C665 1.377 . S
C665 H649 0.930 . S
C665 C664 1.377 . S
C665 C666 1.379 . S
C666 H650 0.931 . S
C666 C660 1.383 . S
C666 C665 1.379 . S
H667 C661 0.959 . S
H668 C661 0.961 . S
H669 C661 0.960 . S
H670 C662 0.930 . S
H671 C663 0.929 . S
H672 C680 0.929 . S
H673 C682 0.930 . S
H674 C684 0.930 . S
H675 C687 0.929 . S
H676 C690 0.930 . S
H677 C692 0.960 . S
H678 C692 0.960 . S
H679 C692 0.960 . S
C680 H672 0.929 . S
C680 C681 1.377 . S
C680 C682 1.384 . S
C681 C680 1.377 . S
C681 C687 1.390 . S
C682 H673 0.930 . S
C682 C680 1.384 . S
C682 C683 1.372 . S
C683 C682 1.372 . S
C683 C684 1.400 . S
C683 C688 1.490 . S
C684 H674 0.930 . S
C684 C683 1.400 . S
C684 C687 1.386 . S
H685 C701 0.930 . S
H686 C702 0.931 . S
C687 H675 0.929 . S
C687 C681 1.390 . S
C687 C684 1.386 . S
C688 C683 1.490 . S
C688 C690 1.395 . S
C688 C691 1.403 . S
H689 C695 0.930 . S
C690 H676 0.930 . S
C690 C688 1.395 . S
C690 C693 1.403 . S
C691 C688 1.403 . S
C691 C692 1.524 . S
C691 C695 1.400 . S
C692 H677 0.960 . S
C692 H678 0.960 . S
C692 H679 0.960 . S
C692 C691 1.524 . S
C693 C690 1.403 . S
C693 C694 1.392 . S
C693 C697 1.495 . S
C694 C693 1.392 . S
C694 C695 1.385 . S
C694 C696 1.478 . S
C695 H689 0.930 . S
C695 C691 1.400 . S
C695 C694 1.385 . S
C696 C694 1.478 . S
C696 C698 1.381 . S
C696 C702 1.383 . S
C697 C693 1.495 . S
C697 H703 0.959 . S
C697 H704 0.961 . S
C697 H705 0.960 . S
C698 C696 1.381 . S
C698 C699 1.394 . S
C698 H706 0.930 . S
C699 C698 1.394 . S
C699 C700 1.383 . S
C699 H707 0.929 . S
C700 C699 1.383 . S
C700 C701 1.377 . S
C701 H685 0.930 . S
C701 C700 1.377 . S
C701 C702 1.379 . S
C702 H686 0.931 . S
C702 C696 1.383 . S
C702 C701 1.379 . S
H703 C697 0.959 . S
H704 C697 0.961 . S
H705 C697 0.960 . S
H706 C698 0.930 . S
H707 C699 0.929 . S
H708 C716 0.929 . S
H709 C718 0.930 . S
H710 C720 0.930 . S
H711 C723 0.929 . S
H712 C726 0.930 . S
H713 C728 0.960 . S
H714 C728 0.960 . S
H715 C728 0.960 . S
C716 H708 0.929 . S
C716 C717 1.377 . S
C716 C718 1.384 . S
C717 C716 1.377 . S
C717 C723 1.390 . S
C718 H709 0.930 . S
C718 C716 1.384 . S
C718 C719 1.372 . S
C719 C718 1.372 . S
C719 C720 1.400 . S
C719 C724 1.490 . S
C720 H710 0.930 . S
C720 C719 1.400 . S
C720 C723 1.386 . S
H721 C737 0.930 . S
H722 C738 0.931 . S
C723 H711 0.929 . S
C723 C717 1.390 . S
C723 C720 1.386 . S
C724 C719 1.490 . S
C724 C726 1.395 . S
C724 C727 1.403 . S
H725 C731 0.930 . S
C726 H712 0.930 . S
C726 C724 1.395 . S
C726 C729 1.403 . S
C727 C724 1.403 . S
C727 C728 1.524 . S
C727 C731 1.400 . S
C728 H713 0.960 . S
C728 H714 0.960 . S
C728 H715 0.960 . S
C728 C727 1.524 . S
C729 C726 1.403 . S
C729 C730 1.392 . S
C729 C733 1.495 . S
C730 C729 1.392 . S
C730 C731 1.385 . S
C730 C732 1.478 . S
C731 H725 0.930 . S
C731 C727 1.400 . S
C731 C730 1.385 . S
C732 C730 1.478 . S
C732 C734 1.381 . S
C732 C738 1.383 . S
C733 C729 1.495 . S
C733 H739 0.959 . S
C733 H740 0.961 . S
C733 H741 0.960 . S
C734 C732 1.381 . S
C734 C735 1.394 . S
C734 H742 0.930 . S
C735 C734 1.394 . S
C735 C736 1.383 . S
C735 H743 0.929 . S
C736 C735 1.383 . S
C736 C737 1.377 . S
C737 H721 0.930 . S
C737 C736 1.377 . S
C737 C738 1.379 . S
C738 H722 0.931 . S
C738 C732 1.383 . S
C738 C737 1.379 . S
H739 C733 0.959 . S
H740 C733 0.961 . S
H741 C733 0.960 . S
H742 C734 0.930 . S
H743 C735 0.929 . S
H744 C752 0.929 . S
H745 C754 0.930 . S
H746 C756 0.930 . S
H747 C759 0.929 . S
H748 C762 0.930 . S
H749 C764 0.960 . S
H750 C764 0.960 . S
H751 C764 0.960 . S
C752 H744 0.929 . S
C752 C753 1.377 1_655 S
C752 C754 1.384 . S
C753 C752 1.377 1_455 S
C753 C759 1.390 . S
C754 H745 0.930 . S
C754 C752 1.384 . S
C754 C755 1.372 1_655 S
C755 C754 1.372 1_455 S
C755 C756 1.400 . S
C755 C760 1.490 . S
C756 H746 0.930 . S
C756 C755 1.400 . S
C756 C759 1.386 . S
H757 C773 0.930 . S
H758 C774 0.931 . S
C759 H747 0.929 . S
C759 C753 1.390 . S
C759 C756 1.386 . S
C760 C755 1.490 . S
C760 C762 1.395 1_455 S
C760 C763 1.403 . S
H761 C767 0.930 . S
C762 H748 0.930 . S
C762 C760 1.395 1_655 S
C762 C765 1.403 . S
C763 C760 1.403 . S
C763 C764 1.524 . S
C763 C767 1.400 . S
C764 H749 0.960 . S
C764 H750 0.960 . S
C764 H751 0.960 . S
C764 C763 1.524 . S
C765 C762 1.403 . S
C765 C766 1.392 . S
C765 C769 1.495 . S
C766 C765 1.392 . S
C766 C767 1.385 1_655 S
C766 C768 1.478 . S
C767 H761 0.930 . S
C767 C763 1.400 . S
C767 C766 1.385 1_455 S
C768 C766 1.478 . S
C768 C770 1.381 . S
C768 C774 1.383 1_655 S
C769 C765 1.495 . S
C769 H775 0.959 . S
C769 H776 0.961 . S
C769 H777 0.960 . S
C770 C768 1.381 . S
C770 C771 1.394 . S
C770 H778 0.930 . S
C771 C770 1.394 . S
C771 C772 1.383 . S
C771 H779 0.929 . S
C772 C771 1.383 . S
C772 C773 1.377 1_655 S
C773 H757 0.930 . S
C773 C772 1.377 1_455 S
C773 C774 1.379 . S
C774 H758 0.931 . S
C774 C768 1.383 1_455 S
C774 C773 1.379 . S
H775 C769 0.959 . S
H776 C769 0.961 . S
H777 C769 0.960 . S
H778 C770 0.930 . S
H779 C771 0.929 . S
H780 C788 0.930 . S
H781 C790 0.930 . S
H782 C792 0.930 . S
H783 C795 0.929 . S
H784 C798 0.930 . S
H785 C800 0.960 . S
H786 C800 0.960 . S
H787 C800 0.960 . S
C788 H780 0.930 . S
C788 C789 1.376 1_455 S
C788 C790 1.384 . S
C789 C788 1.376 1_655 S
C789 C795 1.390 . S
C790 H781 0.930 . S
C790 C788 1.384 . S
C790 C791 1.372 1_455 S
C791 C790 1.372 1_655 S
C791 C792 1.400 . S
C791 C796 1.490 . S
C792 H782 0.930 . S
C792 C791 1.400 . S
C792 C795 1.386 . S
H793 C809 0.930 1_655 S
H794 C810 0.931 1_655 S
C795 H783 0.929 . S
C795 C789 1.390 . S
C795 C792 1.386 . S
C796 C791 1.490 . S
C796 C798 1.395 1_655 S
C796 C799 1.403 . S
H797 C803 0.930 . S
C798 H784 0.930 . S
C798 C796 1.395 1_455 S
C798 C801 1.403 . S
C799 C796 1.403 . S
C799 C800 1.524 . S
C799 C803 1.400 . S
C800 H785 0.960 . S
C800 H786 0.960 . S
C800 H787 0.960 . S
C800 C799 1.524 . S
C801 C798 1.403 . S
C801 C802 1.392 . S
C801 C805 1.495 . S
C802 C801 1.392 . S
C802 C803 1.385 1_455 S
C802 C804 1.478 . S
C803 H797 0.930 . S
C803 C799 1.400 . S
C803 C802 1.385 1_655 S
C804 C802 1.478 . S
C804 C806 1.381 . S
C804 C810 1.383 . S
C805 C801 1.495 . S
C805 H811 0.959 . S
C805 H812 0.961 . S
C805 H813 0.960 . S
C806 C804 1.381 . S
C806 C807 1.394 . S
C806 H814 0.930 . S
C807 C806 1.394 . S
C807 C808 1.383 . S
C807 H815 0.929 . S
C808 C807 1.383 . S
C808 C809 1.377 . S
C809 H793 0.930 1_455 S
C809 C808 1.377 . S
C809 C810 1.379 . S
C810 H794 0.931 1_455 S
C810 C804 1.383 . S
C810 C809 1.379 . S
H811 C805 0.959 . S
H812 C805 0.961 . S
H813 C805 0.960 . S
H814 C806 0.930 . S
H815 C807 0.929 . S
H816 C824 0.929 1_455 S
H817 C826 0.930 . S
H818 C828 0.930 . S
H819 C831 0.929 . S
H820 C834 0.930 . S
H821 C836 0.960 . S
H822 C836 0.960 . S
H823 C836 0.960 . S
C824 H816 0.929 1_655 S
C824 C825 1.377 . S
C824 C826 1.384 1_655 S
C825 C824 1.377 . S
C825 C831 1.390 . S
C826 H817 0.930 . S
C826 C824 1.384 1_455 S
C826 C827 1.372 1_455 S
C827 C826 1.372 1_655 S
C827 C828 1.400 . S
C827 C832 1.490 . S
C828 H818 0.930 . S
C828 C827 1.400 . S
C828 C831 1.386 . S
H829 C845 0.930 1_655 S
H830 C846 0.931 1_655 S
C831 H819 0.929 . S
C831 C825 1.390 . S
C831 C828 1.386 . S
C832 C827 1.490 . S
C832 C834 1.395 1_655 S
C832 C835 1.403 . S
H833 C839 0.930 . S
C834 H820 0.930 . S
C834 C832 1.395 1_455 S
C834 C837 1.403 . S
C835 C832 1.403 . S
C835 C836 1.524 . S
C835 C839 1.400 . S
C836 H821 0.960 . S
C836 H822 0.960 . S
C836 H823 0.960 . S
C836 C835 1.524 . S
C837 C834 1.403 . S
C837 C838 1.392 . S
C837 C841 1.495 . S
C838 C837 1.392 . S
C838 C839 1.385 1_455 S
C838 C840 1.478 . S
C839 H833 0.930 . S
C839 C835 1.400 . S
C839 C838 1.385 1_655 S
C840 C838 1.478 . S
C840 C842 1.381 . S
C840 C846 1.383 . S
C841 C837 1.495 . S
C841 H847 0.959 . S
C841 H848 0.961 . S
C841 H849 0.960 . S
C842 C840 1.381 . S
C842 C843 1.394 . S
C842 H850 0.930 . S
C843 C842 1.394 . S
C843 C844 1.383 . S
C843 H851 0.929 . S
C844 C843 1.383 . S
C844 C845 1.377 . S
C845 H829 0.930 1_455 S
C845 C844 1.377 . S
C845 C846 1.379 . S
C846 H830 0.931 1_455 S
C846 C840 1.383 . S
C846 C845 1.379 . S
H847 C841 0.959 . S
H848 C841 0.961 . S
H849 C841 0.960 . S
H850 C842 0.930 . S
H851 C843 0.929 . S
H852 C860 0.929 . S
H853 C862 0.930 . S
H854 C864 0.922 1_455 S
H855 C867 0.929 1_455 S
H856 C870 0.930 . S
H857 C872 0.960 . S
H858 C872 0.960 . S
H859 C872 0.960 . S
C860 H852 0.929 . S
C860 C861 1.377 . S
C860 C862 1.384 . S
C861 C860 1.377 . S
C861 C867 1.390 . S
C862 H853 0.930 . S
C862 C860 1.384 . S
C862 C863 1.372 . S
C863 C862 1.372 . S
C863 C864 1.405 . S
C863 C868 1.490 . S
C864 H854 0.922 1_655 S
C864 C863 1.405 . S
C864 C867 1.388 . S
H865 C881 0.930 . S
H866 C882 0.931 . S
C867 H855 0.929 1_655 S
C867 C861 1.390 . S
C867 C864 1.388 . S
C868 C863 1.490 . S
C868 C870 1.395 . S
C868 C871 1.403 1_655 S
H869 C875 0.930 . S
C870 H856 0.930 . S
C870 C868 1.395 . S
C870 C873 1.403 . S
C871 C868 1.403 1_455 S
C871 C872 1.524 . S
C871 C875 1.400 . S
C872 H857 0.960 . S
C872 H858 0.960 . S
C872 H859 0.960 . S
C872 C871 1.524 . S
C873 C870 1.403 . S
C873 C874 1.392 1_655 S
C873 C877 1.495 . S
C874 C873 1.392 1_455 S
C874 C875 1.385 . S
C874 C876 1.478 . S
C875 H869 0.930 . S
C875 C871 1.400 . S
C875 C874 1.385 . S
C876 C874 1.478 . S
C876 C878 1.381 1_455 S
C876 C882 1.383 . S
C877 C873 1.495 . S
C877 H883 0.959 . S
C877 H884 0.961 . S
C877 H885 0.960 . S
C878 C876 1.381 1_655 S
C878 C879 1.394 1_655 S
C878 H886 0.930 . S
C879 C878 1.394 1_455 S
C879 C880 1.383 . S
C879 H887 0.929 1_455 S
C880 C879 1.383 . S
C880 C881 1.377 . S
C881 H865 0.930 . S
C881 C880 1.377 . S
C881 C882 1.379 . S
C882 H866 0.931 . S
C882 C876 1.383 . S
C882 C881 1.379 . S
H883 C877 0.959 . S
H884 C877 0.961 . S
H885 C877 0.960 . S
H886 C878 0.930 . S
H887 C879 0.929 1_655 S
H888 C896 0.929 . S
H889 C898 0.930 . S
H890 C900 0.930 . S
H891 C903 0.929 . S
H892 C906 0.930 . S
H893 C908 0.960 . S
H894 C908 0.960 . S
H895 C908 0.960 . S
C896 H888 0.929 . S
C896 C897 1.377 . S
C896 C898 1.384 . S
C897 C896 1.377 . S
C897 C903 1.390 . S
C898 H889 0.930 . S
C898 C896 1.384 . S
C898 C899 1.372 . S
C899 C898 1.372 . S
C899 C900 1.400 . S
C899 C904 1.490 . S
C900 H890 0.930 . S
C900 C899 1.400 . S
C900 C903 1.386 . S
H901 C917 0.930 . S
H902 C918 0.931 . S
C903 H891 0.929 . S
C903 C897 1.390 . S
C903 C900 1.386 . S
C904 C899 1.490 . S
C904 C906 1.395 . S
C904 C907 1.403 . S
H905 C911 0.930 . S
C906 H892 0.930 . S
C906 C904 1.395 . S
C906 C909 1.403 . S
C907 C904 1.403 . S
C907 C908 1.524 . S
C907 C911 1.400 . S
C908 H893 0.960 . S
C908 H894 0.960 . S
C908 H895 0.960 . S
C908 C907 1.524 . S
C909 C906 1.403 . S
C909 C910 1.392 . S
C909 C913 1.495 . S
C910 C909 1.392 . S
C910 C911 1.385 . S
C910 C912 1.478 . S
C911 H905 0.930 . S
C911 C907 1.400 . S
C911 C910 1.385 . S
C912 C910 1.478 . S
C912 C914 1.381 . S
C912 C918 1.383 . S
C913 C909 1.495 . S
C913 H919 0.959 . S
C913 H920 0.961 . S
C913 H921 0.960 . S
C914 C912 1.381 . S
C914 C915 1.394 . S
C914 H922 0.930 . S
C915 C914 1.394 . S
C915 C916 1.383 . S
C915 H923 0.929 . S
C916 C915 1.383 . S
C916 C917 1.377 . S
C917 H901 0.930 . S
C917 C916 1.377 . S
C917 C918 1.379 . S
C918 H902 0.931 . S
C918 C912 1.383 . S
C918 C917 1.379 . S
H919 C913 0.959 . S
H920 C913 0.961 . S
H921 C913 0.960 . S
H922 C914 0.930 . S
H923 C915 0.929 . S
H924 C932 0.929 . S
H925 C934 0.930 . S
H926 C936 0.930 . S
H927 C939 0.929 . S
H928 C942 0.930 . S
H929 C944 0.960 . S
H930 C944 0.960 . S
H931 C944 0.960 . S
C932 H924 0.929 . S
C932 C933 1.377 . S
C932 C934 1.384 . S
C933 C932 1.377 . S
C933 C939 1.390 . S
C934 H925 0.930 . S
C934 C932 1.384 . S
C934 C935 1.372 . S
C935 C934 1.372 . S
C935 C936 1.400 . S
C935 C940 1.490 . S
C936 H926 0.930 . S
C936 C935 1.400 . S
C936 C939 1.386 . S
H937 C953 0.930 . S
H938 C954 0.931 . S
C939 H927 0.929 . S
C939 C933 1.390 . S
C939 C936 1.386 . S
C940 C935 1.490 . S
C940 C942 1.395 . S
C940 C943 1.403 . S
H941 C947 0.930 . S
C942 H928 0.930 . S
C942 C940 1.395 . S
C942 C945 1.403 . S
C943 C940 1.403 . S
C943 C944 1.524 . S
C943 C947 1.400 . S
C944 H929 0.960 . S
C944 H930 0.960 . S
C944 H931 0.960 . S
C944 C943 1.524 . S
C945 C942 1.403 . S
C945 C946 1.392 . S
C945 C949 1.495 . S
C946 C945 1.392 . S
C946 C947 1.385 . S
C946 C948 1.478 . S
C947 H941 0.930 . S
C947 C943 1.400 . S
C947 C946 1.385 . S
C948 C946 1.478 . S
C948 C950 1.381 . S
C948 C954 1.383 . S
C949 C945 1.495 . S
C949 H955 0.959 . S
C949 H956 0.961 . S
C949 H957 0.960 . S
C950 C948 1.381 . S
C950 C951 1.394 . S
C950 H958 0.930 . S
C951 C950 1.394 . S
C951 C952 1.383 . S
C951 H959 0.929 . S
C952 C951 1.383 . S
C952 C953 1.377 . S
C953 H937 0.930 . S
C953 C952 1.377 . S
C953 C954 1.379 . S
C954 H938 0.931 . S
C954 C948 1.383 . S
C954 C953 1.379 . S
H955 C949 0.959 . S
H956 C949 0.961 . S
H957 C949 0.960 . S
H958 C950 0.930 . S
H959 C951 0.929 . S
H960 C968 0.929 . S
H961 C970 0.930 . S
H962 C972 0.930 . S
H963 C975 0.929 . S
H964 C978 0.930 . S
H965 C980 0.960 . S
H966 C980 0.960 . S
H967 C980 0.960 . S
C968 H960 0.929 . S
C968 C969 1.377 . S
C968 C970 1.384 . S
C969 C968 1.377 . S
C969 C975 1.390 . S
C970 H961 0.930 . S
C970 C968 1.384 . S
C970 C971 1.372 . S
C971 C970 1.372 . S
C971 C972 1.400 . S
C971 C976 1.490 . S
C972 H962 0.930 . S
C972 C971 1.400 . S
C972 C975 1.386 . S
H973 C989 0.930 . S
H974 C990 0.931 . S
C975 H963 0.929 . S
C975 C969 1.390 . S
C975 C972 1.386 . S
C976 C971 1.490 . S
C976 C978 1.395 . S
C976 C979 1.403 . S
H977 C983 0.930 . S
C978 H964 0.930 . S
C978 C976 1.395 . S
C978 C981 1.403 . S
C979 C976 1.403 . S
C979 C980 1.524 . S
C979 C983 1.400 . S
C980 H965 0.960 . S
C980 H966 0.960 . S
C980 H967 0.960 . S
C980 C979 1.524 . S
C981 C978 1.403 . S
C981 C982 1.392 . S
C981 C985 1.495 . S
C982 C981 1.392 . S
C982 C983 1.385 . S
C982 C984 1.478 . S
C983 H977 0.930 . S
C983 C979 1.400 . S
C983 C982 1.385 . S
C984 C982 1.478 . S
C984 C986 1.381 . S
C984 C990 1.383 . S
C985 C981 1.495 . S
C985 H991 0.959 . S
C985 H992 0.961 . S
C985 H993 0.960 . S
C986 C984 1.381 . S
C986 C987 1.394 . S
C986 H994 0.930 . S
C987 C986 1.394 . S
C987 C988 1.383 . S
C987 H995 0.929 . S
C988 C987 1.383 . S
C988 C989 1.377 . S
C989 H973 0.930 . S
C989 C988 1.377 . S
C989 C990 1.379 . S
C990 H974 0.931 . S
C990 C984 1.383 . S
C990 C989 1.379 . S
H991 C985 0.959 . S
H992 C985 0.961 . S
H993 C985 0.960 . S
H994 C986 0.930 . S
H995 C987 0.929 . S
H996 C1004 0.929 . S
H997 C1006 0.930 . S
H998 C1008 0.930 . S
H999 C1011 0.929 . S
H1000 C1014 0.930 . S
H1001 C1016 0.960 . S
H1002 C1016 0.960 . S
H1003 C1016 0.960 . S
C1004 H996 0.929 . S
C1004 C1005 1.377 . S
C1004 C1006 1.384 . S
C1005 C1004 1.377 . S
C1005 C1011 1.390 . S
C1006 H997 0.930 . S
C1006 C1004 1.384 . S
C1006 C1007 1.372 . S
C1007 C1006 1.372 . S
C1007 C1008 1.400 . S
C1007 C1012 1.490 . S
C1008 H998 0.930 . S
C1008 C1007 1.400 . S
C1008 C1011 1.386 . S
H1009 C1025 0.930 . S
H1010 C1026 0.931 . S
C1011 H999 0.929 . S
C1011 C1005 1.390 . S
C1011 C1008 1.386 . S
C1012 C1007 1.490 . S
C1012 C1014 1.395 . S
C1012 C1015 1.403 . S
H1013 C1019 0.930 . S
C1014 H1000 0.930 . S
C1014 C1012 1.395 . S
C1014 C1017 1.403 . S
C1015 C1012 1.403 . S
C1015 C1016 1.524 . S
C1015 C1019 1.400 . S
C1016 H1001 0.960 . S
C1016 H1002 0.960 . S
C1016 H1003 0.960 . S
C1016 C1015 1.524 . S
C1017 C1014 1.403 . S
C1017 C1018 1.392 . S
C1017 C1021 1.495 . S
C1018 C1017 1.392 . S
C1018 C1019 1.385 . S
C1018 C1020 1.478 . S
C1019 H1013 0.930 . S
C1019 C1015 1.400 . S
C1019 C1018 1.385 . S
C1020 C1018 1.478 . S
C1020 C1022 1.381 . S
C1020 C1026 1.383 . S
C1021 C1017 1.495 . S
C1021 H1027 0.959 . S
C1021 H1028 0.961 . S
C1021 H1029 0.960 . S
C1022 C1020 1.381 . S
C1022 C1023 1.394 . S
C1022 H1030 0.930 . S
C1023 C1022 1.394 . S
C1023 C1024 1.383 . S
C1023 H1031 0.929 . S
C1024 C1023 1.383 . S
C1024 C1025 1.377 . S
C1025 H1009 0.930 . S
C1025 C1024 1.377 . S
C1025 C1026 1.379 . S
C1026 H1010 0.931 . S
C1026 C1020 1.383 . S
C1026 C1025 1.379 . S
H1027 C1021 0.959 . S
H1028 C1021 0.961 . S
H1029 C1021 0.960 . S
H1030 C1022 0.930 . S
H1031 C1023 0.929 . S
C177 C18 1.216 1_556 S
C196 C17 1.230 1_554 S
C213 C38 1.220 1_554 S
C232 C39 1.250 1_556 S
C249 C56 1.219 . S
C268 C57 1.199 . S
C285 C81 1.214 . S
C304 C80 1.178 . S
C321 C102 1.214 1_556 S
C340 C101 1.222 1_554 S
C357 C123 1.224 1_556 S
C376 C122 1.251 1_554 S
C393 C140 1.217 . S
C412 C141 1.242 . S
C429 C164 1.217 . S
C448 C165 1.194 . S
C465 C36 1.510 1_554 S
C484 C15 1.519 1_554 S
C501 C78 1.515 . S
C520 C60 1.512 . S
C537 C99 1.509 1_554 S
C556 C120 1.525 1_554 S
C573 C144 1.518 . S
C592 C162 1.486 . S
C609 C14 1.527 1_556 S
C628 C119 1.497 1_556 S
C645 C98 1.523 1_556 S
C664 C35 1.500 1_556 S
C681 C59 1.535 . S
C700 C161 1.537 . S
C717 C77 1.526 . S
C736 C143 1.495 . S
C753 C13 1.336 . S
C772 C76 1.281 . S
C789 C34 1.329 . S
C808 C58 1.278 . S
C825 C37 1.309 . S
C844 C55 1.326 . S
C861 C79 1.295 . S
C880 C16 1.272 . S
C897 C97 1.332 . S
C916 C160 1.320 . S
C933 C118 1.318 . S
C952 C142 1.369 . S
C969 C121 1.294 . S
C988 C139 1.257 . S
C1005 C163 1.307 . S
C1024 C100 1.314 . S
