# Generated by pormake.
# Topology fnh, (5)-cn, num edge types: 1
# Building blocks:
#     Node 0, Type 0, BuildingBlock: XOMCOT_clean_sbu_1, # of connection points: 5
#     Node 1, Type 0, BuildingBlock: XOMCOT_clean_sbu_1, # of connection points: 5
#     Node 2, Type 0, BuildingBlock: XOMCOT_clean_sbu_1, # of connection points: 5
#     Node 3, Type 0, BuildingBlock: XOMCOT_clean_sbu_1, # of connection points: 5
#     Node 4, Type 0, BuildingBlock: XOMCOT_clean_sbu_1, # of connection points: 5
#     Node 5, Type 0, BuildingBlock: XOMCOT_clean_sbu_1, # of connection points: 5
#     Node 6, Type 0, BuildingBlock: XOMCOT_clean_sbu_1, # of connection points: 5
#     Node 7, Type 0, BuildingBlock: XOMCOT_clean_sbu_1, # of connection points: 5
#     Node 8, Type 0, BuildingBlock: XOMCOT_clean_sbu_1, # of connection points: 5
#     Node 9, Type 0, BuildingBlock: XOMCOT_clean_sbu_1, # of connection points: 5
#     Node 10, Type 0, BuildingBlock: XOMCOT_clean_sbu_1, # of connection points: 5
#     Node 11, Type 0, BuildingBlock: XOMCOT_clean_sbu_1, # of connection points: 5
#     Node 12, Type 0, BuildingBlock: XOMCOT_clean_sbu_1, # of connection points: 5
#     Node 13, Type 0, BuildingBlock: XOMCOT_clean_sbu_1, # of connection points: 5
#     Node 14, Type 0, BuildingBlock: XOMCOT_clean_sbu_1, # of connection points: 5
#     Node 15, Type 0, BuildingBlock: XOMCOT_clean_sbu_1, # of connection points: 5
#     Node 16, Type 0, BuildingBlock: XOMCOT_clean_sbu_1, # of connection points: 5
#     Node 17, Type 0, BuildingBlock: XOMCOT_clean_sbu_1, # of connection points: 5
#     Edge 18, Type (0, 0), BuildingBlock: KIFKEQ_clean_linker_1, # of connection points: 2
#     Edge 19, Type (0, 0), BuildingBlock: KIFKEQ_clean_linker_1, # of connection points: 2
#     Edge 20, Type (0, 0), BuildingBlock: KIFKEQ_clean_linker_1, # of connection points: 2
#     Edge 21, Type (0, 0), BuildingBlock: KIFKEQ_clean_linker_1, # of connection points: 2
#     Edge 22, Type (0, 0), BuildingBlock: KIFKEQ_clean_linker_1, # of connection points: 2
#     Edge 23, Type (0, 0), BuildingBlock: KIFKEQ_clean_linker_1, # of connection points: 2
#     Edge 24, Type (0, 0), BuildingBlock: KIFKEQ_clean_linker_1, # of connection points: 2
#     Edge 25, Type (0, 0), BuildingBlock: KIFKEQ_clean_linker_1, # of connection points: 2
#     Edge 26, Type (0, 0), BuildingBlock: KIFKEQ_clean_linker_1, # of connection points: 2
#     Edge 27, Type (0, 0), BuildingBlock: KIFKEQ_clean_linker_1, # of connection points: 2
#     Edge 28, Type (0, 0), BuildingBlock: KIFKEQ_clean_linker_1, # of connection points: 2
#     Edge 29, Type (0, 0), BuildingBlock: KIFKEQ_clean_linker_1, # of connection points: 2
#     Edge 30, Type (0, 0), BuildingBlock: KIFKEQ_clean_linker_1, # of connection points: 2
#     Edge 31, Type (0, 0), BuildingBlock: KIFKEQ_clean_linker_1, # of connection points: 2
#     Edge 32, Type (0, 0), BuildingBlock: KIFKEQ_clean_linker_1, # of connection points: 2
#     Edge 33, Type (0, 0), BuildingBlock: KIFKEQ_clean_linker_1, # of connection points: 2
#     Edge 34, Type (0, 0), BuildingBlock: KIFKEQ_clean_linker_1, # of connection points: 2
#     Edge 35, Type (0, 0), BuildingBlock: KIFKEQ_clean_linker_1, # of connection points: 2
#     Edge 36, Type (0, 0), BuildingBlock: KIFKEQ_clean_linker_1, # of connection points: 2
#     Edge 37, Type (0, 0), BuildingBlock: KIFKEQ_clean_linker_1, # of connection points: 2
#     Edge 38, Type (0, 0), BuildingBlock: KIFKEQ_clean_linker_1, # of connection points: 2
#     Edge 39, Type (0, 0), BuildingBlock: KIFKEQ_clean_linker_1, # of connection points: 2
#     Edge 40, Type (0, 0), BuildingBlock: KIFKEQ_clean_linker_1, # of connection points: 2
#     Edge 41, Type (0, 0), BuildingBlock: KIFKEQ_clean_linker_1, # of connection points: 2
#     Edge 42, Type (0, 0), BuildingBlock: KIFKEQ_clean_linker_1, # of connection points: 2
#     Edge 43, Type (0, 0), BuildingBlock: KIFKEQ_clean_linker_1, # of connection points: 2
#     Edge 44, Type (0, 0), BuildingBlock: KIFKEQ_clean_linker_1, # of connection points: 2
#     Edge 45, Type (0, 0), BuildingBlock: KIFKEQ_clean_linker_1, # of connection points: 2
#     Edge 46, Type (0, 0), BuildingBlock: KIFKEQ_clean_linker_1, # of connection points: 2
#     Edge 47, Type (0, 0), BuildingBlock: KIFKEQ_clean_linker_1, # of connection points: 2
#     Edge 48, Type (0, 0), BuildingBlock: KIFKEQ_clean_linker_1, # of connection points: 2
#     Edge 49, Type (0, 0), BuildingBlock: KIFKEQ_clean_linker_1, # of connection points: 2
#     Edge 50, Type (0, 0), BuildingBlock: KIFKEQ_clean_linker_1, # of connection points: 2
#     Edge 51, Type (0, 0), BuildingBlock: KIFKEQ_clean_linker_1, # of connection points: 2
#     Edge 52, Type (0, 0), BuildingBlock: KIFKEQ_clean_linker_1, # of connection points: 2
#     Edge 53, Type (0, 0), BuildingBlock: KIFKEQ_clean_linker_1, # of connection points: 2
#     Edge 54, Type (0, 0), BuildingBlock: KIFKEQ_clean_linker_1, # of connection points: 2
#     Edge 55, Type (0, 0), BuildingBlock: KIFKEQ_clean_linker_1, # of connection points: 2
#     Edge 56, Type (0, 0), BuildingBlock: KIFKEQ_clean_linker_1, # of connection points: 2
#     Edge 57, Type (0, 0), BuildingBlock: KIFKEQ_clean_linker_1, # of connection points: 2
#     Edge 58, Type (0, 0), BuildingBlock: KIFKEQ_clean_linker_1, # of connection points: 2
#     Edge 59, Type (0, 0), BuildingBlock: KIFKEQ_clean_linker_1, # of connection points: 2
#     Edge 60, Type (0, 0), BuildingBlock: KIFKEQ_clean_linker_1, # of connection points: 2
#     Edge 61, Type (0, 0), BuildingBlock: KIFKEQ_clean_linker_1, # of connection points: 2
#     Edge 62, Type (0, 0), BuildingBlock: KIFKEQ_clean_linker_1, # of connection points: 2
# Relax obj value: 0.164
# Max RMSD: 0.171
# Mean RMSD: 0.171
data_MOF--net-fnh--node1-XOMCOT_clean_sbu_1--edge1-KIFKEQ_clean_linker_1
_symmetry_space_group_name_H-M    P1
_symmetry_Int_Tables_number       1
_symmetry_cell_setting            triclinic
loop_
_symmetry_equiv_pos_as_xyz
'x, y, z'
_cell_length_a     68.827598
_cell_length_b     68.620493
_cell_length_c     23.7946
_cell_angle_alpha  89.924363
_cell_angle_beta   89.911215
_cell_angle_gamma 120.16698
loop_
_atom_site_label
_atom_site_type_symbol
_atom_site_fract_x
_atom_site_fract_y
_atom_site_fract_z
_atom_type_partial_charge
C0 C 0.08131 0.19372 0.28184 0.0
C1 C 0.06823 0.19386 0.32541 0.0
N2 N 0.07743 0.19236 0.37411 0.0
N3 N 0.09846 0.19198 0.30324 0.0
C4 C 0.09556 0.19095 0.3592 0.0
H5 H 0.07933 0.19625 0.23782 0.0
Co6 Co 0.12364 0.19703 0.26564 0.0
C7 C 0.14944 0.18386 0.34931 0.0
O8 O 0.16788 0.20169 0.33133 0.0
N9 N 0.14935 0.20268 0.22608 0.0
C10 C 0.18194 0.22026 0.18075 0.0
C11 C 0.1643 0.22213 0.20057 0.0
C12 C 0.15777 0.18885 0.21855 0.0
N13 N 0.17801 0.19944 0.19291 0.0
O14 O 0.10465 0.1696 0.21859 0.0
H15 H 0.16269 0.23686 0.19575 0.0
H16 H 0.14955 0.17161 0.23347 0.0
O17 O 0.13042 0.17959 0.32762 0.0
C18 C 0.10094 0.17537 0.16977 0.0
O19 O 0.11193 0.19694 0.15709 0.0
N20 N 0.13988 0.22561 0.30277 0.0
C21 C 0.16095 0.27177 0.33166 0.0
C22 C 0.16147 0.25579 0.36822 0.0
C23 C 0.15052 0.23272 0.35345 0.0
C24 C 0.13776 0.24059 0.26937 0.0
C25 C 0.14852 0.26353 0.28192 0.0
H26 H 0.15034 0.22084 0.38339 0.0
H27 H 0.12824 0.2347 0.23083 0.0
H28 H 0.10726 0.19038 0.3884 0.0
H29 H 0.05392 0.19628 0.32144 0.0
H30 H 0.19623 0.23305 0.15754 0.0
H31 H 0.16994 0.26093 0.40834 0.0
H32 H 0.14742 0.27469 0.25161 0.0
C33 C 0.85166 0.90727 0.24542 0.0
C34 C 0.85234 0.88991 0.27248 0.0
N35 N 0.86833 0.89899 0.31228 0.0
N36 N 0.86685 0.92696 0.26902 0.0
C37 C 0.87689 0.92144 0.30922 0.0
H38 H 0.84063 0.90569 0.21121 0.0
Co39 Co 0.87175 0.95459 0.24775 0.0
C40 C 0.8858 0.98421 0.35098 0.0
O41 O 0.87014 0.98872 0.33576 0.0
N42 N 0.87705 0.98291 0.22462 0.0
C43 C 0.89586 1.01952 0.20523 0.0
C44 C 0.89767 1.0014 0.22236 0.0
C45 C 0.86302 0.9903 0.20881 0.0
N46 N 0.87394 1.01252 0.1967 0.0
O47 O 0.89907 0.95915 0.20589 0.0
H48 H 0.91313 1.00167 0.23235 0.0
H49 H 0.84514 0.97973 0.20556 0.0
O50 O 0.88884 0.9701 0.32118 0.0
C51 C 0.8941 0.95333 0.15395 0.0
O52 O 0.87416 0.94888 0.1367 0.0
N53 N 0.84308 0.94652 0.27952 0.0
C54 C 0.79693 0.92471 0.30809 0.0
C55 C 0.81361 0.93075 0.34962 0.0
C56 C 0.8365 0.94121 0.33441 0.0
C57 C 0.82705 0.93968 0.2388 0.0
C58 C 0.80421 0.92962 0.252 0.0
H59 H 0.84868 0.94388 0.36648 0.0
H60 H 0.83204 0.94168 0.19507 0.0
H61 H 0.88976 0.93355 0.33683 0.0
H62 H 0.84189 0.87209 0.26394 0.0
H63 H 0.90983 0.03625 0.19708 0.0
H64 H 0.80904 0.9265 0.39331 0.0
H65 H 0.7924 0.92543 0.21788 0.0
C66 C 0.17429 0.96072 0.24793 0.0
C67 C 0.19216 0.98058 0.26693 0.0
N68 N 0.18426 0.98943 0.30486 0.0
N69 N 0.15549 0.95702 0.27495 0.0
C70 C 0.16199 0.9749 0.3087 0.0
H71 H 0.17504 0.94916 0.21837 0.0
Co72 Co 0.12783 0.93163 0.26795 0.0
C73 C 0.1107 0.92892 0.39079 0.0
O74 O 0.11938 0.91674 0.40738 0.0
N75 N 0.09944 0.90578 0.26188 0.0
C76 C 0.06876 0.87321 0.28387 0.0
C77 C 0.09038 0.88833 0.29887 0.0
C78 C 0.08271 0.90103 0.22546 0.0
N79 N 0.064 0.88142 0.23818 0.0
O80 O 0.11889 0.95029 0.22109 0.0
H81 H 0.09885 0.88646 0.33477 0.0
H82 H 0.08415 0.91153 0.18994 0.0
O83 O 0.11463 0.93712 0.34026 0.0
C84 C 0.12532 0.95122 0.16958 0.0
O85 O 0.1327 0.93757 0.15539 0.0
N86 N 0.13967 0.91431 0.3027 0.0
C87 C 0.16214 0.89039 0.32846 0.0
C88 C 0.16576 0.90922 0.36032 0.0
C89 C 0.15477 0.9212 0.34604 0.0
C90 C 0.13702 0.89682 0.26971 0.0
C91 C 0.14753 0.88443 0.28247 0.0
H92 H 0.15888 0.93638 0.36902 0.0
H93 H 0.12713 0.89275 0.23173 0.0
H94 H 0.15094 0.97654 0.33828 0.0
H95 H 0.20966 0.98748 0.2557 0.0
H96 H 0.05739 0.85749 0.30477 0.0
H97 H 0.17723 0.91492 0.39554 0.0
H98 H 0.14491 0.87083 0.25473 0.0
C99 C 0.21582 0.06431 0.75775 0.0
C100 C 0.21953 0.05363 0.71367 0.0
N101 N 0.21547 0.0613 0.66548 0.0
N102 N 0.20929 0.07841 0.73725 0.0
C103 C 0.20903 0.07608 0.68111 0.0
H104 H 0.21896 0.06288 0.80164 0.0
Co105 Co 0.20777 0.10017 0.77817 0.0
C106 C 0.19621 0.12626 0.6934 0.0
O107 O 0.2118 0.1442 0.71945 0.0
N108 N 0.20636 0.12187 0.82152 0.0
C109 C 0.19315 0.14108 0.86687 0.0
C110 C 0.18929 0.12623 0.8239 0.0
C111 C 0.21979 0.13344 0.86487 0.0
N112 N 0.21233 0.14544 0.89232 0.0
O113 O 0.17954 0.07635 0.81638 0.0
H114 H 0.17433 0.11813 0.79824 0.0
H115 H 0.23372 0.13181 0.87953 0.0
O116 O 0.19162 0.10661 0.71211 0.0
C117 C 0.18503 0.07221 0.86516 0.0
O118 O 0.20633 0.0839 0.87924 0.0
N119 N 0.23731 0.12156 0.75061 0.0
C120 C 0.28402 0.14778 0.728 0.0
C121 C 0.2679 0.14392 0.68629 0.0
C122 C 0.2447 0.1305 0.69809 0.0
C123 C 0.25275 0.12402 0.78996 0.0
C124 C 0.27583 0.13751 0.78053 0.0
H125 H 0.23298 0.12667 0.66413 0.0
H126 H 0.24714 0.11472 0.82891 0.0
H127 H 0.20506 0.08571 0.65215 0.0
H128 H 0.2258 0.04203 0.71686 0.0
H129 H 0.18183 0.14665 0.88144 0.0
H130 H 0.27306 0.15046 0.64415 0.0
H131 H 0.28705 0.13953 0.81464 0.0
C132 C 0.97423 0.15994 0.78419 0.0
C133 C 0.99389 0.17738 0.76341 0.0
N134 N 1.00503 0.16855 0.73719 0.0
N135 N 0.97271 0.14021 0.76991 0.0
C136 C 0.99213 0.146 0.74334 0.0
H137 H 0.96166 0.16158 0.80756 0.0
Co138 Co 0.94897 0.11271 0.79095 0.0
C139 C 0.95612 0.0991 0.66734 0.0
O140 O 0.96791 0.11978 0.64797 0.0
N141 N 0.92476 0.08577 0.8145 0.0
C142 C 0.88978 0.05668 0.81518 0.0
C143 C 0.90863 0.06924 0.78272 0.0
C144 C 0.91545 0.08289 0.86572 0.0
N145 N 0.89407 0.06576 0.86682 0.0
O146 O 0.97078 0.10669 0.83313 0.0
H147 H 0.90932 0.06798 0.73766 0.0
H148 H 0.92343 0.09448 0.90014 0.0
O149 O 0.9496 0.09604 0.71922 0.0
C150 C 0.97542 0.11649 0.88161 0.0
O151 O 0.96471 0.12708 0.89588 0.0
N152 N 0.92837 0.12079 0.75911 0.0
C153 C 0.90172 0.14029 0.73352 0.0
C154 C 0.91208 0.13445 0.69074 0.0
C155 C 0.92529 0.12468 0.70437 0.0
C156 C 0.91801 0.1259 0.80076 0.0
C157 C 0.90444 0.13514 0.78903 0.0
H158 H 0.9336 0.12123 0.67092 0.0
H159 H 0.92116 0.12382 0.84417 0.0
H160 H 0.99631 0.1339 0.72666 0.0
H161 H 0.99915 0.19511 0.76542 0.0
H162 H 0.87362 0.04333 0.80077 0.0
H163 H 0.9108 0.13817 0.64715 0.0
H164 H 0.89655 0.13862 0.82391 0.0
C165 C 0.90716 0.84211 0.75181 0.0
C166 C 0.89341 0.84139 0.70907 0.0
N167 N 0.90658 0.85464 0.66714 0.0
N168 N 0.92876 0.85584 0.73668 0.0
C169 C 0.92788 0.86357 0.68538 0.0
H170 H 0.90184 0.83205 0.78976 0.0
Co171 Co 0.95272 0.85784 0.77525 0.0
C172 C 0.98668 0.87008 0.67878 0.0
O173 O 0.98658 0.85124 0.68914 0.0
N174 N 0.97631 0.85967 0.81688 0.0
C175 C 1.00815 0.86588 0.85659 0.0
C176 C 0.99872 0.86899 0.80895 0.0
C177 C 0.97286 0.85209 0.87011 0.0
N178 N 0.99167 0.85517 0.89469 0.0
O179 O 0.95685 0.8857 0.81486 0.0
H180 H 1.00808 0.87845 0.77263 0.0
H181 H 0.95667 0.8443 0.89072 0.0
O182 O 0.97472 0.87555 0.71011 0.0
C183 C 0.94426 0.88033 0.85918 0.0
O184 O 0.93073 0.85878 0.86902 0.0
N185 N 0.94552 0.82869 0.74457 0.0
C186 C 0.92693 0.78304 0.71285 0.0
C187 C 0.93078 0.79969 0.67282 0.0
C188 C 0.94007 0.82238 0.68948 0.0
C189 C 0.94089 0.81228 0.78373 0.0
C190 C 0.93235 0.78975 0.76875 0.0
H191 H 0.94236 0.83472 0.65804 0.0
H192 H 0.94238 0.81602 0.82773 0.0
H193 H 0.94253 0.87441 0.66032 0.0
H194 H 0.87532 0.83076 0.70732 0.0
H195 H 1.02582 0.87203 0.86371 0.0
H196 H 0.92647 0.7952 0.62915 0.0
H197 H 0.92883 0.77739 0.80145 0.0
C198 C 0.77336 0.56136 0.59469 0.0
C199 C 0.75422 0.55947 0.61774 0.0
N200 N 0.7429 0.53928 0.64343 0.0
N201 N 0.77438 0.54272 0.60711 0.0
C202 C 0.75511 0.52915 0.63457 0.0
H203 H 0.78621 0.57582 0.57216 0.0
Co204 Co 0.79818 0.53908 0.58681 0.0
C205 C 0.79019 0.51685 0.71014 0.0
O206 O 0.77765 0.52463 0.73037 0.0
N207 N 0.82248 0.53633 0.56468 0.0
C208 C 0.85687 0.54097 0.56719 0.0
C209 C 0.83826 0.53634 0.59852 0.0
C210 C 0.8319 0.54115 0.51324 0.0
N211 N 0.85291 0.54445 0.51396 0.0
O212 O 0.77653 0.51145 0.54305 0.0
H213 H 0.83753 0.53569 0.64382 0.0
H214 H 0.82429 0.54409 0.4769 0.0
O215 O 0.797 0.52131 0.65854 0.0
C216 C 0.77255 0.51715 0.49442 0.0
O217 O 0.7838 0.53867 0.48132 0.0
N218 N 0.81862 0.56762 0.62017 0.0
C219 C 0.84495 0.61353 0.6487 0.0
C220 C 0.83149 0.59734 0.68917 0.0
C221 C 0.81855 0.57442 0.67415 0.0
C222 C 0.83157 0.58329 0.5806 0.0
C223 C 0.84512 0.60607 0.5941 0.0
H224 H 0.80767 0.56258 0.70521 0.0
H225 H 0.83054 0.57838 0.53715 0.0
H226 H 0.75071 0.51267 0.65055 0.0
H227 H 0.74962 0.57241 0.61828 0.0
H228 H 0.87271 0.5435 0.58298 0.0
H229 H 0.83066 0.60241 0.73178 0.0
H230 H 0.85476 0.61796 0.56113 0.0
C231 C 0.50768 0.22631 0.60273 0.0
C232 C 0.50957 0.20915 0.62667 0.0
N233 N 0.52912 0.21835 0.65496 0.0
N234 N 0.52567 0.24621 0.61705 0.0
C235 C 0.5389 0.2408 0.6467 0.0
H236 H 0.49355 0.2245 0.57863 0.0
Co237 Co 0.52843 0.2734 0.59735 0.0
C238 C 0.55135 0.28937 0.71987 0.0
O239 O 0.54431 0.26947 0.74256 0.0
N240 N 0.5304 0.30027 0.57623 0.0
C241 C 0.52323 0.32837 0.5793 0.0
C242 C 0.52732 0.3141 0.61078 0.0
C243 C 0.52831 0.30655 0.52413 0.0
N244 N 0.52351 0.3234 0.52468 0.0
O245 O 0.55596 0.28008 0.55202 0.0
H246 H 0.52571 0.31236 0.65595 0.0
H247 H 0.52879 0.29783 0.48692 0.0
O248 O 0.54624 0.29059 0.66817 0.0
C249 C 0.55013 0.27011 0.50374 0.0
O250 O 0.52859 0.25943 0.49164 0.0
N251 N 0.49993 0.26439 0.63236 0.0
C252 C 0.45419 0.24288 0.6632 0.0
C253 C 0.47059 0.24453 0.7012 0.0
C254 C 0.4934 0.2555 0.68512 0.0
C255 C 0.48409 0.26285 0.59517 0.0
C256 C 0.46137 0.2527 0.61004 0.0
H257 H 0.5054 0.25539 0.71377 0.0
H258 H 0.48882 0.26847 0.55233 0.0
H259 H 0.55485 0.25312 0.66447 0.0
H260 H 0.49697 0.19143 0.6261 0.0
H261 H 0.51877 0.34029 0.59578 0.0
H262 H 0.46575 0.23691 0.74251 0.0
H263 H 0.44932 0.25138 0.57886 0.0
C264 C 0.83727 0.29616 0.61041 0.0
C265 C 0.85431 0.31483 0.63572 0.0
N266 N 0.84535 0.32605 0.66092 0.0
N267 N 0.81757 0.29528 0.62071 0.0
C268 C 0.82315 0.31426 0.64935 0.0
H269 H 0.83906 0.28365 0.587 0.0
Co270 Co 0.79078 0.27227 0.59384 0.0
C271 C 0.77302 0.27722 0.71494 0.0
O272 O 0.79293 0.28965 0.73754 0.0
N273 N 0.76478 0.24901 0.56438 0.0
C274 C 0.73544 0.2147 0.55313 0.0
C275 C 0.74768 0.23144 0.59137 0.0
C276 C 0.76265 0.24269 0.51036 0.0
N277 N 0.74515 0.22175 0.50229 0.0
O278 O 0.78647 0.29525 0.55075 0.0
H279 H 0.74556 0.22987 0.63641 0.0
H280 H 0.77515 0.25232 0.47884 0.0
O281 O 0.7717 0.27126 0.66282 0.0
C282 C 0.79804 0.3009 0.50462 0.0
O283 O 0.80991 0.29116 0.49403 0.0
N284 N 0.79731 0.25063 0.6267 0.0
C285 C 0.8155 0.22333 0.65704 0.0
C286 C 0.81109 0.23547 0.69778 0.0
C287 C 0.8019 0.24894 0.68181 0.0
C288 C 0.80141 0.23878 0.58689 0.0
C289 C 0.81006 0.22484 0.60113 0.0
H290 H 0.79973 0.25882 0.71346 0.0
H291 H 0.79919 0.24109 0.54297 0.0
H292 H 0.81106 0.31886 0.66355 0.0
H293 H 0.87178 0.31929 0.63745 0.0
H294 H 0.72123 0.19826 0.56267 0.0
H295 H 0.81515 0.23494 0.7415 0.0
H296 H 0.81364 0.21629 0.56797 0.0
C297 C 0.89422 0.42282 0.10346 0.0
C298 C 0.89472 0.40834 0.06423 0.0
N299 N 0.88024 0.40575 0.02302 0.0
N300 N 0.87978 0.42943 0.08607 0.0
C301 C 0.87133 0.41853 0.03747 0.0
H302 H 0.90453 0.42907 0.1407 0.0
Co303 Co 0.87616 0.45167 0.1175 0.0
C304 C 0.86176 0.47139 1.02251 0.0
O305 O 0.87746 0.49113 0.04084 0.0
N306 N 0.87216 0.47412 0.14977 0.0
C307 C 0.85439 0.49197 0.17694 0.0
C308 C 0.85183 0.47238 0.15494 0.0
C309 C 0.88681 0.49492 0.16921 0.0
N310 N 0.87646 0.50621 0.18569 0.0
O311 O 0.84879 0.42779 0.15837 0.0
H312 H 0.83609 0.45777 0.14301 0.0
H313 H 0.90471 0.50188 0.17133 0.0
O314 O 0.85876 0.45335 0.04804 0.0
C315 C 0.85403 0.42573 0.20935 0.0
O316 O 0.87447 0.44031 0.22611 0.0
N317 N 0.90499 0.47317 0.08701 0.0
C318 C 0.95128 0.49798 0.05976 0.0
C319 C 0.93467 0.4909 1.01771 0.0
C320 C 0.91165 0.47799 0.03201 0.0
C321 C 0.92096 0.47933 0.12775 0.0
C322 C 0.94392 0.492 0.11543 0.0
H323 H 0.89945 0.47104 0.99861 0.0
H324 H 0.91577 0.47388 0.1706 0.0
H325 H 0.85994 0.42096 1.01107 0.0
H326 H 0.90536 0.40092 0.06494 0.0
H327 H 0.84089 0.49504 0.18779 0.0
H328 H 0.93943 0.49433 0.97385 0.0
H329 H 0.95583 0.49678 0.14958 0.0
C330 C 0.65402 0.49373 0.09534 0.0
C331 C 0.66783 0.50796 0.05377 0.0
N332 N 0.6676 0.49515 1.0107 0.0
N333 N 0.64505 0.47225 0.07772 0.0
C334 C 0.65385 0.47365 0.0264 0.0
H335 H 0.64971 0.4987 0.13442 0.0
Co336 Co 0.62196 0.44761 0.11212 0.0
C337 C 0.59936 0.41298 1.01848 0.0
O338 O 0.58044 0.41103 0.03684 0.0
N339 N 0.5986 0.42251 0.14754 0.0
C340 C 0.57654 0.38695 0.17448 0.0
C341 C 0.59586 0.40159 0.14621 0.0
C342 C 0.58124 0.42029 0.17887 0.0
N343 N 0.56742 0.39884 0.19459 0.0
O344 O 0.64456 0.44221 0.15221 0.0
H345 H 0.60733 0.39728 0.12621 0.0
H346 H 0.57885 0.43396 0.19199 0.0
O347 O 0.61792 0.42696 0.0437 0.0
C348 C 0.64752 0.45047 0.20239 0.0
O349 O 0.63442 0.45827 0.21829 0.0
N350 N 0.60186 0.45689 0.08267 0.0
C351 C 0.5786 0.4803 0.0588 0.0
C352 C 0.58442 0.46996 1.01571 0.0
C353 C 0.59643 0.45876 0.02833 0.0
C354 C 0.59746 0.46792 0.12393 0.0
C355 C 0.58532 0.47884 0.11359 0.0
H356 H 0.60216 0.45258 0.99411 0.0
H357 H 0.6041 0.46887 0.16561 0.0
H358 H 0.64912 0.4594 0.99907 0.0
H359 H 0.67665 0.5262 0.05423 0.0
H360 H 0.57037 0.36925 0.18251 0.0
H361 H 0.58061 0.47131 0.97226 0.0
H362 H 0.58159 0.48636 0.14885 0.0
C363 C 0.57244 0.17092 0.10505 0.0
C364 C 0.55741 0.17039 0.06607 0.0
N365 N 0.56924 0.18531 0.02525 0.0
N366 N 0.59348 0.1858 0.08785 0.0
C367 C 0.59097 0.19453 0.03975 0.0
H368 H 0.56843 0.16017 0.14162 0.0
Co369 Co 0.61945 0.18917 0.1178 0.0
C370 C 0.65225 0.20214 1.01997 0.0
O371 O 0.65525 0.1857 0.03771 0.0
N372 N 0.64606 0.19294 0.14843 0.0
C373 C 0.68258 0.20996 0.16738 0.0
C374 C 0.66552 0.21288 0.14755 0.0
C375 C 0.65167 0.17829 0.17059 0.0
N376 N 0.67377 0.18814 0.18143 0.0
O377 O 0.62394 0.21696 0.15821 0.0
H378 H 0.66724 0.22855 0.13243 0.0
H379 H 0.64014 0.16077 0.17922 0.0
O380 O 0.63819 0.20613 0.04684 0.0
C381 C 0.61659 0.21176 0.20927 0.0
O382 O 0.6102 0.19114 0.22607 0.0
N383 N 0.61123 0.16 0.08795 0.0
C384 C 0.58953 0.11332 0.06256 0.0
C385 C 0.59726 0.12983 1.01963 0.0
C386 C 0.60771 0.153 0.03315 0.0
C387 C 0.60263 0.14418 0.12957 0.0
C388 C 0.59273 0.12116 0.11824 0.0
H389 H 0.61192 0.16508 0.99954 0.0
H390 H 0.60308 0.1495 0.17255 0.0
H391 H 0.60477 0.20618 1.01339 0.0
H392 H 0.53937 0.15928 0.06638 0.0
H393 H 0.69993 0.223 0.17324 0.0
H394 H 0.59447 0.125 0.97585 0.0
H395 H 0.58738 0.1097 0.15362 0.0
C396 C 0.42947 0.87796 0.93177 0.0
C397 C 0.41586 0.88072 0.96965 0.0
N398 N 0.41968 0.87501 1.02089 0.0
N399 N 0.44142 0.8703 0.95932 0.0
C400 C 0.43494 0.86847 1.01325 0.0
H401 H 0.43116 0.88203 0.88746 0.0
Co402 Co 0.46443 0.86726 0.93041 0.0
C403 C 0.48374 0.85376 0.02781 0.0
O404 O 0.50335 0.86981 1.00966 0.0
N405 N 0.48765 0.86392 0.90049 0.0
C406 C 0.50652 0.84699 0.87495 0.0
C407 C 0.48659 0.84382 0.89605 0.0
C408 C 0.5084 0.87904 0.88164 0.0
N409 N 0.52031 0.86922 0.86605 0.0
O410 O 0.44155 0.83937 0.88918 0.0
H411 H 0.4722 0.82781 0.90767 0.0
H412 H 0.51487 0.89689 0.87918 0.0
O413 O 0.46574 0.85015 1.00132 0.0
C414 C 0.43997 0.8443 0.83751 0.0
O415 O 0.45436 0.86487 0.82063 0.0
N416 N 0.48502 0.89647 0.96097 0.0
C417 C 0.50929 0.94279 0.98791 0.0
C418 C 0.50124 0.92621 0.03032 0.0
C419 C 0.48902 0.90315 1.01606 0.0
C420 C 0.4916 0.91253 0.91992 0.0
C421 C 0.50433 0.93556 0.9321 0.0
H422 H 0.48201 0.89091 0.04956 0.0
H423 H 0.48668 0.90735 0.87689 0.0
H424 H 0.44162 0.86292 0.04674 0.0
H425 H 0.40469 0.88714 0.96065 0.0
H426 H 0.5101 0.83375 0.86472 0.0
H427 H 0.50407 0.93105 0.07416 0.0
H428 H 0.50944 0.94769 0.89811 0.0
C429 C 0.17749 0.55863 0.92929 0.0
C430 C 0.17938 0.54292 0.96074 0.0
N431 N 0.19674 0.55396 0.99612 0.0
N432 N 0.19314 0.57952 0.946 0.0
C433 C 0.20534 0.57604 0.98464 0.0
H434 H 0.16497 0.55488 0.89741 0.0
Co435 Co 0.19518 0.60595 0.91957 0.0
C436 C 0.21324 0.62276 0.04248 0.0
O437 O 0.19842 0.60335 0.06482 0.0
N438 N 0.19629 0.6315 0.89151 0.0
C439 C 0.19347 0.66226 0.88531 0.0
C440 C 0.19967 0.65012 0.91921 0.0
C441 C 0.1878 0.63253 0.84147 0.0
N442 N 0.18578 0.65101 0.83663 0.0
O443 O 0.22259 0.61166 0.87485 0.0
H444 H 0.20475 0.65399 0.96252 0.0
H445 H 0.18253 0.61955 0.80986 0.0
O446 O 0.2138 0.62492 0.98831 0.0
C447 C 0.21687 0.60108 0.82732 0.0
O448 O 0.19534 0.58993 0.81528 0.0
N449 N 0.16661 0.59794 0.95282 0.0
C450 C 0.1206 0.58072 0.97809 0.0
C451 C 0.13765 0.59553 1.01511 0.0
C452 C 0.16055 0.60434 1.00118 0.0
C453 C 0.15029 0.58467 0.91537 0.0
C454 C 0.12746 0.57566 0.92731 0.0
H455 H 0.17306 0.6167 0.02863 0.0
H456 H 0.15508 0.58102 0.87519 0.0
H457 H 0.21956 0.5894 1.00633 0.0
H458 H 0.16816 0.52485 0.95973 0.0
H459 H 0.19383 0.67772 0.89646 0.0
H460 H 0.13338 0.60074 0.05389 0.0
H461 H 0.11529 0.56453 0.89682 0.0
C462 C 0.51312 0.64589 0.97496 0.0
C463 C 0.52586 0.65869 1.0194 0.0
N464 N 0.51181 0.65895 0.05845 0.0
N465 N 0.49126 0.63824 0.9863 0.0
C466 C 0.49102 0.64693 0.03675 0.0
H467 H 0.51921 0.64105 0.93871 0.0
Co468 Co 0.4677 0.61651 0.94558 0.0
C469 C 0.43526 0.59637 0.04809 0.0
O470 O 0.43953 0.5798 0.05044 0.0
N471 N 0.44432 0.59509 0.90319 0.0
C472 C 0.4141 0.56534 0.86834 0.0
C473 C 0.42451 0.57666 0.91671 0.0
C474 C 0.44547 0.59467 0.8469 0.0
N475 N 0.42748 0.57677 0.82474 0.0
O476 O 0.46427 0.64095 0.90661 0.0
H477 H 0.418 0.57129 0.95849 0.0
H478 H 0.45982 0.60662 0.82267 0.0
O479 O 0.44475 0.61162 1.00925 0.0
C480 C 0.47822 0.64979 0.86502 0.0
O481 O 0.4926 0.6428 0.85676 0.0
N482 N 0.47462 0.59383 0.97417 0.0
C483 C 0.49477 0.5671 0.99651 0.0
C484 C 0.49368 0.58122 0.0379 0.0
C485 C 0.48371 0.59441 0.02593 0.0
C486 C 0.4756 0.5801 0.93389 0.0
C487 C 0.48483 0.56635 0.94451 0.0
H488 H 0.48397 0.60559 0.05817 0.0
H489 H 0.47043 0.5804 0.89146 0.0
H490 H 0.47587 0.64335 0.05893 0.0
H491 H 0.54379 0.66575 0.02443 0.0
H492 H 0.39793 0.55004 0.86547 0.0
H493 H 0.50129 0.58292 0.07868 0.0
H494 H 0.48466 0.55567 0.91089 0.0
C495 C 0.57582 0.76925 0.46166 0.0
C496 C 0.57279 0.74907 0.44265 0.0
N497 N 0.55261 0.73792 0.41724 0.0
N498 N 0.55783 0.77103 0.44751 0.0
C499 C 0.5436 0.75136 0.42265 0.0
H500 H 0.59035 0.78197 0.48392 0.0
Co501 Co 0.55481 0.79524 0.46701 0.0
C502 C 0.53189 0.78636 0.34515 0.0
O503 O 0.53994 0.77394 0.32566 0.0
N504 N 0.55273 0.82 0.48861 0.0
C505 C 0.55742 0.85452 0.48553 0.0
C506 C 0.55212 0.83555 0.45481 0.0
C507 C 0.5586 0.82992 0.5393 0.0
N508 N 0.56193 0.851 0.53823 0.0
O509 O 0.52766 0.77404 0.51321 0.0
H510 H 0.55035 0.83432 0.40971 0.0
H511 H 0.56199 0.82248 0.57534 0.0
O512 O 0.5364 0.7936 0.39635 0.0
C513 C 0.53372 0.77029 0.56163 0.0
O514 O 0.55525 0.78167 0.57363 0.0
N515 N 0.58299 0.81521 0.43158 0.0
C516 C 0.6288 0.84112 0.40086 0.0
C517 C 0.61198 0.82924 0.36033 0.0
C518 C 0.5892 0.81641 0.37651 0.0
C519 C 0.59905 0.82697 0.47103 0.0
C520 C 0.62172 0.84022 0.45666 0.0
H521 H 0.57697 0.80678 0.34499 0.0
H522 H 0.59441 0.82528 0.5149 0.0
H523 H 0.52724 0.74733 0.40723 0.0
H524 H 0.58488 0.74344 0.44584 0.0
H525 H 0.55943 0.87022 0.4696 0.0
H526 H 0.61635 0.82902 0.31673 0.0
H527 H 0.63362 0.8493 0.48979 0.0
C528 C 0.31535 0.81999 0.44972 0.0
C529 C 0.33102 0.83747 0.41739 0.0
N530 N 0.33657 0.82852 0.37438 0.0
N531 N 0.31093 0.80029 0.42633 0.0
C532 C 0.32427 0.80599 0.38079 0.0
H533 H 0.30715 0.82147 0.48693 0.0
Co534 Co 0.28909 0.77271 0.45175 0.0
C535 C 0.27164 0.74135 0.35147 0.0
O536 O 0.25171 0.73669 0.3694 0.0
N537 N 0.26702 0.7446 0.47878 0.0
C538 C 0.25055 0.70832 0.50122 0.0
C539 C 0.27 0.72666 0.48242 0.0
C540 C 0.24556 0.73666 0.49549 0.0
N541 N 0.23508 0.71461 0.50931 0.0
O542 O 0.31309 0.76947 0.49199 0.0
H543 H 0.28538 0.72687 0.47174 0.0
H544 H 0.23756 0.74664 0.49725 0.0
O545 O 0.28935 0.75616 0.37858 0.0
C546 C 0.3144 0.77621 0.54333 0.0
O547 O 0.29916 0.78117 0.55974 0.0
N548 N 0.26741 0.7797 0.42242 0.0
C549 C 0.24388 0.80254 0.39753 0.0
C550 C 0.25269 0.79515 0.35439 0.0
C551 C 0.26488 0.78426 0.36773 0.0
C552 C 0.25934 0.78721 0.46446 0.0
C553 C 0.2472 0.79807 0.45314 0.0
H554 H 0.27337 0.78087 0.33426 0.0
H555 H 0.26316 0.78554 0.50768 0.0
H556 H 0.32433 0.79395 0.35155 0.0
H557 H 0.33763 0.85529 0.42439 0.0
H558 H 0.24841 0.6919 0.51021 0.0
H559 H 0.25132 0.79888 0.31084 0.0
H560 H 0.24095 0.80343 0.48812 0.0
C561 C 0.23591 0.50291 0.44366 0.0
C562 C 0.21951 0.50448 0.41438 0.0
N563 N 0.22975 0.521 0.37589 0.0
N564 N 0.25615 0.51796 0.42221 0.0
C565 C 0.25191 0.52909 0.38216 0.0
H566 H 0.23325 0.49049 0.47536 0.0
Co567 Co 0.28309 0.51985 0.43793 0.0
C568 C 0.30277 0.53376 0.31582 0.0
O569 O 0.29176 0.51291 0.29808 0.0
N570 N 0.3108 0.52229 0.45227 0.0
C571 C 0.34249 0.52189 0.43628 0.0
C572 C 0.32149 0.5154 0.41649 0.0
C573 C 0.32586 0.53326 0.49315 0.0
N574 N 0.34521 0.53325 0.48413 0.0
O575 O 0.29074 0.54769 0.48292 0.0
H576 H 0.31461 0.5064 0.37772 0.0
H577 H 0.32286 0.54124 0.52861 0.0
O578 O 0.29925 0.53834 0.36637 0.0
C579 C 0.28262 0.54218 0.53328 0.0
O580 O 0.27441 0.52102 0.54825 0.0
N581 N 0.27207 0.49016 0.40484 0.0
C582 C 0.24917 0.44329 0.38282 0.0
C583 C 0.24562 0.45812 0.34943 0.0
C584 C 0.25704 0.48137 0.36133 0.0
C585 C 0.2748 0.47559 0.43892 0.0
C586 C 0.26423 0.45246 0.42765 0.0
H587 H 0.25294 0.49207 0.33682 0.0
H588 H 0.28454 0.48164 0.47704 0.0
H589 H 0.26461 0.54139 0.35433 0.0
H590 H 0.20153 0.49341 0.41835 0.0
H591 H 0.35497 0.51896 0.41652 0.0
H592 H 0.23371 0.45174 0.31509 0.0
H593 H 0.26686 0.44163 0.45597 0.0
H594 H 0.21656 0.12528 0.98434 0.0
H595 H 0.22305 0.18718 0.92152 0.0
H596 H 0.21878 0.13851 0.08115 0.0
H597 H 0.22594 0.20081 1.01743 0.0
H598 H 0.22305 0.22213 0.17739 0.0
H599 H 0.24337 0.20922 0.11854 0.0
H600 H 0.18465 0.14273 0.1138 0.0
H601 H 0.1642 0.15569 0.17093 0.0
C602 C 0.21954 0.14215 0.99154 0.0
C603 C 0.21939 0.15529 0.94648 0.0
C604 C 0.22092 0.14971 0.04656 0.0
C605 C 0.22255 0.17062 0.05657 0.0
C606 C 0.22502 0.18474 1.0109 0.0
C607 C 0.22311 0.17695 0.95616 0.0
C608 C 0.21471 0.20459 0.16503 0.0
C609 C 0.19172 0.19018 0.17606 0.0
C610 C 0.22648 0.19716 0.13228 0.0
C611 C 0.21536 0.17521 0.11069 0.0
C612 C 0.1936 0.15979 0.12988 0.0
C613 C 0.18177 0.16728 0.16225 0.0
H614 H 0.86254 1.02435 0.8999 0.0
H615 H 0.89012 0.095 0.93496 0.0
H616 H 0.84409 1.01487 0.99072 0.0
H617 H 0.87117 0.08574 0.02605 0.0
H618 H 0.89437 0.05781 0.17885 0.0
H619 H 0.88653 0.07456 0.09964 0.0
H620 H 0.82352 1.01294 0.07327 0.0
H621 H 0.83185 0.99569 0.1508 0.0
C622 C 0.86384 0.03778 0.92639 0.0
C623 C 0.87851 0.06031 0.91221 0.0
C624 C 0.85306 0.03244 0.9784 0.0
C625 C 0.85684 0.04966 1.01679 0.0
C626 C 0.86854 0.07215 0.99824 0.0
C627 C 0.87956 0.07745 0.9465 0.0
C628 C 0.87864 0.04787 0.15697 0.0
C629 C 0.86488 1.02474 0.16801 0.0
C630 C 0.87382 0.05769 0.11192 0.0
C631 C 0.85504 0.0445 0.07773 0.0
C632 C 0.83872 1.02312 0.09717 0.0
C633 C 0.84369 1.01317 0.14176 0.0
H634 H 0.04196 0.9007 0.19457 0.0
H635 H 0.04141 0.83778 0.20873 0.0
H636 H 1.01383 0.88481 0.12054 0.0
H637 H 1.01337 0.82176 0.13372 0.0
H638 H 1.01993 0.84223 0.93484 0.0
H639 H 1.02754 0.83942 0.03371 0.0
H640 H 0.9754 0.85365 0.08199 0.0
H641 H 0.96796 0.85667 0.98323 0.0
C642 C 1.03516 0.88321 0.18285 0.0
C643 C 0.04394 0.87051 0.2058 0.0
C644 C 1.01891 0.87401 0.14121 0.0
C645 C 1.01168 0.85214 0.12146 0.0
C646 C 1.01876 0.83864 0.14858 0.0
C647 C 1.03475 0.84777 0.19108 0.0
C648 C 1.00984 0.84426 0.9667 0.0
C649 C 0.99376 0.85011 0.95182 0.0
C650 C 1.01383 0.84222 0.02306 0.0
C651 C 1.00196 0.8463 0.06506 0.0
C652 C 0.98459 0.85029 0.05011 0.0
C653 C 0.98046 0.85212 0.99374 0.0
H654 H 0.92542 0.93934 0.17324 0.0
H655 H 0.89414 0.95614 0.0398 0.0
H656 H 0.94214 0.92573 0.10318 0.0
H657 H 0.91028 0.94238 0.97042 0.0
H658 H 0.94779 0.92274 0.84558 0.0
H659 H 0.94036 0.94412 0.91717 0.0
H660 H 0.9317 0.8948 0.0424 0.0
H661 H 0.93936 0.87403 0.97182 0.0
C662 C 0.92251 0.94068 0.12906 0.0
C663 C 0.90839 0.94904 0.11278 0.0
C664 C 0.93187 0.93253 0.08848 0.0
C665 C 0.92759 0.93259 0.0301 0.0
C666 C 0.91438 0.94207 1.01418 0.0
C667 C 0.90496 0.94997 0.05451 0.0
C668 C 0.94491 0.91683 0.88867 0.0
C669 C 0.94431 0.89657 0.9024 0.0
C670 C 0.9403 0.92895 0.92999 0.0
C671 C 0.93516 0.92135 0.98657 0.0
C672 C 0.93573 0.90166 1.00024 0.0
C673 C 0.94008 0.88956 0.95918 0.0
H674 H 0.18727 0.07652 0.97845 0.0
H675 H 0.14843 1.02836 0.85031 0.0
H676 H 0.16939 0.0478 0.05048 0.0
H677 H 0.12977 0.99921 0.92322 0.0
H678 H 0.12587 0.94733 0.05573 0.0
H679 H 0.13592 0.97579 0.98342 0.0
H680 H 0.13993 1.02299 0.10905 0.0
H681 H 0.13031 0.99421 0.18231 0.0
C682 C 0.17437 0.05982 0.96558 0.0
C683 C 0.16936 0.05505 0.9079 0.0
C684 C 0.16394 0.04315 1.00748 0.0
C685 C 0.148 1.02068 0.99394 0.0
C686 C 0.14214 1.01607 0.93622 0.0
C687 C 0.1526 0.03295 0.89398 0.0
C688 C 0.1285 0.96366 0.06825 0.0
C689 C 0.12715 0.96818 0.12566 0.0
C690 C 0.13424 0.98016 0.02612 0.0
C691 C 0.13907 1.00219 0.03913 0.0
C692 C 0.13678 1.0065 0.09648 0.0
C693 C 0.13089 0.98981 0.1389 0.0
H694 H 1.01733 0.12008 0.86174 0.0
H695 H 0.97385 0.11744 0.99553 0.0
H696 H 0.0475 0.12969 0.93058 0.0
H697 H 1.0036 0.12718 0.06359 0.0
H698 H 0.05807 0.13808 0.1878 0.0
H699 H 1.02777 0.11944 0.1183 0.0
H700 H 0.07343 0.16047 0.98697 0.0
H701 H 0.10335 0.17857 0.05582 0.0
C702 C 1.01394 0.12094 0.90586 0.0
C703 C 0.99288 0.11775 0.92257 0.0
C704 C 1.03142 0.12681 0.94565 0.0
C705 C 1.02841 0.12948 1.00365 0.0
C706 C 1.00692 0.12515 1.02015 0.0
C707 C 0.98969 0.11957 0.9806 0.0
C708 C 0.06181 0.14257 0.14387 0.0
C709 C 0.08344 0.15979 0.1279 0.0
C710 C 0.04426 0.13212 0.10371 0.0
C711 C 0.04772 0.13838 0.04604 0.0
C712 C 0.06973 0.15475 0.03014 0.0
C713 C 0.08708 0.16527 0.07011 0.0
H714 H 0.85961 0.57651 0.43812 0.0
H715 H 0.88208 0.53078 0.48858 0.0
H716 H 0.88028 0.58387 0.3498 0.0
H717 H 0.90178 0.53697 0.40024 0.0
H718 H 0.91604 0.52658 0.24352 0.0
H719 H 0.92427 0.55252 0.32069 0.0
H720 H 0.86661 0.55852 0.27593 0.0
H721 H 0.8595 0.53405 0.19677 0.0
C722 C 0.86929 0.56831 0.43035 0.0
C723 C 0.86861 0.55235 0.46842 0.0
C724 C 0.88126 0.57262 0.38015 0.0
C725 C 0.892 0.56038 0.36664 0.0
C726 C 0.8937 0.54674 0.4085 0.0
C727 C 0.88214 0.54284 0.45909 0.0
C728 C 0.90571 0.53421 0.24846 0.0
C729 C 0.8861 0.52703 0.21647 0.0
C730 C 0.91044 0.54911 0.29301 0.0
C731 C 0.89523 0.55635 0.30698 0.0
C732 C 0.8784 0.55278 0.26796 0.0
C733 C 0.87395 0.53827 0.22287 0.0
H734 H 0.52657 0.3616 0.18954 0.0
H735 H 0.56946 0.41882 0.29258 0.0
H736 H 0.50207 0.34315 0.27024 0.0
H737 H 0.54658 0.40018 0.37385 0.0
H738 H 0.52167 0.36216 0.52152 0.0
H739 H 0.51869 0.38084 0.43832 0.0
H740 H 0.51121 0.32518 0.33677 0.0
H741 H 0.51193 0.30579 0.41959 0.0
C742 C 0.53032 0.37037 0.22937 0.0
C743 C 0.55005 0.39116 0.23591 0.0
C744 C 0.51647 0.35987 0.2756 0.0
C745 C 0.52293 0.36959 0.32935 0.0
C746 C 0.54097 0.39189 0.33363 0.0
C747 C 0.55433 0.40264 0.28703 0.0
C748 C 0.51869 0.35357 0.48169 0.0
C749 C 0.51823 0.3329 0.47718 0.0
C750 C 0.51705 0.36438 0.43375 0.0
C751 C 0.51564 0.35507 0.38028 0.0
C752 C 0.51248 0.33319 0.37679 0.0
C753 C 0.51357 0.3222 0.42468 0.0
H754 H 0.75688 0.23885 0.3975 0.0
H755 H 0.72109 0.17607 0.48943 0.0
H756 H 0.74414 0.21895 0.31065 0.0
H757 H 0.70768 0.15578 0.40079 0.0
H758 H 0.65683 0.1596 0.26914 0.0
H759 H 0.67948 0.15711 0.34314 0.0
H760 H 0.73859 0.19222 0.23826 0.0
H761 H 0.71572 0.19558 0.16477 0.0
C762 C 0.74681 0.22067 0.3993 0.0
C763 C 0.73956 0.2092 0.45071 0.0
C764 C 0.73963 0.20907 0.34897 0.0
C765 C 0.72471 0.18566 0.34857 0.0
C766 C 0.719 0.17384 0.39981 0.0
C767 C 0.72638 0.18553 0.45055 0.0
C768 C 0.67447 0.16583 0.26086 0.0
C769 C 0.68487 0.1788 0.21283 0.0
C770 C 0.68752 0.16421 0.30321 0.0
C771 C 0.71104 0.17562 0.29756 0.0
C772 C 0.72058 0.1841 0.24445 0.0
C773 C 0.70759 0.18618 0.2026 0.0
H774 H 0.60661 0.24628 0.19025 0.0
H775 H 0.61765 0.21041 0.32348 0.0
H776 H 0.59464 0.26453 0.26025 0.0
H777 H 0.60549 0.22805 0.39266 0.0
H778 H 0.58973 0.26825 0.51849 0.0
H779 H 0.60951 0.25858 0.44736 0.0
H780 H 0.56423 0.25712 0.32003 0.0
H781 H 0.54506 0.26704 0.39024 0.0
C782 C 0.60702 0.24263 0.23438 0.0
C783 C 0.61331 0.2268 0.25052 0.0
C784 C 0.59979 0.25289 0.27495 0.0
C785 C 0.59874 0.24787 0.33326 0.0
C786 C 0.60611 0.23283 0.34905 0.0
C787 C 0.61309 0.22253 0.30876 0.0
C788 C 0.58441 0.26648 0.47508 0.0
C789 C 0.56572 0.26865 0.46074 0.0
C790 C 0.59558 0.26055 0.43395 0.0
C791 C 0.58861 0.25674 0.37683 0.0
C792 C 0.57058 0.26002 0.3626 0.0
C793 C 0.5594 0.2657 0.40348 0.0
H794 H 0.82074 0.38069 0.19034 0.0
H795 H 0.85465 0.42831 0.32348 0.0
H796 H 0.80297 0.35026 0.26051 0.0
H797 H 0.83743 0.39833 0.39291 0.0
H798 H 0.79767 0.34145 0.51834 0.0
H799 H 0.80671 0.37083 0.44683 0.0
H800 H 0.81177 0.32832 0.32109 0.0
H801 H 0.80256 0.29935 0.39165 0.0
C802 C 0.82403 0.38484 0.23448 0.0
C803 C 0.83918 0.40722 0.25059 0.0
C804 C 0.81405 0.36726 0.27514 0.0
C805 C 0.81869 0.37141 0.33347 0.0
C806 C 0.83299 0.39403 0.34924 0.0
C807 C 0.84304 0.41142 0.30885 0.0
C808 C 0.80013 0.33817 0.47518 0.0
C809 C 0.79921 0.31776 0.46135 0.0
C810 C 0.80566 0.35522 0.43387 0.0
C811 C 0.81026 0.35239 0.37712 0.0
C812 C 0.80822 0.33148 0.36337 0.0
C813 C 0.80297 0.3147 0.40444 0.0
H814 H 0.69157 0.45945 0.18319 0.0
H815 H 0.64502 0.44946 0.31644 0.0
H816 H 0.72183 0.47138 0.25293 0.0
H817 H 0.67484 0.46157 0.3854 0.0
H818 H 0.73087 0.47763 0.51079 0.0
H819 H 0.7012 0.45749 0.44039 0.0
H820 H 0.74511 0.50225 0.31128 0.0
H821 H 0.77439 0.52177 0.38077 0.0
C822 C 0.68759 0.45921 0.22731 0.0
C823 C 0.66558 0.45325 0.24357 0.0
C824 C 0.70509 0.46643 0.2677 0.0
C825 C 0.70123 0.4678 0.32589 0.0
C826 C 0.67891 0.46069 0.34186 0.0
C827 C 0.66161 0.45373 0.30174 0.0
C828 C 0.73437 0.48276 0.46717 0.0
C829 C 0.7553 0.50141 0.45208 0.0
C830 C 0.71717 0.47138 0.42646 0.0
C831 C 0.72031 0.4781 0.36906 0.0
C832 C 0.74168 0.49609 0.35412 0.0
C833 C 0.75864 0.50748 0.39458 0.0
H834 H 0.54821 0.88018 0.56419 0.0
H835 H 0.59401 0.85775 0.61347 0.0
H836 H 0.55349 0.89876 0.65371 0.0
H837 H 0.60035 0.87726 0.70317 0.0
H838 H 0.54847 0.8527 0.85287 0.0
H839 H 0.57383 0.86156 0.77478 0.0
H840 H 0.56774 0.91984 0.73588 0.0
H841 H 0.54099 0.90995 0.81179 0.0
C842 C 0.56015 0.88008 0.59361 0.0
C843 C 0.56987 0.86677 0.58358 0.0
C844 C 0.56349 0.89098 0.64497 0.0
C845 C 0.57673 0.88878 0.68692 0.0
C846 C 0.58936 0.87854 0.67272 0.0
C847 C 0.58565 0.86726 0.62169 0.0
C848 C 0.55278 0.86761 0.82828 0.0
C849 C 0.54132 0.8795 0.83587 0.0
C850 C 0.56783 0.87308 0.78386 0.0
C851 C 0.57176 0.89069 0.74672 0.0
C852 C 0.56412 0.90547 0.76206 0.0
C853 C 0.54871 0.89974 0.8059 0.0
H854 H 0.19813 0.69363 0.80681 0.0
H855 H 0.15674 0.62424 0.75601 0.0
H856 H 0.19503 0.70597 0.71436 0.0
H857 H 0.15341 0.63662 0.66222 0.0
H858 H 0.21098 0.66915 0.52386 0.0
H859 H 0.18402 0.65034 0.59807 0.0
H860 H 0.18089 0.71082 0.62787 0.0
H861 H 0.20904 0.73017 0.55612 0.0
C862 C 0.1876 0.68099 0.77647 0.0
C863 C 0.17859 0.65798 0.78781 0.0
C864 C 0.18559 0.68806 0.72312 0.0
C865 C 0.17456 0.67223 0.68004 0.0
C866 C 0.16261 0.64921 0.69402 0.0
C867 C 0.16472 0.64213 0.74751 0.0
C868 C 0.20438 0.67843 0.54557 0.0
C869 C 0.21359 0.70168 0.53687 0.0
C870 C 0.1884 0.66743 0.58755 0.0
C871 C 0.1812 0.6795 0.62102 0.0
C872 C 0.1869 0.70138 0.60434 0.0
C873 C 0.2032 0.71251 0.56299 0.0
H874 H 0.37227 0.51631 0.50487 0.0
H875 H 0.36175 0.5719 0.54184 0.0
H876 H 0.40145 0.52947 0.57693 0.0
H877 H 0.39057 0.58492 0.61401 0.0
H878 H 0.44213 0.60656 0.73897 0.0
H879 H 0.43078 0.59839 0.64111 0.0
H880 H 0.39179 0.52738 0.68084 0.0
H881 H 0.40372 0.5355 0.77846 0.0
C882 C 0.37669 0.53169 0.52739 0.0
C883 C 0.36459 0.54291 0.51921 0.0
C884 C 0.39331 0.53917 0.56833 0.0
C885 C 0.39807 0.55806 0.6009 0.0
C886 C 0.38734 0.57041 0.58903 0.0
C887 C 0.37062 0.5628 0.54856 0.0
C888 C 0.43177 0.58915 0.72643 0.0
C889 C 0.42335 0.57164 0.76628 0.0
C890 C 0.42532 0.58452 0.67052 0.0
C891 C 0.41036 0.56234 0.65387 0.0
C892 C 0.40353 0.54464 0.69267 0.0
C893 C 0.40995 0.54928 0.74864 0.0
H894 H 0.25608 0.59862 0.84324 0.0
H895 H 0.21246 0.59861 0.71373 0.0
H896 H 0.27592 0.58878 0.77256 0.0
H897 H 0.23175 0.58864 0.64391 0.0
H898 H 0.27441 0.57784 0.51525 0.0
H899 H 0.26269 0.59624 0.58544 0.0
H900 H 0.27138 0.55798 0.71703 0.0
H901 H 0.28322 0.54011 0.64752 0.0
C902 C 0.25104 0.59712 0.79964 0.0
C903 C 0.23263 0.59968 0.78478 0.0
C904 C 0.26224 0.5911 0.75878 0.0
C905 C 0.2556 0.58762 0.70142 0.0
C906 C 0.23785 0.59128 0.6867 0.0
C907 C 0.22661 0.59701 0.72733 0.0
C908 C 0.27446 0.57386 0.55928 0.0
C909 C 0.28005 0.55748 0.57509 0.0
C910 C 0.26736 0.5842 0.59993 0.0
C911 C 0.26573 0.57869 0.65802 0.0
C912 C 0.27245 0.56313 0.67358 0.0
C913 C 0.27928 0.55272 0.63316 0.0
H914 H 0.4975 0.72639 0.54711 0.0
H915 H 0.53658 0.77438 0.67529 0.0
H916 H 0.47942 0.69696 0.61967 0.0
H917 H 0.51897 0.74537 0.74717 0.0
H918 H 0.4795 0.69106 0.87796 0.0
H919 H 0.48829 0.7198 0.80486 0.0
H920 H 0.48773 0.67417 0.67942 0.0
H921 H 0.47892 0.64586 0.75188 0.0
C922 C 0.50179 0.7309 0.59078 0.0
C923 C 0.51844 0.75305 0.6048 0.0
C924 C 0.49165 0.71386 0.63275 0.0
C925 C 0.49762 0.71837 0.69038 0.0
C926 C 0.51345 0.74086 0.70416 0.0
C927 C 0.52369 0.75768 0.66241 0.0
C928 C 0.48051 0.68692 0.83455 0.0
C929 C 0.47807 0.6658 0.82126 0.0
C930 C 0.48595 0.70361 0.7923 0.0
C931 C 0.489 0.69974 0.73514 0.0
C932 C 0.48538 0.67813 0.72201 0.0
C933 C 0.48025 0.6617 0.76405 0.0
H934 H 0.39689 0.80656 0.85492 0.0
H935 H 0.44198 0.84781 0.72335 0.0
H936 H 0.36726 0.78661 0.78447 0.0
H937 H 0.41271 0.82866 0.65397 0.0
H938 H 0.35889 0.78585 0.52605 0.0
H939 H 0.38892 0.79833 0.59656 0.0
H940 H 0.34163 0.79001 0.72687 0.0
H941 H 0.31203 0.77717 0.65741 0.0
C942 C 0.4007 0.81119 0.81108 0.0
C943 C 0.42212 0.82897 0.79562 0.0
C944 C 0.38351 0.7999 0.77025 0.0
C945 C 0.3871 0.80588 0.71233 0.0
C946 C 0.40887 0.82305 0.69717 0.0
C947 C 0.42585 0.83428 0.73769 0.0
C948 C 0.35481 0.78616 0.56988 0.0
C949 C 0.33275 0.78034 0.58527 0.0
C950 C 0.37219 0.79368 0.61074 0.0
C951 C 0.36818 0.79557 0.66861 0.0
C952 C 0.34584 0.78875 0.68371 0.0
C953 C 0.32866 0.7814 0.64316 0.0
H954 H 0.20369 0.41594 0.37027 0.0
H955 H 0.26519 0.41391 0.37748 0.0
H956 H 0.1822 0.37504 0.36339 0.0
H957 H 0.24403 0.37305 0.367 0.0
H958 H 0.20067 0.29757 0.39031 0.0
H959 H 0.22113 0.33814 0.40492 0.0
H960 H 0.17041 0.34373 0.31104 0.0
H961 H 0.14907 0.30334 0.30157 0.0
C962 C 0.21266 0.40673 0.36919 0.0
C963 C 0.23619 0.41827 0.37414 0.0
C964 C 0.20032 0.38311 0.36502 0.0
C965 C 0.21112 0.3702 0.36437 0.0
C966 C 0.23479 0.38196 0.36852 0.0
C967 C 0.24707 0.40555 0.37393 0.0
C968 C 0.19359 0.30735 0.3738 0.0
C969 C 0.17315 0.29675 0.34403 0.0
C970 C 0.20564 0.33091 0.38129 0.0
C971 C 0.19783 0.34479 0.35869 0.0
C972 C 0.17717 0.33405 0.32991 0.0
C973 C 0.16497 0.31057 0.32339 0.0
H974 H 0.76128 0.89312 0.24472 0.0
H975 H 0.77576 0.92792 0.40398 0.0
H976 H 0.72134 0.87427 0.26577 0.0
H977 H 0.73562 0.90805 0.42579 0.0
H978 H 0.66452 0.84718 0.46649 0.0
H979 H 0.70441 0.86797 0.44489 0.0
H980 H 0.68997 0.8832 0.27965 0.0
H981 H 0.64983 0.86321 0.30184 0.0
C982 C 0.75611 0.89707 0.284 0.0
C983 C 0.77217 0.91249 0.3222 0.0
C984 C 0.73304 0.88605 0.29614 0.0
C985 C 0.72516 0.88967 0.34734 0.0
C986 C 0.74108 0.90474 0.38604 0.0
C987 C 0.7642 0.91608 0.37355 0.0
C988 C 0.66963 0.85531 0.42585 0.0
C989 C 0.65353 0.85357 0.38635 0.0
C990 C 0.69268 0.86719 0.41341 0.0
C991 C 0.7005 0.8774 0.36066 0.0
C992 C 0.68454 0.87543 0.32065 0.0
C993 C 0.66143 0.86382 0.33339 0.0
H994 H 0.24787 0.83904 0.45534 0.0
H995 H 0.21414 0.79679 0.31248 0.0
H996 H 0.22824 0.85974 0.43985 0.0
H997 H 0.19499 0.81815 0.29566 0.0
H998 H 0.14606 0.84479 0.31921 0.0
H999 H 0.16597 0.82424 0.33381 0.0
H1000 H 0.2257 0.88627 0.37943 0.0
H1001 H 0.20578 0.90687 0.36466 0.0
C1002 C 0.23622 0.83408 0.42056 0.0
C1003 C 0.23248 0.81593 0.38562 0.0
C1004 C 0.22512 0.84623 0.41121 0.0
C1005 C 0.20986 0.84071 0.36654 0.0
C1006 C 0.20634 0.82277 0.33101 0.0
C1007 C 0.21754 0.81063 0.34027 0.0
C1008 C 0.16349 0.85415 0.33203 0.0
C1009 C 0.1742 0.87763 0.34058 0.0
C1010 C 0.17498 0.84229 0.3403 0.0
C1011 C 0.19759 0.85347 0.35758 0.0
C1012 C 0.20825 0.87692 0.36682 0.0
C1013 C 0.19675 0.8888 0.35847 0.0
H1014 H 0.42264 0.25588 0.65234 0.0
H1015 H 0.42995 0.19951 0.70186 0.0
H1016 H 0.3822 0.23351 0.66824 0.0
H1017 H 0.38947 0.17646 0.71424 0.0
H1018 H 0.3182 0.14321 0.77584 0.0
H1019 H 0.3582 0.1667 0.76453 0.0
H1020 H 0.34774 0.20599 0.63867 0.0
H1021 H 0.30745 0.18379 0.65464 0.0
C1022 C 0.41553 0.23862 0.66657 0.0
C1023 C 0.42958 0.22958 0.67643 0.0
C1024 C 0.39218 0.22558 0.6751 0.0
C1025 C 0.382 0.20284 0.69249 0.0
C1026 C 0.39628 0.19391 0.70222 0.0
C1027 C 0.41967 0.20714 0.69493 0.0
C1028 C 0.32421 0.15715 0.74664 0.0
C1029 C 0.30906 0.16158 0.7171 0.0
C1030 C 0.34752 0.17052 0.7391 0.0
C1031 C 0.3568 0.18857 0.70049 0.0
C1032 C 0.34165 0.19268 0.66977 0.0
C1033 C 0.31826 0.17955 0.67821 0.0
H1034 H 0.87643 0.13753 0.63973 0.0
H1035 H 0.89811 0.17133 0.79978 0.0
H1036 H 0.85616 0.15749 0.62159 0.0
H1037 H 0.87638 0.18954 0.78404 0.0
H1038 H 0.85295 0.23684 0.72209 0.0
H1039 H 0.87389 0.21745 0.73836 0.0
H1040 H 0.82499 0.16079 0.64104 0.0
H1041 H 0.80478 0.18087 0.62276 0.0
C1042 C 0.87688 0.14908 0.67129 0.0
C1043 C 0.88895 0.15243 0.72157 0.0
C1044 C 0.86486 0.16036 0.66125 0.0
C1045 C 0.86431 0.17525 0.70133 0.0
C1046 C 0.87644 0.17858 0.75145 0.0
C1047 C 0.88868 0.16762 0.76107 0.0
C1048 C 0.84655 0.22013 0.7047 0.0
C1049 C 0.82711 0.21043 0.67129 0.0
C1050 C 0.85857 0.20888 0.71409 0.0
C1051 C 0.85134 0.18732 0.69118 0.0
C1052 C 0.83156 0.17747 0.65859 0.0
C1053 C 0.81977 0.18892 0.64846 0.0
H1054 H 0.88714 0.75675 0.6575 0.0
H1055 H 0.94175 0.75379 0.73761 0.0
H1056 H 0.86743 0.71572 0.6437 0.0
H1057 H 0.92234 0.71294 0.7228 0.0
H1058 H 0.88916 0.6438 0.62622 0.0
H1059 H 0.90935 0.68476 0.63954 0.0
H1060 H 0.84952 0.68037 0.71023 0.0
H1061 H 0.82944 0.63928 0.6979 0.0
C1062 C 0.8951 0.74739 0.67125 0.0
C1063 C 0.91607 0.75856 0.69837 0.0
C1064 C 0.88372 0.72387 0.66389 0.0
C1065 C 0.89326 0.711 0.68239 0.0
C1066 C 0.91455 0.72231 0.7079 0.0
C1067 C 0.92567 0.74571 0.71637 0.0
C1068 C 0.88039 0.65156 0.64514 0.0
C1069 C 0.85772 0.63824 0.66135 0.0
C1070 C 0.89195 0.67503 0.65278 0.0
C1071 C 0.88103 0.6859 0.67562 0.0
C1072 C 0.85838 0.67256 0.69207 0.0
C1073 C 0.84694 0.64901 0.68558 0.0
H1074 H 0.09879 0.56601 0.08035 0.0
H1075 H 0.08592 0.57222 0.90567 0.0
H1076 H 0.05855 0.54736 0.09987 0.0
H1077 H 0.04578 0.55265 0.92447 0.0
H1078 H 0.9745 0.53234 0.98288 0.0
H1079 H 1.01496 0.55356 0.96477 0.0
H1080 H 1.02475 0.51291 0.08763 0.0
H1081 H 0.98457 0.4921 0.10609 0.0
C1082 C 0.08747 0.56354 0.04605 0.0
C1083 C 0.0959 0.57057 0.99125 0.0
C1084 C 0.06421 0.55249 0.0571 0.0
C1085 C 0.04853 0.5481 1.01375 0.0
C1086 C 0.05706 0.55571 0.95928 0.0
C1087 C 0.08026 0.56676 0.94829 0.0
C1088 C 0.98527 0.52785 1.00579 0.0
C1089 C 0.97606 0.51054 0.04637 0.0
C1090 C 1.0086 0.54005 0.99539 0.0
C1091 C 1.0235 0.53525 0.02494 0.0
C1092 C 1.01416 0.51767 0.06486 0.0
C1093 C 0.99092 0.5056 0.0754 0.0
H1094 H 0.50119 0.54959 0.09583 0.0
H1095 H 0.51682 0.55503 0.91836 0.0
H1096 H 0.5213 0.52905 0.10962 0.0
H1097 H 0.53568 0.53354 0.93224 0.0
H1098 H 0.54729 0.47338 0.97596 0.0
H1099 H 0.5272 0.49394 0.96074 0.0
H1100 H 0.56166 0.53688 0.10161 0.0
H1101 H 0.58255 0.51742 0.1153 0.0
C1102 C 0.50881 0.54653 0.05963 0.0
C1103 C 0.50694 0.55407 1.00577 0.0
C1104 C 0.5203 0.53457 0.06761 0.0
C1105 C 0.53001 0.52943 1.02197 0.0
C1106 C 0.52809 0.5368 0.96825 0.0
C1107 C 0.51702 0.5491 0.96037 0.0
C1108 C 0.5509 0.48738 1.00336 0.0
C1109 C 0.56653 0.49326 0.04752 0.0
C1110 C 0.53922 0.49912 0.99475 0.0
C1111 C 0.54254 0.51693 0.03044 0.0
C1112 C 0.55826 0.52297 0.07404 0.0
C1113 C 0.5702 0.51157 0.08203 0.0
H1114 H 0.55752 0.07795 0.12717 0.0
H1115 H 0.59326 0.09076 0.96954 0.0
H1116 H 0.54026 0.0381 0.11199 0.0
H1117 H 0.57378 0.05055 0.95109 0.0
H1118 H 0.55008 0.97561 0.94754 0.0
H1119 H 0.56946 1.01603 0.96542 0.0
H1120 H 0.51414 1.00643 0.07143 0.0
H1121 H 0.49592 0.96595 0.05643 0.0
C1122 C 0.56188 0.07247 0.08905 0.0
C1123 C 0.57746 0.08822 0.05034 0.0
C1124 C 0.55134 0.04917 0.07955 0.0
C1125 C 0.55527 0.04041 0.03001 0.0
C1126 C 0.5704 0.05615 0.99047 0.0
C1127 C 0.58141 0.07954 1.00064 0.0
C1128 C 0.54228 0.98223 0.97523 0.0
C1129 C 0.52157 0.9675 1.00105 0.0
C1130 C 0.55327 1.00559 0.98509 0.0
C1131 C 0.54365 1.01516 1.02001 0.0
C1132 C 0.52273 1.00018 0.04546 0.0
C1133 C 0.51205 0.97677 0.03669 0.0
H1134 H 0.1863 0.18034 0.36948 0.0
H1135 H 0.11951 0.15603 0.43459 0.0
H1136 H 0.19493 0.16358 0.44809 0.0
H1137 H 0.1284 0.13899 0.51529 0.0
H1138 H 0.15461 0.09937 0.63734 0.0
H1139 H 0.14041 0.10992 0.55358 0.0
H1140 H 0.20221 0.17376 0.54625 0.0
H1141 H 0.21606 0.1635 0.62751 0.0
C1142 C 0.17324 0.17124 0.40044 0.0
C1143 C 0.15219 0.16992 0.39507 0.0
C1144 C 0.1783 0.16158 0.44618 0.0
C1145 C 0.16264 0.15011 0.48952 0.0
C1146 C 0.14102 0.14762 0.48311 0.0
C1147 C 0.13587 0.15741 0.43661 0.0
C1148 C 0.16519 0.11555 0.61742 0.0
C1149 C 0.18665 0.13044 0.63997 0.0
C1150 C 0.15695 0.12173 0.56953 0.0
C1151 C 0.1701 0.14279 0.54209 0.0
C1152 C 0.19149 0.15732 0.56484 0.0
C1153 C 0.19948 0.15136 0.61232 0.0
H1154 H 0.92676 0.05274 0.68262 0.0
H1155 H 0.96734 0.10118 0.55565 0.0
H1156 H 0.91167 1.023 0.61123 0.0
H1157 H 0.95256 0.07164 0.48495 0.0
H1158 H 0.93178 1.01205 0.36672 0.0
H1159 H 0.95032 0.03807 0.44558 0.0
H1160 H 0.88656 1.01026 0.5314 0.0
H1161 H 0.86837 0.98457 0.45303 0.0
C1162 C 0.93257 0.05718 0.63975 0.0
C1163 C 0.94816 0.07977 0.62565 0.0
C1164 C 0.92385 0.04 0.59837 0.0
C1165 C 0.93065 0.0446 0.54136 0.0
C1166 C 0.94689 0.06703 0.52793 0.0
C1167 C 0.95535 0.08418 0.56897 0.0
C1168 C 0.92191 1.01095 0.40334 0.0
C1169 C 0.89858 0.99571 0.40369 0.0
C1170 C 0.93246 1.0262 0.44844 0.0
C1171 C 0.92009 1.02665 0.49566 0.0
C1172 C 0.89695 1.01055 0.49682 0.0
C1173 C 0.88643 0.99562 0.45161 0.0
H1174 H 0.11299 0.93579 0.50396 0.0
H1175 H 0.06732 0.91854 0.36493 0.0
H1176 H 0.08213 0.92554 0.57005 0.0
H1177 H 1.0361 0.90795 0.43125 0.0
H1178 H 0.98583 0.85831 0.56959 0.0
H1179 H 1.01505 0.8768 0.49807 0.0
H1180 H 0.05309 0.93207 0.6116 0.0
H1181 H 1.02342 0.91342 0.68316 0.0
C1182 C 0.09644 0.93053 0.48733 0.0
C1183 C 0.09293 0.92854 0.42871 0.0
C1184 C 0.07858 0.92452 0.5255 0.0
C1185 C 0.05629 0.9157 0.50673 0.0
C1186 C 0.05288 0.9145 0.44785 0.0
C1187 C 0.07091 0.92096 0.4095 0.0
C1188 C 1.00005 0.87481 0.57866 0.0
C1189 C 1.00187 0.88454 0.63196 0.0
C1190 C 1.01697 0.88547 0.53746 0.0
C1191 C 1.03677 0.90608 0.54834 0.0
C1192 C 1.03827 0.91621 0.60123 0.0
C1193 C 1.02106 0.90567 0.64222 0.0
H1194 H 0.92908 0.85869 0.57086 0.0
H1195 H 0.86824 0.85349 0.63748 0.0
H1196 H 0.91872 0.86411 0.47673 0.0
H1197 H 0.85783 0.85896 0.54313 0.0
H1198 H 0.83957 0.85972 0.36345 0.0
H1199 H 0.84782 0.84359 0.44554 0.0
H1200 H 0.91735 0.89672 0.43766 0.0
H1201 H 0.90912 0.91241 0.3554 0.0
C1202 C 0.91351 0.85877 0.5653 0.0
C1203 C 0.89967 0.85624 0.61143 0.0
C1204 C 0.90751 0.86165 0.51146 0.0
C1205 C 0.88758 0.86208 0.50286 0.0
C1206 C 0.87317 0.85842 0.54857 0.0
C1207 C 0.87917 0.85547 0.60249 0.0
C1208 C 0.85669 0.86749 0.37849 0.0
C1209 C 0.87371 0.88741 0.35389 0.0
C1210 C 0.86136 0.85841 0.42554 0.0
C1211 C 0.88315 0.86904 0.44805 0.0
C1212 C 0.90043 0.88808 0.42094 0.0
C1213 C 0.89572 0.89719 0.3743 0.0
H1214 H 0.1743 1.02041 0.34053 0.0
H1215 H 0.2222 0.99779 0.358 0.0
H1216 H 0.18962 0.04382 0.42409 0.0
H1217 H 0.23759 1.02116 0.44196 0.0
H1218 H 0.21432 1.02322 0.63054 0.0
H1219 H 0.21496 1.0121 0.5339 0.0
H1220 H 0.22356 0.07552 0.47511 0.0
H1221 H 0.22363 0.08706 0.57191 0.0
C1222 C 0.18864 1.02114 0.36134 0.0
C1223 C 0.19698 1.00728 0.34359 0.0
C1224 C 0.19748 0.03456 0.40882 0.0
C1225 C 0.21462 0.03404 0.43957 0.0
C1226 C 0.2243 1.0217 0.41894 0.0
C1227 C 0.21563 1.0085 0.37089 0.0
C1228 C 0.21696 0.03506 0.59725 0.0
C1229 C 0.21837 0.05578 0.60897 0.0
C1230 C 0.21745 1.02874 0.54188 0.0
C1231 C 0.21925 0.04298 0.49726 0.0
C1232 C 0.222 0.06423 0.50893 0.0
C1233 C 0.22172 0.07065 0.56433 0.0
H1234 H 1.03675 0.15804 0.71013 0.0
H1235 H 1.01274 0.20382 0.6715 0.0
H1236 H 0.05931 0.1697 0.62407 0.0
H1237 H 1.03528 0.21546 0.58609 0.0
H1238 H 1.03663 0.18494 0.40769 0.0
H1239 H 1.02483 0.18624 0.50323 0.0
H1240 H 0.09071 0.2042 0.56454 0.0
H1241 H 0.10306 0.20399 0.46893 0.0
C1242 C 1.03689 0.17109 0.6842 0.0
C1243 C 1.02276 0.17974 0.69685 0.0
C1244 C 0.04984 0.17784 0.63533 0.0
C1245 C 0.04862 0.19317 0.59852 0.0
C1246 C 1.03626 0.20347 0.61391 0.0
C1247 C 1.02352 0.19691 0.66298 0.0
C1248 C 0.0488 0.18965 0.44112 0.0
C1249 C 0.0707 0.19404 0.43032 0.0
C1250 C 0.04205 0.19045 0.4958 0.0
C1251 C 0.05698 0.19542 0.54075 0.0
C1252 C 0.07897 0.20029 0.53028 0.0
C1253 C 0.08587 0.19986 0.47547 0.0
H1254 H 0.77805 0.50529 0.82069 0.0
H1255 H 0.82119 0.50213 0.69385 0.0
H1256 H 0.79338 0.49071 0.89036 0.0
H1257 H 0.837 0.48795 0.76439 0.0
H1258 H 0.87986 0.49384 0.92495 0.0
H1259 H 0.86151 0.50151 0.84731 0.0
H1260 H 0.79702 0.45889 0.9252 0.0
H1261 H 0.81568 0.45103 1.00314 0.0
C1262 C 0.79075 0.50141 0.80716 0.0
C1263 C 0.7985 0.50549 0.75087 0.0
C1264 C 0.79954 0.49285 0.8476 0.0
C1265 C 0.81671 0.48815 0.83397 0.0
C1266 C 0.82407 0.4916 0.77733 0.0
C1267 C 0.81498 0.49986 0.73649 0.0
C1268 C 0.86168 0.48553 0.92485 0.0
C1269 C 0.84933 0.47145 0.97026 0.0
C1270 C 0.85107 0.49 0.88003 0.0
C1271 C 0.82761 0.48101 0.8792 0.0
C1272 C 0.81511 0.46635 0.92398 0.0
C1273 C 0.82577 0.46152 0.96854 0.0
H1274 H 0.57237 0.40347 0.92729 0.0
H1275 H 0.6214 0.38882 0.99657 0.0
H1276 H 0.56389 0.37594 0.85301 0.0
H1277 H 0.61273 0.36075 0.9218 0.0
H1278 H 0.56721 0.29195 0.82733 0.0
H1279 H 0.58193 0.32317 0.89368 0.0
H1280 H 0.57611 0.36518 0.7678 0.0
H1281 H 0.56166 0.33389 0.70072 0.0
C1282 C 0.58172 0.39465 0.92613 0.0
C1283 C 0.59779 0.39873 0.96818 0.0
C1284 C 0.57683 0.37874 0.88307 0.0
C1285 C 0.58744 0.36575 0.88058 0.0
C1286 C 0.60397 0.37017 0.92197 0.0
C1287 C 0.60921 0.38653 0.96473 0.0
C1288 C 0.56924 0.30787 0.81313 0.0
C1289 C 0.56279 0.30994 0.75798 0.0
C1290 C 0.57788 0.32599 0.85159 0.0
C1291 C 0.58024 0.347 0.83708 0.0
C1292 C 0.57436 0.34931 0.78143 0.0
C1293 C 0.56603 0.33124 0.74253 0.0
H1294 H 0.67658 0.24851 0.99843 0.0
H1295 H 0.65945 0.18446 0.92557 0.0
H1296 H 0.70378 0.26783 0.92176 0.0
H1297 H 0.6862 0.20343 0.84948 0.0
H1298 H 0.72823 0.2434 0.69689 0.0
H1299 H 0.69731 0.22675 0.7652 0.0
H1300 H 0.74036 0.27408 0.89042 0.0
H1301 H 0.77113 0.2904 0.82285 0.0
C1302 C 0.67808 0.23853 0.96533 0.0
C1303 C 0.66545 0.21482 0.96831 0.0
C1304 C 0.69398 0.2496 0.92149 0.0
C1305 C 0.69755 0.23737 0.87863 0.0
C1306 C 0.68406 0.21369 0.88063 0.0
C1307 C 0.66858 0.20272 0.92469 0.0
C1308 C 0.73118 0.25035 0.73879 0.0
C1309 C 0.75263 0.26821 0.75367 0.0
C1310 C 0.71332 0.24072 0.77843 0.0
C1311 C 0.71604 0.24882 0.83429 0.0
C1312 C 0.73722 0.26729 0.84823 0.0
C1313 C 0.75508 0.27665 0.80903 0.0
H1314 H 0.53657 0.15273 0.96183 0.0
H1315 H 0.58499 0.22387 0.96748 0.0
H1316 H 0.52722 0.1568 0.86492 0.0
H1317 H 0.57553 0.22817 0.87148 0.0
H1318 H 0.57071 0.22892 0.68797 0.0
H1319 H 0.58022 0.21794 0.77687 0.0
H1320 H 0.50955 0.17409 0.81214 0.0
H1321 H 0.50021 0.18472 0.72326 0.0
C1322 C 0.54485 0.16928 0.94258 0.0
C1323 C 0.56146 0.18803 0.97171 0.0
C1324 C 0.53967 0.17159 0.88715 0.0
C1325 C 0.55099 0.19271 0.86031 0.0
C1326 C 0.56703 0.21154 0.8904 0.0
C1327 C 0.57226 0.20919 0.94546 0.0
C1328 C 0.55733 0.21651 0.71422 0.0
C1329 C 0.53479 0.20788 0.69915 0.0
C1330 C 0.5627 0.21035 0.76513 0.0
C1331 C 0.54557 0.19559 0.80196 0.0
C1332 C 0.52311 0.18545 0.7846 0.0
C1333 C 0.51776 0.1915 0.7335 0.0
H1334 H 0.91203 0.4039 0.96044 0.0
H1335 H 0.84171 0.38364 0.9656 0.0
H1336 H 0.90738 0.3889 0.86507 0.0
H1337 H 0.83681 0.36828 0.87121 0.0
H1338 H 0.83547 0.35823 0.68867 0.0
H1339 H 0.84689 0.3806 0.77472 0.0
H1340 H 0.88907 0.35282 0.81793 0.0
H1341 H 0.87802 0.33098 0.73207 0.0
C1342 C 0.89554 0.39588 0.94138 0.0
C1343 C 0.87719 0.39482 0.96997 0.0
C1344 C 0.89289 0.38748 0.88683 0.0
C1345 C 0.87182 0.37779 0.86037 0.0
C1346 C 0.85341 0.37627 0.88979 0.0
C1347 C 0.8561 0.38478 0.94396 0.0
C1348 C 0.84754 0.35735 0.7161 0.0
C1349 C 0.85563 0.34271 0.70408 0.0
C1350 C 0.854 0.37002 0.76535 0.0
C1351 C 0.8685 0.36805 0.80352 0.0
C1352 C 0.87797 0.35479 0.78924 0.0
C1353 C 0.87165 0.34228 0.73986 0.0
H1354 H 0.68551 0.47618 0.94631 0.0
H1355 H 0.66999 0.52973 0.95083 0.0
H1356 H 0.69919 0.48639 0.85036 0.0
H1357 H 0.68302 0.5397 0.85372 0.0
H1358 H 0.73882 0.56721 0.71579 0.0
H1359 H 0.7174 0.55627 0.80248 0.0
H1360 H 0.68758 0.48612 0.75585 0.0
H1361 H 0.70982 0.49728 0.66937 0.0
C1362 C 0.68497 0.49009 0.92634 0.0
C1363 C 0.67694 0.50231 0.95569 0.0
C1364 C 0.69249 0.49578 0.87124 0.0
C1365 C 0.69187 0.51366 0.84407 0.0
C1366 C 0.68384 0.52593 0.87362 0.0
C1367 C 0.67654 0.52037 0.92916 0.0
C1368 C 0.72714 0.54949 0.7231 0.0
C1369 C 0.72613 0.53302 0.6863 0.0
C1370 C 0.71485 0.5432 0.77295 0.0
C1371 C 0.70116 0.52031 0.78661 0.0
C1372 C 0.69851 0.5039 0.74716 0.0
C1373 C 0.71104 0.51022 0.69758 0.0
H1374 H 0.51678 0.81722 0.3592 0.0
H1375 H 0.51998 0.77302 0.23559 0.0
H1376 H 0.50177 0.83187 0.28772 0.0
H1377 H 0.50476 0.78731 0.16491 0.0
H1378 H 0.46465 0.80774 0.04936 0.0
H1379 H 0.47314 0.79009 0.12863 0.0
H1380 H 0.51374 0.85551 0.20403 0.0
H1381 H 0.50533 0.87283 0.12525 0.0
C1382 C 0.51432 0.81052 0.31708 0.0
C1383 C 0.52016 0.79406 0.30389 0.0
C1384 C 0.50562 0.81897 0.27565 0.0
C1385 C 0.50199 0.81101 0.21956 0.0
C1386 C 0.50698 0.7939 0.20718 0.0
C1387 C 0.51593 0.78573 0.24821 0.0
C1388 C 0.47479 0.81823 0.08373 0.0
C1389 C 0.48392 0.84176 0.08096 0.0
C1390 C 0.48001 0.80816 0.12907 0.0
C1391 C 0.49434 0.82123 0.17355 0.0
C1392 C 0.50251 0.84462 0.17165 0.0
C1393 C 0.49761 0.85464 0.12614 0.0
H1394 H 0.28374 0.70875 0.33882 0.0
H1395 H 0.25691 0.74398 0.24719 0.0
H1396 H 0.27317 0.68159 0.26142 0.0
H1397 H 0.24635 0.7171 0.16991 0.0
H1398 H 0.23717 0.66947 0.02263 0.0
H1399 H 0.25542 0.69994 0.09189 0.0
H1400 H 0.23922 0.65069 0.22313 0.0
H1401 H 0.22099 0.62055 0.15464 0.0
C1402 C 0.27645 0.7113 0.3012 0.0
C1403 C 0.27193 0.72916 0.29894 0.0
C1404 C 0.26991 0.69539 0.25691 0.0
C1405 C 0.25862 0.69674 0.20855 0.0
C1406 C 0.25516 0.71533 0.20541 0.0
C1407 C 0.26142 0.73099 0.2499 0.0
C1408 C 0.23763 0.66509 0.0661 0.0
C1409 C 0.22724 0.64221 0.0823 0.0
C1410 C 0.24809 0.68269 0.10627 0.0
C1411 C 0.24896 0.67814 0.16407 0.0
C1412 C 0.23932 0.65527 0.17954 0.0
C1413 C 0.22863 0.63778 0.13977 0.0
H1414 H 0.34615 0.56662 0.34561 0.0
H1415 H 0.30366 0.53689 0.20142 0.0
H1416 H 0.37893 0.58637 0.2831 0.0
H1417 H 0.33609 0.55645 0.13916 0.0
H1418 H 0.39771 0.6011 0.03072 0.0
H1419 H 0.36617 0.59057 0.09619 0.0
H1420 H 0.40174 0.57673 0.22476 0.0
H1421 H 0.43283 0.5871 0.15966 0.0
C1422 C 0.34361 0.56486 0.30057 0.0
C1423 C 0.32199 0.55029 0.27896 0.0
C1424 C 0.36255 0.57595 0.26442 0.0
C1425 C 0.36053 0.57311 0.20528 0.0
C1426 C 0.33865 0.55948 0.1839 0.0
C1427 C 0.31988 0.54818 0.21993 0.0
C1428 C 0.39907 0.59649 0.07347 0.0
C1429 C 0.41813 0.59531 0.08976 0.0
C1430 C 0.38077 0.59009 0.11108 0.0
C1431 C 0.38102 0.58257 0.16652 0.0
C1432 C 0.40067 0.58257 0.18322 0.0
C1433 C 0.41866 0.58858 0.14555 0.0
H1434 H 0.1974 0.48927 0.31073 0.0
H1435 H 0.24142 0.56091 0.32932 0.0
H1436 H 0.18843 0.49507 0.21504 0.0
H1437 H 0.23218 0.56697 0.23428 0.0
H1438 H 0.23659 0.56844 0.04683 0.0
H1439 H 0.24224 0.55915 0.14222 0.0
H1440 H 0.17112 0.51137 0.1564 0.0
H1441 H 0.16564 0.52042 0.06093 0.0
C1442 C 0.20445 0.50631 0.29491 0.0
C1443 C 0.22007 0.5247 0.32687 0.0
C1444 C 0.19951 0.50963 0.24012 0.0
C1445 C 0.21007 0.53142 0.21686 0.0
C1446 C 0.22433 0.54993 0.2506 0.0
C1447 C 0.22936 0.54656 0.30506 0.0
C1448 C 0.22231 0.55567 0.07014 0.0
C1449 C 0.20073 0.54523 0.04677 0.0
C1450 C 0.22545 0.55052 0.12477 0.0
C1451 C 0.207 0.53495 0.15709 0.0
C1452 C 0.18563 0.52344 0.13245 0.0
C1453 C 0.18253 0.52851 0.07765 0.0
H1454 H 0.50996 0.71008 0.38145 0.0
H1455 H 0.57815 0.72323 0.36568 0.0
H1456 H 0.4996 0.68673 0.29774 0.0
H1457 H 0.56745 0.69905 0.28403 0.0
H1458 H 0.55016 0.69481 0.09452 0.0
H1459 H 0.55939 0.70841 0.19081 0.0
H1460 H 0.49527 0.65371 0.24725 0.0
H1461 H 0.48607 0.6402 0.15088 0.0
C1462 C 0.52261 0.70758 0.36107 0.0
C1463 C 0.54506 0.71923 0.37921 0.0
C1464 C 0.5166 0.69398 0.31344 0.0
C1465 C 0.53292 0.69163 0.28361 0.0
C1466 C 0.5547 0.7011 0.3055 0.0
C1467 C 0.56074 0.71479 0.35285 0.0
C1468 C 0.53819 0.68563 0.12764 0.0
C1469 C 0.51732 0.66674 0.11522 0.0
C1470 C 0.54349 0.69325 0.18277 0.0
C1471 C 0.52805 0.682 0.22651 0.0
C1472 C 0.50737 0.66279 0.21425 0.0
C1473 C 0.50205 0.65521 0.15907 0.0
H1474 H 0.33887 0.86351 0.317 0.0
H1475 H 0.3666 0.81954 0.32777 0.0
H1476 H 0.36138 0.8811 0.23201 0.0
H1477 H 0.38928 0.8372 0.24391 0.0
H1478 H 0.43992 0.88414 0.12199 0.0
H1479 H 0.42152 0.87785 0.21316 0.0
H1480 H 0.35942 0.86199 0.131 0.0
H1481 H 0.37776 0.86778 0.03919 0.0
C1482 C 0.35014 0.858 0.30165 0.0
C1483 C 0.35115 0.84026 0.32831 0.0
C1484 C 0.36284 0.86792 0.25326 0.0
C1485 C 0.37705 0.86052 0.23206 0.0
C1486 C 0.37861 0.84333 0.26003 0.0
C1487 C 0.36561 0.83316 0.30752 0.0
C1488 C 0.4224 0.87951 0.12338 0.0
C1489 C 0.41002 0.87575 0.07369 0.0
C1490 C 0.41198 0.87613 0.17544 0.0
C1491 C 0.38909 0.8692 0.17863 0.0
C1492 C 0.37716 0.86744 0.12928 0.0
C1493 C 0.38759 0.87069 0.07694 0.0
loop_
_geom_bond_atom_site_label_1
_geom_bond_atom_site_label_2
_geom_bond_distance
_geom_bond_site_symmetry_2
_ccdc_geom_bond_type
C0 C1 1.351 . S
C0 N3 1.368 . S
C0 H5 0.931 . S
C1 C0 1.351 . S
C1 N2 1.373 . S
C1 H29 0.930 . S
N2 C1 1.373 . S
N2 C4 1.340 . S
N3 C0 1.368 . S
N3 C4 1.321 . S
N3 Co6 2.135 . S
C4 N2 1.340 . S
C4 N3 1.321 . S
C4 H28 0.930 . S
H5 C0 0.931 . S
Co6 N3 2.135 . S
Co6 N9 2.121 . S
Co6 O14 2.055 . S
Co6 O17 2.039 . S
Co6 N20 2.140 . S
C7 O8 1.227 . S
C7 O17 1.265 . S
O8 C7 1.227 . S
N9 Co6 2.121 . S
N9 C11 1.375 . S
N9 C12 1.313 . S
C10 C11 1.338 . S
C10 N13 1.377 . S
C10 H30 0.930 . S
C11 N9 1.375 . S
C11 C10 1.338 . S
C11 H15 0.931 . S
C12 N9 1.313 . S
C12 N13 1.344 . S
C12 H16 0.930 . S
N13 C10 1.377 . S
N13 C12 1.344 . S
O14 Co6 2.055 . S
O14 C18 1.253 . S
H15 C11 0.931 . S
H16 C12 0.930 . S
O17 Co6 2.039 . S
O17 C7 1.265 . S
C18 O14 1.253 . S
C18 O19 1.227 . S
O19 C18 1.227 . S
N20 Co6 2.140 . S
N20 C23 1.346 . S
N20 C24 1.345 . S
C21 C22 1.387 . S
C21 C25 1.391 . S
C22 C21 1.387 . S
C22 C23 1.369 . S
C22 H31 0.929 . S
C23 N20 1.346 . S
C23 C22 1.369 . S
C23 H26 0.928 . S
C24 N20 1.345 . S
C24 C25 1.371 . S
C24 H27 0.931 . S
C25 C21 1.391 . S
C25 C24 1.371 . S
C25 H32 0.930 . S
H26 C23 0.928 . S
H27 C24 0.931 . S
H28 C4 0.930 . S
H29 C1 0.930 . S
H30 C10 0.930 . S
H31 C22 0.929 . S
H32 C25 0.930 . S
C33 C34 1.351 . S
C33 N36 1.368 . S
C33 H38 0.931 . S
C34 C33 1.351 . S
C34 N35 1.373 . S
C34 H62 0.930 . S
N35 C34 1.373 . S
N35 C37 1.340 . S
N36 C33 1.368 . S
N36 C37 1.321 . S
N36 Co39 2.135 . S
C37 N35 1.340 . S
C37 N36 1.321 . S
C37 H61 0.930 . S
H38 C33 0.931 . S
Co39 N36 2.135 . S
Co39 N42 2.121 . S
Co39 O47 2.055 . S
Co39 O50 2.039 . S
Co39 N53 2.140 . S
C40 O41 1.227 . S
C40 O50 1.265 . S
O41 C40 1.227 . S
N42 Co39 2.121 . S
N42 C44 1.375 . S
N42 C45 1.313 . S
C43 C44 1.338 . S
C43 N46 1.377 . S
C43 H63 0.930 . S
C44 N42 1.375 . S
C44 C43 1.338 . S
C44 H48 0.931 . S
C45 N42 1.313 . S
C45 N46 1.344 . S
C45 H49 0.930 . S
N46 C43 1.377 . S
N46 C45 1.344 . S
O47 Co39 2.055 . S
O47 C51 1.253 . S
H48 C44 0.931 . S
H49 C45 0.930 . S
O50 Co39 2.039 . S
O50 C40 1.265 . S
C51 O47 1.253 . S
C51 O52 1.227 . S
O52 C51 1.227 . S
N53 Co39 2.140 . S
N53 C56 1.346 . S
N53 C57 1.345 . S
C54 C55 1.387 . S
C54 C58 1.391 . S
C55 C54 1.387 . S
C55 C56 1.369 . S
C55 H64 0.929 . S
C56 N53 1.346 . S
C56 C55 1.369 . S
C56 H59 0.928 . S
C57 N53 1.345 . S
C57 C58 1.371 . S
C57 H60 0.931 . S
C58 C54 1.391 . S
C58 C57 1.371 . S
C58 H65 0.930 . S
H59 C56 0.928 . S
H60 C57 0.931 . S
H61 C37 0.930 . S
H62 C34 0.930 . S
H63 C43 0.930 . S
H64 C55 0.929 . S
H65 C58 0.930 . S
C66 C67 1.351 . S
C66 N69 1.368 . S
C66 H71 0.931 . S
C67 C66 1.351 . S
C67 N68 1.373 . S
C67 H95 0.930 . S
N68 C67 1.373 . S
N68 C70 1.340 . S
N69 C66 1.368 . S
N69 C70 1.321 . S
N69 Co72 2.135 . S
C70 N68 1.340 . S
C70 N69 1.321 . S
C70 H94 0.930 . S
H71 C66 0.931 . S
Co72 N69 2.135 . S
Co72 N75 2.121 . S
Co72 O80 2.055 . S
Co72 O83 2.039 . S
Co72 N86 2.140 . S
C73 O74 1.227 . S
C73 O83 1.265 . S
O74 C73 1.227 . S
N75 Co72 2.121 . S
N75 C77 1.375 . S
N75 C78 1.313 . S
C76 C77 1.338 . S
C76 N79 1.377 . S
C76 H96 0.930 . S
C77 N75 1.375 . S
C77 C76 1.338 . S
C77 H81 0.931 . S
C78 N75 1.313 . S
C78 N79 1.344 . S
C78 H82 0.930 . S
N79 C76 1.377 . S
N79 C78 1.344 . S
O80 Co72 2.055 . S
O80 C84 1.253 . S
H81 C77 0.931 . S
H82 C78 0.930 . S
O83 Co72 2.039 . S
O83 C73 1.265 . S
C84 O80 1.253 . S
C84 O85 1.227 . S
O85 C84 1.227 . S
N86 Co72 2.140 . S
N86 C89 1.346 . S
N86 C90 1.345 . S
C87 C88 1.387 . S
C87 C91 1.391 . S
C88 C87 1.387 . S
C88 C89 1.369 . S
C88 H97 0.929 . S
C89 N86 1.346 . S
C89 C88 1.369 . S
C89 H92 0.928 . S
C90 N86 1.345 . S
C90 C91 1.371 . S
C90 H93 0.931 . S
C91 C87 1.391 . S
C91 C90 1.371 . S
C91 H98 0.930 . S
H92 C89 0.928 . S
H93 C90 0.931 . S
H94 C70 0.930 . S
H95 C67 0.930 . S
H96 C76 0.930 . S
H97 C88 0.929 . S
H98 C91 0.930 . S
C99 C100 1.351 . S
C99 N102 1.368 . S
C99 H104 0.931 . S
C100 C99 1.351 . S
C100 N101 1.373 . S
C100 H128 0.930 . S
N101 C100 1.373 . S
N101 C103 1.340 . S
N102 C99 1.368 . S
N102 C103 1.321 . S
N102 Co105 2.135 . S
C103 N101 1.340 . S
C103 N102 1.321 . S
C103 H127 0.930 . S
H104 C99 0.931 . S
Co105 N102 2.135 . S
Co105 N108 2.121 . S
Co105 O113 2.055 . S
Co105 O116 2.039 . S
Co105 N119 2.140 . S
C106 O107 1.227 . S
C106 O116 1.265 . S
O107 C106 1.227 . S
N108 Co105 2.121 . S
N108 C110 1.375 . S
N108 C111 1.313 . S
C109 C110 1.338 . S
C109 N112 1.377 . S
C109 H129 0.930 . S
C110 N108 1.375 . S
C110 C109 1.338 . S
C110 H114 0.931 . S
C111 N108 1.313 . S
C111 N112 1.344 . S
C111 H115 0.930 . S
N112 C109 1.377 . S
N112 C111 1.344 . S
O113 Co105 2.055 . S
O113 C117 1.253 . S
H114 C110 0.931 . S
H115 C111 0.930 . S
O116 Co105 2.039 . S
O116 C106 1.265 . S
C117 O113 1.253 . S
C117 O118 1.227 . S
O118 C117 1.227 . S
N119 Co105 2.140 . S
N119 C122 1.346 . S
N119 C123 1.345 . S
C120 C121 1.387 . S
C120 C124 1.391 . S
C121 C120 1.387 . S
C121 C122 1.369 . S
C121 H130 0.929 . S
C122 N119 1.346 . S
C122 C121 1.369 . S
C122 H125 0.928 . S
C123 N119 1.345 . S
C123 C124 1.371 . S
C123 H126 0.931 . S
C124 C120 1.391 . S
C124 C123 1.371 . S
C124 H131 0.930 . S
H125 C122 0.928 . S
H126 C123 0.931 . S
H127 C103 0.930 . S
H128 C100 0.930 . S
H129 C109 0.930 . S
H130 C121 0.929 . S
H131 C124 0.930 . S
C132 C133 1.351 . S
C132 N135 1.368 . S
C132 H137 0.931 . S
C133 C132 1.351 . S
C133 N134 1.373 . S
C133 H161 0.930 . S
N134 C133 1.373 . S
N134 C136 1.340 . S
N135 C132 1.368 . S
N135 C136 1.321 . S
N135 Co138 2.135 . S
C136 N134 1.340 . S
C136 N135 1.321 . S
C136 H160 0.930 . S
H137 C132 0.931 . S
Co138 N135 2.135 . S
Co138 N141 2.121 . S
Co138 O146 2.055 . S
Co138 O149 2.039 . S
Co138 N152 2.140 . S
C139 O140 1.227 . S
C139 O149 1.265 . S
O140 C139 1.227 . S
N141 Co138 2.121 . S
N141 C143 1.375 . S
N141 C144 1.313 . S
C142 C143 1.338 . S
C142 N145 1.377 . S
C142 H162 0.930 . S
C143 N141 1.375 . S
C143 C142 1.338 . S
C143 H147 0.931 . S
C144 N141 1.313 . S
C144 N145 1.344 . S
C144 H148 0.930 . S
N145 C142 1.377 . S
N145 C144 1.344 . S
O146 Co138 2.055 . S
O146 C150 1.253 . S
H147 C143 0.931 . S
H148 C144 0.930 . S
O149 Co138 2.039 . S
O149 C139 1.265 . S
C150 O146 1.253 . S
C150 O151 1.227 . S
O151 C150 1.227 . S
N152 Co138 2.140 . S
N152 C155 1.346 . S
N152 C156 1.345 . S
C153 C154 1.387 . S
C153 C157 1.391 . S
C154 C153 1.387 . S
C154 C155 1.369 . S
C154 H163 0.929 . S
C155 N152 1.346 . S
C155 C154 1.369 . S
C155 H158 0.928 . S
C156 N152 1.345 . S
C156 C157 1.371 . S
C156 H159 0.931 . S
C157 C153 1.391 . S
C157 C156 1.371 . S
C157 H164 0.930 . S
H158 C155 0.928 . S
H159 C156 0.931 . S
H160 C136 0.930 . S
H161 C133 0.930 . S
H162 C142 0.930 . S
H163 C154 0.929 . S
H164 C157 0.930 . S
C165 C166 1.351 . S
C165 N168 1.368 . S
C165 H170 0.931 . S
C166 C165 1.351 . S
C166 N167 1.373 . S
C166 H194 0.930 . S
N167 C166 1.373 . S
N167 C169 1.340 . S
N168 C165 1.368 . S
N168 C169 1.321 . S
N168 Co171 2.135 . S
C169 N167 1.340 . S
C169 N168 1.321 . S
C169 H193 0.930 . S
H170 C165 0.931 . S
Co171 N168 2.135 . S
Co171 N174 2.121 . S
Co171 O179 2.055 . S
Co171 O182 2.039 . S
Co171 N185 2.140 . S
C172 O173 1.227 . S
C172 O182 1.265 . S
O173 C172 1.227 . S
N174 Co171 2.121 . S
N174 C176 1.375 . S
N174 C177 1.313 . S
C175 C176 1.338 . S
C175 N178 1.377 . S
C175 H195 0.930 . S
C176 N174 1.375 . S
C176 C175 1.338 . S
C176 H180 0.931 . S
C177 N174 1.313 . S
C177 N178 1.344 . S
C177 H181 0.930 . S
N178 C175 1.377 . S
N178 C177 1.344 . S
O179 Co171 2.055 . S
O179 C183 1.253 . S
H180 C176 0.931 . S
H181 C177 0.930 . S
O182 Co171 2.039 . S
O182 C172 1.265 . S
C183 O179 1.253 . S
C183 O184 1.227 . S
O184 C183 1.227 . S
N185 Co171 2.140 . S
N185 C188 1.346 . S
N185 C189 1.345 . S
C186 C187 1.387 . S
C186 C190 1.391 . S
C187 C186 1.387 . S
C187 C188 1.369 . S
C187 H196 0.929 . S
C188 N185 1.346 . S
C188 C187 1.369 . S
C188 H191 0.928 . S
C189 N185 1.345 . S
C189 C190 1.371 . S
C189 H192 0.931 . S
C190 C186 1.391 . S
C190 C189 1.371 . S
C190 H197 0.930 . S
H191 C188 0.928 . S
H192 C189 0.931 . S
H193 C169 0.930 . S
H194 C166 0.930 . S
H195 C175 0.930 . S
H196 C187 0.929 . S
H197 C190 0.930 . S
C198 C199 1.351 . S
C198 N201 1.368 . S
C198 H203 0.931 . S
C199 C198 1.351 . S
C199 N200 1.373 . S
C199 H227 0.930 . S
N200 C199 1.373 . S
N200 C202 1.340 . S
N201 C198 1.368 . S
N201 C202 1.321 . S
N201 Co204 2.135 . S
C202 N200 1.340 . S
C202 N201 1.321 . S
C202 H226 0.930 . S
H203 C198 0.931 . S
Co204 N201 2.135 . S
Co204 N207 2.121 . S
Co204 O212 2.055 . S
Co204 O215 2.039 . S
Co204 N218 2.140 . S
C205 O206 1.227 . S
C205 O215 1.265 . S
O206 C205 1.227 . S
N207 Co204 2.121 . S
N207 C209 1.375 . S
N207 C210 1.313 . S
C208 C209 1.338 . S
C208 N211 1.377 . S
C208 H228 0.930 . S
C209 N207 1.375 . S
C209 C208 1.338 . S
C209 H213 0.931 . S
C210 N207 1.313 . S
C210 N211 1.344 . S
C210 H214 0.930 . S
N211 C208 1.377 . S
N211 C210 1.344 . S
O212 Co204 2.055 . S
O212 C216 1.253 . S
H213 C209 0.931 . S
H214 C210 0.930 . S
O215 Co204 2.039 . S
O215 C205 1.265 . S
C216 O212 1.253 . S
C216 O217 1.227 . S
O217 C216 1.227 . S
N218 Co204 2.140 . S
N218 C221 1.346 . S
N218 C222 1.345 . S
C219 C220 1.387 . S
C219 C223 1.391 . S
C220 C219 1.387 . S
C220 C221 1.369 . S
C220 H229 0.929 . S
C221 N218 1.346 . S
C221 C220 1.369 . S
C221 H224 0.928 . S
C222 N218 1.345 . S
C222 C223 1.371 . S
C222 H225 0.931 . S
C223 C219 1.391 . S
C223 C222 1.371 . S
C223 H230 0.930 . S
H224 C221 0.928 . S
H225 C222 0.931 . S
H226 C202 0.930 . S
H227 C199 0.930 . S
H228 C208 0.930 . S
H229 C220 0.929 . S
H230 C223 0.930 . S
C231 C232 1.351 . S
C231 N234 1.368 . S
C231 H236 0.931 . S
C232 C231 1.351 . S
C232 N233 1.373 . S
C232 H260 0.930 . S
N233 C232 1.373 . S
N233 C235 1.340 . S
N234 C231 1.368 . S
N234 C235 1.321 . S
N234 Co237 2.135 . S
C235 N233 1.340 . S
C235 N234 1.321 . S
C235 H259 0.930 . S
H236 C231 0.931 . S
Co237 N234 2.135 . S
Co237 N240 2.121 . S
Co237 O245 2.055 . S
Co237 O248 2.039 . S
Co237 N251 2.140 . S
C238 O239 1.227 . S
C238 O248 1.265 . S
O239 C238 1.227 . S
N240 Co237 2.121 . S
N240 C242 1.375 . S
N240 C243 1.313 . S
C241 C242 1.338 . S
C241 N244 1.377 . S
C241 H261 0.930 . S
C242 N240 1.375 . S
C242 C241 1.338 . S
C242 H246 0.931 . S
C243 N240 1.313 . S
C243 N244 1.344 . S
C243 H247 0.930 . S
N244 C241 1.377 . S
N244 C243 1.344 . S
O245 Co237 2.055 . S
O245 C249 1.253 . S
H246 C242 0.931 . S
H247 C243 0.930 . S
O248 Co237 2.039 . S
O248 C238 1.265 . S
C249 O245 1.253 . S
C249 O250 1.227 . S
O250 C249 1.227 . S
N251 Co237 2.140 . S
N251 C254 1.346 . S
N251 C255 1.345 . S
C252 C253 1.387 . S
C252 C256 1.391 . S
C253 C252 1.387 . S
C253 C254 1.369 . S
C253 H262 0.929 . S
C254 N251 1.346 . S
C254 C253 1.369 . S
C254 H257 0.928 . S
C255 N251 1.345 . S
C255 C256 1.371 . S
C255 H258 0.931 . S
C256 C252 1.391 . S
C256 C255 1.371 . S
C256 H263 0.930 . S
H257 C254 0.928 . S
H258 C255 0.931 . S
H259 C235 0.930 . S
H260 C232 0.930 . S
H261 C241 0.930 . S
H262 C253 0.929 . S
H263 C256 0.930 . S
C264 C265 1.351 . S
C264 N267 1.368 . S
C264 H269 0.931 . S
C265 C264 1.351 . S
C265 N266 1.373 . S
C265 H293 0.930 . S
N266 C265 1.373 . S
N266 C268 1.340 . S
N267 C264 1.368 . S
N267 C268 1.321 . S
N267 Co270 2.135 . S
C268 N266 1.340 . S
C268 N267 1.321 . S
C268 H292 0.930 . S
H269 C264 0.931 . S
Co270 N267 2.135 . S
Co270 N273 2.121 . S
Co270 O278 2.055 . S
Co270 O281 2.039 . S
Co270 N284 2.140 . S
C271 O272 1.227 . S
C271 O281 1.265 . S
O272 C271 1.227 . S
N273 Co270 2.121 . S
N273 C275 1.375 . S
N273 C276 1.313 . S
C274 C275 1.338 . S
C274 N277 1.377 . S
C274 H294 0.930 . S
C275 N273 1.375 . S
C275 C274 1.338 . S
C275 H279 0.931 . S
C276 N273 1.313 . S
C276 N277 1.344 . S
C276 H280 0.930 . S
N277 C274 1.377 . S
N277 C276 1.344 . S
O278 Co270 2.055 . S
O278 C282 1.253 . S
H279 C275 0.931 . S
H280 C276 0.930 . S
O281 Co270 2.039 . S
O281 C271 1.265 . S
C282 O278 1.253 . S
C282 O283 1.227 . S
O283 C282 1.227 . S
N284 Co270 2.140 . S
N284 C287 1.346 . S
N284 C288 1.345 . S
C285 C286 1.387 . S
C285 C289 1.391 . S
C286 C285 1.387 . S
C286 C287 1.369 . S
C286 H295 0.929 . S
C287 N284 1.346 . S
C287 C286 1.369 . S
C287 H290 0.928 . S
C288 N284 1.345 . S
C288 C289 1.371 . S
C288 H291 0.931 . S
C289 C285 1.391 . S
C289 C288 1.371 . S
C289 H296 0.930 . S
H290 C287 0.928 . S
H291 C288 0.931 . S
H292 C268 0.930 . S
H293 C265 0.930 . S
H294 C274 0.930 . S
H295 C286 0.929 . S
H296 C289 0.930 . S
C297 C298 1.351 1_554 S
C297 N300 1.368 . S
C297 H302 0.931 . S
C298 C297 1.351 1_556 S
C298 N299 1.373 . S
C298 H326 0.930 . S
N299 C298 1.373 . S
N299 C301 1.340 . S
N300 C297 1.368 . S
N300 C301 1.321 1_554 S
N300 Co303 2.135 . S
C301 N299 1.340 . S
C301 N300 1.321 1_556 S
C301 H325 0.930 . S
H302 C297 0.931 . S
Co303 N300 2.135 . S
Co303 N306 2.121 . S
Co303 O311 2.055 . S
Co303 O314 2.039 . S
Co303 N317 2.140 . S
C304 O305 1.227 . S
C304 O314 1.265 1_556 S
O305 C304 1.227 . S
N306 Co303 2.121 . S
N306 C308 1.375 . S
N306 C309 1.313 . S
C307 C308 1.338 . S
C307 N310 1.377 . S
C307 H327 0.930 . S
C308 N306 1.375 . S
C308 C307 1.338 . S
C308 H312 0.931 . S
C309 N306 1.313 . S
C309 N310 1.344 . S
C309 H313 0.930 . S
N310 C307 1.377 . S
N310 C309 1.344 . S
O311 Co303 2.055 . S
O311 C315 1.253 . S
H312 C308 0.931 . S
H313 C309 0.930 . S
O314 Co303 2.039 . S
O314 C304 1.265 1_554 S
C315 O311 1.253 . S
C315 O316 1.227 . S
O316 C315 1.227 . S
N317 Co303 2.140 . S
N317 C320 1.346 . S
N317 C321 1.345 . S
C318 C319 1.387 . S
C318 C322 1.391 . S
C319 C318 1.387 . S
C319 C320 1.369 . S
C319 H328 0.929 1_554 S
C320 N317 1.346 . S
C320 C319 1.369 . S
C320 H323 0.928 1_554 S
C321 N317 1.345 . S
C321 C322 1.371 . S
C321 H324 0.931 . S
C322 C318 1.391 . S
C322 C321 1.371 . S
C322 H329 0.930 . S
H323 C320 0.928 1_556 S
H324 C321 0.931 . S
H325 C301 0.930 . S
H326 C298 0.930 . S
H327 C307 0.930 . S
H328 C319 0.929 1_556 S
H329 C322 0.930 . S
C330 C331 1.351 1_554 S
C330 N333 1.368 . S
C330 H335 0.931 . S
C331 C330 1.351 1_556 S
C331 N332 1.373 . S
C331 H359 0.930 . S
N332 C331 1.373 . S
N332 C334 1.340 . S
N333 C330 1.368 . S
N333 C334 1.321 1_554 S
N333 Co336 2.135 . S
C334 N332 1.340 . S
C334 N333 1.321 1_556 S
C334 H358 0.930 . S
H335 C330 0.931 . S
Co336 N333 2.135 . S
Co336 N339 2.121 . S
Co336 O344 2.055 . S
Co336 O347 2.039 . S
Co336 N350 2.140 . S
C337 O338 1.227 . S
C337 O347 1.265 1_556 S
O338 C337 1.227 . S
N339 Co336 2.121 . S
N339 C341 1.375 . S
N339 C342 1.313 . S
C340 C341 1.338 . S
C340 N343 1.377 . S
C340 H360 0.930 . S
C341 N339 1.375 . S
C341 C340 1.338 . S
C341 H345 0.931 . S
C342 N339 1.313 . S
C342 N343 1.344 . S
C342 H346 0.930 . S
N343 C340 1.377 . S
N343 C342 1.344 . S
O344 Co336 2.055 . S
O344 C348 1.253 . S
H345 C341 0.931 . S
H346 C342 0.930 . S
O347 Co336 2.039 . S
O347 C337 1.265 1_554 S
C348 O344 1.253 . S
C348 O349 1.227 . S
O349 C348 1.227 . S
N350 Co336 2.140 . S
N350 C353 1.346 . S
N350 C354 1.345 . S
C351 C352 1.387 . S
C351 C355 1.391 . S
C352 C351 1.387 . S
C352 C353 1.369 . S
C352 H361 0.929 1_554 S
C353 N350 1.346 . S
C353 C352 1.369 . S
C353 H356 0.928 1_554 S
C354 N350 1.345 . S
C354 C355 1.371 . S
C354 H357 0.931 . S
C355 C351 1.391 . S
C355 C354 1.371 . S
C355 H362 0.930 . S
H356 C353 0.928 1_556 S
H357 C354 0.931 . S
H358 C334 0.930 . S
H359 C331 0.930 . S
H360 C340 0.930 . S
H361 C352 0.929 1_556 S
H362 C355 0.930 . S
C363 C364 1.351 1_554 S
C363 N366 1.368 . S
C363 H368 0.931 . S
C364 C363 1.351 1_556 S
C364 N365 1.373 . S
C364 H392 0.930 . S
N365 C364 1.373 . S
N365 C367 1.340 . S
N366 C363 1.368 . S
N366 C367 1.321 1_554 S
N366 Co369 2.135 . S
C367 N365 1.340 . S
C367 N366 1.321 1_556 S
C367 H391 0.930 . S
H368 C363 0.931 . S
Co369 N366 2.135 . S
Co369 N372 2.121 . S
Co369 O377 2.055 . S
Co369 O380 2.039 . S
Co369 N383 2.140 . S
C370 O371 1.227 . S
C370 O380 1.265 1_556 S
O371 C370 1.227 . S
N372 Co369 2.121 . S
N372 C374 1.375 . S
N372 C375 1.313 . S
C373 C374 1.338 . S
C373 N376 1.377 . S
C373 H393 0.930 . S
C374 N372 1.375 . S
C374 C373 1.338 . S
C374 H378 0.931 . S
C375 N372 1.313 . S
C375 N376 1.344 . S
C375 H379 0.930 . S
N376 C373 1.377 . S
N376 C375 1.344 . S
O377 Co369 2.055 . S
O377 C381 1.253 . S
H378 C374 0.931 . S
H379 C375 0.930 . S
O380 Co369 2.039 . S
O380 C370 1.265 1_554 S
C381 O377 1.253 . S
C381 O382 1.227 . S
O382 C381 1.227 . S
N383 Co369 2.140 . S
N383 C386 1.346 . S
N383 C387 1.345 . S
C384 C385 1.387 . S
C384 C388 1.391 . S
C385 C384 1.387 . S
C385 C386 1.369 . S
C385 H394 0.929 1_554 S
C386 N383 1.346 . S
C386 C385 1.369 . S
C386 H389 0.928 1_554 S
C387 N383 1.345 . S
C387 C388 1.371 . S
C387 H390 0.931 . S
C388 C384 1.391 . S
C388 C387 1.371 . S
C388 H395 0.930 . S
H389 C386 0.928 1_556 S
H390 C387 0.931 . S
H391 C367 0.930 . S
H392 C364 0.930 . S
H393 C373 0.930 . S
H394 C385 0.929 1_556 S
H395 C388 0.930 . S
C396 C397 1.351 1_556 S
C396 N399 1.368 . S
C396 H401 0.931 . S
C397 C396 1.351 1_554 S
C397 N398 1.373 . S
C397 H425 0.930 . S
N398 C397 1.373 . S
N398 C400 1.340 . S
N399 C396 1.368 . S
N399 C400 1.321 1_556 S
N399 Co402 2.135 . S
C400 N398 1.340 . S
C400 N399 1.321 1_554 S
C400 H424 0.930 . S
H401 C396 0.931 . S
Co402 N399 2.135 . S
Co402 N405 2.121 . S
Co402 O410 2.055 . S
Co402 O413 2.039 . S
Co402 N416 2.140 . S
C403 O404 1.227 . S
C403 O413 1.265 1_554 S
O404 C403 1.227 . S
N405 Co402 2.121 . S
N405 C407 1.375 . S
N405 C408 1.313 . S
C406 C407 1.338 . S
C406 N409 1.377 . S
C406 H426 0.930 . S
C407 N405 1.375 . S
C407 C406 1.338 . S
C407 H411 0.931 . S
C408 N405 1.313 . S
C408 N409 1.344 . S
C408 H412 0.930 . S
N409 C406 1.377 . S
N409 C408 1.344 . S
O410 Co402 2.055 . S
O410 C414 1.253 . S
H411 C407 0.931 . S
H412 C408 0.930 . S
O413 Co402 2.039 . S
O413 C403 1.265 1_556 S
C414 O410 1.253 . S
C414 O415 1.227 . S
O415 C414 1.227 . S
N416 Co402 2.140 . S
N416 C419 1.346 . S
N416 C420 1.345 . S
C417 C418 1.387 . S
C417 C421 1.391 . S
C418 C417 1.387 . S
C418 C419 1.369 . S
C418 H427 0.929 1_556 S
C419 N416 1.346 . S
C419 C418 1.369 . S
C419 H422 0.928 1_556 S
C420 N416 1.345 . S
C420 C421 1.371 . S
C420 H423 0.931 . S
C421 C417 1.391 . S
C421 C420 1.371 . S
C421 H428 0.930 . S
H422 C419 0.928 1_554 S
H423 C420 0.931 . S
H424 C400 0.930 . S
H425 C397 0.930 . S
H426 C406 0.930 . S
H427 C418 0.929 1_554 S
H428 C421 0.930 . S
C429 C430 1.351 1_556 S
C429 N432 1.368 . S
C429 H434 0.931 . S
C430 C429 1.351 1_554 S
C430 N431 1.373 . S
C430 H458 0.930 . S
N431 C430 1.373 . S
N431 C433 1.340 . S
N432 C429 1.368 . S
N432 C433 1.321 1_556 S
N432 Co435 2.135 . S
C433 N431 1.340 . S
C433 N432 1.321 1_554 S
C433 H457 0.930 . S
H434 C429 0.931 . S
Co435 N432 2.135 . S
Co435 N438 2.121 . S
Co435 O443 2.055 . S
Co435 O446 2.039 . S
Co435 N449 2.140 . S
C436 O437 1.227 . S
C436 O446 1.265 1_554 S
O437 C436 1.227 . S
N438 Co435 2.121 . S
N438 C440 1.375 . S
N438 C441 1.313 . S
C439 C440 1.338 . S
C439 N442 1.377 . S
C439 H459 0.930 . S
C440 N438 1.375 . S
C440 C439 1.338 . S
C440 H444 0.931 . S
C441 N438 1.313 . S
C441 N442 1.344 . S
C441 H445 0.930 . S
N442 C439 1.377 . S
N442 C441 1.344 . S
O443 Co435 2.055 . S
O443 C447 1.253 . S
H444 C440 0.931 . S
H445 C441 0.930 . S
O446 Co435 2.039 . S
O446 C436 1.265 1_556 S
C447 O443 1.253 . S
C447 O448 1.227 . S
O448 C447 1.227 . S
N449 Co435 2.140 . S
N449 C452 1.346 . S
N449 C453 1.345 . S
C450 C451 1.387 . S
C450 C454 1.391 . S
C451 C450 1.387 . S
C451 C452 1.369 . S
C451 H460 0.929 1_556 S
C452 N449 1.346 . S
C452 C451 1.369 . S
C452 H455 0.928 1_556 S
C453 N449 1.345 . S
C453 C454 1.371 . S
C453 H456 0.931 . S
C454 C450 1.391 . S
C454 C453 1.371 . S
C454 H461 0.930 . S
H455 C452 0.928 1_554 S
H456 C453 0.931 . S
H457 C433 0.930 . S
H458 C430 0.930 . S
H459 C439 0.930 . S
H460 C451 0.929 1_554 S
H461 C454 0.930 . S
C462 C463 1.351 1_556 S
C462 N465 1.368 . S
C462 H467 0.931 . S
C463 C462 1.351 1_554 S
C463 N464 1.373 . S
C463 H491 0.930 . S
N464 C463 1.373 . S
N464 C466 1.340 . S
N465 C462 1.368 . S
N465 C466 1.321 1_556 S
N465 Co468 2.135 . S
C466 N464 1.340 . S
C466 N465 1.321 1_554 S
C466 H490 0.930 . S
H467 C462 0.931 . S
Co468 N465 2.135 . S
Co468 N471 2.121 . S
Co468 O476 2.055 . S
Co468 O479 2.039 . S
Co468 N482 2.140 . S
C469 O470 1.227 . S
C469 O479 1.265 1_554 S
O470 C469 1.227 . S
N471 Co468 2.121 . S
N471 C473 1.375 . S
N471 C474 1.313 . S
C472 C473 1.338 . S
C472 N475 1.377 . S
C472 H492 0.930 . S
C473 N471 1.375 . S
C473 C472 1.338 . S
C473 H477 0.931 . S
C474 N471 1.313 . S
C474 N475 1.344 . S
C474 H478 0.930 . S
N475 C472 1.377 . S
N475 C474 1.344 . S
O476 Co468 2.055 . S
O476 C480 1.253 . S
H477 C473 0.931 . S
H478 C474 0.930 . S
O479 Co468 2.039 . S
O479 C469 1.265 1_556 S
C480 O476 1.253 . S
C480 O481 1.227 . S
O481 C480 1.227 . S
N482 Co468 2.140 . S
N482 C485 1.346 . S
N482 C486 1.345 . S
C483 C484 1.387 . S
C483 C487 1.391 . S
C484 C483 1.387 . S
C484 C485 1.369 . S
C484 H493 0.929 1_556 S
C485 N482 1.346 . S
C485 C484 1.369 . S
C485 H488 0.928 1_556 S
C486 N482 1.345 . S
C486 C487 1.371 . S
C486 H489 0.931 . S
C487 C483 1.391 . S
C487 C486 1.371 . S
C487 H494 0.930 . S
H488 C485 0.928 1_554 S
H489 C486 0.931 . S
H490 C466 0.930 . S
H491 C463 0.930 . S
H492 C472 0.930 . S
H493 C484 0.929 1_554 S
H494 C487 0.930 . S
C495 C496 1.351 . S
C495 N498 1.368 . S
C495 H500 0.931 . S
C496 C495 1.351 . S
C496 N497 1.373 . S
C496 H524 0.930 . S
N497 C496 1.373 . S
N497 C499 1.340 . S
N498 C495 1.368 . S
N498 C499 1.321 . S
N498 Co501 2.135 . S
C499 N497 1.340 . S
C499 N498 1.321 . S
C499 H523 0.930 . S
H500 C495 0.931 . S
Co501 N498 2.135 . S
Co501 N504 2.121 . S
Co501 O509 2.055 . S
Co501 O512 2.039 . S
Co501 N515 2.140 . S
C502 O503 1.227 . S
C502 O512 1.265 . S
O503 C502 1.227 . S
N504 Co501 2.121 . S
N504 C506 1.375 . S
N504 C507 1.313 . S
C505 C506 1.338 . S
C505 N508 1.377 . S
C505 H525 0.930 . S
C506 N504 1.375 . S
C506 C505 1.338 . S
C506 H510 0.931 . S
C507 N504 1.313 . S
C507 N508 1.344 . S
C507 H511 0.930 . S
N508 C505 1.377 . S
N508 C507 1.344 . S
O509 Co501 2.055 . S
O509 C513 1.253 . S
H510 C506 0.931 . S
H511 C507 0.930 . S
O512 Co501 2.039 . S
O512 C502 1.265 . S
C513 O509 1.253 . S
C513 O514 1.227 . S
O514 C513 1.227 . S
N515 Co501 2.140 . S
N515 C518 1.346 . S
N515 C519 1.345 . S
C516 C517 1.387 . S
C516 C520 1.391 . S
C517 C516 1.387 . S
C517 C518 1.369 . S
C517 H526 0.929 . S
C518 N515 1.346 . S
C518 C517 1.369 . S
C518 H521 0.928 . S
C519 N515 1.345 . S
C519 C520 1.371 . S
C519 H522 0.931 . S
C520 C516 1.391 . S
C520 C519 1.371 . S
C520 H527 0.930 . S
H521 C518 0.928 . S
H522 C519 0.931 . S
H523 C499 0.930 . S
H524 C496 0.930 . S
H525 C505 0.930 . S
H526 C517 0.929 . S
H527 C520 0.930 . S
C528 C529 1.351 . S
C528 N531 1.368 . S
C528 H533 0.931 . S
C529 C528 1.351 . S
C529 N530 1.373 . S
C529 H557 0.930 . S
N530 C529 1.373 . S
N530 C532 1.340 . S
N531 C528 1.368 . S
N531 C532 1.321 . S
N531 Co534 2.135 . S
C532 N530 1.340 . S
C532 N531 1.321 . S
C532 H556 0.930 . S
H533 C528 0.931 . S
Co534 N531 2.135 . S
Co534 N537 2.121 . S
Co534 O542 2.055 . S
Co534 O545 2.039 . S
Co534 N548 2.140 . S
C535 O536 1.227 . S
C535 O545 1.265 . S
O536 C535 1.227 . S
N537 Co534 2.121 . S
N537 C539 1.375 . S
N537 C540 1.313 . S
C538 C539 1.338 . S
C538 N541 1.377 . S
C538 H558 0.930 . S
C539 N537 1.375 . S
C539 C538 1.338 . S
C539 H543 0.931 . S
C540 N537 1.313 . S
C540 N541 1.344 . S
C540 H544 0.930 . S
N541 C538 1.377 . S
N541 C540 1.344 . S
O542 Co534 2.055 . S
O542 C546 1.253 . S
H543 C539 0.931 . S
H544 C540 0.930 . S
O545 Co534 2.039 . S
O545 C535 1.265 . S
C546 O542 1.253 . S
C546 O547 1.227 . S
O547 C546 1.227 . S
N548 Co534 2.140 . S
N548 C551 1.346 . S
N548 C552 1.345 . S
C549 C550 1.387 . S
C549 C553 1.391 . S
C550 C549 1.387 . S
C550 C551 1.369 . S
C550 H559 0.929 . S
C551 N548 1.346 . S
C551 C550 1.369 . S
C551 H554 0.928 . S
C552 N548 1.345 . S
C552 C553 1.371 . S
C552 H555 0.931 . S
C553 C549 1.391 . S
C553 C552 1.371 . S
C553 H560 0.930 . S
H554 C551 0.928 . S
H555 C552 0.931 . S
H556 C532 0.930 . S
H557 C529 0.930 . S
H558 C538 0.930 . S
H559 C550 0.929 . S
H560 C553 0.930 . S
C561 C562 1.351 . S
C561 N564 1.368 . S
C561 H566 0.931 . S
C562 C561 1.351 . S
C562 N563 1.373 . S
C562 H590 0.930 . S
N563 C562 1.373 . S
N563 C565 1.340 . S
N564 C561 1.368 . S
N564 C565 1.321 . S
N564 Co567 2.135 . S
C565 N563 1.340 . S
C565 N564 1.321 . S
C565 H589 0.930 . S
H566 C561 0.931 . S
Co567 N564 2.135 . S
Co567 N570 2.121 . S
Co567 O575 2.055 . S
Co567 O578 2.039 . S
Co567 N581 2.140 . S
C568 O569 1.227 . S
C568 O578 1.265 . S
O569 C568 1.227 . S
N570 Co567 2.121 . S
N570 C572 1.375 . S
N570 C573 1.313 . S
C571 C572 1.338 . S
C571 N574 1.377 . S
C571 H591 0.930 . S
C572 N570 1.375 . S
C572 C571 1.338 . S
C572 H576 0.931 . S
C573 N570 1.313 . S
C573 N574 1.344 . S
C573 H577 0.930 . S
N574 C571 1.377 . S
N574 C573 1.344 . S
O575 Co567 2.055 . S
O575 C579 1.253 . S
H576 C572 0.931 . S
H577 C573 0.930 . S
O578 Co567 2.039 . S
O578 C568 1.265 . S
C579 O575 1.253 . S
C579 O580 1.227 . S
O580 C579 1.227 . S
N581 Co567 2.140 . S
N581 C584 1.346 . S
N581 C585 1.345 . S
C582 C583 1.387 . S
C582 C586 1.391 . S
C583 C582 1.387 . S
C583 C584 1.369 . S
C583 H592 0.929 . S
C584 N581 1.346 . S
C584 C583 1.369 . S
C584 H587 0.928 . S
C585 N581 1.345 . S
C585 C586 1.371 . S
C585 H588 0.931 . S
C586 C582 1.391 . S
C586 C585 1.371 . S
C586 H593 0.930 . S
H587 C584 0.928 . S
H588 C585 0.931 . S
H589 C565 0.930 . S
H590 C562 0.930 . S
H591 C571 0.930 . S
H592 C583 0.929 . S
H593 C586 0.930 . S
H594 C602 0.950 . S
H595 C607 0.950 . S
H596 C604 0.950 . S
H597 C606 0.950 . S
H598 C608 0.950 . S
H599 C610 0.950 . S
H600 C612 0.950 . S
H601 C613 0.950 . S
C602 H594 0.950 . S
C602 C603 1.386 . S
C602 C604 1.391 . S
C603 C602 1.386 . S
C603 C607 1.393 . S
C604 H596 0.950 . S
C604 C602 1.391 . S
C604 C605 1.400 . S
C605 C604 1.400 . S
C605 C606 1.398 . S
C605 C611 1.491 1_556 S
C606 H597 0.950 . S
C606 C605 1.398 . S
C606 C607 1.391 . S
C607 H595 0.950 . S
C607 C603 1.393 . S
C607 C606 1.391 . S
C608 H598 0.950 . S
C608 C609 1.386 . S
C608 C610 1.391 . S
C609 C608 1.386 . S
C609 C613 1.393 . S
C610 H599 0.950 . S
C610 C608 1.391 . S
C610 C611 1.400 . S
C611 C605 1.491 1_554 S
C611 C610 1.400 . S
C611 C612 1.398 . S
C612 H600 0.950 . S
C612 C611 1.398 . S
C612 C613 1.391 . S
C613 H601 0.950 . S
C613 C609 1.393 . S
C613 C612 1.391 . S
H614 C622 0.950 . S
H615 C627 0.950 . S
H616 C624 0.950 1_565 S
H617 C626 0.950 1_554 S
H618 C628 0.950 . S
H619 C630 0.950 1_545 S
H620 C632 0.950 1_556 S
H621 C633 0.950 . S
C622 H614 0.950 . S
C622 C623 1.386 . S
C622 C624 1.391 . S
C623 C622 1.386 . S
C623 C627 1.393 . S
C624 H616 0.950 1_545 S
C624 C622 1.391 . S
C624 C625 1.400 . S
C625 C624 1.400 . S
C625 C626 1.398 . S
C625 C631 1.491 1_546 S
C626 H617 0.950 1_556 S
C626 C625 1.398 . S
C626 C627 1.391 . S
C627 H615 0.950 . S
C627 C623 1.393 . S
C627 C626 1.391 . S
C628 H618 0.950 . S
C628 C629 1.386 . S
C628 C630 1.391 . S
C629 C628 1.386 . S
C629 C633 1.393 . S
C630 H619 0.950 1_565 S
C630 C628 1.391 . S
C630 C631 1.400 . S
C631 C625 1.491 1_564 S
C631 C630 1.400 . S
C631 C632 1.398 . S
C632 H620 0.950 1_554 S
C632 C631 1.398 . S
C632 C633 1.391 . S
C633 H621 0.950 . S
C633 C629 1.393 . S
C633 C632 1.391 . S
H634 C642 0.950 . S
H635 C647 0.950 . S
H636 C644 0.950 . S
H637 C646 0.950 . S
H638 C648 0.950 . S
H639 C650 0.950 . S
H640 C652 0.950 . S
H641 C653 0.950 . S
C642 H634 0.950 . S
C642 C643 1.386 . S
C642 C644 1.391 . S
C643 C642 1.386 . S
C643 C647 1.393 . S
C644 H636 0.950 . S
C644 C642 1.391 . S
C644 C645 1.400 . S
C645 C644 1.400 . S
C645 C646 1.398 . S
C645 C651 1.491 1_454 S
C646 H637 0.950 . S
C646 C645 1.398 . S
C646 C647 1.391 . S
C647 H635 0.950 . S
C647 C643 1.393 . S
C647 C646 1.391 . S
C648 H638 0.950 . S
C648 C649 1.386 . S
C648 C650 1.391 . S
C649 C648 1.386 . S
C649 C653 1.393 . S
C650 H639 0.950 . S
C650 C648 1.391 . S
C650 C651 1.400 . S
C651 C645 1.491 1_656 S
C651 C650 1.400 . S
C651 C652 1.398 . S
C652 H640 0.950 . S
C652 C651 1.398 . S
C652 C653 1.391 . S
C653 H641 0.950 . S
C653 C649 1.393 . S
C653 C652 1.391 . S
H654 C662 0.950 . S
H655 C667 0.950 . S
H656 C664 0.950 . S
H657 C666 0.950 1_556 S
H658 C668 0.950 . S
H659 C670 0.950 . S
H660 C672 0.950 1_554 S
H661 C673 0.950 . S
C662 H654 0.950 . S
C662 C663 1.386 . S
C662 C664 1.391 . S
C663 C662 1.386 . S
C663 C667 1.393 . S
C664 H656 0.950 . S
C664 C662 1.391 . S
C664 C665 1.400 . S
C665 C664 1.400 . S
C665 C666 1.398 . S
C665 C671 1.491 1_554 S
C666 H657 0.950 1_554 S
C666 C665 1.398 . S
C666 C667 1.391 . S
C667 H655 0.950 . S
C667 C663 1.393 . S
C667 C666 1.391 . S
C668 H658 0.950 . S
C668 C669 1.386 . S
C668 C670 1.391 . S
C669 C668 1.386 . S
C669 C673 1.393 . S
C670 H659 0.950 . S
C670 C668 1.391 . S
C670 C671 1.400 . S
C671 C665 1.491 1_556 S
C671 C670 1.400 . S
C671 C672 1.398 . S
C672 H660 0.950 1_556 S
C672 C671 1.398 . S
C672 C673 1.391 . S
C673 H661 0.950 . S
C673 C669 1.393 . S
C673 C672 1.391 . S
H674 C682 0.950 . S
H675 C687 0.950 . S
H676 C684 0.950 . S
H677 C686 0.950 1_565 S
H678 C688 0.950 . S
H679 C690 0.950 . S
H680 C692 0.950 1_545 S
H681 C693 0.950 . S
C682 H674 0.950 . S
C682 C683 1.386 . S
C682 C684 1.391 . S
C683 C682 1.386 . S
C683 C687 1.393 . S
C684 H676 0.950 . S
C684 C682 1.391 . S
C684 C685 1.400 . S
C685 C684 1.400 . S
C685 C686 1.398 . S
C685 C691 1.491 1_546 S
C686 H677 0.950 1_545 S
C686 C685 1.398 . S
C686 C687 1.391 . S
C687 H675 0.950 . S
C687 C683 1.393 . S
C687 C686 1.391 . S
C688 H678 0.950 . S
C688 C689 1.386 . S
C688 C690 1.391 . S
C689 C688 1.386 . S
C689 C693 1.393 . S
C690 H679 0.950 . S
C690 C688 1.391 . S
C690 C691 1.400 . S
C691 C685 1.491 1_564 S
C691 C690 1.400 . S
C691 C692 1.398 . S
C692 H680 0.950 1_565 S
C692 C691 1.398 . S
C692 C693 1.391 . S
C693 H681 0.950 . S
C693 C689 1.393 . S
C693 C692 1.391 . S
H694 C702 0.950 . S
H695 C707 0.950 . S
H696 C704 0.950 . S
H697 C706 0.950 . S
H698 C708 0.950 . S
H699 C710 0.950 . S
H700 C712 0.950 . S
H701 C713 0.950 . S
C702 H694 0.950 . S
C702 C703 1.386 . S
C702 C704 1.391 . S
C703 C702 1.386 . S
C703 C707 1.393 . S
C704 H696 0.950 . S
C704 C702 1.391 . S
C704 C705 1.400 . S
C705 C704 1.400 . S
C705 C706 1.398 . S
C705 C711 1.491 1_656 S
C706 H697 0.950 . S
C706 C705 1.398 . S
C706 C707 1.391 . S
C707 H695 0.950 . S
C707 C703 1.393 . S
C707 C706 1.391 . S
C708 H698 0.950 . S
C708 C709 1.386 . S
C708 C710 1.391 . S
C709 C708 1.386 . S
C709 C713 1.393 . S
C710 H699 0.950 . S
C710 C708 1.391 . S
C710 C711 1.400 . S
C711 C705 1.491 1_454 S
C711 C710 1.400 . S
C711 C712 1.398 . S
C712 H700 0.950 . S
C712 C711 1.398 . S
C712 C713 1.391 . S
C713 H701 0.950 . S
C713 C709 1.393 . S
C713 C712 1.391 . S
H714 C722 0.950 . S
H715 C727 0.950 . S
H716 C724 0.950 . S
H717 C726 0.950 . S
H718 C728 0.950 . S
H719 C730 0.950 . S
H720 C732 0.950 . S
H721 C733 0.950 . S
C722 H714 0.950 . S
C722 C723 1.386 . S
C722 C724 1.391 . S
C723 C722 1.386 . S
C723 C727 1.393 . S
C724 H716 0.950 . S
C724 C722 1.391 . S
C724 C725 1.400 . S
C725 C724 1.400 . S
C725 C726 1.398 . S
C725 C731 1.491 . S
C726 H717 0.950 . S
C726 C725 1.398 . S
C726 C727 1.391 . S
C727 H715 0.950 . S
C727 C723 1.393 . S
C727 C726 1.391 . S
C728 H718 0.950 . S
C728 C729 1.386 . S
C728 C730 1.391 . S
C729 C728 1.386 . S
C729 C733 1.393 . S
C730 H719 0.950 . S
C730 C728 1.391 . S
C730 C731 1.400 . S
C731 C725 1.491 . S
C731 C730 1.400 . S
C731 C732 1.398 . S
C732 H720 0.950 . S
C732 C731 1.398 . S
C732 C733 1.391 . S
C733 H721 0.950 . S
C733 C729 1.393 . S
C733 C732 1.391 . S
H734 C742 0.950 . S
H735 C747 0.950 . S
H736 C744 0.950 . S
H737 C746 0.950 . S
H738 C748 0.950 . S
H739 C750 0.950 . S
H740 C752 0.950 . S
H741 C753 0.950 . S
C742 H734 0.950 . S
C742 C743 1.386 . S
C742 C744 1.391 . S
C743 C742 1.386 . S
C743 C747 1.393 . S
C744 H736 0.950 . S
C744 C742 1.391 . S
C744 C745 1.400 . S
C745 C744 1.400 . S
C745 C746 1.398 . S
C745 C751 1.491 . S
C746 H737 0.950 . S
C746 C745 1.398 . S
C746 C747 1.391 . S
C747 H735 0.950 . S
C747 C743 1.393 . S
C747 C746 1.391 . S
C748 H738 0.950 . S
C748 C749 1.386 . S
C748 C750 1.391 . S
C749 C748 1.386 . S
C749 C753 1.393 . S
C750 H739 0.950 . S
C750 C748 1.391 . S
C750 C751 1.400 . S
C751 C745 1.491 . S
C751 C750 1.400 . S
C751 C752 1.398 . S
C752 H740 0.950 . S
C752 C751 1.398 . S
C752 C753 1.391 . S
C753 H741 0.950 . S
C753 C749 1.393 . S
C753 C752 1.391 . S
H754 C762 0.950 . S
H755 C767 0.950 . S
H756 C764 0.950 . S
H757 C766 0.950 . S
H758 C768 0.950 . S
H759 C770 0.950 . S
H760 C772 0.950 . S
H761 C773 0.950 . S
C762 H754 0.950 . S
C762 C763 1.386 . S
C762 C764 1.391 . S
C763 C762 1.386 . S
C763 C767 1.393 . S
C764 H756 0.950 . S
C764 C762 1.391 . S
C764 C765 1.400 . S
C765 C764 1.400 . S
C765 C766 1.398 . S
C765 C771 1.491 . S
C766 H757 0.950 . S
C766 C765 1.398 . S
C766 C767 1.391 . S
C767 H755 0.950 . S
C767 C763 1.393 . S
C767 C766 1.391 . S
C768 H758 0.950 . S
C768 C769 1.386 . S
C768 C770 1.391 . S
C769 C768 1.386 . S
C769 C773 1.393 . S
C770 H759 0.950 . S
C770 C768 1.391 . S
C770 C771 1.400 . S
C771 C765 1.491 . S
C771 C770 1.400 . S
C771 C772 1.398 . S
C772 H760 0.950 . S
C772 C771 1.398 . S
C772 C773 1.391 . S
C773 H761 0.950 . S
C773 C769 1.393 . S
C773 C772 1.391 . S
H774 C782 0.950 . S
H775 C787 0.950 . S
H776 C784 0.950 . S
H777 C786 0.950 . S
H778 C788 0.950 . S
H779 C790 0.950 . S
H780 C792 0.950 . S
H781 C793 0.950 . S
C782 H774 0.950 . S
C782 C783 1.386 . S
C782 C784 1.391 . S
C783 C782 1.386 . S
C783 C787 1.393 . S
C784 H776 0.950 . S
C784 C782 1.391 . S
C784 C785 1.400 . S
C785 C784 1.400 . S
C785 C786 1.398 . S
C785 C791 1.491 . S
C786 H777 0.950 . S
C786 C785 1.398 . S
C786 C787 1.391 . S
C787 H775 0.950 . S
C787 C783 1.393 . S
C787 C786 1.391 . S
C788 H778 0.950 . S
C788 C789 1.386 . S
C788 C790 1.391 . S
C789 C788 1.386 . S
C789 C793 1.393 . S
C790 H779 0.950 . S
C790 C788 1.391 . S
C790 C791 1.400 . S
C791 C785 1.491 . S
C791 C790 1.400 . S
C791 C792 1.398 . S
C792 H780 0.950 . S
C792 C791 1.398 . S
C792 C793 1.391 . S
C793 H781 0.950 . S
C793 C789 1.393 . S
C793 C792 1.391 . S
H794 C802 0.950 . S
H795 C807 0.950 . S
H796 C804 0.950 . S
H797 C806 0.950 . S
H798 C808 0.950 . S
H799 C810 0.950 . S
H800 C812 0.950 . S
H801 C813 0.950 . S
C802 H794 0.950 . S
C802 C803 1.386 . S
C802 C804 1.391 . S
C803 C802 1.386 . S
C803 C807 1.393 . S
C804 H796 0.950 . S
C804 C802 1.391 . S
C804 C805 1.400 . S
C805 C804 1.400 . S
C805 C806 1.398 . S
C805 C811 1.491 . S
C806 H797 0.950 . S
C806 C805 1.398 . S
C806 C807 1.391 . S
C807 H795 0.950 . S
C807 C803 1.393 . S
C807 C806 1.391 . S
C808 H798 0.950 . S
C808 C809 1.386 . S
C808 C810 1.391 . S
C809 C808 1.386 . S
C809 C813 1.393 . S
C810 H799 0.950 . S
C810 C808 1.391 . S
C810 C811 1.400 . S
C811 C805 1.491 . S
C811 C810 1.400 . S
C811 C812 1.398 . S
C812 H800 0.950 . S
C812 C811 1.398 . S
C812 C813 1.391 . S
C813 H801 0.950 . S
C813 C809 1.393 . S
C813 C812 1.391 . S
H814 C822 0.950 . S
H815 C827 0.950 . S
H816 C824 0.950 . S
H817 C826 0.950 . S
H818 C828 0.950 . S
H819 C830 0.950 . S
H820 C832 0.950 . S
H821 C833 0.950 . S
C822 H814 0.950 . S
C822 C823 1.386 . S
C822 C824 1.391 . S
C823 C822 1.386 . S
C823 C827 1.393 . S
C824 H816 0.950 . S
C824 C822 1.391 . S
C824 C825 1.400 . S
C825 C824 1.400 . S
C825 C826 1.398 . S
C825 C831 1.491 . S
C826 H817 0.950 . S
C826 C825 1.398 . S
C826 C827 1.391 . S
C827 H815 0.950 . S
C827 C823 1.393 . S
C827 C826 1.391 . S
C828 H818 0.950 . S
C828 C829 1.386 . S
C828 C830 1.391 . S
C829 C828 1.386 . S
C829 C833 1.393 . S
C830 H819 0.950 . S
C830 C828 1.391 . S
C830 C831 1.400 . S
C831 C825 1.491 . S
C831 C830 1.400 . S
C831 C832 1.398 . S
C832 H820 0.950 . S
C832 C831 1.398 . S
C832 C833 1.391 . S
C833 H821 0.950 . S
C833 C829 1.393 . S
C833 C832 1.391 . S
H834 C842 0.950 . S
H835 C847 0.950 . S
H836 C844 0.950 . S
H837 C846 0.950 . S
H838 C848 0.950 . S
H839 C850 0.950 . S
H840 C852 0.950 . S
H841 C853 0.950 . S
C842 H834 0.950 . S
C842 C843 1.386 . S
C842 C844 1.391 . S
C843 C842 1.386 . S
C843 C847 1.393 . S
C844 H836 0.950 . S
C844 C842 1.391 . S
C844 C845 1.400 . S
C845 C844 1.400 . S
C845 C846 1.398 . S
C845 C851 1.491 . S
C846 H837 0.950 . S
C846 C845 1.398 . S
C846 C847 1.391 . S
C847 H835 0.950 . S
C847 C843 1.393 . S
C847 C846 1.391 . S
C848 H838 0.950 . S
C848 C849 1.386 . S
C848 C850 1.391 . S
C849 C848 1.386 . S
C849 C853 1.393 . S
C850 H839 0.950 . S
C850 C848 1.391 . S
C850 C851 1.400 . S
C851 C845 1.491 . S
C851 C850 1.400 . S
C851 C852 1.398 . S
C852 H840 0.950 . S
C852 C851 1.398 . S
C852 C853 1.391 . S
C853 H841 0.950 . S
C853 C849 1.393 . S
C853 C852 1.391 . S
H854 C862 0.950 . S
H855 C867 0.950 . S
H856 C864 0.950 . S
H857 C866 0.950 . S
H858 C868 0.950 . S
H859 C870 0.950 . S
H860 C872 0.950 . S
H861 C873 0.950 . S
C862 H854 0.950 . S
C862 C863 1.386 . S
C862 C864 1.391 . S
C863 C862 1.386 . S
C863 C867 1.393 . S
C864 H856 0.950 . S
C864 C862 1.391 . S
C864 C865 1.400 . S
C865 C864 1.400 . S
C865 C866 1.398 . S
C865 C871 1.491 . S
C866 H857 0.950 . S
C866 C865 1.398 . S
C866 C867 1.391 . S
C867 H855 0.950 . S
C867 C863 1.393 . S
C867 C866 1.391 . S
C868 H858 0.950 . S
C868 C869 1.386 . S
C868 C870 1.391 . S
C869 C868 1.386 . S
C869 C873 1.393 . S
C870 H859 0.950 . S
C870 C868 1.391 . S
C870 C871 1.400 . S
C871 C865 1.491 . S
C871 C870 1.400 . S
C871 C872 1.398 . S
C872 H860 0.950 . S
C872 C871 1.398 . S
C872 C873 1.391 . S
C873 H861 0.950 . S
C873 C869 1.393 . S
C873 C872 1.391 . S
H874 C882 0.950 . S
H875 C887 0.950 . S
H876 C884 0.950 . S
H877 C886 0.950 . S
H878 C888 0.950 . S
H879 C890 0.950 . S
H880 C892 0.950 . S
H881 C893 0.950 . S
C882 H874 0.950 . S
C882 C883 1.386 . S
C882 C884 1.391 . S
C883 C882 1.386 . S
C883 C887 1.393 . S
C884 H876 0.950 . S
C884 C882 1.391 . S
C884 C885 1.400 . S
C885 C884 1.400 . S
C885 C886 1.398 . S
C885 C891 1.491 . S
C886 H877 0.950 . S
C886 C885 1.398 . S
C886 C887 1.391 . S
C887 H875 0.950 . S
C887 C883 1.393 . S
C887 C886 1.391 . S
C888 H878 0.950 . S
C888 C889 1.386 . S
C888 C890 1.391 . S
C889 C888 1.386 . S
C889 C893 1.393 . S
C890 H879 0.950 . S
C890 C888 1.391 . S
C890 C891 1.400 . S
C891 C885 1.491 . S
C891 C890 1.400 . S
C891 C892 1.398 . S
C892 H880 0.950 . S
C892 C891 1.398 . S
C892 C893 1.391 . S
C893 H881 0.950 . S
C893 C889 1.393 . S
C893 C892 1.391 . S
H894 C902 0.950 . S
H895 C907 0.950 . S
H896 C904 0.950 . S
H897 C906 0.950 . S
H898 C908 0.950 . S
H899 C910 0.950 . S
H900 C912 0.950 . S
H901 C913 0.950 . S
C902 H894 0.950 . S
C902 C903 1.386 . S
C902 C904 1.391 . S
C903 C902 1.386 . S
C903 C907 1.393 . S
C904 H896 0.950 . S
C904 C902 1.391 . S
C904 C905 1.400 . S
C905 C904 1.400 . S
C905 C906 1.398 . S
C905 C911 1.491 . S
C906 H897 0.950 . S
C906 C905 1.398 . S
C906 C907 1.391 . S
C907 H895 0.950 . S
C907 C903 1.393 . S
C907 C906 1.391 . S
C908 H898 0.950 . S
C908 C909 1.386 . S
C908 C910 1.391 . S
C909 C908 1.386 . S
C909 C913 1.393 . S
C910 H899 0.950 . S
C910 C908 1.391 . S
C910 C911 1.400 . S
C911 C905 1.491 . S
C911 C910 1.400 . S
C911 C912 1.398 . S
C912 H900 0.950 . S
C912 C911 1.398 . S
C912 C913 1.391 . S
C913 H901 0.950 . S
C913 C909 1.393 . S
C913 C912 1.391 . S
H914 C922 0.950 . S
H915 C927 0.950 . S
H916 C924 0.950 . S
H917 C926 0.950 . S
H918 C928 0.950 . S
H919 C930 0.950 . S
H920 C932 0.950 . S
H921 C933 0.950 . S
C922 H914 0.950 . S
C922 C923 1.386 . S
C922 C924 1.391 . S
C923 C922 1.386 . S
C923 C927 1.393 . S
C924 H916 0.950 . S
C924 C922 1.391 . S
C924 C925 1.400 . S
C925 C924 1.400 . S
C925 C926 1.398 . S
C925 C931 1.491 . S
C926 H917 0.950 . S
C926 C925 1.398 . S
C926 C927 1.391 . S
C927 H915 0.950 . S
C927 C923 1.393 . S
C927 C926 1.391 . S
C928 H918 0.950 . S
C928 C929 1.386 . S
C928 C930 1.391 . S
C929 C928 1.386 . S
C929 C933 1.393 . S
C930 H919 0.950 . S
C930 C928 1.391 . S
C930 C931 1.400 . S
C931 C925 1.491 . S
C931 C930 1.400 . S
C931 C932 1.398 . S
C932 H920 0.950 . S
C932 C931 1.398 . S
C932 C933 1.391 . S
C933 H921 0.950 . S
C933 C929 1.393 . S
C933 C932 1.391 . S
H934 C942 0.950 . S
H935 C947 0.950 . S
H936 C944 0.950 . S
H937 C946 0.950 . S
H938 C948 0.950 . S
H939 C950 0.950 . S
H940 C952 0.950 . S
H941 C953 0.950 . S
C942 H934 0.950 . S
C942 C943 1.386 . S
C942 C944 1.391 . S
C943 C942 1.386 . S
C943 C947 1.393 . S
C944 H936 0.950 . S
C944 C942 1.391 . S
C944 C945 1.400 . S
C945 C944 1.400 . S
C945 C946 1.398 . S
C945 C951 1.491 . S
C946 H937 0.950 . S
C946 C945 1.398 . S
C946 C947 1.391 . S
C947 H935 0.950 . S
C947 C943 1.393 . S
C947 C946 1.391 . S
C948 H938 0.950 . S
C948 C949 1.386 . S
C948 C950 1.391 . S
C949 C948 1.386 . S
C949 C953 1.393 . S
C950 H939 0.950 . S
C950 C948 1.391 . S
C950 C951 1.400 . S
C951 C945 1.491 . S
C951 C950 1.400 . S
C951 C952 1.398 . S
C952 H940 0.950 . S
C952 C951 1.398 . S
C952 C953 1.391 . S
C953 H941 0.950 . S
C953 C949 1.393 . S
C953 C952 1.391 . S
H954 C962 0.950 . S
H955 C967 0.950 . S
H956 C964 0.950 . S
H957 C966 0.950 . S
H958 C968 0.950 . S
H959 C970 0.950 . S
H960 C972 0.950 . S
H961 C973 0.950 . S
C962 H954 0.950 . S
C962 C963 1.386 . S
C962 C964 1.391 . S
C963 C962 1.386 . S
C963 C967 1.393 . S
C964 H956 0.950 . S
C964 C962 1.391 . S
C964 C965 1.400 . S
C965 C964 1.400 . S
C965 C966 1.398 . S
C965 C971 1.491 . S
C966 H957 0.950 . S
C966 C965 1.398 . S
C966 C967 1.391 . S
C967 H955 0.950 . S
C967 C963 1.393 . S
C967 C966 1.391 . S
C968 H958 0.950 . S
C968 C969 1.386 . S
C968 C970 1.391 . S
C969 C968 1.386 . S
C969 C973 1.393 . S
C970 H959 0.950 . S
C970 C968 1.391 . S
C970 C971 1.400 . S
C971 C965 1.491 . S
C971 C970 1.400 . S
C971 C972 1.398 . S
C972 H960 0.950 . S
C972 C971 1.398 . S
C972 C973 1.391 . S
C973 H961 0.950 . S
C973 C969 1.393 . S
C973 C972 1.391 . S
H974 C982 0.950 . S
H975 C987 0.950 . S
H976 C984 0.950 . S
H977 C986 0.950 . S
H978 C988 0.950 . S
H979 C990 0.950 . S
H980 C992 0.950 . S
H981 C993 0.950 . S
C982 H974 0.950 . S
C982 C983 1.386 . S
C982 C984 1.391 . S
C983 C982 1.386 . S
C983 C987 1.393 . S
C984 H976 0.950 . S
C984 C982 1.391 . S
C984 C985 1.400 . S
C985 C984 1.400 . S
C985 C986 1.398 . S
C985 C991 1.491 . S
C986 H977 0.950 . S
C986 C985 1.398 . S
C986 C987 1.391 . S
C987 H975 0.950 . S
C987 C983 1.393 . S
C987 C986 1.391 . S
C988 H978 0.950 . S
C988 C989 1.386 . S
C988 C990 1.391 . S
C989 C988 1.386 . S
C989 C993 1.393 . S
C990 H979 0.950 . S
C990 C988 1.391 . S
C990 C991 1.400 . S
C991 C985 1.491 . S
C991 C990 1.400 . S
C991 C992 1.398 . S
C992 H980 0.950 . S
C992 C991 1.398 . S
C992 C993 1.391 . S
C993 H981 0.950 . S
C993 C989 1.393 . S
C993 C992 1.391 . S
H994 C1002 0.950 . S
H995 C1007 0.950 . S
H996 C1004 0.950 . S
H997 C1006 0.950 . S
H998 C1008 0.950 . S
H999 C1010 0.950 . S
H1000 C1012 0.950 . S
H1001 C1013 0.950 . S
C1002 H994 0.950 . S
C1002 C1003 1.386 . S
C1002 C1004 1.391 . S
C1003 C1002 1.386 . S
C1003 C1007 1.393 . S
C1004 H996 0.950 . S
C1004 C1002 1.391 . S
C1004 C1005 1.400 . S
C1005 C1004 1.400 . S
C1005 C1006 1.398 . S
C1005 C1011 1.491 . S
C1006 H997 0.950 . S
C1006 C1005 1.398 . S
C1006 C1007 1.391 . S
C1007 H995 0.950 . S
C1007 C1003 1.393 . S
C1007 C1006 1.391 . S
C1008 H998 0.950 . S
C1008 C1009 1.386 . S
C1008 C1010 1.391 . S
C1009 C1008 1.386 . S
C1009 C1013 1.393 . S
C1010 H999 0.950 . S
C1010 C1008 1.391 . S
C1010 C1011 1.400 . S
C1011 C1005 1.491 . S
C1011 C1010 1.400 . S
C1011 C1012 1.398 . S
C1012 H1000 0.950 . S
C1012 C1011 1.398 . S
C1012 C1013 1.391 . S
C1013 H1001 0.950 . S
C1013 C1009 1.393 . S
C1013 C1012 1.391 . S
H1014 C1022 0.950 . S
H1015 C1027 0.950 . S
H1016 C1024 0.950 . S
H1017 C1026 0.950 . S
H1018 C1028 0.950 . S
H1019 C1030 0.950 . S
H1020 C1032 0.950 . S
H1021 C1033 0.950 . S
C1022 H1014 0.950 . S
C1022 C1023 1.386 . S
C1022 C1024 1.391 . S
C1023 C1022 1.386 . S
C1023 C1027 1.393 . S
C1024 H1016 0.950 . S
C1024 C1022 1.391 . S
C1024 C1025 1.400 . S
C1025 C1024 1.400 . S
C1025 C1026 1.398 . S
C1025 C1031 1.491 . S
C1026 H1017 0.950 . S
C1026 C1025 1.398 . S
C1026 C1027 1.391 . S
C1027 H1015 0.950 . S
C1027 C1023 1.393 . S
C1027 C1026 1.391 . S
C1028 H1018 0.950 . S
C1028 C1029 1.386 . S
C1028 C1030 1.391 . S
C1029 C1028 1.386 . S
C1029 C1033 1.393 . S
C1030 H1019 0.950 . S
C1030 C1028 1.391 . S
C1030 C1031 1.400 . S
C1031 C1025 1.491 . S
C1031 C1030 1.400 . S
C1031 C1032 1.398 . S
C1032 H1020 0.950 . S
C1032 C1031 1.398 . S
C1032 C1033 1.391 . S
C1033 H1021 0.950 . S
C1033 C1029 1.393 . S
C1033 C1032 1.391 . S
H1034 C1042 0.950 . S
H1035 C1047 0.950 . S
H1036 C1044 0.950 . S
H1037 C1046 0.950 . S
H1038 C1048 0.950 . S
H1039 C1050 0.950 . S
H1040 C1052 0.950 . S
H1041 C1053 0.950 . S
C1042 H1034 0.950 . S
C1042 C1043 1.386 . S
C1042 C1044 1.391 . S
C1043 C1042 1.386 . S
C1043 C1047 1.393 . S
C1044 H1036 0.950 . S
C1044 C1042 1.391 . S
C1044 C1045 1.400 . S
C1045 C1044 1.400 . S
C1045 C1046 1.398 . S
C1045 C1051 1.491 . S
C1046 H1037 0.950 . S
C1046 C1045 1.398 . S
C1046 C1047 1.391 . S
C1047 H1035 0.950 . S
C1047 C1043 1.393 . S
C1047 C1046 1.391 . S
C1048 H1038 0.950 . S
C1048 C1049 1.386 . S
C1048 C1050 1.391 . S
C1049 C1048 1.386 . S
C1049 C1053 1.393 . S
C1050 H1039 0.950 . S
C1050 C1048 1.391 . S
C1050 C1051 1.400 . S
C1051 C1045 1.491 . S
C1051 C1050 1.400 . S
C1051 C1052 1.398 . S
C1052 H1040 0.950 . S
C1052 C1051 1.398 . S
C1052 C1053 1.391 . S
C1053 H1041 0.950 . S
C1053 C1049 1.393 . S
C1053 C1052 1.391 . S
H1054 C1062 0.950 . S
H1055 C1067 0.950 . S
H1056 C1064 0.950 . S
H1057 C1066 0.950 . S
H1058 C1068 0.950 . S
H1059 C1070 0.950 . S
H1060 C1072 0.950 . S
H1061 C1073 0.950 . S
C1062 H1054 0.950 . S
C1062 C1063 1.386 . S
C1062 C1064 1.391 . S
C1063 C1062 1.386 . S
C1063 C1067 1.393 . S
C1064 H1056 0.950 . S
C1064 C1062 1.391 . S
C1064 C1065 1.400 . S
C1065 C1064 1.400 . S
C1065 C1066 1.398 . S
C1065 C1071 1.491 . S
C1066 H1057 0.950 . S
C1066 C1065 1.398 . S
C1066 C1067 1.391 . S
C1067 H1055 0.950 . S
C1067 C1063 1.393 . S
C1067 C1066 1.391 . S
C1068 H1058 0.950 . S
C1068 C1069 1.386 . S
C1068 C1070 1.391 . S
C1069 C1068 1.386 . S
C1069 C1073 1.393 . S
C1070 H1059 0.950 . S
C1070 C1068 1.391 . S
C1070 C1071 1.400 . S
C1071 C1065 1.491 . S
C1071 C1070 1.400 . S
C1071 C1072 1.398 . S
C1072 H1060 0.950 . S
C1072 C1071 1.398 . S
C1072 C1073 1.391 . S
C1073 H1061 0.950 . S
C1073 C1069 1.393 . S
C1073 C1072 1.391 . S
H1074 C1082 0.950 . S
H1075 C1087 0.950 . S
H1076 C1084 0.950 . S
H1077 C1086 0.945 1_554 S
H1078 C1088 0.950 . S
H1079 C1090 0.950 . S
H1080 C1092 0.945 1_556 S
H1081 C1093 0.950 . S
C1082 H1074 0.950 . S
C1082 C1083 1.386 . S
C1082 C1084 1.391 . S
C1083 C1082 1.386 . S
C1083 C1087 1.393 . S
C1084 H1076 0.950 . S
C1084 C1082 1.391 . S
C1084 C1085 1.400 . S
C1085 C1084 1.400 . S
C1085 C1086 1.400 . S
C1085 C1091 1.491 1_456 S
C1086 H1077 0.945 1_556 S
C1086 C1085 1.400 . S
C1086 C1087 1.394 . S
C1087 H1075 0.950 . S
C1087 C1083 1.393 . S
C1087 C1086 1.394 . S
C1088 H1078 0.950 . S
C1088 C1089 1.386 . S
C1088 C1090 1.391 . S
C1089 C1088 1.386 . S
C1089 C1093 1.393 . S
C1090 H1079 0.950 . S
C1090 C1088 1.391 . S
C1090 C1091 1.400 . S
C1091 C1085 1.491 1_654 S
C1091 C1090 1.400 . S
C1091 C1092 1.400 . S
C1092 H1080 0.945 1_554 S
C1092 C1091 1.400 . S
C1092 C1093 1.394 . S
C1093 H1081 0.950 . S
C1093 C1089 1.393 . S
C1093 C1092 1.394 . S
H1094 C1102 0.950 . S
H1095 C1107 0.950 . S
H1096 C1104 0.950 . S
H1097 C1106 0.950 . S
H1098 C1108 0.950 . S
H1099 C1110 0.950 . S
H1100 C1112 0.950 . S
H1101 C1113 0.950 . S
C1102 H1094 0.950 . S
C1102 C1103 1.386 1_554 S
C1102 C1104 1.391 . S
C1103 C1102 1.386 1_556 S
C1103 C1107 1.393 . S
C1104 H1096 0.950 . S
C1104 C1102 1.391 . S
C1104 C1105 1.400 1_554 S
C1105 C1104 1.400 1_556 S
C1105 C1106 1.398 . S
C1105 C1111 1.491 1_556 S
C1106 H1097 0.950 . S
C1106 C1105 1.398 . S
C1106 C1107 1.391 . S
C1107 H1095 0.950 . S
C1107 C1103 1.393 . S
C1107 C1106 1.391 . S
C1108 H1098 0.950 . S
C1108 C1109 1.386 1_556 S
C1108 C1110 1.391 . S
C1109 C1108 1.386 1_554 S
C1109 C1113 1.393 . S
C1110 H1099 0.950 . S
C1110 C1108 1.391 . S
C1110 C1111 1.400 1_556 S
C1111 C1105 1.491 1_554 S
C1111 C1110 1.400 1_554 S
C1111 C1112 1.398 . S
C1112 H1100 0.950 . S
C1112 C1111 1.398 . S
C1112 C1113 1.391 . S
C1113 H1101 0.950 . S
C1113 C1109 1.393 . S
C1113 C1112 1.391 . S
H1114 C1122 0.950 . S
H1115 C1127 0.950 . S
H1116 C1124 0.950 . S
H1117 C1126 0.950 . S
H1118 C1128 0.950 . S
H1119 C1130 0.950 . S
H1120 C1132 0.950 . S
H1121 C1133 0.950 . S
C1122 H1114 0.950 . S
C1122 C1123 1.386 . S
C1122 C1124 1.391 . S
C1123 C1122 1.386 . S
C1123 C1127 1.393 1_554 S
C1124 H1116 0.950 . S
C1124 C1122 1.391 . S
C1124 C1125 1.400 . S
C1125 C1124 1.400 . S
C1125 C1126 1.398 1_554 S
C1125 C1131 1.491 1_544 S
C1126 H1117 0.950 . S
C1126 C1125 1.398 1_556 S
C1126 C1127 1.391 . S
C1127 H1115 0.950 . S
C1127 C1123 1.393 1_556 S
C1127 C1126 1.391 . S
C1128 H1118 0.950 . S
C1128 C1129 1.386 . S
C1128 C1130 1.391 . S
C1129 C1128 1.386 . S
C1129 C1133 1.393 1_556 S
C1130 H1119 0.950 . S
C1130 C1128 1.391 . S
C1130 C1131 1.400 . S
C1131 C1125 1.491 1_566 S
C1131 C1130 1.400 . S
C1131 C1132 1.398 1_556 S
C1132 H1120 0.950 . S
C1132 C1131 1.398 1_554 S
C1132 C1133 1.391 . S
C1133 H1121 0.950 . S
C1133 C1129 1.393 1_554 S
C1133 C1132 1.391 . S
H1134 C1142 0.950 . S
H1135 C1147 0.950 . S
H1136 C1144 0.950 . S
H1137 C1146 0.950 . S
H1138 C1148 0.950 . S
H1139 C1150 0.950 . S
H1140 C1152 0.950 . S
H1141 C1153 0.950 . S
C1142 H1134 0.950 . S
C1142 C1143 1.386 . S
C1142 C1144 1.391 . S
C1143 C1142 1.386 . S
C1143 C1147 1.393 . S
C1144 H1136 0.950 . S
C1144 C1142 1.391 . S
C1144 C1145 1.400 . S
C1145 C1144 1.400 . S
C1145 C1146 1.398 . S
C1145 C1151 1.491 . S
C1146 H1137 0.950 . S
C1146 C1145 1.398 . S
C1146 C1147 1.391 . S
C1147 H1135 0.950 . S
C1147 C1143 1.393 . S
C1147 C1146 1.391 . S
C1148 H1138 0.950 . S
C1148 C1149 1.386 . S
C1148 C1150 1.391 . S
C1149 C1148 1.386 . S
C1149 C1153 1.393 . S
C1150 H1139 0.950 . S
C1150 C1148 1.391 . S
C1150 C1151 1.400 . S
C1151 C1145 1.491 . S
C1151 C1150 1.400 . S
C1151 C1152 1.398 . S
C1152 H1140 0.950 . S
C1152 C1151 1.398 . S
C1152 C1153 1.391 . S
C1153 H1141 0.950 . S
C1153 C1149 1.393 . S
C1153 C1152 1.391 . S
H1154 C1162 0.950 . S
H1155 C1167 0.950 . S
H1156 C1164 0.950 1_565 S
H1157 C1166 0.950 . S
H1158 C1168 0.950 . S
H1159 C1170 0.950 1_545 S
H1160 C1172 0.950 . S
H1161 C1173 0.950 . S
C1162 H1154 0.950 . S
C1162 C1163 1.386 . S
C1162 C1164 1.391 . S
C1163 C1162 1.386 . S
C1163 C1167 1.393 . S
C1164 H1156 0.950 1_545 S
C1164 C1162 1.391 . S
C1164 C1165 1.400 . S
C1165 C1164 1.400 . S
C1165 C1166 1.398 . S
C1165 C1171 1.491 1_545 S
C1166 H1157 0.950 . S
C1166 C1165 1.398 . S
C1166 C1167 1.391 . S
C1167 H1155 0.950 . S
C1167 C1163 1.393 . S
C1167 C1166 1.391 . S
C1168 H1158 0.950 . S
C1168 C1169 1.386 . S
C1168 C1170 1.391 . S
C1169 C1168 1.386 . S
C1169 C1173 1.393 . S
C1170 H1159 0.950 1_565 S
C1170 C1168 1.391 . S
C1170 C1171 1.400 . S
C1171 C1165 1.491 1_565 S
C1171 C1170 1.400 . S
C1171 C1172 1.398 . S
C1172 H1160 0.950 . S
C1172 C1171 1.398 . S
C1172 C1173 1.391 . S
C1173 H1161 0.950 . S
C1173 C1169 1.393 . S
C1173 C1172 1.391 . S
H1174 C1182 0.950 . S
H1175 C1187 0.950 . S
H1176 C1184 0.950 . S
H1177 C1186 0.950 1_655 S
H1178 C1188 0.950 . S
H1179 C1190 0.950 . S
H1180 C1192 0.950 1_455 S
H1181 C1193 0.950 . S
C1182 H1174 0.950 . S
C1182 C1183 1.386 . S
C1182 C1184 1.391 . S
C1183 C1182 1.386 . S
C1183 C1187 1.393 . S
C1184 H1176 0.950 . S
C1184 C1182 1.391 . S
C1184 C1185 1.400 . S
C1185 C1184 1.400 . S
C1185 C1186 1.398 . S
C1185 C1191 1.491 1_455 S
C1186 H1177 0.950 1_455 S
C1186 C1185 1.398 . S
C1186 C1187 1.391 . S
C1187 H1175 0.950 . S
C1187 C1183 1.393 . S
C1187 C1186 1.391 . S
C1188 H1178 0.950 . S
C1188 C1189 1.386 . S
C1188 C1190 1.391 . S
C1189 C1188 1.386 . S
C1189 C1193 1.393 . S
C1190 H1179 0.950 . S
C1190 C1188 1.391 . S
C1190 C1191 1.400 . S
C1191 C1185 1.491 1_655 S
C1191 C1190 1.400 . S
C1191 C1192 1.398 . S
C1192 H1180 0.950 1_655 S
C1192 C1191 1.398 . S
C1192 C1193 1.391 . S
C1193 H1181 0.950 . S
C1193 C1189 1.393 . S
C1193 C1192 1.391 . S
H1194 C1202 0.950 . S
H1195 C1207 0.950 . S
H1196 C1204 0.950 . S
H1197 C1206 0.950 . S
H1198 C1208 0.950 . S
H1199 C1210 0.950 . S
H1200 C1212 0.950 . S
H1201 C1213 0.950 . S
C1202 H1194 0.950 . S
C1202 C1203 1.386 . S
C1202 C1204 1.391 . S
C1203 C1202 1.386 . S
C1203 C1207 1.393 . S
C1204 H1196 0.950 . S
C1204 C1202 1.391 . S
C1204 C1205 1.400 . S
C1205 C1204 1.400 . S
C1205 C1206 1.398 . S
C1205 C1211 1.491 . S
C1206 H1197 0.950 . S
C1206 C1205 1.398 . S
C1206 C1207 1.391 . S
C1207 H1195 0.950 . S
C1207 C1203 1.393 . S
C1207 C1206 1.391 . S
C1208 H1198 0.950 . S
C1208 C1209 1.386 . S
C1208 C1210 1.391 . S
C1209 C1208 1.386 . S
C1209 C1213 1.393 . S
C1210 H1199 0.950 . S
C1210 C1208 1.391 . S
C1210 C1211 1.400 . S
C1211 C1205 1.491 . S
C1211 C1210 1.400 . S
C1211 C1212 1.398 . S
C1212 H1200 0.950 . S
C1212 C1211 1.398 . S
C1212 C1213 1.391 . S
C1213 H1201 0.950 . S
C1213 C1209 1.393 . S
C1213 C1212 1.391 . S
H1214 C1222 0.950 . S
H1215 C1227 0.950 . S
H1216 C1224 0.950 . S
H1217 C1226 0.950 . S
H1218 C1228 0.950 . S
H1219 C1230 0.950 . S
H1220 C1232 0.950 . S
H1221 C1233 0.950 . S
C1222 H1214 0.950 . S
C1222 C1223 1.386 . S
C1222 C1224 1.391 . S
C1223 C1222 1.386 . S
C1223 C1227 1.393 . S
C1224 H1216 0.950 . S
C1224 C1222 1.391 . S
C1224 C1225 1.400 . S
C1225 C1224 1.400 . S
C1225 C1226 1.398 . S
C1225 C1231 1.491 1_565 S
C1226 H1217 0.950 . S
C1226 C1225 1.398 . S
C1226 C1227 1.391 . S
C1227 H1215 0.950 . S
C1227 C1223 1.393 . S
C1227 C1226 1.391 . S
C1228 H1218 0.950 . S
C1228 C1229 1.386 . S
C1228 C1230 1.391 . S
C1229 C1228 1.386 . S
C1229 C1233 1.393 . S
C1230 H1219 0.950 . S
C1230 C1228 1.391 . S
C1230 C1231 1.400 . S
C1231 C1225 1.491 1_545 S
C1231 C1230 1.400 . S
C1231 C1232 1.398 . S
C1232 H1220 0.950 . S
C1232 C1231 1.398 . S
C1232 C1233 1.391 . S
C1233 H1221 0.950 . S
C1233 C1229 1.393 . S
C1233 C1232 1.391 . S
H1234 C1242 0.950 . S
H1235 C1247 0.950 . S
H1236 C1244 0.950 . S
H1237 C1246 0.950 . S
H1238 C1248 0.950 . S
H1239 C1250 0.950 . S
H1240 C1252 0.950 . S
H1241 C1253 0.950 . S
C1242 H1234 0.950 . S
C1242 C1243 1.386 . S
C1242 C1244 1.391 . S
C1243 C1242 1.386 . S
C1243 C1247 1.393 . S
C1244 H1236 0.950 . S
C1244 C1242 1.391 . S
C1244 C1245 1.400 . S
C1245 C1244 1.400 . S
C1245 C1246 1.398 . S
C1245 C1251 1.491 1_655 S
C1246 H1237 0.950 . S
C1246 C1245 1.398 . S
C1246 C1247 1.391 . S
C1247 H1235 0.950 . S
C1247 C1243 1.393 . S
C1247 C1246 1.391 . S
C1248 H1238 0.950 . S
C1248 C1249 1.386 . S
C1248 C1250 1.391 . S
C1249 C1248 1.386 . S
C1249 C1253 1.393 . S
C1250 H1239 0.950 . S
C1250 C1248 1.391 . S
C1250 C1251 1.400 . S
C1251 C1245 1.491 1_455 S
C1251 C1250 1.400 . S
C1251 C1252 1.398 . S
C1252 H1240 0.950 . S
C1252 C1251 1.398 . S
C1252 C1253 1.391 . S
C1253 H1241 0.950 . S
C1253 C1249 1.393 . S
C1253 C1252 1.391 . S
H1254 C1262 0.950 . S
H1255 C1267 0.950 . S
H1256 C1264 0.950 . S
H1257 C1266 0.950 . S
H1258 C1268 0.950 . S
H1259 C1270 0.950 . S
H1260 C1272 0.950 . S
H1261 C1273 0.950 . S
C1262 H1254 0.950 . S
C1262 C1263 1.386 . S
C1262 C1264 1.391 . S
C1263 C1262 1.386 . S
C1263 C1267 1.393 . S
C1264 H1256 0.950 . S
C1264 C1262 1.391 . S
C1264 C1265 1.400 . S
C1265 C1264 1.400 . S
C1265 C1266 1.398 . S
C1265 C1271 1.491 . S
C1266 H1257 0.950 . S
C1266 C1265 1.398 . S
C1266 C1267 1.391 . S
C1267 H1255 0.950 . S
C1267 C1263 1.393 . S
C1267 C1266 1.391 . S
C1268 H1258 0.950 . S
C1268 C1269 1.386 . S
C1268 C1270 1.391 . S
C1269 C1268 1.386 . S
C1269 C1273 1.393 . S
C1270 H1259 0.950 . S
C1270 C1268 1.391 . S
C1270 C1271 1.400 . S
C1271 C1265 1.491 . S
C1271 C1270 1.400 . S
C1271 C1272 1.398 . S
C1272 H1260 0.950 . S
C1272 C1271 1.398 . S
C1272 C1273 1.391 . S
C1273 H1261 0.950 . S
C1273 C1269 1.393 . S
C1273 C1272 1.391 . S
H1274 C1282 0.950 . S
H1275 C1287 0.950 . S
H1276 C1284 0.950 . S
H1277 C1286 0.950 . S
H1278 C1288 0.950 . S
H1279 C1290 0.950 . S
H1280 C1292 0.950 . S
H1281 C1293 0.950 . S
C1282 H1274 0.950 . S
C1282 C1283 1.386 . S
C1282 C1284 1.391 . S
C1283 C1282 1.386 . S
C1283 C1287 1.393 . S
C1284 H1276 0.950 . S
C1284 C1282 1.391 . S
C1284 C1285 1.400 . S
C1285 C1284 1.400 . S
C1285 C1286 1.398 . S
C1285 C1291 1.491 . S
C1286 H1277 0.950 . S
C1286 C1285 1.398 . S
C1286 C1287 1.391 . S
C1287 H1275 0.950 . S
C1287 C1283 1.393 . S
C1287 C1286 1.391 . S
C1288 H1278 0.950 . S
C1288 C1289 1.386 . S
C1288 C1290 1.391 . S
C1289 C1288 1.386 . S
C1289 C1293 1.393 . S
C1290 H1279 0.950 . S
C1290 C1288 1.391 . S
C1290 C1291 1.400 . S
C1291 C1285 1.491 . S
C1291 C1290 1.400 . S
C1291 C1292 1.398 . S
C1292 H1280 0.950 . S
C1292 C1291 1.398 . S
C1292 C1293 1.391 . S
C1293 H1281 0.950 . S
C1293 C1289 1.393 . S
C1293 C1292 1.391 . S
H1294 C1302 0.950 . S
H1295 C1307 0.950 . S
H1296 C1304 0.950 . S
H1297 C1306 0.950 . S
H1298 C1308 0.950 . S
H1299 C1310 0.950 . S
H1300 C1312 0.950 . S
H1301 C1313 0.950 . S
C1302 H1294 0.950 . S
C1302 C1303 1.386 . S
C1302 C1304 1.391 . S
C1303 C1302 1.386 . S
C1303 C1307 1.393 . S
C1304 H1296 0.950 . S
C1304 C1302 1.391 . S
C1304 C1305 1.400 . S
C1305 C1304 1.400 . S
C1305 C1306 1.398 . S
C1305 C1311 1.491 . S
C1306 H1297 0.950 . S
C1306 C1305 1.398 . S
C1306 C1307 1.391 . S
C1307 H1295 0.950 . S
C1307 C1303 1.393 . S
C1307 C1306 1.391 . S
C1308 H1298 0.950 . S
C1308 C1309 1.386 . S
C1308 C1310 1.391 . S
C1309 C1308 1.386 . S
C1309 C1313 1.393 . S
C1310 H1299 0.950 . S
C1310 C1308 1.391 . S
C1310 C1311 1.400 . S
C1311 C1305 1.491 . S
C1311 C1310 1.400 . S
C1311 C1312 1.398 . S
C1312 H1300 0.950 . S
C1312 C1311 1.398 . S
C1312 C1313 1.391 . S
C1313 H1301 0.950 . S
C1313 C1309 1.393 . S
C1313 C1312 1.391 . S
H1314 C1322 0.950 . S
H1315 C1327 0.950 . S
H1316 C1324 0.950 . S
H1317 C1326 0.950 . S
H1318 C1328 0.950 . S
H1319 C1330 0.950 . S
H1320 C1332 0.950 . S
H1321 C1333 0.950 . S
C1322 H1314 0.950 . S
C1322 C1323 1.386 . S
C1322 C1324 1.391 . S
C1323 C1322 1.386 . S
C1323 C1327 1.393 . S
C1324 H1316 0.950 . S
C1324 C1322 1.391 . S
C1324 C1325 1.400 . S
C1325 C1324 1.400 . S
C1325 C1326 1.398 . S
C1325 C1331 1.491 . S
C1326 H1317 0.950 . S
C1326 C1325 1.398 . S
C1326 C1327 1.391 . S
C1327 H1315 0.950 . S
C1327 C1323 1.393 . S
C1327 C1326 1.391 . S
C1328 H1318 0.950 . S
C1328 C1329 1.386 . S
C1328 C1330 1.391 . S
C1329 C1328 1.386 . S
C1329 C1333 1.393 . S
C1330 H1319 0.950 . S
C1330 C1328 1.391 . S
C1330 C1331 1.400 . S
C1331 C1325 1.491 . S
C1331 C1330 1.400 . S
C1331 C1332 1.398 . S
C1332 H1320 0.950 . S
C1332 C1331 1.398 . S
C1332 C1333 1.391 . S
C1333 H1321 0.950 . S
C1333 C1329 1.393 . S
C1333 C1332 1.391 . S
H1334 C1342 0.950 . S
H1335 C1347 0.950 . S
H1336 C1344 0.950 . S
H1337 C1346 0.950 . S
H1338 C1348 0.950 . S
H1339 C1350 0.950 . S
H1340 C1352 0.950 . S
H1341 C1353 0.950 . S
C1342 H1334 0.950 . S
C1342 C1343 1.386 . S
C1342 C1344 1.391 . S
C1343 C1342 1.386 . S
C1343 C1347 1.393 . S
C1344 H1336 0.950 . S
C1344 C1342 1.391 . S
C1344 C1345 1.400 . S
C1345 C1344 1.400 . S
C1345 C1346 1.398 . S
C1345 C1351 1.491 . S
C1346 H1337 0.950 . S
C1346 C1345 1.398 . S
C1346 C1347 1.391 . S
C1347 H1335 0.950 . S
C1347 C1343 1.393 . S
C1347 C1346 1.391 . S
C1348 H1338 0.950 . S
C1348 C1349 1.386 . S
C1348 C1350 1.391 . S
C1349 C1348 1.386 . S
C1349 C1353 1.393 . S
C1350 H1339 0.950 . S
C1350 C1348 1.391 . S
C1350 C1351 1.400 . S
C1351 C1345 1.491 . S
C1351 C1350 1.400 . S
C1351 C1352 1.398 . S
C1352 H1340 0.950 . S
C1352 C1351 1.398 . S
C1352 C1353 1.391 . S
C1353 H1341 0.950 . S
C1353 C1349 1.393 . S
C1353 C1352 1.391 . S
H1354 C1362 0.950 . S
H1355 C1367 0.950 . S
H1356 C1364 0.950 . S
H1357 C1366 0.950 . S
H1358 C1368 0.950 . S
H1359 C1370 0.950 . S
H1360 C1372 0.950 . S
H1361 C1373 0.950 . S
C1362 H1354 0.950 . S
C1362 C1363 1.386 . S
C1362 C1364 1.391 . S
C1363 C1362 1.386 . S
C1363 C1367 1.393 . S
C1364 H1356 0.950 . S
C1364 C1362 1.391 . S
C1364 C1365 1.400 . S
C1365 C1364 1.400 . S
C1365 C1366 1.398 . S
C1365 C1371 1.491 . S
C1366 H1357 0.950 . S
C1366 C1365 1.398 . S
C1366 C1367 1.391 . S
C1367 H1355 0.950 . S
C1367 C1363 1.393 . S
C1367 C1366 1.391 . S
C1368 H1358 0.950 . S
C1368 C1369 1.386 . S
C1368 C1370 1.391 . S
C1369 C1368 1.386 . S
C1369 C1373 1.393 . S
C1370 H1359 0.950 . S
C1370 C1368 1.391 . S
C1370 C1371 1.400 . S
C1371 C1365 1.491 . S
C1371 C1370 1.400 . S
C1371 C1372 1.398 . S
C1372 H1360 0.950 . S
C1372 C1371 1.398 . S
C1372 C1373 1.391 . S
C1373 H1361 0.950 . S
C1373 C1369 1.393 . S
C1373 C1372 1.391 . S
H1374 C1382 0.950 . S
H1375 C1387 0.950 . S
H1376 C1384 0.950 . S
H1377 C1386 0.950 . S
H1378 C1388 0.950 . S
H1379 C1390 0.950 . S
H1380 C1392 0.950 . S
H1381 C1393 0.950 . S
C1382 H1374 0.950 . S
C1382 C1383 1.386 . S
C1382 C1384 1.391 . S
C1383 C1382 1.386 . S
C1383 C1387 1.393 . S
C1384 H1376 0.950 . S
C1384 C1382 1.391 . S
C1384 C1385 1.400 . S
C1385 C1384 1.400 . S
C1385 C1386 1.398 . S
C1385 C1391 1.491 . S
C1386 H1377 0.950 . S
C1386 C1385 1.398 . S
C1386 C1387 1.391 . S
C1387 H1375 0.950 . S
C1387 C1383 1.393 . S
C1387 C1386 1.391 . S
C1388 H1378 0.950 . S
C1388 C1389 1.386 . S
C1388 C1390 1.391 . S
C1389 C1388 1.386 . S
C1389 C1393 1.393 . S
C1390 H1379 0.950 . S
C1390 C1388 1.391 . S
C1390 C1391 1.400 . S
C1391 C1385 1.491 . S
C1391 C1390 1.400 . S
C1391 C1392 1.398 . S
C1392 H1380 0.950 . S
C1392 C1391 1.398 . S
C1392 C1393 1.391 . S
C1393 H1381 0.950 . S
C1393 C1389 1.393 . S
C1393 C1392 1.391 . S
H1394 C1402 0.950 . S
H1395 C1407 0.950 . S
H1396 C1404 0.950 . S
H1397 C1406 0.950 . S
H1398 C1408 0.950 . S
H1399 C1410 0.950 . S
H1400 C1412 0.950 . S
H1401 C1413 0.950 . S
C1402 H1394 0.950 . S
C1402 C1403 1.386 . S
C1402 C1404 1.391 . S
C1403 C1402 1.386 . S
C1403 C1407 1.393 . S
C1404 H1396 0.950 . S
C1404 C1402 1.391 . S
C1404 C1405 1.400 . S
C1405 C1404 1.400 . S
C1405 C1406 1.398 . S
C1405 C1411 1.491 . S
C1406 H1397 0.950 . S
C1406 C1405 1.398 . S
C1406 C1407 1.391 . S
C1407 H1395 0.950 . S
C1407 C1403 1.393 . S
C1407 C1406 1.391 . S
C1408 H1398 0.950 . S
C1408 C1409 1.386 . S
C1408 C1410 1.391 . S
C1409 C1408 1.386 . S
C1409 C1413 1.393 . S
C1410 H1399 0.950 . S
C1410 C1408 1.391 . S
C1410 C1411 1.400 . S
C1411 C1405 1.491 . S
C1411 C1410 1.400 . S
C1411 C1412 1.398 . S
C1412 H1400 0.950 . S
C1412 C1411 1.398 . S
C1412 C1413 1.391 . S
C1413 H1401 0.950 . S
C1413 C1409 1.393 . S
C1413 C1412 1.391 . S
H1414 C1422 0.950 . S
H1415 C1427 0.950 . S
H1416 C1424 0.950 . S
H1417 C1426 0.950 . S
H1418 C1428 0.950 . S
H1419 C1430 0.950 . S
H1420 C1432 0.950 . S
H1421 C1433 0.950 . S
C1422 H1414 0.950 . S
C1422 C1423 1.386 . S
C1422 C1424 1.391 . S
C1423 C1422 1.386 . S
C1423 C1427 1.393 . S
C1424 H1416 0.950 . S
C1424 C1422 1.391 . S
C1424 C1425 1.400 . S
C1425 C1424 1.400 . S
C1425 C1426 1.398 . S
C1425 C1431 1.491 . S
C1426 H1417 0.950 . S
C1426 C1425 1.398 . S
C1426 C1427 1.391 . S
C1427 H1415 0.950 . S
C1427 C1423 1.393 . S
C1427 C1426 1.391 . S
C1428 H1418 0.950 . S
C1428 C1429 1.386 . S
C1428 C1430 1.391 . S
C1429 C1428 1.386 . S
C1429 C1433 1.393 . S
C1430 H1419 0.950 . S
C1430 C1428 1.391 . S
C1430 C1431 1.400 . S
C1431 C1425 1.491 . S
C1431 C1430 1.400 . S
C1431 C1432 1.398 . S
C1432 H1420 0.950 . S
C1432 C1431 1.398 . S
C1432 C1433 1.391 . S
C1433 H1421 0.950 . S
C1433 C1429 1.393 . S
C1433 C1432 1.391 . S
H1434 C1442 0.950 . S
H1435 C1447 0.950 . S
H1436 C1444 0.950 . S
H1437 C1446 0.950 . S
H1438 C1448 0.950 . S
H1439 C1450 0.950 . S
H1440 C1452 0.950 . S
H1441 C1453 0.950 . S
C1442 H1434 0.950 . S
C1442 C1443 1.386 . S
C1442 C1444 1.391 . S
C1443 C1442 1.386 . S
C1443 C1447 1.393 . S
C1444 H1436 0.950 . S
C1444 C1442 1.391 . S
C1444 C1445 1.400 . S
C1445 C1444 1.400 . S
C1445 C1446 1.398 . S
C1445 C1451 1.491 . S
C1446 H1437 0.950 . S
C1446 C1445 1.398 . S
C1446 C1447 1.391 . S
C1447 H1435 0.950 . S
C1447 C1443 1.393 . S
C1447 C1446 1.391 . S
C1448 H1438 0.950 . S
C1448 C1449 1.386 . S
C1448 C1450 1.391 . S
C1449 C1448 1.386 . S
C1449 C1453 1.393 . S
C1450 H1439 0.950 . S
C1450 C1448 1.391 . S
C1450 C1451 1.400 . S
C1451 C1445 1.491 . S
C1451 C1450 1.400 . S
C1451 C1452 1.398 . S
C1452 H1440 0.950 . S
C1452 C1451 1.398 . S
C1452 C1453 1.391 . S
C1453 H1441 0.950 . S
C1453 C1449 1.393 . S
C1453 C1452 1.391 . S
H1454 C1462 0.950 . S
H1455 C1467 0.950 . S
H1456 C1464 0.950 . S
H1457 C1466 0.950 . S
H1458 C1468 0.950 . S
H1459 C1470 0.950 . S
H1460 C1472 0.950 . S
H1461 C1473 0.950 . S
C1462 H1454 0.950 . S
C1462 C1463 1.386 . S
C1462 C1464 1.391 . S
C1463 C1462 1.386 . S
C1463 C1467 1.393 . S
C1464 H1456 0.950 . S
C1464 C1462 1.391 . S
C1464 C1465 1.400 . S
C1465 C1464 1.400 . S
C1465 C1466 1.398 . S
C1465 C1471 1.491 . S
C1466 H1457 0.950 . S
C1466 C1465 1.398 . S
C1466 C1467 1.391 . S
C1467 H1455 0.950 . S
C1467 C1463 1.393 . S
C1467 C1466 1.391 . S
C1468 H1458 0.950 . S
C1468 C1469 1.386 . S
C1468 C1470 1.391 . S
C1469 C1468 1.386 . S
C1469 C1473 1.393 . S
C1470 H1459 0.950 . S
C1470 C1468 1.391 . S
C1470 C1471 1.400 . S
C1471 C1465 1.491 . S
C1471 C1470 1.400 . S
C1471 C1472 1.398 . S
C1472 H1460 0.950 . S
C1472 C1471 1.398 . S
C1472 C1473 1.391 . S
C1473 H1461 0.950 . S
C1473 C1469 1.393 . S
C1473 C1472 1.391 . S
H1474 C1482 0.950 . S
H1475 C1487 0.950 . S
H1476 C1484 0.950 . S
H1477 C1486 0.950 . S
H1478 C1488 0.950 . S
H1479 C1490 0.950 . S
H1480 C1492 0.950 . S
H1481 C1493 0.950 . S
C1482 H1474 0.950 . S
C1482 C1483 1.386 . S
C1482 C1484 1.391 . S
C1483 C1482 1.386 . S
C1483 C1487 1.393 . S
C1484 H1476 0.950 . S
C1484 C1482 1.391 . S
C1484 C1485 1.400 . S
C1485 C1484 1.400 . S
C1485 C1486 1.398 . S
C1485 C1491 1.491 . S
C1486 H1477 0.950 . S
C1486 C1485 1.398 . S
C1486 C1487 1.391 . S
C1487 H1475 0.950 . S
C1487 C1483 1.393 . S
C1487 C1486 1.391 . S
C1488 H1478 0.950 . S
C1488 C1489 1.386 . S
C1488 C1490 1.391 . S
C1489 C1488 1.386 . S
C1489 C1493 1.393 . S
C1490 H1479 0.950 . S
C1490 C1488 1.391 . S
C1490 C1491 1.400 . S
C1491 C1485 1.491 . S
C1491 C1490 1.400 . S
C1491 C1492 1.398 . S
C1492 H1480 0.950 . S
C1492 C1491 1.398 . S
C1492 C1493 1.391 . S
C1493 H1481 0.950 . S
C1493 C1489 1.393 . S
C1493 C1492 1.391 . S
C603 N112 1.138 . S
C609 N13 1.138 . S
C623 N145 1.125 . S
C629 N46 1.132 . S
C643 N79 1.137 . S
C649 N178 1.138 . S
C663 C51 2.240 . S
C669 C183 2.243 . S
C683 C117 2.244 . S
C689 C84 2.243 . S
C703 C150 2.240 . S
C709 C18 2.241 . S
C723 N211 1.115 . S
C729 N310 1.107 . S
C743 N343 1.126 . S
C749 N244 1.133 . S
C763 N277 1.105 . S
C769 N376 1.101 . S
C783 C381 2.240 . S
C789 C249 2.242 . S
C803 C315 2.240 . S
C809 C282 2.241 . S
C823 C348 2.241 . S
C829 C216 2.244 . S
C843 N508 1.137 . S
C849 N409 1.138 . S
C863 N442 1.120 . S
C869 N541 1.128 . S
C883 N574 1.101 . S
C889 N475 1.100 . S
C903 C447 2.240 . S
C909 C579 2.244 . S
C923 C513 2.240 . S
C929 C480 2.241 . S
C943 C414 2.240 . S
C949 C546 2.241 . S
C963 C582 1.405 . S
C969 C21 1.405 . S
C983 C54 1.409 . S
C989 C516 1.410 . S
C1003 C549 1.407 . S
C1009 C87 1.408 . S
C1023 C252 1.413 . S
C1029 C120 1.413 . S
C1043 C153 1.415 . S
C1049 C285 1.415 . S
C1063 C186 1.404 . S
C1069 C219 1.404 . S
C1083 C450 1.405 . S
C1089 C318 1.405 . S
C1103 C483 1.412 . S
C1109 C351 1.411 . S
C1123 C384 1.406 . S
C1129 C417 1.406 . S
C1143 C7 1.931 . S
C1149 C106 1.934 . S
C1163 C139 1.939 . S
C1169 C40 1.943 . S
C1183 C73 1.939 . S
C1189 C172 1.933 . S
C1203 N167 0.782 . S
C1209 N35 0.776 . S
C1223 N68 0.781 . S
C1229 N101 0.782 . S
C1243 N134 0.780 . S
C1249 N2 0.782 . S
C1263 C205 1.941 . S
C1269 C304 1.935 . S
C1283 C337 1.932 . S
C1289 C238 1.931 . S
C1303 C370 1.934 . S
C1309 C271 1.940 . S
C1323 N365 0.736 . S
C1329 N233 0.726 . S
C1343 N299 0.728 . S
C1349 N266 0.722 . S
C1363 N332 0.775 . S
C1369 N200 0.781 . S
C1383 C502 1.934 . S
C1389 C403 1.940 . S
C1403 C535 1.941 . S
C1409 C436 1.944 . S
C1423 C568 1.931 . S
C1429 C469 1.932 . S
C1443 N563 0.731 . S
C1449 N431 0.723 . S
C1463 N497 0.757 . S
C1469 N464 0.770 . S
C1483 N530 0.721 . S
C1489 N398 0.723 . S
