# Generated by pormake.
# Topology sou, (8)-cn, num edge types: 1
# Building blocks:
#     Node 0, Type 0, BuildingBlock: HISSIN_clean_sbu_1, # of connection points: 8
#     Node 1, Type 0, BuildingBlock: HISSIN_clean_sbu_1, # of connection points: 8
#     Node 2, Type 0, BuildingBlock: HISSIN_clean_sbu_1, # of connection points: 8
#     Node 3, Type 0, BuildingBlock: HISSIN_clean_sbu_1, # of connection points: 8
#     Node 4, Type 0, BuildingBlock: HISSIN_clean_sbu_1, # of connection points: 8
#     Node 5, Type 0, BuildingBlock: HISSIN_clean_sbu_1, # of connection points: 8
#     Node 6, Type 0, BuildingBlock: HISSIN_clean_sbu_1, # of connection points: 8
#     Node 7, Type 0, BuildingBlock: HISSIN_clean_sbu_1, # of connection points: 8
#     Node 8, Type 0, BuildingBlock: HISSIN_clean_sbu_1, # of connection points: 8
#     Node 9, Type 0, BuildingBlock: HISSIN_clean_sbu_1, # of connection points: 8
#     Node 10, Type 0, BuildingBlock: HISSIN_clean_sbu_1, # of connection points: 8
#     Node 11, Type 0, BuildingBlock: HISSIN_clean_sbu_1, # of connection points: 8
#     Node 12, Type 0, BuildingBlock: HISSIN_clean_sbu_1, # of connection points: 8
#     Node 13, Type 0, BuildingBlock: HISSIN_clean_sbu_1, # of connection points: 8
#     Node 14, Type 0, BuildingBlock: HISSIN_clean_sbu_1, # of connection points: 8
#     Node 15, Type 0, BuildingBlock: HISSIN_clean_sbu_1, # of connection points: 8
#     Node 16, Type 0, BuildingBlock: HISSIN_clean_sbu_1, # of connection points: 8
#     Node 17, Type 0, BuildingBlock: HISSIN_clean_sbu_1, # of connection points: 8
#     Node 18, Type 0, BuildingBlock: HISSIN_clean_sbu_1, # of connection points: 8
#     Node 19, Type 0, BuildingBlock: HISSIN_clean_sbu_1, # of connection points: 8
#     Node 20, Type 0, BuildingBlock: HISSIN_clean_sbu_1, # of connection points: 8
#     Node 21, Type 0, BuildingBlock: HISSIN_clean_sbu_1, # of connection points: 8
#     Node 22, Type 0, BuildingBlock: HISSIN_clean_sbu_1, # of connection points: 8
#     Node 23, Type 0, BuildingBlock: HISSIN_clean_sbu_1, # of connection points: 8
#     Node 24, Type 0, BuildingBlock: HISSIN_clean_sbu_1, # of connection points: 8
#     Node 25, Type 0, BuildingBlock: HISSIN_clean_sbu_1, # of connection points: 8
#     Node 26, Type 0, BuildingBlock: HISSIN_clean_sbu_1, # of connection points: 8
#     Node 27, Type 0, BuildingBlock: HISSIN_clean_sbu_1, # of connection points: 8
#     Node 28, Type 0, BuildingBlock: HISSIN_clean_sbu_1, # of connection points: 8
#     Node 29, Type 0, BuildingBlock: HISSIN_clean_sbu_1, # of connection points: 8
#     Node 30, Type 0, BuildingBlock: HISSIN_clean_sbu_1, # of connection points: 8
#     Node 31, Type 0, BuildingBlock: HISSIN_clean_sbu_1, # of connection points: 8
#     Edge 32, Type (0, 0), BuildingBlock: UVAHIK_clean_linker_0, # of connection points: 2
#     Edge 33, Type (0, 0), BuildingBlock: UVAHIK_clean_linker_0, # of connection points: 2
#     Edge 34, Type (0, 0), BuildingBlock: UVAHIK_clean_linker_0, # of connection points: 2
#     Edge 35, Type (0, 0), BuildingBlock: UVAHIK_clean_linker_0, # of connection points: 2
#     Edge 36, Type (0, 0), BuildingBlock: UVAHIK_clean_linker_0, # of connection points: 2
#     Edge 37, Type (0, 0), BuildingBlock: UVAHIK_clean_linker_0, # of connection points: 2
#     Edge 38, Type (0, 0), BuildingBlock: UVAHIK_clean_linker_0, # of connection points: 2
#     Edge 39, Type (0, 0), BuildingBlock: UVAHIK_clean_linker_0, # of connection points: 2
#     Edge 40, Type (0, 0), BuildingBlock: UVAHIK_clean_linker_0, # of connection points: 2
#     Edge 41, Type (0, 0), BuildingBlock: UVAHIK_clean_linker_0, # of connection points: 2
#     Edge 42, Type (0, 0), BuildingBlock: UVAHIK_clean_linker_0, # of connection points: 2
#     Edge 43, Type (0, 0), BuildingBlock: UVAHIK_clean_linker_0, # of connection points: 2
#     Edge 44, Type (0, 0), BuildingBlock: UVAHIK_clean_linker_0, # of connection points: 2
#     Edge 45, Type (0, 0), BuildingBlock: UVAHIK_clean_linker_0, # of connection points: 2
#     Edge 46, Type (0, 0), BuildingBlock: UVAHIK_clean_linker_0, # of connection points: 2
#     Edge 47, Type (0, 0), BuildingBlock: UVAHIK_clean_linker_0, # of connection points: 2
#     Edge 48, Type (0, 0), BuildingBlock: UVAHIK_clean_linker_0, # of connection points: 2
#     Edge 49, Type (0, 0), BuildingBlock: UVAHIK_clean_linker_0, # of connection points: 2
#     Edge 50, Type (0, 0), BuildingBlock: UVAHIK_clean_linker_0, # of connection points: 2
#     Edge 51, Type (0, 0), BuildingBlock: UVAHIK_clean_linker_0, # of connection points: 2
#     Edge 52, Type (0, 0), BuildingBlock: UVAHIK_clean_linker_0, # of connection points: 2
#     Edge 53, Type (0, 0), BuildingBlock: UVAHIK_clean_linker_0, # of connection points: 2
#     Edge 54, Type (0, 0), BuildingBlock: UVAHIK_clean_linker_0, # of connection points: 2
#     Edge 55, Type (0, 0), BuildingBlock: UVAHIK_clean_linker_0, # of connection points: 2
#     Edge 56, Type (0, 0), BuildingBlock: UVAHIK_clean_linker_0, # of connection points: 2
#     Edge 57, Type (0, 0), BuildingBlock: UVAHIK_clean_linker_0, # of connection points: 2
#     Edge 58, Type (0, 0), BuildingBlock: UVAHIK_clean_linker_0, # of connection points: 2
#     Edge 59, Type (0, 0), BuildingBlock: UVAHIK_clean_linker_0, # of connection points: 2
#     Edge 60, Type (0, 0), BuildingBlock: UVAHIK_clean_linker_0, # of connection points: 2
#     Edge 61, Type (0, 0), BuildingBlock: UVAHIK_clean_linker_0, # of connection points: 2
#     Edge 62, Type (0, 0), BuildingBlock: UVAHIK_clean_linker_0, # of connection points: 2
#     Edge 63, Type (0, 0), BuildingBlock: UVAHIK_clean_linker_0, # of connection points: 2
#     Edge 64, Type (0, 0), BuildingBlock: UVAHIK_clean_linker_0, # of connection points: 2
#     Edge 65, Type (0, 0), BuildingBlock: UVAHIK_clean_linker_0, # of connection points: 2
#     Edge 66, Type (0, 0), BuildingBlock: UVAHIK_clean_linker_0, # of connection points: 2
#     Edge 67, Type (0, 0), BuildingBlock: UVAHIK_clean_linker_0, # of connection points: 2
#     Edge 68, Type (0, 0), BuildingBlock: UVAHIK_clean_linker_0, # of connection points: 2
#     Edge 69, Type (0, 0), BuildingBlock: UVAHIK_clean_linker_0, # of connection points: 2
#     Edge 70, Type (0, 0), BuildingBlock: UVAHIK_clean_linker_0, # of connection points: 2
#     Edge 71, Type (0, 0), BuildingBlock: UVAHIK_clean_linker_0, # of connection points: 2
#     Edge 72, Type (0, 0), BuildingBlock: UVAHIK_clean_linker_0, # of connection points: 2
#     Edge 73, Type (0, 0), BuildingBlock: UVAHIK_clean_linker_0, # of connection points: 2
#     Edge 74, Type (0, 0), BuildingBlock: UVAHIK_clean_linker_0, # of connection points: 2
#     Edge 75, Type (0, 0), BuildingBlock: UVAHIK_clean_linker_0, # of connection points: 2
#     Edge 76, Type (0, 0), BuildingBlock: UVAHIK_clean_linker_0, # of connection points: 2
#     Edge 77, Type (0, 0), BuildingBlock: UVAHIK_clean_linker_0, # of connection points: 2
#     Edge 78, Type (0, 0), BuildingBlock: UVAHIK_clean_linker_0, # of connection points: 2
#     Edge 79, Type (0, 0), BuildingBlock: UVAHIK_clean_linker_0, # of connection points: 2
#     Edge 80, Type (0, 0), BuildingBlock: UVAHIK_clean_linker_0, # of connection points: 2
#     Edge 81, Type (0, 0), BuildingBlock: UVAHIK_clean_linker_0, # of connection points: 2
#     Edge 82, Type (0, 0), BuildingBlock: UVAHIK_clean_linker_0, # of connection points: 2
#     Edge 83, Type (0, 0), BuildingBlock: UVAHIK_clean_linker_0, # of connection points: 2
#     Edge 84, Type (0, 0), BuildingBlock: UVAHIK_clean_linker_0, # of connection points: 2
#     Edge 85, Type (0, 0), BuildingBlock: UVAHIK_clean_linker_0, # of connection points: 2
#     Edge 86, Type (0, 0), BuildingBlock: UVAHIK_clean_linker_0, # of connection points: 2
#     Edge 87, Type (0, 0), BuildingBlock: UVAHIK_clean_linker_0, # of connection points: 2
#     Edge 88, Type (0, 0), BuildingBlock: UVAHIK_clean_linker_0, # of connection points: 2
#     Edge 89, Type (0, 0), BuildingBlock: UVAHIK_clean_linker_0, # of connection points: 2
#     Edge 90, Type (0, 0), BuildingBlock: UVAHIK_clean_linker_0, # of connection points: 2
#     Edge 91, Type (0, 0), BuildingBlock: UVAHIK_clean_linker_0, # of connection points: 2
#     Edge 92, Type (0, 0), BuildingBlock: UVAHIK_clean_linker_0, # of connection points: 2
#     Edge 93, Type (0, 0), BuildingBlock: UVAHIK_clean_linker_0, # of connection points: 2
#     Edge 94, Type (0, 0), BuildingBlock: UVAHIK_clean_linker_0, # of connection points: 2
#     Edge 95, Type (0, 0), BuildingBlock: UVAHIK_clean_linker_0, # of connection points: 2
#     Edge 96, Type (0, 0), BuildingBlock: UVAHIK_clean_linker_0, # of connection points: 2
#     Edge 97, Type (0, 0), BuildingBlock: UVAHIK_clean_linker_0, # of connection points: 2
#     Edge 98, Type (0, 0), BuildingBlock: UVAHIK_clean_linker_0, # of connection points: 2
#     Edge 99, Type (0, 0), BuildingBlock: UVAHIK_clean_linker_0, # of connection points: 2
#     Edge 100, Type (0, 0), BuildingBlock: UVAHIK_clean_linker_0, # of connection points: 2
#     Edge 101, Type (0, 0), BuildingBlock: UVAHIK_clean_linker_0, # of connection points: 2
#     Edge 102, Type (0, 0), BuildingBlock: UVAHIK_clean_linker_0, # of connection points: 2
#     Edge 103, Type (0, 0), BuildingBlock: UVAHIK_clean_linker_0, # of connection points: 2
#     Edge 104, Type (0, 0), BuildingBlock: UVAHIK_clean_linker_0, # of connection points: 2
#     Edge 105, Type (0, 0), BuildingBlock: UVAHIK_clean_linker_0, # of connection points: 2
#     Edge 106, Type (0, 0), BuildingBlock: UVAHIK_clean_linker_0, # of connection points: 2
#     Edge 107, Type (0, 0), BuildingBlock: UVAHIK_clean_linker_0, # of connection points: 2
#     Edge 108, Type (0, 0), BuildingBlock: UVAHIK_clean_linker_0, # of connection points: 2
#     Edge 109, Type (0, 0), BuildingBlock: UVAHIK_clean_linker_0, # of connection points: 2
#     Edge 110, Type (0, 0), BuildingBlock: UVAHIK_clean_linker_0, # of connection points: 2
#     Edge 111, Type (0, 0), BuildingBlock: UVAHIK_clean_linker_0, # of connection points: 2
#     Edge 112, Type (0, 0), BuildingBlock: UVAHIK_clean_linker_0, # of connection points: 2
#     Edge 113, Type (0, 0), BuildingBlock: UVAHIK_clean_linker_0, # of connection points: 2
#     Edge 114, Type (0, 0), BuildingBlock: UVAHIK_clean_linker_0, # of connection points: 2
#     Edge 115, Type (0, 0), BuildingBlock: UVAHIK_clean_linker_0, # of connection points: 2
#     Edge 116, Type (0, 0), BuildingBlock: UVAHIK_clean_linker_0, # of connection points: 2
#     Edge 117, Type (0, 0), BuildingBlock: UVAHIK_clean_linker_0, # of connection points: 2
#     Edge 118, Type (0, 0), BuildingBlock: UVAHIK_clean_linker_0, # of connection points: 2
#     Edge 119, Type (0, 0), BuildingBlock: UVAHIK_clean_linker_0, # of connection points: 2
#     Edge 120, Type (0, 0), BuildingBlock: UVAHIK_clean_linker_0, # of connection points: 2
#     Edge 121, Type (0, 0), BuildingBlock: UVAHIK_clean_linker_0, # of connection points: 2
#     Edge 122, Type (0, 0), BuildingBlock: UVAHIK_clean_linker_0, # of connection points: 2
#     Edge 123, Type (0, 0), BuildingBlock: UVAHIK_clean_linker_0, # of connection points: 2
#     Edge 124, Type (0, 0), BuildingBlock: UVAHIK_clean_linker_0, # of connection points: 2
#     Edge 125, Type (0, 0), BuildingBlock: UVAHIK_clean_linker_0, # of connection points: 2
#     Edge 126, Type (0, 0), BuildingBlock: UVAHIK_clean_linker_0, # of connection points: 2
#     Edge 127, Type (0, 0), BuildingBlock: UVAHIK_clean_linker_0, # of connection points: 2
#     Edge 128, Type (0, 0), BuildingBlock: UVAHIK_clean_linker_0, # of connection points: 2
#     Edge 129, Type (0, 0), BuildingBlock: UVAHIK_clean_linker_0, # of connection points: 2
#     Edge 130, Type (0, 0), BuildingBlock: UVAHIK_clean_linker_0, # of connection points: 2
#     Edge 131, Type (0, 0), BuildingBlock: UVAHIK_clean_linker_0, # of connection points: 2
#     Edge 132, Type (0, 0), BuildingBlock: UVAHIK_clean_linker_0, # of connection points: 2
#     Edge 133, Type (0, 0), BuildingBlock: UVAHIK_clean_linker_0, # of connection points: 2
#     Edge 134, Type (0, 0), BuildingBlock: UVAHIK_clean_linker_0, # of connection points: 2
#     Edge 135, Type (0, 0), BuildingBlock: UVAHIK_clean_linker_0, # of connection points: 2
#     Edge 136, Type (0, 0), BuildingBlock: UVAHIK_clean_linker_0, # of connection points: 2
#     Edge 137, Type (0, 0), BuildingBlock: UVAHIK_clean_linker_0, # of connection points: 2
#     Edge 138, Type (0, 0), BuildingBlock: UVAHIK_clean_linker_0, # of connection points: 2
#     Edge 139, Type (0, 0), BuildingBlock: UVAHIK_clean_linker_0, # of connection points: 2
#     Edge 140, Type (0, 0), BuildingBlock: UVAHIK_clean_linker_0, # of connection points: 2
#     Edge 141, Type (0, 0), BuildingBlock: UVAHIK_clean_linker_0, # of connection points: 2
#     Edge 142, Type (0, 0), BuildingBlock: UVAHIK_clean_linker_0, # of connection points: 2
#     Edge 143, Type (0, 0), BuildingBlock: UVAHIK_clean_linker_0, # of connection points: 2
#     Edge 144, Type (0, 0), BuildingBlock: UVAHIK_clean_linker_0, # of connection points: 2
#     Edge 145, Type (0, 0), BuildingBlock: UVAHIK_clean_linker_0, # of connection points: 2
#     Edge 146, Type (0, 0), BuildingBlock: UVAHIK_clean_linker_0, # of connection points: 2
#     Edge 147, Type (0, 0), BuildingBlock: UVAHIK_clean_linker_0, # of connection points: 2
#     Edge 148, Type (0, 0), BuildingBlock: UVAHIK_clean_linker_0, # of connection points: 2
#     Edge 149, Type (0, 0), BuildingBlock: UVAHIK_clean_linker_0, # of connection points: 2
#     Edge 150, Type (0, 0), BuildingBlock: UVAHIK_clean_linker_0, # of connection points: 2
#     Edge 151, Type (0, 0), BuildingBlock: UVAHIK_clean_linker_0, # of connection points: 2
#     Edge 152, Type (0, 0), BuildingBlock: UVAHIK_clean_linker_0, # of connection points: 2
#     Edge 153, Type (0, 0), BuildingBlock: UVAHIK_clean_linker_0, # of connection points: 2
#     Edge 154, Type (0, 0), BuildingBlock: UVAHIK_clean_linker_0, # of connection points: 2
#     Edge 155, Type (0, 0), BuildingBlock: UVAHIK_clean_linker_0, # of connection points: 2
#     Edge 156, Type (0, 0), BuildingBlock: UVAHIK_clean_linker_0, # of connection points: 2
#     Edge 157, Type (0, 0), BuildingBlock: UVAHIK_clean_linker_0, # of connection points: 2
#     Edge 158, Type (0, 0), BuildingBlock: UVAHIK_clean_linker_0, # of connection points: 2
#     Edge 159, Type (0, 0), BuildingBlock: UVAHIK_clean_linker_0, # of connection points: 2
# Relax obj value: 0.063
# Max RMSD: 0.157
# Mean RMSD: 0.157
data_MOF--net-sou--node1-HISSIN_clean_sbu_1--edge1-UVAHIK_clean_linker_0
_symmetry_space_group_name_H-M    P1
_symmetry_Int_Tables_number       1
_symmetry_cell_setting            triclinic
loop_
_symmetry_equiv_pos_as_xyz
'x, y, z'
_cell_length_a     101.00358
_cell_length_b     54.650472
_cell_length_c     52.712916
_cell_angle_alpha  90.103324
_cell_angle_beta   89.924546
_cell_angle_gamma 89.937066
loop_
_atom_site_label
_atom_site_type_symbol
_atom_site_fract_x
_atom_site_fract_y
_atom_site_fract_z
_atom_type_partial_charge
Eu0 Eu 1.00015 0.29631 0.03926 0.0
C1 C 0.0132 0.28705 0.98724 0.0
O2 O 1.00679 0.25775 0.04888 0.0
C3 C 0.06508 0.34723 0.02706 0.0
C4 C 0.0883 0.36129 0.05225 0.0
C5 C 0.07137 0.36959 0.02093 0.0
C6 C 0.08304 0.37665 0.03359 0.0
C7 C 0.07098 0.33169 0.04511 0.0
C8 C 0.08262 0.33858 0.05737 0.0
Eu9 Eu 0.02853 0.33317 0.00614 0.0
O10 O 0.01202 0.32122 0.06496 0.0
O11 O 0.02132 0.34423 0.96731 0.0
O12 O 0.0249 0.29414 0.99487 0.0
O13 O 0.01668 0.35223 0.03656 0.0
C14 C 0.0146 0.36376 0.96018 0.0
O15 O 0.0104 0.36439 0.9366 0.0
O16 O 0.04697 0.31965 0.0214 0.0
C17 C 0.05396 0.33768 0.01169 0.0
C18 C 0.01407 0.25263 0.06888 0.0
O19 O 0.01864 0.27067 0.08283 0.0
O20 O 0.0469 0.35291 -0.00205 0.0
O21 O 1.00258 0.29691 -0.00293 0.0
C22 C 0.97483 0.29962 0.04728 0.0
O23 O 0.98228 0.31843 0.04113 0.0
C24 C 0.96244 0.29655 0.03258 0.0
C25 C 0.93889 0.29263 0.00481 0.0
C26 C 0.9571 0.27321 0.02681 0.0
C27 C 0.94525 0.27136 0.01289 0.0
C28 C 0.95534 0.31763 0.02556 0.0
C29 C 0.9436 0.31564 0.01176 0.0
C30 C 0.01485 0.3443 0.0599 0.0
O31 O 0.98173 0.2799 0.05252 0.0
H32 H 0.09772 0.36582 0.06098 0.0
H33 H 0.06757 0.38092 0.00573 0.0
H34 H 0.06705 0.31353 0.04848 0.0
H35 H 0.92941 0.29121 0.9952 0.0
H36 H 0.96192 0.2567 0.03342 0.0
H37 H 0.95872 0.33559 0.03144 0.0
Eu38 Eu 0.26841 0.96205 0.04011 0.0
C39 C 0.25308 0.9602 0.9883 0.0
O40 O 0.26073 0.99984 0.04959 0.0
C41 C 0.20493 0.89392 0.03004 0.0
C42 C 0.18019 0.88656 0.05293 0.0
C43 C 0.19789 0.87199 0.02599 0.0
C44 C 0.18544 0.86832 0.03725 0.0
C45 C 0.19914 0.91259 0.04509 0.0
C46 C 0.18668 0.90885 0.05637 0.0
Eu47 Eu 0.24136 0.90879 0.00388 0.0
O48 O 0.25767 0.93712 0.06715 0.0
O49 O 0.24844 0.89232 0.96694 0.0
O50 O 0.2425 0.94629 0.98633 0.0
O51 O 0.25643 0.90972 0.03529 0.0
C52 C 0.25099 0.86945 0.96049 0.0
O53 O 0.25475 0.86524 0.93703 0.0
O54 O 0.22145 0.92092 0.01249 0.0
C55 C 0.21694 0.89843 0.01453 0.0
C56 C 0.25309 0.00428 0.06929 0.0
O57 O 0.24847 0.98586 0.08259 0.0
O58 O 0.22602 0.8813 0.01145 0.0
O59 O 0.26359 0.95164 -0.0001 0.0
C60 C 0.29395 0.96127 0.04592 0.0
O61 O 0.28658 0.94149 0.04661 0.0
C62 C 0.30598 0.96056 0.02985 0.0
C63 C 0.32908 0.95906 0.00048 0.0
C64 C 0.31218 0.98247 0.02211 0.0
C65 C 0.32375 0.98171 0.00736 0.0
C66 C 0.31191 0.93797 0.02373 0.0
C67 C 0.32348 0.93723 0.00908 0.0
C68 C 0.25343 0.91582 0.05871 0.0
O69 O 0.28695 0.98148 0.04535 0.0
H70 H 0.17031 0.88436 0.06076 0.0
H71 H 0.20178 0.85827 0.01309 0.0
H72 H 0.20392 0.93023 0.04701 0.0
H73 H 0.33845 0.9585 0.99038 0.0
H74 H 0.30823 6e-05 0.02792 0.0
H75 H 0.30782 0.92102 0.03094 0.0
Eu76 Eu 0.99821 0.96272 0.19633 0.0
C77 C 0.0161 0.9676 0.24747 0.0
O78 O 1.00424 0.99506 0.1721 0.0
C79 C 0.06129 0.89342 0.21613 0.0
C80 C 0.08716 0.89248 0.19715 0.0
C81 C 0.06984 0.87384 0.22197 0.0
C82 C 0.08276 0.87318 0.21225 0.0
C83 C 0.06588 0.91286 0.20077 0.0
C84 C 0.07899 0.91239 0.19153 0.0
Eu85 Eu 0.02529 0.9141 0.23667 0.0
O86 O 1.00828 0.93303 0.1738 0.0
O87 O 0.01616 0.89983 0.2729 0.0
O88 O 0.02614 0.95543 0.23756 0.0
O89 O 0.00884 0.90923 0.20877 0.0
C90 C 0.01327 0.87722 0.27977 0.0
O91 O 1.00826 0.87392 0.30251 0.0
O92 O 0.04563 0.90605 0.24756 0.0
C93 C 0.04785 0.89283 0.22716 0.0
C94 C 0.01294 0.01134 0.17986 0.0
O95 O 0.01902 0.0078 0.20155 0.0
O96 O 0.03761 0.89144 0.21186 0.0
O97 O 1.00422 0.96817 0.23717 0.0
C98 C 0.97257 0.95831 0.19523 0.0
O99 O 0.98072 0.93957 0.19657 0.0
C100 C 0.96084 0.95805 0.21223 0.0
C101 C 0.93757 0.95606 0.24119 0.0
C102 C 0.95358 0.97971 0.21749 0.0
C103 C 0.94174 0.97855 0.23157 0.0
C104 C 0.95571 0.93539 0.22031 0.0
C105 C 0.94405 0.93439 0.23458 0.0
C106 C 0.01132 0.91212 0.18458 0.0
O107 O 0.97869 0.97923 0.19187 0.0
H108 H 0.09726 0.89232 0.19005 0.0
H109 H 0.06642 0.85904 0.23398 0.0
H110 H 0.05946 0.92818 0.19645 0.0
H111 H 0.92814 0.95512 0.2511 0.0
H112 H 0.95663 0.99703 0.20943 0.0
H113 H 0.96033 0.91841 0.21433 0.0
Eu114 Eu 0.26835 0.29333 0.19961 0.0
C115 C 0.25463 0.28277 0.2532 0.0
O116 O 0.26361 0.25782 0.17948 0.0
C117 C 0.20699 0.35375 0.21978 0.0
C118 C 0.18269 0.36105 0.19538 0.0
C119 C 0.19921 0.37453 0.22545 0.0
C120 C 0.18703 0.37828 0.21314 0.0
C121 C 0.2023 0.33651 0.20193 0.0
C122 C 0.19006 0.34005 0.19015 0.0
Eu123 Eu 0.24357 0.33737 0.24 0.0
O124 O 0.25556 0.31882 0.1767 0.0
O125 O 0.25209 0.35127 0.27687 0.0
O126 O 0.24443 0.29775 0.25231 0.0
O127 O 0.25591 0.349 0.20658 0.0
C128 C 0.25554 0.37375 0.28328 0.0
O129 O 0.2605 0.37722 0.30601 0.0
O130 O 0.22342 0.32576 0.23427 0.0
C131 C 0.21855 0.34798 0.23596 0.0
C132 C 0.25336 0.24385 0.1846 0.0
O133 O 0.24486 0.25076 0.20208 0.0
O134 O 0.22758 0.36478 0.2404 0.0
O135 O 0.26579 0.28683 0.24128 0.0
C136 C 0.29348 0.30142 0.19419 0.0
O137 O 0.28502 0.31853 0.2011 0.0
C138 C 0.30555 0.2987 0.20993 0.0
C139 C 0.32879 0.29502 0.23865 0.0
C140 C 0.31184 0.27574 0.21318 0.0
C141 C 0.32355 0.27407 0.22739 0.0
C142 C 0.31149 0.31978 0.22016 0.0
C143 C 0.32317 0.31799 0.23432 0.0
C144 C 0.25347 0.34171 0.18332 0.0
O145 O 0.28769 0.28124 0.18651 0.0
H146 H 0.173 0.36307 0.18673 0.0
H147 H 0.20237 0.38723 0.24007 0.0
H148 H 0.20772 0.31976 0.19822 0.0
H149 H 0.33823 0.29371 0.24841 0.0
H150 H 0.308 0.25949 0.20399 0.0
H151 H 0.3074 0.33771 0.21618 0.0
Eu152 Eu 0.9933 0.66213 0.98861 0.0
C153 C 1.00238 0.66432 0.93285 0.0
O154 O 0.99869 0.62911 0.01169 0.0
C155 C 0.05411 0.7041 0.96529 0.0
C156 C 0.07766 0.70908 0.99274 0.0
C157 C 0.0597 0.7276 0.96913 0.0
C158 C 0.07154 0.72998 0.98303 0.0
C159 C 0.0608 0.68337 0.97435 0.0
C160 C 0.07261 0.68581 0.98783 0.0
Eu161 Eu 0.01695 0.7102 0.94876 0.0
O162 O 0.99832 0.69394 0.014 0.0
O163 O 0.01431 0.74743 0.93173 0.0
O164 O 1.00538 0.68553 0.92309 0.0
O165 O 0.00981 0.72174 0.98751 0.0
C166 C 1.00297 0.75447 0.92205 0.0
O167 O 0.99298 0.73911 0.92159 0.0
O168 O 0.03286 0.68593 0.9605 0.0
C169 C 0.04201 0.69988 0.95016 0.0
C170 C 0.00976 0.617 0.00801 0.0
O171 O 0.01923 0.62697 0.99444 0.0
O172 O 0.03716 0.71823 0.93703 0.0
O173 O 1.00686 0.65975 0.95552 0.0
C174 C 0.968 0.65856 0.97962 0.0
O175 O 0.97489 0.67856 0.9753 0.0
C176 C 0.95628 0.65286 0.96367 0.0
C177 C 0.93177 0.6457 0.93978 0.0
C178 C 0.94902 0.63093 0.96756 0.0
C179 C 0.93666 0.62729 0.95564 0.0
C180 C 0.95082 0.67126 0.94818 0.0
C181 C 0.93857 0.66771 0.93651 0.0
C182 C 1.00395 0.71533 0.009 0.0
O183 O 0.97515 0.64051 0.9886 0.0
H184 H 0.08717 0.71084 0.00215 0.0
H185 H 0.05508 0.74371 0.96111 0.0
H186 H 0.0571 0.66521 0.97002 0.0
H187 H 0.92196 0.64397 0.93161 0.0
H188 H 0.95269 0.61724 0.98063 0.0
H189 H 0.95566 0.68887 0.94638 0.0
Eu190 Eu 0.77849 0.08329 0.99221 0.0
C191 C 0.7636 0.08403 0.94012 0.0
O192 O 0.77309 0.11496 0.01665 0.0
C193 C 0.71144 0.04112 0.96819 0.0
C194 C 0.68738 0.04643 0.99384 0.0
C195 C 0.70369 0.02043 0.97397 0.0
C196 C 0.69148 0.02324 0.9861 0.0
C197 C 0.70653 0.06468 0.97397 0.0
C198 C 0.69446 0.06727 0.98682 0.0
Eu199 Eu 0.74917 0.0377 0.95851 0.0
O200 O 0.77615 0.04762 0.01198 0.0
O201 O 0.75776 0.00144 0.94671 0.0
O202 O 0.75907 0.06325 0.93113 0.0
O203 O 0.75504 0.04851 -0.00194 0.0
C204 C 0.76327 0.99819 0.92436 0.0
O205 O 0.7648 0.01703 0.90921 0.0
O206 O 0.73105 0.0572 0.94909 0.0
C207 C 0.72366 0.03784 0.95321 0.0
C208 C 0.76122 0.12461 0.01596 0.0
O209 O 0.75125 0.11162 0.00741 0.0
O210 O 0.73056 0.01796 0.95776 0.0
O211 O 0.76193 0.08858 0.96433 0.0
C212 C 0.80174 0.09096 0.97425 0.0
O213 O 0.79278 0.07833 0.9617 0.0
C214 C 0.81502 0.09531 0.96397 0.0
C215 C 0.84079 0.10148 0.94597 0.0
C216 C 0.82231 0.11636 0.97077 0.0
C217 C 0.8352 0.11972 0.96127 0.0
C218 C 0.82071 0.07758 0.94807 0.0
C219 C 0.83368 0.08045 0.93963 0.0
C220 C 0.76464 0.03687 0.00967 0.0
O221 O 0.79814 0.09908 -0.00331 0.0
H222 H 0.67767 0.04846 0.00253 0.0
H223 H 0.7067 0.00241 0.96753 0.0
H224 H 0.7117 0.08091 0.96756 0.0
H225 H 0.85091 0.10335 0.93929 0.0
H226 H 0.81796 0.13008 0.98311 0.0
H227 H 0.81529 0.06114 0.94311 0.0
Eu228 Eu 0.99256 0.08199 0.75263 0.0
C229 C 1.00121 0.0895 0.81071 0.0
O230 O 0.99946 0.11452 0.73087 0.0
C231 C 0.05129 0.0491 0.77096 0.0
C232 C 0.07668 0.04503 0.74983 0.0
C233 C 0.05772 0.02602 0.76993 0.0
C234 C 0.07058 0.02417 0.7596 0.0
C235 C 0.05807 0.07003 0.76245 0.0
C236 C 0.07077 0.06801 0.75201 0.0
Eu237 Eu 0.01374 0.04084 0.78953 0.0
O238 O 1.00099 0.05261 0.72698 0.0
O239 O 0.01226 0.00684 0.81302 0.0
O240 O 1.00244 0.06607 0.81526 0.0
O241 O 1.00495 0.02163 0.75594 0.0
C242 C 1.00104 0.99476 0.81325 0.0
O243 O 0.99097 0.00337 0.80025 0.0
O244 O 0.02879 0.06372 0.7716 0.0
C245 C 0.03846 0.05297 0.78412 0.0
C246 C 0.01165 0.12179 0.73466 0.0
O247 O 0.01973 0.10745 0.74726 0.0
O248 O 0.03438 0.03622 0.80019 0.0
O249 O 1.0016 0.09847 0.78771 0.0
C250 C 0.96683 0.08217 0.75593 0.0
O251 O 0.97446 0.06555 0.76672 0.0
C252 C 0.95528 0.0914 0.77086 0.0
C253 C 0.93193 0.10441 0.79661 0.0
C254 C 0.94874 0.11387 0.76529 0.0
C255 C 0.93697 0.12051 0.77834 0.0
C256 C 0.94955 0.07549 0.78871 0.0
C257 C 0.93789 0.08186 0.80123 0.0
C258 C 1.00319 0.02947 0.73263 0.0
O259 O 0.97344 0.09755 0.74154 0.0
H260 H 0.08677 0.04369 0.74277 0.0
H261 H 0.05309 0.00999 0.7781 0.0
H262 H 0.05374 0.08804 0.76504 0.0
H263 H 0.9225 0.1083 0.80568 0.0
H264 H 0.95253 0.12571 0.75052 0.0
H265 H 0.95369 0.05744 0.79186 0.0
Eu266 Eu 0.77634 0.66893 0.75331 0.0
C267 C 0.76711 0.66122 0.80924 0.0
O268 O 0.77067 0.63527 0.73182 0.0
C269 C 0.71553 0.70263 0.77885 0.0
C270 C 0.69101 0.70722 0.75447 0.0
C271 C 0.71046 0.72615 0.77282 0.0
C272 C 0.69812 0.72832 0.76052 0.0
C273 C 0.70779 0.68181 0.77367 0.0
C274 C 0.69554 0.68415 0.76157 0.0
Eu275 Eu 0.75321 0.71009 0.79377 0.0
O276 O 0.7692 0.69981 0.72896 0.0
O277 O 0.75635 0.74368 0.81784 0.0
O278 O 0.7653 0.68377 0.81705 0.0
O279 O 0.75937 0.72785 0.75715 0.0
C280 C 0.76599 0.75886 0.81219 0.0
O281 O 0.77396 0.75344 0.79328 0.0
O282 O 0.7374 0.68582 0.781 0.0
C283 C 0.72819 0.69886 0.7925 0.0
C284 C 0.75833 0.6278 0.73219 0.0
O285 O 0.74923 0.642 0.74227 0.0
O286 O 0.73295 0.71707 0.80599 0.0
O287 O 0.76423 0.65544 0.78586 0.0
C288 C 0.80182 0.66888 0.76095 0.0
O289 O 0.79345 0.68246 0.77412 0.0
C290 C 0.8136 0.65848 0.77419 0.0
C291 C 0.83773 0.64424 0.79629 0.0
C292 C 0.82067 0.63785 0.76468 0.0
C293 C 0.83276 0.63064 0.77599 0.0
C294 C 0.81912 0.67203 0.79432 0.0
C295 C 0.83121 0.66514 0.80498 0.0
C296 C 0.76408 0.72132 0.73476 0.0
O297 O 0.7961 0.65607 0.7429 0.0
H298 H 0.68124 0.70893 0.74605 0.0
H299 H 0.71591 0.74248 0.77796 0.0
H300 H 0.71111 0.66386 0.77969 0.0
H301 H 0.8473 0.63952 0.8043 0.0
H302 H 0.81705 0.62795 0.74829 0.0
H303 H 0.81444 0.6888 0.80075 0.0
Eu304 Eu 0.99822 0.78905 0.5382 0.0
C305 C 0.01316 0.78953 0.48563 0.0
O306 O 1.00611 0.7517 0.54808 0.0
C307 C 0.05961 0.85875 0.52396 0.0
C308 C 0.08352 0.86417 0.5502 0.0
C309 C 0.06736 0.8799 0.52069 0.0
C310 C 0.07942 0.88251 0.53355 0.0
C311 C 0.06426 0.83978 0.53981 0.0
C312 C 0.0763 0.84252 0.55278 0.0
Eu313 Eu 0.02388 0.84268 0.49832 0.0
O314 O 0.00945 0.81419 0.56417 0.0
O315 O 0.01547 0.85931 0.46269 0.0
O316 O 0.02325 0.80442 0.48223 0.0
O317 O 0.00981 0.84009 0.53131 0.0
C318 C 0.0128 0.88236 0.45738 0.0
O319 O 1.00813 0.88736 0.43475 0.0
O320 O 0.0445 0.8327 0.50185 0.0
C321 C 0.04821 0.85524 0.50685 0.0
C322 C 0.0134 0.74783 0.56833 0.0
O323 O 0.01723 0.76654 0.58213 0.0
O324 O 0.03842 0.8712 0.50713 0.0
O325 O 1.00253 0.79765 0.49727 0.0
C326 C 0.9728 0.79084 0.5454 0.0
O327 O 0.98034 0.81041 0.54489 0.0
C328 C 0.96066 0.79134 0.52974 0.0
C329 C 0.93743 0.79254 0.50085 0.0
C330 C 0.95465 0.76935 0.52162 0.0
C331 C 0.943 0.76994 0.50717 0.0
C332 C 0.9545 0.81383 0.52418 0.0
C333 C 0.94291 0.81442 0.50967 0.0
C334 C 0.0136 0.83496 0.55452 0.0
O335 O 0.97962 0.77039 0.54542 0.0
H336 H 0.09317 0.86556 0.55917 0.0
H337 H 0.06439 0.8937 0.50707 0.0
H338 H 0.05897 0.82258 0.54102 0.0
H339 H 0.92802 0.79304 0.49094 0.0
H340 H 0.95883 0.75181 0.52687 0.0
H341 H 0.95849 0.83081 0.53158 0.0
Eu342 Eu 0.26711 0.45589 0.54251 0.0
C343 C 0.2537 0.46552 0.48533 0.0
O344 O 0.26206 0.48765 0.56806 0.0
C345 C 0.20795 0.39787 0.52483 0.0
C346 C 0.18248 0.3926 0.5455 0.0
C347 C 0.19953 0.37873 0.51661 0.0
C348 C 0.18673 0.37627 0.52687 0.0
C349 C 0.2033 0.41445 0.54344 0.0
C350 C 0.1905 0.4119 0.55347 0.0
Eu351 Eu 0.24543 0.40858 0.50157 0.0
O352 O 0.2563 0.42654 0.56412 0.0
O353 O 0.25132 0.39108 0.46435 0.0
O354 O 0.24848 0.4439 0.48044 0.0
O355 O 0.25924 0.39803 0.53294 0.0
C356 C 0.25532 0.36873 0.45875 0.0
O357 O 0.25892 0.36434 0.43523 0.0
O358 O 0.22681 0.42351 0.51502 0.0
C359 C 0.22033 0.40304 0.51051 0.0
C360 C 0.25229 0.5025 0.56215 0.0
O361 O 0.24489 0.49737 0.54239 0.0
O362 O 0.22779 0.38512 0.50174 0.0
O363 O 0.2601 0.47201 0.50601 0.0
C364 C 0.29271 0.45015 0.54146 0.0
O365 O 0.2843 0.43395 0.53236 0.0
C366 C 0.3051 0.45436 0.52681 0.0
C367 C 0.32938 0.45869 0.50129 0.0
C368 C 0.3109 0.47782 0.52308 0.0
C369 C 0.32313 0.4799 0.51006 0.0
C370 C 0.31202 0.43346 0.51868 0.0
C371 C 0.32413 0.43558 0.50614 0.0
C372 C 0.25628 0.40367 0.55644 0.0
O373 O 0.2869 0.46876 0.5527 0.0
H374 H 0.17247 0.39109 0.5529 0.0
H375 H 0.2026 0.36671 0.50132 0.0
H376 H 0.20925 0.43 0.54914 0.0
H377 H 0.33908 0.4601 0.49247 0.0
H378 H 0.30612 0.4941 0.53046 0.0
H379 H 0.30823 0.41536 0.52297 0.0
Eu380 Eu 1.00216 0.46116 0.70037 0.0
C381 C 0.01406 0.47132 0.75781 0.0
O382 O 1.00544 0.49406 0.67554 0.0
C383 C 0.06295 0.41197 0.71449 0.0
C384 C 0.08656 0.39693 0.69096 0.0
C385 C 0.0686 0.38879 0.72024 0.0
C386 C 0.08048 0.3812 0.70834 0.0
C387 C 0.06968 0.42763 0.69766 0.0
C388 C 0.0815 0.42021 0.68619 0.0
Eu389 Eu 0.02586 0.42055 0.73559 0.0
O390 O 0.01233 0.43432 0.67416 0.0
O391 O 0.02043 0.38682 0.75696 0.0
O392 O 0.01799 0.44885 0.76256 0.0
O393 O 0.01509 0.40329 0.70304 0.0
C394 C 1.00798 0.3801 0.75671 0.0
O395 O 0.99914 0.39502 0.74702 0.0
O396 O 0.04291 0.43598 0.71591 0.0
C397 C 0.05133 0.42206 0.72849 0.0
C398 C 0.01572 0.50825 0.6796 0.0
O399 O 0.02429 0.50209 0.6972 0.0
O400 O 0.04568 0.40848 0.74601 0.0
O401 O 0.01026 0.4792 0.73538 0.0
C402 C 0.97692 0.45234 0.70415 0.0
O403 O 0.98609 0.43773 0.71348 0.0
C404 C 0.96412 0.45442 0.71791 0.0
C405 C 0.93905 0.4549 0.74076 0.0
C406 C 0.95797 0.47707 0.72433 0.0
C407 C 0.94533 0.47724 0.73608 0.0
C408 C 0.95722 0.43248 0.72213 0.0
C409 C 0.94473 0.43276 0.73341 0.0
C410 C 0.0144 0.41116 0.67963 0.0
O411 O 0.98171 0.4715 0.69226 0.0
H412 H 0.09607 0.39201 0.68277 0.0
H413 H 0.06406 0.37708 0.73434 0.0
H414 H 0.06613 0.44611 0.69453 0.0
H415 H 0.92907 0.45475 0.74848 0.0
H416 H 0.96284 0.49421 0.72002 0.0
H417 H 0.96135 0.41518 0.7158 0.0
Eu418 Eu 0.26609 0.78473 0.70625 0.0
C419 C 0.24926 0.79128 0.75717 0.0
O420 O 0.2647 0.74643 0.6912 0.0
C421 C 0.20061 0.84409 0.7147 0.0
C422 C 0.17652 0.85754 0.69231 0.0
C423 C 0.19342 0.86447 0.72402 0.0
C424 C 0.18135 0.87119 0.71269 0.0
C425 C 0.19536 0.8303 0.69454 0.0
C426 C 0.18325 0.8368 0.6837 0.0
Eu427 Eu 0.23674 0.83706 0.74162 0.0
O428 O 0.25715 0.81258 0.67941 0.0
O429 O 0.24211 0.8742 0.75521 0.0
O430 O 0.24244 0.80776 0.76928 0.0
O431 O 0.25271 0.84033 0.71076 0.0
C432 C 0.25444 0.87856 0.76146 0.0
O433 O 0.26303 0.86051 0.76182 0.0
O434 O 0.22183 0.82403 0.71507 0.0
C435 C 0.21215 0.83402 0.72837 0.0
C436 C 0.25539 0.74168 0.67455 0.0
O437 O 0.24763 0.75957 0.66707 0.0
O438 O 0.21611 0.84513 0.74921 0.0
O439 O 0.25002 0.79496 0.73272 0.0
C440 C 0.28893 0.79903 0.7225 0.0
O441 O 0.28032 0.78747 0.73692 0.0
C442 C 0.30304 0.79451 0.7269 0.0
C443 C 0.3298 0.78857 0.73852 0.0
C444 C 0.30835 0.77074 0.72949 0.0
C445 C 0.32185 0.76792 0.73525 0.0
C446 C 0.31127 0.81505 0.72967 0.0
C447 C 0.3246 0.81203 0.73577 0.0
C448 C 0.25198 0.83381 0.68662 0.0
O449 O 0.28499 0.80244 0.69896 0.0
H450 H 0.16689 0.86194 0.68438 0.0
H451 H 0.19684 0.87441 0.74056 0.0
H452 H 0.20022 0.81361 0.68839 0.0
H453 H 0.34024 0.78633 0.74286 0.0
H454 H 0.30208 0.7548 0.72726 0.0
H455 H 0.30726 0.83336 0.72756 0.0
Eu456 Eu 0.99389 0.16408 0.48731 0.0
C457 C 1.00441 0.15855 0.43053 0.0
O458 O 1.00326 0.15298 0.52437 0.0
C459 C 0.05649 0.20218 0.45907 0.0
C460 C 0.07944 0.20468 0.48878 0.0
C461 C 0.06263 0.22503 0.46387 0.0
C462 C 0.07421 0.22615 0.47862 0.0
C463 C 0.06247 0.18071 0.46815 0.0
C464 C 0.07398 0.18192 0.48275 0.0
Eu465 Eu 0.0194 0.2076 0.44777 0.0
O466 O 0.99473 0.20522 0.49029 0.0
O467 O 0.0142 0.24227 0.42653 0.0
O468 O 1.00681 0.18158 0.42467 0.0
O469 O 0.01656 0.21535 0.48919 0.0
C470 C 1.00469 0.25738 0.43341 0.0
O471 O 0.99731 0.25196 0.45314 0.0
O472 O 0.03613 0.18255 0.44892 0.0
C473 C 0.04458 0.19993 0.44287 0.0
C474 C 1.00567 0.13064 0.53276 0.0
O475 O 0.01055 0.12831 0.5557 0.0
O476 O 0.0388 0.2203 0.43571 0.0
O477 O 1.00563 0.15045 0.45386 0.0
C478 C 0.96909 0.15146 0.4864 0.0
O479 O 0.97319 0.17407 0.48888 0.0
C480 C 0.95725 0.14743 0.47066 0.0
C481 C 0.93283 0.14174 0.44636 0.0
C482 C 0.94897 0.12765 0.47681 0.0
C483 C 0.93675 0.12492 0.46469 0.0
C484 C 0.95305 0.16476 0.45248 0.0
C485 C 0.94073 0.16193 0.44058 0.0
C486 C 1.00509 0.21552 0.50071 0.0
O487 O 0.97876 0.1354 0.48534 0.0
H488 H 0.0888 0.20548 0.49886 0.0
H489 H 0.05878 0.24166 0.45546 0.0
H490 H 0.05856 0.16294 0.46285 0.0
H491 H 0.92311 0.14001 0.43773 0.0
H492 H 0.95174 0.11504 0.49176 0.0
H493 H 0.95898 0.18081 0.44848 0.0
Eu494 Eu 0.77221 0.5869 0.48876 0.0
C495 C 0.76081 0.58966 0.4355 0.0
O496 O 0.76679 0.60374 0.52653 0.0
C497 C 0.71057 0.54388 0.46402 0.0
C498 C 0.6871 0.54043 0.49212 0.0
C499 C 0.7048 0.52068 0.46873 0.0
C500 C 0.693 0.519 0.48297 0.0
C501 C 0.70408 0.56506 0.47257 0.0
C502 C 0.69231 0.5634 0.48634 0.0
Eu503 Eu 0.74794 0.54014 0.44804 0.0
O504 O 0.77099 0.54967 0.50704 0.0
O505 O 0.75285 0.50743 0.42394 0.0
O506 O 0.75883 0.56814 0.42533 0.0
O507 O 0.75432 0.52668 0.48635 0.0
C508 C 0.76336 0.49405 0.42871 0.0
O509 O 0.77143 0.50079 0.44695 0.0
O510 O 0.73113 0.56373 0.45596 0.0
C511 C 0.72254 0.54723 0.44818 0.0
C512 C 0.76512 0.62683 0.53315 0.0
O513 O 0.76229 0.63152 0.55699 0.0
O514 O 0.72811 0.52777 0.43811 0.0
O515 O 0.75708 0.59335 0.45895 0.0
C516 C 0.79617 0.59556 0.4742 0.0
O517 O 0.79026 0.57443 0.47028 0.0
C518 C 0.80991 0.60007 0.46551 0.0
C519 C 0.83628 0.60708 0.45065 0.0
C520 C 0.81722 0.6201 0.47506 0.0
C521 C 0.83042 0.62355 0.46747 0.0
C522 C 0.81605 0.5836 0.44842 0.0
C523 C 0.82929 0.58704 0.44127 0.0
C524 C 0.76308 0.53051 0.50454 0.0
O525 O 0.78894 0.61228 0.48582 0.0
H526 H 0.67761 0.53929 0.50175 0.0
H527 H 0.70925 0.5042 0.46106 0.0
H528 H 0.70786 0.58299 0.46756 0.0
H529 H 0.84654 0.60969 0.44507 0.0
H530 H 0.81277 0.63273 0.48847 0.0
H531 H 0.81068 0.56797 0.44109 0.0
Eu532 Eu 0.99132 0.59119 0.25393 0.0
C533 C 1.00279 0.589 0.30997 0.0
O534 O 0.99916 0.60564 0.21674 0.0
C535 C 0.0554 0.54316 0.28249 0.0
C536 C 0.07835 0.5402 0.25271 0.0
C537 C 0.06103 0.52012 0.27661 0.0
C538 C 0.07252 0.51871 0.26164 0.0
C539 C 0.06186 0.56457 0.27435 0.0
C540 C 0.07335 0.56311 0.25958 0.0
Eu541 Eu 0.01792 0.54175 0.29313 0.0
O542 O 0.99205 0.55229 0.23959 0.0
O543 O 0.01142 0.50311 0.30229 0.0
O544 O 1.00646 0.5674 0.31862 0.0
O545 O 0.01332 0.54742 0.25194 0.0
C546 C 1.00316 0.49798 0.32087 0.0
O547 O 0.99753 0.51602 0.33337 0.0
O548 O 0.03568 0.56421 0.29418 0.0
C549 C 0.04341 0.54536 0.29856 0.0
C550 C 1.00252 0.6281 0.21027 0.0
O551 O 1.00687 0.63169 0.1871 0.0
O552 O 0.0368 0.52526 0.30345 0.0
O553 O 1.00579 0.59461 0.2864 0.0
C554 C 0.96676 0.60307 0.26157 0.0
O555 O 0.97107 0.5804 0.26047 0.0
C556 C 0.95491 0.60819 0.27726 0.0
C557 C 0.93029 0.61559 0.30066 0.0
C558 C 0.94742 0.62941 0.27205 0.0
C559 C 0.93506 0.63309 0.28368 0.0
C560 C 0.94961 0.59022 0.29365 0.0
C561 C 0.93721 0.59389 0.30506 0.0
C562 C 1.00253 0.53827 0.24207 0.0
O563 O 0.97613 0.61965 0.25891 0.0
H564 H 0.08765 0.53909 0.24241 0.0
H565 H 0.05671 0.50343 0.28395 0.0
H566 H 0.05821 0.58239 0.28015 0.0
H567 H 0.92045 0.61776 0.30872 0.0
H568 H 0.95091 0.64246 0.25809 0.0
H569 H 0.95468 0.57295 0.29643 0.0
Eu570 Eu 0.77616 0.17061 0.25833 0.0
C571 C 0.76485 0.15863 0.31304 0.0
O572 O 0.77295 0.13604 0.23688 0.0
C573 C 0.71482 0.20061 0.27674 0.0
C574 C 0.68998 0.20652 0.25388 0.0
C575 C 0.70878 0.22408 0.2759 0.0
C576 C 0.69621 0.22685 0.26452 0.0
C577 C 0.70788 0.18027 0.26724 0.0
C578 C 0.69546 0.1832 0.25594 0.0
Eu579 Eu 0.75226 0.208 0.2952 0.0
O580 O 0.76766 0.19936 0.23257 0.0
O581 O 0.75345 0.24348 0.31643 0.0
O582 O 0.76384 0.18175 0.31956 0.0
O583 O 0.76012 0.22833 0.2615 0.0
C584 C 0.76499 0.25202 0.3236 0.0
O585 O 0.77563 0.2386 0.32005 0.0
O586 O 0.73724 0.18591 0.27623 0.0
C587 C 0.72757 0.19568 0.28973 0.0
C588 C 0.76089 0.12838 0.2325 0.0
O589 O 0.75089 0.14321 0.23676 0.0
O590 O 0.73167 0.2112 0.30712 0.0
O591 O 0.76459 0.152 0.28916 0.0
C592 C 0.80136 0.17395 0.26774 0.0
O593 O 0.79224 0.185 0.28166 0.0
C594 C 0.81293 0.16276 0.28088 0.0
C595 C 0.83645 0.14594 0.3034 0.0
C596 C 0.81883 0.14043 0.27277 0.0
C597 C 0.83066 0.13203 0.28415 0.0
C598 C 0.81944 0.17687 0.29942 0.0
C599 C 0.83125 0.16866 0.3103 0.0
C600 C 0.76318 0.22131 0.23833 0.0
O601 O 0.79653 0.1627 0.24772 0.0
H602 H 0.68009 0.20857 0.24603 0.0
H603 H 0.71355 0.23972 0.2846 0.0
H604 H 0.71191 0.16199 0.2695 0.0
H605 H 0.84593 0.1403 0.31118 0.0
H606 H 0.81459 0.13015 0.25719 0.0
H607 H 0.81576 0.19493 0.30427 0.0
Eu608 Eu 0.50368 0.28949 0.54047 0.0
C609 C 0.51417 0.27865 0.48432 0.0
O610 O 0.50454 0.25331 0.56052 0.0
C611 C 0.56275 0.33736 0.52002 0.0
C612 C 0.58583 0.35182 0.54565 0.0
C613 C 0.56952 0.35913 0.51287 0.0
C614 C 0.58111 0.36651 0.5259 0.0
C615 C 0.56807 0.32283 0.53956 0.0
C616 C 0.57958 0.32998 0.5521 0.0
Eu617 Eu 0.52538 0.33008 0.50402 0.0
O618 O 0.51351 0.31597 0.56726 0.0
O619 O 0.51926 0.36325 0.48238 0.0
O620 O 0.51569 0.30193 0.47873 0.0
O621 O 0.51766 0.34793 0.5396 0.0
C622 C 0.50715 0.37146 0.48522 0.0
O623 O 0.49859 0.35811 0.49787 0.0
O624 O 0.54327 0.31224 0.51744 0.0
C625 C 0.5511 0.32788 0.50567 0.0
C626 C 0.51535 0.24664 0.57246 0.0
O627 O 0.52535 0.26194 0.57365 0.0
O628 O 0.54464 0.34311 0.49087 0.0
O629 O 0.51399 0.27094 0.50789 0.0
C630 C 0.4791 0.30105 0.53274 0.0
O631 O 0.48881 0.30948 0.51849 0.0
C632 C 0.4659 0.29701 0.52143 0.0
C633 C 0.43993 0.29239 0.50354 0.0
C634 C 0.46032 0.27344 0.51776 0.0
C635 C 0.44723 0.27127 0.50862 0.0
C636 C 0.45812 0.3179 0.51693 0.0
C637 C 0.44516 0.31553 0.50813 0.0
C638 C 0.51598 0.33918 0.5626 0.0
O639 O 0.48298 0.28641 0.55104 0.0
H640 H 0.59506 0.35645 0.55503 0.0
H641 H 0.56598 0.36999 0.4971 0.0
H642 H 0.5636 0.30542 0.54438 0.0
H643 H 0.42969 0.29078 0.49744 0.0
H644 H 0.46596 0.25716 0.52231 0.0
H645 H 0.46199 0.33598 0.5211 0.0
Eu646 Eu 0.76849 0.95953 0.5416 0.0
C647 C 0.75176 0.96185 0.49112 0.0
O648 O 0.76198 0.99357 0.56208 0.0
C649 C 0.70411 0.89197 0.52691 0.0
C650 C 0.67958 0.88467 0.55063 0.0
C651 C 0.69665 0.8707 0.5219 0.0
C652 C 0.68433 0.86709 0.53365 0.0
C653 C 0.69883 0.91009 0.54324 0.0
C654 C 0.68647 0.90644 0.55488 0.0
Eu655 Eu 0.74028 0.9091 0.50199 0.0
O656 O 0.75766 0.93362 0.56703 0.0
O657 O 0.74783 0.89525 0.46435 0.0
O658 O 0.74111 0.94818 0.48866 0.0
O659 O 0.75533 0.90888 0.53335 0.0
C660 C 0.75137 0.87291 0.45784 0.0
O661 O 0.75565 0.8693 0.4346 0.0
O662 O 0.7199 0.91945 0.50832 0.0
C663 C 0.71598 0.89669 0.51115 0.0
C664 C 0.75196 0.00755 0.55576 0.0
O665 O 0.74442 0.00145 0.53648 0.0
O666 O 0.72559 0.88039 0.50957 0.0
O667 O 0.76243 0.9523 0.50119 0.0
C668 C 0.79401 0.95719 0.54512 0.0
O669 O 0.78634 0.93786 0.54762 0.0
C670 C 0.80576 0.95514 0.52859 0.0
C671 C 0.82902 0.95195 0.49995 0.0
C672 C 0.81281 0.97648 0.52201 0.0
C673 C 0.82459 0.97477 0.50823 0.0
C674 C 0.81098 0.93208 0.52197 0.0
C675 C 0.82267 0.93052 0.50771 0.0
C676 C 0.75241 0.91387 0.55706 0.0
O677 O 0.78739 0.97783 0.54355 0.0
H678 H 0.66978 0.88248 0.55884 0.0
H679 H 0.70013 0.85753 0.50798 0.0
H680 H 0.70391 0.92736 0.54587 0.0
H681 H 0.83852 0.95077 0.49034 0.0
H682 H 0.80967 0.99422 0.52905 0.0
H683 H 0.80642 0.91544 0.52892 0.0
Eu684 Eu 0.49797 0.96098 0.70023 0.0
C685 C 0.51579 0.96154 0.74994 0.0
O686 O 0.50587 0.99266 0.67767 0.0
C687 C 0.56254 0.8905 0.71688 0.0
C688 C 0.58768 0.88723 0.69473 0.0
C689 C 0.57091 0.87055 0.72238 0.0
C690 C 0.58352 0.86888 0.71131 0.0
C691 C 0.56701 0.90918 0.70045 0.0
C692 C 0.57971 0.90752 0.68958 0.0
Eu693 Eu 0.52644 0.90766 0.74224 0.0
O694 O 0.50672 0.93144 0.67556 0.0
O695 O 0.51871 0.89307 0.77935 0.0
O696 O 0.52621 0.94752 0.75394 0.0
O697 O 0.51095 0.91241 0.71198 0.0
C698 C 0.51528 0.87057 0.78527 0.0
O699 O 0.51091 0.86643 0.80833 0.0
O700 O 0.54749 0.91457 0.74154 0.0
C701 C 0.55024 0.89299 0.73182 0.0
C702 C 0.51451 0.00846 0.68639 0.0
O703 O 0.51982 0.005 0.70882 0.0
O704 O 0.53976 0.87943 0.72679 0.0
O705 O 0.50525 0.95159 0.73962 0.0
C706 C 0.47237 0.96292 0.69946 0.0
O707 O 0.47911 0.9436 0.69189 0.0
C708 C 0.46063 0.95905 0.71563 0.0
C709 C 0.43728 0.95284 0.74338 0.0
C710 C 0.45291 0.97949 0.72262 0.0
C711 C 0.44102 0.97627 0.73582 0.0
C712 C 0.45607 0.93532 0.7214 0.0
C713 C 0.44434 0.93227 0.73526 0.0
C714 C 0.51267 0.91338 0.68734 0.0
O715 O 0.47987 0.98173 0.70534 0.0
H716 H 0.59758 0.88642 0.68673 0.0
H717 H 0.5678 0.85676 0.73589 0.0
H718 H 0.56094 0.92519 0.69701 0.0
H719 H 0.42782 0.95044 0.75289 0.0
H720 H 0.45565 0.99766 0.71626 0.0
H721 H 0.46119 0.91931 0.7142 0.0
Eu722 Eu 0.76706 0.28772 0.70123 0.0
C723 C 0.75494 0.27641 0.75916 0.0
O724 O 0.7648 0.25232 0.68 0.0
C725 C 0.70692 0.33951 0.71598 0.0
C726 C 0.68324 0.35456 0.6929 0.0
C727 C 0.70087 0.36204 0.72305 0.0
C728 C 0.68897 0.36964 0.7113 0.0
C729 C 0.70052 0.32443 0.69815 0.0
C730 C 0.68864 0.33178 0.68702 0.0
Eu731 Eu 0.74362 0.32916 0.74001 0.0
O732 O 0.75578 0.3146 0.67698 0.0
O733 O 0.74837 0.36332 0.76146 0.0
O734 O 0.7503 0.29831 0.76489 0.0
O735 O 0.75674 0.34228 0.70874 0.0
C736 C 0.76057 0.37148 0.76192 0.0
O737 O 0.77012 0.35764 0.75282 0.0
O738 O 0.72722 0.31607 0.71679 0.0
C739 C 0.71843 0.32892 0.72975 0.0
C740 C 0.7533 0.24553 0.67084 0.0
O741 O 0.74313 0.26045 0.67268 0.0
O742 O 0.72355 0.3411 0.7489 0.0
O743 O 0.75949 0.26964 0.73671 0.0
C744 C 0.79208 0.29838 0.70485 0.0
O745 O 0.78275 0.31022 0.71738 0.0
C746 C 0.80487 0.29412 0.71796 0.0
C747 C 0.82971 0.2897 0.74119 0.0
C748 C 0.81075 0.27066 0.72103 0.0
C749 C 0.82328 0.26856 0.73287 0.0
C750 C 0.81192 0.31502 0.72557 0.0
C751 C 0.82432 0.31284 0.73703 0.0
C752 C 0.75419 0.33714 0.68508 0.0
O753 O 0.7875 0.2815 0.68941 0.0
H754 H 0.67369 0.35946 0.68486 0.0
H755 H 0.7051 0.37315 0.73802 0.0
H756 H 0.70432 0.30627 0.69412 0.0
H757 H 0.83958 0.28819 0.7492 0.0
H758 H 0.8058 0.25442 0.71409 0.0
H759 H 0.80796 0.33312 0.72183 0.0
Eu760 Eu 0.49183 0.66857 0.48736 0.0
C761 C 0.50241 0.65898 0.43174 0.0
O762 O 0.49762 0.63594 0.51032 0.0
C763 C 0.55193 0.70292 0.46453 0.0
C764 C 0.57644 0.70612 0.48912 0.0
C765 C 0.55719 0.72617 0.47119 0.0
C766 C 0.56955 0.72764 0.48371 0.0
C767 C 0.55945 0.68176 0.46924 0.0
C768 C 0.57167 0.6834 0.48144 0.0
Eu769 Eu 0.51411 0.70971 0.44879 0.0
O770 O 0.49848 0.69944 0.51271 0.0
O771 O 0.51105 0.74285 0.42409 0.0
O772 O 0.50284 0.68214 0.42507 0.0
O773 O 0.50766 0.72819 0.48497 0.0
C774 C 0.50108 0.75775 0.42852 0.0
O775 O 0.49258 0.75217 0.44647 0.0
O776 O 0.53012 0.68595 0.46157 0.0
C777 C 0.53927 0.69956 0.45074 0.0
C778 C 0.50996 0.62841 0.50983 0.0
O779 O 0.519 0.64238 0.49928 0.0
O780 O 0.53443 0.718 0.43776 0.0
O781 O 0.50384 0.65274 0.45551 0.0
C782 C 0.46638 0.66737 0.47945 0.0
O783 O 0.47453 0.68199 0.46707 0.0
C784 C 0.45461 0.65744 0.46575 0.0
C785 C 0.43047 0.64405 0.4432 0.0
C786 C 0.44831 0.63499 0.47244 0.0
C787 C 0.43617 0.62815 0.46089 0.0
C788 C 0.44825 0.67313 0.44846 0.0
C789 C 0.43616 0.66663 0.43764 0.0
C790 C 0.50332 0.72129 0.50747 0.0
O791 O 0.47227 0.65399 0.4968 0.0
H792 H 0.58621 0.7072 0.49765 0.0
H793 H 0.55188 0.74278 0.46651 0.0
H794 H 0.55597 0.66403 0.46279 0.0
H795 H 0.42081 0.6399 0.4353 0.0
H796 H 0.45258 0.62335 0.48689 0.0
H797 H 0.45225 0.69115 0.44461 0.0
Eu798 Eu 0.27736 0.08439 0.49007 0.0
C799 C 0.2628 0.09137 0.43858 0.0
O800 O 0.2725 0.10033 0.52859 0.0
C801 C 0.21251 0.04254 0.46522 0.0
C802 C 0.18895 0.04115 0.4932 0.0
C803 C 0.20679 0.01981 0.47191 0.0
C804 C 0.19498 0.01919 0.48603 0.0
C805 C 0.20586 0.06434 0.4716 0.0
C806 C 0.19412 0.06363 0.48559 0.0
Eu807 Eu 0.25029 0.0421 0.45785 0.0
O808 O 0.27585 0.04555 0.50505 0.0
O809 O 0.25775 0.00464 0.44627 0.0
O810 O 0.26104 0.06834 0.43196 0.0
O811 O 0.25345 0.0441 0.5001 0.0
C812 C 0.26351 0.00043 0.42427 0.0
O813 O 0.26621 0.01894 0.40927 0.0
O814 O 0.23228 0.06351 0.45402 0.0
C815 C 0.22489 0.04405 0.45025 0.0
C816 C 0.26755 0.12192 0.53484 0.0
O817 O 0.26445 0.12558 0.55875 0.0
O818 O 0.23186 0.02395 0.44748 0.0
O819 O 0.26206 0.09781 0.46255 0.0
C820 C 0.30111 0.0939 0.47456 0.0
O821 O 0.29445 0.07448 0.46709 0.0
C822 C 0.31475 0.0989 0.46534 0.0
C823 C 0.34054 0.10741 0.44775 0.0
C824 C 0.3218 0.11994 0.47336 0.0
C825 C 0.33471 0.12433 0.46424 0.0
C826 C 0.3209 0.08221 0.44856 0.0
C827 C 0.33384 0.08637 0.4401 0.0
C828 C 0.26434 0.03537 0.51015 0.0
O829 O 0.29482 0.10825 0.49061 0.0
H830 H 0.17946 0.04067 0.50293 0.0
H831 H 0.21134 0.00277 0.46597 0.0
H832 H 0.20961 0.08186 0.46521 0.0
H833 H 0.35061 0.11033 0.44121 0.0
H834 H 0.31731 0.13284 0.48643 0.0
H835 H 0.3158 0.06579 0.44247 0.0
Eu836 Eu 0.49117 0.09037 0.24843 0.0
C837 C 0.50285 0.08562 0.304 0.0
O838 O 0.49884 0.10488 0.21125 0.0
C839 C 0.55662 0.04213 0.27925 0.0
C840 C 0.58057 0.04129 0.25236 0.0
C841 C 0.56284 0.01959 0.27341 0.0
C842 C 0.57486 0.01926 0.25995 0.0
C843 C 0.56302 0.06413 0.27275 0.0
C844 C 0.57498 0.06367 0.25937 0.0
Eu845 Eu 0.51874 0.03997 0.28863 0.0
O846 O 0.49189 0.05113 0.23513 0.0
O847 O 0.51203 0.00209 0.29934 0.0
O848 O 0.50751 0.06551 0.31434 0.0
O849 O 0.51322 0.04619 0.24777 0.0
C850 C 0.50276 0.9976 0.31622 0.0
O851 O 0.49617 0.01589 0.32639 0.0
O852 O 0.53655 0.06223 0.29118 0.0
C853 C 0.54426 0.0431 0.29437 0.0
C854 C 0.50251 0.12733 0.20563 0.0
O855 O 0.50695 0.13162 0.18266 0.0
O856 O 0.53762 0.02266 0.2971 0.0
O857 O 0.50602 0.08968 0.28022 0.0
C858 C 0.46704 0.10383 0.25844 0.0
O859 O 0.47041 0.08135 0.25232 0.0
C860 C 0.4563 0.10695 0.27726 0.0
C861 C 0.43491 0.11297 0.31029 0.0
C862 C 0.44751 0.12681 0.27423 0.0
C863 C 0.43628 0.12921 0.28992 0.0
C864 C 0.45316 0.08842 0.2949 0.0
C865 C 0.44224 0.09131 0.31113 0.0
C866 C 0.50236 0.03701 0.23796 0.0
O867 O 0.47706 0.11926 0.2587 0.0
H868 H 0.59019 0.04104 0.24311 0.0
H869 H 0.55859 0.00247 0.27976 0.0
H870 H 0.55898 0.08158 0.27884 0.0
H871 H 0.4267 0.11508 0.32339 0.0
H872 H 0.44893 0.13915 0.25839 0.0
H873 H 0.45868 0.07141 0.29512 0.0
Eu874 Eu 0.27218 0.66357 0.25318 0.0
C875 C 0.26226 0.65978 0.30801 0.0
O876 O 0.26598 0.64509 0.21668 0.0
C877 C 0.21335 0.70281 0.27844 0.0
C878 C 0.18909 0.70707 0.25324 0.0
C879 C 0.208 0.72623 0.2733 0.0
C880 C 0.19578 0.72823 0.26065 0.0
C881 C 0.20606 0.68181 0.27199 0.0
C882 C 0.19393 0.68397 0.2595 0.0
Eu883 Eu 0.25082 0.71055 0.2934 0.0
O884 O 0.27046 0.69968 0.23245 0.0
O885 O 0.25422 0.74426 0.31749 0.0
O886 O 0.26249 0.68279 0.31509 0.0
O887 O 0.25708 0.72669 0.25627 0.0
C888 C 0.26407 0.75923 0.31237 0.0
O889 O 0.27226 0.75356 0.29389 0.0
O890 O 0.23508 0.68616 0.28102 0.0
C891 C 0.22587 0.69924 0.29239 0.0
C892 C 0.26342 0.62198 0.21128 0.0
O893 O 0.25989 0.61673 0.18793 0.0
O894 O 0.23059 0.71764 0.30565 0.0
O895 O 0.25854 0.65392 0.28496 0.0
C896 C 0.29645 0.65515 0.26583 0.0
O897 O 0.29031 0.67581 0.27116 0.0
C898 C 0.31038 0.65096 0.27356 0.0
C899 C 0.33684 0.64426 0.28801 0.0
C900 C 0.31766 0.63065 0.26436 0.0
C901 C 0.33091 0.62733 0.27181 0.0
C902 C 0.31657 0.66768 0.29019 0.0
C903 C 0.32983 0.66444 0.29709 0.0
C904 C 0.26433 0.72077 0.23635 0.0
O905 O 0.28937 0.6389 0.25332 0.0
H906 H 0.17936 0.70865 0.24461 0.0
H907 H 0.21309 0.74263 0.27947 0.0
H908 H 0.20961 0.66383 0.27742 0.0
H909 H 0.34711 0.64175 0.29354 0.0
H910 H 0.31312 0.61762 0.25154 0.0
H911 H 0.3112 0.68337 0.29748 0.0
Eu912 Eu 0.49853 0.79022 0.04393 0.0
C913 C 0.51288 0.78396 0.99051 0.0
O914 O 0.50472 0.75584 0.06456 0.0
C915 C 0.55863 0.85364 0.03002 0.0
C916 C 0.58115 0.85991 0.06015 0.0
C917 C 0.56722 0.87352 0.02574 0.0
C918 C 0.57889 0.87595 0.03998 0.0
C919 C 0.56223 0.83561 0.04797 0.0
C920 C 0.57365 0.83865 0.06274 0.0
Eu921 Eu 0.52312 0.83882 0.00339 0.0
O922 O 0.51012 0.81717 0.06747 0.0
O923 O 0.51562 0.85465 0.9665 0.0
O924 O 0.52266 0.79978 0.98882 0.0
O925 O 0.50935 0.84572 0.03634 0.0
C926 C 0.51372 0.87761 0.95951 0.0
O927 O 0.50979 0.88155 0.93614 0.0
O928 O 0.54319 0.82694 0.01004 0.0
C929 C 0.54782 0.84931 0.01167 0.0
C930 C 0.51511 0.74227 0.05916 0.0
O931 O 0.5232 0.74905 0.04096 0.0
O932 O 0.53878 0.86633 0.00813 0.0
O933 O 0.50173 0.78979 0.0017 0.0
C934 C 0.47311 0.79437 0.04948 0.0
O935 O 0.48105 0.81337 0.04758 0.0
C936 C 0.46128 0.79414 0.03292 0.0
C937 C 0.43861 0.79469 0.0024 0.0
C938 C 0.45588 0.77197 0.02362 0.0
C939 C 0.44448 0.77227 0.00835 0.0
C940 C 0.45473 0.81629 0.0278 0.0
C941 C 0.44339 0.81655 0.01262 0.0
C942 C 0.51251 0.83958 0.05964 0.0
O943 O 0.47949 0.7736 0.05207 0.0
H944 H 0.59013 0.86181 0.07127 0.0
H945 H 0.56545 0.88566 0.00985 0.0
H946 H 0.55674 0.81865 0.04935 0.0
H947 H 0.42936 0.7949 0.99193 0.0
H948 H 0.46027 0.75455 0.02863 0.0
H949 H 0.45815 0.83323 0.03628 0.0
Eu950 Eu 0.76786 0.46179 0.04316 0.0
C951 C 0.75042 0.47264 0.99011 0.0
O952 O 0.76314 0.49474 0.06674 0.0
C953 C 0.70421 0.40565 0.03358 0.0
C954 C 0.67669 0.40285 0.04039 0.0
C955 C 0.69679 0.38667 0.02199 0.0
C956 C 0.68303 0.38528 0.02556 0.0
C957 C 0.69761 0.42276 0.04924 0.0
C958 C 0.68382 0.42145 0.05239 0.0
Eu959 Eu 0.74079 0.41972 0.01049 0.0
O960 O 0.75788 0.43428 0.06803 0.0
O961 O 0.74498 0.39382 0.97865 0.0
O962 O 0.74063 0.45671 0.99205 0.0
O963 O 0.75822 0.40993 0.03396 0.0
C964 C 0.7565 0.38279 0.97757 0.0
O965 O 0.76698 0.39418 0.98638 0.0
O966 O 0.72579 0.4242 0.04028 0.0
C967 C 0.7189 0.40531 0.03206 0.0
C968 C 0.75242 0.5077 0.06268 0.0
O969 O 0.74403 0.50064 0.04514 0.0
O970 O 0.72426 0.39455 0.01229 0.0
O971 O 0.76131 0.47326 0.00402 0.0
C972 C 0.79331 0.45487 0.0428 0.0
O973 O 0.78474 0.43816 0.03548 0.0
C974 C 0.80542 0.45774 0.02719 0.0
C975 C 0.82933 0.46071 0.00034 0.0
C976 C 0.81158 0.48073 0.02334 0.0
C977 C 0.8236 0.4821 0.00982 0.0
C978 C 0.81177 0.43641 0.01848 0.0
C979 C 0.82374 0.43786 0.00525 0.0
C980 C 0.75651 0.41249 0.05828 0.0
O981 O 0.78771 0.47463 0.05214 0.0
H982 H 0.66609 0.40141 0.04351 0.0
H983 H 0.70171 0.37259 0.01095 0.0
H984 H 0.70313 0.43675 0.05925 0.0
H985 H 0.83894 0.46173 0.99113 0.0
H986 H 0.80732 0.49726 0.03125 0.0
H987 H 0.80772 0.41855 0.02294 0.0
Eu988 Eu 0.49945 0.46027 0.20253 0.0
C989 C 0.51519 0.46089 0.25362 0.0
O990 O 0.50704 0.49781 0.19181 0.0
C991 C 0.56127 0.39025 0.21569 0.0
C992 C 0.58308 0.38507 0.18359 0.0
C993 C 0.57041 0.37098 0.21946 0.0
C994 C 0.58187 0.36898 0.20418 0.0
C995 C 0.56431 0.40876 0.19802 0.0
C996 C 0.57545 0.40635 0.18233 0.0
Eu997 Eu 0.52605 0.40776 0.24249 0.0
O998 O 0.5102 0.43368 0.17691 0.0
O999 O 0.51795 0.39417 0.27973 0.0
O1000 O 0.5258 0.44701 0.25554 0.0
O1001 O 0.51114 0.4085 0.21055 0.0
C1002 C 0.51432 0.37186 0.2859 0.0
O1003 O 0.50968 0.36814 0.30884 0.0
O1004 O 0.54702 0.41544 0.24063 0.0
C1005 C 0.55015 0.39303 0.23376 0.0
C1006 C 0.51443 0.50197 0.1717 0.0
O1007 O 0.51877 0.48336 0.15823 0.0
O1008 O 0.53984 0.37838 0.2318 0.0
O1009 O 0.50449 0.45189 0.24311 0.0
C1010 C 0.47385 0.45913 0.19714 0.0
O1011 O 0.48132 0.43945 0.1966 0.0
C1012 C 0.46172 0.4583 0.21298 0.0
C1013 C 0.43823 0.45636 0.24121 0.0
C1014 C 0.45571 0.48008 0.22193 0.0
C1015 C 0.44389 0.47912 0.23601 0.0
C1016 C 0.45538 0.43574 0.21729 0.0
C1017 C 0.44366 0.43481 0.23143 0.0
C1018 C 0.51418 0.41274 0.1867 0.0
O1019 O 0.48075 0.47943 0.19759 0.0
H1020 H 0.59127 0.3832 0.17045 0.0
H1021 H 0.56898 0.35878 0.23538 0.0
H1022 H 0.5585 0.42544 0.19737 0.0
H1023 H 0.42872 0.45555 0.2508 0.0
H1024 H 0.45997 0.49773 0.21744 0.0
H1025 H 0.45926 0.41903 0.20903 0.0
Eu1026 Eu 0.76569 0.79049 0.20182 0.0
C1027 C 0.75315 0.77876 0.25857 0.0
O1028 O 0.76431 0.75426 0.18222 0.0
C1029 C 0.7031 0.83689 0.21381 0.0
C1030 C 0.67966 0.85221 0.19004 0.0
C1031 C 0.69707 0.85946 0.22068 0.0
C1032 C 0.6853 0.86724 0.20863 0.0
C1033 C 0.69693 0.82205 0.1954 0.0
C1034 C 0.68519 0.82963 0.18378 0.0
Eu1035 Eu 0.73994 0.82852 0.23582 0.0
O1036 O 0.75395 0.81396 0.17512 0.0
O1037 O 0.74506 0.86287 0.25641 0.0
O1038 O 0.74761 0.80019 0.26283 0.0
O1039 O 0.75077 0.84538 0.20322 0.0
C1040 C 0.75752 0.86941 0.25727 0.0
O1041 O 0.76658 0.85401 0.2492 0.0
O1042 O 0.7232 0.81309 0.21528 0.0
C1043 C 0.71456 0.82656 0.22796 0.0
C1044 C 0.75296 0.74711 0.17267 0.0
O1045 O 0.74275 0.762 0.17354 0.0
O1046 O 0.71996 0.83983 0.24606 0.0
O1047 O 0.75843 0.77176 0.2369 0.0
C1048 C 0.79037 0.80332 0.20516 0.0
O1049 O 0.78084 0.8142 0.2181 0.0
C1050 C 0.80312 0.79904 0.21824 0.0
C1051 C 0.82783 0.79369 0.24159 0.0
C1052 C 0.80824 0.77533 0.22313 0.0
C1053 C 0.82069 0.77277 0.23499 0.0
C1054 C 0.81079 0.8197 0.22422 0.0
C1055 C 0.82313 0.81701 0.23587 0.0
C1056 C 0.75097 0.83684 0.18004 0.0
O1057 O 0.78611 0.78641 0.18939 0.0
H1058 H 0.67024 0.85721 0.18158 0.0
H1059 H 0.70126 0.87059 0.23568 0.0
H1060 H 0.70087 0.80407 0.19101 0.0
H1061 H 0.83766 0.79171 0.24969 0.0
H1062 H 0.80274 0.75919 0.21759 0.0
H1063 H 0.80732 0.83786 0.21928 0.0
Eu1064 Eu 0.49436 0.16407 0.98818 0.0
C1065 C 0.50562 0.15715 0.93204 0.0
O1066 O 0.50251 0.14965 0.02517 0.0
C1067 C 0.55651 0.20477 0.95897 0.0
C1068 C 0.57955 0.20538 0.98857 0.0
C1069 C 0.56225 0.22733 0.96651 0.0
C1070 C 0.57384 0.22764 0.98141 0.0
C1071 C 0.56288 0.18278 0.96555 0.0
C1072 C 0.57436 0.18308 0.98033 0.0
Eu1073 Eu 0.51903 0.2078 0.94938 0.0
O1074 O 0.49568 0.2031 0.00269 0.0
O1075 O 0.51225 0.24141 0.92762 0.0
O1076 O 0.50734 0.18036 0.92619 0.0
O1077 O 0.51708 0.21255 0.99158 0.0
C1078 C 0.50491 0.25899 0.93742 0.0
O1079 O 0.50036 0.25657 0.96062 0.0
O1080 O 0.53656 0.18475 0.94635 0.0
C1081 C 0.54443 0.20366 0.94296 0.0
C1082 C 0.5045 0.12691 0.03279 0.0
O1083 O 0.50877 0.12362 0.05606 0.0
O1084 O 0.53795 0.22419 0.93933 0.0
O1085 O 0.50641 0.14918 0.95549 0.0
C1086 C 0.46914 0.15568 0.98366 0.0
O1087 O 0.47488 0.17643 0.97753 0.0
C1088 C 0.45758 0.14796 0.96832 0.0
C1089 C 0.43347 0.13686 0.9446 0.0
C1090 C 0.4508 0.1261 0.97427 0.0
C1091 C 0.43872 0.12055 0.96233 0.0
C1092 C 0.45174 0.16462 0.95118 0.0
C1093 C 0.43962 0.15917 0.9397 0.0
C1094 C 0.50618 0.21723 0.00418 0.0
O1095 O 0.47742 0.13921 0.99267 0.0
H1096 H 0.58888 0.20544 -0.00125 0.0
H1097 H 0.55789 0.24452 0.9606 0.0
H1098 H 0.55913 0.16541 0.95865 0.0
H1099 H 0.42378 0.13334 0.93646 0.0
H1100 H 0.45456 0.11404 0.98889 0.0
H1101 H 0.45609 0.18245 0.94794 0.0
Eu1102 Eu 0.27533 0.58621 0.9841 0.0
C1103 C 0.26302 0.59385 0.92891 0.0
O1104 O 0.26729 0.59849 0.02207 0.0
C1105 C 0.21148 0.5476 0.95997 0.0
C1106 C 0.18872 0.54613 0.99032 0.0
C1107 C 0.20628 0.52482 0.96816 0.0
C1108 C 0.19482 0.52413 0.98344 0.0
C1109 C 0.2047 0.56923 0.96611 0.0
C1110 C 0.19335 0.56848 0.98117 0.0
Eu1111 Eu 0.24877 0.54502 0.94885 0.0
O1112 O 0.27411 0.54625 0.99494 0.0
O1113 O 0.25413 0.50941 0.92939 0.0
O1114 O 0.26037 0.57077 0.92357 0.0
O1115 O 0.25174 0.54128 0.99093 0.0
C1116 C 0.26502 0.49666 0.93291 0.0
O1117 O 0.2742 0.50501 0.94825 0.0
O1118 O 0.23126 0.56819 0.94776 0.0
C1119 C 0.22337 0.54943 0.94365 0.0
C1120 C 0.26506 0.62084 0.03069 0.0
O1121 O 0.26101 0.62317 0.05425 0.0
O1122 O 0.22979 0.52908 0.93875 0.0
O1123 O 0.2631 0.60203 0.95238 0.0
C1124 C 0.30051 0.59504 0.97994 0.0
O1125 O 0.29489 0.57428 0.97346 0.0
C1126 C 0.31216 0.60292 0.96497 0.0
C1127 C 0.33648 0.61425 0.94215 0.0
C1128 C 0.31884 0.62479 0.97132 0.0
C1129 C 0.33102 0.63046 0.95983 0.0
C1130 C 0.31818 0.5864 0.94781 0.0
C1131 C 0.3304 0.59196 0.93677 0.0
C1132 C 0.26308 0.53504 0.00089 0.0
O1133 O 0.29212 0.61133 0.98901 0.0
H1134 H 0.17946 0.5457 0.00081 0.0
H1135 H 0.21091 0.5078 0.96241 0.0
H1136 H 0.20798 0.58664 0.95852 0.0
H1137 H 0.34624 0.6179 0.93434 0.0
H1138 H 0.31491 0.63677 0.98592 0.0
H1139 H 0.31387 0.56859 0.94421 0.0
Eu1140 Eu 0.49258 0.58901 0.75377 0.0
C1141 C 0.50527 0.58771 0.80915 0.0
O1142 O 0.49985 0.60235 0.71577 0.0
C1143 C 0.55766 0.53864 0.7798 0.0
C1144 C 0.5811 0.53982 0.75128 0.0
C1145 C 0.56408 0.5166 0.7727 0.0
C1146 C 0.57583 0.51721 0.75833 0.0
C1147 C 0.56358 0.56116 0.77349 0.0
C1148 C 0.57531 0.56174 0.7593 0.0
Eu1149 Eu 0.51987 0.53965 0.78984 0.0
O1150 O 0.49363 0.55033 0.73939 0.0
O1151 O 0.51123 0.50268 0.80032 0.0
O1152 O 0.50928 0.56579 0.81644 0.0
O1153 O 0.51539 0.54832 0.74917 0.0
C1154 C 0.50568 0.49849 0.82252 0.0
O1155 O 0.5039 0.5169 0.83823 0.0
O1156 O 0.53848 0.55849 0.79711 0.0
C1157 C 0.54546 0.53822 0.79557 0.0
C1158 C 0.50231 0.62489 0.70832 0.0
O1159 O 0.50612 0.62827 0.68477 0.0
O1160 O 0.53804 0.51859 0.79402 0.0
O1161 O 0.50732 0.5946 0.78556 0.0
C1162 C 0.46794 0.59993 0.76142 0.0
O1163 O 0.47265 0.5775 0.76182 0.0
C1164 C 0.45605 0.60521 0.77686 0.0
C1165 C 0.43121 0.61189 0.79949 0.0
C1166 C 0.44825 0.62581 0.77074 0.0
C1167 C 0.43582 0.62924 0.78217 0.0
C1168 C 0.45111 0.58777 0.79423 0.0
C1169 C 0.43858 0.59102 0.80514 0.0
C1170 C 0.5049 0.53846 0.73883 0.0
O1171 O 0.47696 0.6169 0.75734 0.0
H1172 H 0.59054 0.54037 0.74143 0.0
H1173 H 0.56013 0.4991 0.77865 0.0
H1174 H 0.55936 0.57823 0.78019 0.0
H1175 H 0.42135 0.61381 0.80753 0.0
H1176 H 0.45162 0.63863 0.75645 0.0
H1177 H 0.45659 0.57117 0.7982 0.0
Eu1178 Eu 0.27483 0.16871 0.76756 0.0
C1179 C 0.25856 0.16353 0.81641 0.0
O1180 O 0.27079 0.14506 0.73386 0.0
C1181 C 0.20932 0.20936 0.78271 0.0
C1182 C 0.18613 0.20986 0.75356 0.0
C1183 C 0.20337 0.23185 0.77577 0.0
C1184 C 0.19172 0.23202 0.76118 0.0
C1185 C 0.20299 0.1873 0.77608 0.0
C1186 C 0.19139 0.18757 0.76162 0.0
Eu1187 Eu 0.2469 0.21173 0.7962 0.0
O1188 O 0.27473 0.20572 0.74955 0.0
O1189 O 0.25322 0.24987 0.80743 0.0
O1190 O 0.25648 0.18604 0.82425 0.0
O1191 O 0.25239 0.20776 0.75491 0.0
C1192 C 0.26314 0.25476 0.82275 0.0
O1193 O 0.27053 0.23676 0.83124 0.0
O1194 O 0.22908 0.18943 0.79622 0.0
C1195 C 0.22124 0.20842 0.79908 0.0
C1196 C 0.25892 0.13576 0.73119 0.0
O1197 O 0.24883 0.14799 0.74049 0.0
O1198 O 0.22772 0.22885 0.80306 0.0
O1199 O 0.25761 0.15885 0.79214 0.0
C1200 C 0.29696 0.15521 0.78834 0.0
O1201 O 0.29016 0.17443 0.79602 0.0
C1202 C 0.31157 0.15697 0.78729 0.0
C1203 C 0.33928 0.15788 0.78858 0.0
C1204 C 0.31901 0.13842 0.77515 0.0
C1205 C 0.33286 0.13898 0.77582 0.0
C1206 C 0.31823 0.17532 0.80107 0.0
C1207 C 0.3321 0.17577 0.80168 0.0
C1208 C 0.26338 0.21678 0.7454 0.0
O1209 O 0.29113 0.14298 0.77004 0.0
H1210 H 0.17675 0.21001 0.74349 0.0
H1211 H 0.20753 0.24905 0.78217 0.0
H1212 H 0.20677 0.16995 0.78294 0.0
H1213 H 0.35001 0.15753 0.78998 0.0
H1214 H 0.31409 0.12325 0.76582 0.0
H1215 H 0.31272 0.18878 0.8119 0.0
C1216 C 0.83664 0.40333 0.02247 0.0
C1217 C 0.83209 0.41616 0.00119 0.0
C1218 C 0.84828 0.3897 0.02099 0.0
C1219 C 0.87902 0.39288 0.98441 0.0
H1220 H 0.88935 0.33913 0.02799 0.0
C1221 C 0.92953 0.34229 0.985 0.0
C1222 C 0.9345 0.33638 0.00906 0.0
C1223 C 0.91746 0.35451 0.98282 0.0
C1224 C 0.88657 0.35431 0.01591 0.0
H1225 H 0.83493 0.42245 0.96104 0.0
H1226 H 0.85496 0.39756 0.95803 0.0
H1227 H 0.866 0.34983 0.02415 0.0
H1228 H 0.93156 0.34008 0.04958 0.0
H1229 H 0.91041 0.3615 0.04576 0.0
H1230 H 0.89967 0.39693 0.97592 0.0
C1231 C 0.84987 0.39876 0.97609 0.0
C1232 C 0.87323 0.36035 0.01361 0.0
C1233 C 0.83832 0.41265 0.97767 0.0
C1234 C 0.92798 0.34489 0.03086 0.0
C1235 C 0.91583 0.35676 0.02869 0.0
C1236 C 0.89235 0.38659 0.98645 0.0
C1237 C 0.85542 0.38851 -0.00191 0.0
C1238 C 0.86931 0.37992 -0.0019 0.0
C1239 C 0.91022 0.36053 0.00468 0.0
C1240 C 0.89622 0.36755 0.00254 0.0
H1241 H 0.83207 0.40605 0.04088 0.0
H1242 H 0.85227 0.38211 0.03833 0.0
H1243 H 0.8764 0.40844 0.97275 0.0
H1244 H 0.93436 0.33549 0.96803 0.0
H1245 H 0.91327 0.35726 0.96413 0.0
C1246 C 0.33716 0.9089 0.98314 0.0
C1247 C 0.3315 0.91483 0.00669 0.0
C1248 C 0.34877 0.89514 0.98206 0.0
C1249 C 0.37328 0.8608 0.02065 0.0
H1250 H 0.39861 0.89706 0.97995 0.0
C1251 C 0.42825 0.84527 0.03406 0.0
C1252 C 0.43458 0.83792 0.01161 0.0
C1253 C 0.41606 0.85719 0.03295 0.0
C1254 C 0.39163 0.88676 0.99132 0.0
H1255 H 0.33241 0.90862 0.0472 0.0
H1256 H 0.35263 0.88453 0.04542 0.0
H1257 H 0.37513 0.90701 0.97729 0.0
H1258 H 0.43418 0.8397 0.97061 0.0
H1259 H 0.413 0.86113 0.9686 0.0
H1260 H 0.38986 0.84087 0.03498 0.0
C1261 C 0.3482 0.89042 0.02776 0.0
C1262 C 0.37817 0.8922 0.98959 0.0
C1263 C 0.33655 0.90409 0.0288 0.0
C1264 C 0.42947 0.84544 0.98812 0.0
C1265 C 0.41732 0.8575 0.98701 0.0
C1266 C 0.38673 0.85547 0.02246 0.0
C1267 C 0.35486 0.88722 0.00454 0.0
C1268 C 0.36887 0.87936 0.00435 0.0
C1269 C 0.41017 0.86205 0.00938 0.0
C1270 C 0.39603 0.86858 0.00801 0.0
H1271 H 0.33338 0.917 0.96585 0.0
H1272 H 0.35353 0.89237 0.96385 0.0
H1273 H 0.36633 0.85051 0.03209 0.0
H1274 H 0.43194 0.83938 0.05235 0.0
H1275 H 0.41081 0.86097 0.05046 0.0
C1276 C 0.83781 0.8482 0.21694 0.0
C1277 C 0.83239 0.83756 0.23877 0.0
C1278 C 0.84996 0.86025 0.21822 0.0
C1279 C 0.88002 0.85616 0.25688 0.0
H1280 H 0.89241 0.90755 0.21225 0.0
C1281 C 0.93087 0.90512 0.26012 0.0
C1282 C 0.93627 0.91175 0.23657 0.0
C1283 C 0.91894 0.8923 0.26117 0.0
C1284 C 0.88908 0.89294 0.22457 0.0
H1285 H 0.83444 0.83328 0.27937 0.0
H1286 H 0.85539 0.85538 0.28192 0.0
H1287 H 0.86882 0.89836 0.21427 0.0
H1288 H 0.93449 0.90774 0.19583 0.0
H1289 H 0.9137 0.88515 0.19766 0.0
H1290 H 0.90033 0.8512 0.26749 0.0
C1291 C 0.85054 0.85376 0.26368 0.0
C1292 C 0.87558 0.88779 0.22584 0.0
C1293 C 0.83846 0.84152 0.26234 0.0
C1294 C 0.93058 0.90257 0.21422 0.0
C1295 C 0.91859 0.89004 0.21524 0.0
C1296 C 0.89351 0.86152 0.25581 0.0
C1297 C 0.85678 0.86194 0.24143 0.0
C1298 C 0.87091 0.8692 0.24184 0.0
C1299 C 0.9123 0.88622 0.23865 0.0
C1300 C 0.89815 0.87971 0.23939 0.0
H1301 H 0.83338 0.845 0.19852 0.0
H1302 H 0.8545 0.86627 0.20069 0.0
H1303 H 0.87679 0.84135 0.26901 0.0
H1304 H 0.93505 0.9123 0.27754 0.0
H1305 H 0.91427 0.88945 0.27944 0.0
C1306 C 0.33626 0.35263 0.21817 0.0
C1307 C 0.33156 0.33949 0.23914 0.0
C1308 C 0.34823 0.36515 0.2197 0.0
C1309 C 0.37917 0.35775 0.2548 0.0
H1310 H 0.39054 0.41183 0.21266 0.0
C1311 C 0.43056 0.40442 0.2555 0.0
C1312 C 0.43526 0.41289 0.23204 0.0
C1313 C 0.41852 0.39199 0.25684 0.0
C1314 C 0.38749 0.39647 0.22425 0.0
H1315 H 0.33448 0.33193 0.27903 0.0
H1316 H 0.35514 0.35487 0.28214 0.0
H1317 H 0.36701 0.40325 0.21709 0.0
H1318 H 0.43205 0.41285 0.19145 0.0
H1319 H 0.41106 0.39082 0.19375 0.0
H1320 H 0.39975 0.35141 0.26228 0.0
C1321 C 0.34989 0.35469 0.26423 0.0
C1322 C 0.37403 0.39168 0.22694 0.0
C1323 C 0.33797 0.34195 0.26262 0.0
C1324 C 0.42868 0.40617 0.20969 0.0
C1325 C 0.41659 0.39395 0.21105 0.0
C1326 C 0.39265 0.36275 0.25235 0.0
C1327 C 0.35557 0.36496 0.24235 0.0
C1328 C 0.36971 0.3721 0.24201 0.0
C1329 C 0.41107 0.38814 0.23475 0.0
C1330 C 0.39691 0.38192 0.23675 0.0
H1331 H 0.33157 0.35076 0.19979 0.0
H1332 H 0.3523 0.37282 0.20244 0.0
H1333 H 0.37622 0.34215 0.26611 0.0
H1334 H 0.43544 0.40975 0.27294 0.0
H1335 H 0.41446 0.38766 0.27533 0.0
C1336 C 0.17785 0.59716 0.96109 0.0
C1337 C 0.18446 0.58958 0.98309 0.0
C1338 C 0.16575 0.60917 0.96306 0.0
C1339 C 0.14214 0.63958 0.00503 0.0
H1340 H 0.11617 0.59985 0.96964 0.0
C1341 C 0.08778 0.66207 0.01548 0.0
C1342 C 0.08137 0.66475 0.99206 0.0
C1343 C 0.09957 0.6489 0.01698 0.0
C1344 C 0.1233 0.61117 0.97953 0.0
H1345 H 0.18467 0.5908 0.02411 0.0
H1346 H 0.16361 0.61265 0.02761 0.0
H1347 H 0.13967 0.59061 0.96508 0.0
H1348 H 0.0813 0.65386 0.95254 0.0
H1349 H 0.10189 0.63118 0.95495 0.0
H1350 H 0.1259 0.66069 0.01886 0.0
C1351 C 0.16769 0.6091 0.00895 0.0
C1352 C 0.13671 0.606 0.97679 0.0
C1353 C 0.17973 0.5968 0.00698 0.0
C1354 C 0.08601 0.65177 0.97087 0.0
C1355 C 0.09786 0.63886 0.97228 0.0
C1356 C 0.12873 0.64498 0.00752 0.0
C1357 C 0.16028 0.61395 0.98704 0.0
C1358 C 0.14621 0.62032 0.98932 0.0
C1359 C 0.10514 0.63856 0.995 0.0
C1360 C 0.11917 0.63091 0.99467 0.0
H1361 H 0.18128 0.5914 0.94251 0.0
H1362 H 0.16019 0.61304 0.94595 0.0
H1363 H 0.14935 0.65071 0.01495 0.0
H1364 H 0.08432 0.67198 0.03203 0.0
H1365 H 0.1048 0.64838 0.03489 0.0
C1366 C 0.68137 0.09824 0.01006 0.0
C1367 C 0.687 0.09036 0.98708 0.0
C1368 C 0.66912 0.11006 0.01011 0.0
C1369 C 0.63946 0.10591 0.97203 0.0
H1370 H 0.62565 0.15633 0.01653 0.0
C1371 C 0.58841 0.15067 0.96179 0.0
C1372 C 0.58268 0.16118 0.98345 0.0
C1373 C 0.60029 0.1378 0.96377 0.0
C1374 C 0.62931 0.1418 0.00439 0.0
H1375 H 0.68534 0.09163 0.94617 0.0
H1376 H 0.66412 0.11293 0.94619 0.0
H1377 H 0.64937 0.14816 0.01577 0.0
H1378 H 0.58359 0.16373 0.02438 0.0
H1379 H 0.60411 0.14038 0.02804 0.0
H1380 H 0.61943 0.09944 0.9607 0.0
C1381 C 0.66899 0.10947 0.96414 0.0
C1382 C 0.64291 0.1374 0.00375 0.0
C1383 C 0.68127 0.0978 0.96411 0.0
C1384 C 0.58791 0.15576 0.00744 0.0
C1385 C 0.59973 0.14275 0.00946 0.0
C1386 C 0.62586 0.11021 0.97276 0.0
C1387 C 0.66243 0.11413 0.98716 0.0
C1388 C 0.64812 0.11965 0.98732 0.0
C1389 C 0.60649 0.13517 0.98749 0.0
C1390 C 0.62065 0.12835 0.98879 0.0
H1391 H 0.68556 0.09237 0.02796 0.0
H1392 H 0.6643 0.11357 0.02812 0.0
H1393 H 0.6432 0.09159 0.9597 0.0
H1394 H 0.5846 0.15484 0.94308 0.0
H1395 H 0.60523 0.13216 0.94647 0.0
C1396 C 0.17657 0.15723 0.78125 0.0
C1397 C 0.18287 0.1659 0.75931 0.0
C1398 C 0.16457 0.14478 0.77934 0.0
C1399 C 0.14077 0.11509 0.73682 0.0
H1400 H 0.11469 0.15176 0.77549 0.0
C1401 C 0.0862 0.09248 0.72566 0.0
C1402 C 0.07943 0.08938 0.74868 0.0
C1403 C 0.09816 0.1052 0.72504 0.0
C1404 C 0.12182 0.14119 0.76473 0.0
H1405 H 0.18259 0.16608 0.71827 0.0
H1406 H 0.16179 0.14349 0.71484 0.0
H1407 H 0.1381 0.16149 0.77986 0.0
H1408 H 0.07907 0.09887 0.78853 0.0
H1409 H 0.09996 0.12076 0.7877 0.0
H1410 H 0.12464 0.09427 0.72219 0.0
C1411 C 0.166 0.14655 0.73346 0.0
C1412 C 0.13523 0.14668 0.76734 0.0
C1413 C 0.17793 0.15927 0.73539 0.0
C1414 C 0.08401 0.10142 0.77047 0.0
C1415 C 0.09607 0.11382 0.76997 0.0
C1416 C 0.12737 0.10934 0.73447 0.0
C1417 C 0.15886 0.1406 0.75545 0.0
C1418 C 0.1448 0.13359 0.75351 0.0
C1419 C 0.10364 0.11463 0.74754 0.0
C1420 C 0.11773 0.1223 0.74843 0.0
H1421 H 0.18012 0.16245 0.79988 0.0
H1422 H 0.15928 0.14005 0.79653 0.0
H1423 H 0.14799 0.10485 0.7259 0.0
H1424 H 0.08286 0.08313 0.70869 0.0
H1425 H 0.10355 0.10615 0.70729 0.0
C1426 C 0.68054 0.65764 0.73653 0.0
C1427 C 0.68602 0.66389 0.76011 0.0
C1428 C 0.66824 0.64612 0.73534 0.0
C1429 C 0.63775 0.6462 0.77153 0.0
H1430 H 0.62671 0.59453 0.72585 0.0
C1431 C 0.58824 0.59528 0.77868 0.0
C1432 C 0.58322 0.58422 0.75669 0.0
C1433 C 0.59974 0.60935 0.77742 0.0
C1434 C 0.62957 0.6094 0.7383 0.0
H1435 H 0.68363 0.66157 0.80083 0.0
H1436 H 0.66215 0.64106 0.79881 0.0
H1437 H 0.64999 0.60596 0.72785 0.0
H1438 H 0.58501 0.58169 0.71586 0.0
H1439 H 0.60481 0.60714 0.71343 0.0
H1440 H 0.61735 0.64978 0.78193 0.0
C1441 C 0.66731 0.64518 0.78129 0.0
C1442 C 0.64292 0.61569 0.73963 0.0
C1443 C 0.67967 0.65647 0.78247 0.0
C1444 C 0.58877 0.59007 0.73305 0.0
C1445 C 0.60019 0.60429 0.73175 0.0
C1446 C 0.62437 0.64005 0.77007 0.0
C1447 C 0.66123 0.641 0.75773 0.0
C1448 C 0.64715 0.63391 0.7565 0.0
C1449 C 0.60627 0.61269 0.75409 0.0
C1450 C 0.62015 0.62141 0.75362 0.0
H1451 H 0.6852 0.66366 0.7191 0.0
H1452 H 0.66375 0.6431 0.71694 0.0
H1453 H 0.64072 0.66077 0.78426 0.0
H1454 H 0.5842 0.59079 0.79714 0.0
H1455 H 0.60414 0.61555 0.795 0.0
C1456 C 0.9296 0.84291 0.48349 0.0
C1457 C 0.93482 0.83671 0.50729 0.0
C1458 C 0.91786 0.85625 0.48192 0.0
C1459 C 0.89196 0.88838 0.51948 0.0
H1460 H 0.8682 0.85113 0.47632 0.0
C1461 C 0.83657 0.90037 0.52949 0.0
C1462 C 0.83064 0.90804 0.50679 0.0
C1463 C 0.8489 0.88893 0.52895 0.0
C1464 C 0.87473 0.86171 0.48837 0.0
H1465 H 0.93303 0.84208 0.54783 0.0
H1466 H 0.91255 0.86541 0.54519 0.0
H1467 H 0.8919 0.84285 0.47506 0.0
H1468 H 0.83182 0.90677 0.46584 0.0
H1469 H 0.8532 0.88598 0.4648 0.0
H1470 H 0.8747 0.90693 0.53307 0.0
C1471 C 0.91743 0.86008 0.52772 0.0
C1472 C 0.88831 0.85724 0.48745 0.0
C1473 C 0.92921 0.84684 0.52927 0.0
C1474 C 0.83618 0.90074 0.48354 0.0
C1475 C 0.84848 0.88914 0.48298 0.0
C1476 C 0.87837 0.89277 0.52047 0.0
C1477 C 0.9112 0.86342 0.50413 0.0
C1478 C 0.89706 0.87041 0.50312 0.0
C1479 C 0.85532 0.88474 0.50571 0.0
C1480 C 0.86963 0.87926 0.50514 0.0
H1481 H 0.93381 0.83525 0.46631 0.0
H1482 H 0.91345 0.85916 0.46345 0.0
H1483 H 0.89846 0.89892 0.53162 0.0
H1484 H 0.83256 0.90607 0.54765 0.0
H1485 H 0.85389 0.8852 0.54672 0.0
C1486 C 0.33753 0.40188 0.52377 0.0
C1487 C 0.33283 0.41432 0.50236 0.0
C1488 C 0.34929 0.38861 0.52238 0.0
C1489 C 0.37996 0.39218 0.4856 0.0
H1490 H 0.39067 0.33842 0.52882 0.0
C1491 C 0.43074 0.34319 0.48354 0.0
C1492 C 0.43597 0.33624 0.50706 0.0
C1493 C 0.41854 0.3551 0.48236 0.0
C1494 C 0.3878 0.35364 0.51689 0.0
H1495 H 0.33558 0.42037 0.46215 0.0
H1496 H 0.35584 0.3961 0.45932 0.0
H1497 H 0.36728 0.34903 0.52561 0.0
H1498 H 0.43327 0.33749 0.54777 0.0
H1499 H 0.41191 0.35858 0.54577 0.0
H1500 H 0.40052 0.39643 0.47664 0.0
C1501 C 0.35076 0.39732 0.47739 0.0
C1502 C 0.37443 0.35961 0.51493 0.0
C1503 C 0.33909 0.41086 0.47887 0.0
C1504 C 0.42949 0.34322 0.52948 0.0
C1505 C 0.41722 0.35486 0.52831 0.0
C1506 C 0.39331 0.386 0.48735 0.0
C1507 C 0.35641 0.38741 0.49946 0.0
C1508 C 0.37036 0.3791 0.49945 0.0
C1509 C 0.41139 0.3598 0.5047 0.0
C1510 C 0.39735 0.36691 0.50325 0.0
H1511 H 0.33292 0.4046 0.54214 0.0
H1512 H 0.35336 0.38127 0.53977 0.0
H1513 H 0.37722 0.40769 0.47398 0.0
H1514 H 0.43548 0.3374 0.46608 0.0
H1515 H 0.4142 0.35867 0.46395 0.0
C1516 C 0.8396 0.33723 0.76376 0.0
C1517 C 0.83306 0.33405 0.74054 0.0
C1518 C 0.85144 0.35023 0.76476 0.0
C1519 C 0.87513 0.38712 0.72656 0.0
H1520 H 0.90122 0.3487 0.76313 0.0
C1521 C 0.92987 0.40423 0.7113 0.0
C1522 C 0.93621 0.41106 0.73386 0.0
C1523 C 0.91784 0.39178 0.71223 0.0
C1524 C 0.89402 0.35955 0.75287 0.0
H1525 H 0.83283 0.3439 0.7008 0.0
H1526 H 0.85355 0.36643 0.70235 0.0
H1527 H 0.87783 0.33826 0.76651 0.0
H1528 H 0.93596 0.40826 0.77477 0.0
H1529 H 0.91512 0.38566 0.77646 0.0
H1530 H 0.89143 0.40804 0.71252 0.0
C1531 C 0.84958 0.35918 0.71988 0.0
C1532 C 0.88062 0.35385 0.75504 0.0
C1533 C 0.83765 0.3464 0.71897 0.0
C1534 C 0.93127 0.40276 0.75718 0.0
C1535 C 0.91932 0.39005 0.75811 0.0
C1536 C 0.88854 0.39265 0.7242 0.0
C1537 C 0.85697 0.35994 0.74247 0.0
C1538 C 0.87103 0.36756 0.74188 0.0
C1539 C 0.91215 0.38585 0.73574 0.0
C1540 C 0.89809 0.37882 0.73722 0.0
H1541 H 0.83619 0.32777 0.78059 0.0
H1542 H 0.85674 0.35113 0.78259 0.0
H1543 H 0.86799 0.39816 0.71639 0.0
H1544 H 0.93343 0.41086 0.69317 0.0
H1545 H 0.91253 0.3884 0.69473 0.0
C1546 C 0.33879 0.84381 0.71661 0.0
C1547 C 0.33367 0.83277 0.73846 0.0
C1548 C 0.35074 0.85654 0.7178 0.0
C1549 C 0.38101 0.85275 0.75543 0.0
H1550 H 0.39271 0.9055 0.71185 0.0
C1551 C 0.43204 0.90047 0.75878 0.0
C1552 C 0.43708 0.909 0.73559 0.0
C1553 C 0.42005 0.88782 0.75943 0.0
C1554 C 0.38958 0.89049 0.72384 0.0
H1555 H 0.33597 0.82819 0.77896 0.0
H1556 H 0.35659 0.85136 0.78135 0.0
H1557 H 0.36919 0.89578 0.71438 0.0
H1558 H 0.43464 0.90831 0.69481 0.0
H1559 H 0.41385 0.88569 0.69587 0.0
H1560 H 0.40143 0.8477 0.76506 0.0
C1561 C 0.35165 0.84969 0.7632 0.0
C1562 C 0.37612 0.88508 0.72543 0.0
C1563 C 0.33979 0.83679 0.76195 0.0
C1564 C 0.43103 0.90163 0.71288 0.0
C1565 C 0.419 0.88917 0.71353 0.0
C1566 C 0.39446 0.85829 0.75397 0.0
C1567 C 0.35765 0.85838 0.7409 0.0
C1568 C 0.3717 0.86601 0.74108 0.0
C1569 C 0.41302 0.88363 0.73688 0.0
C1570 C 0.39887 0.87698 0.73791 0.0
H1571 H 0.33427 0.84054 0.69829 0.0
H1572 H 0.3551 0.86297 0.70026 0.0
H1573 H 0.37797 0.83757 0.76725 0.0
H1574 H 0.43647 0.90629 0.7765 0.0
H1575 H 0.41567 0.88365 0.77769 0.0
C1576 C 0.08798 0.15547 0.50988 0.0
C1577 C 0.0825 0.16041 0.48599 0.0
C1578 C 0.10005 0.14319 0.51161 0.0
C1579 C 0.12986 0.14303 0.47527 0.0
H1580 H 0.14236 0.09254 0.52083 0.0
C1581 C 0.18027 0.09606 0.46678 0.0
C1582 C 0.18568 0.08534 0.48857 0.0
C1583 C 0.16851 0.10931 0.46845 0.0
C1584 C 0.13908 0.10711 0.50844 0.0
H1585 H 0.08432 0.15423 0.44553 0.0
H1586 H 0.1054 0.1327 0.44858 0.0
H1587 H 0.1188 0.1022 0.51933 0.0
H1588 H 0.18427 0.08251 0.52941 0.0
H1589 H 0.16399 0.10666 0.53258 0.0
H1590 H 0.15007 0.1483 0.46455 0.0
C1591 C 0.10044 0.13837 0.46586 0.0
C1592 C 0.12559 0.11232 0.50737 0.0
C1593 C 0.08831 0.15032 0.46417 0.0
C1594 C 0.1802 0.09069 0.5124 0.0
C1595 C 0.16852 0.10415 0.51413 0.0
C1596 C 0.14336 0.13805 0.47654 0.0
C1597 C 0.10673 0.13607 0.48943 0.0
C1598 C 0.12089 0.13001 0.49048 0.0
C1599 C 0.16212 0.11215 0.492 0.0
C1600 C 0.1481 0.11982 0.4929 0.0
H1601 H 0.08367 0.16336 0.52686 0.0
H1602 H 0.10476 0.1415 0.52999 0.0
H1603 H 0.12644 0.15725 0.46256 0.0
H1604 H 0.18428 0.09189 0.44818 0.0
H1605 H 0.16383 0.11519 0.45102 0.0
C1606 C 0.58755 0.65584 0.46043 0.0
C1607 C 0.58088 0.66269 0.48267 0.0
C1608 C 0.59982 0.64426 0.46195 0.0
C1609 C 0.62347 0.61329 0.50366 0.0
H1610 H 0.64967 0.65086 0.46647 0.0
C1611 C 0.67753 0.58866 0.51351 0.0
C1612 C 0.68377 0.5849 0.49006 0.0
C1613 C 0.66596 0.60251 0.51486 0.0
C1614 C 0.64248 0.64015 0.47688 0.0
H1615 H 0.58094 0.66107 0.52367 0.0
H1616 H 0.60222 0.63996 0.52638 0.0
H1617 H 0.62626 0.66107 0.46245 0.0
H1618 H 0.68386 0.59466 0.45025 0.0
H1619 H 0.66362 0.6185 0.45242 0.0
H1620 H 0.63954 0.59187 0.51755 0.0
C1621 C 0.59806 0.64364 0.50785 0.0
C1622 C 0.6291 0.64586 0.47444 0.0
C1623 C 0.58586 0.65548 0.50633 0.0
C1624 C 0.67925 0.59751 0.4686 0.0
C1625 C 0.6676 0.61111 0.46986 0.0
C1626 C 0.63683 0.60739 0.5059 0.0
C1627 C 0.60544 0.63921 0.48573 0.0
C1628 C 0.61949 0.63234 0.48765 0.0
C1629 C 0.66043 0.61246 0.4927 0.0
C1630 C 0.64648 0.62068 0.49244 0.0
H1631 H 0.58397 0.66171 0.44205 0.0
H1632 H 0.60531 0.64071 0.44465 0.0
H1633 H 0.61622 0.60268 0.51405 0.0
H1634 H 0.68093 0.57912 0.53029 0.0
H1635 H 0.66083 0.60386 0.53287 0.0
C1636 C 0.17856 0.6549 0.27951 0.0
C1637 C 0.18474 0.66331 0.25735 0.0
C1638 C 0.16635 0.64316 0.27805 0.0
C1639 C 0.14203 0.61381 0.23686 0.0
H1640 H 0.11647 0.64995 0.27733 0.0
C1641 C 0.08768 0.58841 0.2316 0.0
C1642 C 0.08191 0.58454 0.2555 0.0
C1643 C 0.09928 0.60204 0.22948 0.0
C1644 C 0.12348 0.6396 0.26602 0.0
H1645 H 0.18388 0.66422 0.21636 0.0
H1646 H 0.16268 0.64274 0.21369 0.0
H1647 H 0.13988 0.66053 0.27965 0.0
H1648 H 0.08282 0.5938 0.2954 0.0
H1649 H 0.10308 0.61736 0.29187 0.0
H1650 H 0.12579 0.59229 0.22383 0.0
C1651 C 0.16719 0.64541 0.23212 0.0
C1652 C 0.13686 0.64556 0.26746 0.0
C1653 C 0.17933 0.65747 0.2336 0.0
C1654 C 0.08702 0.59677 0.27673 0.0
C1655 C 0.09869 0.61019 0.27467 0.0
C1656 C 0.12866 0.6076 0.23566 0.0
C1657 C 0.1603 0.63947 0.2544 0.0
C1658 C 0.14624 0.63254 0.2531 0.0
C1659 C 0.10534 0.61176 0.25127 0.0
C1660 C 0.11924 0.62032 0.25039 0.0
H1661 H 0.18248 0.65964 0.298 0.0
H1662 H 0.16122 0.63846 0.29544 0.0
H1663 H 0.14912 0.60363 0.22556 0.0
H1664 H 0.08386 0.57912 0.21498 0.0
H1665 H 0.10398 0.60354 0.21106 0.0
C1666 C 0.5884 0.09214 0.23342 0.0
C1667 C 0.58341 0.08542 0.25727 0.0
C1668 C 0.60029 0.10499 0.23168 0.0
C1669 C 0.63091 0.10392 0.26505 0.0
H1670 H 0.64162 0.15865 0.22323 0.0
C1671 C 0.68188 0.14916 0.27204 0.0
C1672 C 0.68663 0.16233 0.25115 0.0
C1673 C 0.66985 0.13678 0.27044 0.0
C1674 C 0.63885 0.14294 0.23453 0.0
H1675 H 0.58603 0.08862 0.29788 0.0
H1676 H 0.60686 0.11111 0.29485 0.0
H1677 H 0.61824 0.14783 0.22611 0.0
H1678 H 0.68355 0.17076 0.21152 0.0
H1679 H 0.66288 0.14786 0.20816 0.0
H1680 H 0.65142 0.0984 0.27301 0.0
C1681 C 0.6016 0.1065 0.2776 0.0
C1682 C 0.62545 0.13705 0.23642 0.0
C1683 C 0.58962 0.09399 0.27933 0.0
C1684 C 0.68006 0.16053 0.2278 0.0
C1685 C 0.66812 0.14785 0.22607 0.0
C1686 C 0.64431 0.10952 0.26284 0.0
C1687 C 0.60734 0.11086 0.25378 0.0
C1688 C 0.62139 0.11776 0.25202 0.0
C1689 C 0.66249 0.13714 0.24778 0.0
C1690 C 0.64844 0.1293 0.24783 0.0
H1691 H 0.58382 0.08533 0.21623 0.0
H1692 H 0.60457 0.10819 0.21313 0.0
H1693 H 0.62799 0.08851 0.27669 0.0
H1694 H 0.68668 0.15069 0.29035 0.0
H1695 H 0.66582 0.12887 0.2876 0.0
C1696 C 0.18275 0.49769 0.01419 0.0
C1697 C 0.18753 0.50128 0.9894 0.0
C1698 C 0.17191 0.48245 0.01864 0.0
C1699 C 0.14949 0.43592 0.99107 0.0
H1700 H 0.12276 0.47041 0.03018 0.0
C1701 C 0.09671 0.39714 0.00035 0.0
C1702 C 0.09144 0.39728 0.02501 0.0
C1703 C 0.10789 0.41122 0.99453 0.0
C1704 C 0.13012 0.46037 0.01942 0.0
H1705 H 0.18555 0.48987 0.95027 0.0
H1706 H 0.16678 0.46262 0.9581 0.0
H1707 H 0.14457 0.48848 0.02471 0.0
H1708 H 0.09302 0.41359 0.06231 0.0
H1709 H 0.1124 0.43816 0.05232 0.0
H1710 H 0.13511 0.4076 0.98612 0.0
C1711 C 0.17135 0.47178 0.97407 0.0
C1712 C 0.14267 0.47071 0.01635 0.0
C1713 C 0.1822 0.48718 0.9696 0.0
C1714 C 0.09683 0.41334 0.04309 0.0
C1715 C 0.10799 0.42736 0.03732 0.0
C1716 C 0.13695 0.42545 0.99432 0.0
C1717 C 0.16566 0.47032 -0.00159 0.0
C1718 C 0.15252 0.45859 0.00222 0.0
C1719 C 0.114 0.42572 0.01327 0.0
C1720 C 0.12709 0.43753 0.00856 0.0
H1721 H 0.18666 0.50841 0.02979 0.0
H1722 H 0.16794 0.48127 0.03769 0.0
H1723 H 0.15689 0.42611 0.98016 0.0
H1724 H 0.09286 0.38468 0.98616 0.0
H1725 H 0.11207 0.40993 0.97565 0.0
C1726 C 0.1735 0.84421 0.00405 0.0
C1727 C 0.17659 0.84793 0.02976 0.0
C1728 C 0.1622 0.83093 -0.00279 0.0
C1729 C 0.12934 0.81952 0.02307 0.0
H1730 H 0.1253 0.77288 0.9682 0.0
C1731 C 0.08234 0.7617 0.00948 0.0
C1732 C 0.0791 0.75304 0.98518 0.0
C1733 C 0.09355 0.77623 0.01317 0.0
C1734 C 0.12618 0.78629 0.98324 0.0
H1735 H 0.17114 0.8386 0.0683 0.0
H1736 H 0.15149 0.81536 0.05639 0.0
H1737 H 0.14724 0.78894 0.97825 0.0
H1738 H 0.08444 0.75419 0.94546 0.0
H1739 H 0.10372 0.78061 0.95164 0.0
H1740 H 0.10837 0.81731 0.02799 0.0
C1741 C 0.15762 0.82307 0.04155 0.0
C1742 C 0.13879 0.79528 0.98912 0.0
C1743 C 0.16893 0.83614 0.04835 0.0
C1744 C 0.08655 0.76108 0.96431 0.0
C1745 C 0.09778 0.77572 0.96797 0.0
C1746 C 0.11674 0.81078 0.01704 0.0
C1747 C 0.1538 0.82131 0.016 0.0
C1748 C 0.14051 0.8117 0.00935 0.0
C1749 C 0.10177 0.78249 0.9926 0.0
C1750 C 0.11499 0.79379 -0.00273 0.0
H1751 H 0.17914 0.8533 0.98934 0.0
H1752 H 0.15951 0.8298 0.97736 0.0
H1753 H 0.13032 0.83263 0.03839 0.0
H1754 H 0.07695 0.75522 0.02593 0.0
H1755 H 0.0963 0.78082 0.03244 0.0
C1756 C 0.10001 0.84315 0.19896 0.0
C1757 C 0.09227 0.85342 0.21843 0.0
C1758 C 0.11125 0.82943 0.20468 0.0
C1759 C 0.12946 0.7971 0.25519 0.0
H1760 H 0.16022 0.81781 0.21661 0.0
C1761 C 0.18129 0.76026 0.27898 0.0
C1762 C 0.18843 0.75142 0.25802 0.0
C1763 C 0.17022 0.7753 0.27542 0.0
C1764 C 0.15173 0.81171 0.22746 0.0
H1765 H 0.08955 0.85573 0.2591 0.0
H1766 H 0.10921 0.83129 0.26923 0.0
H1767 H 0.13864 0.83566 0.20754 0.0
H1768 H 0.19015 0.75232 0.21716 0.0
H1769 H 0.17111 0.77903 0.21083 0.0
H1770 H 0.14254 0.77285 0.27486 0.0
C1771 C 0.1066 0.83403 0.24952 0.0
C1772 C 0.13935 0.82186 0.2222 0.0
C1773 C 0.09532 0.84789 0.24376 0.0
C1774 C 0.18502 0.7595 0.23363 0.0
C1775 C 0.17401 0.7746 0.23005 0.0
C1776 C 0.14186 0.78685 0.2604 0.0
C1777 C 0.11497 0.82557 0.23002 0.0
C1778 C 0.12806 0.81454 0.23586 0.0
C1779 C 0.16614 0.78178 0.25082 0.0
C1780 C 0.15315 0.79397 0.24652 0.0
H1781 H 0.09777 0.84694 0.17925 0.0
H1782 H 0.11732 0.82263 0.18924 0.0
H1783 H 0.12093 0.791 0.26591 0.0
H1784 H 0.18351 0.75371 0.29789 0.0
H1785 H 0.16449 0.78083 0.29183 0.0
C1786 C 0.17368 0.40061 0.24593 0.0
C1787 C 0.17766 0.39794 0.22054 0.0
C1788 C 0.16228 0.41404 0.25195 0.0
C1789 C 0.137 0.45636 0.22434 0.0
H1790 H 0.1139 0.42675 0.27449 0.0
C1791 C 0.08376 0.48874 0.23352 0.0
C1792 C 0.0801 0.49585 0.25815 0.0
C1793 C 0.0948 0.47383 0.22967 0.0
C1794 C 0.12027 0.43522 0.26048 0.0
H1795 H 0.17352 0.40873 0.18184 0.0
H1796 H 0.15362 0.43152 0.19208 0.0
H1797 H 0.13597 0.4098 0.26731 0.0
H1798 H 0.08435 0.49147 0.2981 0.0
H1799 H 0.10362 0.46509 0.29144 0.0
H1800 H 0.12122 0.48147 0.21719 0.0
C1801 C 0.15924 0.42365 0.20752 0.0
C1802 C 0.13297 0.4257 0.25651 0.0
C1803 C 0.17066 0.4105 0.20158 0.0
C1804 C 0.08683 0.48582 0.27897 0.0
C1805 C 0.09793 0.47091 0.27511 0.0
C1806 C 0.12428 0.46567 0.22811 0.0
C1807 C 0.15463 0.42492 0.23268 0.0
C1808 C 0.14148 0.43609 0.23828 0.0
C1809 C 0.10242 0.46588 0.25038 0.0
C1810 C 0.11574 0.45513 0.24608 0.0
H1811 H 0.17882 0.39095 0.2609 0.0
H1812 H 0.1592 0.41512 0.2716 0.0
H1813 H 0.14332 0.46519 0.21052 0.0
H1814 H 0.07879 0.49651 0.2172 0.0
H1815 H 0.09788 0.46982 0.2104 0.0
C1816 C 0.83421 0.51453 0.98396 0.0
C1817 C 0.83167 0.50457 0.00798 0.0
C1818 C 0.84537 0.52916 0.9799 0.0
C1819 C 0.87898 0.53802 0.00631 0.0
H1820 H 0.88079 0.58973 0.95623 0.0
C1821 C 0.92503 0.60042 0.98753 0.0
C1822 C 0.92757 0.60663 0.96209 0.0
C1823 C 0.91394 0.58622 0.99393 0.0
C1824 C 0.88047 0.57515 0.97011 0.0
H1825 H 0.83842 0.50284 0.04684 0.0
H1826 H 0.85769 0.52915 0.0401 0.0
H1827 H 0.85942 0.57195 0.96711 0.0
H1828 H 0.9212 0.6005 0.9233 0.0
H1829 H 0.90186 0.57616 0.93449 0.0
H1830 H 0.9001 0.54159 0.00942 0.0
C1831 C 0.85117 0.52548 0.02426 0.0
C1832 C 0.8682 0.56497 0.97639 0.0
C1833 C 0.83997 0.51088 0.0283 0.0
C1834 C 0.91943 0.59645 0.94312 0.0
C1835 C 0.90829 0.58261 0.94952 0.0
C1836 C 0.89127 0.5484 0.00018 0.0
C1837 C 0.8543 0.53401 -0.00023 0.0
C1838 C 0.86727 0.54612 0.99444 0.0
C1839 C 0.90512 0.57815 0.97504 0.0
C1840 C 0.89216 0.56692 0.98182 0.0
H1841 H 0.82817 0.50931 0.96786 0.0
H1842 H 0.84746 0.53514 0.96074 0.0
H1843 H 0.87874 0.5232 0.01991 0.0
H1844 H 0.93101 0.60804 0.00264 0.0
H1845 H 0.91179 0.58296 0.01378 0.0
C1846 C 0.93475 0.2402 0.98517 0.0
C1847 C 0.93781 0.24831 0.00976 0.0
C1848 C 0.92371 0.22537 0.98093 0.0
C1849 C 0.89735 0.18858 0.01217 0.0
H1850 H 0.87633 0.21122 0.95534 0.0
C1851 C 0.84588 0.14747 0.99324 0.0
C1852 C 0.8435 0.14118 0.96783 0.0
C1853 C 0.85636 0.16316 -0.00055 0.0
C1854 C 0.88208 0.20449 0.97118 0.0
H1855 H 0.9322 0.24629 0.04929 0.0
H1856 H 0.91297 0.22018 0.04205 0.0
H1857 H 0.89782 0.22952 0.96347 0.0
H1858 H 0.84925 0.14819 0.92892 0.0
H1859 H 0.86759 0.17483 0.93957 0.0
H1860 H 0.88172 0.16325 0.01965 0.0
C1861 C 0.91917 0.22494 0.02603 0.0
C1862 C 0.89447 0.21493 0.97578 0.0
C1863 C 0.93028 0.23967 0.03026 0.0
C1864 C 0.85097 0.15256 0.9487 0.0
C1865 C 0.86147 0.16798 0.95487 0.0
C1866 C 0.88498 0.178 0.00748 0.0
C1867 C 0.91541 0.21858 0.00118 0.0
C1868 C 0.90233 0.20696 0.99619 0.0
C1869 C 0.86466 0.17273 0.98036 0.0
C1870 C 0.87722 0.18566 0.98678 0.0
H1871 H 0.94025 0.24706 0.96901 0.0
H1872 H 0.92126 0.22034 0.96161 0.0
H1873 H 0.90315 0.18197 0.02802 0.0
H1874 H 0.84026 0.13898 0.00835 0.0
H1875 H 0.8583 0.16696 0.01927 0.0
C1876 C 0.83864 0.23776 0.714 0.0
C1877 C 0.83104 0.24554 0.73487 0.0
C1878 C 0.85001 0.22334 0.71756 0.0
C1879 C 0.87548 0.21306 0.76649 0.0
H1880 H 0.88771 0.16103 0.72234 0.0
C1881 C 0.92178 0.15503 0.79054 0.0
C1882 C 0.92841 0.14187 0.77133 0.0
C1883 C 0.91064 0.16932 0.78507 0.0
C1884 C 0.88466 0.17589 0.73462 0.0
H1885 H 0.82902 0.24324 0.77564 0.0
H1886 H 0.84853 0.21746 0.78185 0.0
H1887 H 0.86617 0.1797 0.71496 0.0
H1888 H 0.92927 0.13577 0.73081 0.0
H1889 H 0.91046 0.16218 0.72086 0.0
H1890 H 0.894 0.21 0.78576 0.0
C1891 C 0.84584 0.22269 0.76272 0.0
C1892 C 0.87217 0.18645 0.73046 0.0
C1893 C 0.83448 0.23701 0.75914 0.0
C1894 C 0.92445 0.14561 0.74609 0.0
C1895 C 0.9134 0.16035 0.7405 0.0
C1896 C 0.88804 0.2028 0.77042 0.0
C1897 C 0.85409 0.21655 0.74212 0.0
C1898 C 0.86734 0.205 0.7465 0.0
C1899 C 0.90591 0.1715 0.76003 0.0
C1900 C 0.89284 0.18383 0.75471 0.0
H1901 H 0.83651 0.24474 0.69521 0.0
H1902 H 0.85614 0.21907 0.70126 0.0
H1903 H 0.87224 0.22771 0.77891 0.0
H1904 H 0.92461 0.15276 0.81022 0.0
H1905 H 0.90531 0.17733 0.80084 0.0
C1906 C 0.84475 0.59104 0.78134 0.0
C1907 C 0.84153 0.61105 0.76581 0.0
C1908 C 0.85603 0.57682 0.77646 0.0
C1909 C 0.88885 0.5813 0.74391 0.0
H1910 H 0.89145 0.51298 0.76278 0.0
C1911 C 0.93372 0.51569 0.72183 0.0
C1912 C 0.93739 0.49975 0.74152 0.0
C1913 C 0.92278 0.53146 0.7247 0.0
C1914 C 0.89091 0.53212 0.75759 0.0
H1915 H 0.84744 0.63143 0.73258 0.0
H1916 H 0.86685 0.60608 0.72329 0.0
H1917 H 0.87017 0.53382 0.76569 0.0
H1918 H 0.93313 0.4894 0.78035 0.0
H1919 H 0.91411 0.51654 0.78521 0.0
H1920 H 0.90964 0.57916 0.73528 0.0
C1921 C 0.86078 0.60148 0.73953 0.0
C1922 C 0.87868 0.54415 0.7593 0.0
C1923 C 0.84946 0.6157 0.74445 0.0
C1924 C 0.93058 0.50148 0.76482 0.0
C1925 C 0.91957 0.51681 0.76752 0.0
C1926 C 0.90106 0.56912 0.74186 0.0
C1927 C 0.86449 0.58229 0.75594 0.0
C1928 C 0.87744 0.56901 0.75268 0.0
C1929 C 0.91521 0.53129 0.74719 0.0
C1930 C 0.90227 0.54445 0.74892 0.0
H1931 H 0.83904 0.58747 0.79835 0.0
H1932 H 0.85852 0.5625 0.78979 0.0
H1933 H 0.88846 0.60054 0.73914 0.0
H1934 H 0.9386 0.51455 0.70355 0.0
H1935 H 0.91968 0.54248 0.70872 0.0
C1936 C 0.18147 0.98424 0.47046 0.0
C1937 C 0.18747 0.99649 0.49086 0.0
C1938 C 0.17036 0.96947 0.47459 0.0
C1939 C 0.14254 0.96878 0.51852 0.0
H1940 H 0.13245 0.90831 0.48531 0.0
C1941 C 0.09579 0.91459 0.5455 0.0
C1942 C 0.08915 0.90149 0.52648 0.0
C1943 C 0.1074 0.92731 0.53991 0.0
C1944 C 0.13505 0.92544 0.49439 0.0
H1945 H 0.1875 0.00111 0.53164 0.0
H1946 H 0.16834 0.97489 0.53896 0.0
H1947 H 0.1547 0.92482 0.47882 0.0
H1948 H 0.08898 0.8924 0.48647 0.0
H1949 H 0.10912 0.91521 0.47647 0.0
H1950 H 0.12294 0.96971 0.53384 0.0
C1951 C 0.17202 0.977 0.51977 0.0
C1952 C 0.14782 0.93474 0.49082 0.0
C1953 C 0.1831 0.99167 0.51565 0.0
C1954 C 0.09381 0.90269 0.5014 0.0
C1955 C 0.10547 0.91536 0.49579 0.0
C1956 C 0.12979 0.95959 0.52195 0.0
C1957 C 0.16511 0.96686 0.49917 0.0
C1958 C 0.15173 0.95638 0.50307 0.0
C1959 C 0.11263 0.92712 0.51515 0.0
C1960 C 0.12591 0.93773 0.51009 0.0
H1961 H 0.18452 0.98804 0.45116 0.0
H1962 H 0.16523 0.96186 0.45836 0.0
H1963 H 0.14514 0.98585 0.52769 0.0
H1964 H 0.09244 0.9137 0.56502 0.0
H1965 H 0.11269 0.93603 0.55532 0.0
C1966 C 0.09324 0.24915 0.46166 0.0
C1967 C 0.08286 0.2479 0.47934 0.0
C1968 C 0.10419 0.26408 0.46617 0.0
C1969 C 0.11706 0.3162 0.50219 0.0
H1970 H 0.15081 0.28295 0.49414 0.0
C1971 C 0.16627 0.36894 0.50212 0.0
C1972 C 0.17674 0.35926 0.51645 0.0
C1973 C 0.15493 0.35508 0.49742 0.0
C1974 C 0.14148 0.29246 0.49661 0.0
H1975 H 0.07553 0.26172 0.51516 0.0
H1976 H 0.09449 0.28903 0.52253 0.0
H1977 H 0.13022 0.26074 0.48647 0.0
H1978 H 0.1837 0.32753 0.53691 0.0
H1979 H 0.16392 0.30281 0.52818 0.0
H1980 H 0.12832 0.34794 0.51232 0.0
C1981 C 0.09414 0.27833 0.50524 0.0
C1982 C 0.12969 0.27982 0.492 0.0
C1983 C 0.08324 0.26297 0.50092 0.0
C1984 C 0.1759 0.33509 0.52521 0.0
C1985 C 0.16454 0.3211 0.5204 0.0
C1986 C 0.12887 0.32893 0.50656 0.0
C1987 C 0.10496 0.27826 0.48836 0.0
C1988 C 0.11737 0.29164 0.4944 0.0
C1989 C 0.15377 0.33121 0.50701 0.0
C1990 C 0.14123 0.3173 0.5035 0.0
H1991 H 0.09334 0.23713 0.44528 0.0
H1992 H 0.11231 0.26384 0.45271 0.0
H1993 H 0.10771 0.32572 0.50432 0.0
H1994 H 0.16661 0.38774 0.49564 0.0
H1995 H 0.14693 0.36328 0.48671 0.0
C1996 C 0.09213 0.35621 0.74147 0.0
C1997 C 0.08817 0.35913 0.7161 0.0
C1998 C 0.10297 0.3412 0.74752 0.0
C1999 C 0.13404 0.32214 0.71785 0.0
H2000 H 0.13817 0.27928 0.77576 0.0
C2001 C 0.17983 0.26031 0.73216 0.0
C2002 C 0.18371 0.2543 0.75694 0.0
C2003 C 0.16874 0.27507 0.72795 0.0
C2004 C 0.13728 0.29157 0.75977 0.0
H2005 H 0.09154 0.34656 0.67761 0.0
H2006 H 0.11036 0.32048 0.68814 0.0
H2007 H 0.11664 0.29793 0.7672 0.0
H2008 H 0.17955 0.26006 0.79676 0.0
H2009 H 0.16042 0.28663 0.78954 0.0
H2010 H 0.15464 0.31623 0.71054 0.0
C2011 C 0.10527 0.33007 0.7033 0.0
C2012 C 0.12489 0.30208 0.75477 0.0
C2013 C 0.0944 0.34479 0.69733 0.0
C2014 C 0.17693 0.26487 0.77747 0.0
C2015 C 0.16579 0.27962 0.77329 0.0
C2016 C 0.14643 0.31186 0.72297 0.0
C2017 C 0.11007 0.32901 0.72827 0.0
C2018 C 0.1231 0.31733 0.73364 0.0
C2019 C 0.16124 0.28408 0.74847 0.0
C2020 C 0.14823 0.29633 0.74393 0.0
H2021 H 0.08765 0.36719 0.75631 0.0
H2022 H 0.1064 0.34066 0.76697 0.0
H2023 H 0.13307 0.33422 0.7017 0.0
H2024 H 0.18475 0.25195 0.71604 0.0
H2025 H 0.16554 0.2779 0.70858 0.0
C2026 C 0.07891 0.9838 0.74358 0.0
C2027 C 0.0791 0.00226 0.76213 0.0
C2028 C 0.0898 0.968 0.74073 0.0
C2029 C 0.1256 0.96983 0.74833 0.0
H2030 H 0.12498 0.89925 0.74116 0.0
C2031 C 0.16981 0.9115 0.71104 0.0
C2032 C 0.17236 0.88957 0.72394 0.0
C2033 C 0.15877 0.92579 0.71743 0.0
C2034 C 0.1253 0.91896 0.74326 0.0
H2035 H 0.09047 0.01816 0.79278 0.0
H2036 H 0.10939 0.99073 0.78782 0.0
H2037 H 0.1043 0.92149 0.7492 0.0
H2038 H 0.16558 0.86534 0.75363 0.0
H2039 H 0.1463 0.89032 0.76494 0.0
H2040 H 0.14654 0.96742 0.742 0.0
C2041 C 0.10087 0.98829 0.77561 0.0
C2042 C 0.11346 0.93166 0.74766 0.0
C2043 C 0.08996 0.00369 0.77872 0.0
C2044 C 0.16399 0.88254 0.7439 0.0
C2045 C 0.15285 0.8966 0.75005 0.0
C2046 C 0.13739 0.95719 0.74354 0.0
C2047 C 0.10111 0.97085 0.75604 0.0
C2048 C 0.11352 0.95719 0.75057 0.0
C2049 C 0.14994 0.91806 0.73646 0.0
C2050 C 0.1374 0.93159 0.74126 0.0
H2051 H 0.07083 0.98279 0.73014 0.0
H2052 H 0.08975 0.95472 0.72545 0.0
H2053 H 0.1259 0.98957 0.75012 0.0
H2054 H 0.17594 0.91687 0.69512 0.0
H2055 H 0.15675 0.94215 0.70653 0.0
C2056 C 0.84577 0.9922 0.52223 0.0
C2057 C 0.83418 0.99495 0.5079 0.0
C2058 C 0.85641 0.00782 0.51853 0.0
C2059 C 0.8677 0.06616 0.49442 0.0
H2060 H 0.90029 0.0303 0.48187 0.0
C2061 C 0.91866 0.11295 0.49367 0.0
C2062 C 0.92695 0.10698 0.47323 0.0
C2063 C 0.90722 0.09936 0.4982 0.0
C2064 C 0.89127 0.04056 0.48519 0.0
H2065 H 0.8241 0.01686 0.47976 0.0
H2066 H 0.84291 0.04502 0.47352 0.0
H2067 H 0.87973 0.00802 0.48886 0.0
H2068 H 0.93015 0.08233 0.4417 0.0
H2069 H 0.91029 0.05791 0.45 0.0
H2070 H 0.87931 0.09875 0.49077 0.0
C2071 C 0.84369 0.03056 0.48746 0.0
C2072 C 0.87954 0.02784 0.48934 0.0
C2073 C 0.83298 0.01464 0.49105 0.0
C2074 C 0.924 0.08674 0.45793 0.0
C2075 C 0.91263 0.07298 0.46259 0.0
C2076 C 0.8795 0.07893 0.49044 0.0
C2077 C 0.85564 0.02659 0.50052 0.0
C2078 C 0.86771 0.04051 0.49434 0.0
C2079 C 0.90396 0.07957 0.48236 0.0
C2080 C 0.89141 0.0662 0.48606 0.0
H2081 H 0.84684 0.97706 0.53533 0.0
H2082 H 0.86545 0.00468 0.5291 0.0
H2083 H 0.85867 0.07625 0.4982 0.0
H2084 H 0.92067 0.12892 0.50526 0.0
H2085 H 0.90079 0.10463 0.51374 0.0
C2086 C 0.84291 0.66173 0.46027 0.0
C2087 C 0.83885 0.64341 0.47714 0.0
C2088 C 0.85434 0.67527 0.46509 0.0
C2089 C 0.88596 0.66929 0.49988 0.0
H2090 H 0.89099 0.73592 0.47679 0.0
C2091 C 0.93115 0.73232 0.5214 0.0
C2092 C 0.93523 0.74765 0.50152 0.0
C2093 C 0.92042 0.71645 0.51802 0.0
C2094 C 0.88976 0.71719 0.48306 0.0
H2095 H 0.84308 0.62546 0.51273 0.0
H2096 H 0.86277 0.64995 0.52195 0.0
H2097 H 0.86911 0.71756 0.47449 0.0
H2098 H 0.93239 0.75651 0.46186 0.0
H2099 H 0.91369 0.72884 0.45596 0.0
H2100 H 0.90668 0.66944 0.50904 0.0
C2101 C 0.85729 0.65361 0.50474 0.0
C2102 C 0.87721 0.70667 0.4818 0.0
C2103 C 0.84585 0.63998 0.49981 0.0
C2104 C 0.92936 0.74498 0.47752 0.0
C2105 C 0.91862 0.72932 0.47421 0.0
C2106 C 0.89851 0.68 0.50146 0.0
C2107 C 0.86196 0.67074 0.48693 0.0
C2108 C 0.87514 0.68251 0.49 0.0
C2109 C 0.91364 0.71586 0.49476 0.0
C2110 C 0.90054 0.70395 0.4928 0.0
H2111 H 0.83786 0.66414 0.44232 0.0
H2112 H 0.85767 0.68804 0.45076 0.0
H2113 H 0.88482 0.65048 0.50589 0.0
H2114 H 0.93542 0.73419 0.54014 0.0
H2115 H 0.91677 0.70621 0.53415 0.0
C2116 C 0.92121 0.65317 0.25048 0.0
C2117 C 0.92578 0.65256 0.27562 0.0
C2118 C 0.90968 0.66612 0.24434 0.0
C2119 C 0.88525 0.71132 0.26989 0.0
H2120 H 0.86073 0.67762 0.22529 0.0
C2121 C 0.8317 0.74305 0.26342 0.0
C2122 C 0.82758 0.74912 0.23876 0.0
C2123 C 0.84284 0.72833 0.2672 0.0
C2124 C 0.8675 0.68724 0.23771 0.0
H2125 H 0.92245 0.66612 0.31366 0.0
H2126 H 0.90245 0.68869 0.30316 0.0
H2127 H 0.88287 0.66072 0.23224 0.0
H2128 H 0.83116 0.74281 0.19882 0.0
H2129 H 0.85041 0.71622 0.20542 0.0
H2130 H 0.86981 0.73752 0.2758 0.0
C2131 C 0.9077 0.67944 0.28801 0.0
C2132 C 0.88024 0.67772 0.24154 0.0
C2133 C 0.9192 0.66655 0.29409 0.0
C2134 C 0.83392 0.73794 0.21801 0.0
C2135 C 0.84505 0.723 0.22181 0.0
C2136 C 0.87251 0.72064 0.2663 0.0
C2137 C 0.90251 0.67869 0.26324 0.0
C2138 C 0.88927 0.6896 0.25779 0.0
C2139 C 0.85004 0.71923 0.24641 0.0
C2140 C 0.86345 0.70864 0.25032 0.0
H2141 H 0.92599 0.6422 0.23597 0.0
H2142 H 0.90612 0.66552 0.22498 0.0
H2143 H 0.89197 0.72125 0.28214 0.0
H2144 H 0.82714 0.7518 0.27971 0.0
H2145 H 0.84633 0.72541 0.28639 0.0
C2146 C 0.84214 0.09178 0.28931 0.0
C2147 C 0.83882 0.11174 0.27374 0.0
C2148 C 0.85312 0.07702 0.28361 0.0
C2149 C 0.88554 0.08127 0.25213 0.0
H2150 H 0.88601 0.01051 0.25672 0.0
C2151 C 0.93313 0.01874 0.24846 0.0
C2152 C 0.93189 0.99865 0.232 0.0
C2153 C 0.92216 0.03399 0.2532 0.0
C2154 C 0.88602 0.0303 0.25542 0.0
H2155 H 0.84422 0.13155 0.23981 0.0
H2156 H 0.86331 0.10566 0.22965 0.0
H2157 H 0.86542 0.03277 0.26499 0.0
H2158 H 0.91859 0.97925 0.20686 0.0
H2159 H 0.89958 0.00556 0.21519 0.0
H2160 H 0.90621 0.07867 0.24264 0.0
C2161 C 0.85741 0.10137 0.24621 0.0
C2162 C 0.87425 0.04303 0.26024 0.0
C2163 C 0.84632 0.11588 0.25171 0.0
C2164 C 0.91981 0.99479 0.21946 0.0
C2165 C 0.90889 0.00964 0.22446 0.0
C2166 C 0.89738 0.06853 0.24767 0.0
C2167 C 0.86118 0.08224 0.26251 0.0
C2168 C 0.8738 0.06864 0.25819 0.0
C2169 C 0.90982 0.02898 0.24189 0.0
C2170 C 0.89767 0.04288 0.24879 0.0
H2171 H 0.83677 0.08864 0.3068 0.0
H2172 H 0.85578 0.06249 0.29661 0.0
H2173 H 0.88558 0.10104 0.25088 0.0
H2174 H 0.94228 0.02179 0.25866 0.0
H2175 H 0.92313 0.04885 0.2667 0.0
C2176 C 0.59438 0.38947 0.49314 0.0
C2177 C 0.5896 0.38758 0.51809 0.0
C2178 C 0.60535 0.4044 0.48763 0.0
C2179 C 0.62834 0.45136 0.51638 0.0
H2180 H 0.65324 0.42479 0.46747 0.0
C2181 C 0.6811 0.48909 0.51027 0.0
C2182 C 0.68529 0.49609 0.4859 0.0
C2183 C 0.67012 0.47385 0.51342 0.0
C2184 C 0.64637 0.43248 0.48113 0.0
H2185 H 0.59184 0.40158 0.55633 0.0
H2186 H 0.61097 0.42666 0.54714 0.0
H2187 H 0.63184 0.405 0.47352 0.0
H2188 H 0.68182 0.49127 0.44573 0.0
H2189 H 0.66275 0.46409 0.45114 0.0
H2190 H 0.64306 0.4784 0.52444 0.0
C2191 C 0.60634 0.41707 0.53152 0.0
C2192 C 0.63399 0.42128 0.48447 0.0
C2193 C 0.59531 0.40253 0.53689 0.0
C2194 C 0.67899 0.48574 0.4647 0.0
C2195 C 0.66798 0.47038 0.46785 0.0
C2196 C 0.64076 0.46229 0.51329 0.0
C2197 C 0.61186 0.4176 0.50698 0.0
C2198 C 0.62477 0.43048 0.50222 0.0
C2199 C 0.66304 0.46522 0.49226 0.0
C2200 C 0.64996 0.45296 0.49571 0.0
H2201 H 0.59027 0.37814 0.47825 0.0
H2202 H 0.60899 0.40483 0.46832 0.0
H2203 H 0.62152 0.45948 0.52983 0.0
H2204 H 0.68569 0.49706 0.52693 0.0
H2205 H 0.66675 0.46982 0.53248 0.0
C2206 C 0.58271 0.76346 0.46891 0.0
C2207 C 0.57674 0.75076 0.48905 0.0
C2208 C 0.59396 0.77798 0.47319 0.0
C2209 C 0.62225 0.77824 0.5165 0.0
H2210 H 0.63161 0.83978 0.48489 0.0
C2211 C 0.66884 0.8331 0.54411 0.0
C2212 C 0.67507 0.84758 0.52566 0.0
C2213 C 0.65739 0.81997 0.53824 0.0
C2214 C 0.62925 0.82235 0.4935 0.0
H2215 H 0.57715 0.74492 0.52964 0.0
H2216 H 0.59651 0.77056 0.53719 0.0
H2217 H 0.60953 0.82266 0.47832 0.0
H2218 H 0.67467 0.85868 0.48628 0.0
H2219 H 0.65483 0.83514 0.4757 0.0
H2220 H 0.64193 0.77761 0.5314 0.0
C2221 C 0.59267 0.76912 0.51807 0.0
C2222 C 0.61655 0.81266 0.48988 0.0
C2223 C 0.58141 0.75483 0.51383 0.0
C2224 C 0.67017 0.84733 0.50074 0.0
C2225 C 0.65866 0.83423 0.49485 0.0
C2226 C 0.63495 0.78779 0.51995 0.0
C2227 C 0.59945 0.77985 0.49764 0.0
C2228 C 0.61285 0.79061 0.50155 0.0
C2229 C 0.65186 0.82109 0.51377 0.0
C2230 C 0.63861 0.81006 0.50865 0.0
H2231 H 0.57954 0.76018 0.44958 0.0
H2232 H 0.59896 0.78604 0.45705 0.0
H2233 H 0.61983 0.7609 0.52528 0.0
H2234 H 0.67235 0.83327 0.56353 0.0
H2235 H 0.65242 0.81023 0.55337 0.0
C2236 C 0.68448 0.76264 0.77709 0.0
C2237 C 0.69108 0.75177 0.75649 0.0
C2238 C 0.67328 0.77733 0.77307 0.0
C2239 C 0.64646 0.78148 0.72644 0.0
H2240 H 0.63518 0.83838 0.76477 0.0
C2241 C 0.60043 0.83767 0.69945 0.0
C2242 C 0.59325 0.8498 0.71851 0.0
C2243 C 0.61186 0.82453 0.70538 0.0
C2244 C 0.63808 0.82222 0.75421 0.0
H2245 H 0.69185 0.74926 0.71556 0.0
H2246 H 0.67268 0.77558 0.70842 0.0
H2247 H 0.65718 0.82113 0.77193 0.0
H2248 H 0.59188 0.85653 0.75891 0.0
H2249 H 0.61169 0.83276 0.76953 0.0
H2250 H 0.62739 0.7822 0.70895 0.0
C2251 C 0.67595 0.77245 0.72772 0.0
C2252 C 0.65074 0.81248 0.75819 0.0
C2253 C 0.68711 0.75783 0.73175 0.0
C2254 C 0.59718 0.84711 0.74389 0.0
C2255 C 0.60865 0.83388 0.74988 0.0
C2256 C 0.6338 0.79107 0.7226 0.0
C2257 C 0.6685 0.7813 0.74835 0.0
C2258 C 0.65514 0.79216 0.74412 0.0
C2259 C 0.61637 0.82309 0.73058 0.0
C2260 C 0.62947 0.81172 0.73622 0.0
H2261 H 0.68711 0.75772 0.79634 0.0
H2262 H 0.66776 0.78381 0.78938 0.0
H2263 H 0.64938 0.76539 0.71577 0.0
H2264 H 0.59763 0.83957 0.67972 0.0
H2265 H 0.61755 0.81671 0.68995 0.0
C2266 C 0.58947 0.48194 0.77347 0.0
C2267 C 0.58403 0.49521 0.7532 0.0
C2268 C 0.60058 0.46696 0.76962 0.0
C2269 C 0.62947 0.4648 0.72742 0.0
H2270 H 0.63707 0.4027 0.75959 0.0
C2271 C 0.67556 0.40697 0.70203 0.0
C2272 C 0.68084 0.39078 0.7201 0.0
C2273 C 0.66437 0.42112 0.70761 0.0
C2274 C 0.63524 0.42029 0.75084 0.0
H2275 H 0.58512 0.50153 0.71272 0.0
H2276 H 0.60429 0.47508 0.70588 0.0
H2277 H 0.61535 0.42158 0.76523 0.0
H2278 H 0.6791 0.37814 0.75881 0.0
H2279 H 0.65995 0.40379 0.76911 0.0
H2280 H 0.64932 0.46393 0.71337 0.0
C2281 C 0.60021 0.47659 0.72483 0.0
C2282 C 0.62271 0.43098 0.75393 0.0
C2283 C 0.58912 0.49144 0.72866 0.0
C2284 C 0.67539 0.39071 0.74463 0.0
C2285 C 0.66421 0.40501 0.7503 0.0
C2286 C 0.64201 0.45426 0.72454 0.0
C2287 C 0.60645 0.46509 0.74545 0.0
C2288 C 0.61964 0.45326 0.74206 0.0
C2289 C 0.6582 0.41962 0.73152 0.0
C2290 C 0.64509 0.43175 0.73606 0.0
H2291 H 0.58587 0.48481 0.79262 0.0
H2292 H 0.60515 0.45834 0.7859 0.0
H2293 H 0.62754 0.48228 0.71848 0.0
H2294 H 0.67942 0.40715 0.68285 0.0
H2295 H 0.66007 0.43192 0.69251 0.0
C2296 C 0.42147 0.59267 0.45011 0.0
C2297 C 0.42789 0.60676 0.46885 0.0
C2298 C 0.41026 0.57872 0.45597 0.0
C2299 C 0.39 0.55167 0.50746 0.0
H2300 H 0.36076 0.56494 0.46191 0.0
C2301 C 0.33787 0.51221 0.52825 0.0
C2302 C 0.33085 0.50295 0.50735 0.0
C2303 C 0.34907 0.52709 0.52466 0.0
C2304 C 0.36879 0.56069 0.47473 0.0
H2305 H 0.42817 0.6152 0.50895 0.0
H2306 H 0.40887 0.58991 0.51947 0.0
H2307 H 0.38237 0.58278 0.45352 0.0
H2308 H 0.32969 0.50304 0.46641 0.0
H2309 H 0.34898 0.52881 0.46001 0.0
H2310 H 0.37658 0.52899 0.52829 0.0
C2311 C 0.41243 0.5901 0.50008 0.0
C2312 C 0.38125 0.57099 0.46989 0.0
C2313 C 0.4236 0.6044 0.49412 0.0
C2314 C 0.33468 0.51043 0.48291 0.0
C2315 C 0.34589 0.52512 0.47929 0.0
C2316 C 0.37756 0.54106 0.51215 0.0
C2317 C 0.40524 0.57807 0.48084 0.0
C2318 C 0.39205 0.56659 0.48612 0.0
C2319 C 0.35361 0.5329 0.50005 0.0
C2320 C 0.36673 0.54536 0.49584 0.0
H2321 H 0.42451 0.59401 0.43044 0.0
H2322 H 0.40517 0.56926 0.44077 0.0
H2323 H 0.3981 0.54777 0.52028 0.0
H2324 H 0.33538 0.50629 0.54726 0.0
H2325 H 0.3545 0.53313 0.54122 0.0
C2326 C 0.34736 0.14747 0.49734 0.0
C2327 C 0.34294 0.14546 0.47218 0.0
C2328 C 0.35851 0.16176 0.50311 0.0
C2329 C 0.38919 0.18035 0.47168 0.0
H2330 H 0.39492 0.22216 0.53003 0.0
C2331 C 0.43557 0.24102 0.48177 0.0
C2332 C 0.43996 0.2479 0.50601 0.0
C2333 C 0.42437 0.22627 0.47885 0.0
C2334 C 0.3936 0.21013 0.5139 0.0
H2335 H 0.34587 0.15842 0.4338 0.0
H2336 H 0.36513 0.18349 0.44384 0.0
H2337 H 0.37315 0.20389 0.52311 0.0
H2338 H 0.43649 0.24367 0.54624 0.0
H2339 H 0.41735 0.21666 0.54132 0.0
H2340 H 0.40957 0.18599 0.46257 0.0
C2341 C 0.3602 0.1738 0.45906 0.0
C2342 C 0.38106 0.19985 0.50985 0.0
C2343 C 0.34907 0.15972 0.45337 0.0
C2344 C 0.43356 0.23806 0.52734 0.0
C2345 C 0.42237 0.22312 0.52446 0.0
C2346 C 0.40174 0.19034 0.47587 0.0
C2347 C 0.36542 0.17408 0.48375 0.0
C2348 C 0.37868 0.1851 0.4885 0.0
C2349 C 0.41727 0.21791 0.50016 0.0
C2350 C 0.40413 0.2056 0.49689 0.0
H2351 H 0.34293 0.1364 0.5121 0.0
H2352 H 0.36229 0.16168 0.52233 0.0
H2353 H 0.38777 0.16861 0.45533 0.0
H2354 H 0.44005 0.24902 0.46504 0.0
H2355 H 0.42075 0.22304 0.45982 0.0
C2356 C 0.41174 0.13654 0.28797 0.0
C2357 C 0.42468 0.1448 0.28261 0.0
C2358 C 0.40069 0.14984 0.28058 0.0
C2359 C 0.3897 0.21008 0.25497 0.0
H2360 H 0.35772 0.17294 0.24129 0.0
C2361 C 0.34309 0.25257 0.21037 0.0
C2362 C 0.33218 0.25232 0.22692 0.0
C2363 C 0.35404 0.23766 0.21495 0.0
C2364 C 0.36659 0.18347 0.24507 0.0
H2365 H 0.43582 0.17377 0.2643 0.0
H2366 H 0.41637 0.19613 0.24954 0.0
H2367 H 0.37798 0.15153 0.25263 0.0
H2368 H 0.32383 0.23569 0.26051 0.0
H2369 H 0.3428 0.20829 0.26775 0.0
H2370 H 0.3782 0.24194 0.24604 0.0
C2371 C 0.41489 0.17976 0.2607 0.0
C2372 C 0.37822 0.17131 0.25184 0.0
C2373 C 0.4261 0.16673 0.26891 0.0
C2374 C 0.33197 0.23562 0.24709 0.0
C2375 C 0.34285 0.22025 0.25138 0.0
C2376 C 0.37813 0.22217 0.24752 0.0
C2377 C 0.40201 0.17134 0.26634 0.0
C2378 C 0.3899 0.18444 0.25738 0.0
C2379 C 0.35416 0.22194 0.23592 0.0
C2380 C 0.36647 0.20895 0.24281 0.0
H2381 H 0.40993 0.1193 0.29739 0.0
H2382 H 0.39106 0.14293 0.28602 0.0
H2383 H 0.39836 0.22093 0.25938 0.0
H2384 H 0.34359 0.26582 0.19512 0.0
H2385 H 0.36265 0.23917 0.20277 0.0
C2386 C 0.34301 0.58883 0.28029 0.0
C2387 C 0.3393 0.60697 0.26289 0.0
C2388 C 0.35442 0.57488 0.27625 0.0
C2389 C 0.38655 0.57962 0.24273 0.0
H2390 H 0.39107 0.51316 0.26672 0.0
C2391 C 0.43207 0.51708 0.22249 0.0
C2392 C 0.43595 0.5012 0.24205 0.0
C2393 C 0.42118 0.53267 0.22581 0.0
C2394 C 0.38999 0.53185 0.26022 0.0
H2395 H 0.34415 0.62414 0.22717 0.0
H2396 H 0.36379 0.59898 0.21934 0.0
H2397 H 0.36926 0.53208 0.26836 0.0
H2398 H 0.43247 0.49104 0.2812 0.0
H2399 H 0.41354 0.51828 0.28702 0.0
H2400 H 0.40732 0.57899 0.23409 0.0
C2401 C 0.35805 0.59576 0.23637 0.0
C2402 C 0.37747 0.54269 0.26109 0.0
C2403 C 0.34664 0.60978 0.2405 0.0
C2404 C 0.42963 0.50301 0.26577 0.0
C2405 C 0.41873 0.5184 0.26901 0.0
C2406 C 0.39906 0.56865 0.24159 0.0
C2407 C 0.36238 0.57884 0.2547 0.0
C2408 C 0.37557 0.56676 0.25245 0.0
C2409 C 0.41401 0.53249 0.24869 0.0
C2410 C 0.40092 0.54471 0.25048 0.0
H2411 H 0.33769 0.58689 0.29805 0.0
H2412 H 0.35746 0.56226 0.29095 0.0
H2413 H 0.38556 0.59838 0.23644 0.0
H2414 H 0.43665 0.51588 0.20393 0.0
H2415 H 0.41777 0.54338 0.20983 0.0
C2416 C 0.66957 0.00798 0.97315 0.0
C2417 C 0.68151 0.00368 0.98603 0.0
C2418 C 0.65883 0.99257 0.97668 0.0
C2419 C 0.64713 0.93352 0.99234 0.0
H2420 H 0.61745 0.96648 0.02455 0.0
C2421 C 0.60287 0.88013 0.0303 0.0
C2422 C 0.59019 0.89083 0.03081 0.0
C2423 C 0.61387 0.89358 0.02311 0.0
C2424 C 0.62551 0.95709 0.01509 0.0
H2425 H 0.69207 0.97915 0.01106 0.0
H2426 H 0.67307 0.95128 0.01673 0.0
H2427 H 0.63761 0.98925 0.01508 0.0
H2428 H 0.579 0.92359 0.02229 0.0
H2429 H 0.59836 0.94715 0.00837 0.0
H2430 H 0.63501 0.90166 0.99113 0.0
C2431 C 0.67212 0.96691 0.00426 0.0
C2432 C 0.63708 0.97006 0.00999 0.0
C2433 C 0.68292 0.98265 0.00096 0.0
C2434 C 0.58867 0.91503 0.02245 0.0
C2435 C 0.59977 0.92851 0.01474 0.0
C2436 C 0.63546 0.92065 -0.00309 0.0
C2437 C 0.65991 0.97238 0.99279 0.0
C2438 C 0.64797 0.95828 -0.00124 0.0
C2439 C 0.61253 0.91796 0.01531 0.0
C2440 C 0.62455 0.9322 0.00862 0.0
H2441 H 0.66836 0.02405 0.96135 0.0
H2442 H 0.64952 0.99685 0.96747 0.0
H2443 H 0.6554 0.9243 0.98333 0.0
H2444 H 0.60437 0.86121 0.03572 0.0
H2445 H 0.62348 0.88484 0.02424 0.0
C2446 C 0.58714 0.25327 0.01126 0.0
C2447 C 0.58144 0.2503 0.9871 0.0
C2448 C 0.59776 0.26926 0.01488 0.0
C2449 C 0.61688 0.32045 0.98847 0.0
H2450 H 0.64692 0.28712 0.01856 0.0
C2451 C 0.66777 0.36767 0.99332 0.0
C2452 C 0.67486 0.36487 0.01596 0.0
C2453 C 0.6569 0.35259 0.98805 0.0
C2454 C 0.63863 0.29688 0.0104 0.0
H2455 H 0.58157 0.26356 0.94843 0.0
H2456 H 0.59986 0.29233 0.95501 0.0
H2457 H 0.6258 0.26599 0.01478 0.0
H2458 H 0.6765 0.34394 0.05056 0.0
H2459 H 0.65759 0.3177 0.04166 0.0
H2460 H 0.62951 0.35161 0.98476 0.0
C2461 C 0.59621 0.28191 0.97102 0.0
C2462 C 0.6265 0.28473 0.00824 0.0
C2463 C 0.58565 0.26563 0.9673 0.0
C2464 C 0.67138 0.34596 0.03263 0.0
C2465 C 0.66046 0.33102 0.02752 0.0
C2466 C 0.62896 0.33277 0.99097 0.0
C2467 C 0.60277 0.28296 0.99453 0.0
C2468 C 0.61549 0.29638 -0.00272 0.0
C2469 C 0.65277 0.33468 0.00556 0.0
C2470 C 0.64004 0.32115 0.00194 0.0
H2471 H 0.58406 0.24179 0.02693 0.0
H2472 H 0.60245 0.27005 0.03334 0.0
H2473 H 0.60854 0.32991 0.98007 0.0
H2474 H 0.6701 0.38252 0.98048 0.0
H2475 H 0.65144 0.35565 0.97068 0.0
C2476 C 0.67753 0.2496 0.28361 0.0
C2477 C 0.68804 0.24931 0.26608 0.0
C2478 C 0.66633 0.2641 0.27937 0.0
C2479 C 0.65278 0.31671 0.24638 0.0
H2480 H 0.62046 0.2789 0.23983 0.0
C2481 C 0.60652 0.36138 0.20485 0.0
C2482 C 0.59365 0.35368 0.21168 0.0
C2483 C 0.6177 0.34836 0.21213 0.0
C2484 C 0.62927 0.28993 0.24205 0.0
H2485 H 0.69532 0.26478 0.23102 0.0
H2486 H 0.67606 0.29151 0.22444 0.0
H2487 H 0.64093 0.25879 0.25296 0.0
H2488 H 0.58294 0.32583 0.23267 0.0
H2489 H 0.60263 0.30433 0.24741 0.0
H2490 H 0.64132 0.34804 0.23691 0.0
C2491 C 0.67649 0.28028 0.24133 0.0
C2492 C 0.64104 0.27832 0.24943 0.0
C2493 C 0.6876 0.26533 0.2453 0.0
C2494 C 0.59254 0.33257 0.22686 0.0
C2495 C 0.60392 0.31994 0.23507 0.0
C2496 C 0.64099 0.32845 0.23972 0.0
C2497 C 0.66552 0.27896 0.25775 0.0
C2498 C 0.65293 0.29156 0.25133 0.0
C2499 C 0.61671 0.3278 0.22792 0.0
C2500 C 0.62907 0.31521 0.23688 0.0
H2501 H 0.67743 0.23683 0.29931 0.0
H2502 H 0.65804 0.26287 0.29237 0.0
H2503 H 0.66178 0.32736 0.24794 0.0
H2504 H 0.60825 0.37803 0.19433 0.0
H2505 H 0.62719 0.35481 0.20537 0.0
C2506 C 0.67124 0.9036 0.19843 0.0
C2507 C 0.67746 0.88899 0.21689 0.0
C2508 C 0.66045 0.91838 0.20478 0.0
C2509 C 0.64142 0.94764 0.25578 0.0
H2510 H 0.61113 0.93159 0.21372 0.0
C2511 C 0.58977 0.98749 0.27774 0.0
C2512 C 0.58294 0.99694 0.25676 0.0
C2513 C 0.60081 0.97232 0.2742 0.0
C2514 C 0.61948 0.93649 0.22553 0.0
H2515 H 0.67813 0.88065 0.25702 0.0
H2516 H 0.65954 0.90749 0.26836 0.0
H2517 H 0.63251 0.91266 0.20504 0.0
H2518 H 0.58177 0.99717 0.21582 0.0
H2519 H 0.60081 0.97041 0.20948 0.0
H2520 H 0.6285 0.97203 0.27585 0.0
C2521 C 0.66289 0.90694 0.24884 0.0
C2522 C 0.63175 0.92564 0.22053 0.0
C2523 C 0.67362 0.89176 0.24239 0.0
C2524 C 0.58672 0.98962 0.23228 0.0
C2525 C 0.59769 0.97441 0.22871 0.0
C2526 C 0.62916 0.95875 0.26063 0.0
C2527 C 0.65579 0.91935 0.22985 0.0
C2528 C 0.64287 0.9312 0.23549 0.0
C2529 C 0.6052 0.96633 0.24959 0.0
C2530 C 0.61803 0.95337 0.2455 0.0
H2531 H 0.67405 0.90207 0.17864 0.0
H2532 H 0.65533 0.92814 0.18983 0.0
H2533 H 0.64984 0.95231 0.26754 0.0
H2534 H 0.58723 0.99338 0.29677 0.0
H2535 H 0.60621 0.96612 0.29071 0.0
C2536 C 0.42444 0.10149 0.99532 0.0
C2537 C 0.42997 0.10054 0.97089 0.0
C2538 C 0.41289 0.0884 0.00086 0.0
C2539 C 0.39007 0.04056 0.97576 0.0
H2540 H 0.36338 0.07734 0.01274 0.0
C2541 C 0.33688 0.00724 0.97755 0.0
C2542 C 0.33177 0.00373 0.00206 0.0
C2543 C 0.34795 0.022 0.97378 0.0
C2544 C 0.37075 0.06688 0.00245 0.0
H2545 H 0.42837 0.08411 0.93367 0.0
H2546 H 0.40837 0.06118 0.94319 0.0
H2547 H 0.38563 0.09425 0.00779 0.0
H2548 H 0.33338 0.01465 0.04143 0.0
H2549 H 0.35268 0.04091 0.03479 0.0
H2550 H 0.37515 0.01343 0.97002 0.0
C2551 C 0.41288 0.07176 0.95825 0.0
C2552 C 0.38354 0.0764 -0.0002 0.0
C2553 C 0.4244 0.08479 0.95276 0.0
C2554 C 0.33704 0.01731 0.02231 0.0
C2555 C 0.34814 0.03218 0.01852 0.0
C2556 C 0.37729 0.03119 0.97819 0.0
C2557 C 0.40669 0.07416 0.98205 0.0
C2558 C 0.39335 0.06337 0.98635 0.0
C2559 C 0.3541 0.03356 0.99445 0.0
C2560 C 0.36748 0.04429 0.99142 0.0
H2561 H 0.42841 0.11388 0.00946 0.0
H2562 H 0.40851 0.09029 0.01953 0.0
H2563 H 0.39739 0.02983 0.96564 0.0
H2564 H 0.33297 0.99692 0.96165 0.0
H2565 H 0.35219 0.02317 0.95493 0.0
C2566 C 0.34517 0.64941 0.99305 0.0
C2567 C 0.33958 0.6506 0.96872 0.0
C2568 C 0.35659 0.6628 -0.00124 0.0
C2569 C 0.37891 0.71188 0.97464 0.0
H2570 H 0.40605 0.67493 0.0099 0.0
C2571 C 0.4318 0.74717 0.9773 0.0
C2572 C 0.43695 0.74986 0.0019 0.0
C2573 C 0.42085 0.73221 0.97296 0.0
C2574 C 0.39855 0.68545 0.0001 0.0
H2575 H 0.34092 0.66772 0.93186 0.0
H2576 H 0.36069 0.69127 0.94171 0.0
H2577 H 0.38393 0.6575 0.00483 0.0
H2578 H 0.43559 0.73712 0.04067 0.0
H2579 H 0.41658 0.71044 0.033 0.0
H2580 H 0.39355 0.73963 0.96958 0.0
C2581 C 0.35632 0.68024 0.95655 0.0
C2582 C 0.38584 0.67562 -0.00262 0.0
C2583 C 0.34494 0.66686 0.95089 0.0
C2584 C 0.43192 0.73514 0.02148 0.0
C2585 C 0.42096 0.72005 0.01711 0.0
C2586 C 0.39161 0.72158 0.97717 0.0
C2587 C 0.3626 0.67761 0.9802 0.0
C2588 C 0.37586 0.6887 0.98456 0.0
C2589 C 0.41489 0.71954 0.99312 0.0
C2590 C 0.40159 0.70845 0.98981 0.0
H2591 H 0.34136 0.63662 0.00694 0.0
H2592 H 0.36104 0.66071 0.01731 0.0
H2593 H 0.37144 0.72262 0.965 0.0
H2594 H 0.43551 0.75835 0.96189 0.0
H2595 H 0.41655 0.73173 0.95415 0.0
C2596 C 0.42252 0.65079 0.749 0.0
C2597 C 0.42655 0.64881 0.77439 0.0
C2598 C 0.41108 0.664 0.7428 0.0
C2599 C 0.3857 0.70664 0.76987 0.0
H2600 H 0.36243 0.67495 0.72141 0.0
C2601 C 0.33207 0.73663 0.76246 0.0
C2602 C 0.32844 0.74409 0.73799 0.0
C2603 C 0.34317 0.72181 0.766 0.0
C2604 C 0.36885 0.68396 0.73496 0.0
H2605 H 0.42249 0.6605 0.81287 0.0
H2606 H 0.40257 0.68304 0.80236 0.0
H2607 H 0.38472 0.65884 0.72819 0.0
H2608 H 0.33278 0.74049 0.69798 0.0
H2609 H 0.35202 0.71392 0.70405 0.0
H2610 H 0.36973 0.73138 0.77704 0.0
C2611 C 0.40816 0.6748 0.78703 0.0
C2612 C 0.38167 0.67495 0.73867 0.0
C2613 C 0.4196 0.66184 0.79313 0.0
C2614 C 0.3352 0.73438 0.71697 0.0
C2615 C 0.34629 0.71943 0.72049 0.0
C2616 C 0.37286 0.71541 0.7664 0.0
C2617 C 0.40347 0.67535 0.76192 0.0
C2618 C 0.39024 0.68609 0.75632 0.0
C2619 C 0.35081 0.71423 0.7451 0.0
C2620 C 0.36426 0.70405 0.74909 0.0
H2621 H 0.42763 0.64072 0.73422 0.0
H2622 H 0.40792 0.6645 0.72318 0.0
H2623 H 0.39206 0.71605 0.78321 0.0
H2624 H 0.32719 0.74441 0.77893 0.0
H2625 H 0.34634 0.71775 0.78517 0.0
C2626 C 0.34249 0.09759 0.78115 0.0
C2627 C 0.34109 0.11871 0.76633 0.0
C2628 C 0.35319 0.08179 0.77715 0.0
C2629 C 0.38709 0.08304 0.75066 0.0
H2630 H 0.38501 0.01265 0.75816 0.0
C2631 C 0.43278 0.01722 0.75101 0.0
C2632 C 0.43091 0.99568 0.73698 0.0
C2633 C 0.42214 0.03336 0.75473 0.0
C2634 C 0.38573 0.03231 0.75595 0.0
H2635 H 0.34919 0.13949 0.73511 0.0
H2636 H 0.36751 0.11126 0.72711 0.0
H2637 H 0.36505 0.03721 0.76283 0.0
H2638 H 0.41705 0.97484 0.71424 0.0
H2639 H 0.39866 0.00285 0.72051 0.0
H2640 H 0.40778 0.07788 0.74307 0.0
C2641 C 0.3606 0.10715 0.74225 0.0
C2642 C 0.37431 0.04639 0.75883 0.0
C2643 C 0.35 0.12303 0.74643 0.0
C2644 C 0.41862 0.9912 0.72549 0.0
C2645 C 0.40809 0.00711 0.72923 0.0
C2646 C 0.39853 0.06891 0.74772 0.0
C2647 C 0.36261 0.08688 0.75819 0.0
C2648 C 0.37481 0.07189 0.75581 0.0
C2649 C 0.4096 0.02797 0.74447 0.0
C2650 C 0.39789 0.04338 0.74987 0.0
H2651 H 0.33592 0.09434 0.79705 0.0
H2652 H 0.35448 0.06646 0.78989 0.0
H2653 H 0.38788 0.10272 0.74886 0.0
H2654 H 0.44221 0.02097 0.75994 0.0
H2655 H 0.42355 0.04946 0.76643 0.0
C2656 C 0.01481 0.11621 0.83793 0.0
C2657 C 1.00236 0.1067 0.83174 0.0
C2658 C 0.0159 0.13501 0.85571 0.0
C2659 C 0.99671 0.18536 0.88335 0.0
H2660 H 0.02487 0.1865 0.93331 0.0
C2661 C 0.99939 0.257 0.96345 0.0
C2662 C 0.01191 0.26683 0.96895 0.0
C2663 C 0.99817 0.23746 0.94659 0.0
C2664 C 0.01705 0.18654 0.91927 0.0
H2665 H 0.9813 0.1088 0.83873 0.0
H2666 H 0.98314 0.14163 0.87034 0.0
H2667 H 0.0227 0.15139 0.90501 0.0
H2668 H 0.03293 0.26432 0.96078 0.0
H2669 H 0.03076 0.23027 0.93111 0.0
H2670 H 0.99108 0.22056 0.89758 0.0
C2671 C 0.99206 0.13468 0.86145 0.0
C2672 C 0.01579 0.16644 0.90313 0.0
C2673 C 0.991 0.11582 0.84366 0.0
C2674 C 0.02316 0.25698 0.95705 0.0
C2675 C 0.02193 0.23745 0.94015 0.0
C2676 C 0.99797 0.20546 0.8995 0.0
C2677 C 1.00451 0.14466 0.86739 0.0
C2678 C 1.00562 0.16565 0.885 0.0
C2679 C 0.00943 0.22742 0.93489 0.0
C2680 C 1.00815 0.20624 0.91759 0.0
H2681 H 0.02365 0.10957 0.82845 0.0
H2682 H 0.02559 0.14257 0.85963 0.0
H2683 H 0.98893 0.18545 0.86924 0.0
H2684 H 0.99053 0.26416 0.97239 0.0
H2685 H 0.98843 0.22991 0.94309 0.0
C2686 C 0.24721 0.98259 0.94875 0.0
C2687 C 0.25447 0.98152 0.97138 0.0
C2688 C 0.24893 0.002 0.93194 0.0
C2689 C 0.27103 0.0548 0.91648 0.0
H2690 H 0.23992 0.07604 0.87952 0.0
C2691 C 0.26509 0.14611 0.85878 0.0
C2692 C 0.2599 0.14291 0.83429 0.0
C2693 C 0.26599 0.12615 0.8754 0.0
C2694 C 0.24871 0.07023 0.88963 0.0
H2695 H 0.26927 0.99982 0.99423 0.0
H2696 H 0.27176 0.03465 0.96554 0.0
H2697 H 0.23814 0.04236 0.9092 0.0
H2698 H 0.25177 0.11639 0.80787 0.0
H2699 H 0.25313 0.08196 0.8369 0.0
H2700 H 0.28138 0.08371 0.8972 0.0
C2701 C 0.26502 0.02011 0.96033 0.0
C2702 C 0.24774 0.05076 0.90655 0.0
C2703 C 0.2635 0.0003 0.97693 0.0
C2704 C 0.25588 0.11943 0.82657 0.0
C2705 C 0.25661 0.09971 0.8432 0.0
C2706 C 0.27194 0.07468 0.89979 0.0
C2707 C 0.25771 0.02125 0.93761 0.0
C2708 C 0.2589 0.04254 0.92005 0.0
C2709 C 0.26149 0.10292 0.86787 0.0
C2710 C 0.26078 0.08238 0.88608 0.0
H2711 H 0.2404 0.9681 0.94366 0.0
H2712 H 0.24343 0.00172 0.91434 0.0
H2713 H 0.27989 0.04883 0.92624 0.0
H2714 H 0.26839 0.16397 0.86505 0.0
H2715 H 0.26977 0.12903 0.8944 0.0
C2716 C 0.00891 0.14476 0.38589 0.0
C2717 C 1.00365 0.14009 0.41009 0.0
C2718 C 0.00994 0.12589 0.36804 0.0
C2719 C 0.99795 0.06476 0.35059 0.0
H2720 H 0.03327 0.0554 0.32324 0.0
C2721 C 0.01005 0.97978 0.29108 0.0
C2722 C 0.01801 0.98335 0.26962 0.0
C2723 C 0.0091 0.99793 0.30965 0.0
C2724 C 0.0233 0.05787 0.33038 0.0
H2725 H 0.99445 0.11258 0.43391 0.0
H2726 H 0.99608 0.07981 0.40258 0.0
H2727 H 0.02869 0.0904 0.35056 0.0
H2728 H 0.03148 0.00799 0.25069 0.0
H2729 H 0.02955 0.04022 0.28255 0.0
H2730 H 0.99238 0.03274 0.32998 0.0
C2731 C 0.99953 0.09792 0.39754 0.0
C2732 C 0.02069 0.07795 0.34604 0.0
C2733 C 0.99867 0.11665 0.41549 0.0
C2734 C 0.02551 0.00475 0.26744 0.0
C2735 C 0.02434 0.02319 0.28572 0.0
C2736 C 1.00049 0.04488 0.33461 0.0
C2737 C 1.00554 0.10218 0.37394 0.0
C2738 C 1.00801 0.08155 0.35632 0.0
C2739 C 0.01581 0.02032 0.30669 0.0
C2740 C 0.01323 0.0411 0.32436 0.0
H2741 H 0.0128 0.16264 0.38116 0.0
H2742 H 0.01446 0.12968 0.34981 0.0
H2743 H 0.98807 0.0672 0.35821 0.0
H2744 H 1.0041 0.96338 0.29292 0.0
H2745 H 1.00273 0.99473 0.32584 0.0
C2746 C 0.26431 0.13543 0.42652 0.0
C2747 C 0.26379 0.11072 0.41906 0.0
C2748 C 0.26424 0.15402 0.40844 0.0
C2749 C 0.27065 0.16906 0.34215 0.0
H2750 H 0.24307 0.21766 0.35166 0.0
C2751 C 0.2588 0.23946 0.26432 0.0
C2752 C 0.25457 0.26283 0.27172 0.0
C2753 C 0.25999 0.2208 0.2822 0.0
C2754 C 0.251 0.2046 0.34884 0.0
H2755 H 0.26352 0.08614 0.38669 0.0
H2756 H 0.26351 0.11887 0.35497 0.0
H2757 H 0.24611 0.18573 0.38313 0.0
H2758 H 0.24848 0.2855 0.3033 0.0
H2759 H 0.25122 0.25341 0.33496 0.0
H2760 H 0.2759 0.18825 0.30836 0.0
C2761 C 0.26388 0.12368 0.3749 0.0
C2762 C 0.25267 0.1862 0.36687 0.0
C2763 C 0.26382 0.10499 0.39304 0.0
C2764 C 0.25151 0.26739 0.2972 0.0
C2765 C 0.25307 0.24893 0.31526 0.0
C2766 C 0.26915 0.18777 0.32432 0.0
C2767 C 0.26379 0.14834 0.3825 0.0
C2768 C 0.26244 0.16817 0.3636 0.0
C2769 C 0.25737 0.22536 0.30803 0.0
C2770 C 0.25921 0.2057 0.32729 0.0
H2771 H 0.26448 0.14054 0.44639 0.0
H2772 H 0.26436 0.17289 0.41476 0.0
H2773 H 0.27833 0.15547 0.33936 0.0
H2774 H 0.26123 0.23566 0.24467 0.0
H2775 H 0.26299 0.20284 0.27568 0.0
C2776 C 0.01375 0.86698 0.17951 0.0
C2777 C 0.01433 0.8905 0.16881 0.0
C2778 C 0.01447 0.84628 0.16412 0.0
C2779 C 0.02364 0.82353 0.10105 0.0
H2780 H 0.99359 0.78002 0.10945 0.0
C2781 C 1.00793 0.75822 0.02269 0.0
C2782 C 1.00439 0.73412 0.02913 0.0
C2783 C 0.00979 0.77579 0.04136 0.0
C2784 C 1.00216 0.79171 0.10716 0.0
H2785 H 0.01719 0.91081 0.13392 0.0
H2786 H 0.01855 0.8745 0.10696 0.0
H2787 H 0.99702 0.81343 0.13952 0.0
H2788 H 0.99935 0.70995 0.06026 0.0
H2789 H 1.00261 0.74102 0.09323 0.0
H2790 H 0.02874 0.80202 0.06859 0.0
C2791 C 0.01743 0.87216 0.12726 0.0
C2792 C 1.00412 0.81082 0.12433 0.0
C2793 C 0.01658 0.89292 0.14265 0.0
C2794 C 1.00214 0.72831 0.05472 0.0
C2795 C 1.00401 0.74606 0.07355 0.0
C2796 C 0.02174 0.80433 0.08401 0.0
C2797 C 0.01594 0.84872 0.1378 0.0
C2798 C 0.01474 0.82712 0.12114 0.0
C2799 C 1.00815 0.76981 0.06701 0.0
C2800 C 0.01082 0.78856 0.08658 0.0
H2801 H 0.01216 0.8645 0.19966 0.0
H2802 H 0.01348 0.82837 0.1727 0.0
H2803 H 0.03197 0.83573 0.09838 0.0
H2804 H 0.00949 0.76359 0.00313 0.0
H2805 H 0.01257 0.79412 0.03566 0.0
C2806 C 0.74982 0.01131 0.03618 0.0
C2807 C 0.76198 0.01443 0.02378 0.0
C2808 C 0.74792 0.99144 0.05232 0.0
C2809 C 0.76711 0.94486 0.08799 0.0
H2810 H 0.73276 0.914 0.09532 0.0
C2811 C 0.75896 0.8528 0.13854 0.0
C2812 C 0.75042 0.8547 0.15944 0.0
C2813 C 0.75977 0.87194 0.12113 0.0
C2814 C 0.74238 0.92254 0.09336 0.0
H2815 H 0.78141 0.99902 0.01707 0.0
H2816 H 0.77785 0.96337 0.04388 0.0
H2817 H 0.73539 0.94806 0.06583 0.0
H2818 H 0.73563 0.87714 0.17819 0.0
H2819 H 0.73669 0.91026 0.14707 0.0
H2820 H 0.77411 0.91864 0.11499 0.0
C2821 C 0.76998 0.97675 0.04228 0.0
C2822 C 0.74389 0.94212 0.07668 0.0
C2823 C 0.77199 0.99696 0.0267 0.0
C2824 C 0.74226 0.87535 0.1621 0.0
C2825 C 0.74285 0.8942 0.14441 0.0
C2826 C 0.76564 0.92499 0.10423 0.0
C2827 C 0.75804 0.97405 0.05577 0.0
C2828 C 0.75631 0.95344 0.0737 0.0
C2829 C 0.75181 0.89282 0.12416 0.0
C2830 C 0.75329 0.91367 0.1069 0.0
H2831 H 0.74202 0.02483 0.03435 0.0
H2832 H 0.73868 0.99018 0.06266 0.0
H2833 H 0.77672 0.95358 0.08681 0.0
H2834 H 0.76546 0.83715 0.13636 0.0
H2835 H 0.76672 0.87065 0.10552 0.0
C2836 C 0.01951 0.87877 0.56203 0.0
C2837 C 0.01751 0.85511 0.5717 0.0
C2838 C 0.02038 0.89883 0.57838 0.0
C2839 C 0.02338 0.91706 0.64618 0.0
H2840 H 1.00087 0.97113 0.6257 0.0
C2841 C 1.0037 0.98602 0.71839 0.0
C2842 C 1.00418 0.01101 0.71218 0.0
C2843 C 1.00612 0.96823 0.70005 0.0
C2844 C 1.00734 0.95636 0.63155 0.0
H2845 H 0.0159 0.83371 0.60621 0.0
H2846 H 0.01716 0.86869 0.63467 0.0
H2847 H 1.0052 0.93775 0.59609 0.0
H2848 H 1.00694 0.0369 0.6815 0.0
H2849 H 0.01123 0.00556 0.64921 0.0
H2850 H 0.02523 0.9354 0.68186 0.0
C2851 C 0.01817 0.8718 0.61447 0.0
C2852 C 0.00987 0.93724 0.61457 0.0
C2853 C 0.0174 0.85171 0.59812 0.0
C2854 C 1.00652 0.01779 0.68687 0.0
C2855 C 0.00898 0.99987 0.66841 0.0
C2856 C 0.02082 0.93613 0.66315 0.0
C2857 C 0.01919 0.89568 0.60474 0.0
C2858 C 0.01775 0.91717 0.62183 0.0
C2859 C 0.00912 0.97493 0.675 0.0
C2860 C 0.01258 0.95575 0.65618 0.0
H2861 H 0.01968 0.88202 0.54179 0.0
H2862 H 0.02147 0.91693 0.57031 0.0
H2863 H 0.02965 0.90209 0.65225 0.0
H2864 H 1.00169 0.9801 0.73761 0.0
H2865 H 1.00577 0.94916 0.70557 0.0
C2866 C 0.76279 0.76478 0.72154 0.0
C2867 C 0.76336 0.73995 0.71475 0.0
C2868 C 0.76114 0.78262 0.70309 0.0
C2869 C 0.74733 0.7925 0.64043 0.0
H2870 H 0.76758 0.85267 0.64375 0.0
C2871 C 0.74722 0.86987 0.56499 0.0
C2872 C 0.74853 0.89389 0.57424 0.0
C2873 C 0.74716 0.85014 0.58178 0.0
C2874 C 0.76173 0.83609 0.64281 0.0
H2875 H 0.76297 0.71426 0.68334 0.0
H2876 H 0.76 0.74579 0.6508 0.0
H2877 H 0.77279 0.81934 0.67262 0.0
H2878 H 0.74905 0.91632 0.60828 0.0
H2879 H 0.74885 0.88191 0.63746 0.0
H2880 H 0.73627 0.80944 0.61051 0.0
C2881 C 0.76079 0.75125 0.67051 0.0
C2882 C 0.76477 0.817 0.6592 0.0
C2883 C 0.76258 0.7333 0.68904 0.0
C2884 C 0.74829 0.89799 0.60055 0.0
C2885 C 0.74825 0.87831 0.61727 0.0
C2886 C 0.74428 0.81168 0.62393 0.0
C2887 C 0.75996 0.77603 0.67747 0.0
C2888 C 0.75749 0.79518 0.6584 0.0
C2889 C 0.74838 0.85423 0.60797 0.0
C2890 C 0.75134 0.83376 0.62528 0.0
H2891 H 0.76348 0.77047 0.7412 0.0
H2892 H 0.76043 0.80158 0.70898 0.0
H2893 H 0.7415 0.77589 0.63965 0.0
H2894 H 0.74724 0.86616 0.5448 0.0
H2895 H 0.74717 0.83173 0.57415 0.0
C2896 C 1.00499 0.74707 0.47692 0.0
C2897 C 0.01199 0.76787 0.46901 0.0
C2898 C 1.00344 0.72705 0.46054 0.0
C2899 C 0.01609 0.70171 0.3987 0.0
H2900 H 0.98457 0.66146 0.40288 0.0
C2901 C 1.00183 0.6337 0.32021 0.0
C2902 C 1.00076 0.60926 0.32835 0.0
C2903 C 1.00208 0.65284 0.33778 0.0
C2904 C 0.99342 0.67257 0.40159 0.0
H2905 H 0.02248 0.78448 0.43761 0.0
H2906 H 0.01913 0.75059 0.40866 0.0
H2907 H 0.98755 0.69525 0.43272 0.0
H2908 H 0.9981 0.58599 0.36125 0.0
H2909 H 0.99817 0.61973 0.39199 0.0
H2910 H 0.02161 0.67955 0.36684 0.0
C2911 C 0.01539 0.74883 0.42781 0.0
C2912 C 0.99522 0.69184 0.41882 0.0
C2913 C 0.01727 0.76845 0.4444 0.0
C2914 C 0.99902 0.60458 0.35438 0.0
C2915 C 0.99904 0.62385 0.37196 0.0
C2916 C 0.01413 0.68287 0.38119 0.0
C2917 C 1.00851 0.72771 0.4356 0.0
C2918 C 1.0066 0.70675 0.41763 0.0
C2919 C 1.00097 0.64806 0.36384 0.0
C2920 C 1.00279 0.66812 0.38246 0.0
H2921 H 1.0008 0.74623 0.49583 0.0
H2922 H 0.9983 0.71106 0.46756 0.0
H2923 H 0.02517 0.71213 0.39743 0.0
H2924 H 1.00308 0.63808 0.30031 0.0
H2925 H 1.00343 0.67139 0.33104 0.0
C2926 C 0.2666 0.61626 0.31858 0.0
C2927 C 0.26429 0.64035 0.32675 0.0
C2928 C 0.26674 0.59716 0.33603 0.0
C2929 C 0.25115 0.58182 0.39549 0.0
H2930 H 0.27495 0.52606 0.39577 0.0
C2931 C 0.25135 0.50895 0.47321 0.0
C2932 C 0.25276 0.48442 0.46581 0.0
C2933 C 0.25228 0.52752 0.45536 0.0
C2934 C 0.26814 0.54139 0.39557 0.0
H2935 H 0.26131 0.66378 0.35955 0.0
H2936 H 0.26144 0.63026 0.39008 0.0
H2937 H 0.27938 0.56053 0.36739 0.0
H2938 H 0.25578 0.45976 0.43409 0.0
H2939 H 0.25754 0.49258 0.40255 0.0
H2940 H 0.23989 0.56279 0.42355 0.0
C2941 C 0.26302 0.62619 0.37018 0.0
C2942 C 0.27073 0.5611 0.37954 0.0
C2943 C 0.26299 0.64532 0.35276 0.0
C2944 C 0.25459 0.4786 0.44012 0.0
C2945 C 0.25572 0.49729 0.42222 0.0
C2946 C 0.24856 0.56216 0.41144 0.0
C2947 C 0.26447 0.60191 0.36183 0.0
C2948 C 0.26227 0.5815 0.37949 0.0
C2949 C 0.25479 0.52188 0.42984 0.0
C2950 C 0.25706 0.54184 0.41167 0.0
H2951 H 0.26784 0.61204 0.29862 0.0
H2952 H 0.26789 0.57859 0.32915 0.0
H2953 H 0.24431 0.59711 0.39535 0.0
H2954 H 0.24987 0.51383 0.49294 0.0
H2955 H 0.2516 0.54635 0.46171 0.0
C2956 C 0.01191 0.48144 0.80404 0.0
C2957 C 0.01339 0.48909 0.77876 0.0
C2958 C 0.00932 0.49864 0.82312 0.0
C2959 C 0.99456 0.55948 0.82977 0.0
H2960 H 0.01232 0.56243 0.89479 0.0
C2961 C 0.99783 0.64613 0.8903 0.0
C2962 C 0.99833 0.64371 0.91675 0.0
C2963 C 0.9969 0.62536 0.87502 0.0
C2964 C 1.00706 0.56152 0.87692 0.0
H2965 H 0.01456 0.52067 0.75391 0.0
H2966 H 0.01023 0.55044 0.78706 0.0
H2967 H 0.01744 0.52911 0.86543 0.0
H2968 H 0.99683 0.61813 0.94814 0.0
H2969 H 0.9952 0.58194 0.92139 0.0
H2970 H 0.98443 0.59216 0.84085 0.0
C2971 C 0.01061 0.53123 0.79207 0.0
C2972 C 0.01005 0.54252 0.86013 0.0
C2973 C 0.01314 0.51418 0.77313 0.0
C2974 C 0.99669 0.62048 0.92773 0.0
C2975 C 0.99581 0.59975 0.91247 0.0
C2976 C 0.99157 0.57841 0.84651 0.0
C2977 C 1.00822 0.52358 0.81703 0.0
C2978 C 1.00409 0.54179 0.83614 0.0
C2979 C 0.99644 0.60193 0.886 0.0
C2980 C 0.99804 0.57997 0.86995 0.0
H2981 H 0.01211 0.4622 0.80889 0.0
H2982 H 1.0076 0.49236 0.84232 0.0
H2983 H 0.9896 0.55897 0.81155 0.0
H2984 H 0.99898 0.66384 0.88138 0.0
H2985 H 0.99743 0.62757 0.85463 0.0
C2986 C 0.2687 0.63578 0.91348 0.0
C2987 C 0.26427 0.61195 0.9081 0.0
C2988 C 0.26931 0.65347 0.89445 0.0
C2989 C 0.25501 0.66887 0.83206 0.0
H2990 H 0.28231 0.71876 0.83234 0.0
C2991 C 0.2558 0.74729 0.75878 0.0
C2992 C 0.25544 0.77044 0.77033 0.0
C2993 C 0.2591 0.72654 0.77299 0.0
C2994 C 0.27466 0.70488 0.83199 0.0
H2995 H 0.25731 0.58789 0.87822 0.0
H2996 H 0.25846 0.61881 0.84484 0.0
H2997 H 0.28371 0.6845 0.86197 0.0
H2998 H 0.25908 0.79046 0.8051 0.0
H2999 H 0.26533 0.75437 0.8297 0.0
H3000 H 0.24593 0.68945 0.80219 0.0
C3001 C 0.26132 0.62386 0.86393 0.0
C3002 C 0.2754 0.68532 0.84904 0.0
C3003 C 0.26075 0.60607 0.88303 0.0
C3004 C 0.2593 0.77278 0.79579 0.0
C3005 C 0.2629 0.75215 0.80982 0.0
C3006 C 0.25435 0.68828 0.81485 0.0
C3007 C 0.26552 0.64786 0.86945 0.0
C3008 C 0.26544 0.66732 0.84965 0.0
C3009 C 0.26239 0.72873 0.79881 0.0
C3010 C 0.26404 0.7067 0.81494 0.0
H3011 H 0.27157 0.64094 0.93255 0.0
H3012 H 0.27242 0.67179 0.89955 0.0
H3013 H 0.24705 0.65561 0.83223 0.0
H3014 H 0.25271 0.74502 0.73925 0.0
H3015 H 0.25868 0.7087 0.76403 0.0
C3016 C 0.99419 0.25093 0.522 0.0
C3017 C 1.00364 0.23215 0.52236 0.0
C3018 C 0.99471 0.26969 0.54006 0.0
C3019 C 0.01905 0.29851 0.58355 0.0
H3020 H 0.98852 0.33555 0.60645 0.0
C3021 C 0.02057 0.36986 0.66399 0.0
C3022 C 0.0143 0.39241 0.65951 0.0
C3023 C 0.0194 0.35072 0.64668 0.0
C3024 C 0.99712 0.32546 0.59996 0.0
H3025 H 0.0203 0.21681 0.54258 0.0
H3026 H 0.0207 0.24851 0.57513 0.0
H3027 H 0.98532 0.29948 0.57974 0.0
H3028 H 1.00213 0.41286 0.63317 0.0
H3029 H 0.99993 0.37898 0.60276 0.0
H3030 H 0.03078 0.32411 0.60452 0.0
C3031 C 0.01329 0.24965 0.56035 0.0
C3032 C 0.99531 0.3048 0.58467 0.0
C3033 C 0.01298 0.23131 0.54195 0.0
C3034 C 1.00712 0.39571 0.63698 0.0
C3035 C 1.00577 0.37632 0.61977 0.0
C3036 C 0.02082 0.31888 0.59914 0.0
C3037 C 1.00453 0.26965 0.55904 0.0
C3038 C 1.00626 0.29107 0.5762 0.0
C3039 C 0.01179 0.35361 0.62466 0.0
C3040 C 0.00989 0.33259 0.60738 0.0
H3041 H 0.98699 0.25198 0.50683 0.0
H3042 H 0.98785 0.28483 0.53826 0.0
H3043 H 0.02777 0.28887 0.57694 0.0
H3044 H 0.0262 0.36682 0.68119 0.0
H3045 H 0.02408 0.33336 0.65094 0.0
C3046 C 0.75138 0.35384 0.641 0.0
C3047 C 0.75271 0.35769 0.66721 0.0
C3048 C 0.75118 0.3738 0.62441 0.0
C3049 C 0.76433 0.43527 0.61959 0.0
H3050 H 0.74004 0.44262 0.56327 0.0
C3051 C 0.76612 0.5171 0.54957 0.0
C3052 C 0.76355 0.51138 0.52408 0.0
C3053 C 0.76449 0.49927 0.56832 0.0
C3054 C 0.74699 0.44066 0.57878 0.0
H3055 H 0.75404 0.38551 0.69672 0.0
H3056 H 0.75393 0.41995 0.66777 0.0
H3057 H 0.73683 0.40931 0.59345 0.0
H3058 H 0.75827 0.48231 0.49788 0.0
H3059 H 0.75581 0.45125 0.5303 0.0
H3060 H 0.77476 0.46608 0.60457 0.0
C3061 C 0.75316 0.40162 0.66006 0.0
C3062 C 0.7451 0.42168 0.59604 0.0
C3063 C 0.75321 0.38181 0.67658 0.0
C3064 C 0.76009 0.48733 0.51747 0.0
C3065 C 0.75857 0.46958 0.53607 0.0
C3066 C 0.76631 0.45411 0.60218 0.0
C3067 C 0.75243 0.39778 0.63384 0.0
C3068 C 0.75385 0.41866 0.61638 0.0
C3069 C 0.76038 0.47548 0.56174 0.0
C3070 C 0.75779 0.45674 0.58136 0.0
H3071 H 0.75083 0.33549 0.63328 0.0
H3072 H 0.7506 0.37045 0.60418 0.0
H3073 H 0.77127 0.43318 0.63509 0.0
H3074 H 0.76875 0.53556 0.55512 0.0
H3075 H 0.76596 0.50433 0.58798 0.0
C3076 C 1.00808 0.52122 0.19987 0.0
C3077 C 1.00387 0.51738 0.22486 0.0
C3078 C 0.00992 0.5014 0.18351 0.0
C3079 C 1.00039 0.43718 0.17333 0.0
H3080 H 0.03082 0.43675 0.12837 0.0
C3081 C 0.01138 0.35615 0.1056 0.0
C3082 C 0.01494 0.36258 0.0807 0.0
C3083 C 0.01089 0.37394 0.12473 0.0
C3084 C 0.02223 0.43667 0.14069 0.0
H3085 H 0.99833 0.49032 0.25278 0.0
H3086 H 1.00153 0.45534 0.2241 0.0
H3087 H 0.02805 0.47005 0.15875 0.0
H3088 H 0.02113 0.3927 0.05658 0.0
H3089 H 0.02011 0.42351 0.08967 0.0
H3090 H 0.99445 0.404 0.15495 0.0
C3091 C 1.00329 0.47364 0.21702 0.0
C3092 C 0.02064 0.45575 0.15808 0.0
C3093 C 1.00148 0.49354 0.23342 0.0
C3094 C 0.01829 0.38704 0.07551 0.0
C3095 C 0.01782 0.40475 0.09457 0.0
C3096 C 1.00197 0.41809 0.15588 0.0
C3097 C 1.0076 0.47737 0.19191 0.0
C3098 C 0.00962 0.45638 0.17439 0.0
C3099 C 0.014 0.39849 0.11935 0.0
C3100 C 0.01283 0.41777 0.13915 0.0
H3101 H 0.01 0.53958 0.19305 0.0
H3102 H 0.01306 0.50492 0.1642 0.0
H3103 H 0.99172 0.43729 0.18544 0.0
H3104 H 0.0088 0.33746 0.11029 0.0
H3105 H 1.00807 0.36849 0.14372 0.0
C3106 C 0.75569 0.36762 0.06505 0.0
C3107 C 0.75283 0.39134 0.07377 0.0
C3108 C 0.75419 0.34764 0.08116 0.0
C3109 C 0.75592 0.33674 0.14907 0.0
H3110 H 0.74816 0.26941 0.13111 0.0
C3111 C 0.75527 0.26196 0.22365 0.0
C3112 C 0.76141 0.23952 0.21797 0.0
C3113 C 0.75318 0.27924 0.20483 0.0
C3114 C 0.75046 0.28814 0.13623 0.0
H3115 H 0.74461 0.41269 0.10467 0.0
H3116 H 0.74152 0.37762 0.13263 0.0
H3117 H 0.74436 0.30198 0.10004 0.0
H3118 H 0.77017 0.21763 0.18788 0.0
H3119 H 0.76669 0.24841 0.15478 0.0
H3120 H 0.76219 0.32314 0.18494 0.0
C3121 C 0.74548 0.37456 0.11378 0.0
C3122 C 0.74822 0.30674 0.11856 0.0
C3123 C 0.74723 0.3946 0.09785 0.0
C3124 C 0.76541 0.23476 0.19287 0.0
C3125 C 0.76335 0.25225 0.17391 0.0
C3126 C 0.75814 0.31827 0.1666 0.0
C3127 C 0.74961 0.3511 0.10607 0.0
C3128 C 0.7509 0.33125 0.12491 0.0
C3129 C 0.75727 0.27469 0.17984 0.0
C3130 C 0.75537 0.29382 0.16045 0.0
H3131 H 0.75988 0.36464 0.04635 0.0
H3132 H 0.75746 0.32982 0.07464 0.0
H3133 H 0.75851 0.3553 0.1543 0.0
H3134 H 0.75191 0.26625 0.24267 0.0
H3135 H 0.74826 0.2962 0.20986 0.0
C3136 C 0.51098 0.23549 0.46997 0.0
C3137 C 0.51245 0.26036 0.46381 0.0
C3138 C 0.50848 0.21818 0.45114 0.0
C3139 C 0.5108 0.2063 0.38256 0.0
H3140 H 0.48506 0.15581 0.39811 0.0
C3141 C 0.49849 0.13032 0.31055 0.0
C3142 C 0.49919 0.10649 0.32054 0.0
C3143 C 0.49792 0.15061 0.32671 0.0
C3144 C 0.49229 0.16974 0.39349 0.0
H3145 H 0.51284 0.2864 0.4328 0.0
H3146 H 0.50842 0.25598 0.39976 0.0
H3147 H 0.48915 0.18847 0.42863 0.0
H3148 H 0.4987 0.08523 0.35523 0.0
H3149 H 0.49768 0.12054 0.38336 0.0
H3150 H 0.51412 0.18726 0.34759 0.0
C3151 C 0.50923 0.24998 0.41927 0.0
C3152 C 0.49466 0.18842 0.411 0.0
C3153 C 0.51172 0.2674 0.4382 0.0
C3154 C 0.49824 0.10333 0.34692 0.0
C3155 C 0.49762 0.12361 0.36306 0.0
C3156 C 0.50841 0.18758 0.365 0.0
C3157 C 0.50736 0.22523 0.42562 0.0
C3158 C 0.50414 0.20663 0.40598 0.0
C3159 C 0.49791 0.14749 0.35317 0.0
C3160 C 0.4993 0.16884 0.37048 0.0
H3161 H 0.51159 0.2293 0.48944 0.0
H3162 H 0.50741 0.19919 0.45661 0.0
H3163 H 0.51822 0.21995 0.3782 0.0
H3164 H 0.49913 0.13342 0.2903 0.0
H3165 H 0.4979 0.16876 0.31849 0.0
C3166 C 0.7632 0.00075 0.47906 0.0
C3167 C 0.75319 0.98344 0.47461 0.0
C3168 C 0.76508 0.02027 0.46227 0.0
C3169 C 0.74769 0.05392 0.41092 0.0
H3170 H 0.78274 0.07838 0.39483 0.0
C3171 C 0.75725 0.11769 0.32701 0.0
C3172 C 0.76412 0.13939 0.33243 0.0
C3173 C 0.75668 0.09891 0.34477 0.0
C3174 C 0.77291 0.07177 0.39935 0.0
H3175 H 0.73757 0.97254 0.44876 0.0
H3176 H 0.74109 0.00579 0.41925 0.0
H3177 H 0.78027 0.04471 0.4251 0.0
H3178 H 0.77591 0.15853 0.36039 0.0
H3179 H 0.77499 0.12526 0.39176 0.0
H3180 H 0.74038 0.08039 0.3846 0.0
C3181 C 0.74719 0.00503 0.4361 0.0
C3182 C 0.77147 0.0526 0.41673 0.0
C3183 C 0.74517 0.98587 0.45304 0.0
C3184 C 0.77049 0.14199 0.35593 0.0
C3185 C 0.77007 0.12295 0.37366 0.0
C3186 C 0.74915 0.07273 0.39337 0.0
C3187 C 0.75708 0.02262 0.44055 0.0
C3188 C 0.75881 0.04337 0.42263 0.0
C3189 C 0.76305 0.10137 0.36827 0.0
C3190 C 0.76174 0.08179 0.38738 0.0
H3191 H 0.76956 0.9992 0.49552 0.0
H3192 H 0.77269 0.03359 0.46646 0.0
H3193 H 0.73777 0.04777 0.4154 0.0
H3194 H 0.75211 0.11538 0.30915 0.0
H3195 H 0.75124 0.08242 0.34014 0.0
C3196 C 0.49445 0.13013 0.90042 0.0
C3197 C 0.50613 0.13895 0.91149 0.0
C3198 C 0.495 0.11188 0.88172 0.0
C3199 C 0.51822 0.08292 0.83575 0.0
H3200 H 0.49244 0.03041 0.83474 0.0
C3201 C 0.52553 0.99467 0.77699 0.0
C3202 C 0.5145 0.98471 0.76448 0.0
C3203 C 0.52408 0.01452 0.79353 0.0
C3204 C 0.49961 0.04512 0.83458 0.0
H3205 H 0.52744 0.13564 0.91245 0.0
H3206 H 0.52849 0.10367 0.88001 0.0
H3207 H 0.4907 0.06267 0.86676 0.0
H3208 H 0.49329 0.98844 0.75898 0.0
H3209 H 0.49079 0.02319 0.78786 0.0
H3210 H 0.52726 0.06517 0.80389 0.0
C3211 C 0.51891 0.11105 0.88519 0.0
C3212 C 0.49862 0.06364 0.85293 0.0
C3213 C 0.51834 0.12927 0.90382 0.0
C3214 C 0.50202 0.99565 0.76827 0.0
C3215 C 0.50055 0.01542 0.78502 0.0
C3216 C 0.51925 0.06439 0.81754 0.0
C3217 C 0.50725 0.10211 0.87382 0.0
C3218 C 0.50797 0.08271 0.85386 0.0
C3219 C 0.51155 0.0249 0.79808 0.0
C3220 C 0.51002 0.04518 0.8168 0.0
H3221 H 0.48492 0.13727 0.90634 0.0
H3222 H 0.48584 0.10561 0.87328 0.0
H3223 H 0.52545 0.09753 0.83552 0.0
H3224 H 0.53527 0.98668 0.77456 0.0
H3225 H 0.53274 0.02124 0.80343 0.0
C3226 C 0.75764 0.23318 0.77288 0.0
C3227 C 0.75553 0.25782 0.77935 0.0
C3228 C 0.75945 0.21568 0.79165 0.0
C3229 C 0.75439 0.20283 0.85932 0.0
H3230 H 0.78134 0.15356 0.84664 0.0
C3231 C 0.76718 0.12853 0.93236 0.0
C3232 C 0.7662 0.10458 0.92272 0.0
C3233 C 0.76754 0.14849 0.91595 0.0
C3234 C 0.7738 0.16722 0.85039 0.0
H3235 H 0.75313 0.28331 0.81065 0.0
H3236 H 0.75644 0.25254 0.84365 0.0
H3237 H 0.77808 0.18659 0.81621 0.0
H3238 H 0.76582 0.08264 0.8884 0.0
H3239 H 0.76665 0.11762 0.85967 0.0
H3240 H 0.75013 0.18331 0.89354 0.0
C3241 C 0.75664 0.24686 0.82396 0.0
C3242 C 0.77188 0.18604 0.83298 0.0
C3243 C 0.75475 0.26445 0.80508 0.0
C3244 C 0.76649 0.10088 0.89636 0.0
C3245 C 0.767 0.12087 0.87994 0.0
C3246 C 0.7564 0.1841 0.87687 0.0
C3247 C 0.75927 0.22238 0.81736 0.0
C3248 C 0.76197 0.20373 0.83699 0.0
C3249 C 0.76715 0.14484 0.88962 0.0
C3250 C 0.76596 0.16591 0.87231 0.0
H3251 H 0.75807 0.22734 0.75325 0.0
H3252 H 0.76107 0.19685 0.78598 0.0
H3253 H 0.74661 0.21608 0.86282 0.0
H3254 H 0.7671 0.132 0.9526 0.0
H3255 H 0.76782 0.1668 0.92383 0.0
C3256 C 0.51943 0.89432 0.64646 0.0
C3257 C 0.5171 0.89188 0.6726 0.0
C3258 C 0.52028 0.87367 0.63092 0.0
C3259 C 0.5069 0.81197 0.62754 0.0
H3260 H 0.52957 0.8066 0.5684 0.0
C3261 C 0.50294 0.73275 0.5538 0.0
C3262 C 0.50447 0.7395 0.52823 0.0
C3263 C 0.50527 0.74976 0.57321 0.0
C3264 C 0.52309 0.80792 0.58474 0.0
H3265 H 0.51471 0.86587 0.70328 0.0
H3266 H 0.51627 0.82967 0.67607 0.0
H3267 H 0.53368 0.8387 0.59956 0.0
H3268 H 0.50897 0.76986 0.50306 0.0
H3269 H 0.51282 0.79926 0.53663 0.0
H3270 H 0.49604 0.78168 0.61227 0.0
C3271 C 0.51732 0.84761 0.66761 0.0
C3272 C 0.52551 0.82623 0.60265 0.0
C3273 C 0.51659 0.86833 0.68321 0.0
C3274 C 0.50789 0.76382 0.52251 0.0
C3275 C 0.51019 0.78072 0.54181 0.0
C3276 C 0.50445 0.79369 0.60954 0.0
C3277 C 0.51873 0.85013 0.64119 0.0
C3278 C 0.51729 0.82875 0.624 0.0
C3279 C 0.50918 0.77381 0.56738 0.0
C3280 C 0.51235 0.79179 0.58767 0.0
H3281 H 0.51983 0.91225 0.63774 0.0
H3282 H 0.52128 0.87626 0.61064 0.0
H3283 H 0.50028 0.81367 0.64363 0.0
H3284 H 0.5003 0.71419 0.55888 0.0
H3285 H 0.5044 0.74388 0.59274 0.0
C3286 C 0.25267 0.01465 0.54591 0.0
C3287 C 0.26332 0.01525 0.5288 0.0
C3288 C 0.25124 0.99527 0.563 0.0
C3289 C 0.26938 0.94085 0.58979 0.0
H3290 H 0.23417 0.92305 0.61264 0.0
C3291 C 0.25829 0.85106 0.644 0.0
C3292 C 0.25151 0.85366 0.66723 0.0
C3293 C 0.2593 0.87069 0.62706 0.0
C3294 C 0.24407 0.9279 0.60652 0.0
H3295 H 0.28066 0.99581 0.51561 0.0
H3296 H 0.27784 0.96118 0.54429 0.0
H3297 H 0.23692 0.95666 0.5828 0.0
H3298 H 0.23995 0.87874 0.69017 0.0
H3299 H 0.2414 0.91293 0.66011 0.0
H3300 H 0.27636 0.91116 0.61279 0.0
C3301 C 0.27085 0.97615 0.54554 0.0
C3302 C 0.24571 0.94736 0.58948 0.0
C3303 C 0.27248 0.99596 0.52893 0.0
C3304 C 0.24528 0.87614 0.67252 0.0
C3305 C 0.24609 0.89569 0.6553 0.0
C3306 C 0.2677 0.92106 0.60636 0.0
C3307 C 0.26021 0.97546 0.56296 0.0
C3308 C 0.25841 0.95431 0.58091 0.0
C3309 C 0.25334 0.89331 0.63261 0.0
C3310 C 0.25503 0.91442 0.61501 0.0
H3311 H 0.24548 0.02939 0.54628 0.0
H3312 H 0.24311 0.99604 0.57637 0.0
H3313 H 0.27936 0.94572 0.5843 0.0
H3314 H 0.26327 0.83411 0.63918 0.0
H3315 H 0.26483 0.86822 0.60962 0.0
C3316 C 0.5145 0.88386 0.07136 0.0
C3317 C 0.51444 0.85916 0.07878 0.0
C3318 C 0.51469 0.90252 0.08951 0.0
C3319 C 0.50626 0.91345 0.15703 0.0
H3320 H 0.52276 0.97632 0.14452 0.0
C3321 C 0.50777 0.993 0.23053 0.0
C3322 C 0.50367 0.01573 0.22106 0.0
C3323 C 0.50969 0.97321 0.21403 0.0
C3324 C 0.51808 0.95885 0.1482 0.0
H3325 H 0.51547 0.83474 0.11113 0.0
H3326 H 0.51612 0.86728 0.14277 0.0
H3327 H 0.52603 0.9429 0.11437 0.0
H3328 H 0.49862 0.03604 0.1872 0.0
H3329 H 0.50233 0.00165 0.15823 0.0
H3330 H 0.49844 0.92953 0.19105 0.0
C3331 C 0.5156 0.87225 0.12292 0.0
C3332 C 0.51991 0.93971 0.13091 0.0
C3333 C 0.51533 0.85357 0.10475 0.0
C3334 C 0.50162 0.01853 0.19491 0.0
C3335 C 0.50385 0.99896 0.17837 0.0
C3336 C 0.50458 0.93252 0.17447 0.0
C3337 C 0.51496 0.89697 0.11557 0.0
C3338 C 0.51387 0.91684 0.13491 0.0
C3339 C 0.50792 0.97612 0.18775 0.0
C3340 C 0.51032 0.95549 0.17004 0.0
H3341 H 0.51394 0.88886 0.05151 0.0
H3342 H 0.5141 0.92128 0.08306 0.0
H3343 H 0.50125 0.89628 0.16057 0.0
H3344 H 0.50946 0.99054 0.25063 0.0
H3345 H 0.51286 0.9558 0.22173 0.0
C3346 C 0.26516 0.76442 0.22381 0.0
C3347 C 0.26516 0.73969 0.2166 0.0
C3348 C 0.264 0.78275 0.20567 0.0
C3349 C 0.24992 0.79439 0.14344 0.0
H3350 H 0.27064 0.85397 0.14731 0.0
C3351 C 0.24865 0.87199 0.0685 0.0
C3352 C 0.25061 0.89609 0.0771 0.0
C3353 C 0.24904 0.85241 0.08549 0.0
C3354 C 0.26462 0.83761 0.14622 0.0
H3355 H 0.26434 0.7146 0.18478 0.0
H3356 H 0.26218 0.74695 0.15272 0.0
H3357 H 0.27567 0.82011 0.17563 0.0
H3358 H 0.25304 0.91879 0.1106 0.0
H3359 H 0.2535 0.88466 0.14026 0.0
H3360 H 0.23879 0.81206 0.11409 0.0
C3361 C 0.2631 0.75201 0.17251 0.0
C3362 C 0.26759 0.81815 0.1623 0.0
C3363 C 0.26447 0.73358 0.19075 0.0
C3364 C 0.25171 0.90042 0.10329 0.0
C3365 C 0.25209 0.88085 0.12027 0.0
C3366 C 0.24692 0.81394 0.12732 0.0
C3367 C 0.26266 0.77675 0.1799 0.0
C3368 C 0.2602 0.79644 0.16124 0.0
C3369 C 0.25134 0.85659 0.11142 0.0
C3370 C 0.25417 0.83585 0.12873 0.0
H3371 H 0.26572 0.76962 0.24363 0.0
H3372 H 0.2636 0.80162 0.21195 0.0
H3373 H 0.24395 0.77796 0.14247 0.0
H3374 H 0.24762 0.86805 0.04845 0.0
H3375 H 0.24838 0.83397 0.07806 0.0
C3376 C 0.50359 0.60148 0.85469 0.0
C3377 C 0.50333 0.60705 0.82867 0.0
C3378 C 0.50342 0.62021 0.87288 0.0
C3379 C 0.4978 0.68766 0.88117 0.0
H3380 H 0.52051 0.67867 0.93971 0.0
C3381 C 0.51514 0.76688 0.9467 0.0
C3382 C 0.51257 0.76327 0.97261 0.0
C3383 C 0.51353 0.74761 0.92944 0.0
C3384 C 0.51408 0.68135 0.92351 0.0
H3385 H 0.50187 0.63674 0.80149 0.0
H3386 H 0.50199 0.66915 0.8329 0.0
H3387 H 0.51785 0.64538 0.90927 0.0
H3388 H 0.50649 0.73697 0.00094 0.0
H3389 H 0.50441 0.70286 0.97094 0.0
H3390 H 0.49452 0.72408 0.89516 0.0
C3391 C 0.50217 0.6504 0.83948 0.0
C3392 C 0.51245 0.66222 0.90613 0.0
C3393 C 0.50221 0.63171 0.82135 0.0
C3394 C 0.50867 0.74005 0.98108 0.0
C3395 C 0.50745 0.72062 0.96395 0.0
C3396 C 0.49963 0.70692 0.89835 0.0
C3397 C 0.50307 0.64498 0.86551 0.0
C3398 C 0.50429 0.66508 0.88466 0.0
C3399 C 0.50968 0.7243 0.93792 0.0
C3400 C 0.50779 0.70394 0.91966 0.0
H3401 H 0.50428 0.58269 0.86105 0.0
H3402 H 0.50376 0.61523 0.89274 0.0
H3403 H 0.49125 0.69051 0.86521 0.0
H3404 H 0.51795 0.78477 0.93972 0.0
H3405 H 0.51533 0.75089 0.90947 0.0
C3406 C 0.74985 0.48391 0.94452 0.0
C3407 C 0.74989 0.49098 0.97008 0.0
C3408 C 0.75271 0.5011 0.92568 0.0
C3409 C 0.76972 0.56066 0.91874 0.0
H3410 H 0.75174 0.56332 0.85392 0.0
C3411 C 0.76821 0.64523 0.85376 0.0
C3412 C 0.76891 0.64115 0.8275 0.0
C3413 C 0.76811 0.62541 0.87046 0.0
C3414 C 0.75698 0.56254 0.87182 0.0
H3415 H 0.75216 0.52118 0.9963 0.0
H3416 H 0.75641 0.55146 0.96352 0.0
H3417 H 0.74596 0.53135 0.88415 0.0
H3418 H 0.77119 0.61337 0.79822 0.0
H3419 H 0.77085 0.57898 0.82737 0.0
H3420 H 0.78038 0.59244 0.90668 0.0
C3421 C 0.75467 0.53267 0.95787 0.0
C3422 C 0.75366 0.54425 0.88911 0.0
C3423 C 0.75202 0.51549 0.97659 0.0
C3424 C 0.77038 0.6171 0.81837 0.0
C3425 C 0.77019 0.59738 0.83498 0.0
C3426 C 0.77293 0.57907 0.90156 0.0
C3427 C 0.75554 0.52551 0.93231 0.0
C3428 C 0.75978 0.54349 0.91299 0.0
C3429 C 0.76866 0.60132 0.86108 0.0
C3430 C 0.76641 0.58042 0.87817 0.0
H3431 H 0.74848 0.4649 0.93929 0.0
H3432 H 0.75335 0.49503 0.90615 0.0
H3433 H 0.7749 0.56008 0.9367 0.0
H3434 H 0.76716 0.66357 0.86134 0.0
H3435 H 0.76688 0.62886 0.89057 0.0
C3436 C 0.50433 0.50053 0.2653 0.0
C3437 C 0.51395 0.48258 0.27017 0.0
C3438 C 0.50254 0.52013 0.2821 0.0
C3439 C 0.51917 0.55198 0.33613 0.0
H3440 H 0.48429 0.57991 0.34713 0.0
C3441 C 0.50714 0.61586 0.41939 0.0
C3442 C 0.5026 0.63928 0.41248 0.0
C3443 C 0.50764 0.59698 0.40164 0.0
C3444 C 0.49408 0.57231 0.34404 0.0
H3445 H 0.52902 0.47069 0.2967 0.0
H3446 H 0.52557 0.50398 0.32639 0.0
H3447 H 0.48704 0.54603 0.31712 0.0
H3448 H 0.49455 0.66098 0.38178 0.0
H3449 H 0.49522 0.62743 0.35056 0.0
H3450 H 0.52603 0.57757 0.36393 0.0
C3451 C 0.51973 0.50373 0.30918 0.0
C3452 C 0.4957 0.55301 0.32678 0.0
C3453 C 0.52171 0.48451 0.29214 0.0
C3454 C 0.49821 0.6432 0.38754 0.0
C3455 C 0.4985 0.62404 0.3698 0.0
C3456 C 0.51748 0.57084 0.35367 0.0
C3457 C 0.51017 0.52192 0.30438 0.0
C3458 C 0.50829 0.54259 0.32257 0.0
C3459 C 0.50342 0.60093 0.37669 0.0
C3460 C 0.50496 0.58121 0.35772 0.0
H3461 H 0.49819 0.49941 0.2485 0.0
H3462 H 0.49523 0.53391 0.27749 0.0
H3463 H 0.52907 0.54496 0.33308 0.0
H3464 H 0.51057 0.61213 0.43847 0.0
H3465 H 0.51142 0.57927 0.40738 0.0
C3466 C 0.75447 0.76922 0.30489 0.0
C3467 C 0.7541 0.76124 0.27956 0.0
C3468 C 0.75726 0.7526 0.32427 0.0
C3469 C 0.77355 0.69305 0.33342 0.0
H3470 H 0.75377 0.69055 0.39639 0.0
C3471 C 0.76719 0.60751 0.39383 0.0
C3472 C 0.76569 0.61015 0.42016 0.0
C3473 C 0.76931 0.62801 0.37873 0.0
C3474 C 0.7596 0.6914 0.37915 0.0
H3475 H 0.75522 0.72955 0.25475 0.0
H3476 H 0.7598 0.70065 0.28848 0.0
H3477 H 0.74908 0.72285 0.36587 0.0
H3478 H 0.7668 0.63564 0.45172 0.0
H3479 H 0.77045 0.67152 0.42523 0.0
H3480 H 0.78366 0.66095 0.34622 0.0
C3481 C 0.75845 0.71977 0.29334 0.0
C3482 C 0.75688 0.70982 0.36168 0.0
C3483 C 0.75574 0.73629 0.27407 0.0
C3484 C 0.76761 0.6332 0.43138 0.0
C3485 C 0.76971 0.65371 0.41628 0.0
C3486 C 0.77625 0.6746 0.35084 0.0
C3487 C 0.75965 0.72786 0.3185 0.0
C3488 C 0.76355 0.71034 0.33835 0.0
C3489 C 0.77 0.6514 0.38977 0.0
C3490 C 0.76904 0.67324 0.37354 0.0
H3491 H 0.75321 0.78838 0.3096 0.0
H3492 H 0.75805 0.75923 0.34358 0.0
H3493 H 0.77906 0.69342 0.31578 0.0
H3494 H 0.76591 0.58989 0.38472 0.0
H3495 H 0.76945 0.62573 0.35831 0.0
C3496 C 0.51953 0.39532 0.14375 0.0
C3497 C 0.5163 0.39164 0.16941 0.0
C3498 C 0.51946 0.37567 0.12664 0.0
C3499 C 0.50241 0.31889 0.11475 0.0
H3500 H 0.5314 0.30248 0.06965 0.0
C3501 C 0.4995 0.23602 0.04588 0.0
C3502 C 0.50657 0.23733 0.02299 0.0
C3503 C 0.50088 0.25441 0.06428 0.0
C3504 C 0.52307 0.30703 0.0817 0.0
H3505 H 0.51104 0.36416 0.19741 0.0
H3506 H 0.51059 0.33016 0.16737 0.0
H3507 H 0.53405 0.33539 0.10047 0.0
H3508 H 0.5201 0.25938 0.00081 0.0
H3509 H 0.52188 0.292 0.03187 0.0
H3510 H 0.49114 0.29154 0.09545 0.0
C3511 C 0.51321 0.34822 0.16059 0.0
C3512 C 0.52468 0.32579 0.09953 0.0
C3513 C 0.51356 0.36772 0.17778 0.0
C3514 C 0.51464 0.25774 0.01844 0.0
C3515 C 0.51578 0.27636 0.03647 0.0
C3516 C 0.50067 0.30049 0.09654 0.0
C3517 C 0.51592 0.35209 0.13479 0.0
C3518 C 0.51438 0.33186 0.11623 0.0
C3519 C 0.50914 0.27481 0.05992 0.0
C3520 C 0.51097 0.29427 0.07966 0.0
H3521 H 0.52169 0.4135 0.13674 0.0
H3522 H 0.5216 0.37909 0.10682 0.0
H3523 H 0.49425 0.32342 0.12729 0.0
H3524 H 0.49327 0.22038 0.04996 0.0
H3525 H 0.49572 0.25224 0.08213 0.0
C3526 C 0.2678 0.49247 0.01449 0.0
C3527 C 0.26316 0.51596 0.02033 0.0
C3528 C 0.26644 0.47352 0.03205 0.0
C3529 C 0.24722 0.45645 0.08956 0.0
H3530 H 0.27356 0.40502 0.09433 0.0
C3531 C 0.24912 0.38479 0.17018 0.0
C3532 C 0.25221 0.36055 0.1634 0.0
C3533 C 0.24945 0.40339 0.15209 0.0
C3534 C 0.26605 0.41911 0.09298 0.0
H3535 H 0.25386 0.53865 0.04886 0.0
H3536 H 0.25208 0.50592 0.08024 0.0
H3537 H 0.27705 0.43884 0.06509 0.0
H3538 H 0.25737 0.33659 0.13202 0.0
H3539 H 0.258 0.36921 0.10041 0.0
H3540 H 0.23644 0.43689 0.11809 0.0
C3541 C 0.25637 0.50174 0.0619 0.0
C3542 C 0.26803 0.43852 0.07621 0.0
C3543 C 0.25751 0.52055 0.04413 0.0
C3544 C 0.25502 0.3551 0.13789 0.0
C3545 C 0.25547 0.37377 0.11982 0.0
C3546 C 0.24532 0.43717 0.10656 0.0
C3547 C 0.2606 0.47785 0.05593 0.0
C3548 C 0.25863 0.45742 0.07421 0.0
C3549 C 0.25295 0.39816 0.12687 0.0
C3550 C 0.25469 0.41827 0.10836 0.0
H3551 H 0.27203 0.48855 0.99604 0.0
H3552 H 0.26962 0.45533 0.02656 0.0
H3553 H 0.23963 0.47039 0.08823 0.0
H3554 H 0.2468 0.38954 0.18966 0.0
H3555 H 0.2475 0.42203 0.15807 0.0
C3556 C 0.50698 0.3548 0.60387 0.0
C3557 C 0.51596 0.35699 0.58364 0.0
C3558 C 0.50591 0.3735 0.62196 0.0
C3559 C 0.52362 0.42364 0.65176 0.0
H3560 H 0.48932 0.45439 0.66067 0.0
C3561 C 0.51802 0.51274 0.70906 0.0
C3562 C 0.50627 0.51668 0.72264 0.0
C3563 C 0.51915 0.49289 0.69252 0.0
C3564 C 0.49893 0.44577 0.65887 0.0
H3565 H 0.53119 0.37976 0.5669 0.0
H3566 H 0.52966 0.41194 0.59905 0.0
H3567 H 0.49156 0.41937 0.63225 0.0
H3568 H 0.48659 0.50293 0.73023 0.0
H3569 H 0.48878 0.46729 0.70258 0.0
H3570 H 0.53102 0.44928 0.6788 0.0
C3571 C 0.52334 0.39601 0.6007 0.0
C3572 C 0.50019 0.42577 0.64248 0.0
C3573 C 0.52419 0.37765 0.58234 0.0
C3574 C 0.49573 0.50025 0.71981 0.0
C3575 C 0.49697 0.47999 0.70377 0.0
C3576 C 0.52233 0.44329 0.66855 0.0
C3577 C 0.51403 0.39431 0.62038 0.0
C3578 C 0.51257 0.41466 0.63869 0.0
C3579 C 0.50868 0.47611 0.68973 0.0
C3580 C 0.50998 0.45478 0.67222 0.0
H3581 H 0.50043 0.33917 0.60512 0.0
H3582 H 0.49869 0.37182 0.63707 0.0
H3583 H 0.53326 0.41527 0.64918 0.0
H3584 H 0.52622 0.52542 0.71062 0.0
H3585 H 0.52819 0.491 0.68162 0.0
C3586 C 0.25052 0.24833 0.72197 0.0
C3587 C 0.26238 0.23529 0.72523 0.0
C3588 C 0.24936 0.26571 0.70279 0.0
C3589 C 0.26983 0.3052 0.66224 0.0
H3590 H 0.23717 0.3142 0.62465 0.0
C3591 C 0.26583 0.36567 0.57395 0.0
C3592 C 0.25625 0.38419 0.57538 0.0
C3593 C 0.26605 0.34708 0.59193 0.0
C3594 C 0.24629 0.31189 0.6352 0.0
H3595 H 0.28225 0.22973 0.71059 0.0
H3596 H 0.28016 0.25981 0.67678 0.0
H3597 H 0.23879 0.28127 0.65597 0.0
H3598 H 0.23914 0.39776 0.59583 0.0
H3599 H 0.23925 0.36441 0.62718 0.0
H3600 H 0.27739 0.33545 0.64102 0.0
C3601 C 0.27183 0.25698 0.68941 0.0
C3602 C 0.24723 0.29315 0.65309 0.0
C3603 C 0.27303 0.23972 0.70875 0.0
C3604 C 0.24668 0.38368 0.59467 0.0
C3605 C 0.24669 0.36465 0.61235 0.0
C3606 C 0.26893 0.32367 0.64418 0.0
C3607 C 0.26003 0.27033 0.68639 0.0
C3608 C 0.25902 0.28966 0.66684 0.0
C3609 C 0.2565 0.34644 0.61123 0.0
C3610 C 0.25717 0.32716 0.63059 0.0
H3611 H 0.24214 0.24533 0.73444 0.0
H3612 H 0.24019 0.27589 0.70119 0.0
H3613 H 0.27894 0.30335 0.67287 0.0
H3614 H 0.27331 0.36583 0.55919 0.0
H3615 H 0.27366 0.33315 0.59074 0.0
C3616 C 0.18486 0.32136 0.14847 0.0
C3617 C 0.18359 0.32097 0.1749 0.0
C3618 C 0.175 0.31105 0.13327 0.0
C3619 C 0.14161 0.28013 0.13571 0.0
H3620 H 0.13382 0.32823 0.08384 0.0
C3621 C 0.09187 0.32134 0.09722 0.0
C3622 C 0.09081 0.32057 0.07073 0.0
C3623 C 0.10287 0.31089 0.10913 0.0
C3624 C 0.13598 0.31441 0.09798 0.0
H3625 H 0.17191 0.30776 0.20641 0.0
H3626 H 0.15452 0.29052 0.18023 0.0
H3627 H 0.15512 0.32903 0.10476 0.0
H3628 H 0.09962 0.30716 0.03594 0.0
H3629 H 0.11903 0.28953 0.05671 0.0
H3630 H 0.1217 0.2672 0.12999 0.0
C3631 C 0.16314 0.29807 0.17086 0.0
C3632 C 0.14826 0.31464 0.10986 0.0
C3633 C 0.17313 0.30792 0.18598 0.0
C3634 C 0.10017 0.30744 0.05647 0.0
C3635 C 0.11124 0.29743 0.06829 0.0
C3636 C 0.12914 0.28026 0.12408 0.0
C3637 C 0.16353 0.30094 0.14436 0.0
C3638 C 0.15123 0.29773 0.12915 0.0
C3639 C 0.11294 0.3001 0.09452 0.0
C3640 C 0.12628 0.29757 0.10532 0.0
H3641 H 0.19279 0.33159 0.1396 0.0
H3642 H 0.17585 0.31286 0.11289 0.0
H3643 H 0.14356 0.2667 0.15031 0.0
H3644 H 0.08485 0.33183 0.10838 0.0
H3645 H 0.10414 0.31344 0.12937 0.0
C3646 C 0.08383 0.93077 0.14957 0.0
C3647 C 0.08505 0.93193 0.17603 0.0
C3648 C 0.09398 0.93966 0.13397 0.0
C3649 C 0.12814 0.9685 0.13548 0.0
H3650 H 0.13446 0.92116 0.08197 0.0
C3651 C 0.17814 0.93007 0.09487 0.0
C3652 C 0.17884 0.9286 0.06831 0.0
C3653 C 0.16689 0.94 0.10668 0.0
C3654 C 0.13275 0.93478 0.09659 0.0
H3655 H 0.09704 0.94553 0.20689 0.0
H3656 H 0.11478 0.9605 0.18015 0.0
H3657 H 0.11342 0.92115 0.10401 0.0
H3658 H 0.16892 0.93787 0.03327 0.0
H3659 H 0.14924 0.95483 0.05383 0.0
H3660 H 0.14818 0.98045 0.12903 0.0
C3661 C 0.10604 0.95322 0.171 0.0
C3662 C 0.12059 0.93498 0.10917 0.0
C3663 C 0.09577 0.94479 0.18649 0.0
C3664 C 0.16875 0.93936 0.05377 0.0
C3665 C 0.15743 0.94881 0.06551 0.0
C3666 C 0.14048 0.96787 0.12319 0.0
C3667 C 0.1057 0.94933 0.14459 0.0
C3668 C 0.11808 0.95167 0.12904 0.0
C3669 C 0.15614 0.9481 0.09201 0.0
C3670 C 0.14288 0.95089 0.10374 0.0
H3671 H 0.07576 0.92065 0.14103 0.0
H3672 H 0.09306 0.93718 0.11367 0.0
H3673 H 0.12662 0.98186 0.15038 0.0
H3674 H 0.18562 0.9213 0.10644 0.0
H3675 H 0.16605 0.93905 0.12714 0.0
C3676 C 0.92985 0.68847 0.89835 0.0
C3677 C 0.93119 0.68789 0.9248 0.0
C3678 C 0.9186 0.69903 0.88746 0.0
C3679 C 0.88615 0.69122 0.90001 0.0
H3680 H 0.87614 0.73919 0.84951 0.0
C3681 C 0.83746 0.67883 0.84838 0.0
C3682 C 0.83849 0.68151 0.82207 0.0
C3683 C 0.84711 0.68899 0.8642 0.0
C3684 C 0.87877 0.72564 0.86359 0.0
H3685 H 0.92276 0.69969 0.96054 0.0
H3686 H 0.90295 0.7176 0.94153 0.0
H3687 H 0.89799 0.74161 0.86958 0.0
H3688 H 0.84964 0.69783 0.79145 0.0
H3689 H 0.86669 0.71477 0.81863 0.0
H3690 H 0.86781 0.67362 0.89269 0.0
C3691 C 0.91068 0.71057 0.92923 0.0
C3692 C 0.89121 0.72723 0.87514 0.0
C3693 C 0.92202 0.70046 0.94005 0.0
C3694 C 0.84864 0.6959 0.81183 0.0
C3695 C 0.85839 0.70566 0.82751 0.0
C3696 C 0.87391 0.68928 0.88814 0.0
C3697 C 0.90858 0.70864 0.90303 0.0
C3698 C 0.89499 0.70982 0.89318 0.0
C3699 C 0.85811 0.70133 0.85381 0.0
C3700 C 0.87012 0.70617 0.86938 0.0
H3701 H 0.93667 0.67839 0.88638 0.0
H3702 H 0.91703 0.69706 0.86723 0.0
H3703 H 0.88904 0.67732 0.91357 0.0
H3704 H 0.82973 0.66756 0.85653 0.0
H3705 H 0.84636 0.68584 0.88443 0.0
C3706 C 0.92071 0.05019 0.80066 0.0
C3707 C 0.93005 0.06346 0.8147 0.0
C3708 C 0.90993 0.03952 0.8128 0.0
C3709 C 0.89326 0.02085 0.86961 0.0
H3710 H 0.86592 0.06762 0.85167 0.0
C3711 C 0.85149 0.05002 0.93505 0.0
C3712 C 0.84038 0.06158 0.92465 0.0
C3713 C 0.86091 0.0394 0.91921 0.0
C3714 C 0.87318 0.05375 0.85634 0.0
H3715 H 0.93627 0.0745 0.85225 0.0
H3716 H 0.9175 0.05494 0.87382 0.0
H3717 H 0.88685 0.06804 0.8292 0.0
H3718 H 0.82933 0.06868 0.89036 0.0
H3719 H 0.84557 0.04917 0.86244 0.0
H3720 H 0.87967 0.00684 0.89719 0.0
C3721 C 0.91858 0.05275 0.85348 0.0
C3722 C 0.88523 0.05421 0.84359 0.0
C3723 C 0.92928 0.06387 0.84125 0.0
C3724 C 0.83787 0.05972 0.89863 0.0
C3725 C 0.84725 0.04885 0.88273 0.0
C3726 C 0.88105 0.02005 0.88214 0.0
C3727 C 0.90852 0.04169 0.83914 0.0
C3728 C 0.89541 0.03817 0.85052 0.0
C3729 C 0.8593 0.04019 0.89274 0.0
C3730 C 0.87101 0.03698 0.87611 0.0
H3731 H 0.92102 0.05024 0.7801 0.0
H3732 H 0.90213 0.03143 0.80147 0.0
H3733 H 0.90109 0.00843 0.87519 0.0
H3734 H 0.85354 0.05143 0.95518 0.0
H3735 H 0.87004 0.03299 0.92767 0.0
C3736 C 0.17741 0.82246 0.64038 0.0
C3737 C 0.17617 0.82011 0.66668 0.0
C3738 C 0.16773 0.81259 0.62446 0.0
C3739 C 0.13506 0.7789 0.62499 0.0
H3740 H 0.12607 0.82897 0.57594 0.0
C3741 C 0.08483 0.82156 0.59112 0.0
C3742 C 0.08327 0.82184 0.56468 0.0
C3743 C 0.09591 0.81029 0.60193 0.0
C3744 C 0.12858 0.81459 0.58925 0.0
H3745 H 0.16482 0.80411 0.6972 0.0
H3746 H 0.14768 0.78773 0.66987 0.0
H3747 H 0.14751 0.83001 0.59636 0.0
H3748 H 0.0913 0.80907 0.52896 0.0
H3749 H 0.11081 0.7899 0.54782 0.0
H3750 H 0.11532 0.76518 0.61923 0.0
C3751 C 0.15612 0.79646 0.66105 0.0
C3752 C 0.14094 0.81498 0.60084 0.0
C3753 C 0.16592 0.80592 0.67683 0.0
C3754 C 0.09212 0.80847 0.54945 0.0
C3755 C 0.10332 0.79768 0.56017 0.0
C3756 C 0.12251 0.77888 0.61373 0.0
C3757 C 0.15649 0.80092 0.63477 0.0
C3758 C 0.1443 0.79744 0.61927 0.0
C3759 C 0.10561 0.79965 0.58631 0.0
C3760 C 0.11918 0.79695 0.59604 0.0
H3761 H 0.18527 0.83346 0.63231 0.0
H3762 H 0.16858 0.81567 0.60424 0.0
H3763 H 0.13733 0.7649 0.63882 0.0
H3764 H 0.07831 0.83231 0.60311 0.0
H3765 H 0.09764 0.81234 0.62211 0.0
C3766 C 0.17435 0.44519 0.55956 0.0
C3767 C 0.18432 0.43043 0.56996 0.0
C3768 C 0.16445 0.45497 0.57504 0.0
C3769 C 0.1484 0.43675 0.63474 0.0
H3770 H 0.12365 0.48819 0.61663 0.0
C3771 C 0.10011 0.44911 0.68798 0.0
C3772 C 0.09033 0.43761 0.67335 0.0
C3773 C 0.1117 0.45754 0.67657 0.0
C3774 C 0.13058 0.47397 0.62197 0.0
H3775 H 0.19277 0.41651 0.60468 0.0
H3776 H 0.17603 0.43504 0.63217 0.0
H3777 H 0.14563 0.48705 0.5968 0.0
H3778 H 0.08433 0.42752 0.63539 0.0
H3779 H 0.1045 0.44329 0.61512 0.0
H3780 H 0.13332 0.42376 0.65984 0.0
C3781 C 0.17546 0.43828 0.61194 0.0
C3782 C 0.14312 0.47316 0.6106 0.0
C3783 C 0.18523 0.42808 0.59634 0.0
C3784 C 0.09163 0.43691 0.64686 0.0
C3785 C 0.10315 0.44579 0.63536 0.0
C3786 C 0.13605 0.43789 0.6464 0.0
C3787 C 0.16443 0.45033 0.60129 0.0
C3788 C 0.1521 0.45416 0.61639 0.0
C3789 C 0.11351 0.45496 0.65034 0.0
C3790 C 0.12698 0.45618 0.63976 0.0
H3791 H 0.17339 0.44689 0.53916 0.0
H3792 H 0.15618 0.46402 0.56596 0.0
H3793 H 0.15474 0.42138 0.63925 0.0
H3794 H 0.09942 0.44918 0.7085 0.0
H3795 H 0.11968 0.46417 0.68843 0.0
C3796 C 0.84945 0.19845 0.3099 0.0
C3797 C 0.84007 0.18536 0.32408 0.0
C3798 C 0.86095 0.20707 0.32143 0.0
C3799 C 0.88017 0.22289 0.375 0.0
H3800 H 0.90473 0.17114 0.3568 0.0
C3801 C 0.92476 0.19557 0.43557 0.0
C3802 C 0.9347 0.18099 0.42468 0.0
C3803 C 0.91468 0.20523 0.42053 0.0
C3804 C 0.89827 0.18628 0.36156 0.0
H3805 H 0.8347 0.17246 0.36145 0.0
H3806 H 0.85473 0.18849 0.38199 0.0
H3807 H 0.88307 0.17254 0.33717 0.0
H3808 H 0.94294 0.16742 0.38954 0.0
H3809 H 0.92592 0.18586 0.36282 0.0
H3810 H 0.89532 0.2367 0.3995 0.0
C3811 C 0.85311 0.1921 0.36203 0.0
C3812 C 0.88578 0.18684 0.35047 0.0
C3813 C 0.84168 0.18304 0.35038 0.0
C3814 C 0.93544 0.17888 0.39825 0.0
C3815 C 0.9255 0.18901 0.38309 0.0
C3816 C 0.89283 0.22264 0.38583 0.0
C3817 C 0.86307 0.20308 0.34735 0.0
C3818 C 0.87658 0.20481 0.35747 0.0
C3819 C 0.91447 0.20068 0.39425 0.0
C3820 C 0.90195 0.20397 0.37968 0.0
H3821 H 0.84852 0.19979 0.28947 0.0
H3822 H 0.86866 0.21505 0.30976 0.0
H3823 H 0.87313 0.23688 0.38057 0.0
H3824 H 0.92392 0.19702 0.45602 0.0
H3825 H 0.90642 0.214 0.42997 0.0
C3826 C 0.92877 0.57403 0.3442 0.0
C3827 C 0.9298 0.57414 0.31766 0.0
C3828 C 0.91768 0.5636 0.35591 0.0
C3829 C 0.88434 0.56798 0.34552 0.0
H3830 H 0.87711 0.51906 0.39678 0.0
C3831 C 0.8353 0.57219 0.39819 0.0
C3832 C 0.83654 0.57005 0.42455 0.0
C3833 C 0.84541 0.56369 0.38226 0.0
C3834 C 0.87895 0.53289 0.38255 0.0
H3835 H 0.92079 0.56197 0.28264 0.0
H3836 H 0.9013 0.54423 0.30307 0.0
H3837 H 0.8988 0.51998 0.3759 0.0
H3838 H 0.84857 0.55576 0.455 0.0
H3839 H 0.86627 0.54143 0.42765 0.0
H3840 H 0.86521 0.58251 0.35329 0.0
C3841 C 0.90916 0.55158 0.31481 0.0
C3842 C 0.89134 0.53323 0.37054 0.0
C3843 C 0.92034 0.56153 0.30317 0.0
C3844 C 0.84735 0.55725 0.43463 0.0
C3845 C 0.85753 0.54907 0.41884 0.0
C3846 C 0.87212 0.56802 0.35784 0.0
C3847 C 0.90746 0.55363 0.34112 0.0
C3848 C 0.89412 0.55095 0.35213 0.0
C3849 C 0.85705 0.55339 0.39254 0.0
C3850 C 0.86928 0.55071 0.37684 0.0
H3851 H 0.93578 0.58419 0.35563 0.0
H3852 H 0.91645 0.56563 0.37623 0.0
H3853 H 0.8864 0.58208 0.33162 0.0
H3854 H 0.82711 0.58233 0.39007 0.0
H3855 H 0.84449 0.56671 0.36205 0.0
C3856 C 0.58557 0.31667 0.59556 0.0
C3857 C 0.58664 0.31346 0.5693 0.0
C3858 C 0.59545 0.30764 0.61154 0.0
C3859 C 0.62819 0.2744 0.61158 0.0
H3860 H 0.63713 0.32575 0.6594 0.0
C3861 C 0.67874 0.31511 0.64747 0.0
C3862 C 0.68002 0.31427 0.67392 0.0
C3863 C 0.66746 0.30538 0.6359 0.0
C3864 C 0.63464 0.3111 0.64635 0.0
H3865 H 0.59808 0.29716 0.539 0.0
H3866 H 0.61555 0.2822 0.56644 0.0
H3867 H 0.61576 0.32652 0.63858 0.0
H3868 H 0.67121 0.30171 0.70899 0.0
H3869 H 0.65132 0.28528 0.68878 0.0
H3870 H 0.64782 0.26046 0.61819 0.0
C3871 C 0.60703 0.29084 0.57517 0.0
C3872 C 0.62233 0.31132 0.63458 0.0
C3873 C 0.59702 0.2994 0.55934 0.0
C3874 C 0.67051 0.30192 0.68847 0.0
C3875 C 0.65916 0.29263 0.67699 0.0
C3876 C 0.64067 0.27451 0.62305 0.0
C3877 C 0.60674 0.29603 0.60132 0.0
C3878 C 0.61897 0.29319 0.61672 0.0
C3879 C 0.65734 0.29523 0.65081 0.0
C3880 C 0.64396 0.29304 0.64027 0.0
H3881 H 0.57768 0.32776 0.60349 0.0
H3882 H 0.5947 0.31135 0.63167 0.0
H3883 H 0.62591 0.25999 0.59816 0.0
H3884 H 0.68584 0.32511 0.6361 0.0
H3885 H 0.66606 0.30791 0.61569 0.0
C3886 C 0.5846 0.92646 0.6479 0.0
C3887 C 0.58582 0.92714 0.67435 0.0
C3888 C 0.59461 0.93617 0.63253 0.0
C3889 C 0.62841 0.96614 0.63469 0.0
H3890 H 0.63541 0.91908 0.58121 0.0
C3891 C 0.6782 0.92627 0.59432 0.0
C3892 C 0.67907 0.92616 0.56774 0.0
C3893 C 0.66714 0.93656 0.60637 0.0
C3894 C 0.63349 0.93262 0.59582 0.0
H3895 H 0.59762 0.94055 0.70558 0.0
H3896 H 0.61517 0.95685 0.67919 0.0
H3897 H 0.61425 0.91843 0.60281 0.0
H3898 H 0.66973 0.9382 0.53302 0.0
H3899 H 0.65032 0.95572 0.55402 0.0
H3900 H 0.6484 0.97862 0.62869 0.0
C3901 C 0.60652 0.9494 0.66989 0.0
C3902 C 0.62127 0.93247 0.60813 0.0
C3903 C 0.59638 0.94016 0.68516 0.0
C3904 C 0.66943 0.93864 0.55357 0.0
C3905 C 0.65828 0.94846 0.56554 0.0
C3906 C 0.64082 0.96589 0.62265 0.0
C3907 C 0.60619 0.94609 0.6434 0.0
C3908 C 0.61855 0.94902 0.628 0.0
C3909 C 0.65675 0.94639 0.5919 0.0
C3910 C 0.64344 0.94898 0.60325 0.0
H3911 H 0.57663 0.91624 0.63914 0.0
H3912 H 0.59372 0.93409 0.61217 0.0
H3913 H 0.6267 0.97937 0.64963 0.0
H3914 H 0.68534 0.91621 0.60554 0.0
H3915 H 0.66607 0.93452 0.62671 0.0
C3916 C 0.42706 0.68491 0.39818 0.0
C3917 C 0.42779 0.68467 0.42472 0.0
C3918 C 0.41594 0.69485 0.38622 0.0
C3919 C 0.38243 0.68936 0.39616 0.0
H3920 H 0.37579 0.73603 0.34239 0.0
C3921 C 0.33484 0.68131 0.33985 0.0
C3922 C 0.33692 0.68173 0.31359 0.0
C3923 C 0.34438 0.69104 0.35621 0.0
C3924 C 0.37748 0.72288 0.35738 0.0
H3925 H 0.41822 0.69584 0.45963 0.0
H3926 H 0.39863 0.71263 0.43874 0.0
H3927 H 0.39708 0.73653 0.36466 0.0
H3928 H 0.34982 0.69418 0.28352 0.0
H3929 H 0.36654 0.71069 0.3117 0.0
H3930 H 0.36359 0.67403 0.38776 0.0
C3931 C 0.40673 0.70583 0.4272 0.0
C3932 C 0.38961 0.72333 0.37014 0.0
C3933 C 0.41792 0.69636 0.43908 0.0
C3934 C 0.348 0.69394 0.30378 0.0
C3935 C 0.35757 0.70344 0.32004 0.0
C3936 C 0.37047 0.68853 0.38311 0.0
C3937 C 0.4054 0.70409 0.40081 0.0
C3938 C 0.39219 0.70634 0.38935 0.0
C3939 C 0.35623 0.70096 0.34647 0.0
C3940 C 0.36791 0.70495 0.36317 0.0
H3941 H 0.43446 0.6755 0.3869 0.0
H3942 H 0.41498 0.69306 0.36583 0.0
H3943 H 0.38436 0.6758 0.41068 0.0
H3944 H 0.32641 0.6717 0.34776 0.0
H3945 H 0.34286 0.68933 0.37647 0.0
C3946 C 0.42646 0.05745 0.30739 0.0
C3947 C 0.43539 0.07034 0.32287 0.0
C3948 C 0.41495 0.04738 0.31775 0.0
C3949 C 0.39598 0.02946 0.37288 0.0
H3950 H 0.36961 0.07671 0.35148 0.0
C3951 C 0.352 0.0566 0.43487 0.0
C3952 C 0.34116 0.0688 0.42418 0.0
C3953 C 0.36211 0.04752 0.41946 0.0
C3954 C 0.37659 0.06273 0.35719 0.0
H3955 H 0.44015 0.08029 0.3615 0.0
H3956 H 0.42044 0.06111 0.37992 0.0
H3957 H 0.39105 0.07574 0.33073 0.0
H3958 H 0.33161 0.07915 0.38915 0.0
H3959 H 0.34889 0.06197 0.36186 0.0
H3960 H 0.3816 0.01637 0.39939 0.0
C3961 C 0.42225 0.05922 0.35974 0.0
C3962 C 0.38895 0.06236 0.34535 0.0
C3963 C 0.4336 0.06993 0.34929 0.0
C3964 C 0.33983 0.06951 0.39774 0.0
C3965 C 0.34988 0.06009 0.38221 0.0
C3966 C 0.38347 0.02938 0.38436 0.0
C3967 C 0.41247 0.04931 0.34384 0.0
C3968 C 0.39886 0.04622 0.35358 0.0
C3969 C 0.36154 0.05031 0.39293 0.0
C3970 C 0.37374 0.04664 0.37732 0.0
H3971 H 0.42743 0.05811 0.28692 0.0
H3972 H 0.40748 0.04002 0.30515 0.0
H3973 H 0.40351 0.01687 0.37949 0.0
H3974 H 0.35327 0.05622 0.45528 0.0
H3975 H 0.37087 0.04037 0.42866 0.0
C3976 C 0.6666 0.8008 0.17973 0.0
C3977 C 0.67715 0.81306 0.16812 0.0
C3978 C 0.65594 0.79251 0.1653 0.0
C3979 C 0.63972 0.80967 0.10516 0.0
H3980 H 0.61334 0.76337 0.1287 0.0
C3981 C 0.58905 0.80412 0.05886 0.0
C3982 C 0.5806 0.81787 0.07461 0.0
C3983 C 0.60063 0.79384 0.06864 0.0
C3984 C 0.62071 0.77609 0.12176 0.0
H3985 H 0.68557 0.82456 0.1324 0.0
H3986 H 0.6674 0.80853 0.10671 0.0
H3987 H 0.63568 0.76235 0.14662 0.0
H3988 H 0.57677 0.82933 0.11319 0.0
H3989 H 0.59663 0.80987 0.13068 0.0
H3990 H 0.62468 0.82328 0.08033 0.0
C3991 C 0.66702 0.80606 0.12707 0.0
C3992 C 0.63348 0.77572 0.13211 0.0
C3993 C 0.67758 0.81481 0.14164 0.0
C3994 C 0.58294 0.81827 0.10084 0.0
C3995 C 0.59436 0.80739 0.11075 0.0
C3996 C 0.62711 0.80959 0.09444 0.0
C3997 C 0.65569 0.79612 0.13886 0.0
C3998 C 0.64304 0.79306 0.12456 0.0
C3999 C 0.60366 0.79647 0.09444 0.0
C4000 C 0.61742 0.79326 0.10312 0.0
H4001 H 0.666 0.79976 0.20023 0.0
H4002 H 0.64744 0.78527 0.1753 0.0
H4003 H 0.64656 0.82375 0.09916 0.0
H4004 H 0.58767 0.80419 0.03847 0.0
H4005 H 0.60777 0.78577 0.05573 0.0
C4006 C 0.66557 0.45068 0.06003 0.0
C4007 C 0.67642 0.43769 0.06967 0.0
C4008 C 0.65538 0.45824 0.07607 0.0
C4009 C 0.64068 0.43757 0.13638 0.0
H4010 H 0.61385 0.48529 0.11817 0.0
C4011 C 0.59074 0.44089 0.18663 0.0
C4012 C 0.5821 0.42765 0.17085 0.0
C4013 C 0.60215 0.4516 0.17661 0.0
C4014 C 0.62135 0.47215 0.12364 0.0
H4015 H 0.68591 0.42457 0.10379 0.0
H4016 H 0.66844 0.43902 0.13228 0.0
H4017 H 0.63583 0.4875 0.0987 0.0
H4018 H 0.57772 0.41771 0.13206 0.0
H4019 H 0.59727 0.438 0.11423 0.0
H4020 H 0.62611 0.42234 0.16131 0.0
C4021 C 0.66752 0.44266 0.11218 0.0
C4022 C 0.63391 0.47321 0.1124 0.0
C4023 C 0.67768 0.43482 0.09598 0.0
C4024 C 0.58405 0.4283 0.14449 0.0
C4025 C 0.5953 0.43965 0.13437 0.0
C4026 C 0.62827 0.43691 0.14801 0.0
C4027 C 0.65587 0.45317 0.10223 0.0
C4028 C 0.6436 0.45539 0.11792 0.0
C4029 C 0.60481 0.44997 0.15058 0.0
C4030 C 0.61841 0.45375 0.14119 0.0
H4031 H 0.66436 0.45282 0.03972 0.0
H4032 H 0.64662 0.46602 0.06745 0.0
H4033 H 0.64765 0.42316 0.14084 0.0
H4034 H 0.58965 0.44007 0.20707 0.0
H4035 H 0.60945 0.45924 0.18943 0.0
C4036 C 0.42219 0.19054 0.94197 0.0
C4037 C 0.43159 0.17804 0.92719 0.0
C4038 C 0.41113 0.2011 0.93056 0.0
C4039 C 0.39406 0.223 0.87609 0.0
H4040 H 0.36683 0.17473 0.88958 0.0
C4041 C 0.35065 0.20441 0.80961 0.0
C4042 C 0.33951 0.19202 0.81889 0.0
C4043 C 0.36069 0.2116 0.8261 0.0
C4044 C 0.37408 0.18892 0.88616 0.0
H4045 H 0.43752 0.16825 0.88908 0.0
H4046 H 0.41833 0.18779 0.86885 0.0
H4047 H 0.38791 0.17213 0.91147 0.0
H4048 H 0.32923 0.18011 0.85272 0.0
H4049 H 0.34647 0.19381 0.88184 0.0
H4050 H 0.38031 0.23982 0.85064 0.0
C4051 C 0.41956 0.18936 0.8892 0.0
C4052 C 0.38621 0.18722 0.89855 0.0
C4053 C 0.43053 0.17834 0.90068 0.0
C4054 C 0.33772 0.18978 0.84516 0.0
C4055 C 0.34772 0.19721 0.86175 0.0
C4056 C 0.38179 0.22504 0.86399 0.0
C4057 C 0.40951 0.19969 0.90422 0.0
C4058 C 0.39635 0.20391 0.8932 0.0
C4059 C 0.3597 0.20672 0.85222 0.0
C4060 C 0.37176 0.20763 0.86837 0.0
H4061 H 0.42269 0.18992 0.9625 0.0
H4062 H 0.40336 0.20867 0.94242 0.0
H4063 H 0.40183 0.23601 0.87177 0.0
H4064 H 0.3522 0.20626 0.78936 0.0
H4065 H 0.36972 0.21879 0.81794 0.0
C4066 C 0.33956 0.5732 0.89748 0.0
C4067 C 0.3385 0.57328 0.924 0.0
C4068 C 0.35067 0.56274 0.8858 0.0
C4069 C 0.38407 0.56648 0.89731 0.0
H4070 H 0.39126 0.5192 0.84416 0.0
C4071 C 0.43315 0.57233 0.84667 0.0
C4072 C 0.43196 0.572 0.82023 0.0
C4073 C 0.42312 0.56241 0.86177 0.0
C4074 C 0.38942 0.53253 0.85897 0.0
H4075 H 0.34748 0.56126 0.95909 0.0
H4076 H 0.36701 0.54351 0.93872 0.0
H4077 H 0.36941 0.52011 0.86455 0.0
H4078 H 0.42023 0.5592 0.78861 0.0
H4079 H 0.40259 0.54258 0.81461 0.0
H4080 H 0.40334 0.58063 0.89067 0.0
C4081 C 0.35917 0.55085 0.92696 0.0
C4082 C 0.37695 0.53289 0.87066 0.0
C4083 C 0.348 0.56088 0.93855 0.0
C4084 C 0.42139 0.55931 0.80905 0.0
C4085 C 0.41125 0.54983 0.82407 0.0
C4086 C 0.39636 0.56651 0.88535 0.0
C4087 C 0.36086 0.55277 0.90065 0.0
C4088 C 0.37421 0.55002 0.88975 0.0
C4089 C 0.41157 0.55269 0.8506 0.0
C4090 C 0.3992 0.54975 0.86577 0.0
H4091 H 0.33248 0.58317 0.88605 0.0
H4092 H 0.35191 0.5647 0.86549 0.0
H4093 H 0.38204 0.58019 0.91169 0.0
H4094 H 0.44115 0.58229 0.85562 0.0
H4095 H 0.42394 0.56418 0.88217 0.0
C4096 C 0.02182 0.39508 0.99251 0.0
C4097 C 0.01207 0.38546 0.97641 0.0
C4098 C 0.02079 0.41909 0.00178 0.0
C4099 C 1.00497 0.47704 0.98199 0.0
H4100 H 0.01942 0.50306 0.0446 0.0
C4101 C 0.998 0.57715 0.01045 0.0
C4102 C 0.00987 0.59036 0.01267 0.0
C4103 C 0.99812 0.55164 0.01015 0.0
C4104 C 0.0154 0.49593 0.02704 0.0
H4105 H 0.99289 0.39253 0.95959 0.0
H4106 H 0.99079 0.43377 0.9764 0.0
H4107 H 0.01899 0.45858 0.03761 0.0
H4108 H 0.03107 0.58732 0.0178 0.0
H4109 H 0.0312 0.54228 0.01834 0.0
H4110 H 1.00122 0.51424 0.97159 0.0
C4111 C 0.99954 0.42328 0.98117 0.0
C4112 C 0.01516 0.47053 0.02299 0.0
C4113 C 1.00067 0.39949 0.97176 0.0
C4114 C 0.02179 0.57753 0.01612 0.0
C4115 C 0.02187 0.55186 0.01647 0.0
C4116 C 1.00505 0.50223 0.98619 0.0
C4117 C 0.00991 0.43389 0.99517 0.0
C4118 C 0.00989 0.46076 0.00041 0.0
C4119 C 0.01007 0.53876 0.01267 0.0
C4120 C 0.01023 0.51193 0.00872 0.0
H4121 H 0.03074 0.38497 0.99628 0.0
H4122 H 0.02895 0.42655 0.01259 0.0
H4123 H 1.00124 0.47039 0.96401 0.0
H4124 H 0.98866 0.58649 0.00741 0.0
H4125 H 0.9889 0.54192 0.00715 0.0
C4126 C 0.25642 0.65136 -0.00027 0.0
C4127 C 0.26667 0.64352 0.01574 0.0
C4128 C 0.25511 0.67622 0.99335 0.0
C4129 C 0.26428 0.73738 0.01961 0.0
H4130 H 0.24884 0.76156 0.95731 0.0
C4131 C 0.26063 0.8409 0.99219 0.0
C4132 C 0.24974 0.84813 0.97744 0.0
C4133 C 0.26219 0.8163 -0.00059 0.0
C4134 C 0.25299 0.75512 0.97501 0.0
H4135 H 0.28397 0.65526 0.03654 0.0
H4136 H 0.28218 0.69822 0.02445 0.0
H4137 H 0.25369 0.71809 0.96159 0.0
H4138 H 0.23159 0.83577 0.95999 0.0
H4139 H 0.23398 0.79323 0.97325 0.0
H4140 H 0.26369 0.77456 0.03287 0.0
C4141 C 0.2749 0.68546 0.01724 0.0
C4142 C 0.25582 0.73009 0.97743 0.0
C4143 C 0.27612 0.6607 0.02374 0.0
C4144 C 0.23993 0.83079 0.97183 0.0
C4145 C 0.24146 0.80629 0.97897 0.0
C4146 C 0.26151 0.76245 0.01713 0.0
C4147 C 0.26403 0.69382 0.00295 0.0
C4148 C 0.26149 0.72077 -0.00021 0.0
C4149 C 0.25293 0.79845 0.99174 0.0
C4150 C 0.25574 0.77167 0.99486 0.0
H4151 H 0.24876 0.63865 0.99395 0.0
H4152 H 0.24657 0.6818 0.98241 0.0
H4153 H 0.26838 0.73099 0.03738 0.0
H4154 H 0.26854 0.85373 0.99611 0.0
H4155 H 0.27115 0.811 0.00923 0.0
C4156 C 0.01295 0.65797 0.23956 0.0
C4157 C 1.00154 0.64965 0.22706 0.0
C4158 C 0.0142 0.68266 0.24658 0.0
C4159 C 1.00217 0.74289 0.22463 0.0
H4160 H 0.02053 0.76823 0.28353 0.0
C4161 C 1.00404 0.84635 0.25021 0.0
C4162 C 0.015 0.85532 0.26366 0.0
C4163 C 1.0032 0.82151 0.24361 0.0
C4164 C 0.01558 0.76149 0.2667 0.0
H4165 H 0.98224 0.66022 0.21325 0.0
H4166 H 0.98415 0.70306 0.22617 0.0
H4167 H 0.01651 0.72434 0.2798 0.0
H4168 H 0.03391 0.84554 0.27986 0.0
H4169 H 0.03278 0.80242 0.26754 0.0
H4170 H 1.00131 0.77991 0.21139 0.0
C4171 C 0.99224 0.69069 0.23034 0.0
C4172 C 0.01319 0.73625 0.26469 0.0
C4173 C 0.99101 0.66603 0.22341 0.0
C4174 C 0.02551 0.83928 0.26888 0.0
C4175 C 0.0247 0.81442 0.26231 0.0
C4176 C 1.0046 0.76809 0.22659 0.0
C4177 C 1.0041 0.69961 0.24091 0.0
C4178 C 1.00638 0.72659 0.24368 0.0
C4179 C 0.01326 0.80494 0.2506 0.0
C4180 C 0.01131 0.77783 0.24769 0.0
H4181 H 0.02137 0.64589 0.24189 0.0
H4182 H 0.02348 0.68878 0.25462 0.0
H4183 H 0.99719 0.73612 0.20785 0.0
H4184 H 0.9956 0.85812 0.2467 0.0
H4185 H 0.99419 0.81504 0.23474 0.0
C4186 C 0.27543 0.58605 0.22799 0.0
C4187 C 0.26431 0.60143 0.22931 0.0
C4188 C 0.27452 0.56138 0.23508 0.0
C4189 C 0.25288 0.5143 0.26564 0.0
H4190 H 0.26899 0.47106 0.21596 0.0
C4191 C 0.24303 0.41036 0.26893 0.0
C4192 C 0.25427 0.39537 0.26667 0.0
C4193 C 0.24355 0.43512 0.26193 0.0
C4194 C 0.26449 0.48279 0.23014 0.0
H4195 H 0.24372 0.60342 0.2403 0.0
H4196 H 0.24214 0.56063 0.25332 0.0
H4197 H 0.27222 0.51513 0.21268 0.0
H4198 H 0.27469 0.39425 0.25447 0.0
H4199 H 0.27562 0.43714 0.24183 0.0
H4200 H 0.24519 0.48196 0.28317 0.0
C4201 C 0.25164 0.56751 0.24701 0.0
C4202 C 0.26641 0.50815 0.22835 0.0
C4203 C 0.25257 0.59218 0.23985 0.0
C4204 C 0.26576 0.40519 0.25568 0.0
C4205 C 0.2663 0.42992 0.24865 0.0
C4206 C 0.25097 0.48892 0.26746 0.0
C4207 C 0.26241 0.55146 0.24348 0.0
C4208 C 0.26069 0.52431 0.24614 0.0
C4209 C 0.25539 0.44554 0.25276 0.0
C4210 C 0.25678 0.47274 0.24977 0.0
H4211 H 0.2845 0.59251 0.21931 0.0
H4212 H 0.28312 0.54975 0.23262 0.0
H4213 H 0.24838 0.52607 0.27978 0.0
H4214 H 0.23416 0.40345 0.278 0.0
H4215 H 0.23486 0.44638 0.26489 0.0
C4216 C 0.74534 0.34343 0.98711 0.0
C4217 C 0.75648 0.35587 0.97763 0.0
C4218 C 0.74581 0.31836 0.99141 0.0
C4219 C 0.76204 0.26213 0.97273 0.0
H4220 H 0.75069 0.23843 0.03871 0.0
C4221 C 0.77139 0.16438 0.0056 0.0
C4222 C 0.76049 0.15138 0.01522 0.0
C4223 C 0.77052 0.18937 0.00141 0.0
C4224 C 0.75371 0.24484 0.02014 0.0
H4225 H 0.77672 0.3518 0.96468 0.0
H4226 H 0.77734 0.30729 0.97118 0.0
H4227 H 0.75045 0.28241 0.02989 0.0
H4228 H 0.74026 0.15418 0.02848 0.0
H4229 H 0.73888 0.19872 0.022 0.0
H4230 H 0.76533 0.2246 0.963 0.0
C4231 C 0.76834 0.31724 0.97551 0.0
C4232 C 0.75363 0.26989 0.01513 0.0
C4233 C 0.76797 0.34256 0.97172 0.0
C4234 C 0.74879 0.16394 0.02126 0.0
C4235 C 0.74802 0.18925 0.01753 0.0
C4236 C 0.7621 0.23711 0.97774 0.0
C4237 C 0.75733 0.3051 0.98589 0.0
C4238 C 0.75779 0.27869 0.99138 0.0
C4239 C 0.75882 0.20198 0.00708 0.0
C4240 C 0.75799 0.22831 0.00151 0.0
H4241 H 0.73641 0.35318 0.99234 0.0
H4242 H 0.73718 0.30934 -0.00075 0.0
H4243 H 0.76511 0.26852 0.9542 0.0
H4244 H 0.78047 0.15512 0.00024 0.0
H4245 H 0.779 0.19883 0.99352 0.0
C4246 C 1.00826 0.33946 0.77779 0.0
C4247 C 1.00536 0.35388 0.75658 0.0
C4248 C 1.00816 0.31397 0.77571 0.0
C4249 C 0.015 0.26725 0.72867 0.0
H4250 H 0.99886 0.22221 0.77629 0.0
C4251 C 0.01071 0.1625 0.71384 0.0
C4252 C 0.01399 0.14813 0.73489 0.0
C4253 C 0.01046 0.18797 0.71603 0.0
C4254 C 1.00352 0.23466 0.76303 0.0
H4255 H 1.00005 0.35367 0.71678 0.0
H4256 H 1.00012 0.30914 0.71298 0.0
H4257 H 0.99556 0.26631 0.78168 0.0
H4258 H 0.01958 0.14852 0.77458 0.0
H4259 H 0.01887 0.193 0.77855 0.0
H4260 H 0.02297 0.23562 0.71003 0.0
C4261 C 1.00221 0.31737 0.73126 0.0
C4262 C 1.0016 0.25977 0.76609 0.0
C4263 C 1.00201 0.34273 0.7335 0.0
C4264 C 0.01734 0.15938 0.75794 0.0
C4265 C 0.01677 0.18472 0.76031 0.0
C4266 C 0.01691 0.24216 0.72561 0.0
C4267 C 1.00556 0.30281 0.75219 0.0
C4268 C 1.00732 0.27623 0.7489 0.0
C4269 C 0.01308 0.19916 0.73952 0.0
C4270 C 0.01121 0.2257 0.74279 0.0
H4271 H 0.01104 0.3479 0.79562 0.0
H4272 H 0.01081 0.30305 0.79207 0.0
H4273 H 0.01969 0.27967 0.71544 0.0
H4274 H 1.00792 0.15401 0.69605 0.0
H4275 H 1.00756 0.19882 0.69978 0.0
C4276 C 0.76503 0.58703 0.71552 0.0
C4277 C 0.75574 0.60155 0.72845 0.0
C4278 C 0.76466 0.56162 0.71767 0.0
C4279 C 0.75515 0.51678 0.765 0.0
H4280 H 0.76428 0.46939 0.71303 0.0
C4281 C 0.75301 0.41202 0.77778 0.0
C4282 C 0.76263 0.39792 0.76523 0.0
C4283 C 0.75293 0.43741 0.77527 0.0
C4284 C 0.76192 0.48251 0.72779 0.0
H4285 H 0.73802 0.60095 0.75176 0.0
H4286 H 0.73735 0.55648 0.75545 0.0
H4287 H 0.76065 0.51205 0.70129 0.0
H4288 H 0.78037 0.3993 0.74203 0.0
H4289 H 0.78024 0.44373 0.73769 0.0
H4290 H 0.75644 0.48723 0.79151 0.0
C4291 C 0.74503 0.56478 0.74397 0.0
C4292 C 0.75974 0.50684 0.72103 0.0
C4293 C 0.74534 0.5902 0.74162 0.0
C4294 C 0.77284 0.40973 0.75194 0.0
C4295 C 0.77268 0.43511 0.7492 0.0
C4296 C 0.75732 0.49244 0.77176 0.0
C4297 C 0.75503 0.55037 0.73294 0.0
C4298 C 0.75634 0.52421 0.73957 0.0
C4299 C 0.76241 0.44905 0.75997 0.0
C4300 C 0.76078 0.47511 0.75323 0.0
H4301 H 0.7731 0.59535 0.70508 0.0
H4302 H 0.77247 0.55097 0.7089 0.0
H4303 H 0.75283 0.5299 0.77979 0.0
H4304 H 0.74507 0.40333 0.78825 0.0
H4305 H 0.74492 0.44772 0.78384 0.0
C4306 C 0.99365 0.09159 0.526 0.0
C4307 C 1.00346 0.10802 0.51793 0.0
C4308 C 0.99421 0.06681 0.51912 0.0
C4309 C 0.01211 0.02117 0.47815 0.0
H4310 H 1.00324 0.97659 0.5328 0.0
C4311 C 0.02522 0.91934 0.46984 0.0
C4312 C 0.01484 0.90304 0.47494 0.0
C4313 C 0.02451 0.94375 0.47788 0.0
C4314 C 1.00571 0.98875 0.51729 0.0
H4315 H 0.02133 0.11159 0.49569 0.0
H4316 H 0.02242 0.06846 0.4836 0.0
H4317 H 0.99956 0.02041 0.53817 0.0
H4318 H 0.99594 0.89899 0.49372 0.0
H4319 H 0.99475 0.9415 0.50832 0.0
H4320 H 0.01838 0.98948 0.4574 0.0
C4321 C 0.01408 0.07462 0.49483 0.0
C4322 C 1.0035 0.01396 0.52026 0.0
C4323 C 0.01342 0.09948 0.50156 0.0
C4324 C 1.00425 0.91103 0.49012 0.0
C4325 C 1.00352 0.9355 0.49822 0.0
C4326 C 0.01439 0.996 0.47525 0.0
C4327 C 1.00478 0.05769 0.5044 0.0
C4328 C 1.00666 0.03062 0.50072 0.0
C4329 C 0.01331 0.95248 0.49102 0.0
C4330 C 0.01126 0.97941 0.4948 0.0
H4331 H 0.986 0.0976 0.53905 0.0
H4332 H 0.98666 0.05461 0.52632 0.0
H4333 H 0.0145 0.03319 0.4625 0.0
H4334 H 0.03337 0.91376 0.45773 0.0
H4335 H 0.03239 0.95613 0.4725 0.0
C4336 C 0.26839 0.33717 0.48085 0.0
C4337 C 0.25601 0.34816 0.4768 0.0
C4338 C 0.26932 0.31264 0.48822 0.0
C4339 C 0.25062 0.25825 0.51102 0.0
H4340 H 0.27597 0.22267 0.46964 0.0
C4341 C 0.25295 0.15301 0.51522 0.0
C4342 C 0.26564 0.14264 0.51718 0.0
C4343 C 0.25128 0.17736 0.50754 0.0
C4344 C 0.26892 0.23225 0.48153 0.0
H4345 H 0.23485 0.34237 0.47835 0.0
H4346 H 0.23639 0.29967 0.49203 0.0
H4347 H 0.27431 0.267 0.46592 0.0
H4348 H 0.28652 0.14957 0.51192 0.0
H4349 H 0.28372 0.19181 0.49803 0.0
H4350 H 0.24532 0.22356 0.52687 0.0
C4351 C 0.24543 0.31005 0.48971 0.0
C4352 C 0.26799 0.25778 0.47948 0.0
C4353 C 0.24453 0.33468 0.48224 0.0
C4354 C 0.27659 0.15665 0.5096 0.0
C4355 C 0.27495 0.18109 0.50197 0.0
C4356 C 0.25159 0.2327 0.51318 0.0
C4357 C 0.25785 0.29839 0.49151 0.0
C4358 C 0.25889 0.27118 0.4943 0.0
C4359 C 0.26232 0.19215 0.50198 0.0
C4360 C 0.26079 0.21929 0.49852 0.0
H4361 H 0.2774 0.34698 0.47623 0.0
H4362 H 0.27904 0.30445 0.48996 0.0
H4363 H 0.24354 0.26793 0.52281 0.0
H4364 H 0.24435 0.14282 0.52149 0.0
H4365 H 0.24138 0.18493 0.5072 0.0
C4366 C 0.25926 0.91311 0.73359 0.0
C4367 C 0.25909 0.90349 0.75818 0.0
C4368 C 0.26094 0.93806 0.72991 0.0
C4369 C 0.27188 0.9954 0.75697 0.0
H4370 H 0.24197 0.02332 0.72089 0.0
C4371 C 0.26293 0.09842 0.75564 0.0
C4372 C 0.2584 0.10916 0.73315 0.0
C4373 C 0.26325 0.07316 0.75816 0.0
C4374 C 0.2505 0.01582 0.73059 0.0
H4375 H 0.2613 0.91135 0.79817 0.0
H4376 H 0.26449 0.95558 0.79174 0.0
H4377 H 0.24353 0.97911 0.72621 0.0
H4378 H 0.25051 0.10253 0.69569 0.0
H4379 H 0.25146 0.05774 0.69958 0.0
H4380 H 0.27905 0.03191 0.76097 0.0
C4381 C 0.2633 0.94375 0.77538 0.0
C4382 C 0.25135 0.99057 0.73372 0.0
C4383 C 0.26151 0.91865 0.77908 0.0
C4384 C 0.25401 0.09441 0.71317 0.0
C4385 C 0.25451 0.06891 0.71552 0.0
C4386 C 0.27114 0.02065 0.75352 0.0
C4387 C 0.26252 0.95364 0.75082 0.0
C4388 C 0.262 0.98024 0.74705 0.0
C4389 C 0.2593 0.05806 0.73798 0.0
C4390 C 0.26036 0.03116 0.74053 0.0
H4391 H 0.25744 0.90146 0.71732 0.0
H4392 H 0.26047 0.94534 0.71082 0.0
H4393 H 0.28021 0.9877 0.76715 0.0
H4394 H 0.26636 0.10967 0.77124 0.0
H4395 H 0.26664 0.06549 0.77594 0.0
C4396 C 0.75516 0.65551 0.50195 0.0
C4397 C 0.76628 0.64788 0.51582 0.0
C4398 C 0.75386 0.68004 0.49439 0.0
C4399 C 0.76489 0.741 0.51664 0.0
H4400 H 0.74711 0.76481 0.4565 0.0
C4401 C 0.76178 0.84375 0.48787 0.0
C4402 C 0.75048 0.85151 0.47466 0.0
C4403 C 0.76312 0.81924 0.49536 0.0
C4404 C 0.75191 0.75845 0.47362 0.0
H4405 H 0.78508 0.65938 0.53126 0.0
H4406 H 0.78312 0.70178 0.51731 0.0
H4407 H 0.75166 0.72116 0.46084 0.0
H4408 H 0.73143 0.84029 0.46016 0.0
H4409 H 0.73351 0.79775 0.47383 0.0
H4410 H 0.76518 0.77832 0.52936 0.0
C4411 C 0.77526 0.68911 0.5126 0.0
C4412 C 0.75459 0.73338 0.47603 0.0
C4413 C 0.77653 0.66467 0.52014 0.0
C4414 C 0.74012 0.83485 0.47078 0.0
C4415 C 0.74145 0.81038 0.47818 0.0
C4416 C 0.76223 0.76608 0.51421 0.0
C4417 C 0.76361 0.69743 0.50082 0.0
C4418 C 0.76114 0.72427 0.49756 0.0
C4419 C 0.75323 0.80198 0.48944 0.0
C4420 C 0.75568 0.77516 0.49269 0.0
H4421 H 0.74695 0.6431 0.499 0.0
H4422 H 0.74474 0.6857 0.48535 0.0
H4423 H 0.76968 0.73468 0.53379 0.0
H4424 H 0.77006 0.85611 0.49046 0.0
H4425 H 0.77234 0.81348 0.50397 0.0
C4426 C 0.76001 0.90625 0.23134 0.0
C4427 C 0.76016 0.89551 0.25545 0.0
C4428 C 0.7603 0.93156 0.2289 0.0
C4429 C 0.76967 0.98811 0.25915 0.0
H4430 H 0.74079 0.01683 0.22075 0.0
C4431 C 0.76217 0.09112 0.25795 0.0
C4432 C 0.75881 0.10213 0.23489 0.0
C4433 C 0.7615 0.06592 0.26066 0.0
C4434 C 0.74901 0.00909 0.23121 0.0
H4435 H 0.7611 0.90201 0.29588 0.0
H4436 H 0.7621 0.94685 0.29162 0.0
H4437 H 0.74227 0.9724 0.22511 0.0
H4438 H 0.75186 0.09615 0.19663 0.0
H4439 H 0.75119 0.05137 0.20083 0.0
H4440 H 0.77672 0.02447 0.26467 0.0
C4441 C 0.76166 0.93561 0.2747 0.0
C4442 C 0.74981 0.98374 0.23379 0.0
C4443 C 0.76113 0.91016 0.27716 0.0
C4444 C 0.75444 0.08779 0.21458 0.0
C4445 C 0.75401 0.0623 0.21709 0.0
C4446 C 0.76899 0.0134 0.25627 0.0
C4447 C 0.76089 0.94641 0.25056 0.0
C4448 C 0.76012 0.97314 0.24786 0.0
C4449 C 0.75782 0.05113 0.24005 0.0
C4450 C 0.75859 0.02419 0.24247 0.0
H4451 H 0.7591 0.89506 0.21442 0.0
H4452 H 0.75981 0.93956 0.21012 0.0
H4453 H 0.77778 0.98023 0.26982 0.0
H4454 H 0.76561 0.10204 0.27378 0.0
H4455 H 0.76413 0.05803 0.2788 0.0
C4456 C 0.52221 0.59042 0.49855 0.0
C4457 C 0.51249 0.60213 0.5133 0.0
C4458 C 0.52225 0.56499 0.49623 0.0
C4459 C 0.50868 0.50762 0.52224 0.0
H4460 H 0.50886 0.48658 0.45185 0.0
C4461 C 0.49497 0.40972 0.49586 0.0
C4462 C 0.50468 0.39772 0.48135 0.0
C4463 C 0.495 0.43516 0.49779 0.0
C4464 C 0.50885 0.4922 0.47157 0.0
H4465 H 0.49607 0.59657 0.53913 0.0
H4466 H 0.4963 0.55208 0.5355 0.0
H4467 H 0.51273 0.52957 0.46217 0.0
H4468 H 0.52105 0.40281 0.45524 0.0
H4469 H 0.52097 0.44732 0.45832 0.0
H4470 H 0.50479 0.47028 0.53165 0.0
C4471 C 0.50378 0.5625 0.52549 0.0
C4472 C 0.51117 0.51671 0.4775 0.0
C4473 C 0.50363 0.58794 0.52757 0.0
C4474 C 0.51353 0.41164 0.46674 0.0
C4475 C 0.51347 0.4371 0.46848 0.0
C4476 C 0.50636 0.48313 0.51631 0.0
C4477 C 0.51269 0.5509 0.50889 0.0
C4478 C 0.5111 0.52464 0.5029 0.0
C4479 C 0.50463 0.44898 0.48499 0.0
C4480 C 0.50638 0.47521 0.49092 0.0
H4481 H 0.52914 0.60091 0.48725 0.0
H4482 H 0.52937 0.55642 0.48363 0.0
H4483 H 0.50867 0.51323 0.54196 0.0
H4484 H 0.48799 0.39946 0.50727 0.0
H4485 H 0.48791 0.44396 0.51026 0.0
C4486 C 0.51198 0.65425 0.73912 0.0
C4487 C 0.50107 0.64661 0.7247 0.0
C4488 C 0.5132 0.6788 0.74657 0.0
C4489 C 0.50246 0.73973 0.72389 0.0
H4490 H 0.51961 0.76327 0.78488 0.0
C4491 C 0.50516 0.84204 0.7543 0.0
C4492 C 0.51637 0.84961 0.76789 0.0
C4493 C 0.50395 0.81769 0.74621 0.0
C4494 C 0.51499 0.75697 0.76754 0.0
H4495 H 0.48253 0.65803 0.70806 0.0
H4496 H 0.4843 0.70057 0.72194 0.0
H4497 H 0.51501 0.71971 0.78016 0.0
H4498 H 0.53542 0.83836 0.7824 0.0
H4499 H 0.53354 0.79604 0.76776 0.0
H4500 H 0.50236 0.77707 0.71138 0.0
C4501 C 0.49208 0.68788 0.7271 0.0
C4502 C 0.51229 0.73196 0.76491 0.0
C4503 C 0.49092 0.66341 0.71958 0.0
C4504 C 0.5268 0.83303 0.7715 0.0
C4505 C 0.52559 0.80871 0.76353 0.0
C4506 C 0.50512 0.76476 0.72656 0.0
C4507 C 0.50355 0.69618 0.73956 0.0
C4508 C 0.50597 0.72297 0.74306 0.0
C4509 C 0.51388 0.80044 0.75195 0.0
C4510 C 0.51147 0.7737 0.74839 0.0
H4511 H 0.5201 0.64176 0.74269 0.0
H4512 H 0.52219 0.68446 0.75609 0.0
H4513 H 0.49785 0.73347 0.70652 0.0
H4514 H 0.49685 0.85437 0.75188 0.0
H4515 H 0.49479 0.81199 0.73734 0.0
C4516 C 0.49086 0.16421 0.22102 0.0
C4517 C 0.5016 0.14809 0.22331 0.0
C4518 C 0.49195 0.18847 0.22929 0.0
C4519 C 0.51287 0.23278 0.2649 0.0
H4520 H 0.50104 0.27815 0.21306 0.0
C4521 C 0.52605 0.33458 0.27186 0.0
C4522 C 0.51538 0.35071 0.26879 0.0
C4523 C 0.52504 0.31022 0.26387 0.0
C4524 C 0.50432 0.26578 0.2278 0.0
H4525 H 0.52159 0.14405 0.23728 0.0
H4526 H 0.52346 0.18628 0.25231 0.0
H4527 H 0.49678 0.23447 0.20813 0.0
H4528 H 0.49558 0.35467 0.25385 0.0
H4529 H 0.49382 0.31227 0.23941 0.0
H4530 H 0.52038 0.26408 0.28461 0.0
C4531 C 0.51415 0.18027 0.24428 0.0
C4532 C 0.50181 0.24072 0.22508 0.0
C4533 C 0.51306 0.15601 0.23589 0.0
C4534 C 0.50406 0.34268 0.25583 0.0
C4535 C 0.50304 0.31832 0.24777 0.0
C4536 C 0.51536 0.25785 0.26765 0.0
C4537 C 0.50385 0.19712 0.23985 0.0
C4538 C 0.50602 0.22389 0.24361 0.0
C4539 C 0.51327 0.30149 0.25285 0.0
C4540 C 0.51114 0.27469 0.24911 0.0
H4541 H 0.48203 0.15863 0.21091 0.0
H4542 H 0.48373 0.20083 0.22608 0.0
H4543 H 0.51617 0.22038 0.2796 0.0
H4544 H 0.53477 0.34027 0.28227 0.0
H4545 H 0.53322 0.29791 0.26757 0.0
C4546 C 0.49268 0.088 0.02481 0.0
C4547 C 0.5024 0.10479 0.0171 0.0
C4548 C 0.49351 0.06328 0.01785 0.0
C4549 C 0.51171 0.01811 0.97702 0.0
H4550 H 0.50369 0.9736 0.03221 0.0
C4551 C 0.52547 0.91622 0.96895 0.0
C4552 C 0.51566 0.8993 0.9759 0.0
C4553 C 0.52449 0.94085 0.97617 0.0
C4554 C 0.50589 0.98569 0.0165 0.0
H4555 H 0.52037 0.10899 0.99527 0.0
H4556 H 0.52184 0.06592 0.9828 0.0
H4557 H 0.49969 0.01733 0.0374 0.0
H4558 H 0.49742 0.89473 -0.00317 0.0
H4559 H 0.49574 0.93766 0.00987 0.0
H4560 H 0.51796 0.98647 0.95615 0.0
C4561 C 0.5134 0.07181 0.99394 0.0
C4562 C 0.50352 0.01087 0.01941 0.0
C4563 C 0.5125 0.09664 0.00083 0.0
C4564 C 0.50534 0.90718 0.99184 0.0
C4565 C 0.50432 0.93192 -0.00096 0.0
C4566 C 0.5141 0.99294 0.97413 0.0
C4567 C 0.50424 0.05455 0.00331 0.0
C4568 C 0.50638 0.02752 -0.0003 0.0
C4569 C 0.51356 0.94934 0.99027 0.0
C4570 C 0.51127 0.97631 0.99385 0.0
H4571 H 0.48494 0.09367 0.03783 0.0
H4572 H 0.48606 0.05079 0.02492 0.0
H4573 H 0.51391 0.03015 0.96128 0.0
H4574 H 0.53337 0.91078 0.95621 0.0
H4575 H 0.53199 0.95348 0.96958 0.0
C4576 C 1.0071 0.04027 0.14438 0.0
C4577 C 0.01504 0.03443 0.16543 0.0
C4578 C 1.0084 0.06291 0.13211 0.0
C4579 C 0.02032 0.12613 0.14385 0.0
H4580 H 0.01586 0.13352 0.07125 0.0
C4581 C 0.02506 0.22103 0.09642 0.0
C4582 C 0.01607 0.22678 0.07698 0.0
C4583 C 0.02619 0.19704 0.10553 0.0
C4584 C 0.01701 0.13187 0.09159 0.0
H4585 H 0.03094 0.0476 0.18943 0.0
H4586 H 0.03333 0.08678 0.1679 0.0
H4587 H 0.01555 0.09273 0.09002 0.0
H4588 H 1.0014 0.2115 0.0515 0.0
H4589 H 1.00312 0.16987 0.06772 0.0
H4590 H 0.02152 0.16514 0.14563 0.0
C4591 C 0.0259 0.0741 0.16112 0.0
C4592 C 0.01684 0.1084 0.10238 0.0
C4593 C 0.02458 0.05151 0.17341 0.0
C4594 C 1.00848 0.20775 0.06642 0.0
C4595 C 0.00952 0.18377 0.07569 0.0
C4596 C 0.02044 0.14955 0.13311 0.0
C4597 C 0.01768 0.08032 0.14055 0.0
C4598 C 0.01842 0.10519 0.1287 0.0
C4599 C 0.01826 0.17809 0.09565 0.0
C4600 C 0.0187 0.15285 0.10683 0.0
H4601 H 0.99962 0.02761 0.13773 0.0
H4602 H 1.0018 0.06706 0.11652 0.0
H4603 H 0.02134 0.12452 0.16423 0.0
H4604 H 0.03116 0.23516 0.10486 0.0
H4605 H 0.03326 0.1934 0.12049 0.0
C4606 C 0.26084 0.21304 0.15216 0.0
C4607 C 0.25173 0.22013 0.17103 0.0
C4608 C 0.25963 0.19046 0.1398 0.0
C4609 C 0.24539 0.12875 0.14767 0.0
H4610 H 0.25277 0.1227 0.07574 0.0
C4611 C 0.24136 0.0353 0.09649 0.0
C4612 C 0.251 0.02983 0.0781 0.0
C4613 C 0.24017 0.05903 0.10636 0.0
C4614 C 0.25081 0.12395 0.0959 0.0
H4615 H 0.2341 0.20898 0.19143 0.0
H4616 H 0.23197 0.16956 0.16981 0.0
H4617 H 0.25315 0.16292 0.09576 0.0
H4618 H 0.26686 0.04517 0.0554 0.0
H4619 H 0.26507 0.08621 0.07303 0.0
H4620 H 0.24339 0.08981 0.14806 0.0
C4621 C 0.24012 0.18145 0.16473 0.0
C4622 C 0.251 0.14709 0.10738 0.0
C4623 C 0.2413 0.20412 0.17705 0.0
C4624 C 0.25924 0.04877 0.0694 0.0
C4625 C 0.25816 0.07242 0.07948 0.0
C4626 C 0.24529 0.10559 0.13623 0.0
C4627 C 0.24931 0.17428 0.14601 0.0
C4628 C 0.2484 0.14979 0.13347 0.0
C4629 C 0.2487 0.07787 0.09834 0.0
C4630 C 0.24811 0.10279 0.11021 0.0
H4631 H 0.26902 0.22484 0.14703 0.0
H4632 H 0.26699 0.18546 0.12575 0.0
H4633 H 0.24351 0.13007 0.16785 0.0
H4634 H 0.23479 0.02117 0.10348 0.0
H4635 H 0.23257 0.06253 0.12042 0.0
C4636 C 0.01173 0.7968 0.91594 0.0
C4637 C 1.00153 0.77968 0.9123 0.0
C4638 C 0.01048 0.82064 0.90683 0.0
C4639 C 0.99321 0.85692 0.8587 0.0
H4640 H 1.00553 0.91195 0.89879 0.0
C4641 C 0.98865 0.95654 0.82373 0.0
C4642 C 0.99995 0.97122 0.82676 0.0
C4643 C 0.98783 0.93375 0.83555 0.0
C4644 C 1.00213 0.89675 0.88731 0.0
H4645 H 0.98197 0.77419 0.89636 0.0
H4646 H 0.9798 0.81594 0.88032 0.0
H4647 H 1.0058 0.8709 0.91695 0.0
H4648 H 0.01916 0.97376 0.84494 0.0
H4649 H 0.01774 0.93393 0.86554 0.0
H4650 H 0.98974 0.88269 0.82892 0.0
C4651 C 0.98879 0.81081 0.89016 0.0
C4652 C 1.00228 0.87326 0.89771 0.0
C4653 C 0.99001 0.78695 0.89942 0.0
C4654 C 0.01032 0.96286 0.84223 0.0
C4655 C 0.00947 0.94011 0.85416 0.0
C4656 C 0.99307 0.88041 0.84829 0.0
C4657 C 0.99902 0.8279 0.89377 0.0
C4658 C 0.99798 0.85305 0.88339 0.0
C4659 C 0.99827 0.92522 0.85076 0.0
C4660 C 0.99768 0.90053 0.86238 0.0
H4661 H 0.02073 0.79182 0.92583 0.0
H4662 H 0.01861 0.83327 0.90961 0.0
H4663 H 0.98999 0.84169 0.84708 0.0
H4664 H 0.98049 0.96248 0.81192 0.0
H4665 H 0.97902 0.9228 0.83278 0.0
C4666 C 0.77297 0.96941 0.89226 0.0
C4667 C 0.76623 0.97313 0.91526 0.0
C4668 C 0.77461 0.9458 0.88246 0.0
C4669 C 0.77162 0.87948 0.89875 0.0
H4670 H 0.76675 0.87261 0.82613 0.0
C4671 C 0.76053 0.78705 0.84843 0.0
C4672 C 0.76739 0.78248 0.82569 0.0
C4673 C 0.76154 0.80985 0.86046 0.0
C4674 C 0.76827 0.87424 0.8464 0.0
H4675 H 0.75624 0.95492 0.9464 0.0
H4676 H 0.75876 0.91394 0.92905 0.0
H4677 H 0.76674 0.91318 0.84513 0.0
H4678 H 0.78075 0.79812 0.79785 0.0
H4679 H 0.78237 0.83784 0.81866 0.0
H4680 H 0.77272 0.84029 0.89989 0.0
C4681 C 0.76304 0.92911 0.91874 0.0
C4682 C 0.76833 0.89753 0.85733 0.0
C4683 C 0.76153 0.95269 0.92866 0.0
C4684 C 0.77537 0.80103 0.81538 0.0
C4685 C 0.77624 0.82384 0.82721 0.0
C4686 C 0.77142 0.85612 0.88781 0.0
C4687 C 0.7694 0.92538 0.89529 0.0
C4688 C 0.76997 0.9005 0.88366 0.0
C4689 C 0.76927 0.82857 0.84977 0.0
C4690 C 0.76972 0.85327 0.86153 0.0
H4691 H 0.77681 0.98476 0.88158 0.0
H4692 H 0.77982 0.94362 0.86464 0.0
H4693 H 0.7731 0.88103 0.91902 0.0
H4694 H 0.75432 0.7731 0.85685 0.0
H4695 H 0.75598 0.81303 0.87774 0.0
C4696 C 0.02659 0.54898 0.67399 0.0
C4697 C 0.01718 0.53172 0.66594 0.0
C4698 C 0.02753 0.57175 0.66212 0.0
C4699 C 0.01899 0.60518 0.60356 0.0
H4700 H 0.02085 0.66251 0.64683 0.0
C4701 C 0.00906 0.70275 0.5661 0.0
C4702 C 0.01595 0.72248 0.57698 0.0
C4703 C 0.01047 0.6791 0.5758 0.0
C4704 C 0.02058 0.64674 0.63438 0.0
H4705 H 1.00154 0.52462 0.63877 0.0
H4706 H 1.00323 0.56439 0.61793 0.0
H4707 H 0.02101 0.62194 0.66575 0.0
H4708 H 0.03016 0.73265 0.6059 0.0
H4709 H 0.03294 0.69129 0.62235 0.0
H4710 H 0.01857 0.62993 0.57216 0.0
C4711 C 0.00991 0.56025 0.63338 0.0
C4712 C 0.02063 0.62344 0.64528 0.0
C4713 C 0.0089 0.53752 0.64541 0.0
C4714 C 0.02464 0.71788 0.5972 0.0
C4715 C 0.02616 0.69417 0.60676 0.0
C4716 C 0.01904 0.62849 0.59263 0.0
C4717 C 0.01914 0.57773 0.6418 0.0
C4718 C 0.0197 0.6024 0.63002 0.0
C4719 C 0.01891 0.67452 0.59647 0.0
C4720 C 0.01969 0.64961 0.60791 0.0
H4721 H 0.03311 0.54511 0.68979 0.0
H4722 H 0.03482 0.58472 0.66889 0.0
H4723 H 0.01845 0.5893 0.59128 0.0
H4724 H 1.00221 0.70566 0.55059 0.0
H4725 H 1.00459 0.66456 0.56759 0.0
C4726 C 0.26038 0.69679 0.67504 0.0
C4727 C 0.25358 0.71669 0.66439 0.0
C4728 C 0.25874 0.67322 0.66518 0.0
C4729 C 0.24912 0.64124 0.60657 0.0
H4730 H 0.2474 0.58429 0.65025 0.0
C4731 C 0.24202 0.54403 0.56619 0.0
C4732 C 0.25048 0.5259 0.57593 0.0
C4733 C 0.24109 0.5669 0.57795 0.0
C4734 C 0.24795 0.60001 0.63782 0.0
H4735 H 0.23956 0.72749 0.63532 0.0
H4736 H 0.23672 0.68641 0.61811 0.0
H4737 H 0.24816 0.62517 0.66903 0.0
H4738 H 0.26432 0.51734 0.60607 0.0
H4739 H 0.26264 0.55727 0.62666 0.0
H4740 H 0.24908 0.61615 0.57538 0.0
C4741 C 0.2434 0.68901 0.63395 0.0
C4742 C 0.24839 0.62341 0.64856 0.0
C4743 C 0.24498 0.71253 0.64389 0.0
C4744 C 0.2577 0.53091 0.5981 0.0
C4745 C 0.25669 0.55375 0.60998 0.0
C4746 C 0.24867 0.61787 0.59584 0.0
C4747 C 0.25032 0.6691 0.64437 0.0
C4748 C 0.24912 0.64428 0.63306 0.0
C4749 C 0.24852 0.57213 0.59982 0.0
C4750 C 0.24822 0.59697 0.61133 0.0
H4751 H 0.26701 0.6994 0.69096 0.0
H4752 H 0.26431 0.65832 0.6735 0.0
H4753 H 0.24987 0.6569 0.5941 0.0
H4754 H 0.23634 0.5408 0.5491 0.0
H4755 H 0.23459 0.58058 0.56981 0.0
C4756 C 0.99267 0.29726 0.42662 0.0
C4757 C 1.00278 0.28087 0.4196 0.0
C4758 C 0.99131 0.31988 0.41435 0.0
C4759 C 1.00144 0.35439 0.35639 0.0
H4760 H 0.99425 0.4113 0.39816 0.0
C4761 C 0.00959 0.45347 0.3202 0.0
C4762 C 1.00126 0.47221 0.32922 0.0
C4763 C 1.00859 0.42962 0.32978 0.0
C4764 C 0.99605 0.39563 0.38604 0.0
H4765 H 0.01927 0.2754 0.39379 0.0
H4766 H 0.01701 0.31478 0.37269 0.0
H4767 H 0.99456 0.37088 0.41736 0.0
H4768 H 0.98494 0.48022 0.35466 0.0
H4769 H 0.98293 0.43862 0.37084 0.0
H4770 H 1.00303 0.37918 0.32509 0.0
C4771 C 0.00999 0.31009 0.38744 0.0
C4772 C 0.99624 0.37234 0.39712 0.0
C4773 C 0.01134 0.2875 0.39969 0.0
C4774 C 0.9916 0.4663 0.34742 0.0
C4775 C 0.99052 0.44242 0.35685 0.0
C4776 C 1.00122 0.37769 0.34528 0.0
C4777 C 1.00003 0.32673 0.39473 0.0
C4778 C 0.99907 0.35139 0.38253 0.0
C4779 C 0.99914 0.42379 0.34851 0.0
C4780 C 0.99866 0.39871 0.35998 0.0
H4781 H 0.98585 0.29274 0.44177 0.0
H4782 H 0.9834 0.33201 0.42025 0.0
H4783 H 1.00343 0.33868 0.34442 0.0
H4784 H 0.0172 0.45735 0.30628 0.0
H4785 H 0.01553 0.41596 0.32305 0.0
C4786 C 0.77761 0.28497 0.34606 0.0
C4787 C 0.76608 0.27721 0.33354 0.0
C4788 C 0.77871 0.30903 0.35488 0.0
C4789 C 0.76544 0.37113 0.34551 0.0
H4790 H 0.77662 0.38233 0.41489 0.0
C4791 C 0.75607 0.46234 0.39739 0.0
C4792 C 0.76545 0.47067 0.41506 0.0
C4793 C 0.75752 0.43949 0.3858 0.0
C4794 C 0.77372 0.37963 0.39532 0.0
H4795 H 0.74677 0.28865 0.32001 0.0
H4796 H 0.74874 0.33064 0.33524 0.0
H4797 H 0.7767 0.34089 0.39772 0.0
H4798 H 0.78394 0.46184 0.43383 0.0
H4799 H 0.78659 0.42212 0.41326 0.0
H4800 H 0.7624 0.4098 0.34305 0.0
C4801 C 0.75691 0.31813 0.33828 0.0
C4802 C 0.77373 0.35584 0.38552 0.0
C4803 C 0.75573 0.29402 0.32979 0.0
C4804 C 0.7765 0.45591 0.42037 0.0
C4805 C 0.77798 0.43307 0.4087 0.0
C4806 C 0.76551 0.39494 0.35523 0.0
C4807 C 0.76839 0.32588 0.35099 0.0
C4808 C 0.76938 0.35131 0.36067 0.0
C4809 C 0.76842 0.42444 0.3915 0.0
C4810 C 0.76943 0.39944 0.38041 0.0
H4811 H 0.78576 0.27243 0.34915 0.0
H4812 H 0.7877 0.31455 0.3645 0.0
H4813 H 0.76223 0.36821 0.32613 0.0
H4814 H 0.74741 0.4732 0.39291 0.0
H4815 H 0.74985 0.43332 0.37295 0.0
C4816 C 0.50928 0.037 0.6507 0.0
C4817 C 0.51707 0.03122 0.67197 0.0
C4818 C 0.51071 0.05947 0.63842 0.0
C4819 C 0.52282 0.12233 0.65039 0.0
H4820 H 0.51637 0.13006 0.57834 0.0
C4821 C 0.52703 0.21573 0.59944 0.0
C4822 C 0.51648 0.22176 0.58325 0.0
C4823 C 0.5282 0.19209 0.60931 0.0
C4824 C 0.51814 0.12817 0.5985 0.0
H4825 H 0.5329 0.04405 0.69625 0.0
H4826 H 0.53569 0.08303 0.67439 0.0
H4827 H 0.51714 0.0891 0.59665 0.0
H4828 H 0.49897 0.20764 0.56445 0.0
H4829 H 0.50107 0.16636 0.5816 0.0
H4830 H 0.52385 0.16143 0.65213 0.0
C4831 C 0.5282 0.07046 0.66761 0.0
C4832 C 0.51856 0.1047 0.60904 0.0
C4833 C 0.52668 0.04803 0.68006 0.0
C4834 C 0.50718 0.20362 0.57698 0.0
C4835 C 0.50844 0.17991 0.58662 0.0
C4836 C 0.52253 0.14575 0.6398 0.0
C4837 C 0.52005 0.07669 0.64694 0.0
C4838 C 0.52071 0.10148 0.63521 0.0
C4839 C 0.51893 0.17392 0.60296 0.0
C4840 C 0.52 0.14894 0.61382 0.0
H4841 H 0.50174 0.02451 0.64397 0.0
H4842 H 0.50412 0.06365 0.62284 0.0
H4843 H 0.52426 0.12068 0.67066 0.0
H4844 H 0.53437 0.22929 0.60458 0.0
H4845 H 0.53644 0.18796 0.62173 0.0
C4846 C 0.73927 0.04644 0.56403 0.0
C4847 C 0.74987 0.03076 0.56981 0.0
C4848 C 0.73788 0.0689 0.57663 0.0
C4849 C 0.74981 0.10393 0.63305 0.0
H4850 H 0.74075 0.16052 0.59232 0.0
C4851 C 0.76147 0.20282 0.66388 0.0
C4852 C 0.75169 0.22073 0.65996 0.0
C4853 C 0.75987 0.17918 0.65424 0.0
C4854 C 0.74312 0.14486 0.60403 0.0
H4855 H 0.7672 0.02625 0.59373 0.0
H4856 H 0.76495 0.06531 0.61509 0.0
H4857 H 0.74018 0.11984 0.57331 0.0
H4858 H 0.73258 0.22792 0.64285 0.0
H4859 H 0.72989 0.18663 0.62561 0.0
H4860 H 0.75317 0.12916 0.66353 0.0
C4861 C 0.75753 0.06022 0.60124 0.0
C4862 C 0.74275 0.1215 0.59317 0.0
C4863 C 0.75888 0.03781 0.58879 0.0
C4864 C 0.7403 0.21453 0.64613 0.0
C4865 C 0.73877 0.19093 0.63621 0.0
C4866 C 0.75027 0.1273 0.64384 0.0
C4867 C 0.74709 0.07619 0.5952 0.0
C4868 C 0.74629 0.10076 0.60743 0.0
C4869 C 0.74853 0.17299 0.64023 0.0
C4870 C 0.74711 0.14805 0.62934 0.0
H4871 H 0.73212 0.04149 0.54962 0.0
H4872 H 0.72961 0.08059 0.57174 0.0
H4873 H 0.75233 0.08836 0.64477 0.0
H4874 H 0.77034 0.20697 0.67459 0.0
H4875 H 0.76764 0.16584 0.65741 0.0
C4876 C 0.4903 0.96628 0.34173 0.0
C4877 C 0.50074 0.97217 0.32519 0.0
C4878 C 0.48902 0.9425 0.35132 0.0
C4879 C 0.50069 0.8783 0.34156 0.0
H4880 H 0.49145 0.87099 0.41253 0.0
C4881 C 0.5095 0.78842 0.39692 0.0
C4882 C 0.49987 0.78125 0.41469 0.0
C4883 C 0.50864 0.81118 0.38488 0.0
C4884 C 0.49388 0.87265 0.39259 0.0
H4885 H 0.51794 0.95759 0.30557 0.0
H4886 H 0.51589 0.91656 0.32266 0.0
H4887 H 0.49142 0.91153 0.39344 0.0
H4888 H 0.48167 0.79226 0.4334 0.0
H4889 H 0.48011 0.83175 0.41225 0.0
H4890 H 0.50339 0.83942 0.34089 0.0
C4891 C 0.5085 0.93003 0.32785 0.0
C4892 C 0.49384 0.89594 0.3816 0.0
C4893 C 0.50972 0.95369 0.31814 0.0
C4894 C 0.48928 0.79721 0.41986 0.0
C4895 C 0.48842 0.81994 0.40785 0.0
C4896 C 0.50078 0.85503 0.35257 0.0
C4897 C 0.49819 0.92412 0.34473 0.0
C4898 C 0.49738 0.89912 0.356 0.0
C4899 C 0.49814 0.8273 0.39033 0.0
C4900 C 0.4975 0.85193 0.37829 0.0
H4901 H 0.48318 0.98006 0.34743 0.0
H4902 H 0.48084 0.93854 0.36396 0.0
H4903 H 0.50323 0.87995 0.32167 0.0
H4904 H 0.51784 0.77663 0.39259 0.0
H4905 H 0.51639 0.81638 0.37174 0.0
C4906 C 0.25901 0.95529 0.42697 0.0
C4907 C 0.26567 0.9749 0.41538 0.0
C4908 C 0.26007 0.93151 0.41717 0.0
C4909 C 0.26927 0.89834 0.35777 0.0
H4910 H 0.26682 0.84117 0.40095 0.0
C4911 C 0.27486 0.80023 0.31789 0.0
C4912 C 0.26552 0.78287 0.32608 0.0
C4913 C 0.27583 0.82306 0.32979 0.0
C4914 C 0.26744 0.85696 0.38862 0.0
H4915 H 0.27914 0.98466 0.38503 0.0
H4916 H 0.28142 0.94317 0.36853 0.0
H4917 H 0.26724 0.88189 0.42 0.0
H4918 H 0.25006 0.7758 0.35369 0.0
H4919 H 0.2518 0.81567 0.37457 0.0
H4920 H 0.26957 0.87335 0.32643 0.0
C4921 C 0.275 0.94618 0.3847 0.0
C4922 C 0.26765 0.88038 0.39953 0.0
C4923 C 0.27378 0.97001 0.39429 0.0
C4924 C 0.25736 0.78873 0.34687 0.0
C4925 C 0.25841 0.81155 0.35893 0.0
C4926 C 0.26919 0.87495 0.34691 0.0
C4927 C 0.26797 0.9266 0.39569 0.0
C4928 C 0.26844 0.90147 0.38426 0.0
C4929 C 0.26755 0.82912 0.35034 0.0
C4930 C 0.26815 0.85395 0.36215 0.0
H4931 H 0.25258 0.95841 0.44312 0.0
H4932 H 0.25433 0.91714 0.42602 0.0
H4933 H 0.26963 0.914 0.34523 0.0
H4934 H 0.28132 0.79636 0.30196 0.0
H4935 H 0.28309 0.83602 0.32287 0.0
C4936 C 0.52711 0.70227 0.06569 0.0
C4937 C 0.5171 0.71879 0.07292 0.0
C4938 C 0.52836 0.67954 0.07782 0.0
C4939 C 0.51852 0.64521 0.13588 0.0
H4940 H 0.52368 0.58802 0.09342 0.0
C4941 C 0.50909 0.5469 0.17274 0.0
C4942 C 0.51671 0.52749 0.16296 0.0
C4943 C 0.51039 0.57062 0.163 0.0
C4944 C 0.52247 0.60375 0.10572 0.0
H4945 H 0.50077 0.72448 0.09908 0.0
H4946 H 0.50293 0.68505 0.12002 0.0
H4947 H 0.52392 0.62855 0.07442 0.0
H4948 H 0.53207 0.51809 0.13592 0.0
H4949 H 0.53468 0.5595 0.1195 0.0
H4950 H 0.51703 0.62045 0.16719 0.0
C4951 C 0.50988 0.68964 0.10513 0.0
C4952 C 0.52259 0.62708 0.09475 0.0
C4953 C 0.5086 0.71226 0.09296 0.0
C4954 C 0.52597 0.53256 0.14375 0.0
C4955 C 0.52738 0.55634 0.1342 0.0
C4956 C 0.51848 0.62188 0.14689 0.0
C4957 C 0.51968 0.67284 0.09756 0.0
C4958 C 0.52046 0.64812 0.10961 0.0
C4959 C 0.51947 0.57568 0.14338 0.0
C4960 C 0.52029 0.60074 0.13194 0.0
H4961 H 0.53385 0.7067 0.05039 0.0
H4962 H 0.53612 0.66719 0.07169 0.0
H4963 H 0.51705 0.66101 0.14799 0.0
H4964 H 0.50178 0.54365 0.18741 0.0
H4965 H 0.50396 0.58482 0.17038 0.0
C4966 C 0.75971 0.53845 0.09483 0.0
C4967 C 0.75043 0.53089 0.0766 0.0
C4968 C 0.7584 0.56107 0.10685 0.0
C4969 C 0.74352 0.62175 0.09765 0.0
H4970 H 0.75339 0.63089 0.16811 0.0
C4971 C 0.74033 0.71554 0.14829 0.0
C4972 C 0.75157 0.72213 0.1624 0.0
C4973 C 0.73898 0.69176 0.13889 0.0
C4974 C 0.75065 0.6286 0.14839 0.0
H4975 H 0.7323 0.54083 0.05717 0.0
H4976 H 0.72992 0.58031 0.07843 0.0
H4977 H 0.75282 0.5897 0.15019 0.0
H4978 H 0.77011 0.70896 0.17805 0.0
H4979 H 0.76773 0.66748 0.16167 0.0
H4980 H 0.74147 0.6607 0.09583 0.0
C4981 C 0.73831 0.56884 0.08316 0.0
C4982 C 0.75034 0.60505 0.13812 0.0
C4983 C 0.73963 0.54617 0.07109 0.0
C4984 C 0.76137 0.70447 0.16711 0.0
C4985 C 0.75996 0.68065 0.15794 0.0
C4986 C 0.74378 0.6453 0.10796 0.0
C4987 C 0.74777 0.57665 0.10096 0.0
C4988 C 0.74697 0.60139 0.11251 0.0
C4989 C 0.74877 0.67408 0.14367 0.0
C4990 C 0.74755 0.64898 0.13331 0.0
H4991 H 0.76817 0.52712 0.0995 0.0
H4992 H 0.76597 0.56666 0.1202 0.0
H4993 H 0.74107 0.61961 0.07777 0.0
H4994 H 0.73261 0.72877 0.14441 0.0
H4995 H 0.73022 0.68713 0.12807 0.0
C4996 C 0.49562 0.46879 0.85335 0.0
C4997 C 0.50285 0.47301 0.83099 0.0
C4998 C 0.49411 0.44505 0.86294 0.0
C4999 C 0.49853 0.37843 0.84748 0.0
H5000 H 0.50129 0.37273 0.92057 0.0
C5001 C 0.50861 0.28597 0.89923 0.0
C5002 C 0.50265 0.28213 0.92306 0.0
C5003 C 0.5073 0.30848 0.88666 0.0
C5004 C 0.50029 0.37389 0.90016 0.0
H5005 H 0.51377 0.45528 0.80066 0.0
H5006 H 0.51141 0.41397 0.81762 0.0
H5007 H 0.50132 0.41292 0.90112 0.0
H5008 H 0.49019 0.29885 0.95179 0.0
H5009 H 0.48778 0.33782 0.92986 0.0
H5010 H 0.49779 0.33916 0.84668 0.0
C5011 C 0.50671 0.42895 0.82764 0.0
C5012 C 0.50029 0.39709 0.88892 0.0
C5013 C 0.50811 0.45273 0.81792 0.0
C5014 C 0.49501 0.30114 0.93359 0.0
C5015 C 0.49369 0.32361 0.92103 0.0
C5016 C 0.49858 0.35513 0.85877 0.0
C5017 C 0.49991 0.42479 0.85061 0.0
C5018 C 0.49944 0.3998 0.8624 0.0
C5019 C 0.5 0.3278 0.89759 0.0
C5020 C 0.49949 0.35253 0.8853 0.0
H5021 H 0.49129 0.48391 0.86378 0.0
H5022 H 0.4885 0.44266 0.88027 0.0
H5023 H 0.49769 0.37965 0.82705 0.0
H5024 H 0.51457 0.27178 0.8905 0.0
H5025 H 0.51239 0.31099 0.86877 0.0
C5026 C 0.276 0.28636 0.84737 0.0
C5027 C 0.26524 0.28029 0.83167 0.0
C5028 C 0.27745 0.31021 0.85686 0.0
C5029 C 0.26561 0.37444 0.84776 0.0
H5030 H 0.27636 0.38257 0.91784 0.0
C5031 C 0.25687 0.46447 0.90272 0.0
C5032 C 0.26655 0.47258 0.91995 0.0
C5033 C 0.25793 0.44157 0.89098 0.0
C5034 C 0.27352 0.3807 0.89813 0.0
H5035 H 0.24767 0.29476 0.8134 0.0
H5036 H 0.25004 0.33594 0.83021 0.0
H5037 H 0.27608 0.3418 0.89899 0.0
H5038 H 0.28504 0.46282 0.93816 0.0
H5039 H 0.28695 0.4228 0.91754 0.0
H5040 H 0.26281 0.41328 0.84705 0.0
C5041 C 0.25753 0.3225 0.8349 0.0
C5042 C 0.27337 0.35726 0.88727 0.0
C5043 C 0.25612 0.29875 0.82534 0.0
C5044 C 0.27741 0.45719 0.92499 0.0
C5045 C 0.27845 0.43417 0.91327 0.0
C5046 C 0.26572 0.39783 0.85863 0.0
C5047 C 0.26816 0.32857 0.85096 0.0
C5048 C 0.26923 0.35374 0.86202 0.0
C5049 C 0.2687 0.42603 0.89614 0.0
C5050 C 0.2695 0.40127 0.88408 0.0
H5051 H 0.28326 0.27264 0.85252 0.0
H5052 H 0.28588 0.31423 0.86883 0.0
H5053 H 0.26264 0.3726 0.82812 0.0
H5054 H 0.24833 0.47573 0.89838 0.0
H5055 H 0.25013 0.43583 0.87823 0.0
loop_
_geom_bond_atom_site_label_1
_geom_bond_atom_site_label_2
_geom_bond_distance
_geom_bond_site_symmetry_2
_ccdc_geom_bond_type
Eu0 O2 2.323 1_655 S
Eu0 O10 2.328 1_655 S
Eu0 O21 2.316 1_655 S
Eu0 C22 2.837 . S
Eu0 O23 2.488 . S
Eu0 O31 2.461 . S
C1 O12 1.251 . S
C1 O21 1.237 1_556 S
O2 Eu0 2.323 1_455 S
O2 C18 1.279 . S
C3 C5 1.383 . S
C3 C7 1.388 . S
C3 C17 1.491 . S
C4 C6 1.403 . S
C4 C8 1.385 . S
C4 H32 0.931 . S
C5 C3 1.383 . S
C5 C6 1.393 . S
C5 H33 0.930 . S
C6 C4 1.403 . S
C6 C5 1.393 . S
C7 C3 1.388 . S
C7 C8 1.394 . S
C7 H34 0.930 . S
C8 C4 1.385 . S
C8 C7 1.394 . S
Eu9 O11 2.323 . S
Eu9 O12 2.328 . S
Eu9 O13 2.316 1_556 S
Eu9 O16 2.488 1_556 S
Eu9 C17 2.837 1_556 S
Eu9 O20 2.461 1_556 S
O10 Eu0 2.328 1_455 S
O10 C30 1.251 . S
O11 Eu9 2.323 . S
O11 C14 1.279 1_455 S
O12 C1 1.251 . S
O12 Eu9 2.328 . S
O13 Eu9 2.316 1_554 S
O13 C30 1.237 . S
C14 O11 1.279 1_655 S
C14 O15 1.244 . S
O15 C14 1.244 . S
O16 Eu9 2.488 1_554 S
O16 C17 1.271 . S
C17 C3 1.491 . S
C17 Eu9 2.837 1_554 S
C17 O16 1.271 . S
C17 O20 1.261 . S
C18 O2 1.279 . S
C18 O19 1.244 . S
O19 C18 1.244 . S
O20 Eu9 2.461 1_554 S
O20 C17 1.261 . S
O21 Eu0 2.316 1_455 S
O21 C1 1.237 1_554 S
C22 Eu0 2.837 . S
C22 O23 1.271 . S
C22 C24 1.491 . S
C22 O31 1.261 . S
O23 Eu0 2.488 . S
O23 C22 1.271 . S
C24 C22 1.491 . S
C24 C26 1.383 . S
C24 C28 1.388 . S
C25 C27 1.403 . S
C25 C29 1.385 . S
C25 H35 0.931 . S
C26 C24 1.383 . S
C26 C27 1.393 . S
C26 H36 0.930 . S
C27 C25 1.403 . S
C27 C26 1.393 . S
C28 C24 1.388 . S
C28 C29 1.394 . S
C28 H37 0.930 . S
C29 C25 1.385 . S
C29 C28 1.394 . S
C30 O10 1.251 . S
C30 O13 1.237 . S
O31 Eu0 2.461 . S
O31 C22 1.261 . S
H32 C4 0.931 . S
H33 C5 0.930 . S
H34 C7 0.930 . S
H35 C25 0.931 . S
H36 C26 0.930 . S
H37 C28 0.930 . S
Eu38 O40 2.340 . S
Eu38 O48 2.328 . S
Eu38 O59 2.316 . S
Eu38 C60 2.837 . S
Eu38 O61 2.488 . S
Eu38 O69 2.461 . S
C39 O50 1.251 . S
C39 O59 1.237 1_556 S
O40 Eu38 2.340 . S
O40 C56 1.269 1_565 S
C41 C43 1.383 . S
C41 C45 1.388 . S
C41 C55 1.491 . S
C42 C44 1.403 . S
C42 C46 1.385 . S
C42 H70 0.931 . S
C43 C41 1.383 . S
C43 C44 1.393 . S
C43 H71 0.930 . S
C44 C42 1.403 . S
C44 C43 1.393 . S
C45 C41 1.388 . S
C45 C46 1.394 . S
C45 H72 0.930 . S
C46 C42 1.385 . S
C46 C45 1.394 . S
Eu47 O49 2.323 . S
Eu47 O50 2.328 . S
Eu47 O51 2.316 1_556 S
Eu47 O54 2.488 1_556 S
Eu47 C55 2.837 1_556 S
Eu47 O58 2.461 1_556 S
O48 Eu38 2.328 . S
O48 C68 1.251 . S
O49 Eu47 2.323 . S
O49 C52 1.279 . S
O50 C39 1.251 . S
O50 Eu47 2.328 . S
O51 Eu47 2.316 1_554 S
O51 C68 1.237 . S
C52 O49 1.279 . S
C52 O53 1.244 . S
O53 C52 1.244 . S
O54 Eu47 2.488 1_554 S
O54 C55 1.271 . S
C55 C41 1.491 . S
C55 Eu47 2.837 1_554 S
C55 O54 1.271 . S
C55 O58 1.261 . S
C56 O40 1.269 1_545 S
C56 O57 1.244 . S
O57 C56 1.244 . S
O58 Eu47 2.461 1_554 S
O58 C55 1.261 . S
O59 Eu38 2.316 . S
O59 C39 1.237 1_554 S
C60 Eu38 2.837 . S
C60 O61 1.271 . S
C60 C62 1.491 . S
C60 O69 1.261 . S
O61 Eu38 2.488 . S
O61 C60 1.271 . S
C62 C60 1.491 . S
C62 C64 1.383 . S
C62 C66 1.388 . S
C63 C65 1.403 . S
C63 C67 1.385 . S
C63 H73 0.931 . S
C64 C62 1.383 . S
C64 C65 1.393 . S
C64 H74 0.930 . S
C65 C63 1.403 . S
C65 C64 1.393 . S
C66 C62 1.388 . S
C66 C67 1.394 . S
C66 H75 0.930 . S
C67 C63 1.385 . S
C67 C66 1.394 . S
C68 O48 1.251 . S
C68 O51 1.237 . S
O69 Eu38 2.461 . S
O69 C60 1.261 . S
H70 C42 0.931 . S
H71 C43 0.930 . S
H72 C45 0.930 . S
H73 C63 0.931 . S
H74 C64 0.930 . S
H75 C66 0.930 . S
Eu76 O78 2.339 1_655 S
Eu76 O86 2.328 1_655 S
Eu76 O97 2.316 1_655 S
Eu76 C98 2.837 . S
Eu76 O99 2.488 . S
Eu76 O107 2.461 . S
C77 O88 1.251 . S
C77 O97 1.237 . S
O78 Eu76 2.339 1_455 S
O78 C94 1.269 1_565 S
C79 C81 1.383 . S
C79 C83 1.388 . S
C79 C93 1.491 . S
C80 C82 1.403 . S
C80 C84 1.385 . S
C80 H108 0.931 . S
C81 C79 1.383 . S
C81 C82 1.393 . S
C81 H109 0.930 . S
C82 C80 1.403 . S
C82 C81 1.393 . S
C83 C79 1.388 . S
C83 C84 1.394 . S
C83 H110 0.930 . S
C84 C80 1.385 . S
C84 C83 1.394 . S
Eu85 O87 2.323 . S
Eu85 O88 2.328 . S
Eu85 O89 2.316 . S
Eu85 O92 2.488 . S
Eu85 C93 2.837 . S
Eu85 O96 2.461 . S
O86 Eu76 2.328 1_455 S
O86 C106 1.251 . S
O87 Eu85 2.323 . S
O87 C90 1.279 1_455 S
O88 C77 1.251 . S
O88 Eu85 2.328 . S
O89 Eu85 2.316 . S
O89 C106 1.237 . S
C90 O87 1.279 1_655 S
C90 O91 1.244 . S
O91 C90 1.244 . S
O92 Eu85 2.488 . S
O92 C93 1.271 . S
C93 C79 1.491 . S
C93 Eu85 2.837 . S
C93 O92 1.271 . S
C93 O96 1.261 . S
C94 O78 1.269 1_545 S
C94 O95 1.244 . S
O95 C94 1.244 . S
O96 Eu85 2.461 . S
O96 C93 1.261 . S
O97 Eu76 2.316 1_455 S
O97 C77 1.237 . S
C98 Eu76 2.837 . S
C98 O99 1.271 . S
C98 C100 1.491 . S
C98 O107 1.261 . S
O99 Eu76 2.488 . S
O99 C98 1.271 . S
C100 C98 1.491 . S
C100 C102 1.383 . S
C100 C104 1.388 . S
C101 C103 1.403 . S
C101 C105 1.385 . S
C101 H111 0.931 . S
C102 C100 1.383 . S
C102 C103 1.393 . S
C102 H112 0.930 . S
C103 C101 1.403 . S
C103 C102 1.393 . S
C104 C100 1.388 . S
C104 C105 1.394 . S
C104 H113 0.930 . S
C105 C101 1.385 . S
C105 C104 1.394 . S
C106 O86 1.251 . S
C106 O89 1.237 . S
O107 Eu76 2.461 . S
O107 C98 1.261 . S
H108 C80 0.931 . S
H109 C81 0.930 . S
H110 C83 0.930 . S
H111 C101 0.931 . S
H112 C102 0.930 . S
H113 C104 0.930 . S
Eu114 O116 2.323 . S
Eu114 O124 2.328 . S
Eu114 O135 2.316 . S
Eu114 C136 2.837 . S
Eu114 O137 2.488 . S
Eu114 O145 2.461 . S
C115 O126 1.251 . S
C115 O135 1.237 . S
O116 Eu114 2.323 . S
O116 C132 1.279 . S
C117 C119 1.383 . S
C117 C121 1.388 . S
C117 C131 1.491 . S
C118 C120 1.403 . S
C118 C122 1.385 . S
C118 H146 0.931 . S
C119 C117 1.383 . S
C119 C120 1.393 . S
C119 H147 0.930 . S
C120 C118 1.403 . S
C120 C119 1.393 . S
C121 C117 1.388 . S
C121 C122 1.394 . S
C121 H148 0.930 . S
C122 C118 1.385 . S
C122 C121 1.394 . S
Eu123 O125 2.323 . S
Eu123 O126 2.328 . S
Eu123 O127 2.316 . S
Eu123 O130 2.488 . S
Eu123 C131 2.837 . S
Eu123 O134 2.461 . S
O124 Eu114 2.328 . S
O124 C144 1.251 . S
O125 Eu123 2.323 . S
O125 C128 1.279 . S
O126 C115 1.251 . S
O126 Eu123 2.328 . S
O127 Eu123 2.316 . S
O127 C144 1.237 . S
C128 O125 1.279 . S
C128 O129 1.244 . S
O129 C128 1.244 . S
O130 Eu123 2.488 . S
O130 C131 1.271 . S
C131 C117 1.491 . S
C131 Eu123 2.837 . S
C131 O130 1.271 . S
C131 O134 1.261 . S
C132 O116 1.279 . S
C132 O133 1.244 . S
O133 C132 1.244 . S
O134 Eu123 2.461 . S
O134 C131 1.261 . S
O135 Eu114 2.316 . S
O135 C115 1.237 . S
C136 Eu114 2.837 . S
C136 O137 1.271 . S
C136 C138 1.491 . S
C136 O145 1.261 . S
O137 Eu114 2.488 . S
O137 C136 1.271 . S
C138 C136 1.491 . S
C138 C140 1.383 . S
C138 C142 1.388 . S
C139 C141 1.403 . S
C139 C143 1.385 . S
C139 H149 0.931 . S
C140 C138 1.383 . S
C140 C141 1.393 . S
C140 H150 0.930 . S
C141 C139 1.403 . S
C141 C140 1.393 . S
C142 C138 1.388 . S
C142 C143 1.394 . S
C142 H151 0.930 . S
C143 C139 1.385 . S
C143 C142 1.394 . S
C144 O124 1.251 . S
C144 O127 1.237 . S
O145 Eu114 2.461 . S
O145 C136 1.261 . S
H146 C118 0.931 . S
H147 C119 0.930 . S
H148 C121 0.930 . S
H149 C139 0.931 . S
H150 C140 0.930 . S
H151 C142 0.930 . S
Eu152 O154 2.323 . S
Eu152 O162 2.328 . S
Eu152 O173 2.316 1_554 S
Eu152 C174 2.837 1_554 S
Eu152 O175 2.488 1_554 S
Eu152 O183 2.461 1_554 S
C153 O164 1.251 . S
C153 O173 1.237 . S
O154 Eu152 2.323 . S
O154 C170 1.279 1_655 S
C155 C157 1.383 . S
C155 C159 1.388 . S
C155 C169 1.491 . S
C156 C158 1.403 . S
C156 C160 1.385 . S
C156 H184 0.931 . S
C157 C155 1.383 . S
C157 C158 1.393 . S
C157 H185 0.930 . S
C158 C156 1.403 . S
C158 C157 1.393 . S
C159 C155 1.388 . S
C159 C160 1.394 . S
C159 H186 0.930 . S
C160 C156 1.385 . S
C160 C159 1.394 . S
Eu161 O163 2.323 1_455 S
Eu161 O164 2.328 1_455 S
Eu161 O165 2.316 1_455 S
Eu161 O168 2.488 . S
Eu161 C169 2.837 . S
Eu161 O172 2.461 . S
O162 Eu152 2.328 . S
O162 C182 1.251 . S
O163 Eu161 2.323 1_655 S
O163 C166 1.279 . S
O164 C153 1.251 . S
O164 Eu161 2.328 1_655 S
O165 Eu161 2.316 1_655 S
O165 C182 1.237 1_556 S
C166 O163 1.279 . S
C166 O167 1.244 . S
O167 C166 1.244 . S
O168 Eu161 2.488 . S
O168 C169 1.271 . S
C169 C155 1.491 . S
C169 Eu161 2.837 . S
C169 O168 1.271 . S
C169 O172 1.261 . S
C170 O154 1.279 1_455 S
C170 O171 1.244 . S
O171 C170 1.244 . S
O172 Eu161 2.461 . S
O172 C169 1.261 . S
O173 Eu152 2.316 1_556 S
O173 C153 1.237 . S
C174 Eu152 2.837 1_556 S
C174 O175 1.271 . S
C174 C176 1.491 . S
C174 O183 1.261 . S
O175 Eu152 2.488 1_556 S
O175 C174 1.271 . S
C176 C174 1.491 . S
C176 C178 1.383 . S
C176 C180 1.388 . S
C177 C179 1.403 . S
C177 C181 1.385 . S
C177 H187 0.931 . S
C178 C176 1.383 . S
C178 C179 1.393 . S
C178 H188 0.930 . S
C179 C177 1.403 . S
C179 C178 1.393 . S
C180 C176 1.388 . S
C180 C181 1.394 . S
C180 H189 0.930 . S
C181 C177 1.385 . S
C181 C180 1.394 . S
C182 O162 1.251 . S
C182 O165 1.237 1_554 S
O183 Eu152 2.461 1_556 S
O183 C174 1.261 . S
H184 C156 0.931 . S
H185 C157 0.930 . S
H186 C159 0.930 . S
H187 C177 0.931 . S
H188 C178 0.930 . S
H189 C180 0.930 . S
Eu190 O192 2.323 . S
Eu190 O200 2.328 . S
Eu190 O211 2.316 1_554 S
Eu190 C212 2.837 1_554 S
Eu190 O213 2.488 1_554 S
Eu190 O221 2.461 1_554 S
C191 O202 1.251 . S
C191 O211 1.237 . S
O192 Eu190 2.323 . S
O192 C208 1.279 . S
C193 C195 1.383 . S
C193 C197 1.388 . S
C193 C207 1.491 . S
C194 C196 1.403 . S
C194 C198 1.385 . S
C194 H222 0.931 . S
C195 C193 1.383 . S
C195 C196 1.393 . S
C195 H223 0.930 . S
C196 C194 1.403 . S
C196 C195 1.393 . S
C197 C193 1.388 . S
C197 C198 1.394 . S
C197 H224 0.930 . S
C198 C194 1.385 . S
C198 C197 1.394 . S
Eu199 O201 2.340 . S
Eu199 O202 2.328 . S
Eu199 O203 2.316 . S
Eu199 O206 2.488 . S
Eu199 C207 2.837 . S
Eu199 O210 2.461 . S
O200 Eu190 2.328 . S
O200 C220 1.251 . S
O201 Eu199 2.340 . S
O201 C204 1.269 1_545 S
O202 C191 1.251 . S
O202 Eu199 2.328 . S
O203 Eu199 2.316 . S
O203 C220 1.237 1_556 S
C204 O201 1.269 1_565 S
C204 O205 1.244 . S
O205 C204 1.244 . S
O206 Eu199 2.488 . S
O206 C207 1.271 . S
C207 C193 1.491 . S
C207 Eu199 2.837 . S
C207 O206 1.271 . S
C207 O210 1.261 . S
C208 O192 1.279 . S
C208 O209 1.244 . S
O209 C208 1.244 . S
O210 Eu199 2.461 . S
O210 C207 1.261 . S
O211 Eu190 2.316 1_556 S
O211 C191 1.237 . S
C212 Eu190 2.837 1_556 S
C212 O213 1.271 . S
C212 C214 1.491 . S
C212 O221 1.261 . S
O213 Eu190 2.488 1_556 S
O213 C212 1.271 . S
C214 C212 1.491 . S
C214 C216 1.383 . S
C214 C218 1.388 . S
C215 C217 1.403 . S
C215 C219 1.385 . S
C215 H225 0.931 . S
C216 C214 1.383 . S
C216 C217 1.393 . S
C216 H226 0.930 . S
C217 C215 1.403 . S
C217 C216 1.393 . S
C218 C214 1.388 . S
C218 C219 1.394 . S
C218 H227 0.930 . S
C219 C215 1.385 . S
C219 C218 1.394 . S
C220 O200 1.251 . S
C220 O203 1.237 1_554 S
O221 Eu190 2.461 1_556 S
O221 C212 1.261 . S
H222 C194 0.931 . S
H223 C195 0.930 . S
H224 C197 0.930 . S
H225 C215 0.931 . S
H226 C216 0.930 . S
H227 C218 0.930 . S
Eu228 O230 2.323 . S
Eu228 O238 2.328 . S
Eu228 O249 2.316 . S
Eu228 C250 2.837 . S
Eu228 O251 2.488 . S
Eu228 O259 2.461 . S
C229 O240 1.251 . S
C229 O249 1.237 . S
O230 Eu228 2.323 . S
O230 C246 1.279 1_655 S
C231 C233 1.383 . S
C231 C235 1.388 . S
C231 C245 1.491 . S
C232 C234 1.403 . S
C232 C236 1.385 . S
C232 H260 0.931 . S
C233 C231 1.383 . S
C233 C234 1.393 . S
C233 H261 0.930 . S
C234 C232 1.403 . S
C234 C233 1.393 . S
C235 C231 1.388 . S
C235 C236 1.394 . S
C235 H262 0.930 . S
C236 C232 1.385 . S
C236 C235 1.394 . S
Eu237 O239 2.339 1_455 S
Eu237 O240 2.328 1_455 S
Eu237 O241 2.316 1_455 S
Eu237 O244 2.488 . S
Eu237 C245 2.837 . S
Eu237 O248 2.461 . S
O238 Eu228 2.328 . S
O238 C258 1.251 . S
O239 Eu237 2.339 1_655 S
O239 C242 1.269 1_545 S
O240 C229 1.251 . S
O240 Eu237 2.328 1_655 S
O241 Eu237 2.316 1_655 S
O241 C258 1.237 . S
C242 O239 1.269 1_565 S
C242 O243 1.244 . S
O243 C242 1.244 . S
O244 Eu237 2.488 . S
O244 C245 1.271 . S
C245 C231 1.491 . S
C245 Eu237 2.837 . S
C245 O244 1.271 . S
C245 O248 1.261 . S
C246 O230 1.279 1_455 S
C246 O247 1.244 . S
O247 C246 1.244 . S
O248 Eu237 2.461 . S
O248 C245 1.261 . S
O249 Eu228 2.316 . S
O249 C229 1.237 . S
C250 Eu228 2.837 . S
C250 O251 1.271 . S
C250 C252 1.491 . S
C250 O259 1.261 . S
O251 Eu228 2.488 . S
O251 C250 1.271 . S
C252 C250 1.491 . S
C252 C254 1.383 . S
C252 C256 1.388 . S
C253 C255 1.403 . S
C253 C257 1.385 . S
C253 H263 0.931 . S
C254 C252 1.383 . S
C254 C255 1.393 . S
C254 H264 0.930 . S
C255 C253 1.403 . S
C255 C254 1.393 . S
C256 C252 1.388 . S
C256 C257 1.394 . S
C256 H265 0.930 . S
C257 C253 1.385 . S
C257 C256 1.394 . S
C258 O238 1.251 . S
C258 O241 1.237 . S
O259 Eu228 2.461 . S
O259 C250 1.261 . S
H260 C232 0.931 . S
H261 C233 0.930 . S
H262 C235 0.930 . S
H263 C253 0.931 . S
H264 C254 0.930 . S
H265 C256 0.930 . S
Eu266 O268 2.323 . S
Eu266 O276 2.328 . S
Eu266 O287 2.316 . S
Eu266 C288 2.837 . S
Eu266 O289 2.488 . S
Eu266 O297 2.461 . S
C267 O278 1.251 . S
C267 O287 1.237 . S
O268 Eu266 2.323 . S
O268 C284 1.279 . S
C269 C271 1.383 . S
C269 C273 1.388 . S
C269 C283 1.491 . S
C270 C272 1.403 . S
C270 C274 1.385 . S
C270 H298 0.931 . S
C271 C269 1.383 . S
C271 C272 1.393 . S
C271 H299 0.930 . S
C272 C270 1.403 . S
C272 C271 1.393 . S
C273 C269 1.388 . S
C273 C274 1.394 . S
C273 H300 0.930 . S
C274 C270 1.385 . S
C274 C273 1.394 . S
Eu275 O277 2.323 . S
Eu275 O278 2.328 . S
Eu275 O279 2.316 . S
Eu275 O282 2.488 . S
Eu275 C283 2.837 . S
Eu275 O286 2.461 . S
O276 Eu266 2.328 . S
O276 C296 1.251 . S
O277 Eu275 2.323 . S
O277 C280 1.279 . S
O278 C267 1.251 . S
O278 Eu275 2.328 . S
O279 Eu275 2.316 . S
O279 C296 1.237 . S
C280 O277 1.279 . S
C280 O281 1.244 . S
O281 C280 1.244 . S
O282 Eu275 2.488 . S
O282 C283 1.271 . S
C283 C269 1.491 . S
C283 Eu275 2.837 . S
C283 O282 1.271 . S
C283 O286 1.261 . S
C284 O268 1.279 . S
C284 O285 1.244 . S
O285 C284 1.244 . S
O286 Eu275 2.461 . S
O286 C283 1.261 . S
O287 Eu266 2.316 . S
O287 C267 1.237 . S
C288 Eu266 2.837 . S
C288 O289 1.271 . S
C288 C290 1.491 . S
C288 O297 1.261 . S
O289 Eu266 2.488 . S
O289 C288 1.271 . S
C290 C288 1.491 . S
C290 C292 1.383 . S
C290 C294 1.388 . S
C291 C293 1.403 . S
C291 C295 1.385 . S
C291 H301 0.931 . S
C292 C290 1.383 . S
C292 C293 1.393 . S
C292 H302 0.930 . S
C293 C291 1.403 . S
C293 C292 1.393 . S
C294 C290 1.388 . S
C294 C295 1.394 . S
C294 H303 0.930 . S
C295 C291 1.385 . S
C295 C294 1.394 . S
C296 O276 1.251 . S
C296 O279 1.237 . S
O297 Eu266 2.461 . S
O297 C288 1.261 . S
H298 C270 0.931 . S
H299 C271 0.930 . S
H300 C273 0.930 . S
H301 C291 0.931 . S
H302 C292 0.930 . S
H303 C294 0.930 . S
Eu304 O306 2.323 1_655 S
Eu304 O314 2.328 1_655 S
Eu304 O325 2.316 1_655 S
Eu304 C326 2.837 . S
Eu304 O327 2.488 . S
Eu304 O335 2.461 . S
C305 O316 1.251 . S
C305 O325 1.237 . S
O306 Eu304 2.323 1_455 S
O306 C322 1.279 . S
C307 C309 1.383 . S
C307 C311 1.388 . S
C307 C321 1.491 . S
C308 C310 1.403 . S
C308 C312 1.385 . S
C308 H336 0.931 . S
C309 C307 1.383 . S
C309 C310 1.393 . S
C309 H337 0.930 . S
C310 C308 1.403 . S
C310 C309 1.393 . S
C311 C307 1.388 . S
C311 C312 1.394 . S
C311 H338 0.930 . S
C312 C308 1.385 . S
C312 C311 1.394 . S
Eu313 O315 2.323 . S
Eu313 O316 2.328 . S
Eu313 O317 2.316 . S
Eu313 O320 2.488 . S
Eu313 C321 2.837 . S
Eu313 O324 2.461 . S
O314 Eu304 2.328 1_455 S
O314 C334 1.251 . S
O315 Eu313 2.323 . S
O315 C318 1.279 1_455 S
O316 C305 1.251 . S
O316 Eu313 2.328 . S
O317 Eu313 2.316 . S
O317 C334 1.237 . S
C318 O315 1.279 1_655 S
C318 O319 1.244 . S
O319 C318 1.244 . S
O320 Eu313 2.488 . S
O320 C321 1.271 . S
C321 C307 1.491 . S
C321 Eu313 2.837 . S
C321 O320 1.271 . S
C321 O324 1.261 . S
C322 O306 1.279 . S
C322 O323 1.244 . S
O323 C322 1.244 . S
O324 Eu313 2.461 . S
O324 C321 1.261 . S
O325 Eu304 2.316 1_455 S
O325 C305 1.237 . S
C326 Eu304 2.837 . S
C326 O327 1.271 . S
C326 C328 1.491 . S
C326 O335 1.261 . S
O327 Eu304 2.488 . S
O327 C326 1.271 . S
C328 C326 1.491 . S
C328 C330 1.383 . S
C328 C332 1.388 . S
C329 C331 1.403 . S
C329 C333 1.385 . S
C329 H339 0.931 . S
C330 C328 1.383 . S
C330 C331 1.393 . S
C330 H340 0.930 . S
C331 C329 1.403 . S
C331 C330 1.393 . S
C332 C328 1.388 . S
C332 C333 1.394 . S
C332 H341 0.930 . S
C333 C329 1.385 . S
C333 C332 1.394 . S
C334 O314 1.251 . S
C334 O317 1.237 . S
O335 Eu304 2.461 . S
O335 C326 1.261 . S
H336 C308 0.931 . S
H337 C309 0.930 . S
H338 C311 0.930 . S
H339 C329 0.931 . S
H340 C330 0.930 . S
H341 C332 0.930 . S
Eu342 O344 2.323 . S
Eu342 O352 2.328 . S
Eu342 O363 2.316 . S
Eu342 C364 2.837 . S
Eu342 O365 2.488 . S
Eu342 O373 2.461 . S
C343 O354 1.251 . S
C343 O363 1.237 . S
O344 Eu342 2.323 . S
O344 C360 1.279 . S
C345 C347 1.383 . S
C345 C349 1.388 . S
C345 C359 1.491 . S
C346 C348 1.403 . S
C346 C350 1.385 . S
C346 H374 0.931 . S
C347 C345 1.383 . S
C347 C348 1.393 . S
C347 H375 0.930 . S
C348 C346 1.403 . S
C348 C347 1.393 . S
C349 C345 1.388 . S
C349 C350 1.394 . S
C349 H376 0.930 . S
C350 C346 1.385 . S
C350 C349 1.394 . S
Eu351 O353 2.323 . S
Eu351 O354 2.328 . S
Eu351 O355 2.316 . S
Eu351 O358 2.488 . S
Eu351 C359 2.837 . S
Eu351 O362 2.461 . S
O352 Eu342 2.328 . S
O352 C372 1.251 . S
O353 Eu351 2.323 . S
O353 C356 1.279 . S
O354 C343 1.251 . S
O354 Eu351 2.328 . S
O355 Eu351 2.316 . S
O355 C372 1.237 . S
C356 O353 1.279 . S
C356 O357 1.244 . S
O357 C356 1.244 . S
O358 Eu351 2.488 . S
O358 C359 1.271 . S
C359 C345 1.491 . S
C359 Eu351 2.837 . S
C359 O358 1.271 . S
C359 O362 1.261 . S
C360 O344 1.279 . S
C360 O361 1.244 . S
O361 C360 1.244 . S
O362 Eu351 2.461 . S
O362 C359 1.261 . S
O363 Eu342 2.316 . S
O363 C343 1.237 . S
C364 Eu342 2.837 . S
C364 O365 1.271 . S
C364 C366 1.491 . S
C364 O373 1.261 . S
O365 Eu342 2.488 . S
O365 C364 1.271 . S
C366 C364 1.491 . S
C366 C368 1.383 . S
C366 C370 1.388 . S
C367 C369 1.403 . S
C367 C371 1.385 . S
C367 H377 0.931 . S
C368 C366 1.383 . S
C368 C369 1.393 . S
C368 H378 0.930 . S
C369 C367 1.403 . S
C369 C368 1.393 . S
C370 C366 1.388 . S
C370 C371 1.394 . S
C370 H379 0.930 . S
C371 C367 1.385 . S
C371 C370 1.394 . S
C372 O352 1.251 . S
C372 O355 1.237 . S
O373 Eu342 2.461 . S
O373 C364 1.261 . S
H374 C346 0.931 . S
H375 C347 0.930 . S
H376 C349 0.930 . S
H377 C367 0.931 . S
H378 C368 0.930 . S
H379 C370 0.930 . S
Eu380 O382 2.323 1_655 S
Eu380 O390 2.328 1_655 S
Eu380 O401 2.316 1_655 S
Eu380 C402 2.837 . S
Eu380 O403 2.488 . S
Eu380 O411 2.461 . S
C381 O392 1.251 . S
C381 O401 1.237 . S
O382 Eu380 2.323 1_455 S
O382 C398 1.279 . S
C383 C385 1.383 . S
C383 C387 1.388 . S
C383 C397 1.491 . S
C384 C386 1.403 . S
C384 C388 1.385 . S
C384 H412 0.931 . S
C385 C383 1.383 . S
C385 C386 1.393 . S
C385 H413 0.930 . S
C386 C384 1.403 . S
C386 C385 1.393 . S
C387 C383 1.388 . S
C387 C388 1.394 . S
C387 H414 0.930 . S
C388 C384 1.385 . S
C388 C387 1.394 . S
Eu389 O391 2.323 . S
Eu389 O392 2.328 . S
Eu389 O393 2.316 . S
Eu389 O396 2.488 . S
Eu389 C397 2.837 . S
Eu389 O400 2.461 . S
O390 Eu380 2.328 1_455 S
O390 C410 1.251 . S
O391 Eu389 2.323 . S
O391 C394 1.279 1_455 S
O392 C381 1.251 . S
O392 Eu389 2.328 . S
O393 Eu389 2.316 . S
O393 C410 1.237 . S
C394 O391 1.279 1_655 S
C394 O395 1.244 . S
O395 C394 1.244 . S
O396 Eu389 2.488 . S
O396 C397 1.271 . S
C397 C383 1.491 . S
C397 Eu389 2.837 . S
C397 O396 1.271 . S
C397 O400 1.261 . S
C398 O382 1.279 . S
C398 O399 1.244 . S
O399 C398 1.244 . S
O400 Eu389 2.461 . S
O400 C397 1.261 . S
O401 Eu380 2.316 1_455 S
O401 C381 1.237 . S
C402 Eu380 2.837 . S
C402 O403 1.271 . S
C402 C404 1.491 . S
C402 O411 1.261 . S
O403 Eu380 2.488 . S
O403 C402 1.271 . S
C404 C402 1.491 . S
C404 C406 1.383 . S
C404 C408 1.388 . S
C405 C407 1.403 . S
C405 C409 1.385 . S
C405 H415 0.931 . S
C406 C404 1.383 . S
C406 C407 1.393 . S
C406 H416 0.930 . S
C407 C405 1.403 . S
C407 C406 1.393 . S
C408 C404 1.388 . S
C408 C409 1.394 . S
C408 H417 0.930 . S
C409 C405 1.385 . S
C409 C408 1.394 . S
C410 O390 1.251 . S
C410 O393 1.237 . S
O411 Eu380 2.461 . S
O411 C402 1.261 . S
H412 C384 0.931 . S
H413 C385 0.930 . S
H414 C387 0.930 . S
H415 C405 0.931 . S
H416 C406 0.930 . S
H417 C408 0.930 . S
Eu418 O420 2.323 . S
Eu418 O428 2.328 . S
Eu418 O439 2.316 . S
Eu418 C440 2.837 . S
Eu418 O441 2.488 . S
Eu418 O449 2.461 . S
C419 O430 1.251 . S
C419 O439 1.237 . S
O420 Eu418 2.323 . S
O420 C436 1.279 . S
C421 C423 1.383 . S
C421 C425 1.388 . S
C421 C435 1.491 . S
C422 C424 1.403 . S
C422 C426 1.385 . S
C422 H450 0.931 . S
C423 C421 1.383 . S
C423 C424 1.393 . S
C423 H451 0.930 . S
C424 C422 1.403 . S
C424 C423 1.393 . S
C425 C421 1.388 . S
C425 C426 1.394 . S
C425 H452 0.930 . S
C426 C422 1.385 . S
C426 C425 1.394 . S
Eu427 O429 2.323 . S
Eu427 O430 2.328 . S
Eu427 O431 2.316 . S
Eu427 O434 2.488 . S
Eu427 C435 2.837 . S
Eu427 O438 2.461 . S
O428 Eu418 2.328 . S
O428 C448 1.251 . S
O429 Eu427 2.323 . S
O429 C432 1.279 . S
O430 C419 1.251 . S
O430 Eu427 2.328 . S
O431 Eu427 2.316 . S
O431 C448 1.237 . S
C432 O429 1.279 . S
C432 O433 1.244 . S
O433 C432 1.244 . S
O434 Eu427 2.488 . S
O434 C435 1.271 . S
C435 C421 1.491 . S
C435 Eu427 2.837 . S
C435 O434 1.271 . S
C435 O438 1.261 . S
C436 O420 1.279 . S
C436 O437 1.244 . S
O437 C436 1.244 . S
O438 Eu427 2.461 . S
O438 C435 1.261 . S
O439 Eu418 2.316 . S
O439 C419 1.237 . S
C440 Eu418 2.837 . S
C440 O441 1.271 . S
C440 C442 1.491 . S
C440 O449 1.261 . S
O441 Eu418 2.488 . S
O441 C440 1.271 . S
C442 C440 1.491 . S
C442 C444 1.383 . S
C442 C446 1.388 . S
C443 C445 1.403 . S
C443 C447 1.385 . S
C443 H453 0.931 . S
C444 C442 1.383 . S
C444 C445 1.393 . S
C444 H454 0.930 . S
C445 C443 1.403 . S
C445 C444 1.393 . S
C446 C442 1.388 . S
C446 C447 1.394 . S
C446 H455 0.930 . S
C447 C443 1.385 . S
C447 C446 1.394 . S
C448 O428 1.251 . S
C448 O431 1.237 . S
O449 Eu418 2.461 . S
O449 C440 1.261 . S
H450 C422 0.931 . S
H451 C423 0.930 . S
H452 C425 0.930 . S
H453 C443 0.931 . S
H454 C444 0.930 . S
H455 C446 0.930 . S
Eu456 O458 2.323 . S
Eu456 O466 2.328 . S
Eu456 O477 2.316 . S
Eu456 C478 2.837 . S
Eu456 O479 2.488 . S
Eu456 O487 2.461 . S
C457 O468 1.251 . S
C457 O477 1.237 . S
O458 Eu456 2.323 . S
O458 C474 1.279 1_655 S
C459 C461 1.383 . S
C459 C463 1.388 . S
C459 C473 1.491 . S
C460 C462 1.403 . S
C460 C464 1.385 . S
C460 H488 0.931 . S
C461 C459 1.383 . S
C461 C462 1.393 . S
C461 H489 0.930 . S
C462 C460 1.403 . S
C462 C461 1.393 . S
C463 C459 1.388 . S
C463 C464 1.394 . S
C463 H490 0.930 . S
C464 C460 1.385 . S
C464 C463 1.394 . S
Eu465 O467 2.323 1_455 S
Eu465 O468 2.328 1_455 S
Eu465 O469 2.316 1_455 S
Eu465 O472 2.488 . S
Eu465 C473 2.837 . S
Eu465 O476 2.461 . S
O466 Eu456 2.328 . S
O466 C486 1.251 . S
O467 Eu465 2.323 1_655 S
O467 C470 1.279 . S
O468 C457 1.251 . S
O468 Eu465 2.328 1_655 S
O469 Eu465 2.316 1_655 S
O469 C486 1.237 . S
C470 O467 1.279 . S
C470 O471 1.244 . S
O471 C470 1.244 . S
O472 Eu465 2.488 . S
O472 C473 1.271 . S
C473 C459 1.491 . S
C473 Eu465 2.837 . S
C473 O472 1.271 . S
C473 O476 1.261 . S
C474 O458 1.279 1_455 S
C474 O475 1.244 . S
O475 C474 1.244 . S
O476 Eu465 2.461 . S
O476 C473 1.261 . S
O477 Eu456 2.316 . S
O477 C457 1.237 . S
C478 Eu456 2.837 . S
C478 O479 1.271 . S
C478 C480 1.491 . S
C478 O487 1.261 . S
O479 Eu456 2.488 . S
O479 C478 1.271 . S
C480 C478 1.491 . S
C480 C482 1.383 . S
C480 C484 1.388 . S
C481 C483 1.403 . S
C481 C485 1.385 . S
C481 H491 0.931 . S
C482 C480 1.383 . S
C482 C483 1.393 . S
C482 H492 0.930 . S
C483 C481 1.403 . S
C483 C482 1.393 . S
C484 C480 1.388 . S
C484 C485 1.394 . S
C484 H493 0.930 . S
C485 C481 1.385 . S
C485 C484 1.394 . S
C486 O466 1.251 . S
C486 O469 1.237 . S
O487 Eu456 2.461 . S
O487 C478 1.261 . S
H488 C460 0.931 . S
H489 C461 0.930 . S
H490 C463 0.930 . S
H491 C481 0.931 . S
H492 C482 0.930 . S
H493 C484 0.930 . S
Eu494 O496 2.323 . S
Eu494 O504 2.328 . S
Eu494 O515 2.316 . S
Eu494 C516 2.837 . S
Eu494 O517 2.488 . S
Eu494 O525 2.461 . S
C495 O506 1.251 . S
C495 O515 1.237 . S
O496 Eu494 2.323 . S
O496 C512 1.279 . S
C497 C499 1.383 . S
C497 C501 1.388 . S
C497 C511 1.491 . S
C498 C500 1.403 . S
C498 C502 1.385 . S
C498 H526 0.931 . S
C499 C497 1.383 . S
C499 C500 1.393 . S
C499 H527 0.930 . S
C500 C498 1.403 . S
C500 C499 1.393 . S
C501 C497 1.388 . S
C501 C502 1.394 . S
C501 H528 0.930 . S
C502 C498 1.385 . S
C502 C501 1.394 . S
Eu503 O505 2.323 . S
Eu503 O506 2.328 . S
Eu503 O507 2.316 . S
Eu503 O510 2.488 . S
Eu503 C511 2.837 . S
Eu503 O514 2.461 . S
O504 Eu494 2.328 . S
O504 C524 1.251 . S
O505 Eu503 2.323 . S
O505 C508 1.279 . S
O506 C495 1.251 . S
O506 Eu503 2.328 . S
O507 Eu503 2.316 . S
O507 C524 1.237 . S
C508 O505 1.279 . S
C508 O509 1.244 . S
O509 C508 1.244 . S
O510 Eu503 2.488 . S
O510 C511 1.271 . S
C511 C497 1.491 . S
C511 Eu503 2.837 . S
C511 O510 1.271 . S
C511 O514 1.261 . S
C512 O496 1.279 . S
C512 O513 1.244 . S
O513 C512 1.244 . S
O514 Eu503 2.461 . S
O514 C511 1.261 . S
O515 Eu494 2.316 . S
O515 C495 1.237 . S
C516 Eu494 2.837 . S
C516 O517 1.271 . S
C516 C518 1.491 . S
C516 O525 1.261 . S
O517 Eu494 2.488 . S
O517 C516 1.271 . S
C518 C516 1.491 . S
C518 C520 1.383 . S
C518 C522 1.388 . S
C519 C521 1.403 . S
C519 C523 1.385 . S
C519 H529 0.931 . S
C520 C518 1.383 . S
C520 C521 1.393 . S
C520 H530 0.930 . S
C521 C519 1.403 . S
C521 C520 1.393 . S
C522 C518 1.388 . S
C522 C523 1.394 . S
C522 H531 0.930 . S
C523 C519 1.385 . S
C523 C522 1.394 . S
C524 O504 1.251 . S
C524 O507 1.237 . S
O525 Eu494 2.461 . S
O525 C516 1.261 . S
H526 C498 0.931 . S
H527 C499 0.930 . S
H528 C501 0.930 . S
H529 C519 0.931 . S
H530 C520 0.930 . S
H531 C522 0.930 . S
Eu532 O534 2.323 . S
Eu532 O542 2.328 . S
Eu532 O553 2.316 . S
Eu532 C554 2.837 . S
Eu532 O555 2.488 . S
Eu532 O563 2.461 . S
C533 O544 1.251 . S
C533 O553 1.237 . S
O534 Eu532 2.323 . S
O534 C550 1.279 1_655 S
C535 C537 1.383 . S
C535 C539 1.388 . S
C535 C549 1.491 . S
C536 C538 1.403 . S
C536 C540 1.385 . S
C536 H564 0.931 . S
C537 C535 1.383 . S
C537 C538 1.393 . S
C537 H565 0.930 . S
C538 C536 1.403 . S
C538 C537 1.393 . S
C539 C535 1.388 . S
C539 C540 1.394 . S
C539 H566 0.930 . S
C540 C536 1.385 . S
C540 C539 1.394 . S
Eu541 O543 2.323 1_455 S
Eu541 O544 2.328 1_455 S
Eu541 O545 2.316 1_455 S
Eu541 O548 2.488 . S
Eu541 C549 2.837 . S
Eu541 O552 2.461 . S
O542 Eu532 2.328 . S
O542 C562 1.251 . S
O543 Eu541 2.323 1_655 S
O543 C546 1.279 . S
O544 C533 1.251 . S
O544 Eu541 2.328 1_655 S
O545 Eu541 2.316 1_655 S
O545 C562 1.237 . S
C546 O543 1.279 . S
C546 O547 1.244 . S
O547 C546 1.244 . S
O548 Eu541 2.488 . S
O548 C549 1.271 . S
C549 C535 1.491 . S
C549 Eu541 2.837 . S
C549 O548 1.271 . S
C549 O552 1.261 . S
C550 O534 1.279 1_455 S
C550 O551 1.244 . S
O551 C550 1.244 . S
O552 Eu541 2.461 . S
O552 C549 1.261 . S
O553 Eu532 2.316 . S
O553 C533 1.237 . S
C554 Eu532 2.837 . S
C554 O555 1.271 . S
C554 C556 1.491 . S
C554 O563 1.261 . S
O555 Eu532 2.488 . S
O555 C554 1.271 . S
C556 C554 1.491 . S
C556 C558 1.383 . S
C556 C560 1.388 . S
C557 C559 1.403 . S
C557 C561 1.385 . S
C557 H567 0.931 . S
C558 C556 1.383 . S
C558 C559 1.393 . S
C558 H568 0.930 . S
C559 C557 1.403 . S
C559 C558 1.393 . S
C560 C556 1.388 . S
C560 C561 1.394 . S
C560 H569 0.930 . S
C561 C557 1.385 . S
C561 C560 1.394 . S
C562 O542 1.251 . S
C562 O545 1.237 . S
O563 Eu532 2.461 . S
O563 C554 1.261 . S
H564 C536 0.931 . S
H565 C537 0.930 . S
H566 C539 0.930 . S
H567 C557 0.931 . S
H568 C558 0.930 . S
H569 C560 0.930 . S
Eu570 O572 2.323 . S
Eu570 O580 2.328 . S
Eu570 O591 2.316 . S
Eu570 C592 2.837 . S
Eu570 O593 2.488 . S
Eu570 O601 2.461 . S
C571 O582 1.251 . S
C571 O591 1.237 . S
O572 Eu570 2.323 . S
O572 C588 1.279 . S
C573 C575 1.383 . S
C573 C577 1.388 . S
C573 C587 1.491 . S
C574 C576 1.403 . S
C574 C578 1.385 . S
C574 H602 0.931 . S
C575 C573 1.383 . S
C575 C576 1.393 . S
C575 H603 0.930 . S
C576 C574 1.403 . S
C576 C575 1.393 . S
C577 C573 1.388 . S
C577 C578 1.394 . S
C577 H604 0.930 . S
C578 C574 1.385 . S
C578 C577 1.394 . S
Eu579 O581 2.323 . S
Eu579 O582 2.328 . S
Eu579 O583 2.316 . S
Eu579 O586 2.488 . S
Eu579 C587 2.837 . S
Eu579 O590 2.461 . S
O580 Eu570 2.328 . S
O580 C600 1.251 . S
O581 Eu579 2.323 . S
O581 C584 1.279 . S
O582 C571 1.251 . S
O582 Eu579 2.328 . S
O583 Eu579 2.316 . S
O583 C600 1.237 . S
C584 O581 1.279 . S
C584 O585 1.244 . S
O585 C584 1.244 . S
O586 Eu579 2.488 . S
O586 C587 1.271 . S
C587 C573 1.491 . S
C587 Eu579 2.837 . S
C587 O586 1.271 . S
C587 O590 1.261 . S
C588 O572 1.279 . S
C588 O589 1.244 . S
O589 C588 1.244 . S
O590 Eu579 2.461 . S
O590 C587 1.261 . S
O591 Eu570 2.316 . S
O591 C571 1.237 . S
C592 Eu570 2.837 . S
C592 O593 1.271 . S
C592 C594 1.491 . S
C592 O601 1.261 . S
O593 Eu570 2.488 . S
O593 C592 1.271 . S
C594 C592 1.491 . S
C594 C596 1.383 . S
C594 C598 1.388 . S
C595 C597 1.403 . S
C595 C599 1.385 . S
C595 H605 0.931 . S
C596 C594 1.383 . S
C596 C597 1.393 . S
C596 H606 0.930 . S
C597 C595 1.403 . S
C597 C596 1.393 . S
C598 C594 1.388 . S
C598 C599 1.394 . S
C598 H607 0.930 . S
C599 C595 1.385 . S
C599 C598 1.394 . S
C600 O580 1.251 . S
C600 O583 1.237 . S
O601 Eu570 2.461 . S
O601 C592 1.261 . S
H602 C574 0.931 . S
H603 C575 0.930 . S
H604 C577 0.930 . S
H605 C595 0.931 . S
H606 C596 0.930 . S
H607 C598 0.930 . S
Eu608 O610 2.323 . S
Eu608 O618 2.328 . S
Eu608 O629 2.316 . S
Eu608 C630 2.837 . S
Eu608 O631 2.488 . S
Eu608 O639 2.461 . S
C609 O620 1.251 . S
C609 O629 1.237 . S
O610 Eu608 2.323 . S
O610 C626 1.279 . S
C611 C613 1.383 . S
C611 C615 1.388 . S
C611 C625 1.491 . S
C612 C614 1.403 . S
C612 C616 1.385 . S
C612 H640 0.931 . S
C613 C611 1.383 . S
C613 C614 1.393 . S
C613 H641 0.930 . S
C614 C612 1.403 . S
C614 C613 1.393 . S
C615 C611 1.388 . S
C615 C616 1.394 . S
C615 H642 0.930 . S
C616 C612 1.385 . S
C616 C615 1.394 . S
Eu617 O619 2.323 . S
Eu617 O620 2.328 . S
Eu617 O621 2.316 . S
Eu617 O624 2.488 . S
Eu617 C625 2.837 . S
Eu617 O628 2.461 . S
O618 Eu608 2.328 . S
O618 C638 1.251 . S
O619 Eu617 2.323 . S
O619 C622 1.279 . S
O620 C609 1.251 . S
O620 Eu617 2.328 . S
O621 Eu617 2.316 . S
O621 C638 1.237 . S
C622 O619 1.279 . S
C622 O623 1.244 . S
O623 C622 1.244 . S
O624 Eu617 2.488 . S
O624 C625 1.271 . S
C625 C611 1.491 . S
C625 Eu617 2.837 . S
C625 O624 1.271 . S
C625 O628 1.261 . S
C626 O610 1.279 . S
C626 O627 1.244 . S
O627 C626 1.244 . S
O628 Eu617 2.461 . S
O628 C625 1.261 . S
O629 Eu608 2.316 . S
O629 C609 1.237 . S
C630 Eu608 2.837 . S
C630 O631 1.271 . S
C630 C632 1.491 . S
C630 O639 1.261 . S
O631 Eu608 2.488 . S
O631 C630 1.271 . S
C632 C630 1.491 . S
C632 C634 1.383 . S
C632 C636 1.388 . S
C633 C635 1.403 . S
C633 C637 1.385 . S
C633 H643 0.931 . S
C634 C632 1.383 . S
C634 C635 1.393 . S
C634 H644 0.930 . S
C635 C633 1.403 . S
C635 C634 1.393 . S
C636 C632 1.388 . S
C636 C637 1.394 . S
C636 H645 0.930 . S
C637 C633 1.385 . S
C637 C636 1.394 . S
C638 O618 1.251 . S
C638 O621 1.237 . S
O639 Eu608 2.461 . S
O639 C630 1.261 . S
H640 C612 0.931 . S
H641 C613 0.930 . S
H642 C615 0.930 . S
H643 C633 0.931 . S
H644 C634 0.930 . S
H645 C636 0.930 . S
Eu646 O648 2.340 . S
Eu646 O656 2.328 . S
Eu646 O667 2.316 . S
Eu646 C668 2.837 . S
Eu646 O669 2.488 . S
Eu646 O677 2.461 . S
C647 O658 1.251 . S
C647 O667 1.237 . S
O648 Eu646 2.340 . S
O648 C664 1.268 1_565 S
C649 C651 1.383 . S
C649 C653 1.388 . S
C649 C663 1.491 . S
C650 C652 1.403 . S
C650 C654 1.385 . S
C650 H678 0.931 . S
C651 C649 1.383 . S
C651 C652 1.393 . S
C651 H679 0.930 . S
C652 C650 1.403 . S
C652 C651 1.393 . S
C653 C649 1.388 . S
C653 C654 1.394 . S
C653 H680 0.930 . S
C654 C650 1.385 . S
C654 C653 1.394 . S
Eu655 O657 2.323 . S
Eu655 O658 2.328 . S
Eu655 O659 2.316 . S
Eu655 O662 2.488 . S
Eu655 C663 2.837 . S
Eu655 O666 2.461 . S
O656 Eu646 2.328 . S
O656 C676 1.251 . S
O657 Eu655 2.323 . S
O657 C660 1.279 . S
O658 C647 1.251 . S
O658 Eu655 2.328 . S
O659 Eu655 2.316 . S
O659 C676 1.237 . S
C660 O657 1.279 . S
C660 O661 1.244 . S
O661 C660 1.244 . S
O662 Eu655 2.488 . S
O662 C663 1.271 . S
C663 C649 1.491 . S
C663 Eu655 2.837 . S
C663 O662 1.271 . S
C663 O666 1.261 . S
C664 O648 1.268 1_545 S
C664 O665 1.244 . S
O665 C664 1.244 . S
O666 Eu655 2.461 . S
O666 C663 1.261 . S
O667 Eu646 2.316 . S
O667 C647 1.237 . S
C668 Eu646 2.837 . S
C668 O669 1.271 . S
C668 C670 1.491 . S
C668 O677 1.261 . S
O669 Eu646 2.488 . S
O669 C668 1.271 . S
C670 C668 1.491 . S
C670 C672 1.383 . S
C670 C674 1.388 . S
C671 C673 1.403 . S
C671 C675 1.385 . S
C671 H681 0.931 . S
C672 C670 1.383 . S
C672 C673 1.393 . S
C672 H682 0.930 . S
C673 C671 1.403 . S
C673 C672 1.393 . S
C674 C670 1.388 . S
C674 C675 1.394 . S
C674 H683 0.930 . S
C675 C671 1.385 . S
C675 C674 1.394 . S
C676 O656 1.251 . S
C676 O659 1.237 . S
O677 Eu646 2.461 . S
O677 C668 1.261 . S
H678 C650 0.931 . S
H679 C651 0.930 . S
H680 C653 0.930 . S
H681 C671 0.931 . S
H682 C672 0.930 . S
H683 C674 0.930 . S
Eu684 O686 2.339 . S
Eu684 O694 2.328 . S
Eu684 O705 2.316 . S
Eu684 C706 2.837 . S
Eu684 O707 2.488 . S
Eu684 O715 2.461 . S
C685 O696 1.251 . S
C685 O705 1.237 . S
O686 Eu684 2.339 . S
O686 C702 1.269 1_565 S
C687 C689 1.383 . S
C687 C691 1.388 . S
C687 C701 1.491 . S
C688 C690 1.403 . S
C688 C692 1.385 . S
C688 H716 0.931 . S
C689 C687 1.383 . S
C689 C690 1.393 . S
C689 H717 0.930 . S
C690 C688 1.403 . S
C690 C689 1.393 . S
C691 C687 1.388 . S
C691 C692 1.394 . S
C691 H718 0.930 . S
C692 C688 1.385 . S
C692 C691 1.394 . S
Eu693 O695 2.323 . S
Eu693 O696 2.328 . S
Eu693 O697 2.316 . S
Eu693 O700 2.488 . S
Eu693 C701 2.837 . S
Eu693 O704 2.461 . S
O694 Eu684 2.328 . S
O694 C714 1.251 . S
O695 Eu693 2.323 . S
O695 C698 1.279 . S
O696 C685 1.251 . S
O696 Eu693 2.328 . S
O697 Eu693 2.316 . S
O697 C714 1.237 . S
C698 O695 1.279 . S
C698 O699 1.244 . S
O699 C698 1.244 . S
O700 Eu693 2.488 . S
O700 C701 1.271 . S
C701 C687 1.491 . S
C701 Eu693 2.837 . S
C701 O700 1.271 . S
C701 O704 1.261 . S
C702 O686 1.269 1_545 S
C702 O703 1.244 . S
O703 C702 1.244 . S
O704 Eu693 2.461 . S
O704 C701 1.261 . S
O705 Eu684 2.316 . S
O705 C685 1.237 . S
C706 Eu684 2.837 . S
C706 O707 1.271 . S
C706 C708 1.491 . S
C706 O715 1.261 . S
O707 Eu684 2.488 . S
O707 C706 1.271 . S
C708 C706 1.491 . S
C708 C710 1.383 . S
C708 C712 1.388 . S
C709 C711 1.403 . S
C709 C713 1.385 . S
C709 H719 0.931 . S
C710 C708 1.383 . S
C710 C711 1.393 . S
C710 H720 0.930 . S
C711 C709 1.403 . S
C711 C710 1.393 . S
C712 C708 1.388 . S
C712 C713 1.394 . S
C712 H721 0.930 . S
C713 C709 1.385 . S
C713 C712 1.394 . S
C714 O694 1.251 . S
C714 O697 1.237 . S
O715 Eu684 2.461 . S
O715 C706 1.261 . S
H716 C688 0.931 . S
H717 C689 0.930 . S
H718 C691 0.930 . S
H719 C709 0.931 . S
H720 C710 0.930 . S
H721 C712 0.930 . S
Eu722 O724 2.323 . S
Eu722 O732 2.328 . S
Eu722 O743 2.316 . S
Eu722 C744 2.837 . S
Eu722 O745 2.488 . S
Eu722 O753 2.461 . S
C723 O734 1.251 . S
C723 O743 1.237 . S
O724 Eu722 2.323 . S
O724 C740 1.279 . S
C725 C727 1.383 . S
C725 C729 1.388 . S
C725 C739 1.491 . S
C726 C728 1.403 . S
C726 C730 1.385 . S
C726 H754 0.931 . S
C727 C725 1.383 . S
C727 C728 1.393 . S
C727 H755 0.930 . S
C728 C726 1.403 . S
C728 C727 1.393 . S
C729 C725 1.388 . S
C729 C730 1.394 . S
C729 H756 0.930 . S
C730 C726 1.385 . S
C730 C729 1.394 . S
Eu731 O733 2.323 . S
Eu731 O734 2.328 . S
Eu731 O735 2.316 . S
Eu731 O738 2.488 . S
Eu731 C739 2.837 . S
Eu731 O742 2.461 . S
O732 Eu722 2.328 . S
O732 C752 1.251 . S
O733 Eu731 2.323 . S
O733 C736 1.279 . S
O734 C723 1.251 . S
O734 Eu731 2.328 . S
O735 Eu731 2.316 . S
O735 C752 1.237 . S
C736 O733 1.279 . S
C736 O737 1.244 . S
O737 C736 1.244 . S
O738 Eu731 2.488 . S
O738 C739 1.271 . S
C739 C725 1.491 . S
C739 Eu731 2.837 . S
C739 O738 1.271 . S
C739 O742 1.261 . S
C740 O724 1.279 . S
C740 O741 1.244 . S
O741 C740 1.244 . S
O742 Eu731 2.461 . S
O742 C739 1.261 . S
O743 Eu722 2.316 . S
O743 C723 1.237 . S
C744 Eu722 2.837 . S
C744 O745 1.271 . S
C744 C746 1.491 . S
C744 O753 1.261 . S
O745 Eu722 2.488 . S
O745 C744 1.271 . S
C746 C744 1.491 . S
C746 C748 1.383 . S
C746 C750 1.388 . S
C747 C749 1.403 . S
C747 C751 1.385 . S
C747 H757 0.931 . S
C748 C746 1.383 . S
C748 C749 1.393 . S
C748 H758 0.930 . S
C749 C747 1.403 . S
C749 C748 1.393 . S
C750 C746 1.388 . S
C750 C751 1.394 . S
C750 H759 0.930 . S
C751 C747 1.385 . S
C751 C750 1.394 . S
C752 O732 1.251 . S
C752 O735 1.237 . S
O753 Eu722 2.461 . S
O753 C744 1.261 . S
H754 C726 0.931 . S
H755 C727 0.930 . S
H756 C729 0.930 . S
H757 C747 0.931 . S
H758 C748 0.930 . S
H759 C750 0.930 . S
Eu760 O762 2.323 . S
Eu760 O770 2.328 . S
Eu760 O781 2.316 . S
Eu760 C782 2.837 . S
Eu760 O783 2.488 . S
Eu760 O791 2.461 . S
C761 O772 1.251 . S
C761 O781 1.237 . S
O762 Eu760 2.323 . S
O762 C778 1.279 . S
C763 C765 1.383 . S
C763 C767 1.388 . S
C763 C777 1.491 . S
C764 C766 1.403 . S
C764 C768 1.385 . S
C764 H792 0.931 . S
C765 C763 1.383 . S
C765 C766 1.393 . S
C765 H793 0.930 . S
C766 C764 1.403 . S
C766 C765 1.393 . S
C767 C763 1.388 . S
C767 C768 1.394 . S
C767 H794 0.930 . S
C768 C764 1.385 . S
C768 C767 1.394 . S
Eu769 O771 2.323 . S
Eu769 O772 2.328 . S
Eu769 O773 2.316 . S
Eu769 O776 2.488 . S
Eu769 C777 2.837 . S
Eu769 O780 2.461 . S
O770 Eu760 2.328 . S
O770 C790 1.251 . S
O771 Eu769 2.323 . S
O771 C774 1.279 . S
O772 C761 1.251 . S
O772 Eu769 2.328 . S
O773 Eu769 2.316 . S
O773 C790 1.237 . S
C774 O771 1.279 . S
C774 O775 1.244 . S
O775 C774 1.244 . S
O776 Eu769 2.488 . S
O776 C777 1.271 . S
C777 C763 1.491 . S
C777 Eu769 2.837 . S
C777 O776 1.271 . S
C777 O780 1.261 . S
C778 O762 1.279 . S
C778 O779 1.244 . S
O779 C778 1.244 . S
O780 Eu769 2.461 . S
O780 C777 1.261 . S
O781 Eu760 2.316 . S
O781 C761 1.237 . S
C782 Eu760 2.837 . S
C782 O783 1.271 . S
C782 C784 1.491 . S
C782 O791 1.261 . S
O783 Eu760 2.488 . S
O783 C782 1.271 . S
C784 C782 1.491 . S
C784 C786 1.383 . S
C784 C788 1.388 . S
C785 C787 1.403 . S
C785 C789 1.385 . S
C785 H795 0.931 . S
C786 C784 1.383 . S
C786 C787 1.393 . S
C786 H796 0.930 . S
C787 C785 1.403 . S
C787 C786 1.393 . S
C788 C784 1.388 . S
C788 C789 1.394 . S
C788 H797 0.930 . S
C789 C785 1.385 . S
C789 C788 1.394 . S
C790 O770 1.251 . S
C790 O773 1.237 . S
O791 Eu760 2.461 . S
O791 C782 1.261 . S
H792 C764 0.931 . S
H793 C765 0.930 . S
H794 C767 0.930 . S
H795 C785 0.931 . S
H796 C786 0.930 . S
H797 C788 0.930 . S
Eu798 O800 2.323 . S
Eu798 O808 2.328 . S
Eu798 O819 2.316 . S
Eu798 C820 2.837 . S
Eu798 O821 2.488 . S
Eu798 O829 2.461 . S
C799 O810 1.251 . S
C799 O819 1.237 . S
O800 Eu798 2.323 . S
O800 C816 1.279 . S
C801 C803 1.383 . S
C801 C805 1.388 . S
C801 C815 1.491 . S
C802 C804 1.403 . S
C802 C806 1.385 . S
C802 H830 0.931 . S
C803 C801 1.383 . S
C803 C804 1.393 . S
C803 H831 0.930 . S
C804 C802 1.403 . S
C804 C803 1.393 . S
C805 C801 1.388 . S
C805 C806 1.394 . S
C805 H832 0.930 . S
C806 C802 1.385 . S
C806 C805 1.394 . S
Eu807 O809 2.340 . S
Eu807 O810 2.328 . S
Eu807 O811 2.316 . S
Eu807 O814 2.488 . S
Eu807 C815 2.837 . S
Eu807 O818 2.461 . S
O808 Eu798 2.328 . S
O808 C828 1.251 . S
O809 Eu807 2.340 . S
O809 C812 1.268 1_545 S
O810 C799 1.251 . S
O810 Eu807 2.328 . S
O811 Eu807 2.316 . S
O811 C828 1.237 . S
C812 O809 1.268 1_565 S
C812 O813 1.244 . S
O813 C812 1.244 . S
O814 Eu807 2.488 . S
O814 C815 1.271 . S
C815 C801 1.491 . S
C815 Eu807 2.837 . S
C815 O814 1.271 . S
C815 O818 1.261 . S
C816 O800 1.279 . S
C816 O817 1.244 . S
O817 C816 1.244 . S
O818 Eu807 2.461 . S
O818 C815 1.261 . S
O819 Eu798 2.316 . S
O819 C799 1.237 . S
C820 Eu798 2.837 . S
C820 O821 1.271 . S
C820 C822 1.491 . S
C820 O829 1.261 . S
O821 Eu798 2.488 . S
O821 C820 1.271 . S
C822 C820 1.491 . S
C822 C824 1.383 . S
C822 C826 1.388 . S
C823 C825 1.403 . S
C823 C827 1.385 . S
C823 H833 0.931 . S
C824 C822 1.383 . S
C824 C825 1.393 . S
C824 H834 0.930 . S
C825 C823 1.403 . S
C825 C824 1.393 . S
C826 C822 1.388 . S
C826 C827 1.394 . S
C826 H835 0.930 . S
C827 C823 1.385 . S
C827 C826 1.394 . S
C828 O808 1.251 . S
C828 O811 1.237 . S
O829 Eu798 2.461 . S
O829 C820 1.261 . S
H830 C802 0.931 . S
H831 C803 0.930 . S
H832 C805 0.930 . S
H833 C823 0.931 . S
H834 C824 0.930 . S
H835 C826 0.930 . S
Eu836 O838 2.323 . S
Eu836 O846 2.328 . S
Eu836 O857 2.316 . S
Eu836 C858 2.837 . S
Eu836 O859 2.488 . S
Eu836 O867 2.461 . S
C837 O848 1.251 . S
C837 O857 1.237 . S
O838 Eu836 2.323 . S
O838 C854 1.279 . S
C839 C841 1.383 . S
C839 C843 1.388 . S
C839 C853 1.491 . S
C840 C842 1.403 . S
C840 C844 1.385 . S
C840 H868 0.931 . S
C841 C839 1.383 . S
C841 C842 1.393 . S
C841 H869 0.930 . S
C842 C840 1.403 . S
C842 C841 1.393 . S
C843 C839 1.388 . S
C843 C844 1.394 . S
C843 H870 0.930 . S
C844 C840 1.385 . S
C844 C843 1.394 . S
Eu845 O847 2.339 . S
Eu845 O848 2.328 . S
Eu845 O849 2.316 . S
Eu845 O852 2.488 . S
Eu845 C853 2.837 . S
Eu845 O856 2.461 . S
O846 Eu836 2.328 . S
O846 C866 1.251 . S
O847 Eu845 2.339 . S
O847 C850 1.269 1_545 S
O848 C837 1.251 . S
O848 Eu845 2.328 . S
O849 Eu845 2.316 . S
O849 C866 1.237 . S
C850 O847 1.269 1_565 S
C850 O851 1.244 . S
O851 C850 1.244 . S
O852 Eu845 2.488 . S
O852 C853 1.271 . S
C853 C839 1.491 . S
C853 Eu845 2.837 . S
C853 O852 1.271 . S
C853 O856 1.261 . S
C854 O838 1.279 . S
C854 O855 1.244 . S
O855 C854 1.244 . S
O856 Eu845 2.461 . S
O856 C853 1.261 . S
O857 Eu836 2.316 . S
O857 C837 1.237 . S
C858 Eu836 2.837 . S
C858 O859 1.271 . S
C858 C860 1.491 . S
C858 O867 1.261 . S
O859 Eu836 2.488 . S
O859 C858 1.271 . S
C860 C858 1.491 . S
C860 C862 1.383 . S
C860 C864 1.388 . S
C861 C863 1.403 . S
C861 C865 1.385 . S
C861 H871 0.931 . S
C862 C860 1.383 . S
C862 C863 1.393 . S
C862 H872 0.930 . S
C863 C861 1.403 . S
C863 C862 1.393 . S
C864 C860 1.388 . S
C864 C865 1.394 . S
C864 H873 0.930 . S
C865 C861 1.385 . S
C865 C864 1.394 . S
C866 O846 1.251 . S
C866 O849 1.237 . S
O867 Eu836 2.461 . S
O867 C858 1.261 . S
H868 C840 0.931 . S
H869 C841 0.930 . S
H870 C843 0.930 . S
H871 C861 0.931 . S
H872 C862 0.930 . S
H873 C864 0.930 . S
Eu874 O876 2.323 . S
Eu874 O884 2.328 . S
Eu874 O895 2.316 . S
Eu874 C896 2.837 . S
Eu874 O897 2.488 . S
Eu874 O905 2.461 . S
C875 O886 1.251 . S
C875 O895 1.237 . S
O876 Eu874 2.323 . S
O876 C892 1.279 . S
C877 C879 1.383 . S
C877 C881 1.388 . S
C877 C891 1.491 . S
C878 C880 1.403 . S
C878 C882 1.385 . S
C878 H906 0.931 . S
C879 C877 1.383 . S
C879 C880 1.393 . S
C879 H907 0.930 . S
C880 C878 1.403 . S
C880 C879 1.393 . S
C881 C877 1.388 . S
C881 C882 1.394 . S
C881 H908 0.930 . S
C882 C878 1.385 . S
C882 C881 1.394 . S
Eu883 O885 2.323 . S
Eu883 O886 2.328 . S
Eu883 O887 2.316 . S
Eu883 O890 2.488 . S
Eu883 C891 2.837 . S
Eu883 O894 2.461 . S
O884 Eu874 2.328 . S
O884 C904 1.251 . S
O885 Eu883 2.323 . S
O885 C888 1.279 . S
O886 C875 1.251 . S
O886 Eu883 2.328 . S
O887 Eu883 2.316 . S
O887 C904 1.237 . S
C888 O885 1.279 . S
C888 O889 1.244 . S
O889 C888 1.244 . S
O890 Eu883 2.488 . S
O890 C891 1.271 . S
C891 C877 1.491 . S
C891 Eu883 2.837 . S
C891 O890 1.271 . S
C891 O894 1.261 . S
C892 O876 1.279 . S
C892 O893 1.244 . S
O893 C892 1.244 . S
O894 Eu883 2.461 . S
O894 C891 1.261 . S
O895 Eu874 2.316 . S
O895 C875 1.237 . S
C896 Eu874 2.837 . S
C896 O897 1.271 . S
C896 C898 1.491 . S
C896 O905 1.261 . S
O897 Eu874 2.488 . S
O897 C896 1.271 . S
C898 C896 1.491 . S
C898 C900 1.383 . S
C898 C902 1.388 . S
C899 C901 1.403 . S
C899 C903 1.385 . S
C899 H909 0.931 . S
C900 C898 1.383 . S
C900 C901 1.393 . S
C900 H910 0.930 . S
C901 C899 1.403 . S
C901 C900 1.393 . S
C902 C898 1.388 . S
C902 C903 1.394 . S
C902 H911 0.930 . S
C903 C899 1.385 . S
C903 C902 1.394 . S
C904 O884 1.251 . S
C904 O887 1.237 . S
O905 Eu874 2.461 . S
O905 C896 1.261 . S
H906 C878 0.931 . S
H907 C879 0.930 . S
H908 C881 0.930 . S
H909 C899 0.931 . S
H910 C900 0.930 . S
H911 C902 0.930 . S
Eu912 O914 2.323 . S
Eu912 O922 2.328 . S
Eu912 O933 2.316 . S
Eu912 C934 2.837 . S
Eu912 O935 2.488 . S
Eu912 O943 2.461 . S
C913 O924 1.251 . S
C913 O933 1.237 1_556 S
O914 Eu912 2.323 . S
O914 C930 1.279 . S
C915 C917 1.383 . S
C915 C919 1.388 . S
C915 C929 1.491 . S
C916 C918 1.403 . S
C916 C920 1.385 . S
C916 H944 0.931 . S
C917 C915 1.383 . S
C917 C918 1.393 . S
C917 H945 0.930 . S
C918 C916 1.403 . S
C918 C917 1.393 . S
C919 C915 1.388 . S
C919 C920 1.394 . S
C919 H946 0.930 . S
C920 C916 1.385 . S
C920 C919 1.394 . S
Eu921 O923 2.323 . S
Eu921 O924 2.328 . S
Eu921 O925 2.316 1_556 S
Eu921 O928 2.488 1_556 S
Eu921 C929 2.837 1_556 S
Eu921 O932 2.461 1_556 S
O922 Eu912 2.328 . S
O922 C942 1.251 . S
O923 Eu921 2.323 . S
O923 C926 1.279 . S
O924 C913 1.251 . S
O924 Eu921 2.328 . S
O925 Eu921 2.316 1_554 S
O925 C942 1.237 . S
C926 O923 1.279 . S
C926 O927 1.244 . S
O927 C926 1.244 . S
O928 Eu921 2.488 1_554 S
O928 C929 1.271 . S
C929 C915 1.491 . S
C929 Eu921 2.837 1_554 S
C929 O928 1.271 . S
C929 O932 1.261 . S
C930 O914 1.279 . S
C930 O931 1.244 . S
O931 C930 1.244 . S
O932 Eu921 2.461 1_554 S
O932 C929 1.261 . S
O933 Eu912 2.316 . S
O933 C913 1.237 1_554 S
C934 Eu912 2.837 . S
C934 O935 1.271 . S
C934 C936 1.491 . S
C934 O943 1.261 . S
O935 Eu912 2.488 . S
O935 C934 1.271 . S
C936 C934 1.491 . S
C936 C938 1.383 . S
C936 C940 1.388 . S
C937 C939 1.403 . S
C937 C941 1.385 . S
C937 H947 0.931 . S
C938 C936 1.383 . S
C938 C939 1.393 . S
C938 H948 0.930 . S
C939 C937 1.403 . S
C939 C938 1.393 . S
C940 C936 1.388 . S
C940 C941 1.394 . S
C940 H949 0.930 . S
C941 C937 1.385 . S
C941 C940 1.394 . S
C942 O922 1.251 . S
C942 O925 1.237 . S
O943 Eu912 2.461 . S
O943 C934 1.261 . S
H944 C916 0.931 . S
H945 C917 0.930 . S
H946 C919 0.930 . S
H947 C937 0.931 . S
H948 C938 0.930 . S
H949 C940 0.930 . S
Eu950 O952 2.323 . S
Eu950 O960 2.328 . S
Eu950 O971 2.316 . S
Eu950 C972 2.837 . S
Eu950 O973 2.488 . S
Eu950 O981 2.461 . S
C951 O962 1.251 . S
C951 O971 1.237 1_556 S
O952 Eu950 2.323 . S
O952 C968 1.279 . S
C953 C955 1.383 . S
C953 C957 1.388 . S
C953 C967 1.491 . S
C954 C956 1.403 . S
C954 C958 1.385 . S
C954 H982 0.931 . S
C955 C953 1.383 . S
C955 C956 1.393 . S
C955 H983 0.930 . S
C956 C954 1.403 . S
C956 C955 1.393 . S
C957 C953 1.388 . S
C957 C958 1.394 . S
C957 H984 0.930 . S
C958 C954 1.385 . S
C958 C957 1.394 . S
Eu959 O961 2.323 . S
Eu959 O962 2.328 . S
Eu959 O963 2.316 1_556 S
Eu959 O966 2.488 1_556 S
Eu959 C967 2.837 1_556 S
Eu959 O970 2.461 1_556 S
O960 Eu950 2.328 . S
O960 C980 1.251 . S
O961 Eu959 2.323 . S
O961 C964 1.279 . S
O962 C951 1.251 . S
O962 Eu959 2.328 . S
O963 Eu959 2.316 1_554 S
O963 C980 1.237 . S
C964 O961 1.279 . S
C964 O965 1.244 . S
O965 C964 1.244 . S
O966 Eu959 2.488 1_554 S
O966 C967 1.271 . S
C967 C953 1.491 . S
C967 Eu959 2.837 1_554 S
C967 O966 1.271 . S
C967 O970 1.261 . S
C968 O952 1.279 . S
C968 O969 1.244 . S
O969 C968 1.244 . S
O970 Eu959 2.461 1_554 S
O970 C967 1.261 . S
O971 Eu950 2.316 . S
O971 C951 1.237 1_554 S
C972 Eu950 2.837 . S
C972 O973 1.271 . S
C972 C974 1.491 . S
C972 O981 1.261 . S
O973 Eu950 2.488 . S
O973 C972 1.271 . S
C974 C972 1.491 . S
C974 C976 1.383 . S
C974 C978 1.388 . S
C975 C977 1.403 . S
C975 C979 1.385 . S
C975 H985 0.931 . S
C976 C974 1.383 . S
C976 C977 1.393 . S
C976 H986 0.930 . S
C977 C975 1.403 . S
C977 C976 1.393 . S
C978 C974 1.388 . S
C978 C979 1.394 . S
C978 H987 0.930 . S
C979 C975 1.385 . S
C979 C978 1.394 . S
C980 O960 1.251 . S
C980 O963 1.237 . S
O981 Eu950 2.461 . S
O981 C972 1.261 . S
H982 C954 0.931 . S
H983 C955 0.930 . S
H984 C957 0.930 . S
H985 C975 0.931 . S
H986 C976 0.930 . S
H987 C978 0.930 . S
Eu988 O990 2.323 . S
Eu988 O998 2.328 . S
Eu988 O1009 2.316 . S
Eu988 C1010 2.837 . S
Eu988 O1011 2.488 . S
Eu988 O1019 2.461 . S
C989 O1000 1.251 . S
C989 O1009 1.237 . S
O990 Eu988 2.323 . S
O990 C1006 1.279 . S
C991 C993 1.383 . S
C991 C995 1.388 . S
C991 C1005 1.491 . S
C992 C994 1.403 . S
C992 C996 1.385 . S
C992 H1020 0.931 . S
C993 C991 1.383 . S
C993 C994 1.393 . S
C993 H1021 0.930 . S
C994 C992 1.403 . S
C994 C993 1.393 . S
C995 C991 1.388 . S
C995 C996 1.394 . S
C995 H1022 0.930 . S
C996 C992 1.385 . S
C996 C995 1.394 . S
Eu997 O999 2.323 . S
Eu997 O1000 2.328 . S
Eu997 O1001 2.316 . S
Eu997 O1004 2.488 . S
Eu997 C1005 2.837 . S
Eu997 O1008 2.461 . S
O998 Eu988 2.328 . S
O998 C1018 1.251 . S
O999 Eu997 2.323 . S
O999 C1002 1.279 . S
O1000 C989 1.251 . S
O1000 Eu997 2.328 . S
O1001 Eu997 2.316 . S
O1001 C1018 1.237 . S
C1002 O999 1.279 . S
C1002 O1003 1.244 . S
O1003 C1002 1.244 . S
O1004 Eu997 2.488 . S
O1004 C1005 1.271 . S
C1005 C991 1.491 . S
C1005 Eu997 2.837 . S
C1005 O1004 1.271 . S
C1005 O1008 1.261 . S
C1006 O990 1.279 . S
C1006 O1007 1.244 . S
O1007 C1006 1.244 . S
O1008 Eu997 2.461 . S
O1008 C1005 1.261 . S
O1009 Eu988 2.316 . S
O1009 C989 1.237 . S
C1010 Eu988 2.837 . S
C1010 O1011 1.271 . S
C1010 C1012 1.491 . S
C1010 O1019 1.261 . S
O1011 Eu988 2.488 . S
O1011 C1010 1.271 . S
C1012 C1010 1.491 . S
C1012 C1014 1.383 . S
C1012 C1016 1.388 . S
C1013 C1015 1.403 . S
C1013 C1017 1.385 . S
C1013 H1023 0.931 . S
C1014 C1012 1.383 . S
C1014 C1015 1.393 . S
C1014 H1024 0.930 . S
C1015 C1013 1.403 . S
C1015 C1014 1.393 . S
C1016 C1012 1.388 . S
C1016 C1017 1.394 . S
C1016 H1025 0.930 . S
C1017 C1013 1.385 . S
C1017 C1016 1.394 . S
C1018 O998 1.251 . S
C1018 O1001 1.237 . S
O1019 Eu988 2.461 . S
O1019 C1010 1.261 . S
H1020 C992 0.931 . S
H1021 C993 0.930 . S
H1022 C995 0.930 . S
H1023 C1013 0.931 . S
H1024 C1014 0.930 . S
H1025 C1016 0.930 . S
Eu1026 O1028 2.323 . S
Eu1026 O1036 2.328 . S
Eu1026 O1047 2.316 . S
Eu1026 C1048 2.837 . S
Eu1026 O1049 2.488 . S
Eu1026 O1057 2.461 . S
C1027 O1038 1.251 . S
C1027 O1047 1.237 . S
O1028 Eu1026 2.323 . S
O1028 C1044 1.279 . S
C1029 C1031 1.383 . S
C1029 C1033 1.388 . S
C1029 C1043 1.491 . S
C1030 C1032 1.403 . S
C1030 C1034 1.385 . S
C1030 H1058 0.931 . S
C1031 C1029 1.383 . S
C1031 C1032 1.393 . S
C1031 H1059 0.930 . S
C1032 C1030 1.403 . S
C1032 C1031 1.393 . S
C1033 C1029 1.388 . S
C1033 C1034 1.394 . S
C1033 H1060 0.930 . S
C1034 C1030 1.385 . S
C1034 C1033 1.394 . S
Eu1035 O1037 2.323 . S
Eu1035 O1038 2.328 . S
Eu1035 O1039 2.316 . S
Eu1035 O1042 2.488 . S
Eu1035 C1043 2.837 . S
Eu1035 O1046 2.461 . S
O1036 Eu1026 2.328 . S
O1036 C1056 1.251 . S
O1037 Eu1035 2.323 . S
O1037 C1040 1.279 . S
O1038 C1027 1.251 . S
O1038 Eu1035 2.328 . S
O1039 Eu1035 2.316 . S
O1039 C1056 1.237 . S
C1040 O1037 1.279 . S
C1040 O1041 1.244 . S
O1041 C1040 1.244 . S
O1042 Eu1035 2.488 . S
O1042 C1043 1.271 . S
C1043 C1029 1.491 . S
C1043 Eu1035 2.837 . S
C1043 O1042 1.271 . S
C1043 O1046 1.261 . S
C1044 O1028 1.279 . S
C1044 O1045 1.244 . S
O1045 C1044 1.244 . S
O1046 Eu1035 2.461 . S
O1046 C1043 1.261 . S
O1047 Eu1026 2.316 . S
O1047 C1027 1.237 . S
C1048 Eu1026 2.837 . S
C1048 O1049 1.271 . S
C1048 C1050 1.491 . S
C1048 O1057 1.261 . S
O1049 Eu1026 2.488 . S
O1049 C1048 1.271 . S
C1050 C1048 1.491 . S
C1050 C1052 1.383 . S
C1050 C1054 1.388 . S
C1051 C1053 1.403 . S
C1051 C1055 1.385 . S
C1051 H1061 0.931 . S
C1052 C1050 1.383 . S
C1052 C1053 1.393 . S
C1052 H1062 0.930 . S
C1053 C1051 1.403 . S
C1053 C1052 1.393 . S
C1054 C1050 1.388 . S
C1054 C1055 1.394 . S
C1054 H1063 0.930 . S
C1055 C1051 1.385 . S
C1055 C1054 1.394 . S
C1056 O1036 1.251 . S
C1056 O1039 1.237 . S
O1057 Eu1026 2.461 . S
O1057 C1048 1.261 . S
H1058 C1030 0.931 . S
H1059 C1031 0.930 . S
H1060 C1033 0.930 . S
H1061 C1051 0.931 . S
H1062 C1052 0.930 . S
H1063 C1054 0.930 . S
Eu1064 O1066 2.323 . S
Eu1064 O1074 2.328 . S
Eu1064 O1085 2.316 1_554 S
Eu1064 C1086 2.837 1_554 S
Eu1064 O1087 2.488 1_554 S
Eu1064 O1095 2.461 1_554 S
C1065 O1076 1.251 . S
C1065 O1085 1.237 . S
O1066 Eu1064 2.323 . S
O1066 C1082 1.279 . S
C1067 C1069 1.383 . S
C1067 C1071 1.388 . S
C1067 C1081 1.491 . S
C1068 C1070 1.403 . S
C1068 C1072 1.385 . S
C1068 H1096 0.931 . S
C1069 C1067 1.383 . S
C1069 C1070 1.393 . S
C1069 H1097 0.930 . S
C1070 C1068 1.403 . S
C1070 C1069 1.393 . S
C1071 C1067 1.388 . S
C1071 C1072 1.394 . S
C1071 H1098 0.930 . S
C1072 C1068 1.385 . S
C1072 C1071 1.394 . S
Eu1073 O1075 2.323 . S
Eu1073 O1076 2.328 . S
Eu1073 O1077 2.316 . S
Eu1073 O1080 2.488 . S
Eu1073 C1081 2.837 . S
Eu1073 O1084 2.461 . S
O1074 Eu1064 2.328 . S
O1074 C1094 1.251 . S
O1075 Eu1073 2.323 . S
O1075 C1078 1.279 . S
O1076 C1065 1.251 . S
O1076 Eu1073 2.328 . S
O1077 Eu1073 2.316 . S
O1077 C1094 1.237 1_556 S
C1078 O1075 1.279 . S
C1078 O1079 1.244 . S
O1079 C1078 1.244 . S
O1080 Eu1073 2.488 . S
O1080 C1081 1.271 . S
C1081 C1067 1.491 . S
C1081 Eu1073 2.837 . S
C1081 O1080 1.271 . S
C1081 O1084 1.261 . S
C1082 O1066 1.279 . S
C1082 O1083 1.244 . S
O1083 C1082 1.244 . S
O1084 Eu1073 2.461 . S
O1084 C1081 1.261 . S
O1085 Eu1064 2.316 1_556 S
O1085 C1065 1.237 . S
C1086 Eu1064 2.837 1_556 S
C1086 O1087 1.271 . S
C1086 C1088 1.491 . S
C1086 O1095 1.261 . S
O1087 Eu1064 2.488 1_556 S
O1087 C1086 1.271 . S
C1088 C1086 1.491 . S
C1088 C1090 1.383 . S
C1088 C1092 1.388 . S
C1089 C1091 1.403 . S
C1089 C1093 1.385 . S
C1089 H1099 0.931 . S
C1090 C1088 1.383 . S
C1090 C1091 1.393 . S
C1090 H1100 0.930 . S
C1091 C1089 1.403 . S
C1091 C1090 1.393 . S
C1092 C1088 1.388 . S
C1092 C1093 1.394 . S
C1092 H1101 0.930 . S
C1093 C1089 1.385 . S
C1093 C1092 1.394 . S
C1094 O1074 1.251 . S
C1094 O1077 1.237 1_554 S
O1095 Eu1064 2.461 1_556 S
O1095 C1086 1.261 . S
H1096 C1068 0.931 . S
H1097 C1069 0.930 . S
H1098 C1071 0.930 . S
H1099 C1089 0.931 . S
H1100 C1090 0.930 . S
H1101 C1092 0.930 . S
Eu1102 O1104 2.323 . S
Eu1102 O1112 2.328 . S
Eu1102 O1123 2.316 1_554 S
Eu1102 C1124 2.837 1_554 S
Eu1102 O1125 2.488 1_554 S
Eu1102 O1133 2.461 1_554 S
C1103 O1114 1.251 . S
C1103 O1123 1.237 . S
O1104 Eu1102 2.323 . S
O1104 C1120 1.279 . S
C1105 C1107 1.383 . S
C1105 C1109 1.388 . S
C1105 C1119 1.491 . S
C1106 C1108 1.403 . S
C1106 C1110 1.385 . S
C1106 H1134 0.931 . S
C1107 C1105 1.383 . S
C1107 C1108 1.393 . S
C1107 H1135 0.930 . S
C1108 C1106 1.403 . S
C1108 C1107 1.393 . S
C1109 C1105 1.388 . S
C1109 C1110 1.394 . S
C1109 H1136 0.930 . S
C1110 C1106 1.385 . S
C1110 C1109 1.394 . S
Eu1111 O1113 2.323 . S
Eu1111 O1114 2.328 . S
Eu1111 O1115 2.316 . S
Eu1111 O1118 2.488 . S
Eu1111 C1119 2.837 . S
Eu1111 O1122 2.461 . S
O1112 Eu1102 2.328 . S
O1112 C1132 1.251 . S
O1113 Eu1111 2.323 . S
O1113 C1116 1.279 . S
O1114 C1103 1.251 . S
O1114 Eu1111 2.328 . S
O1115 Eu1111 2.316 . S
O1115 C1132 1.237 1_556 S
C1116 O1113 1.279 . S
C1116 O1117 1.244 . S
O1117 C1116 1.244 . S
O1118 Eu1111 2.488 . S
O1118 C1119 1.271 . S
C1119 C1105 1.491 . S
C1119 Eu1111 2.837 . S
C1119 O1118 1.271 . S
C1119 O1122 1.261 . S
C1120 O1104 1.279 . S
C1120 O1121 1.244 . S
O1121 C1120 1.244 . S
O1122 Eu1111 2.461 . S
O1122 C1119 1.261 . S
O1123 Eu1102 2.316 1_556 S
O1123 C1103 1.237 . S
C1124 Eu1102 2.837 1_556 S
C1124 O1125 1.271 . S
C1124 C1126 1.491 . S
C1124 O1133 1.261 . S
O1125 Eu1102 2.488 1_556 S
O1125 C1124 1.271 . S
C1126 C1124 1.491 . S
C1126 C1128 1.383 . S
C1126 C1130 1.388 . S
C1127 C1129 1.403 . S
C1127 C1131 1.385 . S
C1127 H1137 0.931 . S
C1128 C1126 1.383 . S
C1128 C1129 1.393 . S
C1128 H1138 0.930 . S
C1129 C1127 1.403 . S
C1129 C1128 1.393 . S
C1130 C1126 1.388 . S
C1130 C1131 1.394 . S
C1130 H1139 0.930 . S
C1131 C1127 1.385 . S
C1131 C1130 1.394 . S
C1132 O1112 1.251 . S
C1132 O1115 1.237 1_554 S
O1133 Eu1102 2.461 1_556 S
O1133 C1124 1.261 . S
H1134 C1106 0.931 . S
H1135 C1107 0.930 . S
H1136 C1109 0.930 . S
H1137 C1127 0.931 . S
H1138 C1128 0.930 . S
H1139 C1130 0.930 . S
Eu1140 O1142 2.323 . S
Eu1140 O1150 2.328 . S
Eu1140 O1161 2.316 . S
Eu1140 C1162 2.837 . S
Eu1140 O1163 2.488 . S
Eu1140 O1171 2.461 . S
C1141 O1152 1.251 . S
C1141 O1161 1.237 . S
O1142 Eu1140 2.323 . S
O1142 C1158 1.279 . S
C1143 C1145 1.383 . S
C1143 C1147 1.388 . S
C1143 C1157 1.491 . S
C1144 C1146 1.403 . S
C1144 C1148 1.385 . S
C1144 H1172 0.931 . S
C1145 C1143 1.383 . S
C1145 C1146 1.393 . S
C1145 H1173 0.930 . S
C1146 C1144 1.403 . S
C1146 C1145 1.393 . S
C1147 C1143 1.388 . S
C1147 C1148 1.394 . S
C1147 H1174 0.930 . S
C1148 C1144 1.385 . S
C1148 C1147 1.394 . S
Eu1149 O1151 2.323 . S
Eu1149 O1152 2.328 . S
Eu1149 O1153 2.316 . S
Eu1149 O1156 2.488 . S
Eu1149 C1157 2.837 . S
Eu1149 O1160 2.461 . S
O1150 Eu1140 2.328 . S
O1150 C1170 1.251 . S
O1151 Eu1149 2.323 . S
O1151 C1154 1.279 . S
O1152 C1141 1.251 . S
O1152 Eu1149 2.328 . S
O1153 Eu1149 2.316 . S
O1153 C1170 1.237 . S
C1154 O1151 1.279 . S
C1154 O1155 1.244 . S
O1155 C1154 1.244 . S
O1156 Eu1149 2.488 . S
O1156 C1157 1.271 . S
C1157 C1143 1.491 . S
C1157 Eu1149 2.837 . S
C1157 O1156 1.271 . S
C1157 O1160 1.261 . S
C1158 O1142 1.279 . S
C1158 O1159 1.244 . S
O1159 C1158 1.244 . S
O1160 Eu1149 2.461 . S
O1160 C1157 1.261 . S
O1161 Eu1140 2.316 . S
O1161 C1141 1.237 . S
C1162 Eu1140 2.837 . S
C1162 O1163 1.271 . S
C1162 C1164 1.491 . S
C1162 O1171 1.261 . S
O1163 Eu1140 2.488 . S
O1163 C1162 1.271 . S
C1164 C1162 1.491 . S
C1164 C1166 1.383 . S
C1164 C1168 1.388 . S
C1165 C1167 1.403 . S
C1165 C1169 1.385 . S
C1165 H1175 0.931 . S
C1166 C1164 1.383 . S
C1166 C1167 1.393 . S
C1166 H1176 0.930 . S
C1167 C1165 1.403 . S
C1167 C1166 1.393 . S
C1168 C1164 1.388 . S
C1168 C1169 1.394 . S
C1168 H1177 0.930 . S
C1169 C1165 1.385 . S
C1169 C1168 1.394 . S
C1170 O1150 1.251 . S
C1170 O1153 1.237 . S
O1171 Eu1140 2.461 . S
O1171 C1162 1.261 . S
H1172 C1144 0.931 . S
H1173 C1145 0.930 . S
H1174 C1147 0.930 . S
H1175 C1165 0.931 . S
H1176 C1166 0.930 . S
H1177 C1168 0.930 . S
Eu1178 O1180 2.323 . S
Eu1178 O1188 2.328 . S
Eu1178 O1199 2.316 . S
Eu1178 C1200 2.837 . S
Eu1178 O1201 2.488 . S
Eu1178 O1209 2.461 . S
C1179 O1190 1.251 . S
C1179 O1199 1.237 . S
O1180 Eu1178 2.323 . S
O1180 C1196 1.279 . S
C1181 C1183 1.383 . S
C1181 C1185 1.388 . S
C1181 C1195 1.491 . S
C1182 C1184 1.403 . S
C1182 C1186 1.385 . S
C1182 H1210 0.931 . S
C1183 C1181 1.383 . S
C1183 C1184 1.393 . S
C1183 H1211 0.930 . S
C1184 C1182 1.403 . S
C1184 C1183 1.393 . S
C1185 C1181 1.388 . S
C1185 C1186 1.394 . S
C1185 H1212 0.930 . S
C1186 C1182 1.385 . S
C1186 C1185 1.394 . S
Eu1187 O1189 2.323 . S
Eu1187 O1190 2.328 . S
Eu1187 O1191 2.316 . S
Eu1187 O1194 2.488 . S
Eu1187 C1195 2.837 . S
Eu1187 O1198 2.461 . S
O1188 Eu1178 2.328 . S
O1188 C1208 1.251 . S
O1189 Eu1187 2.323 . S
O1189 C1192 1.279 . S
O1190 C1179 1.251 . S
O1190 Eu1187 2.328 . S
O1191 Eu1187 2.316 . S
O1191 C1208 1.237 . S
C1192 O1189 1.279 . S
C1192 O1193 1.244 . S
O1193 C1192 1.244 . S
O1194 Eu1187 2.488 . S
O1194 C1195 1.271 . S
C1195 C1181 1.491 . S
C1195 Eu1187 2.837 . S
C1195 O1194 1.271 . S
C1195 O1198 1.261 . S
C1196 O1180 1.279 . S
C1196 O1197 1.244 . S
O1197 C1196 1.244 . S
O1198 Eu1187 2.461 . S
O1198 C1195 1.261 . S
O1199 Eu1178 2.316 . S
O1199 C1179 1.237 . S
C1200 Eu1178 2.837 . S
C1200 O1201 1.271 . S
C1200 C1202 1.491 . S
C1200 O1209 1.261 . S
O1201 Eu1178 2.488 . S
O1201 C1200 1.271 . S
C1202 C1200 1.491 . S
C1202 C1204 1.383 . S
C1202 C1206 1.388 . S
C1203 C1205 1.403 . S
C1203 C1207 1.385 . S
C1203 H1213 0.931 . S
C1204 C1202 1.383 . S
C1204 C1205 1.393 . S
C1204 H1214 0.930 . S
C1205 C1203 1.403 . S
C1205 C1204 1.393 . S
C1206 C1202 1.388 . S
C1206 C1207 1.394 . S
C1206 H1215 0.930 . S
C1207 C1203 1.385 . S
C1207 C1206 1.394 . S
C1208 O1188 1.251 . S
C1208 O1191 1.237 . S
O1209 Eu1178 2.461 . S
O1209 C1200 1.261 . S
H1210 C1182 0.931 . S
H1211 C1183 0.930 . S
H1212 C1185 0.930 . S
H1213 C1203 0.931 . S
H1214 C1204 0.930 . S
H1215 C1206 0.930 . S
C1216 C1217 1.349 . S
C1216 C1218 1.327 . S
C1216 H1241 0.950 . S
C1217 C1216 1.349 . S
C1217 C1233 1.349 1_554 S
C1218 C1216 1.327 . S
C1218 C1237 1.429 . S
C1218 H1242 0.950 . S
C1219 C1236 1.574 . S
C1219 C1238 1.368 1_556 S
C1219 H1243 0.949 . S
H1220 C1224 0.949 . S
C1221 C1222 1.349 1_556 S
C1221 C1223 1.327 . S
C1221 H1244 0.950 . S
C1222 C1221 1.349 1_554 S
C1222 C1234 1.349 . S
C1223 C1221 1.327 . S
C1223 C1239 1.429 1_556 S
C1223 H1245 0.950 . S
C1224 H1220 0.949 . S
C1224 C1232 1.574 . S
C1224 C1240 1.368 . S
H1225 C1233 0.950 . S
H1226 C1231 0.950 . S
H1227 C1232 0.949 . S
H1228 C1234 0.950 . S
H1229 C1235 0.950 . S
H1230 C1236 0.949 . S
C1231 H1226 0.950 . S
C1231 C1233 1.327 . S
C1231 C1237 1.429 1_556 S
C1232 C1224 1.574 . S
C1232 H1227 0.949 . S
C1232 C1238 1.368 . S
C1233 C1217 1.349 1_556 S
C1233 H1225 0.950 . S
C1233 C1231 1.327 . S
C1234 C1222 1.349 . S
C1234 H1228 0.950 . S
C1234 C1235 1.327 . S
C1235 H1229 0.950 . S
C1235 C1234 1.327 . S
C1235 C1239 1.429 . S
C1236 C1219 1.574 . S
C1236 H1230 0.949 . S
C1236 C1240 1.368 1_556 S
C1237 C1218 1.429 . S
C1237 C1231 1.429 1_554 S
C1237 C1238 1.523 . S
C1238 C1219 1.368 1_554 S
C1238 C1232 1.368 . S
C1238 C1237 1.523 . S
C1239 C1223 1.429 1_554 S
C1239 C1235 1.429 . S
C1239 C1240 1.523 . S
C1240 C1224 1.368 . S
C1240 C1236 1.368 1_554 S
C1240 C1239 1.523 . S
H1241 C1216 0.950 . S
H1242 C1218 0.950 . S
H1243 C1219 0.949 . S
H1244 C1221 0.950 . S
H1245 C1223 0.950 . S
C1246 C1247 1.349 1_556 S
C1246 C1248 1.327 . S
C1246 H1271 0.950 . S
C1247 C1246 1.349 1_554 S
C1247 C1263 1.349 . S
C1248 C1246 1.327 . S
C1248 C1267 1.429 1_556 S
C1248 H1272 0.950 . S
C1249 C1266 1.574 . S
C1249 C1268 1.368 . S
C1249 H1273 0.949 . S
H1250 C1254 0.949 . S
C1251 C1252 1.349 . S
C1251 C1253 1.327 . S
C1251 H1274 0.950 . S
C1252 C1251 1.349 . S
C1252 C1264 1.349 1_554 S
C1253 C1251 1.327 . S
C1253 C1269 1.429 . S
C1253 H1275 0.950 . S
C1254 H1250 0.949 . S
C1254 C1262 1.574 . S
C1254 C1270 1.368 1_556 S
H1255 C1263 0.950 . S
H1256 C1261 0.950 . S
H1257 C1262 0.949 . S
H1258 C1264 0.950 . S
H1259 C1265 0.950 . S
H1260 C1266 0.949 . S
C1261 H1256 0.950 . S
C1261 C1263 1.327 . S
C1261 C1267 1.429 . S
C1262 C1254 1.574 . S
C1262 H1257 0.949 . S
C1262 C1268 1.368 1_556 S
C1263 C1247 1.349 . S
C1263 H1255 0.950 . S
C1263 C1261 1.327 . S
C1264 C1252 1.349 1_556 S
C1264 H1258 0.950 . S
C1264 C1265 1.327 . S
C1265 H1259 0.950 . S
C1265 C1264 1.327 . S
C1265 C1269 1.429 1_556 S
C1266 C1249 1.574 . S
C1266 H1260 0.949 . S
C1266 C1270 1.368 . S
C1267 C1248 1.429 1_554 S
C1267 C1261 1.429 . S
C1267 C1268 1.523 . S
C1268 C1249 1.368 . S
C1268 C1262 1.368 1_554 S
C1268 C1267 1.523 . S
C1269 C1253 1.429 . S
C1269 C1265 1.429 1_554 S
C1269 C1270 1.523 . S
C1270 C1254 1.368 1_554 S
C1270 C1266 1.368 . S
C1270 C1269 1.523 . S
H1271 C1246 0.950 . S
H1272 C1248 0.950 . S
H1273 C1249 0.949 . S
H1274 C1251 0.950 . S
H1275 C1253 0.950 . S
C1276 C1277 1.349 . S
C1276 C1278 1.327 . S
C1276 H1301 0.950 . S
C1277 C1276 1.349 . S
C1277 C1293 1.349 . S
C1278 C1276 1.327 . S
C1278 C1297 1.429 . S
C1278 H1302 0.950 . S
C1279 C1296 1.574 . S
C1279 C1298 1.368 . S
C1279 H1303 0.949 . S
H1280 C1284 0.949 . S
C1281 C1282 1.349 . S
C1281 C1283 1.327 . S
C1281 H1304 0.950 . S
C1282 C1281 1.349 . S
C1282 C1294 1.349 . S
C1283 C1281 1.327 . S
C1283 C1299 1.429 . S
C1283 H1305 0.950 . S
C1284 H1280 0.949 . S
C1284 C1292 1.574 . S
C1284 C1300 1.368 . S
H1285 C1293 0.950 . S
H1286 C1291 0.950 . S
H1287 C1292 0.949 . S
H1288 C1294 0.950 . S
H1289 C1295 0.950 . S
H1290 C1296 0.949 . S
C1291 H1286 0.950 . S
C1291 C1293 1.327 . S
C1291 C1297 1.429 . S
C1292 C1284 1.574 . S
C1292 H1287 0.949 . S
C1292 C1298 1.368 . S
C1293 C1277 1.349 . S
C1293 H1285 0.950 . S
C1293 C1291 1.327 . S
C1294 C1282 1.349 . S
C1294 H1288 0.950 . S
C1294 C1295 1.327 . S
C1295 H1289 0.950 . S
C1295 C1294 1.327 . S
C1295 C1299 1.429 . S
C1296 C1279 1.574 . S
C1296 H1290 0.949 . S
C1296 C1300 1.368 . S
C1297 C1278 1.429 . S
C1297 C1291 1.429 . S
C1297 C1298 1.523 . S
C1298 C1279 1.368 . S
C1298 C1292 1.368 . S
C1298 C1297 1.523 . S
C1299 C1283 1.429 . S
C1299 C1295 1.429 . S
C1299 C1300 1.523 . S
C1300 C1284 1.368 . S
C1300 C1296 1.368 . S
C1300 C1299 1.523 . S
H1301 C1276 0.950 . S
H1302 C1278 0.950 . S
H1303 C1279 0.949 . S
H1304 C1281 0.950 . S
H1305 C1283 0.950 . S
C1306 C1307 1.349 . S
C1306 C1308 1.327 . S
C1306 H1331 0.950 . S
C1307 C1306 1.349 . S
C1307 C1323 1.349 . S
C1308 C1306 1.327 . S
C1308 C1327 1.429 . S
C1308 H1332 0.950 . S
C1309 C1326 1.574 . S
C1309 C1328 1.368 . S
C1309 H1333 0.949 . S
H1310 C1314 0.949 . S
C1311 C1312 1.349 . S
C1311 C1313 1.327 . S
C1311 H1334 0.950 . S
C1312 C1311 1.349 . S
C1312 C1324 1.349 . S
C1313 C1311 1.327 . S
C1313 C1329 1.429 . S
C1313 H1335 0.950 . S
C1314 H1310 0.949 . S
C1314 C1322 1.574 . S
C1314 C1330 1.368 . S
H1315 C1323 0.950 . S
H1316 C1321 0.950 . S
H1317 C1322 0.949 . S
H1318 C1324 0.950 . S
H1319 C1325 0.950 . S
H1320 C1326 0.949 . S
C1321 H1316 0.950 . S
C1321 C1323 1.327 . S
C1321 C1327 1.429 . S
C1322 C1314 1.574 . S
C1322 H1317 0.949 . S
C1322 C1328 1.368 . S
C1323 C1307 1.349 . S
C1323 H1315 0.950 . S
C1323 C1321 1.327 . S
C1324 C1312 1.349 . S
C1324 H1318 0.950 . S
C1324 C1325 1.327 . S
C1325 H1319 0.950 . S
C1325 C1324 1.327 . S
C1325 C1329 1.429 . S
C1326 C1309 1.574 . S
C1326 H1320 0.949 . S
C1326 C1330 1.368 . S
C1327 C1308 1.429 . S
C1327 C1321 1.429 . S
C1327 C1328 1.523 . S
C1328 C1309 1.368 . S
C1328 C1322 1.368 . S
C1328 C1327 1.523 . S
C1329 C1313 1.429 . S
C1329 C1325 1.429 . S
C1329 C1330 1.523 . S
C1330 C1314 1.368 . S
C1330 C1326 1.368 . S
C1330 C1329 1.523 . S
H1331 C1306 0.950 . S
H1332 C1308 0.950 . S
H1333 C1309 0.949 . S
H1334 C1311 0.950 . S
H1335 C1313 0.950 . S
C1336 C1337 1.349 . S
C1336 C1338 1.327 . S
C1336 H1361 0.950 . S
C1337 C1336 1.349 . S
C1337 C1353 1.349 1_556 S
C1338 C1336 1.327 . S
C1338 C1357 1.429 . S
C1338 H1362 0.950 . S
C1339 C1356 1.574 . S
C1339 C1358 1.368 1_554 S
C1339 H1363 0.949 . S
H1340 C1344 0.949 . S
C1341 C1342 1.349 1_554 S
C1341 C1343 1.327 . S
C1341 H1364 0.950 . S
C1342 C1341 1.349 1_556 S
C1342 C1354 1.349 . S
C1343 C1341 1.327 . S
C1343 C1359 1.429 1_554 S
C1343 H1365 0.950 . S
C1344 H1340 0.949 . S
C1344 C1352 1.574 . S
C1344 C1360 1.368 . S
H1345 C1353 0.950 . S
H1346 C1351 0.950 . S
H1347 C1352 0.949 . S
H1348 C1354 0.950 . S
H1349 C1355 0.950 . S
H1350 C1356 0.949 . S
C1351 H1346 0.950 . S
C1351 C1353 1.327 . S
C1351 C1357 1.429 1_554 S
C1352 C1344 1.574 . S
C1352 H1347 0.949 . S
C1352 C1358 1.368 . S
C1353 C1337 1.349 1_554 S
C1353 H1345 0.950 . S
C1353 C1351 1.327 . S
C1354 C1342 1.349 . S
C1354 H1348 0.950 . S
C1354 C1355 1.327 . S
C1355 H1349 0.950 . S
C1355 C1354 1.327 . S
C1355 C1359 1.429 . S
C1356 C1339 1.574 . S
C1356 H1350 0.949 . S
C1356 C1360 1.368 1_554 S
C1357 C1338 1.429 . S
C1357 C1351 1.429 1_556 S
C1357 C1358 1.523 . S
C1358 C1339 1.368 1_556 S
C1358 C1352 1.368 . S
C1358 C1357 1.523 . S
C1359 C1343 1.429 1_556 S
C1359 C1355 1.429 . S
C1359 C1360 1.523 . S
C1360 C1344 1.368 . S
C1360 C1356 1.368 1_556 S
C1360 C1359 1.523 . S
H1361 C1336 0.950 . S
H1362 C1338 0.950 . S
H1363 C1339 0.949 . S
H1364 C1341 0.950 . S
H1365 C1343 0.950 . S
C1366 C1367 1.349 1_554 S
C1366 C1368 1.327 . S
C1366 H1391 0.950 . S
C1367 C1366 1.349 1_556 S
C1367 C1383 1.349 . S
C1368 C1366 1.327 . S
C1368 C1387 1.429 1_554 S
C1368 H1392 0.950 . S
C1369 C1386 1.574 . S
C1369 C1388 1.368 . S
C1369 H1393 0.949 . S
H1370 C1374 0.949 . S
C1371 C1372 1.349 . S
C1371 C1373 1.327 . S
C1371 H1394 0.950 . S
C1372 C1371 1.349 . S
C1372 C1384 1.349 1_556 S
C1373 C1371 1.327 . S
C1373 C1389 1.429 . S
C1373 H1395 0.950 . S
C1374 H1370 0.949 . S
C1374 C1382 1.574 . S
C1374 C1390 1.368 1_554 S
H1375 C1383 0.950 . S
H1376 C1381 0.950 . S
H1377 C1382 0.949 . S
H1378 C1384 0.950 . S
H1379 C1385 0.950 . S
H1380 C1386 0.949 . S
C1381 H1376 0.950 . S
C1381 C1383 1.327 . S
C1381 C1387 1.429 . S
C1382 C1374 1.574 . S
C1382 H1377 0.949 . S
C1382 C1388 1.368 1_554 S
C1383 C1367 1.349 . S
C1383 H1375 0.950 . S
C1383 C1381 1.327 . S
C1384 C1372 1.349 1_554 S
C1384 H1378 0.950 . S
C1384 C1385 1.327 . S
C1385 H1379 0.950 . S
C1385 C1384 1.327 . S
C1385 C1389 1.429 1_554 S
C1386 C1369 1.574 . S
C1386 H1380 0.949 . S
C1386 C1390 1.368 . S
C1387 C1368 1.429 1_556 S
C1387 C1381 1.429 . S
C1387 C1388 1.523 . S
C1388 C1369 1.368 . S
C1388 C1382 1.368 1_556 S
C1388 C1387 1.523 . S
C1389 C1373 1.429 . S
C1389 C1385 1.429 1_556 S
C1389 C1390 1.523 . S
C1390 C1374 1.368 1_556 S
C1390 C1386 1.368 . S
C1390 C1389 1.523 . S
H1391 C1366 0.950 . S
H1392 C1368 0.950 . S
H1393 C1369 0.949 . S
H1394 C1371 0.950 . S
H1395 C1373 0.950 . S
C1396 C1397 1.349 . S
C1396 C1398 1.327 . S
C1396 H1421 0.950 . S
C1397 C1396 1.349 . S
C1397 C1413 1.349 . S
C1398 C1396 1.327 . S
C1398 C1417 1.429 . S
C1398 H1422 0.950 . S
C1399 C1416 1.574 . S
C1399 C1418 1.368 . S
C1399 H1423 0.949 . S
H1400 C1404 0.949 . S
C1401 C1402 1.349 . S
C1401 C1403 1.327 . S
C1401 H1424 0.950 . S
C1402 C1401 1.349 . S
C1402 C1414 1.349 . S
C1403 C1401 1.327 . S
C1403 C1419 1.429 . S
C1403 H1425 0.950 . S
C1404 H1400 0.949 . S
C1404 C1412 1.574 . S
C1404 C1420 1.368 . S
H1405 C1413 0.950 . S
H1406 C1411 0.950 . S
H1407 C1412 0.949 . S
H1408 C1414 0.950 . S
H1409 C1415 0.950 . S
H1410 C1416 0.949 . S
C1411 H1406 0.950 . S
C1411 C1413 1.327 . S
C1411 C1417 1.429 . S
C1412 C1404 1.574 . S
C1412 H1407 0.949 . S
C1412 C1418 1.368 . S
C1413 C1397 1.349 . S
C1413 H1405 0.950 . S
C1413 C1411 1.327 . S
C1414 C1402 1.349 . S
C1414 H1408 0.950 . S
C1414 C1415 1.327 . S
C1415 H1409 0.950 . S
C1415 C1414 1.327 . S
C1415 C1419 1.429 . S
C1416 C1399 1.574 . S
C1416 H1410 0.949 . S
C1416 C1420 1.368 . S
C1417 C1398 1.429 . S
C1417 C1411 1.429 . S
C1417 C1418 1.523 . S
C1418 C1399 1.368 . S
C1418 C1412 1.368 . S
C1418 C1417 1.523 . S
C1419 C1403 1.429 . S
C1419 C1415 1.429 . S
C1419 C1420 1.523 . S
C1420 C1404 1.368 . S
C1420 C1416 1.368 . S
C1420 C1419 1.523 . S
H1421 C1396 0.950 . S
H1422 C1398 0.950 . S
H1423 C1399 0.949 . S
H1424 C1401 0.950 . S
H1425 C1403 0.950 . S
C1426 C1427 1.349 . S
C1426 C1428 1.327 . S
C1426 H1451 0.950 . S
C1427 C1426 1.349 . S
C1427 C1443 1.349 . S
C1428 C1426 1.327 . S
C1428 C1447 1.429 . S
C1428 H1452 0.950 . S
C1429 C1446 1.574 . S
C1429 C1448 1.368 . S
C1429 H1453 0.949 . S
H1430 C1434 0.949 . S
C1431 C1432 1.349 . S
C1431 C1433 1.327 . S
C1431 H1454 0.950 . S
C1432 C1431 1.349 . S
C1432 C1444 1.349 . S
C1433 C1431 1.327 . S
C1433 C1449 1.429 . S
C1433 H1455 0.950 . S
C1434 H1430 0.949 . S
C1434 C1442 1.574 . S
C1434 C1450 1.368 . S
H1435 C1443 0.950 . S
H1436 C1441 0.950 . S
H1437 C1442 0.949 . S
H1438 C1444 0.950 . S
H1439 C1445 0.950 . S
H1440 C1446 0.949 . S
C1441 H1436 0.950 . S
C1441 C1443 1.327 . S
C1441 C1447 1.429 . S
C1442 C1434 1.574 . S
C1442 H1437 0.949 . S
C1442 C1448 1.368 . S
C1443 C1427 1.349 . S
C1443 H1435 0.950 . S
C1443 C1441 1.327 . S
C1444 C1432 1.349 . S
C1444 H1438 0.950 . S
C1444 C1445 1.327 . S
C1445 H1439 0.950 . S
C1445 C1444 1.327 . S
C1445 C1449 1.429 . S
C1446 C1429 1.574 . S
C1446 H1440 0.949 . S
C1446 C1450 1.368 . S
C1447 C1428 1.429 . S
C1447 C1441 1.429 . S
C1447 C1448 1.523 . S
C1448 C1429 1.368 . S
C1448 C1442 1.368 . S
C1448 C1447 1.523 . S
C1449 C1433 1.429 . S
C1449 C1445 1.429 . S
C1449 C1450 1.523 . S
C1450 C1434 1.368 . S
C1450 C1446 1.368 . S
C1450 C1449 1.523 . S
H1451 C1426 0.950 . S
H1452 C1428 0.950 . S
H1453 C1429 0.949 . S
H1454 C1431 0.950 . S
H1455 C1433 0.950 . S
C1456 C1457 1.349 . S
C1456 C1458 1.327 . S
C1456 H1481 0.950 . S
C1457 C1456 1.349 . S
C1457 C1473 1.349 . S
C1458 C1456 1.327 . S
C1458 C1477 1.429 . S
C1458 H1482 0.950 . S
C1459 C1476 1.574 . S
C1459 C1478 1.368 . S
C1459 H1483 0.949 . S
H1460 C1464 0.949 . S
C1461 C1462 1.349 . S
C1461 C1463 1.327 . S
C1461 H1484 0.950 . S
C1462 C1461 1.349 . S
C1462 C1474 1.349 . S
C1463 C1461 1.327 . S
C1463 C1479 1.429 . S
C1463 H1485 0.950 . S
C1464 H1460 0.949 . S
C1464 C1472 1.574 . S
C1464 C1480 1.368 . S
H1465 C1473 0.950 . S
H1466 C1471 0.950 . S
H1467 C1472 0.949 . S
H1468 C1474 0.950 . S
H1469 C1475 0.950 . S
H1470 C1476 0.949 . S
C1471 H1466 0.950 . S
C1471 C1473 1.327 . S
C1471 C1477 1.429 . S
C1472 C1464 1.574 . S
C1472 H1467 0.949 . S
C1472 C1478 1.368 . S
C1473 C1457 1.349 . S
C1473 H1465 0.950 . S
C1473 C1471 1.327 . S
C1474 C1462 1.349 . S
C1474 H1468 0.950 . S
C1474 C1475 1.327 . S
C1475 H1469 0.950 . S
C1475 C1474 1.327 . S
C1475 C1479 1.429 . S
C1476 C1459 1.574 . S
C1476 H1470 0.949 . S
C1476 C1480 1.368 . S
C1477 C1458 1.429 . S
C1477 C1471 1.429 . S
C1477 C1478 1.523 . S
C1478 C1459 1.368 . S
C1478 C1472 1.368 . S
C1478 C1477 1.523 . S
C1479 C1463 1.429 . S
C1479 C1475 1.429 . S
C1479 C1480 1.523 . S
C1480 C1464 1.368 . S
C1480 C1476 1.368 . S
C1480 C1479 1.523 . S
H1481 C1456 0.950 . S
H1482 C1458 0.950 . S
H1483 C1459 0.949 . S
H1484 C1461 0.950 . S
H1485 C1463 0.950 . S
C1486 C1487 1.349 . S
C1486 C1488 1.327 . S
C1486 H1511 0.950 . S
C1487 C1486 1.349 . S
C1487 C1503 1.349 . S
C1488 C1486 1.327 . S
C1488 C1507 1.429 . S
C1488 H1512 0.950 . S
C1489 C1506 1.574 . S
C1489 C1508 1.368 . S
C1489 H1513 0.949 . S
H1490 C1494 0.949 . S
C1491 C1492 1.349 . S
C1491 C1493 1.327 . S
C1491 H1514 0.950 . S
C1492 C1491 1.349 . S
C1492 C1504 1.349 . S
C1493 C1491 1.327 . S
C1493 C1509 1.429 . S
C1493 H1515 0.950 . S
C1494 H1490 0.949 . S
C1494 C1502 1.574 . S
C1494 C1510 1.368 . S
H1495 C1503 0.950 . S
H1496 C1501 0.950 . S
H1497 C1502 0.949 . S
H1498 C1504 0.950 . S
H1499 C1505 0.950 . S
H1500 C1506 0.949 . S
C1501 H1496 0.950 . S
C1501 C1503 1.327 . S
C1501 C1507 1.429 . S
C1502 C1494 1.574 . S
C1502 H1497 0.949 . S
C1502 C1508 1.368 . S
C1503 C1487 1.349 . S
C1503 H1495 0.950 . S
C1503 C1501 1.327 . S
C1504 C1492 1.349 . S
C1504 H1498 0.950 . S
C1504 C1505 1.327 . S
C1505 H1499 0.950 . S
C1505 C1504 1.327 . S
C1505 C1509 1.429 . S
C1506 C1489 1.574 . S
C1506 H1500 0.949 . S
C1506 C1510 1.368 . S
C1507 C1488 1.429 . S
C1507 C1501 1.429 . S
C1507 C1508 1.523 . S
C1508 C1489 1.368 . S
C1508 C1502 1.368 . S
C1508 C1507 1.523 . S
C1509 C1493 1.429 . S
C1509 C1505 1.429 . S
C1509 C1510 1.523 . S
C1510 C1494 1.368 . S
C1510 C1506 1.368 . S
C1510 C1509 1.523 . S
H1511 C1486 0.950 . S
H1512 C1488 0.950 . S
H1513 C1489 0.949 . S
H1514 C1491 0.950 . S
H1515 C1493 0.950 . S
C1516 C1517 1.349 . S
C1516 C1518 1.327 . S
C1516 H1541 0.950 . S
C1517 C1516 1.349 . S
C1517 C1533 1.349 . S
C1518 C1516 1.327 . S
C1518 C1537 1.429 . S
C1518 H1542 0.950 . S
C1519 C1536 1.574 . S
C1519 C1538 1.368 . S
C1519 H1543 0.949 . S
H1520 C1524 0.949 . S
C1521 C1522 1.349 . S
C1521 C1523 1.327 . S
C1521 H1544 0.950 . S
C1522 C1521 1.349 . S
C1522 C1534 1.349 . S
C1523 C1521 1.327 . S
C1523 C1539 1.429 . S
C1523 H1545 0.950 . S
C1524 H1520 0.949 . S
C1524 C1532 1.574 . S
C1524 C1540 1.368 . S
H1525 C1533 0.950 . S
H1526 C1531 0.950 . S
H1527 C1532 0.949 . S
H1528 C1534 0.950 . S
H1529 C1535 0.950 . S
H1530 C1536 0.949 . S
C1531 H1526 0.950 . S
C1531 C1533 1.327 . S
C1531 C1537 1.429 . S
C1532 C1524 1.574 . S
C1532 H1527 0.949 . S
C1532 C1538 1.368 . S
C1533 C1517 1.349 . S
C1533 H1525 0.950 . S
C1533 C1531 1.327 . S
C1534 C1522 1.349 . S
C1534 H1528 0.950 . S
C1534 C1535 1.327 . S
C1535 H1529 0.950 . S
C1535 C1534 1.327 . S
C1535 C1539 1.429 . S
C1536 C1519 1.574 . S
C1536 H1530 0.949 . S
C1536 C1540 1.368 . S
C1537 C1518 1.429 . S
C1537 C1531 1.429 . S
C1537 C1538 1.523 . S
C1538 C1519 1.368 . S
C1538 C1532 1.368 . S
C1538 C1537 1.523 . S
C1539 C1523 1.429 . S
C1539 C1535 1.429 . S
C1539 C1540 1.523 . S
C1540 C1524 1.368 . S
C1540 C1536 1.368 . S
C1540 C1539 1.523 . S
H1541 C1516 0.950 . S
H1542 C1518 0.950 . S
H1543 C1519 0.949 . S
H1544 C1521 0.950 . S
H1545 C1523 0.950 . S
C1546 C1547 1.349 . S
C1546 C1548 1.327 . S
C1546 H1571 0.950 . S
C1547 C1546 1.349 . S
C1547 C1563 1.349 . S
C1548 C1546 1.327 . S
C1548 C1567 1.429 . S
C1548 H1572 0.950 . S
C1549 C1566 1.574 . S
C1549 C1568 1.368 . S
C1549 H1573 0.949 . S
H1550 C1554 0.949 . S
C1551 C1552 1.349 . S
C1551 C1553 1.327 . S
C1551 H1574 0.950 . S
C1552 C1551 1.349 . S
C1552 C1564 1.349 . S
C1553 C1551 1.327 . S
C1553 C1569 1.429 . S
C1553 H1575 0.950 . S
C1554 H1550 0.949 . S
C1554 C1562 1.574 . S
C1554 C1570 1.368 . S
H1555 C1563 0.950 . S
H1556 C1561 0.950 . S
H1557 C1562 0.949 . S
H1558 C1564 0.950 . S
H1559 C1565 0.950 . S
H1560 C1566 0.949 . S
C1561 H1556 0.950 . S
C1561 C1563 1.327 . S
C1561 C1567 1.429 . S
C1562 C1554 1.574 . S
C1562 H1557 0.949 . S
C1562 C1568 1.368 . S
C1563 C1547 1.349 . S
C1563 H1555 0.950 . S
C1563 C1561 1.327 . S
C1564 C1552 1.349 . S
C1564 H1558 0.950 . S
C1564 C1565 1.327 . S
C1565 H1559 0.950 . S
C1565 C1564 1.327 . S
C1565 C1569 1.429 . S
C1566 C1549 1.574 . S
C1566 H1560 0.949 . S
C1566 C1570 1.368 . S
C1567 C1548 1.429 . S
C1567 C1561 1.429 . S
C1567 C1568 1.523 . S
C1568 C1549 1.368 . S
C1568 C1562 1.368 . S
C1568 C1567 1.523 . S
C1569 C1553 1.429 . S
C1569 C1565 1.429 . S
C1569 C1570 1.523 . S
C1570 C1554 1.368 . S
C1570 C1566 1.368 . S
C1570 C1569 1.523 . S
H1571 C1546 0.950 . S
H1572 C1548 0.950 . S
H1573 C1549 0.949 . S
H1574 C1551 0.950 . S
H1575 C1553 0.950 . S
C1576 C1577 1.349 . S
C1576 C1578 1.327 . S
C1576 H1601 0.950 . S
C1577 C1576 1.349 . S
C1577 C1593 1.349 . S
C1578 C1576 1.327 . S
C1578 C1597 1.429 . S
C1578 H1602 0.950 . S
C1579 C1596 1.574 . S
C1579 C1598 1.368 . S
C1579 H1603 0.949 . S
H1580 C1584 0.949 . S
C1581 C1582 1.349 . S
C1581 C1583 1.327 . S
C1581 H1604 0.950 . S
C1582 C1581 1.349 . S
C1582 C1594 1.349 . S
C1583 C1581 1.327 . S
C1583 C1599 1.429 . S
C1583 H1605 0.950 . S
C1584 H1580 0.949 . S
C1584 C1592 1.574 . S
C1584 C1600 1.368 . S
H1585 C1593 0.950 . S
H1586 C1591 0.950 . S
H1587 C1592 0.949 . S
H1588 C1594 0.950 . S
H1589 C1595 0.950 . S
H1590 C1596 0.949 . S
C1591 H1586 0.950 . S
C1591 C1593 1.327 . S
C1591 C1597 1.429 . S
C1592 C1584 1.574 . S
C1592 H1587 0.949 . S
C1592 C1598 1.368 . S
C1593 C1577 1.349 . S
C1593 H1585 0.950 . S
C1593 C1591 1.327 . S
C1594 C1582 1.349 . S
C1594 H1588 0.950 . S
C1594 C1595 1.327 . S
C1595 H1589 0.950 . S
C1595 C1594 1.327 . S
C1595 C1599 1.429 . S
C1596 C1579 1.574 . S
C1596 H1590 0.949 . S
C1596 C1600 1.368 . S
C1597 C1578 1.429 . S
C1597 C1591 1.429 . S
C1597 C1598 1.523 . S
C1598 C1579 1.368 . S
C1598 C1592 1.368 . S
C1598 C1597 1.523 . S
C1599 C1583 1.429 . S
C1599 C1595 1.429 . S
C1599 C1600 1.523 . S
C1600 C1584 1.368 . S
C1600 C1596 1.368 . S
C1600 C1599 1.523 . S
H1601 C1576 0.950 . S
H1602 C1578 0.950 . S
H1603 C1579 0.949 . S
H1604 C1581 0.950 . S
H1605 C1583 0.950 . S
C1606 C1607 1.349 . S
C1606 C1608 1.327 . S
C1606 H1631 0.950 . S
C1607 C1606 1.349 . S
C1607 C1623 1.349 . S
C1608 C1606 1.327 . S
C1608 C1627 1.429 . S
C1608 H1632 0.950 . S
C1609 C1626 1.574 . S
C1609 C1628 1.368 . S
C1609 H1633 0.949 . S
H1610 C1614 0.949 . S
C1611 C1612 1.349 . S
C1611 C1613 1.327 . S
C1611 H1634 0.950 . S
C1612 C1611 1.349 . S
C1612 C1624 1.349 . S
C1613 C1611 1.327 . S
C1613 C1629 1.429 . S
C1613 H1635 0.950 . S
C1614 H1610 0.949 . S
C1614 C1622 1.574 . S
C1614 C1630 1.368 . S
H1615 C1623 0.950 . S
H1616 C1621 0.950 . S
H1617 C1622 0.949 . S
H1618 C1624 0.950 . S
H1619 C1625 0.950 . S
H1620 C1626 0.949 . S
C1621 H1616 0.950 . S
C1621 C1623 1.327 . S
C1621 C1627 1.429 . S
C1622 C1614 1.574 . S
C1622 H1617 0.949 . S
C1622 C1628 1.368 . S
C1623 C1607 1.349 . S
C1623 H1615 0.950 . S
C1623 C1621 1.327 . S
C1624 C1612 1.349 . S
C1624 H1618 0.950 . S
C1624 C1625 1.327 . S
C1625 H1619 0.950 . S
C1625 C1624 1.327 . S
C1625 C1629 1.429 . S
C1626 C1609 1.574 . S
C1626 H1620 0.949 . S
C1626 C1630 1.368 . S
C1627 C1608 1.429 . S
C1627 C1621 1.429 . S
C1627 C1628 1.523 . S
C1628 C1609 1.368 . S
C1628 C1622 1.368 . S
C1628 C1627 1.523 . S
C1629 C1613 1.429 . S
C1629 C1625 1.429 . S
C1629 C1630 1.523 . S
C1630 C1614 1.368 . S
C1630 C1626 1.368 . S
C1630 C1629 1.523 . S
H1631 C1606 0.950 . S
H1632 C1608 0.950 . S
H1633 C1609 0.949 . S
H1634 C1611 0.950 . S
H1635 C1613 0.950 . S
C1636 C1637 1.349 . S
C1636 C1638 1.327 . S
C1636 H1661 0.950 . S
C1637 C1636 1.349 . S
C1637 C1653 1.349 . S
C1638 C1636 1.327 . S
C1638 C1657 1.429 . S
C1638 H1662 0.950 . S
C1639 C1656 1.574 . S
C1639 C1658 1.368 . S
C1639 H1663 0.949 . S
H1640 C1644 0.949 . S
C1641 C1642 1.349 . S
C1641 C1643 1.327 . S
C1641 H1664 0.950 . S
C1642 C1641 1.349 . S
C1642 C1654 1.349 . S
C1643 C1641 1.327 . S
C1643 C1659 1.429 . S
C1643 H1665 0.950 . S
C1644 H1640 0.949 . S
C1644 C1652 1.574 . S
C1644 C1660 1.368 . S
H1645 C1653 0.950 . S
H1646 C1651 0.950 . S
H1647 C1652 0.949 . S
H1648 C1654 0.950 . S
H1649 C1655 0.950 . S
H1650 C1656 0.949 . S
C1651 H1646 0.950 . S
C1651 C1653 1.327 . S
C1651 C1657 1.429 . S
C1652 C1644 1.574 . S
C1652 H1647 0.949 . S
C1652 C1658 1.368 . S
C1653 C1637 1.349 . S
C1653 H1645 0.950 . S
C1653 C1651 1.327 . S
C1654 C1642 1.349 . S
C1654 H1648 0.950 . S
C1654 C1655 1.327 . S
C1655 H1649 0.950 . S
C1655 C1654 1.327 . S
C1655 C1659 1.429 . S
C1656 C1639 1.574 . S
C1656 H1650 0.949 . S
C1656 C1660 1.368 . S
C1657 C1638 1.429 . S
C1657 C1651 1.429 . S
C1657 C1658 1.523 . S
C1658 C1639 1.368 . S
C1658 C1652 1.368 . S
C1658 C1657 1.523 . S
C1659 C1643 1.429 . S
C1659 C1655 1.429 . S
C1659 C1660 1.523 . S
C1660 C1644 1.368 . S
C1660 C1656 1.368 . S
C1660 C1659 1.523 . S
H1661 C1636 0.950 . S
H1662 C1638 0.950 . S
H1663 C1639 0.949 . S
H1664 C1641 0.950 . S
H1665 C1643 0.950 . S
C1666 C1667 1.349 . S
C1666 C1668 1.327 . S
C1666 H1691 0.950 . S
C1667 C1666 1.349 . S
C1667 C1683 1.349 . S
C1668 C1666 1.327 . S
C1668 C1687 1.429 . S
C1668 H1692 0.950 . S
C1669 C1686 1.574 . S
C1669 C1688 1.368 . S
C1669 H1693 0.949 . S
H1670 C1674 0.949 . S
C1671 C1672 1.349 . S
C1671 C1673 1.327 . S
C1671 H1694 0.950 . S
C1672 C1671 1.349 . S
C1672 C1684 1.349 . S
C1673 C1671 1.327 . S
C1673 C1689 1.429 . S
C1673 H1695 0.950 . S
C1674 H1670 0.949 . S
C1674 C1682 1.574 . S
C1674 C1690 1.368 . S
H1675 C1683 0.950 . S
H1676 C1681 0.950 . S
H1677 C1682 0.949 . S
H1678 C1684 0.950 . S
H1679 C1685 0.950 . S
H1680 C1686 0.949 . S
C1681 H1676 0.950 . S
C1681 C1683 1.327 . S
C1681 C1687 1.429 . S
C1682 C1674 1.574 . S
C1682 H1677 0.949 . S
C1682 C1688 1.368 . S
C1683 C1667 1.349 . S
C1683 H1675 0.950 . S
C1683 C1681 1.327 . S
C1684 C1672 1.349 . S
C1684 H1678 0.950 . S
C1684 C1685 1.327 . S
C1685 H1679 0.950 . S
C1685 C1684 1.327 . S
C1685 C1689 1.429 . S
C1686 C1669 1.574 . S
C1686 H1680 0.949 . S
C1686 C1690 1.368 . S
C1687 C1668 1.429 . S
C1687 C1681 1.429 . S
C1687 C1688 1.523 . S
C1688 C1669 1.368 . S
C1688 C1682 1.368 . S
C1688 C1687 1.523 . S
C1689 C1673 1.429 . S
C1689 C1685 1.429 . S
C1689 C1690 1.523 . S
C1690 C1674 1.368 . S
C1690 C1686 1.368 . S
C1690 C1689 1.523 . S
H1691 C1666 0.950 . S
H1692 C1668 0.950 . S
H1693 C1669 0.949 . S
H1694 C1671 0.950 . S
H1695 C1673 0.950 . S
C1696 C1697 1.349 1_554 S
C1696 C1698 1.327 . S
C1696 H1721 0.950 . S
C1697 C1696 1.349 1_556 S
C1697 C1713 1.349 . S
C1698 C1696 1.327 . S
C1698 C1717 1.429 . S
C1698 H1722 0.950 . S
C1699 C1716 1.574 1_556 S
C1699 C1718 1.368 1_556 S
C1699 H1723 0.949 . S
H1700 C1704 0.949 . S
C1701 C1702 1.349 . S
C1701 C1703 1.327 . S
C1701 H1724 0.950 . S
C1702 C1701 1.349 . S
C1702 C1714 1.349 . S
C1703 C1701 1.327 . S
C1703 C1719 1.429 . S
C1703 H1725 0.950 . S
C1704 H1700 0.949 . S
C1704 C1712 1.574 . S
C1704 C1720 1.368 . S
H1705 C1713 0.950 . S
H1706 C1711 0.950 . S
H1707 C1712 0.949 . S
H1708 C1714 0.950 . S
H1709 C1715 0.950 . S
H1710 C1716 0.949 1_556 S
C1711 H1706 0.950 . S
C1711 C1713 1.327 . S
C1711 C1717 1.429 1_556 S
C1712 C1704 1.574 . S
C1712 H1707 0.949 . S
C1712 C1718 1.368 . S
C1713 C1697 1.349 . S
C1713 H1705 0.950 . S
C1713 C1711 1.327 . S
C1714 C1702 1.349 . S
C1714 H1708 0.950 . S
C1714 C1715 1.327 . S
C1715 H1709 0.950 . S
C1715 C1714 1.327 . S
C1715 C1719 1.429 . S
C1716 C1699 1.574 1_554 S
C1716 H1710 0.949 1_554 S
C1716 C1720 1.368 . S
C1717 C1698 1.429 . S
C1717 C1711 1.429 1_554 S
C1717 C1718 1.523 . S
C1718 C1699 1.368 1_554 S
C1718 C1712 1.368 . S
C1718 C1717 1.523 . S
C1719 C1703 1.429 . S
C1719 C1715 1.429 . S
C1719 C1720 1.523 . S
C1720 C1704 1.368 . S
C1720 C1716 1.368 . S
C1720 C1719 1.523 . S
H1721 C1696 0.950 . S
H1722 C1698 0.950 . S
H1723 C1699 0.949 . S
H1724 C1701 0.950 . S
H1725 C1703 0.950 . S
C1726 C1727 1.349 . S
C1726 C1728 1.327 . S
C1726 H1751 0.950 . S
C1727 C1726 1.349 . S
C1727 C1743 1.349 . S
C1728 C1726 1.327 . S
C1728 C1747 1.429 . S
C1728 H1752 0.950 1_554 S
C1729 C1746 1.574 . S
C1729 C1748 1.368 . S
C1729 H1753 0.949 . S
H1730 C1734 0.949 . S
C1731 C1732 1.349 1_554 S
C1731 C1733 1.327 . S
C1731 H1754 0.950 . S
C1732 C1731 1.349 1_556 S
C1732 C1744 1.349 . S
C1733 C1731 1.327 . S
C1733 C1749 1.429 . S
C1733 H1755 0.950 . S
C1734 H1730 0.949 . S
C1734 C1742 1.574 . S
C1734 C1750 1.368 1_556 S
H1735 C1743 0.950 . S
H1736 C1741 0.950 . S
H1737 C1742 0.949 . S
H1738 C1744 0.950 . S
H1739 C1745 0.950 . S
H1740 C1746 0.949 . S
C1741 H1736 0.950 . S
C1741 C1743 1.327 . S
C1741 C1747 1.429 . S
C1742 C1734 1.574 . S
C1742 H1737 0.949 . S
C1742 C1748 1.368 1_556 S
C1743 C1727 1.349 . S
C1743 H1735 0.950 . S
C1743 C1741 1.327 . S
C1744 C1732 1.349 . S
C1744 H1738 0.950 . S
C1744 C1745 1.327 . S
C1745 H1739 0.950 . S
C1745 C1744 1.327 . S
C1745 C1749 1.429 1_556 S
C1746 C1729 1.574 . S
C1746 H1740 0.949 . S
C1746 C1750 1.368 . S
C1747 C1728 1.429 . S
C1747 C1741 1.429 . S
C1747 C1748 1.523 . S
C1748 C1729 1.368 . S
C1748 C1742 1.368 1_554 S
C1748 C1747 1.523 . S
C1749 C1733 1.429 . S
C1749 C1745 1.429 1_554 S
C1749 C1750 1.523 . S
C1750 C1734 1.368 1_554 S
C1750 C1746 1.368 . S
C1750 C1749 1.523 . S
H1751 C1726 0.950 . S
H1752 C1728 0.950 1_556 S
H1753 C1729 0.949 . S
H1754 C1731 0.950 . S
H1755 C1733 0.950 . S
C1756 C1757 1.349 . S
C1756 C1758 1.327 . S
C1756 H1781 0.950 . S
C1757 C1756 1.349 . S
C1757 C1773 1.349 . S
C1758 C1756 1.327 . S
C1758 C1777 1.429 . S
C1758 H1782 0.950 . S
C1759 C1776 1.574 . S
C1759 C1778 1.368 . S
C1759 H1783 0.949 . S
H1760 C1764 0.949 . S
C1761 C1762 1.349 . S
C1761 C1763 1.327 . S
C1761 H1784 0.950 . S
C1762 C1761 1.349 . S
C1762 C1774 1.349 . S
C1763 C1761 1.327 . S
C1763 C1779 1.429 . S
C1763 H1785 0.950 . S
C1764 H1760 0.949 . S
C1764 C1772 1.574 . S
C1764 C1780 1.368 . S
H1765 C1773 0.950 . S
H1766 C1771 0.950 . S
H1767 C1772 0.949 . S
H1768 C1774 0.950 . S
H1769 C1775 0.950 . S
H1770 C1776 0.949 . S
C1771 H1766 0.950 . S
C1771 C1773 1.327 . S
C1771 C1777 1.429 . S
C1772 C1764 1.574 . S
C1772 H1767 0.949 . S
C1772 C1778 1.368 . S
C1773 C1757 1.349 . S
C1773 H1765 0.950 . S
C1773 C1771 1.327 . S
C1774 C1762 1.349 . S
C1774 H1768 0.950 . S
C1774 C1775 1.327 . S
C1775 H1769 0.950 . S
C1775 C1774 1.327 . S
C1775 C1779 1.429 . S
C1776 C1759 1.574 . S
C1776 H1770 0.949 . S
C1776 C1780 1.368 . S
C1777 C1758 1.429 . S
C1777 C1771 1.429 . S
C1777 C1778 1.523 . S
C1778 C1759 1.368 . S
C1778 C1772 1.368 . S
C1778 C1777 1.523 . S
C1779 C1763 1.429 . S
C1779 C1775 1.429 . S
C1779 C1780 1.523 . S
C1780 C1764 1.368 . S
C1780 C1776 1.368 . S
C1780 C1779 1.523 . S
H1781 C1756 0.950 . S
H1782 C1758 0.950 . S
H1783 C1759 0.949 . S
H1784 C1761 0.950 . S
H1785 C1763 0.950 . S
C1786 C1787 1.349 . S
C1786 C1788 1.327 . S
C1786 H1811 0.950 . S
C1787 C1786 1.349 . S
C1787 C1803 1.349 . S
C1788 C1786 1.327 . S
C1788 C1807 1.429 . S
C1788 H1812 0.950 . S
C1789 C1806 1.574 . S
C1789 C1808 1.368 . S
C1789 H1813 0.949 . S
H1790 C1794 0.949 . S
C1791 C1792 1.349 . S
C1791 C1793 1.327 . S
C1791 H1814 0.950 . S
C1792 C1791 1.349 . S
C1792 C1804 1.349 . S
C1793 C1791 1.327 . S
C1793 C1809 1.429 . S
C1793 H1815 0.950 . S
C1794 H1790 0.949 . S
C1794 C1802 1.574 . S
C1794 C1810 1.368 . S
H1795 C1803 0.950 . S
H1796 C1801 0.950 . S
H1797 C1802 0.949 . S
H1798 C1804 0.950 . S
H1799 C1805 0.950 . S
H1800 C1806 0.949 . S
C1801 H1796 0.950 . S
C1801 C1803 1.327 . S
C1801 C1807 1.429 . S
C1802 C1794 1.574 . S
C1802 H1797 0.949 . S
C1802 C1808 1.368 . S
C1803 C1787 1.349 . S
C1803 H1795 0.950 . S
C1803 C1801 1.327 . S
C1804 C1792 1.349 . S
C1804 H1798 0.950 . S
C1804 C1805 1.327 . S
C1805 H1799 0.950 . S
C1805 C1804 1.327 . S
C1805 C1809 1.429 . S
C1806 C1789 1.574 . S
C1806 H1800 0.949 . S
C1806 C1810 1.368 . S
C1807 C1788 1.429 . S
C1807 C1801 1.429 . S
C1807 C1808 1.523 . S
C1808 C1789 1.368 . S
C1808 C1802 1.368 . S
C1808 C1807 1.523 . S
C1809 C1793 1.429 . S
C1809 C1805 1.429 . S
C1809 C1810 1.523 . S
C1810 C1794 1.368 . S
C1810 C1806 1.368 . S
C1810 C1809 1.523 . S
H1811 C1786 0.950 . S
H1812 C1788 0.950 . S
H1813 C1789 0.949 . S
H1814 C1791 0.950 . S
H1815 C1793 0.950 . S
C1816 C1817 1.349 1_556 S
C1816 C1818 1.327 . S
C1816 H1841 0.950 . S
C1817 C1816 1.349 1_554 S
C1817 C1833 1.349 . S
C1818 C1816 1.327 . S
C1818 C1837 1.429 . S
C1818 H1842 0.950 . S
C1819 C1836 1.567 1_554 S
C1819 C1838 1.368 1_554 S
C1819 H1843 0.949 . S
H1820 C1824 0.949 . S
C1821 C1822 1.349 . S
C1821 C1823 1.327 . S
C1821 H1844 0.950 . S
C1822 C1821 1.349 . S
C1822 C1834 1.349 . S
C1823 C1821 1.327 . S
C1823 C1839 1.429 . S
C1823 H1845 0.946 . S
C1824 H1820 0.949 . S
C1824 C1832 1.574 . S
C1824 C1840 1.368 . S
H1825 C1833 0.950 . S
H1826 C1831 0.950 . S
H1827 C1832 0.949 . S
H1828 C1834 0.950 . S
H1829 C1835 0.950 . S
H1830 C1836 0.935 1_554 S
C1831 H1826 0.950 . S
C1831 C1833 1.327 . S
C1831 C1837 1.429 1_554 S
C1832 C1824 1.574 . S
C1832 H1827 0.949 . S
C1832 C1838 1.368 . S
C1833 C1817 1.349 . S
C1833 H1825 0.950 . S
C1833 C1831 1.327 . S
C1834 C1822 1.349 . S
C1834 H1828 0.950 . S
C1834 C1835 1.327 . S
C1835 H1829 0.950 . S
C1835 C1834 1.327 . S
C1835 C1839 1.429 . S
C1836 C1819 1.567 1_556 S
C1836 H1830 0.935 1_556 S
C1836 C1840 1.391 . S
C1837 C1818 1.429 . S
C1837 C1831 1.429 1_556 S
C1837 C1838 1.523 . S
C1838 C1819 1.368 1_556 S
C1838 C1832 1.368 . S
C1838 C1837 1.523 . S
C1839 C1823 1.429 . S
C1839 C1835 1.429 . S
C1839 C1840 1.523 . S
C1840 C1824 1.368 . S
C1840 C1836 1.391 . S
C1840 C1839 1.523 . S
H1841 C1816 0.950 . S
H1842 C1818 0.950 . S
H1843 C1819 0.949 . S
H1844 C1821 0.950 . S
H1845 C1823 0.946 . S
C1846 C1847 1.349 1_556 S
C1846 C1848 1.327 . S
C1846 H1871 0.950 . S
C1847 C1846 1.349 1_554 S
C1847 C1863 1.349 . S
C1848 C1846 1.327 . S
C1848 C1867 1.429 . S
C1848 H1872 0.950 . S
C1849 C1866 1.574 . S
C1849 C1868 1.368 1_554 S
C1849 H1873 0.949 . S
H1850 C1854 0.949 . S
C1851 C1852 1.349 . S
C1851 C1853 1.327 . S
C1851 H1874 0.950 . S
C1852 C1851 1.349 . S
C1852 C1864 1.349 . S
C1853 C1851 1.327 . S
C1853 C1869 1.429 . S
C1853 H1875 0.950 1_556 S
C1854 H1850 0.949 . S
C1854 C1862 1.574 . S
C1854 C1870 1.368 . S
H1855 C1863 0.950 . S
H1856 C1861 0.950 . S
H1857 C1862 0.949 . S
H1858 C1864 0.950 . S
H1859 C1865 0.950 . S
H1860 C1866 0.949 . S
C1861 H1856 0.950 . S
C1861 C1863 1.327 . S
C1861 C1867 1.429 1_554 S
C1862 C1854 1.574 . S
C1862 H1857 0.949 . S
C1862 C1868 1.368 . S
C1863 C1847 1.349 . S
C1863 H1855 0.950 . S
C1863 C1861 1.327 . S
C1864 C1852 1.349 . S
C1864 H1858 0.950 . S
C1864 C1865 1.327 . S
C1865 H1859 0.950 . S
C1865 C1864 1.327 . S
C1865 C1869 1.429 . S
C1866 C1849 1.574 . S
C1866 H1860 0.949 . S
C1866 C1870 1.368 1_554 S
C1867 C1848 1.429 . S
C1867 C1861 1.429 1_556 S
C1867 C1868 1.523 . S
C1868 C1849 1.368 1_556 S
C1868 C1862 1.368 . S
C1868 C1867 1.523 . S
C1869 C1853 1.429 . S
C1869 C1865 1.429 . S
C1869 C1870 1.523 . S
C1870 C1854 1.368 . S
C1870 C1866 1.368 1_556 S
C1870 C1869 1.523 . S
H1871 C1846 0.950 . S
H1872 C1848 0.950 . S
H1873 C1849 0.949 . S
H1874 C1851 0.950 . S
H1875 C1853 0.950 1_554 S
C1876 C1877 1.349 . S
C1876 C1878 1.327 . S
C1876 H1901 0.950 . S
C1877 C1876 1.349 . S
C1877 C1893 1.349 . S
C1878 C1876 1.327 . S
C1878 C1897 1.429 . S
C1878 H1902 0.950 . S
C1879 C1896 1.574 . S
C1879 C1898 1.368 . S
C1879 H1903 0.949 . S
H1880 C1884 0.949 . S
C1881 C1882 1.349 . S
C1881 C1883 1.327 . S
C1881 H1904 0.950 . S
C1882 C1881 1.349 . S
C1882 C1894 1.349 . S
C1883 C1881 1.327 . S
C1883 C1899 1.429 . S
C1883 H1905 0.950 . S
C1884 H1880 0.949 . S
C1884 C1892 1.574 . S
C1884 C1900 1.368 . S
H1885 C1893 0.950 . S
H1886 C1891 0.950 . S
H1887 C1892 0.949 . S
H1888 C1894 0.950 . S
H1889 C1895 0.950 . S
H1890 C1896 0.949 . S
C1891 H1886 0.950 . S
C1891 C1893 1.327 . S
C1891 C1897 1.429 . S
C1892 C1884 1.574 . S
C1892 H1887 0.949 . S
C1892 C1898 1.368 . S
C1893 C1877 1.349 . S
C1893 H1885 0.950 . S
C1893 C1891 1.327 . S
C1894 C1882 1.349 . S
C1894 H1888 0.950 . S
C1894 C1895 1.327 . S
C1895 H1889 0.950 . S
C1895 C1894 1.327 . S
C1895 C1899 1.429 . S
C1896 C1879 1.574 . S
C1896 H1890 0.949 . S
C1896 C1900 1.368 . S
C1897 C1878 1.429 . S
C1897 C1891 1.429 . S
C1897 C1898 1.523 . S
C1898 C1879 1.368 . S
C1898 C1892 1.368 . S
C1898 C1897 1.523 . S
C1899 C1883 1.429 . S
C1899 C1895 1.429 . S
C1899 C1900 1.523 . S
C1900 C1884 1.368 . S
C1900 C1896 1.368 . S
C1900 C1899 1.523 . S
H1901 C1876 0.950 . S
H1902 C1878 0.950 . S
H1903 C1879 0.949 . S
H1904 C1881 0.950 . S
H1905 C1883 0.950 . S
C1906 C1907 1.349 . S
C1906 C1908 1.327 . S
C1906 H1931 0.950 . S
C1907 C1906 1.349 . S
C1907 C1923 1.349 . S
C1908 C1906 1.327 . S
C1908 C1927 1.429 . S
C1908 H1932 0.950 . S
C1909 C1926 1.574 . S
C1909 C1928 1.368 . S
C1909 H1933 0.949 . S
H1910 C1914 0.949 . S
C1911 C1912 1.349 . S
C1911 C1913 1.327 . S
C1911 H1934 0.950 . S
C1912 C1911 1.349 . S
C1912 C1924 1.349 . S
C1913 C1911 1.327 . S
C1913 C1929 1.429 . S
C1913 H1935 0.950 . S
C1914 H1910 0.949 . S
C1914 C1922 1.574 . S
C1914 C1930 1.368 . S
H1915 C1923 0.950 . S
H1916 C1921 0.950 . S
H1917 C1922 0.949 . S
H1918 C1924 0.950 . S
H1919 C1925 0.950 . S
H1920 C1926 0.949 . S
C1921 H1916 0.950 . S
C1921 C1923 1.327 . S
C1921 C1927 1.429 . S
C1922 C1914 1.574 . S
C1922 H1917 0.949 . S
C1922 C1928 1.368 . S
C1923 C1907 1.349 . S
C1923 H1915 0.950 . S
C1923 C1921 1.327 . S
C1924 C1912 1.349 . S
C1924 H1918 0.950 . S
C1924 C1925 1.327 . S
C1925 H1919 0.950 . S
C1925 C1924 1.327 . S
C1925 C1929 1.429 . S
C1926 C1909 1.574 . S
C1926 H1920 0.949 . S
C1926 C1930 1.368 . S
C1927 C1908 1.429 . S
C1927 C1921 1.429 . S
C1927 C1928 1.523 . S
C1928 C1909 1.368 . S
C1928 C1922 1.368 . S
C1928 C1927 1.523 . S
C1929 C1913 1.429 . S
C1929 C1925 1.429 . S
C1929 C1930 1.523 . S
C1930 C1914 1.368 . S
C1930 C1926 1.368 . S
C1930 C1929 1.523 . S
H1931 C1906 0.950 . S
H1932 C1908 0.950 . S
H1933 C1909 0.949 . S
H1934 C1911 0.950 . S
H1935 C1913 0.950 . S
C1936 C1937 1.349 . S
C1936 C1938 1.327 . S
C1936 H1961 0.950 . S
C1937 C1936 1.349 . S
C1937 C1953 1.349 1_565 S
C1938 C1936 1.327 . S
C1938 C1957 1.429 . S
C1938 H1962 0.950 . S
C1939 C1956 1.574 . S
C1939 C1958 1.368 . S
C1939 H1963 0.949 . S
H1940 C1944 0.949 . S
C1941 C1942 1.349 . S
C1941 C1943 1.327 . S
C1941 H1964 0.950 . S
C1942 C1941 1.349 . S
C1942 C1954 1.349 . S
C1943 C1941 1.327 . S
C1943 C1959 1.429 . S
C1943 H1965 0.950 . S
C1944 H1940 0.949 . S
C1944 C1952 1.574 . S
C1944 C1960 1.368 . S
H1945 C1953 0.950 . S
H1946 C1951 0.955 . S
H1947 C1952 0.949 . S
H1948 C1954 0.950 . S
H1949 C1955 0.950 . S
H1950 C1956 0.949 . S
C1951 H1946 0.955 . S
C1951 C1953 1.327 1_565 S
C1951 C1957 1.429 . S
C1952 C1944 1.574 . S
C1952 H1947 0.949 . S
C1952 C1958 1.368 . S
C1953 C1937 1.349 1_545 S
C1953 H1945 0.950 . S
C1953 C1951 1.327 1_545 S
C1954 C1942 1.349 . S
C1954 H1948 0.950 . S
C1954 C1955 1.327 . S
C1955 H1949 0.950 . S
C1955 C1954 1.327 . S
C1955 C1959 1.429 . S
C1956 C1939 1.574 . S
C1956 H1950 0.949 . S
C1956 C1960 1.368 . S
C1957 C1938 1.429 . S
C1957 C1951 1.429 . S
C1957 C1958 1.523 . S
C1958 C1939 1.368 . S
C1958 C1952 1.368 . S
C1958 C1957 1.523 . S
C1959 C1943 1.429 . S
C1959 C1955 1.429 . S
C1959 C1960 1.523 . S
C1960 C1944 1.368 . S
C1960 C1956 1.368 . S
C1960 C1959 1.523 . S
H1961 C1936 0.950 . S
H1962 C1938 0.950 . S
H1963 C1939 0.949 . S
H1964 C1941 0.950 . S
H1965 C1943 0.950 . S
C1966 C1967 1.349 . S
C1966 C1968 1.327 . S
C1966 H1991 0.950 . S
C1967 C1966 1.349 . S
C1967 C1983 1.349 . S
C1968 C1966 1.327 . S
C1968 C1987 1.429 . S
C1968 H1992 0.950 . S
C1969 C1986 1.574 . S
C1969 C1988 1.368 . S
C1969 H1993 0.949 . S
H1970 C1974 0.949 . S
C1971 C1972 1.349 . S
C1971 C1973 1.327 . S
C1971 H1994 0.950 . S
C1972 C1971 1.349 . S
C1972 C1984 1.349 . S
C1973 C1971 1.327 . S
C1973 C1989 1.429 . S
C1973 H1995 0.950 . S
C1974 H1970 0.949 . S
C1974 C1982 1.574 . S
C1974 C1990 1.368 . S
H1975 C1983 0.950 . S
H1976 C1981 0.950 . S
H1977 C1982 0.949 . S
H1978 C1984 0.950 . S
H1979 C1985 0.950 . S
H1980 C1986 0.949 . S
C1981 H1976 0.950 . S
C1981 C1983 1.327 . S
C1981 C1987 1.429 . S
C1982 C1974 1.574 . S
C1982 H1977 0.949 . S
C1982 C1988 1.368 . S
C1983 C1967 1.349 . S
C1983 H1975 0.950 . S
C1983 C1981 1.327 . S
C1984 C1972 1.349 . S
C1984 H1978 0.950 . S
C1984 C1985 1.327 . S
C1985 H1979 0.950 . S
C1985 C1984 1.327 . S
C1985 C1989 1.429 . S
C1986 C1969 1.574 . S
C1986 H1980 0.949 . S
C1986 C1990 1.368 . S
C1987 C1968 1.429 . S
C1987 C1981 1.429 . S
C1987 C1988 1.523 . S
C1988 C1969 1.368 . S
C1988 C1982 1.368 . S
C1988 C1987 1.523 . S
C1989 C1973 1.429 . S
C1989 C1985 1.429 . S
C1989 C1990 1.523 . S
C1990 C1974 1.368 . S
C1990 C1986 1.368 . S
C1990 C1989 1.523 . S
H1991 C1966 0.950 . S
H1992 C1968 0.950 . S
H1993 C1969 0.949 . S
H1994 C1971 0.950 . S
H1995 C1973 0.950 . S
C1996 C1997 1.349 . S
C1996 C1998 1.327 . S
C1996 H2021 0.950 . S
C1997 C1996 1.349 . S
C1997 C2013 1.349 . S
C1998 C1996 1.327 . S
C1998 C2017 1.429 . S
C1998 H2022 0.950 . S
C1999 C2016 1.574 . S
C1999 C2018 1.368 . S
C1999 H2023 0.949 . S
H2000 C2004 0.949 . S
C2001 C2002 1.349 . S
C2001 C2003 1.327 . S
C2001 H2024 0.950 . S
C2002 C2001 1.349 . S
C2002 C2014 1.349 . S
C2003 C2001 1.327 . S
C2003 C2019 1.429 . S
C2003 H2025 0.950 . S
C2004 H2000 0.949 . S
C2004 C2012 1.574 . S
C2004 C2020 1.368 . S
H2005 C2013 0.950 . S
H2006 C2011 0.950 . S
H2007 C2012 0.949 . S
H2008 C2014 0.950 . S
H2009 C2015 0.950 . S
H2010 C2016 0.949 . S
C2011 H2006 0.950 . S
C2011 C2013 1.327 . S
C2011 C2017 1.429 . S
C2012 C2004 1.574 . S
C2012 H2007 0.949 . S
C2012 C2018 1.368 . S
C2013 C1997 1.349 . S
C2013 H2005 0.950 . S
C2013 C2011 1.327 . S
C2014 C2002 1.349 . S
C2014 H2008 0.950 . S
C2014 C2015 1.327 . S
C2015 H2009 0.950 . S
C2015 C2014 1.327 . S
C2015 C2019 1.429 . S
C2016 C1999 1.574 . S
C2016 H2010 0.949 . S
C2016 C2020 1.368 . S
C2017 C1998 1.429 . S
C2017 C2011 1.429 . S
C2017 C2018 1.523 . S
C2018 C1999 1.368 . S
C2018 C2012 1.368 . S
C2018 C2017 1.523 . S
C2019 C2003 1.429 . S
C2019 C2015 1.429 . S
C2019 C2020 1.523 . S
C2020 C2004 1.368 . S
C2020 C2016 1.368 . S
C2020 C2019 1.523 . S
H2021 C1996 0.950 . S
H2022 C1998 0.950 . S
H2023 C1999 0.949 . S
H2024 C2001 0.950 . S
H2025 C2003 0.950 . S
C2026 C2027 1.349 . S
C2026 C2028 1.327 . S
C2026 H2051 0.950 . S
C2027 C2026 1.349 . S
C2027 C2043 1.349 1_565 S
C2028 C2026 1.327 . S
C2028 C2047 1.429 . S
C2028 H2052 0.950 . S
C2029 C2046 1.574 . S
C2029 C2048 1.368 . S
C2029 H2053 0.949 . S
H2030 C2034 0.949 . S
C2031 C2032 1.349 . S
C2031 C2033 1.327 . S
C2031 H2054 0.950 . S
C2032 C2031 1.349 . S
C2032 C2044 1.349 . S
C2033 C2031 1.327 . S
C2033 C2049 1.429 . S
C2033 H2055 0.950 . S
C2034 H2030 0.949 . S
C2034 C2042 1.574 . S
C2034 C2050 1.368 . S
H2035 C2043 0.950 . S
H2036 C2041 0.950 1_545 S
H2037 C2042 0.949 . S
H2038 C2044 0.950 . S
H2039 C2045 0.950 . S
H2040 C2046 0.949 . S
C2041 H2036 0.950 1_565 S
C2041 C2043 1.327 1_565 S
C2041 C2047 1.429 . S
C2042 C2034 1.574 . S
C2042 H2037 0.949 . S
C2042 C2048 1.368 . S
C2043 C2027 1.349 1_545 S
C2043 H2035 0.950 . S
C2043 C2041 1.327 1_545 S
C2044 C2032 1.349 . S
C2044 H2038 0.950 . S
C2044 C2045 1.327 . S
C2045 H2039 0.950 . S
C2045 C2044 1.327 . S
C2045 C2049 1.429 . S
C2046 C2029 1.574 . S
C2046 H2040 0.949 . S
C2046 C2050 1.368 . S
C2047 C2028 1.429 . S
C2047 C2041 1.429 . S
C2047 C2048 1.523 . S
C2048 C2029 1.368 . S
C2048 C2042 1.368 . S
C2048 C2047 1.523 . S
C2049 C2033 1.429 . S
C2049 C2045 1.429 . S
C2049 C2050 1.523 . S
C2050 C2034 1.368 . S
C2050 C2046 1.368 . S
C2050 C2049 1.523 . S
H2051 C2026 0.950 . S
H2052 C2028 0.950 . S
H2053 C2029 0.949 . S
H2054 C2031 0.950 . S
H2055 C2033 0.950 . S
C2056 C2057 1.349 1_565 S
C2056 C2058 1.327 1_565 S
C2056 H2081 0.950 . S
C2057 C2056 1.349 1_545 S
C2057 C2073 1.349 . S
C2058 C2056 1.327 1_545 S
C2058 C2077 1.429 . S
C2058 H2082 0.950 1_545 S
C2059 C2076 1.574 . S
C2059 C2078 1.368 . S
C2059 H2083 0.949 . S
H2060 C2064 0.949 . S
C2061 C2062 1.349 . S
C2061 C2063 1.327 . S
C2061 H2084 0.950 . S
C2062 C2061 1.349 . S
C2062 C2074 1.349 . S
C2063 C2061 1.327 . S
C2063 C2079 1.429 . S
C2063 H2085 0.950 . S
C2064 H2060 0.949 . S
C2064 C2072 1.574 . S
C2064 C2080 1.368 . S
H2065 C2073 0.950 . S
H2066 C2071 0.950 . S
H2067 C2072 0.949 . S
H2068 C2074 0.950 . S
H2069 C2075 0.950 . S
H2070 C2076 0.949 . S
C2071 H2066 0.950 . S
C2071 C2073 1.327 . S
C2071 C2077 1.429 . S
C2072 C2064 1.574 . S
C2072 H2067 0.949 . S
C2072 C2078 1.368 . S
C2073 C2057 1.349 . S
C2073 H2065 0.950 . S
C2073 C2071 1.327 . S
C2074 C2062 1.349 . S
C2074 H2068 0.950 . S
C2074 C2075 1.327 . S
C2075 H2069 0.950 . S
C2075 C2074 1.327 . S
C2075 C2079 1.429 . S
C2076 C2059 1.574 . S
C2076 H2070 0.949 . S
C2076 C2080 1.368 . S
C2077 C2058 1.429 . S
C2077 C2071 1.429 . S
C2077 C2078 1.523 . S
C2078 C2059 1.368 . S
C2078 C2072 1.368 . S
C2078 C2077 1.523 . S
C2079 C2063 1.429 . S
C2079 C2075 1.429 . S
C2079 C2080 1.523 . S
C2080 C2064 1.368 . S
C2080 C2076 1.368 . S
C2080 C2079 1.523 . S
H2081 C2056 0.950 . S
H2082 C2058 0.950 1_565 S
H2083 C2059 0.949 . S
H2084 C2061 0.950 . S
H2085 C2063 0.950 . S
C2086 C2087 1.349 . S
C2086 C2088 1.327 . S
C2086 H2111 0.950 . S
C2087 C2086 1.349 . S
C2087 C2103 1.349 . S
C2088 C2086 1.327 . S
C2088 C2107 1.429 . S
C2088 H2112 0.950 . S
C2089 C2106 1.574 . S
C2089 C2108 1.368 . S
C2089 H2113 0.949 . S
H2090 C2094 0.949 . S
C2091 C2092 1.349 . S
C2091 C2093 1.327 . S
C2091 H2114 0.950 . S
C2092 C2091 1.349 . S
C2092 C2104 1.349 . S
C2093 C2091 1.327 . S
C2093 C2109 1.429 . S
C2093 H2115 0.950 . S
C2094 H2090 0.949 . S
C2094 C2102 1.574 . S
C2094 C2110 1.368 . S
H2095 C2103 0.950 . S
H2096 C2101 0.950 . S
H2097 C2102 0.949 . S
H2098 C2104 0.950 . S
H2099 C2105 0.950 . S
H2100 C2106 0.949 . S
C2101 H2096 0.950 . S
C2101 C2103 1.327 . S
C2101 C2107 1.429 . S
C2102 C2094 1.574 . S
C2102 H2097 0.949 . S
C2102 C2108 1.368 . S
C2103 C2087 1.349 . S
C2103 H2095 0.950 . S
C2103 C2101 1.327 . S
C2104 C2092 1.349 . S
C2104 H2098 0.950 . S
C2104 C2105 1.327 . S
C2105 H2099 0.950 . S
C2105 C2104 1.327 . S
C2105 C2109 1.429 . S
C2106 C2089 1.574 . S
C2106 H2100 0.949 . S
C2106 C2110 1.368 . S
C2107 C2088 1.429 . S
C2107 C2101 1.429 . S
C2107 C2108 1.523 . S
C2108 C2089 1.368 . S
C2108 C2102 1.368 . S
C2108 C2107 1.523 . S
C2109 C2093 1.429 . S
C2109 C2105 1.429 . S
C2109 C2110 1.523 . S
C2110 C2094 1.368 . S
C2110 C2106 1.368 . S
C2110 C2109 1.523 . S
H2111 C2086 0.950 . S
H2112 C2088 0.950 . S
H2113 C2089 0.949 . S
H2114 C2091 0.950 . S
H2115 C2093 0.950 . S
C2116 C2117 1.349 . S
C2116 C2118 1.327 . S
C2116 H2141 0.950 . S
C2117 C2116 1.349 . S
C2117 C2133 1.349 . S
C2118 C2116 1.327 . S
C2118 C2137 1.429 . S
C2118 H2142 0.950 . S
C2119 C2136 1.574 . S
C2119 C2138 1.368 . S
C2119 H2143 0.949 . S
H2120 C2124 0.949 . S
C2121 C2122 1.349 . S
C2121 C2123 1.327 . S
C2121 H2144 0.950 . S
C2122 C2121 1.349 . S
C2122 C2134 1.349 . S
C2123 C2121 1.327 . S
C2123 C2139 1.429 . S
C2123 H2145 0.950 . S
C2124 H2120 0.949 . S
C2124 C2132 1.574 . S
C2124 C2140 1.368 . S
H2125 C2133 0.950 . S
H2126 C2131 0.950 . S
H2127 C2132 0.949 . S
H2128 C2134 0.950 . S
H2129 C2135 0.950 . S
H2130 C2136 0.949 . S
C2131 H2126 0.950 . S
C2131 C2133 1.327 . S
C2131 C2137 1.429 . S
C2132 C2124 1.574 . S
C2132 H2127 0.949 . S
C2132 C2138 1.368 . S
C2133 C2117 1.349 . S
C2133 H2125 0.950 . S
C2133 C2131 1.327 . S
C2134 C2122 1.349 . S
C2134 H2128 0.950 . S
C2134 C2135 1.327 . S
C2135 H2129 0.950 . S
C2135 C2134 1.327 . S
C2135 C2139 1.429 . S
C2136 C2119 1.574 . S
C2136 H2130 0.949 . S
C2136 C2140 1.368 . S
C2137 C2118 1.429 . S
C2137 C2131 1.429 . S
C2137 C2138 1.523 . S
C2138 C2119 1.368 . S
C2138 C2132 1.368 . S
C2138 C2137 1.523 . S
C2139 C2123 1.429 . S
C2139 C2135 1.429 . S
C2139 C2140 1.523 . S
C2140 C2124 1.368 . S
C2140 C2136 1.368 . S
C2140 C2139 1.523 . S
H2141 C2116 0.950 . S
H2142 C2118 0.950 . S
H2143 C2119 0.949 . S
H2144 C2121 0.950 . S
H2145 C2123 0.950 . S
C2146 C2147 1.349 . S
C2146 C2148 1.327 . S
C2146 H2171 0.950 . S
C2147 C2146 1.349 . S
C2147 C2163 1.349 . S
C2148 C2146 1.327 . S
C2148 C2167 1.429 . S
C2148 H2172 0.950 . S
C2149 C2166 1.574 . S
C2149 C2168 1.368 . S
C2149 H2173 0.949 . S
H2150 C2154 0.949 . S
C2151 C2152 1.349 . S
C2151 C2153 1.327 . S
C2151 H2174 0.950 . S
C2152 C2151 1.349 . S
C2152 C2164 1.349 1_545 S
C2153 C2151 1.327 . S
C2153 C2169 1.429 . S
C2153 H2175 0.950 . S
C2154 H2150 0.949 . S
C2154 C2162 1.574 . S
C2154 C2170 1.368 . S
H2155 C2163 0.950 . S
H2156 C2161 0.950 . S
H2157 C2162 0.949 . S
H2158 C2164 0.950 . S
H2159 C2165 0.950 1_565 S
H2160 C2166 0.949 . S
C2161 H2156 0.950 . S
C2161 C2163 1.327 . S
C2161 C2167 1.429 . S
C2162 C2154 1.574 . S
C2162 H2157 0.949 . S
C2162 C2168 1.368 . S
C2163 C2147 1.349 . S
C2163 H2155 0.950 . S
C2163 C2161 1.327 . S
C2164 C2152 1.349 1_565 S
C2164 H2158 0.950 . S
C2164 C2165 1.327 1_565 S
C2165 H2159 0.950 1_545 S
C2165 C2164 1.327 1_545 S
C2165 C2169 1.429 . S
C2166 C2149 1.574 . S
C2166 H2160 0.949 . S
C2166 C2170 1.368 . S
C2167 C2148 1.429 . S
C2167 C2161 1.429 . S
C2167 C2168 1.523 . S
C2168 C2149 1.368 . S
C2168 C2162 1.368 . S
C2168 C2167 1.523 . S
C2169 C2153 1.429 . S
C2169 C2165 1.429 . S
C2169 C2170 1.523 . S
C2170 C2154 1.368 . S
C2170 C2166 1.368 . S
C2170 C2169 1.523 . S
H2171 C2146 0.950 . S
H2172 C2148 0.950 . S
H2173 C2149 0.949 . S
H2174 C2151 0.950 . S
H2175 C2153 0.950 . S
C2176 C2177 1.349 . S
C2176 C2178 1.327 . S
C2176 H2201 0.950 . S
C2177 C2176 1.349 . S
C2177 C2193 1.349 . S
C2178 C2176 1.327 . S
C2178 C2197 1.429 . S
C2178 H2202 0.950 . S
C2179 C2196 1.574 . S
C2179 C2198 1.368 . S
C2179 H2203 0.949 . S
H2180 C2184 0.949 . S
C2181 C2182 1.349 . S
C2181 C2183 1.327 . S
C2181 H2204 0.950 . S
C2182 C2181 1.349 . S
C2182 C2194 1.349 . S
C2183 C2181 1.327 . S
C2183 C2199 1.429 . S
C2183 H2205 0.950 . S
C2184 H2180 0.949 . S
C2184 C2192 1.574 . S
C2184 C2200 1.368 . S
H2185 C2193 0.950 . S
H2186 C2191 0.950 . S
H2187 C2192 0.949 . S
H2188 C2194 0.950 . S
H2189 C2195 0.950 . S
H2190 C2196 0.949 . S
C2191 H2186 0.950 . S
C2191 C2193 1.327 . S
C2191 C2197 1.429 . S
C2192 C2184 1.574 . S
C2192 H2187 0.949 . S
C2192 C2198 1.368 . S
C2193 C2177 1.349 . S
C2193 H2185 0.950 . S
C2193 C2191 1.327 . S
C2194 C2182 1.349 . S
C2194 H2188 0.950 . S
C2194 C2195 1.327 . S
C2195 H2189 0.950 . S
C2195 C2194 1.327 . S
C2195 C2199 1.429 . S
C2196 C2179 1.574 . S
C2196 H2190 0.949 . S
C2196 C2200 1.368 . S
C2197 C2178 1.429 . S
C2197 C2191 1.429 . S
C2197 C2198 1.523 . S
C2198 C2179 1.368 . S
C2198 C2192 1.368 . S
C2198 C2197 1.523 . S
C2199 C2183 1.429 . S
C2199 C2195 1.429 . S
C2199 C2200 1.523 . S
C2200 C2184 1.368 . S
C2200 C2196 1.368 . S
C2200 C2199 1.523 . S
H2201 C2176 0.950 . S
H2202 C2178 0.950 . S
H2203 C2179 0.949 . S
H2204 C2181 0.950 . S
H2205 C2183 0.950 . S
C2206 C2207 1.349 . S
C2206 C2208 1.327 . S
C2206 H2231 0.950 . S
C2207 C2206 1.349 . S
C2207 C2223 1.349 . S
C2208 C2206 1.327 . S
C2208 C2227 1.429 . S
C2208 H2232 0.950 . S
C2209 C2226 1.574 . S
C2209 C2228 1.368 . S
C2209 H2233 0.949 . S
H2210 C2214 0.949 . S
C2211 C2212 1.349 . S
C2211 C2213 1.327 . S
C2211 H2234 0.950 . S
C2212 C2211 1.349 . S
C2212 C2224 1.349 . S
C2213 C2211 1.327 . S
C2213 C2229 1.429 . S
C2213 H2235 0.950 . S
C2214 H2210 0.949 . S
C2214 C2222 1.574 . S
C2214 C2230 1.368 . S
H2215 C2223 0.950 . S
H2216 C2221 0.950 . S
H2217 C2222 0.949 . S
H2218 C2224 0.950 . S
H2219 C2225 0.950 . S
H2220 C2226 0.949 . S
C2221 H2216 0.950 . S
C2221 C2223 1.327 . S
C2221 C2227 1.429 . S
C2222 C2214 1.574 . S
C2222 H2217 0.949 . S
C2222 C2228 1.368 . S
C2223 C2207 1.349 . S
C2223 H2215 0.950 . S
C2223 C2221 1.327 . S
C2224 C2212 1.349 . S
C2224 H2218 0.950 . S
C2224 C2225 1.327 . S
C2225 H2219 0.950 . S
C2225 C2224 1.327 . S
C2225 C2229 1.429 . S
C2226 C2209 1.574 . S
C2226 H2220 0.949 . S
C2226 C2230 1.368 . S
C2227 C2208 1.429 . S
C2227 C2221 1.429 . S
C2227 C2228 1.523 . S
C2228 C2209 1.368 . S
C2228 C2222 1.368 . S
C2228 C2227 1.523 . S
C2229 C2213 1.429 . S
C2229 C2225 1.429 . S
C2229 C2230 1.523 . S
C2230 C2214 1.368 . S
C2230 C2226 1.368 . S
C2230 C2229 1.523 . S
H2231 C2206 0.950 . S
H2232 C2208 0.950 . S
H2233 C2209 0.949 . S
H2234 C2211 0.950 . S
H2235 C2213 0.950 . S
C2236 C2237 1.349 . S
C2236 C2238 1.327 . S
C2236 H2261 0.950 . S
C2237 C2236 1.349 . S
C2237 C2253 1.349 . S
C2238 C2236 1.327 . S
C2238 C2257 1.429 . S
C2238 H2262 0.950 . S
C2239 C2256 1.574 . S
C2239 C2258 1.368 . S
C2239 H2263 0.949 . S
H2240 C2244 0.949 . S
C2241 C2242 1.349 . S
C2241 C2243 1.327 . S
C2241 H2264 0.950 . S
C2242 C2241 1.349 . S
C2242 C2254 1.349 . S
C2243 C2241 1.327 . S
C2243 C2259 1.429 . S
C2243 H2265 0.950 . S
C2244 H2240 0.949 . S
C2244 C2252 1.574 . S
C2244 C2260 1.368 . S
H2245 C2253 0.950 . S
H2246 C2251 0.950 . S
H2247 C2252 0.949 . S
H2248 C2254 0.950 . S
H2249 C2255 0.950 . S
H2250 C2256 0.949 . S
C2251 H2246 0.950 . S
C2251 C2253 1.327 . S
C2251 C2257 1.429 . S
C2252 C2244 1.574 . S
C2252 H2247 0.949 . S
C2252 C2258 1.368 . S
C2253 C2237 1.349 . S
C2253 H2245 0.950 . S
C2253 C2251 1.327 . S
C2254 C2242 1.349 . S
C2254 H2248 0.950 . S
C2254 C2255 1.327 . S
C2255 H2249 0.950 . S
C2255 C2254 1.327 . S
C2255 C2259 1.429 . S
C2256 C2239 1.574 . S
C2256 H2250 0.949 . S
C2256 C2260 1.368 . S
C2257 C2238 1.429 . S
C2257 C2251 1.429 . S
C2257 C2258 1.523 . S
C2258 C2239 1.368 . S
C2258 C2252 1.368 . S
C2258 C2257 1.523 . S
C2259 C2243 1.429 . S
C2259 C2255 1.429 . S
C2259 C2260 1.523 . S
C2260 C2244 1.368 . S
C2260 C2256 1.368 . S
C2260 C2259 1.523 . S
H2261 C2236 0.950 . S
H2262 C2238 0.950 . S
H2263 C2239 0.949 . S
H2264 C2241 0.950 . S
H2265 C2243 0.950 . S
C2266 C2267 1.349 . S
C2266 C2268 1.327 . S
C2266 H2291 0.950 . S
C2267 C2266 1.349 . S
C2267 C2283 1.349 . S
C2268 C2266 1.327 . S
C2268 C2287 1.429 . S
C2268 H2292 0.950 . S
C2269 C2286 1.574 . S
C2269 C2288 1.368 . S
C2269 H2293 0.949 . S
H2270 C2274 0.949 . S
C2271 C2272 1.349 . S
C2271 C2273 1.327 . S
C2271 H2294 0.950 . S
C2272 C2271 1.349 . S
C2272 C2284 1.349 . S
C2273 C2271 1.327 . S
C2273 C2289 1.429 . S
C2273 H2295 0.950 . S
C2274 H2270 0.949 . S
C2274 C2282 1.574 . S
C2274 C2290 1.368 . S
H2275 C2283 0.950 . S
H2276 C2281 0.950 . S
H2277 C2282 0.949 . S
H2278 C2284 0.950 . S
H2279 C2285 0.950 . S
H2280 C2286 0.949 . S
C2281 H2276 0.950 . S
C2281 C2283 1.327 . S
C2281 C2287 1.429 . S
C2282 C2274 1.574 . S
C2282 H2277 0.949 . S
C2282 C2288 1.368 . S
C2283 C2267 1.349 . S
C2283 H2275 0.950 . S
C2283 C2281 1.327 . S
C2284 C2272 1.349 . S
C2284 H2278 0.950 . S
C2284 C2285 1.327 . S
C2285 H2279 0.950 . S
C2285 C2284 1.327 . S
C2285 C2289 1.429 . S
C2286 C2269 1.574 . S
C2286 H2280 0.949 . S
C2286 C2290 1.368 . S
C2287 C2268 1.429 . S
C2287 C2281 1.429 . S
C2287 C2288 1.523 . S
C2288 C2269 1.368 . S
C2288 C2282 1.368 . S
C2288 C2287 1.523 . S
C2289 C2273 1.429 . S
C2289 C2285 1.429 . S
C2289 C2290 1.523 . S
C2290 C2274 1.368 . S
C2290 C2286 1.368 . S
C2290 C2289 1.523 . S
H2291 C2266 0.950 . S
H2292 C2268 0.950 . S
H2293 C2269 0.949 . S
H2294 C2271 0.950 . S
H2295 C2273 0.950 . S
C2296 C2297 1.349 . S
C2296 C2298 1.327 . S
C2296 H2321 0.950 . S
C2297 C2296 1.349 . S
C2297 C2313 1.349 . S
C2298 C2296 1.327 . S
C2298 C2317 1.429 . S
C2298 H2322 0.950 . S
C2299 C2316 1.574 . S
C2299 C2318 1.368 . S
C2299 H2323 0.949 . S
H2300 C2304 0.949 . S
C2301 C2302 1.349 . S
C2301 C2303 1.327 . S
C2301 H2324 0.950 . S
C2302 C2301 1.349 . S
C2302 C2314 1.349 . S
C2303 C2301 1.327 . S
C2303 C2319 1.429 . S
C2303 H2325 0.950 . S
C2304 H2300 0.949 . S
C2304 C2312 1.574 . S
C2304 C2320 1.368 . S
H2305 C2313 0.950 . S
H2306 C2311 0.950 . S
H2307 C2312 0.949 . S
H2308 C2314 0.950 . S
H2309 C2315 0.950 . S
H2310 C2316 0.949 . S
C2311 H2306 0.950 . S
C2311 C2313 1.327 . S
C2311 C2317 1.429 . S
C2312 C2304 1.574 . S
C2312 H2307 0.949 . S
C2312 C2318 1.368 . S
C2313 C2297 1.349 . S
C2313 H2305 0.950 . S
C2313 C2311 1.327 . S
C2314 C2302 1.349 . S
C2314 H2308 0.950 . S
C2314 C2315 1.327 . S
C2315 H2309 0.950 . S
C2315 C2314 1.327 . S
C2315 C2319 1.429 . S
C2316 C2299 1.574 . S
C2316 H2310 0.949 . S
C2316 C2320 1.368 . S
C2317 C2298 1.429 . S
C2317 C2311 1.429 . S
C2317 C2318 1.523 . S
C2318 C2299 1.368 . S
C2318 C2312 1.368 . S
C2318 C2317 1.523 . S
C2319 C2303 1.429 . S
C2319 C2315 1.429 . S
C2319 C2320 1.523 . S
C2320 C2304 1.368 . S
C2320 C2316 1.368 . S
C2320 C2319 1.523 . S
H2321 C2296 0.950 . S
H2322 C2298 0.950 . S
H2323 C2299 0.949 . S
H2324 C2301 0.950 . S
H2325 C2303 0.950 . S
C2326 C2327 1.349 . S
C2326 C2328 1.327 . S
C2326 H2351 0.950 . S
C2327 C2326 1.349 . S
C2327 C2343 1.349 . S
C2328 C2326 1.327 . S
C2328 C2347 1.429 . S
C2328 H2352 0.950 . S
C2329 C2346 1.574 . S
C2329 C2348 1.368 . S
C2329 H2353 0.949 . S
H2330 C2334 0.949 . S
C2331 C2332 1.349 . S
C2331 C2333 1.327 . S
C2331 H2354 0.950 . S
C2332 C2331 1.349 . S
C2332 C2344 1.349 . S
C2333 C2331 1.327 . S
C2333 C2349 1.429 . S
C2333 H2355 0.950 . S
C2334 H2330 0.949 . S
C2334 C2342 1.574 . S
C2334 C2350 1.368 . S
H2335 C2343 0.950 . S
H2336 C2341 0.950 . S
H2337 C2342 0.949 . S
H2338 C2344 0.950 . S
H2339 C2345 0.950 . S
H2340 C2346 0.949 . S
C2341 H2336 0.950 . S
C2341 C2343 1.327 . S
C2341 C2347 1.429 . S
C2342 C2334 1.574 . S
C2342 H2337 0.949 . S
C2342 C2348 1.368 . S
C2343 C2327 1.349 . S
C2343 H2335 0.950 . S
C2343 C2341 1.327 . S
C2344 C2332 1.349 . S
C2344 H2338 0.950 . S
C2344 C2345 1.327 . S
C2345 H2339 0.950 . S
C2345 C2344 1.327 . S
C2345 C2349 1.429 . S
C2346 C2329 1.574 . S
C2346 H2340 0.949 . S
C2346 C2350 1.368 . S
C2347 C2328 1.429 . S
C2347 C2341 1.429 . S
C2347 C2348 1.523 . S
C2348 C2329 1.368 . S
C2348 C2342 1.368 . S
C2348 C2347 1.523 . S
C2349 C2333 1.429 . S
C2349 C2345 1.429 . S
C2349 C2350 1.523 . S
C2350 C2334 1.368 . S
C2350 C2346 1.368 . S
C2350 C2349 1.523 . S
H2351 C2326 0.950 . S
H2352 C2328 0.950 . S
H2353 C2329 0.949 . S
H2354 C2331 0.950 . S
H2355 C2333 0.950 . S
C2356 C2357 1.349 . S
C2356 C2358 1.327 . S
C2356 H2381 0.950 . S
C2357 C2356 1.349 . S
C2357 C2373 1.349 . S
C2358 C2356 1.327 . S
C2358 C2377 1.429 . S
C2358 H2382 0.950 . S
C2359 C2376 1.574 . S
C2359 C2378 1.368 . S
C2359 H2383 0.949 . S
H2360 C2364 0.949 . S
C2361 C2362 1.349 . S
C2361 C2363 1.327 . S
C2361 H2384 0.950 . S
C2362 C2361 1.349 . S
C2362 C2374 1.349 . S
C2363 C2361 1.327 . S
C2363 C2379 1.429 . S
C2363 H2385 0.950 . S
C2364 H2360 0.949 . S
C2364 C2372 1.574 . S
C2364 C2380 1.368 . S
H2365 C2373 0.950 . S
H2366 C2371 0.950 . S
H2367 C2372 0.949 . S
H2368 C2374 0.950 . S
H2369 C2375 0.950 . S
H2370 C2376 0.949 . S
C2371 H2366 0.950 . S
C2371 C2373 1.327 . S
C2371 C2377 1.429 . S
C2372 C2364 1.574 . S
C2372 H2367 0.949 . S
C2372 C2378 1.368 . S
C2373 C2357 1.349 . S
C2373 H2365 0.950 . S
C2373 C2371 1.327 . S
C2374 C2362 1.349 . S
C2374 H2368 0.950 . S
C2374 C2375 1.327 . S
C2375 H2369 0.950 . S
C2375 C2374 1.327 . S
C2375 C2379 1.429 . S
C2376 C2359 1.574 . S
C2376 H2370 0.949 . S
C2376 C2380 1.368 . S
C2377 C2358 1.429 . S
C2377 C2371 1.429 . S
C2377 C2378 1.523 . S
C2378 C2359 1.368 . S
C2378 C2372 1.368 . S
C2378 C2377 1.523 . S
C2379 C2363 1.429 . S
C2379 C2375 1.429 . S
C2379 C2380 1.523 . S
C2380 C2364 1.368 . S
C2380 C2376 1.368 . S
C2380 C2379 1.523 . S
H2381 C2356 0.950 . S
H2382 C2358 0.950 . S
H2383 C2359 0.949 . S
H2384 C2361 0.950 . S
H2385 C2363 0.950 . S
C2386 C2387 1.349 . S
C2386 C2388 1.327 . S
C2386 H2411 0.950 . S
C2387 C2386 1.349 . S
C2387 C2403 1.349 . S
C2388 C2386 1.327 . S
C2388 C2407 1.429 . S
C2388 H2412 0.950 . S
C2389 C2406 1.574 . S
C2389 C2408 1.368 . S
C2389 H2413 0.949 . S
H2390 C2394 0.949 . S
C2391 C2392 1.349 . S
C2391 C2393 1.327 . S
C2391 H2414 0.950 . S
C2392 C2391 1.349 . S
C2392 C2404 1.349 . S
C2393 C2391 1.327 . S
C2393 C2409 1.429 . S
C2393 H2415 0.950 . S
C2394 H2390 0.949 . S
C2394 C2402 1.574 . S
C2394 C2410 1.368 . S
H2395 C2403 0.950 . S
H2396 C2401 0.950 . S
H2397 C2402 0.949 . S
H2398 C2404 0.950 . S
H2399 C2405 0.950 . S
H2400 C2406 0.949 . S
C2401 H2396 0.950 . S
C2401 C2403 1.327 . S
C2401 C2407 1.429 . S
C2402 C2394 1.574 . S
C2402 H2397 0.949 . S
C2402 C2408 1.368 . S
C2403 C2387 1.349 . S
C2403 H2395 0.950 . S
C2403 C2401 1.327 . S
C2404 C2392 1.349 . S
C2404 H2398 0.950 . S
C2404 C2405 1.327 . S
C2405 H2399 0.950 . S
C2405 C2404 1.327 . S
C2405 C2409 1.429 . S
C2406 C2389 1.574 . S
C2406 H2400 0.949 . S
C2406 C2410 1.368 . S
C2407 C2388 1.429 . S
C2407 C2401 1.429 . S
C2407 C2408 1.523 . S
C2408 C2389 1.368 . S
C2408 C2402 1.368 . S
C2408 C2407 1.523 . S
C2409 C2393 1.429 . S
C2409 C2405 1.429 . S
C2409 C2410 1.523 . S
C2410 C2394 1.368 . S
C2410 C2406 1.368 . S
C2410 C2409 1.523 . S
H2411 C2386 0.950 . S
H2412 C2388 0.950 . S
H2413 C2389 0.949 . S
H2414 C2391 0.950 . S
H2415 C2393 0.950 . S
C2416 C2417 1.349 1_545 S
C2416 C2418 1.327 1_545 S
C2416 H2441 0.950 . S
C2417 C2416 1.349 1_565 S
C2417 C2433 1.349 . S
C2418 C2416 1.327 1_565 S
C2418 C2437 1.429 1_556 S
C2418 H2442 0.953 1_565 S
C2419 C2436 1.574 . S
C2419 C2438 1.368 . S
C2419 H2443 0.949 . S
H2420 C2424 0.949 . S
C2421 C2422 1.349 . S
C2421 C2423 1.327 . S
C2421 H2444 0.950 . S
C2422 C2421 1.349 . S
C2422 C2434 1.349 . S
C2423 C2421 1.327 . S
C2423 C2439 1.429 . S
C2423 H2445 0.950 . S
C2424 H2420 0.949 . S
C2424 C2432 1.574 . S
C2424 C2440 1.368 . S
H2425 C2433 0.950 . S
H2426 C2431 0.956 . S
H2427 C2432 0.949 . S
H2428 C2434 0.950 . S
H2429 C2435 0.950 . S
H2430 C2436 0.949 . S
C2431 H2426 0.956 . S
C2431 C2433 1.319 1_554 S
C2431 C2437 1.432 . S
C2432 C2424 1.574 . S
C2432 H2427 0.949 . S
C2432 C2438 1.368 . S
C2433 C2417 1.349 . S
C2433 H2425 0.950 . S
C2433 C2431 1.319 1_556 S
C2434 C2422 1.349 . S
C2434 H2428 0.950 . S
C2434 C2435 1.327 . S
C2435 H2429 0.950 . S
C2435 C2434 1.327 . S
C2435 C2439 1.429 . S
C2436 C2419 1.574 . S
C2436 H2430 0.949 . S
C2436 C2440 1.368 . S
C2437 C2418 1.429 1_554 S
C2437 C2431 1.432 . S
C2437 C2438 1.523 . S
C2438 C2419 1.368 . S
C2438 C2432 1.368 . S
C2438 C2437 1.523 . S
C2439 C2423 1.429 . S
C2439 C2435 1.429 . S
C2439 C2440 1.523 . S
C2440 C2424 1.368 . S
C2440 C2436 1.368 . S
C2440 C2439 1.523 . S
H2441 C2416 0.950 . S
H2442 C2418 0.953 1_545 S
H2443 C2419 0.949 . S
H2444 C2421 0.950 . S
H2445 C2423 0.950 . S
C2446 C2447 1.349 1_554 S
C2446 C2448 1.327 . S
C2446 H2471 0.950 . S
C2447 C2446 1.349 1_556 S
C2447 C2463 1.349 . S
C2448 C2446 1.327 . S
C2448 C2467 1.429 . S
C2448 H2472 0.950 . S
C2449 C2466 1.568 1_556 S
C2449 C2468 1.358 1_556 S
C2449 H2473 0.965 . S
H2450 C2454 0.949 . S
C2451 C2452 1.349 . S
C2451 C2453 1.327 . S
C2451 H2474 0.950 . S
C2452 C2451 1.349 . S
C2452 C2464 1.349 . S
C2453 C2451 1.327 . S
C2453 C2469 1.429 . S
C2453 H2475 0.950 . S
C2454 H2450 0.949 . S
C2454 C2462 1.574 . S
C2454 C2470 1.368 . S
H2455 C2463 0.950 . S
H2456 C2461 0.950 . S
H2457 C2462 0.949 . S
H2458 C2464 0.950 . S
H2459 C2465 0.950 . S
H2460 C2466 0.959 . S
C2461 H2456 0.950 . S
C2461 C2463 1.327 . S
C2461 C2467 1.429 1_556 S
C2462 C2454 1.574 . S
C2462 H2457 0.949 . S
C2462 C2468 1.368 . S
C2463 C2447 1.349 . S
C2463 H2455 0.950 . S
C2463 C2461 1.327 . S
C2464 C2452 1.349 . S
C2464 H2458 0.950 . S
C2464 C2465 1.327 . S
C2465 H2459 0.950 . S
C2465 C2464 1.327 . S
C2465 C2469 1.429 . S
C2466 C2449 1.568 1_554 S
C2466 H2460 0.959 . S
C2466 C2470 1.368 . S
C2467 C2448 1.429 . S
C2467 C2461 1.429 1_554 S
C2467 C2468 1.523 . S
C2468 C2449 1.358 1_554 S
C2468 C2462 1.368 . S
C2468 C2467 1.523 . S
C2469 C2453 1.429 . S
C2469 C2465 1.429 . S
C2469 C2470 1.523 . S
C2470 C2454 1.368 . S
C2470 C2466 1.368 . S
C2470 C2469 1.523 . S
H2471 C2446 0.950 . S
H2472 C2448 0.950 . S
H2473 C2449 0.965 . S
H2474 C2451 0.950 . S
H2475 C2453 0.950 . S
C2476 C2477 1.349 . S
C2476 C2478 1.327 . S
C2476 H2501 0.950 . S
C2477 C2476 1.349 . S
C2477 C2493 1.349 . S
C2478 C2476 1.327 . S
C2478 C2497 1.429 . S
C2478 H2502 0.950 . S
C2479 C2496 1.574 . S
C2479 C2498 1.368 . S
C2479 H2503 0.949 . S
H2480 C2484 0.949 . S
C2481 C2482 1.349 . S
C2481 C2483 1.327 . S
C2481 H2504 0.950 . S
C2482 C2481 1.349 . S
C2482 C2494 1.349 . S
C2483 C2481 1.327 . S
C2483 C2499 1.429 . S
C2483 H2505 0.950 . S
C2484 H2480 0.949 . S
C2484 C2492 1.574 . S
C2484 C2500 1.368 . S
H2485 C2493 0.950 . S
H2486 C2491 0.950 . S
H2487 C2492 0.949 . S
H2488 C2494 0.950 . S
H2489 C2495 0.950 . S
H2490 C2496 0.949 . S
C2491 H2486 0.950 . S
C2491 C2493 1.327 . S
C2491 C2497 1.429 . S
C2492 C2484 1.574 . S
C2492 H2487 0.949 . S
C2492 C2498 1.368 . S
C2493 C2477 1.349 . S
C2493 H2485 0.950 . S
C2493 C2491 1.327 . S
C2494 C2482 1.349 . S
C2494 H2488 0.950 . S
C2494 C2495 1.327 . S
C2495 H2489 0.950 . S
C2495 C2494 1.327 . S
C2495 C2499 1.429 . S
C2496 C2479 1.574 . S
C2496 H2490 0.949 . S
C2496 C2500 1.368 . S
C2497 C2478 1.429 . S
C2497 C2491 1.429 . S
C2497 C2498 1.523 . S
C2498 C2479 1.368 . S
C2498 C2492 1.368 . S
C2498 C2497 1.523 . S
C2499 C2483 1.429 . S
C2499 C2495 1.429 . S
C2499 C2500 1.523 . S
C2500 C2484 1.368 . S
C2500 C2496 1.368 . S
C2500 C2499 1.523 . S
H2501 C2476 0.950 . S
H2502 C2478 0.950 . S
H2503 C2479 0.949 . S
H2504 C2481 0.950 . S
H2505 C2483 0.950 . S
C2506 C2507 1.349 . S
C2506 C2508 1.327 . S
C2506 H2531 0.950 . S
C2507 C2506 1.349 . S
C2507 C2523 1.349 . S
C2508 C2506 1.327 . S
C2508 C2527 1.429 . S
C2508 H2532 0.950 . S
C2509 C2526 1.574 . S
C2509 C2528 1.368 . S
C2509 H2533 0.949 . S
H2510 C2514 0.949 . S
C2511 C2512 1.346 1_545 S
C2511 C2513 1.307 1_545 S
C2511 H2534 0.975 . S
C2512 C2511 1.346 1_565 S
C2512 C2524 1.349 . S
C2513 C2511 1.307 1_565 S
C2513 C2529 1.429 . S
C2513 H2535 0.950 . S
C2514 H2510 0.949 . S
C2514 C2522 1.574 . S
C2514 C2530 1.368 . S
H2515 C2523 0.950 . S
H2516 C2521 0.950 . S
H2517 C2522 0.949 . S
H2518 C2524 0.950 . S
H2519 C2525 0.950 . S
H2520 C2526 0.949 . S
C2521 H2516 0.950 . S
C2521 C2523 1.327 . S
C2521 C2527 1.429 . S
C2522 C2514 1.574 . S
C2522 H2517 0.949 . S
C2522 C2528 1.368 . S
C2523 C2507 1.349 . S
C2523 H2515 0.950 . S
C2523 C2521 1.327 . S
C2524 C2512 1.349 . S
C2524 H2518 0.950 . S
C2524 C2525 1.327 . S
C2525 H2519 0.950 . S
C2525 C2524 1.327 . S
C2525 C2529 1.429 . S
C2526 C2509 1.574 . S
C2526 H2520 0.949 . S
C2526 C2530 1.368 . S
C2527 C2508 1.429 . S
C2527 C2521 1.429 . S
C2527 C2528 1.523 . S
C2528 C2509 1.368 . S
C2528 C2522 1.368 . S
C2528 C2527 1.523 . S
C2529 C2513 1.429 . S
C2529 C2525 1.429 . S
C2529 C2530 1.523 . S
C2530 C2514 1.368 . S
C2530 C2526 1.368 . S
C2530 C2529 1.523 . S
H2531 C2506 0.950 . S
H2532 C2508 0.950 . S
H2533 C2509 0.949 . S
H2534 C2511 0.975 . S
H2535 C2513 0.950 . S
C2536 C2537 1.349 . S
C2536 C2538 1.327 . S
C2536 H2561 0.950 . S
C2537 C2536 1.349 . S
C2537 C2553 1.349 . S
C2538 C2536 1.327 . S
C2538 C2557 1.429 . S
C2538 H2562 0.950 . S
C2539 C2556 1.574 . S
C2539 C2558 1.368 . S
C2539 H2563 0.949 . S
H2540 C2544 0.949 . S
C2541 C2542 1.349 1_566 S
C2541 C2543 1.327 1_565 S
C2541 H2564 0.950 . S
C2542 C2541 1.349 1_544 S
C2542 C2554 1.349 . S
C2543 C2541 1.327 1_545 S
C2543 C2559 1.429 . S
C2543 H2565 0.950 1_545 S
C2544 H2540 0.949 . S
C2544 C2552 1.574 1_554 S
C2544 C2560 1.368 1_554 S
H2545 C2553 0.950 . S
H2546 C2551 0.950 . S
H2547 C2552 0.949 1_554 S
H2548 C2554 0.950 . S
H2549 C2555 0.950 . S
H2550 C2556 0.949 . S
C2551 H2546 0.950 . S
C2551 C2553 1.327 . S
C2551 C2557 1.429 . S
C2552 C2544 1.574 1_556 S
C2552 H2547 0.949 1_556 S
C2552 C2558 1.368 . S
C2553 C2537 1.349 . S
C2553 H2545 0.950 . S
C2553 C2551 1.327 . S
C2554 C2542 1.349 . S
C2554 H2548 0.950 . S
C2554 C2555 1.327 . S
C2555 H2549 0.950 . S
C2555 C2554 1.327 . S
C2555 C2559 1.429 1_554 S
C2556 C2539 1.574 . S
C2556 H2550 0.949 . S
C2556 C2560 1.368 . S
C2557 C2538 1.429 . S
C2557 C2551 1.429 . S
C2557 C2558 1.523 . S
C2558 C2539 1.368 . S
C2558 C2552 1.368 . S
C2558 C2557 1.523 . S
C2559 C2543 1.429 . S
C2559 C2555 1.429 1_556 S
C2559 C2560 1.523 . S
C2560 C2544 1.368 1_556 S
C2560 C2556 1.368 . S
C2560 C2559 1.523 . S
H2561 C2536 0.950 . S
H2562 C2538 0.950 . S
H2563 C2539 0.949 . S
H2564 C2541 0.950 . S
H2565 C2543 0.950 1_565 S
C2566 C2567 1.349 . S
C2566 C2568 1.327 . S
C2566 H2591 0.950 . S
C2567 C2566 1.349 . S
C2567 C2583 1.349 . S
C2568 C2566 1.327 . S
C2568 C2587 1.429 . S
C2568 H2592 0.950 . S
C2569 C2586 1.574 . S
C2569 C2588 1.368 . S
C2569 H2593 0.949 . S
H2570 C2574 0.949 . S
C2571 C2572 1.349 1_556 S
C2571 C2573 1.327 . S
C2571 H2594 0.950 . S
C2572 C2571 1.349 1_554 S
C2572 C2584 1.349 . S
C2573 C2571 1.327 . S
C2573 C2589 1.429 . S
C2573 H2595 0.950 . S
C2574 H2570 0.949 . S
C2574 C2582 1.574 1_554 S
C2574 C2590 1.368 1_554 S
H2575 C2583 0.950 . S
H2576 C2581 0.950 . S
H2577 C2582 0.949 1_554 S
H2578 C2584 0.950 . S
H2579 C2585 0.950 . S
H2580 C2586 0.949 . S
C2581 H2576 0.950 . S
C2581 C2583 1.327 . S
C2581 C2587 1.429 . S
C2582 C2574 1.574 1_556 S
C2582 H2577 0.949 1_556 S
C2582 C2588 1.368 . S
C2583 C2567 1.349 . S
C2583 H2575 0.950 . S
C2583 C2581 1.327 . S
C2584 C2572 1.349 . S
C2584 H2578 0.950 . S
C2584 C2585 1.327 . S
C2585 H2579 0.950 . S
C2585 C2584 1.327 . S
C2585 C2589 1.429 1_554 S
C2586 C2569 1.574 . S
C2586 H2580 0.949 . S
C2586 C2590 1.368 . S
C2587 C2568 1.429 . S
C2587 C2581 1.429 . S
C2587 C2588 1.523 . S
C2588 C2569 1.368 . S
C2588 C2582 1.368 . S
C2588 C2587 1.523 . S
C2589 C2573 1.429 . S
C2589 C2585 1.429 1_556 S
C2589 C2590 1.523 . S
C2590 C2574 1.368 1_556 S
C2590 C2586 1.368 . S
C2590 C2589 1.523 . S
H2591 C2566 0.950 . S
H2592 C2568 0.950 . S
H2593 C2569 0.949 . S
H2594 C2571 0.950 . S
H2595 C2573 0.950 . S
C2596 C2597 1.349 . S
C2596 C2598 1.327 . S
C2596 H2621 0.950 . S
C2597 C2596 1.349 . S
C2597 C2613 1.349 . S
C2598 C2596 1.327 . S
C2598 C2617 1.429 . S
C2598 H2622 0.950 . S
C2599 C2616 1.574 . S
C2599 C2618 1.368 . S
C2599 H2623 0.949 . S
H2600 C2604 0.949 . S
C2601 C2602 1.349 . S
C2601 C2603 1.327 . S
C2601 H2624 0.950 . S
C2602 C2601 1.349 . S
C2602 C2614 1.349 . S
C2603 C2601 1.327 . S
C2603 C2619 1.429 . S
C2603 H2625 0.950 . S
C2604 H2600 0.949 . S
C2604 C2612 1.574 . S
C2604 C2620 1.368 . S
H2605 C2613 0.950 . S
H2606 C2611 0.950 . S
H2607 C2612 0.949 . S
H2608 C2614 0.950 . S
H2609 C2615 0.950 . S
H2610 C2616 0.949 . S
C2611 H2606 0.950 . S
C2611 C2613 1.327 . S
C2611 C2617 1.429 . S
C2612 C2604 1.574 . S
C2612 H2607 0.949 . S
C2612 C2618 1.368 . S
C2613 C2597 1.349 . S
C2613 H2605 0.950 . S
C2613 C2611 1.327 . S
C2614 C2602 1.349 . S
C2614 H2608 0.950 . S
C2614 C2615 1.327 . S
C2615 H2609 0.950 . S
C2615 C2614 1.327 . S
C2615 C2619 1.429 . S
C2616 C2599 1.574 . S
C2616 H2610 0.949 . S
C2616 C2620 1.368 . S
C2617 C2598 1.429 . S
C2617 C2611 1.429 . S
C2617 C2618 1.523 . S
C2618 C2599 1.368 . S
C2618 C2612 1.368 . S
C2618 C2617 1.523 . S
C2619 C2603 1.429 . S
C2619 C2615 1.429 . S
C2619 C2620 1.523 . S
C2620 C2604 1.368 . S
C2620 C2616 1.368 . S
C2620 C2619 1.523 . S
H2621 C2596 0.950 . S
H2622 C2598 0.950 . S
H2623 C2599 0.949 . S
H2624 C2601 0.950 . S
H2625 C2603 0.950 . S
C2626 C2627 1.349 . S
C2626 C2628 1.327 . S
C2626 H2651 0.950 . S
C2627 C2626 1.349 . S
C2627 C2643 1.349 . S
C2628 C2626 1.327 . S
C2628 C2647 1.429 . S
C2628 H2652 0.950 . S
C2629 C2646 1.574 . S
C2629 C2648 1.368 . S
C2629 H2653 0.949 . S
H2630 C2634 0.949 . S
C2631 C2632 1.349 . S
C2631 C2633 1.327 . S
C2631 H2654 0.950 . S
C2632 C2631 1.349 . S
C2632 C2644 1.349 1_545 S
C2633 C2631 1.327 . S
C2633 C2649 1.429 . S
C2633 H2655 0.950 . S
C2634 H2630 0.949 . S
C2634 C2642 1.574 . S
C2634 C2650 1.368 . S
H2635 C2643 0.950 . S
H2636 C2641 0.950 . S
H2637 C2642 0.949 . S
H2638 C2644 0.950 . S
H2639 C2645 0.950 1_565 S
H2640 C2646 0.949 . S
C2641 H2636 0.950 . S
C2641 C2643 1.327 . S
C2641 C2647 1.429 . S
C2642 C2634 1.574 . S
C2642 H2637 0.949 . S
C2642 C2648 1.368 . S
C2643 C2627 1.349 . S
C2643 H2635 0.950 . S
C2643 C2641 1.327 . S
C2644 C2632 1.349 1_565 S
C2644 H2638 0.950 . S
C2644 C2645 1.327 1_565 S
C2645 H2639 0.950 1_545 S
C2645 C2644 1.327 1_545 S
C2645 C2649 1.429 . S
C2646 C2629 1.574 . S
C2646 H2640 0.949 . S
C2646 C2650 1.368 . S
C2647 C2628 1.429 . S
C2647 C2641 1.429 . S
C2647 C2648 1.523 . S
C2648 C2629 1.368 . S
C2648 C2642 1.368 . S
C2648 C2647 1.523 . S
C2649 C2633 1.429 . S
C2649 C2645 1.429 . S
C2649 C2650 1.523 . S
C2650 C2634 1.368 . S
C2650 C2646 1.368 . S
C2650 C2649 1.523 . S
H2651 C2626 0.950 . S
H2652 C2628 0.950 . S
H2653 C2629 0.949 . S
H2654 C2631 0.950 . S
H2655 C2633 0.950 . S
C2656 C2657 1.349 1_455 S
C2656 C2658 1.327 . S
C2656 H2681 0.950 . S
C2657 C2656 1.349 1_655 S
C2657 C2673 1.349 . S
C2658 C2656 1.327 . S
C2658 C2677 1.429 1_455 S
C2658 H2682 0.950 . S
C2659 C2676 1.574 . S
C2659 C2678 1.368 . S
C2659 H2683 0.949 . S
H2660 C2664 0.949 . S
C2661 C2662 1.349 1_655 S
C2661 C2663 1.327 . S
C2661 H2684 0.950 . S
C2662 C2661 1.349 1_455 S
C2662 C2674 1.349 . S
C2663 C2661 1.327 . S
C2663 C2679 1.488 . S
C2663 H2685 0.950 . S
C2664 H2660 0.949 . S
C2664 C2672 1.574 . S
C2664 C2680 1.368 1_455 S
H2665 C2673 0.950 . S
H2666 C2671 0.950 . S
H2667 C2672 0.949 . S
H2668 C2674 0.950 . S
H2669 C2675 0.950 . S
H2670 C2676 0.949 . S
C2671 H2666 0.950 . S
C2671 C2673 1.327 . S
C2671 C2677 1.429 . S
C2672 C2664 1.574 . S
C2672 H2667 0.949 . S
C2672 C2678 1.368 1_455 S
C2673 C2657 1.349 . S
C2673 H2665 0.950 . S
C2673 C2671 1.327 . S
C2674 C2662 1.349 . S
C2674 H2668 0.950 . S
C2674 C2675 1.327 . S
C2675 H2669 0.950 . S
C2675 C2674 1.327 . S
C2675 C2679 1.364 1_455 S
C2676 C2659 1.574 . S
C2676 H2670 0.949 . S
C2676 C2680 1.368 . S
C2677 C2658 1.429 1_655 S
C2677 C2671 1.429 . S
C2677 C2678 1.523 . S
C2678 C2659 1.368 . S
C2678 C2672 1.368 1_655 S
C2678 C2677 1.523 . S
C2679 C2663 1.488 . S
C2679 C2675 1.364 1_655 S
C2679 C2680 1.531 . S
C2680 C2664 1.368 1_655 S
C2680 C2676 1.368 . S
C2680 C2679 1.531 . S
H2681 C2656 0.950 . S
H2682 C2658 0.950 . S
H2683 C2659 0.949 . S
H2684 C2661 0.950 . S
H2685 C2663 0.950 . S
C2686 C2687 1.349 . S
C2686 C2688 1.327 . S
C2686 H2711 0.950 . S
C2687 C2686 1.349 . S
C2687 C2703 1.349 . S
C2688 C2686 1.327 . S
C2688 C2707 1.429 1_565 S
C2688 H2712 0.950 . S
C2689 C2706 1.574 . S
C2689 C2708 1.368 . S
C2689 H2713 0.949 . S
H2690 C2694 0.949 . S
C2691 C2692 1.349 . S
C2691 C2693 1.327 . S
C2691 H2714 0.950 . S
C2692 C2691 1.349 . S
C2692 C2704 1.349 . S
C2693 C2691 1.327 . S
C2693 C2709 1.429 . S
C2693 H2715 0.950 . S
C2694 H2690 0.949 . S
C2694 C2702 1.574 . S
C2694 C2710 1.368 . S
H2695 C2703 0.950 . S
H2696 C2701 0.950 . S
H2697 C2702 0.949 . S
H2698 C2704 0.950 . S
H2699 C2705 0.950 . S
H2700 C2706 0.949 . S
C2701 H2696 0.950 . S
C2701 C2703 1.327 1_545 S
C2701 C2707 1.429 . S
C2702 C2694 1.574 . S
C2702 H2697 0.949 . S
C2702 C2708 1.368 . S
C2703 C2687 1.349 . S
C2703 H2695 0.950 . S
C2703 C2701 1.327 1_565 S
C2704 C2692 1.349 . S
C2704 H2698 0.950 . S
C2704 C2705 1.327 . S
C2705 H2699 0.950 . S
C2705 C2704 1.327 . S
C2705 C2709 1.429 . S
C2706 C2689 1.574 . S
C2706 H2700 0.949 . S
C2706 C2710 1.368 . S
C2707 C2688 1.429 1_545 S
C2707 C2701 1.429 . S
C2707 C2708 1.523 . S
C2708 C2689 1.368 . S
C2708 C2702 1.368 . S
C2708 C2707 1.523 . S
C2709 C2693 1.429 . S
C2709 C2705 1.429 . S
C2709 C2710 1.523 . S
C2710 C2694 1.368 . S
C2710 C2706 1.368 . S
C2710 C2709 1.523 . S
H2711 C2686 0.950 . S
H2712 C2688 0.950 . S
H2713 C2689 0.949 . S
H2714 C2691 0.950 . S
H2715 C2693 0.950 . S
C2716 C2717 1.313 1_455 S
C2716 C2718 1.334 . S
C2716 H2741 0.982 . S
C2717 C2716 1.313 1_655 S
C2717 C2733 1.349 . S
C2718 C2716 1.334 . S
C2718 C2737 1.429 1_455 S
C2718 H2742 0.950 . S
C2719 C2736 1.574 . S
C2719 C2738 1.368 . S
C2719 H2743 0.949 . S
H2720 C2724 0.949 . S
C2721 C2722 1.349 1_655 S
C2721 C2723 1.327 . S
C2721 H2744 0.950 . S
C2722 C2721 1.349 1_455 S
C2722 C2734 1.359 . S
C2723 C2721 1.327 . S
C2723 C2739 1.470 1_565 S
C2723 H2745 0.950 . S
C2724 H2720 0.949 . S
C2724 C2732 1.574 . S
C2724 C2740 1.368 1_455 S
H2725 C2733 0.950 . S
H2726 C2731 0.950 . S
H2727 C2732 0.949 . S
H2728 C2734 0.949 1_545 S
H2729 C2735 0.950 . S
H2730 C2736 0.949 . S
C2731 H2726 0.950 . S
C2731 C2733 1.327 . S
C2731 C2737 1.429 . S
C2732 C2724 1.574 . S
C2732 H2727 0.949 . S
C2732 C2738 1.368 1_455 S
C2733 C2717 1.349 . S
C2733 H2725 0.950 . S
C2733 C2731 1.327 . S
C2734 C2722 1.359 . S
C2734 H2728 0.949 1_565 S
C2734 C2735 1.318 1_565 S
C2735 H2729 0.950 . S
C2735 C2734 1.318 1_545 S
C2735 C2739 1.383 1_455 S
C2736 C2719 1.574 . S
C2736 H2730 0.949 . S
C2736 C2740 1.368 . S
C2737 C2718 1.429 1_655 S
C2737 C2731 1.429 . S
C2737 C2738 1.523 . S
C2738 C2719 1.368 . S
C2738 C2732 1.368 1_655 S
C2738 C2737 1.523 . S
C2739 C2723 1.470 1_545 S
C2739 C2735 1.383 1_655 S
C2739 C2740 1.531 . S
C2740 C2724 1.368 1_655 S
C2740 C2736 1.368 . S
C2740 C2739 1.531 . S
H2741 C2716 0.982 . S
H2742 C2718 0.950 . S
H2743 C2719 0.949 . S
H2744 C2721 0.950 . S
H2745 C2723 0.950 . S
C2746 C2747 1.349 . S
C2746 C2748 1.327 . S
C2746 H2771 0.950 . S
C2747 C2746 1.349 . S
C2747 C2763 1.349 . S
C2748 C2746 1.327 . S
C2748 C2767 1.429 . S
C2748 H2772 0.950 . S
C2749 C2766 1.574 . S
C2749 C2768 1.368 . S
C2749 H2773 0.949 . S
H2750 C2754 0.949 . S
C2751 C2752 1.349 . S
C2751 C2753 1.327 . S
C2751 H2774 0.950 . S
C2752 C2751 1.349 . S
C2752 C2764 1.349 . S
C2753 C2751 1.327 . S
C2753 C2769 1.429 . S
C2753 H2775 0.950 . S
C2754 H2750 0.949 . S
C2754 C2762 1.574 . S
C2754 C2770 1.368 . S
H2755 C2763 0.950 . S
H2756 C2761 0.950 . S
H2757 C2762 0.949 . S
H2758 C2764 0.950 . S
H2759 C2765 0.950 . S
H2760 C2766 0.949 . S
C2761 H2756 0.950 . S
C2761 C2763 1.327 . S
C2761 C2767 1.429 . S
C2762 C2754 1.574 . S
C2762 H2757 0.949 . S
C2762 C2768 1.368 . S
C2763 C2747 1.349 . S
C2763 H2755 0.950 . S
C2763 C2761 1.327 . S
C2764 C2752 1.349 . S
C2764 H2758 0.950 . S
C2764 C2765 1.327 . S
C2765 H2759 0.950 . S
C2765 C2764 1.327 . S
C2765 C2769 1.429 . S
C2766 C2749 1.574 . S
C2766 H2760 0.949 . S
C2766 C2770 1.368 . S
C2767 C2748 1.429 . S
C2767 C2761 1.429 . S
C2767 C2768 1.523 . S
C2768 C2749 1.368 . S
C2768 C2762 1.368 . S
C2768 C2767 1.523 . S
C2769 C2753 1.429 . S
C2769 C2765 1.429 . S
C2769 C2770 1.523 . S
C2770 C2754 1.368 . S
C2770 C2766 1.368 . S
C2770 C2769 1.523 . S
H2771 C2746 0.950 . S
H2772 C2748 0.950 . S
H2773 C2749 0.949 . S
H2774 C2751 0.950 . S
H2775 C2753 0.950 . S
C2776 C2777 1.358 . S
C2776 C2778 1.321 1_455 S
C2776 H2801 0.942 1_455 S
C2777 C2776 1.358 . S
C2777 C2793 1.349 . S
C2778 C2776 1.321 1_655 S
C2778 C2797 1.390 1_655 S
C2778 H2802 1.004 . S
C2779 C2796 1.574 . S
C2779 C2798 1.368 . S
C2779 H2803 0.949 . S
H2780 C2784 0.949 . S
C2781 C2782 1.349 1_455 S
C2781 C2783 1.327 . S
C2781 H2804 0.990 . S
C2782 C2781 1.349 1_655 S
C2782 C2794 1.349 . S
C2783 C2781 1.327 . S
C2783 C2799 1.464 . S
C2783 H2805 0.950 . S
C2784 H2780 0.949 . S
C2784 C2792 1.574 . S
C2784 C2800 1.368 1_655 S
H2785 C2793 0.950 . S
H2786 C2791 0.950 . S
H2787 C2792 0.949 . S
H2788 C2794 0.950 . S
H2789 C2795 0.950 . S
H2790 C2796 0.949 . S
C2791 H2786 0.950 . S
C2791 C2793 1.327 . S
C2791 C2797 1.429 . S
C2792 C2784 1.574 . S
C2792 H2787 0.949 . S
C2792 C2798 1.368 1_655 S
C2793 C2777 1.349 . S
C2793 H2785 0.950 . S
C2793 C2791 1.327 . S
C2794 C2782 1.349 . S
C2794 H2788 0.950 . S
C2794 C2795 1.327 . S
C2795 H2789 0.950 . S
C2795 C2794 1.327 . S
C2795 C2799 1.389 1_655 S
C2796 C2779 1.574 . S
C2796 H2790 0.949 . S
C2796 C2800 1.368 . S
C2797 C2778 1.390 1_455 S
C2797 C2791 1.429 . S
C2797 C2798 1.523 . S
C2798 C2779 1.368 . S
C2798 C2792 1.368 1_455 S
C2798 C2797 1.523 . S
C2799 C2783 1.464 . S
C2799 C2795 1.389 1_455 S
C2799 C2800 1.531 . S
C2800 C2784 1.368 1_455 S
C2800 C2796 1.368 . S
C2800 C2799 1.531 . S
H2801 C2776 0.942 1_655 S
H2802 C2778 1.004 . S
H2803 C2779 0.949 . S
H2804 C2781 0.990 . S
H2805 C2783 0.950 . S
C2806 C2807 1.349 . S
C2806 C2808 1.342 . S
C2806 H2831 0.950 . S
C2807 C2806 1.349 . S
C2807 C2823 1.349 . S
C2808 C2806 1.342 . S
C2808 C2827 1.416 1_545 S
C2808 H2832 0.948 1_545 S
C2809 C2826 1.574 . S
C2809 C2828 1.368 . S
C2809 H2833 0.949 . S
H2810 C2814 0.949 . S
C2811 C2812 1.349 . S
C2811 C2813 1.327 . S
C2811 H2834 0.950 . S
C2812 C2811 1.349 . S
C2812 C2824 1.349 . S
C2813 C2811 1.327 . S
C2813 C2829 1.429 . S
C2813 H2835 0.950 . S
C2814 H2810 0.949 . S
C2814 C2822 1.574 . S
C2814 C2830 1.368 . S
H2815 C2823 0.950 . S
H2816 C2821 0.950 . S
H2817 C2822 0.949 . S
H2818 C2824 0.950 . S
H2819 C2825 0.950 . S
H2820 C2826 0.949 . S
C2821 H2816 0.950 . S
C2821 C2823 1.327 1_565 S
C2821 C2827 1.429 . S
C2822 C2814 1.574 . S
C2822 H2817 0.949 . S
C2822 C2828 1.368 . S
C2823 C2807 1.349 . S
C2823 H2815 0.950 . S
C2823 C2821 1.327 1_545 S
C2824 C2812 1.349 . S
C2824 H2818 0.950 . S
C2824 C2825 1.327 . S
C2825 H2819 0.950 . S
C2825 C2824 1.327 . S
C2825 C2829 1.429 . S
C2826 C2809 1.574 . S
C2826 H2820 0.949 . S
C2826 C2830 1.368 . S
C2827 C2808 1.416 1_565 S
C2827 C2821 1.429 . S
C2827 C2828 1.523 . S
C2828 C2809 1.368 . S
C2828 C2822 1.368 . S
C2828 C2827 1.523 . S
C2829 C2813 1.429 . S
C2829 C2825 1.429 . S
C2829 C2830 1.523 . S
C2830 C2814 1.368 . S
C2830 C2826 1.368 . S
C2830 C2829 1.523 . S
H2831 C2806 0.950 . S
H2832 C2808 0.948 1_565 S
H2833 C2809 0.949 . S
H2834 C2811 0.950 . S
H2835 C2813 0.950 . S
C2836 C2837 1.349 . S
C2836 C2838 1.327 . S
C2836 H2861 0.950 . S
C2837 C2836 1.349 . S
C2837 C2853 1.349 . S
C2838 C2836 1.327 . S
C2838 C2857 1.429 . S
C2838 H2862 0.950 . S
C2839 C2856 1.574 . S
C2839 C2858 1.368 . S
C2839 H2863 0.949 . S
H2840 C2844 0.951 . S
C2841 C2842 1.348 1_465 S
C2841 C2843 1.328 . S
C2841 H2864 0.949 . S
C2842 C2841 1.348 1_645 S
C2842 C2854 1.349 . S
C2843 C2841 1.328 . S
C2843 C2859 1.433 . S
C2843 H2865 0.950 . S
C2844 H2840 0.951 . S
C2844 C2852 1.574 . S
C2844 C2860 1.368 . S
H2845 C2853 0.950 . S
H2846 C2851 0.950 . S
H2847 C2852 0.949 . S
H2848 C2854 0.950 . S
H2849 C2855 0.956 . S
H2850 C2856 0.949 . S
C2851 H2846 0.950 . S
C2851 C2853 1.327 . S
C2851 C2857 1.429 . S
C2852 C2844 1.574 . S
C2852 H2847 0.949 . S
C2852 C2858 1.368 . S
C2853 C2837 1.349 . S
C2853 H2845 0.950 . S
C2853 C2851 1.327 . S
C2854 C2842 1.349 . S
C2854 H2848 0.950 . S
C2854 C2855 1.336 . S
C2855 H2849 0.956 . S
C2855 C2854 1.336 . S
C2855 C2859 1.418 1_645 S
C2856 C2839 1.574 . S
C2856 H2850 0.949 . S
C2856 C2860 1.368 . S
C2857 C2838 1.429 . S
C2857 C2851 1.429 . S
C2857 C2858 1.523 . S
C2858 C2839 1.368 . S
C2858 C2852 1.368 . S
C2858 C2857 1.523 . S
C2859 C2843 1.433 . S
C2859 C2855 1.418 1_465 S
C2859 C2860 1.531 . S
C2860 C2844 1.368 . S
C2860 C2856 1.368 . S
C2860 C2859 1.531 . S
H2861 C2836 0.950 . S
H2862 C2838 0.950 . S
H2863 C2839 0.949 . S
H2864 C2841 0.949 . S
H2865 C2843 0.950 . S
C2866 C2867 1.349 . S
C2866 C2868 1.327 . S
C2866 H2891 0.950 . S
C2867 C2866 1.349 . S
C2867 C2883 1.349 . S
C2868 C2866 1.327 . S
C2868 C2887 1.429 . S
C2868 H2892 0.950 . S
C2869 C2886 1.574 . S
C2869 C2888 1.368 . S
C2869 H2893 0.949 . S
H2870 C2874 0.949 . S
C2871 C2872 1.349 . S
C2871 C2873 1.327 . S
C2871 H2894 0.950 . S
C2872 C2871 1.349 . S
C2872 C2884 1.349 . S
C2873 C2871 1.327 . S
C2873 C2889 1.429 . S
C2873 H2895 0.950 . S
C2874 H2870 0.949 . S
C2874 C2882 1.574 . S
C2874 C2890 1.368 . S
H2875 C2883 0.950 . S
H2876 C2881 0.950 . S
H2877 C2882 0.949 . S
H2878 C2884 0.950 . S
H2879 C2885 0.950 . S
H2880 C2886 0.949 . S
C2881 H2876 0.950 . S
C2881 C2883 1.327 . S
C2881 C2887 1.429 . S
C2882 C2874 1.574 . S
C2882 H2877 0.949 . S
C2882 C2888 1.368 . S
C2883 C2867 1.349 . S
C2883 H2875 0.950 . S
C2883 C2881 1.327 . S
C2884 C2872 1.349 . S
C2884 H2878 0.950 . S
C2884 C2885 1.327 . S
C2885 H2879 0.950 . S
C2885 C2884 1.327 . S
C2885 C2889 1.429 . S
C2886 C2869 1.574 . S
C2886 H2880 0.949 . S
C2886 C2890 1.368 . S
C2887 C2868 1.429 . S
C2887 C2881 1.429 . S
C2887 C2888 1.523 . S
C2888 C2869 1.368 . S
C2888 C2882 1.368 . S
C2888 C2887 1.523 . S
C2889 C2873 1.429 . S
C2889 C2885 1.429 . S
C2889 C2890 1.523 . S
C2890 C2874 1.368 . S
C2890 C2886 1.368 . S
C2890 C2889 1.523 . S
H2891 C2866 0.950 . S
H2892 C2868 0.950 . S
H2893 C2869 0.949 . S
H2894 C2871 0.950 . S
H2895 C2873 0.950 . S
C2896 C2897 1.349 1_655 S
C2896 C2898 1.327 . S
C2896 H2921 0.950 . S
C2897 C2896 1.349 1_455 S
C2897 C2913 1.349 . S
C2898 C2896 1.327 . S
C2898 C2917 1.463 . S
C2898 H2922 0.950 . S
C2899 C2916 1.574 . S
C2899 C2918 1.368 1_455 S
C2899 H2923 0.949 . S
H2900 C2904 0.949 . S
C2901 C2902 1.376 . S
C2901 C2903 1.321 1_655 S
C2901 H2924 0.929 1_655 S
C2902 C2901 1.376 . S
C2902 C2914 1.349 . S
C2903 C2901 1.321 1_455 S
C2903 C2919 1.405 1_455 S
C2903 H2925 0.981 . S
C2904 H2900 0.949 . S
C2904 C2912 1.574 . S
C2904 C2920 1.368 . S
H2905 C2913 0.950 . S
H2906 C2911 0.950 . S
H2907 C2912 0.949 . S
H2908 C2914 0.950 . S
H2909 C2915 0.950 . S
H2910 C2916 0.949 . S
C2911 H2906 0.950 . S
C2911 C2913 1.327 . S
C2911 C2917 1.390 1_455 S
C2912 C2904 1.574 . S
C2912 H2907 0.949 . S
C2912 C2918 1.368 . S
C2913 C2897 1.349 . S
C2913 H2905 0.950 . S
C2913 C2911 1.327 . S
C2914 C2902 1.349 . S
C2914 H2908 0.950 . S
C2914 C2915 1.327 . S
C2915 H2909 0.950 . S
C2915 C2914 1.327 . S
C2915 C2919 1.429 . S
C2916 C2899 1.574 . S
C2916 H2910 0.949 . S
C2916 C2920 1.368 1_455 S
C2917 C2898 1.463 . S
C2917 C2911 1.390 1_655 S
C2917 C2918 1.531 . S
C2918 C2899 1.368 1_655 S
C2918 C2912 1.368 . S
C2918 C2917 1.531 . S
C2919 C2903 1.405 1_655 S
C2919 C2915 1.429 . S
C2919 C2920 1.523 . S
C2920 C2904 1.368 . S
C2920 C2916 1.368 1_655 S
C2920 C2919 1.523 . S
H2921 C2896 0.950 . S
H2922 C2898 0.950 . S
H2923 C2899 0.949 . S
H2924 C2901 0.929 1_455 S
H2925 C2903 0.981 . S
C2926 C2927 1.349 . S
C2926 C2928 1.327 . S
C2926 H2951 0.950 . S
C2927 C2926 1.349 . S
C2927 C2943 1.349 . S
C2928 C2926 1.327 . S
C2928 C2947 1.429 . S
C2928 H2952 0.950 . S
C2929 C2946 1.574 . S
C2929 C2948 1.368 . S
C2929 H2953 0.949 . S
H2930 C2934 0.949 . S
C2931 C2932 1.349 . S
C2931 C2933 1.327 . S
C2931 H2954 0.950 . S
C2932 C2931 1.349 . S
C2932 C2944 1.349 . S
C2933 C2931 1.327 . S
C2933 C2949 1.429 . S
C2933 H2955 0.950 . S
C2934 H2930 0.949 . S
C2934 C2942 1.574 . S
C2934 C2950 1.368 . S
H2935 C2943 0.950 . S
H2936 C2941 0.950 . S
H2937 C2942 0.949 . S
H2938 C2944 0.950 . S
H2939 C2945 0.950 . S
H2940 C2946 0.949 . S
C2941 H2936 0.950 . S
C2941 C2943 1.327 . S
C2941 C2947 1.429 . S
C2942 C2934 1.574 . S
C2942 H2937 0.949 . S
C2942 C2948 1.368 . S
C2943 C2927 1.349 . S
C2943 H2935 0.950 . S
C2943 C2941 1.327 . S
C2944 C2932 1.349 . S
C2944 H2938 0.950 . S
C2944 C2945 1.327 . S
C2945 H2939 0.950 . S
C2945 C2944 1.327 . S
C2945 C2949 1.429 . S
C2946 C2929 1.574 . S
C2946 H2940 0.949 . S
C2946 C2950 1.368 . S
C2947 C2928 1.429 . S
C2947 C2941 1.429 . S
C2947 C2948 1.523 . S
C2948 C2929 1.368 . S
C2948 C2942 1.368 . S
C2948 C2947 1.523 . S
C2949 C2933 1.429 . S
C2949 C2945 1.429 . S
C2949 C2950 1.523 . S
C2950 C2934 1.368 . S
C2950 C2946 1.368 . S
C2950 C2949 1.523 . S
H2951 C2926 0.950 . S
H2952 C2928 0.950 . S
H2953 C2929 0.949 . S
H2954 C2931 0.950 . S
H2955 C2933 0.950 . S
C2956 C2957 1.349 . S
C2956 C2958 1.327 . S
C2956 H2981 0.950 . S
C2957 C2956 1.349 . S
C2957 C2973 1.349 1_455 S
C2958 C2956 1.327 . S
C2958 C2977 1.415 1_455 S
C2958 H2982 0.950 . S
C2959 C2976 1.574 . S
C2959 C2978 1.368 . S
C2959 H2983 0.949 . S
H2960 C2964 0.951 . S
C2961 C2962 1.349 . S
C2961 C2963 1.327 . S
C2961 H2984 0.950 . S
C2962 C2961 1.349 . S
C2962 C2974 1.349 . S
C2963 C2961 1.327 . S
C2963 C2979 1.429 . S
C2963 H2985 0.950 . S
C2964 H2960 0.951 . S
C2964 C2972 1.573 . S
C2964 C2980 1.368 . S
H2965 C2973 0.950 . S
H2966 C2971 0.950 . S
H2967 C2972 0.950 1_455 S
H2968 C2974 0.950 . S
H2969 C2975 0.950 . S
H2970 C2976 0.949 . S
C2971 H2966 0.950 . S
C2971 C2973 1.327 . S
C2971 C2977 1.440 . S
C2972 C2964 1.573 . S
C2972 H2967 0.950 1_655 S
C2972 C2978 1.368 . S
C2973 C2957 1.349 1_655 S
C2973 H2965 0.950 . S
C2973 C2971 1.327 . S
C2974 C2962 1.349 . S
C2974 H2968 0.950 . S
C2974 C2975 1.327 . S
C2975 H2969 0.950 . S
C2975 C2974 1.327 . S
C2975 C2979 1.429 . S
C2976 C2959 1.574 . S
C2976 H2970 0.949 . S
C2976 C2980 1.368 . S
C2977 C2958 1.415 1_655 S
C2977 C2971 1.440 . S
C2977 C2978 1.531 . S
C2978 C2959 1.368 . S
C2978 C2972 1.368 . S
C2978 C2977 1.531 . S
C2979 C2963 1.429 . S
C2979 C2975 1.429 . S
C2979 C2980 1.523 . S
C2980 C2964 1.368 . S
C2980 C2976 1.368 . S
C2980 C2979 1.523 . S
H2981 C2956 0.950 . S
H2982 C2958 0.950 . S
H2983 C2959 0.949 . S
H2984 C2961 0.950 . S
H2985 C2963 0.950 . S
C2986 C2987 1.349 . S
C2986 C2988 1.327 . S
C2986 H3011 0.950 . S
C2987 C2986 1.349 . S
C2987 C3003 1.349 . S
C2988 C2986 1.327 . S
C2988 C3007 1.429 . S
C2988 H3012 0.950 . S
C2989 C3006 1.574 . S
C2989 C3008 1.368 . S
C2989 H3013 0.949 . S
H2990 C2994 0.949 . S
C2991 C2992 1.349 . S
C2991 C2993 1.327 . S
C2991 H3014 0.950 . S
C2992 C2991 1.349 . S
C2992 C3004 1.349 . S
C2993 C2991 1.327 . S
C2993 C3009 1.429 . S
C2993 H3015 0.950 . S
C2994 H2990 0.949 . S
C2994 C3002 1.574 . S
C2994 C3010 1.368 . S
H2995 C3003 0.950 . S
H2996 C3001 0.950 . S
H2997 C3002 0.949 . S
H2998 C3004 0.950 . S
H2999 C3005 0.950 . S
H3000 C3006 0.949 . S
C3001 H2996 0.950 . S
C3001 C3003 1.327 . S
C3001 C3007 1.429 . S
C3002 C2994 1.574 . S
C3002 H2997 0.949 . S
C3002 C3008 1.368 . S
C3003 C2987 1.349 . S
C3003 H2995 0.950 . S
C3003 C3001 1.327 . S
C3004 C2992 1.349 . S
C3004 H2998 0.950 . S
C3004 C3005 1.327 . S
C3005 H2999 0.950 . S
C3005 C3004 1.327 . S
C3005 C3009 1.429 . S
C3006 C2989 1.574 . S
C3006 H3000 0.949 . S
C3006 C3010 1.368 . S
C3007 C2988 1.429 . S
C3007 C3001 1.429 . S
C3007 C3008 1.523 . S
C3008 C2989 1.368 . S
C3008 C3002 1.368 . S
C3008 C3007 1.523 . S
C3009 C2993 1.429 . S
C3009 C3005 1.429 . S
C3009 C3010 1.523 . S
C3010 C2994 1.368 . S
C3010 C3006 1.368 . S
C3010 C3009 1.523 . S
H3011 C2986 0.950 . S
H3012 C2988 0.950 . S
H3013 C2989 0.949 . S
H3014 C2991 0.950 . S
H3015 C2993 0.950 . S
C3016 C3017 1.349 . S
C3016 C3018 1.327 . S
C3016 H3041 0.950 . S
C3017 C3016 1.349 . S
C3017 C3033 1.349 1_655 S
C3018 C3016 1.327 . S
C3018 C3037 1.374 1_655 S
C3018 H3042 0.950 . S
C3019 C3036 1.574 . S
C3019 C3038 1.368 . S
C3019 H3043 0.949 . S
H3020 C3024 0.949 . S
C3021 C3022 1.349 . S
C3021 C3023 1.327 . S
C3021 H3044 0.950 . S
C3022 C3021 1.349 . S
C3022 C3034 1.349 1_455 S
C3023 C3021 1.327 . S
C3023 C3039 1.429 . S
C3023 H3045 0.950 . S
C3024 H3020 0.949 . S
C3024 C3032 1.574 . S
C3024 C3040 1.368 1_655 S
H3025 C3033 0.950 . S
H3026 C3031 0.950 . S
H3027 C3032 0.949 . S
H3028 C3034 0.950 . S
H3029 C3035 0.950 . S
H3030 C3036 0.949 . S
C3031 H3026 0.950 . S
C3031 C3033 1.327 . S
C3031 C3037 1.478 . S
C3032 C3024 1.574 . S
C3032 H3027 0.949 . S
C3032 C3038 1.368 1_655 S
C3033 C3017 1.349 1_455 S
C3033 H3025 0.950 . S
C3033 C3031 1.327 . S
C3034 C3022 1.349 1_655 S
C3034 H3028 0.950 . S
C3034 C3035 1.327 . S
C3035 H3029 0.950 . S
C3035 C3034 1.327 . S
C3035 C3039 1.429 1_655 S
C3036 C3019 1.574 . S
C3036 H3030 0.949 . S
C3036 C3040 1.368 . S
C3037 C3018 1.374 1_455 S
C3037 C3031 1.478 . S
C3037 C3038 1.531 . S
C3038 C3019 1.368 . S
C3038 C3032 1.368 1_455 S
C3038 C3037 1.531 . S
C3039 C3023 1.429 . S
C3039 C3035 1.429 1_455 S
C3039 C3040 1.523 . S
C3040 C3024 1.368 1_455 S
C3040 C3036 1.368 . S
C3040 C3039 1.523 . S
H3041 C3016 0.950 . S
H3042 C3018 0.950 . S
H3043 C3019 0.949 . S
H3044 C3021 0.950 . S
H3045 C3023 0.950 . S
C3046 C3047 1.349 . S
C3046 C3048 1.327 . S
C3046 H3071 0.950 . S
C3047 C3046 1.349 . S
C3047 C3063 1.349 . S
C3048 C3046 1.327 . S
C3048 C3067 1.429 . S
C3048 H3072 0.950 . S
C3049 C3066 1.574 . S
C3049 C3068 1.368 . S
C3049 H3073 0.949 . S
H3050 C3054 0.949 . S
C3051 C3052 1.349 . S
C3051 C3053 1.327 . S
C3051 H3074 0.950 . S
C3052 C3051 1.349 . S
C3052 C3064 1.349 . S
C3053 C3051 1.327 . S
C3053 C3069 1.429 . S
C3053 H3075 0.950 . S
C3054 H3050 0.949 . S
C3054 C3062 1.574 . S
C3054 C3070 1.368 . S
H3055 C3063 0.950 . S
H3056 C3061 0.950 . S
H3057 C3062 0.949 . S
H3058 C3064 0.950 . S
H3059 C3065 0.950 . S
H3060 C3066 0.949 . S
C3061 H3056 0.950 . S
C3061 C3063 1.327 . S
C3061 C3067 1.429 . S
C3062 C3054 1.574 . S
C3062 H3057 0.949 . S
C3062 C3068 1.368 . S
C3063 C3047 1.349 . S
C3063 H3055 0.950 . S
C3063 C3061 1.327 . S
C3064 C3052 1.349 . S
C3064 H3058 0.950 . S
C3064 C3065 1.327 . S
C3065 H3059 0.950 . S
C3065 C3064 1.327 . S
C3065 C3069 1.429 . S
C3066 C3049 1.574 . S
C3066 H3060 0.949 . S
C3066 C3070 1.368 . S
C3067 C3048 1.429 . S
C3067 C3061 1.429 . S
C3067 C3068 1.523 . S
C3068 C3049 1.368 . S
C3068 C3062 1.368 . S
C3068 C3067 1.523 . S
C3069 C3053 1.429 . S
C3069 C3065 1.429 . S
C3069 C3070 1.523 . S
C3070 C3054 1.368 . S
C3070 C3066 1.368 . S
C3070 C3069 1.523 . S
H3071 C3046 0.950 . S
H3072 C3048 0.950 . S
H3073 C3049 0.949 . S
H3074 C3051 0.950 . S
H3075 C3053 0.950 . S
C3076 C3077 1.349 1_455 S
C3076 C3078 1.327 . S
C3076 H3101 0.950 . S
C3077 C3076 1.349 1_655 S
C3077 C3093 1.349 . S
C3078 C3076 1.327 . S
C3078 C3097 1.461 . S
C3078 H3102 0.950 . S
C3079 C3096 1.574 . S
C3079 C3098 1.368 1_655 S
C3079 H3103 0.949 . S
H3080 C3084 0.949 . S
C3081 C3082 1.396 . S
C3081 C3083 1.321 1_455 S
C3081 H3104 0.916 1_455 S
C3082 C3081 1.396 . S
C3082 C3094 1.349 . S
C3083 C3081 1.321 1_655 S
C3083 C3099 1.422 1_655 S
C3083 H3105 0.958 . S
C3084 H3080 0.949 . S
C3084 C3092 1.574 . S
C3084 C3100 1.368 . S
H3085 C3093 0.950 . S
H3086 C3091 0.950 . S
H3087 C3092 0.949 . S
H3088 C3094 0.950 . S
H3089 C3095 0.950 . S
H3090 C3096 0.949 . S
C3091 H3086 0.950 . S
C3091 C3093 1.327 . S
C3091 C3097 1.393 1_655 S
C3092 C3084 1.574 . S
C3092 H3087 0.949 . S
C3092 C3098 1.368 . S
C3093 C3077 1.349 . S
C3093 H3085 0.950 . S
C3093 C3091 1.327 . S
C3094 C3082 1.349 . S
C3094 H3088 0.950 . S
C3094 C3095 1.327 . S
C3095 H3089 0.950 . S
C3095 C3094 1.327 . S
C3095 C3099 1.429 . S
C3096 C3079 1.574 . S
C3096 H3090 0.949 . S
C3096 C3100 1.368 1_655 S
C3097 C3078 1.461 . S
C3097 C3091 1.393 1_455 S
C3097 C3098 1.531 . S
C3098 C3079 1.368 1_455 S
C3098 C3092 1.368 . S
C3098 C3097 1.531 . S
C3099 C3083 1.422 1_455 S
C3099 C3095 1.429 . S
C3099 C3100 1.523 . S
C3100 C3084 1.368 . S
C3100 C3096 1.368 1_455 S
C3100 C3099 1.523 . S
H3101 C3076 0.950 . S
H3102 C3078 0.950 . S
H3103 C3079 0.949 . S
H3104 C3081 0.916 1_655 S
H3105 C3083 0.958 . S
C3106 C3107 1.349 . S
C3106 C3108 1.327 . S
C3106 H3131 0.950 . S
C3107 C3106 1.349 . S
C3107 C3123 1.349 . S
C3108 C3106 1.327 . S
C3108 C3127 1.429 . S
C3108 H3132 0.950 . S
C3109 C3126 1.574 . S
C3109 C3128 1.368 . S
C3109 H3133 0.949 . S
H3110 C3114 0.949 . S
C3111 C3112 1.349 . S
C3111 C3113 1.327 . S
C3111 H3134 0.950 . S
C3112 C3111 1.349 . S
C3112 C3124 1.349 . S
C3113 C3111 1.327 . S
C3113 C3129 1.429 . S
C3113 H3135 0.950 . S
C3114 H3110 0.949 . S
C3114 C3122 1.574 . S
C3114 C3130 1.368 . S
H3115 C3123 0.950 . S
H3116 C3121 0.950 . S
H3117 C3122 0.949 . S
H3118 C3124 0.950 . S
H3119 C3125 0.950 . S
H3120 C3126 0.949 . S
C3121 H3116 0.950 . S
C3121 C3123 1.327 . S
C3121 C3127 1.429 . S
C3122 C3114 1.574 . S
C3122 H3117 0.949 . S
C3122 C3128 1.368 . S
C3123 C3107 1.349 . S
C3123 H3115 0.950 . S
C3123 C3121 1.327 . S
C3124 C3112 1.349 . S
C3124 H3118 0.950 . S
C3124 C3125 1.327 . S
C3125 H3119 0.950 . S
C3125 C3124 1.327 . S
C3125 C3129 1.429 . S
C3126 C3109 1.574 . S
C3126 H3120 0.949 . S
C3126 C3130 1.368 . S
C3127 C3108 1.429 . S
C3127 C3121 1.429 . S
C3127 C3128 1.523 . S
C3128 C3109 1.368 . S
C3128 C3122 1.368 . S
C3128 C3127 1.523 . S
C3129 C3113 1.429 . S
C3129 C3125 1.429 . S
C3129 C3130 1.523 . S
C3130 C3114 1.368 . S
C3130 C3126 1.368 . S
C3130 C3129 1.523 . S
H3131 C3106 0.950 . S
H3132 C3108 0.950 . S
H3133 C3109 0.949 . S
H3134 C3111 0.950 . S
H3135 C3113 0.950 . S
C3136 C3137 1.349 . S
C3136 C3138 1.327 . S
C3136 H3161 0.950 . S
C3137 C3136 1.349 . S
C3137 C3153 1.349 . S
C3138 C3136 1.327 . S
C3138 C3157 1.429 . S
C3138 H3162 0.950 . S
C3139 C3156 1.574 . S
C3139 C3158 1.368 . S
C3139 H3163 0.949 . S
H3140 C3144 0.949 . S
C3141 C3142 1.349 . S
C3141 C3143 1.327 . S
C3141 H3164 0.950 . S
C3142 C3141 1.349 . S
C3142 C3154 1.349 . S
C3143 C3141 1.327 . S
C3143 C3159 1.429 . S
C3143 H3165 0.950 . S
C3144 H3140 0.949 . S
C3144 C3152 1.574 . S
C3144 C3160 1.368 . S
H3145 C3153 0.950 . S
H3146 C3151 0.950 . S
H3147 C3152 0.949 . S
H3148 C3154 0.950 . S
H3149 C3155 0.950 . S
H3150 C3156 0.949 . S
C3151 H3146 0.950 . S
C3151 C3153 1.327 . S
C3151 C3157 1.429 . S
C3152 C3144 1.574 . S
C3152 H3147 0.949 . S
C3152 C3158 1.368 . S
C3153 C3137 1.349 . S
C3153 H3145 0.950 . S
C3153 C3151 1.327 . S
C3154 C3142 1.349 . S
C3154 H3148 0.950 . S
C3154 C3155 1.327 . S
C3155 H3149 0.950 . S
C3155 C3154 1.327 . S
C3155 C3159 1.429 . S
C3156 C3139 1.574 . S
C3156 H3150 0.949 . S
C3156 C3160 1.368 . S
C3157 C3138 1.429 . S
C3157 C3151 1.429 . S
C3157 C3158 1.523 . S
C3158 C3139 1.368 . S
C3158 C3152 1.368 . S
C3158 C3157 1.523 . S
C3159 C3143 1.429 . S
C3159 C3155 1.429 . S
C3159 C3160 1.523 . S
C3160 C3144 1.368 . S
C3160 C3156 1.368 . S
C3160 C3159 1.523 . S
H3161 C3136 0.950 . S
H3162 C3138 0.950 . S
H3163 C3139 0.949 . S
H3164 C3141 0.950 . S
H3165 C3143 0.950 . S
C3166 C3167 1.349 . S
C3166 C3168 1.327 1_565 S
C3166 H3191 0.950 . S
C3167 C3166 1.349 . S
C3167 C3183 1.349 . S
C3168 C3166 1.327 1_545 S
C3168 C3187 1.429 . S
C3168 H3192 0.950 . S
C3169 C3186 1.574 . S
C3169 C3188 1.368 . S
C3169 H3193 0.949 . S
H3170 C3174 0.949 . S
C3171 C3172 1.349 . S
C3171 C3173 1.327 . S
C3171 H3194 0.950 . S
C3172 C3171 1.349 . S
C3172 C3184 1.349 . S
C3173 C3171 1.327 . S
C3173 C3189 1.429 . S
C3173 H3195 0.950 . S
C3174 H3170 0.949 . S
C3174 C3182 1.574 . S
C3174 C3190 1.368 . S
H3175 C3183 0.950 . S
H3176 C3181 0.950 . S
H3177 C3182 0.949 . S
H3178 C3184 0.950 . S
H3179 C3185 0.950 . S
H3180 C3186 0.949 . S
C3181 H3176 0.950 . S
C3181 C3183 1.327 . S
C3181 C3187 1.429 1_565 S
C3182 C3174 1.574 . S
C3182 H3177 0.949 . S
C3182 C3188 1.368 . S
C3183 C3167 1.349 . S
C3183 H3175 0.950 . S
C3183 C3181 1.327 . S
C3184 C3172 1.349 . S
C3184 H3178 0.950 . S
C3184 C3185 1.327 . S
C3185 H3179 0.950 . S
C3185 C3184 1.327 . S
C3185 C3189 1.429 . S
C3186 C3169 1.574 . S
C3186 H3180 0.949 . S
C3186 C3190 1.368 . S
C3187 C3168 1.429 . S
C3187 C3181 1.429 1_545 S
C3187 C3188 1.523 . S
C3188 C3169 1.368 . S
C3188 C3182 1.368 . S
C3188 C3187 1.523 . S
C3189 C3173 1.429 . S
C3189 C3185 1.429 . S
C3189 C3190 1.523 . S
C3190 C3174 1.368 . S
C3190 C3186 1.368 . S
C3190 C3189 1.523 . S
H3191 C3166 0.950 . S
H3192 C3168 0.950 . S
H3193 C3169 0.949 . S
H3194 C3171 0.950 . S
H3195 C3173 0.950 . S
C3196 C3197 1.349 . S
C3196 C3198 1.327 . S
C3196 H3221 0.950 . S
C3197 C3196 1.349 . S
C3197 C3213 1.349 . S
C3198 C3196 1.327 . S
C3198 C3217 1.429 . S
C3198 H3222 0.950 . S
C3199 C3216 1.574 . S
C3199 C3218 1.368 . S
C3199 H3223 0.949 . S
H3200 C3204 0.949 . S
C3201 C3202 1.349 . S
C3201 C3203 1.327 1_565 S
C3201 H3224 0.950 . S
C3202 C3201 1.349 . S
C3202 C3214 1.349 . S
C3203 C3201 1.327 1_545 S
C3203 C3219 1.429 . S
C3203 H3225 0.950 . S
C3204 H3200 0.949 . S
C3204 C3212 1.574 . S
C3204 C3220 1.368 . S
H3205 C3213 0.950 . S
H3206 C3211 0.950 . S
H3207 C3212 0.949 . S
H3208 C3214 0.950 . S
H3209 C3215 0.950 . S
H3210 C3216 0.949 . S
C3211 H3206 0.950 . S
C3211 C3213 1.327 . S
C3211 C3217 1.429 . S
C3212 C3204 1.574 . S
C3212 H3207 0.949 . S
C3212 C3218 1.368 . S
C3213 C3197 1.349 . S
C3213 H3205 0.950 . S
C3213 C3211 1.327 . S
C3214 C3202 1.349 . S
C3214 H3208 0.950 . S
C3214 C3215 1.327 1_565 S
C3215 H3209 0.950 . S
C3215 C3214 1.327 1_545 S
C3215 C3219 1.429 . S
C3216 C3199 1.574 . S
C3216 H3210 0.949 . S
C3216 C3220 1.368 . S
C3217 C3198 1.429 . S
C3217 C3211 1.429 . S
C3217 C3218 1.523 . S
C3218 C3199 1.368 . S
C3218 C3212 1.368 . S
C3218 C3217 1.523 . S
C3219 C3203 1.429 . S
C3219 C3215 1.429 . S
C3219 C3220 1.523 . S
C3220 C3204 1.368 . S
C3220 C3216 1.368 . S
C3220 C3219 1.523 . S
H3221 C3196 0.950 . S
H3222 C3198 0.950 . S
H3223 C3199 0.949 . S
H3224 C3201 0.950 . S
H3225 C3203 0.950 . S
C3226 C3227 1.349 . S
C3226 C3228 1.327 . S
C3226 H3251 0.950 . S
C3227 C3226 1.349 . S
C3227 C3243 1.349 . S
C3228 C3226 1.327 . S
C3228 C3247 1.429 . S
C3228 H3252 0.950 . S
C3229 C3246 1.574 . S
C3229 C3248 1.368 . S
C3229 H3253 0.949 . S
H3230 C3234 0.949 . S
C3231 C3232 1.349 . S
C3231 C3233 1.327 . S
C3231 H3254 0.950 . S
C3232 C3231 1.349 . S
C3232 C3244 1.349 . S
C3233 C3231 1.327 . S
C3233 C3249 1.429 . S
C3233 H3255 0.950 . S
C3234 H3230 0.949 . S
C3234 C3242 1.574 . S
C3234 C3250 1.368 . S
H3235 C3243 0.950 . S
H3236 C3241 0.950 . S
H3237 C3242 0.949 . S
H3238 C3244 0.950 . S
H3239 C3245 0.950 . S
H3240 C3246 0.949 . S
C3241 H3236 0.950 . S
C3241 C3243 1.327 . S
C3241 C3247 1.429 . S
C3242 C3234 1.574 . S
C3242 H3237 0.949 . S
C3242 C3248 1.368 . S
C3243 C3227 1.349 . S
C3243 H3235 0.950 . S
C3243 C3241 1.327 . S
C3244 C3232 1.349 . S
C3244 H3238 0.950 . S
C3244 C3245 1.327 . S
C3245 H3239 0.950 . S
C3245 C3244 1.327 . S
C3245 C3249 1.429 . S
C3246 C3229 1.574 . S
C3246 H3240 0.949 . S
C3246 C3250 1.368 . S
C3247 C3228 1.429 . S
C3247 C3241 1.429 . S
C3247 C3248 1.523 . S
C3248 C3229 1.368 . S
C3248 C3242 1.368 . S
C3248 C3247 1.523 . S
C3249 C3233 1.429 . S
C3249 C3245 1.429 . S
C3249 C3250 1.523 . S
C3250 C3234 1.368 . S
C3250 C3246 1.368 . S
C3250 C3249 1.523 . S
H3251 C3226 0.950 . S
H3252 C3228 0.950 . S
H3253 C3229 0.949 . S
H3254 C3231 0.950 . S
H3255 C3233 0.950 . S
C3256 C3257 1.349 . S
C3256 C3258 1.327 . S
C3256 H3281 0.950 . S
C3257 C3256 1.349 . S
C3257 C3273 1.349 . S
C3258 C3256 1.327 . S
C3258 C3277 1.429 . S
C3258 H3282 0.950 . S
C3259 C3276 1.574 . S
C3259 C3278 1.368 . S
C3259 H3283 0.949 . S
H3260 C3264 0.949 . S
C3261 C3262 1.349 . S
C3261 C3263 1.327 . S
C3261 H3284 0.950 . S
C3262 C3261 1.349 . S
C3262 C3274 1.349 . S
C3263 C3261 1.327 . S
C3263 C3279 1.429 . S
C3263 H3285 0.950 . S
C3264 H3260 0.949 . S
C3264 C3272 1.574 . S
C3264 C3280 1.368 . S
H3265 C3273 0.950 . S
H3266 C3271 0.950 . S
H3267 C3272 0.949 . S
H3268 C3274 0.950 . S
H3269 C3275 0.950 . S
H3270 C3276 0.949 . S
C3271 H3266 0.950 . S
C3271 C3273 1.327 . S
C3271 C3277 1.429 . S
C3272 C3264 1.574 . S
C3272 H3267 0.949 . S
C3272 C3278 1.368 . S
C3273 C3257 1.349 . S
C3273 H3265 0.950 . S
C3273 C3271 1.327 . S
C3274 C3262 1.349 . S
C3274 H3268 0.950 . S
C3274 C3275 1.327 . S
C3275 H3269 0.950 . S
C3275 C3274 1.327 . S
C3275 C3279 1.429 . S
C3276 C3259 1.574 . S
C3276 H3270 0.949 . S
C3276 C3280 1.368 . S
C3277 C3258 1.429 . S
C3277 C3271 1.429 . S
C3277 C3278 1.523 . S
C3278 C3259 1.368 . S
C3278 C3272 1.368 . S
C3278 C3277 1.523 . S
C3279 C3263 1.429 . S
C3279 C3275 1.429 . S
C3279 C3280 1.523 . S
C3280 C3264 1.368 . S
C3280 C3276 1.368 . S
C3280 C3279 1.523 . S
H3281 C3256 0.950 . S
H3282 C3258 0.950 . S
H3283 C3259 0.949 . S
H3284 C3261 0.950 . S
H3285 C3263 0.950 . S
C3286 C3287 1.349 . S
C3286 C3288 1.327 . S
C3286 H3311 0.950 . S
C3287 C3286 1.349 . S
C3287 C3303 1.349 . S
C3288 C3286 1.327 . S
C3288 C3307 1.429 1_545 S
C3288 H3312 0.950 . S
C3289 C3306 1.574 . S
C3289 C3308 1.368 . S
C3289 H3313 0.949 . S
H3290 C3294 0.949 . S
C3291 C3292 1.349 . S
C3291 C3293 1.327 . S
C3291 H3314 0.950 . S
C3292 C3291 1.349 . S
C3292 C3304 1.349 . S
C3293 C3291 1.327 . S
C3293 C3309 1.429 . S
C3293 H3315 0.950 . S
C3294 H3290 0.949 . S
C3294 C3302 1.574 . S
C3294 C3310 1.368 . S
H3295 C3303 0.950 . S
H3296 C3301 0.950 . S
H3297 C3302 0.949 . S
H3298 C3304 0.950 . S
H3299 C3305 0.950 . S
H3300 C3306 0.949 . S
C3301 H3296 0.950 . S
C3301 C3303 1.327 1_565 S
C3301 C3307 1.429 . S
C3302 C3294 1.574 . S
C3302 H3297 0.949 . S
C3302 C3308 1.368 . S
C3303 C3287 1.349 . S
C3303 H3295 0.950 . S
C3303 C3301 1.327 1_545 S
C3304 C3292 1.349 . S
C3304 H3298 0.950 . S
C3304 C3305 1.327 . S
C3305 H3299 0.950 . S
C3305 C3304 1.327 . S
C3305 C3309 1.429 . S
C3306 C3289 1.574 . S
C3306 H3300 0.949 . S
C3306 C3310 1.368 . S
C3307 C3288 1.429 1_565 S
C3307 C3301 1.429 . S
C3307 C3308 1.523 . S
C3308 C3289 1.368 . S
C3308 C3302 1.368 . S
C3308 C3307 1.523 . S
C3309 C3293 1.429 . S
C3309 C3305 1.429 . S
C3309 C3310 1.523 . S
C3310 C3294 1.368 . S
C3310 C3306 1.368 . S
C3310 C3309 1.523 . S
H3311 C3286 0.950 . S
H3312 C3288 0.950 . S
H3313 C3289 0.949 . S
H3314 C3291 0.950 . S
H3315 C3293 0.950 . S
C3316 C3317 1.349 . S
C3316 C3318 1.327 . S
C3316 H3341 0.950 . S
C3317 C3316 1.349 . S
C3317 C3333 1.349 . S
C3318 C3316 1.327 . S
C3318 C3337 1.429 . S
C3318 H3342 0.950 . S
C3319 C3336 1.574 . S
C3319 C3338 1.368 . S
C3319 H3343 0.949 . S
H3320 C3324 0.949 . S
C3321 C3322 1.349 1_565 S
C3321 C3323 1.327 . S
C3321 H3344 0.950 . S
C3322 C3321 1.349 1_545 S
C3322 C3334 1.349 . S
C3323 C3321 1.327 . S
C3323 C3339 1.429 . S
C3323 H3345 0.950 . S
C3324 H3320 0.949 . S
C3324 C3332 1.574 . S
C3324 C3340 1.368 . S
H3325 C3333 0.950 . S
H3326 C3331 0.950 . S
H3327 C3332 0.949 . S
H3328 C3334 0.950 . S
H3329 C3335 0.950 . S
H3330 C3336 0.949 . S
C3331 H3326 0.950 . S
C3331 C3333 1.327 . S
C3331 C3337 1.429 . S
C3332 C3324 1.574 . S
C3332 H3327 0.949 . S
C3332 C3338 1.368 . S
C3333 C3317 1.349 . S
C3333 H3325 0.950 . S
C3333 C3331 1.327 . S
C3334 C3322 1.349 . S
C3334 H3328 0.950 . S
C3334 C3335 1.327 . S
C3335 H3329 0.950 . S
C3335 C3334 1.327 . S
C3335 C3339 1.429 1_545 S
C3336 C3319 1.574 . S
C3336 H3330 0.949 . S
C3336 C3340 1.368 . S
C3337 C3318 1.429 . S
C3337 C3331 1.429 . S
C3337 C3338 1.523 . S
C3338 C3319 1.368 . S
C3338 C3332 1.368 . S
C3338 C3337 1.523 . S
C3339 C3323 1.429 . S
C3339 C3335 1.429 1_565 S
C3339 C3340 1.523 . S
C3340 C3324 1.368 . S
C3340 C3336 1.368 . S
C3340 C3339 1.523 . S
H3341 C3316 0.950 . S
H3342 C3318 0.950 . S
H3343 C3319 0.949 . S
H3344 C3321 0.950 . S
H3345 C3323 0.950 . S
C3346 C3347 1.349 . S
C3346 C3348 1.327 . S
C3346 H3371 0.950 . S
C3347 C3346 1.349 . S
C3347 C3363 1.349 . S
C3348 C3346 1.327 . S
C3348 C3367 1.429 . S
C3348 H3372 0.950 . S
C3349 C3366 1.574 . S
C3349 C3368 1.368 . S
C3349 H3373 0.949 . S
H3350 C3354 0.949 . S
C3351 C3352 1.349 . S
C3351 C3353 1.327 . S
C3351 H3374 0.950 . S
C3352 C3351 1.349 . S
C3352 C3364 1.349 . S
C3353 C3351 1.327 . S
C3353 C3369 1.429 . S
C3353 H3375 0.950 . S
C3354 H3350 0.949 . S
C3354 C3362 1.574 . S
C3354 C3370 1.368 . S
H3355 C3363 0.950 . S
H3356 C3361 0.950 . S
H3357 C3362 0.949 . S
H3358 C3364 0.950 . S
H3359 C3365 0.950 . S
H3360 C3366 0.949 . S
C3361 H3356 0.950 . S
C3361 C3363 1.327 . S
C3361 C3367 1.429 . S
C3362 C3354 1.574 . S
C3362 H3357 0.949 . S
C3362 C3368 1.368 . S
C3363 C3347 1.349 . S
C3363 H3355 0.950 . S
C3363 C3361 1.327 . S
C3364 C3352 1.349 . S
C3364 H3358 0.950 . S
C3364 C3365 1.327 . S
C3365 H3359 0.950 . S
C3365 C3364 1.327 . S
C3365 C3369 1.429 . S
C3366 C3349 1.574 . S
C3366 H3360 0.949 . S
C3366 C3370 1.368 . S
C3367 C3348 1.429 . S
C3367 C3361 1.429 . S
C3367 C3368 1.523 . S
C3368 C3349 1.368 . S
C3368 C3362 1.368 . S
C3368 C3367 1.523 . S
C3369 C3353 1.429 . S
C3369 C3365 1.429 . S
C3369 C3370 1.523 . S
C3370 C3354 1.368 . S
C3370 C3366 1.368 . S
C3370 C3369 1.523 . S
H3371 C3346 0.950 . S
H3372 C3348 0.950 . S
H3373 C3349 0.949 . S
H3374 C3351 0.950 . S
H3375 C3353 0.950 . S
C3376 C3377 1.349 . S
C3376 C3378 1.327 . S
C3376 H3401 0.950 . S
C3377 C3376 1.349 . S
C3377 C3393 1.349 . S
C3378 C3376 1.327 . S
C3378 C3397 1.429 . S
C3378 H3402 0.950 . S
C3379 C3396 1.574 . S
C3379 C3398 1.368 . S
C3379 H3403 0.949 . S
H3380 C3384 0.949 . S
C3381 C3382 1.349 . S
C3381 C3383 1.327 . S
C3381 H3404 0.950 . S
C3382 C3381 1.349 . S
C3382 C3394 1.349 . S
C3383 C3381 1.327 . S
C3383 C3399 1.429 . S
C3383 H3405 0.950 . S
C3384 H3380 0.949 . S
C3384 C3392 1.574 . S
C3384 C3400 1.368 . S
H3385 C3393 0.950 . S
H3386 C3391 0.950 . S
H3387 C3392 0.949 . S
H3388 C3394 0.950 1_554 S
H3389 C3395 0.950 . S
H3390 C3396 0.949 . S
C3391 H3386 0.950 . S
C3391 C3393 1.327 . S
C3391 C3397 1.429 . S
C3392 C3384 1.574 . S
C3392 H3387 0.949 . S
C3392 C3398 1.368 . S
C3393 C3377 1.349 . S
C3393 H3385 0.950 . S
C3393 C3391 1.327 . S
C3394 C3382 1.349 . S
C3394 H3388 0.950 1_556 S
C3394 C3395 1.327 . S
C3395 H3389 0.950 . S
C3395 C3394 1.327 . S
C3395 C3399 1.429 . S
C3396 C3379 1.574 . S
C3396 H3390 0.949 . S
C3396 C3400 1.368 . S
C3397 C3378 1.429 . S
C3397 C3391 1.429 . S
C3397 C3398 1.523 . S
C3398 C3379 1.368 . S
C3398 C3392 1.368 . S
C3398 C3397 1.523 . S
C3399 C3383 1.429 . S
C3399 C3395 1.429 . S
C3399 C3400 1.523 . S
C3400 C3384 1.368 . S
C3400 C3396 1.368 . S
C3400 C3399 1.523 . S
H3401 C3376 0.950 . S
H3402 C3378 0.950 . S
H3403 C3379 0.949 . S
H3404 C3381 0.950 . S
H3405 C3383 0.950 . S
C3406 C3407 1.349 . S
C3406 C3408 1.327 . S
C3406 H3431 0.950 . S
C3407 C3406 1.349 . S
C3407 C3423 1.349 . S
C3408 C3406 1.327 . S
C3408 C3427 1.429 . S
C3408 H3432 0.950 . S
C3409 C3426 1.574 . S
C3409 C3428 1.368 . S
C3409 H3433 0.949 . S
H3410 C3414 0.949 . S
C3411 C3412 1.349 . S
C3411 C3413 1.327 . S
C3411 H3434 0.950 . S
C3412 C3411 1.349 . S
C3412 C3424 1.349 . S
C3413 C3411 1.327 . S
C3413 C3429 1.429 . S
C3413 H3435 0.950 . S
C3414 H3410 0.949 . S
C3414 C3422 1.574 . S
C3414 C3430 1.368 . S
H3415 C3423 0.950 1_554 S
H3416 C3421 0.950 . S
H3417 C3422 0.949 . S
H3418 C3424 0.950 . S
H3419 C3425 0.950 . S
H3420 C3426 0.949 . S
C3421 H3416 0.950 . S
C3421 C3423 1.327 . S
C3421 C3427 1.429 . S
C3422 C3414 1.574 . S
C3422 H3417 0.949 . S
C3422 C3428 1.368 . S
C3423 C3407 1.349 . S
C3423 H3415 0.950 1_556 S
C3423 C3421 1.327 . S
C3424 C3412 1.349 . S
C3424 H3418 0.950 . S
C3424 C3425 1.327 . S
C3425 H3419 0.950 . S
C3425 C3424 1.327 . S
C3425 C3429 1.429 . S
C3426 C3409 1.574 . S
C3426 H3420 0.949 . S
C3426 C3430 1.368 . S
C3427 C3408 1.429 . S
C3427 C3421 1.429 . S
C3427 C3428 1.523 . S
C3428 C3409 1.368 . S
C3428 C3422 1.368 . S
C3428 C3427 1.523 . S
C3429 C3413 1.429 . S
C3429 C3425 1.429 . S
C3429 C3430 1.523 . S
C3430 C3414 1.368 . S
C3430 C3426 1.368 . S
C3430 C3429 1.523 . S
H3431 C3406 0.950 . S
H3432 C3408 0.950 . S
H3433 C3409 0.949 . S
H3434 C3411 0.950 . S
H3435 C3413 0.950 . S
C3436 C3437 1.349 . S
C3436 C3438 1.327 . S
C3436 H3461 0.950 . S
C3437 C3436 1.349 . S
C3437 C3453 1.349 . S
C3438 C3436 1.327 . S
C3438 C3457 1.429 . S
C3438 H3462 0.950 . S
C3439 C3456 1.574 . S
C3439 C3458 1.368 . S
C3439 H3463 0.949 . S
H3440 C3444 0.949 . S
C3441 C3442 1.349 . S
C3441 C3443 1.327 . S
C3441 H3464 0.950 . S
C3442 C3441 1.349 . S
C3442 C3454 1.349 . S
C3443 C3441 1.327 . S
C3443 C3459 1.429 . S
C3443 H3465 0.950 . S
C3444 H3440 0.949 . S
C3444 C3452 1.574 . S
C3444 C3460 1.368 . S
H3445 C3453 0.950 . S
H3446 C3451 0.950 . S
H3447 C3452 0.949 . S
H3448 C3454 0.950 . S
H3449 C3455 0.950 . S
H3450 C3456 0.949 . S
C3451 H3446 0.950 . S
C3451 C3453 1.327 . S
C3451 C3457 1.429 . S
C3452 C3444 1.574 . S
C3452 H3447 0.949 . S
C3452 C3458 1.368 . S
C3453 C3437 1.349 . S
C3453 H3445 0.950 . S
C3453 C3451 1.327 . S
C3454 C3442 1.349 . S
C3454 H3448 0.950 . S
C3454 C3455 1.327 . S
C3455 H3449 0.950 . S
C3455 C3454 1.327 . S
C3455 C3459 1.429 . S
C3456 C3439 1.574 . S
C3456 H3450 0.949 . S
C3456 C3460 1.368 . S
C3457 C3438 1.429 . S
C3457 C3451 1.429 . S
C3457 C3458 1.523 . S
C3458 C3439 1.368 . S
C3458 C3452 1.368 . S
C3458 C3457 1.523 . S
C3459 C3443 1.429 . S
C3459 C3455 1.429 . S
C3459 C3460 1.523 . S
C3460 C3444 1.368 . S
C3460 C3456 1.368 . S
C3460 C3459 1.523 . S
H3461 C3436 0.950 . S
H3462 C3438 0.950 . S
H3463 C3439 0.949 . S
H3464 C3441 0.950 . S
H3465 C3443 0.950 . S
C3466 C3467 1.349 . S
C3466 C3468 1.327 . S
C3466 H3491 0.950 . S
C3467 C3466 1.349 . S
C3467 C3483 1.349 . S
C3468 C3466 1.327 . S
C3468 C3487 1.429 . S
C3468 H3492 0.950 . S
C3469 C3486 1.574 . S
C3469 C3488 1.368 . S
C3469 H3493 0.949 . S
H3470 C3474 0.949 . S
C3471 C3472 1.349 . S
C3471 C3473 1.327 . S
C3471 H3494 0.950 . S
C3472 C3471 1.349 . S
C3472 C3484 1.349 . S
C3473 C3471 1.327 . S
C3473 C3489 1.429 . S
C3473 H3495 0.950 . S
C3474 H3470 0.949 . S
C3474 C3482 1.574 . S
C3474 C3490 1.368 . S
H3475 C3483 0.950 . S
H3476 C3481 0.950 . S
H3477 C3482 0.949 . S
H3478 C3484 0.950 . S
H3479 C3485 0.950 . S
H3480 C3486 0.949 . S
C3481 H3476 0.950 . S
C3481 C3483 1.327 . S
C3481 C3487 1.429 . S
C3482 C3474 1.574 . S
C3482 H3477 0.949 . S
C3482 C3488 1.368 . S
C3483 C3467 1.349 . S
C3483 H3475 0.950 . S
C3483 C3481 1.327 . S
C3484 C3472 1.349 . S
C3484 H3478 0.950 . S
C3484 C3485 1.327 . S
C3485 H3479 0.950 . S
C3485 C3484 1.327 . S
C3485 C3489 1.429 . S
C3486 C3469 1.574 . S
C3486 H3480 0.949 . S
C3486 C3490 1.368 . S
C3487 C3468 1.429 . S
C3487 C3481 1.429 . S
C3487 C3488 1.523 . S
C3488 C3469 1.368 . S
C3488 C3482 1.368 . S
C3488 C3487 1.523 . S
C3489 C3473 1.429 . S
C3489 C3485 1.429 . S
C3489 C3490 1.523 . S
C3490 C3474 1.368 . S
C3490 C3486 1.368 . S
C3490 C3489 1.523 . S
H3491 C3466 0.950 . S
H3492 C3468 0.950 . S
H3493 C3469 0.949 . S
H3494 C3471 0.950 . S
H3495 C3473 0.950 . S
C3496 C3497 1.349 . S
C3496 C3498 1.327 . S
C3496 H3521 0.950 . S
C3497 C3496 1.349 . S
C3497 C3513 1.349 . S
C3498 C3496 1.327 . S
C3498 C3517 1.429 . S
C3498 H3522 0.950 . S
C3499 C3516 1.574 . S
C3499 C3518 1.368 . S
C3499 H3523 0.949 . S
H3500 C3504 0.949 . S
C3501 C3502 1.349 . S
C3501 C3503 1.327 . S
C3501 H3524 0.950 . S
C3502 C3501 1.349 . S
C3502 C3514 1.349 . S
C3503 C3501 1.327 . S
C3503 C3519 1.429 . S
C3503 H3525 0.950 . S
C3504 H3500 0.949 . S
C3504 C3512 1.574 . S
C3504 C3520 1.368 . S
H3505 C3513 0.950 . S
H3506 C3511 0.950 . S
H3507 C3512 0.949 . S
H3508 C3514 0.950 . S
H3509 C3515 0.950 . S
H3510 C3516 0.949 . S
C3511 H3506 0.950 . S
C3511 C3513 1.327 . S
C3511 C3517 1.429 . S
C3512 C3504 1.574 . S
C3512 H3507 0.949 . S
C3512 C3518 1.368 . S
C3513 C3497 1.349 . S
C3513 H3505 0.950 . S
C3513 C3511 1.327 . S
C3514 C3502 1.349 . S
C3514 H3508 0.950 . S
C3514 C3515 1.327 . S
C3515 H3509 0.950 . S
C3515 C3514 1.327 . S
C3515 C3519 1.429 . S
C3516 C3499 1.574 . S
C3516 H3510 0.949 . S
C3516 C3520 1.368 . S
C3517 C3498 1.429 . S
C3517 C3511 1.429 . S
C3517 C3518 1.523 . S
C3518 C3499 1.368 . S
C3518 C3512 1.368 . S
C3518 C3517 1.523 . S
C3519 C3503 1.429 . S
C3519 C3515 1.429 . S
C3519 C3520 1.523 . S
C3520 C3504 1.368 . S
C3520 C3516 1.368 . S
C3520 C3519 1.523 . S
H3521 C3496 0.950 . S
H3522 C3498 0.950 . S
H3523 C3499 0.949 . S
H3524 C3501 0.950 . S
H3525 C3503 0.950 . S
C3526 C3527 1.349 . S
C3526 C3528 1.327 . S
C3526 H3551 0.950 . S
C3527 C3526 1.349 . S
C3527 C3543 1.349 . S
C3528 C3526 1.327 . S
C3528 C3547 1.429 . S
C3528 H3552 0.950 . S
C3529 C3546 1.574 . S
C3529 C3548 1.368 . S
C3529 H3553 0.949 . S
H3530 C3534 0.949 . S
C3531 C3532 1.349 . S
C3531 C3533 1.327 . S
C3531 H3554 0.950 . S
C3532 C3531 1.349 . S
C3532 C3544 1.349 . S
C3533 C3531 1.327 . S
C3533 C3549 1.429 . S
C3533 H3555 0.950 . S
C3534 H3530 0.949 . S
C3534 C3542 1.574 . S
C3534 C3550 1.368 . S
H3535 C3543 0.950 . S
H3536 C3541 0.950 . S
H3537 C3542 0.949 . S
H3538 C3544 0.950 . S
H3539 C3545 0.950 . S
H3540 C3546 0.949 . S
C3541 H3536 0.950 . S
C3541 C3543 1.327 . S
C3541 C3547 1.429 . S
C3542 C3534 1.574 . S
C3542 H3537 0.949 . S
C3542 C3548 1.368 . S
C3543 C3527 1.349 . S
C3543 H3535 0.950 . S
C3543 C3541 1.327 . S
C3544 C3532 1.349 . S
C3544 H3538 0.950 . S
C3544 C3545 1.327 . S
C3545 H3539 0.950 . S
C3545 C3544 1.327 . S
C3545 C3549 1.429 . S
C3546 C3529 1.574 . S
C3546 H3540 0.949 . S
C3546 C3550 1.368 . S
C3547 C3528 1.429 . S
C3547 C3541 1.429 . S
C3547 C3548 1.523 . S
C3548 C3529 1.368 . S
C3548 C3542 1.368 . S
C3548 C3547 1.523 . S
C3549 C3533 1.429 . S
C3549 C3545 1.429 . S
C3549 C3550 1.523 . S
C3550 C3534 1.368 . S
C3550 C3546 1.368 . S
C3550 C3549 1.523 . S
H3551 C3526 0.950 . S
H3552 C3528 0.950 . S
H3553 C3529 0.949 . S
H3554 C3531 0.950 . S
H3555 C3533 0.950 . S
C3556 C3557 1.349 . S
C3556 C3558 1.327 . S
C3556 H3581 0.950 . S
C3557 C3556 1.349 . S
C3557 C3573 1.349 . S
C3558 C3556 1.327 . S
C3558 C3577 1.429 . S
C3558 H3582 0.950 . S
C3559 C3576 1.574 . S
C3559 C3578 1.368 . S
C3559 H3583 0.949 . S
H3560 C3564 0.949 . S
C3561 C3562 1.349 . S
C3561 C3563 1.327 . S
C3561 H3584 0.950 . S
C3562 C3561 1.349 . S
C3562 C3574 1.349 . S
C3563 C3561 1.327 . S
C3563 C3579 1.429 . S
C3563 H3585 0.950 . S
C3564 H3560 0.949 . S
C3564 C3572 1.574 . S
C3564 C3580 1.368 . S
H3565 C3573 0.950 . S
H3566 C3571 0.950 . S
H3567 C3572 0.949 . S
H3568 C3574 0.950 . S
H3569 C3575 0.950 . S
H3570 C3576 0.949 . S
C3571 H3566 0.950 . S
C3571 C3573 1.327 . S
C3571 C3577 1.429 . S
C3572 C3564 1.574 . S
C3572 H3567 0.949 . S
C3572 C3578 1.368 . S
C3573 C3557 1.349 . S
C3573 H3565 0.950 . S
C3573 C3571 1.327 . S
C3574 C3562 1.349 . S
C3574 H3568 0.950 . S
C3574 C3575 1.327 . S
C3575 H3569 0.950 . S
C3575 C3574 1.327 . S
C3575 C3579 1.429 . S
C3576 C3559 1.574 . S
C3576 H3570 0.949 . S
C3576 C3580 1.368 . S
C3577 C3558 1.429 . S
C3577 C3571 1.429 . S
C3577 C3578 1.523 . S
C3578 C3559 1.368 . S
C3578 C3572 1.368 . S
C3578 C3577 1.523 . S
C3579 C3563 1.429 . S
C3579 C3575 1.429 . S
C3579 C3580 1.523 . S
C3580 C3564 1.368 . S
C3580 C3576 1.368 . S
C3580 C3579 1.523 . S
H3581 C3556 0.950 . S
H3582 C3558 0.950 . S
H3583 C3559 0.949 . S
H3584 C3561 0.950 . S
H3585 C3563 0.950 . S
C3586 C3587 1.349 . S
C3586 C3588 1.327 . S
C3586 H3611 0.950 . S
C3587 C3586 1.349 . S
C3587 C3603 1.349 . S
C3588 C3586 1.327 . S
C3588 C3607 1.429 . S
C3588 H3612 0.950 . S
C3589 C3606 1.574 . S
C3589 C3608 1.368 . S
C3589 H3613 0.949 . S
H3590 C3594 0.949 . S
C3591 C3592 1.349 . S
C3591 C3593 1.327 . S
C3591 H3614 0.950 . S
C3592 C3591 1.349 . S
C3592 C3604 1.349 . S
C3593 C3591 1.327 . S
C3593 C3609 1.429 . S
C3593 H3615 0.950 . S
C3594 H3590 0.949 . S
C3594 C3602 1.574 . S
C3594 C3610 1.368 . S
H3595 C3603 0.950 . S
H3596 C3601 0.950 . S
H3597 C3602 0.949 . S
H3598 C3604 0.950 . S
H3599 C3605 0.950 . S
H3600 C3606 0.949 . S
C3601 H3596 0.950 . S
C3601 C3603 1.327 . S
C3601 C3607 1.429 . S
C3602 C3594 1.574 . S
C3602 H3597 0.949 . S
C3602 C3608 1.368 . S
C3603 C3587 1.349 . S
C3603 H3595 0.950 . S
C3603 C3601 1.327 . S
C3604 C3592 1.349 . S
C3604 H3598 0.950 . S
C3604 C3605 1.327 . S
C3605 H3599 0.950 . S
C3605 C3604 1.327 . S
C3605 C3609 1.429 . S
C3606 C3589 1.574 . S
C3606 H3600 0.949 . S
C3606 C3610 1.368 . S
C3607 C3588 1.429 . S
C3607 C3601 1.429 . S
C3607 C3608 1.523 . S
C3608 C3589 1.368 . S
C3608 C3602 1.368 . S
C3608 C3607 1.523 . S
C3609 C3593 1.429 . S
C3609 C3605 1.429 . S
C3609 C3610 1.523 . S
C3610 C3594 1.368 . S
C3610 C3606 1.368 . S
C3610 C3609 1.523 . S
H3611 C3586 0.950 . S
H3612 C3588 0.950 . S
H3613 C3589 0.949 . S
H3614 C3591 0.950 . S
H3615 C3593 0.950 . S
C3616 C3617 1.349 . S
C3616 C3618 1.327 . S
C3616 H3641 0.950 . S
C3617 C3616 1.349 . S
C3617 C3633 1.349 . S
C3618 C3616 1.327 . S
C3618 C3637 1.429 . S
C3618 H3642 0.950 . S
C3619 C3636 1.574 . S
C3619 C3638 1.368 . S
C3619 H3643 0.949 . S
H3620 C3624 0.949 . S
C3621 C3622 1.349 . S
C3621 C3623 1.327 . S
C3621 H3644 0.950 . S
C3622 C3621 1.349 . S
C3622 C3634 1.349 . S
C3623 C3621 1.327 . S
C3623 C3639 1.429 . S
C3623 H3645 0.950 . S
C3624 H3620 0.949 . S
C3624 C3632 1.574 . S
C3624 C3640 1.368 . S
H3625 C3633 0.950 . S
H3626 C3631 0.950 . S
H3627 C3632 0.949 . S
H3628 C3634 0.950 . S
H3629 C3635 0.950 . S
H3630 C3636 0.949 . S
C3631 H3626 0.950 . S
C3631 C3633 1.327 . S
C3631 C3637 1.429 . S
C3632 C3624 1.574 . S
C3632 H3627 0.949 . S
C3632 C3638 1.368 . S
C3633 C3617 1.349 . S
C3633 H3625 0.950 . S
C3633 C3631 1.327 . S
C3634 C3622 1.349 . S
C3634 H3628 0.950 . S
C3634 C3635 1.327 . S
C3635 H3629 0.950 . S
C3635 C3634 1.327 . S
C3635 C3639 1.429 . S
C3636 C3619 1.574 . S
C3636 H3630 0.949 . S
C3636 C3640 1.368 . S
C3637 C3618 1.429 . S
C3637 C3631 1.429 . S
C3637 C3638 1.523 . S
C3638 C3619 1.368 . S
C3638 C3632 1.368 . S
C3638 C3637 1.523 . S
C3639 C3623 1.429 . S
C3639 C3635 1.429 . S
C3639 C3640 1.523 . S
C3640 C3624 1.368 . S
C3640 C3636 1.368 . S
C3640 C3639 1.523 . S
H3641 C3616 0.950 . S
H3642 C3618 0.950 . S
H3643 C3619 0.949 . S
H3644 C3621 0.950 . S
H3645 C3623 0.950 . S
C3646 C3647 1.349 . S
C3646 C3648 1.327 . S
C3646 H3671 0.950 . S
C3647 C3646 1.349 . S
C3647 C3663 1.349 . S
C3648 C3646 1.327 . S
C3648 C3667 1.429 . S
C3648 H3672 0.950 . S
C3649 C3666 1.574 . S
C3649 C3668 1.368 . S
C3649 H3673 0.949 . S
H3650 C3654 0.949 . S
C3651 C3652 1.349 . S
C3651 C3653 1.327 . S
C3651 H3674 0.950 . S
C3652 C3651 1.349 . S
C3652 C3664 1.349 . S
C3653 C3651 1.327 . S
C3653 C3669 1.429 . S
C3653 H3675 0.950 . S
C3654 H3650 0.949 . S
C3654 C3662 1.574 . S
C3654 C3670 1.368 . S
H3655 C3663 0.950 . S
H3656 C3661 0.950 . S
H3657 C3662 0.949 . S
H3658 C3664 0.950 . S
H3659 C3665 0.950 . S
H3660 C3666 0.949 . S
C3661 H3656 0.950 . S
C3661 C3663 1.327 . S
C3661 C3667 1.429 . S
C3662 C3654 1.574 . S
C3662 H3657 0.949 . S
C3662 C3668 1.368 . S
C3663 C3647 1.349 . S
C3663 H3655 0.950 . S
C3663 C3661 1.327 . S
C3664 C3652 1.349 . S
C3664 H3658 0.950 . S
C3664 C3665 1.327 . S
C3665 H3659 0.950 . S
C3665 C3664 1.327 . S
C3665 C3669 1.429 . S
C3666 C3649 1.574 . S
C3666 H3660 0.949 . S
C3666 C3670 1.368 . S
C3667 C3648 1.429 . S
C3667 C3661 1.429 . S
C3667 C3668 1.523 . S
C3668 C3649 1.368 . S
C3668 C3662 1.368 . S
C3668 C3667 1.523 . S
C3669 C3653 1.429 . S
C3669 C3665 1.429 . S
C3669 C3670 1.523 . S
C3670 C3654 1.368 . S
C3670 C3666 1.368 . S
C3670 C3669 1.523 . S
H3671 C3646 0.950 . S
H3672 C3648 0.950 . S
H3673 C3649 0.949 . S
H3674 C3651 0.950 . S
H3675 C3653 0.950 . S
C3676 C3677 1.349 . S
C3676 C3678 1.327 . S
C3676 H3701 0.950 . S
C3677 C3676 1.349 . S
C3677 C3693 1.349 . S
C3678 C3676 1.327 . S
C3678 C3697 1.429 . S
C3678 H3702 0.950 . S
C3679 C3696 1.574 . S
C3679 C3698 1.368 . S
C3679 H3703 0.949 . S
H3680 C3684 0.949 . S
C3681 C3682 1.349 . S
C3681 C3683 1.327 . S
C3681 H3704 0.950 . S
C3682 C3681 1.349 . S
C3682 C3694 1.349 . S
C3683 C3681 1.327 . S
C3683 C3699 1.429 . S
C3683 H3705 0.950 . S
C3684 H3680 0.949 . S
C3684 C3692 1.574 . S
C3684 C3700 1.368 . S
H3685 C3693 0.950 . S
H3686 C3691 0.950 . S
H3687 C3692 0.949 . S
H3688 C3694 0.950 . S
H3689 C3695 0.950 . S
H3690 C3696 0.949 . S
C3691 H3686 0.950 . S
C3691 C3693 1.327 . S
C3691 C3697 1.429 . S
C3692 C3684 1.574 . S
C3692 H3687 0.949 . S
C3692 C3698 1.368 . S
C3693 C3677 1.349 . S
C3693 H3685 0.950 . S
C3693 C3691 1.327 . S
C3694 C3682 1.349 . S
C3694 H3688 0.950 . S
C3694 C3695 1.327 . S
C3695 H3689 0.950 . S
C3695 C3694 1.327 . S
C3695 C3699 1.429 . S
C3696 C3679 1.574 . S
C3696 H3690 0.949 . S
C3696 C3700 1.368 . S
C3697 C3678 1.429 . S
C3697 C3691 1.429 . S
C3697 C3698 1.523 . S
C3698 C3679 1.368 . S
C3698 C3692 1.368 . S
C3698 C3697 1.523 . S
C3699 C3683 1.429 . S
C3699 C3695 1.429 . S
C3699 C3700 1.523 . S
C3700 C3684 1.368 . S
C3700 C3696 1.368 . S
C3700 C3699 1.523 . S
H3701 C3676 0.950 . S
H3702 C3678 0.950 . S
H3703 C3679 0.949 . S
H3704 C3681 0.950 . S
H3705 C3683 0.950 . S
C3706 C3707 1.349 . S
C3706 C3708 1.327 . S
C3706 H3731 0.950 . S
C3707 C3706 1.349 . S
C3707 C3723 1.349 . S
C3708 C3706 1.327 . S
C3708 C3727 1.429 . S
C3708 H3732 0.950 . S
C3709 C3726 1.574 . S
C3709 C3728 1.368 . S
C3709 H3733 0.949 . S
H3710 C3714 0.949 . S
C3711 C3712 1.349 . S
C3711 C3713 1.327 . S
C3711 H3734 0.950 . S
C3712 C3711 1.349 . S
C3712 C3724 1.349 . S
C3713 C3711 1.327 . S
C3713 C3729 1.429 . S
C3713 H3735 0.950 . S
C3714 H3710 0.949 . S
C3714 C3722 1.574 . S
C3714 C3730 1.368 . S
H3715 C3723 0.950 . S
H3716 C3721 0.950 . S
H3717 C3722 0.949 . S
H3718 C3724 0.950 . S
H3719 C3725 0.950 . S
H3720 C3726 0.949 . S
C3721 H3716 0.950 . S
C3721 C3723 1.327 . S
C3721 C3727 1.429 . S
C3722 C3714 1.574 . S
C3722 H3717 0.949 . S
C3722 C3728 1.368 . S
C3723 C3707 1.349 . S
C3723 H3715 0.950 . S
C3723 C3721 1.327 . S
C3724 C3712 1.349 . S
C3724 H3718 0.950 . S
C3724 C3725 1.327 . S
C3725 H3719 0.950 . S
C3725 C3724 1.327 . S
C3725 C3729 1.429 . S
C3726 C3709 1.574 . S
C3726 H3720 0.949 . S
C3726 C3730 1.368 . S
C3727 C3708 1.429 . S
C3727 C3721 1.429 . S
C3727 C3728 1.523 . S
C3728 C3709 1.368 . S
C3728 C3722 1.368 . S
C3728 C3727 1.523 . S
C3729 C3713 1.429 . S
C3729 C3725 1.429 . S
C3729 C3730 1.523 . S
C3730 C3714 1.368 . S
C3730 C3726 1.368 . S
C3730 C3729 1.523 . S
H3731 C3706 0.950 . S
H3732 C3708 0.950 . S
H3733 C3709 0.949 . S
H3734 C3711 0.950 . S
H3735 C3713 0.950 . S
C3736 C3737 1.349 . S
C3736 C3738 1.327 . S
C3736 H3761 0.950 . S
C3737 C3736 1.349 . S
C3737 C3753 1.349 . S
C3738 C3736 1.327 . S
C3738 C3757 1.429 . S
C3738 H3762 0.950 . S
C3739 C3756 1.574 . S
C3739 C3758 1.368 . S
C3739 H3763 0.949 . S
H3740 C3744 0.949 . S
C3741 C3742 1.349 . S
C3741 C3743 1.327 . S
C3741 H3764 0.950 . S
C3742 C3741 1.349 . S
C3742 C3754 1.349 . S
C3743 C3741 1.327 . S
C3743 C3759 1.429 . S
C3743 H3765 0.950 . S
C3744 H3740 0.949 . S
C3744 C3752 1.574 . S
C3744 C3760 1.368 . S
H3745 C3753 0.950 . S
H3746 C3751 0.950 . S
H3747 C3752 0.949 . S
H3748 C3754 0.950 . S
H3749 C3755 0.950 . S
H3750 C3756 0.949 . S
C3751 H3746 0.950 . S
C3751 C3753 1.327 . S
C3751 C3757 1.429 . S
C3752 C3744 1.574 . S
C3752 H3747 0.949 . S
C3752 C3758 1.368 . S
C3753 C3737 1.349 . S
C3753 H3745 0.950 . S
C3753 C3751 1.327 . S
C3754 C3742 1.349 . S
C3754 H3748 0.950 . S
C3754 C3755 1.327 . S
C3755 H3749 0.950 . S
C3755 C3754 1.327 . S
C3755 C3759 1.429 . S
C3756 C3739 1.574 . S
C3756 H3750 0.949 . S
C3756 C3760 1.368 . S
C3757 C3738 1.429 . S
C3757 C3751 1.429 . S
C3757 C3758 1.523 . S
C3758 C3739 1.368 . S
C3758 C3752 1.368 . S
C3758 C3757 1.523 . S
C3759 C3743 1.429 . S
C3759 C3755 1.429 . S
C3759 C3760 1.523 . S
C3760 C3744 1.368 . S
C3760 C3756 1.368 . S
C3760 C3759 1.523 . S
H3761 C3736 0.950 . S
H3762 C3738 0.950 . S
H3763 C3739 0.949 . S
H3764 C3741 0.950 . S
H3765 C3743 0.950 . S
C3766 C3767 1.349 . S
C3766 C3768 1.327 . S
C3766 H3791 0.950 . S
C3767 C3766 1.349 . S
C3767 C3783 1.349 . S
C3768 C3766 1.327 . S
C3768 C3787 1.429 . S
C3768 H3792 0.950 . S
C3769 C3786 1.574 . S
C3769 C3788 1.368 . S
C3769 H3793 0.949 . S
H3770 C3774 0.949 . S
C3771 C3772 1.349 . S
C3771 C3773 1.327 . S
C3771 H3794 0.950 . S
C3772 C3771 1.349 . S
C3772 C3784 1.349 . S
C3773 C3771 1.327 . S
C3773 C3789 1.429 . S
C3773 H3795 0.950 . S
C3774 H3770 0.949 . S
C3774 C3782 1.574 . S
C3774 C3790 1.368 . S
H3775 C3783 0.950 . S
H3776 C3781 0.950 . S
H3777 C3782 0.949 . S
H3778 C3784 0.950 . S
H3779 C3785 0.950 . S
H3780 C3786 0.949 . S
C3781 H3776 0.950 . S
C3781 C3783 1.327 . S
C3781 C3787 1.429 . S
C3782 C3774 1.574 . S
C3782 H3777 0.949 . S
C3782 C3788 1.368 . S
C3783 C3767 1.349 . S
C3783 H3775 0.950 . S
C3783 C3781 1.327 . S
C3784 C3772 1.349 . S
C3784 H3778 0.950 . S
C3784 C3785 1.327 . S
C3785 H3779 0.950 . S
C3785 C3784 1.327 . S
C3785 C3789 1.429 . S
C3786 C3769 1.574 . S
C3786 H3780 0.949 . S
C3786 C3790 1.368 . S
C3787 C3768 1.429 . S
C3787 C3781 1.429 . S
C3787 C3788 1.523 . S
C3788 C3769 1.368 . S
C3788 C3782 1.368 . S
C3788 C3787 1.523 . S
C3789 C3773 1.429 . S
C3789 C3785 1.429 . S
C3789 C3790 1.523 . S
C3790 C3774 1.368 . S
C3790 C3786 1.368 . S
C3790 C3789 1.523 . S
H3791 C3766 0.950 . S
H3792 C3768 0.950 . S
H3793 C3769 0.949 . S
H3794 C3771 0.950 . S
H3795 C3773 0.950 . S
C3796 C3797 1.349 . S
C3796 C3798 1.327 . S
C3796 H3821 0.950 . S
C3797 C3796 1.349 . S
C3797 C3813 1.349 . S
C3798 C3796 1.327 . S
C3798 C3817 1.429 . S
C3798 H3822 0.950 . S
C3799 C3816 1.574 . S
C3799 C3818 1.368 . S
C3799 H3823 0.949 . S
H3800 C3804 0.949 . S
C3801 C3802 1.349 . S
C3801 C3803 1.327 . S
C3801 H3824 0.950 . S
C3802 C3801 1.349 . S
C3802 C3814 1.349 . S
C3803 C3801 1.327 . S
C3803 C3819 1.429 . S
C3803 H3825 0.950 . S
C3804 H3800 0.949 . S
C3804 C3812 1.574 . S
C3804 C3820 1.368 . S
H3805 C3813 0.950 . S
H3806 C3811 0.950 . S
H3807 C3812 0.949 . S
H3808 C3814 0.950 . S
H3809 C3815 0.950 . S
H3810 C3816 0.949 . S
C3811 H3806 0.950 . S
C3811 C3813 1.327 . S
C3811 C3817 1.429 . S
C3812 C3804 1.574 . S
C3812 H3807 0.949 . S
C3812 C3818 1.368 . S
C3813 C3797 1.349 . S
C3813 H3805 0.950 . S
C3813 C3811 1.327 . S
C3814 C3802 1.349 . S
C3814 H3808 0.950 . S
C3814 C3815 1.327 . S
C3815 H3809 0.950 . S
C3815 C3814 1.327 . S
C3815 C3819 1.429 . S
C3816 C3799 1.574 . S
C3816 H3810 0.949 . S
C3816 C3820 1.368 . S
C3817 C3798 1.429 . S
C3817 C3811 1.429 . S
C3817 C3818 1.523 . S
C3818 C3799 1.368 . S
C3818 C3812 1.368 . S
C3818 C3817 1.523 . S
C3819 C3803 1.429 . S
C3819 C3815 1.429 . S
C3819 C3820 1.523 . S
C3820 C3804 1.368 . S
C3820 C3816 1.368 . S
C3820 C3819 1.523 . S
H3821 C3796 0.950 . S
H3822 C3798 0.950 . S
H3823 C3799 0.949 . S
H3824 C3801 0.950 . S
H3825 C3803 0.950 . S
C3826 C3827 1.349 . S
C3826 C3828 1.327 . S
C3826 H3851 0.950 . S
C3827 C3826 1.349 . S
C3827 C3843 1.349 . S
C3828 C3826 1.327 . S
C3828 C3847 1.429 . S
C3828 H3852 0.950 . S
C3829 C3846 1.574 . S
C3829 C3848 1.368 . S
C3829 H3853 0.949 . S
H3830 C3834 0.949 . S
C3831 C3832 1.349 . S
C3831 C3833 1.327 . S
C3831 H3854 0.950 . S
C3832 C3831 1.349 . S
C3832 C3844 1.349 . S
C3833 C3831 1.327 . S
C3833 C3849 1.429 . S
C3833 H3855 0.950 . S
C3834 H3830 0.949 . S
C3834 C3842 1.574 . S
C3834 C3850 1.368 . S
H3835 C3843 0.950 . S
H3836 C3841 0.950 . S
H3837 C3842 0.949 . S
H3838 C3844 0.950 . S
H3839 C3845 0.950 . S
H3840 C3846 0.949 . S
C3841 H3836 0.950 . S
C3841 C3843 1.327 . S
C3841 C3847 1.429 . S
C3842 C3834 1.574 . S
C3842 H3837 0.949 . S
C3842 C3848 1.368 . S
C3843 C3827 1.349 . S
C3843 H3835 0.950 . S
C3843 C3841 1.327 . S
C3844 C3832 1.349 . S
C3844 H3838 0.950 . S
C3844 C3845 1.327 . S
C3845 H3839 0.950 . S
C3845 C3844 1.327 . S
C3845 C3849 1.429 . S
C3846 C3829 1.574 . S
C3846 H3840 0.949 . S
C3846 C3850 1.368 . S
C3847 C3828 1.429 . S
C3847 C3841 1.429 . S
C3847 C3848 1.523 . S
C3848 C3829 1.368 . S
C3848 C3842 1.368 . S
C3848 C3847 1.523 . S
C3849 C3833 1.429 . S
C3849 C3845 1.429 . S
C3849 C3850 1.523 . S
C3850 C3834 1.368 . S
C3850 C3846 1.368 . S
C3850 C3849 1.523 . S
H3851 C3826 0.950 . S
H3852 C3828 0.950 . S
H3853 C3829 0.949 . S
H3854 C3831 0.950 . S
H3855 C3833 0.950 . S
C3856 C3857 1.349 . S
C3856 C3858 1.327 . S
C3856 H3881 0.950 . S
C3857 C3856 1.349 . S
C3857 C3873 1.349 . S
C3858 C3856 1.327 . S
C3858 C3877 1.429 . S
C3858 H3882 0.950 . S
C3859 C3876 1.574 . S
C3859 C3878 1.368 . S
C3859 H3883 0.949 . S
H3860 C3864 0.949 . S
C3861 C3862 1.349 . S
C3861 C3863 1.327 . S
C3861 H3884 0.950 . S
C3862 C3861 1.349 . S
C3862 C3874 1.349 . S
C3863 C3861 1.327 . S
C3863 C3879 1.429 . S
C3863 H3885 0.950 . S
C3864 H3860 0.949 . S
C3864 C3872 1.574 . S
C3864 C3880 1.368 . S
H3865 C3873 0.950 . S
H3866 C3871 0.950 . S
H3867 C3872 0.949 . S
H3868 C3874 0.950 . S
H3869 C3875 0.950 . S
H3870 C3876 0.949 . S
C3871 H3866 0.950 . S
C3871 C3873 1.327 . S
C3871 C3877 1.429 . S
C3872 C3864 1.574 . S
C3872 H3867 0.949 . S
C3872 C3878 1.368 . S
C3873 C3857 1.349 . S
C3873 H3865 0.950 . S
C3873 C3871 1.327 . S
C3874 C3862 1.349 . S
C3874 H3868 0.950 . S
C3874 C3875 1.327 . S
C3875 H3869 0.950 . S
C3875 C3874 1.327 . S
C3875 C3879 1.429 . S
C3876 C3859 1.574 . S
C3876 H3870 0.949 . S
C3876 C3880 1.368 . S
C3877 C3858 1.429 . S
C3877 C3871 1.429 . S
C3877 C3878 1.523 . S
C3878 C3859 1.368 . S
C3878 C3872 1.368 . S
C3878 C3877 1.523 . S
C3879 C3863 1.429 . S
C3879 C3875 1.429 . S
C3879 C3880 1.523 . S
C3880 C3864 1.368 . S
C3880 C3876 1.368 . S
C3880 C3879 1.523 . S
H3881 C3856 0.950 . S
H3882 C3858 0.950 . S
H3883 C3859 0.949 . S
H3884 C3861 0.950 . S
H3885 C3863 0.950 . S
C3886 C3887 1.349 . S
C3886 C3888 1.327 . S
C3886 H3911 0.950 . S
C3887 C3886 1.349 . S
C3887 C3903 1.349 . S
C3888 C3886 1.327 . S
C3888 C3907 1.429 . S
C3888 H3912 0.950 . S
C3889 C3906 1.574 . S
C3889 C3908 1.368 . S
C3889 H3913 0.949 . S
H3890 C3894 0.949 . S
C3891 C3892 1.349 . S
C3891 C3893 1.327 . S
C3891 H3914 0.950 . S
C3892 C3891 1.349 . S
C3892 C3904 1.349 . S
C3893 C3891 1.327 . S
C3893 C3909 1.429 . S
C3893 H3915 0.950 . S
C3894 H3890 0.949 . S
C3894 C3902 1.574 . S
C3894 C3910 1.368 . S
H3895 C3903 0.950 . S
H3896 C3901 0.950 . S
H3897 C3902 0.949 . S
H3898 C3904 0.950 . S
H3899 C3905 0.950 . S
H3900 C3906 0.949 . S
C3901 H3896 0.950 . S
C3901 C3903 1.327 . S
C3901 C3907 1.429 . S
C3902 C3894 1.574 . S
C3902 H3897 0.949 . S
C3902 C3908 1.368 . S
C3903 C3887 1.349 . S
C3903 H3895 0.950 . S
C3903 C3901 1.327 . S
C3904 C3892 1.349 . S
C3904 H3898 0.950 . S
C3904 C3905 1.327 . S
C3905 H3899 0.950 . S
C3905 C3904 1.327 . S
C3905 C3909 1.429 . S
C3906 C3889 1.574 . S
C3906 H3900 0.949 . S
C3906 C3910 1.368 . S
C3907 C3888 1.429 . S
C3907 C3901 1.429 . S
C3907 C3908 1.523 . S
C3908 C3889 1.368 . S
C3908 C3902 1.368 . S
C3908 C3907 1.523 . S
C3909 C3893 1.429 . S
C3909 C3905 1.429 . S
C3909 C3910 1.523 . S
C3910 C3894 1.368 . S
C3910 C3906 1.368 . S
C3910 C3909 1.523 . S
H3911 C3886 0.950 . S
H3912 C3888 0.950 . S
H3913 C3889 0.949 . S
H3914 C3891 0.950 . S
H3915 C3893 0.950 . S
C3916 C3917 1.349 . S
C3916 C3918 1.327 . S
C3916 H3941 0.950 . S
C3917 C3916 1.349 . S
C3917 C3933 1.349 . S
C3918 C3916 1.327 . S
C3918 C3937 1.429 . S
C3918 H3942 0.950 . S
C3919 C3936 1.574 . S
C3919 C3938 1.368 . S
C3919 H3943 0.949 . S
H3920 C3924 0.949 . S
C3921 C3922 1.349 . S
C3921 C3923 1.327 . S
C3921 H3944 0.950 . S
C3922 C3921 1.349 . S
C3922 C3934 1.349 . S
C3923 C3921 1.327 . S
C3923 C3939 1.429 . S
C3923 H3945 0.950 . S
C3924 H3920 0.949 . S
C3924 C3932 1.574 . S
C3924 C3940 1.368 . S
H3925 C3933 0.950 . S
H3926 C3931 0.950 . S
H3927 C3932 0.949 . S
H3928 C3934 0.950 . S
H3929 C3935 0.950 . S
H3930 C3936 0.949 . S
C3931 H3926 0.950 . S
C3931 C3933 1.327 . S
C3931 C3937 1.429 . S
C3932 C3924 1.574 . S
C3932 H3927 0.949 . S
C3932 C3938 1.368 . S
C3933 C3917 1.349 . S
C3933 H3925 0.950 . S
C3933 C3931 1.327 . S
C3934 C3922 1.349 . S
C3934 H3928 0.950 . S
C3934 C3935 1.327 . S
C3935 H3929 0.950 . S
C3935 C3934 1.327 . S
C3935 C3939 1.429 . S
C3936 C3919 1.574 . S
C3936 H3930 0.949 . S
C3936 C3940 1.368 . S
C3937 C3918 1.429 . S
C3937 C3931 1.429 . S
C3937 C3938 1.523 . S
C3938 C3919 1.368 . S
C3938 C3932 1.368 . S
C3938 C3937 1.523 . S
C3939 C3923 1.429 . S
C3939 C3935 1.429 . S
C3939 C3940 1.523 . S
C3940 C3924 1.368 . S
C3940 C3936 1.368 . S
C3940 C3939 1.523 . S
H3941 C3916 0.950 . S
H3942 C3918 0.950 . S
H3943 C3919 0.949 . S
H3944 C3921 0.950 . S
H3945 C3923 0.950 . S
C3946 C3947 1.349 . S
C3946 C3948 1.327 . S
C3946 H3971 0.950 . S
C3947 C3946 1.349 . S
C3947 C3963 1.349 . S
C3948 C3946 1.327 . S
C3948 C3967 1.429 . S
C3948 H3972 0.950 . S
C3949 C3966 1.574 . S
C3949 C3968 1.368 . S
C3949 H3973 0.949 . S
H3950 C3954 0.949 . S
C3951 C3952 1.349 . S
C3951 C3953 1.327 . S
C3951 H3974 0.950 . S
C3952 C3951 1.349 . S
C3952 C3964 1.349 . S
C3953 C3951 1.327 . S
C3953 C3969 1.429 . S
C3953 H3975 0.950 . S
C3954 H3950 0.949 . S
C3954 C3962 1.574 . S
C3954 C3970 1.368 . S
H3955 C3963 0.950 . S
H3956 C3961 0.950 . S
H3957 C3962 0.949 . S
H3958 C3964 0.950 . S
H3959 C3965 0.950 . S
H3960 C3966 0.949 . S
C3961 H3956 0.950 . S
C3961 C3963 1.327 . S
C3961 C3967 1.429 . S
C3962 C3954 1.574 . S
C3962 H3957 0.949 . S
C3962 C3968 1.368 . S
C3963 C3947 1.349 . S
C3963 H3955 0.950 . S
C3963 C3961 1.327 . S
C3964 C3952 1.349 . S
C3964 H3958 0.950 . S
C3964 C3965 1.327 . S
C3965 H3959 0.950 . S
C3965 C3964 1.327 . S
C3965 C3969 1.429 . S
C3966 C3949 1.574 . S
C3966 H3960 0.949 . S
C3966 C3970 1.368 . S
C3967 C3948 1.429 . S
C3967 C3961 1.429 . S
C3967 C3968 1.523 . S
C3968 C3949 1.368 . S
C3968 C3962 1.368 . S
C3968 C3967 1.523 . S
C3969 C3953 1.429 . S
C3969 C3965 1.429 . S
C3969 C3970 1.523 . S
C3970 C3954 1.368 . S
C3970 C3966 1.368 . S
C3970 C3969 1.523 . S
H3971 C3946 0.950 . S
H3972 C3948 0.950 . S
H3973 C3949 0.949 . S
H3974 C3951 0.950 . S
H3975 C3953 0.950 . S
C3976 C3977 1.349 . S
C3976 C3978 1.327 . S
C3976 H4001 0.950 . S
C3977 C3976 1.349 . S
C3977 C3993 1.349 . S
C3978 C3976 1.327 . S
C3978 C3997 1.429 . S
C3978 H4002 0.950 . S
C3979 C3996 1.574 . S
C3979 C3998 1.368 . S
C3979 H4003 0.949 . S
H3980 C3984 0.949 . S
C3981 C3982 1.349 . S
C3981 C3983 1.327 . S
C3981 H4004 0.950 . S
C3982 C3981 1.349 . S
C3982 C3994 1.349 . S
C3983 C3981 1.327 . S
C3983 C3999 1.429 . S
C3983 H4005 0.950 . S
C3984 H3980 0.949 . S
C3984 C3992 1.574 . S
C3984 C4000 1.368 . S
H3985 C3993 0.950 . S
H3986 C3991 0.950 . S
H3987 C3992 0.949 . S
H3988 C3994 0.950 . S
H3989 C3995 0.950 . S
H3990 C3996 0.949 . S
C3991 H3986 0.950 . S
C3991 C3993 1.327 . S
C3991 C3997 1.429 . S
C3992 C3984 1.574 . S
C3992 H3987 0.949 . S
C3992 C3998 1.368 . S
C3993 C3977 1.349 . S
C3993 H3985 0.950 . S
C3993 C3991 1.327 . S
C3994 C3982 1.349 . S
C3994 H3988 0.950 . S
C3994 C3995 1.327 . S
C3995 H3989 0.950 . S
C3995 C3994 1.327 . S
C3995 C3999 1.429 . S
C3996 C3979 1.574 . S
C3996 H3990 0.949 . S
C3996 C4000 1.368 . S
C3997 C3978 1.429 . S
C3997 C3991 1.429 . S
C3997 C3998 1.523 . S
C3998 C3979 1.368 . S
C3998 C3992 1.368 . S
C3998 C3997 1.523 . S
C3999 C3983 1.429 . S
C3999 C3995 1.429 . S
C3999 C4000 1.523 . S
C4000 C3984 1.368 . S
C4000 C3996 1.368 . S
C4000 C3999 1.523 . S
H4001 C3976 0.950 . S
H4002 C3978 0.950 . S
H4003 C3979 0.949 . S
H4004 C3981 0.950 . S
H4005 C3983 0.950 . S
C4006 C4007 1.349 . S
C4006 C4008 1.327 . S
C4006 H4031 0.950 . S
C4007 C4006 1.349 . S
C4007 C4023 1.349 . S
C4008 C4006 1.327 . S
C4008 C4027 1.429 . S
C4008 H4032 0.950 . S
C4009 C4026 1.574 . S
C4009 C4028 1.368 . S
C4009 H4033 0.949 . S
H4010 C4014 0.949 . S
C4011 C4012 1.349 . S
C4011 C4013 1.327 . S
C4011 H4034 0.950 . S
C4012 C4011 1.349 . S
C4012 C4024 1.349 . S
C4013 C4011 1.327 . S
C4013 C4029 1.429 . S
C4013 H4035 0.950 . S
C4014 H4010 0.949 . S
C4014 C4022 1.574 . S
C4014 C4030 1.368 . S
H4015 C4023 0.950 . S
H4016 C4021 0.950 . S
H4017 C4022 0.949 . S
H4018 C4024 0.950 . S
H4019 C4025 0.950 . S
H4020 C4026 0.949 . S
C4021 H4016 0.950 . S
C4021 C4023 1.327 . S
C4021 C4027 1.429 . S
C4022 C4014 1.574 . S
C4022 H4017 0.949 . S
C4022 C4028 1.368 . S
C4023 C4007 1.349 . S
C4023 H4015 0.950 . S
C4023 C4021 1.327 . S
C4024 C4012 1.349 . S
C4024 H4018 0.950 . S
C4024 C4025 1.327 . S
C4025 H4019 0.950 . S
C4025 C4024 1.327 . S
C4025 C4029 1.429 . S
C4026 C4009 1.574 . S
C4026 H4020 0.949 . S
C4026 C4030 1.368 . S
C4027 C4008 1.429 . S
C4027 C4021 1.429 . S
C4027 C4028 1.523 . S
C4028 C4009 1.368 . S
C4028 C4022 1.368 . S
C4028 C4027 1.523 . S
C4029 C4013 1.429 . S
C4029 C4025 1.429 . S
C4029 C4030 1.523 . S
C4030 C4014 1.368 . S
C4030 C4026 1.368 . S
C4030 C4029 1.523 . S
H4031 C4006 0.950 . S
H4032 C4008 0.950 . S
H4033 C4009 0.949 . S
H4034 C4011 0.950 . S
H4035 C4013 0.950 . S
C4036 C4037 1.349 . S
C4036 C4038 1.327 . S
C4036 H4061 0.950 . S
C4037 C4036 1.349 . S
C4037 C4053 1.349 . S
C4038 C4036 1.327 . S
C4038 C4057 1.429 . S
C4038 H4062 0.950 . S
C4039 C4056 1.574 . S
C4039 C4058 1.368 . S
C4039 H4063 0.949 . S
H4040 C4044 0.949 . S
C4041 C4042 1.349 . S
C4041 C4043 1.327 . S
C4041 H4064 0.950 . S
C4042 C4041 1.349 . S
C4042 C4054 1.349 . S
C4043 C4041 1.327 . S
C4043 C4059 1.429 . S
C4043 H4065 0.950 . S
C4044 H4040 0.949 . S
C4044 C4052 1.574 . S
C4044 C4060 1.368 . S
H4045 C4053 0.950 . S
H4046 C4051 0.950 . S
H4047 C4052 0.949 . S
H4048 C4054 0.950 . S
H4049 C4055 0.950 . S
H4050 C4056 0.949 . S
C4051 H4046 0.950 . S
C4051 C4053 1.327 . S
C4051 C4057 1.429 . S
C4052 C4044 1.574 . S
C4052 H4047 0.949 . S
C4052 C4058 1.368 . S
C4053 C4037 1.349 . S
C4053 H4045 0.950 . S
C4053 C4051 1.327 . S
C4054 C4042 1.349 . S
C4054 H4048 0.950 . S
C4054 C4055 1.327 . S
C4055 H4049 0.950 . S
C4055 C4054 1.327 . S
C4055 C4059 1.429 . S
C4056 C4039 1.574 . S
C4056 H4050 0.949 . S
C4056 C4060 1.368 . S
C4057 C4038 1.429 . S
C4057 C4051 1.429 . S
C4057 C4058 1.523 . S
C4058 C4039 1.368 . S
C4058 C4052 1.368 . S
C4058 C4057 1.523 . S
C4059 C4043 1.429 . S
C4059 C4055 1.429 . S
C4059 C4060 1.523 . S
C4060 C4044 1.368 . S
C4060 C4056 1.368 . S
C4060 C4059 1.523 . S
H4061 C4036 0.950 . S
H4062 C4038 0.950 . S
H4063 C4039 0.949 . S
H4064 C4041 0.950 . S
H4065 C4043 0.950 . S
C4066 C4067 1.349 . S
C4066 C4068 1.327 . S
C4066 H4091 0.950 . S
C4067 C4066 1.349 . S
C4067 C4083 1.349 . S
C4068 C4066 1.327 . S
C4068 C4087 1.429 . S
C4068 H4092 0.950 . S
C4069 C4086 1.574 . S
C4069 C4088 1.368 . S
C4069 H4093 0.949 . S
H4070 C4074 0.949 . S
C4071 C4072 1.349 . S
C4071 C4073 1.327 . S
C4071 H4094 0.950 . S
C4072 C4071 1.349 . S
C4072 C4084 1.349 . S
C4073 C4071 1.327 . S
C4073 C4089 1.429 . S
C4073 H4095 0.950 . S
C4074 H4070 0.949 . S
C4074 C4082 1.574 . S
C4074 C4090 1.368 . S
H4075 C4083 0.950 . S
H4076 C4081 0.950 . S
H4077 C4082 0.949 . S
H4078 C4084 0.950 . S
H4079 C4085 0.950 . S
H4080 C4086 0.949 . S
C4081 H4076 0.950 . S
C4081 C4083 1.327 . S
C4081 C4087 1.429 . S
C4082 C4074 1.574 . S
C4082 H4077 0.949 . S
C4082 C4088 1.368 . S
C4083 C4067 1.349 . S
C4083 H4075 0.950 . S
C4083 C4081 1.327 . S
C4084 C4072 1.349 . S
C4084 H4078 0.950 . S
C4084 C4085 1.327 . S
C4085 H4079 0.950 . S
C4085 C4084 1.327 . S
C4085 C4089 1.429 . S
C4086 C4069 1.574 . S
C4086 H4080 0.949 . S
C4086 C4090 1.368 . S
C4087 C4068 1.429 . S
C4087 C4081 1.429 . S
C4087 C4088 1.523 . S
C4088 C4069 1.368 . S
C4088 C4082 1.368 . S
C4088 C4087 1.523 . S
C4089 C4073 1.429 . S
C4089 C4085 1.429 . S
C4089 C4090 1.523 . S
C4090 C4074 1.368 . S
C4090 C4086 1.368 . S
C4090 C4089 1.523 . S
H4091 C4066 0.950 . S
H4092 C4068 0.950 . S
H4093 C4069 0.949 . S
H4094 C4071 0.950 . S
H4095 C4073 0.950 . S
C4096 C4097 1.349 1_454 S
C4096 C4098 1.327 . S
C4096 H4121 0.950 . S
C4097 C4096 1.349 1_656 S
C4097 C4113 1.349 . S
C4098 C4096 1.327 . S
C4098 C4117 1.388 1_454 S
C4098 H4122 0.950 . S
C4099 C4116 1.574 . S
C4099 C4118 1.386 . S
C4099 H4123 0.949 . S
H4100 C4104 0.949 . S
C4101 C4102 1.349 1_656 S
C4101 C4103 1.327 . S
C4101 H4124 0.950 . S
C4102 C4101 1.349 1_454 S
C4102 C4114 1.349 . S
C4103 C4101 1.327 . S
C4103 C4119 1.388 1_656 S
C4103 H4125 0.950 . S
C4104 H4100 0.949 . S
C4104 C4112 1.574 . S
C4104 C4120 1.386 . S
H4105 C4113 0.950 . S
H4106 C4111 0.950 . S
H4107 C4112 0.949 . S
H4108 C4114 0.950 . S
H4109 C4115 0.950 . S
H4110 C4116 0.949 . S
C4111 H4106 0.950 . S
C4111 C4113 1.327 . S
C4111 C4117 1.473 . S
C4112 C4104 1.574 . S
C4112 H4107 0.949 . S
C4112 C4118 1.350 1_454 S
C4113 C4097 1.349 . S
C4113 H4105 0.950 . S
C4113 C4111 1.327 . S
C4114 C4102 1.349 . S
C4114 H4108 0.950 . S
C4114 C4115 1.327 . S
C4115 H4109 0.950 . S
C4115 C4114 1.327 . S
C4115 C4119 1.473 . S
C4116 C4099 1.574 . S
C4116 H4110 0.949 . S
C4116 C4120 1.350 1_656 S
C4117 C4098 1.388 1_656 S
C4117 C4111 1.473 . S
C4117 C4118 1.522 . S
C4118 C4099 1.386 . S
C4118 C4112 1.350 1_656 S
C4118 C4117 1.522 . S
C4119 C4103 1.388 1_454 S
C4119 C4115 1.473 . S
C4119 C4120 1.522 . S
C4120 C4104 1.386 . S
C4120 C4116 1.350 1_454 S
C4120 C4119 1.522 . S
H4121 C4096 0.950 . S
H4122 C4098 0.950 . S
H4123 C4099 0.949 . S
H4124 C4101 0.950 . S
H4125 C4103 0.950 . S
C4126 C4127 1.349 1_556 S
C4126 C4128 1.327 . S
C4126 H4151 0.950 . S
C4127 C4126 1.349 1_554 S
C4127 C4143 1.349 . S
C4128 C4126 1.327 . S
C4128 C4147 1.429 1_556 S
C4128 H4152 0.950 . S
C4129 C4146 1.574 . S
C4129 C4148 1.368 . S
C4129 H4153 0.949 . S
H4130 C4134 0.949 . S
C4131 C4132 1.349 1_554 S
C4131 C4133 1.327 . S
C4131 H4154 0.950 . S
C4132 C4131 1.349 1_556 S
C4132 C4144 1.349 . S
C4133 C4131 1.327 . S
C4133 C4149 1.429 1_554 S
C4133 H4155 0.950 . S
C4134 H4130 0.949 . S
C4134 C4142 1.574 . S
C4134 C4150 1.368 . S
H4135 C4143 0.950 . S
H4136 C4141 0.950 . S
H4137 C4142 0.949 . S
H4138 C4144 0.950 . S
H4139 C4145 0.950 . S
H4140 C4146 0.949 . S
C4141 H4136 0.950 . S
C4141 C4143 1.327 . S
C4141 C4147 1.429 . S
C4142 C4134 1.574 . S
C4142 H4137 0.949 . S
C4142 C4148 1.368 1_556 S
C4143 C4127 1.349 . S
C4143 H4135 0.950 . S
C4143 C4141 1.327 . S
C4144 C4132 1.349 . S
C4144 H4138 0.950 . S
C4144 C4145 1.327 . S
C4145 H4139 0.950 . S
C4145 C4144 1.327 . S
C4145 C4149 1.429 . S
C4146 C4129 1.574 . S
C4146 H4140 0.949 . S
C4146 C4150 1.368 1_554 S
C4147 C4128 1.429 1_554 S
C4147 C4141 1.429 . S
C4147 C4148 1.523 . S
C4148 C4129 1.368 . S
C4148 C4142 1.368 1_554 S
C4148 C4147 1.523 . S
C4149 C4133 1.429 1_556 S
C4149 C4145 1.429 . S
C4149 C4150 1.523 . S
C4150 C4134 1.368 . S
C4150 C4146 1.368 1_556 S
C4150 C4149 1.523 . S
H4151 C4126 0.950 . S
H4152 C4128 0.950 . S
H4153 C4129 0.949 . S
H4154 C4131 0.950 . S
H4155 C4133 0.950 . S
C4156 C4157 1.349 . S
C4156 C4158 1.327 . S
C4156 H4181 0.950 . S
C4157 C4156 1.349 . S
C4157 C4173 1.349 1_455 S
C4158 C4156 1.327 . S
C4158 C4177 1.470 . S
C4158 H4182 0.950 . S
C4159 C4176 1.574 . S
C4159 C4178 1.352 1_655 S
C4159 H4183 0.949 . S
H4160 C4164 0.949 . S
C4161 C4162 1.349 . S
C4161 C4163 1.327 . S
C4161 H4184 0.950 . S
C4162 C4161 1.349 . S
C4162 C4174 1.349 1_655 S
C4163 C4161 1.327 . S
C4163 C4179 1.470 . S
C4163 H4185 0.950 . S
C4164 H4160 0.949 . S
C4164 C4172 1.574 . S
C4164 C4180 1.352 1_455 S
H4165 C4173 0.950 . S
H4166 C4171 0.950 . S
H4167 C4172 0.949 . S
H4168 C4174 0.950 . S
H4169 C4175 0.950 . S
H4170 C4176 0.949 . S
C4171 H4166 0.950 . S
C4171 C4173 1.327 . S
C4171 C4177 1.392 1_655 S
C4172 C4164 1.574 . S
C4172 H4167 0.949 . S
C4172 C4178 1.384 . S
C4173 C4157 1.349 1_655 S
C4173 H4165 0.950 . S
C4173 C4171 1.327 . S
C4174 C4162 1.349 1_455 S
C4174 H4168 0.950 . S
C4174 C4175 1.327 . S
C4175 H4169 0.950 . S
C4175 C4174 1.327 . S
C4175 C4179 1.392 1_455 S
C4176 C4159 1.574 . S
C4176 H4170 0.949 . S
C4176 C4180 1.385 . S
C4177 C4158 1.470 . S
C4177 C4171 1.392 1_455 S
C4177 C4178 1.522 . S
C4178 C4159 1.352 1_455 S
C4178 C4172 1.384 . S
C4178 C4177 1.522 . S
C4179 C4163 1.470 . S
C4179 C4175 1.392 1_655 S
C4179 C4180 1.522 . S
C4180 C4164 1.352 1_655 S
C4180 C4176 1.385 . S
C4180 C4179 1.522 . S
H4181 C4156 0.950 . S
H4182 C4158 0.950 . S
H4183 C4159 0.949 . S
H4184 C4161 0.950 . S
H4185 C4163 0.950 . S
C4186 C4187 1.349 . S
C4186 C4188 1.327 . S
C4186 H4211 0.950 . S
C4187 C4186 1.349 . S
C4187 C4203 1.349 . S
C4188 C4186 1.327 . S
C4188 C4207 1.429 . S
C4188 H4212 0.950 . S
C4189 C4206 1.574 . S
C4189 C4208 1.368 . S
C4189 H4213 0.949 . S
H4190 C4194 0.949 . S
C4191 C4192 1.349 . S
C4191 C4193 1.327 . S
C4191 H4214 0.950 . S
C4192 C4191 1.349 . S
C4192 C4204 1.349 . S
C4193 C4191 1.327 . S
C4193 C4209 1.429 . S
C4193 H4215 0.950 . S
C4194 H4190 0.949 . S
C4194 C4202 1.574 . S
C4194 C4210 1.368 . S
H4195 C4203 0.950 . S
H4196 C4201 0.950 . S
H4197 C4202 0.949 . S
H4198 C4204 0.950 . S
H4199 C4205 0.950 . S
H4200 C4206 0.949 . S
C4201 H4196 0.950 . S
C4201 C4203 1.327 . S
C4201 C4207 1.429 . S
C4202 C4194 1.574 . S
C4202 H4197 0.949 . S
C4202 C4208 1.368 . S
C4203 C4187 1.349 . S
C4203 H4195 0.950 . S
C4203 C4201 1.327 . S
C4204 C4192 1.349 . S
C4204 H4198 0.950 . S
C4204 C4205 1.327 . S
C4205 H4199 0.950 . S
C4205 C4204 1.327 . S
C4205 C4209 1.429 . S
C4206 C4189 1.574 . S
C4206 H4200 0.949 . S
C4206 C4210 1.368 . S
C4207 C4188 1.429 . S
C4207 C4201 1.429 . S
C4207 C4208 1.523 . S
C4208 C4189 1.368 . S
C4208 C4202 1.368 . S
C4208 C4207 1.523 . S
C4209 C4193 1.429 . S
C4209 C4205 1.429 . S
C4209 C4210 1.523 . S
C4210 C4194 1.368 . S
C4210 C4206 1.368 . S
C4210 C4209 1.523 . S
H4211 C4186 0.950 . S
H4212 C4188 0.950 . S
H4213 C4189 0.949 . S
H4214 C4191 0.950 . S
H4215 C4193 0.950 . S
C4216 C4217 1.349 1_554 S
C4216 C4218 1.327 . S
C4216 H4241 0.950 . S
C4217 C4216 1.349 1_556 S
C4217 C4233 1.349 . S
C4218 C4216 1.327 . S
C4218 C4237 1.429 1_554 S
C4218 H4242 0.950 . S
C4219 C4236 1.574 . S
C4219 C4238 1.368 . S
C4219 H4243 0.949 . S
H4220 C4224 0.949 . S
C4221 C4222 1.349 1_556 S
C4221 C4223 1.327 . S
C4221 H4244 0.950 . S
C4222 C4221 1.349 1_554 S
C4222 C4234 1.349 . S
C4223 C4221 1.327 . S
C4223 C4239 1.429 1_556 S
C4223 H4245 0.950 . S
C4224 H4220 0.949 . S
C4224 C4232 1.574 . S
C4224 C4240 1.368 . S
H4225 C4233 0.950 . S
H4226 C4231 0.950 . S
H4227 C4232 0.949 . S
H4228 C4234 0.950 . S
H4229 C4235 0.950 . S
H4230 C4236 0.949 . S
C4231 H4226 0.950 . S
C4231 C4233 1.327 . S
C4231 C4237 1.429 . S
C4232 C4224 1.574 . S
C4232 H4227 0.949 . S
C4232 C4238 1.368 1_554 S
C4233 C4217 1.349 . S
C4233 H4225 0.950 . S
C4233 C4231 1.327 . S
C4234 C4222 1.349 . S
C4234 H4228 0.950 . S
C4234 C4235 1.327 . S
C4235 H4229 0.950 . S
C4235 C4234 1.327 . S
C4235 C4239 1.429 . S
C4236 C4219 1.574 . S
C4236 H4230 0.949 . S
C4236 C4240 1.368 1_556 S
C4237 C4218 1.429 1_556 S
C4237 C4231 1.429 . S
C4237 C4238 1.523 . S
C4238 C4219 1.368 . S
C4238 C4232 1.368 1_556 S
C4238 C4237 1.523 . S
C4239 C4223 1.429 1_554 S
C4239 C4235 1.429 . S
C4239 C4240 1.523 . S
C4240 C4224 1.368 . S
C4240 C4236 1.368 1_554 S
C4240 C4239 1.523 . S
H4241 C4216 0.950 . S
H4242 C4218 0.950 . S
H4243 C4219 0.949 . S
H4244 C4221 0.950 . S
H4245 C4223 0.950 . S
C4246 C4247 1.349 . S
C4246 C4248 1.327 . S
C4246 H4271 0.950 . S
C4247 C4246 1.349 . S
C4247 C4263 1.349 1_655 S
C4248 C4246 1.327 . S
C4248 C4267 1.461 . S
C4248 H4272 0.950 . S
C4249 C4266 1.574 . S
C4249 C4268 1.356 1_455 S
C4249 H4273 0.949 . S
H4250 C4254 0.949 . S
C4251 C4252 1.349 . S
C4251 C4253 1.327 . S
C4251 H4274 0.950 . S
C4252 C4251 1.349 . S
C4252 C4264 1.349 1_455 S
C4253 C4251 1.327 . S
C4253 C4269 1.461 . S
C4253 H4275 0.950 . S
C4254 H4250 0.949 . S
C4254 C4262 1.574 . S
C4254 C4270 1.355 1_655 S
H4255 C4263 0.950 . S
H4256 C4261 0.950 . S
H4257 C4262 0.949 . S
H4258 C4264 0.950 . S
H4259 C4265 0.950 . S
H4260 C4266 0.949 . S
C4261 H4256 0.950 . S
C4261 C4263 1.327 . S
C4261 C4267 1.401 1_455 S
C4262 C4254 1.574 . S
C4262 H4257 0.949 . S
C4262 C4268 1.381 . S
C4263 C4247 1.349 1_455 S
C4263 H4255 0.950 . S
C4263 C4261 1.327 . S
C4264 C4252 1.349 1_655 S
C4264 H4258 0.950 . S
C4264 C4265 1.327 . S
C4265 H4259 0.950 . S
C4265 C4264 1.327 . S
C4265 C4269 1.401 1_655 S
C4266 C4249 1.574 . S
C4266 H4260 0.949 . S
C4266 C4270 1.381 . S
C4267 C4248 1.461 . S
C4267 C4261 1.401 1_655 S
C4267 C4268 1.522 . S
C4268 C4249 1.356 1_655 S
C4268 C4262 1.381 . S
C4268 C4267 1.522 . S
C4269 C4253 1.461 . S
C4269 C4265 1.401 1_455 S
C4269 C4270 1.522 . S
C4270 C4254 1.355 1_455 S
C4270 C4266 1.381 . S
C4270 C4269 1.522 . S
H4271 C4246 0.950 . S
H4272 C4248 0.950 . S
H4273 C4249 0.949 . S
H4274 C4251 0.950 . S
H4275 C4253 0.950 . S
C4276 C4277 1.349 . S
C4276 C4278 1.327 . S
C4276 H4301 0.950 . S
C4277 C4276 1.349 . S
C4277 C4293 1.349 . S
C4278 C4276 1.327 . S
C4278 C4297 1.429 . S
C4278 H4302 0.950 . S
C4279 C4296 1.574 . S
C4279 C4298 1.368 . S
C4279 H4303 0.949 . S
H4280 C4284 0.949 . S
C4281 C4282 1.349 . S
C4281 C4283 1.327 . S
C4281 H4304 0.950 . S
C4282 C4281 1.349 . S
C4282 C4294 1.349 . S
C4283 C4281 1.327 . S
C4283 C4299 1.429 . S
C4283 H4305 0.950 . S
C4284 H4280 0.949 . S
C4284 C4292 1.574 . S
C4284 C4300 1.368 . S
H4285 C4293 0.950 . S
H4286 C4291 0.950 . S
H4287 C4292 0.949 . S
H4288 C4294 0.950 . S
H4289 C4295 0.950 . S
H4290 C4296 0.949 . S
C4291 H4286 0.950 . S
C4291 C4293 1.327 . S
C4291 C4297 1.429 . S
C4292 C4284 1.574 . S
C4292 H4287 0.949 . S
C4292 C4298 1.368 . S
C4293 C4277 1.349 . S
C4293 H4285 0.950 . S
C4293 C4291 1.327 . S
C4294 C4282 1.349 . S
C4294 H4288 0.950 . S
C4294 C4295 1.327 . S
C4295 H4289 0.950 . S
C4295 C4294 1.327 . S
C4295 C4299 1.429 . S
C4296 C4279 1.574 . S
C4296 H4290 0.949 . S
C4296 C4300 1.368 . S
C4297 C4278 1.429 . S
C4297 C4291 1.429 . S
C4297 C4298 1.523 . S
C4298 C4279 1.368 . S
C4298 C4292 1.368 . S
C4298 C4297 1.523 . S
C4299 C4283 1.429 . S
C4299 C4295 1.429 . S
C4299 C4300 1.523 . S
C4300 C4284 1.368 . S
C4300 C4296 1.368 . S
C4300 C4299 1.523 . S
H4301 C4276 0.950 . S
H4302 C4278 0.950 . S
H4303 C4279 0.949 . S
H4304 C4281 0.950 . S
H4305 C4283 0.950 . S
C4306 C4307 1.349 1_655 S
C4306 C4308 1.327 . S
C4306 H4331 0.950 . S
C4307 C4306 1.349 1_455 S
C4307 C4323 1.349 . S
C4308 C4306 1.327 . S
C4308 C4327 1.395 1_655 S
C4308 H4332 0.950 . S
C4309 C4326 1.574 1_545 S
C4309 C4328 1.384 . S
C4309 H4333 0.949 . S
H4310 C4314 0.949 . S
C4311 C4312 1.349 1_455 S
C4311 C4313 1.327 . S
C4311 H4334 0.950 . S
C4312 C4311 1.349 1_655 S
C4312 C4324 1.349 . S
C4313 C4311 1.327 . S
C4313 C4329 1.395 1_455 S
C4313 H4335 0.950 . S
C4314 H4310 0.949 . S
C4314 C4322 1.574 1_565 S
C4314 C4330 1.384 . S
H4315 C4323 0.950 . S
H4316 C4321 0.950 . S
H4317 C4322 0.949 . S
H4318 C4324 0.950 . S
H4319 C4325 0.950 . S
H4320 C4326 0.949 . S
C4321 H4316 0.950 . S
C4321 C4323 1.327 . S
C4321 C4327 1.467 . S
C4322 C4314 1.574 1_545 S
C4322 H4317 0.949 . S
C4322 C4328 1.353 1_655 S
C4323 C4307 1.349 . S
C4323 H4315 0.950 . S
C4323 C4321 1.327 . S
C4324 C4312 1.349 . S
C4324 H4318 0.950 . S
C4324 C4325 1.327 . S
C4325 H4319 0.950 . S
C4325 C4324 1.327 . S
C4325 C4329 1.467 . S
C4326 C4309 1.574 1_565 S
C4326 H4320 0.949 . S
C4326 C4330 1.353 1_455 S
C4327 C4308 1.395 1_455 S
C4327 C4321 1.467 . S
C4327 C4328 1.522 . S
C4328 C4309 1.384 . S
C4328 C4322 1.353 1_455 S
C4328 C4327 1.522 . S
C4329 C4313 1.395 1_655 S
C4329 C4325 1.467 . S
C4329 C4330 1.522 . S
C4330 C4314 1.384 . S
C4330 C4326 1.353 1_655 S
C4330 C4329 1.522 . S
H4331 C4306 0.950 . S
H4332 C4308 0.950 . S
H4333 C4309 0.949 . S
H4334 C4311 0.950 . S
H4335 C4313 0.950 . S
C4336 C4337 1.349 . S
C4336 C4338 1.327 . S
C4336 H4361 0.950 . S
C4337 C4336 1.349 . S
C4337 C4353 1.349 . S
C4338 C4336 1.327 . S
C4338 C4357 1.429 . S
C4338 H4362 0.950 . S
C4339 C4356 1.574 . S
C4339 C4358 1.368 . S
C4339 H4363 0.949 . S
H4340 C4344 0.949 . S
C4341 C4342 1.349 . S
C4341 C4343 1.327 . S
C4341 H4364 0.950 . S
C4342 C4341 1.349 . S
C4342 C4354 1.349 . S
C4343 C4341 1.327 . S
C4343 C4359 1.429 . S
C4343 H4365 0.950 . S
C4344 H4340 0.949 . S
C4344 C4352 1.574 . S
C4344 C4360 1.368 . S
H4345 C4353 0.950 . S
H4346 C4351 0.950 . S
H4347 C4352 0.949 . S
H4348 C4354 0.950 . S
H4349 C4355 0.950 . S
H4350 C4356 0.949 . S
C4351 H4346 0.950 . S
C4351 C4353 1.327 . S
C4351 C4357 1.429 . S
C4352 C4344 1.574 . S
C4352 H4347 0.949 . S
C4352 C4358 1.368 . S
C4353 C4337 1.349 . S
C4353 H4345 0.950 . S
C4353 C4351 1.327 . S
C4354 C4342 1.349 . S
C4354 H4348 0.950 . S
C4354 C4355 1.327 . S
C4355 H4349 0.950 . S
C4355 C4354 1.327 . S
C4355 C4359 1.429 . S
C4356 C4339 1.574 . S
C4356 H4350 0.949 . S
C4356 C4360 1.368 . S
C4357 C4338 1.429 . S
C4357 C4351 1.429 . S
C4357 C4358 1.523 . S
C4358 C4339 1.368 . S
C4358 C4352 1.368 . S
C4358 C4357 1.523 . S
C4359 C4343 1.429 . S
C4359 C4355 1.429 . S
C4359 C4360 1.523 . S
C4360 C4344 1.368 . S
C4360 C4356 1.368 . S
C4360 C4359 1.523 . S
H4361 C4336 0.950 . S
H4362 C4338 0.950 . S
H4363 C4339 0.949 . S
H4364 C4341 0.950 . S
H4365 C4343 0.950 . S
C4366 C4367 1.349 . S
C4366 C4368 1.327 . S
C4366 H4391 0.950 . S
C4367 C4366 1.349 . S
C4367 C4383 1.349 . S
C4368 C4366 1.327 . S
C4368 C4387 1.429 . S
C4368 H4392 0.950 . S
C4369 C4386 1.574 1_565 S
C4369 C4388 1.368 . S
C4369 H4393 0.949 . S
H4370 C4374 0.949 . S
C4371 C4372 1.349 . S
C4371 C4373 1.327 . S
C4371 H4394 0.950 . S
C4372 C4371 1.349 . S
C4372 C4384 1.349 . S
C4373 C4371 1.327 . S
C4373 C4389 1.429 . S
C4373 H4395 0.950 . S
C4374 H4370 0.949 . S
C4374 C4382 1.574 1_545 S
C4374 C4390 1.368 . S
H4375 C4383 0.950 . S
H4376 C4381 0.950 . S
H4377 C4382 0.949 . S
H4378 C4384 0.950 . S
H4379 C4385 0.950 . S
H4380 C4386 0.949 . S
C4381 H4376 0.950 . S
C4381 C4383 1.327 . S
C4381 C4387 1.429 . S
C4382 C4374 1.574 1_565 S
C4382 H4377 0.949 . S
C4382 C4388 1.368 . S
C4383 C4367 1.349 . S
C4383 H4375 0.950 . S
C4383 C4381 1.327 . S
C4384 C4372 1.349 . S
C4384 H4378 0.950 . S
C4384 C4385 1.327 . S
C4385 H4379 0.950 . S
C4385 C4384 1.327 . S
C4385 C4389 1.429 . S
C4386 C4369 1.574 1_545 S
C4386 H4380 0.949 . S
C4386 C4390 1.368 . S
C4387 C4368 1.429 . S
C4387 C4381 1.429 . S
C4387 C4388 1.523 . S
C4388 C4369 1.368 . S
C4388 C4382 1.368 . S
C4388 C4387 1.523 . S
C4389 C4373 1.429 . S
C4389 C4385 1.429 . S
C4389 C4390 1.523 . S
C4390 C4374 1.368 . S
C4390 C4386 1.368 . S
C4390 C4389 1.523 . S
H4391 C4366 0.950 . S
H4392 C4368 0.950 . S
H4393 C4369 0.949 . S
H4394 C4371 0.950 . S
H4395 C4373 0.950 . S
C4396 C4397 1.349 . S
C4396 C4398 1.327 . S
C4396 H4421 0.950 . S
C4397 C4396 1.349 . S
C4397 C4413 1.349 . S
C4398 C4396 1.327 . S
C4398 C4417 1.429 . S
C4398 H4422 0.950 . S
C4399 C4416 1.574 . S
C4399 C4418 1.368 . S
C4399 H4423 0.949 . S
H4400 C4404 0.949 . S
C4401 C4402 1.349 . S
C4401 C4403 1.327 . S
C4401 H4424 0.950 . S
C4402 C4401 1.349 . S
C4402 C4414 1.349 . S
C4403 C4401 1.327 . S
C4403 C4419 1.429 . S
C4403 H4425 0.950 . S
C4404 H4400 0.949 . S
C4404 C4412 1.574 . S
C4404 C4420 1.368 . S
H4405 C4413 0.950 . S
H4406 C4411 0.950 . S
H4407 C4412 0.949 . S
H4408 C4414 0.950 . S
H4409 C4415 0.950 . S
H4410 C4416 0.949 . S
C4411 H4406 0.950 . S
C4411 C4413 1.327 . S
C4411 C4417 1.429 . S
C4412 C4404 1.574 . S
C4412 H4407 0.949 . S
C4412 C4418 1.368 . S
C4413 C4397 1.349 . S
C4413 H4405 0.950 . S
C4413 C4411 1.327 . S
C4414 C4402 1.349 . S
C4414 H4408 0.950 . S
C4414 C4415 1.327 . S
C4415 H4409 0.950 . S
C4415 C4414 1.327 . S
C4415 C4419 1.429 . S
C4416 C4399 1.574 . S
C4416 H4410 0.949 . S
C4416 C4420 1.368 . S
C4417 C4398 1.429 . S
C4417 C4411 1.429 . S
C4417 C4418 1.523 . S
C4418 C4399 1.368 . S
C4418 C4412 1.368 . S
C4418 C4417 1.523 . S
C4419 C4403 1.429 . S
C4419 C4415 1.429 . S
C4419 C4420 1.523 . S
C4420 C4404 1.368 . S
C4420 C4416 1.368 . S
C4420 C4419 1.523 . S
H4421 C4396 0.950 . S
H4422 C4398 0.950 . S
H4423 C4399 0.949 . S
H4424 C4401 0.950 . S
H4425 C4403 0.950 . S
C4426 C4427 1.349 . S
C4426 C4428 1.327 . S
C4426 H4451 0.950 . S
C4427 C4426 1.349 . S
C4427 C4443 1.349 . S
C4428 C4426 1.327 . S
C4428 C4447 1.429 . S
C4428 H4452 0.950 . S
C4429 C4446 1.574 1_565 S
C4429 C4448 1.368 . S
C4429 H4453 0.949 . S
H4430 C4434 0.949 . S
C4431 C4432 1.349 . S
C4431 C4433 1.327 . S
C4431 H4454 0.950 . S
C4432 C4431 1.349 . S
C4432 C4444 1.349 . S
C4433 C4431 1.327 . S
C4433 C4449 1.429 . S
C4433 H4455 0.950 . S
C4434 H4430 0.949 . S
C4434 C4442 1.574 1_545 S
C4434 C4450 1.368 . S
H4435 C4443 0.950 . S
H4436 C4441 0.950 . S
H4437 C4442 0.949 . S
H4438 C4444 0.950 . S
H4439 C4445 0.950 . S
H4440 C4446 0.949 . S
C4441 H4436 0.950 . S
C4441 C4443 1.327 . S
C4441 C4447 1.429 . S
C4442 C4434 1.574 1_565 S
C4442 H4437 0.949 . S
C4442 C4448 1.368 . S
C4443 C4427 1.349 . S
C4443 H4435 0.950 . S
C4443 C4441 1.327 . S
C4444 C4432 1.349 . S
C4444 H4438 0.950 . S
C4444 C4445 1.327 . S
C4445 H4439 0.950 . S
C4445 C4444 1.327 . S
C4445 C4449 1.429 . S
C4446 C4429 1.574 1_545 S
C4446 H4440 0.949 . S
C4446 C4450 1.368 . S
C4447 C4428 1.429 . S
C4447 C4441 1.429 . S
C4447 C4448 1.523 . S
C4448 C4429 1.368 . S
C4448 C4442 1.368 . S
C4448 C4447 1.523 . S
C4449 C4433 1.429 . S
C4449 C4445 1.429 . S
C4449 C4450 1.523 . S
C4450 C4434 1.368 . S
C4450 C4446 1.368 . S
C4450 C4449 1.523 . S
H4451 C4426 0.950 . S
H4452 C4428 0.950 . S
H4453 C4429 0.949 . S
H4454 C4431 0.950 . S
H4455 C4433 0.950 . S
C4456 C4457 1.349 . S
C4456 C4458 1.327 . S
C4456 H4481 0.950 . S
C4457 C4456 1.349 . S
C4457 C4473 1.349 . S
C4458 C4456 1.327 . S
C4458 C4477 1.429 . S
C4458 H4482 0.950 . S
C4459 C4476 1.574 . S
C4459 C4478 1.368 . S
C4459 H4483 0.949 . S
H4460 C4464 0.949 . S
C4461 C4462 1.349 . S
C4461 C4463 1.327 . S
C4461 H4484 0.950 . S
C4462 C4461 1.349 . S
C4462 C4474 1.349 . S
C4463 C4461 1.327 . S
C4463 C4479 1.429 . S
C4463 H4485 0.950 . S
C4464 H4460 0.949 . S
C4464 C4472 1.574 . S
C4464 C4480 1.368 . S
H4465 C4473 0.950 . S
H4466 C4471 0.950 . S
H4467 C4472 0.949 . S
H4468 C4474 0.950 . S
H4469 C4475 0.950 . S
H4470 C4476 0.949 . S
C4471 H4466 0.950 . S
C4471 C4473 1.327 . S
C4471 C4477 1.429 . S
C4472 C4464 1.574 . S
C4472 H4467 0.949 . S
C4472 C4478 1.368 . S
C4473 C4457 1.349 . S
C4473 H4465 0.950 . S
C4473 C4471 1.327 . S
C4474 C4462 1.349 . S
C4474 H4468 0.950 . S
C4474 C4475 1.327 . S
C4475 H4469 0.950 . S
C4475 C4474 1.327 . S
C4475 C4479 1.429 . S
C4476 C4459 1.574 . S
C4476 H4470 0.949 . S
C4476 C4480 1.368 . S
C4477 C4458 1.429 . S
C4477 C4471 1.429 . S
C4477 C4478 1.523 . S
C4478 C4459 1.368 . S
C4478 C4472 1.368 . S
C4478 C4477 1.523 . S
C4479 C4463 1.429 . S
C4479 C4475 1.429 . S
C4479 C4480 1.523 . S
C4480 C4464 1.368 . S
C4480 C4476 1.368 . S
C4480 C4479 1.523 . S
H4481 C4456 0.950 . S
H4482 C4458 0.950 . S
H4483 C4459 0.949 . S
H4484 C4461 0.950 . S
H4485 C4463 0.950 . S
C4486 C4487 1.349 . S
C4486 C4488 1.327 . S
C4486 H4511 0.950 . S
C4487 C4486 1.349 . S
C4487 C4503 1.349 . S
C4488 C4486 1.327 . S
C4488 C4507 1.429 . S
C4488 H4512 0.950 . S
C4489 C4506 1.574 . S
C4489 C4508 1.368 . S
C4489 H4513 0.949 . S
H4490 C4494 0.949 . S
C4491 C4492 1.349 . S
C4491 C4493 1.327 . S
C4491 H4514 0.950 . S
C4492 C4491 1.349 . S
C4492 C4504 1.349 . S
C4493 C4491 1.327 . S
C4493 C4509 1.429 . S
C4493 H4515 0.950 . S
C4494 H4490 0.949 . S
C4494 C4502 1.574 . S
C4494 C4510 1.368 . S
H4495 C4503 0.950 . S
H4496 C4501 0.950 . S
H4497 C4502 0.949 . S
H4498 C4504 0.950 . S
H4499 C4505 0.950 . S
H4500 C4506 0.949 . S
C4501 H4496 0.950 . S
C4501 C4503 1.327 . S
C4501 C4507 1.429 . S
C4502 C4494 1.574 . S
C4502 H4497 0.949 . S
C4502 C4508 1.368 . S
C4503 C4487 1.349 . S
C4503 H4495 0.950 . S
C4503 C4501 1.327 . S
C4504 C4492 1.349 . S
C4504 H4498 0.950 . S
C4504 C4505 1.327 . S
C4505 H4499 0.950 . S
C4505 C4504 1.327 . S
C4505 C4509 1.429 . S
C4506 C4489 1.574 . S
C4506 H4500 0.949 . S
C4506 C4510 1.368 . S
C4507 C4488 1.429 . S
C4507 C4501 1.429 . S
C4507 C4508 1.523 . S
C4508 C4489 1.368 . S
C4508 C4502 1.368 . S
C4508 C4507 1.523 . S
C4509 C4493 1.429 . S
C4509 C4505 1.429 . S
C4509 C4510 1.523 . S
C4510 C4494 1.368 . S
C4510 C4506 1.368 . S
C4510 C4509 1.523 . S
H4511 C4486 0.950 . S
H4512 C4488 0.950 . S
H4513 C4489 0.949 . S
H4514 C4491 0.950 . S
H4515 C4493 0.950 . S
C4516 C4517 1.349 . S
C4516 C4518 1.327 . S
C4516 H4541 0.950 . S
C4517 C4516 1.349 . S
C4517 C4533 1.349 . S
C4518 C4516 1.327 . S
C4518 C4537 1.429 . S
C4518 H4542 0.950 . S
C4519 C4536 1.574 . S
C4519 C4538 1.368 . S
C4519 H4543 0.949 . S
H4520 C4524 0.949 . S
C4521 C4522 1.349 . S
C4521 C4523 1.327 . S
C4521 H4544 0.950 . S
C4522 C4521 1.349 . S
C4522 C4534 1.349 . S
C4523 C4521 1.327 . S
C4523 C4539 1.429 . S
C4523 H4545 0.950 . S
C4524 H4520 0.949 . S
C4524 C4532 1.574 . S
C4524 C4540 1.368 . S
H4525 C4533 0.950 . S
H4526 C4531 0.950 . S
H4527 C4532 0.949 . S
H4528 C4534 0.950 . S
H4529 C4535 0.950 . S
H4530 C4536 0.949 . S
C4531 H4526 0.950 . S
C4531 C4533 1.327 . S
C4531 C4537 1.429 . S
C4532 C4524 1.574 . S
C4532 H4527 0.949 . S
C4532 C4538 1.368 . S
C4533 C4517 1.349 . S
C4533 H4525 0.950 . S
C4533 C4531 1.327 . S
C4534 C4522 1.349 . S
C4534 H4528 0.950 . S
C4534 C4535 1.327 . S
C4535 H4529 0.950 . S
C4535 C4534 1.327 . S
C4535 C4539 1.429 . S
C4536 C4519 1.574 . S
C4536 H4530 0.949 . S
C4536 C4540 1.368 . S
C4537 C4518 1.429 . S
C4537 C4531 1.429 . S
C4537 C4538 1.523 . S
C4538 C4519 1.368 . S
C4538 C4532 1.368 . S
C4538 C4537 1.523 . S
C4539 C4523 1.429 . S
C4539 C4535 1.429 . S
C4539 C4540 1.523 . S
C4540 C4524 1.368 . S
C4540 C4536 1.368 . S
C4540 C4539 1.523 . S
H4541 C4516 0.950 . S
H4542 C4518 0.950 . S
H4543 C4519 0.949 . S
H4544 C4521 0.950 . S
H4545 C4523 0.950 . S
C4546 C4547 1.349 . S
C4546 C4548 1.327 . S
C4546 H4571 0.950 . S
C4547 C4546 1.349 . S
C4547 C4563 1.349 1_554 S
C4548 C4546 1.327 . S
C4548 C4567 1.429 . S
C4548 H4572 0.950 . S
C4549 C4566 1.574 1_545 S
C4549 C4568 1.368 1_556 S
C4549 H4573 0.949 . S
H4550 C4554 0.949 . S
C4551 C4552 1.349 . S
C4551 C4553 1.327 . S
C4551 H4574 0.950 . S
C4552 C4551 1.349 . S
C4552 C4564 1.349 1_556 S
C4553 C4551 1.327 . S
C4553 C4569 1.429 . S
C4553 H4575 0.950 . S
C4554 H4550 0.949 . S
C4554 C4562 1.574 1_565 S
C4554 C4570 1.368 1_554 S
H4555 C4563 0.950 . S
H4556 C4561 0.950 . S
H4557 C4562 0.949 . S
H4558 C4564 0.950 . S
H4559 C4565 0.950 . S
H4560 C4566 0.949 . S
C4561 H4556 0.950 . S
C4561 C4563 1.327 . S
C4561 C4567 1.429 1_556 S
C4562 C4554 1.574 1_545 S
C4562 H4557 0.949 . S
C4562 C4568 1.368 . S
C4563 C4547 1.349 1_556 S
C4563 H4555 0.950 . S
C4563 C4561 1.327 . S
C4564 C4552 1.349 1_554 S
C4564 H4558 0.950 . S
C4564 C4565 1.327 . S
C4565 H4559 0.950 . S
C4565 C4564 1.327 . S
C4565 C4569 1.429 1_554 S
C4566 C4549 1.574 1_565 S
C4566 H4560 0.949 . S
C4566 C4570 1.368 . S
C4567 C4548 1.429 . S
C4567 C4561 1.429 1_554 S
C4567 C4568 1.523 . S
C4568 C4549 1.368 1_554 S
C4568 C4562 1.368 . S
C4568 C4567 1.523 . S
C4569 C4553 1.429 . S
C4569 C4565 1.429 1_556 S
C4569 C4570 1.523 . S
C4570 C4554 1.368 1_556 S
C4570 C4566 1.368 . S
C4570 C4569 1.523 . S
H4571 C4546 0.950 . S
H4572 C4548 0.950 . S
H4573 C4549 0.949 . S
H4574 C4551 0.950 . S
H4575 C4553 0.950 . S
C4576 C4577 1.349 . S
C4576 C4578 1.327 . S
C4576 H4601 0.983 . S
C4577 C4576 1.349 . S
C4577 C4593 1.349 . S
C4578 C4576 1.327 . S
C4578 C4597 1.429 . S
C4578 H4602 0.968 . S
C4579 C4596 1.574 . S
C4579 C4598 1.368 . S
C4579 H4603 0.949 . S
H4580 C4584 0.963 . S
C4581 C4582 1.349 . S
C4581 C4583 1.327 . S
C4581 H4604 0.950 . S
C4582 C4581 1.349 . S
C4582 C4594 1.349 . S
C4583 C4581 1.327 . S
C4583 C4599 1.429 . S
C4583 H4605 0.950 . S
C4584 H4580 0.963 . S
C4584 C4592 1.574 . S
C4584 C4600 1.368 . S
H4585 C4593 0.950 . S
H4586 C4591 0.950 . S
H4587 C4592 0.963 . S
H4588 C4594 0.983 . S
H4589 C4595 0.968 . S
H4590 C4596 0.949 . S
C4591 H4586 0.950 . S
C4591 C4593 1.327 . S
C4591 C4597 1.429 . S
C4592 C4584 1.574 . S
C4592 H4587 0.963 . S
C4592 C4598 1.368 . S
C4593 C4577 1.349 . S
C4593 H4585 0.950 . S
C4593 C4591 1.327 . S
C4594 C4582 1.349 . S
C4594 H4588 0.983 . S
C4594 C4595 1.327 . S
C4595 H4589 0.968 . S
C4595 C4594 1.327 . S
C4595 C4599 1.429 . S
C4596 C4579 1.574 . S
C4596 H4590 0.949 . S
C4596 C4600 1.368 . S
C4597 C4578 1.429 . S
C4597 C4591 1.429 . S
C4597 C4598 1.523 . S
C4598 C4579 1.368 . S
C4598 C4592 1.368 . S
C4598 C4597 1.523 . S
C4599 C4583 1.429 . S
C4599 C4595 1.429 . S
C4599 C4600 1.523 . S
C4600 C4584 1.368 . S
C4600 C4596 1.368 . S
C4600 C4599 1.523 . S
H4601 C4576 0.983 . S
H4602 C4578 0.968 . S
H4603 C4579 0.949 . S
H4604 C4581 0.950 . S
H4605 C4583 0.950 . S
C4606 C4607 1.349 . S
C4606 C4608 1.327 . S
C4606 H4631 0.950 . S
C4607 C4606 1.349 . S
C4607 C4623 1.349 . S
C4608 C4606 1.327 . S
C4608 C4627 1.429 . S
C4608 H4632 0.950 . S
C4609 C4626 1.574 . S
C4609 C4628 1.368 . S
C4609 H4633 0.949 . S
H4610 C4614 0.949 . S
C4611 C4612 1.349 . S
C4611 C4613 1.327 . S
C4611 H4634 0.950 . S
C4612 C4611 1.349 . S
C4612 C4624 1.349 . S
C4613 C4611 1.327 . S
C4613 C4629 1.429 . S
C4613 H4635 0.950 . S
C4614 H4610 0.949 . S
C4614 C4622 1.574 . S
C4614 C4630 1.368 . S
H4615 C4623 0.950 . S
H4616 C4621 0.950 . S
H4617 C4622 0.949 . S
H4618 C4624 0.950 . S
H4619 C4625 0.950 . S
H4620 C4626 0.949 . S
C4621 H4616 0.950 . S
C4621 C4623 1.327 . S
C4621 C4627 1.429 . S
C4622 C4614 1.574 . S
C4622 H4617 0.949 . S
C4622 C4628 1.368 . S
C4623 C4607 1.349 . S
C4623 H4615 0.950 . S
C4623 C4621 1.327 . S
C4624 C4612 1.349 . S
C4624 H4618 0.950 . S
C4624 C4625 1.327 . S
C4625 H4619 0.950 . S
C4625 C4624 1.327 . S
C4625 C4629 1.429 . S
C4626 C4609 1.574 . S
C4626 H4620 0.949 . S
C4626 C4630 1.368 . S
C4627 C4608 1.429 . S
C4627 C4621 1.429 . S
C4627 C4628 1.523 . S
C4628 C4609 1.368 . S
C4628 C4622 1.368 . S
C4628 C4627 1.523 . S
C4629 C4613 1.429 . S
C4629 C4625 1.429 . S
C4629 C4630 1.523 . S
C4630 C4614 1.368 . S
C4630 C4626 1.368 . S
C4630 C4629 1.523 . S
H4631 C4606 0.950 . S
H4632 C4608 0.950 . S
H4633 C4609 0.949 . S
H4634 C4611 0.950 . S
H4635 C4613 0.950 . S
C4636 C4637 1.349 . S
C4636 C4638 1.327 . S
C4636 H4661 0.950 1_655 S
C4637 C4636 1.349 . S
C4637 C4653 1.349 . S
C4638 C4636 1.327 . S
C4638 C4657 1.429 . S
C4638 H4662 0.950 1_655 S
C4639 C4656 1.574 . S
C4639 C4658 1.368 . S
C4639 H4663 0.949 . S
H4640 C4644 0.949 1_455 S
C4641 C4642 1.349 . S
C4641 C4643 1.327 . S
C4641 H4664 0.950 . S
C4642 C4641 1.349 . S
C4642 C4654 1.349 . S
C4643 C4641 1.327 . S
C4643 C4659 1.429 . S
C4643 H4665 0.950 . S
C4644 H4640 0.949 1_655 S
C4644 C4652 1.574 . S
C4644 C4660 1.368 . S
H4645 C4653 0.950 . S
H4646 C4651 0.950 . S
H4647 C4652 0.949 1_455 S
H4648 C4654 0.950 1_455 S
H4649 C4655 0.950 1_455 S
H4650 C4656 0.949 . S
C4651 H4646 0.950 . S
C4651 C4653 1.327 . S
C4651 C4657 1.429 . S
C4652 C4644 1.574 . S
C4652 H4647 0.949 1_655 S
C4652 C4658 1.368 . S
C4653 C4637 1.349 . S
C4653 H4645 0.950 . S
C4653 C4651 1.327 . S
C4654 C4642 1.349 . S
C4654 H4648 0.950 1_655 S
C4654 C4655 1.327 . S
C4655 H4649 0.950 1_655 S
C4655 C4654 1.327 . S
C4655 C4659 1.429 . S
C4656 C4639 1.574 . S
C4656 H4650 0.949 . S
C4656 C4660 1.368 . S
C4657 C4638 1.429 . S
C4657 C4651 1.429 . S
C4657 C4658 1.523 . S
C4658 C4639 1.368 . S
C4658 C4652 1.368 . S
C4658 C4657 1.523 . S
C4659 C4643 1.429 . S
C4659 C4655 1.429 . S
C4659 C4660 1.523 . S
C4660 C4644 1.368 . S
C4660 C4656 1.368 . S
C4660 C4659 1.523 . S
H4661 C4636 0.950 1_455 S
H4662 C4638 0.950 1_455 S
H4663 C4639 0.949 . S
H4664 C4641 0.950 . S
H4665 C4643 0.950 . S
C4666 C4667 1.349 . S
C4666 C4668 1.327 . S
C4666 H4691 0.950 . S
C4667 C4666 1.349 . S
C4667 C4683 1.349 . S
C4668 C4666 1.327 . S
C4668 C4687 1.429 . S
C4668 H4692 0.950 . S
C4669 C4686 1.574 . S
C4669 C4688 1.368 . S
C4669 H4693 0.949 . S
H4670 C4674 0.949 . S
C4671 C4672 1.349 . S
C4671 C4673 1.327 . S
C4671 H4694 0.950 . S
C4672 C4671 1.349 . S
C4672 C4684 1.349 . S
C4673 C4671 1.327 . S
C4673 C4689 1.429 . S
C4673 H4695 0.950 . S
C4674 H4670 0.949 . S
C4674 C4682 1.574 . S
C4674 C4690 1.368 . S
H4675 C4683 0.950 . S
H4676 C4681 0.950 . S
H4677 C4682 0.949 . S
H4678 C4684 0.950 . S
H4679 C4685 0.950 . S
H4680 C4686 0.949 . S
C4681 H4676 0.950 . S
C4681 C4683 1.327 . S
C4681 C4687 1.429 . S
C4682 C4674 1.574 . S
C4682 H4677 0.949 . S
C4682 C4688 1.368 . S
C4683 C4667 1.349 . S
C4683 H4675 0.950 . S
C4683 C4681 1.327 . S
C4684 C4672 1.349 . S
C4684 H4678 0.950 . S
C4684 C4685 1.327 . S
C4685 H4679 0.950 . S
C4685 C4684 1.327 . S
C4685 C4689 1.429 . S
C4686 C4669 1.574 . S
C4686 H4680 0.949 . S
C4686 C4690 1.368 . S
C4687 C4668 1.429 . S
C4687 C4681 1.429 . S
C4687 C4688 1.523 . S
C4688 C4669 1.368 . S
C4688 C4682 1.368 . S
C4688 C4687 1.523 . S
C4689 C4673 1.429 . S
C4689 C4685 1.429 . S
C4689 C4690 1.523 . S
C4690 C4674 1.368 . S
C4690 C4686 1.368 . S
C4690 C4689 1.523 . S
H4691 C4666 0.950 . S
H4692 C4668 0.950 . S
H4693 C4669 0.949 . S
H4694 C4671 0.950 . S
H4695 C4673 0.950 . S
C4696 C4697 1.349 . S
C4696 C4698 1.327 . S
C4696 H4721 0.950 . S
C4697 C4696 1.349 . S
C4697 C4713 1.349 . S
C4698 C4696 1.327 . S
C4698 C4717 1.429 . S
C4698 H4722 0.950 . S
C4699 C4716 1.574 . S
C4699 C4718 1.368 . S
C4699 H4723 0.949 . S
H4700 C4704 0.949 . S
C4701 C4702 1.349 . S
C4701 C4703 1.327 . S
C4701 H4724 0.950 . S
C4702 C4701 1.349 . S
C4702 C4714 1.349 . S
C4703 C4701 1.327 . S
C4703 C4719 1.429 . S
C4703 H4725 0.950 . S
C4704 H4700 0.949 . S
C4704 C4712 1.574 . S
C4704 C4720 1.368 . S
H4705 C4713 0.950 . S
H4706 C4711 0.950 . S
H4707 C4712 0.949 . S
H4708 C4714 0.950 . S
H4709 C4715 0.950 . S
H4710 C4716 0.949 . S
C4711 H4706 0.950 . S
C4711 C4713 1.327 . S
C4711 C4717 1.429 . S
C4712 C4704 1.574 . S
C4712 H4707 0.949 . S
C4712 C4718 1.368 . S
C4713 C4697 1.349 . S
C4713 H4705 0.950 . S
C4713 C4711 1.327 . S
C4714 C4702 1.349 . S
C4714 H4708 0.950 . S
C4714 C4715 1.327 . S
C4715 H4709 0.950 . S
C4715 C4714 1.327 . S
C4715 C4719 1.429 . S
C4716 C4699 1.574 . S
C4716 H4710 0.949 . S
C4716 C4720 1.368 . S
C4717 C4698 1.429 . S
C4717 C4711 1.429 . S
C4717 C4718 1.523 . S
C4718 C4699 1.368 . S
C4718 C4712 1.368 . S
C4718 C4717 1.523 . S
C4719 C4703 1.429 . S
C4719 C4715 1.429 . S
C4719 C4720 1.523 . S
C4720 C4704 1.368 . S
C4720 C4716 1.368 . S
C4720 C4719 1.523 . S
H4721 C4696 0.950 . S
H4722 C4698 0.950 . S
H4723 C4699 0.949 . S
H4724 C4701 0.950 . S
H4725 C4703 0.950 . S
C4726 C4727 1.349 . S
C4726 C4728 1.327 . S
C4726 H4751 0.950 . S
C4727 C4726 1.349 . S
C4727 C4743 1.349 . S
C4728 C4726 1.327 . S
C4728 C4747 1.429 . S
C4728 H4752 0.950 . S
C4729 C4746 1.574 . S
C4729 C4748 1.368 . S
C4729 H4753 0.949 . S
H4730 C4734 0.949 . S
C4731 C4732 1.349 . S
C4731 C4733 1.327 . S
C4731 H4754 0.950 . S
C4732 C4731 1.349 . S
C4732 C4744 1.349 . S
C4733 C4731 1.327 . S
C4733 C4749 1.429 . S
C4733 H4755 0.950 . S
C4734 H4730 0.949 . S
C4734 C4742 1.574 . S
C4734 C4750 1.368 . S
H4735 C4743 0.950 . S
H4736 C4741 0.950 . S
H4737 C4742 0.949 . S
H4738 C4744 0.950 . S
H4739 C4745 0.950 . S
H4740 C4746 0.949 . S
C4741 H4736 0.950 . S
C4741 C4743 1.327 . S
C4741 C4747 1.429 . S
C4742 C4734 1.574 . S
C4742 H4737 0.949 . S
C4742 C4748 1.368 . S
C4743 C4727 1.349 . S
C4743 H4735 0.950 . S
C4743 C4741 1.327 . S
C4744 C4732 1.349 . S
C4744 H4738 0.950 . S
C4744 C4745 1.327 . S
C4745 H4739 0.950 . S
C4745 C4744 1.327 . S
C4745 C4749 1.429 . S
C4746 C4729 1.574 . S
C4746 H4740 0.949 . S
C4746 C4750 1.368 . S
C4747 C4728 1.429 . S
C4747 C4741 1.429 . S
C4747 C4748 1.523 . S
C4748 C4729 1.368 . S
C4748 C4742 1.368 . S
C4748 C4747 1.523 . S
C4749 C4733 1.429 . S
C4749 C4745 1.429 . S
C4749 C4750 1.523 . S
C4750 C4734 1.368 . S
C4750 C4746 1.368 . S
C4750 C4749 1.523 . S
H4751 C4726 0.950 . S
H4752 C4728 0.950 . S
H4753 C4729 0.949 . S
H4754 C4731 0.950 . S
H4755 C4733 0.950 . S
C4756 C4757 1.349 . S
C4756 C4758 1.327 . S
C4756 H4781 0.950 . S
C4757 C4756 1.349 . S
C4757 C4773 1.349 . S
C4758 C4756 1.327 . S
C4758 C4777 1.429 . S
C4758 H4782 0.950 . S
C4759 C4776 1.574 . S
C4759 C4778 1.368 . S
C4759 H4783 0.917 1_655 S
H4760 C4764 0.949 . S
C4761 C4762 1.349 . S
C4761 C4763 1.327 . S
C4761 H4784 0.937 1_655 S
C4762 C4761 1.349 . S
C4762 C4774 1.349 . S
C4763 C4761 1.327 . S
C4763 C4779 1.429 . S
C4763 H4785 0.920 1_655 S
C4764 H4760 0.949 . S
C4764 C4772 1.574 . S
C4764 C4780 1.368 . S
H4765 C4773 0.937 1_455 S
H4766 C4771 0.920 1_455 S
H4767 C4772 0.949 . S
H4768 C4774 0.950 . S
H4769 C4775 0.950 . S
H4770 C4776 0.917 1_455 S
C4771 H4766 0.920 1_655 S
C4771 C4773 1.327 . S
C4771 C4777 1.429 . S
C4772 C4764 1.574 . S
C4772 H4767 0.949 . S
C4772 C4778 1.368 . S
C4773 C4757 1.349 . S
C4773 H4765 0.937 1_655 S
C4773 C4771 1.327 . S
C4774 C4762 1.349 . S
C4774 H4768 0.950 . S
C4774 C4775 1.327 . S
C4775 H4769 0.950 . S
C4775 C4774 1.327 . S
C4775 C4779 1.429 . S
C4776 C4759 1.574 . S
C4776 H4770 0.917 1_655 S
C4776 C4780 1.368 . S
C4777 C4758 1.429 . S
C4777 C4771 1.429 . S
C4777 C4778 1.523 . S
C4778 C4759 1.368 . S
C4778 C4772 1.368 . S
C4778 C4777 1.523 . S
C4779 C4763 1.429 . S
C4779 C4775 1.429 . S
C4779 C4780 1.523 . S
C4780 C4764 1.368 . S
C4780 C4776 1.368 . S
C4780 C4779 1.523 . S
H4781 C4756 0.950 . S
H4782 C4758 0.950 . S
H4783 C4759 0.917 1_455 S
H4784 C4761 0.937 1_455 S
H4785 C4763 0.920 1_455 S
C4786 C4787 1.349 . S
C4786 C4788 1.327 . S
C4786 H4811 0.950 . S
C4787 C4786 1.349 . S
C4787 C4803 1.349 . S
C4788 C4786 1.327 . S
C4788 C4807 1.429 . S
C4788 H4812 0.950 . S
C4789 C4806 1.574 . S
C4789 C4808 1.368 . S
C4789 H4813 0.949 . S
H4790 C4794 0.949 . S
C4791 C4792 1.349 . S
C4791 C4793 1.327 . S
C4791 H4814 0.950 . S
C4792 C4791 1.349 . S
C4792 C4804 1.349 . S
C4793 C4791 1.327 . S
C4793 C4809 1.429 . S
C4793 H4815 0.950 . S
C4794 H4790 0.949 . S
C4794 C4802 1.574 . S
C4794 C4810 1.368 . S
H4795 C4803 0.950 . S
H4796 C4801 0.950 . S
H4797 C4802 0.949 . S
H4798 C4804 0.950 . S
H4799 C4805 0.950 . S
H4800 C4806 0.949 . S
C4801 H4796 0.950 . S
C4801 C4803 1.327 . S
C4801 C4807 1.429 . S
C4802 C4794 1.574 . S
C4802 H4797 0.949 . S
C4802 C4808 1.368 . S
C4803 C4787 1.349 . S
C4803 H4795 0.950 . S
C4803 C4801 1.327 . S
C4804 C4792 1.349 . S
C4804 H4798 0.950 . S
C4804 C4805 1.327 . S
C4805 H4799 0.950 . S
C4805 C4804 1.327 . S
C4805 C4809 1.429 . S
C4806 C4789 1.574 . S
C4806 H4800 0.949 . S
C4806 C4810 1.368 . S
C4807 C4788 1.429 . S
C4807 C4801 1.429 . S
C4807 C4808 1.523 . S
C4808 C4789 1.368 . S
C4808 C4802 1.368 . S
C4808 C4807 1.523 . S
C4809 C4793 1.429 . S
C4809 C4805 1.429 . S
C4809 C4810 1.523 . S
C4810 C4794 1.368 . S
C4810 C4806 1.368 . S
C4810 C4809 1.523 . S
H4811 C4786 0.950 . S
H4812 C4788 0.950 . S
H4813 C4789 0.949 . S
H4814 C4791 0.950 . S
H4815 C4793 0.950 . S
C4816 C4817 1.349 . S
C4816 C4818 1.327 . S
C4816 H4841 0.950 . S
C4817 C4816 1.349 . S
C4817 C4833 1.349 . S
C4818 C4816 1.327 . S
C4818 C4837 1.429 . S
C4818 H4842 0.950 . S
C4819 C4836 1.574 . S
C4819 C4838 1.368 . S
C4819 H4843 0.949 . S
H4820 C4824 0.949 . S
C4821 C4822 1.349 . S
C4821 C4823 1.327 . S
C4821 H4844 0.950 . S
C4822 C4821 1.349 . S
C4822 C4834 1.349 . S
C4823 C4821 1.327 . S
C4823 C4839 1.429 . S
C4823 H4845 0.950 . S
C4824 H4820 0.949 . S
C4824 C4832 1.574 . S
C4824 C4840 1.368 . S
H4825 C4833 0.950 . S
H4826 C4831 0.950 . S
H4827 C4832 0.949 . S
H4828 C4834 0.950 . S
H4829 C4835 0.950 . S
H4830 C4836 0.949 . S
C4831 H4826 0.950 . S
C4831 C4833 1.327 . S
C4831 C4837 1.429 . S
C4832 C4824 1.574 . S
C4832 H4827 0.949 . S
C4832 C4838 1.368 . S
C4833 C4817 1.349 . S
C4833 H4825 0.950 . S
C4833 C4831 1.327 . S
C4834 C4822 1.349 . S
C4834 H4828 0.950 . S
C4834 C4835 1.327 . S
C4835 H4829 0.950 . S
C4835 C4834 1.327 . S
C4835 C4839 1.429 . S
C4836 C4819 1.574 . S
C4836 H4830 0.949 . S
C4836 C4840 1.368 . S
C4837 C4818 1.429 . S
C4837 C4831 1.429 . S
C4837 C4838 1.523 . S
C4838 C4819 1.368 . S
C4838 C4832 1.368 . S
C4838 C4837 1.523 . S
C4839 C4823 1.429 . S
C4839 C4835 1.429 . S
C4839 C4840 1.523 . S
C4840 C4824 1.368 . S
C4840 C4836 1.368 . S
C4840 C4839 1.523 . S
H4841 C4816 0.950 . S
H4842 C4818 0.950 . S
H4843 C4819 0.949 . S
H4844 C4821 0.950 . S
H4845 C4823 0.950 . S
C4846 C4847 1.349 . S
C4846 C4848 1.327 . S
C4846 H4871 0.950 . S
C4847 C4846 1.349 . S
C4847 C4863 1.349 . S
C4848 C4846 1.327 . S
C4848 C4867 1.429 . S
C4848 H4872 0.950 . S
C4849 C4866 1.574 . S
C4849 C4868 1.368 . S
C4849 H4873 0.949 . S
H4850 C4854 0.949 . S
C4851 C4852 1.349 . S
C4851 C4853 1.327 . S
C4851 H4874 0.950 . S
C4852 C4851 1.349 . S
C4852 C4864 1.349 . S
C4853 C4851 1.327 . S
C4853 C4869 1.429 . S
C4853 H4875 0.950 . S
C4854 H4850 0.949 . S
C4854 C4862 1.574 . S
C4854 C4870 1.368 . S
H4855 C4863 0.950 . S
H4856 C4861 0.950 . S
H4857 C4862 0.949 . S
H4858 C4864 0.950 . S
H4859 C4865 0.950 . S
H4860 C4866 0.949 . S
C4861 H4856 0.950 . S
C4861 C4863 1.327 . S
C4861 C4867 1.429 . S
C4862 C4854 1.574 . S
C4862 H4857 0.949 . S
C4862 C4868 1.368 . S
C4863 C4847 1.349 . S
C4863 H4855 0.950 . S
C4863 C4861 1.327 . S
C4864 C4852 1.349 . S
C4864 H4858 0.950 . S
C4864 C4865 1.327 . S
C4865 H4859 0.950 . S
C4865 C4864 1.327 . S
C4865 C4869 1.429 . S
C4866 C4849 1.574 . S
C4866 H4860 0.949 . S
C4866 C4870 1.368 . S
C4867 C4848 1.429 . S
C4867 C4861 1.429 . S
C4867 C4868 1.523 . S
C4868 C4849 1.368 . S
C4868 C4862 1.368 . S
C4868 C4867 1.523 . S
C4869 C4853 1.429 . S
C4869 C4865 1.429 . S
C4869 C4870 1.523 . S
C4870 C4854 1.368 . S
C4870 C4866 1.368 . S
C4870 C4869 1.523 . S
H4871 C4846 0.950 . S
H4872 C4848 0.950 . S
H4873 C4849 0.949 . S
H4874 C4851 0.950 . S
H4875 C4853 0.950 . S
C4876 C4877 1.349 . S
C4876 C4878 1.327 . S
C4876 H4901 0.950 . S
C4877 C4876 1.349 . S
C4877 C4893 1.349 . S
C4878 C4876 1.327 . S
C4878 C4897 1.429 . S
C4878 H4902 0.950 . S
C4879 C4896 1.574 . S
C4879 C4898 1.368 . S
C4879 H4903 0.949 . S
H4880 C4884 0.949 . S
C4881 C4882 1.349 . S
C4881 C4883 1.327 . S
C4881 H4904 0.950 . S
C4882 C4881 1.349 . S
C4882 C4894 1.349 . S
C4883 C4881 1.327 . S
C4883 C4899 1.429 . S
C4883 H4905 0.950 . S
C4884 H4880 0.949 . S
C4884 C4892 1.574 . S
C4884 C4900 1.368 . S
H4885 C4893 0.950 . S
H4886 C4891 0.950 . S
H4887 C4892 0.949 . S
H4888 C4894 0.950 . S
H4889 C4895 0.950 . S
H4890 C4896 0.949 . S
C4891 H4886 0.950 . S
C4891 C4893 1.327 . S
C4891 C4897 1.429 . S
C4892 C4884 1.574 . S
C4892 H4887 0.949 . S
C4892 C4898 1.368 . S
C4893 C4877 1.349 . S
C4893 H4885 0.950 . S
C4893 C4891 1.327 . S
C4894 C4882 1.349 . S
C4894 H4888 0.950 . S
C4894 C4895 1.327 . S
C4895 H4889 0.950 . S
C4895 C4894 1.327 . S
C4895 C4899 1.429 . S
C4896 C4879 1.574 . S
C4896 H4890 0.949 . S
C4896 C4900 1.368 . S
C4897 C4878 1.429 . S
C4897 C4891 1.429 . S
C4897 C4898 1.523 . S
C4898 C4879 1.368 . S
C4898 C4892 1.368 . S
C4898 C4897 1.523 . S
C4899 C4883 1.429 . S
C4899 C4895 1.429 . S
C4899 C4900 1.523 . S
C4900 C4884 1.368 . S
C4900 C4896 1.368 . S
C4900 C4899 1.523 . S
H4901 C4876 0.950 . S
H4902 C4878 0.950 . S
H4903 C4879 0.949 . S
H4904 C4881 0.950 . S
H4905 C4883 0.950 . S
C4906 C4907 1.349 . S
C4906 C4908 1.327 . S
C4906 H4931 0.950 . S
C4907 C4906 1.349 . S
C4907 C4923 1.349 . S
C4908 C4906 1.327 . S
C4908 C4927 1.429 . S
C4908 H4932 0.950 . S
C4909 C4926 1.574 . S
C4909 C4928 1.368 . S
C4909 H4933 0.949 . S
H4910 C4914 0.949 . S
C4911 C4912 1.349 . S
C4911 C4913 1.327 . S
C4911 H4934 0.950 . S
C4912 C4911 1.349 . S
C4912 C4924 1.349 . S
C4913 C4911 1.327 . S
C4913 C4929 1.429 . S
C4913 H4935 0.950 . S
C4914 H4910 0.949 . S
C4914 C4922 1.574 . S
C4914 C4930 1.368 . S
H4915 C4923 0.950 . S
H4916 C4921 0.950 . S
H4917 C4922 0.949 . S
H4918 C4924 0.950 . S
H4919 C4925 0.950 . S
H4920 C4926 0.949 . S
C4921 H4916 0.950 . S
C4921 C4923 1.327 . S
C4921 C4927 1.429 . S
C4922 C4914 1.574 . S
C4922 H4917 0.949 . S
C4922 C4928 1.368 . S
C4923 C4907 1.349 . S
C4923 H4915 0.950 . S
C4923 C4921 1.327 . S
C4924 C4912 1.349 . S
C4924 H4918 0.950 . S
C4924 C4925 1.327 . S
C4925 H4919 0.950 . S
C4925 C4924 1.327 . S
C4925 C4929 1.429 . S
C4926 C4909 1.574 . S
C4926 H4920 0.949 . S
C4926 C4930 1.368 . S
C4927 C4908 1.429 . S
C4927 C4921 1.429 . S
C4927 C4928 1.523 . S
C4928 C4909 1.368 . S
C4928 C4922 1.368 . S
C4928 C4927 1.523 . S
C4929 C4913 1.429 . S
C4929 C4925 1.429 . S
C4929 C4930 1.523 . S
C4930 C4914 1.368 . S
C4930 C4926 1.368 . S
C4930 C4929 1.523 . S
H4931 C4906 0.950 . S
H4932 C4908 0.950 . S
H4933 C4909 0.949 . S
H4934 C4911 0.950 . S
H4935 C4913 0.950 . S
C4936 C4937 1.349 . S
C4936 C4938 1.327 . S
C4936 H4961 0.950 . S
C4937 C4936 1.349 . S
C4937 C4953 1.349 . S
C4938 C4936 1.327 . S
C4938 C4957 1.429 . S
C4938 H4962 0.950 . S
C4939 C4956 1.574 . S
C4939 C4958 1.368 . S
C4939 H4963 0.949 . S
H4940 C4944 0.949 . S
C4941 C4942 1.349 . S
C4941 C4943 1.327 . S
C4941 H4964 0.950 . S
C4942 C4941 1.349 . S
C4942 C4954 1.349 . S
C4943 C4941 1.327 . S
C4943 C4959 1.429 . S
C4943 H4965 0.950 . S
C4944 H4940 0.949 . S
C4944 C4952 1.574 . S
C4944 C4960 1.368 . S
H4945 C4953 0.950 . S
H4946 C4951 0.950 . S
H4947 C4952 0.949 . S
H4948 C4954 0.950 . S
H4949 C4955 0.950 . S
H4950 C4956 0.949 . S
C4951 H4946 0.950 . S
C4951 C4953 1.327 . S
C4951 C4957 1.429 . S
C4952 C4944 1.574 . S
C4952 H4947 0.949 . S
C4952 C4958 1.368 . S
C4953 C4937 1.349 . S
C4953 H4945 0.950 . S
C4953 C4951 1.327 . S
C4954 C4942 1.349 . S
C4954 H4948 0.950 . S
C4954 C4955 1.327 . S
C4955 H4949 0.950 . S
C4955 C4954 1.327 . S
C4955 C4959 1.429 . S
C4956 C4939 1.574 . S
C4956 H4950 0.949 . S
C4956 C4960 1.368 . S
C4957 C4938 1.429 . S
C4957 C4951 1.429 . S
C4957 C4958 1.523 . S
C4958 C4939 1.368 . S
C4958 C4952 1.368 . S
C4958 C4957 1.523 . S
C4959 C4943 1.429 . S
C4959 C4955 1.429 . S
C4959 C4960 1.523 . S
C4960 C4944 1.368 . S
C4960 C4956 1.368 . S
C4960 C4959 1.523 . S
H4961 C4936 0.950 . S
H4962 C4938 0.950 . S
H4963 C4939 0.949 . S
H4964 C4941 0.950 . S
H4965 C4943 0.950 . S
C4966 C4967 1.349 . S
C4966 C4968 1.327 . S
C4966 H4991 0.950 . S
C4967 C4966 1.349 . S
C4967 C4983 1.349 . S
C4968 C4966 1.327 . S
C4968 C4987 1.429 . S
C4968 H4992 0.950 . S
C4969 C4986 1.574 . S
C4969 C4988 1.368 . S
C4969 H4993 0.949 . S
H4970 C4974 0.949 . S
C4971 C4972 1.349 . S
C4971 C4973 1.327 . S
C4971 H4994 0.950 . S
C4972 C4971 1.349 . S
C4972 C4984 1.349 . S
C4973 C4971 1.327 . S
C4973 C4989 1.429 . S
C4973 H4995 0.950 . S
C4974 H4970 0.949 . S
C4974 C4982 1.574 . S
C4974 C4990 1.368 . S
H4975 C4983 0.950 . S
H4976 C4981 0.950 . S
H4977 C4982 0.949 . S
H4978 C4984 0.950 . S
H4979 C4985 0.950 . S
H4980 C4986 0.949 . S
C4981 H4976 0.950 . S
C4981 C4983 1.327 . S
C4981 C4987 1.429 . S
C4982 C4974 1.574 . S
C4982 H4977 0.949 . S
C4982 C4988 1.368 . S
C4983 C4967 1.349 . S
C4983 H4975 0.950 . S
C4983 C4981 1.327 . S
C4984 C4972 1.349 . S
C4984 H4978 0.950 . S
C4984 C4985 1.327 . S
C4985 H4979 0.950 . S
C4985 C4984 1.327 . S
C4985 C4989 1.429 . S
C4986 C4969 1.574 . S
C4986 H4980 0.949 . S
C4986 C4990 1.368 . S
C4987 C4968 1.429 . S
C4987 C4981 1.429 . S
C4987 C4988 1.523 . S
C4988 C4969 1.368 . S
C4988 C4982 1.368 . S
C4988 C4987 1.523 . S
C4989 C4973 1.429 . S
C4989 C4985 1.429 . S
C4989 C4990 1.523 . S
C4990 C4974 1.368 . S
C4990 C4986 1.368 . S
C4990 C4989 1.523 . S
H4991 C4966 0.950 . S
H4992 C4968 0.950 . S
H4993 C4969 0.949 . S
H4994 C4971 0.950 . S
H4995 C4973 0.950 . S
C4996 C4997 1.349 . S
C4996 C4998 1.327 . S
C4996 H5021 0.950 . S
C4997 C4996 1.349 . S
C4997 C5013 1.349 . S
C4998 C4996 1.327 . S
C4998 C5017 1.429 . S
C4998 H5022 0.950 . S
C4999 C5016 1.574 . S
C4999 C5018 1.368 . S
C4999 H5023 0.949 . S
H5000 C5004 0.949 . S
C5001 C5002 1.349 . S
C5001 C5003 1.327 . S
C5001 H5024 0.950 . S
C5002 C5001 1.349 . S
C5002 C5014 1.349 . S
C5003 C5001 1.327 . S
C5003 C5019 1.429 . S
C5003 H5025 0.950 . S
C5004 H5000 0.949 . S
C5004 C5012 1.574 . S
C5004 C5020 1.368 . S
H5005 C5013 0.950 . S
H5006 C5011 0.950 . S
H5007 C5012 0.949 . S
H5008 C5014 0.950 . S
H5009 C5015 0.950 . S
H5010 C5016 0.949 . S
C5011 H5006 0.950 . S
C5011 C5013 1.327 . S
C5011 C5017 1.429 . S
C5012 C5004 1.574 . S
C5012 H5007 0.949 . S
C5012 C5018 1.368 . S
C5013 C4997 1.349 . S
C5013 H5005 0.950 . S
C5013 C5011 1.327 . S
C5014 C5002 1.349 . S
C5014 H5008 0.950 . S
C5014 C5015 1.327 . S
C5015 H5009 0.950 . S
C5015 C5014 1.327 . S
C5015 C5019 1.429 . S
C5016 C4999 1.574 . S
C5016 H5010 0.949 . S
C5016 C5020 1.368 . S
C5017 C4998 1.429 . S
C5017 C5011 1.429 . S
C5017 C5018 1.523 . S
C5018 C4999 1.368 . S
C5018 C5012 1.368 . S
C5018 C5017 1.523 . S
C5019 C5003 1.429 . S
C5019 C5015 1.429 . S
C5019 C5020 1.523 . S
C5020 C5004 1.368 . S
C5020 C5016 1.368 . S
C5020 C5019 1.523 . S
H5021 C4996 0.950 . S
H5022 C4998 0.950 . S
H5023 C4999 0.949 . S
H5024 C5001 0.950 . S
H5025 C5003 0.950 . S
C5026 C5027 1.349 . S
C5026 C5028 1.327 . S
C5026 H5051 0.950 . S
C5027 C5026 1.349 . S
C5027 C5043 1.349 . S
C5028 C5026 1.327 . S
C5028 C5047 1.429 . S
C5028 H5052 0.950 . S
C5029 C5046 1.574 . S
C5029 C5048 1.368 . S
C5029 H5053 0.949 . S
H5030 C5034 0.949 . S
C5031 C5032 1.349 . S
C5031 C5033 1.327 . S
C5031 H5054 0.950 . S
C5032 C5031 1.349 . S
C5032 C5044 1.349 . S
C5033 C5031 1.327 . S
C5033 C5049 1.429 . S
C5033 H5055 0.950 . S
C5034 H5030 0.949 . S
C5034 C5042 1.574 . S
C5034 C5050 1.368 . S
H5035 C5043 0.950 . S
H5036 C5041 0.950 . S
H5037 C5042 0.949 . S
H5038 C5044 0.950 . S
H5039 C5045 0.950 . S
H5040 C5046 0.949 . S
C5041 H5036 0.950 . S
C5041 C5043 1.327 . S
C5041 C5047 1.429 . S
C5042 C5034 1.574 . S
C5042 H5037 0.949 . S
C5042 C5048 1.368 . S
C5043 C5027 1.349 . S
C5043 H5035 0.950 . S
C5043 C5041 1.327 . S
C5044 C5032 1.349 . S
C5044 H5038 0.950 . S
C5044 C5045 1.327 . S
C5045 H5039 0.950 . S
C5045 C5044 1.327 . S
C5045 C5049 1.429 . S
C5046 C5029 1.574 . S
C5046 H5040 0.949 . S
C5046 C5050 1.368 . S
C5047 C5028 1.429 . S
C5047 C5041 1.429 . S
C5047 C5048 1.523 . S
C5048 C5029 1.368 . S
C5048 C5042 1.368 . S
C5048 C5047 1.523 . S
C5049 C5033 1.429 . S
C5049 C5045 1.429 . S
C5049 C5050 1.523 . S
C5050 C5034 1.368 . S
C5050 C5046 1.368 . S
C5050 C5049 1.523 . S
H5051 C5026 0.950 . S
H5052 C5028 0.950 . S
H5053 C5029 0.949 . S
H5054 C5031 0.950 . S
H5055 C5033 0.950 . S
C1217 C979 2.067 . S
C1222 C29 2.067 . S
C1247 C67 2.066 . S
C1252 C941 2.066 . S
C1277 C1055 2.066 . S
C1282 C105 2.066 . S
C1307 C143 2.067 . S
C1312 C1017 2.067 . S
C1337 C1110 2.067 . S
C1342 C160 2.067 . S
C1367 C198 2.066 . S
C1372 C1072 2.066 . S
C1397 C1186 2.066 . S
C1402 C236 2.066 . S
C1427 C274 2.067 . S
C1432 C1148 2.067 . S
C1457 C333 2.066 . S
C1462 C675 2.066 . S
C1487 C371 2.067 . S
C1492 C637 2.067 . S
C1517 C751 2.067 . S
C1522 C409 2.067 . S
C1547 C447 2.067 . S
C1552 C713 2.067 . S
C1577 C464 2.066 . S
C1582 C806 2.066 . S
C1607 C768 2.067 . S
C1612 C502 2.067 . S
C1637 C882 2.067 . S
C1642 C540 2.067 . S
C1667 C844 2.067 . S
C1672 C578 2.067 . S
C1697 C1108 2.075 . S
C1702 C6 2.051 . S
C1727 C44 2.052 . S
C1732 C158 2.076 . S
C1757 C82 2.052 . S
C1762 C880 2.076 . S
C1787 C120 2.052 . S
C1792 C538 2.076 . S
C1817 C977 2.075 . S
C1822 C179 2.051 . S
C1847 C27 2.076 . S
C1852 C217 2.052 . S
C1877 C749 2.076 . S
C1882 C255 2.052 . S
C1907 C293 2.052 . S
C1912 C407 2.076 . S
C1937 C804 2.076 1_565 S
C1942 C310 2.052 . S
C1967 C462 2.075 . S
C1972 C348 2.051 . S
C1997 C386 2.051 . S
C2002 C1184 2.075 . S
C2027 C234 2.075 1_565 S
C2032 C424 2.051 . S
C2057 C673 2.076 1_545 S
C2062 C483 2.052 . S
C2087 C521 2.051 . S
C2092 C331 2.075 . S
C2117 C559 2.051 . S
C2122 C1053 2.075 . S
C2147 C597 2.051 . S
C2152 C103 2.075 1_545 S
C2177 C614 2.052 . S
C2182 C500 2.076 . S
C2207 C766 2.076 . S
C2212 C652 2.051 . S
C2237 C272 2.076 . S
C2242 C690 2.052 . S
C2267 C1146 2.075 . S
C2272 C728 2.051 . S
C2297 C787 2.052 . S
C2302 C369 2.076 . S
C2327 C825 2.051 . S
C2332 C635 2.076 . S
C2357 C863 2.052 . S
C2362 C141 2.076 . S
C2387 C901 2.051 . S
C2392 C1015 2.075 . S
C2417 C196 2.075 1_565 S
C2422 C918 2.051 . S
C2447 C1070 2.075 . S
C2452 C956 2.051 . S
C2477 C576 2.075 . S
C2482 C994 2.051 . S
C2507 C1032 2.052 . S
C2512 C842 2.076 1_565 S
C2537 C1091 2.051 . S
C2542 C65 2.075 1_545 S
C2567 C1129 2.051 . S
C2572 C939 2.075 . S
C2597 C1167 2.051 . S
C2602 C445 2.075 . S
C2627 C1205 2.052 . S
C2632 C711 2.076 1_545 S
C2657 C229 1.499 . S
C2662 C1 1.517 . S
C2687 C39 1.517 . S
C2692 C1179 1.500 . S
C2717 C457 1.500 . S
C2722 C77 1.518 . S
C2747 C799 1.500 . S
C2752 C115 1.518 . S
C2777 C106 1.499 . S
C2782 C182 1.517 . S
C2807 C220 1.517 . S
C2812 C1056 1.500 . S
C2837 C334 1.500 . S
C2842 C258 1.518 . S
C2867 C296 1.518 . S
C2872 C676 1.500 . S
C2897 C305 1.517 . S
C2902 C533 1.499 . S
C2927 C875 1.499 . S
C2932 C343 1.517 . S
C2957 C381 1.518 . S
C2962 C153 1.500 . S
C2987 C1103 1.500 . S
C2992 C419 1.518 . S
C3017 C486 1.517 . S
C3022 C410 1.499 . S
C3047 C752 1.499 . S
C3052 C524 1.517 . S
C3077 C562 1.518 . S
C3082 C30 1.500 . S
C3107 C980 1.500 . S
C3112 C600 1.518 . S
C3137 C609 1.517 . S
C3142 C837 1.499 . S
C3167 C647 1.517 . S
C3172 C571 1.499 . S
C3197 C1065 1.500 . S
C3202 C685 1.518 . S
C3227 C723 1.518 . S
C3232 C191 1.500 . S
C3257 C714 1.499 . S
C3262 C790 1.517 . S
C3287 C828 1.517 . S
C3292 C448 1.499 . S
C3317 C942 1.500 . S
C3322 C866 1.518 . S
C3347 C904 1.518 . S
C3352 C68 1.500 . S
C3377 C1141 1.499 . S
C3382 C913 1.517 . S
C3407 C951 1.517 . S
C3412 C267 1.499 . S
C3437 C989 1.517 . S
C3442 C761 1.499 . S
C3467 C1027 1.517 . S
C3472 C495 1.499 . S
C3497 C1018 1.499 . S
C3502 C1094 1.517 . S
C3527 C1132 1.517 . S
C3532 C144 1.499 . S
C3557 C638 1.499 . S
C3562 C1170 1.517 . S
C3587 C1208 1.517 . S
C3592 C372 1.499 . S
C3617 C122 1.559 . S
C3622 C8 1.559 . S
C3647 C84 1.559 . S
C3652 C46 1.559 . S
C3677 C181 1.559 . S
C3682 C295 1.559 . S
C3707 C257 1.559 . S
C3712 C219 1.559 . S
C3737 C426 1.560 . S
C3742 C312 1.560 . S
C3767 C350 1.559 . S
C3772 C388 1.559 . S
C3797 C599 1.560 . S
C3802 C485 1.560 . S
C3827 C561 1.559 . S
C3832 C523 1.559 . S
C3857 C616 1.559 . S
C3862 C730 1.559 . S
C3887 C692 1.559 . S
C3892 C654 1.559 . S
C3917 C789 1.559 . S
C3922 C903 1.559 . S
C3947 C865 1.559 . S
C3952 C827 1.559 . S
C3977 C1034 1.560 . S
C3982 C920 1.560 . S
C4007 C958 1.559 . S
C4012 C996 1.559 . S
C4037 C1093 1.560 . S
C4042 C1207 1.560 . S
C4067 C1131 1.559 . S
C4072 C1169 1.559 . S
C4097 C14 0.425 . S
C4102 C170 0.425 . S
C4127 C1120 0.426 . S
C4132 C52 0.426 . S
C4157 C550 0.425 . S
C4162 C90 0.425 . S
C4187 C892 0.426 . S
C4192 C128 0.426 . S
C4217 C964 0.426 . S
C4222 C208 0.426 . S
C4247 C394 0.425 . S
C4252 C246 0.425 . S
C4277 C284 0.426 . S
C4282 C736 0.426 . S
C4307 C474 0.425 . S
C4312 C318 0.425 . S
C4337 C356 0.426 . S
C4342 C816 0.426 . S
C4367 C432 0.426 . S
C4372 C1196 0.426 . S
C4397 C512 0.426 . S
C4402 C660 0.426 . S
C4427 C1040 0.426 . S
C4432 C588 0.426 . S
C4457 C778 0.426 . S
C4462 C622 0.426 . S
C4487 C1158 0.426 . S
C4492 C698 0.426 . S
C4517 C854 0.426 . S
C4522 C1002 0.426 . S
C4547 C1082 0.425 . S
C4552 C926 0.425 . S
C4577 C94 1.126 . S
C4582 C18 1.126 . S
C4607 C132 1.126 . S
C4612 C56 1.126 . S
C4637 C166 1.126 . S
C4642 C242 1.126 . S
C4667 C204 1.126 . S
C4672 C280 1.126 . S
C4697 C398 1.126 . S
C4702 C322 1.126 . S
C4727 C436 1.126 . S
C4732 C360 1.126 . S
C4757 C470 1.126 . S
C4762 C546 1.126 . S
C4787 C584 1.126 . S
C4792 C508 1.126 . S
C4817 C702 1.126 . S
C4822 C626 1.126 . S
C4847 C664 1.127 . S
C4852 C740 1.127 . S
C4877 C850 1.126 . S
C4882 C774 1.126 . S
C4907 C812 1.127 . S
C4912 C888 1.127 . S
C4937 C930 1.127 . S
C4942 C1006 1.127 . S
C4967 C968 1.127 . S
C4972 C1044 1.127 . S
C4997 C1154 1.127 . S
C5002 C1078 1.127 . S
C5027 C1192 1.127 . S
C5032 C1116 1.127 . S
