# Generated by pormake.
# Topology oof, (8)-cn, num edge types: 1
# Building blocks:
#     Node 0, Type 0, BuildingBlock: TAGTUT_clean_sbu_3, # of connection points: 8
#     Node 1, Type 0, BuildingBlock: TAGTUT_clean_sbu_3, # of connection points: 8
#     Node 2, Type 0, BuildingBlock: TAGTUT_clean_sbu_3, # of connection points: 8
#     Node 3, Type 0, BuildingBlock: TAGTUT_clean_sbu_3, # of connection points: 8
#     Edge 4, Type (0, 0), BuildingBlock: KIFKEQ_clean_linker_1, # of connection points: 2
#     Edge 5, Type (0, 0), BuildingBlock: KIFKEQ_clean_linker_1, # of connection points: 2
#     Edge 6, Type (0, 0), BuildingBlock: KIFKEQ_clean_linker_1, # of connection points: 2
#     Edge 7, Type (0, 0), BuildingBlock: KIFKEQ_clean_linker_1, # of connection points: 2
#     Edge 8, Type (0, 0), BuildingBlock: KIFKEQ_clean_linker_1, # of connection points: 2
#     Edge 9, Type (0, 0), BuildingBlock: KIFKEQ_clean_linker_1, # of connection points: 2
#     Edge 10, Type (0, 0), BuildingBlock: KIFKEQ_clean_linker_1, # of connection points: 2
#     Edge 11, Type (0, 0), BuildingBlock: KIFKEQ_clean_linker_1, # of connection points: 2
#     Edge 12, Type (0, 0), BuildingBlock: KIFKEQ_clean_linker_1, # of connection points: 2
#     Edge 13, Type (0, 0), BuildingBlock: KIFKEQ_clean_linker_1, # of connection points: 2
#     Edge 14, Type (0, 0), BuildingBlock: KIFKEQ_clean_linker_1, # of connection points: 2
#     Edge 15, Type (0, 0), BuildingBlock: KIFKEQ_clean_linker_1, # of connection points: 2
#     Edge 16, Type (0, 0), BuildingBlock: KIFKEQ_clean_linker_1, # of connection points: 2
#     Edge 17, Type (0, 0), BuildingBlock: KIFKEQ_clean_linker_1, # of connection points: 2
#     Edge 18, Type (0, 0), BuildingBlock: KIFKEQ_clean_linker_1, # of connection points: 2
#     Edge 19, Type (0, 0), BuildingBlock: KIFKEQ_clean_linker_1, # of connection points: 2
# Relax obj value: 0.060
# Max RMSD: 0.153
# Mean RMSD: 0.153
data_MOF--net-oof--node1-TAGTUT_clean_sbu_3--edge1-KIFKEQ_clean_linker_1
_symmetry_space_group_name_H-M    P1
_symmetry_Int_Tables_number       1
_symmetry_cell_setting            triclinic
loop_
_symmetry_equiv_pos_as_xyz
'x, y, z'
_cell_length_a     16.087814
_cell_length_b     64.281976
_cell_length_c     15.738901
_cell_angle_alpha  90.096841
_cell_angle_beta   86.788701
_cell_angle_gamma 89.808464
loop_
_atom_site_label
_atom_site_type_symbol
_atom_site_fract_x
_atom_site_fract_y
_atom_site_fract_z
_atom_type_partial_charge
C0 C 0.17313 0.16298 0.22494 0.0
C1 C -0.00472 0.23174 0.27667 0.0
C2 C 0.82017 0.19967 0.12051 0.0
Mg3 Mg 0.11098 0.11567 0.19634 0.0
Mg4 Mg 0.93059 0.09994 0.28101 0.0
O5 O -0.01375 0.11895 0.20973 0.0
Mg6 Mg 0.97875 0.14954 0.23853 0.0
O7 O 0.97852 0.1803 0.25926 0.0
Mg8 Mg 0.02525 0.19034 0.14615 0.0
Mg9 Mg 0.87839 0.19307 0.29832 0.0
C10 C 0.78553 0.1325 0.25275 0.0
O11 O 0.95012 0.14655 0.38303 0.0
O12 O 0.09006 0.08173 0.15061 0.0
O13 O 0.86152 0.17351 0.41031 0.0
O14 O 0.12123 0.10105 0.33109 0.0
O15 O 0.96787 0.07159 0.21438 0.0
O16 O -0.00552 0.09904 0.39532 0.0
O17 O 0.00599 0.15612 0.10014 0.0
O18 O 0.09233 0.12995 0.06309 0.0
C19 C 0.04888 0.14588 0.04342 0.0
C20 C 0.03421 0.06784 0.1676 0.0
O21 O 0.83745 0.1468 0.22885 0.0
O22 O 0.0352 0.22302 0.21264 0.0
O23 O 0.80816 0.11458 0.27979 0.0
O24 O 0.89779 0.19941 0.09886 0.0
O25 O 0.93321 0.22302 0.31668 0.0
O26 O 0.79387 0.19524 0.19632 0.0
O27 O 0.11844 0.14935 0.24709 0.0
O28 O 0.1522 0.18019 0.1912 0.0
C29 C 0.07305 0.09658 0.39606 0.0
C30 C 0.90182 0.15742 0.43419 0.0
C31 C 0.05506 0.8817 0.53982 0.0
C32 C 0.0358 0.95934 0.65789 0.0
C33 C 0.05817 0.93144 0.89438 0.0
Mg34 Mg 0.02383 0.8373 0.64375 0.0
Mg35 Mg 0.87711 0.83575 0.80003 0.0
O36 O 0.97648 0.84793 0.75566 0.0
Mg37 Mg 0.97763 0.87832 0.73128 0.0
O38 O -0.01376 0.90865 0.70132 0.0
Mg39 Mg 0.11088 0.91165 0.69786 0.0
Mg40 Mg 0.92565 0.92822 0.76592 0.0
C41 C 0.90447 0.87262 0.9298 0.0
O42 O 0.83609 0.88103 0.71808 0.0
O43 O 0.03216 0.80497 0.71301 0.0
O44 O 0.80444 0.91375 0.7621 0.0
O45 O 0.89544 0.82876 0.59858 0.0
O46 O 0.93235 0.80578 0.81927 0.0
O47 O 0.79243 0.83306 0.69766 0.0
O48 O 0.11656 0.87798 0.74558 0.0
O49 O 0.15059 0.84713 0.68874 0.0
C50 C 0.17132 0.86425 0.72328 0.0
C51 C -0.00674 0.79666 0.77831 0.0
O52 O 0.94941 0.88261 0.87356 0.0
O53 O 0.0936 0.94549 0.65107 0.0
O54 O 0.86367 0.8561 0.91219 0.0
O55 O 0.11215 0.92626 0.83487 0.0
O56 O 0.96483 0.9558 0.69642 0.0
O57 O -0.01968 0.92988 0.88492 0.0
O58 O 0.0077 0.87134 0.59254 0.0
O59 O 0.09819 0.89721 0.56444 0.0
C60 C 0.81803 0.82859 0.6214 0.0
C61 C 0.78317 0.89552 0.73804 0.0
C62 C 0.55153 0.64753 0.04113 0.0
C63 C 0.53746 0.56922 0.16125 0.0
C64 C 0.57271 0.59701 0.39151 0.0
Mg65 Mg 0.52593 0.69162 0.14535 0.0
Mg66 Mg 0.3784 0.69374 0.29712 0.0
O67 O 0.47921 0.68131 0.25806 0.0
Mg68 Mg 0.4801 0.65062 0.23593 0.0
O69 O 0.48819 0.62014 0.20565 0.0
Mg70 Mg 0.61297 0.61697 0.19321 0.0
Mg71 Mg 0.4319 0.60087 0.27505 0.0
C72 C 0.40283 0.6579 0.43183 0.0
O73 O 0.33879 0.64784 0.22522 0.0
O74 O 0.53436 0.7242 0.213 0.0
O75 O 0.30938 0.61542 0.27372 0.0
O76 O 0.39839 0.70048 0.09769 0.0
O77 O 0.4319 0.72379 0.31657 0.0
O78 O 0.29434 0.69587 0.19469 0.0
O79 O 0.61978 0.65052 0.24553 0.0
O80 O 0.65294 0.68153 0.19063 0.0
C81 C 0.67417 0.66427 0.22384 0.0
C82 C 0.49379 0.73272 0.2771 0.0
O83 O 0.45125 0.64724 0.38009 0.0
O84 O 0.59317 0.5832 0.14545 0.0
O85 O 0.36193 0.67396 0.40857 0.0
O86 O 0.62167 0.60177 0.32745 0.0
O87 O 0.47058 0.57277 0.20745 0.0
O88 O 0.49424 0.59957 0.39008 0.0
O89 O 0.50796 0.6575 0.09813 0.0
O90 O 0.59544 0.63164 0.06033 0.0
C91 C 0.3207 0.70049 0.11908 0.0
C92 C 0.28682 0.63344 0.24777 0.0
C93 C 0.55119 0.38088 0.54163 0.0
C94 C 0.53333 0.45891 0.65099 0.0
C95 C 0.55987 0.43272 0.89035 0.0
Mg96 Mg 0.52467 0.33694 0.64633 0.0
Mg97 Mg 0.37687 0.33499 0.79855 0.0
O98 O 0.47691 0.34744 0.75858 0.0
Mg99 Mg 0.47732 0.37803 0.73535 0.0
O100 O 0.48555 0.40831 0.70388 0.0
Mg101 Mg 0.61005 0.41156 0.69544 0.0
Mg102 Mg 0.42486 0.4285 0.76428 0.0
C103 C 0.40041 0.37148 0.93165 0.0
O104 O 0.33579 0.38066 0.72244 0.0
O105 O 0.53367 0.3045 0.71429 0.0
O106 O 0.30415 0.41366 0.76322 0.0
O107 O 0.39761 0.32807 0.5984 0.0
O108 O 0.43194 0.30502 0.81859 0.0
O109 O 0.29329 0.33252 0.69556 0.0
O110 O 0.6166 0.37807 0.74744 0.0
O111 O 0.65068 0.34701 0.69245 0.0
C112 C 0.67132 0.36426 0.72607 0.0
C113 C 0.49386 0.29605 0.7787 0.0
O114 O 0.44777 0.38201 0.87899 0.0
O115 O 0.5915 0.44514 0.64579 0.0
O116 O 0.36042 0.3552 0.90952 0.0
O117 O 0.61333 0.42692 0.83125 0.0
O118 O 0.46249 0.45548 0.68996 0.0
O119 O 0.4818 0.43148 0.88141 0.0
O120 O 0.50684 0.37095 0.5979 0.0
O121 O 0.59529 0.39663 0.56183 0.0
C122 C 0.31993 0.32794 0.61983 0.0
C123 C 0.28293 0.39525 0.74118 0.0
H124 H 0.922 0.16862 0.98369 0.0
H125 H 0.13259 0.13035 0.9002 0.0
H126 H 0.87715 0.16993 0.84016 0.0
H127 H 0.08954 0.1325 0.75412 0.0
H128 H 0.94975 0.12244 0.51742 0.0
H129 H -0.01439 0.11998 0.66583 0.0
H130 H 0.90582 0.18371 0.70587 0.0
H131 H 0.86727 0.18569 0.55997 0.0
C132 C 0.96027 0.16095 0.93423 0.0
C133 C 0.03126 0.14944 0.95352 0.0
C134 C 0.93424 0.16167 0.8515 0.0
C135 C 0.97925 0.1512 0.78536 0.0
C136 C 0.05223 0.14034 0.80391 0.0
C137 C 0.07769 0.13935 0.88732 0.0
C138 C 0.93871 0.13568 0.5586 0.0
C139 C 0.90639 0.15418 0.52668 0.0
C140 C 0.96007 0.13442 0.64328 0.0
C141 C 0.95025 0.15178 0.69747 0.0
C142 C 0.91374 0.16994 0.6665 0.0
C143 C 0.89135 0.17106 0.58244 0.0
H144 H 0.08822 0.91062 0.41663 0.0
H145 H -0.01474 0.84917 0.4567 0.0
H146 H 0.04162 0.91077 0.27334 0.0
H147 H 0.94262 0.84874 0.3104 0.0
H148 H 0.80907 0.85999 0.07082 0.0
H149 H 0.84562 0.86267 0.21901 0.0
H150 H 0.06606 0.89744 0.13906 0.0
H151 H 0.02796 0.89549 -0.00631 0.0
C152 C 0.05772 0.89684 0.39402 0.0
C153 C 0.04081 0.87983 0.44815 0.0
C154 C 0.03071 0.89694 0.31145 0.0
C155 C -0.01226 0.87982 0.27987 0.0
C156 C 0.97368 0.86242 0.333 0.0
C157 C -0.00063 0.8625 0.41646 0.0
C158 C 0.86404 0.86868 0.08554 0.0
C159 C 0.91504 0.8777 0.02029 0.0
C160 C 0.88579 0.86995 0.1703 0.0
C161 C 0.95958 0.88002 0.19132 0.0
C162 C 0.00819 0.88982 0.12619 0.0
C163 C -0.01408 0.88879 0.04214 0.0
H164 H 0.63993 0.63396 0.89739 0.0
H165 H 0.41914 0.66829 0.98245 0.0
H166 H 0.597 0.63582 0.75128 0.0
H167 H 0.37406 0.6691 0.83901 0.0
H168 H 0.35575 0.68467 0.56017 0.0
H169 H 0.39501 0.68321 0.7058 0.0
H170 H 0.50033 0.62191 0.66077 0.0
H171 H 0.46512 0.62412 0.51261 0.0
C172 C 0.58271 0.64203 0.8848 0.0
C173 C 0.53345 0.6511 0.95141 0.0
C174 C 0.5573 0.64283 0.80133 0.0
C175 C 0.48136 0.65238 0.78316 0.0
C176 C 0.43342 0.66188 0.84985 0.0
C177 C 0.45954 0.66143 0.9326 0.0
C178 C 0.38577 0.67065 0.58144 0.0
C179 C 0.40783 0.65446 0.52427 0.0
C180 C 0.40848 0.66982 0.66549 0.0
C181 C 0.45218 0.65256 0.69519 0.0
C182 C 0.46903 0.63573 0.63955 0.0
C183 C 0.44764 0.63678 0.55488 0.0
H184 H 0.4725 0.40447 0.00953 0.0
H185 H 0.34514 0.34653 0.06266 0.0
H186 H 0.50715 0.4069 0.1577 0.0
H187 H 0.38484 0.34796 0.20785 0.0
H188 H 0.41497 0.36212 0.48255 0.0
H189 H 0.36917 0.36223 0.33959 0.0
H190 H 0.59804 0.39249 0.2517 0.0
H191 H 0.64141 0.39369 0.39786 0.0
C192 C 0.4507 0.39245 0.05303 0.0
C193 C 0.40586 0.3754 0.02391 0.0
C194 C 0.47204 0.39358 0.13781 0.0
C195 C 0.45039 0.37742 0.19506 0.0
C196 C 0.40203 0.36088 0.1666 0.0
C197 C 0.37914 0.36003 0.08261 0.0
C198 C 0.45643 0.36854 0.43278 0.0
C199 C 0.53228 0.37782 0.45169 0.0
C200 C 0.42993 0.3686 0.35015 0.0
C201 C 0.47946 0.37744 0.28332 0.0
C202 C 0.55707 0.386 0.30165 0.0
C203 C 0.58277 0.38639 0.38517 0.0
H204 H 0.65881 0.11538 0.35067 0.0
H205 H 0.71016 0.15937 0.14748 0.0
H206 H 0.51068 0.12305 0.34764 0.0
H207 H 0.56185 0.1665 0.14188 0.0
H208 H 0.30217 0.19029 0.20922 0.0
H209 H 0.44962 0.18303 0.21872 0.0
H210 H 0.39403 0.11812 0.26493 0.0
H211 H 0.24629 0.1256 0.25924 0.0
C212 C 0.63821 0.12656 0.30485 0.0
C213 C 0.69586 0.13689 0.24967 0.0
C214 C 0.55332 0.1309 0.30279 0.0
C215 C 0.52423 0.14543 0.24462 0.0
C216 C 0.58215 0.15557 0.18879 0.0
C217 C 0.66712 0.15145 0.19171 0.0
C218 C 0.32137 0.17447 0.22168 0.0
C219 C 0.26242 0.15849 0.23299 0.0
C220 C 0.40605 0.17028 0.22655 0.0
C221 C 0.43389 0.14996 0.24193 0.0
C222 C 0.3748 0.13401 0.25406 0.0
C223 C 0.28995 0.13826 0.25023 0.0
H224 H 0.70758 0.86845 0.63356 0.0
H225 H 0.65769 0.91224 0.83857 0.0
H226 H 0.55914 0.86105 0.63098 0.0
H227 H 0.51008 0.90422 0.83911 0.0
H228 H 0.24386 0.90147 0.75995 0.0
H229 H 0.39146 0.90908 0.76117 0.0
H230 H 0.44875 0.84439 0.70849 0.0
H231 H 0.30118 0.83704 0.70278 0.0
C232 C 0.66483 0.87627 0.67872 0.0
C233 C 0.69382 0.8909 0.73619 0.0
C234 C 0.57987 0.87199 0.67764 0.0
C235 C 0.52252 0.88199 0.73506 0.0
C236 C 0.5521 0.89652 0.79291 0.0
C237 C 0.63674 0.90106 0.79292 0.0
C238 C 0.28782 0.88889 0.74839 0.0
C239 C 0.26066 0.86871 0.73026 0.0
C240 C 0.37267 0.89321 0.74976 0.0
C241 C 0.43222 0.87736 0.73453 0.0
C242 C 0.40481 0.85707 0.71859 0.0
C243 C 0.32006 0.85282 0.71601 0.0
H244 H 0.74738 0.62693 0.2585 0.0
H245 H 0.80353 0.6915 0.20609 0.0
H246 H 0.8951 0.61935 0.26275 0.0
H247 H 0.9511 0.68415 0.21423 0.0
H248 H 0.21126 0.66021 0.14222 0.0
H249 H 0.06287 0.66744 0.1373 0.0
H250 H 0.01233 0.62428 0.34418 0.0
H251 H 0.1604 0.61649 0.34642 0.0
C252 C 0.7911 0.63955 0.24864 0.0
C253 C 0.76359 0.65977 0.2312 0.0
C254 C 0.87597 0.63524 0.25167 0.0
C255 C 0.93519 0.65113 0.23853 0.0
C256 C 0.90742 0.67145 0.22287 0.0
C257 C 0.82267 0.67569 0.21881 0.0
C258 C 0.1683 0.65237 0.1868 0.0
C259 C 0.19717 0.63786 0.24485 0.0
C260 C 0.08331 0.65656 0.18429 0.0
C261 C 0.02555 0.64653 0.24067 0.0
C262 C 0.05481 0.63204 0.2989 0.0
C263 C 0.13967 0.62763 0.3005 0.0
H264 H 0.74405 0.40167 0.75899 0.0
H265 H 0.80067 0.33682 0.70984 0.0
H266 H 0.89177 0.40917 0.76091 0.0
H267 H 0.94826 0.34411 0.71597 0.0
H268 H 0.15753 0.41246 0.84037 0.0
H269 H 0.00976 0.40454 0.84099 0.0
H270 H 0.05891 0.36037 0.63647 0.0
H271 H 0.20741 0.36772 0.63882 0.0
C272 C 0.78788 0.38898 0.74941 0.0
C273 C 0.76056 0.3687 0.73333 0.0
C274 C 0.87275 0.39324 0.75111 0.0
C275 C 0.93206 0.37725 0.73819 0.0
C276 C 0.90446 0.35688 0.72429 0.0
C277 C 0.81972 0.35268 0.72143 0.0
C278 C 0.13655 0.40106 0.79558 0.0
C279 C 0.19363 0.39061 0.73979 0.0
C280 C 0.05187 0.39658 0.79561 0.0
C281 C 0.02233 0.38181 0.73879 0.0
C282 C 0.07968 0.3715 0.68235 0.0
C283 C 0.16464 0.37574 0.68335 0.0
H284 H 0.1484 0.32638 0.63296 0.0
H285 H 0.36087 0.31165 0.46322 0.0
H286 H 0.05768 0.3089 0.53661 0.0
H287 H 0.2726 0.29296 0.37125 0.0
H288 H 0.95612 0.24778 0.43395 0.0
H289 H 0.02468 0.27538 0.50575 0.0
H290 H 0.17366 0.28865 0.27478 0.0
H291 H 0.10807 0.25966 0.20425 0.0
C292 C 0.17568 0.31957 0.57487 0.0
C293 C 0.2621 0.32017 0.55676 0.0
C294 C 0.12381 0.30931 0.5198 0.0
C295 C 0.15743 0.29895 0.4464 0.0
C296 C 0.24335 0.30078 0.42609 0.0
C297 C 0.29464 0.3114 0.47991 0.0
C298 C 0.00267 0.25673 0.3977 0.0
C299 C 0.02746 0.25122 0.31346 0.0
C300 C 0.04185 0.27286 0.43908 0.0
C301 C 0.10607 0.28432 0.39707 0.0
C302 C 0.12636 0.27985 0.31047 0.0
C303 C 0.08826 0.26331 0.26949 0.0
H304 H 0.45593 0.28048 0.93679 0.0
H305 H 0.60544 0.26768 0.70594 0.0
H306 H 0.5248 0.2528 0.00845 0.0
H307 H 0.67135 0.23868 0.7764 0.0
H308 H 0.86026 0.21575 0.96369 0.0
H309 H 0.77136 0.23453 0.87229 0.0
H310 H 0.55736 0.21907 0.03887 0.0
H311 H 0.64864 0.20141 0.13444 0.0
C312 C 0.50198 0.27132 0.90031 0.0
C313 C 0.52604 0.27658 0.81575 0.0
C314 C 0.54133 0.25516 0.94159 0.0
C315 C 0.60497 0.24344 0.89916 0.0
C316 C 0.6245 0.24769 0.81235 0.0
C317 C 0.58622 0.26423 0.77144 0.0
C318 C 0.7941 0.21612 0.98074 0.0
C319 C 0.76198 0.20744 0.05771 0.0
C320 C 0.74246 0.22679 0.92728 0.0
C321 C 0.65663 0.22877 0.94815 0.0
C322 C 0.62342 0.21852 0.02166 0.0
C323 C 0.67561 0.20817 0.0763 0.0
H324 H 0.60358 0.76138 0.20499 0.0
H325 H 0.45546 0.74802 0.43573 0.0
H326 H 0.66803 0.7904 0.27641 0.0
H327 H 0.52309 0.77565 0.50837 0.0
H328 H 0.64654 0.82644 0.63757 0.0
H329 H 0.555 0.80911 0.54152 0.0
H330 H 0.76812 0.79459 0.37136 0.0
H331 H 0.85697 0.81313 0.46302 0.0
C332 C 0.58439 0.76471 0.27068 0.0
C333 C 0.52505 0.7522 0.31466 0.0
C334 C 0.62184 0.78126 0.31216 0.0
C335 C 0.60246 0.78532 0.39928 0.0
C336 C 0.53953 0.77344 0.44136 0.0
C337 C 0.50091 0.7573 0.39948 0.0
C338 C 0.67319 0.81998 0.57853 0.0
C339 C 0.75932 0.82093 0.55895 0.0
C340 C 0.62087 0.8098 0.5236 0.0
C341 C 0.65381 0.79989 0.44886 0.0
C342 C 0.73934 0.80207 0.42724 0.0
C343 C 0.791 0.8126 0.48092 0.0
H344 H 0.36041 0.71652 0.96205 0.0
H345 H 0.14918 0.70202 0.13308 0.0
H346 H 0.27107 0.73515 0.87061 0.0
H347 H 0.0575 0.7195 0.03745 0.0
H348 H 0.95555 0.78094 0.93622 0.0
H349 H 0.02461 0.75322 0.00737 0.0
H350 H 0.17075 0.73927 0.7749 0.0
H351 H 0.1046 0.76831 0.70489 0.0
C352 C 0.29425 0.71682 0.97915 0.0
C353 C 0.26235 0.70815 0.05622 0.0
C354 C 0.24237 0.7274 0.92567 0.0
C355 C 0.15652 0.7293 0.94662 0.0
C356 C 0.12355 0.71903 0.02018 0.0
C357 C 0.17598 0.70877 0.07485 0.0
C358 C 0.00156 0.77182 0.89952 0.0
C359 C 0.02545 0.77714 0.81499 0.0
C360 C 0.041 0.75563 0.94051 0.0
C361 C 0.10462 0.74395 0.89783 0.0
C362 C 0.12393 0.74825 0.81102 0.0
C363 C 0.08551 0.76481 0.77038 0.0
H364 H -0.00915 0.03249 0.25272 0.0
H365 H 0.11802 0.05437 0.02153 0.0
H366 H 0.02058 0.99671 0.21075 0.0
H367 H 0.14301 0.01854 0.97584 0.0
H368 H 0.96882 0.93981 0.0425 0.0
H369 H 0.97504 0.97207 0.12038 0.0
H370 H 0.20968 0.98661 0.98619 0.0
H371 H 0.20015 0.95466 0.90395 0.0
C372 C 0.02409 0.02958 0.19205 0.0
C373 C 0.05071 0.04618 0.13952 0.0
C374 C 0.04133 1.00902 0.16787 0.0
C375 C 0.08376 1.00447 0.08932 0.0
C376 C 0.11164 0.02123 0.03753 0.0
C377 C 0.09624 0.04184 0.06291 0.0
C378 C 0.02321 0.94955 0.03148 0.0
C379 C 0.08254 0.94496 0.96507 0.0
C380 C 0.02697 0.96821 0.07648 0.0
C381 C 0.09133 0.98255 0.05754 0.0
C382 C 0.15724 0.97642 2e-05 0.0
C383 C 0.15281 0.95781 0.95403 0.0
H384 H 0.01144 0.09104 0.55981 0.0
H385 H 0.19705 0.06787 0.37441 0.0
H386 H 0.01725 0.05852 0.63756 0.0
H387 H 0.19972 0.03494 0.44933 0.0
H388 H 0.18739 0.97587 0.60678 0.0
H389 H 0.21798 1.01169 0.56502 0.0
H390 H 0.95591 0.02671 0.59622 0.0
H391 H 0.92586 0.99127 0.64026 0.0
C392 C 0.05593 0.07935 0.53747 0.0
C393 C 0.10267 0.08196 0.46019 0.0
C394 C 0.05818 0.06051 0.58117 0.0
C395 C 0.10618 0.04378 0.54763 0.0
C396 C 0.1614 0.04738 0.47675 0.0
C397 C 0.16025 0.06641 0.43388 0.0
C398 C 0.13629 0.98683 0.60446 0.0
C399 C 0.05403 0.98066 0.62657 0.0
C400 C 0.15396 1.00739 0.58084 0.0
C401 C 0.08972 0.02222 0.57845 0.0
C402 C 0.00745 0.01593 0.59978 0.0
C403 C -0.01008 0.99547 0.62389 0.0
H404 H 0.61972 0.55595 0.01397 0.0
H405 H 0.49858 0.5339 0.248 0.0
H406 H 0.64586 0.52011 0.9684 0.0
H407 H 0.52957 0.49818 0.20612 0.0
H408 H 0.47206 0.44174 0.03864 0.0
H409 H 0.48059 0.4739 0.11594 0.0
H410 H 0.71354 0.48805 0.9778 0.0
H411 H 0.70226 0.45593 0.89659 0.0
C412 C 0.59954 0.54339 0.05595 0.0
C413 C 0.55509 0.54764 0.13326 0.0
C414 C 0.61563 0.5228 0.03063 0.0
C415 C 0.58953 0.50602 0.08323 0.0
C416 C 0.54874 0.51052 0.16264 0.0
C417 C 0.53074 0.53103 0.18673 0.0
C418 C 0.5269 0.45126 0.02679 0.0
C419 C 0.58538 0.44644 0.95988 0.0
C420 C 0.53188 0.46991 0.07143 0.0
C421 C 0.59639 0.48412 0.05139 0.0
C422 C 0.66122 0.47789 -0.00724 0.0
C423 C 0.65574 0.45922 0.94732 0.0
H424 H 0.68461 0.47543 0.59847 0.0
H425 H 0.42283 0.49063 0.63098 0.0
H426 H 0.71478 0.51123 0.55601 0.0
H427 H 0.45251 0.52605 0.5863 0.0
H428 H 0.50921 0.59071 0.55418 0.0
H429 H 0.5135 0.5578 0.62937 0.0
H430 H 0.69688 0.53476 0.44091 0.0
H431 H 0.69565 0.56805 0.36843 0.0
C432 C 0.63335 0.48633 0.59567 0.0
C433 C 0.55116 0.48012 0.61796 0.0
C434 C 0.65078 0.50688 0.57164 0.0
C435 C 0.58639 0.52167 0.56904 0.0
C436 C 0.50415 0.51531 0.59006 0.0
C437 C 0.48684 0.49486 0.61454 0.0
C438 C 0.55355 0.57904 0.53124 0.0
C439 C 0.60116 0.58195 0.45464 0.0
C440 C 0.55488 0.55997 0.57343 0.0
C441 C 0.60284 0.54332 0.53913 0.0
C442 C 0.65861 0.54715 0.46889 0.0
C443 C 0.65833 0.56638 0.42748 0.0
loop_
_geom_bond_atom_site_label_1
_geom_bond_atom_site_label_2
_geom_bond_distance
_geom_bond_site_symmetry_2
_ccdc_geom_bond_type
C0 O27 1.312 . S
C0 O28 1.208 . S
C1 O22 1.331 . S
C1 O25 1.244 . S
C2 O24 1.264 . S
C2 O26 1.273 . S
Mg3 O5 1.936 1_455 S
Mg3 O12 2.081 . S
Mg3 O14 2.023 . S
Mg3 O18 2.031 . S
Mg3 O27 2.291 . S
Mg4 O5 1.963 . S
Mg4 O15 1.942 . S
Mg4 O16 1.955 . S
Mg4 O23 1.986 . S
O5 Mg3 1.936 1_655 S
O5 Mg4 1.963 . S
O5 Mg6 1.915 . S
Mg6 O5 1.915 . S
Mg6 O7 1.915 1_655 S
Mg6 O11 2.013 . S
Mg6 O17 2.114 1_655 S
Mg6 O21 2.013 . S
Mg6 O27 2.114 1_655 S
O7 Mg6 1.915 1_455 S
O7 Mg8 1.936 . S
O7 Mg9 1.963 1_455 S
Mg8 O7 1.936 . S
Mg8 O17 2.291 . S
Mg8 O22 2.081 . S
Mg8 O24 2.023 1_455 S
Mg8 O28 2.031 . S
Mg9 O7 1.963 1_655 S
Mg9 O13 1.986 . S
Mg9 O25 1.942 1_655 S
Mg9 O26 1.955 . S
C10 O21 1.191 . S
C10 O23 1.307 . S
O11 Mg6 2.013 . S
O11 C30 1.191 . S
O12 Mg3 2.081 . S
O12 C20 1.331 1_455 S
O13 Mg9 1.986 . S
O13 C30 1.307 . S
O14 Mg3 2.023 . S
O14 C29 1.264 . S
O15 Mg4 1.942 . S
O15 C20 1.244 . S
O16 Mg4 1.955 . S
O16 C29 1.273 1_655 S
O17 Mg6 2.114 1_455 S
O17 Mg8 2.291 . S
O17 C19 1.312 . S
O18 Mg3 2.031 . S
O18 C19 1.208 . S
C19 O17 1.312 . S
C19 O18 1.208 . S
C20 O12 1.331 1_655 S
C20 O15 1.244 . S
O21 Mg6 2.013 . S
O21 C10 1.191 . S
O22 C1 1.331 . S
O22 Mg8 2.081 . S
O23 Mg4 1.986 . S
O23 C10 1.307 . S
O24 C2 1.264 . S
O24 Mg8 2.023 1_655 S
O25 C1 1.244 . S
O25 Mg9 1.942 1_455 S
O26 C2 1.273 . S
O26 Mg9 1.955 . S
O27 C0 1.312 . S
O27 Mg3 2.291 . S
O27 Mg6 2.114 1_455 S
O28 C0 1.208 . S
O28 Mg8 2.031 . S
C29 O14 1.264 . S
C29 O16 1.273 1_455 S
C30 O11 1.191 . S
C30 O13 1.307 . S
C31 O58 1.312 . S
C31 O59 1.208 . S
C32 O53 1.331 1_655 S
C32 O56 1.244 . S
C33 O55 1.264 . S
C33 O57 1.273 1_455 S
Mg34 O36 1.936 . S
Mg34 O43 2.081 . S
Mg34 O45 2.023 1_455 S
Mg34 O49 2.031 . S
Mg34 O58 2.291 . S
Mg35 O36 1.963 1_655 S
Mg35 O46 1.942 1_655 S
Mg35 O47 1.955 . S
Mg35 O54 1.986 . S
O36 Mg34 1.936 . S
O36 Mg35 1.963 1_455 S
O36 Mg37 1.915 1_455 S
Mg37 O36 1.915 1_655 S
Mg37 O38 1.915 . S
Mg37 O42 2.013 . S
Mg37 O48 2.114 1_655 S
Mg37 O52 2.013 . S
Mg37 O58 2.114 1_655 S
O38 Mg37 1.915 . S
O38 Mg39 1.936 1_655 S
O38 Mg40 1.963 . S
Mg39 O38 1.936 1_455 S
Mg39 O48 2.291 . S
Mg39 O53 2.081 . S
Mg39 O55 2.023 . S
Mg39 O59 2.031 . S
Mg40 O38 1.963 . S
Mg40 O44 1.986 . S
Mg40 O56 1.942 . S
Mg40 O57 1.955 . S
C41 O52 1.191 . S
C41 O54 1.307 . S
O42 Mg37 2.013 . S
O42 C61 1.191 . S
O43 Mg34 2.081 . S
O43 C51 1.331 . S
O44 Mg40 1.986 . S
O44 C61 1.307 . S
O45 Mg34 2.023 1_655 S
O45 C60 1.264 . S
O46 Mg35 1.942 1_455 S
O46 C51 1.244 . S
O47 Mg35 1.955 . S
O47 C60 1.273 . S
O48 Mg37 2.114 1_455 S
O48 Mg39 2.291 . S
O48 C50 1.312 . S
O49 Mg34 2.031 . S
O49 C50 1.208 . S
C50 O48 1.312 . S
C50 O49 1.208 . S
C51 O43 1.331 . S
C51 O46 1.244 . S
O52 Mg37 2.013 . S
O52 C41 1.191 . S
O53 C32 1.331 1_455 S
O53 Mg39 2.081 . S
O54 Mg35 1.986 . S
O54 C41 1.307 . S
O55 C33 1.264 . S
O55 Mg39 2.023 . S
O56 C32 1.244 . S
O56 Mg40 1.942 . S
O57 C33 1.273 1_655 S
O57 Mg40 1.955 . S
O58 C31 1.312 . S
O58 Mg34 2.291 . S
O58 Mg37 2.114 1_455 S
O59 C31 1.208 . S
O59 Mg39 2.031 . S
C60 O45 1.264 . S
C60 O47 1.273 . S
C61 O42 1.191 . S
C61 O44 1.307 . S
C62 O89 1.312 . S
C62 O90 1.208 . S
C63 O84 1.331 . S
C63 O87 1.244 . S
C64 O86 1.264 . S
C64 O88 1.273 . S
Mg65 O67 1.936 . S
Mg65 O74 2.081 . S
Mg65 O76 2.023 . S
Mg65 O80 2.031 . S
Mg65 O89 2.291 . S
Mg66 O67 1.963 . S
Mg66 O77 1.942 . S
Mg66 O78 1.955 . S
Mg66 O85 1.986 . S
O67 Mg65 1.936 . S
O67 Mg66 1.963 . S
O67 Mg68 1.915 . S
Mg68 O67 1.915 . S
Mg68 O69 1.915 . S
Mg68 O73 2.013 . S
Mg68 O79 2.114 . S
Mg68 O83 2.013 . S
Mg68 O89 2.114 . S
O69 Mg68 1.915 . S
O69 Mg70 1.936 . S
O69 Mg71 1.963 . S
Mg70 O69 1.936 . S
Mg70 O79 2.291 . S
Mg70 O84 2.081 . S
Mg70 O86 2.023 . S
Mg70 O90 2.031 . S
Mg71 O69 1.963 . S
Mg71 O75 1.986 . S
Mg71 O87 1.942 . S
Mg71 O88 1.955 . S
C72 O83 1.191 . S
C72 O85 1.307 . S
O73 Mg68 2.013 . S
O73 C92 1.191 . S
O74 Mg65 2.081 . S
O74 C82 1.331 . S
O75 Mg71 1.986 . S
O75 C92 1.307 . S
O76 Mg65 2.023 . S
O76 C91 1.264 . S
O77 Mg66 1.942 . S
O77 C82 1.244 . S
O78 Mg66 1.955 . S
O78 C91 1.273 . S
O79 Mg68 2.114 . S
O79 Mg70 2.291 . S
O79 C81 1.312 . S
O80 Mg65 2.031 . S
O80 C81 1.208 . S
C81 O79 1.312 . S
C81 O80 1.208 . S
C82 O74 1.331 . S
C82 O77 1.244 . S
O83 Mg68 2.013 . S
O83 C72 1.191 . S
O84 C63 1.331 . S
O84 Mg70 2.081 . S
O85 Mg66 1.986 . S
O85 C72 1.307 . S
O86 C64 1.264 . S
O86 Mg70 2.023 . S
O87 C63 1.244 . S
O87 Mg71 1.942 . S
O88 C64 1.273 . S
O88 Mg71 1.955 . S
O89 C62 1.312 . S
O89 Mg65 2.291 . S
O89 Mg68 2.114 . S
O90 C62 1.208 . S
O90 Mg70 2.031 . S
C91 O76 1.264 . S
C91 O78 1.273 . S
C92 O73 1.191 . S
C92 O75 1.307 . S
C93 O120 1.312 . S
C93 O121 1.208 . S
C94 O115 1.331 . S
C94 O118 1.244 . S
C95 O117 1.264 . S
C95 O119 1.273 . S
Mg96 O98 1.936 . S
Mg96 O105 2.081 . S
Mg96 O107 2.023 . S
Mg96 O111 2.031 . S
Mg96 O120 2.291 . S
Mg97 O98 1.963 . S
Mg97 O108 1.942 . S
Mg97 O109 1.955 . S
Mg97 O116 1.986 . S
O98 Mg96 1.936 . S
O98 Mg97 1.963 . S
O98 Mg99 1.915 . S
Mg99 O98 1.915 . S
Mg99 O100 1.915 . S
Mg99 O104 2.013 . S
Mg99 O110 2.114 . S
Mg99 O114 2.013 . S
Mg99 O120 2.114 . S
O100 Mg99 1.915 . S
O100 Mg101 1.936 . S
O100 Mg102 1.963 . S
Mg101 O100 1.936 . S
Mg101 O110 2.291 . S
Mg101 O115 2.081 . S
Mg101 O117 2.023 . S
Mg101 O121 2.031 . S
Mg102 O100 1.963 . S
Mg102 O106 1.986 . S
Mg102 O118 1.942 . S
Mg102 O119 1.955 . S
C103 O114 1.191 . S
C103 O116 1.307 . S
O104 Mg99 2.013 . S
O104 C123 1.191 . S
O105 Mg96 2.081 . S
O105 C113 1.331 . S
O106 Mg102 1.986 . S
O106 C123 1.307 . S
O107 Mg96 2.023 . S
O107 C122 1.264 . S
O108 Mg97 1.942 . S
O108 C113 1.244 . S
O109 Mg97 1.955 . S
O109 C122 1.273 . S
O110 Mg99 2.114 . S
O110 Mg101 2.291 . S
O110 C112 1.312 . S
O111 Mg96 2.031 . S
O111 C112 1.208 . S
C112 O110 1.312 . S
C112 O111 1.208 . S
C113 O105 1.331 . S
C113 O108 1.244 . S
O114 Mg99 2.013 . S
O114 C103 1.191 . S
O115 C94 1.331 . S
O115 Mg101 2.081 . S
O116 Mg97 1.986 . S
O116 C103 1.307 . S
O117 C95 1.264 . S
O117 Mg101 2.023 . S
O118 C94 1.244 . S
O118 Mg102 1.942 . S
O119 C95 1.273 . S
O119 Mg102 1.955 . S
O120 C93 1.312 . S
O120 Mg96 2.291 . S
O120 Mg99 2.114 . S
O121 C93 1.208 . S
O121 Mg101 2.031 . S
C122 O107 1.264 . S
C122 O109 1.273 . S
C123 O104 1.191 . S
C123 O106 1.307 . S
H124 C132 0.950 . S
H125 C137 0.950 . S
H126 C134 0.950 . S
H127 C136 0.950 . S
H128 C138 0.950 . S
H129 C140 0.950 . S
H130 C142 0.950 . S
H131 C143 0.950 . S
C132 H124 0.950 . S
C132 C133 1.386 1_655 S
C132 C134 1.391 . S
C133 C132 1.386 1_455 S
C133 C137 1.393 . S
C134 H126 0.950 . S
C134 C132 1.391 . S
C134 C135 1.400 1_655 S
C135 C134 1.400 1_455 S
C135 C136 1.398 . S
C135 C141 1.491 1_455 S
C136 H127 0.950 . S
C136 C135 1.398 . S
C136 C137 1.391 . S
C137 H125 0.950 . S
C137 C133 1.393 . S
C137 C136 1.391 . S
C138 H128 0.950 . S
C138 C139 1.386 1_455 S
C138 C140 1.391 . S
C139 C138 1.386 1_655 S
C139 C143 1.393 . S
C140 H129 0.950 . S
C140 C138 1.391 . S
C140 C141 1.400 1_455 S
C141 C135 1.491 1_655 S
C141 C140 1.400 1_655 S
C141 C142 1.398 . S
C142 H130 0.950 . S
C142 C141 1.398 . S
C142 C143 1.391 . S
C143 H131 0.950 . S
C143 C139 1.393 . S
C143 C142 1.391 . S
H144 C152 0.950 . S
H145 C157 0.950 . S
H146 C154 0.950 . S
H147 C156 0.950 . S
H148 C158 0.950 . S
H149 C160 0.950 . S
H150 C162 0.950 . S
H151 C163 0.950 . S
C152 H144 0.950 . S
C152 C153 1.386 . S
C152 C154 1.391 . S
C153 C152 1.386 . S
C153 C157 1.393 1_455 S
C154 H146 0.950 . S
C154 C152 1.391 . S
C154 C155 1.400 . S
C155 C154 1.400 . S
C155 C156 1.398 1_455 S
C155 C161 1.491 1_455 S
C156 H147 0.950 . S
C156 C155 1.398 1_655 S
C156 C157 1.391 . S
C157 H145 0.950 . S
C157 C153 1.393 1_655 S
C157 C156 1.391 . S
C158 H148 0.950 . S
C158 C159 1.386 . S
C158 C160 1.391 . S
C159 C158 1.386 . S
C159 C163 1.393 1_655 S
C160 H149 0.950 . S
C160 C158 1.391 . S
C160 C161 1.400 . S
C161 C155 1.491 1_655 S
C161 C160 1.400 . S
C161 C162 1.398 1_655 S
C162 H150 0.950 . S
C162 C161 1.398 1_455 S
C162 C163 1.391 . S
C163 H151 0.950 . S
C163 C159 1.393 1_455 S
C163 C162 1.391 . S
H164 C172 0.950 . S
H165 C177 0.950 . S
H166 C174 0.950 . S
H167 C176 0.950 . S
H168 C178 0.950 . S
H169 C180 0.950 . S
H170 C182 0.950 . S
H171 C183 0.950 . S
C172 H164 0.950 . S
C172 C173 1.386 . S
C172 C174 1.391 . S
C173 C172 1.386 . S
C173 C177 1.393 . S
C174 H166 0.950 . S
C174 C172 1.391 . S
C174 C175 1.400 . S
C175 C174 1.400 . S
C175 C176 1.398 . S
C175 C181 1.491 . S
C176 H167 0.950 . S
C176 C175 1.398 . S
C176 C177 1.391 . S
C177 H165 0.950 . S
C177 C173 1.393 . S
C177 C176 1.391 . S
C178 H168 0.950 . S
C178 C179 1.386 . S
C178 C180 1.391 . S
C179 C178 1.386 . S
C179 C183 1.393 . S
C180 H169 0.950 . S
C180 C178 1.391 . S
C180 C181 1.400 . S
C181 C175 1.491 . S
C181 C180 1.400 . S
C181 C182 1.398 . S
C182 H170 0.950 . S
C182 C181 1.398 . S
C182 C183 1.391 . S
C183 H171 0.950 . S
C183 C179 1.393 . S
C183 C182 1.391 . S
H184 C192 0.950 . S
H185 C197 0.950 . S
H186 C194 0.950 . S
H187 C196 0.950 . S
H188 C198 0.950 . S
H189 C200 0.950 . S
H190 C202 0.950 . S
H191 C203 0.950 . S
C192 H184 0.950 . S
C192 C193 1.386 . S
C192 C194 1.391 . S
C193 C192 1.386 . S
C193 C197 1.393 . S
C194 H186 0.950 . S
C194 C192 1.391 . S
C194 C195 1.400 . S
C195 C194 1.400 . S
C195 C196 1.398 . S
C195 C201 1.491 . S
C196 H187 0.950 . S
C196 C195 1.398 . S
C196 C197 1.391 . S
C197 H185 0.950 . S
C197 C193 1.393 . S
C197 C196 1.391 . S
C198 H188 0.950 . S
C198 C199 1.386 . S
C198 C200 1.391 . S
C199 C198 1.386 . S
C199 C203 1.393 . S
C200 H189 0.950 . S
C200 C198 1.391 . S
C200 C201 1.400 . S
C201 C195 1.491 . S
C201 C200 1.400 . S
C201 C202 1.398 . S
C202 H190 0.950 . S
C202 C201 1.398 . S
C202 C203 1.391 . S
C203 H191 0.950 . S
C203 C199 1.393 . S
C203 C202 1.391 . S
H204 C212 0.950 . S
H205 C217 0.950 . S
H206 C214 0.950 . S
H207 C216 0.950 . S
H208 C218 0.950 . S
H209 C220 0.950 . S
H210 C222 0.950 . S
H211 C223 0.950 . S
C212 H204 0.950 . S
C212 C213 1.386 . S
C212 C214 1.391 . S
C213 C212 1.386 . S
C213 C217 1.393 . S
C214 H206 0.950 . S
C214 C212 1.391 . S
C214 C215 1.400 . S
C215 C214 1.400 . S
C215 C216 1.398 . S
C215 C221 1.491 . S
C216 H207 0.950 . S
C216 C215 1.398 . S
C216 C217 1.391 . S
C217 H205 0.950 . S
C217 C213 1.393 . S
C217 C216 1.391 . S
C218 H208 0.950 . S
C218 C219 1.386 . S
C218 C220 1.391 . S
C219 C218 1.386 . S
C219 C223 1.393 . S
C220 H209 0.950 . S
C220 C218 1.391 . S
C220 C221 1.400 . S
C221 C215 1.491 . S
C221 C220 1.400 . S
C221 C222 1.398 . S
C222 H210 0.950 . S
C222 C221 1.398 . S
C222 C223 1.391 . S
C223 H211 0.950 . S
C223 C219 1.393 . S
C223 C222 1.391 . S
H224 C232 0.950 . S
H225 C237 0.950 . S
H226 C234 0.950 . S
H227 C236 0.950 . S
H228 C238 0.950 . S
H229 C240 0.950 . S
H230 C242 0.950 . S
H231 C243 0.950 . S
C232 H224 0.950 . S
C232 C233 1.386 . S
C232 C234 1.391 . S
C233 C232 1.386 . S
C233 C237 1.393 . S
C234 H226 0.950 . S
C234 C232 1.391 . S
C234 C235 1.400 . S
C235 C234 1.400 . S
C235 C236 1.398 . S
C235 C241 1.491 . S
C236 H227 0.950 . S
C236 C235 1.398 . S
C236 C237 1.391 . S
C237 H225 0.950 . S
C237 C233 1.393 . S
C237 C236 1.391 . S
C238 H228 0.950 . S
C238 C239 1.386 . S
C238 C240 1.391 . S
C239 C238 1.386 . S
C239 C243 1.393 . S
C240 H229 0.950 . S
C240 C238 1.391 . S
C240 C241 1.400 . S
C241 C235 1.491 . S
C241 C240 1.400 . S
C241 C242 1.398 . S
C242 H230 0.950 . S
C242 C241 1.398 . S
C242 C243 1.391 . S
C243 H231 0.950 . S
C243 C239 1.393 . S
C243 C242 1.391 . S
H244 C252 0.950 . S
H245 C257 0.950 . S
H246 C254 0.950 . S
H247 C256 0.950 . S
H248 C258 0.950 . S
H249 C260 0.950 . S
H250 C262 0.950 . S
H251 C263 0.950 . S
C252 H244 0.950 . S
C252 C253 1.386 . S
C252 C254 1.391 . S
C253 C252 1.386 . S
C253 C257 1.393 . S
C254 H246 0.950 . S
C254 C252 1.391 . S
C254 C255 1.400 . S
C255 C254 1.400 . S
C255 C256 1.398 . S
C255 C261 1.491 1_655 S
C256 H247 0.950 . S
C256 C255 1.398 . S
C256 C257 1.391 . S
C257 H245 0.950 . S
C257 C253 1.393 . S
C257 C256 1.391 . S
C258 H248 0.950 . S
C258 C259 1.386 . S
C258 C260 1.391 . S
C259 C258 1.386 . S
C259 C263 1.393 . S
C260 H249 0.950 . S
C260 C258 1.391 . S
C260 C261 1.400 . S
C261 C255 1.491 1_455 S
C261 C260 1.400 . S
C261 C262 1.398 . S
C262 H250 0.950 . S
C262 C261 1.398 . S
C262 C263 1.391 . S
C263 H251 0.950 . S
C263 C259 1.393 . S
C263 C262 1.391 . S
H264 C272 0.950 . S
H265 C277 0.950 . S
H266 C274 0.950 . S
H267 C276 0.950 . S
H268 C278 0.950 . S
H269 C280 0.950 . S
H270 C282 0.950 . S
H271 C283 0.950 . S
C272 H264 0.950 . S
C272 C273 1.386 . S
C272 C274 1.391 . S
C273 C272 1.386 . S
C273 C277 1.393 . S
C274 H266 0.950 . S
C274 C272 1.391 . S
C274 C275 1.400 . S
C275 C274 1.400 . S
C275 C276 1.398 . S
C275 C281 1.491 1_655 S
C276 H267 0.950 . S
C276 C275 1.398 . S
C276 C277 1.391 . S
C277 H265 0.950 . S
C277 C273 1.393 . S
C277 C276 1.391 . S
C278 H268 0.950 . S
C278 C279 1.386 . S
C278 C280 1.391 . S
C279 C278 1.386 . S
C279 C283 1.393 . S
C280 H269 0.950 . S
C280 C278 1.391 . S
C280 C281 1.400 . S
C281 C275 1.491 1_455 S
C281 C280 1.400 . S
C281 C282 1.398 . S
C282 H270 0.950 . S
C282 C281 1.398 . S
C282 C283 1.391 . S
C283 H271 0.950 . S
C283 C279 1.393 . S
C283 C282 1.391 . S
H284 C292 0.950 . S
H285 C297 0.950 . S
H286 C294 0.950 . S
H287 C296 0.950 . S
H288 C298 0.950 . S
H289 C300 0.950 . S
H290 C302 0.950 . S
H291 C303 0.950 . S
C292 H284 0.950 . S
C292 C293 1.386 . S
C292 C294 1.391 . S
C293 C292 1.386 . S
C293 C297 1.393 . S
C294 H286 0.950 . S
C294 C292 1.391 . S
C294 C295 1.400 . S
C295 C294 1.400 . S
C295 C296 1.398 . S
C295 C301 1.491 . S
C296 H287 0.950 . S
C296 C295 1.398 . S
C296 C297 1.391 . S
C297 H285 0.950 . S
C297 C293 1.393 . S
C297 C296 1.391 . S
C298 H288 0.950 . S
C298 C299 1.386 . S
C298 C300 1.391 . S
C299 C298 1.386 . S
C299 C303 1.393 . S
C300 H289 0.950 . S
C300 C298 1.391 . S
C300 C301 1.400 . S
C301 C295 1.491 . S
C301 C300 1.400 . S
C301 C302 1.398 . S
C302 H290 0.950 . S
C302 C301 1.398 . S
C302 C303 1.391 . S
C303 H291 0.950 . S
C303 C299 1.393 . S
C303 C302 1.391 . S
H304 C312 0.950 . S
H305 C317 0.950 . S
H306 C314 0.950 . S
H307 C316 0.950 . S
H308 C318 0.950 . S
H309 C320 0.945 1_556 S
H310 C322 0.950 . S
H311 C323 0.950 . S
C312 H304 0.950 . S
C312 C313 1.386 . S
C312 C314 1.391 1_556 S
C313 C312 1.386 . S
C313 C317 1.393 . S
C314 H306 0.950 . S
C314 C312 1.391 1_554 S
C314 C315 1.400 1_554 S
C315 C314 1.400 1_556 S
C315 C316 1.398 . S
C315 C321 1.491 1_556 S
C316 H307 0.950 . S
C316 C315 1.398 . S
C316 C317 1.391 . S
C317 H305 0.950 . S
C317 C313 1.393 . S
C317 C316 1.391 . S
C318 H308 0.950 . S
C318 C319 1.386 . S
C318 C320 1.394 . S
C319 C318 1.386 . S
C319 C323 1.393 . S
C320 H309 0.945 1_554 S
C320 C318 1.394 . S
C320 C321 1.402 . S
C321 C315 1.491 1_554 S
C321 C320 1.402 . S
C321 C322 1.398 . S
C322 H310 0.950 . S
C322 C321 1.398 . S
C322 C323 1.391 . S
C323 H311 0.950 . S
C323 C319 1.393 . S
C323 C322 1.391 . S
H324 C332 0.950 . S
H325 C337 0.950 . S
H326 C334 0.950 . S
H327 C336 0.950 . S
H328 C338 0.950 . S
H329 C340 0.950 . S
H330 C342 0.950 . S
H331 C343 0.950 . S
C332 H324 0.950 . S
C332 C333 1.386 . S
C332 C334 1.391 . S
C333 C332 1.386 . S
C333 C337 1.393 . S
C334 H326 0.950 . S
C334 C332 1.391 . S
C334 C335 1.400 . S
C335 C334 1.400 . S
C335 C336 1.398 . S
C335 C341 1.491 . S
C336 H327 0.950 . S
C336 C335 1.398 . S
C336 C337 1.391 . S
C337 H325 0.950 . S
C337 C333 1.393 . S
C337 C336 1.391 . S
C338 H328 0.950 . S
C338 C339 1.386 . S
C338 C340 1.391 . S
C339 C338 1.386 . S
C339 C343 1.393 . S
C340 H329 0.950 . S
C340 C338 1.391 . S
C340 C341 1.400 . S
C341 C335 1.491 . S
C341 C340 1.400 . S
C341 C342 1.398 . S
C342 H330 0.950 . S
C342 C341 1.398 . S
C342 C343 1.391 . S
C343 H331 0.950 . S
C343 C339 1.393 . S
C343 C342 1.391 . S
H344 C352 0.950 . S
H345 C357 0.950 . S
H346 C354 0.950 1_556 S
H347 C356 0.950 . S
H348 C358 0.950 . S
H349 C360 0.950 1_554 S
H350 C362 0.950 . S
H351 C363 0.950 . S
C352 H344 0.950 . S
C352 C353 1.386 . S
C352 C354 1.391 . S
C353 C352 1.386 . S
C353 C357 1.393 . S
C354 H346 0.950 1_554 S
C354 C352 1.391 . S
C354 C355 1.400 . S
C355 C354 1.400 . S
C355 C356 1.398 . S
C355 C361 1.491 1_554 S
C356 H347 0.950 . S
C356 C355 1.398 . S
C356 C357 1.391 . S
C357 H345 0.950 . S
C357 C353 1.393 . S
C357 C356 1.391 . S
C358 H348 0.950 . S
C358 C359 1.386 . S
C358 C360 1.391 . S
C359 C358 1.386 . S
C359 C363 1.393 . S
C360 H349 0.950 1_556 S
C360 C358 1.391 . S
C360 C361 1.400 . S
C361 C355 1.491 1_556 S
C361 C360 1.400 . S
C361 C362 1.398 . S
C362 H350 0.950 . S
C362 C361 1.398 . S
C362 C363 1.391 . S
C363 H351 0.950 . S
C363 C359 1.393 . S
C363 C362 1.391 . S
H364 C372 0.950 . S
H365 C377 0.950 1_556 S
H366 C374 0.950 . S
H367 C376 0.950 . S
H368 C378 0.947 1_655 S
H369 C380 0.950 . S
H370 C382 0.950 . S
H371 C383 0.950 1_554 S
C372 H364 0.950 . S
C372 C373 1.386 . S
C372 C374 1.391 1_655 S
C373 C372 1.386 . S
C373 C377 1.393 . S
C374 H366 0.950 . S
C374 C372 1.391 1_455 S
C374 C375 1.400 1_455 S
C375 C374 1.400 1_655 S
C375 C376 1.398 1_554 S
C375 C381 1.491 1_644 S
C376 H367 0.950 . S
C376 C375 1.398 1_556 S
C376 C377 1.391 1_556 S
C377 H365 0.950 1_554 S
C377 C373 1.393 . S
C377 C376 1.391 1_554 S
C378 H368 0.947 1_455 S
C378 C379 1.386 . S
C378 C380 1.391 1_455 S
C379 C378 1.386 . S
C379 C383 1.393 . S
C380 H369 0.950 . S
C380 C378 1.391 1_655 S
C380 C381 1.400 1_655 S
C381 C375 1.491 1_466 S
C381 C380 1.400 1_455 S
C381 C382 1.398 1_556 S
C382 H370 0.950 . S
C382 C381 1.398 1_554 S
C382 C383 1.391 1_554 S
C383 H371 0.950 1_556 S
C383 C379 1.393 . S
C383 C382 1.391 1_556 S
H384 C392 0.950 1_655 S
H385 C397 0.950 . S
H386 C394 0.950 . S
H387 C396 0.950 . S
H388 C398 0.950 1_455 S
H389 C400 0.950 . S
H390 C402 0.950 . S
H391 C403 0.950 . S
C392 H384 0.950 1_455 S
C392 C393 1.386 . S
C392 C394 1.391 1_455 S
C393 C392 1.386 . S
C393 C397 1.393 . S
C394 H386 0.950 . S
C394 C392 1.391 1_655 S
C394 C395 1.400 1_655 S
C395 C394 1.400 1_455 S
C395 C396 1.398 . S
C395 C401 1.491 1_445 S
C396 H387 0.950 . S
C396 C395 1.398 . S
C396 C397 1.391 . S
C397 H385 0.950 . S
C397 C393 1.393 . S
C397 C396 1.391 . S
C398 H388 0.950 1_655 S
C398 C399 1.386 . S
C398 C400 1.391 1_655 S
C399 C398 1.386 . S
C399 C403 1.393 . S
C400 H389 0.950 . S
C400 C398 1.391 1_455 S
C400 C401 1.400 1_455 S
C401 C395 1.491 1_665 S
C401 C400 1.400 1_655 S
C401 C402 1.398 . S
C402 H390 0.950 . S
C402 C401 1.398 . S
C402 C403 1.391 . S
C403 H391 0.950 . S
C403 C399 1.393 . S
C403 C402 1.391 . S
H404 C412 0.950 1_556 S
H405 C417 0.950 . S
H406 C414 0.950 . S
H407 C416 0.950 . S
H408 C418 0.950 . S
H409 C420 0.950 . S
H410 C422 0.950 . S
H411 C423 0.950 . S
C412 H404 0.950 1_554 S
C412 C413 1.386 . S
C412 C414 1.391 1_554 S
C413 C412 1.386 . S
C413 C417 1.393 . S
C414 H406 0.950 . S
C414 C412 1.391 1_556 S
C414 C415 1.400 1_556 S
C415 C414 1.400 1_554 S
C415 C416 1.398 . S
C415 C421 1.491 1_554 S
C416 H407 0.950 . S
C416 C415 1.398 . S
C416 C417 1.391 . S
C417 H405 0.950 . S
C417 C413 1.393 . S
C417 C416 1.391 . S
C418 H408 0.950 . S
C418 C419 1.386 . S
C418 C420 1.391 1_556 S
C419 C418 1.386 . S
C419 C423 1.393 . S
C420 H409 0.950 . S
C420 C418 1.391 1_554 S
C420 C421 1.400 1_554 S
C421 C415 1.491 1_556 S
C421 C420 1.400 1_556 S
C421 C422 1.398 . S
C422 H410 0.950 . S
C422 C421 1.398 . S
C422 C423 1.391 . S
C423 H411 0.950 . S
C423 C419 1.393 . S
C423 C422 1.391 . S
H424 C432 0.950 . S
H425 C437 0.950 . S
H426 C434 0.950 . S
H427 C436 0.950 . S
H428 C438 0.950 . S
H429 C440 0.950 . S
H430 C442 0.950 . S
H431 C443 0.950 . S
C432 H424 0.950 . S
C432 C433 1.386 . S
C432 C434 1.391 . S
C433 C432 1.386 . S
C433 C437 1.393 . S
C434 H426 0.950 . S
C434 C432 1.391 . S
C434 C435 1.400 . S
C435 C434 1.400 . S
C435 C436 1.398 . S
C435 C441 1.491 . S
C436 H427 0.950 . S
C436 C435 1.398 . S
C436 C437 1.391 . S
C437 H425 0.950 . S
C437 C433 1.393 . S
C437 C436 1.391 . S
C438 H428 0.950 . S
C438 C439 1.386 . S
C438 C440 1.391 . S
C439 C438 1.386 . S
C439 C443 1.393 . S
C440 H429 0.950 . S
C440 C438 1.391 . S
C440 C441 1.400 . S
C441 C435 1.491 . S
C441 C440 1.400 . S
C441 C442 1.398 . S
C442 H430 0.950 . S
C442 C441 1.398 . S
C442 C443 1.391 . S
C443 H431 0.950 . S
C443 C439 1.393 . S
C443 C442 1.391 . S
C133 C19 1.306 1_556 S
C139 C30 1.311 . S
C153 C31 1.300 . S
C159 C41 1.308 1_554 S
C173 C62 1.287 1_556 S
C179 C72 1.293 . S
C193 C103 1.311 1_554 S
C199 C93 1.306 . S
C213 C10 1.255 . S
C219 C0 1.233 . S
C233 C61 1.253 . S
C239 C50 1.232 . S
C253 C81 1.233 . S
C259 C92 1.255 . S
C273 C112 1.260 . S
C279 C123 1.276 . S
C293 C122 1.818 . S
C299 C1 1.815 . S
C313 C113 1.814 . S
C319 C2 1.814 . S
C333 C82 1.812 . S
C339 C60 1.814 . S
C353 C91 1.825 . S
C359 C51 1.823 . S
C373 C20 1.473 . S
C379 C33 1.454 . S
C393 C29 1.448 . S
C399 C32 1.467 . S
C413 C63 1.444 . S
C419 C95 1.422 . S
C433 C94 1.483 . S
C439 C64 1.464 . S
