# Generated by pormake.
# Topology snk, (6)-cn, num edge types: 1
# Building blocks:
#     Node 0, Type 0, BuildingBlock: CUWYAW_clean_sbu_0, # of connection points: 6
#     Node 1, Type 0, BuildingBlock: CUWYAW_clean_sbu_0, # of connection points: 6
#     Node 2, Type 0, BuildingBlock: CUWYAW_clean_sbu_0, # of connection points: 6
#     Node 3, Type 0, BuildingBlock: CUWYAW_clean_sbu_0, # of connection points: 6
#     Node 4, Type 0, BuildingBlock: CUWYAW_clean_sbu_0, # of connection points: 6
#     Node 5, Type 0, BuildingBlock: CUWYAW_clean_sbu_0, # of connection points: 6
#     Node 6, Type 0, BuildingBlock: CUWYAW_clean_sbu_0, # of connection points: 6
#     Node 7, Type 0, BuildingBlock: CUWYAW_clean_sbu_0, # of connection points: 6
#     Edge 8, Type (0, 0), BuildingBlock: OJICUG_clean_linker_0, # of connection points: 2
#     Edge 9, Type (0, 0), BuildingBlock: OJICUG_clean_linker_0, # of connection points: 2
#     Edge 10, Type (0, 0), BuildingBlock: OJICUG_clean_linker_0, # of connection points: 2
#     Edge 11, Type (0, 0), BuildingBlock: OJICUG_clean_linker_0, # of connection points: 2
#     Edge 12, Type (0, 0), BuildingBlock: OJICUG_clean_linker_0, # of connection points: 2
#     Edge 13, Type (0, 0), BuildingBlock: OJICUG_clean_linker_0, # of connection points: 2
#     Edge 14, Type (0, 0), BuildingBlock: OJICUG_clean_linker_0, # of connection points: 2
#     Edge 15, Type (0, 0), BuildingBlock: OJICUG_clean_linker_0, # of connection points: 2
#     Edge 16, Type (0, 0), BuildingBlock: OJICUG_clean_linker_0, # of connection points: 2
#     Edge 17, Type (0, 0), BuildingBlock: OJICUG_clean_linker_0, # of connection points: 2
#     Edge 18, Type (0, 0), BuildingBlock: OJICUG_clean_linker_0, # of connection points: 2
#     Edge 19, Type (0, 0), BuildingBlock: OJICUG_clean_linker_0, # of connection points: 2
#     Edge 20, Type (0, 0), BuildingBlock: OJICUG_clean_linker_0, # of connection points: 2
#     Edge 21, Type (0, 0), BuildingBlock: OJICUG_clean_linker_0, # of connection points: 2
#     Edge 22, Type (0, 0), BuildingBlock: OJICUG_clean_linker_0, # of connection points: 2
#     Edge 23, Type (0, 0), BuildingBlock: OJICUG_clean_linker_0, # of connection points: 2
#     Edge 24, Type (0, 0), BuildingBlock: OJICUG_clean_linker_0, # of connection points: 2
#     Edge 25, Type (0, 0), BuildingBlock: OJICUG_clean_linker_0, # of connection points: 2
#     Edge 26, Type (0, 0), BuildingBlock: OJICUG_clean_linker_0, # of connection points: 2
#     Edge 27, Type (0, 0), BuildingBlock: OJICUG_clean_linker_0, # of connection points: 2
#     Edge 28, Type (0, 0), BuildingBlock: OJICUG_clean_linker_0, # of connection points: 2
#     Edge 29, Type (0, 0), BuildingBlock: OJICUG_clean_linker_0, # of connection points: 2
#     Edge 30, Type (0, 0), BuildingBlock: OJICUG_clean_linker_0, # of connection points: 2
#     Edge 31, Type (0, 0), BuildingBlock: OJICUG_clean_linker_0, # of connection points: 2
# Relax obj value: 0.112
# Max RMSD: 0.196
# Mean RMSD: 0.157
data_MOF--net-snk--node1-CUWYAW_clean_sbu_0--edge1-OJICUG_clean_linker_0
_symmetry_space_group_name_H-M    P1
_symmetry_Int_Tables_number       1
_symmetry_cell_setting            triclinic
loop_
_symmetry_equiv_pos_as_xyz
'x, y, z'
_cell_length_a     26.499724
_cell_length_b     26.417341
_cell_length_c     20.98406
_cell_angle_alpha  96.194024
_cell_angle_beta   96.259398
_cell_angle_gamma 90.332496
loop_
_atom_site_label
_atom_site_type_symbol
_atom_site_fract_x
_atom_site_fract_y
_atom_site_fract_z
_atom_type_partial_charge
C0 C 0.05024 0.07149 0.71284 0.0
Eu1 Eu 0.02184 0.03853 0.59211 0.0
C2 C 0.04225 0.05718 0.77718 0.0
C3 C 0.0466 0.09457 0.83032 0.0
C4 C 0.03765 0.08228 0.89143 0.0
C5 C 0.02401 0.0322 0.90075 0.0
C6 C 0.01995 0.99472 0.84716 0.0
C7 C 0.02899 0.00708 0.78604 0.0
C8 C 0.95612 0.08543 0.51112 0.0
C9 C 0.93155 0.95224 0.58444 0.0
C10 C 0.95814 0.94124 0.34218 0.0
Eu11 Eu 0.98562 0.97461 0.46299 0.0
C12 C 0.96588 0.95608 0.27802 0.0
C13 C 0.96218 0.91887 0.22471 0.0
C14 C 0.97096 0.93162 0.16375 0.0
C15 C 0.98378 0.98197 0.15476 0.0
C16 C 0.98729 0.01928 0.20851 0.0
C17 C 0.97837 0.00646 0.2695 0.0
C18 C 0.05093 0.92769 0.54442 0.0
C19 C 0.07536 0.06148 0.47066 0.0
O20 O 0.07713 0.04071 0.67746 0.0
O21 O 0.0105 0.08819 0.67936 0.0
O22 O 0.9929 0.10883 0.54909 0.0
O23 O 0.95355 0.0391 0.52028 0.0
O24 O 0.96932 0.97863 0.61935 0.0
O25 O 0.92522 0.94952 0.52073 0.0
O26 O 0.93035 0.97107 0.37746 0.0
O27 O 0.9983 0.92551 0.37583 0.0
O28 O 0.01401 0.90441 0.5066 0.0
O29 O 0.0538 0.97391 0.53479 0.0
O30 O 0.03752 0.03513 0.43587 0.0
O31 O 0.08199 0.0639 0.53431 0.0
H32 H 0.05655 0.13352 0.82445 0.0
H33 H 0.04049 0.11233 0.93113 0.0
H34 H 0.01022 0.95565 0.8525 0.0
H35 H 0.0255 0.97755 0.74569 0.0
H36 H 0.95291 0.87971 0.23034 0.0
H37 H 0.96862 0.90172 0.12389 0.0
H38 H 0.99649 0.05852 0.20338 0.0
H39 H 0.98139 0.03585 0.31 0.0
C40 C 0.21476 0.823 0.95665 0.0
Eu41 Eu 0.22889 0.78056 0.84178 0.0
C42 C 0.2237 0.80995 1.02339 0.0
C43 C 0.19419 0.83243 0.06989 0.0
C44 C 0.20077 0.8192 0.13301 0.0
C45 C 0.23705 0.78311 0.15082 0.0
C46 C 0.26683 0.76091 0.10398 0.0
C47 C 0.26015 0.77414 0.04083 0.0
C48 C 0.16978 0.70456 0.77395 0.0
C49 C 0.31014 0.68822 0.85276 0.0
C50 C 0.28413 0.68512 0.60598 0.0
Eu51 Eu 0.27081 0.72802 0.72088 0.0
C52 C 0.27524 0.6983 0.53928 0.0
C53 C 0.30475 0.67588 0.49274 0.0
C54 C 0.29823 0.68927 0.42969 0.0
C55 C 0.26201 0.72544 0.41198 0.0
C56 C 0.23224 0.7476 0.45886 0.0
C57 C 0.23886 0.73422 0.52194 0.0
C58 C 0.33021 0.80385 0.78872 0.0
C59 C 0.19023 0.821 0.71009 0.0
O60 O 0.25494 0.83153 0.92803 0.0
O61 O 0.18016 0.79555 0.91882 0.0
O62 O 0.15226 0.7458 0.80222 0.0
O63 O 0.21744 0.70402 0.78555 0.0
O64 O 0.29198 0.73067 0.88014 0.0
O65 O 0.29944 0.67303 0.79066 0.0
O66 O 0.24391 0.67718 0.63484 0.0
O67 O 0.3192 0.71208 0.64365 0.0
O68 O 0.34756 0.76287 0.7596 0.0
O69 O 0.28252 0.80436 0.77726 0.0
O70 O 0.20821 0.77848 0.68265 0.0
O71 O 0.2007 0.83595 0.77228 0.0
H72 H 0.16581 0.8601 0.05729 0.0
H73 H 0.17767 0.83753 0.16798 0.0
H74 H 0.29466 0.73255 0.11576 0.0
H75 H 0.28315 0.75606 1.0056 0.0
H76 H 0.33307 0.64815 0.50527 0.0
H77 H 0.32132 0.67097 0.39468 0.0
H78 H 0.20446 0.77603 0.44716 0.0
H79 H 0.21587 0.75228 0.55719 0.0
C80 C 0.44238 0.05275 0.86535 0.0
Eu81 Eu 0.47717 0.02719 0.97849 0.0
C82 C 0.45244 0.04047 0.79772 0.0
C83 C 0.44785 0.0786 0.756 0.0
C84 C 0.45897 0.06849 0.69226 0.0
C85 C 0.4752 0.02 0.66907 0.0
C86 C 0.47954 0.98173 0.71106 0.0
C87 C 0.46806 0.99183 0.77474 0.0
C88 C 0.54775 0.07859 0.06447 0.0
C89 C 0.56681 0.94256 0.96485 0.0
C90 C 0.54581 0.93888 0.20581 0.0
Eu91 Eu 0.51619 0.96991 0.09397 0.0
C92 C 0.54061 0.95406 0.27433 0.0
C93 C 0.55045 0.91845 0.31878 0.0
C94 C 0.54173 0.93033 0.38318 0.0
C95 C 0.523 0.97825 0.40454 0.0
C96 C 0.51408 0.01425 0.35981 0.0
C97 C 0.52259 1.00217 0.29526 0.0
C98 C 0.44821 0.91823 1.00447 0.0
C99 C 0.43121 0.05823 0.10852 0.0
O100 O 0.42197 0.01672 0.89292 0.0
O101 O 0.47836 0.07812 0.90342 0.0
O102 O 0.51141 0.10048 0.03171 0.0
O103 O 0.5481 0.03142 0.04683 0.0
O104 O 0.52944 0.96804 0.93655 0.0
O105 O 0.57453 0.94273 1.02827 0.0
O106 O 0.57369 0.96829 0.1767 0.0
O107 O 0.50392 0.92315 0.17027 0.0
O108 O 0.48635 0.89747 0.03518 0.0
O109 O 0.44594 0.96482 1.02483 0.0
O110 O 0.47042 0.03506 0.1363 0.0
O111 O 0.41984 0.05403 0.04536 0.0
H112 H 0.43606 0.11645 0.77292 0.0
H113 H 0.45576 0.09895 0.66148 0.0
H114 H 0.49133 0.94382 0.69453 0.0
H115 H 0.47149 0.96172 0.80602 0.0
H116 H 0.56383 0.8809 0.30332 0.0
H117 H 0.5483 0.90134 0.41574 0.0
H118 H 0.50034 0.05175 0.37457 0.0
H119 H 0.51433 0.03009 0.26159 0.0
C120 C 0.18744 0.20909 0.09133 0.0
Eu121 Eu 0.21998 0.23876 0.21191 0.0
C122 C 0.20071 0.21844 1.02689 0.0
C123 C 0.16299 0.21411 0.97417 0.0
C124 C 0.17446 0.224 0.91301 0.0
C125 C 0.22402 0.23859 0.90322 0.0
C126 C 0.26182 0.24261 0.95635 0.0
C127 C 0.2503 0.23258 1.01747 0.0
C128 C 0.17503 0.30887 0.28905 0.0
C129 C 0.30819 0.32732 0.21771 0.0
C130 C 0.30853 0.31289 0.4617 0.0
Eu131 Eu 0.28211 0.27828 0.34119 0.0
C132 C 0.29507 0.30262 0.52577 0.0
C133 C 0.33237 0.30784 0.57898 0.0
C134 C 0.32073 0.29757 0.6399 0.0
C135 C 0.2714 0.28182 0.64904 0.0
C136 C 0.23399 0.27684 0.59547 0.0
C137 C 0.24571 0.28709 0.5345 0.0
C138 C 0.32883 0.20762 0.26639 0.0
C139 C 0.19674 0.18653 0.33455 0.0
O140 O 0.22003 0.18378 0.1265 0.0
O141 O 0.16864 0.24755 0.12508 0.0
O142 O 0.15085 0.2699 0.25642 0.0
O143 O 0.22083 0.30969 0.27858 0.0
O144 O 0.28167 0.28906 0.18378 0.0
O145 O 0.3096 0.33576 0.28113 0.0
O146 O 0.27371 0.33366 0.42408 0.0
O147 O 0.33287 0.27701 0.43038 0.0
O148 O 0.35272 0.24474 0.30356 0.0
O149 O 0.28221 0.20731 0.27387 0.0
O150 O 0.22324 0.22457 0.36898 0.0
O151 O 0.19416 0.17949 0.27088 0.0
H152 H 0.12451 0.20308 0.9803 0.0
H153 H 0.14452 0.21968 0.87325 0.0
H154 H 0.30023 0.25432 0.95103 0.0
H155 H 0.28008 0.23613 0.05744 0.0
H156 H 0.37065 0.31992 0.57342 0.0
H157 H 0.35033 0.30255 0.68006 0.0
H158 H 0.19579 0.26425 0.60039 0.0
H159 H 0.21623 0.28265 0.49416 0.0
C160 C 0.71355 0.31757 0.44113 0.0
Eu161 Eu 0.73493 0.27988 0.32712 0.0
C162 C 0.72517 0.3066 0.50845 0.0
C163 C 0.69101 0.32142 0.55316 0.0
C164 C 0.69995 0.30948 0.61668 0.0
C165 C 0.7433 0.28232 0.63676 0.0
C166 C 0.77771 0.26781 0.59173 0.0
C167 C 0.76872 0.27983 0.52815 0.0
C168 C 0.68016 0.20518 0.25074 0.0
C169 C 0.81847 0.19019 0.34112 0.0
C170 C 0.80524 0.19398 0.09549 0.0
Eu171 Eu 0.78444 0.23319 0.20908 0.0
C172 C 0.79364 0.20449 1.02799 0.0
C173 C 0.82762 0.18902 0.98329 0.0
C174 C 0.81888 0.20086 0.91969 0.0
C175 C 0.7759 0.22853 0.89953 0.0
C176 C 0.74164 0.2436 0.94454 0.0
C177 C 0.75047 0.23176 1.00821 0.0
C178 C 0.84108 0.30528 0.28715 0.0
C179 C 0.70166 0.32467 0.19684 0.0
O180 O 0.75102 0.33435 0.41293 0.0
O181 O 0.68501 0.28373 0.40345 0.0
O182 O 0.66023 0.24537 0.27816 0.0
O183 O 0.72745 0.20517 0.26607 0.0
O184 O 0.79749 0.231 0.36851 0.0
O185 O 0.81199 0.17706 0.27815 0.0
O186 O 0.76767 0.17791 0.12416 0.0
O187 O 0.83421 0.22782 0.1326 0.0
O188 O 0.85964 0.26541 0.25699 0.0
O189 O 0.79373 0.30704 0.27158 0.0
O190 O 0.723 0.28432 0.16873 0.0
O191 O 0.70752 0.33683 0.25985 0.0
H192 H 0.65699 0.34175 0.53869 0.0
H193 H 0.67231 0.32062 0.64971 0.0
H194 H 0.81176 0.2474 0.60571 0.0
H195 H 0.79561 0.26798 0.49439 0.0
H196 H 0.86139 0.16835 0.99784 0.0
H197 H 0.84643 0.18929 0.88672 0.0
H198 H 0.70785 0.26439 0.93054 0.0
H199 H 0.72382 0.24425 0.04201 0.0
C200 C 0.68387 0.71828 0.59289 0.0
Eu201 Eu 0.71962 0.7414 0.71361 0.0
C202 C 0.69878 0.72651 0.52843 0.0
C203 C 0.6769 0.76597 0.49539 0.0
C204 C 0.69008 0.77394 0.43442 0.0
C205 C 0.72517 0.74235 0.40453 0.0
C206 C 0.7468 0.7026 0.43733 0.0
C207 C 0.73378 0.69476 0.49854 0.0
C208 C 0.676 0.8057 0.79926 0.0
C209 C 0.80845 0.82861 0.72024 0.0
C210 C 0.82063 0.79895 0.96164 0.0
Eu211 Eu 0.78645 0.77348 0.84088 0.0
C212 C 0.8054 0.79074 1.02599 0.0
C213 C 0.82565 0.7502 0.05832 0.0
C214 C 0.81209 0.74235 0.11915 0.0
C215 C 0.77811 0.775 0.1496 0.0
C216 C 0.7581 0.81581 0.11747 0.0
C217 C 0.7717 0.82369 0.05655 0.0
C218 C 0.83025 0.70744 0.75686 0.0
C219 C 0.69823 0.68502 0.83318 0.0
O220 O 0.71101 0.6872 0.62663 0.0
O221 O 0.6706 0.75859 0.62867 0.0
O222 O 0.65096 0.77108 0.75955 0.0
O223 O 0.7217 0.80819 0.78818 0.0
O224 O 0.78101 0.79153 0.68545 0.0
O225 O 0.81202 0.83431 0.78395 0.0
O226 O 0.79267 0.8288 0.92687 0.0
O227 O 0.83565 0.75894 0.92681 0.0
O228 O 0.85483 0.74326 0.79532 0.0
O229 O 0.78421 0.70584 0.76719 0.0
O230 O 0.726 0.72171 0.86847 0.0
O231 O 0.69433 0.67994 0.76946 0.0
H232 H 0.64929 0.7907 0.51658 0.0
H233 H 0.67207 0.8044 0.41021 0.0
H234 H 0.77428 0.67781 0.416 0.0
H235 H 0.75119 0.6638 0.52233 0.0
H236 H 0.85232 0.72452 0.03675 0.0
H237 H 0.82902 0.71111 0.1428 0.0
H238 H 0.73149 0.84149 0.13912 0.0
H239 H 0.75578 0.85565 0.03349 0.0
C240 C 0.55499 0.56505 0.21005 0.0
Eu241 Eu 0.52348 0.53531 0.08935 0.0
C242 C 0.54499 0.55151 0.27404 0.0
C243 C 0.54939 0.58914 0.32691 0.0
C244 C 0.53927 0.57744 0.38782 0.0
C245 C 0.52441 0.52774 0.39717 0.0
C246 C 0.52001 0.49007 0.34384 0.0
C247 C 0.53025 0.50183 0.28292 0.0
C248 C 0.4547 0.58264 1.01306 0.0
C249 C 0.43339 0.44859 0.08173 0.0
C250 C 0.45443 0.44205 0.83898 0.0
Eu251 Eu 0.48514 0.47349 0.95952 0.0
C252 C 0.46302 0.45585 0.77465 0.0
C253 C 0.45772 0.4184 0.72157 0.0
C254 C 0.467 0.43029 0.66042 0.0
C255 C 0.4819 0.47998 0.65107 0.0
C256 C 0.48689 0.51751 0.70457 0.0
C257 C 0.47751 0.50557 0.76571 0.0
C258 C 0.5545 0.42708 0.03644 0.0
C259 C 0.57456 0.56066 0.96695 0.0
O260 O 0.5783 0.53133 0.17395 0.0
O261 O 0.5178 0.58646 0.17722 0.0
O262 O 0.49205 0.60607 0.05001 0.0
O263 O 0.45338 0.53593 1.02071 0.0
O264 O 0.47122 0.47503 0.11648 0.0
O265 O 0.42633 0.44659 1.01814 0.0
O266 O 0.42965 0.47453 0.87491 0.0
O267 O 0.49312 0.42294 0.87182 0.0
O268 O 0.51692 0.40322 1.00045 0.0
O269 O 0.55532 0.47349 1.0277 0.0
O270 O 0.53636 0.53469 0.93229 0.0
O271 O 0.58218 0.56192 0.03045 0.0
H272 H 0.56044 0.62778 0.32101 0.0
H273 H 0.54235 0.6076 0.42739 0.0
H274 H 0.50926 0.45129 0.34927 0.0
H275 H 0.52666 0.4721 0.24281 0.0
H276 H 0.44675 0.37975 0.72751 0.0
H277 H 0.46339 0.40023 0.62072 0.0
H278 H 0.49761 0.5563 0.69915 0.0
H279 H 0.48165 0.53515 0.80599 0.0
C280 C 0.95025 0.55222 0.36357 0.0
Eu281 Eu 0.98531 0.52744 0.47682 0.0
C282 C 0.96181 0.54126 0.29655 0.0
C283 C 0.94934 0.57691 0.25284 0.0
C284 C 0.96121 0.56802 0.18935 0.0
C285 C 0.98586 0.52321 0.1684 0.0
C286 C 0.99826 0.48747 0.21256 0.0
C287 C 0.98639 0.49645 0.27611 0.0
C288 C 0.05154 0.58263 0.56474 0.0
C289 C 0.07729 0.44496 0.46611 0.0
C290 C 0.05766 0.44528 0.70629 0.0
Eu291 Eu 0.02506 0.47267 0.59355 0.0
C292 C 0.05182 0.46046 0.77446 0.0
C293 C 0.06544 0.4264 0.81985 0.0
C294 C 0.05668 0.43823 0.88419 0.0
C295 C 0.03398 0.4844 0.90426 0.0
C296 C 0.02118 0.5189 0.85861 0.0
C297 C 0.03002 0.507 0.7942 0.0
C298 C 0.95777 0.41882 0.50499 0.0
C299 C 0.93582 0.55672 0.6051 0.0
O300 O 0.93176 0.51447 0.38999 0.0
O301 O 0.98444 0.57928 0.40264 0.0
O302 O 0.01323 0.60179 0.53217 0.0
O303 O 0.05528 0.53565 0.54685 0.0
O304 O 0.04143 0.47133 0.43639 0.0
O305 O 0.08286 0.44343 0.5291 0.0
O306 O 0.08271 0.4768 0.67663 0.0
O307 O 0.01691 0.42595 0.67113 0.0
O308 O 0.99627 0.39897 0.53621 0.0
O309 O 0.95493 0.46547 0.52433 0.0
O310 O 0.97526 0.53477 0.63422 0.0
O311 O 0.92573 0.552 0.54171 0.0
H312 H 0.93073 0.6119 0.26797 0.0
H313 H 0.95179 0.59667 0.15698 0.0
H314 H 0.01668 0.4523 0.19786 0.0
H315 H 0.99644 0.46845 0.30921 0.0
H316 H 0.08193 0.39011 0.80525 0.0
H317 H 0.06637 0.41052 0.91779 0.0
H318 H 0.00422 0.55503 0.87262 0.0
H319 H 0.01922 0.53377 0.75972 0.0
C320 C 0.10503 0.08503 0.36846 0.0
C321 C 0.10915 0.09107 0.43634 0.0
H322 H 0.12943 0.11016 0.28305 0.0
C323 C 0.14409 0.12701 0.47037 0.0
H324 H 0.07876 0.05738 0.34065 0.0
C325 C 0.1732 0.15729 0.43717 0.0
C326 C 0.16808 0.15218 0.36925 0.0
H327 H 0.14824 0.13259 0.52259 0.0
H328 H 0.19926 0.18514 0.46495 0.0
C329 C 0.1342 0.11521 0.33528 0.0
C330 C 0.08326 0.84848 0.58664 0.0
C331 C 0.08688 0.9016 0.58797 0.0
H332 H 0.11392 0.78158 0.62389 0.0
C333 C 0.12481 0.92857 0.63059 0.0
H334 H 0.05455 0.82662 0.55415 0.0
C335 C 0.15781 0.90281 0.67235 0.0
C336 C 0.15444 0.84962 0.6699 0.0
H337 H 0.12928 0.96931 0.63126 0.0
H338 H 0.18682 0.92413 0.70496 0.0
C339 C 0.11716 0.82269 0.62653 0.0
C340 C 0.40863 0.81945 0.86461 0.0
C341 C 0.36072 0.83612 0.841 0.0
H342 H 0.4732 0.8322 0.93487 0.0
C343 C 0.34224 0.8819 0.86968 0.0
H344 H 0.42399 0.78441 0.84351 0.0
C345 C 0.37088 0.90975 0.92236 0.0
C346 C 0.41803 0.89179 0.94712 0.0
H347 H 0.30549 0.89569 0.85199 0.0
H348 H 0.35574 0.94449 0.94455 0.0
C349 C 0.43673 0.84672 0.91728 0.0
C350 C 0.43225 0.13106 0.19355 0.0
C351 C 0.40417 0.09522 0.14916 0.0
H352 H 0.43021 0.19556 0.26414 0.0
C353 C 0.35099 0.09564 0.14407 0.0
H354 H 0.4734 0.13141 0.19807 0.0
C355 C 0.32623 0.13124 0.18366 0.0
C356 C 0.3543 0.16827 0.22656 0.0
H357 H 0.32874 0.0679 0.11052 0.0
H358 H 0.28529 0.12977 0.18066 0.0
C359 C 0.40754 0.16774 0.23119 0.0
C360 C 0.90174 0.92883 0.6867 0.0
C361 C 0.89741 0.92306 0.61878 0.0
H362 H 0.87709 0.90381 0.77207 0.0
C363 C 0.86183 0.88779 0.58471 0.0
H364 H 0.9285 0.95599 0.71456 0.0
C365 C 0.83231 0.85788 0.61785 0.0
C366 C 0.83764 0.86269 0.68579 0.0
H367 H 0.85749 0.88244 0.53248 0.0
H368 H 0.80581 0.83044 0.58997 0.0
C369 C 0.87216 0.899 0.71983 0.0
C370 C 0.92305 0.16438 0.46868 0.0
C371 C 0.92044 0.11118 0.46684 0.0
H372 H 0.89173 0.23082 0.43096 0.0
C373 C 0.8838 0.08367 0.42278 0.0
H374 H 0.95063 0.18666 0.50241 0.0
C375 C 0.85139 0.10892 0.37979 0.0
C376 C 0.85384 0.16214 0.38256 0.0
H377 H 0.87987 0.04289 0.42191 0.0
H378 H 0.82349 0.08716 0.34597 0.0
C379 C 0.8895 0.18965 0.42771 0.0
C380 C 0.62508 0.12767 0.22102 0.0
C381 C 0.65176 0.1685 0.20205 0.0
H382 H 0.57113 0.06651 0.19131 0.0
C383 C 0.64668 0.17718 0.13695 0.0
H384 H 0.62799 0.12078 0.27125 0.0
C385 C 0.61365 0.14693 0.09177 0.0
C386 C 0.58632 0.10663 0.11079 0.0
H387 H 0.66703 0.20819 0.12114 0.0
H388 H 0.60891 0.15544 0.04211 0.0
C389 C 0.59286 0.09657 0.17544 0.0
C390 C 0.66605 0.84995 0.90829 0.0
C391 C 0.65147 0.84342 0.8416 0.0
H392 H 0.65063 0.88653 1.00032 0.0
C393 C 0.61058 0.87066 0.81562 0.0
H394 H 0.69644 0.82782 0.92928 0.0
C395 C 0.58447 0.90413 0.85569 0.0
C396 C 0.59805 0.91027 0.92288 0.0
H397 H 0.59856 0.86577 0.76425 0.0
H398 H 0.5528 0.92419 0.83384 0.0
C399 C 0.63945 0.88308 0.94881 0.0
C400 C 0.60371 0.58545 0.86503 0.0
C401 C 0.60847 0.59024 0.93289 0.0
H402 H 0.6284 0.61132 0.78018 0.0
C403 C 0.64471 0.6246 0.96745 0.0
H404 H 0.57646 0.55897 0.83684 0.0
C405 C 0.67453 0.65458 0.93487 0.0
C406 C 0.66887 0.65072 0.86701 0.0
H407 H 0.64942 0.62913 1.0197 0.0
H408 H 0.70154 0.68132 0.96311 0.0
C409 C 0.63363 0.61534 0.83242 0.0
C410 C 0.62523 0.32445 0.11812 0.0
C411 C 0.66467 0.35213 0.15683 0.0
H412 H 0.55898 0.32673 0.0508 0.0
C413 C 0.66802 0.40505 0.15627 0.0
H414 H 0.62152 0.28371 0.1185 0.0
C415 C 0.63272 0.42975 0.11611 0.0
C416 C 0.59274 0.40196 0.07806 0.0
H417 H 0.69845 0.42696 0.18561 0.0
H418 H 0.63689 0.47034 0.11457 0.0
C419 C 0.58932 0.34914 0.0796 0.0
C420 C 0.9457 0.34628 0.4192 0.0
C421 C 0.92721 0.39159 0.44853 0.0
H422 H 0.93337 0.28441 0.34484 0.0
C423 C 0.88015 0.40966 0.42348 0.0
H424 H 0.98195 0.33155 0.43719 0.0
C425 C 0.85168 0.38204 0.37045 0.0
C426 C 0.87036 0.33648 0.34156 0.0
H427 H 0.86513 0.44458 0.44536 0.0
H428 H 0.81526 0.39619 0.35216 0.0
C429 C 0.91789 0.31936 0.36602 0.0
C430 C 0.82924 0.63598 0.66737 0.0
C431 C 0.85587 0.66739 0.71848 0.0
H432 H 0.83403 0.57677 0.58952 0.0
C433 C 0.90821 0.66078 0.73294 0.0
H434 H 0.78887 0.63977 0.65594 0.0
C435 C 0.93347 0.62355 0.69707 0.0
C436 C 0.90728 0.59327 0.64461 0.0
H437 H 0.92971 0.6842 0.77234 0.0
H438 H 0.97392 0.61945 0.70936 0.0
C439 C 0.85498 0.59985 0.6297 0.0
C440 C 0.37327 0.39622 0.21702 0.0
C441 C 0.33823 0.36038 0.18298 0.0
H442 H 0.43048 0.4523 0.21178 0.0
C443 C 0.33312 0.3553 0.1151 0.0
H444 H 0.37809 0.4012 0.26926 0.0
C445 C 0.36327 0.38459 0.08197 0.0
C446 C 0.39923 0.41948 0.11606 0.0
H447 H 0.30609 0.32841 0.08733 0.0
H448 H 0.35893 0.3792 0.02974 0.0
C449 C 0.40348 0.4254 0.18392 0.0
C450 C 0.37893 0.58133 0.92975 0.0
C451 C 0.41701 0.60869 0.97171 0.0
H452 H 0.31571 0.58516 0.85693 0.0
C453 C 0.41914 0.66195 0.97422 0.0
H454 H 0.37548 0.54045 0.9284 0.0
C455 C 0.38385 0.68744 0.93575 0.0
C456 C 0.34668 0.6601 0.89262 0.0
H457 H 0.44786 0.68409 1.00635 0.0
H458 H 0.3861 0.72864 0.93904 0.0
C459 C 0.3446 0.60682 0.88934 0.0
C460 C 0.15756 0.62404 0.69754 0.0
C461 C 0.13942 0.67111 0.72277 0.0
H462 H 0.14354 0.5583 0.62749 0.0
C463 C 0.09201 0.68755 0.69701 0.0
H464 H 0.194 0.61051 0.71679 0.0
C465 C 0.06391 0.65844 0.64583 0.0
C466 C 0.08203 0.6117 0.6199 0.0
H467 H 0.07702 0.72364 0.71537 0.0
H468 H 0.02779 0.67269 0.62655 0.0
C469 C 0.12881 0.59427 0.64666 0.0
C470 C 0.12512 0.32474 0.38252 0.0
C471 C 0.15343 0.3439 0.33749 0.0
H472 H 0.08056 0.34265 0.4611 0.0
C473 C 0.15993 0.39671 0.33814 0.0
H474 H 0.12007 0.28404 0.38294 0.0
C475 C 0.13601 0.4301 0.38124 0.0
C476 C 0.10744 0.4109 0.42601 0.0
H477 H 0.18172 0.41204 0.30362 0.0
H478 H 0.13932 0.47078 0.37921 0.0
C479 C 0.10301 0.35809 0.42733 0.0
C480 C 0.04317 0.04132 1.0221 0.0
C481 C 0.01373 0.01933 0.96589 0.0
H482 H 0.05738 0.04649 0.1251 0.0
C483 C 0.97414 0.98521 0.97254 0.0
H484 H 0.07446 0.06715 1.01897 0.0
C485 C 0.96433 0.97334 0.03355 0.0
C486 C 0.99382 0.99525 0.08973 0.0
H487 H 0.95005 0.96819 0.93059 0.0
H488 H 0.93308 0.94746 0.03669 0.0
C489 C 0.03333 0.02948 0.08312 0.0
C490 C 0.20697 0.74772 0.31375 0.0
C491 C 0.2556 0.74023 0.34505 0.0
H492 H 0.16292 0.76623 0.22793 0.0
C493 C 0.2981 0.74705 0.31193 0.0
H494 H 0.17337 0.74204 0.33743 0.0
C495 C 0.29211 0.76096 0.2491 0.0
C496 C 0.24348 0.76842 0.21779 0.0
H497 H 0.33615 0.74243 0.33493 0.0
H498 H 0.32571 0.76662 0.22542 0.0
C499 C 0.20098 0.76162 0.25093 0.0
C500 C 0.53076 0.98149 0.58735 0.0
C501 C 0.48769 0.00958 0.60143 0.0
H502 H 0.57646 0.95078 0.51495 0.0
C503 C 0.45677 0.02791 0.55042 0.0
H504 H 0.55581 0.96749 0.62562 0.0
C505 C 0.4684 0.0181 0.48684 0.0
C506 C 0.51143 0.9899 0.4726 0.0
H507 H 0.42294 0.04911 0.55948 0.0
H508 H 0.44296 0.03177 0.44871 0.0
C509 C 0.54257 0.97191 0.5238 0.0
C510 C 0.20143 0.27527 0.79762 0.0
C511 C 0.23613 0.24962 0.838 0.0
H512 H 0.18543 0.30607 0.70732 0.0
C513 C 0.28248 0.23459 0.81545 0.0
H514 H 0.16573 0.28823 0.8136 0.0
C515 C 0.29382 0.24496 0.75442 0.0
C516 C 0.25913 0.27061 0.71407 0.0
H517 H 0.30981 0.21404 0.84457 0.0
H518 H 0.32956 0.23212 0.73844 0.0
C519 C 0.21275 0.28556 0.73653 0.0
C520 C 0.74916 0.29047 0.81957 0.0
C521 C 0.76736 0.24222 0.83214 0.0
H522 H 0.72822 0.34125 0.74862 0.0
C523 C 0.77789 0.2074 0.77985 0.0
H524 H 0.7415 0.31858 0.85869 0.0
C525 C 0.77039 0.22046 0.71668 0.0
C526 C 0.7521 0.26868 0.70413 0.0
H527 H 0.79125 0.16965 0.7876 0.0
H528 H 0.77807 0.19239 0.67753 0.0
C529 C 0.74162 0.30352 0.7564 0.0
C530 C 0.74385 0.70926 0.29249 0.0
C531 C 0.73878 0.75071 0.33924 0.0
H532 H 0.75903 0.68431 0.19605 0.0
C533 C 0.74645 0.80026 0.32294 0.0
H534 H 0.73741 0.67064 0.30298 0.0
C535 C 0.75898 0.80814 0.26159 0.0
C536 C 0.7641 0.76669 0.2148 0.0
H537 H 0.74356 0.83304 0.35802 0.0
H538 H 0.76554 0.84677 0.25125 0.0
C539 C 0.75626 0.71714 0.23109 0.0
C540 C 0.4625 0.47129 0.52987 0.0
C541 C 0.4926 0.4924 0.58598 0.0
H542 H 0.44832 0.46628 0.42689 0.0
C543 C 0.53329 0.52517 0.57931 0.0
H544 H 0.43037 0.44652 0.53308 0.0
C545 C 0.5436 0.53651 0.51831 0.0
C546 C 0.51351 0.5154 0.4622 0.0
H547 H 0.55786 0.54147 0.62123 0.0
H548 H 0.57574 0.56125 0.5151 0.0
C549 C 0.47282 0.48261 0.46884 0.0
C550 C 0.05684 0.48325 1.02366 0.0
C551 C 0.02234 0.49564 0.97209 0.0
H552 H 0.0728 0.48284 0.12583 0.0
C553 C 0.97596 0.51758 0.98569 0.0
H554 H 0.09319 0.46695 1.01495 0.0
C555 C 0.96421 0.52655 0.04923 0.0
C556 C 0.99856 0.51388 0.10079 0.0
H557 H 0.94815 0.52677 0.94707 0.0
H558 H 0.9277 0.54254 0.05782 0.0
C559 C 0.0451 0.49227 0.08723 0.0
loop_
_geom_bond_atom_site_label_1
_geom_bond_atom_site_label_2
_geom_bond_distance
_geom_bond_site_symmetry_2
_ccdc_geom_bond_type
C0 Eu1 2.835 1_655 S
C0 C2 1.500 . S
C0 O20 1.257 1_655 S
C0 O21 1.260 . S
Eu1 C0 2.835 1_455 S
Eu1 O20 2.473 . S
Eu1 O21 2.480 1_455 S
Eu1 O22 2.430 1_455 S
Eu1 O23 2.670 1_455 S
Eu1 O24 2.394 1_445 S
Eu1 O29 2.355 1_545 S
Eu1 O31 2.374 . S
C2 C0 1.500 . S
C2 C3 1.377 . S
C2 C7 1.377 1_655 S
C3 C2 1.377 . S
C3 C4 1.395 . S
C3 H32 0.931 . S
C4 C3 1.395 . S
C4 C5 1.383 . S
C4 H33 0.931 . S
C5 C4 1.383 . S
C5 C6 1.394 . S
C6 C5 1.394 . S
C6 C7 1.378 1_655 S
C6 H34 0.931 1_645 S
C7 C2 1.377 1_455 S
C7 C6 1.378 1_455 S
C7 H35 0.931 1_545 S
C8 O22 1.259 . S
C8 O23 1.270 . S
C9 O24 1.251 . S
C9 O25 1.251 . S
C10 Eu11 2.835 1_455 S
C10 C12 1.500 . S
C10 O26 1.257 1_455 S
C10 O27 1.260 . S
Eu11 C10 2.835 1_655 S
Eu11 O23 2.355 1_565 S
Eu11 O25 2.374 . S
Eu11 O26 2.473 . S
Eu11 O27 2.480 1_655 S
Eu11 O28 2.430 1_655 S
Eu11 O29 2.670 1_655 S
Eu11 O30 2.394 1_665 S
C12 C10 1.500 . S
C12 C13 1.377 . S
C12 C17 1.372 1_455 S
C13 C12 1.377 . S
C13 C14 1.395 . S
C13 H36 0.931 . S
C14 C13 1.395 . S
C14 C15 1.383 . S
C14 H37 0.931 . S
C15 C14 1.383 . S
C15 C16 1.394 . S
C16 C15 1.394 . S
C16 C17 1.373 1_455 S
C16 H38 0.931 1_465 S
C17 C12 1.372 1_655 S
C17 C16 1.373 1_655 S
C17 H39 0.942 1_565 S
C18 O28 1.259 . S
C18 O29 1.270 . S
C19 O30 1.251 . S
C19 O31 1.251 . S
O20 C0 1.257 1_455 S
O20 Eu1 2.473 . S
O21 C0 1.260 . S
O21 Eu1 2.480 1_655 S
O22 Eu1 2.430 1_655 S
O22 C8 1.259 . S
O23 Eu1 2.670 1_655 S
O23 C8 1.270 . S
O23 Eu11 2.355 1_545 S
O24 Eu1 2.394 1_665 S
O24 C9 1.251 . S
O25 C9 1.251 . S
O25 Eu11 2.374 . S
O26 C10 1.257 1_655 S
O26 Eu11 2.473 . S
O27 C10 1.260 . S
O27 Eu11 2.480 1_455 S
O28 Eu11 2.430 1_455 S
O28 C18 1.259 . S
O29 Eu1 2.355 1_565 S
O29 Eu11 2.670 1_455 S
O29 C18 1.270 . S
O30 Eu11 2.394 1_445 S
O30 C19 1.251 . S
O31 Eu1 2.374 . S
O31 C19 1.251 . S
H32 C3 0.931 . S
H33 C4 0.931 . S
H34 C6 0.931 1_465 S
H35 C7 0.931 1_565 S
H36 C13 0.931 . S
H37 C14 0.931 . S
H38 C16 0.931 1_645 S
H39 C17 0.942 1_545 S
C40 Eu41 2.835 . S
C40 C42 1.500 1_556 S
C40 O60 1.257 . S
C40 O61 1.260 . S
Eu41 C40 2.835 . S
Eu41 O60 2.473 . S
Eu41 O61 2.480 . S
Eu41 O62 2.430 . S
Eu41 O63 2.670 . S
Eu41 O64 2.394 . S
Eu41 O69 2.355 . S
Eu41 O71 2.374 . S
C42 C40 1.500 1_554 S
C42 C43 1.377 . S
C42 C47 1.377 . S
C43 C42 1.377 . S
C43 C44 1.395 . S
C43 H72 0.931 1_554 S
C44 C43 1.395 . S
C44 C45 1.383 . S
C44 H73 0.931 . S
C45 C44 1.383 . S
C45 C46 1.394 . S
C46 C45 1.394 . S
C46 C47 1.378 . S
C46 H74 0.931 . S
C47 C42 1.377 . S
C47 C46 1.378 . S
C47 H75 0.931 . S
C48 O62 1.259 . S
C48 O63 1.270 . S
C49 O64 1.251 . S
C49 O65 1.251 . S
C50 Eu51 2.835 . S
C50 C52 1.500 . S
C50 O66 1.257 . S
C50 O67 1.260 . S
Eu51 C50 2.835 . S
Eu51 O63 2.355 . S
Eu51 O65 2.374 . S
Eu51 O66 2.473 . S
Eu51 O67 2.480 . S
Eu51 O68 2.430 . S
Eu51 O69 2.670 . S
Eu51 O70 2.394 . S
C52 C50 1.500 . S
C52 C53 1.377 . S
C52 C57 1.377 . S
C53 C52 1.377 . S
C53 C54 1.395 . S
C53 H76 0.931 . S
C54 C53 1.395 . S
C54 C55 1.383 . S
C54 H77 0.931 . S
C55 C54 1.383 . S
C55 C56 1.394 . S
C56 C55 1.394 . S
C56 C57 1.378 . S
C56 H78 0.931 . S
C57 C52 1.377 . S
C57 C56 1.378 . S
C57 H79 0.931 . S
C58 O68 1.259 . S
C58 O69 1.270 . S
C59 O70 1.251 . S
C59 O71 1.251 . S
O60 C40 1.257 . S
O60 Eu41 2.473 . S
O61 C40 1.260 . S
O61 Eu41 2.480 . S
O62 Eu41 2.430 . S
O62 C48 1.259 . S
O63 Eu41 2.670 . S
O63 C48 1.270 . S
O63 Eu51 2.355 . S
O64 Eu41 2.394 . S
O64 C49 1.251 . S
O65 C49 1.251 . S
O65 Eu51 2.374 . S
O66 C50 1.257 . S
O66 Eu51 2.473 . S
O67 C50 1.260 . S
O67 Eu51 2.480 . S
O68 Eu51 2.430 . S
O68 C58 1.259 . S
O69 Eu41 2.355 . S
O69 Eu51 2.670 . S
O69 C58 1.270 . S
O70 Eu51 2.394 . S
O70 C59 1.251 . S
O71 Eu41 2.374 . S
O71 C59 1.251 . S
H72 C43 0.931 1_556 S
H73 C44 0.931 . S
H74 C46 0.931 . S
H75 C47 0.931 . S
H76 C53 0.931 . S
H77 C54 0.931 . S
H78 C56 0.931 . S
H79 C57 0.931 . S
C80 Eu81 2.835 . S
C80 C82 1.500 . S
C80 O100 1.257 1_545 S
C80 O101 1.260 . S
Eu81 C80 2.835 . S
Eu81 O100 2.473 1_545 S
Eu81 O101 2.480 . S
Eu81 O102 2.430 . S
Eu81 O103 2.670 1_556 S
Eu81 O104 2.394 1_545 S
Eu81 O109 2.355 1_545 S
Eu81 O111 2.374 1_556 S
C82 C80 1.500 . S
C82 C83 1.377 . S
C82 C87 1.377 1_545 S
C83 C82 1.377 . S
C83 C84 1.395 . S
C83 H112 0.931 . S
C84 C83 1.395 . S
C84 C85 1.383 . S
C84 H113 0.931 . S
C85 C84 1.383 . S
C85 C86 1.394 1_545 S
C86 C85 1.394 1_565 S
C86 C87 1.378 . S
C86 H114 0.931 . S
C87 C82 1.377 1_565 S
C87 C86 1.378 . S
C87 H115 0.931 . S
C88 O102 1.259 1_554 S
C88 O103 1.270 . S
C89 O104 1.251 . S
C89 O105 1.251 . S
C90 Eu91 2.835 . S
C90 C92 1.500 . S
C90 O106 1.257 1_565 S
C90 O107 1.260 . S
Eu91 C90 2.835 . S
Eu91 O103 2.355 1_565 S
Eu91 O105 2.374 1_554 S
Eu91 O106 2.473 1_565 S
Eu91 O107 2.480 . S
Eu91 O108 2.430 . S
Eu91 O109 2.670 1_554 S
Eu91 O110 2.394 1_565 S
C92 C90 1.500 . S
C92 C93 1.377 . S
C92 C97 1.377 1_565 S
C93 C92 1.377 . S
C93 C94 1.395 . S
C93 H116 0.931 . S
C94 C93 1.395 . S
C94 C95 1.383 . S
C94 H117 0.931 . S
C95 C94 1.383 . S
C95 C96 1.394 1_565 S
C96 C95 1.394 1_545 S
C96 C97 1.378 . S
C96 H118 0.931 . S
C97 C92 1.377 1_545 S
C97 C96 1.378 . S
C97 H119 0.931 . S
C98 O108 1.259 1_556 S
C98 O109 1.270 . S
C99 O110 1.251 . S
C99 O111 1.251 . S
O100 C80 1.257 1_565 S
O100 Eu81 2.473 1_565 S
O101 C80 1.260 . S
O101 Eu81 2.480 . S
O102 Eu81 2.430 . S
O102 C88 1.259 1_556 S
O103 Eu81 2.670 1_554 S
O103 C88 1.270 . S
O103 Eu91 2.355 1_545 S
O104 Eu81 2.394 1_565 S
O104 C89 1.251 . S
O105 C89 1.251 . S
O105 Eu91 2.374 1_556 S
O106 C90 1.257 1_545 S
O106 Eu91 2.473 1_545 S
O107 C90 1.260 . S
O107 Eu91 2.480 . S
O108 Eu91 2.430 . S
O108 C98 1.259 1_554 S
O109 Eu81 2.355 1_565 S
O109 Eu91 2.670 1_556 S
O109 C98 1.270 . S
O110 Eu91 2.394 1_545 S
O110 C99 1.251 . S
O111 Eu81 2.374 1_554 S
O111 C99 1.251 . S
H112 C83 0.931 . S
H113 C84 0.931 . S
H114 C86 0.931 . S
H115 C87 0.931 . S
H116 C93 0.931 . S
H117 C94 0.931 . S
H118 C96 0.931 . S
H119 C97 0.931 . S
C120 Eu121 2.835 . S
C120 C122 1.500 1_554 S
C120 O140 1.257 . S
C120 O141 1.260 . S
Eu121 C120 2.835 . S
Eu121 O140 2.473 . S
Eu121 O141 2.480 . S
Eu121 O142 2.430 . S
Eu121 O143 2.670 . S
Eu121 O144 2.394 . S
Eu121 O149 2.355 . S
Eu121 O151 2.374 . S
C122 C120 1.500 1_556 S
C122 C123 1.377 . S
C122 C127 1.377 . S
C123 C122 1.377 . S
C123 C124 1.395 . S
C123 H152 0.931 . S
C124 C123 1.395 . S
C124 C125 1.383 . S
C124 H153 0.931 . S
C125 C124 1.383 . S
C125 C126 1.394 . S
C126 C125 1.394 . S
C126 C127 1.378 . S
C126 H154 0.931 . S
C127 C122 1.377 . S
C127 C126 1.378 . S
C127 H155 0.931 . S
C128 O142 1.259 . S
C128 O143 1.270 . S
C129 O144 1.251 . S
C129 O145 1.251 . S
C130 Eu131 2.835 . S
C130 C132 1.500 . S
C130 O146 1.257 . S
C130 O147 1.260 . S
Eu131 C130 2.835 . S
Eu131 O143 2.355 . S
Eu131 O145 2.374 . S
Eu131 O146 2.473 . S
Eu131 O147 2.480 . S
Eu131 O148 2.430 . S
Eu131 O149 2.670 . S
Eu131 O150 2.394 . S
C132 C130 1.500 . S
C132 C133 1.377 . S
C132 C137 1.377 . S
C133 C132 1.377 . S
C133 C134 1.395 . S
C133 H156 0.931 . S
C134 C133 1.395 . S
C134 C135 1.383 . S
C134 H157 0.931 . S
C135 C134 1.383 . S
C135 C136 1.394 . S
C136 C135 1.394 . S
C136 C137 1.378 . S
C136 H158 0.931 . S
C137 C132 1.377 . S
C137 C136 1.378 . S
C137 H159 0.931 . S
C138 O148 1.259 . S
C138 O149 1.270 . S
C139 O150 1.251 . S
C139 O151 1.251 . S
O140 C120 1.257 . S
O140 Eu121 2.473 . S
O141 C120 1.260 . S
O141 Eu121 2.480 . S
O142 Eu121 2.430 . S
O142 C128 1.259 . S
O143 Eu121 2.670 . S
O143 C128 1.270 . S
O143 Eu131 2.355 . S
O144 Eu121 2.394 . S
O144 C129 1.251 . S
O145 C129 1.251 . S
O145 Eu131 2.374 . S
O146 C130 1.257 . S
O146 Eu131 2.473 . S
O147 C130 1.260 . S
O147 Eu131 2.480 . S
O148 Eu131 2.430 . S
O148 C138 1.259 . S
O149 Eu121 2.355 . S
O149 Eu131 2.670 . S
O149 C138 1.270 . S
O150 Eu131 2.394 . S
O150 C139 1.251 . S
O151 Eu121 2.374 . S
O151 C139 1.251 . S
H152 C123 0.931 . S
H153 C124 0.931 . S
H154 C126 0.931 . S
H155 C127 0.931 . S
H156 C133 0.931 . S
H157 C134 0.931 . S
H158 C136 0.931 . S
H159 C137 0.931 . S
C160 Eu161 2.835 . S
C160 C162 1.500 . S
C160 O180 1.257 . S
C160 O181 1.260 . S
Eu161 C160 2.835 . S
Eu161 O180 2.473 . S
Eu161 O181 2.480 . S
Eu161 O182 2.430 . S
Eu161 O183 2.670 . S
Eu161 O184 2.394 . S
Eu161 O189 2.355 . S
Eu161 O191 2.374 . S
C162 C160 1.500 . S
C162 C163 1.377 . S
C162 C167 1.377 . S
C163 C162 1.377 . S
C163 C164 1.395 . S
C163 H192 0.931 . S
C164 C163 1.395 . S
C164 C165 1.383 . S
C164 H193 0.931 . S
C165 C164 1.383 . S
C165 C166 1.394 . S
C166 C165 1.394 . S
C166 C167 1.378 . S
C166 H194 0.931 . S
C167 C162 1.377 . S
C167 C166 1.378 . S
C167 H195 0.931 . S
C168 O182 1.259 . S
C168 O183 1.270 . S
C169 O184 1.251 . S
C169 O185 1.251 . S
C170 Eu171 2.835 . S
C170 C172 1.500 1_554 S
C170 O186 1.257 . S
C170 O187 1.260 . S
Eu171 C170 2.835 . S
Eu171 O183 2.355 . S
Eu171 O185 2.374 . S
Eu171 O186 2.473 . S
Eu171 O187 2.480 . S
Eu171 O188 2.430 . S
Eu171 O189 2.670 . S
Eu171 O190 2.394 . S
C172 C170 1.500 1_556 S
C172 C173 1.377 . S
C172 C177 1.377 . S
C173 C172 1.377 . S
C173 C174 1.395 . S
C173 H196 0.931 1_556 S
C174 C173 1.395 . S
C174 C175 1.383 . S
C174 H197 0.931 . S
C175 C174 1.383 . S
C175 C176 1.394 . S
C176 C175 1.394 . S
C176 C177 1.378 . S
C176 H198 0.931 . S
C177 C172 1.377 . S
C177 C176 1.378 . S
C177 H199 0.931 . S
C178 O188 1.259 . S
C178 O189 1.270 . S
C179 O190 1.251 . S
C179 O191 1.251 . S
O180 C160 1.257 . S
O180 Eu161 2.473 . S
O181 C160 1.260 . S
O181 Eu161 2.480 . S
O182 Eu161 2.430 . S
O182 C168 1.259 . S
O183 Eu161 2.670 . S
O183 C168 1.270 . S
O183 Eu171 2.355 . S
O184 Eu161 2.394 . S
O184 C169 1.251 . S
O185 C169 1.251 . S
O185 Eu171 2.374 . S
O186 C170 1.257 . S
O186 Eu171 2.473 . S
O187 C170 1.260 . S
O187 Eu171 2.480 . S
O188 Eu171 2.430 . S
O188 C178 1.259 . S
O189 Eu161 2.355 . S
O189 Eu171 2.670 . S
O189 C178 1.270 . S
O190 Eu171 2.394 . S
O190 C179 1.251 . S
O191 Eu161 2.374 . S
O191 C179 1.251 . S
H192 C163 0.931 . S
H193 C164 0.931 . S
H194 C166 0.931 . S
H195 C167 0.931 . S
H196 C173 0.931 1_554 S
H197 C174 0.931 . S
H198 C176 0.931 . S
H199 C177 0.931 . S
C200 Eu201 2.835 . S
C200 C202 1.500 . S
C200 O220 1.257 . S
C200 O221 1.260 . S
Eu201 C200 2.835 . S
Eu201 O220 2.473 . S
Eu201 O221 2.480 . S
Eu201 O222 2.430 . S
Eu201 O223 2.670 . S
Eu201 O224 2.394 . S
Eu201 O229 2.355 . S
Eu201 O231 2.374 . S
C202 C200 1.500 . S
C202 C203 1.377 . S
C202 C207 1.377 . S
C203 C202 1.377 . S
C203 C204 1.395 . S
C203 H232 0.931 . S
C204 C203 1.395 . S
C204 C205 1.383 . S
C204 H233 0.931 . S
C205 C204 1.383 . S
C205 C206 1.394 . S
C206 C205 1.394 . S
C206 C207 1.378 . S
C206 H234 0.931 . S
C207 C202 1.377 . S
C207 C206 1.378 . S
C207 H235 0.931 . S
C208 O222 1.259 . S
C208 O223 1.270 . S
C209 O224 1.251 . S
C209 O225 1.251 . S
C210 Eu211 2.835 . S
C210 C212 1.500 1_556 S
C210 O226 1.257 . S
C210 O227 1.260 . S
Eu211 C210 2.835 . S
Eu211 O223 2.355 . S
Eu211 O225 2.374 . S
Eu211 O226 2.473 . S
Eu211 O227 2.480 . S
Eu211 O228 2.430 . S
Eu211 O229 2.670 . S
Eu211 O230 2.394 . S
C212 C210 1.500 1_554 S
C212 C213 1.377 . S
C212 C217 1.377 . S
C213 C212 1.377 . S
C213 C214 1.395 . S
C213 H236 0.931 . S
C214 C213 1.395 . S
C214 C215 1.383 . S
C214 H237 0.931 . S
C215 C214 1.383 . S
C215 C216 1.394 . S
C216 C215 1.394 . S
C216 C217 1.378 . S
C216 H238 0.931 . S
C217 C212 1.377 . S
C217 C216 1.378 . S
C217 H239 0.931 . S
C218 O228 1.259 . S
C218 O229 1.270 . S
C219 O230 1.251 . S
C219 O231 1.251 . S
O220 C200 1.257 . S
O220 Eu201 2.473 . S
O221 C200 1.260 . S
O221 Eu201 2.480 . S
O222 Eu201 2.430 . S
O222 C208 1.259 . S
O223 Eu201 2.670 . S
O223 C208 1.270 . S
O223 Eu211 2.355 . S
O224 Eu201 2.394 . S
O224 C209 1.251 . S
O225 C209 1.251 . S
O225 Eu211 2.374 . S
O226 C210 1.257 . S
O226 Eu211 2.473 . S
O227 C210 1.260 . S
O227 Eu211 2.480 . S
O228 Eu211 2.430 . S
O228 C218 1.259 . S
O229 Eu201 2.355 . S
O229 Eu211 2.670 . S
O229 C218 1.270 . S
O230 Eu211 2.394 . S
O230 C219 1.251 . S
O231 Eu201 2.374 . S
O231 C219 1.251 . S
H232 C203 0.931 . S
H233 C204 0.931 . S
H234 C206 0.931 . S
H235 C207 0.931 . S
H236 C213 0.931 . S
H237 C214 0.931 . S
H238 C216 0.931 . S
H239 C217 0.931 . S
C240 Eu241 2.835 . S
C240 C242 1.500 . S
C240 O260 1.257 . S
C240 O261 1.260 . S
Eu241 C240 2.835 . S
Eu241 O260 2.473 . S
Eu241 O261 2.480 . S
Eu241 O262 2.430 . S
Eu241 O263 2.670 1_554 S
Eu241 O264 2.394 . S
Eu241 O269 2.355 . S
Eu241 O271 2.374 . S
C242 C240 1.500 . S
C242 C243 1.377 . S
C242 C247 1.377 . S
C243 C242 1.377 . S
C243 C244 1.395 . S
C243 H272 0.931 . S
C244 C243 1.395 . S
C244 C245 1.383 . S
C244 H273 0.931 . S
C245 C244 1.383 . S
C245 C246 1.394 . S
C246 C245 1.394 . S
C246 C247 1.378 . S
C246 H274 0.931 . S
C247 C242 1.377 . S
C247 C246 1.378 . S
C247 H275 0.931 . S
C248 O262 1.259 1_556 S
C248 O263 1.270 . S
C249 O264 1.251 . S
C249 O265 1.251 1_554 S
C250 Eu251 2.835 . S
C250 C252 1.500 . S
C250 O266 1.257 . S
C250 O267 1.260 . S
Eu251 C250 2.835 . S
Eu251 O263 2.355 . S
Eu251 O265 2.374 . S
Eu251 O266 2.473 . S
Eu251 O267 2.480 . S
Eu251 O268 2.430 . S
Eu251 O269 2.670 1_556 S
Eu251 O270 2.394 . S
C252 C250 1.500 . S
C252 C253 1.377 . S
C252 C257 1.377 . S
C253 C252 1.377 . S
C253 C254 1.395 . S
C253 H276 0.931 . S
C254 C253 1.395 . S
C254 C255 1.383 . S
C254 H277 0.931 . S
C255 C254 1.383 . S
C255 C256 1.394 . S
C256 C255 1.394 . S
C256 C257 1.378 . S
C256 H278 0.931 . S
C257 C252 1.377 . S
C257 C256 1.378 . S
C257 H279 0.931 . S
C258 O268 1.259 1_554 S
C258 O269 1.270 . S
C259 O270 1.251 . S
C259 O271 1.251 1_556 S
O260 C240 1.257 . S
O260 Eu241 2.473 . S
O261 C240 1.260 . S
O261 Eu241 2.480 . S
O262 Eu241 2.430 . S
O262 C248 1.259 1_554 S
O263 Eu241 2.670 1_556 S
O263 C248 1.270 . S
O263 Eu251 2.355 . S
O264 Eu241 2.394 . S
O264 C249 1.251 . S
O265 C249 1.251 1_556 S
O265 Eu251 2.374 . S
O266 C250 1.257 . S
O266 Eu251 2.473 . S
O267 C250 1.260 . S
O267 Eu251 2.480 . S
O268 Eu251 2.430 . S
O268 C258 1.259 1_556 S
O269 Eu241 2.355 . S
O269 Eu251 2.670 1_554 S
O269 C258 1.270 . S
O270 Eu251 2.394 . S
O270 C259 1.251 . S
O271 Eu241 2.374 . S
O271 C259 1.251 1_554 S
H272 C243 0.931 . S
H273 C244 0.931 . S
H274 C246 0.931 . S
H275 C247 0.931 . S
H276 C253 0.931 . S
H277 C254 0.931 . S
H278 C256 0.931 . S
H279 C257 0.931 . S
C280 Eu281 2.835 1_455 S
C280 C282 1.500 . S
C280 O300 1.257 1_455 S
C280 O301 1.260 . S
Eu281 C280 2.835 1_655 S
Eu281 O300 2.473 . S
Eu281 O301 2.480 1_655 S
Eu281 O302 2.430 1_655 S
Eu281 O303 2.670 1_655 S
Eu281 O304 2.394 1_655 S
Eu281 O309 2.355 . S
Eu281 O311 2.374 . S
C282 C280 1.500 . S
C282 C283 1.377 . S
C282 C287 1.377 1_455 S
C283 C282 1.377 . S
C283 C284 1.395 . S
C283 H312 0.931 . S
C284 C283 1.395 . S
C284 C285 1.383 . S
C284 H313 0.931 . S
C285 C284 1.383 . S
C285 C286 1.394 . S
C286 C285 1.394 . S
C286 C287 1.378 1_455 S
C286 H314 0.931 1_455 S
C287 C282 1.377 1_655 S
C287 C286 1.378 1_655 S
C287 H315 0.931 . S
C288 O302 1.259 . S
C288 O303 1.270 . S
C289 O304 1.251 . S
C289 O305 1.251 . S
C290 Eu291 2.835 1_655 S
C290 C292 1.500 . S
C290 O306 1.257 1_655 S
C290 O307 1.260 . S
Eu291 C290 2.835 1_455 S
Eu291 O303 2.355 . S
Eu291 O305 2.374 . S
Eu291 O306 2.473 . S
Eu291 O307 2.480 1_455 S
Eu291 O308 2.430 1_455 S
Eu291 O309 2.670 1_455 S
Eu291 O310 2.394 1_455 S
C292 C290 1.500 . S
C292 C293 1.377 . S
C292 C297 1.377 1_655 S
C293 C292 1.377 . S
C293 C294 1.395 . S
C293 H316 0.931 . S
C294 C293 1.395 . S
C294 C295 1.383 . S
C294 H317 0.931 . S
C295 C294 1.383 . S
C295 C296 1.394 . S
C296 C295 1.394 . S
C296 C297 1.378 1_655 S
C296 H318 0.931 1_655 S
C297 C292 1.377 1_455 S
C297 C296 1.378 1_455 S
C297 H319 0.931 . S
C298 O308 1.259 . S
C298 O309 1.270 . S
C299 O310 1.251 . S
C299 O311 1.251 . S
O300 C280 1.257 1_655 S
O300 Eu281 2.473 . S
O301 C280 1.260 . S
O301 Eu281 2.480 1_455 S
O302 Eu281 2.430 1_455 S
O302 C288 1.259 . S
O303 Eu281 2.670 1_455 S
O303 C288 1.270 . S
O303 Eu291 2.355 . S
O304 Eu281 2.394 1_455 S
O304 C289 1.251 . S
O305 C289 1.251 . S
O305 Eu291 2.374 . S
O306 C290 1.257 1_455 S
O306 Eu291 2.473 . S
O307 C290 1.260 . S
O307 Eu291 2.480 1_655 S
O308 Eu291 2.430 1_655 S
O308 C298 1.259 . S
O309 Eu281 2.355 . S
O309 Eu291 2.670 1_655 S
O309 C298 1.270 . S
O310 Eu291 2.394 1_655 S
O310 C299 1.251 . S
O311 Eu281 2.374 . S
O311 C299 1.251 . S
H312 C283 0.931 . S
H313 C284 0.931 . S
H314 C286 0.931 1_655 S
H315 C287 0.931 . S
H316 C293 0.931 . S
H317 C294 0.931 . S
H318 C296 0.931 1_455 S
H319 C297 0.931 . S
C320 C321 1.387 . S
C320 H324 0.950 . S
C320 C329 1.390 . S
C321 C320 1.387 . S
C321 C323 1.387 . S
H322 C329 0.950 . S
C323 C321 1.387 . S
C323 C325 1.390 . S
C323 H327 0.950 . S
H324 C320 0.950 . S
C325 C323 1.390 . S
C325 C326 1.387 . S
C325 H328 0.950 . S
C326 C325 1.387 . S
C326 C329 1.387 . S
H327 C323 0.950 . S
H328 C325 0.950 . S
C329 C320 1.390 . S
C329 H322 0.950 . S
C329 C326 1.387 . S
C330 C331 1.387 . S
C330 H334 0.950 . S
C330 C339 1.390 . S
C331 C330 1.387 . S
C331 C333 1.387 . S
H332 C339 0.950 . S
C333 C331 1.387 . S
C333 C335 1.390 . S
C333 H337 0.950 . S
H334 C330 0.950 . S
C335 C333 1.390 . S
C335 C336 1.387 . S
C335 H338 0.950 . S
C336 C335 1.387 . S
C336 C339 1.387 . S
H337 C333 0.950 . S
H338 C335 0.950 . S
C339 C330 1.390 . S
C339 H332 0.950 . S
C339 C336 1.387 . S
C340 C341 1.387 . S
C340 H344 0.950 . S
C340 C349 1.390 . S
C341 C340 1.387 . S
C341 C343 1.387 . S
H342 C349 0.950 . S
C343 C341 1.387 . S
C343 C345 1.390 . S
C343 H347 0.950 . S
H344 C340 0.950 . S
C345 C343 1.390 . S
C345 C346 1.387 . S
C345 H348 0.950 . S
C346 C345 1.387 . S
C346 C349 1.387 . S
H347 C343 0.950 . S
H348 C345 0.950 . S
C349 C340 1.390 . S
C349 H342 0.950 . S
C349 C346 1.387 . S
C350 C351 1.387 . S
C350 H354 0.950 . S
C350 C359 1.390 . S
C351 C350 1.387 . S
C351 C353 1.387 . S
H352 C359 0.950 . S
C353 C351 1.387 . S
C353 C355 1.390 . S
C353 H357 0.950 . S
H354 C350 0.950 . S
C355 C353 1.390 . S
C355 C356 1.387 . S
C355 H358 0.950 . S
C356 C355 1.387 . S
C356 C359 1.387 . S
H357 C353 0.950 . S
H358 C355 0.950 . S
C359 C350 1.390 . S
C359 H352 0.950 . S
C359 C356 1.387 . S
C360 C361 1.387 . S
C360 H364 0.950 . S
C360 C369 1.390 . S
C361 C360 1.387 . S
C361 C363 1.387 . S
H362 C369 0.950 . S
C363 C361 1.387 . S
C363 C365 1.390 . S
C363 H367 0.950 . S
H364 C360 0.950 . S
C365 C363 1.390 . S
C365 C366 1.387 . S
C365 H368 0.950 . S
C366 C365 1.387 . S
C366 C369 1.387 . S
H367 C363 0.950 . S
H368 C365 0.950 . S
C369 C360 1.390 . S
C369 H362 0.950 . S
C369 C366 1.387 . S
C370 C371 1.387 . S
C370 H374 0.950 . S
C370 C379 1.390 . S
C371 C370 1.387 . S
C371 C373 1.387 . S
H372 C379 0.950 . S
C373 C371 1.387 . S
C373 C375 1.390 . S
C373 H377 0.950 . S
H374 C370 0.950 . S
C375 C373 1.390 . S
C375 C376 1.387 . S
C375 H378 0.950 . S
C376 C375 1.387 . S
C376 C379 1.387 . S
H377 C373 0.950 . S
H378 C375 0.950 . S
C379 C370 1.390 . S
C379 H372 0.950 . S
C379 C376 1.387 . S
C380 C381 1.387 . S
C380 H384 0.950 . S
C380 C389 1.390 . S
C381 C380 1.387 . S
C381 C383 1.387 . S
H382 C389 0.950 . S
C383 C381 1.387 . S
C383 C385 1.390 . S
C383 H387 0.950 . S
H384 C380 0.950 . S
C385 C383 1.390 . S
C385 C386 1.387 . S
C385 H388 0.950 . S
C386 C385 1.387 . S
C386 C389 1.387 . S
H387 C383 0.950 . S
H388 C385 0.950 . S
C389 C380 1.390 . S
C389 H382 0.950 . S
C389 C386 1.387 . S
C390 C391 1.387 . S
C390 H394 0.950 . S
C390 C399 1.390 . S
C391 C390 1.387 . S
C391 C393 1.387 . S
H392 C399 0.950 . S
C393 C391 1.387 . S
C393 C395 1.390 . S
C393 H397 0.950 . S
H394 C390 0.950 . S
C395 C393 1.390 . S
C395 C396 1.387 . S
C395 H398 0.950 . S
C396 C395 1.387 . S
C396 C399 1.387 . S
H397 C393 0.950 . S
H398 C395 0.950 . S
C399 C390 1.390 . S
C399 H392 0.950 . S
C399 C396 1.387 . S
C400 C401 1.387 . S
C400 H404 0.950 . S
C400 C409 1.390 . S
C401 C400 1.387 . S
C401 C403 1.387 . S
H402 C409 0.950 . S
C403 C401 1.387 . S
C403 C405 1.390 . S
C403 H407 0.950 . S
H404 C400 0.950 . S
C405 C403 1.390 . S
C405 C406 1.387 . S
C405 H408 0.950 . S
C406 C405 1.387 . S
C406 C409 1.387 . S
H407 C403 0.950 . S
H408 C405 0.950 . S
C409 C400 1.390 . S
C409 H402 0.950 . S
C409 C406 1.387 . S
C410 C411 1.387 . S
C410 H414 0.950 . S
C410 C419 1.390 . S
C411 C410 1.387 . S
C411 C413 1.387 . S
H412 C419 0.950 . S
C413 C411 1.387 . S
C413 C415 1.390 . S
C413 H417 0.950 . S
H414 C410 0.950 . S
C415 C413 1.390 . S
C415 C416 1.387 . S
C415 H418 0.950 . S
C416 C415 1.387 . S
C416 C419 1.387 . S
H417 C413 0.950 . S
H418 C415 0.950 . S
C419 C410 1.390 . S
C419 H412 0.950 . S
C419 C416 1.387 . S
C420 C421 1.387 . S
C420 H424 0.950 . S
C420 C429 1.390 . S
C421 C420 1.387 . S
C421 C423 1.387 . S
H422 C429 0.950 . S
C423 C421 1.387 . S
C423 C425 1.390 . S
C423 H427 0.950 . S
H424 C420 0.950 . S
C425 C423 1.390 . S
C425 C426 1.387 . S
C425 H428 0.950 . S
C426 C425 1.387 . S
C426 C429 1.387 . S
H427 C423 0.950 . S
H428 C425 0.950 . S
C429 C420 1.390 . S
C429 H422 0.950 . S
C429 C426 1.387 . S
C430 C431 1.387 . S
C430 H434 0.950 . S
C430 C439 1.390 . S
C431 C430 1.387 . S
C431 C433 1.387 . S
H432 C439 0.950 . S
C433 C431 1.387 . S
C433 C435 1.390 . S
C433 H437 0.950 . S
H434 C430 0.950 . S
C435 C433 1.390 . S
C435 C436 1.387 . S
C435 H438 0.950 . S
C436 C435 1.387 . S
C436 C439 1.387 . S
H437 C433 0.950 . S
H438 C435 0.950 . S
C439 C430 1.390 . S
C439 H432 0.950 . S
C439 C436 1.387 . S
C440 C441 1.387 . S
C440 H444 0.950 . S
C440 C449 1.390 . S
C441 C440 1.387 . S
C441 C443 1.387 . S
H442 C449 0.950 . S
C443 C441 1.387 . S
C443 C445 1.390 . S
C443 H447 0.950 . S
H444 C440 0.950 . S
C445 C443 1.390 . S
C445 C446 1.387 . S
C445 H448 0.950 . S
C446 C445 1.387 . S
C446 C449 1.387 . S
H447 C443 0.950 . S
H448 C445 0.950 . S
C449 C440 1.390 . S
C449 H442 0.950 . S
C449 C446 1.387 . S
C450 C451 1.387 . S
C450 H454 0.950 . S
C450 C459 1.390 . S
C451 C450 1.387 . S
C451 C453 1.387 . S
H452 C459 0.950 . S
C453 C451 1.387 . S
C453 C455 1.390 . S
C453 H457 0.950 . S
H454 C450 0.950 . S
C455 C453 1.390 . S
C455 C456 1.387 . S
C455 H458 0.950 . S
C456 C455 1.387 . S
C456 C459 1.387 . S
H457 C453 0.950 . S
H458 C455 0.950 . S
C459 C450 1.390 . S
C459 H452 0.950 . S
C459 C456 1.387 . S
C460 C461 1.387 . S
C460 H464 0.950 . S
C460 C469 1.390 . S
C461 C460 1.387 . S
C461 C463 1.387 . S
H462 C469 0.950 . S
C463 C461 1.387 . S
C463 C465 1.390 . S
C463 H467 0.950 . S
H464 C460 0.950 . S
C465 C463 1.390 . S
C465 C466 1.387 . S
C465 H468 0.950 . S
C466 C465 1.387 . S
C466 C469 1.387 . S
H467 C463 0.950 . S
H468 C465 0.950 . S
C469 C460 1.390 . S
C469 H462 0.950 . S
C469 C466 1.387 . S
C470 C471 1.387 . S
C470 H474 0.950 . S
C470 C479 1.390 . S
C471 C470 1.387 . S
C471 C473 1.387 . S
H472 C479 0.950 . S
C473 C471 1.387 . S
C473 C475 1.390 . S
C473 H477 0.950 . S
H474 C470 0.950 . S
C475 C473 1.390 . S
C475 C476 1.387 . S
C475 H478 0.950 . S
C476 C475 1.387 . S
C476 C479 1.387 . S
H477 C473 0.950 . S
H478 C475 0.950 . S
C479 C470 1.390 . S
C479 H472 0.950 . S
C479 C476 1.387 . S
C480 C481 1.387 1_454 S
C480 H484 0.950 . S
C480 C489 1.390 . S
C481 C480 1.387 1_656 S
C481 C483 1.387 1_545 S
H482 C489 0.950 . S
C483 C481 1.387 1_565 S
C483 C485 1.390 . S
C483 H487 0.950 . S
H484 C480 0.950 . S
C485 C483 1.390 . S
C485 C486 1.387 1_656 S
C485 H488 0.950 . S
C486 C485 1.387 1_454 S
C486 C489 1.387 1_565 S
H487 C483 0.950 . S
H488 C485 0.950 . S
C489 C480 1.390 . S
C489 H482 0.950 . S
C489 C486 1.387 1_545 S
C490 C491 1.387 . S
C490 H494 0.950 . S
C490 C499 1.390 . S
C491 C490 1.387 . S
C491 C493 1.387 . S
H492 C499 0.950 . S
C493 C491 1.387 . S
C493 C495 1.390 . S
C493 H497 0.950 . S
H494 C490 0.950 . S
C495 C493 1.390 . S
C495 C496 1.387 . S
C495 H498 0.950 . S
C496 C495 1.387 . S
C496 C499 1.387 . S
H497 C493 0.950 . S
H498 C495 0.950 . S
C499 C490 1.390 . S
C499 H492 0.950 . S
C499 C496 1.387 . S
C500 C501 1.387 1_565 S
C500 H504 0.950 . S
C500 C509 1.390 . S
C501 C500 1.387 1_545 S
C501 C503 1.387 . S
H502 C509 0.950 . S
C503 C501 1.387 . S
C503 C505 1.390 . S
C503 H507 0.950 . S
H504 C500 0.950 . S
C505 C503 1.390 . S
C505 C506 1.387 1_545 S
C505 H508 0.950 . S
C506 C505 1.387 1_565 S
C506 C509 1.387 . S
H507 C503 0.950 . S
H508 C505 0.950 . S
C509 C500 1.390 . S
C509 H502 0.950 . S
C509 C506 1.387 . S
C510 C511 1.387 . S
C510 H514 0.950 . S
C510 C519 1.390 . S
C511 C510 1.387 . S
C511 C513 1.387 . S
H512 C519 0.950 . S
C513 C511 1.387 . S
C513 C515 1.390 . S
C513 H517 0.950 . S
H514 C510 0.950 . S
C515 C513 1.390 . S
C515 C516 1.387 . S
C515 H518 0.950 . S
C516 C515 1.387 . S
C516 C519 1.387 . S
H517 C513 0.950 . S
H518 C515 0.950 . S
C519 C510 1.390 . S
C519 H512 0.950 . S
C519 C516 1.387 . S
C520 C521 1.387 . S
C520 H524 0.950 . S
C520 C529 1.390 . S
C521 C520 1.387 . S
C521 C523 1.387 . S
H522 C529 0.950 . S
C523 C521 1.387 . S
C523 C525 1.390 . S
C523 H527 0.950 . S
H524 C520 0.950 . S
C525 C523 1.390 . S
C525 C526 1.387 . S
C525 H528 0.950 . S
C526 C525 1.387 . S
C526 C529 1.387 . S
H527 C523 0.950 . S
H528 C525 0.950 . S
C529 C520 1.390 . S
C529 H522 0.950 . S
C529 C526 1.387 . S
C530 C531 1.387 . S
C530 H534 0.950 . S
C530 C539 1.390 . S
C531 C530 1.387 . S
C531 C533 1.387 . S
H532 C539 0.950 . S
C533 C531 1.387 . S
C533 C535 1.390 . S
C533 H537 0.950 . S
H534 C530 0.950 . S
C535 C533 1.390 . S
C535 C536 1.387 . S
C535 H538 0.950 . S
C536 C535 1.387 . S
C536 C539 1.387 . S
H537 C533 0.950 . S
H538 C535 0.950 . S
C539 C530 1.390 . S
C539 H532 0.950 . S
C539 C536 1.387 . S
C540 C541 1.387 . S
C540 H544 0.950 . S
C540 C549 1.390 . S
C541 C540 1.387 . S
C541 C543 1.387 . S
H542 C549 0.950 . S
C543 C541 1.387 . S
C543 C545 1.390 . S
C543 H547 0.950 . S
H544 C540 0.950 . S
C545 C543 1.390 . S
C545 C546 1.387 . S
C545 H548 0.950 . S
C546 C545 1.387 . S
C546 C549 1.387 . S
H547 C543 0.950 . S
H548 C545 0.950 . S
C549 C540 1.390 . S
C549 H542 0.950 . S
C549 C546 1.387 . S
C550 C551 1.387 . S
C550 H554 0.950 . S
C550 C559 1.390 1_656 S
C551 C550 1.387 . S
C551 C553 1.387 . S
H552 C559 0.950 . S
C553 C551 1.387 . S
C553 C555 1.390 1_656 S
C553 H557 0.950 . S
H554 C550 0.950 . S
C555 C553 1.390 1_454 S
C555 C556 1.387 . S
C555 H558 0.950 . S
C556 C555 1.387 . S
C556 C559 1.387 . S
H557 C553 0.950 . S
H558 C555 0.950 . S
C559 C550 1.390 1_454 S
C559 H552 0.950 . S
C559 C556 1.387 . S
C321 C19 1.918 . S
C326 C139 1.915 . S
C331 C18 1.548 . S
C336 C59 1.585 . S
C341 C58 1.155 . S
C346 C98 1.155 . S
C351 C99 1.585 . S
C356 C138 1.547 . S
C361 C9 1.918 . S
C366 C209 1.920 . S
C371 C8 1.550 . S
C376 C169 1.585 . S
C381 C168 1.155 . S
C386 C88 1.151 . S
C391 C208 1.548 . S
C396 C89 1.587 . S
C401 C259 1.918 . S
C406 C219 1.919 . S
C411 C179 1.585 . S
C416 C258 1.547 . S
C421 C298 1.153 . S
C426 C178 1.156 . S
C431 C218 1.550 . S
C436 C299 1.587 . S
C441 C129 1.918 . S
C446 C249 1.917 . S
C451 C248 1.548 . S
C456 C49 1.586 . S
C461 C48 1.155 . S
C466 C288 1.152 . S
C471 C128 1.548 . S
C476 C289 1.584 . S
C481 C5 1.737 . S
C486 C15 1.737 . S
C491 C55 1.416 . S
C496 C45 1.416 . S
C501 C85 1.419 . S
C506 C95 1.419 . S
C511 C125 1.740 . S
C516 C135 1.740 . S
C521 C175 1.416 . S
C526 C165 1.416 . S
C531 C205 1.737 . S
C536 C215 1.737 . S
C541 C255 1.740 . S
C546 C245 1.740 . S
C551 C295 1.419 . S
C556 C285 1.419 . S
