# Generated by pormake.
# Topology sod, (4)-cn, num edge types: 1
# Building blocks:
#     Node 0, Type 0, BuildingBlock: ICAMEG_clean_sbu_1, # of connection points: 4
#     Node 1, Type 0, BuildingBlock: ICAMEG_clean_sbu_1, # of connection points: 4
#     Node 2, Type 0, BuildingBlock: ICAMEG_clean_sbu_1, # of connection points: 4
#     Node 3, Type 0, BuildingBlock: ICAMEG_clean_sbu_1, # of connection points: 4
#     Node 4, Type 0, BuildingBlock: ICAMEG_clean_sbu_1, # of connection points: 4
#     Node 5, Type 0, BuildingBlock: ICAMEG_clean_sbu_1, # of connection points: 4
#     Node 6, Type 0, BuildingBlock: ICAMEG_clean_sbu_1, # of connection points: 4
#     Node 7, Type 0, BuildingBlock: ICAMEG_clean_sbu_1, # of connection points: 4
#     Node 8, Type 0, BuildingBlock: ICAMEG_clean_sbu_1, # of connection points: 4
#     Node 9, Type 0, BuildingBlock: ICAMEG_clean_sbu_1, # of connection points: 4
#     Node 10, Type 0, BuildingBlock: ICAMEG_clean_sbu_1, # of connection points: 4
#     Node 11, Type 0, BuildingBlock: ICAMEG_clean_sbu_1, # of connection points: 4
#     Edge 12, Type (0, 0), BuildingBlock: XIVTED_clean_linker_0, # of connection points: 2
#     Edge 13, Type (0, 0), BuildingBlock: XIVTED_clean_linker_0, # of connection points: 2
#     Edge 14, Type (0, 0), BuildingBlock: XIVTED_clean_linker_0, # of connection points: 2
#     Edge 15, Type (0, 0), BuildingBlock: XIVTED_clean_linker_0, # of connection points: 2
#     Edge 16, Type (0, 0), BuildingBlock: XIVTED_clean_linker_0, # of connection points: 2
#     Edge 17, Type (0, 0), BuildingBlock: XIVTED_clean_linker_0, # of connection points: 2
#     Edge 18, Type (0, 0), BuildingBlock: XIVTED_clean_linker_0, # of connection points: 2
#     Edge 19, Type (0, 0), BuildingBlock: XIVTED_clean_linker_0, # of connection points: 2
#     Edge 20, Type (0, 0), BuildingBlock: XIVTED_clean_linker_0, # of connection points: 2
#     Edge 21, Type (0, 0), BuildingBlock: XIVTED_clean_linker_0, # of connection points: 2
#     Edge 22, Type (0, 0), BuildingBlock: XIVTED_clean_linker_0, # of connection points: 2
#     Edge 23, Type (0, 0), BuildingBlock: XIVTED_clean_linker_0, # of connection points: 2
#     Edge 24, Type (0, 0), BuildingBlock: XIVTED_clean_linker_0, # of connection points: 2
#     Edge 25, Type (0, 0), BuildingBlock: XIVTED_clean_linker_0, # of connection points: 2
#     Edge 26, Type (0, 0), BuildingBlock: XIVTED_clean_linker_0, # of connection points: 2
#     Edge 27, Type (0, 0), BuildingBlock: XIVTED_clean_linker_0, # of connection points: 2
#     Edge 28, Type (0, 0), BuildingBlock: XIVTED_clean_linker_0, # of connection points: 2
#     Edge 29, Type (0, 0), BuildingBlock: XIVTED_clean_linker_0, # of connection points: 2
#     Edge 30, Type (0, 0), BuildingBlock: XIVTED_clean_linker_0, # of connection points: 2
#     Edge 31, Type (0, 0), BuildingBlock: XIVTED_clean_linker_0, # of connection points: 2
#     Edge 32, Type (0, 0), BuildingBlock: XIVTED_clean_linker_0, # of connection points: 2
#     Edge 33, Type (0, 0), BuildingBlock: XIVTED_clean_linker_0, # of connection points: 2
#     Edge 34, Type (0, 0), BuildingBlock: XIVTED_clean_linker_0, # of connection points: 2
#     Edge 35, Type (0, 0), BuildingBlock: XIVTED_clean_linker_0, # of connection points: 2
# Relax obj value: 0.209
# Max RMSD: 0.237
# Mean RMSD: 0.236
data_MOF--net-sod--node1-ICAMEG_clean_sbu_1--edge1-XIVTED_clean_linker_0
_symmetry_space_group_name_H-M    P1
_symmetry_Int_Tables_number       1
_symmetry_cell_setting            triclinic
loop_
_symmetry_equiv_pos_as_xyz
'x, y, z'
_cell_length_a     42.641081
_cell_length_b     46.754923
_cell_length_c     44.774217
_cell_angle_alpha  90.031614
_cell_angle_beta   90.049454
_cell_angle_gamma 90.015405
loop_
_atom_site_label
_atom_site_type_symbol
_atom_site_fract_x
_atom_site_fract_y
_atom_site_fract_z
_atom_type_partial_charge
Co0 Co 0.00282 0.22646 0.5403 0.0
Co1 Co 0.00204 0.22979 0.46494 0.0
O2 O 0.00225 0.24957 0.50367 0.0
C3 C 0.97216 0.28276 0.5566 0.0
O4 O 0.9686 0.28969 0.52843 0.0
C5 C 0.0316 0.28783 0.45431 0.0
O6 O 0.03436 0.29246 0.48307 0.0
O7 O 0.04325 0.21209 0.47606 0.0
O8 O 0.02592 0.19478 0.51951 0.0
H9 H 0.01748 0.14394 0.39898 0.0
H10 H 0.03098 0.28526 0.54031 0.0
O11 O 0.98113 0.25763 0.56372 0.0
H12 H 0.11425 0.2217 0.57766 0.0
H13 H 0.01299 0.20806 0.65084 0.0
H14 H 0.98956 0.16531 0.55263 0.0
H15 H 0.06265 0.20217 0.56387 0.0
H16 H 0.01464 0.23743 0.60518 0.0
O17 O 0.02355 0.26316 0.44473 0.0
H18 H 0.01549 0.17004 0.44678 0.0
H19 H 0.99092 0.24654 0.4013 0.0
H20 H 0.98802 0.13507 0.59766 0.0
H21 H 0.08195 0.30568 0.55429 0.0
H22 H 0.99975 0.15643 0.64724 0.0
H23 H 0.12418 0.27386 0.5731 0.0
O24 O 0.96182 0.20955 0.5276 0.0
H25 H 0.9219 0.30908 0.45863 0.0
H26 H 0.94268 0.20718 0.43867 0.0
H27 H 0.89093 0.22732 0.42652 0.0
H28 H 0.88025 0.27869 0.4363 0.0
H29 H 0.97301 0.28805 0.47085 0.0
H30 H 0.99303 0.22134 0.35299 0.0
H31 H 0.00624 0.16962 0.35161 0.0
O32 O 0.97897 0.19623 0.48251 0.0
C33 C 0.04599 0.19521 0.49839 0.0
C34 C 0.01171 0.16648 0.39928 0.0
C35 C 0.99804 0.20993 0.37346 0.0
N36 N 0.00317 0.20982 0.42689 0.0
C37 C 0.01052 0.18138 0.4263 0.0
C38 C 0.99707 0.22413 0.4009 0.0
C39 C 0.00541 0.1809 0.37271 0.0
C40 C 0.04883 0.27122 0.54883 0.0
N41 N 0.04334 0.24256 0.55165 0.0
C42 C 0.07786 0.28293 0.55657 0.0
C43 C 0.10156 0.26508 0.56707 0.0
C44 C 0.096 0.23583 0.56964 0.0
C45 C 0.06666 0.2249 0.56175 0.0
C46 C 0.00774 0.19851 0.62938 0.0
C47 C 0.99472 0.17479 0.57408 0.0
C48 C 0.00844 0.2151 0.60345 0.0
N49 N 0.00205 0.20317 0.57622 0.0
C50 C 0.99379 0.15755 0.59953 0.0
C51 C 1.00036 0.16954 0.62734 0.0
C52 C 0.9591 0.19463 0.50378 0.0
C53 C 0.92633 0.28671 0.45404 0.0
C54 C 0.93837 0.22958 0.44303 0.0
C55 C 0.90894 0.24085 0.43607 0.0
C56 C 0.90296 0.26965 0.44157 0.0
N57 N 0.96139 0.24648 0.45503 0.0
C58 C 0.95546 0.27467 0.46076 0.0
Co59 Co 0.72063 0.0415 0.50397 0.0
Co60 Co 0.72053 0.96932 0.50106 0.0
O61 O 0.74453 0.00539 0.50251 0.0
C62 C 0.78207 0.05598 0.47346 0.0
O63 O 0.7884 0.02889 0.46878 0.0
C64 C 0.782 0.95476 0.53156 0.0
O65 O 0.78829 0.98184 0.53635 0.0
O66 O 0.70227 0.97973 0.54077 0.0
O67 O 0.68496 0.02221 0.52538 0.0
H68 H 0.62256 0.91105 0.51463 0.0
H69 H 0.78482 0.0383 0.53021 0.0
O70 O 0.7556 0.06338 0.48418 0.0
H71 H 0.71763 0.07484 0.61112 0.0
H72 H 0.70418 0.14761 0.517 0.0
H73 H 0.65436 0.05575 0.4909 0.0
H74 H 0.6953 0.0642 0.56165 0.0
H75 H 0.73476 0.1029 0.51759 0.0
O76 O 0.75554 0.94736 0.52079 0.0
H77 H 0.65425 0.95516 0.51414 0.0
H78 H 0.73451 0.9079 0.48747 0.0
H79 H 0.62276 0.0999 0.49042 0.0
H80 H 0.8082 0.0491 0.57915 0.0
H81 H 0.64768 0.14628 0.50349 0.0
H82 H 0.77454 0.06744 0.62015 0.0
O83 O 0.70225 0.03111 0.46428 0.0
H84 H 0.80784 0.96159 0.42578 0.0
H85 H 0.69493 0.9468 0.44337 0.0
H86 H 0.71708 0.93616 0.39386 0.0
H87 H 0.77398 0.94341 0.38479 0.0
H88 H 0.78466 0.97238 0.47476 0.0
H89 H 0.70382 0.86323 0.48805 0.0
H90 H 0.64735 0.86464 0.50155 0.0
O91 O 0.68485 0.98868 0.47972 0.0
C92 C 0.68564 1.00216 0.54468 0.0
C93 C 0.64715 0.91015 0.50873 0.0
C94 C 0.69276 0.8833 0.49387 0.0
N95 N 0.69626 0.93414 0.50092 0.0
C96 C 0.66522 0.93507 0.5084 0.0
C97 C 0.71009 0.90865 0.49379 0.0
C98 C 0.66108 0.88412 0.50141 0.0
C99 C 0.77 0.04653 0.54769 0.0
N100 N 0.73871 0.05071 0.5428 0.0
C101 C 0.78338 0.05251 0.57549 0.0
C102 C 0.76449 0.06276 0.59848 0.0
C103 C 0.73258 0.06692 0.59344 0.0
C104 C 0.72005 0.06076 0.56534 0.0
C105 C 0.69307 0.12755 0.51117 0.0
C106 C 0.66538 0.07583 0.49664 0.0
C107 C 0.71034 0.10218 0.51125 0.0
N108 N 0.69644 0.07672 0.50412 0.0
C109 C 0.64737 0.10077 0.49631 0.0
C110 C 0.66136 0.12678 0.50363 0.0
C111 C 0.68555 0.00872 0.4604 0.0
C112 C 0.78303 0.95824 0.42947 0.0
C113 C 0.71969 0.95014 0.43967 0.0
C114 C 0.73211 0.944 0.41155 0.0
C115 C 0.76402 0.94807 0.40647 0.0
N116 N 0.73846 0.9601 0.46221 0.0
C117 C 0.76975 0.96421 0.45729 0.0
Co118 Co 0.00237 0.78199 0.46816 0.0
Co119 Co 0.0036 0.78372 0.54365 0.0
O120 O 0.00283 0.76145 0.50643 0.0
C121 C 0.97036 0.7251 0.45745 0.0
O122 O 0.96692 0.72086 0.4862 0.0
C123 C 0.03534 0.72732 0.55708 0.0
O124 O 0.03866 0.72178 0.52856 0.0
O125 O 0.04435 0.80055 0.5304 0.0
O126 O 0.02643 0.81492 0.48595 0.0
H127 H 0.02056 0.87365 0.60304 0.0
H128 H 0.02992 0.72308 0.47137 0.0
O129 O 0.97981 0.7493 0.4478 0.0
H130 H 0.11256 0.78341 0.42752 0.0
H131 H 0.00864 0.79248 0.35625 0.0
H132 H 0.98932 0.84222 0.45161 0.0
H133 H 0.06162 0.80423 0.44138 0.0
H134 H 0.01158 0.76633 0.40395 0.0
O135 O 0.02572 0.75184 0.5656 0.0
H136 H 0.0174 0.84451 0.55724 0.0
H137 H 0.99436 0.77106 0.60856 0.0
H138 H 0.9865 0.86926 0.40445 0.0
H139 H 0.08021 0.70135 0.45739 0.0
H140 H 0.99617 0.84437 0.3563 0.0
H141 H 0.12213 0.73155 0.43533 0.0
O142 O 0.9618 0.79994 0.48059 0.0
H143 H 0.92478 0.70449 0.55837 0.0
H144 H 0.94456 0.80785 0.56908 0.0
H145 H 0.8933 0.78821 0.58377 0.0
H146 H 0.88313 0.73614 0.57863 0.0
H147 H 0.97543 0.72503 0.54353 0.0
H148 H 0.9976 0.79935 0.65492 0.0
H149 H 0.01064 0.85107 0.65234 0.0
O150 O 0.98012 0.81607 0.52425 0.0
C151 C 0.04686 0.81578 0.50681 0.0
C152 C 0.01483 0.85113 0.60446 0.0
C153 C 0.002 0.80943 0.63357 0.0
N154 N 0.00568 0.8061 0.58016 0.0
C155 C 0.01297 0.83452 0.57858 0.0
C156 C 1.00035 0.79348 0.60723 0.0
C157 C 0.00929 0.83845 0.63211 0.0
C158 C 0.04765 0.7364 0.46147 0.0
N159 N 0.04238 0.76489 0.45693 0.0
C160 C 0.07629 0.72395 0.45372 0.0
C161 C 0.0998 0.7409 0.44139 0.0
C162 C 0.09445 0.76998 0.43701 0.0
C163 C 0.0655 0.78165 0.44498 0.0
C164 C 0.00433 0.80356 0.37708 0.0
C165 C 0.99361 0.83122 0.43079 0.0
C166 C 0.00578 0.78882 0.40417 0.0
N167 N 1.00057 0.8027 0.4306 0.0
C168 C 0.99196 0.84665 0.40413 0.0
C169 C 0.99736 0.83268 0.37713 0.0
C170 C 0.95968 0.81632 0.50339 0.0
C171 C 0.92896 0.72721 0.56087 0.0
C172 C 0.94041 0.78516 0.56664 0.0
C173 C 0.91129 0.77417 0.57507 0.0
C174 C 0.9056 0.74496 0.57219 0.0
N175 N 0.96336 0.76761 0.55566 0.0
C176 C 0.95779 0.73898 0.55262 0.0
Co177 Co 0.28528 0.96938 0.50795 0.0
Co178 Co 0.28524 0.04132 0.49814 0.0
O179 O 0.26164 0.00533 0.50292 0.0
C180 C 0.22543 0.95275 0.47565 0.0
O181 O 0.22047 0.97913 0.46693 0.0
C182 C 0.22437 0.05789 0.52859 0.0
O183 O 0.21824 0.03121 0.53549 0.0
O184 O 0.30468 0.03439 0.53814 0.0
O185 O 0.32074 0.98998 0.52822 0.0
H186 H 0.38267 0.10145 0.50496 0.0
H187 H 0.22032 0.9743 0.53158 0.0
O188 O 0.2506 0.94622 0.48936 0.0
H189 H 0.2847 0.94524 0.61779 0.0
H190 H 0.3002 0.86464 0.53088 0.0
H191 H 0.35162 0.9535 0.49749 0.0
H192 H 0.30869 0.9517 0.56826 0.0
H193 H 0.27015 0.90948 0.52679 0.0
O194 O 0.25051 0.06451 0.51669 0.0
H195 H 0.35161 0.05713 0.50872 0.0
H196 H 0.27011 0.10136 0.47976 0.0
H197 H 0.38266 0.9092 0.5016 0.0
H198 H 0.19523 0.96761 0.58054 0.0
H199 H 0.35694 0.86433 0.51837 0.0
H200 H 0.22748 0.95308 0.62418 0.0
O201 O 0.30481 0.97622 0.46805 0.0
H202 H 0.1958 0.04284 0.42456 0.0
H203 H 0.30896 0.05961 0.43822 0.0
H204 H 0.28541 0.06633 0.38853 0.0
H205 H 0.22834 0.05809 0.38143 0.0
H206 H 0.22044 0.03584 0.47367 0.0
H207 H 0.30019 0.14623 0.47604 0.0
H208 H 0.35695 0.14644 0.48854 0.0
O209 O 0.32072 0.02072 0.47793 0.0
C210 C 0.32119 0.01239 0.54447 0.0
C211 C 0.35795 0.10164 0.49945 0.0
C212 C 0.31165 0.12678 0.48327 0.0
N213 N 0.30904 0.07661 0.49454 0.0
C214 C 0.34024 0.07659 0.50152 0.0
C215 C 0.29469 0.10132 0.48561 0.0
C216 C 0.3435 0.12687 0.49026 0.0
C217 C 0.23454 0.96781 0.5503 0.0
N218 N 0.26603 0.96353 0.54691 0.0
C219 C 0.22019 0.96412 0.57806 0.0
C220 C 0.23829 0.956 0.60254 0.0
C221 C 0.27038 0.95164 0.59897 0.0
C222 C 0.2839 0.9555 0.57086 0.0
C223 C 0.31167 0.88403 0.52348 0.0
C224 C 0.34024 0.93409 0.50483 0.0
C225 C 0.29471 0.90947 0.52093 0.0
N226 N 0.30905 0.93411 0.5118 0.0
C227 C 0.35795 0.90905 0.5071 0.0
C228 C 0.3435 0.88388 0.51649 0.0
C229 C 0.32123 0.99827 0.46172 0.0
C230 C 0.22069 0.04656 0.42736 0.0
C231 C 0.28422 0.05566 0.43534 0.0
C232 C 0.27096 0.05966 0.40713 0.0
C233 C 0.23895 0.05507 0.40317 0.0
N234 N 0.2662 0.0473 0.45904 0.0
C235 C 0.2348 0.04274 0.45524 0.0
Co236 Co 0.49846 0.96124 0.24382 0.0
Co237 Co 0.51646 0.03228 0.25139 0.0
O238 O 0.50785 0.99878 0.22571 0.0
C239 C 0.52653 0.94621 0.18303 0.0
O240 O 0.53088 0.97302 0.1754 0.0
C241 C 0.48802 0.0571 0.19467 0.0
O242 O 0.48291 0.03166 0.1833 0.0
O243 O 0.47484 0.02696 0.2714 0.0
O244 O 0.47826 0.97982 0.279 0.0
H245 H 0.51879 0.08403 0.34982 0.0
H246 H 0.47422 0.97702 0.18274 0.0
O247 O 0.51751 0.93976 0.20931 0.0
H248 H 0.38166 0.9451 0.23908 0.0
H249 H 0.46565 0.85754 0.24397 0.0
H250 H 0.50301 0.93815 0.30537 0.0
H251 H 0.43371 0.94537 0.26264 0.0
H252 H 0.47539 0.90467 0.22123 0.0
O253 O 0.49755 0.05972 0.22155 0.0
H254 H 0.51027 0.04282 0.31645 0.0
H255 H 0.5388 0.09237 0.24173 0.0
H256 H 0.49327 0.89147 0.32914 0.0
H257 H 0.4229 0.97662 0.15818 0.0
H258 H 0.47446 0.8507 0.29835 0.0
H259 H 0.37593 0.96061 0.18632 0.0
O260 O 0.53992 0.96234 0.26488 0.0
H261 H 0.59266 0.03399 0.16505 0.0
H262 H 0.58068 0.04536 0.27384 0.0
H263 H 0.63273 0.05148 0.25107 0.0
H264 H 0.63903 0.04596 0.19623 0.0
H265 H 0.54125 0.02787 0.18867 0.0
H266 H 0.54726 0.13418 0.27427 0.0
H267 H 0.53738 0.13014 0.32877 0.0
O268 O 0.537 0.0074 0.28204 0.0
C269 C 0.46619 1.00411 0.28474 0.0
C270 C 0.52321 0.08605 0.32611 0.0
C271 C 0.53912 0.11421 0.28371 0.0
N272 N 0.52401 0.0651 0.27713 0.0
C273 C 0.51847 0.06276 0.30709 0.0
C274 C 0.5341 0.09048 0.26536 0.0
C275 C 0.53361 0.11192 0.31429 0.0
C276 C 0.45436 0.96958 0.19517 0.0
N277 N 0.45754 0.96073 0.2241 0.0
C278 C 0.4251 0.96959 0.18112 0.0
C279 C 0.39875 0.96068 0.19692 0.0
C280 C 0.40196 0.952 0.22649 0.0
C281 C 0.4316 0.95227 0.23977 0.0
C282 C 0.47395 0.8751 0.25762 0.0
C283 C 0.49494 0.92055 0.29184 0.0
C284 C 0.47972 0.90183 0.24483 0.0
N285 N 0.49007 0.92419 0.26193 0.0
C286 C 0.4894 0.89415 0.30541 0.0
C287 C 0.47886 0.87129 0.28813 0.0
C288 C 0.54914 0.9825 0.28208 0.0
C289 C 0.59018 0.03676 0.18893 0.0
C290 C 0.58303 0.04311 0.24992 0.0
C291 C 0.61267 0.04654 0.23717 0.0
C292 C 0.61619 0.04341 0.20643 0.0
N293 N 0.55742 0.03702 0.2326 0.0
C294 C 0.56091 0.0335 0.20249 0.0
Co295 Co 0.9878 0.54262 0.26007 0.0
Co296 Co 0.00945 0.47093 0.26001 0.0
O297 O 0.99837 0.5067 0.28145 0.0
C298 C 0.01883 0.56308 0.31766 0.0
O299 O 0.02393 0.53703 0.32734 0.0
C300 C 0.97741 0.45016 0.3168 0.0
O301 O 0.97178 0.47618 0.32633 0.0
O302 O 0.96976 0.4733 0.23599 0.0
O303 O 0.96564 0.52064 0.22834 0.0
H304 H 0.02286 0.4109 0.16771 0.0
H305 H 0.96703 0.53136 0.32336 0.0
O306 O 0.00849 0.56733 0.29131 0.0
H307 H 0.87171 0.56051 0.26945 0.0
H308 H 0.955 0.64597 0.2506 0.0
H309 H 0.98791 0.55934 0.19622 0.0
H310 H 0.92232 0.55784 0.24333 0.0
H311 H 0.96627 0.60135 0.27778 0.0
O312 O 0.988 0.44597 0.29055 0.0
H313 H 0.0109 0.45478 0.19602 0.0
H314 H 0.03048 0.41199 0.27758 0.0
H315 H 0.97648 0.60344 0.16812 0.0
H316 H 0.91721 0.53414 0.35036 0.0
H317 H 0.95994 0.6472 0.19534 0.0
H318 H 0.86887 0.54878 0.32347 0.0
O319 O 0.02806 0.54048 0.23703 0.0
H320 H 0.07779 0.47914 0.35202 0.0
H321 H 0.07522 0.45505 0.24498 0.0
H322 H 0.12511 0.45214 0.27235 0.0
H323 H 0.12668 0.46406 0.32639 0.0
H324 H 0.02872 0.4822 0.32378 0.0
H325 H 0.04223 0.36758 0.25019 0.0
H326 H 0.0386 0.36685 0.19483 0.0
O327 O 0.03248 0.4932 0.22906 0.0
C328 C 0.95763 0.49494 0.22293 0.0
C329 C 0.02446 0.41092 0.19184 0.0
C330 C 0.03526 0.3866 0.23812 0.0
N331 N 0.01968 0.43599 0.23845 0.0
C332 C 0.0177 0.43572 0.20799 0.0
C333 C 0.02831 0.41179 0.25353 0.0
C334 C 0.03327 0.38621 0.20706 0.0
C335 C 0.94654 0.53812 0.31139 0.0
N336 N 0.94811 0.54482 0.28173 0.0
C337 C 0.91814 0.53949 0.32686 0.0
C338 C 0.89103 0.54765 0.31177 0.0
C339 C 0.89262 0.55422 0.2815 0.0
C340 C 0.92144 0.55261 0.26679 0.0
C341 C 0.9623 0.62707 0.23849 0.0
C342 C 0.98075 0.57826 0.20824 0.0
C343 C 0.96896 0.60176 0.25378 0.0
N344 N 0.97803 0.57772 0.23864 0.0
C345 C 0.9743 0.60319 0.1922 0.0
C346 C 0.96503 0.62774 0.20749 0.0
C347 C 0.04058 0.51897 0.22409 0.0
C348 C 0.07742 0.47373 0.32852 0.0
C349 C 0.07556 0.46044 0.26842 0.0
C350 C 0.10397 0.45866 0.28384 0.0
C351 C 0.10484 0.46533 0.31413 0.0
N352 N 0.04858 0.4685 0.28265 0.0
C353 C 0.04945 0.47528 0.31233 0.0
Co354 Co 0.49881 0.05455 0.76014 0.0
Co355 Co 0.51694 0.98294 0.75857 0.0
O356 O 0.50718 0.01819 0.78048 0.0
C357 C 0.5275 0.07138 0.81979 0.0
O358 O 0.53203 0.0447 0.82776 0.0
C359 C 0.47875 0.93773 0.78791 0.0
O360 O 0.46783 0.9305 0.76151 0.0
O361 O 0.47707 0.98691 0.73473 0.0
O362 O 0.478 0.03419 0.72661 0.0
H363 H 0.5247 0.92192 0.66644 0.0
H364 H 0.47466 0.03977 0.82146 0.0
O365 O 0.51855 0.07743 0.79336 0.0
H366 H 0.38273 0.07445 0.76574 0.0
H367 H 0.46922 0.15887 0.75381 0.0
H368 H 0.50187 0.07365 0.69704 0.0
H369 H 0.43434 0.07202 0.74157 0.0
H370 H 0.47805 0.11296 0.77941 0.0
O371 O 0.49498 0.96049 0.79068 0.0
H372 H 0.51319 0.96569 0.69508 0.0
H373 H 0.54204 0.92485 0.77528 0.0
H374 H 0.49298 0.11906 0.67044 0.0
H375 H 0.42376 0.04244 0.84658 0.0
H376 H 0.47657 0.16214 0.69889 0.0
H377 H 0.37714 0.05987 0.81879 0.0
O378 O 0.54001 0.05165 0.73863 0.0
H379 H 0.58149 0.98374 0.85264 0.0
H380 H 0.5838 0.97051 0.74346 0.0
H381 H 0.63304 0.96713 0.77216 0.0
H382 H 0.63206 0.97365 0.82722 0.0
H383 H 0.53296 0.98743 0.82296 0.0
H384 H 0.55384 0.88068 0.74747 0.0
H385 H 0.54514 0.87898 0.69264 0.0
O386 O 0.54026 1.0047 0.72724 0.0
C387 C 0.46763 0.00927 0.72086 0.0
C388 C 0.52849 0.92236 0.69034 0.0
C389 C 0.54487 0.89923 0.7358 0.0
N390 N 0.5266 0.94785 0.7369 0.0
C391 C 0.52195 0.94709 0.70671 0.0
C392 C 0.53811 0.92433 0.75143 0.0
C393 C 0.53998 0.89829 0.70505 0.0
C394 C 0.455 0.04808 0.80921 0.0
N395 N 0.45817 0.05672 0.78019 0.0
C396 C 0.42595 0.04923 0.82357 0.0
C397 C 0.39979 0.05892 0.80796 0.0
C398 C 0.40292 0.0671 0.77822 0.0
C399 C 0.43234 0.06568 0.76462 0.0
C400 C 0.47656 0.1403 0.74118 0.0
C401 C 0.49495 0.09229 0.70958 0.0
C402 C 0.48188 0.11426 0.7556 0.0
N403 N 0.491 0.09064 0.73979 0.0
C404 C 0.48985 0.11795 0.6944 0.0
C405 C 0.48064 0.14211 0.71037 0.0
C406 C 0.55065 0.03012 0.72411 0.0
C407 C 0.58227 0.98099 0.82865 0.0
C408 C 0.5833 0.97397 0.7673 0.0
C409 C 0.6112 0.97174 0.78349 0.0
C410 C 0.61062 0.97534 0.81438 0.0
N411 N 0.55559 0.97968 0.7814 0.0
C412 C 0.55484 0.98306 0.8117 0.0
Co413 Co 0.99442 0.47222 0.74296 0.0
Co414 Co 0.01379 0.54216 0.75571 0.0
O415 O 0.00645 0.51014 0.72809 0.0
C416 C 0.03177 0.43109 0.70802 0.0
O417 O 0.04317 0.42179 0.7335 0.0
C418 C 0.98564 0.56813 0.69983 0.0
O419 O 0.97696 0.54291 0.69006 0.0
O420 O 0.97103 0.53664 0.77343 0.0
O421 O 0.97209 0.48899 0.77794 0.0
H422 H 0.0118 0.58967 0.85643 0.0
H423 H 0.97982 0.48582 0.67972 0.0
O424 O 0.01578 0.45413 0.70764 0.0
H425 H 0.87745 0.4663 0.72652 0.0
H426 H 0.95161 0.37171 0.73476 0.0
H427 H 0.99684 0.4442 0.80222 0.0
H428 H 0.92613 0.46293 0.75586 0.0
H429 H 0.96617 0.41929 0.71573 0.0
O430 O 0.9972 0.57086 0.72595 0.0
H431 H 0.0043 0.55005 0.82081 0.0
H432 H 0.03761 0.60218 0.7499 0.0
H433 H 0.98254 0.39686 0.82218 0.0
H434 H 0.93175 0.48881 0.64936 0.0
H435 H 0.95979 0.36019 0.78836 0.0
H436 H 0.88003 0.47918 0.67277 0.0
O437 O 0.03403 0.47103 0.76708 0.0
H438 H 0.09348 0.54716 0.67278 0.0
H439 H 0.07726 0.55242 0.78162 0.0
H440 H 0.13044 0.55848 0.76119 0.0
H441 H 0.13884 0.55603 0.70636 0.0
H442 H 0.04082 0.54093 0.69411 0.0
H443 H 0.04515 0.64244 0.78473 0.0
H444 H 0.03234 0.6363 0.83845 0.0
O445 O 0.03206 0.51557 0.78605 0.0
C446 C 0.96089 0.51335 0.78489 0.0
C447 C 0.01749 0.59261 0.83308 0.0
C448 C 0.03614 0.62224 0.79283 0.0
N449 N 0.02047 0.57373 0.78327 0.0
C450 C 0.01333 0.57022 0.81279 0.0
C451 C 0.03165 0.59939 0.77318 0.0
C452 C 0.02898 0.61877 0.82297 0.0
C453 C 0.95747 0.48139 0.69009 0.0
N454 N 0.9559 0.47445 0.7197 0.0
C455 C 0.93029 0.48322 0.67277 0.0
C456 C 0.90129 0.47785 0.68592 0.0
C457 C 0.89982 0.4707 0.71609 0.0
C458 C 0.9275 0.46908 0.7327 0.0
C459 C 0.96155 0.38748 0.74973 0.0
C460 C 0.98708 0.42836 0.78731 0.0
C461 C 0.96987 0.4145 0.73908 0.0
N462 N 0.98265 0.43454 0.75778 0.0
C463 C 0.97895 0.40159 0.79877 0.0
C464 C 0.96616 0.38103 0.77979 0.0
C465 C 0.0431 0.49024 0.78552 0.0
C466 C 0.09009 0.54853 0.69669 0.0
C467 C 0.08061 0.55146 0.75771 0.0
C468 C 0.11083 0.55487 0.74628 0.0
C469 C 0.11553 0.55347 0.71554 0.0
N470 N 0.05563 0.54702 0.73909 0.0
C471 C 0.06019 0.54522 0.70893 0.0
Co472 Co 0.21715 0.54086 0.00696 0.0
Co473 Co 0.21691 0.46869 1.00293 0.0
O474 O 0.24092 0.50471 0.00496 0.0
C475 C 0.27837 0.55556 0.97607 0.0
O476 O 0.28467 0.5285 0.97121 0.0
C477 C 0.27773 0.45373 0.03457 0.0
O478 O 0.2834 0.48066 0.04081 0.0
O479 O 0.19846 0.47847 0.04268 0.0
O480 O 0.18154 0.52148 0.02838 0.0
H481 H 0.11906 0.40998 0.01536 0.0
H482 H 0.28158 0.53737 0.03263 0.0
O483 O 0.25205 0.56288 0.98716 0.0
H484 H 0.21504 0.57271 0.1146 0.0
H485 H 0.20133 0.64687 0.02145 0.0
H486 H 0.15081 0.55553 0.9946 0.0
H487 H 0.19229 0.56267 0.06516 0.0
H488 H 0.23171 0.60204 0.02119 0.0
O489 O 0.25192 0.4465 0.02235 0.0
H490 H 0.15063 0.45415 0.01578 0.0
H491 H 0.231 0.40757 0.98812 0.0
H492 H 0.11944 0.5998 0.99494 0.0
H493 H 0.30537 0.54757 0.08153 0.0
H494 H 0.1447 0.64592 0.0084 0.0
H495 H 0.27204 0.5653 0.12306 0.0
O496 O 0.19833 0.53103 0.96726 0.0
H497 H 0.30469 0.46138 0.9282 0.0
H498 H 0.19138 0.44771 0.94458 0.0
H499 H 0.21382 0.43777 0.895 0.0
H500 H 0.27092 0.44447 0.88655 0.0
H501 H 0.28121 0.47147 0.97726 0.0
H502 H 0.20042 0.36284 0.98778 0.0
H503 H 0.14396 0.36388 1.00133 0.0
O504 O 0.18118 0.48828 0.982 0.0
C505 C 0.18178 0.50081 0.04699 0.0
C506 C 0.14365 0.40924 0.00945 0.0
C507 C 0.18932 0.38278 0.99402 0.0
N508 N 0.19271 0.43347 1.00212 0.0
C509 C 0.16166 0.4342 0.00963 0.0
C510 C 0.20659 0.40816 0.99446 0.0
C511 C 0.15764 0.38338 1.00159 0.0
C512 C 0.26691 0.54536 0.05034 0.0
N513 N 0.23557 0.54956 0.04576 0.0
C514 C 0.28052 0.55099 0.07811 0.0
C515 C 0.26181 0.5609 0.10141 0.0
C516 C 0.22985 0.56505 0.09668 0.0
C517 C 0.21708 0.55924 0.0686 0.0
C518 C 0.19006 0.62693 0.01546 0.0
C519 C 0.162 0.57549 1.0005 0.0
C520 C 0.20721 0.60149 0.01507 0.0
N521 N 0.19312 0.57616 0.00774 0.0
C522 C 0.1441 0.6005 1.00064 0.0
C523 C 0.15829 0.62637 0.00817 0.0
C524 C 0.18144 0.50878 0.96324 0.0
C525 C 0.27979 0.45829 0.93161 0.0
C526 C 0.21623 0.45083 0.94112 0.0
C527 C 0.22881 0.44508 0.91297 0.0
C528 C 0.26083 0.44884 0.90825 0.0
N529 N 0.23496 0.4601 0.964 0.0
C530 C 0.26635 0.46388 0.95945 0.0
Co531 Co 0.50129 0.28365 0.97785 0.0
Co532 Co 0.50216 0.28321 0.05334 0.0
O533 O 0.50199 0.26203 0.01543 0.0
C534 C 0.471 0.22642 0.96496 0.0
O535 O 0.46833 0.22074 0.99352 0.0
C536 C 0.5352 0.22701 0.06471 0.0
O537 O 0.54009 0.22329 0.03609 0.0
O538 O 0.54274 0.30113 0.04079 0.0
O539 O 0.52453 0.31641 0.9968 0.0
H540 H 0.51729 0.37153 0.11571 0.0
H541 H 0.53023 0.22514 0.97927 0.0
O542 O 0.4794 0.25129 0.95637 0.0
H543 H 0.61154 0.28833 0.93764 0.0
H544 H 0.50774 0.2975 0.86636 0.0
H545 H 0.48712 0.34413 0.96317 0.0
H546 H 0.5601 0.30774 0.952 0.0
H547 H 0.51103 0.27003 0.91321 0.0
O548 O 0.52463 0.25084 0.07432 0.0
H549 H 0.51482 0.34373 0.06897 0.0
H550 H 0.4928 0.26848 0.11776 0.0
H551 H 0.48393 0.37248 0.91687 0.0
H552 H 0.58102 0.20482 0.96471 0.0
H553 H 0.49426 0.34916 0.868 0.0
H554 H 0.62229 0.23646 0.94377 0.0
O555 O 0.46039 0.30054 0.99065 0.0
H556 H 0.42491 0.2023 0.06505 0.0
H557 H 0.44255 0.30558 0.07936 0.0
H558 H 0.39166 0.28462 0.09323 0.0
H559 H 0.38257 0.23257 0.08626 0.0
H560 H 0.47518 0.22415 0.05108 0.0
H561 H 0.49538 0.2954 0.16504 0.0
H562 H 0.50755 0.34735 0.16421 0.0
O563 O 0.47802 0.31579 0.03491 0.0
C564 C 0.54499 0.31701 0.01762 0.0
C565 C 0.51195 0.34891 0.11637 0.0
C566 C 0.4997 0.30618 0.14406 0.0
N567 N 0.50368 0.3045 0.09058 0.0
C568 C 0.51048 0.33305 0.08996 0.0
C569 C 0.49844 0.29101 0.1172 0.0
C570 C 0.5065 0.33533 0.14357 0.0
C571 C 0.54764 0.23909 0.96982 0.0
N572 N 0.54172 0.2676 0.96621 0.0
C573 C 0.57658 0.22744 0.96176 0.0
C574 C 0.59974 0.24519 0.95007 0.0
C575 C 0.59373 0.27428 0.94663 0.0
C576 C 0.56449 0.28515 0.95488 0.0
C577 C 0.50314 0.3079 0.88751 0.0
C578 C 0.49171 0.33382 0.94202 0.0
C579 C 0.5048 0.29241 0.91412 0.0
N580 N 0.49922 0.30543 0.94096 0.0
C581 C 0.48984 0.34999 0.91586 0.0
C582 C 0.49561 0.33689 0.88845 0.0
C583 C 0.45774 0.31627 0.01388 0.0
C584 C 0.42861 0.22499 0.06833 0.0
C585 C 0.43886 0.28292 0.07613 0.0
C586 C 0.40995 0.27117 0.0841 0.0
C587 C 0.40486 0.24198 0.08019 0.0
N588 N 0.46219 0.26611 0.06463 0.0
C589 C 0.45721 0.2375 0.06057 0.0
Co590 Co 0.7834 0.47265 0.00862 0.0
Co591 Co 0.78009 0.54448 1.00021 0.0
O592 O 0.75794 0.50779 0.00537 0.0
C593 C 0.72216 0.45445 0.98002 0.0
O594 O 0.71662 0.4805 0.97058 0.0
C595 C 0.7191 0.55922 0.03149 0.0
O596 O 0.71325 0.53223 0.03721 0.0
O597 O 0.80124 0.53735 0.03952 0.0
O598 O 0.81938 0.49447 0.02649 0.0
H599 H 0.876 0.60679 0.00453 0.0
H600 H 0.72035 0.47545 0.03681 0.0
O601 O 0.74821 0.44842 0.99245 0.0
H602 H 0.79245 0.44826 0.11804 0.0
H603 H 0.80435 0.36837 0.02946 0.0
H604 H 0.84951 0.45922 0.99382 0.0
H605 H 0.81221 0.4555 0.06695 0.0
H606 H 0.7722 0.41213 0.02774 0.0
O607 O 0.74543 0.56657 0.02041 0.0
H608 H 0.84633 0.5617 0.00867 0.0
H609 H 0.76261 0.60437 0.98319 0.0
H610 H 0.88262 0.41605 0.99551 0.0
H611 H 0.69951 0.46799 0.08746 0.0
H612 H 0.86006 0.37018 0.0134 0.0
H613 H 0.73566 0.4544 0.12859 0.0
O614 O 0.79976 0.48052 0.96762 0.0
H615 H 0.68811 0.54407 0.92935 0.0
H616 H 0.80085 0.56467 0.93996 0.0
H617 H 0.77531 0.57166 0.89124 0.0
H618 H 0.71842 0.56152 0.88567 0.0
H619 H 0.71469 0.53684 0.97743 0.0
H620 H 0.79125 0.65 0.97918 0.0
H621 H 0.84843 0.65138 0.98973 0.0
O622 O 0.8152 0.52506 0.9781 0.0
C623 C 0.81905 0.51582 0.04418 0.0
C624 C 0.85108 0.60647 0.99991 0.0
C625 C 0.80351 0.63074 0.98575 0.0
N626 N 0.80271 0.58039 0.99636 0.0
C627 C 0.83415 0.58099 1.00221 0.0
C628 C 0.78736 0.60487 0.98828 0.0
C629 C 0.8356 0.63149 0.99163 0.0
C630 C 0.73624 0.46936 0.05444 0.0
N631 N 0.76749 0.46597 0.04877 0.0
C632 C 0.72429 0.46523 0.08315 0.0
C633 C 0.74459 0.45762 0.10622 0.0
C634 C 0.77643 0.45418 0.10032 0.0
C635 C 0.78751 0.45842 0.07132 0.0
C636 C 0.81444 0.38821 0.02155 0.0
C637 C 0.83949 0.43937 1.00166 0.0
C638 C 0.79627 0.41303 0.02033 0.0
N639 N 0.80887 0.43824 0.01056 0.0
C640 C 0.85837 0.41498 1.00255 0.0
C641 C 0.8457 0.38925 0.01257 0.0
C642 C 0.81538 0.50306 0.96118 0.0
C643 C 0.71288 0.5487 0.9315 0.0
C644 C 0.77619 0.55999 0.9378 0.0
C645 C 0.7618 0.5641 0.9101 0.0
C646 C 0.7299 0.55843 0.907 0.0
N647 N 0.75935 0.55054 0.96186 0.0
C648 C 0.72809 0.5448 0.95884 0.0
Co649 Co 0.49998 0.7311 0.02864 0.0
Co650 Co 0.49817 0.72686 0.95335 0.0
O651 O 0.49911 0.75043 0.9897 0.0
C652 C 0.47083 0.78935 0.03939 0.0
O653 O 0.46883 0.79444 0.01066 0.0
C654 C 0.52875 0.78299 0.93615 0.0
O655 O 0.5335 0.7897 0.96422 0.0
O656 O 0.53956 0.71034 0.96574 0.0
O657 O 0.52298 0.6975 0.01116 0.0
H658 H 0.51278 0.63488 0.89691 0.0
H659 H 0.52887 0.78944 0.02165 0.0
O660 O 0.47841 0.76448 0.04874 0.0
H661 H 0.61152 0.72943 0.06592 0.0
H662 H 0.51044 0.72399 0.14058 0.0
H663 H 0.48716 0.67147 0.04764 0.0
H664 H 0.55969 0.70904 0.05456 0.0
H665 H 0.51181 0.74863 0.09195 0.0
O666 O 0.51911 0.75801 0.92919 0.0
H667 H 0.51177 0.66568 0.94158 0.0
H668 H 0.48521 0.73695 0.8885 0.0
H669 H 0.48591 0.64592 0.09576 0.0
H670 H 0.58004 0.81071 0.03311 0.0
H671 H 0.49757 0.67221 0.14269 0.0
H672 H 0.62199 0.78069 0.05539 0.0
O673 O 0.45877 0.71305 0.01824 0.0
H674 H 0.4184 0.80547 0.93992 0.0
H675 H 0.43808 0.70197 0.93089 0.0
H676 H 0.38611 0.72113 0.91782 0.0
H677 H 0.37598 0.77327 0.92212 0.0
H678 H 0.46977 0.78543 0.95316 0.0
H679 H 0.48631 0.70699 0.84321 0.0
H680 H 0.50002 0.65551 0.84725 0.0
O681 O 0.47558 0.69523 0.97482 0.0
C682 C 0.5427 0.69582 0.98978 0.0
C683 C 0.50679 0.65729 0.89485 0.0
C684 C 0.492 0.69777 0.8647 0.0
N685 N 0.49856 0.70315 0.9177 0.0
C686 C 0.50617 0.67485 0.92008 0.0
C687 C 0.49162 0.71468 0.89042 0.0
C688 C 0.49966 0.66888 0.86699 0.0
C689 C 0.54652 0.77621 0.03177 0.0
N690 N 0.54069 0.74809 0.03792 0.0
C691 C 0.5757 0.7884 0.03804 0.0
C692 C 0.59924 0.77154 0.05048 0.0
C693 C 0.59338 0.74281 0.05639 0.0
C694 C 0.56389 0.73139 0.04989 0.0
C695 C 0.50525 0.7123 0.12029 0.0
C696 C 0.49231 0.68307 0.06793 0.0
C697 C 0.5058 0.72619 0.09269 0.0
N698 N 0.49947 0.71154 0.06693 0.0
C699 C 0.49154 0.66848 0.09513 0.0
C700 C 0.49807 0.68325 0.12146 0.0
C701 C 0.45585 0.69579 0.99623 0.0
C702 C 0.42257 0.78273 0.93776 0.0
C703 C 0.43398 0.7247 0.93288 0.0
C704 C 0.40444 0.73542 0.9254 0.0
C705 C 0.39877 0.76466 0.92782 0.0
N706 N 0.45738 0.74257 0.94243 0.0
C707 C 0.4518 0.77123 0.94509 0.0
H708 H 0.02829 0.28704 0.39314 0.0
H709 H 0.9813 0.45264 0.37814 0.0
H710 H 0.02543 0.34488 0.46824 0.0
H711 H 0.98157 0.39292 0.30463 0.0
H712 H 0.99636 0.41368 0.41184 0.0
H713 H 0.01256 0.32619 0.36039 0.0
C714 C 0.02475 0.30805 0.40274 0.0
C715 C 0.02812 0.31252 0.4336 0.0
C716 C 0.99287 0.40908 0.38837 0.0
C717 C 0.00957 0.35763 0.39608 0.0
C718 C 0.98389 0.43127 0.36914 0.0
C719 C 0.98023 0.42614 0.33841 0.0
C720 C 0.99825 0.38153 0.37681 0.0
C721 C 0.98434 0.398 0.32808 0.0
C722 C 0.01555 0.33042 0.384 0.0
C723 C 0.0233 0.34036 0.44461 0.0
N724 N 0.9933 0.37689 0.34713 0.0
N725 N 0.01407 0.36178 0.42593 0.0
H726 H 0.69251 0.03328 0.40483 0.0
H727 H 0.53945 0.95941 0.33694 0.0
H728 H 0.63358 0.97536 0.45457 0.0
H729 H 0.61083 0.99716 0.28162 0.0
H730 H 0.5737 0.96484 0.38031 0.0
H731 H 0.66183 0.0224 0.35967 0.0
C732 C 0.6729 0.01862 0.40634 0.0
C733 C 0.66551 0.00535 0.43354 0.0
C734 C 0.58223 0.97143 0.3586 0.0
C735 C 0.63068 0.99249 0.38206 0.0
C736 C 0.56284 0.96781 0.33372 0.0
C737 C 0.57262 0.97727 0.30556 0.0
C738 C 0.6113 0.98532 0.35543 0.0
C739 C 0.6026 0.98937 0.30296 0.0
C740 C 0.65566 0.01213 0.38052 0.0
C741 C 0.64014 0.98615 0.43411 0.0
N742 N 0.62078 0.99339 0.32762 0.0
N743 N 0.62367 0.98038 0.40886 0.0
H744 H 0.01694 0.62022 0.30495 0.0
H745 H 0.97296 0.66793 0.47182 0.0
H746 H 0.014 0.56121 0.37897 0.0
H747 H 0.97486 0.72531 0.39636 0.0
H748 H 0.98698 0.62839 0.43854 0.0
H749 H 0.003 0.65904 0.33879 0.0
C750 C 0.01381 0.61546 0.32844 0.0
C751 C 0.01662 0.58731 0.33905 0.0
C752 C 0.98411 0.6496 0.42925 0.0
C753 C 1.00005 0.63185 0.37807 0.0
C754 C 0.97573 0.67219 0.4482 0.0
C755 C 0.97278 0.70014 0.43696 0.0
C756 C 0.98958 0.65493 0.3988 0.0
C757 C 0.97706 0.70425 0.40615 0.0
C758 C 0.00562 0.63767 0.34776 0.0
C759 C 0.01232 0.58257 0.36978 0.0
N760 N 0.98539 0.682 0.38826 0.0
N761 N 0.00402 0.60456 0.38816 0.0
H762 H 0.32977 0.95618 0.41926 0.0
H763 H 0.44131 0.05095 0.31458 0.0
H764 H 0.36156 0.04064 0.44418 0.0
H765 H 0.4385 0.9586 0.31219 0.0
H766 H 0.40512 0.04977 0.35743 0.0
H767 H 0.3634 0.95861 0.37491 0.0
C768 C 0.34375 0.97518 0.41549 0.0
C769 C 0.34257 0.99826 0.43548 0.0
C770 C 0.41236 0.02986 0.34719 0.0
C771 C 0.38065 1.00139 0.38455 0.0
C772 C 0.43286 0.03054 0.32268 0.0
C773 C 0.44286 1.0049 0.30941 0.0
C774 C 0.40152 1.00341 0.35813 0.0
C775 C 0.4313 0.97902 0.32118 0.0
C776 C 0.36287 0.9766 0.39014 0.0
C777 C 0.36132 0.02238 0.42932 0.0
N778 N 0.41128 0.97897 0.34467 0.0
N779 N 0.37938 0.02339 0.40436 0.0
H780 H 0.98213 0.56681 0.63856 0.0
H781 H 0.03415 0.73036 0.6182 0.0
H782 H 0.99924 0.62422 0.71233 0.0
H783 H 0.03013 0.66983 0.54549 0.0
H784 H 0.02063 0.69202 0.65293 0.0
H785 H 0.99671 0.60501 0.60392 0.0
C786 C 0.98847 0.58755 0.64751 0.0
C787 C 0.98949 0.59221 0.67849 0.0
C788 C 0.02299 0.68704 0.62942 0.0
C789 C 0.00675 0.63599 0.63885 0.0
C790 C 0.03091 0.70892 0.60956 0.0
C791 C 0.03331 0.70339 0.5788 0.0
C792 C 0.01712 0.65936 0.61852 0.0
C793 C 0.02878 0.67512 0.56899 0.0
C794 C 0.99713 0.60928 0.62769 0.0
C795 C 0.99822 0.61953 0.68868 0.0
N796 N 0.02062 0.65426 0.58872 0.0
N797 N 0.00658 0.6403 0.66895 0.0
H798 H 0.44493 0.96152 0.6905 0.0
H799 H 0.32943 0.05431 0.58712 0.0
H800 H 0.43734 0.05361 0.69403 0.0
H801 H 0.36188 0.97018 0.56189 0.0
H802 H 0.36331 0.05209 0.6313 0.0
H803 H 0.40827 0.96167 0.6478 0.0
C804 C 0.43538 0.98163 0.68269 0.0
C805 C 0.4442 0.00752 0.69623 0.0
C806 C 0.36291 0.0341 0.61605 0.0
C807 C 0.40234 0.00785 0.64773 0.0
C808 C 0.34363 0.03542 0.59078 0.0
C809 C 0.34258 0.01241 0.57072 0.0
C810 C 0.38108 0.0095 0.62149 0.0
C811 C 0.3616 0.98841 0.57678 0.0
C812 C 0.41461 0.98174 0.65827 0.0
C813 C 0.43119 0.033 0.68483 0.0
N814 N 0.37989 0.98752 0.60164 0.0
N815 N 0.41101 0.03248 0.66148 0.0
H816 H 0.97953 0.27666 0.61706 0.0
H817 H 0.00958 0.44201 0.65147 0.0
H818 H 0.9737 0.34116 0.54834 0.0
H819 H 0.04205 0.37326 0.70788 0.0
H820 H 0.99253 0.40663 0.61443 0.0
H821 H 0.99625 0.31321 0.65249 0.0
C822 C 0.98141 0.29855 0.60943 0.0
C823 C 0.97554 0.30566 0.57946 0.0
C824 C 0.00372 0.39936 0.63478 0.0
C825 C 0.99486 0.34782 0.62015 0.0
C826 C 0.01369 0.41954 0.65586 0.0
C827 C 0.02739 0.41068 0.6829 0.0
C828 C 0.00704 0.37007 0.64093 0.0
C829 C 0.03183 0.38122 0.68737 0.0
C830 C 0.99119 0.31942 0.62969 0.0
C831 C 0.97796 0.3346 0.57116 0.0
N832 N 0.02138 0.36203 0.66681 0.0
N833 N 0.98759 0.35459 0.59135 0.0
H834 H 0.54431 0.05756 0.67061 0.0
H835 H 0.69147 0.97594 0.59956 0.0
H836 H 0.61033 0.00938 0.72315 0.0
H837 H 0.63514 0.03726 0.55149 0.0
H838 H 0.66134 0.98673 0.64496 0.0
H839 H 0.57805 0.05146 0.62699 0.0
C840 C 0.56634 0.04643 0.67322 0.0
C841 C 0.5745 0.03396 0.70058 0.0
C842 C 0.65559 0.99777 0.62442 0.0
C843 C 0.61267 0.02566 0.6504 0.0
C844 C 0.67255 0.99135 0.59845 0.0
C845 C 0.66578 0.0056 0.57165 0.0
C846 C 0.63156 0.0184 0.62348 0.0
C847 C 0.64124 0.02571 0.57162 0.0
C848 C 0.58544 0.04252 0.64816 0.0
C849 C 0.60295 0.01896 0.70237 0.0
N850 N 0.62508 0.03146 0.59704 0.0
N851 N 0.62085 0.01494 0.67758 0.0
H852 H 0.45581 0.36422 0.0486 0.0
H853 H 0.27538 0.39725 0.01815 0.0
H854 H 0.40021 0.31592 0.98573 0.0
H855 H 0.33919 0.46107 0.05237 0.0
H856 H 0.31914 0.3642 0.01253 0.0
H857 H 0.41199 0.39712 0.05557 0.0
C858 C 0.4344 0.36056 0.03613 0.0
C859 C 0.43173 0.33723 0.01645 0.0
C860 C 0.32355 0.38541 0.02134 0.0
C861 C 0.3812 0.37477 0.02479 0.0
C862 C 0.29851 0.40435 0.02473 0.0
C863 C 0.30349 0.43227 0.03548 0.0
C864 C 0.35391 0.39413 0.02917 0.0
C865 C 0.33413 0.43987 0.04393 0.0
C866 C 0.4094 0.37942 0.04015 0.0
C867 C 0.40339 0.33369 1.00094 0.0
N868 N 0.35816 0.42093 0.04057 0.0
N869 N 0.37912 0.35213 0.00562 0.0
H870 H 0.27449 0.6129 0.9888 0.0
H871 H 0.45704 0.64395 0.96879 0.0
H872 H 0.34087 0.54781 0.9628 0.0
H873 H 0.39657 0.69858 0.02085 0.0
H874 H 0.41392 0.61029 0.9624 0.0
H875 H 0.31769 0.64653 0.99543 0.0
C876 C 0.29809 0.60564 0.98426 0.0
C877 C 0.30393 0.57723 0.97548 0.0
C878 C 0.41006 0.6295 0.9754 0.0
C879 C 0.35367 0.61596 0.98299 0.0
C880 C 0.43468 0.64879 0.97911 0.0
C881 C 0.43042 0.67417 0.99546 0.0
C882 C 0.38062 0.63569 0.9877 0.0
C883 C 0.40094 0.67919 0.0083 0.0
C884 C 0.32278 0.62491 0.98822 0.0
C885 C 0.33512 0.56939 0.9696 0.0
N886 N 0.37703 0.66024 0.00392 0.0
N887 N 0.35878 0.58862 0.9735 0.0
H888 H 0.60346 0.3168 0.04421 0.0
H889 H 0.66059 0.46028 0.96236 0.0
H890 H 0.54566 0.36492 0.98308 0.0
H891 H 0.72417 0.40041 0.00383 0.0
H892 H 0.61725 0.42733 0.97258 0.0
H893 H 0.64704 0.34981 0.03385 0.0
C894 C 0.59981 0.33445 0.02894 0.0
C895 C 0.57088 0.33803 0.01449 0.0
C896 C 0.64076 0.42137 0.97929 0.0
C897 C 0.62053 0.37571 1.00238 0.0
C898 C 0.66556 0.44013 0.9733 0.0
C899 C 0.6962 0.43328 0.9823 0.0
C900 C 0.6465 0.39566 0.99468 0.0
C901 C 0.70103 0.40682 0.99659 0.0
C902 C 0.62473 0.35313 0.02282 0.0
C903 C 0.56758 0.36118 0.99465 0.0
N904 N 0.67649 0.38915 1.00253 0.0
N905 N 0.592 0.37907 0.98923 0.0
H906 H 0.65623 0.55017 0.04187 0.0
H907 H 0.60273 0.69773 0.967 0.0
H908 H 0.72186 0.61616 0.01662 0.0
H909 H 0.54135 0.64642 0.02165 0.0
H910 H 0.64612 0.66494 0.97912 0.0
H911 H 0.61306 0.58297 0.0306 0.0
C912 C 0.66166 0.57161 0.03433 0.0
C913 C 0.69288 0.58019 0.02992 0.0
C914 C 0.62307 0.66086 0.9883 0.0
C915 C 0.64344 0.61763 0.01617 0.0
C916 C 0.59829 0.67936 0.98111 0.0
C917 C 0.56844 0.67479 0.9933 0.0
C918 C 0.61773 0.63744 0.00741 0.0
C919 C 0.56404 0.65084 0.01183 0.0
C920 C 0.63696 0.59028 0.02768 0.0
C921 C 0.69828 0.60832 0.01993 0.0
N922 N 0.58833 0.63308 0.01824 0.0
N923 N 0.67387 0.62587 0.01307 0.0
H924 H 0.51804 0.77754 0.87594 0.0
H925 H 0.49755 0.9453 0.84602 0.0
H926 H 0.5312 0.84131 0.94455 0.0
H927 H 0.46807 0.87991 0.78399 0.0
H928 H 0.51161 0.90805 0.88194 0.0
H929 H 0.50339 0.81524 0.84097 0.0
C930 C 0.51818 0.79947 0.88365 0.0
C931 C 0.52567 0.80609 0.91344 0.0
C932 C 0.50176 0.90185 0.8606 0.0
C933 C 0.50865 0.84961 0.87328 0.0
C934 C 0.49351 0.92314 0.84011 0.0
C935 C 0.48149 0.91582 0.81186 0.0
C936 C 0.49832 0.87292 0.85278 0.0
C937 C 0.47699 0.88667 0.8055 0.0
C938 C 0.5096 0.82103 0.86363 0.0
C939 C 0.52569 0.83508 0.92186 0.0
N940 N 0.48567 0.86634 0.82564 0.0
N941 N 0.51716 0.85571 0.90195 0.0
H942 H 0.12769 0.47774 0.95932 0.0
H943 H 0.10578 0.4997 0.78344 0.0
H944 H 0.1879 0.53252 0.9072 0.0
H945 H 0.03218 0.46948 0.8411 0.0
H946 H 0.14054 0.50425 0.82695 0.0
H947 H 0.09608 0.46845 0.91499 0.0
C948 C 0.13411 0.48807 0.93855 0.0
C949 C 0.16038 0.50616 0.93703 0.0
C950 C 0.117 0.49609 0.83001 0.0
C951 C 0.12448 0.49503 0.88586 0.0
C952 C 0.09735 0.49311 0.80518 0.0
C953 C 0.06635 0.48373 0.80875 0.0
C954 C 0.10549 0.48955 0.85858 0.0
C955 C 0.0562 0.47609 0.83739 0.0
C956 C 0.11608 0.48263 0.91321 0.0
C957 C 0.16761 0.51877 0.90945 0.0
N958 N 0.07568 0.47926 0.86125 0.0
N959 N 0.14986 0.51282 0.88486 0.0
H960 H 0.52121 0.06521 0.88066 0.0
H961 H 0.47349 0.22962 0.90395 0.0
H962 H 0.52454 0.12924 0.81134 0.0
H963 H 0.4775 0.16889 0.97642 0.0
H964 H 0.48959 0.19203 0.86948 0.0
H965 H 0.50523 0.10225 0.91631 0.0
C966 C 0.51919 0.08711 0.87302 0.0
C967 C 0.52411 0.09403 0.84285 0.0
C968 C 0.48677 0.18681 0.89288 0.0
C969 C 0.50504 0.13641 0.88342 0.0
C970 C 0.47733 0.20828 0.9126 0.0
C971 C 0.47425 0.20255 0.94324 0.0
C972 C 0.49323 0.15924 0.90374 0.0
C973 C 0.47942 0.17435 0.953 0.0
C974 C 0.50971 0.1082 0.89334 0.0
C975 C 0.52076 0.12278 0.83426 0.0
N976 N 0.48887 0.15381 0.93337 0.0
N977 N 0.51124 0.14278 0.85433 0.0
H978 H 0.93765 0.55926 0.81724 0.0
H979 H 0.82373 0.46193 0.91759 0.0
H980 H 0.92958 0.46755 0.80806 0.0
H981 H 0.85438 0.5464 0.9437 0.0
H982 H 0.85699 0.46547 0.87306 0.0
H983 H 0.90085 0.55706 0.85947 0.0
C984 C 0.9279 0.53879 0.82373 0.0
C985 C 0.93673 0.51363 0.80883 0.0
C986 C 0.8563 0.48323 0.88857 0.0
C987 C 0.89473 0.51095 0.857 0.0
C988 C 0.83737 0.48117 0.91403 0.0
C989 C 0.83603 0.5039 0.93445 0.0
C990 C 0.87381 0.50827 0.88337 0.0
C991 C 0.85432 0.52836 0.92855 0.0
C992 C 0.90705 0.53751 0.84792 0.0
C993 C 0.92345 0.48763 0.81852 0.0
N994 N 0.87228 0.52994 0.90357 0.0
N995 N 0.90322 0.487 0.84185 0.0
H996 H 0.49062 0.05832 0.13329 0.0
H997 H 0.52903 0.2262 0.1257 0.0
H998 H 0.49328 0.11355 0.21052 0.0
H999 H 0.53439 0.17008 0.04931 0.0
H1000 H 0.51563 0.18521 0.15696 0.0
H1001 H 0.50416 0.09929 0.10177 0.0
C1002 C 0.49351 0.07912 0.14361 0.0
C1003 C 0.49083 0.08239 0.1747 0.0
C1004 C 0.51997 0.18178 0.13341 0.0
C1005 C 0.50697 0.12937 0.1387 0.0
C1006 C 0.52783 0.20521 0.11553 0.0
C1007 C 0.53287 0.20171 0.08473 0.0
C1008 C 0.51689 0.15452 0.12049 0.0
C1009 C 0.53093 0.17388 0.07293 0.0
C1010 C 0.5016 0.10247 0.1256 0.0
C1011 C 0.49523 0.10989 0.18672 0.0
N1012 N 0.52287 0.15144 0.09075 0.0
N1013 N 0.50318 0.13221 0.16877 0.0
H1014 H 0.96264 0.46462 0.17068 0.0
H1015 H 0.81415 0.54425 0.09792 0.0
H1016 H 0.89936 0.51822 0.22043 0.0
H1017 H 0.87162 0.4833 0.05061 0.0
H1018 H 0.8458 0.53586 0.14293 0.0
H1019 H 0.92869 0.46978 0.12674 0.0
C1020 C 0.94123 0.47689 0.17258 0.0
C1021 C 0.93392 0.49122 0.19916 0.0
C1022 C 0.85154 0.52442 0.12263 0.0
C1023 C 0.8955 0.4981 0.14885 0.0
C1024 C 0.8337 0.5295 0.09686 0.0
C1025 C 0.84025 0.51455 0.07044 0.0
C1026 C 0.87619 0.50437 0.1219 0.0
C1027 C 0.86563 0.49531 0.07048 0.0
C1028 C 0.92204 0.4802 0.14739 0.0
C1029 C 0.90616 0.50731 0.20021 0.0
N1030 N 0.88257 0.49075 0.09574 0.0
N1031 N 0.88813 0.51055 0.17541 0.0
H1032 H 0.47252 0.78746 0.10051 0.0
H1033 H 0.51904 0.95241 0.12215 0.0
H1034 H 0.47821 0.84662 0.02676 0.0
H1035 H 0.52536 0.88837 0.19126 0.0
H1036 H 0.50337 0.91499 0.08664 0.0
H1037 H 0.48851 0.82562 0.13435 0.0
C1038 C 0.47675 0.80857 0.09143 0.0
C1039 C 0.47417 0.81367 0.06062 0.0
C1040 C 0.50848 0.90914 0.10953 0.0
C1041 C 0.49297 0.85769 0.09944 0.0
C1042 C 0.51779 0.93046 0.12975 0.0
C1043 C 0.52345 0.92361 0.15983 0.0
C1044 C 0.50469 0.88082 0.1195 0.0
C1045 C 0.52102 0.89478 0.1684 0.0
C1046 C 0.48611 0.83038 0.11079 0.0
C1047 C 0.47976 0.84164 0.05032 0.0
N1048 N 0.51161 0.8746 0.14847 0.0
N1049 N 0.48909 0.86254 0.06963 0.0
H1050 H 0.18332 0.46967 0.0992 0.0
H1051 H 0.03872 0.55289 0.17395 0.0
H1052 H 0.13342 0.53824 0.05552 0.0
H1053 H 0.09755 0.49325 0.22113 0.0
H1054 H 0.07389 0.54929 0.13071 0.0
H1055 H 0.15139 0.47756 0.14398 0.0
C1056 C 0.16549 0.48617 0.09891 0.0
C1057 C 0.16108 0.50324 0.07352 0.0
C1058 C 0.07926 0.53718 0.15067 0.0
C1059 C 0.12467 0.51269 0.12478 0.0
C1060 C 0.05935 0.53952 0.17547 0.0
C1061 C 0.06497 0.52298 0.20101 0.0
C1062 C 0.10481 0.51809 0.15152 0.0
C1063 C 0.09189 0.50574 0.20162 0.0
C1064 C 0.14744 0.49087 0.12456 0.0
C1065 C 0.13776 0.52454 0.07456 0.0
N1066 N 0.1106 0.50351 0.17722 0.0
N1067 N 0.12047 0.52863 0.09968 0.0
H1068 H 0.77815 0.89747 0.51865 0.0
H1069 H 0.96123 0.86687 0.53345 0.0
H1070 H 0.84478 0.96281 0.54356 0.0
H1071 H 0.89987 0.81426 0.47994 0.0
H1072 H 0.91808 0.90005 0.54215 0.0
H1073 H 0.82139 0.86427 0.51041 0.0
C1074 C 0.80181 0.90487 0.52263 0.0
C1075 C 0.80771 0.93324 0.53151 0.0
C1076 C 0.91405 0.88138 0.52835 0.0
C1077 C 0.85749 0.895 0.52219 0.0
C1078 C 0.93867 0.86238 0.52332 0.0
C1079 C 0.93417 0.83772 0.50584 0.0
C1080 C 0.8844 0.87558 0.51625 0.0
C1081 C 0.90443 0.8331 0.49332 0.0
C1082 C 0.82652 0.88585 0.51775 0.0
C1083 C 0.839 0.94124 0.53669 0.0
N1084 N 0.88056 0.85173 0.499 0.0
N1085 N 0.86269 0.92225 0.5319 0.0
H1086 H 0.96057 0.14545 0.47133 0.0
H1087 H 0.77811 0.11322 0.48643 0.0
H1088 H 0.89979 0.1952 0.52818 0.0
H1089 H 0.84488 0.04806 0.46151 0.0
H1090 H 0.82128 0.14642 0.49506 0.0
H1091 H 0.91759 0.11213 0.462 0.0
C1092 C 0.93818 0.14928 0.48203 0.0
C1093 C 0.93377 0.17315 0.50067 0.0
C1094 C 0.82646 0.12488 0.48763 0.0
C1095 C 0.88424 0.13522 0.48952 0.0
C1096 C 0.80179 0.10586 0.48252 0.0
C1097 C 0.80775 0.07753 0.47357 0.0
C1098 C 0.85743 0.11579 0.48328 0.0
C1099 C 0.83906 0.06959 0.46845 0.0
C1100 C 0.91367 0.13021 0.47666 0.0
C1101 C 0.90427 0.17696 0.5139 0.0
N1102 N 0.86272 0.08861 0.47342 0.0
N1103 N 0.88049 0.15833 0.50783 0.0
H1104 H 0.10439 0.81593 0.53487 0.0
H1105 H 0.16429 0.95983 0.45693 0.0
H1106 H 0.04906 0.86252 0.47043 0.0
H1107 H 0.22681 0.89742 0.49573 0.0
H1108 H 0.12052 0.92665 0.46474 0.0
H1109 H 0.14831 0.84869 0.5253 0.0
C1110 C 0.10137 0.83317 0.51897 0.0
C1111 C 0.07303 0.83644 0.50344 0.0
C1112 C 0.14391 0.92022 0.47136 0.0
C1113 C 0.12305 0.87388 0.49232 0.0
C1114 C 0.16895 0.9391 0.46676 0.0
C1115 C 0.19936 0.93161 0.47589 0.0
C1116 C 0.14924 0.89382 0.48553 0.0
C1117 C 0.20382 0.90439 0.48863 0.0
C1118 C 0.12649 0.8517 0.51332 0.0
C1119 C 0.07052 0.85907 0.48286 0.0
N1120 N 0.17906 0.88667 0.49335 0.0
N1121 N 0.09512 0.87693 0.47798 0.0
H1122 H 0.04426 0.14345 0.52571 0.0
H1123 H 0.22815 0.11457 0.51295 0.0
H1124 H 0.10627 0.19869 0.47611 0.0
H1125 H 0.16174 0.05037 0.5412 0.0
H1126 H 0.18482 0.14748 0.50366 0.0
H1127 H 0.08762 0.11068 0.53456 0.0
C1128 C 0.06702 0.14858 0.5164 0.0
C1129 C 0.07163 0.17389 0.50006 0.0
C1130 C 0.17974 0.12622 0.51196 0.0
C1131 C 0.12175 0.13643 0.51064 0.0
C1132 C 0.20451 0.10738 0.51745 0.0
C1133 C 0.1987 0.07941 0.52765 0.0
C1134 C 0.14881 0.11726 0.517 0.0
C1135 C 0.16747 0.07163 0.53336 0.0
C1136 C 0.09181 0.12981 0.52154 0.0
C1137 C 0.10164 0.17932 0.48856 0.0
N1138 N 0.14375 0.09041 0.52789 0.0
N1139 N 0.12568 0.16085 0.49431 0.0
loop_
_geom_bond_atom_site_label_1
_geom_bond_atom_site_label_2
_geom_bond_distance
_geom_bond_site_symmetry_2
_ccdc_geom_bond_type
Co0 O2 2.143 . S
Co0 O8 2.074 . S
Co0 O11 2.093 1_455 S
Co0 O24 2.097 1_455 S
Co0 N41 2.151 . S
Co0 N49 2.214 . S
Co1 O2 2.160 1_655 S
Co1 O7 2.058 1_655 S
Co1 O17 2.057 1_655 S
Co1 O32 2.037 . S
Co1 N36 2.145 . S
Co1 N57 2.257 . S
O2 Co0 2.143 . S
O2 Co1 2.160 1_455 S
C3 O4 1.278 . S
C3 O11 1.224 . S
O4 C3 1.278 . S
C5 O6 1.245 . S
C5 O17 1.232 . S
O6 C5 1.245 . S
O7 Co1 2.058 1_455 S
O7 C33 1.269 . S
O8 Co0 2.074 . S
O8 C33 1.257 . S
H9 C34 0.930 . S
H10 C40 0.930 . S
O11 Co0 2.093 1_655 S
O11 C3 1.224 . S
H12 C44 0.929 . S
H13 C46 0.930 . S
H14 C47 0.930 . S
H15 C45 0.929 . S
H16 C48 0.928 . S
O17 Co1 2.057 1_455 S
O17 C5 1.232 . S
H18 C37 0.929 . S
H19 C38 0.929 . S
H20 C50 0.931 . S
H21 C42 0.929 . S
H22 C51 0.930 . S
H23 C43 0.931 . S
O24 Co0 2.097 1_655 S
O24 C52 1.214 . S
H25 C53 0.929 . S
H26 C54 0.929 . S
H27 C55 0.930 . S
H28 C56 0.929 . S
H29 C58 0.930 . S
H30 C35 0.930 . S
H31 C39 0.930 . S
O32 Co1 2.037 . S
O32 C52 1.234 . S
C33 O7 1.269 . S
C33 O8 1.257 . S
C34 H9 0.930 . S
C34 C37 1.388 . S
C34 C39 1.418 . S
C35 H30 0.930 . S
C35 C38 1.404 . S
C35 C39 1.353 . S
N36 Co1 2.145 . S
N36 C37 1.397 . S
N36 C38 1.334 . S
C37 H18 0.929 . S
C37 C34 1.388 . S
C37 N36 1.397 . S
C38 H19 0.929 . S
C38 C35 1.404 . S
C38 N36 1.334 . S
C39 H31 0.930 . S
C39 C34 1.418 . S
C39 C35 1.353 . S
C40 H10 0.930 . S
C40 N41 1.330 . S
C40 C42 1.446 . S
N41 Co0 2.151 . S
N41 C40 1.330 . S
N41 C45 1.418 . S
C42 H21 0.929 . S
C42 C40 1.446 . S
C42 C43 1.332 . S
C43 H23 0.931 . S
C43 C42 1.332 . S
C43 C44 1.267 . S
C44 H12 0.929 . S
C44 C43 1.267 . S
C44 C45 1.251 . S
C45 H15 0.929 . S
C45 N41 1.418 . S
C45 C44 1.251 . S
C46 H13 0.930 . S
C46 C48 1.406 . S
C46 C51 1.261 . S
C47 H14 0.930 . S
C47 N49 1.325 . S
C47 C50 1.357 . S
C48 H16 0.928 . S
C48 C46 1.406 . S
C48 N49 1.261 . S
N49 Co0 2.214 . S
N49 C47 1.325 . S
N49 C48 1.261 . S
C50 H20 0.931 . S
C50 C47 1.357 . S
C50 C51 1.312 . S
C51 H22 0.930 . S
C51 C46 1.261 . S
C51 C50 1.312 . S
C52 O24 1.214 . S
C52 O32 1.234 . S
C53 H25 0.929 . S
C53 C56 1.391 . S
C53 C58 1.391 . S
C54 H26 0.929 . S
C54 C55 1.390 . S
C54 N57 1.391 . S
C55 H27 0.930 . S
C55 C54 1.390 . S
C55 C56 1.392 . S
C56 H28 0.929 . S
C56 C53 1.391 . S
C56 C55 1.392 . S
N57 Co1 2.257 . S
N57 C54 1.391 . S
N57 C58 1.388 . S
C58 H29 0.930 . S
C58 C53 1.391 . S
C58 N57 1.388 . S
Co59 O61 2.143 . S
Co59 O67 2.074 . S
Co59 O70 2.093 . S
Co59 O83 2.097 . S
Co59 N100 2.151 . S
Co59 N108 2.214 . S
Co60 O61 2.160 1_565 S
Co60 O66 2.058 . S
Co60 O76 2.057 . S
Co60 O91 2.037 . S
Co60 N95 2.145 . S
Co60 N116 2.257 . S
O61 Co59 2.143 . S
O61 Co60 2.160 1_545 S
C62 O63 1.278 . S
C62 O70 1.224 . S
O63 C62 1.278 . S
C64 O65 1.245 . S
C64 O76 1.232 . S
O65 C64 1.245 . S
O66 Co60 2.058 . S
O66 C92 1.269 . S
O67 Co59 2.074 . S
O67 C92 1.257 1_545 S
H68 C93 0.930 . S
H69 C99 0.930 . S
O70 Co59 2.093 . S
O70 C62 1.224 . S
H71 C103 0.929 . S
H72 C105 0.930 . S
H73 C106 0.930 . S
H74 C104 0.929 . S
H75 C107 0.928 . S
O76 Co60 2.057 . S
O76 C64 1.232 . S
H77 C96 0.929 . S
H78 C97 0.929 . S
H79 C109 0.931 . S
H80 C101 0.929 . S
H81 C110 0.930 . S
H82 C102 0.931 . S
O83 Co59 2.097 . S
O83 C111 1.214 . S
H84 C112 0.929 . S
H85 C113 0.929 . S
H86 C114 0.930 . S
H87 C115 0.929 . S
H88 C117 0.930 . S
H89 C94 0.930 . S
H90 C98 0.930 . S
O91 Co60 2.037 . S
O91 C111 1.234 1_565 S
C92 O66 1.269 . S
C92 O67 1.257 1_565 S
C93 H68 0.930 . S
C93 C96 1.388 . S
C93 C98 1.418 . S
C94 H89 0.930 . S
C94 C97 1.404 . S
C94 C98 1.353 . S
N95 Co60 2.145 . S
N95 C96 1.397 . S
N95 C97 1.334 . S
C96 H77 0.929 . S
C96 C93 1.388 . S
C96 N95 1.397 . S
C97 H78 0.929 . S
C97 C94 1.404 . S
C97 N95 1.334 . S
C98 H90 0.930 . S
C98 C93 1.418 . S
C98 C94 1.353 . S
C99 H69 0.930 . S
C99 N100 1.330 . S
C99 C101 1.446 . S
N100 Co59 2.151 . S
N100 C99 1.330 . S
N100 C104 1.418 . S
C101 H80 0.929 . S
C101 C99 1.446 . S
C101 C102 1.332 . S
C102 H82 0.931 . S
C102 C101 1.332 . S
C102 C103 1.267 . S
C103 H71 0.929 . S
C103 C102 1.267 . S
C103 C104 1.251 . S
C104 H74 0.929 . S
C104 N100 1.418 . S
C104 C103 1.251 . S
C105 H72 0.930 . S
C105 C107 1.406 . S
C105 C110 1.261 . S
C106 H73 0.930 . S
C106 N108 1.325 . S
C106 C109 1.357 . S
C107 H75 0.928 . S
C107 C105 1.406 . S
C107 N108 1.261 . S
N108 Co59 2.214 . S
N108 C106 1.325 . S
N108 C107 1.261 . S
C109 H79 0.931 . S
C109 C106 1.357 . S
C109 C110 1.312 . S
C110 H81 0.930 . S
C110 C105 1.261 . S
C110 C109 1.312 . S
C111 O83 1.214 . S
C111 O91 1.234 1_545 S
C112 H84 0.929 . S
C112 C115 1.391 . S
C112 C117 1.391 . S
C113 H85 0.929 . S
C113 C114 1.390 . S
C113 N116 1.391 . S
C114 H86 0.930 . S
C114 C113 1.390 . S
C114 C115 1.392 . S
C115 H87 0.929 . S
C115 C112 1.391 . S
C115 C114 1.392 . S
N116 Co60 2.257 . S
N116 C113 1.391 . S
N116 C117 1.388 . S
C117 H88 0.930 . S
C117 C112 1.391 . S
C117 N116 1.388 . S
Co118 O120 2.143 . S
Co118 O126 2.074 . S
Co118 O129 2.093 1_455 S
Co118 O142 2.097 1_455 S
Co118 N159 2.151 . S
Co118 N167 2.214 . S
Co119 O120 2.160 1_655 S
Co119 O125 2.058 1_655 S
Co119 O135 2.057 1_655 S
Co119 O150 2.037 . S
Co119 N154 2.145 . S
Co119 N175 2.257 . S
O120 Co118 2.143 . S
O120 Co119 2.160 1_455 S
C121 O122 1.278 . S
C121 O129 1.224 . S
O122 C121 1.278 . S
C123 O124 1.245 . S
C123 O135 1.232 . S
O124 C123 1.245 . S
O125 Co119 2.058 1_455 S
O125 C151 1.269 . S
O126 Co118 2.074 . S
O126 C151 1.257 . S
H127 C152 0.930 . S
H128 C158 0.930 . S
O129 Co118 2.093 1_655 S
O129 C121 1.224 . S
H130 C162 0.929 . S
H131 C164 0.930 . S
H132 C165 0.930 . S
H133 C163 0.929 . S
H134 C166 0.928 . S
O135 Co119 2.057 1_455 S
O135 C123 1.232 . S
H136 C155 0.929 . S
H137 C156 0.929 . S
H138 C168 0.931 . S
H139 C160 0.929 . S
H140 C169 0.930 . S
H141 C161 0.931 . S
O142 Co118 2.097 1_655 S
O142 C170 1.214 . S
H143 C171 0.929 . S
H144 C172 0.929 . S
H145 C173 0.930 . S
H146 C174 0.929 . S
H147 C176 0.930 . S
H148 C153 0.930 . S
H149 C157 0.930 . S
O150 Co119 2.037 . S
O150 C170 1.234 . S
C151 O125 1.269 . S
C151 O126 1.257 . S
C152 H127 0.930 . S
C152 C155 1.388 . S
C152 C157 1.418 . S
C153 H148 0.930 . S
C153 C156 1.404 . S
C153 C157 1.353 . S
N154 Co119 2.145 . S
N154 C155 1.397 . S
N154 C156 1.334 . S
C155 H136 0.929 . S
C155 C152 1.388 . S
C155 N154 1.397 . S
C156 H137 0.929 . S
C156 C153 1.404 . S
C156 N154 1.334 . S
C157 H149 0.930 . S
C157 C152 1.418 . S
C157 C153 1.353 . S
C158 H128 0.930 . S
C158 N159 1.330 . S
C158 C160 1.446 . S
N159 Co118 2.151 . S
N159 C158 1.330 . S
N159 C163 1.418 . S
C160 H139 0.929 . S
C160 C158 1.446 . S
C160 C161 1.332 . S
C161 H141 0.931 . S
C161 C160 1.332 . S
C161 C162 1.267 . S
C162 H130 0.929 . S
C162 C161 1.267 . S
C162 C163 1.251 . S
C163 H133 0.929 . S
C163 N159 1.418 . S
C163 C162 1.251 . S
C164 H131 0.930 . S
C164 C166 1.406 . S
C164 C169 1.261 . S
C165 H132 0.930 . S
C165 N167 1.325 . S
C165 C168 1.357 . S
C166 H134 0.928 . S
C166 C164 1.406 . S
C166 N167 1.261 . S
N167 Co118 2.214 . S
N167 C165 1.325 . S
N167 C166 1.261 . S
C168 H138 0.931 . S
C168 C165 1.357 . S
C168 C169 1.312 . S
C169 H140 0.930 . S
C169 C164 1.261 . S
C169 C168 1.312 . S
C170 O142 1.214 . S
C170 O150 1.234 . S
C171 H143 0.929 . S
C171 C174 1.391 . S
C171 C176 1.391 . S
C172 H144 0.929 . S
C172 C173 1.390 . S
C172 N175 1.391 . S
C173 H145 0.930 . S
C173 C172 1.390 . S
C173 C174 1.392 . S
C174 H146 0.929 . S
C174 C171 1.391 . S
C174 C173 1.392 . S
N175 Co119 2.257 . S
N175 C172 1.391 . S
N175 C176 1.388 . S
C176 H147 0.930 . S
C176 C171 1.391 . S
C176 N175 1.388 . S
Co177 O179 2.164 . S
Co177 O185 2.074 . S
Co177 O188 2.093 . S
Co177 O201 2.097 . S
Co177 N218 2.151 . S
Co177 N226 2.214 . S
Co178 O179 2.138 1_545 S
Co178 O184 2.058 . S
Co178 O194 2.057 . S
Co178 O209 2.037 . S
Co178 N213 2.145 . S
Co178 N234 2.257 . S
O179 Co177 2.164 . S
O179 Co178 2.138 1_565 S
C180 O181 1.278 . S
C180 O188 1.224 . S
O181 C180 1.278 . S
C182 O183 1.245 . S
C182 O194 1.232 . S
O183 C182 1.245 . S
O184 Co178 2.058 . S
O184 C210 1.269 . S
O185 Co177 2.074 . S
O185 C210 1.257 1_565 S
H186 C211 0.930 . S
H187 C217 0.930 . S
O188 Co177 2.093 . S
O188 C180 1.224 . S
H189 C221 0.929 . S
H190 C223 0.930 . S
H191 C224 0.930 . S
H192 C222 0.929 . S
H193 C225 0.928 . S
O194 Co178 2.057 . S
O194 C182 1.232 . S
H195 C214 0.929 . S
H196 C215 0.929 . S
H197 C227 0.931 . S
H198 C219 0.929 . S
H199 C228 0.930 . S
H200 C220 0.931 . S
O201 Co177 2.097 . S
O201 C229 1.214 . S
H202 C230 0.929 . S
H203 C231 0.929 . S
H204 C232 0.930 . S
H205 C233 0.929 . S
H206 C235 0.930 . S
H207 C212 0.930 . S
H208 C216 0.930 . S
O209 Co178 2.037 . S
O209 C229 1.234 1_545 S
C210 O184 1.269 . S
C210 O185 1.257 1_545 S
C211 H186 0.930 . S
C211 C214 1.388 . S
C211 C216 1.418 . S
C212 H207 0.930 . S
C212 C215 1.404 . S
C212 C216 1.353 . S
N213 Co178 2.145 . S
N213 C214 1.397 . S
N213 C215 1.334 . S
C214 H195 0.929 . S
C214 C211 1.388 . S
C214 N213 1.397 . S
C215 H196 0.929 . S
C215 C212 1.404 . S
C215 N213 1.334 . S
C216 H208 0.930 . S
C216 C211 1.418 . S
C216 C212 1.353 . S
C217 H187 0.930 . S
C217 N218 1.330 . S
C217 C219 1.446 . S
N218 Co177 2.151 . S
N218 C217 1.330 . S
N218 C222 1.418 . S
C219 H198 0.929 . S
C219 C217 1.446 . S
C219 C220 1.332 . S
C220 H200 0.931 . S
C220 C219 1.332 . S
C220 C221 1.267 . S
C221 H189 0.929 . S
C221 C220 1.267 . S
C221 C222 1.251 . S
C222 H192 0.929 . S
C222 N218 1.418 . S
C222 C221 1.251 . S
C223 H190 0.930 . S
C223 C225 1.406 . S
C223 C228 1.261 . S
C224 H191 0.930 . S
C224 N226 1.325 . S
C224 C227 1.357 . S
C225 H193 0.928 . S
C225 C223 1.406 . S
C225 N226 1.261 . S
N226 Co177 2.214 . S
N226 C224 1.325 . S
N226 C225 1.261 . S
C227 H197 0.931 . S
C227 C224 1.357 . S
C227 C228 1.312 . S
C228 H199 0.930 . S
C228 C223 1.261 . S
C228 C227 1.312 . S
C229 O201 1.214 . S
C229 O209 1.234 1_565 S
C230 H202 0.929 . S
C230 C233 1.391 . S
C230 C235 1.391 . S
C231 H203 0.929 . S
C231 C232 1.390 . S
C231 N234 1.391 . S
C232 H204 0.930 . S
C232 C231 1.390 . S
C232 C233 1.392 . S
C233 H205 0.929 . S
C233 C230 1.391 . S
C233 C232 1.392 . S
N234 Co178 2.257 . S
N234 C231 1.391 . S
N234 C235 1.388 . S
C235 H206 0.930 . S
C235 C230 1.391 . S
C235 N234 1.388 . S
Co236 O238 2.172 . S
Co236 O244 2.074 . S
Co236 O247 2.093 . S
Co236 O260 2.097 . S
Co236 N277 2.151 . S
Co236 N285 2.214 . S
Co237 O238 2.131 1_545 S
Co237 O243 2.058 . S
Co237 O253 2.057 . S
Co237 O268 2.037 . S
Co237 N272 2.145 . S
Co237 N293 2.257 . S
O238 Co236 2.172 . S
O238 Co237 2.131 1_565 S
C239 O240 1.278 . S
C239 O247 1.224 . S
O240 C239 1.278 . S
C241 O242 1.245 . S
C241 O253 1.232 . S
O242 C241 1.245 . S
O243 Co237 2.058 . S
O243 C269 1.269 . S
O244 Co236 2.074 . S
O244 C269 1.257 1_565 S
H245 C270 0.930 . S
H246 C276 0.930 . S
O247 Co236 2.093 . S
O247 C239 1.224 . S
H248 C280 0.929 . S
H249 C282 0.930 . S
H250 C283 0.930 . S
H251 C281 0.929 . S
H252 C284 0.928 . S
O253 Co237 2.057 . S
O253 C241 1.232 . S
H254 C273 0.929 . S
H255 C274 0.929 . S
H256 C286 0.931 . S
H257 C278 0.929 . S
H258 C287 0.930 . S
H259 C279 0.931 . S
O260 Co236 2.097 . S
O260 C288 1.214 . S
H261 C289 0.929 . S
H262 C290 0.929 . S
H263 C291 0.930 . S
H264 C292 0.929 . S
H265 C294 0.930 . S
H266 C271 0.930 . S
H267 C275 0.930 . S
O268 Co237 2.037 . S
O268 C288 1.234 1_545 S
C269 O243 1.269 . S
C269 O244 1.257 1_545 S
C270 H245 0.930 . S
C270 C273 1.388 . S
C270 C275 1.418 . S
C271 H266 0.930 . S
C271 C274 1.404 . S
C271 C275 1.353 . S
N272 Co237 2.145 . S
N272 C273 1.397 . S
N272 C274 1.334 . S
C273 H254 0.929 . S
C273 C270 1.388 . S
C273 N272 1.397 . S
C274 H255 0.929 . S
C274 C271 1.404 . S
C274 N272 1.334 . S
C275 H267 0.930 . S
C275 C270 1.418 . S
C275 C271 1.353 . S
C276 H246 0.930 . S
C276 N277 1.330 . S
C276 C278 1.446 . S
N277 Co236 2.151 . S
N277 C276 1.330 . S
N277 C281 1.418 . S
C278 H257 0.929 . S
C278 C276 1.446 . S
C278 C279 1.332 . S
C279 H259 0.931 . S
C279 C278 1.332 . S
C279 C280 1.267 . S
C280 H248 0.929 . S
C280 C279 1.267 . S
C280 C281 1.251 . S
C281 H251 0.929 . S
C281 N277 1.418 . S
C281 C280 1.251 . S
C282 H249 0.930 . S
C282 C284 1.406 . S
C282 C287 1.261 . S
C283 H250 0.930 . S
C283 N285 1.325 . S
C283 C286 1.357 . S
C284 H252 0.928 . S
C284 C282 1.406 . S
C284 N285 1.261 . S
N285 Co236 2.214 . S
N285 C283 1.325 . S
N285 C284 1.261 . S
C286 H256 0.931 . S
C286 C283 1.357 . S
C286 C287 1.312 . S
C287 H258 0.930 . S
C287 C282 1.261 . S
C287 C286 1.312 . S
C288 O260 1.214 . S
C288 O268 1.234 1_565 S
C289 H261 0.929 . S
C289 C292 1.391 . S
C289 C294 1.391 . S
C290 H262 0.929 . S
C290 C291 1.390 . S
C290 N293 1.391 . S
C291 H263 0.930 . S
C291 C290 1.390 . S
C291 C292 1.392 . S
C292 H264 0.929 . S
C292 C289 1.391 . S
C292 C291 1.392 . S
N293 Co237 2.257 . S
N293 C290 1.391 . S
N293 C294 1.388 . S
C294 H265 0.930 . S
C294 C289 1.391 . S
C294 N293 1.388 . S
Co295 O297 2.143 . S
Co295 O303 2.074 . S
Co295 O306 2.093 1_655 S
Co295 O319 2.097 1_655 S
Co295 N336 2.151 . S
Co295 N344 2.214 . S
Co296 O297 2.160 1_455 S
Co296 O302 2.058 1_455 S
Co296 O312 2.057 1_455 S
Co296 O327 2.037 . S
Co296 N331 2.145 . S
Co296 N352 2.257 . S
O297 Co295 2.143 . S
O297 Co296 2.160 1_655 S
C298 O299 1.278 . S
C298 O306 1.224 . S
O299 C298 1.278 . S
C300 O301 1.245 . S
C300 O312 1.232 . S
O301 C300 1.245 . S
O302 Co296 2.058 1_655 S
O302 C328 1.269 . S
O303 Co295 2.074 . S
O303 C328 1.257 . S
H304 C329 0.930 . S
H305 C335 0.930 . S
O306 Co295 2.093 1_455 S
O306 C298 1.224 . S
H307 C339 0.929 . S
H308 C341 0.930 . S
H309 C342 0.930 . S
H310 C340 0.929 . S
H311 C343 0.928 . S
O312 Co296 2.057 1_655 S
O312 C300 1.232 . S
H313 C332 0.929 . S
H314 C333 0.929 . S
H315 C345 0.931 . S
H316 C337 0.929 . S
H317 C346 0.930 . S
H318 C338 0.931 . S
O319 Co295 2.097 1_455 S
O319 C347 1.214 . S
H320 C348 0.929 . S
H321 C349 0.929 . S
H322 C350 0.930 . S
H323 C351 0.929 . S
H324 C353 0.930 . S
H325 C330 0.930 . S
H326 C334 0.930 . S
O327 Co296 2.037 . S
O327 C347 1.234 . S
C328 O302 1.269 . S
C328 O303 1.257 . S
C329 H304 0.930 . S
C329 C332 1.388 . S
C329 C334 1.418 . S
C330 H325 0.930 . S
C330 C333 1.404 . S
C330 C334 1.353 . S
N331 Co296 2.145 . S
N331 C332 1.397 . S
N331 C333 1.334 . S
C332 H313 0.929 . S
C332 C329 1.388 . S
C332 N331 1.397 . S
C333 H314 0.929 . S
C333 C330 1.404 . S
C333 N331 1.334 . S
C334 H326 0.930 . S
C334 C329 1.418 . S
C334 C330 1.353 . S
C335 H305 0.930 . S
C335 N336 1.330 . S
C335 C337 1.446 . S
N336 Co295 2.151 . S
N336 C335 1.330 . S
N336 C340 1.418 . S
C337 H316 0.929 . S
C337 C335 1.446 . S
C337 C338 1.332 . S
C338 H318 0.931 . S
C338 C337 1.332 . S
C338 C339 1.267 . S
C339 H307 0.929 . S
C339 C338 1.267 . S
C339 C340 1.251 . S
C340 H310 0.929 . S
C340 N336 1.418 . S
C340 C339 1.251 . S
C341 H308 0.930 . S
C341 C343 1.406 . S
C341 C346 1.261 . S
C342 H309 0.930 . S
C342 N344 1.325 . S
C342 C345 1.357 . S
C343 H311 0.928 . S
C343 C341 1.406 . S
C343 N344 1.261 . S
N344 Co295 2.214 . S
N344 C342 1.325 . S
N344 C343 1.261 . S
C345 H315 0.931 . S
C345 C342 1.357 . S
C345 C346 1.312 . S
C346 H317 0.930 . S
C346 C341 1.261 . S
C346 C345 1.312 . S
C347 O319 1.214 . S
C347 O327 1.234 . S
C348 H320 0.929 . S
C348 C351 1.391 . S
C348 C353 1.391 . S
C349 H321 0.929 . S
C349 C350 1.390 . S
C349 N352 1.391 . S
C350 H322 0.930 . S
C350 C349 1.390 . S
C350 C351 1.392 . S
C351 H323 0.929 . S
C351 C348 1.391 . S
C351 C350 1.392 . S
N352 Co296 2.257 . S
N352 C349 1.391 . S
N352 C353 1.388 . S
C353 H324 0.930 . S
C353 C348 1.391 . S
C353 N352 1.388 . S
Co354 O356 2.143 . S
Co354 O362 2.074 . S
Co354 O365 2.093 . S
Co354 O378 2.097 . S
Co354 N395 2.151 . S
Co354 N403 2.214 . S
Co355 O356 2.160 1_565 S
Co355 O361 2.058 . S
Co355 O371 2.057 . S
Co355 O386 2.037 . S
Co355 N390 2.145 . S
Co355 N411 2.257 . S
O356 Co354 2.143 . S
O356 Co355 2.160 1_545 S
C357 O358 1.278 . S
C357 O365 1.224 . S
O358 C357 1.278 . S
C359 O360 1.245 . S
C359 O371 1.232 . S
O360 C359 1.245 . S
O361 Co355 2.058 . S
O361 C387 1.269 . S
O362 Co354 2.074 . S
O362 C387 1.257 1_545 S
H363 C388 0.930 . S
H364 C394 0.930 . S
O365 Co354 2.093 . S
O365 C357 1.224 . S
H366 C398 0.929 . S
H367 C400 0.930 . S
H368 C401 0.930 . S
H369 C399 0.929 . S
H370 C402 0.928 . S
O371 Co355 2.057 . S
O371 C359 1.232 . S
H372 C391 0.929 . S
H373 C392 0.929 . S
H374 C404 0.931 . S
H375 C396 0.929 . S
H376 C405 0.930 . S
H377 C397 0.931 . S
O378 Co354 2.097 . S
O378 C406 1.214 . S
H379 C407 0.929 . S
H380 C408 0.929 . S
H381 C409 0.930 . S
H382 C410 0.929 . S
H383 C412 0.930 . S
H384 C389 0.930 . S
H385 C393 0.930 . S
O386 Co355 2.037 . S
O386 C406 1.234 1_565 S
C387 O361 1.269 . S
C387 O362 1.257 1_565 S
C388 H363 0.930 . S
C388 C391 1.388 . S
C388 C393 1.418 . S
C389 H384 0.930 . S
C389 C392 1.404 . S
C389 C393 1.353 . S
N390 Co355 2.145 . S
N390 C391 1.397 . S
N390 C392 1.334 . S
C391 H372 0.929 . S
C391 C388 1.388 . S
C391 N390 1.397 . S
C392 H373 0.929 . S
C392 C389 1.404 . S
C392 N390 1.334 . S
C393 H385 0.930 . S
C393 C388 1.418 . S
C393 C389 1.353 . S
C394 H364 0.930 . S
C394 N395 1.330 . S
C394 C396 1.446 . S
N395 Co354 2.151 . S
N395 C394 1.330 . S
N395 C399 1.418 . S
C396 H375 0.929 . S
C396 C394 1.446 . S
C396 C397 1.332 . S
C397 H377 0.931 . S
C397 C396 1.332 . S
C397 C398 1.267 . S
C398 H366 0.929 . S
C398 C397 1.267 . S
C398 C399 1.251 . S
C399 H369 0.929 . S
C399 N395 1.418 . S
C399 C398 1.251 . S
C400 H367 0.930 . S
C400 C402 1.406 . S
C400 C405 1.261 . S
C401 H368 0.930 . S
C401 N403 1.325 . S
C401 C404 1.357 . S
C402 H370 0.928 . S
C402 C400 1.406 . S
C402 N403 1.261 . S
N403 Co354 2.214 . S
N403 C401 1.325 . S
N403 C402 1.261 . S
C404 H374 0.931 . S
C404 C401 1.357 . S
C404 C405 1.312 . S
C405 H376 0.930 . S
C405 C400 1.261 . S
C405 C404 1.312 . S
C406 O378 1.214 . S
C406 O386 1.234 1_545 S
C407 H379 0.929 . S
C407 C410 1.391 . S
C407 C412 1.391 . S
C408 H380 0.929 . S
C408 C409 1.390 . S
C408 N411 1.391 . S
C409 H381 0.930 . S
C409 C408 1.390 . S
C409 C410 1.392 . S
C410 H382 0.929 . S
C410 C407 1.391 . S
C410 C409 1.392 . S
N411 Co355 2.257 . S
N411 C408 1.391 . S
N411 C412 1.388 . S
C412 H383 0.930 . S
C412 C407 1.391 . S
C412 N411 1.388 . S
Co413 O415 2.143 . S
Co413 O421 2.074 . S
Co413 O424 2.093 1_655 S
Co413 O437 2.097 1_655 S
Co413 N454 2.151 . S
Co413 N462 2.214 . S
Co414 O415 2.160 1_455 S
Co414 O420 2.058 1_455 S
Co414 O430 2.046 1_455 S
Co414 O445 2.037 . S
Co414 N449 2.145 . S
Co414 N470 2.257 . S
O415 Co413 2.143 . S
O415 Co414 2.160 1_655 S
C416 O417 1.278 . S
C416 O424 1.224 . S
O417 C416 1.278 . S
C418 O419 1.245 . S
C418 O430 1.254 . S
O419 C418 1.245 . S
O420 Co414 2.058 1_655 S
O420 C446 1.269 . S
O421 Co413 2.074 . S
O421 C446 1.257 . S
H422 C447 0.930 . S
H423 C453 0.930 . S
O424 Co413 2.093 1_455 S
O424 C416 1.224 . S
H425 C457 0.929 . S
H426 C459 0.930 . S
H427 C460 0.930 . S
H428 C458 0.929 . S
H429 C461 0.928 . S
O430 Co414 2.046 1_655 S
O430 C418 1.254 . S
H431 C450 0.929 . S
H432 C451 0.929 . S
H433 C463 0.931 . S
H434 C455 0.929 . S
H435 C464 0.930 . S
H436 C456 0.931 . S
O437 Co413 2.097 1_455 S
O437 C465 1.214 . S
H438 C466 0.929 . S
H439 C467 0.929 . S
H440 C468 0.930 . S
H441 C469 0.929 . S
H442 C471 0.930 . S
H443 C448 0.930 . S
H444 C452 0.930 . S
O445 Co414 2.037 . S
O445 C465 1.234 . S
C446 O420 1.269 . S
C446 O421 1.257 . S
C447 H422 0.930 . S
C447 C450 1.388 . S
C447 C452 1.418 . S
C448 H443 0.930 . S
C448 C451 1.404 . S
C448 C452 1.353 . S
N449 Co414 2.145 . S
N449 C450 1.397 . S
N449 C451 1.334 . S
C450 H431 0.929 . S
C450 C447 1.388 . S
C450 N449 1.397 . S
C451 H432 0.929 . S
C451 C448 1.404 . S
C451 N449 1.334 . S
C452 H444 0.930 . S
C452 C447 1.418 . S
C452 C448 1.353 . S
C453 H423 0.930 . S
C453 N454 1.330 . S
C453 C455 1.446 . S
N454 Co413 2.151 . S
N454 C453 1.330 . S
N454 C458 1.418 . S
C455 H434 0.929 . S
C455 C453 1.446 . S
C455 C456 1.332 . S
C456 H436 0.931 . S
C456 C455 1.332 . S
C456 C457 1.267 . S
C457 H425 0.929 . S
C457 C456 1.267 . S
C457 C458 1.251 . S
C458 H428 0.929 . S
C458 N454 1.418 . S
C458 C457 1.251 . S
C459 H426 0.930 . S
C459 C461 1.406 . S
C459 C464 1.261 . S
C460 H427 0.930 . S
C460 N462 1.325 . S
C460 C463 1.357 . S
C461 H429 0.928 . S
C461 C459 1.406 . S
C461 N462 1.261 . S
N462 Co413 2.214 . S
N462 C460 1.325 . S
N462 C461 1.261 . S
C463 H433 0.931 . S
C463 C460 1.357 . S
C463 C464 1.312 . S
C464 H435 0.930 . S
C464 C459 1.261 . S
C464 C463 1.312 . S
C465 O437 1.214 . S
C465 O445 1.234 . S
C466 H438 0.929 . S
C466 C469 1.391 . S
C466 C471 1.391 . S
C467 H439 0.929 . S
C467 C468 1.390 . S
C467 N470 1.391 . S
C468 H440 0.930 . S
C468 C467 1.390 . S
C468 C469 1.392 . S
C469 H441 0.929 . S
C469 C466 1.391 . S
C469 C468 1.392 . S
N470 Co414 2.257 . S
N470 C467 1.391 . S
N470 C471 1.388 . S
C471 H442 0.930 . S
C471 C466 1.391 . S
C471 N470 1.388 . S
Co472 O474 2.143 . S
Co472 O480 2.074 . S
Co472 O483 2.093 1_554 S
Co472 O496 2.097 1_554 S
Co472 N513 2.151 . S
Co472 N521 2.214 . S
Co473 O474 2.160 1_556 S
Co473 O479 2.058 1_556 S
Co473 O489 2.057 1_556 S
Co473 O504 2.037 . S
Co473 N508 2.145 . S
Co473 N529 2.257 . S
O474 Co472 2.143 . S
O474 Co473 2.160 1_554 S
C475 O476 1.278 . S
C475 O483 1.224 . S
O476 C475 1.278 . S
C477 O478 1.245 . S
C477 O489 1.232 . S
O478 C477 1.245 . S
O479 Co473 2.058 1_554 S
O479 C505 1.269 . S
O480 Co472 2.074 . S
O480 C505 1.257 . S
H481 C506 0.930 . S
H482 C512 0.930 . S
O483 Co472 2.093 1_556 S
O483 C475 1.224 . S
H484 C516 0.929 . S
H485 C518 0.930 . S
H486 C519 0.930 . S
H487 C517 0.929 . S
H488 C520 0.928 . S
O489 Co473 2.057 1_554 S
O489 C477 1.232 . S
H490 C509 0.929 . S
H491 C510 0.929 . S
H492 C522 0.931 . S
H493 C514 0.929 . S
H494 C523 0.930 . S
H495 C515 0.931 . S
O496 Co472 2.097 1_556 S
O496 C524 1.214 . S
H497 C525 0.929 . S
H498 C526 0.929 . S
H499 C527 0.930 . S
H500 C528 0.929 . S
H501 C530 0.930 . S
H502 C507 0.930 . S
H503 C511 0.930 . S
O504 Co473 2.037 . S
O504 C524 1.234 . S
C505 O479 1.269 . S
C505 O480 1.257 . S
C506 H481 0.930 . S
C506 C509 1.388 . S
C506 C511 1.418 . S
C507 H502 0.930 . S
C507 C510 1.404 . S
C507 C511 1.353 . S
N508 Co473 2.145 . S
N508 C509 1.397 . S
N508 C510 1.334 . S
C509 H490 0.929 . S
C509 C506 1.388 . S
C509 N508 1.397 . S
C510 H491 0.929 . S
C510 C507 1.404 . S
C510 N508 1.334 . S
C511 H503 0.930 . S
C511 C506 1.418 . S
C511 C507 1.353 . S
C512 H482 0.930 . S
C512 N513 1.330 . S
C512 C514 1.446 . S
N513 Co472 2.151 . S
N513 C512 1.330 . S
N513 C517 1.418 . S
C514 H493 0.929 . S
C514 C512 1.446 . S
C514 C515 1.332 . S
C515 H495 0.931 . S
C515 C514 1.332 . S
C515 C516 1.267 . S
C516 H484 0.929 . S
C516 C515 1.267 . S
C516 C517 1.251 . S
C517 H487 0.929 . S
C517 N513 1.418 . S
C517 C516 1.251 . S
C518 H485 0.930 . S
C518 C520 1.406 . S
C518 C523 1.261 . S
C519 H486 0.930 . S
C519 N521 1.325 . S
C519 C522 1.357 . S
C520 H488 0.928 . S
C520 C518 1.406 . S
C520 N521 1.261 . S
N521 Co472 2.214 . S
N521 C519 1.325 . S
N521 C520 1.261 . S
C522 H492 0.931 . S
C522 C519 1.357 . S
C522 C523 1.312 . S
C523 H494 0.930 . S
C523 C518 1.261 . S
C523 C522 1.312 . S
C524 O496 1.214 . S
C524 O504 1.234 . S
C525 H497 0.929 . S
C525 C528 1.391 . S
C525 C530 1.391 . S
C526 H498 0.929 . S
C526 C527 1.390 . S
C526 N529 1.391 . S
C527 H499 0.930 . S
C527 C526 1.390 . S
C527 C528 1.392 . S
C528 H500 0.929 . S
C528 C525 1.391 . S
C528 C527 1.392 . S
N529 Co473 2.257 . S
N529 C526 1.391 . S
N529 C530 1.388 . S
C530 H501 0.930 . S
C530 C525 1.391 . S
C530 N529 1.388 . S
Co531 O533 2.152 . S
Co531 O539 2.074 . S
Co531 O542 2.093 . S
Co531 O555 2.097 . S
Co531 N572 2.151 . S
Co531 N580 2.214 . S
Co532 O533 2.150 1_554 S
Co532 O538 2.058 . S
Co532 O548 2.057 . S
Co532 O563 2.037 . S
Co532 N567 2.145 . S
Co532 N588 2.257 . S
O533 Co531 2.152 . S
O533 Co532 2.150 1_556 S
C534 O535 1.278 . S
C534 O542 1.224 . S
O535 C534 1.278 . S
C536 O537 1.245 . S
C536 O548 1.232 . S
O537 C536 1.245 . S
O538 Co532 2.058 . S
O538 C564 1.269 . S
O539 Co531 2.074 . S
O539 C564 1.257 1_556 S
H540 C565 0.930 . S
H541 C571 0.930 . S
O542 Co531 2.093 . S
O542 C534 1.224 . S
H543 C575 0.929 . S
H544 C577 0.930 . S
H545 C578 0.930 . S
H546 C576 0.929 . S
H547 C579 0.928 . S
O548 Co532 2.057 . S
O548 C536 1.232 . S
H549 C568 0.929 . S
H550 C569 0.929 . S
H551 C581 0.931 . S
H552 C573 0.929 . S
H553 C582 0.930 . S
H554 C574 0.931 . S
O555 Co531 2.097 . S
O555 C583 1.214 . S
H556 C584 0.929 . S
H557 C585 0.929 . S
H558 C586 0.930 . S
H559 C587 0.929 . S
H560 C589 0.930 . S
H561 C566 0.930 . S
H562 C570 0.930 . S
O563 Co532 2.037 . S
O563 C583 1.234 1_554 S
C564 O538 1.269 . S
C564 O539 1.257 1_554 S
C565 H540 0.930 . S
C565 C568 1.388 . S
C565 C570 1.418 . S
C566 H561 0.930 . S
C566 C569 1.404 . S
C566 C570 1.353 . S
N567 Co532 2.145 . S
N567 C568 1.397 . S
N567 C569 1.334 . S
C568 H549 0.929 . S
C568 C565 1.388 . S
C568 N567 1.397 . S
C569 H550 0.929 . S
C569 C566 1.404 . S
C569 N567 1.334 . S
C570 H562 0.930 . S
C570 C565 1.418 . S
C570 C566 1.353 . S
C571 H541 0.930 . S
C571 N572 1.330 . S
C571 C573 1.446 . S
N572 Co531 2.151 . S
N572 C571 1.330 . S
N572 C576 1.418 . S
C573 H552 0.929 . S
C573 C571 1.446 . S
C573 C574 1.332 . S
C574 H554 0.931 . S
C574 C573 1.332 . S
C574 C575 1.267 . S
C575 H543 0.929 . S
C575 C574 1.267 . S
C575 C576 1.251 . S
C576 H546 0.929 . S
C576 N572 1.418 . S
C576 C575 1.251 . S
C577 H544 0.930 . S
C577 C579 1.406 . S
C577 C582 1.261 . S
C578 H545 0.930 . S
C578 N580 1.325 . S
C578 C581 1.357 . S
C579 H547 0.928 . S
C579 C577 1.406 . S
C579 N580 1.261 . S
N580 Co531 2.214 . S
N580 C578 1.325 . S
N580 C579 1.261 . S
C581 H551 0.931 . S
C581 C578 1.357 . S
C581 C582 1.312 . S
C582 H553 0.930 . S
C582 C577 1.261 . S
C582 C581 1.312 . S
C583 O555 1.214 . S
C583 O563 1.234 1_556 S
C584 H556 0.929 . S
C584 C587 1.391 . S
C584 C589 1.391 . S
C585 H557 0.929 . S
C585 C586 1.390 . S
C585 N588 1.391 . S
C586 H558 0.930 . S
C586 C585 1.390 . S
C586 C587 1.392 . S
C587 H559 0.929 . S
C587 C584 1.391 . S
C587 C586 1.392 . S
N588 Co532 2.257 . S
N588 C585 1.391 . S
N588 C589 1.388 . S
C589 H560 0.930 . S
C589 C584 1.391 . S
C589 N588 1.388 . S
Co590 O592 2.143 . S
Co590 O598 2.074 . S
Co590 O601 2.093 1_554 S
Co590 O614 2.097 1_554 S
Co590 N631 2.151 . S
Co590 N639 2.214 . S
Co591 O592 2.160 1_556 S
Co591 O597 2.058 1_556 S
Co591 O607 2.057 1_556 S
Co591 O622 2.037 . S
Co591 N626 2.145 . S
Co591 N647 2.257 . S
O592 Co590 2.143 . S
O592 Co591 2.160 1_554 S
C593 O594 1.278 . S
C593 O601 1.224 . S
O594 C593 1.278 . S
C595 O596 1.245 . S
C595 O607 1.232 . S
O596 C595 1.245 . S
O597 Co591 2.058 1_554 S
O597 C623 1.269 . S
O598 Co590 2.074 . S
O598 C623 1.257 . S
H599 C624 0.930 . S
H600 C630 0.930 . S
O601 Co590 2.093 1_556 S
O601 C593 1.224 . S
H602 C634 0.929 . S
H603 C636 0.930 . S
H604 C637 0.930 . S
H605 C635 0.929 . S
H606 C638 0.928 . S
O607 Co591 2.057 1_554 S
O607 C595 1.232 . S
H608 C627 0.929 . S
H609 C628 0.929 . S
H610 C640 0.931 . S
H611 C632 0.929 . S
H612 C641 0.930 . S
H613 C633 0.931 . S
O614 Co590 2.097 1_556 S
O614 C642 1.214 . S
H615 C643 0.929 . S
H616 C644 0.929 . S
H617 C645 0.930 . S
H618 C646 0.929 . S
H619 C648 0.930 . S
H620 C625 0.930 . S
H621 C629 0.930 . S
O622 Co591 2.037 . S
O622 C642 1.234 . S
C623 O597 1.269 . S
C623 O598 1.257 . S
C624 H599 0.930 . S
C624 C627 1.388 . S
C624 C629 1.418 . S
C625 H620 0.930 . S
C625 C628 1.404 . S
C625 C629 1.353 . S
N626 Co591 2.145 . S
N626 C627 1.397 . S
N626 C628 1.334 . S
C627 H608 0.929 . S
C627 C624 1.388 . S
C627 N626 1.397 . S
C628 H609 0.929 . S
C628 C625 1.404 . S
C628 N626 1.334 . S
C629 H621 0.930 . S
C629 C624 1.418 . S
C629 C625 1.353 . S
C630 H600 0.930 . S
C630 N631 1.330 . S
C630 C632 1.446 . S
N631 Co590 2.151 . S
N631 C630 1.330 . S
N631 C635 1.418 . S
C632 H611 0.929 . S
C632 C630 1.446 . S
C632 C633 1.332 . S
C633 H613 0.931 . S
C633 C632 1.332 . S
C633 C634 1.267 . S
C634 H602 0.929 . S
C634 C633 1.267 . S
C634 C635 1.251 . S
C635 H605 0.929 . S
C635 N631 1.418 . S
C635 C634 1.251 . S
C636 H603 0.930 . S
C636 C638 1.406 . S
C636 C641 1.261 . S
C637 H604 0.930 . S
C637 N639 1.325 . S
C637 C640 1.357 . S
C638 H606 0.928 . S
C638 C636 1.406 . S
C638 N639 1.261 . S
N639 Co590 2.214 . S
N639 C637 1.325 . S
N639 C638 1.261 . S
C640 H610 0.931 . S
C640 C637 1.357 . S
C640 C641 1.312 . S
C641 H612 0.930 . S
C641 C636 1.261 . S
C641 C640 1.312 . S
C642 O614 1.214 . S
C642 O622 1.234 . S
C643 H615 0.929 . S
C643 C646 1.391 . S
C643 C648 1.391 . S
C644 H616 0.929 . S
C644 C645 1.390 . S
C644 N647 1.391 . S
C645 H617 0.930 . S
C645 C644 1.390 . S
C645 C646 1.392 . S
C646 H618 0.929 . S
C646 C643 1.391 . S
C646 C645 1.392 . S
N647 Co591 2.257 . S
N647 C644 1.391 . S
N647 C648 1.388 . S
C648 H619 0.930 . S
C648 C643 1.391 . S
C648 N647 1.388 . S
Co649 O651 2.143 . S
Co649 O657 2.074 . S
Co649 O660 2.093 . S
Co649 O673 2.097 . S
Co649 N690 2.151 . S
Co649 N698 2.214 . S
Co650 O651 2.160 1_556 S
Co650 O656 2.058 . S
Co650 O666 2.057 . S
Co650 O681 2.037 . S
Co650 N685 2.145 . S
Co650 N706 2.257 . S
O651 Co649 2.143 . S
O651 Co650 2.160 1_554 S
C652 O653 1.278 . S
C652 O660 1.224 . S
O653 C652 1.278 . S
C654 O655 1.245 . S
C654 O666 1.232 . S
O655 C654 1.245 . S
O656 Co650 2.058 . S
O656 C682 1.269 . S
O657 Co649 2.074 . S
O657 C682 1.257 1_554 S
H658 C683 0.930 . S
H659 C689 0.930 . S
O660 Co649 2.093 . S
O660 C652 1.224 . S
H661 C693 0.929 . S
H662 C695 0.930 . S
H663 C696 0.930 . S
H664 C694 0.929 . S
H665 C697 0.928 . S
O666 Co650 2.057 . S
O666 C654 1.232 . S
H667 C686 0.929 . S
H668 C687 0.929 . S
H669 C699 0.931 . S
H670 C691 0.929 . S
H671 C700 0.930 . S
H672 C692 0.931 . S
O673 Co649 2.097 . S
O673 C701 1.214 . S
H674 C702 0.929 . S
H675 C703 0.929 . S
H676 C704 0.930 . S
H677 C705 0.929 . S
H678 C707 0.930 . S
H679 C684 0.930 . S
H680 C688 0.930 . S
O681 Co650 2.037 . S
O681 C701 1.234 1_556 S
C682 O656 1.269 . S
C682 O657 1.257 1_556 S
C683 H658 0.930 . S
C683 C686 1.388 . S
C683 C688 1.418 . S
C684 H679 0.930 . S
C684 C687 1.404 . S
C684 C688 1.353 . S
N685 Co650 2.145 . S
N685 C686 1.397 . S
N685 C687 1.334 . S
C686 H667 0.929 . S
C686 C683 1.388 . S
C686 N685 1.397 . S
C687 H668 0.929 . S
C687 C684 1.404 . S
C687 N685 1.334 . S
C688 H680 0.930 . S
C688 C683 1.418 . S
C688 C684 1.353 . S
C689 H659 0.930 . S
C689 N690 1.330 . S
C689 C691 1.446 . S
N690 Co649 2.151 . S
N690 C689 1.330 . S
N690 C694 1.418 . S
C691 H670 0.929 . S
C691 C689 1.446 . S
C691 C692 1.332 . S
C692 H672 0.931 . S
C692 C691 1.332 . S
C692 C693 1.267 . S
C693 H661 0.929 . S
C693 C692 1.267 . S
C693 C694 1.251 . S
C694 H664 0.929 . S
C694 N690 1.418 . S
C694 C693 1.251 . S
C695 H662 0.930 . S
C695 C697 1.406 . S
C695 C700 1.261 . S
C696 H663 0.930 . S
C696 N698 1.325 . S
C696 C699 1.357 . S
C697 H665 0.928 . S
C697 C695 1.406 . S
C697 N698 1.261 . S
N698 Co649 2.214 . S
N698 C696 1.325 . S
N698 C697 1.261 . S
C699 H669 0.931 . S
C699 C696 1.357 . S
C699 C700 1.312 . S
C700 H671 0.930 . S
C700 C695 1.261 . S
C700 C699 1.312 . S
C701 O673 1.214 . S
C701 O681 1.234 1_554 S
C702 H674 0.929 . S
C702 C705 1.391 . S
C702 C707 1.391 . S
C703 H675 0.929 . S
C703 C704 1.390 . S
C703 N706 1.391 . S
C704 H676 0.930 . S
C704 C703 1.390 . S
C704 C705 1.392 . S
C705 H677 0.929 . S
C705 C702 1.391 . S
C705 C704 1.392 . S
N706 Co650 2.257 . S
N706 C703 1.391 . S
N706 C707 1.388 . S
C707 H678 0.930 . S
C707 C702 1.391 . S
C707 N706 1.388 . S
H708 C714 0.930 . S
H709 C718 0.930 . S
H710 C723 0.929 . S
H711 C721 0.929 . S
H712 C716 0.929 . S
H713 C722 0.929 . S
C714 H708 0.930 . S
C714 C715 1.367 1_655 S
C714 C722 1.378 . S
C715 C714 1.367 1_455 S
C715 C723 1.433 . S
C716 H712 0.929 . S
C716 C718 1.378 . S
C716 C720 1.350 1_455 S
C717 C720 1.463 1_455 S
C717 C722 1.350 1_455 S
C717 N725 1.427 . S
C718 H709 0.930 . S
C718 C716 1.378 . S
C718 C719 1.367 1_455 S
C719 C718 1.367 1_655 S
C719 C721 1.433 . S
C720 C716 1.350 1_655 S
C720 C717 1.463 1_655 S
C720 N724 1.427 . S
C721 H711 0.929 . S
C721 C719 1.433 . S
C721 N724 1.384 . S
C722 H713 0.929 . S
C722 C714 1.378 . S
C722 C717 1.350 1_655 S
C723 H710 0.929 . S
C723 C715 1.433 . S
C723 N725 1.384 . S
N724 C720 1.427 . S
N724 C721 1.384 . S
N725 C717 1.427 . S
N725 C723 1.384 . S
H726 C732 0.930 . S
H727 C736 0.930 . S
H728 C741 0.929 . S
H729 C739 0.929 . S
H730 C734 0.929 . S
H731 C740 0.929 . S
C732 H726 0.930 . S
C732 C733 1.367 . S
C732 C740 1.378 . S
C733 C732 1.367 . S
C733 C741 1.433 1_545 S
C734 H730 0.929 . S
C734 C736 1.378 . S
C734 C738 1.350 . S
C735 C738 1.463 1_545 S
C735 C740 1.350 . S
C735 N743 1.427 1_545 S
C736 H727 0.930 . S
C736 C734 1.378 . S
C736 C737 1.367 . S
C737 C736 1.367 . S
C737 C739 1.433 1_565 S
C738 C734 1.350 . S
C738 C735 1.463 1_565 S
C738 N742 1.427 1_565 S
C739 H729 0.929 . S
C739 C737 1.433 1_545 S
C739 N742 1.384 . S
C740 H731 0.929 . S
C740 C732 1.378 . S
C740 C735 1.350 . S
C741 H728 0.929 . S
C741 C733 1.433 1_565 S
C741 N743 1.384 . S
N742 C738 1.427 1_545 S
N742 C739 1.384 . S
N743 C735 1.427 1_565 S
N743 C741 1.384 . S
H744 C750 0.930 . S
H745 C754 0.930 . S
H746 C759 0.929 . S
H747 C757 0.929 . S
H748 C752 0.929 . S
H749 C758 0.929 . S
C750 H744 0.930 . S
C750 C751 1.367 1_655 S
C750 C758 1.378 . S
C751 C750 1.367 1_455 S
C751 C759 1.433 . S
C752 H748 0.929 . S
C752 C754 1.378 . S
C752 C756 1.350 1_455 S
C753 C756 1.463 1_455 S
C753 C758 1.350 1_455 S
C753 N761 1.427 . S
C754 H745 0.930 . S
C754 C752 1.378 . S
C754 C755 1.367 1_455 S
C755 C754 1.367 1_655 S
C755 C757 1.433 . S
C756 C752 1.350 1_655 S
C756 C753 1.463 1_655 S
C756 N760 1.427 . S
C757 H747 0.929 . S
C757 C755 1.433 . S
C757 N760 1.384 . S
C758 H749 0.929 . S
C758 C750 1.378 . S
C758 C753 1.350 1_655 S
C759 H746 0.929 . S
C759 C751 1.433 . S
C759 N761 1.384 . S
N760 C756 1.427 . S
N760 C757 1.384 . S
N761 C753 1.427 . S
N761 C759 1.384 . S
H762 C768 0.930 . S
H763 C772 0.930 . S
H764 C777 0.929 . S
H765 C775 0.929 . S
H766 C770 0.929 . S
H767 C776 0.929 . S
C768 H762 0.930 . S
C768 C769 1.367 . S
C768 C776 1.378 . S
C769 C768 1.367 . S
C769 C777 1.433 1_565 S
C770 H766 0.929 . S
C770 C772 1.378 . S
C770 C774 1.350 . S
C771 C774 1.463 1_565 S
C771 C776 1.350 . S
C771 N779 1.427 1_565 S
C772 H763 0.930 . S
C772 C770 1.378 . S
C772 C773 1.367 . S
C773 C772 1.367 . S
C773 C775 1.433 1_545 S
C774 C770 1.350 . S
C774 C771 1.463 1_545 S
C774 N778 1.427 1_545 S
C775 H765 0.929 . S
C775 C773 1.433 1_565 S
C775 N778 1.384 . S
C776 H767 0.929 . S
C776 C768 1.378 . S
C776 C771 1.350 . S
C777 H764 0.929 . S
C777 C769 1.433 1_545 S
C777 N779 1.384 . S
N778 C774 1.427 1_565 S
N778 C775 1.384 . S
N779 C771 1.427 1_545 S
N779 C777 1.384 . S
H780 C786 0.930 . S
H781 C790 0.930 . S
H782 C795 0.929 . S
H783 C793 0.929 . S
H784 C788 0.929 . S
H785 C794 0.929 . S
C786 H780 0.930 . S
C786 C787 1.367 . S
C786 C794 1.378 . S
C787 C786 1.367 . S
C787 C795 1.433 1_655 S
C788 H784 0.929 . S
C788 C790 1.378 . S
C788 C792 1.350 . S
C789 C792 1.463 1_655 S
C789 C794 1.350 . S
C789 N797 1.427 1_655 S
C790 H781 0.930 . S
C790 C788 1.378 . S
C790 C791 1.367 . S
C791 C790 1.367 . S
C791 C793 1.433 1_455 S
C792 C788 1.350 . S
C792 C789 1.463 1_455 S
C792 N796 1.427 1_455 S
C793 H783 0.929 . S
C793 C791 1.433 1_655 S
C793 N796 1.384 . S
C794 H785 0.929 . S
C794 C786 1.378 . S
C794 C789 1.350 . S
C795 H782 0.929 . S
C795 C787 1.433 1_455 S
C795 N797 1.384 . S
N796 C792 1.427 1_655 S
N796 C793 1.384 . S
N797 C789 1.427 1_455 S
N797 C795 1.384 . S
H798 C804 0.930 . S
H799 C808 0.930 . S
H800 C813 0.929 . S
H801 C811 0.929 . S
H802 C806 0.929 . S
H803 C812 0.929 . S
C804 H798 0.930 . S
C804 C805 1.367 . S
C804 C812 1.378 . S
C805 C804 1.367 . S
C805 C813 1.433 1_565 S
C806 H802 0.929 . S
C806 C808 1.378 . S
C806 C810 1.350 . S
C807 C810 1.463 1_565 S
C807 C812 1.350 . S
C807 N815 1.427 1_565 S
C808 H799 0.930 . S
C808 C806 1.378 . S
C808 C809 1.367 . S
C809 C808 1.367 . S
C809 C811 1.433 1_545 S
C810 C806 1.350 . S
C810 C807 1.463 1_545 S
C810 N814 1.427 1_545 S
C811 H801 0.929 . S
C811 C809 1.433 1_565 S
C811 N814 1.384 . S
C812 H803 0.929 . S
C812 C804 1.378 . S
C812 C807 1.350 . S
C813 H800 0.929 . S
C813 C805 1.433 1_545 S
C813 N815 1.384 . S
N814 C810 1.427 1_565 S
N814 C811 1.384 . S
N815 C807 1.427 1_545 S
N815 C813 1.384 . S
H816 C822 0.930 . S
H817 C826 0.930 . S
H818 C831 0.929 . S
H819 C829 0.929 . S
H820 C824 0.929 . S
H821 C830 0.929 . S
C822 H816 0.930 . S
C822 C823 1.367 1_455 S
C822 C830 1.378 . S
C823 C822 1.367 1_655 S
C823 C831 1.433 . S
C824 H820 0.929 . S
C824 C826 1.378 . S
C824 C828 1.350 1_655 S
C825 C828 1.463 1_655 S
C825 C830 1.350 1_655 S
C825 N833 1.427 . S
C826 H817 0.930 . S
C826 C824 1.378 . S
C826 C827 1.367 1_655 S
C827 C826 1.367 1_455 S
C827 C829 1.433 . S
C828 C824 1.350 1_455 S
C828 C825 1.463 1_455 S
C828 N832 1.427 . S
C829 H819 0.929 . S
C829 C827 1.433 . S
C829 N832 1.384 . S
C830 H821 0.929 . S
C830 C822 1.378 . S
C830 C825 1.350 1_455 S
C831 H818 0.929 . S
C831 C823 1.433 . S
C831 N833 1.384 . S
N832 C828 1.427 . S
N832 C829 1.384 . S
N833 C825 1.427 . S
N833 C831 1.384 . S
H834 C840 0.930 . S
H835 C844 0.930 . S
H836 C849 0.929 . S
H837 C847 0.929 . S
H838 C842 0.927 1_545 S
H839 C848 0.936 . S
C840 H834 0.930 . S
C840 C841 1.367 . S
C840 C848 1.378 . S
C841 C840 1.367 . S
C841 C849 1.433 . S
C842 H838 0.927 1_565 S
C842 C844 1.378 . S
C842 C846 1.350 . S
C843 C846 1.463 1_545 S
C843 C848 1.350 . S
C843 N851 1.427 . S
C844 H835 0.930 . S
C844 C842 1.378 . S
C844 C845 1.367 . S
C845 C844 1.367 . S
C845 C847 1.433 . S
C846 C842 1.350 . S
C846 C843 1.463 1_565 S
C846 N850 1.427 . S
C847 H837 0.929 . S
C847 C845 1.433 . S
C847 N850 1.384 . S
C848 H839 0.936 . S
C848 C840 1.378 . S
C848 C843 1.350 . S
C849 H836 0.929 . S
C849 C841 1.433 . S
C849 N851 1.384 . S
N850 C846 1.427 . S
N850 C847 1.384 . S
N851 C843 1.427 . S
N851 C849 1.384 . S
H852 C858 0.930 . S
H853 C862 0.930 . S
H854 C867 0.929 . S
H855 C865 0.929 . S
H856 C860 0.929 . S
H857 C866 0.929 . S
C858 H852 0.930 . S
C858 C859 1.367 1_554 S
C858 C866 1.378 . S
C859 C858 1.367 1_556 S
C859 C867 1.433 . S
C860 H856 0.929 . S
C860 C862 1.378 . S
C860 C864 1.350 1_556 S
C861 C864 1.463 1_556 S
C861 C866 1.351 1_556 S
C861 N869 1.426 . S
C862 H853 0.930 . S
C862 C860 1.378 . S
C862 C863 1.367 1_556 S
C863 C862 1.367 1_554 S
C863 C865 1.433 . S
C864 C860 1.350 1_554 S
C864 C861 1.463 1_554 S
C864 N868 1.427 . S
C865 H855 0.929 . S
C865 C863 1.433 . S
C865 N868 1.384 . S
C866 H857 0.929 . S
C866 C858 1.378 . S
C866 C861 1.351 1_554 S
C867 H854 0.929 . S
C867 C859 1.433 . S
C867 N869 1.384 . S
N868 C864 1.427 . S
N868 C865 1.384 . S
N869 C861 1.426 . S
N869 C867 1.384 . S
H870 C876 0.930 . S
H871 C880 0.930 . S
H872 C885 0.929 1_554 S
H873 C883 0.929 1_556 S
H874 C878 0.929 . S
H875 C884 0.929 . S
C876 H870 0.930 . S
C876 C877 1.367 . S
C876 C884 1.378 . S
C877 C876 1.367 . S
C877 C885 1.433 . S
C878 H874 0.929 . S
C878 C880 1.378 . S
C878 C882 1.350 . S
C879 C882 1.463 1_556 S
C879 C884 1.350 . S
C879 N887 1.427 1_556 S
C880 H871 0.930 . S
C880 C878 1.378 . S
C880 C881 1.367 . S
C881 C880 1.367 . S
C881 C883 1.433 . S
C882 C878 1.350 . S
C882 C879 1.463 1_554 S
C882 N886 1.427 1_554 S
C883 H873 0.929 1_554 S
C883 C881 1.433 . S
C883 N886 1.384 1_554 S
C884 H875 0.929 . S
C884 C876 1.378 . S
C884 C879 1.350 . S
C885 H872 0.929 1_556 S
C885 C877 1.433 . S
C885 N887 1.384 1_556 S
N886 C882 1.427 1_556 S
N886 C883 1.384 1_556 S
N887 C879 1.427 1_554 S
N887 C885 1.384 1_554 S
H888 C894 0.930 . S
H889 C898 0.930 . S
H890 C903 0.929 . S
H891 C901 0.929 . S
H892 C896 0.929 . S
H893 C902 0.929 . S
C894 H888 0.930 . S
C894 C895 1.367 1_556 S
C894 C902 1.378 . S
C895 C894 1.367 1_554 S
C895 C903 1.433 . S
C896 H892 0.929 . S
C896 C898 1.378 . S
C896 C900 1.350 1_554 S
C897 C900 1.463 1_554 S
C897 C902 1.350 1_554 S
C897 N905 1.427 . S
C898 H889 0.930 . S
C898 C896 1.378 . S
C898 C899 1.367 1_554 S
C899 C898 1.367 1_556 S
C899 C901 1.433 . S
C900 C896 1.350 1_556 S
C900 C897 1.463 1_556 S
C900 N904 1.427 . S
C901 H891 0.929 . S
C901 C899 1.433 . S
C901 N904 1.384 . S
C902 H893 0.929 . S
C902 C894 1.378 . S
C902 C897 1.350 1_556 S
C903 H890 0.929 . S
C903 C895 1.433 . S
C903 N905 1.384 . S
N904 C900 1.427 . S
N904 C901 1.384 . S
N905 C897 1.427 . S
N905 C903 1.384 . S
H906 C912 0.930 . S
H907 C916 0.930 . S
H908 C921 0.929 . S
H909 C919 0.929 . S
H910 C914 0.929 . S
H911 C920 0.929 . S
C912 H906 0.930 . S
C912 C913 1.367 1_556 S
C912 C920 1.378 . S
C913 C912 1.367 1_554 S
C913 C921 1.433 . S
C914 H910 0.929 . S
C914 C916 1.378 . S
C914 C918 1.348 . S
C915 C918 1.462 . S
C915 C920 1.350 1_554 S
C915 N923 1.427 . S
C916 H907 0.930 . S
C916 C914 1.378 . S
C916 C917 1.367 1_554 S
C917 C916 1.367 1_556 S
C917 C919 1.433 . S
C918 C914 1.348 . S
C918 C915 1.462 . S
C918 N922 1.429 1_554 S
C919 H909 0.929 . S
C919 C917 1.433 . S
C919 N922 1.384 . S
C920 H911 0.929 . S
C920 C912 1.378 . S
C920 C915 1.350 1_556 S
C921 H908 0.929 . S
C921 C913 1.433 . S
C921 N923 1.384 . S
N922 C918 1.429 1_556 S
N922 C919 1.384 . S
N923 C915 1.427 . S
N923 C921 1.384 . S
H924 C930 0.930 . S
H925 C934 0.930 . S
H926 C939 0.929 . S
H927 C937 0.929 . S
H928 C932 0.929 . S
H929 C938 0.929 . S
C930 H924 0.930 . S
C930 C931 1.367 . S
C930 C938 1.378 . S
C931 C930 1.367 . S
C931 C939 1.433 . S
C932 H928 0.929 . S
C932 C934 1.378 . S
C932 C936 1.350 . S
C933 C936 1.463 . S
C933 C938 1.350 . S
C933 N941 1.427 . S
C934 H925 0.930 . S
C934 C932 1.378 . S
C934 C935 1.367 . S
C935 C934 1.367 . S
C935 C937 1.433 . S
C936 C932 1.350 . S
C936 C933 1.463 . S
C936 N940 1.427 . S
C937 H927 0.929 . S
C937 C935 1.433 . S
C937 N940 1.384 . S
C938 H929 0.929 . S
C938 C930 1.378 . S
C938 C933 1.350 . S
C939 H926 0.929 . S
C939 C931 1.433 . S
C939 N941 1.384 . S
N940 C936 1.427 . S
N940 C937 1.384 . S
N941 C933 1.427 . S
N941 C939 1.384 . S
H942 C948 0.930 . S
H943 C952 0.930 . S
H944 C957 0.929 . S
H945 C955 0.929 . S
H946 C950 0.929 . S
H947 C956 0.929 . S
C948 H942 0.930 . S
C948 C949 1.367 . S
C948 C956 1.378 . S
C949 C948 1.367 . S
C949 C957 1.433 . S
C950 H946 0.929 . S
C950 C952 1.378 . S
C950 C954 1.350 . S
C951 C954 1.463 . S
C951 C956 1.350 . S
C951 N959 1.427 . S
C952 H943 0.930 . S
C952 C950 1.378 . S
C952 C953 1.367 . S
C953 C952 1.367 . S
C953 C955 1.433 . S
C954 C950 1.350 . S
C954 C951 1.463 . S
C954 N958 1.427 . S
C955 H945 0.929 . S
C955 C953 1.433 . S
C955 N958 1.384 . S
C956 H947 0.929 . S
C956 C948 1.378 . S
C956 C951 1.350 . S
C957 H944 0.929 . S
C957 C949 1.433 . S
C957 N959 1.384 . S
N958 C954 1.427 . S
N958 C955 1.384 . S
N959 C951 1.427 . S
N959 C957 1.384 . S
H960 C966 0.930 . S
H961 C970 0.930 . S
H962 C975 0.929 . S
H963 C973 0.929 . S
H964 C968 0.929 . S
H965 C974 0.929 . S
C966 H960 0.930 . S
C966 C967 1.367 . S
C966 C974 1.378 . S
C967 C966 1.367 . S
C967 C975 1.433 . S
C968 H964 0.929 . S
C968 C970 1.378 . S
C968 C972 1.350 . S
C969 C972 1.463 . S
C969 C974 1.350 . S
C969 N977 1.427 . S
C970 H961 0.930 . S
C970 C968 1.378 . S
C970 C971 1.367 . S
C971 C970 1.367 . S
C971 C973 1.433 . S
C972 C968 1.350 . S
C972 C969 1.463 . S
C972 N976 1.427 . S
C973 H963 0.929 . S
C973 C971 1.433 . S
C973 N976 1.384 . S
C974 H965 0.929 . S
C974 C966 1.378 . S
C974 C969 1.350 . S
C975 H962 0.929 . S
C975 C967 1.433 . S
C975 N977 1.384 . S
N976 C972 1.427 . S
N976 C973 1.384 . S
N977 C969 1.427 . S
N977 C975 1.384 . S
H978 C984 0.930 . S
H979 C988 0.930 . S
H980 C993 0.929 . S
H981 C991 0.929 . S
H982 C986 0.929 . S
H983 C992 0.929 . S
C984 H978 0.930 . S
C984 C985 1.367 . S
C984 C992 1.378 . S
C985 C984 1.367 . S
C985 C993 1.433 . S
C986 H982 0.929 . S
C986 C988 1.378 . S
C986 C990 1.350 . S
C987 C990 1.463 . S
C987 C992 1.350 . S
C987 N995 1.427 . S
C988 H979 0.930 . S
C988 C986 1.378 . S
C988 C989 1.367 . S
C989 C988 1.367 . S
C989 C991 1.433 . S
C990 C986 1.350 . S
C990 C987 1.463 . S
C990 N994 1.427 . S
C991 H981 0.929 . S
C991 C989 1.433 . S
C991 N994 1.384 . S
C992 H983 0.929 . S
C992 C984 1.378 . S
C992 C987 1.350 . S
C993 H980 0.929 . S
C993 C985 1.433 . S
C993 N995 1.384 . S
N994 C990 1.427 . S
N994 C991 1.384 . S
N995 C987 1.427 . S
N995 C993 1.384 . S
H996 C1002 0.930 . S
H997 C1006 0.930 . S
H998 C1011 0.929 . S
H999 C1009 0.929 . S
H1000 C1004 0.929 . S
H1001 C1010 0.929 . S
C1002 H996 0.930 . S
C1002 C1003 1.367 . S
C1002 C1010 1.378 . S
C1003 C1002 1.367 . S
C1003 C1011 1.433 . S
C1004 H1000 0.929 . S
C1004 C1006 1.378 . S
C1004 C1008 1.350 . S
C1005 C1008 1.463 . S
C1005 C1010 1.350 . S
C1005 N1013 1.427 . S
C1006 H997 0.930 . S
C1006 C1004 1.378 . S
C1006 C1007 1.367 . S
C1007 C1006 1.367 . S
C1007 C1009 1.433 . S
C1008 C1004 1.350 . S
C1008 C1005 1.463 . S
C1008 N1012 1.427 . S
C1009 H999 0.929 . S
C1009 C1007 1.433 . S
C1009 N1012 1.384 . S
C1010 H1001 0.929 . S
C1010 C1002 1.378 . S
C1010 C1005 1.350 . S
C1011 H998 0.929 . S
C1011 C1003 1.433 . S
C1011 N1013 1.384 . S
N1012 C1008 1.427 . S
N1012 C1009 1.384 . S
N1013 C1005 1.427 . S
N1013 C1011 1.384 . S
H1014 C1020 0.930 . S
H1015 C1024 0.930 . S
H1016 C1029 0.929 . S
H1017 C1027 0.929 . S
H1018 C1022 0.929 . S
H1019 C1028 0.929 . S
C1020 H1014 0.930 . S
C1020 C1021 1.367 . S
C1020 C1028 1.378 . S
C1021 C1020 1.367 . S
C1021 C1029 1.433 . S
C1022 H1018 0.929 . S
C1022 C1024 1.378 . S
C1022 C1026 1.350 . S
C1023 C1026 1.463 . S
C1023 C1028 1.350 . S
C1023 N1031 1.427 . S
C1024 H1015 0.930 . S
C1024 C1022 1.378 . S
C1024 C1025 1.367 . S
C1025 C1024 1.367 . S
C1025 C1027 1.433 . S
C1026 C1022 1.350 . S
C1026 C1023 1.463 . S
C1026 N1030 1.427 . S
C1027 H1017 0.929 . S
C1027 C1025 1.433 . S
C1027 N1030 1.384 . S
C1028 H1019 0.929 . S
C1028 C1020 1.378 . S
C1028 C1023 1.350 . S
C1029 H1016 0.929 . S
C1029 C1021 1.433 . S
C1029 N1031 1.384 . S
N1030 C1026 1.427 . S
N1030 C1027 1.384 . S
N1031 C1023 1.427 . S
N1031 C1029 1.384 . S
H1032 C1038 0.930 . S
H1033 C1042 0.930 . S
H1034 C1047 0.929 . S
H1035 C1045 0.929 . S
H1036 C1040 0.929 . S
H1037 C1046 0.929 . S
C1038 H1032 0.930 . S
C1038 C1039 1.367 . S
C1038 C1046 1.378 . S
C1039 C1038 1.367 . S
C1039 C1047 1.433 . S
C1040 H1036 0.929 . S
C1040 C1042 1.378 . S
C1040 C1044 1.350 . S
C1041 C1044 1.463 . S
C1041 C1046 1.350 . S
C1041 N1049 1.427 . S
C1042 H1033 0.930 . S
C1042 C1040 1.378 . S
C1042 C1043 1.367 . S
C1043 C1042 1.367 . S
C1043 C1045 1.433 . S
C1044 C1040 1.350 . S
C1044 C1041 1.463 . S
C1044 N1048 1.427 . S
C1045 H1035 0.929 . S
C1045 C1043 1.433 . S
C1045 N1048 1.384 . S
C1046 H1037 0.929 . S
C1046 C1038 1.378 . S
C1046 C1041 1.350 . S
C1047 H1034 0.929 . S
C1047 C1039 1.433 . S
C1047 N1049 1.384 . S
N1048 C1044 1.427 . S
N1048 C1045 1.384 . S
N1049 C1041 1.427 . S
N1049 C1047 1.384 . S
H1050 C1056 0.930 . S
H1051 C1060 0.930 . S
H1052 C1065 0.929 . S
H1053 C1063 0.929 . S
H1054 C1058 0.929 . S
H1055 C1064 0.929 . S
C1056 H1050 0.930 . S
C1056 C1057 1.367 . S
C1056 C1064 1.378 . S
C1057 C1056 1.367 . S
C1057 C1065 1.433 . S
C1058 H1054 0.929 . S
C1058 C1060 1.378 . S
C1058 C1062 1.350 . S
C1059 C1062 1.463 . S
C1059 C1064 1.350 . S
C1059 N1067 1.427 . S
C1060 H1051 0.930 . S
C1060 C1058 1.378 . S
C1060 C1061 1.367 . S
C1061 C1060 1.367 . S
C1061 C1063 1.433 . S
C1062 C1058 1.350 . S
C1062 C1059 1.463 . S
C1062 N1066 1.427 . S
C1063 H1053 0.929 . S
C1063 C1061 1.433 . S
C1063 N1066 1.384 . S
C1064 H1055 0.929 . S
C1064 C1056 1.378 . S
C1064 C1059 1.350 . S
C1065 H1052 0.929 . S
C1065 C1057 1.433 . S
C1065 N1067 1.384 . S
N1066 C1062 1.427 . S
N1066 C1063 1.384 . S
N1067 C1059 1.427 . S
N1067 C1065 1.384 . S
H1068 C1074 0.930 . S
H1069 C1078 0.930 . S
H1070 C1083 0.929 . S
H1071 C1081 0.929 . S
H1072 C1076 0.929 . S
H1073 C1082 0.929 . S
C1074 H1068 0.930 . S
C1074 C1075 1.367 . S
C1074 C1082 1.378 . S
C1075 C1074 1.367 . S
C1075 C1083 1.433 . S
C1076 H1072 0.929 . S
C1076 C1078 1.378 . S
C1076 C1080 1.350 . S
C1077 C1080 1.463 . S
C1077 C1082 1.350 . S
C1077 N1085 1.427 . S
C1078 H1069 0.930 . S
C1078 C1076 1.378 . S
C1078 C1079 1.367 . S
C1079 C1078 1.367 . S
C1079 C1081 1.433 . S
C1080 C1076 1.350 . S
C1080 C1077 1.463 . S
C1080 N1084 1.427 . S
C1081 H1071 0.929 . S
C1081 C1079 1.433 . S
C1081 N1084 1.384 . S
C1082 H1073 0.929 . S
C1082 C1074 1.378 . S
C1082 C1077 1.350 . S
C1083 H1070 0.929 . S
C1083 C1075 1.433 . S
C1083 N1085 1.384 . S
N1084 C1080 1.427 . S
N1084 C1081 1.384 . S
N1085 C1077 1.427 . S
N1085 C1083 1.384 . S
H1086 C1092 0.930 . S
H1087 C1096 0.930 . S
H1088 C1101 0.929 . S
H1089 C1099 0.929 . S
H1090 C1094 0.929 . S
H1091 C1100 0.929 . S
C1092 H1086 0.930 . S
C1092 C1093 1.367 . S
C1092 C1100 1.378 . S
C1093 C1092 1.367 . S
C1093 C1101 1.433 . S
C1094 H1090 0.929 . S
C1094 C1096 1.378 . S
C1094 C1098 1.350 . S
C1095 C1098 1.463 . S
C1095 C1100 1.350 . S
C1095 N1103 1.427 . S
C1096 H1087 0.930 . S
C1096 C1094 1.378 . S
C1096 C1097 1.367 . S
C1097 C1096 1.367 . S
C1097 C1099 1.433 . S
C1098 C1094 1.350 . S
C1098 C1095 1.463 . S
C1098 N1102 1.427 . S
C1099 H1089 0.929 . S
C1099 C1097 1.433 . S
C1099 N1102 1.384 . S
C1100 H1091 0.929 . S
C1100 C1092 1.378 . S
C1100 C1095 1.350 . S
C1101 H1088 0.929 . S
C1101 C1093 1.433 . S
C1101 N1103 1.384 . S
N1102 C1098 1.427 . S
N1102 C1099 1.384 . S
N1103 C1095 1.427 . S
N1103 C1101 1.384 . S
H1104 C1110 0.930 . S
H1105 C1114 0.930 . S
H1106 C1119 0.929 . S
H1107 C1117 0.929 . S
H1108 C1112 0.929 . S
H1109 C1118 0.929 . S
C1110 H1104 0.930 . S
C1110 C1111 1.367 . S
C1110 C1118 1.378 . S
C1111 C1110 1.367 . S
C1111 C1119 1.433 . S
C1112 H1108 0.929 . S
C1112 C1114 1.378 . S
C1112 C1116 1.350 . S
C1113 C1116 1.463 . S
C1113 C1118 1.350 . S
C1113 N1121 1.427 . S
C1114 H1105 0.930 . S
C1114 C1112 1.378 . S
C1114 C1115 1.367 . S
C1115 C1114 1.367 . S
C1115 C1117 1.433 . S
C1116 C1112 1.350 . S
C1116 C1113 1.463 . S
C1116 N1120 1.427 . S
C1117 H1107 0.929 . S
C1117 C1115 1.433 . S
C1117 N1120 1.384 . S
C1118 H1109 0.929 . S
C1118 C1110 1.378 . S
C1118 C1113 1.350 . S
C1119 H1106 0.929 . S
C1119 C1111 1.433 . S
C1119 N1121 1.384 . S
N1120 C1116 1.427 . S
N1120 C1117 1.384 . S
N1121 C1113 1.427 . S
N1121 C1119 1.384 . S
H1122 C1128 0.930 . S
H1123 C1132 0.930 . S
H1124 C1137 0.929 . S
H1125 C1135 0.929 . S
H1126 C1130 0.929 . S
H1127 C1136 0.929 . S
C1128 H1122 0.930 . S
C1128 C1129 1.367 . S
C1128 C1136 1.378 . S
C1129 C1128 1.367 . S
C1129 C1137 1.433 . S
C1130 H1126 0.929 . S
C1130 C1132 1.378 . S
C1130 C1134 1.350 . S
C1131 C1134 1.463 . S
C1131 C1136 1.350 . S
C1131 N1139 1.427 . S
C1132 H1123 0.930 . S
C1132 C1130 1.378 . S
C1132 C1133 1.367 . S
C1133 C1132 1.367 . S
C1133 C1135 1.433 . S
C1134 C1130 1.350 . S
C1134 C1131 1.463 . S
C1134 N1138 1.427 . S
C1135 H1125 0.929 . S
C1135 C1133 1.433 . S
C1135 N1138 1.384 . S
C1136 H1127 0.929 . S
C1136 C1128 1.378 . S
C1136 C1131 1.350 . S
C1137 H1124 0.929 . S
C1137 C1129 1.433 . S
C1137 N1139 1.384 . S
N1138 C1134 1.427 . S
N1138 C1135 1.384 . S
N1139 C1131 1.427 . S
N1139 C1137 1.384 . S
C715 C5 1.597 . S
C719 C300 1.595 . S
C733 C111 1.602 . S
C737 C288 1.603 . S
C751 C298 1.600 . S
C755 C121 1.601 . S
C769 C229 1.604 . S
C773 C269 1.606 . S
C787 C418 1.602 . S
C791 C123 1.604 . S
C805 C387 1.607 . S
C809 C210 1.607 . S
C823 C3 1.598 . S
C827 C416 1.600 . S
C841 C406 1.600 . S
C845 C92 1.601 . S
C859 C583 1.580 . S
C863 C477 1.590 . S
C877 C475 1.595 . S
C881 C701 1.585 . S
C895 C564 1.580 . S
C899 C593 1.595 . S
C913 C595 1.591 . S
C917 C682 1.582 . S
C931 C654 1.596 . S
C935 C359 1.595 . S
C949 C524 1.596 . S
C953 C465 1.593 . S
C967 C357 1.607 . S
C971 C534 1.605 . S
C985 C446 1.598 . S
C989 C642 1.596 . S
C1003 C241 1.602 . S
C1007 C536 1.604 . S
C1021 C328 1.600 . S
C1025 C623 1.600 . S
C1039 C652 1.604 . S
C1043 C239 1.607 . S
C1057 C505 1.598 . S
C1061 C347 1.596 . S
C1075 C64 1.597 . S
C1079 C170 1.589 . S
C1093 C52 1.578 . S
C1097 C62 1.591 . S
C1111 C151 1.584 . S
C1115 C180 1.599 . S
C1129 C33 1.587 . S
C1133 C182 1.597 . S
