# Generated by pormake.
# Topology wjh, (4)-cn, num edge types: 1
# Building blocks:
#     Node 0, Type 0, BuildingBlock: GALJAG_clean_sbu_0, # of connection points: 4
#     Node 1, Type 0, BuildingBlock: GALJAG_clean_sbu_0, # of connection points: 4
#     Node 2, Type 0, BuildingBlock: GALJAG_clean_sbu_0, # of connection points: 4
#     Node 3, Type 0, BuildingBlock: GALJAG_clean_sbu_0, # of connection points: 4
#     Node 4, Type 0, BuildingBlock: GALJAG_clean_sbu_0, # of connection points: 4
#     Node 5, Type 0, BuildingBlock: GALJAG_clean_sbu_0, # of connection points: 4
#     Node 6, Type 0, BuildingBlock: GALJAG_clean_sbu_0, # of connection points: 4
#     Node 7, Type 0, BuildingBlock: GALJAG_clean_sbu_0, # of connection points: 4
#     Node 8, Type 0, BuildingBlock: GALJAG_clean_sbu_0, # of connection points: 4
#     Node 9, Type 0, BuildingBlock: GALJAG_clean_sbu_0, # of connection points: 4
#     Node 10, Type 0, BuildingBlock: GALJAG_clean_sbu_0, # of connection points: 4
#     Node 11, Type 0, BuildingBlock: GALJAG_clean_sbu_0, # of connection points: 4
#     Edge 12, Type (0, 0), BuildingBlock: TEMPAE_clean_linker_10, # of connection points: 2
#     Edge 13, Type (0, 0), BuildingBlock: TEMPAE_clean_linker_10, # of connection points: 2
#     Edge 14, Type (0, 0), BuildingBlock: TEMPAE_clean_linker_10, # of connection points: 2
#     Edge 15, Type (0, 0), BuildingBlock: TEMPAE_clean_linker_10, # of connection points: 2
#     Edge 16, Type (0, 0), BuildingBlock: TEMPAE_clean_linker_10, # of connection points: 2
#     Edge 17, Type (0, 0), BuildingBlock: TEMPAE_clean_linker_10, # of connection points: 2
#     Edge 18, Type (0, 0), BuildingBlock: TEMPAE_clean_linker_10, # of connection points: 2
#     Edge 19, Type (0, 0), BuildingBlock: TEMPAE_clean_linker_10, # of connection points: 2
#     Edge 20, Type (0, 0), BuildingBlock: TEMPAE_clean_linker_10, # of connection points: 2
#     Edge 21, Type (0, 0), BuildingBlock: TEMPAE_clean_linker_10, # of connection points: 2
#     Edge 22, Type (0, 0), BuildingBlock: TEMPAE_clean_linker_10, # of connection points: 2
#     Edge 23, Type (0, 0), BuildingBlock: TEMPAE_clean_linker_10, # of connection points: 2
#     Edge 24, Type (0, 0), BuildingBlock: TEMPAE_clean_linker_10, # of connection points: 2
#     Edge 25, Type (0, 0), BuildingBlock: TEMPAE_clean_linker_10, # of connection points: 2
#     Edge 26, Type (0, 0), BuildingBlock: TEMPAE_clean_linker_10, # of connection points: 2
#     Edge 27, Type (0, 0), BuildingBlock: TEMPAE_clean_linker_10, # of connection points: 2
#     Edge 28, Type (0, 0), BuildingBlock: TEMPAE_clean_linker_10, # of connection points: 2
#     Edge 29, Type (0, 0), BuildingBlock: TEMPAE_clean_linker_10, # of connection points: 2
#     Edge 30, Type (0, 0), BuildingBlock: TEMPAE_clean_linker_10, # of connection points: 2
#     Edge 31, Type (0, 0), BuildingBlock: TEMPAE_clean_linker_10, # of connection points: 2
#     Edge 32, Type (0, 0), BuildingBlock: TEMPAE_clean_linker_10, # of connection points: 2
#     Edge 33, Type (0, 0), BuildingBlock: TEMPAE_clean_linker_10, # of connection points: 2
#     Edge 34, Type (0, 0), BuildingBlock: TEMPAE_clean_linker_10, # of connection points: 2
#     Edge 35, Type (0, 0), BuildingBlock: TEMPAE_clean_linker_10, # of connection points: 2
# Relax obj value: 0.053
# Max RMSD: 0.092
# Mean RMSD: 0.092
data_MOF--net-wjh--node1-GALJAG_clean_sbu_0--edge1-TEMPAE_clean_linker_10
_symmetry_space_group_name_H-M    P1
_symmetry_Int_Tables_number       1
_symmetry_cell_setting            triclinic
loop_
_symmetry_equiv_pos_as_xyz
'x, y, z'
_cell_length_a     60.65199
_cell_length_b     60.699269
_cell_length_c     28.107134
_cell_angle_alpha  89.997013
_cell_angle_beta   89.951715
_cell_angle_gamma 120.02751
loop_
_atom_site_label
_atom_site_type_symbol
_atom_site_fract_x
_atom_site_fract_y
_atom_site_fract_z
_atom_type_partial_charge
In0 In 0.51406 0.14417 0.04397 0.0
O1 O 0.54398 0.14401 0.99421 0.0
O2 O 0.51891 0.15554 0.96564 0.0
C3 C 0.53757 0.15302 0.12916 0.0
C4 C 0.48177 0.0937 0.04099 0.0
C5 C 0.49726 0.17695 0.05854 0.0
O6 O 0.5499 0.16335 0.0915 0.0
O7 O 0.51405 0.13848 0.12319 0.0
O8 O 0.48296 0.15322 0.06327 0.0
O9 O 0.5196 0.18392 0.04465 0.0
C10 C 0.53703 0.15142 0.95819 0.0
O11 O 0.47564 0.10931 0.02469 0.0
O12 O 0.50409 0.1036 0.05711 0.0
In13 In 0.37168 0.5256 0.20679 0.0
O14 O 0.38933 0.55872 0.15387 0.0
O15 O 0.36563 0.52133 0.12682 0.0
C16 C 0.39327 0.55788 0.28128 0.0
C17 C 0.39071 0.4939 0.20481 0.0
C18 C 0.3213 0.50125 0.22531 0.0
O19 O 0.37296 0.55406 0.26191 0.0
O20 O 0.40358 0.54682 0.26109 0.0
O21 O 0.33585 0.49393 0.24195 0.0
O22 O 0.33198 0.52007 0.19759 0.0
C23 C 0.3796 0.54473 0.11774 0.0
O24 O 0.37247 0.4902 0.23159 0.0
O25 O 0.39908 0.51333 0.17865 0.0
In26 In 0.84994 0.37986 0.37466 0.0
O27 O 0.83624 0.40065 0.32518 0.0
O28 O 0.85045 0.37827 0.29407 0.0
C29 C 0.84323 0.39608 0.45999 0.0
C30 C 0.90084 0.40257 0.36845 0.0
C31 C 0.81785 0.32977 0.38876 0.0
O32 O 0.83255 0.39797 0.42279 0.0
O33 O 0.85717 0.38643 0.4536 0.0
O34 O 0.84129 0.34026 0.3979 0.0
O35 O 0.81087 0.3443 0.37077 0.0
C36 C 0.84143 0.39277 0.2875 0.0
O37 O 0.88648 0.37939 0.35804 0.0
O38 O 0.88949 0.41423 0.38135 0.0
In39 In 0.4725 0.85612 0.54705 0.0
O40 O 0.4422 0.85512 0.49702 0.0
O41 O 0.4685 0.84516 0.46855 0.0
C42 C 0.44883 0.84778 0.63202 0.0
C43 C 0.50442 0.90663 0.5429 0.0
C44 C 0.48939 0.82351 0.56312 0.0
O45 O 0.43668 0.83682 0.59462 0.0
O46 O 0.47228 0.86274 0.62591 0.0
O47 O 0.50367 0.84729 0.56709 0.0
O48 O 0.46704 0.81641 0.54918 0.0
C49 C 0.44984 0.84842 0.46098 0.0
O50 O 0.511 0.89103 0.52847 0.0
O51 O 0.48184 0.89668 0.55788 0.0
In52 In 0.61656 0.47959 0.7095 0.0
O53 O 0.59639 0.4442 0.66196 0.0
O54 O 0.61801 0.48043 0.62893 0.0
C55 C 0.60025 0.4578 0.79568 0.0
C56 C 0.59275 0.50647 0.69947 0.0
C57 C 0.66684 0.49925 0.7246 0.0
O58 O 0.59987 0.44499 0.75985 0.0
O59 O 0.60846 0.48102 0.78751 0.0
O60 O 0.65562 0.51158 0.73303 0.0
O61 O 0.65294 0.47755 0.70675 0.0
C62 C 0.60388 0.45675 0.62362 0.0
O63 O 0.61618 0.51585 0.69035 0.0
O64 O 0.58145 0.48357 0.71311 0.0
In65 In 0.14009 0.62075 0.8766 0.0
O66 O 0.15293 0.59928 0.82682 0.0
O67 O 0.14128 0.62382 0.79608 0.0
C68 C 0.14732 0.60275 0.95956 0.0
C69 C 0.08939 0.59875 0.86875 0.0
C70 C 0.16972 0.67082 0.89517 0.0
O71 O 0.1625 0.60811 0.92494 0.0
O72 O 0.12874 0.60601 0.95163 0.0
O73 O 0.1467 0.65838 0.90769 0.0
O74 O 0.17743 0.65824 0.87193 0.0
C75 C 0.14917 0.60841 0.78927 0.0
O76 O 0.10399 0.62218 0.8605 0.0
O77 O 0.10044 0.58655 0.87997 0.0
In78 In 0.84727 0.48237 0.87415 0.0
O79 O 0.88511 0.51863 0.88733 0.0
O80 O 0.88577 0.48642 0.85871 0.0
C81 C 0.815 0.50059 0.86823 0.0
C82 C 0.84082 0.46096 0.96102 0.0
C83 C 0.83876 0.46076 0.78727 0.0
O84 O 0.83849 0.51421 0.85984 0.0
O85 O 0.8081 0.47823 0.88157 0.0
O86 O 0.83273 0.44751 0.82491 0.0
O87 O 0.84867 0.48436 0.79397 0.0
C88 C 0.8983 0.5093 0.87211 0.0
O89 O 0.83131 0.44771 0.92398 0.0
O90 O 0.85315 0.48465 0.95401 0.0
In91 In 0.36759 0.85301 0.04567 0.0
O92 O 0.36442 0.88817 0.06445 0.0
O93 O 0.39765 0.89337 0.02885 0.0
C94 C 0.31791 0.81895 0.03686 0.0
C95 C 0.38494 0.84654 0.13024 0.0
C96 C 0.38004 0.84354 0.95886 0.0
O97 O 0.32632 0.84263 0.03409 0.0
O98 O 0.33446 0.8127 0.04573 0.0
O99 O 0.38551 0.83579 0.99643 0.0
O100 O 0.36854 0.85572 0.96565 0.0
C101 C 0.38567 0.90352 0.04592 0.0
O102 O 0.39885 0.85435 0.09363 0.0
O103 O 0.36238 0.84168 0.12401 0.0
In104 In 0.51397 0.3752 0.21137 0.0
O105 O 0.47598 0.37411 0.21438 0.0
O106 O 0.50992 0.41035 0.21597 0.0
C107 C 0.49736 0.32518 0.20196 0.0
C108 C 0.53434 0.38653 0.2993 0.0
C109 C 0.5357 0.39131 0.1248 0.0
O110 O 0.48286 0.33431 0.19677 0.0
O111 O 0.51987 0.3411 0.21378 0.0
O112 O 0.54887 0.39736 0.1624 0.0
O113 O 0.51211 0.37761 0.13137 0.0
C114 C 0.48587 0.39802 0.21612 0.0
O115 O 0.54798 0.39279 0.2622 0.0
O116 O 0.51063 0.37429 0.29188 0.0
In117 In 0.14315 0.51966 0.37502 0.0
O118 O 0.10515 0.4833 0.38657 0.0
O119 O 0.10482 0.51521 0.35576 0.0
C120 C 0.1751 0.50097 0.37263 0.0
C121 C 0.14911 0.54115 0.46172 0.0
C122 C 0.15392 0.54197 0.28852 0.0
O123 O 0.15166 0.48741 0.36365 0.0
O124 O 0.18204 0.52349 0.38493 0.0
O125 O 0.15548 0.55427 0.32598 0.0
O126 O 0.14716 0.51891 0.29522 0.0
C127 C 0.09212 0.49243 0.36967 0.0
O128 O 0.16055 0.55416 0.42537 0.0
O129 O 0.13507 0.51767 0.45411 0.0
In130 In 0.61928 0.14742 0.54207 0.0
O131 O 0.58843 0.1467 0.59048 0.0
O132 O 0.62475 0.15836 0.62058 0.0
C133 C 0.60615 0.15662 0.45572 0.0
C134 C 0.60111 0.09691 0.54338 0.0
C135 C 0.66894 0.18117 0.53099 0.0
O136 O 0.60135 0.16488 0.49341 0.0
O137 O 0.61725 0.14404 0.46221 0.0
O138 O 0.66021 0.15749 0.52728 0.0
O139 O 0.65278 0.18761 0.54214 0.0
C140 C 0.60235 0.15398 0.62709 0.0
O141 O 0.62224 0.11231 0.56219 0.0
O142 O 0.58929 0.10701 0.52543 0.0
In143 In 0.46919 0.62474 0.70314 0.0
O144 O 0.50597 0.62414 0.71626 0.0
O145 O 0.47636 0.59328 0.67802 0.0
C146 C 0.49007 0.67562 0.70286 0.0
C147 C 0.44611 0.60821 0.78859 0.0
C148 C 0.44539 0.61394 0.61797 0.0
O149 O 0.50202 0.66472 0.68912 0.0
O150 O 0.46802 0.66086 0.71893 0.0
O151 O 0.4362 0.59893 0.65303 0.0
O152 O 0.46593 0.63412 0.6265 0.0
C153 C 0.49852 0.60325 0.69509 0.0
O154 O 0.43411 0.60887 0.75237 0.0
O155 O 0.46933 0.61583 0.78139 0.0
C156 C 0.57442 0.1761 0.18529 0.0
C157 C 0.54923 0.15697 0.17686 0.0
C158 C 0.58525 0.17942 0.23087 0.0
C159 C 0.5706 0.16295 0.2684 0.0
C160 C 0.54506 0.14388 0.26004 0.0
C161 C 0.53467 0.14126 0.21454 0.0
C162 C 0.61244 0.20018 0.2387 0.0
C163 C 0.52889 0.12565 0.29879 0.0
C164 C 0.60204 0.14746 0.36897 0.0
C165 C 0.59874 0.16024 0.40748 0.0
C166 C 0.59385 0.14903 0.32319 0.0
C167 C 0.58232 0.16401 0.31545 0.0
C168 C 0.57987 0.17784 0.35375 0.0
C169 C 0.58796 0.17564 0.39953 0.0
C170 C 0.59651 0.13369 0.28356 0.0
C171 C 0.56798 0.19429 0.34664 0.0
H172 H 0.58565 0.18842 0.15634 0.0
H173 H 0.51516 0.12643 0.20827 0.0
H174 H 0.6136 0.21198 0.26979 0.0
H175 H 0.62443 0.19161 0.24679 0.0
H176 H 0.62051 0.21272 0.20711 0.0
H177 H 0.50908 0.11249 0.28689 0.0
H178 H 0.53749 0.11415 0.31047 0.0
H179 H 0.52822 0.13634 0.33023 0.0
H180 H 0.61042 0.13556 0.37479 0.0
H181 H 0.58557 0.18571 0.42912 0.0
H182 H 0.60637 0.14608 0.25259 0.0
H183 H 0.57735 0.11887 0.27141 0.0
H184 H 0.60727 0.1242 0.29484 0.0
H185 H 0.57682 0.20715 0.31575 0.0
H186 H 0.57 0.20594 0.37857 0.0
H187 H 0.54741 0.18209 0.33869 0.0
C188 C 0.42295 0.57151 0.35047 0.0
C189 C 0.40196 0.57068 0.32787 0.0
C190 C 0.42914 0.57994 0.39762 0.0
C191 C 0.41402 0.58783 0.42273 0.0
C192 C 0.39345 0.58806 0.39946 0.0
C193 C 0.38764 0.57945 0.35226 0.0
C194 C 0.45133 0.57954 0.4211 0.0
C195 C 0.37705 0.59655 0.42492 0.0
C196 C 0.416 0.58293 0.55731 0.0
C197 C 0.43464 0.60777 0.5694 0.0
C198 C 0.40834 0.57637 0.50977 0.0
C199 C 0.4195 0.59515 0.47372 0.0
C200 C 0.43733 0.62054 0.4862 0.0
C201 C 0.44475 0.62652 0.53386 0.0
C202 C 0.38922 0.54908 0.49784 0.0
C203 C 0.44946 0.64117 0.44897 0.0
H204 H 0.43405 0.5647 0.33185 0.0
H205 H 0.37133 0.57878 0.33501 0.0
H206 H 0.46491 0.59863 0.4355 0.0
H207 H 0.4444 0.56607 0.45151 0.0
H208 H 0.46172 0.57374 0.39614 0.0
H209 H 0.36293 0.59731 0.40084 0.0
H210 H 0.36666 0.58321 0.45447 0.0
H211 H 0.38909 0.61565 0.44087 0.0
H212 H 0.40816 0.5684 0.58466 0.0
H213 H 0.45905 0.64582 0.54308 0.0
H214 H 0.39857 0.54073 0.47635 0.0
H215 H 0.37354 0.54817 0.47604 0.0
H216 H 0.38092 0.53723 0.53018 0.0
H217 H 0.46199 0.63737 0.42576 0.0
H218 H 0.46103 0.66035 0.46499 0.0
H219 H 0.43466 0.64125 0.42593 0.0
C220 C 0.8217 0.42384 0.73067 0.0
C221 C 0.83597 0.4501 0.7389 0.0
C222 C 0.82015 0.41387 0.6848 0.0
C223 C 0.83358 0.43057 0.64671 0.0
C224 C 0.84759 0.45713 0.6548 0.0
C225 C 0.84843 0.46655 0.70065 0.0
C226 C 0.80466 0.38548 0.67731 0.0
C227 C 0.86258 0.47557 0.61543 0.0
C228 C 0.85656 0.40651 0.54449 0.0
C229 C 0.84008 0.40447 0.50763 0.0
C230 C 0.85433 0.41456 0.59004 0.0
C231 C 0.83486 0.42037 0.59927 0.0
C232 C 0.81779 0.41787 0.56247 0.0
C233 C 0.82074 0.41014 0.51685 0.0
C234 C 0.87322 0.41741 0.62798 0.0
C235 C 0.79659 0.42356 0.57124 0.0
H236 H 0.81191 0.41108 0.76009 0.0
H237 H 0.85953 0.48689 0.70678 0.0
H238 H 0.79144 0.38106 0.64691 0.0
H239 H 0.8175 0.37798 0.66837 0.0
H240 H 0.79343 0.37534 0.70938 0.0
H241 H 0.87157 0.49572 0.62713 0.0
H242 H 0.87777 0.47187 0.60281 0.0
H243 H 0.85003 0.47282 0.58465 0.0
H244 H 0.87157 0.40218 0.53755 0.0
H245 H 0.80784 0.40839 0.48853 0.0
H246 H 0.86306 0.4057 0.65949 0.0
H247 H 0.88408 0.43752 0.63989 0.0
H248 H 0.88694 0.41165 0.61523 0.0
H249 H 0.78492 0.41239 0.60209 0.0
H250 H 0.78397 0.41914 0.53981 0.0
H251 H 0.80473 0.44398 0.58021 0.0
C252 C 0.41209 0.82433 0.6883 0.0
C253 C 0.43706 0.84393 0.6796 0.0
C254 C 0.40118 0.82096 0.73384 0.0
C255 C 0.4155 0.83783 0.77106 0.0
C256 C 0.44079 0.85744 0.76242 0.0
C257 C 0.45128 0.86013 0.71695 0.0
C258 C 0.37426 0.79963 0.74198 0.0
C259 C 0.4566 0.8761 0.80086 0.0
C260 C 0.38323 0.85215 0.8719 0.0
C261 C 0.38726 0.83991 0.91045 0.0
C262 C 0.39141 0.85073 0.82599 0.0
C263 C 0.4037 0.83645 0.8182 0.0
C264 C 0.40685 0.8231 0.85654 0.0
C265 C 0.39873 0.82513 0.90242 0.0
C266 C 0.38798 0.86554 0.78631 0.0
C267 C 0.41955 0.8074 0.84938 0.0
H268 H 0.40112 0.81164 0.6596 0.0
H269 H 0.4706 0.87533 0.71047 0.0
H270 H 0.37358 0.78802 0.77304 0.0
H271 H 0.36179 0.80764 0.75029 0.0
H272 H 0.3664 0.78701 0.71047 0.0
H273 H 0.47623 0.88978 0.78868 0.0
H274 H 0.44735 0.88701 0.81252 0.0
H275 H 0.45782 0.86578 0.83239 0.0
H276 H 0.37429 0.86355 0.87778 0.0
H277 H 0.4017 0.81548 0.93205 0.0
H278 H 0.37842 0.85296 0.75544 0.0
H279 H 0.40689 0.88084 0.77398 0.0
H280 H 0.3766 0.87437 0.7976 0.0
H281 H 0.41098 0.7944 0.81861 0.0
H282 H 0.41799 0.79595 0.88137 0.0
H283 H 0.44003 0.82012 0.84122 0.0
C284 C 0.53004 0.39393 0.0377 0.0
C285 C 0.5465 0.39962 0.07659 0.0
C286 C 0.5395 0.40219 0.99171 0.0
C287 C 0.56612 0.41633 0.98423 0.0
C288 C 0.58291 0.42156 0.0231 0.0
C289 C 0.57288 0.41324 0.06899 0.0
C290 C 0.52094 0.39645 0.95138 0.0
C291 C 0.61142 0.43638 0.01634 0.0
C292 C 0.58812 0.42285 0.85546 0.0
C293 C 0.59186 0.44693 0.84378 0.0
C294 C 0.5805 0.41289 0.90159 0.0
C295 C 0.57615 0.42721 0.93636 0.0
C296 C 0.58 0.45155 0.92462 0.0
C297 C 0.58797 0.46117 0.87863 0.0
C298 C 0.57688 0.38699 0.91305 0.0
C299 C 0.57516 0.46726 0.96035 0.0
H300 H 0.50962 0.38335 0.04328 0.0
H301 H 0.58567 0.41753 0.09889 0.0
H302 H 0.52326 0.41449 0.93684 0.0
H303 H 0.52492 0.38673 0.92201 0.0
H304 H 0.50083 0.38427 0.96279 0.0
H305 H 0.62183 0.43714 0.04936 0.0
H306 H 0.61713 0.42773 0.98759 0.0
H307 H 0.6174 0.45614 0.00526 0.0
H308 H 0.59132 0.4119 0.8287 0.0
H309 H 0.5908 0.4798 0.86977 0.0
H310 H 0.55664 0.37365 0.92198 0.0
H311 H 0.58836 0.3882 0.9447 0.0
H312 H 0.58244 0.37892 0.88293 0.0
H313 H 0.55489 0.45686 0.97155 0.0
H314 H 0.57959 0.48607 0.94584 0.0
H315 H 0.58686 0.47042 0.99267 0.0
C316 C 0.16434 0.5782 0.23273 0.0
C317 C 0.15789 0.55283 0.24004 0.0
C318 C 0.16572 0.58769 0.18651 0.0
C319 C 0.1603 0.57131 0.14688 0.0
C320 C 0.15488 0.54602 0.15407 0.0
C321 C 0.15384 0.53713 0.20051 0.0
C322 C 0.17187 0.61487 0.18019 0.0
C323 C 0.14878 0.52787 0.1129 0.0
C324 C 0.13054 0.58332 0.03872 0.0
C325 C 0.15093 0.59406 0.00651 0.0
C326 C 0.13343 0.57589 0.08437 0.0
C327 C 0.15744 0.5796 0.09856 0.0
C328 C 0.17817 0.59046 0.06625 0.0
C329 C 0.17461 0.5974 0.02032 0.0
C330 C 0.11071 0.56398 0.11739 0.0
C331 C 0.2041 0.59495 0.08037 0.0
H332 H 0.16765 0.59045 0.26314 0.0
H333 H 0.14899 0.51752 0.20584 0.0
H334 H 0.18677 0.6245 0.15258 0.0
H335 H 0.15464 0.61515 0.16785 0.0
H336 H 0.1785 0.62592 0.21379 0.0
H337 H 0.1472 0.50958 0.1241 0.0
H338 H 0.13046 0.52376 0.09657 0.0
H339 H 0.16365 0.53659 0.08498 0.0
H340 H 0.11216 0.58063 0.02815 0.0
H341 H 0.19046 0.60591 0.99561 0.0
H342 H 0.11491 0.57555 0.15021 0.0
H343 H 0.10665 0.54473 0.12825 0.0
H344 H 0.09332 0.56226 0.1007 0.0
H345 H 0.21104 0.60748 0.11209 0.0
H346 H 0.21832 0.60385 0.05133 0.0
H347 H 0.20284 0.57667 0.09035 0.0
C348 C 0.47036 0.28596 0.15494 0.0
C349 C 0.48995 0.299 0.18805 0.0
C350 C 0.4667 0.26348 0.13357 0.0
C351 C 0.48274 0.25374 0.14643 0.0
C352 C 0.50109 0.26573 0.18283 0.0
C353 C 0.50466 0.28841 0.20286 0.0
C354 C 0.44709 0.25137 0.09466 0.0
C355 C 0.51815 0.25557 0.19838 0.0
C356 C 0.47118 0.18873 0.10964 0.0
C357 C 0.48988 0.19545 0.07446 0.0
C358 C 0.4676 0.20738 0.13205 0.0
C359 C 0.48279 0.23313 0.11816 0.0
C360 C 0.50026 0.23963 0.08003 0.0
C361 C 0.50379 0.22072 0.05898 0.0
C362 C 0.44897 0.19976 0.17281 0.0
C363 C 0.51639 0.26682 0.0634 0.0
H364 H 0.45902 0.29421 0.1433 0.0
H365 H 0.51968 0.2984 0.22877 0.0
H366 H 0.45688 0.25557 0.05969 0.0
H367 H 0.43616 0.23038 0.09878 0.0
H368 H 0.43355 0.25867 0.09422 0.0
H369 H 0.52905 0.26513 0.23105 0.0
H370 H 0.50677 0.2348 0.20519 0.0
H371 H 0.5319 0.25857 0.16957 0.0
H372 H 0.4605 0.16918 0.12182 0.0
H373 H 0.51812 0.22586 0.03152 0.0
H374 H 0.43743 0.20924 0.16998 0.0
H375 H 0.45964 0.20596 0.20682 0.0
H376 H 0.43594 0.17884 0.17432 0.0
H377 H 0.50438 0.2756 0.0575 0.0
H378 H 0.52678 0.26821 0.02994 0.0
H379 H 0.53055 0.2781 0.09123 0.0
C380 C 0.28035 0.50129 0.22431 0.0
C381 C 0.29521 0.49171 0.24326 0.0
C382 C 0.25813 0.49719 0.24737 0.0
C383 C 0.25068 0.48319 0.29045 0.0
C384 C 0.26437 0.47157 0.30746 0.0
C385 C 0.28655 0.47598 0.28358 0.0
C386 C 0.24384 0.50961 0.22765 0.0
C387 C 0.25681 0.45621 0.35283 0.0
C388 C 0.21951 0.50907 0.37155 0.0
C389 C 0.19371 0.49284 0.36127 0.0
C390 C 0.23826 0.50491 0.35152 0.0
C391 C 0.23095 0.48402 0.32042 0.0
C392 C 0.20483 0.46627 0.31342 0.0
C393 C 0.18644 0.4709 0.33402 0.0
C394 C 0.26594 0.5241 0.3605 0.0
C395 C 0.19631 0.44357 0.28116 0.0
H396 H 0.28684 0.51325 0.19287 0.0
H397 H 0.29793 0.46841 0.29825 0.0
H398 H 0.22313 0.49576 0.22624 0.0
H399 H 0.2466 0.52539 0.25143 0.0
H400 H 0.25044 0.51747 0.19139 0.0
H401 H 0.26594 0.44432 0.35587 0.0
H402 H 0.26282 0.46932 0.38376 0.0
H403 H 0.23585 0.4437 0.355 0.0
H404 H 0.22519 0.5259 0.39305 0.0
H405 H 0.16647 0.45821 0.32617 0.0
H406 H 0.27457 0.53523 0.32757 0.0
H407 H 0.27665 0.51434 0.36996 0.0
H408 H 0.26836 0.53757 0.3895 0.0
H409 H 0.19859 0.4499 0.24355 0.0
H410 H 0.176 0.42908 0.28712 0.0
H411 H 0.20814 0.43455 0.28652 0.0
C412 C 0.70854 0.19351 0.48477 0.0
C413 C 0.69506 0.20012 0.51676 0.0
C414 C 0.73109 0.21233 0.46343 0.0
C415 C 0.74042 0.23819 0.47511 0.0
C416 C 0.7279 0.24468 0.51026 0.0
C417 C 0.7052 0.22556 0.53033 0.0
C418 C 0.74381 0.2047 0.42592 0.0
C419 C 0.73756 0.27201 0.52449 0.0
C420 C 0.80571 0.29215 0.44083 0.0
C421 C 0.79938 0.30375 0.40435 0.0
C422 C 0.78691 0.2698 0.46272 0.0
C423 C 0.76137 0.25876 0.44715 0.0
C424 C 0.75532 0.26932 0.40776 0.0
C425 C 0.7744 0.29185 0.38709 0.0
C426 C 0.79405 0.25917 0.50472 0.0
C427 C 0.72839 0.25778 0.38942 0.0
H428 H 0.70064 0.17382 0.47408 0.0
H429 H 0.69487 0.23064 0.55537 0.0
H430 H 0.73997 0.20991 0.3903 0.0
H431 H 0.76476 0.21499 0.43089 0.0
H432 H 0.73669 0.1839 0.42634 0.0
H433 H 0.72739 0.27354 0.55608 0.0
H434 H 0.75823 0.28166 0.53253 0.0
H435 H 0.73494 0.28237 0.49452 0.0
H436 H 0.82504 0.30138 0.45432 0.0
H437 H 0.76953 0.3007 0.35862 0.0
H438 H 0.78489 0.23817 0.50226 0.0
H439 H 0.78715 0.26362 0.53792 0.0
H440 H 0.81499 0.26738 0.50757 0.0
H441 H 0.71993 0.23698 0.38423 0.0
H442 H 0.72743 0.26645 0.35522 0.0
H443 H 0.71651 0.26066 0.41597 0.0
C444 C 0.51669 0.81255 0.61257 0.0
C445 C 0.49689 0.80516 0.57957 0.0
C446 C 0.52084 0.79432 0.6352 0.0
C447 C 0.50501 0.76829 0.62392 0.0
C448 C 0.4862 0.76101 0.58811 0.0
C449 C 0.48224 0.77954 0.56666 0.0
C450 C 0.541 0.80278 0.67327 0.0
C451 C 0.46927 0.73346 0.57431 0.0
C452 C 0.51739 0.71506 0.65658 0.0
C453 C 0.49875 0.70246 0.69164 0.0
C454 C 0.52115 0.73781 0.63634 0.0
C455 C 0.50615 0.74822 0.65215 0.0
C456 C 0.48921 0.73693 0.69092 0.0
C457 C 0.48556 0.71402 0.71 0.0
C458 C 0.53941 0.74928 0.59514 0.0
C459 C 0.47329 0.74781 0.70957 0.0
H460 H 0.52797 0.83238 0.62276 0.0
H461 H 0.46705 0.77386 0.54088 0.0
H462 H 0.5317 0.79761 0.70872 0.0
H463 H 0.55219 0.79298 0.66933 0.0
H464 H 0.55424 0.82367 0.67246 0.0
H465 H 0.45731 0.73129 0.54279 0.0
H466 H 0.48092 0.72449 0.56633 0.0
H467 H 0.45651 0.72287 0.60447 0.0
H468 H 0.52767 0.70618 0.64231 0.0
H469 H 0.47132 0.70442 0.73745 0.0
H470 H 0.55047 0.77032 0.5979 0.0
H471 H 0.52844 0.74447 0.56143 0.0
H472 H 0.55288 0.74194 0.59305 0.0
H473 H 0.48517 0.76869 0.71457 0.0
H474 H 0.46395 0.73902 0.74392 0.0
H475 H 0.45826 0.7444 0.68328 0.0
C476 C 0.70555 0.4951 0.72467 0.0
C477 C 0.69294 0.50765 0.74095 0.0
C478 C 0.72808 0.4992 0.7463 0.0
C479 C 0.73795 0.51597 0.7856 0.0
C480 C 0.72626 0.53003 0.80007 0.0
C481 C 0.70388 0.52579 0.77729 0.0
C482 C 0.7403 0.48423 0.72912 0.0
C483 C 0.7362 0.54805 0.84181 0.0
C484 C 0.77096 0.49351 0.86984 0.0
C485 C 0.79638 0.50848 0.85564 0.0
C486 C 0.7519 0.49721 0.84995 0.0
C487 C 0.75846 0.51613 0.81459 0.0
C488 C 0.78436 0.53265 0.80296 0.0
C489 C 0.8031 0.5287 0.82389 0.0
C490 C 0.72453 0.47953 0.86409 0.0
C491 C 0.7921 0.55308 0.7656 0.0
H492 H 0.69721 0.48122 0.69628 0.0
H493 H 0.6941 0.5355 0.79001 0.0
H494 H 0.76109 0.49696 0.72418 0.0
H495 H 0.73764 0.4698 0.75624 0.0
H496 H 0.73199 0.47426 0.69503 0.0
H497 H 0.72792 0.56074 0.84311 0.0
H498 H 0.73118 0.53689 0.87532 0.0
H499 H 0.75725 0.55992 0.84045 0.0
H500 H 0.76577 0.47804 0.89476 0.0
H501 H 0.82278 0.54034 0.81285 0.0
H502 H 0.71433 0.46628 0.83434 0.0
H503 H 0.71473 0.49047 0.87137 0.0
H504 H 0.72295 0.46809 0.8961 0.0
H505 H 0.78762 0.54415 0.72983 0.0
H506 H 0.81282 0.56711 0.76701 0.0
H507 H 0.78134 0.5633 0.76981 0.0
C508 C 0.21167 0.71066 0.89229 0.0
C509 C 0.18728 0.69682 0.9121 0.0
C510 C 0.23036 0.73314 0.91361 0.0
C511 C 0.22454 0.74173 0.9561 0.0
C512 C 0.19941 0.72884 0.9743 0.0
C513 C 0.18096 0.70652 0.95184 0.0
C514 C 0.25683 0.74665 0.89254 0.0
C515 C 0.19249 0.73743 0.01946 0.0
C516 C 0.2825 0.77418 0.03486 0.0
C517 C 0.29157 0.79984 0.02425 0.0
C518 C 0.25957 0.75511 0.01553 0.0
C519 C 0.24562 0.76192 0.98435 0.0
C520 C 0.25378 0.7879 0.97619 0.0
C521 C 0.2767 0.80664 0.99653 0.0
C522 C 0.25125 0.72761 0.02587 0.0
C523 C 0.2394 0.79588 0.94324 0.0
H524 H 0.21649 0.70331 0.86126 0.0
H525 H 0.16208 0.69583 0.96724 0.0
H526 H 0.26408 0.7674 0.89005 0.0
H527 H 0.26996 0.74391 0.91604 0.0
H528 H 0.25741 0.73938 0.85655 0.0
H529 H 0.17153 0.72831 0.0241 0.0
H530 H 0.20037 0.73231 0.05042 0.0
H531 H 0.20086 0.75839 0.01979 0.0
H532 H 0.29387 0.76892 0.05669 0.0
H533 H 0.28372 0.82651 0.98825 0.0
H534 H 0.25349 0.71854 0.99335 0.0
H535 H 0.23084 0.71699 0.03602 0.0
H536 H 0.26258 0.72564 0.05487 0.0
H537 H 0.24283 0.79249 0.90588 0.0
H538 H 0.24555 0.81637 0.94725 0.0
H539 H 0.2186 0.78444 0.9498 0.0
C540 C 0.56709 0.14083 0.68604 0.0
C541 C 0.59294 0.15588 0.67458 0.0
C542 C 0.55829 0.14078 0.73234 0.0
C543 C 0.57567 0.15676 0.76755 0.0
C544 C 0.60165 0.17269 0.75556 0.0
C545 C 0.61004 0.17175 0.70941 0.0
C546 C 0.53057 0.12306 0.74394 0.0
C547 C 0.62062 0.19055 0.79161 0.0
C548 C 0.54692 0.1701 0.87649 0.0
C549 C 0.54824 0.15388 0.91042 0.0
C550 C 0.55644 0.17179 0.83023 0.0
C551 C 0.56676 0.15625 0.81721 0.0
C552 C 0.56815 0.13985 0.85145 0.0
C553 C 0.55923 0.13916 0.89789 0.0
C554 C 0.55533 0.19009 0.79525 0.0
C555 C 0.57844 0.12253 0.8387 0.0
H556 H 0.55388 0.12837 0.65924 0.0
H557 H 0.63003 0.18351 0.70051 0.0
H558 H 0.52892 0.10966 0.77245 0.0
H559 H 0.52179 0.13404 0.7576 0.0
H560 H 0.51953 0.11186 0.71255 0.0
H561 H 0.63972 0.20296 0.77572 0.0
H562 H 0.61375 0.20276 0.80749 0.0
H563 H 0.6226 0.17946 0.82099 0.0
H564 H 0.53854 0.18161 0.88623 0.0
H565 H 0.56005 0.12644 0.92398 0.0
H566 H 0.54265 0.17941 0.76516 0.0
H567 H 0.57454 0.20283 0.78022 0.0
H568 H 0.5482 0.20196 0.81183 0.0
H569 H 0.56707 0.10969 0.80924 0.0
H570 H 0.578 0.11073 0.86931 0.0
H571 H 0.59836 0.13391 0.82592 0.0
C572 C 0.40984 0.59507 0.84594 0.0
C573 C 0.43428 0.59921 0.83594 0.0
C574 C 0.3989 0.58683 0.8913 0.0
C575 C 0.41263 0.58231 0.92706 0.0
C576 C 0.43725 0.58637 0.91693 0.0
C577 C 0.44782 0.59492 0.87167 0.0
C578 C 0.37274 0.583 0.90101 0.0
C579 C 0.45241 0.58146 0.95379 0.0
C580 C 0.39889 0.58073 0.05934 0.0
C581 C 0.38561 0.5545 0.06841 0.0
C582 C 0.4066 0.59009 0.01293 0.0
C583 C 0.40128 0.5728 0.97494 0.0
C584 C 0.38711 0.54629 0.98374 0.0
C585 C 0.37929 0.53748 0.0303 0.0
C586 C 0.4213 0.61849 0.00486 0.0
C587 C 0.38134 0.52721 0.9444 0.0
H588 H 0.39936 0.59849 0.81848 0.0
H589 H 0.46669 0.59801 0.86412 0.0
H590 H 0.35948 0.56289 0.91079 0.0
H591 H 0.37352 0.59489 0.93167 0.0
H592 H 0.36483 0.58795 0.86981 0.0
H593 H 0.47121 0.58537 0.94007 0.0
H594 H 0.45558 0.59356 0.98551 0.0
H595 H 0.44158 0.56134 0.9657 0.0
H596 H 0.40367 0.59397 0.08864 0.0
H597 H 0.36904 0.51717 0.0371 0.0
H598 H 0.41302 0.62371 0.97471 0.0
H599 H 0.44128 0.6245 0.99531 0.0
H600 H 0.42143 0.62927 0.0369 0.0
H601 H 0.37232 0.53124 0.91387 0.0
H602 H 0.36854 0.50733 0.9564 0.0
H603 H 0.39935 0.52881 0.93133 0.0
C604 C 0.85542 0.46481 0.04495 0.0
C605 C 0.83859 0.4499 0.00889 0.0
C606 C 0.85439 0.4547 0.0903 0.0
C607 C 0.83569 0.42918 0.10021 0.0
C608 C 0.81822 0.41419 0.06426 0.0
C609 C 0.82007 0.42465 0.01877 0.0
C610 C 0.87372 0.47117 0.12725 0.0
C611 C 0.79771 0.38708 0.0738 0.0
C612 C 0.8509 0.3971 0.2006 0.0
C613 C 0.83845 0.40072 0.2393 0.0
C614 C 0.84972 0.40582 0.15499 0.0
C615 C 0.83532 0.41803 0.14763 0.0
C616 C 0.82197 0.42096 0.18626 0.0
C617 C 0.82393 0.41252 0.23182 0.0
C618 C 0.86465 0.40276 0.11503 0.0
C619 C 0.80602 0.43344 0.17962 0.0
H620 H 0.86987 0.48431 0.03742 0.0
H621 H 0.80693 0.41314 0.99103 0.0
H622 H 0.86392 0.47266 0.15938 0.0
H623 H 0.88508 0.46233 0.13839 0.0
H624 H 0.88695 0.49067 0.1139 0.0
H625 H 0.7847 0.37846 0.04299 0.0
H626 H 0.80651 0.37532 0.0821 0.0
H627 H 0.78631 0.38633 0.1053 0.0
H628 H 0.86223 0.38807 0.20622 0.0
H629 H 0.81414 0.4152 0.2616 0.0
H630 H 0.8793 0.42178 0.10187 0.0
H631 H 0.85188 0.39256 0.08472 0.0
H632 H 0.87429 0.39215 0.12631 0.0
H633 H 0.81845 0.45376 0.17006 0.0
H634 H 0.79516 0.43237 0.21223 0.0
H635 H 0.79241 0.42427 0.14987 0.0
C636 C 0.4264 0.85937 0.40122 0.0
C637 C 0.4388 0.84589 0.41306 0.0
C638 C 0.41756 0.85871 0.35476 0.0
C639 C 0.42055 0.84361 0.31973 0.0
C640 C 0.43233 0.8293 0.332 0.0
C641 C 0.44168 0.83093 0.37835 0.0
C642 C 0.40565 0.87472 0.34287 0.0
C643 C 0.43519 0.81239 0.2961 0.0
C644 C 0.37771 0.82739 0.21131 0.0
C645 C 0.39449 0.84452 0.17741 0.0
C646 C 0.38615 0.82623 0.25726 0.0
C647 C 0.41178 0.84324 0.27006 0.0
C648 C 0.42883 0.86048 0.23577 0.0
C649 C 0.42006 0.86062 0.18957 0.0
C650 C 0.36758 0.80701 0.29226 0.0
C651 C 0.45612 0.87937 0.24831 0.0
H652 H 0.42435 0.87112 0.42791 0.0
H653 H 0.45116 0.82038 0.38754 0.0
H654 H 0.41666 0.88834 0.31406 0.0
H655 H 0.38598 0.86246 0.32952 0.0
H656 H 0.40496 0.8856 0.37405 0.0
H657 H 0.44334 0.80129 0.3121 0.0
H658 H 0.41639 0.79894 0.28034 0.0
H659 H 0.44777 0.82408 0.26661 0.0
H660 H 0.35795 0.81481 0.2018 0.0
H661 H 0.43299 0.87403 0.16348 0.0
H662 H 0.36437 0.81697 0.32221 0.0
H663 H 0.37557 0.79562 0.3075 0.0
H664 H 0.34891 0.79386 0.27563 0.0
H665 H 0.4566 0.89192 0.27749 0.0
H666 H 0.46696 0.89142 0.21752 0.0
H667 H 0.46591 0.86926 0.26143 0.0
C668 C 0.59778 0.46044 0.53702 0.0
C669 C 0.5956 0.44509 0.57605 0.0
C670 C 0.58855 0.4498 0.49209 0.0
C671 C 0.57737 0.4232 0.4857 0.0
C672 C 0.57594 0.40768 0.52461 0.0
C673 C 0.58479 0.41879 0.56957 0.0
C674 C 0.58998 0.46697 0.45183 0.0
C675 C 0.5647 0.37933 0.51889 0.0
C676 C 0.52982 0.39461 0.38465 0.0
C677 C 0.54508 0.39415 0.34764 0.0
C678 C 0.54 0.40355 0.43001 0.0
C679 C 0.56593 0.41165 0.43891 0.0
C680 C 0.58119 0.41026 0.40215 0.0
C681 C 0.57065 0.40184 0.35669 0.0
C682 C 0.52322 0.40527 0.46787 0.0
C683 C 0.60874 0.41815 0.41059 0.0
H684 H 0.60602 0.48077 0.54192 0.0
H685 H 0.58323 0.4069 0.59963 0.0
H686 H 0.6004 0.465 0.42122 0.0
H687 H 0.57048 0.46127 0.43938 0.0
H688 H 0.59962 0.48731 0.4625 0.0
H689 H 0.56688 0.37028 0.55153 0.0
H690 H 0.54413 0.37035 0.51043 0.0
H691 H 0.57397 0.37529 0.48874 0.0
H692 H 0.51007 0.3888 0.37772 0.0
H693 H 0.58245 0.40132 0.32819 0.0
H694 H 0.53096 0.42544 0.47841 0.0
H695 H 0.52307 0.39467 0.50012 0.0
H696 H 0.50329 0.39757 0.45559 0.0
H697 H 0.61992 0.43892 0.41741 0.0
H698 H 0.61731 0.4137 0.37975 0.0
H699 H 0.61049 0.40843 0.44259 0.0
C700 C 0.1329 0.53831 0.54418 0.0
C701 C 0.15132 0.55225 0.50952 0.0
C702 C 0.13413 0.5484 0.5896 0.0
C703 C 0.1546 0.57284 0.60107 0.0
C704 C 0.17356 0.58685 0.56649 0.0
C705 C 0.17153 0.57649 0.52084 0.0
C706 C 0.11323 0.53305 0.62505 0.0
C707 C 0.1959 0.61276 0.57771 0.0
C708 C 0.14224 0.60698 0.70165 0.0
C709 C 0.15239 0.60081 0.74089 0.0
C710 C 0.14342 0.59854 0.65577 0.0
C711 C 0.15545 0.58394 0.64876 0.0
C712 C 0.1666 0.57846 0.68797 0.0
C713 C 0.16472 0.58676 0.73372 0.0
C714 C 0.13091 0.60443 0.61512 0.0
C715 C 0.17997 0.56332 0.68176 0.0
H716 H 0.11716 0.5196 0.5355 0.0
H717 H 0.18589 0.58723 0.49419 0.0
H718 H 0.12142 0.52965 0.65761 0.0
H719 H 0.10373 0.54384 0.63585 0.0
H720 H 0.09861 0.51437 0.61047 0.0
H721 H 0.20963 0.62067 0.54769 0.0
H722 H 0.18908 0.6262 0.58616 0.0
H723 H 0.20605 0.61162 0.60962 0.0
H724 H 0.13264 0.61779 0.70699 0.0
H725 H 0.17273 0.5821 0.76391 0.0
H726 H 0.11499 0.58646 0.60078 0.0
H727 H 0.14471 0.61385 0.58572 0.0
H728 H 0.12331 0.61693 0.62614 0.0
H729 H 0.16599 0.54355 0.67114 0.0
H730 H 0.18959 0.56264 0.71489 0.0
H731 H 0.19434 0.57166 0.6529 0.0
C732 C 0.46979 0.0511 0.0731 0.0
C733 C 0.46425 0.066 0.04275 0.0
C734 C 0.45418 0.02464 0.07457 0.0
C735 C 0.43271 0.01273 0.04431 0.0
C736 C 0.42659 0.0277 0.01444 0.0
C737 C 0.44239 0.0543 0.01428 0.0
C738 C 0.4612 0.00939 0.10738 0.0
C739 C 0.40401 0.01558 0.98131 0.0
C740 C 0.41608 0.94578 0.01204 0.0
C741 C 0.39595 0.93122 0.04333 0.0
C742 C 0.42726 0.97227 0.01025 0.0
C743 C 0.41834 0.98455 0.04107 0.0
C744 C 0.39746 0.9699 0.07171 0.0
C745 C 0.38635 0.94328 0.07225 0.0
C746 C 0.44929 0.98717 0.97666 0.0
C747 C 0.38764 0.98241 0.10538 0.0
H748 H 0.48651 0.06015 0.09566 0.0
H749 H 0.43807 0.06583 0.99089 0.0
H750 H 0.44452 -0.00387 0.12919 0.0
H751 H 0.46695 -0.00229 0.08603 0.0
H752 H 0.47712 0.0217 0.13161 0.0
H753 H 0.40046 0.0299 0.96371 0.0
H754 H 0.40741 0.00469 0.95339 0.0
H755 H 0.38661 0.00191 1.00096 0.0
H756 H 0.42333 0.93647 0.98913 0.0
H757 H 0.37072 0.93201 0.09636 0.0
H758 H 0.46703 -0.00146 0.99739 0.0
H759 H 0.44605 0.00068 0.95538 0.0
H760 H 0.45229 0.97462 0.95192 0.0
H761 H 0.4022 0.99306 0.13302 0.0
H762 H 0.36973 0.96833 0.1233 0.0
H763 H 0.3842 -0.00366 0.08609 0.0
C764 C 0.48135 0.4359 0.23224 0.0
C765 C 0.47055 0.41067 0.2167 0.0
C766 C 0.46729 0.44849 0.23153 0.0
C767 C 0.44206 0.4357 0.21377 0.0
C768 C 0.43104 0.41017 0.19819 0.0
C769 C 0.44535 0.39784 0.20038 0.0
C770 C 0.4795 0.47556 0.24937 0.0
C771 C 0.40439 0.39613 0.17812 0.0
C772 C 0.39906 0.46227 0.24534 0.0
C773 C 0.40237 0.47766 0.20575 0.0
C774 C 0.41171 0.44829 0.24831 0.0
C775 C 0.42754 0.44936 0.2103 0.0
C776 C 0.43023 0.46421 0.16953 0.0
C777 C 0.41782 0.47843 0.168 0.0
C778 C 0.4088 0.43305 0.29272 0.0
C779 C 0.44654 0.46539 0.12787 0.0
H780 H 0.5008 0.44577 0.24514 0.0
H781 H 0.43705 0.37837 0.18806 0.0
H782 H 0.48125 0.48844 0.2198 0.0
H783 H 0.46734 0.47716 0.2771 0.0
H784 H 0.49874 0.48226 0.26454 0.0
H785 H 0.39849 0.37622 0.16814 0.0
H786 H 0.3906 0.39581 0.20444 0.0
H787 H 0.40325 0.4062 0.14609 0.0
H788 H 0.38723 0.46181 0.2747 0.0
H789 H 0.42028 0.49024 0.13725 0.0
H790 H 0.42758 0.44056 0.31032 0.0
H791 H 0.40201 0.4129 0.28343 0.0
H792 H 0.39525 0.4337 0.31854 0.0
H793 H 0.46674 0.47433 0.13911 0.0
H794 H 0.44526 0.47648 0.09762 0.0
H795 H 0.4407 0.4459 0.11531 0.0
C796 C 0.05018 0.45718 0.39759 0.0
C797 C 0.06413 0.47786 0.36711 0.0
C798 C 0.02347 0.4441 0.39726 0.0
C799 C 0.01054 0.45155 0.36482 0.0
C800 C 0.0246 0.47191 0.3329 0.0
C801 C 0.05127 0.48505 0.33488 0.0
C802 C 0.00909 0.42286 0.43256 0.0
C803 C 0.01148 0.48001 0.29709 0.0
C804 C 0.94085 0.40478 0.3397 0.0
C805 C 0.92882 0.41502 0.36705 0.0
C806 C 0.96751 0.41662 0.33819 0.0
C807 C 0.98232 0.43879 0.36565 0.0
C808 C 0.9702 0.44898 0.3938 0.0
C809 C 0.94357 0.43713 0.39368 0.0
C810 C 0.97983 0.40559 0.30691 0.0
C811 C 0.98534 0.4723 0.4243 0.0
H812 H 0.06016 0.45171 0.42269 0.0
H813 H 0.06209 0.50094 0.31103 0.0
H814 H -0.0024 0.4278 0.45636 0.0
H815 H -0.00434 0.40509 0.41368 0.0
H816 H 0.022 0.4191 0.45477 0.0
H817 H 0.02519 0.49499 0.27259 0.0
H818 H -0.00223 0.46341 0.27567 0.0
H819 H 0.00046 0.48745 0.31585 0.0
H820 H 0.92942 0.38774 0.31892 0.0
H821 H 0.93426 0.44494 0.41516 0.0
H822 H 0.99165 0.40025 0.32879 0.0
H823 H 0.99272 0.4201 0.28089 0.0
H824 H 0.9656 0.38851 0.28713 0.0
H825 H -0.00231 0.46912 0.44912 0.0
H826 H 0.97293 0.47726 0.4454 0.0
H827 H -0.00201 0.48881 0.40159 0.0
C828 C 0.54445 0.94585 0.51777 0.0
C829 C 0.5217 0.93439 0.54384 0.0
C830 C 0.56025 0.97244 0.51739 0.0
C831 C 0.55319 0.98768 0.54427 0.0
C832 C 0.5307 0.97606 0.572 0.0
C833 C 0.51514 0.94958 0.57113 0.0
C834 C 0.58395 0.98424 0.48697 0.0
C835 C 0.52264 0.99162 0.60156 0.0
C836 C 0.59912 0.05708 0.5731 0.0
C837 C 0.59078 0.06921 0.54148 0.0
C838 C 0.58773 0.03043 0.57335 0.0
C839 C 0.56794 0.01584 0.54066 0.0
C840 C 0.56041 0.02818 0.50713 0.0
C841 C 0.57176 0.0547 0.50827 0.0
C842 C 0.596 0.01786 0.60998 0.0
C843 C 0.53963 0.01334 0.47125 0.0
H844 H 0.54956 0.93409 0.49674 0.0
H845 H 0.4977 0.94075 0.59181 0.0
H846 H 0.58178 0.99526 0.45766 0.0
H847 H 0.6007 -0.00224 0.50825 0.0
H848 H 0.58783 0.96974 0.47123 0.0
H849 H 0.50575 0.97954 0.62406 0.0
H850 H 0.53848 0.00489 0.62495 0.0
H851 H 0.51793 0.00331 0.57787 0.0
H852 H 0.61387 0.06832 0.59874 0.0
H853 H 0.56553 0.06409 0.48331 0.0
H854 H 0.59998 0.00375 0.59283 0.0
H855 H 0.58036 0.00739 0.63594 0.0
H856 H 0.61324 0.03187 0.62968 0.0
H857 H 0.5434 -0.00043 0.45212 0.0
H858 H 0.53783 0.0259 0.44469 0.0
H859 H 0.52111 0.00225 0.48989 0.0
C860 C 0.59011 0.54376 0.66931 0.0
C861 C 0.57962 0.52127 0.69602 0.0
C862 C 0.57774 0.55802 0.66632 0.0
C863 C 0.5547 0.54981 0.69154 0.0
C864 C 0.54413 0.52716 0.71874 0.0
C865 C 0.55659 0.513 0.72021 0.0
C866 C 0.58924 0.58179 0.63614 0.0
C867 C 0.51982 0.51803 0.7468 0.0
C868 C 0.53409 0.59744 0.72402 0.0
C869 C 0.51404 0.59086 0.69206 0.0
C870 C 0.54781 0.58448 0.72375 0.0
C871 C 0.54163 0.56493 0.69 0.0
C872 C 0.52202 0.55889 0.65647 0.0
C873 C 0.50824 0.57176 0.65828 0.0
C874 C 0.56827 0.59109 0.76065 0.0
C875 C 0.51526 0.53851 0.61935 0.0
H876 H 0.60786 0.55008 0.65038 0.0
H877 H 0.54854 0.49568 0.74114 0.0
H878 H 0.57524 0.58038 0.60915 0.0
H879 H 0.59392 0.59858 0.65865 0.0
H880 H 0.60682 0.58512 0.61757 0.0
H881 H 0.5144 0.50026 0.76687 0.0
H882 H 0.52205 0.53294 0.77237 0.0
H883 H 0.50397 0.51449 0.72252 0.0
H884 H 0.5385 0.61215 0.7503 0.0
H885 H 0.49284 0.56681 0.6333 0.0
H886 H 0.58655 0.59593 0.74315 0.0
H887 H 0.56295 0.57435 0.78381 0.0
H888 H 0.5713 0.60734 0.78338 0.0
H889 H 0.53257 0.54204 0.59955 0.0
H890 H 0.50097 0.53758 0.59352 0.0
H891 H 0.50743 0.51968 0.63689 0.0
C892 C 0.04666 0.56439 0.89407 0.0
C893 C 0.06146 0.58661 0.86772 0.0
C894 C 0.02007 0.55278 0.89477 0.0
C895 C 0.00802 0.56332 0.86742 0.0
C896 C 0.02288 0.58564 0.84029 0.0
C897 C 0.04953 0.59726 0.8413 0.0
C898 C 0.00489 0.52932 0.92497 0.0
C899 C 0.01062 0.597 0.80978 0.0
C900 C 0.93916 0.51702 0.83695 0.0
C901 C 0.92627 0.52393 0.8697 0.0
C902 C 0.96581 0.53037 0.83459 0.0
C903 C 0.97982 0.55059 0.86673 0.0
C904 C 0.96686 0.55774 0.89973 0.0
C905 C 0.94015 0.5445 0.90036 0.0
C906 C 0.97895 0.5226 0.79815 0.0
C907 C 0.98121 0.57879 0.93533 0.0
H908 H 0.05591 0.5563 0.9149 0.0
H909 H 0.06103 0.61442 0.82079 0.0
H910 H 0.9925 0.53237 0.94999 0.0
H911 H 0.99227 0.51292 0.90204 0.0
H912 H 0.01726 0.52425 0.94583 0.0
H913 H 0.02488 0.61427 0.79044 0.0
H914 H -0.00224 0.58276 0.78341 0.0
H915 H -0.00122 0.60213 0.83212 0.0
H916 H 0.92837 0.50125 0.81289 0.0
H917 H 0.93011 0.54974 0.92581 0.0
H918 H 0.98997 0.51501 0.81636 0.0
H919 H 0.99266 0.53939 0.77709 0.0
H920 H 0.96526 0.50783 0.77337 0.0
H921 H 0.99269 0.57372 0.95883 0.0
H922 H 0.96828 0.58241 0.95782 0.0
H923 H -0.00536 0.59667 0.91671 0.0
loop_
_geom_bond_atom_site_label_1
_geom_bond_atom_site_label_2
_geom_bond_distance
_geom_bond_site_symmetry_2
_ccdc_geom_bond_type
In0 O1 2.294 1_554 S
In0 O2 2.326 1_554 S
In0 O6 2.266 . S
In0 O7 2.326 . S
In0 O8 2.266 . S
In0 O9 2.326 . S
In0 O11 2.294 . S
In0 O12 2.326 . S
O1 In0 2.294 1_556 S
O1 C10 1.240 . S
O2 In0 2.326 1_556 S
O2 C10 1.252 . S
C3 O6 1.252 . S
C3 O7 1.260 . S
C4 O11 1.240 . S
C4 O12 1.252 . S
C5 O8 1.252 . S
C5 O9 1.260 . S
O6 In0 2.266 . S
O6 C3 1.252 . S
O7 In0 2.326 . S
O7 C3 1.260 . S
O8 In0 2.266 . S
O8 C5 1.252 . S
O9 In0 2.326 . S
O9 C5 1.260 . S
C10 O1 1.240 . S
C10 O2 1.252 . S
O11 In0 2.294 . S
O11 C4 1.240 . S
O12 In0 2.326 . S
O12 C4 1.252 . S
In13 O14 2.294 . S
In13 O15 2.326 . S
In13 O19 2.266 . S
In13 O20 2.326 . S
In13 O21 2.266 . S
In13 O22 2.326 . S
In13 O24 2.294 . S
In13 O25 2.326 . S
O14 In13 2.294 . S
O14 C23 1.240 . S
O15 In13 2.326 . S
O15 C23 1.252 . S
C16 O19 1.252 . S
C16 O20 1.260 . S
C17 O24 1.240 . S
C17 O25 1.252 . S
C18 O21 1.252 . S
C18 O22 1.260 . S
O19 In13 2.266 . S
O19 C16 1.252 . S
O20 In13 2.326 . S
O20 C16 1.260 . S
O21 In13 2.266 . S
O21 C18 1.252 . S
O22 In13 2.326 . S
O22 C18 1.260 . S
C23 O14 1.240 . S
C23 O15 1.252 . S
O24 In13 2.294 . S
O24 C17 1.240 . S
O25 In13 2.326 . S
O25 C17 1.252 . S
In26 O27 2.294 . S
In26 O28 2.326 . S
In26 O32 2.266 . S
In26 O33 2.326 . S
In26 O34 2.266 . S
In26 O35 2.326 . S
In26 O37 2.294 . S
In26 O38 2.326 . S
O27 In26 2.294 . S
O27 C36 1.240 . S
O28 In26 2.326 . S
O28 C36 1.252 . S
C29 O32 1.252 . S
C29 O33 1.260 . S
C30 O37 1.240 . S
C30 O38 1.252 . S
C31 O34 1.252 . S
C31 O35 1.260 . S
O32 In26 2.266 . S
O32 C29 1.252 . S
O33 In26 2.326 . S
O33 C29 1.260 . S
O34 In26 2.266 . S
O34 C31 1.252 . S
O35 In26 2.326 . S
O35 C31 1.260 . S
C36 O27 1.240 . S
C36 O28 1.252 . S
O37 In26 2.294 . S
O37 C30 1.240 . S
O38 In26 2.326 . S
O38 C30 1.252 . S
In39 O40 2.294 . S
In39 O41 2.326 . S
In39 O45 2.266 . S
In39 O46 2.326 . S
In39 O47 2.266 . S
In39 O48 2.326 . S
In39 O50 2.294 . S
In39 O51 2.326 . S
O40 In39 2.294 . S
O40 C49 1.240 . S
O41 In39 2.326 . S
O41 C49 1.252 . S
C42 O45 1.252 . S
C42 O46 1.260 . S
C43 O50 1.240 . S
C43 O51 1.252 . S
C44 O47 1.252 . S
C44 O48 1.260 . S
O45 In39 2.266 . S
O45 C42 1.252 . S
O46 In39 2.326 . S
O46 C42 1.260 . S
O47 In39 2.266 . S
O47 C44 1.252 . S
O48 In39 2.326 . S
O48 C44 1.260 . S
C49 O40 1.240 . S
C49 O41 1.252 . S
O50 In39 2.294 . S
O50 C43 1.240 . S
O51 In39 2.326 . S
O51 C43 1.252 . S
In52 O53 2.294 . S
In52 O54 2.326 . S
In52 O58 2.266 . S
In52 O59 2.326 . S
In52 O60 2.266 . S
In52 O61 2.326 . S
In52 O63 2.294 . S
In52 O64 2.326 . S
O53 In52 2.294 . S
O53 C62 1.240 . S
O54 In52 2.326 . S
O54 C62 1.252 . S
C55 O58 1.252 . S
C55 O59 1.260 . S
C56 O63 1.240 . S
C56 O64 1.252 . S
C57 O60 1.252 . S
C57 O61 1.260 . S
O58 In52 2.266 . S
O58 C55 1.252 . S
O59 In52 2.326 . S
O59 C55 1.260 . S
O60 In52 2.266 . S
O60 C57 1.252 . S
O61 In52 2.326 . S
O61 C57 1.260 . S
C62 O53 1.240 . S
C62 O54 1.252 . S
O63 In52 2.294 . S
O63 C56 1.240 . S
O64 In52 2.326 . S
O64 C56 1.252 . S
In65 O66 2.294 . S
In65 O67 2.326 . S
In65 O71 2.266 . S
In65 O72 2.326 . S
In65 O73 2.266 . S
In65 O74 2.326 . S
In65 O76 2.294 . S
In65 O77 2.326 . S
O66 In65 2.294 . S
O66 C75 1.240 . S
O67 In65 2.326 . S
O67 C75 1.252 . S
C68 O71 1.252 . S
C68 O72 1.260 . S
C69 O76 1.240 . S
C69 O77 1.252 . S
C70 O73 1.252 . S
C70 O74 1.260 . S
O71 In65 2.266 . S
O71 C68 1.252 . S
O72 In65 2.326 . S
O72 C68 1.260 . S
O73 In65 2.266 . S
O73 C70 1.252 . S
O74 In65 2.326 . S
O74 C70 1.260 . S
C75 O66 1.240 . S
C75 O67 1.252 . S
O76 In65 2.294 . S
O76 C69 1.240 . S
O77 In65 2.326 . S
O77 C69 1.252 . S
In78 O79 2.294 . S
In78 O80 2.326 . S
In78 O84 2.266 . S
In78 O85 2.326 . S
In78 O86 2.266 . S
In78 O87 2.326 . S
In78 O89 2.294 . S
In78 O90 2.326 . S
O79 In78 2.294 . S
O79 C88 1.240 . S
O80 In78 2.326 . S
O80 C88 1.252 . S
C81 O84 1.252 . S
C81 O85 1.260 . S
C82 O89 1.240 . S
C82 O90 1.252 . S
C83 O86 1.252 . S
C83 O87 1.260 . S
O84 In78 2.266 . S
O84 C81 1.252 . S
O85 In78 2.326 . S
O85 C81 1.260 . S
O86 In78 2.266 . S
O86 C83 1.252 . S
O87 In78 2.326 . S
O87 C83 1.260 . S
C88 O79 1.240 . S
C88 O80 1.252 . S
O89 In78 2.294 . S
O89 C82 1.240 . S
O90 In78 2.326 . S
O90 C82 1.252 . S
In91 O92 2.294 . S
In91 O93 2.326 . S
In91 O97 2.266 . S
In91 O98 2.326 . S
In91 O99 2.266 1_554 S
In91 O100 2.326 1_554 S
In91 O102 2.294 . S
In91 O103 2.326 . S
O92 In91 2.294 . S
O92 C101 1.240 . S
O93 In91 2.326 . S
O93 C101 1.252 . S
C94 O97 1.252 . S
C94 O98 1.260 . S
C95 O102 1.240 . S
C95 O103 1.252 . S
C96 O99 1.252 . S
C96 O100 1.260 . S
O97 In91 2.266 . S
O97 C94 1.252 . S
O98 In91 2.326 . S
O98 C94 1.260 . S
O99 In91 2.266 1_556 S
O99 C96 1.252 . S
O100 In91 2.326 1_556 S
O100 C96 1.260 . S
C101 O92 1.240 . S
C101 O93 1.252 . S
O102 In91 2.294 . S
O102 C95 1.240 . S
O103 In91 2.326 . S
O103 C95 1.252 . S
In104 O105 2.294 . S
In104 O106 2.326 . S
In104 O110 2.266 . S
In104 O111 2.326 . S
In104 O112 2.266 . S
In104 O113 2.326 . S
In104 O115 2.294 . S
In104 O116 2.326 . S
O105 In104 2.294 . S
O105 C114 1.240 . S
O106 In104 2.326 . S
O106 C114 1.252 . S
C107 O110 1.252 . S
C107 O111 1.260 . S
C108 O115 1.240 . S
C108 O116 1.252 . S
C109 O112 1.252 . S
C109 O113 1.260 . S
O110 In104 2.266 . S
O110 C107 1.252 . S
O111 In104 2.326 . S
O111 C107 1.260 . S
O112 In104 2.266 . S
O112 C109 1.252 . S
O113 In104 2.326 . S
O113 C109 1.260 . S
C114 O105 1.240 . S
C114 O106 1.252 . S
O115 In104 2.294 . S
O115 C108 1.240 . S
O116 In104 2.326 . S
O116 C108 1.252 . S
In117 O118 2.294 . S
In117 O119 2.326 . S
In117 O123 2.266 . S
In117 O124 2.326 . S
In117 O125 2.266 . S
In117 O126 2.326 . S
In117 O128 2.294 . S
In117 O129 2.326 . S
O118 In117 2.294 . S
O118 C127 1.240 . S
O119 In117 2.326 . S
O119 C127 1.252 . S
C120 O123 1.252 . S
C120 O124 1.260 . S
C121 O128 1.240 . S
C121 O129 1.252 . S
C122 O125 1.252 . S
C122 O126 1.260 . S
O123 In117 2.266 . S
O123 C120 1.252 . S
O124 In117 2.326 . S
O124 C120 1.260 . S
O125 In117 2.266 . S
O125 C122 1.252 . S
O126 In117 2.326 . S
O126 C122 1.260 . S
C127 O118 1.240 . S
C127 O119 1.252 . S
O128 In117 2.294 . S
O128 C121 1.240 . S
O129 In117 2.326 . S
O129 C121 1.252 . S
In130 O131 2.294 . S
In130 O132 2.326 . S
In130 O136 2.266 . S
In130 O137 2.326 . S
In130 O138 2.266 . S
In130 O139 2.326 . S
In130 O141 2.294 . S
In130 O142 2.326 . S
O131 In130 2.294 . S
O131 C140 1.240 . S
O132 In130 2.326 . S
O132 C140 1.252 . S
C133 O136 1.252 . S
C133 O137 1.260 . S
C134 O141 1.240 . S
C134 O142 1.252 . S
C135 O138 1.252 . S
C135 O139 1.260 . S
O136 In130 2.266 . S
O136 C133 1.252 . S
O137 In130 2.326 . S
O137 C133 1.260 . S
O138 In130 2.266 . S
O138 C135 1.252 . S
O139 In130 2.326 . S
O139 C135 1.260 . S
C140 O131 1.240 . S
C140 O132 1.252 . S
O141 In130 2.294 . S
O141 C134 1.240 . S
O142 In130 2.326 . S
O142 C134 1.252 . S
In143 O144 2.294 . S
In143 O145 2.326 . S
In143 O149 2.266 . S
In143 O150 2.326 . S
In143 O151 2.266 . S
In143 O152 2.326 . S
In143 O154 2.294 . S
In143 O155 2.326 . S
O144 In143 2.294 . S
O144 C153 1.240 . S
O145 In143 2.326 . S
O145 C153 1.252 . S
C146 O149 1.252 . S
C146 O150 1.260 . S
C147 O154 1.240 . S
C147 O155 1.252 . S
C148 O151 1.252 . S
C148 O152 1.260 . S
O149 In143 2.266 . S
O149 C146 1.252 . S
O150 In143 2.326 . S
O150 C146 1.260 . S
O151 In143 2.266 . S
O151 C148 1.252 . S
O152 In143 2.326 . S
O152 C148 1.260 . S
C153 O144 1.240 . S
C153 O145 1.252 . S
O154 In143 2.294 . S
O154 C147 1.240 . S
O155 In143 2.326 . S
O155 C147 1.252 . S
C156 C157 1.391 . S
C156 C158 1.394 . S
C156 H172 0.931 . S
C157 C156 1.391 . S
C157 C161 1.376 . S
C158 C156 1.394 . S
C158 C159 1.369 . S
C158 C162 1.531 . S
C159 C158 1.369 . S
C159 C160 1.410 . S
C159 C167 1.503 . S
C160 C159 1.410 . S
C160 C161 1.392 . S
C160 C163 1.511 . S
C161 C157 1.376 . S
C161 C160 1.392 . S
C161 H173 0.929 . S
C162 C158 1.531 . S
C162 H174 0.960 . S
C162 H175 0.962 . S
C162 H176 0.960 . S
C163 C160 1.511 . S
C163 H177 0.961 . S
C163 H178 0.961 . S
C163 H179 0.961 . S
C164 C165 1.370 . S
C164 C166 1.363 . S
C164 H180 0.931 . S
C165 C164 1.370 . S
C165 C169 1.408 . S
C166 C164 1.363 . S
C166 C167 1.370 . S
C166 C170 1.524 . S
C167 C159 1.503 . S
C167 C166 1.370 . S
C167 C168 1.403 . S
C168 C167 1.403 . S
C168 C169 1.404 . S
C168 C171 1.539 . S
C169 C165 1.408 . S
C169 C168 1.404 . S
C169 H181 0.930 . S
C170 C166 1.524 . S
C170 H182 0.956 . S
C170 H183 0.961 . S
C170 H184 0.961 . S
C171 C168 1.539 . S
C171 H185 0.958 . S
C171 H186 0.961 . S
C171 H187 0.960 . S
H172 C156 0.931 . S
H173 C161 0.929 . S
H174 C162 0.960 . S
H175 C162 0.962 . S
H176 C162 0.960 . S
H177 C163 0.961 . S
H178 C163 0.961 . S
H179 C163 0.961 . S
H180 C164 0.931 . S
H181 C169 0.930 . S
H182 C170 0.956 . S
H183 C170 0.961 . S
H184 C170 0.961 . S
H185 C171 0.958 . S
H186 C171 0.961 . S
H187 C171 0.960 . S
C188 C189 1.391 . S
C188 C190 1.394 . S
C188 H204 0.931 . S
C189 C188 1.391 . S
C189 C193 1.376 . S
C190 C188 1.394 . S
C190 C191 1.369 . S
C190 C194 1.531 . S
C191 C190 1.369 . S
C191 C192 1.410 . S
C191 C199 1.503 . S
C192 C191 1.410 . S
C192 C193 1.392 . S
C192 C195 1.511 . S
C193 C189 1.376 . S
C193 C192 1.392 . S
C193 H205 0.929 . S
C194 C190 1.531 . S
C194 H206 0.960 . S
C194 H207 0.962 . S
C194 H208 0.960 . S
C195 C192 1.511 . S
C195 H209 0.961 . S
C195 H210 0.961 . S
C195 H211 0.961 . S
C196 C197 1.370 . S
C196 C198 1.363 . S
C196 H212 0.931 . S
C197 C196 1.370 . S
C197 C201 1.408 . S
C198 C196 1.363 . S
C198 C199 1.370 . S
C198 C202 1.524 . S
C199 C191 1.503 . S
C199 C198 1.370 . S
C199 C200 1.403 . S
C200 C199 1.403 . S
C200 C201 1.404 . S
C200 C203 1.539 . S
C201 C197 1.408 . S
C201 C200 1.404 . S
C201 H213 0.930 . S
C202 C198 1.524 . S
C202 H214 0.956 . S
C202 H215 0.961 . S
C202 H216 0.961 . S
C203 C200 1.539 . S
C203 H217 0.958 . S
C203 H218 0.961 . S
C203 H219 0.960 . S
H204 C188 0.931 . S
H205 C193 0.929 . S
H206 C194 0.960 . S
H207 C194 0.962 . S
H208 C194 0.960 . S
H209 C195 0.961 . S
H210 C195 0.961 . S
H211 C195 0.961 . S
H212 C196 0.931 . S
H213 C201 0.930 . S
H214 C202 0.956 . S
H215 C202 0.961 . S
H216 C202 0.961 . S
H217 C203 0.958 . S
H218 C203 0.961 . S
H219 C203 0.960 . S
C220 C221 1.391 . S
C220 C222 1.394 . S
C220 H236 0.931 . S
C221 C220 1.391 . S
C221 C225 1.376 . S
C222 C220 1.394 . S
C222 C223 1.369 . S
C222 C226 1.531 . S
C223 C222 1.369 . S
C223 C224 1.410 . S
C223 C231 1.503 . S
C224 C223 1.410 . S
C224 C225 1.392 . S
C224 C227 1.511 . S
C225 C221 1.376 . S
C225 C224 1.392 . S
C225 H237 0.929 . S
C226 C222 1.531 . S
C226 H238 0.960 . S
C226 H239 0.962 . S
C226 H240 0.960 . S
C227 C224 1.511 . S
C227 H241 0.961 . S
C227 H242 0.961 . S
C227 H243 0.961 . S
C228 C229 1.370 . S
C228 C230 1.363 . S
C228 H244 0.931 . S
C229 C228 1.370 . S
C229 C233 1.408 . S
C230 C228 1.363 . S
C230 C231 1.370 . S
C230 C234 1.524 . S
C231 C223 1.503 . S
C231 C230 1.370 . S
C231 C232 1.403 . S
C232 C231 1.403 . S
C232 C233 1.404 . S
C232 C235 1.539 . S
C233 C229 1.408 . S
C233 C232 1.404 . S
C233 H245 0.930 . S
C234 C230 1.524 . S
C234 H246 0.956 . S
C234 H247 0.961 . S
C234 H248 0.961 . S
C235 C232 1.539 . S
C235 H249 0.958 . S
C235 H250 0.961 . S
C235 H251 0.960 . S
H236 C220 0.931 . S
H237 C225 0.929 . S
H238 C226 0.960 . S
H239 C226 0.962 . S
H240 C226 0.960 . S
H241 C227 0.961 . S
H242 C227 0.961 . S
H243 C227 0.961 . S
H244 C228 0.931 . S
H245 C233 0.930 . S
H246 C234 0.956 . S
H247 C234 0.961 . S
H248 C234 0.961 . S
H249 C235 0.958 . S
H250 C235 0.961 . S
H251 C235 0.960 . S
C252 C253 1.391 . S
C252 C254 1.394 . S
C252 H268 0.931 . S
C253 C252 1.391 . S
C253 C257 1.376 . S
C254 C252 1.394 . S
C254 C255 1.369 . S
C254 C258 1.531 . S
C255 C254 1.369 . S
C255 C256 1.410 . S
C255 C263 1.503 . S
C256 C255 1.410 . S
C256 C257 1.392 . S
C256 C259 1.511 . S
C257 C253 1.376 . S
C257 C256 1.392 . S
C257 H269 0.929 . S
C258 C254 1.531 . S
C258 H270 0.960 . S
C258 H271 0.962 . S
C258 H272 0.960 . S
C259 C256 1.511 . S
C259 H273 0.961 . S
C259 H274 0.961 . S
C259 H275 0.961 . S
C260 C261 1.370 . S
C260 C262 1.363 . S
C260 H276 0.931 . S
C261 C260 1.370 . S
C261 C265 1.408 . S
C262 C260 1.363 . S
C262 C263 1.370 . S
C262 C266 1.524 . S
C263 C255 1.503 . S
C263 C262 1.370 . S
C263 C264 1.403 . S
C264 C263 1.403 . S
C264 C265 1.404 . S
C264 C267 1.539 . S
C265 C261 1.408 . S
C265 C264 1.404 . S
C265 H277 0.930 . S
C266 C262 1.524 . S
C266 H278 0.956 . S
C266 H279 0.961 . S
C266 H280 0.961 . S
C267 C264 1.539 . S
C267 H281 0.958 . S
C267 H282 0.961 . S
C267 H283 0.960 . S
H268 C252 0.931 . S
H269 C257 0.929 . S
H270 C258 0.960 . S
H271 C258 0.962 . S
H272 C258 0.960 . S
H273 C259 0.961 . S
H274 C259 0.961 . S
H275 C259 0.961 . S
H276 C260 0.931 . S
H277 C265 0.930 . S
H278 C266 0.956 . S
H279 C266 0.961 . S
H280 C266 0.961 . S
H281 C267 0.958 . S
H282 C267 0.961 . S
H283 C267 0.960 . S
C284 C285 1.391 . S
C284 C286 1.394 1_554 S
C284 H300 0.931 . S
C285 C284 1.391 . S
C285 C289 1.376 . S
C286 C284 1.394 1_556 S
C286 C287 1.369 . S
C286 C290 1.531 . S
C287 C286 1.369 . S
C287 C288 1.410 1_556 S
C287 C295 1.503 . S
C288 C287 1.410 1_554 S
C288 C289 1.392 . S
C288 C291 1.511 . S
C289 C285 1.376 . S
C289 C288 1.392 . S
C289 H301 0.929 . S
C290 C286 1.531 . S
C290 H302 0.960 . S
C290 H303 0.962 . S
C290 H304 0.960 . S
C291 C288 1.511 . S
C291 H305 0.961 . S
C291 H306 0.961 1_554 S
C291 H307 0.961 . S
C292 C293 1.370 . S
C292 C294 1.363 . S
C292 H308 0.931 . S
C293 C292 1.370 . S
C293 C297 1.408 . S
C294 C292 1.363 . S
C294 C295 1.370 . S
C294 C298 1.524 . S
C295 C287 1.503 . S
C295 C294 1.370 . S
C295 C296 1.403 . S
C296 C295 1.403 . S
C296 C297 1.404 . S
C296 C299 1.539 . S
C297 C293 1.408 . S
C297 C296 1.404 . S
C297 H309 0.930 . S
C298 C294 1.524 . S
C298 H310 0.956 . S
C298 H311 0.961 . S
C298 H312 0.961 . S
C299 C296 1.539 . S
C299 H313 0.958 . S
C299 H314 0.961 . S
C299 H315 0.960 . S
H300 C284 0.931 . S
H301 C289 0.929 . S
H302 C290 0.960 . S
H303 C290 0.962 . S
H304 C290 0.960 . S
H305 C291 0.961 . S
H306 C291 0.961 1_556 S
H307 C291 0.961 . S
H308 C292 0.931 . S
H309 C297 0.930 . S
H310 C298 0.956 . S
H311 C298 0.961 . S
H312 C298 0.961 . S
H313 C299 0.958 . S
H314 C299 0.961 . S
H315 C299 0.960 . S
C316 C317 1.391 . S
C316 C318 1.394 . S
C316 H332 0.931 . S
C317 C316 1.391 . S
C317 C321 1.376 . S
C318 C316 1.394 . S
C318 C319 1.369 . S
C318 C322 1.531 . S
C319 C318 1.369 . S
C319 C320 1.410 . S
C319 C327 1.503 . S
C320 C319 1.410 . S
C320 C321 1.392 . S
C320 C323 1.511 . S
C321 C317 1.376 . S
C321 C320 1.392 . S
C321 H333 0.929 . S
C322 C318 1.531 . S
C322 H334 0.960 . S
C322 H335 0.962 . S
C322 H336 0.960 . S
C323 C320 1.511 . S
C323 H337 0.961 . S
C323 H338 0.961 . S
C323 H339 0.961 . S
C324 C325 1.370 . S
C324 C326 1.363 . S
C324 H340 0.931 . S
C325 C324 1.370 . S
C325 C329 1.408 . S
C326 C324 1.363 . S
C326 C327 1.370 . S
C326 C330 1.524 . S
C327 C319 1.503 . S
C327 C326 1.370 . S
C327 C328 1.403 . S
C328 C327 1.403 . S
C328 C329 1.404 . S
C328 C331 1.539 . S
C329 C325 1.408 . S
C329 C328 1.404 . S
C329 H341 0.930 . S
C330 C326 1.524 . S
C330 H342 0.956 . S
C330 H343 0.961 . S
C330 H344 0.961 . S
C331 C328 1.539 . S
C331 H345 0.958 . S
C331 H346 0.961 . S
C331 H347 0.960 . S
H332 C316 0.931 . S
H333 C321 0.929 . S
H334 C322 0.960 . S
H335 C322 0.962 . S
H336 C322 0.960 . S
H337 C323 0.961 . S
H338 C323 0.961 . S
H339 C323 0.961 . S
H340 C324 0.931 . S
H341 C329 0.930 . S
H342 C330 0.956 . S
H343 C330 0.961 . S
H344 C330 0.961 . S
H345 C331 0.958 . S
H346 C331 0.961 . S
H347 C331 0.960 . S
C348 C349 1.391 . S
C348 C350 1.394 . S
C348 H364 0.931 . S
C349 C348 1.391 . S
C349 C353 1.376 . S
C350 C348 1.394 . S
C350 C351 1.369 . S
C350 C354 1.531 . S
C351 C350 1.369 . S
C351 C352 1.410 . S
C351 C359 1.503 . S
C352 C351 1.410 . S
C352 C353 1.392 . S
C352 C355 1.511 . S
C353 C349 1.376 . S
C353 C352 1.392 . S
C353 H365 0.929 . S
C354 C350 1.531 . S
C354 H366 0.960 . S
C354 H367 0.962 . S
C354 H368 0.960 . S
C355 C352 1.511 . S
C355 H369 0.961 . S
C355 H370 0.961 . S
C355 H371 0.961 . S
C356 C357 1.370 . S
C356 C358 1.363 . S
C356 H372 0.931 . S
C357 C356 1.370 . S
C357 C361 1.408 . S
C358 C356 1.363 . S
C358 C359 1.370 . S
C358 C362 1.524 . S
C359 C351 1.503 . S
C359 C358 1.370 . S
C359 C360 1.403 . S
C360 C359 1.403 . S
C360 C361 1.404 . S
C360 C363 1.539 . S
C361 C357 1.408 . S
C361 C360 1.404 . S
C361 H373 0.930 . S
C362 C358 1.524 . S
C362 H374 0.956 . S
C362 H375 0.961 . S
C362 H376 0.961 . S
C363 C360 1.539 . S
C363 H377 0.958 . S
C363 H378 0.961 . S
C363 H379 0.960 . S
H364 C348 0.931 . S
H365 C353 0.929 . S
H366 C354 0.960 . S
H367 C354 0.962 . S
H368 C354 0.960 . S
H369 C355 0.961 . S
H370 C355 0.961 . S
H371 C355 0.961 . S
H372 C356 0.931 . S
H373 C361 0.930 . S
H374 C362 0.956 . S
H375 C362 0.961 . S
H376 C362 0.961 . S
H377 C363 0.958 . S
H378 C363 0.961 . S
H379 C363 0.960 . S
C380 C381 1.391 . S
C380 C382 1.394 . S
C380 H396 0.931 . S
C381 C380 1.391 . S
C381 C385 1.376 . S
C382 C380 1.394 . S
C382 C383 1.369 . S
C382 C386 1.531 . S
C383 C382 1.369 . S
C383 C384 1.410 . S
C383 C391 1.503 . S
C384 C383 1.410 . S
C384 C385 1.392 . S
C384 C387 1.511 . S
C385 C381 1.376 . S
C385 C384 1.392 . S
C385 H397 0.929 . S
C386 C382 1.531 . S
C386 H398 0.960 . S
C386 H399 0.962 . S
C386 H400 0.960 . S
C387 C384 1.511 . S
C387 H401 0.961 . S
C387 H402 0.961 . S
C387 H403 0.961 . S
C388 C389 1.370 . S
C388 C390 1.363 . S
C388 H404 0.931 . S
C389 C388 1.370 . S
C389 C393 1.408 . S
C390 C388 1.363 . S
C390 C391 1.370 . S
C390 C394 1.524 . S
C391 C383 1.503 . S
C391 C390 1.370 . S
C391 C392 1.403 . S
C392 C391 1.403 . S
C392 C393 1.404 . S
C392 C395 1.539 . S
C393 C389 1.408 . S
C393 C392 1.404 . S
C393 H405 0.930 . S
C394 C390 1.524 . S
C394 H406 0.956 . S
C394 H407 0.961 . S
C394 H408 0.961 . S
C395 C392 1.539 . S
C395 H409 0.958 . S
C395 H410 0.961 . S
C395 H411 0.960 . S
H396 C380 0.931 . S
H397 C385 0.929 . S
H398 C386 0.960 . S
H399 C386 0.962 . S
H400 C386 0.960 . S
H401 C387 0.961 . S
H402 C387 0.961 . S
H403 C387 0.961 . S
H404 C388 0.931 . S
H405 C393 0.930 . S
H406 C394 0.956 . S
H407 C394 0.961 . S
H408 C394 0.961 . S
H409 C395 0.958 . S
H410 C395 0.961 . S
H411 C395 0.960 . S
C412 C413 1.391 . S
C412 C414 1.394 . S
C412 H428 0.931 . S
C413 C412 1.391 . S
C413 C417 1.376 . S
C414 C412 1.394 . S
C414 C415 1.369 . S
C414 C418 1.531 . S
C415 C414 1.369 . S
C415 C416 1.410 . S
C415 C423 1.503 . S
C416 C415 1.410 . S
C416 C417 1.392 . S
C416 C419 1.511 . S
C417 C413 1.376 . S
C417 C416 1.392 . S
C417 H429 0.929 . S
C418 C414 1.531 . S
C418 H430 0.960 . S
C418 H431 0.962 . S
C418 H432 0.960 . S
C419 C416 1.511 . S
C419 H433 0.961 . S
C419 H434 0.961 . S
C419 H435 0.961 . S
C420 C421 1.370 . S
C420 C422 1.363 . S
C420 H436 0.931 . S
C421 C420 1.370 . S
C421 C425 1.408 . S
C422 C420 1.363 . S
C422 C423 1.370 . S
C422 C426 1.524 . S
C423 C415 1.503 . S
C423 C422 1.370 . S
C423 C424 1.403 . S
C424 C423 1.403 . S
C424 C425 1.404 . S
C424 C427 1.539 . S
C425 C421 1.408 . S
C425 C424 1.404 . S
C425 H437 0.930 . S
C426 C422 1.524 . S
C426 H438 0.956 . S
C426 H439 0.961 . S
C426 H440 0.961 . S
C427 C424 1.539 . S
C427 H441 0.958 . S
C427 H442 0.961 . S
C427 H443 0.960 . S
H428 C412 0.931 . S
H429 C417 0.929 . S
H430 C418 0.960 . S
H431 C418 0.962 . S
H432 C418 0.960 . S
H433 C419 0.961 . S
H434 C419 0.961 . S
H435 C419 0.961 . S
H436 C420 0.931 . S
H437 C425 0.930 . S
H438 C426 0.956 . S
H439 C426 0.961 . S
H440 C426 0.961 . S
H441 C427 0.958 . S
H442 C427 0.961 . S
H443 C427 0.960 . S
C444 C445 1.391 . S
C444 C446 1.394 . S
C444 H460 0.931 . S
C445 C444 1.391 . S
C445 C449 1.376 . S
C446 C444 1.394 . S
C446 C447 1.369 . S
C446 C450 1.531 . S
C447 C446 1.369 . S
C447 C448 1.410 . S
C447 C455 1.503 . S
C448 C447 1.410 . S
C448 C449 1.392 . S
C448 C451 1.511 . S
C449 C445 1.376 . S
C449 C448 1.392 . S
C449 H461 0.929 . S
C450 C446 1.531 . S
C450 H462 0.960 . S
C450 H463 0.962 . S
C450 H464 0.960 . S
C451 C448 1.511 . S
C451 H465 0.961 . S
C451 H466 0.961 . S
C451 H467 0.961 . S
C452 C453 1.370 . S
C452 C454 1.363 . S
C452 H468 0.931 . S
C453 C452 1.370 . S
C453 C457 1.408 . S
C454 C452 1.363 . S
C454 C455 1.370 . S
C454 C458 1.524 . S
C455 C447 1.503 . S
C455 C454 1.370 . S
C455 C456 1.403 . S
C456 C455 1.403 . S
C456 C457 1.404 . S
C456 C459 1.539 . S
C457 C453 1.408 . S
C457 C456 1.404 . S
C457 H469 0.930 . S
C458 C454 1.524 . S
C458 H470 0.956 . S
C458 H471 0.961 . S
C458 H472 0.961 . S
C459 C456 1.539 . S
C459 H473 0.958 . S
C459 H474 0.961 . S
C459 H475 0.960 . S
H460 C444 0.931 . S
H461 C449 0.929 . S
H462 C450 0.960 . S
H463 C450 0.962 . S
H464 C450 0.960 . S
H465 C451 0.961 . S
H466 C451 0.961 . S
H467 C451 0.961 . S
H468 C452 0.931 . S
H469 C457 0.930 . S
H470 C458 0.956 . S
H471 C458 0.961 . S
H472 C458 0.961 . S
H473 C459 0.958 . S
H474 C459 0.961 . S
H475 C459 0.960 . S
C476 C477 1.391 . S
C476 C478 1.394 . S
C476 H492 0.931 . S
C477 C476 1.391 . S
C477 C481 1.376 . S
C478 C476 1.394 . S
C478 C479 1.369 . S
C478 C482 1.531 . S
C479 C478 1.369 . S
C479 C480 1.410 . S
C479 C487 1.503 . S
C480 C479 1.410 . S
C480 C481 1.392 . S
C480 C483 1.511 . S
C481 C477 1.376 . S
C481 C480 1.392 . S
C481 H493 0.929 . S
C482 C478 1.531 . S
C482 H494 0.960 . S
C482 H495 0.962 . S
C482 H496 0.960 . S
C483 C480 1.511 . S
C483 H497 0.961 . S
C483 H498 0.961 . S
C483 H499 0.961 . S
C484 C485 1.370 . S
C484 C486 1.363 . S
C484 H500 0.931 . S
C485 C484 1.370 . S
C485 C489 1.408 . S
C486 C484 1.363 . S
C486 C487 1.370 . S
C486 C490 1.524 . S
C487 C479 1.503 . S
C487 C486 1.370 . S
C487 C488 1.403 . S
C488 C487 1.403 . S
C488 C489 1.404 . S
C488 C491 1.539 . S
C489 C485 1.408 . S
C489 C488 1.404 . S
C489 H501 0.930 . S
C490 C486 1.524 . S
C490 H502 0.956 . S
C490 H503 0.961 . S
C490 H504 0.961 . S
C491 C488 1.539 . S
C491 H505 0.958 . S
C491 H506 0.961 . S
C491 H507 0.960 . S
H492 C476 0.931 . S
H493 C481 0.929 . S
H494 C482 0.960 . S
H495 C482 0.962 . S
H496 C482 0.960 . S
H497 C483 0.961 . S
H498 C483 0.961 . S
H499 C483 0.961 . S
H500 C484 0.931 . S
H501 C489 0.930 . S
H502 C490 0.956 . S
H503 C490 0.961 . S
H504 C490 0.961 . S
H505 C491 0.958 . S
H506 C491 0.961 . S
H507 C491 0.960 . S
C508 C509 1.391 . S
C508 C510 1.394 . S
C508 H524 0.931 . S
C509 C508 1.391 . S
C509 C513 1.376 . S
C510 C508 1.394 . S
C510 C511 1.369 . S
C510 C514 1.531 . S
C511 C510 1.369 . S
C511 C512 1.410 . S
C511 C519 1.503 . S
C512 C511 1.410 . S
C512 C513 1.392 . S
C512 C515 1.511 1_556 S
C513 C509 1.376 . S
C513 C512 1.392 . S
C513 H525 0.929 . S
C514 C510 1.531 . S
C514 H526 0.960 . S
C514 H527 0.962 . S
C514 H528 0.960 . S
C515 C512 1.511 1_554 S
C515 H529 0.961 . S
C515 H530 0.961 . S
C515 H531 0.961 . S
C516 C517 1.370 . S
C516 C518 1.363 . S
C516 H532 0.931 1_556 S
C517 C516 1.370 . S
C517 C521 1.408 . S
C518 C516 1.363 . S
C518 C519 1.370 . S
C518 C522 1.524 . S
C519 C511 1.503 . S
C519 C518 1.370 . S
C519 C520 1.403 . S
C520 C519 1.403 . S
C520 C521 1.404 . S
C520 C523 1.539 . S
C521 C517 1.408 . S
C521 C520 1.404 . S
C521 H533 0.930 . S
C522 C518 1.524 . S
C522 H534 0.956 . S
C522 H535 0.961 . S
C522 H536 0.961 . S
C523 C520 1.539 . S
C523 H537 0.958 . S
C523 H538 0.961 . S
C523 H539 0.960 . S
H524 C508 0.931 . S
H525 C513 0.929 . S
H526 C514 0.960 . S
H527 C514 0.962 . S
H528 C514 0.960 . S
H529 C515 0.961 . S
H530 C515 0.961 . S
H531 C515 0.961 . S
H532 C516 0.931 1_554 S
H533 C521 0.930 . S
H534 C522 0.956 . S
H535 C522 0.961 . S
H536 C522 0.961 . S
H537 C523 0.958 . S
H538 C523 0.961 . S
H539 C523 0.960 . S
C540 C541 1.391 . S
C540 C542 1.394 . S
C540 H556 0.931 . S
C541 C540 1.391 . S
C541 C545 1.376 . S
C542 C540 1.394 . S
C542 C543 1.369 . S
C542 C546 1.531 . S
C543 C542 1.369 . S
C543 C544 1.410 . S
C543 C551 1.503 . S
C544 C543 1.410 . S
C544 C545 1.392 . S
C544 C547 1.511 . S
C545 C541 1.376 . S
C545 C544 1.392 . S
C545 H557 0.929 . S
C546 C542 1.531 . S
C546 H558 0.960 . S
C546 H559 0.962 . S
C546 H560 0.960 . S
C547 C544 1.511 . S
C547 H561 0.961 . S
C547 H562 0.961 . S
C547 H563 0.961 . S
C548 C549 1.370 . S
C548 C550 1.363 . S
C548 H564 0.931 . S
C549 C548 1.370 . S
C549 C553 1.408 . S
C550 C548 1.363 . S
C550 C551 1.370 . S
C550 C554 1.524 . S
C551 C543 1.503 . S
C551 C550 1.370 . S
C551 C552 1.403 . S
C552 C551 1.403 . S
C552 C553 1.404 . S
C552 C555 1.539 . S
C553 C549 1.408 . S
C553 C552 1.404 . S
C553 H565 0.930 . S
C554 C550 1.524 . S
C554 H566 0.956 . S
C554 H567 0.961 . S
C554 H568 0.961 . S
C555 C552 1.539 . S
C555 H569 0.958 . S
C555 H570 0.961 . S
C555 H571 0.960 . S
H556 C540 0.931 . S
H557 C545 0.929 . S
H558 C546 0.960 . S
H559 C546 0.962 . S
H560 C546 0.960 . S
H561 C547 0.961 . S
H562 C547 0.961 . S
H563 C547 0.961 . S
H564 C548 0.931 . S
H565 C553 0.930 . S
H566 C554 0.956 . S
H567 C554 0.961 . S
H568 C554 0.961 . S
H569 C555 0.958 . S
H570 C555 0.961 . S
H571 C555 0.960 . S
C572 C573 1.391 . S
C572 C574 1.394 . S
C572 H588 0.931 . S
C573 C572 1.391 . S
C573 C577 1.376 . S
C574 C572 1.394 . S
C574 C575 1.369 . S
C574 C578 1.531 . S
C575 C574 1.369 . S
C575 C576 1.410 . S
C575 C583 1.503 . S
C576 C575 1.410 . S
C576 C577 1.392 . S
C576 C579 1.511 . S
C577 C573 1.376 . S
C577 C576 1.392 . S
C577 H589 0.929 . S
C578 C574 1.531 . S
C578 H590 0.960 . S
C578 H591 0.962 . S
C578 H592 0.960 . S
C579 C576 1.511 . S
C579 H593 0.961 . S
C579 H594 0.961 . S
C579 H595 0.961 . S
C580 C581 1.370 . S
C580 C582 1.363 . S
C580 H596 0.931 . S
C581 C580 1.370 . S
C581 C585 1.408 . S
C582 C580 1.363 . S
C582 C583 1.370 1_554 S
C582 C586 1.524 1_554 S
C583 C575 1.503 . S
C583 C582 1.370 1_556 S
C583 C584 1.403 1_556 S
C584 C583 1.403 1_554 S
C584 C585 1.404 . S
C584 C587 1.539 1_554 S
C585 C581 1.408 . S
C585 C584 1.404 . S
C585 H597 0.930 . S
C586 C582 1.524 1_556 S
C586 H598 0.956 . S
C586 H599 0.961 . S
C586 H600 0.961 1_556 S
C587 C584 1.539 1_556 S
C587 H601 0.958 . S
C587 H602 0.961 1_556 S
C587 H603 0.960 . S
H588 C572 0.931 . S
H589 C577 0.929 . S
H590 C578 0.960 . S
H591 C578 0.962 . S
H592 C578 0.960 . S
H593 C579 0.961 . S
H594 C579 0.961 . S
H595 C579 0.961 . S
H596 C580 0.931 . S
H597 C585 0.930 . S
H598 C586 0.956 . S
H599 C586 0.961 . S
H600 C586 0.961 1_554 S
H601 C587 0.958 . S
H602 C587 0.961 1_554 S
H603 C587 0.960 . S
C604 C605 1.391 . S
C604 C606 1.394 . S
C604 H620 0.931 . S
C605 C604 1.391 . S
C605 C609 1.376 . S
C606 C604 1.394 . S
C606 C607 1.369 . S
C606 C610 1.531 . S
C607 C606 1.369 . S
C607 C608 1.410 . S
C607 C615 1.503 . S
C608 C607 1.410 . S
C608 C609 1.392 . S
C608 C611 1.511 . S
C609 C605 1.376 . S
C609 C608 1.392 . S
C609 H621 0.929 . S
C610 C606 1.531 . S
C610 H622 0.960 . S
C610 H623 0.962 . S
C610 H624 0.960 . S
C611 C608 1.511 . S
C611 H625 0.961 . S
C611 H626 0.961 . S
C611 H627 0.961 . S
C612 C613 1.370 . S
C612 C614 1.363 . S
C612 H628 0.931 . S
C613 C612 1.370 . S
C613 C617 1.408 . S
C614 C612 1.363 . S
C614 C615 1.370 . S
C614 C618 1.524 . S
C615 C607 1.503 . S
C615 C614 1.370 . S
C615 C616 1.403 . S
C616 C615 1.403 . S
C616 C617 1.404 . S
C616 C619 1.539 . S
C617 C613 1.408 . S
C617 C616 1.404 . S
C617 H629 0.930 . S
C618 C614 1.524 . S
C618 H630 0.956 . S
C618 H631 0.961 . S
C618 H632 0.961 . S
C619 C616 1.539 . S
C619 H633 0.958 . S
C619 H634 0.961 . S
C619 H635 0.960 . S
H620 C604 0.931 . S
H621 C609 0.929 . S
H622 C610 0.960 . S
H623 C610 0.962 . S
H624 C610 0.960 . S
H625 C611 0.961 . S
H626 C611 0.961 . S
H627 C611 0.961 . S
H628 C612 0.931 . S
H629 C617 0.930 . S
H630 C618 0.956 . S
H631 C618 0.961 . S
H632 C618 0.961 . S
H633 C619 0.958 . S
H634 C619 0.961 . S
H635 C619 0.960 . S
C636 C637 1.391 . S
C636 C638 1.394 . S
C636 H652 0.931 . S
C637 C636 1.391 . S
C637 C641 1.376 . S
C638 C636 1.394 . S
C638 C639 1.369 . S
C638 C642 1.531 . S
C639 C638 1.369 . S
C639 C640 1.410 . S
C639 C647 1.503 . S
C640 C639 1.410 . S
C640 C641 1.392 . S
C640 C643 1.511 . S
C641 C637 1.376 . S
C641 C640 1.392 . S
C641 H653 0.929 . S
C642 C638 1.531 . S
C642 H654 0.960 . S
C642 H655 0.962 . S
C642 H656 0.960 . S
C643 C640 1.511 . S
C643 H657 0.961 . S
C643 H658 0.961 . S
C643 H659 0.961 . S
C644 C645 1.370 . S
C644 C646 1.363 . S
C644 H660 0.931 . S
C645 C644 1.370 . S
C645 C649 1.408 . S
C646 C644 1.363 . S
C646 C647 1.370 . S
C646 C650 1.524 . S
C647 C639 1.503 . S
C647 C646 1.370 . S
C647 C648 1.403 . S
C648 C647 1.403 . S
C648 C649 1.404 . S
C648 C651 1.539 . S
C649 C645 1.408 . S
C649 C648 1.404 . S
C649 H661 0.930 . S
C650 C646 1.524 . S
C650 H662 0.956 . S
C650 H663 0.961 . S
C650 H664 0.961 . S
C651 C648 1.539 . S
C651 H665 0.958 . S
C651 H666 0.961 . S
C651 H667 0.960 . S
H652 C636 0.931 . S
H653 C641 0.929 . S
H654 C642 0.960 . S
H655 C642 0.962 . S
H656 C642 0.960 . S
H657 C643 0.961 . S
H658 C643 0.961 . S
H659 C643 0.961 . S
H660 C644 0.931 . S
H661 C649 0.930 . S
H662 C650 0.956 . S
H663 C650 0.961 . S
H664 C650 0.961 . S
H665 C651 0.958 . S
H666 C651 0.961 . S
H667 C651 0.960 . S
C668 C669 1.391 . S
C668 C670 1.394 . S
C668 H684 0.931 . S
C669 C668 1.391 . S
C669 C673 1.376 . S
C670 C668 1.394 . S
C670 C671 1.369 . S
C670 C674 1.531 . S
C671 C670 1.369 . S
C671 C672 1.410 . S
C671 C679 1.503 . S
C672 C671 1.410 . S
C672 C673 1.392 . S
C672 C675 1.511 . S
C673 C669 1.376 . S
C673 C672 1.392 . S
C673 H685 0.929 . S
C674 C670 1.531 . S
C674 H686 0.960 . S
C674 H687 0.962 . S
C674 H688 0.960 . S
C675 C672 1.511 . S
C675 H689 0.961 . S
C675 H690 0.961 . S
C675 H691 0.961 . S
C676 C677 1.370 . S
C676 C678 1.363 . S
C676 H692 0.931 . S
C677 C676 1.370 . S
C677 C681 1.408 . S
C678 C676 1.363 . S
C678 C679 1.370 . S
C678 C682 1.524 . S
C679 C671 1.503 . S
C679 C678 1.370 . S
C679 C680 1.403 . S
C680 C679 1.403 . S
C680 C681 1.404 . S
C680 C683 1.539 . S
C681 C677 1.408 . S
C681 C680 1.404 . S
C681 H693 0.930 . S
C682 C678 1.524 . S
C682 H694 0.956 . S
C682 H695 0.961 . S
C682 H696 0.961 . S
C683 C680 1.539 . S
C683 H697 0.958 . S
C683 H698 0.961 . S
C683 H699 0.960 . S
H684 C668 0.931 . S
H685 C673 0.929 . S
H686 C674 0.960 . S
H687 C674 0.962 . S
H688 C674 0.960 . S
H689 C675 0.961 . S
H690 C675 0.961 . S
H691 C675 0.961 . S
H692 C676 0.931 . S
H693 C681 0.930 . S
H694 C682 0.956 . S
H695 C682 0.961 . S
H696 C682 0.961 . S
H697 C683 0.958 . S
H698 C683 0.961 . S
H699 C683 0.960 . S
C700 C701 1.391 . S
C700 C702 1.394 . S
C700 H716 0.931 . S
C701 C700 1.391 . S
C701 C705 1.376 . S
C702 C700 1.394 . S
C702 C703 1.369 . S
C702 C706 1.531 . S
C703 C702 1.369 . S
C703 C704 1.410 . S
C703 C711 1.503 . S
C704 C703 1.410 . S
C704 C705 1.392 . S
C704 C707 1.511 . S
C705 C701 1.376 . S
C705 C704 1.392 . S
C705 H717 0.929 . S
C706 C702 1.531 . S
C706 H718 0.960 . S
C706 H719 0.962 . S
C706 H720 0.960 . S
C707 C704 1.511 . S
C707 H721 0.961 . S
C707 H722 0.961 . S
C707 H723 0.961 . S
C708 C709 1.370 . S
C708 C710 1.363 . S
C708 H724 0.931 . S
C709 C708 1.370 . S
C709 C713 1.408 . S
C710 C708 1.363 . S
C710 C711 1.370 . S
C710 C714 1.524 . S
C711 C703 1.503 . S
C711 C710 1.370 . S
C711 C712 1.403 . S
C712 C711 1.403 . S
C712 C713 1.404 . S
C712 C715 1.539 . S
C713 C709 1.408 . S
C713 C712 1.404 . S
C713 H725 0.930 . S
C714 C710 1.524 . S
C714 H726 0.956 . S
C714 H727 0.961 . S
C714 H728 0.961 . S
C715 C712 1.539 . S
C715 H729 0.958 . S
C715 H730 0.961 . S
C715 H731 0.960 . S
H716 C700 0.931 . S
H717 C705 0.929 . S
H718 C706 0.960 . S
H719 C706 0.962 . S
H720 C706 0.960 . S
H721 C707 0.961 . S
H722 C707 0.961 . S
H723 C707 0.961 . S
H724 C708 0.931 . S
H725 C713 0.930 . S
H726 C714 0.956 . S
H727 C714 0.961 . S
H728 C714 0.961 . S
H729 C715 0.958 . S
H730 C715 0.961 . S
H731 C715 0.960 . S
C732 C733 1.391 . S
C732 C734 1.394 . S
C732 H748 0.931 . S
C733 C732 1.391 . S
C733 C737 1.365 1_554 S
C734 C732 1.394 . S
C734 C735 1.369 . S
C734 C738 1.531 . S
C735 C734 1.369 . S
C735 C736 1.410 . S
C735 C743 1.503 1_545 S
C736 C735 1.410 . S
C736 C737 1.391 1_554 S
C736 C739 1.511 1_554 S
C737 C733 1.365 1_556 S
C737 C736 1.391 1_556 S
C737 H749 0.941 . S
C738 C734 1.531 . S
C738 H750 0.960 . S
C738 H751 0.962 . S
C738 H752 0.960 . S
C739 C736 1.511 1_556 S
C739 H753 0.961 . S
C739 H754 0.918 1_545 S
C739 H755 0.961 . S
C740 C741 1.370 . S
C740 C742 1.363 . S
C740 H756 0.931 . S
C741 C740 1.370 . S
C741 C745 1.408 . S
C742 C740 1.363 . S
C742 C743 1.370 . S
C742 C746 1.524 . S
C743 C735 1.503 1_565 S
C743 C742 1.370 . S
C743 C744 1.403 . S
C744 C743 1.403 . S
C744 C745 1.404 . S
C744 C747 1.539 . S
C745 C741 1.408 . S
C745 C744 1.404 . S
C745 H757 0.930 . S
C746 C742 1.524 . S
C746 H758 0.956 1_565 S
C746 H759 0.961 1_564 S
C746 H760 0.961 1_554 S
C747 C744 1.539 . S
C747 H761 0.958 . S
C747 H762 0.961 . S
C747 H763 0.960 1_565 S
H748 C732 0.931 . S
H749 C737 0.941 . S
H750 C738 0.960 . S
H751 C738 0.962 . S
H752 C738 0.960 . S
H753 C739 0.961 . S
H754 C739 0.918 1_565 S
H755 C739 0.961 . S
H756 C740 0.931 . S
H757 C745 0.930 . S
H758 C746 0.956 1_545 S
H759 C746 0.961 1_546 S
H760 C746 0.961 1_556 S
H761 C747 0.958 . S
H762 C747 0.961 . S
H763 C747 0.960 1_545 S
C764 C765 1.391 . S
C764 C766 1.394 . S
C764 H780 0.931 . S
C765 C764 1.391 . S
C765 C769 1.376 . S
C766 C764 1.394 . S
C766 C767 1.369 . S
C766 C770 1.531 . S
C767 C766 1.369 . S
C767 C768 1.410 . S
C767 C775 1.503 . S
C768 C767 1.410 . S
C768 C769 1.392 . S
C768 C771 1.511 . S
C769 C765 1.376 . S
C769 C768 1.392 . S
C769 H781 0.929 . S
C770 C766 1.531 . S
C770 H782 0.960 . S
C770 H783 0.962 . S
C770 H784 0.960 . S
C771 C768 1.511 . S
C771 H785 0.961 . S
C771 H786 0.961 . S
C771 H787 0.961 . S
C772 C773 1.370 . S
C772 C774 1.363 . S
C772 H788 0.931 . S
C773 C772 1.370 . S
C773 C777 1.408 . S
C774 C772 1.363 . S
C774 C775 1.370 . S
C774 C778 1.524 . S
C775 C767 1.503 . S
C775 C774 1.370 . S
C775 C776 1.403 . S
C776 C775 1.403 . S
C776 C777 1.404 . S
C776 C779 1.539 . S
C777 C773 1.408 . S
C777 C776 1.404 . S
C777 H789 0.930 . S
C778 C774 1.524 . S
C778 H790 0.956 . S
C778 H791 0.961 . S
C778 H792 0.961 . S
C779 C776 1.539 . S
C779 H793 0.958 . S
C779 H794 0.961 . S
C779 H795 0.960 . S
H780 C764 0.931 . S
H781 C769 0.929 . S
H782 C770 0.960 . S
H783 C770 0.962 . S
H784 C770 0.960 . S
H785 C771 0.961 . S
H786 C771 0.961 . S
H787 C771 0.961 . S
H788 C772 0.931 . S
H789 C777 0.930 . S
H790 C778 0.956 . S
H791 C778 0.961 . S
H792 C778 0.961 . S
H793 C779 0.958 . S
H794 C779 0.961 . S
H795 C779 0.960 . S
C796 C797 1.391 . S
C796 C798 1.394 . S
C796 H812 0.931 . S
C797 C796 1.391 . S
C797 C801 1.376 . S
C798 C796 1.394 . S
C798 C799 1.369 . S
C798 C802 1.531 . S
C799 C798 1.369 . S
C799 C800 1.410 . S
C799 C807 1.503 1_455 S
C800 C799 1.410 . S
C800 C801 1.392 . S
C800 C803 1.511 . S
C801 C797 1.376 . S
C801 C800 1.392 . S
C801 H813 0.929 . S
C802 C798 1.531 . S
C802 H814 0.960 1_455 S
C802 H815 0.962 . S
C802 H816 0.960 . S
C803 C800 1.511 . S
C803 H817 0.961 . S
C803 H818 0.961 1_455 S
C803 H819 0.961 . S
C804 C805 1.370 . S
C804 C806 1.363 . S
C804 H820 0.931 . S
C805 C804 1.370 . S
C805 C809 1.408 . S
C806 C804 1.363 . S
C806 C807 1.370 . S
C806 C810 1.524 . S
C807 C799 1.503 1_655 S
C807 C806 1.370 . S
C807 C808 1.403 . S
C808 C807 1.403 . S
C808 C809 1.404 . S
C808 C811 1.539 . S
C809 C805 1.408 . S
C809 C808 1.404 . S
C809 H821 0.930 . S
C810 C806 1.524 . S
C810 H822 0.956 . S
C810 H823 0.961 1_655 S
C810 H824 0.961 . S
C811 C808 1.539 . S
C811 H825 0.958 . S
C811 H826 0.961 . S
C811 H827 0.960 . S
H812 C796 0.931 . S
H813 C801 0.929 . S
H814 C802 0.960 1_655 S
H815 C802 0.962 . S
H816 C802 0.960 . S
H817 C803 0.961 . S
H818 C803 0.961 1_655 S
H819 C803 0.961 . S
H820 C804 0.931 . S
H821 C809 0.930 . S
H822 C810 0.956 . S
H823 C810 0.961 1_455 S
H824 C810 0.961 . S
H825 C811 0.958 . S
H826 C811 0.961 . S
H827 C811 0.960 . S
C828 C829 1.391 . S
C828 C830 1.394 . S
C828 H844 0.931 . S
C829 C828 1.391 . S
C829 C833 1.376 . S
C830 C828 1.394 . S
C830 C831 1.369 . S
C830 C834 1.531 . S
C831 C830 1.369 . S
C831 C832 1.410 . S
C831 C839 1.503 1_565 S
C832 C831 1.410 . S
C832 C833 1.392 . S
C832 C835 1.511 . S
C833 C829 1.376 . S
C833 C832 1.392 . S
C833 H845 0.929 . S
C834 C830 1.531 . S
C834 H846 0.960 1_565 S
C834 H847 0.962 . S
C834 H848 0.960 . S
C835 C832 1.511 . S
C835 H849 0.961 . S
C835 H850 0.961 1_565 S
C835 H851 0.961 . S
C836 C837 1.370 . S
C836 C838 1.363 . S
C836 H852 0.931 . S
C837 C836 1.370 . S
C837 C841 1.408 . S
C838 C836 1.363 . S
C838 C839 1.370 . S
C838 C842 1.524 . S
C839 C831 1.503 1_545 S
C839 C838 1.370 . S
C839 C840 1.403 . S
C840 C839 1.403 . S
C840 C841 1.404 . S
C840 C843 1.539 . S
C841 C837 1.408 . S
C841 C840 1.404 . S
C841 H853 0.930 . S
C842 C838 1.524 . S
C842 H854 0.956 . S
C842 H855 0.965 . S
C842 H856 0.961 . S
C843 C840 1.539 . S
C843 H857 0.958 . S
C843 H858 0.961 . S
C843 H859 0.960 . S
H844 C828 0.931 . S
H845 C833 0.929 . S
H846 C834 0.960 1_545 S
H847 C834 0.962 . S
H848 C834 0.960 . S
H849 C835 0.961 . S
H850 C835 0.961 1_545 S
H851 C835 0.961 . S
H852 C836 0.931 . S
H853 C841 0.930 . S
H854 C842 0.956 . S
H855 C842 0.965 . S
H856 C842 0.961 . S
H857 C843 0.958 . S
H858 C843 0.961 . S
H859 C843 0.960 . S
C860 C861 1.391 . S
C860 C862 1.394 . S
C860 H876 0.931 . S
C861 C860 1.391 . S
C861 C865 1.376 . S
C862 C860 1.394 . S
C862 C863 1.369 . S
C862 C866 1.531 . S
C863 C862 1.369 . S
C863 C864 1.410 . S
C863 C871 1.503 . S
C864 C863 1.410 . S
C864 C865 1.392 . S
C864 C867 1.511 . S
C865 C861 1.376 . S
C865 C864 1.392 . S
C865 H877 0.929 . S
C866 C862 1.531 . S
C866 H878 0.960 . S
C866 H879 0.962 . S
C866 H880 0.960 . S
C867 C864 1.511 . S
C867 H881 0.961 . S
C867 H882 0.961 . S
C867 H883 0.961 . S
C868 C869 1.370 . S
C868 C870 1.363 . S
C868 H884 0.931 . S
C869 C868 1.370 . S
C869 C873 1.408 . S
C870 C868 1.363 . S
C870 C871 1.370 . S
C870 C874 1.524 . S
C871 C863 1.503 . S
C871 C870 1.370 . S
C871 C872 1.403 . S
C872 C871 1.403 . S
C872 C873 1.404 . S
C872 C875 1.539 . S
C873 C869 1.408 . S
C873 C872 1.404 . S
C873 H885 0.930 . S
C874 C870 1.524 . S
C874 H886 0.956 . S
C874 H887 0.961 . S
C874 H888 0.961 . S
C875 C872 1.539 . S
C875 H889 0.958 . S
C875 H890 0.961 . S
C875 H891 0.960 . S
H876 C860 0.931 . S
H877 C865 0.929 . S
H878 C866 0.960 . S
H879 C866 0.962 . S
H880 C866 0.960 . S
H881 C867 0.961 . S
H882 C867 0.961 . S
H883 C867 0.961 . S
H884 C868 0.931 . S
H885 C873 0.930 . S
H886 C874 0.956 . S
H887 C874 0.961 . S
H888 C874 0.961 . S
H889 C875 0.958 . S
H890 C875 0.961 . S
H891 C875 0.960 . S
C892 C893 1.391 . S
C892 C894 1.394 . S
C892 H908 0.931 . S
C893 C892 1.391 . S
C893 C897 1.376 . S
C894 C892 1.394 . S
C894 C895 1.369 . S
C894 C898 1.531 . S
C895 C894 1.369 . S
C895 C896 1.410 . S
C895 C903 1.503 1_455 S
C896 C895 1.410 . S
C896 C897 1.392 . S
C896 C899 1.511 . S
C897 C893 1.376 . S
C897 C896 1.392 . S
C897 H909 0.929 . S
C898 C894 1.531 . S
C898 H910 0.960 1_455 S
C898 H911 0.962 . S
C898 H912 0.960 . S
C899 C896 1.511 . S
C899 H913 0.961 . S
C899 H914 0.961 1_455 S
C899 H915 0.961 . S
C900 C901 1.370 . S
C900 C902 1.363 . S
C900 H916 0.931 . S
C901 C900 1.370 . S
C901 C905 1.408 . S
C902 C900 1.363 . S
C902 C903 1.370 . S
C902 C906 1.524 . S
C903 C895 1.503 1_655 S
C903 C902 1.370 . S
C903 C904 1.403 . S
C904 C903 1.403 . S
C904 C905 1.404 . S
C904 C907 1.539 . S
C905 C901 1.408 . S
C905 C904 1.404 . S
C905 H917 0.930 . S
C906 C902 1.524 . S
C906 H918 0.956 . S
C906 H919 0.961 . S
C906 H920 0.961 . S
C907 C904 1.539 . S
C907 H921 0.958 . S
C907 H922 0.961 . S
C907 H923 0.941 1_655 S
H908 C892 0.931 . S
H909 C897 0.929 . S
H910 C898 0.960 1_655 S
H911 C898 0.962 . S
H912 C898 0.960 . S
H913 C899 0.961 . S
H914 C899 0.961 1_655 S
H915 C899 0.961 . S
H916 C900 0.931 . S
H917 C905 0.930 . S
H918 C906 0.956 . S
H919 C906 0.961 . S
H920 C906 0.961 . S
H921 C907 0.958 . S
H922 C907 0.961 . S
H923 C907 0.941 1_455 S
C157 C3 1.124 . S
C165 C133 1.134 . S
C189 C16 1.138 . S
C197 C148 1.129 . S
C221 C83 1.124 . S
C229 C29 1.134 . S
C253 C42 1.125 . S
C261 C96 1.134 . S
C285 C109 1.121 . S
C293 C55 1.125 . S
C317 C122 1.134 . S
C325 C68 1.134 1_554 S
C349 C107 1.327 . S
C357 C5 1.344 . S
C381 C18 1.354 . S
C389 C120 1.346 . S
C413 C135 1.327 . S
C421 C31 1.342 . S
C445 C44 1.331 . S
C453 C146 1.349 . S
C477 C57 1.347 . S
C485 C81 1.349 . S
C509 C70 1.351 . S
C517 C94 1.348 1_556 S
C541 C140 1.702 . S
C549 C10 1.709 . S
C573 C147 1.700 . S
C581 C23 1.708 . S
C605 C82 1.709 1_554 S
C613 C36 1.711 . S
C637 C49 1.700 . S
C645 C95 1.708 . S
C669 C62 1.712 . S
C677 C108 1.713 . S
C701 C121 1.707 . S
C709 C75 1.711 . S
C733 C4 1.428 . S
C741 C101 1.430 . S
C765 C114 1.411 . S
C773 C17 1.429 . S
C797 C127 1.416 . S
C805 C30 1.420 . S
C829 C43 1.425 . S
C837 C134 1.420 . S
C861 C56 1.422 . S
C869 C153 1.420 . S
C893 C69 1.418 . S
C901 C88 1.431 . S
