# Generated by pormake.
# Topology dia, (4)-cn, num edge types: 1
# Building blocks:
#     Node 0, Type 0, BuildingBlock: CEKHIL_clean_sbu_0, # of connection points: 4
#     Node 1, Type 0, BuildingBlock: CEKHIL_clean_sbu_0, # of connection points: 4
#     Node 2, Type 0, BuildingBlock: CEKHIL_clean_sbu_0, # of connection points: 4
#     Node 3, Type 0, BuildingBlock: CEKHIL_clean_sbu_0, # of connection points: 4
#     Node 4, Type 0, BuildingBlock: CEKHIL_clean_sbu_0, # of connection points: 4
#     Node 5, Type 0, BuildingBlock: CEKHIL_clean_sbu_0, # of connection points: 4
#     Node 6, Type 0, BuildingBlock: CEKHIL_clean_sbu_0, # of connection points: 4
#     Node 7, Type 0, BuildingBlock: CEKHIL_clean_sbu_0, # of connection points: 4
#     Edge 8, Type (0, 0), BuildingBlock: ZUJKAS_clean_linker_0, # of connection points: 2
#     Edge 9, Type (0, 0), BuildingBlock: ZUJKAS_clean_linker_0, # of connection points: 2
#     Edge 10, Type (0, 0), BuildingBlock: ZUJKAS_clean_linker_0, # of connection points: 2
#     Edge 11, Type (0, 0), BuildingBlock: ZUJKAS_clean_linker_0, # of connection points: 2
#     Edge 12, Type (0, 0), BuildingBlock: ZUJKAS_clean_linker_0, # of connection points: 2
#     Edge 13, Type (0, 0), BuildingBlock: ZUJKAS_clean_linker_0, # of connection points: 2
#     Edge 14, Type (0, 0), BuildingBlock: ZUJKAS_clean_linker_0, # of connection points: 2
#     Edge 15, Type (0, 0), BuildingBlock: ZUJKAS_clean_linker_0, # of connection points: 2
#     Edge 16, Type (0, 0), BuildingBlock: ZUJKAS_clean_linker_0, # of connection points: 2
#     Edge 17, Type (0, 0), BuildingBlock: ZUJKAS_clean_linker_0, # of connection points: 2
#     Edge 18, Type (0, 0), BuildingBlock: ZUJKAS_clean_linker_0, # of connection points: 2
#     Edge 19, Type (0, 0), BuildingBlock: ZUJKAS_clean_linker_0, # of connection points: 2
#     Edge 20, Type (0, 0), BuildingBlock: ZUJKAS_clean_linker_0, # of connection points: 2
#     Edge 21, Type (0, 0), BuildingBlock: ZUJKAS_clean_linker_0, # of connection points: 2
#     Edge 22, Type (0, 0), BuildingBlock: ZUJKAS_clean_linker_0, # of connection points: 2
#     Edge 23, Type (0, 0), BuildingBlock: ZUJKAS_clean_linker_0, # of connection points: 2
# Relax obj value: 0.001
# Max RMSD: 0.019
# Mean RMSD: 0.019
data_MOF--net-dia--node1-CEKHIL_clean_sbu_0--edge1-ZUJKAS_clean_linker_0
_symmetry_space_group_name_H-M    P1
_symmetry_Int_Tables_number       1
_symmetry_cell_setting            triclinic
loop_
_symmetry_equiv_pos_as_xyz
'x, y, z'
_cell_length_a     49.88223
_cell_length_b     49.971951
_cell_length_c     32.403577
_cell_angle_alpha  90.216392
_cell_angle_beta   90.265957
_cell_angle_gamma 91.628249
loop_
_atom_site_label
_atom_site_type_symbol
_atom_site_fract_x
_atom_site_fract_y
_atom_site_fract_z
_atom_type_partial_charge
Co0 Co 0.13139 0.13958 0.632 0.0
O1 O 0.10395 0.16546 0.62403 0.0
O2 O 0.10987 0.14306 0.68176 0.0
C3 C 0.16449 0.16542 0.60448 0.0
O4 O 0.15873 0.1121 0.65185 0.0
Co5 Co 0.16172 0.11639 0.55666 0.0
O6 O 0.18715 0.10477 0.59953 0.0
C7 C 0.10641 0.09714 0.57509 0.0
C8 C 0.09664 0.16106 0.66175 0.0
C9 C 0.18052 0.10232 0.63729 0.0
O10 O 0.10641 0.11043 0.60928 0.0
O11 O 0.12575 0.09826 0.54924 0.0
O12 O 0.15783 0.16853 0.64289 0.0
O13 O 0.14997 0.14834 0.5838 0.0
Co14 Co 0.87121 0.37973 0.86902 0.0
O15 O 0.84517 0.40722 0.875 0.0
O16 O 0.86876 0.40071 0.81856 0.0
C17 C 0.84483 0.34682 0.89589 0.0
O18 O 0.89914 0.3523 0.85133 0.0
Co19 Co 0.89275 0.35055 0.94667 0.0
O20 O 0.90738 0.32564 0.9055 0.0
C21 C 0.91069 0.40624 0.92904 0.0
C22 C 0.85042 0.41417 0.83737 0.0
C23 C 0.9099 0.33148 0.86743 0.0
O24 O 0.89987 0.40494 0.8928 0.0
O25 O 0.90804 0.38755 0.95575 0.0
O26 O 0.84251 0.35313 0.85719 0.0
O27 O 0.86138 0.36162 0.91711 0.0
Co28 Co 0.63174 0.14033 0.1323 0.0
O29 O 0.60452 0.16653 0.12491 0.0
O30 O 0.61058 0.14387 0.18238 0.0
C31 C 0.66503 0.16581 0.10448 0.0
O32 O 0.65886 0.11248 0.15159 0.0
Co33 Co 0.66122 0.11695 0.05624 0.0
O34 O 0.68648 0.10428 0.09858 0.0
C35 C 0.60571 0.09865 0.07513 0.0
C36 C 0.59737 0.16202 0.16268 0.0
C37 C 0.68018 0.10204 0.13651 0.0
O38 O 0.60627 0.11152 0.10971 0.0
O39 O 0.6248 0.09978 0.04887 0.0
O40 O 0.65858 0.16898 0.14297 0.0
O41 O 0.65016 0.14896 0.08393 0.0
Co42 Co 0.87176 0.87912 0.36957 0.0
O43 O 0.84543 0.90607 0.37801 0.0
O44 O 0.86829 0.90122 0.32045 0.0
C45 C 0.84629 0.84528 0.39575 0.0
O46 O 0.89972 0.8524 0.34937 0.0
Co47 Co 0.89494 0.84834 0.44473 0.0
O48 O 0.90745 0.8238 0.40134 0.0
C49 C 0.9131 0.90417 0.42838 0.0
C50 C 0.84998 0.91392 0.34058 0.0
C51 C 0.90989 0.83074 0.3637 0.0
O52 O 0.90059 0.90409 0.39343 0.0
O53 O 0.91163 0.88473 0.45396 0.0
O54 O 0.84308 0.85249 0.35759 0.0
O55 O 0.86306 0.85981 0.41699 0.0
Co56 Co 0.13233 0.6393 0.12836 0.0
O57 O 0.10583 0.66624 0.12127 0.0
O58 O 0.11121 0.64313 0.17847 0.0
C59 C 0.16613 0.66418 0.10082 0.0
O60 O 0.15883 0.61078 0.14742 0.0
Co61 Co 0.16125 0.61552 0.05217 0.0
O62 O 0.18615 0.60204 0.0943 0.0
C63 C 0.10585 0.5974 0.07182 0.0
C64 C 0.09858 0.66179 0.15901 0.0
C65 C 0.17984 0.59983 0.13221 0.0
O66 O 0.10622 0.61111 0.10562 0.0
O67 O 0.12509 0.59767 0.04583 0.0
O68 O 0.15981 0.6672 0.13939 0.0
O69 O 0.1509 0.64779 0.07998 0.0
Co70 Co 0.37116 0.37949 0.372 0.0
O71 O 0.34407 0.40586 0.37841 0.0
O72 O 0.36836 0.40111 0.32222 0.0
C73 C 0.34589 0.3453 0.39757 0.0
O74 O 0.40018 0.35331 0.35417 0.0
Co75 Co 0.39317 0.35076 0.44989 0.0
O76 O 0.40994 0.32733 0.40858 0.0
C77 C 0.40772 0.40742 0.43427 0.0
C78 C 0.34938 0.41361 0.34117 0.0
C79 C 0.41212 0.33322 0.37045 0.0
O80 O 0.39878 0.40534 0.39694 0.0
O81 O 0.40482 0.38878 0.46101 0.0
O82 O 0.34342 0.35204 0.35906 0.0
O83 O 0.36174 0.3605 0.41931 0.0
Co84 Co 0.37227 0.87956 0.87101 0.0
O85 O 0.34501 0.90567 0.87832 0.0
O86 O 0.36897 0.90155 0.82169 0.0
C87 C 0.34736 0.84502 0.89634 0.0
O88 O 0.40133 0.85363 0.85211 0.0
Co89 Co 0.39501 0.84998 0.94767 0.0
O90 O 0.41039 0.82643 0.90534 0.0
C91 C 0.41201 0.90604 0.93113 0.0
C92 C 0.34995 0.91369 0.8411 0.0
C93 C 0.41283 0.83299 0.86754 0.0
O94 O 0.40001 0.90542 0.89577 0.0
O95 O 0.41063 0.88678 0.95702 0.0
O96 O 0.34459 0.85208 0.85802 0.0
O97 O 0.36329 0.8601 0.91818 0.0
Co98 Co 0.63186 0.6396 0.62838 0.0
O99 O 0.606 0.6672 0.6223 0.0
O100 O 0.61086 0.64316 0.6787 0.0
C101 C 0.66628 0.66398 0.60163 0.0
O102 O 0.65764 0.61012 0.64584 0.0
Co103 Co 0.6589 0.61662 0.54992 0.0
O104 O 0.68211 0.59878 0.59051 0.0
C105 C 0.60219 0.60336 0.5675 0.0
C106 C 0.5985 0.66224 0.65976 0.0
C107 C 0.67686 0.59719 0.62893 0.0
O108 O 0.60506 0.6125 0.60457 0.0
O109 O 0.62046 0.60572 0.54002 0.0
O110 O 0.66014 0.66663 0.64035 0.0
O111 O 0.65044 0.64847 0.58036 0.0
H112 H 0.34737 0.32993 0.47775 0.0
H113 H 0.319 0.29612 0.51158 0.0
H114 H 0.28109 0.27639 0.39516 0.0
H115 H 0.30943 0.31054 0.36073 0.0
H116 H 0.25743 0.29807 0.50255 0.0
H117 H 0.30452 0.20292 0.45554 0.0
H118 H 0.3235 0.23423 0.4587 0.0
H119 H 0.30003 0.22859 0.41735 0.0
C120 C 0.33325 0.31822 0.45913 0.0
C121 C 0.33052 0.32295 0.41658 0.0
C122 C 0.31709 0.29892 0.47856 0.0
C123 C 0.29812 0.28383 0.45578 0.0
C124 C 0.29584 0.28781 0.41307 0.0
H125 H 0.17856 0.16437 0.52363 0.0
H126 H 0.21187 0.19281 0.48888 0.0
C127 C 0.31197 0.30729 0.39353 0.0
C128 C 0.27945 0.26542 0.47754 0.0
H129 H 0.26585 0.19944 0.497 0.0
C130 C 0.25919 0.27649 0.50145 0.0
C131 C 0.28194 0.2374 0.4757 0.0
C132 C 0.30369 0.22487 0.45062 0.0
C133 C 0.24098 0.26016 0.52338 0.0
C134 C 0.2437 0.23205 0.52224 0.0
C135 C 0.26398 0.221 0.49812 0.0
C136 C 0.22488 0.21375 0.54434 0.0
C137 C 0.2186 0.27316 0.54657 0.0
C138 C 0.22161 0.21561 0.5873 0.0
C139 C 0.20234 0.1995 0.60729 0.0
C140 C 0.18634 0.18108 0.58463 0.0
C141 C 0.1905 0.17847 0.54194 0.0
C142 C 0.20957 0.19467 0.522 0.0
H143 H 0.21518 0.2938 0.53544 0.0
H144 H 0.19955 0.26126 0.54351 0.0
H145 H 0.22396 0.27447 0.5798 0.0
H146 H 0.2337 0.22977 0.60526 0.0
H147 H 0.19971 0.20176 0.64027 0.0
H148 H 0.71146 0.56011 0.60067 0.0
H149 H 0.74061 0.5315 0.63998 0.0
H150 H 0.71113 0.56469 0.75349 0.0
H151 H 0.68117 0.59343 0.71402 0.0
H152 H 0.7814 0.5459 0.69268 0.0
H153 H 0.70403 0.48456 0.77501 0.0
H154 H 0.6959 0.50568 0.73193 0.0
H155 H 0.70203 0.52011 0.78207 0.0
C156 C 0.71094 0.56141 0.63403 0.0
C157 C 0.69383 0.57923 0.65408 0.0
C158 C 0.72775 0.54494 0.6565 0.0
C159 C 0.72803 0.54569 0.69974 0.0
C160 C 0.71096 0.56335 0.72014 0.0
H161 H 0.81847 0.45034 0.87439 0.0
H162 H 0.79044 0.48358 0.84183 0.0
C163 C 0.6939 0.57987 0.69753 0.0
C164 C 0.74678 0.52829 0.72269 0.0
H165 H 0.74923 0.476 0.79017 0.0
C166 C 0.77436 0.53066 0.71411 0.0
C167 C 0.73768 0.50841 0.75071 0.0
C168 C 0.70829 0.50428 0.76035 0.0
C169 C 0.793 0.51378 0.73263 0.0
C170 C 0.78384 0.49348 0.75995 0.0
C171 C 0.75632 0.49144 0.76912 0.0
C172 C 0.80234 0.47416 0.77945 0.0
C173 C 0.82238 0.51818 0.72315 0.0
C174 C 0.81865 0.45772 0.75537 0.0
C175 C 0.83505 0.4388 0.77405 0.0
C176 C 0.83511 0.43562 0.81714 0.0
C177 C 0.81892 0.45221 0.8411 0.0
C178 C 0.80279 0.47123 0.82251 0.0
H179 H 0.82677 0.53892 0.71237 0.0
H180 H 0.83506 0.5143 0.75062 0.0
H181 H 0.82813 0.50428 0.69813 0.0
H182 H 0.81823 0.45905 0.72204 0.0
H183 H 0.84703 0.42613 0.7547 0.0
H184 H 0.5532 0.10471 0.098 0.0
H185 H 0.51393 0.07838 0.0732 0.0
H186 H 0.56595 0.02784 0.00329 0.0
H187 H 0.60478 0.05441 0.02658 0.0
H188 H 0.52453 0.04324 0.95731 0.0
H189 H 0.4877 0.00504 0.10846 0.0
H190 H 0.49014 0.04082 0.10377 0.0
H191 H 0.52006 0.02161 0.10294 0.0
C192 C 0.55617 0.08778 0.07772 0.0
C193 C 0.58201 0.08162 0.06417 0.0
C194 C 0.53376 0.07275 0.0636 0.0
C195 C 0.537 0.05104 0.0365 0.0
C196 C 0.5629 0.04461 0.02389 0.0
H197 H 0.45338 0.90762 0.98564 0.0
H198 H 0.47996 0.94631 0.00889 0.0
C199 C 0.58511 0.05977 0.03737 0.0
C200 C 0.51382 0.03487 0.02035 0.0
H201 H 0.46449 0.99019 0.04919 0.0
C202 C 0.51118 0.03182 0.97736 0.0
C203 C 0.49641 0.02007 0.0466 0.0
C204 C 0.49873 0.0218 0.093 0.0
C205 C 0.49278 0.01319 0.95993 0.0
C206 C 0.47596 0.99778 0.98624 0.0
C207 C 0.47744 1.00205 0.02911 0.0
C208 C 0.45936 0.97472 0.97075 0.0
C209 C 0.49278 0.009 0.91377 0.0
C210 C 0.43901 0.97771 0.94107 0.0
C211 C 0.42391 0.95534 0.92704 0.0
C212 C 0.42865 0.9298 0.94316 0.0
C213 C 0.44905 0.92702 0.97279 0.0
C214 C 0.46425 0.94917 0.98626 0.0
H215 H 0.51061 0.01865 0.89896 0.0
H216 H 0.49241 0.98733 0.90604 0.0
H217 H 0.4746 0.01785 0.90025 0.0
H218 H 0.43458 0.99731 0.92916 0.0
H219 H 0.40815 0.9581 0.90448 0.0
H220 H 0.93193 0.84159 0.28693 0.0
H221 H 0.96285 0.81356 0.24793 0.0
H222 H 0.95626 0.75274 0.34156 0.0
H223 H 0.92574 0.78019 0.38035 0.0
H224 H 0.00995 0.76871 0.32122 0.0
H225 H 0.94865 0.74252 0.18216 0.0
H226 H 0.95151 0.77739 0.19606 0.0
H227 H 0.93388 0.75441 0.22937 0.0
C228 C 0.93676 0.82208 0.29885 0.0
C229 C 0.92641 0.81333 0.337 0.0
C230 C 0.95442 0.80607 0.27652 0.0
C231 C 0.96185 0.781 0.29183 0.0
C232 C 0.95093 0.77201 0.32919 0.0
H233 H 0.07512 0.65561 0.23538 0.0
H234 H 0.04174 0.68424 0.26728 0.0
C235 C 0.93342 0.78785 0.35137 0.0
C236 C 0.98204 0.76444 0.27063 0.0
H237 H 0.99244 0.72607 0.18497 0.0
C238 C 0.00616 0.75942 0.29136 0.0
C239 C 0.97713 0.75242 0.23166 0.0
C240 C 0.95135 0.75671 0.20843 0.0
C241 C 0.02554 0.74282 0.27421 0.0
C242 C 0.02038 0.73017 0.23566 0.0
C243 C 0.99637 0.73552 0.21465 0.0
C244 C 0.0399 0.71192 0.2161 0.0
C245 C 0.0516 0.73954 0.29726 0.0
C246 C 0.04928 0.7172 0.1761 0.0
C247 C 0.06794 0.70063 0.15763 0.0
C248 C 0.07781 0.67833 0.17868 0.0
C249 C 0.0681 0.67272 0.21846 0.0
C250 C 0.04916 0.68923 0.23684 0.0
H251 H 0.05561 0.75633 0.31922 0.0
H252 H 0.05043 0.72075 0.31537 0.0
H253 H 0.06877 0.73842 0.27571 0.0
H254 H 0.04245 0.73445 0.15931 0.0
H255 H 0.07495 0.70561 0.12694 0.0
H256 H 0.35653 0.93809 0.76546 0.0
H257 H 0.32827 0.97225 0.73455 0.0
H258 H 0.27761 0.9702 0.84202 0.0
H259 H 0.30596 0.9369 0.87333 0.0
H260 H 0.27582 0.96929 0.71355 0.0
H261 H 0.29012 0.04942 0.83083 0.0
H262 H 0.31096 0.02051 0.82908 0.0
H263 H 0.27835 0.01834 0.85262 0.0
C264 C 0.33955 0.94517 0.78264 0.0
C265 C 0.33368 0.93489 0.82201 0.0
C266 C 0.32337 0.96467 0.76494 0.0
C267 C 0.30104 0.9743 0.78626 0.0
C268 C 0.29511 0.96382 0.82539 0.0
H269 H 0.17 0.07933 0.71347 0.0
H270 H 0.19862 0.04849 0.75172 0.0
C271 C 0.31131 0.94456 0.84315 0.0
C272 C 0.28319 0.99426 0.76693 0.0
H273 H 0.25494 0.05523 0.78185 0.0
C274 C 0.27143 0.98813 0.72844 0.0
C275 C 0.27717 0.01884 0.78641 0.0
C276 C 0.29001 0.02732 0.82682 0.0
C277 C 0.25378 0.00567 0.70915 0.0
C278 C 0.24785 0.03023 0.72854 0.0
C279 C 0.25935 0.03633 0.76716 0.0
C280 C 0.23111 0.05041 0.70771 0.0
C281 C 0.2414 0.99768 0.66818 0.0
C282 C 0.24023 0.06237 0.67118 0.0
C283 C 0.2241 0.07989 0.64949 0.0
C284 C 0.19833 0.08605 0.66377 0.0
C285 C 0.18966 0.07503 0.70151 0.0
C286 C 0.20596 0.05735 0.72334 0.0
H287 H 0.24245 0.97579 0.66254 0.0
H288 H 0.2201 1.00348 0.66654 0.0
H289 H 0.25244 0.00815 0.64304 0.0
H290 H 0.25977 0.05778 0.65898 0.0
H291 H 0.23174 0.08824 0.62092 0.0
H292 H 0.94018 0.41317 0.99943 0.0
H293 H 0.9672 0.45187 0.0207 0.0
H294 H 0.94595 0.49289 0.90889 0.0
H295 H 0.91884 0.45358 0.88656 0.0
H296 H 0.99885 0.4975 0.92471 0.0
H297 H 0.9445 0.52252 0.06667 0.0
H298 H 0.95292 0.48789 0.06705 0.0
H299 H 0.93049 0.50002 0.028 0.0
C300 C 0.94095 0.43039 0.97925 0.0
C301 C 0.92713 0.43022 0.94125 0.0
C302 C 0.95629 0.45269 0.99178 0.0
C303 C 0.958 0.47558 0.96701 0.0
C304 C 0.94456 0.47554 0.92878 0.0
H305 H 0.05285 0.60961 0.07791 0.0
H306 H 0.01445 0.58332 0.04976 0.0
C307 C 0.92916 0.45305 0.91602 0.0
C308 C 0.97547 0.49855 0.98037 0.0
H309 H 0.99166 0.53651 0.06516 0.0
C310 C 0.99697 0.50645 0.95508 0.0
C311 C 0.9727 0.51076 0.01956 0.0
C312 C 0.94869 0.50505 0.04662 0.0
C313 C 0.01684 0.52476 0.96913 0.0
C314 C 0.01561 0.53472 0.01009 0.0
C315 C 0.99303 0.52839 0.03418 0.0
C316 C 0.03829 0.55029 0.02914 0.0
C317 C 0.0391 0.5329 0.93996 0.0
C318 C 0.06416 0.53996 0.02857 0.0
C319 C 0.08594 0.55504 0.04388 0.0
C320 C 0.08221 0.58038 0.06138 0.0
C321 C 0.05615 0.59005 0.06465 0.0
C322 C 0.0343 0.57513 0.04839 0.0
H323 H 0.03211 0.53198 0.90737 0.0
H324 H 0.04696 0.55349 0.94659 0.0
H325 H 0.05576 0.51878 0.9431 0.0
H326 H 0.06762 0.52037 0.0156 0.0
H327 H 0.10585 0.54704 0.04153 0.0
H328 H 0.4425 0.29202 0.39694 0.0
H329 H 0.47152 0.26369 0.35712 0.0
H330 H 0.45097 0.30594 0.24615 0.0
H331 H 0.42184 0.3351 0.28627 0.0
H332 H 0.45929 0.2294 0.29351 0.0
H333 H 0.53274 0.30813 0.24261 0.0
H334 H 0.5085 0.31395 0.2826 0.0
H335 H 0.49837 0.31384 0.22932 0.0
C336 C 0.44404 0.29553 0.36407 0.0
C337 C 0.42974 0.31609 0.34496 0.0
C338 C 0.46073 0.27916 0.34128 0.0
C339 C 0.46374 0.28276 0.29868 0.0
C340 C 0.44939 0.30306 0.27916 0.0
H341 H 0.56611 0.19895 0.12583 0.0
H342 H 0.5326 0.22705 0.15751 0.0
C343 C 0.43261 0.31964 0.3021 0.0
C344 C 0.48176 0.26484 0.27537 0.0
H345 H 0.53966 0.26411 0.21937 0.0
C346 C 0.47682 0.23702 0.27718 0.0
C347 C 0.50466 0.27471 0.25405 0.0
C348 C 0.51163 0.30426 0.25218 0.0
C349 C 0.49411 0.21887 0.25846 0.0
C350 C 0.5173 0.22871 0.23787 0.0
C351 C 0.52196 0.25654 0.23531 0.0
C352 C 0.537 0.21055 0.21868 0.0
C353 C 0.48718 0.18932 0.26049 0.0
C354 C 0.55075 0.19178 0.24246 0.0
C355 C 0.56997 0.1755 0.22432 0.0
C356 C 0.57596 0.17784 0.18211 0.0
C357 C 0.56202 0.19654 0.15842 0.0
C358 C 0.54285 0.21272 0.17651 0.0
H359 H 0.46554 0.18557 0.26698 0.0
H360 H 0.49223 0.17909 0.23118 0.0
H361 H 0.49887 0.18022 0.28577 0.0
H362 H 0.54702 0.19007 0.27525 0.0
H363 H 0.58048 0.16147 0.2435 0.0
H364 H 0.85261 0.82601 0.47327 0.0
H365 H 0.82557 0.79142 0.50766 0.0
H366 H 0.77897 0.77892 0.39647 0.0
H367 H 0.8062 0.81362 0.36147 0.0
H368 H 0.76871 0.79515 0.5166 0.0
H369 H 0.79757 0.7021 0.43552 0.0
H370 H 0.81817 0.73243 0.43478 0.0
H371 H 0.78857 0.72963 0.40318 0.0
C372 C 0.83686 0.81569 0.45586 0.0
C373 C 0.83143 0.82257 0.41469 0.0
C374 C 0.82145 0.79593 0.4756 0.0
C375 C 0.80045 0.78256 0.45451 0.0
C376 C 0.7954 0.78879 0.41302 0.0
H377 H 0.67444 0.67053 0.51962 0.0
H378 H 0.70844 0.69871 0.48609 0.0
C379 C 0.81086 0.80864 0.39316 0.0
C380 C 0.78257 0.76375 0.47717 0.0
H381 H 0.76142 0.69839 0.48248 0.0
C382 C 0.76716 0.77395 0.50938 0.0
C383 C 0.78066 0.73621 0.46741 0.0
C384 C 0.79724 0.72428 0.43355 0.0
C385 C 0.74923 0.75744 0.53154 0.0
C386 C 0.74732 0.72977 0.52197 0.0
C387 C 0.76302 0.71955 0.48996 0.0
C388 C 0.72793 0.71145 0.54297 0.0
C389 C 0.73182 0.77006 0.56381 0.0
C390 C 0.72791 0.70873 0.58614 0.0
C391 C 0.70808 0.69297 0.60554 0.0
C392 C 0.68844 0.6792 0.58191 0.0
C393 C 0.68932 0.68094 0.53867 0.0
C394 C 0.70878 0.69701 0.51942 0.0
H395 H 0.73057 0.79204 0.55943 0.0
H396 H 0.71117 0.76116 0.56316 0.0
H397 H 0.74058 0.76665 0.59481 0.0
H398 H 0.74299 0.71907 0.60487 0.0
H399 H 0.70802 0.6917 0.6389 0.0
H400 H 0.22445 0.57361 0.10829 0.0
H401 H 0.25243 0.5445 0.14847 0.0
H402 H 0.20409 0.55828 0.25601 0.0
H403 H 0.17517 0.58741 0.21535 0.0
H404 H 0.28334 0.55436 0.21605 0.0
H405 H 0.20463 0.47697 0.25147 0.0
H406 H 0.19968 0.50285 0.21374 0.0
H407 H 0.19731 0.51034 0.26787 0.0
C408 C 0.21952 0.57059 0.14048 0.0
C409 C 0.19725 0.58288 0.15838 0.0
C410 C 0.23573 0.55386 0.1635 0.0
C411 C 0.23028 0.54882 0.20516 0.0
C412 C 0.20842 0.5614 0.22365 0.0
H413 H 0.31023 0.4427 0.37658 0.0
H414 H 0.28245 0.47641 0.34482 0.0
C415 C 0.19199 0.57821 0.20044 0.0
C416 C 0.24776 0.53036 0.22848 0.0
H417 H 0.24784 0.47025 0.27858 0.0
C418 C 0.27554 0.53601 0.22984 0.0
C419 C 0.23767 0.50634 0.24642 0.0
C420 C 0.20824 0.49854 0.24462 0.0
C421 C 0.29342 0.51838 0.24846 0.0
C422 C 0.28338 0.49417 0.26575 0.0
C423 C 0.25557 0.48874 0.26515 0.0
C424 C 0.30128 0.47427 0.28498 0.0
C425 C 0.3229 0.52598 0.24985 0.0
C426 C 0.32124 0.4617 0.26195 0.0
C427 C 0.33732 0.44231 0.28013 0.0
C428 C 0.33361 0.43503 0.32164 0.0
C429 C 0.31371 0.44779 0.34455 0.0
C430 C 0.29771 0.46709 0.32642 0.0
H431 H 0.32643 0.54782 0.24525 0.0
H432 H 0.33201 0.52022 0.27974 0.0
H433 H 0.33334 0.5153 0.22481 0.0
H434 H 0.32406 0.46652 0.22968 0.0
H435 H 0.35232 0.43275 0.26155 0.0
H436 H 0.81229 0.30873 0.85845 0.0
H437 H 0.78426 0.27429 0.89245 0.0
H438 H 0.81296 0.30218 0.01131 0.0
H439 H 0.84155 0.33579 0.97766 0.0
H440 H 0.8104 0.24861 0.00826 0.0
H441 H 0.71494 0.28926 0.95013 0.0
H442 H 0.73756 0.27998 0.90999 0.0
H443 H 0.7467 0.307 0.94462 0.0
C444 C 0.81268 0.30736 0.89179 0.0
C445 C 0.82891 0.32505 0.91542 0.0
C446 C 0.79656 0.28783 0.9112 0.0
C447 C 0.79609 0.28606 0.95448 0.0
C448 C 0.8129 0.30324 0.97792 0.0
H449 H 0.69911 0.20383 0.13884 0.0
H450 H 0.7329 0.23164 0.1028 0.0
C451 C 0.82921 0.32248 0.9586 0.0
C452 C 0.77783 0.26677 0.97576 0.0
H453 H 0.71178 0.24898 0.98812 0.0
C454 C 0.78883 0.24869 0.00386 0.0
C455 C 0.74967 0.26707 0.97025 0.0
C456 C 0.73645 0.28703 0.94244 0.0
C457 C 0.77243 0.23077 0.02634 0.0
C458 C 0.74438 0.23102 0.02054 0.0
C459 C 0.73337 0.24888 0.99229 0.0
C460 C 0.72593 0.21284 0.04328 0.0
C461 C 0.78512 0.21154 0.05585 0.0
C462 C 0.71103 0.19314 0.02168 0.0
C463 C 0.69187 0.17731 0.04207 0.0
C464 C 0.68706 0.18109 0.08439 0.0
C465 C 0.70244 0.20045 0.10625 0.0
C466 C 0.72176 0.21626 0.08578 0.0
H467 H 0.80715 0.21063 0.05143 0.0
H468 H 0.78133 0.2181 0.088 0.0
H469 H 0.77608 0.19111 0.05195 0.0
H470 H 0.71395 0.19032 0.98885 0.0
H471 H 0.68036 0.16254 0.02435 0.0
H472 H 0.85352 0.93522 0.26239 0.0
H473 H 0.82502 0.96925 0.23176 0.0
H474 H 0.7809 0.97432 0.3455 0.0
H475 H 0.80947 0.941 0.37639 0.0
H476 H 0.77092 0.96683 0.21891 0.0
H477 H 0.79584 0.05253 0.32263 0.0
H478 H 0.81555 0.02281 0.32116 0.0
H479 H 0.78469 0.02304 0.34968 0.0
C480 C 0.83797 0.94385 0.281 0.0
C481 C 0.83392 0.93546 0.32192 0.0
C482 C 0.82164 0.96327 0.26345 0.0
C483 C 0.80103 0.97476 0.2865 0.0
C484 C 0.79704 0.96638 0.32735 0.0
H485 H 0.6716 0.08291 0.21579 0.0
H486 H 0.7 0.05218 0.25468 0.0
C487 C 0.81335 0.94711 0.3449 0.0
C488 C 0.78279 0.99441 0.26728 0.0
H489 H 0.75857 0.05755 0.2774 0.0
C490 C 0.76835 0.98669 0.23166 0.0
C491 C 0.77915 0.02031 0.28406 0.0
C492 C 0.7948 0.0303 0.32126 0.0
C493 C 0.75043 1.00402 0.21251 0.0
C494 C 0.74698 0.02994 0.22904 0.0
C495 C 0.76109 0.03761 0.26494 0.0
C496 C 0.73037 0.04988 0.20744 0.0
C497 C 0.73519 0.9944 0.17469 0.0
C498 C 0.73839 0.05936 0.16868 0.0
C499 C 0.72241 0.07682 0.14663 0.0
C500 C 0.69786 0.08541 0.16271 0.0
C501 C 0.69028 0.0767 0.20239 0.0
C502 C 0.70647 0.05912 0.22461 0.0
H503 H 0.73486 0.97222 0.17198 0.0
H504 H 0.71421 1.00126 0.17526 0.0
H505 H 0.74502 1.00281 0.14676 0.0
H506 H 0.75697 0.05291 0.15515 0.0
H507 H 0.72924 0.08326 0.11649 0.0
H508 H 0.9114 0.95601 0.39989 0.0
H509 H 0.93849 0.99477 0.42452 0.0
H510 H 0.98056 0.9436 0.50829 0.0
H511 H 0.95343 0.90533 0.4849 0.0
H512 H 0.96499 0.98886 0.54612 0.0
H513 H 0.01623 0.0129 0.39806 0.0
H514 H 0.98022 0.01292 0.39674 0.0
H515 H 0.9971 0.98216 0.40553 0.0
C516 C 0.92659 0.95307 0.42331 0.0
C517 C 0.93023 0.92761 0.44047 0.0
C518 C 0.94205 0.9752 0.43733 0.0
C519 C 0.96163 0.97204 0.46814 0.0
C520 C 0.96545 0.94657 0.48473 0.0
H521 H 0.10687 0.05151 0.52989 0.0
H522 H 0.06868 0.02424 0.50586 0.0
C523 C 0.94993 0.92466 0.47118 0.0
C524 C 0.97849 0.99486 0.48373 0.0
H525 H 0.02892 0.03857 0.45601 0.0
C526 C 0.9788 0.99999 0.52641 0.0
C527 C 0.99648 0.00925 0.4579 0.0
C528 C 0.99777 1.004 0.41206 0.0
C529 C 0.99761 0.01802 0.54431 0.0
C530 C 0.01608 0.03189 0.51859 0.0
C531 C 0.01475 0.02787 0.47566 0.0
C532 C 0.03886 0.04831 0.53552 0.0
C533 C 0.99851 0.02078 0.5907 0.0
C534 C 0.0349 0.07071 0.56095 0.0
C535 C 0.05691 0.08612 0.57554 0.0
C536 C 0.0831 0.07965 0.56406 0.0
C537 C 0.08692 0.05708 0.53903 0.0
C538 C 0.06508 0.04153 0.52514 0.0
H539 H 0.98691 1.00443 0.60622 0.0
H540 H 0.0195 0.02073 0.60225 0.0
H541 H 0.9897 0.04006 0.59975 0.0
H542 H 0.01483 0.07661 0.56877 0.0
H543 H 0.05342 0.10361 0.5944 0.0
H544 H 0.92383 0.33589 0.78489 0.0
H545 H 0.95278 0.3062 0.74528 0.0
H546 H 0.96361 0.25752 0.85327 0.0
H547 H 0.93476 0.28632 0.89247 0.0
H548 H 0.00598 0.29404 0.75922 0.0
H549 H 0.94312 0.20129 0.76805 0.0
H550 H 0.93041 0.23378 0.78055 0.0
H551 H 0.94957 0.21575 0.81797 0.0
C552 C 0.93217 0.31871 0.80005 0.0
C553 C 0.92673 0.31357 0.84193 0.0
C554 C 0.94875 0.30177 0.77739 0.0
C555 C 0.95999 0.27926 0.79605 0.0
C556 C 0.95466 0.27426 0.83778 0.0
H557 H 0.07785 0.15931 0.74162 0.0
H558 H 0.04418 0.18807 0.77283 0.0
C559 C 0.93821 0.29102 0.8603 0.0
C560 C 0.97832 0.26151 0.77302 0.0
H561 H 0.98916 0.19585 0.74965 0.0
C562 C 1.00213 0.27263 0.75663 0.0
C563 C 0.9734 0.2335 0.76976 0.0
C564 C 0.94761 0.22041 0.78466 0.0
C565 C 0.02152 0.25644 0.73845 0.0
C566 C 0.01686 0.22838 0.73608 0.0
C567 C 0.99285 0.21731 0.7518 0.0
C568 C 0.03656 0.21026 0.71696 0.0
C569 C 0.04723 0.26944 0.72306 0.0
C570 C 0.04299 0.21272 0.67504 0.0
C571 C 0.06207 0.19633 0.65721 0.0
C572 C 0.07516 0.17698 0.68082 0.0
C573 C 0.06819 0.17402 0.7226 0.0
C574 C 0.04898 0.19046 0.74045 0.0
H575 H 0.05055 0.28989 0.73604 0.0
H576 H 0.06473 0.2572 0.73106 0.0
H577 H 0.04625 0.27113 0.68896 0.0
H578 H 0.0333 0.22743 0.65606 0.0
H579 H 0.06677 0.1991 0.62488 0.0
H580 H 0.58102 0.66123 0.74039 0.0
H581 H 0.54769 0.69005 0.7721 0.0
H582 H 0.5351 0.72854 0.65501 0.0
H583 H 0.56847 0.70031 0.62346 0.0
H584 H 0.54145 0.76486 0.7175 0.0
H585 H 0.46641 0.68627 0.76154 0.0
H586 H 0.49943 0.68066 0.78136 0.0
H587 H 0.49357 0.67992 0.72654 0.0
C588 C 0.57097 0.67567 0.72137 0.0
C589 C 0.5774 0.67838 0.67937 0.0
C590 C 0.55181 0.69207 0.73947 0.0
C591 C 0.53857 0.7113 0.71584 0.0
C592 C 0.54494 0.71387 0.67391 0.0
H593 H 0.42303 0.83585 0.78343 0.0
H594 H 0.45237 0.80703 0.74295 0.0
C595 C 0.56405 0.69761 0.65589 0.0
C596 C 0.51875 0.7294 0.73483 0.0
H597 H 0.45999 0.72993 0.78858 0.0
C598 C 0.52352 0.75724 0.73279 0.0
C599 C 0.49523 0.71951 0.75448 0.0
C600 C 0.48815 0.68998 0.75583 0.0
C601 C 0.50601 0.77535 0.7512 0.0
C602 C 0.4828 0.76542 0.77168 0.0
C603 C 0.47775 0.7376 0.77289 0.0
C604 C 0.46468 0.78319 0.79505 0.0
C605 C 0.51305 0.8049 0.74993 0.0
C606 C 0.46137 0.77913 0.83748 0.0
C607 C 0.44458 0.79527 0.86042 0.0
C608 C 0.43046 0.81609 0.84168 0.0
C609 C 0.43364 0.82016 0.79898 0.0
C610 C 0.45054 0.80377 0.77584 0.0
H611 H 0.53423 0.80881 0.74071 0.0
H612 H 0.49994 0.81469 0.72708 0.0
H613 H 0.50977 0.81437 0.78048 0.0
H614 H 0.47201 0.76346 0.85309 0.0
H615 H 0.44285 0.79137 0.89317 0.0
H616 H 0.20544 0.69542 0.13774 0.0
H617 H 0.24011 0.7229 0.10331 0.0
H618 H 0.21045 0.69548 0.98473 0.0
H619 H 0.1766 0.66733 0.01883 0.0
H620 H 0.26411 0.69779 0.98598 0.0
H621 H 0.2248 0.79265 0.04778 0.0
H622 H 0.23442 0.76971 0.08724 0.0
H623 H 0.20693 0.761 0.05312 0.0
C624 C 0.20649 0.69515 0.10436 0.0
C625 C 0.1882 0.67946 0.08095 0.0
C626 C 0.22616 0.71096 0.08472 0.0
C627 C 0.22744 0.71171 0.04141 0.0
C628 C 0.20975 0.69532 0.01815 0.0
H629 H 0.3096 0.81153 0.85993 0.0
H630 H 0.2819 0.77682 0.89409 0.0
C631 C 0.19038 0.67928 0.03772 0.0
C632 C 0.24662 0.73002 0.02001 0.0
H633 H 0.2651 0.79594 0.00966 0.0
C634 C 0.26432 0.71926 0.99112 0.0
C635 C 0.24665 0.75807 0.02644 0.0
C636 C 0.22702 0.7711 0.055 0.0
C637 C 0.28228 0.73577 0.96889 0.0
C638 C 0.28247 0.76367 0.97581 0.0
C639 C 0.26489 0.77445 0.00468 0.0
C640 C 0.30091 0.78226 0.95382 0.0
C641 C 0.30114 0.72336 0.93854 0.0
C642 C 0.32075 0.79654 0.97612 0.0
C643 C 0.33647 0.81625 0.95684 0.0
C644 C 0.33248 0.8222 0.91493 0.0
C645 C 0.31313 0.80731 0.89223 0.0
C646 C 0.29739 0.78746 0.91163 0.0
H647 H 0.30164 0.70126 0.94183 0.0
H648 H 0.29451 0.72797 0.90667 0.0
H649 H 0.32178 0.73191 0.94264 0.0
H650 H 0.32365 0.79282 0.00875 0.0
H651 H 0.35126 0.82732 0.97516 0.0
H652 H 0.43353 0.44519 0.38587 0.0
H653 H 0.46273 0.48263 0.40973 0.0
H654 H 0.44467 0.46251 0.53606 0.0
H655 H 0.41609 0.42509 0.51281 0.0
H656 H 0.45437 0.52776 0.46211 0.0
H657 H 0.52637 0.45759 0.53059 0.0
H658 H 0.50021 0.44675 0.49518 0.0
H659 H 0.49263 0.45268 0.5486 0.0
C660 C 0.43561 0.44895 0.41869 0.0
C661 C 0.4229 0.43189 0.44744 0.0
C662 C 0.45226 0.4703 0.43226 0.0
C663 C 0.45629 0.4749 0.47467 0.0
C664 C 0.44235 0.45888 0.50324 0.0
H665 H 0.56493 0.57902 0.61824 0.0
H666 H 0.52652 0.55024 0.59713 0.0
C667 C 0.42599 0.43751 0.48982 0.0
C668 C 0.47594 0.49555 0.48947 0.0
H669 H 0.53366 0.50361 0.54573 0.0
C670 C 0.47175 0.52253 0.4803 0.0
C671 C 0.49859 0.4886 0.51319 0.0
C672 C 0.50493 0.45982 0.52219 0.0
C673 C 0.48951 0.54283 0.49476 0.0
C674 C 0.51203 0.53584 0.51864 0.0
C675 C 0.51614 0.50889 0.52789 0.0
C676 C 0.53285 0.5558 0.53167 0.0
C677 C 0.484 0.5716 0.48468 0.0
C678 C 0.5489 0.56848 0.50184 0.0
C679 C 0.57086 0.58463 0.51371 0.0
C680 C 0.57724 0.58845 0.55573 0.0
C681 C 0.5605 0.57653 0.58568 0.0
C682 C 0.5386 0.5601 0.57369 0.0
H683 H 0.46276 0.57422 0.47547 0.0
H684 H 0.48876 0.58486 0.51147 0.0
H685 H 0.49691 0.57812 0.45857 0.0
H686 H 0.54508 0.56505 0.46928 0.0
H687 H 0.58323 0.59365 0.48983 0.0
loop_
_geom_bond_atom_site_label_1
_geom_bond_atom_site_label_2
_geom_bond_distance
_geom_bond_site_symmetry_2
_ccdc_geom_bond_type
Co0 O1 2.216 . S
Co0 O2 2.091 . S
Co0 O4 2.004 . S
Co0 O10 2.021 . S
Co0 O12 2.137 . S
Co0 O13 2.244 . S
O1 Co0 2.216 . S
O1 C8 1.247 . S
O2 Co0 2.091 . S
O2 C8 1.261 . S
C3 O12 1.247 . S
C3 O13 1.272 . S
O4 Co0 2.004 . S
O4 C9 1.259 . S
Co5 O6 2.061 . S
Co5 O11 2.052 . S
Co5 O13 2.135 . S
O6 Co5 2.061 . S
O6 C9 1.235 . S
C7 O10 1.238 . S
C7 O11 1.241 . S
C8 O1 1.247 . S
C8 O2 1.261 . S
C9 O4 1.259 . S
C9 O6 1.235 . S
O10 Co0 2.021 . S
O10 C7 1.238 . S
O11 Co5 2.052 . S
O11 C7 1.241 . S
O12 Co0 2.137 . S
O12 C3 1.247 . S
O13 Co0 2.244 . S
O13 C3 1.272 . S
O13 Co5 2.135 . S
Co14 O15 2.216 . S
Co14 O16 2.091 . S
Co14 O18 2.004 . S
Co14 O24 2.021 . S
Co14 O26 2.137 . S
Co14 O27 2.244 . S
O15 Co14 2.216 . S
O15 C22 1.247 . S
O16 Co14 2.091 . S
O16 C22 1.261 . S
C17 O26 1.247 . S
C17 O27 1.272 . S
O18 Co14 2.004 . S
O18 C23 1.259 . S
Co19 O20 2.061 . S
Co19 O25 2.052 . S
Co19 O27 2.135 . S
O20 Co19 2.061 . S
O20 C23 1.235 . S
C21 O24 1.238 . S
C21 O25 1.241 . S
C22 O15 1.247 . S
C22 O16 1.261 . S
C23 O18 1.259 . S
C23 O20 1.235 . S
O24 Co14 2.021 . S
O24 C21 1.238 . S
O25 Co19 2.052 . S
O25 C21 1.241 . S
O26 Co14 2.137 . S
O26 C17 1.247 . S
O27 Co14 2.244 . S
O27 C17 1.272 . S
O27 Co19 2.135 . S
Co28 O29 2.216 . S
Co28 O30 2.091 . S
Co28 O32 2.004 . S
Co28 O38 2.021 . S
Co28 O40 2.137 . S
Co28 O41 2.244 . S
O29 Co28 2.216 . S
O29 C36 1.247 . S
O30 Co28 2.091 . S
O30 C36 1.261 . S
C31 O40 1.247 . S
C31 O41 1.272 . S
O32 Co28 2.004 . S
O32 C37 1.259 . S
Co33 O34 2.061 . S
Co33 O39 2.052 . S
Co33 O41 2.135 . S
O34 Co33 2.061 . S
O34 C37 1.235 . S
C35 O38 1.238 . S
C35 O39 1.241 . S
C36 O29 1.247 . S
C36 O30 1.261 . S
C37 O32 1.259 . S
C37 O34 1.235 . S
O38 Co28 2.021 . S
O38 C35 1.238 . S
O39 Co33 2.052 . S
O39 C35 1.241 . S
O40 Co28 2.137 . S
O40 C31 1.247 . S
O41 Co28 2.244 . S
O41 C31 1.272 . S
O41 Co33 2.135 . S
Co42 O43 2.216 . S
Co42 O44 2.091 . S
Co42 O46 2.004 . S
Co42 O52 2.021 . S
Co42 O54 2.137 . S
Co42 O55 2.244 . S
O43 Co42 2.216 . S
O43 C50 1.247 . S
O44 Co42 2.091 . S
O44 C50 1.261 . S
C45 O54 1.247 . S
C45 O55 1.272 . S
O46 Co42 2.004 . S
O46 C51 1.259 . S
Co47 O48 2.061 . S
Co47 O53 2.052 . S
Co47 O55 2.135 . S
O48 Co47 2.061 . S
O48 C51 1.235 . S
C49 O52 1.238 . S
C49 O53 1.241 . S
C50 O43 1.247 . S
C50 O44 1.261 . S
C51 O46 1.259 . S
C51 O48 1.235 . S
O52 Co42 2.021 . S
O52 C49 1.238 . S
O53 Co47 2.052 . S
O53 C49 1.241 . S
O54 Co42 2.137 . S
O54 C45 1.247 . S
O55 Co42 2.244 . S
O55 C45 1.272 . S
O55 Co47 2.135 . S
Co56 O57 2.216 . S
Co56 O58 2.091 . S
Co56 O60 2.004 . S
Co56 O66 2.021 . S
Co56 O68 2.137 . S
Co56 O69 2.244 . S
O57 Co56 2.216 . S
O57 C64 1.247 . S
O58 Co56 2.091 . S
O58 C64 1.261 . S
C59 O68 1.247 . S
C59 O69 1.272 . S
O60 Co56 2.004 . S
O60 C65 1.259 . S
Co61 O62 2.061 . S
Co61 O67 2.052 . S
Co61 O69 2.135 . S
O62 Co61 2.061 . S
O62 C65 1.235 . S
C63 O66 1.238 . S
C63 O67 1.241 . S
C64 O57 1.247 . S
C64 O58 1.261 . S
C65 O60 1.259 . S
C65 O62 1.235 . S
O66 Co56 2.021 . S
O66 C63 1.238 . S
O67 Co61 2.052 . S
O67 C63 1.241 . S
O68 Co56 2.137 . S
O68 C59 1.247 . S
O69 Co56 2.244 . S
O69 C59 1.272 . S
O69 Co61 2.135 . S
Co70 O71 2.216 . S
Co70 O72 2.091 . S
Co70 O74 2.004 . S
Co70 O80 2.021 . S
Co70 O82 2.137 . S
Co70 O83 2.244 . S
O71 Co70 2.216 . S
O71 C78 1.247 . S
O72 Co70 2.091 . S
O72 C78 1.261 . S
C73 O82 1.247 . S
C73 O83 1.272 . S
O74 Co70 2.004 . S
O74 C79 1.259 . S
Co75 O76 2.061 . S
Co75 O81 2.052 . S
Co75 O83 2.135 . S
O76 Co75 2.061 . S
O76 C79 1.235 . S
C77 O80 1.238 . S
C77 O81 1.241 . S
C78 O71 1.247 . S
C78 O72 1.261 . S
C79 O74 1.259 . S
C79 O76 1.235 . S
O80 Co70 2.021 . S
O80 C77 1.238 . S
O81 Co75 2.052 . S
O81 C77 1.241 . S
O82 Co70 2.137 . S
O82 C73 1.247 . S
O83 Co70 2.244 . S
O83 C73 1.272 . S
O83 Co75 2.135 . S
Co84 O85 2.216 . S
Co84 O86 2.091 . S
Co84 O88 2.004 . S
Co84 O94 2.021 . S
Co84 O96 2.137 . S
Co84 O97 2.244 . S
O85 Co84 2.216 . S
O85 C92 1.247 . S
O86 Co84 2.091 . S
O86 C92 1.261 . S
C87 O96 1.247 . S
C87 O97 1.272 . S
O88 Co84 2.004 . S
O88 C93 1.259 . S
Co89 O90 2.061 . S
Co89 O95 2.052 . S
Co89 O97 2.135 . S
O90 Co89 2.061 . S
O90 C93 1.235 . S
C91 O94 1.238 . S
C91 O95 1.241 . S
C92 O85 1.247 . S
C92 O86 1.261 . S
C93 O88 1.259 . S
C93 O90 1.235 . S
O94 Co84 2.021 . S
O94 C91 1.238 . S
O95 Co89 2.052 . S
O95 C91 1.241 . S
O96 Co84 2.137 . S
O96 C87 1.247 . S
O97 Co84 2.244 . S
O97 C87 1.272 . S
O97 Co89 2.135 . S
Co98 O99 2.216 . S
Co98 O100 2.091 . S
Co98 O102 2.004 . S
Co98 O108 2.021 . S
Co98 O110 2.137 . S
Co98 O111 2.244 . S
O99 Co98 2.216 . S
O99 C106 1.247 . S
O100 Co98 2.091 . S
O100 C106 1.261 . S
C101 O110 1.247 . S
C101 O111 1.272 . S
O102 Co98 2.004 . S
O102 C107 1.259 . S
Co103 O104 2.061 . S
Co103 O109 2.052 . S
Co103 O111 2.135 . S
O104 Co103 2.061 . S
O104 C107 1.235 . S
C105 O108 1.238 . S
C105 O109 1.241 . S
C106 O99 1.247 . S
C106 O100 1.261 . S
C107 O102 1.259 . S
C107 O104 1.235 . S
O108 Co98 2.021 . S
O108 C105 1.238 . S
O109 Co103 2.052 . S
O109 C105 1.241 . S
O110 Co98 2.137 . S
O110 C101 1.247 . S
O111 Co98 2.244 . S
O111 C101 1.272 . S
O111 Co103 2.135 . S
H112 C120 0.929 . S
H113 C122 0.930 . S
H114 C124 0.930 . S
H115 C127 0.929 . S
H116 C130 0.930 . S
H117 C132 0.960 . S
H118 C132 0.960 . S
H119 C132 0.960 . S
C120 H112 0.929 . S
C120 C121 1.377 . S
C120 C122 1.384 . S
C121 C120 1.377 . S
C121 C127 1.390 . S
C122 H113 0.930 . S
C122 C120 1.384 . S
C122 C123 1.372 . S
C123 C122 1.372 . S
C123 C124 1.400 . S
C123 C128 1.490 . S
C124 H114 0.930 . S
C124 C123 1.400 . S
C124 C127 1.386 . S
H125 C141 0.930 . S
H126 C142 0.931 . S
C127 H115 0.929 . S
C127 C121 1.390 . S
C127 C124 1.386 . S
C128 C123 1.490 . S
C128 C130 1.395 . S
C128 C131 1.403 . S
H129 C135 0.930 . S
C130 H116 0.930 . S
C130 C128 1.395 . S
C130 C133 1.403 . S
C131 C128 1.403 . S
C131 C132 1.524 . S
C131 C135 1.400 . S
C132 H117 0.960 . S
C132 H118 0.960 . S
C132 H119 0.960 . S
C132 C131 1.524 . S
C133 C130 1.403 . S
C133 C134 1.392 . S
C133 C137 1.495 . S
C134 C133 1.392 . S
C134 C135 1.385 . S
C134 C136 1.478 . S
C135 H129 0.930 . S
C135 C131 1.400 . S
C135 C134 1.385 . S
C136 C134 1.478 . S
C136 C138 1.381 . S
C136 C142 1.383 . S
C137 C133 1.495 . S
C137 H143 0.959 . S
C137 H144 0.961 . S
C137 H145 0.960 . S
C138 C136 1.381 . S
C138 C139 1.394 . S
C138 H146 0.930 . S
C139 C138 1.394 . S
C139 C140 1.383 . S
C139 H147 0.929 . S
C140 C139 1.383 . S
C140 C141 1.377 . S
C141 H125 0.930 . S
C141 C140 1.377 . S
C141 C142 1.379 . S
C142 H126 0.931 . S
C142 C136 1.383 . S
C142 C141 1.379 . S
H143 C137 0.959 . S
H144 C137 0.961 . S
H145 C137 0.960 . S
H146 C138 0.930 . S
H147 C139 0.929 . S
H148 C156 0.929 . S
H149 C158 0.930 . S
H150 C160 0.930 . S
H151 C163 0.929 . S
H152 C166 0.930 . S
H153 C168 0.960 . S
H154 C168 0.960 . S
H155 C168 0.960 . S
C156 H148 0.929 . S
C156 C157 1.377 . S
C156 C158 1.384 . S
C157 C156 1.377 . S
C157 C163 1.390 . S
C158 H149 0.930 . S
C158 C156 1.384 . S
C158 C159 1.372 . S
C159 C158 1.372 . S
C159 C160 1.400 . S
C159 C164 1.490 . S
C160 H150 0.930 . S
C160 C159 1.400 . S
C160 C163 1.386 . S
H161 C177 0.930 . S
H162 C178 0.931 . S
C163 H151 0.929 . S
C163 C157 1.390 . S
C163 C160 1.386 . S
C164 C159 1.490 . S
C164 C166 1.395 . S
C164 C167 1.403 . S
H165 C171 0.930 . S
C166 H152 0.930 . S
C166 C164 1.395 . S
C166 C169 1.403 . S
C167 C164 1.403 . S
C167 C168 1.524 . S
C167 C171 1.400 . S
C168 H153 0.960 . S
C168 H154 0.960 . S
C168 H155 0.960 . S
C168 C167 1.524 . S
C169 C166 1.403 . S
C169 C170 1.392 . S
C169 C173 1.495 . S
C170 C169 1.392 . S
C170 C171 1.385 . S
C170 C172 1.478 . S
C171 H165 0.930 . S
C171 C167 1.400 . S
C171 C170 1.385 . S
C172 C170 1.478 . S
C172 C174 1.381 . S
C172 C178 1.383 . S
C173 C169 1.495 . S
C173 H179 0.959 . S
C173 H180 0.961 . S
C173 H181 0.960 . S
C174 C172 1.381 . S
C174 C175 1.394 . S
C174 H182 0.930 . S
C175 C174 1.394 . S
C175 C176 1.383 . S
C175 H183 0.929 . S
C176 C175 1.383 . S
C176 C177 1.377 . S
C177 H161 0.930 . S
C177 C176 1.377 . S
C177 C178 1.379 . S
C178 H162 0.931 . S
C178 C172 1.383 . S
C178 C177 1.379 . S
H179 C173 0.959 . S
H180 C173 0.961 . S
H181 C173 0.960 . S
H182 C174 0.930 . S
H183 C175 0.929 . S
H184 C192 0.929 . S
H185 C194 0.930 . S
H186 C196 0.930 . S
H187 C199 0.929 . S
H188 C202 0.930 . S
H189 C204 0.960 1_565 S
H190 C204 0.960 . S
H191 C204 0.960 1_565 S
C192 H184 0.929 . S
C192 C193 1.377 . S
C192 C194 1.384 . S
C193 C192 1.377 . S
C193 C199 1.390 . S
C194 H185 0.930 . S
C194 C192 1.384 . S
C194 C195 1.372 . S
C195 C194 1.372 . S
C195 C196 1.400 . S
C195 C200 1.490 . S
C196 H186 0.930 . S
C196 C195 1.400 . S
C196 C199 1.386 . S
H197 C213 0.930 . S
H198 C214 0.931 . S
C199 H187 0.929 . S
C199 C193 1.390 . S
C199 C196 1.386 . S
C200 C195 1.490 . S
C200 C202 1.395 1_554 S
C200 C203 1.403 . S
H201 C207 0.930 . S
C202 H188 0.930 . S
C202 C200 1.395 1_556 S
C202 C205 1.403 . S
C203 C200 1.403 . S
C203 C204 1.524 . S
C203 C207 1.400 1_545 S
C204 H189 0.960 1_545 S
C204 H190 0.960 . S
C204 H191 0.960 1_545 S
C204 C203 1.524 . S
C205 C202 1.403 . S
C205 C206 1.392 1_545 S
C205 C209 1.495 . S
C206 C205 1.392 1_565 S
C206 C207 1.385 1_556 S
C206 C208 1.478 . S
C207 H201 0.930 . S
C207 C203 1.400 1_565 S
C207 C206 1.385 1_554 S
C208 C206 1.478 . S
C208 C210 1.381 . S
C208 C214 1.383 . S
C209 C205 1.495 . S
C209 H215 0.959 . S
C209 H216 0.961 1_545 S
C209 H217 0.960 . S
C210 C208 1.381 . S
C210 C211 1.394 . S
C210 H218 0.930 . S
C211 C210 1.394 . S
C211 C212 1.383 . S
C211 H219 0.929 . S
C212 C211 1.383 . S
C212 C213 1.377 . S
C213 H197 0.930 . S
C213 C212 1.377 . S
C213 C214 1.379 . S
C214 H198 0.931 . S
C214 C208 1.383 . S
C214 C213 1.379 . S
H215 C209 0.959 . S
H216 C209 0.961 1_565 S
H217 C209 0.960 . S
H218 C210 0.930 . S
H219 C211 0.929 . S
H220 C228 0.929 . S
H221 C230 0.930 . S
H222 C232 0.930 . S
H223 C235 0.929 . S
H224 C238 0.930 . S
H225 C240 0.960 . S
H226 C240 0.960 . S
H227 C240 0.960 . S
C228 H220 0.929 . S
C228 C229 1.377 . S
C228 C230 1.384 . S
C229 C228 1.377 . S
C229 C235 1.390 . S
C230 H221 0.930 . S
C230 C228 1.384 . S
C230 C231 1.372 . S
C231 C230 1.372 . S
C231 C232 1.400 . S
C231 C236 1.490 . S
C232 H222 0.930 . S
C232 C231 1.400 . S
C232 C235 1.386 . S
H233 C249 0.930 . S
H234 C250 0.931 . S
C235 H223 0.929 . S
C235 C229 1.390 . S
C235 C232 1.386 . S
C236 C231 1.490 . S
C236 C238 1.395 1_655 S
C236 C239 1.403 . S
H237 C243 0.930 1_655 S
C238 H224 0.930 . S
C238 C236 1.395 1_455 S
C238 C241 1.403 . S
C239 C236 1.403 . S
C239 C240 1.524 . S
C239 C243 1.400 1_655 S
C240 H225 0.960 . S
C240 H226 0.960 . S
C240 H227 0.960 . S
C240 C239 1.524 . S
C241 C238 1.403 . S
C241 C242 1.392 . S
C241 C245 1.495 . S
C242 C241 1.392 . S
C242 C243 1.385 . S
C242 C244 1.478 . S
C243 H237 0.930 1_455 S
C243 C239 1.400 1_455 S
C243 C242 1.385 . S
C244 C242 1.478 . S
C244 C246 1.381 . S
C244 C250 1.383 . S
C245 C241 1.495 . S
C245 H251 0.959 . S
C245 H252 0.961 . S
C245 H253 0.960 . S
C246 C244 1.381 . S
C246 C247 1.394 . S
C246 H254 0.930 . S
C247 C246 1.394 . S
C247 C248 1.383 . S
C247 H255 0.929 . S
C248 C247 1.383 . S
C248 C249 1.377 . S
C249 H233 0.930 . S
C249 C248 1.377 . S
C249 C250 1.379 . S
C250 H234 0.931 . S
C250 C244 1.383 . S
C250 C249 1.379 . S
H251 C245 0.959 . S
H252 C245 0.961 . S
H253 C245 0.960 . S
H254 C246 0.930 . S
H255 C247 0.929 . S
H256 C264 0.929 . S
H257 C266 0.930 . S
H258 C268 0.930 . S
H259 C271 0.929 . S
H260 C274 0.930 . S
H261 C276 0.953 1_545 S
H262 C276 0.957 1_545 S
H263 C276 0.970 . S
C264 H256 0.929 . S
C264 C265 1.377 . S
C264 C266 1.384 . S
C265 C264 1.377 . S
C265 C271 1.390 . S
C266 H257 0.930 . S
C266 C264 1.384 . S
C266 C267 1.372 . S
C267 C266 1.372 . S
C267 C268 1.400 . S
C267 C272 1.490 . S
C268 H258 0.930 . S
C268 C267 1.400 . S
C268 C271 1.386 . S
H269 C285 0.930 . S
H270 C286 0.931 . S
C271 H259 0.929 . S
C271 C265 1.390 . S
C271 C268 1.386 . S
C272 C267 1.490 . S
C272 C274 1.395 . S
C272 C275 1.406 . S
H273 C279 0.930 . S
C274 H260 0.930 . S
C274 C272 1.395 . S
C274 C277 1.403 1_565 S
C275 C272 1.406 . S
C275 C276 1.524 . S
C275 C279 1.396 1_565 S
C276 H261 0.953 1_565 S
C276 H262 0.957 1_565 S
C276 H263 0.970 . S
C276 C275 1.524 . S
C277 C274 1.403 1_545 S
C277 C278 1.392 . S
C277 C281 1.495 . S
C278 C277 1.392 . S
C278 C279 1.385 . S
C278 C280 1.478 . S
C279 H273 0.930 . S
C279 C275 1.396 1_545 S
C279 C278 1.385 . S
C280 C278 1.478 . S
C280 C282 1.381 . S
C280 C286 1.383 . S
C281 C277 1.495 . S
C281 H287 0.959 1_545 S
C281 H288 0.952 1_545 S
C281 H289 0.960 . S
C282 C280 1.381 . S
C282 C283 1.394 . S
C282 H290 0.930 . S
C283 C282 1.394 . S
C283 C284 1.383 . S
C283 H291 0.929 . S
C284 C283 1.383 . S
C284 C285 1.377 . S
C285 H269 0.930 . S
C285 C284 1.377 . S
C285 C286 1.379 . S
C286 H270 0.931 . S
C286 C280 1.383 . S
C286 C285 1.379 . S
H287 C281 0.959 1_565 S
H288 C281 0.952 1_565 S
H289 C281 0.960 . S
H290 C282 0.930 . S
H291 C283 0.929 . S
H292 C300 0.929 . S
H293 C302 0.930 . S
H294 C304 0.930 . S
H295 C307 0.929 . S
H296 C310 0.930 . S
H297 C312 0.960 . S
H298 C312 0.960 . S
H299 C312 0.960 . S
C300 H292 0.929 . S
C300 C301 1.377 . S
C300 C302 1.384 . S
C301 C300 1.377 . S
C301 C307 1.390 . S
C302 H293 0.930 . S
C302 C300 1.384 . S
C302 C303 1.372 . S
C303 C302 1.372 . S
C303 C304 1.400 . S
C303 C308 1.490 . S
C304 H294 0.930 . S
C304 C303 1.400 . S
C304 C307 1.386 . S
H305 C321 0.930 . S
H306 C322 0.931 . S
C307 H295 0.929 . S
C307 C301 1.390 . S
C307 C304 1.386 . S
C308 C303 1.490 . S
C308 C310 1.395 1_655 S
C308 C311 1.403 1_556 S
H309 C315 0.930 . S
C310 H296 0.930 . S
C310 C308 1.395 1_455 S
C310 C313 1.403 . S
C311 C308 1.403 1_554 S
C311 C312 1.524 . S
C311 C315 1.400 . S
C312 H297 0.960 . S
C312 H298 0.960 . S
C312 H299 0.960 . S
C312 C311 1.524 . S
C313 C310 1.403 . S
C313 C314 1.392 1_556 S
C313 C317 1.495 . S
C314 C313 1.392 1_554 S
C314 C315 1.385 1_455 S
C314 C316 1.478 . S
C315 H309 0.930 . S
C315 C311 1.400 . S
C315 C314 1.385 1_655 S
C316 C314 1.478 . S
C316 C318 1.381 . S
C316 C322 1.383 . S
C317 C313 1.495 . S
C317 H323 0.959 . S
C317 H324 0.961 . S
C317 H325 0.960 . S
C318 C316 1.381 . S
C318 C319 1.394 . S
C318 H326 0.930 . S
C319 C318 1.394 . S
C319 C320 1.383 . S
C319 H327 0.929 . S
C320 C319 1.383 . S
C320 C321 1.377 . S
C321 H305 0.930 . S
C321 C320 1.377 . S
C321 C322 1.379 . S
C322 H306 0.931 . S
C322 C316 1.383 . S
C322 C321 1.379 . S
H323 C317 0.959 . S
H324 C317 0.961 . S
H325 C317 0.960 . S
H326 C318 0.930 . S
H327 C319 0.929 . S
H328 C336 0.929 . S
H329 C338 0.930 . S
H330 C340 0.930 . S
H331 C343 0.929 . S
H332 C346 0.930 . S
H333 C348 0.960 . S
H334 C348 0.960 . S
H335 C348 0.960 . S
C336 H328 0.929 . S
C336 C337 1.377 . S
C336 C338 1.384 . S
C337 C336 1.377 . S
C337 C343 1.390 . S
C338 H329 0.930 . S
C338 C336 1.384 . S
C338 C339 1.372 . S
C339 C338 1.372 . S
C339 C340 1.400 . S
C339 C344 1.490 . S
C340 H330 0.930 . S
C340 C339 1.400 . S
C340 C343 1.386 . S
H341 C357 0.930 . S
H342 C358 0.931 . S
C343 H331 0.929 . S
C343 C337 1.390 . S
C343 C340 1.386 . S
C344 C339 1.490 . S
C344 C346 1.395 . S
C344 C347 1.403 . S
H345 C351 0.930 . S
C346 H332 0.930 . S
C346 C344 1.395 . S
C346 C349 1.403 . S
C347 C344 1.403 . S
C347 C348 1.524 . S
C347 C351 1.400 . S
C348 H333 0.960 . S
C348 H334 0.960 . S
C348 H335 0.960 . S
C348 C347 1.524 . S
C349 C346 1.403 . S
C349 C350 1.392 . S
C349 C353 1.495 . S
C350 C349 1.392 . S
C350 C351 1.385 . S
C350 C352 1.478 . S
C351 H345 0.930 . S
C351 C347 1.400 . S
C351 C350 1.385 . S
C352 C350 1.478 . S
C352 C354 1.381 . S
C352 C358 1.383 . S
C353 C349 1.495 . S
C353 H359 0.959 . S
C353 H360 0.961 . S
C353 H361 0.960 . S
C354 C352 1.381 . S
C354 C355 1.394 . S
C354 H362 0.930 . S
C355 C354 1.394 . S
C355 C356 1.383 . S
C355 H363 0.929 . S
C356 C355 1.383 . S
C356 C357 1.377 . S
C357 H341 0.930 . S
C357 C356 1.377 . S
C357 C358 1.379 . S
C358 H342 0.931 . S
C358 C352 1.383 . S
C358 C357 1.379 . S
H359 C353 0.959 . S
H360 C353 0.961 . S
H361 C353 0.960 . S
H362 C354 0.930 . S
H363 C355 0.929 . S
H364 C372 0.929 . S
H365 C374 0.930 . S
H366 C376 0.930 . S
H367 C379 0.929 . S
H368 C382 0.930 . S
H369 C384 0.960 . S
H370 C384 0.960 . S
H371 C384 0.960 . S
C372 H364 0.929 . S
C372 C373 1.377 . S
C372 C374 1.384 . S
C373 C372 1.377 . S
C373 C379 1.390 . S
C374 H365 0.930 . S
C374 C372 1.384 . S
C374 C375 1.372 . S
C375 C374 1.372 . S
C375 C376 1.400 . S
C375 C380 1.490 . S
C376 H366 0.930 . S
C376 C375 1.400 . S
C376 C379 1.386 . S
H377 C393 0.930 . S
H378 C394 0.931 . S
C379 H367 0.929 . S
C379 C373 1.390 . S
C379 C376 1.386 . S
C380 C375 1.490 . S
C380 C382 1.395 . S
C380 C383 1.403 . S
H381 C387 0.930 . S
C382 H368 0.930 . S
C382 C380 1.395 . S
C382 C385 1.403 . S
C383 C380 1.403 . S
C383 C384 1.524 . S
C383 C387 1.400 . S
C384 H369 0.960 . S
C384 H370 0.960 . S
C384 H371 0.960 . S
C384 C383 1.524 . S
C385 C382 1.403 . S
C385 C386 1.392 . S
C385 C389 1.495 . S
C386 C385 1.392 . S
C386 C387 1.385 . S
C386 C388 1.478 . S
C387 H381 0.930 . S
C387 C383 1.400 . S
C387 C386 1.385 . S
C388 C386 1.478 . S
C388 C390 1.381 . S
C388 C394 1.383 . S
C389 C385 1.495 . S
C389 H395 0.959 . S
C389 H396 0.961 . S
C389 H397 0.960 . S
C390 C388 1.381 . S
C390 C391 1.394 . S
C390 H398 0.930 . S
C391 C390 1.394 . S
C391 C392 1.383 . S
C391 H399 0.929 . S
C392 C391 1.383 . S
C392 C393 1.377 . S
C393 H377 0.930 . S
C393 C392 1.377 . S
C393 C394 1.379 . S
C394 H378 0.931 . S
C394 C388 1.383 . S
C394 C393 1.379 . S
H395 C389 0.959 . S
H396 C389 0.961 . S
H397 C389 0.960 . S
H398 C390 0.930 . S
H399 C391 0.929 . S
H400 C408 0.929 . S
H401 C410 0.930 . S
H402 C412 0.930 . S
H403 C415 0.929 . S
H404 C418 0.930 . S
H405 C420 0.960 . S
H406 C420 0.960 . S
H407 C420 0.960 . S
C408 H400 0.929 . S
C408 C409 1.377 . S
C408 C410 1.384 . S
C409 C408 1.377 . S
C409 C415 1.390 . S
C410 H401 0.930 . S
C410 C408 1.384 . S
C410 C411 1.372 . S
C411 C410 1.372 . S
C411 C412 1.400 . S
C411 C416 1.490 . S
C412 H402 0.930 . S
C412 C411 1.400 . S
C412 C415 1.386 . S
H413 C429 0.930 . S
H414 C430 0.931 . S
C415 H403 0.929 . S
C415 C409 1.390 . S
C415 C412 1.386 . S
C416 C411 1.490 . S
C416 C418 1.395 . S
C416 C419 1.403 . S
H417 C423 0.930 . S
C418 H404 0.930 . S
C418 C416 1.395 . S
C418 C421 1.403 . S
C419 C416 1.403 . S
C419 C420 1.524 . S
C419 C423 1.400 . S
C420 H405 0.960 . S
C420 H406 0.960 . S
C420 H407 0.960 . S
C420 C419 1.524 . S
C421 C418 1.403 . S
C421 C422 1.392 . S
C421 C425 1.495 . S
C422 C421 1.392 . S
C422 C423 1.385 . S
C422 C424 1.478 . S
C423 H417 0.930 . S
C423 C419 1.400 . S
C423 C422 1.385 . S
C424 C422 1.478 . S
C424 C426 1.381 . S
C424 C430 1.383 . S
C425 C421 1.495 . S
C425 H431 0.959 . S
C425 H432 0.961 . S
C425 H433 0.960 . S
C426 C424 1.381 . S
C426 C427 1.394 . S
C426 H434 0.930 . S
C427 C426 1.394 . S
C427 C428 1.383 . S
C427 H435 0.929 . S
C428 C427 1.383 . S
C428 C429 1.377 . S
C429 H413 0.930 . S
C429 C428 1.377 . S
C429 C430 1.379 . S
C430 H414 0.931 . S
C430 C424 1.383 . S
C430 C429 1.379 . S
H431 C425 0.959 . S
H432 C425 0.961 . S
H433 C425 0.960 . S
H434 C426 0.930 . S
H435 C427 0.929 . S
H436 C444 0.929 . S
H437 C446 0.930 . S
H438 C448 0.930 . S
H439 C451 0.929 . S
H440 C454 0.930 . S
H441 C456 0.960 . S
H442 C456 0.960 . S
H443 C456 0.960 . S
C444 H436 0.929 . S
C444 C445 1.377 . S
C444 C446 1.384 . S
C445 C444 1.377 . S
C445 C451 1.390 . S
C446 H437 0.930 . S
C446 C444 1.384 . S
C446 C447 1.372 . S
C447 C446 1.372 . S
C447 C448 1.400 . S
C447 C452 1.490 . S
C448 H438 0.930 . S
C448 C447 1.400 . S
C448 C451 1.386 . S
H449 C465 0.930 . S
H450 C466 0.931 . S
C451 H439 0.929 . S
C451 C445 1.390 . S
C451 C448 1.386 . S
C452 C447 1.490 . S
C452 C454 1.395 1_556 S
C452 C455 1.403 . S
H453 C459 0.930 . S
C454 H440 0.930 . S
C454 C452 1.395 1_554 S
C454 C457 1.403 . S
C455 C452 1.403 . S
C455 C456 1.524 . S
C455 C459 1.400 . S
C456 H441 0.960 . S
C456 H442 0.960 . S
C456 H443 0.960 . S
C456 C455 1.524 . S
C457 C454 1.403 . S
C457 C458 1.392 . S
C457 C461 1.495 . S
C458 C457 1.392 . S
C458 C459 1.385 1_554 S
C458 C460 1.478 . S
C459 H453 0.930 . S
C459 C455 1.400 . S
C459 C458 1.385 1_556 S
C460 C458 1.478 . S
C460 C462 1.381 . S
C460 C466 1.383 . S
C461 C457 1.495 . S
C461 H467 0.959 . S
C461 H468 0.961 . S
C461 H469 0.960 . S
C462 C460 1.381 . S
C462 C463 1.394 . S
C462 H470 0.930 . S
C463 C462 1.394 . S
C463 C464 1.383 . S
C463 H471 0.929 . S
C464 C463 1.383 . S
C464 C465 1.377 . S
C465 H449 0.930 . S
C465 C464 1.377 . S
C465 C466 1.379 . S
C466 H450 0.931 . S
C466 C460 1.383 . S
C466 C465 1.379 . S
H467 C461 0.959 . S
H468 C461 0.961 . S
H469 C461 0.960 . S
H470 C462 0.930 . S
H471 C463 0.929 . S
H472 C480 0.929 . S
H473 C482 0.930 . S
H474 C484 0.930 . S
H475 C487 0.929 . S
H476 C490 0.930 . S
H477 C492 0.960 . S
H478 C492 0.960 . S
H479 C492 0.960 . S
C480 H472 0.929 . S
C480 C481 1.377 . S
C480 C482 1.384 . S
C481 C480 1.377 . S
C481 C487 1.390 . S
C482 H473 0.930 . S
C482 C480 1.384 . S
C482 C483 1.372 . S
C483 C482 1.372 . S
C483 C484 1.400 . S
C483 C488 1.490 . S
C484 H474 0.930 . S
C484 C483 1.400 . S
C484 C487 1.386 . S
H485 C501 0.930 . S
H486 C502 0.931 . S
C487 H475 0.929 . S
C487 C481 1.390 . S
C487 C484 1.386 . S
C488 C483 1.490 . S
C488 C490 1.395 . S
C488 C491 1.403 1_565 S
H489 C495 0.930 . S
C490 H476 0.930 . S
C490 C488 1.395 . S
C490 C493 1.403 . S
C491 C488 1.403 1_545 S
C491 C492 1.524 . S
C491 C495 1.400 . S
C492 H477 0.960 . S
C492 H478 0.960 . S
C492 H479 0.960 . S
C492 C491 1.524 . S
C493 C490 1.403 . S
C493 C494 1.392 1_565 S
C493 C497 1.495 . S
C494 C493 1.392 1_545 S
C494 C495 1.385 . S
C494 C496 1.478 . S
C495 H489 0.930 . S
C495 C491 1.400 . S
C495 C494 1.385 . S
C496 C494 1.478 . S
C496 C498 1.381 . S
C496 C502 1.383 . S
C497 C493 1.495 . S
C497 H503 0.959 . S
C497 H504 0.961 . S
C497 H505 0.960 . S
C498 C496 1.381 . S
C498 C499 1.394 . S
C498 H506 0.930 . S
C499 C498 1.394 . S
C499 C500 1.383 . S
C499 H507 0.929 . S
C500 C499 1.383 . S
C500 C501 1.377 . S
C501 H485 0.930 . S
C501 C500 1.377 . S
C501 C502 1.379 . S
C502 H486 0.931 . S
C502 C496 1.383 . S
C502 C501 1.379 . S
H503 C497 0.959 . S
H504 C497 0.961 . S
H505 C497 0.960 . S
H506 C498 0.930 . S
H507 C499 0.929 . S
H508 C516 0.929 . S
H509 C518 0.930 . S
H510 C520 0.930 . S
H511 C523 0.929 . S
H512 C526 0.930 . S
H513 C528 0.960 . S
H514 C528 0.960 . S
H515 C528 0.960 . S
C516 H508 0.929 . S
C516 C517 1.377 . S
C516 C518 1.384 . S
C517 C516 1.377 . S
C517 C523 1.390 . S
C518 H509 0.930 . S
C518 C516 1.384 . S
C518 C519 1.372 . S
C519 C518 1.372 . S
C519 C520 1.400 . S
C519 C524 1.490 . S
C520 H510 0.930 . S
C520 C519 1.400 . S
C520 C523 1.386 . S
H521 C537 0.930 . S
H522 C538 0.931 . S
C523 H511 0.929 . S
C523 C517 1.390 . S
C523 C520 1.386 . S
C524 C519 1.490 . S
C524 C526 1.395 . S
C524 C527 1.403 1_655 S
H525 C531 0.930 . S
C526 H512 0.930 . S
C526 C524 1.395 . S
C526 C529 1.403 1_565 S
C527 C524 1.403 1_455 S
C527 C528 1.524 . S
C527 C531 1.400 1_565 S
C528 H513 0.960 . S
C528 H514 0.960 . S
C528 H515 0.960 . S
C528 C527 1.524 . S
C529 C526 1.403 1_545 S
C529 C530 1.392 1_655 S
C529 C533 1.495 . S
C530 C529 1.392 1_455 S
C530 C531 1.385 . S
C530 C532 1.478 . S
C531 H525 0.930 . S
C531 C527 1.400 1_545 S
C531 C530 1.385 . S
C532 C530 1.478 . S
C532 C534 1.381 . S
C532 C538 1.383 . S
C533 C529 1.495 . S
C533 H539 0.959 . S
C533 H540 0.961 . S
C533 H541 0.960 . S
C534 C532 1.381 . S
C534 C535 1.394 . S
C534 H542 0.930 . S
C535 C534 1.394 . S
C535 C536 1.383 . S
C535 H543 0.929 . S
C536 C535 1.383 . S
C536 C537 1.377 . S
C537 H521 0.930 . S
C537 C536 1.377 . S
C537 C538 1.379 . S
C538 H522 0.931 . S
C538 C532 1.383 . S
C538 C537 1.379 . S
H539 C533 0.959 . S
H540 C533 0.961 . S
H541 C533 0.960 . S
H542 C534 0.930 . S
H543 C535 0.929 . S
H544 C552 0.929 . S
H545 C554 0.930 . S
H546 C556 0.930 . S
H547 C559 0.929 . S
H548 C562 0.930 . S
H549 C564 0.960 . S
H550 C564 0.960 . S
H551 C564 0.960 . S
C552 H544 0.929 . S
C552 C553 1.377 . S
C552 C554 1.384 . S
C553 C552 1.377 . S
C553 C559 1.390 . S
C554 H545 0.930 . S
C554 C552 1.384 . S
C554 C555 1.372 . S
C555 C554 1.372 . S
C555 C556 1.400 . S
C555 C560 1.490 . S
C556 H546 0.930 . S
C556 C555 1.400 . S
C556 C559 1.386 . S
H557 C573 0.930 . S
H558 C574 0.931 . S
C559 H547 0.929 . S
C559 C553 1.390 . S
C559 C556 1.386 . S
C560 C555 1.490 . S
C560 C562 1.395 1_655 S
C560 C563 1.403 . S
H561 C567 0.930 . S
C562 H548 0.930 . S
C562 C560 1.395 1_455 S
C562 C565 1.403 . S
C563 C560 1.403 . S
C563 C564 1.524 . S
C563 C567 1.400 . S
C564 H549 0.960 . S
C564 H550 0.960 . S
C564 H551 0.960 . S
C564 C563 1.524 . S
C565 C562 1.403 . S
C565 C566 1.392 . S
C565 C569 1.495 . S
C566 C565 1.392 . S
C566 C567 1.385 1_455 S
C566 C568 1.478 . S
C567 H561 0.930 . S
C567 C563 1.400 . S
C567 C566 1.385 1_655 S
C568 C566 1.478 . S
C568 C570 1.381 . S
C568 C574 1.383 . S
C569 C565 1.495 . S
C569 H575 0.959 . S
C569 H576 0.961 . S
C569 H577 0.960 . S
C570 C568 1.381 . S
C570 C571 1.394 . S
C570 H578 0.930 . S
C571 C570 1.394 . S
C571 C572 1.383 . S
C571 H579 0.929 . S
C572 C571 1.383 . S
C572 C573 1.377 . S
C573 H557 0.930 . S
C573 C572 1.377 . S
C573 C574 1.379 . S
C574 H558 0.931 . S
C574 C568 1.383 . S
C574 C573 1.379 . S
H575 C569 0.959 . S
H576 C569 0.961 . S
H577 C569 0.960 . S
H578 C570 0.930 . S
H579 C571 0.929 . S
H580 C588 0.929 . S
H581 C590 0.930 . S
H582 C592 0.930 . S
H583 C595 0.929 . S
H584 C598 0.930 . S
H585 C600 0.960 . S
H586 C600 0.960 . S
H587 C600 0.960 . S
C588 H580 0.929 . S
C588 C589 1.377 . S
C588 C590 1.384 . S
C589 C588 1.377 . S
C589 C595 1.390 . S
C590 H581 0.930 . S
C590 C588 1.384 . S
C590 C591 1.372 . S
C591 C590 1.372 . S
C591 C592 1.400 . S
C591 C596 1.490 . S
C592 H582 0.930 . S
C592 C591 1.400 . S
C592 C595 1.386 . S
H593 C609 0.930 . S
H594 C610 0.931 . S
C595 H583 0.929 . S
C595 C589 1.390 . S
C595 C592 1.386 . S
C596 C591 1.490 . S
C596 C598 1.395 . S
C596 C599 1.403 . S
H597 C603 0.930 . S
C598 H584 0.930 . S
C598 C596 1.395 . S
C598 C601 1.403 . S
C599 C596 1.403 . S
C599 C600 1.524 . S
C599 C603 1.400 . S
C600 H585 0.960 . S
C600 H586 0.960 . S
C600 H587 0.960 . S
C600 C599 1.524 . S
C601 C598 1.403 . S
C601 C602 1.392 . S
C601 C605 1.495 . S
C602 C601 1.392 . S
C602 C603 1.385 . S
C602 C604 1.478 . S
C603 H597 0.930 . S
C603 C599 1.400 . S
C603 C602 1.385 . S
C604 C602 1.478 . S
C604 C606 1.381 . S
C604 C610 1.383 . S
C605 C601 1.495 . S
C605 H611 0.959 . S
C605 H612 0.961 . S
C605 H613 0.960 . S
C606 C604 1.381 . S
C606 C607 1.394 . S
C606 H614 0.930 . S
C607 C606 1.394 . S
C607 C608 1.383 . S
C607 H615 0.929 . S
C608 C607 1.383 . S
C608 C609 1.377 . S
C609 H593 0.930 . S
C609 C608 1.377 . S
C609 C610 1.379 . S
C610 H594 0.931 . S
C610 C604 1.383 . S
C610 C609 1.379 . S
H611 C605 0.959 . S
H612 C605 0.961 . S
H613 C605 0.960 . S
H614 C606 0.930 . S
H615 C607 0.929 . S
H616 C624 0.929 . S
H617 C626 0.930 . S
H618 C628 0.930 . S
H619 C631 0.929 . S
H620 C634 0.930 . S
H621 C636 0.960 . S
H622 C636 0.960 . S
H623 C636 0.960 . S
C624 H616 0.929 . S
C624 C625 1.377 . S
C624 C626 1.384 . S
C625 C624 1.377 . S
C625 C631 1.390 . S
C626 H617 0.930 . S
C626 C624 1.384 . S
C626 C627 1.372 . S
C627 C626 1.372 . S
C627 C628 1.400 . S
C627 C632 1.490 . S
C628 H618 0.930 . S
C628 C627 1.400 . S
C628 C631 1.386 . S
H629 C645 0.930 . S
H630 C646 0.931 . S
C631 H619 0.929 . S
C631 C625 1.390 . S
C631 C628 1.386 . S
C632 C627 1.490 . S
C632 C634 1.395 1_554 S
C632 C635 1.403 . S
H633 C639 0.930 . S
C634 H620 0.930 . S
C634 C632 1.395 1_556 S
C634 C637 1.403 . S
C635 C632 1.403 . S
C635 C636 1.524 . S
C635 C639 1.400 . S
C636 H621 0.960 . S
C636 H622 0.960 . S
C636 H623 0.960 . S
C636 C635 1.524 . S
C637 C634 1.403 . S
C637 C638 1.392 . S
C637 C641 1.495 . S
C638 C637 1.392 . S
C638 C639 1.385 1_556 S
C638 C640 1.478 . S
C639 H633 0.930 . S
C639 C635 1.400 . S
C639 C638 1.385 1_554 S
C640 C638 1.478 . S
C640 C642 1.381 . S
C640 C646 1.383 . S
C641 C637 1.495 . S
C641 H647 0.959 . S
C641 H648 0.961 . S
C641 H649 0.960 . S
C642 C640 1.381 . S
C642 C643 1.394 . S
C642 H650 0.930 . S
C643 C642 1.394 . S
C643 C644 1.383 . S
C643 H651 0.929 . S
C644 C643 1.383 . S
C644 C645 1.377 . S
C645 H629 0.930 . S
C645 C644 1.377 . S
C645 C646 1.379 . S
C646 H630 0.931 . S
C646 C640 1.383 . S
C646 C645 1.379 . S
H647 C641 0.959 . S
H648 C641 0.961 . S
H649 C641 0.960 . S
H650 C642 0.930 . S
H651 C643 0.929 . S
H652 C660 0.929 . S
H653 C662 0.930 . S
H654 C664 0.930 . S
H655 C667 0.929 . S
H656 C670 0.930 . S
H657 C672 0.960 . S
H658 C672 0.960 . S
H659 C672 0.960 . S
C660 H652 0.929 . S
C660 C661 1.377 . S
C660 C662 1.384 . S
C661 C660 1.377 . S
C661 C667 1.390 . S
C662 H653 0.930 . S
C662 C660 1.384 . S
C662 C663 1.372 . S
C663 C662 1.372 . S
C663 C664 1.400 . S
C663 C668 1.490 . S
C664 H654 0.930 . S
C664 C663 1.400 . S
C664 C667 1.386 . S
H665 C681 0.930 . S
H666 C682 0.931 . S
C667 H655 0.929 . S
C667 C661 1.390 . S
C667 C664 1.386 . S
C668 C663 1.490 . S
C668 C670 1.395 . S
C668 C671 1.403 . S
H669 C675 0.930 . S
C670 H656 0.930 . S
C670 C668 1.395 . S
C670 C673 1.403 . S
C671 C668 1.403 . S
C671 C672 1.524 . S
C671 C675 1.400 . S
C672 H657 0.960 . S
C672 H658 0.960 . S
C672 H659 0.960 . S
C672 C671 1.524 . S
C673 C670 1.403 . S
C673 C674 1.392 . S
C673 C677 1.495 . S
C674 C673 1.392 . S
C674 C675 1.385 . S
C674 C676 1.478 . S
C675 H669 0.930 . S
C675 C671 1.400 . S
C675 C674 1.385 . S
C676 C674 1.478 . S
C676 C678 1.381 . S
C676 C682 1.383 . S
C677 C673 1.495 . S
C677 H683 0.959 . S
C677 H684 0.961 . S
C677 H685 0.960 . S
C678 C676 1.381 . S
C678 C679 1.394 . S
C678 H686 0.930 . S
C679 C678 1.394 . S
C679 C680 1.383 . S
C679 H687 0.929 . S
C680 C679 1.383 . S
C680 C681 1.377 . S
C681 H665 0.930 . S
C681 C680 1.377 . S
C681 C682 1.379 . S
C682 H666 0.931 . S
C682 C676 1.383 . S
C682 C681 1.379 . S
H683 C677 0.959 . S
H684 C677 0.961 . S
H685 C677 0.960 . S
H686 C678 0.930 . S
H687 C679 0.929 . S
C121 C73 1.499 . S
C140 C3 1.490 . S
C157 C107 1.487 . S
C176 C22 1.494 . S
C193 C35 1.476 . S
C212 C91 1.480 . S
C229 C51 1.488 . S
C248 C64 1.492 . S
C265 C92 1.499 . S
C284 C9 1.469 . S
C301 C21 1.469 . S
C320 C63 1.450 . S
C337 C79 1.484 . S
C356 C36 1.497 . S
C373 C45 1.498 . S
C392 C101 1.489 . S
C409 C65 1.484 . S
C428 C78 1.498 . S
C445 C17 1.497 . S
C464 C31 1.492 . S
C481 C50 1.499 . S
C500 C37 1.472 . S
C517 C49 1.476 . S
C536 C7 1.486 . S
C553 C23 1.487 . S
C572 C8 1.493 . S
C589 C106 1.498 . S
C608 C93 1.491 . S
C625 C59 1.497 . S
C644 C87 1.492 . S
C661 C77 1.472 . S
C680 C105 1.480 . S
