# Generated by pormake.
# Topology wib, (6)-cn, num edge types: 1
# Building blocks:
#     Node 0, Type 0, BuildingBlock: IZENUY_clean_sbu_0, # of connection points: 6
#     Node 1, Type 0, BuildingBlock: IZENUY_clean_sbu_0, # of connection points: 6
#     Node 2, Type 0, BuildingBlock: IZENUY_clean_sbu_0, # of connection points: 6
#     Node 3, Type 0, BuildingBlock: IZENUY_clean_sbu_0, # of connection points: 6
#     Node 4, Type 0, BuildingBlock: IZENUY_clean_sbu_0, # of connection points: 6
#     Node 5, Type 0, BuildingBlock: IZENUY_clean_sbu_0, # of connection points: 6
#     Node 6, Type 0, BuildingBlock: IZENUY_clean_sbu_0, # of connection points: 6
#     Node 7, Type 0, BuildingBlock: IZENUY_clean_sbu_0, # of connection points: 6
#     Node 8, Type 0, BuildingBlock: IZENUY_clean_sbu_0, # of connection points: 6
#     Node 9, Type 0, BuildingBlock: IZENUY_clean_sbu_0, # of connection points: 6
#     Node 10, Type 0, BuildingBlock: IZENUY_clean_sbu_0, # of connection points: 6
#     Node 11, Type 0, BuildingBlock: IZENUY_clean_sbu_0, # of connection points: 6
#     Node 12, Type 0, BuildingBlock: IZENUY_clean_sbu_0, # of connection points: 6
#     Node 13, Type 0, BuildingBlock: IZENUY_clean_sbu_0, # of connection points: 6
#     Node 14, Type 0, BuildingBlock: IZENUY_clean_sbu_0, # of connection points: 6
#     Node 15, Type 0, BuildingBlock: IZENUY_clean_sbu_0, # of connection points: 6
#     Edge 16, Type (0, 0), None
#     Edge 17, Type (0, 0), None
#     Edge 18, Type (0, 0), None
#     Edge 19, Type (0, 0), None
#     Edge 20, Type (0, 0), None
#     Edge 21, Type (0, 0), None
#     Edge 22, Type (0, 0), None
#     Edge 23, Type (0, 0), None
#     Edge 24, Type (0, 0), None
#     Edge 25, Type (0, 0), None
#     Edge 26, Type (0, 0), None
#     Edge 27, Type (0, 0), None
#     Edge 28, Type (0, 0), None
#     Edge 29, Type (0, 0), None
#     Edge 30, Type (0, 0), None
#     Edge 31, Type (0, 0), None
#     Edge 32, Type (0, 0), None
#     Edge 33, Type (0, 0), None
#     Edge 34, Type (0, 0), None
#     Edge 35, Type (0, 0), None
#     Edge 36, Type (0, 0), None
#     Edge 37, Type (0, 0), None
#     Edge 38, Type (0, 0), None
#     Edge 39, Type (0, 0), None
#     Edge 40, Type (0, 0), None
#     Edge 41, Type (0, 0), None
#     Edge 42, Type (0, 0), None
#     Edge 43, Type (0, 0), None
#     Edge 44, Type (0, 0), None
#     Edge 45, Type (0, 0), None
#     Edge 46, Type (0, 0), None
#     Edge 47, Type (0, 0), None
#     Edge 48, Type (0, 0), None
#     Edge 49, Type (0, 0), None
#     Edge 50, Type (0, 0), None
#     Edge 51, Type (0, 0), None
#     Edge 52, Type (0, 0), None
#     Edge 53, Type (0, 0), None
#     Edge 54, Type (0, 0), None
#     Edge 55, Type (0, 0), None
#     Edge 56, Type (0, 0), None
#     Edge 57, Type (0, 0), None
#     Edge 58, Type (0, 0), None
#     Edge 59, Type (0, 0), None
#     Edge 60, Type (0, 0), None
#     Edge 61, Type (0, 0), None
#     Edge 62, Type (0, 0), None
#     Edge 63, Type (0, 0), None
# Relax obj value: 0.442
# Max RMSD: 0.268
# Mean RMSD: 0.268
data_MOF--net-wib--node1-IZENUY_clean_sbu_0--edge1-none
_symmetry_space_group_name_H-M    P1
_symmetry_Int_Tables_number       1
_symmetry_cell_setting            triclinic
loop_
_symmetry_equiv_pos_as_xyz
'x, y, z'
_cell_length_a     13.956928
_cell_length_b     13.95708
_cell_length_c     26.306848
_cell_angle_alpha  90.000547
_cell_angle_beta   90.000789
_cell_angle_gamma 89.999575
loop_
_atom_site_label
_atom_site_type_symbol
_atom_site_fract_x
_atom_site_fract_y
_atom_site_fract_z
_atom_type_partial_charge
Fe0 Fe 0.07206 0.66709 0.29316 0.0
Fe1 Fe 0.15913 0.46553 0.29429 0.0
O2 O 0.14931 0.57919 0.32005 0.0
Fe3 Fe 0.21442 0.60817 0.37622 0.0
O4 O 0.28388 0.68446 0.34165 0.0
O5 O 0.15981 0.75838 0.30715 0.0
O6 O 0.12429 0.66999 0.23287 0.0
C7 C 0.14208 0.60139 0.20492 0.0
C8 C 0.04724 0.72843 0.38198 0.0
O9 O 0.15009 0.5153 0.2247 0.0
C10 C 0.17269 0.44033 0.40681 0.0
O11 O 0.97978 0.58738 0.27239 0.0
O12 O 1.02355 0.44681 0.30122 0.0
O13 O 0.1334 0.70979 0.39458 0.0
O14 O 1.00972 0.67288 0.35172 0.0
C15 C 0.35005 0.48831 0.32553 0.0
O16 O 0.17783 0.40586 0.3607 0.0
O17 O 0.14748 0.52591 0.41285 0.0
C18 C 0.95682 0.50719 0.2898 0.0
O19 O 0.29352 0.47735 0.28749 0.0
O20 O 0.31414 0.52063 0.3664 0.0
C21 C 0.24872 0.74601 0.31361 0.0
Fe22 Fe 0.34368 0.40913 0.54428 0.0
Fe23 Fe 0.20102 0.46458 0.62617 0.0
O24 O 0.23001 0.39934 0.57003 0.0
Fe25 Fe 0.14208 0.32208 0.54318 0.0
O26 O 0.13924 0.37406 0.48283 0.0
O27 O 0.29393 0.40012 0.47469 0.0
O28 O 0.3319 0.54351 0.53746 0.0
C29 C 0.321 0.60007 0.57549 0.0
C30 C 0.30201 0.2068 0.53984 0.0
O31 O 0.28871 0.56418 0.61637 0.0
C32 C 0.08059 0.29757 0.63198 0.0
O33 O 0.4033 0.42777 0.61071 0.0
O34 O 0.28315 0.39759 0.66285 0.0
O35 O 0.22171 0.22966 0.52253 0.0
O36 O 0.3624 0.27356 0.55118 0.0
C37 C 0.06336 0.4989 0.56346 0.0
O38 O 0.09925 0.38375 0.64453 0.0
O39 O 0.13621 0.25995 0.6018 0.0
C40 C 0.36877 0.42266 0.65682 0.0
O41 O 0.12488 0.53406 0.59152 0.0
O42 O 0.05088 0.40999 0.55706 0.0
C43 C 0.20785 0.39198 0.45491 0.0
Fe44 Fe 0.40005 0.59365 0.79428 0.0
Fe45 Fe 0.34477 0.451 0.87622 0.0
O46 O 0.40988 0.47998 0.82005 0.0
Fe47 Fe 0.48714 0.39208 0.79316 0.0
O48 O 0.43494 0.38916 0.73286 0.0
O49 O 0.40907 0.54387 0.72469 0.0
O50 O 0.26566 0.58183 0.78749 0.0
C51 C 0.20914 0.57087 0.82553 0.0
C52 C 0.60237 0.55199 0.7898 0.0
O53 O 0.24506 0.53855 0.8664 0.0
C54 C 0.51194 0.33074 0.88198 0.0
O55 O 0.38137 0.65332 0.86069 0.0
O56 O 0.41172 0.53327 0.91284 0.0
O57 O 0.57943 0.47178 0.77241 0.0
O58 O 0.53564 0.61237 0.8012 0.0
C59 C 0.31047 0.31317 0.81361 0.0
O60 O 0.42578 0.34938 0.89458 0.0
O61 O 0.54946 0.3863 0.85173 0.0
C62 C 0.3865 0.61884 0.90681 0.0
O63 O 0.27531 0.37472 0.84165 0.0
O64 O 0.39938 0.30079 0.80714 0.0
C65 C 0.41712 0.45777 0.70493 0.0
Fe66 Fe 0.21551 0.65005 1.04427 0.0
Fe67 Fe 0.35817 0.5946 0.12616 0.0
O68 O 0.32918 0.65984 0.07003 0.0
Fe69 Fe 0.41711 0.73709 1.04318 0.0
O70 O 0.41995 0.68511 0.98283 0.0
O71 O 0.26527 0.65905 0.97468 0.0
O72 O 0.2273 0.51567 1.03745 0.0
C73 C 0.23819 0.45911 0.07548 0.0
C74 C 0.25718 0.85238 1.03983 0.0
O75 O 0.27049 0.495 0.11636 0.0
C76 C 0.4786 0.76161 0.13198 0.0
O77 O 0.15589 0.63141 0.1107 0.0
O78 O 0.27604 0.6616 0.16284 0.0
O79 O 0.33748 0.82951 1.02253 0.0
O80 O 0.19679 0.78562 1.05117 0.0
C81 C 0.49583 0.56028 0.06346 0.0
O82 O 0.45994 0.67544 0.14452 0.0
O83 O 0.42298 0.79923 0.10179 0.0
C84 C 0.19042 0.63651 0.15681 0.0
O85 O 0.43431 0.52512 0.09152 0.0
O86 O 0.50831 0.64919 0.05706 0.0
C87 C 0.35134 0.6672 0.9549 0.0
Fe88 Fe 0.84477 0.45101 0.73439 0.0
Fe89 Fe 0.98711 0.39209 0.81746 0.0
O90 O 0.90987 0.47999 0.79057 0.0
Fe91 Fe 0.90005 0.59366 0.81633 0.0
O92 O 0.76566 0.58185 0.82314 0.0
O93 O 0.74504 0.53854 0.74421 0.0
O94 O 0.77531 0.3747 0.76896 0.0
C95 C 0.81047 0.31316 0.797 0.0
C96 C 0.88648 0.61885 0.70381 0.0
O97 O 0.89937 0.30079 0.80347 0.0
C98 C 0.10235 0.552 0.82084 0.0
O99 O 0.9258 0.3494 0.71603 0.0
O100 O 0.04947 0.3863 0.7589 0.0
O101 O 0.88135 0.65333 0.74992 0.0
O102 O 0.9117 0.53328 0.69777 0.0
C103 C 0.91709 0.45779 0.9057 0.0
O104 O 0.0794 0.4718 0.83823 0.0
O105 O 0.03563 0.61237 0.8094 0.0
C106 C 1.01195 0.33075 0.72864 0.0
O107 O 0.93488 0.38919 0.87775 0.0
O108 O 0.90909 0.54388 0.88592 0.0
C109 C 0.70916 0.57085 0.78509 0.0
Fe110 Fe 0.9171 0.73711 0.56744 0.0
Fe111 Fe 0.71551 0.65005 0.56634 0.0
O112 O 0.82918 0.65984 0.54059 0.0
Fe113 Fe 0.85819 0.59459 0.48446 0.0
O114 O 0.93432 0.52511 0.51912 0.0
O115 O 1.00828 0.64918 0.55358 0.0
O116 O 0.91993 0.68517 0.6278 0.0
C117 C 0.85132 0.66721 0.65572 0.0
C118 C 0.97861 0.76159 0.47864 0.0
O119 O 0.76525 0.65904 0.63593 0.0
C120 C 0.69044 0.63651 0.4538 0.0
O121 O 0.83748 0.82954 0.58808 0.0
O122 O 0.69679 0.78562 0.55944 0.0
O123 O 0.95997 0.67541 0.46611 0.0
O124 O 0.92298 0.79922 0.50882 0.0
C125 C 0.7382 0.45911 0.53513 0.0
O126 O 0.65591 0.63142 0.4999 0.0
O127 O 0.77607 0.66158 0.44777 0.0
C128 C 0.75717 0.85239 0.57078 0.0
O129 O 0.7273 0.51567 0.57315 0.0
O130 O 0.7705 0.49499 0.49425 0.0
C131 C 0.99569 0.56026 0.54727 0.0
Fe132 Fe 0.65915 0.46552 0.31634 0.0
Fe133 Fe 0.71442 0.60817 0.2344 0.0
O134 O 0.64932 0.57919 0.29057 0.0
Fe135 Fe 0.57206 0.6671 0.31746 0.0
O136 O 0.62427 0.67002 0.37775 0.0
O137 O 0.65012 0.5153 0.38593 0.0
O138 O 0.79353 0.47733 0.32314 0.0
C139 C 0.85003 0.48833 0.28509 0.0
C140 C 0.45684 0.50718 0.32084 0.0
O141 O 0.81415 0.52064 0.24421 0.0
C142 C 0.54725 0.72843 0.22864 0.0
O143 O 0.67784 0.40585 0.24993 0.0
O144 O 0.64748 0.5259 0.19778 0.0
O145 O 0.47977 0.5874 0.33822 0.0
O146 O 0.52356 0.4468 0.30941 0.0
C147 C 0.74872 0.74601 0.297 0.0
O148 O 0.6334 0.70979 0.21603 0.0
O149 O 0.50973 0.67287 0.25889 0.0
C150 C 0.6727 0.44032 0.20382 0.0
O151 O 0.78388 0.68447 0.26896 0.0
O152 O 0.65982 0.75839 0.30347 0.0
C153 C 0.64209 0.6014 0.40569 0.0
Fe154 Fe 0.64209 0.32207 0.06745 0.0
Fe155 Fe 0.84368 0.40913 0.06635 0.0
O156 O 0.73001 0.39933 1.04059 0.0
Fe157 Fe 0.701 0.46458 0.98446 0.0
O158 O 0.62487 0.53407 1.01912 0.0
O159 O 0.55091 0.41 1.05358 0.0
O160 O 0.63925 0.37401 0.12781 0.0
C161 C 0.70787 0.39197 0.15572 0.0
C162 C 0.58058 0.29758 0.97864 0.0
O163 O 0.79393 0.40013 0.13594 0.0
C164 C 0.86874 0.42267 0.95381 0.0
O165 O 0.72171 0.22964 0.08808 0.0
O166 O 0.8624 0.27356 0.05945 0.0
O167 O 0.59922 0.38376 0.96611 0.0
O168 O 0.63621 0.25995 1.00882 0.0
C169 C 0.82098 0.60007 1.03514 0.0
O170 O 0.90329 0.42776 0.99991 0.0
O171 O 0.78312 0.39759 0.94778 0.0
C172 C 0.80202 0.20679 0.07079 0.0
O173 O 0.83189 0.54351 0.07316 0.0
O174 O 0.78869 0.56418 0.99425 0.0
C175 C 0.5635 0.49892 1.04727 0.0
Fe176 Fe 0.65915 0.9655 0.79433 0.0
Fe177 Fe 0.71479 0.10821 0.87618 0.0
O178 O 0.6494 0.07916 0.82009 0.0
Fe179 Fe 0.57213 0.16709 0.79324 0.0
O180 O 0.62392 0.16986 0.73284 0.0
O181 O 0.65016 1.01522 0.72475 0.0
O182 O 0.79352 0.97725 0.78749 0.0
C183 C 0.85012 0.98811 0.8255 0.0
C184 C 0.45681 1.00716 0.78992 0.0
O185 O 0.81428 1.02041 0.86639 0.0
C186 C 0.54791 0.22873 0.88202 0.0
O187 O 0.67776 0.90593 0.86078 0.0
O188 O 0.64781 1.02616 0.91293 0.0
O189 O 0.47959 0.08754 0.7727 0.0
O190 O 0.5236 0.94678 0.80123 0.0
C191 C 0.74911 0.24552 0.81325 0.0
O192 O 0.6341 0.21011 0.89455 0.0
O193 O 0.51018 0.17305 0.85191 0.0
C194 C 0.67275 0.94049 0.90689 0.0
O195 O 0.78427 0.18424 0.84145 0.0
O196 O 0.66018 0.2582 0.80702 0.0
C197 C 0.64197 0.10126 0.70493 0.0
Fe198 Fe 0.64209 0.82211 1.04323 0.0
Fe199 Fe 0.84368 0.90915 1.04433 0.0
O200 O 0.73 0.89937 0.0701 0.0
Fe201 Fe 0.70099 0.9646 0.12624 0.0
O202 O 0.62479 0.03407 0.0916 0.0
O203 O 0.55087 0.90999 0.05712 0.0
O204 O 0.63923 0.87412 0.98288 0.0
C205 C 0.70785 0.89207 0.95497 0.0
C206 C 0.58063 0.79757 0.13202 0.0
O207 O 0.79393 0.90015 0.97475 0.0
C208 C 0.86881 0.92274 0.15687 0.0
O209 O 0.72172 0.72969 1.02256 0.0
O210 O 0.86239 0.77358 1.05125 0.0
O211 O 0.59925 0.88373 0.14462 0.0
O212 O 0.63624 0.75995 0.10184 0.0
C213 C 0.82097 0.10005 0.07554 0.0
O214 O 0.90331 0.9278 0.11076 0.0
O215 O 0.78319 0.89766 0.16292 0.0
C216 C 0.80202 0.70682 1.03987 0.0
O217 O 0.83191 0.04352 1.03751 0.0
O218 O 0.78864 0.06422 0.11643 0.0
C219 C 0.56333 0.9989 0.06351 0.0
Fe220 Fe 0.90003 0.09368 0.29433 0.0
Fe221 Fe 0.8444 0.95097 0.37618 0.0
O222 O 0.90979 0.98001 0.32008 0.0
Fe223 Fe 0.98707 0.89207 0.29325 0.0
O224 O 0.93531 0.88929 0.23283 0.0
O225 O 0.909 0.04395 0.22474 0.0
O226 O 0.76567 0.08192 0.28749 0.0
C227 C 0.70907 0.07107 0.3255 0.0
C228 C 0.10239 0.05202 0.28992 0.0
O229 O 0.74491 0.03877 0.36639 0.0
C230 C 1.01127 0.83045 0.38202 0.0
O231 O 0.88143 0.15324 0.36077 0.0
O232 O 0.91138 0.03302 0.41292 0.0
O233 O 0.07962 0.97162 0.27271 0.0
O234 O 0.03559 0.1124 0.30122 0.0
C235 C 0.81008 0.81366 0.31324 0.0
O236 O 0.92508 0.84907 0.39455 0.0
O237 O 0.049 0.88613 0.35192 0.0
C238 C 0.88645 0.11869 0.40688 0.0
O239 O 0.77492 0.87494 0.34145 0.0
O240 O 0.89901 0.80097 0.30702 0.0
C241 C 0.91723 0.95791 0.20494 0.0
Fe242 Fe 0.71551 0.15003 0.54433 0.0
Fe243 Fe 0.8582 0.09458 0.62624 0.0
O244 O 0.82919 0.15981 0.57009 0.0
Fe245 Fe 0.9171 0.23707 0.54322 0.0
O246 O 0.91996 0.18505 0.48288 0.0
O247 O 0.76527 0.15902 0.47474 0.0
O248 O 0.72728 1.01566 0.53751 0.0
C249 C 0.73822 0.95913 0.57554 0.0
C250 C 0.75717 0.35235 0.53986 0.0
O251 O 0.77055 0.99496 0.61642 0.0
C252 C 0.97856 0.26161 0.63202 0.0
O253 O 0.65588 0.13137 0.61075 0.0
O254 O 0.776 0.16153 0.66291 0.0
O255 O 0.83747 0.32949 0.52255 0.0
O256 O 0.69679 0.2856 0.55124 0.0
C257 C 0.99586 0.06028 0.56351 0.0
O258 O 0.95994 0.17546 0.64461 0.0
O259 O 0.92295 0.29923 0.60183 0.0
C260 C 0.69038 0.13643 0.65686 0.0
O261 O 0.9344 1.02511 0.5916 0.0
O262 O 1.00832 0.14919 0.55712 0.0
C263 C 0.85135 0.16711 0.45497 0.0
Fe264 Fe 0.34439 0.95097 0.23443 0.0
Fe265 Fe 0.48704 0.89209 0.31738 0.0
O266 O 0.40977 0.98002 0.29053 0.0
Fe267 Fe 0.40003 0.09369 0.31629 0.0
O268 O 0.26566 0.08194 0.32313 0.0
O269 O 0.24489 0.03876 0.24422 0.0
O270 O 0.27491 0.87493 0.26916 0.0
C271 C 0.31007 0.81365 0.29737 0.0
C272 C 0.38643 0.1187 0.20374 0.0
O273 O 0.399 0.80097 0.3036 0.0
C274 C 0.60237 0.05203 0.32072 0.0
O275 O 0.42509 0.84908 0.21607 0.0
O276 O 0.54901 0.88613 0.25872 0.0
O277 O 0.38141 0.15325 0.24984 0.0
O278 O 0.41137 0.03303 0.19769 0.0
C279 C 0.4172 0.95792 0.40569 0.0
O280 O 0.57959 0.97164 0.33793 0.0
O281 O 0.53558 0.1124 0.30939 0.0
C282 C 0.51128 0.83045 0.2286 0.0
O283 O 0.43525 0.88932 0.37778 0.0
O284 O 0.40902 0.04396 0.38587 0.0
C285 C 0.20909 0.07106 0.28512 0.0
Fe286 Fe 0.41709 0.23709 0.0674 0.0
Fe287 Fe 0.21551 0.15003 0.06628 0.0
O288 O 0.32918 0.15982 1.04052 0.0
Fe289 Fe 0.35822 0.09456 0.98438 0.0
O290 O 0.4344 1.0251 1.01903 0.0
O291 O 0.50829 0.14918 1.05352 0.0
O292 O 0.41994 0.1851 0.12775 0.0
C293 C 0.35132 0.16712 0.15565 0.0
C294 C 0.47857 0.2616 0.9786 0.0
O295 O 0.26525 0.15901 0.13587 0.0
C296 C 0.1904 0.13643 0.95375 0.0
O297 O 0.33747 0.32951 0.08805 0.0
O298 O 0.19679 0.2856 0.05937 0.0
O299 O 0.45997 0.17543 0.96602 0.0
O300 O 0.42295 0.29922 1.00878 0.0
C301 C 0.23824 0.95912 1.03507 0.0
O302 O 0.15589 0.13138 0.99986 0.0
O303 O 0.27603 0.1615 0.9477 0.0
C304 C 0.25716 0.35236 0.07075 0.0
O305 O 0.22729 1.01565 0.0731 0.0
O306 O 0.27056 0.99495 0.99419 0.0
C307 C 0.49572 0.06026 1.04722 0.0
Fe308 Fe 0.15917 0.96549 0.8163 0.0
Fe309 Fe 0.21479 0.10821 0.73444 0.0
O310 O 0.14941 0.07917 0.79054 0.0
Fe311 Fe 0.07213 0.1671 0.81738 0.0
O312 O 0.1239 0.16988 0.87778 0.0
O313 O 0.15019 1.01522 0.88588 0.0
O314 O 0.29353 0.97724 0.82314 0.0
C315 C 0.3501 0.98813 0.78512 0.0
C316 C 0.95682 1.00715 0.82072 0.0
O317 O 0.31429 1.02042 0.74423 0.0
C318 C 0.04792 0.22873 0.7286 0.0
O319 O 0.17777 0.90593 0.74985 0.0
O320 O 0.14781 1.02615 0.6977 0.0
O321 O 0.97958 0.08756 0.83792 0.0
O322 O 1.02361 0.94678 0.8094 0.0
C323 C 0.24912 0.24553 0.79737 0.0
O324 O 0.13411 0.2101 0.71607 0.0
O325 O 1.01019 0.17305 0.75871 0.0
C326 C 0.17276 0.94048 0.70374 0.0
O327 O 0.28428 0.18425 0.76916 0.0
O328 O 0.16019 0.25821 0.8036 0.0
C329 C 0.14198 0.10127 0.90567 0.0
Fe330 Fe 0.14209 0.82209 0.5674 0.0
Fe331 Fe 0.34368 0.90915 0.56629 0.0
O332 O 0.23 0.89936 0.54053 0.0
Fe333 Fe 0.20097 0.96461 0.48439 0.0
O334 O 0.12479 0.03407 0.51903 0.0
O335 O 0.0509 0.90999 0.55352 0.0
O336 O 0.13924 0.87408 0.62775 0.0
C337 C 0.20786 0.89205 0.65566 0.0
C338 C 0.08062 0.79757 0.4786 0.0
O339 O 0.29393 0.90016 0.63587 0.0
C340 C 0.36879 0.92275 0.45376 0.0
O341 O 0.22172 0.72966 0.58806 0.0
O342 O 0.3624 0.77358 0.55938 0.0
O343 O 0.09922 0.88374 0.46602 0.0
O344 O 0.13624 0.75995 0.50878 0.0
C345 C 0.32095 0.10006 0.53508 0.0
O346 O 0.4033 0.9278 0.49987 0.0
O347 O 0.28316 0.89767 0.44771 0.0
C348 C 0.30203 0.70682 0.57076 0.0
O349 O 0.3319 0.04352 0.57311 0.0
O350 O 0.28863 0.06422 0.49419 0.0
C351 C 0.06347 0.99891 0.54722 0.0
loop_
_geom_bond_atom_site_label_1
_geom_bond_atom_site_label_2
_geom_bond_distance
_geom_bond_site_symmetry_2
_ccdc_geom_bond_type
Fe0 O2 1.918 . S
Fe0 O5 1.997 . S
Fe0 O6 2.002 . S
Fe0 O11 1.976 1_455 S
Fe0 O14 1.996 . S
Fe1 O2 1.918 . S
Fe1 O9 1.997 . S
Fe1 O12 1.996 . S
Fe1 O16 1.976 . S
Fe1 O19 2.002 . S
O2 Fe0 1.918 . S
O2 Fe1 1.918 . S
O2 Fe3 1.918 . S
Fe3 O2 1.918 . S
Fe3 O4 2.002 . S
Fe3 O13 1.976 . S
Fe3 O17 1.996 . S
Fe3 O20 1.997 . S
O4 Fe3 2.002 . S
O4 C21 1.295 . S
O5 Fe0 1.997 . S
O5 C21 1.235 . S
O6 Fe0 2.002 . S
O6 C7 1.295 . S
C7 O6 1.295 . S
C7 O9 1.235 . S
C8 O13 1.287 . S
C8 O14 1.255 . S
O9 Fe1 1.997 . S
O9 C7 1.235 . S
C10 O16 1.287 . S
C10 O17 1.255 . S
O11 Fe0 1.976 1_655 S
O11 C18 1.287 . S
O12 Fe1 1.996 . S
O12 C18 1.255 1_455 S
O13 Fe3 1.976 . S
O13 C8 1.287 . S
O14 Fe0 1.996 . S
O14 C8 1.255 . S
C15 O19 1.295 . S
C15 O20 1.235 . S
O16 Fe1 1.976 . S
O16 C10 1.287 . S
O17 Fe3 1.996 . S
O17 C10 1.255 . S
C18 O11 1.287 . S
C18 O12 1.255 1_655 S
O19 Fe1 2.002 . S
O19 C15 1.295 . S
O20 Fe3 1.997 . S
O20 C15 1.235 . S
C21 O4 1.295 . S
C21 O5 1.235 . S
Fe22 O24 1.918 . S
Fe22 O27 1.997 . S
Fe22 O28 2.002 . S
Fe22 O33 1.976 . S
Fe22 O36 1.996 . S
Fe23 O24 1.918 . S
Fe23 O31 1.997 . S
Fe23 O34 1.996 . S
Fe23 O38 1.976 . S
Fe23 O41 2.002 . S
O24 Fe22 1.918 . S
O24 Fe23 1.918 . S
O24 Fe25 1.918 . S
Fe25 O24 1.918 . S
Fe25 O26 2.002 . S
Fe25 O35 1.976 . S
Fe25 O39 1.996 . S
Fe25 O42 1.997 . S
O26 Fe25 2.002 . S
O26 C43 1.295 . S
O27 Fe22 1.997 . S
O27 C43 1.235 . S
O28 Fe22 2.002 . S
O28 C29 1.295 . S
C29 O28 1.295 . S
C29 O31 1.235 . S
C30 O35 1.287 . S
C30 O36 1.255 . S
O31 Fe23 1.997 . S
O31 C29 1.235 . S
C32 O38 1.287 . S
C32 O39 1.255 . S
O33 Fe22 1.976 . S
O33 C40 1.287 . S
O34 Fe23 1.996 . S
O34 C40 1.255 . S
O35 Fe25 1.976 . S
O35 C30 1.287 . S
O36 Fe22 1.996 . S
O36 C30 1.255 . S
C37 O41 1.295 . S
C37 O42 1.235 . S
O38 Fe23 1.976 . S
O38 C32 1.287 . S
O39 Fe25 1.996 . S
O39 C32 1.255 . S
C40 O33 1.287 . S
C40 O34 1.255 . S
O41 Fe23 2.002 . S
O41 C37 1.295 . S
O42 Fe25 1.997 . S
O42 C37 1.235 . S
C43 O26 1.295 . S
C43 O27 1.235 . S
Fe44 O46 1.918 . S
Fe44 O49 1.997 . S
Fe44 O50 2.002 . S
Fe44 O55 1.976 . S
Fe44 O58 1.996 . S
Fe45 O46 1.918 . S
Fe45 O53 1.997 . S
Fe45 O56 1.996 . S
Fe45 O60 1.976 . S
Fe45 O63 2.002 . S
O46 Fe44 1.918 . S
O46 Fe45 1.918 . S
O46 Fe47 1.918 . S
Fe47 O46 1.918 . S
Fe47 O48 2.002 . S
Fe47 O57 1.976 . S
Fe47 O61 1.996 . S
Fe47 O64 1.997 . S
O48 Fe47 2.002 . S
O48 C65 1.295 . S
O49 Fe44 1.997 . S
O49 C65 1.235 . S
O50 Fe44 2.002 . S
O50 C51 1.295 . S
C51 O50 1.295 . S
C51 O53 1.235 . S
C52 O57 1.287 . S
C52 O58 1.255 . S
O53 Fe45 1.997 . S
O53 C51 1.235 . S
C54 O60 1.287 . S
C54 O61 1.255 . S
O55 Fe44 1.976 . S
O55 C62 1.287 . S
O56 Fe45 1.996 . S
O56 C62 1.255 . S
O57 Fe47 1.976 . S
O57 C52 1.287 . S
O58 Fe44 1.996 . S
O58 C52 1.255 . S
C59 O63 1.295 . S
C59 O64 1.235 . S
O60 Fe45 1.976 . S
O60 C54 1.287 . S
O61 Fe47 1.996 . S
O61 C54 1.255 . S
C62 O55 1.287 . S
C62 O56 1.255 . S
O63 Fe45 2.002 . S
O63 C59 1.295 . S
O64 Fe47 1.997 . S
O64 C59 1.235 . S
C65 O48 1.295 . S
C65 O49 1.235 . S
Fe66 O68 1.918 . S
Fe66 O71 1.997 1_554 S
Fe66 O72 2.002 . S
Fe66 O77 1.976 . S
Fe66 O80 1.996 1_554 S
Fe67 O68 1.918 . S
Fe67 O75 1.997 . S
Fe67 O78 1.996 . S
Fe67 O82 1.976 . S
Fe67 O85 2.002 . S
O68 Fe66 1.918 . S
O68 Fe67 1.918 . S
O68 Fe69 1.918 1_554 S
Fe69 O68 1.918 1_556 S
Fe69 O70 2.002 . S
Fe69 O79 1.976 . S
Fe69 O83 1.996 1_556 S
Fe69 O86 1.997 . S
O70 Fe69 2.002 . S
O70 C87 1.295 . S
O71 Fe66 1.997 1_556 S
O71 C87 1.235 . S
O72 Fe66 2.002 . S
O72 C73 1.295 . S
C73 O72 1.295 . S
C73 O75 1.235 . S
C74 O79 1.287 . S
C74 O80 1.255 . S
O75 Fe67 1.997 . S
O75 C73 1.235 . S
C76 O82 1.287 . S
C76 O83 1.255 . S
O77 Fe66 1.976 . S
O77 C84 1.287 . S
O78 Fe67 1.996 . S
O78 C84 1.255 . S
O79 Fe69 1.976 . S
O79 C74 1.287 . S
O80 Fe66 1.996 1_556 S
O80 C74 1.255 . S
C81 O85 1.295 1_556 S
C81 O86 1.235 . S
O82 Fe67 1.976 . S
O82 C76 1.287 . S
O83 Fe69 1.996 1_554 S
O83 C76 1.255 . S
C84 O77 1.287 . S
C84 O78 1.255 . S
O85 Fe67 2.002 . S
O85 C81 1.295 1_554 S
O86 Fe69 1.997 . S
O86 C81 1.235 . S
C87 O70 1.295 . S
C87 O71 1.235 . S
Fe88 O90 1.918 . S
Fe88 O93 1.997 . S
Fe88 O94 2.002 . S
Fe88 O99 1.976 . S
Fe88 O102 1.996 . S
Fe89 O90 1.918 . S
Fe89 O97 1.997 . S
Fe89 O100 1.996 . S
Fe89 O104 1.976 1_655 S
Fe89 O107 2.002 . S
O90 Fe88 1.918 . S
O90 Fe89 1.918 . S
O90 Fe91 1.918 . S
Fe91 O90 1.918 . S
Fe91 O92 2.002 . S
Fe91 O101 1.976 . S
Fe91 O105 1.996 . S
Fe91 O108 1.997 . S
O92 Fe91 2.002 . S
O92 C109 1.295 . S
O93 Fe88 1.997 . S
O93 C109 1.235 . S
O94 Fe88 2.002 . S
O94 C95 1.295 . S
C95 O94 1.295 . S
C95 O97 1.235 . S
C96 O101 1.287 . S
C96 O102 1.255 . S
O97 Fe89 1.997 . S
O97 C95 1.235 . S
C98 O104 1.287 . S
C98 O105 1.255 1_455 S
O99 Fe88 1.976 . S
O99 C106 1.287 . S
O100 Fe89 1.996 . S
O100 C106 1.255 . S
O101 Fe91 1.976 . S
O101 C96 1.287 . S
O102 Fe88 1.996 . S
O102 C96 1.255 . S
C103 O107 1.295 . S
C103 O108 1.235 . S
O104 Fe89 1.976 1_455 S
O104 C98 1.287 . S
O105 Fe91 1.996 . S
O105 C98 1.255 1_655 S
C106 O99 1.287 . S
C106 O100 1.255 . S
O107 Fe89 2.002 . S
O107 C103 1.295 . S
O108 Fe91 1.997 . S
O108 C103 1.235 . S
C109 O92 1.295 . S
C109 O93 1.235 . S
Fe110 O112 1.918 . S
Fe110 O115 1.997 . S
Fe110 O116 2.002 . S
Fe110 O121 1.976 . S
Fe110 O124 1.996 . S
Fe111 O112 1.918 . S
Fe111 O119 1.997 . S
Fe111 O122 1.996 . S
Fe111 O126 1.976 . S
Fe111 O129 2.002 . S
O112 Fe110 1.918 . S
O112 Fe111 1.918 . S
O112 Fe113 1.918 . S
Fe113 O112 1.918 . S
Fe113 O114 2.002 . S
Fe113 O123 1.976 . S
Fe113 O127 1.996 . S
Fe113 O130 1.997 . S
O114 Fe113 2.002 . S
O114 C131 1.295 . S
O115 Fe110 1.997 . S
O115 C131 1.235 . S
O116 Fe110 2.002 . S
O116 C117 1.295 . S
C117 O116 1.295 . S
C117 O119 1.235 . S
C118 O123 1.287 . S
C118 O124 1.255 . S
O119 Fe111 1.997 . S
O119 C117 1.235 . S
C120 O126 1.287 . S
C120 O127 1.255 . S
O121 Fe110 1.976 . S
O121 C128 1.287 . S
O122 Fe111 1.996 . S
O122 C128 1.255 . S
O123 Fe113 1.976 . S
O123 C118 1.287 . S
O124 Fe110 1.996 . S
O124 C118 1.255 . S
C125 O129 1.295 . S
C125 O130 1.235 . S
O126 Fe111 1.976 . S
O126 C120 1.287 . S
O127 Fe113 1.996 . S
O127 C120 1.255 . S
C128 O121 1.287 . S
C128 O122 1.255 . S
O129 Fe111 2.002 . S
O129 C125 1.295 . S
O130 Fe113 1.997 . S
O130 C125 1.235 . S
C131 O114 1.295 . S
C131 O115 1.235 . S
Fe132 O134 1.918 . S
Fe132 O137 1.997 . S
Fe132 O138 2.002 . S
Fe132 O143 1.976 . S
Fe132 O146 1.996 . S
Fe133 O134 1.918 . S
Fe133 O141 1.997 . S
Fe133 O144 1.996 . S
Fe133 O148 1.976 . S
Fe133 O151 2.002 . S
O134 Fe132 1.918 . S
O134 Fe133 1.918 . S
O134 Fe135 1.918 . S
Fe135 O134 1.918 . S
Fe135 O136 2.002 . S
Fe135 O145 1.976 . S
Fe135 O149 1.996 . S
Fe135 O152 1.997 . S
O136 Fe135 2.002 . S
O136 C153 1.295 . S
O137 Fe132 1.997 . S
O137 C153 1.235 . S
O138 Fe132 2.002 . S
O138 C139 1.295 . S
C139 O138 1.295 . S
C139 O141 1.235 . S
C140 O145 1.287 . S
C140 O146 1.255 . S
O141 Fe133 1.997 . S
O141 C139 1.235 . S
C142 O148 1.287 . S
C142 O149 1.255 . S
O143 Fe132 1.976 . S
O143 C150 1.287 . S
O144 Fe133 1.996 . S
O144 C150 1.255 . S
O145 Fe135 1.976 . S
O145 C140 1.287 . S
O146 Fe132 1.996 . S
O146 C140 1.255 . S
C147 O151 1.295 . S
C147 O152 1.235 . S
O148 Fe133 1.976 . S
O148 C142 1.287 . S
O149 Fe135 1.996 . S
O149 C142 1.255 . S
C150 O143 1.287 . S
C150 O144 1.255 . S
O151 Fe133 2.002 . S
O151 C147 1.295 . S
O152 Fe135 1.997 . S
O152 C147 1.235 . S
C153 O136 1.295 . S
C153 O137 1.235 . S
Fe154 O156 1.918 1_554 S
Fe154 O159 1.997 . S
Fe154 O160 2.002 . S
Fe154 O165 1.976 . S
Fe154 O168 1.996 1_554 S
Fe155 O156 1.918 . S
Fe155 O163 1.997 1_556 S
Fe155 O166 1.996 1_556 S
Fe155 O170 1.976 . S
Fe155 O173 2.002 . S
O156 Fe154 1.918 1_556 S
O156 Fe155 1.918 . S
O156 Fe157 1.918 . S
Fe157 O156 1.918 . S
Fe157 O158 2.002 . S
Fe157 O167 1.976 . S
Fe157 O171 1.996 . S
Fe157 O174 1.997 . S
O158 Fe157 2.002 . S
O158 C175 1.295 1_556 S
O159 Fe154 1.997 . S
O159 C175 1.235 . S
O160 Fe154 2.002 . S
O160 C161 1.295 . S
C161 O160 1.295 . S
C161 O163 1.235 . S
C162 O167 1.287 . S
C162 O168 1.255 . S
O163 Fe155 1.997 1_554 S
O163 C161 1.235 . S
C164 O170 1.287 . S
C164 O171 1.255 . S
O165 Fe154 1.976 . S
O165 C172 1.287 . S
O166 Fe155 1.996 1_554 S
O166 C172 1.255 . S
O167 Fe157 1.976 . S
O167 C162 1.287 . S
O168 Fe154 1.996 1_556 S
O168 C162 1.255 . S
C169 O173 1.295 . S
C169 O174 1.235 . S
O170 Fe155 1.976 . S
O170 C164 1.287 . S
O171 Fe157 1.996 . S
O171 C164 1.255 . S
C172 O165 1.287 . S
C172 O166 1.255 . S
O173 Fe155 2.002 . S
O173 C169 1.295 . S
O174 Fe157 1.997 . S
O174 C169 1.235 . S
C175 O158 1.295 1_554 S
C175 O159 1.235 . S
Fe176 O178 1.918 1_565 S
Fe176 O181 1.997 . S
Fe176 O182 2.002 . S
Fe176 O187 1.976 . S
Fe176 O190 1.996 . S
Fe177 O178 1.918 . S
Fe177 O185 1.997 . S
Fe177 O188 1.996 . S
Fe177 O192 1.976 . S
Fe177 O195 2.002 . S
O178 Fe176 1.918 1_545 S
O178 Fe177 1.918 . S
O178 Fe179 1.918 . S
Fe179 O178 1.918 . S
Fe179 O180 2.002 . S
Fe179 O189 1.976 . S
Fe179 O193 1.996 . S
Fe179 O196 1.997 . S
O180 Fe179 2.002 . S
O180 C197 1.295 1_545 S
O181 Fe176 1.997 . S
O181 C197 1.235 . S
O182 Fe176 2.002 . S
O182 C183 1.295 . S
C183 O182 1.295 . S
C183 O185 1.235 1_565 S
C184 O189 1.287 1_565 S
C184 O190 1.255 . S
O185 Fe177 1.997 . S
O185 C183 1.235 1_545 S
C186 O192 1.287 . S
C186 O193 1.255 . S
O187 Fe176 1.976 . S
O187 C194 1.287 . S
O188 Fe177 1.996 . S
O188 C194 1.255 1_545 S
O189 Fe179 1.976 . S
O189 C184 1.287 1_545 S
O190 Fe176 1.996 . S
O190 C184 1.255 . S
C191 O195 1.295 . S
C191 O196 1.235 . S
O192 Fe177 1.976 . S
O192 C186 1.287 . S
O193 Fe179 1.996 . S
O193 C186 1.255 . S
C194 O187 1.287 . S
C194 O188 1.255 1_565 S
O195 Fe177 2.002 . S
O195 C191 1.295 . S
O196 Fe179 1.997 . S
O196 C191 1.235 . S
C197 O180 1.295 1_565 S
C197 O181 1.235 . S
Fe198 O200 1.918 1_556 S
Fe198 O203 1.997 . S
Fe198 O204 2.002 . S
Fe198 O209 1.976 . S
Fe198 O212 1.996 1_556 S
Fe199 O200 1.918 . S
Fe199 O207 1.997 1_554 S
Fe199 O210 1.996 1_554 S
Fe199 O214 1.976 . S
Fe199 O217 2.002 1_565 S
O200 Fe198 1.918 1_554 S
O200 Fe199 1.918 . S
O200 Fe201 1.918 . S
Fe201 O200 1.918 . S
Fe201 O202 2.002 1_565 S
Fe201 O211 1.976 . S
Fe201 O215 1.996 . S
Fe201 O218 1.997 1_565 S
O202 Fe201 2.002 1_545 S
O202 C219 1.295 1_544 S
O203 Fe198 1.997 . S
O203 C219 1.235 . S
O204 Fe198 2.002 . S
O204 C205 1.295 . S
C205 O204 1.295 . S
C205 O207 1.235 . S
C206 O211 1.287 . S
C206 O212 1.255 . S
O207 Fe199 1.997 1_556 S
O207 C205 1.235 . S
C208 O214 1.287 . S
C208 O215 1.255 . S
O209 Fe198 1.976 . S
O209 C216 1.287 . S
O210 Fe199 1.996 1_556 S
O210 C216 1.255 . S
O211 Fe201 1.976 . S
O211 C206 1.287 . S
O212 Fe198 1.996 1_554 S
O212 C206 1.255 . S
C213 O217 1.295 . S
C213 O218 1.235 . S
O214 Fe199 1.976 . S
O214 C208 1.287 . S
O215 Fe201 1.996 . S
O215 C208 1.255 . S
C216 O209 1.287 . S
C216 O210 1.255 . S
O217 Fe199 2.002 1_545 S
O217 C213 1.295 . S
O218 Fe201 1.997 1_545 S
O218 C213 1.235 . S
C219 O202 1.295 1_566 S
C219 O203 1.235 . S
Fe220 O222 1.918 1_545 S
Fe220 O225 1.997 . S
Fe220 O226 2.002 . S
Fe220 O231 1.976 . S
Fe220 O234 1.996 . S
Fe221 O222 1.918 . S
Fe221 O229 1.997 . S
Fe221 O232 1.996 . S
Fe221 O236 1.976 . S
Fe221 O239 2.002 . S
O222 Fe220 1.918 1_565 S
O222 Fe221 1.918 . S
O222 Fe223 1.918 . S
Fe223 O222 1.918 . S
Fe223 O224 2.002 . S
Fe223 O233 1.976 1_655 S
Fe223 O237 1.996 . S
Fe223 O240 1.997 . S
O224 Fe223 2.002 . S
O224 C241 1.295 1_565 S
O225 Fe220 1.997 . S
O225 C241 1.235 . S
O226 Fe220 2.002 . S
O226 C227 1.295 . S
C227 O226 1.295 . S
C227 O229 1.235 1_545 S
C228 O233 1.287 1_545 S
C228 O234 1.255 1_455 S
O229 Fe221 1.997 . S
O229 C227 1.235 1_565 S
C230 O236 1.287 . S
C230 O237 1.255 . S
O231 Fe220 1.976 . S
O231 C238 1.287 . S
O232 Fe221 1.996 . S
O232 C238 1.255 1_565 S
O233 Fe223 1.976 1_455 S
O233 C228 1.287 1_565 S
O234 Fe220 1.996 . S
O234 C228 1.255 1_655 S
C235 O239 1.295 . S
C235 O240 1.235 . S
O236 Fe221 1.976 . S
O236 C230 1.287 . S
O237 Fe223 1.996 . S
O237 C230 1.255 . S
C238 O231 1.287 . S
C238 O232 1.255 1_545 S
O239 Fe221 2.002 . S
O239 C235 1.295 . S
O240 Fe223 1.997 . S
O240 C235 1.235 . S
C241 O224 1.295 1_545 S
C241 O225 1.235 . S
Fe242 O244 1.918 . S
Fe242 O247 1.997 . S
Fe242 O248 2.002 1_545 S
Fe242 O253 1.976 . S
Fe242 O256 1.996 . S
Fe243 O244 1.918 . S
Fe243 O251 1.997 1_545 S
Fe243 O254 1.996 . S
Fe243 O258 1.976 . S
Fe243 O261 2.002 1_545 S
O244 Fe242 1.918 . S
O244 Fe243 1.918 . S
O244 Fe245 1.918 . S
Fe245 O244 1.918 . S
Fe245 O246 2.002 . S
Fe245 O255 1.976 . S
Fe245 O259 1.996 . S
Fe245 O262 1.997 . S
O246 Fe245 2.002 . S
O246 C263 1.295 . S
O247 Fe242 1.997 . S
O247 C263 1.235 . S
O248 Fe242 2.002 1_565 S
O248 C249 1.295 . S
C249 O248 1.295 . S
C249 O251 1.235 . S
C250 O255 1.287 . S
C250 O256 1.255 . S
O251 Fe243 1.997 1_565 S
O251 C249 1.235 . S
C252 O258 1.287 . S
C252 O259 1.255 . S
O253 Fe242 1.976 . S
O253 C260 1.287 . S
O254 Fe243 1.996 . S
O254 C260 1.255 . S
O255 Fe245 1.976 . S
O255 C250 1.287 . S
O256 Fe242 1.996 . S
O256 C250 1.255 . S
C257 O261 1.295 1_545 S
C257 O262 1.235 . S
O258 Fe243 1.976 . S
O258 C252 1.287 . S
O259 Fe245 1.996 . S
O259 C252 1.255 . S
C260 O253 1.287 . S
C260 O254 1.255 . S
O261 Fe243 2.002 1_565 S
O261 C257 1.295 1_565 S
O262 Fe245 1.997 . S
O262 C257 1.235 . S
C263 O246 1.295 . S
C263 O247 1.235 . S
Fe264 O266 1.918 . S
Fe264 O269 1.997 . S
Fe264 O270 2.002 . S
Fe264 O275 1.976 . S
Fe264 O278 1.996 . S
Fe265 O266 1.918 . S
Fe265 O273 1.997 . S
Fe265 O276 1.996 . S
Fe265 O280 1.976 . S
Fe265 O283 2.002 . S
O266 Fe264 1.918 . S
O266 Fe265 1.918 . S
O266 Fe267 1.918 1_565 S
Fe267 O266 1.918 1_545 S
Fe267 O268 2.002 . S
Fe267 O277 1.976 . S
Fe267 O281 1.996 . S
Fe267 O284 1.997 . S
O268 Fe267 2.002 . S
O268 C285 1.295 . S
O269 Fe264 1.997 . S
O269 C285 1.235 1_565 S
O270 Fe264 2.002 . S
O270 C271 1.295 . S
C271 O270 1.295 . S
C271 O273 1.235 . S
C272 O277 1.287 . S
C272 O278 1.255 1_545 S
O273 Fe265 1.997 . S
O273 C271 1.235 . S
C274 O280 1.287 1_545 S
C274 O281 1.255 . S
O275 Fe264 1.976 . S
O275 C282 1.287 . S
O276 Fe265 1.996 . S
O276 C282 1.255 . S
O277 Fe267 1.976 . S
O277 C272 1.287 . S
O278 Fe264 1.996 . S
O278 C272 1.255 1_565 S
C279 O283 1.295 1_545 S
C279 O284 1.235 . S
O280 Fe265 1.976 . S
O280 C274 1.287 1_565 S
O281 Fe267 1.996 . S
O281 C274 1.255 . S
C282 O275 1.287 . S
C282 O276 1.255 . S
O283 Fe265 2.002 . S
O283 C279 1.295 1_565 S
O284 Fe267 1.997 . S
O284 C279 1.235 . S
C285 O268 1.295 . S
C285 O269 1.235 1_545 S
Fe286 O288 1.918 1_554 S
Fe286 O291 1.997 . S
Fe286 O292 2.002 . S
Fe286 O297 1.976 . S
Fe286 O300 1.996 1_554 S
Fe287 O288 1.918 . S
Fe287 O295 1.997 1_556 S
Fe287 O298 1.996 1_556 S
Fe287 O302 1.976 . S
Fe287 O305 2.002 1_545 S
O288 Fe286 1.918 1_556 S
O288 Fe287 1.918 . S
O288 Fe289 1.918 . S
Fe289 O288 1.918 . S
Fe289 O290 2.002 1_545 S
Fe289 O299 1.976 . S
Fe289 O303 1.996 . S
Fe289 O306 1.997 1_545 S
O290 Fe289 2.002 1_565 S
O290 C307 1.295 1_566 S
O291 Fe286 1.997 . S
O291 C307 1.235 . S
O292 Fe286 2.002 . S
O292 C293 1.295 . S
C293 O292 1.295 . S
C293 O295 1.235 . S
C294 O299 1.287 . S
C294 O300 1.255 . S
O295 Fe287 1.997 1_554 S
O295 C293 1.235 . S
C296 O302 1.287 . S
C296 O303 1.255 . S
O297 Fe286 1.976 . S
O297 C304 1.287 . S
O298 Fe287 1.996 1_554 S
O298 C304 1.255 . S
O299 Fe289 1.976 . S
O299 C294 1.287 . S
O300 Fe286 1.996 1_556 S
O300 C294 1.255 . S
C301 O305 1.295 . S
C301 O306 1.235 . S
O302 Fe287 1.976 . S
O302 C296 1.287 . S
O303 Fe289 1.996 . S
O303 C296 1.255 . S
C304 O297 1.287 . S
C304 O298 1.255 . S
O305 Fe287 2.002 1_565 S
O305 C301 1.295 . S
O306 Fe289 1.997 1_565 S
O306 C301 1.235 . S
C307 O290 1.295 1_544 S
C307 O291 1.235 . S
Fe308 O310 1.918 1_565 S
Fe308 O313 1.997 . S
Fe308 O314 2.002 . S
Fe308 O319 1.976 . S
Fe308 O322 1.996 . S
Fe309 O310 1.918 . S
Fe309 O317 1.997 . S
Fe309 O320 1.996 . S
Fe309 O324 1.976 . S
Fe309 O327 2.002 . S
O310 Fe308 1.918 1_545 S
O310 Fe309 1.918 . S
O310 Fe311 1.918 . S
Fe311 O310 1.918 . S
Fe311 O312 2.002 . S
Fe311 O321 1.976 1_455 S
Fe311 O325 1.996 . S
Fe311 O328 1.997 . S
O312 Fe311 2.002 . S
O312 C329 1.295 1_545 S
O313 Fe308 1.997 . S
O313 C329 1.235 . S
O314 Fe308 2.002 . S
O314 C315 1.295 . S
C315 O314 1.295 . S
C315 O317 1.235 1_565 S
C316 O321 1.287 1_565 S
C316 O322 1.255 1_655 S
O317 Fe309 1.997 . S
O317 C315 1.235 1_545 S
C318 O324 1.287 . S
C318 O325 1.255 . S
O319 Fe308 1.976 . S
O319 C326 1.287 . S
O320 Fe309 1.996 . S
O320 C326 1.255 1_545 S
O321 Fe311 1.976 1_655 S
O321 C316 1.287 1_545 S
O322 Fe308 1.996 . S
O322 C316 1.255 1_455 S
C323 O327 1.295 . S
C323 O328 1.235 . S
O324 Fe309 1.976 . S
O324 C318 1.287 . S
O325 Fe311 1.996 . S
O325 C318 1.255 . S
C326 O319 1.287 . S
C326 O320 1.255 1_565 S
O327 Fe309 2.002 . S
O327 C323 1.295 . S
O328 Fe311 1.997 . S
O328 C323 1.235 . S
C329 O312 1.295 1_565 S
C329 O313 1.235 . S
Fe330 O332 1.918 . S
Fe330 O335 1.997 . S
Fe330 O336 2.002 . S
Fe330 O341 1.976 . S
Fe330 O344 1.996 . S
Fe331 O332 1.918 . S
Fe331 O339 1.997 . S
Fe331 O342 1.996 . S
Fe331 O346 1.976 . S
Fe331 O349 2.002 1_565 S
O332 Fe330 1.918 . S
O332 Fe331 1.918 . S
O332 Fe333 1.918 . S
Fe333 O332 1.918 . S
Fe333 O334 2.002 1_565 S
Fe333 O343 1.976 . S
Fe333 O347 1.996 . S
Fe333 O350 1.997 1_565 S
O334 Fe333 2.002 1_545 S
O334 C351 1.295 1_545 S
O335 Fe330 1.997 . S
O335 C351 1.235 . S
O336 Fe330 2.002 . S
O336 C337 1.295 . S
C337 O336 1.295 . S
C337 O339 1.235 . S
C338 O343 1.287 . S
C338 O344 1.255 . S
O339 Fe331 1.997 . S
O339 C337 1.235 . S
C340 O346 1.287 . S
C340 O347 1.255 . S
O341 Fe330 1.976 . S
O341 C348 1.287 . S
O342 Fe331 1.996 . S
O342 C348 1.255 . S
O343 Fe333 1.976 . S
O343 C338 1.287 . S
O344 Fe330 1.996 . S
O344 C338 1.255 . S
C345 O349 1.295 . S
C345 O350 1.235 . S
O346 Fe331 1.976 . S
O346 C340 1.287 . S
O347 Fe333 1.996 . S
O347 C340 1.255 . S
C348 O341 1.287 . S
C348 O342 1.255 . S
O349 Fe331 2.002 1_545 S
O349 C345 1.295 . S
O350 Fe333 1.997 1_545 S
O350 C345 1.235 . S
C351 O334 1.295 1_565 S
C351 O335 1.235 . S
C15 C140 1.879 . S
C348 C29 1.879 . S
C51 C98 1.879 . S
C304 C73 1.879 . S
C52 C109 1.879 . S
C250 C125 1.879 . S
C139 C18 1.879 . S
C169 C216 1.879 . S
C183 C316 1.879 . S
C213 C172 1.879 . S
C274 C227 1.879 . S
C128 C249 1.879 . S
C228 C285 1.879 . S
C301 C74 1.879 . S
C184 C315 1.879 . S
C30 C345 1.879 . S
C21 C271 0.875 . S
C37 C131 0.875 1_455 S
C59 C323 0.875 . S
C175 C81 0.875 1_554 S
C95 C191 0.875 . S
C235 C147 0.875 . S
C219 C307 0.875 1_566 S
C351 C257 0.875 1_465 S
C10 C43 2.143 . S
C65 C40 2.143 . S
C62 C87 2.143 . S
C84 C7 2.143 . S
C117 C96 2.143 . S
C153 C120 2.143 . S
C161 C150 2.143 . S
C103 C164 2.143 . S
C194 C205 2.143 . S
C208 C241 2.143 1_565 S
C263 C238 2.143 . S
C260 C197 2.143 1_545 S
C293 C272 2.143 . S
C296 C329 2.143 1_545 S
C326 C337 2.143 . S
C279 C340 2.143 1_545 S
C8 C230 1.729 1_455 S
C32 C252 1.729 1_455 S
C54 C186 1.729 . S
C206 C76 1.729 . S
C318 C106 1.729 1_455 S
C118 C338 1.729 1_655 S
C142 C282 1.729 . S
C294 C162 1.729 . S
