# Generated by pormake.
# Topology unn, (4)-cn, num edge types: 1
# Building blocks:
#     Node 0, Type 0, BuildingBlock: QUQFOY_clean_sbu_1, # of connection points: 4
#     Node 1, Type 0, BuildingBlock: QUQFOY_clean_sbu_1, # of connection points: 4
#     Node 2, Type 0, BuildingBlock: QUQFOY_clean_sbu_1, # of connection points: 4
#     Node 3, Type 0, BuildingBlock: QUQFOY_clean_sbu_1, # of connection points: 4
#     Node 4, Type 0, BuildingBlock: QUQFOY_clean_sbu_1, # of connection points: 4
#     Node 5, Type 0, BuildingBlock: QUQFOY_clean_sbu_1, # of connection points: 4
#     Node 6, Type 0, BuildingBlock: QUQFOY_clean_sbu_1, # of connection points: 4
#     Node 7, Type 0, BuildingBlock: QUQFOY_clean_sbu_1, # of connection points: 4
#     Node 8, Type 0, BuildingBlock: QUQFOY_clean_sbu_1, # of connection points: 4
#     Node 9, Type 0, BuildingBlock: QUQFOY_clean_sbu_1, # of connection points: 4
#     Node 10, Type 0, BuildingBlock: QUQFOY_clean_sbu_1, # of connection points: 4
#     Node 11, Type 0, BuildingBlock: QUQFOY_clean_sbu_1, # of connection points: 4
#     Node 12, Type 0, BuildingBlock: QUQFOY_clean_sbu_1, # of connection points: 4
#     Node 13, Type 0, BuildingBlock: QUQFOY_clean_sbu_1, # of connection points: 4
#     Node 14, Type 0, BuildingBlock: QUQFOY_clean_sbu_1, # of connection points: 4
#     Node 15, Type 0, BuildingBlock: QUQFOY_clean_sbu_1, # of connection points: 4
#     Node 16, Type 0, BuildingBlock: QUQFOY_clean_sbu_1, # of connection points: 4
#     Node 17, Type 0, BuildingBlock: QUQFOY_clean_sbu_1, # of connection points: 4
#     Edge 18, Type (0, 0), BuildingBlock: UVAHIK_clean_linker_0, # of connection points: 2
#     Edge 19, Type (0, 0), BuildingBlock: UVAHIK_clean_linker_0, # of connection points: 2
#     Edge 20, Type (0, 0), BuildingBlock: UVAHIK_clean_linker_0, # of connection points: 2
#     Edge 21, Type (0, 0), BuildingBlock: UVAHIK_clean_linker_0, # of connection points: 2
#     Edge 22, Type (0, 0), BuildingBlock: UVAHIK_clean_linker_0, # of connection points: 2
#     Edge 23, Type (0, 0), BuildingBlock: UVAHIK_clean_linker_0, # of connection points: 2
#     Edge 24, Type (0, 0), BuildingBlock: UVAHIK_clean_linker_0, # of connection points: 2
#     Edge 25, Type (0, 0), BuildingBlock: UVAHIK_clean_linker_0, # of connection points: 2
#     Edge 26, Type (0, 0), BuildingBlock: UVAHIK_clean_linker_0, # of connection points: 2
#     Edge 27, Type (0, 0), BuildingBlock: UVAHIK_clean_linker_0, # of connection points: 2
#     Edge 28, Type (0, 0), BuildingBlock: UVAHIK_clean_linker_0, # of connection points: 2
#     Edge 29, Type (0, 0), BuildingBlock: UVAHIK_clean_linker_0, # of connection points: 2
#     Edge 30, Type (0, 0), BuildingBlock: UVAHIK_clean_linker_0, # of connection points: 2
#     Edge 31, Type (0, 0), BuildingBlock: UVAHIK_clean_linker_0, # of connection points: 2
#     Edge 32, Type (0, 0), BuildingBlock: UVAHIK_clean_linker_0, # of connection points: 2
#     Edge 33, Type (0, 0), BuildingBlock: UVAHIK_clean_linker_0, # of connection points: 2
#     Edge 34, Type (0, 0), BuildingBlock: UVAHIK_clean_linker_0, # of connection points: 2
#     Edge 35, Type (0, 0), BuildingBlock: UVAHIK_clean_linker_0, # of connection points: 2
#     Edge 36, Type (0, 0), BuildingBlock: UVAHIK_clean_linker_0, # of connection points: 2
#     Edge 37, Type (0, 0), BuildingBlock: UVAHIK_clean_linker_0, # of connection points: 2
#     Edge 38, Type (0, 0), BuildingBlock: UVAHIK_clean_linker_0, # of connection points: 2
#     Edge 39, Type (0, 0), BuildingBlock: UVAHIK_clean_linker_0, # of connection points: 2
#     Edge 40, Type (0, 0), BuildingBlock: UVAHIK_clean_linker_0, # of connection points: 2
#     Edge 41, Type (0, 0), BuildingBlock: UVAHIK_clean_linker_0, # of connection points: 2
#     Edge 42, Type (0, 0), BuildingBlock: UVAHIK_clean_linker_0, # of connection points: 2
#     Edge 43, Type (0, 0), BuildingBlock: UVAHIK_clean_linker_0, # of connection points: 2
#     Edge 44, Type (0, 0), BuildingBlock: UVAHIK_clean_linker_0, # of connection points: 2
#     Edge 45, Type (0, 0), BuildingBlock: UVAHIK_clean_linker_0, # of connection points: 2
#     Edge 46, Type (0, 0), BuildingBlock: UVAHIK_clean_linker_0, # of connection points: 2
#     Edge 47, Type (0, 0), BuildingBlock: UVAHIK_clean_linker_0, # of connection points: 2
#     Edge 48, Type (0, 0), BuildingBlock: UVAHIK_clean_linker_0, # of connection points: 2
#     Edge 49, Type (0, 0), BuildingBlock: UVAHIK_clean_linker_0, # of connection points: 2
#     Edge 50, Type (0, 0), BuildingBlock: UVAHIK_clean_linker_0, # of connection points: 2
#     Edge 51, Type (0, 0), BuildingBlock: UVAHIK_clean_linker_0, # of connection points: 2
#     Edge 52, Type (0, 0), BuildingBlock: UVAHIK_clean_linker_0, # of connection points: 2
#     Edge 53, Type (0, 0), BuildingBlock: UVAHIK_clean_linker_0, # of connection points: 2
# Relax obj value: 0.134
# Max RMSD: 0.235
# Mean RMSD: 0.198
data_MOF--net-unn--node1-QUQFOY_clean_sbu_1--edge1-UVAHIK_clean_linker_0
_symmetry_space_group_name_H-M    P1
_symmetry_Int_Tables_number       1
_symmetry_cell_setting            triclinic
loop_
_symmetry_equiv_pos_as_xyz
'x, y, z'
_cell_length_a     59.32904
_cell_length_b     60.998548
_cell_length_c     51.613622
_cell_angle_alpha  90.732326
_cell_angle_beta   87.709066
_cell_angle_gamma 121.81189
loop_
_atom_site_label
_atom_site_type_symbol
_atom_site_fract_x
_atom_site_fract_y
_atom_site_fract_z
_atom_type_partial_charge
O0 O 0.03325 0.72668 0.2665 0.0
Cd1 Cd 1.00103 0.69561 0.25029 0.0
Cd2 Cd 0.9858 0.72872 0.2499 0.0
O3 O 1.01424 0.74815 0.27827 0.0
O4 O 1.00641 0.66693 0.25849 0.0
O5 O 0.97381 0.67037 0.27609 0.0
C6 C 0.98698 0.65896 0.27536 0.0
C7 C 0.93958 0.7083 0.25262 0.0
C8 C 0.03364 0.74474 0.27939 0.0
C9 C 0.99921 0.71502 0.19896 0.0
O10 O 0.99905 0.73295 0.21164 0.0
O11 O 0.99692 0.69579 0.21088 0.0
O12 O 0.95458 0.73315 0.25079 0.0
O13 O 0.95097 0.69542 0.25575 0.0
O14 O 0.4226 0.26208 0.21435 0.0
Cd15 Cd 0.41164 0.28894 0.21892 0.0
Cd16 Cd 0.37864 0.25395 0.25198 0.0
O17 O 0.38371 0.22902 0.22747 0.0
O18 O 0.42348 0.31061 0.1865 0.0
O19 O 0.38137 0.28266 0.19765 0.0
C20 C 0.39873 0.2991 0.18106 0.0
C21 C 0.3419 0.25762 0.26207 0.0
C22 C 0.40646 0.23782 0.21618 0.0
C23 C 0.42132 0.30074 0.27397 0.0
O24 O 0.40897 0.27635 0.27628 0.0
O25 O 0.42156 0.31089 0.2525 0.0
O26 O 0.34433 0.24011 0.27317 0.0
O27 O 0.3588 0.27101 0.24357 0.0
O28 O 0.81047 0.12562 0.23287 0.0
Cd29 Cd 0.78034 0.08836 0.2406 0.0
Cd30 Cd 0.8144 0.09295 0.27469 0.0
O31 O 0.84245 0.12305 0.25005 0.0
O32 O 0.75835 0.07564 0.20909 0.0
O33 O 0.78338 0.06115 0.22183 0.0
C34 C 0.76784 0.06105 0.205 0.0
C35 C 0.80792 0.05288 0.28634 0.0
C36 C 0.83501 0.13531 0.23644 0.0
C37 C 0.76703 0.09281 0.29487 0.0
O38 O 0.79154 0.10183 0.298 0.0
O39 O 0.75672 0.08237 0.27352 0.0
O40 O 0.82633 0.07388 0.29672 0.0
O41 O 0.79536 0.05512 0.26772 0.0
O42 O 0.04569 0.28997 0.75791 0.0
Cd43 Cd 1.01736 0.29515 0.74284 0.0
Cd44 Cd 0.98965 0.24519 0.7467 0.0
O45 O 1.01623 0.25296 0.77657 0.0
O46 O 0.02785 0.33116 0.75181 0.0
O47 O 0.99251 0.29631 0.76907 0.0
C48 C 1.00811 0.32109 0.76853 0.0
C49 C 0.94335 0.22542 0.74946 0.0
C50 C 0.03998 0.27237 0.77441 0.0
C51 C 1.00776 0.26787 0.69395 0.0
O52 O 1.00333 0.2491 0.70836 0.0
O53 O 1.01035 0.28812 0.70414 0.0
O54 O 0.95417 0.21175 0.74963 0.0
O55 O 0.95887 0.25019 0.75017 0.0
O56 O 0.81303 0.65924 0.71223 0.0
Cd57 Cd 0.78588 0.67016 0.7186 0.0
Cd58 Cd 0.82192 0.70138 0.75068 0.0
O59 O 0.84723 0.69552 0.72605 0.0
O60 O 0.764 0.66213 0.68699 0.0
O61 O 0.79492 0.70158 0.69821 0.0
C62 C 0.77763 0.68659 0.68188 0.0
C63 C 0.81849 0.73718 0.76042 0.0
C64 C 0.83798 0.674 0.71437 0.0
C65 C 0.77367 0.65845 0.7745 0.0
O66 O 0.79874 0.6718 0.77602 0.0
O67 O 0.76311 0.65812 0.75334 0.0
O68 O 0.83677 0.73484 0.77046 0.0
O69 O 0.80429 0.72071 0.74313 0.0
O70 O 0.34388 0.04869 0.75448 0.0
Cd71 Cd 0.37378 0.08181 0.73683 0.0
Cd72 Cd 0.33695 0.09293 0.74132 0.0
O73 O 0.32099 0.06496 0.77094 0.0
O74 O 0.40622 0.08124 0.74466 0.0
O75 O 0.39644 0.10858 0.7624 0.0
C76 C 0.41089 0.09852 0.76192 0.0
C77 C 0.35574 0.13765 0.7425 0.0
C78 C 0.32584 0.0469 0.77003 0.0
C79 C 0.34868 0.08091 0.68879 0.0
O80 O 0.33047 0.079 0.70421 0.0
O81 O 0.37085 0.08639 0.69752 0.0
O82 O 0.33023 0.12207 0.74331 0.0
O83 O 0.37022 0.12768 0.74337 0.0
O84 O 0.70197 0.08685 0.60632 0.0
Cd85 Cd 0.67154 0.05178 0.59414 0.0
Cd86 Cd 0.64767 0.07587 0.59773 0.0
O87 O 0.67445 0.09499 0.62755 0.0
O88 O 0.68367 0.02798 0.60191 0.0
O89 O 0.64944 0.02665 0.6225 0.0
C90 C 0.66583 0.01875 0.62055 0.0
C91 C 0.60138 0.05275 0.59855 0.0
C92 C 0.69785 0.09938 0.62368 0.0
C93 C 0.6625 0.06747 0.54543 0.0
O94 O 0.66193 0.08441 0.55957 0.0
O95 O 0.66198 0.04854 0.55605 0.0
O96 O 0.61499 0.07769 0.59925 0.0
O97 O 0.61405 0.04094 0.60063 0.0
O98 O 0.02351 0.60717 0.58667 0.0
Cd99 Cd 0.05557 0.60801 0.56943 0.0
Cd100 Cd 0.02019 0.55877 0.56579 0.0
O101 O 0.99897 0.56545 0.59524 0.0
O102 O 0.08607 0.64052 0.58304 0.0
O103 O 0.0763 0.60153 0.59451 0.0
C104 C 0.0898 0.62613 0.5982 0.0
C105 C 0.03773 0.53221 0.56382 0.0
C106 C 1.0035 0.58825 0.59818 0.0
C107 C 0.03678 0.59043 0.51726 0.0
O108 O 1.01836 0.57064 0.52935 0.0
O109 O 0.05683 0.60757 0.52927 0.0
O110 O 1.0126 0.5227 0.5615 0.0
O111 O 0.05224 0.55621 0.57007 0.0
O112 O 0.43525 0.37802 0.60186 0.0
Cd113 Cd 0.43495 0.40616 0.58052 0.0
Cd114 Cd 0.48632 0.42382 0.57929 0.0
O115 O 0.47762 0.39877 0.61067 0.0
O116 O 0.39927 0.40039 0.59043 0.0
O117 O 0.43704 0.43523 0.6011 0.0
C118 C 0.41148 0.42156 0.60332 0.0
C119 C 0.51147 0.46901 0.57761 0.0
C120 C 0.45403 0.37948 0.61433 0.0
C121 C 0.45833 0.40372 0.52994 0.0
O122 O 0.47756 0.4072 0.54319 0.0
O123 O 0.4398 0.40581 0.54053 0.0
O124 O 0.5229 0.45587 0.57679 0.0
O125 O 0.48603 0.45648 0.58152 0.0
O126 O 0.7021 0.63012 0.10612 0.0
Cd127 Cd 0.67438 0.63214 0.08544 0.0
Cd128 Cd 0.65351 0.58134 0.08578 0.0
O129 O 0.67922 0.58873 0.11615 0.0
O130 O 0.68332 0.66794 0.09305 0.0
O131 O 0.64593 0.63305 0.10681 0.0
C132 C 0.66164 0.6578 0.10713 0.0
C133 C 0.60714 0.55973 0.08646 0.0
C134 C 0.6995 0.6113 0.11906 0.0
C135 C 0.67389 0.60829 0.03485 0.0
O136 O 0.66928 0.58888 0.04824 0.0
O137 O 0.67413 0.62724 0.04578 0.0
O138 O 0.61899 0.54698 0.08589 0.0
O139 O 0.62159 0.58443 0.08925 0.0
O140 O 0.48412 1.00155 0.0405 0.0
Cd141 Cd 0.45923 0.01524 0.04652 0.0
Cd142 Cd 0.49602 0.04474 0.07749 0.0
O143 O 0.51977 0.03827 0.05104 0.0
O144 O 0.43721 1.0078 0.01521 0.0
O145 O 0.4703 0.04673 0.02519 0.0
C146 C 0.45228 0.03201 0.00931 0.0
C147 C 0.493 0.08066 0.08806 0.0
C148 C 0.50926 0.01598 0.04075 0.0
C149 C 0.44767 1.00382 0.10199 0.0
O150 O 0.47272 0.01478 0.10264 0.0
O151 O 0.4372 1.00551 0.08163 0.0
O152 O 0.51168 0.07836 0.09718 0.0
O153 O 0.47812 0.06409 0.07115 0.0
O154 O 0.02204 0.38019 0.089 0.0
Cd155 Cd 0.05374 0.41333 0.07327 0.0
Cd156 Cd 1.01783 0.42551 0.07207 0.0
O157 O 0.9983 0.39697 0.10111 0.0
O158 O 0.08524 0.41356 0.08584 0.0
O159 O 0.07298 0.44036 0.09982 0.0
C160 C 0.08782 0.43091 0.10215 0.0
C161 C 0.03439 0.46976 0.07184 0.0
C162 C 1.00268 0.37863 0.10217 0.0
C163 C 0.03541 0.41446 0.02182 0.0
O164 O 1.01593 0.41295 0.03471 0.0
O165 O 0.05565 0.41818 0.03345 0.0
O166 O 1.00924 0.45319 0.07011 0.0
O167 O 0.04948 0.46107 0.07672 0.0
O168 O 0.37689 0.42602 0.92611 0.0
Cd169 Cd 0.34809 0.39159 0.911 0.0
Cd170 Cd 0.32207 0.41378 0.91632 0.0
O171 O 0.34721 0.43087 0.94774 0.0
O172 O 0.35931 0.36696 0.91918 0.0
O173 O 0.32412 0.36535 0.93775 0.0
C174 C 0.34029 0.3572 0.93671 0.0
C175 C 0.27583 0.38616 0.91603 0.0
C176 C 0.37111 0.43646 0.94448 0.0
C177 C 0.34016 0.41069 0.86355 0.0
O178 O 0.33816 0.426 0.87907 0.0
O179 O 0.33989 0.39121 0.8725 0.0
O180 O 0.28657 0.41082 0.91844 0.0
O181 O 0.29125 0.37717 0.91636 0.0
O182 O 0.74438 0.91166 0.89326 0.0
Cd183 Cd 0.73729 0.94082 0.89833 0.0
Cd184 Cd 0.69421 0.90346 0.92298 0.0
O185 O 0.702 0.88094 0.8969 0.0
O186 O 0.75347 0.96606 0.86832 0.0
O187 O 0.71039 0.93822 0.87479 0.0
C188 C 0.7295 0.95612 0.86072 0.0
C189 C 0.65945 0.91128 0.92781 0.0
C190 C 0.726 0.88829 0.89024 0.0
C191 C 0.73455 0.94298 0.95538 0.0
O192 O 0.71841 0.91877 0.95382 0.0
O193 O 0.74235 0.95696 0.93492 0.0
O194 O 0.65636 0.88997 0.93638 0.0
O195 O 0.68093 0.92645 0.91449 0.0
O196 O 0.14847 0.78324 0.88567 0.0
Cd197 Cd 0.12136 0.74449 0.89143 0.0
Cd198 Cd 0.15526 0.75219 0.9259 0.0
O199 O 0.18225 0.78351 0.90229 0.0
O200 O 0.10134 0.73098 0.85878 0.0
O201 O 0.13004 0.72113 0.87181 0.0
C202 C 0.11428 0.71958 0.85439 0.0
C203 C 0.15197 0.714 0.93877 0.0
C204 C 0.17321 0.79479 0.88944 0.0
C205 C 0.10514 0.74605 0.94522 0.0
O206 O 0.13001 0.75844 0.94829 0.0
O207 O 0.0959 0.73441 0.92399 0.0
O208 O 0.16897 0.73575 0.94911 0.0
O209 O 0.13935 0.71464 0.91927 0.0
O210 O 0.36937 0.96792 0.43557 0.0
Cd211 Cd 0.34014 0.96699 0.41441 0.0
Cd212 Cd 0.32535 0.91834 0.4135 0.0
O213 O 0.34966 0.92661 0.44512 0.0
O214 O 0.34649 1.00185 0.42171 0.0
O215 O 0.31044 0.9658 0.4357 0.0
C216 C 0.32488 0.99069 0.43591 0.0
C217 C 0.27915 0.89196 0.41159 0.0
C218 C 0.36838 0.94986 0.44856 0.0
C219 C 0.34529 0.94684 0.36375 0.0
O220 O 0.34375 0.92866 0.37707 0.0
O221 O 0.34099 0.96319 0.3746 0.0
O222 O 0.29394 0.88221 0.41136 0.0
O223 O 0.29047 0.91649 0.41536 0.0
O224 O 0.15918 0.33751 0.37779 0.0
Cd225 Cd 0.13102 0.34651 0.38736 0.0
Cd226 Cd 0.16553 0.37248 0.4235 0.0
O227 O 0.19243 0.3696 0.39812 0.0
O228 O 0.10936 0.339 0.35586 0.0
O229 O 0.13723 0.37842 0.3697 0.0
C230 C 0.12111 0.36364 0.35244 0.0
C231 C 0.16038 0.40663 0.43654 0.0
C232 C 0.18381 0.35089 0.3822 0.0
C233 C 0.11558 0.32669 0.44132 0.0
O234 O 0.14038 0.33994 0.44481 0.0
O235 O 0.10654 0.32908 0.42025 0.0
O236 O 0.17795 0.40342 0.44695 0.0
O237 O 0.14813 0.39225 0.41714 0.0
O238 O 0.66717 0.71206 0.42793 0.0
Cd239 Cd 0.69891 0.7445 0.411 0.0
Cd240 Cd 0.66442 0.75776 0.41267 0.0
O241 O 0.64723 0.7314 0.44389 0.0
O242 O 0.72975 0.74192 0.42034 0.0
O243 O 0.72144 0.77063 0.43717 0.0
C244 C 0.73477 0.7594 0.43746 0.0
C245 C 0.68443 0.80264 0.4105 0.0
C246 C 0.65012 0.71208 0.44361 0.0
C247 C 0.67682 0.74401 0.36161 0.0
O248 O 0.65806 0.74207 0.37618 0.0
O249 O 0.69856 0.74957 0.37141 0.0
O250 O 0.65886 0.78752 0.41098 0.0
O251 O 0.69834 0.79234 0.41395 0.0
C252 C 1.00796 0.69994 0.15658 0.0
C253 C 1.00245 0.7167 0.17036 0.0
C254 C 1.01236 0.70234 0.12971 0.0
C255 C 0.03419 0.75078 0.07759 0.0
H256 H 1.01899 0.69244 0.03435 0.0
C257 C 0.09847 0.76055 0.98856 0.0
C258 C 0.08744 0.74448 0.96707 0.0
C259 C 0.08277 0.75775 0.01053 0.0
C260 C 0.02293 0.70892 0.04595 0.0
H261 H 0.99594 0.74831 0.1666 0.0
H262 H 1.00308 0.75216 0.11962 0.0
H263 H 0.99981 0.685 0.07837 0.0
H264 H 0.05095 0.71354 0.95134 0.0
H265 H 0.02325 0.70865 0.99003 0.0
H266 H 0.05738 0.77469 0.04526 0.0
C267 C 1.00464 0.73755 0.12965 0.0
C268 C 1.01225 0.70468 0.07133 0.0
C269 C 1.00049 0.73532 0.15658 0.0
C270 C 0.06002 0.72618 0.96764 0.0
C271 C 0.04421 0.72329 0.98981 0.0
C272 C 0.04467 0.75501 0.05219 0.0
C273 C 1.01108 0.72138 0.11593 0.0
C274 C 1.01857 0.72559 0.08777 0.0
C275 C 0.05556 0.73882 0.01164 0.0
C276 C 0.04003 0.73417 0.03643 0.0
H277 H 1.00962 0.68539 0.16662 0.0
H278 H 1.01773 0.68983 0.11992 0.0
H279 H 0.03961 0.76739 0.08964 0.0
H280 H 0.1195 0.77494 0.98876 0.0
H281 H 0.0923 0.76976 0.0271 0.0
C282 C 0.31918 0.33023 0.9768 0.0
C283 C 0.33987 0.34075 0.95776 0.0
C284 C 0.32181 0.32019 -9e-05 0.0
C285 C 0.36577 0.30371 0.03397 0.0
H286 H 0.34244 0.32581 0.09463 0.0
C287 C 0.4089 0.31464 0.13495 0.0
C288 C 0.39043 0.30328 0.1559 0.0
C289 C 0.4006 0.31647 0.11053 0.0
C290 C 0.34883 0.31929 0.07788 0.0
H291 H 0.37867 0.34718 0.94718 0.0
H292 H 0.38358 0.33043 0.98749 0.0
H293 H 0.33045 0.33146 0.05177 0.0
H294 H 0.34891 0.28554 0.16789 0.0
H295 H 0.33456 0.28936 0.12533 0.0
H296 H 0.38521 0.29269 0.06031 0.0
C297 C 0.3651 0.32947 0.98465 0.0
C298 C 0.3418 0.32232 0.05326 0.0
C299 C 0.36232 0.33918 0.96143 0.0
C300 C 0.36361 0.2944 0.15211 0.0
C301 C 0.35539 0.2966 0.12779 0.0
C302 C 0.3731 0.30103 0.05858 0.0
C303 C 0.34533 0.32077 0.00461 0.0
C304 C 0.35044 0.31486 0.03091 0.0
C305 C 0.37374 0.30733 0.10669 0.0
C306 C 0.36496 0.30907 0.08073 0.0
H307 H 0.30152 0.33096 0.97445 0.0
H308 H 0.30583 0.31296 0.01452 0.0
H309 H 0.37239 0.2973 0.01732 0.0
H310 H 0.42967 0.32154 0.13724 0.0
H311 H 0.4152 0.32511 0.09465 0.0
C312 C 0.7456 0.04568 0.16263 0.0
C313 C 0.76283 0.04617 0.18083 0.0
C314 C 0.74296 0.03372 0.1387 0.0
C315 C 0.75654 0.98809 0.10357 0.0
H316 H 0.75163 0.02188 0.04283 0.0
C317 C 0.75863 0.98168 0.98394 0.0
C318 C 0.74187 0.95485 0.98129 0.0
C319 C 0.76307 0.99293 0.00847 0.0
C320 C 0.75335 1.01237 0.05953 0.0
H321 H 0.79035 0.03401 0.18847 0.0
H322 H 0.78615 0.01364 0.14667 0.0
H323 H 0.75477 0.0407 0.08538 0.0
H324 H 0.71731 0.91874 0.00245 0.0
H325 H 0.72464 0.93831 0.0449 0.0
H326 H 0.75589 0.96016 0.07764 0.0
C327 C 0.77431 0.02208 0.15094 0.0
C328 C 0.75469 0.02293 0.08401 0.0
C329 C 0.7768 0.03387 0.17491 0.0
C330 C 0.7304 0.93948 0.00374 0.0
C331 C 0.73472 0.95071 0.02818 0.0
C332 C 0.75538 0.97762 0.07907 0.0
C333 C 0.75764 0.02216 0.13239 0.0
C334 C 0.75613 1.01083 0.10636 0.0
C335 C 0.75077 0.9776 0.03085 0.0
C336 C 0.75358 0.98953 0.05676 0.0
H337 H 0.73447 0.05491 0.16667 0.0
H338 H 0.72952 0.03369 0.12507 0.0
H339 H 0.75742 0.97813 0.12035 0.0
H340 H 0.76785 0.99406 0.96705 0.0
H341 H 0.77592 0.01367 0.00988 0.0
C342 C 0.66654 0.05192 0.50152 0.0
C343 C 0.66479 0.07017 0.51688 0.0
C344 C 0.67062 0.05527 0.47471 0.0
C345 C 0.70079 0.10689 0.42615 0.0
H346 H 0.67572 0.04909 0.37927 0.0
C347 C 0.7628 0.1074 0.33913 0.0
C348 C 0.75062 0.09386 0.31658 0.0
C349 C 0.74755 0.10697 0.36056 0.0
C350 C 0.68251 0.06557 0.39188 0.0
H351 H 0.66458 0.10562 0.51601 0.0
H352 H 0.67159 0.11141 0.46902 0.0
H353 H 0.65544 0.04232 0.42272 0.0
H354 H 0.71287 0.07012 0.29841 0.0
H355 H 0.68608 0.06934 0.33611 0.0
H356 H 0.72822 0.13003 0.3955 0.0
C357 C 0.67016 0.09468 0.47783 0.0
C358 C 0.6711 0.06162 0.41689 0.0
C359 C 0.66611 0.09134 0.50472 0.0
C360 C 0.72282 0.08064 0.31557 0.0
C361 C 0.70749 0.08014 0.33714 0.0
C362 C 0.7121 0.11086 0.40111 0.0
C363 C 0.67295 0.07692 0.46259 0.0
C364 C 0.68091 0.08202 0.43465 0.0
C365 C 0.71972 0.09299 0.36 0.0
C366 C 0.70387 0.09002 0.38411 0.0
H367 H 0.66552 0.03534 0.51024 0.0
H368 H 0.67312 0.04143 0.46366 0.0
H369 H 0.70887 0.12304 0.43932 0.0
H370 H 0.78417 0.11788 0.34055 0.0
H371 H 0.75761 0.11671 0.37798 0.0
C372 C 1.01396 0.57314 0.47563 0.0
C373 C 0.03345 0.59403 0.48971 0.0
C374 C 1.00817 0.57685 0.45071 0.0
C375 C 1.00944 0.62666 0.41148 0.0
H376 H 0.9959 0.58005 0.35413 0.0
C377 C 0.99976 0.6306 0.29635 0.0
C378 C 0.98349 0.64097 0.29628 0.0
C379 C 1.00227 0.61994 0.31905 0.0
C380 C 0.99953 0.59314 0.37002 0.0
H381 H 0.06299 0.635 0.48823 0.0
H382 H 0.05278 0.64153 0.44459 0.0
H383 H 1.01078 0.57301 0.39509 0.0
H384 H 0.9549 0.64578 0.31912 0.0
H385 H 0.95918 0.62701 0.35866 0.0
H386 H 0.99852 0.64696 0.38653 0.0
C387 C 0.04188 0.6223 0.45301 0.0
C388 C 1.008 0.58911 0.39343 0.0
C389 C 0.04787 0.61854 0.47789 0.0
C390 C 0.96776 0.63813 0.31858 0.0
C391 C 0.97038 0.62759 0.3413 0.0
C392 C 1.00076 0.63053 0.38823 0.0
C393 C 0.0216 0.60158 0.43941 0.0
C394 C 1.01322 0.60596 0.41432 0.0
C395 C 0.9886 0.61954 0.34206 0.0
C396 C 0.99579 0.61388 0.36722 0.0
H397 H 1.00259 0.55396 0.48414 0.0
H398 H 0.99237 0.56056 0.44077 0.0
H399 H 1.01293 0.63974 0.42735 0.0
H400 H 1.01204 0.63237 0.27944 0.0
H401 H 1.01644 0.61385 0.31903 0.0
C402 C 0.4719 0.38549 0.49328 0.0
C403 C 0.4573 0.39636 0.5024 0.0
C404 C 0.47034 0.37752 0.46761 0.0
C405 C 0.44393 0.3451 0.41952 0.0
H406 H 0.46099 0.39102 0.36081 0.0
C407 C 0.44223 0.3085 0.31668 0.0
C408 C 0.43224 0.31658 0.29727 0.0
C409 C 0.44861 0.32089 0.34058 0.0
C410 C 0.45579 0.37781 0.37693 0.0
H411 H 0.43024 0.40813 0.49154 0.0
H412 H 0.42808 0.39468 0.4462 0.0
H413 H 0.46422 0.40732 0.40493 0.0
H414 H 0.42182 0.34439 0.28717 0.0
H415 H 0.43171 0.36534 0.32929 0.0
H416 H 0.4342 0.31526 0.39216 0.0
C417 C 0.44048 0.39217 0.45918 0.0
C418 C 0.45777 0.38723 0.40216 0.0
C419 C 0.44161 0.3997 0.48508 0.0
C420 C 0.42976 0.33797 0.30177 0.0
C421 C 0.4355 0.34999 0.32596 0.0
C422 C 0.44142 0.33556 0.39442 0.0
C423 C 0.45457 0.38071 0.45037 0.0
C424 C 0.45202 0.37096 0.42362 0.0
C425 C 0.44436 0.34116 0.34595 0.0
C426 C 0.44752 0.35178 0.3727 0.0
H427 H 0.48413 0.3826 0.50613 0.0
H428 H 0.48143 0.36878 0.46119 0.0
H429 H 0.43908 0.33213 0.43581 0.0
H430 H 0.44452 0.29216 0.31358 0.0
H431 H 0.45626 0.31406 0.35505 0.0
C432 C 0.0249 0.36349 0.79048 0.0
C433 C 1.00583 0.33697 0.78909 0.0
C434 C 0.02658 0.3772 0.81297 0.0
C435 C 0.99299 0.37236 0.87731 0.0
H436 H 0.06523 0.41306 0.90021 0.0
C437 C 0.05072 0.40554 0.9792 0.0
C438 C 0.03395 0.41146 0.99337 0.0
C439 C 0.0478 0.40094 0.95256 0.0
C440 C 0.04493 0.4017 0.89415 0.0
H441 H 0.97211 0.3046 0.80925 0.0
H442 H 0.97528 0.32824 0.84843 0.0
H443 H 0.05716 0.39683 0.85615 0.0
H444 H 1.00195 0.41859 0.99057 0.0
H445 H 0.99737 0.41129 0.94416 0.0
H446 H 0.98066 0.37575 0.9158 0.0
C447 C 0.98886 0.33864 0.83222 0.0
C448 C 0.0403 0.39274 0.86871 0.0
C449 C 0.9871 0.32499 0.80972 0.0
C450 C 1.01493 0.41369 0.98024 0.0
C451 C 1.01223 0.4094 0.95363 0.0
C452 C 0.99761 0.38114 0.90281 0.0
C453 C 1.00929 0.36464 0.83452 0.0
C454 C 1.01423 0.37745 0.86015 0.0
C455 C 0.02826 0.40247 0.93952 0.0
C456 C 0.02361 0.39544 0.91171 0.0
H457 H 0.03949 0.37333 0.7748 0.0
H458 H 0.04215 0.39737 0.81389 0.0
H459 H 0.97269 0.36093 0.87127 0.0
H460 H 0.06552 0.40364 0.9888 0.0
H461 H 0.06028 0.39531 0.94241 0.0
C462 C 0.68682 0.63112 0.99178 0.0
C463 C 0.67882 0.60875 0.00644 0.0
C464 C 0.69192 0.63169 0.96505 0.0
C465 C 0.69054 0.62504 0.90676 0.0
H466 H 0.73072 0.5947 0.88254 0.0
C467 C 0.73031 0.63693 0.80041 0.0
C468 C 0.75733 0.6451 0.79812 0.0
C469 C 0.71616 0.62736 0.82414 0.0
C470 C 0.71942 0.6032 0.88896 0.0
H471 H 0.66915 0.56916 0.00435 0.0
H472 H 0.67769 0.57006 0.95769 0.0
H473 H 0.71497 0.58899 0.92762 0.0
H474 H 0.79026 0.64835 0.81849 0.0
H475 H 0.76585 0.63198 0.85951 0.0
H476 H 0.69637 0.64048 0.86837 0.0
C477 C 0.6805 0.58733 0.96692 0.0
C478 C 0.71013 0.59971 0.91478 0.0
C479 C 0.67554 0.5868 0.99368 0.0
C480 C 0.7695 0.64234 0.81959 0.0
C481 C 0.75541 0.63272 0.84313 0.0
C482 C 0.69993 0.62861 0.88093 0.0
C483 C 0.68898 0.60986 0.95231 0.0
C484 C 0.69615 0.61113 0.92417 0.0
C485 C 0.72873 0.62558 0.84588 0.0
C486 C 0.7151 0.61831 0.87193 0.0
H487 H 0.68956 0.64838 0.00098 0.0
H488 H 0.69885 0.64951 0.95451 0.0
H489 H 0.6794 0.6337 0.91324 0.0
H490 H 0.72039 0.63883 0.7842 0.0
H491 H 0.69554 0.6218 0.82561 0.0
C492 C 0.43013 0.0269 0.96732 0.0
C493 C 0.45038 0.04244 0.98429 0.0
C494 C 0.4298 0.03624 0.94281 0.0
C495 C 0.4581 0.09656 0.90353 0.0
H496 H 0.43501 0.0485 0.84647 0.0
C497 C 0.44072 0.08855 0.78517 0.0
C498 C 0.42779 0.10227 0.78395 0.0
C499 C 0.44966 0.08558 0.80878 0.0
C500 C 0.44205 0.06239 0.86201 0.0
H501 H 0.48594 0.08014 0.98899 0.0
H502 H 0.48567 0.09617 0.94619 0.0
H503 H 0.43696 0.034 0.88938 0.0
H504 H 0.41667 0.12591 0.80596 0.0
H505 H 0.43166 0.12034 0.84697 0.0
H506 H 0.46368 0.1251 0.87595 0.0
C507 C 0.46975 0.07694 0.95188 0.0
C508 C 0.44263 0.05389 0.88682 0.0
C509 C 0.46995 0.06769 0.97644 0.0
C510 C 0.42646 0.11513 0.80621 0.0
C511 C 0.43513 0.11194 0.82984 0.0
C512 C 0.45772 0.10514 0.87862 0.0
C513 C 0.44985 0.06125 0.9346 0.0
C514 C 0.45024 0.07072 0.90801 0.0
C515 C 0.44564 0.09607 0.83168 0.0
C516 C 0.4493 0.08807 0.85758 0.0
H517 H 0.4147 1.0074 0.97283 0.0
H518 H 0.41381 0.02379 0.93027 0.0
H519 H 0.46395 0.11008 0.91936 0.0
H520 H 0.44231 0.07861 0.76832 0.0
H521 H 0.45843 0.0739 0.80931 0.0
C522 C 0.31696 0.06175 0.65297 0.0
C523 C 0.34332 0.07562 0.66095 0.0
C524 C 0.31146 0.05551 0.62695 0.0
C525 C 0.3375 0.07307 0.56062 0.0
H526 H 0.29456 0.99988 0.54656 0.0
C527 C 0.34047 0.03044 0.46193 0.0
C528 C 0.31979 1.00556 0.45556 0.0
C529 C 0.33908 0.04185 0.48505 0.0
C530 C 0.30593 0.02045 0.54993 0.0
H531 H 0.38461 0.09457 0.64777 0.0
H532 H 0.37488 0.08404 0.60195 0.0
H533 H 0.30114 0.0146 0.59108 0.0
H534 H 0.28002 0.97452 0.46669 0.0
H535 H 0.27685 0.99505 0.50634 0.0
H536 H 0.3421 0.07913 0.51956 0.0
C537 C 0.35858 0.07793 0.61603 0.0
C538 C 0.3099 0.02882 0.57555 0.0
C539 C 0.36412 0.08377 0.64221 0.0
C540 C 0.29643 0.99358 0.47127 0.0
C541 C 0.2948 1.00525 0.49419 0.0
C542 C 0.33307 0.06476 0.5349 0.0
C543 C 0.33219 0.06343 0.60829 0.0
C544 C 0.32622 0.05511 0.58111 0.0
C545 C 0.31672 0.02886 0.50213 0.0
C546 C 0.31782 0.03825 0.52918 0.0
H547 H 0.30048 0.05513 0.66693 0.0
H548 H 0.29096 0.04433 0.6214 0.0
H549 H 0.3499 0.0935 0.56451 0.0
H550 H 0.35876 0.04026 0.45022 0.0
H551 H 0.35648 0.05994 0.49031 0.0
C552 C 1.00769 0.24434 0.65361 0.0
C553 C 1.01077 0.2666 0.66545 0.0
C554 C 1.012 0.24386 0.62681 0.0
C555 C 0.04233 0.2562 0.57483 0.0
H556 H 0.02835 0.29596 0.52725 0.0
C557 C 0.10805 0.30618 0.48486 0.0
C558 C 0.09749 0.31027 0.46285 0.0
C559 C 0.09193 0.29378 0.50678 0.0
C560 C 0.03195 0.28429 0.54005 0.0
H561 H 0.02002 0.30554 0.65828 0.0
H562 H 0.02808 0.30491 0.61191 0.0
H563 H 1.0088 0.28734 0.5711 0.0
H564 H 0.06131 0.30315 0.44606 0.0
H565 H 0.03295 0.28123 0.48453 0.0
H566 H 0.06572 0.25339 0.54387 0.0
C567 C 0.02186 0.28761 0.62312 0.0
C568 C 0.02103 0.27966 0.56534 0.0
C569 C 1.01749 0.28807 0.64983 0.0
C570 C 0.07007 0.30038 0.46275 0.0
C571 C 0.05386 0.28796 0.48482 0.0
C572 C 0.05312 0.2607 0.5495 0.0
C573 C 1.01951 0.26563 0.6113 0.0
C574 C 0.02695 0.26643 0.58332 0.0
C575 C 0.06477 0.28509 0.50731 0.0
C576 C 0.04892 0.27567 0.53214 0.0
H577 H 1.00232 0.22739 0.66507 0.0
H578 H 1.00973 0.22652 0.61828 0.0
H579 H 0.04736 0.24598 0.58813 0.0
H580 H 0.12907 0.31341 0.48557 0.0
H581 H 0.10113 0.29226 0.52381 0.0
C582 C 0.74822 0.77367 0.48276 0.0
C583 C 0.75081 0.76224 0.45993 0.0
C584 C 0.75641 0.76965 0.50631 0.0
C585 C 0.77874 0.76186 0.55477 0.0
H586 H 0.76149 0.69143 0.56233 0.0
C587 C 0.79344 0.72304 0.65031 0.0
C588 C 0.77502 0.6972 0.65732 0.0
C589 C 0.7926 0.73275 0.62623 0.0
C590 C 0.76615 0.71109 0.56068 0.0
H591 H 0.76685 0.74021 0.44334 0.0
H592 H 0.7822 0.73414 0.48418 0.0
H593 H 0.75896 0.70699 0.52022 0.0
H594 H 0.74069 0.6615 0.64489 0.0
H595 H 0.73861 0.67862 0.6032 0.0
H596 H 0.78454 0.76544 0.5956 0.0
C597 C 0.7728 0.74529 0.48415 0.0
C598 C 0.76523 0.72023 0.53632 0.0
C599 C 0.76432 0.74905 0.46064 0.0
C600 C 0.75524 0.68145 0.64001 0.0
C601 C 0.75423 0.69124 0.616 0.0
C602 C 0.77943 0.75262 0.57922 0.0
C603 C 0.76769 0.75438 0.50749 0.0
C604 C 0.7713 0.74568 0.53303 0.0
C605 C 0.77315 0.71692 0.60863 0.0
C606 C 0.77289 0.72702 0.58255 0.0
H607 H 0.73788 0.78393 0.48293 0.0
H608 H 0.75206 0.77695 0.52379 0.0
H609 H 0.78379 0.78163 0.55299 0.0
H610 H 0.80905 0.73568 0.66313 0.0
H611 H 0.8077 0.75249 0.62119 0.0
C612 C 0.33549 0.3953 0.81782 0.0
C613 C 0.34315 0.41566 0.83531 0.0
C614 C 0.33888 0.40005 0.7911 0.0
C615 C 0.3826 0.44693 0.74404 0.0
H616 H 0.32666 0.40888 0.69566 0.0
C617 C 0.41003 0.45133 0.6362 0.0
C618 C 0.39727 0.42736 0.62376 0.0
C619 C 0.39968 0.45452 0.65979 0.0
C620 C 0.3426 0.41957 0.70882 0.0
H621 H 0.36018 0.45691 0.83861 0.0
H622 H 0.3671 0.4653 0.79173 0.0
H623 H 0.3159 0.40441 0.7422 0.0
H624 H 0.36253 0.3886 0.62512 0.0
H625 H 0.34518 0.39364 0.66643 0.0
H626 H 0.40972 0.46052 0.71135 0.0
C627 C 0.35802 0.44567 0.79883 0.0
C628 C 0.33634 0.41711 0.73546 0.0
C629 C 0.35405 0.44085 0.82556 0.0
C630 C 0.37282 0.40735 0.63419 0.0
C631 C 0.36279 0.41034 0.65801 0.0
C632 C 0.38898 0.44895 0.71749 0.0
C633 C 0.35049 0.4253 0.78141 0.0
C634 C 0.35638 0.43037 0.75327 0.0
C635 C 0.37669 0.43361 0.67174 0.0
C636 C 0.36917 0.4348 0.69948 0.0
H637 H 0.3269 0.37569 0.82478 0.0
H638 H 0.33317 0.38408 0.77801 0.0
H639 H 0.39841 0.45719 0.75747 0.0
H640 H 0.42878 0.4672 0.62846 0.0
H641 H 0.41049 0.47303 0.66925 0.0
C642 C 0.68902 1.0 0.64181 0.0
C643 C 0.66727 1.00327 0.64148 0.0
C644 C 0.69447 0.99142 0.66428 0.0
C645 C 0.66848 0.96044 0.72801 0.0
H646 H 0.73964 1.00936 0.75022 0.0
C647 C 0.69801 0.95835 0.83208 0.0
C648 C 0.72368 0.9636 0.83598 0.0
C649 C 0.69122 0.96259 0.80791 0.0
C650 C 0.71987 0.99523 0.7442 0.0
H651 H 0.6328 0.99779 0.66364 0.0
H652 H 0.64208 0.98224 0.70278 0.0
H653 H 0.72634 0.01455 0.70784 0.0
H654 H 0.76256 0.97783 0.81786 0.0
H655 H 0.75058 0.98458 0.77527 0.0
H656 H 0.66201 0.94081 0.76408 0.0
C657 C 0.65504 0.98665 0.68571 0.0
C658 C 0.71225 0.99824 0.7199 0.0
C659 C 0.64973 0.99553 0.6633 0.0
C660 C 0.74269 0.97384 0.81542 0.0
C661 C 0.73578 0.97771 0.79103 0.0
C662 C 0.67621 0.95718 0.75217 0.0
C663 C 0.67808 0.98559 0.68671 0.0
C664 C 0.68643 0.98102 0.71169 0.0
C665 C 0.70981 0.97176 0.78688 0.0
C666 C 0.70192 0.97473 0.76073 0.0
H667 H 0.70287 1.00566 0.62531 0.0
H668 H 0.71213 0.99037 0.66447 0.0
H669 H 0.64852 0.94683 0.72203 0.0
H670 H 0.683 0.95065 0.8477 0.0
H671 H 0.67128 0.9585 0.80572 0.0
C672 C 0.1314 0.69999 0.82242 0.0
C673 C 0.11293 0.7071 0.82921 0.0
C674 C 0.13234 0.69116 0.79748 0.0
C675 C 0.12309 0.66249 0.74642 0.0
H676 H 0.10916 0.69435 0.68984 0.0
C677 C 0.09951 0.62027 0.64334 0.0
C678 C 0.1043 0.63684 0.62235 0.0
C679 C 0.10601 0.63 0.66841 0.0
C680 C 0.11364 0.68554 0.70528 0.0
H681 H 0.08012 0.70932 0.81554 0.0
H682 H 0.08112 0.69314 0.77239 0.0
H683 H 0.10817 0.70809 0.73388 0.0
H684 H 0.1226 0.67689 0.6107 0.0
H685 H 0.13505 0.69399 0.65421 0.0
H686 H 0.12912 0.64031 0.71759 0.0
C687 C 0.09547 0.69513 0.78603 0.0
C688 C 0.11251 0.69309 0.7307 0.0
C689 C 0.0947 0.70417 0.81088 0.0
C690 C 0.11838 0.66358 0.62651 0.0
C691 C 0.1252 0.67335 0.65154 0.0
C692 C 0.12441 0.65505 0.72089 0.0
C693 C 0.11469 0.68906 0.7788 0.0
C694 C 0.11679 0.6814 0.75167 0.0
C695 C 0.11778 0.65657 0.673 0.0
C696 C 0.11937 0.66625 0.69998 0.0
H697 H 0.14583 0.70213 0.83606 0.0
H698 H 0.14753 0.68689 0.79262 0.0
H699 H 0.12641 0.65298 0.76206 0.0
H700 H 0.08867 0.59955 0.64083 0.0
H701 H 0.09994 0.61642 0.68435 0.0
C702 C 0.69454 0.74713 0.31592 0.0
C703 C 0.67286 0.73914 0.33353 0.0
C704 C 0.69043 0.742 0.28945 0.0
C705 C 0.64263 0.69511 0.24615 0.0
H706 H 0.6818 0.74633 0.19198 0.0
C707 C 0.63328 0.6627 0.141 0.0
C708 C 0.65746 0.67334 0.12669 0.0
C709 C 0.63156 0.67437 0.16386 0.0
C710 C 0.6708 0.73172 0.20682 0.0
H711 H 0.62991 0.71968 0.33717 0.0
H712 H 0.62284 0.71015 0.29111 0.0
H713 H 0.68719 0.75944 0.23737 0.0
H714 H 0.69814 0.70573 0.12384 0.0
H715 H 0.69555 0.72543 0.16391 0.0
H716 H 0.62751 0.66706 0.21628 0.0
C717 C 0.64295 0.72061 0.29778 0.0
C718 C 0.67387 0.7393 0.23279 0.0
C719 C 0.64705 0.72612 0.32411 0.0
C720 C 0.67919 0.69703 0.13442 0.0
C721 C 0.67764 0.70842 0.15751 0.0
C722 C 0.63994 0.68744 0.2203 0.0
C723 C 0.66458 0.7284 0.28024 0.0
C724 C 0.66006 0.72098 0.25266 0.0
C725 C 0.65415 0.69662 0.17316 0.0
C726 C 0.65431 0.70555 0.20025 0.0
H727 H 0.71465 0.7573 0.32258 0.0
H728 H 0.70742 0.74799 0.27629 0.0
H729 H 0.63194 0.68058 0.26117 0.0
H730 H 0.6161 0.64458 0.13534 0.0
H731 H 0.61285 0.66518 0.17489 0.0
C732 C 0.43949 0.97882 0.14259 0.0
C733 C 0.43152 0.99113 0.12575 0.0
C734 C 0.42688 0.97006 0.16693 0.0
C735 C 0.36916 0.95972 0.20914 0.0
H736 H 0.41682 0.96988 0.2637 0.0
C737 C 0.34733 0.96419 0.31937 0.0
C738 C 0.35237 0.94908 0.33569 0.0
C739 C 0.35452 0.96667 0.29295 0.0
C740 C 0.40323 0.96671 0.24863 0.0
H741 H 0.40362 1.00323 0.12062 0.0
H742 H 0.38224 0.989 0.16368 0.0
H743 H 0.43353 0.97873 0.21896 0.0
H744 H 0.36865 0.92456 0.33707 0.0
H745 H 0.38182 0.9295 0.29102 0.0
H746 H 0.33922 0.94892 0.2395 0.0
C747 C 0.3977 0.98535 0.15791 0.0
C748 C 0.41272 0.9716 0.22289 0.0
C749 C 0.40996 0.99358 0.13322 0.0
C750 C 0.36451 0.93634 0.32501 0.0
C751 C 0.3721 0.93919 0.2987 0.0
C752 C 0.35979 0.95526 0.23505 0.0
C753 C 0.40649 0.97407 0.17536 0.0
C754 C 0.39583 0.96809 0.20272 0.0
C755 C 0.36728 0.95446 0.28247 0.0
C756 C 0.37676 0.95867 0.25498 0.0
H757 H 0.45591 0.97646 0.13712 0.0
H758 H 0.43365 0.96069 0.17938 0.0
H759 H 0.35546 0.95648 0.1942 0.0
H760 H 0.33787 0.97412 0.32702 0.0
H761 H 0.35077 0.9787 0.28084 0.0
C762 C 0.13564 0.40096 0.3223 0.0
C763 C 0.11827 0.37465 0.32831 0.0
C764 C 0.13552 0.41079 0.29802 0.0
C765 C 0.11539 0.38884 0.23101 0.0
H766 H 0.12873 0.45766 0.22111 0.0
C767 C 0.09765 0.44652 0.14762 0.0
C768 C 0.10289 0.43557 0.12585 0.0
C769 C 0.10498 0.44382 0.17221 0.0
C770 C 0.12495 0.43838 0.22352 0.0
H771 H 0.08615 0.33832 0.3141 0.0
H772 H 0.08527 0.3556 0.2721 0.0
H773 H 0.12714 0.44203 0.26479 0.0
H774 H 0.12285 0.41611 0.1123 0.0
H775 H 0.1367 0.41241 0.155 0.0
H776 H 0.11182 0.38455 0.19006 0.0
C777 C 0.09962 0.36852 0.28581 0.0
C778 C 0.12425 0.42948 0.24858 0.0
C779 C 0.09991 0.35864 0.31 0.0
C780 C 0.11823 0.42448 0.12874 0.0
C781 C 0.12588 0.42208 0.1533 0.0
C782 C 0.11588 0.39763 0.20605 0.0
C783 C 0.11787 0.39458 0.27926 0.0
C784 C 0.11914 0.40446 0.25266 0.0
C785 C 0.11803 0.43042 0.17551 0.0
C786 C 0.12042 0.42243 0.20193 0.0
H787 H 0.15012 0.41381 0.33596 0.0
H788 H 0.14998 0.43089 0.29365 0.0
H789 H 0.11198 0.36969 0.23329 0.0
H790 H 0.08587 0.45523 0.14608 0.0
H791 H 0.09855 0.45051 0.18877 0.0
C792 C 0.23559 0.88743 0.40174 0.0
C793 C 0.25085 0.87612 0.40441 0.0
C794 C 0.21054 0.87359 0.3908 0.0
C795 C 0.17418 0.82059 0.34506 0.0
H796 H 0.11183 0.82167 0.36841 0.0
C797 C 0.07384 0.75206 0.30118 0.0
C798 C 0.05673 0.76078 0.29596 0.0
C799 C 0.09631 0.76682 0.31566 0.0
C800 C 0.12916 0.82145 0.36144 0.0
H801 H 0.25092 0.84085 0.39895 0.0
H802 H 0.20739 0.81682 0.38013 0.0
H803 H 0.15277 0.84553 0.39242 0.0
H804 H 0.04968 0.79184 0.30273 0.0
H805 H 0.08961 0.81814 0.32787 0.0
H806 H 0.15114 0.79704 0.31396 0.0
C807 C 0.21493 0.83651 0.38611 0.0
C808 C 0.1526 0.83505 0.37527 0.0
C809 C 0.23984 0.85025 0.39713 0.0
C810 C 0.06246 0.78458 0.30629 0.0
C811 C 0.08529 0.79958 0.32078 0.0
C812 C 0.15096 0.80724 0.33122 0.0
C813 C 0.20025 0.8482 0.38213 0.0
C814 C 0.17528 0.83442 0.36745 0.0
C815 C 0.10275 0.79102 0.32529 0.0
C816 C 0.12792 0.80704 0.3394 0.0
H817 H 0.24345 0.90733 0.40709 0.0
H818 H 0.19982 0.88322 0.388 0.0
H819 H 0.19144 0.82026 0.33802 0.0
H820 H 0.06993 0.73365 0.29402 0.0
H821 H 0.1087 0.75912 0.31931 0.0
C822 C 0.32077 0.28393 0.25977 0.0
C823 C 0.32263 0.26457 0.27218 0.0
C824 C 0.30575 0.29339 0.2711 0.0
C825 C 0.27835 0.29944 0.33481 0.0
H826 H 0.23764 0.31747 0.29282 0.0
C827 C 0.22775 0.35329 0.3766 0.0
C828 C 0.20171 0.34367 0.36884 0.0
C829 C 0.24344 0.34471 0.36461 0.0
C830 C 0.24884 0.31249 0.30489 0.0
H831 H 0.3094 0.23948 0.306 0.0
H832 H 0.28283 0.25571 0.3256 0.0
H833 H 0.2612 0.29863 0.27241 0.0
H834 H 0.17209 0.31786 0.34192 0.0
H835 H 0.19912 0.30313 0.32135 0.0
H836 H 0.26548 0.31289 0.3674 0.0
C837 C 0.29335 0.26385 0.30723 0.0
C838 C 0.26257 0.30185 0.29312 0.0
C839 C 0.30833 0.2543 0.29583 0.0
C840 C 0.19202 0.32574 0.34851 0.0
C841 C 0.20764 0.31736 0.33651 0.0
C842 C 0.26466 0.31018 0.3466 0.0
C843 C 0.29219 0.28382 0.29521 0.0
C844 C 0.27741 0.29503 0.30791 0.0
C845 C 0.2335 0.32655 0.34443 0.0
C846 C 0.24953 0.31666 0.33182 0.0
H847 H 0.33163 0.29243 0.24162 0.0
H848 H 0.30555 0.30889 0.26133 0.0
H849 H 0.28987 0.29479 0.34679 0.0
H850 H 0.23584 0.36705 0.3922 0.0
H851 H 0.26336 0.35236 0.37106 0.0
C852 C 0.77471 1.0054 0.29011 0.0
C853 C 0.79897 0.02695 0.2974 0.0
C854 C 0.76397 0.9816 0.30281 0.0
C855 C 0.7689 0.95205 0.36401 0.0
H856 H 0.72168 0.88856 0.32833 0.0
C857 C 0.72501 0.84735 0.40538 0.0
C858 C 0.69758 0.83024 0.40259 0.0
C859 C 0.73816 0.87215 0.3942 0.0
C860 C 0.73471 0.90615 0.3386 0.0
H861 H 0.83146 0.03997 0.32323 0.0
H862 H 0.81345 0.99812 0.34458 0.0
H863 H 0.74462 0.92918 0.30434 0.0
H864 H 0.66242 0.82617 0.38638 0.0
H865 H 0.68546 0.86916 0.36649 0.0
H866 H 0.75946 0.92838 0.3981 0.0
C867 C 0.80217 0.99977 0.32959 0.0
C868 C 0.74784 0.92959 0.32488 0.0
C869 C 0.81274 0.02378 0.3171 0.0
C870 C 0.68349 0.83886 0.3891 0.0
C871 C 0.69672 0.86342 0.37749 0.0
C872 C 0.75613 0.92845 0.37763 0.0
C873 C 0.77733 0.97836 0.32297 0.0
C874 C 0.76485 0.95306 0.33739 0.0
C875 C 0.72428 0.88017 0.37952 0.0
C876 C 0.73857 0.90529 0.36515 0.0
H877 H 0.76333 1.00711 0.27524 0.0
H878 H 0.74462 0.96602 0.2973 0.0
H879 H 0.78143 0.96953 0.37461 0.0
H880 H 0.73649 0.8413 0.41554 0.0
H881 H 0.75941 0.88461 0.39605 0.0
C882 C 0.84463 0.17652 0.21619 0.0
C883 C 0.85419 0.1613 0.22516 0.0
C884 C 0.86186 0.20086 0.20519 0.0
C885 C 0.92604 0.23954 0.17058 0.0
H886 H 0.91729 0.29682 0.18774 0.0
C887 C 0.99665 0.3404 0.12595 0.0
C888 C 0.98622 0.35545 0.11895 0.0
C889 C 0.98142 0.31779 0.14058 0.0
C890 C 0.91982 0.28099 0.18244 0.0
H891 H 0.88964 0.16004 0.22962 0.0
H892 H 0.91997 0.20276 0.20983 0.0
H893 H 0.88995 0.2556 0.21051 0.0
H894 H 0.95159 0.35866 0.1224 0.0
H895 H 0.92447 0.31856 0.14747 0.0
H896 H 0.95522 0.26444 0.14197 0.0
C897 C 0.89895 0.19562 0.21151 0.0
C898 C 0.90423 0.25738 0.19563 0.0
C899 C 0.88163 0.17123 0.22291 0.0
C900 C 0.96021 0.34753 0.12749 0.0
C901 C 0.94474 0.32457 0.14197 0.0
C902 C 0.94144 0.26305 0.15721 0.0
C903 C 0.8892 0.21071 0.20256 0.0
C904 C 0.90706 0.23633 0.18978 0.0
C905 C 0.95508 0.30922 0.14845 0.0
C906 C 0.93855 0.28415 0.16289 0.0
H907 H 0.82365 0.16965 0.21766 0.0
H908 H 0.85363 0.21177 0.19822 0.0
H909 H 0.92841 0.22361 0.1653 0.0
H910 H 1.01678 0.34611 0.1201 0.0
H911 H 0.99045 0.30705 0.14574 0.0
C912 C 0.7376 0.64245 0.14552 0.0
C913 C 0.72027 0.6168 0.13785 0.0
C914 C 0.75797 0.64872 0.16231 0.0
C915 C 0.80151 0.62764 0.18452 0.0
H916 H 0.81896 0.68035 0.23632 0.0
C917 C 0.89543 0.6678 0.2453 0.0
C918 C 0.91073 0.69483 0.24758 0.0
C919 C 0.86963 0.65544 0.2361 0.0
C920 C 0.8145 0.66571 0.22188 0.0
H921 H 0.7108 0.57752 0.14227 0.0
H922 H 0.74698 0.58863 0.17166 0.0
H923 H 0.7785 0.66341 0.21244 0.0
H924 H 0.91028 0.72987 0.24302 0.0
H925 H 0.86556 0.70848 0.22705 0.0
H926 H 0.83798 0.63054 0.19337 0.0
C927 C 0.74454 0.60383 0.1645 0.0
C928 C 0.79122 0.65593 0.20821 0.0
C929 C 0.72375 0.59744 0.14779 0.0
C930 C 0.89908 0.70903 0.24166 0.0
C931 C 0.8733 0.69669 0.23252 0.0
C932 C 0.8249 0.6375 0.19817 0.0
C933 C 0.76189 0.62962 0.17195 0.0
C934 C 0.78472 0.63722 0.1889 0.0
C935 C 0.85841 0.66977 0.22902 0.0
C936 C 0.83204 0.65712 0.21663 0.0
H937 H 0.73555 0.65793 0.13842 0.0
H938 H 0.77112 0.6688 0.16724 0.0
H939 H 0.79726 0.61341 0.16966 0.0
H940 H 0.90374 0.65621 0.24964 0.0
H941 H 0.85865 0.63467 0.23408 0.0
C942 C 0.39632 0.19617 0.19499 0.0
C943 C 0.41475 0.22047 0.20492 0.0
C944 C 0.40498 0.1812 0.18234 0.0
C945 C 0.46675 0.18699 0.15189 0.0
H946 H 0.42319 0.11234 0.15213 0.0
C947 C 0.50328 0.11909 0.11578 0.0
C948 C 0.48641 0.09945 0.09885 0.0
C949 C 0.49522 0.13465 0.12813 0.0
C950 C 0.43553 0.1332 0.15182 0.0
H951 H 0.45658 0.24753 0.21053 0.0
H952 H 0.47151 0.22114 0.19004 0.0
H953 H 0.40753 0.13695 0.17582 0.0
H954 H 0.44793 0.0811 0.08144 0.0
H955 H 0.43385 0.10782 0.10331 0.0
H956 H 0.49512 0.18293 0.12856 0.0
C957 C 0.45046 0.2139 0.19071 0.0
C958 C 0.42649 0.1474 0.16529 0.0
C959 C 0.44186 0.22902 0.20279 0.0
C960 C 0.46155 0.09611 0.09422 0.0
C961 C 0.45333 0.11127 0.10691 0.0
C962 C 0.476 0.17275 0.13887 0.0
C963 C 0.43227 0.18996 0.17977 0.0
C964 C 0.4419 0.17458 0.1655 0.0
C965 C 0.46991 0.13051 0.12423 0.0
C966 C 0.46043 0.14571 0.13856 0.0
H967 H 0.3753 0.18914 0.19617 0.0
H968 H 0.39024 0.16309 0.17398 0.0
H969 H 0.47907 0.20782 0.15087 0.0
H970 H 0.52247 0.12209 0.11988 0.0
H971 H 0.5084 0.14934 0.14141 0.0
C972 C 0.71673 0.11981 0.66659 0.0
C973 C 0.72031 0.11743 0.63983 0.0
C974 C 0.73882 0.13356 0.68221 0.0
C975 C 0.81078 0.18268 0.67989 0.0
H976 H 0.81462 0.14694 0.73957 0.0
C977 C 0.90411 0.22908 0.74079 0.0
C978 C 0.91453 0.21343 0.74509 0.0
C979 C 0.87834 0.21839 0.73207 0.0
C980 C 0.8138 0.15722 0.72303 0.0
H981 H 0.74968 0.1285 0.60834 0.0
H982 H 0.78789 0.15299 0.63525 0.0
H983 H 0.77346 0.12769 0.71589 0.0
H984 H 0.90529 0.17398 0.74502 0.0
H985 H 0.86023 0.15532 0.73003 0.0
H986 H 0.85118 0.21185 0.68645 0.0
C987 C 0.76819 0.14415 0.64431 0.0
C988 C 0.79015 0.14631 0.70962 0.0
C989 C 0.74627 0.13006 0.62888 0.0
C990 C 0.89792 0.18661 0.74195 0.0
C991 C 0.87204 0.17589 0.7334 0.0
C992 C 0.83424 0.19371 0.69344 0.0
C993 C 0.76481 0.14564 0.67123 0.0
C994 C 0.78856 0.15867 0.68757 0.0
C995 C 0.86221 0.19175 0.72759 0.0
C996 C 0.83626 0.18093 0.71491 0.0
H997 H 0.69696 0.11003 0.6756 0.0
H998 H 0.7356 0.13447 0.7029 0.0
H999 H 0.81016 0.19273 0.66305 0.0
H1000 H 0.91626 0.2498 0.74304 0.0
H1001 H 0.87127 0.23112 0.72818 0.0
C1002 C 0.95864 0.57655 0.61773 0.0
C1003 C 0.98618 0.59389 0.61479 0.0
C1004 C 0.9425 0.58426 0.63039 0.0
C1005 C 0.9437 0.64445 0.64749 0.0
H1006 H 0.8808 0.59894 0.68989 0.0
C1007 C 0.88347 0.68099 0.7045 0.0
C1008 C 0.85567 0.66527 0.70379 0.0
C1009 C 0.89962 0.67206 0.69474 0.0
C1010 C 0.89823 0.61186 0.67795 0.0
H1011 H 1.01856 0.63215 0.62444 0.0
H1012 H 0.99088 0.64513 0.64698 0.0
H1013 H 0.90798 0.58295 0.67141 0.0
H1014 H 0.82318 0.62772 0.69218 0.0
H1015 H 0.85117 0.61241 0.67525 0.0
H1016 H 0.93401 0.67335 0.65402 0.0
C1017 C 0.9814 0.62599 0.63877 0.0
C1018 C 0.91378 0.60265 0.66729 0.0
C1019 C 0.99734 0.61844 0.62599 0.0
C1020 C 0.8445 0.64045 0.69312 0.0
C1021 C 0.86056 0.63151 0.68355 0.0
C1022 C 0.92825 0.65367 0.65823 0.0
C1023 C 0.95368 0.60937 0.64051 0.0
C1024 C 0.93678 0.61884 0.65193 0.0
C1025 C 0.88833 0.64714 0.68422 0.0
C1026 C 0.90527 0.63751 0.67355 0.0
H1027 H 0.94947 0.55756 0.60921 0.0
H1028 H 0.92122 0.57092 0.63131 0.0
H1029 H 0.96089 0.65739 0.6353 0.0
H1030 H 0.89275 0.70015 0.71263 0.0
H1031 H 0.92095 0.68455 0.69572 0.0
C1032 C 0.39599 0.18201 0.73503 0.0
C1033 C 0.36819 0.16577 0.73748 0.0
C1034 C 0.40779 0.20754 0.72625 0.0
C1035 C 0.39424 0.25962 0.71365 0.0
H1036 H 0.45136 0.28235 0.66156 0.0
C1037 C 0.42085 0.34078 0.64055 0.0
C1038 C 0.44754 0.35824 0.63287 0.0
C1039 C 0.41377 0.31975 0.65669 0.0
C1040 C 0.43577 0.27655 0.6764 0.0
H1041 H 0.33109 0.16412 0.73358 0.0
H1042 H 0.35156 0.20849 0.71822 0.0
H1043 H 0.43393 0.24119 0.68396 0.0
H1044 H 0.48782 0.36734 0.63668 0.0
H1045 H 0.47535 0.33021 0.66499 0.0
H1046 H 0.39562 0.29467 0.70556 0.0
C1047 C 0.36435 0.20162 0.72329 0.0
C1048 C 0.42572 0.25288 0.68929 0.0
C1049 C 0.35254 0.17608 0.73208 0.0
C1050 C 0.4671 0.3543 0.64223 0.0
C1051 C 0.45993 0.33295 0.65832 0.0
C1052 C 0.40425 0.28323 0.70074 0.0
C1053 C 0.39212 0.21754 0.71968 0.0
C1054 C 0.40447 0.24385 0.70775 0.0
C1055 C 0.4331 0.31534 0.66564 0.0
C1056 C 0.42477 0.29177 0.68155 0.0
H1057 H 0.40869 0.17476 0.73906 0.0
H1058 H 0.42922 0.21931 0.7242 0.0
H1059 H 0.37827 0.25361 0.7281 0.0
H1060 H 0.40519 0.34317 0.63385 0.0
H1061 H 0.39291 0.30647 0.66154 0.0
C1062 C 0.32389 1.01052 0.79353 0.0
C1063 C 0.31127 0.02364 0.78694 0.0
C1064 C 0.31014 0.98721 0.80727 0.0
C1065 C 0.24776 0.94357 0.84606 0.0
H1066 H 0.26413 0.89196 0.82523 0.0
C1067 C 0.17913 0.83536 0.87121 0.0
C1068 C 0.19066 0.82172 0.87964 0.0
C1069 C 0.19488 0.86072 0.86206 0.0
C1070 C 0.25957 0.90626 0.83153 0.0
H1071 H 0.27444 0.02296 0.79033 0.0
H1072 H 0.2499 0.9816 0.81376 0.0
H1073 H 0.28881 0.93464 0.8052 0.0
H1074 H 0.228 0.82426 0.88503 0.0
H1075 H 0.25571 0.86872 0.86845 0.0
H1076 H 0.2178 0.9146 0.87174 0.0
C1077 C 0.2707 0.98963 0.8087 0.0
C1078 C 0.27376 0.93084 0.82008 0.0
C1079 C 0.28469 1.01332 0.79521 0.0
C1080 C 0.21849 0.83418 0.87867 0.0
C1081 C 0.23432 0.85959 0.86912 0.0
C1082 C 0.23337 0.91886 0.8573 0.0
C1083 C 0.28314 0.97601 0.81449 0.0
C1084 C 0.26807 0.94989 0.82713 0.0
C1085 C 0.22264 0.87315 0.86079 0.0
C1086 C 0.23904 0.89988 0.85008 0.0
H1087 H 0.34452 0.01818 0.78781 0.0
H1088 H 0.32073 0.97788 0.81201 0.0
H1089 H 0.24304 0.95774 0.85235 0.0
H1090 H 0.15778 0.82649 0.87175 0.0
H1091 H 0.18523 0.87045 0.85549 0.0
C1092 C 0.05571 0.26833 0.81786 0.0
C1093 C 0.06115 0.27601 0.79163 0.0
C1094 C 0.0766 0.2758 0.83471 0.0
C1095 C 0.14829 0.2993 0.83599 0.0
H1096 H 0.14846 0.33476 0.89895 0.0
C1097 C 0.23735 0.34329 0.90268 0.0
C1098 C 0.24743 0.36915 0.90958 0.0
C1099 C 0.21228 0.32844 0.89211 0.0
C1100 C 0.14867 0.32482 0.88149 0.0
H1101 H 0.0926 0.29645 0.76231 0.0
H1102 H 0.1287 0.3087 0.79129 0.0
H1103 H 0.10909 0.31411 0.87253 0.0
H1104 H 0.23821 0.39912 0.91209 0.0
H1105 H 0.19439 0.37315 0.89385 0.0
H1106 H 0.188 0.31051 0.84438 0.0
C1107 C 0.10846 0.29716 0.79901 0.0
C1108 C 0.12602 0.31278 0.86649 0.0
C1109 C 0.08774 0.29018 0.7824 0.0
C1110 C 0.2311 0.37927 0.90706 0.0
C1111 C 0.20591 0.36434 0.89663 0.0
C1112 C 0.17076 0.31104 0.85109 0.0
C1113 C 0.10324 0.29055 0.82549 0.0
C1114 C 0.12578 0.30035 0.84326 0.0
C1115 C 0.1965 0.33897 0.8883 0.0
C1116 C 0.17147 0.32438 0.87379 0.0
H1117 H 0.03543 0.25765 0.82559 0.0
H1118 H 0.07195 0.27032 0.855 0.0
H1119 H 0.14872 0.28979 0.81827 0.0
H1120 H 0.24931 0.33479 0.90437 0.0
H1121 H 0.20551 0.30886 0.88628 0.0
C1122 C 0.82602 0.77349 0.79007 0.0
C1123 C 0.81144 0.75585 0.77059 0.0
C1124 C 0.81694 0.78837 0.80204 0.0
C1125 C 0.75523 0.78714 0.81752 0.0
H1126 H 0.80169 0.86004 0.83085 0.0
C1127 C 0.71616 0.84976 0.86285 0.0
C1128 C 0.73338 0.87045 0.87854 0.0
C1129 C 0.72506 0.83529 0.8495 0.0
C1130 C 0.78843 0.83958 0.82774 0.0
H1131 H 0.77623 0.74068 0.74794 0.0
H1132 H 0.76046 0.76641 0.76892 0.0
H1133 H 0.81922 0.83678 0.80778 0.0
H1134 H 0.77286 0.89118 0.89374 0.0
H1135 H 0.78784 0.86552 0.87173 0.0
H1136 H 0.72457 0.78966 0.83803 0.0
C1137 C 0.77882 0.76866 0.77501 0.0
C1138 C 0.79855 0.8263 0.81434 0.0
C1139 C 0.78805 0.75408 0.76283 0.0
C1140 C 0.75917 0.87558 0.88151 0.0
C1141 C 0.76788 0.86096 0.86861 0.0
C1142 C 0.74516 0.80035 0.83125 0.0
C1143 C 0.79291 0.78567 0.79505 0.0
C1144 C 0.78209 0.79992 0.80908 0.0
C1145 C 0.75126 0.841 0.85185 0.0
C1146 C 0.76164 0.82678 0.8367 0.0
H1147 H 0.84403 0.77525 0.79661 0.0
H1148 H 0.82822 0.80128 0.81747 0.0
H1149 H 0.74208 0.76673 0.814 0.0
H1150 H 0.69623 0.84546 0.86005 0.0
H1151 H 0.71164 0.8202 0.83669 0.0
C1152 C 0.51348 0.51085 0.5714 0.0
C1153 C 0.5265 0.4971 0.57138 0.0
C1154 C 0.52657 0.53629 0.562 0.0
C1155 C 0.59361 0.5927 0.54257 0.0
H1156 H 0.55387 0.60998 0.49811 0.0
C1157 C 0.64444 0.67322 0.46573 0.0
C1158 C 0.63506 0.68983 0.46192 0.0
C1159 C 0.63084 0.65191 0.48237 0.0
C1160 C 0.56515 0.60565 0.51081 0.0
H1161 H 0.56385 0.49979 0.5622 0.0
H1162 H 0.58653 0.54387 0.54562 0.0
H1163 H 0.53118 0.56878 0.52147 0.0
H1164 H 0.60388 0.69695 0.47294 0.0
H1165 H 0.57961 0.65908 0.502 0.0
H1166 H 0.62774 0.62919 0.53114 0.0
C1167 C 0.5663 0.53521 0.55321 0.0
C1168 C 0.55215 0.58199 0.52426 0.0
C1169 C 0.55324 0.50981 0.56268 0.0
C1170 C 0.61164 0.68456 0.47543 0.0
C1171 C 0.59771 0.66285 0.49197 0.0
C1172 C 0.60659 0.61623 0.52902 0.0
C1173 C 0.55301 0.54868 0.55226 0.0
C1174 C 0.5663 0.57494 0.53994 0.0
C1175 C 0.60726 0.64632 0.49566 0.0
C1176 C 0.59266 0.62279 0.51254 0.0
H1177 H 0.49289 0.50171 0.578 0.0
H1178 H 0.51579 0.54613 0.56205 0.0
H1179 H 0.60511 0.5883 0.55487 0.0
H1180 H 0.66247 0.67664 0.45581 0.0
H1181 H 0.63858 0.63946 0.48441 0.0
C1182 C 0.5597 1.01217 0.58518 0.0
C1183 C 0.57309 0.0386 0.59124 0.0
C1184 C 0.53529 1.00019 0.57298 0.0
C1185 C 0.49982 0.0177 0.52921 0.0
H1186 H 0.43906 0.9488 0.54258 0.0
C1187 C 0.40374 0.98248 0.47662 0.0
C1188 C 0.38915 0.95691 0.46783 0.0
C1189 C 0.4245 0.99042 0.49337 0.0
C1190 C 0.45599 0.96795 0.53839 0.0
H1191 H 0.57021 0.07259 0.59085 0.0
H1192 H 0.52778 0.05175 0.56991 0.0
H1193 H 0.47773 0.9662 0.56986 0.0
H1194 H 0.38455 0.91935 0.47061 0.0
H1195 H 0.42157 0.93343 0.49965 0.0
H1196 H 0.47882 0.01953 0.49755 0.0
C1197 C 0.53634 0.04035 0.57414 0.0
C1198 C 0.4781 0.97796 0.55411 0.0
C1199 C 0.56061 0.05226 0.58638 0.0
C1200 C 0.39543 0.93919 0.47697 0.0
C1201 C 0.41659 0.94728 0.49368 0.0
C1202 C 0.47797 1.0077 0.51348 0.0
C1203 C 0.5238 0.01441 0.56646 0.0
C1204 C 0.50014 1.00314 0.54991 0.0
C1205 C 0.43174 0.97319 0.50172 0.0
C1206 C 0.4555 0.98285 0.51802 0.0
H1207 H 0.56874 1.00104 0.58855 0.0
H1208 H 0.52619 0.9802 0.56734 0.0
H1209 H 0.51671 0.03685 0.52491 0.0
H1210 H 0.3992 0.99659 0.47044 0.0
H1211 H 0.435 1.01028 0.4997 0.0
C1212 C 0.16462 0.43951 0.46954 0.0
C1213 C 0.15179 0.42364 0.44832 0.0
C1214 C 0.15407 0.45274 0.48255 0.0
C1215 C 0.1024 0.47054 0.47702 0.0
H1216 H 0.10874 0.47865 0.5515 0.0
C1217 C 0.0365 0.49544 0.54009 0.0
C1218 C 0.05019 0.51732 0.5558 0.0
C1219 C 0.04961 0.48413 0.52839 0.0
C1220 C 0.1069 0.47658 0.53069 0.0
H1221 H 0.1179 0.40959 0.42404 0.0
H1222 H 0.09924 0.43161 0.44691 0.0
H1223 H 0.13096 0.46001 0.52753 0.0
H1224 H 0.08813 0.54354 0.5726 0.0
H1225 H 0.11075 0.52313 0.55284 0.0
H1226 H 0.07747 0.48621 0.48049 0.0
C1227 C 0.11785 0.43469 0.45327 0.0
C1228 C 0.11983 0.46607 0.51682 0.0
C1229 C 0.12856 0.42185 0.4401 0.0
C1230 C 0.07695 0.52667 0.56069 0.0
C1231 C 0.08994 0.51501 0.54936 0.0
C1232 C 0.08911 0.48054 0.49094 0.0
C1233 C 0.13021 0.45017 0.47491 0.0
C1234 C 0.11765 0.4627 0.48973 0.0
C1235 C 0.07661 0.49408 0.53247 0.0
C1236 C 0.09106 0.48355 0.51794 0.0
H1237 H 0.18251 0.44131 0.47644 0.0
H1238 H 0.16458 0.4648 0.49875 0.0
H1239 H 0.10069 0.46906 0.45619 0.0
H1240 H 1.01596 0.48781 0.53574 0.0
H1241 H 0.03874 0.46786 0.51568 0.0
C1242 C 0.38679 0.45363 0.9892 0.0
C1243 C 0.39224 0.45343 0.96246 0.0
C1244 C 0.40765 0.46659 0.00635 0.0
C1245 C 0.4788 0.51733 0.00934 0.0
H1246 H 0.48041 0.47843 0.06733 0.0
C1247 C 0.56737 0.5621 0.07659 0.0
C1248 C 0.57858 0.54708 0.08046 0.0
C1249 C 0.54222 0.5512 0.06625 0.0
C1250 C 0.48019 0.48958 0.05129 0.0
H1251 H 0.42367 0.46752 0.93267 0.0
H1252 H 0.45976 0.49064 0.96228 0.0
H1253 H 0.44101 0.45968 0.04099 0.0
H1254 H 0.57129 0.50836 0.07789 0.0
H1255 H 0.52728 0.4893 0.06011 0.0
H1256 H 0.51809 0.54695 0.01908 0.0
C1257 C 0.43952 0.48068 0.97013 0.0
C1258 C 0.45754 0.47894 0.03635 0.0
C1259 C 0.41881 0.46737 0.95315 0.0
C1260 C 0.56328 0.52051 0.07522 0.0
C1261 C 0.53799 0.50956 0.06505 0.0
C1262 C 0.50125 0.52808 0.02443 0.0
C1263 C 0.43428 0.48006 -0.00302 0.0
C1264 C 0.45681 0.4925 0.01487 0.0
C1265 C 0.5275 0.52494 0.05968 0.0
C1266 C 0.50246 0.51419 0.04533 0.0
H1267 H 0.36653 0.44281 -0.00304 0.0
H1268 H 0.40301 0.46586 0.02695 0.0
H1269 H 0.47883 0.52831 0.99299 0.0
H1270 H 0.57851 0.58261 0.08042 0.0
H1271 H 0.53457 0.56353 0.06273 0.0
C1272 C 0.6484 0.94559 0.93036 0.0
C1273 C 0.64104 0.92003 0.93564 0.0
C1274 C 0.63361 0.95561 0.94084 0.0
C1275 C 0.58366 0.94338 0.99415 0.0
H1276 H 0.58151 0.99825 0.95945 0.0
C1277 C 0.51431 0.9792 0.02752 0.0
C1278 C 0.5256 1.00601 0.02957 0.0
C1279 C 0.52882 0.96915 0.01643 0.0
C1280 C 0.58217 0.98311 0.96946 0.0
H1281 H 0.61145 0.88457 0.95518 0.0
H1282 H 0.5848 0.90158 0.9725 0.0
H1283 H 0.60366 0.97845 0.93787 0.0
H1284 H 0.56113 0.04331 0.02151 0.0
H1285 H 0.58645 0.02563 0.00133 0.0
H1286 H 0.56122 0.94757 0.02532 0.0
C1287 C 0.60263 0.91427 0.96096 0.0
C1288 C 0.59493 0.97172 0.95714 0.0
C1289 C 0.61772 0.90434 0.95074 0.0
C1290 C 0.55191 0.02259 0.02028 0.0
C1291 C 0.56632 1.01248 0.00863 0.0
C1292 C 0.57052 0.95448 0.00625 0.0
C1293 C 0.61068 0.94027 0.95666 0.0
C1294 C 0.59602 0.95173 0.96933 0.0
C1295 C 0.55489 0.98562 0.00664 0.0
C1296 C 0.5697 0.97453 0.99409 0.0
H1297 H 0.66636 0.95837 0.91898 0.0
H1298 H 0.64089 0.97576 0.93729 0.0
H1299 H 0.58447 0.92854 0.00456 0.0
H1300 H 0.49414 0.96584 0.03457 0.0
H1301 H 0.51941 0.94841 0.01502 0.0
C1302 C 0.12044 0.66637 0.94421 0.0
C1303 C 0.14406 0.68893 0.9512 0.0
C1304 C 0.10998 0.64361 0.95874 0.0
C1305 C 0.1246 0.60731 0.00349 0.0
H1306 H 0.05142 0.5772 0.02797 0.0
C1307 C 0.07304 0.51559 0.06857 0.0
C1308 C 0.0462 0.49727 0.06437 0.0
C1309 C 0.08548 0.54032 0.05739 0.0
C1310 C 0.07173 0.585 0.02106 0.0
H1311 H 0.1759 0.7047 0.97822 0.0
H1312 H 0.15799 0.66444 0.00309 0.0
H1313 H 0.07282 0.61644 0.00166 0.0
H1314 H 1.01121 0.49094 0.04567 0.0
H1315 H 0.03283 0.53339 0.02561 0.0
H1316 H 0.12337 0.5754 0.02175 0.0
C1317 C 0.14747 0.66467 0.98652 0.0
C1318 C 0.08403 0.60764 0.00605 0.0
C1319 C 0.15774 0.68768 0.97224 0.0
C1320 C 0.03183 0.50464 0.0496 0.0
C1321 C 0.04434 0.52918 0.03807 0.0
C1322 C 0.11215 0.58433 0.01811 0.0
C1323 C 0.12308 0.64262 0.98035 0.0
C1324 C 0.11053 0.61896 -0.00305 0.0
C1325 C 0.07154 0.54729 0.04132 0.0
C1326 C 0.08541 0.57267 0.027 0.0
H1327 H 0.10927 0.66657 0.92822 0.0
H1328 H 0.09132 0.62682 0.95333 0.0
H1329 H 0.14502 0.61555 -0.00337 0.0
H1330 H 0.0847 0.51056 0.07988 0.0
H1331 H 0.10621 0.55378 0.06102 0.0
loop_
_geom_bond_atom_site_label_1
_geom_bond_atom_site_label_2
_geom_bond_distance
_geom_bond_site_symmetry_2
_ccdc_geom_bond_type
O0 Cd1 2.223 . S
O0 C8 1.315 . S
Cd1 O0 2.223 . S
Cd1 O4 2.297 . S
Cd1 O5 2.439 1_455 S
Cd1 O11 2.240 . S
Cd2 O3 2.240 . S
Cd2 O10 2.223 . S
Cd2 O12 2.297 1_455 S
Cd2 O13 2.439 1_455 S
O3 Cd2 2.240 . S
O3 C8 1.279 . S
O4 Cd1 2.297 . S
O4 C6 1.247 . S
O5 Cd1 2.439 1_655 S
O5 C6 1.208 1_655 S
C6 O4 1.247 . S
C6 O5 1.208 1_455 S
C7 O12 1.247 . S
C7 O13 1.208 . S
C8 O0 1.315 . S
C8 O3 1.279 . S
C9 O10 1.315 . S
C9 O11 1.279 . S
O10 Cd2 2.223 . S
O10 C9 1.315 . S
O11 Cd1 2.240 . S
O11 C9 1.279 . S
O12 Cd2 2.297 1_655 S
O12 C7 1.247 . S
O13 Cd2 2.439 1_655 S
O13 C7 1.208 . S
O14 Cd15 2.223 . S
O14 C22 1.315 . S
Cd15 O14 2.223 . S
Cd15 O18 2.297 . S
Cd15 O19 2.439 . S
Cd15 O25 2.240 . S
Cd16 O17 2.240 . S
Cd16 O24 2.223 . S
Cd16 O26 2.297 . S
Cd16 O27 2.439 . S
O17 Cd16 2.240 . S
O17 C22 1.279 . S
O18 Cd15 2.297 . S
O18 C20 1.247 . S
O19 Cd15 2.439 . S
O19 C20 1.208 . S
C20 O18 1.247 . S
C20 O19 1.208 . S
C21 O26 1.247 . S
C21 O27 1.208 . S
C22 O14 1.315 . S
C22 O17 1.279 . S
C23 O24 1.315 . S
C23 O25 1.279 . S
O24 Cd16 2.223 . S
O24 C23 1.315 . S
O25 Cd15 2.240 . S
O25 C23 1.279 . S
O26 Cd16 2.297 . S
O26 C21 1.247 . S
O27 Cd16 2.439 . S
O27 C21 1.208 . S
O28 Cd29 2.223 . S
O28 C36 1.315 . S
Cd29 O28 2.223 . S
Cd29 O32 2.297 . S
Cd29 O33 2.439 1_545 S
Cd29 O39 2.240 . S
Cd30 O31 2.240 . S
Cd30 O38 2.223 . S
Cd30 O40 2.297 1_545 S
Cd30 O41 2.439 1_545 S
O31 Cd30 2.240 . S
O31 C36 1.279 . S
O32 Cd29 2.297 . S
O32 C34 1.247 . S
O33 Cd29 2.439 1_565 S
O33 C34 1.208 1_565 S
C34 O32 1.247 . S
C34 O33 1.208 1_545 S
C35 O40 1.247 . S
C35 O41 1.208 . S
C36 O28 1.315 . S
C36 O31 1.279 . S
C37 O38 1.315 . S
C37 O39 1.279 . S
O38 Cd30 2.223 . S
O38 C37 1.315 . S
O39 Cd29 2.240 . S
O39 C37 1.279 . S
O40 Cd30 2.297 1_565 S
O40 C35 1.247 . S
O41 Cd30 2.439 1_565 S
O41 C35 1.208 . S
O42 Cd43 2.223 . S
O42 C50 1.315 . S
Cd43 O42 2.223 . S
Cd43 O46 2.297 . S
Cd43 O47 2.439 1_455 S
Cd43 O53 2.240 . S
Cd44 O45 2.240 . S
Cd44 O52 2.223 . S
Cd44 O54 2.297 1_455 S
Cd44 O55 2.439 1_455 S
O45 Cd44 2.240 . S
O45 C50 1.279 . S
O46 Cd43 2.297 . S
O46 C48 1.247 . S
O47 Cd43 2.439 1_655 S
O47 C48 1.208 1_655 S
C48 O46 1.247 . S
C48 O47 1.208 1_455 S
C49 O54 1.247 . S
C49 O55 1.208 . S
C50 O42 1.315 . S
C50 O45 1.279 . S
C51 O52 1.315 . S
C51 O53 1.279 . S
O52 Cd44 2.223 . S
O52 C51 1.315 . S
O53 Cd43 2.240 . S
O53 C51 1.279 . S
O54 Cd44 2.297 1_655 S
O54 C49 1.247 . S
O55 Cd44 2.439 1_655 S
O55 C49 1.208 . S
O56 Cd57 2.223 . S
O56 C64 1.315 . S
Cd57 O56 2.223 . S
Cd57 O60 2.297 . S
Cd57 O61 2.439 . S
Cd57 O67 2.240 . S
Cd58 O59 2.240 . S
Cd58 O66 2.223 . S
Cd58 O68 2.297 . S
Cd58 O69 2.439 . S
O59 Cd58 2.240 . S
O59 C64 1.279 . S
O60 Cd57 2.297 . S
O60 C62 1.247 . S
O61 Cd57 2.439 . S
O61 C62 1.208 . S
C62 O60 1.247 . S
C62 O61 1.208 . S
C63 O68 1.247 . S
C63 O69 1.208 . S
C64 O56 1.315 . S
C64 O59 1.279 . S
C65 O66 1.315 . S
C65 O67 1.279 . S
O66 Cd58 2.223 . S
O66 C65 1.315 . S
O67 Cd57 2.240 . S
O67 C65 1.279 . S
O68 Cd58 2.297 . S
O68 C63 1.247 . S
O69 Cd58 2.439 . S
O69 C63 1.208 . S
O70 Cd71 2.223 1_565 S
O70 C78 1.315 . S
Cd71 O70 2.223 1_545 S
Cd71 O74 2.297 . S
Cd71 O75 2.439 . S
Cd71 O81 2.240 . S
Cd72 O73 2.240 1_545 S
Cd72 O80 2.223 1_545 S
Cd72 O82 2.297 . S
Cd72 O83 2.439 . S
O73 Cd72 2.240 1_565 S
O73 C78 1.279 . S
O74 Cd71 2.297 . S
O74 C76 1.247 . S
O75 Cd71 2.439 . S
O75 C76 1.208 . S
C76 O74 1.247 . S
C76 O75 1.208 . S
C77 O82 1.247 . S
C77 O83 1.208 . S
C78 O70 1.315 . S
C78 O73 1.279 . S
C79 O80 1.303 . S
C79 O81 1.269 1_565 S
O80 Cd72 2.223 1_565 S
O80 C79 1.303 . S
O81 Cd71 2.240 . S
O81 C79 1.269 1_545 S
O82 Cd72 2.297 . S
O82 C77 1.247 . S
O83 Cd72 2.439 . S
O83 C77 1.208 . S
O84 Cd85 2.223 . S
O84 C92 1.315 . S
Cd85 O84 2.223 . S
Cd85 O88 2.297 . S
Cd85 O89 2.439 . S
Cd85 O95 2.240 . S
Cd86 O87 2.240 . S
Cd86 O94 2.223 . S
Cd86 O96 2.297 . S
Cd86 O97 2.439 . S
O87 Cd86 2.240 . S
O87 C92 1.279 . S
O88 Cd85 2.297 . S
O88 C90 1.247 . S
O89 Cd85 2.439 . S
O89 C90 1.208 . S
C90 O88 1.247 . S
C90 O89 1.208 . S
C91 O96 1.247 . S
C91 O97 1.208 . S
C92 O84 1.315 . S
C92 O87 1.279 . S
C93 O94 1.315 . S
C93 O95 1.279 . S
O94 Cd86 2.223 . S
O94 C93 1.315 . S
O95 Cd85 2.240 . S
O95 C93 1.279 . S
O96 Cd86 2.297 . S
O96 C91 1.247 . S
O97 Cd86 2.439 . S
O97 C91 1.208 . S
O98 Cd99 2.223 . S
O98 C106 1.315 . S
Cd99 O98 2.223 . S
Cd99 O102 2.297 . S
Cd99 O103 2.439 . S
Cd99 O109 2.240 . S
Cd100 O101 2.240 . S
Cd100 O108 2.223 . S
Cd100 O110 2.297 . S
Cd100 O111 2.439 . S
O101 Cd100 2.240 . S
O101 C106 1.279 . S
O102 Cd99 2.297 . S
O102 C104 1.247 . S
O103 Cd99 2.439 . S
O103 C104 1.208 . S
C104 O102 1.247 . S
C104 O103 1.208 . S
C105 O110 1.247 . S
C105 O111 1.208 . S
C106 O98 1.315 . S
C106 O101 1.279 . S
C107 O108 1.315 . S
C107 O109 1.279 . S
O108 Cd100 2.223 . S
O108 C107 1.315 . S
O109 Cd99 2.240 . S
O109 C107 1.279 . S
O110 Cd100 2.297 . S
O110 C105 1.247 . S
O111 Cd100 2.439 . S
O111 C105 1.208 . S
O112 Cd113 2.223 . S
O112 C120 1.315 . S
Cd113 O112 2.223 . S
Cd113 O116 2.297 . S
Cd113 O117 2.439 . S
Cd113 O123 2.240 . S
Cd114 O115 2.240 . S
Cd114 O122 2.223 . S
Cd114 O124 2.297 . S
Cd114 O125 2.439 . S
O115 Cd114 2.240 . S
O115 C120 1.279 . S
O116 Cd113 2.297 . S
O116 C118 1.247 . S
O117 Cd113 2.439 . S
O117 C118 1.208 . S
C118 O116 1.247 . S
C118 O117 1.208 . S
C119 O124 1.247 . S
C119 O125 1.208 . S
C120 O112 1.315 . S
C120 O115 1.279 . S
C121 O122 1.315 . S
C121 O123 1.279 . S
O122 Cd114 2.223 . S
O122 C121 1.315 . S
O123 Cd113 2.240 . S
O123 C121 1.279 . S
O124 Cd114 2.297 . S
O124 C119 1.247 . S
O125 Cd114 2.439 . S
O125 C119 1.208 . S
O126 Cd127 2.223 . S
O126 C134 1.315 . S
Cd127 O126 2.223 . S
Cd127 O130 2.297 . S
Cd127 O131 2.439 . S
Cd127 O137 2.240 . S
Cd128 O129 2.240 . S
Cd128 O136 2.223 . S
Cd128 O138 2.297 . S
Cd128 O139 2.439 . S
O129 Cd128 2.240 . S
O129 C134 1.279 . S
O130 Cd127 2.297 . S
O130 C132 1.247 . S
O131 Cd127 2.439 . S
O131 C132 1.208 . S
C132 O130 1.247 . S
C132 O131 1.208 . S
C133 O138 1.247 . S
C133 O139 1.208 . S
C134 O126 1.315 . S
C134 O129 1.279 . S
C135 O136 1.315 . S
C135 O137 1.279 . S
O136 Cd128 2.223 . S
O136 C135 1.315 . S
O137 Cd127 2.240 . S
O137 C135 1.279 . S
O138 Cd128 2.297 . S
O138 C133 1.247 . S
O139 Cd128 2.439 . S
O139 C133 1.208 . S
O140 Cd141 2.223 . S
O140 C148 1.315 . S
Cd141 O140 2.223 . S
Cd141 O144 2.297 . S
Cd141 O145 2.439 . S
Cd141 O151 2.240 . S
Cd142 O143 2.240 . S
Cd142 O150 2.223 . S
Cd142 O152 2.297 . S
Cd142 O153 2.439 . S
O143 Cd142 2.240 . S
O143 C148 1.279 . S
O144 Cd141 2.297 . S
O144 C146 1.247 . S
O145 Cd141 2.439 . S
O145 C146 1.208 . S
C146 O144 1.247 . S
C146 O145 1.208 . S
C147 O152 1.247 . S
C147 O153 1.208 . S
C148 O140 1.315 . S
C148 O143 1.279 . S
C149 O150 1.315 . S
C149 O151 1.279 . S
O150 Cd142 2.223 . S
O150 C149 1.315 . S
O151 Cd141 2.240 . S
O151 C149 1.279 . S
O152 Cd142 2.297 . S
O152 C147 1.247 . S
O153 Cd142 2.439 . S
O153 C147 1.208 . S
O154 Cd155 2.223 . S
O154 C162 1.315 . S
Cd155 O154 2.223 . S
Cd155 O158 2.297 . S
Cd155 O159 2.439 . S
Cd155 O165 2.240 . S
Cd156 O157 2.240 . S
Cd156 O164 2.223 . S
Cd156 O166 2.297 . S
Cd156 O167 2.439 . S
O157 Cd156 2.240 . S
O157 C162 1.279 . S
O158 Cd155 2.297 . S
O158 C160 1.247 . S
O159 Cd155 2.439 . S
O159 C160 1.208 . S
C160 O158 1.247 . S
C160 O159 1.208 . S
C161 O166 1.247 . S
C161 O167 1.208 . S
C162 O154 1.315 . S
C162 O157 1.279 . S
C163 O164 1.315 . S
C163 O165 1.279 . S
O164 Cd156 2.223 . S
O164 C163 1.315 . S
O165 Cd155 2.240 . S
O165 C163 1.279 . S
O166 Cd156 2.297 . S
O166 C161 1.247 . S
O167 Cd156 2.439 . S
O167 C161 1.208 . S
O168 Cd169 2.223 . S
O168 C176 1.315 . S
Cd169 O168 2.223 . S
Cd169 O172 2.297 . S
Cd169 O173 2.439 . S
Cd169 O179 2.240 . S
Cd170 O171 2.240 . S
Cd170 O178 2.223 . S
Cd170 O180 2.297 . S
Cd170 O181 2.439 . S
O171 Cd170 2.240 . S
O171 C176 1.279 . S
O172 Cd169 2.297 . S
O172 C174 1.247 . S
O173 Cd169 2.439 . S
O173 C174 1.208 . S
C174 O172 1.247 . S
C174 O173 1.208 . S
C175 O180 1.247 . S
C175 O181 1.208 . S
C176 O168 1.315 . S
C176 O171 1.279 . S
C177 O178 1.315 . S
C177 O179 1.279 . S
O178 Cd170 2.223 . S
O178 C177 1.315 . S
O179 Cd169 2.240 . S
O179 C177 1.279 . S
O180 Cd170 2.297 . S
O180 C175 1.247 . S
O181 Cd170 2.439 . S
O181 C175 1.208 . S
O182 Cd183 2.223 . S
O182 C190 1.315 . S
Cd183 O182 2.223 . S
Cd183 O186 2.297 . S
Cd183 O187 2.439 . S
Cd183 O193 2.240 . S
Cd184 O185 2.240 . S
Cd184 O192 2.223 . S
Cd184 O194 2.297 . S
Cd184 O195 2.439 . S
O185 Cd184 2.240 . S
O185 C190 1.279 . S
O186 Cd183 2.297 . S
O186 C188 1.247 . S
O187 Cd183 2.439 . S
O187 C188 1.208 . S
C188 O186 1.247 . S
C188 O187 1.208 . S
C189 O194 1.247 . S
C189 O195 1.208 . S
C190 O182 1.315 . S
C190 O185 1.279 . S
C191 O192 1.315 . S
C191 O193 1.279 . S
O192 Cd184 2.223 . S
O192 C191 1.315 . S
O193 Cd183 2.240 . S
O193 C191 1.279 . S
O194 Cd184 2.297 . S
O194 C189 1.247 . S
O195 Cd184 2.439 . S
O195 C189 1.208 . S
O196 Cd197 2.223 . S
O196 C204 1.315 . S
Cd197 O196 2.223 . S
Cd197 O200 2.297 . S
Cd197 O201 2.439 . S
Cd197 O207 2.240 . S
Cd198 O199 2.240 . S
Cd198 O206 2.223 . S
Cd198 O208 2.297 . S
Cd198 O209 2.439 . S
O199 Cd198 2.240 . S
O199 C204 1.279 . S
O200 Cd197 2.297 . S
O200 C202 1.247 . S
O201 Cd197 2.439 . S
O201 C202 1.208 . S
C202 O200 1.247 . S
C202 O201 1.208 . S
C203 O208 1.247 . S
C203 O209 1.208 . S
C204 O196 1.315 . S
C204 O199 1.279 . S
C205 O206 1.315 . S
C205 O207 1.279 . S
O206 Cd198 2.223 . S
O206 C205 1.315 . S
O207 Cd197 2.240 . S
O207 C205 1.279 . S
O208 Cd198 2.297 . S
O208 C203 1.247 . S
O209 Cd198 2.439 . S
O209 C203 1.208 . S
O210 Cd211 2.223 . S
O210 C218 1.315 . S
Cd211 O210 2.223 . S
Cd211 O214 2.297 . S
Cd211 O215 2.439 . S
Cd211 O221 2.240 . S
Cd212 O213 2.240 . S
Cd212 O220 2.223 . S
Cd212 O222 2.297 . S
Cd212 O223 2.439 . S
O213 Cd212 2.240 . S
O213 C218 1.279 . S
O214 Cd211 2.297 . S
O214 C216 1.247 . S
O215 Cd211 2.439 . S
O215 C216 1.208 . S
C216 O214 1.247 . S
C216 O215 1.208 . S
C217 O222 1.247 . S
C217 O223 1.208 . S
C218 O210 1.315 . S
C218 O213 1.279 . S
C219 O220 1.315 . S
C219 O221 1.279 . S
O220 Cd212 2.223 . S
O220 C219 1.315 . S
O221 Cd211 2.240 . S
O221 C219 1.279 . S
O222 Cd212 2.297 . S
O222 C217 1.247 . S
O223 Cd212 2.439 . S
O223 C217 1.208 . S
O224 Cd225 2.223 . S
O224 C232 1.315 . S
Cd225 O224 2.223 . S
Cd225 O228 2.297 . S
Cd225 O229 2.439 . S
Cd225 O235 2.240 . S
Cd226 O227 2.240 . S
Cd226 O234 2.223 . S
Cd226 O236 2.297 . S
Cd226 O237 2.439 . S
O227 Cd226 2.240 . S
O227 C232 1.279 . S
O228 Cd225 2.297 . S
O228 C230 1.247 . S
O229 Cd225 2.439 . S
O229 C230 1.208 . S
C230 O228 1.247 . S
C230 O229 1.208 . S
C231 O236 1.247 . S
C231 O237 1.208 . S
C232 O224 1.315 . S
C232 O227 1.279 . S
C233 O234 1.315 . S
C233 O235 1.279 . S
O234 Cd226 2.223 . S
O234 C233 1.315 . S
O235 Cd225 2.240 . S
O235 C233 1.279 . S
O236 Cd226 2.297 . S
O236 C231 1.247 . S
O237 Cd226 2.439 . S
O237 C231 1.208 . S
O238 Cd239 2.223 . S
O238 C246 1.315 . S
Cd239 O238 2.223 . S
Cd239 O242 2.297 . S
Cd239 O243 2.439 . S
Cd239 O249 2.240 . S
Cd240 O241 2.240 . S
Cd240 O248 2.223 . S
Cd240 O250 2.297 . S
Cd240 O251 2.439 . S
O241 Cd240 2.240 . S
O241 C246 1.279 . S
O242 Cd239 2.297 . S
O242 C244 1.247 . S
O243 Cd239 2.439 . S
O243 C244 1.208 . S
C244 O242 1.247 . S
C244 O243 1.208 . S
C245 O250 1.247 . S
C245 O251 1.208 . S
C246 O238 1.315 . S
C246 O241 1.279 . S
C247 O248 1.315 . S
C247 O249 1.279 . S
O248 Cd240 2.223 . S
O248 C247 1.315 . S
O249 Cd239 2.240 . S
O249 C247 1.279 . S
O250 Cd240 2.297 . S
O250 C245 1.247 . S
O251 Cd240 2.439 . S
O251 C245 1.208 . S
C252 C253 1.349 . S
C252 C254 1.327 . S
C252 H277 0.950 . S
C253 C252 1.349 . S
C253 C269 1.349 . S
C254 C252 1.327 . S
C254 C273 1.429 . S
C254 H278 0.950 . S
C255 C272 1.574 . S
C255 C274 1.368 . S
C255 H279 0.949 . S
H256 C260 0.949 . S
C257 C258 1.349 1_554 S
C257 C259 1.327 . S
C257 H280 0.950 1_554 S
C258 C257 1.349 1_556 S
C258 C270 1.349 . S
C259 C257 1.327 . S
C259 C275 1.429 . S
C259 H281 0.950 . S
C260 H256 0.949 . S
C260 C268 1.574 . S
C260 C276 1.368 . S
H261 C269 0.950 . S
H262 C267 0.950 . S
H263 C268 0.949 . S
H264 C270 0.950 . S
H265 C271 0.950 . S
H266 C272 0.949 . S
C267 H262 0.950 . S
C267 C269 1.327 . S
C267 C273 1.429 . S
C268 C260 1.574 . S
C268 H263 0.949 . S
C268 C274 1.368 . S
C269 C253 1.349 . S
C269 H261 0.950 . S
C269 C267 1.327 . S
C270 C258 1.349 . S
C270 H264 0.950 . S
C270 C271 1.327 1_556 S
C271 H265 0.950 . S
C271 C270 1.327 1_554 S
C271 C275 1.429 . S
C272 C255 1.574 . S
C272 H266 0.949 . S
C272 C276 1.368 . S
C273 C254 1.429 . S
C273 C267 1.429 . S
C273 C274 1.523 . S
C274 C255 1.368 . S
C274 C268 1.368 . S
C274 C273 1.523 . S
C275 C259 1.429 . S
C275 C271 1.429 . S
C275 C276 1.523 . S
C276 C260 1.368 . S
C276 C272 1.368 . S
C276 C275 1.523 . S
H277 C252 0.950 . S
H278 C254 0.950 . S
H279 C255 0.949 . S
H280 C257 0.950 1_556 S
H281 C259 0.950 . S
C282 C283 1.349 1_554 S
C282 C284 1.327 . S
C282 H307 0.950 . S
C283 C282 1.349 1_556 S
C283 C299 1.349 . S
C284 C282 1.327 . S
C284 C303 1.429 . S
C284 H308 0.950 . S
C285 C302 1.574 . S
C285 C304 1.368 . S
C285 H309 0.949 . S
H286 C290 0.949 . S
C287 C288 1.349 . S
C287 C289 1.327 . S
C287 H310 0.950 . S
C288 C287 1.349 . S
C288 C300 1.349 . S
C289 C287 1.327 . S
C289 C305 1.429 . S
C289 H311 0.950 . S
C290 H286 0.949 . S
C290 C298 1.574 . S
C290 C306 1.368 . S
H291 C299 0.950 . S
H292 C297 0.950 . S
H293 C298 0.949 . S
H294 C300 0.950 . S
H295 C301 0.950 . S
H296 C302 0.949 . S
C297 H292 0.950 . S
C297 C299 1.327 1_554 S
C297 C303 1.429 . S
C298 C290 1.574 . S
C298 H293 0.949 . S
C298 C304 1.368 . S
C299 C283 1.349 . S
C299 H291 0.950 . S
C299 C297 1.327 1_556 S
C300 C288 1.349 . S
C300 H294 0.950 . S
C300 C301 1.327 . S
C301 H295 0.950 . S
C301 C300 1.327 . S
C301 C305 1.429 . S
C302 C285 1.574 . S
C302 H296 0.949 . S
C302 C306 1.368 . S
C303 C284 1.429 . S
C303 C297 1.429 . S
C303 C304 1.523 . S
C304 C285 1.368 . S
C304 C298 1.368 . S
C304 C303 1.523 . S
C305 C289 1.429 . S
C305 C301 1.429 . S
C305 C306 1.523 . S
C306 C290 1.368 . S
C306 C302 1.368 . S
C306 C305 1.523 . S
H307 C282 0.950 . S
H308 C284 0.950 . S
H309 C285 0.949 . S
H310 C287 0.950 . S
H311 C289 0.950 . S
C312 C313 1.349 . S
C312 C314 1.327 . S
C312 H337 0.950 . S
C313 C312 1.349 . S
C313 C329 1.349 1_565 S
C314 C312 1.327 . S
C314 C333 1.429 . S
C314 H338 0.950 . S
C315 C332 1.574 . S
C315 C334 1.368 . S
C315 H339 0.949 1_565 S
H316 C320 0.949 . S
C317 C318 1.349 . S
C317 C319 1.327 . S
C317 H340 0.950 . S
C318 C317 1.349 . S
C318 C330 1.349 . S
C319 C317 1.327 . S
C319 C335 1.429 1_556 S
C319 H341 0.950 . S
C320 H316 0.949 . S
C320 C328 1.574 . S
C320 C336 1.368 . S
H321 C329 0.950 . S
H322 C327 0.950 . S
H323 C328 0.949 . S
H324 C330 0.950 . S
H325 C331 0.950 . S
H326 C332 0.949 . S
C327 H322 0.950 . S
C327 C329 1.327 . S
C327 C333 1.429 1_545 S
C328 C320 1.574 . S
C328 H323 0.949 . S
C328 C334 1.368 . S
C329 C313 1.349 1_545 S
C329 H321 0.950 . S
C329 C327 1.327 . S
C330 C318 1.349 . S
C330 H324 0.950 . S
C330 C331 1.327 1_556 S
C331 H325 0.950 . S
C331 C330 1.327 1_554 S
C331 C335 1.429 . S
C332 C315 1.574 . S
C332 H326 0.949 . S
C332 C336 1.368 . S
C333 C314 1.429 . S
C333 C327 1.429 1_565 S
C333 C334 1.523 . S
C334 C315 1.368 . S
C334 C328 1.368 . S
C334 C333 1.523 . S
C335 C319 1.429 1_554 S
C335 C331 1.429 . S
C335 C336 1.523 . S
C336 C320 1.368 . S
C336 C332 1.368 . S
C336 C335 1.523 . S
H337 C312 0.950 . S
H338 C314 0.950 . S
H339 C315 0.949 1_545 S
H340 C317 0.950 . S
H341 C319 0.950 . S
C342 C343 1.349 . S
C342 C344 1.327 . S
C342 H367 0.950 . S
C343 C342 1.349 . S
C343 C359 1.349 . S
C344 C342 1.327 . S
C344 C363 1.429 . S
C344 H368 0.950 . S
C345 C362 1.574 . S
C345 C364 1.368 . S
C345 H369 0.949 . S
H346 C350 0.949 . S
C347 C348 1.349 . S
C347 C349 1.327 . S
C347 H370 0.950 . S
C348 C347 1.349 . S
C348 C360 1.349 . S
C349 C347 1.327 . S
C349 C365 1.429 . S
C349 H371 0.950 . S
C350 H346 0.949 . S
C350 C358 1.574 . S
C350 C366 1.368 . S
H351 C359 0.950 . S
H352 C357 0.950 . S
H353 C358 0.949 . S
H354 C360 0.950 . S
H355 C361 0.950 . S
H356 C362 0.949 . S
C357 H352 0.950 . S
C357 C359 1.327 . S
C357 C363 1.429 . S
C358 C350 1.574 . S
C358 H353 0.949 . S
C358 C364 1.368 . S
C359 C343 1.349 . S
C359 H351 0.950 . S
C359 C357 1.327 . S
C360 C348 1.349 . S
C360 H354 0.950 . S
C360 C361 1.327 . S
C361 H355 0.950 . S
C361 C360 1.327 . S
C361 C365 1.429 . S
C362 C345 1.574 . S
C362 H356 0.949 . S
C362 C366 1.368 . S
C363 C344 1.429 . S
C363 C357 1.429 . S
C363 C364 1.523 . S
C364 C345 1.368 . S
C364 C358 1.368 . S
C364 C363 1.523 . S
C365 C349 1.429 . S
C365 C361 1.429 . S
C365 C366 1.523 . S
C366 C350 1.368 . S
C366 C362 1.368 . S
C366 C365 1.523 . S
H367 C342 0.950 . S
H368 C344 0.950 . S
H369 C345 0.949 . S
H370 C347 0.950 . S
H371 C349 0.950 . S
C372 C373 1.349 . S
C372 C374 1.327 . S
C372 H397 0.950 . S
C373 C372 1.349 . S
C373 C389 1.349 . S
C374 C372 1.327 . S
C374 C393 1.429 . S
C374 H398 0.950 . S
C375 C392 1.580 1_655 S
C375 C394 1.368 . S
C375 H399 0.949 1_655 S
H376 C380 0.949 . S
C377 C378 1.349 1_455 S
C377 C379 1.327 . S
C377 H400 0.950 . S
C378 C377 1.349 1_655 S
C378 C390 1.349 . S
C379 C377 1.327 . S
C379 C395 1.429 1_455 S
C379 H401 0.950 . S
C380 H376 0.949 . S
C380 C388 1.574 . S
C380 C396 1.368 . S
H381 C389 0.950 . S
H382 C387 0.950 1_455 S
H383 C388 0.949 . S
H384 C390 0.950 . S
H385 C391 0.950 . S
H386 C392 0.972 . S
C387 H382 0.950 1_655 S
C387 C389 1.327 . S
C387 C393 1.429 . S
C388 C380 1.574 . S
C388 H383 0.949 . S
C388 C394 1.368 . S
C389 C373 1.349 . S
C389 H381 0.950 . S
C389 C387 1.327 . S
C390 C378 1.349 . S
C390 H384 0.950 . S
C390 C391 1.327 . S
C391 H385 0.950 . S
C391 C390 1.327 . S
C391 C395 1.429 . S
C392 C375 1.580 1_455 S
C392 H386 0.972 . S
C392 C396 1.339 1_455 S
C393 C374 1.429 . S
C393 C387 1.429 . S
C393 C394 1.523 . S
C394 C375 1.368 . S
C394 C388 1.368 . S
C394 C393 1.523 . S
C395 C379 1.429 1_655 S
C395 C391 1.429 . S
C395 C396 1.523 . S
C396 C380 1.368 . S
C396 C392 1.339 1_655 S
C396 C395 1.523 . S
H397 C372 0.950 . S
H398 C374 0.950 . S
H399 C375 0.949 1_455 S
H400 C377 0.950 . S
H401 C379 0.950 . S
C402 C403 1.349 . S
C402 C404 1.327 . S
C402 H427 0.950 . S
C403 C402 1.349 . S
C403 C419 1.349 . S
C404 C402 1.327 . S
C404 C423 1.429 . S
C404 H428 0.950 . S
C405 C422 1.574 . S
C405 C424 1.368 . S
C405 H429 0.949 . S
H406 C410 0.949 . S
C407 C408 1.349 . S
C407 C409 1.327 . S
C407 H430 0.950 . S
C408 C407 1.349 . S
C408 C420 1.349 . S
C409 C407 1.327 . S
C409 C425 1.429 . S
C409 H431 0.950 . S
C410 H406 0.949 . S
C410 C418 1.574 . S
C410 C426 1.368 . S
H411 C419 0.950 . S
H412 C417 0.950 . S
H413 C418 0.949 . S
H414 C420 0.950 . S
H415 C421 0.950 . S
H416 C422 0.949 . S
C417 H412 0.950 . S
C417 C419 1.327 . S
C417 C423 1.429 . S
C418 C410 1.574 . S
C418 H413 0.949 . S
C418 C424 1.368 . S
C419 C403 1.349 . S
C419 H411 0.950 . S
C419 C417 1.327 . S
C420 C408 1.349 . S
C420 H414 0.950 . S
C420 C421 1.327 . S
C421 H415 0.950 . S
C421 C420 1.327 . S
C421 C425 1.429 . S
C422 C405 1.574 . S
C422 H416 0.949 . S
C422 C426 1.368 . S
C423 C404 1.429 . S
C423 C417 1.429 . S
C423 C424 1.523 . S
C424 C405 1.368 . S
C424 C418 1.368 . S
C424 C423 1.523 . S
C425 C409 1.429 . S
C425 C421 1.429 . S
C425 C426 1.523 . S
C426 C410 1.368 . S
C426 C422 1.368 . S
C426 C425 1.523 . S
H427 C402 0.950 . S
H428 C404 0.950 . S
H429 C405 0.949 . S
H430 C407 0.950 . S
H431 C409 0.950 . S
C432 C433 1.349 . S
C432 C434 1.327 . S
C432 H457 0.950 1_655 S
C433 C432 1.349 . S
C433 C449 1.349 . S
C434 C432 1.327 . S
C434 C453 1.429 . S
C434 H458 0.950 . S
C435 C452 1.574 . S
C435 C454 1.368 . S
C435 H459 0.949 . S
H436 C440 0.949 . S
C437 C438 1.349 . S
C437 C439 1.327 . S
C437 H460 0.950 . S
C438 C437 1.349 . S
C438 C450 1.349 . S
C439 C437 1.327 . S
C439 C455 1.429 1_554 S
C439 H461 0.949 1_554 S
C440 H436 0.949 . S
C440 C448 1.574 . S
C440 C456 1.368 . S
H441 C449 0.950 . S
H442 C447 0.950 . S
H443 C448 0.949 . S
H444 C450 0.950 . S
H445 C451 0.950 . S
H446 C452 0.949 . S
C447 H442 0.950 . S
C447 C449 1.327 . S
C447 C453 1.429 . S
C448 C440 1.574 . S
C448 H443 0.949 . S
C448 C454 1.368 . S
C449 C433 1.349 . S
C449 H441 0.950 . S
C449 C447 1.327 . S
C450 C438 1.349 . S
C450 H444 0.950 . S
C450 C451 1.327 1_554 S
C451 H445 0.950 . S
C451 C450 1.327 1_556 S
C451 C455 1.429 . S
C452 C435 1.574 . S
C452 H446 0.949 . S
C452 C456 1.368 . S
C453 C434 1.429 . S
C453 C447 1.429 . S
C453 C454 1.523 . S
C454 C435 1.368 . S
C454 C448 1.368 . S
C454 C453 1.523 . S
C455 C439 1.429 1_556 S
C455 C451 1.429 . S
C455 C456 1.523 . S
C456 C440 1.368 . S
C456 C452 1.368 . S
C456 C455 1.523 . S
H457 C432 0.950 1_455 S
H458 C434 0.950 . S
H459 C435 0.949 . S
H460 C437 0.950 . S
H461 C439 0.949 1_556 S
C462 C463 1.349 . S
C462 C464 1.327 1_554 S
C462 H487 0.950 . S
C463 C462 1.349 . S
C463 C479 1.349 1_554 S
C464 C462 1.327 1_556 S
C464 C483 1.429 . S
C464 H488 0.950 . S
C465 C482 1.574 . S
C465 C484 1.368 . S
C465 H489 0.949 . S
H466 C470 0.949 . S
C467 C468 1.349 . S
C467 C469 1.327 . S
C467 H490 0.950 . S
C468 C467 1.349 . S
C468 C480 1.349 . S
C469 C467 1.327 . S
C469 C485 1.429 . S
C469 H491 0.950 . S
C470 H466 0.949 . S
C470 C478 1.574 . S
C470 C486 1.368 . S
H471 C479 0.950 . S
H472 C477 0.950 . S
H473 C478 0.949 . S
H474 C480 0.950 . S
H475 C481 0.950 . S
H476 C482 0.949 . S
C477 H472 0.950 . S
C477 C479 1.327 . S
C477 C483 1.429 . S
C478 C470 1.574 . S
C478 H473 0.949 . S
C478 C484 1.368 . S
C479 C463 1.349 1_556 S
C479 H471 0.950 . S
C479 C477 1.327 . S
C480 C468 1.349 . S
C480 H474 0.950 . S
C480 C481 1.327 . S
C481 H475 0.950 . S
C481 C480 1.327 . S
C481 C485 1.429 . S
C482 C465 1.574 . S
C482 H476 0.949 . S
C482 C486 1.368 . S
C483 C464 1.429 . S
C483 C477 1.429 . S
C483 C484 1.523 . S
C484 C465 1.368 . S
C484 C478 1.368 . S
C484 C483 1.523 . S
C485 C469 1.429 . S
C485 C481 1.429 . S
C485 C486 1.523 . S
C486 C470 1.368 . S
C486 C482 1.368 . S
C486 C485 1.523 . S
H487 C462 0.950 . S
H488 C464 0.950 . S
H489 C465 0.949 . S
H490 C467 0.950 . S
H491 C469 0.950 . S
C492 C493 1.349 . S
C492 C494 1.327 . S
C492 H517 0.950 . S
C493 C492 1.349 . S
C493 C509 1.349 . S
C494 C492 1.327 . S
C494 C513 1.429 1_554 S
C494 H518 0.950 . S
C495 C512 1.574 . S
C495 C514 1.368 . S
C495 H519 0.949 . S
H496 C500 0.949 . S
C497 C498 1.349 . S
C497 C499 1.327 . S
C497 H520 0.950 . S
C498 C497 1.349 . S
C498 C510 1.349 . S
C499 C497 1.327 . S
C499 C515 1.429 . S
C499 H521 0.950 . S
C500 H496 0.949 . S
C500 C508 1.574 . S
C500 C516 1.368 . S
H501 C509 0.950 . S
H502 C507 0.950 . S
H503 C508 0.949 . S
H504 C510 0.950 . S
H505 C511 0.950 . S
H506 C512 0.949 . S
C507 H502 0.950 . S
C507 C509 1.327 1_556 S
C507 C513 1.429 . S
C508 C500 1.574 . S
C508 H503 0.949 . S
C508 C514 1.368 . S
C509 C493 1.349 . S
C509 H501 0.950 . S
C509 C507 1.327 1_554 S
C510 C498 1.349 . S
C510 H504 0.950 . S
C510 C511 1.327 . S
C511 H505 0.950 . S
C511 C510 1.327 . S
C511 C515 1.429 . S
C512 C495 1.574 . S
C512 H506 0.949 . S
C512 C516 1.368 . S
C513 C494 1.429 1_556 S
C513 C507 1.429 . S
C513 C514 1.523 . S
C514 C495 1.368 . S
C514 C508 1.368 . S
C514 C513 1.523 . S
C515 C499 1.429 . S
C515 C511 1.429 . S
C515 C516 1.523 . S
C516 C500 1.368 . S
C516 C512 1.368 . S
C516 C515 1.523 . S
H517 C492 0.950 . S
H518 C494 0.950 . S
H519 C495 0.949 . S
H520 C497 0.950 . S
H521 C499 0.950 . S
C522 C523 1.349 . S
C522 C524 1.327 . S
C522 H547 0.950 . S
C523 C522 1.349 . S
C523 C539 1.349 1_565 S
C524 C522 1.327 . S
C524 C543 1.429 . S
C524 H548 0.950 . S
C525 C542 1.574 . S
C525 C544 1.368 . S
C525 H549 0.949 . S
H526 C530 0.949 . S
C527 C528 1.349 . S
C527 C529 1.327 . S
C527 H550 0.950 . S
C528 C527 1.349 . S
C528 C540 1.349 . S
C529 C527 1.327 . S
C529 C545 1.429 . S
C529 H551 0.950 . S
C530 H526 0.949 . S
C530 C538 1.574 . S
C530 C546 1.368 . S
H531 C539 0.963 . S
H532 C537 0.950 1_545 S
H533 C538 0.949 . S
H534 C540 0.950 . S
H535 C541 0.950 . S
H536 C542 0.949 . S
C537 H532 0.950 1_565 S
C537 C539 1.315 1_565 S
C537 C543 1.429 . S
C538 C530 1.574 . S
C538 H533 0.949 . S
C538 C544 1.368 . S
C539 C523 1.349 1_545 S
C539 H531 0.963 . S
C539 C537 1.315 1_545 S
C540 C528 1.349 . S
C540 H534 0.950 . S
C540 C541 1.327 . S
C541 H535 0.950 . S
C541 C540 1.327 . S
C541 C545 1.429 . S
C542 C525 1.574 . S
C542 H536 0.949 . S
C542 C546 1.368 . S
C543 C524 1.429 . S
C543 C537 1.429 . S
C543 C544 1.523 . S
C544 C525 1.368 . S
C544 C538 1.368 . S
C544 C543 1.523 . S
C545 C529 1.429 . S
C545 C541 1.429 . S
C545 C546 1.523 . S
C546 C530 1.368 . S
C546 C542 1.368 . S
C546 C545 1.523 . S
H547 C522 0.950 . S
H548 C524 0.950 . S
H549 C525 0.949 . S
H550 C527 0.950 . S
H551 C529 0.950 . S
C552 C553 1.349 . S
C552 C554 1.327 . S
C552 H577 0.950 . S
C553 C552 1.349 . S
C553 C569 1.349 . S
C554 C552 1.327 . S
C554 C573 1.429 . S
C554 H578 0.950 . S
C555 C572 1.574 . S
C555 C574 1.368 . S
C555 H579 0.949 . S
H556 C560 0.949 . S
C557 C558 1.349 . S
C557 C559 1.327 . S
C557 H580 0.950 . S
C558 C557 1.349 . S
C558 C570 1.349 . S
C559 C557 1.327 . S
C559 C575 1.429 . S
C559 H581 0.950 . S
C560 H556 0.949 . S
C560 C568 1.574 . S
C560 C576 1.368 . S
H561 C569 0.950 . S
H562 C567 0.950 . S
H563 C568 0.949 . S
H564 C570 0.950 . S
H565 C571 0.950 . S
H566 C572 0.949 . S
C567 H562 0.950 . S
C567 C569 1.327 . S
C567 C573 1.429 . S
C568 C560 1.574 . S
C568 H563 0.949 . S
C568 C574 1.368 . S
C569 C553 1.349 . S
C569 H561 0.950 . S
C569 C567 1.327 . S
C570 C558 1.349 . S
C570 H564 0.950 . S
C570 C571 1.327 . S
C571 H565 0.950 . S
C571 C570 1.327 . S
C571 C575 1.429 . S
C572 C555 1.574 . S
C572 H566 0.949 . S
C572 C576 1.368 . S
C573 C554 1.429 . S
C573 C567 1.429 . S
C573 C574 1.523 . S
C574 C555 1.368 . S
C574 C568 1.368 . S
C574 C573 1.523 . S
C575 C559 1.429 . S
C575 C571 1.429 . S
C575 C576 1.523 . S
C576 C560 1.368 . S
C576 C572 1.368 . S
C576 C575 1.523 . S
H577 C552 0.950 . S
H578 C554 0.950 . S
H579 C555 0.949 . S
H580 C557 0.950 . S
H581 C559 0.950 . S
C582 C583 1.349 . S
C582 C584 1.327 . S
C582 H607 0.950 . S
C583 C582 1.349 . S
C583 C599 1.349 . S
C584 C582 1.327 . S
C584 C603 1.429 . S
C584 H608 0.950 . S
C585 C602 1.574 . S
C585 C604 1.368 . S
C585 H609 0.949 . S
H586 C590 0.949 . S
C587 C588 1.349 . S
C587 C589 1.327 . S
C587 H610 0.950 . S
C588 C587 1.349 . S
C588 C600 1.349 . S
C589 C587 1.327 . S
C589 C605 1.429 . S
C589 H611 0.950 . S
C590 H586 0.949 . S
C590 C598 1.574 . S
C590 C606 1.368 . S
H591 C599 0.950 . S
H592 C597 0.950 . S
H593 C598 0.949 . S
H594 C600 0.950 . S
H595 C601 0.950 . S
H596 C602 0.949 . S
C597 H592 0.950 . S
C597 C599 1.327 . S
C597 C603 1.429 . S
C598 C590 1.574 . S
C598 H593 0.949 . S
C598 C604 1.368 . S
C599 C583 1.349 . S
C599 H591 0.950 . S
C599 C597 1.327 . S
C600 C588 1.349 . S
C600 H594 0.950 . S
C600 C601 1.327 . S
C601 H595 0.950 . S
C601 C600 1.327 . S
C601 C605 1.429 . S
C602 C585 1.574 . S
C602 H596 0.949 . S
C602 C606 1.368 . S
C603 C584 1.429 . S
C603 C597 1.429 . S
C603 C604 1.523 . S
C604 C585 1.368 . S
C604 C598 1.368 . S
C604 C603 1.523 . S
C605 C589 1.429 . S
C605 C601 1.429 . S
C605 C606 1.523 . S
C606 C590 1.368 . S
C606 C602 1.368 . S
C606 C605 1.523 . S
H607 C582 0.950 . S
H608 C584 0.950 . S
H609 C585 0.949 . S
H610 C587 0.950 . S
H611 C589 0.950 . S
C612 C613 1.349 . S
C612 C614 1.327 . S
C612 H637 0.950 . S
C613 C612 1.349 . S
C613 C629 1.349 . S
C614 C612 1.327 . S
C614 C633 1.429 . S
C614 H638 0.950 . S
C615 C632 1.574 . S
C615 C634 1.368 . S
C615 H639 0.949 . S
H616 C620 0.949 . S
C617 C618 1.349 . S
C617 C619 1.327 . S
C617 H640 0.950 . S
C618 C617 1.349 . S
C618 C630 1.349 . S
C619 C617 1.327 . S
C619 C635 1.429 . S
C619 H641 0.950 . S
C620 H616 0.949 . S
C620 C628 1.574 . S
C620 C636 1.368 . S
H621 C629 0.950 . S
H622 C627 0.950 . S
H623 C628 0.949 . S
H624 C630 0.950 . S
H625 C631 0.950 . S
H626 C632 0.949 . S
C627 H622 0.950 . S
C627 C629 1.327 . S
C627 C633 1.429 . S
C628 C620 1.574 . S
C628 H623 0.949 . S
C628 C634 1.368 . S
C629 C613 1.349 . S
C629 H621 0.950 . S
C629 C627 1.327 . S
C630 C618 1.349 . S
C630 H624 0.950 . S
C630 C631 1.327 . S
C631 H625 0.950 . S
C631 C630 1.327 . S
C631 C635 1.429 . S
C632 C615 1.574 . S
C632 H626 0.949 . S
C632 C636 1.368 . S
C633 C614 1.429 . S
C633 C627 1.429 . S
C633 C634 1.523 . S
C634 C615 1.368 . S
C634 C628 1.368 . S
C634 C633 1.523 . S
C635 C619 1.429 . S
C635 C631 1.429 . S
C635 C636 1.523 . S
C636 C620 1.368 . S
C636 C632 1.368 . S
C636 C635 1.523 . S
H637 C612 0.950 . S
H638 C614 0.950 . S
H639 C615 0.949 . S
H640 C617 0.950 . S
H641 C619 0.950 . S
C642 C643 1.349 . S
C642 C644 1.327 . S
C642 H667 0.950 . S
C643 C642 1.349 . S
C643 C659 1.349 . S
C644 C642 1.327 . S
C644 C663 1.429 . S
C644 H668 0.950 . S
C645 C662 1.574 . S
C645 C664 1.368 . S
C645 H669 0.949 . S
H646 C650 0.949 . S
C647 C648 1.349 . S
C647 C649 1.345 . S
C647 H670 0.950 . S
C648 C647 1.349 . S
C648 C660 1.349 . S
C649 C647 1.345 . S
C649 C665 1.455 . S
C649 H671 0.906 1_565 S
C650 H646 0.949 . S
C650 C658 1.574 1_565 S
C650 C666 1.368 1_565 S
H651 C659 0.950 . S
H652 C657 0.950 . S
H653 C658 0.949 1_565 S
H654 C660 0.950 . S
H655 C661 0.950 . S
H656 C662 0.949 . S
C657 H652 0.950 . S
C657 C659 1.327 . S
C657 C663 1.429 . S
C658 C650 1.574 1_545 S
C658 H653 0.949 1_545 S
C658 C664 1.368 . S
C659 C643 1.349 . S
C659 H651 0.950 . S
C659 C657 1.327 . S
C660 C648 1.349 . S
C660 H654 0.950 . S
C660 C661 1.327 . S
C661 H655 0.950 . S
C661 C660 1.327 . S
C661 C665 1.429 . S
C662 C645 1.574 . S
C662 H656 0.949 . S
C662 C666 1.368 . S
C663 C644 1.429 . S
C663 C657 1.429 . S
C663 C664 1.523 . S
C664 C645 1.368 . S
C664 C658 1.368 . S
C664 C663 1.523 . S
C665 C649 1.455 . S
C665 C661 1.429 . S
C665 C666 1.523 1_565 S
C666 C650 1.368 1_545 S
C666 C662 1.368 . S
C666 C665 1.523 1_545 S
H667 C642 0.950 . S
H668 C644 0.950 . S
H669 C645 0.949 . S
H670 C647 0.950 . S
H671 C649 0.906 1_545 S
C672 C673 1.349 . S
C672 C674 1.327 . S
C672 H697 0.950 . S
C673 C672 1.349 . S
C673 C689 1.349 . S
C674 C672 1.327 . S
C674 C693 1.429 . S
C674 H698 0.950 . S
C675 C692 1.574 . S
C675 C694 1.368 . S
C675 H699 0.949 . S
H676 C680 0.949 . S
C677 C678 1.349 . S
C677 C679 1.327 . S
C677 H700 0.950 . S
C678 C677 1.349 . S
C678 C690 1.349 1_655 S
C679 C677 1.327 . S
C679 C695 1.429 1_655 S
C679 H701 0.950 . S
C680 H676 0.949 . S
C680 C688 1.574 . S
C680 C696 1.368 . S
H681 C689 0.950 . S
H682 C687 0.950 . S
H683 C688 0.949 . S
H684 C690 0.950 . S
H685 C691 0.950 . S
H686 C692 0.949 1_655 S
C687 H682 0.950 . S
C687 C689 1.327 . S
C687 C693 1.429 . S
C688 C680 1.574 . S
C688 H683 0.949 . S
C688 C694 1.368 . S
C689 C673 1.349 . S
C689 H681 0.950 . S
C689 C687 1.327 . S
C690 C678 1.349 1_455 S
C690 H684 0.950 . S
C690 C691 1.327 . S
C691 H685 0.950 . S
C691 C690 1.327 . S
C691 C695 1.429 . S
C692 C675 1.574 . S
C692 H686 0.949 1_455 S
C692 C696 1.368 . S
C693 C674 1.429 . S
C693 C687 1.429 . S
C693 C694 1.523 . S
C694 C675 1.368 . S
C694 C688 1.368 . S
C694 C693 1.523 . S
C695 C679 1.429 1_455 S
C695 C691 1.429 . S
C695 C696 1.523 . S
C696 C680 1.368 . S
C696 C692 1.368 . S
C696 C695 1.523 . S
H697 C672 0.950 . S
H698 C674 0.950 . S
H699 C675 0.949 . S
H700 C677 0.950 . S
H701 C679 0.950 . S
C702 C703 1.349 . S
C702 C704 1.327 . S
C702 H727 0.950 . S
C703 C702 1.349 . S
C703 C719 1.349 . S
C704 C702 1.327 . S
C704 C723 1.429 . S
C704 H728 0.950 . S
C705 C722 1.574 . S
C705 C724 1.368 . S
C705 H729 0.949 . S
H706 C710 0.949 . S
C707 C708 1.349 . S
C707 C709 1.327 . S
C707 H730 0.950 . S
C708 C707 1.349 . S
C708 C720 1.349 . S
C709 C707 1.327 . S
C709 C725 1.429 . S
C709 H731 0.950 . S
C710 H706 0.949 . S
C710 C718 1.574 . S
C710 C726 1.368 . S
H711 C719 0.950 . S
H712 C717 0.950 . S
H713 C718 0.949 . S
H714 C720 0.950 . S
H715 C721 0.950 . S
H716 C722 0.949 . S
C717 H712 0.950 . S
C717 C719 1.327 . S
C717 C723 1.429 . S
C718 C710 1.574 . S
C718 H713 0.949 . S
C718 C724 1.368 . S
C719 C703 1.349 . S
C719 H711 0.950 . S
C719 C717 1.327 . S
C720 C708 1.349 . S
C720 H714 0.950 . S
C720 C721 1.327 . S
C721 H715 0.950 . S
C721 C720 1.327 . S
C721 C725 1.429 . S
C722 C705 1.574 . S
C722 H716 0.949 . S
C722 C726 1.368 . S
C723 C704 1.429 . S
C723 C717 1.429 . S
C723 C724 1.523 . S
C724 C705 1.368 . S
C724 C718 1.368 . S
C724 C723 1.523 . S
C725 C709 1.429 . S
C725 C721 1.429 . S
C725 C726 1.523 . S
C726 C710 1.368 . S
C726 C722 1.368 . S
C726 C725 1.523 . S
H727 C702 0.950 . S
H728 C704 0.950 . S
H729 C705 0.949 . S
H730 C707 0.950 . S
H731 C709 0.950 . S
C732 C733 1.349 . S
C732 C734 1.327 . S
C732 H757 0.950 . S
C733 C732 1.349 . S
C733 C749 1.349 . S
C734 C732 1.327 . S
C734 C753 1.429 . S
C734 H758 0.950 . S
C735 C752 1.574 . S
C735 C754 1.368 . S
C735 H759 0.949 . S
H736 C740 0.949 . S
C737 C738 1.349 . S
C737 C739 1.327 . S
C737 H760 0.950 . S
C738 C737 1.349 . S
C738 C750 1.349 . S
C739 C737 1.327 . S
C739 C755 1.429 . S
C739 H761 0.950 . S
C740 H736 0.949 . S
C740 C748 1.574 . S
C740 C756 1.368 . S
H741 C749 0.950 . S
H742 C747 0.950 . S
H743 C748 0.949 . S
H744 C750 0.950 . S
H745 C751 0.950 . S
H746 C752 0.949 . S
C747 H742 0.950 . S
C747 C749 1.327 . S
C747 C753 1.429 . S
C748 C740 1.574 . S
C748 H743 0.949 . S
C748 C754 1.368 1_565 S
C749 C733 1.349 . S
C749 H741 0.950 . S
C749 C747 1.327 . S
C750 C738 1.349 . S
C750 H744 0.950 . S
C750 C751 1.327 . S
C751 H745 0.950 . S
C751 C750 1.327 . S
C751 C755 1.429 . S
C752 C735 1.574 . S
C752 H746 0.949 . S
C752 C756 1.368 1_545 S
C753 C734 1.429 . S
C753 C747 1.429 . S
C753 C754 1.523 . S
C754 C735 1.368 . S
C754 C748 1.368 1_545 S
C754 C753 1.523 . S
C755 C739 1.429 . S
C755 C751 1.429 . S
C755 C756 1.523 . S
C756 C740 1.368 . S
C756 C752 1.368 1_565 S
C756 C755 1.523 . S
H757 C732 0.950 . S
H758 C734 0.950 . S
H759 C735 0.949 . S
H760 C737 0.950 . S
H761 C739 0.950 . S
C762 C763 1.349 . S
C762 C764 1.327 . S
C762 H787 0.950 . S
C763 C762 1.349 . S
C763 C779 1.349 . S
C764 C762 1.327 . S
C764 C783 1.429 . S
C764 H788 0.950 . S
C765 C782 1.574 . S
C765 C784 1.368 . S
C765 H789 0.949 . S
H766 C770 0.949 . S
C767 C768 1.349 . S
C767 C769 1.327 . S
C767 H790 0.950 . S
C768 C767 1.349 . S
C768 C780 1.349 1_655 S
C769 C767 1.327 . S
C769 C785 1.429 1_655 S
C769 H791 0.950 . S
C770 H766 0.949 . S
C770 C778 1.574 . S
C770 C786 1.368 . S
H771 C779 0.950 . S
H772 C777 0.950 . S
H773 C778 0.949 . S
H774 C780 0.950 . S
H775 C781 0.950 . S
H776 C782 0.961 . S
C777 H772 0.950 . S
C777 C779 1.327 . S
C777 C783 1.429 . S
C778 C770 1.574 . S
C778 H773 0.949 . S
C778 C784 1.368 . S
C779 C763 1.349 . S
C779 H771 0.950 . S
C779 C777 1.327 . S
C780 C768 1.349 1_455 S
C780 H774 0.950 . S
C780 C781 1.327 . S
C781 H775 0.950 . S
C781 C780 1.327 . S
C781 C785 1.429 . S
C782 C765 1.574 . S
C782 H776 0.961 . S
C782 C786 1.368 . S
C783 C764 1.429 . S
C783 C777 1.429 . S
C783 C784 1.523 . S
C784 C765 1.368 . S
C784 C778 1.368 . S
C784 C783 1.523 . S
C785 C769 1.429 1_455 S
C785 C781 1.429 . S
C785 C786 1.523 . S
C786 C770 1.368 . S
C786 C782 1.368 . S
C786 C785 1.523 . S
H787 C762 0.950 . S
H788 C764 0.950 . S
H789 C765 0.949 . S
H790 C767 0.950 . S
H791 C769 0.950 . S
C792 C793 1.349 . S
C792 C794 1.327 . S
C792 H817 0.950 . S
C793 C792 1.349 . S
C793 C809 1.349 . S
C794 C792 1.327 . S
C794 C813 1.429 . S
C794 H818 0.950 . S
C795 C812 1.574 . S
C795 C814 1.368 . S
C795 H819 0.949 . S
H796 C800 0.949 . S
C797 C798 1.349 . S
C797 C799 1.327 . S
C797 H820 0.950 . S
C798 C797 1.349 . S
C798 C810 1.349 . S
C799 C797 1.327 . S
C799 C815 1.429 . S
C799 H821 0.950 . S
C800 H796 0.949 . S
C800 C808 1.574 . S
C800 C816 1.368 . S
H801 C809 0.950 . S
H802 C807 0.950 . S
H803 C808 0.949 . S
H804 C810 0.950 . S
H805 C811 0.950 . S
H806 C812 0.949 . S
C807 H802 0.950 . S
C807 C809 1.327 . S
C807 C813 1.429 . S
C808 C800 1.574 . S
C808 H803 0.949 . S
C808 C814 1.368 . S
C809 C793 1.349 . S
C809 H801 0.950 . S
C809 C807 1.327 . S
C810 C798 1.349 . S
C810 H804 0.950 . S
C810 C811 1.327 . S
C811 H805 0.950 . S
C811 C810 1.327 . S
C811 C815 1.429 . S
C812 C795 1.574 . S
C812 H806 0.949 . S
C812 C816 1.368 . S
C813 C794 1.429 . S
C813 C807 1.429 . S
C813 C814 1.523 . S
C814 C795 1.368 . S
C814 C808 1.368 . S
C814 C813 1.523 . S
C815 C799 1.429 . S
C815 C811 1.429 . S
C815 C816 1.523 . S
C816 C800 1.368 . S
C816 C812 1.368 . S
C816 C815 1.523 . S
H817 C792 0.950 . S
H818 C794 0.950 . S
H819 C795 0.949 . S
H820 C797 0.950 . S
H821 C799 0.950 . S
C822 C823 1.349 . S
C822 C824 1.327 . S
C822 H847 0.950 . S
C823 C822 1.349 . S
C823 C839 1.349 . S
C824 C822 1.327 . S
C824 C843 1.429 . S
C824 H848 0.950 . S
C825 C842 1.574 . S
C825 C844 1.368 . S
C825 H849 0.949 . S
H826 C830 0.949 . S
C827 C828 1.349 . S
C827 C829 1.327 . S
C827 H850 0.950 . S
C828 C827 1.349 . S
C828 C840 1.349 . S
C829 C827 1.327 . S
C829 C845 1.429 . S
C829 H851 0.950 . S
C830 H826 0.949 . S
C830 C838 1.574 . S
C830 C846 1.368 . S
H831 C839 0.950 . S
H832 C837 0.950 . S
H833 C838 0.949 . S
H834 C840 0.950 . S
H835 C841 0.950 . S
H836 C842 0.949 . S
C837 H832 0.950 . S
C837 C839 1.327 . S
C837 C843 1.429 . S
C838 C830 1.574 . S
C838 H833 0.949 . S
C838 C844 1.368 . S
C839 C823 1.349 . S
C839 H831 0.950 . S
C839 C837 1.327 . S
C840 C828 1.349 . S
C840 H834 0.950 . S
C840 C841 1.327 . S
C841 H835 0.950 . S
C841 C840 1.327 . S
C841 C845 1.429 . S
C842 C825 1.574 . S
C842 H836 0.949 . S
C842 C846 1.368 . S
C843 C824 1.429 . S
C843 C837 1.429 . S
C843 C844 1.523 . S
C844 C825 1.368 . S
C844 C838 1.368 . S
C844 C843 1.523 . S
C845 C829 1.429 . S
C845 C841 1.429 . S
C845 C846 1.523 . S
C846 C830 1.368 . S
C846 C842 1.368 . S
C846 C845 1.523 . S
H847 C822 0.950 . S
H848 C824 0.950 . S
H849 C825 0.949 . S
H850 C827 0.950 . S
H851 C829 0.950 . S
C852 C853 1.349 . S
C852 C854 1.327 . S
C852 H877 0.950 . S
C853 C852 1.349 . S
C853 C869 1.349 . S
C854 C852 1.327 . S
C854 C873 1.429 . S
C854 H878 0.950 . S
C855 C872 1.574 . S
C855 C874 1.368 . S
C855 H879 0.949 . S
H856 C860 0.949 . S
C857 C858 1.349 . S
C857 C859 1.327 . S
C857 H880 0.950 . S
C858 C857 1.349 . S
C858 C870 1.349 . S
C859 C857 1.327 . S
C859 C875 1.429 . S
C859 H881 0.950 . S
C860 H856 0.949 . S
C860 C868 1.574 . S
C860 C876 1.368 . S
H861 C869 0.950 . S
H862 C867 0.950 . S
H863 C868 0.949 . S
H864 C870 0.950 . S
H865 C871 0.950 . S
H866 C872 0.949 . S
C867 H862 0.950 . S
C867 C869 1.327 . S
C867 C873 1.429 . S
C868 C860 1.574 . S
C868 H863 0.949 . S
C868 C874 1.368 . S
C869 C853 1.349 . S
C869 H861 0.950 . S
C869 C867 1.327 . S
C870 C858 1.349 . S
C870 H864 0.950 . S
C870 C871 1.327 . S
C871 H865 0.950 . S
C871 C870 1.327 . S
C871 C875 1.429 . S
C872 C855 1.574 . S
C872 H866 0.949 . S
C872 C876 1.368 . S
C873 C854 1.429 . S
C873 C867 1.429 . S
C873 C874 1.523 . S
C874 C855 1.368 . S
C874 C868 1.368 . S
C874 C873 1.523 . S
C875 C859 1.429 . S
C875 C871 1.429 . S
C875 C876 1.523 . S
C876 C860 1.368 . S
C876 C872 1.368 . S
C876 C875 1.523 . S
H877 C852 0.950 . S
H878 C854 0.950 . S
H879 C855 0.949 . S
H880 C857 0.950 . S
H881 C859 0.950 . S
C882 C883 1.349 . S
C882 C884 1.327 . S
C882 H907 0.950 . S
C883 C882 1.349 . S
C883 C899 1.349 . S
C884 C882 1.327 . S
C884 C903 1.429 . S
C884 H908 0.950 . S
C885 C902 1.574 . S
C885 C904 1.368 . S
C885 H909 0.949 . S
H886 C890 0.949 . S
C887 C888 1.349 . S
C887 C889 1.327 . S
C887 H910 0.950 . S
C888 C887 1.349 . S
C888 C900 1.349 . S
C889 C887 1.327 . S
C889 C905 1.429 . S
C889 H911 0.950 . S
C890 H886 0.949 . S
C890 C898 1.574 . S
C890 C906 1.368 . S
H891 C899 0.950 . S
H892 C897 0.950 . S
H893 C898 0.949 . S
H894 C900 0.950 . S
H895 C901 0.950 . S
H896 C902 0.949 . S
C897 H892 0.950 . S
C897 C899 1.327 . S
C897 C903 1.429 . S
C898 C890 1.574 . S
C898 H893 0.949 . S
C898 C904 1.368 . S
C899 C883 1.349 . S
C899 H891 0.950 . S
C899 C897 1.327 . S
C900 C888 1.349 . S
C900 H894 0.950 . S
C900 C901 1.327 . S
C901 H895 0.950 . S
C901 C900 1.327 . S
C901 C905 1.429 . S
C902 C885 1.574 . S
C902 H896 0.949 . S
C902 C906 1.368 . S
C903 C884 1.429 . S
C903 C897 1.429 . S
C903 C904 1.523 . S
C904 C885 1.368 . S
C904 C898 1.368 . S
C904 C903 1.523 . S
C905 C889 1.429 . S
C905 C901 1.429 . S
C905 C906 1.523 . S
C906 C890 1.368 . S
C906 C902 1.368 . S
C906 C905 1.523 . S
H907 C882 0.950 . S
H908 C884 0.950 . S
H909 C885 0.949 . S
H910 C887 0.950 . S
H911 C889 0.950 . S
C912 C913 1.349 . S
C912 C914 1.327 . S
C912 H937 0.950 . S
C913 C912 1.349 . S
C913 C929 1.349 . S
C914 C912 1.327 . S
C914 C933 1.429 . S
C914 H938 0.950 . S
C915 C932 1.574 . S
C915 C934 1.368 . S
C915 H939 0.949 . S
H916 C920 0.949 . S
C917 C918 1.349 . S
C917 C919 1.327 . S
C917 H940 0.950 . S
C918 C917 1.349 . S
C918 C930 1.349 . S
C919 C917 1.327 . S
C919 C935 1.429 . S
C919 H941 0.950 . S
C920 H916 0.949 . S
C920 C928 1.574 . S
C920 C936 1.368 . S
H921 C929 0.950 . S
H922 C927 0.950 . S
H923 C928 0.949 . S
H924 C930 0.950 . S
H925 C931 0.950 . S
H926 C932 0.949 . S
C927 H922 0.950 . S
C927 C929 1.327 . S
C927 C933 1.429 . S
C928 C920 1.574 . S
C928 H923 0.949 . S
C928 C934 1.368 . S
C929 C913 1.349 . S
C929 H921 0.950 . S
C929 C927 1.327 . S
C930 C918 1.349 . S
C930 H924 0.950 . S
C930 C931 1.327 . S
C931 H925 0.950 . S
C931 C930 1.327 . S
C931 C935 1.429 . S
C932 C915 1.574 . S
C932 H926 0.949 . S
C932 C936 1.368 . S
C933 C914 1.429 . S
C933 C927 1.429 . S
C933 C934 1.523 . S
C934 C915 1.368 . S
C934 C928 1.368 . S
C934 C933 1.523 . S
C935 C919 1.429 . S
C935 C931 1.429 . S
C935 C936 1.523 . S
C936 C920 1.368 . S
C936 C932 1.368 . S
C936 C935 1.523 . S
H937 C912 0.950 . S
H938 C914 0.950 . S
H939 C915 0.949 . S
H940 C917 0.950 . S
H941 C919 0.950 . S
C942 C943 1.349 . S
C942 C944 1.327 . S
C942 H967 0.950 . S
C943 C942 1.349 . S
C943 C959 1.349 . S
C944 C942 1.327 . S
C944 C963 1.429 . S
C944 H968 0.950 . S
C945 C962 1.574 . S
C945 C964 1.368 . S
C945 H969 0.949 . S
H946 C950 0.949 . S
C947 C948 1.349 . S
C947 C949 1.327 . S
C947 H970 0.950 . S
C948 C947 1.349 . S
C948 C960 1.349 . S
C949 C947 1.327 . S
C949 C965 1.429 . S
C949 H971 0.950 . S
C950 H946 0.949 . S
C950 C958 1.574 . S
C950 C966 1.368 . S
H951 C959 0.950 . S
H952 C957 0.950 . S
H953 C958 0.949 . S
H954 C960 0.950 . S
H955 C961 0.950 . S
H956 C962 0.949 . S
C957 H952 0.950 . S
C957 C959 1.327 . S
C957 C963 1.429 . S
C958 C950 1.574 . S
C958 H953 0.949 . S
C958 C964 1.368 . S
C959 C943 1.349 . S
C959 H951 0.950 . S
C959 C957 1.327 . S
C960 C948 1.349 . S
C960 H954 0.950 . S
C960 C961 1.327 . S
C961 H955 0.950 . S
C961 C960 1.327 . S
C961 C965 1.429 . S
C962 C945 1.574 . S
C962 H956 0.949 . S
C962 C966 1.368 . S
C963 C944 1.429 . S
C963 C957 1.429 . S
C963 C964 1.523 . S
C964 C945 1.368 . S
C964 C958 1.368 . S
C964 C963 1.523 . S
C965 C949 1.429 . S
C965 C961 1.429 . S
C965 C966 1.523 . S
C966 C950 1.368 . S
C966 C962 1.368 . S
C966 C965 1.523 . S
H967 C942 0.950 . S
H968 C944 0.950 . S
H969 C945 0.949 . S
H970 C947 0.950 . S
H971 C949 0.950 . S
C972 C973 1.349 . S
C972 C974 1.327 . S
C972 H997 0.950 . S
C973 C972 1.349 . S
C973 C989 1.349 . S
C974 C972 1.327 . S
C974 C993 1.429 . S
C974 H998 0.950 . S
C975 C992 1.574 . S
C975 C994 1.368 . S
C975 H999 0.949 . S
H976 C980 0.949 . S
C977 C978 1.349 . S
C977 C979 1.327 . S
C977 H1000 0.950 . S
C978 C977 1.349 . S
C978 C990 1.349 . S
C979 C977 1.327 . S
C979 C995 1.429 . S
C979 H1001 0.950 . S
C980 H976 0.949 . S
C980 C988 1.574 . S
C980 C996 1.368 . S
H981 C989 0.950 . S
H982 C987 0.950 . S
H983 C988 0.949 . S
H984 C990 0.950 . S
H985 C991 0.950 . S
H986 C992 0.949 . S
C987 H982 0.950 . S
C987 C989 1.327 . S
C987 C993 1.429 . S
C988 C980 1.574 . S
C988 H983 0.949 . S
C988 C994 1.368 . S
C989 C973 1.349 . S
C989 H981 0.950 . S
C989 C987 1.327 . S
C990 C978 1.349 . S
C990 H984 0.950 . S
C990 C991 1.327 . S
C991 H985 0.950 . S
C991 C990 1.327 . S
C991 C995 1.429 . S
C992 C975 1.574 . S
C992 H986 0.949 . S
C992 C996 1.368 . S
C993 C974 1.429 . S
C993 C987 1.429 . S
C993 C994 1.523 . S
C994 C975 1.368 . S
C994 C988 1.368 . S
C994 C993 1.523 . S
C995 C979 1.429 . S
C995 C991 1.429 . S
C995 C996 1.523 . S
C996 C980 1.368 . S
C996 C992 1.368 . S
C996 C995 1.523 . S
H997 C972 0.950 . S
H998 C974 0.950 . S
H999 C975 0.949 . S
H1000 C977 0.950 . S
H1001 C979 0.950 . S
C1002 C1003 1.349 . S
C1002 C1004 1.327 . S
C1002 H1027 0.950 . S
C1003 C1002 1.349 . S
C1003 C1019 1.349 . S
C1004 C1002 1.327 . S
C1004 C1023 1.429 . S
C1004 H1028 0.950 . S
C1005 C1022 1.574 . S
C1005 C1024 1.368 . S
C1005 H1029 0.949 . S
H1006 C1010 0.949 . S
C1007 C1008 1.349 . S
C1007 C1009 1.327 . S
C1007 H1030 0.950 . S
C1008 C1007 1.349 . S
C1008 C1020 1.349 . S
C1009 C1007 1.327 . S
C1009 C1025 1.429 . S
C1009 H1031 0.950 . S
C1010 H1006 0.949 . S
C1010 C1018 1.574 . S
C1010 C1026 1.368 . S
H1011 C1019 0.950 . S
H1012 C1017 0.950 . S
H1013 C1018 0.949 . S
H1014 C1020 0.950 . S
H1015 C1021 0.950 . S
H1016 C1022 0.949 . S
C1017 H1012 0.950 . S
C1017 C1019 1.327 . S
C1017 C1023 1.429 . S
C1018 C1010 1.574 . S
C1018 H1013 0.949 . S
C1018 C1024 1.368 . S
C1019 C1003 1.349 . S
C1019 H1011 0.950 . S
C1019 C1017 1.327 . S
C1020 C1008 1.349 . S
C1020 H1014 0.950 . S
C1020 C1021 1.327 . S
C1021 H1015 0.950 . S
C1021 C1020 1.327 . S
C1021 C1025 1.429 . S
C1022 C1005 1.574 . S
C1022 H1016 0.949 . S
C1022 C1026 1.368 . S
C1023 C1004 1.429 . S
C1023 C1017 1.429 . S
C1023 C1024 1.523 . S
C1024 C1005 1.368 . S
C1024 C1018 1.368 . S
C1024 C1023 1.523 . S
C1025 C1009 1.429 . S
C1025 C1021 1.429 . S
C1025 C1026 1.523 . S
C1026 C1010 1.368 . S
C1026 C1022 1.368 . S
C1026 C1025 1.523 . S
H1027 C1002 0.950 . S
H1028 C1004 0.950 . S
H1029 C1005 0.949 . S
H1030 C1007 0.950 . S
H1031 C1009 0.950 . S
C1032 C1033 1.349 . S
C1032 C1034 1.327 . S
C1032 H1057 0.950 . S
C1033 C1032 1.349 . S
C1033 C1049 1.349 . S
C1034 C1032 1.327 . S
C1034 C1053 1.429 . S
C1034 H1058 0.950 . S
C1035 C1052 1.574 . S
C1035 C1054 1.368 . S
C1035 H1059 0.949 . S
H1036 C1040 0.949 . S
C1037 C1038 1.349 . S
C1037 C1039 1.327 . S
C1037 H1060 0.950 . S
C1038 C1037 1.349 . S
C1038 C1050 1.349 . S
C1039 C1037 1.327 . S
C1039 C1055 1.429 . S
C1039 H1061 0.950 . S
C1040 H1036 0.949 . S
C1040 C1048 1.574 . S
C1040 C1056 1.368 . S
H1041 C1049 0.950 . S
H1042 C1047 0.950 . S
H1043 C1048 0.949 . S
H1044 C1050 0.950 . S
H1045 C1051 0.950 . S
H1046 C1052 0.949 . S
C1047 H1042 0.950 . S
C1047 C1049 1.327 . S
C1047 C1053 1.429 . S
C1048 C1040 1.574 . S
C1048 H1043 0.949 . S
C1048 C1054 1.368 . S
C1049 C1033 1.349 . S
C1049 H1041 0.950 . S
C1049 C1047 1.327 . S
C1050 C1038 1.349 . S
C1050 H1044 0.950 . S
C1050 C1051 1.327 . S
C1051 H1045 0.950 . S
C1051 C1050 1.327 . S
C1051 C1055 1.429 . S
C1052 C1035 1.574 . S
C1052 H1046 0.949 . S
C1052 C1056 1.368 . S
C1053 C1034 1.429 . S
C1053 C1047 1.429 . S
C1053 C1054 1.523 . S
C1054 C1035 1.368 . S
C1054 C1048 1.368 . S
C1054 C1053 1.523 . S
C1055 C1039 1.429 . S
C1055 C1051 1.429 . S
C1055 C1056 1.523 . S
C1056 C1040 1.368 . S
C1056 C1052 1.368 . S
C1056 C1055 1.523 . S
H1057 C1032 0.950 . S
H1058 C1034 0.950 . S
H1059 C1035 0.949 . S
H1060 C1037 0.950 . S
H1061 C1039 0.950 . S
C1062 C1063 1.349 . S
C1062 C1064 1.327 . S
C1062 H1087 0.950 . S
C1063 C1062 1.349 . S
C1063 C1079 1.349 . S
C1064 C1062 1.327 . S
C1064 C1083 1.429 . S
C1064 H1088 0.950 . S
C1065 C1082 1.574 . S
C1065 C1084 1.368 . S
C1065 H1089 0.949 . S
H1066 C1070 0.949 . S
C1067 C1068 1.349 . S
C1067 C1069 1.327 . S
C1067 H1090 0.950 . S
C1068 C1067 1.349 . S
C1068 C1080 1.349 . S
C1069 C1067 1.327 . S
C1069 C1085 1.429 . S
C1069 H1091 0.950 . S
C1070 H1066 0.949 . S
C1070 C1078 1.574 . S
C1070 C1086 1.368 . S
H1071 C1079 0.950 . S
H1072 C1077 0.950 . S
H1073 C1078 0.949 . S
H1074 C1080 0.950 . S
H1075 C1081 0.950 . S
H1076 C1082 0.949 . S
C1077 H1072 0.950 . S
C1077 C1079 1.327 . S
C1077 C1083 1.429 . S
C1078 C1070 1.574 . S
C1078 H1073 0.949 . S
C1078 C1084 1.368 . S
C1079 C1063 1.349 . S
C1079 H1071 0.950 . S
C1079 C1077 1.327 . S
C1080 C1068 1.349 . S
C1080 H1074 0.950 . S
C1080 C1081 1.327 . S
C1081 H1075 0.950 . S
C1081 C1080 1.327 . S
C1081 C1085 1.429 . S
C1082 C1065 1.574 . S
C1082 H1076 0.949 . S
C1082 C1086 1.368 . S
C1083 C1064 1.429 . S
C1083 C1077 1.429 . S
C1083 C1084 1.523 . S
C1084 C1065 1.368 . S
C1084 C1078 1.368 . S
C1084 C1083 1.523 . S
C1085 C1069 1.429 . S
C1085 C1081 1.429 . S
C1085 C1086 1.523 . S
C1086 C1070 1.368 . S
C1086 C1082 1.368 . S
C1086 C1085 1.523 . S
H1087 C1062 0.950 . S
H1088 C1064 0.950 . S
H1089 C1065 0.949 . S
H1090 C1067 0.950 . S
H1091 C1069 0.950 . S
C1092 C1093 1.349 . S
C1092 C1094 1.327 . S
C1092 H1117 0.950 . S
C1093 C1092 1.349 . S
C1093 C1109 1.349 . S
C1094 C1092 1.327 . S
C1094 C1113 1.429 . S
C1094 H1118 0.950 . S
C1095 C1112 1.574 . S
C1095 C1114 1.368 . S
C1095 H1119 0.949 . S
H1096 C1100 0.949 . S
C1097 C1098 1.349 . S
C1097 C1099 1.327 . S
C1097 H1120 0.950 . S
C1098 C1097 1.349 . S
C1098 C1110 1.349 . S
C1099 C1097 1.327 . S
C1099 C1115 1.429 . S
C1099 H1121 0.950 . S
C1100 H1096 0.949 . S
C1100 C1108 1.574 . S
C1100 C1116 1.368 . S
H1101 C1109 0.950 . S
H1102 C1107 0.950 . S
H1103 C1108 0.949 . S
H1104 C1110 0.950 . S
H1105 C1111 0.950 . S
H1106 C1112 0.949 . S
C1107 H1102 0.950 . S
C1107 C1109 1.327 . S
C1107 C1113 1.429 . S
C1108 C1100 1.574 . S
C1108 H1103 0.949 . S
C1108 C1114 1.368 . S
C1109 C1093 1.349 . S
C1109 H1101 0.950 . S
C1109 C1107 1.327 . S
C1110 C1098 1.349 . S
C1110 H1104 0.950 . S
C1110 C1111 1.327 . S
C1111 H1105 0.950 . S
C1111 C1110 1.327 . S
C1111 C1115 1.429 . S
C1112 C1095 1.574 . S
C1112 H1106 0.949 . S
C1112 C1116 1.368 . S
C1113 C1094 1.429 . S
C1113 C1107 1.429 . S
C1113 C1114 1.523 . S
C1114 C1095 1.368 . S
C1114 C1108 1.368 . S
C1114 C1113 1.523 . S
C1115 C1099 1.429 . S
C1115 C1111 1.429 . S
C1115 C1116 1.523 . S
C1116 C1100 1.368 . S
C1116 C1112 1.368 . S
C1116 C1115 1.523 . S
H1117 C1092 0.950 . S
H1118 C1094 0.950 . S
H1119 C1095 0.949 . S
H1120 C1097 0.950 . S
H1121 C1099 0.950 . S
C1122 C1123 1.349 . S
C1122 C1124 1.327 . S
C1122 H1147 0.950 . S
C1123 C1122 1.349 . S
C1123 C1139 1.349 . S
C1124 C1122 1.327 . S
C1124 C1143 1.429 . S
C1124 H1148 0.950 . S
C1125 C1142 1.574 . S
C1125 C1144 1.368 . S
C1125 H1149 0.949 . S
H1126 C1130 0.949 . S
C1127 C1128 1.349 . S
C1127 C1129 1.327 . S
C1127 H1150 0.950 . S
C1128 C1127 1.349 . S
C1128 C1140 1.349 . S
C1129 C1127 1.327 . S
C1129 C1145 1.429 . S
C1129 H1151 0.950 . S
C1130 H1126 0.949 . S
C1130 C1138 1.574 . S
C1130 C1146 1.368 . S
H1131 C1139 0.950 . S
H1132 C1137 0.950 . S
H1133 C1138 0.949 . S
H1134 C1140 0.950 . S
H1135 C1141 0.950 . S
H1136 C1142 0.949 . S
C1137 H1132 0.950 . S
C1137 C1139 1.327 . S
C1137 C1143 1.429 . S
C1138 C1130 1.574 . S
C1138 H1133 0.949 . S
C1138 C1144 1.368 . S
C1139 C1123 1.349 . S
C1139 H1131 0.950 . S
C1139 C1137 1.327 . S
C1140 C1128 1.349 . S
C1140 H1134 0.950 . S
C1140 C1141 1.327 . S
C1141 H1135 0.950 . S
C1141 C1140 1.327 . S
C1141 C1145 1.429 . S
C1142 C1125 1.574 . S
C1142 H1136 0.949 . S
C1142 C1146 1.368 . S
C1143 C1124 1.429 . S
C1143 C1137 1.429 . S
C1143 C1144 1.523 . S
C1144 C1125 1.368 . S
C1144 C1138 1.368 . S
C1144 C1143 1.523 . S
C1145 C1129 1.429 . S
C1145 C1141 1.429 . S
C1145 C1146 1.523 . S
C1146 C1130 1.368 . S
C1146 C1142 1.368 . S
C1146 C1145 1.523 . S
H1147 C1122 0.950 . S
H1148 C1124 0.950 . S
H1149 C1125 0.949 . S
H1150 C1127 0.950 . S
H1151 C1129 0.950 . S
C1152 C1153 1.349 . S
C1152 C1154 1.327 . S
C1152 H1177 0.950 . S
C1153 C1152 1.349 . S
C1153 C1169 1.349 . S
C1154 C1152 1.327 . S
C1154 C1173 1.429 . S
C1154 H1178 0.950 . S
C1155 C1172 1.574 . S
C1155 C1174 1.368 . S
C1155 H1179 0.949 . S
H1156 C1160 0.949 . S
C1157 C1158 1.349 . S
C1157 C1159 1.327 . S
C1157 H1180 0.950 . S
C1158 C1157 1.349 . S
C1158 C1170 1.349 . S
C1159 C1157 1.327 . S
C1159 C1175 1.429 . S
C1159 H1181 0.950 . S
C1160 H1156 0.949 . S
C1160 C1168 1.574 . S
C1160 C1176 1.368 . S
H1161 C1169 0.950 . S
H1162 C1167 0.950 . S
H1163 C1168 0.949 . S
H1164 C1170 0.950 . S
H1165 C1171 0.950 . S
H1166 C1172 0.949 . S
C1167 H1162 0.950 . S
C1167 C1169 1.327 . S
C1167 C1173 1.429 . S
C1168 C1160 1.574 . S
C1168 H1163 0.949 . S
C1168 C1174 1.368 . S
C1169 C1153 1.349 . S
C1169 H1161 0.950 . S
C1169 C1167 1.327 . S
C1170 C1158 1.349 . S
C1170 H1164 0.950 . S
C1170 C1171 1.327 . S
C1171 H1165 0.950 . S
C1171 C1170 1.327 . S
C1171 C1175 1.429 . S
C1172 C1155 1.574 . S
C1172 H1166 0.949 . S
C1172 C1176 1.368 . S
C1173 C1154 1.429 . S
C1173 C1167 1.429 . S
C1173 C1174 1.523 . S
C1174 C1155 1.368 . S
C1174 C1168 1.368 . S
C1174 C1173 1.523 . S
C1175 C1159 1.429 . S
C1175 C1171 1.429 . S
C1175 C1176 1.523 . S
C1176 C1160 1.368 . S
C1176 C1172 1.368 . S
C1176 C1175 1.523 . S
H1177 C1152 0.950 . S
H1178 C1154 0.950 . S
H1179 C1155 0.949 . S
H1180 C1157 0.950 . S
H1181 C1159 0.950 . S
C1182 C1183 1.349 . S
C1182 C1184 1.327 . S
C1182 H1207 0.950 . S
C1183 C1182 1.349 . S
C1183 C1199 1.349 . S
C1184 C1182 1.327 . S
C1184 C1203 1.429 . S
C1184 H1208 0.950 . S
C1185 C1202 1.574 1_545 S
C1185 C1204 1.368 . S
C1185 H1209 0.949 . S
H1186 C1190 0.949 . S
C1187 C1188 1.349 . S
C1187 C1189 1.327 . S
C1187 H1210 0.950 . S
C1188 C1187 1.349 . S
C1188 C1200 1.349 . S
C1189 C1187 1.327 . S
C1189 C1205 1.429 . S
C1189 H1211 0.950 . S
C1190 H1186 0.949 . S
C1190 C1198 1.574 1_565 S
C1190 C1206 1.368 . S
H1191 C1199 0.950 . S
H1192 C1197 0.950 . S
H1193 C1198 0.949 . S
H1194 C1200 0.950 . S
H1195 C1201 0.950 . S
H1196 C1202 0.949 . S
C1197 H1192 0.950 . S
C1197 C1199 1.327 . S
C1197 C1203 1.429 . S
C1198 C1190 1.574 1_545 S
C1198 H1193 0.949 . S
C1198 C1204 1.368 . S
C1199 C1183 1.349 . S
C1199 H1191 0.950 . S
C1199 C1197 1.327 . S
C1200 C1188 1.349 . S
C1200 H1194 0.950 . S
C1200 C1201 1.327 . S
C1201 H1195 0.950 . S
C1201 C1200 1.327 . S
C1201 C1205 1.429 . S
C1202 C1185 1.574 1_565 S
C1202 H1196 0.949 . S
C1202 C1206 1.368 . S
C1203 C1184 1.429 . S
C1203 C1197 1.429 . S
C1203 C1204 1.523 . S
C1204 C1185 1.368 . S
C1204 C1198 1.368 . S
C1204 C1203 1.523 . S
C1205 C1189 1.429 . S
C1205 C1201 1.429 . S
C1205 C1206 1.523 . S
C1206 C1190 1.368 . S
C1206 C1202 1.368 . S
C1206 C1205 1.523 . S
H1207 C1182 0.950 . S
H1208 C1184 0.950 . S
H1209 C1185 0.949 . S
H1210 C1187 0.950 . S
H1211 C1189 0.950 . S
C1212 C1213 1.349 . S
C1212 C1214 1.327 . S
C1212 H1237 0.950 . S
C1213 C1212 1.349 . S
C1213 C1229 1.349 . S
C1214 C1212 1.327 . S
C1214 C1233 1.429 . S
C1214 H1238 0.950 . S
C1215 C1232 1.574 . S
C1215 C1234 1.368 . S
C1215 H1239 0.949 . S
H1216 C1220 0.949 . S
C1217 C1218 1.349 . S
C1217 C1219 1.327 . S
C1217 H1240 0.950 . S
C1218 C1217 1.349 . S
C1218 C1230 1.349 . S
C1219 C1217 1.327 . S
C1219 C1235 1.429 1_655 S
C1219 H1241 0.957 . S
C1220 H1216 0.949 . S
C1220 C1228 1.574 . S
C1220 C1236 1.368 . S
H1221 C1229 0.950 . S
H1222 C1227 0.950 . S
H1223 C1228 0.949 . S
H1224 C1230 0.950 . S
H1225 C1231 0.950 . S
H1226 C1232 0.949 . S
C1227 H1222 0.950 . S
C1227 C1229 1.327 . S
C1227 C1233 1.429 . S
C1228 C1220 1.574 . S
C1228 H1223 0.949 . S
C1228 C1234 1.368 . S
C1229 C1213 1.349 . S
C1229 H1221 0.950 . S
C1229 C1227 1.327 . S
C1230 C1218 1.349 . S
C1230 H1224 0.950 . S
C1230 C1231 1.327 . S
C1231 H1225 0.950 . S
C1231 C1230 1.327 . S
C1231 C1235 1.429 1_655 S
C1232 C1215 1.574 . S
C1232 H1226 0.949 . S
C1232 C1236 1.368 . S
C1233 C1214 1.429 . S
C1233 C1227 1.429 . S
C1233 C1234 1.523 . S
C1234 C1215 1.368 . S
C1234 C1228 1.368 . S
C1234 C1233 1.523 . S
C1235 C1219 1.429 1_455 S
C1235 C1231 1.429 1_455 S
C1235 C1236 1.523 . S
C1236 C1220 1.368 . S
C1236 C1232 1.368 . S
C1236 C1235 1.523 . S
H1237 C1212 0.950 . S
H1238 C1214 0.950 . S
H1239 C1215 0.949 . S
H1240 C1217 0.950 . S
H1241 C1219 0.957 . S
C1242 C1243 1.349 . S
C1242 C1244 1.327 . S
C1242 H1267 0.950 . S
C1243 C1242 1.349 . S
C1243 C1259 1.349 . S
C1244 C1242 1.327 . S
C1244 C1263 1.429 . S
C1244 H1268 0.950 . S
C1245 C1262 1.574 . S
C1245 C1264 1.368 . S
C1245 H1269 0.949 . S
H1246 C1250 0.937 1_554 S
C1247 C1248 1.349 . S
C1247 C1249 1.327 . S
C1247 H1270 0.950 . S
C1248 C1247 1.349 . S
C1248 C1260 1.349 . S
C1249 C1247 1.327 . S
C1249 C1265 1.429 . S
C1249 H1271 0.950 1_554 S
C1250 H1246 0.937 1_556 S
C1250 C1258 1.574 . S
C1250 C1266 1.368 . S
H1251 C1259 0.950 . S
H1252 C1257 0.950 . S
H1253 C1258 0.949 . S
H1254 C1260 0.950 . S
H1255 C1261 0.950 . S
H1256 C1262 0.949 . S
C1257 H1252 0.950 . S
C1257 C1259 1.327 . S
C1257 C1263 1.429 . S
C1258 C1250 1.574 . S
C1258 H1253 0.949 . S
C1258 C1264 1.368 . S
C1259 C1243 1.349 . S
C1259 H1251 0.950 . S
C1259 C1257 1.327 . S
C1260 C1248 1.349 . S
C1260 H1254 0.950 . S
C1260 C1261 1.327 . S
C1261 H1255 0.950 . S
C1261 C1260 1.327 . S
C1261 C1265 1.429 . S
C1262 C1245 1.574 . S
C1262 H1256 0.949 . S
C1262 C1266 1.368 . S
C1263 C1244 1.429 . S
C1263 C1257 1.429 . S
C1263 C1264 1.523 . S
C1264 C1245 1.368 . S
C1264 C1258 1.368 . S
C1264 C1263 1.523 . S
C1265 C1249 1.429 . S
C1265 C1261 1.429 . S
C1265 C1266 1.523 1_554 S
C1266 C1250 1.368 . S
C1266 C1262 1.368 . S
C1266 C1265 1.523 1_556 S
H1267 C1242 0.950 . S
H1268 C1244 0.950 . S
H1269 C1245 0.949 . S
H1270 C1247 0.950 . S
H1271 C1249 0.950 1_556 S
C1272 C1273 1.349 . S
C1272 C1274 1.327 . S
C1272 H1297 0.950 . S
C1273 C1272 1.349 . S
C1273 C1289 1.349 . S
C1274 C1272 1.327 . S
C1274 C1293 1.429 . S
C1274 H1298 0.950 . S
C1275 C1292 1.574 . S
C1275 C1294 1.368 . S
C1275 H1299 0.949 . S
H1276 C1280 0.949 . S
C1277 C1278 1.349 . S
C1277 C1279 1.327 . S
C1277 H1300 0.950 . S
C1278 C1277 1.349 . S
C1278 C1290 1.349 . S
C1279 C1277 1.327 . S
C1279 C1295 1.429 . S
C1279 H1301 0.950 . S
C1280 H1276 0.949 . S
C1280 C1288 1.574 1_554 S
C1280 C1296 1.368 . S
H1281 C1289 0.950 . S
H1282 C1287 0.950 . S
H1283 C1288 0.949 . S
H1284 C1290 0.950 . S
H1285 C1291 0.950 . S
H1286 C1292 0.949 . S
C1287 H1282 0.950 . S
C1287 C1289 1.327 1_554 S
C1287 C1293 1.429 1_554 S
C1288 C1280 1.574 1_556 S
C1288 H1283 0.949 . S
C1288 C1294 1.368 1_556 S
C1289 C1273 1.349 . S
C1289 H1281 0.950 . S
C1289 C1287 1.327 1_556 S
C1290 C1278 1.349 . S
C1290 H1284 0.950 . S
C1290 C1291 1.327 . S
C1291 H1285 0.950 . S
C1291 C1290 1.327 . S
C1291 C1295 1.429 . S
C1292 C1275 1.574 . S
C1292 H1286 0.949 . S
C1292 C1296 1.368 . S
C1293 C1274 1.429 . S
C1293 C1287 1.429 1_556 S
C1293 C1294 1.523 1_566 S
C1294 C1275 1.368 . S
C1294 C1288 1.368 1_554 S
C1294 C1293 1.523 1_544 S
C1295 C1279 1.429 . S
C1295 C1291 1.429 . S
C1295 C1296 1.523 . S
C1296 C1280 1.368 . S
C1296 C1292 1.368 . S
C1296 C1295 1.523 . S
H1297 C1272 0.950 . S
H1298 C1274 0.950 . S
H1299 C1275 0.949 . S
H1300 C1277 0.950 . S
H1301 C1279 0.950 . S
C1302 C1303 1.349 . S
C1302 C1304 1.327 . S
C1302 H1327 0.950 . S
C1303 C1302 1.349 . S
C1303 C1319 1.349 . S
C1304 C1302 1.327 . S
C1304 C1323 1.429 . S
C1304 H1328 0.950 1_556 S
C1305 C1322 1.574 . S
C1305 C1324 1.368 . S
C1305 H1329 0.949 . S
H1306 C1310 0.949 . S
C1307 C1308 1.349 . S
C1307 C1309 1.327 1_655 S
C1307 H1330 0.950 . S
C1308 C1307 1.349 . S
C1308 C1320 1.349 . S
C1309 C1307 1.327 1_455 S
C1309 C1325 1.429 . S
C1309 H1331 0.950 . S
C1310 H1306 0.949 . S
C1310 C1318 1.574 . S
C1310 C1326 1.368 . S
H1311 C1319 0.950 . S
H1312 C1317 0.950 . S
H1313 C1318 0.949 . S
H1314 C1320 0.950 . S
H1315 C1321 0.950 . S
H1316 C1322 0.949 . S
C1317 H1312 0.950 . S
C1317 C1319 1.327 . S
C1317 C1323 1.429 . S
C1318 C1310 1.574 . S
C1318 H1313 0.949 . S
C1318 C1324 1.368 1_554 S
C1319 C1303 1.349 . S
C1319 H1311 0.950 . S
C1319 C1317 1.327 . S
C1320 C1308 1.349 . S
C1320 H1314 0.950 . S
C1320 C1321 1.327 . S
C1321 H1315 0.950 . S
C1321 C1320 1.327 . S
C1321 C1325 1.429 1_655 S
C1322 C1305 1.574 . S
C1322 H1316 0.949 . S
C1322 C1326 1.368 1_556 S
C1323 C1304 1.429 . S
C1323 C1317 1.429 . S
C1323 C1324 1.523 . S
C1324 C1305 1.368 . S
C1324 C1318 1.368 1_556 S
C1324 C1323 1.523 . S
C1325 C1309 1.429 . S
C1325 C1321 1.429 1_455 S
C1325 C1326 1.523 . S
C1326 C1310 1.368 . S
C1326 C1322 1.368 1_554 S
C1326 C1325 1.523 . S
H1327 C1302 0.950 . S
H1328 C1304 0.950 1_554 S
H1329 C1305 0.949 . S
H1330 C1307 0.950 . S
H1331 C1309 0.950 . S
C253 C9 1.434 . S
C258 C205 1.433 . S
C283 C174 1.173 . S
C288 C20 1.170 . S
C313 C34 0.985 1_565 S
C318 C191 1.000 . S
C343 C93 1.583 . S
C348 C37 1.587 . S
C373 C107 1.501 . S
C378 C6 1.493 1_655 S
C403 C121 1.413 . S
C408 C23 1.409 . S
C433 C48 1.383 1_655 S
C438 C163 1.401 . S
C463 C135 1.529 . S
C468 C65 1.528 . S
C493 C146 1.054 . S
C498 C76 1.060 . S
C523 C79 1.469 . S
C528 C216 1.433 . S
C553 C51 1.164 . S
C558 C233 1.167 . S
C583 C244 0.914 . S
C588 C62 0.906 . S
C613 C177 1.098 . S
C618 C118 1.083 . S
C643 C90 1.047 . S
C648 C188 1.048 . S
C673 C202 0.597 . S
C678 C104 0.587 . S
C703 C247 1.093 . S
C708 C132 1.085 . S
C733 C149 1.234 . S
C738 C219 1.238 . S
C763 C230 0.843 . S
C768 C160 0.846 . S
C793 C217 1.765 . S
C798 C8 1.544 . S
C823 C21 1.633 . S
C828 C232 1.468 . S
C853 C35 1.459 . S
C858 C245 1.465 . S
C883 C36 1.529 . S
C888 C162 1.525 . S
C913 C134 1.544 . S
C918 C7 1.742 . S
C943 C22 1.510 . S
C948 C147 1.703 . S
C973 C92 1.490 . S
C978 C49 1.690 . S
C1003 C106 1.623 . S
C1008 C64 1.606 . S
C1033 C77 1.720 . S
C1038 C120 1.531 . S
C1063 C78 1.639 . S
C1068 C204 1.654 . S
C1093 C50 1.427 . S
C1098 C175 1.590 . S
C1123 C63 1.861 . S
C1128 C190 1.691 . S
C1153 C119 1.638 . S
C1158 C246 1.481 . S
C1183 C91 1.708 . S
C1188 C218 1.512 . S
C1213 C231 1.623 . S
C1218 C105 1.627 . S
C1243 C176 1.535 . S
C1248 C133 1.688 . S
C1273 C189 1.724 . S
C1278 C148 1.540 . S
C1303 C203 1.643 . S
C1308 C161 1.642 . S
