# Generated by pormake.
# Topology crs, (6)-cn, num edge types: 1
# Building blocks:
#     Node 0, Type 0, BuildingBlock: KUMBUR_clean_sbu_1, # of connection points: 6
#     Node 1, Type 0, BuildingBlock: KUMBUR_clean_sbu_1, # of connection points: 6
#     Node 2, Type 0, BuildingBlock: KUMBUR_clean_sbu_1, # of connection points: 6
#     Node 3, Type 0, BuildingBlock: KUMBUR_clean_sbu_1, # of connection points: 6
#     Node 4, Type 0, BuildingBlock: KUMBUR_clean_sbu_1, # of connection points: 6
#     Node 5, Type 0, BuildingBlock: KUMBUR_clean_sbu_1, # of connection points: 6
#     Node 6, Type 0, BuildingBlock: KUMBUR_clean_sbu_1, # of connection points: 6
#     Node 7, Type 0, BuildingBlock: KUMBUR_clean_sbu_1, # of connection points: 6
#     Node 8, Type 0, BuildingBlock: KUMBUR_clean_sbu_1, # of connection points: 6
#     Node 9, Type 0, BuildingBlock: KUMBUR_clean_sbu_1, # of connection points: 6
#     Node 10, Type 0, BuildingBlock: KUMBUR_clean_sbu_1, # of connection points: 6
#     Node 11, Type 0, BuildingBlock: KUMBUR_clean_sbu_1, # of connection points: 6
#     Node 12, Type 0, BuildingBlock: KUMBUR_clean_sbu_1, # of connection points: 6
#     Node 13, Type 0, BuildingBlock: KUMBUR_clean_sbu_1, # of connection points: 6
#     Node 14, Type 0, BuildingBlock: KUMBUR_clean_sbu_1, # of connection points: 6
#     Node 15, Type 0, BuildingBlock: KUMBUR_clean_sbu_1, # of connection points: 6
#     Edge 16, Type (0, 0), BuildingBlock: XUDNAN_clean_linker_2, # of connection points: 2
#     Edge 17, Type (0, 0), BuildingBlock: XUDNAN_clean_linker_2, # of connection points: 2
#     Edge 18, Type (0, 0), BuildingBlock: XUDNAN_clean_linker_2, # of connection points: 2
#     Edge 19, Type (0, 0), BuildingBlock: XUDNAN_clean_linker_2, # of connection points: 2
#     Edge 20, Type (0, 0), BuildingBlock: XUDNAN_clean_linker_2, # of connection points: 2
#     Edge 21, Type (0, 0), BuildingBlock: XUDNAN_clean_linker_2, # of connection points: 2
#     Edge 22, Type (0, 0), BuildingBlock: XUDNAN_clean_linker_2, # of connection points: 2
#     Edge 23, Type (0, 0), BuildingBlock: XUDNAN_clean_linker_2, # of connection points: 2
#     Edge 24, Type (0, 0), BuildingBlock: XUDNAN_clean_linker_2, # of connection points: 2
#     Edge 25, Type (0, 0), BuildingBlock: XUDNAN_clean_linker_2, # of connection points: 2
#     Edge 26, Type (0, 0), BuildingBlock: XUDNAN_clean_linker_2, # of connection points: 2
#     Edge 27, Type (0, 0), BuildingBlock: XUDNAN_clean_linker_2, # of connection points: 2
#     Edge 28, Type (0, 0), BuildingBlock: XUDNAN_clean_linker_2, # of connection points: 2
#     Edge 29, Type (0, 0), BuildingBlock: XUDNAN_clean_linker_2, # of connection points: 2
#     Edge 30, Type (0, 0), BuildingBlock: XUDNAN_clean_linker_2, # of connection points: 2
#     Edge 31, Type (0, 0), BuildingBlock: XUDNAN_clean_linker_2, # of connection points: 2
#     Edge 32, Type (0, 0), BuildingBlock: XUDNAN_clean_linker_2, # of connection points: 2
#     Edge 33, Type (0, 0), BuildingBlock: XUDNAN_clean_linker_2, # of connection points: 2
#     Edge 34, Type (0, 0), BuildingBlock: XUDNAN_clean_linker_2, # of connection points: 2
#     Edge 35, Type (0, 0), BuildingBlock: XUDNAN_clean_linker_2, # of connection points: 2
#     Edge 36, Type (0, 0), BuildingBlock: XUDNAN_clean_linker_2, # of connection points: 2
#     Edge 37, Type (0, 0), BuildingBlock: XUDNAN_clean_linker_2, # of connection points: 2
#     Edge 38, Type (0, 0), BuildingBlock: XUDNAN_clean_linker_2, # of connection points: 2
#     Edge 39, Type (0, 0), BuildingBlock: XUDNAN_clean_linker_2, # of connection points: 2
#     Edge 40, Type (0, 0), BuildingBlock: XUDNAN_clean_linker_2, # of connection points: 2
#     Edge 41, Type (0, 0), BuildingBlock: XUDNAN_clean_linker_2, # of connection points: 2
#     Edge 42, Type (0, 0), BuildingBlock: XUDNAN_clean_linker_2, # of connection points: 2
#     Edge 43, Type (0, 0), BuildingBlock: XUDNAN_clean_linker_2, # of connection points: 2
#     Edge 44, Type (0, 0), BuildingBlock: XUDNAN_clean_linker_2, # of connection points: 2
#     Edge 45, Type (0, 0), BuildingBlock: XUDNAN_clean_linker_2, # of connection points: 2
#     Edge 46, Type (0, 0), BuildingBlock: XUDNAN_clean_linker_2, # of connection points: 2
#     Edge 47, Type (0, 0), BuildingBlock: XUDNAN_clean_linker_2, # of connection points: 2
#     Edge 48, Type (0, 0), BuildingBlock: XUDNAN_clean_linker_2, # of connection points: 2
#     Edge 49, Type (0, 0), BuildingBlock: XUDNAN_clean_linker_2, # of connection points: 2
#     Edge 50, Type (0, 0), BuildingBlock: XUDNAN_clean_linker_2, # of connection points: 2
#     Edge 51, Type (0, 0), BuildingBlock: XUDNAN_clean_linker_2, # of connection points: 2
#     Edge 52, Type (0, 0), BuildingBlock: XUDNAN_clean_linker_2, # of connection points: 2
#     Edge 53, Type (0, 0), BuildingBlock: XUDNAN_clean_linker_2, # of connection points: 2
#     Edge 54, Type (0, 0), BuildingBlock: XUDNAN_clean_linker_2, # of connection points: 2
#     Edge 55, Type (0, 0), BuildingBlock: XUDNAN_clean_linker_2, # of connection points: 2
#     Edge 56, Type (0, 0), BuildingBlock: XUDNAN_clean_linker_2, # of connection points: 2
#     Edge 57, Type (0, 0), BuildingBlock: XUDNAN_clean_linker_2, # of connection points: 2
#     Edge 58, Type (0, 0), BuildingBlock: XUDNAN_clean_linker_2, # of connection points: 2
#     Edge 59, Type (0, 0), BuildingBlock: XUDNAN_clean_linker_2, # of connection points: 2
#     Edge 60, Type (0, 0), BuildingBlock: XUDNAN_clean_linker_2, # of connection points: 2
#     Edge 61, Type (0, 0), BuildingBlock: XUDNAN_clean_linker_2, # of connection points: 2
#     Edge 62, Type (0, 0), BuildingBlock: XUDNAN_clean_linker_2, # of connection points: 2
#     Edge 63, Type (0, 0), BuildingBlock: XUDNAN_clean_linker_2, # of connection points: 2
# Relax obj value: 0.246
# Max RMSD: 0.302
# Mean RMSD: 0.261
data_MOF--net-crs--node1-KUMBUR_clean_sbu_1--edge1-XUDNAN_clean_linker_2
_symmetry_space_group_name_H-M    P1
_symmetry_Int_Tables_number       1
_symmetry_cell_setting            triclinic
loop_
_symmetry_equiv_pos_as_xyz
'x, y, z'
_cell_length_a     54.750424
_cell_length_b     54.651514
_cell_length_c     41.421496
_cell_angle_alpha  76.548466
_cell_angle_beta   76.097614
_cell_angle_gamma 68.161659
loop_
_atom_site_label
_atom_site_type_symbol
_atom_site_fract_x
_atom_site_fract_y
_atom_site_fract_z
_atom_type_partial_charge
Tb0 Tb 0.98117 1.00694 0.03927 0.0
C1 C 0.01226 0.04364 0.88616 0.0
N2 N 0.02484 0.02204 0.90748 0.0
C3 C 0.03469 0.99387 0.86625 0.0
C4 C 0.00977 0.04094 0.85418 0.0
C5 C 0.0367 0.99751 0.8977 0.0
C6 C 0.02111 0.01565 0.84442 0.0
C7 C 0.98589 0.09071 0.8765 0.0
C8 C 1.0005 0.0683 0.89726 0.0
C9 C 0.98385 0.08818 0.84435 0.0
C10 C 0.99575 0.06339 0.83323 0.0
Tb11 Tb 0.02885 0.03124 0.95623 0.0
N12 N 0.00216 0.06989 0.92899 0.0
C13 C 0.9732 0.11488 0.88892 0.0
C14 C 0.98956 0.0935 0.94121 0.0
C15 C 0.97496 0.11622 0.92145 0.0
H16 H 0.04824 0.98081 0.91368 0.0
H17 H 0.96507 0.13481 0.93136 0.0
H18 H 0.94035 0.054 0.0847 0.0
H19 H 0.03535 0.90372 0.08028 0.0
H20 H 0.99044 0.09539 0.96597 0.0
H21 H 0.96175 0.13253 0.87379 0.0
H22 H 0.01163 0.94219 0.04133 0.0
H23 H 0.04389 0.97432 0.85871 0.0
H24 H 0.97276 0.10522 0.82808 0.0
H25 H 0.99368 0.06171 0.80854 0.0
H26 H 0.93245 0.06228 0.14317 0.0
H27 H 0.01958 0.01274 0.82008 0.0
H28 H 0.03669 0.90985 0.13715 0.0
N29 N 0.97146 0.01676 0.09277 0.0
C30 C 0.98489 0.99763 0.11575 0.0
C31 C 0.94742 0.04408 0.13573 0.0
C32 C 0.98097 1.00139 0.14938 0.0
C33 C 0.952 0.03935 0.10264 0.0
C34 C 0.96237 0.02526 0.15903 0.0
N35 N 0.00258 0.97013 0.07409 0.0
C36 C 0.01327 0.94519 0.06536 0.0
C37 C 0.01347 0.95197 0.12969 0.0
C38 C 1.00095 0.97335 0.1061 0.0
C39 C 0.0269 0.92685 0.11976 0.0
C40 C 0.02625 0.92332 0.08766 0.0
H41 H 0.95873 0.02893 0.18466 0.0
H42 H 0.99234 0.9834 0.19842 0.0
H43 H 0.02078 0.94 0.18115 0.0
O44 O 0.96148 0.98447 0.02744 0.0
O45 O 0.02398 0.99205 0.041 0.0
O46 O 0.04242 0.02255 1.00448 0.0
O47 O 0.94251 1.00971 0.06539 0.0
O48 O 0.99674 0.98556 0.9958 0.0
O49 O 0.03861 0.98823 0.97306 0.0
O50 O 0.05077 0.05594 0.92886 0.0
O51 O 0.99073 0.02833 0.95248 0.0
O52 O 0.96548 0.0411 1.0018 0.0
O53 O 0.069 0.01324 0.93494 0.0
O54 O 0.01657 0.056 0.99586 0.0
O55 O 0.98101 0.04797 0.03692 0.0
C56 C 0.04089 1.00528 0.03237 0.0
C57 C 0.9362 0.96792 0.07616 0.0
C58 C 0.92651 0.9265 0.08506 0.0
C59 C 0.92324 0.92548 0.12013 0.0
C60 C 0.93311 0.96638 0.11118 0.0
C61 C 0.92686 0.94512 0.13295 0.0
C62 C 0.93358 0.94764 0.06335 0.0
C63 C 0.02169 0.97504 0.98178 0.0
C64 C 0.94199 0.9905 0.05253 0.0
C65 C 0.99482 0.98078 0.17255 0.0
C66 C 0.01104 0.95607 0.16272 0.0
C67 C 0.96721 0.03788 0.97089 0.0
C68 C 0.09691 0.03842 0.93208 0.0
C69 C 0.11983 0.06554 0.9432 0.0
C70 C 0.14358 0.04365 0.94239 0.0
C71 C 0.12095 0.01674 0.93098 0.0
C72 C 0.09659 0.06284 0.93812 0.0
C73 C 0.14413 0.01942 0.93601 0.0
C74 C 0.99793 0.0613 0.02286 0.0
C75 C 0.07292 0.03607 0.92436 0.0
H76 H 0.91705 0.91006 0.13787 0.0
H77 H 0.93531 0.98162 0.12181 0.0
H78 H 0.92422 0.94416 0.15991 0.0
H79 H 0.93677 0.94866 0.03629 0.0
H80 H 0.16181 0.04553 0.94566 0.0
H81 H 0.12192 0.99784 0.92579 0.0
H82 H 0.07848 0.08008 0.93803 0.0
H83 H 0.16259 1.00265 0.93497 0.0
Tb84 Tb 0.98759 0.26078 0.22259 0.0
C85 C 0.07459 0.27996 0.27867 0.0
N86 N 0.06198 0.26171 0.29197 0.0
C87 C 0.10229 0.2307 0.31089 0.0
C88 C 0.10208 0.27349 0.27871 0.0
C89 C 0.07519 0.23786 0.30971 0.0
C90 C 0.11607 0.24818 0.29428 0.0
C91 C 0.07135 0.32596 0.25615 0.0
C92 C 0.0594 0.30595 0.26803 0.0
C93 C 0.09899 0.31919 0.25406 0.0
C94 C 0.11433 0.293 0.26539 0.0
Tb95 Tb 0.01671 0.27686 0.29217 0.0
N96 N 0.03269 0.31182 0.27056 0.0
C97 C 0.05511 0.35229 0.24728 0.0
C98 C 0.01663 0.33781 0.26336 0.0
C99 C 0.02759 0.35825 0.2512 0.0
H100 H 0.06441 0.22499 0.32496 0.0
H101 H 0.01475 0.37866 0.24521 0.0
H102 H 0.93554 0.30925 0.19842 0.0
H103 H 0.99961 0.1566 0.27943 0.0
H104 H 0.9953 0.34305 0.26725 0.0
H105 H 0.06353 0.3682 0.23806 0.0
H106 H 0.01549 0.19237 0.24747 0.0
H107 H 0.1122 0.21226 0.32599 0.0
H108 H 0.10855 0.33423 0.24468 0.0
H109 H 0.13545 0.28828 0.26493 0.0
H110 H 0.88666 0.3192 0.20685 0.0
H111 H 0.13702 0.24266 0.2956 0.0
H112 H 0.95129 0.16428 0.29624 0.0
N113 N 0.94276 0.27094 0.22831 0.0
C114 C 0.93259 0.25134 0.24475 0.0
C115 C 0.89931 0.30021 0.21812 0.0
C116 C 0.90493 0.25599 0.2501 0.0
C117 C 0.92686 0.29473 0.21378 0.0
C118 C 0.88822 0.2809 0.23681 0.0
N119 N 0.97691 0.2228 0.24953 0.0
C120 C 0.99448 0.19743 0.25627 0.0
C121 C 0.94011 0.20591 0.27353 0.0
C122 C 0.95013 0.22666 0.25631 0.0
C123 C 0.95816 0.18074 0.28301 0.0
C124 C 0.98544 0.17639 0.27375 0.0
H125 H 0.86686 0.28522 0.24021 0.0
H126 H 0.8737 0.23886 0.27279 0.0
H127 H 0.90448 0.19498 0.29332 0.0
O128 O 0.98177 0.24205 0.18815 0.0
O129 O 0.96107 0.2708 0.26974 0.0
O130 O 0.98646 0.25592 0.31137 0.0
O131 O 0.98811 0.27987 0.17154 0.0
O132 O 0.02613 0.23058 0.234 0.0
O133 O 0.0366 0.23429 0.28369 0.0
O134 O 0.00485 0.30446 0.32627 0.0
O135 O 0.02733 0.29133 0.23757 0.0
O136 O 0.02897 0.261 0.20676 0.0
O137 O 0.01909 0.26265 0.34342 0.0
O138 O 0.97793 0.30572 0.28064 0.0
O139 O 0.97457 0.3047 0.22593 0.0
C140 C 0.96341 0.26182 0.30145 0.0
C141 C 0.99947 0.25065 0.13031 0.0
C142 C 0.00988 0.21666 0.09426 0.0
C143 C 0.01471 0.23557 0.06605 0.0
C144 C 0.00443 0.26882 0.10175 0.0
C145 C 0.01266 0.26105 0.06997 0.0
C146 C 0.00387 0.22429 0.12645 0.0
C147 C 0.04091 0.22134 0.25829 0.0
C148 C 0.98463 0.26021 0.16255 0.0
C149 C 0.89492 0.23563 0.26817 0.0
C150 C 0.91246 0.21067 0.27992 0.0
C151 C 0.03964 0.27686 0.2133 0.0
C152 C 0.03154 0.28975 0.3693 0.0
C153 C 0.04384 0.31646 0.39871 0.0
C154 C 0.06815 0.29551 0.40179 0.0
C155 C 0.05488 0.26841 0.37599 0.0
C156 C 0.02588 0.31393 0.3812 0.0
C157 C 0.07344 0.27162 0.39085 0.0
C158 C 0.96744 0.31708 0.25278 0.0
C159 C 0.01298 0.28614 0.35119 0.0
H160 H 0.01919 0.23146 0.04064 0.0
H161 H 1.00098 0.28929 0.10381 0.0
H162 H 0.01614 0.27534 0.04798 0.0
H163 H 0.00133 0.21022 0.14892 0.0
H164 H 0.08266 0.29718 0.41418 0.0
H165 H 0.05881 0.24891 0.37028 0.0
H166 H 0.00727 0.33008 0.37815 0.0
H167 H 0.09167 0.25521 0.39486 0.0
Tb168 Tb 0.74361 0.25304 0.47838 0.0
C169 C 0.77986 0.25085 0.60784 0.0
N170 N 0.75943 0.27188 0.5966 0.0
C171 C 0.73656 0.27542 0.65331 0.0
C172 C 0.77864 0.24008 0.64233 0.0
C173 C 0.73871 0.28524 0.61877 0.0
C174 C 0.75633 0.25235 0.66509 0.0
C175 C 0.82498 0.22062 0.59589 0.0
C176 C 0.80261 0.24133 0.58475 0.0
C177 C 0.82321 0.20837 0.62982 0.0
C178 C 0.80008 0.21813 0.65304 0.0
Tb179 Tb 0.7633 0.28528 0.53998 0.0
N180 N 0.8037 0.25427 0.55228 0.0
C181 C 0.84895 0.21404 0.57316 0.0
C182 C 0.82812 0.25037 0.53187 0.0
C183 C 0.85074 0.22959 0.54139 0.0
H184 H 0.72315 0.30285 0.60973 0.0
H185 H 0.86975 0.22611 0.52455 0.0
H186 H 0.79692 0.2308 0.41955 0.0
H187 H 0.65075 0.33618 0.46737 0.0
H188 H 0.83092 0.26364 0.50873 0.0
H189 H 0.86662 0.19831 0.58069 0.0
H190 H 0.68593 0.30438 0.4972 0.0
H191 H 0.71958 0.28553 0.67073 0.0
H192 H 0.84008 0.19217 0.63867 0.0
H193 H 0.79939 0.20925 0.67937 0.0
H194 H 0.80667 0.23546 0.35762 0.0
H195 H 0.75463 0.24474 0.69184 0.0
H196 H 0.65489 0.33857 0.40612 0.0
N197 N 0.75678 0.25739 0.42125 0.0
C198 C 0.73721 0.2733 0.40319 0.0
C199 C 0.78708 0.24625 0.37014 0.0
C200 C 0.74188 0.27616 0.36773 0.0
C201 C 0.78159 0.24401 0.40525 0.0
C202 C 0.76709 0.26219 0.35131 0.0
N203 N 0.71042 0.2873 0.45407 0.0
C204 C 0.68827 0.30428 0.47088 0.0
C205 C 0.69333 0.30711 0.40189 0.0
C206 C 0.71312 0.28859 0.42015 0.0
C207 C 0.67048 0.32401 0.41927 0.0
C208 C 0.6681 0.32276 0.45381 0.0
H209 H 0.77146 0.26392 0.3241 0.0
H210 H 0.72479 0.29582 0.32249 0.0
H211 H 0.68234 0.32293 0.35239 0.0
O212 O 0.71382 0.23595 0.48488 0.0
O213 O 0.74518 0.29376 0.4569 0.0
O214 O 0.75374 0.31445 0.49392 0.0
O215 O 0.75245 0.21952 0.45565 0.0
O216 O 0.71305 0.26011 0.52438 0.0
O217 O 0.71998 0.29001 0.55039 0.0
O218 O 0.78378 0.30367 0.55765 0.0
O219 O 0.75291 0.24884 0.56087 0.0
O220 O 0.76627 0.22457 0.51777 0.0
O221 O 0.74245 0.32366 0.55257 0.0
O222 O 0.7899 0.28003 0.49064 0.0
O223 O 0.78686 0.24304 0.47652 0.0
C224 C 0.74779 0.3147 0.46475 0.0
C225 C 0.72958 0.1896 0.48475 0.0
C226 C 0.70422 0.15952 0.51003 0.0
C227 C 0.72829 0.13795 0.51113 0.0
C228 C 0.75348 0.16782 0.48587 0.0
C229 C 0.75271 0.14213 0.49877 0.0
C230 C 0.70508 0.18531 0.49694 0.0
C231 C 0.70534 0.27632 0.54687 0.0
C232 C 0.72951 0.21656 0.46862 0.0
C233 C 0.72163 0.29356 0.34971 0.0
C234 C 0.69743 0.30898 0.36675 0.0
C235 C 0.76065 0.22574 0.55033 0.0
C236 C 0.76974 0.35049 0.54164 0.0
C237 C 0.80203 0.37364 0.51949 0.0
C238 C 0.7812 0.39758 0.51249 0.0
C239 C 0.74903 0.37461 0.53462 0.0
C240 C 0.79622 0.35023 0.53403 0.0
C241 C 0.75482 0.398 0.52005 0.0
C242 C 0.79907 0.26058 0.47242 0.0
C243 C 0.76377 0.32597 0.55839 0.0
H244 H 0.72824 0.11769 0.52002 0.0
H245 H 0.77269 0.17047 0.47614 0.0
H246 H 0.7711 0.1253 0.49839 0.0
H247 H 0.68659 0.20198 0.49529 0.0
H248 H 0.78527 0.41606 0.50212 0.0
H249 H 0.72838 0.37546 0.54069 0.0
H250 H 0.8124 0.33199 0.54015 0.0
H251 H 0.73879 0.41661 0.51521 0.0
Tb252 Tb 0.76501 0.0315 0.79421 0.0
C253 C 0.74301 0.94717 0.74631 0.0
N254 N 0.76251 0.95844 0.73493 0.0
C255 C 0.7953 0.91492 0.73043 0.0
C256 C 0.74916 0.91919 0.75189 0.0
C257 C 0.78801 0.94275 0.72444 0.0
C258 C 0.77584 0.90304 0.74491 0.0
C259 C 0.69573 0.95297 0.75991 0.0
C260 C 0.71662 0.96378 0.75001 0.0
C261 C 0.7018 0.92516 0.76656 0.0
C262 C 0.72846 0.9083 0.76264 0.0
Tb263 Tb 0.74787 1.00435 0.7252 0.0
N264 N 0.71146 0.99061 0.74391 0.0
C265 C 0.66935 0.97045 0.76289 0.0
C266 C 0.68569 1.00774 0.74585 0.0
C267 C 0.66433 0.99794 0.75566 0.0
H268 H 0.80242 0.95153 0.70939 0.0
H269 H 0.644 0.01163 0.75728 0.0
H270 H 0.71849 0.08732 0.81271 0.0
H271 H 0.87262 1.00962 0.7528 0.0
H272 H 0.6813 0.029 0.73917 0.0
H273 H 0.65275 0.96293 0.7704 0.0
H274 H 0.83299 0.99873 0.78303 0.0
H275 H 0.81573 0.90272 0.72262 0.0
H276 H 0.68603 0.91648 0.77437 0.0
H277 H 0.73284 0.88688 0.76716 0.0
H278 H 0.71273 0.13546 0.80178 0.0
H279 H 0.7814 0.88149 0.74878 0.0
H280 H 0.86917 0.0564 0.72908 0.0
N281 N 0.7582 0.07602 0.78564 0.0
C282 C 0.7795 0.08385 0.7698 0.0
C283 C 0.73151 0.12118 0.79231 0.0
C284 C 0.77714 0.11104 0.76286 0.0
C285 C 0.73474 0.09398 0.79822 0.0
C286 C 0.75267 0.12981 0.77406 0.0
N287 N 0.80548 0.03808 0.77085 0.0
C288 C 0.83026 0.01887 0.77025 0.0
C289 C 0.82645 0.07168 0.74569 0.0
C290 C 0.80374 0.06428 0.76125 0.0
C291 C 0.85125 0.05158 0.74096 0.0
C292 C 0.85324 0.02514 0.75414 0.0
H293 H 0.75009 0.1509 0.76938 0.0
H294 H 0.7979 0.13932 0.73968 0.0
H295 H 0.84112 0.10486 0.72467 0.0
O296 O 0.78122 0.03996 0.82877 0.0
O297 O 0.75502 0.05879 0.74743 0.0
O298 O 0.76754 0.03515 0.70383 0.0
O299 O 0.74581 0.02927 0.84589 0.0
O300 O 0.7942 0.99216 0.78107 0.0
O301 O 0.79091 0.99468 0.72602 0.0
O302 O 0.72442 0.02032 0.68649 0.0
O303 O 0.73316 0.99338 0.78005 0.0
O304 O 0.76524 0.98995 0.80874 0.0
O305 O 0.7628 0.99016 0.67902 0.0
O306 O 0.71846 0.04299 0.73701 0.0
O307 O 0.72064 0.04705 0.79099 0.0
C308 C 0.76278 0.05744 0.7151 0.0
C309 C 0.77422 0.02297 0.88662 0.0
C310 C 0.80784 0.01856 0.92028 0.0
C311 C 0.79004 0.0128 0.94955 0.0
C312 C 0.75712 0.0175 0.91619 0.0
C313 C 0.76533 0.01174 0.94734 0.0
C314 C 0.79993 0.02185 0.88894 0.0
C315 C 0.80393 0.98349 0.75165 0.0
C316 C 0.7638 0.03561 0.85456 0.0
C317 C 0.79935 0.11849 0.74564 0.0
C318 C 0.82393 0.09885 0.73698 0.0
C319 C 0.74744 0.9808 0.8043 0.0
C320 C 0.72937 0.98739 0.65467 0.0
C321 C 0.69825 0.98494 0.62328 0.0
C322 C 0.70699 0.95707 0.63227 0.0
C323 C 0.73848 0.95931 0.66242 0.0
C324 C 0.70931 1.00016 0.63463 0.0
C325 C 0.72711 0.94435 0.65164 0.0
C326 C 0.70784 0.05432 0.76457 0.0
C327 C 0.74079 1.00327 0.66724 0.0
H328 H 0.79442 1.00961 0.97451 0.0
H329 H 0.73711 0.01859 0.91534 0.0
H330 H 0.75191 1.00766 0.97014 0.0
H331 H 0.81306 0.02484 0.86569 0.0
H332 H 0.69858 0.94514 0.62367 0.0
H333 H 0.7545 0.94873 0.67668 0.0
H334 H 0.70242 0.02172 0.62785 0.0
H335 H 0.73411 0.9228 0.65803 0.0
Tb336 Tb 0.49162 0.75813 0.23231 0.0
C337 C 0.57784 0.78644 0.27257 0.0
N338 N 0.56701 0.76746 0.29004 0.0
C339 C 0.61004 0.73775 0.30143 0.0
C340 C 0.60558 0.78125 0.26775 0.0
C341 C 0.58245 0.74371 0.30537 0.0
C342 C 0.62169 0.75651 0.28235 0.0
C343 C 0.57204 0.83025 0.23867 0.0
C344 C 0.56107 0.81078 0.25834 0.0
C345 C 0.59969 0.82509 0.23381 0.0
C346 C 0.61638 0.80072 0.24839 0.0
Tb347 Tb 0.52196 0.77937 0.29546 0.0
N348 N 0.53429 0.81493 0.26292 0.0
C349 C 0.55499 0.8543 0.22416 0.0
C350 C 0.51761 0.83888 0.24931 0.0
C351 C 0.52771 0.85864 0.22966 0.0
H352 H 0.57354 0.72939 0.32097 0.0
H353 H 0.51432 0.87737 0.21883 0.0
H354 H 0.44207 0.80592 0.19782 0.0
H355 H 0.50101 0.65529 0.28487 0.0
H356 H 0.49644 0.84364 0.25322 0.0
H357 H 0.56266 0.8697 0.20884 0.0
H358 H 0.51735 0.69285 0.25966 0.0
H359 H 0.62228 0.71873 0.31327 0.0
H360 H 0.60838 0.83984 0.21873 0.0
H361 H 0.63766 0.79706 0.24433 0.0
H362 H 0.39441 0.81541 0.19819 0.0
H363 H 0.6431 0.75178 0.27922 0.0
H364 H 0.4528 0.66206 0.2932 0.0
N365 N 0.4469 0.76926 0.23152 0.0
C366 C 0.43582 0.75007 0.24644 0.0
C367 C 0.40549 0.79739 0.21303 0.0
C368 C 0.40864 0.75444 0.24706 0.0
C369 C 0.43244 0.79214 0.21339 0.0
C370 C 0.3933 0.77878 0.23077 0.0
N371 N 0.47867 0.72147 0.25541 0.0
C372 C 0.49622 0.69645 0.2638 0.0
C373 C 0.44214 0.70409 0.2723 0.0
C374 C 0.45233 0.72522 0.2585 0.0
C375 C 0.45984 0.6788 0.28247 0.0
C376 C 0.48704 0.67492 0.27785 0.0
H377 H 0.37247 0.78278 0.23019 0.0
H378 H 0.37717 0.73697 0.26321 0.0
H379 H 0.40652 0.69285 0.2857 0.0
O380 O 0.50725 0.7303 0.19815 0.0
O381 O 0.4824 0.74489 0.28736 0.0
O382 O 0.48123 0.77661 0.31572 0.0
O383 O 0.49012 0.77194 0.18088 0.0
O384 O 0.532 0.73218 0.24227 0.0
O385 O 0.53452 0.73512 0.29621 0.0
O386 O 0.52534 0.80424 0.32445 0.0
O387 O 0.54696 0.77038 0.24644 0.0
O388 O 0.51465 0.78608 0.21445 0.0
O389 O 0.52502 0.76471 0.34681 0.0
O390 O 0.48293 0.80888 0.28432 0.0
O391 O 0.46752 0.79953 0.24204 0.0
C392 C 0.47043 0.75999 0.31109 0.0
C393 C 0.48481 0.74251 0.15131 0.0
C394 C 0.48317 0.71593 0.11251 0.0
C395 C 0.45709 0.73309 0.10925 0.0
C396 C 0.45942 0.76033 0.14556 0.0
C397 C 0.44538 0.75519 0.12559 0.0
C398 C 0.49677 0.72016 0.13445 0.0
C399 C 0.54339 0.72248 0.26959 0.0
C400 C 0.49956 0.74826 0.17266 0.0
C401 C 0.39805 0.73389 0.2622 0.0
C402 C 0.41478 0.70875 0.27486 0.0
C403 C 0.53991 0.77953 0.21679 0.0
C404 C 0.50712 0.79899 0.38167 0.0
C405 C 0.49102 0.83488 0.41562 0.0
C406 C 0.47202 0.82346 0.43553 0.0
C407 C 0.48793 0.78805 0.40181 0.0
C408 C 0.5088 0.82221 0.38904 0.0
C409 C 0.47062 0.80019 0.42871 0.0
C410 C 0.46562 0.81509 0.26344 0.0
C411 C 0.52503 0.78734 0.35215 0.0
H412 H 0.44611 0.72988 0.09298 0.0
H413 H 0.45056 0.77875 0.15548 0.0
H414 H 0.42569 0.76888 0.12187 0.0
H415 H 0.51686 0.70692 0.13716 0.0
H416 H 0.45817 0.83259 0.45638 0.0
H417 H 0.48611 0.77032 0.39665 0.0
H418 H 0.52333 0.83096 0.37328 0.0
H419 H 0.45582 0.79171 0.44414 0.0
Tb420 Tb 0.24101 0.75456 0.47364 0.0
C421 C 0.26537 0.75758 0.61414 0.0
N422 N 0.24773 0.77662 0.59548 0.0
C423 C 0.21762 0.78959 0.64599 0.0
C424 C 0.2597 0.75377 0.64964 0.0
C425 C 0.22412 0.79267 0.61085 0.0
C426 C 0.23551 0.77012 0.66549 0.0
C427 C 0.30679 0.72018 0.61606 0.0
C428 C 0.28865 0.74097 0.59751 0.0
C429 C 0.30158 0.71681 0.65141 0.0
C430 C 0.2781 0.73354 0.66816 0.0
Tb431 Tb 0.2618 0.78116 0.53856 0.0
N432 N 0.2925 0.74417 0.56319 0.0
C433 C 0.3294 0.70308 0.59856 0.0
C434 C 0.31475 0.72758 0.54613 0.0
C435 C 0.33334 0.70679 0.56348 0.0
H436 H 0.21068 0.80853 0.59608 0.0
H437 H 0.3508 0.69367 0.54971 0.0
H438 H 0.29134 0.74301 0.40995 0.0
H439 H 0.13753 0.82099 0.4785 0.0
H440 H 0.31859 0.73 0.51927 0.0
H441 H 0.34382 0.68687 0.61188 0.0
H442 H 0.17377 0.78351 0.49998 0.0
H443 H 0.19893 0.80245 0.65801 0.0
H444 H 0.31539 0.70104 0.66605 0.0
H445 H 0.27417 0.73042 0.69545 0.0
H446 H 0.30079 0.76195 0.3501 0.0
H447 H 0.23043 0.76781 0.69271 0.0
H448 H 0.14464 0.84503 0.42061 0.0
N449 N 0.25181 0.77046 0.41812 0.0
C450 C 0.23187 0.79032 0.40385 0.0
C451 C 0.28141 0.77029 0.36501 0.0
C452 C 0.23633 0.80165 0.36966 0.0
C453 C 0.27611 0.75982 0.39907 0.0
C454 C 0.2615 0.79143 0.35027 0.0
N455 N 0.20355 0.78813 0.45703 0.0
C456 C 0.1784 0.79474 0.47581 0.0
C457 C 0.18624 0.82074 0.41009 0.0
C458 C 0.20717 0.79979 0.42406 0.0
C459 C 0.16122 0.82903 0.43039 0.0
C460 C 0.15719 0.81565 0.46317 0.0
H461 H 0.26569 0.79956 0.32389 0.0
H462 H 0.21873 0.83186 0.32979 0.0
H463 H 0.17489 0.84856 0.36513 0.0
O464 O 0.21541 0.73986 0.4595 0.0
O465 O 0.25099 0.79203 0.45617 0.0
O466 O 0.23641 0.81093 0.50363 0.0
O467 O 0.25778 0.71995 0.45101 0.0
O468 O 0.21245 0.75951 0.52254 0.0
O469 O 0.21838 0.79342 0.54066 0.0
O470 O 0.29428 0.79249 0.53828 0.0
O471 O 0.25551 0.74252 0.55836 0.0
O472 O 0.2514 0.72251 0.5173 0.0
O473 O 0.25443 0.81613 0.55784 0.0
O474 O 0.29055 0.77662 0.49023 0.0
O475 O 0.28475 0.74274 0.47225 0.0
C476 C 0.2419 0.81342 0.47063 0.0
C477 C 0.23041 0.69282 0.46739 0.0
C478 C 0.2001 0.66752 0.49285 0.0
C479 C 0.2222 0.64434 0.49803 0.0
C480 C 0.25226 0.66934 0.47259 0.0
C481 C 0.2481 0.6453 0.48777 0.0
C482 C 0.20437 0.69168 0.47746 0.0
C483 C 0.20454 0.77764 0.54276 0.0
C484 C 0.23459 0.71842 0.45138 0.0
C485 C 0.21566 0.8228 0.35598 0.0
C486 C 0.19072 0.83237 0.37615 0.0
C487 C 0.25406 0.72198 0.54834 0.0
C488 C 0.28534 0.83814 0.52973 0.0
C489 C 0.31859 0.8598 0.50789 0.0
C490 C 0.30072 0.88041 0.48907 0.0
C491 C 0.26711 0.85918 0.51193 0.0
C492 C 0.31092 0.8386 0.52757 0.0
C493 C 0.27495 0.88008 0.49122 0.0
C494 C 0.2987 0.75855 0.47011 0.0
C495 C 0.2793 0.81459 0.54942 0.0
H496 H 0.21951 0.62529 0.50896 0.0
H497 H 0.27256 0.66949 0.46486 0.0
H498 H 0.26503 0.62727 0.49142 0.0
H499 H 0.18736 0.70953 0.47302 0.0
H500 H 0.30624 0.89723 0.47407 0.0
H501 H 0.24698 0.85942 0.51418 0.0
H502 H 0.32486 0.82251 0.54181 0.0
H503 H 0.26092 0.89628 0.4774 0.0
Tb504 Tb 0.25972 0.52934 0.79283 0.0
C505 C 0.22189 0.44892 0.75904 0.0
N506 N 0.24236 0.45695 0.74007 0.0
C507 C 0.26816 0.41173 0.73228 0.0
C508 C 0.2244 0.42166 0.76688 0.0
C509 C 0.26483 0.43895 0.72544 0.0
C510 C 0.24803 0.40298 0.7535 0.0
C511 C 0.17687 0.46054 0.79057 0.0
C512 C 0.19857 0.46823 0.771 0.0
C513 C 0.17956 0.43335 0.79935 0.0
C514 C 0.20326 0.41396 0.78753 0.0
Tb515 Tb 0.2357 0.50167 0.73161 0.0
N516 N 0.19681 0.49447 0.76232 0.0
C517 C 0.15285 0.4804 0.79998 0.0
C518 C 0.17226 0.51372 0.76823 0.0
C519 C 0.15036 0.50708 0.78802 0.0
H520 H 0.28012 0.44553 0.70812 0.0
H521 H 0.1313 0.52257 0.79323 0.0
H522 H 0.21244 0.5786 0.82923 0.0
H523 H 0.3455 0.53055 0.69349 0.0
H524 H 0.16854 0.53421 0.75664 0.0
H525 H 0.13575 0.47533 0.81501 0.0
H526 H 0.31153 0.51228 0.72717 0.0
H527 H 0.2862 0.39754 0.721 0.0
H528 H 0.1632 0.42713 0.8147 0.0
H529 H 0.20489 0.39309 0.79408 0.0
H530 H 0.20584 0.62494 0.83375 0.0
H531 H 0.25069 0.38186 0.75884 0.0
H532 H 0.34477 0.57457 0.70007 0.0
N533 N 0.24956 0.57319 0.79599 0.0
C534 C 0.26875 0.58402 0.7794 0.0
C535 C 0.22354 0.6137 0.81824 0.0
C536 C 0.26595 0.61032 0.78163 0.0
C537 C 0.22711 0.58759 0.81519 0.0
C538 C 0.24311 0.62506 0.80156 0.0
N539 N 0.29126 0.54468 0.75474 0.0
C540 C 0.31077 0.531 0.73154 0.0
C541 C 0.30948 0.58078 0.73865 0.0
C542 C 0.29035 0.5693 0.75821 0.0
C543 C 0.32976 0.56641 0.71561 0.0
C544 C 0.3302 0.54157 0.71181 0.0
H545 H 0.24026 0.64531 0.80396 0.0
H546 H 0.28394 0.64136 0.76494 0.0
H547 H 0.32198 0.61556 0.72726 0.0
O548 O 0.29336 0.51747 0.81639 0.0
O549 O 0.24942 0.55737 0.747 0.0
O550 O 0.25073 0.53537 0.70483 0.0
O551 O 0.25371 0.53576 0.8428 0.0
O552 O 0.28701 0.48995 0.78044 0.0
O553 O 0.28031 0.48302 0.73054 0.0
O554 O 0.20807 0.50603 0.70095 0.0
O555 O 0.24585 0.47512 0.77952 0.0
O556 O 0.23649 0.50258 0.81839 0.0
O557 O 0.25009 0.49262 0.68247 0.0
O558 O 0.20862 0.54173 0.74578 0.0
O559 O 0.2157 0.5416 0.79869 0.0
C560 C 0.2504 0.55674 0.71515 0.0
C561 C 0.28879 0.51569 0.87559 0.0
C562 C 0.31828 0.51542 0.91185 0.0
C563 C 0.30505 0.5011 0.93852 0.0
C564 C 0.27596 0.50142 0.90229 0.0
C565 C 0.28435 0.49389 0.93356 0.0
C566 C 0.31023 0.5219 0.88022 0.0
C567 C 0.29459 0.47614 0.75525 0.0
C568 C 0.27914 0.52706 0.84343 0.0
C569 C 0.28563 0.62127 0.76332 0.0
C570 C 0.30732 0.60656 0.74188 0.0
C571 C 0.23915 0.47951 0.81085 0.0
C572 C 0.22148 0.51433 0.64164 0.0
C573 C 0.19642 0.5261 0.59485 0.0
C574 C 0.21605 0.53679 0.5746 0.0
C575 C 0.2397 0.52627 0.62108 0.0
C576 C 0.19959 0.51484 0.62872 0.0
C577 C 0.23694 0.53738 0.58781 0.0
C578 C 0.20111 0.55188 0.77435 0.0
C579 C 0.22644 0.49893 0.6753 0.0
H580 H 0.31012 0.49592 0.96349 0.0
H581 H 0.25931 0.49653 0.89914 0.0
H582 H 0.27433 0.48301 0.95431 0.0
H583 H 0.32026 0.53235 0.85889 0.0
H584 H 0.216 0.54435 0.5481 0.0
H585 H 0.25658 0.52633 0.63033 0.0
H586 H 0.18543 0.50608 0.64527 0.0
H587 H 0.25152 0.54591 0.57182 0.0
Tb588 Tb 0.98669 0.50847 0.54965 0.0
C589 C 0.99964 0.55391 0.38683 0.0
N590 N 0.01892 0.53376 0.40177 0.0
C591 C 0.03194 0.51126 0.35404 0.0
C592 C 0.99537 0.55323 0.35489 0.0
C593 C 0.03535 0.51279 0.38582 0.0
C594 C 0.01185 0.53156 0.33849 0.0
C595 C 0.96239 0.59531 0.39031 0.0
C596 C 0.98347 0.57473 0.40437 0.0
C597 C 0.95826 0.59494 0.35825 0.0
C598 C 0.97473 0.57399 0.34056 0.0
Tb599 Tb 0.02412 0.53917 0.45194 0.0
N600 N 0.98782 0.57418 0.43567 0.0
C601 C 0.94586 0.61546 0.40905 0.0
C602 C 0.97162 0.59388 0.45396 0.0
C603 C 0.95047 0.61468 0.44101 0.0
H604 H 0.05124 0.49734 0.39746 0.0
H605 H 0.93773 0.63016 0.45575 0.0
H606 H 0.94847 0.5636 0.58255 0.0
H607 H 0.04189 0.41083 0.60753 0.0
H608 H 0.97451 0.594 0.47849 0.0
H609 H 0.92942 0.6316 0.39918 0.0
H610 H 0.01879 0.44414 0.56322 0.0
H611 H 0.04487 0.49452 0.34148 0.0
H612 H 0.94222 0.61065 0.34702 0.0
H613 H 0.97117 0.57389 0.31598 0.0
H614 H 0.94183 0.58068 0.63532 0.0
H615 H 0.00923 0.5303 0.31389 0.0
H616 H 0.0413 0.42478 0.66059 0.0
N617 N 0.97753 0.52639 0.59774 0.0
C618 C 0.99008 0.51014 0.62337 0.0
C619 C 0.95563 0.56085 0.63216 0.0
C620 C 0.9865 0.51883 0.65417 0.0
C621 C 0.95966 0.55119 0.60215 0.0
C622 C 0.96937 0.54474 0.65813 0.0
N623 N 0.00777 0.47656 0.58947 0.0
C624 C 0.01955 0.45041 0.58559 0.0
C625 C 0.0178 0.46602 0.6456 0.0
C626 C 0.00555 0.4842 0.61922 0.0
C627 C 0.03168 0.43945 0.6409 0.0
C628 C 0.03215 0.43152 0.61093 0.0
H629 H 0.96608 0.55223 0.68139 0.0
H630 H 0.99718 0.50752 0.70402 0.0
H631 H 0.02454 0.46119 0.69652 0.0
O632 O 0.96851 0.48188 0.54517 0.0
O633 O 0.02831 0.49984 0.55434 0.0
O634 O 0.02942 0.51841 0.50229 0.0
O635 O 0.94785 0.51284 0.57693 0.0
O636 O 0.00948 0.48062 0.51251 0.0
O637 O 0.03452 0.49532 0.4604 0.0
O638 O 0.04047 0.5681 0.424 0.0
O639 O 0.99054 0.52728 0.45147 0.0
O640 O 0.97365 0.53532 0.50441 0.0
O641 O 0.06528 0.52671 0.43085 0.0
O642 O 0.01702 0.56137 0.49331 0.0
O643 O 0.98203 0.55156 0.5324 0.0
C644 C 0.04261 0.50851 0.52764 0.0
C645 C 0.92407 0.48357 0.57522 0.0
C646 C 0.90291 0.45259 0.57132 0.0
C647 C 0.88119 0.46411 0.59548 0.0
C648 C 0.90216 0.49502 0.59917 0.0
C649 C 0.88083 0.48529 0.6092 0.0
C650 C 0.92423 0.4625 0.56116 0.0
C651 C 0.02562 0.47719 0.48273 0.0
C652 C 0.94716 0.4928 0.56583 0.0
C653 C 0.99954 0.50117 0.68023 0.0
C654 C 0.01513 0.47478 0.67596 0.0
C655 C 0.97205 0.52695 0.47793 0.0
C656 C 0.08606 0.55968 0.42245 0.0
C657 C 0.10172 0.5891 0.44202 0.0
C658 C 0.12782 0.57609 0.42656 0.0
C659 C 0.11227 0.54684 0.40741 0.0
C660 C 0.08079 0.58095 0.4399 0.0
C661 C 0.13304 0.55503 0.40948 0.0
C662 C 1.00077 0.56307 0.52282 0.0
C663 C 0.06449 0.55119 0.41846 0.0
H664 H 0.86423 0.45713 0.60321 0.0
H665 H 0.90161 0.51131 0.61034 0.0
H666 H 0.86396 0.4942 0.62761 0.0
H667 H 0.94102 0.45359 0.54258 0.0
H668 H 0.14427 0.58194 0.42831 0.0
H669 H 0.11665 0.53054 0.39387 0.0
H670 H 0.06071 0.59089 0.45211 0.0
H671 H 0.15325 0.54499 0.39789 0.0
Tb672 Tb 0.2692 0.27042 0.03468 0.0
C673 C 0.26713 0.24286 0.90555 0.0
N674 N 0.25013 0.26445 0.91969 0.0
C675 C 0.2556 0.29315 0.86705 0.0
C676 C 0.28028 0.24576 0.87194 0.0
C677 C 0.2431 0.28923 0.90059 0.0
C678 C 0.27462 0.27138 0.85282 0.0
C679 C 0.2878 0.19488 0.91102 0.0
C680 C 0.27102 0.21789 0.92508 0.0
C681 C 0.3019 0.19761 0.87794 0.0
C682 C 0.29818 0.22301 0.85845 0.0
Tb683 Tb 0.23181 0.25636 0.97498 0.0
N684 N 0.25686 0.21611 0.95694 0.0
C685 C 0.28903 0.16985 0.93008 0.0
C686 C 0.25598 0.19172 0.97409 0.0
C687 C 0.27255 0.1683 0.9614 0.0
H688 H 0.22826 0.306 0.91147 0.0
H689 H 0.27225 0.14906 0.97558 0.0
H690 H 0.29112 0.21301 0.08721 0.0
H691 H 0.21397 0.37028 0.06136 0.0
H692 H 0.24222 0.18998 0.99729 0.0
H693 H 0.30162 0.15167 0.9202 0.0
H694 H 0.24256 0.33632 0.02587 0.0
H695 H 0.2506 0.31292 0.85224 0.0
H696 H 0.31514 0.18017 0.86687 0.0
H697 H 0.30872 0.22479 0.83275 0.0
H698 H 0.28126 0.19599 0.14732 0.0
H699 H 0.28432 0.27448 0.82687 0.0
H700 H 0.19876 0.35658 0.12186 0.0
N701 N 0.26187 0.2517 0.09033 0.0
C702 C 0.24502 0.26878 0.1116 0.0
C703 C 0.27042 0.21636 0.13751 0.0
C704 C 0.23926 0.25999 0.1465 0.0
C705 C 0.27556 0.22603 0.10314 0.0
C706 C 0.25174 0.23323 0.1592 0.0
N707 N 0.24223 0.30342 0.06523 0.0
C708 C 0.23553 0.32994 0.05195 0.0
C709 C 0.21916 0.3144 0.12011 0.0
C710 C 0.23519 0.29563 0.09873 0.0
C711 C 0.21104 0.34151 0.10627 0.0
C712 C 0.21953 0.34932 0.07212 0.0
H713 H 0.248 0.2257 0.18587 0.0
H714 H 0.21746 0.27197 0.19458 0.0
H715 H 0.19976 0.31965 0.1714 0.0
O716 O 0.29527 0.29278 0.01736 0.0
O717 O 0.22441 0.28493 0.04362 0.0
O718 O 0.21252 0.25389 0.0282 0.0
O719 O 0.30123 0.26131 0.05979 0.0
O720 O 0.26116 0.30173 0.98954 0.0
O721 O 0.22327 0.29922 0.97685 0.0
O722 O 0.20995 0.24207 0.95326 0.0
O723 O 0.26925 0.26522 0.95507 0.0
O724 O 0.29382 0.24506 0.99637 0.0
O725 O 0.19317 0.2813 0.96676 0.0
O726 O 0.23874 0.22614 0.02133 0.0
O727 O 0.27688 0.22773 0.03378 0.0
C728 C 0.2081 0.27113 0.04818 0.0
C729 C 0.31395 0.29779 0.05995 0.0
C730 C 0.33854 0.32612 0.06167 0.0
C731 C 0.32453 0.33026 0.09419 0.0
C732 C 0.3002 0.30179 0.09269 0.0
C733 C 0.30545 0.31807 0.10964 0.0
C734 C 0.33321 0.30995 0.04455 0.0
C735 C 0.24 0.31226 0.97435 0.0
C736 C 0.30892 0.28072 0.04163 0.0
C737 C 0.22228 0.2784 0.16776 0.0
C738 C 0.21226 0.30557 0.15459 0.0
C739 C 0.29274 0.25365 0.96431 0.0
C740 C 0.16398 0.25665 0.97376 0.0
C741 C 0.137 0.22823 0.98195 0.0
C742 C 0.1184 0.24299 0.00609 0.0
C743 C 0.14507 0.27152 0.99777 0.0
C744 C 0.15952 0.2353 0.96563 0.0
C745 C 0.12227 0.26485 0.01348 0.0
C746 C 0.25923 0.2157 0.03765 0.0
C747 C 0.18853 0.2627 0.95703 0.0
H748 H 0.32843 0.34292 0.10755 0.0
H749 H 0.28563 0.29222 0.10529 0.0
H750 H 0.29477 0.32117 0.13479 0.0
H751 H 0.34397 0.3069 0.01934 0.0
H752 H 0.10061 0.23807 0.01845 0.0
H753 H 0.14778 0.28829 1.00434 0.0
H754 H 0.17369 0.224 0.94665 0.0
H755 H 0.10747 0.27683 0.03121 0.0
Tb756 Tb 0.26001 0.03464 0.28429 0.0
C757 C 0.23623 0.94189 0.2444 0.0
N758 N 0.25435 0.95362 0.22622 0.0
C759 C 0.28139 0.91313 0.20451 0.0
C760 C 0.24033 0.91497 0.24363 0.0
C761 C 0.27645 0.9399 0.20591 0.0
C762 C 0.26329 0.90059 0.22349 0.0
C763 C 0.19516 0.94473 0.28443 0.0
C764 C 0.21365 0.95683 0.26428 0.0
C765 C 0.19909 0.91801 0.28342 0.0
C766 C 0.22152 0.90322 0.26296 0.0
Tb767 Tb 0.24297 0.99768 0.22839 0.0
N768 N 0.21049 0.98277 0.26491 0.0
C769 C 0.17345 0.95968 0.30548 0.0
C770 C 0.18942 0.99714 0.28602 0.0
C771 C 0.17072 0.98588 0.30644 0.0
H772 H 0.29013 0.9497 0.19039 0.0
H773 H 0.15423 0.99744 0.32315 0.0
H774 H 0.21292 0.08543 0.31738 0.0
H775 H 0.34956 0.03064 0.18875 0.0
H776 H 0.18694 0.01693 0.28846 0.0
H777 H 0.15892 0.95106 0.32145 0.0
H778 H 0.31607 0.01295 0.22422 0.0
H779 H 0.29902 0.90227 0.18854 0.0
H780 H 0.18502 0.90849 0.29865 0.0
H781 H 0.22433 0.88257 0.26266 0.0
H782 H 0.20528 0.13299 0.31621 0.0
H783 H 0.26714 0.87986 0.22226 0.0
H784 H 0.3461 0.07709 0.18772 0.0
N785 N 0.24945 0.07928 0.28263 0.0
C786 C 0.26817 0.09005 0.26401 0.0
C787 C 0.22283 0.12124 0.30103 0.0
C788 C 0.26451 0.11721 0.26265 0.0
C789 C 0.22712 0.09433 0.30135 0.0
C790 C 0.24153 0.13277 0.28148 0.0
N791 N 0.29324 0.04797 0.2465 0.0
C792 C 0.3141 0.0327 0.22599 0.0
C793 C 0.30966 0.08518 0.22438 0.0
C794 C 0.29072 0.07399 0.24542 0.0
C795 C 0.33124 0.0692 0.2043 0.0
C796 C 0.33329 0.04297 0.2049 0.0
H797 H 0.2381 0.15366 0.28124 0.0
H798 H 0.28127 0.14885 0.24119 0.0
H799 H 0.32062 0.1209 0.20741 0.0
O800 O 0.28878 0.03352 0.31082 0.0
O801 O 0.25 0.05888 0.23564 0.0
O802 O 0.26422 0.02643 0.20268 0.0
O803 O 0.24782 0.04083 0.33487 0.0
O804 O 0.29079 0.99521 0.27694 0.0
O805 O 0.28624 0.97919 0.23195 0.0
O806 O 0.21488 0.99692 0.20264 0.0
O807 O 0.25226 0.973 0.27683 0.0
O808 O 0.24077 1.00425 0.31144 0.0
O809 O 0.25391 0.99629 0.17607 0.0
O810 O 0.21196 0.03703 0.23683 0.0
O811 O 0.21636 0.05079 0.2836 0.0
C812 C 0.25686 0.05182 0.20568 0.0
C813 C 0.28091 0.02485 0.37046 0.0
C814 C 0.3091 0.0221 0.41005 0.0
C815 C 0.29488 1.00753 0.43486 0.0
C816 C 0.26722 1.01017 0.39544 0.0
C817 C 0.27449 1.00128 0.42735 0.0
C818 C 0.30229 0.02981 0.37755 0.0
C819 C 0.29957 0.97769 0.25571 0.0
C820 C 0.27165 0.03837 0.33825 0.0
C821 C 0.28375 0.12804 0.2425 0.0
C822 C 0.30619 0.11211 0.22333 0.0
C823 C 0.24638 0.97934 0.30708 0.0
C824 C 0.21734 0.01482 0.1455 0.0
C825 C 0.18087 0.02795 0.11417 0.0
C826 C 0.19162 0.04622 0.09136 0.0
C827 C 0.22785 0.03338 0.12282 0.0
C828 C 0.19379 0.01236 0.14103 0.0
C829 C 0.21493 0.04903 0.09588 0.0
C830 C 0.20305 0.05359 0.25932 0.0
C831 C 0.23039 0.99702 0.17359 0.0
H832 H 0.29882 1.0015 0.4604 0.0
H833 H 0.25061 1.00613 0.3906 0.0
H834 H 0.26368 0.99022 0.44673 0.0
H835 H 0.31307 0.04045 0.35751 0.0
H836 H 0.18194 0.05831 0.07027 0.0
H837 H 0.24596 0.0357 0.12576 0.0
H838 H 0.18566 0.99791 0.15826 0.0
H839 H 0.2231 0.06326 0.07834 0.0
Tb840 Tb 0.48625 0.25355 0.72539 0.0
C841 C 0.56703 0.27904 0.79194 0.0
N842 N 0.55543 0.25979 0.80245 0.0
C843 C 0.59481 0.22955 0.82411 0.0
C844 C 0.59324 0.27404 0.79675 0.0
C845 C 0.56881 0.2354 0.81885 0.0
C846 C 0.60709 0.24893 0.81301 0.0
C847 C 0.56521 0.32326 0.76181 0.0
C848 C 0.5531 0.30344 0.77475 0.0
C849 C 0.591 0.31857 0.76732 0.0
C850 C 0.60496 0.29404 0.78478 0.0
Tb851 Tb 0.51194 0.27288 0.7954 0.0
N852 N 0.52836 0.30707 0.76904 0.0
C853 C 0.55129 0.34707 0.74311 0.0
C854 C 0.5148 0.33047 0.75074 0.0
C855 C 0.52605 0.3506 0.73745 0.0
H856 H 0.55884 0.22103 0.83024 0.0
H857 H 0.51514 0.36895 0.72289 0.0
H858 H 0.43078 0.29746 0.70223 0.0
H859 H 0.50766 0.14929 0.78652 0.0
H860 H 0.49534 0.33425 0.74597 0.0
H861 H 0.55994 0.36272 0.73268 0.0
H862 H 0.51921 0.18649 0.74979 0.0
H863 H 0.60505 0.21038 0.83768 0.0
H864 H 0.60049 0.33365 0.75773 0.0
H865 H 0.625 0.29058 0.78843 0.0
H866 H 0.38263 0.30329 0.71476 0.0
H867 H 0.62719 0.24438 0.81731 0.0
H868 H 0.4604 0.15361 0.80866 0.0
N869 N 0.44185 0.25968 0.73338 0.0
C870 C 0.43388 0.23918 0.75221 0.0
C871 C 0.3968 0.2853 0.72579 0.0
C872 C 0.40665 0.24161 0.76015 0.0
C873 C 0.424 0.2821 0.71901 0.0
C874 C 0.38802 0.26513 0.74685 0.0
N875 N 0.47941 0.21451 0.75565 0.0
C876 C 0.49873 0.19012 0.76149 0.0
C877 C 0.44552 0.19452 0.78412 0.0
C878 C 0.45319 0.21611 0.76432 0.0
C879 C 0.46543 0.17068 0.79353 0.0
C880 C 0.49212 0.16826 0.78136 0.0
H881 H 0.36691 0.26774 0.75228 0.0
H882 H 0.37809 0.22215 0.78772 0.0
H883 H 0.41212 0.18083 0.80853 0.0
O884 O 0.48781 0.22779 0.69373 0.0
O885 O 0.45867 0.26494 0.7715 0.0
O886 O 0.48352 0.25031 0.81339 0.0
O887 O 0.48037 0.26946 0.67523 0.0
O888 O 0.52643 0.22725 0.73715 0.0
O889 O 0.53012 0.22948 0.79103 0.0
O890 O 0.50018 0.3023 0.82711 0.0
O891 O 0.53819 0.27201 0.74576 0.0
O892 O 0.52124 0.26682 0.70217 0.0
O893 O 0.51096 0.26093 0.84754 0.0
O894 O 0.47447 0.30248 0.77916 0.0
O895 O 0.46882 0.29789 0.72689 0.0
C896 C 0.46059 0.25662 0.80336 0.0
C897 C 0.50213 0.2391 0.63555 0.0
C898 C 0.51953 0.20896 0.59337 0.0
C899 C 0.53286 0.22631 0.57309 0.0
C900 C 0.51588 0.25581 0.61489 0.0
C901 C 0.53113 0.24937 0.5839 0.0
C902 C 0.50417 0.21566 0.62473 0.0
C903 C 0.53911 0.21807 0.76352 0.0
C904 C 0.48446 0.2463 0.66758 0.0
C905 C 0.39894 0.22058 0.78103 0.0
C906 C 0.41833 0.19711 0.793 0.0
C907 C 0.53962 0.27116 0.71365 0.0
C908 C 0.52338 0.28776 0.87402 0.0
C909 C 0.5365 0.31379 0.9039 0.0
C910 C 0.56062 0.29228 0.90642 0.0
C911 C 0.54547 0.26558 0.88268 0.0
C912 C 0.51839 0.31196 0.88577 0.0
C913 C 0.5646 0.26822 0.89693 0.0
C914 C 0.46231 0.31171 0.75228 0.0
C915 C 0.50567 0.28476 0.85384 0.0
H916 H 0.54426 0.22246 0.54846 0.0
H917 H 0.51459 0.274 0.6224 0.0
H918 H 0.54138 0.26254 0.5679 0.0
H919 H 0.49376 0.20267 0.6409 0.0
H920 H 0.57608 0.29348 0.9175 0.0
H921 H 0.54823 0.24595 0.87837 0.0
H922 H 0.5003 0.32861 0.88191 0.0
H923 H 0.58236 0.2513 0.90142 0.0
Tb924 Tb 0.99037 0.75452 0.73176 0.0
C925 C 0.06643 0.79619 0.76631 0.0
N926 N 0.0591 0.77405 0.77787 0.0
C927 C 0.10534 0.74664 0.77482 0.0
C928 C 0.09358 0.79418 0.75682 0.0
C929 C 0.07821 0.74969 0.78401 0.0
C930 C 0.11309 0.76893 0.76062 0.0
C931 C 0.05338 0.84441 0.75176 0.0
C932 C 0.0466 0.82103 0.76409 0.0
C933 C 0.08035 0.84244 0.74176 0.0
C934 C 0.1004 0.81739 0.74432 0.0
Tb935 Tb 0.0139 0.78193 0.79277 0.0
N936 N 0.02065 0.82218 0.77335 0.0
C937 C 0.03284 0.86909 0.74966 0.0
C938 C 1.00057 0.84636 0.77231 0.0
C939 C 0.00635 0.87006 0.76017 0.0
H940 H 0.07298 0.73271 0.79784 0.0
H941 H 0.99034 0.8891 0.75926 0.0
H942 H 0.93443 0.80593 0.71622 0.0
H943 H 0.00539 0.64923 0.773 0.0
H944 H 0.98006 0.84772 0.78169 0.0
H945 H 0.03723 0.8875 0.74029 0.0
H946 H 0.01963 0.68828 0.74882 0.0
H947 H 0.12026 0.72716 0.77954 0.0
H948 H 0.08593 0.86018 0.73213 0.0
H949 H 0.12113 0.81619 0.73677 0.0
H950 H 0.88617 0.81564 0.73289 0.0
H951 H 0.13414 0.76654 0.75375 0.0
H952 H 0.95737 0.65492 0.79024 0.0
N953 N 0.94467 0.76631 0.7436 0.0
C954 C 0.9353 0.74561 0.75744 0.0
C955 C 0.89974 0.79601 0.74084 0.0
C956 C 0.90763 0.74982 0.76568 0.0
C957 C 0.92734 0.79069 0.73258 0.0
C958 C 0.88982 0.77562 0.7582 0.0
N959 N 0.98008 0.71639 0.75373 0.0
C960 C 0.99864 0.69133 0.7571 0.0
C961 C 0.94452 0.6979 0.77575 0.0
C962 C 0.9535 0.71984 0.76215 0.0
C963 C 0.96347 0.67229 0.77992 0.0
C964 C 0.99062 0.669 0.77037 0.0
H965 H 0.86843 0.7797 0.76413 0.0
H966 H 0.87746 0.73101 0.78668 0.0
H967 H 0.90975 0.6856 0.79563 0.0
O968 O 0.989 0.73128 0.69913 0.0
O969 O 0.97919 0.74314 0.78723 0.0
O970 O 0.97356 0.77862 0.81146 0.0
O971 O 0.98691 0.7719 0.68097 0.0
O972 O 0.03064 0.72821 0.74208 0.0
O973 O 0.02881 0.73716 0.79469 0.0
O974 O 0.00856 0.80498 0.82998 0.0
O975 O 0.02722 0.79159 0.73721 0.0
O976 O 0.0312 0.75624 0.71328 0.0
O977 O 0.02358 0.76228 0.84044 0.0
O978 O 0.97311 0.80675 0.78316 0.0
O979 O 0.9762 0.79915 0.72974 0.0
C980 C 0.96576 0.75895 0.80983 0.0
C981 C 0.00605 0.74052 0.64204 0.0
C982 C 0.0221 0.70737 0.60432 0.0
C983 C 0.03767 0.7219 0.58258 0.0
C984 C 0.02199 0.75471 0.62036 0.0
C985 C 0.0377 0.74537 0.59074 0.0
C986 C 0.00626 0.71695 0.63375 0.0
C987 C 0.0396 0.72146 0.77098 0.0
C988 C 0.98831 0.74967 0.67301 0.0
C989 C 0.89863 0.72808 0.77998 0.0
C990 C 0.91701 0.70219 0.78492 0.0
C991 C 0.03971 0.77554 0.71446 0.0
C992 C 0.0407 0.78592 0.86593 0.0
C993 C 0.05657 0.80933 0.89611 0.0
C994 C 0.0821 0.78978 0.89117 0.0
C995 C 0.06603 0.76612 0.86321 0.0
C996 C 0.03596 0.80738 0.88281 0.0
C997 C 0.08661 0.76829 0.87531 0.0
C998 C 0.96478 0.81429 0.75387 0.0
C999 C 0.01929 0.78437 0.85116 0.0
H1000 H 0.05003 0.7149 0.55965 0.0
H1001 H 0.02224 0.77294 0.62614 0.0
H1002 H 0.04995 0.75636 0.57406 0.0
H1003 H 0.99372 0.70608 0.65017 0.0
H1004 H 0.09883 0.79098 0.89952 0.0
H1005 H 0.07011 0.7489 0.85164 0.0
H1006 H 0.01618 0.82218 0.88594 0.0
H1007 H 0.10621 0.7532 0.87237 0.0
Tb1008 Tb 0.76681 0.53725 0.29057 0.0
C1009 C 0.74061 0.4577 0.21727 0.0
N1010 N 0.7603 0.46868 0.20784 0.0
C1011 C 0.78891 0.43117 0.18056 0.0
C1012 C 0.74451 0.4327 0.20908 0.0
C1013 C 0.78412 0.456 0.18921 0.0
C1014 C 0.76903 0.41946 0.19053 0.0
C1015 C 0.69633 0.4597 0.24783 0.0
C1016 C 0.71671 0.47118 0.23618 0.0
C1017 C 0.7 0.43501 0.2393 0.0
C1018 C 0.72399 0.42159 0.21991 0.0
Tb1019 Tb 0.74899 0.51045 0.22051 0.0
N1020 N 0.71407 0.49478 0.24468 0.0
C1021 C 0.67305 0.47309 0.26826 0.0
C1022 C 0.69121 0.5079 0.26459 0.0
C1023 C 0.67056 0.49723 0.27677 0.0
H1024 H 0.79913 0.46548 0.17971 0.0
H1025 H 0.65266 0.50768 0.29275 0.0
H1026 H 0.71606 0.58698 0.32122 0.0
H1027 H 0.86335 0.53356 0.21201 0.0
H1028 H 0.68856 0.5264 0.27173 0.0
H1029 H 0.65701 0.46487 0.27784 0.0
H1030 H 0.8295 0.51446 0.24384 0.0
H1031 H 0.80777 0.42132 0.16568 0.0
H1032 H 0.6845 0.42599 0.2479 0.0
H1033 H 0.7266 0.40245 0.21377 0.0
H1034 H 0.70571 0.63506 0.32018 0.0
H1035 H 0.77276 0.40026 0.18367 0.0
H1036 H 0.85614 0.58127 0.20939 0.0
N1037 N 0.75433 0.58181 0.29057 0.0
C1038 C 0.77337 0.59312 0.27492 0.0
C1039 C 0.72471 0.62354 0.30713 0.0
C1040 C 0.76833 0.6205 0.27399 0.0
C1041 C 0.73051 0.59635 0.30729 0.0
C1042 C 0.74364 0.6357 0.29031 0.0
N1043 N 0.80159 0.55102 0.25899 0.0
C1044 C 0.82516 0.53533 0.24294 0.0
C1045 C 0.81701 0.58902 0.24052 0.0
C1046 C 0.7976 0.57738 0.25847 0.0
C1047 C 0.84078 0.57305 0.22352 0.0
C1048 C 0.84487 0.54613 0.22483 0.0
H1049 H 0.73904 0.65679 0.29016 0.0
H1050 H 0.78433 0.65292 0.25553 0.0
H1051 H 0.82679 0.62548 0.2261 0.0
O1052 O 0.79499 0.53494 0.31872 0.0
O1053 O 0.75852 0.56463 0.24262 0.0
O1054 O 0.77587 0.5339 0.2081 0.0
O1055 O 0.75424 0.54082 0.34225 0.0
O1056 O 0.79541 0.49829 0.27748 0.0
O1057 O 0.79087 0.48781 0.22803 0.0
O1058 O 0.72087 0.52622 0.18742 0.0
O1059 O 0.7474 0.48479 0.26961 0.0
O1060 O 0.75667 0.4999 0.31218 0.0
O1061 O 0.76284 0.51285 0.16835 0.0
O1062 O 0.72052 0.54879 0.23611 0.0
O1063 O 0.72293 0.55042 0.29078 0.0
C1064 C 0.76744 0.55896 0.21202 0.0
C1065 C 0.78834 0.51914 0.37679 0.0
C1066 C 0.82213 0.5021 0.41361 0.0
C1067 C 0.80939 0.4839 0.43238 0.0
C1068 C 0.77587 0.50095 0.39619 0.0
C1069 C 0.78631 0.48356 0.42391 0.0
C1070 C 0.81129 0.51989 0.38597 0.0
C1071 C 0.80347 0.48289 0.25369 0.0
C1072 C 0.77817 0.53734 0.34674 0.0
C1073 C 0.78787 0.6319 0.25655 0.0
C1074 C 0.81206 0.61626 0.23977 0.0
C1075 C 0.75051 0.48232 0.30099 0.0
C1076 C 0.73512 0.50416 0.13945 0.0
C1077 C 0.70546 0.49104 0.11602 0.0
C1078 C 0.72804 0.47142 0.10175 0.0
C1079 C 0.75723 0.48564 0.1228 0.0
C1080 C 0.70928 0.50717 0.1353 0.0
C1081 C 0.75364 0.46906 0.10475 0.0
C1082 C 0.71085 0.55987 0.26397 0.0
C1083 C 0.73908 0.52013 0.1611 0.0
H1084 H 0.81722 0.47002 0.45381 0.0
H1085 H 0.75812 0.50012 0.38995 0.0
H1086 H 0.77653 0.46967 0.43886 0.0
H1087 H 0.82111 0.53382 0.37108 0.0
H1088 H 0.72606 0.45785 0.08801 0.0
H1089 H 0.77743 0.48356 0.12413 0.0
H1090 H 0.69233 0.52241 0.1466 0.0
H1091 H 0.77082 0.45428 0.093 0.0
Tb1092 Tb 0.73774 0.75601 0.97756 0.0
C1093 C 0.77484 0.74776 0.10701 0.0
N1094 N 0.75341 0.76626 0.09426 0.0
C1095 C 0.7262 0.76443 0.14892 0.0
C1096 C 0.7724 0.73579 0.14109 0.0
C1097 C 0.72955 0.77549 0.11481 0.0
C1098 C 0.74762 0.74427 0.16205 0.0
C1099 C 0.82213 0.72265 0.09829 0.0
C1100 C 0.79933 0.74142 0.08577 0.0
C1101 C 0.8196 0.70959 0.13181 0.0
C1102 C 0.79482 0.71627 0.15323 0.0
Tb1103 Tb 0.7609 0.78402 0.03896 0.0
N1104 N 0.80107 0.75503 0.05368 0.0
C1105 C 0.84696 0.7184 0.07722 0.0
C1106 C 0.82571 0.75279 0.03443 0.0
C1107 C 0.84881 0.73394 0.04543 0.0
H1108 H 0.71316 0.79158 0.10503 0.0
H1109 H 0.86813 0.73188 0.02966 0.0
H1110 H 0.79117 0.72596 0.92354 0.0
H1111 H 0.64187 0.82574 0.95356 0.0
H1112 H 0.82814 0.76589 0.01097 0.0
H1113 H 0.86495 0.70413 0.08585 0.0
H1114 H 0.67427 0.79242 0.9882 0.0
H1115 H 0.7072 0.77168 0.16512 0.0
H1116 H 0.83687 0.69494 0.14174 0.0
H1117 H 0.79332 0.70659 0.17927 0.0
H1118 H 0.80982 0.73484 0.86352 0.0
H1119 H 0.74498 0.73582 0.18851 0.0
H1120 H 0.65676 0.83927 0.89283 0.0
N1121 N 0.7565 0.76075 0.92151 0.0
C1122 C 0.74115 0.78046 0.90081 0.0
C1123 C 0.79066 0.74815 0.87376 0.0
C1124 C 0.75031 0.78539 0.86586 0.0
C1125 C 0.78032 0.74362 0.90808 0.0
C1126 C 0.77577 0.76943 0.85261 0.0
N1127 N 0.70722 0.78839 0.94795 0.0
C1128 C 0.68094 0.7986 0.9619 0.0
C1129 C 0.69766 0.81306 0.89351 0.0
C1130 C 0.71535 0.79428 0.91435 0.0
C1131 C 0.67102 0.82482 0.90799 0.0
C1132 C 0.66255 0.81728 0.94228 0.0
H1133 H 0.78358 0.77257 0.82592 0.0
H1134 H 0.74006 0.80942 0.81827 0.0
H1135 H 0.69383 0.83357 0.84251 0.0
O1136 O 0.7077 0.7387 0.99546 0.0
O1137 O 0.72747 0.80025 0.97323 0.0
O1138 O 0.76277 0.80588 0.98693 0.0
O1139 O 0.73752 0.72643 0.95278 0.0
O1140 O 0.71066 0.76148 0.02638 0.0
O1141 O 0.71697 0.79614 0.04221 0.0
O1142 O 0.77905 0.80166 0.06141 0.0
O1143 O 0.7511 0.74658 0.05762 0.0
O1144 O 0.76533 0.72705 0.01059 0.0
O1145 O 0.74011 0.82347 0.04845 0.0
O1146 O 0.78883 0.77749 0.99035 0.0
O1147 O 0.78181 0.74311 0.97482 0.0
C1148 C 0.74365 0.81414 0.96886 0.0
C1149 C 0.71881 0.69459 0.98822 0.0
C1150 C 0.69591 0.6619 0.01123 0.0
C1151 C 0.72014 0.64285 0.01936 0.0
C1152 C 0.74285 0.67521 0.99588 0.0
C1153 C 0.74343 0.6495 0.01161 0.0
C1154 C 0.69545 0.68786 0.99587 0.0
C1155 C 0.70247 0.78101 0.04416 0.0
C1156 C 0.71711 0.72229 0.97385 0.0
C1157 C 0.73333 0.80522 0.84514 0.0
C1158 C 0.70699 0.81894 0.85892 0.0
C1159 C 0.76079 0.72488 0.04364 0.0
C1160 C 0.76967 0.84768 0.04173 0.0
C1161 C 0.80539 0.86705 0.02762 0.0
C1162 C 0.78674 0.89204 0.01737 0.0
C1163 C 0.7515 0.87271 0.0313 0.0
C1164 C 0.79667 0.84488 0.0385 0.0
C1165 C 0.76015 0.89465 0.01868 0.0
C1166 C 0.7967 0.75805 0.97223 0.0
C1167 C 0.76049 0.82482 0.058 0.0
H1168 H 0.72131 0.62256 0.03066 0.0
H1169 H 0.76107 0.68 0.98972 0.0
H1170 H 0.76204 0.63458 0.01748 0.0
H1171 H 0.67687 0.70291 0.98988 0.0
H1172 H 0.79222 0.90988 0.00944 0.0
H1173 H 0.73058 0.87542 0.03338 0.0
H1174 H 0.81084 0.82537 0.04543 0.0
H1175 H 0.74602 0.91397 0.01089 0.0
Tb1176 Tb 0.49219 1.00499 0.5455 0.0
C1177 C 0.49502 0.06292 0.3805 0.0
N1178 N 0.51392 0.04104 0.39382 0.0
C1179 C 0.5237 0.02203 0.34344 0.0
C1180 C 0.48912 0.06474 0.3485 0.0
C1181 C 0.52915 0.02129 0.37501 0.0
C1182 C 0.50338 0.04367 0.3303 0.0
C1183 C 0.46291 0.10739 0.38507 0.0
C1184 C 0.4821 0.08407 0.39847 0.0
C1185 C 0.45665 0.10901 0.35354 0.0
C1186 C 0.46967 0.08773 0.33534 0.0
Tb1187 Tb 0.52049 0.04329 0.44551 0.0
N1188 N 0.48815 0.08172 0.42922 0.0
C1189 C 0.45041 0.12827 0.40398 0.0
C1190 C 0.47628 0.1021 0.4476 0.0
C1191 C 0.45717 0.12561 0.43535 0.0
H1192 H 0.54592 1.00506 0.38383 0.0
H1193 H 0.44777 0.14171 0.45005 0.0
H1194 H 0.46001 0.04325 0.60626 0.0
H1195 H 0.57433 0.91231 0.54236 0.0
H1196 H 0.48175 0.10045 0.47145 0.0
H1197 H 0.43556 0.14649 0.39458 0.0
H1198 H 0.53866 0.95095 0.51915 0.0
H1199 H 0.5355 1.0061 0.32899 0.0
H1200 H 0.44184 0.12668 0.34294 0.0
H1201 H 0.46482 0.08939 0.31088 0.0
H1202 H 0.46567 0.04351 0.66331 0.0
H1203 H 0.4994 0.0443 0.30567 0.0
H1204 H 0.5819 0.90888 0.60003 0.0
N1205 N 0.49478 1.00905 0.59817 0.0
C1206 C 0.51428 0.98857 0.61255 0.0
C1207 C 0.47964 0.02811 0.64917 0.0
C1208 C 0.51733 0.98729 0.64583 0.0
C1209 C 0.47686 0.02816 0.61648 0.0
C1210 C 0.50007 1.0077 0.66384 0.0
N1211 N 0.52712 0.96977 0.56243 0.0
C1212 C 0.5422 0.94995 0.54394 0.0
C1213 C 0.55047 0.94621 0.60887 0.0
C1214 C 0.53071 0.96819 0.59431 0.0
C1215 C 0.56648 0.92607 0.58975 0.0
C1216 C 0.5623 0.92795 0.55716 0.0
H1217 H 0.50187 1.00749 0.68939 0.0
H1218 H 0.53954 0.96405 0.68598 0.0
H1219 H 0.5684 0.92805 0.65373 0.0
O1220 O 0.48169 0.97212 0.54302 0.0
O1221 O 0.53263 1.00742 0.53564 0.0
O1222 O 0.55071 0.01699 0.47756 0.0
O1223 O 0.46281 0.99577 0.58329 0.0
O1224 O 0.50985 1.00182 0.49399 0.0
O1225 O 0.52772 1.00153 0.44178 0.0
O1226 O 0.53426 0.07488 0.44296 0.0
O1227 O 0.47838 0.04423 0.45722 0.0
O1228 O 0.46098 0.0306 0.51489 0.0
O1229 O 0.55357 0.04615 0.40888 0.0
O1230 O 0.50253 0.04849 0.497 0.0
O1231 O 0.48344 0.04687 0.54955 0.0
C1232 C 0.55194 1.011 0.51045 0.0
C1233 C 0.438 0.97281 0.57133 0.0
C1234 C 0.4144 0.94411 0.56735 0.0
C1235 C 0.39058 0.96132 0.58313 0.0
C1236 C 0.41397 0.99001 0.58684 0.0
C1237 C 0.39044 0.98414 0.59283 0.0
C1238 C 0.438 0.95006 0.56132 0.0
C1239 C 0.51755 0.98864 0.46884 0.0
C1240 C 0.46368 0.97592 0.57023 0.0
C1241 C 0.53699 0.96539 0.66041 0.0
C1242 C 0.55339 0.94484 0.64207 0.0
C1243 C 0.45901 0.0404 0.4825 0.0
C1244 C 0.58106 0.06411 0.42522 0.0
C1245 C 0.60763 0.07744 0.45259 0.0
C1246 C 0.63082 0.05836 0.43894 0.0
C1247 C 0.60456 0.04542 0.411 0.0
C1248 C 0.58296 0.08083 0.4449 0.0
C1249 C 0.6293 0.04265 0.41785 0.0
C1250 C 0.49494 0.05995 0.52385 0.0
C1251 C 0.55466 0.06624 0.41967 0.0
H1252 H 0.37197 0.9574 0.58743 0.0
H1253 H 0.41341 1.00762 0.59517 0.0
H1254 H 0.37203 0.99736 0.60488 0.0
H1255 H 0.45653 0.93647 0.54988 0.0
H1256 H 0.65007 0.05571 0.44455 0.0
H1257 H 0.60384 0.03264 0.39506 0.0
H1258 H 0.56526 0.09619 0.45465 0.0
H1259 H 0.64726 0.02801 0.40722 0.0
Tb1260 Tb 0.48758 0.51158 0.042 0.0
C1261 C 0.51315 0.53465 0.88628 0.0
N1262 N 0.52791 0.51557 0.90814 0.0
C1263 C 0.53714 0.48299 0.87296 0.0
C1264 C 0.50825 0.52821 0.85799 0.0
C1265 C 0.54105 0.49032 0.90099 0.0
C1266 C 0.52009 0.50182 0.85184 0.0
C1267 C 0.48959 0.58151 0.86876 0.0
C1268 C 0.504 0.56094 0.89161 0.0
C1269 C 0.48326 0.57504 0.84159 0.0
C1270 C 0.49262 0.54844 0.83617 0.0
Tb1271 Tb 0.53308 0.52988 0.95261 0.0
N1272 N 0.51071 0.56641 0.91805 0.0
C1273 C 0.48273 0.60797 0.87335 0.0
C1274 C 0.50638 0.59219 0.92056 0.0
C1275 C 0.4917 0.61334 0.89892 0.0
H1276 H 0.55484 0.47585 0.91659 0.0
H1277 H 0.48786 0.63377 0.90149 0.0
H1278 H 0.45216 0.56432 0.08127 0.0
H1279 H 0.54719 0.41223 0.08949 0.0
H1280 H 0.51525 0.59651 0.93814 0.0
H1281 H 0.47163 0.62438 0.85639 0.0
H1282 H 0.51989 0.44718 0.05013 0.0
H1283 H 0.54748 0.46289 0.86748 0.0
H1284 H 0.47187 0.59054 0.82403 0.0
H1285 H 0.48833 0.54385 0.8145 0.0
H1286 H 0.44981 0.57827 0.13467 0.0
H1287 H 0.51705 0.49604 0.83019 0.0
H1288 H 0.55237 0.42378 0.1413 0.0
N1289 N 0.48287 0.52693 0.09101 0.0
C1290 C 0.49766 0.50964 0.11405 0.0
C1291 C 0.4636 0.55901 0.12902 0.0
C1292 C 0.4968 0.5167 0.14505 0.0
C1293 C 0.46527 0.55113 0.09855 0.0
C1294 C 0.47976 0.54192 0.15216 0.0
N1295 N 0.51238 0.47822 0.07742 0.0
C1296 C 0.52309 0.45237 0.07188 0.0
C1297 C 0.52771 0.46522 0.1307 0.0
C1298 C 0.51301 0.4844 0.10697 0.0
C1299 C 0.54091 0.43916 0.1237 0.0
C1300 C 0.53812 0.43257 0.09444 0.0
H1301 H 0.47846 0.54811 0.17571 0.0
H1302 H 0.51229 0.50331 0.19199 0.0
H1303 H 0.53929 0.4581 0.17946 0.0
O1304 O 0.46772 0.48605 0.04031 0.0
O1305 O 0.53125 0.49853 0.0363 0.0
O1306 O 0.54518 0.53088 0.99858 0.0
O1307 O 0.45063 0.51478 0.07528 0.0
O1308 O 0.49807 0.48655 1.00293 0.0
O1309 O 0.53949 0.48765 0.97428 0.0
O1310 O 0.55744 0.54838 0.91645 0.0
O1311 O 0.49396 0.52679 0.95399 0.0
O1312 O 0.4687 0.54215 1.00268 0.0
O1313 O 0.57427 0.50845 0.94208 0.0
O1314 O 0.51759 0.56101 0.98486 0.0
O1315 O 0.48403 0.55408 0.0301 0.0
C1316 C 0.54574 0.51427 0.02712 0.0
C1317 C 0.4258 0.48561 0.07551 0.0
C1318 C 0.40416 0.45524 0.07096 0.0
C1319 C 0.3814 0.46849 0.09262 0.0
C1320 C 0.40309 0.49855 0.09737 0.0
C1321 C 0.38102 0.4899 0.10597 0.0
C1322 C 0.42642 0.46361 0.06298 0.0
C1323 C 0.52088 0.47639 0.98348 0.0
C1324 C 0.44822 0.4958 0.06374 0.0
C1325 C 0.51247 0.49817 0.16817 0.0
C1326 C 0.52789 0.47245 0.16102 0.0
C1327 C 0.47083 0.53843 0.97183 0.0
C1328 C 0.59976 0.53712 0.92991 0.0
C1329 C 0.61283 0.56527 0.95548 0.0
C1330 C 0.63923 0.55459 0.93913 0.0
C1331 C 0.62625 0.5265 0.91415 0.0
C1332 C 0.59306 0.55635 0.95108 0.0
C1333 C 0.6459 0.53519 0.91882 0.0
C1334 C 0.49871 0.56833 0.01099 0.0
C1335 C 0.57922 0.52904 0.92241 0.0
H1336 H 0.364 0.46223 0.09929 0.0
H1337 H 0.4022 0.5156 0.10727 0.0
H1338 H 0.36344 0.50002 0.12264 0.0
H1339 H 0.44377 0.45364 0.0458 0.0
H1340 H 0.65475 0.56124 0.94226 0.0
H1341 H 0.63164 0.51176 0.89782 0.0
H1342 H 0.5726 0.56485 0.96323 0.0
H1343 H 0.66632 0.52704 0.90645 0.0
H1344 H 0.01736 0.10307 0.9949 0.0
H1345 H 0.98267 0.066 0.08963 0.0
H1346 H 0.98238 0.10074 0.11794 0.0
H1347 H 0.06178 0.12083 0.02998 0.0
H1348 H 0.05794 0.15153 1.00032 0.0
H1349 H 0.05426 0.12343 0.98904 0.0
H1350 H 0.00751 0.1546 0.97528 0.0
H1351 H 0.0113 0.18197 0.98846 0.0
H1352 H 0.98285 0.17146 0.00766 0.0
H1353 H 0.9824 0.14141 0.13458 0.0
H1354 H 0.98608 0.18257 0.14107 0.0
H1355 H 0.0289 0.19002 0.03759 0.0
C1356 C 0.00908 0.10252 0.02143 0.0
C1357 C 0.99781 0.08271 0.03956 0.0
C1358 C 0.98886 0.0821 0.0746 0.0
C1359 C 0.98938 0.10147 0.09109 0.0
C1360 C 0.99973 0.12112 0.07228 0.0
C1361 C 0.00979 0.12163 0.03835 0.0
C1362 C 0.02038 0.14468 0.0243 0.0
C1363 C 0.05039 0.13449 0.01014 0.0
C1364 C 0.00456 0.16434 0.99733 0.0
C1365 C 0.01473 0.15697 0.05586 0.0
C1366 C 0.00245 0.14318 0.08296 0.0
C1367 C 0.99279 0.15197 0.11387 0.0
C1368 C 0.99549 0.17563 0.11732 0.0
C1369 C 0.00867 0.19027 0.09033 0.0
C1370 C 0.01869 0.18016 0.05921 0.0
H1371 H 0.85419 0.23077 0.46537 0.0
H1372 H 0.7946 0.29371 0.41305 0.0
H1373 H 0.82978 0.30043 0.36569 0.0
H1374 H 0.90429 0.26348 0.43989 0.0
H1375 H 0.93247 0.23336 0.43489 0.0
H1376 H 0.90267 0.23206 0.46445 0.0
H1377 H 0.8993 0.19673 0.4352 0.0
H1378 H 0.92919 0.19779 0.4057 0.0
H1379 H 0.89889 0.20386 0.39054 0.0
H1380 H 0.87083 0.30184 0.32473 0.0
H1381 H 0.91499 0.29738 0.29099 0.0
H1382 H 0.95146 0.23351 0.36734 0.0
C1383 C 0.84859 0.24576 0.44376 0.0
C1384 C 0.82127 0.26169 0.44299 0.0
C1385 C 0.81507 0.28127 0.41435 0.0
C1386 C 0.83506 0.28523 0.38725 0.0
C1387 C 0.86167 0.26968 0.38892 0.0
C1388 C 0.86864 0.25027 0.41632 0.0
C1389 C 0.89912 0.23702 0.41156 0.0
C1390 C 0.9103 0.24175 0.43936 0.0
C1391 C 0.9071 0.20706 0.41071 0.0
C1392 C 0.90806 0.25187 0.37716 0.0
C1393 C 0.88586 0.27063 0.36491 0.0
C1394 C 0.88828 0.2871 0.33406 0.0
C1395 C 0.91377 0.28427 0.3149 0.0
C1396 C 0.93726 0.26488 0.32588 0.0
C1397 C 0.93422 0.24862 0.35797 0.0
H1398 H 0.78611 0.07002 0.64618 0.0
H1399 H 0.73026 0.10605 0.72989 0.0
H1400 H 0.72617 0.15041 0.6979 0.0
H1401 H 0.81802 0.12106 0.61657 0.0
H1402 H 0.82004 0.12178 0.57231 0.0
H1403 H 0.82027 0.09166 0.6017 0.0
H1404 H 0.77876 0.09058 0.58229 0.0
H1405 H 0.78107 0.1193 0.55172 0.0
H1406 H 0.74999 0.12059 0.58 0.0
H1407 H 0.72967 0.19106 0.66005 0.0
H1408 H 0.735 0.22693 0.61479 0.0
H1409 H 0.78354 0.16927 0.54831 0.0
C1410 C 0.77294 0.08726 0.65765 0.0
C1411 C 0.7594 0.08397 0.69166 0.0
C1412 C 0.74202 0.1074 0.70496 0.0
C1413 C 0.73925 0.13302 0.68668 0.0
C1414 C 0.75329 0.13563 0.65405 0.0
C1415 C 0.76937 0.11359 0.6391 0.0
C1416 C 0.78107 0.12299 0.60277 0.0
C1417 C 0.81168 0.11382 0.59807 0.0
C1418 C 0.77211 0.11275 0.57772 0.0
C1419 C 0.76887 0.15359 0.59987 0.0
C1420 C 0.7534 0.15997 0.63038 0.0
C1421 C 0.74121 0.1863 0.63578 0.0
C1422 C 0.74437 0.2068 0.60946 0.0
C1423 C 0.75911 0.20169 0.57705 0.0
C1424 C 0.77167 0.17431 0.57232 0.0
H1425 H 0.91987 0.03065 0.00702 0.0
H1426 H 0.96012 0.04929 0.90568 0.0
H1427 H 0.92352 0.04813 0.88265 0.0
H1428 H 0.89999 0.98102 0.986 0.0
H1429 H 0.86868 0.98857 0.01491 0.0
H1430 H 0.8966 0.9942 0.02352 0.0
H1431 H 0.86736 0.04331 0.02798 0.0
H1432 H 0.83958 0.03765 0.01864 0.0
H1433 H 0.85122 0.06401 0.99314 0.0
H1434 H 0.88312 0.04503 0.87038 0.0
H1435 H 0.84339 0.0374 0.86773 0.0
H1436 H 0.83175 0.0119 0.97701 0.0
C1437 C 0.92105 0.03435 0.98007 0.0
C1438 C 0.94325 0.03986 0.95821 0.0
C1439 C 0.9436 0.04506 0.92303 0.0
C1440 C 0.92278 0.04441 0.90964 0.0
C1441 C 0.90184 0.03783 0.93173 0.0
C1442 C 0.90085 0.03255 0.96616 0.0
C1443 C 0.87702 0.02375 0.98381 0.0
C1444 C 0.88615 0.99516 1.00315 0.0
C1445 C 0.85765 0.04336 0.00727 0.0
C1446 C 0.86487 0.02506 0.95377 0.0
C1447 C 0.87937 0.0337 0.92422 0.0
C1448 C 0.87179 0.0377 0.89332 0.0
C1449 C 0.84875 0.03277 0.89231 0.0
C1450 C 0.83333 0.02301 0.92205 0.0
C1451 C 0.84209 0.01911 0.95327 0.0
H1452 H 0.09487 0.98616 0.02176 0.0
H1453 H 0.02565 0.02107 0.09358 0.0
H1454 H 0.05472 0.02712 0.12636 0.0
H1455 H 0.14248 0.95289 0.08624 0.0
H1456 H 0.16969 0.95934 0.0553 0.0
H1457 H 0.14386 0.95272 0.04238 0.0
H1458 H 0.13585 0.99664 1.0011 0.0
H1459 H 0.16074 1.00455 0.01403 0.0
H1460 H 0.12705 0.02786 0.01606 0.0
H1461 H 0.09089 0.03561 0.14585 0.0
H1462 H 0.13135 0.04321 0.15232 0.0
H1463 H 0.1765 1.0035 0.06682 0.0
C1464 C 0.08612 0.99387 0.04529 0.0
C1465 C 0.05828 1.00244 0.05589 0.0
C1466 C 0.0471 0.01348 0.08594 0.0
C1467 C 0.06345 0.01717 0.10451 0.0
C1468 C 0.09093 1.00929 0.09281 0.0
C1469 C 0.10223 0.99723 0.06434 0.0
C1470 C 0.13188 0.99265 0.05541 0.0
C1471 C 0.14793 0.96262 0.06013 0.0
C1472 C 0.13932 1.00632 0.01951 0.0
C1473 C 0.13518 1.00592 0.08146 0.0
C1474 C 0.11152 0.01477 0.10344 0.0
C1475 C 0.10957 0.02844 0.12903 0.0
C1476 C 0.13246 0.03288 0.13235 0.0
C1477 C 0.15665 0.0242 0.10974 0.0
C1478 C 0.15803 1.01053 0.08411 0.0
H1479 H 0.01998 0.46589 0.42418 0.0
H1480 H 0.0476 0.4288 0.51924 0.0
H1481 H 0.04959 0.38511 0.51 0.0
H1482 H 0.98043 0.42541 0.42649 0.0
H1483 H 0.98992 0.42302 0.38227 0.0
H1484 H 0.98962 0.45175 0.3969 0.0
H1485 H 0.03919 0.44311 0.36862 0.0
H1486 H 0.03937 0.4145 0.35391 0.0
H1487 H 0.06369 0.41087 0.37886 0.0
H1488 H 0.0454 0.34685 0.49329 0.0
H1489 H 0.04642 0.31222 0.46395 0.0
H1490 H 0.02657 0.3715 0.37557 0.0
C1491 C 0.02706 0.4484 0.44258 0.0
C1492 C 0.03284 0.45072 0.47308 0.0
C1493 C 0.04184 0.42757 0.49666 0.0
C1494 C 0.04319 0.40269 0.49146 0.0
C1495 C 0.03596 0.40123 0.46213 0.0
C1496 C 0.02888 0.42319 0.43751 0.0
C1497 C 0.02342 0.41547 0.40758 0.0
C1498 C 0.99411 0.42978 0.40305 0.0
C1499 C 0.04257 0.42132 0.37533 0.0
C1500 C 0.02917 0.38559 0.41907 0.0
C1501 C 0.03552 0.37825 0.45111 0.0
C1502 C 0.04099 0.35218 0.46797 0.0
C1503 C 0.04148 0.33268 0.45106 0.0
C1504 C 0.03721 0.33902 0.41724 0.0
C1505 C 0.03002 0.36606 0.40136 0.0
H1506 H 0.65271 0.27933 0.54293 0.0
H1507 H 0.70415 0.26823 0.61323 0.0
H1508 H 0.66847 0.26591 0.66054 0.0
H1509 H 0.59113 0.32008 0.58982 0.0
H1510 H 0.56964 0.30463 0.58199 0.0
H1511 H 0.59945 0.30542 0.55215 0.0
H1512 H 0.61519 0.25415 0.5567 0.0
H1513 H 0.58563 0.25307 0.58693 0.0
H1514 H 0.61817 0.23354 0.59741 0.0
H1515 H 0.62912 0.26328 0.70073 0.0
H1516 H 0.58633 0.26223 0.73346 0.0
H1517 H 0.55441 0.27716 0.64172 0.0
C1518 C 0.65626 0.27668 0.56833 0.0
C1519 C 0.68154 0.27528 0.5741 0.0
C1520 C 0.68513 0.27109 0.6078 0.0
C1521 C 0.66484 0.26917 0.63507 0.0
C1522 C 0.64029 0.2713 0.62882 0.0
C1523 C 0.63557 0.27491 0.59647 0.0
C1524 C 0.60668 0.27638 0.59812 0.0
C1525 C 0.59078 0.30324 0.5794 0.0
C1526 C 0.60641 0.2529 0.58392 0.0
C1527 C 0.59612 0.27381 0.63625 0.0
C1528 C 0.6164 0.27042 0.65298 0.0
C1529 C 0.61287 0.26655 0.68789 0.0
C1530 C 0.58796 0.26652 0.70649 0.0
C1531 C 0.5659 0.2711 0.69088 0.0
C1532 C 0.57036 0.27431 0.65485 0.0
H1533 H 0.7792 0.94234 0.84913 0.0
H1534 H 0.70244 0.96641 0.8179 0.0
H1535 H 0.694 0.92685 0.85465 0.0
H1536 H 0.79745 0.87213 0.85828 0.0
H1537 H 0.8098 0.86407 0.8975 0.0
H1538 H 0.81061 0.89431 0.86939 0.0
H1539 H 0.78411 0.92283 0.91517 0.0
H1540 H 0.78418 0.89266 0.94432 0.0
H1541 H 0.75305 0.91908 0.9386 0.0
H1542 H 0.69298 0.88478 0.89661 0.0
H1543 H 0.6997 0.84411 0.93912 0.0
H1544 H 0.77709 0.84548 0.9448 0.0
C1545 C 0.76057 0.93933 0.85001 0.0
C1546 C 0.74196 0.9573 0.829 0.0
C1547 C 0.7177 0.95255 0.83192 0.0
C1548 C 0.71251 0.9302 0.85336 0.0
C1549 C 0.73137 0.91272 0.87307 0.0
C1550 C 0.75478 0.91722 0.87207 0.0
C1551 C 0.77108 0.89577 0.89714 0.0
C1552 C 0.79889 0.88061 0.87941 0.0
C1553 C 0.77322 0.90835 0.92549 0.0
C1554 C 0.75399 0.87772 0.91085 0.0
C1555 C 0.73087 0.88832 0.8971 0.0
C1556 C 0.7113 0.87615 0.90691 0.0
C1557 C 0.71549 0.85258 0.93085 0.0
C1558 C 0.7394 0.84035 0.94451 0.0
C1559 C 0.75874 0.85365 0.93454 0.0
H1560 H 0.17654 0.23886 0.07659 0.0
H1561 H 0.18165 0.31569 0.07893 0.0
H1562 H 0.14051 0.32487 0.12155 0.0
H1563 H 0.10246 0.2601 0.08791 0.0
H1564 H 0.10263 0.22843 0.11282 0.0
H1565 H 0.13121 0.23052 0.08133 0.0
H1566 H 0.15851 0.20738 0.12958 0.0
H1567 H 0.12938 0.20907 0.16154 0.0
H1568 H 0.15279 0.22403 0.16498 0.0
H1569 H 0.09638 0.32718 0.16183 0.0
H1570 H 0.05544 0.32108 0.19814 0.0
H1571 H 0.07932 0.24178 0.17345 0.0
C1572 C 0.16901 0.25766 0.08603 0.0
C1573 C 0.1829 0.27644 0.07438 0.0
C1574 C 0.17208 0.30069 0.08769 0.0
C1575 C 0.14842 0.3062 0.11181 0.0
C1576 C 0.13533 0.28734 0.12275 0.0
C1577 C 0.14528 0.26347 0.11035 0.0
C1578 C 0.12743 0.24647 0.12686 0.0
C1579 C 0.11527 0.24105 0.10059 0.0
C1580 C 0.14297 0.22018 0.14701 0.0
C1581 C 0.10582 0.26458 0.15006 0.0
C1582 C 0.11069 0.28815 0.14711 0.0
C1583 C 0.09281 0.30854 0.1647 0.0
C1584 C 0.06963 0.30478 0.18576 0.0
C1585 C 0.06432 0.28064 0.19 0.0
C1586 C 0.08277 0.2604 0.1714 0.0
H1587 H 0.75072 0.46418 0.37185 0.0
H1588 H 0.75044 0.43856 0.28032 0.0
H1589 H 0.74799 0.39605 0.31195 0.0
H1590 H 0.79382 0.39857 0.40448 0.0
H1591 H 0.77869 0.39804 0.44801 0.0
H1592 H 0.778 0.4294 0.42129 0.0
H1593 H 0.72729 0.44882 0.43469 0.0
H1594 H 0.72558 0.41865 0.46283 0.0
H1595 H 0.7071 0.43121 0.42857 0.0
H1596 H 0.74607 0.35548 0.35191 0.0
H1597 H 0.7465 0.31852 0.39804 0.0
H1598 H 0.74932 0.36564 0.46722 0.0
C1599 C 0.74989 0.44977 0.35852 0.0
C1600 C 0.74957 0.45603 0.32308 0.0
C1601 C 0.74929 0.43571 0.30715 0.0
C1602 C 0.74827 0.41091 0.32505 0.0
C1603 C 0.74806 0.40565 0.35951 0.0
C1604 C 0.74919 0.42419 0.37628 0.0
C1605 C 0.75009 0.41206 0.41346 0.0
C1606 C 0.7767 0.40943 0.42237 0.0
C1607 C 0.72611 0.4287 0.43625 0.0
C1608 C 0.74841 0.38439 0.41486 0.0
C1609 C 0.74748 0.38136 0.3831 0.0
C1610 C 0.74649 0.35779 0.377 0.0
C1611 C 0.74639 0.33673 0.40385 0.0
C1612 C 0.74712 0.33872 0.43714 0.0
C1613 C 0.74832 0.36318 0.44246 0.0
H1614 H 0.56059 1.00639 0.57448 0.0
H1615 H 0.60038 1.00931 0.47022 0.0
H1616 H 0.64063 1.00914 0.48765 0.0
H1617 H 0.58797 0.04721 0.60051 0.0
H1618 H 0.59191 0.02686 0.64124 0.0
H1619 H 0.56577 0.02853 0.62054 0.0
H1620 H 0.58335 0.97749 0.62451 0.0
H1621 H 0.6092 0.97507 0.64597 0.0
H1622 H 0.61771 0.96041 0.60822 0.0
H1623 H 0.67611 1.00969 0.5165 0.0
H1624 H 0.70745 1.00054 0.55571 0.0
H1625 H 0.64486 0.99472 0.64071 0.0
C1626 C 0.57768 1.00691 0.55509 0.0
C1627 C 0.57709 1.0083 0.52072 0.0
C1628 C 0.60012 1.00886 0.49651 0.0
C1629 C 0.62302 1.00883 0.50617 0.0
C1630 C 0.62254 1.00828 0.54013 0.0
C1631 C 0.60065 1.00675 0.56426 0.0
C1632 C 0.60585 1.00415 0.59936 0.0
C1633 C 0.58674 0.02813 0.6164 0.0
C1634 C 0.60399 0.97766 0.62078 0.0
C1635 C 0.63421 1.00428 0.59129 0.0
C1636 C 0.64329 1.00736 0.55691 0.0
C1637 C 0.66925 1.00721 0.54344 0.0
C1638 C 0.6868 1.00225 0.56577 0.0
C1639 C 0.67825 0.99731 0.60093 0.0
C1640 C 0.65153 0.99904 0.61384 0.0
H1641 H 0.0012 0.95898 0.93949 0.0
H1642 H 0.06155 0.93129 1.00316 0.0
H1643 H 0.07403 0.8853 0.99162 0.0
H1644 H 0.98146 0.90055 0.95677 0.0
H1645 H 0.97915 0.90165 0.91374 0.0
H1646 H 0.97336 0.93204 0.92885 0.0
H1647 H 0.00992 0.94274 0.88103 0.0
H1648 H 0.0157 0.91256 0.86546 0.0
H1649 H 0.043 0.91841 0.87585 0.0
H1650 H 0.07764 0.84244 0.97643 0.0
H1651 H 0.07984 0.8061 0.94942 0.0
H1652 H 0.02238 0.86232 0.88756 0.0
C1653 C 0.01698 0.9431 0.95096 0.0
C1654 C 0.03022 0.94828 0.97266 0.0
C1655 C 0.05122 0.92744 0.98662 0.0
C1656 C 0.05824 0.90134 0.98041 0.0
C1657 C 0.04464 0.8967 0.95924 0.0
C1658 C 0.02501 0.91708 0.94388 0.0
C1659 C 0.01545 0.90699 0.91964 0.0
C1660 C 0.98559 0.91051 0.9304 0.0
C1661 C 0.02138 0.921 0.88334 0.0
C1662 C 0.03263 0.87767 0.92407 0.0
C1663 C 0.04878 0.87221 0.94767 0.0
C1664 C 0.06566 0.84657 0.95721 0.0
C1665 C 0.06693 0.82605 0.94135 0.0
C1666 C 0.05209 0.83123 0.91523 0.0
C1667 C 0.03419 0.85746 0.90715 0.0
H1668 H 0.13045 0.08204 0.99486 0.0
H1669 H 0.10999 0.10849 0.89466 0.0
H1670 H 0.11184 0.15295 0.89442 0.0
H1671 H 0.09253 0.14719 0.02751 0.0
H1672 H 0.11819 0.14091 0.05126 0.0
H1673 H 0.1119 0.11326 0.04232 0.0
H1674 H 0.16329 0.09635 0.01747 0.0
H1675 H 0.16709 0.12618 0.02376 0.0
H1676 H 0.17644 0.11703 0.9823 0.0
H1677 H 0.11794 0.1931 0.90305 0.0
H1678 H 0.12503 0.22917 0.9222 0.0
H1679 H 0.13945 0.17867 0.01805 0.0
C1680 C 0.12616 0.0974 0.97313 0.0
C1681 C 0.12 0.09214 0.94474 0.0
C1682 C 0.11453 0.11242 0.91662 0.0
C1683 C 0.11557 0.13762 0.91626 0.0
C1684 C 0.12175 0.1423 0.94444 0.0
C1685 C 0.12662 0.12299 0.97262 0.0
C1686 C 0.13321 0.13349 0.99922 0.0
C1687 C 0.11273 0.13367 0.03197 0.0
C1688 C 0.16171 0.1173 1.00606 0.0
C1689 C 0.131 0.16168 0.98152 0.0
C1690 C 0.12468 0.16609 0.94982 0.0
C1691 C 0.12247 0.19013 0.928 0.0
C1692 C 0.12647 0.21043 0.93902 0.0
C1693 C 0.13224 0.20664 0.97163 0.0
C1694 C 0.13457 0.18201 0.9932 0.0
H1695 H 0.66943 0.58552 0.31516 0.0
H1696 H 0.69799 0.59431 0.20718 0.0
H1697 H 0.66039 0.63566 0.19897 0.0
H1698 H 0.59859 0.61061 0.30963 0.0
H1699 H 0.58776 0.62877 0.34456 0.0
H1700 H 0.6176 0.59981 0.34343 0.0
H1701 H 0.64469 0.62795 0.34952 0.0
H1702 H 0.6149 0.65701 0.35067 0.0
H1703 H 0.6442 0.65803 0.31994 0.0
H1704 H 0.61941 0.67531 0.20035 0.0
H1705 H 0.57722 0.71152 0.21123 0.0
H1706 H 0.57121 0.6812 0.31852 0.0
C1707 C 0.66784 0.59624 0.28984 0.0
C1708 C 0.68716 0.5859 0.26179 0.0
C1709 C 0.68378 0.60096 0.22922 0.0
C1710 C 0.66233 0.62483 0.22418 0.0
C1711 C 0.64364 0.63417 0.25185 0.0
C1712 C 0.64598 0.62054 0.28415 0.0
C1713 C 0.62223 0.63547 0.309 0.0
C1714 C 0.60556 0.61759 0.32778 0.0
C1715 C 0.63209 0.64519 0.33377 0.0
C1716 C 0.60628 0.65924 0.28551 0.0
C1717 C 0.61938 0.65779 0.25269 0.0
C1718 C 0.60903 0.67661 0.226 0.0
C1719 C 0.58469 0.69727 0.23259 0.0
C1720 C 0.57016 0.69977 0.26579 0.0
C1721 C 0.58152 0.68033 0.2928 0.0
H1722 H 0.3335 0.85723 0.56588 0.0
H1723 H 0.35892 0.86845 0.45776 0.0
H1724 H 0.39777 0.87811 0.4652 0.0
H1725 H 0.33932 0.91014 0.57852 0.0
H1726 H 0.35113 0.89791 0.61826 0.0
H1727 H 0.33237 0.88184 0.60623 0.0
H1728 H 0.37079 0.83659 0.61307 0.0
H1729 H 0.38982 0.85261 0.6254 0.0
H1730 H 0.40409 0.83391 0.59087 0.0
H1731 H 0.42441 0.89752 0.48252 0.0
H1732 H 0.436 0.92855 0.50594 0.0
H1733 H 0.3915 0.90742 0.60316 0.0
C1734 C 0.34804 0.86051 0.54396 0.0
C1735 C 0.34371 0.8619 0.51134 0.0
C1736 C 0.36223 0.86726 0.48292 0.0
C1737 C 0.38445 0.87236 0.48704 0.0
C1738 C 0.38757 0.87202 0.51968 0.0
C1739 C 0.36987 0.86609 0.54774 0.0
C1740 C 0.37375 0.87295 0.57906 0.0
C1741 C 0.34761 0.89185 0.59645 0.0
C1742 C 0.38531 0.84749 0.60354 0.0
C1743 C 0.39418 0.88661 0.56355 0.0
C1744 C 0.403 0.88445 0.52977 0.0
C1745 C 0.41883 0.89865 0.509 0.0
C1746 C 0.42491 0.91644 0.52246 0.0
C1747 C 0.41417 0.92056 0.5561 0.0
C1748 C 0.39988 0.90447 0.5773 0.0
H1749 H 0.07692 0.68849 0.72486 0.0
H1750 H 0.05486 0.69346 0.83154 0.0
H1751 H 0.09225 0.65184 0.84304 0.0
H1752 H 0.09742 0.61518 0.7347 0.0
H1753 H 0.12504 0.61214 0.70011 0.0
H1754 H 0.09628 0.64217 0.69983 0.0
H1755 H 0.12681 0.66986 0.69202 0.0
H1756 H 0.15585 0.64016 0.69296 0.0
H1757 H 0.1485 0.66293 0.72202 0.0
H1758 H 0.1327 0.60891 0.84378 0.0
H1759 H 0.17229 0.5692 0.83381 0.0
H1760 H 0.17089 0.59021 0.72649 0.0
C1761 C 0.07978 0.68075 0.75072 0.0
C1762 C 0.06236 0.69488 0.7773 0.0
C1763 C 0.06744 0.68361 0.81058 0.0
C1764 C 0.08885 0.65975 0.8174 0.0
C1765 C 0.10562 0.64659 0.79085 0.0
C1766 C 0.10136 0.65665 0.75808 0.0
C1767 C 0.12269 0.63837 0.73429 0.0
C1768 C 0.10957 0.62625 0.71615 0.0
C1769 C 0.13948 0.65375 0.70882 0.0
C1770 C 0.13963 0.61666 0.75872 0.0
C1771 C 0.1292 0.6219 0.79124 0.0
C1772 C 0.14098 0.60486 0.81832 0.0
C1773 C 0.16381 0.58218 0.81231 0.0
C1774 C 0.17556 0.57612 0.77933 0.0
C1775 C 0.16282 0.59384 0.75215 0.0
H1776 H 0.83066 0.35829 0.56927 0.0
H1777 H 0.83283 0.39174 0.46366 0.0
H1778 H 0.87303 0.40224 0.4632 0.0
H1779 H 0.83557 0.40667 0.5922 0.0
H1780 H 0.85624 0.38992 0.62414 0.0
H1781 H 0.83709 0.37351 0.61371 0.0
H1782 H 0.8798 0.33353 0.60016 0.0
H1783 H 0.8993 0.34977 0.61108 0.0
H1784 H 0.90797 0.33916 0.57052 0.0
H1785 H 0.90161 0.42115 0.47732 0.0
H1786 H 0.91219 0.45077 0.50443 0.0
H1787 H 0.89097 0.40775 0.60236 0.0
C1788 C 0.84071 0.36637 0.54571 0.0
C1789 C 0.82921 0.37393 0.51642 0.0
C1790 C 0.84176 0.3856 0.48618 0.0
C1791 C 0.86473 0.39133 0.48572 0.0
C1792 C 0.87464 0.38542 0.51576 0.0
C1793 C 0.86311 0.37291 0.54528 0.0
C1794 C 0.87256 0.37505 0.5757 0.0
C1795 C 0.84896 0.38703 0.60295 0.0
C1796 C 0.89101 0.34775 0.5902 0.0
C1797 C 0.88813 0.39376 0.5593 0.0
C1798 C 0.8906 0.39802 0.52455 0.0
C1799 C 0.90052 0.41757 0.5043 0.0
C1800 C 0.90653 0.43425 0.51986 0.0
C1801 C 0.90242 0.43136 0.55532 0.0
C1802 C 0.89438 0.41009 0.57514 0.0
H1803 H 0.3275 0.93371 0.22072 0.0
H1804 H 0.33198 0.96979 0.30113 0.0
H1805 H 0.37349 0.9332 0.31134 0.0
H1806 H 0.35214 0.86547 0.26326 0.0
H1807 H 0.37064 0.85205 0.22548 0.0
H1808 H 0.34138 0.88139 0.22338 0.0
H1809 H 0.36881 0.90735 0.17919 0.0
H1810 H 0.39823 0.87804 0.18069 0.0
H1811 H 0.39864 0.90898 0.18853 0.0
H1812 H 0.415 0.89169 0.31413 0.0
H1813 H 0.45284 0.85 0.30813 0.0
H1814 H 0.42367 0.84057 0.22482 0.0
C1815 C 0.33718 0.93409 0.24036 0.0
C1816 C 0.32587 0.9552 0.25994 0.0
C1817 C 0.33969 0.95431 0.28547 0.0
C1818 C 0.36352 0.9334 0.29162 0.0
C1819 C 0.37393 0.91299 0.27214 0.0
C1820 C 0.36127 0.91318 0.2469 0.0
C1821 C 0.37662 0.88838 0.23014 0.0
C1822 C 0.35915 0.87079 0.2359 0.0
C1823 C 0.38614 0.89616 0.19239 0.0
C1824 C 0.4002 0.87468 0.24921 0.0
C1825 C 0.39796 0.88912 0.27364 0.0
C1826 C 0.4169 0.88036 0.2949 0.0
C1827 C 0.43858 0.85642 0.29116 0.0
C1828 C 0.44188 0.84101 0.26607 0.0
C1829 C 0.42215 0.85081 0.24474 0.0
H1830 H 0.32417 0.43635 0.71113 0.0
H1831 H 0.32643 0.46077 0.80284 0.0
H1832 H 0.36754 0.42362 0.80963 0.0
H1833 H 0.35001 0.36378 0.74299 0.0
H1834 H 0.36986 0.35494 0.70321 0.0
H1835 H 0.34005 0.38395 0.70415 0.0
H1836 H 0.36767 0.41312 0.66771 0.0
H1837 H 0.39753 0.38416 0.66694 0.0
H1838 H 0.39637 0.41314 0.68178 0.0
H1839 H 0.40878 0.38422 0.80836 0.0
H1840 H 0.44722 0.34408 0.79974 0.0
H1841 H 0.42226 0.34049 0.70939 0.0
C1842 C 0.33309 0.4339 0.73277 0.0
C1843 C 0.32095 0.45239 0.75641 0.0
C1844 C 0.33434 0.44776 0.78397 0.0
C1845 C 0.35811 0.42634 0.78828 0.0
C1846 C 0.36923 0.40872 0.76505 0.0
C1847 C 0.35729 0.41197 0.73782 0.0
C1848 C 0.37404 0.38923 0.71723 0.0
C1849 C 0.3575 0.37195 0.71687 0.0
C1850 C 0.38452 0.40059 0.68126 0.0
C1851 C 0.3972 0.37321 0.73698 0.0
C1852 C 0.39361 0.38512 0.7645 0.0
C1853 C 0.41169 0.37472 0.78689 0.0
C1854 C 0.43381 0.35154 0.78158 0.0
C1855 C 0.43856 0.33804 0.75395 0.0
C1856 C 0.41972 0.34956 0.73104 0.0
H1857 H 0.17605 0.74191 0.57309 0.0
H1858 H 0.17258 0.82323 0.56844 0.0
H1859 H 0.13141 0.83086 0.6107 0.0
H1860 H 0.10336 0.75731 0.58309 0.0
H1861 H 0.10306 0.72712 0.61199 0.0
H1862 H 0.1324 0.72759 0.58103 0.0
H1863 H 0.16085 0.7111 0.6283 0.0
H1864 H 0.13159 0.71089 0.65948 0.0
H1865 H 0.1516 0.72971 0.6626 0.0
H1866 H 0.09013 0.83034 0.65418 0.0
H1867 H 0.05198 0.82175 0.69454 0.0
H1868 H 0.08018 0.74073 0.67356 0.0
C1869 C 0.16651 0.7614 0.58075 0.0
C1870 C 0.17822 0.78187 0.56731 0.0
C1871 C 0.16475 0.80696 0.57844 0.0
C1872 C 0.14107 0.81159 0.60248 0.0
C1873 C 0.13035 0.79107 0.61555 0.0
C1874 C 0.14249 0.76645 0.60499 0.0
C1875 C 0.12651 0.74792 0.62348 0.0
C1876 C 0.1157 0.73948 0.5984 0.0
C1877 C 0.14368 0.72344 0.64472 0.0
C1878 C 0.10366 0.76593 0.64601 0.0
C1879 C 0.10641 0.79075 0.64086 0.0
C1880 C 0.08797 0.81089 0.65842 0.0
C1881 C 0.0663 0.80572 0.68174 0.0
C1882 C 0.06288 0.78044 0.68821 0.0
C1883 C 0.08195 0.76034 0.66958 0.0
H1884 H 0.26662 0.92429 0.30913 0.0
H1885 H 0.21862 0.98483 0.3717 0.0
H1886 H 0.2113 0.94941 0.41862 0.0
H1887 H 0.229 0.87895 0.33996 0.0
H1888 H 0.25809 0.84925 0.339 0.0
H1889 H 0.25908 0.87925 0.31029 0.0
H1890 H 0.30049 0.87716 0.33169 0.0
H1891 H 0.29943 0.84714 0.36049 0.0
H1892 H 0.2989 0.87552 0.3761 0.0
H1893 H 0.20693 0.90709 0.45819 0.0
H1894 H 0.21051 0.86187 0.48937 0.0
H1895 H 0.26444 0.82757 0.40359 0.0
C1896 C 0.25456 0.93018 0.33273 0.0
C1897 C 0.24306 0.95772 0.3364 0.0
C1898 C 0.22769 0.96417 0.36797 0.0
C1899 C 0.22331 0.94407 0.3948 0.0
C1900 C 0.23467 0.91728 0.3902 0.0
C1901 C 0.25038 0.91025 0.36007 0.0
C1902 C 0.26112 0.87987 0.36218 0.0
C1903 C 0.25119 0.87135 0.33632 0.0
C1904 C 0.2918 0.86931 0.35734 0.0
C1905 C 0.24886 0.87086 0.39813 0.0
C1906 C 0.2334 0.89286 0.41361 0.0
C1907 C 0.21936 0.88982 0.44637 0.0
C1908 C 0.22162 0.86389 0.46404 0.0
C1909 C 0.23832 0.84081 0.44965 0.0
C1910 C 0.25171 0.84458 0.41576 0.0
H1911 H 0.01191 0.69895 0.54683 0.0
H1912 H 0.03095 0.65948 0.64576 0.0
H1913 H 0.02656 0.61839 0.63624 0.0
H1914 H 0.9619 0.67077 0.54982 0.0
H1915 H 0.97042 0.66734 0.50589 0.0
H1916 H 0.97649 0.69323 0.51954 0.0
H1917 H 0.02613 0.67584 0.49226 0.0
H1918 H 0.02065 0.64959 0.47856 0.0
H1919 H 0.04575 0.64157 0.50416 0.0
H1920 H 0.02044 0.58155 0.61579 0.0
H1921 H 0.01317 0.55158 0.58548 0.0
H1922 H 0.99521 0.61572 0.50159 0.0
C1923 C 0.01558 0.68147 0.56617 0.0
C1924 C 0.02194 0.6822 0.59692 0.0
C1925 C 0.0261 0.65919 0.62201 0.0
C1926 C 0.02363 0.63583 0.61685 0.0
C1927 C 0.01677 0.63589 0.58655 0.0
C1928 C 0.01282 0.65807 0.5616 0.0
C1929 C 0.0048 0.65309 0.5318 0.0
C1930 C 0.97674 0.67225 0.52647 0.0
C1931 C 0.02556 0.65515 0.49978 0.0
C1932 C 0.00497 0.62465 0.54387 0.0
C1933 C 0.01194 0.61509 0.5755 0.0
C1934 C 0.01431 0.58904 0.59138 0.0
C1935 C 0.00954 0.57231 0.57436 0.0
C1936 C 0.00177 0.58188 0.54235 0.0
C1937 C 0.99986 0.60828 0.52677 0.0
H1938 H 0.32819 0.79387 0.44378 0.0
H1939 H 0.3308 0.71386 0.44207 0.0
H1940 H 0.37383 0.70623 0.4031 0.0
H1941 H 0.35704 0.80716 0.35489 0.0
H1942 H 0.3762 0.82561 0.36154 0.0
H1943 H 0.34567 0.82523 0.38996 0.0
H1944 H 0.37097 0.80801 0.44029 0.0
H1945 H 0.40164 0.8083 0.41214 0.0
H1946 H 0.39981 0.77805 0.4399 0.0
H1947 H 0.41751 0.70624 0.36465 0.0
H1948 H 0.45747 0.71437 0.32867 0.0
H1949 H 0.4282 0.79503 0.35095 0.0
C1950 C 0.33788 0.77466 0.43537 0.0
C1951 C 0.32559 0.75442 0.44649 0.0
C1952 C 0.33924 0.72979 0.43426 0.0
C1953 C 0.36393 0.72523 0.41198 0.0
C1954 C 0.37534 0.74542 0.40148 0.0
C1955 C 0.36276 0.76977 0.41261 0.0
C1956 C 0.37948 0.78815 0.3966 0.0
C1957 C 0.36366 0.81301 0.37443 0.0
C1958 C 0.3885 0.7961 0.42386 0.0
C1959 C 0.40345 0.77021 0.37509 0.0
C1960 C 0.40045 0.74566 0.37848 0.0
C1961 C 0.41978 0.72553 0.36166 0.0
C1962 C 0.4425 0.73046 0.34076 0.0
C1963 C 0.44622 0.75549 0.33578 0.0
C1964 C 0.42627 0.77559 0.35381 0.0
H1965 H 0.23317 0.10675 0.20001 0.0
H1966 H 0.28889 0.04497 0.1434 0.0
H1967 H 0.29648 0.07978 0.09563 0.0
H1968 H 0.20312 0.15149 0.12904 0.0
H1969 H 0.19953 0.18097 0.14483 0.0
H1970 H 0.19899 0.15091 0.17375 0.0
H1971 H 0.23743 0.15307 0.19822 0.0
H1972 H 0.2372 0.1831 0.1689 0.0
H1973 H 0.26772 0.15488 0.17027 0.0
H1974 H 0.29996 0.12239 0.05457 0.0
H1975 H 0.29477 0.1677 0.02186 0.0
H1976 H 0.23309 0.20205 0.10201 0.0
C1977 C 0.24694 0.10047 0.17751 0.0
C1978 C 0.26051 0.07283 0.17576 0.0
C1979 C 0.27818 0.06578 0.14561 0.0
C1980 C 0.28272 0.08554 0.11831 0.0
C1981 C 0.26919 0.11254 0.121 0.0
C1982 C 0.25129 0.11997 0.14971 0.0
C1983 C 0.23863 0.15029 0.1459 0.0
C1984 C 0.20824 0.15887 0.14852 0.0
C1985 C 0.24571 0.16097 0.17237 0.0
C1986 C 0.2519 0.15891 0.11035 0.0
C1987 C 0.26994 0.13679 0.09675 0.0
C1988 C 0.28557 0.1397 0.0649 0.0
C1989 C 0.28249 0.16558 0.04637 0.0
C1990 C 0.26332 0.18851 0.05893 0.0
C1991 C 0.2478 0.18495 0.09148 0.0
H1992 H 0.82439 0.79339 0.94033 0.0
H1993 H 0.83033 0.71072 0.95055 0.0
H1994 H 0.87347 0.70203 0.9113 0.0
H1995 H 0.8523 0.80014 0.85165 0.0
H1996 H 0.87031 0.82124 0.85344 0.0
H1997 H 0.84006 0.82181 0.88303 0.0
H1998 H 0.86466 0.81092 0.93311 0.0
H1999 H 0.8949 0.8113 0.90404 0.0
H2000 H 0.89469 0.78231 0.93546 0.0
H2001 H 0.91733 0.70217 0.87047 0.0
H2002 H 0.95622 0.71129 0.8321 0.0
H2003 H 0.92208 0.79422 0.84607 0.0
C2004 C 0.83483 0.77337 0.93454 0.0
C2005 C 0.82348 0.75278 0.94872 0.0
C2006 C 0.83805 0.727 0.93996 0.0
C2007 C 0.86281 0.72183 0.91769 0.0
C2008 C 0.87328 0.74254 0.90404 0.0
C2009 C 0.85967 0.76784 0.91215 0.0
C2010 C 0.87495 0.78676 0.89323 0.0
C2011 C 0.85836 0.80884 0.86892 0.0
C2012 C 0.88276 0.79852 0.91794 0.0
C2013 C 0.89957 0.76818 0.87379 0.0
C2014 C 0.89811 0.74273 0.8803 0.0
C2015 C 0.91839 0.72213 0.86521 0.0
C2016 C 0.94046 0.72758 0.84301 0.0
C2017 C 0.9424 0.75356 0.83515 0.0
C2018 C 0.92152 0.77406 0.85128 0.0
H2019 H 0.26399 0.56936 0.64336 0.0
H2020 H 0.23021 0.60549 0.73432 0.0
H2021 H 0.22873 0.64905 0.70184 0.0
H2022 H 0.30402 0.61149 0.60129 0.0
H2023 H 0.29644 0.61553 0.55995 0.0
H2024 H 0.29578 0.58592 0.58995 0.0
H2025 H 0.24677 0.59484 0.58463 0.0
H2026 H 0.24837 0.62364 0.55385 0.0
H2027 H 0.22217 0.62719 0.59004 0.0
H2028 H 0.2314 0.68895 0.66174 0.0
H2029 H 0.23556 0.72432 0.61468 0.0
H2030 H 0.2655 0.66701 0.54518 0.0
C2031 C 0.25619 0.58646 0.65635 0.0
C2032 C 0.24799 0.58322 0.69206 0.0
C2033 C 0.2376 0.60657 0.70753 0.0
C2034 C 0.23642 0.63181 0.68914 0.0
C2035 C 0.24513 0.63426 0.65455 0.0
C2036 C 0.25451 0.61247 0.63799 0.0
C2037 C 0.26154 0.62173 0.60012 0.0
C2038 C 0.29122 0.60783 0.58706 0.0
C2039 C 0.2436 0.61653 0.58106 0.0
C2040 C 0.25526 0.65183 0.59839 0.0
C2041 C 0.24581 0.65823 0.63046 0.0
C2042 C 0.23882 0.68418 0.63649 0.0
C2043 C 0.24157 0.70426 0.6093 0.0
C2044 C 0.25138 0.69887 0.57579 0.0
C2045 C 0.25803 0.67206 0.5703 0.0
H2046 H 0.34094 0.99788 0.45989 0.0
H2047 H 0.32448 0.06627 0.37965 0.0
H2048 H 0.35944 0.07902 0.39114 0.0
H2049 H 0.34832 0.03706 0.51475 0.0
H2050 H 0.37399 1.01041 0.53415 0.0
H2051 H 0.34902 1.00309 0.52028 0.0
H2052 H 0.38377 0.97081 0.48334 0.0
H2053 H 0.41018 0.9759 0.49675 0.0
H2054 H 0.40877 0.98131 0.45239 0.0
H2055 H 0.39742 0.08385 0.40973 0.0
H2056 H 0.4352 0.08025 0.43503 0.0
H2057 H 0.424 0.01226 0.50701 0.0
C2058 C 0.34416 0.01579 0.44487 0.0
C2059 C 0.32994 0.03042 0.41811 0.0
C2060 C 0.33551 0.05367 0.3993 0.0
C2061 C 0.35518 0.06152 0.40599 0.0
C2062 C 0.36863 0.04662 0.43241 0.0
C2063 C 0.36308 0.02455 0.45193 0.0
C2064 C 0.37967 0.01278 0.47979 0.0
C2065 C 0.36164 0.01599 0.51429 0.0
C2066 C 0.39663 0.98343 0.47791 0.0
C2067 C 0.39674 0.03058 0.47147 0.0
C2068 C 0.38969 0.05023 0.4443 0.0
C2069 C 0.40304 0.06858 0.43111 0.0
C2070 C 0.42466 0.06629 0.44545 0.0
C2071 C 0.43297 0.04579 0.47249 0.0
C2072 C 0.41812 0.02828 0.48642 0.0
H2073 H 0.83643 0.89726 0.99018 0.0
H2074 H 0.83657 0.83199 0.07354 0.0
H2075 H 0.87803 0.83241 0.08451 0.0
H2076 H 0.91302 0.88371 0.97064 0.0
H2077 H 0.90725 0.91905 0.96415 0.0
H2078 H 0.88456 0.90696 0.95255 0.0
H2079 H 0.84466 0.93694 0.99018 0.0
H2080 H 0.86742 0.9492 1.00041 0.0
H2081 H 0.84659 0.93455 0.03375 0.0
H2082 H 0.91258 0.84563 0.09606 0.0
H2083 H 0.9329 0.87362 0.11127 0.0
H2084 H 0.90504 0.93532 0.028 0.0
C2085 C 0.84543 0.88263 0.01027 0.0
C2086 C 0.83296 0.86446 0.03052 0.0
C2087 C 0.84576 0.84561 0.0565 0.0
C2088 C 0.86957 0.84567 0.06314 0.0
C2089 C 0.88038 0.8649 0.04406 0.0
C2090 C 0.86869 0.88315 0.01813 0.0
C2091 C 0.88035 0.90552 0.0068 0.0
C2092 C 0.89731 0.90369 0.97144 0.0
C2093 C 0.85844 0.93314 0.00796 0.0
C2094 C 0.89789 0.89864 0.03311 0.0
C2095 C 0.89905 0.87422 0.05281 0.0
C2096 C 0.91208 0.86466 0.08056 0.0
C2097 C 0.92317 0.88096 0.08938 0.0
C2098 C 0.92019 0.90706 0.07136 0.0
C2099 C 0.90829 0.9154 0.04206 0.0
H2100 H 0.66545 0.17899 0.47161 0.0
H2101 H 0.68652 0.12724 0.56434 0.0
H2102 H 0.65082 0.10908 0.56784 0.0
H2103 H 0.58884 0.18396 0.49214 0.0
H2104 H 0.59036 0.18372 0.44827 0.0
H2105 H 0.60875 0.20061 0.46023 0.0
H2106 H 0.65204 0.17284 0.4255 0.0
H2107 H 0.63413 0.15564 0.41396 0.0
H2108 H 0.66254 0.13685 0.43467 0.0
H2109 H 0.62641 0.08618 0.55153 0.0
H2110 H 0.61363 0.0624 0.51807 0.0
H2111 H 0.60716 0.12835 0.43582 0.0
C2112 C 0.66136 0.16505 0.49371 0.0
C2113 C 0.67858 0.15446 0.51772 0.0
C2114 C 0.67349 0.13551 0.54569 0.0
C2115 C 0.65307 0.12531 0.54801 0.0
C2116 C 0.63778 0.13451 0.52236 0.0
C2117 C 0.64118 0.15457 0.49608 0.0
C2118 C 0.6264 0.15704 0.46824 0.0
C2119 C 0.60214 0.18286 0.46718 0.0
C2120 C 0.64491 0.15545 0.43362 0.0
C2121 C 0.61756 0.13286 0.48067 0.0
C2122 C 0.62314 0.12091 0.51269 0.0
C2123 C 0.62104 0.09586 0.52706 0.0
C2124 C 0.61413 0.08231 0.50784 0.0
C2125 C 0.60947 0.09381 0.47475 0.0
C2126 C 0.61008 0.11972 0.46152 0.0
H2127 H 0.83527 0.44613 0.20828 0.0
H2128 H 0.82977 0.46354 0.30746 0.0
H2129 H 0.8698 0.42474 0.31601 0.0
H2130 H 0.85892 0.37264 0.23218 0.0
H2131 H 0.88106 0.36719 0.19258 0.0
H2132 H 0.85135 0.39621 0.19445 0.0
H2133 H 0.88089 0.4258 0.1672 0.0
H2134 H 0.9105 0.3966 0.16649 0.0
H2135 H 0.90773 0.4233 0.18726 0.0
H2136 H 0.91014 0.38421 0.31538 0.0
H2137 H 0.94855 0.34425 0.30602 0.0
H2138 H 0.93181 0.35034 0.20642 0.0
C2139 C 0.84228 0.44178 0.23188 0.0
C2140 C 0.82865 0.45857 0.25712 0.0
C2141 C 0.8393 0.45169 0.28739 0.0
C2142 C 0.86224 0.4294 0.29266 0.0
C2143 C 0.87499 0.41351 0.26755 0.0
C2144 C 0.86553 0.41924 0.23769 0.0
C2145 C 0.88362 0.39841 0.21509 0.0
C2146 C 0.86778 0.38268 0.20818 0.0
C2147 C 0.89644 0.41184 0.18204 0.0
C2148 C 0.90472 0.38036 0.23689 0.0
C2149 C 0.89894 0.38965 0.26708 0.0
C2150 C 0.9148 0.37679 0.2918 0.0
C2151 C 0.93691 0.35379 0.286 0.0
C2152 C 0.94384 0.34312 0.25547 0.0
C2153 C 0.92735 0.35713 0.23033 0.0
H2154 H 0.10374 0.63846 0.41755 0.0
H2155 H 0.0925 0.5854 0.51059 0.0
H2156 H 0.1055 0.6113 0.54055 0.0
H2157 H 0.15793 0.64154 0.42006 0.0
H2158 H 0.15382 0.67633 0.40491 0.0
H2159 H 0.13298 0.66194 0.39432 0.0
H2160 H 0.09063 0.69735 0.4201 0.0
H2161 H 0.11148 0.7124 0.43039 0.0
H2162 H 0.08696 0.70229 0.46277 0.0
H2163 H 0.13599 0.62973 0.55349 0.0
H2164 H 0.17561 0.64236 0.54948 0.0
H2165 H 0.16491 0.68659 0.44977 0.0
C2166 C 0.1023 0.63361 0.44466 0.0
C2167 C 0.09754 0.60997 0.46175 0.0
C2168 C 0.09641 0.60334 0.497 0.0
C2169 C 0.10354 0.61818 0.5143 0.0
C2170 C 0.11085 0.64004 0.49607 0.0
C2171 C 0.10908 0.64852 0.46217 0.0
C2172 C 0.12257 0.66922 0.44682 0.0
C2173 C 0.14304 0.66175 0.41472 0.0
C2174 C 0.10166 0.69696 0.43961 0.0
C2175 C 0.13587 0.66776 0.47559 0.0
C2176 C 0.12795 0.65178 0.50434 0.0
C2177 C 0.14145 0.64323 0.53174 0.0
C2178 C 0.16411 0.65025 0.52917 0.0
C2179 C 0.17302 0.66562 0.49938 0.0
C2180 C 0.15791 0.67555 0.47317 0.0
H2181 H 0.67063 0.08721 0.81345 0.0
H2182 H 0.68644 0.07911 0.70772 0.0
H2183 H 0.64736 0.11815 0.69799 0.0
H2184 H 0.59749 0.1091 0.82249 0.0
H2185 H 0.59074 0.13332 0.84932 0.0
H2186 H 0.62075 0.10454 0.84946 0.0
H2187 H 0.64981 0.13519 0.8348 0.0
H2188 H 0.61945 0.1635 0.83629 0.0
H2189 H 0.64489 0.16165 0.79917 0.0
H2190 H 0.60685 0.15867 0.69723 0.0
H2191 H 0.56649 0.19726 0.70634 0.0
H2192 H 0.57111 0.18158 0.81289 0.0
C2193 C 0.6659 0.0936 0.78826 0.0
C2194 C 0.68248 0.07908 0.76156 0.0
C2195 C 0.67483 0.08886 0.72913 0.0
C2196 C 0.65234 0.11147 0.72305 0.0
C2197 C 0.63664 0.12505 0.74946 0.0
C2198 C 0.64283 0.11658 0.78155 0.0
C2199 C 0.62164 0.13532 0.80507 0.0
C2200 C 0.60677 0.11963 0.83327 0.0
C2201 C 0.63474 0.14978 0.81969 0.0
C2202 C 0.60277 0.15521 0.78114 0.0
C2203 C 0.61231 0.14874 0.74914 0.0
C2204 C 0.5992 0.16381 0.72229 0.0
C2205 C 0.5759 0.18595 0.7279 0.0
C2206 C 0.56482 0.19355 0.76034 0.0
C2207 C 0.57877 0.17744 0.78747 0.0
H2208 H 0.74571 0.61417 0.20989 0.0
H2209 H 0.79349 0.55371 0.14711 0.0
H2210 H 0.79754 0.58915 0.09879 0.0
H2211 H 0.70933 0.66145 0.14516 0.0
H2212 H 0.70898 0.6903 0.15956 0.0
H2213 H 0.70997 0.66003 0.18888 0.0
H2214 H 0.75256 0.65998 0.20573 0.0
H2215 H 0.75126 0.69011 0.17628 0.0
H2216 H 0.78111 0.66122 0.17361 0.0
H2217 H 0.7977 0.63133 0.05712 0.0
H2218 H 0.79147 0.67647 0.02446 0.0
H2219 H 0.74144 0.71093 0.11218 0.0
C2220 C 0.75709 0.60834 0.18599 0.0
C2221 C 0.76946 0.58083 0.18264 0.0
C2222 C 0.78388 0.57439 0.15066 0.0
C2223 C 0.78633 0.59449 0.12295 0.0
C2224 C 0.77407 0.62128 0.12713 0.0
C2225 C 0.75948 0.62827 0.15778 0.0
C2226 C 0.74791 0.65864 0.15521 0.0
C2227 C 0.71722 0.66815 0.16263 0.0
C2228 C 0.75892 0.66802 0.17911 0.0
C2229 C 0.75824 0.66767 0.11831 0.0
C2230 C 0.77346 0.64566 0.10277 0.0
C2231 C 0.78554 0.64863 0.06902 0.0
C2232 C 0.7817 0.67451 0.05048 0.0
C2233 C 0.76552 0.69759 0.06514 0.0
C2234 C 0.7539 0.69391 0.09988 0.0
H2235 H 0.92036 0.55722 0.47076 0.0
H2236 H 0.97627 0.47644 0.47582 0.0
H2237 H 0.94488 0.46207 0.45776 0.0
H2238 H 0.85867 0.54067 0.50018 0.0
H2239 H 0.84052 0.56711 0.47079 0.0
H2240 H 0.86701 0.57083 0.48586 0.0
H2241 H 0.89032 0.58017 0.42428 0.0
H2242 H 0.8641 0.57614 0.40897 0.0
H2243 H 0.89838 0.55616 0.39669 0.0
H2244 H 0.90837 0.45655 0.43733 0.0
H2245 H 0.86704 0.45901 0.4205 0.0
H2246 H 0.83404 0.54365 0.42635 0.0
C2247 C 0.92534 0.53629 0.46954 0.0
C2248 C 0.95042 0.51765 0.47599 0.0
C2249 C 0.95701 0.49083 0.47197 0.0
C2250 C 0.93928 0.48253 0.46149 0.0
C2251 C 0.91484 0.5013 0.45504 0.0
C2252 C 0.9077 0.52762 0.45903 0.0
C2253 C 0.8807 0.54391 0.44855 0.0
C2254 C 0.86052 0.55636 0.47812 0.0
C2255 C 0.88355 0.56537 0.41781 0.0
C2256 C 0.87344 0.52242 0.43928 0.0
C2257 C 0.89367 0.4981 0.44282 0.0
C2258 C 0.89201 0.47525 0.43543 0.0
C2259 C 0.86858 0.4769 0.42562 0.0
C2260 C 0.84727 0.50144 0.42234 0.0
C2261 C 0.85 0.52462 0.42867 0.0
H2262 H 0.16224 0.49512 0.61813 0.0
H2263 H 0.17604 0.55885 0.5383 0.0
H2264 H 0.14337 0.55588 0.5102 0.0
H2265 H 0.14633 0.45786 0.57052 0.0
H2266 H 0.1186 0.45258 0.60147 0.0
H2267 H 0.14582 0.4566 0.61456 0.0
H2268 H 0.11265 0.49576 0.64479 0.0
H2269 H 0.08535 0.49162 0.63211 0.0
H2270 H 0.09017 0.5236 0.62155 0.0
H2271 H 0.11086 0.54498 0.4888 0.0
H2272 H 0.06976 0.53814 0.4837 0.0
H2273 H 0.07229 0.48522 0.57879 0.0
C2274 C 0.15855 0.50875 0.59495 0.0
C2275 C 0.17363 0.52617 0.58 0.0
C2276 C 0.16687 0.5438 0.54975 0.0
C2277 C 0.14775 0.54266 0.53353 0.0
C2278 C 0.13421 0.52474 0.54836 0.0
C2279 C 0.13846 0.50886 0.57903 0.0
C2280 C 0.11868 0.49369 0.59111 0.0
C2281 C 0.13324 0.46338 0.59462 0.0
C2282 C 0.10064 0.50165 0.62436 0.0
C2283 C 0.10291 0.50358 0.56222 0.0
C2284 C 0.11283 0.52087 0.53757 0.0
C2285 C 0.10214 0.53233 0.50822 0.0
C2286 C 0.07947 0.52767 0.50484 0.0
C2287 C 0.06832 0.51078 0.5298 0.0
C2288 C 0.0805 0.4982 0.55885 0.0
H2289 H 0.59445 0.75235 0.20723 0.0
H2290 H 0.53324 0.81647 0.15865 0.0
H2291 H 0.56802 0.82484 0.11098 0.0
H2292 H 0.64781 0.78095 0.18049 0.0
H2293 H 0.67326 0.74929 0.17389 0.0
H2294 H 0.64347 0.75034 0.2045 0.0
H2295 H 0.63598 0.7179 0.17435 0.0
H2296 H 0.66493 0.71809 0.14261 0.0
H2297 H 0.63286 0.72727 0.13043 0.0
H2298 H 0.61057 0.82766 0.06921 0.0
H2299 H 0.65549 0.82102 0.03416 0.0
H2300 H 0.68891 0.75181 0.10607 0.0
C2301 C 0.58831 0.76815 0.18651 0.0
C2302 C 0.56083 0.78382 0.18693 0.0
C2303 C 0.5539 0.80411 0.15907 0.0
C2304 C 0.57366 0.80909 0.1319 0.0
C2305 C 0.60048 0.79334 0.1323 0.0
C2306 C 0.60775 0.77292 0.15869 0.0
C2307 C 0.63776 0.75783 0.15205 0.0
C2308 C 0.65137 0.75974 0.17936 0.0
C2309 C 0.64319 0.72853 0.14973 0.0
C2310 C 0.64636 0.77309 0.11797 0.0
C2311 C 0.62457 0.79381 0.10733 0.0
C2312 C 0.62762 0.81131 0.07726 0.0
C2313 C 0.65328 0.80745 0.05745 0.0
C2314 C 0.6758 0.7859 0.06709 0.0
C2315 C 0.67212 0.76849 0.09788 0.0
H2316 H 0.69224 0.48368 0.05957 0.0
H2317 H 0.65672 0.50734 0.1582 0.0
H2318 H 0.61205 0.51585 0.14612 0.0
H2319 H 0.64644 0.52753 0.01376 0.0
H2320 H 0.64392 0.50558 0.98912 0.0
H2321 H 0.67443 0.49852 1.00417 0.0
H2322 H 0.67507 0.45238 0.0354 0.0
H2323 H 0.64609 0.45689 0.01831 0.0
H2324 H 0.64557 0.4481 0.06315 0.0
H2325 H 0.57094 0.52399 0.12187 0.0
H2326 H 0.53721 0.52855 0.08855 0.0
H2327 H 0.59977 0.49562 0.00853 0.0
C2328 C 0.67529 0.49007 0.07915 0.0
C2329 C 0.67832 0.495 0.10984 0.0
C2330 C 0.65516 0.50401 0.13413 0.0
C2331 C 0.62963 0.50865 0.12766 0.0
C2332 C 0.62755 0.50369 0.09708 0.0
C2333 C 0.64982 0.49411 0.07352 0.0
C2334 C 0.64229 0.48984 0.04288 0.0
C2335 C 0.6523 0.5064 0.01058 0.0
C2336 C 0.65288 0.46003 0.03978 0.0
C2337 C 0.61215 0.49978 0.05214 0.0
C2338 C 0.60404 0.50734 0.08372 0.0
C2339 C 0.57711 0.51747 0.09753 0.0
C2340 C 0.55804 0.51957 0.07877 0.0
C2341 C 0.56595 0.51118 0.04695 0.0
C2342 C 0.59332 0.50156 0.03325 0.0
H2343 H 0.36635 0.45467 0.03943 0.0
H2344 H 0.44247 0.40603 0.06963 0.0
H2345 H 0.4395 0.3671 0.0523 0.0
H2346 H 0.33315 0.41595 0.07053 0.0
H2347 H 0.31482 0.4212 0.03724 0.0
H2348 H 0.32717 0.44641 0.0404 0.0
H2349 H 0.35258 0.4452 0.97924 0.0
H2350 H 0.34026 0.41976 0.97567 0.0
H2351 H 0.37564 0.41409 0.96687 0.0
H2352 H 0.422 0.33249 0.04982 0.0
H2353 H 0.39193 0.30599 0.06149 0.0
H2354 H 0.32815 0.37656 0.02952 0.0
C2355 C 0.38282 0.43605 0.04106 0.0
C2356 C 0.40449 0.43314 0.05594 0.0
C2357 C 0.42571 0.40855 0.05812 0.0
C2358 C 0.4243 0.38645 0.04801 0.0
C2359 C 0.40196 0.38959 0.03479 0.0
C2360 C 0.38191 0.41407 0.03034 0.0
C2361 C 0.35816 0.4115 0.02064 0.0
C2362 C 0.33183 0.42448 0.04363 0.0
C2363 C 0.35658 0.42332 0.98339 0.0
C2364 C 0.36607 0.38143 0.02594 0.0
C2365 C 0.39203 0.36912 0.0322 0.0
C2366 C 0.40213 0.34173 0.04358 0.0
C2367 C 0.38497 0.32682 0.05029 0.0
C2368 C 0.35814 0.33949 0.04575 0.0
C2369 C 0.34895 0.36667 0.03205 0.0
H2370 H 0.07843 0.18831 0.30212 0.0
H2371 H 0.05815 0.19365 0.20501 0.0
H2372 H 0.09515 0.15207 0.1962 0.0
H2373 H 0.15154 0.16412 0.27028 0.0
H2374 H 0.15984 0.14247 0.30905 0.0
H2375 H 0.13128 0.17233 0.31006 0.0
H2376 H 0.10048 0.14583 0.3428 0.0
H2377 H 0.12896 0.11559 0.34305 0.0
H2378 H 0.1004 0.118 0.32649 0.0
H2379 H 0.13486 0.10862 0.19739 0.0
H2380 H 0.17469 0.06941 0.20723 0.0
H2381 H 0.17249 0.0922 0.30177 0.0
C2382 C 0.08188 0.18139 0.27864 0.0
C2383 C 0.06457 0.19529 0.2544 0.0
C2384 C 0.0703 0.18403 0.22452 0.0
C2385 C 0.0916 0.16015 0.21905 0.0
C2386 C 0.10809 0.14727 0.24322 0.0
C2387 C 0.10383 0.15771 0.27221 0.0
C2388 C 0.12547 0.14019 0.29338 0.0
C2389 C 0.14308 0.15573 0.29577 0.0
C2390 C 0.11307 0.12925 0.32852 0.0
C2391 C 0.14167 0.11783 0.27259 0.0
C2392 C 0.13137 0.12251 0.24355 0.0
C2393 C 0.14304 0.10498 0.22007 0.0
C2394 C 0.16583 0.08249 0.22605 0.0
C2395 C 0.17739 0.07717 0.25534 0.0
C2396 C 0.16471 0.09533 0.27898 0.0
H2397 H 0.27696 0.33546 0.93306 0.0
H2398 H 0.19193 0.35082 0.9651 0.0
H2399 H 0.18286 0.39506 0.92887 0.0
H2400 H 0.27736 0.4029 0.92429 0.0
H2401 H 0.30176 0.40099 0.88616 0.0
H2402 H 0.30186 0.37115 0.91603 0.0
H2403 H 0.29841 0.34907 0.86928 0.0
H2404 H 0.29835 0.3788 0.83923 0.0
H2405 H 0.27159 0.36562 0.84537 0.0
H2406 H 0.18283 0.4392 0.89041 0.0
H2407 H 0.19174 0.47676 0.84849 0.0
H2408 H 0.27633 0.43161 0.83481 0.0
C2409 C 0.25642 0.34818 0.93259 0.0
C2410 C 0.23512 0.33949 0.95256 0.0
C2411 C 0.20861 0.35681 0.95048 0.0
C2412 C 0.20326 0.38212 0.92988 0.0
C2413 C 0.22457 0.39 0.91047 0.0
C2414 C 0.25067 0.37332 0.91112 0.0
C2415 C 0.26981 0.38606 0.88604 0.0
C2416 C 0.28882 0.39054 0.90422 0.0
C2417 C 0.28546 0.36887 0.85833 0.0
C2418 C 0.25046 0.41264 0.87171 0.0
C2419 C 0.22446 0.41461 0.88657 0.0
C2420 C 0.20313 0.43766 0.87853 0.0
C2421 C 0.20835 0.45904 0.85473 0.0
C2422 C 0.23463 0.45732 0.83827 0.0
C2423 C 0.25596 0.43362 0.84692 0.0
H2424 H 0.34796 0.22336 0.96004 0.0
H2425 H 0.29175 0.29332 0.911 0.0
H2426 H 0.32828 0.30125 0.86761 0.0
H2427 H 0.40328 0.24934 0.94277 0.0
H2428 H 0.42902 0.21857 0.9332 0.0
H2429 H 0.39865 0.21781 0.96179 0.0
H2430 H 0.39068 0.19004 0.92499 0.0
H2431 H 0.42107 0.19069 0.89638 0.0
H2432 H 0.38998 0.20256 0.8808 0.0
H2433 H 0.36958 0.30256 0.82893 0.0
H2434 H 0.41413 0.29627 0.7952 0.0
H2435 H 0.44718 0.22529 0.86552 0.0
C2436 C 0.34346 0.24048 0.94036 0.0
C2437 C 0.31657 0.25777 0.93939 0.0
C2438 C 0.31178 0.27965 0.91268 0.0
C2439 C 0.33256 0.28447 0.88776 0.0
C2440 C 0.35856 0.26723 0.88924 0.0
C2441 C 0.3643 0.24554 0.91457 0.0
C2442 C 0.39433 0.22983 0.90866 0.0
C2443 C 0.40707 0.22883 0.93839 0.0
C2444 C 0.39931 0.2016 0.90235 0.0
C2445 C 0.40439 0.24653 0.8767 0.0
C2446 C 0.38308 0.26789 0.86613 0.0
C2447 C 0.38643 0.28598 0.83707 0.0
C2448 C 0.41203 0.28219 0.818 0.0
C2449 C 0.43457 0.26048 0.82761 0.0
C2450 C 0.43062 0.24243 0.85774 0.0
H2451 H 0.4399 0.50677 0.99403 0.0
H2452 H 0.44754 0.5761 0.92229 0.0
H2453 H 0.40882 0.57854 0.89896 0.0
H2454 H 0.42295 0.47528 0.94318 0.0
H2455 H 0.39846 0.46467 0.97487 0.0
H2456 H 0.42556 0.4695 0.98707 0.0
H2457 H 0.39154 0.50441 0.0252 0.0
H2458 H 0.36479 0.49802 0.0141 0.0
H2459 H 0.3654 0.53149 0.0074 0.0
H2460 H 0.36828 0.57342 0.885 0.0
H2461 H 0.33169 0.56021 0.87872 0.0
H2462 H 0.35353 0.49166 0.95733 0.0
C2463 C 0.43314 0.52271 0.97386 0.0
C2464 C 0.44653 0.54133 0.95991 0.0
C2465 C 0.43753 0.56159 0.933 0.0
C2466 C 0.41551 0.56318 0.91981 0.0
C2467 C 0.4028 0.54431 0.934 0.0
C2468 C 0.41127 0.52453 0.9605 0.0
C2469 C 0.39433 0.50664 0.97118 0.0
C2470 C 0.41135 0.47727 0.96898 0.0
C2471 C 0.37807 0.51026 0.00659 0.0
C2472 C 0.37612 0.51825 0.94523 0.0
C2473 C 0.38065 0.54053 0.92476 0.0
C2474 C 0.36496 0.55567 0.90048 0.0
C2475 C 0.34431 0.54769 0.89687 0.0
C2476 C 0.33982 0.52424 0.9168 0.0
C2477 C 0.35607 0.50957 0.94145 0.0
H2478 H 0.66242 0.67396 0.96655 0.0
H2479 H 0.67631 0.63068 0.06587 0.0
H2480 H 0.64214 0.61059 0.06834 0.0
H2481 H 0.58715 0.6793 0.98033 0.0
H2482 H 0.59158 0.6749 0.93727 0.0
H2483 H 0.60934 0.69298 0.94813 0.0
H2484 H 0.6542 0.6613 0.92086 0.0
H2485 H 0.63666 0.6435 0.90983 0.0
H2486 H 0.66276 0.62575 0.93471 0.0
H2487 H 0.61513 0.58749 0.05483 0.0
H2488 H 0.6043 0.56009 0.02418 0.0
H2489 H 0.61014 0.61635 0.93267 0.0
C2490 C 0.65726 0.66132 0.9895 0.0
C2491 C 0.67188 0.654 0.01605 0.0
C2492 C 0.66535 0.63655 0.04519 0.0
C2493 C 0.64569 0.62532 0.04697 0.0
C2494 C 0.6325 0.63191 0.01956 0.0
C2495 C 0.63792 0.64977 0.99141 0.0
C2496 C 0.62529 0.64961 0.96275 0.0
C2497 C 0.60195 0.67575 0.95678 0.0
C2498 C 0.64598 0.6447 0.93019 0.0
C2499 C 0.61511 0.62642 0.97747 0.0
C2500 C 0.61776 0.61764 0.01104 0.0
C2501 C 0.61256 0.59451 0.02878 0.0
C2502 C 0.60652 0.57896 0.0112 0.0
C2503 C 0.60685 0.58614 0.97611 0.0
C2504 C 0.60942 0.6109 0.95965 0.0
H2505 H 0.92362 0.84358 0.80003 0.0
H2506 H 0.95498 0.84674 0.69317 0.0
H2507 H 0.91954 0.89023 0.68175 0.0
H2508 H 0.85532 0.87047 0.79047 0.0
H2509 H 0.84268 0.89113 0.82289 0.0
H2510 H 0.87142 0.86149 0.82685 0.0
H2511 H 0.90109 0.88587 0.8325 0.0
H2512 H 0.8725 0.91604 0.83251 0.0
H2513 H 0.90274 0.91536 0.80284 0.0
H2514 H 0.88017 0.93502 0.68178 0.0
H2515 H 0.83923 0.97354 0.69256 0.0
H2516 H 0.83048 0.94154 0.79909 0.0
C2517 C 0.92325 0.85351 0.77419 0.0
C2518 C 0.94271 0.84128 0.74751 0.0
C2519 C 0.94073 0.8552 0.71418 0.0
C2520 C 0.92054 0.88017 0.70744 0.0
C2521 C 0.90182 0.89158 0.73414 0.0
C2522 C 0.90287 0.87856 0.76691 0.0
C2523 C 0.87943 0.89467 0.79077 0.0
C2524 C 0.8611 0.87842 0.80881 0.0
C2525 C 0.88955 0.90351 0.81617 0.0
C2526 C 0.86513 0.91878 0.7666 0.0
C2527 C 0.87861 0.91666 0.73401 0.0
C2528 C 0.86951 0.93654 0.70727 0.0
C2529 C 0.84605 0.95858 0.71371 0.0
C2530 C 0.83091 0.96097 0.74665 0.0
C2531 C 0.84119 0.94071 0.77353 0.0
H2532 H 0.48077 0.1851 0.60448 0.0
H2533 H 0.56245 0.17658 0.55494 0.0
H2534 H 0.56431 0.13858 0.53113 0.0
H2535 H 0.49351 0.112 0.62551 0.0
H2536 H 0.46063 0.11551 0.62008 0.0
H2537 H 0.46581 0.14176 0.63418 0.0
H2538 H 0.445 0.17559 0.58467 0.0
H2539 H 0.44008 0.14943 0.57016 0.0
H2540 H 0.45887 0.16924 0.54208 0.0
H2541 H 0.55774 0.10127 0.51316 0.0
H2542 H 0.54302 0.06725 0.50107 0.0
H2543 H 0.46578 0.09947 0.56175 0.0
C2544 C 0.49929 0.17502 0.5892 0.0
C2545 C 0.52131 0.1844 0.58134 0.0
C2546 C 0.54498 0.17052 0.56078 0.0
C2547 C 0.5464 0.14861 0.54737 0.0
C2548 C 0.52423 0.1403 0.55517 0.0
C2549 C 0.50124 0.1528 0.57597 0.0
C2550 C 0.48033 0.13966 0.58042 0.0
C2551 C 0.47474 0.12646 0.61723 0.0
C2552 C 0.45455 0.15969 0.56861 0.0
C2553 C 0.49468 0.11879 0.55746 0.0
C2554 C 0.52014 0.11923 0.54369 0.0
C2555 C 0.53765 0.10118 0.52282 0.0
C2556 C 0.5289 0.08233 0.51544 0.0
C2557 C 0.5027 0.08194 0.52841 0.0
C2558 C 0.48556 0.10012 0.55025 0.0
H2559 H 0.50944 0.36931 0.88747 0.0
H2560 H 0.54914 0.30949 0.96502 0.0
H2561 H 0.55055 0.34451 0.99104 0.0
H2562 H 0.53903 0.41776 0.87897 0.0
H2563 H 0.50873 0.44626 0.87792 0.0
H2564 H 0.51105 0.41628 0.86471 0.0
H2565 H 0.46813 0.41536 0.90829 0.0
H2566 H 0.46686 0.44527 0.92093 0.0
H2567 H 0.4673 0.41592 0.95192 0.0
H2568 H 0.5575 0.38401 1.00083 0.0
H2569 H 0.55421 0.42865 0.00847 0.0
H2570 H 0.49951 0.46525 0.9369 0.0
C2571 C 0.51794 0.36362 0.91025 0.0
C2572 C 0.53089 0.33632 0.92264 0.0
C2573 C 0.54082 0.33002 0.95336 0.0
C2574 C 0.54152 0.34981 0.96872 0.0
C2575 C 0.53069 0.37622 0.95451 0.0
C2576 C 0.51759 0.38345 0.92731 0.0
C2577 C 0.50588 0.41381 0.91936 0.0
C2578 C 0.51687 0.42412 0.88309 0.0
C2579 C 0.47521 0.42311 0.92552 0.0
C2580 C 0.51596 0.42205 0.94508 0.0
C2581 C 0.53078 0.39982 0.96442 0.0
C2582 C 0.54495 0.4017 0.98704 0.0
C2583 C 0.54303 0.42708 0.99119 0.0
C2584 C 0.52601 0.45021 0.97419 0.0
C2585 C 0.51237 0.44773 0.95062 0.0
H2586 H 0.53422 0.84924 0.41794 0.0
H2587 H 0.44798 0.87942 0.42553 0.0
H2588 H 0.44657 0.92147 0.43954 0.0
H2589 H 0.53957 0.87503 0.48513 0.0
H2590 H 0.56773 0.8856 0.46418 0.0
H2591 H 0.56311 0.85832 0.45184 0.0
H2592 H 0.5638 0.88264 0.39017 0.0
H2593 H 0.56895 0.90978 0.4022 0.0
H2594 H 0.5413 0.91627 0.38137 0.0
H2595 H 0.45285 0.95617 0.46186 0.0
H2596 H 0.46761 0.98811 0.4783 0.0
H2597 H 0.55004 0.93947 0.45137 0.0
C2598 C 0.51505 0.86471 0.4226 0.0
C2599 C 0.49106 0.86069 0.4217 0.0
C2600 C 0.46647 0.88164 0.42723 0.0
C2601 C 0.46543 0.90553 0.4353 0.0
C2602 C 0.48905 0.90815 0.43823 0.0
C2603 C 0.51355 0.88885 0.43094 0.0
C2604 C 0.5359 0.8978 0.43441 0.0
C2605 C 0.55256 0.878 0.46045 0.0
C2606 C 0.55353 0.90187 0.39999 0.0
C2607 C 0.51985 0.92432 0.44678 0.0
C2608 C 0.49288 0.92965 0.44884 0.0
C2609 C 0.47381 0.95224 0.46062 0.0
C2610 C 0.48236 0.97021 0.47012 0.0
C2611 C 0.50977 0.96603 0.46687 0.0
C2612 C 0.52886 0.9428 0.45486 0.0
H2613 H 0.50751 0.57404 0.07066 0.0
H2614 H 0.48362 0.61868 0.97577 0.0
H2615 H 0.48945 0.65814 0.9874 0.0
H2616 H 0.46895 0.62596 0.11657 0.0
H2617 H 0.49192 0.61992 0.14463 0.0
H2618 H 0.4921 0.59287 0.12695 0.0
H2619 H 0.54179 0.58177 0.10216 0.0
H2620 H 0.54282 0.60836 0.12014 0.0
H2621 H 0.55392 0.60748 0.07564 0.0
H2622 H 0.49697 0.69239 0.00854 0.0
H2623 H 0.49066 0.72471 0.04489 0.0
H2624 H 0.50282 0.66116 0.13059 0.0
C2625 C 0.50336 0.59222 0.05253 0.0
C2626 C 0.49638 0.5931 0.02147 0.0
C2627 C 0.49069 0.6172 0.99856 0.0
C2628 C 0.49385 0.6397 1.00509 0.0
C2629 C 0.50203 0.63793 0.03513 0.0
C2630 C 0.50568 0.61522 0.05916 0.0
C2631 C 0.51039 0.62015 0.09141 0.0
C2632 C 0.48954 0.61444 0.12165 0.0
C2633 C 0.53893 0.60345 0.0977 0.0
C2634 C 0.50689 0.64971 0.08239 0.0
C2635 C 0.50374 0.65893 0.04907 0.0
C2636 C 0.49927 0.68553 0.03469 0.0
C2637 C 0.49578 0.7037 0.05548 0.0
C2638 C 0.49595 0.69534 0.09043 0.0
C2639 C 0.50291 0.66786 0.10384 0.0
loop_
_geom_bond_atom_site_label_1
_geom_bond_atom_site_label_2
_geom_bond_distance
_geom_bond_site_symmetry_2
_ccdc_geom_bond_type
Tb0 N29 2.617 . S
Tb0 N35 2.572 1_655 S
Tb0 O44 2.465 . S
Tb0 O45 2.387 1_655 S
Tb0 O47 2.428 . S
Tb0 O48 2.308 1_654 S
Tb0 O52 2.349 1_564 S
Tb0 O55 2.393 1_565 S
Tb0 C64 2.802 . S
C1 N2 1.379 . S
C1 C4 1.416 . S
C1 C8 1.416 1_455 S
N2 C1 1.379 . S
N2 C5 1.334 . S
N2 Tb11 2.617 . S
C3 C5 1.390 . S
C3 C6 1.339 . S
C3 H23 0.930 1_545 S
C4 C1 1.416 . S
C4 C6 1.416 . S
C4 C10 1.448 1_455 S
C5 N2 1.334 . S
C5 C3 1.390 . S
C5 H16 0.930 1_545 S
C6 C3 1.339 . S
C6 C4 1.416 . S
C6 H27 0.930 . S
C7 C8 1.431 . S
C7 C9 1.427 . S
C7 C13 1.416 . S
C8 C1 1.416 1_655 S
C8 C7 1.431 . S
C8 N12 1.349 1_655 S
C9 C7 1.427 . S
C9 C10 1.328 . S
C9 H24 0.929 . S
C10 C4 1.448 1_655 S
C10 C9 1.328 . S
C10 H25 0.930 . S
Tb11 N2 2.617 . S
Tb11 N12 2.576 . S
Tb11 O46 2.349 1_556 S
Tb11 O49 2.393 1_545 S
Tb11 O50 2.465 . S
Tb11 O51 2.387 1_455 S
Tb11 O53 2.428 . S
Tb11 O54 2.308 1_456 S
Tb11 C75 2.802 . S
N12 C8 1.349 1_455 S
N12 Tb11 2.576 . S
N12 C14 1.337 1_455 S
C13 C7 1.416 . S
C13 C15 1.332 . S
C13 H21 0.931 . S
C14 N12 1.337 1_655 S
C14 C15 1.407 . S
C14 H20 0.930 . S
C15 C13 1.332 . S
C15 C14 1.407 . S
C15 H17 0.929 . S
H16 C5 0.930 1_565 S
H17 C15 0.929 . S
H18 C33 0.930 . S
H19 C40 0.929 . S
H20 C14 0.930 . S
H21 C13 0.931 . S
H22 C36 0.930 . S
H23 C3 0.930 1_565 S
H24 C9 0.929 . S
H25 C10 0.930 . S
H26 C31 0.930 . S
H27 C6 0.930 . S
H28 C39 0.931 . S
N29 Tb0 2.617 . S
N29 C30 1.379 . S
N29 C33 1.334 1_565 S
C30 N29 1.379 . S
C30 C32 1.416 . S
C30 C38 1.424 1_655 S
C31 H26 0.930 . S
C31 C33 1.390 . S
C31 C34 1.339 1_545 S
C32 C30 1.416 . S
C32 C34 1.416 . S
C32 C65 1.448 1_655 S
C33 H18 0.930 . S
C33 N29 1.334 1_545 S
C33 C31 1.390 . S
C34 C31 1.339 1_565 S
C34 C32 1.416 . S
C34 H41 0.930 . S
N35 Tb0 2.572 1_455 S
N35 C36 1.340 . S
N35 C38 1.361 . S
C36 H22 0.930 . S
C36 N35 1.340 . S
C36 C40 1.407 . S
C37 C38 1.413 . S
C37 C39 1.416 . S
C37 C66 1.427 . S
C38 C30 1.424 1_455 S
C38 N35 1.361 . S
C38 C37 1.413 . S
C39 H28 0.931 . S
C39 C37 1.416 . S
C39 C40 1.332 . S
C40 H19 0.929 . S
C40 C36 1.407 . S
C40 C39 1.332 . S
H41 C34 0.930 . S
H42 C65 0.930 . S
H43 C66 0.929 . S
O44 Tb0 2.465 . S
O44 C64 1.264 . S
O45 Tb0 2.387 1_455 S
O45 C56 1.264 . S
O46 Tb11 2.349 1_554 S
O46 C56 1.243 1_545 S
O47 Tb0 2.428 . S
O47 C64 1.256 . S
O48 Tb0 2.308 1_456 S
O48 C63 1.266 . S
O49 Tb11 2.393 1_565 S
O49 C63 1.248 . S
O50 Tb11 2.465 . S
O50 C75 1.264 . S
O51 Tb11 2.387 1_655 S
O51 C67 1.264 . S
O52 Tb0 2.349 1_546 S
O52 C67 1.243 . S
O53 Tb11 2.428 . S
O53 C75 1.256 . S
O54 Tb11 2.308 1_654 S
O54 C74 1.266 . S
O55 Tb0 2.393 1_545 S
O55 C74 1.248 . S
C56 O45 1.264 . S
C56 O46 1.243 1_565 S
C57 C60 1.399 . S
C57 C62 1.383 . S
C57 C64 1.496 . S
C58 C59 1.399 . S
C58 C62 1.389 . S
C59 C58 1.399 . S
C59 C61 1.380 . S
C59 H76 0.929 . S
C60 C57 1.399 . S
C60 C61 1.392 . S
C60 H77 0.929 . S
C61 C59 1.380 . S
C61 C60 1.392 . S
C61 H78 0.929 . S
C62 C57 1.383 . S
C62 C58 1.389 . S
C62 H79 0.931 . S
C63 O48 1.266 . S
C63 O49 1.248 . S
C64 Tb0 2.802 . S
C64 O44 1.264 . S
C64 O47 1.256 . S
C64 C57 1.496 . S
C65 C32 1.448 1_455 S
C65 H42 0.930 . S
C65 C66 1.328 . S
C66 C37 1.427 . S
C66 H43 0.929 . S
C66 C65 1.328 . S
C67 O51 1.264 . S
C67 O52 1.243 . S
C68 C71 1.399 . S
C68 C72 1.383 . S
C68 C75 1.496 . S
C69 C70 1.399 . S
C69 C72 1.389 . S
C70 C69 1.399 . S
C70 C73 1.380 . S
C70 H80 0.929 . S
C71 C68 1.399 . S
C71 C73 1.392 . S
C71 H81 0.929 . S
C72 C68 1.383 . S
C72 C69 1.389 . S
C72 H82 0.931 . S
C73 C70 1.380 . S
C73 C71 1.392 . S
C73 H83 0.929 . S
C74 O54 1.266 . S
C74 O55 1.248 . S
C75 Tb11 2.802 . S
C75 O50 1.264 . S
C75 O53 1.256 . S
C75 C68 1.496 . S
H76 C59 0.929 . S
H77 C60 0.929 . S
H78 C61 0.929 . S
H79 C62 0.931 . S
H80 C70 0.929 . S
H81 C71 0.929 . S
H82 C72 0.931 . S
H83 C73 0.929 . S
Tb84 N113 2.617 . S
Tb84 N119 2.572 . S
Tb84 O128 2.465 1_655 S
Tb84 O129 2.387 . S
Tb84 O131 2.428 . S
Tb84 O132 2.308 1_655 S
Tb84 O136 2.349 1_655 S
Tb84 O139 2.393 . S
Tb84 C148 2.802 . S
C85 N86 1.379 . S
C85 C88 1.416 . S
C85 C92 1.424 . S
N86 C85 1.379 . S
N86 C89 1.334 . S
N86 Tb95 2.617 . S
C87 C89 1.390 . S
C87 C90 1.339 . S
C87 H107 0.930 . S
C88 C85 1.416 . S
C88 C90 1.416 . S
C88 C94 1.448 . S
C89 N86 1.334 . S
C89 C87 1.390 . S
C89 H100 0.930 . S
C90 C87 1.339 . S
C90 C88 1.416 . S
C90 H111 0.930 . S
C91 C92 1.413 . S
C91 C93 1.427 . S
C91 C97 1.416 . S
C92 C85 1.424 . S
C92 C91 1.413 . S
C92 N96 1.361 . S
C93 C91 1.427 . S
C93 C94 1.328 . S
C93 H108 0.929 . S
C94 C88 1.448 . S
C94 C93 1.328 . S
C94 H109 0.930 . S
Tb95 N86 2.617 . S
Tb95 N96 2.572 . S
Tb95 O130 2.349 1_455 S
Tb95 O133 2.393 . S
Tb95 O134 2.465 . S
Tb95 O135 2.387 . S
Tb95 O137 2.428 . S
Tb95 O138 2.308 1_455 S
Tb95 C159 2.802 . S
N96 C92 1.361 . S
N96 Tb95 2.572 . S
N96 C98 1.340 . S
C97 C91 1.416 . S
C97 C99 1.332 . S
C97 H105 0.931 . S
C98 N96 1.340 . S
C98 C99 1.407 . S
C98 H104 0.930 . S
C99 C97 1.332 . S
C99 C98 1.407 . S
C99 H101 0.929 . S
H100 C89 0.930 . S
H101 C99 0.929 . S
H102 C117 0.930 . S
H103 C124 0.929 . S
H104 C98 0.930 . S
H105 C97 0.931 . S
H106 C120 0.930 . S
H107 C87 0.930 . S
H108 C93 0.929 . S
H109 C94 0.930 . S
H110 C115 0.930 . S
H111 C90 0.930 . S
H112 C123 0.931 . S
N113 Tb84 2.617 . S
N113 C114 1.379 . S
N113 C117 1.334 . S
C114 N113 1.379 . S
C114 C116 1.416 . S
C114 C122 1.424 . S
C115 H110 0.930 . S
C115 C117 1.390 . S
C115 C118 1.339 . S
C116 C114 1.416 . S
C116 C118 1.416 . S
C116 C149 1.448 . S
C117 H102 0.930 . S
C117 N113 1.334 . S
C117 C115 1.390 . S
C118 C115 1.339 . S
C118 C116 1.416 . S
C118 H125 0.930 . S
N119 Tb84 2.572 . S
N119 C120 1.340 . S
N119 C122 1.361 . S
C120 H106 0.930 . S
C120 N119 1.340 . S
C120 C124 1.407 . S
C121 C122 1.413 . S
C121 C123 1.416 . S
C121 C150 1.427 . S
C122 C114 1.424 . S
C122 N119 1.361 . S
C122 C121 1.413 . S
C123 H112 0.931 . S
C123 C121 1.416 . S
C123 C124 1.332 . S
C124 H103 0.929 . S
C124 C120 1.407 . S
C124 C123 1.332 . S
H125 C118 0.930 . S
H126 C149 0.930 . S
H127 C150 0.929 . S
O128 Tb84 2.465 1_455 S
O128 C148 1.264 1_455 S
O129 Tb84 2.387 . S
O129 C140 1.264 . S
O130 Tb95 2.349 1_655 S
O130 C140 1.243 . S
O131 Tb84 2.428 . S
O131 C148 1.256 . S
O132 Tb84 2.308 1_455 S
O132 C147 1.266 . S
O133 Tb95 2.393 . S
O133 C147 1.248 . S
O134 Tb95 2.465 . S
O134 C159 1.265 . S
O135 Tb95 2.387 . S
O135 C151 1.264 . S
O136 Tb84 2.349 1_455 S
O136 C151 1.243 . S
O137 Tb95 2.428 . S
O137 C159 1.256 . S
O138 Tb95 2.308 1_655 S
O138 C158 1.266 . S
O139 Tb84 2.393 . S
O139 C158 1.248 . S
C140 O129 1.264 . S
C140 O130 1.243 . S
C141 C144 1.422 . S
C141 C146 1.368 1_655 S
C141 C148 1.491 . S
C142 C143 1.399 . S
C142 C146 1.389 . S
C143 C142 1.399 . S
C143 C145 1.380 1_455 S
C143 H160 0.929 . S
C144 C141 1.422 . S
C144 C145 1.392 . S
C144 H161 0.929 . S
C145 C143 1.380 1_655 S
C145 C144 1.392 . S
C145 H162 0.929 . S
C146 C141 1.368 1_455 S
C146 C142 1.389 . S
C146 H163 0.931 . S
C147 O132 1.266 . S
C147 O133 1.248 . S
C148 Tb84 2.802 . S
C148 O128 1.264 1_655 S
C148 O131 1.256 . S
C148 C141 1.491 . S
C149 C116 1.448 . S
C149 H126 0.930 . S
C149 C150 1.328 . S
C150 C121 1.427 . S
C150 H127 0.929 . S
C150 C149 1.328 . S
C151 O135 1.264 . S
C151 O136 1.243 . S
C152 C155 1.399 . S
C152 C156 1.383 1_455 S
C152 C159 1.496 . S
C153 C154 1.414 . S
C153 C156 1.389 . S
C154 C153 1.414 . S
C154 C157 1.370 1_655 S
C154 H164 0.925 . S
C155 C152 1.399 . S
C155 C157 1.392 . S
C155 H165 0.929 . S
C156 C152 1.383 1_655 S
C156 C153 1.389 . S
C156 H166 0.931 . S
C157 C154 1.370 1_455 S
C157 C155 1.392 . S
C157 H167 0.929 . S
C158 O138 1.266 . S
C158 O139 1.248 . S
C159 Tb95 2.802 . S
C159 O134 1.265 . S
C159 O137 1.256 . S
C159 C152 1.496 . S
H160 C143 0.929 . S
H161 C144 0.929 . S
H162 C145 0.929 . S
H163 C146 0.931 . S
H164 C154 0.925 . S
H165 C155 0.929 . S
H166 C156 0.931 . S
H167 C157 0.929 . S
Tb168 N197 2.617 . S
Tb168 N203 2.572 . S
Tb168 O212 2.465 . S
Tb168 O213 2.387 . S
Tb168 O215 2.428 . S
Tb168 O216 2.308 . S
Tb168 O220 2.349 . S
Tb168 O223 2.393 . S
Tb168 C232 2.802 . S
C169 N170 1.379 . S
C169 C172 1.416 . S
C169 C176 1.424 . S
N170 C169 1.379 . S
N170 C173 1.334 . S
N170 Tb179 2.617 . S
C171 C173 1.390 . S
C171 C174 1.339 . S
C171 H191 0.930 . S
C172 C169 1.416 . S
C172 C174 1.416 . S
C172 C178 1.448 . S
C173 N170 1.334 . S
C173 C171 1.390 . S
C173 H184 0.930 . S
C174 C171 1.339 . S
C174 C172 1.416 . S
C174 H195 0.930 . S
C175 C176 1.413 . S
C175 C177 1.427 . S
C175 C181 1.416 . S
C176 C169 1.424 . S
C176 C175 1.413 . S
C176 N180 1.361 . S
C177 C175 1.427 . S
C177 C178 1.328 . S
C177 H192 0.929 . S
C178 C172 1.448 . S
C178 C177 1.328 . S
C178 H193 0.930 . S
Tb179 N170 2.617 . S
Tb179 N180 2.572 . S
Tb179 O214 2.349 . S
Tb179 O217 2.393 . S
Tb179 O218 2.465 . S
Tb179 O219 2.387 . S
Tb179 O221 2.428 . S
Tb179 O222 2.308 . S
Tb179 C243 2.802 . S
N180 C176 1.361 . S
N180 Tb179 2.572 . S
N180 C182 1.340 . S
C181 C175 1.416 . S
C181 C183 1.332 . S
C181 H189 0.931 . S
C182 N180 1.340 . S
C182 C183 1.407 . S
C182 H188 0.930 . S
C183 C181 1.332 . S
C183 C182 1.407 . S
C183 H185 0.929 . S
H184 C173 0.930 . S
H185 C183 0.929 . S
H186 C201 0.930 . S
H187 C208 0.929 . S
H188 C182 0.930 . S
H189 C181 0.931 . S
H190 C204 0.930 . S
H191 C171 0.930 . S
H192 C177 0.929 . S
H193 C178 0.930 . S
H194 C199 0.930 . S
H195 C174 0.930 . S
H196 C207 0.931 . S
N197 Tb168 2.617 . S
N197 C198 1.379 . S
N197 C201 1.334 . S
C198 N197 1.379 . S
C198 C200 1.416 . S
C198 C206 1.424 . S
C199 H194 0.930 . S
C199 C201 1.390 . S
C199 C202 1.339 . S
C200 C198 1.416 . S
C200 C202 1.416 . S
C200 C233 1.448 . S
C201 H186 0.930 . S
C201 N197 1.334 . S
C201 C199 1.390 . S
C202 C199 1.339 . S
C202 C200 1.416 . S
C202 H209 0.930 . S
N203 Tb168 2.572 . S
N203 C204 1.340 . S
N203 C206 1.361 . S
C204 H190 0.930 . S
C204 N203 1.340 . S
C204 C208 1.407 . S
C205 C206 1.413 . S
C205 C207 1.416 . S
C205 C234 1.427 . S
C206 C198 1.424 . S
C206 N203 1.361 . S
C206 C205 1.413 . S
C207 H196 0.931 . S
C207 C205 1.416 . S
C207 C208 1.332 . S
C208 H187 0.929 . S
C208 C204 1.407 . S
C208 C207 1.332 . S
H209 C202 0.930 . S
H210 C233 0.930 . S
H211 C234 0.929 . S
O212 Tb168 2.465 . S
O212 C232 1.264 . S
O213 Tb168 2.387 . S
O213 C224 1.264 . S
O214 Tb179 2.349 . S
O214 C224 1.243 . S
O215 Tb168 2.428 . S
O215 C232 1.256 . S
O216 Tb168 2.308 . S
O216 C231 1.266 . S
O217 Tb179 2.393 . S
O217 C231 1.248 . S
O218 Tb179 2.465 . S
O218 C243 1.264 . S
O219 Tb179 2.387 . S
O219 C235 1.264 . S
O220 Tb168 2.349 . S
O220 C235 1.243 . S
O221 Tb179 2.428 . S
O221 C243 1.256 . S
O222 Tb179 2.308 . S
O222 C242 1.266 . S
O223 Tb168 2.393 . S
O223 C242 1.248 . S
C224 O213 1.264 . S
C224 O214 1.243 . S
C225 C228 1.399 . S
C225 C230 1.383 . S
C225 C232 1.496 . S
C226 C227 1.399 . S
C226 C230 1.389 . S
C227 C226 1.399 . S
C227 C229 1.380 . S
C227 H244 0.929 . S
C228 C225 1.399 . S
C228 C229 1.392 . S
C228 H245 0.929 . S
C229 C227 1.380 . S
C229 C228 1.392 . S
C229 H246 0.929 . S
C230 C225 1.383 . S
C230 C226 1.389 . S
C230 H247 0.931 . S
C231 O216 1.266 . S
C231 O217 1.248 . S
C232 Tb168 2.802 . S
C232 O212 1.264 . S
C232 O215 1.256 . S
C232 C225 1.496 . S
C233 C200 1.448 . S
C233 H210 0.930 . S
C233 C234 1.328 . S
C234 C205 1.427 . S
C234 H211 0.929 . S
C234 C233 1.328 . S
C235 O219 1.264 . S
C235 O220 1.243 . S
C236 C239 1.399 . S
C236 C240 1.383 . S
C236 C243 1.496 . S
C237 C238 1.399 . S
C237 C240 1.389 . S
C238 C237 1.399 . S
C238 C241 1.380 . S
C238 H248 0.929 . S
C239 C236 1.399 . S
C239 C241 1.392 . S
C239 H249 0.929 . S
C240 C236 1.383 . S
C240 C237 1.389 . S
C240 H250 0.931 . S
C241 C238 1.380 . S
C241 C239 1.392 . S
C241 H251 0.929 . S
C242 O222 1.266 . S
C242 O223 1.248 . S
C243 Tb179 2.802 . S
C243 O218 1.264 . S
C243 O221 1.256 . S
C243 C236 1.496 . S
H244 C227 0.929 . S
H245 C228 0.929 . S
H246 C229 0.929 . S
H247 C230 0.931 . S
H248 C238 0.929 . S
H249 C239 0.929 . S
H250 C240 0.931 . S
H251 C241 0.929 . S
Tb252 N281 2.617 . S
Tb252 N287 2.572 . S
Tb252 O296 2.465 . S
Tb252 O297 2.387 . S
Tb252 O299 2.428 . S
Tb252 O300 2.308 1_545 S
Tb252 O304 2.349 1_545 S
Tb252 O307 2.393 . S
Tb252 C316 2.802 . S
C253 N254 1.379 . S
C253 C256 1.416 . S
C253 C260 1.424 . S
N254 C253 1.379 . S
N254 C257 1.334 . S
N254 Tb263 2.617 . S
C255 C257 1.390 . S
C255 C258 1.339 . S
C255 H275 0.930 . S
C256 C253 1.416 . S
C256 C258 1.416 . S
C256 C262 1.448 . S
C257 N254 1.334 . S
C257 C255 1.390 . S
C257 H268 0.930 . S
C258 C255 1.339 . S
C258 C256 1.416 . S
C258 H279 0.930 . S
C259 C260 1.413 . S
C259 C261 1.427 . S
C259 C265 1.416 . S
C260 C253 1.424 . S
C260 C259 1.413 . S
C260 N264 1.361 . S
C261 C259 1.427 . S
C261 C262 1.328 . S
C261 H276 0.929 . S
C262 C256 1.448 . S
C262 C261 1.328 . S
C262 H277 0.930 . S
Tb263 N254 2.617 . S
Tb263 N264 2.572 . S
Tb263 O298 2.349 1_565 S
Tb263 O301 2.393 . S
Tb263 O302 2.465 1_565 S
Tb263 O303 2.387 . S
Tb263 O305 2.428 . S
Tb263 O306 2.308 1_565 S
Tb263 C327 2.802 . S
N264 C260 1.361 . S
N264 Tb263 2.572 . S
N264 C266 1.340 . S
C265 C259 1.416 . S
C265 C267 1.332 . S
C265 H273 0.931 . S
C266 N264 1.340 . S
C266 C267 1.407 . S
C266 H272 0.930 . S
C267 C265 1.332 . S
C267 C266 1.407 . S
C267 H269 0.929 . S
H268 C257 0.930 . S
H269 C267 0.929 . S
H270 C285 0.930 . S
H271 C292 0.929 . S
H272 C266 0.930 . S
H273 C265 0.931 . S
H274 C288 0.930 . S
H275 C255 0.930 . S
H276 C261 0.929 . S
H277 C262 0.930 . S
H278 C283 0.930 . S
H279 C258 0.930 . S
H280 C291 0.931 . S
N281 Tb252 2.617 . S
N281 C282 1.379 . S
N281 C285 1.334 . S
C282 N281 1.379 . S
C282 C284 1.416 . S
C282 C290 1.424 . S
C283 H278 0.930 . S
C283 C285 1.390 . S
C283 C286 1.339 . S
C284 C282 1.416 . S
C284 C286 1.416 . S
C284 C317 1.448 . S
C285 H270 0.930 . S
C285 N281 1.334 . S
C285 C283 1.390 . S
C286 C283 1.339 . S
C286 C284 1.416 . S
C286 H293 0.930 . S
N287 Tb252 2.572 . S
N287 C288 1.340 . S
N287 C290 1.361 . S
C288 H274 0.930 . S
C288 N287 1.340 . S
C288 C292 1.407 . S
C289 C290 1.413 . S
C289 C291 1.416 . S
C289 C318 1.427 . S
C290 C282 1.424 . S
C290 N287 1.361 . S
C290 C289 1.413 . S
C291 H280 0.931 . S
C291 C289 1.416 . S
C291 C292 1.332 . S
C292 H271 0.929 . S
C292 C288 1.407 . S
C292 C291 1.332 . S
H293 C286 0.930 . S
H294 C317 0.930 . S
H295 C318 0.929 . S
O296 Tb252 2.465 . S
O296 C316 1.264 . S
O297 Tb252 2.387 . S
O297 C308 1.264 . S
O298 Tb263 2.349 1_545 S
O298 C308 1.243 . S
O299 Tb252 2.428 . S
O299 C316 1.256 . S
O300 Tb252 2.308 1_565 S
O300 C315 1.266 . S
O301 Tb263 2.393 . S
O301 C315 1.248 . S
O302 Tb263 2.465 1_545 S
O302 C327 1.264 1_545 S
O303 Tb263 2.387 . S
O303 C319 1.264 . S
O304 Tb252 2.349 1_565 S
O304 C319 1.243 . S
O305 Tb263 2.428 . S
O305 C327 1.256 . S
O306 Tb263 2.308 1_545 S
O306 C326 1.266 . S
O307 Tb252 2.393 . S
O307 C326 1.248 . S
C308 O297 1.264 . S
C308 O298 1.243 . S
C309 C312 1.399 . S
C309 C314 1.383 1_545 S
C309 C316 1.496 . S
C310 C311 1.399 1_565 S
C310 C314 1.389 . S
C311 C310 1.399 1_545 S
C311 C313 1.380 . S
C311 H328 0.922 . S
C312 C309 1.399 . S
C312 C313 1.392 . S
C312 H329 0.929 . S
C313 C311 1.380 . S
C313 C312 1.392 . S
C313 H330 0.929 . S
C314 C309 1.383 1_565 S
C314 C310 1.389 . S
C314 H331 0.931 . S
C315 O300 1.266 . S
C315 O301 1.248 . S
C316 Tb252 2.802 . S
C316 O296 1.264 . S
C316 O299 1.256 . S
C316 C309 1.496 . S
C317 C284 1.448 . S
C317 H294 0.930 . S
C317 C318 1.328 . S
C318 C289 1.427 . S
C318 H295 0.929 . S
C318 C317 1.328 . S
C319 O303 1.264 . S
C319 O304 1.243 . S
C320 C323 1.399 1_545 S
C320 C324 1.383 . S
C320 C327 1.496 1_545 S
C321 C322 1.399 . S
C321 C324 1.389 . S
C322 C321 1.399 . S
C322 C325 1.380 1_545 S
C322 H332 0.929 . S
C323 C320 1.399 1_565 S
C323 C325 1.392 . S
C323 H333 0.929 . S
C324 C320 1.383 . S
C324 C321 1.389 . S
C324 H334 0.931 . S
C325 C322 1.380 1_565 S
C325 C323 1.392 . S
C325 H335 0.929 . S
C326 O306 1.266 . S
C326 O307 1.248 . S
C327 Tb263 2.802 . S
C327 O302 1.264 1_565 S
C327 O305 1.256 . S
C327 C320 1.496 1_565 S
H328 C311 0.922 . S
H329 C312 0.929 . S
H330 C313 0.929 . S
H331 C314 0.931 . S
H332 C322 0.929 . S
H333 C323 0.929 . S
H334 C324 0.931 . S
H335 C325 0.929 . S
Tb336 N365 2.617 . S
Tb336 N371 2.572 . S
Tb336 O380 2.465 . S
Tb336 O381 2.387 . S
Tb336 O383 2.428 . S
Tb336 O384 2.308 . S
Tb336 O388 2.349 . S
Tb336 O391 2.393 . S
Tb336 C400 2.802 . S
C337 N338 1.379 . S
C337 C340 1.416 . S
C337 C344 1.424 . S
N338 C337 1.379 . S
N338 C341 1.334 . S
N338 Tb347 2.617 . S
C339 C341 1.390 . S
C339 C342 1.339 . S
C339 H359 0.930 . S
C340 C337 1.416 . S
C340 C342 1.416 . S
C340 C346 1.448 . S
C341 N338 1.334 . S
C341 C339 1.390 . S
C341 H352 0.930 . S
C342 C339 1.339 . S
C342 C340 1.416 . S
C342 H363 0.930 . S
C343 C344 1.413 . S
C343 C345 1.427 . S
C343 C349 1.416 . S
C344 C337 1.424 . S
C344 C343 1.413 . S
C344 N348 1.361 . S
C345 C343 1.427 . S
C345 C346 1.328 . S
C345 H360 0.929 . S
C346 C340 1.448 . S
C346 C345 1.328 . S
C346 H361 0.930 . S
Tb347 N338 2.617 . S
Tb347 N348 2.572 . S
Tb347 O382 2.349 . S
Tb347 O385 2.393 . S
Tb347 O386 2.465 . S
Tb347 O387 2.387 . S
Tb347 O389 2.428 . S
Tb347 O390 2.308 . S
Tb347 C411 2.802 . S
N348 C344 1.361 . S
N348 Tb347 2.572 . S
N348 C350 1.340 . S
C349 C343 1.416 . S
C349 C351 1.332 . S
C349 H357 0.931 . S
C350 N348 1.340 . S
C350 C351 1.407 . S
C350 H356 0.930 . S
C351 C349 1.332 . S
C351 C350 1.407 . S
C351 H353 0.929 . S
H352 C341 0.930 . S
H353 C351 0.929 . S
H354 C369 0.930 . S
H355 C376 0.929 . S
H356 C350 0.930 . S
H357 C349 0.931 . S
H358 C372 0.930 . S
H359 C339 0.930 . S
H360 C345 0.929 . S
H361 C346 0.930 . S
H362 C367 0.930 . S
H363 C342 0.930 . S
H364 C375 0.931 . S
N365 Tb336 2.617 . S
N365 C366 1.379 . S
N365 C369 1.334 . S
C366 N365 1.379 . S
C366 C368 1.416 . S
C366 C374 1.424 . S
C367 H362 0.930 . S
C367 C369 1.390 . S
C367 C370 1.339 . S
C368 C366 1.416 . S
C368 C370 1.416 . S
C368 C401 1.448 . S
C369 H354 0.930 . S
C369 N365 1.334 . S
C369 C367 1.390 . S
C370 C367 1.339 . S
C370 C368 1.416 . S
C370 H377 0.930 . S
N371 Tb336 2.572 . S
N371 C372 1.340 . S
N371 C374 1.361 . S
C372 H358 0.930 . S
C372 N371 1.340 . S
C372 C376 1.407 . S
C373 C374 1.413 . S
C373 C375 1.416 . S
C373 C402 1.427 . S
C374 C366 1.424 . S
C374 N371 1.361 . S
C374 C373 1.413 . S
C375 H364 0.931 . S
C375 C373 1.416 . S
C375 C376 1.332 . S
C376 H355 0.929 . S
C376 C372 1.407 . S
C376 C375 1.332 . S
H377 C370 0.930 . S
H378 C401 0.930 . S
H379 C402 0.929 . S
O380 Tb336 2.465 . S
O380 C400 1.264 . S
O381 Tb336 2.387 . S
O381 C392 1.264 . S
O382 Tb347 2.349 . S
O382 C392 1.243 . S
O383 Tb336 2.428 . S
O383 C400 1.256 . S
O384 Tb336 2.308 . S
O384 C399 1.266 . S
O385 Tb347 2.393 . S
O385 C399 1.248 . S
O386 Tb347 2.465 . S
O386 C411 1.264 . S
O387 Tb347 2.387 . S
O387 C403 1.264 . S
O388 Tb336 2.349 . S
O388 C403 1.243 . S
O389 Tb347 2.428 . S
O389 C411 1.256 . S
O390 Tb347 2.308 . S
O390 C410 1.266 . S
O391 Tb336 2.393 . S
O391 C410 1.248 . S
C392 O381 1.264 . S
C392 O382 1.243 . S
C393 C396 1.399 . S
C393 C398 1.383 . S
C393 C400 1.496 . S
C394 C395 1.399 . S
C394 C398 1.389 . S
C395 C394 1.399 . S
C395 C397 1.380 . S
C395 H412 0.929 . S
C396 C393 1.399 . S
C396 C397 1.392 . S
C396 H413 0.929 . S
C397 C395 1.380 . S
C397 C396 1.392 . S
C397 H414 0.929 . S
C398 C393 1.383 . S
C398 C394 1.389 . S
C398 H415 0.931 . S
C399 O384 1.266 . S
C399 O385 1.248 . S
C400 Tb336 2.802 . S
C400 O380 1.264 . S
C400 O383 1.256 . S
C400 C393 1.496 . S
C401 C368 1.448 . S
C401 H378 0.930 . S
C401 C402 1.328 . S
C402 C373 1.427 . S
C402 H379 0.929 . S
C402 C401 1.328 . S
C403 O387 1.264 . S
C403 O388 1.243 . S
C404 C407 1.399 . S
C404 C408 1.383 . S
C404 C411 1.496 . S
C405 C406 1.399 . S
C405 C408 1.389 . S
C406 C405 1.399 . S
C406 C409 1.380 . S
C406 H416 0.929 . S
C407 C404 1.399 . S
C407 C409 1.392 . S
C407 H417 0.929 . S
C408 C404 1.383 . S
C408 C405 1.389 . S
C408 H418 0.931 . S
C409 C406 1.380 . S
C409 C407 1.392 . S
C409 H419 0.929 . S
C410 O390 1.266 . S
C410 O391 1.248 . S
C411 Tb347 2.802 . S
C411 O386 1.264 . S
C411 O389 1.256 . S
C411 C404 1.496 . S
H412 C395 0.929 . S
H413 C396 0.929 . S
H414 C397 0.929 . S
H415 C398 0.931 . S
H416 C406 0.929 . S
H417 C407 0.929 . S
H418 C408 0.931 . S
H419 C409 0.929 . S
Tb420 N449 2.617 . S
Tb420 N455 2.572 . S
Tb420 O464 2.465 . S
Tb420 O465 2.387 . S
Tb420 O467 2.428 . S
Tb420 O468 2.308 . S
Tb420 O472 2.349 . S
Tb420 O475 2.393 . S
Tb420 C484 2.802 . S
C421 N422 1.379 . S
C421 C424 1.416 . S
C421 C428 1.424 . S
N422 C421 1.379 . S
N422 C425 1.334 . S
N422 Tb431 2.617 . S
C423 C425 1.390 . S
C423 C426 1.339 . S
C423 H443 0.930 . S
C424 C421 1.416 . S
C424 C426 1.416 . S
C424 C430 1.448 . S
C425 N422 1.334 . S
C425 C423 1.390 . S
C425 H436 0.930 . S
C426 C423 1.339 . S
C426 C424 1.416 . S
C426 H447 0.930 . S
C427 C428 1.413 . S
C427 C429 1.427 . S
C427 C433 1.416 . S
C428 C421 1.424 . S
C428 C427 1.413 . S
C428 N432 1.361 . S
C429 C427 1.427 . S
C429 C430 1.328 . S
C429 H444 0.929 . S
C430 C424 1.448 . S
C430 C429 1.328 . S
C430 H445 0.930 . S
Tb431 N422 2.617 . S
Tb431 N432 2.572 . S
Tb431 O466 2.349 . S
Tb431 O469 2.393 . S
Tb431 O470 2.465 . S
Tb431 O471 2.387 . S
Tb431 O473 2.428 . S
Tb431 O474 2.308 . S
Tb431 C495 2.802 . S
N432 C428 1.361 . S
N432 Tb431 2.572 . S
N432 C434 1.340 . S
C433 C427 1.416 . S
C433 C435 1.332 . S
C433 H441 0.931 . S
C434 N432 1.340 . S
C434 C435 1.407 . S
C434 H440 0.930 . S
C435 C433 1.332 . S
C435 C434 1.407 . S
C435 H437 0.929 . S
H436 C425 0.930 . S
H437 C435 0.929 . S
H438 C453 0.930 . S
H439 C460 0.929 . S
H440 C434 0.930 . S
H441 C433 0.931 . S
H442 C456 0.930 . S
H443 C423 0.930 . S
H444 C429 0.929 . S
H445 C430 0.930 . S
H446 C451 0.930 . S
H447 C426 0.930 . S
H448 C459 0.931 . S
N449 Tb420 2.617 . S
N449 C450 1.379 . S
N449 C453 1.334 . S
C450 N449 1.379 . S
C450 C452 1.416 . S
C450 C458 1.424 . S
C451 H446 0.930 . S
C451 C453 1.390 . S
C451 C454 1.339 . S
C452 C450 1.416 . S
C452 C454 1.416 . S
C452 C485 1.448 . S
C453 H438 0.930 . S
C453 N449 1.334 . S
C453 C451 1.390 . S
C454 C451 1.339 . S
C454 C452 1.416 . S
C454 H461 0.930 . S
N455 Tb420 2.572 . S
N455 C456 1.340 . S
N455 C458 1.361 . S
C456 H442 0.930 . S
C456 N455 1.340 . S
C456 C460 1.407 . S
C457 C458 1.413 . S
C457 C459 1.416 . S
C457 C486 1.427 . S
C458 C450 1.424 . S
C458 N455 1.361 . S
C458 C457 1.413 . S
C459 H448 0.931 . S
C459 C457 1.416 . S
C459 C460 1.332 . S
C460 H439 0.929 . S
C460 C456 1.407 . S
C460 C459 1.332 . S
H461 C454 0.930 . S
H462 C485 0.930 . S
H463 C486 0.929 . S
O464 Tb420 2.465 . S
O464 C484 1.264 . S
O465 Tb420 2.387 . S
O465 C476 1.264 . S
O466 Tb431 2.349 . S
O466 C476 1.243 . S
O467 Tb420 2.428 . S
O467 C484 1.256 . S
O468 Tb420 2.308 . S
O468 C483 1.266 . S
O469 Tb431 2.393 . S
O469 C483 1.248 . S
O470 Tb431 2.465 . S
O470 C495 1.264 . S
O471 Tb431 2.387 . S
O471 C487 1.264 . S
O472 Tb420 2.349 . S
O472 C487 1.243 . S
O473 Tb431 2.428 . S
O473 C495 1.256 . S
O474 Tb431 2.308 . S
O474 C494 1.266 . S
O475 Tb420 2.393 . S
O475 C494 1.248 . S
C476 O465 1.264 . S
C476 O466 1.243 . S
C477 C480 1.399 . S
C477 C482 1.383 . S
C477 C484 1.496 . S
C478 C479 1.399 . S
C478 C482 1.389 . S
C479 C478 1.399 . S
C479 C481 1.380 . S
C479 H496 0.929 . S
C480 C477 1.399 . S
C480 C481 1.392 . S
C480 H497 0.929 . S
C481 C479 1.380 . S
C481 C480 1.392 . S
C481 H498 0.929 . S
C482 C477 1.383 . S
C482 C478 1.389 . S
C482 H499 0.931 . S
C483 O468 1.266 . S
C483 O469 1.248 . S
C484 Tb420 2.802 . S
C484 O464 1.264 . S
C484 O467 1.256 . S
C484 C477 1.496 . S
C485 C452 1.448 . S
C485 H462 0.930 . S
C485 C486 1.328 . S
C486 C457 1.427 . S
C486 H463 0.929 . S
C486 C485 1.328 . S
C487 O471 1.264 . S
C487 O472 1.243 . S
C488 C491 1.399 . S
C488 C492 1.383 . S
C488 C495 1.496 . S
C489 C490 1.399 . S
C489 C492 1.389 . S
C490 C489 1.399 . S
C490 C493 1.380 . S
C490 H500 0.929 . S
C491 C488 1.399 . S
C491 C493 1.392 . S
C491 H501 0.929 . S
C492 C488 1.383 . S
C492 C489 1.389 . S
C492 H502 0.931 . S
C493 C490 1.380 . S
C493 C491 1.392 . S
C493 H503 0.929 . S
C494 O474 1.266 . S
C494 O475 1.248 . S
C495 Tb431 2.802 . S
C495 O470 1.264 . S
C495 O473 1.256 . S
C495 C488 1.496 . S
H496 C479 0.929 . S
H497 C480 0.929 . S
H498 C481 0.929 . S
H499 C482 0.931 . S
H500 C490 0.929 . S
H501 C491 0.929 . S
H502 C492 0.931 . S
H503 C493 0.929 . S
Tb504 N533 2.617 . S
Tb504 N539 2.572 . S
Tb504 O548 2.465 . S
Tb504 O549 2.387 . S
Tb504 O551 2.428 . S
Tb504 O552 2.308 . S
Tb504 O556 2.349 . S
Tb504 O559 2.393 . S
Tb504 C568 2.802 . S
C505 N506 1.379 . S
C505 C508 1.416 . S
C505 C512 1.424 . S
N506 C505 1.379 . S
N506 C509 1.334 . S
N506 Tb515 2.617 . S
C507 C509 1.390 . S
C507 C510 1.339 . S
C507 H527 0.930 . S
C508 C505 1.416 . S
C508 C510 1.416 . S
C508 C514 1.448 . S
C509 N506 1.334 . S
C509 C507 1.390 . S
C509 H520 0.930 . S
C510 C507 1.339 . S
C510 C508 1.416 . S
C510 H531 0.930 . S
C511 C512 1.413 . S
C511 C513 1.427 . S
C511 C517 1.416 . S
C512 C505 1.424 . S
C512 C511 1.413 . S
C512 N516 1.361 . S
C513 C511 1.427 . S
C513 C514 1.328 . S
C513 H528 0.929 . S
C514 C508 1.448 . S
C514 C513 1.328 . S
C514 H529 0.930 . S
Tb515 N506 2.617 . S
Tb515 N516 2.572 . S
Tb515 O550 2.349 . S
Tb515 O553 2.393 . S
Tb515 O554 2.465 . S
Tb515 O555 2.387 . S
Tb515 O557 2.428 . S
Tb515 O558 2.308 . S
Tb515 C579 2.802 . S
N516 C512 1.361 . S
N516 Tb515 2.572 . S
N516 C518 1.340 . S
C517 C511 1.416 . S
C517 C519 1.332 . S
C517 H525 0.931 . S
C518 N516 1.340 . S
C518 C519 1.407 . S
C518 H524 0.930 . S
C519 C517 1.332 . S
C519 C518 1.407 . S
C519 H521 0.929 . S
H520 C509 0.930 . S
H521 C519 0.929 . S
H522 C537 0.930 . S
H523 C544 0.929 . S
H524 C518 0.930 . S
H525 C517 0.931 . S
H526 C540 0.930 . S
H527 C507 0.930 . S
H528 C513 0.929 . S
H529 C514 0.930 . S
H530 C535 0.930 . S
H531 C510 0.930 . S
H532 C543 0.931 . S
N533 Tb504 2.617 . S
N533 C534 1.379 . S
N533 C537 1.334 . S
C534 N533 1.379 . S
C534 C536 1.416 . S
C534 C542 1.424 . S
C535 H530 0.930 . S
C535 C537 1.390 . S
C535 C538 1.339 . S
C536 C534 1.416 . S
C536 C538 1.416 . S
C536 C569 1.448 . S
C537 H522 0.930 . S
C537 N533 1.334 . S
C537 C535 1.390 . S
C538 C535 1.339 . S
C538 C536 1.416 . S
C538 H545 0.930 . S
N539 Tb504 2.572 . S
N539 C540 1.340 . S
N539 C542 1.361 . S
C540 H526 0.930 . S
C540 N539 1.340 . S
C540 C544 1.407 . S
C541 C542 1.413 . S
C541 C543 1.416 . S
C541 C570 1.427 . S
C542 C534 1.424 . S
C542 N539 1.361 . S
C542 C541 1.413 . S
C543 H532 0.931 . S
C543 C541 1.416 . S
C543 C544 1.332 . S
C544 H523 0.929 . S
C544 C540 1.407 . S
C544 C543 1.332 . S
H545 C538 0.930 . S
H546 C569 0.930 . S
H547 C570 0.929 . S
O548 Tb504 2.465 . S
O548 C568 1.264 . S
O549 Tb504 2.387 . S
O549 C560 1.264 . S
O550 Tb515 2.349 . S
O550 C560 1.243 . S
O551 Tb504 2.428 . S
O551 C568 1.256 . S
O552 Tb504 2.308 . S
O552 C567 1.266 . S
O553 Tb515 2.393 . S
O553 C567 1.248 . S
O554 Tb515 2.465 . S
O554 C579 1.264 . S
O555 Tb515 2.387 . S
O555 C571 1.264 . S
O556 Tb504 2.349 . S
O556 C571 1.243 . S
O557 Tb515 2.428 . S
O557 C579 1.256 . S
O558 Tb515 2.308 . S
O558 C578 1.266 . S
O559 Tb504 2.393 . S
O559 C578 1.248 . S
C560 O549 1.264 . S
C560 O550 1.243 . S
C561 C564 1.399 . S
C561 C566 1.383 . S
C561 C568 1.496 . S
C562 C563 1.399 . S
C562 C566 1.389 . S
C563 C562 1.399 . S
C563 C565 1.380 . S
C563 H580 0.929 . S
C564 C561 1.399 . S
C564 C565 1.392 . S
C564 H581 0.929 . S
C565 C563 1.380 . S
C565 C564 1.392 . S
C565 H582 0.929 . S
C566 C561 1.383 . S
C566 C562 1.389 . S
C566 H583 0.931 . S
C567 O552 1.266 . S
C567 O553 1.248 . S
C568 Tb504 2.802 . S
C568 O548 1.264 . S
C568 O551 1.256 . S
C568 C561 1.496 . S
C569 C536 1.448 . S
C569 H546 0.930 . S
C569 C570 1.328 . S
C570 C541 1.427 . S
C570 H547 0.929 . S
C570 C569 1.328 . S
C571 O555 1.264 . S
C571 O556 1.243 . S
C572 C575 1.399 . S
C572 C576 1.383 . S
C572 C579 1.496 . S
C573 C574 1.399 . S
C573 C576 1.389 . S
C574 C573 1.399 . S
C574 C577 1.380 . S
C574 H584 0.929 . S
C575 C572 1.399 . S
C575 C577 1.392 . S
C575 H585 0.929 . S
C576 C572 1.383 . S
C576 C573 1.389 . S
C576 H586 0.931 . S
C577 C574 1.380 . S
C577 C575 1.392 . S
C577 H587 0.929 . S
C578 O558 1.266 . S
C578 O559 1.248 . S
C579 Tb515 2.802 . S
C579 O554 1.264 . S
C579 O557 1.256 . S
C579 C572 1.496 . S
H580 C563 0.929 . S
H581 C564 0.929 . S
H582 C565 0.929 . S
H583 C566 0.931 . S
H584 C574 0.929 . S
H585 C575 0.929 . S
H586 C576 0.931 . S
H587 C577 0.929 . S
Tb588 N617 2.617 . S
Tb588 N623 2.572 1_655 S
Tb588 O632 2.465 . S
Tb588 O633 2.387 1_655 S
Tb588 O635 2.428 . S
Tb588 O636 2.308 1_655 S
Tb588 O640 2.349 . S
Tb588 O643 2.393 . S
Tb588 C652 2.802 . S
C589 N590 1.379 . S
C589 C592 1.416 . S
C589 C596 1.431 . S
N590 C589 1.379 . S
N590 C593 1.334 . S
N590 Tb599 2.617 . S
C591 C593 1.390 . S
C591 C594 1.339 . S
C591 H611 0.930 . S
C592 C589 1.416 . S
C592 C594 1.416 . S
C592 C598 1.437 1_455 S
C593 N590 1.334 . S
C593 C591 1.390 . S
C593 H604 0.930 . S
C594 C591 1.339 . S
C594 C592 1.416 . S
C594 H615 0.930 . S
C595 C596 1.397 1_655 S
C595 C597 1.427 . S
C595 C601 1.416 . S
C596 C589 1.431 . S
C596 C595 1.397 1_455 S
C596 N600 1.370 . S
C597 C595 1.427 . S
C597 C598 1.335 . S
C597 H612 0.929 . S
C598 C592 1.437 1_655 S
C598 C597 1.335 . S
C598 H613 0.937 . S
Tb599 N590 2.617 . S
Tb599 N600 2.572 . S
Tb599 O634 2.349 . S
Tb599 O637 2.393 . S
Tb599 O638 2.465 . S
Tb599 O639 2.387 1_455 S
Tb599 O641 2.428 . S
Tb599 O642 2.308 1_455 S
Tb599 C663 2.802 . S
N600 C596 1.370 . S
N600 Tb599 2.572 . S
N600 C602 1.340 1_455 S
C601 C595 1.416 . S
C601 C603 1.332 . S
C601 H609 0.931 . S
C602 N600 1.340 1_655 S
C602 C603 1.407 . S
C602 H608 0.930 . S
C603 C601 1.332 . S
C603 C602 1.407 . S
C603 H605 0.929 . S
H604 C593 0.930 . S
H605 C603 0.929 . S
H606 C621 0.930 . S
H607 C628 0.929 . S
H608 C602 0.930 . S
H609 C601 0.931 . S
H610 C624 0.930 . S
H611 C591 0.930 . S
H612 C597 0.929 . S
H613 C598 0.937 . S
H614 C619 0.930 . S
H615 C594 0.930 . S
H616 C627 0.931 . S
N617 Tb588 2.617 . S
N617 C618 1.379 . S
N617 C621 1.334 . S
C618 N617 1.379 . S
C618 C620 1.416 . S
C618 C626 1.424 1_655 S
C619 H614 0.930 . S
C619 C621 1.390 . S
C619 C622 1.339 . S
C620 C618 1.416 . S
C620 C622 1.416 . S
C620 C653 1.448 1_655 S
C621 H606 0.930 . S
C621 N617 1.334 . S
C621 C619 1.390 . S
C622 C619 1.339 . S
C622 C620 1.416 . S
C622 H629 0.930 . S
N623 Tb588 2.572 1_455 S
N623 C624 1.340 . S
N623 C626 1.361 . S
C624 H610 0.930 . S
C624 N623 1.340 . S
C624 C628 1.407 . S
C625 C626 1.413 . S
C625 C627 1.416 . S
C625 C654 1.427 . S
C626 C618 1.424 1_455 S
C626 N623 1.361 . S
C626 C625 1.413 . S
C627 H616 0.931 . S
C627 C625 1.416 . S
C627 C628 1.332 . S
C628 H607 0.929 . S
C628 C624 1.407 . S
C628 C627 1.332 . S
H629 C622 0.930 . S
H630 C653 0.930 . S
H631 C654 0.929 . S
O632 Tb588 2.465 . S
O632 C652 1.264 . S
O633 Tb588 2.387 1_455 S
O633 C644 1.264 . S
O634 Tb599 2.349 . S
O634 C644 1.243 . S
O635 Tb588 2.428 . S
O635 C652 1.256 . S
O636 Tb588 2.308 1_455 S
O636 C651 1.266 . S
O637 Tb599 2.393 . S
O637 C651 1.248 . S
O638 Tb599 2.465 . S
O638 C663 1.264 . S
O639 Tb599 2.387 1_655 S
O639 C655 1.264 . S
O640 Tb588 2.349 . S
O640 C655 1.243 . S
O641 Tb599 2.428 . S
O641 C663 1.256 . S
O642 Tb599 2.308 1_655 S
O642 C662 1.266 . S
O643 Tb588 2.393 . S
O643 C662 1.248 . S
C644 O633 1.264 . S
C644 O634 1.243 . S
C645 C648 1.399 . S
C645 C650 1.383 . S
C645 C652 1.496 . S
C646 C647 1.399 . S
C646 C650 1.389 . S
C647 C646 1.399 . S
C647 C649 1.380 . S
C647 H664 0.929 . S
C648 C645 1.399 . S
C648 C649 1.392 . S
C648 H665 0.929 . S
C649 C647 1.380 . S
C649 C648 1.392 . S
C649 H666 0.929 . S
C650 C645 1.383 . S
C650 C646 1.389 . S
C650 H667 0.931 . S
C651 O636 1.266 . S
C651 O637 1.248 . S
C652 Tb588 2.802 . S
C652 O632 1.264 . S
C652 O635 1.256 . S
C652 C645 1.496 . S
C653 C620 1.448 1_455 S
C653 H630 0.930 . S
C653 C654 1.328 . S
C654 C625 1.427 . S
C654 H631 0.929 . S
C654 C653 1.328 . S
C655 O639 1.264 . S
C655 O640 1.243 . S
C656 C659 1.399 . S
C656 C660 1.383 . S
C656 C663 1.496 . S
C657 C658 1.399 . S
C657 C660 1.389 . S
C658 C657 1.399 . S
C658 C661 1.380 . S
C658 H668 0.929 . S
C659 C656 1.399 . S
C659 C661 1.392 . S
C659 H669 0.929 . S
C660 C656 1.383 . S
C660 C657 1.389 . S
C660 H670 0.931 . S
C661 C658 1.380 . S
C661 C659 1.392 . S
C661 H671 0.929 . S
C662 O642 1.266 . S
C662 O643 1.248 . S
C663 Tb599 2.802 . S
C663 O638 1.264 . S
C663 O641 1.256 . S
C663 C656 1.496 . S
H664 C647 0.929 . S
H665 C648 0.929 . S
H666 C649 0.929 . S
H667 C650 0.931 . S
H668 C658 0.929 . S
H669 C659 0.929 . S
H670 C660 0.931 . S
H671 C661 0.929 . S
Tb672 N701 2.617 . S
Tb672 N707 2.572 . S
Tb672 O716 2.465 . S
Tb672 O717 2.387 . S
Tb672 O719 2.428 . S
Tb672 O720 2.308 1_554 S
Tb672 O724 2.349 1_554 S
Tb672 O727 2.393 . S
Tb672 C736 2.802 . S
C673 N674 1.379 . S
C673 C676 1.416 . S
C673 C680 1.424 . S
N674 C673 1.379 . S
N674 C677 1.334 . S
N674 Tb683 2.617 . S
C675 C677 1.390 . S
C675 C678 1.339 . S
C675 H695 0.930 . S
C676 C673 1.416 . S
C676 C678 1.416 . S
C676 C682 1.448 . S
C677 N674 1.334 . S
C677 C675 1.390 . S
C677 H688 0.930 . S
C678 C675 1.339 . S
C678 C676 1.416 . S
C678 H699 0.930 . S
C679 C680 1.413 . S
C679 C681 1.427 . S
C679 C685 1.416 . S
C680 C673 1.424 . S
C680 C679 1.413 . S
C680 N684 1.361 . S
C681 C679 1.427 . S
C681 C682 1.328 . S
C681 H696 0.929 . S
C682 C676 1.448 . S
C682 C681 1.328 . S
C682 H697 0.930 . S
Tb683 N674 2.617 . S
Tb683 N684 2.572 . S
Tb683 O718 2.349 1_556 S
Tb683 O721 2.393 . S
Tb683 O722 2.465 . S
Tb683 O723 2.387 . S
Tb683 O725 2.428 . S
Tb683 O726 2.308 1_556 S
Tb683 C747 2.802 . S
N684 C680 1.361 . S
N684 Tb683 2.572 . S
N684 C686 1.340 . S
C685 C679 1.416 . S
C685 C687 1.332 . S
C685 H693 0.931 . S
C686 N684 1.340 . S
C686 C687 1.407 . S
C686 H692 0.930 . S
C687 C685 1.332 . S
C687 C686 1.407 . S
C687 H689 0.929 . S
H688 C677 0.930 . S
H689 C687 0.929 . S
H690 C705 0.930 . S
H691 C712 0.929 . S
H692 C686 0.930 . S
H693 C685 0.931 . S
H694 C708 0.930 . S
H695 C675 0.930 . S
H696 C681 0.929 . S
H697 C682 0.930 . S
H698 C703 0.930 . S
H699 C678 0.930 . S
H700 C711 0.931 . S
N701 Tb672 2.617 . S
N701 C702 1.379 . S
N701 C705 1.334 . S
C702 N701 1.379 . S
C702 C704 1.416 . S
C702 C710 1.424 . S
C703 H698 0.930 . S
C703 C705 1.390 . S
C703 C706 1.339 . S
C704 C702 1.416 . S
C704 C706 1.416 . S
C704 C737 1.448 . S
C705 H690 0.930 . S
C705 N701 1.334 . S
C705 C703 1.390 . S
C706 C703 1.339 . S
C706 C704 1.416 . S
C706 H713 0.930 . S
N707 Tb672 2.572 . S
N707 C708 1.340 . S
N707 C710 1.361 . S
C708 H694 0.930 . S
C708 N707 1.340 . S
C708 C712 1.407 . S
C709 C710 1.413 . S
C709 C711 1.416 . S
C709 C738 1.427 . S
C710 C702 1.424 . S
C710 N707 1.361 . S
C710 C709 1.413 . S
C711 H700 0.931 . S
C711 C709 1.416 . S
C711 C712 1.332 . S
C712 H691 0.929 . S
C712 C708 1.407 . S
C712 C711 1.332 . S
H713 C706 0.930 . S
H714 C737 0.930 . S
H715 C738 0.929 . S
O716 Tb672 2.465 . S
O716 C736 1.264 . S
O717 Tb672 2.387 . S
O717 C728 1.264 . S
O718 Tb683 2.349 1_554 S
O718 C728 1.243 . S
O719 Tb672 2.428 . S
O719 C736 1.256 . S
O720 Tb672 2.308 1_556 S
O720 C735 1.266 . S
O721 Tb683 2.393 . S
O721 C735 1.248 . S
O722 Tb683 2.465 . S
O722 C747 1.264 . S
O723 Tb683 2.387 . S
O723 C739 1.264 . S
O724 Tb672 2.349 1_556 S
O724 C739 1.243 . S
O725 Tb683 2.428 . S
O725 C747 1.256 . S
O726 Tb683 2.308 1_554 S
O726 C746 1.266 . S
O727 Tb672 2.393 . S
O727 C746 1.248 . S
C728 O717 1.264 . S
C728 O718 1.243 . S
C729 C732 1.399 . S
C729 C734 1.383 . S
C729 C736 1.496 . S
C730 C731 1.399 . S
C730 C734 1.389 . S
C731 C730 1.399 . S
C731 C733 1.380 . S
C731 H748 0.929 . S
C732 C729 1.399 . S
C732 C733 1.392 . S
C732 H749 0.929 . S
C733 C731 1.380 . S
C733 C732 1.392 . S
C733 H750 0.929 . S
C734 C729 1.383 . S
C734 C730 1.389 . S
C734 H751 0.931 . S
C735 O720 1.266 . S
C735 O721 1.248 . S
C736 Tb672 2.802 . S
C736 O716 1.264 . S
C736 O719 1.256 . S
C736 C729 1.496 . S
C737 C704 1.448 . S
C737 H714 0.930 . S
C737 C738 1.328 . S
C738 C709 1.427 . S
C738 H715 0.929 . S
C738 C737 1.328 . S
C739 O723 1.264 . S
C739 O724 1.243 . S
C740 C743 1.399 . S
C740 C744 1.383 . S
C740 C747 1.496 . S
C741 C742 1.399 . S
C741 C744 1.389 . S
C742 C741 1.399 . S
C742 C745 1.380 . S
C742 H752 0.929 . S
C743 C740 1.399 . S
C743 C745 1.392 . S
C743 H753 0.929 . S
C744 C740 1.383 . S
C744 C741 1.389 . S
C744 H754 0.913 1_556 S
C745 C742 1.380 . S
C745 C743 1.392 . S
C745 H755 0.929 . S
C746 O726 1.266 . S
C746 O727 1.248 . S
C747 Tb683 2.802 . S
C747 O722 1.264 . S
C747 O725 1.256 . S
C747 C740 1.496 . S
H748 C731 0.929 . S
H749 C732 0.929 . S
H750 C733 0.929 . S
H751 C734 0.931 . S
H752 C742 0.929 . S
H753 C743 0.929 . S
H754 C744 0.913 1_554 S
H755 C745 0.929 . S
Tb756 N785 2.617 . S
Tb756 N791 2.572 . S
Tb756 O800 2.465 . S
Tb756 O801 2.387 . S
Tb756 O803 2.428 . S
Tb756 O804 2.308 1_545 S
Tb756 O808 2.349 1_545 S
Tb756 O811 2.393 . S
Tb756 C820 2.802 . S
C757 N758 1.379 . S
C757 C760 1.416 . S
C757 C764 1.424 . S
N758 C757 1.379 . S
N758 C761 1.334 . S
N758 Tb767 2.617 . S
C759 C761 1.390 . S
C759 C762 1.339 . S
C759 H779 0.930 . S
C760 C757 1.416 . S
C760 C762 1.416 . S
C760 C766 1.448 . S
C761 N758 1.334 . S
C761 C759 1.390 . S
C761 H772 0.930 . S
C762 C759 1.339 . S
C762 C760 1.416 . S
C762 H783 0.930 . S
C763 C764 1.413 . S
C763 C765 1.427 . S
C763 C769 1.416 . S
C764 C757 1.424 . S
C764 C763 1.413 . S
C764 N768 1.361 . S
C765 C763 1.427 . S
C765 C766 1.328 . S
C765 H780 0.929 . S
C766 C760 1.448 . S
C766 C765 1.328 . S
C766 H781 0.930 . S
Tb767 N758 2.617 . S
Tb767 N768 2.572 . S
Tb767 O802 2.349 1_565 S
Tb767 O805 2.393 . S
Tb767 O806 2.465 1_565 S
Tb767 O807 2.387 . S
Tb767 O809 2.428 . S
Tb767 O810 2.308 1_565 S
Tb767 C831 2.802 . S
N768 C764 1.361 . S
N768 Tb767 2.572 . S
N768 C770 1.340 . S
C769 C763 1.416 . S
C769 C771 1.332 . S
C769 H777 0.931 . S
C770 N768 1.340 . S
C770 C771 1.407 . S
C770 H776 0.930 . S
C771 C769 1.332 . S
C771 C770 1.407 . S
C771 H773 0.929 . S
H772 C761 0.930 . S
H773 C771 0.929 . S
H774 C789 0.930 . S
H775 C796 0.929 . S
H776 C770 0.930 . S
H777 C769 0.931 . S
H778 C792 0.930 . S
H779 C759 0.930 . S
H780 C765 0.929 . S
H781 C766 0.930 . S
H782 C787 0.930 . S
H783 C762 0.930 . S
H784 C795 0.931 . S
N785 Tb756 2.617 . S
N785 C786 1.379 . S
N785 C789 1.334 . S
C786 N785 1.379 . S
C786 C788 1.416 . S
C786 C794 1.424 . S
C787 H782 0.930 . S
C787 C789 1.390 . S
C787 C790 1.339 . S
C788 C786 1.416 . S
C788 C790 1.416 . S
C788 C821 1.448 . S
C789 H774 0.930 . S
C789 N785 1.334 . S
C789 C787 1.390 . S
C790 C787 1.339 . S
C790 C788 1.416 . S
C790 H797 0.930 . S
N791 Tb756 2.572 . S
N791 C792 1.340 . S
N791 C794 1.361 . S
C792 H778 0.930 . S
C792 N791 1.340 . S
C792 C796 1.407 . S
C793 C794 1.413 . S
C793 C795 1.416 . S
C793 C822 1.427 . S
C794 C786 1.424 . S
C794 N791 1.361 . S
C794 C793 1.413 . S
C795 H784 0.931 . S
C795 C793 1.416 . S
C795 C796 1.332 . S
C796 H775 0.929 . S
C796 C792 1.407 . S
C796 C795 1.332 . S
H797 C790 0.930 . S
H798 C821 0.930 . S
H799 C822 0.929 . S
O800 Tb756 2.465 . S
O800 C820 1.264 . S
O801 Tb756 2.387 . S
O801 C812 1.264 . S
O802 Tb767 2.349 1_545 S
O802 C812 1.243 . S
O803 Tb756 2.428 . S
O803 C820 1.256 . S
O804 Tb756 2.308 1_565 S
O804 C819 1.266 . S
O805 Tb767 2.393 . S
O805 C819 1.248 . S
O806 Tb767 2.465 1_545 S
O806 C831 1.264 1_545 S
O807 Tb767 2.387 . S
O807 C823 1.264 . S
O808 Tb756 2.349 1_565 S
O808 C823 1.243 . S
O809 Tb767 2.428 . S
O809 C831 1.256 . S
O810 Tb767 2.308 1_545 S
O810 C830 1.266 . S
O811 Tb756 2.393 . S
O811 C830 1.248 . S
C812 O801 1.264 . S
C812 O802 1.243 . S
C813 C816 1.399 . S
C813 C818 1.383 1_545 S
C813 C820 1.496 . S
C814 C815 1.399 1_565 S
C814 C818 1.389 . S
C815 C814 1.399 1_545 S
C815 C817 1.380 . S
C815 H832 0.929 . S
C816 C813 1.399 . S
C816 C817 1.392 . S
C816 H833 0.929 . S
C817 C815 1.380 . S
C817 C816 1.392 . S
C817 H834 0.929 . S
C818 C813 1.383 1_565 S
C818 C814 1.389 . S
C818 H835 0.931 . S
C819 O804 1.266 . S
C819 O805 1.248 . S
C820 Tb756 2.802 . S
C820 O800 1.264 . S
C820 O803 1.256 . S
C820 C813 1.496 . S
C821 C788 1.448 . S
C821 H798 0.930 . S
C821 C822 1.328 . S
C822 C793 1.427 . S
C822 H799 0.929 . S
C822 C821 1.328 . S
C823 O807 1.264 . S
C823 O808 1.243 . S
C824 C827 1.399 1_545 S
C824 C828 1.383 . S
C824 C831 1.496 1_545 S
C825 C826 1.399 . S
C825 C828 1.389 . S
C826 C825 1.399 . S
C826 C829 1.380 1_545 S
C826 H836 0.929 . S
C827 C824 1.399 1_565 S
C827 C829 1.392 . S
C827 H837 0.929 . S
C828 C824 1.383 . S
C828 C825 1.389 . S
C828 H838 0.931 . S
C829 C826 1.380 1_565 S
C829 C827 1.392 . S
C829 H839 0.929 . S
C830 O810 1.266 . S
C830 O811 1.248 . S
C831 Tb767 2.802 . S
C831 O806 1.264 1_565 S
C831 O809 1.256 . S
C831 C824 1.496 1_565 S
H832 C815 0.929 . S
H833 C816 0.929 . S
H834 C817 0.929 . S
H835 C818 0.931 . S
H836 C826 0.929 . S
H837 C827 0.929 . S
H838 C828 0.931 . S
H839 C829 0.929 . S
Tb840 N869 2.617 . S
Tb840 N875 2.572 . S
Tb840 O884 2.465 . S
Tb840 O885 2.387 . S
Tb840 O887 2.428 . S
Tb840 O888 2.308 . S
Tb840 O892 2.349 . S
Tb840 O895 2.393 . S
Tb840 C904 2.802 . S
C841 N842 1.379 . S
C841 C844 1.416 . S
C841 C848 1.424 . S
N842 C841 1.379 . S
N842 C845 1.334 . S
N842 Tb851 2.617 . S
C843 C845 1.390 . S
C843 C846 1.339 . S
C843 H863 0.930 . S
C844 C841 1.416 . S
C844 C846 1.416 . S
C844 C850 1.448 . S
C845 N842 1.334 . S
C845 C843 1.390 . S
C845 H856 0.930 . S
C846 C843 1.339 . S
C846 C844 1.416 . S
C846 H867 0.930 . S
C847 C848 1.413 . S
C847 C849 1.427 . S
C847 C853 1.416 . S
C848 C841 1.424 . S
C848 C847 1.413 . S
C848 N852 1.361 . S
C849 C847 1.427 . S
C849 C850 1.328 . S
C849 H864 0.929 . S
C850 C844 1.448 . S
C850 C849 1.328 . S
C850 H865 0.930 . S
Tb851 N842 2.617 . S
Tb851 N852 2.572 . S
Tb851 O886 2.349 . S
Tb851 O889 2.393 . S
Tb851 O890 2.465 . S
Tb851 O891 2.387 . S
Tb851 O893 2.428 . S
Tb851 O894 2.308 . S
Tb851 C915 2.802 . S
N852 C848 1.361 . S
N852 Tb851 2.572 . S
N852 C854 1.340 . S
C853 C847 1.416 . S
C853 C855 1.332 . S
C853 H861 0.931 . S
C854 N852 1.340 . S
C854 C855 1.407 . S
C854 H860 0.930 . S
C855 C853 1.332 . S
C855 C854 1.407 . S
C855 H857 0.929 . S
H856 C845 0.930 . S
H857 C855 0.929 . S
H858 C873 0.930 . S
H859 C880 0.929 . S
H860 C854 0.930 . S
H861 C853 0.931 . S
H862 C876 0.930 . S
H863 C843 0.930 . S
H864 C849 0.929 . S
H865 C850 0.930 . S
H866 C871 0.930 . S
H867 C846 0.930 . S
H868 C879 0.931 . S
N869 Tb840 2.617 . S
N869 C870 1.379 . S
N869 C873 1.334 . S
C870 N869 1.379 . S
C870 C872 1.416 . S
C870 C878 1.424 . S
C871 H866 0.930 . S
C871 C873 1.390 . S
C871 C874 1.339 . S
C872 C870 1.416 . S
C872 C874 1.416 . S
C872 C905 1.448 . S
C873 H858 0.930 . S
C873 N869 1.334 . S
C873 C871 1.390 . S
C874 C871 1.339 . S
C874 C872 1.416 . S
C874 H881 0.930 . S
N875 Tb840 2.572 . S
N875 C876 1.340 . S
N875 C878 1.361 . S
C876 H862 0.930 . S
C876 N875 1.340 . S
C876 C880 1.407 . S
C877 C878 1.413 . S
C877 C879 1.416 . S
C877 C906 1.427 . S
C878 C870 1.424 . S
C878 N875 1.361 . S
C878 C877 1.413 . S
C879 H868 0.931 . S
C879 C877 1.416 . S
C879 C880 1.332 . S
C880 H859 0.929 . S
C880 C876 1.407 . S
C880 C879 1.332 . S
H881 C874 0.930 . S
H882 C905 0.930 . S
H883 C906 0.929 . S
O884 Tb840 2.465 . S
O884 C904 1.264 . S
O885 Tb840 2.387 . S
O885 C896 1.264 . S
O886 Tb851 2.349 . S
O886 C896 1.243 . S
O887 Tb840 2.428 . S
O887 C904 1.256 . S
O888 Tb840 2.308 . S
O888 C903 1.266 . S
O889 Tb851 2.393 . S
O889 C903 1.248 . S
O890 Tb851 2.465 . S
O890 C915 1.264 . S
O891 Tb851 2.387 . S
O891 C907 1.264 . S
O892 Tb840 2.349 . S
O892 C907 1.243 . S
O893 Tb851 2.428 . S
O893 C915 1.256 . S
O894 Tb851 2.308 . S
O894 C914 1.266 . S
O895 Tb840 2.393 . S
O895 C914 1.248 . S
C896 O885 1.264 . S
C896 O886 1.243 . S
C897 C900 1.399 . S
C897 C902 1.383 . S
C897 C904 1.496 . S
C898 C899 1.399 . S
C898 C902 1.389 . S
C899 C898 1.399 . S
C899 C901 1.380 . S
C899 H916 0.929 . S
C900 C897 1.399 . S
C900 C901 1.392 . S
C900 H917 0.929 . S
C901 C899 1.380 . S
C901 C900 1.392 . S
C901 H918 0.929 . S
C902 C897 1.383 . S
C902 C898 1.389 . S
C902 H919 0.931 . S
C903 O888 1.266 . S
C903 O889 1.248 . S
C904 Tb840 2.802 . S
C904 O884 1.264 . S
C904 O887 1.256 . S
C904 C897 1.496 . S
C905 C872 1.448 . S
C905 H882 0.930 . S
C905 C906 1.328 . S
C906 C877 1.427 . S
C906 H883 0.929 . S
C906 C905 1.328 . S
C907 O891 1.264 . S
C907 O892 1.243 . S
C908 C911 1.399 . S
C908 C912 1.383 . S
C908 C915 1.496 . S
C909 C910 1.399 . S
C909 C912 1.389 . S
C910 C909 1.399 . S
C910 C913 1.380 . S
C910 H920 0.929 . S
C911 C908 1.399 . S
C911 C913 1.392 . S
C911 H921 0.929 . S
C912 C908 1.383 . S
C912 C909 1.389 . S
C912 H922 0.931 . S
C913 C910 1.380 . S
C913 C911 1.392 . S
C913 H923 0.929 . S
C914 O894 1.266 . S
C914 O895 1.248 . S
C915 Tb851 2.802 . S
C915 O890 1.264 . S
C915 O893 1.256 . S
C915 C908 1.496 . S
H916 C899 0.929 . S
H917 C900 0.929 . S
H918 C901 0.929 . S
H919 C902 0.931 . S
H920 C910 0.929 . S
H921 C911 0.929 . S
H922 C912 0.931 . S
H923 C913 0.929 . S
Tb924 N953 2.617 . S
Tb924 N959 2.572 . S
Tb924 O968 2.465 1_655 S
Tb924 O969 2.387 . S
Tb924 O971 2.428 . S
Tb924 O972 2.308 1_655 S
Tb924 O976 2.349 1_655 S
Tb924 O979 2.393 . S
Tb924 C988 2.802 . S
C925 N926 1.379 . S
C925 C928 1.416 . S
C925 C932 1.424 . S
N926 C925 1.379 . S
N926 C929 1.334 . S
N926 Tb935 2.617 . S
C927 C929 1.390 . S
C927 C930 1.339 . S
C927 H947 0.930 . S
C928 C925 1.416 . S
C928 C930 1.416 . S
C928 C934 1.448 . S
C929 N926 1.334 . S
C929 C927 1.390 . S
C929 H940 0.930 . S
C930 C927 1.339 . S
C930 C928 1.416 . S
C930 H951 0.930 . S
C931 C932 1.413 . S
C931 C933 1.427 . S
C931 C937 1.416 . S
C932 C925 1.424 . S
C932 C931 1.413 . S
C932 N936 1.361 . S
C933 C931 1.427 . S
C933 C934 1.328 . S
C933 H948 0.929 . S
C934 C928 1.448 . S
C934 C933 1.328 . S
C934 H949 0.930 . S
Tb935 N926 2.617 . S
Tb935 N936 2.572 . S
Tb935 O970 2.349 1_455 S
Tb935 O973 2.393 . S
Tb935 O974 2.470 . S
Tb935 O975 2.387 . S
Tb935 O977 2.428 . S
Tb935 O978 2.308 1_455 S
Tb935 C999 2.802 . S
N936 C932 1.361 . S
N936 Tb935 2.572 . S
N936 C938 1.340 . S
C937 C931 1.416 . S
C937 C939 1.332 . S
C937 H945 0.931 . S
C938 N936 1.340 . S
C938 C939 1.407 . S
C938 H944 0.930 . S
C939 C937 1.332 . S
C939 C938 1.407 . S
C939 H941 0.929 . S
H940 C929 0.930 . S
H941 C939 0.929 . S
H942 C957 0.930 . S
H943 C964 0.929 . S
H944 C938 0.930 . S
H945 C937 0.931 . S
H946 C960 0.930 . S
H947 C927 0.930 . S
H948 C933 0.929 . S
H949 C934 0.930 . S
H950 C955 0.930 . S
H951 C930 0.930 . S
H952 C963 0.931 . S
N953 Tb924 2.617 . S
N953 C954 1.379 . S
N953 C957 1.334 . S
C954 N953 1.379 . S
C954 C956 1.416 . S
C954 C962 1.424 . S
C955 H950 0.930 . S
C955 C957 1.390 . S
C955 C958 1.339 . S
C956 C954 1.416 . S
C956 C958 1.416 . S
C956 C989 1.448 . S
C957 H942 0.930 . S
C957 N953 1.334 . S
C957 C955 1.390 . S
C958 C955 1.339 . S
C958 C956 1.416 . S
C958 H965 0.930 . S
N959 Tb924 2.572 . S
N959 C960 1.340 . S
N959 C962 1.361 . S
C960 H946 0.930 . S
C960 N959 1.340 . S
C960 C964 1.407 . S
C961 C962 1.413 . S
C961 C963 1.416 . S
C961 C990 1.427 . S
C962 C954 1.424 . S
C962 N959 1.361 . S
C962 C961 1.413 . S
C963 H952 0.931 . S
C963 C961 1.416 . S
C963 C964 1.332 . S
C964 H943 0.929 . S
C964 C960 1.407 . S
C964 C963 1.332 . S
H965 C958 0.930 . S
H966 C989 0.930 . S
H967 C990 0.929 . S
O968 Tb924 2.465 1_455 S
O968 C988 1.264 1_455 S
O969 Tb924 2.387 . S
O969 C980 1.264 . S
O970 Tb935 2.349 1_655 S
O970 C980 1.243 . S
O971 Tb924 2.428 . S
O971 C988 1.256 . S
O972 Tb924 2.308 1_455 S
O972 C987 1.266 . S
O973 Tb935 2.393 . S
O973 C987 1.248 . S
O974 Tb935 2.470 . S
O974 C999 1.285 . S
O975 Tb935 2.387 . S
O975 C991 1.264 . S
O976 Tb924 2.349 1_455 S
O976 C991 1.243 . S
O977 Tb935 2.428 . S
O977 C999 1.256 . S
O978 Tb935 2.308 1_655 S
O978 C998 1.266 . S
O979 Tb924 2.393 . S
O979 C998 1.248 . S
C980 O969 1.264 . S
C980 O970 1.243 . S
C981 C984 1.396 1_455 S
C981 C986 1.386 . S
C981 C988 1.497 1_455 S
C982 C983 1.399 . S
C982 C986 1.389 . S
C983 C982 1.399 . S
C983 C985 1.380 1_455 S
C983 H1000 0.929 . S
C984 C981 1.396 1_655 S
C984 C985 1.392 . S
C984 H1001 0.929 . S
C985 C983 1.380 1_655 S
C985 C984 1.392 . S
C985 H1002 0.929 . S
C986 C981 1.386 . S
C986 C982 1.389 . S
C986 H1003 0.931 . S
C987 O972 1.266 . S
C987 O973 1.248 . S
C988 Tb924 2.802 . S
C988 O968 1.264 1_655 S
C988 O971 1.256 . S
C988 C981 1.497 1_655 S
C989 C956 1.448 . S
C989 H966 0.930 . S
C989 C990 1.328 . S
C990 C961 1.427 . S
C990 H967 0.929 . S
C990 C989 1.328 . S
C991 O975 1.264 . S
C991 O976 1.243 . S
C992 C995 1.399 . S
C992 C996 1.383 1_455 S
C992 C999 1.496 . S
C993 C994 1.399 . S
C993 C996 1.389 . S
C994 C993 1.399 . S
C994 C997 1.380 1_655 S
C994 H1004 0.929 . S
C995 C992 1.399 . S
C995 C997 1.392 . S
C995 H1005 0.929 . S
C996 C992 1.383 1_655 S
C996 C993 1.389 . S
C996 H1006 0.931 . S
C997 C994 1.380 1_455 S
C997 C995 1.392 . S
C997 H1007 0.929 . S
C998 O978 1.266 . S
C998 O979 1.248 . S
C999 Tb935 2.802 . S
C999 O974 1.285 . S
C999 O977 1.256 . S
C999 C992 1.496 . S
H1000 C983 0.929 . S
H1001 C984 0.929 . S
H1002 C985 0.929 . S
H1003 C986 0.931 . S
H1004 C994 0.929 . S
H1005 C995 0.929 . S
H1006 C996 0.931 . S
H1007 C997 0.929 . S
Tb1008 N1037 2.617 . S
Tb1008 N1043 2.572 . S
Tb1008 O1052 2.465 . S
Tb1008 O1053 2.387 . S
Tb1008 O1055 2.428 . S
Tb1008 O1056 2.308 . S
Tb1008 O1060 2.349 . S
Tb1008 O1063 2.393 . S
Tb1008 C1072 2.802 . S
C1009 N1010 1.379 . S
C1009 C1012 1.416 . S
C1009 C1016 1.424 . S
N1010 C1009 1.379 . S
N1010 C1013 1.334 . S
N1010 Tb1019 2.617 . S
C1011 C1013 1.390 . S
C1011 C1014 1.339 . S
C1011 H1031 0.930 . S
C1012 C1009 1.416 . S
C1012 C1014 1.416 . S
C1012 C1018 1.448 . S
C1013 N1010 1.334 . S
C1013 C1011 1.390 . S
C1013 H1024 0.930 . S
C1014 C1011 1.339 . S
C1014 C1012 1.416 . S
C1014 H1035 0.930 . S
C1015 C1016 1.413 . S
C1015 C1017 1.427 . S
C1015 C1021 1.416 . S
C1016 C1009 1.424 . S
C1016 C1015 1.413 . S
C1016 N1020 1.361 . S
C1017 C1015 1.427 . S
C1017 C1018 1.328 . S
C1017 H1032 0.929 . S
C1018 C1012 1.448 . S
C1018 C1017 1.328 . S
C1018 H1033 0.930 . S
Tb1019 N1010 2.617 . S
Tb1019 N1020 2.572 . S
Tb1019 O1054 2.349 . S
Tb1019 O1057 2.393 . S
Tb1019 O1058 2.465 . S
Tb1019 O1059 2.387 . S
Tb1019 O1061 2.428 . S
Tb1019 O1062 2.308 . S
Tb1019 C1083 2.802 . S
N1020 C1016 1.361 . S
N1020 Tb1019 2.572 . S
N1020 C1022 1.340 . S
C1021 C1015 1.416 . S
C1021 C1023 1.332 . S
C1021 H1029 0.931 . S
C1022 N1020 1.340 . S
C1022 C1023 1.407 . S
C1022 H1028 0.930 . S
C1023 C1021 1.332 . S
C1023 C1022 1.407 . S
C1023 H1025 0.929 . S
H1024 C1013 0.930 . S
H1025 C1023 0.929 . S
H1026 C1041 0.930 . S
H1027 C1048 0.929 . S
H1028 C1022 0.930 . S
H1029 C1021 0.931 . S
H1030 C1044 0.930 . S
H1031 C1011 0.930 . S
H1032 C1017 0.929 . S
H1033 C1018 0.930 . S
H1034 C1039 0.930 . S
H1035 C1014 0.930 . S
H1036 C1047 0.931 . S
N1037 Tb1008 2.617 . S
N1037 C1038 1.379 . S
N1037 C1041 1.334 . S
C1038 N1037 1.379 . S
C1038 C1040 1.416 . S
C1038 C1046 1.424 . S
C1039 H1034 0.930 . S
C1039 C1041 1.390 . S
C1039 C1042 1.339 . S
C1040 C1038 1.416 . S
C1040 C1042 1.416 . S
C1040 C1073 1.448 . S
C1041 H1026 0.930 . S
C1041 N1037 1.334 . S
C1041 C1039 1.390 . S
C1042 C1039 1.339 . S
C1042 C1040 1.416 . S
C1042 H1049 0.930 . S
N1043 Tb1008 2.572 . S
N1043 C1044 1.340 . S
N1043 C1046 1.361 . S
C1044 H1030 0.930 . S
C1044 N1043 1.340 . S
C1044 C1048 1.407 . S
C1045 C1046 1.413 . S
C1045 C1047 1.416 . S
C1045 C1074 1.427 . S
C1046 C1038 1.424 . S
C1046 N1043 1.361 . S
C1046 C1045 1.413 . S
C1047 H1036 0.931 . S
C1047 C1045 1.416 . S
C1047 C1048 1.332 . S
C1048 H1027 0.929 . S
C1048 C1044 1.407 . S
C1048 C1047 1.332 . S
H1049 C1042 0.930 . S
H1050 C1073 0.930 . S
H1051 C1074 0.929 . S
O1052 Tb1008 2.465 . S
O1052 C1072 1.264 . S
O1053 Tb1008 2.387 . S
O1053 C1064 1.264 . S
O1054 Tb1019 2.349 . S
O1054 C1064 1.243 . S
O1055 Tb1008 2.428 . S
O1055 C1072 1.256 . S
O1056 Tb1008 2.308 . S
O1056 C1071 1.266 . S
O1057 Tb1019 2.393 . S
O1057 C1071 1.248 . S
O1058 Tb1019 2.465 . S
O1058 C1083 1.264 . S
O1059 Tb1019 2.387 . S
O1059 C1075 1.264 . S
O1060 Tb1008 2.349 . S
O1060 C1075 1.243 . S
O1061 Tb1019 2.428 . S
O1061 C1083 1.256 . S
O1062 Tb1019 2.308 . S
O1062 C1082 1.266 . S
O1063 Tb1008 2.393 . S
O1063 C1082 1.248 . S
C1064 O1053 1.264 . S
C1064 O1054 1.243 . S
C1065 C1068 1.399 . S
C1065 C1070 1.383 . S
C1065 C1072 1.496 . S
C1066 C1067 1.399 . S
C1066 C1070 1.389 . S
C1067 C1066 1.399 . S
C1067 C1069 1.380 . S
C1067 H1084 0.929 . S
C1068 C1065 1.399 . S
C1068 C1069 1.392 . S
C1068 H1085 0.929 . S
C1069 C1067 1.380 . S
C1069 C1068 1.392 . S
C1069 H1086 0.929 . S
C1070 C1065 1.383 . S
C1070 C1066 1.389 . S
C1070 H1087 0.931 . S
C1071 O1056 1.266 . S
C1071 O1057 1.248 . S
C1072 Tb1008 2.802 . S
C1072 O1052 1.264 . S
C1072 O1055 1.256 . S
C1072 C1065 1.496 . S
C1073 C1040 1.448 . S
C1073 H1050 0.930 . S
C1073 C1074 1.328 . S
C1074 C1045 1.427 . S
C1074 H1051 0.929 . S
C1074 C1073 1.328 . S
C1075 O1059 1.264 . S
C1075 O1060 1.243 . S
C1076 C1079 1.399 . S
C1076 C1080 1.383 . S
C1076 C1083 1.496 . S
C1077 C1078 1.399 . S
C1077 C1080 1.389 . S
C1078 C1077 1.399 . S
C1078 C1081 1.380 . S
C1078 H1088 0.929 . S
C1079 C1076 1.399 . S
C1079 C1081 1.392 . S
C1079 H1089 0.929 . S
C1080 C1076 1.383 . S
C1080 C1077 1.389 . S
C1080 H1090 0.931 . S
C1081 C1078 1.380 . S
C1081 C1079 1.392 . S
C1081 H1091 0.929 . S
C1082 O1062 1.266 . S
C1082 O1063 1.248 . S
C1083 Tb1019 2.802 . S
C1083 O1058 1.264 . S
C1083 O1061 1.256 . S
C1083 C1076 1.496 . S
H1084 C1067 0.929 . S
H1085 C1068 0.929 . S
H1086 C1069 0.929 . S
H1087 C1070 0.931 . S
H1088 C1078 0.929 . S
H1089 C1079 0.929 . S
H1090 C1080 0.931 . S
H1091 C1081 0.929 . S
Tb1092 N1121 2.617 . S
Tb1092 N1127 2.572 . S
Tb1092 O1136 2.465 . S
Tb1092 O1137 2.387 . S
Tb1092 O1139 2.428 . S
Tb1092 O1140 2.308 1_556 S
Tb1092 O1144 2.349 1_556 S
Tb1092 O1147 2.393 . S
Tb1092 C1156 2.802 . S
C1093 N1094 1.379 . S
C1093 C1096 1.416 . S
C1093 C1100 1.424 . S
N1094 C1093 1.379 . S
N1094 C1097 1.334 . S
N1094 Tb1103 2.617 . S
C1095 C1097 1.390 . S
C1095 C1098 1.339 . S
C1095 H1115 0.930 . S
C1096 C1093 1.416 . S
C1096 C1098 1.416 . S
C1096 C1102 1.448 . S
C1097 N1094 1.334 . S
C1097 C1095 1.390 . S
C1097 H1108 0.930 . S
C1098 C1095 1.339 . S
C1098 C1096 1.416 . S
C1098 H1119 0.930 . S
C1099 C1100 1.413 . S
C1099 C1101 1.427 . S
C1099 C1105 1.416 . S
C1100 C1093 1.424 . S
C1100 C1099 1.413 . S
C1100 N1104 1.361 . S
C1101 C1099 1.427 . S
C1101 C1102 1.328 . S
C1101 H1116 0.929 . S
C1102 C1096 1.448 . S
C1102 C1101 1.328 . S
C1102 H1117 0.930 . S
Tb1103 N1094 2.617 . S
Tb1103 N1104 2.572 . S
Tb1103 O1138 2.349 1_554 S
Tb1103 O1141 2.393 . S
Tb1103 O1142 2.465 . S
Tb1103 O1143 2.387 . S
Tb1103 O1145 2.428 . S
Tb1103 O1146 2.308 1_554 S
Tb1103 C1167 2.802 . S
N1104 C1100 1.361 . S
N1104 Tb1103 2.572 . S
N1104 C1106 1.340 . S
C1105 C1099 1.416 . S
C1105 C1107 1.332 . S
C1105 H1113 0.931 . S
C1106 N1104 1.340 . S
C1106 C1107 1.407 . S
C1106 H1112 0.930 . S
C1107 C1105 1.332 . S
C1107 C1106 1.407 . S
C1107 H1109 0.929 . S
H1108 C1097 0.930 . S
H1109 C1107 0.929 . S
H1110 C1125 0.930 . S
H1111 C1132 0.929 . S
H1112 C1106 0.930 . S
H1113 C1105 0.931 . S
H1114 C1128 0.930 . S
H1115 C1095 0.930 . S
H1116 C1101 0.929 . S
H1117 C1102 0.930 . S
H1118 C1123 0.930 . S
H1119 C1098 0.930 . S
H1120 C1131 0.931 . S
N1121 Tb1092 2.617 . S
N1121 C1122 1.379 . S
N1121 C1125 1.334 . S
C1122 N1121 1.379 . S
C1122 C1124 1.416 . S
C1122 C1130 1.424 . S
C1123 H1118 0.930 . S
C1123 C1125 1.390 . S
C1123 C1126 1.339 . S
C1124 C1122 1.416 . S
C1124 C1126 1.416 . S
C1124 C1157 1.448 . S
C1125 H1110 0.930 . S
C1125 N1121 1.334 . S
C1125 C1123 1.390 . S
C1126 C1123 1.339 . S
C1126 C1124 1.416 . S
C1126 H1133 0.930 . S
N1127 Tb1092 2.572 . S
N1127 C1128 1.340 . S
N1127 C1130 1.361 . S
C1128 H1114 0.930 . S
C1128 N1127 1.340 . S
C1128 C1132 1.407 . S
C1129 C1130 1.413 . S
C1129 C1131 1.416 . S
C1129 C1158 1.427 . S
C1130 C1122 1.424 . S
C1130 N1127 1.361 . S
C1130 C1129 1.413 . S
C1131 H1120 0.931 . S
C1131 C1129 1.416 . S
C1131 C1132 1.332 . S
C1132 H1111 0.929 . S
C1132 C1128 1.407 . S
C1132 C1131 1.332 . S
H1133 C1126 0.930 . S
H1134 C1157 0.930 . S
H1135 C1158 0.929 . S
O1136 Tb1092 2.465 . S
O1136 C1156 1.264 . S
O1137 Tb1092 2.387 . S
O1137 C1148 1.264 . S
O1138 Tb1103 2.349 1_556 S
O1138 C1148 1.243 . S
O1139 Tb1092 2.428 . S
O1139 C1156 1.256 . S
O1140 Tb1092 2.308 1_554 S
O1140 C1155 1.266 . S
O1141 Tb1103 2.393 . S
O1141 C1155 1.248 . S
O1142 Tb1103 2.465 . S
O1142 C1167 1.264 . S
O1143 Tb1103 2.387 . S
O1143 C1159 1.264 . S
O1144 Tb1092 2.349 1_554 S
O1144 C1159 1.243 . S
O1145 Tb1103 2.428 . S
O1145 C1167 1.256 . S
O1146 Tb1103 2.308 1_556 S
O1146 C1166 1.266 . S
O1147 Tb1092 2.393 . S
O1147 C1166 1.248 . S
C1148 O1137 1.264 . S
C1148 O1138 1.243 . S
C1149 C1152 1.399 . S
C1149 C1154 1.383 . S
C1149 C1156 1.496 . S
C1150 C1151 1.399 . S
C1150 C1154 1.389 . S
C1151 C1150 1.399 . S
C1151 C1153 1.380 . S
C1151 H1168 0.929 . S
C1152 C1149 1.399 . S
C1152 C1153 1.392 . S
C1152 H1169 0.929 . S
C1153 C1151 1.380 . S
C1153 C1152 1.392 . S
C1153 H1170 0.929 . S
C1154 C1149 1.383 . S
C1154 C1150 1.389 . S
C1154 H1171 0.913 1_556 S
C1155 O1140 1.266 . S
C1155 O1141 1.248 . S
C1156 Tb1092 2.802 . S
C1156 O1136 1.264 . S
C1156 O1139 1.256 . S
C1156 C1149 1.496 . S
C1157 C1124 1.448 . S
C1157 H1134 0.930 . S
C1157 C1158 1.328 . S
C1158 C1129 1.427 . S
C1158 H1135 0.929 . S
C1158 C1157 1.328 . S
C1159 O1143 1.264 . S
C1159 O1144 1.243 . S
C1160 C1163 1.399 . S
C1160 C1164 1.383 . S
C1160 C1167 1.496 . S
C1161 C1162 1.399 . S
C1161 C1164 1.389 . S
C1162 C1161 1.399 . S
C1162 C1165 1.380 . S
C1162 H1172 0.929 . S
C1163 C1160 1.399 . S
C1163 C1165 1.392 . S
C1163 H1173 0.929 . S
C1164 C1160 1.383 . S
C1164 C1161 1.389 . S
C1164 H1174 0.931 . S
C1165 C1162 1.380 . S
C1165 C1163 1.392 . S
C1165 H1175 0.929 . S
C1166 O1146 1.266 . S
C1166 O1147 1.248 . S
C1167 Tb1103 2.802 . S
C1167 O1142 1.264 . S
C1167 O1145 1.256 . S
C1167 C1160 1.496 . S
H1168 C1151 0.929 . S
H1169 C1152 0.929 . S
H1170 C1153 0.929 . S
H1171 C1154 0.913 1_554 S
H1172 C1162 0.929 . S
H1173 C1163 0.929 . S
H1174 C1164 0.931 . S
H1175 C1165 0.929 . S
Tb1176 N1205 2.617 . S
Tb1176 N1211 2.572 . S
Tb1176 O1220 2.465 . S
Tb1176 O1221 2.387 . S
Tb1176 O1223 2.428 . S
Tb1176 O1224 2.308 . S
Tb1176 O1228 2.349 1_565 S
Tb1176 O1231 2.393 1_565 S
Tb1176 C1240 2.802 . S
C1177 N1178 1.379 . S
C1177 C1180 1.416 . S
C1177 C1184 1.424 . S
N1178 C1177 1.379 . S
N1178 C1181 1.334 . S
N1178 Tb1187 2.617 . S
C1179 C1181 1.390 . S
C1179 C1182 1.339 . S
C1179 H1199 0.930 1_545 S
C1180 C1177 1.416 . S
C1180 C1182 1.416 . S
C1180 C1186 1.448 . S
C1181 N1178 1.334 . S
C1181 C1179 1.390 . S
C1181 H1192 0.930 1_545 S
C1182 C1179 1.339 . S
C1182 C1180 1.416 . S
C1182 H1203 0.930 . S
C1183 C1184 1.413 . S
C1183 C1185 1.427 . S
C1183 C1189 1.416 . S
C1184 C1177 1.424 . S
C1184 C1183 1.413 . S
C1184 N1188 1.361 . S
C1185 C1183 1.427 . S
C1185 C1186 1.328 . S
C1185 H1200 0.929 . S
C1186 C1180 1.448 . S
C1186 C1185 1.328 . S
C1186 H1201 0.930 . S
Tb1187 N1178 2.617 . S
Tb1187 N1188 2.572 . S
Tb1187 O1222 2.349 . S
Tb1187 O1225 2.393 1_545 S
Tb1187 O1226 2.465 . S
Tb1187 O1227 2.387 . S
Tb1187 O1229 2.428 . S
Tb1187 O1230 2.308 . S
Tb1187 C1251 2.802 . S
N1188 C1184 1.361 . S
N1188 Tb1187 2.572 . S
N1188 C1190 1.340 . S
C1189 C1183 1.416 . S
C1189 C1191 1.332 . S
C1189 H1197 0.931 . S
C1190 N1188 1.340 . S
C1190 C1191 1.407 . S
C1190 H1196 0.930 . S
C1191 C1189 1.332 . S
C1191 C1190 1.407 . S
C1191 H1193 0.929 . S
H1192 C1181 0.930 1_565 S
H1193 C1191 0.929 . S
H1194 C1209 0.930 . S
H1195 C1216 0.929 . S
H1196 C1190 0.930 . S
H1197 C1189 0.931 . S
H1198 C1212 0.930 . S
H1199 C1179 0.930 1_565 S
H1200 C1185 0.929 . S
H1201 C1186 0.930 . S
H1202 C1207 0.930 . S
H1203 C1182 0.930 . S
H1204 C1215 0.931 . S
N1205 Tb1176 2.617 . S
N1205 C1206 1.379 . S
N1205 C1209 1.334 1_565 S
C1206 N1205 1.379 . S
C1206 C1208 1.416 . S
C1206 C1214 1.424 . S
C1207 H1202 0.930 . S
C1207 C1209 1.390 . S
C1207 C1210 1.339 1_545 S
C1208 C1206 1.416 . S
C1208 C1210 1.416 . S
C1208 C1241 1.448 . S
C1209 H1194 0.930 . S
C1209 N1205 1.334 1_545 S
C1209 C1207 1.390 . S
C1210 C1207 1.339 1_565 S
C1210 C1208 1.416 . S
C1210 H1217 0.930 . S
N1211 Tb1176 2.572 . S
N1211 C1212 1.340 . S
N1211 C1214 1.361 . S
C1212 H1198 0.930 . S
C1212 N1211 1.340 . S
C1212 C1216 1.407 . S
C1213 C1214 1.413 . S
C1213 C1215 1.416 . S
C1213 C1242 1.427 . S
C1214 C1206 1.424 . S
C1214 N1211 1.361 . S
C1214 C1213 1.413 . S
C1215 H1204 0.931 . S
C1215 C1213 1.416 . S
C1215 C1216 1.332 . S
C1216 H1195 0.929 . S
C1216 C1212 1.407 . S
C1216 C1215 1.332 . S
H1217 C1210 0.930 . S
H1218 C1241 0.930 . S
H1219 C1242 0.929 . S
O1220 Tb1176 2.465 . S
O1220 C1240 1.264 . S
O1221 Tb1176 2.387 . S
O1221 C1232 1.264 . S
O1222 Tb1187 2.349 . S
O1222 C1232 1.243 1_545 S
O1223 Tb1176 2.428 . S
O1223 C1240 1.256 . S
O1224 Tb1176 2.308 . S
O1224 C1239 1.266 . S
O1225 Tb1187 2.393 1_565 S
O1225 C1239 1.248 . S
O1226 Tb1187 2.465 . S
O1226 C1251 1.264 . S
O1227 Tb1187 2.387 . S
O1227 C1243 1.264 . S
O1228 Tb1176 2.349 1_545 S
O1228 C1243 1.243 . S
O1229 Tb1187 2.428 . S
O1229 C1251 1.256 . S
O1230 Tb1187 2.308 . S
O1230 C1250 1.266 . S
O1231 Tb1176 2.393 1_545 S
O1231 C1250 1.248 . S
C1232 O1221 1.264 . S
C1232 O1222 1.243 1_565 S
C1233 C1236 1.399 . S
C1233 C1238 1.383 . S
C1233 C1240 1.496 . S
C1234 C1235 1.399 . S
C1234 C1238 1.389 . S
C1235 C1234 1.399 . S
C1235 C1237 1.380 . S
C1235 H1252 0.929 . S
C1236 C1233 1.399 . S
C1236 C1237 1.392 . S
C1236 H1253 0.929 . S
C1237 C1235 1.380 . S
C1237 C1236 1.392 . S
C1237 H1254 0.929 . S
C1238 C1233 1.383 . S
C1238 C1234 1.389 . S
C1238 H1255 0.931 . S
C1239 O1224 1.266 . S
C1239 O1225 1.248 . S
C1240 Tb1176 2.802 . S
C1240 O1220 1.264 . S
C1240 O1223 1.256 . S
C1240 C1233 1.496 . S
C1241 C1208 1.448 . S
C1241 H1218 0.930 . S
C1241 C1242 1.328 . S
C1242 C1213 1.427 . S
C1242 H1219 0.929 . S
C1242 C1241 1.328 . S
C1243 O1227 1.264 . S
C1243 O1228 1.243 . S
C1244 C1247 1.399 . S
C1244 C1248 1.383 . S
C1244 C1251 1.496 . S
C1245 C1246 1.399 . S
C1245 C1248 1.389 . S
C1246 C1245 1.399 . S
C1246 C1249 1.380 . S
C1246 H1256 0.929 . S
C1247 C1244 1.399 . S
C1247 C1249 1.392 . S
C1247 H1257 0.929 . S
C1248 C1244 1.383 . S
C1248 C1245 1.389 . S
C1248 H1258 0.931 . S
C1249 C1246 1.380 . S
C1249 C1247 1.392 . S
C1249 H1259 0.929 . S
C1250 O1230 1.266 . S
C1250 O1231 1.248 . S
C1251 Tb1187 2.802 . S
C1251 O1226 1.264 . S
C1251 O1229 1.256 . S
C1251 C1244 1.496 . S
H1252 C1235 0.929 . S
H1253 C1236 0.929 . S
H1254 C1237 0.929 . S
H1255 C1238 0.931 . S
H1256 C1246 0.929 . S
H1257 C1247 0.929 . S
H1258 C1248 0.931 . S
H1259 C1249 0.929 . S
Tb1260 N1289 2.617 . S
Tb1260 N1295 2.572 . S
Tb1260 O1304 2.465 . S
Tb1260 O1305 2.387 . S
Tb1260 O1307 2.428 . S
Tb1260 O1308 2.308 1_554 S
Tb1260 O1312 2.349 1_554 S
Tb1260 O1315 2.393 . S
Tb1260 C1324 2.802 . S
C1261 N1262 1.379 . S
C1261 C1264 1.416 . S
C1261 C1268 1.424 . S
N1262 C1261 1.379 . S
N1262 C1265 1.334 . S
N1262 Tb1271 2.617 . S
C1263 C1265 1.390 . S
C1263 C1266 1.339 . S
C1263 H1283 0.930 . S
C1264 C1261 1.416 . S
C1264 C1266 1.416 . S
C1264 C1270 1.448 . S
C1265 N1262 1.334 . S
C1265 C1263 1.390 . S
C1265 H1276 0.930 . S
C1266 C1263 1.339 . S
C1266 C1264 1.416 . S
C1266 H1287 0.930 . S
C1267 C1268 1.413 . S
C1267 C1269 1.427 . S
C1267 C1273 1.416 . S
C1268 C1261 1.424 . S
C1268 C1267 1.413 . S
C1268 N1272 1.361 . S
C1269 C1267 1.427 . S
C1269 C1270 1.328 . S
C1269 H1284 0.929 . S
C1270 C1264 1.448 . S
C1270 C1269 1.328 . S
C1270 H1285 0.930 . S
Tb1271 N1262 2.617 . S
Tb1271 N1272 2.572 . S
Tb1271 O1306 2.349 1_556 S
Tb1271 O1309 2.393 . S
Tb1271 O1310 2.465 . S
Tb1271 O1311 2.387 . S
Tb1271 O1313 2.428 . S
Tb1271 O1314 2.308 1_556 S
Tb1271 C1335 2.802 . S
N1272 C1268 1.361 . S
N1272 Tb1271 2.572 . S
N1272 C1274 1.340 . S
C1273 C1267 1.416 . S
C1273 C1275 1.332 . S
C1273 H1281 0.931 . S
C1274 N1272 1.340 . S
C1274 C1275 1.407 . S
C1274 H1280 0.930 . S
C1275 C1273 1.332 . S
C1275 C1274 1.407 . S
C1275 H1277 0.929 . S
H1276 C1265 0.930 . S
H1277 C1275 0.929 . S
H1278 C1293 0.930 . S
H1279 C1300 0.929 . S
H1280 C1274 0.930 . S
H1281 C1273 0.931 . S
H1282 C1296 0.930 . S
H1283 C1263 0.930 . S
H1284 C1269 0.929 . S
H1285 C1270 0.930 . S
H1286 C1291 0.930 . S
H1287 C1266 0.930 . S
H1288 C1299 0.931 . S
N1289 Tb1260 2.617 . S
N1289 C1290 1.379 . S
N1289 C1293 1.334 . S
C1290 N1289 1.379 . S
C1290 C1292 1.416 . S
C1290 C1298 1.424 . S
C1291 H1286 0.930 . S
C1291 C1293 1.390 . S
C1291 C1294 1.339 . S
C1292 C1290 1.416 . S
C1292 C1294 1.416 . S
C1292 C1325 1.448 . S
C1293 H1278 0.930 . S
C1293 N1289 1.334 . S
C1293 C1291 1.390 . S
C1294 C1291 1.339 . S
C1294 C1292 1.416 . S
C1294 H1301 0.930 . S
N1295 Tb1260 2.572 . S
N1295 C1296 1.340 . S
N1295 C1298 1.361 . S
C1296 H1282 0.930 . S
C1296 N1295 1.340 . S
C1296 C1300 1.407 . S
C1297 C1298 1.413 . S
C1297 C1299 1.416 . S
C1297 C1326 1.427 . S
C1298 C1290 1.424 . S
C1298 N1295 1.361 . S
C1298 C1297 1.413 . S
C1299 H1288 0.931 . S
C1299 C1297 1.416 . S
C1299 C1300 1.332 . S
C1300 H1279 0.929 . S
C1300 C1296 1.407 . S
C1300 C1299 1.332 . S
H1301 C1294 0.930 . S
H1302 C1325 0.930 . S
H1303 C1326 0.929 . S
O1304 Tb1260 2.465 . S
O1304 C1324 1.264 . S
O1305 Tb1260 2.387 . S
O1305 C1316 1.264 . S
O1306 Tb1271 2.349 1_554 S
O1306 C1316 1.243 . S
O1307 Tb1260 2.428 . S
O1307 C1324 1.256 . S
O1308 Tb1260 2.308 1_556 S
O1308 C1323 1.266 . S
O1309 Tb1271 2.393 . S
O1309 C1323 1.248 . S
O1310 Tb1271 2.465 . S
O1310 C1335 1.264 . S
O1311 Tb1271 2.387 . S
O1311 C1327 1.264 . S
O1312 Tb1260 2.349 1_556 S
O1312 C1327 1.243 . S
O1313 Tb1271 2.428 . S
O1313 C1335 1.256 . S
O1314 Tb1271 2.308 1_554 S
O1314 C1334 1.266 . S
O1315 Tb1260 2.393 . S
O1315 C1334 1.248 . S
C1316 O1305 1.264 . S
C1316 O1306 1.243 . S
C1317 C1320 1.399 . S
C1317 C1322 1.383 . S
C1317 C1324 1.496 . S
C1318 C1319 1.399 . S
C1318 C1322 1.389 . S
C1319 C1318 1.399 . S
C1319 C1321 1.380 . S
C1319 H1336 0.929 . S
C1320 C1317 1.399 . S
C1320 C1321 1.392 . S
C1320 H1337 0.929 . S
C1321 C1319 1.380 . S
C1321 C1320 1.392 . S
C1321 H1338 0.929 . S
C1322 C1317 1.383 . S
C1322 C1318 1.389 . S
C1322 H1339 0.931 . S
C1323 O1308 1.266 . S
C1323 O1309 1.248 . S
C1324 Tb1260 2.802 . S
C1324 O1304 1.264 . S
C1324 O1307 1.256 . S
C1324 C1317 1.496 . S
C1325 C1292 1.448 . S
C1325 H1302 0.930 . S
C1325 C1326 1.328 . S
C1326 C1297 1.427 . S
C1326 H1303 0.929 . S
C1326 C1325 1.328 . S
C1327 O1311 1.264 . S
C1327 O1312 1.243 . S
C1328 C1331 1.399 . S
C1328 C1332 1.383 . S
C1328 C1335 1.496 . S
C1329 C1330 1.399 . S
C1329 C1332 1.389 . S
C1330 C1329 1.399 . S
C1330 C1333 1.380 . S
C1330 H1340 0.929 . S
C1331 C1328 1.399 . S
C1331 C1333 1.392 . S
C1331 H1341 0.929 . S
C1332 C1328 1.383 . S
C1332 C1329 1.389 . S
C1332 H1342 0.931 . S
C1333 C1330 1.380 . S
C1333 C1331 1.392 . S
C1333 H1343 0.929 . S
C1334 O1314 1.266 . S
C1334 O1315 1.248 . S
C1335 Tb1271 2.802 . S
C1335 O1310 1.264 . S
C1335 O1313 1.256 . S
C1335 C1328 1.496 . S
H1336 C1319 0.929 . S
H1337 C1320 0.929 . S
H1338 C1321 0.929 . S
H1339 C1322 0.931 . S
H1340 C1330 0.929 . S
H1341 C1331 0.929 . S
H1342 C1332 0.931 . S
H1343 C1333 0.929 . S
H1344 C1356 0.930 . S
H1345 C1358 0.930 . S
H1346 C1359 0.930 . S
H1347 C1363 0.959 . S
H1348 C1363 0.959 . S
H1349 C1363 0.961 1_556 S
H1350 C1364 0.960 . S
H1351 C1364 0.961 . S
H1352 C1364 0.959 . S
H1353 C1367 0.929 . S
H1354 C1368 0.931 . S
H1355 C1370 0.930 . S
C1356 H1344 0.930 . S
C1356 C1357 1.399 . S
C1356 C1361 1.399 . S
C1357 C1356 1.399 . S
C1357 C1358 1.376 . S
C1358 H1345 0.930 . S
C1358 C1357 1.376 . S
C1358 C1359 1.388 . S
C1359 H1346 0.930 . S
C1359 C1358 1.388 . S
C1359 C1360 1.390 . S
C1360 C1359 1.390 . S
C1360 C1361 1.394 . S
C1360 C1366 1.465 1_655 S
C1361 C1356 1.399 . S
C1361 C1360 1.394 . S
C1361 C1362 1.516 1_655 S
C1362 C1361 1.516 1_455 S
C1362 C1363 1.502 . S
C1362 C1364 1.561 1_455 S
C1362 C1365 1.526 . S
C1363 H1347 0.959 . S
C1363 H1348 0.959 . S
C1363 H1349 0.961 1_554 S
C1363 C1362 1.502 . S
C1364 H1350 0.960 . S
C1364 H1351 0.961 . S
C1364 H1352 0.959 . S
C1364 C1362 1.561 1_655 S
C1365 C1362 1.526 . S
C1365 C1366 1.396 . S
C1365 C1370 1.390 . S
C1366 C1360 1.465 1_455 S
C1366 C1365 1.396 . S
C1366 C1367 1.399 . S
C1367 H1353 0.929 . S
C1367 C1366 1.399 . S
C1367 C1368 1.385 . S
C1368 H1354 0.931 . S
C1368 C1367 1.385 . S
C1368 C1369 1.389 . S
C1369 C1368 1.389 . S
C1369 C1370 1.387 . S
C1370 H1355 0.930 . S
C1370 C1365 1.390 . S
C1370 C1369 1.387 . S
H1371 C1383 0.930 . S
H1372 C1385 0.930 . S
H1373 C1386 0.930 . S
H1374 C1390 0.959 . S
H1375 C1390 0.959 . S
H1376 C1390 0.961 . S
H1377 C1391 0.960 . S
H1378 C1391 0.961 . S
H1379 C1391 0.959 . S
H1380 C1394 0.929 . S
H1381 C1395 0.931 . S
H1382 C1397 0.930 . S
C1383 H1371 0.930 . S
C1383 C1384 1.399 . S
C1383 C1388 1.399 . S
C1384 C1383 1.399 . S
C1384 C1385 1.376 . S
C1385 H1372 0.930 . S
C1385 C1384 1.376 . S
C1385 C1386 1.388 . S
C1386 H1373 0.930 . S
C1386 C1385 1.388 . S
C1386 C1387 1.390 . S
C1387 C1386 1.390 . S
C1387 C1388 1.394 . S
C1387 C1393 1.465 . S
C1388 C1383 1.399 . S
C1388 C1387 1.394 . S
C1388 C1389 1.516 . S
C1389 C1388 1.516 . S
C1389 C1390 1.502 . S
C1389 C1391 1.561 . S
C1389 C1392 1.526 . S
C1390 H1374 0.959 . S
C1390 H1375 0.959 . S
C1390 H1376 0.961 . S
C1390 C1389 1.502 . S
C1391 H1377 0.960 . S
C1391 H1378 0.961 . S
C1391 H1379 0.959 . S
C1391 C1389 1.561 . S
C1392 C1389 1.526 . S
C1392 C1393 1.396 . S
C1392 C1397 1.390 . S
C1393 C1387 1.465 . S
C1393 C1392 1.396 . S
C1393 C1394 1.399 . S
C1394 H1380 0.929 . S
C1394 C1393 1.399 . S
C1394 C1395 1.385 . S
C1395 H1381 0.931 . S
C1395 C1394 1.385 . S
C1395 C1396 1.389 . S
C1396 C1395 1.389 . S
C1396 C1397 1.387 . S
C1397 H1382 0.930 . S
C1397 C1392 1.390 . S
C1397 C1396 1.387 . S
H1398 C1410 0.930 . S
H1399 C1412 0.930 . S
H1400 C1413 0.930 . S
H1401 C1417 0.959 . S
H1402 C1417 0.959 . S
H1403 C1417 0.961 . S
H1404 C1418 0.960 . S
H1405 C1418 0.961 . S
H1406 C1418 0.959 . S
H1407 C1421 0.929 . S
H1408 C1422 0.931 . S
H1409 C1424 0.930 . S
C1410 H1398 0.930 . S
C1410 C1411 1.399 . S
C1410 C1415 1.399 . S
C1411 C1410 1.399 . S
C1411 C1412 1.376 . S
C1412 H1399 0.930 . S
C1412 C1411 1.376 . S
C1412 C1413 1.388 . S
C1413 H1400 0.930 . S
C1413 C1412 1.388 . S
C1413 C1414 1.390 . S
C1414 C1413 1.390 . S
C1414 C1415 1.394 . S
C1414 C1420 1.465 . S
C1415 C1410 1.399 . S
C1415 C1414 1.394 . S
C1415 C1416 1.516 . S
C1416 C1415 1.516 . S
C1416 C1417 1.502 . S
C1416 C1418 1.561 . S
C1416 C1419 1.526 . S
C1417 H1401 0.959 . S
C1417 H1402 0.959 . S
C1417 H1403 0.961 . S
C1417 C1416 1.502 . S
C1418 H1404 0.960 . S
C1418 H1405 0.961 . S
C1418 H1406 0.959 . S
C1418 C1416 1.561 . S
C1419 C1416 1.526 . S
C1419 C1420 1.396 . S
C1419 C1424 1.390 . S
C1420 C1414 1.465 . S
C1420 C1419 1.396 . S
C1420 C1421 1.399 . S
C1421 H1407 0.929 . S
C1421 C1420 1.399 . S
C1421 C1422 1.385 . S
C1422 H1408 0.931 . S
C1422 C1421 1.385 . S
C1422 C1423 1.389 . S
C1423 C1422 1.389 . S
C1423 C1424 1.387 . S
C1424 H1409 0.930 . S
C1424 C1419 1.390 . S
C1424 C1423 1.387 . S
H1425 C1437 0.929 . S
H1426 C1439 0.930 . S
H1427 C1440 0.930 . S
H1428 C1444 0.959 . S
H1429 C1444 0.959 . S
H1430 C1444 0.961 . S
H1431 C1445 0.960 1_554 S
H1432 C1445 0.961 . S
H1433 C1445 0.959 1_545 S
H1434 C1448 0.929 . S
H1435 C1449 0.931 . S
H1436 C1451 0.930 . S
C1437 H1425 0.929 . S
C1437 C1438 1.399 . S
C1437 C1442 1.399 . S
C1438 C1437 1.399 . S
C1438 C1439 1.376 . S
C1439 H1426 0.930 . S
C1439 C1438 1.376 . S
C1439 C1440 1.388 . S
C1440 H1427 0.930 . S
C1440 C1439 1.388 . S
C1440 C1441 1.390 . S
C1441 C1440 1.390 . S
C1441 C1442 1.394 . S
C1441 C1447 1.465 . S
C1442 C1437 1.399 . S
C1442 C1441 1.394 . S
C1442 C1443 1.516 1_545 S
C1443 C1442 1.516 1_565 S
C1443 C1444 1.502 . S
C1443 C1445 1.561 . S
C1443 C1446 1.526 . S
C1444 H1428 0.959 . S
C1444 H1429 0.959 . S
C1444 H1430 0.961 . S
C1444 C1443 1.502 . S
C1445 H1431 0.960 1_556 S
C1445 H1432 0.961 . S
C1445 H1433 0.959 1_565 S
C1445 C1443 1.561 . S
C1446 C1443 1.526 . S
C1446 C1447 1.396 1_565 S
C1446 C1451 1.390 . S
C1447 C1441 1.465 . S
C1447 C1446 1.396 1_545 S
C1447 C1448 1.399 . S
C1448 H1434 0.929 . S
C1448 C1447 1.399 . S
C1448 C1449 1.385 . S
C1449 H1435 0.931 . S
C1449 C1448 1.385 . S
C1449 C1450 1.389 1_545 S
C1450 C1449 1.389 1_565 S
C1450 C1451 1.387 . S
C1451 H1436 0.930 . S
C1451 C1446 1.390 . S
C1451 C1450 1.387 . S
H1452 C1464 0.930 . S
H1453 C1466 0.930 . S
H1454 C1467 0.930 . S
H1455 C1471 0.959 . S
H1456 C1471 0.959 . S
H1457 C1471 0.961 . S
H1458 C1472 0.931 1_566 S
H1459 C1472 0.961 . S
H1460 C1472 0.959 . S
H1461 C1475 0.929 . S
H1462 C1476 0.931 . S
H1463 C1478 0.930 . S
C1464 H1452 0.930 . S
C1464 C1465 1.399 . S
C1464 C1469 1.399 . S
C1465 C1464 1.399 . S
C1465 C1466 1.376 1_565 S
C1466 H1453 0.930 . S
C1466 C1465 1.376 1_545 S
C1466 C1467 1.388 . S
C1467 H1454 0.930 . S
C1467 C1466 1.388 . S
C1467 C1468 1.390 . S
C1468 C1467 1.390 . S
C1468 C1469 1.394 1_545 S
C1468 C1474 1.465 . S
C1469 C1464 1.399 . S
C1469 C1468 1.394 1_565 S
C1469 C1470 1.516 . S
C1470 C1469 1.516 . S
C1470 C1471 1.502 . S
C1470 C1472 1.561 1_565 S
C1470 C1473 1.526 1_565 S
C1471 H1455 0.959 . S
C1471 H1456 0.959 . S
C1471 H1457 0.961 . S
C1471 C1470 1.502 . S
C1472 H1458 0.931 1_544 S
C1472 H1459 0.961 . S
C1472 H1460 0.959 . S
C1472 C1470 1.561 1_545 S
C1473 C1470 1.526 1_545 S
C1473 C1474 1.396 . S
C1473 C1478 1.390 . S
C1474 C1468 1.465 . S
C1474 C1473 1.396 . S
C1474 C1475 1.399 . S
C1475 H1461 0.929 . S
C1475 C1474 1.399 . S
C1475 C1476 1.385 . S
C1476 H1462 0.931 . S
C1476 C1475 1.385 . S
C1476 C1477 1.389 . S
C1477 C1476 1.389 . S
C1477 C1478 1.387 . S
C1478 H1463 0.930 . S
C1478 C1473 1.390 . S
C1478 C1477 1.387 . S
H1479 C1491 0.930 . S
H1480 C1493 0.930 . S
H1481 C1494 0.930 . S
H1482 C1498 0.959 . S
H1483 C1498 0.959 . S
H1484 C1498 0.961 . S
H1485 C1499 0.960 . S
H1486 C1499 0.961 . S
H1487 C1499 0.959 . S
H1488 C1502 0.929 . S
H1489 C1503 0.931 . S
H1490 C1505 0.930 . S
C1491 H1479 0.930 . S
C1491 C1492 1.399 . S
C1491 C1496 1.399 . S
C1492 C1491 1.399 . S
C1492 C1493 1.376 . S
C1493 H1480 0.930 . S
C1493 C1492 1.376 . S
C1493 C1494 1.388 . S
C1494 H1481 0.930 . S
C1494 C1493 1.388 . S
C1494 C1495 1.390 . S
C1495 C1494 1.390 . S
C1495 C1496 1.394 . S
C1495 C1501 1.465 1_455 S
C1496 C1491 1.399 . S
C1496 C1495 1.394 . S
C1496 C1497 1.516 . S
C1497 C1496 1.516 . S
C1497 C1498 1.502 1_455 S
C1497 C1499 1.561 . S
C1497 C1500 1.526 1_455 S
C1498 H1482 0.959 . S
C1498 H1483 0.959 . S
C1498 H1484 0.961 . S
C1498 C1497 1.502 1_655 S
C1499 H1485 0.960 . S
C1499 H1486 0.961 . S
C1499 H1487 0.959 . S
C1499 C1497 1.561 . S
C1500 C1497 1.526 1_655 S
C1500 C1501 1.396 . S
C1500 C1505 1.390 . S
C1501 C1495 1.465 1_655 S
C1501 C1500 1.396 . S
C1501 C1502 1.399 . S
C1502 H1488 0.929 . S
C1502 C1501 1.399 . S
C1502 C1503 1.385 . S
C1503 H1489 0.931 . S
C1503 C1502 1.385 . S
C1503 C1504 1.389 . S
C1504 C1503 1.389 . S
C1504 C1505 1.387 . S
C1505 H1490 0.930 . S
C1505 C1500 1.390 . S
C1505 C1504 1.387 . S
H1506 C1518 0.930 . S
H1507 C1520 0.930 . S
H1508 C1521 0.930 . S
H1509 C1525 0.959 . S
H1510 C1525 0.959 . S
H1511 C1525 0.961 . S
H1512 C1526 0.960 . S
H1513 C1526 0.961 . S
H1514 C1526 0.959 . S
H1515 C1529 0.929 . S
H1516 C1530 0.931 . S
H1517 C1532 0.930 . S
C1518 H1506 0.930 . S
C1518 C1519 1.399 . S
C1518 C1523 1.399 . S
C1519 C1518 1.399 . S
C1519 C1520 1.376 . S
C1520 H1507 0.930 . S
C1520 C1519 1.376 . S
C1520 C1521 1.388 . S
C1521 H1508 0.930 . S
C1521 C1520 1.388 . S
C1521 C1522 1.390 . S
C1522 C1521 1.390 . S
C1522 C1523 1.394 . S
C1522 C1528 1.465 . S
C1523 C1518 1.399 . S
C1523 C1522 1.394 . S
C1523 C1524 1.516 . S
C1524 C1523 1.516 . S
C1524 C1525 1.502 . S
C1524 C1526 1.561 . S
C1524 C1527 1.526 . S
C1525 H1509 0.959 . S
C1525 H1510 0.959 . S
C1525 H1511 0.961 . S
C1525 C1524 1.502 . S
C1526 H1512 0.960 . S
C1526 H1513 0.961 . S
C1526 H1514 0.959 . S
C1526 C1524 1.561 . S
C1527 C1524 1.526 . S
C1527 C1528 1.396 . S
C1527 C1532 1.390 . S
C1528 C1522 1.465 . S
C1528 C1527 1.396 . S
C1528 C1529 1.399 . S
C1529 H1515 0.929 . S
C1529 C1528 1.399 . S
C1529 C1530 1.385 . S
C1530 H1516 0.931 . S
C1530 C1529 1.385 . S
C1530 C1531 1.389 . S
C1531 C1530 1.389 . S
C1531 C1532 1.387 . S
C1532 H1517 0.930 . S
C1532 C1527 1.390 . S
C1532 C1531 1.387 . S
H1533 C1545 0.930 . S
H1534 C1547 0.930 . S
H1535 C1548 0.930 . S
H1536 C1552 0.959 . S
H1537 C1552 0.959 . S
H1538 C1552 0.961 . S
H1539 C1553 0.960 . S
H1540 C1553 0.961 . S
H1541 C1553 0.959 . S
H1542 C1556 0.929 . S
H1543 C1557 0.931 . S
H1544 C1559 0.930 . S
C1545 H1533 0.930 . S
C1545 C1546 1.399 . S
C1545 C1550 1.399 . S
C1546 C1545 1.399 . S
C1546 C1547 1.376 . S
C1547 H1534 0.930 . S
C1547 C1546 1.376 . S
C1547 C1548 1.388 . S
C1548 H1535 0.930 . S
C1548 C1547 1.388 . S
C1548 C1549 1.390 . S
C1549 C1548 1.390 . S
C1549 C1550 1.394 . S
C1549 C1555 1.465 . S
C1550 C1545 1.399 . S
C1550 C1549 1.394 . S
C1550 C1551 1.516 . S
C1551 C1550 1.516 . S
C1551 C1552 1.502 . S
C1551 C1553 1.561 . S
C1551 C1554 1.526 . S
C1552 H1536 0.959 . S
C1552 H1537 0.959 . S
C1552 H1538 0.961 . S
C1552 C1551 1.502 . S
C1553 H1539 0.960 . S
C1553 H1540 0.961 . S
C1553 H1541 0.959 . S
C1553 C1551 1.561 . S
C1554 C1551 1.526 . S
C1554 C1555 1.396 . S
C1554 C1559 1.390 . S
C1555 C1549 1.465 . S
C1555 C1554 1.396 . S
C1555 C1556 1.399 . S
C1556 H1542 0.929 . S
C1556 C1555 1.399 . S
C1556 C1557 1.385 . S
C1557 H1543 0.931 . S
C1557 C1556 1.385 . S
C1557 C1558 1.389 . S
C1558 C1557 1.389 . S
C1558 C1559 1.387 . S
C1559 H1544 0.930 . S
C1559 C1554 1.390 . S
C1559 C1558 1.387 . S
H1560 C1572 0.930 . S
H1561 C1574 0.930 . S
H1562 C1575 0.930 . S
H1563 C1579 0.959 . S
H1564 C1579 0.959 . S
H1565 C1579 0.961 . S
H1566 C1580 0.960 . S
H1567 C1580 0.961 . S
H1568 C1580 0.959 . S
H1569 C1583 0.929 . S
H1570 C1584 0.931 . S
H1571 C1586 0.930 . S
C1572 H1560 0.930 . S
C1572 C1573 1.399 . S
C1572 C1577 1.399 . S
C1573 C1572 1.399 . S
C1573 C1574 1.376 . S
C1574 H1561 0.930 . S
C1574 C1573 1.376 . S
C1574 C1575 1.388 . S
C1575 H1562 0.930 . S
C1575 C1574 1.388 . S
C1575 C1576 1.390 . S
C1576 C1575 1.390 . S
C1576 C1577 1.394 . S
C1576 C1582 1.465 . S
C1577 C1572 1.399 . S
C1577 C1576 1.394 . S
C1577 C1578 1.516 . S
C1578 C1577 1.516 . S
C1578 C1579 1.502 . S
C1578 C1580 1.561 . S
C1578 C1581 1.526 . S
C1579 H1563 0.959 . S
C1579 H1564 0.959 . S
C1579 H1565 0.961 . S
C1579 C1578 1.502 . S
C1580 H1566 0.960 . S
C1580 H1567 0.961 . S
C1580 H1568 0.959 . S
C1580 C1578 1.561 . S
C1581 C1578 1.526 . S
C1581 C1582 1.396 . S
C1581 C1586 1.390 . S
C1582 C1576 1.465 . S
C1582 C1581 1.396 . S
C1582 C1583 1.399 . S
C1583 H1569 0.929 . S
C1583 C1582 1.399 . S
C1583 C1584 1.385 . S
C1584 H1570 0.931 . S
C1584 C1583 1.385 . S
C1584 C1585 1.389 . S
C1585 C1584 1.389 . S
C1585 C1586 1.387 . S
C1586 H1571 0.930 . S
C1586 C1581 1.390 . S
C1586 C1585 1.387 . S
H1587 C1599 0.930 . S
H1588 C1601 0.930 . S
H1589 C1602 0.930 . S
H1590 C1606 0.959 . S
H1591 C1606 0.959 . S
H1592 C1606 0.961 . S
H1593 C1607 0.960 . S
H1594 C1607 0.961 . S
H1595 C1607 0.959 . S
H1596 C1610 0.929 . S
H1597 C1611 0.931 . S
H1598 C1613 0.930 . S
C1599 H1587 0.930 . S
C1599 C1600 1.399 . S
C1599 C1604 1.399 . S
C1600 C1599 1.399 . S
C1600 C1601 1.376 . S
C1601 H1588 0.930 . S
C1601 C1600 1.376 . S
C1601 C1602 1.388 . S
C1602 H1589 0.930 . S
C1602 C1601 1.388 . S
C1602 C1603 1.390 . S
C1603 C1602 1.390 . S
C1603 C1604 1.394 . S
C1603 C1609 1.465 . S
C1604 C1599 1.399 . S
C1604 C1603 1.394 . S
C1604 C1605 1.516 . S
C1605 C1604 1.516 . S
C1605 C1606 1.502 . S
C1605 C1607 1.561 . S
C1605 C1608 1.526 . S
C1606 H1590 0.959 . S
C1606 H1591 0.959 . S
C1606 H1592 0.961 . S
C1606 C1605 1.502 . S
C1607 H1593 0.960 . S
C1607 H1594 0.961 . S
C1607 H1595 0.959 . S
C1607 C1605 1.561 . S
C1608 C1605 1.526 . S
C1608 C1609 1.396 . S
C1608 C1613 1.390 . S
C1609 C1603 1.465 . S
C1609 C1608 1.396 . S
C1609 C1610 1.399 . S
C1610 H1596 0.929 . S
C1610 C1609 1.399 . S
C1610 C1611 1.385 . S
C1611 H1597 0.931 . S
C1611 C1610 1.385 . S
C1611 C1612 1.389 . S
C1612 C1611 1.389 . S
C1612 C1613 1.387 . S
C1613 H1598 0.930 . S
C1613 C1608 1.390 . S
C1613 C1612 1.387 . S
H1614 C1626 0.930 . S
H1615 C1628 0.930 . S
H1616 C1629 0.930 1_545 S
H1617 C1633 0.959 . S
H1618 C1633 0.959 . S
H1619 C1633 0.961 . S
H1620 C1634 0.960 . S
H1621 C1634 0.961 . S
H1622 C1634 0.959 . S
H1623 C1637 0.929 . S
H1624 C1638 0.931 . S
H1625 C1640 0.930 . S
C1626 H1614 0.930 . S
C1626 C1627 1.399 . S
C1626 C1631 1.399 . S
C1627 C1626 1.399 . S
C1627 C1628 1.376 . S
C1628 H1615 0.930 . S
C1628 C1627 1.376 . S
C1628 C1629 1.388 . S
C1629 H1616 0.930 1_565 S
C1629 C1628 1.388 . S
C1629 C1630 1.390 1_565 S
C1630 C1629 1.390 1_545 S
C1630 C1631 1.394 1_545 S
C1630 C1636 1.465 . S
C1631 C1626 1.399 . S
C1631 C1630 1.394 1_565 S
C1631 C1632 1.516 1_565 S
C1632 C1631 1.516 1_545 S
C1632 C1633 1.502 . S
C1632 C1634 1.561 1_545 S
C1632 C1635 1.526 . S
C1633 H1617 0.959 . S
C1633 H1618 0.959 . S
C1633 H1619 0.961 . S
C1633 C1632 1.502 . S
C1634 H1620 0.960 . S
C1634 H1621 0.961 . S
C1634 H1622 0.959 . S
C1634 C1632 1.561 1_565 S
C1635 C1632 1.526 . S
C1635 C1636 1.396 . S
C1635 C1640 1.390 . S
C1636 C1630 1.465 . S
C1636 C1635 1.396 . S
C1636 C1637 1.399 . S
C1637 H1623 0.929 . S
C1637 C1636 1.399 . S
C1637 C1638 1.385 . S
C1638 H1624 0.931 . S
C1638 C1637 1.385 . S
C1638 C1639 1.389 . S
C1639 C1638 1.389 . S
C1639 C1640 1.387 . S
C1640 H1625 0.930 . S
C1640 C1635 1.390 . S
C1640 C1639 1.387 . S
H1641 C1653 0.930 . S
H1642 C1655 0.930 . S
H1643 C1656 0.930 . S
H1644 C1660 0.959 . S
H1645 C1660 0.959 . S
H1646 C1660 0.961 . S
H1647 C1661 0.960 . S
H1648 C1661 0.961 1_655 S
H1649 C1661 0.959 . S
H1650 C1664 0.929 . S
H1651 C1665 0.931 . S
H1652 C1667 0.930 . S
C1653 H1641 0.930 . S
C1653 C1654 1.399 . S
C1653 C1658 1.399 . S
C1654 C1653 1.399 . S
C1654 C1655 1.376 . S
C1655 H1642 0.930 . S
C1655 C1654 1.376 . S
C1655 C1656 1.388 . S
C1656 H1643 0.930 . S
C1656 C1655 1.388 . S
C1656 C1657 1.390 . S
C1657 C1656 1.390 . S
C1657 C1658 1.394 . S
C1657 C1663 1.465 . S
C1658 C1653 1.399 . S
C1658 C1657 1.394 . S
C1658 C1659 1.516 1_455 S
C1659 C1658 1.516 1_655 S
C1659 C1660 1.502 . S
C1659 C1661 1.561 1_655 S
C1659 C1662 1.526 . S
C1660 H1644 0.959 . S
C1660 H1645 0.959 . S
C1660 H1646 0.961 . S
C1660 C1659 1.502 . S
C1661 H1647 0.960 . S
C1661 H1648 0.961 1_455 S
C1661 H1649 0.959 . S
C1661 C1659 1.561 1_455 S
C1662 C1659 1.526 . S
C1662 C1663 1.396 1_655 S
C1662 C1667 1.390 . S
C1663 C1657 1.465 . S
C1663 C1662 1.396 1_455 S
C1663 C1664 1.399 . S
C1664 H1650 0.929 . S
C1664 C1663 1.399 . S
C1664 C1665 1.385 1_455 S
C1665 H1651 0.931 . S
C1665 C1664 1.385 1_655 S
C1665 C1666 1.389 . S
C1666 C1665 1.389 . S
C1666 C1667 1.387 . S
C1667 H1652 0.930 . S
C1667 C1662 1.390 . S
C1667 C1666 1.387 . S
H1668 C1680 0.930 1_554 S
H1669 C1682 0.930 . S
H1670 C1683 0.930 . S
H1671 C1687 0.959 . S
H1672 C1687 0.959 . S
H1673 C1687 0.961 . S
H1674 C1688 0.960 . S
H1675 C1688 0.961 . S
H1676 C1688 0.959 . S
H1677 C1691 0.929 . S
H1678 C1692 0.931 . S
H1679 C1694 0.930 . S
C1680 H1668 0.930 1_556 S
C1680 C1681 1.399 . S
C1680 C1685 1.399 . S
C1681 C1680 1.399 . S
C1681 C1682 1.376 . S
C1682 H1669 0.930 . S
C1682 C1681 1.376 . S
C1682 C1683 1.388 . S
C1683 H1670 0.930 . S
C1683 C1682 1.388 . S
C1683 C1684 1.390 . S
C1684 C1683 1.390 . S
C1684 C1685 1.394 . S
C1684 C1690 1.465 . S
C1685 C1680 1.399 . S
C1685 C1684 1.394 . S
C1685 C1686 1.516 1_556 S
C1686 C1685 1.516 1_554 S
C1686 C1687 1.502 . S
C1686 C1688 1.561 . S
C1686 C1689 1.534 . S
C1687 H1671 0.959 . S
C1687 H1672 0.959 . S
C1687 H1673 0.961 . S
C1687 C1686 1.502 . S
C1688 H1674 0.960 . S
C1688 H1675 0.961 . S
C1688 H1676 0.959 . S
C1688 C1686 1.561 . S
C1689 C1686 1.534 . S
C1689 C1690 1.363 1_554 S
C1689 C1694 1.410 . S
C1690 C1684 1.465 . S
C1690 C1689 1.363 1_556 S
C1690 C1691 1.399 . S
C1691 H1677 0.929 . S
C1691 C1690 1.399 . S
C1691 C1692 1.385 . S
C1692 H1678 0.931 . S
C1692 C1691 1.385 . S
C1692 C1693 1.389 . S
C1693 C1692 1.389 . S
C1693 C1694 1.387 1_556 S
C1694 H1679 0.930 . S
C1694 C1689 1.410 . S
C1694 C1693 1.387 1_554 S
H1695 C1707 0.930 . S
H1696 C1709 0.930 . S
H1697 C1710 0.930 . S
H1698 C1714 0.959 . S
H1699 C1714 0.959 . S
H1700 C1714 0.961 . S
H1701 C1715 0.960 . S
H1702 C1715 0.961 . S
H1703 C1715 0.959 . S
H1704 C1718 0.929 . S
H1705 C1719 0.931 . S
H1706 C1721 0.930 . S
C1707 H1695 0.930 . S
C1707 C1708 1.399 . S
C1707 C1712 1.399 . S
C1708 C1707 1.399 . S
C1708 C1709 1.376 . S
C1709 H1696 0.930 . S
C1709 C1708 1.376 . S
C1709 C1710 1.388 . S
C1710 H1697 0.930 . S
C1710 C1709 1.388 . S
C1710 C1711 1.390 . S
C1711 C1710 1.390 . S
C1711 C1712 1.394 . S
C1711 C1717 1.465 . S
C1712 C1707 1.399 . S
C1712 C1711 1.394 . S
C1712 C1713 1.516 . S
C1713 C1712 1.516 . S
C1713 C1714 1.502 . S
C1713 C1715 1.561 . S
C1713 C1716 1.526 . S
C1714 H1698 0.959 . S
C1714 H1699 0.959 . S
C1714 H1700 0.961 . S
C1714 C1713 1.502 . S
C1715 H1701 0.960 . S
C1715 H1702 0.961 . S
C1715 H1703 0.959 . S
C1715 C1713 1.561 . S
C1716 C1713 1.526 . S
C1716 C1717 1.396 . S
C1716 C1721 1.390 . S
C1717 C1711 1.465 . S
C1717 C1716 1.396 . S
C1717 C1718 1.399 . S
C1718 H1704 0.929 . S
C1718 C1717 1.399 . S
C1718 C1719 1.385 . S
C1719 H1705 0.931 . S
C1719 C1718 1.385 . S
C1719 C1720 1.389 . S
C1720 C1719 1.389 . S
C1720 C1721 1.387 . S
C1721 H1706 0.930 . S
C1721 C1716 1.390 . S
C1721 C1720 1.387 . S
H1722 C1734 0.930 . S
H1723 C1736 0.930 . S
H1724 C1737 0.930 . S
H1725 C1741 0.959 . S
H1726 C1741 0.959 . S
H1727 C1741 0.961 . S
H1728 C1742 0.960 . S
H1729 C1742 0.961 . S
H1730 C1742 0.959 . S
H1731 C1745 0.929 . S
H1732 C1746 0.931 . S
H1733 C1748 0.930 . S
C1734 H1722 0.930 . S
C1734 C1735 1.399 . S
C1734 C1739 1.399 . S
C1735 C1734 1.399 . S
C1735 C1736 1.376 . S
C1736 H1723 0.930 . S
C1736 C1735 1.376 . S
C1736 C1737 1.388 . S
C1737 H1724 0.930 . S
C1737 C1736 1.388 . S
C1737 C1738 1.390 . S
C1738 C1737 1.390 . S
C1738 C1739 1.394 . S
C1738 C1744 1.465 . S
C1739 C1734 1.399 . S
C1739 C1738 1.394 . S
C1739 C1740 1.516 . S
C1740 C1739 1.516 . S
C1740 C1741 1.502 . S
C1740 C1742 1.561 . S
C1740 C1743 1.526 . S
C1741 H1725 0.959 . S
C1741 H1726 0.959 . S
C1741 H1727 0.961 . S
C1741 C1740 1.502 . S
C1742 H1728 0.960 . S
C1742 H1729 0.961 . S
C1742 H1730 0.959 . S
C1742 C1740 1.561 . S
C1743 C1740 1.526 . S
C1743 C1744 1.396 . S
C1743 C1748 1.390 . S
C1744 C1738 1.465 . S
C1744 C1743 1.396 . S
C1744 C1745 1.399 . S
C1745 H1731 0.929 . S
C1745 C1744 1.399 . S
C1745 C1746 1.385 . S
C1746 H1732 0.931 . S
C1746 C1745 1.385 . S
C1746 C1747 1.389 . S
C1747 C1746 1.389 . S
C1747 C1748 1.387 . S
C1748 H1733 0.930 . S
C1748 C1743 1.390 . S
C1748 C1747 1.387 . S
H1749 C1761 0.930 . S
H1750 C1763 0.930 . S
H1751 C1764 0.930 . S
H1752 C1768 0.959 . S
H1753 C1768 0.959 . S
H1754 C1768 0.961 . S
H1755 C1769 0.960 . S
H1756 C1769 0.961 . S
H1757 C1769 0.959 . S
H1758 C1772 0.929 . S
H1759 C1773 0.931 . S
H1760 C1775 0.930 . S
C1761 H1749 0.930 . S
C1761 C1762 1.399 . S
C1761 C1766 1.399 . S
C1762 C1761 1.399 . S
C1762 C1763 1.376 . S
C1763 H1750 0.930 . S
C1763 C1762 1.376 . S
C1763 C1764 1.388 . S
C1764 H1751 0.930 . S
C1764 C1763 1.388 . S
C1764 C1765 1.390 . S
C1765 C1764 1.390 . S
C1765 C1766 1.394 . S
C1765 C1771 1.465 . S
C1766 C1761 1.399 . S
C1766 C1765 1.394 . S
C1766 C1767 1.516 . S
C1767 C1766 1.516 . S
C1767 C1768 1.502 . S
C1767 C1769 1.561 . S
C1767 C1770 1.526 . S
C1768 H1752 0.959 . S
C1768 H1753 0.959 . S
C1768 H1754 0.961 . S
C1768 C1767 1.502 . S
C1769 H1755 0.960 . S
C1769 H1756 0.961 . S
C1769 H1757 0.959 . S
C1769 C1767 1.561 . S
C1770 C1767 1.526 . S
C1770 C1771 1.396 . S
C1770 C1775 1.390 . S
C1771 C1765 1.465 . S
C1771 C1770 1.396 . S
C1771 C1772 1.399 . S
C1772 H1758 0.929 . S
C1772 C1771 1.399 . S
C1772 C1773 1.385 . S
C1773 H1759 0.931 . S
C1773 C1772 1.385 . S
C1773 C1774 1.389 . S
C1774 C1773 1.389 . S
C1774 C1775 1.387 . S
C1775 H1760 0.930 . S
C1775 C1770 1.390 . S
C1775 C1774 1.387 . S
H1776 C1788 0.930 . S
H1777 C1790 0.930 . S
H1778 C1791 0.930 . S
H1779 C1795 0.959 . S
H1780 C1795 0.959 . S
H1781 C1795 0.961 . S
H1782 C1796 0.960 . S
H1783 C1796 0.961 . S
H1784 C1796 0.959 . S
H1785 C1799 0.929 . S
H1786 C1800 0.931 . S
H1787 C1802 0.930 . S
C1788 H1776 0.930 . S
C1788 C1789 1.399 . S
C1788 C1793 1.399 . S
C1789 C1788 1.399 . S
C1789 C1790 1.376 . S
C1790 H1777 0.930 . S
C1790 C1789 1.376 . S
C1790 C1791 1.388 . S
C1791 H1778 0.930 . S
C1791 C1790 1.388 . S
C1791 C1792 1.390 . S
C1792 C1791 1.390 . S
C1792 C1793 1.394 . S
C1792 C1798 1.465 . S
C1793 C1788 1.399 . S
C1793 C1792 1.394 . S
C1793 C1794 1.516 . S
C1794 C1793 1.516 . S
C1794 C1795 1.502 . S
C1794 C1796 1.561 . S
C1794 C1797 1.526 . S
C1795 H1779 0.959 . S
C1795 H1780 0.959 . S
C1795 H1781 0.961 . S
C1795 C1794 1.502 . S
C1796 H1782 0.960 . S
C1796 H1783 0.961 . S
C1796 H1784 0.959 . S
C1796 C1794 1.561 . S
C1797 C1794 1.526 . S
C1797 C1798 1.396 . S
C1797 C1802 1.390 . S
C1798 C1792 1.465 . S
C1798 C1797 1.396 . S
C1798 C1799 1.399 . S
C1799 H1785 0.929 . S
C1799 C1798 1.399 . S
C1799 C1800 1.385 . S
C1800 H1786 0.931 . S
C1800 C1799 1.385 . S
C1800 C1801 1.389 . S
C1801 C1800 1.389 . S
C1801 C1802 1.387 . S
C1802 H1787 0.930 . S
C1802 C1797 1.390 . S
C1802 C1801 1.387 . S
H1803 C1815 0.930 . S
H1804 C1817 0.930 . S
H1805 C1818 0.930 . S
H1806 C1822 0.959 . S
H1807 C1822 0.959 . S
H1808 C1822 0.961 . S
H1809 C1823 0.960 . S
H1810 C1823 0.961 . S
H1811 C1823 0.959 . S
H1812 C1826 0.929 . S
H1813 C1827 0.931 . S
H1814 C1829 0.930 . S
C1815 H1803 0.930 . S
C1815 C1816 1.399 . S
C1815 C1820 1.399 . S
C1816 C1815 1.399 . S
C1816 C1817 1.376 . S
C1817 H1804 0.930 . S
C1817 C1816 1.376 . S
C1817 C1818 1.388 . S
C1818 H1805 0.930 . S
C1818 C1817 1.388 . S
C1818 C1819 1.390 . S
C1819 C1818 1.390 . S
C1819 C1820 1.394 . S
C1819 C1825 1.465 . S
C1820 C1815 1.399 . S
C1820 C1819 1.394 . S
C1820 C1821 1.516 . S
C1821 C1820 1.516 . S
C1821 C1822 1.502 . S
C1821 C1823 1.561 . S
C1821 C1824 1.526 . S
C1822 H1806 0.959 . S
C1822 H1807 0.959 . S
C1822 H1808 0.961 . S
C1822 C1821 1.502 . S
C1823 H1809 0.960 . S
C1823 H1810 0.961 . S
C1823 H1811 0.959 . S
C1823 C1821 1.561 . S
C1824 C1821 1.526 . S
C1824 C1825 1.396 . S
C1824 C1829 1.390 . S
C1825 C1819 1.465 . S
C1825 C1824 1.396 . S
C1825 C1826 1.399 . S
C1826 H1812 0.929 . S
C1826 C1825 1.399 . S
C1826 C1827 1.385 . S
C1827 H1813 0.931 . S
C1827 C1826 1.385 . S
C1827 C1828 1.389 . S
C1828 C1827 1.389 . S
C1828 C1829 1.387 . S
C1829 H1814 0.930 . S
C1829 C1824 1.390 . S
C1829 C1828 1.387 . S
H1830 C1842 0.930 . S
H1831 C1844 0.930 . S
H1832 C1845 0.930 . S
H1833 C1849 0.959 . S
H1834 C1849 0.959 . S
H1835 C1849 0.961 . S
H1836 C1850 0.960 . S
H1837 C1850 0.961 . S
H1838 C1850 0.959 . S
H1839 C1853 0.929 . S
H1840 C1854 0.931 . S
H1841 C1856 0.930 . S
C1842 H1830 0.930 . S
C1842 C1843 1.399 . S
C1842 C1847 1.399 . S
C1843 C1842 1.399 . S
C1843 C1844 1.376 . S
C1844 H1831 0.930 . S
C1844 C1843 1.376 . S
C1844 C1845 1.388 . S
C1845 H1832 0.930 . S
C1845 C1844 1.388 . S
C1845 C1846 1.390 . S
C1846 C1845 1.390 . S
C1846 C1847 1.394 . S
C1846 C1852 1.465 . S
C1847 C1842 1.399 . S
C1847 C1846 1.394 . S
C1847 C1848 1.516 . S
C1848 C1847 1.516 . S
C1848 C1849 1.502 . S
C1848 C1850 1.561 . S
C1848 C1851 1.526 . S
C1849 H1833 0.959 . S
C1849 H1834 0.959 . S
C1849 H1835 0.961 . S
C1849 C1848 1.502 . S
C1850 H1836 0.960 . S
C1850 H1837 0.961 . S
C1850 H1838 0.959 . S
C1850 C1848 1.561 . S
C1851 C1848 1.526 . S
C1851 C1852 1.396 . S
C1851 C1856 1.390 . S
C1852 C1846 1.465 . S
C1852 C1851 1.396 . S
C1852 C1853 1.399 . S
C1853 H1839 0.929 . S
C1853 C1852 1.399 . S
C1853 C1854 1.385 . S
C1854 H1840 0.931 . S
C1854 C1853 1.385 . S
C1854 C1855 1.389 . S
C1855 C1854 1.389 . S
C1855 C1856 1.387 . S
C1856 H1841 0.930 . S
C1856 C1851 1.390 . S
C1856 C1855 1.387 . S
H1857 C1869 0.930 . S
H1858 C1871 0.930 . S
H1859 C1872 0.930 . S
H1860 C1876 0.959 . S
H1861 C1876 0.959 . S
H1862 C1876 0.961 . S
H1863 C1877 0.960 . S
H1864 C1877 0.961 . S
H1865 C1877 0.959 . S
H1866 C1880 0.929 . S
H1867 C1881 0.931 . S
H1868 C1883 0.930 . S
C1869 H1857 0.930 . S
C1869 C1870 1.399 . S
C1869 C1874 1.399 . S
C1870 C1869 1.399 . S
C1870 C1871 1.376 . S
C1871 H1858 0.930 . S
C1871 C1870 1.376 . S
C1871 C1872 1.388 . S
C1872 H1859 0.930 . S
C1872 C1871 1.388 . S
C1872 C1873 1.390 . S
C1873 C1872 1.390 . S
C1873 C1874 1.394 . S
C1873 C1879 1.465 . S
C1874 C1869 1.399 . S
C1874 C1873 1.394 . S
C1874 C1875 1.516 . S
C1875 C1874 1.516 . S
C1875 C1876 1.502 . S
C1875 C1877 1.561 . S
C1875 C1878 1.526 . S
C1876 H1860 0.959 . S
C1876 H1861 0.959 . S
C1876 H1862 0.961 . S
C1876 C1875 1.502 . S
C1877 H1863 0.960 . S
C1877 H1864 0.961 . S
C1877 H1865 0.959 . S
C1877 C1875 1.561 . S
C1878 C1875 1.526 . S
C1878 C1879 1.396 . S
C1878 C1883 1.390 . S
C1879 C1873 1.465 . S
C1879 C1878 1.396 . S
C1879 C1880 1.399 . S
C1880 H1866 0.929 . S
C1880 C1879 1.399 . S
C1880 C1881 1.385 . S
C1881 H1867 0.931 . S
C1881 C1880 1.385 . S
C1881 C1882 1.389 . S
C1882 C1881 1.389 . S
C1882 C1883 1.387 . S
C1883 H1868 0.930 . S
C1883 C1878 1.390 . S
C1883 C1882 1.387 . S
H1884 C1896 0.930 . S
H1885 C1898 0.930 . S
H1886 C1899 0.930 . S
H1887 C1903 0.959 . S
H1888 C1903 0.959 . S
H1889 C1903 0.961 . S
H1890 C1904 0.960 . S
H1891 C1904 0.961 . S
H1892 C1904 0.959 . S
H1893 C1907 0.929 . S
H1894 C1908 0.931 . S
H1895 C1910 0.930 . S
C1896 H1884 0.930 . S
C1896 C1897 1.399 . S
C1896 C1901 1.399 . S
C1897 C1896 1.399 . S
C1897 C1898 1.376 . S
C1898 H1885 0.930 . S
C1898 C1897 1.376 . S
C1898 C1899 1.388 . S
C1899 H1886 0.930 . S
C1899 C1898 1.388 . S
C1899 C1900 1.390 . S
C1900 C1899 1.390 . S
C1900 C1901 1.394 . S
C1900 C1906 1.465 . S
C1901 C1896 1.399 . S
C1901 C1900 1.394 . S
C1901 C1902 1.516 . S
C1902 C1901 1.516 . S
C1902 C1903 1.502 . S
C1902 C1904 1.561 . S
C1902 C1905 1.526 . S
C1903 H1887 0.959 . S
C1903 H1888 0.959 . S
C1903 H1889 0.961 . S
C1903 C1902 1.502 . S
C1904 H1890 0.960 . S
C1904 H1891 0.961 . S
C1904 H1892 0.959 . S
C1904 C1902 1.561 . S
C1905 C1902 1.526 . S
C1905 C1906 1.396 . S
C1905 C1910 1.390 . S
C1906 C1900 1.465 . S
C1906 C1905 1.396 . S
C1906 C1907 1.399 . S
C1907 H1893 0.929 . S
C1907 C1906 1.399 . S
C1907 C1908 1.385 . S
C1908 H1894 0.931 . S
C1908 C1907 1.385 . S
C1908 C1909 1.389 . S
C1909 C1908 1.389 . S
C1909 C1910 1.387 . S
C1910 H1895 0.930 . S
C1910 C1905 1.390 . S
C1910 C1909 1.387 . S
H1911 C1923 0.930 . S
H1912 C1925 0.930 . S
H1913 C1926 0.930 . S
H1914 C1930 0.959 . S
H1915 C1930 0.959 . S
H1916 C1930 0.961 . S
H1917 C1931 0.960 . S
H1918 C1931 0.961 . S
H1919 C1931 0.959 . S
H1920 C1934 0.929 . S
H1921 C1935 0.931 . S
H1922 C1937 0.930 . S
C1923 H1911 0.930 . S
C1923 C1924 1.399 . S
C1923 C1928 1.399 . S
C1924 C1923 1.399 . S
C1924 C1925 1.376 . S
C1925 H1912 0.930 . S
C1925 C1924 1.376 . S
C1925 C1926 1.388 . S
C1926 H1913 0.930 . S
C1926 C1925 1.388 . S
C1926 C1927 1.390 . S
C1927 C1926 1.390 . S
C1927 C1928 1.394 . S
C1927 C1933 1.465 . S
C1928 C1923 1.399 . S
C1928 C1927 1.394 . S
C1928 C1929 1.516 . S
C1929 C1928 1.516 . S
C1929 C1930 1.502 1_455 S
C1929 C1931 1.561 . S
C1929 C1932 1.531 . S
C1930 H1914 0.959 . S
C1930 H1915 0.959 . S
C1930 H1916 0.961 . S
C1930 C1929 1.502 1_655 S
C1931 H1917 0.960 . S
C1931 H1918 0.961 . S
C1931 H1919 0.959 . S
C1931 C1929 1.561 . S
C1932 C1929 1.531 . S
C1932 C1933 1.399 . S
C1932 C1937 1.383 1_455 S
C1933 C1927 1.465 . S
C1933 C1932 1.399 . S
C1933 C1934 1.399 . S
C1934 H1920 0.929 . S
C1934 C1933 1.399 . S
C1934 C1935 1.385 1_455 S
C1935 H1921 0.931 . S
C1935 C1934 1.385 1_655 S
C1935 C1936 1.389 . S
C1936 C1935 1.389 . S
C1936 C1937 1.387 . S
C1937 H1922 0.930 . S
C1937 C1932 1.383 1_655 S
C1937 C1936 1.387 . S
H1938 C1950 0.930 . S
H1939 C1952 0.930 . S
H1940 C1953 0.930 . S
H1941 C1957 0.959 . S
H1942 C1957 0.959 . S
H1943 C1957 0.961 . S
H1944 C1958 0.960 . S
H1945 C1958 0.961 . S
H1946 C1958 0.959 . S
H1947 C1961 0.929 . S
H1948 C1962 0.931 . S
H1949 C1964 0.930 . S
C1950 H1938 0.930 . S
C1950 C1951 1.399 . S
C1950 C1955 1.399 . S
C1951 C1950 1.399 . S
C1951 C1952 1.376 . S
C1952 H1939 0.930 . S
C1952 C1951 1.376 . S
C1952 C1953 1.388 . S
C1953 H1940 0.930 . S
C1953 C1952 1.388 . S
C1953 C1954 1.390 . S
C1954 C1953 1.390 . S
C1954 C1955 1.394 . S
C1954 C1960 1.465 . S
C1955 C1950 1.399 . S
C1955 C1954 1.394 . S
C1955 C1956 1.516 . S
C1956 C1955 1.516 . S
C1956 C1957 1.502 . S
C1956 C1958 1.561 . S
C1956 C1959 1.526 . S
C1957 H1941 0.959 . S
C1957 H1942 0.959 . S
C1957 H1943 0.961 . S
C1957 C1956 1.502 . S
C1958 H1944 0.960 . S
C1958 H1945 0.961 . S
C1958 H1946 0.959 . S
C1958 C1956 1.561 . S
C1959 C1956 1.526 . S
C1959 C1960 1.396 . S
C1959 C1964 1.390 . S
C1960 C1954 1.465 . S
C1960 C1959 1.396 . S
C1960 C1961 1.399 . S
C1961 H1947 0.929 . S
C1961 C1960 1.399 . S
C1961 C1962 1.385 . S
C1962 H1948 0.931 . S
C1962 C1961 1.385 . S
C1962 C1963 1.389 . S
C1963 C1962 1.389 . S
C1963 C1964 1.387 . S
C1964 H1949 0.930 . S
C1964 C1959 1.390 . S
C1964 C1963 1.387 . S
H1965 C1977 0.930 . S
H1966 C1979 0.930 . S
H1967 C1980 0.930 . S
H1968 C1984 0.959 . S
H1969 C1984 0.959 . S
H1970 C1984 0.961 . S
H1971 C1985 0.960 . S
H1972 C1985 0.961 . S
H1973 C1985 0.959 . S
H1974 C1988 0.929 . S
H1975 C1989 0.931 . S
H1976 C1991 0.930 . S
C1977 H1965 0.930 . S
C1977 C1978 1.399 . S
C1977 C1982 1.399 . S
C1978 C1977 1.399 . S
C1978 C1979 1.376 . S
C1979 H1966 0.930 . S
C1979 C1978 1.376 . S
C1979 C1980 1.388 . S
C1980 H1967 0.930 . S
C1980 C1979 1.388 . S
C1980 C1981 1.390 . S
C1981 C1980 1.390 . S
C1981 C1982 1.394 . S
C1981 C1987 1.465 . S
C1982 C1977 1.399 . S
C1982 C1981 1.394 . S
C1982 C1983 1.516 . S
C1983 C1982 1.516 . S
C1983 C1984 1.502 . S
C1983 C1985 1.561 . S
C1983 C1986 1.526 . S
C1984 H1968 0.959 . S
C1984 H1969 0.959 . S
C1984 H1970 0.961 . S
C1984 C1983 1.502 . S
C1985 H1971 0.960 . S
C1985 H1972 0.961 . S
C1985 H1973 0.959 . S
C1985 C1983 1.561 . S
C1986 C1983 1.526 . S
C1986 C1987 1.396 . S
C1986 C1991 1.390 . S
C1987 C1981 1.465 . S
C1987 C1986 1.396 . S
C1987 C1988 1.399 . S
C1988 H1974 0.929 . S
C1988 C1987 1.399 . S
C1988 C1989 1.385 . S
C1989 H1975 0.931 . S
C1989 C1988 1.385 . S
C1989 C1990 1.389 . S
C1990 C1989 1.389 . S
C1990 C1991 1.387 . S
C1991 H1976 0.930 . S
C1991 C1986 1.390 . S
C1991 C1990 1.387 . S
H1992 C2004 0.930 . S
H1993 C2006 0.930 . S
H1994 C2007 0.930 . S
H1995 C2011 0.959 . S
H1996 C2011 0.959 . S
H1997 C2011 0.961 . S
H1998 C2012 0.960 . S
H1999 C2012 0.961 . S
H2000 C2012 0.959 . S
H2001 C2015 0.929 . S
H2002 C2016 0.931 . S
H2003 C2018 0.930 . S
C2004 H1992 0.930 . S
C2004 C2005 1.399 . S
C2004 C2009 1.399 . S
C2005 C2004 1.399 . S
C2005 C2006 1.376 . S
C2006 H1993 0.930 . S
C2006 C2005 1.376 . S
C2006 C2007 1.388 . S
C2007 H1994 0.930 . S
C2007 C2006 1.388 . S
C2007 C2008 1.390 . S
C2008 C2007 1.390 . S
C2008 C2009 1.394 . S
C2008 C2014 1.465 . S
C2009 C2004 1.399 . S
C2009 C2008 1.394 . S
C2009 C2010 1.516 . S
C2010 C2009 1.516 . S
C2010 C2011 1.502 . S
C2010 C2012 1.561 . S
C2010 C2013 1.526 . S
C2011 H1995 0.959 . S
C2011 H1996 0.959 . S
C2011 H1997 0.961 . S
C2011 C2010 1.502 . S
C2012 H1998 0.960 . S
C2012 H1999 0.961 . S
C2012 H2000 0.959 . S
C2012 C2010 1.561 . S
C2013 C2010 1.526 . S
C2013 C2014 1.396 . S
C2013 C2018 1.390 . S
C2014 C2008 1.465 . S
C2014 C2013 1.396 . S
C2014 C2015 1.399 . S
C2015 H2001 0.929 . S
C2015 C2014 1.399 . S
C2015 C2016 1.385 . S
C2016 H2002 0.931 . S
C2016 C2015 1.385 . S
C2016 C2017 1.389 . S
C2017 C2016 1.389 . S
C2017 C2018 1.387 . S
C2018 H2003 0.930 . S
C2018 C2013 1.390 . S
C2018 C2017 1.387 . S
H2019 C2031 0.930 . S
H2020 C2033 0.930 . S
H2021 C2034 0.930 . S
H2022 C2038 0.959 . S
H2023 C2038 0.959 . S
H2024 C2038 0.961 . S
H2025 C2039 0.960 . S
H2026 C2039 0.961 . S
H2027 C2039 0.959 . S
H2028 C2042 0.929 . S
H2029 C2043 0.931 . S
H2030 C2045 0.930 . S
C2031 H2019 0.930 . S
C2031 C2032 1.399 . S
C2031 C2036 1.399 . S
C2032 C2031 1.399 . S
C2032 C2033 1.376 . S
C2033 H2020 0.930 . S
C2033 C2032 1.376 . S
C2033 C2034 1.388 . S
C2034 H2021 0.930 . S
C2034 C2033 1.388 . S
C2034 C2035 1.390 . S
C2035 C2034 1.390 . S
C2035 C2036 1.394 . S
C2035 C2041 1.465 . S
C2036 C2031 1.399 . S
C2036 C2035 1.394 . S
C2036 C2037 1.516 . S
C2037 C2036 1.516 . S
C2037 C2038 1.502 . S
C2037 C2039 1.561 . S
C2037 C2040 1.526 . S
C2038 H2022 0.959 . S
C2038 H2023 0.959 . S
C2038 H2024 0.961 . S
C2038 C2037 1.502 . S
C2039 H2025 0.960 . S
C2039 H2026 0.961 . S
C2039 H2027 0.959 . S
C2039 C2037 1.561 . S
C2040 C2037 1.526 . S
C2040 C2041 1.396 . S
C2040 C2045 1.390 . S
C2041 C2035 1.465 . S
C2041 C2040 1.396 . S
C2041 C2042 1.399 . S
C2042 H2028 0.929 . S
C2042 C2041 1.399 . S
C2042 C2043 1.385 . S
C2043 H2029 0.931 . S
C2043 C2042 1.385 . S
C2043 C2044 1.389 . S
C2044 C2043 1.389 . S
C2044 C2045 1.387 . S
C2045 H2030 0.930 . S
C2045 C2040 1.390 . S
C2045 C2044 1.387 . S
H2046 C2058 0.930 . S
H2047 C2060 0.930 . S
H2048 C2061 0.930 . S
H2049 C2065 0.959 1_545 S
H2050 C2065 0.959 . S
H2051 C2065 0.961 . S
H2052 C2066 0.960 . S
H2053 C2066 0.961 . S
H2054 C2066 0.959 . S
H2055 C2069 0.929 . S
H2056 C2070 0.931 . S
H2057 C2072 0.930 . S
C2058 H2046 0.930 . S
C2058 C2059 1.399 . S
C2058 C2063 1.399 . S
C2059 C2058 1.399 . S
C2059 C2060 1.376 . S
C2060 H2047 0.930 . S
C2060 C2059 1.376 . S
C2060 C2061 1.388 1_565 S
C2061 H2048 0.930 . S
C2061 C2060 1.388 1_545 S
C2061 C2062 1.390 . S
C2062 C2061 1.390 . S
C2062 C2063 1.394 1_545 S
C2062 C2068 1.465 . S
C2063 C2058 1.399 . S
C2063 C2062 1.394 1_565 S
C2063 C2064 1.516 . S
C2064 C2063 1.516 . S
C2064 C2065 1.502 . S
C2064 C2066 1.561 . S
C2064 C2067 1.526 1_565 S
C2065 H2049 0.959 1_565 S
C2065 H2050 0.959 . S
C2065 H2051 0.961 . S
C2065 C2064 1.502 . S
C2066 H2052 0.960 . S
C2066 H2053 0.961 . S
C2066 H2054 0.959 . S
C2066 C2064 1.561 . S
C2067 C2064 1.526 1_545 S
C2067 C2068 1.396 . S
C2067 C2072 1.390 . S
C2068 C2062 1.465 . S
C2068 C2067 1.396 . S
C2068 C2069 1.399 . S
C2069 H2055 0.929 . S
C2069 C2068 1.399 . S
C2069 C2070 1.385 . S
C2070 H2056 0.931 . S
C2070 C2069 1.385 . S
C2070 C2071 1.389 . S
C2071 C2070 1.389 . S
C2071 C2072 1.387 . S
C2072 H2057 0.930 . S
C2072 C2067 1.390 . S
C2072 C2071 1.387 . S
H2073 C2085 0.930 . S
H2074 C2087 0.930 . S
H2075 C2088 0.930 . S
H2076 C2092 0.959 . S
H2077 C2092 0.959 . S
H2078 C2092 0.961 . S
H2079 C2093 0.960 . S
H2080 C2093 0.961 . S
H2081 C2093 0.959 . S
H2082 C2096 0.929 . S
H2083 C2097 0.931 . S
H2084 C2099 0.930 1_556 S
C2085 H2073 0.930 . S
C2085 C2086 1.399 1_556 S
C2085 C2090 1.399 1_556 S
C2086 C2085 1.399 1_554 S
C2086 C2087 1.376 . S
C2087 H2074 0.930 . S
C2087 C2086 1.376 . S
C2087 C2088 1.388 . S
C2088 H2075 0.930 . S
C2088 C2087 1.388 . S
C2088 C2089 1.390 . S
C2089 C2088 1.390 . S
C2089 C2090 1.394 . S
C2089 C2095 1.465 . S
C2090 C2085 1.399 1_554 S
C2090 C2089 1.394 . S
C2090 C2091 1.516 1_554 S
C2091 C2090 1.516 1_556 S
C2091 C2092 1.502 . S
C2091 C2093 1.561 . S
C2091 C2094 1.526 1_556 S
C2092 H2076 0.959 . S
C2092 H2077 0.959 . S
C2092 H2078 0.961 . S
C2092 C2091 1.502 . S
C2093 H2079 0.960 . S
C2093 H2080 0.961 . S
C2093 H2081 0.959 . S
C2093 C2091 1.561 . S
C2094 C2091 1.526 1_554 S
C2094 C2095 1.396 . S
C2094 C2099 1.390 . S
C2095 C2089 1.465 . S
C2095 C2094 1.396 . S
C2095 C2096 1.399 . S
C2096 H2082 0.929 . S
C2096 C2095 1.399 . S
C2096 C2097 1.385 . S
C2097 H2083 0.931 . S
C2097 C2096 1.385 . S
C2097 C2098 1.389 . S
C2098 C2097 1.389 . S
C2098 C2099 1.387 . S
C2099 H2084 0.930 1_554 S
C2099 C2094 1.390 . S
C2099 C2098 1.387 . S
H2100 C2112 0.930 . S
H2101 C2114 0.930 . S
H2102 C2115 0.930 . S
H2103 C2119 0.959 . S
H2104 C2119 0.959 . S
H2105 C2119 0.961 . S
H2106 C2120 0.960 . S
H2107 C2120 0.961 . S
H2108 C2120 0.959 . S
H2109 C2123 0.929 . S
H2110 C2124 0.931 . S
H2111 C2126 0.930 . S
C2112 H2100 0.930 . S
C2112 C2113 1.399 . S
C2112 C2117 1.399 . S
C2113 C2112 1.399 . S
C2113 C2114 1.376 . S
C2114 H2101 0.930 . S
C2114 C2113 1.376 . S
C2114 C2115 1.388 . S
C2115 H2102 0.930 . S
C2115 C2114 1.388 . S
C2115 C2116 1.390 . S
C2116 C2115 1.390 . S
C2116 C2117 1.394 . S
C2116 C2122 1.465 . S
C2117 C2112 1.399 . S
C2117 C2116 1.394 . S
C2117 C2118 1.516 . S
C2118 C2117 1.516 . S
C2118 C2119 1.502 . S
C2118 C2120 1.561 . S
C2118 C2121 1.526 . S
C2119 H2103 0.959 . S
C2119 H2104 0.959 . S
C2119 H2105 0.961 . S
C2119 C2118 1.502 . S
C2120 H2106 0.960 . S
C2120 H2107 0.961 . S
C2120 H2108 0.959 . S
C2120 C2118 1.561 . S
C2121 C2118 1.526 . S
C2121 C2122 1.396 . S
C2121 C2126 1.390 . S
C2122 C2116 1.465 . S
C2122 C2121 1.396 . S
C2122 C2123 1.399 . S
C2123 H2109 0.929 . S
C2123 C2122 1.399 . S
C2123 C2124 1.385 . S
C2124 H2110 0.931 . S
C2124 C2123 1.385 . S
C2124 C2125 1.389 . S
C2125 C2124 1.389 . S
C2125 C2126 1.387 . S
C2126 H2111 0.930 . S
C2126 C2121 1.390 . S
C2126 C2125 1.387 . S
H2127 C2139 0.930 . S
H2128 C2141 0.930 . S
H2129 C2142 0.930 . S
H2130 C2146 0.959 . S
H2131 C2146 0.959 . S
H2132 C2146 0.961 . S
H2133 C2147 0.960 . S
H2134 C2147 0.961 . S
H2135 C2147 0.959 . S
H2136 C2150 0.929 . S
H2137 C2151 0.931 . S
H2138 C2153 0.930 . S
C2139 H2127 0.930 . S
C2139 C2140 1.399 . S
C2139 C2144 1.399 . S
C2140 C2139 1.399 . S
C2140 C2141 1.376 . S
C2141 H2128 0.930 . S
C2141 C2140 1.376 . S
C2141 C2142 1.388 . S
C2142 H2129 0.930 . S
C2142 C2141 1.388 . S
C2142 C2143 1.390 . S
C2143 C2142 1.390 . S
C2143 C2144 1.394 . S
C2143 C2149 1.465 . S
C2144 C2139 1.399 . S
C2144 C2143 1.394 . S
C2144 C2145 1.516 . S
C2145 C2144 1.516 . S
C2145 C2146 1.502 . S
C2145 C2147 1.561 . S
C2145 C2148 1.526 . S
C2146 H2130 0.959 . S
C2146 H2131 0.959 . S
C2146 H2132 0.961 . S
C2146 C2145 1.502 . S
C2147 H2133 0.960 . S
C2147 H2134 0.961 . S
C2147 H2135 0.959 . S
C2147 C2145 1.561 . S
C2148 C2145 1.526 . S
C2148 C2149 1.396 . S
C2148 C2153 1.390 . S
C2149 C2143 1.465 . S
C2149 C2148 1.396 . S
C2149 C2150 1.399 . S
C2150 H2136 0.929 . S
C2150 C2149 1.399 . S
C2150 C2151 1.385 . S
C2151 H2137 0.931 . S
C2151 C2150 1.385 . S
C2151 C2152 1.389 . S
C2152 C2151 1.389 . S
C2152 C2153 1.387 . S
C2153 H2138 0.930 . S
C2153 C2148 1.390 . S
C2153 C2152 1.387 . S
H2154 C2166 0.930 . S
H2155 C2168 0.930 . S
H2156 C2169 0.930 . S
H2157 C2173 0.959 . S
H2158 C2173 0.959 . S
H2159 C2173 0.961 . S
H2160 C2174 0.960 . S
H2161 C2174 0.961 . S
H2162 C2174 0.959 . S
H2163 C2177 0.929 . S
H2164 C2178 0.931 . S
H2165 C2180 0.930 . S
C2166 H2154 0.930 . S
C2166 C2167 1.399 . S
C2166 C2171 1.399 . S
C2167 C2166 1.399 . S
C2167 C2168 1.376 . S
C2168 H2155 0.930 . S
C2168 C2167 1.376 . S
C2168 C2169 1.388 . S
C2169 H2156 0.930 . S
C2169 C2168 1.388 . S
C2169 C2170 1.390 . S
C2170 C2169 1.390 . S
C2170 C2171 1.394 . S
C2170 C2176 1.465 . S
C2171 C2166 1.399 . S
C2171 C2170 1.394 . S
C2171 C2172 1.516 . S
C2172 C2171 1.516 . S
C2172 C2173 1.502 . S
C2172 C2174 1.561 . S
C2172 C2175 1.526 . S
C2173 H2157 0.959 . S
C2173 H2158 0.959 . S
C2173 H2159 0.961 . S
C2173 C2172 1.502 . S
C2174 H2160 0.960 . S
C2174 H2161 0.961 . S
C2174 H2162 0.959 . S
C2174 C2172 1.561 . S
C2175 C2172 1.526 . S
C2175 C2176 1.396 . S
C2175 C2180 1.390 . S
C2176 C2170 1.465 . S
C2176 C2175 1.396 . S
C2176 C2177 1.399 . S
C2177 H2163 0.929 . S
C2177 C2176 1.399 . S
C2177 C2178 1.385 . S
C2178 H2164 0.931 . S
C2178 C2177 1.385 . S
C2178 C2179 1.389 . S
C2179 C2178 1.389 . S
C2179 C2180 1.387 . S
C2180 H2165 0.930 . S
C2180 C2175 1.390 . S
C2180 C2179 1.387 . S
H2181 C2193 0.930 . S
H2182 C2195 0.930 . S
H2183 C2196 0.930 . S
H2184 C2200 0.959 . S
H2185 C2200 0.959 . S
H2186 C2200 0.961 . S
H2187 C2201 0.960 . S
H2188 C2201 0.961 . S
H2189 C2201 0.959 . S
H2190 C2204 0.929 . S
H2191 C2205 0.931 . S
H2192 C2207 0.930 . S
C2193 H2181 0.930 . S
C2193 C2194 1.399 . S
C2193 C2198 1.399 . S
C2194 C2193 1.399 . S
C2194 C2195 1.376 . S
C2195 H2182 0.930 . S
C2195 C2194 1.376 . S
C2195 C2196 1.388 . S
C2196 H2183 0.930 . S
C2196 C2195 1.388 . S
C2196 C2197 1.390 . S
C2197 C2196 1.390 . S
C2197 C2198 1.394 . S
C2197 C2203 1.465 . S
C2198 C2193 1.399 . S
C2198 C2197 1.394 . S
C2198 C2199 1.516 . S
C2199 C2198 1.516 . S
C2199 C2200 1.502 . S
C2199 C2201 1.561 . S
C2199 C2202 1.526 . S
C2200 H2184 0.959 . S
C2200 H2185 0.959 . S
C2200 H2186 0.961 . S
C2200 C2199 1.502 . S
C2201 H2187 0.960 . S
C2201 H2188 0.961 . S
C2201 H2189 0.959 . S
C2201 C2199 1.561 . S
C2202 C2199 1.526 . S
C2202 C2203 1.396 . S
C2202 C2207 1.390 . S
C2203 C2197 1.465 . S
C2203 C2202 1.396 . S
C2203 C2204 1.399 . S
C2204 H2190 0.929 . S
C2204 C2203 1.399 . S
C2204 C2205 1.385 . S
C2205 H2191 0.931 . S
C2205 C2204 1.385 . S
C2205 C2206 1.389 . S
C2206 C2205 1.389 . S
C2206 C2207 1.387 . S
C2207 H2192 0.930 . S
C2207 C2202 1.390 . S
C2207 C2206 1.387 . S
H2208 C2220 0.930 . S
H2209 C2222 0.930 . S
H2210 C2223 0.930 . S
H2211 C2227 0.959 . S
H2212 C2227 0.959 . S
H2213 C2227 0.961 . S
H2214 C2228 0.960 . S
H2215 C2228 0.961 . S
H2216 C2228 0.959 . S
H2217 C2231 0.929 . S
H2218 C2232 0.931 . S
H2219 C2234 0.930 . S
C2220 H2208 0.930 . S
C2220 C2221 1.399 . S
C2220 C2225 1.399 . S
C2221 C2220 1.399 . S
C2221 C2222 1.376 . S
C2222 H2209 0.930 . S
C2222 C2221 1.376 . S
C2222 C2223 1.388 . S
C2223 H2210 0.930 . S
C2223 C2222 1.388 . S
C2223 C2224 1.390 . S
C2224 C2223 1.390 . S
C2224 C2225 1.394 . S
C2224 C2230 1.465 . S
C2225 C2220 1.399 . S
C2225 C2224 1.394 . S
C2225 C2226 1.516 . S
C2226 C2225 1.516 . S
C2226 C2227 1.502 . S
C2226 C2228 1.561 . S
C2226 C2229 1.526 . S
C2227 H2211 0.959 . S
C2227 H2212 0.959 . S
C2227 H2213 0.961 . S
C2227 C2226 1.502 . S
C2228 H2214 0.960 . S
C2228 H2215 0.961 . S
C2228 H2216 0.959 . S
C2228 C2226 1.561 . S
C2229 C2226 1.526 . S
C2229 C2230 1.396 . S
C2229 C2234 1.390 . S
C2230 C2224 1.465 . S
C2230 C2229 1.396 . S
C2230 C2231 1.399 . S
C2231 H2217 0.929 . S
C2231 C2230 1.399 . S
C2231 C2232 1.385 . S
C2232 H2218 0.931 . S
C2232 C2231 1.385 . S
C2232 C2233 1.389 . S
C2233 C2232 1.389 . S
C2233 C2234 1.387 . S
C2234 H2219 0.930 . S
C2234 C2229 1.390 . S
C2234 C2233 1.387 . S
H2235 C2247 0.930 . S
H2236 C2249 0.930 . S
H2237 C2250 0.930 . S
H2238 C2254 0.959 . S
H2239 C2254 0.959 . S
H2240 C2254 0.961 . S
H2241 C2255 0.960 . S
H2242 C2255 0.961 . S
H2243 C2255 0.959 . S
H2244 C2258 0.929 . S
H2245 C2259 0.931 . S
H2246 C2261 0.930 . S
C2247 H2235 0.930 . S
C2247 C2248 1.399 . S
C2247 C2252 1.399 . S
C2248 C2247 1.399 . S
C2248 C2249 1.376 . S
C2249 H2236 0.930 . S
C2249 C2248 1.376 . S
C2249 C2250 1.388 . S
C2250 H2237 0.930 . S
C2250 C2249 1.388 . S
C2250 C2251 1.390 . S
C2251 C2250 1.390 . S
C2251 C2252 1.394 . S
C2251 C2257 1.465 . S
C2252 C2247 1.399 . S
C2252 C2251 1.394 . S
C2252 C2253 1.516 . S
C2253 C2252 1.516 . S
C2253 C2254 1.502 . S
C2253 C2255 1.561 . S
C2253 C2256 1.526 . S
C2254 H2238 0.959 . S
C2254 H2239 0.959 . S
C2254 H2240 0.961 . S
C2254 C2253 1.502 . S
C2255 H2241 0.960 . S
C2255 H2242 0.961 . S
C2255 H2243 0.959 . S
C2255 C2253 1.561 . S
C2256 C2253 1.526 . S
C2256 C2257 1.396 . S
C2256 C2261 1.390 . S
C2257 C2251 1.465 . S
C2257 C2256 1.396 . S
C2257 C2258 1.399 . S
C2258 H2244 0.929 . S
C2258 C2257 1.399 . S
C2258 C2259 1.385 . S
C2259 H2245 0.931 . S
C2259 C2258 1.385 . S
C2259 C2260 1.389 . S
C2260 C2259 1.389 . S
C2260 C2261 1.387 . S
C2261 H2246 0.930 . S
C2261 C2256 1.390 . S
C2261 C2260 1.387 . S
H2262 C2274 0.930 . S
H2263 C2276 0.930 . S
H2264 C2277 0.930 . S
H2265 C2281 0.959 . S
H2266 C2281 0.959 . S
H2267 C2281 0.961 . S
H2268 C2282 0.960 . S
H2269 C2282 0.961 . S
H2270 C2282 0.959 . S
H2271 C2285 0.929 . S
H2272 C2286 0.931 . S
H2273 C2288 0.930 . S
C2274 H2262 0.930 . S
C2274 C2275 1.399 . S
C2274 C2279 1.399 . S
C2275 C2274 1.399 . S
C2275 C2276 1.376 . S
C2276 H2263 0.930 . S
C2276 C2275 1.376 . S
C2276 C2277 1.388 . S
C2277 H2264 0.930 . S
C2277 C2276 1.388 . S
C2277 C2278 1.390 . S
C2278 C2277 1.390 . S
C2278 C2279 1.394 . S
C2278 C2284 1.465 . S
C2279 C2274 1.399 . S
C2279 C2278 1.394 . S
C2279 C2280 1.516 . S
C2280 C2279 1.516 . S
C2280 C2281 1.502 . S
C2280 C2282 1.561 . S
C2280 C2283 1.526 . S
C2281 H2265 0.959 . S
C2281 H2266 0.959 . S
C2281 H2267 0.961 . S
C2281 C2280 1.502 . S
C2282 H2268 0.960 . S
C2282 H2269 0.961 . S
C2282 H2270 0.959 . S
C2282 C2280 1.561 . S
C2283 C2280 1.526 . S
C2283 C2284 1.396 . S
C2283 C2288 1.390 . S
C2284 C2278 1.465 . S
C2284 C2283 1.396 . S
C2284 C2285 1.399 . S
C2285 H2271 0.929 . S
C2285 C2284 1.399 . S
C2285 C2286 1.385 . S
C2286 H2272 0.931 . S
C2286 C2285 1.385 . S
C2286 C2287 1.389 . S
C2287 C2286 1.389 . S
C2287 C2288 1.387 . S
C2288 H2273 0.930 . S
C2288 C2283 1.390 . S
C2288 C2287 1.387 . S
H2289 C2301 0.930 . S
H2290 C2303 0.930 . S
H2291 C2304 0.930 . S
H2292 C2308 0.959 . S
H2293 C2308 0.959 . S
H2294 C2308 0.961 . S
H2295 C2309 0.960 . S
H2296 C2309 0.961 . S
H2297 C2309 0.959 . S
H2298 C2312 0.929 . S
H2299 C2313 0.931 . S
H2300 C2315 0.930 . S
C2301 H2289 0.930 . S
C2301 C2302 1.399 . S
C2301 C2306 1.399 . S
C2302 C2301 1.399 . S
C2302 C2303 1.376 . S
C2303 H2290 0.930 . S
C2303 C2302 1.376 . S
C2303 C2304 1.388 . S
C2304 H2291 0.930 . S
C2304 C2303 1.388 . S
C2304 C2305 1.390 . S
C2305 C2304 1.390 . S
C2305 C2306 1.394 . S
C2305 C2311 1.465 . S
C2306 C2301 1.399 . S
C2306 C2305 1.394 . S
C2306 C2307 1.516 . S
C2307 C2306 1.516 . S
C2307 C2308 1.502 . S
C2307 C2309 1.561 . S
C2307 C2310 1.526 . S
C2308 H2292 0.959 . S
C2308 H2293 0.959 . S
C2308 H2294 0.961 . S
C2308 C2307 1.502 . S
C2309 H2295 0.960 . S
C2309 H2296 0.961 . S
C2309 H2297 0.959 . S
C2309 C2307 1.561 . S
C2310 C2307 1.526 . S
C2310 C2311 1.396 . S
C2310 C2315 1.390 . S
C2311 C2305 1.465 . S
C2311 C2310 1.396 . S
C2311 C2312 1.399 . S
C2312 H2298 0.929 . S
C2312 C2311 1.399 . S
C2312 C2313 1.385 . S
C2313 H2299 0.931 . S
C2313 C2312 1.385 . S
C2313 C2314 1.389 . S
C2314 C2313 1.389 . S
C2314 C2315 1.387 . S
C2315 H2300 0.930 . S
C2315 C2310 1.390 . S
C2315 C2314 1.387 . S
H2316 C2328 0.930 . S
H2317 C2330 0.930 . S
H2318 C2331 0.930 . S
H2319 C2335 0.959 . S
H2320 C2335 0.959 1_556 S
H2321 C2335 0.961 . S
H2322 C2336 0.960 . S
H2323 C2336 0.961 . S
H2324 C2336 0.959 . S
H2325 C2339 0.929 . S
H2326 C2340 0.931 . S
H2327 C2342 0.930 . S
C2328 H2316 0.930 . S
C2328 C2329 1.399 . S
C2328 C2333 1.399 . S
C2329 C2328 1.399 . S
C2329 C2330 1.376 . S
C2330 H2317 0.930 . S
C2330 C2329 1.376 . S
C2330 C2331 1.388 . S
C2331 H2318 0.930 . S
C2331 C2330 1.388 . S
C2331 C2332 1.390 . S
C2332 C2331 1.390 . S
C2332 C2333 1.394 . S
C2332 C2338 1.465 . S
C2333 C2328 1.399 . S
C2333 C2332 1.394 . S
C2333 C2334 1.516 . S
C2334 C2333 1.516 . S
C2334 C2335 1.502 . S
C2334 C2336 1.561 . S
C2334 C2337 1.526 . S
C2335 H2319 0.959 . S
C2335 H2320 0.959 1_554 S
C2335 H2321 0.961 . S
C2335 C2334 1.502 . S
C2336 H2322 0.960 . S
C2336 H2323 0.961 . S
C2336 H2324 0.959 . S
C2336 C2334 1.561 . S
C2337 C2334 1.526 . S
C2337 C2338 1.396 . S
C2337 C2342 1.390 . S
C2338 C2332 1.465 . S
C2338 C2337 1.396 . S
C2338 C2339 1.399 . S
C2339 H2325 0.929 . S
C2339 C2338 1.399 . S
C2339 C2340 1.385 . S
C2340 H2326 0.931 . S
C2340 C2339 1.385 . S
C2340 C2341 1.389 . S
C2341 C2340 1.389 . S
C2341 C2342 1.387 . S
C2342 H2327 0.930 . S
C2342 C2337 1.390 . S
C2342 C2341 1.387 . S
H2343 C2355 0.930 . S
H2344 C2357 0.930 . S
H2345 C2358 0.930 . S
H2346 C2362 0.957 1_554 S
H2347 C2362 0.961 . S
H2348 C2362 0.961 . S
H2349 C2363 0.960 . S
H2350 C2363 0.961 . S
H2351 C2363 0.959 . S
H2352 C2366 0.929 . S
H2353 C2367 0.931 . S
H2354 C2369 0.930 . S
C2355 H2343 0.930 . S
C2355 C2356 1.399 . S
C2355 C2360 1.399 . S
C2356 C2355 1.399 . S
C2356 C2357 1.376 . S
C2357 H2344 0.930 . S
C2357 C2356 1.376 . S
C2357 C2358 1.388 . S
C2358 H2345 0.930 . S
C2358 C2357 1.388 . S
C2358 C2359 1.390 . S
C2359 C2358 1.390 . S
C2359 C2360 1.394 . S
C2359 C2365 1.465 . S
C2360 C2355 1.399 . S
C2360 C2359 1.394 . S
C2360 C2361 1.516 1_554 S
C2361 C2360 1.516 1_556 S
C2361 C2362 1.502 . S
C2361 C2363 1.561 . S
C2361 C2364 1.526 1_556 S
C2362 H2346 0.957 1_556 S
C2362 H2347 0.961 . S
C2362 H2348 0.961 . S
C2362 C2361 1.502 . S
C2363 H2349 0.960 . S
C2363 H2350 0.961 . S
C2363 H2351 0.959 . S
C2363 C2361 1.561 . S
C2364 C2361 1.526 1_554 S
C2364 C2365 1.396 . S
C2364 C2369 1.390 1_554 S
C2365 C2359 1.465 . S
C2365 C2364 1.396 . S
C2365 C2366 1.399 . S
C2366 H2352 0.929 . S
C2366 C2365 1.399 . S
C2366 C2367 1.385 . S
C2367 H2353 0.931 . S
C2367 C2366 1.385 . S
C2367 C2368 1.389 . S
C2368 C2367 1.389 . S
C2368 C2369 1.387 1_554 S
C2369 H2354 0.930 . S
C2369 C2364 1.390 1_556 S
C2369 C2368 1.387 1_556 S
H2370 C2382 0.930 . S
H2371 C2384 0.930 . S
H2372 C2385 0.930 . S
H2373 C2389 0.959 . S
H2374 C2389 0.959 . S
H2375 C2389 0.961 . S
H2376 C2390 0.960 . S
H2377 C2390 0.961 . S
H2378 C2390 0.959 . S
H2379 C2393 0.929 . S
H2380 C2394 0.931 . S
H2381 C2396 0.930 . S
C2382 H2370 0.930 . S
C2382 C2383 1.399 . S
C2382 C2387 1.399 . S
C2383 C2382 1.399 . S
C2383 C2384 1.376 . S
C2384 H2371 0.930 . S
C2384 C2383 1.376 . S
C2384 C2385 1.388 . S
C2385 H2372 0.930 . S
C2385 C2384 1.388 . S
C2385 C2386 1.390 . S
C2386 C2385 1.390 . S
C2386 C2387 1.394 . S
C2386 C2392 1.465 . S
C2387 C2382 1.399 . S
C2387 C2386 1.394 . S
C2387 C2388 1.516 . S
C2388 C2387 1.516 . S
C2388 C2389 1.502 . S
C2388 C2390 1.561 . S
C2388 C2391 1.526 . S
C2389 H2373 0.959 . S
C2389 H2374 0.959 . S
C2389 H2375 0.961 . S
C2389 C2388 1.502 . S
C2390 H2376 0.960 . S
C2390 H2377 0.961 . S
C2390 H2378 0.959 . S
C2390 C2388 1.561 . S
C2391 C2388 1.526 . S
C2391 C2392 1.396 . S
C2391 C2396 1.390 . S
C2392 C2386 1.465 . S
C2392 C2391 1.396 . S
C2392 C2393 1.399 . S
C2393 H2379 0.929 . S
C2393 C2392 1.399 . S
C2393 C2394 1.385 . S
C2394 H2380 0.931 . S
C2394 C2393 1.385 . S
C2394 C2395 1.389 . S
C2395 C2394 1.389 . S
C2395 C2396 1.387 . S
C2396 H2381 0.930 . S
C2396 C2391 1.390 . S
C2396 C2395 1.387 . S
H2397 C2409 0.930 . S
H2398 C2411 0.930 . S
H2399 C2412 0.930 . S
H2400 C2416 0.959 . S
H2401 C2416 0.959 . S
H2402 C2416 0.961 . S
H2403 C2417 0.960 . S
H2404 C2417 0.961 . S
H2405 C2417 0.959 . S
H2406 C2420 0.929 . S
H2407 C2421 0.931 . S
H2408 C2423 0.930 . S
C2409 H2397 0.930 . S
C2409 C2410 1.399 . S
C2409 C2414 1.399 . S
C2410 C2409 1.399 . S
C2410 C2411 1.376 . S
C2411 H2398 0.930 . S
C2411 C2410 1.376 . S
C2411 C2412 1.388 . S
C2412 H2399 0.930 . S
C2412 C2411 1.388 . S
C2412 C2413 1.390 . S
C2413 C2412 1.390 . S
C2413 C2414 1.394 . S
C2413 C2419 1.465 . S
C2414 C2409 1.399 . S
C2414 C2413 1.394 . S
C2414 C2415 1.516 . S
C2415 C2414 1.516 . S
C2415 C2416 1.502 . S
C2415 C2417 1.561 . S
C2415 C2418 1.526 . S
C2416 H2400 0.959 . S
C2416 H2401 0.959 . S
C2416 H2402 0.961 . S
C2416 C2415 1.502 . S
C2417 H2403 0.960 . S
C2417 H2404 0.961 . S
C2417 H2405 0.959 . S
C2417 C2415 1.561 . S
C2418 C2415 1.526 . S
C2418 C2419 1.396 . S
C2418 C2423 1.390 . S
C2419 C2413 1.465 . S
C2419 C2418 1.396 . S
C2419 C2420 1.399 . S
C2420 H2406 0.929 . S
C2420 C2419 1.399 . S
C2420 C2421 1.385 . S
C2421 H2407 0.931 . S
C2421 C2420 1.385 . S
C2421 C2422 1.389 . S
C2422 C2421 1.389 . S
C2422 C2423 1.387 . S
C2423 H2408 0.930 . S
C2423 C2418 1.390 . S
C2423 C2422 1.387 . S
H2424 C2436 0.930 . S
H2425 C2438 0.930 . S
H2426 C2439 0.930 . S
H2427 C2443 0.959 . S
H2428 C2443 0.959 . S
H2429 C2443 0.961 . S
H2430 C2444 0.960 . S
H2431 C2444 0.961 . S
H2432 C2444 0.959 . S
H2433 C2447 0.929 . S
H2434 C2448 0.931 . S
H2435 C2450 0.930 . S
C2436 H2424 0.930 . S
C2436 C2437 1.399 . S
C2436 C2441 1.399 . S
C2437 C2436 1.399 . S
C2437 C2438 1.376 . S
C2438 H2425 0.930 . S
C2438 C2437 1.376 . S
C2438 C2439 1.388 . S
C2439 H2426 0.930 . S
C2439 C2438 1.388 . S
C2439 C2440 1.390 . S
C2440 C2439 1.390 . S
C2440 C2441 1.394 . S
C2440 C2446 1.465 . S
C2441 C2436 1.399 . S
C2441 C2440 1.394 . S
C2441 C2442 1.516 . S
C2442 C2441 1.516 . S
C2442 C2443 1.502 . S
C2442 C2444 1.561 . S
C2442 C2445 1.526 . S
C2443 H2427 0.959 . S
C2443 H2428 0.959 . S
C2443 H2429 0.961 . S
C2443 C2442 1.502 . S
C2444 H2430 0.960 . S
C2444 H2431 0.961 . S
C2444 H2432 0.959 . S
C2444 C2442 1.561 . S
C2445 C2442 1.526 . S
C2445 C2446 1.396 . S
C2445 C2450 1.390 . S
C2446 C2440 1.465 . S
C2446 C2445 1.396 . S
C2446 C2447 1.399 . S
C2447 H2433 0.929 . S
C2447 C2446 1.399 . S
C2447 C2448 1.385 . S
C2448 H2434 0.931 . S
C2448 C2447 1.385 . S
C2448 C2449 1.389 . S
C2449 C2448 1.389 . S
C2449 C2450 1.387 . S
C2450 H2435 0.930 . S
C2450 C2445 1.390 . S
C2450 C2449 1.387 . S
H2451 C2463 0.930 . S
H2452 C2465 0.930 . S
H2453 C2466 0.930 . S
H2454 C2470 0.959 . S
H2455 C2470 0.959 . S
H2456 C2470 0.961 . S
H2457 C2471 0.960 1_554 S
H2458 C2471 0.961 . S
H2459 C2471 0.959 . S
H2460 C2474 0.929 . S
H2461 C2475 0.931 . S
H2462 C2477 0.930 . S
C2463 H2451 0.930 . S
C2463 C2464 1.399 . S
C2463 C2468 1.399 . S
C2464 C2463 1.399 . S
C2464 C2465 1.376 . S
C2465 H2452 0.930 . S
C2465 C2464 1.376 . S
C2465 C2466 1.388 . S
C2466 H2453 0.930 . S
C2466 C2465 1.388 . S
C2466 C2467 1.390 . S
C2467 C2466 1.390 . S
C2467 C2468 1.394 . S
C2467 C2473 1.465 . S
C2468 C2463 1.399 . S
C2468 C2467 1.394 . S
C2468 C2469 1.516 . S
C2469 C2468 1.516 . S
C2469 C2470 1.502 . S
C2469 C2471 1.561 . S
C2469 C2472 1.526 . S
C2470 H2454 0.959 . S
C2470 H2455 0.959 . S
C2470 H2456 0.961 . S
C2470 C2469 1.502 . S
C2471 H2457 0.960 1_556 S
C2471 H2458 0.961 . S
C2471 H2459 0.959 . S
C2471 C2469 1.561 . S
C2472 C2469 1.526 . S
C2472 C2473 1.396 . S
C2472 C2477 1.390 . S
C2473 C2467 1.465 . S
C2473 C2472 1.396 . S
C2473 C2474 1.399 . S
C2474 H2460 0.929 . S
C2474 C2473 1.399 . S
C2474 C2475 1.385 . S
C2475 H2461 0.931 . S
C2475 C2474 1.385 . S
C2475 C2476 1.389 . S
C2476 C2475 1.389 . S
C2476 C2477 1.387 . S
C2477 H2462 0.930 . S
C2477 C2472 1.390 . S
C2477 C2476 1.387 . S
H2478 C2490 0.930 . S
H2479 C2492 0.930 . S
H2480 C2493 0.930 . S
H2481 C2497 0.959 . S
H2482 C2497 0.959 . S
H2483 C2497 0.961 . S
H2484 C2498 0.960 . S
H2485 C2498 0.961 . S
H2486 C2498 0.959 . S
H2487 C2501 0.929 1_554 S
H2488 C2502 0.931 . S
H2489 C2504 0.930 . S
C2490 H2478 0.930 . S
C2490 C2491 1.399 . S
C2490 C2495 1.399 . S
C2491 C2490 1.399 . S
C2491 C2492 1.376 1_556 S
C2492 H2479 0.930 . S
C2492 C2491 1.376 1_554 S
C2492 C2493 1.388 . S
C2493 H2480 0.930 . S
C2493 C2492 1.388 . S
C2493 C2494 1.390 1_554 S
C2494 C2493 1.390 1_556 S
C2494 C2495 1.394 . S
C2494 C2500 1.465 . S
C2495 C2490 1.399 . S
C2495 C2494 1.394 . S
C2495 C2496 1.516 . S
C2496 C2495 1.516 . S
C2496 C2497 1.502 . S
C2496 C2498 1.561 . S
C2496 C2499 1.526 . S
C2497 H2481 0.959 . S
C2497 H2482 0.959 . S
C2497 H2483 0.961 . S
C2497 C2496 1.502 . S
C2498 H2484 0.960 . S
C2498 H2485 0.961 . S
C2498 H2486 0.959 . S
C2498 C2496 1.561 . S
C2499 C2496 1.526 . S
C2499 C2500 1.396 . S
C2499 C2504 1.390 . S
C2500 C2494 1.465 . S
C2500 C2499 1.396 . S
C2500 C2501 1.399 . S
C2501 H2487 0.929 1_556 S
C2501 C2500 1.399 . S
C2501 C2502 1.385 . S
C2502 H2488 0.931 . S
C2502 C2501 1.385 . S
C2502 C2503 1.389 . S
C2503 C2502 1.389 . S
C2503 C2504 1.387 . S
C2504 H2489 0.930 . S
C2504 C2499 1.390 . S
C2504 C2503 1.387 . S
H2505 C2517 0.930 . S
H2506 C2519 0.930 . S
H2507 C2520 0.930 . S
H2508 C2524 0.959 . S
H2509 C2524 0.959 . S
H2510 C2524 0.961 . S
H2511 C2525 0.960 . S
H2512 C2525 0.961 . S
H2513 C2525 0.959 . S
H2514 C2528 0.929 . S
H2515 C2529 0.931 . S
H2516 C2531 0.930 . S
C2517 H2505 0.930 . S
C2517 C2518 1.399 . S
C2517 C2522 1.399 . S
C2518 C2517 1.399 . S
C2518 C2519 1.376 . S
C2519 H2506 0.930 . S
C2519 C2518 1.376 . S
C2519 C2520 1.388 . S
C2520 H2507 0.930 . S
C2520 C2519 1.388 . S
C2520 C2521 1.390 . S
C2521 C2520 1.390 . S
C2521 C2522 1.394 . S
C2521 C2527 1.465 . S
C2522 C2517 1.399 . S
C2522 C2521 1.394 . S
C2522 C2523 1.516 . S
C2523 C2522 1.516 . S
C2523 C2524 1.502 . S
C2523 C2525 1.561 . S
C2523 C2526 1.526 . S
C2524 H2508 0.959 . S
C2524 H2509 0.959 . S
C2524 H2510 0.961 . S
C2524 C2523 1.502 . S
C2525 H2511 0.960 . S
C2525 H2512 0.961 . S
C2525 H2513 0.959 . S
C2525 C2523 1.561 . S
C2526 C2523 1.526 . S
C2526 C2527 1.396 . S
C2526 C2531 1.390 . S
C2527 C2521 1.465 . S
C2527 C2526 1.396 . S
C2527 C2528 1.399 . S
C2528 H2514 0.929 . S
C2528 C2527 1.399 . S
C2528 C2529 1.385 . S
C2529 H2515 0.931 . S
C2529 C2528 1.385 . S
C2529 C2530 1.389 . S
C2530 C2529 1.389 . S
C2530 C2531 1.387 . S
C2531 H2516 0.930 . S
C2531 C2526 1.390 . S
C2531 C2530 1.387 . S
H2532 C2544 0.930 . S
H2533 C2546 0.930 . S
H2534 C2547 0.930 . S
H2535 C2551 0.959 . S
H2536 C2551 0.959 . S
H2537 C2551 0.961 . S
H2538 C2552 0.960 . S
H2539 C2552 0.961 . S
H2540 C2552 0.959 . S
H2541 C2555 0.929 . S
H2542 C2556 0.931 . S
H2543 C2558 0.930 . S
C2544 H2532 0.930 . S
C2544 C2545 1.399 . S
C2544 C2549 1.399 . S
C2545 C2544 1.399 . S
C2545 C2546 1.376 . S
C2546 H2533 0.930 . S
C2546 C2545 1.376 . S
C2546 C2547 1.388 . S
C2547 H2534 0.930 . S
C2547 C2546 1.388 . S
C2547 C2548 1.390 . S
C2548 C2547 1.390 . S
C2548 C2549 1.394 . S
C2548 C2554 1.465 . S
C2549 C2544 1.399 . S
C2549 C2548 1.394 . S
C2549 C2550 1.516 . S
C2550 C2549 1.516 . S
C2550 C2551 1.502 . S
C2550 C2552 1.561 . S
C2550 C2553 1.526 . S
C2551 H2535 0.959 . S
C2551 H2536 0.959 . S
C2551 H2537 0.961 . S
C2551 C2550 1.502 . S
C2552 H2538 0.960 . S
C2552 H2539 0.961 . S
C2552 H2540 0.959 . S
C2552 C2550 1.561 . S
C2553 C2550 1.526 . S
C2553 C2554 1.396 . S
C2553 C2558 1.390 . S
C2554 C2548 1.465 . S
C2554 C2553 1.396 . S
C2554 C2555 1.399 . S
C2555 H2541 0.929 . S
C2555 C2554 1.399 . S
C2555 C2556 1.385 . S
C2556 H2542 0.931 . S
C2556 C2555 1.385 . S
C2556 C2557 1.389 . S
C2557 C2556 1.389 . S
C2557 C2558 1.387 . S
C2558 H2543 0.930 . S
C2558 C2553 1.390 . S
C2558 C2557 1.387 . S
H2559 C2571 0.930 . S
H2560 C2573 0.930 . S
H2561 C2574 0.930 . S
H2562 C2578 0.959 . S
H2563 C2578 0.959 . S
H2564 C2578 0.961 . S
H2565 C2579 0.960 . S
H2566 C2579 0.961 . S
H2567 C2579 0.959 . S
H2568 C2582 0.929 . S
H2569 C2583 0.931 1_554 S
H2570 C2585 0.930 . S
C2571 H2559 0.930 . S
C2571 C2572 1.399 . S
C2571 C2576 1.399 . S
C2572 C2571 1.399 . S
C2572 C2573 1.376 . S
C2573 H2560 0.930 . S
C2573 C2572 1.376 . S
C2573 C2574 1.388 . S
C2574 H2561 0.930 . S
C2574 C2573 1.388 . S
C2574 C2575 1.390 . S
C2575 C2574 1.390 . S
C2575 C2576 1.394 . S
C2575 C2581 1.465 . S
C2576 C2571 1.399 . S
C2576 C2575 1.394 . S
C2576 C2577 1.516 . S
C2577 C2576 1.516 . S
C2577 C2578 1.502 . S
C2577 C2579 1.561 . S
C2577 C2580 1.526 . S
C2578 H2562 0.959 . S
C2578 H2563 0.959 . S
C2578 H2564 0.961 . S
C2578 C2577 1.502 . S
C2579 H2565 0.960 . S
C2579 H2566 0.961 . S
C2579 H2567 0.959 . S
C2579 C2577 1.561 . S
C2580 C2577 1.526 . S
C2580 C2581 1.396 . S
C2580 C2585 1.390 . S
C2581 C2575 1.465 . S
C2581 C2580 1.396 . S
C2581 C2582 1.399 . S
C2582 H2568 0.929 . S
C2582 C2581 1.399 . S
C2582 C2583 1.385 . S
C2583 H2569 0.931 1_556 S
C2583 C2582 1.385 . S
C2583 C2584 1.389 . S
C2584 C2583 1.389 . S
C2584 C2585 1.387 . S
C2585 H2570 0.930 . S
C2585 C2580 1.390 . S
C2585 C2584 1.387 . S
H2586 C2598 0.930 . S
H2587 C2600 0.930 . S
H2588 C2601 0.930 . S
H2589 C2605 0.959 . S
H2590 C2605 0.959 . S
H2591 C2605 0.961 . S
H2592 C2606 0.960 . S
H2593 C2606 0.961 . S
H2594 C2606 0.959 . S
H2595 C2609 0.929 . S
H2596 C2610 0.931 . S
H2597 C2612 0.930 . S
C2598 H2586 0.930 . S
C2598 C2599 1.399 . S
C2598 C2603 1.399 . S
C2599 C2598 1.399 . S
C2599 C2600 1.376 . S
C2600 H2587 0.930 . S
C2600 C2599 1.376 . S
C2600 C2601 1.388 . S
C2601 H2588 0.930 . S
C2601 C2600 1.388 . S
C2601 C2602 1.390 . S
C2602 C2601 1.390 . S
C2602 C2603 1.394 . S
C2602 C2608 1.465 . S
C2603 C2598 1.399 . S
C2603 C2602 1.394 . S
C2603 C2604 1.516 . S
C2604 C2603 1.516 . S
C2604 C2605 1.502 . S
C2604 C2606 1.561 . S
C2604 C2607 1.526 . S
C2605 H2589 0.959 . S
C2605 H2590 0.959 . S
C2605 H2591 0.961 . S
C2605 C2604 1.502 . S
C2606 H2592 0.960 . S
C2606 H2593 0.961 . S
C2606 H2594 0.959 . S
C2606 C2604 1.561 . S
C2607 C2604 1.526 . S
C2607 C2608 1.396 . S
C2607 C2612 1.390 . S
C2608 C2602 1.465 . S
C2608 C2607 1.396 . S
C2608 C2609 1.399 . S
C2609 H2595 0.929 . S
C2609 C2608 1.399 . S
C2609 C2610 1.385 . S
C2610 H2596 0.931 . S
C2610 C2609 1.385 . S
C2610 C2611 1.389 . S
C2611 C2610 1.389 . S
C2611 C2612 1.387 . S
C2612 H2597 0.930 . S
C2612 C2607 1.390 . S
C2612 C2611 1.387 . S
H2613 C2625 0.930 . S
H2614 C2627 0.930 1_556 S
H2615 C2628 0.930 . S
H2616 C2632 0.959 . S
H2617 C2632 0.959 . S
H2618 C2632 0.961 . S
H2619 C2633 0.960 . S
H2620 C2633 0.961 . S
H2621 C2633 0.959 . S
H2622 C2636 0.929 . S
H2623 C2637 0.931 . S
H2624 C2639 0.930 . S
C2625 H2613 0.930 . S
C2625 C2626 1.399 . S
C2625 C2630 1.399 . S
C2626 C2625 1.399 . S
C2626 C2627 1.376 . S
C2627 H2614 0.930 1_554 S
C2627 C2626 1.376 . S
C2627 C2628 1.388 . S
C2628 H2615 0.930 . S
C2628 C2627 1.388 . S
C2628 C2629 1.390 . S
C2629 C2628 1.390 . S
C2629 C2630 1.394 . S
C2629 C2635 1.465 . S
C2630 C2625 1.399 . S
C2630 C2629 1.394 . S
C2630 C2631 1.516 . S
C2631 C2630 1.516 . S
C2631 C2632 1.502 . S
C2631 C2633 1.561 . S
C2631 C2634 1.526 . S
C2632 H2616 0.959 . S
C2632 H2617 0.959 . S
C2632 H2618 0.961 . S
C2632 C2631 1.502 . S
C2633 H2619 0.960 . S
C2633 H2620 0.961 . S
C2633 H2621 0.959 . S
C2633 C2631 1.561 . S
C2634 C2631 1.526 . S
C2634 C2635 1.396 . S
C2634 C2639 1.390 . S
C2635 C2629 1.465 . S
C2635 C2634 1.396 . S
C2635 C2636 1.399 . S
C2636 H2622 0.929 . S
C2636 C2635 1.399 . S
C2636 C2637 1.385 . S
C2637 H2623 0.931 . S
C2637 C2636 1.385 . S
C2637 C2638 1.389 . S
C2638 C2637 1.389 . S
C2638 C2639 1.387 . S
C2639 H2624 0.930 . S
C2639 C2634 1.390 . S
C2639 C2638 1.387 . S
C1357 C74 1.182 . S
C1369 C142 1.019 . S
C1384 C242 1.833 . S
C1396 C140 1.766 . S
C1411 C308 1.739 . S
C1423 C235 1.758 . S
C1438 C67 1.162 . S
C1450 C310 0.959 . S
C1465 C56 1.053 . S
C1477 C825 1.110 . S
C1492 C651 1.213 . S
C1504 C153 0.970 . S
C1519 C231 1.833 . S
C1531 C907 1.771 . S
C1546 C319 1.761 . S
C1558 C1148 1.785 . S
C1573 C728 1.820 . S
C1585 C151 1.796 . S
C1600 C1075 1.746 . S
C1612 C224 1.770 . S
C1627 C1232 1.124 . S
C1639 C321 0.966 . S
C1654 C63 1.215 . S
C1666 C993 0.939 . S
C1681 C69 0.343 . S
C1693 C741 0.561 . S
C1708 C1082 2.074 . S
C1720 C399 2.075 . S
C1735 C489 0.797 . S
C1747 C1234 0.582 . S
C1762 C987 2.080 . S
C1774 C578 2.084 . S
C1789 C237 0.800 . S
C1801 C646 0.577 . S
C1816 C819 2.107 . S
C1828 C410 2.106 . S
C1843 C567 2.100 . S
C1855 C914 2.096 . S
C1870 C483 1.860 . S
C1882 C991 1.816 . S
C1897 C823 1.810 . S
C1909 C476 1.802 . S
C1924 C982 1.097 . S
C1936 C662 1.181 . S
C1951 C494 1.867 . S
C1963 C392 1.835 . S
C1978 C812 1.808 . S
C1990 C746 1.832 . S
C2005 C1166 1.865 . S
C2017 C980 1.831 . S
C2032 C560 1.766 . S
C2044 C487 1.796 . S
C2059 C814 1.031 . S
C2071 C1243 1.118 . S
C2086 C1161 0.531 . S
C2098 C58 0.375 . S
C2113 C226 0.646 . S
C2125 C1245 0.428 . S
C2140 C1071 2.089 . S
C2152 C158 2.087 . S
C2167 C657 0.521 . S
C2179 C478 0.729 . S
C2194 C326 2.075 . S
C2206 C903 2.081 . S
C2221 C1064 1.792 . S
C2233 C1159 1.789 . S
C2248 C655 1.025 . S
C2260 C1066 1.094 . S
C2275 C573 1.077 . S
C2287 C644 1.034 . S
C2302 C403 1.846 . S
C2314 C1155 1.870 . S
C2329 C1077 0.987 . S
C2341 C1316 1.113 . S
C2356 C1318 0.555 . S
C2368 C730 0.537 . S
C2383 C147 2.099 . S
C2395 C830 2.100 . S
C2410 C735 1.824 . S
C2422 C571 1.797 . S
C2437 C739 1.788 . S
C2449 C896 1.781 . S
C2464 C1327 1.188 . S
C2476 C562 0.948 . S
C2491 C1150 0.622 . S
C2503 C1329 0.404 . S
C2518 C998 2.090 . S
C2530 C315 2.087 . S
C2545 C898 1.004 . S
C2557 C1250 1.181 . S
C2572 C909 0.999 . S
C2584 C1323 1.167 . S
C2599 C405 1.115 . S
C2611 C1239 1.156 . S
C2626 C1334 1.174 . S
C2638 C394 1.000 . S
