# Generated by pormake.
# Topology yfw, (5)-cn, num edge types: 1
# Building blocks:
#     Node 0, Type 0, BuildingBlock: BEQFEK_clean_sbu_0, # of connection points: 5
#     Node 1, Type 0, BuildingBlock: BEQFEK_clean_sbu_0, # of connection points: 5
#     Node 2, Type 0, BuildingBlock: BEQFEK_clean_sbu_0, # of connection points: 5
#     Node 3, Type 0, BuildingBlock: BEQFEK_clean_sbu_0, # of connection points: 5
#     Node 4, Type 0, BuildingBlock: BEQFEK_clean_sbu_0, # of connection points: 5
#     Node 5, Type 0, BuildingBlock: BEQFEK_clean_sbu_0, # of connection points: 5
#     Node 6, Type 0, BuildingBlock: BEQFEK_clean_sbu_0, # of connection points: 5
#     Node 7, Type 0, BuildingBlock: BEQFEK_clean_sbu_0, # of connection points: 5
#     Node 8, Type 0, BuildingBlock: BEQFEK_clean_sbu_0, # of connection points: 5
#     Node 9, Type 0, BuildingBlock: BEQFEK_clean_sbu_0, # of connection points: 5
#     Node 10, Type 0, BuildingBlock: BEQFEK_clean_sbu_0, # of connection points: 5
#     Node 11, Type 0, BuildingBlock: BEQFEK_clean_sbu_0, # of connection points: 5
#     Node 12, Type 0, BuildingBlock: BEQFEK_clean_sbu_0, # of connection points: 5
#     Node 13, Type 0, BuildingBlock: BEQFEK_clean_sbu_0, # of connection points: 5
#     Node 14, Type 0, BuildingBlock: BEQFEK_clean_sbu_0, # of connection points: 5
#     Node 15, Type 0, BuildingBlock: BEQFEK_clean_sbu_0, # of connection points: 5
#     Edge 16, Type (0, 0), BuildingBlock: XUDNAN_clean_linker_2, # of connection points: 2
#     Edge 17, Type (0, 0), BuildingBlock: XUDNAN_clean_linker_2, # of connection points: 2
#     Edge 18, Type (0, 0), BuildingBlock: XUDNAN_clean_linker_2, # of connection points: 2
#     Edge 19, Type (0, 0), BuildingBlock: XUDNAN_clean_linker_2, # of connection points: 2
#     Edge 20, Type (0, 0), BuildingBlock: XUDNAN_clean_linker_2, # of connection points: 2
#     Edge 21, Type (0, 0), BuildingBlock: XUDNAN_clean_linker_2, # of connection points: 2
#     Edge 22, Type (0, 0), BuildingBlock: XUDNAN_clean_linker_2, # of connection points: 2
#     Edge 23, Type (0, 0), BuildingBlock: XUDNAN_clean_linker_2, # of connection points: 2
#     Edge 24, Type (0, 0), BuildingBlock: XUDNAN_clean_linker_2, # of connection points: 2
#     Edge 25, Type (0, 0), BuildingBlock: XUDNAN_clean_linker_2, # of connection points: 2
#     Edge 26, Type (0, 0), BuildingBlock: XUDNAN_clean_linker_2, # of connection points: 2
#     Edge 27, Type (0, 0), BuildingBlock: XUDNAN_clean_linker_2, # of connection points: 2
#     Edge 28, Type (0, 0), BuildingBlock: XUDNAN_clean_linker_2, # of connection points: 2
#     Edge 29, Type (0, 0), BuildingBlock: XUDNAN_clean_linker_2, # of connection points: 2
#     Edge 30, Type (0, 0), BuildingBlock: XUDNAN_clean_linker_2, # of connection points: 2
#     Edge 31, Type (0, 0), BuildingBlock: XUDNAN_clean_linker_2, # of connection points: 2
#     Edge 32, Type (0, 0), BuildingBlock: XUDNAN_clean_linker_2, # of connection points: 2
#     Edge 33, Type (0, 0), BuildingBlock: XUDNAN_clean_linker_2, # of connection points: 2
#     Edge 34, Type (0, 0), BuildingBlock: XUDNAN_clean_linker_2, # of connection points: 2
#     Edge 35, Type (0, 0), BuildingBlock: XUDNAN_clean_linker_2, # of connection points: 2
#     Edge 36, Type (0, 0), BuildingBlock: XUDNAN_clean_linker_2, # of connection points: 2
#     Edge 37, Type (0, 0), BuildingBlock: XUDNAN_clean_linker_2, # of connection points: 2
#     Edge 38, Type (0, 0), BuildingBlock: XUDNAN_clean_linker_2, # of connection points: 2
#     Edge 39, Type (0, 0), BuildingBlock: XUDNAN_clean_linker_2, # of connection points: 2
#     Edge 40, Type (0, 0), BuildingBlock: XUDNAN_clean_linker_2, # of connection points: 2
#     Edge 41, Type (0, 0), BuildingBlock: XUDNAN_clean_linker_2, # of connection points: 2
#     Edge 42, Type (0, 0), BuildingBlock: XUDNAN_clean_linker_2, # of connection points: 2
#     Edge 43, Type (0, 0), BuildingBlock: XUDNAN_clean_linker_2, # of connection points: 2
#     Edge 44, Type (0, 0), BuildingBlock: XUDNAN_clean_linker_2, # of connection points: 2
#     Edge 45, Type (0, 0), BuildingBlock: XUDNAN_clean_linker_2, # of connection points: 2
#     Edge 46, Type (0, 0), BuildingBlock: XUDNAN_clean_linker_2, # of connection points: 2
#     Edge 47, Type (0, 0), BuildingBlock: XUDNAN_clean_linker_2, # of connection points: 2
#     Edge 48, Type (0, 0), BuildingBlock: XUDNAN_clean_linker_2, # of connection points: 2
#     Edge 49, Type (0, 0), BuildingBlock: XUDNAN_clean_linker_2, # of connection points: 2
#     Edge 50, Type (0, 0), BuildingBlock: XUDNAN_clean_linker_2, # of connection points: 2
#     Edge 51, Type (0, 0), BuildingBlock: XUDNAN_clean_linker_2, # of connection points: 2
#     Edge 52, Type (0, 0), BuildingBlock: XUDNAN_clean_linker_2, # of connection points: 2
#     Edge 53, Type (0, 0), BuildingBlock: XUDNAN_clean_linker_2, # of connection points: 2
#     Edge 54, Type (0, 0), BuildingBlock: XUDNAN_clean_linker_2, # of connection points: 2
#     Edge 55, Type (0, 0), BuildingBlock: XUDNAN_clean_linker_2, # of connection points: 2
# Relax obj value: 0.075
# Max RMSD: 0.124
# Mean RMSD: 0.124
data_MOF--net-yfw--node1-BEQFEK_clean_sbu_0--edge1-XUDNAN_clean_linker_2
_symmetry_space_group_name_H-M    P1
_symmetry_Int_Tables_number       1
_symmetry_cell_setting            triclinic
loop_
_symmetry_equiv_pos_as_xyz
'x, y, z'
_cell_length_a     55.547162
_cell_length_b     55.611417
_cell_length_c     27.724501
_cell_angle_alpha  90.026653
_cell_angle_beta   90.046087
_cell_angle_gamma 90.009956
loop_
_atom_site_label
_atom_site_type_symbol
_atom_site_fract_x
_atom_site_fract_y
_atom_site_fract_z
_atom_type_partial_charge
Co0 Co 0.12661 0.0701 0.04383 0.0
Co1 Co 0.18124 0.08457 0.03372 0.0
C2 C 0.14341 0.1218 0.04374 0.0
O3 O 0.12694 0.1059 0.04705 0.0
O4 O 0.16531 0.11614 0.03664 0.0
C5 C 0.07666 0.05979 0.01264 0.0
O6 O 0.08138 0.07076 0.97179 0.0
C7 C 0.22564 0.10251 0.98802 0.0
C8 C 0.25256 0.07821 0.02047 0.0
C9 C 0.2497 0.09604 0.98612 0.0
N10 N 0.21472 0.08887 0.02156 0.0
N11 N 0.2311 0.07494 0.04188 0.0
C12 C 0.21275 0.11939 0.95485 0.0
H13 H 0.19312 0.11568 0.95486 0.0
H14 H 0.22001 0.11795 0.91766 0.0
H15 H 0.21575 0.13809 0.96746 0.0
C16 C 0.13952 0.04009 0.95847 0.0
N17 N 0.14458 0.05725 0.99142 0.0
N18 N 0.16723 0.0639 0.98633 0.0
C19 C 0.17699 0.05164 0.94913 0.0
C20 C 0.15976 0.03621 0.93046 0.0
C21 C 0.11706 0.02521 0.95777 0.0
H22 H 0.10983 0.02314 0.99474 0.0
H23 H 0.10343 0.03406 0.93457 0.0
H24 H 0.12064 0.00709 0.94255 0.0
O25 O 0.14079 0.05831 0.10378 0.0
O26 O 0.17909 0.06942 0.09853 0.0
H27 H 0.2151 0.05016 0.96031 0.0
H28 H 0.20613 0.04371 0.8991 0.0
C29 C 0.20222 0.05483 0.93127 0.0
H30 H 0.20491 0.07379 0.92084 0.0
H31 H 0.22729 0.06201 0.06807 0.0
O32 O 0.0928 0.05826 0.04502 0.0
C33 C 0.16188 0.05953 0.12145 0.0
Co34 Co 0.93113 0.6277 0.27295 0.0
Co35 Co 0.91913 0.68296 0.2783 0.0
C36 C 0.88065 0.6441 0.2809 0.0
O37 O 0.89555 0.6267 0.27748 0.0
O38 O 0.88767 0.66595 0.28046 0.0
C39 C 0.94233 0.57579 0.24672 0.0
O40 O 0.9243 0.5741 0.21626 0.0
C41 C 0.90284 0.72772 0.23293 0.0
C42 C 0.92162 0.7548 0.27743 0.0
C43 C 0.90783 0.75208 0.23612 0.0
N44 N 0.91349 0.71653 0.27028 0.0
N45 N 0.92407 0.73293 0.29754 0.0
C46 C 0.8909 0.71496 0.19185 0.0
H47 H 0.89397 0.69527 0.19419 0.0
H48 H 0.89769 0.72195 0.1569 0.0
H49 H 0.87127 0.71856 0.19318 0.0
C50 C 0.95355 0.64386 0.1807 0.0
N51 N 0.94168 0.64814 0.22222 0.0
N52 N 0.93912 0.67149 0.22771 0.0
C53 C 0.95066 0.68286 0.19158 0.0
C54 C 0.9597 0.66579 0.15981 0.0
C55 C 0.95701 0.61927 0.15999 0.0
H56 H 0.94064 0.60845 0.16654 0.0
H57 H 0.96029 0.61984 0.12057 0.0
H58 H 0.97243 0.61041 0.1782 0.0
O59 O 0.94344 0.63942 0.33619 0.0
O60 O 0.93477 0.67827 0.34095 0.0
H61 H 0.97335 0.71293 0.173 0.0
H62 H 0.94165 0.71878 0.17006 0.0
C63 C 0.95581 0.70931 0.19076 0.0
H64 H 0.95639 0.71657 0.22795 0.0
H65 H 0.93443 0.72899 0.32793 0.0
O66 O 0.94625 0.59531 0.26925 0.0
C67 C 0.94363 0.65925 0.3591 0.0
Co68 Co 0.38203 0.42918 0.50666 0.0
Co69 Co 0.32657 0.42141 0.5269 0.0
C70 C 0.3628 0.38151 0.53762 0.0
O71 O 0.38065 0.39488 0.52675 0.0
O72 O 0.34126 0.38937 0.53749 0.0
C73 C 0.43091 0.44499 0.5168 0.0
O74 O 0.42657 0.44139 0.56281 0.0
C75 C 0.27817 0.40568 0.49853 0.0
C76 C 0.25579 0.43184 0.53818 0.0
C77 C 0.25477 0.41431 0.50262 0.0
N78 N 0.29234 0.41828 0.52876 0.0
N79 N 0.27868 0.4332 0.55372 0.0
C80 C 0.28755 0.38816 0.46206 0.0
H81 H 0.30735 0.38999 0.45808 0.0
H82 H 0.27859 0.39071 0.42664 0.0
H83 H 0.28346 0.36965 0.47451 0.0
C84 C 0.3627 0.4491 0.41636 0.0
N85 N 0.35946 0.43704 0.45795 0.0
N86 N 0.33625 0.43522 0.46693 0.0
C87 C 0.32397 0.44651 0.43145 0.0
C88 C 0.34033 0.4555 0.3982 0.0
C89 C 0.38677 0.45742 0.39874 0.0
H90 H 0.39896 0.44173 0.39506 0.0
H91 H 0.3856 0.467 0.36379 0.0
H92 H 0.39468 0.46983 0.4258 0.0
O93 O 0.37493 0.44903 0.56307 0.0
O94 O 0.33634 0.44326 0.58039 0.0
H95 H 0.29058 0.45482 0.46668 0.0
H96 H 0.29119 0.46333 0.40409 0.0
C97 C 0.29717 0.44969 0.43044 0.0
H98 H 0.2887 0.43261 0.4193 0.0
H99 H 0.28529 0.44577 0.57836 0.0
O100 O 0.41493 0.43921 0.48599 0.0
C101 C 0.3566 0.45309 0.58918 0.0
Co102 Co 0.56438 0.87337 0.77446 0.0
Co103 Co 0.57717 0.81835 0.76671 0.0
C104 C 0.61497 0.85631 0.78515 0.0
O105 O 0.59977 0.8735 0.78478 0.0
O106 O 0.60858 0.83462 0.77763 0.0
C107 C 0.55637 0.92529 0.75159 0.0
O108 O 0.574 0.92472 0.72007 0.0
C109 C 0.59806 0.77692 0.71726 0.0
C110 C 0.57747 0.74674 0.74857 0.0
C111 C 0.5945 0.75217 0.7136 0.0
N112 N 0.58347 0.78549 0.75191 0.0
N113 N 0.57155 0.76733 0.77111 0.0
C114 C 0.61302 0.79285 0.6857 0.0
H115 H 0.60687 0.81179 0.68838 0.0
H116 H 0.61212 0.78686 0.64755 0.0
H117 H 0.63204 0.79204 0.69785 0.0
C118 C 0.54361 0.86313 0.67737 0.0
N119 N 0.55516 0.85628 0.71789 0.0
N120 N 0.55937 0.83297 0.71562 0.0
C121 C 0.5501 0.82431 0.674 0.0
C122 C 0.54029 0.84321 0.64825 0.0
C123 C 0.53499 0.88807 0.667 0.0
H124 H 0.52588 0.89554 0.69921 0.0
H125 H 0.55061 0.89954 0.65772 0.0
H126 H 0.52216 0.88832 0.63628 0.0
O127 O 0.54942 0.85825 0.83111 0.0
O128 O 0.55854 0.81945 0.82754 0.0
H129 H 0.54843 0.78656 0.69004 0.0
H130 H 0.53619 0.79451 0.63221 0.0
C131 C 0.55068 0.79852 0.6585 0.0
H132 H 0.56806 0.79469 0.6406 0.0
H133 H 0.55861 0.76913 0.79815 0.0
O134 O 0.55095 0.9065 0.7753 0.0
C135 C 0.54844 0.83713 0.84852 0.0
Co136 Co 0.87967 0.06855 0.502 0.0
Co137 Co 0.82371 0.07504 0.51803 0.0
C138 C 0.85978 0.11502 0.53671 0.0
O139 O 0.87812 0.10278 0.52385 0.0
O140 O 0.83869 0.10608 0.53563 0.0
C141 C 0.92833 0.05269 0.51654 0.0
O142 O 0.92278 0.05588 0.56216 0.0
C143 C 0.77896 0.09735 0.48805 0.0
C144 C 0.75121 0.07274 0.51657 0.0
C145 C 0.75429 0.09296 0.48787 0.0
N146 N 0.78978 0.08032 0.51471 0.0
N147 N 0.77309 0.06595 0.53257 0.0
C148 C 0.79267 0.11512 0.45812 0.0
H149 H 0.81176 0.10958 0.4545 0.0
H150 H 0.78453 0.11685 0.42172 0.0
H151 H 0.79218 0.13295 0.47608 0.0
C152 C 0.86233 0.0503 0.4083 0.0
N153 N 0.85835 0.0617 0.45043 0.0
N154 N 0.83499 0.06373 0.45734 0.0
C155 C 0.82334 0.05376 0.41959 0.0
C156 C 0.84025 0.04484 0.3874 0.0
C157 C 0.8866 0.04147 0.39287 0.0
H158 H 0.89923 0.05689 0.39072 0.0
H159 H 0.88607 0.03208 0.35765 0.0
H160 H 0.89359 0.02881 0.42045 0.0
O161 O 0.87067 0.04759 0.5559 0.0
O162 O 0.83131 0.05092 0.56882 0.0
H163 H 0.78899 0.04369 0.44854 0.0
H164 H 0.7907 0.04136 0.38356 0.0
C165 C 0.7965 0.0519 0.41538 0.0
H166 H 0.78886 0.07011 0.41105 0.0
H167 H 0.77673 0.0508 0.55355 0.0
O168 O 0.91307 0.05855 0.48432 0.0
C169 C 0.85175 0.04173 0.57885 0.0
Co170 Co 0.94098 0.3769 0.77651 0.0
Co171 Co 0.9233 0.32294 0.77477 0.0
C172 C 0.88874 0.36422 0.78505 0.0
O173 O 0.90559 0.3797 0.78165 0.0
O174 O 0.893 0.34171 0.78312 0.0
C175 C 0.95423 0.42292 0.80826 0.0
O176 O 0.94197 0.41525 0.84573 0.0
C177 C 0.89949 0.28035 0.73358 0.0
C178 C 0.92176 0.25098 0.76345 0.0
C179 C 0.90298 0.25557 0.73177 0.0
N180 N 0.91575 0.28982 0.76416 0.0
N181 N 0.92866 0.27212 0.7826 0.0
C182 C 0.88313 0.29526 0.70283 0.0
H183 H 0.88964 0.31411 0.70112 0.0
H184 H 0.88192 0.28772 0.66583 0.0
H185 H 0.86484 0.29527 0.71891 0.0
C186 C 0.96457 0.36168 0.6868 0.0
N187 N 0.94986 0.35732 0.72426 0.0
N188 N 0.94263 0.33478 0.72285 0.0
C189 C 0.95262 0.32404 0.68403 0.0
C190 C 0.9668 0.34075 0.66 0.0
C191 C 0.97784 0.38487 0.67984 0.0
H192 H 0.98731 0.38967 0.71374 0.0
H193 H 0.96472 0.39938 0.67187 0.0
H194 H 0.99123 0.38376 0.65029 0.0
O195 O 0.95351 0.36296 0.83661 0.0
O196 O 0.94165 0.32485 0.83611 0.0
H197 H 0.95337 0.28637 0.6999 0.0
H198 H 0.95858 0.29323 0.63708 0.0
C199 C 0.94836 0.29843 0.66971 0.0
H200 H 0.92904 0.29592 0.66156 0.0
H201 H 0.94295 0.27459 0.80656 0.0
O202 O 0.95575 0.40944 0.77136 0.0
C203 C 0.95262 0.34231 0.85618 0.0
Co204 Co 0.62443 0.43149 0.02563 0.0
Co205 Co 0.67909 0.41629 0.01853 0.0
C206 C 0.6398 0.37964 0.02047 0.0
O207 O 0.62349 0.3958 0.02127 0.0
O208 O 0.66211 0.38498 0.01949 0.0
C209 C 0.57407 0.44478 -0.00209 0.0
O210 O 0.5769 0.43436 0.95578 0.0
C211 C 0.72425 0.3986 0.97391 0.0
C212 C 0.75031 0.42359 0.00725 0.0
C213 C 0.74814 0.40587 0.97245 0.0
N214 N 0.71275 0.41189 0.00734 0.0
N215 N 0.72866 0.4262 0.02819 0.0
C216 C 0.71201 0.38156 0.94008 0.0
H217 H 0.69223 0.38429 0.94067 0.0
H218 H 0.71899 0.38388 0.90285 0.0
H219 H 0.71604 0.36286 0.95149 0.0
C220 C 0.63895 0.46269 0.94348 0.0
N221 N 0.64345 0.44534 0.97624 0.0
N222 N 0.66599 0.43823 0.97182 0.0
C223 C 0.67626 0.45046 0.93511 0.0
C224 C 0.65947 0.46632 0.91616 0.0
C225 C 0.61642 0.4774 0.94144 0.0
H226 H 0.60889 0.47977 0.9781 0.0
H227 H 0.60303 0.46818 0.91825 0.0
H228 H 0.62 0.49539 0.92565 0.0
O229 O 0.63812 0.44058 0.08817 0.0
O230 O 0.67663 0.4303 0.08417 0.0
H231 H 0.71442 0.4509 0.94572 0.0
H232 H 0.70544 0.45703 0.88441 0.0
C233 C 0.7013 0.44634 0.91702 0.0
H234 H 0.70334 0.42721 0.90726 0.0
H235 H 0.72435 0.439 0.05433 0.0
O236 O 0.5912 0.44483 0.02834 0.0
C237 C 0.65892 0.43925 0.10703 0.0
Co238 Co 0.5657 0.11904 0.26852 0.0
Co239 Co 0.5788 0.17402 0.25602 0.0
C240 C 0.61558 0.13695 0.2867 0.0
O241 O 0.60079 0.11938 0.28477 0.0
O242 O 0.60916 0.15825 0.27557 0.0
C243 C 0.55556 0.06618 0.25197 0.0
O244 O 0.57328 0.0644 0.22084 0.0
C245 C 0.60003 0.21583 0.20621 0.0
C246 C 0.57554 0.24462 0.23066 0.0
C247 C 0.59435 0.23986 0.19939 0.0
N248 N 0.58495 0.20674 0.2395 0.0
N249 N 0.57086 0.22426 0.25499 0.0
C250 C 0.61773 0.2012 0.17809 0.0
H251 H 0.61354 0.18174 0.1812 0.0
H252 H 0.61782 0.20677 0.13965 0.0
H253 H 0.63602 0.20443 0.19285 0.0
C254 C 0.54784 0.12672 0.16801 0.0
N255 N 0.55874 0.13449 0.20863 0.0
N256 N 0.56329 0.15767 0.20424 0.0
C257 C 0.55496 0.16534 0.16112 0.0
C258 C 0.54529 0.14593 0.13674 0.0
C259 C 0.53848 0.10181 0.16011 0.0
H260 H 0.52849 0.09575 0.19244 0.0
H261 H 0.55385 0.08953 0.15368 0.0
H262 H 0.52627 0.10097 0.12845 0.0
O263 O 0.54862 0.13613 0.32055 0.0
O264 O 0.55755 0.17478 0.31257 0.0
H265 H 0.55162 0.20333 0.17292 0.0
H266 H 0.54343 0.19395 0.11312 0.0
C267 C 0.55607 0.19074 0.14333 0.0
H268 H 0.57442 0.19455 0.1299 0.0
H269 H 0.55694 0.22192 0.2798 0.0
O270 O 0.55126 0.08617 0.27254 0.0
C271 C 0.54674 0.15785 0.33438 0.0
Co272 Co 0.62072 0.55863 0.52668 0.0
Co273 Co 0.67511 0.57417 0.51711 0.0
C274 C 0.63562 0.61053 0.52611 0.0
O275 O 0.61908 0.59464 0.52826 0.0
O276 O 0.65758 0.60467 0.52096 0.0
C277 C 0.57262 0.55019 0.49101 0.0
O278 O 0.57883 0.5659 0.45788 0.0
C279 C 0.71601 0.59691 0.46926 0.0
C280 C 0.7469 0.57698 0.49961 0.0
C281 C 0.74087 0.59449 0.46607 0.0
N282 N 0.70786 0.58133 0.50251 0.0
N283 N 0.72643 0.56976 0.52114 0.0
C284 C 0.69976 0.61149 0.43758 0.0
H285 H 0.68133 0.60379 0.43731 0.0
H286 H 0.7068 0.61216 0.40015 0.0
H287 H 0.69874 0.63011 0.45183 0.0
C288 C 0.63485 0.52905 0.44129 0.0
N289 N 0.63939 0.54625 0.47448 0.0
N290 N 0.66196 0.55319 0.47009 0.0
C291 C 0.6723 0.541 0.4335 0.0
C292 C 0.65549 0.52529 0.41425 0.0
C293 C 0.61227 0.51439 0.43902 0.0
H294 H 0.59836 0.5245 0.41874 0.0
H295 H 0.61536 0.49701 0.42031 0.0
H296 H 0.60557 0.51068 0.4759 0.0
O297 O 0.63541 0.54782 0.58779 0.0
O298 O 0.6738 0.55888 0.58155 0.0
H299 H 0.71027 0.54029 0.44683 0.0
H300 H 0.70225 0.53331 0.38524 0.0
C301 C 0.69771 0.54453 0.41693 0.0
H302 H 0.70026 0.56349 0.40626 0.0
H303 H 0.72503 0.55631 0.54722 0.0
O304 O 0.58751 0.54509 0.52432 0.0
C305 C 0.65663 0.54921 0.60507 0.0
Co306 Co 0.43777 0.11554 0.75627 0.0
Co307 Co 0.42358 0.17043 0.76464 0.0
C308 C 0.388 0.13159 0.78482 0.0
O309 O 0.4031 0.11524 0.77369 0.0
O310 O 0.39362 0.15379 0.78391 0.0
C311 C 0.44946 0.06492 0.7204 0.0
O312 O 0.43905 0.06783 0.67828 0.0
C313 C 0.39934 0.21617 0.73936 0.0
C314 C 0.43012 0.2412 0.74382 0.0
C315 C 0.40642 0.23964 0.72828 0.0
N316 N 0.41843 0.20435 0.75765 0.0
N317 N 0.43648 0.21968 0.76176 0.0
C318 C 0.37511 0.20484 0.7328 0.0
H319 H 0.37161 0.19189 0.76231 0.0
H320 H 0.37467 0.19482 0.6982 0.0
H321 H 0.36066 0.21862 0.73311 0.0
C322 C 0.45679 0.13256 0.66207 0.0
N323 N 0.44386 0.13555 0.70276 0.0
N324 N 0.43585 0.15785 0.70464 0.0
C325 C 0.4421 0.16916 0.66347 0.0
C326 C 0.45589 0.15371 0.6357 0.0
C327 C 0.47303 0.11161 0.65263 0.0
H328 H 0.47786 0.10253 0.68684 0.0
H329 H 0.46377 0.09873 0.62837 0.0
H330 H 0.4898 0.11755 0.63442 0.0
O331 O 0.45676 0.12787 0.80943 0.0
O332 O 0.44806 0.16661 0.81721 0.0
H333 H 0.44538 0.20734 0.66948 0.0
H334 H 0.43652 0.19715 0.61042 0.0
C335 C 0.43437 0.19398 0.64968 0.0
H336 H 0.41515 0.19646 0.65863 0.0
H337 H 0.45367 0.21499 0.77369 0.0
O338 O 0.44972 0.08191 0.75107 0.0
C339 C 0.45979 0.148 0.83 0.0
Co340 Co 0.88315 0.94238 0.02049 0.0
Co341 Co 0.83082 0.92126 0.00433 0.0
C342 C 0.87131 0.88939 0.03292 0.0
O343 O 0.88569 0.90732 0.03286 0.0
O344 O 0.84905 0.89171 0.02226 0.0
C345 C 0.93482 0.95448 0.00316 0.0
O346 O 0.93581 0.93817 0.96894 0.0
C347 C 0.78689 0.89684 0.96394 0.0
C348 C 0.76156 0.92738 0.96843 0.0
C349 C 0.76351 0.90398 0.95163 0.0
N350 N 0.79809 0.91552 0.98543 0.0
N351 N 0.78263 0.93348 0.98865 0.0
C352 C 0.79845 0.87283 0.95654 0.0
H353 H 0.81321 0.87011 0.98286 0.0
H354 H 0.80622 0.87194 0.91974 0.0
H355 H 0.78501 0.85821 0.96072 0.0
C356 C 0.87496 0.95977 0.92089 0.0
N357 N 0.86791 0.94803 0.96091 0.0
N358 N 0.84663 0.93825 0.95324 0.0
C359 C 0.83988 0.94294 0.9074 0.0
C360 C 0.85761 0.95667 0.88565 0.0
C361 C 0.89715 0.97489 0.91699 0.0
H362 H 0.90147 0.98318 0.95229 0.0
H363 H 0.91242 0.96347 0.90525 0.0
H364 H 0.8947 0.98932 0.88976 0.0
O365 O 0.86448 0.95728 0.07197 0.0
O366 O 0.8281 0.94144 0.06343 0.0
H367 H 0.80171 0.94214 0.89807 0.0
H368 H 0.81832 0.93542 0.84392 0.0
C369 C 0.81787 0.93295 0.8836 0.0
H370 H 0.81648 0.91349 0.89151 0.0
H371 H 0.7868 0.95029 0.00315 0.0
O372 O 0.91529 0.95796 0.026 0.0
C373 C 0.8428 0.95505 0.08561 0.0
Co374 Co 0.06452 0.38702 0.28229 0.0
Co375 Co 0.08683 0.33513 0.27232 0.0
C376 C 0.11807 0.37659 0.2947 0.0
O377 O 0.09985 0.39055 0.29286 0.0
O378 O 0.1161 0.35411 0.28666 0.0
C379 C 0.04964 0.43544 0.24928 0.0
O380 O 0.06063 0.43128 0.20819 0.0
C381 C 0.11125 0.29143 0.2335 0.0
C382 C 0.08286 0.26467 0.24862 0.0
C383 C 0.10467 0.26752 0.22496 0.0
N384 N 0.09353 0.30209 0.25886 0.0
N385 N 0.077 0.28578 0.26882 0.0
C386 C 0.13375 0.30418 0.21843 0.0
H387 H 0.13148 0.31152 0.18152 0.0
H388 H 0.14931 0.29166 0.2188 0.0
H389 H 0.13753 0.31942 0.24306 0.0
C390 C 0.04074 0.3718 0.19091 0.0
N391 N 0.05716 0.36895 0.22637 0.0
N392 N 0.06827 0.34824 0.22032 0.0
C393 C 0.0601 0.33794 0.17939 0.0
C394 C 0.04224 0.35232 0.15991 0.0
C395 C 0.02134 0.39049 0.1909 0.0
H396 H 0.01812 0.39728 0.22791 0.0
H397 H 0.02674 0.4056 0.16718 0.0
H398 H 0.00429 0.38296 0.17639 0.0
O399 O 0.05092 0.37055 0.3383 0.0
O400 O 0.06727 0.33428 0.33233 0.0
H401 H 0.06172 0.29953 0.17876 0.0
H402 H 0.06437 0.31305 0.11998 0.0
C403 C 0.06936 0.31492 0.15855 0.0
H404 H 0.0892 0.31455 0.16121 0.0
H405 H 0.06102 0.28942 0.28718 0.0
O406 O 0.04965 0.41955 0.28221 0.0
C407 C 0.05388 0.34932 0.35416 0.0
Co408 Co 0.38092 0.55851 0.03291 0.0
Co409 Co 0.32757 0.5747 0.01084 0.0
C410 C 0.36433 0.61019 0.04229 0.0
O411 O 0.38032 0.59382 0.04648 0.0
O412 O 0.34318 0.60554 0.02708 0.0
C413 C 0.43302 0.55079 0.01605 0.0
O414 O 0.43203 0.56698 0.98163 0.0
C415 C 0.28536 0.5971 0.96307 0.0
C416 C 0.25724 0.57034 0.98027 0.0
C417 C 0.26113 0.59159 0.95531 0.0
N418 N 0.29507 0.57969 0.99064 0.0
N419 N 0.27808 0.56395 0.00121 0.0
C420 C 0.29975 0.61726 0.94195 0.0
H421 H 0.31927 0.6131 0.94349 0.0
H422 H 0.29434 0.62055 0.90398 0.0
H423 H 0.29651 0.63386 0.96318 0.0
C424 C 0.3758 0.53832 0.93397 0.0
N425 N 0.36729 0.55077 0.97203 0.0
N426 N 0.34519 0.55796 0.96238 0.0
C427 C 0.33926 0.55082 0.91736 0.0
C428 C 0.35854 0.53832 0.89798 0.0
C429 C 0.39898 0.5246 0.93328 0.0
H430 H 0.40316 0.51761 0.96972 0.0
H431 H 0.41369 0.53661 0.92109 0.0
H432 H 0.39795 0.50925 0.90774 0.0
O433 O 0.36251 0.54224 0.0832 0.0
O434 O 0.32526 0.55542 0.07104 0.0
H435 H 0.30081 0.54947 0.91363 0.0
H436 H 0.31528 0.54972 0.85534 0.0
C437 C 0.31608 0.55685 0.89262 0.0
H438 H 0.31415 0.57661 0.89075 0.0
H439 H 0.28088 0.54849 0.02176 0.0
O440 O 0.4142 0.54571 0.04001 0.0
C441 C 0.34044 0.54312 0.09494 0.0
Co442 Co 0.433 0.87943 0.27303 0.0
Co443 Co 0.4217 0.82362 0.27064 0.0
C444 C 0.38413 0.85928 0.29974 0.0
O445 O 0.39818 0.87717 0.29302 0.0
O446 O 0.39114 0.83783 0.29207 0.0
C447 C 0.44256 0.93039 0.2402 0.0
O448 O 0.43226 0.92637 0.19833 0.0
C449 C 0.40006 0.77792 0.23629 0.0
C450 C 0.43079 0.75318 0.24571 0.0
C451 C 0.40788 0.75464 0.22604 0.0
N452 N 0.41801 0.7898 0.25867 0.0
N453 N 0.43603 0.77466 0.26539 0.0
C454 C 0.3761 0.78893 0.22514 0.0
H455 H 0.3711 0.80184 0.25373 0.0
H456 H 0.37713 0.79895 0.19062 0.0
H457 H 0.36191 0.77495 0.2225 0.0
C458 C 0.4551 0.86647 0.17802 0.0
N459 N 0.44054 0.86181 0.21596 0.0
N460 N 0.4336 0.83914 0.21369 0.0
C461 C 0.44209 0.82936 0.17259 0.0
C462 C 0.45633 0.8461 0.14924 0.0
C463 C 0.47151 0.88776 0.17457 0.0
H464 H 0.4747 0.89566 0.21068 0.0
H465 H 0.46332 0.90139 0.15042 0.0
H466 H 0.4891 0.88254 0.15873 0.0
O467 O 0.45302 0.86591 0.32377 0.0
O468 O 0.44578 0.8266 0.32405 0.0
H469 H 0.44781 0.79139 0.17734 0.0
H470 H 0.44168 0.80193 0.11713 0.0
C471 C 0.43708 0.80428 0.15578 0.0
H472 H 0.41772 0.80031 0.15998 0.0
H473 H 0.45246 0.77939 0.28099 0.0
O474 O 0.44356 0.9138 0.27169 0.0
C475 C 0.45677 0.84498 0.34039 0.0
Co476 Co 0.12144 0.9437 0.54137 0.0
Co477 Co 0.17524 0.92516 0.53443 0.0
C478 C 0.13432 0.89085 0.54121 0.0
O479 O 0.11898 0.90787 0.54402 0.0
O480 O 0.15669 0.89497 0.53582 0.0
C481 C 0.07443 0.95287 0.50107 0.0
O482 O 0.08147 0.93723 0.46846 0.0
C483 C 0.2181 0.90206 0.49256 0.0
C484 C 0.24743 0.92392 0.5239 0.0
C485 C 0.24295 0.9054 0.4916 0.0
N486 N 0.2085 0.91811 0.52336 0.0
N487 N 0.22617 0.93082 0.54259 0.0
C488 C 0.20326 0.88601 0.46093 0.0
H489 H 0.18458 0.89291 0.45804 0.0
H490 H 0.21127 0.88466 0.42437 0.0
H491 H 0.20259 0.86776 0.47704 0.0
C492 C 0.13799 0.97203 0.45657 0.0
N493 N 0.1414 0.9549 0.49032 0.0
N494 N 0.16355 0.94661 0.48657 0.0
C495 C 0.17466 0.95778 0.44958 0.0
C496 C 0.15886 0.97428 0.42961 0.0
C497 C 0.11628 0.98791 0.45345 0.0
H498 H 0.10221 0.97878 0.43176 0.0
H499 H 0.12066 0.00525 0.4357 0.0
H500 H 0.10914 0.99162 0.49 0.0
O501 O 0.13533 0.95444 0.60282 0.0
O502 O 0.17283 0.94048 0.59911 0.0
H503 H 0.21273 0.95709 0.46142 0.0
H504 H 0.20439 0.96199 0.39922 0.0
C505 C 0.19967 0.95228 0.43276 0.0
H506 H 0.20115 0.93284 0.42514 0.0
H507 H 0.22362 0.94486 0.56704 0.0
O508 O 0.08845 0.95785 0.53596 0.0
C509 C 0.15609 0.95152 0.62145 0.0
Co510 Co 0.06293 0.62188 0.78744 0.0
Co511 Co 0.07434 0.67656 0.76619 0.0
C512 C 0.1133 0.64096 0.79143 0.0
O513 O 0.09875 0.62318 0.79293 0.0
O514 O 0.10598 0.66218 0.78199 0.0
C515 C 0.05327 0.56893 0.77453 0.0
O516 O 0.06785 0.56795 0.7373 0.0
C517 C 0.09386 0.72003 0.71656 0.0
C518 C 0.06445 0.74572 0.7313 0.0
C519 C 0.08587 0.74329 0.70611 0.0
N520 N 0.0774 0.70926 0.745 0.0
N521 N 0.06016 0.72492 0.75432 0.0
C522 C 0.1166 0.70806 0.70043 0.0
H523 H 0.12176 0.69359 0.72574 0.0
H524 H 0.11374 0.69985 0.6644 0.0
H525 H 0.13151 0.7213 0.69816 0.0
C526 C 0.03557 0.62817 0.69521 0.0
N527 N 0.05143 0.63581 0.72891 0.0
N528 N 0.0576 0.65816 0.7191 0.0
C529 C 0.0465 0.66509 0.67822 0.0
C530 C 0.03198 0.64654 0.66215 0.0
C531 C 0.02174 0.60513 0.69804 0.0
H532 H 0.01641 0.60154 0.73589 0.0
H533 H 0.03335 0.5902 0.68543 0.0
H534 H 0.0054 0.60568 0.675 0.0
O535 O 0.0494 0.63947 0.8429 0.0
O536 O 0.05487 0.67808 0.82591 0.0
H537 H 0.03957 0.70291 0.67782 0.0
H538 H 0.04121 0.68969 0.61853 0.0
C539 C 0.04897 0.68935 0.65541 0.0
H540 H 0.06824 0.69413 0.65277 0.0
H541 H 0.04496 0.72111 0.77504 0.0
O542 O 0.05025 0.58871 0.79676 0.0
C543 C 0.04683 0.66158 0.85325 0.0
H544 H 0.9697 0.97036 0.9404 0.0
H545 H 0.94639 0.97442 0.0895 0.0
H546 H 0.97976 0.00234 0.1076 0.0
H547 H 0.03399 0.97371 0.96243 0.0
H548 H 0.03983 0.99252 0.91083 0.0
H549 H 0.0148 0.97192 0.91006 0.0
H550 H 0.9859 0.00719 0.89071 0.0
H551 H 0.01082 0.02793 0.89182 0.0
H552 H 0.98511 0.03296 0.93016 0.0
H553 H 0.01603 0.02875 0.11028 0.0
H554 H 0.0523 0.05356 0.09656 0.0
H555 H 0.05051 0.03528 0.9445 0.0
C556 C 0.97187 0.97692 0.97694 0.0
C557 C 0.95568 0.97007 0.01375 0.0
C558 C 0.95869 0.97941 0.06088 0.0
C559 C 0.97756 0.99526 0.07149 0.0
C560 C 0.99305 0.00192 0.03437 0.0
C561 C 0.99037 0.9932 0.98796 0.0
C562 C 0.00904 0.00402 0.95444 0.0
C563 C 0.02538 0.98437 0.9332 0.0
C564 C 0.99699 0.01891 0.91442 0.0
C565 C 0.02271 0.01998 0.98939 0.0
C566 C 0.01326 0.01831 0.03537 0.0
C567 C 0.02344 0.03043 0.07435 0.0
C568 C 0.04399 0.04448 0.06624 0.0
C569 C 0.05387 0.0466 0.01942 0.0
C570 C 0.04293 0.0344 0.98044 0.0
H571 H 0.95722 0.54091 0.18269 0.0
H572 H 0.96427 0.56471 0.33111 0.0
H573 H 0.99272 0.53164 0.34726 0.0
H574 H 0.96148 0.47677 0.20508 0.0
H575 H 0.97937 0.47084 0.15219 0.0
H576 H 0.9586 0.49571 0.15262 0.0
H577 H 0.99333 0.52473 0.13028 0.0
H578 H 0.01424 0.49997 0.1301 0.0
H579 H 0.01986 0.52581 0.16772 0.0
H580 H 0.01923 0.49569 0.34843 0.0
H581 H 0.04425 0.45976 0.33334 0.0
H582 H 0.02312 0.46069 0.18268 0.0
C583 C 0.96458 0.53891 0.21865 0.0
C584 C 0.95841 0.55516 0.25584 0.0
C585 C 0.96875 0.55238 0.3022 0.0
C586 C 0.9849 0.53367 0.31174 0.0
C587 C 0.99085 0.51809 0.2743 0.0
C588 C 0.98121 0.52056 0.22857 0.0
C589 C 0.99151 0.50184 0.19448 0.0
C590 C 0.97155 0.48531 0.17496 0.0
C591 C 0.00557 0.51381 0.15321 0.0
C592 C 0.00823 0.48841 0.22838 0.0
C593 C 0.00734 0.49801 0.27433 0.0
C594 C 0.02029 0.48813 0.31252 0.0
C595 C 0.03442 0.46777 0.30364 0.0
C596 C 0.03582 0.45775 0.25681 0.0
C597 C 0.02273 0.46835 0.2186 0.0
H598 H 0.55064 0.5218 0.55902 0.0
H599 H 0.54417 0.54606 0.41078 0.0
H600 H 0.50848 0.52011 0.39998 0.0
H601 H 0.53292 0.46055 0.53932 0.0
H602 H 0.51608 0.45825 0.59467 0.0
H603 H 0.54129 0.47853 0.5908 0.0
H604 H 0.51405 0.51408 0.6167 0.0
H605 H 0.48882 0.49387 0.62119 0.0
H606 H 0.48683 0.52016 0.58338 0.0
H607 H 0.47408 0.4906 0.40471 0.0
H608 H 0.44105 0.46309 0.42699 0.0
H609 H 0.46908 0.45922 0.57304 0.0
C610 C 0.54167 0.52172 0.52432 0.0
C611 C 0.55022 0.53596 0.48571 0.0
C612 C 0.53789 0.53542 0.44097 0.0
C613 C 0.51768 0.52061 0.43438 0.0
C614 C 0.50991 0.50659 0.47299 0.0
C615 C 0.52132 0.50726 0.51728 0.0
C616 C 0.50886 0.49103 0.55338 0.0
C617 C 0.5258 0.4709 0.57054 0.0
C618 C 0.49905 0.50566 0.59618 0.0
C619 C 0.48865 0.48112 0.52248 0.0
C620 C 0.48973 0.49011 0.47608 0.0
C621 C 0.473 0.48352 0.441 0.0
C622 C 0.45433 0.4678 0.45399 0.0
C623 C 0.45236 0.45902 0.50183 0.0
C624 C 0.47004 0.46557 0.53617 0.0
H625 H 0.5435 0.95759 0.68103 0.0
H626 H 0.53317 0.94027 0.83217 0.0
H627 H 0.50409 0.97361 0.83968 0.0
H628 H 0.5381 0.02266 0.69197 0.0
H629 H 0.52161 0.0259 0.63633 0.0
H630 H 0.5427 0.00155 0.64347 0.0
H631 H 0.50902 0.97106 0.6224 0.0
H632 H 0.48775 0.9953 0.61576 0.0
H633 H 0.48156 0.97104 0.65703 0.0
H634 H 0.47677 0.00868 0.83154 0.0
H635 H 0.45195 0.04353 0.80785 0.0
H636 H 0.47725 0.03687 0.66047 0.0
C637 C 0.53541 0.96116 0.71583 0.0
C638 C 0.54076 0.94662 0.75626 0.0
C639 C 0.52938 0.95133 0.80092 0.0
C640 C 0.51283 0.97018 0.8055 0.0
C641 C 0.50759 0.98392 0.76486 0.0
C642 C 0.51843 0.97967 0.72082 0.0
C643 C 0.50878 0.99665 0.68254 0.0
C644 C 0.529 0.01264 0.6624 0.0
C645 C 0.49602 0.98267 0.64204 0.0
C646 C 0.49098 0.01117 0.7121 0.0
C647 C 0.49076 0.00355 0.75956 0.0
C648 C 0.47661 0.0147 0.79442 0.0
C649 C 0.46258 0.03443 0.78064 0.0
C650 C 0.46248 0.0426 0.7323 0.0
C651 C 0.47662 0.0306 0.69743 0.0
H652 H 0.05014 0.98037 0.56764 0.0
H653 H 0.0479 0.95696 0.41834 0.0
H654 H 0.01153 0.98161 0.405 0.0
H655 H 0.98595 0.97919 0.58621 0.0
H656 H 0.98587 0.00526 0.62487 0.0
H657 H 0.01208 0.98627 0.62214 0.0
H658 H 0.03823 0.02318 0.59965 0.0
H659 H 0.01205 0.04226 0.6019 0.0
H660 H 0.03016 0.04117 0.54803 0.0
H661 H 0.97573 0.00944 0.40748 0.0
H662 H 0.94104 0.0353 0.42749 0.0
H663 H 0.96568 0.03945 0.57594 0.0
C664 C 0.04199 0.98042 0.53215 0.0
C665 C 0.0519 0.96674 0.494 0.0
C666 C 0.04058 0.96717 0.44819 0.0
C667 C 0.01999 0.98124 0.44017 0.0
C668 C 0.01079 0.99465 0.47841 0.0
C669 C 0.02124 0.99414 0.52366 0.0
C670 C 0.00725 0.00952 0.55905 0.0
C671 C 0.99719 0.99414 0.60051 0.0
C672 C 0.02286 0.03026 0.57828 0.0
C673 C 0.98729 0.01875 0.52665 0.0
C674 C 0.98981 0.01017 0.48016 0.0
C675 C 0.97355 0.01621 0.44381 0.0
C676 C 0.95392 0.031 0.45552 0.0
C677 C 0.95055 0.03941 0.50331 0.0
C678 C 0.96771 0.03337 0.53906 0.0
H679 H 0.98588 0.44228 0.7419 0.0
H680 H 0.95213 0.45615 0.88044 0.0
H681 H 0.97462 0.49415 0.88719 0.0
H682 H 0.0443 0.46579 0.77326 0.0
H683 H 0.04974 0.47899 0.71491 0.0
H684 H 0.03081 0.45281 0.72012 0.0
H685 H 0.99616 0.47539 0.677 0.0
H686 H 0.01503 0.50158 0.67136 0.0
H687 H 0.9861 0.50393 0.70038 0.0
H688 H 1.00036 0.53041 0.87959 0.0
H689 H 0.02732 0.56366 0.85717 0.0
H690 H 0.04528 0.5268 0.72378 0.0
C691 C 0.98313 0.45338 0.77352 0.0
C692 C 0.96716 0.44621 0.81063 0.0
C693 C 0.9642 0.46121 0.85153 0.0
C694 C 0.97694 0.48283 0.85577 0.0
C695 C 0.99266 0.48926 0.81888 0.0
C696 C 0.9958 0.47508 0.77846 0.0
C697 C 0.01388 0.48633 0.74414 0.0
C698 C 0.03599 0.47001 0.73775 0.0
C699 C 0.00208 0.49215 0.69533 0.0
C700 C 0.02028 0.50908 0.77159 0.0
C701 C 0.00781 0.5103 0.81463 0.0
C702 C 0.01027 0.52967 0.84603 0.0
C703 C 0.02566 0.54848 0.83291 0.0
C704 C 0.0385 0.54787 0.78875 0.0
C705 C 0.03591 0.52772 0.75795 0.0
H706 H 0.54539 0.47029 0.93534 0.0
H707 H 0.55387 0.4512 0.08609 0.0
H708 H 0.51901 0.47668 0.10705 0.0
H709 H 0.53079 0.53204 0.95708 0.0
H710 H 0.50927 0.53422 0.90859 0.0
H711 H 0.53387 0.51322 0.90448 0.0
H712 H 0.50378 0.47826 0.89087 0.0
H713 H 0.4791 0.49919 0.89444 0.0
H714 H 0.4799 0.4734 0.93378 0.0
H715 H 0.48313 0.50357 0.11172 0.0
H716 H 0.44892 0.53138 0.10011 0.0
H717 H 0.46531 0.53579 0.94743 0.0
C718 C 0.5396 0.4712 0.97258 0.0
C719 C 0.55206 0.45857 0.00909 0.0
C720 C 0.54443 0.46065 0.05762 0.0
C721 C 0.52469 0.47508 0.06986 0.0
C722 C 0.51299 0.48761 0.03323 0.0
C723 C 0.52017 0.48595 0.98561 0.0
C724 C 0.50505 0.50217 0.95366 0.0
C725 C 0.52068 0.52156 0.92954 0.0
C726 C 0.49113 0.48737 0.91597 0.0
C727 C 0.48822 0.51307 0.99077 0.0
C728 C 0.49303 0.50424 0.03636 0.0
C729 C 0.47931 0.5108 0.07629 0.0
C730 C 0.45998 0.5266 0.06939 0.0
C731 C 0.45478 0.53598 0.0231 0.0
C732 C 0.46927 0.52931 0.98341 0.0
H733 H 0.47152 0.95505 0.17716 0.0
H734 H 0.44525 0.95514 0.32437 0.0
H735 H 0.4712 0.99006 0.34306 0.0
H736 H 0.53238 0.96772 0.20799 0.0
H737 H 0.53827 0.98643 0.15625 0.0
H738 H 0.51597 0.96297 0.15266 0.0
H739 H 0.4838 0.99402 0.12628 0.0
H740 H 0.50606 0.01753 0.12921 0.0
H741 H 0.47851 0.02022 0.16308 0.0
H742 H 0.49997 0.02458 0.34602 0.0
H743 H 0.5308 0.056 0.33391 0.0
H744 H 0.54122 0.03172 0.18668 0.0
C745 C 0.47086 0.96285 0.21294 0.0
C746 C 0.45608 0.9528 0.24919 0.0
C747 C 0.45627 0.96283 0.29608 0.0
C748 C 0.47096 0.9826 0.307 0.0
C749 C 0.48569 0.99184 0.27082 0.0
C750 C 0.48588 0.98228 0.22478 0.0
C751 C 0.50453 0.99472 0.19351 0.0
C752 C 0.52394 0.97689 0.17662 0.0
C753 C 0.4925 0.00738 0.15048 0.0
C754 C 0.51473 0.01277 0.22915 0.0
C755 C 0.5034 0.01092 0.27337 0.0
C756 C 0.50909 0.02611 0.31168 0.0
C757 C 0.52664 0.04386 0.3045 0.0
C758 C 0.53861 0.04604 0.25964 0.0
C759 C 0.53271 0.03011 0.22165 0.0
H760 H 0.13056 0.97979 0.35064 0.0
H761 H 0.19659 0.00522 0.4166 0.0
H762 H 0.20491 0.0302 0.34451 0.0
H763 H 0.15181 0.97562 0.23112 0.0
H764 H 0.12431 0.98617 0.20382 0.0
H765 H 0.12339 0.97093 0.26105 0.0
H766 H 0.10123 0.00729 0.29925 0.0
H767 H 0.10188 0.02256 0.24197 0.0
H768 H 0.11432 0.03687 0.29474 0.0
H769 H 0.20684 0.05048 0.26299 0.0
H770 H 0.20079 0.0669 0.18091 0.0
H771 H 0.1325 0.02915 0.17123 0.0
C772 C 0.14659 0.99088 0.35005 0.0
C773 C 0.16313 0.99047 0.3885 0.0
C774 C 0.18397 0.00508 0.38679 0.0
C775 C 0.18876 0.01934 0.34623 0.0
C776 C 0.1723 0.01896 0.30829 0.0
C777 C 0.15149 0.00533 0.31018 0.0
C778 C 0.13671 0.008 0.26477 0.0
C779 C 0.13391 0.98374 0.23866 0.0
C780 C 0.11208 0.01936 0.27586 0.0
C781 C 0.15261 0.02501 0.23672 0.0
C782 C 0.17309 0.03109 0.26223 0.0
C783 C 0.19076 0.04603 0.24281 0.0
C784 C 0.18723 0.05517 0.19617 0.0
C785 C 0.16613 0.04941 0.16985 0.0
C786 C 0.14872 0.03409 0.19057 0.0
H787 H 0.0265 0.61922 0.58062 0.0
H788 H 0.99578 0.67898 0.65983 0.0
H789 H 0.96821 0.6874 0.59203 0.0
H790 H 0.02703 0.64654 0.46818 0.0
H791 H 0.01872 0.62034 0.43365 0.0
H792 H 0.03408 0.61689 0.49039 0.0
H793 H 0.99971 0.58963 0.52198 0.0
H794 H 0.98439 0.59269 0.46497 0.0
H795 H 0.9691 0.60036 0.5202 0.0
H796 H 0.94824 0.69276 0.51291 0.0
H797 H 0.93332 0.6921 0.42913 0.0
H798 H 0.97554 0.62788 0.40111 0.0
C799 C 0.01345 0.63359 0.58394 0.0
C800 C 0.01314 0.64856 0.62497 0.0
C801 C 0.99619 0.66745 0.62832 0.0
C802 C 0.98051 0.67234 0.59012 0.0
C803 C 0.98183 0.65791 0.54921 0.0
C804 C 0.99751 0.63864 0.54607 0.0
C805 C 0.996 0.62678 0.49692 0.0
C806 C 0.02041 0.62771 0.47076 0.0
C807 C 0.98674 0.60083 0.50129 0.0
C808 C 0.9776 0.64287 0.47264 0.0
C809 C 0.9697 0.66068 0.50352 0.0
C810 C 0.95392 0.67865 0.48857 0.0
C811 C 0.94571 0.67824 0.44083 0.0
C812 C 0.95318 0.65988 0.40876 0.0
C813 C 0.9693 0.64196 0.42503 0.0
H814 H 0.32684 0.45802 0.66795 0.0
H815 H 0.39311 0.48484 0.60442 0.0
H816 H 0.39968 0.51063 0.67526 0.0
H817 H 0.30855 0.51442 0.72555 0.0
H818 H 0.29715 0.49965 0.77869 0.0
H819 H 0.29657 0.48436 0.72136 0.0
H820 H 0.32049 0.44886 0.7584 0.0
H821 H 0.32121 0.46405 0.81575 0.0
H822 H 0.34891 0.45465 0.78765 0.0
H823 H 0.40032 0.53207 0.75342 0.0
H824 H 0.39466 0.54823 0.83568 0.0
H825 H 0.32882 0.50698 0.85027 0.0
C826 C 0.34253 0.46958 0.6687 0.0
C827 C 0.35942 0.46946 0.63066 0.0
C828 C 0.37994 0.48458 0.63321 0.0
C829 C 0.38382 0.49937 0.67321 0.0
C830 C 0.36706 0.4988 0.71039 0.0
C831 C 0.34682 0.48437 0.70864 0.0
C832 C 0.33228 0.48643 0.75466 0.0
C833 C 0.30715 0.49684 0.74444 0.0
C834 C 0.33064 0.46205 0.78064 0.0
C835 C 0.3477 0.50407 0.78257 0.0
C836 C 0.36758 0.51107 0.75615 0.0
C837 C 0.38476 0.52686 0.77444 0.0
C838 C 0.38149 0.53582 0.8211 0.0
C839 C 0.36128 0.52889 0.84872 0.0
C840 C 0.34421 0.51279 0.82933 0.0
H841 H 0.46325 0.87341 0.06837 0.0
H842 H 0.48735 0.80843 0.14001 0.0
H843 H 0.51281 0.79845 0.06991 0.0
H844 H 0.46067 0.84997 0.94915 0.0
H845 H 0.47218 0.87673 0.92065 0.0
H846 H 0.45593 0.87897 0.97665 0.0
H847 H 0.49199 0.90124 0.01584 0.0
H848 H 0.50825 0.8993 0.95977 0.0
H849 H 0.52145 0.88765 0.01439 0.0
H850 H 0.5339 0.79445 0.99057 0.0
H851 H 0.55266 0.79887 0.91023 0.0
H852 H 0.51645 0.86751 0.89211 0.0
C853 C 0.47408 0.85723 0.06929 0.0
C854 C 0.47298 0.84137 0.10883 0.0
C855 C 0.48748 0.82043 0.10926 0.0
C856 C 0.50207 0.81468 0.0698 0.0
C857 C 0.50224 0.8303 0.03065 0.0
C858 C 0.48895 0.85134 0.03035 0.0
C859 C 0.49272 0.86518 0.98401 0.0
C860 C 0.46896 0.86786 0.95597 0.0
C861 C 0.5043 0.8898 0.99412 0.0
C862 C 0.50999 0.8485 0.95824 0.0
C863 C 0.51512 0.82841 0.9856 0.0
C864 C 0.5302 0.8102 0.96888 0.0
C865 C 0.54065 0.8128 0.92317 0.0
C866 C 0.53611 0.83356 0.89508 0.0
C867 C 0.52043 0.8515 0.91289 0.0
H868 H 0.82084 0.03342 0.6548 0.0
H869 H 0.88871 0.01044 0.5921 0.0
H870 H 0.89556 0.98352 0.66095 0.0
H871 H 0.84127 0.03629 0.77344 0.0
H872 H 0.81409 0.02515 0.801 0.0
H873 H 0.81264 0.04048 0.74393 0.0
H874 H 0.79106 0.00376 0.70587 0.0
H875 H 0.79234 0.98833 0.76299 0.0
H876 H 0.80477 0.97444 0.70982 0.0
H877 H 0.89749 0.9625 0.73898 0.0
H878 H 0.89366 0.94763 0.8226 0.0
H879 H 0.82484 0.98372 0.83606 0.0
C880 C 0.83684 0.0223 0.65511 0.0
C881 C 0.85422 0.02402 0.61811 0.0
C882 C 0.87517 0.0095 0.62014 0.0
C883 C 0.8792 0.99404 0.65897 0.0
C884 C 0.86208 0.9932 0.69543 0.0
C885 C 0.84124 0.00677 0.69389 0.0
C886 C 0.82669 0.00369 0.7397 0.0
C887 C 0.8235 0.02784 0.76606 0.0
C888 C 0.80227 0.99184 0.72894 0.0
C889 C 0.84301 0.98687 0.76759 0.0
C890 C 0.8632 0.98088 0.74107 0.0
C891 C 0.88162 0.96674 0.75994 0.0
C892 C 0.8794 0.95853 0.80737 0.0
C893 C 0.85895 0.96454 0.83513 0.0
C894 C 0.84044 0.97867 0.81496 0.0
H895 H 0.97911 0.37522 0.90681 0.0
H896 H 0.95243 0.30183 0.91304 0.0
H897 H 0.97142 0.29686 0.99306 0.0
H898 H 0.03612 0.36367 0.96135 0.0
H899 H 0.03687 0.39178 0.99372 0.0
H900 H 0.02071 0.38962 0.93757 0.0
H901 H 0.98202 0.40492 0.97979 0.0
H902 H 0.99801 0.40701 0.0362 0.0
H903 H 0.97088 0.38934 0.03225 0.0
H904 H 0.99335 0.29997 0.07217 0.0
H905 H 0.01802 0.31044 0.14344 0.0
H906 H 0.03076 0.38144 0.08424 0.0
C907 C 0.97718 0.35807 0.9249 0.0
C908 C 0.96424 0.33891 0.90365 0.0
C909 C 0.96226 0.31676 0.92859 0.0
C910 C 0.97292 0.31379 0.97408 0.0
C911 C 0.98546 0.33312 0.99397 0.0
C912 C 0.9877 0.35479 0.9701 0.0
C913 C 0.0025 0.3726 -0.00118 0.0
C914 C 0.02541 0.37983 0.97122 0.0
C915 C 0.98745 0.39477 0.01258 0.0
C916 C 0.00839 0.35751 0.04257 0.0
C917 C 0.99829 0.33483 0.0392 0.0
C918 C 0.00142 0.31762 0.07511 0.0
C919 C 0.01552 0.32367 0.11523 0.0
C920 C 0.02641 0.34661 0.11874 0.0
C921 C 0.02252 0.36381 0.0823 0.0
H922 H 0.62759 0.52049 0.33438 0.0
H923 H 0.69086 0.49146 0.40489 0.0
H924 H 0.6985 0.4653 0.3342 0.0
H925 H 0.60862 0.46376 0.27807 0.0
H926 H 0.59799 0.4786 0.22434 0.0
H927 H 0.59723 0.49406 0.28145 0.0
H928 H 0.62212 0.52896 0.24462 0.0
H929 H 0.62317 0.51351 0.18761 0.0
H930 H 0.65074 0.52254 0.21681 0.0
H931 H 0.70088 0.44499 0.25289 0.0
H932 H 0.69585 0.42937 0.16986 0.0
H933 H 0.62976 0.47041 0.15534 0.0
C934 C 0.64281 0.50832 0.3351 0.0
C935 C 0.65889 0.50812 0.37436 0.0
C936 C 0.67865 0.49208 0.37443 0.0
C937 C 0.68305 0.47714 0.33467 0.0
C938 C 0.6672 0.47823 0.29576 0.0
C939 C 0.64727 0.49315 0.29602 0.0
C940 C 0.63319 0.49118 0.24956 0.0
C941 C 0.60775 0.4813 0.25893 0.0
C942 C 0.63227 0.51549 0.2231 0.0
C943 C 0.64854 0.47318 0.22274 0.0
C944 C 0.66812 0.46595 0.24984 0.0
C945 C 0.68544 0.45026 0.23154 0.0
C946 C 0.68251 0.44159 0.18435 0.0
C947 C 0.66234 0.44853 0.15639 0.0
C948 C 0.6452 0.46451 0.17606 0.0
H949 H 0.51401 0.12867 0.37884 0.0
H950 H 0.54791 0.19889 0.38891 0.0
H951 H 0.52689 0.20618 0.466 0.0
H952 H 0.45599 0.14678 0.43028 0.0
H953 H 0.45211 0.1186 0.4614 0.0
H954 H 0.46871 0.11961 0.40563 0.0
H955 H 0.50525 0.09975 0.44807 0.0
H956 H 0.48889 0.0989 0.50405 0.0
H957 H 0.51777 0.11361 0.50129 0.0
H958 H 0.50563 0.20401 0.54534 0.0
H959 H 0.48272 0.19397 0.61885 0.0
H960 H 0.46064 0.12639 0.55441 0.0
C961 C 0.51682 0.1457 0.39696 0.0
C962 C 0.53264 0.16319 0.37805 0.0
C963 C 0.53579 0.18528 0.40272 0.0
C964 C 0.52399 0.18956 0.44652 0.0
C965 C 0.5089 0.17171 0.46461 0.0
C966 C 0.50501 0.15037 0.44032 0.0
C967 C 0.48827 0.13395 0.46796 0.0
C968 C 0.46488 0.12948 0.43963 0.0
C969 C 0.5008 0.11015 0.48112 0.0
C970 C 0.48377 0.14919 0.51217 0.0
C971 C 0.49587 0.17088 0.50956 0.0
C972 C 0.49562 0.18735 0.54735 0.0
C973 C 0.48247 0.18155 0.58878 0.0
C974 C 0.46953 0.15966 0.59167 0.0
C975 C 0.47025 0.14331 0.55289 0.0
H976 H 0.63009 0.47012 0.83818 0.0
H977 H 0.69518 0.49939 0.90145 0.0
H978 H 0.70156 0.52437 0.8286 0.0
H979 H 0.65048 0.46626 0.71846 0.0
H980 H 0.62235 0.47526 0.6915 0.0
H981 H 0.6225 0.46049 0.74926 0.0
H982 H 0.59888 0.49608 0.78681 0.0
H983 H 0.59844 0.51085 0.729 0.0
H984 H 0.6105 0.5262 0.78095 0.0
H985 H 0.70211 0.54376 0.7465 0.0
H986 H 0.69515 0.55887 0.66384 0.0
H987 H 0.62848 0.5182 0.65672 0.0
C988 C 0.64547 0.48209 0.8369 0.0
C989 C 0.66237 0.4827 0.87478 0.0
C990 C 0.68233 0.49844 0.87211 0.0
C991 C 0.68601 0.51271 0.83111 0.0
C992 C 0.66929 0.51125 0.79371 0.0
C993 C 0.64923 0.4966 0.79657 0.0
C994 C 0.63407 0.49818 0.75139 0.0
C995 C 0.63226 0.47358 0.72618 0.0
C996 C 0.60899 0.50845 0.76272 0.0
C997 C 0.64895 0.51569 0.72228 0.0
C998 C 0.66923 0.52298 0.7472 0.0
C999 C 0.68616 0.5384 0.72681 0.0
C1000 C 0.68211 0.54678 0.6798 0.0
C1001 C 0.66122 0.53981 0.65398 0.0
C1002 C 0.6445 0.52406 0.67569 0.0
H1003 H 0.50688 0.16982 0.09762 0.0
H1004 H 0.56443 0.11998 0.06398 0.0
H1005 H 0.55081 0.11844 0.97906 0.0
H1006 H 0.46247 0.1426 0.02439 0.0
H1007 H 0.44873 0.1704 0.00541 0.0
H1008 H 0.46397 0.1688 0.06261 0.0
H1009 H 0.49115 0.20458 0.03768 0.0
H1010 H 0.47605 0.2062 0.9802 0.0
H1011 H 0.5083 0.20281 0.98262 0.0
H1012 H 0.53001 0.12034 0.90072 0.0
H1013 H 0.50187 0.12392 0.8325 0.0
H1014 H 0.45788 0.17356 0.915 0.0
C1015 C 0.51672 0.15891 0.07198 0.0
C1016 C 0.5368 0.1452 0.08657 0.0
C1017 C 0.54905 0.13061 0.05291 0.0
C1018 C 0.54156 0.12978 0.00478 0.0
C1019 C 0.52184 0.1437 0.99122 0.0
C1020 C 0.5095 0.15794 0.02371 0.0
C1021 C 0.48809 0.17007 9e-05 0.0
C1022 C 0.46442 0.1625 0.02458 0.0
C1023 C 0.49108 0.19755 0.00015 0.0
C1024 C 0.49 0.15994 0.9495 0.0
C1025 C 0.50978 0.14496 0.94528 0.0
C1026 C 0.51464 0.13222 0.90329 0.0
C1027 C 0.49854 0.13434 0.86486 0.0
C1028 C 0.47788 0.14913 0.86861 0.0
C1029 C 0.47383 0.16255 0.91102 0.0
H1030 H 0.85817 0.05036 0.29654 0.0
H1031 H 0.81318 0.00396 0.38387 0.0
H1032 H 0.80492 0.97844 0.3127 0.0
H1033 H 0.82547 0.04538 0.18321 0.0
H1034 H 0.85246 0.04395 0.14726 0.0
H1035 H 0.85251 0.06019 0.20353 0.0
H1036 H 0.88851 0.03458 0.23377 0.0
H1037 H 0.88871 0.01848 0.17747 0.0
H1038 H 0.88613 0.00226 0.23351 0.0
H1039 H 0.80209 0.95776 0.23229 0.0
H1040 H 0.80975 0.9399 0.15194 0.0
H1041 H 0.85977 0.99763 0.11993 0.0
C1042 C 0.84647 0.0349 0.30042 0.0
C1043 C 0.83573 0.02941 0.34505 0.0
C1044 C 0.82092 0.00882 0.34937 0.0
C1045 C 0.81617 0.99424 0.30927 0.0
C1046 C 0.82683 0.00027 0.26549 0.0
C1047 C 0.84204 0.01984 0.26105 0.0
C1048 C 0.85315 0.021 0.21137 0.0
C1049 C 0.84543 0.044 0.18478 0.0
C1050 C 0.88075 0.01895 0.21422 0.0
C1051 C 0.84201 0.99889 0.18874 0.0
C1052 C 0.82644 0.98748 0.22012 0.0
C1053 C 0.81422 0.96652 0.20734 0.0
C1054 C 0.81857 0.95659 0.16166 0.0
C1055 C 0.83537 0.9674 0.13007 0.0
C1056 C 0.84686 0.98901 0.14355 0.0
H1057 H 0.01724 0.3727 0.40008 0.0
H1058 H 0.06416 0.3105 0.41158 0.0
H1059 H 0.04625 0.3008 0.49081 0.0
H1060 H 0.01977 0.3903 0.52218 0.0
H1061 H 0.98864 0.39928 0.5255 0.0
H1062 H 0.00439 0.40073 0.46885 0.0
H1063 H 0.9719 0.3737 0.42913 0.0
H1064 H 0.95593 0.37232 0.48559 0.0
H1065 H 0.96485 0.34495 0.45566 0.0
H1066 H 0.02537 0.29987 0.57148 0.0
H1067 H 0.00084 0.30611 0.64502 0.0
H1068 H 0.9663 0.36747 0.578 0.0
C1069 C 0.02366 0.35693 0.41904 0.0
C1070 C 0.04215 0.3424 0.39981 0.0
C1071 C 0.04996 0.32185 0.42564 0.0
C1072 C 0.03995 0.31623 0.47067 0.0
C1073 C 0.022 0.33119 0.48889 0.0
C1074 C 0.01373 0.35094 0.46362 0.0
C1075 C 0.99441 0.36424 0.49121 0.0
C1076 C 0.00229 0.39017 0.5026 0.0
C1077 C 0.97035 0.36376 0.46376 0.0
C1078 C 0.99333 0.34909 0.53634 0.0
C1079 C 0.00943 0.33016 0.53446 0.0
C1080 C 0.01241 0.31438 0.57303 0.0
C1081 C 0.99841 0.31799 0.61444 0.0
C1082 C 0.98153 0.33701 0.61649 0.0
C1083 C 0.97902 0.35271 0.57701 0.0
H1084 H 0.35611 0.49994 0.12825 0.0
H1085 H 0.30885 0.55961 0.16234 0.0
H1086 H 0.30184 0.54249 0.24355 0.0
H1087 H 0.32064 0.4538 0.19525 0.0
H1088 H 0.34746 0.43799 0.2135 0.0
H1089 H 0.34685 0.45395 0.15695 0.0
H1090 H 0.38469 0.47794 0.18314 0.0
H1091 H 0.38519 0.4624 0.24003 0.0
H1092 H 0.38407 0.49478 0.23872 0.0
H1093 H 0.30607 0.52274 0.32454 0.0
H1094 H 0.31526 0.49776 0.39599 0.0
H1095 H 0.35554 0.44834 0.3061 0.0
C1096 C 0.34384 0.50905 0.15252 0.0
C1097 C 0.33299 0.53102 0.13949 0.0
C1098 C 0.3171 0.54261 0.17182 0.0
C1099 C 0.31314 0.5331 0.21795 0.0
C1100 C 0.32473 0.51174 0.23032 0.0
C1101 C 0.33921 0.49949 0.19808 0.0
C1102 C 0.3499 0.47713 0.22054 0.0
C1103 C 0.34065 0.45437 0.19504 0.0
C1104 C 0.3776 0.47814 0.2206 0.0
C1105 C 0.33989 0.47917 0.27102 0.0
C1106 C 0.32559 0.49936 0.27607 0.0
C1107 C 0.31644 0.50638 0.32065 0.0
C1108 C 0.32165 0.49208 0.3609 0.0
C1109 C 0.33529 0.47074 0.3559 0.0
C1110 C 0.3446 0.46432 0.31047 0.0
H1111 H 0.45387 0.81853 0.42377 0.0
H1112 H 0.4998 0.86725 0.3436 0.0
H1113 H 0.52827 0.86867 0.41176 0.0
H1114 H 0.45929 0.84828 0.53285 0.0
H1115 H 0.45948 0.82195 0.57076 0.0
H1116 H 0.44466 0.82105 0.51307 0.0
H1117 H 0.47065 0.78447 0.48783 0.0
H1118 H 0.48542 0.78509 0.54575 0.0
H1119 H 0.503 0.78649 0.49121 0.0
H1120 H 0.549 0.86895 0.49009 0.0
H1121 H 0.56158 0.86732 0.57555 0.0
H1122 H 0.5019 0.81971 0.60742 0.0
C1123 C 0.47035 0.82879 0.42023 0.0
C1124 C 0.47493 0.84256 0.37854 0.0
C1125 C 0.49617 0.8565 0.37537 0.0
C1126 C 0.51244 0.85735 0.41374 0.0
C1127 C 0.50711 0.84426 0.45509 0.0
C1128 C 0.48667 0.83014 0.45871 0.0
C1129 C 0.48409 0.81993 0.50914 0.0
C1130 C 0.46048 0.82832 0.53283 0.0
C1131 C 0.4859 0.79235 0.50842 0.0
C1132 C 0.50583 0.8311 0.53341 0.0
C1133 C 0.519 0.84479 0.50127 0.0
C1134 C 0.5391 0.85799 0.5155 0.0
C1135 C 0.54601 0.8571 0.56395 0.0
C1136 C 0.53279 0.84323 0.59738 0.0
C1137 C 0.51251 0.83004 0.58204 0.0
H1138 H 0.12875 0.98378 0.67166 0.0
H1139 H 0.19364 0.94052 0.68186 0.0
H1140 H 0.20051 0.95582 0.76445 0.0
H1141 H 0.15223 0.03496 0.7325 0.0
H1142 H 0.12427 0.04213 0.76215 0.0
H1143 H 0.12397 0.02682 0.70494 0.0
H1144 H 0.09846 0.99253 0.74236 0.0
H1145 H 0.09883 0.00766 0.79983 0.0
H1146 H 0.10938 0.9771 0.79521 0.0
H1147 H 0.20019 0.97593 0.8459 0.0
H1148 H 0.19432 0.00178 0.91777 0.0
H1149 H 0.13066 0.03275 0.85214 0.0
C1150 C 0.14434 0.97738 0.69129 0.0
C1151 C 0.1606 0.96087 0.67045 0.0
C1152 C 0.18096 0.9532 0.69714 0.0
C1153 C 0.18494 0.96168 0.74412 0.0
C1154 C 0.16847 0.97788 0.76362 0.0
C1155 C 0.14868 0.98578 0.73789 0.0
C1156 C 0.13428 0.00406 0.76612 0.0
C1157 C 0.13367 0.02843 0.73986 0.0
C1158 C 0.10872 0.99477 0.77649 0.0
C1159 C 0.14915 0.00535 0.81168 0.0
C1160 C 0.16865 0.98993 0.80981 0.0
C1161 C 0.18507 0.98816 0.84767 0.0
C1162 C 0.18167 0.00291 0.8881 0.0
C1163 C 0.16228 0.01936 0.88977 0.0
C1164 C 0.14561 0.02025 0.85154 0.0
H1165 H 0.99803 0.6415 0.12004 0.0
H1166 H 0.94803 0.69991 0.09292 0.0
H1167 H 0.96764 0.70771 0.01483 0.0
H1168 H 0.05028 0.66563 0.05893 0.0
H1169 H 0.05876 0.63711 0.03313 0.0
H1170 H 0.04292 0.63806 0.08979 0.0
H1171 H 0.00978 0.6102 0.0549 0.0
H1172 H 0.02557 0.60904 -0.00172 0.0
H1173 H 0.9946 0.61866 -3e-05 0.0
H1174 H 0.99238 0.70884 0.93907 0.0
H1175 H 0.01707 0.70001 0.86686 0.0
H1176 H 0.04694 0.63752 0.93885 0.0
C1177 C 0.99112 0.65585 0.09761 0.0
C1178 C 0.97173 0.67034 0.11298 0.0
C1179 C 0.96337 0.68907 0.08266 0.0
C1180 C 0.97428 0.69354 0.03804 0.0
C1181 C 0.99322 0.6788 0.0238 0.0
C1182 C 0.0013 0.66007 0.0523 0.0
C1183 C 0.02038 0.64546 0.02665 0.0
C1184 C 0.04451 0.64665 0.05375 0.0
C1185 C 0.01208 0.6193 0.01952 0.0
C1186 C 0.02162 0.65883 0.97917 0.0
C1187 C 0.00621 0.67832 0.97866 0.0
C1188 C 0.00445 0.69357 0.93891 0.0
C1189 C 0.01855 0.68849 0.89823 0.0
C1190 C 0.03368 0.66804 0.89742 0.0
C1191 C 0.03533 0.65317 0.93853 0.0
H1192 H 0.09451 0.21974 0.22477 0.0
H1193 H 0.13642 0.27317 0.14718 0.0
H1194 H 0.14996 0.24206 0.09077 0.0
H1195 H 0.13387 0.16947 0.20966 0.0
H1196 H 0.10954 0.14851 0.20042 0.0
H1197 H 0.10489 0.1749 0.23683 0.0
H1198 H 0.0688 0.18687 0.18251 0.0
H1199 H 0.07362 0.16072 0.1454 0.0
H1200 H 0.07325 0.19021 0.11846 0.0
H1201 H 0.15995 0.20407 0.04354 0.0
H1202 H 0.16445 0.16302 0.00971 0.0
H1203 H 0.11163 0.1365 0.11167 0.0
C1204 C 0.10675 0.22503 0.1963 0.0
C1205 C 0.115 0.249 0.19212 0.0
C1206 C 0.13064 0.25496 0.15345 0.0
C1207 C 0.13815 0.23737 0.12032 0.0
C1208 C 0.12937 0.21404 0.12545 0.0
C1209 C 0.11385 0.20795 0.16231 0.0
C1210 C 0.10614 0.18193 0.15905 0.0
C1211 C 0.1141 0.16788 0.20415 0.0
C1212 C 0.07883 0.17982 0.15086 0.0
C1213 C 0.12003 0.17417 0.11487 0.0
C1214 C 0.13348 0.19286 0.09607 0.0
C1215 C 0.14917 0.18942 0.05742 0.0
C1216 C 0.15154 0.16613 0.03831 0.0
C1217 C 0.13793 0.14682 0.05733 0.0
C1218 C 0.12163 0.1511 0.09535 0.0
H1219 H 0.86146 0.60171 0.31341 0.0
H1220 H 0.84278 0.67561 0.27964 0.0
H1221 H 0.80299 0.6698 0.31726 0.0
H1222 H 0.79921 0.57589 0.29927 0.0
H1223 H 0.80379 0.5557 0.34928 0.0
H1224 H 0.82889 0.56438 0.31198 0.0
H1225 H 0.85166 0.57905 0.38808 0.0
H1226 H 0.82654 0.5709 0.42549 0.0
H1227 H 0.83788 0.60126 0.42659 0.0
H1228 H 0.76827 0.65812 0.36997 0.0
H1229 H 0.73985 0.64036 0.42825 0.0
H1230 H 0.78078 0.57392 0.42667 0.0
C1231 C 0.84869 0.61641 0.31224 0.0
C1232 C 0.85523 0.63908 0.29335 0.0
C1233 C 0.83816 0.65804 0.29372 0.0
C1234 C 0.8155 0.65492 0.31503 0.0
C1235 C 0.81009 0.63269 0.33548 0.0
C1236 C 0.82604 0.61363 0.33358 0.0
C1237 C 0.81678 0.59232 0.36205 0.0
C1238 C 0.81187 0.5708 0.32864 0.0
C1239 C 0.83426 0.5855 0.40296 0.0
C1240 C 0.79359 0.60269 0.38171 0.0
C1241 C 0.78991 0.6259 0.36558 0.0
C1242 C 0.77057 0.63971 0.38168 0.0
C1243 C 0.75442 0.62941 0.41464 0.0
C1244 C 0.75767 0.60551 0.43099 0.0
C1245 C 0.77763 0.59213 0.41436 0.0
H1246 H 0.39622 0.36854 0.6042 0.0
H1247 H 0.33798 0.34047 0.51664 0.0
H1248 H 0.34252 0.30067 0.55588 0.0
H1249 H 0.43287 0.31439 0.61068 0.0
H1250 H 0.44085 0.31926 0.67295 0.0
H1251 H 0.43446 0.34454 0.63443 0.0
H1252 H 0.40198 0.35904 0.69489 0.0
H1253 H 0.40802 0.33362 0.73324 0.0
H1254 H 0.37789 0.33899 0.71163 0.0
H1255 H 0.35454 0.26381 0.60343 0.0
H1256 H 0.37102 0.23341 0.658 0.0
H1257 H 0.41727 0.2874 0.72325 0.0
C1258 C 0.38486 0.3538 0.59255 0.0
C1259 C 0.36716 0.35721 0.55667 0.0
C1260 C 0.3519 0.33793 0.54355 0.0
C1261 C 0.35432 0.31537 0.56571 0.0
C1262 C 0.37168 0.31268 0.60168 0.0
C1263 C 0.38654 0.33143 0.6153 0.0
C1264 C 0.40254 0.32438 0.65721 0.0
C1265 C 0.42926 0.32571 0.64295 0.0
C1266 C 0.39728 0.33993 0.70188 0.0
C1267 C 0.39451 0.29864 0.66479 0.0
C1268 C 0.37692 0.29216 0.63209 0.0
C1269 C 0.3678 0.26887 0.63019 0.0
C1270 C 0.37699 0.25172 0.6624 0.0
C1271 C 0.39461 0.25806 0.69727 0.0
C1272 C 0.40334 0.28197 0.69814 0.0
H1273 H 0.63067 0.89114 0.84678 0.0
H1274 H 0.65552 0.83133 0.75964 0.0
H1275 H 0.69674 0.83678 0.79209 0.0
H1276 H 0.68473 0.92796 0.84013 0.0
H1277 H 0.68233 0.93754 0.90206 0.0
H1278 H 0.65559 0.93013 0.8684 0.0
H1279 H 0.6437 0.89928 0.93429 0.0
H1280 H 0.67055 0.90635 0.96781 0.0
H1281 H 0.66451 0.87572 0.95032 0.0
H1282 H 0.73545 0.84927 0.83462 0.0
H1283 H 0.76764 0.86663 0.88443 0.0
H1284 H 0.71584 0.91515 0.95008 0.0
C1285 C 0.6449 0.87955 0.83368 0.0
C1286 C 0.64006 0.86109 0.8001 0.0
C1287 C 0.65897 0.84575 0.78501 0.0
C1288 C 0.68239 0.84868 0.80329 0.0
C1289 C 0.68645 0.86677 0.83719 0.0
C1290 C 0.66817 0.88186 0.85235 0.0
C1291 C 0.67679 0.89891 0.89123 0.0
C1292 C 0.67474 0.92519 0.87443 0.0
C1293 C 0.66307 0.89481 0.93871 0.0
C1294 C 0.70279 0.89114 0.89552 0.0
C1295 C 0.70814 0.87276 0.86385 0.0
C1296 C 0.73133 0.86336 0.86024 0.0
C1297 C 0.74954 0.87314 0.88956 0.0
C1298 C 0.74437 0.89178 0.92292 0.0
C1299 C 0.72053 0.90069 0.92565 0.0
H1300 H 0.92513 0.21684 0.69095 0.0
H1301 H 0.85609 0.25309 0.69942 0.0
H1302 H 0.83864 0.223 0.64399 0.0
H1303 H 0.9212 0.19896 0.56479 0.0
H1304 H 0.93533 0.17024 0.57506 0.0
H1305 H 0.94281 0.19555 0.61284 0.0
H1306 H 0.93132 0.171 0.68885 0.0
H1307 H 0.92397 0.1456 0.65138 0.0
H1308 H 0.90188 0.15748 0.69259 0.0
H1309 H 0.82823 0.18781 0.59122 0.0
H1310 H 0.82504 0.1493 0.54765 0.0
H1311 H 0.90089 0.13565 0.57382 0.0
C1312 C 0.90635 0.21854 0.68095 0.0
C1313 C 0.8921 0.23765 0.69869 0.0
C1314 C 0.86757 0.23911 0.6851 0.0
C1315 C 0.85746 0.22199 0.65384 0.0
C1316 C 0.87212 0.20353 0.63659 0.0
C1317 C 0.89602 0.20166 0.64977 0.0
C1318 C 0.9076 0.17951 0.62796 0.0
C1319 C 0.92794 0.18649 0.59309 0.0
C1320 C 0.91672 0.16239 0.66756 0.0
C1321 C 0.88634 0.16892 0.60111 0.0
C1322 C 0.86611 0.18317 0.60627 0.0
C1323 C 0.844 0.17661 0.58662 0.0
C1324 C 0.84238 0.15467 0.56194 0.0
C1325 C 0.86275 0.13948 0.5571 0.0
C1326 C 0.88511 0.14701 0.5762 0.0
H1327 H 0.85281 0.33928 0.83084 0.0
H1328 H 0.87001 0.40885 0.76893 0.0
H1329 H 0.83228 0.4254 0.80174 0.0
H1330 H 0.78511 0.34389 0.81789 0.0
H1331 H 0.78035 0.32926 0.8751 0.0
H1332 H 0.80615 0.32153 0.83883 0.0
H1333 H 0.83417 0.33128 0.91094 0.0
H1334 H 0.80859 0.3393 0.9472 0.0
H1335 H 0.83269 0.36058 0.93865 0.0
H1336 H 0.7971 0.43616 0.85145 0.0
H1337 H 0.76545 0.44021 0.91334 0.0
H1338 H 0.77011 0.36394 0.94389 0.0
C1339 C 0.84816 0.35774 0.82264 0.0
C1340 C 0.86424 0.37274 0.79696 0.0
C1341 C 0.85791 0.39701 0.78829 0.0
C1342 C 0.83647 0.40656 0.80666 0.0
C1343 C 0.82149 0.39158 0.83348 0.0
C1344 C 0.82687 0.36762 0.84112 0.0
C1345 C 0.80906 0.3562 0.87577 0.0
C1346 C 0.79429 0.33656 0.85037 0.0
C1347 C 0.8219 0.34627 0.92079 0.0
C1348 C 0.79353 0.37776 0.88804 0.0
C1349 C 0.80086 0.39788 0.86261 0.0
C1350 C 0.79084 0.42046 0.87077 0.0
C1351 C 0.77304 0.42262 0.90615 0.0
C1352 C 0.76542 0.40234 0.93285 0.0
C1353 C 0.77543 0.37956 0.92315 0.0
H1354 H 0.63674 0.26336 0.18159 0.0
H1355 H 0.56493 0.25135 0.12574 0.0
H1356 H 0.57191 0.28169 0.06223 0.0
H1357 H 0.63561 0.32436 0.17212 0.0
H1358 H 0.66658 0.32852 0.15464 0.0
H1359 H 0.65805 0.30246 0.18886 0.0
H1360 H 0.67623 0.2748 0.12307 0.0
H1361 H 0.68487 0.30089 0.08856 0.0
H1362 H 0.66645 0.27788 0.06136 0.0
H1363 H 0.58324 0.318 0.01632 0.0
H1364 H 0.59868 0.3575 0.9897 0.0
H1365 H 0.66392 0.34581 0.07232 0.0
C1366 C 0.62294 0.26661 0.15474 0.0
C1367 C 0.60043 0.25505 0.1578 0.0
C1368 C 0.58234 0.26006 0.12339 0.0
C1369 C 0.5862 0.27714 0.08716 0.0
C1370 C 0.60831 0.28893 0.08578 0.0
C1371 C 0.62651 0.28376 0.11834 0.0
C1372 C 0.64738 0.30109 0.11264 0.0
C1373 C 0.65216 0.31492 0.15985 0.0
C1374 C 0.67008 0.28787 0.09536 0.0
C1375 C 0.63752 0.31748 0.07363 0.0
C1376 C 0.61511 0.30992 0.05814 0.0
C1377 C 0.60108 0.32376 0.02696 0.0
C1378 C 0.60994 0.34617 0.01211 0.0
C1379 C 0.63265 0.3544 0.02818 0.0
C1380 C 0.64687 0.33953 0.05814 0.0
H1381 H 0.63474 0.09579 0.3272 0.0
H1382 H 0.65105 0.17069 0.2967 0.0
H1383 H 0.68832 0.1674 0.34415 0.0
H1384 H 0.65439 0.09555 0.44701 0.0
H1385 H 0.66761 0.06596 0.44553 0.0
H1386 H 0.64305 0.0732 0.4057 0.0
H1387 H 0.66875 0.06101 0.33167 0.0
H1388 H 0.69327 0.05332 0.37136 0.0
H1389 H 0.69795 0.07451 0.32309 0.0
H1390 H 0.72115 0.15765 0.40255 0.0
H1391 H 0.7505 0.14033 0.45939 0.0
H1392 H 0.71468 0.07116 0.44853 0.0
C1393 C 0.6464 0.11135 0.32953 0.0
C1394 C 0.63982 0.13351 0.30821 0.0
C1395 C 0.65557 0.15349 0.31264 0.0
C1396 C 0.67681 0.15186 0.33968 0.0
C1397 C 0.68228 0.13006 0.36169 0.0
C1398 C 0.66783 0.11001 0.35619 0.0
C1399 C 0.67769 0.08888 0.38457 0.0
C1400 C 0.65961 0.08041 0.42297 0.0
C1401 C 0.68485 0.06821 0.35064 0.0
C1402 C 0.69963 0.10038 0.40755 0.0
C1403 C 0.70187 0.12416 0.39399 0.0
C1404 C 0.72001 0.13885 0.41237 0.0
C1405 C 0.73674 0.12878 0.4444 0.0
C1406 C 0.7355 0.10415 0.45711 0.0
C1407 C 0.71635 0.08997 0.43906 0.0
H1408 H 0.57227 0.71147 0.68143 0.0
H1409 H 0.63815 0.75266 0.66517 0.0
H1410 H 0.65223 0.724 0.60383 0.0
H1411 H 0.60061 0.65533 0.67865 0.0
H1412 H 0.57652 0.64024 0.64726 0.0
H1413 H 0.57009 0.66602 0.68422 0.0
H1414 H 0.54976 0.68684 0.61112 0.0
H1415 H 0.55643 0.66116 0.57373 0.0
H1416 H 0.56644 0.69068 0.55591 0.0
H1417 H 0.66057 0.68947 0.54884 0.0
H1418 H 0.66501 0.64931 0.51261 0.0
H1419 H 0.59474 0.62909 0.56786 0.0
C1420 C 0.58954 0.7147 0.66455 0.0
C1421 C 0.60363 0.73498 0.67693 0.0
C1422 C 0.62638 0.7381 0.65477 0.0
C1423 C 0.63465 0.72174 0.61999 0.0
C1424 C 0.6201 0.70219 0.60814 0.0
C1425 C 0.59816 0.69842 0.63023 0.0
C1426 C 0.58719 0.67464 0.61505 0.0
C1427 C 0.5834 0.65808 0.65889 0.0
C1428 C 0.56355 0.67858 0.5873 0.0
C1429 C 0.60677 0.66523 0.58209 0.0
C1430 C 0.62533 0.68167 0.57776 0.0
C1431 C 0.64608 0.67653 0.55164 0.0
C1432 C 0.6484 0.65364 0.53113 0.0
C1433 C 0.63022 0.636 0.53736 0.0
C1434 C 0.60878 0.64226 0.56174 0.0
H1435 H 0.35833 0.15669 0.8455 0.0
H1436 H 0.36395 0.08993 0.76516 0.0
H1437 H 0.32585 0.07595 0.80129 0.0
H1438 H 0.3394 0.13055 0.95202 0.0
H1439 H 0.31909 0.15426 0.96958 0.0
H1440 H 0.34446 0.16091 0.93161 0.0
H1441 H 0.316 0.17927 0.86737 0.0
H1442 H 0.29048 0.1728 0.90534 0.0
H1443 H 0.2913 0.16164 0.84431 0.0
H1444 H 0.29039 0.06718 0.8523 0.0
H1445 H 0.25981 0.06382 0.91665 0.0
H1446 H 0.27706 0.13577 0.96565 0.0
C1447 C 0.35115 0.13943 0.83447 0.0
C1448 C 0.36393 0.12445 0.80219 0.0
C1449 C 0.35438 0.10169 0.7897 0.0
C1450 C 0.33271 0.09366 0.80985 0.0
C1451 C 0.32087 0.10858 0.84251 0.0
C1452 C 0.32969 0.131 0.85478 0.0
C1453 C 0.31486 0.14235 0.89465 0.0
C1454 C 0.33038 0.14729 0.93961 0.0
C1455 C 0.30242 0.16538 0.87683 0.0
C1456 C 0.29675 0.12251 0.90382 0.0
C1457 C 0.30038 0.10335 0.87277 0.0
C1458 C 0.28711 0.08218 0.87628 0.0
C1459 C 0.2699 0.08039 0.91291 0.0
C1460 C 0.26621 0.0996 0.94544 0.0
C1461 C 0.27944 0.12106 0.94048 0.0
H1462 H 0.84574 0.85173 0.07193 0.0
H1463 H 0.91807 0.87473 0.03471 0.0
H1464 H 0.93468 0.83905 0.07526 0.0
H1465 H 0.85883 0.8335 0.18709 0.0
H1466 H 0.83935 0.80758 0.18839 0.0
H1467 H 0.83244 0.83241 0.14924 0.0
H1468 H 0.83182 0.80384 0.07547 0.0
H1469 H 0.83847 0.77878 0.11452 0.0
H1470 H 0.85752 0.78498 0.06341 0.0
H1471 H 0.94396 0.80524 0.12955 0.0
H1472 H 0.94525 0.77348 0.19169 0.0
H1473 H 0.86728 0.77103 0.19388 0.0
C1474 C 0.86501 0.84879 0.0709 0.0
C1475 C 0.88061 0.86596 0.04994 0.0
C1476 C 0.90577 0.86182 0.05046 0.0
C1477 C 0.91539 0.84155 0.07329 0.0
C1478 C 0.89963 0.82547 0.09522 0.0
C1479 C 0.87496 0.82862 0.09383 0.0
C1480 C 0.86227 0.80977 0.12421 0.0
C1481 C 0.84735 0.82153 0.16462 0.0
C1482 C 0.84659 0.79337 0.0925 0.0
C1483 C 0.88372 0.79624 0.14442 0.0
C1484 C 0.90507 0.8055 0.1267 0.0
C1485 C 0.9274 0.79749 0.14294 0.0
C1486 C 0.92797 0.77962 0.1784 0.0
C1487 C 0.90638 0.76992 0.19707 0.0
C1488 C 0.88398 0.77802 0.17941 0.0
H1489 H 0.23485 0.37359 0.46154 0.0
H1490 H 0.23111 0.45151 0.46152 0.0
H1491 H 0.19905 0.45011 0.40021 0.0
H1492 H 0.22218 0.36502 0.33179 0.0
H1493 H 0.20381 0.33876 0.34172 0.0
H1494 H 0.22813 0.34567 0.38257 0.0
H1495 H 0.19843 0.34514 0.45461 0.0
H1496 H 0.17414 0.33803 0.41407 0.0
H1497 H 0.17203 0.36399 0.45279 0.0
H1498 H 0.16609 0.44073 0.34332 0.0
H1499 H 0.13166 0.42372 0.29885 0.0
H1500 H 0.15589 0.35167 0.33476 0.0
C1501 C 0.22741 0.39028 0.44808 0.0
C1502 C 0.23541 0.41265 0.46615 0.0
C1503 C 0.22506 0.43417 0.44841 0.0
C1504 C 0.20703 0.43359 0.41321 0.0
C1505 C 0.19947 0.41132 0.3961 0.0
C1506 C 0.20914 0.39002 0.41305 0.0
C1507 C 0.19633 0.36854 0.39111 0.0
C1508 C 0.21365 0.35362 0.35994 0.0
C1509 C 0.18453 0.35302 0.43049 0.0
C1510 C 0.17761 0.38116 0.36025 0.0
C1511 C 0.18006 0.40583 0.36313 0.0
C1512 C 0.16409 0.42143 0.34031 0.0
C1513 C 0.14458 0.41159 0.3151 0.0
C1514 C 0.14112 0.38638 0.31306 0.0
C1515 C 0.15829 0.371 0.33485 0.0
H1516 H 0.41622 0.70632 0.228 0.0
H1517 H 0.37754 0.76105 0.14757 0.0
H1518 H 0.36217 0.73016 0.0924 0.0
H1519 H 0.43547 0.67407 0.12321 0.0
H1520 H 0.43322 0.64491 0.1512 0.0
H1521 H 0.43958 0.67105 0.18744 0.0
H1522 H 0.40272 0.6617 0.24158 0.0
H1523 H 0.39643 0.63539 0.20586 0.0
H1524 H 0.3735 0.65793 0.21425 0.0
H1525 H 0.3505 0.69295 0.046 0.0
H1526 H 0.34478 0.65245 0.01071 0.0
H1527 H 0.3946 0.62287 0.11563 0.0
C1528 C 0.40423 0.7118 0.19921 0.0
C1529 C 0.39717 0.73609 0.19394 0.0
C1530 C 0.38207 0.74253 0.15473 0.0
C1531 C 0.37358 0.72508 0.12237 0.0
C1532 C 0.38084 0.70135 0.12882 0.0
C1533 C 0.396 0.69472 0.16601 0.0
C1534 C 0.40205 0.6682 0.16363 0.0
C1535 C 0.42919 0.66434 0.1559 0.0
C1536 C 0.39313 0.65503 0.20902 0.0
C1537 C 0.38777 0.66091 0.11945 0.0
C1538 C 0.37552 0.68026 0.10007 0.0
C1539 C 0.36021 0.67771 0.06052 0.0
C1540 C 0.35709 0.6547 0.0407 0.0
C1541 C 0.36955 0.63467 0.05998 0.0
C1542 C 0.3853 0.63796 0.09944 0.0
H1543 H 0.28317 0.9266 0.45419 0.0
H1544 H 0.24466 0.85872 0.45823 0.0
H1545 H 0.27482 0.84089 0.4037 0.0
H1546 H 0.30269 0.92339 0.32925 0.0
H1547 H 0.33182 0.93629 0.34157 0.0
H1548 H 0.30635 0.94428 0.37845 0.0
H1549 H 0.32956 0.931 0.45506 0.0
H1550 H 0.35513 0.92312 0.41847 0.0
H1551 H 0.34193 0.90106 0.45805 0.0
H1552 H 0.3098 0.83 0.35148 0.0
H1553 H 0.34831 0.82587 0.3088 0.0
H1554 H 0.36502 0.90062 0.33963 0.0
C1555 C 0.28101 0.908 0.44342 0.0
C1556 C 0.26113 0.89425 0.45944 0.0
C1557 C 0.25914 0.86991 0.44503 0.0
C1558 C 0.27632 0.85956 0.41431 0.0
C1559 C 0.29547 0.87374 0.39861 0.0
C1560 C 0.29801 0.89739 0.41289 0.0
C1561 C 0.32088 0.90835 0.39267 0.0
C1562 C 0.31508 0.92932 0.35845 0.0
C1563 C 0.33788 0.91634 0.4335 0.0
C1564 C 0.33101 0.88704 0.36533 0.0
C1565 C 0.31592 0.86735 0.36894 0.0
C1566 C 0.32169 0.84533 0.34817 0.0
C1567 C 0.34367 0.84319 0.32389 0.0
C1568 C 0.35978 0.86294 0.32054 0.0
C1569 C 0.35306 0.88526 0.34097 0.0
H1570 H 0.10047 0.87664 0.6058 0.0
H1571 H 0.15259 0.8493 0.50325 0.0
H1572 H 0.14428 0.80775 0.53091 0.0
H1573 H 0.11836 0.8393 0.69969 0.0
H1574 H 0.08872 0.83515 0.72474 0.0
H1575 H 0.09564 0.8621 0.6917 0.0
H1576 H 0.05993 0.85408 0.63364 0.0
H1577 H 0.05264 0.82725 0.66699 0.0
H1578 H 0.05789 0.82557 0.60293 0.0
H1579 H 0.13114 0.76936 0.57252 0.0
H1580 H 0.11594 0.73771 0.62609 0.0
H1581 H 0.07642 0.79131 0.70807 0.0
C1582 C 0.1095 0.86182 0.58803 0.0
C1583 C 0.12672 0.866 0.55163 0.0
C1584 C 0.13901 0.84631 0.53065 0.0
C1585 C 0.13443 0.82272 0.54617 0.0
C1586 C 0.11782 0.81926 0.58322 0.0
C1587 C 0.10561 0.8383 0.60396 0.0
C1588 C 0.09059 0.83014 0.64642 0.0
C1589 C 0.09883 0.8424 0.6934 0.0
C1590 C 0.06367 0.83451 0.6369 0.0
C1591 C 0.09643 0.80358 0.64669 0.0
C1592 C 0.11184 0.79755 0.60957 0.0
C1593 C 0.11938 0.77395 0.60224 0.0
C1594 C 0.11098 0.75605 0.63374 0.0
C1595 C 0.09574 0.76194 0.67307 0.0
C1596 C 0.08834 0.7861 0.679 0.0
H1597 H 0.22209 0.57078 0.91305 0.0
H1598 H 0.25726 0.63996 0.93095 0.0
H1599 H 0.22569 0.65898 0.88175 0.0
H1600 H 0.19884 0.57997 0.79082 0.0
H1601 H 0.17081 0.56501 0.80389 0.0
H1602 H 0.19789 0.55626 0.83511 0.0
H1603 H 0.17696 0.56387 0.91725 0.0
H1604 H 0.14984 0.57253 0.88634 0.0
H1605 H 0.16356 0.5928 0.92904 0.0
H1606 H 0.18879 0.67095 0.83487 0.0
H1607 H 0.14823 0.67553 0.8001 0.0
H1608 H 0.13598 0.59883 0.81695 0.0
C1609 C 0.22342 0.5899 0.90617 0.0
C1610 C 0.24278 0.60365 0.92469 0.0
C1611 C 0.24342 0.6287 0.91551 0.0
C1612 C 0.22536 0.63976 0.88786 0.0
C1613 C 0.20664 0.62559 0.87005 0.0
C1614 C 0.20547 0.60123 0.87918 0.0
C1615 C 0.18243 0.59036 0.85968 0.0
C1616 C 0.18782 0.5718 0.82001 0.0
C1617 C 0.16731 0.57925 0.90051 0.0
C1618 C 0.1705 0.61255 0.83905 0.0
C1619 C 0.18494 0.63261 0.84466 0.0
C1620 C 0.1774 0.65534 0.83003 0.0
C1621 C 0.15429 0.65772 0.81023 0.0
C1622 C 0.13881 0.63753 0.80575 0.0
C1623 C 0.14735 0.6146 0.81953 0.0
loop_
_geom_bond_atom_site_label_1
_geom_bond_atom_site_label_2
_geom_bond_distance
_geom_bond_site_symmetry_2
_ccdc_geom_bond_type
Co0 O3 1.970 . S
Co0 N17 1.989 1_554 S
Co0 O25 1.967 . S
Co0 O32 1.920 . S
Co1 O4 1.966 . S
Co1 N10 2.022 . S
Co1 N18 1.993 1_554 S
Co1 O26 1.941 . S
C2 O3 1.258 . S
C2 O4 1.263 . S
O3 Co0 1.970 . S
O3 C2 1.258 . S
O4 Co1 1.966 . S
O4 C2 1.263 . S
C5 O6 1.235 1_554 S
C5 O32 1.289 . S
O6 C5 1.235 1_556 S
C7 C9 1.400 . S
C7 N10 1.351 1_556 S
C7 C12 1.501 . S
C8 C9 1.387 . S
C8 N11 1.341 . S
C9 C7 1.400 . S
C9 C8 1.387 . S
N10 Co1 2.022 . S
N10 C7 1.351 1_554 S
N10 N11 1.365 1_554 S
N11 C8 1.341 . S
N11 N10 1.365 1_556 S
N11 H31 0.862 1_556 S
C12 C7 1.501 . S
C12 H13 0.961 1_556 S
C12 H14 0.961 . S
C12 H15 0.960 1_556 S
H13 C12 0.961 1_554 S
H14 C12 0.961 . S
H15 C12 0.960 1_554 S
C16 N17 1.342 . S
C16 C20 1.401 . S
C16 C21 1.499 . S
N17 Co0 1.989 1_556 S
N17 C16 1.342 . S
N17 N18 1.388 . S
N18 Co1 1.993 1_556 S
N18 N17 1.388 . S
N18 C19 1.346 . S
C19 N18 1.346 . S
C19 C20 1.396 . S
C19 C29 1.510 . S
C20 C16 1.401 . S
C20 C19 1.396 . S
C21 C16 1.499 . S
C21 H22 0.959 . S
C21 H23 0.960 . S
C21 H24 0.961 1_545 S
H22 C21 0.959 . S
H23 C21 0.960 . S
H24 C21 0.961 1_565 S
O25 Co0 1.967 . S
O25 C33 1.258 . S
O26 Co1 1.941 . S
O26 C33 1.266 . S
H27 C29 0.959 . S
H28 C29 0.961 . S
C29 C19 1.510 . S
C29 H27 0.959 . S
C29 H28 0.961 . S
C29 H30 0.960 . S
H30 C29 0.960 . S
H31 N11 0.862 1_554 S
O32 Co0 1.920 . S
O32 C5 1.289 . S
C33 O25 1.258 . S
C33 O26 1.266 . S
Co34 O37 1.970 . S
Co34 N51 1.989 . S
Co34 O59 1.967 . S
Co34 O66 1.920 . S
Co35 O38 1.966 . S
Co35 N44 2.022 . S
Co35 N52 1.993 . S
Co35 O60 1.941 . S
C36 O37 1.258 . S
C36 O38 1.263 . S
O37 Co34 1.970 . S
O37 C36 1.258 . S
O38 Co35 1.966 . S
O38 C36 1.263 . S
C39 O40 1.235 . S
C39 O66 1.289 . S
O40 C39 1.235 . S
C41 C43 1.400 . S
C41 N44 1.351 . S
C41 C46 1.501 . S
C42 C43 1.387 . S
C42 N45 1.341 . S
C43 C41 1.400 . S
C43 C42 1.387 . S
N44 Co35 2.022 . S
N44 C41 1.351 . S
N44 N45 1.365 . S
N45 C42 1.341 . S
N45 N44 1.365 . S
N45 H65 0.862 . S
C46 C41 1.501 . S
C46 H47 0.961 . S
C46 H48 0.961 . S
C46 H49 0.960 . S
H47 C46 0.961 . S
H48 C46 0.961 . S
H49 C46 0.960 . S
C50 N51 1.342 . S
C50 C54 1.401 . S
C50 C55 1.499 . S
N51 Co34 1.989 . S
N51 C50 1.342 . S
N51 N52 1.388 . S
N52 Co35 1.993 . S
N52 N51 1.388 . S
N52 C53 1.346 . S
C53 N52 1.346 . S
C53 C54 1.396 . S
C53 C63 1.510 . S
C54 C50 1.401 . S
C54 C53 1.396 . S
C55 C50 1.499 . S
C55 H56 0.959 . S
C55 H57 0.960 . S
C55 H58 0.961 1_655 S
H56 C55 0.959 . S
H57 C55 0.960 . S
H58 C55 0.961 1_455 S
O59 Co34 1.967 . S
O59 C67 1.258 . S
O60 Co35 1.941 . S
O60 C67 1.266 . S
H61 C63 0.959 . S
H62 C63 0.961 . S
C63 C53 1.510 . S
C63 H61 0.959 . S
C63 H62 0.961 . S
C63 H64 0.960 . S
H64 C63 0.960 . S
H65 N45 0.862 . S
O66 Co34 1.920 . S
O66 C39 1.289 . S
C67 O59 1.258 . S
C67 O60 1.266 . S
Co68 O71 1.970 . S
Co68 N85 1.989 . S
Co68 O93 1.967 . S
Co68 O100 1.920 . S
Co69 O72 1.966 . S
Co69 N78 2.022 . S
Co69 N86 1.993 . S
Co69 O94 1.941 . S
C70 O71 1.258 . S
C70 O72 1.263 . S
O71 Co68 1.970 . S
O71 C70 1.258 . S
O72 Co69 1.966 . S
O72 C70 1.263 . S
C73 O74 1.235 . S
C73 O100 1.289 . S
O74 C73 1.235 . S
C75 C77 1.400 . S
C75 N78 1.351 . S
C75 C80 1.501 . S
C76 C77 1.387 . S
C76 N79 1.341 . S
C77 C75 1.400 . S
C77 C76 1.387 . S
N78 Co69 2.022 . S
N78 C75 1.351 . S
N78 N79 1.365 . S
N79 C76 1.341 . S
N79 N78 1.365 . S
N79 H99 0.862 . S
C80 C75 1.501 . S
C80 H81 0.961 . S
C80 H82 0.961 . S
C80 H83 0.960 . S
H81 C80 0.961 . S
H82 C80 0.961 . S
H83 C80 0.960 . S
C84 N85 1.342 . S
C84 C88 1.401 . S
C84 C89 1.499 . S
N85 Co68 1.989 . S
N85 C84 1.342 . S
N85 N86 1.388 . S
N86 Co69 1.993 . S
N86 N85 1.388 . S
N86 C87 1.346 . S
C87 N86 1.346 . S
C87 C88 1.396 . S
C87 C97 1.510 . S
C88 C84 1.401 . S
C88 C87 1.396 . S
C89 C84 1.499 . S
C89 H90 0.959 . S
C89 H91 0.960 . S
C89 H92 0.961 . S
H90 C89 0.959 . S
H91 C89 0.960 . S
H92 C89 0.961 . S
O93 Co68 1.967 . S
O93 C101 1.258 . S
O94 Co69 1.941 . S
O94 C101 1.266 . S
H95 C97 0.959 . S
H96 C97 0.961 . S
C97 C87 1.510 . S
C97 H95 0.959 . S
C97 H96 0.961 . S
C97 H98 0.960 . S
H98 C97 0.960 . S
H99 N79 0.862 . S
O100 Co68 1.920 . S
O100 C73 1.289 . S
C101 O93 1.258 . S
C101 O94 1.266 . S
Co102 O105 1.970 . S
Co102 N119 1.989 . S
Co102 O127 1.967 . S
Co102 O134 1.920 . S
Co103 O106 1.966 . S
Co103 N112 2.022 . S
Co103 N120 1.993 . S
Co103 O128 1.941 . S
C104 O105 1.258 . S
C104 O106 1.263 . S
O105 Co102 1.970 . S
O105 C104 1.258 . S
O106 Co103 1.966 . S
O106 C104 1.263 . S
C107 O108 1.235 . S
C107 O134 1.289 . S
O108 C107 1.235 . S
C109 C111 1.400 . S
C109 N112 1.351 . S
C109 C114 1.501 . S
C110 C111 1.387 . S
C110 N113 1.341 . S
C111 C109 1.400 . S
C111 C110 1.387 . S
N112 Co103 2.022 . S
N112 C109 1.351 . S
N112 N113 1.365 . S
N113 C110 1.341 . S
N113 N112 1.365 . S
N113 H133 0.862 . S
C114 C109 1.501 . S
C114 H115 0.961 . S
C114 H116 0.961 . S
C114 H117 0.960 . S
H115 C114 0.961 . S
H116 C114 0.961 . S
H117 C114 0.960 . S
C118 N119 1.342 . S
C118 C122 1.401 . S
C118 C123 1.499 . S
N119 Co102 1.989 . S
N119 C118 1.342 . S
N119 N120 1.388 . S
N120 Co103 1.993 . S
N120 N119 1.388 . S
N120 C121 1.346 . S
C121 N120 1.346 . S
C121 C122 1.396 . S
C121 C131 1.510 . S
C122 C118 1.401 . S
C122 C121 1.396 . S
C123 C118 1.499 . S
C123 H124 0.959 . S
C123 H125 0.960 . S
C123 H126 0.961 . S
H124 C123 0.959 . S
H125 C123 0.960 . S
H126 C123 0.961 . S
O127 Co102 1.967 . S
O127 C135 1.258 . S
O128 Co103 1.941 . S
O128 C135 1.266 . S
H129 C131 0.959 . S
H130 C131 0.961 . S
C131 C121 1.510 . S
C131 H129 0.959 . S
C131 H130 0.961 . S
C131 H132 0.960 . S
H132 C131 0.960 . S
H133 N113 0.862 . S
O134 Co102 1.920 . S
O134 C107 1.289 . S
C135 O127 1.258 . S
C135 O128 1.266 . S
Co136 O139 1.970 . S
Co136 N153 1.989 . S
Co136 O161 1.967 . S
Co136 O168 1.920 . S
Co137 O140 1.966 . S
Co137 N146 2.022 . S
Co137 N154 1.993 . S
Co137 O162 1.941 . S
C138 O139 1.258 . S
C138 O140 1.263 . S
O139 Co136 1.970 . S
O139 C138 1.258 . S
O140 Co137 1.966 . S
O140 C138 1.263 . S
C141 O142 1.235 . S
C141 O168 1.289 . S
O142 C141 1.235 . S
C143 C145 1.400 . S
C143 N146 1.351 . S
C143 C148 1.501 . S
C144 C145 1.387 . S
C144 N147 1.341 . S
C145 C143 1.400 . S
C145 C144 1.387 . S
N146 Co137 2.022 . S
N146 C143 1.351 . S
N146 N147 1.365 . S
N147 C144 1.341 . S
N147 N146 1.365 . S
N147 H167 0.862 . S
C148 C143 1.501 . S
C148 H149 0.961 . S
C148 H150 0.961 . S
C148 H151 0.960 . S
H149 C148 0.961 . S
H150 C148 0.961 . S
H151 C148 0.960 . S
C152 N153 1.342 . S
C152 C156 1.401 . S
C152 C157 1.499 . S
N153 Co136 1.989 . S
N153 C152 1.342 . S
N153 N154 1.388 . S
N154 Co137 1.993 . S
N154 N153 1.388 . S
N154 C155 1.346 . S
C155 N154 1.346 . S
C155 C156 1.396 . S
C155 C165 1.510 . S
C156 C152 1.401 . S
C156 C155 1.396 . S
C157 C152 1.499 . S
C157 H158 0.959 . S
C157 H159 0.960 . S
C157 H160 0.961 1_545 S
H158 C157 0.959 . S
H159 C157 0.960 . S
H160 C157 0.961 1_565 S
O161 Co136 1.967 . S
O161 C169 1.258 . S
O162 Co137 1.941 . S
O162 C169 1.266 . S
H163 C165 0.959 . S
H164 C165 0.961 . S
C165 C155 1.510 . S
C165 H163 0.959 . S
C165 H164 0.961 . S
C165 H166 0.960 . S
H166 C165 0.960 . S
H167 N147 0.862 . S
O168 Co136 1.920 . S
O168 C141 1.289 . S
C169 O161 1.258 . S
C169 O162 1.266 . S
Co170 O173 1.970 . S
Co170 N187 1.989 . S
Co170 O195 1.967 . S
Co170 O202 1.920 . S
Co171 O174 1.966 . S
Co171 N180 2.022 . S
Co171 N188 1.993 . S
Co171 O196 1.941 . S
C172 O173 1.258 . S
C172 O174 1.263 . S
O173 Co170 1.970 . S
O173 C172 1.258 . S
O174 Co171 1.966 . S
O174 C172 1.263 . S
C175 O176 1.235 . S
C175 O202 1.289 . S
O176 C175 1.235 . S
C177 C179 1.400 . S
C177 N180 1.351 . S
C177 C182 1.501 . S
C178 C179 1.387 . S
C178 N181 1.341 . S
C179 C177 1.400 . S
C179 C178 1.387 . S
N180 Co171 2.022 . S
N180 C177 1.351 . S
N180 N181 1.365 . S
N181 C178 1.341 . S
N181 N180 1.365 . S
N181 H201 0.862 . S
C182 C177 1.501 . S
C182 H183 0.961 . S
C182 H184 0.961 . S
C182 H185 0.960 . S
H183 C182 0.961 . S
H184 C182 0.961 . S
H185 C182 0.960 . S
C186 N187 1.342 . S
C186 C190 1.401 . S
C186 C191 1.499 . S
N187 Co170 1.989 . S
N187 C186 1.342 . S
N187 N188 1.388 . S
N188 Co171 1.993 . S
N188 N187 1.388 . S
N188 C189 1.346 . S
C189 N188 1.346 . S
C189 C190 1.396 . S
C189 C199 1.510 . S
C190 C186 1.401 . S
C190 C189 1.396 . S
C191 C186 1.499 . S
C191 H192 0.959 . S
C191 H193 0.960 . S
C191 H194 0.961 1_655 S
H192 C191 0.959 . S
H193 C191 0.960 . S
H194 C191 0.961 1_455 S
O195 Co170 1.967 . S
O195 C203 1.258 . S
O196 Co171 1.941 . S
O196 C203 1.266 . S
H197 C199 0.959 . S
H198 C199 0.961 . S
C199 C189 1.510 . S
C199 H197 0.959 . S
C199 H198 0.961 . S
C199 H200 0.960 . S
H200 C199 0.960 . S
H201 N181 0.862 . S
O202 Co170 1.920 . S
O202 C175 1.289 . S
C203 O195 1.258 . S
C203 O196 1.266 . S
Co204 O207 1.970 . S
Co204 N221 1.989 1_554 S
Co204 O229 1.967 . S
Co204 O236 1.920 . S
Co205 O208 1.966 . S
Co205 N214 2.022 . S
Co205 N222 1.993 1_554 S
Co205 O230 1.941 . S
C206 O207 1.258 . S
C206 O208 1.263 . S
O207 Co204 1.970 . S
O207 C206 1.258 . S
O208 Co205 1.966 . S
O208 C206 1.263 . S
C209 O210 1.235 1_554 S
C209 O236 1.289 . S
O210 C209 1.235 1_556 S
C211 C213 1.400 . S
C211 N214 1.351 1_556 S
C211 C216 1.501 . S
C212 C213 1.387 . S
C212 N215 1.341 . S
C213 C211 1.400 . S
C213 C212 1.387 . S
N214 Co205 2.022 . S
N214 C211 1.351 1_554 S
N214 N215 1.365 1_554 S
N215 C212 1.341 . S
N215 N214 1.365 1_556 S
N215 H235 0.862 1_556 S
C216 C211 1.501 . S
C216 H217 0.961 1_556 S
C216 H218 0.961 . S
C216 H219 0.960 1_556 S
H217 C216 0.961 1_554 S
H218 C216 0.961 . S
H219 C216 0.960 1_554 S
C220 N221 1.342 . S
C220 C224 1.401 . S
C220 C225 1.499 . S
N221 Co204 1.989 1_556 S
N221 C220 1.342 . S
N221 N222 1.388 . S
N222 Co205 1.993 1_556 S
N222 N221 1.388 . S
N222 C223 1.346 . S
C223 N222 1.346 . S
C223 C224 1.396 . S
C223 C233 1.510 . S
C224 C220 1.401 . S
C224 C223 1.396 . S
C225 C220 1.499 . S
C225 H226 0.959 . S
C225 H227 0.960 . S
C225 H228 0.961 . S
H226 C225 0.959 . S
H227 C225 0.960 . S
H228 C225 0.961 . S
O229 Co204 1.967 . S
O229 C237 1.258 . S
O230 Co205 1.941 . S
O230 C237 1.266 . S
H231 C233 0.959 . S
H232 C233 0.961 . S
C233 C223 1.510 . S
C233 H231 0.959 . S
C233 H232 0.961 . S
C233 H234 0.960 . S
H234 C233 0.960 . S
H235 N215 0.862 1_554 S
O236 Co204 1.920 . S
O236 C209 1.289 . S
C237 O229 1.258 . S
C237 O230 1.266 . S
Co238 O241 1.970 . S
Co238 N255 1.989 . S
Co238 O263 1.967 . S
Co238 O270 1.920 . S
Co239 O242 1.966 . S
Co239 N248 2.022 . S
Co239 N256 1.993 . S
Co239 O264 1.941 . S
C240 O241 1.258 . S
C240 O242 1.263 . S
O241 Co238 1.970 . S
O241 C240 1.258 . S
O242 Co239 1.966 . S
O242 C240 1.263 . S
C243 O244 1.235 . S
C243 O270 1.289 . S
O244 C243 1.235 . S
C245 C247 1.400 . S
C245 N248 1.351 . S
C245 C250 1.501 . S
C246 C247 1.387 . S
C246 N249 1.341 . S
C247 C245 1.400 . S
C247 C246 1.387 . S
N248 Co239 2.022 . S
N248 C245 1.351 . S
N248 N249 1.365 . S
N249 C246 1.341 . S
N249 N248 1.365 . S
N249 H269 0.862 . S
C250 C245 1.501 . S
C250 H251 0.961 . S
C250 H252 0.961 . S
C250 H253 0.960 . S
H251 C250 0.961 . S
H252 C250 0.961 . S
H253 C250 0.960 . S
C254 N255 1.342 . S
C254 C258 1.401 . S
C254 C259 1.499 . S
N255 Co238 1.989 . S
N255 C254 1.342 . S
N255 N256 1.388 . S
N256 Co239 1.993 . S
N256 N255 1.388 . S
N256 C257 1.346 . S
C257 N256 1.346 . S
C257 C258 1.396 . S
C257 C267 1.510 . S
C258 C254 1.401 . S
C258 C257 1.396 . S
C259 C254 1.499 . S
C259 H260 0.959 . S
C259 H261 0.960 . S
C259 H262 0.961 . S
H260 C259 0.959 . S
H261 C259 0.960 . S
H262 C259 0.961 . S
O263 Co238 1.967 . S
O263 C271 1.258 . S
O264 Co239 1.941 . S
O264 C271 1.266 . S
H265 C267 0.959 . S
H266 C267 0.961 . S
C267 C257 1.510 . S
C267 H265 0.959 . S
C267 H266 0.961 . S
C267 H268 0.960 . S
H268 C267 0.960 . S
H269 N249 0.862 . S
O270 Co238 1.920 . S
O270 C243 1.289 . S
C271 O263 1.258 . S
C271 O264 1.266 . S
Co272 O275 1.970 . S
Co272 N289 1.989 . S
Co272 O297 1.967 . S
Co272 O304 1.920 . S
Co273 O276 1.966 . S
Co273 N282 2.022 . S
Co273 N290 1.993 . S
Co273 O298 1.941 . S
C274 O275 1.258 . S
C274 O276 1.263 . S
O275 Co272 1.970 . S
O275 C274 1.258 . S
O276 Co273 1.966 . S
O276 C274 1.263 . S
C277 O278 1.235 . S
C277 O304 1.289 . S
O278 C277 1.235 . S
C279 C281 1.400 . S
C279 N282 1.351 . S
C279 C284 1.501 . S
C280 C281 1.387 . S
C280 N283 1.341 . S
C281 C279 1.400 . S
C281 C280 1.387 . S
N282 Co273 2.022 . S
N282 C279 1.351 . S
N282 N283 1.365 . S
N283 C280 1.341 . S
N283 N282 1.365 . S
N283 H303 0.862 . S
C284 C279 1.501 . S
C284 H285 0.961 . S
C284 H286 0.961 . S
C284 H287 0.960 . S
H285 C284 0.961 . S
H286 C284 0.961 . S
H287 C284 0.960 . S
C288 N289 1.342 . S
C288 C292 1.401 . S
C288 C293 1.499 . S
N289 Co272 1.989 . S
N289 C288 1.342 . S
N289 N290 1.388 . S
N290 Co273 1.993 . S
N290 N289 1.388 . S
N290 C291 1.346 . S
C291 N290 1.346 . S
C291 C292 1.396 . S
C291 C301 1.510 . S
C292 C288 1.401 . S
C292 C291 1.396 . S
C293 C288 1.499 . S
C293 H294 0.959 . S
C293 H295 0.960 . S
C293 H296 0.961 . S
H294 C293 0.959 . S
H295 C293 0.960 . S
H296 C293 0.961 . S
O297 Co272 1.967 . S
O297 C305 1.258 . S
O298 Co273 1.941 . S
O298 C305 1.266 . S
H299 C301 0.959 . S
H300 C301 0.961 . S
C301 C291 1.510 . S
C301 H299 0.959 . S
C301 H300 0.961 . S
C301 H302 0.960 . S
H302 C301 0.960 . S
H303 N283 0.862 . S
O304 Co272 1.920 . S
O304 C277 1.289 . S
C305 O297 1.258 . S
C305 O298 1.266 . S
Co306 O309 1.970 . S
Co306 N323 1.989 . S
Co306 O331 1.967 . S
Co306 O338 1.920 . S
Co307 O310 1.966 . S
Co307 N316 2.022 . S
Co307 N324 1.993 . S
Co307 O332 1.941 . S
C308 O309 1.258 . S
C308 O310 1.263 . S
O309 Co306 1.970 . S
O309 C308 1.258 . S
O310 Co307 1.966 . S
O310 C308 1.263 . S
C311 O312 1.235 . S
C311 O338 1.289 . S
O312 C311 1.235 . S
C313 C315 1.400 . S
C313 N316 1.351 . S
C313 C318 1.501 . S
C314 C315 1.387 . S
C314 N317 1.341 . S
C315 C313 1.400 . S
C315 C314 1.387 . S
N316 Co307 2.022 . S
N316 C313 1.351 . S
N316 N317 1.365 . S
N317 C314 1.341 . S
N317 N316 1.365 . S
N317 H337 0.862 . S
C318 C313 1.501 . S
C318 H319 0.961 . S
C318 H320 0.961 . S
C318 H321 0.960 . S
H319 C318 0.961 . S
H320 C318 0.961 . S
H321 C318 0.960 . S
C322 N323 1.342 . S
C322 C326 1.401 . S
C322 C327 1.499 . S
N323 Co306 1.989 . S
N323 C322 1.342 . S
N323 N324 1.388 . S
N324 Co307 1.993 . S
N324 N323 1.388 . S
N324 C325 1.346 . S
C325 N324 1.346 . S
C325 C326 1.396 . S
C325 C335 1.510 . S
C326 C322 1.401 . S
C326 C325 1.396 . S
C327 C322 1.499 . S
C327 H328 0.959 . S
C327 H329 0.960 . S
C327 H330 0.961 . S
H328 C327 0.959 . S
H329 C327 0.960 . S
H330 C327 0.961 . S
O331 Co306 1.967 . S
O331 C339 1.258 . S
O332 Co307 1.941 . S
O332 C339 1.266 . S
H333 C335 0.959 . S
H334 C335 0.961 . S
C335 C325 1.510 . S
C335 H333 0.959 . S
C335 H334 0.961 . S
C335 H336 0.960 . S
H336 C335 0.960 . S
H337 N317 0.862 . S
O338 Co306 1.920 . S
O338 C311 1.289 . S
C339 O331 1.258 . S
C339 O332 1.266 . S
Co340 O343 1.970 . S
Co340 N357 1.989 1_554 S
Co340 O365 1.967 . S
Co340 O372 1.920 . S
Co341 O344 1.966 . S
Co341 N350 2.022 . S
Co341 N358 1.993 1_554 S
Co341 O366 1.941 . S
C342 O343 1.258 . S
C342 O344 1.263 . S
O343 Co340 1.970 . S
O343 C342 1.258 . S
O344 Co341 1.966 . S
O344 C342 1.263 . S
C345 O346 1.235 1_554 S
C345 O372 1.289 . S
O346 C345 1.235 1_556 S
C347 C349 1.400 . S
C347 N350 1.351 1_556 S
C347 C352 1.501 . S
C348 C349 1.387 . S
C348 N351 1.341 . S
C349 C347 1.400 . S
C349 C348 1.387 . S
N350 Co341 2.022 . S
N350 C347 1.351 1_554 S
N350 N351 1.365 1_554 S
N351 C348 1.341 . S
N351 N350 1.365 1_556 S
N351 H371 0.862 1_556 S
C352 C347 1.501 . S
C352 H353 0.961 1_556 S
C352 H354 0.961 . S
C352 H355 0.960 1_556 S
H353 C352 0.961 1_554 S
H354 C352 0.961 . S
H355 C352 0.960 1_554 S
C356 N357 1.342 . S
C356 C360 1.401 . S
C356 C361 1.499 . S
N357 Co340 1.989 1_556 S
N357 C356 1.342 . S
N357 N358 1.388 . S
N358 Co341 1.993 1_556 S
N358 N357 1.388 . S
N358 C359 1.346 . S
C359 N358 1.346 . S
C359 C360 1.396 . S
C359 C369 1.510 . S
C360 C356 1.401 . S
C360 C359 1.396 . S
C361 C356 1.499 . S
C361 H362 0.959 . S
C361 H363 0.960 . S
C361 H364 0.961 1_565 S
H362 C361 0.959 . S
H363 C361 0.960 . S
H364 C361 0.961 1_545 S
O365 Co340 1.967 . S
O365 C373 1.258 . S
O366 Co341 1.941 . S
O366 C373 1.266 . S
H367 C369 0.959 . S
H368 C369 0.961 . S
C369 C359 1.510 . S
C369 H367 0.959 . S
C369 H368 0.961 . S
C369 H370 0.960 . S
H370 C369 0.960 . S
H371 N351 0.862 1_554 S
O372 Co340 1.920 . S
O372 C345 1.289 . S
C373 O365 1.258 . S
C373 O366 1.266 . S
Co374 O377 1.970 . S
Co374 N391 1.989 . S
Co374 O399 1.967 . S
Co374 O406 1.920 . S
Co375 O378 1.966 . S
Co375 N384 2.022 . S
Co375 N392 1.993 . S
Co375 O400 1.941 . S
C376 O377 1.258 . S
C376 O378 1.263 . S
O377 Co374 1.970 . S
O377 C376 1.258 . S
O378 Co375 1.966 . S
O378 C376 1.263 . S
C379 O380 1.235 . S
C379 O406 1.289 . S
O380 C379 1.235 . S
C381 C383 1.400 . S
C381 N384 1.351 . S
C381 C386 1.501 . S
C382 C383 1.387 . S
C382 N385 1.341 . S
C383 C381 1.400 . S
C383 C382 1.387 . S
N384 Co375 2.022 . S
N384 C381 1.351 . S
N384 N385 1.365 . S
N385 C382 1.341 . S
N385 N384 1.365 . S
N385 H405 0.862 . S
C386 C381 1.501 . S
C386 H387 0.961 . S
C386 H388 0.961 . S
C386 H389 0.960 . S
H387 C386 0.961 . S
H388 C386 0.961 . S
H389 C386 0.960 . S
C390 N391 1.342 . S
C390 C394 1.401 . S
C390 C395 1.499 . S
N391 Co374 1.989 . S
N391 C390 1.342 . S
N391 N392 1.388 . S
N392 Co375 1.993 . S
N392 N391 1.388 . S
N392 C393 1.346 . S
C393 N392 1.346 . S
C393 C394 1.396 . S
C393 C403 1.510 . S
C394 C390 1.401 . S
C394 C393 1.396 . S
C395 C390 1.499 . S
C395 H396 0.959 . S
C395 H397 0.960 . S
C395 H398 0.961 1_455 S
H396 C395 0.959 . S
H397 C395 0.960 . S
H398 C395 0.961 1_655 S
O399 Co374 1.967 . S
O399 C407 1.258 . S
O400 Co375 1.941 . S
O400 C407 1.266 . S
H401 C403 0.959 . S
H402 C403 0.961 . S
C403 C393 1.510 . S
C403 H401 0.959 . S
C403 H402 0.961 . S
C403 H404 0.960 . S
H404 C403 0.960 . S
H405 N385 0.862 . S
O406 Co374 1.920 . S
O406 C379 1.289 . S
C407 O399 1.258 . S
C407 O400 1.266 . S
Co408 O411 1.970 . S
Co408 N425 1.989 1_554 S
Co408 O433 1.967 . S
Co408 O440 1.920 . S
Co409 O412 1.966 . S
Co409 N418 2.022 . S
Co409 N426 1.993 1_554 S
Co409 O434 1.941 . S
C410 O411 1.258 . S
C410 O412 1.263 . S
O411 Co408 1.970 . S
O411 C410 1.258 . S
O412 Co409 1.966 . S
O412 C410 1.263 . S
C413 O414 1.235 1_554 S
C413 O440 1.289 . S
O414 C413 1.235 1_556 S
C415 C417 1.400 . S
C415 N418 1.351 1_556 S
C415 C420 1.501 . S
C416 C417 1.387 . S
C416 N419 1.341 . S
C417 C415 1.400 . S
C417 C416 1.387 . S
N418 Co409 2.022 . S
N418 C415 1.351 1_554 S
N418 N419 1.365 1_554 S
N419 C416 1.341 . S
N419 N418 1.365 1_556 S
N419 H439 0.862 1_556 S
C420 C415 1.501 . S
C420 H421 0.961 1_556 S
C420 H422 0.961 . S
C420 H423 0.960 1_556 S
H421 C420 0.961 1_554 S
H422 C420 0.961 . S
H423 C420 0.960 1_554 S
C424 N425 1.342 . S
C424 C428 1.401 . S
C424 C429 1.499 . S
N425 Co408 1.989 1_556 S
N425 C424 1.342 . S
N425 N426 1.388 . S
N426 Co409 1.993 1_556 S
N426 N425 1.388 . S
N426 C427 1.346 . S
C427 N426 1.346 . S
C427 C428 1.396 . S
C427 C437 1.510 . S
C428 C424 1.401 . S
C428 C427 1.396 . S
C429 C424 1.499 . S
C429 H430 0.959 . S
C429 H431 0.960 . S
C429 H432 0.961 . S
H430 C429 0.959 . S
H431 C429 0.960 . S
H432 C429 0.961 . S
O433 Co408 1.967 . S
O433 C441 1.258 . S
O434 Co409 1.941 . S
O434 C441 1.266 . S
H435 C437 0.959 . S
H436 C437 0.961 . S
C437 C427 1.510 . S
C437 H435 0.959 . S
C437 H436 0.961 . S
C437 H438 0.960 . S
H438 C437 0.960 . S
H439 N419 0.862 1_554 S
O440 Co408 1.920 . S
O440 C413 1.289 . S
C441 O433 1.258 . S
C441 O434 1.266 . S
Co442 O445 1.970 . S
Co442 N459 1.989 . S
Co442 O467 1.967 . S
Co442 O474 1.920 . S
Co443 O446 1.966 . S
Co443 N452 2.022 . S
Co443 N460 1.993 . S
Co443 O468 1.941 . S
C444 O445 1.258 . S
C444 O446 1.263 . S
O445 Co442 1.970 . S
O445 C444 1.258 . S
O446 Co443 1.966 . S
O446 C444 1.263 . S
C447 O448 1.235 . S
C447 O474 1.289 . S
O448 C447 1.235 . S
C449 C451 1.400 . S
C449 N452 1.351 . S
C449 C454 1.501 . S
C450 C451 1.387 . S
C450 N453 1.341 . S
C451 C449 1.400 . S
C451 C450 1.387 . S
N452 Co443 2.022 . S
N452 C449 1.351 . S
N452 N453 1.365 . S
N453 C450 1.341 . S
N453 N452 1.365 . S
N453 H473 0.862 . S
C454 C449 1.501 . S
C454 H455 0.961 . S
C454 H456 0.961 . S
C454 H457 0.960 . S
H455 C454 0.961 . S
H456 C454 0.961 . S
H457 C454 0.960 . S
C458 N459 1.342 . S
C458 C462 1.401 . S
C458 C463 1.499 . S
N459 Co442 1.989 . S
N459 C458 1.342 . S
N459 N460 1.388 . S
N460 Co443 1.993 . S
N460 N459 1.388 . S
N460 C461 1.346 . S
C461 N460 1.346 . S
C461 C462 1.396 . S
C461 C471 1.510 . S
C462 C458 1.401 . S
C462 C461 1.396 . S
C463 C458 1.499 . S
C463 H464 0.959 . S
C463 H465 0.960 . S
C463 H466 0.961 . S
H464 C463 0.959 . S
H465 C463 0.960 . S
H466 C463 0.961 . S
O467 Co442 1.967 . S
O467 C475 1.258 . S
O468 Co443 1.941 . S
O468 C475 1.266 . S
H469 C471 0.959 . S
H470 C471 0.961 . S
C471 C461 1.510 . S
C471 H469 0.959 . S
C471 H470 0.961 . S
C471 H472 0.960 . S
H472 C471 0.960 . S
H473 N453 0.862 . S
O474 Co442 1.920 . S
O474 C447 1.289 . S
C475 O467 1.258 . S
C475 O468 1.266 . S
Co476 O479 1.970 . S
Co476 N493 1.989 . S
Co476 O501 1.967 . S
Co476 O508 1.920 . S
Co477 O480 1.966 . S
Co477 N486 2.022 . S
Co477 N494 1.993 . S
Co477 O502 1.941 . S
C478 O479 1.258 . S
C478 O480 1.263 . S
O479 Co476 1.970 . S
O479 C478 1.258 . S
O480 Co477 1.966 . S
O480 C478 1.263 . S
C481 O482 1.235 . S
C481 O508 1.289 . S
O482 C481 1.235 . S
C483 C485 1.400 . S
C483 N486 1.351 . S
C483 C488 1.501 . S
C484 C485 1.387 . S
C484 N487 1.341 . S
C485 C483 1.400 . S
C485 C484 1.387 . S
N486 Co477 2.022 . S
N486 C483 1.351 . S
N486 N487 1.365 . S
N487 C484 1.341 . S
N487 N486 1.365 . S
N487 H507 0.862 . S
C488 C483 1.501 . S
C488 H489 0.961 . S
C488 H490 0.961 . S
C488 H491 0.960 . S
H489 C488 0.961 . S
H490 C488 0.961 . S
H491 C488 0.960 . S
C492 N493 1.342 . S
C492 C496 1.401 . S
C492 C497 1.499 . S
N493 Co476 1.989 . S
N493 C492 1.342 . S
N493 N494 1.388 . S
N494 Co477 1.993 . S
N494 N493 1.388 . S
N494 C495 1.346 . S
C495 N494 1.346 . S
C495 C496 1.396 . S
C495 C505 1.510 . S
C496 C492 1.401 . S
C496 C495 1.396 . S
C497 C492 1.499 . S
C497 H498 0.959 . S
C497 H499 0.960 . S
C497 H500 0.961 1_565 S
H498 C497 0.959 . S
H499 C497 0.960 . S
H500 C497 0.961 1_545 S
O501 Co476 1.967 . S
O501 C509 1.258 . S
O502 Co477 1.941 . S
O502 C509 1.266 . S
H503 C505 0.959 . S
H504 C505 0.961 . S
C505 C495 1.510 . S
C505 H503 0.959 . S
C505 H504 0.961 . S
C505 H506 0.960 . S
H506 C505 0.960 . S
H507 N487 0.862 . S
O508 Co476 1.920 . S
O508 C481 1.289 . S
C509 O501 1.258 . S
C509 O502 1.266 . S
Co510 O513 1.970 . S
Co510 N527 1.989 . S
Co510 O535 1.967 . S
Co510 O542 1.920 . S
Co511 O514 1.966 . S
Co511 N520 2.022 . S
Co511 N528 1.993 . S
Co511 O536 1.941 . S
C512 O513 1.258 . S
C512 O514 1.263 . S
O513 Co510 1.970 . S
O513 C512 1.258 . S
O514 Co511 1.966 . S
O514 C512 1.263 . S
C515 O516 1.235 . S
C515 O542 1.289 . S
O516 C515 1.235 . S
C517 C519 1.400 . S
C517 N520 1.351 . S
C517 C522 1.501 . S
C518 C519 1.387 . S
C518 N521 1.341 . S
C519 C517 1.400 . S
C519 C518 1.387 . S
N520 Co511 2.022 . S
N520 C517 1.351 . S
N520 N521 1.365 . S
N521 C518 1.341 . S
N521 N520 1.365 . S
N521 H541 0.862 . S
C522 C517 1.501 . S
C522 H523 0.961 . S
C522 H524 0.961 . S
C522 H525 0.960 . S
H523 C522 0.961 . S
H524 C522 0.961 . S
H525 C522 0.960 . S
C526 N527 1.342 . S
C526 C530 1.401 . S
C526 C531 1.499 . S
N527 Co510 1.989 . S
N527 C526 1.342 . S
N527 N528 1.388 . S
N528 Co511 1.993 . S
N528 N527 1.388 . S
N528 C529 1.346 . S
C529 N528 1.346 . S
C529 C530 1.396 . S
C529 C539 1.510 . S
C530 C526 1.401 . S
C530 C529 1.396 . S
C531 C526 1.499 . S
C531 H532 0.959 . S
C531 H533 0.960 . S
C531 H534 0.961 1_455 S
H532 C531 0.959 . S
H533 C531 0.960 . S
H534 C531 0.961 1_655 S
O535 Co510 1.967 . S
O535 C543 1.258 . S
O536 Co511 1.941 . S
O536 C543 1.266 . S
H537 C539 0.959 . S
H538 C539 0.961 . S
C539 C529 1.510 . S
C539 H537 0.959 . S
C539 H538 0.961 . S
C539 H540 0.960 . S
H540 C539 0.960 . S
H541 N521 0.862 . S
O542 Co510 1.920 . S
O542 C515 1.289 . S
C543 O535 1.258 . S
C543 O536 1.266 . S
H544 C556 0.930 . S
H545 C558 0.930 . S
H546 C559 0.930 . S
H547 C563 0.959 . S
H548 C563 0.959 . S
H549 C563 0.961 . S
H550 C564 0.960 1_565 S
H551 C564 0.961 1_455 S
H552 C564 0.959 . S
H553 C567 0.929 . S
H554 C568 0.931 . S
H555 C570 0.930 . S
C556 H544 0.930 . S
C556 C557 1.399 1_556 S
C556 C561 1.399 . S
C557 C556 1.399 1_554 S
C557 C558 1.376 . S
C558 H545 0.930 . S
C558 C557 1.376 . S
C558 C559 1.388 1_565 S
C559 H546 0.930 . S
C559 C558 1.388 1_545 S
C559 C560 1.391 . S
C560 C559 1.391 . S
C560 C561 1.369 1_544 S
C560 C566 1.487 1_655 S
C561 C556 1.399 . S
C561 C560 1.369 1_566 S
C561 C562 1.516 1_655 S
C562 C561 1.516 1_455 S
C562 C563 1.502 . S
C562 C564 1.561 1_465 S
C562 C565 1.526 1_565 S
C563 H547 0.959 . S
C563 H548 0.959 . S
C563 H549 0.961 . S
C563 C562 1.502 . S
C564 H550 0.960 1_545 S
C564 H551 0.961 1_655 S
C564 H552 0.959 . S
C564 C562 1.561 1_645 S
C565 C562 1.526 1_545 S
C565 C566 1.396 1_556 S
C565 C570 1.390 . S
C566 C560 1.487 1_455 S
C566 C565 1.396 1_554 S
C566 C567 1.399 . S
C567 H553 0.929 . S
C567 C566 1.399 . S
C567 C568 1.385 . S
C568 H554 0.931 . S
C568 C567 1.385 . S
C568 C569 1.389 . S
C569 C568 1.389 . S
C569 C570 1.387 1_554 S
C570 H555 0.930 . S
C570 C565 1.390 . S
C570 C569 1.387 1_556 S
H571 C583 0.930 . S
H572 C585 0.930 . S
H573 C586 0.930 1_455 S
H574 C590 0.959 . S
H575 C590 0.959 . S
H576 C590 0.961 . S
H577 C591 0.960 . S
H578 C591 0.961 . S
H579 C591 0.959 . S
H580 C594 0.929 . S
H581 C595 0.931 . S
H582 C597 0.930 . S
C583 H571 0.930 . S
C583 C584 1.399 . S
C583 C588 1.399 . S
C584 C583 1.399 . S
C584 C585 1.376 . S
C585 H572 0.930 . S
C585 C584 1.376 . S
C585 C586 1.388 . S
C586 H573 0.930 1_655 S
C586 C585 1.388 . S
C586 C587 1.390 . S
C587 C586 1.390 . S
C587 C588 1.394 . S
C587 C593 1.465 1_655 S
C588 C583 1.399 . S
C588 C587 1.394 . S
C588 C589 1.516 . S
C589 C588 1.516 . S
C589 C590 1.502 . S
C589 C591 1.561 1_655 S
C589 C592 1.526 1_655 S
C590 H574 0.959 . S
C590 H575 0.959 . S
C590 H576 0.961 . S
C590 C589 1.502 . S
C591 H577 0.960 . S
C591 H578 0.961 . S
C591 H579 0.959 . S
C591 C589 1.561 1_455 S
C592 C589 1.526 1_455 S
C592 C593 1.396 . S
C592 C597 1.390 . S
C593 C587 1.465 1_455 S
C593 C592 1.396 . S
C593 C594 1.399 . S
C594 H580 0.929 . S
C594 C593 1.399 . S
C594 C595 1.385 . S
C595 H581 0.931 . S
C595 C594 1.385 . S
C595 C596 1.389 . S
C596 C595 1.389 . S
C596 C597 1.387 . S
C597 H582 0.930 . S
C597 C592 1.390 . S
C597 C596 1.387 . S
H598 C610 0.930 . S
H599 C612 0.930 . S
H600 C613 0.930 . S
H601 C617 0.959 . S
H602 C617 0.959 . S
H603 C617 0.961 . S
H604 C618 0.960 . S
H605 C618 0.961 . S
H606 C618 0.959 . S
H607 C621 0.929 . S
H608 C622 0.931 . S
H609 C624 0.930 . S
C610 H598 0.930 . S
C610 C611 1.399 . S
C610 C615 1.399 . S
C611 C610 1.399 . S
C611 C612 1.376 . S
C612 H599 0.930 . S
C612 C611 1.376 . S
C612 C613 1.388 . S
C613 H600 0.930 . S
C613 C612 1.388 . S
C613 C614 1.390 . S
C614 C613 1.390 . S
C614 C615 1.394 . S
C614 C620 1.465 . S
C615 C610 1.399 . S
C615 C614 1.394 . S
C615 C616 1.516 . S
C616 C615 1.516 . S
C616 C617 1.502 . S
C616 C618 1.561 . S
C616 C619 1.526 . S
C617 H601 0.959 . S
C617 H602 0.959 . S
C617 H603 0.961 . S
C617 C616 1.502 . S
C618 H604 0.960 . S
C618 H605 0.961 . S
C618 H606 0.959 . S
C618 C616 1.561 . S
C619 C616 1.526 . S
C619 C620 1.396 . S
C619 C624 1.390 . S
C620 C614 1.465 . S
C620 C619 1.396 . S
C620 C621 1.399 . S
C621 H607 0.929 . S
C621 C620 1.399 . S
C621 C622 1.385 . S
C622 H608 0.931 . S
C622 C621 1.385 . S
C622 C623 1.389 . S
C623 C622 1.389 . S
C623 C624 1.387 . S
C624 H609 0.930 . S
C624 C619 1.390 . S
C624 C623 1.387 . S
H625 C637 0.930 . S
H626 C639 0.930 . S
H627 C640 0.930 . S
H628 C644 0.959 . S
H629 C644 0.959 . S
H630 C644 0.961 . S
H631 C645 0.960 . S
H632 C645 0.961 1_545 S
H633 C645 0.959 . S
H634 C648 0.929 . S
H635 C649 0.931 . S
H636 C651 0.930 . S
C637 H625 0.930 . S
C637 C638 1.399 . S
C637 C642 1.399 . S
C638 C637 1.399 . S
C638 C639 1.376 . S
C639 H626 0.930 . S
C639 C638 1.376 . S
C639 C640 1.388 . S
C640 H627 0.930 . S
C640 C639 1.388 . S
C640 C641 1.390 . S
C641 C640 1.390 . S
C641 C642 1.394 . S
C641 C647 1.465 1_565 S
C642 C637 1.399 . S
C642 C641 1.394 . S
C642 C643 1.516 1_565 S
C643 C642 1.516 1_545 S
C643 C644 1.502 . S
C643 C645 1.561 1_545 S
C643 C646 1.526 . S
C644 H628 0.959 . S
C644 H629 0.959 . S
C644 H630 0.961 . S
C644 C643 1.502 . S
C645 H631 0.960 . S
C645 H632 0.961 1_565 S
C645 H633 0.959 . S
C645 C643 1.561 1_565 S
C646 C643 1.526 . S
C646 C647 1.396 . S
C646 C651 1.390 . S
C647 C641 1.465 1_545 S
C647 C646 1.396 . S
C647 C648 1.399 . S
C648 H634 0.929 . S
C648 C647 1.399 . S
C648 C649 1.385 . S
C649 H635 0.931 . S
C649 C648 1.385 . S
C649 C650 1.389 . S
C650 C649 1.389 . S
C650 C651 1.387 . S
C651 H636 0.930 . S
C651 C646 1.390 . S
C651 C650 1.387 . S
H652 C664 0.930 . S
H653 C666 0.930 . S
H654 C667 0.930 . S
H655 C671 0.959 . S
H656 C671 0.959 . S
H657 C671 0.961 1_455 S
H658 C672 0.960 . S
H659 C672 0.961 . S
H660 C672 0.959 . S
H661 C675 0.929 . S
H662 C676 0.931 . S
H663 C678 0.930 . S
C664 H652 0.930 . S
C664 C665 1.399 . S
C664 C669 1.399 . S
C665 C664 1.399 . S
C665 C666 1.376 . S
C666 H653 0.930 . S
C666 C665 1.376 . S
C666 C667 1.388 . S
C667 H654 0.930 . S
C667 C666 1.388 . S
C667 C668 1.390 . S
C668 C667 1.390 . S
C668 C669 1.394 . S
C668 C674 1.465 1_465 S
C669 C664 1.399 . S
C669 C668 1.394 . S
C669 C670 1.516 1_565 S
C670 C669 1.516 1_545 S
C670 C671 1.502 1_445 S
C670 C672 1.561 . S
C670 C673 1.526 1_455 S
C671 H655 0.959 . S
C671 H656 0.959 . S
C671 H657 0.961 1_655 S
C671 C670 1.502 1_665 S
C672 H658 0.960 . S
C672 H659 0.961 . S
C672 H660 0.959 . S
C672 C670 1.561 . S
C673 C670 1.526 1_655 S
C673 C674 1.396 . S
C673 C678 1.390 . S
C674 C668 1.465 1_645 S
C674 C673 1.396 . S
C674 C675 1.399 . S
C675 H661 0.929 . S
C675 C674 1.399 . S
C675 C676 1.385 . S
C676 H662 0.931 . S
C676 C675 1.385 . S
C676 C677 1.389 . S
C677 C676 1.389 . S
C677 C678 1.387 . S
C678 H663 0.930 . S
C678 C673 1.390 . S
C678 C677 1.387 . S
H679 C691 0.929 1_455 S
H680 C693 0.930 . S
H681 C694 0.930 . S
H682 C698 0.959 . S
H683 C698 0.959 . S
H684 C698 0.961 . S
H685 C699 0.960 . S
H686 C699 0.961 . S
H687 C699 1.000 . S
H688 C702 0.929 . S
H689 C703 0.931 . S
H690 C705 0.930 . S
C691 H679 0.929 1_655 S
C691 C692 1.399 . S
C691 C696 1.399 . S
C692 C691 1.399 . S
C692 C693 1.376 . S
C693 H680 0.930 . S
C693 C692 1.376 . S
C693 C694 1.388 . S
C694 H681 0.930 . S
C694 C693 1.388 . S
C694 C695 1.390 . S
C695 C694 1.390 . S
C695 C696 1.394 . S
C695 C701 1.465 . S
C696 C691 1.399 . S
C696 C695 1.394 . S
C696 C697 1.516 1_655 S
C697 C696 1.516 1_455 S
C697 C698 1.502 . S
C697 C699 1.561 . S
C697 C700 1.526 . S
C698 H682 0.959 . S
C698 H683 0.959 . S
C698 H684 0.961 . S
C698 C697 1.502 . S
C699 H685 0.960 . S
C699 H686 0.961 . S
C699 H687 1.000 . S
C699 C697 1.561 . S
C700 C697 1.526 . S
C700 C701 1.396 1_455 S
C700 C705 1.390 . S
C701 C695 1.465 . S
C701 C700 1.396 1_655 S
C701 C702 1.399 . S
C702 H688 0.929 . S
C702 C701 1.399 . S
C702 C703 1.385 1_655 S
C703 H689 0.931 . S
C703 C702 1.385 1_455 S
C703 C704 1.389 . S
C704 C703 1.389 . S
C704 C705 1.387 . S
C705 H690 0.930 . S
C705 C700 1.390 . S
C705 C704 1.387 . S
H706 C718 0.930 . S
H707 C720 0.930 . S
H708 C721 0.930 . S
H709 C725 0.959 . S
H710 C725 0.959 . S
H711 C725 0.961 . S
H712 C726 0.960 . S
H713 C726 0.961 . S
H714 C726 0.959 . S
H715 C729 0.929 . S
H716 C730 0.931 . S
H717 C732 0.930 . S
C718 H706 0.930 . S
C718 C719 1.399 1_556 S
C718 C723 1.399 . S
C719 C718 1.399 1_554 S
C719 C720 1.376 . S
C720 H707 0.930 . S
C720 C719 1.376 . S
C720 C721 1.388 . S
C721 H708 0.930 . S
C721 C720 1.388 . S
C721 C722 1.390 . S
C722 C721 1.390 . S
C722 C723 1.394 1_554 S
C722 C728 1.465 . S
C723 C718 1.399 . S
C723 C722 1.394 1_556 S
C723 C724 1.516 . S
C724 C723 1.516 . S
C724 C725 1.502 . S
C724 C726 1.561 . S
C724 C727 1.526 . S
C725 H709 0.959 . S
C725 H710 0.959 . S
C725 H711 0.961 . S
C725 C724 1.502 . S
C726 H712 0.960 . S
C726 H713 0.961 . S
C726 H714 0.959 . S
C726 C724 1.561 . S
C727 C724 1.526 . S
C727 C728 1.396 1_556 S
C727 C732 1.390 . S
C728 C722 1.465 . S
C728 C727 1.396 1_554 S
C728 C729 1.399 . S
C729 H715 0.929 . S
C729 C728 1.399 . S
C729 C730 1.385 . S
C730 H716 0.931 . S
C730 C729 1.385 . S
C730 C731 1.389 . S
C731 C730 1.389 . S
C731 C732 1.387 1_554 S
C732 H717 0.930 . S
C732 C727 1.390 . S
C732 C731 1.387 1_556 S
H733 C745 0.930 . S
H734 C747 0.930 . S
H735 C748 0.930 . S
H736 C752 0.959 . S
H737 C752 0.959 . S
H738 C752 0.961 . S
H739 C753 0.960 1_565 S
H740 C753 0.961 . S
H741 C753 0.959 . S
H742 C756 0.929 . S
H743 C757 0.931 . S
H744 C759 0.930 . S
C745 H733 0.930 . S
C745 C746 1.399 . S
C745 C750 1.399 . S
C746 C745 1.399 . S
C746 C747 1.376 . S
C747 H734 0.930 . S
C747 C746 1.376 . S
C747 C748 1.388 . S
C748 H735 0.930 . S
C748 C747 1.388 . S
C748 C749 1.390 . S
C749 C748 1.390 . S
C749 C750 1.394 . S
C749 C755 1.465 1_565 S
C750 C745 1.399 . S
C750 C749 1.394 . S
C750 C751 1.516 . S
C751 C750 1.516 . S
C751 C752 1.502 . S
C751 C753 1.561 1_565 S
C751 C754 1.526 1_565 S
C752 H736 0.959 . S
C752 H737 0.959 . S
C752 H738 0.961 . S
C752 C751 1.502 . S
C753 H739 0.960 1_545 S
C753 H740 0.961 . S
C753 H741 0.959 . S
C753 C751 1.561 1_545 S
C754 C751 1.526 1_545 S
C754 C755 1.396 . S
C754 C759 1.390 . S
C755 C749 1.465 1_545 S
C755 C754 1.396 . S
C755 C756 1.399 . S
C756 H742 0.929 . S
C756 C755 1.399 . S
C756 C757 1.385 . S
C757 H743 0.931 . S
C757 C756 1.385 . S
C757 C758 1.389 . S
C758 C757 1.389 . S
C758 C759 1.387 . S
C759 H744 0.930 . S
C759 C754 1.390 . S
C759 C758 1.387 . S
H760 C772 0.930 . S
H761 C774 0.930 . S
H762 C775 0.930 . S
H763 C779 0.959 . S
H764 C779 0.959 . S
H765 C779 0.961 . S
H766 C780 0.960 . S
H767 C780 0.961 . S
H768 C780 0.959 . S
H769 C783 0.929 . S
H770 C784 0.931 . S
H771 C786 0.930 1_565 S
C772 H760 0.930 . S
C772 C773 1.399 . S
C772 C777 1.399 . S
C773 C772 1.399 . S
C773 C774 1.376 1_565 S
C774 H761 0.930 . S
C774 C773 1.376 1_545 S
C774 C775 1.388 . S
C775 H762 0.930 . S
C775 C774 1.388 . S
C775 C776 1.390 . S
C776 C775 1.390 . S
C776 C777 1.394 1_545 S
C776 C782 1.465 . S
C777 C772 1.399 . S
C777 C776 1.394 1_565 S
C777 C778 1.516 . S
C778 C777 1.516 . S
C778 C779 1.502 . S
C778 C780 1.561 . S
C778 C781 1.526 1_565 S
C779 H763 0.959 . S
C779 H764 0.959 . S
C779 H765 0.961 . S
C779 C778 1.502 . S
C780 H766 0.960 . S
C780 H767 0.961 . S
C780 H768 0.959 . S
C780 C778 1.561 . S
C781 C778 1.526 1_545 S
C781 C782 1.396 . S
C781 C786 1.390 . S
C782 C776 1.465 . S
C782 C781 1.396 . S
C782 C783 1.399 . S
C783 H769 0.929 . S
C783 C782 1.399 . S
C783 C784 1.385 . S
C784 H770 0.931 . S
C784 C783 1.385 . S
C784 C785 1.389 . S
C785 C784 1.389 . S
C785 C786 1.387 . S
C786 H771 0.930 1_545 S
C786 C781 1.390 . S
C786 C785 1.387 . S
H787 C799 0.930 . S
H788 C801 0.930 . S
H789 C802 0.930 . S
H790 C806 0.959 . S
H791 C806 0.959 . S
H792 C806 0.961 . S
H793 C807 0.960 . S
H794 C807 0.961 . S
H795 C807 0.959 . S
H796 C810 0.929 . S
H797 C811 0.931 . S
H798 C813 0.930 . S
C799 H787 0.930 . S
C799 C800 1.399 . S
C799 C804 1.399 . S
C800 C799 1.399 . S
C800 C801 1.376 . S
C801 H788 0.930 . S
C801 C800 1.376 . S
C801 C802 1.388 1_455 S
C802 H789 0.930 . S
C802 C801 1.388 1_655 S
C802 C803 1.390 . S
C803 C802 1.390 . S
C803 C804 1.394 1_655 S
C803 C809 1.465 . S
C804 C799 1.399 . S
C804 C803 1.394 1_455 S
C804 C805 1.512 1_455 S
C805 C804 1.512 1_655 S
C805 C806 1.475 1_655 S
C805 C807 1.583 . S
C805 C808 1.539 . S
C806 H790 0.959 . S
C806 H791 0.959 . S
C806 H792 0.961 . S
C806 C805 1.475 1_455 S
C807 H793 0.960 . S
C807 H794 0.961 . S
C807 H795 0.959 . S
C807 C805 1.583 . S
C808 C805 1.539 . S
C808 C809 1.396 . S
C808 C813 1.390 . S
C809 C803 1.465 . S
C809 C808 1.396 . S
C809 C810 1.399 . S
C810 H796 0.929 . S
C810 C809 1.399 . S
C810 C811 1.385 . S
C811 H797 0.931 . S
C811 C810 1.385 . S
C811 C812 1.389 . S
C812 C811 1.389 . S
C812 C813 1.387 . S
C813 H798 0.930 . S
C813 C808 1.390 . S
C813 C812 1.387 . S
H814 C826 0.930 . S
H815 C828 0.930 . S
H816 C829 0.930 . S
H817 C833 0.959 . S
H818 C833 0.959 . S
H819 C833 0.961 . S
H820 C834 0.960 . S
H821 C834 0.961 . S
H822 C834 0.959 . S
H823 C837 0.929 . S
H824 C838 0.931 . S
H825 C840 0.930 . S
C826 H814 0.930 . S
C826 C827 1.399 . S
C826 C831 1.399 . S
C827 C826 1.399 . S
C827 C828 1.376 . S
C828 H815 0.930 . S
C828 C827 1.376 . S
C828 C829 1.388 . S
C829 H816 0.930 . S
C829 C828 1.388 . S
C829 C830 1.390 . S
C830 C829 1.390 . S
C830 C831 1.394 . S
C830 C836 1.465 . S
C831 C826 1.399 . S
C831 C830 1.394 . S
C831 C832 1.516 . S
C832 C831 1.516 . S
C832 C833 1.502 . S
C832 C834 1.561 . S
C832 C835 1.526 . S
C833 H817 0.959 . S
C833 H818 0.959 . S
C833 H819 0.961 . S
C833 C832 1.502 . S
C834 H820 0.960 . S
C834 H821 0.961 . S
C834 H822 0.959 . S
C834 C832 1.561 . S
C835 C832 1.526 . S
C835 C836 1.396 . S
C835 C840 1.390 . S
C836 C830 1.465 . S
C836 C835 1.396 . S
C836 C837 1.399 . S
C837 H823 0.929 . S
C837 C836 1.399 . S
C837 C838 1.385 . S
C838 H824 0.931 . S
C838 C837 1.385 . S
C838 C839 1.389 . S
C839 C838 1.389 . S
C839 C840 1.387 . S
C840 H825 0.930 . S
C840 C835 1.390 . S
C840 C839 1.387 . S
H841 C853 0.930 . S
H842 C855 0.930 . S
H843 C856 0.930 . S
H844 C860 0.959 . S
H845 C860 0.959 . S
H846 C860 0.961 1_554 S
H847 C861 0.960 . S
H848 C861 0.961 1_556 S
H849 C861 0.959 . S
H850 C864 0.929 . S
H851 C865 0.931 . S
H852 C867 0.930 . S
C853 H841 0.930 . S
C853 C854 1.399 . S
C853 C858 1.399 . S
C854 C853 1.399 . S
C854 C855 1.376 . S
C855 H842 0.930 . S
C855 C854 1.376 . S
C855 C856 1.388 . S
C856 H843 0.930 . S
C856 C855 1.388 . S
C856 C857 1.390 . S
C857 C856 1.390 . S
C857 C858 1.394 . S
C857 C863 1.465 1_554 S
C858 C853 1.399 . S
C858 C857 1.394 . S
C858 C859 1.516 . S
C859 C858 1.516 . S
C859 C860 1.502 1_554 S
C859 C861 1.561 . S
C859 C862 1.526 1_554 S
C860 H844 0.959 . S
C860 H845 0.959 . S
C860 H846 0.961 1_556 S
C860 C859 1.502 1_556 S
C861 H847 0.960 . S
C861 H848 0.961 1_554 S
C861 H849 0.959 . S
C861 C859 1.561 . S
C862 C859 1.526 1_556 S
C862 C863 1.396 . S
C862 C867 1.390 . S
C863 C857 1.465 1_556 S
C863 C862 1.396 . S
C863 C864 1.399 . S
C864 H850 0.929 . S
C864 C863 1.399 . S
C864 C865 1.385 . S
C865 H851 0.931 . S
C865 C864 1.385 . S
C865 C866 1.389 . S
C866 C865 1.389 . S
C866 C867 1.387 . S
C867 H852 0.930 . S
C867 C862 1.390 . S
C867 C866 1.387 . S
H868 C880 0.930 . S
H869 C882 0.930 . S
H870 C883 0.930 . S
H871 C887 0.959 . S
H872 C887 0.983 . S
H873 C887 0.961 . S
H874 C888 0.960 . S
H875 C888 0.961 . S
H876 C888 0.959 . S
H877 C891 0.931 . S
H878 C892 0.931 . S
H879 C894 0.930 . S
C880 H868 0.930 . S
C880 C881 1.399 . S
C880 C885 1.399 . S
C881 C880 1.399 . S
C881 C882 1.376 . S
C882 H869 0.930 . S
C882 C881 1.376 . S
C882 C883 1.388 . S
C883 H870 0.930 . S
C883 C882 1.388 . S
C883 C884 1.390 . S
C884 C883 1.390 . S
C884 C885 1.394 . S
C884 C890 1.465 . S
C885 C880 1.399 . S
C885 C884 1.394 . S
C885 C886 1.516 1_545 S
C886 C885 1.516 1_565 S
C886 C887 1.502 1_565 S
C886 C888 1.561 . S
C886 C889 1.526 . S
C887 H871 0.959 . S
C887 H872 0.983 . S
C887 H873 0.961 . S
C887 C886 1.502 1_545 S
C888 H874 0.960 . S
C888 H875 0.961 . S
C888 H876 0.959 . S
C888 C886 1.561 . S
C889 C886 1.526 . S
C889 C890 1.396 1_565 S
C889 C894 1.390 . S
C890 C884 1.465 . S
C890 C889 1.396 1_545 S
C890 C891 1.399 . S
C891 H877 0.931 . S
C891 C890 1.399 . S
C891 C892 1.383 1_545 S
C892 H878 0.931 . S
C892 C891 1.383 1_565 S
C892 C893 1.389 . S
C893 C892 1.389 . S
C893 C894 1.387 . S
C894 H879 0.930 . S
C894 C889 1.390 . S
C894 C893 1.387 . S
H895 C907 0.930 . S
H896 C909 0.930 . S
H897 C910 0.930 . S
H898 C914 0.959 . S
H899 C914 0.959 . S
H900 C914 0.961 . S
H901 C915 0.960 1_556 S
H902 C915 0.961 . S
H903 C915 0.959 . S
H904 C918 0.929 . S
H905 C919 0.931 . S
H906 C921 0.930 . S
C907 H895 0.930 . S
C907 C908 1.399 . S
C907 C912 1.399 . S
C908 C907 1.399 . S
C908 C909 1.376 . S
C909 H896 0.930 . S
C909 C908 1.376 . S
C909 C910 1.388 . S
C910 H897 0.930 . S
C910 C909 1.388 . S
C910 C911 1.390 . S
C911 C910 1.390 . S
C911 C912 1.394 . S
C911 C917 1.465 1_556 S
C912 C907 1.399 . S
C912 C911 1.394 . S
C912 C913 1.516 1_655 S
C913 C912 1.516 1_455 S
C913 C914 1.502 . S
C913 C915 1.561 1_456 S
C913 C916 1.526 1_556 S
C914 H898 0.959 . S
C914 H899 0.959 . S
C914 H900 0.961 . S
C914 C913 1.502 . S
C915 H901 0.960 1_554 S
C915 H902 0.961 . S
C915 H903 0.959 . S
C915 C913 1.561 1_654 S
C916 C913 1.526 1_554 S
C916 C917 1.396 1_455 S
C916 C921 1.390 . S
C917 C911 1.465 1_554 S
C917 C916 1.396 1_655 S
C917 C918 1.399 . S
C918 H904 0.929 . S
C918 C917 1.399 . S
C918 C919 1.385 1_655 S
C919 H905 0.931 . S
C919 C918 1.385 1_455 S
C919 C920 1.389 . S
C920 C919 1.389 . S
C920 C921 1.387 . S
C921 H906 0.930 . S
C921 C916 1.390 . S
C921 C920 1.387 . S
H922 C934 0.930 . S
H923 C936 0.930 . S
H924 C937 0.930 . S
H925 C941 0.959 . S
H926 C941 0.959 . S
H927 C941 0.961 . S
H928 C942 0.960 . S
H929 C942 0.961 . S
H930 C942 0.959 . S
H931 C945 0.929 . S
H932 C946 0.931 . S
H933 C948 0.930 . S
C934 H922 0.930 . S
C934 C935 1.399 . S
C934 C939 1.399 . S
C935 C934 1.399 . S
C935 C936 1.376 . S
C936 H923 0.930 . S
C936 C935 1.376 . S
C936 C937 1.388 . S
C937 H924 0.930 . S
C937 C936 1.388 . S
C937 C938 1.390 . S
C938 C937 1.390 . S
C938 C939 1.394 . S
C938 C944 1.465 . S
C939 C934 1.399 . S
C939 C938 1.394 . S
C939 C940 1.516 . S
C940 C939 1.516 . S
C940 C941 1.502 . S
C940 C942 1.561 . S
C940 C943 1.526 . S
C941 H925 0.959 . S
C941 H926 0.959 . S
C941 H927 0.961 . S
C941 C940 1.502 . S
C942 H928 0.960 . S
C942 H929 0.961 . S
C942 H930 0.959 . S
C942 C940 1.561 . S
C943 C940 1.526 . S
C943 C944 1.396 . S
C943 C948 1.390 . S
C944 C938 1.465 . S
C944 C943 1.396 . S
C944 C945 1.399 . S
C945 H931 0.929 . S
C945 C944 1.399 . S
C945 C946 1.385 . S
C946 H932 0.931 . S
C946 C945 1.385 . S
C946 C947 1.389 . S
C947 C946 1.389 . S
C947 C948 1.387 . S
C948 H933 0.930 . S
C948 C943 1.390 . S
C948 C947 1.387 . S
H949 C961 0.930 . S
H950 C963 0.930 . S
H951 C964 0.930 . S
H952 C968 0.959 . S
H953 C968 0.959 . S
H954 C968 0.961 . S
H955 C969 0.960 . S
H956 C969 0.961 . S
H957 C969 0.959 . S
H958 C972 0.929 . S
H959 C973 0.931 . S
H960 C975 0.930 . S
C961 H949 0.930 . S
C961 C962 1.399 . S
C961 C966 1.399 . S
C962 C961 1.399 . S
C962 C963 1.376 . S
C963 H950 0.930 . S
C963 C962 1.376 . S
C963 C964 1.388 . S
C964 H951 0.930 . S
C964 C963 1.388 . S
C964 C965 1.390 . S
C965 C964 1.390 . S
C965 C966 1.394 . S
C965 C971 1.465 . S
C966 C961 1.399 . S
C966 C965 1.394 . S
C966 C967 1.516 . S
C967 C966 1.516 . S
C967 C968 1.502 . S
C967 C969 1.561 . S
C967 C970 1.526 . S
C968 H952 0.959 . S
C968 H953 0.959 . S
C968 H954 0.961 . S
C968 C967 1.502 . S
C969 H955 0.960 . S
C969 H956 0.961 . S
C969 H957 0.959 . S
C969 C967 1.561 . S
C970 C967 1.526 . S
C970 C971 1.396 . S
C970 C975 1.390 . S
C971 C965 1.465 . S
C971 C970 1.396 . S
C971 C972 1.399 . S
C972 H958 0.929 . S
C972 C971 1.399 . S
C972 C973 1.385 . S
C973 H959 0.931 . S
C973 C972 1.385 . S
C973 C974 1.389 . S
C974 C973 1.389 . S
C974 C975 1.387 . S
C975 H960 0.930 . S
C975 C970 1.390 . S
C975 C974 1.387 . S
H976 C988 0.930 . S
H977 C990 0.930 . S
H978 C991 0.930 . S
H979 C995 0.959 . S
H980 C995 0.959 . S
H981 C995 0.961 . S
H982 C996 0.960 . S
H983 C996 0.961 . S
H984 C996 0.959 . S
H985 C999 0.929 . S
H986 C1000 0.931 . S
H987 C1002 0.930 . S
C988 H976 0.930 . S
C988 C989 1.399 . S
C988 C993 1.399 . S
C989 C988 1.399 . S
C989 C990 1.376 . S
C990 H977 0.930 . S
C990 C989 1.376 . S
C990 C991 1.388 . S
C991 H978 0.930 . S
C991 C990 1.388 . S
C991 C992 1.390 . S
C992 C991 1.390 . S
C992 C993 1.394 . S
C992 C998 1.465 . S
C993 C988 1.399 . S
C993 C992 1.394 . S
C993 C994 1.516 . S
C994 C993 1.516 . S
C994 C995 1.502 . S
C994 C996 1.561 . S
C994 C997 1.526 . S
C995 H979 0.959 . S
C995 H980 0.959 . S
C995 H981 0.961 . S
C995 C994 1.502 . S
C996 H982 0.960 . S
C996 H983 0.961 . S
C996 H984 0.959 . S
C996 C994 1.561 . S
C997 C994 1.526 . S
C997 C998 1.396 . S
C997 C1002 1.390 . S
C998 C992 1.465 . S
C998 C997 1.396 . S
C998 C999 1.399 . S
C999 H985 0.929 . S
C999 C998 1.399 . S
C999 C1000 1.385 . S
C1000 H986 0.931 . S
C1000 C999 1.385 . S
C1000 C1001 1.389 . S
C1001 C1000 1.389 . S
C1001 C1002 1.387 . S
C1002 H987 0.930 . S
C1002 C997 1.390 . S
C1002 C1001 1.387 . S
H1003 C1015 0.930 . S
H1004 C1017 0.930 . S
H1005 C1018 0.930 . S
H1006 C1022 0.959 . S
H1007 C1022 0.959 1_556 S
H1008 C1022 0.961 . S
H1009 C1023 0.960 1_554 S
H1010 C1023 0.961 . S
H1011 C1023 0.959 . S
H1012 C1026 0.929 . S
H1013 C1027 0.931 . S
H1014 C1029 0.930 . S
C1015 H1003 0.930 . S
C1015 C1016 1.399 . S
C1015 C1020 1.399 . S
C1016 C1015 1.399 . S
C1016 C1017 1.376 . S
C1017 H1004 0.930 . S
C1017 C1016 1.376 . S
C1017 C1018 1.388 . S
C1018 H1005 0.930 . S
C1018 C1017 1.388 . S
C1018 C1019 1.390 . S
C1019 C1018 1.390 . S
C1019 C1020 1.394 . S
C1019 C1025 1.465 1_554 S
C1020 C1015 1.399 . S
C1020 C1019 1.394 . S
C1020 C1021 1.516 . S
C1021 C1020 1.516 . S
C1021 C1022 1.502 . S
C1021 C1023 1.561 1_554 S
C1021 C1024 1.526 1_554 S
C1022 H1006 0.959 . S
C1022 H1007 0.959 1_554 S
C1022 H1008 0.961 . S
C1022 C1021 1.502 . S
C1023 H1009 0.960 1_556 S
C1023 H1010 0.961 . S
C1023 H1011 0.959 . S
C1023 C1021 1.561 1_556 S
C1024 C1021 1.526 1_556 S
C1024 C1025 1.396 . S
C1024 C1029 1.390 . S
C1025 C1019 1.465 1_556 S
C1025 C1024 1.396 . S
C1025 C1026 1.399 . S
C1026 H1012 0.929 . S
C1026 C1025 1.399 . S
C1026 C1027 1.385 . S
C1027 H1013 0.931 . S
C1027 C1026 1.385 . S
C1027 C1028 1.389 . S
C1028 C1027 1.389 . S
C1028 C1029 1.387 . S
C1029 H1014 0.930 . S
C1029 C1024 1.390 . S
C1029 C1028 1.387 . S
H1030 C1042 0.930 . S
H1031 C1044 0.930 . S
H1032 C1045 0.930 . S
H1033 C1049 0.959 . S
H1034 C1049 0.959 . S
H1035 C1049 0.961 . S
H1036 C1050 0.960 . S
H1037 C1050 0.961 . S
H1038 C1050 0.959 . S
H1039 C1053 0.929 . S
H1040 C1054 0.931 . S
H1041 C1056 0.930 1_545 S
C1042 H1030 0.930 . S
C1042 C1043 1.399 . S
C1042 C1047 1.399 . S
C1043 C1042 1.399 . S
C1043 C1044 1.376 1_545 S
C1044 H1031 0.930 . S
C1044 C1043 1.376 1_565 S
C1044 C1045 1.388 . S
C1045 H1032 0.930 . S
C1045 C1044 1.388 . S
C1045 C1046 1.390 . S
C1046 C1045 1.390 . S
C1046 C1047 1.394 1_565 S
C1046 C1052 1.465 . S
C1047 C1042 1.399 . S
C1047 C1046 1.394 1_545 S
C1047 C1048 1.516 . S
C1048 C1047 1.516 . S
C1048 C1049 1.502 . S
C1048 C1050 1.561 . S
C1048 C1051 1.526 1_545 S
C1049 H1033 0.959 . S
C1049 H1034 0.959 . S
C1049 H1035 0.961 . S
C1049 C1048 1.502 . S
C1050 H1036 0.960 . S
C1050 H1037 0.961 . S
C1050 H1038 0.959 . S
C1050 C1048 1.561 . S
C1051 C1048 1.526 1_565 S
C1051 C1052 1.396 . S
C1051 C1056 1.390 . S
C1052 C1046 1.465 . S
C1052 C1051 1.396 . S
C1052 C1053 1.399 . S
C1053 H1039 0.929 . S
C1053 C1052 1.399 . S
C1053 C1054 1.385 . S
C1054 H1040 0.931 . S
C1054 C1053 1.385 . S
C1054 C1055 1.389 . S
C1055 C1054 1.389 . S
C1055 C1056 1.387 . S
C1056 H1041 0.930 1_565 S
C1056 C1051 1.390 . S
C1056 C1055 1.387 . S
H1057 C1069 0.930 . S
H1058 C1071 0.930 . S
H1059 C1072 0.930 . S
H1060 C1076 0.959 1_455 S
H1061 C1076 0.959 . S
H1062 C1076 0.961 . S
H1063 C1077 0.960 . S
H1064 C1077 0.961 . S
H1065 C1077 0.959 . S
H1066 C1080 0.929 . S
H1067 C1081 0.925 1_455 S
H1068 C1083 0.930 . S
C1069 H1057 0.930 . S
C1069 C1070 1.399 . S
C1069 C1074 1.399 . S
C1070 C1069 1.399 . S
C1070 C1071 1.376 . S
C1071 H1058 0.930 . S
C1071 C1070 1.376 . S
C1071 C1072 1.388 . S
C1072 H1059 0.930 . S
C1072 C1071 1.388 . S
C1072 C1073 1.390 . S
C1073 C1072 1.390 . S
C1073 C1074 1.394 . S
C1073 C1079 1.465 . S
C1074 C1069 1.399 . S
C1074 C1073 1.394 . S
C1074 C1075 1.516 1_455 S
C1075 C1074 1.516 1_655 S
C1075 C1076 1.502 . S
C1075 C1077 1.561 . S
C1075 C1078 1.526 . S
C1076 H1060 0.959 1_655 S
C1076 H1061 0.959 . S
C1076 H1062 0.961 . S
C1076 C1075 1.502 . S
C1077 H1063 0.960 . S
C1077 H1064 0.961 . S
C1077 H1065 0.959 . S
C1077 C1075 1.561 . S
C1078 C1075 1.526 . S
C1078 C1079 1.396 1_655 S
C1078 C1083 1.390 . S
C1079 C1073 1.465 . S
C1079 C1078 1.396 1_455 S
C1079 C1080 1.399 . S
C1080 H1066 0.929 . S
C1080 C1079 1.399 . S
C1080 C1081 1.385 1_455 S
C1081 H1067 0.925 1_655 S
C1081 C1080 1.385 1_655 S
C1081 C1082 1.389 . S
C1082 C1081 1.389 . S
C1082 C1083 1.387 . S
C1083 H1068 0.930 . S
C1083 C1078 1.390 . S
C1083 C1082 1.387 . S
H1084 C1096 0.930 . S
H1085 C1098 0.930 . S
H1086 C1099 0.930 . S
H1087 C1103 0.959 . S
H1088 C1103 0.959 . S
H1089 C1103 0.961 . S
H1090 C1104 0.960 . S
H1091 C1104 0.961 . S
H1092 C1104 0.959 . S
H1093 C1107 0.929 . S
H1094 C1108 0.931 . S
H1095 C1110 0.930 . S
C1096 H1084 0.930 . S
C1096 C1097 1.399 . S
C1096 C1101 1.399 . S
C1097 C1096 1.399 . S
C1097 C1098 1.376 . S
C1098 H1085 0.930 . S
C1098 C1097 1.376 . S
C1098 C1099 1.388 . S
C1099 H1086 0.930 . S
C1099 C1098 1.388 . S
C1099 C1100 1.390 . S
C1100 C1099 1.390 . S
C1100 C1101 1.394 . S
C1100 C1106 1.465 . S
C1101 C1096 1.399 . S
C1101 C1100 1.394 . S
C1101 C1102 1.516 . S
C1102 C1101 1.516 . S
C1102 C1103 1.502 . S
C1102 C1104 1.561 . S
C1102 C1105 1.526 . S
C1103 H1087 0.959 . S
C1103 H1088 0.959 . S
C1103 H1089 0.961 . S
C1103 C1102 1.502 . S
C1104 H1090 0.960 . S
C1104 H1091 0.961 . S
C1104 H1092 0.959 . S
C1104 C1102 1.561 . S
C1105 C1102 1.526 . S
C1105 C1106 1.396 . S
C1105 C1110 1.390 . S
C1106 C1100 1.465 . S
C1106 C1105 1.396 . S
C1106 C1107 1.399 . S
C1107 H1093 0.929 . S
C1107 C1106 1.399 . S
C1107 C1108 1.385 . S
C1108 H1094 0.931 . S
C1108 C1107 1.385 . S
C1108 C1109 1.389 . S
C1109 C1108 1.389 . S
C1109 C1110 1.387 . S
C1110 H1095 0.930 . S
C1110 C1105 1.390 . S
C1110 C1109 1.387 . S
H1111 C1123 0.930 . S
H1112 C1125 0.930 . S
H1113 C1126 0.930 . S
H1114 C1130 0.959 . S
H1115 C1130 0.959 . S
H1116 C1130 0.961 . S
H1117 C1131 0.960 . S
H1118 C1131 0.961 . S
H1119 C1131 0.959 . S
H1120 C1134 0.929 . S
H1121 C1135 0.931 . S
H1122 C1137 0.930 . S
C1123 H1111 0.930 . S
C1123 C1124 1.399 . S
C1123 C1128 1.399 . S
C1124 C1123 1.399 . S
C1124 C1125 1.376 . S
C1125 H1112 0.930 . S
C1125 C1124 1.376 . S
C1125 C1126 1.388 . S
C1126 H1113 0.930 . S
C1126 C1125 1.388 . S
C1126 C1127 1.390 . S
C1127 C1126 1.390 . S
C1127 C1128 1.394 . S
C1127 C1133 1.465 . S
C1128 C1123 1.399 . S
C1128 C1127 1.394 . S
C1128 C1129 1.516 . S
C1129 C1128 1.516 . S
C1129 C1130 1.502 . S
C1129 C1131 1.561 . S
C1129 C1132 1.526 . S
C1130 H1114 0.959 . S
C1130 H1115 0.959 . S
C1130 H1116 0.961 . S
C1130 C1129 1.502 . S
C1131 H1117 0.960 . S
C1131 H1118 0.961 . S
C1131 H1119 0.959 . S
C1131 C1129 1.561 . S
C1132 C1129 1.526 . S
C1132 C1133 1.396 . S
C1132 C1137 1.390 . S
C1133 C1127 1.465 . S
C1133 C1132 1.396 . S
C1133 C1134 1.399 . S
C1134 H1120 0.929 . S
C1134 C1133 1.399 . S
C1134 C1135 1.385 . S
C1135 H1121 0.931 . S
C1135 C1134 1.385 . S
C1135 C1136 1.389 . S
C1136 C1135 1.389 . S
C1136 C1137 1.387 . S
C1137 H1122 0.930 . S
C1137 C1132 1.390 . S
C1137 C1136 1.387 . S
H1138 C1150 0.930 1_545 S
H1139 C1152 0.930 . S
H1140 C1153 0.930 . S
H1141 C1157 0.959 . S
H1142 C1157 0.959 . S
H1143 C1157 0.961 . S
H1144 C1158 0.960 . S
H1145 C1158 0.961 . S
H1146 C1158 0.959 . S
H1147 C1161 0.929 . S
H1148 C1162 0.931 . S
H1149 C1164 0.930 . S
C1150 H1138 0.930 1_565 S
C1150 C1151 1.399 . S
C1150 C1155 1.399 . S
C1151 C1150 1.399 . S
C1151 C1152 1.376 . S
C1152 H1139 0.930 . S
C1152 C1151 1.376 . S
C1152 C1153 1.388 . S
C1153 H1140 0.930 . S
C1153 C1152 1.388 . S
C1153 C1154 1.390 . S
C1154 C1153 1.390 . S
C1154 C1155 1.394 . S
C1154 C1160 1.465 . S
C1155 C1150 1.399 . S
C1155 C1154 1.394 . S
C1155 C1156 1.516 1_565 S
C1156 C1155 1.516 1_545 S
C1156 C1157 1.502 . S
C1156 C1158 1.561 . S
C1156 C1159 1.526 . S
C1157 H1141 0.959 . S
C1157 H1142 0.959 . S
C1157 H1143 0.961 . S
C1157 C1156 1.502 . S
C1158 H1144 0.960 . S
C1158 H1145 0.961 . S
C1158 H1146 0.959 . S
C1158 C1156 1.561 . S
C1159 C1156 1.526 . S
C1159 C1160 1.396 1_545 S
C1159 C1164 1.390 . S
C1160 C1154 1.465 . S
C1160 C1159 1.396 1_565 S
C1160 C1161 1.399 . S
C1161 H1147 0.929 . S
C1161 C1160 1.399 . S
C1161 C1162 1.385 . S
C1162 H1148 0.931 . S
C1162 C1161 1.385 . S
C1162 C1163 1.389 1_565 S
C1163 C1162 1.389 1_545 S
C1163 C1164 1.387 . S
C1164 H1149 0.930 . S
C1164 C1159 1.390 . S
C1164 C1163 1.387 . S
H1165 C1177 0.947 . S
H1166 C1179 0.930 . S
H1167 C1180 0.930 . S
H1168 C1184 0.959 . S
H1169 C1184 0.959 . S
H1170 C1184 0.961 . S
H1171 C1185 0.960 . S
H1172 C1185 0.961 1_556 S
H1173 C1185 0.959 1_556 S
H1174 C1188 0.929 . S
H1175 C1189 0.931 . S
H1176 C1191 0.930 . S
C1177 H1165 0.947 . S
C1177 C1178 1.377 1_455 S
C1177 C1182 1.404 . S
C1178 C1177 1.377 1_655 S
C1178 C1179 1.376 . S
C1179 H1166 0.930 . S
C1179 C1178 1.376 . S
C1179 C1180 1.388 . S
C1180 H1167 0.930 . S
C1180 C1179 1.388 . S
C1180 C1181 1.390 . S
C1181 C1180 1.390 . S
C1181 C1182 1.394 1_655 S
C1181 C1187 1.460 1_654 S
C1182 C1177 1.404 . S
C1182 C1181 1.394 1_455 S
C1182 C1183 1.516 . S
C1183 C1182 1.516 . S
C1183 C1184 1.502 . S
C1183 C1185 1.561 . S
C1183 C1186 1.526 1_554 S
C1184 H1168 0.959 . S
C1184 H1169 0.959 . S
C1184 H1170 0.961 . S
C1184 C1183 1.502 . S
C1185 H1171 0.960 . S
C1185 H1172 0.961 1_554 S
C1185 H1173 0.959 1_554 S
C1185 C1183 1.561 . S
C1186 C1183 1.526 1_556 S
C1186 C1187 1.408 . S
C1186 C1191 1.390 . S
C1187 C1181 1.460 1_456 S
C1187 C1186 1.408 . S
C1187 C1188 1.394 1_455 S
C1188 H1174 0.929 . S
C1188 C1187 1.394 1_655 S
C1188 C1189 1.385 1_655 S
C1189 H1175 0.931 . S
C1189 C1188 1.385 1_455 S
C1189 C1190 1.389 . S
C1190 C1189 1.389 . S
C1190 C1191 1.387 . S
C1191 H1176 0.930 . S
C1191 C1186 1.390 . S
C1191 C1190 1.387 . S
H1192 C1204 0.930 . S
H1193 C1206 0.930 . S
H1194 C1207 0.930 . S
H1195 C1211 0.959 . S
H1196 C1211 0.959 . S
H1197 C1211 0.961 . S
H1198 C1212 0.960 . S
H1199 C1212 0.961 . S
H1200 C1212 0.959 . S
H1201 C1215 0.929 . S
H1202 C1216 0.931 . S
H1203 C1218 0.930 . S
C1204 H1192 0.930 . S
C1204 C1205 1.399 . S
C1204 C1209 1.399 . S
C1205 C1204 1.399 . S
C1205 C1206 1.376 . S
C1206 H1193 0.930 . S
C1206 C1205 1.376 . S
C1206 C1207 1.388 . S
C1207 H1194 0.930 . S
C1207 C1206 1.388 . S
C1207 C1208 1.390 . S
C1208 C1207 1.390 . S
C1208 C1209 1.394 . S
C1208 C1214 1.465 . S
C1209 C1204 1.399 . S
C1209 C1208 1.394 . S
C1209 C1210 1.516 . S
C1210 C1209 1.516 . S
C1210 C1211 1.502 . S
C1210 C1212 1.561 . S
C1210 C1213 1.526 . S
C1211 H1195 0.959 . S
C1211 H1196 0.959 . S
C1211 H1197 0.961 . S
C1211 C1210 1.502 . S
C1212 H1198 0.960 . S
C1212 H1199 0.961 . S
C1212 H1200 0.959 . S
C1212 C1210 1.561 . S
C1213 C1210 1.526 . S
C1213 C1214 1.396 . S
C1213 C1218 1.390 . S
C1214 C1208 1.465 . S
C1214 C1213 1.396 . S
C1214 C1215 1.399 . S
C1215 H1201 0.929 . S
C1215 C1214 1.399 . S
C1215 C1216 1.385 . S
C1216 H1202 0.931 . S
C1216 C1215 1.385 . S
C1216 C1217 1.389 . S
C1217 C1216 1.389 . S
C1217 C1218 1.387 . S
C1218 H1203 0.930 . S
C1218 C1213 1.390 . S
C1218 C1217 1.387 . S
H1219 C1231 0.930 . S
H1220 C1233 0.930 . S
H1221 C1234 0.930 . S
H1222 C1238 0.959 . S
H1223 C1238 0.959 . S
H1224 C1238 0.961 . S
H1225 C1239 0.960 . S
H1226 C1239 0.961 . S
H1227 C1239 0.959 . S
H1228 C1242 0.929 . S
H1229 C1243 0.931 . S
H1230 C1245 0.930 . S
C1231 H1219 0.930 . S
C1231 C1232 1.399 . S
C1231 C1236 1.399 . S
C1232 C1231 1.399 . S
C1232 C1233 1.376 . S
C1233 H1220 0.930 . S
C1233 C1232 1.376 . S
C1233 C1234 1.388 . S
C1234 H1221 0.930 . S
C1234 C1233 1.388 . S
C1234 C1235 1.390 . S
C1235 C1234 1.390 . S
C1235 C1236 1.394 . S
C1235 C1241 1.465 . S
C1236 C1231 1.399 . S
C1236 C1235 1.394 . S
C1236 C1237 1.516 . S
C1237 C1236 1.516 . S
C1237 C1238 1.502 . S
C1237 C1239 1.561 . S
C1237 C1240 1.526 . S
C1238 H1222 0.959 . S
C1238 H1223 0.959 . S
C1238 H1224 0.961 . S
C1238 C1237 1.502 . S
C1239 H1225 0.960 . S
C1239 H1226 0.961 . S
C1239 H1227 0.959 . S
C1239 C1237 1.561 . S
C1240 C1237 1.526 . S
C1240 C1241 1.396 . S
C1240 C1245 1.390 . S
C1241 C1235 1.465 . S
C1241 C1240 1.396 . S
C1241 C1242 1.399 . S
C1242 H1228 0.929 . S
C1242 C1241 1.399 . S
C1242 C1243 1.385 . S
C1243 H1229 0.931 . S
C1243 C1242 1.385 . S
C1243 C1244 1.389 . S
C1244 C1243 1.389 . S
C1244 C1245 1.387 . S
C1245 H1230 0.930 . S
C1245 C1240 1.390 . S
C1245 C1244 1.387 . S
H1246 C1258 0.930 . S
H1247 C1260 0.930 . S
H1248 C1261 0.930 . S
H1249 C1265 0.959 . S
H1250 C1265 0.959 . S
H1251 C1265 0.961 . S
H1252 C1266 0.960 . S
H1253 C1266 0.961 . S
H1254 C1266 0.959 . S
H1255 C1269 0.929 . S
H1256 C1270 0.931 . S
H1257 C1272 0.930 . S
C1258 H1246 0.930 . S
C1258 C1259 1.399 . S
C1258 C1263 1.399 . S
C1259 C1258 1.399 . S
C1259 C1260 1.376 . S
C1260 H1247 0.930 . S
C1260 C1259 1.376 . S
C1260 C1261 1.388 . S
C1261 H1248 0.930 . S
C1261 C1260 1.388 . S
C1261 C1262 1.390 . S
C1262 C1261 1.390 . S
C1262 C1263 1.394 . S
C1262 C1268 1.465 . S
C1263 C1258 1.399 . S
C1263 C1262 1.394 . S
C1263 C1264 1.516 . S
C1264 C1263 1.516 . S
C1264 C1265 1.502 . S
C1264 C1266 1.561 . S
C1264 C1267 1.526 . S
C1265 H1249 0.959 . S
C1265 H1250 0.959 . S
C1265 H1251 0.961 . S
C1265 C1264 1.502 . S
C1266 H1252 0.960 . S
C1266 H1253 0.961 . S
C1266 H1254 0.959 . S
C1266 C1264 1.561 . S
C1267 C1264 1.526 . S
C1267 C1268 1.396 . S
C1267 C1272 1.390 . S
C1268 C1262 1.465 . S
C1268 C1267 1.396 . S
C1268 C1269 1.399 . S
C1269 H1255 0.929 . S
C1269 C1268 1.399 . S
C1269 C1270 1.385 . S
C1270 H1256 0.931 . S
C1270 C1269 1.385 . S
C1270 C1271 1.389 . S
C1271 C1270 1.389 . S
C1271 C1272 1.387 . S
C1272 H1257 0.930 . S
C1272 C1267 1.390 . S
C1272 C1271 1.387 . S
H1273 C1285 0.930 . S
H1274 C1287 0.930 . S
H1275 C1288 0.930 . S
H1276 C1292 0.959 . S
H1277 C1292 0.959 . S
H1278 C1292 0.961 . S
H1279 C1293 0.960 . S
H1280 C1293 0.961 . S
H1281 C1293 0.959 . S
H1282 C1296 0.929 . S
H1283 C1297 0.931 . S
H1284 C1299 0.930 . S
C1285 H1273 0.930 . S
C1285 C1286 1.399 . S
C1285 C1290 1.399 . S
C1286 C1285 1.399 . S
C1286 C1287 1.376 . S
C1287 H1274 0.930 . S
C1287 C1286 1.376 . S
C1287 C1288 1.388 . S
C1288 H1275 0.930 . S
C1288 C1287 1.388 . S
C1288 C1289 1.390 . S
C1289 C1288 1.390 . S
C1289 C1290 1.394 . S
C1289 C1295 1.465 . S
C1290 C1285 1.399 . S
C1290 C1289 1.394 . S
C1290 C1291 1.516 . S
C1291 C1290 1.516 . S
C1291 C1292 1.502 . S
C1291 C1293 1.561 . S
C1291 C1294 1.526 . S
C1292 H1276 0.959 . S
C1292 H1277 0.959 . S
C1292 H1278 0.961 . S
C1292 C1291 1.502 . S
C1293 H1279 0.960 . S
C1293 H1280 0.961 . S
C1293 H1281 0.959 . S
C1293 C1291 1.561 . S
C1294 C1291 1.526 . S
C1294 C1295 1.396 . S
C1294 C1299 1.390 . S
C1295 C1289 1.465 . S
C1295 C1294 1.396 . S
C1295 C1296 1.399 . S
C1296 H1282 0.929 . S
C1296 C1295 1.399 . S
C1296 C1297 1.385 . S
C1297 H1283 0.931 . S
C1297 C1296 1.385 . S
C1297 C1298 1.389 . S
C1298 C1297 1.389 . S
C1298 C1299 1.387 . S
C1299 H1284 0.930 . S
C1299 C1294 1.390 . S
C1299 C1298 1.387 . S
H1300 C1312 0.930 . S
H1301 C1314 0.930 . S
H1302 C1315 0.930 . S
H1303 C1319 0.959 . S
H1304 C1319 0.959 . S
H1305 C1319 0.961 . S
H1306 C1320 0.960 . S
H1307 C1320 0.961 . S
H1308 C1320 0.959 . S
H1309 C1323 0.929 . S
H1310 C1324 0.931 . S
H1311 C1326 0.930 . S
C1312 H1300 0.930 . S
C1312 C1313 1.399 . S
C1312 C1317 1.399 . S
C1313 C1312 1.399 . S
C1313 C1314 1.376 . S
C1314 H1301 0.930 . S
C1314 C1313 1.376 . S
C1314 C1315 1.388 . S
C1315 H1302 0.930 . S
C1315 C1314 1.388 . S
C1315 C1316 1.390 . S
C1316 C1315 1.390 . S
C1316 C1317 1.394 . S
C1316 C1322 1.465 . S
C1317 C1312 1.399 . S
C1317 C1316 1.394 . S
C1317 C1318 1.516 . S
C1318 C1317 1.516 . S
C1318 C1319 1.502 . S
C1318 C1320 1.561 . S
C1318 C1321 1.526 . S
C1319 H1303 0.959 . S
C1319 H1304 0.959 . S
C1319 H1305 0.961 . S
C1319 C1318 1.502 . S
C1320 H1306 0.960 . S
C1320 H1307 0.961 . S
C1320 H1308 0.959 . S
C1320 C1318 1.561 . S
C1321 C1318 1.526 . S
C1321 C1322 1.396 . S
C1321 C1326 1.390 . S
C1322 C1316 1.465 . S
C1322 C1321 1.396 . S
C1322 C1323 1.399 . S
C1323 H1309 0.929 . S
C1323 C1322 1.399 . S
C1323 C1324 1.385 . S
C1324 H1310 0.931 . S
C1324 C1323 1.385 . S
C1324 C1325 1.389 . S
C1325 C1324 1.389 . S
C1325 C1326 1.387 . S
C1326 H1311 0.930 . S
C1326 C1321 1.390 . S
C1326 C1325 1.387 . S
H1327 C1339 0.930 . S
H1328 C1341 0.930 . S
H1329 C1342 0.930 . S
H1330 C1346 0.959 . S
H1331 C1346 0.959 . S
H1332 C1346 0.961 . S
H1333 C1347 0.960 . S
H1334 C1347 0.961 . S
H1335 C1347 0.959 . S
H1336 C1350 0.929 . S
H1337 C1351 0.931 . S
H1338 C1353 0.930 . S
C1339 H1327 0.930 . S
C1339 C1340 1.399 . S
C1339 C1344 1.399 . S
C1340 C1339 1.399 . S
C1340 C1341 1.376 . S
C1341 H1328 0.930 . S
C1341 C1340 1.376 . S
C1341 C1342 1.388 . S
C1342 H1329 0.930 . S
C1342 C1341 1.388 . S
C1342 C1343 1.390 . S
C1343 C1342 1.390 . S
C1343 C1344 1.394 . S
C1343 C1349 1.465 . S
C1344 C1339 1.399 . S
C1344 C1343 1.394 . S
C1344 C1345 1.516 . S
C1345 C1344 1.516 . S
C1345 C1346 1.502 . S
C1345 C1347 1.561 . S
C1345 C1348 1.526 . S
C1346 H1330 0.959 . S
C1346 H1331 0.959 . S
C1346 H1332 0.961 . S
C1346 C1345 1.502 . S
C1347 H1333 0.960 . S
C1347 H1334 0.961 . S
C1347 H1335 0.959 . S
C1347 C1345 1.561 . S
C1348 C1345 1.526 . S
C1348 C1349 1.396 . S
C1348 C1353 1.390 . S
C1349 C1343 1.465 . S
C1349 C1348 1.396 . S
C1349 C1350 1.399 . S
C1350 H1336 0.929 . S
C1350 C1349 1.399 . S
C1350 C1351 1.385 . S
C1351 H1337 0.931 . S
C1351 C1350 1.385 . S
C1351 C1352 1.389 . S
C1352 C1351 1.389 . S
C1352 C1353 1.387 . S
C1353 H1338 0.930 . S
C1353 C1348 1.390 . S
C1353 C1352 1.387 . S
H1354 C1366 0.930 . S
H1355 C1368 0.930 . S
H1356 C1369 0.930 . S
H1357 C1373 0.959 . S
H1358 C1373 0.959 . S
H1359 C1373 0.961 . S
H1360 C1374 0.960 . S
H1361 C1374 0.961 . S
H1362 C1374 0.959 . S
H1363 C1377 0.929 . S
H1364 C1378 0.931 . S
H1365 C1380 0.930 . S
C1366 H1354 0.930 . S
C1366 C1367 1.399 . S
C1366 C1371 1.399 . S
C1367 C1366 1.399 . S
C1367 C1368 1.376 . S
C1368 H1355 0.930 . S
C1368 C1367 1.376 . S
C1368 C1369 1.388 . S
C1369 H1356 0.930 . S
C1369 C1368 1.388 . S
C1369 C1370 1.390 . S
C1370 C1369 1.390 . S
C1370 C1371 1.394 . S
C1370 C1376 1.465 . S
C1371 C1366 1.399 . S
C1371 C1370 1.394 . S
C1371 C1372 1.516 . S
C1372 C1371 1.516 . S
C1372 C1373 1.502 . S
C1372 C1374 1.561 . S
C1372 C1375 1.526 . S
C1373 H1357 0.959 . S
C1373 H1358 0.959 . S
C1373 H1359 0.961 . S
C1373 C1372 1.502 . S
C1374 H1360 0.960 . S
C1374 H1361 0.961 . S
C1374 H1362 0.959 . S
C1374 C1372 1.561 . S
C1375 C1372 1.526 . S
C1375 C1376 1.396 . S
C1375 C1380 1.390 . S
C1376 C1370 1.465 . S
C1376 C1375 1.396 . S
C1376 C1377 1.399 . S
C1377 H1363 0.929 . S
C1377 C1376 1.399 . S
C1377 C1378 1.385 . S
C1378 H1364 0.931 . S
C1378 C1377 1.385 . S
C1378 C1379 1.389 . S
C1379 C1378 1.389 . S
C1379 C1380 1.387 . S
C1380 H1365 0.930 . S
C1380 C1375 1.390 . S
C1380 C1379 1.387 . S
H1381 C1393 0.930 . S
H1382 C1395 0.930 . S
H1383 C1396 0.930 . S
H1384 C1400 0.959 . S
H1385 C1400 0.959 . S
H1386 C1400 0.961 . S
H1387 C1401 0.960 . S
H1388 C1401 0.961 . S
H1389 C1401 0.959 . S
H1390 C1404 0.929 . S
H1391 C1405 0.931 . S
H1392 C1407 0.930 . S
C1393 H1381 0.930 . S
C1393 C1394 1.399 . S
C1393 C1398 1.399 . S
C1394 C1393 1.399 . S
C1394 C1395 1.376 . S
C1395 H1382 0.930 . S
C1395 C1394 1.376 . S
C1395 C1396 1.388 . S
C1396 H1383 0.930 . S
C1396 C1395 1.388 . S
C1396 C1397 1.390 . S
C1397 C1396 1.390 . S
C1397 C1398 1.394 . S
C1397 C1403 1.465 . S
C1398 C1393 1.399 . S
C1398 C1397 1.394 . S
C1398 C1399 1.516 . S
C1399 C1398 1.516 . S
C1399 C1400 1.502 . S
C1399 C1401 1.561 . S
C1399 C1402 1.526 . S
C1400 H1384 0.959 . S
C1400 H1385 0.959 . S
C1400 H1386 0.961 . S
C1400 C1399 1.502 . S
C1401 H1387 0.960 . S
C1401 H1388 0.961 . S
C1401 H1389 0.959 . S
C1401 C1399 1.561 . S
C1402 C1399 1.526 . S
C1402 C1403 1.396 . S
C1402 C1407 1.390 . S
C1403 C1397 1.465 . S
C1403 C1402 1.396 . S
C1403 C1404 1.399 . S
C1404 H1390 0.929 . S
C1404 C1403 1.399 . S
C1404 C1405 1.385 . S
C1405 H1391 0.931 . S
C1405 C1404 1.385 . S
C1405 C1406 1.389 . S
C1406 C1405 1.389 . S
C1406 C1407 1.387 . S
C1407 H1392 0.930 . S
C1407 C1402 1.390 . S
C1407 C1406 1.387 . S
H1408 C1420 0.930 . S
H1409 C1422 0.930 . S
H1410 C1423 0.930 . S
H1411 C1427 0.959 . S
H1412 C1427 0.959 . S
H1413 C1427 0.961 . S
H1414 C1428 0.960 . S
H1415 C1428 0.961 . S
H1416 C1428 0.959 . S
H1417 C1431 0.929 . S
H1418 C1432 0.931 . S
H1419 C1434 0.930 . S
C1420 H1408 0.930 . S
C1420 C1421 1.399 . S
C1420 C1425 1.399 . S
C1421 C1420 1.399 . S
C1421 C1422 1.376 . S
C1422 H1409 0.930 . S
C1422 C1421 1.376 . S
C1422 C1423 1.388 . S
C1423 H1410 0.930 . S
C1423 C1422 1.388 . S
C1423 C1424 1.390 . S
C1424 C1423 1.390 . S
C1424 C1425 1.394 . S
C1424 C1430 1.465 . S
C1425 C1420 1.399 . S
C1425 C1424 1.394 . S
C1425 C1426 1.516 . S
C1426 C1425 1.516 . S
C1426 C1427 1.502 . S
C1426 C1428 1.561 . S
C1426 C1429 1.526 . S
C1427 H1411 0.959 . S
C1427 H1412 0.959 . S
C1427 H1413 0.961 . S
C1427 C1426 1.502 . S
C1428 H1414 0.960 . S
C1428 H1415 0.961 . S
C1428 H1416 0.959 . S
C1428 C1426 1.561 . S
C1429 C1426 1.526 . S
C1429 C1430 1.396 . S
C1429 C1434 1.390 . S
C1430 C1424 1.465 . S
C1430 C1429 1.396 . S
C1430 C1431 1.399 . S
C1431 H1417 0.929 . S
C1431 C1430 1.399 . S
C1431 C1432 1.385 . S
C1432 H1418 0.931 . S
C1432 C1431 1.385 . S
C1432 C1433 1.389 . S
C1433 C1432 1.389 . S
C1433 C1434 1.387 . S
C1434 H1419 0.930 . S
C1434 C1429 1.390 . S
C1434 C1433 1.387 . S
H1435 C1447 0.930 . S
H1436 C1449 0.930 . S
H1437 C1450 0.930 . S
H1438 C1454 0.959 . S
H1439 C1454 0.959 . S
H1440 C1454 0.961 . S
H1441 C1455 0.960 . S
H1442 C1455 0.961 . S
H1443 C1455 0.959 . S
H1444 C1458 0.929 . S
H1445 C1459 0.931 . S
H1446 C1461 0.930 . S
C1447 H1435 0.930 . S
C1447 C1448 1.399 . S
C1447 C1452 1.399 . S
C1448 C1447 1.399 . S
C1448 C1449 1.376 . S
C1449 H1436 0.930 . S
C1449 C1448 1.376 . S
C1449 C1450 1.388 . S
C1450 H1437 0.930 . S
C1450 C1449 1.388 . S
C1450 C1451 1.390 . S
C1451 C1450 1.390 . S
C1451 C1452 1.394 . S
C1451 C1457 1.465 . S
C1452 C1447 1.399 . S
C1452 C1451 1.394 . S
C1452 C1453 1.516 . S
C1453 C1452 1.516 . S
C1453 C1454 1.502 . S
C1453 C1455 1.561 . S
C1453 C1456 1.526 . S
C1454 H1438 0.959 . S
C1454 H1439 0.959 . S
C1454 H1440 0.961 . S
C1454 C1453 1.502 . S
C1455 H1441 0.960 . S
C1455 H1442 0.961 . S
C1455 H1443 0.959 . S
C1455 C1453 1.561 . S
C1456 C1453 1.526 . S
C1456 C1457 1.396 . S
C1456 C1461 1.390 . S
C1457 C1451 1.465 . S
C1457 C1456 1.396 . S
C1457 C1458 1.399 . S
C1458 H1444 0.929 . S
C1458 C1457 1.399 . S
C1458 C1459 1.385 . S
C1459 H1445 0.931 . S
C1459 C1458 1.385 . S
C1459 C1460 1.389 . S
C1460 C1459 1.389 . S
C1460 C1461 1.387 . S
C1461 H1446 0.930 . S
C1461 C1456 1.390 . S
C1461 C1460 1.387 . S
H1462 C1474 0.930 . S
H1463 C1476 0.930 . S
H1464 C1477 0.930 . S
H1465 C1481 0.959 . S
H1466 C1481 0.959 . S
H1467 C1481 0.961 . S
H1468 C1482 0.960 . S
H1469 C1482 0.961 . S
H1470 C1482 0.959 . S
H1471 C1485 0.929 . S
H1472 C1486 0.931 . S
H1473 C1488 0.930 . S
C1474 H1462 0.930 . S
C1474 C1475 1.399 . S
C1474 C1479 1.399 . S
C1475 C1474 1.399 . S
C1475 C1476 1.376 . S
C1476 H1463 0.930 . S
C1476 C1475 1.376 . S
C1476 C1477 1.388 . S
C1477 H1464 0.930 . S
C1477 C1476 1.388 . S
C1477 C1478 1.390 . S
C1478 C1477 1.390 . S
C1478 C1479 1.394 . S
C1478 C1484 1.465 . S
C1479 C1474 1.399 . S
C1479 C1478 1.394 . S
C1479 C1480 1.516 . S
C1480 C1479 1.516 . S
C1480 C1481 1.502 . S
C1480 C1482 1.561 . S
C1480 C1483 1.526 . S
C1481 H1465 0.959 . S
C1481 H1466 0.959 . S
C1481 H1467 0.961 . S
C1481 C1480 1.502 . S
C1482 H1468 0.960 . S
C1482 H1469 0.961 . S
C1482 H1470 0.959 . S
C1482 C1480 1.561 . S
C1483 C1480 1.526 . S
C1483 C1484 1.396 . S
C1483 C1488 1.390 . S
C1484 C1478 1.465 . S
C1484 C1483 1.396 . S
C1484 C1485 1.399 . S
C1485 H1471 0.929 . S
C1485 C1484 1.399 . S
C1485 C1486 1.385 . S
C1486 H1472 0.931 . S
C1486 C1485 1.385 . S
C1486 C1487 1.389 . S
C1487 C1486 1.389 . S
C1487 C1488 1.387 . S
C1488 H1473 0.930 . S
C1488 C1483 1.390 . S
C1488 C1487 1.387 . S
H1489 C1501 0.930 . S
H1490 C1503 0.930 . S
H1491 C1504 0.930 . S
H1492 C1508 0.959 . S
H1493 C1508 0.959 . S
H1494 C1508 0.961 . S
H1495 C1509 0.960 . S
H1496 C1509 0.961 . S
H1497 C1509 0.959 . S
H1498 C1512 0.929 . S
H1499 C1513 0.931 . S
H1500 C1515 0.930 . S
C1501 H1489 0.930 . S
C1501 C1502 1.399 . S
C1501 C1506 1.399 . S
C1502 C1501 1.399 . S
C1502 C1503 1.376 . S
C1503 H1490 0.930 . S
C1503 C1502 1.376 . S
C1503 C1504 1.388 . S
C1504 H1491 0.930 . S
C1504 C1503 1.388 . S
C1504 C1505 1.390 . S
C1505 C1504 1.390 . S
C1505 C1506 1.394 . S
C1505 C1511 1.465 . S
C1506 C1501 1.399 . S
C1506 C1505 1.394 . S
C1506 C1507 1.516 . S
C1507 C1506 1.516 . S
C1507 C1508 1.502 . S
C1507 C1509 1.561 . S
C1507 C1510 1.526 . S
C1508 H1492 0.959 . S
C1508 H1493 0.959 . S
C1508 H1494 0.961 . S
C1508 C1507 1.502 . S
C1509 H1495 0.960 . S
C1509 H1496 0.961 . S
C1509 H1497 0.959 . S
C1509 C1507 1.561 . S
C1510 C1507 1.526 . S
C1510 C1511 1.396 . S
C1510 C1515 1.390 . S
C1511 C1505 1.465 . S
C1511 C1510 1.396 . S
C1511 C1512 1.399 . S
C1512 H1498 0.929 . S
C1512 C1511 1.399 . S
C1512 C1513 1.385 . S
C1513 H1499 0.931 . S
C1513 C1512 1.385 . S
C1513 C1514 1.389 . S
C1514 C1513 1.389 . S
C1514 C1515 1.387 . S
C1515 H1500 0.930 . S
C1515 C1510 1.390 . S
C1515 C1514 1.387 . S
H1516 C1528 0.930 . S
H1517 C1530 0.930 . S
H1518 C1531 0.930 . S
H1519 C1535 0.959 . S
H1520 C1535 0.959 . S
H1521 C1535 0.961 . S
H1522 C1536 0.960 . S
H1523 C1536 0.961 . S
H1524 C1536 0.959 . S
H1525 C1539 0.929 . S
H1526 C1540 0.931 . S
H1527 C1542 0.930 . S
C1528 H1516 0.930 . S
C1528 C1529 1.399 . S
C1528 C1533 1.399 . S
C1529 C1528 1.399 . S
C1529 C1530 1.376 . S
C1530 H1517 0.930 . S
C1530 C1529 1.376 . S
C1530 C1531 1.388 . S
C1531 H1518 0.930 . S
C1531 C1530 1.388 . S
C1531 C1532 1.390 . S
C1532 C1531 1.390 . S
C1532 C1533 1.394 . S
C1532 C1538 1.465 . S
C1533 C1528 1.399 . S
C1533 C1532 1.394 . S
C1533 C1534 1.516 . S
C1534 C1533 1.516 . S
C1534 C1535 1.502 . S
C1534 C1536 1.561 . S
C1534 C1537 1.526 . S
C1535 H1519 0.959 . S
C1535 H1520 0.959 . S
C1535 H1521 0.961 . S
C1535 C1534 1.502 . S
C1536 H1522 0.960 . S
C1536 H1523 0.961 . S
C1536 H1524 0.959 . S
C1536 C1534 1.561 . S
C1537 C1534 1.526 . S
C1537 C1538 1.396 . S
C1537 C1542 1.390 . S
C1538 C1532 1.465 . S
C1538 C1537 1.396 . S
C1538 C1539 1.399 . S
C1539 H1525 0.929 . S
C1539 C1538 1.399 . S
C1539 C1540 1.385 . S
C1540 H1526 0.931 . S
C1540 C1539 1.385 . S
C1540 C1541 1.389 . S
C1541 C1540 1.389 . S
C1541 C1542 1.387 . S
C1542 H1527 0.930 . S
C1542 C1537 1.390 . S
C1542 C1541 1.387 . S
H1543 C1555 0.930 . S
H1544 C1557 0.930 . S
H1545 C1558 0.930 . S
H1546 C1562 0.959 . S
H1547 C1562 0.959 . S
H1548 C1562 0.961 . S
H1549 C1563 0.960 . S
H1550 C1563 0.961 . S
H1551 C1563 0.959 . S
H1552 C1566 0.929 . S
H1553 C1567 0.931 . S
H1554 C1569 0.930 . S
C1555 H1543 0.930 . S
C1555 C1556 1.399 . S
C1555 C1560 1.399 . S
C1556 C1555 1.399 . S
C1556 C1557 1.376 . S
C1557 H1544 0.930 . S
C1557 C1556 1.376 . S
C1557 C1558 1.388 . S
C1558 H1545 0.930 . S
C1558 C1557 1.388 . S
C1558 C1559 1.390 . S
C1559 C1558 1.390 . S
C1559 C1560 1.394 . S
C1559 C1565 1.465 . S
C1560 C1555 1.399 . S
C1560 C1559 1.394 . S
C1560 C1561 1.516 . S
C1561 C1560 1.516 . S
C1561 C1562 1.502 . S
C1561 C1563 1.561 . S
C1561 C1564 1.526 . S
C1562 H1546 0.959 . S
C1562 H1547 0.959 . S
C1562 H1548 0.961 . S
C1562 C1561 1.502 . S
C1563 H1549 0.960 . S
C1563 H1550 0.961 . S
C1563 H1551 0.959 . S
C1563 C1561 1.561 . S
C1564 C1561 1.526 . S
C1564 C1565 1.396 . S
C1564 C1569 1.390 . S
C1565 C1559 1.465 . S
C1565 C1564 1.396 . S
C1565 C1566 1.399 . S
C1566 H1552 0.929 . S
C1566 C1565 1.399 . S
C1566 C1567 1.385 . S
C1567 H1553 0.931 . S
C1567 C1566 1.385 . S
C1567 C1568 1.389 . S
C1568 C1567 1.389 . S
C1568 C1569 1.387 . S
C1569 H1554 0.930 . S
C1569 C1564 1.390 . S
C1569 C1568 1.387 . S
H1570 C1582 0.930 . S
H1571 C1584 0.930 . S
H1572 C1585 0.930 . S
H1573 C1589 0.959 . S
H1574 C1589 0.959 . S
H1575 C1589 0.961 . S
H1576 C1590 0.960 . S
H1577 C1590 0.961 . S
H1578 C1590 0.959 . S
H1579 C1593 0.929 . S
H1580 C1594 0.931 . S
H1581 C1596 0.930 . S
C1582 H1570 0.930 . S
C1582 C1583 1.399 . S
C1582 C1587 1.399 . S
C1583 C1582 1.399 . S
C1583 C1584 1.376 . S
C1584 H1571 0.930 . S
C1584 C1583 1.376 . S
C1584 C1585 1.388 . S
C1585 H1572 0.930 . S
C1585 C1584 1.388 . S
C1585 C1586 1.390 . S
C1586 C1585 1.390 . S
C1586 C1587 1.394 . S
C1586 C1592 1.465 . S
C1587 C1582 1.399 . S
C1587 C1586 1.394 . S
C1587 C1588 1.516 . S
C1588 C1587 1.516 . S
C1588 C1589 1.502 . S
C1588 C1590 1.561 . S
C1588 C1591 1.526 . S
C1589 H1573 0.959 . S
C1589 H1574 0.959 . S
C1589 H1575 0.961 . S
C1589 C1588 1.502 . S
C1590 H1576 0.960 . S
C1590 H1577 0.961 . S
C1590 H1578 0.959 . S
C1590 C1588 1.561 . S
C1591 C1588 1.526 . S
C1591 C1592 1.396 . S
C1591 C1596 1.390 . S
C1592 C1586 1.465 . S
C1592 C1591 1.396 . S
C1592 C1593 1.399 . S
C1593 H1579 0.929 . S
C1593 C1592 1.399 . S
C1593 C1594 1.385 . S
C1594 H1580 0.931 . S
C1594 C1593 1.385 . S
C1594 C1595 1.389 . S
C1595 C1594 1.389 . S
C1595 C1596 1.387 . S
C1596 H1581 0.930 . S
C1596 C1591 1.390 . S
C1596 C1595 1.387 . S
H1597 C1609 0.930 . S
H1598 C1611 0.930 1_554 S
H1599 C1612 0.930 . S
H1600 C1616 0.959 . S
H1601 C1616 0.959 . S
H1602 C1616 0.961 . S
H1603 C1617 0.960 . S
H1604 C1617 0.961 . S
H1605 C1617 0.959 . S
H1606 C1620 0.929 . S
H1607 C1621 0.931 . S
H1608 C1623 0.930 . S
C1609 H1597 0.930 . S
C1609 C1610 1.399 . S
C1609 C1614 1.399 . S
C1610 C1609 1.399 . S
C1610 C1611 1.376 . S
C1611 H1598 0.930 1_556 S
C1611 C1610 1.376 . S
C1611 C1612 1.388 . S
C1612 H1599 0.930 . S
C1612 C1611 1.388 . S
C1612 C1613 1.390 . S
C1613 C1612 1.390 . S
C1613 C1614 1.394 . S
C1613 C1619 1.465 . S
C1614 C1609 1.399 . S
C1614 C1613 1.394 . S
C1614 C1615 1.516 . S
C1615 C1614 1.516 . S
C1615 C1616 1.502 . S
C1615 C1617 1.561 . S
C1615 C1618 1.526 . S
C1616 H1600 0.959 . S
C1616 H1601 0.959 . S
C1616 H1602 0.961 . S
C1616 C1615 1.502 . S
C1617 H1603 0.960 . S
C1617 H1604 0.961 . S
C1617 H1605 0.959 . S
C1617 C1615 1.561 . S
C1618 C1615 1.526 . S
C1618 C1619 1.396 . S
C1618 C1623 1.390 . S
C1619 C1613 1.465 . S
C1619 C1618 1.396 . S
C1619 C1620 1.399 . S
C1620 H1606 0.929 . S
C1620 C1619 1.399 . S
C1620 C1621 1.385 . S
C1621 H1607 0.931 . S
C1621 C1620 1.385 . S
C1621 C1622 1.389 . S
C1622 C1621 1.389 . S
C1622 C1623 1.387 . S
C1623 H1608 0.930 . S
C1623 C1618 1.390 . S
C1623 C1622 1.387 . S
C557 C345 1.748 . S
C569 C5 1.751 . S
C584 C39 1.750 . S
C596 C379 1.752 . S
C611 C277 1.730 . S
C623 C73 1.728 . S
C638 C107 1.749 . S
C650 C311 1.752 . S
C665 C481 1.727 . S
C677 C141 1.727 . S
C692 C175 1.742 . S
C704 C515 1.746 . S
C719 C209 1.748 . S
C731 C413 1.750 . S
C746 C447 1.748 . S
C758 C243 1.750 . S
C773 C496 1.058 . S
C785 C33 1.026 . S
C800 C530 1.075 . S
C812 C67 1.059 . S
C827 C101 1.055 . S
C839 C428 1.024 . S
C854 C462 1.067 . S
C866 C135 1.069 . S
C881 C169 1.038 . S
C893 C360 1.043 . S
C908 C203 1.049 . S
C920 C394 1.072 . S
C935 C292 1.076 . S
C947 C237 1.030 . S
C962 C271 1.054 . S
C974 C326 1.068 . S
C989 C224 1.065 . S
C1001 C305 1.029 . S
C1016 C258 1.026 . S
C1028 C339 1.042 . S
C1043 C156 1.060 . S
C1055 C373 1.027 . S
C1070 C407 1.066 . S
C1082 C190 1.070 . S
C1097 C441 1.025 . S
C1109 C88 1.068 . S
C1124 C475 1.042 . S
C1136 C122 1.038 . S
C1151 C509 1.025 . S
C1163 C20 1.067 . S
C1178 C54 1.030 . S
C1190 C543 1.076 . S
C1205 C383 1.529 . S
C1217 C2 1.617 . S
C1232 C36 1.611 . S
C1244 C281 1.578 . S
C1259 C70 1.621 . S
C1271 C315 1.583 . S
C1286 C104 1.622 . S
C1298 C349 1.563 . S
C1313 C179 1.521 . S
C1325 C138 1.605 . S
C1340 C172 1.608 . S
C1352 C213 1.519 . S
C1367 C247 1.561 . S
C1379 C206 1.619 . S
C1394 C240 1.622 . S
C1406 C145 1.587 . S
C1421 C111 1.572 . S
C1433 C274 1.610 . S
C1448 C308 1.619 . S
C1460 C9 1.540 . S
C1475 C342 1.611 . S
C1487 C43 1.514 . S
C1502 C77 1.520 . S
C1514 C376 1.615 . S
C1529 C451 1.588 . S
C1541 C410 1.622 . S
C1556 C485 1.540 . S
C1568 C444 1.608 . S
C1583 C478 1.616 . S
C1595 C519 1.545 . S
C1610 C417 1.541 . S
C1622 C512 1.608 . S
