# Generated by pormake.
# Topology qtz-e, (6)-cn, num edge types: 1
# Building blocks:
#     Node 0, Type 0, BuildingBlock: MIFKUJ_clean_sbu_0, # of connection points: 6
#     Node 1, Type 0, BuildingBlock: MIFKUJ_clean_sbu_0, # of connection points: 6
#     Node 2, Type 0, BuildingBlock: MIFKUJ_clean_sbu_0, # of connection points: 6
#     Node 3, Type 0, BuildingBlock: MIFKUJ_clean_sbu_0, # of connection points: 6
#     Node 4, Type 0, BuildingBlock: MIFKUJ_clean_sbu_0, # of connection points: 6
#     Node 5, Type 0, BuildingBlock: MIFKUJ_clean_sbu_0, # of connection points: 6
#     Edge 6, Type (0, 0), BuildingBlock: EZIPEK_clean_linker_0, # of connection points: 2
#     Edge 7, Type (0, 0), BuildingBlock: EZIPEK_clean_linker_0, # of connection points: 2
#     Edge 8, Type (0, 0), BuildingBlock: EZIPEK_clean_linker_0, # of connection points: 2
#     Edge 9, Type (0, 0), BuildingBlock: EZIPEK_clean_linker_0, # of connection points: 2
#     Edge 10, Type (0, 0), BuildingBlock: EZIPEK_clean_linker_0, # of connection points: 2
#     Edge 11, Type (0, 0), BuildingBlock: EZIPEK_clean_linker_0, # of connection points: 2
#     Edge 12, Type (0, 0), BuildingBlock: EZIPEK_clean_linker_0, # of connection points: 2
#     Edge 13, Type (0, 0), BuildingBlock: EZIPEK_clean_linker_0, # of connection points: 2
#     Edge 14, Type (0, 0), BuildingBlock: EZIPEK_clean_linker_0, # of connection points: 2
#     Edge 15, Type (0, 0), BuildingBlock: EZIPEK_clean_linker_0, # of connection points: 2
#     Edge 16, Type (0, 0), BuildingBlock: EZIPEK_clean_linker_0, # of connection points: 2
#     Edge 17, Type (0, 0), BuildingBlock: EZIPEK_clean_linker_0, # of connection points: 2
#     Edge 18, Type (0, 0), BuildingBlock: EZIPEK_clean_linker_0, # of connection points: 2
#     Edge 19, Type (0, 0), BuildingBlock: EZIPEK_clean_linker_0, # of connection points: 2
#     Edge 20, Type (0, 0), BuildingBlock: EZIPEK_clean_linker_0, # of connection points: 2
#     Edge 21, Type (0, 0), BuildingBlock: EZIPEK_clean_linker_0, # of connection points: 2
#     Edge 22, Type (0, 0), BuildingBlock: EZIPEK_clean_linker_0, # of connection points: 2
#     Edge 23, Type (0, 0), BuildingBlock: EZIPEK_clean_linker_0, # of connection points: 2
# Relax obj value: 0.210
# Max RMSD: 0.230
# Mean RMSD: 0.230
data_MOF--net-qtz-e--node1-MIFKUJ_clean_sbu_0--edge1-EZIPEK_clean_linker_0
_symmetry_space_group_name_H-M    P1
_symmetry_Int_Tables_number       1
_symmetry_cell_setting            triclinic
loop_
_symmetry_equiv_pos_as_xyz
'x, y, z'
_cell_length_a     17.869716
_cell_length_b     17.618473
_cell_length_c     33.636749
_cell_angle_alpha  90.491638
_cell_angle_beta   89.942327
_cell_angle_gamma 119.49443
loop_
_atom_site_label
_atom_site_type_symbol
_atom_site_fract_x
_atom_site_fract_y
_atom_site_fract_z
_atom_type_partial_charge
Zn0 Zn 0.15946 0.37753 0.96553 0.0
Zn1 Zn 0.16446 0.40255 0.07275 0.0
C2 C 0.16812 0.4335 0.87982 0.0
O3 O 0.08685 0.37503 0.87482 0.0
C4 C 0.0783 0.22509 0.09921 0.0
O5 O 0.15857 0.24336 0.10325 0.0
O6 O 0.12304 0.25082 0.95458 0.0
O7 O 0.26941 0.44421 0.99695 0.0
O8 O 0.26994 0.39861 0.05748 0.0
C9 C 0.17562 0.24018 0.93306 0.0
O10 O 0.24848 0.30842 0.92302 0.0
O11 O 0.20408 0.44213 0.91336 0.0
C12 C 0.20271 0.55096 0.12641 0.0
O13 O 0.20038 0.58854 0.09329 0.0
O14 O 0.19024 0.473 0.12526 0.0
O15 O 0.14144 0.47615 0.03445 0.0
O16 O 0.06176 0.39369 0.98487 0.0
O17 O 0.0643 0.28256 0.08353 0.0
C18 C 0.30941 0.44757 0.02867 0.0
C19 C 0.0801 0.45417 0.01011 0.0
Zn20 Zn 0.80019 0.17382 0.29235 0.0
Zn21 Zn 0.79652 0.16103 0.41168 0.0
C22 C 0.73816 0.29077 0.2654 0.0
O23 O 0.69806 0.27462 0.29966 0.0
C24 C 0.90732 0.09259 0.43638 0.0
O25 O 0.97031 0.16737 0.42411 0.0
O26 O 0.85807 0.12087 0.2591 0.0
O27 O 0.86668 0.25511 0.33648 0.0
O28 O 0.89546 0.27479 0.39908 0.0
C29 C 0.90488 0.16936 0.23129 0.0
O30 O 0.92006 0.25 0.22946 0.0
O31 O 0.77952 0.25168 0.25612 0.0
C32 C 0.71206 0.13509 0.48781 0.0
O33 O 0.69636 0.0543 0.48405 0.0
O34 O 0.75407 0.19046 0.46121 0.0
O35 O 0.69368 0.11687 0.37404 0.0
O36 O 0.6852 0.08068 0.31059 0.0
O37 O 0.83017 0.0727 0.42847 0.0
C38 C 0.90883 0.30646 0.36469 0.0
C39 C 0.64995 0.08737 0.34211 0.0
Zn40 Zn 0.66571 0.81084 0.62706 0.0
Zn41 Zn 0.54369 0.75041 0.71033 0.0
C42 C 0.54061 0.71971 0.56194 0.0
O43 O 0.56526 0.66074 0.56173 0.0
C44 C 0.67073 0.81638 0.76849 0.0
O45 O 0.62413 0.85206 0.77895 0.0
O46 O 0.77245 0.85571 0.59315 0.0
O47 O 0.6673 0.91591 0.65566 0.0
O48 O 0.54973 0.8563 0.69337 0.0
C49 C 0.77969 0.91424 0.56916 0.0
O50 O 0.72349 0.94171 0.57051 0.0
O51 O 0.57193 0.78126 0.58734 0.0
C52 C 0.3824 0.62309 0.74654 0.0
O53 O 0.36385 0.58812 0.71078 0.0
O54 O 0.45272 0.69324 0.7527 0.0
O55 O 0.51153 0.67061 0.66518 0.0
O56 O 0.64164 0.69615 0.65344 0.0
O57 O 0.65477 0.77505 0.73567 0.0
C58 C 0.6072 0.92003 0.6744 0.0
C59 C 0.56367 0.64248 0.66153 0.0
Zn60 Zn 0.78943 0.69607 0.98431 0.0
Zn61 Zn 0.7707 0.62307 0.07608 0.0
C62 C 0.72138 0.51004 0.95371 0.0
O63 O 0.79551 0.515 0.96154 0.0
C64 C 0.82859 0.78129 0.12242 0.0
O65 O 0.74661 0.74545 0.13134 0.0
O66 O 0.8069 0.76852 0.93528 0.0
O67 O 0.72282 0.73288 0.02043 0.0
O68 O 0.66481 0.61226 0.05512 0.0
C69 C 0.83432 0.75556 0.90251 0.0
O70 O 0.86717 0.70342 0.90149 0.0
O71 O 0.70779 0.57211 0.96381 0.0
C72 C 0.78663 0.55171 0.15059 0.0
O73 O 0.85982 0.62496 0.15347 0.0
O74 O 0.73719 0.53838 0.1211 0.0
O75 O 0.833 0.58768 0.03902 0.0
O76 O 0.90186 0.70774 1.00405 0.0
O77 O 0.8508 0.74277 0.09684 0.0
C78 C 0.65853 0.67219 0.0378 0.0
C79 C 0.89975 0.64233 0.02074 0.0
Zn80 Zn 0.13073 0.81929 0.31358 0.0
Zn81 Zn 0.2123 0.78707 0.39937 0.0
C82 C 0.22154 0.77275 0.25402 0.0
O83 O 0.2327 0.84502 0.23766 0.0
C84 C 0.12025 0.86405 0.44713 0.0
O85 O 0.04888 0.81937 0.42669 0.0
O86 O 0.08319 0.8584 0.26869 0.0
O87 O 0.03101 0.72768 0.34528 0.0
O88 O 0.10976 0.68567 0.37956 0.0
C89 C 0.00361 0.82966 0.26231 0.0
O90 O 0.94669 0.77656 0.28786 0.0
O91 O 0.18184 0.75059 0.28693 0.0
C92 C 0.32789 0.78776 0.45776 0.0
O93 O 0.33911 0.86616 0.46443 0.0
O94 O 0.27589 0.73991 0.43082 0.0
O95 O 0.29101 0.85788 0.35728 0.0
O96 O 0.22527 0.92991 0.33967 0.0
O97 O 0.18656 0.85806 0.43887 0.0
C98 C 0.04027 0.66873 0.36237 0.0
C99 C 0.29358 0.92881 0.34886 0.0
Zn100 Zn 0.36381 0.11699 0.65244 0.0
Zn101 Zn 0.38615 0.15296 0.7763 0.0
C102 C 0.53763 0.18847 0.61857 0.0
O103 O 0.56038 0.25473 0.64307 0.0
C104 C 0.25148 0.05858 0.83087 0.0
O105 O 0.30872 0.03695 0.84227 0.0
O106 O 0.25179 0.04826 0.62191 0.0
O107 O 0.36012 0.0746 0.70611 0.0
O108 O 0.4155 0.06029 0.76019 0.0
C109 C 0.25622 0.06098 0.58462 0.0
O110 O 0.32735 0.12474 0.56995 0.0
O111 O 0.46064 0.12575 0.61832 0.0
C112 C 0.46945 0.28223 0.83854 0.0
O113 O 0.41183 0.30479 0.82909 0.0
O114 O 0.46967 0.21873 0.82051 0.0
O115 O 0.40849 0.24226 0.73096 0.0
O116 O 0.39179 0.23667 0.66452 0.0
O117 O 0.26805 0.10495 0.79987 0.0
C118 C 0.40963 0.0526 0.72285 0.0
C119 C 0.41392 0.27873 0.6974 0.0
C120 C 0.29976 0.74445 0.19831 0.0
C121 C 0.2397 0.71124 0.22994 0.0
C122 C 0.16789 0.56725 0.19797 0.0
C123 C 0.22207 0.60183 0.16434 0.0
N124 N 0.35524 0.7156 0.13742 0.0
N125 N 0.15466 0.5821 0.26873 0.0
C126 C 0.29321 0.68825 0.16608 0.0
C127 C 0.18563 0.61973 0.23278 0.0
N128 N 0.36332 0.82969 0.19953 0.0
N129 N 0.09626 0.48671 0.19621 0.0
H130 H 0.17448 0.61697 0.29541 0.0
H131 H 0.12069 0.51473 0.27246 0.0
H132 H 0.07785 0.44675 0.17102 0.0
H133 H 0.05071 0.46307 0.21879 0.0
H134 H 0.40238 0.86263 0.17556 0.0
H135 H 0.37693 0.8677 0.22531 0.0
H136 H 0.4122 0.77492 0.13829 0.0
H137 H 0.3531 0.67584 0.11385 0.0
C138 C 0.57342 0.20397 0.5466 0.0
C139 C 0.59501 0.19337 0.58583 0.0
C140 C 0.70444 0.16008 0.56081 0.0
C141 C 0.6757 0.16049 0.52147 0.0
N142 N 0.58276 0.18137 0.47603 0.0
N143 N 0.69764 0.19072 0.63096 0.0
C144 C 0.61119 0.1836 0.51403 0.0
C145 C 0.6657 0.18019 0.59322 0.0
N146 N 0.51928 0.23709 0.54084 0.0
N147 N 0.7676 0.13893 0.56702 0.0
H148 H 0.67226 0.2091 0.65466 0.0
H149 H 0.75306 0.1887 0.63847 0.0
H150 H 0.80106 0.12938 0.54387 0.0
H151 H 0.78494 0.12734 0.59488 0.0
H152 H 0.5061 0.25423 0.51327 0.0
H153 H 0.49366 0.25578 0.5644 0.0
H154 H 0.53017 0.18883 0.46888 0.0
H155 H 0.60831 0.16668 0.4512 0.0
C156 C 0.25593 0.44159 0.82011 0.0
C157 C 0.22183 0.48204 0.84535 0.0
C158 C 0.28855 0.61325 0.80414 0.0
C159 C 0.32725 0.57497 0.78058 0.0
N160 N 0.36418 0.46138 0.7715 0.0
N161 N 0.22101 0.6127 0.86664 0.0
C162 C 0.31524 0.49127 0.78991 0.0
C163 C 0.24267 0.56983 0.83893 0.0
N164 N 0.23201 0.35573 0.82511 0.0
N165 N 0.29326 0.6897 0.79259 0.0
H166 H 0.18861 0.58334 0.89268 0.0
H167 H 0.24211 0.67928 0.86568 0.0
H168 H 0.32616 0.72327 0.76723 0.0
H169 H 0.25853 0.71593 0.80614 0.0
H170 H 0.24675 0.31978 0.805 0.0
H171 H 0.19219 0.31857 0.84811 0.0
H172 H 0.36467 0.40481 0.77972 0.0
H173 H 0.41096 0.49744 0.75046 0.0
C174 C 0.72629 0.33245 0.19594 0.0
C175 C 0.7367 0.35418 0.23706 0.0
C176 C 0.76033 0.50001 0.22099 0.0
C177 C 0.76495 0.48242 0.18014 0.0
N178 N 0.76774 0.38609 0.12922 0.0
N179 N 0.77373 0.46403 0.28877 0.0
C180 C 0.75159 0.39961 0.16762 0.0
C181 C 0.75542 0.43911 0.24979 0.0
N182 N 0.69019 0.24731 0.18387 0.0
N183 N 0.75944 0.57434 0.23222 0.0
H184 H 0.77481 0.42398 0.31102 0.0
H185 H 0.79634 0.52785 0.29864 0.0
H186 H 0.7627 0.62027 0.21189 0.0
H187 H 0.74708 0.58635 0.26119 0.0
H188 H 0.67441 0.22754 0.15433 0.0
H189 H 0.6669 0.19563 0.20377 0.0
H190 H 0.76804 0.32966 0.11991 0.0
H191 H 0.78953 0.43433 0.1076 0.0
C192 C 0.48706 0.71724 0.49219 0.0
C193 C 0.47444 0.71571 0.53399 0.0
C194 C 0.35451 0.74462 0.52445 0.0
C195 C 0.37252 0.75437 0.48314 0.0
N196 N 0.45836 0.757 0.42732 0.0
N197 N 0.3834 0.70447 0.58911 0.0
C198 C 0.43811 0.74057 0.46673 0.0
C199 C 0.40428 0.72264 0.54987 0.0
N200 N 0.54575 0.69676 0.4767 0.0
N201 N 0.29138 0.75919 0.53943 0.0
H202 H 0.41683 0.68541 0.6082 0.0
H203 H 0.32913 0.70083 0.60234 0.0
H204 H 0.24891 0.76826 0.52147 0.0
H205 H 0.28259 0.76579 0.56956 0.0
H206 H 0.55029 0.68597 0.44656 0.0
H207 H 0.58623 0.68365 0.4939 0.0
H208 H 0.51255 0.75987 0.41433 0.0
H209 H 0.4242 0.77415 0.40766 0.0
C210 C 0.68518 0.43831 0.88609 0.0
C211 C 0.65978 0.4416 0.92595 0.0
C212 C 0.51013 0.3341 0.90918 0.0
C213 C 0.53552 0.3325 0.86926 0.0
N214 N 0.64824 0.36991 0.82095 0.0
N215 N 0.55337 0.38348 0.97752 0.0
C216 C 0.62346 0.37991 0.85825 0.0
C217 C 0.57355 0.3866 0.93809 0.0
N218 N 0.7668 0.49582 0.87383 0.0
N219 N 0.42534 0.2848 0.9193 0.0
H220 H 0.59892 0.42015 0.99924 0.0
H221 H 0.49351 0.34123 0.98947 0.0
H222 H 0.37847 0.24136 0.89959 0.0
H223 H 0.40009 0.28727 0.94681 0.0
H224 H 0.78544 0.50621 0.84416 0.0
H225 H 0.81549 0.53883 0.89275 0.0
H226 H 0.71193 0.39218 0.81293 0.0
H227 H 0.60522 0.33446 0.79827 0.0
C228 C 0.43718 0.56987 0.0655 0.0
C229 C 0.40213 0.51399 0.03136 0.0
C230 C 0.53389 0.60693 0.99433 0.0
C231 C 0.57112 0.65421 0.02939 0.0
N232 N 0.55443 0.70529 0.0925 0.0
N233 N 0.42676 0.46951 0.96663 0.0
C234 C 0.52061 0.64369 0.06299 0.0
C235 C 0.45273 0.5307 0.99635 0.0
N236 N 0.39464 0.55036 0.10095 0.0
N237 N 0.57769 0.63442 0.95943 0.0
H238 H 0.37338 0.40765 0.96948 0.0
H239 H 0.46358 0.47545 0.94162 0.0
H240 H 0.6369 0.69162 0.95796 0.0
H241 H 0.55156 0.6066 0.93188 0.0
H242 H 0.42225 0.58303 0.12746 0.0
H243 H 0.3345 0.49733 0.10567 0.0
H244 H 0.51996 0.70791 0.11692 0.0
H245 H 0.61598 0.75928 0.08996 0.0
C246 C 0.96686 0.53106 0.32333 0.0
C247 C 0.97591 0.57545 0.3599 0.0
C248 C 0.96894 0.4542 0.39623 0.0
C249 C 0.95053 0.40383 0.36077 0.0
N250 N 0.94598 0.40029 0.2892 0.0
N251 N 0.95599 0.56806 0.43045 0.0
C252 C 0.95241 0.44372 0.32378 0.0
C253 C 0.96383 0.53129 0.39598 0.0
N254 N 0.97708 0.57434 0.28846 0.0
N255 N -0.00018 0.43357 0.42911 0.0
H256 H 0.95432 0.62653 0.43047 0.0
H257 H 0.94304 0.53618 0.45769 0.0
H258 H 0.01908 0.38645 0.4283 0.0
H259 H 0.01895 0.47217 0.45479 0.0
H260 H 0.97987 0.55003 0.26055 0.0
H261 H 0.98204 0.63572 0.28748 0.0
H262 H 0.93185 0.41732 0.26182 0.0
H263 H 0.95865 0.34863 0.28821 0.0
C264 C 0.45252 0.9868 0.66634 0.0
C265 C 0.47519 0.04196 0.70035 0.0
C266 C 0.61803 0.05485 0.70104 0.0
C267 C 0.59142 -0.00655 0.66976 0.0
N268 N 0.49894 0.9298 0.61287 0.0
N269 N 0.59186 0.15849 0.7375 0.0
C270 C 0.51574 0.97256 0.64837 0.0
C271 C 0.56225 0.08602 0.71378 0.0
N272 N 0.37061 0.94518 0.65163 0.0
N273 N 0.69416 0.07893 0.71982 0.0
H274 H 0.55413 0.18659 0.74493 0.0
H275 H 0.65619 0.19623 0.74574 0.0
H276 H 0.73639 0.05826 0.70944 0.0
H277 H 0.71317 0.11596 0.74594 0.0
H278 H 0.35337 0.90421 0.62669 0.0
H279 H 0.31983 0.94871 0.66499 0.0
H280 H 0.54368 0.91752 0.5984 0.0
H281 H 0.54368 0.91752 0.5984 0.0
C282 C 0.57492 0.52146 0.69691 0.0
C283 C 0.5314 0.54913 0.67027 0.0
C284 C 0.40374 0.40483 0.67347 0.0
C285 C 0.45088 0.3738 0.69482 0.0
N286 N 0.5874 0.39914 0.72098 0.0
N287 N 0.41149 0.50814 0.62526 0.0
C288 C 0.53815 0.43108 0.70518 0.0
C289 C 0.44776 0.48811 0.65628 0.0
N290 N 0.64911 0.58054 0.71553 0.0
N291 N 0.31653 0.35462 0.66975 0.0
H292 H 0.44378 0.56643 0.60986 0.0
H293 H 0.35385 0.46287 0.61184 0.0
H294 H 0.28205 0.29352 0.68296 0.0
H295 H 0.27809 0.37768 0.65743 0.0
H296 H 0.67714 0.56363 0.73846 0.0
H297 H 0.67882 0.64737 0.7109 0.0
H298 H 0.65371 0.43692 0.72482 0.0
H299 H 0.56363 0.33341 0.72717 0.0
C300 C 0.01046 0.52268 0.04849 0.0
C301 C 0.03543 0.50588 0.01083 0.0
C302 C -0.0021 0.60874 0.97978 0.0
C303 C 0.97011 0.62153 0.01742 0.0
N304 N 0.98263 0.62082 0.08832 0.0
N305 N 0.0506 0.52982 0.93981 0.0
C306 C -0.01234 0.58836 0.05201 0.0
C307 C 0.02892 0.54833 0.97614 0.0
N308 N 0.00255 0.47151 0.08037 0.0
N309 N -0.0014 0.65746 0.94825 0.0
H310 H 0.07924 0.4914 0.93591 0.0
H311 H 0.03707 0.5491 0.91289 0.0
H312 H 0.98432 0.70773 0.95114 0.0
H313 H 0.022 0.65563 0.92018 0.0
H314 H 0.97675 0.47589 0.10753 0.0
H315 H 0.01289 0.41825 0.07849 0.0
H316 H 0.00177 0.60479 0.11473 0.0
H317 H 0.96851 0.67154 0.09103 0.0
C318 C 0.42786 0.02367 0.3819 0.0
C319 C 0.37916 0.00631 0.34705 0.0
C320 C 0.51066 0.06229 0.30788 0.0
C321 C 0.55554 0.05767 0.34257 0.0
N322 N 0.54135 0.00709 0.41079 0.0
N323 N 0.37201 0.01569 0.27647 0.0
C324 C 0.51049 0.03241 0.37943 0.0
C325 C 0.42034 0.02945 0.30995 0.0
N326 N 0.39152 0.02384 0.4175 0.0
N327 N 0.55238 0.0984 0.27318 0.0
H328 H 0.30731 -0.00123 0.27789 0.0
H329 H 0.39488 0.01814 0.24774 0.0
H330 H 0.61662 0.11997 0.26777 0.0
H331 H 0.52382 0.11325 0.24978 0.0
H332 H 0.42576 0.0403 0.4442 0.0
H333 H 0.32953 0.0156 0.41905 0.0
H334 H 0.50739 0.98391 0.43723 0.0
H335 H 0.59368 -0.00345 0.40852 0.0
C336 C 0.19964 0.04982 0.90084 0.0
C337 C 0.18699 0.05674 0.85983 0.0
C338 C 0.11128 0.13658 0.87631 0.0
C339 C 0.15216 0.15559 0.914 0.0
N340 N 0.22186 0.11944 0.96559 0.0
N341 N 0.09927 0.07268 0.81034 0.0
C342 C 0.1904 0.10703 0.92774 0.0
C343 C 0.13091 0.08799 0.84823 0.0
N344 N 0.21937 0.98857 0.91366 0.0
N345 N 0.05679 0.16762 0.86749 0.0
H346 H 0.10841 0.03111 0.7911 0.0
H347 H 0.06305 0.09845 0.79836 0.0
H348 H 0.04113 0.20143 0.8885 0.0
H349 H 0.02389 0.15648 0.8407 0.0
H350 H 0.22485 0.9774 0.9436 0.0
H351 H 0.21924 0.94199 0.89422 0.0
H352 H 0.2592 0.09325 0.97592 0.0
H353 H 0.21255 0.15889 0.98606 0.0
C354 C 0.88141 0.13325 0.15961 0.0
C355 C 0.92265 0.13224 0.19543 0.0
C356 C 0.03385 0.12339 0.15723 0.0
C357 C 0.00975 0.15599 0.12423 0.0
N358 N 0.89142 0.14791 0.08741 0.0
N359 N 0.02755 0.10789 0.22901 0.0
C360 C 0.92591 0.14493 0.12313 0.0
C361 C -0.00575 0.11867 0.19444 0.0
N362 N 0.80283 0.12851 0.16133 0.0
N363 N 0.09338 0.09703 0.15261 0.0
H364 H -0.0023 0.10246 0.25636 0.0
H365 H 0.08517 0.10669 0.23056 0.0
H366 H 0.11801 0.09551 0.12462 0.0
H367 H 0.10982 0.0675 0.17506 0.0
H368 H 0.77024 0.13386 0.13689 0.0
H369 H 0.7693 0.11733 0.18806 0.0
H370 H 0.83058 0.14094 0.08374 0.0
H371 H 0.92362 0.15248 0.06083 0.0
C372 C 0.83024 0.90371 0.50116 0.0
C373 C 0.8462 0.94879 0.53796 0.0
C374 C 0.94976 0.08505 0.50655 0.0
C375 C 0.91985 0.04351 0.46897 0.0
N376 N 0.86368 0.91205 0.4305 0.0
N377 N 0.94003 0.07115 0.57871 0.0
C378 C 0.87175 0.95165 0.46651 0.0
C379 C 0.91328 0.03595 0.54161 0.0
N380 N 0.77092 0.81706 0.49911 0.0
N381 N 0.00817 0.17196 0.50854 0.0
H382 H 0.91338 0.03476 0.60437 0.0
H383 H -0.00814 0.13292 0.58427 0.0
H384 H 0.04371 0.20671 0.48403 0.0
H385 H 0.0237 0.20934 0.53446 0.0
H386 H 0.74934 0.78187 0.47263 0.0
H387 H 0.74189 0.78056 0.52444 0.0
H388 H 0.83345 0.8448 0.4263 0.0
H389 H 0.89445 0.9483 0.40528 0.0
C390 C 0.68281 0.71492 0.8158 0.0
C391 C 0.71896 0.79994 0.79969 0.0
C392 C 0.83671 0.85492 0.84865 0.0
C393 C 0.79895 0.77051 0.86543 0.0
N394 N 0.67983 0.62369 0.86944 0.0
N395 N 0.83328 0.94873 0.79661 0.0
C396 C 0.72113 0.70113 0.84976 0.0
C397 C 0.79679 0.8696 0.81505 0.0
N398 N 0.61101 0.64699 0.79894 0.0
N399 N 0.90888 0.92124 0.86586 0.0
H400 H 0.80545 0.9607 0.77191 0.0
H401 H 0.89282 0.00138 0.80406 0.0
H402 H 0.94112 0.91144 0.88939 0.0
H403 H 0.9353 0.98638 0.85821 0.0
H404 H 0.59009 0.58171 0.8049 0.0
H405 H 0.57391 0.65425 0.77709 0.0
H406 H 0.61738 0.57454 0.8634 0.0
H407 H 0.70559 0.61061 0.89427 0.0
C408 C 0.91222 0.87465 0.22281 0.0
C409 C 0.97446 0.84644 0.22377 0.0
C410 C 0.97497 0.8448 0.15138 0.0
C411 C 0.89476 0.84172 0.15149 0.0
N412 N 0.80423 0.88804 0.18363 0.0
N413 N 0.05821 0.79475 0.18704 0.0
C414 C 0.86933 0.86891 0.18617 0.0
C415 C 0.00622 0.83125 0.18751 0.0
N416 N 0.89497 0.90666 0.25662 0.0
N417 N 0.01851 0.8564 0.11666 0.0
H418 H 0.0739 0.77227 0.21246 0.0
H419 H 0.0764 0.77649 0.16077 0.0
H420 H -0.0034 0.86932 0.09015 0.0
H421 H 0.0799 0.86332 0.11552 0.0
H422 H 0.85327 0.93193 0.2578 0.0
H423 H 0.92777 0.91381 0.28326 0.0
H424 H 0.7763 0.90121 0.20794 0.0
H425 H 0.77926 0.89188 0.15612 0.0
C426 C 0.16647 0.03874 0.52431 0.0
C427 C 0.18787 0.00092 0.5564 0.0
C428 C 0.12025 0.86076 0.52068 0.0
C429 C 0.12014 0.90468 0.48575 0.0
N430 N 0.13073 0.03105 0.45401 0.0
N431 N 0.17689 0.87152 0.58693 0.0
C432 C 0.13769 0.99207 0.48765 0.0
C433 C 0.15999 0.90993 0.5557 0.0
N434 N 0.17475 0.11956 0.5292 0.0
N435 N 0.08314 0.77189 0.51988 0.0
H436 H 0.20024 0.90187 0.61424 0.0
H437 H 0.16963 0.80922 0.58559 0.0
H438 H 0.05395 0.73507 0.49432 0.0
H439 H 0.07377 0.73428 0.54504 0.0
H440 H 0.15619 0.14972 0.50799 0.0
H441 H 0.19351 0.15316 0.55632 0.0
H442 H 0.15089 0.09727 0.45202 0.0
H443 H 0.10637 -0.00354 0.42744 0.0
loop_
_geom_bond_atom_site_label_1
_geom_bond_atom_site_label_2
_geom_bond_distance
_geom_bond_site_symmetry_2
_ccdc_geom_bond_type
Zn0 O6 1.969 . S
Zn0 O7 1.965 1_556 S
Zn0 O11 2.024 . S
Zn0 O16 1.969 . S
Zn1 O8 1.969 . S
Zn1 O14 1.969 . S
Zn1 O15 1.965 . S
Zn1 O17 2.024 . S
C2 O3 1.229 . S
C2 O11 1.058 . S
O3 C2 1.229 . S
C4 O5 1.229 . S
C4 O17 1.058 . S
O5 C4 1.229 . S
O6 Zn0 1.969 . S
O6 C9 1.267 . S
O7 Zn0 1.965 1_554 S
O7 C18 1.260 . S
O8 Zn1 1.969 . S
O8 C18 1.258 . S
C9 O6 1.267 . S
C9 O10 1.228 . S
O10 C9 1.228 . S
O11 Zn0 2.024 . S
O11 C2 1.058 . S
C12 O13 1.228 . S
C12 O14 1.267 . S
O13 C12 1.228 . S
O14 Zn1 1.969 . S
O14 C12 1.267 . S
O15 Zn1 1.965 . S
O15 C19 1.260 . S
O16 Zn0 1.969 . S
O16 C19 1.258 1_556 S
O17 Zn1 2.024 . S
O17 C4 1.058 . S
C18 O7 1.260 . S
C18 O8 1.258 . S
C19 O15 1.260 . S
C19 O16 1.258 1_554 S
Zn20 O26 1.969 . S
Zn20 O27 1.965 . S
Zn20 O31 2.024 . S
Zn20 O36 1.969 . S
Zn21 O28 1.969 . S
Zn21 O34 1.969 . S
Zn21 O35 1.965 . S
Zn21 O37 2.024 . S
C22 O23 1.229 . S
C22 O31 1.058 . S
O23 C22 1.229 . S
C24 O25 1.229 . S
C24 O37 1.058 . S
O25 C24 1.229 . S
O26 Zn20 1.969 . S
O26 C29 1.267 . S
O27 Zn20 1.965 . S
O27 C38 1.260 . S
O28 Zn21 1.969 . S
O28 C38 1.258 . S
C29 O26 1.267 . S
C29 O30 1.228 . S
O30 C29 1.228 . S
O31 Zn20 2.024 . S
O31 C22 1.058 . S
C32 O33 1.228 . S
C32 O34 1.267 . S
O33 C32 1.228 . S
O34 Zn21 1.969 . S
O34 C32 1.267 . S
O35 Zn21 1.965 . S
O35 C39 1.260 . S
O36 Zn20 1.969 . S
O36 C39 1.258 . S
O37 Zn21 2.024 . S
O37 C24 1.058 . S
C38 O27 1.260 . S
C38 O28 1.258 . S
C39 O35 1.260 . S
C39 O36 1.258 . S
Zn40 O46 1.969 . S
Zn40 O47 1.965 . S
Zn40 O51 2.024 . S
Zn40 O56 1.969 . S
Zn41 O48 1.969 . S
Zn41 O54 1.969 . S
Zn41 O55 1.965 . S
Zn41 O57 2.024 . S
C42 O43 1.229 . S
C42 O51 1.058 . S
O43 C42 1.229 . S
C44 O45 1.229 . S
C44 O57 1.058 . S
O45 C44 1.229 . S
O46 Zn40 1.969 . S
O46 C49 1.267 . S
O47 Zn40 1.965 . S
O47 C58 1.260 . S
O48 Zn41 1.969 . S
O48 C58 1.258 . S
C49 O46 1.267 . S
C49 O50 1.228 . S
O50 C49 1.228 . S
O51 Zn40 2.024 . S
O51 C42 1.058 . S
C52 O53 1.228 . S
C52 O54 1.267 . S
O53 C52 1.228 . S
O54 Zn41 1.969 . S
O54 C52 1.267 . S
O55 Zn41 1.965 . S
O55 C59 1.260 . S
O56 Zn40 1.969 . S
O56 C59 1.258 . S
O57 Zn41 2.024 . S
O57 C44 1.058 . S
C58 O47 1.260 . S
C58 O48 1.258 . S
C59 O55 1.260 . S
C59 O56 1.258 . S
Zn60 O66 1.969 . S
Zn60 O67 1.965 1_556 S
Zn60 O71 2.024 . S
Zn60 O76 1.969 . S
Zn61 O68 1.969 . S
Zn61 O74 1.969 . S
Zn61 O75 1.965 . S
Zn61 O77 2.024 . S
C62 O63 1.229 . S
C62 O71 1.058 . S
O63 C62 1.229 . S
C64 O65 1.229 . S
C64 O77 1.058 . S
O65 C64 1.229 . S
O66 Zn60 1.969 . S
O66 C69 1.267 . S
O67 Zn60 1.965 1_554 S
O67 C78 1.260 . S
O68 Zn61 1.969 . S
O68 C78 1.258 . S
C69 O66 1.267 . S
C69 O70 1.228 . S
O70 C69 1.228 . S
O71 Zn60 2.024 . S
O71 C62 1.058 . S
C72 O73 1.228 . S
C72 O74 1.267 . S
O73 C72 1.228 . S
O74 Zn61 1.969 . S
O74 C72 1.267 . S
O75 Zn61 1.965 . S
O75 C79 1.260 . S
O76 Zn60 1.969 . S
O76 C79 1.258 1_556 S
O77 Zn61 2.024 . S
O77 C64 1.058 . S
C78 O67 1.260 . S
C78 O68 1.258 . S
C79 O75 1.260 . S
C79 O76 1.258 1_554 S
Zn80 O86 1.969 . S
Zn80 O87 1.965 . S
Zn80 O91 2.024 . S
Zn80 O96 1.969 . S
Zn81 O88 1.969 . S
Zn81 O94 1.969 . S
Zn81 O95 1.965 . S
Zn81 O97 2.024 . S
C82 O83 1.229 . S
C82 O91 1.058 . S
O83 C82 1.229 . S
C84 O85 1.229 . S
C84 O97 1.058 . S
O85 C84 1.229 . S
O86 Zn80 1.969 . S
O86 C89 1.267 . S
O87 Zn80 1.965 . S
O87 C98 1.260 . S
O88 Zn81 1.969 . S
O88 C98 1.258 . S
C89 O86 1.267 . S
C89 O90 1.228 . S
O90 C89 1.228 . S
O91 Zn80 2.024 . S
O91 C82 1.058 . S
C92 O93 1.228 . S
C92 O94 1.267 . S
O93 C92 1.228 . S
O94 Zn81 1.969 . S
O94 C92 1.267 . S
O95 Zn81 1.965 . S
O95 C99 1.260 . S
O96 Zn80 1.969 . S
O96 C99 1.258 . S
O97 Zn81 2.024 . S
O97 C84 1.058 . S
C98 O87 1.260 . S
C98 O88 1.258 . S
C99 O95 1.260 . S
C99 O96 1.258 . S
Zn100 O106 1.969 . S
Zn100 O107 1.965 . S
Zn100 O111 2.024 . S
Zn100 O116 1.969 . S
Zn101 O108 1.969 . S
Zn101 O114 1.969 . S
Zn101 O115 1.965 . S
Zn101 O117 2.024 . S
C102 O103 1.229 . S
C102 O111 1.058 . S
O103 C102 1.229 . S
C104 O105 1.229 . S
C104 O117 1.058 . S
O105 C104 1.229 . S
O106 Zn100 1.969 . S
O106 C109 1.267 . S
O107 Zn100 1.965 . S
O107 C118 1.260 . S
O108 Zn101 1.969 . S
O108 C118 1.258 . S
C109 O106 1.267 . S
C109 O110 1.228 . S
O110 C109 1.228 . S
O111 Zn100 2.024 . S
O111 C102 1.058 . S
C112 O113 1.228 . S
C112 O114 1.267 . S
O113 C112 1.228 . S
O114 Zn101 1.969 . S
O114 C112 1.267 . S
O115 Zn101 1.965 . S
O115 C119 1.260 . S
O116 Zn100 1.969 . S
O116 C119 1.258 . S
O117 Zn101 2.024 . S
O117 C104 1.058 . S
C118 O107 1.260 . S
C118 O108 1.258 . S
C119 O115 1.260 . S
C119 O116 1.258 . S
C120 C121 1.363 . S
C120 C126 1.379 . S
C120 N128 1.356 . S
C121 C120 1.363 . S
C121 C127 1.363 . S
C122 C123 1.363 . S
C122 C127 1.379 . S
C122 N129 1.356 . S
C123 C122 1.363 . S
C123 C126 1.363 . S
N124 C126 1.356 . S
N124 H136 0.984 . S
N124 H137 0.985 . S
N125 C127 1.356 . S
N125 H130 0.984 . S
N125 H131 0.985 . S
C126 C120 1.379 . S
C126 C123 1.363 . S
C126 N124 1.356 . S
C127 C121 1.363 . S
C127 C122 1.379 . S
C127 N125 1.356 . S
N128 C120 1.356 . S
N128 H134 0.984 . S
N128 H135 0.984 . S
N129 C122 1.356 . S
N129 H132 0.984 . S
N129 H133 0.985 . S
H130 N125 0.984 . S
H131 N125 0.985 . S
H132 N129 0.984 . S
H133 N129 0.985 . S
H134 N128 0.984 . S
H135 N128 0.984 . S
H136 N124 0.984 . S
H137 N124 0.985 . S
C138 C139 1.363 . S
C138 C144 1.379 . S
C138 N146 1.356 . S
C139 C138 1.363 . S
C139 C145 1.363 . S
C140 C141 1.363 . S
C140 C145 1.379 . S
C140 N147 1.356 . S
C141 C140 1.363 . S
C141 C144 1.363 . S
N142 C144 1.356 . S
N142 H154 0.984 . S
N142 H155 0.985 . S
N143 C145 1.356 . S
N143 H148 0.984 . S
N143 H149 0.985 . S
C144 C138 1.379 . S
C144 C141 1.363 . S
C144 N142 1.356 . S
C145 C139 1.363 . S
C145 C140 1.379 . S
C145 N143 1.356 . S
N146 C138 1.356 . S
N146 H152 0.984 . S
N146 H153 0.984 . S
N147 C140 1.356 . S
N147 H150 0.984 . S
N147 H151 0.985 . S
H148 N143 0.984 . S
H149 N143 0.985 . S
H150 N147 0.984 . S
H151 N147 0.985 . S
H152 N146 0.984 . S
H153 N146 0.984 . S
H154 N142 0.984 . S
H155 N142 0.985 . S
C156 C157 1.363 . S
C156 C162 1.379 . S
C156 N164 1.356 . S
C157 C156 1.363 . S
C157 C163 1.363 . S
C158 C159 1.363 . S
C158 C163 1.379 . S
C158 N165 1.356 . S
C159 C158 1.363 . S
C159 C162 1.363 . S
N160 C162 1.356 . S
N160 H172 0.984 . S
N160 H173 0.985 . S
N161 C163 1.356 . S
N161 H166 0.984 . S
N161 H167 0.985 . S
C162 C156 1.379 . S
C162 C159 1.363 . S
C162 N160 1.356 . S
C163 C157 1.363 . S
C163 C158 1.379 . S
C163 N161 1.356 . S
N164 C156 1.356 . S
N164 H170 0.984 . S
N164 H171 0.984 . S
N165 C158 1.356 . S
N165 H168 0.984 . S
N165 H169 0.985 . S
H166 N161 0.984 . S
H167 N161 0.985 . S
H168 N165 0.984 . S
H169 N165 0.985 . S
H170 N164 0.984 . S
H171 N164 0.984 . S
H172 N160 0.984 . S
H173 N160 0.985 . S
C174 C175 1.363 . S
C174 C180 1.379 . S
C174 N182 1.356 . S
C175 C174 1.363 . S
C175 C181 1.363 . S
C176 C177 1.363 . S
C176 C181 1.379 . S
C176 N183 1.356 . S
C177 C176 1.363 . S
C177 C180 1.363 . S
N178 C180 1.356 . S
N178 H190 0.984 . S
N178 H191 0.985 . S
N179 C181 1.356 . S
N179 H184 0.984 . S
N179 H185 0.985 . S
C180 C174 1.379 . S
C180 C177 1.363 . S
C180 N178 1.356 . S
C181 C175 1.363 . S
C181 C176 1.379 . S
C181 N179 1.356 . S
N182 C174 1.356 . S
N182 H188 0.984 . S
N182 H189 0.984 . S
N183 C176 1.356 . S
N183 H186 0.984 . S
N183 H187 0.985 . S
H184 N179 0.984 . S
H185 N179 0.985 . S
H186 N183 0.984 . S
H187 N183 0.985 . S
H188 N182 0.984 . S
H189 N182 0.984 . S
H190 N178 0.984 . S
H191 N178 0.985 . S
C192 C193 1.363 . S
C192 C198 1.379 . S
C192 N200 1.356 . S
C193 C192 1.363 . S
C193 C199 1.363 . S
C194 C195 1.363 . S
C194 C199 1.379 . S
C194 N201 1.356 . S
C195 C194 1.363 . S
C195 C198 1.363 . S
N196 C198 1.356 . S
N196 H208 0.984 . S
N196 H209 0.985 . S
N197 C199 1.356 . S
N197 H202 0.984 . S
N197 H203 0.985 . S
C198 C192 1.379 . S
C198 C195 1.363 . S
C198 N196 1.356 . S
C199 C193 1.363 . S
C199 C194 1.379 . S
C199 N197 1.356 . S
N200 C192 1.356 . S
N200 H206 0.984 . S
N200 H207 0.984 . S
N201 C194 1.356 . S
N201 H204 0.984 . S
N201 H205 0.985 . S
H202 N197 0.984 . S
H203 N197 0.985 . S
H204 N201 0.984 . S
H205 N201 0.985 . S
H206 N200 0.984 . S
H207 N200 0.984 . S
H208 N196 0.984 . S
H209 N196 0.985 . S
C210 C211 1.363 . S
C210 C216 1.379 . S
C210 N218 1.356 . S
C211 C210 1.363 . S
C211 C217 1.363 . S
C212 C213 1.363 . S
C212 C217 1.379 . S
C212 N219 1.356 . S
C213 C212 1.363 . S
C213 C216 1.363 . S
N214 C216 1.356 . S
N214 H226 0.984 . S
N214 H227 0.985 . S
N215 C217 1.356 . S
N215 H220 0.984 . S
N215 H221 0.985 . S
C216 C210 1.379 . S
C216 C213 1.363 . S
C216 N214 1.356 . S
C217 C211 1.363 . S
C217 C212 1.379 . S
C217 N215 1.356 . S
N218 C210 1.356 . S
N218 H224 0.984 . S
N218 H225 0.984 . S
N219 C212 1.356 . S
N219 H222 0.984 . S
N219 H223 0.985 . S
H220 N215 0.984 . S
H221 N215 0.985 . S
H222 N219 0.984 . S
H223 N219 0.985 . S
H224 N218 0.984 . S
H225 N218 0.984 . S
H226 N214 0.984 . S
H227 N214 0.985 . S
C228 C229 1.363 . S
C228 C234 1.379 . S
C228 N236 1.356 . S
C229 C228 1.363 . S
C229 C235 1.363 . S
C230 C231 1.363 . S
C230 C235 1.379 . S
C230 N237 1.356 1_554 S
C231 C230 1.363 . S
C231 C234 1.363 . S
N232 C234 1.356 . S
N232 H244 0.984 . S
N232 H245 0.985 . S
N233 C235 1.356 1_556 S
N233 H238 0.984 . S
N233 H239 0.985 . S
C234 C228 1.379 . S
C234 C231 1.363 . S
C234 N232 1.356 . S
C235 C229 1.363 . S
C235 C230 1.379 . S
C235 N233 1.356 1_554 S
N236 C228 1.356 . S
N236 H242 0.984 . S
N236 H243 0.984 . S
N237 C230 1.356 1_556 S
N237 H240 0.984 . S
N237 H241 0.985 . S
H238 N233 0.984 . S
H239 N233 0.985 . S
H240 N237 0.984 . S
H241 N237 0.985 . S
H242 N236 0.984 . S
H243 N236 0.984 . S
H244 N232 0.984 . S
H245 N232 0.985 . S
C246 C247 1.363 1_655 S
C246 C252 1.379 . S
C246 N254 1.356 . S
C247 C246 1.363 1_455 S
C247 C253 1.363 . S
C248 C249 1.363 1_455 S
C248 C253 1.379 . S
C248 N255 1.356 . S
C249 C248 1.363 1_655 S
C249 C252 1.363 . S
N250 C252 1.356 . S
N250 H262 0.984 . S
N250 H263 0.985 . S
N251 C253 1.356 . S
N251 H256 0.984 . S
N251 H257 0.985 . S
C252 C246 1.379 . S
C252 C249 1.363 . S
C252 N250 1.356 . S
C253 C247 1.363 . S
C253 C248 1.379 . S
C253 N251 1.356 . S
N254 C246 1.356 . S
N254 H260 0.984 . S
N254 H261 0.984 . S
N255 C248 1.356 . S
N255 H258 0.984 . S
N255 H259 0.985 . S
H256 N251 0.984 . S
H257 N251 0.985 . S
H258 N255 0.984 . S
H259 N255 0.985 . S
H260 N254 0.984 . S
H261 N254 0.984 . S
H262 N250 0.984 . S
H263 N250 0.985 . S
C264 C265 1.363 1_565 S
C264 C270 1.379 . S
C264 N272 1.356 . S
C265 C264 1.363 1_545 S
C265 C271 1.363 . S
C266 C267 1.363 1_545 S
C266 C271 1.379 . S
C266 N273 1.356 . S
C267 C266 1.363 1_565 S
C267 C270 1.363 . S
N268 C270 1.356 . S
N268 H280 0.984 . S
N268 H281 0.985 . S
N269 C271 1.356 . S
N269 H274 0.984 . S
N269 H275 0.985 . S
C270 C264 1.379 . S
C270 C267 1.363 . S
C270 N268 1.356 . S
C271 C265 1.363 . S
C271 C266 1.379 . S
C271 N269 1.356 . S
N272 C264 1.356 . S
N272 H278 0.984 . S
N272 H279 0.984 . S
N273 C266 1.356 . S
N273 H276 0.984 . S
N273 H277 0.985 . S
H274 N269 0.984 . S
H275 N269 0.985 . S
H276 N273 0.984 . S
H277 N273 0.985 . S
H278 N272 0.984 . S
H279 N272 0.984 . S
H280 N268 0.984 . S
H281 N268 0.985 . S
C282 C283 1.363 . S
C282 C288 1.379 . S
C282 N290 1.356 . S
C283 C282 1.363 . S
C283 C289 1.363 . S
C284 C285 1.363 . S
C284 C289 1.379 . S
C284 N291 1.356 . S
C285 C284 1.363 . S
C285 C288 1.363 . S
N286 C288 1.356 . S
N286 H298 0.984 . S
N286 H299 0.985 . S
N287 C289 1.356 . S
N287 H292 0.984 . S
N287 H293 0.985 . S
C288 C282 1.379 . S
C288 C285 1.363 . S
C288 N286 1.356 . S
C289 C283 1.363 . S
C289 C284 1.379 . S
C289 N287 1.356 . S
N290 C282 1.356 . S
N290 H296 0.984 . S
N290 H297 0.984 . S
N291 C284 1.356 . S
N291 H294 0.984 . S
N291 H295 0.985 . S
H292 N287 0.984 . S
H293 N287 0.985 . S
H294 N291 0.984 . S
H295 N291 0.985 . S
H296 N290 0.984 . S
H297 N290 0.984 . S
H298 N286 0.984 . S
H299 N286 0.985 . S
C300 C301 1.363 1_655 S
C300 C306 1.379 . S
C300 N308 1.356 . S
C301 C300 1.363 1_455 S
C301 C307 1.363 1_554 S
C302 C303 1.363 1_456 S
C302 C307 1.379 . S
C302 N309 1.356 . S
C303 C302 1.363 1_654 S
C303 C306 1.363 . S
N304 C306 1.356 . S
N304 H316 0.984 . S
N304 H317 0.985 . S
N305 C307 1.356 . S
N305 H310 0.984 . S
N305 H311 0.985 . S
C306 C300 1.379 . S
C306 C303 1.363 . S
C306 N304 1.356 . S
C307 C301 1.363 1_556 S
C307 C302 1.379 . S
C307 N305 1.356 . S
N308 C300 1.356 . S
N308 H314 0.984 . S
N308 H315 0.994 . S
N309 C302 1.356 . S
N309 H312 0.994 . S
N309 H313 0.985 . S
H310 N305 0.984 . S
H311 N305 0.985 . S
H312 N309 0.994 . S
H313 N309 0.985 . S
H314 N308 0.984 . S
H315 N308 0.994 . S
H316 N304 0.984 . S
H317 N304 0.985 . S
C318 C319 1.363 1_545 S
C318 C324 1.379 . S
C318 N326 1.356 . S
C319 C318 1.363 1_565 S
C319 C325 1.363 . S
C320 C321 1.363 1_565 S
C320 C325 1.379 . S
C320 N327 1.356 . S
C321 C320 1.363 1_545 S
C321 C324 1.363 . S
N322 C324 1.356 . S
N322 H334 0.984 . S
N322 H335 0.985 . S
N323 C325 1.356 . S
N323 H328 0.984 . S
N323 H329 0.985 . S
C324 C318 1.379 . S
C324 C321 1.363 . S
C324 N322 1.356 . S
C325 C319 1.363 . S
C325 C320 1.379 . S
C325 N323 1.356 . S
N326 C318 1.356 . S
N326 H332 0.984 . S
N326 H333 0.985 . S
N327 C320 1.356 . S
N327 H330 0.985 . S
N327 H331 0.985 . S
H328 N323 0.984 . S
H329 N323 0.985 . S
H330 N327 0.985 . S
H331 N327 0.985 . S
H332 N326 0.984 . S
H333 N326 0.985 . S
H334 N322 0.984 . S
H335 N322 0.985 . S
C336 C337 1.363 . S
C336 C342 1.379 . S
C336 N344 1.356 . S
C337 C336 1.363 . S
C337 C343 1.363 . S
C338 C339 1.363 . S
C338 C343 1.379 . S
C338 N345 1.356 . S
C339 C338 1.363 . S
C339 C342 1.363 . S
N340 C342 1.356 . S
N340 H352 0.984 . S
N340 H353 0.985 . S
N341 C343 1.356 . S
N341 H346 0.984 . S
N341 H347 0.985 . S
C342 C336 1.379 . S
C342 C339 1.363 . S
C342 N340 1.356 . S
C343 C337 1.363 . S
C343 C338 1.379 . S
C343 N341 1.356 . S
N344 C336 1.356 . S
N344 H350 0.984 1_545 S
N344 H351 0.984 . S
N345 C338 1.356 . S
N345 H348 0.984 . S
N345 H349 0.985 . S
H346 N341 0.984 . S
H347 N341 0.985 . S
H348 N345 0.984 . S
H349 N345 0.985 . S
H350 N344 0.984 1_565 S
H351 N344 0.984 . S
H352 N340 0.984 . S
H353 N340 0.985 . S
C354 C355 1.363 . S
C354 C360 1.379 1_655 S
C354 N362 1.356 . S
C355 C354 1.363 . S
C355 C361 1.363 1_655 S
C356 C357 1.363 . S
C356 C361 1.379 . S
C356 N363 1.356 . S
C357 C356 1.363 . S
C357 C360 1.363 . S
N358 C360 1.356 . S
N358 H370 0.984 . S
N358 H371 0.985 . S
N359 C361 1.356 . S
N359 H364 0.984 1_455 S
N359 H365 0.985 . S
C360 C354 1.379 1_455 S
C360 C357 1.363 . S
C360 N358 1.356 . S
C361 C355 1.363 1_455 S
C361 C356 1.379 . S
C361 N359 1.356 . S
N362 C354 1.356 . S
N362 H368 0.984 . S
N362 H369 0.984 . S
N363 C356 1.356 . S
N363 H366 0.984 . S
N363 H367 0.985 . S
H364 N359 0.984 1_655 S
H365 N359 0.985 . S
H366 N363 0.984 . S
H367 N363 0.985 . S
H368 N362 0.984 . S
H369 N362 0.984 . S
H370 N358 0.984 . S
H371 N358 0.985 . S
C372 C373 1.363 . S
C372 C378 1.379 . S
C372 N380 1.356 . S
C373 C372 1.363 . S
C373 C379 1.363 1_565 S
C374 C375 1.363 . S
C374 C379 1.379 . S
C374 N381 1.356 . S
C375 C374 1.363 . S
C375 C378 1.363 1_545 S
N376 C378 1.356 . S
N376 H388 0.984 . S
N376 H389 0.985 1_565 S
N377 C379 1.356 . S
N377 H382 0.984 . S
N377 H383 0.985 . S
C378 C372 1.379 . S
C378 C375 1.363 1_565 S
C378 N376 1.356 . S
C379 C373 1.363 1_545 S
C379 C374 1.379 . S
C379 N377 1.356 . S
N380 C372 1.356 . S
N380 H386 0.984 . S
N380 H387 0.984 . S
N381 C374 1.356 . S
N381 H384 0.984 . S
N381 H385 0.985 . S
H382 N377 0.984 . S
H383 N377 0.985 . S
H384 N381 0.984 . S
H385 N381 0.985 . S
H386 N380 0.984 . S
H387 N380 0.984 . S
H388 N376 0.984 . S
H389 N376 0.985 1_545 S
C390 C391 1.363 . S
C390 C396 1.379 . S
C390 N398 1.356 . S
C391 C390 1.363 . S
C391 C397 1.363 . S
C392 C393 1.363 . S
C392 C397 1.379 . S
C392 N399 1.356 . S
C393 C392 1.363 . S
C393 C396 1.363 . S
N394 C396 1.356 . S
N394 H406 0.984 . S
N394 H407 0.985 . S
N395 C397 1.356 . S
N395 H400 0.984 . S
N395 H401 0.985 . S
C396 C390 1.379 . S
C396 C393 1.363 . S
C396 N394 1.356 . S
C397 C391 1.363 . S
C397 C392 1.379 . S
C397 N395 1.356 . S
N398 C390 1.356 . S
N398 H404 0.984 . S
N398 H405 0.984 . S
N399 C392 1.356 . S
N399 H402 0.984 . S
N399 H403 0.985 . S
H400 N395 0.984 . S
H401 N395 0.985 . S
H402 N399 0.984 . S
H403 N399 0.985 . S
H404 N398 0.984 . S
H405 N398 0.984 . S
H406 N394 0.984 . S
H407 N394 0.985 . S
C408 C409 1.363 1_655 S
C408 C414 1.379 . S
C408 N416 1.356 1_655 S
C409 C408 1.363 1_455 S
C409 C415 1.363 1_455 S
C410 C411 1.363 . S
C410 C415 1.379 . S
C410 N417 1.356 . S
C411 C410 1.363 . S
C411 C414 1.363 . S
N412 C414 1.356 . S
N412 H424 0.984 . S
N412 H425 0.985 . S
N413 C415 1.356 1_455 S
N413 H418 0.984 . S
N413 H419 0.985 1_455 S
C414 C408 1.379 . S
C414 C411 1.363 . S
C414 N412 1.356 . S
C415 C409 1.363 1_655 S
C415 C410 1.379 . S
C415 N413 1.356 1_655 S
N416 C408 1.356 1_455 S
N416 H422 0.984 . S
N416 H423 0.984 . S
N417 C410 1.356 . S
N417 H420 0.984 . S
N417 H421 0.985 . S
H418 N413 0.984 . S
H419 N413 0.985 1_655 S
H420 N417 0.984 . S
H421 N417 0.985 . S
H422 N416 0.984 . S
H423 N416 0.984 . S
H424 N412 0.984 . S
H425 N412 0.985 . S
C426 C427 1.363 . S
C426 C432 1.379 . S
C426 N434 1.356 . S
C427 C426 1.363 . S
C427 C433 1.363 1_545 S
C428 C429 1.363 . S
C428 C433 1.379 . S
C428 N435 1.356 . S
C429 C428 1.363 . S
C429 C432 1.363 1_565 S
N430 C432 1.356 . S
N430 H442 0.984 . S
N430 H443 0.985 1_545 S
N431 C433 1.356 . S
N431 H436 0.984 . S
N431 H437 0.985 . S
C432 C426 1.379 . S
C432 C429 1.363 1_545 S
C432 N430 1.356 . S
C433 C427 1.363 1_565 S
C433 C428 1.379 . S
C433 N431 1.356 . S
N434 C426 1.356 . S
N434 H440 0.984 . S
N434 H441 0.984 . S
N435 C428 1.356 . S
N435 H438 0.984 . S
N435 H439 0.985 . S
H436 N431 0.984 . S
H437 N431 0.985 . S
H438 N435 0.984 . S
H439 N435 0.985 . S
H440 N434 0.984 . S
H441 N434 0.984 . S
H442 N430 0.984 . S
H443 N430 0.985 1_565 S
C121 C82 1.068 . S
C123 C12 1.140 . S
C139 C102 1.068 . S
C141 C32 1.140 . S
C157 C2 1.068 . S
C159 C52 1.140 . S
C175 C22 1.068 . S
C177 C72 1.140 . S
C193 C42 1.068 . S
C195 C92 1.140 . S
C211 C62 1.068 . S
C213 C112 1.140 . S
C229 C18 1.513 . S
C231 C78 1.513 . S
C247 C98 1.513 . S
C249 C38 1.513 . S
C265 C118 1.512 . S
C267 C58 1.512 . S
C283 C59 1.429 . S
C285 C119 1.429 . S
C301 C19 1.429 . S
C303 C79 1.429 . S
C319 C99 1.429 . S
C321 C39 1.429 . S
C337 C104 1.053 . S
C339 C9 1.136 . S
C355 C29 1.136 . S
C357 C4 1.053 . S
C373 C49 1.136 . S
C375 C24 1.053 . S
C391 C44 1.053 . S
C393 C69 1.136 . S
C409 C89 1.136 . S
C411 C64 1.053 . S
C427 C109 1.136 . S
C429 C84 1.053 . S
