# Generated by pormake.
# Topology tfs, (6)-cn, num edge types: 1
# Building blocks:
#     Node 0, Type 0, BuildingBlock: CUWYAW_clean_sbu_0, # of connection points: 6
#     Node 1, Type 0, BuildingBlock: CUWYAW_clean_sbu_0, # of connection points: 6
#     Node 2, Type 0, BuildingBlock: CUWYAW_clean_sbu_0, # of connection points: 6
#     Node 3, Type 0, BuildingBlock: CUWYAW_clean_sbu_0, # of connection points: 6
#     Node 4, Type 0, BuildingBlock: CUWYAW_clean_sbu_0, # of connection points: 6
#     Node 5, Type 0, BuildingBlock: CUWYAW_clean_sbu_0, # of connection points: 6
#     Edge 6, Type (0, 0), BuildingBlock: KIFKEQ_clean_linker_1, # of connection points: 2
#     Edge 7, Type (0, 0), BuildingBlock: KIFKEQ_clean_linker_1, # of connection points: 2
#     Edge 8, Type (0, 0), BuildingBlock: KIFKEQ_clean_linker_1, # of connection points: 2
#     Edge 9, Type (0, 0), BuildingBlock: KIFKEQ_clean_linker_1, # of connection points: 2
#     Edge 10, Type (0, 0), BuildingBlock: KIFKEQ_clean_linker_1, # of connection points: 2
#     Edge 11, Type (0, 0), BuildingBlock: KIFKEQ_clean_linker_1, # of connection points: 2
#     Edge 12, Type (0, 0), BuildingBlock: KIFKEQ_clean_linker_1, # of connection points: 2
#     Edge 13, Type (0, 0), BuildingBlock: KIFKEQ_clean_linker_1, # of connection points: 2
#     Edge 14, Type (0, 0), BuildingBlock: KIFKEQ_clean_linker_1, # of connection points: 2
#     Edge 15, Type (0, 0), BuildingBlock: KIFKEQ_clean_linker_1, # of connection points: 2
#     Edge 16, Type (0, 0), BuildingBlock: KIFKEQ_clean_linker_1, # of connection points: 2
#     Edge 17, Type (0, 0), BuildingBlock: KIFKEQ_clean_linker_1, # of connection points: 2
#     Edge 18, Type (0, 0), BuildingBlock: KIFKEQ_clean_linker_1, # of connection points: 2
#     Edge 19, Type (0, 0), BuildingBlock: KIFKEQ_clean_linker_1, # of connection points: 2
#     Edge 20, Type (0, 0), BuildingBlock: KIFKEQ_clean_linker_1, # of connection points: 2
#     Edge 21, Type (0, 0), BuildingBlock: KIFKEQ_clean_linker_1, # of connection points: 2
#     Edge 22, Type (0, 0), BuildingBlock: KIFKEQ_clean_linker_1, # of connection points: 2
#     Edge 23, Type (0, 0), BuildingBlock: KIFKEQ_clean_linker_1, # of connection points: 2
# Relax obj value: 0.534
# Max RMSD: 0.288
# Mean RMSD: 0.288
data_MOF--net-tfs--node1-CUWYAW_clean_sbu_0--edge1-KIFKEQ_clean_linker_1
_symmetry_space_group_name_H-M    P1
_symmetry_Int_Tables_number       1
_symmetry_cell_setting            triclinic
loop_
_symmetry_equiv_pos_as_xyz
'x, y, z'
_cell_length_a     56.019748
_cell_length_b     56.031804
_cell_length_c     14.73931
_cell_angle_alpha  90.032029
_cell_angle_beta   89.989453
_cell_angle_gamma 120.00168
loop_
_atom_site_label
_atom_site_type_symbol
_atom_site_fract_x
_atom_site_fract_y
_atom_site_fract_z
_atom_type_partial_charge
C0 C 0.19302 0.36608 0.94179 0.0
Eu1 Eu 0.18583 0.4064 0.99693 0.0
C2 C 0.21371 0.35728 0.94703 0.0
C3 C 0.2376 0.37176 0.99977 0.0
C4 C 0.25667 0.36256 1.00543 0.0
C5 C 0.25217 0.33878 0.95824 0.0
C6 C 0.22821 0.32453 0.9051 0.0
C7 C 0.20918 0.3337 0.89966 0.0
C8 C 0.18618 0.41933 0.17465 0.0
C9 C 0.12125 0.38786 0.01189 0.0
C10 C 0.16183 0.48797 0.097 0.0
Eu11 Eu 0.16903 0.44863 0.0326 0.0
C12 C 0.17267 0.51771 0.08506 0.0
C13 C 0.18309 0.53071 1.00127 0.0
C14 C 0.19191 0.55874 0.99051 0.0
C15 C 0.19065 0.57428 0.06354 0.0
C16 C 0.18066 0.5612 0.1477 0.0
C17 C 0.17173 0.53319 0.15821 0.0
C18 C 0.16975 0.4374 0.8532 0.0
C19 C 0.23482 0.46827 0.01595 0.0
O20 O 0.18071 0.3656 0.01765 0.0
O21 O 0.1995 0.38802 0.89329 0.0
O22 O 0.20478 0.41515 0.13759 0.0
O23 O 0.16789 0.41567 0.11764 0.0
O24 O 0.13966 0.38442 0.96635 0.0
O25 O 0.12913 0.41011 0.06147 0.0
O26 O 0.17838 0.48059 0.1341 0.0
O27 O 0.14764 0.47202 0.02947 0.0
O28 O 0.15248 0.44361 0.88931 0.0
O29 O 0.18714 0.43954 0.91158 0.0
O30 O 0.21571 0.47427 0.04072 0.0
O31 O 0.2284 0.44335 0.98816 0.0
H32 H 0.24144 0.39007 0.03668 0.0
H33 H 0.27504 0.37421 0.04608 0.0
H34 H 0.22388 0.30596 0.86891 0.0
H35 H 0.19077 0.32222 0.85892 0.0
H36 H 0.18414 0.51913 0.94402 0.0
H37 H 0.19982 0.56829 0.92517 0.0
H38 H 0.17912 0.57247 0.20499 0.0
H39 H 0.16369 0.52349 0.22332 0.0
C40 C 0.8304 0.19111 0.94812 0.0
Eu41 Eu 0.78285 0.18395 1.00262 0.0
C42 C 0.8599 0.21166 0.95447 0.0
C43 C 0.86926 0.23549 1.00752 0.0
C44 C 0.89752 0.25448 0.01398 0.0
C45 C 0.91688 0.24998 0.9673 0.0
C46 C 0.90724 0.22607 0.91393 0.0
C47 C 0.87903 0.20712 0.90768 0.0
C48 C 0.77017 0.18442 0.18017 0.0
C49 C 0.73683 0.11951 0.01689 0.0
C50 C 0.67706 0.15956 0.10248 0.0
Eu51 Eu 0.72375 0.16723 0.03779 0.0
C52 C 0.65747 0.16949 0.08963 0.0
C53 C 0.65835 0.18444 0.01212 0.0
C54 C 0.63841 0.19223 0.99899 0.0
C55 C 0.61727 0.18516 0.0632 0.0
C56 C 0.61695 0.17066 0.14158 0.0
C57 C 0.63684 0.1629 0.15451 0.0
C58 C 0.73574 0.16781 0.85851 0.0
C59 C 0.76992 0.23297 0.02023 0.0
O60 O 0.81835 0.17851 0.02336 0.0
O61 O 0.81513 0.1979 0.89981 0.0
O62 O 0.79301 0.20293 0.14326 0.0
O63 O 0.75555 0.16612 0.12314 0.0
O64 O 0.75864 0.1379 0.97127 0.0
O65 O 0.72254 0.1274 0.06681 0.0
O66 O 0.70103 0.1769 0.13781 0.0
O67 O 0.67895 0.1452 0.03582 0.0
O68 O 0.71219 0.15069 0.8945 0.0
O69 O 0.75102 0.18519 0.91689 0.0
O70 O 0.74469 0.21396 0.04431 0.0
O71 O 0.78849 0.22648 0.99384 0.0
H72 H 0.85472 0.23935 0.04397 0.0
H73 H 0.90419 0.27282 0.05479 0.0
H74 H 0.92153 0.22173 0.87811 0.0
H75 H 0.87215 0.18876 0.86671 0.0
H76 H 0.67418 0.18969 0.96123 0.0
H77 H 0.63917 0.20319 0.9376 0.0
H78 H 0.60133 0.16534 0.19322 0.0
H79 H 0.63592 0.15144 0.21489 0.0
C80 C 0.64263 0.82901 0.94224 0.0
Eu81 Eu 0.60232 0.78146 0.99687 0.0
C82 C 0.65151 0.85846 0.94959 0.0
C83 C 0.63703 0.8676 1.00353 0.0
C84 C 0.64625 0.89582 0.01113 0.0
C85 C 0.67007 0.91534 0.96471 0.0
C86 C 0.68435 0.90592 0.9104 0.0
C87 C 0.67514 0.87775 0.90302 0.0
C88 C 0.58953 0.76895 0.17471 0.0
C89 C 0.62083 0.7355 0.01052 0.0
C90 C 0.52105 0.67592 0.09762 0.0
Eu91 Eu 0.56014 0.72247 0.03269 0.0
C92 C 0.49134 0.65673 0.08606 0.0
C93 C 0.47826 0.65357 1.00204 0.0
C94 C 0.45027 0.63409 0.99178 0.0
C95 C 0.43488 0.61762 0.06552 0.0
C96 C 0.44804 0.62128 0.14986 0.0
C97 C 0.476 0.64063 0.15989 0.0
C98 C 0.57117 0.73432 0.85315 0.0
C99 C 0.54047 0.76856 0.01617 0.0
O100 O 0.64336 0.81685 0.01695 0.0
O101 O 0.62046 0.81382 0.89431 0.0
O102 O 0.59367 0.7917 0.13767 0.0
O103 O 0.59316 0.75431 0.11762 0.0
O104 O 0.6241 0.75722 0.96474 0.0
O105 O 0.59877 0.72127 0.06101 0.0
O106 O 0.52823 0.69985 0.13428 0.0
O107 O 0.53701 0.6777 0.03012 0.0
O108 O 0.56493 0.71084 0.88924 0.0
O109 O 0.56911 0.74961 0.91161 0.0
O110 O 0.53448 0.74349 0.04117 0.0
O111 O 0.56536 0.78703 0.98809 0.0
H112 H 0.61868 0.85293 0.03984 0.0
H113 H 0.63458 0.90233 0.05264 0.0
H114 H 0.70294 0.92035 0.87475 0.0
H115 H 0.68662 0.87103 0.86137 0.0
H116 H 0.48973 0.66594 0.94426 0.0
H117 H 0.44065 0.632 0.92629 0.0
H118 H 0.43688 0.60874 0.20771 0.0
H119 H 0.48577 0.64275 0.22516 0.0
C120 C 0.81638 0.64052 0.93387 0.0
Eu121 Eu 0.82387 0.60038 0.98848 0.0
C122 C 0.79581 0.64941 0.941 0.0
C123 C 0.7724 0.63523 0.996 0.0
C124 C 0.75348 0.64454 1.00362 0.0
C125 C 0.75766 0.66815 0.95617 0.0
C126 C 0.78112 0.6821 0.90071 0.0
C127 C 0.80001 0.6728 0.89331 0.0
C128 C 0.82359 0.58746 0.16607 0.0
C129 C 0.88849 0.6196 1.00351 0.0
C130 C 0.84957 0.51984 0.08553 0.0
Eu131 Eu 0.84128 0.55868 0.02353 0.0
C132 C 0.83967 0.49023 0.07242 0.0
C133 C 0.85904 0.48168 0.05894 0.0
C134 C 0.85051 0.45378 0.04808 0.0
C135 C 0.82237 0.43378 0.05101 0.0
C136 C 0.80292 0.44238 0.06413 0.0
C137 C 0.81148 0.47037 0.07444 0.0
C138 C 0.84052 0.57003 0.84426 0.0
C139 C 0.77535 0.53827 1.00708 0.0
O140 O 0.82927 0.6413 1.00866 0.0
O141 O 0.80942 0.61834 0.88601 0.0
O142 O 0.80486 0.59144 0.12903 0.0
O143 O 0.84198 0.59134 0.10917 0.0
O144 O 0.86998 0.62268 0.95729 0.0
O145 O 0.88075 0.59749 0.05357 0.0
O146 O 0.83277 0.52676 0.1236 0.0
O147 O 0.86364 0.53614 0.01864 0.0
O148 O 0.85805 0.5642 0.88037 0.0
O149 O 0.82297 0.56754 0.90256 0.0
O150 O 0.79464 0.53252 0.03191 0.0
O151 O 0.78152 0.56312 0.97946 0.0
H152 H 0.76884 0.61706 0.0332 0.0
H153 H 0.73547 0.63313 0.04603 0.0
H154 H 0.78519 0.70053 0.86422 0.0
H155 H 0.81806 0.68405 0.85083 0.0
H156 H 0.88089 0.49663 0.0575 0.0
H157 H 0.86601 0.44781 0.03926 0.0
H158 H 0.78108 0.42748 0.06582 0.0
H159 H 0.79608 0.47642 0.08428 0.0
C160 C 0.17996 0.81464 0.93741 0.0
Eu161 Eu 0.22797 0.82286 0.9908 0.0
C162 C 0.1502 0.79426 0.94746 0.0
C163 C 0.13525 0.79497 0.02309 0.0
C164 C 0.1069 0.77661 0.02993 0.0
C165 C 0.09275 0.75716 0.96116 0.0
C166 C 0.10773 0.75645 0.88557 0.0
C167 C 0.13608 0.77483 0.87868 0.0
C168 C 0.24047 0.82288 0.16886 0.0
C169 C 0.27349 0.88745 1.00292 0.0
C170 C 0.33366 0.84823 0.09283 0.0
Eu171 Eu 0.287 0.8402 0.027 0.0
C172 C 0.35284 0.83768 0.08208 0.0
C173 C 0.35539 0.8268 0.99918 0.0
C174 C 0.37476 0.81814 0.98955 0.0
C175 C 0.39172 0.82003 0.06286 0.0
C176 C 0.38868 0.83051 0.14612 0.0
C177 C 0.36945 0.83929 0.1555 0.0
C178 C 0.27522 0.83917 0.8473 0.0
C179 C 0.24146 0.77428 0.01079 0.0
O180 O 0.19297 0.82923 1.00882 0.0
O181 O 0.19497 0.80725 0.89006 0.0
O182 O 0.21782 0.80412 0.13175 0.0
O183 O 0.25501 0.84115 0.11172 0.0
O184 O 0.2519 0.86877 0.95707 0.0
O185 O 0.2878 0.87989 0.05416 0.0
O186 O 0.30976 0.83154 0.12978 0.0
O187 O 0.33179 0.86208 0.02451 0.0
O188 O 0.29864 0.85657 0.88354 0.0
O189 O 0.25998 0.82178 0.90568 0.0
O190 O 0.26649 0.79356 0.03554 0.0
O191 O 0.22282 0.78047 0.98274 0.0
H192 H 0.14533 0.80994 0.07672 0.0
H193 H 0.09598 0.77805 0.08839 0.0
H194 H 0.09758 0.74154 0.83183 0.0
H195 H 0.14693 0.77395 0.81905 0.0
H196 H 0.3426 0.82524 0.94179 0.0
H197 H 0.37637 0.80985 0.92493 0.0
H198 H 0.40162 0.83252 0.20355 0.0
H199 H 0.36778 0.84768 0.21991 0.0
C200 C 0.36703 0.17766 0.92395 0.0
Eu201 Eu 0.40709 0.2247 0.98301 0.0
C202 C 0.35818 0.1482 0.93042 0.0
C203 C 0.37248 0.13901 0.98493 0.0
C204 C 0.36326 0.11079 0.99223 0.0
C205 C 0.33957 0.0913 0.94513 0.0
C206 C 0.3255 0.10078 0.89009 0.0
C207 C 0.33473 0.12897 0.8829 0.0
C208 C 0.41963 0.23655 0.16131 0.0
C209 C 0.38914 0.27109 0.99973 0.0
C210 C 0.48926 0.33021 0.08206 0.0
Eu211 Eu 0.44976 0.28355 0.01913 0.0
C212 C 0.51904 0.34912 0.07101 0.0
C213 C 0.53221 0.35228 0.98716 0.0
C214 C 0.56026 0.37161 0.97743 0.0
C215 C 0.57563 0.38792 0.05154 0.0
C216 C 0.56238 0.38421 0.13573 0.0
C217 C 0.53436 0.36502 0.14523 0.0
C218 C 0.43805 0.27124 0.84004 0.0
C219 C 0.46879 0.23693 1.00381 0.0
O220 O 0.36577 0.18946 0.9989 0.0
O221 O 0.38955 0.19308 0.8778 0.0
O222 O 0.41404 0.21334 0.12401 0.0
O223 O 0.41683 0.25182 0.10453 0.0
O224 O 0.38552 0.24931 0.95338 0.0
O225 O 0.41142 0.28517 0.04948 0.0
O226 O 0.48175 0.30642 0.12027 0.0
O227 O 0.47349 0.32828 0.01375 0.0
O228 O 0.44357 0.29455 0.87596 0.0
O229 O 0.44064 0.25634 0.89851 0.0
O230 O 0.47518 0.26225 0.02725 0.0
O231 O 0.44374 0.21854 0.97678 0.0
H232 H 0.39061 0.15362 0.02237 0.0
H233 H 0.37442 0.10423 0.03602 0.0
H234 H 0.30746 0.08644 0.85183 0.0
H235 H 0.32348 0.13574 0.84038 0.0
H236 H 0.52076 0.34006 0.92907 0.0
H237 H 0.56994 0.37373 0.91203 0.0
H238 H 0.57352 0.39664 0.19385 0.0
H239 H 0.52453 0.3629 0.21039 0.0
H240 H 0.34071 0.24787 0.90346 0.0
H241 H 0.39078 0.31517 0.08517 0.0
H242 H 0.30724 0.26362 0.8948 0.0
H243 H 0.35774 0.33117 0.07499 0.0
H244 H 0.27016 0.31822 0.82224 0.0
H245 H 0.30248 0.3012 0.83322 0.0
H246 H 0.31169 0.31918 0.1203 0.0
H247 H 0.27942 0.33628 0.10921 0.0
C248 C 0.34461 0.26602 0.94147 0.0
C249 C 0.36844 0.28022 0.99503 0.0
C250 C 0.3255 0.27516 0.93607 0.0
C251 C 0.32977 0.2987 0.98416 0.0
C252 C 0.35355 0.31276 0.03805 0.0
C253 C 0.37262 0.30364 0.04343 0.0
C254 C 0.27891 0.31835 0.88787 0.0
C255 C 0.27218 0.32867 0.96483 0.0
C256 C 0.29743 0.30853 0.89419 0.0
C257 C 0.30971 0.30877 0.97765 0.0
C258 C 0.30296 0.31907 0.05464 0.0
C259 C 0.28446 0.32891 0.04828 0.0
H260 H 0.09654 0.33941 0.91553 0.0
H261 H 0.07846 0.389 0.09657 0.0
H262 H 0.04741 0.30559 0.9063 0.0
H263 H 0.02953 0.35562 0.08581 0.0
H264 H 0.95567 0.26802 0.8321 0.0
H265 H 1.00498 0.30047 0.84395 0.0
H266 H 0.9957 0.30949 0.13081 0.0
H267 H 0.94637 0.2771 0.11885 0.0
C268 C 0.08213 0.34313 0.95327 0.0
C269 C 0.09149 0.36694 1.00678 0.0
C270 C 0.05393 0.32382 0.94755 0.0
C271 C 0.03446 0.32786 0.99528 0.0
C272 C 0.04392 0.35161 0.04915 0.0
C273 C 0.07204 0.37088 0.05485 0.0
C274 C 0.96418 0.27675 0.89788 0.0
C275 C 0.947 0.26996 0.9745 0.0
C276 C 0.99249 0.29534 0.9047 0.0
C277 C 1.00438 0.30762 0.98833 0.0
C278 C 0.98721 0.30077 0.06501 0.0
C279 C 0.95889 0.2822 0.05817 0.0
H280 H 0.69293 0.07663 0.10136 0.0
H281 H 0.76044 0.09494 0.91928 0.0
H282 H 0.67723 0.02769 0.08894 0.0
H283 H 0.74499 0.04584 0.90837 0.0
H284 H 0.67253 0.94431 0.11777 0.0
H285 H 0.68949 0.99359 0.13181 0.0
H286 H 0.70747 0.00377 0.8448 0.0
H287 H 0.69059 0.95452 0.83086 0.0
C288 C 0.70456 0.07025 0.05908 0.0
C289 C 0.72794 0.08977 0.01116 0.0
C290 C 0.69563 0.04213 0.05242 0.0
C291 C 0.70983 0.03276 0.99768 0.0
C292 C 0.73335 0.0523 0.95023 0.0
C293 C 0.74231 0.08048 0.95692 0.0
C294 C 0.67988 0.95702 0.05751 0.0
C295 C 0.68016 0.94541 0.97318 0.0
C296 C 0.68964 0.9853 0.06556 0.0
C297 C 0.69988 1.00271 0.98944 0.0
C298 C 0.70017 0.99109 0.90513 0.0
C299 C 0.69044 0.96282 0.89711 0.0
H300 H 0.73203 0.67156 0.10997 0.0
H301 H 0.73847 0.6881 0.82213 0.0
H302 H 0.6999 0.68875 0.12442 0.0
H303 H 0.7063 0.70523 0.83651 0.0
H304 H 0.62015 0.69196 0.0961 0.0
H305 H 0.65331 0.67619 0.08308 0.0
H306 H 0.70218 0.74319 0.89919 0.0
H307 H 0.66859 0.75872 0.91075 0.0
C308 C 0.7264 0.67862 0.04961 0.0
C309 C 0.73781 0.67839 0.96487 0.0
C310 C 0.70799 0.68852 0.05789 0.0
C311 C 0.7005 0.6984 0.98162 0.0
C312 C 0.71195 0.69821 0.89691 0.0
C313 C 0.73037 0.68833 0.88864 0.0
C314 C 0.63798 0.70341 0.05296 0.0
C315 C 0.64166 0.7266 1.00432 0.0
C316 C 0.65712 0.69444 0.04596 0.0
C317 C 0.68046 0.7084 0.99015 0.0
C318 C 0.68426 0.73173 0.94192 0.0
C319 C 0.66508 0.74074 0.94898 0.0
H320 H 0.05393 0.74049 0.82614 0.0
H321 H 0.06298 0.73001 0.11209 0.0
H322 H 1.00461 0.70792 0.83705 0.0
H323 H 0.01354 0.69842 0.12378 0.0
H324 H 0.93138 0.61873 0.08792 0.0
H325 H 0.9802 0.65238 0.07761 0.0
H326 H 0.96191 0.7023 0.89917 0.0
H327 H 0.91285 0.66816 0.90787 0.0
C328 C 0.04542 0.73125 0.89135 0.0
C329 C 0.0625 0.73779 0.96813 0.0
C330 C 0.01706 0.71284 0.89785 0.0
C331 C 0.00507 0.7005 0.98127 0.0
C332 C 0.02211 0.70727 0.05821 0.0
C333 C 0.05045 0.72565 0.05171 0.0
C334 C 0.93768 0.63689 0.04655 0.0
C335 C 0.91815 0.64071 0.99862 0.0
C336 C 0.96574 0.65631 0.04112 0.0
C337 C 0.97505 0.68012 0.98775 0.0
C338 C 0.9555 0.68404 0.94009 0.0
C339 C 0.92735 0.66455 0.94549 0.0
H340 H 0.25016 0.91154 0.90136 0.0
H341 H 0.31682 0.93065 0.0882 0.0
H342 H 0.26587 0.96066 0.88676 0.0
H343 H 0.33215 0.97948 0.07471 0.0
H344 H 0.37012 0.06544 0.94975 0.0
H345 H 0.35365 0.01629 0.96373 0.0
H346 H 0.26967 0.99977 0.97308 0.0
H347 H 0.28614 0.04898 0.9594 0.0
C348 C 0.26805 0.92617 0.93968 0.0
C349 C 0.28226 0.91713 0.9957 0.0
C350 C 0.27698 0.95432 0.93163 0.0
C351 C 0.30036 0.97405 0.97924 0.0
C352 C 0.31435 0.96491 0.03591 0.0
C353 C 0.30542 0.93684 0.04406 0.0
C354 C 0.34816 0.05138 0.95562 0.0
C355 C 0.32949 0.06123 0.95353 0.0
C356 C 0.3387 0.02316 0.96359 0.0
C357 C 0.31032 0.00405 0.96967 0.0
C358 C 0.29163 0.01387 0.96724 0.0
C359 C 0.30109 0.0421 0.95938 0.0
H360 H 0.19274 0.72833 0.96338 0.0
H361 H 0.27428 0.75382 0.06646 0.0
H362 H 0.18112 0.68022 0.97332 0.0
H363 H 0.26275 0.70586 0.07502 0.0
H364 H 0.22103 0.61689 0.18013 0.0
H365 H 0.23321 0.665 0.16495 0.0
H366 H 0.19232 0.64695 0.90476 0.0
H367 H 0.17944 0.59858 0.92121 0.0
C368 C 0.20823 0.72373 0.98771 0.0
C369 C 0.23441 0.745 0.01443 0.0
C370 C 0.20161 0.69614 0.99289 0.0
C371 C 0.22098 0.68918 0.02519 0.0
C372 C 0.24722 0.71047 0.05105 0.0
C373 C 0.25387 0.73802 0.04567 0.0
C374 C 0.21454 0.62316 0.11986 0.0
C375 C 0.1992 0.60388 0.05201 0.0
C376 C 0.22175 0.65079 0.11072 0.0
C377 C 0.21373 0.65984 0.03363 0.0
C378 C 0.19858 0.64061 0.96539 0.0
C379 C 0.19147 0.61296 0.97434 0.0
H380 H 0.52258 0.26921 0.05575 0.0
H381 H 0.46453 0.18734 0.95997 0.0
H382 H 0.55816 0.25653 0.06544 0.0
H383 H 0.50042 0.17486 0.96785 0.0
H384 H 0.56202 0.15357 0.09782 0.0
H385 H 0.52648 0.16612 0.08036 0.0
H386 H 0.5871 0.24544 0.97377 0.0
H387 H 0.62293 0.2333 0.99488 0.0
C388 C 0.5174 0.24854 0.03616 0.0
C389 C 0.4906 0.22927 1.00734 0.0
C390 C 0.53792 0.24133 0.04112 0.0
C391 C 0.5322 0.21468 0.01738 0.0
C392 C 0.50546 0.19547 0.98776 0.0
C393 C 0.4849 0.20268 0.9828 0.0
C394 C 0.56785 0.17379 0.07136 0.0
C395 C 0.59542 0.19251 0.0485 0.0
C396 C 0.54737 0.18085 0.0602 0.0
C397 C 0.55389 0.20681 0.02575 0.0
C398 C 0.58139 0.22539 1.00154 0.0
C399 C 0.6019 0.21832 0.0127 0.0
H400 H 0.39231 0.60578 0.18171 0.0
H401 H 0.41064 0.58124 0.92512 0.0
H402 H 0.34424 0.56966 0.16753 0.0
H403 H 0.36229 0.54553 0.90962 0.0
H404 H 0.28064 0.46496 0.97068 0.0
H405 H 0.32885 0.50137 0.97999 0.0
H406 H 0.30352 0.5581 0.07663 0.0
H407 H 0.25552 0.52181 0.0687 0.0
C408 C 0.38606 0.59269 0.12218 0.0
C409 C 0.40533 0.59636 0.05466 0.0
C410 C 0.35845 0.57215 0.1136 0.0
C411 C 0.34941 0.5547 0.0374 0.0
C412 C 0.36863 0.55845 0.96955 0.0
C413 C 0.39627 0.57911 0.97795 0.0
C414 C 0.28534 0.48521 0.99375 0.0
C415 C 0.26415 0.49038 0.01925 0.0
C416 C 0.31298 0.50612 0.9986 0.0
C417 C 0.32005 0.53263 0.02933 0.0
C418 C 0.29883 0.53782 0.05394 0.0
C419 C 0.27125 0.51699 0.04892 0.0
H420 H 0.84103 0.40963 0.93059 0.0
H421 H 0.78391 0.39081 0.15216 0.0
H422 H 0.82792 0.36115 0.92024 0.0
H423 H 0.77106 0.3424 0.143 0.0
H424 H 0.73558 0.25382 0.04808 0.0
H425 H 0.74747 0.30194 0.05113 0.0
H426 H 0.83284 0.32682 1.00157 0.0
H427 H 0.82082 0.27862 0.99594 0.0
C428 C 0.82575 0.39513 0.97739 0.0
C429 C 0.81353 0.40406 0.04228 0.0
C430 C 0.81829 0.36734 0.97168 0.0
C431 C 0.79851 0.34782 0.03104 0.0
C432 C 0.78606 0.35675 0.09527 0.0
C433 C 0.79343 0.38452 0.10063 0.0
C434 C 0.75691 0.26953 0.03772 0.0
C435 C 0.77725 0.26232 0.02181 0.0
C436 C 0.76375 0.29718 0.03995 0.0
C437 C 0.79113 0.31833 0.02681 0.0
C438 C 0.81147 0.31109 0.01063 0.0
C439 C 0.8046 0.28342 1.00792 0.0
H440 H 0.42724 0.83069 0.92097 0.0
H441 H 0.40405 0.79035 0.18186 0.0
H442 H 0.46278 0.81778 0.90636 0.0
H443 H 0.43999 0.77811 0.16843 0.0
H444 H 0.48716 0.73615 0.07202 0.0
H445 H 0.45093 0.74798 0.07943 0.0
H446 H 0.50732 0.82927 0.9763 0.0
H447 H 0.54365 0.81736 0.9676 0.0
C448 C 0.42963 0.81893 0.97493 0.0
C449 C 0.41283 0.81154 0.05259 0.0
C450 C 0.45018 0.81181 0.96701 0.0
C451 C 0.45425 0.79697 0.03631 0.0
C452 C 0.43724 0.78933 0.11345 0.0
C453 C 0.41681 0.79657 0.12156 0.0
C454 C 0.49191 0.75655 0.0507 0.0
C455 C 0.5184 0.77583 0.01939 0.0
C456 C 0.47112 0.76336 0.05542 0.0
C457 C 0.47625 0.78959 0.02878 0.0
C458 C 0.50263 0.80879 0.99648 0.0
C459 C 0.5235 0.80201 0.992 0.0
H460 H 0.72934 0.54109 0.96113 0.0
H461 H 0.75505 0.48474 0.05935 0.0
H462 H 0.68127 0.50433 0.96907 0.0
H463 H 0.70718 0.44807 0.06579 0.0
H464 H 0.61805 0.39954 0.16816 0.0
H465 H 0.66608 0.43583 0.15524 0.0
H466 H 0.64837 0.46029 0.8975 0.0
H467 H 0.60005 0.42444 0.9118 0.0
C468 C 0.72479 0.52087 0.98396 0.0
C469 C 0.74611 0.51594 0.00987 0.0
C470 C 0.69724 0.49976 0.98799 0.0
C471 C 0.69037 0.47327 0.01826 0.0
C472 C 0.71171 0.46832 0.04338 0.0
C473 C 0.73921 0.48937 0.03922 0.0
C474 C 0.62437 0.41273 0.10891 0.0
C475 C 0.6052 0.40914 0.04114 0.0
C476 C 0.65197 0.43337 0.10106 0.0
C477 C 0.66108 0.45098 0.02534 0.0
C478 C 0.64196 0.44725 0.95712 0.0
C479 C 0.61435 0.42651 0.96481 0.0
H480 H 0.20383 0.42329 0.76426 0.0
H481 H 0.14199 0.44632 0.71831 0.0
H482 H 0.20743 0.41845 0.60122 0.0
H483 H 0.14683 0.44352 0.55543 0.0
H484 H 0.141 0.41113 0.27015 0.0
H485 H 0.13693 0.41466 0.43335 0.0
H486 H 0.22343 0.44087 0.4644 0.0
H487 H 0.22676 0.43552 0.3015 0.0
C488 C 0.1911 0.42744 0.71913 0.0
C489 C 0.17244 0.4349 0.75414 0.0
C490 C 0.19337 0.42501 0.62527 0.0
C491 C 0.17743 0.43056 0.56388 0.0
C492 C 0.15904 0.43841 0.59967 0.0
C493 C 0.1564 0.44028 0.69343 0.0
C494 C 0.15911 0.41764 0.31209 0.0
C495 C 0.18416 0.42295 0.27327 0.0
C496 C 0.15688 0.41989 0.40594 0.0
C497 C 0.17984 0.42811 0.46334 0.0
C498 C 0.20507 0.4339 0.42352 0.0
C499 C 0.20712 0.4311 0.32982 0.0
H500 H 0.69896 0.14033 0.72355 0.0
H501 H 0.78403 0.2016 0.76978 0.0
H502 H 0.7066 0.14522 0.56069 0.0
H503 H 0.79245 0.20526 0.60673 0.0
H504 H 0.79475 0.22489 0.30727 0.0
H505 H 0.7861 0.22151 0.47019 0.0
H506 H 0.72543 0.13516 0.43853 0.0
H507 H 0.73302 0.13929 0.27534 0.0
C508 C 0.71945 0.15462 0.69873 0.0
C509 C 0.74093 0.1705 0.75949 0.0
C510 C 0.72395 0.15729 0.60499 0.0
C511 C 0.75024 0.17554 0.56929 0.0
C512 C 0.77179 0.19131 0.63074 0.0
C513 C 0.7671 0.18901 0.72459 0.0
C514 C 0.77945 0.20527 0.33546 0.0
C515 C 0.76454 0.18238 0.27876 0.0
C516 C 0.77463 0.2032 0.42916 0.0
C517 C 0.75509 0.17799 0.46879 0.0
C518 C 0.74023 0.15509 0.41125 0.0
C519 C 0.74469 0.15735 0.31741 0.0
H520 H 0.58555 0.78257 0.76443 0.0
H521 H 0.56207 0.69761 0.71807 0.0
H522 H 0.59047 0.79105 0.60143 0.0
H523 H 0.56496 0.70529 0.55521 0.0
H524 H 0.59752 0.73183 0.2701 0.0
H525 H 0.59391 0.72418 0.43328 0.0
H526 H 0.56809 0.78475 0.46451 0.0
H527 H 0.5735 0.79346 0.30166 0.0
C528 C 0.58131 0.76568 0.71922 0.0
C529 C 0.5737 0.73953 0.7541 0.0
C530 C 0.58378 0.7704 0.62538 0.0
C531 C 0.57814 0.7489 0.56387 0.0
C532 C 0.57014 0.72262 0.59954 0.0
C533 C 0.56822 0.71809 0.69328 0.0
C534 C 0.59108 0.74347 0.31208 0.0
C535 C 0.58589 0.7633 0.27332 0.0
C536 C 0.58878 0.73897 0.40591 0.0
C537 C 0.58065 0.75378 0.46336 0.0
C538 C 0.57499 0.77331 0.4236 0.0
C539 C 0.57783 0.77817 0.32992 0.0
H540 H 0.80606 0.58364 0.75557 0.0
H541 H 0.86857 0.56153 0.70937 0.0
H542 H 0.80232 0.58834 0.59254 0.0
H543 H 0.86363 0.56421 0.54652 0.0
H544 H 0.86901 0.59641 0.26148 0.0
H545 H 0.8732 0.59306 0.42467 0.0
H546 H 0.78644 0.56568 0.45582 0.0
H547 H 0.78296 0.57084 0.29289 0.0
C548 C 0.81891 0.57966 0.71038 0.0
C549 C 0.83778 0.57249 0.74528 0.0
C550 C 0.81656 0.58201 0.61656 0.0
C551 C 0.83266 0.57668 0.55513 0.0
C552 C 0.85129 0.56914 0.59082 0.0
C553 C 0.85399 0.56735 0.68454 0.0
C554 C 0.85087 0.58967 0.30344 0.0
C555 C 0.82569 0.58397 0.26466 0.0
C556 C 0.85317 0.58753 0.39727 0.0
C557 C 0.83017 0.57904 0.45466 0.0
C558 C 0.80482 0.57287 0.4149 0.0
C559 C 0.80269 0.57556 0.32121 0.0
H560 H 0.27754 0.86806 0.26434 0.0
H561 H 0.21607 0.78236 0.29572 0.0
H562 H 0.28523 0.87212 0.42755 0.0
H563 H 0.22481 0.78568 0.45856 0.0
H564 H 0.22695 0.80533 0.75851 0.0
H565 H 0.21845 0.80178 0.5955 0.0
H566 H 0.30421 0.86206 0.54941 0.0
H567 H 0.31193 0.8668 0.7123 0.0
C568 C 0.26594 0.84997 0.30629 0.0
C569 C 0.24614 0.82493 0.26747 0.0
C570 C 0.27046 0.85218 0.40012 0.0
C571 C 0.2557 0.82923 0.45751 0.0
C572 C 0.23621 0.80403 0.41769 0.0
C573 C 0.23133 0.80199 0.32402 0.0
C574 C 0.24384 0.81797 0.71333 0.0
C575 C 0.27001 0.8365 0.74824 0.0
C576 C 0.23911 0.81574 0.61949 0.0
C577 C 0.2606 0.83162 0.55802 0.0
C578 C 0.2869 0.8499 0.59372 0.0
C579 C 0.29144 0.85248 0.68747 0.0
H580 H 0.44423 0.23253 0.74659 0.0
H581 H 0.42445 0.29707 0.7111 0.0
H582 H 0.44105 0.22478 0.58322 0.0
H583 H 0.41948 0.28838 0.54836 0.0
H584 H 0.43702 0.28533 0.25008 0.0
H585 H 0.44221 0.29372 0.41315 0.0
H586 H 0.41268 0.20709 0.45908 0.0
H587 H 0.40935 0.19936 0.29602 0.0
C588 C 0.43883 0.24482 0.7037 0.0
C589 C 0.43472 0.26549 0.7414 0.0
C590 C 0.4368 0.24029 0.60977 0.0
C591 C 0.43003 0.25594 0.55125 0.0
C592 C 0.42539 0.27628 0.59003 0.0
C593 C 0.42797 0.28115 0.6837 0.0
C594 C 0.43185 0.26818 0.29531 0.0
C595 C 0.42286 0.24173 0.26034 0.0
C596 C 0.43455 0.27288 0.38915 0.0
C597 C 0.42777 0.2511 0.45063 0.0
C598 C 0.41867 0.22459 0.41481 0.0
C599 C 0.41652 0.22004 0.32099 0.0
loop_
_geom_bond_atom_site_label_1
_geom_bond_atom_site_label_2
_geom_bond_distance
_geom_bond_site_symmetry_2
_ccdc_geom_bond_type
C0 Eu1 2.835 1_556 S
C0 C2 1.500 . S
C0 O20 1.257 . S
C0 O21 1.260 1_556 S
Eu1 C0 2.835 1_554 S
Eu1 O20 2.473 1_554 S
Eu1 O21 2.480 . S
Eu1 O22 2.430 . S
Eu1 O23 2.670 . S
Eu1 O24 2.394 . S
Eu1 O29 2.355 1_554 S
Eu1 O31 2.374 . S
C2 C0 1.500 . S
C2 C3 1.377 1_556 S
C2 C7 1.377 . S
C3 C2 1.377 1_554 S
C3 C4 1.395 . S
C3 H32 0.931 . S
C4 C3 1.395 . S
C4 C5 1.383 1_554 S
C4 H33 0.931 . S
C5 C4 1.383 1_556 S
C5 C6 1.394 . S
C6 C5 1.394 . S
C6 C7 1.378 . S
C6 H34 0.931 . S
C7 C2 1.377 . S
C7 C6 1.378 . S
C7 H35 0.931 . S
C8 O22 1.259 . S
C8 O23 1.270 . S
C9 O24 1.251 . S
C9 O25 1.251 . S
C10 Eu11 2.835 1_554 S
C10 C12 1.500 . S
C10 O26 1.257 . S
C10 O27 1.260 1_554 S
Eu11 C10 2.835 1_556 S
Eu11 O23 2.355 1_556 S
Eu11 O25 2.374 1_556 S
Eu11 O26 2.473 1_556 S
Eu11 O27 2.480 . S
Eu11 O28 2.430 . S
Eu11 O29 2.670 . S
Eu11 O30 2.394 . S
C12 C10 1.500 . S
C12 C13 1.377 1_554 S
C12 C17 1.377 . S
C13 C12 1.377 1_556 S
C13 C14 1.395 . S
C13 H36 0.931 . S
C14 C13 1.395 . S
C14 C15 1.383 1_556 S
C14 H37 0.931 . S
C15 C14 1.383 1_554 S
C15 C16 1.394 . S
C16 C15 1.394 . S
C16 C17 1.378 . S
C16 H38 0.931 . S
C17 C12 1.377 . S
C17 C16 1.378 . S
C17 H39 0.931 . S
C18 O28 1.259 . S
C18 O29 1.270 . S
C19 O30 1.251 . S
C19 O31 1.251 1_556 S
O20 C0 1.257 . S
O20 Eu1 2.473 1_556 S
O21 C0 1.260 1_554 S
O21 Eu1 2.480 . S
O22 Eu1 2.430 . S
O22 C8 1.259 . S
O23 Eu1 2.670 . S
O23 C8 1.270 . S
O23 Eu11 2.355 1_554 S
O24 Eu1 2.394 . S
O24 C9 1.251 . S
O25 C9 1.251 . S
O25 Eu11 2.374 1_554 S
O26 C10 1.257 . S
O26 Eu11 2.473 1_554 S
O27 C10 1.260 1_556 S
O27 Eu11 2.480 . S
O28 Eu11 2.430 . S
O28 C18 1.259 . S
O29 Eu1 2.355 1_556 S
O29 Eu11 2.670 . S
O29 C18 1.270 . S
O30 Eu11 2.394 . S
O30 C19 1.251 . S
O31 Eu1 2.374 . S
O31 C19 1.251 1_554 S
H32 C3 0.931 . S
H33 C4 0.931 . S
H34 C6 0.931 . S
H35 C7 0.931 . S
H36 C13 0.931 . S
H37 C14 0.931 . S
H38 C16 0.931 . S
H39 C17 0.931 . S
C40 Eu41 2.835 1_556 S
C40 C42 1.500 . S
C40 O60 1.257 . S
C40 O61 1.260 1_556 S
Eu41 C40 2.835 1_554 S
Eu41 O60 2.473 1_554 S
Eu41 O61 2.480 . S
Eu41 O62 2.430 . S
Eu41 O63 2.670 . S
Eu41 O64 2.394 . S
Eu41 O69 2.355 1_554 S
Eu41 O71 2.374 . S
C42 C40 1.500 . S
C42 C43 1.377 1_556 S
C42 C47 1.377 . S
C43 C42 1.377 1_554 S
C43 C44 1.395 . S
C43 H72 0.931 . S
C44 C43 1.395 . S
C44 C45 1.383 1_554 S
C44 H73 0.931 . S
C45 C44 1.383 1_556 S
C45 C46 1.394 . S
C46 C45 1.394 . S
C46 C47 1.378 . S
C46 H74 0.931 . S
C47 C42 1.377 . S
C47 C46 1.378 . S
C47 H75 0.931 . S
C48 O62 1.259 . S
C48 O63 1.270 . S
C49 O64 1.251 . S
C49 O65 1.251 . S
C50 Eu51 2.835 1_554 S
C50 C52 1.500 . S
C50 O66 1.257 . S
C50 O67 1.260 1_554 S
Eu51 C50 2.835 1_556 S
Eu51 O63 2.355 1_556 S
Eu51 O65 2.374 1_556 S
Eu51 O66 2.473 1_556 S
Eu51 O67 2.480 . S
Eu51 O68 2.430 . S
Eu51 O69 2.670 . S
Eu51 O70 2.394 . S
C52 C50 1.500 . S
C52 C53 1.377 1_554 S
C52 C57 1.377 . S
C53 C52 1.377 1_556 S
C53 C54 1.395 . S
C53 H76 0.931 . S
C54 C53 1.395 . S
C54 C55 1.383 1_556 S
C54 H77 0.931 . S
C55 C54 1.383 1_554 S
C55 C56 1.394 . S
C56 C55 1.394 . S
C56 C57 1.378 . S
C56 H78 0.931 . S
C57 C52 1.377 . S
C57 C56 1.378 . S
C57 H79 0.931 . S
C58 O68 1.259 . S
C58 O69 1.270 . S
C59 O70 1.251 . S
C59 O71 1.251 1_556 S
O60 C40 1.257 . S
O60 Eu41 2.473 1_556 S
O61 C40 1.260 1_554 S
O61 Eu41 2.480 . S
O62 Eu41 2.430 . S
O62 C48 1.259 . S
O63 Eu41 2.670 . S
O63 C48 1.270 . S
O63 Eu51 2.355 1_554 S
O64 Eu41 2.394 . S
O64 C49 1.251 . S
O65 C49 1.251 . S
O65 Eu51 2.374 1_554 S
O66 C50 1.257 . S
O66 Eu51 2.473 1_554 S
O67 C50 1.260 1_556 S
O67 Eu51 2.480 . S
O68 Eu51 2.430 . S
O68 C58 1.259 . S
O69 Eu41 2.355 1_556 S
O69 Eu51 2.670 . S
O69 C58 1.270 . S
O70 Eu51 2.394 . S
O70 C59 1.251 . S
O71 Eu41 2.374 . S
O71 C59 1.251 1_554 S
H72 C43 0.931 . S
H73 C44 0.931 . S
H74 C46 0.931 . S
H75 C47 0.931 . S
H76 C53 0.931 . S
H77 C54 0.931 . S
H78 C56 0.931 . S
H79 C57 0.931 . S
C80 Eu81 2.835 1_556 S
C80 C82 1.500 . S
C80 O100 1.257 . S
C80 O101 1.260 1_556 S
Eu81 C80 2.835 1_554 S
Eu81 O100 2.473 1_554 S
Eu81 O101 2.480 . S
Eu81 O102 2.430 . S
Eu81 O103 2.670 . S
Eu81 O104 2.394 . S
Eu81 O109 2.355 1_554 S
Eu81 O111 2.374 . S
C82 C80 1.500 . S
C82 C83 1.377 1_556 S
C82 C87 1.377 . S
C83 C82 1.377 1_554 S
C83 C84 1.395 . S
C83 H112 0.931 . S
C84 C83 1.395 . S
C84 C85 1.383 1_554 S
C84 H113 0.931 . S
C85 C84 1.383 1_556 S
C85 C86 1.394 . S
C86 C85 1.394 . S
C86 C87 1.378 . S
C86 H114 0.931 . S
C87 C82 1.377 . S
C87 C86 1.378 . S
C87 H115 0.931 . S
C88 O102 1.259 . S
C88 O103 1.270 . S
C89 O104 1.251 . S
C89 O105 1.251 . S
C90 Eu91 2.835 1_554 S
C90 C92 1.500 . S
C90 O106 1.257 . S
C90 O107 1.260 1_554 S
Eu91 C90 2.835 1_556 S
Eu91 O103 2.355 1_556 S
Eu91 O105 2.374 1_556 S
Eu91 O106 2.473 1_556 S
Eu91 O107 2.480 . S
Eu91 O108 2.430 . S
Eu91 O109 2.670 . S
Eu91 O110 2.394 . S
C92 C90 1.500 . S
C92 C93 1.377 1_554 S
C92 C97 1.377 . S
C93 C92 1.377 1_556 S
C93 C94 1.395 . S
C93 H116 0.931 . S
C94 C93 1.395 . S
C94 C95 1.383 1_556 S
C94 H117 0.931 . S
C95 C94 1.383 1_554 S
C95 C96 1.394 . S
C96 C95 1.394 . S
C96 C97 1.378 . S
C96 H118 0.931 . S
C97 C92 1.377 . S
C97 C96 1.378 . S
C97 H119 0.931 . S
C98 O108 1.259 . S
C98 O109 1.270 . S
C99 O110 1.251 . S
C99 O111 1.251 1_556 S
O100 C80 1.257 . S
O100 Eu81 2.473 1_556 S
O101 C80 1.260 1_554 S
O101 Eu81 2.480 . S
O102 Eu81 2.430 . S
O102 C88 1.259 . S
O103 Eu81 2.670 . S
O103 C88 1.270 . S
O103 Eu91 2.355 1_554 S
O104 Eu81 2.394 . S
O104 C89 1.251 . S
O105 C89 1.251 . S
O105 Eu91 2.374 1_554 S
O106 C90 1.257 . S
O106 Eu91 2.473 1_554 S
O107 C90 1.260 1_556 S
O107 Eu91 2.480 . S
O108 Eu91 2.430 . S
O108 C98 1.259 . S
O109 Eu81 2.355 1_556 S
O109 Eu91 2.670 . S
O109 C98 1.270 . S
O110 Eu91 2.394 . S
O110 C99 1.251 . S
O111 Eu81 2.374 . S
O111 C99 1.251 1_554 S
H112 C83 0.931 . S
H113 C84 0.931 . S
H114 C86 0.931 . S
H115 C87 0.931 . S
H116 C93 0.931 . S
H117 C94 0.931 . S
H118 C96 0.931 . S
H119 C97 0.931 . S
C120 Eu121 2.835 1_556 S
C120 C122 1.500 . S
C120 O140 1.257 . S
C120 O141 1.260 1_556 S
Eu121 C120 2.835 1_554 S
Eu121 O140 2.473 1_554 S
Eu121 O141 2.480 . S
Eu121 O142 2.430 . S
Eu121 O143 2.670 . S
Eu121 O144 2.394 . S
Eu121 O149 2.355 1_554 S
Eu121 O151 2.374 . S
C122 C120 1.500 . S
C122 C123 1.377 1_556 S
C122 C127 1.377 . S
C123 C122 1.377 1_554 S
C123 C124 1.395 . S
C123 H152 0.931 . S
C124 C123 1.395 . S
C124 C125 1.383 1_554 S
C124 H153 0.931 . S
C125 C124 1.383 1_556 S
C125 C126 1.394 . S
C126 C125 1.394 . S
C126 C127 1.378 . S
C126 H154 0.931 . S
C127 C122 1.377 . S
C127 C126 1.378 . S
C127 H155 0.931 . S
C128 O142 1.259 . S
C128 O143 1.270 . S
C129 O144 1.251 . S
C129 O145 1.251 . S
C130 Eu131 2.835 1_554 S
C130 C132 1.500 . S
C130 O146 1.257 . S
C130 O147 1.260 1_554 S
Eu131 C130 2.835 1_556 S
Eu131 O143 2.355 1_556 S
Eu131 O145 2.374 1_556 S
Eu131 O146 2.473 1_556 S
Eu131 O147 2.480 . S
Eu131 O148 2.430 . S
Eu131 O149 2.670 . S
Eu131 O150 2.394 . S
C132 C130 1.500 . S
C132 C133 1.377 1_554 S
C132 C137 1.377 . S
C133 C132 1.377 1_556 S
C133 C134 1.395 . S
C133 H156 0.931 . S
C134 C133 1.395 . S
C134 C135 1.383 1_556 S
C134 H157 0.931 . S
C135 C134 1.383 1_554 S
C135 C136 1.394 . S
C136 C135 1.394 . S
C136 C137 1.378 . S
C136 H158 0.931 . S
C137 C132 1.377 . S
C137 C136 1.378 . S
C137 H159 0.931 . S
C138 O148 1.259 . S
C138 O149 1.270 . S
C139 O150 1.251 . S
C139 O151 1.251 1_556 S
O140 C120 1.257 . S
O140 Eu121 2.473 1_556 S
O141 C120 1.260 1_554 S
O141 Eu121 2.480 . S
O142 Eu121 2.430 . S
O142 C128 1.259 . S
O143 Eu121 2.670 . S
O143 C128 1.270 . S
O143 Eu131 2.355 1_554 S
O144 Eu121 2.394 . S
O144 C129 1.251 . S
O145 C129 1.251 . S
O145 Eu131 2.374 1_554 S
O146 C130 1.257 . S
O146 Eu131 2.473 1_554 S
O147 C130 1.260 1_556 S
O147 Eu131 2.480 . S
O148 Eu131 2.430 . S
O148 C138 1.259 . S
O149 Eu121 2.355 1_556 S
O149 Eu131 2.670 . S
O149 C138 1.270 . S
O150 Eu131 2.394 . S
O150 C139 1.251 . S
O151 Eu121 2.374 . S
O151 C139 1.251 1_554 S
H152 C123 0.931 . S
H153 C124 0.931 . S
H154 C126 0.931 . S
H155 C127 0.931 . S
H156 C133 0.931 . S
H157 C134 0.931 . S
H158 C136 0.931 . S
H159 C137 0.931 . S
C160 Eu161 2.835 1_556 S
C160 C162 1.500 . S
C160 O180 1.257 . S
C160 O181 1.260 1_556 S
Eu161 C160 2.835 1_554 S
Eu161 O180 2.473 1_554 S
Eu161 O181 2.480 . S
Eu161 O182 2.430 . S
Eu161 O183 2.670 . S
Eu161 O184 2.394 . S
Eu161 O189 2.355 1_554 S
Eu161 O191 2.374 . S
C162 C160 1.500 . S
C162 C163 1.377 1_556 S
C162 C167 1.377 . S
C163 C162 1.377 1_554 S
C163 C164 1.395 . S
C163 H192 0.931 . S
C164 C163 1.395 . S
C164 C165 1.383 1_554 S
C164 H193 0.931 . S
C165 C164 1.383 1_556 S
C165 C166 1.394 . S
C166 C165 1.394 . S
C166 C167 1.378 . S
C166 H194 0.931 . S
C167 C162 1.377 . S
C167 C166 1.378 . S
C167 H195 0.931 . S
C168 O182 1.259 . S
C168 O183 1.270 . S
C169 O184 1.251 . S
C169 O185 1.251 . S
C170 Eu171 2.835 1_554 S
C170 C172 1.500 . S
C170 O186 1.257 . S
C170 O187 1.260 1_554 S
Eu171 C170 2.835 1_556 S
Eu171 O183 2.355 1_556 S
Eu171 O185 2.374 1_556 S
Eu171 O186 2.473 1_556 S
Eu171 O187 2.480 . S
Eu171 O188 2.430 . S
Eu171 O189 2.670 . S
Eu171 O190 2.394 . S
C172 C170 1.500 . S
C172 C173 1.377 1_554 S
C172 C177 1.377 . S
C173 C172 1.377 1_556 S
C173 C174 1.395 . S
C173 H196 0.931 . S
C174 C173 1.395 . S
C174 C175 1.383 1_556 S
C174 H197 0.931 . S
C175 C174 1.383 1_554 S
C175 C176 1.394 . S
C176 C175 1.394 . S
C176 C177 1.378 . S
C176 H198 0.931 . S
C177 C172 1.377 . S
C177 C176 1.378 . S
C177 H199 0.931 . S
C178 O188 1.259 . S
C178 O189 1.270 . S
C179 O190 1.251 . S
C179 O191 1.251 1_556 S
O180 C160 1.257 . S
O180 Eu161 2.473 1_556 S
O181 C160 1.260 1_554 S
O181 Eu161 2.480 . S
O182 Eu161 2.430 . S
O182 C168 1.259 . S
O183 Eu161 2.670 . S
O183 C168 1.270 . S
O183 Eu171 2.355 1_554 S
O184 Eu161 2.394 . S
O184 C169 1.251 . S
O185 C169 1.251 . S
O185 Eu171 2.374 1_554 S
O186 C170 1.257 . S
O186 Eu171 2.473 1_554 S
O187 C170 1.260 1_556 S
O187 Eu171 2.480 . S
O188 Eu171 2.430 . S
O188 C178 1.259 . S
O189 Eu161 2.355 1_556 S
O189 Eu171 2.670 . S
O189 C178 1.270 . S
O190 Eu171 2.394 . S
O190 C179 1.251 . S
O191 Eu161 2.374 . S
O191 C179 1.251 1_554 S
H192 C163 0.931 . S
H193 C164 0.931 . S
H194 C166 0.931 . S
H195 C167 0.931 . S
H196 C173 0.931 . S
H197 C174 0.931 . S
H198 C176 0.931 . S
H199 C177 0.931 . S
C200 Eu201 2.835 1_556 S
C200 C202 1.500 . S
C200 O220 1.257 . S
C200 O221 1.260 1_556 S
Eu201 C200 2.835 1_554 S
Eu201 O220 2.473 1_554 S
Eu201 O221 2.480 . S
Eu201 O222 2.430 . S
Eu201 O223 2.670 . S
Eu201 O224 2.394 . S
Eu201 O229 2.355 1_554 S
Eu201 O231 2.374 . S
C202 C200 1.500 . S
C202 C203 1.377 1_556 S
C202 C207 1.377 . S
C203 C202 1.377 1_554 S
C203 C204 1.395 . S
C203 H232 0.931 . S
C204 C203 1.395 . S
C204 C205 1.383 1_554 S
C204 H233 0.931 . S
C205 C204 1.383 1_556 S
C205 C206 1.394 . S
C206 C205 1.394 . S
C206 C207 1.378 . S
C206 H234 0.931 . S
C207 C202 1.377 . S
C207 C206 1.378 . S
C207 H235 0.931 . S
C208 O222 1.259 . S
C208 O223 1.270 . S
C209 O224 1.251 . S
C209 O225 1.251 . S
C210 Eu211 2.835 1_554 S
C210 C212 1.500 . S
C210 O226 1.257 . S
C210 O227 1.260 1_554 S
Eu211 C210 2.835 1_556 S
Eu211 O223 2.355 1_556 S
Eu211 O225 2.374 1_556 S
Eu211 O226 2.473 1_556 S
Eu211 O227 2.480 . S
Eu211 O228 2.430 . S
Eu211 O229 2.670 . S
Eu211 O230 2.394 . S
C212 C210 1.500 . S
C212 C213 1.377 1_554 S
C212 C217 1.377 . S
C213 C212 1.377 1_556 S
C213 C214 1.395 . S
C213 H236 0.931 . S
C214 C213 1.395 . S
C214 C215 1.383 1_556 S
C214 H237 0.931 . S
C215 C214 1.383 1_554 S
C215 C216 1.394 . S
C216 C215 1.394 . S
C216 C217 1.378 . S
C216 H238 0.931 . S
C217 C212 1.377 . S
C217 C216 1.378 . S
C217 H239 0.931 . S
C218 O228 1.259 . S
C218 O229 1.270 . S
C219 O230 1.251 . S
C219 O231 1.251 1_556 S
O220 C200 1.257 . S
O220 Eu201 2.473 1_556 S
O221 C200 1.260 1_554 S
O221 Eu201 2.480 . S
O222 Eu201 2.430 . S
O222 C208 1.259 . S
O223 Eu201 2.670 . S
O223 C208 1.270 . S
O223 Eu211 2.355 1_554 S
O224 Eu201 2.394 . S
O224 C209 1.251 . S
O225 C209 1.251 . S
O225 Eu211 2.374 1_554 S
O226 C210 1.257 . S
O226 Eu211 2.473 1_554 S
O227 C210 1.260 1_556 S
O227 Eu211 2.480 . S
O228 Eu211 2.430 . S
O228 C218 1.259 . S
O229 Eu201 2.355 1_556 S
O229 Eu211 2.670 . S
O229 C218 1.270 . S
O230 Eu211 2.394 . S
O230 C219 1.251 . S
O231 Eu201 2.374 . S
O231 C219 1.251 1_554 S
H232 C203 0.931 . S
H233 C204 0.931 . S
H234 C206 0.931 . S
H235 C207 0.931 . S
H236 C213 0.931 . S
H237 C214 0.931 . S
H238 C216 0.931 . S
H239 C217 0.931 . S
H240 C248 0.950 . S
H241 C253 0.950 . S
H242 C250 0.950 . S
H243 C252 0.950 . S
H244 C254 0.950 . S
H245 C256 0.950 . S
H246 C258 0.950 1_554 S
H247 C259 0.950 . S
C248 H240 0.950 . S
C248 C249 1.386 . S
C248 C250 1.391 . S
C249 C248 1.386 . S
C249 C253 1.393 1_554 S
C250 H242 0.950 . S
C250 C248 1.391 . S
C250 C251 1.400 1_554 S
C251 C250 1.400 1_556 S
C251 C252 1.398 . S
C251 C257 1.491 . S
C252 H243 0.950 . S
C252 C251 1.398 . S
C252 C253 1.391 . S
C253 H241 0.950 . S
C253 C249 1.393 1_556 S
C253 C252 1.391 . S
C254 H244 0.950 . S
C254 C255 1.386 . S
C254 C256 1.391 . S
C255 C254 1.386 . S
C255 C259 1.393 . S
C256 H245 0.950 . S
C256 C254 1.391 . S
C256 C257 1.400 . S
C257 C251 1.491 . S
C257 C256 1.400 . S
C257 C258 1.398 . S
C258 H246 0.950 1_556 S
C258 C257 1.398 . S
C258 C259 1.391 . S
C259 H247 0.950 . S
C259 C255 1.393 . S
C259 C258 1.391 . S
H260 C268 0.950 . S
H261 C273 0.950 . S
H262 C270 0.950 . S
H263 C272 0.950 . S
H264 C274 0.950 . S
H265 C276 0.950 . S
H266 C278 0.950 . S
H267 C279 0.950 1_655 S
C268 H260 0.950 . S
C268 C269 1.386 . S
C268 C270 1.391 . S
C269 C268 1.386 . S
C269 C273 1.393 1_554 S
C270 H262 0.950 . S
C270 C268 1.391 . S
C270 C271 1.400 1_554 S
C271 C270 1.400 1_556 S
C271 C272 1.398 . S
C271 C277 1.491 . S
C272 H263 0.950 . S
C272 C271 1.398 . S
C272 C273 1.391 . S
C273 H261 0.950 . S
C273 C269 1.393 1_556 S
C273 C272 1.391 . S
C274 H264 0.950 . S
C274 C275 1.386 . S
C274 C276 1.391 1_655 S
C275 C274 1.386 . S
C275 C279 1.393 1_656 S
C276 H265 0.950 . S
C276 C274 1.391 1_455 S
C276 C277 1.400 . S
C277 C271 1.491 . S
C277 C276 1.400 . S
C277 C278 1.398 1_556 S
C278 H266 0.950 . S
C278 C277 1.398 1_554 S
C278 C279 1.391 . S
C279 H267 0.950 1_455 S
C279 C275 1.393 1_454 S
C279 C278 1.391 . S
H280 C288 0.950 . S
H281 C293 0.950 . S
H282 C290 0.950 . S
H283 C292 0.950 . S
H284 C294 0.950 1_565 S
H285 C296 0.950 . S
H286 C298 0.950 . S
H287 C299 0.950 . S
C288 H280 0.950 . S
C288 C289 1.386 . S
C288 C290 1.391 . S
C289 C288 1.386 . S
C289 C293 1.393 1_556 S
C290 H282 0.950 . S
C290 C288 1.391 . S
C290 C291 1.400 . S
C291 C290 1.400 . S
C291 C292 1.398 1_556 S
C291 C297 1.491 . S
C292 H283 0.950 . S
C292 C291 1.398 1_554 S
C292 C293 1.391 . S
C293 H281 0.950 . S
C293 C289 1.393 1_554 S
C293 C292 1.391 . S
C294 H284 0.950 1_545 S
C294 C295 1.386 1_544 S
C294 C296 1.391 . S
C295 C294 1.386 1_566 S
C295 C299 1.393 . S
C296 H285 0.950 . S
C296 C294 1.391 . S
C296 C297 1.400 1_554 S
C297 C291 1.491 . S
C297 C296 1.400 1_556 S
C297 C298 1.398 . S
C298 H286 0.950 . S
C298 C297 1.398 . S
C298 C299 1.391 1_545 S
C299 H287 0.950 . S
C299 C295 1.393 . S
C299 C298 1.391 1_565 S
H300 C308 0.950 . S
H301 C313 0.950 . S
H302 C310 0.950 . S
H303 C312 0.950 . S
H304 C314 0.950 . S
H305 C316 0.950 . S
H306 C318 0.950 . S
H307 C319 0.950 . S
C308 H300 0.950 . S
C308 C309 1.386 . S
C308 C310 1.391 . S
C309 C308 1.386 . S
C309 C313 1.393 . S
C310 H302 0.950 . S
C310 C308 1.391 . S
C310 C311 1.400 . S
C311 C310 1.400 . S
C311 C312 1.398 . S
C311 C317 1.491 . S
C312 H303 0.950 . S
C312 C311 1.398 . S
C312 C313 1.391 . S
C313 H301 0.950 . S
C313 C309 1.393 . S
C313 C312 1.391 . S
C314 H304 0.950 . S
C314 C315 1.386 . S
C314 C316 1.391 1_554 S
C315 C314 1.386 . S
C315 C319 1.393 1_554 S
C316 H305 0.950 . S
C316 C314 1.391 1_556 S
C316 C317 1.400 . S
C317 C311 1.491 . S
C317 C316 1.400 . S
C317 C318 1.398 . S
C318 H306 0.950 . S
C318 C317 1.398 . S
C318 C319 1.391 . S
C319 H307 0.950 . S
C319 C315 1.393 1_556 S
C319 C318 1.391 . S
H320 C328 0.949 1_455 S
H321 C333 0.950 . S
H322 C330 0.950 . S
H323 C332 0.950 . S
H324 C334 0.950 . S
H325 C336 0.950 . S
H326 C338 0.950 . S
H327 C339 0.950 . S
C328 H320 0.949 1_655 S
C328 C329 1.380 1_655 S
C328 C330 1.398 . S
C329 C328 1.380 1_455 S
C329 C333 1.393 1_556 S
C330 H322 0.950 . S
C330 C328 1.398 . S
C330 C331 1.400 . S
C331 C330 1.400 . S
C331 C332 1.398 1_556 S
C331 C337 1.491 . S
C332 H323 0.950 . S
C332 C331 1.398 1_554 S
C332 C333 1.391 1_655 S
C333 H321 0.950 . S
C333 C329 1.393 1_554 S
C333 C332 1.391 1_455 S
C334 H324 0.950 . S
C334 C335 1.385 1_554 S
C334 C336 1.391 . S
C335 C334 1.385 1_556 S
C335 C339 1.394 . S
C336 H325 0.950 . S
C336 C334 1.391 . S
C336 C337 1.400 1_554 S
C337 C331 1.491 . S
C337 C336 1.400 1_556 S
C337 C338 1.398 . S
C338 H326 0.950 . S
C338 C337 1.398 . S
C338 C339 1.391 . S
C339 H327 0.950 . S
C339 C335 1.394 . S
C339 C338 1.391 . S
H340 C348 0.950 . S
H341 C353 0.950 . S
H342 C350 0.950 . S
H343 C352 0.950 . S
H344 C354 0.950 . S
H345 C356 0.950 . S
H346 C358 0.950 . S
H347 C359 0.960 . S
C348 H340 0.950 . S
C348 C349 1.386 1_556 S
C348 C350 1.391 . S
C349 C348 1.386 1_554 S
C349 C353 1.393 . S
C350 H342 0.950 . S
C350 C348 1.391 . S
C350 C351 1.400 . S
C351 C350 1.400 . S
C351 C352 1.398 1_556 S
C351 C357 1.491 . S
C352 H343 0.950 . S
C352 C351 1.398 1_554 S
C352 C353 1.391 . S
C353 H341 0.950 . S
C353 C349 1.393 . S
C353 C352 1.391 . S
C354 H344 0.950 . S
C354 C355 1.386 1_554 S
C354 C356 1.391 1_545 S
C355 C354 1.386 1_556 S
C355 C359 1.393 1_545 S
C356 H345 0.950 . S
C356 C354 1.391 1_565 S
C356 C357 1.400 1_554 S
C357 C351 1.491 . S
C357 C356 1.400 1_556 S
C357 C358 1.398 . S
C358 H346 0.950 . S
C358 C357 1.398 . S
C358 C359 1.391 . S
C359 H347 0.960 . S
C359 C355 1.393 1_565 S
C359 C358 1.391 . S
H360 C368 0.950 . S
H361 C373 0.950 . S
H362 C370 0.950 . S
H363 C372 0.950 . S
H364 C374 0.950 . S
H365 C376 0.950 . S
H366 C378 0.947 1_556 S
H367 C379 0.950 1_556 S
C368 H360 0.950 . S
C368 C369 1.386 . S
C368 C370 1.391 . S
C369 C368 1.386 . S
C369 C373 1.393 1_556 S
C370 H362 0.950 . S
C370 C368 1.391 . S
C370 C371 1.400 1_556 S
C371 C370 1.400 1_554 S
C371 C372 1.398 . S
C371 C377 1.491 . S
C372 H363 0.950 . S
C372 C371 1.398 . S
C372 C373 1.391 . S
C373 H361 0.950 . S
C373 C369 1.393 1_554 S
C373 C372 1.391 . S
C374 H364 0.950 . S
C374 C375 1.386 . S
C374 C376 1.391 . S
C375 C374 1.386 . S
C375 C379 1.393 . S
C376 H365 0.950 . S
C376 C374 1.391 . S
C376 C377 1.400 . S
C377 C371 1.491 . S
C377 C376 1.400 . S
C377 C378 1.400 . S
C378 H366 0.947 1_554 S
C378 C377 1.400 . S
C378 C379 1.391 . S
C379 H367 0.950 1_554 S
C379 C375 1.393 . S
C379 C378 1.391 . S
H380 C388 0.950 . S
H381 C393 0.950 . S
H382 C390 0.950 . S
H383 C392 0.950 . S
H384 C394 0.950 . S
H385 C396 0.950 . S
H386 C398 0.950 . S
H387 C399 0.950 . S
C388 H380 0.950 . S
C388 C389 1.386 1_556 S
C388 C390 1.391 . S
C389 C388 1.386 1_554 S
C389 C393 1.393 . S
C390 H382 0.950 . S
C390 C388 1.391 . S
C390 C391 1.400 1_556 S
C391 C390 1.400 1_554 S
C391 C392 1.398 . S
C391 C397 1.491 . S
C392 H383 0.950 . S
C392 C391 1.398 . S
C392 C393 1.391 . S
C393 H381 0.950 . S
C393 C389 1.393 . S
C393 C392 1.391 . S
C394 H384 0.950 . S
C394 C395 1.386 . S
C394 C396 1.391 . S
C395 C394 1.386 . S
C395 C399 1.393 1_554 S
C396 H385 0.950 . S
C396 C394 1.391 . S
C396 C397 1.400 . S
C397 C391 1.491 . S
C397 C396 1.400 . S
C397 C398 1.398 1_554 S
C398 H386 0.950 . S
C398 C397 1.398 1_556 S
C398 C399 1.391 . S
C399 H387 0.950 . S
C399 C395 1.393 1_556 S
C399 C398 1.391 . S
H400 C408 0.950 . S
H401 C413 0.950 . S
H402 C410 0.950 . S
H403 C412 0.950 . S
H404 C414 0.950 . S
H405 C416 0.950 . S
H406 C418 0.950 . S
H407 C419 0.950 . S
C408 H400 0.950 . S
C408 C409 1.386 . S
C408 C410 1.391 . S
C409 C408 1.386 . S
C409 C413 1.393 1_554 S
C410 H402 0.950 . S
C410 C408 1.391 . S
C410 C411 1.400 . S
C411 C410 1.400 . S
C411 C412 1.398 1_554 S
C411 C417 1.491 . S
C412 H403 0.950 . S
C412 C411 1.398 1_556 S
C412 C413 1.391 . S
C413 H401 0.950 . S
C413 C409 1.393 1_556 S
C413 C412 1.391 . S
C414 H404 0.950 . S
C414 C415 1.386 1_556 S
C414 C416 1.391 . S
C415 C414 1.386 1_554 S
C415 C419 1.393 . S
C416 H405 0.950 . S
C416 C414 1.391 . S
C416 C417 1.400 1_556 S
C417 C411 1.491 . S
C417 C416 1.400 1_554 S
C417 C418 1.398 . S
C418 H406 0.950 . S
C418 C417 1.398 . S
C418 C419 1.391 . S
C419 H407 0.950 . S
C419 C415 1.393 . S
C419 C418 1.391 . S
H420 C428 0.950 . S
H421 C433 0.950 . S
H422 C430 0.950 . S
H423 C432 0.950 . S
H424 C434 0.950 . S
H425 C436 0.950 . S
H426 C438 0.950 . S
H427 C439 0.950 . S
C428 H420 0.950 . S
C428 C429 1.386 1_556 S
C428 C430 1.391 . S
C429 C428 1.386 1_554 S
C429 C433 1.393 . S
C430 H422 0.950 . S
C430 C428 1.391 . S
C430 C431 1.400 1_556 S
C431 C430 1.400 1_554 S
C431 C432 1.398 . S
C431 C437 1.491 . S
C432 H423 0.950 . S
C432 C431 1.398 . S
C432 C433 1.391 . S
C433 H421 0.950 . S
C433 C429 1.393 . S
C433 C432 1.391 . S
C434 H424 0.950 . S
C434 C435 1.398 . S
C434 C436 1.391 . S
C435 C434 1.398 . S
C435 C439 1.382 1_554 S
C436 H425 0.950 . S
C436 C434 1.391 . S
C436 C437 1.400 . S
C437 C431 1.491 . S
C437 C436 1.400 . S
C437 C438 1.398 1_554 S
C438 H426 0.950 . S
C438 C437 1.398 1_556 S
C438 C439 1.391 . S
C439 H427 0.950 . S
C439 C435 1.382 1_556 S
C439 C438 1.391 . S
H440 C448 0.950 1_556 S
H441 C453 0.950 . S
H442 C450 0.950 . S
H443 C452 0.950 . S
H444 C454 0.950 . S
H445 C456 0.950 . S
H446 C458 0.950 . S
H447 C459 0.950 . S
C448 H440 0.950 1_554 S
C448 C449 1.386 . S
C448 C450 1.391 1_554 S
C449 C448 1.386 . S
C449 C453 1.393 . S
C450 H442 0.950 . S
C450 C448 1.391 1_556 S
C450 C451 1.400 1_556 S
C451 C450 1.400 1_554 S
C451 C452 1.398 . S
C451 C457 1.491 . S
C452 H443 0.950 . S
C452 C451 1.398 . S
C452 C453 1.391 . S
C453 H441 0.950 . S
C453 C449 1.393 . S
C453 C452 1.391 . S
C454 H444 0.950 . S
C454 C455 1.386 1_554 S
C454 C456 1.391 . S
C455 C454 1.386 1_556 S
C455 C459 1.393 . S
C456 H445 0.950 . S
C456 C454 1.391 . S
C456 C457 1.400 . S
C457 C451 1.491 . S
C457 C456 1.400 . S
C457 C458 1.398 1_554 S
C458 H446 0.950 . S
C458 C457 1.398 1_556 S
C458 C459 1.391 . S
C459 H447 0.950 . S
C459 C455 1.393 . S
C459 C458 1.391 . S
H460 C468 0.950 . S
H461 C473 0.950 . S
H462 C470 0.950 . S
H463 C472 0.950 . S
H464 C474 0.950 . S
H465 C476 0.950 . S
H466 C478 0.950 1_556 S
H467 C479 0.950 1_556 S
C468 H460 0.950 . S
C468 C469 1.386 . S
C468 C470 1.391 . S
C469 C468 1.386 . S
C469 C473 1.393 1_556 S
C470 H462 0.950 . S
C470 C468 1.391 . S
C470 C471 1.400 1_556 S
C471 C470 1.400 1_554 S
C471 C472 1.398 . S
C471 C477 1.491 . S
C472 H463 0.950 . S
C472 C471 1.398 . S
C472 C473 1.391 . S
C473 H461 0.950 . S
C473 C469 1.393 1_554 S
C473 C472 1.391 . S
C474 H464 0.950 . S
C474 C475 1.386 . S
C474 C476 1.391 . S
C475 C474 1.386 . S
C475 C479 1.393 . S
C476 H465 0.950 . S
C476 C474 1.391 . S
C476 C477 1.400 . S
C477 C471 1.491 . S
C477 C476 1.400 . S
C477 C478 1.398 . S
C478 H466 0.950 1_554 S
C478 C477 1.398 . S
C478 C479 1.391 . S
C479 H467 0.950 1_554 S
C479 C475 1.393 . S
C479 C478 1.391 . S
H480 C488 0.950 . S
H481 C493 0.950 . S
H482 C490 0.950 . S
H483 C492 0.950 . S
H484 C494 0.950 . S
H485 C496 0.950 . S
H486 C498 0.950 . S
H487 C499 0.950 . S
C488 H480 0.950 . S
C488 C489 1.386 . S
C488 C490 1.391 . S
C489 C488 1.386 . S
C489 C493 1.393 . S
C490 H482 0.950 . S
C490 C488 1.391 . S
C490 C491 1.400 . S
C491 C490 1.400 . S
C491 C492 1.398 . S
C491 C497 1.491 . S
C492 H483 0.950 . S
C492 C491 1.398 . S
C492 C493 1.391 . S
C493 H481 0.950 . S
C493 C489 1.393 . S
C493 C492 1.391 . S
C494 H484 0.950 . S
C494 C495 1.386 . S
C494 C496 1.391 . S
C495 C494 1.386 . S
C495 C499 1.393 . S
C496 H485 0.950 . S
C496 C494 1.391 . S
C496 C497 1.400 . S
C497 C491 1.491 . S
C497 C496 1.400 . S
C497 C498 1.398 . S
C498 H486 0.950 . S
C498 C497 1.398 . S
C498 C499 1.391 . S
C499 H487 0.950 . S
C499 C495 1.393 . S
C499 C498 1.391 . S
H500 C508 0.950 . S
H501 C513 0.950 . S
H502 C510 0.950 . S
H503 C512 0.950 . S
H504 C514 0.950 . S
H505 C516 0.950 . S
H506 C518 0.950 . S
H507 C519 0.950 . S
C508 H500 0.950 . S
C508 C509 1.386 . S
C508 C510 1.391 . S
C509 C508 1.386 . S
C509 C513 1.393 . S
C510 H502 0.950 . S
C510 C508 1.391 . S
C510 C511 1.400 . S
C511 C510 1.400 . S
C511 C512 1.398 . S
C511 C517 1.491 . S
C512 H503 0.950 . S
C512 C511 1.398 . S
C512 C513 1.391 . S
C513 H501 0.950 . S
C513 C509 1.393 . S
C513 C512 1.391 . S
C514 H504 0.950 . S
C514 C515 1.386 . S
C514 C516 1.391 . S
C515 C514 1.386 . S
C515 C519 1.393 . S
C516 H505 0.950 . S
C516 C514 1.391 . S
C516 C517 1.400 . S
C517 C511 1.491 . S
C517 C516 1.400 . S
C517 C518 1.398 . S
C518 H506 0.950 . S
C518 C517 1.398 . S
C518 C519 1.391 . S
C519 H507 0.950 . S
C519 C515 1.393 . S
C519 C518 1.391 . S
H520 C528 0.950 . S
H521 C533 0.950 . S
H522 C530 0.950 . S
H523 C532 0.950 . S
H524 C534 0.950 . S
H525 C536 0.950 . S
H526 C538 0.950 . S
H527 C539 0.950 . S
C528 H520 0.950 . S
C528 C529 1.386 . S
C528 C530 1.391 . S
C529 C528 1.386 . S
C529 C533 1.393 . S
C530 H522 0.950 . S
C530 C528 1.391 . S
C530 C531 1.400 . S
C531 C530 1.400 . S
C531 C532 1.398 . S
C531 C537 1.491 . S
C532 H523 0.950 . S
C532 C531 1.398 . S
C532 C533 1.391 . S
C533 H521 0.950 . S
C533 C529 1.393 . S
C533 C532 1.391 . S
C534 H524 0.950 . S
C534 C535 1.386 . S
C534 C536 1.391 . S
C535 C534 1.386 . S
C535 C539 1.393 . S
C536 H525 0.950 . S
C536 C534 1.391 . S
C536 C537 1.400 . S
C537 C531 1.491 . S
C537 C536 1.400 . S
C537 C538 1.398 . S
C538 H526 0.950 . S
C538 C537 1.398 . S
C538 C539 1.391 . S
C539 H527 0.950 . S
C539 C535 1.393 . S
C539 C538 1.391 . S
H540 C548 0.950 . S
H541 C553 0.950 . S
H542 C550 0.950 . S
H543 C552 0.950 . S
H544 C554 0.950 . S
H545 C556 0.950 . S
H546 C558 0.950 . S
H547 C559 0.950 . S
C548 H540 0.950 . S
C548 C549 1.386 . S
C548 C550 1.391 . S
C549 C548 1.386 . S
C549 C553 1.393 . S
C550 H542 0.950 . S
C550 C548 1.391 . S
C550 C551 1.400 . S
C551 C550 1.400 . S
C551 C552 1.398 . S
C551 C557 1.491 . S
C552 H543 0.950 . S
C552 C551 1.398 . S
C552 C553 1.391 . S
C553 H541 0.950 . S
C553 C549 1.393 . S
C553 C552 1.391 . S
C554 H544 0.950 . S
C554 C555 1.386 . S
C554 C556 1.391 . S
C555 C554 1.386 . S
C555 C559 1.393 . S
C556 H545 0.950 . S
C556 C554 1.391 . S
C556 C557 1.400 . S
C557 C551 1.491 . S
C557 C556 1.400 . S
C557 C558 1.398 . S
C558 H546 0.950 . S
C558 C557 1.398 . S
C558 C559 1.391 . S
C559 H547 0.950 . S
C559 C555 1.393 . S
C559 C558 1.391 . S
H560 C568 0.950 . S
H561 C573 0.950 . S
H562 C570 0.950 . S
H563 C572 0.950 . S
H564 C574 0.950 . S
H565 C576 0.950 . S
H566 C578 0.950 . S
H567 C579 0.950 . S
C568 H560 0.950 . S
C568 C569 1.386 . S
C568 C570 1.391 . S
C569 C568 1.386 . S
C569 C573 1.393 . S
C570 H562 0.950 . S
C570 C568 1.391 . S
C570 C571 1.400 . S
C571 C570 1.400 . S
C571 C572 1.398 . S
C571 C577 1.491 . S
C572 H563 0.950 . S
C572 C571 1.398 . S
C572 C573 1.391 . S
C573 H561 0.950 . S
C573 C569 1.393 . S
C573 C572 1.391 . S
C574 H564 0.950 . S
C574 C575 1.386 . S
C574 C576 1.391 . S
C575 C574 1.386 . S
C575 C579 1.393 . S
C576 H565 0.950 . S
C576 C574 1.391 . S
C576 C577 1.400 . S
C577 C571 1.491 . S
C577 C576 1.400 . S
C577 C578 1.398 . S
C578 H566 0.950 . S
C578 C577 1.398 . S
C578 C579 1.391 . S
C579 H567 0.950 . S
C579 C575 1.393 . S
C579 C578 1.391 . S
H580 C588 0.950 . S
H581 C593 0.950 . S
H582 C590 0.950 . S
H583 C592 0.950 . S
H584 C594 0.950 . S
H585 C596 0.950 . S
H586 C598 0.950 . S
H587 C599 0.950 . S
C588 H580 0.950 . S
C588 C589 1.386 . S
C588 C590 1.391 . S
C589 C588 1.386 . S
C589 C593 1.393 . S
C590 H582 0.950 . S
C590 C588 1.391 . S
C590 C591 1.400 . S
C591 C590 1.400 . S
C591 C592 1.398 . S
C591 C597 1.491 . S
C592 H583 0.950 . S
C592 C591 1.398 . S
C592 C593 1.391 . S
C593 H581 0.950 . S
C593 C589 1.393 . S
C593 C592 1.391 . S
C594 H584 0.950 . S
C594 C595 1.386 . S
C594 C596 1.391 . S
C595 C594 1.386 . S
C595 C599 1.393 . S
C596 H585 0.950 . S
C596 C594 1.391 . S
C596 C597 1.400 . S
C597 C591 1.491 . S
C597 C596 1.400 . S
C597 C598 1.398 . S
C598 H586 0.950 . S
C598 C597 1.398 . S
C598 C599 1.391 . S
C599 H587 0.950 . S
C599 C595 1.393 . S
C599 C598 1.391 . S
C249 C209 1.857 . S
C255 C5 1.707 . S
C269 C9 1.856 . S
C275 C45 1.712 . S
C289 C49 1.868 1_556 S
C295 C85 1.683 . S
C309 C125 1.697 . S
C315 C89 1.861 . S
C329 C165 1.680 . S
C335 C129 1.867 1_556 S
C349 C169 1.863 . S
C355 C205 1.692 . S
C369 C179 1.908 . S
C375 C15 1.907 . S
C389 C219 1.912 1_554 S
C395 C55 1.901 . S
C409 C95 1.901 . S
C415 C19 1.910 1_554 S
C429 C135 1.903 . S
C435 C59 1.909 1_554 S
C449 C175 1.908 . S
C455 C99 1.907 . S
C469 C139 1.907 . S
C475 C215 1.907 . S
C489 C18 1.453 . S
C495 C8 1.453 . S
C509 C58 1.453 . S
C515 C48 1.453 . S
C529 C98 1.451 . S
C535 C88 1.451 . S
C549 C138 1.455 . S
C555 C128 1.455 . S
C569 C168 1.425 . S
C575 C178 1.425 . S
C589 C218 1.434 . S
C595 C208 1.434 . S
