# Generated by pormake.
# Topology wjd, (6)-cn, num edge types: 1
# Building blocks:
#     Node 0, Type 0, BuildingBlock: KUMBOL_clean_sbu_0, # of connection points: 6
#     Node 1, Type 0, BuildingBlock: KUMBOL_clean_sbu_0, # of connection points: 6
#     Node 2, Type 0, BuildingBlock: KUMBOL_clean_sbu_0, # of connection points: 6
#     Node 3, Type 0, BuildingBlock: KUMBOL_clean_sbu_0, # of connection points: 6
#     Node 4, Type 0, BuildingBlock: KUMBOL_clean_sbu_0, # of connection points: 6
#     Node 5, Type 0, BuildingBlock: KUMBOL_clean_sbu_0, # of connection points: 6
#     Node 6, Type 0, BuildingBlock: KUMBOL_clean_sbu_0, # of connection points: 6
#     Node 7, Type 0, BuildingBlock: KUMBOL_clean_sbu_0, # of connection points: 6
#     Node 8, Type 0, BuildingBlock: KUMBOL_clean_sbu_0, # of connection points: 6
#     Node 9, Type 0, BuildingBlock: KUMBOL_clean_sbu_0, # of connection points: 6
#     Node 10, Type 0, BuildingBlock: KUMBOL_clean_sbu_0, # of connection points: 6
#     Node 11, Type 0, BuildingBlock: KUMBOL_clean_sbu_0, # of connection points: 6
#     Edge 12, Type (0, 0), BuildingBlock: CIFDUS_clean_linker_0, # of connection points: 2
#     Edge 13, Type (0, 0), BuildingBlock: CIFDUS_clean_linker_0, # of connection points: 2
#     Edge 14, Type (0, 0), BuildingBlock: CIFDUS_clean_linker_0, # of connection points: 2
#     Edge 15, Type (0, 0), BuildingBlock: CIFDUS_clean_linker_0, # of connection points: 2
#     Edge 16, Type (0, 0), BuildingBlock: CIFDUS_clean_linker_0, # of connection points: 2
#     Edge 17, Type (0, 0), BuildingBlock: CIFDUS_clean_linker_0, # of connection points: 2
#     Edge 18, Type (0, 0), BuildingBlock: CIFDUS_clean_linker_0, # of connection points: 2
#     Edge 19, Type (0, 0), BuildingBlock: CIFDUS_clean_linker_0, # of connection points: 2
#     Edge 20, Type (0, 0), BuildingBlock: CIFDUS_clean_linker_0, # of connection points: 2
#     Edge 21, Type (0, 0), BuildingBlock: CIFDUS_clean_linker_0, # of connection points: 2
#     Edge 22, Type (0, 0), BuildingBlock: CIFDUS_clean_linker_0, # of connection points: 2
#     Edge 23, Type (0, 0), BuildingBlock: CIFDUS_clean_linker_0, # of connection points: 2
#     Edge 24, Type (0, 0), BuildingBlock: CIFDUS_clean_linker_0, # of connection points: 2
#     Edge 25, Type (0, 0), BuildingBlock: CIFDUS_clean_linker_0, # of connection points: 2
#     Edge 26, Type (0, 0), BuildingBlock: CIFDUS_clean_linker_0, # of connection points: 2
#     Edge 27, Type (0, 0), BuildingBlock: CIFDUS_clean_linker_0, # of connection points: 2
#     Edge 28, Type (0, 0), BuildingBlock: CIFDUS_clean_linker_0, # of connection points: 2
#     Edge 29, Type (0, 0), BuildingBlock: CIFDUS_clean_linker_0, # of connection points: 2
#     Edge 30, Type (0, 0), BuildingBlock: CIFDUS_clean_linker_0, # of connection points: 2
#     Edge 31, Type (0, 0), BuildingBlock: CIFDUS_clean_linker_0, # of connection points: 2
#     Edge 32, Type (0, 0), BuildingBlock: CIFDUS_clean_linker_0, # of connection points: 2
#     Edge 33, Type (0, 0), BuildingBlock: CIFDUS_clean_linker_0, # of connection points: 2
#     Edge 34, Type (0, 0), BuildingBlock: CIFDUS_clean_linker_0, # of connection points: 2
#     Edge 35, Type (0, 0), BuildingBlock: CIFDUS_clean_linker_0, # of connection points: 2
#     Edge 36, Type (0, 0), BuildingBlock: CIFDUS_clean_linker_0, # of connection points: 2
#     Edge 37, Type (0, 0), BuildingBlock: CIFDUS_clean_linker_0, # of connection points: 2
#     Edge 38, Type (0, 0), BuildingBlock: CIFDUS_clean_linker_0, # of connection points: 2
#     Edge 39, Type (0, 0), BuildingBlock: CIFDUS_clean_linker_0, # of connection points: 2
#     Edge 40, Type (0, 0), BuildingBlock: CIFDUS_clean_linker_0, # of connection points: 2
#     Edge 41, Type (0, 0), BuildingBlock: CIFDUS_clean_linker_0, # of connection points: 2
#     Edge 42, Type (0, 0), BuildingBlock: CIFDUS_clean_linker_0, # of connection points: 2
#     Edge 43, Type (0, 0), BuildingBlock: CIFDUS_clean_linker_0, # of connection points: 2
#     Edge 44, Type (0, 0), BuildingBlock: CIFDUS_clean_linker_0, # of connection points: 2
#     Edge 45, Type (0, 0), BuildingBlock: CIFDUS_clean_linker_0, # of connection points: 2
#     Edge 46, Type (0, 0), BuildingBlock: CIFDUS_clean_linker_0, # of connection points: 2
#     Edge 47, Type (0, 0), BuildingBlock: CIFDUS_clean_linker_0, # of connection points: 2
# Relax obj value: 0.096
# Max RMSD: 0.218
# Mean RMSD: 0.218
data_MOF--net-wjd--node1-KUMBOL_clean_sbu_0--edge1-CIFDUS_clean_linker_0
_symmetry_space_group_name_H-M    P1
_symmetry_Int_Tables_number       1
_symmetry_cell_setting            triclinic
loop_
_symmetry_equiv_pos_as_xyz
'x, y, z'
_cell_length_a     34.580543
_cell_length_b     34.605221
_cell_length_c     48.020193
_cell_angle_alpha  90.214041
_cell_angle_beta   89.825584
_cell_angle_gamma 119.74332
loop_
_atom_site_label
_atom_site_type_symbol
_atom_site_fract_x
_atom_site_fract_y
_atom_site_fract_z
_atom_type_partial_charge
Gd0 Gd 0.31935 0.08339 0.12351 0.0
Gd1 Gd 0.39771 0.19716 0.10357 0.0
C2 C 0.33244 0.28396 0.09483 0.0
C3 C 0.3191 0.28085 0.04514 0.0
C4 C 0.35473 0.24168 0.06501 0.0
C5 C 0.3512 0.25602 0.09139 0.0
C6 C 0.34021 0.25552 0.04152 0.0
C7 C 0.3151 0.29496 0.07175 0.0
C8 C 0.33288 0.30126 0.12122 0.0
C9 C 0.35378 0.29264 0.14309 0.0
N10 N 0.36851 0.2451 0.1134 0.0
C11 C 0.37232 0.26527 0.1387 0.0
H12 H 0.39044 0.26168 0.15573 0.0
C13 C 0.39022 0.21364 0.03599 0.0
N14 N 0.37642 0.21825 0.06198 0.0
C15 C 0.37591 0.22589 0.01219 0.0
C16 C 0.34982 0.24597 0.01494 0.0
H17 H 0.41295 0.20103 0.03327 0.0
H18 H 0.30003 0.31578 0.07412 0.0
H19 H 0.36776 0.05115 0.07515 0.0
H20 H 0.31865 0.3226 0.12469 0.0
H21 H 0.35608 0.30747 0.16334 0.0
H22 H 0.30768 0.29144 0.02735 0.0
H23 H 0.26492 0.05266 0.18385 0.0
H24 H 0.42995 0.98675 0.11619 0.0
H25 H 0.41301 1.01414 0.07296 0.0
H26 H 0.37559 0.97101 0.20965 0.0
H27 H 0.38596 0.22082 0.99175 0.0
H28 H 0.33971 0.2564 0.99644 0.0
H29 H 0.41674 0.97183 0.16753 0.0
H30 H 0.26409 1.01249 0.22657 0.0
N31 N 0.36101 0.04682 0.11909 0.0
C32 C 0.41041 1.00336 0.11725 0.0
C33 C 0.40074 1.01856 0.09279 0.0
C34 C 0.39264 1.00757 0.14256 0.0
C35 C 0.36751 0.02954 0.14278 0.0
C36 C 0.3752 0.03968 0.09407 0.0
N37 N 0.31841 0.04812 0.16532 0.0
C38 C 0.34515 0.02986 0.16664 0.0
C39 C 0.28761 1.01781 0.21008 0.0
C40 C 0.3175 1.00192 0.21274 0.0
C41 C 0.28823 0.04061 0.18598 0.0
C42 C 0.34622 1.00713 0.19067 0.0
H43 H 0.31685 0.98413 0.23141 0.0
O44 O 0.24722 0.0449 0.12787 0.0
O45 O 0.32548 0.14789 0.10938 0.0
O46 O 0.38748 0.19475 0.15104 0.0
O47 O 0.34882 0.11935 0.16361 0.0
O48 O 0.28356 0.1154 0.14332 0.0
O49 O 0.28086 0.02102 0.10103 0.0
O50 O 0.46157 0.22376 0.08265 0.0
O51 O 0.39016 0.12968 0.10946 0.0
O52 O 0.3116 0.09511 0.0788 0.0
O53 O 0.38301 0.14656 0.06739 0.0
O54 O 0.43918 0.18167 0.13225 0.0
O55 O 0.45143 0.26534 0.11176 0.0
C56 C 0.29861 0.1494 0.12695 0.0
C57 C 0.37372 0.98794 0.1912 0.0
C58 C 0.39709 0.98836 0.1672 0.0
C59 C 0.24302 1.01246 0.11212 0.0
C60 C 0.21427 0.96719 0.1231 0.0
C61 C 0.23273 0.94511 0.13762 0.0
C62 C 0.16764 0.94639 0.11992 0.0
C63 C 0.13964 0.90421 0.13172 0.0
C64 C 0.20519 0.90325 0.14916 0.0
C65 C 0.159 0.88299 0.14638 0.0
C66 C 0.37002 0.16224 0.16981 0.0
C67 C 0.42443 0.14095 0.12459 0.0
C68 C 0.47847 0.26334 0.09371 0.0
C69 C 0.5047 0.30256 0.0752 0.0
C70 C 0.50729 0.29536 0.0466 0.0
C71 C 0.53013 0.34675 0.08592 0.0
C72 C 0.55727 0.38287 0.06795 0.0
C73 C 0.53432 0.33035 0.02908 0.0
C74 C 0.55923 0.37332 0.03956 0.0
C75 C 0.34396 0.11142 0.06065 0.0
H76 H 0.2684 0.96022 0.14013 0.0
H77 H 0.15316 0.96338 0.10884 0.0
H78 H 0.21969 0.88649 0.16039 0.0
H79 H 0.13834 0.85042 0.15547 0.0
H80 H 0.48924 0.26234 0.03765 0.0
H81 H 0.52866 0.3529 0.10793 0.0
H82 H 0.5364 0.32404 0.00718 0.0
H83 H 0.5806 0.39927 0.02517 0.0
Gd84 Gd 0.84318 0.65485 0.40886 0.0
Gd85 Gd 0.79107 0.71084 0.37185 0.0
C86 C 0.65454 0.63092 0.33113 0.0
C87 C 0.67398 0.63787 0.28198 0.0
C88 C 0.73108 0.67797 0.31681 0.0
C89 C 0.69978 0.65932 0.33771 0.0
C90 C 0.71871 0.66732 0.28872 0.0
C91 C 0.64184 0.62005 0.30315 0.0
C92 C 0.62354 0.61426 0.35289 0.0
C93 C 0.63796 0.62637 0.3803 0.0
N94 N 0.7136 0.66911 0.3645 0.0
C95 C 0.68333 0.6541 0.38576 0.0
H96 H 0.69397 0.6624 0.40709 0.0
C97 C 0.80574 0.72768 0.30407 0.0
N98 N 0.77403 0.70596 0.32407 0.0
C99 C 0.79525 0.71758 0.27592 0.0
C100 C 0.75182 0.68622 0.26833 0.0
H101 H 0.83974 0.75068 0.3098 0.0
H102 H 0.60733 0.5979 0.29768 0.0
H103 H 0.93665 0.69503 0.37088 0.0
H104 H 0.58846 0.59233 0.34874 0.0
H105 H 0.61423 0.61391 0.39727 0.0
H106 H 0.66384 0.62914 0.26049 0.0
H107 H 0.79705 0.6252 0.4721 0.0
H108 H 0.04812 0.74763 0.42613 0.0
H109 H 1.01765 0.73136 0.37832 0.0
H110 H 0.98006 0.7133 0.51643 0.0
H111 H 0.82088 0.733 0.26017 0.0
H112 H 0.74419 0.67676 0.24669 0.0
H113 H 0.0338 0.74064 0.47764 0.0
H114 H 0.8208 0.63366 0.52121 0.0
N115 N 0.92111 0.69264 0.414 0.0
C116 C 1.01247 0.73204 0.42299 0.0
C117 C 0.9954 0.72281 0.39598 0.0
C118 C 0.98323 0.71992 0.44564 0.0
C119 C 0.93711 0.69999 0.4404 0.0
C120 C 0.94938 0.70235 0.39187 0.0
N121 N 0.86297 0.66364 0.45627 0.0
C122 C 0.90709 0.68533 0.46224 0.0
C123 C 0.84542 0.64851 0.50485 0.0
C124 C 0.89068 0.67184 0.51138 0.0
C125 C 0.8321 0.64385 0.47701 0.0
C126 C 0.92218 0.6898 0.48995 0.0
H127 H 0.90098 0.67475 0.53294 0.0
O128 O 0.81681 0.58556 0.42033 0.0
O129 O 0.78304 0.64648 0.3871 0.0
O130 O 0.77272 0.70102 0.41754 0.0
O131 O 0.83317 0.70129 0.43874 0.0
O132 O 0.77218 0.60906 0.42232 0.0
O133 O 0.86923 0.61518 0.38957 0.0
O134 O 0.82155 0.78189 0.36487 0.0
O135 O 0.85112 0.71802 0.39321 0.0
O136 O 0.8568 0.66078 0.36112 0.0
O137 O 0.79661 0.66412 0.34216 0.0
O138 O 0.86298 0.75692 0.35852 0.0
O139 O 0.76241 0.74825 0.39068 0.0
C140 C 0.75273 0.61687 0.40205 0.0
C141 C 0.96802 0.71031 0.4953 0.0
C142 C 0.99854 0.7256 0.47321 0.0
C143 C 0.84512 0.58038 0.40497 0.0
C144 C 0.86862 0.5596 0.41868 0.0
C145 C 0.88539 0.57256 0.4457 0.0
C146 C 0.87311 0.52562 0.40525 0.0
C147 C 0.89342 0.50403 0.41902 0.0
C148 C 0.90597 0.55214 0.45927 0.0
C149 C 0.90959 0.518 0.44628 0.0
C150 C 0.79892 0.70891 0.43928 0.0
C151 C 0.88163 0.74734 0.37842 0.0
C152 C 0.79262 0.78602 0.38012 0.0
C153 C 0.77838 0.81685 0.36982 0.0
C154 C 0.74388 0.8033 0.3504 0.0
C155 C 0.80129 0.86134 0.37898 0.0
C156 C 0.79022 0.89263 0.36867 0.0
C157 C 0.73234 0.83402 0.34027 0.0
C158 C 0.75532 0.87837 0.34924 0.0
C159 C 0.83031 0.65666 0.33978 0.0
H160 H 0.88183 0.59784 0.45664 0.0
H161 H 0.86041 0.51594 0.38429 0.0
H162 H 0.91828 0.56214 0.48027 0.0
H163 H 0.9239 0.5017 0.45818 0.0
H164 H 0.72619 0.7692 0.34301 0.0
H165 H 0.82849 0.87178 0.39364 0.0
H166 H 0.70562 0.82351 0.3253 0.0
H167 H 0.74557 0.90143 0.34112 0.0
Gd168 Gd 0.96654 0.24956 0.13407 0.0
Gd169 Gd 0.85496 0.19408 0.10179 0.0
C170 C 0.77511 0.0502 0.07197 0.0
C171 C 0.77431 0.05927 0.02192 0.0
C172 C 0.81687 0.12372 0.05161 0.0
C173 C 0.80344 0.09657 0.07488 0.0
C174 C 0.8019 0.10535 0.02489 0.0
C175 C 0.76128 0.03166 0.04535 0.0
C176 C 0.7592 0.02415 0.09599 0.0
C177 C 0.76993 0.04465 0.12207 0.0
N178 N 0.81455 0.11588 0.10044 0.0
C179 C 0.79705 0.09084 0.1239 0.0
H180 H 0.80428 0.10626 0.1442 0.0
C181 C 0.84697 0.19663 0.03362 0.0
N182 N 0.83944 0.16845 0.05549 0.0
C183 C 0.83477 0.17995 0.00658 0.0
C184 C 0.81235 0.13407 1.00215 0.0
H185 H 0.86332 0.23215 0.037 0.0
H186 H 0.73896 0.99624 0.04278 0.0
H187 H 1.00361 0.34074 0.09405 0.0
H188 H 0.73757 0.98843 0.09461 0.0
H189 H 0.75703 0.02495 0.14078 0.0
H190 H 0.76118 0.04498 1.0017 0.0
H191 H 0.96833 0.20986 0.19739 0.0
H192 H 0.05217 0.45475 0.14715 0.0
H193 H 0.03613 0.42159 0.09994 0.0
H194 H 0.03991 0.39407 0.23847 0.0
H195 H 0.84192 0.20246 0.98927 0.0
H196 H 0.80173 0.12114 0.98129 0.0
H197 H 0.05328 0.44414 0.19884 0.0
H198 H 0.98638 0.23718 0.24577 0.0
N199 N 1.00007 0.32755 0.13755 0.0
C200 C 0.03784 0.4191 0.1447 0.0
C201 C 1.0289 0.40052 0.11803 0.0
C202 C 1.02908 0.39156 0.16787 0.0
C203 C 1.01028 0.34536 0.16352 0.0
C204 C 1.01041 0.35451 0.1148 0.0
N205 N 0.98591 0.27333 0.18055 0.0
C206 C 1.00303 0.31736 0.18574 0.0
C207 C 0.99119 0.2601 0.22908 0.0
C208 C 1.00735 0.3051 0.23488 0.0
C209 C 0.98114 0.24477 0.20161 0.0
C210 C 1.01396 0.33448 0.21305 0.0
H211 H 1.01515 0.3169 0.25617 0.0
O212 O 1.01166 0.22412 0.14246 0.0
O213 O 0.9117 0.18689 0.11606 0.0
O214 O 0.85178 0.18629 0.15002 0.0
O215 O 0.91858 0.2456 0.16655 0.0
O216 O 0.94376 0.17965 0.14998 0.0
O217 O 1.02946 0.27614 0.11194 0.0
O218 O 0.80887 0.21631 0.08857 0.0
O219 O 0.90821 0.25645 0.12086 0.0
O220 O 0.97003 0.26123 0.08756 0.0
O221 O 0.90735 0.19959 0.06978 0.0
O222 O 0.87886 0.26358 0.08582 0.0
O223 O 0.79252 0.17313 0.12409 0.0
C224 C 0.91295 0.15851 0.13189 0.0
C225 C 0.03153 0.38029 0.21763 0.0
C226 C 0.03911 0.40878 0.19507 0.0
C227 C 0.04227 0.25182 0.12549 0.0
C228 C 0.08831 0.27455 0.13618 0.0
C229 C 0.10624 0.31665 0.1487 0.0
C230 C 0.11432 0.25355 0.13445 0.0
C231 C 0.15772 0.27421 0.14565 0.0
C232 C 0.1494 0.33752 0.15941 0.0
C233 C 0.17492 0.31647 0.15803 0.0
C234 C 0.87707 0.21367 0.1703 0.0
C235 C 0.907 0.28527 0.10527 0.0
C236 C 0.77831 0.19232 0.10684 0.0
C237 C 0.73217 0.16422 0.09609 0.0
C238 C 0.72502 0.1361 0.07331 0.0
C239 C 0.69503 0.16485 0.10823 0.0
C240 C 0.65139 0.13702 0.09759 0.0
C241 C 0.68235 0.1074 0.06358 0.0
C242 C 0.64584 0.10742 0.07574 0.0
C243 C 0.94916 0.23292 0.06706 0.0
H244 H 0.08685 0.33332 0.15029 0.0
H245 H 0.10036 0.22074 0.12515 0.0
H246 H 0.16302 0.37 0.16905 0.0
H247 H 0.20821 0.33325 0.1667 0.0
H248 H 0.75245 0.13642 0.06281 0.0
H249 H 0.70026 0.1875 0.12528 0.0
H250 H 0.67759 0.08525 0.04633 0.0
H251 H 0.61309 0.08427 0.06774 0.0
Gd252 Gd 0.36636 0.19764 0.40096 0.0
Gd253 Gd 0.32387 0.08717 0.36816 0.0
C254 C 0.42547 0.04142 0.35397 0.0
C255 C 0.43084 0.04318 0.30347 0.0
C256 C 0.37803 0.05975 0.32659 0.0
C257 C 0.39247 0.05407 0.35242 0.0
C258 C 0.39643 0.05346 0.30188 0.0
C259 C 0.44526 0.0371 0.32945 0.0
C260 C 0.4369 0.03237 0.38005 0.0
C261 C 0.41445 0.03433 0.40367 0.0
N262 N 0.37285 0.05875 0.37587 0.0
C263 C 0.38207 0.0471 0.40122 0.0
H264 H 0.36574 0.04817 0.42005 0.0
C265 C 0.32478 0.06868 0.30081 0.0
N266 N 0.34453 0.0694 0.32557 0.0
C267 C 0.34292 0.06427 0.27581 0.0
C268 C 0.37919 0.05703 0.27628 0.0
H269 H 0.29655 0.07397 0.30029 0.0
H270 H 0.47105 0.02801 0.33033 0.0
H271 H 0.33417 0.2546 0.35918 0.0
H272 H 0.4621 0.02265 0.3821 0.0
H273 H 0.42229 0.0263 0.42389 0.0
H274 H 0.44573 0.03875 0.28471 0.0
H275 H 0.39598 0.20255 0.4681 0.0
H276 H 0.23672 0.27409 0.40247 0.0
H277 H 0.28307 0.28512 0.36066 0.0
H278 H 0.23983 0.2229 0.49457 0.0
H279 H 0.32925 0.06711 0.25626 0.0
H280 H 0.39296 0.05325 0.25683 0.0
H281 H 0.21821 0.2474 0.45216 0.0
H282 H 0.36515 0.20312 0.51464 0.0
N283 N 0.31797 0.22758 0.40006 0.0
C284 C 0.25977 0.26143 0.40215 0.0
C285 C 0.28594 0.26779 0.37855 0.0
C286 C 0.26544 0.24084 0.42556 0.0
C287 C 0.29653 0.22577 0.42412 0.0
C288 C 0.31496 0.25049 0.37784 0.0
N289 N 0.34465 0.2064 0.4462 0.0
C290 C 0.31011 0.21433 0.44808 0.0
C291 C 0.34902 0.20582 0.49606 0.0
C292 C 0.3105 0.20926 0.49819 0.0
C293 C 0.36645 0.20562 0.46974 0.0
C294 C 0.29144 0.21513 0.47403 0.0
H295 H 0.29712 0.20954 0.51857 0.0
O296 O 0.43115 0.24655 0.41758 0.0
O297 O 0.38361 0.14772 0.38457 0.0
O298 O 0.32298 0.08065 0.41459 0.0
O299 O 0.32152 0.14309 0.43153 0.0
O300 O 0.41507 0.17968 0.42042 0.0
O301 O 0.4016 0.2647 0.38435 0.0
O302 O 0.28289 1.01638 0.35858 0.0
O303 O 0.30888 0.14091 0.3797 0.0
O304 O 0.3735 0.20461 0.35305 0.0
O305 O 0.36633 0.13764 0.33615 0.0
O306 O 0.28282 0.10808 0.34222 0.0
O307 O 0.25423 0.05047 0.38058 0.0
C308 C 0.41262 0.15139 0.40201 0.0
C309 C 0.25596 0.22396 0.47501 0.0
C310 C 0.24338 0.2375 0.45081 0.0
C311 C 0.43614 0.27759 0.40029 0.0
C312 C 0.47976 0.30303 0.38654 0.0
C313 C 0.49364 0.28288 0.36655 0.0
C314 C 0.5072 0.34845 0.39288 0.0
C315 C 0.54864 0.37397 0.3794 0.0
C316 C 0.53442 0.30784 0.35298 0.0
C317 C 0.56175 0.35298 0.3593 0.0
C318 C 0.31445 0.10194 0.43427 0.0
C319 C 0.28478 0.13828 0.35899 0.0
C320 C 0.24725 1.01287 0.37025 0.0
C321 C 0.21917 0.97287 0.38701 0.0
C322 C 0.23615 0.96222 0.41038 0.0
C323 C 0.17384 0.9461 0.3801 0.0
C324 C 0.14523 0.90874 0.39639 0.0
C325 C 0.20811 0.92544 0.42673 0.0
C326 C 0.16304 0.89892 0.41989 0.0
C327 C 0.37767 0.17989 0.33311 0.0
H328 H 0.47284 0.24799 0.36139 0.0
H329 H 0.49601 0.36391 0.40816 0.0
H330 H 0.54504 0.29209 0.3376 0.0
H331 H 0.59363 0.37114 0.34887 0.0
H332 H 0.27084 0.9826 0.41613 0.0
H333 H 0.16075 0.95495 0.36225 0.0
H334 H 0.22134 0.91745 0.44485 0.0
H335 H 0.14235 0.87032 0.43276 0.0
Gd336 Gd 0.78641 0.71316 0.13582 0.0
Gd337 Gd 0.8507 0.66083 0.11104 0.0
C338 C 1.00113 0.74187 0.09687 0.0
C339 C 1.00611 0.74451 0.04638 0.0
C340 C 0.93395 0.70451 0.06922 0.0
C341 C 0.95423 0.71746 0.09495 0.0
C342 C 0.95979 0.71665 0.04466 0.0
C343 C 1.02684 0.75673 0.07246 0.0
C344 C 1.02081 0.74934 0.1232 0.0
C345 C 0.99387 0.73186 0.1467 0.0
N346 N 0.92835 0.70317 0.11813 0.0
C347 C 0.94751 0.70859 0.14378 0.0
H348 H 0.92705 0.69547 0.16215 0.0
C349 C 0.86927 0.6555 0.04407 0.0
N350 N 0.88929 0.67681 0.06833 0.0
C351 C 0.89323 0.6671 0.01907 0.0
C352 C 0.93856 0.69862 0.01927 0.0
H353 H 0.83437 0.63063 0.04396 0.0
H354 H 0.06282 0.77655 0.07354 0.0
H355 H 0.70456 0.65741 0.08959 0.0
H356 H 0.05669 0.76781 0.12555 0.0
H357 H 1.00875 0.73675 0.16713 0.0
H358 H 1.0263 0.75526 0.02771 0.0
H359 H 0.81045 0.76993 0.19582 0.0
H360 H 0.57948 0.59867 0.13196 0.0
H361 H 0.62307 0.61049 0.08878 0.0
H362 H 0.6187 0.66609 0.22221 0.0
H363 H 0.87682 0.65148 0.99973 0.0
H364 H 0.95723 0.70718 0.99994 0.0
H365 H 0.57824 0.61913 0.18204 0.0
H366 H 0.7715 0.7769 0.23662 0.0
N367 N 0.70816 0.66887 0.1333 0.0
C368 C 0.61548 0.61851 0.13257 0.0
C369 C 0.63994 0.62521 0.10817 0.0
C370 C 0.63765 0.63985 0.15707 0.0
C371 C 0.68462 0.66522 0.15673 0.0
C372 C 0.68637 0.65153 0.10881 0.0
N373 N 0.7521 0.71673 0.17751 0.0
C374 C 0.70729 0.6907 0.17946 0.0
C375 C 0.75306 0.7521 0.22085 0.0
C376 C 0.70723 0.72405 0.22374 0.0
C377 C 0.77513 0.74762 0.19769 0.0
C378 C 0.68373 0.6928 0.20293 0.0
H379 H 0.69028 0.72728 0.24187 0.0
O380 O 0.81803 0.78548 0.13926 0.0
O381 O 0.85378 0.72355 0.12456 0.0
O382 O 0.84396 0.65849 0.15917 0.0
O383 O 0.78494 0.67086 0.17151 0.0
O384 O 0.84919 0.75448 0.1604 0.0
O385 O 0.76428 0.75025 0.11019 0.0
O386 O 0.83254 0.5936 0.09703 0.0
O387 O 0.78319 0.64805 0.12421 0.0
O388 O 0.78359 0.70561 0.08931 0.0
O389 O 0.84816 0.70492 0.07645 0.0
O390 O 0.78669 0.61564 0.08895 0.0
O391 O 0.87776 0.62368 0.1315 0.0
C392 C 0.876 0.74925 0.14432 0.0
C393 C 0.63727 0.6655 0.20414 0.0
C394 C 0.61425 0.63877 0.18129 0.0
C395 C 0.79152 0.78864 0.12149 0.0
C396 C 0.77318 0.81766 0.12973 0.0
C397 C 0.72876 0.79894 0.13858 0.0
C398 C 0.8006 0.86455 0.12953 0.0
C399 C 0.78374 0.89223 0.13855 0.0
C400 C 0.71185 0.82628 0.14706 0.0
C401 C 0.73909 0.87249 0.1472 0.0
C402 C 0.81451 0.65823 0.17742 0.0
C403 C 0.75972 0.61986 0.10557 0.0
C404 C 0.85795 0.58919 0.11523 0.0
C405 C 0.84229 0.54529 0.1282 0.0
C406 C 0.81192 0.53097 0.15035 0.0
C407 C 0.86073 0.51882 0.11955 0.0
C408 C 0.84925 0.47825 0.13304 0.0
C409 C 0.8001 0.49079 0.1637 0.0
C410 C 0.81862 0.4647 0.15524 0.0
C411 C 0.81505 0.71289 0.07114 0.0
H412 H 0.70717 0.76317 0.13912 0.0
H413 H 0.83515 0.87932 0.12318 0.0
H414 H 0.67757 0.81155 0.15389 0.0
H415 H 0.7254 0.89297 0.15433 0.0
H416 H 0.79789 0.55113 0.15752 0.0
H417 H 0.88478 0.53037 0.10269 0.0
H418 H 0.77656 0.47985 0.18079 0.0
H419 H 0.80834 0.43349 0.16581 0.0
Gd420 Gd 0.83992 0.19083 0.40012 0.0
Gd421 Gd 0.95451 0.24197 0.37357 0.0
C422 C 0.08009 0.3658 0.40359 0.0
C423 C 0.07359 0.42546 0.38164 0.0
C424 C 1.01657 0.34822 0.37423 0.0
C425 C 0.03897 0.33452 0.39177 0.0
C426 C 0.03394 0.39392 0.36869 0.0
C427 C 0.09672 0.41141 0.39899 0.0
C428 C 0.10414 0.35017 0.41867 0.0
C429 C 0.08805 0.30442 0.42043 0.0
N430 N 1.02202 0.29029 0.39578 0.0
C431 C 0.0472 0.27483 0.40817 0.0
H432 H 0.03512 0.23943 0.40901 0.0
C433 C 0.95729 0.32895 0.3428 0.0
N434 N 0.97861 0.31679 0.36185 0.0
C435 C 0.97303 0.37385 0.33681 0.0
C436 C 1.01131 0.40652 0.34997 0.0
H437 H 0.92723 0.30453 0.33272 0.0
H438 H 0.128 0.436 0.40814 0.0
H439 H 0.79059 0.09728 0.36055 0.0
H440 H 0.13592 0.3731 0.42802 0.0
H441 H 0.10723 0.29196 0.43101 0.0
H442 H 0.0872 0.4607 0.37782 0.0
H443 H 0.82749 0.2285 0.46273 0.0
H444 H 0.74698 0.98503 0.41397 0.0
H445 H 0.75504 1.01662 0.36686 0.0
H446 H 0.77015 0.04838 0.50513 0.0
H447 H 0.95542 0.38321 0.32215 0.0
H448 H 1.02342 0.44127 0.34527 0.0
H449 H 0.7548 0.9974 0.4656 0.0
H450 H 0.8105 0.2019 0.5111 0.0
N451 N 0.80546 0.11263 0.40366 0.0
C452 C 0.76309 0.02079 0.41137 0.0
C453 C 0.76754 0.0385 0.38476 0.0
C454 C 0.77761 0.04934 0.43441 0.0
C455 C 0.7981 0.09569 0.42987 0.0
C456 C 0.78837 0.08464 0.38128 0.0
N457 N 0.82062 0.16779 0.44678 0.0
C458 C 0.80629 0.12425 0.45215 0.0
C459 C 0.80967 0.17983 0.49479 0.0
C460 C 0.79843 0.13615 0.50103 0.0
C461 C 0.81941 0.19481 0.4673 0.0
C462 C 0.79513 0.10733 0.47949 0.0
H463 H 0.79026 0.12442 0.52229 0.0
O464 O 0.80384 0.21739 0.37724 0.0
O465 O 0.89756 0.25332 0.38376 0.0
O466 O 0.96208 0.25495 0.41939 0.0
O467 O 0.88996 0.20875 0.43715 0.0
O468 O 0.86368 0.25826 0.41836 0.0
O469 O 0.76775 0.16296 0.40503 0.0
O470 O 0.99074 0.25621 0.33426 0.0
O471 O 0.89076 0.17852 0.381 0.0
O472 O 0.84014 0.17302 0.3539 0.0
O473 O 0.9081 0.22951 0.3375 0.0
O474 O 0.94742 0.18077 0.3955 0.0
O475 O 0.98601 0.20375 0.36028 0.0
C476 C 0.89663 0.28014 0.40166 0.0
C477 C 0.77853 0.06179 0.48425 0.0
C478 C 0.76972 0.03279 0.46173 0.0
C479 C 0.76529 0.19101 0.38835 0.0
C480 C 0.73747 0.21085 0.39719 0.0
C481 C 0.7581 0.25545 0.40594 0.0
C482 C 0.69011 0.18596 0.39601 0.0
C483 C 0.66424 0.20601 0.40326 0.0
C484 C 0.7327 0.27525 0.41285 0.0
C485 C 0.68629 0.25086 0.41152 0.0
C486 C 0.9341 0.23536 0.44023 0.0
C487 C 0.90509 0.15533 0.39237 0.0
C488 C 1.00636 0.22957 0.33942 0.0
C489 C 0.05559 0.24846 0.33853 0.0
C490 C 0.08364 0.29381 0.33254 0.0
C491 C 0.07511 0.22186 0.34486 0.0
C492 C 0.12195 0.24041 0.34475 0.0
C493 C 0.12977 0.31226 0.33272 0.0
C494 C 0.14879 0.28592 0.3387 0.0
C495 C 0.86662 0.19777 0.33334 0.0
H496 H 0.79399 0.27518 0.40732 0.0
H497 H 0.67359 0.15134 0.38966 0.0
H498 H 0.74911 0.30973 0.41944 0.0
H499 H 0.66738 0.26693 0.41741 0.0
H500 H 0.07006 0.31534 0.32797 0.0
H501 H 0.054 0.18687 0.34959 0.0
H502 H 0.15096 0.34728 0.32826 0.0
H503 H 0.18477 0.30133 0.33881 0.0
Gd504 Gd 0.2055 0.38551 0.59874 0.0
Gd505 Gd 0.09575 0.33704 0.63472 0.0
C506 C 0.03693 0.42167 0.66487 0.0
C507 C 0.05558 0.43016 0.7141 0.0
C508 C 0.07354 0.38386 0.68464 0.0
C509 C 0.05709 0.39511 0.66159 0.0
C510 C 0.07256 0.40098 0.71115 0.0
C511 C 0.03747 0.44021 0.69104 0.0
C512 C 1.01494 0.42703 0.64207 0.0
C513 C 1.0115 0.40427 0.61732 0.0
N514 N 0.05737 0.37704 0.63647 0.0
C515 C 0.03248 0.37869 0.61503 0.0
H516 H 1.02909 0.3609 0.59595 0.0
C517 C 0.10023 0.33863 0.70394 0.0
N518 N 0.08914 0.35494 0.68127 0.0
C519 C 0.10066 0.35541 0.73047 0.0
C520 C 0.08791 0.38759 0.73401 0.0
H521 H 0.11151 0.31484 0.7016 0.0
H522 H 1.02277 0.46127 0.69383 0.0
H523 H 0.25777 0.34537 0.63651 0.0
H524 H 0.99882 0.44697 0.64375 0.0
H525 H 0.99294 0.40661 0.59992 0.0
H526 H 0.05487 0.44386 0.7343 0.0
H527 H 0.19192 0.41624 0.53566 0.0
H528 H 0.30444 0.27876 0.58223 0.0
H529 H 0.29816 0.3039 0.62947 0.0
H530 H 0.26733 0.30824 0.49174 0.0
H531 H 0.11183 0.34417 0.74809 0.0
H532 H 0.08918 0.40117 0.75456 0.0
H533 H 0.2926 0.28039 0.5308 0.0
H534 H 0.2024 0.40222 0.48632 0.0
N535 N 0.23928 0.34147 0.59399 0.0
C536 C 0.28617 0.29639 0.58526 0.0
C537 C 0.28288 0.31071 0.61194 0.0
C538 C 0.26766 0.30689 0.56265 0.0
C539 C 0.24426 0.32996 0.56774 0.0
C540 C 0.25976 0.33393 0.61587 0.0
N541 N 0.21325 0.37266 0.55155 0.0
C542 C 0.23065 0.34603 0.54576 0.0
C543 C 0.21042 0.38616 0.50283 0.0
C544 C 0.22737 0.35799 0.49646 0.0
C545 C 0.20454 0.39403 0.53068 0.0
C546 C 0.23876 0.33842 0.51806 0.0
H547 H 0.23281 0.35267 0.47489 0.0
O548 O 0.25761 0.44966 0.58355 0.0
O549 O 0.14826 0.39375 0.6113 0.0
O550 O 0.08879 0.34492 0.58853 0.0
O551 O 0.14769 0.33875 0.56966 0.0
O552 O 0.19605 0.44427 0.58805 0.0
O553 O 0.26811 0.4222 0.62134 0.0
O554 O 0.05801 0.26953 0.61803 0.0
O555 O 0.15046 0.32629 0.61965 0.0
O556 O 0.21188 0.38606 0.64662 0.0
O557 O 0.14996 0.39049 0.66078 0.0
O558 O 0.11943 0.29324 0.65565 0.0
O559 O 1.0254 0.29509 0.64428 0.0
C560 C 0.15954 0.43165 0.60139 0.0
C561 C 0.26006 0.31359 0.51287 0.0
C562 C 0.27449 0.29784 0.53511 0.0
C563 C 0.28594 0.45417 0.60301 0.0
C564 C 0.33198 0.4676 0.59385 0.0
C565 C 0.3392 0.44152 0.57445 0.0
C566 C 0.36907 0.50656 0.60439 0.0
C567 C 0.41309 0.51894 0.5958 0.0
C568 C 0.38222 0.45277 0.56634 0.0
C569 C 0.41883 0.49083 0.577 0.0
C570 C 0.10637 0.33267 0.56812 0.0
C571 C 0.14968 0.29931 0.63759 0.0
C572 C 1.02206 0.26015 0.63181 0.0
C573 C 1.00228 0.21868 0.64823 0.0
C574 C 1.01558 0.21962 0.67591 0.0
C575 C 0.97042 0.17789 0.63633 0.0
C576 C 0.95177 0.13824 0.65211 0.0
C577 C 0.99762 0.18064 0.69152 0.0
C578 C 0.96608 0.14028 0.67978 0.0
C579 C 0.19009 0.39642 0.6654 0.0
H580 H 0.31161 0.41247 0.56546 0.0
H581 H 0.36345 0.52742 0.61881 0.0
H582 H 0.38722 0.43185 0.55163 0.0
H583 H 0.45174 0.49801 0.57053 0.0
H584 H 0.03994 0.2505 0.68547 0.0
H585 H 0.95991 0.1772 0.61501 0.0
H586 H 1.00832 0.18169 0.71281 0.0
H587 H 0.95338 0.11049 0.69233 0.0
Gd588 Gd 0.26506 0.94612 0.86989 0.0
Gd589 Gd 0.22017 0.8344 0.90085 0.0
C590 C 0.07991 0.74991 0.93495 0.0
C591 C 0.09319 0.75353 0.98475 0.0
C592 C 0.1553 0.79375 0.95281 0.0
C593 C 0.12597 0.77832 0.93026 0.0
C594 C 0.13906 0.78052 0.98018 0.0
C595 C 0.06369 0.73849 0.96226 0.0
C596 C 0.05144 0.73275 0.91202 0.0
C597 C 0.06905 0.74277 0.88519 0.0
N598 N 0.14235 0.78931 0.90384 0.0
C599 C 0.11482 0.77059 0.88143 0.0
H600 H 0.1274 0.77703 0.86045 0.0
C601 C 0.22972 0.82868 0.96919 0.0
N602 N 0.19977 0.81918 0.948 0.0
C603 C 0.21505 0.81697 0.99658 0.0
C604 C 0.1695 0.79329 1.00216 0.0
H605 H 0.2651 0.84658 0.96486 0.0
H606 H 1.02844 0.71695 0.96617 0.0
H607 H 0.3658 0.99839 0.9 0.0
H608 H 1.01593 0.71106 0.91481 0.0
H609 H 0.04736 0.72898 0.86733 0.0
H610 H 0.08039 0.74294 0.0056 0.0
H611 H 0.21064 0.94136 0.8103 0.0
H612 H 0.46506 0.03171 0.83703 0.0
H613 H 0.4445 0.02935 0.88667 0.0
H614 H 0.38051 0.99409 0.75226 0.0
H615 H 0.23888 0.82582 0.01333 0.0
H616 H 0.15819 0.78379 0.02341 0.0
H617 H 0.44078 1.01802 0.78678 0.0
H618 H 0.22444 0.94502 0.75983 0.0
N619 N 0.34157 0.98218 0.85851 0.0
C620 C 0.43041 1.01818 0.84278 0.0
C621 C 0.41894 1.01695 0.8708 0.0
C622 C 0.39709 1.00311 0.82248 0.0
C623 C 0.35254 0.98581 0.83117 0.0
C624 C 0.37416 0.99921 0.87829 0.0
N625 N 0.27712 0.95889 0.82133 0.0
C626 C 0.31919 0.97384 0.81187 0.0
C627 C 0.25141 0.95334 0.77429 0.0
C628 C 0.29376 0.96485 0.76439 0.0
C629 C 0.24378 0.95132 0.803 0.0
C630 C 0.3287 0.97694 0.78318 0.0
H631 H 0.29918 0.96442 0.74224 0.0
O632 O 0.2288 0.98287 0.87193 0.0
O633 O 0.20651 0.88825 0.88977 0.0
O634 O 0.20224 0.82872 0.85445 0.0
O635 O 0.25839 0.89661 0.83714 0.0
O636 O 0.19267 0.91894 0.85786 0.0
O637 O 0.29718 1.01479 0.88452 0.0
O638 O 0.25905 0.80554 0.91599 0.0
O639 O 0.28239 0.89933 0.8916 0.0
O640 O 0.28814 0.95235 0.91422 0.0
O641 O 0.23357 0.88785 0.93495 0.0
O642 O 0.28042 0.84275 0.87739 0.0
O643 O 0.19776 0.76389 0.89308 0.0
C644 C 0.17521 0.88739 0.87581 0.0
C645 C 0.3726 0.99194 0.77425 0.0
C646 C 0.40686 1.00541 0.7939 0.0
C647 C 0.26297 0.01987 0.87981 0.0
C648 C 0.27113 0.06034 0.86455 0.0
C649 C 0.30351 0.07765 0.8435 0.0
C650 C 0.24615 0.08162 0.87074 0.0
C651 C 0.25366 0.12012 0.85599 0.0
C652 C 0.31161 0.11591 0.8292 0.0
C653 C 0.28722 0.13709 0.83542 0.0
C654 C 0.22669 0.85489 0.83368 0.0
C655 C 0.30567 0.88484 0.88016 0.0
C656 C 0.23101 0.76533 0.90699 0.0
C657 C 0.22221 0.72718 0.92559 0.0
C658 C 0.23963 0.73608 0.95276 0.0
C659 C 0.20028 0.68224 0.91587 0.0
C660 C 0.19537 0.64718 0.93358 0.0
C661 C 0.23503 0.70196 0.97004 0.0
C662 C 0.21342 0.65821 0.96061 0.0
C663 C 0.26476 0.93085 0.93629 0.0
H664 H 0.32272 0.06168 0.83817 0.0
H665 H 0.22057 0.06779 0.88665 0.0
H666 H 0.33702 0.12932 0.8132 0.0
H667 H 0.29506 0.16717 0.82417 0.0
H668 H 0.2581 0.76969 0.96066 0.0
H669 H 0.18727 0.67471 0.89486 0.0
H670 H 0.24894 0.70958 0.99082 0.0
H671 H 0.21141 0.63278 0.9746 0.0
Gd672 Gd 0.66433 0.84232 0.60733 0.0
Gd673 Gd 0.73469 0.79947 0.6313 0.0
C674 C 0.65055 0.6471 0.62804 0.0
C675 C 0.621 0.62899 0.67502 0.0
C676 C 0.67304 0.70582 0.66231 0.0
C677 C 0.67457 0.69263 0.63542 0.0
C678 C 0.64749 0.67384 0.68271 0.0
C679 C 0.62261 0.61561 0.64771 0.0
C680 C 0.65618 0.63449 0.60132 0.0
C681 C 0.68663 0.66667 0.58321 0.0
N682 N 0.70122 0.72406 0.61679 0.0
C683 C 0.70953 0.71129 0.59154 0.0
H684 H 0.73447 0.73498 0.5778 0.0
C685 C 0.70745 0.76117 0.69661 0.0
N686 N 0.69962 0.74929 0.66906 0.0
C687 C 0.68185 0.73125 0.71746 0.0
C688 C 0.65091 0.68754 0.71043 0.0
H689 H 0.73281 0.79414 0.70286 0.0
H690 H 0.60323 0.58068 0.64224 0.0
H691 H 0.65339 0.89711 0.66304 0.0
H692 H 0.63841 0.59993 0.59484 0.0
H693 H 0.6928 0.65712 0.56291 0.0
H694 H 0.60059 0.60416 0.69029 0.0
H695 H 0.68868 0.8571 0.53704 0.0
H696 H 0.74318 0.03583 0.65346 0.0
H697 H 0.68698 0.97288 0.68117 0.0
H698 H 0.8023 0.0472 0.56195 0.0
H699 H 0.68616 0.74198 0.73895 0.0
H700 H 0.63162 0.6642 0.7267 0.0
H701 H 0.7864 0.06308 0.60918 0.0
H702 H 0.74089 0.9155 0.50622 0.0
N703 N 0.69356 0.91491 0.62622 0.0
C704 C 0.72915 1.0022 0.64549 0.0
C705 C 0.69771 0.96676 0.66126 0.0
C706 C 0.74095 0.99396 0.6192 0.0
C707 C 0.72174 0.94945 0.60976 0.0
C708 C 0.6795 0.92334 0.65104 0.0
N709 N 0.70903 0.89761 0.57389 0.0
C710 C 0.73045 0.94048 0.58306 0.0
C711 C 0.73912 0.92289 0.52796 0.0
C712 C 0.76447 0.96622 0.53782 0.0
C713 C 0.71041 0.88925 0.54605 0.0
C714 C 0.75898 0.97585 0.56532 0.0
H715 H 0.7865 0.99226 0.52369 0.0
O716 O 0.62026 0.84269 0.57467 0.0
O717 O 0.66835 0.77958 0.61137 0.0
O718 O 0.7437 0.80696 0.58535 0.0
O719 O 0.67962 0.80682 0.57083 0.0
O720 O 0.61115 0.77839 0.62533 0.0
O721 O 0.6027 0.8415 0.61763 0.0
O722 O 0.78942 0.81872 0.66047 0.0
O723 O 0.72918 0.86108 0.62753 0.0
O724 O 0.65382 0.83154 0.65415 0.0
O725 O 0.71848 0.83178 0.66726 0.0
O726 O 0.78609 0.86403 0.61199 0.0
O727 O 0.79127 0.7916 0.6201 0.0
C728 C 0.63007 0.75474 0.62198 0.0
C729 C 0.77995 0.01982 0.5752 0.0
C730 C 0.7708 0.02888 0.60205 0.0
C731 C 0.59281 0.84549 0.59218 0.0
C732 C 0.5811 0.88105 0.58792 0.0
C733 C 0.61487 0.92492 0.583 0.0
C734 C 0.53673 0.87236 0.59123 0.0
C735 C 0.52699 0.9076 0.59046 0.0
C736 C 0.60544 0.95971 0.58255 0.0
C737 C 0.56193 0.95124 0.58647 0.0
C738 C 0.71615 0.80374 0.56553 0.0
C739 C 0.76706 0.88708 0.61722 0.0
C740 C 0.81234 0.80878 0.64323 0.0
C741 C 0.84028 0.79157 0.6544 0.0
C742 C 0.82285 0.75396 0.67151 0.0
C743 C 0.88579 0.8138 0.64742 0.0
C744 C 0.91432 0.79895 0.65753 0.0
C745 C 0.85086 0.73885 0.68163 0.0
C746 C 0.89622 0.7611 0.67477 0.0
C747 C 0.6813 0.832 0.67337 0.0
H748 H 0.64869 0.93244 0.57968 0.0
H749 H 0.51007 0.83857 0.59458 0.0
H750 H 0.63201 0.99343 0.57898 0.0
H751 H 0.55528 0.97868 0.58548 0.0
H752 H 0.78781 0.73642 0.67696 0.0
H753 H 0.89907 0.8432 0.6344 0.0
H754 H 0.83737 0.70971 0.69483 0.0
H755 H 0.917 0.74836 0.68269 0.0
Gd756 Gd 0.09404 0.31632 0.86713 0.0
Gd757 Gd 0.20689 0.36619 0.89549 0.0
C758 C 0.27331 0.28067 0.90575 0.0
C759 C 0.27121 0.27102 0.9559 0.0
C760 C 0.24223 0.3154 0.93502 0.0
C761 C 0.2511 0.3054 0.90882 0.0
C762 C 0.2532 0.29929 0.95893 0.0
C763 C 0.28186 0.26221 0.92934 0.0
C764 C 0.28765 0.27656 0.87922 0.0
C765 C 0.2806 0.29765 0.85672 0.0
N766 N 0.2418 0.32333 0.88648 0.0
C767 C 0.258 0.32138 0.86077 0.0
H768 H 0.254 0.33813 0.84316 0.0
C769 C 0.22629 0.36242 0.96251 0.0
N770 N 0.22676 0.34433 0.93716 0.0
C771 C 0.23534 0.34645 0.98688 0.0
C772 C 0.2478 0.31387 0.98512 0.0
H773 H 0.21705 0.38798 0.96389 0.0
H774 H 0.29779 0.24213 0.92731 0.0
H775 H 0.06453 0.36523 0.92051 0.0
H776 H 0.30495 0.25799 0.87599 0.0
H777 H 0.29251 0.29562 0.8362 0.0
H778 H 0.27886 0.25751 0.974 0.0
H779 H 0.07164 0.27806 0.80202 0.0
H780 H 1.00091 0.43035 0.88382 0.0
H781 H 1.02862 0.40972 0.92518 0.0
H782 H 0.98437 0.38625 0.78853 0.0
H783 H 0.2329 0.35942 0.00696 0.0
H784 H 0.25495 0.30169 1.00401 0.0
H785 H 0.98551 0.42228 0.83289 0.0
H786 H 1.02942 0.28109 0.76177 0.0
N787 N 0.05969 0.36019 0.87591 0.0
C788 C 1.01716 0.41064 0.88133 0.0
C789 C 0.03249 0.39882 0.90472 0.0
C790 C 1.02103 0.39513 0.85519 0.0
C791 C 0.04272 0.36967 0.853 0.0
C792 C 0.05302 0.37298 0.90173 0.0
N793 N 0.06281 0.32499 0.82603 0.0
C794 C 0.04351 0.35084 0.82755 0.0
C795 C 0.03389 0.30156 0.77991 0.0
C796 C 1.01575 0.32963 0.78055 0.0
C797 C 0.05814 0.30024 0.80271 0.0
C798 C 1.02069 0.35496 0.8044 0.0
H799 H 0.99738 0.33095 0.76267 0.0
O800 O 1.02527 0.26725 0.8575 0.0
O801 O 0.14972 0.3036 0.8786 0.0
O802 O 0.20883 0.37053 0.8476 0.0
O803 O 0.13913 0.35686 0.83165 0.0
O804 O 0.11878 0.27991 0.84021 0.0
O805 O 0.06362 0.24922 0.88425 0.0
O806 O 0.26288 0.42371 0.91551 0.0
O807 O 0.15333 0.38007 0.88149 0.0
O808 O 0.08706 0.31475 0.91344 0.0
O809 O 0.1557 0.3275 0.93027 0.0
O810 O 0.18518 0.40949 0.91801 0.0
O811 O 0.26103 0.41795 0.87112 0.0
C812 C 0.148 0.28085 0.85725 0.0
C813 C 1.00126 0.38209 0.80626 0.0
C814 C 1.00186 0.40252 0.83153 0.0
C815 C 1.02595 0.23565 0.87159 0.0
C816 C 0.98518 0.2041 0.8864 0.0
C817 C 0.96538 0.21826 0.90645 0.0
C818 C 0.96565 0.15858 0.87993 0.0
C819 C 0.92687 0.12695 0.89372 0.0
C820 C 0.92698 0.18699 0.92039 0.0
C821 C 0.90799 0.14158 0.91428 0.0
C822 C 0.18205 0.37074 0.82778 0.0
C823 C 0.15575 0.40669 0.90053 0.0
C824 C 0.28447 0.44048 0.89249 0.0
C825 C 0.33271 0.45415 0.89193 0.0
C826 C 0.34564 0.42183 0.88891 0.0
C827 C 0.36632 0.49948 0.89363 0.0
C828 C 0.41193 0.51182 0.89113 0.0
C829 C 0.39033 0.43387 0.88605 0.0
C830 C 0.42324 0.47851 0.88686 0.0
C831 C 0.11265 0.31456 0.93362 0.0
H832 H 0.97979 0.25329 0.91144 0.0
H833 H 0.98073 0.14774 0.86414 0.0
H834 H 0.9118 0.19797 0.93595 0.0
H835 H 0.87791 0.11804 0.92508 0.0
H836 H 0.32136 0.38715 0.8888 0.0
H837 H 0.35714 0.52491 0.89675 0.0
H838 H 0.39952 0.40838 0.88349 0.0
H839 H 0.45782 0.48695 0.8852 0.0
Gd840 Gd 0.20369 0.85714 0.60605 0.0
Gd841 Gd 0.26887 0.97234 0.63387 0.0
C842 C 0.41906 0.04611 0.65097 0.0
C843 C 0.4223 0.06899 0.69917 0.0
C844 C 0.35087 0.02654 0.67581 0.0
C845 C 0.37214 0.02529 0.65184 0.0
C846 C 0.37579 0.05017 0.69937 0.0
C847 C 0.4439 0.06668 0.67503 0.0
C848 C 0.4397 0.04728 0.62566 0.0
C849 C 0.41378 0.02996 0.60181 0.0
N850 N 0.34713 1.00656 0.62878 0.0
C851 C 0.36746 1.01047 0.60364 0.0
H852 H 0.34836 0.99752 0.58485 0.0
C853 C 0.28415 1.01451 0.69692 0.0
N854 N 0.30597 1.00788 0.67528 0.0
C855 C 0.30759 0.03931 0.72024 0.0
C856 C 0.35348 0.05621 0.72182 0.0
H857 H 0.24872 1.00168 0.69617 0.0
H858 H 0.47991 0.08247 0.67484 0.0
H859 H 0.12407 0.8029 0.6539 0.0
H860 H 0.47561 0.06275 0.62414 0.0
H861 H 0.42944 0.03166 0.58195 0.0
H862 H 0.44193 0.08663 0.71723 0.0
H863 H 0.22634 0.85847 0.5377 0.0
H864 H 0.99701 0.7515 0.61447 0.0
H865 H 0.042 0.75967 0.65635 0.0
H866 H 0.03493 0.79287 0.51891 0.0
H867 H 0.29009 0.04465 0.73721 0.0
H868 H 0.37145 0.07476 0.74013 0.0
H869 H 0.99472 0.76673 0.56345 0.0
H870 H 0.18683 0.84446 0.49275 0.0
N871 N 0.12567 0.81844 0.61093 0.0
C872 C 0.03304 0.76991 0.61317 0.0
C873 C 0.05831 0.77441 0.63683 0.0
C874 C 0.0546 0.78845 0.58796 0.0
C875 C 0.10158 0.81166 0.58734 0.0
C876 C 0.10482 0.799 0.63536 0.0
N877 N 0.1687 0.84208 0.56212 0.0
C878 C 0.12386 0.82454 0.56217 0.0
C879 C 0.16878 0.83905 0.51212 0.0
C880 C 0.12324 0.8247 0.51183 0.0
C881 C 0.19101 0.84682 0.53759 0.0
C882 C 0.09998 0.81611 0.53704 0.0
H883 H 0.10607 0.81868 0.49208 0.0
O884 O 0.22521 0.81183 0.59031 0.0
O885 O 0.27089 0.9109 0.6199 0.0
O886 O 0.2705 0.96745 0.5874 0.0
O887 O 0.20256 0.9076 0.57546 0.0
O888 O 0.26796 0.87704 0.58379 0.0
O889 O 0.18125 0.79244 0.62575 0.0
O890 O 0.23657 1.01227 0.64008 0.0
O891 O 0.20177 0.91503 0.62405 0.0
O892 O 0.20957 0.85827 0.65422 0.0
O893 O 0.27016 0.92796 0.66744 0.0
O894 O 0.20686 0.95101 0.65971 0.0
O895 O 0.28749 0.03144 0.60883 0.0
C896 C 0.29465 0.9062 0.6014 0.0
C897 C 0.05357 0.79764 0.53789 0.0
C898 C 0.03077 0.78315 0.56327 0.0
C899 C 0.20049 0.77973 0.60742 0.0
C900 C 0.17307 0.73495 0.5947 0.0
C901 C 0.14962 0.73073 0.57011 0.0
C902 C 0.17222 0.69673 0.60595 0.0
C903 C 0.14965 0.65479 0.592 0.0
C904 C 0.12728 0.69013 0.55631 0.0
C905 C 0.12793 0.65294 0.5667 0.0
C906 C 0.237 0.94755 0.56998 0.0
C907 C 0.17992 0.91833 0.64422 0.0
C908 C 0.26117 0.04228 0.62198 0.0
C909 C 0.28025 0.08919 0.63117 0.0
C910 C 0.32493 0.11339 0.63961 0.0
C911 C 0.25343 0.10958 0.63261 0.0
C912 C 0.27119 0.15354 0.64287 0.0
C913 C 0.34274 0.15699 0.64924 0.0
C914 C 0.31618 0.17685 0.65097 0.0
C915 C 0.24029 0.88562 0.67251 0.0
H916 H 0.1495 0.75908 0.56104 0.0
H917 H 0.18959 0.70032 0.6253 0.0
H918 H 0.11023 0.68772 0.53696 0.0
H919 H 0.11215 0.62321 0.55406 0.0
H920 H 0.34605 0.0985 0.63892 0.0
H921 H 0.21871 0.09095 0.62656 0.0
H922 H 0.37725 0.17537 0.65567 0.0
H923 H 0.33085 0.21064 0.65877 0.0
Gd924 Gd 0.73233 0.77328 0.87423 0.0
Gd925 Gd 0.68263 0.83751 0.90509 0.0
C926 C 0.76855 0.98174 0.93339 0.0
C927 C 0.77111 0.97311 0.98341 0.0
C928 C 0.72592 0.90898 0.95425 0.0
C929 C 0.74122 0.93526 0.93079 0.0
C930 C 0.73923 0.92787 0.98093 0.0
C931 C 0.78502 1.00033 0.95972 0.0
C932 C 0.77817 1.00798 0.90951 0.0
C933 C 0.76081 0.98762 0.88388 0.0
N934 N 0.72682 0.9157 0.90554 0.0
C935 C 0.7352 0.9412 0.88224 0.0
H936 H 0.72248 0.92607 0.86222 0.0
C937 C 0.67341 0.83971 0.97348 0.0
N938 N 0.69572 0.86531 0.95096 0.0
C939 C 0.68515 0.85705 1.00046 0.0
C940 C 0.71908 0.90105 0.00424 0.0
H941 H 0.64801 0.80535 0.9706 0.0
H942 H 0.80785 0.0357 0.96203 0.0
H943 H 0.67514 0.68517 0.91703 0.0
H944 H 0.79871 0.04386 0.91064 0.0
H945 H 0.76778 1.00762 0.86529 0.0
H946 H 0.78399 0.98754 1.00362 0.0
H947 H 0.7735 0.80762 0.81069 0.0
H948 H 0.61726 0.56655 0.86807 0.0
H949 H 0.62954 0.60411 0.91372 0.0
H950 H 0.67179 0.61894 0.77609 0.0
H951 H 0.6685 0.83633 0.01829 0.0
H952 H 0.72836 0.91437 0.02513 0.0
H953 H 0.63306 0.57239 0.81672 0.0
H954 H 0.7704 0.77573 0.76409 0.0
N955 N 0.68831 0.69485 0.8734 0.0
C956 C 0.6374 0.60246 0.86933 0.0
C957 C 0.64432 0.62353 0.89512 0.0
C958 C 0.65726 0.62793 0.84555 0.0
C959 C 0.68295 0.67461 0.84832 0.0
C960 C 0.67042 0.66987 0.89685 0.0
N961 N 0.72887 0.74524 0.8291 0.0
C962 C 0.70409 0.70066 0.82546 0.0
C963 C 0.75146 0.75423 0.78115 0.0
C964 C 0.72521 0.70841 0.77693 0.0
C965 C 0.75313 0.77216 0.80756 0.0
C966 C 0.70106 0.68098 0.7992 0.0
H967 H 0.72413 0.69451 0.7565 0.0
O968 O 0.80208 0.7941 0.86499 0.0
O969 O 0.74331 0.8374 0.8912 0.0
O970 O 0.69263 0.84647 0.85768 0.0
O971 O 0.69266 0.78298 0.84061 0.0
O972 O 0.78373 0.8421 0.85845 0.0
O973 O 0.76941 0.75333 0.90105 0.0
O974 O 0.61675 0.8236 0.91872 0.0
O975 O 0.66921 0.77265 0.8866 0.0
O976 O 0.72037 0.76272 0.92058 0.0
O977 O 0.72626 0.82834 0.93723 0.0
O978 O 0.63222 0.76989 0.92104 0.0
O979 O 0.64461 0.86007 0.88071 0.0
C980 C 0.77517 0.86462 0.87633 0.0
C981 C 0.67482 0.63464 0.79614 0.0
C982 C 0.65281 0.60816 0.81927 0.0
C983 C 0.80618 0.77394 0.88669 0.0
C984 C 0.83438 0.75292 0.88455 0.0
C985 C 0.81647 0.70713 0.88928 0.0
C986 C 0.88081 0.77983 0.88056 0.0
C987 C 0.90903 0.76132 0.88198 0.0
C988 C 0.8444 0.68872 0.89054 0.0
C989 C 0.8904 0.71562 0.88712 0.0
C990 C 0.68871 0.81879 0.83711 0.0
C991 C 0.63767 0.74622 0.90236 0.0
C992 C 0.61199 0.84609 0.89858 0.0
C993 C 0.59771 0.87854 0.90662 0.0
C994 C 0.62506 0.91472 0.92375 0.0
C995 C 0.55711 0.87404 0.89692 0.0
C996 C 0.54419 0.90586 0.90416 0.0
C997 C 0.61303 0.94647 0.93066 0.0
C998 C 0.57322 0.94234 0.92087 0.0
C999 C 0.73135 0.79296 0.94038 0.0
H1000 H 0.78103 0.68572 0.89252 0.0
H1001 H 0.89507 0.81524 0.87698 0.0
H1002 H 0.83036 0.65347 0.89439 0.0
H1003 H 0.91146 0.70068 0.88814 0.0
H1004 H 0.65583 0.91858 0.93177 0.0
H1005 H 0.53555 0.84559 0.88412 0.0
H1006 H 0.63479 0.97457 0.94363 0.0
H1007 H 0.56548 0.96817 0.92625 0.0
H1008 H 0.17766 0.23532 0.10208 0.0
H1009 H 0.19843 0.26212 0.19019 0.0
H1010 H 0.24453 0.22696 0.19184 0.0
H1011 H 0.27883 0.18827 0.16855 0.0
H1012 H 0.26086 0.16252 0.08045 0.0
H1013 H 0.2137 0.19717 0.07834 0.0
C1014 C 0.1921 0.23314 0.12162 0.0
C1015 C 0.18457 0.25129 0.14601 0.0
C1016 C 0.21923 0.21325 0.12236 0.0
C1017 C 0.20392 0.24868 0.17113 0.0
C1018 C 0.23021 0.22849 0.1721 0.0
C1019 C 0.26496 0.19081 0.14885 0.0
C1020 C 0.2744 0.17439 0.12454 0.0
C1021 C 0.23821 0.21082 0.14789 0.0
C1022 C 0.2552 0.17641 0.09925 0.0
C1023 C 0.22793 0.19581 0.09814 0.0
H1024 H 0.07226 0.87019 0.43095 0.0
H1025 H 0.10987 0.88168 0.34429 0.0
H1026 H 0.03205 0.83411 0.33122 0.0
H1027 H 0.95299 0.78769 0.34427 0.0
H1028 H 0.91514 0.77543 0.43071 0.0
H1029 H 0.99299 0.82453 0.44398 0.0
C1030 C 0.06354 0.86213 0.4092 0.0
C1031 C 0.09723 0.87982 0.38867 0.0
C1032 C 1.0185 0.83447 0.40177 0.0
C1033 C 0.08487 0.86928 0.36056 0.0
C1034 C 0.04028 0.84179 0.35304 0.0
C1035 C 0.96195 0.79584 0.366 0.0
C1036 C 0.92867 0.77695 0.38657 0.0
C1037 C 1.00681 0.8241 0.37344 0.0
C1038 C 0.94038 0.78853 0.41459 0.0
C1039 C 0.98487 0.81683 0.42215 0.0
H1040 H 0.88262 0.09587 0.1718 0.0
H1041 H 0.89866 0.11212 0.08293 0.0
H1042 H 0.86375 0.03106 0.07693 0.0
H1043 H 0.82421 0.95461 0.09723 0.0
H1044 H 0.80617 0.94 0.18615 0.0
H1045 H 0.84612 0.02083 0.19196 0.0
C1046 C 0.87847 0.08155 0.15113 0.0
C1047 C 0.89184 0.10968 0.12778 0.0
C1048 C 0.85798 0.03504 0.14791 0.0
C1049 C 0.88734 0.09095 0.10115 0.0
C1050 C 0.86767 0.04463 0.09776 0.0
C1051 C 0.8298 0.96931 0.11784 0.0
C1052 C 0.81258 0.9414 0.1413 0.0
C1053 C 0.85216 1.01617 0.12099 0.0
C1054 C 0.8193 0.96081 0.16786 0.0
C1055 C 0.84203 1.00702 0.17118 0.0
H1056 H 0.216 0.13461 0.39036 0.0
H1057 H 0.29227 0.19062 0.31557 0.0
H1058 H 0.24525 0.22118 0.30279 0.0
H1059 H 0.18548 0.23669 0.31388 0.0
H1060 H 0.10869 0.1843 0.38891 0.0
H1061 H 0.15238 0.14811 0.40069 0.0
C1062 C 0.2224 0.15388 0.37145 0.0
C1063 C 0.25826 0.1607 0.35404 0.0
C1064 C 0.19482 0.17196 0.36422 0.0
C1065 C 0.26497 0.18429 0.32912 0.0
C1066 C 0.23812 0.2022 0.32188 0.0
C1067 C 0.17798 0.21701 0.33271 0.0
C1068 C 0.14399 0.21341 0.35052 0.0
C1069 C 0.20329 0.19668 0.33935 0.0
C1070 C 0.13446 0.18738 0.37472 0.0
C1071 C 0.15966 0.1669 0.38153 0.0
H1072 H 0.07903 0.86991 0.17333 0.0
H1073 H 0.08967 0.88824 0.0844 0.0
H1074 H 1.00835 0.84367 0.08005 0.0
H1075 H 0.9343 0.79387 0.10156 0.0
H1076 H 0.92535 0.77696 0.19067 0.0
H1077 H 1.00553 0.82688 0.19504 0.0
C1078 C 0.06346 0.86446 0.15303 0.0
C1079 C 0.09028 0.88192 0.1292 0.0
C1080 C 1.01691 0.83888 0.15074 0.0
C1081 C 0.06969 0.87521 0.10306 0.0
C1082 C 1.02321 0.84965 0.10057 0.0
C1083 C 0.95014 0.80119 0.12184 0.0
C1084 C 0.92448 0.78038 0.14569 0.0
C1085 C 0.9965 0.83034 0.12422 0.0
C1086 C 0.9448 0.79164 0.172 0.0
C1087 C 0.99058 0.82025 0.17452 0.0
H1088 H 0.82084 0.96631 0.3363 0.0
H1089 H 0.81648 0.92569 0.42155 0.0
H1090 H 0.85523 1.00367 0.43652 0.0
H1091 H 0.88614 0.08391 0.42555 0.0
H1092 H 0.88808 0.12284 0.34023 0.0
H1093 H 0.85483 0.04546 0.32508 0.0
C1094 C 0.82827 0.97447 0.35817 0.0
C1095 C 0.81537 0.94012 0.37776 0.0
C1096 C 0.8503 0.01927 0.36661 0.0
C1097 C 0.82617 0.95144 0.40598 0.0
C1098 C 0.84831 0.99606 0.41457 0.0
C1099 C 0.87955 0.07521 0.40368 0.0
C1100 C 0.88809 0.10856 0.38407 0.0
C1101 C 0.86005 0.03033 0.39512 0.0
C1102 C 0.88029 0.09733 0.35571 0.0
C1103 C 0.86155 0.05316 0.34704 0.0
H1104 H 0.22174 0.16864 0.60398 0.0
H1105 H 0.25979 0.18889 0.69049 0.0
H1106 H 0.22354 0.23348 0.69691 0.0
H1107 H 0.18552 0.2715 0.67737 0.0
H1108 H 0.14989 0.25469 0.59058 0.0
H1109 H 0.17953 0.20369 0.58488 0.0
C1110 C 0.22126 0.18213 0.62431 0.0
C1111 C 0.24351 0.1754 0.64674 0.0
C1112 C 0.2009 0.20869 0.62777 0.0
C1113 C 0.24311 0.19368 0.67288 0.0
C1114 C 0.2224 0.21927 0.67658 0.0
C1115 C 0.18424 0.25653 0.65726 0.0
C1116 C 0.16692 0.2679 0.63424 0.0
C1117 C 0.20204 0.22785 0.65408 0.0
C1118 C 0.16429 0.24741 0.60842 0.0
C1119 C 0.181 0.21803 0.60521 0.0
H1120 H 0.10801 0.85993 0.83917 0.0
H1121 H 0.13482 0.86739 0.9271 0.0
H1122 H 0.05457 0.83035 0.9371 0.0
H1123 H 0.9761 0.79253 0.92029 0.0
H1124 H 0.95059 0.79003 0.83238 0.0
H1125 H 0.03076 0.82822 0.82274 0.0
C1126 C 0.09615 0.8532 0.86051 0.0
C1127 C 0.12698 0.86437 0.88234 0.0
C1128 C 0.05017 0.83279 0.86601 0.0
C1129 C 0.11149 0.85725 0.90994 0.0
C1130 C 0.06567 0.83652 0.91563 0.0
C1131 C 0.98833 0.80098 0.89911 0.0
C1132 C 0.9577 0.78872 0.87701 0.0
C1133 C 0.0346 0.8235 0.89379 0.0
C1134 C 0.97368 0.79952 0.84964 0.0
C1135 C 1.01944 0.82113 0.84415 0.0
H1136 H 0.83484 0.95466 0.58907 0.0
H1137 H 0.76449 0.92278 0.66733 0.0
H1138 H 0.81378 0.99812 0.6843 0.0
H1139 H 0.87766 0.07263 0.67735 0.0
H1140 H 0.95 0.10514 0.59968 0.0
H1141 H 0.89827 0.03083 0.58164 0.0
C1142 C 0.83029 0.96452 0.60975 0.0
C1143 C 0.79556 0.93355 0.62672 0.0
C1144 C 0.85886 1.00814 0.61937 0.0
C1145 C 0.79036 0.94625 0.65367 0.0
C1146 C 0.81866 0.98933 0.66342 0.0
C1147 C 0.88237 0.06348 0.65651 0.0
C1148 C 0.9181 0.09446 0.64006 0.0
C1149 C 0.85308 0.02049 0.64649 0.0
C1150 C 0.92276 0.08221 0.61281 0.0
C1151 C 0.8934 0.03953 0.60256 0.0
H1152 H 0.16217 0.23132 0.89734 0.0
H1153 H 0.16572 0.25415 0.80895 0.0
H1154 H 0.19442 0.20366 0.80058 0.0
H1155 H 0.22325 0.15702 0.81807 0.0
H1156 H 0.22386 0.135 0.90635 0.0
H1157 H 0.1875 0.17937 0.91493 0.0
C1158 C 0.1697 0.22543 0.87634 0.0
C1159 C 0.16437 0.24862 0.8539 0.0
C1160 C 0.18624 0.19577 0.87158 0.0
C1161 C 0.17172 0.23861 0.82668 0.0
C1162 C 0.18776 0.20934 0.82183 0.0
C1163 C 0.21584 0.16207 0.83928 0.0
C1164 C 0.22725 0.14317 0.86151 0.0
C1165 C 0.19622 0.18864 0.84411 0.0
C1166 C 0.21556 0.14892 0.88873 0.0
C1167 C 0.19492 0.17458 0.89368 0.0
H1168 H 0.1114 0.90069 0.60861 0.0
H1169 H 0.14137 0.88535 0.69347 0.0
H1170 H 0.06231 0.84822 0.70546 0.0
H1171 H 0.9845 0.81885 0.69175 0.0
H1172 H 0.95326 0.83374 0.60697 0.0
H1173 H 0.03252 0.87277 0.59512 0.0
C1174 C 0.1003 0.88861 0.62957 0.0
C1175 C 0.1317 0.89356 0.64987 0.0
C1176 C 0.05461 0.86795 0.63645 0.0
C1177 C 0.11743 0.88004 0.67731 0.0
C1178 C 0.07231 0.8592 0.68422 0.0
C1179 C 0.99493 0.8303 0.67062 0.0
C1180 C 0.96276 0.82307 0.6503 0.0
C1181 C 0.04053 0.85253 0.66391 0.0
C1182 C 0.97718 0.83913 0.62315 0.0
C1183 C 1.02257 0.86143 0.61631 0.0
H1184 H 0.89857 0.05488 0.92774 0.0
H1185 H 0.90555 0.09196 0.84148 0.0
H1186 H 0.86272 1.01354 0.82804 0.0
H1187 H 0.81729 0.93456 0.84133 0.0
H1188 H 0.80851 0.89766 0.92761 0.0
H1189 H 0.85952 0.97523 0.94043 0.0
C1190 C 0.89112 0.04567 0.90599 0.0
C1191 C 0.90482 0.07915 0.88566 0.0
C1192 C 0.86643 1.00044 0.8984 0.0
C1193 C 0.89537 0.06679 0.85751 0.0
C1194 C 0.8708 0.02196 0.84981 0.0
C1195 C 0.82661 0.9437 0.8629 0.0
C1196 C 0.80757 0.91109 0.8837 0.0
C1197 C 0.85517 0.98854 0.87014 0.0
C1198 C 0.82128 0.9227 0.91144 0.0
C1199 C 0.85074 0.96696 0.91872 0.0
H1200 H 0.3161 0.15075 0.29403 0.0
H1201 H 0.45653 0.23663 0.30624 0.0
H1202 H 0.46773 0.24306 0.25531 0.0
H1203 H 0.4366 0.21599 0.20714 0.0
H1204 H 0.29454 0.13113 0.19838 0.0
H1205 H 0.28445 0.13397 0.24813 0.0
C1206 C 0.3488 0.17321 0.28571 0.0
C1207 C 0.38501 0.19483 0.30386 0.0
C1208 C 0.35462 0.17628 0.25688 0.0
C1209 C 0.42786 0.22092 0.29262 0.0
C1210 C 0.43422 0.22409 0.26352 0.0
C1211 C 0.40353 0.19916 0.21621 0.0
C1212 C 0.36635 0.1727 0.1992 0.0
C1213 C 0.39781 0.20083 0.24535 0.0
C1214 C 0.32365 0.15092 0.2111 0.0
C1215 C 0.31779 0.15261 0.23956 0.0
H1216 H 0.7704 0.60271 0.30233 0.0
H1217 H 0.91035 0.69553 0.31189 0.0
H1218 H 0.91955 0.69988 0.26098 0.0
H1219 H 0.88457 0.68642 0.21381 0.0
H1220 H 0.74298 0.59853 0.20625 0.0
H1221 H 0.73757 0.5825 0.25601 0.0
C1222 C 0.80327 0.62263 0.29327 0.0
C1223 C 0.8397 0.64851 0.31084 0.0
C1224 C 0.80775 0.62625 0.26417 0.0
C1225 C 0.88196 0.67468 0.29885 0.0
C1226 C 0.887 0.67768 0.2697 0.0
C1227 C 0.85286 0.66289 0.22306 0.0
C1228 C 0.81415 0.64353 0.20642 0.0
C1229 C 0.84974 0.65503 0.25212 0.0
C1230 C 0.77312 0.61372 0.21865 0.0
C1231 C 0.77004 0.60454 0.2471 0.0
H1232 H 0.84244 0.14256 0.20656 0.0
H1233 H 0.87705 0.28011 0.19898 0.0
H1234 H 0.8725 0.2861 0.24916 0.0
H1235 H 0.86962 0.25595 0.29552 0.0
H1236 H 0.83312 0.11839 0.30502 0.0
H1237 H 0.82682 0.10831 0.25418 0.0
C1238 C 0.84713 0.17317 0.2159 0.0
C1239 C 0.85991 0.21085 0.19898 0.0
C1240 C 0.84493 0.17661 0.24525 0.0
C1241 C 0.86701 0.25065 0.21145 0.0
C1242 C 0.86474 0.25423 0.24024 0.0
C1243 C 0.85914 0.22346 0.28646 0.0
C1244 C 0.85211 0.18808 0.3039 0.0
C1245 C 0.85542 0.21801 0.25739 0.0
C1246 C 0.83855 0.14612 0.29199 0.0
C1247 C 0.83524 0.14047 0.26289 0.0
H1248 H 0.22138 0.35649 0.70113 0.0
H1249 H 0.19124 0.46296 0.69538 0.0
H1250 H 0.1908 0.46833 0.74605 0.0
H1251 H 0.18356 0.43227 0.79168 0.0
H1252 H 0.2175 0.32869 0.79826 0.0
H1253 H 0.23066 0.33169 0.74801 0.0
C1254 C 0.21671 0.38213 0.711 0.0
C1255 C 0.20636 0.4093 0.69445 0.0
C1256 C 0.21529 0.38426 0.74043 0.0
C1257 C 0.19961 0.44188 0.70762 0.0
C1258 C 0.19886 0.44466 0.73668 0.0
C1259 C 0.19505 0.41128 0.78217 0.0
C1260 C 0.19869 0.37965 0.79859 0.0
C1261 C 0.20412 0.41434 0.75329 0.0
C1262 C 0.21387 0.35286 0.78604 0.0
C1263 C 0.2215 0.35465 0.75724 0.0
H1264 H 0.28766 0.86666 0.79523 0.0
H1265 H 0.14662 0.81311 0.80625 0.0
H1266 H 0.13681 0.81146 0.75547 0.0
H1267 H 0.17096 0.83739 0.70851 0.0
H1268 H 0.31343 0.89794 0.69975 0.0
H1269 H 0.3201 0.88357 0.74867 0.0
C1270 C 0.25453 0.85305 0.78643 0.0
C1271 C 0.21788 0.8398 0.80435 0.0
C1272 C 0.2496 0.85393 0.75748 0.0
C1273 C 0.17521 0.8228 0.79283 0.0
C1274 C 0.16977 0.82252 0.7638 0.0
C1275 C 0.20323 0.84656 0.7173 0.0
C1276 C 0.24175 0.86905 0.70065 0.0
C1277 C 0.20705 0.83987 0.74597 0.0
C1278 C 0.28341 0.88082 0.71221 0.0
C1279 C 0.28724 0.87258 0.74018 0.0
H1280 H 0.73267 0.88821 0.71413 0.0
H1281 H 0.60596 0.77097 0.69914 0.0
H1282 H 0.59532 0.75667 0.74934 0.0
H1283 H 0.62685 0.77312 0.79715 0.0
H1284 H 0.7502 0.89422 0.81224 0.0
H1285 H 0.75762 0.91175 0.76247 0.0
C1286 C 0.70215 0.86036 0.72199 0.0
C1287 C 0.67004 0.83072 0.70314 0.0
C1288 C 0.6961 0.85276 0.75085 0.0
C1289 C 0.6307 0.79459 0.7134 0.0
C1290 C 0.62491 0.78613 0.74206 0.0
C1291 C 0.65472 0.80381 0.78949 0.0
C1292 C 0.68807 0.83239 0.80813 0.0
C1293 C 0.65802 0.81427 0.76093 0.0
C1294 C 0.7241 0.87201 0.79818 0.0
C1295 C 0.72842 0.88189 0.76974 0.0
H1296 H 0.33929 1.01007 0.94852 0.0
H1297 H 0.21301 0.91231 0.98332 0.0
H1298 H 0.22597 0.96091 0.02363 0.0
H1299 H 0.27111 0.03179 0.04769 0.0
H1300 H 0.39998 0.12793 0.01519 0.0
H1301 H 0.38722 0.07965 0.97459 0.0
C1302 C 0.31459 0.99907 0.96499 0.0
C1303 C 0.2749 0.95731 0.96268 0.0
C1304 C 0.32237 0.02728 0.98817 0.0
C1305 C 0.24377 0.94384 0.98447 0.0
C1306 C 0.25108 0.9719 0.00742 0.0
C1307 C 0.29682 0.04258 0.03192 0.0
C1308 C 0.33656 0.08421 0.03467 0.0
C1309 C 0.28993 1.01388 0.00927 0.0
C1310 C 0.36896 0.09676 0.01368 0.0
C1311 C 0.36174 0.06885 0.99054 0.0
H1312 H 0.72381 0.71417 0.45117 0.0
H1313 H 0.85315 0.74877 0.48417 0.0
H1314 H 0.84023 0.78543 0.5238 0.0
H1315 H 0.79289 0.80719 0.54911 0.0
H1316 H 0.66048 0.76726 0.51959 0.0
H1317 H 0.67478 0.73478 0.4778 0.0
C1318 C 0.74923 0.7296 0.46705 0.0
C1319 C 0.78963 0.72855 0.46451 0.0
C1320 C 0.7413 0.75033 0.4901 0.0
C1321 C 0.82182 0.74867 0.48548 0.0
C1322 C 0.81451 0.76995 0.5081 0.0
C1323 C 0.76684 0.79152 0.53361 0.0
C1324 C 0.72531 0.78963 0.53781 0.0
C1325 C 0.7745 0.77103 0.51056 0.0
C1326 C 0.69268 0.76955 0.51706 0.0
C1327 C 0.70077 0.75051 0.4933 0.0
H1328 H 0.03161 0.24365 0.94626 0.0
H1329 H 0.14405 0.35614 0.98395 0.0
H1330 H 0.10371 0.34048 0.0282 0.0
H1331 H 0.03477 0.29786 0.05534 0.0
H1332 H 0.9222 0.18382 0.01827 0.0
H1333 H 0.96396 0.19721 0.97477 0.0
C1334 C 0.04729 0.26458 0.96422 0.0
C1335 C 0.09104 0.30104 0.96166 0.0
C1336 C 1.02346 0.25551 0.98961 0.0
C1337 C 0.11106 0.32741 0.9853 0.0
C1338 C 0.08761 0.31876 0.01057 0.0
C1339 C 1.01901 0.27574 0.03782 0.0
C1340 C 0.97455 0.24021 0.04025 0.0
C1341 C 0.04351 0.28337 0.01285 0.0
C1342 C 0.95564 0.21195 0.01712 0.0
C1343 C 0.97969 0.21957 0.99214 0.0
H1344 H 0.2376 0.02741 0.45017 0.0
H1345 H 0.36727 0.12622 0.47938 0.0
H1346 H 0.35362 0.08793 0.52384 0.0
H1347 H 0.30753 0.02515 0.55319 0.0
H1348 H 0.1771 0.92416 0.52598 0.0
H1349 H 0.18866 0.96374 0.4816 0.0
C1350 C 0.26244 0.04064 0.46652 0.0
C1351 C 0.30286 0.08057 0.46195 0.0
C1352 C 0.25462 1.01753 0.49202 0.0
C1353 C 0.33519 0.09699 0.48293 0.0
C1354 C 0.32767 0.07457 0.50817 0.0
C1355 C 0.2812 1.0114 0.53779 0.0
C1356 C 0.24168 0.97087 0.54295 0.0
C1357 C 0.28779 0.03467 0.5128 0.0
C1358 C 0.20826 0.95449 0.52245 0.0
C1359 C 0.21478 0.97742 0.49715 0.0
H1360 H 0.8104 0.78642 0.05844 0.0
H1361 H 0.80162 0.66848 0.02194 0.0
H1362 H 0.77527 0.68325 0.9783 0.0
H1363 H 0.74823 0.72563 0.95223 0.0
H1364 H 0.76021 0.84619 0.98719 0.0
H1365 H 0.7903 0.83368 0.03014 0.0
C1366 C 0.80374 0.76463 0.04064 0.0
C1367 C 0.80913 0.72698 0.04318 0.0
C1368 C 0.78777 0.77304 0.01573 0.0
C1369 C 0.79959 0.69853 0.02022 0.0
C1370 C 0.78361 0.70656 0.99542 0.0
C1371 C 0.75771 0.74963 0.96901 0.0
C1372 C 0.75073 0.7864 0.96651 0.0
C1373 C 0.77663 0.74313 0.99318 0.0
C1374 C 0.76372 0.81693 0.98869 0.0
C1375 C 0.7815 0.81004 0.01318 0.0
H1376 H 1.02207 0.31816 0.55677 0.0
H1377 H 0.12549 0.29662 0.52256 0.0
H1378 H 0.07871 0.25984 0.48209 0.0
H1379 H 1.00895 0.23472 0.45597 0.0
H1380 H 0.908 0.26121 0.48785 0.0
H1381 H 0.95199 0.29275 0.53044 0.0
C1382 C 0.03471 0.3057 0.54051 0.0
C1383 C 0.07797 0.31097 0.5429 0.0
C1384 C 1.00748 0.28455 0.51708 0.0
C1385 C 0.09293 0.29384 0.52143 0.0
C1386 C 0.06596 0.27247 0.49825 0.0
C1387 C 0.9968 0.24792 0.47203 0.0
C1388 C 0.95535 0.24602 0.4684 0.0
C1389 C 1.02333 0.26787 0.49579 0.0
C1390 C 0.93926 0.26149 0.49012 0.0
C1391 C 0.96488 0.28023 0.51431 0.0
H1392 H 0.58207 0.13015 0.06708 0.0
H1393 H 0.62979 0.14774 0.15165 0.0
H1394 H 0.56171 0.1463 0.16795 0.0
H1395 H 0.48841 0.14099 0.15773 0.0
H1396 H 0.44356 0.12385 0.07255 0.0
H1397 H 0.50946 0.12183 0.05723 0.0
C1398 C 0.57752 0.13286 0.08921 0.0
C1399 C 0.61119 0.13856 0.10807 0.0
C1400 C 0.53808 0.13107 0.09842 0.0
C1401 C 0.60486 0.14365 0.13653 0.0
C1402 C 0.56563 0.14236 0.1459 0.0
C1403 C 0.49265 0.13559 0.13594 0.0
C1404 C 0.4599 0.13065 0.11652 0.0
C1405 C 0.53186 0.13592 0.12702 0.0
C1406 C 0.4669 0.12576 0.08817 0.0
C1407 C 0.50512 0.12533 0.07928 0.0
H1408 H 0.68461 0.55878 0.43363 0.0
H1409 H 0.72515 0.59048 0.34799 0.0
H1410 H 0.66224 0.51962 0.33313 0.0
H1411 H 0.60145 0.44424 0.34516 0.0
H1412 H 0.56504 0.41109 0.43146 0.0
H1413 H 0.62005 0.48646 0.44526 0.0
C1414 C 0.67899 0.55058 0.41164 0.0
C1415 C 0.70942 0.58018 0.39197 0.0
C1416 C 0.64379 0.50888 0.40339 0.0
C1417 C 0.70201 0.56892 0.36358 0.0
C1418 C 0.66625 0.52795 0.3551 0.0
C1419 C 0.60541 0.45352 0.36699 0.0
C1420 C 0.57917 0.42157 0.38721 0.0
C1421 C 0.63792 0.49694 0.37492 0.0
C1422 C 0.5843 0.43473 0.41535 0.0
C1423 C 0.61606 0.47789 0.42332 0.0
H1424 H 0.90195 0.34706 0.07375 0.0
H1425 H 0.91634 0.31776 0.15887 0.0
H1426 H 0.90292 0.37714 0.17499 0.0
H1427 H 0.87843 0.43191 0.16495 0.0
H1428 H 0.86152 0.45895 0.07954 0.0
H1429 H 0.88466 0.40647 0.06355 0.0
C1430 C 0.90309 0.3543 0.09583 0.0
C1431 C 0.91001 0.32765 0.11508 0.0
C1432 C 0.89409 0.38782 0.10491 0.0
C1433 C 0.91124 0.33752 0.14358 0.0
C1434 C 0.90315 0.37138 0.15281 0.0
C1435 C 0.87995 0.42647 0.14282 0.0
C1436 C 0.86771 0.44927 0.12352 0.0
C1437 C 0.89297 0.39574 0.1337 0.0
C1438 C 0.87086 0.44227 0.09492 0.0
C1439 C 0.88391 0.41199 0.08573 0.0
H1440 H 0.46572 0.13985 0.4383 0.0
H1441 H 0.45362 0.16101 0.35122 0.0
H1442 H 0.52939 0.17476 0.34285 0.0
H1443 H 0.60325 0.19083 0.36183 0.0
H1444 H 0.61391 0.16865 0.44895 0.0
H1445 H 0.53506 0.14477 0.45573 0.0
C1446 C 0.47928 0.14631 0.41735 0.0
C1447 C 0.45375 0.1491 0.39542 0.0
C1448 C 0.52308 0.1544 0.41276 0.0
C1449 C 0.47206 0.15798 0.36844 0.0
C1450 C 0.51571 0.16628 0.3637 0.0
C1451 C 0.58782 0.17929 0.38205 0.0
C1452 C 0.61442 0.18097 0.40484 0.0
C1453 C 0.54213 0.16592 0.38586 0.0
C1454 C 0.59413 0.16698 0.43105 0.0
C1455 C 0.54906 0.15371 0.43497 0.0
H1456 H 0.60881 0.41978 0.11606 0.0
H1457 H 0.56598 0.45552 0.04082 0.0
H1458 H 0.62256 0.53279 0.04706 0.0
H1459 H 0.69188 0.58799 0.06924 0.0
H1460 H 0.73 0.55881 0.14811 0.0
H1461 H 0.66814 0.48163 0.14515 0.0
C1462 C 0.61099 0.4446 0.10146 0.0
C1463 C 0.58414 0.43088 0.07718 0.0
C1464 C 0.64325 0.49027 0.10563 0.0
C1465 C 0.58725 0.46422 0.05897 0.0
C1466 C 0.61961 0.50876 0.06255 0.0
C1467 C 0.68529 0.56553 0.08658 0.0
C1468 C 0.71493 0.57976 0.10923 0.0
C1469 C 0.64894 0.52186 0.08512 0.0
C1470 C 0.70697 0.54931 0.13083 0.0
C1471 C 0.6718 0.5049 0.12893 0.0
H1472 H 0.95668 0.47871 0.42671 0.0
H1473 H 0.83393 0.44033 0.38267 0.0
H1474 H 0.8309 0.37156 0.36789 0.0
H1475 H 0.85624 0.31689 0.37347 0.0
H1476 H 0.96922 0.34887 0.42562 0.0
H1477 H 0.9832 0.42517 0.43114 0.0
C1478 C 0.92897 0.4554 0.41401 0.0
C1479 C 0.89518 0.46506 0.40638 0.0
C1480 C 0.92587 0.41444 0.40692 0.0
C1481 C 0.86075 0.43466 0.38889 0.0
C1482 C 0.85868 0.39482 0.38058 0.0
C1483 C 0.88474 0.34117 0.38528 0.0
C1484 C 0.91287 0.32804 0.39817 0.0
C1485 C 0.8902 0.38372 0.39023 0.0
C1486 C 0.9484 0.3589 0.41453 0.0
C1487 C 0.95586 0.40225 0.41805 0.0
H1488 H 0.09176 0.56555 0.57938 0.0
H1489 H 0.20895 0.64886 0.62877 0.0
H1490 H 0.21406 0.5838 0.64134 0.0
H1491 H 0.19282 0.50521 0.63294 0.0
H1492 H 0.09098 0.42936 0.57282 0.0
H1493 H 0.07298 0.48919 0.56926 0.0
C1494 C 0.11941 0.57061 0.59232 0.0
C1495 C 0.15047 0.61373 0.6023 0.0
C1496 C 0.12465 0.53347 0.59777 0.0
C1497 C 0.18397 0.6171 0.62056 0.0
C1498 C 0.18737 0.57958 0.62766 0.0
C1499 C 0.16546 0.50126 0.61996 0.0
C1500 C 0.14049 0.46125 0.605 0.0
C1501 C 0.1587 0.53784 0.61577 0.0
C1502 C 0.10791 0.45807 0.58637 0.0
C1503 C 0.0985 0.49288 0.5838 0.0
H1504 H 0.36393 0.87394 0.8482 0.0
H1505 H 0.35222 0.92736 0.92694 0.0
H1506 H 0.42525 0.93927 0.94096 0.0
H1507 H 0.48911 0.92823 0.9326 0.0
H1508 H 0.50126 0.87421 0.85395 0.0
H1509 H 0.43086 0.86744 0.83858 0.0
C1510 C 0.37803 0.88926 0.86812 0.0
C1511 C 0.35329 0.901 0.88615 0.0
C1512 C 0.41955 0.89469 0.8764 0.0
C1513 C 0.37118 0.91946 0.9123 0.0
C1514 C 0.4127 0.92564 0.92048 0.0
C1515 C 0.47701 0.9157 0.91186 0.0
C1516 C 0.50093 0.90167 0.89457 0.0
C1517 C 0.43674 0.9125 0.90294 0.0
C1518 C 0.48357 0.88454 0.86803 0.0
C1519 C 0.44341 0.88108 0.85906 0.0
H1520 H 0.56405 0.69442 0.65411 0.0
H1521 H 0.62584 0.71043 0.57376 0.0
H1522 H 0.56462 0.63804 0.55895 0.0
H1523 H 0.48982 0.57446 0.56714 0.0
H1524 H 0.42741 0.55833 0.6476 0.0
H1525 H 0.49184 0.62712 0.66371 0.0
C1526 C 0.56457 0.68136 0.63362 0.0
C1527 C 0.59996 0.7072 0.61529 0.0
C1528 C 0.52847 0.64035 0.62498 0.0
C1529 C 0.59977 0.69062 0.58854 0.0
C1530 C 0.56434 0.64951 0.57994 0.0
C1531 C 0.49039 0.58525 0.58842 0.0
C1532 C 0.45312 0.56081 0.60598 0.0
C1533 C 0.52794 0.62465 0.59774 0.0
C1534 C 0.45477 0.57651 0.63329 0.0
C1535 C 0.49194 0.61574 0.64266 0.0
H1536 H 0.20411 0.60646 0.88543 0.0
H1537 H 0.13378 0.57783 0.96377 0.0
H1538 H 0.11173 0.49963 0.95922 0.0
H1539 H 0.12331 0.44208 0.93737 0.0
H1540 H 0.1845 0.46506 0.85649 0.0
H1541 H 0.19926 0.54232 0.85756 0.0
C1542 C 0.18277 0.5829 0.90103 0.0
C1543 C 0.17204 0.59871 0.92546 0.0
C1544 C 0.16915 0.53693 0.89807 0.0
C1545 C 0.14382 0.56718 0.9452 0.0
C1546 C 0.13114 0.52225 0.94267 0.0
C1547 C 0.13798 0.46331 0.91936 0.0
C1548 C 0.1519 0.4474 0.89666 0.0
C1549 C 0.14523 0.50712 0.91985 0.0
C1550 C 0.17232 0.47598 0.87392 0.0
C1551 C 0.18123 0.52042 0.87471 0.0
H1552 H 0.34009 0.88778 0.56327 0.0
H1553 H 0.3496 0.9324 0.64818 0.0
H1554 H 0.42255 0.9369 0.65257 0.0
H1555 H 0.4841 0.92763 0.63161 0.0
H1556 H 0.46704 0.87254 0.54897 0.0
H1557 H 0.39587 0.87106 0.5446 0.0
C1558 C 0.35805 0.89865 0.58282 0.0
C1559 C 0.34002 0.91156 0.605 0.0
C1560 C 0.39828 0.89822 0.5857 0.0
C1561 C 0.36337 0.92416 0.63036 0.0
C1562 C 0.40484 0.92605 0.63298 0.0
C1563 C 0.46421 0.91449 0.61293 0.0
C1564 C 0.48053 0.8997 0.59068 0.0
C1565 C 0.42265 0.91302 0.61076 0.0
C1566 C 0.45482 0.8833 0.56646 0.0
C1567 C 0.41437 0.88292 0.56388 0.0
H1568 H 0.56929 0.69322 0.93563 0.0
H1569 H 0.61763 0.7012 0.85186 0.0
H1570 H 0.55198 0.62921 0.84079 0.0
H1571 H 0.47983 0.56376 0.85536 0.0
H1572 H 0.42778 0.56299 0.93716 0.0
H1573 H 0.49487 0.63335 0.9483 0.0
C1574 C 0.56569 0.67916 0.91493 0.0
C1575 C 0.59964 0.70158 0.89502 0.0
C1576 C 0.52644 0.63956 0.90823 0.0
C1577 C 0.5934 0.68359 0.86804 0.0
C1578 C 0.55535 0.64279 0.86158 0.0
C1579 C 0.48297 0.57955 0.87542 0.0
C1580 C 0.44873 0.55834 0.89541 0.0
C1581 C 0.52154 0.62049 0.88153 0.0
C1582 C 0.45325 0.57896 0.92134 0.0
C1583 C 0.49185 0.6189 0.9278 0.0
loop_
_geom_bond_atom_site_label_1
_geom_bond_atom_site_label_2
_geom_bond_distance
_geom_bond_site_symmetry_2
_ccdc_geom_bond_type
Gd0 N31 2.661 . S
Gd0 N37 2.601 . S
Gd0 O44 2.545 . S
Gd0 O45 2.606 . S
Gd0 O47 2.429 . S
Gd0 O48 2.545 . S
Gd0 O49 2.412 . S
Gd0 O51 2.362 . S
Gd0 O52 2.324 . S
Gd0 C59 2.828 . S
Gd1 N10 2.661 . S
Gd1 N14 2.601 . S
Gd1 O45 2.362 . S
Gd1 O46 2.324 . S
Gd1 O50 2.545 . S
Gd1 O51 2.606 . S
Gd1 O53 2.429 . S
Gd1 O54 2.545 . S
Gd1 O55 2.412 . S
Gd1 C68 2.828 . S
C2 C5 1.417 . S
C2 C7 1.431 . S
C2 C8 1.412 . S
C3 C6 1.437 . S
C3 C7 1.317 . S
C3 H22 0.929 . S
C4 C5 1.426 . S
C4 C6 1.413 . S
C4 N14 1.359 . S
C5 C2 1.417 . S
C5 C4 1.426 . S
C5 N10 1.350 . S
C6 C3 1.437 . S
C6 C4 1.413 . S
C6 C16 1.391 . S
C7 C2 1.431 . S
C7 C3 1.317 . S
C7 H18 0.930 . S
C8 C2 1.412 . S
C8 C9 1.355 . S
C8 H20 0.930 . S
C9 C8 1.355 . S
C9 C11 1.402 . S
C9 H21 0.930 . S
N10 Gd1 2.661 . S
N10 C5 1.350 . S
N10 C11 1.307 . S
C11 C9 1.402 . S
C11 N10 1.307 . S
C11 H12 0.930 . S
H12 C11 0.930 . S
C13 N14 1.334 . S
C13 C15 1.394 . S
C13 H17 0.930 . S
N14 Gd1 2.601 . S
N14 C4 1.359 . S
N14 C13 1.334 . S
C15 C13 1.394 . S
C15 C16 1.359 . S
C15 H27 0.930 1_554 S
C16 C6 1.391 . S
C16 C15 1.359 . S
C16 H28 0.929 1_554 S
H17 C13 0.930 . S
H18 C7 0.930 . S
H19 C36 0.930 . S
H20 C8 0.930 . S
H21 C9 0.930 . S
H22 C3 0.929 . S
H23 C41 0.930 . S
H24 C32 0.930 1_565 S
H25 C33 0.930 . S
H26 C57 0.929 . S
H27 C15 0.930 1_556 S
H28 C16 0.929 1_556 S
H29 C58 0.930 . S
H30 C39 0.930 . S
N31 Gd0 2.661 . S
N31 C35 1.350 . S
N31 C36 1.307 . S
C32 H24 0.930 1_545 S
C32 C33 1.355 . S
C32 C34 1.412 . S
C33 H25 0.930 . S
C33 C32 1.355 . S
C33 C36 1.402 . S
C34 C32 1.412 . S
C34 C35 1.417 . S
C34 C58 1.431 1_545 S
C35 N31 1.350 . S
C35 C34 1.417 . S
C35 C38 1.426 . S
C36 H19 0.930 . S
C36 N31 1.307 . S
C36 C33 1.402 . S
N37 Gd0 2.601 . S
N37 C38 1.359 . S
N37 C41 1.334 . S
C38 C35 1.426 . S
C38 N37 1.359 . S
C38 C42 1.413 . S
C39 H30 0.930 . S
C39 C40 1.359 . S
C39 C41 1.394 . S
C40 C39 1.359 . S
C40 C42 1.391 . S
C40 H43 0.929 . S
C41 H23 0.930 . S
C41 N37 1.334 . S
C41 C39 1.394 . S
C42 C38 1.413 . S
C42 C40 1.391 . S
C42 C57 1.437 1_545 S
H43 C40 0.929 . S
O44 Gd0 2.545 . S
O44 C59 1.258 . S
O45 Gd0 2.606 . S
O45 Gd1 2.362 . S
O45 C56 1.284 . S
O46 Gd1 2.324 . S
O46 C66 1.254 . S
O47 Gd0 2.429 . S
O47 C66 1.268 . S
O48 Gd0 2.545 . S
O48 C56 1.250 . S
O49 Gd0 2.412 . S
O49 C59 1.252 . S
O50 Gd1 2.545 . S
O50 C68 1.258 . S
O51 Gd0 2.362 . S
O51 Gd1 2.606 . S
O51 C67 1.284 . S
O52 Gd0 2.324 . S
O52 C75 1.254 . S
O53 Gd1 2.429 . S
O53 C75 1.268 . S
O54 Gd1 2.545 . S
O54 C67 1.250 . S
O55 Gd1 2.412 . S
O55 C68 1.252 . S
C56 O45 1.284 . S
C56 O48 1.250 . S
C57 H26 0.929 . S
C57 C42 1.437 1_565 S
C57 C58 1.317 . S
C58 H29 0.930 . S
C58 C34 1.431 1_565 S
C58 C57 1.317 . S
C59 Gd0 2.828 . S
C59 O44 1.258 . S
C59 O49 1.252 . S
C59 C60 1.497 1_545 S
C60 C59 1.497 1_565 S
C60 C61 1.395 . S
C60 C62 1.380 . S
C61 C60 1.395 . S
C61 C64 1.398 . S
C61 H76 0.930 . S
C62 C60 1.380 . S
C62 C63 1.391 . S
C62 H77 0.930 . S
C63 C62 1.391 . S
C63 C65 1.387 . S
C64 C61 1.398 . S
C64 C65 1.380 . S
C64 H78 0.930 . S
C65 C63 1.387 . S
C65 C64 1.380 . S
C65 H79 0.930 . S
C66 O46 1.254 . S
C66 O47 1.268 . S
C67 O51 1.284 . S
C67 O54 1.250 . S
C68 Gd1 2.828 . S
C68 O50 1.258 . S
C68 O55 1.252 . S
C68 C69 1.497 . S
C69 C68 1.497 . S
C69 C70 1.395 . S
C69 C71 1.380 . S
C70 C69 1.395 . S
C70 C73 1.398 . S
C70 H80 0.930 . S
C71 C69 1.380 . S
C71 C72 1.391 . S
C71 H81 0.930 . S
C72 C71 1.391 . S
C72 C74 1.387 . S
C73 C70 1.398 . S
C73 C74 1.380 . S
C73 H82 0.930 . S
C74 C72 1.387 . S
C74 C73 1.380 . S
C74 H83 0.930 . S
C75 O52 1.254 . S
C75 O53 1.268 . S
H76 C61 0.930 . S
H77 C62 0.930 . S
H78 C64 0.930 . S
H79 C65 0.930 . S
H80 C70 0.930 . S
H81 C71 0.930 . S
H82 C73 0.930 . S
H83 C74 0.930 . S
Gd84 N115 2.661 . S
Gd84 N121 2.601 . S
Gd84 O128 2.545 . S
Gd84 O129 2.606 . S
Gd84 O131 2.429 . S
Gd84 O132 2.545 . S
Gd84 O133 2.412 . S
Gd84 O135 2.362 . S
Gd84 O136 2.324 . S
Gd84 C143 2.828 . S
Gd85 N94 2.661 . S
Gd85 N98 2.601 . S
Gd85 O129 2.362 . S
Gd85 O130 2.324 . S
Gd85 O134 2.545 . S
Gd85 O135 2.606 . S
Gd85 O137 2.429 . S
Gd85 O138 2.545 . S
Gd85 O139 2.412 . S
Gd85 C152 2.828 . S
C86 C89 1.417 . S
C86 C91 1.431 . S
C86 C92 1.412 . S
C87 C90 1.437 . S
C87 C91 1.317 . S
C87 H106 0.929 . S
C88 C89 1.426 . S
C88 C90 1.413 . S
C88 N98 1.359 . S
C89 C86 1.417 . S
C89 C88 1.426 . S
C89 N94 1.350 . S
C90 C87 1.437 . S
C90 C88 1.413 . S
C90 C100 1.391 . S
C91 C86 1.431 . S
C91 C87 1.317 . S
C91 H102 0.930 . S
C92 C86 1.412 . S
C92 C93 1.355 . S
C92 H104 0.930 . S
C93 C92 1.355 . S
C93 C95 1.402 . S
C93 H105 0.930 . S
N94 Gd85 2.661 . S
N94 C89 1.350 . S
N94 C95 1.307 . S
C95 C93 1.402 . S
C95 N94 1.307 . S
C95 H96 0.930 . S
H96 C95 0.930 . S
C97 N98 1.334 . S
C97 C99 1.394 . S
C97 H101 0.930 . S
N98 Gd85 2.601 . S
N98 C88 1.359 . S
N98 C97 1.334 . S
C99 C97 1.394 . S
C99 C100 1.359 . S
C99 H111 0.930 . S
C100 C90 1.391 . S
C100 C99 1.359 . S
C100 H112 0.929 . S
H101 C97 0.930 . S
H102 C91 0.930 . S
H103 C120 0.930 . S
H104 C92 0.930 . S
H105 C93 0.930 . S
H106 C87 0.929 . S
H107 C125 0.930 . S
H108 C116 0.930 . S
H109 C117 0.930 . S
H110 C141 0.929 . S
H111 C99 0.930 . S
H112 C100 0.929 . S
H113 C142 0.930 . S
H114 C123 0.930 . S
N115 Gd84 2.661 . S
N115 C119 1.350 . S
N115 C120 1.307 . S
C116 H108 0.930 . S
C116 C117 1.355 1_455 S
C116 C118 1.412 . S
C117 H109 0.930 . S
C117 C116 1.355 1_655 S
C117 C120 1.402 . S
C118 C116 1.412 . S
C118 C119 1.417 1_455 S
C118 C142 1.431 . S
C119 N115 1.350 . S
C119 C118 1.417 1_655 S
C119 C122 1.426 . S
C120 H103 0.930 . S
C120 N115 1.307 . S
C120 C117 1.402 . S
N121 Gd84 2.601 . S
N121 C122 1.359 . S
N121 C125 1.334 . S
C122 C119 1.426 . S
C122 N121 1.359 . S
C122 C126 1.413 . S
C123 H114 0.930 . S
C123 C124 1.359 . S
C123 C125 1.394 . S
C124 C123 1.359 . S
C124 C126 1.391 . S
C124 H127 0.929 . S
C125 H107 0.930 . S
C125 N121 1.334 . S
C125 C123 1.394 . S
C126 C122 1.413 . S
C126 C124 1.391 . S
C126 C141 1.437 1_655 S
H127 C124 0.929 . S
O128 Gd84 2.545 . S
O128 C143 1.258 . S
O129 Gd84 2.606 . S
O129 Gd85 2.362 . S
O129 C140 1.284 . S
O130 Gd85 2.324 . S
O130 C150 1.254 . S
O131 Gd84 2.429 . S
O131 C150 1.268 . S
O132 Gd84 2.545 . S
O132 C140 1.250 . S
O133 Gd84 2.412 . S
O133 C143 1.252 . S
O134 Gd85 2.545 . S
O134 C152 1.258 . S
O135 Gd84 2.362 . S
O135 Gd85 2.606 . S
O135 C151 1.284 . S
O136 Gd84 2.324 . S
O136 C159 1.254 . S
O137 Gd85 2.429 . S
O137 C159 1.268 . S
O138 Gd85 2.545 . S
O138 C151 1.250 . S
O139 Gd85 2.412 . S
O139 C152 1.252 . S
C140 O129 1.284 . S
C140 O132 1.250 . S
C141 H110 0.929 . S
C141 C126 1.437 1_455 S
C141 C142 1.317 . S
C142 H113 0.930 . S
C142 C118 1.431 . S
C142 C141 1.317 . S
C143 Gd84 2.828 . S
C143 O128 1.258 . S
C143 O133 1.252 . S
C143 C144 1.497 . S
C144 C143 1.497 . S
C144 C145 1.395 . S
C144 C146 1.380 . S
C145 C144 1.395 . S
C145 C148 1.398 . S
C145 H160 0.930 . S
C146 C144 1.380 . S
C146 C147 1.391 . S
C146 H161 0.930 . S
C147 C146 1.391 . S
C147 C149 1.387 . S
C148 C145 1.398 . S
C148 C149 1.380 . S
C148 H162 0.930 . S
C149 C147 1.387 . S
C149 C148 1.380 . S
C149 H163 0.930 . S
C150 O130 1.254 . S
C150 O131 1.268 . S
C151 O135 1.284 . S
C151 O138 1.250 . S
C152 Gd85 2.828 . S
C152 O134 1.258 . S
C152 O139 1.252 . S
C152 C153 1.497 . S
C153 C152 1.497 . S
C153 C154 1.395 . S
C153 C155 1.380 . S
C154 C153 1.395 . S
C154 C157 1.398 . S
C154 H164 0.930 . S
C155 C153 1.380 . S
C155 C156 1.391 . S
C155 H165 0.930 . S
C156 C155 1.391 . S
C156 C158 1.387 . S
C157 C154 1.398 . S
C157 C158 1.380 . S
C157 H166 0.930 . S
C158 C156 1.387 . S
C158 C157 1.380 . S
C158 H167 0.930 . S
C159 O136 1.254 . S
C159 O137 1.268 . S
H160 C145 0.930 . S
H161 C146 0.930 . S
H162 C148 0.930 . S
H163 C149 0.930 . S
H164 C154 0.930 . S
H165 C155 0.930 . S
H166 C157 0.930 . S
H167 C158 0.930 . S
Gd168 N199 2.661 . S
Gd168 N205 2.601 . S
Gd168 O212 2.545 . S
Gd168 O213 2.606 . S
Gd168 O215 2.429 . S
Gd168 O216 2.545 . S
Gd168 O217 2.412 . S
Gd168 O219 2.362 . S
Gd168 O220 2.324 . S
Gd168 C227 2.828 . S
Gd169 N178 2.661 . S
Gd169 N182 2.601 . S
Gd169 O213 2.362 . S
Gd169 O214 2.324 . S
Gd169 O218 2.545 . S
Gd169 O219 2.606 . S
Gd169 O221 2.429 . S
Gd169 O222 2.545 . S
Gd169 O223 2.412 . S
Gd169 C236 2.828 . S
C170 C173 1.417 1_565 S
C170 C175 1.431 . S
C170 C176 1.412 . S
C171 C174 1.437 1_565 S
C171 C175 1.317 . S
C171 H190 0.929 . S
C172 C173 1.426 . S
C172 C174 1.413 . S
C172 N182 1.359 . S
C173 C170 1.417 1_545 S
C173 C172 1.426 . S
C173 N178 1.350 . S
C174 C171 1.437 1_545 S
C174 C172 1.413 . S
C174 C184 1.391 . S
C175 C170 1.431 . S
C175 C171 1.317 . S
C175 H186 0.930 . S
C176 C170 1.412 . S
C176 C177 1.355 1_565 S
C176 H188 0.930 . S
C177 C176 1.355 1_545 S
C177 C179 1.402 . S
C177 H189 0.930 . S
N178 Gd169 2.661 . S
N178 C173 1.350 . S
N178 C179 1.307 . S
C179 C177 1.402 . S
C179 N178 1.307 . S
C179 H180 0.930 . S
H180 C179 0.930 . S
C181 N182 1.334 . S
C181 C183 1.394 . S
C181 H185 0.930 . S
N182 Gd169 2.601 . S
N182 C172 1.359 . S
N182 C181 1.334 . S
C183 C181 1.394 . S
C183 C184 1.359 . S
C183 H195 0.930 1_554 S
C184 C174 1.391 . S
C184 C183 1.359 . S
C184 H196 0.929 1_554 S
H185 C181 0.930 . S
H186 C175 0.930 . S
H187 C204 0.930 . S
H188 C176 0.930 . S
H189 C177 0.930 . S
H190 C171 0.929 . S
H191 C209 0.930 . S
H192 C200 0.930 1_455 S
H193 C201 0.930 . S
H194 C225 0.929 . S
H195 C183 0.930 1_556 S
H196 C184 0.929 1_556 S
H197 C226 0.930 . S
H198 C207 0.930 . S
N199 Gd168 2.661 . S
N199 C203 1.350 . S
N199 C204 1.307 . S
C200 H192 0.930 1_655 S
C200 C201 1.355 . S
C200 C202 1.412 . S
C201 H193 0.930 . S
C201 C200 1.355 . S
C201 C204 1.402 . S
C202 C200 1.412 . S
C202 C203 1.417 . S
C202 C226 1.431 1_655 S
C203 N199 1.350 . S
C203 C202 1.417 . S
C203 C206 1.426 . S
C204 H187 0.930 . S
C204 N199 1.307 . S
C204 C201 1.402 . S
N205 Gd168 2.601 . S
N205 C206 1.359 . S
N205 C209 1.334 . S
C206 C203 1.426 . S
C206 N205 1.359 . S
C206 C210 1.413 . S
C207 H198 0.930 . S
C207 C208 1.359 . S
C207 C209 1.394 . S
C208 C207 1.359 . S
C208 C210 1.391 . S
C208 H211 0.929 . S
C209 H191 0.930 . S
C209 N205 1.334 . S
C209 C207 1.394 . S
C210 C206 1.413 . S
C210 C208 1.391 . S
C210 C225 1.437 1_655 S
H211 C208 0.929 . S
O212 Gd168 2.545 . S
O212 C227 1.258 . S
O213 Gd168 2.606 . S
O213 Gd169 2.362 . S
O213 C224 1.284 . S
O214 Gd169 2.324 . S
O214 C234 1.254 . S
O215 Gd168 2.429 . S
O215 C234 1.268 . S
O216 Gd168 2.545 . S
O216 C224 1.250 . S
O217 Gd168 2.412 . S
O217 C227 1.252 . S
O218 Gd169 2.545 . S
O218 C236 1.258 . S
O219 Gd168 2.362 . S
O219 Gd169 2.606 . S
O219 C235 1.284 . S
O220 Gd168 2.324 . S
O220 C243 1.254 . S
O221 Gd169 2.429 . S
O221 C243 1.268 . S
O222 Gd169 2.545 . S
O222 C235 1.250 . S
O223 Gd169 2.412 . S
O223 C236 1.252 . S
C224 O213 1.284 . S
C224 O216 1.250 . S
C225 H194 0.929 . S
C225 C210 1.437 1_455 S
C225 C226 1.317 . S
C226 H197 0.930 . S
C226 C202 1.431 1_455 S
C226 C225 1.317 . S
C227 Gd168 2.828 . S
C227 O212 1.258 . S
C227 O217 1.252 . S
C227 C228 1.497 1_655 S
C228 C227 1.497 1_455 S
C228 C229 1.395 . S
C228 C230 1.380 . S
C229 C228 1.395 . S
C229 C232 1.398 . S
C229 H244 0.930 . S
C230 C228 1.380 . S
C230 C231 1.391 . S
C230 H245 0.930 . S
C231 C230 1.391 . S
C231 C233 1.387 . S
C232 C229 1.398 . S
C232 C233 1.380 . S
C232 H246 0.930 . S
C233 C231 1.387 . S
C233 C232 1.380 . S
C233 H247 0.930 . S
C234 O214 1.254 . S
C234 O215 1.268 . S
C235 O219 1.284 . S
C235 O222 1.250 . S
C236 Gd169 2.828 . S
C236 O218 1.258 . S
C236 O223 1.252 . S
C236 C237 1.497 . S
C237 C236 1.497 . S
C237 C238 1.395 . S
C237 C239 1.380 . S
C238 C237 1.395 . S
C238 C241 1.398 . S
C238 H248 0.930 . S
C239 C237 1.380 . S
C239 C240 1.391 . S
C239 H249 0.930 . S
C240 C239 1.391 . S
C240 C242 1.387 . S
C241 C238 1.398 . S
C241 C242 1.380 . S
C241 H250 0.930 . S
C242 C240 1.387 . S
C242 C241 1.380 . S
C242 H251 0.930 . S
C243 O220 1.254 . S
C243 O221 1.268 . S
H244 C229 0.930 . S
H245 C230 0.930 . S
H246 C232 0.930 . S
H247 C233 0.930 . S
H248 C238 0.930 . S
H249 C239 0.930 . S
H250 C241 0.930 . S
H251 C242 0.930 . S
Gd252 N283 2.661 . S
Gd252 N289 2.601 . S
Gd252 O296 2.545 . S
Gd252 O297 2.606 . S
Gd252 O299 2.429 . S
Gd252 O300 2.545 . S
Gd252 O301 2.412 . S
Gd252 O303 2.362 . S
Gd252 O304 2.324 . S
Gd252 C311 2.828 . S
Gd253 N262 2.661 . S
Gd253 N266 2.601 . S
Gd253 O297 2.362 . S
Gd253 O298 2.324 . S
Gd253 O302 2.545 . S
Gd253 O303 2.606 . S
Gd253 O305 2.429 . S
Gd253 O306 2.545 . S
Gd253 O307 2.412 . S
Gd253 C320 2.828 . S
C254 C257 1.417 . S
C254 C259 1.431 1_545 S
C254 C260 1.412 . S
C255 C258 1.437 1_565 S
C255 C259 1.317 . S
C255 H274 0.929 . S
C256 C257 1.426 . S
C256 C258 1.413 . S
C256 N266 1.359 . S
C257 C254 1.417 . S
C257 C256 1.426 . S
C257 N262 1.350 . S
C258 C255 1.437 1_545 S
C258 C256 1.413 . S
C258 C268 1.391 . S
C259 C254 1.431 1_565 S
C259 C255 1.317 . S
C259 H270 0.930 . S
C260 C254 1.412 . S
C260 C261 1.355 . S
C260 H272 0.930 1_545 S
C261 C260 1.355 . S
C261 C263 1.402 . S
C261 H273 0.930 . S
N262 Gd253 2.661 . S
N262 C257 1.350 . S
N262 C263 1.307 . S
C263 C261 1.402 . S
C263 N262 1.307 . S
C263 H264 0.930 . S
H264 C263 0.930 . S
C265 N266 1.334 . S
C265 C267 1.394 . S
C265 H269 0.930 . S
N266 Gd253 2.601 . S
N266 C256 1.359 . S
N266 C265 1.334 . S
C267 C265 1.394 . S
C267 C268 1.359 . S
C267 H279 0.930 . S
C268 C258 1.391 . S
C268 C267 1.359 . S
C268 H280 0.929 . S
H269 C265 0.930 . S
H270 C259 0.930 . S
H271 C288 0.930 . S
H272 C260 0.930 1_565 S
H273 C261 0.930 . S
H274 C255 0.929 . S
H275 C293 0.930 . S
H276 C284 0.930 . S
H277 C285 0.930 . S
H278 C309 0.929 . S
H279 C267 0.930 . S
H280 C268 0.929 . S
H281 C310 0.930 . S
H282 C291 0.930 . S
N283 Gd252 2.661 . S
N283 C287 1.350 . S
N283 C288 1.307 . S
C284 H276 0.930 . S
C284 C285 1.355 . S
C284 C286 1.412 . S
C285 H277 0.930 . S
C285 C284 1.355 . S
C285 C288 1.402 . S
C286 C284 1.412 . S
C286 C287 1.417 . S
C286 C310 1.431 . S
C287 N283 1.350 . S
C287 C286 1.417 . S
C287 C290 1.426 . S
C288 H271 0.930 . S
C288 N283 1.307 . S
C288 C285 1.402 . S
N289 Gd252 2.601 . S
N289 C290 1.359 . S
N289 C293 1.334 . S
C290 C287 1.426 . S
C290 N289 1.359 . S
C290 C294 1.413 . S
C291 H282 0.930 . S
C291 C292 1.359 . S
C291 C293 1.394 . S
C292 C291 1.359 . S
C292 C294 1.391 . S
C292 H295 0.929 . S
C293 H275 0.930 . S
C293 N289 1.334 . S
C293 C291 1.394 . S
C294 C290 1.413 . S
C294 C292 1.391 . S
C294 C309 1.437 . S
H295 C292 0.929 . S
O296 Gd252 2.545 . S
O296 C311 1.258 . S
O297 Gd252 2.606 . S
O297 Gd253 2.362 . S
O297 C308 1.284 . S
O298 Gd253 2.324 . S
O298 C318 1.254 . S
O299 Gd252 2.429 . S
O299 C318 1.268 . S
O300 Gd252 2.545 . S
O300 C308 1.250 . S
O301 Gd252 2.412 . S
O301 C311 1.252 . S
O302 Gd253 2.545 . S
O302 C320 1.258 . S
O303 Gd252 2.362 . S
O303 Gd253 2.606 . S
O303 C319 1.284 . S
O304 Gd252 2.324 . S
O304 C327 1.254 . S
O305 Gd253 2.429 . S
O305 C327 1.268 . S
O306 Gd253 2.545 . S
O306 C319 1.250 . S
O307 Gd253 2.412 . S
O307 C320 1.252 . S
C308 O297 1.284 . S
C308 O300 1.250 . S
C309 H278 0.929 . S
C309 C294 1.437 . S
C309 C310 1.317 . S
C310 H281 0.930 . S
C310 C286 1.431 . S
C310 C309 1.317 . S
C311 Gd252 2.828 . S
C311 O296 1.258 . S
C311 O301 1.252 . S
C311 C312 1.497 . S
C312 C311 1.497 . S
C312 C313 1.395 . S
C312 C314 1.380 . S
C313 C312 1.395 . S
C313 C316 1.398 . S
C313 H328 0.930 . S
C314 C312 1.380 . S
C314 C315 1.391 . S
C314 H329 0.930 . S
C315 C314 1.391 . S
C315 C317 1.387 . S
C316 C313 1.398 . S
C316 C317 1.380 . S
C316 H330 0.930 . S
C317 C315 1.387 . S
C317 C316 1.380 . S
C317 H331 0.930 . S
C318 O298 1.254 . S
C318 O299 1.268 . S
C319 O303 1.284 . S
C319 O306 1.250 . S
C320 Gd253 2.828 . S
C320 O302 1.258 . S
C320 O307 1.252 . S
C320 C321 1.497 1_545 S
C321 C320 1.497 1_565 S
C321 C322 1.395 . S
C321 C323 1.380 . S
C322 C321 1.395 . S
C322 C325 1.398 . S
C322 H332 0.930 . S
C323 C321 1.380 . S
C323 C324 1.391 . S
C323 H333 0.930 . S
C324 C323 1.391 . S
C324 C326 1.387 . S
C325 C322 1.398 . S
C325 C326 1.380 . S
C325 H334 0.930 . S
C326 C324 1.387 . S
C326 C325 1.380 . S
C326 H335 0.930 . S
C327 O304 1.254 . S
C327 O305 1.268 . S
H328 C313 0.930 . S
H329 C314 0.930 . S
H330 C316 0.930 . S
H331 C317 0.930 . S
H332 C322 0.930 . S
H333 C323 0.930 . S
H334 C325 0.930 . S
H335 C326 0.930 . S
Gd336 N367 2.661 . S
Gd336 N373 2.601 . S
Gd336 O380 2.545 . S
Gd336 O381 2.606 . S
Gd336 O383 2.429 . S
Gd336 O384 2.545 . S
Gd336 O385 2.412 . S
Gd336 O387 2.362 . S
Gd336 O388 2.324 . S
Gd336 C395 2.828 . S
Gd337 N346 2.661 . S
Gd337 N350 2.601 . S
Gd337 O381 2.362 . S
Gd337 O382 2.324 . S
Gd337 O386 2.545 . S
Gd337 O387 2.606 . S
Gd337 O389 2.429 . S
Gd337 O390 2.545 . S
Gd337 O391 2.412 . S
Gd337 C404 2.828 . S
C338 C341 1.417 1_455 S
C338 C343 1.431 . S
C338 C344 1.412 . S
C339 C342 1.437 1_455 S
C339 C343 1.317 . S
C339 H358 0.929 . S
C340 C341 1.426 . S
C340 C342 1.413 . S
C340 N350 1.359 . S
C341 C338 1.417 1_655 S
C341 C340 1.426 . S
C341 N346 1.350 . S
C342 C339 1.437 1_655 S
C342 C340 1.413 . S
C342 C352 1.391 . S
C343 C338 1.431 . S
C343 C339 1.317 . S
C343 H354 0.930 . S
C344 C338 1.412 . S
C344 C345 1.355 1_455 S
C344 H356 0.930 . S
C345 C344 1.355 1_655 S
C345 C347 1.402 . S
C345 H357 0.930 . S
N346 Gd337 2.661 . S
N346 C341 1.350 . S
N346 C347 1.307 . S
C347 C345 1.402 . S
C347 N346 1.307 . S
C347 H348 0.930 . S
H348 C347 0.930 . S
C349 N350 1.334 . S
C349 C351 1.394 . S
C349 H353 0.930 . S
N350 Gd337 2.601 . S
N350 C340 1.359 . S
N350 C349 1.334 . S
C351 C349 1.394 . S
C351 C352 1.359 . S
C351 H363 0.930 1_554 S
C352 C342 1.391 . S
C352 C351 1.359 . S
C352 H364 0.929 1_554 S
H353 C349 0.930 . S
H354 C343 0.930 . S
H355 C372 0.930 . S
H356 C344 0.930 . S
H357 C345 0.930 . S
H358 C339 0.929 . S
H359 C377 0.930 . S
H360 C368 0.930 . S
H361 C369 0.930 . S
H362 C393 0.929 . S
H363 C351 0.930 1_556 S
H364 C352 0.929 1_556 S
H365 C394 0.930 . S
H366 C375 0.930 . S
N367 Gd336 2.661 . S
N367 C371 1.350 . S
N367 C372 1.307 . S
C368 H360 0.930 . S
C368 C369 1.355 . S
C368 C370 1.412 . S
C369 H361 0.930 . S
C369 C368 1.355 . S
C369 C372 1.402 . S
C370 C368 1.412 . S
C370 C371 1.417 . S
C370 C394 1.431 . S
C371 N367 1.350 . S
C371 C370 1.417 . S
C371 C374 1.426 . S
C372 H355 0.930 . S
C372 N367 1.307 . S
C372 C369 1.402 . S
N373 Gd336 2.601 . S
N373 C374 1.359 . S
N373 C377 1.334 . S
C374 C371 1.426 . S
C374 N373 1.359 . S
C374 C378 1.413 . S
C375 H366 0.930 . S
C375 C376 1.359 . S
C375 C377 1.394 . S
C376 C375 1.359 . S
C376 C378 1.391 . S
C376 H379 0.929 . S
C377 H359 0.930 . S
C377 N373 1.334 . S
C377 C375 1.394 . S
C378 C374 1.413 . S
C378 C376 1.391 . S
C378 C393 1.437 . S
H379 C376 0.929 . S
O380 Gd336 2.545 . S
O380 C395 1.258 . S
O381 Gd336 2.606 . S
O381 Gd337 2.362 . S
O381 C392 1.284 . S
O382 Gd337 2.324 . S
O382 C402 1.254 . S
O383 Gd336 2.429 . S
O383 C402 1.268 . S
O384 Gd336 2.545 . S
O384 C392 1.250 . S
O385 Gd336 2.412 . S
O385 C395 1.252 . S
O386 Gd337 2.545 . S
O386 C404 1.258 . S
O387 Gd336 2.362 . S
O387 Gd337 2.606 . S
O387 C403 1.284 . S
O388 Gd336 2.324 . S
O388 C411 1.254 . S
O389 Gd337 2.429 . S
O389 C411 1.268 . S
O390 Gd337 2.545 . S
O390 C403 1.250 . S
O391 Gd337 2.412 . S
O391 C404 1.252 . S
C392 O381 1.284 . S
C392 O384 1.250 . S
C393 H362 0.929 . S
C393 C378 1.437 . S
C393 C394 1.317 . S
C394 H365 0.930 . S
C394 C370 1.431 . S
C394 C393 1.317 . S
C395 Gd336 2.828 . S
C395 O380 1.258 . S
C395 O385 1.252 . S
C395 C396 1.497 . S
C396 C395 1.497 . S
C396 C397 1.395 . S
C396 C398 1.380 . S
C397 C396 1.395 . S
C397 C400 1.398 . S
C397 H412 0.930 . S
C398 C396 1.380 . S
C398 C399 1.391 . S
C398 H413 0.930 . S
C399 C398 1.391 . S
C399 C401 1.387 . S
C400 C397 1.398 . S
C400 C401 1.380 . S
C400 H414 0.930 . S
C401 C399 1.387 . S
C401 C400 1.380 . S
C401 H415 0.930 . S
C402 O382 1.254 . S
C402 O383 1.268 . S
C403 O387 1.284 . S
C403 O390 1.250 . S
C404 Gd337 2.828 . S
C404 O386 1.258 . S
C404 O391 1.252 . S
C404 C405 1.497 . S
C405 C404 1.497 . S
C405 C406 1.395 . S
C405 C407 1.380 . S
C406 C405 1.395 . S
C406 C409 1.398 . S
C406 H416 0.930 . S
C407 C405 1.380 . S
C407 C408 1.391 . S
C407 H417 0.930 . S
C408 C407 1.391 . S
C408 C410 1.387 . S
C409 C406 1.398 . S
C409 C410 1.380 . S
C409 H418 0.930 . S
C410 C408 1.387 . S
C410 C409 1.380 . S
C410 H419 0.930 . S
C411 O388 1.254 . S
C411 O389 1.268 . S
H412 C397 0.930 . S
H413 C398 0.930 . S
H414 C400 0.930 . S
H415 C401 0.930 . S
H416 C406 0.930 . S
H417 C407 0.930 . S
H418 C409 0.930 . S
H419 C410 0.930 . S
Gd420 N451 2.661 . S
Gd420 N457 2.601 . S
Gd420 O464 2.545 . S
Gd420 O465 2.606 . S
Gd420 O467 2.429 . S
Gd420 O468 2.545 . S
Gd420 O469 2.412 . S
Gd420 O471 2.362 . S
Gd420 O472 2.324 . S
Gd420 C479 2.828 . S
Gd421 N430 2.661 . S
Gd421 N434 2.601 . S
Gd421 O465 2.362 . S
Gd421 O466 2.324 . S
Gd421 O470 2.545 . S
Gd421 O471 2.606 . S
Gd421 O473 2.429 . S
Gd421 O474 2.545 . S
Gd421 O475 2.412 . S
Gd421 C488 2.828 . S
C422 C425 1.417 . S
C422 C427 1.431 1_655 S
C422 C428 1.412 . S
C423 C426 1.437 1_455 S
C423 C427 1.317 . S
C423 H442 0.929 . S
C424 C425 1.426 . S
C424 C426 1.413 . S
C424 N434 1.359 . S
C425 C422 1.417 . S
C425 C424 1.426 . S
C425 N430 1.350 . S
C426 C423 1.437 1_655 S
C426 C424 1.413 . S
C426 C436 1.391 . S
C427 C422 1.431 1_455 S
C427 C423 1.317 . S
C427 H438 0.930 . S
C428 C422 1.412 . S
C428 C429 1.355 . S
C428 H440 0.930 1_655 S
C429 C428 1.355 . S
C429 C431 1.402 . S
C429 H441 0.930 . S
N430 Gd421 2.661 . S
N430 C425 1.350 . S
N430 C431 1.307 . S
C431 C429 1.402 . S
C431 N430 1.307 . S
C431 H432 0.930 . S
H432 C431 0.930 . S
C433 N434 1.334 . S
C433 C435 1.394 . S
C433 H437 0.930 . S
N434 Gd421 2.601 . S
N434 C424 1.359 . S
N434 C433 1.334 . S
C435 C433 1.394 . S
C435 C436 1.359 . S
C435 H447 0.930 . S
C436 C426 1.391 . S
C436 C435 1.359 . S
C436 H448 0.929 . S
H437 C433 0.930 . S
H438 C427 0.930 . S
H439 C456 0.930 . S
H440 C428 0.930 1_455 S
H441 C429 0.930 . S
H442 C423 0.929 . S
H443 C461 0.930 . S
H444 C452 0.930 . S
H445 C453 0.930 . S
H446 C477 0.929 . S
H447 C435 0.930 . S
H448 C436 0.929 . S
H449 C478 0.930 . S
H450 C459 0.930 . S
N451 Gd420 2.661 . S
N451 C455 1.350 . S
N451 C456 1.307 . S
C452 H444 0.930 . S
C452 C453 1.355 1_565 S
C452 C454 1.412 . S
C453 H445 0.930 . S
C453 C452 1.355 1_545 S
C453 C456 1.402 . S
C454 C452 1.412 . S
C454 C455 1.417 1_565 S
C454 C478 1.431 . S
C455 N451 1.350 . S
C455 C454 1.417 1_545 S
C455 C458 1.426 . S
C456 H439 0.930 . S
C456 N451 1.307 . S
C456 C453 1.402 . S
N457 Gd420 2.601 . S
N457 C458 1.359 . S
N457 C461 1.334 . S
C458 C455 1.426 . S
C458 N457 1.359 . S
C458 C462 1.413 . S
C459 H450 0.930 . S
C459 C460 1.359 . S
C459 C461 1.394 . S
C460 C459 1.359 . S
C460 C462 1.391 . S
C460 H463 0.929 . S
C461 H443 0.930 . S
C461 N457 1.334 . S
C461 C459 1.394 . S
C462 C458 1.413 . S
C462 C460 1.391 . S
C462 C477 1.437 1_545 S
H463 C460 0.929 . S
O464 Gd420 2.545 . S
O464 C479 1.258 . S
O465 Gd420 2.606 . S
O465 Gd421 2.362 . S
O465 C476 1.284 . S
O466 Gd421 2.324 . S
O466 C486 1.254 . S
O467 Gd420 2.429 . S
O467 C486 1.268 . S
O468 Gd420 2.545 . S
O468 C476 1.250 . S
O469 Gd420 2.412 . S
O469 C479 1.252 . S
O470 Gd421 2.545 . S
O470 C488 1.258 . S
O471 Gd420 2.362 . S
O471 Gd421 2.606 . S
O471 C487 1.284 . S
O472 Gd420 2.324 . S
O472 C495 1.254 . S
O473 Gd421 2.429 . S
O473 C495 1.268 . S
O474 Gd421 2.545 . S
O474 C487 1.250 . S
O475 Gd421 2.412 . S
O475 C488 1.252 . S
C476 O465 1.284 . S
C476 O468 1.250 . S
C477 H446 0.929 . S
C477 C462 1.437 1_565 S
C477 C478 1.317 . S
C478 H449 0.930 . S
C478 C454 1.431 . S
C478 C477 1.317 . S
C479 Gd420 2.828 . S
C479 O464 1.258 . S
C479 O469 1.252 . S
C479 C480 1.497 . S
C480 C479 1.497 . S
C480 C481 1.395 . S
C480 C482 1.380 . S
C481 C480 1.395 . S
C481 C484 1.398 . S
C481 H496 0.930 . S
C482 C480 1.380 . S
C482 C483 1.391 . S
C482 H497 0.930 . S
C483 C482 1.391 . S
C483 C485 1.387 . S
C484 C481 1.398 . S
C484 C485 1.380 . S
C484 H498 0.930 . S
C485 C483 1.387 . S
C485 C484 1.380 . S
C485 H499 0.930 . S
C486 O466 1.254 . S
C486 O467 1.268 . S
C487 O471 1.284 . S
C487 O474 1.250 . S
C488 Gd421 2.828 . S
C488 O470 1.258 . S
C488 O475 1.252 . S
C488 C489 1.497 1_655 S
C489 C488 1.497 1_455 S
C489 C490 1.395 . S
C489 C491 1.380 . S
C490 C489 1.395 . S
C490 C493 1.398 . S
C490 H500 0.930 . S
C491 C489 1.380 . S
C491 C492 1.391 . S
C491 H501 0.930 . S
C492 C491 1.391 . S
C492 C494 1.387 . S
C493 C490 1.398 . S
C493 C494 1.380 . S
C493 H502 0.930 . S
C494 C492 1.387 . S
C494 C493 1.380 . S
C494 H503 0.930 . S
C495 O472 1.254 . S
C495 O473 1.268 . S
H496 C481 0.930 . S
H497 C482 0.930 . S
H498 C484 0.930 . S
H499 C485 0.930 . S
H500 C490 0.930 . S
H501 C491 0.930 . S
H502 C493 0.930 . S
H503 C494 0.930 . S
Gd504 N535 2.661 . S
Gd504 N541 2.601 . S
Gd504 O548 2.545 . S
Gd504 O549 2.606 . S
Gd504 O551 2.429 . S
Gd504 O552 2.545 . S
Gd504 O553 2.412 . S
Gd504 O555 2.362 . S
Gd504 O556 2.324 . S
Gd504 C563 2.828 . S
Gd505 N514 2.661 . S
Gd505 N518 2.601 . S
Gd505 O549 2.362 . S
Gd505 O550 2.324 . S
Gd505 O554 2.545 . S
Gd505 O555 2.606 . S
Gd505 O557 2.429 . S
Gd505 O558 2.545 . S
Gd505 O559 2.412 . S
Gd505 C572 2.828 . S
C506 C509 1.417 . S
C506 C511 1.431 1_455 S
C506 C512 1.412 . S
C507 C510 1.437 1_655 S
C507 C511 1.317 . S
C507 H526 0.929 . S
C508 C509 1.426 . S
C508 C510 1.413 . S
C508 N518 1.359 . S
C509 C506 1.417 . S
C509 C508 1.426 . S
C509 N514 1.350 . S
C510 C507 1.437 1_455 S
C510 C508 1.413 . S
C510 C520 1.391 . S
C511 C506 1.431 1_655 S
C511 C507 1.317 . S
C511 H522 0.930 . S
C512 C506 1.412 . S
C512 C513 1.355 . S
C512 H524 0.930 1_455 S
C513 C512 1.355 . S
C513 C515 1.402 . S
C513 H525 0.930 . S
N514 Gd505 2.661 . S
N514 C509 1.350 . S
N514 C515 1.307 . S
C515 C513 1.402 . S
C515 N514 1.307 . S
C515 H516 0.930 . S
H516 C515 0.930 . S
C517 N518 1.334 . S
C517 C519 1.394 . S
C517 H521 0.930 . S
N518 Gd505 2.601 . S
N518 C508 1.359 . S
N518 C517 1.334 . S
C519 C517 1.394 . S
C519 C520 1.359 . S
C519 H531 0.930 . S
C520 C510 1.391 . S
C520 C519 1.359 . S
C520 H532 0.929 . S
H521 C517 0.930 . S
H522 C511 0.930 . S
H523 C540 0.930 . S
H524 C512 0.930 1_655 S
H525 C513 0.930 . S
H526 C507 0.929 . S
H527 C545 0.930 . S
H528 C536 0.930 . S
H529 C537 0.930 . S
H530 C561 0.929 . S
H531 C519 0.930 . S
H532 C520 0.929 . S
H533 C562 0.930 . S
H534 C543 0.930 . S
N535 Gd504 2.661 . S
N535 C539 1.350 . S
N535 C540 1.307 . S
C536 H528 0.930 . S
C536 C537 1.355 . S
C536 C538 1.412 . S
C537 H529 0.930 . S
C537 C536 1.355 . S
C537 C540 1.402 . S
C538 C536 1.412 . S
C538 C539 1.417 . S
C538 C562 1.431 . S
C539 N535 1.350 . S
C539 C538 1.417 . S
C539 C542 1.426 . S
C540 H523 0.930 . S
C540 N535 1.307 . S
C540 C537 1.402 . S
N541 Gd504 2.601 . S
N541 C542 1.359 . S
N541 C545 1.334 . S
C542 C539 1.426 . S
C542 N541 1.359 . S
C542 C546 1.413 . S
C543 H534 0.930 . S
C543 C544 1.359 . S
C543 C545 1.394 . S
C544 C543 1.359 . S
C544 C546 1.391 . S
C544 H547 0.929 . S
C545 H527 0.930 . S
C545 N541 1.334 . S
C545 C543 1.394 . S
C546 C542 1.413 . S
C546 C544 1.391 . S
C546 C561 1.437 . S
H547 C544 0.929 . S
O548 Gd504 2.545 . S
O548 C563 1.258 . S
O549 Gd504 2.606 . S
O549 Gd505 2.362 . S
O549 C560 1.284 . S
O550 Gd505 2.324 . S
O550 C570 1.254 . S
O551 Gd504 2.429 . S
O551 C570 1.268 . S
O552 Gd504 2.545 . S
O552 C560 1.250 . S
O553 Gd504 2.412 . S
O553 C563 1.252 . S
O554 Gd505 2.545 . S
O554 C572 1.258 . S
O555 Gd504 2.362 . S
O555 Gd505 2.606 . S
O555 C571 1.284 . S
O556 Gd504 2.324 . S
O556 C579 1.254 . S
O557 Gd505 2.429 . S
O557 C579 1.268 . S
O558 Gd505 2.545 . S
O558 C571 1.250 . S
O559 Gd505 2.412 . S
O559 C572 1.252 . S
C560 O549 1.284 . S
C560 O552 1.250 . S
C561 H530 0.929 . S
C561 C546 1.437 . S
C561 C562 1.317 . S
C562 H533 0.930 . S
C562 C538 1.431 . S
C562 C561 1.317 . S
C563 Gd504 2.828 . S
C563 O548 1.258 . S
C563 O553 1.252 . S
C563 C564 1.497 . S
C564 C563 1.497 . S
C564 C565 1.395 . S
C564 C566 1.380 . S
C565 C564 1.395 . S
C565 C568 1.398 . S
C565 H580 0.930 . S
C566 C564 1.380 . S
C566 C567 1.391 . S
C566 H581 0.930 . S
C567 C566 1.391 . S
C567 C569 1.387 . S
C568 C565 1.398 . S
C568 C569 1.380 . S
C568 H582 0.930 . S
C569 C567 1.387 . S
C569 C568 1.380 . S
C569 H583 0.930 . S
C570 O550 1.254 . S
C570 O551 1.268 . S
C571 O555 1.284 . S
C571 O558 1.250 . S
C572 Gd505 2.828 . S
C572 O554 1.258 . S
C572 O559 1.252 . S
C572 C573 1.497 1_455 S
C573 C572 1.497 1_655 S
C573 C574 1.395 . S
C573 C575 1.380 . S
C574 C573 1.395 . S
C574 C577 1.398 . S
C574 H584 0.930 . S
C575 C573 1.380 . S
C575 C576 1.391 . S
C575 H585 0.930 . S
C576 C575 1.391 . S
C576 C578 1.387 . S
C577 C574 1.398 . S
C577 C578 1.380 . S
C577 H586 0.930 . S
C578 C576 1.387 . S
C578 C577 1.380 . S
C578 H587 0.930 . S
C579 O556 1.254 . S
C579 O557 1.268 . S
H580 C565 0.930 . S
H581 C566 0.930 . S
H582 C568 0.930 . S
H583 C569 0.930 . S
H584 C574 0.930 . S
H585 C575 0.930 . S
H586 C577 0.930 . S
H587 C578 0.930 . S
Gd588 N619 2.661 . S
Gd588 N625 2.601 . S
Gd588 O632 2.545 . S
Gd588 O633 2.606 . S
Gd588 O635 2.429 . S
Gd588 O636 2.545 . S
Gd588 O637 2.412 . S
Gd588 O639 2.362 . S
Gd588 O640 2.324 . S
Gd588 C647 2.828 . S
Gd589 N598 2.661 . S
Gd589 N602 2.601 . S
Gd589 O633 2.362 . S
Gd589 O634 2.324 . S
Gd589 O638 2.545 . S
Gd589 O639 2.606 . S
Gd589 O641 2.429 . S
Gd589 O642 2.545 . S
Gd589 O643 2.412 . S
Gd589 C656 2.828 . S
C590 C593 1.417 1_655 S
C590 C595 1.431 . S
C590 C596 1.412 . S
C591 C594 1.437 1_655 S
C591 C595 1.317 . S
C591 H610 0.929 . S
C592 C593 1.426 . S
C592 C594 1.413 . S
C592 N602 1.359 . S
C593 C590 1.417 1_455 S
C593 C592 1.426 . S
C593 N598 1.350 . S
C594 C591 1.437 1_455 S
C594 C592 1.413 . S
C594 C604 1.391 . S
C595 C590 1.431 . S
C595 C591 1.317 . S
C595 H606 0.930 . S
C596 C590 1.412 . S
C596 C597 1.355 1_655 S
C596 H608 0.930 . S
C597 C596 1.355 1_455 S
C597 C599 1.402 . S
C597 H609 0.930 . S
N598 Gd589 2.661 . S
N598 C593 1.350 . S
N598 C599 1.307 . S
C599 C597 1.402 . S
C599 N598 1.307 . S
C599 H600 0.930 . S
H600 C599 0.930 . S
C601 N602 1.334 . S
C601 C603 1.394 . S
C601 H605 0.930 . S
N602 Gd589 2.601 . S
N602 C592 1.359 . S
N602 C601 1.334 . S
C603 C601 1.394 . S
C603 C604 1.359 . S
C603 H615 0.930 1_556 S
C604 C594 1.391 . S
C604 C603 1.359 . S
C604 H616 0.929 1_556 S
H605 C601 0.930 . S
H606 C595 0.930 . S
H607 C624 0.930 . S
H608 C596 0.930 . S
H609 C597 0.930 . S
H610 C591 0.929 . S
H611 C629 0.930 . S
H612 C620 0.930 1_545 S
H613 C621 0.930 . S
H614 C645 0.929 . S
H615 C603 0.930 1_554 S
H616 C604 0.929 1_554 S
H617 C646 0.930 . S
H618 C627 0.930 . S
N619 Gd588 2.661 . S
N619 C623 1.350 . S
N619 C624 1.307 . S
C620 H612 0.930 1_565 S
C620 C621 1.355 . S
C620 C622 1.412 . S
C621 H613 0.930 . S
C621 C620 1.355 . S
C621 C624 1.402 . S
C622 C620 1.412 . S
C622 C623 1.417 . S
C622 C646 1.431 1_565 S
C623 N619 1.350 . S
C623 C622 1.417 . S
C623 C626 1.426 . S
C624 H607 0.930 . S
C624 N619 1.307 . S
C624 C621 1.402 . S
N625 Gd588 2.601 . S
N625 C626 1.359 . S
N625 C629 1.334 . S
C626 C623 1.426 . S
C626 N625 1.359 . S
C626 C630 1.413 . S
C627 H618 0.930 . S
C627 C628 1.359 . S
C627 C629 1.394 . S
C628 C627 1.359 . S
C628 C630 1.391 . S
C628 H631 0.929 . S
C629 H611 0.930 . S
C629 N625 1.334 . S
C629 C627 1.394 . S
C630 C626 1.413 . S
C630 C628 1.391 . S
C630 C645 1.437 1_565 S
H631 C628 0.929 . S
O632 Gd588 2.545 . S
O632 C647 1.258 . S
O633 Gd588 2.606 . S
O633 Gd589 2.362 . S
O633 C644 1.284 . S
O634 Gd589 2.324 . S
O634 C654 1.254 . S
O635 Gd588 2.429 . S
O635 C654 1.268 . S
O636 Gd588 2.545 . S
O636 C644 1.250 . S
O637 Gd588 2.412 . S
O637 C647 1.252 . S
O638 Gd589 2.545 . S
O638 C656 1.258 . S
O639 Gd588 2.362 . S
O639 Gd589 2.606 . S
O639 C655 1.284 . S
O640 Gd588 2.324 . S
O640 C663 1.254 . S
O641 Gd589 2.429 . S
O641 C663 1.268 . S
O642 Gd589 2.545 . S
O642 C655 1.250 . S
O643 Gd589 2.412 . S
O643 C656 1.252 . S
C644 O633 1.284 . S
C644 O636 1.250 . S
C645 H614 0.929 . S
C645 C630 1.437 1_545 S
C645 C646 1.317 . S
C646 H617 0.930 . S
C646 C622 1.431 1_545 S
C646 C645 1.317 . S
C647 Gd588 2.828 . S
C647 O632 1.258 . S
C647 O637 1.252 . S
C647 C648 1.497 1_565 S
C648 C647 1.497 1_545 S
C648 C649 1.395 . S
C648 C650 1.380 . S
C649 C648 1.395 . S
C649 C652 1.398 . S
C649 H664 0.930 . S
C650 C648 1.380 . S
C650 C651 1.391 . S
C650 H665 0.930 . S
C651 C650 1.391 . S
C651 C653 1.387 . S
C652 C649 1.398 . S
C652 C653 1.380 . S
C652 H666 0.930 . S
C653 C651 1.387 . S
C653 C652 1.380 . S
C653 H667 0.930 . S
C654 O634 1.254 . S
C654 O635 1.268 . S
C655 O639 1.284 . S
C655 O642 1.250 . S
C656 Gd589 2.828 . S
C656 O638 1.258 . S
C656 O643 1.252 . S
C656 C657 1.497 . S
C657 C656 1.497 . S
C657 C658 1.395 . S
C657 C659 1.380 . S
C658 C657 1.395 . S
C658 C661 1.398 . S
C658 H668 0.930 . S
C659 C657 1.380 . S
C659 C660 1.391 . S
C659 H669 0.930 . S
C660 C659 1.391 . S
C660 C662 1.387 . S
C661 C658 1.398 . S
C661 C662 1.380 . S
C661 H670 0.930 . S
C662 C660 1.387 . S
C662 C661 1.380 . S
C662 H671 0.930 . S
C663 O640 1.254 . S
C663 O641 1.268 . S
H664 C649 0.930 . S
H665 C650 0.930 . S
H666 C652 0.930 . S
H667 C653 0.930 . S
H668 C658 0.930 . S
H669 C659 0.930 . S
H670 C661 0.930 . S
H671 C662 0.930 . S
Gd672 N703 2.661 . S
Gd672 N709 2.601 . S
Gd672 O716 2.545 . S
Gd672 O717 2.606 . S
Gd672 O719 2.429 . S
Gd672 O720 2.545 . S
Gd672 O721 2.412 . S
Gd672 O723 2.362 . S
Gd672 O724 2.324 . S
Gd672 C731 2.828 . S
Gd673 N682 2.661 . S
Gd673 N686 2.601 . S
Gd673 O717 2.362 . S
Gd673 O718 2.324 . S
Gd673 O722 2.545 . S
Gd673 O723 2.606 . S
Gd673 O725 2.429 . S
Gd673 O726 2.545 . S
Gd673 O727 2.412 . S
Gd673 C740 2.828 . S
C674 C677 1.417 . S
C674 C679 1.431 . S
C674 C680 1.412 . S
C675 C678 1.437 . S
C675 C679 1.317 . S
C675 H694 0.929 . S
C676 C677 1.426 . S
C676 C678 1.413 . S
C676 N686 1.359 . S
C677 C674 1.417 . S
C677 C676 1.426 . S
C677 N682 1.350 . S
C678 C675 1.437 . S
C678 C676 1.413 . S
C678 C688 1.391 . S
C679 C674 1.431 . S
C679 C675 1.317 . S
C679 H690 0.930 . S
C680 C674 1.412 . S
C680 C681 1.355 . S
C680 H692 0.930 . S
C681 C680 1.355 . S
C681 C683 1.402 . S
C681 H693 0.930 . S
N682 Gd673 2.661 . S
N682 C677 1.350 . S
N682 C683 1.307 . S
C683 C681 1.402 . S
C683 N682 1.307 . S
C683 H684 0.930 . S
H684 C683 0.930 . S
C685 N686 1.334 . S
C685 C687 1.394 . S
C685 H689 0.930 . S
N686 Gd673 2.601 . S
N686 C676 1.359 . S
N686 C685 1.334 . S
C687 C685 1.394 . S
C687 C688 1.359 . S
C687 H699 0.930 . S
C688 C678 1.391 . S
C688 C687 1.359 . S
C688 H700 0.929 . S
H689 C685 0.930 . S
H690 C679 0.930 . S
H691 C708 0.930 . S
H692 C680 0.930 . S
H693 C681 0.930 . S
H694 C675 0.929 . S
H695 C713 0.930 . S
H696 C704 0.930 . S
H697 C705 0.930 . S
H698 C729 0.929 . S
H699 C687 0.930 . S
H700 C688 0.929 . S
H701 C730 0.930 . S
H702 C711 0.930 . S
N703 Gd672 2.661 . S
N703 C707 1.350 . S
N703 C708 1.307 . S
C704 H696 0.930 . S
C704 C705 1.355 1_545 S
C704 C706 1.412 . S
C705 H697 0.930 . S
C705 C704 1.355 1_565 S
C705 C708 1.402 . S
C706 C704 1.412 . S
C706 C707 1.417 1_545 S
C706 C730 1.431 . S
C707 N703 1.350 . S
C707 C706 1.417 1_565 S
C707 C710 1.426 . S
C708 H691 0.930 . S
C708 N703 1.307 . S
C708 C705 1.402 . S
N709 Gd672 2.601 . S
N709 C710 1.359 . S
N709 C713 1.334 . S
C710 C707 1.426 . S
C710 N709 1.359 . S
C710 C714 1.413 . S
C711 H702 0.930 . S
C711 C712 1.359 . S
C711 C713 1.394 . S
C712 C711 1.359 . S
C712 C714 1.391 . S
C712 H715 0.929 . S
C713 H695 0.930 . S
C713 N709 1.334 . S
C713 C711 1.394 . S
C714 C710 1.413 . S
C714 C712 1.391 . S
C714 C729 1.437 1_565 S
H715 C712 0.929 . S
O716 Gd672 2.545 . S
O716 C731 1.258 . S
O717 Gd672 2.606 . S
O717 Gd673 2.362 . S
O717 C728 1.284 . S
O718 Gd673 2.324 . S
O718 C738 1.254 . S
O719 Gd672 2.429 . S
O719 C738 1.268 . S
O720 Gd672 2.545 . S
O720 C728 1.250 . S
O721 Gd672 2.412 . S
O721 C731 1.252 . S
O722 Gd673 2.545 . S
O722 C740 1.258 . S
O723 Gd672 2.362 . S
O723 Gd673 2.606 . S
O723 C739 1.284 . S
O724 Gd672 2.324 . S
O724 C747 1.254 . S
O725 Gd673 2.429 . S
O725 C747 1.268 . S
O726 Gd673 2.545 . S
O726 C739 1.250 . S
O727 Gd673 2.412 . S
O727 C740 1.252 . S
C728 O717 1.284 . S
C728 O720 1.250 . S
C729 H698 0.929 . S
C729 C714 1.437 1_545 S
C729 C730 1.317 . S
C730 H701 0.930 . S
C730 C706 1.431 . S
C730 C729 1.317 . S
C731 Gd672 2.828 . S
C731 O716 1.258 . S
C731 O721 1.252 . S
C731 C732 1.497 . S
C732 C731 1.497 . S
C732 C733 1.395 . S
C732 C734 1.380 . S
C733 C732 1.395 . S
C733 C736 1.398 . S
C733 H748 0.930 . S
C734 C732 1.380 . S
C734 C735 1.391 . S
C734 H749 0.930 . S
C735 C734 1.391 . S
C735 C737 1.387 . S
C736 C733 1.398 . S
C736 C737 1.380 . S
C736 H750 0.930 . S
C737 C735 1.387 . S
C737 C736 1.380 . S
C737 H751 0.930 . S
C738 O718 1.254 . S
C738 O719 1.268 . S
C739 O723 1.284 . S
C739 O726 1.250 . S
C740 Gd673 2.828 . S
C740 O722 1.258 . S
C740 O727 1.252 . S
C740 C741 1.497 . S
C741 C740 1.497 . S
C741 C742 1.395 . S
C741 C743 1.380 . S
C742 C741 1.395 . S
C742 C745 1.398 . S
C742 H752 0.930 . S
C743 C741 1.380 . S
C743 C744 1.391 . S
C743 H753 0.930 . S
C744 C743 1.391 . S
C744 C746 1.387 . S
C745 C742 1.398 . S
C745 C746 1.380 . S
C745 H754 0.930 . S
C746 C744 1.387 . S
C746 C745 1.380 . S
C746 H755 0.930 . S
C747 O724 1.254 . S
C747 O725 1.268 . S
H748 C733 0.930 . S
H749 C734 0.930 . S
H750 C736 0.930 . S
H751 C737 0.930 . S
H752 C742 0.930 . S
H753 C743 0.930 . S
H754 C745 0.930 . S
H755 C746 0.930 . S
Gd756 N787 2.661 . S
Gd756 N793 2.601 . S
Gd756 O800 2.545 . S
Gd756 O801 2.606 . S
Gd756 O803 2.429 . S
Gd756 O804 2.545 . S
Gd756 O805 2.412 . S
Gd756 O807 2.362 . S
Gd756 O808 2.324 . S
Gd756 C815 2.828 . S
Gd757 N766 2.661 . S
Gd757 N770 2.601 . S
Gd757 O801 2.362 . S
Gd757 O802 2.324 . S
Gd757 O806 2.545 . S
Gd757 O807 2.606 . S
Gd757 O809 2.429 . S
Gd757 O810 2.545 . S
Gd757 O811 2.412 . S
Gd757 C824 2.828 . S
C758 C761 1.417 . S
C758 C763 1.431 . S
C758 C764 1.412 . S
C759 C762 1.437 . S
C759 C763 1.317 . S
C759 H778 0.929 . S
C760 C761 1.426 . S
C760 C762 1.413 . S
C760 N770 1.359 . S
C761 C758 1.417 . S
C761 C760 1.426 . S
C761 N766 1.350 . S
C762 C759 1.437 . S
C762 C760 1.413 . S
C762 C772 1.391 . S
C763 C758 1.431 . S
C763 C759 1.317 . S
C763 H774 0.930 . S
C764 C758 1.412 . S
C764 C765 1.355 . S
C764 H776 0.930 . S
C765 C764 1.355 . S
C765 C767 1.402 . S
C765 H777 0.930 . S
N766 Gd757 2.661 . S
N766 C761 1.350 . S
N766 C767 1.307 . S
C767 C765 1.402 . S
C767 N766 1.307 . S
C767 H768 0.930 . S
H768 C767 0.930 . S
C769 N770 1.334 . S
C769 C771 1.394 . S
C769 H773 0.930 . S
N770 Gd757 2.601 . S
N770 C760 1.359 . S
N770 C769 1.334 . S
C771 C769 1.394 . S
C771 C772 1.359 . S
C771 H783 0.930 1_556 S
C772 C762 1.391 . S
C772 C771 1.359 . S
C772 H784 0.929 1_556 S
H773 C769 0.930 . S
H774 C763 0.930 . S
H775 C792 0.930 . S
H776 C764 0.930 . S
H777 C765 0.930 . S
H778 C759 0.929 . S
H779 C797 0.930 . S
H780 C788 0.930 1_655 S
H781 C789 0.930 . S
H782 C813 0.929 . S
H783 C771 0.930 1_554 S
H784 C772 0.929 1_554 S
H785 C814 0.930 . S
H786 C795 0.930 . S
N787 Gd756 2.661 . S
N787 C791 1.350 . S
N787 C792 1.307 . S
C788 H780 0.930 1_455 S
C788 C789 1.355 . S
C788 C790 1.412 . S
C789 H781 0.930 . S
C789 C788 1.355 . S
C789 C792 1.402 . S
C790 C788 1.412 . S
C790 C791 1.417 . S
C790 C814 1.431 1_455 S
C791 N787 1.350 . S
C791 C790 1.417 . S
C791 C794 1.426 . S
C792 H775 0.930 . S
C792 N787 1.307 . S
C792 C789 1.402 . S
N793 Gd756 2.601 . S
N793 C794 1.359 . S
N793 C797 1.334 . S
C794 C791 1.426 . S
C794 N793 1.359 . S
C794 C798 1.413 . S
C795 H786 0.930 . S
C795 C796 1.359 . S
C795 C797 1.394 . S
C796 C795 1.359 . S
C796 C798 1.391 . S
C796 H799 0.929 . S
C797 H779 0.930 . S
C797 N793 1.334 . S
C797 C795 1.394 . S
C798 C794 1.413 . S
C798 C796 1.391 . S
C798 C813 1.437 1_455 S
H799 C796 0.929 . S
O800 Gd756 2.545 . S
O800 C815 1.258 . S
O801 Gd756 2.606 . S
O801 Gd757 2.362 . S
O801 C812 1.284 . S
O802 Gd757 2.324 . S
O802 C822 1.254 . S
O803 Gd756 2.429 . S
O803 C822 1.268 . S
O804 Gd756 2.545 . S
O804 C812 1.250 . S
O805 Gd756 2.412 . S
O805 C815 1.252 . S
O806 Gd757 2.545 . S
O806 C824 1.258 . S
O807 Gd756 2.362 . S
O807 Gd757 2.606 . S
O807 C823 1.284 . S
O808 Gd756 2.324 . S
O808 C831 1.254 . S
O809 Gd757 2.429 . S
O809 C831 1.268 . S
O810 Gd757 2.545 . S
O810 C823 1.250 . S
O811 Gd757 2.412 . S
O811 C824 1.252 . S
C812 O801 1.284 . S
C812 O804 1.250 . S
C813 H782 0.929 . S
C813 C798 1.437 1_655 S
C813 C814 1.317 . S
C814 H785 0.930 . S
C814 C790 1.431 1_655 S
C814 C813 1.317 . S
C815 Gd756 2.828 . S
C815 O800 1.258 . S
C815 O805 1.252 . S
C815 C816 1.497 1_455 S
C816 C815 1.497 1_655 S
C816 C817 1.395 . S
C816 C818 1.380 . S
C817 C816 1.395 . S
C817 C820 1.398 . S
C817 H832 0.930 . S
C818 C816 1.380 . S
C818 C819 1.391 . S
C818 H833 0.930 . S
C819 C818 1.391 . S
C819 C821 1.387 . S
C820 C817 1.398 . S
C820 C821 1.380 . S
C820 H834 0.930 . S
C821 C819 1.387 . S
C821 C820 1.380 . S
C821 H835 0.930 . S
C822 O802 1.254 . S
C822 O803 1.268 . S
C823 O807 1.284 . S
C823 O810 1.250 . S
C824 Gd757 2.828 . S
C824 O806 1.258 . S
C824 O811 1.252 . S
C824 C825 1.497 . S
C825 C824 1.497 . S
C825 C826 1.395 . S
C825 C827 1.380 . S
C826 C825 1.395 . S
C826 C829 1.398 . S
C826 H836 0.930 . S
C827 C825 1.380 . S
C827 C828 1.391 . S
C827 H837 0.930 . S
C828 C827 1.391 . S
C828 C830 1.387 . S
C829 C826 1.398 . S
C829 C830 1.380 . S
C829 H838 0.930 . S
C830 C828 1.387 . S
C830 C829 1.380 . S
C830 H839 0.930 . S
C831 O808 1.254 . S
C831 O809 1.268 . S
H832 C817 0.930 . S
H833 C818 0.930 . S
H834 C820 0.930 . S
H835 C821 0.930 . S
H836 C826 0.930 . S
H837 C827 0.930 . S
H838 C829 0.930 . S
H839 C830 0.930 . S
Gd840 N871 2.661 . S
Gd840 N877 2.601 . S
Gd840 O884 2.545 . S
Gd840 O885 2.606 . S
Gd840 O887 2.429 . S
Gd840 O888 2.545 . S
Gd840 O889 2.412 . S
Gd840 O891 2.362 . S
Gd840 O892 2.324 . S
Gd840 C899 2.828 . S
Gd841 N850 2.661 . S
Gd841 N854 2.601 . S
Gd841 O885 2.362 . S
Gd841 O886 2.324 . S
Gd841 O890 2.545 . S
Gd841 O891 2.606 . S
Gd841 O893 2.429 . S
Gd841 O894 2.545 . S
Gd841 O895 2.412 . S
Gd841 C908 2.828 . S
C842 C845 1.417 . S
C842 C847 1.431 1_565 S
C842 C848 1.412 . S
C843 C846 1.437 1_545 S
C843 C847 1.317 . S
C843 H862 0.929 . S
C844 C845 1.426 . S
C844 C846 1.413 . S
C844 N854 1.359 . S
C845 C842 1.417 . S
C845 C844 1.426 . S
C845 N850 1.350 . S
C846 C843 1.437 1_565 S
C846 C844 1.413 . S
C846 C856 1.391 . S
C847 C842 1.431 1_545 S
C847 C843 1.317 . S
C847 H858 0.930 . S
C848 C842 1.412 . S
C848 C849 1.355 . S
C848 H860 0.930 1_565 S
C849 C848 1.355 . S
C849 C851 1.402 . S
C849 H861 0.930 . S
N850 Gd841 2.661 . S
N850 C845 1.350 . S
N850 C851 1.307 . S
C851 C849 1.402 . S
C851 N850 1.307 . S
C851 H852 0.930 . S
H852 C851 0.930 . S
C853 N854 1.334 . S
C853 C855 1.394 . S
C853 H857 0.930 . S
N854 Gd841 2.601 . S
N854 C844 1.359 . S
N854 C853 1.334 . S
C855 C853 1.394 . S
C855 C856 1.359 . S
C855 H867 0.930 . S
C856 C846 1.391 . S
C856 C855 1.359 . S
C856 H868 0.929 . S
H857 C853 0.930 . S
H858 C847 0.930 . S
H859 C876 0.930 . S
H860 C848 0.930 1_545 S
H861 C849 0.930 . S
H862 C843 0.929 . S
H863 C881 0.930 . S
H864 C872 0.930 . S
H865 C873 0.930 . S
H866 C897 0.929 . S
H867 C855 0.930 . S
H868 C856 0.929 . S
H869 C898 0.930 . S
H870 C879 0.930 . S
N871 Gd840 2.661 . S
N871 C875 1.350 . S
N871 C876 1.307 . S
C872 H864 0.930 . S
C872 C873 1.355 1_655 S
C872 C874 1.412 . S
C873 H865 0.930 . S
C873 C872 1.355 1_455 S
C873 C876 1.402 . S
C874 C872 1.412 . S
C874 C875 1.417 1_655 S
C874 C898 1.431 . S
C875 N871 1.350 . S
C875 C874 1.417 1_455 S
C875 C878 1.426 . S
C876 H859 0.930 . S
C876 N871 1.307 . S
C876 C873 1.402 . S
N877 Gd840 2.601 . S
N877 C878 1.359 . S
N877 C881 1.334 . S
C878 C875 1.426 . S
C878 N877 1.359 . S
C878 C882 1.413 . S
C879 H870 0.930 . S
C879 C880 1.359 . S
C879 C881 1.394 . S
C880 C879 1.359 . S
C880 C882 1.391 . S
C880 H883 0.929 . S
C881 H863 0.930 . S
C881 N877 1.334 . S
C881 C879 1.394 . S
C882 C878 1.413 . S
C882 C880 1.391 . S
C882 C897 1.437 1_455 S
H883 C880 0.929 . S
O884 Gd840 2.545 . S
O884 C899 1.258 . S
O885 Gd840 2.606 . S
O885 Gd841 2.362 . S
O885 C896 1.284 . S
O886 Gd841 2.324 . S
O886 C906 1.254 . S
O887 Gd840 2.429 . S
O887 C906 1.268 . S
O888 Gd840 2.545 . S
O888 C896 1.250 . S
O889 Gd840 2.412 . S
O889 C899 1.252 . S
O890 Gd841 2.545 . S
O890 C908 1.258 . S
O891 Gd840 2.362 . S
O891 Gd841 2.606 . S
O891 C907 1.284 . S
O892 Gd840 2.324 . S
O892 C915 1.254 . S
O893 Gd841 2.429 . S
O893 C915 1.268 . S
O894 Gd841 2.545 . S
O894 C907 1.250 . S
O895 Gd841 2.412 . S
O895 C908 1.252 . S
C896 O885 1.284 . S
C896 O888 1.250 . S
C897 H866 0.929 . S
C897 C882 1.437 1_655 S
C897 C898 1.317 . S
C898 H869 0.930 . S
C898 C874 1.431 . S
C898 C897 1.317 . S
C899 Gd840 2.828 . S
C899 O884 1.258 . S
C899 O889 1.252 . S
C899 C900 1.497 . S
C900 C899 1.497 . S
C900 C901 1.395 . S
C900 C902 1.380 . S
C901 C900 1.395 . S
C901 C904 1.398 . S
C901 H916 0.930 . S
C902 C900 1.380 . S
C902 C903 1.391 . S
C902 H917 0.930 . S
C903 C902 1.391 . S
C903 C905 1.387 . S
C904 C901 1.398 . S
C904 C905 1.380 . S
C904 H918 0.930 . S
C905 C903 1.387 . S
C905 C904 1.380 . S
C905 H919 0.930 . S
C906 O886 1.254 . S
C906 O887 1.268 . S
C907 O891 1.284 . S
C907 O894 1.250 . S
C908 Gd841 2.828 . S
C908 O890 1.258 . S
C908 O895 1.252 . S
C908 C909 1.497 1_565 S
C909 C908 1.497 1_545 S
C909 C910 1.395 . S
C909 C911 1.380 . S
C910 C909 1.395 . S
C910 C913 1.398 . S
C910 H920 0.930 . S
C911 C909 1.380 . S
C911 C912 1.391 . S
C911 H921 0.930 . S
C912 C911 1.391 . S
C912 C914 1.387 . S
C913 C910 1.398 . S
C913 C914 1.380 . S
C913 H922 0.930 . S
C914 C912 1.387 . S
C914 C913 1.380 . S
C914 H923 0.930 . S
C915 O892 1.254 . S
C915 O893 1.268 . S
H916 C901 0.930 . S
H917 C902 0.930 . S
H918 C904 0.930 . S
H919 C905 0.930 . S
H920 C910 0.930 . S
H921 C911 0.930 . S
H922 C913 0.930 . S
H923 C914 0.930 . S
Gd924 N955 2.661 . S
Gd924 N961 2.601 . S
Gd924 O968 2.545 . S
Gd924 O969 2.606 . S
Gd924 O971 2.429 . S
Gd924 O972 2.545 . S
Gd924 O973 2.412 . S
Gd924 O975 2.362 . S
Gd924 O976 2.324 . S
Gd924 C983 2.828 . S
Gd925 N934 2.661 . S
Gd925 N938 2.601 . S
Gd925 O969 2.362 . S
Gd925 O970 2.324 . S
Gd925 O974 2.545 . S
Gd925 O975 2.606 . S
Gd925 O977 2.429 . S
Gd925 O978 2.545 . S
Gd925 O979 2.412 . S
Gd925 C992 2.828 . S
C926 C929 1.417 1_545 S
C926 C931 1.431 . S
C926 C932 1.412 . S
C927 C930 1.437 1_545 S
C927 C931 1.317 . S
C927 H946 0.929 . S
C928 C929 1.426 . S
C928 C930 1.413 . S
C928 N938 1.359 . S
C929 C926 1.417 1_565 S
C929 C928 1.426 . S
C929 N934 1.350 . S
C930 C927 1.437 1_565 S
C930 C928 1.413 . S
C930 C940 1.391 . S
C931 C926 1.431 . S
C931 C927 1.317 . S
C931 H942 0.930 . S
C932 C926 1.412 . S
C932 C933 1.355 1_545 S
C932 H944 0.930 . S
C933 C932 1.355 1_565 S
C933 C935 1.402 . S
C933 H945 0.930 . S
N934 Gd925 2.661 . S
N934 C929 1.350 . S
N934 C935 1.307 . S
C935 C933 1.402 . S
C935 N934 1.307 . S
C935 H936 0.930 . S
H936 C935 0.930 . S
C937 N938 1.334 . S
C937 C939 1.394 . S
C937 H941 0.930 . S
N938 Gd925 2.601 . S
N938 C928 1.359 . S
N938 C937 1.334 . S
C939 C937 1.394 . S
C939 C940 1.359 . S
C939 H951 0.930 1_556 S
C940 C930 1.391 . S
C940 C939 1.359 . S
C940 H952 0.929 1_556 S
H941 C937 0.930 . S
H942 C931 0.930 . S
H943 C960 0.930 . S
H944 C932 0.930 . S
H945 C933 0.930 . S
H946 C927 0.929 . S
H947 C965 0.930 . S
H948 C956 0.930 . S
H949 C957 0.930 . S
H950 C981 0.929 . S
H951 C939 0.930 1_554 S
H952 C940 0.929 1_554 S
H953 C982 0.930 . S
H954 C963 0.930 . S
N955 Gd924 2.661 . S
N955 C959 1.350 . S
N955 C960 1.307 . S
C956 H948 0.930 . S
C956 C957 1.355 . S
C956 C958 1.412 . S
C957 H949 0.930 . S
C957 C956 1.355 . S
C957 C960 1.402 . S
C958 C956 1.412 . S
C958 C959 1.417 . S
C958 C982 1.431 . S
C959 N955 1.350 . S
C959 C958 1.417 . S
C959 C962 1.426 . S
C960 H943 0.930 . S
C960 N955 1.307 . S
C960 C957 1.402 . S
N961 Gd924 2.601 . S
N961 C962 1.359 . S
N961 C965 1.334 . S
C962 C959 1.426 . S
C962 N961 1.359 . S
C962 C966 1.413 . S
C963 H954 0.930 . S
C963 C964 1.359 . S
C963 C965 1.394 . S
C964 C963 1.359 . S
C964 C966 1.391 . S
C964 H967 0.929 . S
C965 H947 0.930 . S
C965 N961 1.334 . S
C965 C963 1.394 . S
C966 C962 1.413 . S
C966 C964 1.391 . S
C966 C981 1.437 . S
H967 C964 0.929 . S
O968 Gd924 2.545 . S
O968 C983 1.258 . S
O969 Gd924 2.606 . S
O969 Gd925 2.362 . S
O969 C980 1.284 . S
O970 Gd925 2.324 . S
O970 C990 1.254 . S
O971 Gd924 2.429 . S
O971 C990 1.268 . S
O972 Gd924 2.545 . S
O972 C980 1.250 . S
O973 Gd924 2.412 . S
O973 C983 1.252 . S
O974 Gd925 2.545 . S
O974 C992 1.258 . S
O975 Gd924 2.362 . S
O975 Gd925 2.606 . S
O975 C991 1.284 . S
O976 Gd924 2.324 . S
O976 C999 1.254 . S
O977 Gd925 2.429 . S
O977 C999 1.268 . S
O978 Gd925 2.545 . S
O978 C991 1.250 . S
O979 Gd925 2.412 . S
O979 C992 1.252 . S
C980 O969 1.284 . S
C980 O972 1.250 . S
C981 H950 0.929 . S
C981 C966 1.437 . S
C981 C982 1.317 . S
C982 H953 0.930 . S
C982 C958 1.431 . S
C982 C981 1.317 . S
C983 Gd924 2.828 . S
C983 O968 1.258 . S
C983 O973 1.252 . S
C983 C984 1.497 . S
C984 C983 1.497 . S
C984 C985 1.395 . S
C984 C986 1.380 . S
C985 C984 1.395 . S
C985 C988 1.398 . S
C985 H1000 0.930 . S
C986 C984 1.380 . S
C986 C987 1.391 . S
C986 H1001 0.930 . S
C987 C986 1.391 . S
C987 C989 1.387 . S
C988 C985 1.398 . S
C988 C989 1.380 . S
C988 H1002 0.930 . S
C989 C987 1.387 . S
C989 C988 1.380 . S
C989 H1003 0.930 . S
C990 O970 1.254 . S
C990 O971 1.268 . S
C991 O975 1.284 . S
C991 O978 1.250 . S
C992 Gd925 2.828 . S
C992 O974 1.258 . S
C992 O979 1.252 . S
C992 C993 1.497 . S
C993 C992 1.497 . S
C993 C994 1.395 . S
C993 C995 1.380 . S
C994 C993 1.395 . S
C994 C997 1.398 . S
C994 H1004 0.930 . S
C995 C993 1.380 . S
C995 C996 1.391 . S
C995 H1005 0.930 . S
C996 C995 1.391 . S
C996 C998 1.387 . S
C997 C994 1.398 . S
C997 C998 1.380 . S
C997 H1006 0.930 . S
C998 C996 1.387 . S
C998 C997 1.380 . S
C998 H1007 0.930 . S
C999 O976 1.254 . S
C999 O977 1.268 . S
H1000 C985 0.930 . S
H1001 C986 0.930 . S
H1002 C988 0.930 . S
H1003 C989 0.930 . S
H1004 C994 0.930 . S
H1005 C995 0.930 . S
H1006 C997 0.930 . S
H1007 C998 0.930 . S
H1008 C1014 0.930 . S
H1009 C1017 0.930 . S
H1010 C1018 0.930 . S
H1011 C1019 0.930 . S
H1012 C1022 0.930 . S
H1013 C1023 0.930 . S
C1014 H1008 0.930 . S
C1014 C1015 1.355 . S
C1014 C1016 1.415 . S
C1015 C1014 1.355 . S
C1015 C1017 1.419 . S
C1016 C1014 1.415 . S
C1016 C1021 1.425 . S
C1016 C1023 1.409 . S
C1017 H1009 0.930 . S
C1017 C1015 1.419 . S
C1017 C1018 1.362 . S
C1018 H1010 0.930 . S
C1018 C1017 1.362 . S
C1018 C1021 1.409 . S
C1019 H1011 0.930 . S
C1019 C1020 1.355 . S
C1019 C1021 1.415 . S
C1020 C1019 1.355 . S
C1020 C1022 1.419 . S
C1021 C1016 1.425 . S
C1021 C1018 1.409 . S
C1021 C1019 1.415 . S
C1022 H1012 0.930 . S
C1022 C1020 1.419 . S
C1022 C1023 1.362 . S
C1023 H1013 0.930 . S
C1023 C1016 1.409 . S
C1023 C1022 1.362 . S
H1024 C1030 0.930 . S
H1025 C1033 0.930 . S
H1026 C1034 0.930 . S
H1027 C1035 0.930 . S
H1028 C1038 0.930 . S
H1029 C1039 0.930 . S
C1030 H1024 0.930 . S
C1030 C1031 1.355 . S
C1030 C1032 1.415 . S
C1031 C1030 1.355 . S
C1031 C1033 1.419 . S
C1032 C1030 1.415 . S
C1032 C1037 1.425 1_455 S
C1032 C1039 1.409 1_455 S
C1033 H1025 0.930 . S
C1033 C1031 1.419 . S
C1033 C1034 1.362 . S
C1034 H1026 0.930 . S
C1034 C1033 1.362 . S
C1034 C1037 1.409 1_455 S
C1035 H1027 0.930 . S
C1035 C1036 1.355 . S
C1035 C1037 1.415 . S
C1036 C1035 1.355 . S
C1036 C1038 1.419 . S
C1037 C1032 1.425 1_655 S
C1037 C1034 1.409 1_655 S
C1037 C1035 1.415 . S
C1038 H1028 0.930 . S
C1038 C1036 1.419 . S
C1038 C1039 1.362 . S
C1039 H1029 0.930 . S
C1039 C1032 1.409 1_655 S
C1039 C1038 1.362 . S
H1040 C1046 0.930 . S
H1041 C1049 0.930 . S
H1042 C1050 0.930 . S
H1043 C1051 0.930 . S
H1044 C1054 0.930 . S
H1045 C1055 0.930 1_545 S
C1046 H1040 0.930 . S
C1046 C1047 1.355 . S
C1046 C1048 1.415 . S
C1047 C1046 1.355 . S
C1047 C1049 1.419 . S
C1048 C1046 1.415 . S
C1048 C1053 1.425 1_545 S
C1048 C1055 1.409 1_545 S
C1049 H1041 0.930 . S
C1049 C1047 1.419 . S
C1049 C1050 1.364 1_545 S
C1050 H1042 0.930 . S
C1050 C1049 1.364 1_565 S
C1050 C1053 1.408 . S
C1051 H1043 0.930 . S
C1051 C1052 1.355 . S
C1051 C1053 1.415 . S
C1052 C1051 1.355 . S
C1052 C1054 1.419 . S
C1053 C1048 1.425 1_565 S
C1053 C1050 1.408 . S
C1053 C1051 1.415 . S
C1054 H1044 0.930 . S
C1054 C1052 1.419 . S
C1054 C1055 1.362 . S
C1055 H1045 0.930 1_565 S
C1055 C1048 1.409 1_565 S
C1055 C1054 1.362 . S
H1056 C1062 0.930 . S
H1057 C1065 0.930 . S
H1058 C1066 0.930 . S
H1059 C1067 0.930 . S
H1060 C1070 0.930 . S
H1061 C1071 0.930 . S
C1062 H1056 0.930 . S
C1062 C1063 1.355 . S
C1062 C1064 1.415 . S
C1063 C1062 1.355 . S
C1063 C1065 1.419 . S
C1064 C1062 1.415 . S
C1064 C1069 1.425 . S
C1064 C1071 1.409 . S
C1065 H1057 0.930 . S
C1065 C1063 1.419 . S
C1065 C1066 1.362 . S
C1066 H1058 0.930 . S
C1066 C1065 1.362 . S
C1066 C1069 1.409 . S
C1067 H1059 0.930 . S
C1067 C1068 1.355 . S
C1067 C1069 1.415 . S
C1068 C1067 1.355 . S
C1068 C1070 1.419 . S
C1069 C1064 1.425 . S
C1069 C1066 1.409 . S
C1069 C1067 1.415 . S
C1070 H1060 0.930 . S
C1070 C1068 1.419 . S
C1070 C1071 1.362 . S
C1071 H1061 0.930 . S
C1071 C1064 1.409 . S
C1071 C1070 1.362 . S
H1072 C1078 0.930 . S
H1073 C1081 0.930 . S
H1074 C1082 0.930 . S
H1075 C1083 0.930 . S
H1076 C1086 0.930 . S
H1077 C1087 0.930 . S
C1078 H1072 0.930 . S
C1078 C1079 1.355 . S
C1078 C1080 1.415 . S
C1079 C1078 1.355 . S
C1079 C1081 1.419 . S
C1080 C1078 1.415 . S
C1080 C1085 1.425 . S
C1080 C1087 1.409 1_455 S
C1081 H1073 0.930 . S
C1081 C1079 1.419 . S
C1081 C1082 1.362 . S
C1082 H1074 0.930 . S
C1082 C1081 1.362 . S
C1082 C1085 1.409 . S
C1083 H1075 0.930 . S
C1083 C1084 1.355 . S
C1083 C1085 1.415 1_655 S
C1084 C1083 1.355 . S
C1084 C1086 1.419 . S
C1085 C1080 1.425 . S
C1085 C1082 1.409 . S
C1085 C1083 1.415 1_455 S
C1086 H1076 0.930 . S
C1086 C1084 1.419 . S
C1086 C1087 1.362 . S
C1087 H1077 0.930 . S
C1087 C1080 1.409 1_655 S
C1087 C1086 1.362 . S
H1088 C1094 0.930 . S
H1089 C1097 0.930 . S
H1090 C1098 0.930 . S
H1091 C1099 0.930 . S
H1092 C1102 0.930 . S
H1093 C1103 0.930 . S
C1094 H1088 0.930 . S
C1094 C1095 1.355 . S
C1094 C1096 1.415 . S
C1095 C1094 1.355 . S
C1095 C1097 1.419 . S
C1096 C1094 1.415 . S
C1096 C1101 1.429 . S
C1096 C1103 1.409 1_565 S
C1097 H1089 0.930 . S
C1097 C1095 1.419 . S
C1097 C1098 1.362 . S
C1098 H1090 0.930 . S
C1098 C1097 1.362 . S
C1098 C1101 1.415 . S
C1099 H1091 0.930 . S
C1099 C1100 1.355 . S
C1099 C1101 1.406 1_545 S
C1100 C1099 1.355 . S
C1100 C1102 1.419 . S
C1101 C1096 1.429 . S
C1101 C1098 1.415 . S
C1101 C1099 1.406 1_565 S
C1102 H1092 0.930 . S
C1102 C1100 1.419 . S
C1102 C1103 1.362 . S
C1103 H1093 0.930 . S
C1103 C1096 1.409 1_545 S
C1103 C1102 1.362 . S
H1104 C1110 0.930 . S
H1105 C1113 0.930 . S
H1106 C1114 0.930 . S
H1107 C1115 0.930 . S
H1108 C1118 0.930 . S
H1109 C1119 0.930 . S
C1110 H1104 0.930 . S
C1110 C1111 1.355 . S
C1110 C1112 1.415 . S
C1111 C1110 1.355 . S
C1111 C1113 1.419 . S
C1112 C1110 1.415 . S
C1112 C1117 1.425 . S
C1112 C1119 1.409 . S
C1113 H1105 0.930 . S
C1113 C1111 1.419 . S
C1113 C1114 1.362 . S
C1114 H1106 0.930 . S
C1114 C1113 1.362 . S
C1114 C1117 1.409 . S
C1115 H1107 0.930 . S
C1115 C1116 1.355 . S
C1115 C1117 1.415 . S
C1116 C1115 1.355 . S
C1116 C1118 1.419 . S
C1117 C1112 1.425 . S
C1117 C1114 1.409 . S
C1117 C1115 1.415 . S
C1118 H1108 0.930 . S
C1118 C1116 1.419 . S
C1118 C1119 1.362 . S
C1119 H1109 0.930 . S
C1119 C1112 1.409 . S
C1119 C1118 1.362 . S
H1120 C1126 0.930 . S
H1121 C1129 0.930 . S
H1122 C1130 0.933 . S
H1123 C1131 0.930 . S
H1124 C1134 0.930 . S
H1125 C1135 0.930 1_455 S
C1126 H1120 0.930 . S
C1126 C1127 1.355 . S
C1126 C1128 1.415 . S
C1127 C1126 1.355 . S
C1127 C1129 1.419 . S
C1128 C1126 1.415 . S
C1128 C1133 1.425 1_455 S
C1128 C1135 1.409 1_455 S
C1129 H1121 0.930 . S
C1129 C1127 1.419 . S
C1129 C1130 1.346 1_455 S
C1130 H1122 0.933 . S
C1130 C1129 1.346 1_655 S
C1130 C1133 1.423 . S
C1131 H1123 0.930 . S
C1131 C1132 1.355 . S
C1131 C1133 1.415 . S
C1132 C1131 1.355 . S
C1132 C1134 1.419 . S
C1133 C1128 1.425 1_655 S
C1133 C1130 1.423 . S
C1133 C1131 1.415 . S
C1134 H1124 0.930 . S
C1134 C1132 1.419 . S
C1134 C1135 1.362 . S
C1135 H1125 0.930 1_655 S
C1135 C1128 1.409 1_655 S
C1135 C1134 1.362 . S
H1136 C1142 0.930 . S
H1137 C1145 0.930 . S
H1138 C1146 0.930 1_545 S
H1139 C1147 0.930 . S
H1140 C1150 0.930 . S
H1141 C1151 0.930 1_565 S
C1142 H1136 0.930 . S
C1142 C1143 1.355 . S
C1142 C1144 1.415 . S
C1143 C1142 1.355 . S
C1143 C1145 1.419 . S
C1144 C1142 1.415 . S
C1144 C1149 1.425 1_565 S
C1144 C1151 1.409 1_565 S
C1145 H1137 0.930 . S
C1145 C1143 1.419 . S
C1145 C1146 1.362 . S
C1146 H1138 0.930 1_565 S
C1146 C1145 1.362 . S
C1146 C1149 1.409 1_565 S
C1147 H1139 0.930 . S
C1147 C1148 1.355 . S
C1147 C1149 1.415 . S
C1148 C1147 1.355 . S
C1148 C1150 1.419 . S
C1149 C1144 1.425 1_545 S
C1149 C1146 1.409 1_545 S
C1149 C1147 1.415 . S
C1150 H1140 0.930 . S
C1150 C1148 1.419 . S
C1150 C1151 1.362 . S
C1151 H1141 0.930 1_545 S
C1151 C1144 1.409 1_545 S
C1151 C1150 1.362 . S
H1152 C1158 0.930 . S
H1153 C1161 0.930 . S
H1154 C1162 0.930 . S
H1155 C1163 0.930 . S
H1156 C1166 0.930 . S
H1157 C1167 0.930 . S
C1158 H1152 0.930 . S
C1158 C1159 1.355 . S
C1158 C1160 1.415 . S
C1159 C1158 1.355 . S
C1159 C1161 1.419 . S
C1160 C1158 1.415 . S
C1160 C1165 1.425 . S
C1160 C1167 1.409 . S
C1161 H1153 0.930 . S
C1161 C1159 1.419 . S
C1161 C1162 1.362 . S
C1162 H1154 0.930 . S
C1162 C1161 1.362 . S
C1162 C1165 1.409 . S
C1163 H1155 0.930 . S
C1163 C1164 1.355 . S
C1163 C1165 1.415 . S
C1164 C1163 1.355 . S
C1164 C1166 1.419 . S
C1165 C1160 1.425 . S
C1165 C1162 1.409 . S
C1165 C1163 1.415 . S
C1166 H1156 0.930 . S
C1166 C1164 1.419 . S
C1166 C1167 1.362 . S
C1167 H1157 0.930 . S
C1167 C1160 1.409 . S
C1167 C1166 1.362 . S
H1168 C1174 0.930 . S
H1169 C1177 0.930 . S
H1170 C1178 0.930 . S
H1171 C1179 0.930 . S
H1172 C1182 0.930 . S
H1173 C1183 0.930 . S
C1174 H1168 0.930 . S
C1174 C1175 1.355 . S
C1174 C1176 1.415 1_455 S
C1175 C1174 1.355 . S
C1175 C1177 1.419 . S
C1176 C1174 1.415 1_655 S
C1176 C1181 1.425 . S
C1176 C1183 1.409 . S
C1177 H1169 0.930 . S
C1177 C1175 1.419 . S
C1177 C1178 1.362 . S
C1178 H1170 0.930 . S
C1178 C1177 1.362 . S
C1178 C1181 1.409 1_455 S
C1179 H1171 0.930 . S
C1179 C1180 1.355 . S
C1179 C1181 1.415 . S
C1180 C1179 1.355 . S
C1180 C1182 1.419 . S
C1181 C1176 1.425 . S
C1181 C1178 1.409 1_655 S
C1181 C1179 1.415 . S
C1182 H1172 0.930 . S
C1182 C1180 1.419 . S
C1182 C1183 1.362 . S
C1183 H1173 0.930 . S
C1183 C1176 1.409 . S
C1183 C1182 1.362 . S
H1184 C1190 0.930 . S
H1185 C1193 0.930 . S
H1186 C1194 0.930 1_565 S
H1187 C1195 0.930 . S
H1188 C1198 0.930 . S
H1189 C1199 0.930 1_545 S
C1190 H1184 0.930 . S
C1190 C1191 1.355 . S
C1190 C1192 1.415 . S
C1191 C1190 1.355 . S
C1191 C1193 1.419 . S
C1192 C1190 1.415 . S
C1192 C1197 1.425 1_545 S
C1192 C1199 1.409 1_545 S
C1193 H1185 0.930 . S
C1193 C1191 1.419 . S
C1193 C1194 1.362 . S
C1194 H1186 0.930 1_545 S
C1194 C1193 1.362 . S
C1194 C1197 1.409 1_545 S
C1195 H1187 0.930 . S
C1195 C1196 1.355 . S
C1195 C1197 1.415 . S
C1196 C1195 1.355 . S
C1196 C1198 1.419 . S
C1197 C1192 1.425 1_565 S
C1197 C1194 1.409 1_565 S
C1197 C1195 1.415 . S
C1198 H1188 0.930 . S
C1198 C1196 1.419 . S
C1198 C1199 1.362 . S
C1199 H1189 0.930 1_565 S
C1199 C1192 1.409 1_565 S
C1199 C1198 1.362 . S
H1200 C1206 0.930 . S
H1201 C1209 0.930 . S
H1202 C1210 0.930 . S
H1203 C1211 0.930 . S
H1204 C1214 0.930 . S
H1205 C1215 0.930 . S
C1206 H1200 0.930 . S
C1206 C1207 1.355 . S
C1206 C1208 1.415 . S
C1207 C1206 1.355 . S
C1207 C1209 1.419 . S
C1208 C1206 1.415 . S
C1208 C1213 1.425 . S
C1208 C1215 1.409 . S
C1209 H1201 0.930 . S
C1209 C1207 1.419 . S
C1209 C1210 1.362 . S
C1210 H1202 0.930 . S
C1210 C1209 1.362 . S
C1210 C1213 1.409 . S
C1211 H1203 0.930 . S
C1211 C1212 1.355 . S
C1211 C1213 1.415 . S
C1212 C1211 1.355 . S
C1212 C1214 1.419 . S
C1213 C1208 1.425 . S
C1213 C1210 1.409 . S
C1213 C1211 1.415 . S
C1214 H1204 0.930 . S
C1214 C1212 1.419 . S
C1214 C1215 1.362 . S
C1215 H1205 0.930 . S
C1215 C1208 1.409 . S
C1215 C1214 1.362 . S
H1216 C1222 0.930 . S
H1217 C1225 0.930 . S
H1218 C1226 0.930 . S
H1219 C1227 0.930 . S
H1220 C1230 0.930 . S
H1221 C1231 0.930 . S
C1222 H1216 0.930 . S
C1222 C1223 1.355 . S
C1222 C1224 1.415 . S
C1223 C1222 1.355 . S
C1223 C1225 1.419 . S
C1224 C1222 1.415 . S
C1224 C1229 1.425 . S
C1224 C1231 1.409 . S
C1225 H1217 0.930 . S
C1225 C1223 1.419 . S
C1225 C1226 1.362 . S
C1226 H1218 0.930 . S
C1226 C1225 1.362 . S
C1226 C1229 1.409 . S
C1227 H1219 0.930 . S
C1227 C1228 1.355 . S
C1227 C1229 1.415 . S
C1228 C1227 1.355 . S
C1228 C1230 1.419 . S
C1229 C1224 1.425 . S
C1229 C1226 1.409 . S
C1229 C1227 1.415 . S
C1230 H1220 0.930 . S
C1230 C1228 1.419 . S
C1230 C1231 1.362 . S
C1231 H1221 0.930 . S
C1231 C1224 1.409 . S
C1231 C1230 1.362 . S
H1232 C1238 0.930 . S
H1233 C1241 0.930 . S
H1234 C1242 0.930 . S
H1235 C1243 0.930 . S
H1236 C1246 0.930 . S
H1237 C1247 0.930 . S
C1238 H1232 0.930 . S
C1238 C1239 1.355 . S
C1238 C1240 1.415 . S
C1239 C1238 1.355 . S
C1239 C1241 1.419 . S
C1240 C1238 1.415 . S
C1240 C1245 1.425 . S
C1240 C1247 1.409 . S
C1241 H1233 0.930 . S
C1241 C1239 1.419 . S
C1241 C1242 1.362 . S
C1242 H1234 0.930 . S
C1242 C1241 1.362 . S
C1242 C1245 1.409 . S
C1243 H1235 0.930 . S
C1243 C1244 1.355 . S
C1243 C1245 1.415 . S
C1244 C1243 1.355 . S
C1244 C1246 1.419 . S
C1245 C1240 1.425 . S
C1245 C1242 1.409 . S
C1245 C1243 1.415 . S
C1246 H1236 0.930 . S
C1246 C1244 1.419 . S
C1246 C1247 1.362 . S
C1247 H1237 0.930 . S
C1247 C1240 1.409 . S
C1247 C1246 1.362 . S
H1248 C1254 0.930 . S
H1249 C1257 0.930 . S
H1250 C1258 0.930 . S
H1251 C1259 0.930 . S
H1252 C1262 0.930 . S
H1253 C1263 0.930 . S
C1254 H1248 0.930 . S
C1254 C1255 1.355 . S
C1254 C1256 1.415 . S
C1255 C1254 1.355 . S
C1255 C1257 1.419 . S
C1256 C1254 1.415 . S
C1256 C1261 1.425 . S
C1256 C1263 1.409 . S
C1257 H1249 0.930 . S
C1257 C1255 1.419 . S
C1257 C1258 1.362 . S
C1258 H1250 0.930 . S
C1258 C1257 1.362 . S
C1258 C1261 1.409 . S
C1259 H1251 0.930 . S
C1259 C1260 1.355 . S
C1259 C1261 1.415 . S
C1260 C1259 1.355 . S
C1260 C1262 1.419 . S
C1261 C1256 1.425 . S
C1261 C1258 1.409 . S
C1261 C1259 1.415 . S
C1262 H1252 0.930 . S
C1262 C1260 1.419 . S
C1262 C1263 1.362 . S
C1263 H1253 0.930 . S
C1263 C1256 1.409 . S
C1263 C1262 1.362 . S
H1264 C1270 0.930 . S
H1265 C1273 0.930 . S
H1266 C1274 0.930 . S
H1267 C1275 0.930 . S
H1268 C1278 0.930 . S
H1269 C1279 0.930 . S
C1270 H1264 0.930 . S
C1270 C1271 1.355 . S
C1270 C1272 1.415 . S
C1271 C1270 1.355 . S
C1271 C1273 1.419 . S
C1272 C1270 1.415 . S
C1272 C1277 1.425 . S
C1272 C1279 1.409 . S
C1273 H1265 0.930 . S
C1273 C1271 1.419 . S
C1273 C1274 1.362 . S
C1274 H1266 0.930 . S
C1274 C1273 1.362 . S
C1274 C1277 1.409 . S
C1275 H1267 0.930 . S
C1275 C1276 1.355 . S
C1275 C1277 1.415 . S
C1276 C1275 1.355 . S
C1276 C1278 1.419 . S
C1277 C1272 1.425 . S
C1277 C1274 1.409 . S
C1277 C1275 1.415 . S
C1278 H1268 0.930 . S
C1278 C1276 1.419 . S
C1278 C1279 1.362 . S
C1279 H1269 0.930 . S
C1279 C1272 1.409 . S
C1279 C1278 1.362 . S
H1280 C1286 0.930 . S
H1281 C1289 0.930 . S
H1282 C1290 0.930 . S
H1283 C1291 0.930 . S
H1284 C1294 0.930 . S
H1285 C1295 0.930 . S
C1286 H1280 0.930 . S
C1286 C1287 1.355 . S
C1286 C1288 1.415 . S
C1287 C1286 1.355 . S
C1287 C1289 1.419 . S
C1288 C1286 1.415 . S
C1288 C1293 1.425 . S
C1288 C1295 1.409 . S
C1289 H1281 0.930 . S
C1289 C1287 1.419 . S
C1289 C1290 1.362 . S
C1290 H1282 0.930 . S
C1290 C1289 1.362 . S
C1290 C1293 1.409 . S
C1291 H1283 0.930 . S
C1291 C1292 1.355 . S
C1291 C1293 1.415 . S
C1292 C1291 1.355 . S
C1292 C1294 1.419 . S
C1293 C1288 1.425 . S
C1293 C1290 1.409 . S
C1293 C1291 1.415 . S
C1294 H1284 0.930 . S
C1294 C1292 1.419 . S
C1294 C1295 1.362 . S
C1295 H1285 0.930 . S
C1295 C1288 1.409 . S
C1295 C1294 1.362 . S
H1296 C1302 0.930 . S
H1297 C1305 0.930 1_554 S
H1298 C1306 0.930 . S
H1299 C1307 0.930 . S
H1300 C1310 0.930 1_556 S
H1301 C1311 0.930 . S
C1302 H1296 0.930 . S
C1302 C1303 1.355 . S
C1302 C1304 1.415 1_565 S
C1303 C1302 1.355 . S
C1303 C1305 1.419 . S
C1304 C1302 1.415 1_545 S
C1304 C1309 1.425 1_546 S
C1304 C1311 1.409 . S
C1305 H1297 0.930 1_556 S
C1305 C1303 1.419 . S
C1305 C1306 1.362 1_556 S
C1306 H1298 0.930 . S
C1306 C1305 1.362 1_554 S
C1306 C1309 1.409 . S
C1307 H1299 0.930 . S
C1307 C1308 1.355 . S
C1307 C1309 1.415 1_545 S
C1308 C1307 1.355 . S
C1308 C1310 1.419 . S
C1309 C1304 1.425 1_564 S
C1309 C1306 1.409 . S
C1309 C1307 1.415 1_565 S
C1310 H1300 0.930 1_554 S
C1310 C1308 1.419 . S
C1310 C1311 1.362 1_554 S
C1311 H1301 0.930 . S
C1311 C1304 1.409 . S
C1311 C1310 1.362 1_556 S
H1312 C1318 0.930 . S
H1313 C1321 0.930 . S
H1314 C1322 0.930 . S
H1315 C1323 0.930 . S
H1316 C1326 0.930 . S
H1317 C1327 0.930 . S
C1318 H1312 0.930 . S
C1318 C1319 1.355 . S
C1318 C1320 1.415 . S
C1319 C1318 1.355 . S
C1319 C1321 1.419 . S
C1320 C1318 1.415 . S
C1320 C1325 1.425 . S
C1320 C1327 1.409 . S
C1321 H1313 0.930 . S
C1321 C1319 1.419 . S
C1321 C1322 1.362 . S
C1322 H1314 0.930 . S
C1322 C1321 1.362 . S
C1322 C1325 1.409 . S
C1323 H1315 0.930 . S
C1323 C1324 1.355 . S
C1323 C1325 1.415 . S
C1324 C1323 1.355 . S
C1324 C1326 1.419 . S
C1325 C1320 1.425 . S
C1325 C1322 1.409 . S
C1325 C1323 1.415 . S
C1326 H1316 0.930 . S
C1326 C1324 1.419 . S
C1326 C1327 1.362 . S
C1327 H1317 0.930 . S
C1327 C1320 1.409 . S
C1327 C1326 1.362 . S
H1328 C1334 0.930 . S
H1329 C1337 0.930 . S
H1330 C1338 0.930 . S
H1331 C1339 0.930 . S
H1332 C1342 0.930 . S
H1333 C1343 0.930 . S
C1334 H1328 0.930 . S
C1334 C1335 1.355 . S
C1334 C1336 1.415 1_455 S
C1335 C1334 1.355 . S
C1335 C1337 1.419 . S
C1336 C1334 1.415 1_655 S
C1336 C1341 1.425 1_656 S
C1336 C1343 1.409 . S
C1337 H1329 0.930 . S
C1337 C1335 1.419 . S
C1337 C1338 1.362 1_556 S
C1338 H1330 0.930 . S
C1338 C1337 1.362 1_554 S
C1338 C1341 1.409 . S
C1339 H1331 0.930 . S
C1339 C1340 1.355 . S
C1339 C1341 1.415 1_655 S
C1340 C1339 1.355 . S
C1340 C1342 1.419 . S
C1341 C1336 1.425 1_454 S
C1341 C1338 1.409 . S
C1341 C1339 1.415 1_455 S
C1342 H1332 0.930 . S
C1342 C1340 1.419 . S
C1342 C1343 1.362 1_554 S
C1343 H1333 0.930 . S
C1343 C1336 1.409 . S
C1343 C1342 1.362 1_556 S
H1344 C1350 0.930 . S
H1345 C1353 0.930 . S
H1346 C1354 0.930 . S
H1347 C1355 0.930 . S
H1348 C1358 0.930 . S
H1349 C1359 0.930 . S
C1350 H1344 0.930 . S
C1350 C1351 1.355 . S
C1350 C1352 1.415 1_545 S
C1351 C1350 1.355 . S
C1351 C1353 1.419 . S
C1352 C1350 1.415 1_565 S
C1352 C1357 1.425 1_565 S
C1352 C1359 1.409 . S
C1353 H1345 0.930 . S
C1353 C1351 1.419 . S
C1353 C1354 1.362 . S
C1354 H1346 0.930 . S
C1354 C1353 1.362 . S
C1354 C1357 1.409 . S
C1355 H1347 0.930 . S
C1355 C1356 1.355 . S
C1355 C1357 1.415 1_565 S
C1356 C1355 1.355 . S
C1356 C1358 1.419 . S
C1357 C1352 1.425 1_545 S
C1357 C1354 1.409 . S
C1357 C1355 1.415 1_545 S
C1358 H1348 0.930 . S
C1358 C1356 1.419 . S
C1358 C1359 1.362 . S
C1359 H1349 0.930 . S
C1359 C1352 1.409 . S
C1359 C1358 1.362 . S
H1360 C1366 0.930 . S
H1361 C1369 0.930 . S
H1362 C1370 0.930 . S
H1363 C1371 0.930 . S
H1364 C1374 0.930 . S
H1365 C1375 0.930 . S
C1366 H1360 0.930 . S
C1366 C1367 1.355 . S
C1366 C1368 1.415 . S
C1367 C1366 1.355 . S
C1367 C1369 1.419 1_554 S
C1368 C1366 1.415 . S
C1368 C1373 1.425 1_554 S
C1368 C1375 1.409 . S
C1369 H1361 0.930 . S
C1369 C1367 1.419 1_556 S
C1369 C1370 1.362 . S
C1370 H1362 0.930 . S
C1370 C1369 1.362 . S
C1370 C1373 1.409 . S
C1371 H1363 0.930 . S
C1371 C1372 1.355 . S
C1371 C1373 1.415 . S
C1372 C1371 1.355 . S
C1372 C1374 1.419 1_556 S
C1373 C1368 1.425 1_556 S
C1373 C1370 1.409 . S
C1373 C1371 1.415 . S
C1374 H1364 0.930 . S
C1374 C1372 1.419 1_554 S
C1374 C1375 1.362 . S
C1375 H1365 0.930 . S
C1375 C1368 1.409 . S
C1375 C1374 1.362 . S
H1376 C1382 0.930 . S
H1377 C1385 0.930 . S
H1378 C1386 0.930 . S
H1379 C1387 0.930 . S
H1380 C1390 0.930 . S
H1381 C1391 0.930 . S
C1382 H1376 0.930 . S
C1382 C1383 1.355 . S
C1382 C1384 1.415 1_455 S
C1383 C1382 1.355 . S
C1383 C1385 1.419 . S
C1384 C1382 1.415 1_655 S
C1384 C1389 1.425 1_655 S
C1384 C1391 1.409 . S
C1385 H1377 0.930 . S
C1385 C1383 1.419 . S
C1385 C1386 1.362 . S
C1386 H1378 0.930 . S
C1386 C1385 1.362 . S
C1386 C1389 1.409 . S
C1387 H1379 0.930 . S
C1387 C1388 1.355 . S
C1387 C1389 1.415 1_655 S
C1388 C1387 1.355 . S
C1388 C1390 1.419 . S
C1389 C1384 1.425 1_455 S
C1389 C1386 1.409 . S
C1389 C1387 1.415 1_455 S
C1390 H1380 0.930 . S
C1390 C1388 1.419 . S
C1390 C1391 1.362 . S
C1391 H1381 0.930 . S
C1391 C1384 1.409 . S
C1391 C1390 1.362 . S
H1392 C1398 0.930 . S
H1393 C1401 0.930 . S
H1394 C1402 0.930 . S
H1395 C1403 0.930 . S
H1396 C1406 0.930 . S
H1397 C1407 0.930 . S
C1398 H1392 0.930 . S
C1398 C1399 1.355 . S
C1398 C1400 1.415 . S
C1399 C1398 1.355 . S
C1399 C1401 1.419 . S
C1400 C1398 1.415 . S
C1400 C1405 1.425 . S
C1400 C1407 1.409 . S
C1401 H1393 0.930 . S
C1401 C1399 1.419 . S
C1401 C1402 1.362 . S
C1402 H1394 0.930 . S
C1402 C1401 1.362 . S
C1402 C1405 1.409 . S
C1403 H1395 0.930 . S
C1403 C1404 1.355 . S
C1403 C1405 1.415 . S
C1404 C1403 1.355 . S
C1404 C1406 1.419 . S
C1405 C1400 1.425 . S
C1405 C1402 1.409 . S
C1405 C1403 1.415 . S
C1406 H1396 0.930 . S
C1406 C1404 1.419 . S
C1406 C1407 1.362 . S
C1407 H1397 0.930 . S
C1407 C1400 1.409 . S
C1407 C1406 1.362 . S
H1408 C1414 0.930 . S
H1409 C1417 0.930 . S
H1410 C1418 0.930 . S
H1411 C1419 0.930 . S
H1412 C1422 0.930 . S
H1413 C1423 0.930 . S
C1414 H1408 0.930 . S
C1414 C1415 1.355 . S
C1414 C1416 1.415 . S
C1415 C1414 1.355 . S
C1415 C1417 1.419 . S
C1416 C1414 1.415 . S
C1416 C1421 1.425 . S
C1416 C1423 1.409 . S
C1417 H1409 0.930 . S
C1417 C1415 1.419 . S
C1417 C1418 1.362 . S
C1418 H1410 0.930 . S
C1418 C1417 1.362 . S
C1418 C1421 1.409 . S
C1419 H1411 0.930 . S
C1419 C1420 1.355 . S
C1419 C1421 1.415 . S
C1420 C1419 1.355 . S
C1420 C1422 1.419 . S
C1421 C1416 1.425 . S
C1421 C1418 1.409 . S
C1421 C1419 1.415 . S
C1422 H1412 0.930 . S
C1422 C1420 1.419 . S
C1422 C1423 1.362 . S
C1423 H1413 0.930 . S
C1423 C1416 1.409 . S
C1423 C1422 1.362 . S
H1424 C1430 0.930 . S
H1425 C1433 0.930 . S
H1426 C1434 0.930 . S
H1427 C1435 0.930 . S
H1428 C1438 0.930 . S
H1429 C1439 0.930 . S
C1430 H1424 0.930 . S
C1430 C1431 1.355 . S
C1430 C1432 1.415 . S
C1431 C1430 1.355 . S
C1431 C1433 1.419 . S
C1432 C1430 1.415 . S
C1432 C1437 1.425 . S
C1432 C1439 1.409 . S
C1433 H1425 0.930 . S
C1433 C1431 1.419 . S
C1433 C1434 1.362 . S
C1434 H1426 0.930 . S
C1434 C1433 1.362 . S
C1434 C1437 1.409 . S
C1435 H1427 0.930 . S
C1435 C1436 1.355 . S
C1435 C1437 1.415 . S
C1436 C1435 1.355 . S
C1436 C1438 1.419 . S
C1437 C1432 1.425 . S
C1437 C1434 1.409 . S
C1437 C1435 1.415 . S
C1438 H1428 0.930 . S
C1438 C1436 1.419 . S
C1438 C1439 1.362 . S
C1439 H1429 0.930 . S
C1439 C1432 1.409 . S
C1439 C1438 1.362 . S
H1440 C1446 0.930 . S
H1441 C1449 0.930 . S
H1442 C1450 0.930 . S
H1443 C1451 0.930 . S
H1444 C1454 0.930 . S
H1445 C1455 0.930 . S
C1446 H1440 0.930 . S
C1446 C1447 1.355 . S
C1446 C1448 1.415 . S
C1447 C1446 1.355 . S
C1447 C1449 1.419 . S
C1448 C1446 1.415 . S
C1448 C1453 1.425 . S
C1448 C1455 1.409 . S
C1449 H1441 0.930 . S
C1449 C1447 1.419 . S
C1449 C1450 1.362 . S
C1450 H1442 0.930 . S
C1450 C1449 1.362 . S
C1450 C1453 1.409 . S
C1451 H1443 0.930 . S
C1451 C1452 1.355 . S
C1451 C1453 1.415 . S
C1452 C1451 1.355 . S
C1452 C1454 1.419 . S
C1453 C1448 1.425 . S
C1453 C1450 1.409 . S
C1453 C1451 1.415 . S
C1454 H1444 0.930 . S
C1454 C1452 1.419 . S
C1454 C1455 1.362 . S
C1455 H1445 0.930 . S
C1455 C1448 1.409 . S
C1455 C1454 1.362 . S
H1456 C1462 0.930 . S
H1457 C1465 0.930 . S
H1458 C1466 0.930 . S
H1459 C1467 0.930 . S
H1460 C1470 0.930 . S
H1461 C1471 0.930 . S
C1462 H1456 0.930 . S
C1462 C1463 1.355 . S
C1462 C1464 1.415 . S
C1463 C1462 1.355 . S
C1463 C1465 1.419 . S
C1464 C1462 1.415 . S
C1464 C1469 1.425 . S
C1464 C1471 1.409 . S
C1465 H1457 0.930 . S
C1465 C1463 1.419 . S
C1465 C1466 1.362 . S
C1466 H1458 0.930 . S
C1466 C1465 1.362 . S
C1466 C1469 1.409 . S
C1467 H1459 0.930 . S
C1467 C1468 1.355 . S
C1467 C1469 1.415 . S
C1468 C1467 1.355 . S
C1468 C1470 1.419 . S
C1469 C1464 1.425 . S
C1469 C1466 1.409 . S
C1469 C1467 1.415 . S
C1470 H1460 0.930 . S
C1470 C1468 1.419 . S
C1470 C1471 1.362 . S
C1471 H1461 0.930 . S
C1471 C1464 1.409 . S
C1471 C1470 1.362 . S
H1472 C1478 0.930 . S
H1473 C1481 0.930 . S
H1474 C1482 0.930 . S
H1475 C1483 0.930 . S
H1476 C1486 0.930 . S
H1477 C1487 0.930 . S
C1478 H1472 0.930 . S
C1478 C1479 1.355 . S
C1478 C1480 1.415 . S
C1479 C1478 1.355 . S
C1479 C1481 1.419 . S
C1480 C1478 1.415 . S
C1480 C1485 1.425 . S
C1480 C1487 1.409 . S
C1481 H1473 0.930 . S
C1481 C1479 1.419 . S
C1481 C1482 1.362 . S
C1482 H1474 0.930 . S
C1482 C1481 1.362 . S
C1482 C1485 1.409 . S
C1483 H1475 0.930 . S
C1483 C1484 1.355 . S
C1483 C1485 1.415 . S
C1484 C1483 1.355 . S
C1484 C1486 1.419 . S
C1485 C1480 1.425 . S
C1485 C1482 1.409 . S
C1485 C1483 1.415 . S
C1486 H1476 0.930 . S
C1486 C1484 1.419 . S
C1486 C1487 1.362 . S
C1487 H1477 0.930 . S
C1487 C1480 1.409 . S
C1487 C1486 1.362 . S
H1488 C1494 0.930 . S
H1489 C1497 0.930 . S
H1490 C1498 0.930 . S
H1491 C1499 0.930 . S
H1492 C1502 0.930 . S
H1493 C1503 0.930 . S
C1494 H1488 0.930 . S
C1494 C1495 1.355 . S
C1494 C1496 1.415 . S
C1495 C1494 1.355 . S
C1495 C1497 1.419 . S
C1496 C1494 1.415 . S
C1496 C1501 1.425 . S
C1496 C1503 1.409 . S
C1497 H1489 0.930 . S
C1497 C1495 1.419 . S
C1497 C1498 1.362 . S
C1498 H1490 0.930 . S
C1498 C1497 1.362 . S
C1498 C1501 1.409 . S
C1499 H1491 0.930 . S
C1499 C1500 1.355 . S
C1499 C1501 1.415 . S
C1500 C1499 1.355 . S
C1500 C1502 1.419 . S
C1501 C1496 1.425 . S
C1501 C1498 1.409 . S
C1501 C1499 1.415 . S
C1502 H1492 0.930 . S
C1502 C1500 1.419 . S
C1502 C1503 1.362 . S
C1503 H1493 0.930 . S
C1503 C1496 1.409 . S
C1503 C1502 1.362 . S
H1504 C1510 0.930 . S
H1505 C1513 0.930 . S
H1506 C1514 0.930 . S
H1507 C1515 0.930 . S
H1508 C1518 0.930 . S
H1509 C1519 0.930 . S
C1510 H1504 0.930 . S
C1510 C1511 1.355 . S
C1510 C1512 1.415 . S
C1511 C1510 1.355 . S
C1511 C1513 1.419 . S
C1512 C1510 1.415 . S
C1512 C1517 1.425 . S
C1512 C1519 1.409 . S
C1513 H1505 0.930 . S
C1513 C1511 1.419 . S
C1513 C1514 1.362 . S
C1514 H1506 0.930 . S
C1514 C1513 1.362 . S
C1514 C1517 1.409 . S
C1515 H1507 0.930 . S
C1515 C1516 1.355 . S
C1515 C1517 1.415 . S
C1516 C1515 1.355 . S
C1516 C1518 1.419 . S
C1517 C1512 1.425 . S
C1517 C1514 1.409 . S
C1517 C1515 1.415 . S
C1518 H1508 0.930 . S
C1518 C1516 1.419 . S
C1518 C1519 1.362 . S
C1519 H1509 0.930 . S
C1519 C1512 1.409 . S
C1519 C1518 1.362 . S
H1520 C1526 0.930 . S
H1521 C1529 0.930 . S
H1522 C1530 0.930 . S
H1523 C1531 0.930 . S
H1524 C1534 0.930 . S
H1525 C1535 0.930 . S
C1526 H1520 0.930 . S
C1526 C1527 1.355 . S
C1526 C1528 1.415 . S
C1527 C1526 1.355 . S
C1527 C1529 1.419 . S
C1528 C1526 1.415 . S
C1528 C1533 1.425 . S
C1528 C1535 1.409 . S
C1529 H1521 0.930 . S
C1529 C1527 1.419 . S
C1529 C1530 1.362 . S
C1530 H1522 0.930 . S
C1530 C1529 1.362 . S
C1530 C1533 1.409 . S
C1531 H1523 0.930 . S
C1531 C1532 1.355 . S
C1531 C1533 1.415 . S
C1532 C1531 1.355 . S
C1532 C1534 1.419 . S
C1533 C1528 1.425 . S
C1533 C1530 1.409 . S
C1533 C1531 1.415 . S
C1534 H1524 0.930 . S
C1534 C1532 1.419 . S
C1534 C1535 1.362 . S
C1535 H1525 0.930 . S
C1535 C1528 1.409 . S
C1535 C1534 1.362 . S
H1536 C1542 0.930 . S
H1537 C1545 0.930 . S
H1538 C1546 0.930 . S
H1539 C1547 0.930 . S
H1540 C1550 0.930 . S
H1541 C1551 0.930 . S
C1542 H1536 0.930 . S
C1542 C1543 1.355 . S
C1542 C1544 1.415 . S
C1543 C1542 1.355 . S
C1543 C1545 1.419 . S
C1544 C1542 1.415 . S
C1544 C1549 1.425 . S
C1544 C1551 1.409 . S
C1545 H1537 0.930 . S
C1545 C1543 1.419 . S
C1545 C1546 1.362 . S
C1546 H1538 0.930 . S
C1546 C1545 1.362 . S
C1546 C1549 1.409 . S
C1547 H1539 0.930 . S
C1547 C1548 1.355 . S
C1547 C1549 1.415 . S
C1548 C1547 1.355 . S
C1548 C1550 1.419 . S
C1549 C1544 1.425 . S
C1549 C1546 1.409 . S
C1549 C1547 1.415 . S
C1550 H1540 0.930 . S
C1550 C1548 1.419 . S
C1550 C1551 1.362 . S
C1551 H1541 0.930 . S
C1551 C1544 1.409 . S
C1551 C1550 1.362 . S
H1552 C1558 0.930 . S
H1553 C1561 0.930 . S
H1554 C1562 0.930 . S
H1555 C1563 0.930 . S
H1556 C1566 0.930 . S
H1557 C1567 0.930 . S
C1558 H1552 0.930 . S
C1558 C1559 1.355 . S
C1558 C1560 1.415 . S
C1559 C1558 1.355 . S
C1559 C1561 1.419 . S
C1560 C1558 1.415 . S
C1560 C1565 1.425 . S
C1560 C1567 1.409 . S
C1561 H1553 0.930 . S
C1561 C1559 1.419 . S
C1561 C1562 1.362 . S
C1562 H1554 0.930 . S
C1562 C1561 1.362 . S
C1562 C1565 1.409 . S
C1563 H1555 0.930 . S
C1563 C1564 1.355 . S
C1563 C1565 1.415 . S
C1564 C1563 1.355 . S
C1564 C1566 1.419 . S
C1565 C1560 1.425 . S
C1565 C1562 1.409 . S
C1565 C1563 1.415 . S
C1566 H1556 0.930 . S
C1566 C1564 1.419 . S
C1566 C1567 1.362 . S
C1567 H1557 0.930 . S
C1567 C1560 1.409 . S
C1567 C1566 1.362 . S
H1568 C1574 0.930 . S
H1569 C1577 0.930 . S
H1570 C1578 0.930 . S
H1571 C1579 0.930 . S
H1572 C1582 0.930 . S
H1573 C1583 0.930 . S
C1574 H1568 0.930 . S
C1574 C1575 1.355 . S
C1574 C1576 1.415 . S
C1575 C1574 1.355 . S
C1575 C1577 1.419 . S
C1576 C1574 1.415 . S
C1576 C1581 1.425 . S
C1576 C1583 1.409 . S
C1577 H1569 0.930 . S
C1577 C1575 1.419 . S
C1577 C1578 1.362 . S
C1578 H1570 0.930 . S
C1578 C1577 1.362 . S
C1578 C1581 1.409 . S
C1579 H1571 0.930 . S
C1579 C1580 1.355 . S
C1579 C1581 1.415 . S
C1580 C1579 1.355 . S
C1580 C1582 1.419 . S
C1581 C1576 1.425 . S
C1581 C1578 1.409 . S
C1581 C1579 1.415 . S
C1582 H1572 0.930 . S
C1582 C1580 1.419 . S
C1582 C1583 1.362 . S
C1583 H1573 0.930 . S
C1583 C1576 1.409 . S
C1583 C1582 1.362 . S
C1015 C231 1.226 . S
C1020 C56 1.357 . S
C1031 C324 1.169 . S
C1036 C151 1.348 . S
C1047 C224 1.362 . S
C1052 C399 1.211 . S
C1063 C319 1.304 . S
C1068 C492 1.215 . S
C1079 C63 1.228 . S
C1084 C392 1.297 . S
C1095 C156 1.294 . S
C1100 C487 1.285 . S
C1111 C912 1.222 . S
C1116 C571 1.359 . S
C1127 C644 1.358 . S
C1132 C987 1.224 . S
C1143 C739 1.305 . S
C1148 C576 1.298 . S
C1159 C812 1.290 . S
C1164 C651 1.244 . S
C1175 C907 1.307 . S
C1180 C744 1.210 . S
C1191 C819 1.229 . S
C1196 C980 1.356 . S
C1207 C327 1.943 . S
C1212 C66 1.878 . S
C1223 C159 1.929 . S
C1228 C402 1.893 . S
C1239 C234 1.903 . S
C1244 C495 1.919 . S
C1255 C579 1.896 . S
C1260 C822 1.926 . S
C1271 C654 1.898 . S
C1276 C915 1.923 . S
C1287 C747 1.943 . S
C1292 C990 1.878 . S
C1303 C663 2.181 . S
C1308 C75 2.166 . S
C1319 C150 2.178 . S
C1324 C738 2.129 . S
C1335 C831 2.183 . S
C1340 C243 2.160 . S
C1351 C318 2.167 . S
C1356 C906 2.180 . S
C1367 C411 2.159 . S
C1372 C999 2.184 . S
C1383 C570 2.185 . S
C1388 C486 2.144 . S
C1399 C240 1.378 . S
C1404 C67 1.384 . S
C1415 C140 1.386 . S
C1420 C315 1.258 . S
C1431 C235 1.429 . S
C1436 C408 1.253 . S
C1447 C308 1.349 . S
C1452 C483 1.341 . S
C1463 C72 1.303 . S
C1468 C403 1.354 . S
C1479 C147 1.367 . S
C1484 C476 1.412 . S
C1495 C903 1.375 . S
C1500 C560 1.399 . S
C1511 C655 1.351 . S
C1516 C996 1.312 . S
C1527 C728 1.352 . S
C1532 C567 1.355 . S
C1543 C660 1.312 . S
C1548 C823 1.351 . S
C1559 C896 1.446 . S
C1564 C735 1.294 . S
C1575 C991 1.445 . S
C1580 C828 1.306 . S
