# Generated by pormake.
# Topology mer, (4)-cn, num edge types: 1
# Building blocks:
#     Node 0, Type 0, BuildingBlock: UXUYUI_clean_sbu_0, # of connection points: 4
#     Node 1, Type 0, BuildingBlock: UXUYUI_clean_sbu_0, # of connection points: 4
#     Node 2, Type 0, BuildingBlock: UXUYUI_clean_sbu_0, # of connection points: 4
#     Node 3, Type 0, BuildingBlock: UXUYUI_clean_sbu_0, # of connection points: 4
#     Node 4, Type 0, BuildingBlock: UXUYUI_clean_sbu_0, # of connection points: 4
#     Node 5, Type 0, BuildingBlock: UXUYUI_clean_sbu_0, # of connection points: 4
#     Node 6, Type 0, BuildingBlock: UXUYUI_clean_sbu_0, # of connection points: 4
#     Node 7, Type 0, BuildingBlock: UXUYUI_clean_sbu_0, # of connection points: 4
#     Node 8, Type 0, BuildingBlock: UXUYUI_clean_sbu_0, # of connection points: 4
#     Node 9, Type 0, BuildingBlock: UXUYUI_clean_sbu_0, # of connection points: 4
#     Node 10, Type 0, BuildingBlock: UXUYUI_clean_sbu_0, # of connection points: 4
#     Node 11, Type 0, BuildingBlock: UXUYUI_clean_sbu_0, # of connection points: 4
#     Node 12, Type 0, BuildingBlock: UXUYUI_clean_sbu_0, # of connection points: 4
#     Node 13, Type 0, BuildingBlock: UXUYUI_clean_sbu_0, # of connection points: 4
#     Node 14, Type 0, BuildingBlock: UXUYUI_clean_sbu_0, # of connection points: 4
#     Node 15, Type 0, BuildingBlock: UXUYUI_clean_sbu_0, # of connection points: 4
#     Node 16, Type 0, BuildingBlock: UXUYUI_clean_sbu_0, # of connection points: 4
#     Node 17, Type 0, BuildingBlock: UXUYUI_clean_sbu_0, # of connection points: 4
#     Node 18, Type 0, BuildingBlock: UXUYUI_clean_sbu_0, # of connection points: 4
#     Node 19, Type 0, BuildingBlock: UXUYUI_clean_sbu_0, # of connection points: 4
#     Node 20, Type 0, BuildingBlock: UXUYUI_clean_sbu_0, # of connection points: 4
#     Node 21, Type 0, BuildingBlock: UXUYUI_clean_sbu_0, # of connection points: 4
#     Node 22, Type 0, BuildingBlock: UXUYUI_clean_sbu_0, # of connection points: 4
#     Node 23, Type 0, BuildingBlock: UXUYUI_clean_sbu_0, # of connection points: 4
#     Node 24, Type 0, BuildingBlock: UXUYUI_clean_sbu_0, # of connection points: 4
#     Node 25, Type 0, BuildingBlock: UXUYUI_clean_sbu_0, # of connection points: 4
#     Node 26, Type 0, BuildingBlock: UXUYUI_clean_sbu_0, # of connection points: 4
#     Node 27, Type 0, BuildingBlock: UXUYUI_clean_sbu_0, # of connection points: 4
#     Node 28, Type 0, BuildingBlock: UXUYUI_clean_sbu_0, # of connection points: 4
#     Node 29, Type 0, BuildingBlock: UXUYUI_clean_sbu_0, # of connection points: 4
#     Node 30, Type 0, BuildingBlock: UXUYUI_clean_sbu_0, # of connection points: 4
#     Node 31, Type 0, BuildingBlock: UXUYUI_clean_sbu_0, # of connection points: 4
#     Edge 32, Type (0, 0), BuildingBlock: UVAHIK_clean_linker_0, # of connection points: 2
#     Edge 33, Type (0, 0), BuildingBlock: UVAHIK_clean_linker_0, # of connection points: 2
#     Edge 34, Type (0, 0), BuildingBlock: UVAHIK_clean_linker_0, # of connection points: 2
#     Edge 35, Type (0, 0), BuildingBlock: UVAHIK_clean_linker_0, # of connection points: 2
#     Edge 36, Type (0, 0), BuildingBlock: UVAHIK_clean_linker_0, # of connection points: 2
#     Edge 37, Type (0, 0), BuildingBlock: UVAHIK_clean_linker_0, # of connection points: 2
#     Edge 38, Type (0, 0), BuildingBlock: UVAHIK_clean_linker_0, # of connection points: 2
#     Edge 39, Type (0, 0), BuildingBlock: UVAHIK_clean_linker_0, # of connection points: 2
#     Edge 40, Type (0, 0), BuildingBlock: UVAHIK_clean_linker_0, # of connection points: 2
#     Edge 41, Type (0, 0), BuildingBlock: UVAHIK_clean_linker_0, # of connection points: 2
#     Edge 42, Type (0, 0), BuildingBlock: UVAHIK_clean_linker_0, # of connection points: 2
#     Edge 43, Type (0, 0), BuildingBlock: UVAHIK_clean_linker_0, # of connection points: 2
#     Edge 44, Type (0, 0), BuildingBlock: UVAHIK_clean_linker_0, # of connection points: 2
#     Edge 45, Type (0, 0), BuildingBlock: UVAHIK_clean_linker_0, # of connection points: 2
#     Edge 46, Type (0, 0), BuildingBlock: UVAHIK_clean_linker_0, # of connection points: 2
#     Edge 47, Type (0, 0), BuildingBlock: UVAHIK_clean_linker_0, # of connection points: 2
#     Edge 48, Type (0, 0), BuildingBlock: UVAHIK_clean_linker_0, # of connection points: 2
#     Edge 49, Type (0, 0), BuildingBlock: UVAHIK_clean_linker_0, # of connection points: 2
#     Edge 50, Type (0, 0), BuildingBlock: UVAHIK_clean_linker_0, # of connection points: 2
#     Edge 51, Type (0, 0), BuildingBlock: UVAHIK_clean_linker_0, # of connection points: 2
#     Edge 52, Type (0, 0), BuildingBlock: UVAHIK_clean_linker_0, # of connection points: 2
#     Edge 53, Type (0, 0), BuildingBlock: UVAHIK_clean_linker_0, # of connection points: 2
#     Edge 54, Type (0, 0), BuildingBlock: UVAHIK_clean_linker_0, # of connection points: 2
#     Edge 55, Type (0, 0), BuildingBlock: UVAHIK_clean_linker_0, # of connection points: 2
#     Edge 56, Type (0, 0), BuildingBlock: UVAHIK_clean_linker_0, # of connection points: 2
#     Edge 57, Type (0, 0), BuildingBlock: UVAHIK_clean_linker_0, # of connection points: 2
#     Edge 58, Type (0, 0), BuildingBlock: UVAHIK_clean_linker_0, # of connection points: 2
#     Edge 59, Type (0, 0), BuildingBlock: UVAHIK_clean_linker_0, # of connection points: 2
#     Edge 60, Type (0, 0), BuildingBlock: UVAHIK_clean_linker_0, # of connection points: 2
#     Edge 61, Type (0, 0), BuildingBlock: UVAHIK_clean_linker_0, # of connection points: 2
#     Edge 62, Type (0, 0), BuildingBlock: UVAHIK_clean_linker_0, # of connection points: 2
#     Edge 63, Type (0, 0), BuildingBlock: UVAHIK_clean_linker_0, # of connection points: 2
#     Edge 64, Type (0, 0), BuildingBlock: UVAHIK_clean_linker_0, # of connection points: 2
#     Edge 65, Type (0, 0), BuildingBlock: UVAHIK_clean_linker_0, # of connection points: 2
#     Edge 66, Type (0, 0), BuildingBlock: UVAHIK_clean_linker_0, # of connection points: 2
#     Edge 67, Type (0, 0), BuildingBlock: UVAHIK_clean_linker_0, # of connection points: 2
#     Edge 68, Type (0, 0), BuildingBlock: UVAHIK_clean_linker_0, # of connection points: 2
#     Edge 69, Type (0, 0), BuildingBlock: UVAHIK_clean_linker_0, # of connection points: 2
#     Edge 70, Type (0, 0), BuildingBlock: UVAHIK_clean_linker_0, # of connection points: 2
#     Edge 71, Type (0, 0), BuildingBlock: UVAHIK_clean_linker_0, # of connection points: 2
#     Edge 72, Type (0, 0), BuildingBlock: UVAHIK_clean_linker_0, # of connection points: 2
#     Edge 73, Type (0, 0), BuildingBlock: UVAHIK_clean_linker_0, # of connection points: 2
#     Edge 74, Type (0, 0), BuildingBlock: UVAHIK_clean_linker_0, # of connection points: 2
#     Edge 75, Type (0, 0), BuildingBlock: UVAHIK_clean_linker_0, # of connection points: 2
#     Edge 76, Type (0, 0), BuildingBlock: UVAHIK_clean_linker_0, # of connection points: 2
#     Edge 77, Type (0, 0), BuildingBlock: UVAHIK_clean_linker_0, # of connection points: 2
#     Edge 78, Type (0, 0), BuildingBlock: UVAHIK_clean_linker_0, # of connection points: 2
#     Edge 79, Type (0, 0), BuildingBlock: UVAHIK_clean_linker_0, # of connection points: 2
#     Edge 80, Type (0, 0), BuildingBlock: UVAHIK_clean_linker_0, # of connection points: 2
#     Edge 81, Type (0, 0), BuildingBlock: UVAHIK_clean_linker_0, # of connection points: 2
#     Edge 82, Type (0, 0), BuildingBlock: UVAHIK_clean_linker_0, # of connection points: 2
#     Edge 83, Type (0, 0), BuildingBlock: UVAHIK_clean_linker_0, # of connection points: 2
#     Edge 84, Type (0, 0), BuildingBlock: UVAHIK_clean_linker_0, # of connection points: 2
#     Edge 85, Type (0, 0), BuildingBlock: UVAHIK_clean_linker_0, # of connection points: 2
#     Edge 86, Type (0, 0), BuildingBlock: UVAHIK_clean_linker_0, # of connection points: 2
#     Edge 87, Type (0, 0), BuildingBlock: UVAHIK_clean_linker_0, # of connection points: 2
#     Edge 88, Type (0, 0), BuildingBlock: UVAHIK_clean_linker_0, # of connection points: 2
#     Edge 89, Type (0, 0), BuildingBlock: UVAHIK_clean_linker_0, # of connection points: 2
#     Edge 90, Type (0, 0), BuildingBlock: UVAHIK_clean_linker_0, # of connection points: 2
#     Edge 91, Type (0, 0), BuildingBlock: UVAHIK_clean_linker_0, # of connection points: 2
#     Edge 92, Type (0, 0), BuildingBlock: UVAHIK_clean_linker_0, # of connection points: 2
#     Edge 93, Type (0, 0), BuildingBlock: UVAHIK_clean_linker_0, # of connection points: 2
#     Edge 94, Type (0, 0), BuildingBlock: UVAHIK_clean_linker_0, # of connection points: 2
#     Edge 95, Type (0, 0), BuildingBlock: UVAHIK_clean_linker_0, # of connection points: 2
# Relax obj value: 0.250
# Max RMSD: 0.189
# Mean RMSD: 0.188
data_MOF--net-mer--node1-UXUYUI_clean_sbu_0--edge1-UVAHIK_clean_linker_0
_symmetry_space_group_name_H-M    P1
_symmetry_Int_Tables_number       1
_symmetry_cell_setting            triclinic
loop_
_symmetry_equiv_pos_as_xyz
'x, y, z'
_cell_length_a     119.19859
_cell_length_b     119.19343
_cell_length_c     76.264377
_cell_angle_alpha  89.995363
_cell_angle_beta   90.013782
_cell_angle_gamma 89.999085
loop_
_atom_site_label
_atom_site_type_symbol
_atom_site_fract_x
_atom_site_fract_y
_atom_site_fract_z
_atom_type_partial_charge
Li0 Li 0.09622 0.25768 0.34755 0.0
Li1 Li 0.10401 0.24396 0.32575 0.0
Li2 Li 0.10466 0.26389 0.32008 0.0
Li3 Li 0.08759 0.25418 0.31783 0.0
C4 C 0.12246 0.25947 0.33945 0.0
N5 N 0.14396 0.26805 0.33765 0.0
C6 C 0.13023 0.2549 0.32774 0.0
C7 C 0.12562 0.26839 0.35028 0.0
C8 C 0.14106 0.25936 0.32702 0.0
C9 C 0.13653 0.27261 0.34917 0.0
C10 C 0.08867 0.23291 0.3441 0.0
C11 C 0.08729 0.21298 0.33893 0.0
N12 N 0.08826 0.21111 0.35645 0.0
C13 C 0.08959 0.23078 0.36207 0.0
C14 C 0.08743 0.22394 0.33244 0.0
C15 C 0.08939 0.2197 0.36805 0.0
C16 C 0.0841 0.2625 0.37899 0.0
N17 N 0.09427 0.26003 0.37191 0.0
C18 C 0.10267 0.25924 0.40028 0.0
C19 C 0.10346 0.2584 0.38211 0.0
C20 C 0.09226 0.2616 0.40811 0.0
C21 C 0.0829 0.26336 0.3972 0.0
H22 H 0.0769 0.2636 0.37052 0.0
H23 H 0.11139 0.25623 0.37615 0.0
C24 C 0.11538 0.22578 0.30931 0.0
N25 N 0.11232 0.23043 0.32485 0.0
C26 C 0.12193 0.21606 0.30902 0.0
C27 C 0.12202 0.21616 0.34073 0.0
C28 C 0.11559 0.22591 0.34039 0.0
C29 C 0.12537 0.21114 0.3249 0.0
H30 H 0.11297 0.22975 0.29715 0.0
H31 H 0.11323 0.22995 0.35254 0.0
C32 C 0.09052 0.28015 0.33043 0.0
N33 N 0.09133 0.30334 0.33057 0.0
C34 C 0.08989 0.28613 0.31467 0.0
C35 C 0.09152 0.28599 0.34626 0.0
C36 C 0.09034 0.29784 0.31502 0.0
C37 C 0.09192 0.2977 0.34605 0.0
C38 C 0.09612 0.25033 0.28757 0.0
C39 C 0.09453 0.25955 0.27649 0.0
C40 C 0.09212 0.23979 0.28253 0.0
C41 C 0.08893 0.25806 0.26056 0.0
C42 C 0.08654 0.23865 0.26652 0.0
N43 N 0.08507 0.24773 0.25596 0.0
C44 C 0.11916 0.27233 0.29458 0.0
C45 C 0.11685 0.28485 0.31843 0.0
C46 C 0.12648 0.27976 0.28637 0.0
N47 N 0.11434 0.27505 0.31015 0.0
C48 C 0.12411 0.29257 0.31064 0.0
C49 C 0.12899 0.29006 0.29436 0.0
H50 H 0.1174 0.26432 0.28856 0.0
H51 H 0.11334 0.28663 0.33118 0.0
C52 C 0.06747 0.24367 0.30661 0.0
N53 N 0.07365 0.25324 0.30573 0.0
C54 C 0.05742 0.24279 0.29732 0.0
C55 C 0.06029 0.26161 0.28641 0.0
C56 C 0.07023 0.26214 0.29598 0.0
C57 C 0.0537 0.25185 0.28708 0.0
H58 H 0.07032 0.23675 0.31457 0.0
H59 H 0.07529 0.26962 0.29545 0.0
O60 O 0.11173 0.25544 0.33996 0.0
O61 O 0.089 0.24371 0.33798 0.0
O62 O 0.08995 0.26869 0.33045 0.0
O63 O 0.10138 0.25167 0.30341 0.0
H64 H 0.12788 0.24807 0.31914 0.0
H65 H 0.11966 0.27214 0.35923 0.0
H66 H 0.14714 0.25595 0.31795 0.0
H67 H 0.13908 0.27955 0.35739 0.0
H68 H 0.08643 0.20597 0.33003 0.0
H69 H 0.09051 0.23758 0.37132 0.0
H70 H 0.08678 0.22541 0.31849 0.0
H71 H 0.09014 0.21794 0.38191 0.0
H72 H 0.11014 0.25799 0.4081 0.0
H73 H 0.0747 0.26508 0.40267 0.0
H74 H 0.12451 0.21263 0.29651 0.0
H75 H 0.12436 0.21262 0.35328 0.0
H76 H 0.08935 0.28179 0.30227 0.0
H77 H 0.09203 0.28154 0.35858 0.0
H78 H 0.08996 0.30255 0.30292 0.0
H79 H 0.09272 0.30232 0.3582 0.0
H80 H 0.09741 0.26781 0.28025 0.0
H81 H 0.09319 0.23259 0.29097 0.0
H82 H 0.08759 0.26513 0.25192 0.0
H83 H 0.08334 0.23056 0.26251 0.0
H84 H 0.13006 0.2775 0.2738 0.0
H85 H 0.12603 0.30032 0.31743 0.0
H86 H 0.0525 0.23518 0.2985 0.0
H87 H 0.05781 0.26875 0.27855 0.0
Li88 Li 0.75326 0.10782 0.32105 0.0
Li89 Li 0.74062 0.10191 0.34456 0.0
Li90 Li 0.74233 0.0912 0.31743 0.0
Li91 Li 0.73296 0.10925 0.31778 0.0
C92 C 0.75822 0.08358 0.33727 0.0
N93 N 0.7657 0.06173 0.34019 0.0
C94 C 0.75428 0.07673 0.35081 0.0
C95 C 0.76602 0.07935 0.32529 0.0
C96 C 0.75816 0.0657 0.35205 0.0
C97 C 0.76968 0.06827 0.32696 0.0
C98 C 0.74341 0.12369 0.34919 0.0
C99 C 0.73499 0.13219 0.3747 0.0
N100 N 0.74522 0.13612 0.37965 0.0
C101 C 0.75384 0.12785 0.35449 0.0
C102 C 0.7339 0.12592 0.35932 0.0
C103 C 0.75458 0.13411 0.36994 0.0
C104 C 0.76662 0.12531 0.30824 0.0
N105 N 0.76701 0.11517 0.31635 0.0
C106 C 0.78691 0.11643 0.31933 0.0
C107 C 0.77686 0.11063 0.32187 0.0
C108 C 0.78675 0.12689 0.31087 0.0
C109 C 0.77647 0.13128 0.30512 0.0
H110 H 0.75863 0.12884 0.30448 0.0
H111 H 0.77688 0.10264 0.32858 0.0
C112 C 0.72956 0.09665 0.37652 0.0
N113 N 0.73914 0.10075 0.36929 0.0
C114 C 0.72857 0.09571 0.39471 0.0
C115 C 0.74734 0.10317 0.39761 0.0
C116 C 0.74801 0.10383 0.37939 0.0
C117 C 0.73752 0.09904 0.40555 0.0
H118 H 0.72275 0.09398 0.36816 0.0
H119 H 0.7556 0.10685 0.37324 0.0
C120 C 0.74991 0.10766 0.28683 0.0
N121 N 0.76246 0.11667 0.25982 0.0
C122 C 0.7462 0.11728 0.2781 0.0
C123 C 0.75998 0.1026 0.28178 0.0
C124 C 0.75267 0.12171 0.26448 0.0
C125 C 0.76622 0.1073 0.26812 0.0
C126 C 0.71734 0.09525 0.32712 0.0
C127 C 0.7131 0.08882 0.31329 0.0
C128 C 0.71007 0.10193 0.337 0.0
C129 C 0.70163 0.08921 0.30955 0.0
C130 C 0.69866 0.10211 0.33281 0.0
N131 N 0.69471 0.0958 0.31929 0.0
C132 C 0.73606 0.06879 0.31789 0.0
C133 C 0.74539 0.07413 0.29171 0.0
C134 C 0.73431 0.05802 0.31138 0.0
N135 N 0.74145 0.07658 0.308 0.0
C136 C 0.7439 0.06341 0.28472 0.0
C137 C 0.73817 0.05526 0.29453 0.0
H138 H 0.73295 0.07104 0.33074 0.0
H139 H 0.74948 0.08054 0.28404 0.0
C140 C 0.71736 0.12713 0.31469 0.0
N141 N 0.72117 0.11748 0.30732 0.0
C142 C 0.70874 0.13316 0.30667 0.0
C143 C 0.70819 0.11921 0.28364 0.0
C144 C 0.7168 0.11345 0.29213 0.0
C145 C 0.70409 0.12923 0.29088 0.0
H146 H 0.72108 0.1302 0.32667 0.0
H147 H 0.72006 0.10576 0.28657 0.0
O148 O 0.75429 0.0943 0.33554 0.0
O149 O 0.74253 0.11742 0.33422 0.0
O150 O 0.74375 0.10326 0.30033 0.0
O151 O 0.72858 0.09519 0.33073 0.0
H152 H 0.7482 0.07985 0.36013 0.0
H153 H 0.76911 0.08453 0.3147 0.0
H154 H 0.75515 0.06028 0.36241 0.0
H155 H 0.77566 0.06486 0.31772 0.0
H156 H 0.72771 0.1339 0.38273 0.0
H157 H 0.7613 0.1262 0.34686 0.0
H158 H 0.72578 0.1227 0.35549 0.0
H159 H 0.76261 0.13734 0.37423 0.0
H160 H 0.79471 0.11285 0.32403 0.0
H161 H 0.77601 0.13942 0.29886 0.0
H162 H 0.72093 0.09225 0.40017 0.0
H163 H 0.75441 0.10597 0.40536 0.0
H164 H 0.73848 0.12138 0.2819 0.0
H165 H 0.76305 0.09523 0.28852 0.0
H166 H 0.74992 0.12918 0.25765 0.0
H167 H 0.77407 0.10351 0.26416 0.0
H168 H 0.71862 0.0837 0.30537 0.0
H169 H 0.71322 0.10703 0.34764 0.0
H170 H 0.69824 0.08432 0.29884 0.0
H171 H 0.69294 0.10729 0.34028 0.0
H172 H 0.72999 0.05192 0.31944 0.0
H173 H 0.74694 0.06159 0.27164 0.0
H174 H 0.70591 0.14094 0.31254 0.0
H175 H 0.70477 0.11585 0.27158 0.0
Li176 Li 0.89125 0.75151 0.32511 0.0
Li177 Li 0.89808 0.73773 0.34621 0.0
Li178 Li 0.90801 0.74125 0.31873 0.0
Li179 Li 0.89028 0.7314 0.31905 0.0
C180 C 0.90604 0.76245 0.3443 0.0
N181 N 0.90596 0.78438 0.35606 0.0
C182 C 0.90382 0.76481 0.36192 0.0
C183 C 0.90828 0.77124 0.33269 0.0
C184 C 0.90382 0.77595 0.3676 0.0
C185 C 0.90817 0.78227 0.33887 0.0
C186 C 0.87202 0.73589 0.33592 0.0
C187 C 0.85844 0.72105 0.33942 0.0
N188 N 0.85082 0.72721 0.33027 0.0
C189 C 0.86405 0.74208 0.32656 0.0
C190 C 0.86919 0.7253 0.34245 0.0
C191 C 0.85338 0.73755 0.32386 0.0
C192 C 0.8816 0.77019 0.30742 0.0
N193 N 0.88342 0.7653 0.32325 0.0
C194 C 0.87323 0.77978 0.33783 0.0
C195 C 0.87932 0.76981 0.33829 0.0
C196 C 0.87111 0.78504 0.32166 0.0
C197 C 0.87543 0.78013 0.30631 0.0
H198 H 0.88473 0.76627 0.29563 0.0
H199 H 0.88072 0.76559 0.35065 0.0
C200 C 0.9095 0.73542 0.37888 0.0
N201 N 0.8994 0.73483 0.37065 0.0
C202 C 0.91021 0.73387 0.39702 0.0
C203 C 0.89012 0.7311 0.39776 0.0
C204 C 0.88981 0.7327 0.37967 0.0
C205 C 0.9004 0.73181 0.40671 0.0
H206 H 0.91697 0.73733 0.3714 0.0
H207 H 0.88188 0.73244 0.37287 0.0
C208 C 0.89985 0.74444 0.28724 0.0
N209 N 0.91095 0.74555 0.25549 0.0
C210 C 0.90043 0.73499 0.27642 0.0
C211 C 0.90487 0.75447 0.28188 0.0
C212 C 0.90608 0.73573 0.26041 0.0
C213 C 0.91047 0.75485 0.26579 0.0
C214 C 0.91022 0.7199 0.34105 0.0
C215 C 0.92183 0.72106 0.34287 0.0
C216 C 0.90446 0.71219 0.35154 0.0
C217 C 0.92749 0.71449 0.35519 0.0
C218 C 0.91043 0.70579 0.36373 0.0
N219 N 0.92172 0.70706 0.36529 0.0
C220 C 0.92868 0.75089 0.30796 0.0
C221 C 0.92497 0.73252 0.2975 0.0
C222 C 0.93875 0.75122 0.29866 0.0
N223 N 0.92204 0.74165 0.30714 0.0
C224 C 0.93495 0.73249 0.28799 0.0
C225 C 0.94199 0.74193 0.2885 0.0
H226 H 0.92618 0.75798 0.31584 0.0
H227 H 0.91947 0.7253 0.29711 0.0
C228 C 0.87448 0.72359 0.29491 0.0
N229 N 0.88178 0.72021 0.30753 0.0
C230 C 0.86806 0.71572 0.28586 0.0
C231 C 0.87672 0.70105 0.3031 0.0
C232 C 0.88306 0.7092 0.31171 0.0
C233 C 0.86914 0.70429 0.28995 0.0
H234 H 0.87368 0.73242 0.29188 0.0
H235 H 0.88901 0.70676 0.32168 0.0
O236 O 0.90594 0.7516 0.33844 0.0
O237 O 0.88261 0.74005 0.3383 0.0
O238 O 0.89459 0.74382 0.30316 0.0
O239 O 0.9045 0.72638 0.32925 0.0
H240 H 0.90202 0.75813 0.37109 0.0
H241 H 0.90988 0.76959 0.31898 0.0
H242 H 0.90207 0.7779 0.38118 0.0
H243 H 0.90979 0.78916 0.33 0.0
H244 H 0.85617 0.71283 0.34427 0.0
H245 H 0.86611 0.75025 0.32129 0.0
H246 H 0.8753 0.72031 0.34948 0.0
H247 H 0.84715 0.74223 0.31659 0.0
H248 H 0.8702 0.7833 0.35002 0.0
H249 H 0.87382 0.78374 0.29353 0.0
H250 H 0.91828 0.73462 0.40343 0.0
H251 H 0.88237 0.72941 0.40467 0.0
H252 H 0.89671 0.72712 0.28044 0.0
H253 H 0.9046 0.76183 0.29015 0.0
H254 H 0.90665 0.72846 0.25195 0.0
H255 H 0.91446 0.76253 0.26154 0.0
H256 H 0.92642 0.72705 0.335 0.0
H257 H 0.89545 0.71131 0.35051 0.0
H258 H 0.93647 0.71532 0.35678 0.0
H259 H 0.90606 0.69986 0.37202 0.0
H260 H 0.94404 0.75857 0.29969 0.0
H261 H 0.9371 0.72518 0.28024 0.0
H262 H 0.86222 0.71856 0.27592 0.0
H263 H 0.87785 0.69229 0.3065 0.0
Li264 Li 0.25674 0.89845 0.34488 0.0
Li265 Li 0.24383 0.89072 0.32317 0.0
Li266 Li 0.26464 0.8892 0.31856 0.0
Li267 Li 0.25463 0.90678 0.31466 0.0
C268 C 0.25858 0.87459 0.34908 0.0
N269 N 0.26546 0.85831 0.37258 0.0
C270 C 0.25068 0.86782 0.35755 0.0
C271 C 0.27 0.87289 0.35231 0.0
C272 C 0.25432 0.8597 0.36947 0.0
C273 C 0.27331 0.86467 0.36429 0.0
C274 C 0.23241 0.90764 0.33758 0.0
C275 C 0.21345 0.91093 0.3278 0.0
N276 N 0.20987 0.91061 0.34473 0.0
C277 C 0.22857 0.90748 0.35489 0.0
C278 C 0.22481 0.90951 0.32393 0.0
C279 C 0.21714 0.90895 0.35823 0.0
C280 C 0.2648 0.90955 0.37573 0.0
N281 N 0.25833 0.90109 0.36935 0.0
C282 C 0.25276 0.89588 0.39829 0.0
C283 C 0.25231 0.89436 0.38021 0.0
C284 C 0.25942 0.90449 0.40534 0.0
C285 C 0.26554 0.91136 0.39382 0.0
H286 H 0.26931 0.91496 0.36677 0.0
H287 H 0.24694 0.88794 0.37478 0.0
C288 C 0.22584 0.87952 0.30589 0.0
N289 N 0.22998 0.88305 0.32155 0.0
C290 C 0.21583 0.87342 0.30526 0.0
C291 C 0.21453 0.87491 0.33682 0.0
C292 C 0.22454 0.88092 0.33684 0.0
C293 C 0.21012 0.87093 0.32091 0.0
H294 H 0.23041 0.88124 0.29395 0.0
H295 H 0.22807 0.88379 0.34909 0.0
C296 C 0.27962 0.90594 0.33227 0.0
N297 N 0.30199 0.90973 0.3398 0.0
C298 C 0.28593 0.91328 0.32192 0.0
C299 C 0.28465 0.90071 0.34666 0.0
C300 C 0.29724 0.91503 0.32587 0.0
C301 C 0.29598 0.90268 0.35021 0.0
C302 C 0.25216 0.8959 0.28417 0.0
C303 C 0.2615 0.89446 0.27332 0.0
C304 C 0.24242 0.90077 0.27739 0.0
C305 C 0.261 0.89812 0.25593 0.0
C306 C 0.24225 0.90434 0.25995 0.0
N307 N 0.25147 0.90296 0.24967 0.0
C308 C 0.27431 0.86875 0.30874 0.0
C309 C 0.28582 0.88454 0.30297 0.0
C310 C 0.28223 0.86161 0.30119 0.0
N311 N 0.27625 0.87997 0.30951 0.0
C312 C 0.29396 0.87772 0.29531 0.0
C313 C 0.29217 0.8661 0.29423 0.0
H314 H 0.26654 0.86537 0.3138 0.0
H315 H 0.28698 0.89351 0.30314 0.0
C316 C 0.24712 0.92837 0.30496 0.0
N317 N 0.25479 0.92024 0.30148 0.0
C318 C 0.24756 0.93858 0.29606 0.0
C319 C 0.26364 0.93176 0.27992 0.0
C320 C 0.26289 0.92169 0.28916 0.0
C321 C 0.25601 0.94044 0.28353 0.0
H322 H 0.24087 0.92705 0.315 0.0
H323 H 0.26894 0.91511 0.28677 0.0
O324 O 0.25513 0.88256 0.33731 0.0
O325 O 0.24356 0.90604 0.33403 0.0
O326 O 0.26851 0.90417 0.32857 0.0
O327 O 0.25254 0.89247 0.30129 0.0
H328 H 0.24181 0.86886 0.35504 0.0
H329 H 0.27626 0.87773 0.34544 0.0
H330 H 0.24828 0.85448 0.37622 0.0
H331 H 0.28212 0.8633 0.36691 0.0
H332 H 0.20747 0.9123 0.31735 0.0
H333 H 0.23433 0.9062 0.36564 0.0
H334 H 0.22765 0.90981 0.3105 0.0
H335 H 0.21405 0.90876 0.37156 0.0
H336 H 0.24797 0.89034 0.40668 0.0
H337 H 0.27067 0.91819 0.3987 0.0
H338 H 0.21279 0.8704 0.29274 0.0
H339 H 0.21033 0.87332 0.34917 0.0
H340 H 0.28216 0.91755 0.31089 0.0
H341 H 0.27984 0.89533 0.35521 0.0
H342 H 0.30223 0.92062 0.31788 0.0
H343 H 0.29996 0.89866 0.36129 0.0
H344 H 0.26908 0.89063 0.27827 0.0
H345 H 0.23507 0.90181 0.2855 0.0
H346 H 0.26819 0.89713 0.24742 0.0
H347 H 0.23479 0.90819 0.25457 0.0
H348 H 0.28055 0.85268 0.30073 0.0
H349 H 0.3014 0.88155 0.28979 0.0
H350 H 0.24165 0.94512 0.29951 0.0
H351 H 0.27024 0.93281 0.2703 0.0
Li352 Li 0.0922 0.74297 0.68035 0.0
Li353 Li 0.11041 0.73391 0.67893 0.0
Li354 Li 0.10843 0.75415 0.67513 0.0
Li355 Li 0.10201 0.74106 0.65241 0.0
C356 C 0.10948 0.75112 0.7095 0.0
N357 N 0.11919 0.764 0.73552 0.0
C358 C 0.11943 0.74761 0.71751 0.0
C359 C 0.10444 0.76116 0.71479 0.0
C360 C 0.1242 0.75424 0.73064 0.0
C361 C 0.1095 0.76756 0.72794 0.0
C362 C 0.0964 0.71789 0.67075 0.0
C363 C 0.10317 0.69931 0.66407 0.0
N364 N 0.09749 0.69523 0.67816 0.0
C365 C 0.0906 0.71351 0.68513 0.0
C366 C 0.10271 0.71074 0.66008 0.0
C367 C 0.09127 0.70203 0.68866 0.0
C368 C 0.07002 0.73616 0.68164 0.0
N369 N 0.07789 0.74192 0.69084 0.0
C370 C 0.06512 0.74475 0.71456 0.0
C371 C 0.07569 0.74621 0.70699 0.0
C372 C 0.05688 0.73868 0.70544 0.0
C373 C 0.05941 0.73443 0.68873 0.0
H374 H 0.07206 0.73281 0.66886 0.0
H375 H 0.08217 0.75062 0.71409 0.0
C376 C 0.12916 0.71941 0.6813 0.0
N377 N 0.11933 0.72246 0.68895 0.0
C378 C 0.13592 0.71127 0.6891 0.0
C379 C 0.12228 0.70954 0.71242 0.0
C380 C 0.1158 0.71773 0.70419 0.0
C381 C 0.13254 0.70629 0.70494 0.0
H382 H 0.13181 0.7234 0.66929 0.0
H383 H 0.10802 0.72048 0.71009 0.0
C384 C 0.08362 0.75845 0.66071 0.0
N385 N 0.06154 0.76547 0.6596 0.0
C386 C 0.07638 0.7543 0.64783 0.0
C387 C 0.07966 0.76623 0.67295 0.0
C388 C 0.06524 0.75795 0.6475 0.0
C389 C 0.06846 0.76965 0.67219 0.0
C390 C 0.12395 0.74408 0.64646 0.0
C391 C 0.12823 0.7544 0.64087 0.0
C392 C 0.12604 0.73443 0.63657 0.0
C393 C 0.13447 0.75489 0.62538 0.0
C394 C 0.1323 0.73527 0.62114 0.0
N395 N 0.13635 0.7454 0.61591 0.0
C396 C 0.12602 0.76784 0.68645 0.0
C397 C 0.11069 0.77788 0.6743 0.0
C398 C 0.13176 0.7778 0.68973 0.0
N399 N 0.11565 0.76808 0.67908 0.0
C400 C 0.11624 0.78806 0.67702 0.0
C401 C 0.12688 0.78805 0.68492 0.0
H402 H 0.12986 0.75988 0.68968 0.0
H403 H 0.1025 0.77779 0.66822 0.0
C404 C 0.09422 0.72966 0.62234 0.0
N405 N 0.09996 0.73885 0.62792 0.0
C406 C 0.09243 0.7279 0.60445 0.0
C407 C 0.10252 0.74507 0.59842 0.0
C408 C 0.10388 0.74664 0.61643 0.0
C409 C 0.09673 0.73561 0.59231 0.0
H410 H 0.09096 0.72374 0.63178 0.0
H411 H 0.10806 0.75407 0.62124 0.0
O412 O 0.10474 0.74481 0.69647 0.0
O413 O 0.09606 0.72914 0.66728 0.0
O414 O 0.09446 0.75474 0.66156 0.0
O415 O 0.11777 0.74344 0.66153 0.0
H416 H 0.12349 0.73991 0.71352 0.0
H417 H 0.09682 0.76407 0.7086 0.0
H418 H 0.13193 0.75165 0.7369 0.0
H419 H 0.10574 0.77539 0.73206 0.0
H420 H 0.10806 0.69369 0.65598 0.0
H421 H 0.08577 0.71894 0.69362 0.0
H422 H 0.10726 0.714 0.64892 0.0
H423 H 0.08687 0.69853 0.69981 0.0
H424 H 0.06348 0.74811 0.7275 0.0
H425 H 0.05322 0.72986 0.68118 0.0
H426 H 0.14373 0.70893 0.68284 0.0
H427 H 0.11945 0.70604 0.72476 0.0
H428 H 0.0793 0.74824 0.6383 0.0
H429 H 0.08514 0.76948 0.68305 0.0
H430 H 0.05953 0.75476 0.63766 0.0
H431 H 0.06525 0.77561 0.68165 0.0
H432 H 0.1267 0.76196 0.64832 0.0
H433 H 0.12275 0.72639 0.64066 0.0
H434 H 0.1378 0.76282 0.62086 0.0
H435 H 0.13391 0.72788 0.61331 0.0
H436 H 0.14005 0.77747 0.69553 0.0
H437 H 0.11228 0.79584 0.67306 0.0
H438 H 0.08788 0.72053 0.60013 0.0
H439 H 0.1058 0.75127 0.58937 0.0
Li440 Li 0.2644 0.10558 0.67875 0.0
Li441 Li 0.25358 0.08856 0.68284 0.0
Li442 Li 0.25571 0.09676 0.6527 0.0
Li443 Li 0.24346 0.10514 0.67497 0.0
C444 C 0.2783 0.0885 0.66344 0.0
N445 N 0.30012 0.08441 0.65295 0.0
C446 C 0.28489 0.08068 0.67243 0.0
C447 C 0.28278 0.0941 0.64894 0.0
C448 C 0.29591 0.07877 0.66698 0.0
C449 C 0.29383 0.09195 0.64388 0.0
C450 C 0.25249 0.09908 0.71334 0.0
C451 C 0.24297 0.09065 0.73794 0.0
N452 N 0.25265 0.0911 0.74735 0.0
C453 C 0.26232 0.09954 0.7233 0.0
C454 C 0.2427 0.09469 0.72074 0.0
C455 C 0.26224 0.09544 0.74046 0.0
C456 C 0.27375 0.12546 0.6903 0.0
N457 N 0.27634 0.11454 0.68725 0.0
C458 C 0.295 0.11735 0.69779 0.0
C459 C 0.28669 0.11037 0.69089 0.0
C460 C 0.29256 0.12869 0.70111 0.0
C461 C 0.28177 0.13272 0.69722 0.0
H462 H 0.26537 0.12848 0.68753 0.0
H463 H 0.28849 0.10161 0.68874 0.0
C464 C 0.24423 0.06816 0.69503 0.0
N465 N 0.25317 0.07517 0.69621 0.0
C466 C 0.24397 0.05825 0.70477 0.0
C467 C 0.26212 0.06304 0.71684 0.0
C468 C 0.26199 0.07286 0.70691 0.0
C469 C 0.25306 0.05555 0.71572 0.0
H470 H 0.23737 0.07016 0.68632 0.0
H471 H 0.26896 0.07864 0.70767 0.0
C472 C 0.25827 0.12118 0.64964 0.0
N473 N 0.26493 0.13867 0.6282 0.0
C474 C 0.2503 0.1285 0.64252 0.0
C475 C 0.26964 0.12291 0.64609 0.0
C476 C 0.25383 0.13724 0.63163 0.0
C477 C 0.27284 0.13176 0.63517 0.0
C478 C 0.23104 0.08918 0.66017 0.0
C479 C 0.22738 0.08947 0.64276 0.0
C480 C 0.2232 0.08813 0.67369 0.0
C481 C 0.2159 0.08888 0.63918 0.0
C482 C 0.21179 0.08759 0.66958 0.0
N483 N 0.20841 0.08798 0.65256 0.0
C484 C 0.26244 0.085 0.62181 0.0
C485 C 0.25236 0.10189 0.61731 0.0
C486 C 0.2635 0.08345 0.60371 0.0
N487 N 0.25705 0.0942 0.62819 0.0
C488 C 0.25326 0.10072 0.5992 0.0
C489 C 0.25892 0.09142 0.59213 0.0
H490 H 0.26594 0.07891 0.63078 0.0
H491 H 0.24784 0.10894 0.6227 0.0
C492 C 0.22699 0.11745 0.69363 0.0
N493 N 0.23013 0.11364 0.67757 0.0
C494 C 0.21739 0.12408 0.69541 0.0
C495 C 0.21442 0.1226 0.66413 0.0
C496 C 0.22408 0.11606 0.66296 0.0
C497 C 0.21103 0.12682 0.68049 0.0
H498 H 0.23204 0.1155 0.705 0.0
H499 H 0.22683 0.11299 0.65033 0.0
O500 O 0.26747 0.09045 0.66864 0.0
O501 O 0.25245 0.10289 0.69642 0.0
O502 O 0.25492 0.11261 0.66042 0.0
O503 O 0.24224 0.08987 0.66392 0.0
H504 H 0.28154 0.07613 0.68352 0.0
H505 H 0.27774 0.09991 0.64148 0.0
H506 H 0.30111 0.07279 0.67389 0.0
H507 H 0.29739 0.09624 0.63269 0.0
H508 H 0.23548 0.08716 0.74379 0.0
H509 H 0.26997 0.10293 0.71779 0.0
H510 H 0.23501 0.09432 0.71325 0.0
H511 H 0.26981 0.09568 0.74828 0.0
H512 H 0.30322 0.1139 0.70052 0.0
H513 H 0.27944 0.14134 0.69989 0.0
H514 H 0.23692 0.05261 0.70331 0.0
H515 H 0.26925 0.0613 0.72522 0.0
H516 H 0.24148 0.12742 0.64527 0.0
H517 H 0.27598 0.11763 0.6519 0.0
H518 H 0.24774 0.1429 0.62594 0.0
H519 H 0.28161 0.13317 0.63232 0.0
H520 H 0.23333 0.09018 0.63212 0.0
H521 H 0.22588 0.08788 0.68722 0.0
H522 H 0.21295 0.08915 0.62578 0.0
H523 H 0.20562 0.08687 0.67993 0.0
H524 H 0.26778 0.07607 0.59885 0.0
H525 H 0.24969 0.10714 0.59085 0.0
H526 H 0.21517 0.12728 0.70823 0.0
H527 H 0.2097 0.12437 0.65232 0.0
Li528 Li 0.89023 0.26434 0.68091 0.0
Li529 Li 0.90766 0.25405 0.6839 0.0
Li530 Li 0.89963 0.25787 0.655 0.0
Li531 Li 0.89116 0.24424 0.67495 0.0
C532 C 0.91146 0.27584 0.66257 0.0
N533 N 0.92424 0.28949 0.64117 0.0
C534 C 0.92316 0.27499 0.66273 0.0
C535 C 0.90626 0.28366 0.65158 0.0
C536 C 0.92947 0.28197 0.65181 0.0
C537 C 0.91287 0.29047 0.64083 0.0
C538 C 0.89755 0.2512 0.71397 0.0
C539 C 0.90668 0.24074 0.73697 0.0
N540 N 0.90661 0.25006 0.74727 0.0
C541 C 0.89753 0.26067 0.72479 0.0
C542 C 0.90211 0.24114 0.72011 0.0
C543 C 0.90216 0.25992 0.74158 0.0
C544 C 0.87264 0.27224 0.70156 0.0
N545 N 0.88125 0.27564 0.69118 0.0
C546 C 0.87709 0.29487 0.69696 0.0
C547 C 0.8836 0.28668 0.68875 0.0
C548 C 0.86815 0.29161 0.70785 0.0
C549 C 0.86592 0.28012 0.71002 0.0
H550 H 0.87107 0.26338 0.70335 0.0
H551 H 0.89062 0.28913 0.68064 0.0
C552 C 0.92755 0.24399 0.69696 0.0
N553 N 0.92098 0.25329 0.69734 0.0
C554 C 0.93736 0.24356 0.70692 0.0
C555 C 0.93336 0.26226 0.71753 0.0
C556 C 0.92364 0.26232 0.70739 0.0
C557 C 0.94042 0.25283 0.71725 0.0
H558 H 0.92526 0.23697 0.68875 0.0
H559 H 0.91822 0.2696 0.70739 0.0
C560 C 0.87318 0.26042 0.66057 0.0
N561 N 0.85203 0.26987 0.66148 0.0
C562 C 0.86426 0.25458 0.66822 0.0
C563 C 0.87133 0.27102 0.65329 0.0
C564 C 0.85363 0.25951 0.66856 0.0
C565 C 0.86058 0.27567 0.65392 0.0
C566 C 0.90672 0.23299 0.65784 0.0
C567 C 0.90559 0.23082 0.63991 0.0
C568 C 0.90794 0.22405 0.66956 0.0
C569 C 0.9056 0.21972 0.63403 0.0
C570 C 0.90788 0.21307 0.66316 0.0
N571 N 0.90672 0.21115 0.64568 0.0
C572 C 0.91321 0.26116 0.62463 0.0
C573 C 0.89355 0.26183 0.62007 0.0
C574 C 0.91515 0.26287 0.60675 0.0
N575 N 0.90254 0.26077 0.6309 0.0
C576 C 0.8951 0.26342 0.60213 0.0
C577 C 0.90601 0.26396 0.5952 0.0
H578 H 0.9202 0.26003 0.63347 0.0
H579 H 0.88516 0.26119 0.62531 0.0
C580 C 0.87979 0.22622 0.6914 0.0
N581 N 0.88283 0.23074 0.67577 0.0
C582 C 0.87305 0.21664 0.69191 0.0
C583 C 0.87285 0.21653 0.6602 0.0
C584 C 0.87948 0.22616 0.66032 0.0
C585 C 0.86943 0.21171 0.67614 0.0
H586 H 0.88235 0.2302 0.70348 0.0
H587 H 0.88185 0.23009 0.6481 0.0
O588 O 0.90512 0.26902 0.67305 0.0
O589 O 0.8933 0.25184 0.69733 0.0
O590 O 0.88371 0.25586 0.66048 0.0
O591 O 0.9066 0.24379 0.66388 0.0
H592 H 0.92732 0.26894 0.67105 0.0
H593 H 0.89722 0.28436 0.65118 0.0
H594 H 0.93852 0.28138 0.65174 0.0
H595 H 0.90896 0.2965 0.63218 0.0
H596 H 0.91031 0.23303 0.74185 0.0
H597 H 0.89413 0.26855 0.72021 0.0
H598 H 0.90227 0.23376 0.71186 0.0
H599 H 0.90226 0.26719 0.75007 0.0
H600 H 0.87917 0.30364 0.69513 0.0
H601 H 0.85904 0.27725 0.71811 0.0
H602 H 0.94268 0.23621 0.70608 0.0
H603 H 0.93538 0.26955 0.7254 0.0
H604 H 0.86555 0.2464 0.674 0.0
H605 H 0.87816 0.27567 0.64741 0.0
H606 H 0.84666 0.25512 0.67451 0.0
H607 H 0.85904 0.2839 0.64845 0.0
H608 H 0.90462 0.23761 0.63064 0.0
H609 H 0.90873 0.22557 0.68349 0.0
H610 H 0.90468 0.21791 0.6202 0.0
H611 H 0.90872 0.20608 0.67211 0.0
H612 H 0.92371 0.26329 0.60207 0.0
H613 H 0.88778 0.26392 0.59375 0.0
H614 H 0.87044 0.21337 0.7045 0.0
H615 H 0.87039 0.21296 0.64773 0.0
Li616 Li 0.74285 0.90845 0.68103 0.0
Li617 Li 0.73278 0.89087 0.67832 0.0
Li618 Li 0.75348 0.89236 0.67209 0.0
Li619 Li 0.73978 0.89996 0.65129 0.0
C620 C 0.74628 0.89817 0.71135 0.0
N621 N 0.74797 0.90632 0.74517 0.0
C622 C 0.73709 0.8976 0.72267 0.0
C623 C 0.75639 0.90274 0.71731 0.0
C624 C 0.73809 0.90179 0.73971 0.0
C625 C 0.75706 0.90687 0.73442 0.0
C626 C 0.71716 0.90674 0.66525 0.0
C627 C 0.70064 0.90176 0.64871 0.0
N628 N 0.69442 0.90877 0.65887 0.0
C629 C 0.71062 0.91401 0.67537 0.0
C630 C 0.71215 0.90066 0.65168 0.0
C631 C 0.69913 0.91487 0.67201 0.0
C632 C 0.75206 0.92911 0.69191 0.0
N633 N 0.74338 0.92188 0.69427 0.0
C634 C 0.7354 0.93376 0.7162 0.0
C635 C 0.73515 0.92398 0.70617 0.0
C636 C 0.74424 0.94141 0.71397 0.0
C637 C 0.75269 0.93895 0.70172 0.0
H638 H 0.75843 0.92729 0.68226 0.0
H639 H 0.7284 0.91803 0.70788 0.0
C640 C 0.72398 0.87028 0.68871 0.0
N641 N 0.72168 0.88144 0.68831 0.0
C642 C 0.71656 0.86284 0.69672 0.0
C643 C 0.70458 0.87853 0.70398 0.0
C644 C 0.71222 0.88567 0.69574 0.0
C645 C 0.70675 0.86695 0.70464 0.0
H646 H 0.73167 0.86718 0.68295 0.0
H647 H 0.71077 0.89461 0.69579 0.0
C648 C 0.76427 0.90921 0.65592 0.0
N649 N 0.78633 0.91235 0.6459 0.0
C650 C 0.76708 0.90975 0.63815 0.0
C651 C 0.77266 0.91043 0.66859 0.0
C652 C 0.77829 0.9113 0.63335 0.0
C653 C 0.78376 0.91196 0.66326 0.0
C654 C 0.73875 0.87589 0.64748 0.0
C655 C 0.74703 0.86978 0.63869 0.0
C656 C 0.72746 0.87323 0.64479 0.0
C657 C 0.74387 0.86135 0.62696 0.0
C658 C 0.72463 0.86473 0.63298 0.0
N659 N 0.73283 0.85903 0.62436 0.0
C660 C 0.7709 0.8805 0.68902 0.0
C661 C 0.7733 0.883 0.65841 0.0
C662 C 0.78087 0.87438 0.69001 0.0
N663 N 0.76733 0.88461 0.67337 0.0
C664 C 0.78334 0.87701 0.65881 0.0
C665 C 0.78719 0.87249 0.67473 0.0
H666 H 0.7659 0.88178 0.70067 0.0
H667 H 0.7702 0.88627 0.64611 0.0
C668 C 0.73004 0.91012 0.62072 0.0
N669 N 0.73726 0.90221 0.62688 0.0
C670 C 0.7282 0.91121 0.60268 0.0
C671 C 0.74154 0.89626 0.59776 0.0
C672 C 0.74314 0.8955 0.6158 0.0
C673 C 0.7339 0.9041 0.59098 0.0
H674 H 0.72565 0.91552 0.62981 0.0
H675 H 0.74919 0.88964 0.62098 0.0
O676 O 0.74539 0.89429 0.69452 0.0
O677 O 0.72843 0.90577 0.66844 0.0
O678 O 0.75334 0.90759 0.66086 0.0
O679 O 0.74173 0.88417 0.65907 0.0
H680 H 0.72922 0.89406 0.71833 0.0
H681 H 0.76362 0.90315 0.7088 0.0
H682 H 0.73102 0.90148 0.74857 0.0
H683 H 0.7648 0.9105 0.73916 0.0
H684 H 0.69666 0.89708 0.63825 0.0
H685 H 0.71436 0.91892 0.68576 0.0
H686 H 0.7171 0.89529 0.64334 0.0
H687 H 0.69397 0.92041 0.67982 0.0
H688 H 0.72875 0.93534 0.72556 0.0
H689 H 0.75953 0.94474 0.69938 0.0
H690 H 0.71852 0.85397 0.69675 0.0
H691 H 0.69724 0.88209 0.71022 0.0
H692 H 0.7607 0.90901 0.62816 0.0
H693 H 0.77064 0.9101 0.68238 0.0
H694 H 0.78059 0.91169 0.61964 0.0
H695 H 0.79035 0.91282 0.67293 0.0
H696 H 0.75581 0.87158 0.64078 0.0
H697 H 0.72093 0.87753 0.65193 0.0
H698 H 0.7502 0.85664 0.61996 0.0
H699 H 0.71592 0.86262 0.63076 0.0
H700 H 0.78342 0.8709 0.70251 0.0
H701 H 0.78799 0.87588 0.64674 0.0
H702 H 0.72226 0.91738 0.59798 0.0
H703 H 0.74635 0.89085 0.58918 0.0
Li704 Li 0.88978 0.75301 0.67647 0.0
Li705 Li 0.88802 0.73251 0.68277 0.0
Li706 Li 0.90594 0.74131 0.6829 0.0
Li707 Li 0.89654 0.73792 0.65575 0.0
C708 C 0.898 0.74698 0.71378 0.0
N709 N 0.90924 0.75097 0.74481 0.0
C710 C 0.89936 0.73835 0.726 0.0
C711 C 0.90229 0.75765 0.71735 0.0
C712 C 0.90509 0.74053 0.74161 0.0
C713 C 0.90796 0.75949 0.73312 0.0
C714 C 0.87019 0.73764 0.66521 0.0
C715 C 0.85619 0.72318 0.66176 0.0
N716 N 0.8486 0.72979 0.67014 0.0
C717 C 0.86223 0.7443 0.67374 0.0
C718 C 0.86714 0.727 0.6591 0.0
C719 C 0.85137 0.74019 0.67611 0.0
C720 C 0.88201 0.77317 0.66276 0.0
N721 N 0.88281 0.76714 0.6778 0.0
C722 C 0.87239 0.78096 0.69353 0.0
C723 C 0.87824 0.77082 0.69308 0.0
C724 C 0.87124 0.78731 0.67809 0.0
C725 C 0.87628 0.78336 0.66262 0.0
H726 H 0.88572 0.76996 0.65082 0.0
H727 H 0.87889 0.76572 0.70477 0.0
C728 C 0.88002 0.71081 0.69107 0.0
N729 N 0.87895 0.72193 0.69461 0.0
C730 C 0.87334 0.703 0.69979 0.0
C731 C 0.86478 0.71823 0.71593 0.0
C732 C 0.87158 0.72575 0.70681 0.0
C733 C 0.8656 0.7067 0.71241 0.0
H734 H 0.88609 0.70801 0.68153 0.0
H735 H 0.87099 0.73466 0.70939 0.0
C736 C 0.91342 0.75863 0.66232 0.0
N737 N 0.93234 0.77197 0.6604 0.0
C738 C 0.92351 0.7542 0.65606 0.0
C739 C 0.91296 0.76985 0.66762 0.0
C740 C 0.93299 0.76108 0.6552 0.0
C741 C 0.92262 0.77646 0.66653 0.0
C742 C 0.90722 0.71956 0.66124 0.0
C743 C 0.91886 0.72002 0.65908 0.0
C744 C 0.90092 0.71207 0.65113 0.0
C745 C 0.92401 0.71296 0.64687 0.0
C746 C 0.90638 0.70517 0.63903 0.0
N747 N 0.91771 0.70575 0.63717 0.0
C748 C 0.92229 0.7305 0.70243 0.0
C749 C 0.92661 0.74969 0.69831 0.0
C750 C 0.93237 0.72878 0.71127 0.0
N751 N 0.91978 0.74073 0.69561 0.0
C752 C 0.93692 0.74831 0.70668 0.0
C753 C 0.94007 0.73765 0.71292 0.0
H754 H 0.91649 0.7236 0.70075 0.0
H755 H 0.92419 0.75791 0.69378 0.0
C756 C 0.88805 0.73329 0.6221 0.0
N757 N 0.89772 0.7348 0.63121 0.0
C758 C 0.88831 0.73148 0.60404 0.0
C759 C 0.90853 0.73279 0.60498 0.0
C760 C 0.90786 0.73454 0.62305 0.0
C761 C 0.89865 0.73134 0.59519 0.0
H762 H 0.88008 0.73366 0.6288 0.0
H763 H 0.91544 0.7358 0.6305 0.0
O764 O 0.89268 0.74494 0.69824 0.0
O765 O 0.88096 0.74139 0.66321 0.0
O766 O 0.904 0.7521 0.66306 0.0
O767 O 0.902 0.72651 0.67297 0.0
H768 H 0.89612 0.73004 0.72335 0.0
H769 H 0.90139 0.76438 0.70793 0.0
H770 H 0.90626 0.73393 0.75116 0.0
H771 H 0.91139 0.76768 0.73603 0.0
H772 H 0.85375 0.71493 0.65724 0.0
H773 H 0.86444 0.75253 0.6786 0.0
H774 H 0.87322 0.72168 0.65265 0.0
H775 H 0.84514 0.74524 0.68275 0.0
H776 H 0.8685 0.7836 0.70567 0.0
H777 H 0.87572 0.78805 0.65049 0.0
H778 H 0.87433 0.69417 0.69688 0.0
H779 H 0.85884 0.72141 0.72547 0.0
H780 H 0.92411 0.74549 0.65227 0.0
H781 H 0.90526 0.77342 0.67262 0.0
H782 H 0.94086 0.75773 0.65048 0.0
H783 H 0.92238 0.78515 0.67061 0.0
H784 H 0.92388 0.72586 0.66657 0.0
H785 H 0.89189 0.71172 0.65237 0.0
H786 H 0.933 0.71326 0.64504 0.0
H787 H 0.90159 0.69939 0.63105 0.0
H788 H 0.93418 0.72051 0.7164 0.0
H789 H 0.94249 0.75545 0.70759 0.0
H790 H 0.88049 0.73027 0.59708 0.0
H791 H 0.91667 0.73288 0.5987 0.0
Li792 Li 0.26585 0.89094 0.67961 0.0
Li793 Li 0.24483 0.89222 0.67636 0.0
Li794 Li 0.25781 0.90087 0.65459 0.0
Li795 Li 0.25594 0.9085 0.68333 0.0
C796 C 0.25869 0.8749 0.65339 0.0
N797 N 0.26416 0.85447 0.63854 0.0
C798 C 0.25304 0.86516 0.65853 0.0
C799 C 0.26697 0.87427 0.64045 0.0
C800 C 0.25598 0.8549 0.65095 0.0
C801 C 0.26965 0.86386 0.63316 0.0
C802 C 0.25325 0.8986 0.71377 0.0
C803 C 0.24196 0.90653 0.73686 0.0
N804 N 0.25136 0.90797 0.74673 0.0
C805 C 0.26279 0.90009 0.72415 0.0
C806 C 0.24274 0.90178 0.72016 0.0
C807 C 0.26166 0.90487 0.74079 0.0
C808 C 0.28738 0.8862 0.69331 0.0
N809 N 0.27747 0.8816 0.68818 0.0
C810 C 0.28358 0.86339 0.69699 0.0
C811 C 0.27539 0.87047 0.69008 0.0
C812 C 0.29392 0.86787 0.70232 0.0
C813 C 0.29579 0.87944 0.70044 0.0
H814 H 0.28869 0.89514 0.69209 0.0
H815 H 0.26728 0.86711 0.68662 0.0
C816 C 0.22221 0.88627 0.67 0.0
N817 N 0.23143 0.88426 0.68 0.0
C818 C 0.21248 0.87992 0.67244 0.0
C819 C 0.22197 0.86967 0.69547 0.0
C820 C 0.23146 0.87627 0.69269 0.0
C821 C 0.21237 0.8714 0.68515 0.0
H822 H 0.22249 0.89268 0.65996 0.0
H823 H 0.23894 0.87491 0.70043 0.0
C824 C 0.27981 0.90822 0.66202 0.0
N825 N 0.29945 0.91302 0.64433 0.0
C826 C 0.28379 0.91924 0.66127 0.0
C827 C 0.28589 0.89962 0.65398 0.0
C828 C 0.29372 0.9215 0.65221 0.0
C829 C 0.29578 0.90222 0.64505 0.0
C830 C 0.24166 0.91743 0.65754 0.0
C831 C 0.25026 0.92525 0.65508 0.0
C832 C 0.2308 0.91996 0.6519 0.0
C833 C 0.24784 0.93548 0.64697 0.0
C834 C 0.22872 0.93028 0.64385 0.0
N835 N 0.23721 0.93776 0.64157 0.0
C836 C 0.25341 0.89616 0.61975 0.0
C837 C 0.26568 0.91166 0.62297 0.0
C838 C 0.25412 0.89687 0.60155 0.0
N839 N 0.25928 0.90336 0.63004 0.0
C840 C 0.26661 0.91271 0.60477 0.0
C841 C 0.26088 0.90516 0.59382 0.0
H842 H 0.24821 0.88978 0.62572 0.0
H843 H 0.27008 0.91746 0.63138 0.0
C844 C 0.26559 0.92537 0.70412 0.0
N845 N 0.2558 0.92173 0.69701 0.0
C846 C 0.26582 0.93515 0.71415 0.0
C847 C 0.24585 0.93717 0.70941 0.0
C848 C 0.246 0.92728 0.69965 0.0
C849 C 0.25588 0.9413 0.71668 0.0
H850 H 0.27323 0.92066 0.70195 0.0
H851 H 0.23832 0.92409 0.69399 0.0
O852 O 0.25587 0.88501 0.66065 0.0
O853 O 0.25422 0.89424 0.69728 0.0
O854 O 0.27005 0.90591 0.67074 0.0
O855 O 0.2438 0.90733 0.66541 0.0
H856 H 0.24654 0.8655 0.66839 0.0
H857 H 0.27119 0.88174 0.6359 0.0
H858 H 0.25174 0.84729 0.65492 0.0
H859 H 0.27606 0.86325 0.62317 0.0
H860 H 0.23389 0.90911 0.74196 0.0
H861 H 0.27099 0.89769 0.71933 0.0
H862 H 0.23529 0.90071 0.71222 0.0
H863 H 0.26898 0.90614 0.74894 0.0
H864 H 0.28171 0.85456 0.69862 0.0
H865 H 0.30365 0.88321 0.70445 0.0
H866 H 0.20526 0.88143 0.66413 0.0
H867 H 0.22217 0.86325 0.70551 0.0
H868 H 0.27922 0.92598 0.66755 0.0
H869 H 0.28307 0.89103 0.65478 0.0
H870 H 0.29686 0.93 0.65143 0.0
H871 H 0.30056 0.89565 0.63873 0.0
H872 H 0.25869 0.92348 0.6594 0.0
H873 H 0.22405 0.914 0.65373 0.0
H874 H 0.25442 0.9416 0.64499 0.0
H875 H 0.22035 0.93234 0.63941 0.0
H876 H 0.24935 0.89103 0.59361 0.0
H877 H 0.2719 0.91923 0.59935 0.0
H878 H 0.2737 0.9379 0.71973 0.0
H879 H 0.23802 0.94168 0.71075 0.0
Li880 Li 0.10464 0.26461 0.68389 0.0
Li881 Li 0.10454 0.24377 0.67933 0.0
Li882 Li 0.09612 0.25762 0.65771 0.0
Li883 Li 0.08748 0.25417 0.68535 0.0
C884 C 0.12262 0.26012 0.66536 0.0
N885 N 0.14383 0.26939 0.66722 0.0
C886 C 0.13133 0.25425 0.67352 0.0
C887 C 0.12473 0.27065 0.658 0.0
C888 C 0.14199 0.25909 0.67435 0.0
C889 C 0.1355 0.27521 0.65912 0.0
C890 C 0.09649 0.25164 0.71674 0.0
C891 C 0.08821 0.24068 0.73995 0.0
N892 N 0.08643 0.25025 0.74927 0.0
C893 C 0.09463 0.26135 0.72657 0.0
C894 C 0.09331 0.24121 0.72347 0.0
C895 C 0.08951 0.26047 0.74299 0.0
C896 C 0.11033 0.28714 0.69217 0.0
N897 N 0.1131 0.27618 0.69449 0.0
C898 C 0.1283 0.28118 0.71326 0.0
C899 C 0.1218 0.27308 0.70491 0.0
C900 C 0.12571 0.2926 0.71108 0.0
C901 C 0.11658 0.29555 0.70037 0.0
H902 H 0.10321 0.28935 0.68413 0.0
H903 H 0.12368 0.26427 0.70668 0.0
C904 C 0.11412 0.22358 0.66795 0.0
N905 N 0.11264 0.23033 0.6821 0.0
C906 C 0.12055 0.21384 0.66939 0.0
C907 C 0.12374 0.2182 0.69997 0.0
C908 C 0.11724 0.22785 0.69794 0.0
C909 C 0.12554 0.21109 0.68554 0.0
H910 H 0.11042 0.22586 0.6555 0.0
H911 H 0.11601 0.23347 0.7089 0.0
C912 C 0.08455 0.27581 0.66274 0.0
N913 N 0.07369 0.28944 0.63883 0.0
C914 C 0.07289 0.27529 0.66097 0.0
C915 C 0.09068 0.28331 0.6524 0.0
C916 C 0.06756 0.28225 0.64881 0.0
C917 C 0.08504 0.29011 0.64036 0.0
C918 C 0.08094 0.23635 0.66507 0.0
C919 C 0.07068 0.24084 0.65963 0.0
C920 C 0.0817 0.22495 0.66915 0.0
C921 C 0.06131 0.23383 0.65845 0.0
C922 C 0.07215 0.21821 0.66777 0.0
N923 N 0.06224 0.22276 0.6625 0.0
C924 C 0.10392 0.2604 0.62336 0.0
C925 C 0.08409 0.26048 0.6253 0.0
C926 C 0.1034 0.26149 0.60518 0.0
N927 N 0.09436 0.25989 0.63303 0.0
C928 C 0.08316 0.26164 0.60712 0.0
C929 C 0.09291 0.26202 0.59682 0.0
H930 H 0.11199 0.25978 0.62973 0.0
H931 H 0.07659 0.25992 0.63317 0.0
C932 C 0.06984 0.26331 0.70454 0.0
N933 N 0.07388 0.25337 0.69853 0.0
C934 C 0.06005 0.26364 0.71451 0.0
C935 C 0.05889 0.24345 0.71238 0.0
C936 C 0.06883 0.2435 0.70273 0.0
C937 C 0.05427 0.25364 0.71822 0.0
H938 H 0.07427 0.271 0.70163 0.0
H939 H 0.0725 0.23565 0.69864 0.0
O940 O 0.11206 0.25564 0.66476 0.0
O941 O 0.10121 0.25236 0.70045 0.0
O942 O 0.08995 0.26901 0.67449 0.0
O943 O 0.09022 0.24304 0.66629 0.0
H944 H 0.12986 0.2461 0.6793 0.0
H945 H 0.11809 0.2753 0.65162 0.0
H946 H 0.1488 0.25467 0.68071 0.0
H947 H 0.13723 0.28339 0.65359 0.0
H948 H 0.08563 0.23268 0.74528 0.0
H949 H 0.097 0.26949 0.72148 0.0
H950 H 0.09461 0.23362 0.71593 0.0
H951 H 0.08795 0.26792 0.75071 0.0
H952 H 0.13535 0.27852 0.72119 0.0
H953 H 0.11417 0.30423 0.69856 0.0
H954 H 0.12187 0.20871 0.65786 0.0
H955 H 0.12734 0.21635 0.71269 0.0
H956 H 0.068 0.2695 0.66876 0.0
H957 H 0.09971 0.28379 0.65352 0.0
H958 H 0.05854 0.28189 0.64726 0.0
H959 H 0.08969 0.2959 0.63221 0.0
H960 H 0.06989 0.24967 0.65671 0.0
H961 H 0.08958 0.22134 0.67342 0.0
H962 H 0.0533 0.23721 0.65438 0.0
H963 H 0.07261 0.20937 0.67092 0.0
H964 H 0.11112 0.26185 0.59773 0.0
H965 H 0.07492 0.26191 0.60117 0.0
H966 H 0.05703 0.27167 0.71917 0.0
H967 H 0.05478 0.23551 0.71482 0.0
Li968 Li 0.73046 0.10624 0.6825 0.0
Li969 Li 0.75072 0.10636 0.67633 0.0
Li970 Li 0.73752 0.09884 0.65517 0.0
Li971 Li 0.74091 0.08939 0.68193 0.0
C972 C 0.73957 0.12573 0.66654 0.0
N973 N 0.74182 0.14849 0.67243 0.0
C974 C 0.74093 0.12979 0.68361 0.0
C975 C 0.73939 0.13323 0.65247 0.0
C976 C 0.74205 0.14133 0.68631 0.0
C977 C 0.74053 0.14471 0.65572 0.0
C978 C 0.74812 0.09722 0.71219 0.0
C979 C 0.76424 0.08817 0.72508 0.0
N980 N 0.75824 0.08628 0.73995 0.0
C981 C 0.74213 0.09522 0.72763 0.0
C982 C 0.75928 0.09369 0.71091 0.0
C983 C 0.74739 0.08966 0.74151 0.0
C984 C 0.71379 0.10793 0.70761 0.0
N985 N 0.71821 0.11344 0.69365 0.0
C986 C 0.70487 0.12824 0.69679 0.0
C987 C 0.71381 0.12329 0.68787 0.0
C988 C 0.70035 0.12292 0.71164 0.0
C989 C 0.70484 0.11256 0.7169 0.0
H990 H 0.7172 0.0999 0.71147 0.0
H991 H 0.71722 0.12733 0.67637 0.0
C992 C 0.7702 0.11578 0.66312 0.0
N993 N 0.76414 0.11464 0.67808 0.0
C994 C 0.77986 0.12236 0.663 0.0
C995 C 0.77694 0.1263 0.6938 0.0
C996 C 0.76729 0.11967 0.69329 0.0
C997 C 0.78329 0.12779 0.67845 0.0
H998 H 0.7674 0.1117 0.65123 0.0
H999 H 0.76219 0.11872 0.70492 0.0
C1000 C 0.71568 0.09326 0.66378 0.0
N1001 N 0.69453 0.09572 0.64943 0.0
C1002 C 0.70774 0.0847 0.66551 0.0
C1003 C 0.71286 0.10308 0.65477 0.0
C1004 C 0.6971 0.0861 0.65815 0.0
C1005 C 0.70212 0.10416 0.64761 0.0
C1006 C 0.754 0.0827 0.65351 0.0
C1007 C 0.74542 0.07494 0.65045 0.0
C1008 C 0.76469 0.08077 0.64662 0.0
C1009 C 0.7477 0.06535 0.64056 0.0
C1010 C 0.76663 0.07107 0.63679 0.0
N1011 N 0.75817 0.06362 0.63399 0.0
C1012 C 0.74207 0.10477 0.62106 0.0
C1013 C 0.72811 0.09065 0.62273 0.0
C1014 C 0.74148 0.10476 0.60281 0.0
N1015 N 0.73541 0.09783 0.63058 0.0
C1016 C 0.72717 0.09043 0.60446 0.0
C1017 C 0.73391 0.09758 0.59423 0.0
H1018 H 0.74791 0.11026 0.6277 0.0
H1019 H 0.72303 0.08508 0.63061 0.0
C1020 C 0.73275 0.07204 0.70271 0.0
N1021 N 0.74192 0.0754 0.69353 0.0
C1022 C 0.733 0.06205 0.71222 0.0
C1023 C 0.75215 0.05923 0.70268 0.0
C1024 C 0.75155 0.06931 0.69345 0.0
C1025 C 0.74277 0.05546 0.71219 0.0
H1026 H 0.72529 0.0772 0.70275 0.0
H1027 H 0.75878 0.0723 0.68629 0.0
O1028 O 0.73865 0.11446 0.66346 0.0
O1029 O 0.74304 0.10235 0.69825 0.0
O1030 O 0.7261 0.09194 0.67105 0.0
O1031 O 0.75203 0.09222 0.66305 0.0
H1032 H 0.7411 0.12412 0.69467 0.0
H1033 H 0.7384 0.13021 0.63917 0.0
H1034 H 0.74309 0.14459 0.69945 0.0
H1035 H 0.7404 0.15062 0.64495 0.0
H1036 H 0.77285 0.08533 0.72421 0.0
H1037 H 0.73351 0.0979 0.7289 0.0
H1038 H 0.76399 0.09502 0.69896 0.0
H1039 H 0.74284 0.08803 0.75351 0.0
H1040 H 0.7017 0.13626 0.6923 0.0
H1041 H 0.70144 0.10804 0.72802 0.0
H1042 H 0.78458 0.12323 0.65094 0.0
H1043 H 0.77923 0.13046 0.7059 0.0
H1044 H 0.7098 0.07706 0.67247 0.0
H1045 H 0.71885 0.1098 0.65324 0.0
H1046 H 0.69087 0.07955 0.65938 0.0
H1047 H 0.69983 0.11171 0.6406 0.0
H1048 H 0.7371 0.07626 0.65565 0.0
H1049 H 0.77141 0.08671 0.64884 0.0
H1050 H 0.74115 0.05927 0.6381 0.0
H1051 H 0.77487 0.06946 0.63139 0.0
H1052 H 0.74705 0.11023 0.59553 0.0
H1053 H 0.72116 0.08481 0.59846 0.0
H1054 H 0.72564 0.05956 0.71957 0.0
H1055 H 0.7598 0.05435 0.70209 0.0
Li1056 Li 0.90782 0.2547 0.31889 0.0
Li1057 Li 0.89954 0.25751 0.34702 0.0
Li1058 Li 0.89019 0.24615 0.32525 0.0
Li1059 Li 0.89158 0.26649 0.32182 0.0
C1060 C 0.91436 0.23977 0.34521 0.0
N1061 N 0.93374 0.2332 0.36226 0.0
C1062 C 0.92334 0.24724 0.34692 0.0
C1063 C 0.91526 0.22896 0.35215 0.0
C1064 C 0.93306 0.24376 0.35559 0.0
C1065 C 0.92512 0.22579 0.36073 0.0
C1066 C 0.90675 0.27917 0.34028 0.0
C1067 C 0.89792 0.29281 0.35913 0.0
N1068 N 0.90698 0.29965 0.35726 0.0
C1069 C 0.91596 0.28633 0.33853 0.0
C1070 C 0.89764 0.28242 0.35066 0.0
C1071 C 0.91592 0.29665 0.34723 0.0
C1072 C 0.92431 0.26242 0.29626 0.0
N1073 N 0.92096 0.25319 0.30528 0.0
C1074 C 0.9363 0.24256 0.294 0.0
C1075 C 0.92657 0.2433 0.30408 0.0
C1076 C 0.94018 0.25206 0.28488 0.0
C1077 C 0.93391 0.26203 0.28586 0.0
H1078 H 0.9195 0.2701 0.29722 0.0
H1079 H 0.92356 0.23602 0.3111 0.0
C1080 C 0.8939 0.25558 0.38249 0.0
N1081 N 0.90215 0.25908 0.37149 0.0
C1082 C 0.89514 0.25677 0.40059 0.0
C1083 C 0.91347 0.26488 0.39571 0.0
C1084 C 0.91181 0.26369 0.37768 0.0
C1085 C 0.90504 0.26146 0.40737 0.0
H1086 H 0.88635 0.2519 0.37718 0.0
H1087 H 0.91819 0.26652 0.36865 0.0
C1088 C 0.8967 0.24921 0.28899 0.0
N1089 N 0.90226 0.23816 0.25836 0.0
C1090 C 0.89614 0.25482 0.27293 0.0
C1091 C 0.90011 0.23799 0.28949 0.0
C1092 C 0.89898 0.24908 0.25758 0.0
C1093 C 0.90287 0.23255 0.27386 0.0
C1094 C 0.87203 0.2582 0.33772 0.0
C1095 C 0.86773 0.25869 0.32068 0.0
C1096 C 0.86466 0.25788 0.35196 0.0
C1097 C 0.85612 0.25882 0.31817 0.0
C1098 C 0.8531 0.25803 0.34891 0.0
N1099 N 0.84911 0.25849 0.33223 0.0
C1100 C 0.8819 0.22466 0.33278 0.0
C1101 C 0.87421 0.23293 0.30716 0.0
C1102 C 0.87545 0.21501 0.33026 0.0
N1103 N 0.88114 0.23335 0.32131 0.0
C1104 C 0.8675 0.22353 0.30428 0.0
C1105 C 0.86809 0.21443 0.31592 0.0
H1106 H 0.8875 0.22525 0.3439 0.0
H1107 H 0.8739 0.23988 0.29808 0.0
C1108 C 0.88997 0.28373 0.29776 0.0
N1109 N 0.88503 0.27968 0.31249 0.0
C1110 C 0.88541 0.29296 0.28909 0.0
C1111 C 0.87099 0.29392 0.31133 0.0
C1112 C 0.87592 0.28476 0.31969 0.0
C1113 C 0.87561 0.29802 0.29561 0.0
H1114 H 0.89738 0.27965 0.29262 0.0
H1115 H 0.87232 0.28155 0.33168 0.0
O1116 O 0.90471 0.24294 0.33683 0.0
O1117 O 0.90674 0.26905 0.33182 0.0
O1118 O 0.89424 0.25478 0.30419 0.0
O1119 O 0.88337 0.25797 0.34059 0.0
H1120 H 0.92285 0.25563 0.3416 0.0
H1121 H 0.90839 0.22306 0.35091 0.0
H1122 H 0.94006 0.24946 0.35701 0.0
H1123 H 0.92592 0.21745 0.36617 0.0
H1124 H 0.89094 0.29543 0.36721 0.0
H1125 H 0.92307 0.28392 0.33054 0.0
H1126 H 0.89044 0.27701 0.35222 0.0
H1127 H 0.923 0.30227 0.346 0.0
H1128 H 0.9409 0.23473 0.29382 0.0
H1129 H 0.93645 0.26949 0.2788 0.0
H1130 H 0.8885 0.25393 0.4092 0.0
H1131 H 0.92118 0.26862 0.40047 0.0
H1132 H 0.89356 0.26351 0.27233 0.0
H1133 H 0.90076 0.23357 0.30185 0.0
H1134 H 0.89859 0.25332 0.24505 0.0
H1135 H 0.90556 0.22388 0.27406 0.0
H1136 H 0.87326 0.25905 0.30948 0.0
H1137 H 0.86783 0.25753 0.36524 0.0
H1138 H 0.85269 0.25921 0.30506 0.0
H1139 H 0.84731 0.25778 0.35982 0.0
H1140 H 0.87605 0.20818 0.33958 0.0
H1141 H 0.86199 0.22332 0.29299 0.0
H1142 H 0.88945 0.29599 0.27729 0.0
H1143 H 0.86341 0.29748 0.31682 0.0
Li1144 Li 0.74012 0.89597 0.34293 0.0
Li1145 Li 0.74144 0.90451 0.315 0.0
Li1146 Li 0.73317 0.88649 0.31717 0.0
Li1147 Li 0.75352 0.88917 0.32126 0.0
C1148 C 0.71754 0.89847 0.33568 0.0
N1149 N 0.69732 0.89427 0.35213 0.0
C1150 C 0.7086 0.90595 0.33379 0.0
C1151 C 0.71619 0.88883 0.34594 0.0
C1152 C 0.69845 0.90368 0.34221 0.0
C1153 C 0.70591 0.88686 0.35414 0.0
C1154 C 0.75472 0.91386 0.34176 0.0
C1155 C 0.76643 0.92703 0.3573 0.0
N1156 N 0.75743 0.93391 0.35946 0.0
C1157 C 0.74558 0.92106 0.34415 0.0
C1158 C 0.76523 0.91686 0.34839 0.0
C1159 C 0.74712 0.93115 0.35312 0.0
C1160 C 0.74392 0.89148 0.37845 0.0
N1161 N 0.738 0.89816 0.36739 0.0
C1162 C 0.72935 0.90756 0.39155 0.0
C1163 C 0.73083 0.90613 0.37353 0.0
C1164 C 0.73528 0.9007 0.40332 0.0
C1165 C 0.74267 0.89259 0.39656 0.0
H1166 H 0.74963 0.88529 0.37317 0.0
H1167 H 0.72623 0.91135 0.36446 0.0
C1168 C 0.73016 0.92027 0.29448 0.0
N1169 N 0.74013 0.91818 0.30245 0.0
C1170 C 0.72838 0.93045 0.2859 0.0
C1171 C 0.74728 0.93597 0.29356 0.0
C1172 C 0.74874 0.92563 0.30178 0.0
C1173 C 0.73691 0.93859 0.28575 0.0
H1174 H 0.72353 0.91408 0.29506 0.0
H1175 H 0.75665 0.92366 0.308 0.0
C1176 C 0.74523 0.86905 0.33405 0.0
N1177 N 0.75005 0.84652 0.32997 0.0
C1178 C 0.74696 0.86459 0.3173 0.0
C1179 C 0.74597 0.86205 0.34871 0.0
C1180 C 0.74939 0.85318 0.31552 0.0
C1181 C 0.7484 0.85069 0.34637 0.0
C1182 C 0.74764 0.89658 0.28471 0.0
C1183 C 0.74038 0.89691 0.27033 0.0
C1184 C 0.75804 0.90196 0.28374 0.0
C1185 C 0.74362 0.90271 0.25523 0.0
C1186 C 0.76097 0.90767 0.26842 0.0
N1187 N 0.75376 0.90793 0.25461 0.0
C1188 C 0.71526 0.88199 0.29513 0.0
C1189 C 0.71896 0.86704 0.31478 0.0
C1190 C 0.70642 0.87603 0.2876 0.0
N1191 N 0.72145 0.87735 0.30821 0.0
C1192 C 0.71025 0.86074 0.30755 0.0
C1193 C 0.70389 0.86519 0.29366 0.0
H1194 H 0.71715 0.89039 0.29068 0.0
H1195 H 0.72368 0.86368 0.32565 0.0
C1196 C 0.77425 0.88114 0.33287 0.0
N1197 N 0.76772 0.88239 0.31842 0.0
C1198 C 0.78438 0.87531 0.33177 0.0
C1199 C 0.78095 0.87244 0.30083 0.0
C1200 C 0.77085 0.87824 0.30257 0.0
C1201 C 0.7878 0.87076 0.31561 0.0
H1202 H 0.77142 0.8844 0.34534 0.0
H1203 H 0.76539 0.8792 0.29136 0.0
O1204 O 0.7275 0.90064 0.32742 0.0
O1205 O 0.75347 0.90389 0.3331 0.0
O1206 O 0.74304 0.88023 0.33623 0.0
O1207 O 0.74453 0.89118 0.29978 0.0
H1208 H 0.70952 0.91344 0.32588 0.0
H1209 H 0.72299 0.88293 0.3476 0.0
H1210 H 0.69146 0.90941 0.34086 0.0
H1211 H 0.70475 0.87945 0.36212 0.0
H1212 H 0.77452 0.92946 0.3625 0.0
H1213 H 0.73739 0.91891 0.33909 0.0
H1214 H 0.77238 0.91137 0.34668 0.0
H1215 H 0.74013 0.9368 0.35505 0.0
H1216 H 0.7235 0.91384 0.3962 0.0
H1217 H 0.74752 0.88724 0.40518 0.0
H1218 H 0.72033 0.932 0.27978 0.0
H1219 H 0.75407 0.942 0.29401 0.0
H1220 H 0.7464 0.86984 0.30579 0.0
H1221 H 0.74467 0.86538 0.36176 0.0
H1222 H 0.75074 0.84962 0.30265 0.0
H1223 H 0.74899 0.84517 0.3576 0.0
H1224 H 0.73234 0.89274 0.27079 0.0
H1225 H 0.76371 0.90189 0.29483 0.0
H1226 H 0.73807 0.90306 0.24402 0.0
H1227 H 0.76896 0.91195 0.26754 0.0
H1228 H 0.70157 0.87992 0.27724 0.0
H1229 H 0.70862 0.85242 0.31264 0.0
H1230 H 0.78927 0.87405 0.34357 0.0
H1231 H 0.78329 0.86919 0.28809 0.0
Li1232 Li 0.08886 0.74273 0.31568 0.0
Li1233 Li 0.09688 0.73959 0.34491 0.0
Li1234 Li 0.10453 0.75368 0.32467 0.0
Li1235 Li 0.10694 0.73359 0.31902 0.0
C1236 C 0.08829 0.76392 0.3417 0.0
N1237 N 0.08697 0.78572 0.35385 0.0
C1238 C 0.08901 0.76613 0.35967 0.0
C1239 C 0.08681 0.77279 0.32992 0.0
C1240 C 0.08833 0.77722 0.36554 0.0
C1241 C 0.0862 0.78376 0.33632 0.0
C1242 C 0.08646 0.72043 0.33658 0.0
C1243 C 0.08604 0.70501 0.35704 0.0
N1244 N 0.07464 0.70502 0.35634 0.0
C1245 C 0.07474 0.72028 0.33602 0.0
C1246 C 0.09218 0.71272 0.34711 0.0
C1247 C 0.06892 0.71242 0.34612 0.0
C1248 C 0.0732 0.73367 0.29194 0.0
N1249 N 0.07555 0.74271 0.30217 0.0
C1250 C 0.05878 0.75189 0.29296 0.0
C1251 C 0.06862 0.75174 0.30283 0.0
C1252 C 0.05603 0.74263 0.28243 0.0
C1253 C 0.06341 0.73345 0.28189 0.0
H1254 H 0.07889 0.72661 0.29172 0.0
H1255 H 0.07066 0.75876 0.31118 0.0
C1256 C 0.10342 0.73808 0.37982 0.0
N1257 N 0.09442 0.73657 0.36916 0.0
C1258 C 0.10248 0.73634 0.39781 0.0
C1259 C 0.08296 0.73157 0.39368 0.0
C1260 C 0.08425 0.73358 0.37573 0.0
C1261 C 0.09218 0.73293 0.40503 0.0
H1262 H 0.11132 0.74082 0.37439 0.0
H1263 H 0.07712 0.73279 0.36707 0.0
C1264 C 0.09898 0.74576 0.28565 0.0
N1265 N 0.09011 0.74558 0.25218 0.0
C1266 C 0.09989 0.73616 0.27523 0.0
C1267 C 0.09363 0.7553 0.27901 0.0
C1268 C 0.09534 0.73623 0.25835 0.0
C1269 C 0.08917 0.75502 0.26208 0.0
C1270 C 0.12333 0.73884 0.34102 0.0
C1271 C 0.1323 0.74527 0.33482 0.0
C1272 C 0.1254 0.72844 0.34886 0.0
C1273 C 0.14321 0.74111 0.3364 0.0
C1274 C 0.13643 0.72457 0.35015 0.0
N1275 N 0.14503 0.73093 0.34394 0.0
C1276 C 0.11511 0.77241 0.33926 0.0
C1277 C 0.11466 0.77241 0.30818 0.0
C1278 C 0.12116 0.78241 0.33938 0.0
N1279 N 0.112 0.76766 0.32382 0.0
C1280 C 0.12081 0.78238 0.30766 0.0
C1281 C 0.12424 0.78745 0.32342 0.0
H1282 H 0.11301 0.76832 0.35149 0.0
H1283 H 0.11226 0.76832 0.2961 0.0
C1284 C 0.11406 0.71168 0.31 0.0
N1285 N 0.11679 0.72274 0.30955 0.0
C1286 C 0.1213 0.70371 0.30278 0.0
C1287 C 0.134 0.71871 0.29485 0.0
C1288 C 0.12644 0.72639 0.30195 0.0
C1289 C 0.13143 0.70723 0.2952 0.0
H1290 H 0.10623 0.70905 0.31583 0.0
H1291 H 0.12823 0.73527 0.30138 0.0
O1292 O 0.08907 0.75314 0.33568 0.0
O1293 O 0.09232 0.72806 0.3268 0.0
O1294 O 0.10315 0.74577 0.30235 0.0
O1295 O 0.11257 0.74267 0.33936 0.0
H1296 H 0.09012 0.75938 0.36898 0.0
H1297 H 0.08635 0.77125 0.31597 0.0
H1298 H 0.08892 0.77906 0.3794 0.0
H1299 H 0.08516 0.79071 0.32734 0.0
H1300 H 0.09035 0.69903 0.36532 0.0
H1301 H 0.07018 0.72622 0.32802 0.0
H1302 H 0.10124 0.71274 0.34771 0.0
H1303 H 0.05985 0.71223 0.34586 0.0
H1304 H 0.05321 0.75904 0.29404 0.0
H1305 H 0.06161 0.72616 0.2739 0.0
H1306 H 0.10974 0.73788 0.406 0.0
H1307 H 0.07485 0.72893 0.39857 0.0
H1308 H 0.10396 0.72869 0.28019 0.0
H1309 H 0.09279 0.76277 0.28696 0.0
H1310 H 0.09593 0.72884 0.25017 0.0
H1311 H 0.08493 0.76231 0.25682 0.0
H1312 H 0.13085 0.75332 0.3287 0.0
H1313 H 0.11855 0.72338 0.35375 0.0
H1314 H 0.15023 0.74596 0.33157 0.0
H1315 H 0.13815 0.71651 0.35608 0.0
H1316 H 0.12349 0.78608 0.35184 0.0
H1317 H 0.12316 0.78585 0.29507 0.0
H1318 H 0.11905 0.69491 0.30325 0.0
H1319 H 0.14165 0.72173 0.28884 0.0
Li1320 Li 0.25872 0.09848 0.34422 0.0
Li1321 Li 0.2547 0.09021 0.31628 0.0
Li1322 Li 0.26366 0.10823 0.31769 0.0
Li1323 Li 0.24321 0.10615 0.3247 0.0
C1324 C 0.27781 0.08871 0.33552 0.0
N1325 N 0.29429 0.07844 0.35532 0.0
C1326 C 0.27857 0.07701 0.33602 0.0
C1327 C 0.28548 0.09519 0.345 0.0
C1328 C 0.28696 0.07198 0.34612 0.0
C1329 C 0.29373 0.08984 0.35497 0.0
C1330 C 0.23875 0.08172 0.33948 0.0
C1331 C 0.22147 0.07122 0.34022 0.0
N1332 N 0.22729 0.06191 0.3451 0.0
C1333 C 0.24456 0.07207 0.34453 0.0
C1334 C 0.22712 0.08132 0.33731 0.0
C1335 C 0.23862 0.06212 0.34729 0.0
C1336 C 0.26098 0.10541 0.37904 0.0
N1337 N 0.26225 0.09633 0.36845 0.0
C1338 C 0.26717 0.08488 0.39304 0.0
C1339 C 0.26528 0.08618 0.37508 0.0
C1340 C 0.26578 0.09409 0.40434 0.0
C1341 C 0.26271 0.10448 0.39707 0.0
H1342 H 0.25836 0.11334 0.37354 0.0
H1343 H 0.26611 0.07903 0.36653 0.0
C1344 C 0.26453 0.0745 0.29429 0.0
N1345 N 0.25475 0.07675 0.30272 0.0
C1346 C 0.26575 0.06464 0.28465 0.0
C1347 C 0.24666 0.05976 0.29203 0.0
C1348 C 0.24573 0.06986 0.30115 0.0
C1349 C 0.25687 0.05689 0.28391 0.0
H1350 H 0.27146 0.08033 0.29528 0.0
H1351 H 0.23785 0.07205 0.30719 0.0
C1352 C 0.25865 0.12517 0.33892 0.0
N1353 N 0.26598 0.14715 0.33971 0.0
C1354 C 0.25176 0.13377 0.33267 0.0
C1355 C 0.26922 0.12776 0.34576 0.0
C1356 C 0.25562 0.14483 0.33315 0.0
C1357 C 0.27279 0.13892 0.34598 0.0
C1358 C 0.2494 0.09943 0.28613 0.0
C1359 C 0.25825 0.09911 0.27412 0.0
C1360 C 0.23903 0.09475 0.28169 0.0
C1361 C 0.25658 0.09401 0.25783 0.0
C1362 C 0.23771 0.08972 0.26527 0.0
N1363 N 0.24644 0.08945 0.25379 0.0
C1364 C 0.28507 0.11461 0.30564 0.0
C1365 C 0.2704 0.12728 0.29866 0.0
C1366 C 0.29282 0.12127 0.29672 0.0
N1367 N 0.27413 0.11775 0.3065 0.0
C1368 C 0.27788 0.13426 0.28979 0.0
C1369 C 0.28927 0.13126 0.28863 0.0
H1370 H 0.28774 0.10683 0.31157 0.0
H1371 H 0.2616 0.12941 0.2992 0.0
C1372 C 0.22342 0.11426 0.33969 0.0
N1373 N 0.2291 0.11319 0.32435 0.0
C1374 C 0.21337 0.12025 0.34024 0.0
C1375 C 0.21513 0.1237 0.30909 0.0
C1376 C 0.22516 0.11767 0.30917 0.0
C1377 C 0.20919 0.12519 0.32484 0.0
H1378 H 0.22684 0.11063 0.35155 0.0
H1379 H 0.22997 0.11682 0.29722 0.0
O1380 O 0.26966 0.09381 0.32572 0.0
O1381 O 0.24438 0.09155 0.33669 0.0
O1382 O 0.25508 0.11428 0.33835 0.0
O1383 O 0.25096 0.10411 0.3023 0.0
H1384 H 0.27267 0.07185 0.32887 0.0
H1385 H 0.28503 0.10425 0.34472 0.0
H1386 H 0.28761 0.06293 0.34669 0.0
H1387 H 0.29968 0.09475 0.36243 0.0
H1388 H 0.21247 0.07077 0.33857 0.0
H1389 H 0.25358 0.07219 0.34593 0.0
H1390 H 0.22251 0.08873 0.33337 0.0
H1391 H 0.24301 0.05456 0.35108 0.0
H1392 H 0.26963 0.07674 0.39801 0.0
H1393 H 0.26129 0.11177 0.40526 0.0
H1394 H 0.27366 0.06305 0.27815 0.0
H1395 H 0.23955 0.05411 0.29196 0.0
H1396 H 0.24355 0.13191 0.32736 0.0
H1397 H 0.27462 0.12121 0.35075 0.0
H1398 H 0.2504 0.15156 0.32826 0.0
H1399 H 0.28098 0.14104 0.35114 0.0
H1400 H 0.26633 0.10266 0.27742 0.0
H1401 H 0.23214 0.09486 0.29093 0.0
H1402 H 0.26336 0.09364 0.24843 0.0
H1403 H 0.22976 0.08599 0.26169 0.0
H1404 H 0.30145 0.11848 0.29586 0.0
H1405 H 0.27476 0.14192 0.28393 0.0
H1406 H 0.209 0.12112 0.35261 0.0
H1407 H 0.21228 0.12751 0.29699 0.0
Li1408 Li 0.59896 0.75839 0.8457 0.0
Li1409 Li 0.60596 0.7444 0.82506 0.0
Li1410 Li 0.60902 0.76442 0.82022 0.0
Li1411 Li 0.59057 0.75609 0.81668 0.0
C1412 C 0.62561 0.7581 0.84029 0.0
N1413 N 0.64777 0.7649 0.83987 0.0
C1414 C 0.63384 0.75116 0.83306 0.0
C1415 C 0.62865 0.76848 0.84739 0.0
C1416 C 0.645 0.75475 0.83297 0.0
C1417 C 0.63989 0.77178 0.84701 0.0
C1418 C 0.58923 0.73446 0.84131 0.0
C1419 C 0.58544 0.71505 0.83453 0.0
N1420 N 0.5868 0.71239 0.85174 0.0
C1421 C 0.59054 0.73153 0.85894 0.0
C1422 C 0.58661 0.72617 0.829 0.0
C1423 C 0.58929 0.72033 0.86395 0.0
C1424 C 0.58526 0.76098 0.87576 0.0
N1425 N 0.59601 0.76115 0.8698 0.0
C1426 C 0.60295 0.76444 0.8987 0.0
C1427 C 0.60479 0.76284 0.88082 0.0
C1428 C 0.59195 0.76426 0.90531 0.0
C1429 C 0.58302 0.76256 0.89356 0.0
H1430 H 0.57845 0.75947 0.86669 0.0
H1431 H 0.61326 0.76271 0.87579 0.0
C1432 C 0.61461 0.72532 0.80747 0.0
N1433 N 0.6126 0.72999 0.8234 0.0
C1434 C 0.61994 0.71492 0.80628 0.0
C1435 C 0.62089 0.71432 0.83794 0.0
C1436 C 0.61565 0.72477 0.83849 0.0
C1437 C 0.62323 0.70931 0.82167 0.0
H1438 H 0.6123 0.72978 0.79567 0.0
H1439 H 0.6141 0.72879 0.85097 0.0
C1440 C 0.58895 0.77742 0.83938 0.0
N1441 N 0.57743 0.79124 0.86221 0.0
C1442 C 0.57723 0.77732 0.83967 0.0
C1443 C 0.59482 0.78457 0.85064 0.0
C1444 C 0.57156 0.78438 0.85131 0.0
C1445 C 0.58884 0.79148 0.86211 0.0
C1446 C 0.60047 0.75294 0.78637 0.0
C1447 C 0.6021 0.76238 0.77579 0.0
C1448 C 0.59443 0.74379 0.77986 0.0
C1449 C 0.59759 0.76253 0.75888 0.0
C1450 C 0.59003 0.74427 0.76289 0.0
N1451 N 0.59169 0.75355 0.75285 0.0
C1452 C 0.62791 0.7714 0.80118 0.0
C1453 C 0.61697 0.78625 0.81281 0.0
C1454 C 0.63528 0.77902 0.79348 0.0
N1455 N 0.61902 0.77513 0.81067 0.0
C1456 C 0.62408 0.79418 0.80524 0.0
C1457 C 0.63337 0.79059 0.7954 0.0
H1458 H 0.62918 0.76248 0.79943 0.0
H1459 H 0.60974 0.78897 0.82021 0.0
C1460 C 0.569 0.74918 0.80591 0.0
N1461 N 0.57708 0.75707 0.80369 0.0
C1462 C 0.5588 0.75014 0.79709 0.0
C1463 C 0.56552 0.76724 0.78365 0.0
C1464 C 0.57557 0.76599 0.79283 0.0
C1465 C 0.55691 0.75933 0.78589 0.0
H1466 H 0.57035 0.7423 0.81488 0.0
H1467 H 0.58211 0.77221 0.79154 0.0
O1468 O 0.61461 0.75483 0.84022 0.0
O1469 O 0.59058 0.74535 0.8361 0.0
O1470 O 0.59466 0.77043 0.82831 0.0
O1471 O 0.60465 0.7527 0.80306 0.0
H1472 H 0.63165 0.74313 0.82742 0.0
H1473 H 0.62237 0.77401 0.85288 0.0
H1474 H 0.65146 0.74948 0.82735 0.0
H1475 H 0.64235 0.77982 0.85234 0.0
H1476 H 0.5835 0.70855 0.82512 0.0
H1477 H 0.59263 0.73781 0.86864 0.0
H1478 H 0.58563 0.72827 0.81529 0.0
H1479 H 0.59033 0.71793 0.87753 0.0
H1480 H 0.6101 0.7655 0.90731 0.0
H1481 H 0.57441 0.76243 0.89807 0.0
H1482 H 0.62177 0.7115 0.79345 0.0
H1483 H 0.62314 0.71027 0.85015 0.0
H1484 H 0.57254 0.77179 0.83113 0.0
H1485 H 0.60389 0.78467 0.8507 0.0
H1486 H 0.56249 0.78436 0.85172 0.0
H1487 H 0.59327 0.797 0.87099 0.0
H1488 H 0.6067 0.76956 0.78063 0.0
H1489 H 0.59303 0.73644 0.7879 0.0
H1490 H 0.59875 0.76979 0.75058 0.0
H1491 H 0.58528 0.73728 0.75773 0.0
H1492 H 0.64224 0.77591 0.78576 0.0
H1493 H 0.62236 0.80303 0.8071 0.0
H1494 H 0.55232 0.74397 0.79956 0.0
H1495 H 0.56447 0.77441 0.77509 0.0
Li1496 Li 0.2531 0.60593 0.82624 0.0
Li1497 Li 0.2395 0.59784 0.84794 0.0
Li1498 Li 0.24287 0.58964 0.81792 0.0
Li1499 Li 0.23319 0.60676 0.82095 0.0
C1500 C 0.26426 0.59072 0.84409 0.0
N1501 N 0.28609 0.59101 0.85632 0.0
C1502 C 0.26641 0.59212 0.86198 0.0
C1503 C 0.27323 0.58937 0.83245 0.0
C1504 C 0.27751 0.59226 0.8679 0.0
C1505 C 0.2842 0.58958 0.83888 0.0
C1506 C 0.23767 0.62417 0.84112 0.0
C1507 C 0.22439 0.6379 0.85157 0.0
N1508 N 0.22893 0.64563 0.84053 0.0
C1509 C 0.24222 0.63226 0.82992 0.0
C1510 C 0.2287 0.627 0.85207 0.0
C1511 C 0.23767 0.64306 0.8298 0.0
C1512 C 0.27158 0.6165 0.80947 0.0
N1513 N 0.26668 0.61418 0.82513 0.0
C1514 C 0.28085 0.6244 0.84043 0.0
C1515 C 0.27103 0.61805 0.84045 0.0
C1516 C 0.28616 0.6269 0.82446 0.0
C1517 C 0.28142 0.62283 0.80883 0.0
H1518 H 0.26776 0.61361 0.79745 0.0
H1519 H 0.26681 0.61623 0.85268 0.0
C1520 C 0.23431 0.58474 0.8779 0.0
N1521 N 0.23688 0.5952 0.87205 0.0
C1522 C 0.23259 0.58283 0.89578 0.0
C1523 C 0.23625 0.6025 0.90118 0.0
C1524 C 0.23795 0.604 0.88325 0.0
C1525 C 0.23351 0.59181 0.90765 0.0
H1526 H 0.23361 0.57789 0.86865 0.0
H1527 H 0.24028 0.61216 0.87827 0.0
C1528 C 0.24626 0.59853 0.78787 0.0
N1529 N 0.24818 0.58783 0.75584 0.0
C1530 C 0.23695 0.59762 0.77679 0.0
C1531 C 0.25654 0.59398 0.78263 0.0
C1532 C 0.2381 0.5922 0.76064 0.0
C1533 C 0.25733 0.5886 0.76641 0.0
C1534 C 0.21697 0.5923 0.83048 0.0
C1535 C 0.21113 0.59193 0.81458 0.0
C1536 C 0.211 0.5929 0.84623 0.0
C1537 C 0.19942 0.59221 0.81471 0.0
C1538 C 0.19928 0.59314 0.84581 0.0
N1539 N 0.19378 0.59279 0.83019 0.0
C1540 C 0.25311 0.56938 0.80692 0.0
C1541 C 0.23495 0.57258 0.79533 0.0
C1542 C 0.25393 0.55929 0.79774 0.0
N1543 N 0.24372 0.57579 0.80554 0.0
C1544 C 0.23542 0.56259 0.78588 0.0
C1545 C 0.24498 0.55575 0.78711 0.0
H1546 H 0.25992 0.57206 0.81526 0.0
H1547 H 0.2276 0.57781 0.79441 0.0
C1548 C 0.22473 0.62193 0.79646 0.0
N1549 N 0.22199 0.61664 0.81164 0.0
C1550 C 0.21725 0.62938 0.78864 0.0
C1551 C 0.20437 0.62621 0.81261 0.0
C1552 C 0.21215 0.61884 0.82 0.0
C1553 C 0.20688 0.63154 0.79666 0.0
H1554 H 0.23279 0.62041 0.79042 0.0
H1555 H 0.21035 0.61497 0.83248 0.0
O1556 O 0.25346 0.59076 0.838 0.0
O1557 O 0.24179 0.61347 0.84105 0.0
O1558 O 0.24525 0.60362 0.8039 0.0
O1559 O 0.22845 0.5919 0.83069 0.0
H1560 H 0.25961 0.59316 0.8712 0.0
H1561 H 0.27174 0.58835 0.81856 0.0
H1562 H 0.27929 0.59339 0.88169 0.0
H1563 H 0.29121 0.58864 0.83 0.0
H1564 H 0.21741 0.64018 0.85988 0.0
H1565 H 0.2491 0.63017 0.82126 0.0
H1566 H 0.22497 0.62079 0.86063 0.0
H1567 H 0.24107 0.64939 0.82113 0.0
H1568 H 0.28425 0.62731 0.85279 0.0
H1569 H 0.28511 0.62477 0.79621 0.0
H1570 H 0.23046 0.57448 0.90025 0.0
H1571 H 0.23727 0.60958 0.90991 0.0
H1572 H 0.22887 0.60089 0.78069 0.0
H1573 H 0.26379 0.59444 0.7911 0.0
H1574 H 0.23095 0.5914 0.75199 0.0
H1575 H 0.26522 0.58499 0.76226 0.0
H1576 H 0.21557 0.59172 0.80225 0.0
H1577 H 0.21534 0.59321 0.85866 0.0
H1578 H 0.1948 0.59202 0.8025 0.0
H1579 H 0.19457 0.59361 0.8579 0.0
H1580 H 0.26137 0.55417 0.79934 0.0
H1581 H 0.22837 0.56024 0.77771 0.0
H1582 H 0.21952 0.63329 0.77633 0.0
H1583 H 0.19657 0.62786 0.81942 0.0
Li1584 Li 0.39014 0.25308 0.82094 0.0
Li1585 Li 0.39635 0.24063 0.84508 0.0
Li1586 Li 0.40611 0.24187 0.81768 0.0
Li1587 Li 0.3877 0.23277 0.81786 0.0
C1588 C 0.41464 0.25809 0.83519 0.0
N1589 N 0.43662 0.26545 0.83404 0.0
C1590 C 0.42251 0.25395 0.84714 0.0
C1591 C 0.41793 0.26606 0.82277 0.0
C1592 C 0.43358 0.25775 0.84632 0.0
C1593 C 0.42909 0.26965 0.82237 0.0
C1594 C 0.37193 0.24647 0.84465 0.0
C1595 C 0.35346 0.24361 0.85676 0.0
N1596 N 0.35356 0.25427 0.86308 0.0
C1597 C 0.37188 0.25739 0.85136 0.0
C1598 C 0.36267 0.2395 0.84742 0.0
C1599 C 0.3625 0.26118 0.86061 0.0
C1600 C 0.37237 0.26595 0.80801 0.0
N1601 N 0.38259 0.26672 0.81583 0.0
C1602 C 0.38102 0.28666 0.81752 0.0
C1603 C 0.387 0.27678 0.82059 0.0
C1604 C 0.37047 0.28611 0.80938 0.0
C1605 C 0.36619 0.2756 0.80448 0.0
H1606 H 0.36898 0.2578 0.80474 0.0
H1607 H 0.39504 0.2771 0.82713 0.0
C1608 C 0.40683 0.23223 0.87557 0.0
N1609 N 0.39793 0.23838 0.86983 0.0
C1610 C 0.40846 0.23041 0.89349 0.0
C1611 C 0.39172 0.2412 0.8993 0.0
C1612 C 0.39045 0.24286 0.88131 0.0
C1613 C 0.40083 0.23492 0.9056 0.0
H1614 H 0.4127 0.22878 0.8662 0.0
H1615 H 0.38352 0.24778 0.87662 0.0
C1616 C 0.38973 0.24924 0.78653 0.0
N1617 N 0.38088 0.26124 0.75875 0.0
C1618 C 0.38076 0.24489 0.77687 0.0
C1619 C 0.39431 0.25962 0.78186 0.0
C1620 C 0.37638 0.2511 0.76291 0.0
C1621 C 0.38968 0.26558 0.76784 0.0
C1622 C 0.39962 0.21796 0.83872 0.0
C1623 C 0.40758 0.20935 0.83826 0.0
C1624 C 0.38953 0.21632 0.84771 0.0
C1625 C 0.40531 0.19924 0.84681 0.0
C1626 C 0.38758 0.20609 0.8561 0.0
N1627 N 0.39544 0.19783 0.85548 0.0
C1628 C 0.42808 0.23389 0.81589 0.0
C1629 C 0.42308 0.24585 0.79229 0.0
C1630 C 0.43875 0.23233 0.80883 0.0
N1631 N 0.42053 0.24055 0.80756 0.0
C1632 C 0.43369 0.2446 0.78484 0.0
C1633 C 0.44165 0.23772 0.7931 0.0
H1634 H 0.4258 0.2298 0.82804 0.0
H1635 H 0.41688 0.25101 0.78589 0.0
C1636 C 0.36743 0.22367 0.80598 0.0
N1637 N 0.3785 0.22142 0.80832 0.0
C1638 C 0.36051 0.21585 0.79776 0.0
C1639 C 0.37647 0.20345 0.79486 0.0
C1640 C 0.38311 0.21156 0.80302 0.0
C1641 C 0.36504 0.20563 0.79196 0.0
H1642 H 0.36408 0.2317 0.81 0.0
H1643 H 0.39199 0.2101 0.80477 0.0
O1644 O 0.40384 0.25421 0.83546 0.0
O1645 O 0.38092 0.24263 0.83522 0.0
O1646 O 0.39405 0.24331 0.80037 0.0
O1647 O 0.40179 0.2279 0.83038 0.0
H1648 H 0.42013 0.24779 0.85683 0.0
H1649 H 0.41198 0.26936 0.81342 0.0
H1650 H 0.43977 0.25456 0.85542 0.0
H1651 H 0.43176 0.27576 0.81274 0.0
H1652 H 0.34624 0.2383 0.85899 0.0
H1653 H 0.37908 0.26281 0.84975 0.0
H1654 H 0.36261 0.23099 0.8425 0.0
H1655 H 0.36235 0.26961 0.86588 0.0
H1656 H 0.38457 0.29462 0.82153 0.0
H1657 H 0.35798 0.27482 0.79849 0.0
H1658 H 0.41556 0.22545 0.89779 0.0
H1659 H 0.38573 0.24497 0.9082 0.0
H1660 H 0.37722 0.2368 0.78005 0.0
H1661 H 0.40121 0.26315 0.78919 0.0
H1662 H 0.36941 0.24785 0.75539 0.0
H1663 H 0.39307 0.27368 0.76424 0.0
H1664 H 0.41542 0.21048 0.83133 0.0
H1665 H 0.38326 0.22286 0.84827 0.0
H1666 H 0.41139 0.19251 0.84655 0.0
H1667 H 0.37981 0.20472 0.86312 0.0
H1668 H 0.44472 0.22709 0.81573 0.0
H1669 H 0.43561 0.24885 0.77264 0.0
H1670 H 0.35172 0.21782 0.79584 0.0
H1671 H 0.3803 0.19573 0.79037 0.0
Li1672 Li 0.75657 0.39872 0.84646 0.0
Li1673 Li 0.7441 0.3918 0.82346 0.0
Li1674 Li 0.76503 0.38968 0.82041 0.0
Li1675 Li 0.75573 0.40762 0.81652 0.0
C1676 C 0.75719 0.37476 0.84989 0.0
N1677 N 0.76212 0.35789 0.87358 0.0
C1678 C 0.74856 0.36851 0.85756 0.0
C1679 C 0.76834 0.37224 0.854 0.0
C1680 C 0.75122 0.36008 0.86959 0.0
C1681 C 0.77066 0.36373 0.86606 0.0
C1682 C 0.73284 0.40899 0.83777 0.0
C1683 C 0.71433 0.4132 0.8268 0.0
N1684 N 0.71028 0.41295 0.84346 0.0
C1685 C 0.72852 0.40891 0.85481 0.0
C1686 C 0.72571 0.41128 0.82366 0.0
C1687 C 0.71709 0.41088 0.85741 0.0
C1688 C 0.76448 0.40852 0.87849 0.0
N1689 N 0.75754 0.40077 0.87116 0.0
C1690 C 0.75103 0.39508 0.8994 0.0
C1691 C 0.75078 0.39422 0.8812 0.0
C1692 C 0.75826 0.40284 0.90742 0.0
C1693 C 0.76504 0.40964 0.89672 0.0
H1694 H 0.76957 0.41382 0.87019 0.0
H1695 H 0.74506 0.38841 0.87503 0.0
C1696 C 0.72691 0.38064 0.80433 0.0
N1697 N 0.73015 0.38448 0.82032 0.0
C1698 C 0.71706 0.37436 0.80264 0.0
C1699 C 0.71402 0.3764 0.83383 0.0
C1700 C 0.72389 0.38259 0.8349 0.0
C1701 C 0.71061 0.372 0.81761 0.0
H1702 H 0.73214 0.38215 0.79299 0.0
H1703 H 0.72675 0.38564 0.84748 0.0
C1704 C 0.7801 0.40544 0.83602 0.0
N1705 N 0.80238 0.40785 0.84542 0.0
C1706 C 0.78705 0.41283 0.82681 0.0
C1707 C 0.78446 0.39945 0.85023 0.0
C1708 C 0.7983 0.41388 0.83169 0.0
C1709 C 0.79574 0.40074 0.85472 0.0
C1710 C 0.75366 0.39732 0.78542 0.0
C1711 C 0.76324 0.39601 0.77508 0.0
C1712 C 0.7441 0.40234 0.77826 0.0
C1713 C 0.76319 0.39995 0.75783 0.0
C1714 C 0.74438 0.40619 0.76096 0.0
N1715 N 0.75384 0.40494 0.75119 0.0
C1716 C 0.77459 0.36911 0.81076 0.0
C1717 C 0.78635 0.38482 0.80573 0.0
C1718 C 0.78255 0.36194 0.80341 0.0
N1719 N 0.77663 0.38031 0.8118 0.0
C1720 C 0.79454 0.37797 0.79827 0.0
C1721 C 0.79264 0.36637 0.79691 0.0
H1722 H 0.76669 0.36578 0.81542 0.0
H1723 H 0.78759 0.39378 0.80607 0.0
C1724 C 0.74927 0.42951 0.80643 0.0
N1725 N 0.75686 0.42119 0.80378 0.0
C1726 C 0.75039 0.43972 0.79765 0.0
C1727 C 0.767 0.4325 0.78338 0.0
C1728 C 0.76556 0.42245 0.79245 0.0
C1729 C 0.75944 0.44135 0.78611 0.0
H1730 H 0.74251 0.42833 0.81569 0.0
H1731 H 0.77151 0.4157 0.79069 0.0
O1732 O 0.75471 0.38304 0.83803 0.0
O1733 O 0.74399 0.40694 0.83495 0.0
O1734 O 0.76906 0.40432 0.83137 0.0
O1735 O 0.7536 0.39362 0.80241 0.0
H1736 H 0.7399 0.37018 0.85437 0.0
H1737 H 0.77515 0.37665 0.84774 0.0
H1738 H 0.74461 0.35525 0.87573 0.0
H1739 H 0.77926 0.36173 0.86937 0.0
H1740 H 0.70871 0.4149 0.81598 0.0
H1741 H 0.73392 0.40732 0.86591 0.0
H1742 H 0.72893 0.41154 0.81044 0.0
H1743 H 0.71363 0.41076 0.87052 0.0
H1744 H 0.74571 0.38961 0.90711 0.0
H1745 H 0.7706 0.41585 0.90237 0.0
H1746 H 0.71479 0.37101 0.78993 0.0
H1747 H 0.70922 0.37489 0.84565 0.0
H1748 H 0.78381 0.41768 0.81596 0.0
H1749 H 0.77915 0.39401 0.85791 0.0
H1750 H 0.80377 0.41951 0.82458 0.0
H1751 H 0.79921 0.39613 0.86568 0.0
H1752 H 0.77068 0.39206 0.78033 0.0
H1753 H 0.73655 0.40326 0.78595 0.0
H1754 H 0.77058 0.39906 0.74972 0.0
H1755 H 0.73706 0.41016 0.75529 0.0
H1756 H 0.78078 0.35304 0.80274 0.0
H1757 H 0.80209 0.38177 0.79307 0.0
H1758 H 0.74449 0.4464 0.80041 0.0
H1759 H 0.77405 0.43338 0.77452 0.0
Li1760 Li 0.58698 0.24051 0.18266 0.0
Li1761 Li 0.60402 0.2309 0.17935 0.0
Li1762 Li 0.60341 0.25098 0.17553 0.0
Li1763 Li 0.59546 0.23807 0.15259 0.0
C1764 C 0.59557 0.24348 0.21306 0.0
N1765 N 0.58453 0.24547 0.24479 0.0
C1766 C 0.59366 0.234 0.22344 0.0
C1767 C 0.59189 0.25398 0.21887 0.0
C1768 C 0.58807 0.23518 0.23943 0.0
C1769 C 0.58631 0.2548 0.23493 0.0
C1770 C 0.58994 0.215 0.16806 0.0
C1771 C 0.59159 0.19788 0.15137 0.0
N1772 N 0.59102 0.19185 0.16649 0.0
C1773 C 0.58935 0.20862 0.18343 0.0
C1774 C 0.59107 0.20959 0.1519 0.0
C1775 C 0.58992 0.19694 0.18236 0.0
C1776 C 0.56706 0.25077 0.19517 0.0
N1777 N 0.57307 0.24108 0.19492 0.0
C1778 C 0.55959 0.23207 0.21331 0.0
C1779 C 0.56951 0.23181 0.20365 0.0
C1780 C 0.55317 0.24194 0.21379 0.0
C1781 C 0.55704 0.25139 0.20457 0.0
H1782 H 0.57001 0.25799 0.18801 0.0
H1783 H 0.57443 0.22423 0.20331 0.0
C1784 C 0.61799 0.22115 0.20447 0.0
N1785 N 0.61363 0.21933 0.18826 0.0
C1786 C 0.62478 0.21311 0.21237 0.0
C1787 C 0.62304 0.20166 0.18636 0.0
C1788 C 0.61627 0.20996 0.17895 0.0
C1789 C 0.62724 0.20312 0.20342 0.0
H1790 H 0.61623 0.22889 0.21129 0.0
H1791 H 0.61307 0.20887 0.16581 0.0
C1792 C 0.58794 0.26271 0.15826 0.0
N1793 N 0.58733 0.28489 0.1477 0.0
C1794 C 0.58851 0.26543 0.14045 0.0
C1795 C 0.58693 0.27128 0.17068 0.0
C1796 C 0.58821 0.27669 0.13538 0.0
C1797 C 0.58668 0.28244 0.16508 0.0
C1798 C 0.62161 0.23575 0.15965 0.0
C1799 C 0.62966 0.23939 0.1717 0.0
C1800 C 0.62439 0.22753 0.14733 0.0
C1801 C 0.64038 0.23466 0.17129 0.0
C1802 C 0.63521 0.22302 0.14734 0.0
N1803 N 0.64291 0.22665 0.15923 0.0
C1804 C 0.61537 0.26793 0.19376 0.0
C1805 C 0.61486 0.26982 0.16283 0.0
C1806 C 0.62209 0.27748 0.19522 0.0
N1807 N 0.61186 0.26437 0.17775 0.0
C1808 C 0.62148 0.27945 0.16367 0.0
C1809 C 0.62527 0.28335 0.18002 0.0
H1810 H 0.6132 0.26321 0.20536 0.0
H1811 H 0.61218 0.26663 0.15024 0.0
C1812 C 0.58342 0.23314 0.12114 0.0
N1813 N 0.59333 0.23659 0.12813 0.0
C1814 C 0.58201 0.2328 0.10294 0.0
C1815 C 0.60101 0.23963 0.09964 0.0
C1816 C 0.60206 0.23977 0.11782 0.0
C1817 C 0.59086 0.2362 0.09197 0.0
H1818 H 0.57658 0.23079 0.12972 0.0
H1819 H 0.60978 0.24264 0.12377 0.0
O1820 O 0.60081 0.24246 0.19715 0.0
O1821 O 0.58926 0.22646 0.16876 0.0
O1822 O 0.58834 0.25172 0.16349 0.0
O1823 O 0.61099 0.24005 0.16016 0.0
H1824 H 0.59629 0.22578 0.21908 0.0
H1825 H 0.59321 0.2614 0.21101 0.0
H1826 H 0.58649 0.2279 0.24753 0.0
H1827 H 0.58336 0.26287 0.23952 0.0
H1828 H 0.59249 0.19359 0.13895 0.0
H1829 H 0.58875 0.21263 0.19609 0.0
H1830 H 0.5916 0.21435 0.13987 0.0
H1831 H 0.58957 0.19191 0.19416 0.0
H1832 H 0.55701 0.22462 0.22037 0.0
H1833 H 0.55225 0.25911 0.20428 0.0
H1834 H 0.62814 0.21473 0.22532 0.0
H1835 H 0.6248 0.19411 0.17895 0.0
H1836 H 0.58918 0.25894 0.13062 0.0
H1837 H 0.58652 0.26936 0.1845 0.0
H1838 H 0.58869 0.2789 0.12164 0.0
H1839 H 0.58601 0.28915 0.17457 0.0
H1840 H 0.6276 0.24569 0.18139 0.0
H1841 H 0.61821 0.22455 0.13803 0.0
H1842 H 0.64668 0.23735 0.1806 0.0
H1843 H 0.63747 0.21661 0.13795 0.0
H1844 H 0.62503 0.28002 0.20805 0.0
H1845 H 0.62364 0.28375 0.15163 0.0
H1846 H 0.57403 0.23019 0.09752 0.0
H1847 H 0.60807 0.24219 0.09166 0.0
Li1848 Li 0.76218 0.60916 0.18116 0.0
Li1849 Li 0.75323 0.59089 0.18205 0.0
Li1850 Li 0.75424 0.60153 0.15479 0.0
Li1851 Li 0.74183 0.60723 0.17875 0.0
C1852 C 0.77799 0.59535 0.171 0.0
N1853 N 0.80083 0.59612 0.17713 0.0
C1854 C 0.78276 0.58866 0.18407 0.0
C1855 C 0.78484 0.6024 0.161 0.0
C1856 C 0.79433 0.58917 0.18697 0.0
C1857 C 0.79636 0.60269 0.16432 0.0
C1858 C 0.74598 0.60748 0.21288 0.0
C1859 C 0.73009 0.60726 0.23247 0.0
N1860 N 0.7341 0.61663 0.24051 0.0
C1861 C 0.74995 0.61709 0.22137 0.0
C1862 C 0.73599 0.6025 0.21851 0.0
C1863 C 0.74382 0.62158 0.23531 0.0
C1864 C 0.77653 0.628 0.18387 0.0
N1865 N 0.77396 0.61782 0.19078 0.0
C1866 C 0.78849 0.61959 0.21214 0.0
C1867 C 0.77965 0.61358 0.20473 0.0
C1868 C 0.79139 0.63014 0.20528 0.0
C1869 C 0.78526 0.63434 0.19095 0.0
H1870 H 0.77174 0.63123 0.17295 0.0
H1871 H 0.7773 0.60551 0.21007 0.0
C1872 C 0.75984 0.56855 0.18169 0.0
N1873 N 0.7544 0.57631 0.19157 0.0
C1874 C 0.76152 0.55776 0.18812 0.0
C1875 C 0.75177 0.56305 0.21468 0.0
C1876 C 0.75036 0.57381 0.20777 0.0
C1877 C 0.75751 0.55493 0.20485 0.0
H1878 H 0.76298 0.57083 0.16886 0.0
H1879 H 0.74618 0.58019 0.21541 0.0
C1880 C 0.75087 0.62323 0.15011 0.0
N1881 N 0.74834 0.63546 0.11958 0.0
C1882 C 0.74025 0.62697 0.14498 0.0
C1883 C 0.76022 0.6258 0.13979 0.0
C1884 C 0.73915 0.63313 0.12949 0.0
C1885 C 0.75876 0.63196 0.12437 0.0
C1886 C 0.73715 0.58287 0.16297 0.0
C1887 C 0.74104 0.57598 0.14945 0.0
C1888 C 0.72957 0.57861 0.17526 0.0
C1889 C 0.73734 0.56488 0.14853 0.0
C1890 C 0.72608 0.56745 0.1739 0.0
N1891 N 0.73001 0.56087 0.16068 0.0
C1892 C 0.765 0.59684 0.12236 0.0
C1893 C 0.74619 0.60318 0.12034 0.0
C1894 C 0.76578 0.5962 0.10412 0.0
N1895 N 0.75535 0.60042 0.13003 0.0
C1896 C 0.74664 0.60281 0.10208 0.0
C1897 C 0.75655 0.59932 0.09377 0.0
H1898 H 0.77208 0.59448 0.1304 0.0
H1899 H 0.73854 0.60573 0.12683 0.0
C1900 C 0.72791 0.62423 0.19218 0.0
N1901 N 0.7279 0.6142 0.18369 0.0
C1902 C 0.71787 0.6299 0.19513 0.0
C1903 C 0.70803 0.61503 0.17997 0.0
C1904 C 0.71825 0.60952 0.17763 0.0
C1905 C 0.7078 0.62536 0.18879 0.0
H1906 H 0.73576 0.62792 0.19633 0.0
H1907 H 0.71854 0.60165 0.1706 0.0
O1908 O 0.76665 0.59513 0.16817 0.0
O1909 O 0.75182 0.603 0.19912 0.0
O1910 O 0.7521 0.61702 0.16507 0.0
O1911 O 0.74092 0.59366 0.16439 0.0
H1912 H 0.77759 0.58325 0.19209 0.0
H1913 H 0.78128 0.6077 0.15092 0.0
H1914 H 0.79813 0.58408 0.1971 0.0
H1915 H 0.80175 0.60815 0.15676 0.0
H1916 H 0.72231 0.60354 0.23687 0.0
H1917 H 0.75764 0.62109 0.21717 0.0
H1918 H 0.73273 0.59514 0.21197 0.0
H1919 H 0.74678 0.62904 0.24196 0.0
H1920 H 0.79304 0.61597 0.22305 0.0
H1921 H 0.78704 0.64252 0.18546 0.0
H1922 H 0.76585 0.55166 0.18004 0.0
H1923 H 0.7486 0.56117 0.22766 0.0
H1924 H 0.73291 0.62506 0.15276 0.0
H1925 H 0.76849 0.62294 0.14352 0.0
H1926 H 0.73097 0.63603 0.12531 0.0
H1927 H 0.76591 0.63392 0.11619 0.0
H1928 H 0.74696 0.57914 0.13989 0.0
H1929 H 0.72652 0.58382 0.18585 0.0
H1930 H 0.74033 0.55943 0.13819 0.0
H1931 H 0.72028 0.56401 0.18339 0.0
H1932 H 0.77356 0.59346 0.09817 0.0
H1933 H 0.73929 0.60511 0.09454 0.0
H1934 H 0.71802 0.63797 0.20168 0.0
H1935 H 0.70041 0.61134 0.17482 0.0
Li1936 Li 0.40827 0.75493 0.18136 0.0
Li1937 Li 0.39062 0.76479 0.178 0.0
Li1938 Li 0.39206 0.74472 0.17202 0.0
Li1939 Li 0.40037 0.75856 0.15234 0.0
C1940 C 0.39802 0.75192 0.21118 0.0
N1941 N 0.40697 0.75121 0.24459 0.0
C1942 C 0.39778 0.76147 0.22183 0.0
C1943 C 0.40277 0.742 0.21756 0.0
C1944 C 0.40235 0.76093 0.23868 0.0
C1945 C 0.40727 0.74182 0.23447 0.0
C1946 C 0.41179 0.77652 0.15975 0.0
C1947 C 0.41318 0.79098 0.13772 0.0
N1948 N 0.42453 0.78975 0.13763 0.0
C1949 C 0.42346 0.7754 0.15945 0.0
C1950 C 0.4066 0.78439 0.14883 0.0
C1951 C 0.42976 0.78217 0.14819 0.0
C1952 C 0.42828 0.74542 0.19517 0.0
N1953 N 0.42151 0.75459 0.19506 0.0
C1954 C 0.43362 0.76418 0.21498 0.0
C1955 C 0.42394 0.76385 0.20473 0.0
C1956 C 0.44086 0.75489 0.21521 0.0
C1957 C 0.43804 0.74537 0.20528 0.0
H1958 H 0.42619 0.73822 0.18724 0.0
H1959 H 0.41837 0.77101 0.20434 0.0
C1960 C 0.3727 0.77234 0.19838 0.0
N1961 N 0.38134 0.7759 0.1882 0.0
C1962 C 0.3658 0.78009 0.20679 0.0
C1963 C 0.37684 0.79505 0.19409 0.0
C1964 C 0.38355 0.78699 0.18593 0.0
C1965 C 0.36787 0.79162 0.20477 0.0
H1966 H 0.37124 0.76344 0.20005 0.0
H1967 H 0.39059 0.78957 0.178 0.0
C1968 C 0.40809 0.7338 0.15553 0.0
N1969 N 0.40876 0.71187 0.14384 0.0
C1970 C 0.40705 0.73144 0.13765 0.0
C1971 C 0.40952 0.72501 0.16746 0.0
C1972 C 0.40742 0.72029 0.132 0.0
C1973 C 0.40981 0.71398 0.16129 0.0
C1974 C 0.37374 0.76038 0.15761 0.0
C1975 C 0.36499 0.75406 0.16477 0.0
C1976 C 0.37156 0.77111 0.151 0.0
C1977 C 0.35419 0.7586 0.16526 0.0
C1978 C 0.36065 0.77536 0.15177 0.0
N1979 N 0.35226 0.76907 0.15882 0.0
C1980 C 0.38138 0.72608 0.18811 0.0
C1981 C 0.38106 0.72634 0.15703 0.0
C1982 C 0.37521 0.71613 0.18836 0.0
N1983 N 0.38418 0.73093 0.17259 0.0
C1984 C 0.37499 0.71635 0.15665 0.0
C1985 C 0.37188 0.71115 0.17247 0.0
H1986 H 0.38375 0.73006 0.20029 0.0
H1987 H 0.38323 0.73051 0.14491 0.0
C1988 C 0.41433 0.76066 0.12236 0.0
N1989 N 0.40364 0.76159 0.12838 0.0
C1990 C 0.41667 0.76232 0.1046 0.0
C1991 C 0.39696 0.76587 0.09964 0.0
C1992 C 0.39501 0.76414 0.11746 0.0
C1993 C 0.40789 0.76489 0.09295 0.0
H1994 H 0.42101 0.75846 0.13132 0.0
H1995 H 0.38656 0.7646 0.12252 0.0
O1996 O 0.39385 0.75235 0.19449 0.0
O1997 O 0.40546 0.76984 0.17045 0.0
O1998 O 0.40761 0.74465 0.16134 0.0
O1999 O 0.38443 0.75619 0.15738 0.0
H2000 H 0.39424 0.76925 0.21707 0.0
H2001 H 0.40313 0.73457 0.20944 0.0
H2002 H 0.40227 0.76827 0.24703 0.0
H2003 H 0.41104 0.73422 0.23952 0.0
H2004 H 0.40927 0.79704 0.12912 0.0
H2005 H 0.42762 0.76929 0.16768 0.0
H2006 H 0.39757 0.78526 0.14873 0.0
H2007 H 0.43879 0.78137 0.14777 0.0
H2008 H 0.43547 0.77166 0.22252 0.0
H2009 H 0.4435 0.73812 0.20485 0.0
H2010 H 0.3589 0.77708 0.21474 0.0
H2011 H 0.37881 0.80385 0.19238 0.0
H2012 H 0.40588 0.73811 0.12823 0.0
H2013 H 0.41019 0.72666 0.18136 0.0
H2014 H 0.40659 0.71834 0.11821 0.0
H2015 H 0.41082 0.70709 0.17039 0.0
H2016 H 0.36653 0.74578 0.17005 0.0
H2017 H 0.37825 0.77617 0.14561 0.0
H2018 H 0.34735 0.75382 0.17082 0.0
H2019 H 0.35885 0.78367 0.14682 0.0
H2020 H 0.37281 0.71256 0.20086 0.0
H2021 H 0.37275 0.71277 0.14409 0.0
H2022 H 0.42523 0.76154 0.10002 0.0
H2023 H 0.3899 0.76761 0.09111 0.0
Li2024 Li 0.24158 0.40497 0.18233 0.0
Li2025 Li 0.23318 0.38647 0.1806 0.0
Li2026 Li 0.25343 0.38902 0.17859 0.0
Li2027 Li 0.24102 0.39472 0.15466 0.0
C2028 C 0.24927 0.38821 0.21254 0.0
N2029 N 0.26161 0.37908 0.23971 0.0
C2030 C 0.24582 0.37821 0.22046 0.0
C2031 C 0.25898 0.39358 0.21849 0.0
C2032 C 0.25217 0.37373 0.23418 0.0
C2033 C 0.26511 0.38882 0.23221 0.0
C2034 C 0.21706 0.39989 0.17123 0.0
C2035 C 0.19887 0.39208 0.16467 0.0
N2036 N 0.19437 0.39812 0.17807 0.0
C2037 C 0.21225 0.40604 0.18491 0.0
C2038 C 0.21032 0.39288 0.16099 0.0
C2039 C 0.20076 0.40503 0.18815 0.0
C2040 C 0.23467 0.42725 0.1825 0.0
N2041 N 0.23995 0.41938 0.19237 0.0
C2042 C 0.24201 0.4323 0.21608 0.0
C2043 C 0.24358 0.42164 0.20889 0.0
C2044 C 0.23652 0.44058 0.2062 0.0
C2045 C 0.23285 0.43796 0.18918 0.0
H2046 H 0.23181 0.42515 0.16944 0.0
H2047 H 0.24761 0.41517 0.21653 0.0
C2048 C 0.21896 0.36744 0.18211 0.0
N2049 N 0.22167 0.37731 0.18992 0.0
C2050 C 0.21064 0.36061 0.18931 0.0
C2051 C 0.20809 0.37428 0.21241 0.0
C2052 C 0.21645 0.38083 0.20476 0.0
C2053 C 0.20514 0.36399 0.20473 0.0
H2054 H 0.22332 0.36481 0.17039 0.0
H2055 H 0.21892 0.38867 0.21078 0.0
C2056 C 0.25752 0.41375 0.16364 0.0
N2057 N 0.264 0.43597 0.16192 0.0
C2058 C 0.25364 0.42058 0.15004 0.0
C2059 C 0.26475 0.41818 0.1763 0.0
C2060 C 0.25702 0.4318 0.1494 0.0
C2061 C 0.2679 0.42945 0.17522 0.0
C2062 C 0.24513 0.37326 0.14916 0.0
C2063 C 0.25591 0.36991 0.1442 0.0
C2064 C 0.23598 0.37065 0.13844 0.0
C2065 C 0.25736 0.36406 0.12849 0.0
C2066 C 0.23779 0.36481 0.12281 0.0
N2067 N 0.24835 0.36166 0.1182 0.0
C2068 C 0.26729 0.37195 0.19126 0.0
C2069 C 0.2772 0.38757 0.17978 0.0
C2070 C 0.27732 0.36649 0.19512 0.0
N2071 N 0.26743 0.38232 0.18388 0.0
C2072 C 0.28745 0.38231 0.18312 0.0
C2073 C 0.28755 0.37164 0.19091 0.0
H2074 H 0.25938 0.36787 0.19393 0.0
H2075 H 0.27703 0.39575 0.17364 0.0
C2076 C 0.23022 0.39958 0.12233 0.0
N2077 N 0.23997 0.39621 0.12991 0.0
C2078 C 0.22947 0.40063 0.10413 0.0
C2079 C 0.24886 0.39482 0.10193 0.0
C2080 C 0.24925 0.394 0.12017 0.0
C2081 C 0.23886 0.39818 0.09364 0.0
H2082 H 0.22304 0.40153 0.13042 0.0
H2083 H 0.25695 0.39152 0.12659 0.0
O2084 O 0.24323 0.39266 0.19895 0.0
O2085 O 0.22834 0.40057 0.1681 0.0
O2086 O 0.25408 0.40283 0.16475 0.0
O2087 O 0.24355 0.37914 0.16437 0.0
H2088 H 0.23839 0.37388 0.21597 0.0
H2089 H 0.26186 0.40124 0.21237 0.0
H2090 H 0.24962 0.36598 0.24038 0.0
H2091 H 0.27269 0.39285 0.23685 0.0
H2092 H 0.19357 0.38663 0.15693 0.0
H2093 H 0.21735 0.41141 0.1931 0.0
H2094 H 0.21392 0.38798 0.15046 0.0
H2095 H 0.19693 0.40969 0.19875 0.0
H2096 H 0.24489 0.434 0.22928 0.0
H2097 H 0.22872 0.44417 0.18105 0.0
H2098 H 0.20855 0.35279 0.18288 0.0
H2099 H 0.20419 0.37712 0.22444 0.0
H2100 H 0.248 0.41731 0.14019 0.0
H2101 H 0.26777 0.41301 0.18696 0.0
H2102 H 0.25404 0.43721 0.13901 0.0
H2103 H 0.27343 0.43301 0.185 0.0
H2104 H 0.2631 0.37189 0.15228 0.0
H2105 H 0.2276 0.37326 0.142 0.0
H2106 H 0.26566 0.36145 0.12445 0.0
H2107 H 0.2308 0.36281 0.11432 0.0
H2108 H 0.27708 0.35816 0.2008 0.0
H2109 H 0.2952 0.38649 0.17961 0.0
H2110 H 0.22167 0.40347 0.09838 0.0
H2111 H 0.25627 0.39271 0.09444 0.0
Li2112 Li 0.39043 0.2533 0.17535 0.0
Li2113 Li 0.38963 0.23296 0.17844 0.0
Li2114 Li 0.40745 0.24303 0.18277 0.0
Li2115 Li 0.3996 0.24068 0.15384 0.0
C2116 C 0.3951 0.25082 0.21105 0.0
N2117 N 0.39882 0.26397 0.2403 0.0
C2118 C 0.39173 0.24708 0.22759 0.0
C2119 C 0.40036 0.26124 0.20937 0.0
C2120 C 0.39368 0.25385 0.24223 0.0
C2121 C 0.40217 0.26777 0.22431 0.0
C2122 C 0.37344 0.23792 0.15434 0.0
C2123 C 0.36267 0.22436 0.13796 0.0
N2124 N 0.35305 0.22877 0.14464 0.0
C2125 C 0.36344 0.24243 0.16081 0.0
C2126 C 0.37305 0.22892 0.14262 0.0
C2127 C 0.35322 0.23764 0.15585 0.0
C2128 C 0.38449 0.27614 0.17045 0.0
N2129 N 0.3821 0.26652 0.17924 0.0
C2130 C 0.36721 0.27546 0.19476 0.0
C2131 C 0.37373 0.26602 0.19129 0.0
C2132 C 0.3694 0.28552 0.1858 0.0
C2133 C 0.37823 0.28583 0.17361 0.0
H2134 H 0.3912 0.27624 0.16094 0.0
H2135 H 0.37209 0.25824 0.19814 0.0
C2136 C 0.38379 0.2105 0.18743 0.0
N2137 N 0.3803 0.22136 0.18702 0.0
C2138 C 0.37676 0.20217 0.19415 0.0
C2139 C 0.36278 0.21639 0.2 0.0
C2140 C 0.37013 0.22444 0.19342 0.0
C2141 C 0.36608 0.2051 0.20041 0.0
H2142 H 0.39205 0.20831 0.18276 0.0
H2143 H 0.36777 0.2332 0.19358 0.0
C2144 C 0.41543 0.25775 0.15628 0.0
N2145 N 0.43517 0.26346 0.13949 0.0
C2146 C 0.42406 0.2499 0.15463 0.0
C2147 C 0.41684 0.26852 0.14939 0.0
C2148 C 0.43397 0.25293 0.14611 0.0
C2149 C 0.42689 0.27125 0.14095 0.0
C2150 C 0.4095 0.22002 0.1614 0.0
C2151 C 0.42099 0.21787 0.16292 0.0
C2152 C 0.40287 0.21312 0.15081 0.0
C2153 C 0.4257 0.20899 0.15349 0.0
C2154 C 0.40789 0.20433 0.14159 0.0
N2155 N 0.41911 0.20247 0.14309 0.0
C2156 C 0.42316 0.23414 0.20611 0.0
C2157 C 0.42669 0.25303 0.19807 0.0
C2158 C 0.43276 0.23396 0.21656 0.0
N2159 N 0.42045 0.24352 0.19693 0.0
C2160 C 0.43638 0.25321 0.2083 0.0
C2161 C 0.43961 0.24353 0.21755 0.0
H2162 H 0.4179 0.22677 0.20513 0.0
H2163 H 0.42423 0.26044 0.19086 0.0
C2164 C 0.39433 0.24306 0.11863 0.0
N2165 N 0.40243 0.23891 0.12937 0.0
C2166 C 0.3952 0.24184 0.10051 0.0
C2167 C 0.41296 0.23243 0.10467 0.0
C2168 C 0.41174 0.23384 0.12276 0.0
C2169 C 0.40454 0.23634 0.0933 0.0
H2170 H 0.38712 0.24727 0.12419 0.0
H2171 H 0.41819 0.23079 0.13148 0.0
O2172 O 0.39327 0.24423 0.19664 0.0
O2173 O 0.38353 0.24247 0.15915 0.0
O2174 O 0.40561 0.25494 0.1645 0.0
O2175 O 0.40476 0.22873 0.17047 0.0
H2176 H 0.38765 0.23902 0.22909 0.0
H2177 H 0.40303 0.26427 0.19667 0.0
H2178 H 0.39112 0.25107 0.25512 0.0
H2179 H 0.40623 0.27585 0.22321 0.0
H2180 H 0.36226 0.21736 0.12896 0.0
H2181 H 0.36356 0.24949 0.16969 0.0
H2182 H 0.38066 0.22554 0.13704 0.0
H2183 H 0.34543 0.24098 0.1609 0.0
H2184 H 0.36055 0.27492 0.20438 0.0
H2185 H 0.3801 0.29341 0.16633 0.0
H2186 H 0.37961 0.19354 0.19438 0.0
H2187 H 0.3547 0.21899 0.20508 0.0
H2188 H 0.42312 0.24156 0.15992 0.0
H2189 H 0.41026 0.27473 0.15053 0.0
H2190 H 0.44071 0.24691 0.14476 0.0
H2191 H 0.42809 0.27955 0.13555 0.0
H2192 H 0.42624 0.223 0.17127 0.0
H2193 H 0.39395 0.21449 0.14981 0.0
H2194 H 0.43459 0.20728 0.15446 0.0
H2195 H 0.40286 0.19896 0.13328 0.0
H2196 H 0.43485 0.22637 0.22366 0.0
H2197 H 0.44147 0.26073 0.20847 0.0
H2198 H 0.38863 0.24522 0.09223 0.0
H2199 H 0.42029 0.22813 0.09967 0.0
Li2200 Li 0.7653 0.38543 0.183 0.0
Li2201 Li 0.74484 0.3865 0.17918 0.0
Li2202 Li 0.75748 0.3936 0.15679 0.0
Li2203 Li 0.75578 0.40285 0.18415 0.0
C2204 C 0.75452 0.36667 0.16778 0.0
N2205 N 0.75153 0.34401 0.17384 0.0
C2206 C 0.75361 0.36263 0.18494 0.0
C2207 C 0.75389 0.35918 0.15372 0.0
C2208 C 0.7521 0.35114 0.18772 0.0
C2209 C 0.75239 0.34776 0.15705 0.0
C2210 C 0.74993 0.39522 0.21493 0.0
C2211 C 0.73544 0.4055 0.23004 0.0
N2212 N 0.74236 0.4067 0.24409 0.0
C2213 C 0.7569 0.39651 0.22954 0.0
C2214 C 0.7391 0.39972 0.21518 0.0
C2215 C 0.75292 0.40236 0.24414 0.0
C2216 C 0.78343 0.38296 0.20527 0.0
N2217 N 0.77777 0.37757 0.19232 0.0
C2218 C 0.79077 0.36235 0.19306 0.0
C2219 C 0.78133 0.36755 0.1859 0.0
C2220 C 0.79668 0.36761 0.20673 0.0
C2221 C 0.79294 0.3781 0.21275 0.0
H2222 H 0.78063 0.39113 0.20961 0.0
H2223 H 0.77695 0.36361 0.17515 0.0
C2224 C 0.72417 0.37795 0.16863 0.0
N2225 N 0.73111 0.37895 0.18265 0.0
C2226 C 0.71422 0.37187 0.17007 0.0
C2227 C 0.71872 0.3681 0.20044 0.0
C2228 C 0.7286 0.37424 0.19839 0.0
C2229 C 0.71142 0.36676 0.1861 0.0
H2230 H 0.72649 0.38171 0.15624 0.0
H2231 H 0.73436 0.3751 0.20927 0.0
C2232 C 0.77988 0.39798 0.1633 0.0
N2233 N 0.80028 0.39481 0.14684 0.0
C2234 C 0.78831 0.40607 0.16475 0.0
C2235 C 0.78183 0.38826 0.15349 0.0
C2236 C 0.79857 0.40432 0.15633 0.0
C2237 C 0.7922 0.38682 0.14527 0.0
C2238 C 0.74172 0.4105 0.15719 0.0
C2239 C 0.75037 0.41814 0.15392 0.0
C2240 C 0.73094 0.41269 0.15084 0.0
C2241 C 0.74807 0.42787 0.14435 0.0
C2242 C 0.72899 0.42251 0.14132 0.0
N2243 N 0.73752 0.42983 0.1383 0.0
C2244 C 0.75297 0.3881 0.12196 0.0
C2245 C 0.76571 0.40325 0.12497 0.0
C2246 C 0.7535 0.38887 0.10373 0.0
N2247 N 0.75903 0.39521 0.13214 0.0
C2248 C 0.76651 0.40432 0.10679 0.0
C2249 C 0.76034 0.39707 0.0959 0.0
H2250 H 0.74764 0.38188 0.12807 0.0
H2251 H 0.7704 0.40885 0.13336 0.0
C2252 C 0.76616 0.4194 0.20395 0.0
N2253 N 0.75633 0.41684 0.1959 0.0
C2254 C 0.76753 0.42976 0.21213 0.0
C2255 C 0.74853 0.43454 0.20388 0.0
C2256 C 0.74747 0.424 0.1961 0.0
C2257 C 0.75875 0.43763 0.21176 0.0
H2258 H 0.77299 0.41342 0.20379 0.0
H2259 H 0.73967 0.42165 0.18987 0.0
O2260 O 0.75582 0.37789 0.16463 0.0
O2261 O 0.75375 0.38979 0.20031 0.0
O2262 O 0.76984 0.39962 0.17162 0.0
O2263 O 0.74371 0.40085 0.16641 0.0
H2264 H 0.7541 0.36826 0.19601 0.0
H2265 H 0.75455 0.36218 0.14036 0.0
H2266 H 0.75139 0.34791 0.20093 0.0
H2267 H 0.7519 0.34187 0.14628 0.0
H2268 H 0.7271 0.40909 0.23037 0.0
H2269 H 0.76528 0.39307 0.2296 0.0
H2270 H 0.73365 0.3989 0.2039 0.0
H2271 H 0.75823 0.40346 0.25552 0.0
H2272 H 0.79331 0.35424 0.18805 0.0
H2273 H 0.79738 0.38258 0.22296 0.0
H2274 H 0.70895 0.37089 0.15859 0.0
H2275 H 0.71685 0.36441 0.21307 0.0
H2276 H 0.78693 0.41363 0.17233 0.0
H2277 H 0.77544 0.38189 0.15218 0.0
H2278 H 0.80516 0.41052 0.15734 0.0
H2279 H 0.79383 0.37935 0.13764 0.0
H2280 H 0.75876 0.41663 0.15873 0.0
H2281 H 0.72416 0.40683 0.15323 0.0
H2282 H 0.75469 0.43385 0.14173 0.0
H2283 H 0.72068 0.42431 0.13632 0.0
H2284 H 0.74846 0.38323 0.09586 0.0
H2285 H 0.77196 0.41069 0.10132 0.0
H2286 H 0.77547 0.43166 0.21837 0.0
H2287 H 0.74156 0.44033 0.20306 0.0
Li2288 Li 0.60453 0.76439 0.17921 0.0
Li2289 Li 0.60365 0.74352 0.17548 0.0
Li2290 Li 0.59526 0.75733 0.15383 0.0
Li2291 Li 0.58703 0.75464 0.18194 0.0
C2292 C 0.62188 0.75946 0.16037 0.0
N2293 N 0.64303 0.76891 0.16187 0.0
C2294 C 0.63063 0.7538 0.16879 0.0
C2295 C 0.62392 0.76988 0.15258 0.0
C2296 C 0.64126 0.75873 0.16943 0.0
C2297 C 0.63465 0.77453 0.15352 0.0
C2298 C 0.59672 0.75164 0.21285 0.0
C2299 C 0.58941 0.74039 0.2365 0.0
N2300 N 0.58767 0.74987 0.24605 0.0
C2301 C 0.59493 0.76127 0.22292 0.0
C2302 C 0.59399 0.74111 0.21968 0.0
C2303 C 0.59032 0.7602 0.23967 0.0
C2304 C 0.61235 0.78666 0.18547 0.0
N2305 N 0.61359 0.77563 0.1895 0.0
C2306 C 0.62782 0.77988 0.21047 0.0
C2307 C 0.62114 0.77212 0.20168 0.0
C2308 C 0.62673 0.79135 0.20663 0.0
C2309 C 0.61895 0.79472 0.19385 0.0
H2310 H 0.60616 0.78922 0.17594 0.0
H2311 H 0.62188 0.76328 0.20464 0.0
C2312 C 0.61127 0.72171 0.16676 0.0
N2313 N 0.6115 0.72998 0.17903 0.0
C2314 C 0.61753 0.71193 0.16923 0.0
C2315 C 0.62421 0.71948 0.19678 0.0
C2316 C 0.6177 0.72902 0.1939 0.0
C2317 C 0.62421 0.71083 0.1843 0.0
H2318 H 0.60633 0.72279 0.15497 0.0
H2319 H 0.61778 0.7358 0.20333 0.0
C2320 C 0.58428 0.77585 0.15856 0.0
N2321 N 0.57312 0.78909 0.13441 0.0
C2322 C 0.57258 0.77547 0.15739 0.0
C2323 C 0.59029 0.78302 0.1475 0.0
C2324 C 0.5671 0.78222 0.1451 0.0
C2325 C 0.58451 0.78961 0.13535 0.0
C2326 C 0.57939 0.7367 0.16352 0.0
C2327 C 0.56909 0.74142 0.15876 0.0
C2328 C 0.57986 0.72542 0.16851 0.0
C2329 C 0.55943 0.73479 0.15911 0.0
C2330 C 0.57002 0.71906 0.16866 0.0
N2331 N 0.56009 0.72383 0.164 0.0
C2332 C 0.60213 0.76065 0.11886 0.0
C2333 C 0.58241 0.75964 0.12229 0.0
C2334 C 0.60097 0.76217 0.1008 0.0
N2335 N 0.59293 0.75948 0.12921 0.0
C2336 C 0.58085 0.76114 0.1043 0.0
C2337 C 0.59021 0.7624 0.09329 0.0
H2338 H 0.61041 0.76028 0.12458 0.0
H2339 H 0.57521 0.75867 0.13069 0.0
C2340 C 0.56999 0.76477 0.20142 0.0
N2341 N 0.57376 0.75458 0.19606 0.0
C2342 C 0.56039 0.76561 0.21176 0.0
C2343 C 0.55896 0.74539 0.21152 0.0
C2344 C 0.56871 0.74495 0.20146 0.0
C2345 C 0.55454 0.75584 0.21658 0.0
H2346 H 0.57446 0.77228 0.19763 0.0
H2347 H 0.5722 0.73692 0.19793 0.0
O2348 O 0.61133 0.75492 0.16007 0.0
O2349 O 0.60095 0.75254 0.19626 0.0
O2350 O 0.58982 0.76922 0.1704 0.0
O2351 O 0.58896 0.74302 0.16319 0.0
H2352 H 0.62923 0.74574 0.17486 0.0
H2353 H 0.61725 0.77439 0.14607 0.0
H2354 H 0.64809 0.75447 0.17597 0.0
H2355 H 0.63632 0.78263 0.14767 0.0
H2356 H 0.58718 0.73231 0.24192 0.0
H2357 H 0.59695 0.76948 0.21775 0.0
H2358 H 0.59526 0.73359 0.21197 0.0
H2359 H 0.58881 0.76758 0.24758 0.0
H2360 H 0.63382 0.77695 0.22011 0.0
H2361 H 0.61779 0.80351 0.19067 0.0
H2362 H 0.61743 0.70547 0.15925 0.0
H2363 H 0.62924 0.7189 0.20858 0.0
H2364 H 0.56776 0.76994 0.16571 0.0
H2365 H 0.59934 0.78336 0.14807 0.0
H2366 H 0.55805 0.78197 0.14401 0.0
H2367 H 0.58907 0.79513 0.12663 0.0
H2368 H 0.56851 0.75017 0.15525 0.0
H2369 H 0.58772 0.72163 0.17238 0.0
H2370 H 0.5514 0.73836 0.15559 0.0
H2371 H 0.57026 0.71033 0.17253 0.0
H2372 H 0.60842 0.7629 0.09277 0.0
H2373 H 0.5724 0.76136 0.09909 0.0
H2374 H 0.55754 0.77383 0.2158 0.0
H2375 H 0.55479 0.73761 0.21484 0.0
Li2376 Li 0.25465 0.60616 0.17469 0.0
Li2377 Li 0.23419 0.60903 0.18087 0.0
Li2378 Li 0.24256 0.59082 0.18346 0.0
Li2379 Li 0.23923 0.59859 0.15507 0.0
C2380 C 0.24762 0.60031 0.2133 0.0
N2381 N 0.24961 0.59065 0.24605 0.0
C2382 C 0.23844 0.60014 0.22468 0.0
C2383 C 0.25783 0.59563 0.21856 0.0
C2384 C 0.23962 0.5952 0.24119 0.0
C2385 C 0.25866 0.59077 0.23518 0.0
C2386 C 0.24006 0.62541 0.15918 0.0
C2387 C 0.22632 0.63955 0.15201 0.0
N2388 N 0.23358 0.64764 0.15745 0.0
C2389 C 0.2474 0.63387 0.1646 0.0
C2390 C 0.22946 0.62827 0.15273 0.0
C2391 C 0.24396 0.64506 0.16365 0.0
C2392 C 0.2746 0.61374 0.15973 0.0
N2393 N 0.2689 0.61292 0.17509 0.0
C2394 C 0.28303 0.62336 0.1901 0.0
C2395 C 0.2729 0.61748 0.19016 0.0
C2396 C 0.28899 0.62461 0.17432 0.0
C2397 C 0.28474 0.61957 0.15904 0.0
H2398 H 0.27113 0.61006 0.14795 0.0
H2399 H 0.26806 0.61683 0.20211 0.0
C2400 C 0.21289 0.61591 0.19255 0.0
N2401 N 0.22382 0.619 0.19134 0.0
C2402 C 0.20517 0.62286 0.20098 0.0
C2403 C 0.22014 0.63606 0.20669 0.0
C2404 C 0.22758 0.62878 0.19837 0.0
C2405 C 0.20875 0.63311 0.20819 0.0
H2406 H 0.21019 0.60794 0.1873 0.0
H2407 H 0.23639 0.63088 0.1976 0.0
C2408 C 0.25956 0.58172 0.1636 0.0
N2409 N 0.27241 0.56243 0.16383 0.0
C2410 C 0.25484 0.57147 0.15861 0.0
C2411 C 0.27083 0.58217 0.16866 0.0
C2412 C 0.26147 0.5618 0.15885 0.0
C2413 C 0.27718 0.57232 0.16868 0.0
C2414 C 0.21999 0.58962 0.16287 0.0
C2415 C 0.21955 0.57793 0.16159 0.0
C2416 C 0.21236 0.59615 0.1534 0.0
C2417 C 0.2115 0.57296 0.15078 0.0
C2418 C 0.20445 0.59086 0.1427 0.0
N2419 N 0.20419 0.57947 0.14162 0.0
C2420 C 0.23123 0.57544 0.20426 0.0
C2421 C 0.25038 0.57066 0.20098 0.0
C2422 C 0.22917 0.56552 0.21336 0.0
N2423 N 0.24159 0.5776 0.19763 0.0
C2424 C 0.24865 0.5605 0.20964 0.0
C2425 C 0.23782 0.55762 0.21547 0.0
H2426 H 0.22447 0.58133 0.20204 0.0
H2427 H 0.25869 0.57281 0.19654 0.0
C2428 C 0.23551 0.60489 0.11997 0.0
N2429 N 0.23583 0.59591 0.13093 0.0
C2430 C 0.23366 0.60339 0.10205 0.0
C2431 C 0.23242 0.58341 0.10698 0.0
C2432 C 0.23434 0.5853 0.1248 0.0
C2433 C 0.23216 0.59252 0.09531 0.0
H2434 H 0.23693 0.61322 0.12506 0.0
H2435 H 0.23472 0.57827 0.13367 0.0
O2436 O 0.24654 0.60483 0.19692 0.0
O2437 O 0.24322 0.6144 0.16021 0.0
O2438 O 0.25327 0.59131 0.1633 0.0
O2439 O 0.22787 0.59467 0.17326 0.0
H2440 H 0.23047 0.60369 0.22073 0.0
H2441 H 0.26497 0.59561 0.2098 0.0
H2442 H 0.23257 0.59496 0.25013 0.0
H2443 H 0.26648 0.58705 0.2394 0.0
H2444 H 0.21812 0.64187 0.14715 0.0
H2445 H 0.25564 0.63182 0.16961 0.0
H2446 H 0.22368 0.62183 0.14844 0.0
H2447 H 0.24954 0.65169 0.16788 0.0
H2448 H 0.28593 0.62726 0.2021 0.0
H2449 H 0.28912 0.62026 0.14666 0.0
H2450 H 0.19655 0.62009 0.20216 0.0
H2451 H 0.22328 0.64391 0.21187 0.0
H2452 H 0.2461 0.57092 0.15497 0.0
H2453 H 0.27462 0.59002 0.17258 0.0
H2454 H 0.25791 0.5538 0.15515 0.0
H2455 H 0.28591 0.57253 0.17259 0.0
H2456 H 0.22547 0.57274 0.16865 0.0
H2457 H 0.21258 0.6052 0.15422 0.0
H2458 H 0.21111 0.56392 0.1496 0.0
H2459 H 0.19853 0.59581 0.13524 0.0
H2460 H 0.22078 0.56393 0.21818 0.0
H2461 H 0.25564 0.55477 0.21094 0.0
H2462 H 0.23374 0.61065 0.09352 0.0
H2463 H 0.2312 0.5749 0.10241 0.0
Li2464 Li 0.39863 0.75762 0.84574 0.0
Li2465 Li 0.40718 0.75521 0.81691 0.0
Li2466 Li 0.38885 0.76389 0.82009 0.0
Li2467 Li 0.39149 0.74383 0.82493 0.0
C2468 C 0.40895 0.77648 0.83972 0.0
N2469 N 0.42043 0.79006 0.86296 0.0
C2470 C 0.42066 0.77601 0.84062 0.0
C2471 C 0.40309 0.78389 0.85056 0.0
C2472 C 0.4263 0.78295 0.85246 0.0
C2473 C 0.40904 0.79067 0.86225 0.0
C2474 C 0.40768 0.73346 0.84142 0.0
C2475 C 0.41109 0.71399 0.83467 0.0
N2476 N 0.40902 0.71127 0.85168 0.0
C2477 C 0.40561 0.73048 0.85885 0.0
C2478 C 0.41048 0.72516 0.82923 0.0
C2479 C 0.40633 0.71921 0.86378 0.0
C2480 C 0.393 0.76275 0.88088 0.0
N2481 N 0.40162 0.76033 0.86986 0.0
C2482 C 0.41474 0.76106 0.89353 0.0
C2483 C 0.41234 0.75946 0.87578 0.0
C2484 C 0.40599 0.76352 0.90527 0.0
C2485 C 0.39501 0.76442 0.89871 0.0
H2486 H 0.38454 0.76319 0.87588 0.0
H2487 H 0.41901 0.75741 0.86672 0.0
C2488 C 0.4223 0.76509 0.79348 0.0
N2489 N 0.42076 0.75612 0.80419 0.0
C2490 C 0.43238 0.76643 0.78443 0.0
C2491 C 0.43911 0.74928 0.79774 0.0
C2492 C 0.42886 0.74823 0.80641 0.0
C2493 C 0.44102 0.75854 0.7867 0.0
H2494 H 0.41574 0.77131 0.79218 0.0
H2495 H 0.42747 0.7413 0.81527 0.0
C2496 C 0.37202 0.75799 0.83998 0.0
N2497 N 0.35005 0.76537 0.83946 0.0
C2498 C 0.3636 0.75123 0.83283 0.0
C2499 C 0.36926 0.76849 0.84694 0.0
C2500 C 0.35254 0.75511 0.83269 0.0
C2501 C 0.35811 0.77208 0.84652 0.0
C2502 C 0.39748 0.75229 0.78638 0.0
C2503 C 0.39591 0.76168 0.77566 0.0
C2504 C 0.40361 0.74313 0.7801 0.0
C2505 C 0.40056 0.76176 0.75885 0.0
C2506 C 0.40815 0.74356 0.76323 0.0
N2507 N 0.40655 0.75279 0.75304 0.0
C2508 C 0.38171 0.78585 0.81156 0.0
C2509 C 0.37025 0.77115 0.80072 0.0
C2510 C 0.37504 0.79384 0.80317 0.0
N2511 N 0.37921 0.77477 0.81015 0.0
C2512 C 0.36331 0.77883 0.79223 0.0
C2513 C 0.36574 0.79036 0.79322 0.0
H2514 H 0.38903 0.78847 0.81883 0.0
H2515 H 0.3686 0.76225 0.79958 0.0
C2516 C 0.38059 0.72475 0.83793 0.0
N2517 N 0.38451 0.7296 0.82302 0.0
C2518 C 0.37484 0.71458 0.83715 0.0
C2519 C 0.37724 0.7146 0.80566 0.0
C2520 C 0.383 0.72476 0.80707 0.0
C2521 C 0.373 0.70943 0.82083 0.0
H2522 H 0.38172 0.72893 0.85039 0.0
H2523 H 0.38606 0.72889 0.79541 0.0
O2524 O 0.40325 0.76959 0.82849 0.0
O2525 O 0.40681 0.74441 0.83625 0.0
O2526 O 0.38293 0.75442 0.84 0.0
O2527 O 0.39315 0.75211 0.80299 0.0
H2528 H 0.42533 0.77027 0.83241 0.0
H2529 H 0.39402 0.7843 0.85012 0.0
H2530 H 0.43535 0.78264 0.85336 0.0
H2531 H 0.40461 0.79639 0.87081 0.0
H2532 H 0.41318 0.70747 0.82535 0.0
H2533 H 0.40336 0.73677 0.86843 0.0
H2534 H 0.41203 0.72731 0.81566 0.0
H2535 H 0.40471 0.71678 0.8772 0.0
H2536 H 0.42333 0.76037 0.898 0.0
H2537 H 0.38799 0.76609 0.90734 0.0
H2538 H 0.43344 0.77364 0.77596 0.0
H2539 H 0.4456 0.74313 0.80021 0.0
H2540 H 0.36558 0.74312 0.82728 0.0
H2541 H 0.37568 0.77388 0.85235 0.0
H2542 H 0.34595 0.74999 0.82714 0.0
H2543 H 0.35586 0.78021 0.85174 0.0
H2544 H 0.39125 0.76887 0.78031 0.0
H2545 H 0.40499 0.73584 0.78826 0.0
H2546 H 0.39945 0.76899 0.75044 0.0
H2547 H 0.41298 0.73657 0.75826 0.0
H2548 H 0.37733 0.80261 0.80406 0.0
H2549 H 0.35616 0.77577 0.78489 0.0
H2550 H 0.37152 0.71099 0.84912 0.0
H2551 H 0.37603 0.71088 0.79284 0.0
Li2552 Li 0.2425 0.40778 0.81563 0.0
Li2553 Li 0.23941 0.39893 0.84371 0.0
Li2554 Li 0.25208 0.39037 0.8219 0.0
Li2555 Li 0.23171 0.39024 0.81748 0.0
C2556 C 0.25655 0.41475 0.84283 0.0
N2557 N 0.26184 0.43449 0.85997 0.0
C2558 C 0.24809 0.42228 0.84753 0.0
C2559 C 0.26771 0.41727 0.84684 0.0
C2560 C 0.25092 0.43221 0.85619 0.0
C2561 C 0.27022 0.42729 0.85551 0.0
C2562 C 0.21812 0.40871 0.83445 0.0
C2563 C 0.20026 0.40491 0.84807 0.0
N2564 N 0.19823 0.41612 0.84903 0.0
C2565 C 0.2158 0.4202 0.83538 0.0
C2566 C 0.21024 0.401 0.84069 0.0
C2567 C 0.20572 0.42378 0.84287 0.0
C2568 C 0.23431 0.42477 0.79401 0.0
N2569 N 0.24351 0.42138 0.80307 0.0
C2570 C 0.25381 0.43743 0.79356 0.0
C2571 C 0.25321 0.42737 0.80283 0.0
C2572 C 0.24436 0.4413 0.78432 0.0
C2573 C 0.23455 0.43475 0.78446 0.0
H2574 H 0.22677 0.41972 0.79427 0.0
H2575 H 0.26047 0.42438 0.8099 0.0
C2576 C 0.24564 0.39488 0.87772 0.0
N2577 N 0.23781 0.40062 0.8684 0.0
C2578 C 0.24542 0.39497 0.89599 0.0
C2579 C 0.22911 0.40699 0.89483 0.0
C2580 C 0.2297 0.40673 0.87653 0.0
C2581 C 0.237 0.40098 0.90483 0.0
H2582 H 0.25204 0.39017 0.87088 0.0
H2583 H 0.22364 0.41135 0.86892 0.0
C2584 C 0.25067 0.3964 0.78665 0.0
N2585 N 0.26482 0.40087 0.75883 0.0
C2586 C 0.24735 0.39384 0.76954 0.0
C2587 C 0.26119 0.40123 0.78962 0.0
C2588 C 0.25463 0.39617 0.75565 0.0
C2589 C 0.26822 0.40343 0.77538 0.0
C2590 C 0.23599 0.37394 0.84424 0.0
C2591 C 0.24035 0.36328 0.84081 0.0
C2592 C 0.22706 0.37511 0.85597 0.0
C2593 C 0.23553 0.35392 0.84888 0.0
C2594 C 0.22248 0.36555 0.8638 0.0
N2595 N 0.22677 0.35524 0.8601 0.0
C2596 C 0.27487 0.38429 0.82616 0.0
C2597 C 0.26404 0.37265 0.80744 0.0
C2598 C 0.28435 0.37765 0.82336 0.0
N2599 N 0.26501 0.38164 0.81826 0.0
C2600 C 0.27327 0.36575 0.80435 0.0
C2601 C 0.28357 0.36819 0.81243 0.0
H2602 H 0.27534 0.3915 0.83472 0.0
H2603 H 0.25606 0.37083 0.8013 0.0
C2604 C 0.21044 0.38678 0.8017 0.0
N2605 N 0.22 0.38173 0.80736 0.0
C2606 C 0.20204 0.38048 0.79355 0.0
C2607 C 0.21362 0.36396 0.79699 0.0
C2608 C 0.22177 0.37058 0.80497 0.0
C2609 C 0.2036 0.3689 0.79108 0.0
H2610 H 0.2094 0.39574 0.80327 0.0
H2611 H 0.22962 0.36686 0.80902 0.0
O2612 O 0.254 0.40498 0.83428 0.0
O2613 O 0.22795 0.4051 0.82713 0.0
O2614 O 0.24359 0.39421 0.80035 0.0
O2615 O 0.24065 0.38317 0.83645 0.0
H2616 H 0.23943 0.42049 0.84455 0.0
H2617 H 0.27438 0.41155 0.84324 0.0
H2618 H 0.24444 0.4381 0.85991 0.0
H2619 H 0.27882 0.42934 0.85867 0.0
H2620 H 0.1941 0.39903 0.85299 0.0
H2621 H 0.22173 0.42629 0.83039 0.0
H2622 H 0.21176 0.39209 0.83968 0.0
H2623 H 0.20385 0.43264 0.84377 0.0
H2624 H 0.2615 0.44226 0.79404 0.0
H2625 H 0.22713 0.43733 0.77734 0.0
H2626 H 0.25183 0.39042 0.90309 0.0
H2627 H 0.22243 0.41168 0.90104 0.0
H2628 H 0.23923 0.39011 0.76704 0.0
H2629 H 0.2639 0.40329 0.80276 0.0
H2630 H 0.25217 0.39423 0.74233 0.0
H2631 H 0.27637 0.40717 0.77749 0.0
H2632 H 0.24734 0.36223 0.83191 0.0
H2633 H 0.22377 0.38329 0.85916 0.0
H2634 H 0.23877 0.34561 0.84624 0.0
H2635 H 0.21555 0.36634 0.87287 0.0
H2636 H 0.29212 0.37974 0.82996 0.0
H2637 H 0.27236 0.35861 0.79568 0.0
H2638 H 0.19455 0.38466 0.78891 0.0
H2639 H 0.21515 0.35506 0.79549 0.0
Li2640 Li 0.59194 0.24092 0.81349 0.0
Li2641 Li 0.59968 0.23977 0.8433 0.0
Li2642 Li 0.60805 0.25121 0.82072 0.0
Li2643 Li 0.60899 0.23071 0.81859 0.0
C2644 C 0.5925 0.264 0.83545 0.0
N2645 N 0.59231 0.28661 0.84362 0.0
C2646 C 0.59465 0.26755 0.8526 0.0
C2647 C 0.59006 0.27196 0.82254 0.0
C2648 C 0.59456 0.27901 0.85645 0.0
C2649 C 0.59007 0.28334 0.8269 0.0
C2650 C 0.59431 0.21751 0.83748 0.0
C2651 C 0.60347 0.20506 0.85791 0.0
N2652 N 0.59492 0.1976 0.85602 0.0
C2653 C 0.58563 0.20971 0.83572 0.0
C2654 C 0.60332 0.21517 0.84865 0.0
C2655 C 0.58609 0.1997 0.84521 0.0
C2656 C 0.57672 0.23157 0.78953 0.0
N2657 N 0.57847 0.24037 0.80053 0.0
C2658 C 0.56022 0.24761 0.79463 0.0
C2659 C 0.57056 0.24839 0.80308 0.0
C2660 C 0.55803 0.23847 0.78346 0.0
C2661 C 0.56653 0.2305 0.78069 0.0
H2662 H 0.58318 0.22528 0.78792 0.0
H2663 H 0.57215 0.25519 0.8121 0.0
C2664 C 0.60496 0.24216 0.8786 0.0
N2665 N 0.59674 0.2386 0.86762 0.0
C2666 C 0.60338 0.24184 0.89668 0.0
C2667 C 0.58492 0.23399 0.89189 0.0
C2668 C 0.58685 0.23451 0.87381 0.0
C2669 C 0.59322 0.23779 0.90356 0.0
H2670 H 0.61268 0.24544 0.87326 0.0
H2671 H 0.58046 0.23174 0.86472 0.0
C2672 C 0.60233 0.24271 0.78284 0.0
N2673 N 0.59434 0.24446 0.74891 0.0
C2674 C 0.60426 0.23409 0.77078 0.0
C2675 C 0.59654 0.25231 0.77751 0.0
C2676 C 0.60011 0.23511 0.75372 0.0
C2677 C 0.5925 0.25301 0.76035 0.0
C2678 C 0.62715 0.24123 0.83526 0.0
C2679 C 0.63193 0.24303 0.81874 0.0
C2680 C 0.6341 0.24014 0.84992 0.0
C2681 C 0.64359 0.24372 0.8172 0.0
C2682 C 0.64572 0.24086 0.84782 0.0
N2683 N 0.65018 0.24263 0.83164 0.0
C2684 C 0.62003 0.2696 0.83277 0.0
C2685 C 0.61861 0.26909 0.80178 0.0
C2686 C 0.62639 0.27937 0.83201 0.0
N2687 N 0.61624 0.26472 0.81781 0.0
C2688 C 0.62508 0.27883 0.80038 0.0
C2689 C 0.62912 0.28407 0.81565 0.0
H2690 H 0.61817 0.26581 0.84532 0.0
H2691 H 0.61567 0.26491 0.79008 0.0
C2692 C 0.61096 0.21069 0.80053 0.0
N2693 N 0.61671 0.21745 0.81171 0.0
C2694 C 0.61582 0.20084 0.79424 0.0
C2695 C 0.63222 0.20475 0.81185 0.0
C2696 C 0.62704 0.21454 0.81779 0.0
C2697 C 0.62666 0.19784 0.79971 0.0
H2698 H 0.6026 0.21302 0.7964 0.0
H2699 H 0.63131 0.21975 0.8272 0.0
O2700 O 0.59274 0.25281 0.83137 0.0
O2701 O 0.59396 0.22731 0.82816 0.0
O2702 O 0.60621 0.2418 0.79969 0.0
O2703 O 0.61574 0.24065 0.83722 0.0
H2704 H 0.59645 0.26155 0.86282 0.0
H2705 H 0.58818 0.2694 0.80928 0.0
H2706 H 0.5963 0.28186 0.86964 0.0
H2707 H 0.58827 0.28958 0.81699 0.0
H2708 H 0.61038 0.20315 0.86659 0.0
H2709 H 0.57862 0.21139 0.82708 0.0
H2710 H 0.61014 0.22107 0.85015 0.0
H2711 H 0.57942 0.19359 0.84398 0.0
H2712 H 0.55385 0.25382 0.79748 0.0
H2713 H 0.56525 0.22339 0.7721 0.0
H2714 H 0.61007 0.24469 0.9052 0.0
H2715 H 0.57695 0.23087 0.89665 0.0
H2716 H 0.60898 0.22673 0.77447 0.0
H2717 H 0.5951 0.25911 0.78657 0.0
H2718 H 0.6015 0.22847 0.74429 0.0
H2719 H 0.5879 0.26036 0.75613 0.0
H2720 H 0.62675 0.24387 0.8072 0.0
H2721 H 0.63058 0.23869 0.86279 0.0
H2722 H 0.64739 0.24511 0.8045 0.0
H2723 H 0.6512 0.24002 0.85906 0.0
H2724 H 0.62916 0.28318 0.84415 0.0
H2725 H 0.62712 0.28204 0.78749 0.0
H2726 H 0.61114 0.19563 0.78518 0.0
H2727 H 0.64059 0.20277 0.81641 0.0
Li2728 Li 0.75223 0.59977 0.84397 0.0
Li2729 Li 0.7521 0.59052 0.81654 0.0
Li2730 Li 0.75921 0.60907 0.81799 0.0
Li2731 Li 0.739 0.6052 0.82119 0.0
C2732 C 0.77514 0.59853 0.83802 0.0
N2733 N 0.79473 0.60443 0.85506 0.0
C2734 C 0.78459 0.59164 0.83687 0.0
C2735 C 0.77565 0.60844 0.84782 0.0
C2736 C 0.79442 0.59476 0.84559 0.0
C2737 C 0.78563 0.61126 0.85634 0.0
C2738 C 0.73898 0.58091 0.84303 0.0
C2739 C 0.72794 0.56695 0.85806 0.0
N2740 N 0.73745 0.56106 0.86157 0.0
C2741 C 0.74865 0.57472 0.8468 0.0
C2742 C 0.72854 0.57702 0.84872 0.0
C2743 C 0.74769 0.5647 0.85618 0.0
C2744 C 0.74608 0.60436 0.87836 0.0
N2745 N 0.75363 0.5985 0.86869 0.0
C2746 C 0.76256 0.59168 0.89463 0.0
C2747 C 0.76169 0.59211 0.87639 0.0
C2748 C 0.75497 0.5978 0.90503 0.0
C2749 C 0.74658 0.60411 0.89663 0.0
H2750 H 0.73967 0.60924 0.87184 0.0
H2751 H 0.76751 0.5874 0.86839 0.0
C2752 C 0.76448 0.57528 0.79658 0.0
N2753 N 0.75443 0.57675 0.80466 0.0
C2754 C 0.76673 0.56534 0.78757 0.0
C2755 C 0.74823 0.55869 0.79535 0.0
C2756 C 0.74628 0.56881 0.80398 0.0
C2757 C 0.75861 0.5568 0.78708 0.0
H2758 H 0.77072 0.58185 0.79713 0.0
H2759 H 0.73828 0.57029 0.81023 0.0
C2760 C 0.7456 0.62603 0.83342 0.0
N2761 N 0.7391 0.64803 0.82828 0.0
C2762 C 0.74431 0.63023 0.81642 0.0
C2763 C 0.74356 0.633 0.8478 0.0
C2764 C 0.74102 0.64138 0.8141 0.0
C2765 C 0.74029 0.6441 0.84493 0.0
C2766 C 0.74586 0.59744 0.78549 0.0
C2767 C 0.7533 0.59712 0.77134 0.0
C2768 C 0.73573 0.59156 0.78453 0.0
C2769 C 0.75052 0.59083 0.75651 0.0
C2770 C 0.73325 0.58537 0.76947 0.0
N2771 N 0.74065 0.58513 0.75589 0.0
C2772 C 0.77717 0.61445 0.79649 0.0
C2773 C 0.77237 0.62919 0.81596 0.0
C2774 C 0.78588 0.62082 0.78944 0.0
N2775 N 0.77053 0.61877 0.80928 0.0
C2776 C 0.78095 0.63588 0.80922 0.0
C2777 C 0.7878 0.63174 0.7957 0.0
H2778 H 0.77578 0.60597 0.79195 0.0
H2779 H 0.76728 0.63229 0.8266 0.0
C2780 C 0.71766 0.6121 0.83151 0.0
N2781 N 0.72453 0.61114 0.8174 0.0
C2782 C 0.70736 0.61756 0.82994 0.0
C2783 C 0.7113 0.62065 0.7992 0.0
C2784 C 0.72155 0.61518 0.80141 0.0
C2785 C 0.70413 0.62208 0.81366 0.0
H2786 H 0.72037 0.60894 0.84412 0.0
H2787 H 0.72729 0.61447 0.79048 0.0
O2788 O 0.76551 0.59554 0.82942 0.0
O2789 O 0.73964 0.5908 0.83395 0.0
O2790 O 0.74858 0.61507 0.83608 0.0
O2791 O 0.74854 0.60329 0.80034 0.0
H2792 H 0.78433 0.58396 0.8293 0.0
H2793 H 0.76845 0.61389 0.84891 0.0
H2794 H 0.8018 0.5895 0.84482 0.0
H2795 H 0.78615 0.61889 0.86398 0.0
H2796 H 0.71991 0.56384 0.86254 0.0
H2797 H 0.7568 0.57756 0.8425 0.0
H2798 H 0.72099 0.58173 0.84593 0.0
H2799 H 0.7551 0.55982 0.85917 0.0
H2800 H 0.76922 0.58678 0.90049 0.0
H2801 H 0.7404 0.60876 0.90407 0.0
H2802 H 0.77477 0.56437 0.78114 0.0
H2803 H 0.74175 0.55232 0.7956 0.0
H2804 H 0.74583 0.62497 0.80513 0.0
H2805 H 0.74448 0.62985 0.86103 0.0
H2806 H 0.73999 0.64475 0.80103 0.0
H2807 H 0.7387 0.6496 0.85593 0.0
H2808 H 0.76115 0.60164 0.77181 0.0
H2809 H 0.72993 0.59161 0.79545 0.0
H2810 H 0.75622 0.59047 0.74549 0.0
H2811 H 0.72548 0.58072 0.7686 0.0
H2812 H 0.79113 0.61718 0.77936 0.0
H2813 H 0.78209 0.64426 0.81443 0.0
H2814 H 0.70221 0.61864 0.84151 0.0
H2815 H 0.70912 0.6239 0.78639 0.0
C2816 C 0.19769 0.14024 0.33893 0.0
C2817 C 0.19906 0.13239 0.32536 0.0
C2818 C 0.18853 0.14753 0.33897 0.0
C2819 C 0.16787 0.16044 0.30928 0.0
H2820 H 0.15398 0.16967 0.35295 0.0
C2821 C 0.13133 0.19247 0.31256 0.0
C2822 C 0.13273 0.20108 0.325 0.0
C2823 C 0.13844 0.18314 0.31255 0.0
C2824 C 0.1578 0.16718 0.34066 0.0
H2825 H 0.19173 0.12579 0.30148 0.0
H2826 H 0.17563 0.13849 0.30163 0.0
H2827 H 0.16801 0.15478 0.35314 0.0
H2828 H 0.14287 0.20666 0.347 0.0
H2829 H 0.15509 0.19033 0.34714 0.0
H2830 H 0.15768 0.17294 0.29686 0.0
C2831 C 0.18175 0.13912 0.31208 0.0
C2832 C 0.16585 0.15867 0.34076 0.0
C2833 C 0.19095 0.13185 0.312 0.0
C2834 C 0.14137 0.20009 0.33747 0.0
C2835 C 0.1484 0.19074 0.33754 0.0
C2836 C 0.15975 0.1689 0.30917 0.0
C2837 C 0.1805 0.14712 0.32549 0.0
C2838 C 0.17115 0.15536 0.32512 0.0
C2839 C 0.14703 0.18219 0.32506 0.0
C2840 C 0.15481 0.1725 0.32491 0.0
H2841 H 0.20389 0.14101 0.34924 0.0
H2842 H 0.18796 0.15373 0.34931 0.0
H2843 H 0.17187 0.15819 0.29703 0.0
H2844 H 0.12467 0.19289 0.30291 0.0
H2845 H 0.13716 0.17663 0.30285 0.0
C2846 C 0.79989 0.13851 0.29293 0.0
C2847 C 0.79708 0.13362 0.30907 0.0
C2848 C 0.80898 0.14587 0.29169 0.0
C2849 C 0.83366 0.15701 0.31658 0.0
H2850 H 0.82854 0.18319 0.28752 0.0
C2851 C 0.8654 0.19363 0.31403 0.0
C2852 C 0.86087 0.20449 0.3133 0.0
C2853 C 0.8585 0.18426 0.3117 0.0
C2854 C 0.83008 0.17598 0.29582 0.0
H2855 H 0.80161 0.13232 0.33648 0.0
H2856 H 0.8172 0.14545 0.33458 0.0
H2857 H 0.8151 0.16794 0.28711 0.0
H2858 H 0.84564 0.21413 0.30984 0.0
H2859 H 0.83352 0.19786 0.30639 0.0
H2860 H 0.84825 0.16542 0.32617 0.0
C2861 C 0.81267 0.14341 0.32269 0.0
C2862 C 0.82245 0.16711 0.29535 0.0
C2863 C 0.80371 0.13591 0.32384 0.0
C2864 C 0.84935 0.20584 0.31023 0.0
C2865 C 0.84243 0.19649 0.30815 0.0
C2866 C 0.84121 0.16596 0.31724 0.0
C2867 C 0.81531 0.14865 0.30667 0.0
C2868 C 0.82404 0.15757 0.30593 0.0
C2869 C 0.84691 0.18557 0.30883 0.0
C2870 C 0.83941 0.17565 0.30709 0.0
H2871 H 0.79495 0.13677 0.28132 0.0
H2872 H 0.81091 0.14952 0.27905 0.0
H2873 H 0.83528 0.14972 0.32467 0.0
H2874 H 0.87429 0.19239 0.31622 0.0
H2875 H 0.86228 0.176 0.31204 0.0
C2876 C 0.85473 0.7965 0.33192 0.0
C2877 C 0.86407 0.79532 0.3208 0.0
C2878 C 0.84795 0.80602 0.33098 0.0
C2879 C 0.83868 0.82782 0.30094 0.0
H2880 H 0.82773 0.84207 0.34335 0.0
C2881 C 0.7982 0.85404 0.30398 0.0
C2882 C 0.7981 0.86377 0.31442 0.0
C2883 C 0.80757 0.84703 0.30373 0.0
C2884 C 0.83083 0.83829 0.33138 0.0
H2885 H 0.87367 0.80336 0.30013 0.0
H2886 H 0.8616 0.8199 0.29824 0.0
H2887 H 0.84186 0.8273 0.34538 0.0
H2888 H 0.80799 0.87397 0.33222 0.0
H2889 H 0.82429 0.86155 0.33204 0.0
H2890 H 0.82743 0.83862 0.28697 0.0
C2891 C 0.85959 0.81341 0.30767 0.0
C2892 C 0.83883 0.82978 0.33256 0.0
C2893 C 0.86646 0.80392 0.30872 0.0
C2894 C 0.80771 0.86645 0.32428 0.0
C2895 C 0.81706 0.85937 0.32413 0.0
C2896 C 0.8306 0.83627 0.29977 0.0
C2897 C 0.85028 0.81453 0.3188 0.0
C2898 C 0.84269 0.82432 0.31738 0.0
C2899 C 0.81702 0.84952 0.31401 0.0
C2900 C 0.82645 0.84146 0.315 0.0
H2901 H 0.85247 0.78996 0.34111 0.0
H2902 H 0.8407 0.80657 0.3395 0.0
H2903 H 0.84147 0.82372 0.28904 0.0
H2904 H 0.79089 0.8516 0.29648 0.0
H2905 H 0.80724 0.8394 0.29602 0.0
C2906 C 0.14029 0.79864 0.3354 0.0
C2907 C 0.13148 0.79759 0.32325 0.0
C2908 C 0.14737 0.80794 0.33502 0.0
C2909 C 0.15855 0.82933 0.30567 0.0
H2910 H 0.16835 0.84312 0.34912 0.0
C2911 C 0.19162 0.86505 0.30794 0.0
C2912 C 0.19994 0.86378 0.32086 0.0
C2913 C 0.18211 0.85816 0.30799 0.0
C2914 C 0.16572 0.83933 0.33688 0.0
H2915 H 0.12313 0.80564 0.30131 0.0
H2916 H 0.13569 0.82186 0.30048 0.0
H2917 H 0.15364 0.82892 0.34973 0.0
H2918 H 0.20495 0.85411 0.34367 0.0
H2919 H 0.18845 0.84216 0.34375 0.0
H2920 H 0.1709 0.8395 0.29288 0.0
C2921 C 0.13707 0.81541 0.31027 0.0
C2922 C 0.1573 0.83122 0.33723 0.0
C2923 C 0.12991 0.80612 0.31072 0.0
C2924 C 0.19858 0.85548 0.33377 0.0
C2925 C 0.18911 0.84863 0.33382 0.0
C2926 C 0.16703 0.83744 0.30532 0.0
C2927 C 0.14588 0.81639 0.32241 0.0
C2928 C 0.15381 0.82595 0.3217 0.0
C2929 C 0.18076 0.84989 0.32097 0.0
C2930 C 0.17089 0.84231 0.32098 0.0
H2931 H 0.14193 0.79212 0.34496 0.0
H2932 H 0.15423 0.80835 0.34432 0.0
H2933 H 0.15608 0.82534 0.29351 0.0
H2934 H 0.1924 0.87143 0.29792 0.0
H2935 H 0.17578 0.85937 0.29798 0.0
C2936 C 0.13815 0.80101 0.70367 0.0
C2937 C 0.1332 0.79859 0.68742 0.0
C2938 C 0.14518 0.8103 0.70553 0.0
C2939 C 0.15532 0.8362 0.68277 0.0
H2940 H 0.18215 0.83039 0.71004 0.0
C2941 C 0.19158 0.86843 0.68779 0.0
C2942 C 0.20249 0.86399 0.68717 0.0
C2943 C 0.18231 0.86132 0.68958 0.0
C2944 C 0.17474 0.83214 0.70228 0.0
H2945 H 0.13135 0.80408 0.66052 0.0
H2946 H 0.14393 0.82009 0.6635 0.0
H2947 H 0.16718 0.81665 0.70971 0.0
H2948 H 0.21226 0.84866 0.6875 0.0
H2949 H 0.19618 0.83626 0.69019 0.0
H2950 H 0.16326 0.85139 0.67448 0.0
C2951 C 0.1422 0.81504 0.67499 0.0
C2952 C 0.16604 0.82433 0.70233 0.0
C2953 C 0.13503 0.80584 0.67323 0.0
C2954 C 0.20396 0.85233 0.68826 0.0
C2955 C 0.19473 0.84523 0.68988 0.0
C2956 C 0.1641 0.84397 0.68257 0.0
C2957 C 0.14756 0.81725 0.69108 0.0
C2958 C 0.15628 0.82616 0.69235 0.0
C2959 C 0.18378 0.84962 0.69063 0.0
C2960 C 0.17401 0.84193 0.69206 0.0
H2961 H 0.13674 0.79559 0.71486 0.0
H2962 H 0.14893 0.81189 0.71822 0.0
H2963 H 0.14786 0.83798 0.67517 0.0
H2964 H 0.19023 0.8774 0.6871 0.0
H2965 H 0.17402 0.86499 0.69031 0.0
C2966 C 0.19925 0.14257 0.66891 0.0
C2967 C 0.20115 0.13437 0.68181 0.0
C2968 C 0.19009 0.1498 0.67014 0.0
C2969 C 0.17059 0.16222 0.70176 0.0
H2970 H 0.15385 0.17009 0.65991 0.0
C2971 C 0.14305 0.20181 0.69658 0.0
C2972 C 0.13296 0.20114 0.68709 0.0
C2973 C 0.15039 0.1927 0.69716 0.0
C2974 C 0.15834 0.16788 0.67177 0.0
H2975 H 0.19483 0.12726 0.70606 0.0
H2976 H 0.17882 0.14001 0.70828 0.0
H2977 H 0.16839 0.15576 0.65832 0.0
H2978 H 0.12246 0.19021 0.67135 0.0
H2979 H 0.13534 0.17429 0.67228 0.0
H2980 H 0.16056 0.17441 0.71517 0.0
C2981 C 0.1845 0.14085 0.69727 0.0
C2982 C 0.16675 0.15977 0.67081 0.0
C2983 C 0.19367 0.13357 0.69601 0.0
C2984 C 0.13026 0.19105 0.67854 0.0
C2985 C 0.13762 0.18194 0.67909 0.0
C2986 C 0.16219 0.17038 0.7027 0.0
C2987 C 0.18262 0.14903 0.68433 0.0
C2988 C 0.17309 0.15698 0.68573 0.0
C2989 C 0.14783 0.18271 0.68823 0.0
C2990 C 0.15608 0.17341 0.68766 0.0
H2991 H 0.20498 0.14358 0.658 0.0
H2992 H 0.18899 0.15616 0.66014 0.0
H2993 H 0.17538 0.16029 0.71345 0.0
H2994 H 0.14547 0.20952 0.70309 0.0
H2995 H 0.15827 0.19363 0.70408 0.0
C2996 C 0.79469 0.14297 0.66455 0.0
C2997 C 0.79318 0.13531 0.67833 0.0
C2998 C 0.80385 0.15024 0.66448 0.0
C2999 C 0.82477 0.16324 0.69376 0.0
H3000 H 0.83914 0.17095 0.64974 0.0
C3001 C 0.86279 0.19342 0.68902 0.0
C3002 C 0.86172 0.20191 0.6763 0.0
C3003 C 0.85526 0.18443 0.68943 0.0
C3004 C 0.83519 0.16889 0.66212 0.0
H3005 H 0.80014 0.12914 0.70275 0.0
H3006 H 0.81628 0.14178 0.70256 0.0
H3007 H 0.82453 0.15664 0.65022 0.0
H3008 H 0.85176 0.20761 0.65417 0.0
H3009 H 0.83884 0.19184 0.65468 0.0
H3010 H 0.83547 0.17555 0.7056 0.0
C3011 C 0.81027 0.14228 0.69193 0.0
C3012 C 0.8268 0.16073 0.6624 0.0
C3013 C 0.80105 0.13504 0.69204 0.0
C3014 C 0.85301 0.20112 0.66391 0.0
C3015 C 0.84558 0.1921 0.66422 0.0
C3016 C 0.83324 0.17136 0.69349 0.0
C3017 C 0.81176 0.14999 0.67816 0.0
C3018 C 0.82134 0.15796 0.67816 0.0
C3019 C 0.84659 0.1837 0.67702 0.0
C3020 C 0.83837 0.17439 0.67761 0.0
H3021 H 0.78865 0.14352 0.65397 0.0
H3022 H 0.8046 0.15624 0.65387 0.0
H3023 H 0.82066 0.16141 0.70609 0.0
H3024 H 0.86949 0.19368 0.69861 0.0
H3025 H 0.85628 0.17801 0.69935 0.0
C3026 C 0.86464 0.80529 0.69194 0.0
C3027 C 0.86433 0.79766 0.67788 0.0
C3028 C 0.85774 0.81478 0.69193 0.0
C3029 C 0.84057 0.83267 0.66265 0.0
H3030 H 0.82358 0.83918 0.7048 0.0
C3031 C 0.79955 0.85772 0.66163 0.0
C3032 C 0.79742 0.8654 0.6752 0.0
C3033 C 0.80893 0.85075 0.66223 0.0
C3034 C 0.8284 0.8376 0.69302 0.0
H3035 H 0.85646 0.79399 0.65287 0.0
H3036 H 0.84451 0.81049 0.65283 0.0
H3037 H 0.83795 0.82461 0.70538 0.0
H3038 H 0.80365 0.87195 0.6999 0.0
H3039 H 0.82003 0.85962 0.70105 0.0
H3040 H 0.8308 0.84543 0.65016 0.0
C3041 C 0.85022 0.80927 0.66371 0.0
C3042 C 0.83663 0.82926 0.69335 0.0
C3043 C 0.85708 0.7998 0.66374 0.0
C3044 C 0.80497 0.86601 0.68935 0.0
C3045 C 0.81436 0.85899 0.68999 0.0
C3046 C 0.83233 0.84098 0.66231 0.0
C3047 C 0.85042 0.81684 0.67783 0.0
C3048 C 0.84262 0.82653 0.67806 0.0
C3049 C 0.8164 0.85125 0.67646 0.0
C3050 C 0.82599 0.84336 0.67738 0.0
H3051 H 0.87023 0.80394 0.70294 0.0
H3052 H 0.85815 0.82052 0.70292 0.0
H3053 H 0.8452 0.8309 0.65075 0.0
H3054 H 0.7938 0.85685 0.65072 0.0
H3055 H 0.81016 0.84472 0.65178 0.0
C3056 C 0.63841 0.69647 0.83243 0.0
C3057 C 0.62953 0.69856 0.82073 0.0
C3058 C 0.64468 0.68663 0.83118 0.0
C3059 C 0.65369 0.66558 0.7996 0.0
H3060 H 0.66368 0.64972 0.84119 0.0
C3061 C 0.69375 0.6388 0.80209 0.0
C3062 C 0.69375 0.62891 0.81213 0.0
C3063 C 0.68437 0.6458 0.80185 0.0
C3064 C 0.66084 0.65394 0.82942 0.0
H3065 H 0.62013 0.69176 0.79879 0.0
H3066 H 0.6313 0.67463 0.7964 0.0
H3067 H 0.64985 0.66471 0.8439 0.0
H3068 H 0.68366 0.61835 0.82912 0.0
H3069 H 0.66731 0.63071 0.82889 0.0
H3070 H 0.66489 0.65498 0.78518 0.0
C3071 C 0.63337 0.68067 0.80651 0.0
C3072 C 0.65301 0.66259 0.831 0.0
C3073 C 0.62701 0.69049 0.80785 0.0
C3074 C 0.684 0.626 0.82148 0.0
C3075 C 0.67463 0.63305 0.82132 0.0
C3076 C 0.66158 0.65697 0.79804 0.0
C3077 C 0.6423 0.67868 0.81811 0.0
C3078 C 0.64954 0.66865 0.81616 0.0
C3079 C 0.67479 0.64311 0.81171 0.0
C3080 C 0.66541 0.65122 0.81298 0.0
H3081 H 0.64075 0.70258 0.84228 0.0
H3082 H 0.65165 0.68542 0.8401 0.0
H3083 H 0.65121 0.67015 0.78795 0.0
H3084 H 0.70116 0.64142 0.79498 0.0
H3085 H 0.68481 0.65358 0.79454 0.0
C3086 C 0.29708 0.64358 0.83485 0.0
C3087 C 0.29634 0.63405 0.82406 0.0
C3088 C 0.30652 0.65047 0.83428 0.0
C3089 C 0.32999 0.65861 0.80576 0.0
H3090 H 0.34145 0.67189 0.8486 0.0
C3091 C 0.35774 0.69818 0.80668 0.0
C3092 C 0.36607 0.69913 0.81963 0.0
C3093 C 0.35047 0.689 0.80654 0.0
C3094 C 0.33848 0.66814 0.83652 0.0
H3095 H 0.30504 0.62419 0.80441 0.0
H3096 H 0.32158 0.63628 0.80339 0.0
H3097 H 0.32648 0.65804 0.85014 0.0
H3098 H 0.37372 0.69091 0.84199 0.0
H3099 H 0.36105 0.67481 0.84169 0.0
H3100 H 0.34202 0.66873 0.79215 0.0
C3101 C 0.31477 0.63846 0.81215 0.0
C3102 C 0.32979 0.66031 0.8374 0.0
C3103 C 0.3053 0.63155 0.81273 0.0
C3104 C 0.36726 0.69049 0.83202 0.0
C3105 C 0.36001 0.68128 0.83186 0.0
C3106 C 0.33869 0.66645 0.80488 0.0
C3107 C 0.31547 0.64802 0.8229 0.0
C3108 C 0.32532 0.65561 0.82202 0.0
C3109 C 0.35139 0.68054 0.81932 0.0
C3110 C 0.34291 0.67143 0.82024 0.0
H3111 H 0.29023 0.64585 0.84349 0.0
H3112 H 0.3067 0.65789 0.84247 0.0
H3113 H 0.32669 0.65519 0.79366 0.0
H3114 H 0.35651 0.70477 0.79709 0.0
H3115 H 0.34382 0.68877 0.79685 0.0
C3116 C 0.36202 0.30384 0.82086 0.0
C3117 C 0.3636 0.29632 0.80691 0.0
C3118 C 0.35452 0.31277 0.81924 0.0
C3119 C 0.32938 0.32073 0.79412 0.0
H3120 H 0.33314 0.34897 0.81864 0.0
C3121 C 0.29198 0.34902 0.81058 0.0
C3122 C 0.29335 0.3607 0.80984 0.0
C3123 C 0.30116 0.3419 0.80844 0.0
C3124 C 0.33201 0.3412 0.8115 0.0
H3125 H 0.35913 0.29259 0.78001 0.0
H3126 H 0.34621 0.30836 0.77697 0.0
H3127 H 0.34868 0.3357 0.81742 0.0
H3128 H 0.30537 0.37412 0.80601 0.0
H3129 H 0.32146 0.36166 0.80205 0.0
H3130 H 0.31278 0.32626 0.78802 0.0
C3131 C 0.35052 0.30719 0.78934 0.0
C3132 C 0.34087 0.33353 0.81098 0.0
C3133 C 0.35794 0.29819 0.79103 0.0
C3134 C 0.3041 0.36514 0.80682 0.0
C3135 C 0.3133 0.35801 0.80457 0.0
C3136 C 0.32056 0.32841 0.79454 0.0
C3137 C 0.34851 0.31443 0.80357 0.0
C3138 C 0.33959 0.32311 0.80258 0.0
C3139 C 0.31193 0.3463 0.80539 0.0
C3140 C 0.32168 0.33863 0.80356 0.0
H3141 H 0.36619 0.3025 0.83331 0.0
H3142 H 0.35307 0.31807 0.83055 0.0
H3143 H 0.32802 0.31275 0.78768 0.0
H3144 H 0.28382 0.34536 0.81319 0.0
H3145 H 0.29983 0.33294 0.80955 0.0
C3146 C 0.63452 0.30258 0.80207 0.0
C3147 C 0.63642 0.29415 0.81466 0.0
C3148 C 0.64136 0.31212 0.80149 0.0
C3149 C 0.65989 0.32905 0.82917 0.0
H3150 H 0.67446 0.33821 0.78602 0.0
C3151 C 0.69936 0.35608 0.82959 0.0
C3152 C 0.70083 0.36433 0.81664 0.0
C3153 C 0.69037 0.34864 0.82873 0.0
C3154 C 0.67029 0.3359 0.79811 0.0
H3155 H 0.6473 0.28899 0.83604 0.0
H3156 H 0.65897 0.30568 0.83527 0.0
H3157 H 0.66061 0.32306 0.78547 0.0
H3158 H 0.69399 0.37127 0.79264 0.0
H3159 H 0.67815 0.35821 0.79116 0.0
H3160 H 0.66957 0.34174 0.8419 0.0
C3161 C 0.65211 0.30498 0.82602 0.0
C3162 C 0.6624 0.32722 0.79778 0.0
C3163 C 0.64538 0.29543 0.82648 0.0
C3164 C 0.6931 0.36496 0.80275 0.0
C3165 C 0.68405 0.35749 0.80191 0.0
C3166 C 0.6677 0.33775 0.82948 0.0
C3167 C 0.65013 0.31344 0.8136 0.0
C3168 C 0.65737 0.32352 0.8134 0.0
C3169 C 0.68259 0.34926 0.81492 0.0
C3170 C 0.67323 0.34106 0.81405 0.0
H3171 H 0.62763 0.30192 0.79287 0.0
H3172 H 0.63967 0.31855 0.79181 0.0
H3173 H 0.65598 0.32648 0.84134 0.0
H3174 H 0.70531 0.35519 0.84023 0.0
H3175 H 0.68967 0.34223 0.83873 0.0
C3176 C 0.6319 0.30098 0.19494 0.0
C3177 C 0.63287 0.2932 0.18115 0.0
C3178 C 0.63932 0.31003 0.19622 0.0
C3179 C 0.65913 0.32704 0.17036 0.0
H3180 H 0.67337 0.33298 0.21514 0.0
C3181 C 0.69122 0.36275 0.17907 0.0
C3182 C 0.70122 0.35967 0.18759 0.0
C3183 C 0.68189 0.35566 0.17943 0.0
C3184 C 0.66944 0.33142 0.20256 0.0
H3185 H 0.64252 0.28881 0.15799 0.0
H3186 H 0.65531 0.30465 0.16011 0.0
H3187 H 0.65884 0.31857 0.21308 0.0
H3188 H 0.70918 0.34679 0.20339 0.0
H3189 H 0.69289 0.33449 0.20413 0.0
H3190 H 0.66994 0.33963 0.15971 0.0
C3191 C 0.64872 0.30382 0.1698 0.0
C3192 C 0.66107 0.32326 0.20142 0.0
C3193 C 0.64136 0.29476 0.16858 0.0
C3194 C 0.70157 0.3495 0.19691 0.0
C3195 C 0.69223 0.34244 0.19733 0.0
C3196 C 0.66745 0.33524 0.17152 0.0
C3197 C 0.64781 0.31152 0.18367 0.0
C3198 C 0.65597 0.32085 0.18523 0.0
C3199 C 0.68235 0.34537 0.18838 0.0
C3200 C 0.67282 0.33739 0.18757 0.0
H3201 H 0.62536 0.30012 0.2047 0.0
H3202 H 0.63837 0.3159 0.20696 0.0
H3203 H 0.65526 0.32543 0.15775 0.0
H3204 H 0.69062 0.37062 0.17202 0.0
H3205 H 0.67434 0.3582 0.17261 0.0
C3206 C 0.69392 0.63621 0.20655 0.0
C3207 C 0.69728 0.63182 0.19032 0.0
C3208 C 0.68458 0.64326 0.20765 0.0
C3209 C 0.66027 0.65438 0.18177 0.0
H3210 H 0.66361 0.67969 0.21321 0.0
C3211 C 0.62739 0.69004 0.18453 0.0
C3212 C 0.63157 0.70097 0.18665 0.0
C3213 C 0.63446 0.68078 0.18664 0.0
C3214 C 0.66257 0.67273 0.20424 0.0
H3215 H 0.69352 0.63112 0.16258 0.0
H3216 H 0.67752 0.64376 0.16426 0.0
H3217 H 0.67752 0.6649 0.21346 0.0
H3218 H 0.6464 0.71084 0.19222 0.0
H3219 H 0.65883 0.6948 0.19524 0.0
H3220 H 0.64573 0.66265 0.17169 0.0
C3221 C 0.68179 0.64153 0.1763 0.0
C3222 C 0.67046 0.6641 0.20461 0.0
C3223 C 0.69099 0.63432 0.17528 0.0
C3224 C 0.64293 0.70248 0.19079 0.0
C3225 C 0.65003 0.69326 0.19263 0.0
C3226 C 0.65246 0.66312 0.1812 0.0
C3227 C 0.67857 0.64626 0.19245 0.0
C3228 C 0.66953 0.65488 0.19319 0.0
C3229 C 0.6459 0.68227 0.19063 0.0
C3230 C 0.65362 0.67251 0.19222 0.0
H3231 H 0.69861 0.6343 0.21835 0.0
H3232 H 0.68221 0.6465 0.22038 0.0
H3233 H 0.65913 0.64732 0.17302 0.0
H3234 H 0.61862 0.68867 0.18146 0.0
H3235 H 0.63094 0.67245 0.18524 0.0
C3236 C 0.30058 0.63942 0.15982 0.0
C3237 C 0.29918 0.63173 0.17359 0.0
C3238 C 0.30978 0.64665 0.15956 0.0
C3239 C 0.33049 0.65978 0.18891 0.0
H3240 H 0.34421 0.66872 0.14498 0.0
C3241 C 0.36653 0.6923 0.18482 0.0
C3242 C 0.36486 0.70085 0.17236 0.0
C3243 C 0.35965 0.6828 0.18496 0.0
C3244 C 0.34045 0.6663 0.15734 0.0
H3245 H 0.30648 0.62532 0.19762 0.0
H3246 H 0.32267 0.63791 0.19709 0.0
H3247 H 0.33029 0.65373 0.14518 0.0
H3248 H 0.35453 0.70609 0.15037 0.0
H3249 H 0.34273 0.68946 0.15044 0.0
H3250 H 0.34061 0.67246 0.201 0.0
C3251 C 0.31654 0.63847 0.18664 0.0
C3252 C 0.33246 0.65774 0.15746 0.0
C3253 C 0.30729 0.63126 0.18694 0.0
C3254 C 0.35623 0.69959 0.15992 0.0
C3255 C 0.34944 0.69007 0.15997 0.0
C3256 C 0.33854 0.66829 0.18879 0.0
C3257 C 0.31783 0.64633 0.17303 0.0
C3258 C 0.3272 0.65455 0.17319 0.0
C3259 C 0.35104 0.68161 0.17254 0.0
C3260 C 0.34342 0.6718 0.17295 0.0
H3261 H 0.29437 0.64013 0.14951 0.0
H3262 H 0.31037 0.65275 0.14907 0.0
H3263 H 0.32651 0.65762 0.20123 0.0
H3264 H 0.3732 0.69292 0.19442 0.0
H3265 H 0.36111 0.67635 0.19471 0.0
C3266 C 0.30571 0.3641 0.17968 0.0
C3267 C 0.29817 0.3655 0.19363 0.0
C3268 C 0.31492 0.35695 0.18142 0.0
C3269 C 0.32349 0.33224 0.20719 0.0
H3270 H 0.35097 0.33552 0.1805 0.0
C3271 C 0.35055 0.29433 0.18935 0.0
C3272 C 0.36226 0.29549 0.18879 0.0
C3273 C 0.34371 0.30367 0.19196 0.0
C3274 C 0.34343 0.33453 0.18827 0.0
H3275 H 0.29471 0.36125 0.22069 0.0
H3276 H 0.31102 0.34905 0.224 0.0
H3277 H 0.33786 0.35116 0.18227 0.0
H3278 H 0.37604 0.30728 0.19075 0.0
H3279 H 0.36408 0.32365 0.19563 0.0
H3280 H 0.32909 0.3157 0.21341 0.0
C3281 C 0.30965 0.35315 0.21152 0.0
C3282 C 0.33584 0.34346 0.1891 0.0
C3283 C 0.30035 0.36017 0.20968 0.0
C3284 C 0.36702 0.30618 0.19097 0.0
C3285 C 0.36017 0.31554 0.19374 0.0
C3286 C 0.33111 0.32338 0.2065 0.0
C3287 C 0.31685 0.35116 0.19722 0.0
C3288 C 0.32564 0.34232 0.19821 0.0
C3289 C 0.34843 0.31439 0.19425 0.0
C3290 C 0.34102 0.3243 0.19663 0.0
H3291 H 0.30414 0.36805 0.16712 0.0
H3292 H 0.32017 0.35552 0.17005 0.0
H3293 H 0.31569 0.33097 0.21418 0.0
H3294 H 0.34664 0.28622 0.1874 0.0
H3295 H 0.33471 0.3025 0.19183 0.0
C3296 C 0.95841 0.26102 0.27657 0.0
C3297 C 0.95111 0.25178 0.27555 0.0
C3298 C 0.96925 0.26035 0.26985 0.0
C3299 C 0.991 0.23965 0.26453 0.0
H3300 H 0.00758 0.26515 0.24647 0.0
C3301 C 0.03897 0.24145 0.26995 0.0
C3302 C 0.0427 0.25139 0.278 0.0
C3303 C 0.02814 0.24077 0.26296 0.0
C3304 C 0.00306 0.25791 0.25138 0.0
H3305 H 0.94925 0.23486 0.26545 0.0
H3306 H 0.96839 0.2336 0.25408 0.0
H3307 H 0.98709 0.26531 0.24572 0.0
H3308 H 0.03811 0.2685 0.28451 0.0
H3309 H 0.01934 0.26733 0.27242 0.0
H3310 H 0.00688 0.23256 0.27128 0.0
C3311 C 0.96566 0.24134 0.26017 0.0
C3312 C 0.99135 0.258 0.25092 0.0
C3313 C 0.95474 0.24205 0.26678 0.0
C3314 C 0.03557 0.26077 0.27819 0.0
C3315 C 0.0248 0.26011 0.27119 0.0
C3316 C 0.00271 0.23957 0.26504 0.0
C3317 C 0.9731 0.25039 0.26205 0.0
C3318 C 0.98522 0.2491 0.25825 0.0
C3319 C 0.02086 0.25003 0.26385 0.0
C3320 C 0.00883 0.24894 0.25924 0.0
H3321 H 0.95599 0.26859 0.28345 0.0
H3322 H 0.97484 0.2674 0.2718 0.0
H3323 H 0.98651 0.2327 0.2704 0.0
H3324 H 0.04434 0.23413 0.26932 0.0
H3325 H 0.02537 0.23293 0.25724 0.0
C3326 C 0.72555 0.03889 0.28923 0.0
C3327 C 0.73613 0.04392 0.28736 0.0
C3328 C 0.72386 0.02779 0.28413 0.0
C3329 C 0.73634 0.00374 0.26009 0.0
H3330 H 0.72187 0.98645 0.29672 0.0
C3331 C 0.74334 0.95642 0.27121 0.0
C3332 C 0.73473 0.9501 0.27906 0.0
C3333 C 0.74186 0.96784 0.26786 0.0
C3334 C 0.72569 0.99112 0.28611 0.0
H3335 H 0.7531 0.04151 0.27791 0.0
H3336 H 0.75023 0.02199 0.26926 0.0
H3337 H 0.72233 0.00669 0.29883 0.0
H3338 H 0.71748 0.95072 0.28821 0.0
H3339 H 0.71478 0.97044 0.28166 0.0
H3340 H 0.74001 0.98802 0.24769 0.0
C3341 C 0.74318 0.02668 0.27443 0.0
C3342 C 0.72597 0.00277 0.28735 0.0
C3343 C 0.74485 0.03783 0.27945 0.0
C3344 C 0.72431 0.95526 0.28211 0.0
C3345 C 0.72279 0.96664 0.27857 0.0
C3346 C 0.73604 0.99203 0.25882 0.0
C3347 C 0.73275 0.02146 0.27717 0.0
C3348 C 0.73146 0.0092 0.27453 0.0
C3349 C 0.7317 0.97316 0.27213 0.0
C3350 C 0.73087 0.98559 0.27199 0.0
H3351 H 0.71862 0.04349 0.29495 0.0
H3352 H 0.71567 0.02407 0.28608 0.0
H3353 H 0.74054 0.0085 0.24993 0.0
H3354 H 0.75139 0.95265 0.26829 0.0
H3355 H 0.74892 0.97261 0.2629 0.0
C3356 C 0.04074 0.75185 0.26502 0.0
C3357 C 0.04507 0.74224 0.27328 0.0
C3358 C 0.02968 0.75202 0.259 0.0
C3359 C 0.00425 0.73429 0.252 0.0
H3360 H 0.98881 0.76004 0.27154 0.0
C3361 C 0.95983 0.73236 0.27982 0.0
C3362 C 0.95292 0.7419 0.27924 0.0
C3363 C 0.97062 0.73268 0.27278 0.0
C3364 C 0.99295 0.75291 0.26557 0.0
H3365 H 0.04145 0.72505 0.2807 0.0
H3366 H 0.02218 0.72537 0.27039 0.0
H3367 H 0.00911 0.76007 0.26989 0.0
H3368 H 0.95159 0.75898 0.26969 0.0
H3369 H 0.97051 0.75956 0.25744 0.0
H3370 H 0.98801 0.7269 0.2486 0.0
C3371 C 0.02733 0.73274 0.2683 0.0
C3372 C 0.00463 0.75293 0.2646 0.0
C3373 C 0.03839 0.73256 0.27428 0.0
C3374 C 0.95681 0.75158 0.27064 0.0
C3375 C 0.96762 0.75189 0.26358 0.0
C3376 C 0.99255 0.73426 0.25297 0.0
C3377 C 0.02273 0.74259 0.26117 0.0
C3378 C 0.01043 0.74345 0.25845 0.0
C3379 C 0.97474 0.74254 0.26498 0.0
C3380 C 0.98681 0.7434 0.26041 0.0
H3381 H 0.04578 0.75937 0.26378 0.0
H3382 H 0.02642 0.75968 0.25328 0.0
H3383 H 0.00849 0.72694 0.2469 0.0
H3384 H 0.95712 0.72481 0.28651 0.0
H3385 H 0.97595 0.72538 0.27436 0.0
C3386 C 0.26822 0.95647 0.27441 0.0
C3387 C 0.25747 0.9517 0.2756 0.0
C3388 C 0.26953 0.96768 0.26959 0.0
C3389 C 0.25525 0.99281 0.25174 0.0
H3390 H 0.2726 0.00828 0.28727 0.0
C3391 C 0.24951 0.03964 0.26857 0.0
C3392 C 0.25853 0.04555 0.2761 0.0
C3393 C 0.25067 0.02836 0.26395 0.0
C3394 C 0.26796 0.00416 0.2769 0.0
H3395 H 0.23973 0.95467 0.27127 0.0
H3396 H 0.24201 0.97436 0.26314 0.0
H3397 H 0.27237 0.98801 0.28678 0.0
H3398 H 0.27614 0.0443 0.28331 0.0
H3399 H 0.27831 0.02501 0.27421 0.0
H3400 H 0.25067 0.00906 0.24207 0.0
C3401 C 0.24942 0.9694 0.26586 0.0
C3402 C 0.26781 0.99249 0.27668 0.0
C3403 C 0.24811 0.95817 0.27072 0.0
C3404 C 0.26898 0.04014 0.27751 0.0
C3405 C 0.27019 0.02895 0.27254 0.0
C3406 C 0.25549 0.00455 0.25184 0.0
C3407 C 0.26011 0.97436 0.26586 0.0
C3408 C 0.26129 0.98668 0.26433 0.0
C3409 C 0.26094 0.02277 0.26645 0.0
C3410 C 0.26168 0.01037 0.26466 0.0
H3411 H 0.2756 0.95175 0.27817 0.0
H3412 H 0.27788 0.97127 0.26952 0.0
H3413 H 0.2502 0.98852 0.24201 0.0
H3414 H 0.24141 0.0436 0.26679 0.0
H3415 H 0.24334 0.02389 0.2593 0.0
C3416 C 0.03959 0.74572 0.72054 0.0
C3417 C 0.04563 0.73681 0.71306 0.0
C3418 C 0.02841 0.74423 0.72557 0.0
C3419 C 0.00456 0.72734 0.71224 0.0
H3420 H 0.98933 0.74121 0.75159 0.0
C3421 C 0.95708 0.7254 0.7159 0.0
C3422 C 0.95164 0.73561 0.71957 0.0
C3423 C 0.96844 0.72401 0.7196 0.0
C3424 C 0.99347 0.73732 0.74052 0.0
H3425 H 0.04512 0.71913 0.70643 0.0
H3426 H 0.02563 0.71651 0.71522 0.0
H3427 H 0.00985 0.74172 0.74999 0.0
H3428 H 0.95377 0.75199 0.7316 0.0
H3429 H 0.97376 0.74982 0.73701 0.0
H3430 H 0.98838 0.72341 0.7022 0.0
C3431 C 0.02943 0.7247 0.71686 0.0
C3432 C 0.0052 0.73759 0.73964 0.0
C3433 C 0.04056 0.7262 0.71179 0.0
C3434 C 0.95773 0.74412 0.72811 0.0
C3435 C 0.96918 0.74281 0.73151 0.0
C3436 C 0.99291 0.72714 0.71304 0.0
C3437 C 0.02313 0.73379 0.72323 0.0
C3438 C 0.01083 0.73269 0.72538 0.0
C3439 C 0.97474 0.73288 0.72669 0.0
C3440 C 0.98719 0.73222 0.72708 0.0
H3441 H 0.0433 0.75399 0.72162 0.0
H3442 H 0.02373 0.7514 0.73032 0.0
H3443 H 0.00863 0.72372 0.70088 0.0
H3444 H 0.95278 0.71863 0.70924 0.0
H3445 H 0.97239 0.71614 0.71614 0.0
C3446 C 0.26507 0.95978 0.72298 0.0
C3447 C 0.25607 0.95236 0.72569 0.0
C3448 C 0.26465 0.97071 0.72947 0.0
C3449 C 0.24409 0.99221 0.73727 0.0
H3450 H 0.2699 0.0093 0.75294 0.0
C3451 C 0.24385 0.04014 0.73294 0.0
C3452 C 0.25345 0.04457 0.7248 0.0
C3453 C 0.2439 0.02921 0.73957 0.0
C3454 C 0.26259 0.00465 0.74862 0.0
H3455 H 0.23994 0.95038 0.73855 0.0
H3456 H 0.23909 0.96964 0.74943 0.0
H3457 H 0.27065 0.98881 0.75299 0.0
H3458 H 0.27076 0.04119 0.71782 0.0
H3459 H 0.27081 0.02215 0.729 0.0
H3460 H 0.23629 0.00792 0.73168 0.0
C3461 C 0.24644 0.96695 0.74222 0.0
C3462 C 0.26302 0.99293 0.74872 0.0
C3463 C 0.2469 0.95596 0.73588 0.0
C3464 C 0.26326 0.03806 0.7242 0.0
C3465 C 0.2633 0.02713 0.7307 0.0
C3466 C 0.2437 0.00391 0.73702 0.0
C3467 C 0.25519 0.9745 0.73869 0.0
C3468 C 0.25392 0.98663 0.74241 0.0
C3469 C 0.25354 0.02246 0.73805 0.0
C3470 C 0.25311 0.01026 0.74201 0.0
H3471 H 0.27219 0.95739 0.71501 0.0
H3472 H 0.27145 0.97639 0.7263 0.0
H3473 H 0.23699 0.98757 0.73217 0.0
H3474 H 0.23622 0.04505 0.73383 0.0
H3475 H 0.2363 0.02593 0.7454 0.0
C3476 C 0.0356 0.26267 0.72371 0.0
C3477 C 0.04317 0.25389 0.72714 0.0
C3478 C 0.02475 0.2624 0.73045 0.0
C3479 C 0.0033 0.24236 0.74017 0.0
H3480 H 0.98677 0.26874 0.75496 0.0
C3481 C 0.95536 0.2434 0.73522 0.0
C3482 C 0.95135 0.25299 0.72653 0.0
C3483 C 0.96624 0.2432 0.74209 0.0
C3484 C 0.99126 0.26128 0.75092 0.0
H3485 H 0.04538 0.23825 0.74139 0.0
H3486 H 0.02616 0.23759 0.75255 0.0
H3487 H 0.00726 0.26909 0.75484 0.0
H3488 H 0.95542 0.27001 0.71877 0.0
H3489 H 0.97432 0.26963 0.73044 0.0
H3490 H 0.98741 0.23482 0.73491 0.0
C3491 C 0.02876 0.24469 0.74468 0.0
C3492 C 0.00297 0.26147 0.75094 0.0
C3493 C 0.03971 0.24504 0.73814 0.0
C3494 C 0.9582 0.26254 0.7256 0.0
C3495 C 0.96906 0.26233 0.73237 0.0
C3496 C 0.99159 0.2422 0.73999 0.0
C3497 C 0.02113 0.25328 0.74061 0.0
C3498 C 0.00907 0.25218 0.74485 0.0
C3499 C 0.97331 0.25257 0.74031 0.0
C3500 C 0.98545 0.25184 0.7446 0.0
H3501 H 0.03784 0.26952 0.71506 0.0
H3502 H 0.01898 0.26903 0.72683 0.0
H3503 H 0.0078 0.23511 0.73528 0.0
H3504 H 0.95018 0.23597 0.73637 0.0
H3505 H 0.96921 0.2356 0.74834 0.0
C3506 C 0.73368 0.03727 0.72048 0.0
C3507 C 0.74303 0.04444 0.72124 0.0
C3508 C 0.73429 0.02641 0.7272 0.0
C3509 C 0.75487 0.00446 0.73257 0.0
H3510 H 0.72977 0.9882 0.75255 0.0
C3511 C 0.75429 0.95664 0.73028 0.0
C3512 C 0.74429 0.95228 0.72332 0.0
C3513 C 0.75465 0.9676 0.73674 0.0
C3514 C 0.73687 0.99262 0.74703 0.0
H3515 H 0.76009 0.04608 0.73085 0.0
H3516 H 0.76121 0.02697 0.74229 0.0
H3517 H 0.72939 0.00869 0.75175 0.0
H3518 H 0.7267 0.95572 0.71851 0.0
H3519 H 0.72735 0.97485 0.72938 0.0
H3520 H 0.76206 0.98851 0.72675 0.0
C3521 C 0.75345 0.02978 0.73636 0.0
C3522 C 0.73666 0.00434 0.74662 0.0
C3523 C 0.75282 0.04068 0.72971 0.0
C3524 C 0.73451 0.95883 0.72392 0.0
C3525 C 0.73488 0.9698 0.73024 0.0
C3526 C 0.75506 0.99277 0.73287 0.0
C3527 C 0.74427 0.02245 0.73476 0.0
C3528 C 0.74548 0.01035 0.73877 0.0
C3529 C 0.74505 0.97445 0.7362 0.0
C3530 C 0.74586 0.9867 0.73948 0.0
H3531 H 0.72605 0.03983 0.71387 0.0
H3532 H 0.72713 0.02091 0.72552 0.0
H3533 H 0.76174 0.00884 0.72627 0.0
H3534 H 0.76191 0.95169 0.73025 0.0
H3535 H 0.76256 0.97086 0.74154 0.0
C3536 C 0.54087 0.77182 0.77745 0.0
C3537 C 0.5457 0.76106 0.77785 0.0
C3538 C 0.52971 0.77324 0.77239 0.0
C3539 C 0.50476 0.75871 0.75353 0.0
H3540 H 0.48881 0.77641 0.78811 0.0
C3541 C 0.45871 0.75127 0.77286 0.0
C3542 C 0.45225 0.76038 0.77878 0.0
C3543 C 0.46986 0.75282 0.76778 0.0
C3544 C 0.49309 0.77165 0.77804 0.0
H3545 H 0.54287 0.7435 0.77179 0.0
H3546 H 0.52328 0.74593 0.76359 0.0
H3547 H 0.5091 0.77659 0.7878 0.0
H3548 H 0.45227 0.7784 0.78294 0.0
H3549 H 0.47157 0.78114 0.7736 0.0
H3550 H 0.48861 0.75341 0.74431 0.0
C3551 C 0.52814 0.75329 0.76701 0.0
C3552 C 0.50477 0.77175 0.77786 0.0
C3553 C 0.53933 0.75187 0.77196 0.0
C3554 C 0.45696 0.77119 0.77839 0.0
C3555 C 0.46808 0.77275 0.77321 0.0
C3556 C 0.49302 0.7586 0.75371 0.0
C3557 C 0.5231 0.76394 0.76775 0.0
C3558 C 0.51076 0.76508 0.7659 0.0
C3559 C 0.47477 0.76354 0.76845 0.0
C3560 C 0.48707 0.76486 0.76627 0.0
H3561 H 0.54549 0.77908 0.78195 0.0
H3562 H 0.52611 0.78158 0.77282 0.0
H3563 H 0.50914 0.75359 0.744 0.0
H3564 H 0.45527 0.74286 0.77267 0.0
H3565 H 0.47479 0.74553 0.76427 0.0
C3566 C 0.23524 0.45961 0.77683 0.0
C3567 C 0.24456 0.45243 0.7756 0.0
C3568 C 0.23586 0.4706 0.77066 0.0
C3569 C 0.25647 0.49263 0.76621 0.0
H3570 H 0.23112 0.5093 0.74789 0.0
C3571 C 0.25525 0.54064 0.77066 0.0
C3572 C 0.2453 0.54466 0.77831 0.0
C3573 C 0.25579 0.52971 0.76404 0.0
C3574 C 0.2383 0.50476 0.75291 0.0
H3575 H 0.26157 0.45094 0.7657 0.0
H3576 H 0.2627 0.47028 0.75524 0.0
H3577 H 0.23085 0.48882 0.74723 0.0
H3578 H 0.22803 0.5405 0.78448 0.0
H3579 H 0.22897 0.52154 0.77308 0.0
H3580 H 0.26364 0.50848 0.77291 0.0
C3581 C 0.25496 0.46737 0.7611 0.0
C3582 C 0.23815 0.49305 0.7525 0.0
C3583 C 0.25432 0.45633 0.76719 0.0
C3584 C 0.23577 0.53773 0.77846 0.0
C3585 C 0.23631 0.52684 0.77185 0.0
C3586 C 0.25661 0.50433 0.76667 0.0
C3587 C 0.24582 0.4747 0.7632 0.0
C3588 C 0.24703 0.48687 0.75982 0.0
C3589 C 0.24639 0.52262 0.76493 0.0
C3590 C 0.24731 0.5105 0.76072 0.0
H3591 H 0.22765 0.45695 0.78342 0.0
H3592 H 0.22873 0.47609 0.77272 0.0
H3593 H 0.26341 0.48811 0.77208 0.0
H3594 H 0.26268 0.54586 0.77009 0.0
H3595 H 0.26363 0.52673 0.7586 0.0
C3596 C 0.458 0.22563 0.785 0.0
C3597 C 0.453 0.23629 0.78559 0.0
C3598 C 0.46907 0.2244 0.7794 0.0
C3599 C 0.49294 0.23915 0.75803 0.0
H3600 H 0.51065 0.22116 0.79007 0.0
C3601 C 0.53998 0.24596 0.77108 0.0
C3602 C 0.54658 0.23676 0.77624 0.0
C3603 C 0.5286 0.24455 0.76731 0.0
C3604 C 0.50584 0.226 0.78069 0.0
H3605 H 0.4555 0.25397 0.78019 0.0
H3606 H 0.47492 0.25186 0.77071 0.0
H3607 H 0.49041 0.22116 0.7926 0.0
H3608 H 0.54656 0.21871 0.78015 0.0
H3609 H 0.52685 0.21623 0.77301 0.0
H3610 H 0.50853 0.24433 0.7466 0.0
C3611 C 0.47023 0.24442 0.77425 0.0
C3612 C 0.4942 0.22601 0.78217 0.0
C3613 C 0.45912 0.24564 0.77975 0.0
C3614 C 0.54176 0.22599 0.77617 0.0
C3615 C 0.53042 0.22458 0.77228 0.0
C3616 C 0.50464 0.23914 0.75655 0.0
C3617 C 0.4754 0.23382 0.77441 0.0
C3618 C 0.48762 0.23277 0.77112 0.0
C3619 C 0.52361 0.2339 0.76852 0.0
C3620 C 0.51122 0.23275 0.76813 0.0
H3621 H 0.45338 0.21825 0.78911 0.0
H3622 H 0.47275 0.21609 0.77937 0.0
H3623 H 0.48808 0.24433 0.74918 0.0
H3624 H 0.5435 0.25434 0.77065 0.0
H3625 H 0.5236 0.25192 0.76451 0.0
C3626 C 0.75246 0.4591 0.77214 0.0
C3627 C 0.76146 0.45253 0.77819 0.0
C3628 C 0.75419 0.47023 0.76711 0.0
C3629 C 0.77254 0.4932 0.77896 0.0
H3630 H 0.75618 0.50951 0.74316 0.0
C3631 C 0.77185 0.54092 0.78076 0.0
C3632 C 0.76113 0.54571 0.77904 0.0
C3633 C 0.77381 0.52988 0.77549 0.0
C3634 C 0.7608 0.50507 0.75323 0.0
H3635 H 0.77944 0.4523 0.7827 0.0
H3636 H 0.78245 0.47167 0.77373 0.0
H3637 H 0.756 0.48899 0.74309 0.0
H3638 H 0.74434 0.54294 0.7689 0.0
H3639 H 0.74756 0.52354 0.76068 0.0
H3640 H 0.7768 0.50908 0.78983 0.0
C3641 C 0.77405 0.46823 0.77303 0.0
C3642 C 0.76072 0.49334 0.75314 0.0
C3643 C 0.77233 0.45711 0.77803 0.0
C3644 C 0.75262 0.53943 0.77087 0.0
C3645 C 0.75453 0.52833 0.76585 0.0
C3646 C 0.77254 0.50488 0.77915 0.0
C3647 C 0.76495 0.47501 0.76808 0.0
C3648 C 0.76638 0.4873 0.76626 0.0
C3649 C 0.76505 0.5233 0.76866 0.0
C3650 C 0.76645 0.51098 0.76656 0.0
H3651 H 0.74402 0.45574 0.77186 0.0
H3652 H 0.74699 0.47527 0.76346 0.0
H3653 H 0.77682 0.4888 0.78944 0.0
H3654 H 0.77862 0.54546 0.78702 0.0
H3655 H 0.78209 0.52636 0.77748 0.0
C3656 C 0.45744 0.23371 0.22554 0.0
C3657 C 0.45051 0.2432 0.22694 0.0
C3658 C 0.46836 0.23392 0.23207 0.0
C3659 C 0.49073 0.25408 0.23797 0.0
H3660 H 0.507 0.22774 0.25359 0.0
C3661 C 0.53864 0.25181 0.23206 0.0
C3662 C 0.5422 0.24218 0.22298 0.0
C3663 C 0.52785 0.25235 0.23918 0.0
C3664 C 0.50257 0.2352 0.24937 0.0
H3665 H 0.44929 0.26003 0.23763 0.0
H3666 H 0.46849 0.26044 0.24885 0.0
H3667 H 0.48652 0.2279 0.25479 0.0
H3668 H 0.53733 0.22544 0.21477 0.0
H3669 H 0.51862 0.22638 0.22714 0.0
H3670 H 0.50668 0.26113 0.23157 0.0
C3671 C 0.46547 0.25289 0.24251 0.0
C3672 C 0.49086 0.23529 0.25007 0.0
C3673 C 0.45451 0.25266 0.23602 0.0
C3674 C 0.53494 0.23293 0.22189 0.0
C3675 C 0.52419 0.23345 0.22904 0.0
C3676 C 0.50243 0.25398 0.23727 0.0
C3677 C 0.47262 0.24364 0.24012 0.0
C3678 C 0.48482 0.24454 0.24361 0.0
C3679 C 0.52043 0.24326 0.23741 0.0
C3680 C 0.50843 0.24434 0.2422 0.0
H3681 H 0.45469 0.22634 0.21844 0.0
H3682 H 0.47369 0.22672 0.22974 0.0
H3683 H 0.48633 0.2613 0.23276 0.0
H3684 H 0.54412 0.25901 0.2334 0.0
H3685 H 0.5252 0.25998 0.24569 0.0
C3686 C 0.76984 0.53833 0.21009 0.0
C3687 C 0.75931 0.54349 0.21181 0.0
C3688 C 0.77129 0.52713 0.21482 0.0
C3689 C 0.75817 0.5029 0.23752 0.0
H3690 H 0.77296 0.486 0.20075 0.0
C3691 C 0.75168 0.45549 0.22551 0.0
C3692 C 0.76053 0.4493 0.21807 0.0
C3693 C 0.7529 0.46696 0.2288 0.0
C3694 C 0.76903 0.49056 0.21138 0.0
H3695 H 0.74219 0.54121 0.22064 0.0
H3696 H 0.74465 0.52152 0.22867 0.0
H3697 H 0.77263 0.50627 0.19927 0.0
H3698 H 0.77787 0.45024 0.20939 0.0
H3699 H 0.7801 0.47002 0.21584 0.0
H3700 H 0.75431 0.48703 0.24933 0.0
C3701 C 0.75183 0.52617 0.22389 0.0
C3702 C 0.76883 0.50222 0.21052 0.0
C3703 C 0.7504 0.53743 0.21924 0.0
C3704 C 0.77087 0.45467 0.21521 0.0
C3705 C 0.77212 0.46608 0.21869 0.0
C3706 C 0.7584 0.49117 0.23842 0.0
C3707 C 0.76221 0.52083 0.22126 0.0
C3708 C 0.76328 0.50852 0.22342 0.0
C3709 C 0.76302 0.47245 0.22485 0.0
C3710 C 0.7637 0.48488 0.22521 0.0
H3711 H 0.77691 0.5429 0.20472 0.0
H3712 H 0.77945 0.52331 0.21298 0.0
H3713 H 0.75391 0.50755 0.24773 0.0
H3714 H 0.74368 0.45156 0.22825 0.0
H3715 H 0.7457 0.47161 0.23353 0.0
C3716 C 0.45581 0.74614 0.23396 0.0
C3717 C 0.45173 0.75544 0.22459 0.0
C3718 C 0.46666 0.74625 0.24094 0.0
C3719 C 0.49155 0.7648 0.24852 0.0
H3720 H 0.50824 0.73819 0.23533 0.0
C3721 C 0.53602 0.76527 0.22159 0.0
C3722 C 0.54353 0.75656 0.22571 0.0
C3723 C 0.52516 0.7653 0.22838 0.0
C3724 C 0.5037 0.74559 0.23954 0.0
H3725 H 0.45563 0.77227 0.21574 0.0
H3726 H 0.47451 0.77242 0.22753 0.0
H3727 H 0.48788 0.7378 0.23475 0.0
H3728 H 0.54568 0.74145 0.24129 0.0
H3729 H 0.52648 0.74128 0.25255 0.0
H3730 H 0.5075 0.7728 0.25193 0.0
C3731 C 0.46932 0.76512 0.22993 0.0
C3732 C 0.49199 0.74537 0.23923 0.0
C3733 C 0.45848 0.76503 0.22307 0.0
C3734 C 0.54005 0.74816 0.2375 0.0
C3735 C 0.52911 0.74809 0.24409 0.0
C3736 C 0.50326 0.76504 0.24864 0.0
C3737 C 0.47366 0.75563 0.23856 0.0
C3738 C 0.48579 0.75513 0.24296 0.0
C3739 C 0.5215 0.75654 0.23927 0.0
C3740 C 0.50942 0.75557 0.24344 0.0
H3741 H 0.4507 0.73869 0.23556 0.0
H3742 H 0.46968 0.73887 0.24774 0.0
H3743 H 0.48701 0.77237 0.25188 0.0
H3744 H 0.53826 0.77179 0.21234 0.0
H3745 H 0.51942 0.77181 0.22419 0.0
C3746 C 0.24347 0.45775 0.22173 0.0
C3747 C 0.23471 0.45197 0.21335 0.0
C3748 C 0.24211 0.46898 0.22661 0.0
C3749 C 0.22635 0.49344 0.21224 0.0
H3750 H 0.23923 0.50789 0.25312 0.0
C3751 C 0.22513 0.54089 0.21745 0.0
C3752 C 0.23535 0.54608 0.22186 0.0
C3753 C 0.22344 0.52952 0.2207 0.0
C3754 C 0.23561 0.50396 0.24163 0.0
H3755 H 0.2174 0.45305 0.2048 0.0
H3756 H 0.21502 0.47261 0.21335 0.0
H3757 H 0.23931 0.48738 0.25096 0.0
H3758 H 0.2514 0.54346 0.23472 0.0
H3759 H 0.24869 0.52346 0.23944 0.0
H3760 H 0.2231 0.50983 0.20243 0.0
C3761 C 0.223 0.46857 0.21582 0.0
C3762 C 0.23565 0.49224 0.24041 0.0
C3763 C 0.22437 0.45739 0.21089 0.0
C3764 C 0.24354 0.53971 0.2307 0.0
C3765 C 0.24191 0.52825 0.23368 0.0
C3766 C 0.22637 0.50509 0.2134 0.0
C3767 C 0.23197 0.47458 0.22323 0.0
C3768 C 0.23111 0.48689 0.2256 0.0
C3769 C 0.232 0.52295 0.2281 0.0
C3770 C 0.2311 0.51052 0.22801 0.0
H3771 H 0.25154 0.45378 0.22372 0.0
H3772 H 0.2492 0.47342 0.23216 0.0
H3773 H 0.22302 0.48959 0.20047 0.0
H3774 H 0.21861 0.54541 0.21053 0.0
H3775 H 0.21558 0.52575 0.21664 0.0
C3776 C 0.08453 0.27002 0.43593 0.0
C3777 C 0.09125 0.26194 0.42753 0.0
C3778 C 0.0841 0.27056 0.45427 0.0
C3779 C 0.10077 0.26325 0.49301 0.0
H3780 H 0.07286 0.2656 0.51885 0.0
C3781 C 0.09918 0.2557 0.56712 0.0
C3782 C 0.09222 0.26255 0.57741 0.0
C3783 C 0.09868 0.25618 0.54887 0.0
C3784 C 0.08074 0.26511 0.51182 0.0
H3785 H 0.1023 0.24772 0.43187 0.0
H3786 H 0.10168 0.24881 0.46368 0.0
H3787 H 0.07254 0.2655 0.48677 0.0
H3788 H 0.07921 0.27525 0.57664 0.0
H3789 H 0.07841 0.2762 0.54462 0.0
H3790 H 0.10902 0.26293 0.51786 0.0
C3791 C 0.0969 0.25484 0.45611 0.0
C3792 C 0.08054 0.26503 0.49347 0.0
C3793 C 0.09727 0.25425 0.43787 0.0
C3794 C 0.08463 0.26982 0.56903 0.0
C3795 C 0.08417 0.27035 0.55071 0.0
C3796 C 0.10098 0.26341 0.51129 0.0
C3797 C 0.09043 0.26308 0.46451 0.0
C3798 C 0.09055 0.26391 0.4839 0.0
C3799 C 0.09124 0.26357 0.54042 0.0
C3800 C 0.09096 0.26414 0.52094 0.0
H3801 H 0.07984 0.27611 0.42836 0.0
H3802 H 0.07906 0.27702 0.46042 0.0
H3803 H 0.10864 0.26261 0.48597 0.0
H3804 H 0.10495 0.24985 0.5732 0.0
H3805 H 0.10405 0.25064 0.54138 0.0
C3806 C 0.7316 0.08742 0.56548 0.0
C3807 C 0.73321 0.0975 0.57474 0.0
C3808 C 0.73147 0.08735 0.54714 0.0
C3809 C 0.74228 0.10285 0.50954 0.0
H3810 H 0.71951 0.08716 0.48272 0.0
C3811 C 0.74609 0.09531 0.43513 0.0
C3812 C 0.73666 0.09821 0.42499 0.0
C3813 C 0.74541 0.09491 0.45339 0.0
C3814 C 0.7259 0.09158 0.49007 0.0
H3815 H 0.73545 0.11549 0.57185 0.0
H3816 H 0.73553 0.11528 0.53992 0.0
H3817 H 0.71858 0.08718 0.51483 0.0
H3818 H 0.71907 0.10288 0.42628 0.0
H3819 H 0.71784 0.10187 0.45818 0.0
H3820 H 0.74965 0.10721 0.48486 0.0
C3821 C 0.73446 0.10743 0.54689 0.0
C3822 C 0.72541 0.09154 0.5084 0.0
C3823 C 0.73447 0.10753 0.56519 0.0
C3824 C 0.72646 0.10046 0.4336 0.0
C3825 C 0.72575 0.09991 0.45188 0.0
C3826 C 0.74286 0.10276 0.49126 0.0
C3827 C 0.73306 0.09734 0.53769 0.0
C3828 C 0.73357 0.09723 0.51829 0.0
C3829 C 0.73525 0.09725 0.46195 0.0
C3830 C 0.73466 0.09717 0.48135 0.0
H3831 H 0.73075 0.07952 0.57236 0.0
H3832 H 0.73046 0.07943 0.54034 0.0
H3833 H 0.74873 0.10722 0.51686 0.0
H3834 H 0.75402 0.09328 0.42897 0.0
H3835 H 0.75282 0.09268 0.46084 0.0
C3836 C 0.90926 0.72477 0.43458 0.0
C3837 C 0.90072 0.73083 0.42611 0.0
C3838 C 0.90937 0.7238 0.45288 0.0
C3839 C 0.89074 0.72626 0.49146 0.0
H3840 H 0.91838 0.7301 0.51761 0.0
C3841 C 0.89106 0.73558 0.56525 0.0
C3842 C 0.89906 0.73016 0.5758 0.0
C3843 C 0.89148 0.73467 0.54703 0.0
C3844 C 0.91062 0.72885 0.51048 0.0
H3845 H 0.88584 0.74097 0.43023 0.0
H3846 H 0.88603 0.7393 0.46198 0.0
H3847 H 0.9188 0.73035 0.48557 0.0
H3848 H 0.91376 0.71941 0.57539 0.0
H3849 H 0.91454 0.71791 0.54344 0.0
H3850 H 0.88252 0.72494 0.5163 0.0
C3851 C 0.8925 0.73506 0.45453 0.0
C3852 C 0.91086 0.72899 0.49214 0.0
C3853 C 0.89239 0.73602 0.43631 0.0
C3854 C 0.90753 0.7238 0.56764 0.0
C3855 C 0.90798 0.72293 0.54936 0.0
C3856 C 0.89049 0.72614 0.50975 0.0
C3857 C 0.90093 0.72888 0.46303 0.0
C3858 C 0.90089 0.72789 0.48244 0.0
C3859 C 0.89994 0.72835 0.53887 0.0
C3860 C 0.90039 0.72761 0.51946 0.0
H3861 H 0.91575 0.7206 0.42706 0.0
H3862 H 0.91594 0.71891 0.45904 0.0
H3863 H 0.88294 0.72514 0.48438 0.0
H3864 H 0.88457 0.74075 0.57105 0.0
H3865 H 0.88529 0.73913 0.5393 0.0
C3866 C 0.2616 0.91623 0.56575 0.0
C3867 C 0.26189 0.90583 0.57444 0.0
C3868 C 0.26195 0.91673 0.54743 0.0
C3869 C 0.25558 0.89946 0.50874 0.0
H3870 H 0.27268 0.92182 0.48324 0.0
C3871 C 0.25003 0.90535 0.43468 0.0
C3872 C 0.25986 0.90623 0.4246 0.0
C3873 C 0.25047 0.90614 0.45291 0.0
C3874 C 0.2679 0.9155 0.4902 0.0
H3875 H 0.26334 0.88785 0.57076 0.0
H3876 H 0.26393 0.88871 0.53888 0.0
H3877 H 0.27355 0.92131 0.51531 0.0
H3878 H 0.27783 0.90898 0.42574 0.0
H3879 H 0.2786 0.91036 0.45771 0.0
H3880 H 0.25004 0.89352 0.48377 0.0
C3881 C 0.2632 0.89647 0.54618 0.0
C3882 C 0.26833 0.91527 0.50854 0.0
C3883 C 0.26286 0.89597 0.56445 0.0
C3884 C 0.2701 0.90834 0.43315 0.0
C3885 C 0.27054 0.90913 0.45144 0.0
C3886 C 0.25512 0.89971 0.49048 0.0
C3887 C 0.26259 0.90683 0.53745 0.0
C3888 C 0.26219 0.90721 0.518 0.0
C3889 C 0.26075 0.90783 0.46153 0.0
C3890 C 0.26126 0.90773 0.48098 0.0
H3891 H 0.26077 0.92397 0.57309 0.0
H3892 H 0.26137 0.92483 0.54107 0.0
H3893 H 0.25064 0.89323 0.51563 0.0
H3894 H 0.24197 0.90398 0.42846 0.0
H3895 H 0.24275 0.90535 0.46029 0.0
C3896 C 0.10018 0.72683 0.43399 0.0
C3897 C 0.0911 0.73112 0.42429 0.0
C3898 C 0.0996 0.726 0.45221 0.0
C3899 C 0.08384 0.73743 0.49026 0.0
H3900 H 0.10129 0.71519 0.51549 0.0
C3901 C 0.08436 0.73266 0.56622 0.0
C3902 C 0.09517 0.73384 0.57331 0.0
C3903 C 0.08291 0.73138 0.54813 0.0
C3904 C 0.09636 0.72142 0.50856 0.0
H3905 H 0.07408 0.73748 0.42632 0.0
H3906 H 0.07284 0.73542 0.45797 0.0
H3907 H 0.09995 0.71413 0.48361 0.0
H3908 H 0.11292 0.73436 0.56737 0.0
H3909 H 0.1104 0.73177 0.53571 0.0
H3910 H 0.0801 0.74451 0.51546 0.0
C3911 C 0.08058 0.73306 0.45153 0.0
C3912 C 0.09564 0.72089 0.4903 0.0
C3913 C 0.08123 0.73407 0.43328 0.0
C3914 C 0.10451 0.7335 0.56213 0.0
C3915 C 0.10308 0.73197 0.54412 0.0
C3916 C 0.08437 0.7378 0.50856 0.0
C3917 C 0.08984 0.72921 0.46129 0.0
C3918 C 0.0896 0.72905 0.48084 0.0
C3919 C 0.09227 0.731 0.53697 0.0
C3920 C 0.09082 0.72994 0.51781 0.0
H3921 H 0.10784 0.72423 0.42755 0.0
H3922 H 0.10698 0.72314 0.45917 0.0
H3923 H 0.07925 0.74397 0.48353 0.0
H3924 H 0.07705 0.73295 0.57463 0.0
H3925 H 0.0745 0.73065 0.54285 0.0
C3926 C 0.27157 0.10151 0.43384 0.0
C3927 C 0.26698 0.09281 0.42366 0.0
C3928 C 0.27179 0.10074 0.45211 0.0
C3929 C 0.26994 0.08116 0.48935 0.0
H3930 H 0.25793 0.10691 0.51417 0.0
C3931 C 0.27014 0.08626 0.56533 0.0
C3932 C 0.26009 0.0902 0.5728 0.0
C3933 C 0.27145 0.08589 0.5471 0.0
C3934 C 0.26128 0.09965 0.50741 0.0
H3935 H 0.2593 0.07631 0.4248 0.0
H3936 H 0.25987 0.0749 0.45668 0.0
H3937 H 0.25991 0.1076 0.48236 0.0
H3938 H 0.24333 0.09626 0.56689 0.0
H3939 H 0.24574 0.09585 0.5352 0.0
H3940 H 0.27123 0.07321 0.51452 0.0
C3941 C 0.26333 0.0823 0.45046 0.0
C3942 C 0.26253 0.10009 0.48924 0.0
C3943 C 0.26303 0.08311 0.43218 0.0
C3944 C 0.25128 0.09345 0.56162 0.0
C3945 C 0.25264 0.09318 0.54346 0.0
C3946 C 0.26882 0.08078 0.50761 0.0
C3947 C 0.26751 0.0912 0.46061 0.0
C3948 C 0.26678 0.09083 0.48 0.0
C3949 C 0.26278 0.08955 0.53602 0.0
C3950 C 0.26436 0.08998 0.51677 0.0
H3951 H 0.27491 0.109 0.42771 0.0
H3952 H 0.27521 0.10765 0.45962 0.0
H3953 H 0.2733 0.07393 0.48255 0.0
H3954 H 0.27713 0.0838 0.57354 0.0
H3955 H 0.27938 0.08311 0.54169 0.0
C3956 C 0.89793 0.26759 0.43671 0.0
C3957 C 0.9065 0.26279 0.42653 0.0
C3958 C 0.89919 0.26867 0.45483 0.0
C3959 C 0.91316 0.25594 0.49216 0.0
H3960 H 0.90571 0.28362 0.51618 0.0
C3961 C 0.91642 0.25941 0.56737 0.0
C3962 C 0.90775 0.26522 0.57596 0.0
C3963 C 0.91754 0.25998 0.54914 0.0
C3964 C 0.90771 0.27579 0.50972 0.0
H3965 H 0.92308 0.25535 0.42724 0.0
H3966 H 0.9252 0.25706 0.4591 0.0
H3967 H 0.90505 0.28289 0.48423 0.0
H3968 H 0.89378 0.27663 0.57207 0.0
H3969 H 0.89537 0.27719 0.54038 0.0
H3970 H 0.91536 0.24865 0.51751 0.0
C3971 C 0.91756 0.26005 0.45298 0.0
C3972 C 0.90738 0.2754 0.49142 0.0
C3973 C 0.91638 0.25913 0.4348 0.0
C3974 C 0.90043 0.27187 0.5659 0.0
C3975 C 0.90146 0.27233 0.54768 0.0
C3976 C 0.91335 0.25628 0.51047 0.0
C3977 C 0.90897 0.26482 0.46316 0.0
C3978 C 0.91 0.26545 0.48248 0.0
C3979 C 0.90994 0.26629 0.53902 0.0
C3980 C 0.91051 0.26618 0.51951 0.0
H3981 H 0.89027 0.27055 0.43062 0.0
H3982 H 0.89241 0.27229 0.4624 0.0
H3983 H 0.91511 0.24812 0.48558 0.0
H3984 H 0.92217 0.25413 0.57463 0.0
H3985 H 0.92429 0.25536 0.54298 0.0
C3986 C 0.73143 0.91517 0.56316 0.0
C3987 C 0.73197 0.90476 0.57179 0.0
C3988 C 0.73033 0.91566 0.54491 0.0
C3989 C 0.72233 0.89862 0.50618 0.0
H3990 H 0.74229 0.91858 0.4809 0.0
C3991 C 0.73288 0.8924 0.43329 0.0
C3992 C 0.73373 0.90194 0.42253 0.0
C3993 C 0.73153 0.89352 0.45138 0.0
C3994 C 0.73654 0.91308 0.48776 0.0
H3995 H 0.73129 0.88673 0.56814 0.0
H3996 H 0.72954 0.88757 0.53639 0.0
H3997 H 0.74167 0.91927 0.51286 0.0
H3998 H 0.73385 0.92013 0.42236 0.0
H3999 H 0.73139 0.92208 0.45402 0.0
H4000 H 0.71737 0.89226 0.48111 0.0
C4001 C 0.72991 0.89536 0.54367 0.0
C4002 C 0.73617 0.91349 0.50607 0.0
C4003 C 0.73105 0.89488 0.56185 0.0
C4004 C 0.73313 0.91262 0.43028 0.0
C4005 C 0.73182 0.91374 0.44842 0.0
C4006 C 0.72271 0.89821 0.4879 0.0
C4007 C 0.72966 0.90575 0.53495 0.0
C4008 C 0.72922 0.90612 0.5155 0.0
C4009 C 0.73103 0.90419 0.45917 0.0
C4010 C 0.72996 0.90529 0.47849 0.0
H4011 H 0.73218 0.92293 0.57047 0.0
H4012 H 0.73007 0.92379 0.53858 0.0
H4013 H 0.71673 0.89297 0.51305 0.0
H4014 H 0.73319 0.88405 0.42769 0.0
H4015 H 0.73109 0.88599 0.45932 0.0
C4016 C 0.59552 0.7712 0.06456 0.0
C4017 C 0.5888 0.76365 0.07405 0.0
C4018 C 0.59455 0.772 0.04635 0.0
C4019 C 0.58557 0.75561 0.00806 0.0
H4020 H 0.58747 0.78416 0.98383 0.0
C4021 C 0.58201 0.75846 0.93289 0.0
C4022 C 0.5899 0.76536 0.92445 0.0
C4023 C 0.58068 0.7589 0.95108 0.0
C4024 C 0.587 0.77612 0.9904 0.0
H4025 H 0.57569 0.7511 0.07184 0.0
H4026 H 0.57389 0.75262 0.04008 0.0
H4027 H 0.58736 0.78373 0.01584 0.0
H4028 H 0.60225 0.77848 0.92845 0.0
H4029 H 0.60012 0.77907 0.96021 0.0
H4030 H 0.58542 0.74797 0.9827 0.0
C4031 C 0.57998 0.75785 0.04672 0.0
C4032 C 0.58694 0.77587 0.00873 0.0
C4033 C 0.58094 0.75707 0.06494 0.0
C4034 C 0.5962 0.77294 0.93457 0.0
C4035 C 0.59488 0.77338 0.95276 0.0
C4036 C 0.58565 0.75585 0.98975 0.0
C4037 C 0.58686 0.76525 0.0372 0.0
C4038 C 0.58632 0.76561 0.01776 0.0
C4039 C 0.58722 0.76624 0.96125 0.0
C4040 C 0.58646 0.7661 0.9807 0.0
H4041 H 0.60157 0.77648 0.07122 0.0
H4042 H 0.60004 0.77772 0.03939 0.0
H4043 H 0.58527 0.74756 0.01461 0.0
H4044 H 0.57709 0.75245 0.92551 0.0
H4045 H 0.57461 0.75339 0.95719 0.0
C4046 C 0.2367 0.58084 0.93532 0.0
C4047 C 0.23185 0.59008 0.92674 0.0
C4048 C 0.23574 0.57965 0.9535 0.0
C4049 C 0.21953 0.58931 0.99204 0.0
H4050 H 0.24687 0.58279 0.01765 0.0
C4051 C 0.22439 0.59817 0.06598 0.0
C4052 C 0.2308 0.59071 0.07614 0.0
C4053 C 0.22369 0.59686 0.04781 0.0
C4054 C 0.2391 0.58443 0.01072 0.0
H4055 H 0.22183 0.60508 0.93037 0.0
H4056 H 0.22024 0.60308 0.96209 0.0
H4057 H 0.24703 0.58254 0.98573 0.0
H4058 H 0.24137 0.57589 0.07515 0.0
H4059 H 0.23992 0.57346 0.04352 0.0
H4060 H 0.21163 0.59134 0.01704 0.0
C4061 C 0.22475 0.59672 0.95478 0.0
C4062 C 0.23921 0.58429 0.99241 0.0
C4063 C 0.22575 0.59793 0.93665 0.0
C4064 C 0.23627 0.58174 0.06775 0.0
C4065 C 0.23555 0.58042 0.04958 0.0
C4066 C 0.21942 0.58941 0.01036 0.0
C4067 C 0.22985 0.58765 0.96345 0.0
C4068 C 0.22947 0.58689 0.98286 0.0
C4069 C 0.22937 0.58804 0.03936 0.0
C4070 C 0.22924 0.58713 0.01992 0.0
H4071 H 0.2415 0.57469 0.92805 0.0
H4072 H 0.23968 0.57253 0.9598 0.0
H4073 H 0.21185 0.59119 0.98504 0.0
H4074 H 0.21996 0.60508 0.07205 0.0
H4075 H 0.21894 0.60295 0.04033 0.0
C4076 C 0.39581 0.23164 0.06433 0.0
C4077 C 0.40537 0.23464 0.07405 0.0
C4078 C 0.39641 0.23041 0.04616 0.0
C4079 C 0.413 0.23925 0.00793 0.0
H4080 H 0.39569 0.21626 0.9842 0.0
C4081 C 0.41303 0.23448 0.93245 0.0
C4082 C 0.40239 0.23327 0.92474 0.0
C4083 C 0.41434 0.23354 0.95062 0.0
C4084 C 0.40053 0.22275 0.99064 0.0
H4085 H 0.4231 0.23853 0.07231 0.0
H4086 H 0.42419 0.23619 0.04053 0.0
H4087 H 0.39638 0.21657 0.01616 0.0
H4088 H 0.38486 0.22973 0.92992 0.0
H4089 H 0.38711 0.22821 0.96159 0.0
H4090 H 0.41702 0.24553 0.98239 0.0
C4091 C 0.4162 0.23492 0.04699 0.0
C4092 C 0.40092 0.22294 0.00894 0.0
C4093 C 0.4156 0.23616 0.06521 0.0
C4094 C 0.39314 0.23082 0.93551 0.0
C4095 C 0.39446 0.22983 0.95363 0.0
C4096 C 0.41264 0.23905 0.98961 0.0
C4097 C 0.40659 0.2321 0.03725 0.0
C4098 C 0.407 0.23131 0.01781 0.0
C4099 C 0.40505 0.2313 0.96141 0.0
C4100 C 0.40624 0.23091 0.98078 0.0
H4101 H 0.38783 0.23025 0.07076 0.0
H4102 H 0.38881 0.22836 0.03905 0.0
H4103 H 0.41765 0.2459 0.01434 0.0
H4104 H 0.4203 0.23644 0.9245 0.0
H4105 H 0.42262 0.23462 0.95623 0.0
C4106 C 0.76115 0.38848 0.06588 0.0
C4107 C 0.76091 0.39811 0.07651 0.0
C4108 C 0.76129 0.38943 0.04764 0.0
C4109 C 0.76753 0.40896 0.01137 0.0
H4110 H 0.74798 0.38923 0.98489 0.0
C4111 C 0.76904 0.40471 0.9356 0.0
C4112 C 0.75872 0.40368 0.92684 0.0
C4113 C 0.76948 0.40469 0.95393 0.0
C4114 C 0.75342 0.39486 0.9921 0.0
H4115 H 0.76071 0.41631 0.07625 0.0
H4116 H 0.76101 0.41796 0.04436 0.0
H4117 H 0.74853 0.38783 0.01673 0.0
H4118 H 0.74071 0.40243 0.93044 0.0
H4119 H 0.74148 0.40235 0.96236 0.0
H4120 H 0.7723 0.41607 0.98666 0.0
C4121 C 0.7612 0.40967 0.05018 0.0
C4122 C 0.75384 0.39396 0.01033 0.0
C4123 C 0.76103 0.40872 0.06845 0.0
C4124 C 0.74882 0.40299 0.93679 0.0
C4125 C 0.74925 0.40295 0.95508 0.0
C4126 C 0.76714 0.40983 0.99309 0.0
C4127 C 0.76122 0.40003 0.03958 0.0
C4128 C 0.76089 0.401 0.02018 0.0
C4129 C 0.7596 0.40362 0.96385 0.0
C4130 C 0.76005 0.4028 0.98326 0.0
H4131 H 0.76128 0.38018 0.07167 0.0
H4132 H 0.7615 0.38184 0.03982 0.0
H4133 H 0.7731 0.41444 0.0186 0.0
H4134 H 0.77683 0.40516 0.92831 0.0
H4135 H 0.77758 0.40512 0.96032 0.0
C4136 C 0.59365 0.24557 0.06297 0.0
C4137 C 0.58956 0.23642 0.07263 0.0
C4138 C 0.5931 0.24559 0.04472 0.0
C4139 C 0.57939 0.23237 0.00647 0.0
H4140 H 0.60594 0.24309 0.98232 0.0
C4141 C 0.58642 0.2284 0.93114 0.0
C4142 C 0.59138 0.23769 0.9228 0.0
C4143 C 0.58541 0.2281 0.94943 0.0
C4144 C 0.59841 0.24018 0.98885 0.0
H4145 H 0.58138 0.22022 0.07074 0.0
H4146 H 0.58047 0.22021 0.03868 0.0
H4147 H 0.60559 0.24279 0.01417 0.0
H4148 H 0.59855 0.25419 0.92701 0.0
H4149 H 0.59681 0.25366 0.95878 0.0
H4150 H 0.57227 0.22971 0.98096 0.0
C4151 C 0.58403 0.22742 0.04529 0.0
C4152 C 0.59821 0.24002 0.00712 0.0
C4153 C 0.58456 0.22741 0.06364 0.0
C4154 C 0.59494 0.24681 0.93306 0.0
C4155 C 0.59394 0.24651 0.95127 0.0
C4156 C 0.57961 0.23252 0.98811 0.0
C4157 C 0.58847 0.23644 0.03563 0.0
C4158 C 0.58866 0.23623 0.01616 0.0
C4159 C 0.58935 0.23708 0.95968 0.0
C4160 C 0.58908 0.23655 0.97912 0.0
H4161 H 0.59732 0.25275 0.06955 0.0
H4162 H 0.59634 0.2528 0.03769 0.0
H4163 H 0.57189 0.22946 0.01306 0.0
H4164 H 0.58366 0.22122 0.92359 0.0
H4165 H 0.58189 0.2207 0.95555 0.0
C4166 C 0.75333 0.60808 0.06438 0.0
C4167 C 0.75722 0.59898 0.07439 0.0
C4168 C 0.75385 0.60776 0.0461 0.0
C4169 C 0.75451 0.5884 0.00903 0.0
H4170 H 0.76542 0.61417 0.98309 0.0
C4171 C 0.75883 0.58785 0.93353 0.0
C4172 C 0.75585 0.5977 0.92449 0.0
C4173 C 0.75963 0.58781 0.95182 0.0
C4174 C 0.76222 0.60695 0.9901 0.0
H4175 H 0.76466 0.58241 0.07318 0.0
H4176 H 0.76549 0.58181 0.04111 0.0
H4177 H 0.76557 0.6145 0.01504 0.0
H4178 H 0.75157 0.61528 0.92769 0.0
H4179 H 0.75251 0.61509 0.95949 0.0
H4180 H 0.75085 0.58095 0.98417 0.0
C4181 C 0.76206 0.58919 0.04745 0.0
C4182 C 0.76235 0.60713 0.00841 0.0
C4183 C 0.76167 0.58956 0.06576 0.0
C4184 C 0.75372 0.6075 0.9342 0.0
C4185 C 0.75443 0.60743 0.95247 0.0
C4186 C 0.75427 0.58825 0.9907 0.0
C4187 C 0.75816 0.59829 0.03746 0.0
C4188 C 0.75843 0.5979 0.01805 0.0
C4189 C 0.75741 0.5976 0.96152 0.0
C4190 C 0.75805 0.59756 0.98101 0.0
H4191 H 0.74995 0.61548 0.07071 0.0
H4192 H 0.7507 0.61486 0.03871 0.0
H4193 H 0.75133 0.58121 0.01615 0.0
H4194 H 0.76041 0.58012 0.92651 0.0
H4195 H 0.76206 0.58011 0.95834 0.0
C4196 C 0.41559 0.75739 0.93297 0.0
C4197 C 0.4082 0.76475 0.92435 0.0
C4198 C 0.41714 0.75808 0.9511 0.0
C4199 C 0.4129 0.77664 0.98955 0.0
H4200 H 0.41219 0.74862 0.01537 0.0
C4201 C 0.4043 0.7742 0.06395 0.0
C4202 C 0.40997 0.76601 0.07382 0.0
C4203 C 0.40551 0.77464 0.04574 0.0
C4204 C 0.4126 0.75652 0.00837 0.0
H4205 H 0.39698 0.77888 0.92793 0.0
H4206 H 0.39952 0.77996 0.95961 0.0
H4207 H 0.41173 0.74831 0.98348 0.0
H4208 H 0.42158 0.75202 0.07231 0.0
H4209 H 0.42385 0.75294 0.04057 0.0
H4210 H 0.41358 0.78484 0.01452 0.0
C4211 C 0.40418 0.77371 0.95234 0.0
C4212 C 0.41233 0.75634 0.99007 0.0
C4213 C 0.40262 0.773 0.93421 0.0
C4214 C 0.41716 0.7585 0.06512 0.0
C4215 C 0.41836 0.75894 0.04691 0.0
C4216 C 0.41318 0.77682 0.00788 0.0
C4217 C 0.41134 0.76616 0.96103 0.0
C4218 C 0.41236 0.7664 0.98044 0.0
C4219 C 0.41241 0.7669 0.03698 0.0
C4220 C 0.41291 0.76676 0.0175 0.0
H4221 H 0.41995 0.75088 0.92579 0.0
H4222 H 0.42281 0.75223 0.95738 0.0
H4223 H 0.4131 0.78453 0.98251 0.0
H4224 H 0.39881 0.7802 0.07028 0.0
H4225 H 0.40073 0.78082 0.03849 0.0
C4226 C 0.23915 0.3911 0.93373 0.0
C4227 C 0.23649 0.40091 0.92432 0.0
C4228 C 0.23908 0.39108 0.95203 0.0
C4229 C 0.22761 0.4054 0.99053 0.0
H4230 H 0.25318 0.39238 0.01458 0.0
C4231 C 0.22848 0.39597 0.0651 0.0
C4232 C 0.23827 0.3991 0.0742 0.0
C4233 C 0.22802 0.39663 0.04681 0.0
C4234 C 0.24601 0.39609 0.00804 0.0
H4235 H 0.23153 0.41835 0.92693 0.0
H4236 H 0.23119 0.41821 0.95895 0.0
H4237 H 0.25272 0.39266 0.98257 0.0
H4238 H 0.25514 0.40568 0.07108 0.0
H4239 H 0.2544 0.40654 0.03918 0.0
H4240 H 0.22088 0.40878 0.01607 0.0
C4241 C 0.23333 0.41056 0.95205 0.0
C4242 C 0.24571 0.39616 0.98974 0.0
C4243 C 0.2335 0.41062 0.93372 0.0
C4244 C 0.24755 0.40298 0.06453 0.0
C4245 C 0.24712 0.40352 0.04625 0.0
C4246 C 0.22785 0.40521 0.00886 0.0
C4247 C 0.23623 0.40082 0.96138 0.0
C4248 C 0.23651 0.40082 0.9808 0.0
C4249 C 0.23737 0.40031 0.03721 0.0
C4250 C 0.23707 0.40057 0.01779 0.0
H4251 H 0.24123 0.3834 0.92696 0.0
H4252 H 0.24118 0.3834 0.95888 0.0
H4253 H 0.22039 0.40898 0.98396 0.0
H4254 H 0.22123 0.39278 0.07206 0.0
H4255 H 0.22044 0.39398 0.04015 0.0
C4256 C 0.19842 0.34502 0.21416 0.0
C4257 C 0.19664 0.35665 0.2131 0.0
C4258 C 0.19064 0.33812 0.22256 0.0
C4259 C 0.16819 0.33868 0.25555 0.0
H4260 H 0.16062 0.30967 0.2358 0.0
C4261 C 0.13418 0.3096 0.28517 0.0
C4262 C 0.1367 0.29808 0.2857 0.0
C4263 C 0.14122 0.31705 0.27627 0.0
C4264 C 0.16273 0.3177 0.24156 0.0
H4265 H 0.18519 0.37015 0.2197 0.0
H4266 H 0.17158 0.35807 0.23443 0.0
H4267 H 0.17324 0.32214 0.21991 0.0
H4268 H 0.14877 0.28541 0.27793 0.0
H4269 H 0.16106 0.2984 0.26248 0.0
H4270 H 0.15773 0.33419 0.27728 0.0
C4271 C 0.17908 0.35433 0.22894 0.0
C4272 C 0.16995 0.32484 0.23246 0.0
C4273 C 0.18686 0.36123 0.22051 0.0
C4274 C 0.1465 0.29421 0.27746 0.0
C4275 C 0.15353 0.30164 0.26859 0.0
C4276 C 0.16097 0.33153 0.26468 0.0
C4277 C 0.18091 0.34271 0.23011 0.0
C4278 C 0.17283 0.33537 0.23942 0.0
C4279 C 0.15091 0.31312 0.26775 0.0
C4280 C 0.15825 0.32092 0.25785 0.0
H4281 H 0.20596 0.34126 0.20886 0.0
H4282 H 0.19238 0.32922 0.2235 0.0
H4283 H 0.17036 0.34669 0.26134 0.0
H4284 H 0.12663 0.3128 0.29125 0.0
H4285 H 0.13893 0.32583 0.27571 0.0
C4286 C 0.64257 0.18868 0.20258 0.0
C4287 C 0.63415 0.19434 0.21195 0.0
C4288 C 0.64941 0.18081 0.21097 0.0
C4289 C 0.65984 0.17346 0.25476 0.0
H4290 H 0.66872 0.14553 0.23268 0.0
C4291 C 0.68642 0.14062 0.29126 0.0
C4292 C 0.69524 0.13572 0.28176 0.0
C4293 C 0.67832 0.14709 0.28271 0.0
C4294 C 0.66638 0.15334 0.23895 0.0
H4295 H 0.62593 0.19581 0.23722 0.0
H4296 H 0.63788 0.18213 0.25186 0.0
H4297 H 0.65571 0.15809 0.21759 0.0
H4298 H 0.70251 0.13373 0.25587 0.0
H4299 H 0.68842 0.14507 0.24097 0.0
H4300 H 0.6706 0.16884 0.27598 0.0
C4301 C 0.63934 0.18392 0.23812 0.0
C4302 C 0.65894 0.16052 0.23032 0.0
C4303 C 0.63251 0.19176 0.22975 0.0
C4304 C 0.69572 0.13727 0.26351 0.0
C4305 C 0.68764 0.14376 0.25497 0.0
C4306 C 0.66729 0.16631 0.26337 0.0
C4307 C 0.64795 0.17847 0.22889 0.0
C4308 C 0.65562 0.17067 0.23812 0.0
C4309 C 0.67891 0.14882 0.26449 0.0
C4310 C 0.67068 0.15619 0.25554 0.0
H4311 H 0.64409 0.19057 0.18889 0.0
H4312 H 0.65605 0.17682 0.20357 0.0
H4313 H 0.65759 0.18131 0.26099 0.0
H4314 H 0.68575 0.13943 0.3053 0.0
H4315 H 0.67159 0.15072 0.29037 0.0
C4316 C 0.80779 0.64327 0.20271 0.0
C4317 C 0.80056 0.63684 0.21327 0.0
C4318 C 0.81612 0.64992 0.21031 0.0
C4319 C 0.83274 0.65379 0.25046 0.0
H4320 H 0.83466 0.68479 0.23533 0.0
C4321 C 0.85672 0.68737 0.28986 0.0
C4322 C 0.86235 0.69583 0.28056 0.0
C4323 C 0.84996 0.67965 0.28104 0.0
C4324 C 0.83439 0.67611 0.23951 0.0
H4325 H 0.79648 0.63235 0.24011 0.0
H4326 H 0.81115 0.64381 0.25329 0.0
H4327 H 0.82161 0.67211 0.22083 0.0
H4328 H 0.86569 0.70262 0.25473 0.0
H4329 H 0.85405 0.68902 0.23924 0.0
H4330 H 0.84553 0.65776 0.26913 0.0
C4331 C 0.8104 0.64362 0.23914 0.0
C4332 C 0.82689 0.66886 0.23122 0.0
C4333 C 0.80201 0.63705 0.23157 0.0
C4334 C 0.8613 0.69628 0.26223 0.0
C4335 C 0.85461 0.68851 0.25339 0.0
C4336 C 0.84032 0.66102 0.25867 0.0
C4337 C 0.81746 0.6502 0.2286 0.0
C4338 C 0.8259 0.65767 0.23674 0.0
C4339 C 0.84876 0.68017 0.26271 0.0
C4340 C 0.84115 0.6723 0.25342 0.0
H4341 H 0.80704 0.64315 0.18856 0.0
H4342 H 0.82155 0.65482 0.20187 0.0
H4343 H 0.83223 0.64516 0.25483 0.0
H4344 H 0.85731 0.68691 0.30402 0.0
H4345 H 0.84543 0.67346 0.28866 0.0
C4346 C 0.35721 0.80977 0.20541 0.0
C4347 C 0.3608 0.79998 0.214 0.0
C4348 C 0.35035 0.8175 0.21404 0.0
C4349 C 0.34116 0.82649 0.25813 0.0
H4350 H 0.31547 0.83851 0.23319 0.0
C4351 C 0.31201 0.86034 0.28776 0.0
C4352 C 0.30043 0.85877 0.28527 0.0
C4353 C 0.31976 0.85357 0.27898 0.0
C4354 C 0.32258 0.83519 0.24034 0.0
H4355 H 0.36028 0.79077 0.23852 0.0
H4356 H 0.34816 0.80415 0.25347 0.0
H4357 H 0.3284 0.82595 0.21809 0.0
H4358 H 0.28791 0.84894 0.27148 0.0
H4359 H 0.30141 0.837 0.25642 0.0
H4360 H 0.33517 0.83551 0.28052 0.0
C4361 C 0.3507 0.8059 0.24011 0.0
C4362 C 0.33006 0.8281 0.23164 0.0
C4363 C 0.35753 0.79816 0.23147 0.0
C4364 C 0.29677 0.85027 0.27384 0.0
C4365 C 0.30451 0.84353 0.26504 0.0
C4366 C 0.33369 0.8336 0.26682 0.0
C4367 C 0.34698 0.81562 0.23146 0.0
C4368 C 0.33937 0.82359 0.24048 0.0
C4369 C 0.31608 0.84513 0.26747 0.0
C4370 C 0.32427 0.83794 0.25807 0.0
H4371 H 0.35954 0.81136 0.19191 0.0
H4372 H 0.3477 0.82497 0.20709 0.0
H4373 H 0.34832 0.82325 0.26523 0.0
H4374 H 0.31508 0.86676 0.29658 0.0
H4375 H 0.32863 0.85505 0.28102 0.0
C4376 C 0.20251 0.64927 0.78045 0.0
C4377 C 0.19876 0.6393 0.78832 0.0
C4378 C 0.19501 0.65627 0.77165 0.0
C4379 C 0.1651 0.6633 0.76711 0.0
H4380 H 0.17458 0.67532 0.72223 0.0
C4381 C 0.13532 0.68846 0.72191 0.0
C4382 C 0.13987 0.69807 0.71397 0.0
C4383 C 0.14225 0.6809 0.73081 0.0
C4384 C 0.17185 0.67212 0.73481 0.0
H4385 H 0.18417 0.62893 0.7934 0.0
H4386 H 0.17102 0.64122 0.77804 0.0
H4387 H 0.18712 0.66302 0.73855 0.0
H4388 H 0.15521 0.7074 0.70935 0.0
H4389 H 0.16728 0.69425 0.72486 0.0
H4390 H 0.14984 0.67249 0.76341 0.0
C4391 C 0.17977 0.64364 0.7788 0.0
C4392 C 0.17903 0.66508 0.74416 0.0
C4393 C 0.18728 0.63662 0.7876 0.0
C4394 C 0.15148 0.69996 0.71505 0.0
C4395 C 0.15839 0.69243 0.72395 0.0
C4396 C 0.15791 0.67038 0.75776 0.0
C4397 C 0.18359 0.65346 0.77054 0.0
C4398 C 0.17577 0.66068 0.76048 0.0
C4399 C 0.15386 0.68282 0.73195 0.0
C4400 C 0.16125 0.67493 0.74158 0.0
H4401 H 0.21126 0.65168 0.78108 0.0
H4402 H 0.19816 0.6639 0.76572 0.0
H4403 H 0.1624 0.66011 0.77972 0.0
H4404 H 0.12641 0.68672 0.72112 0.0
H4405 H 0.13852 0.6735 0.73664 0.0
C4406 C 0.30192 0.14746 0.70373 0.0
C4407 C 0.30105 0.13622 0.70912 0.0
C4408 C 0.30935 0.15476 0.71208 0.0
C4409 C 0.33454 0.15593 0.73987 0.0
H4410 H 0.3227 0.18492 0.75367 0.0
C4411 C 0.35854 0.18597 0.78609 0.0
C4412 C 0.35798 0.19749 0.78231 0.0
C4413 C 0.35186 0.17834 0.7769 0.0
C4414 C 0.3262 0.17693 0.74971 0.0
H4415 H 0.30748 0.12378 0.72733 0.0
H4416 H 0.32058 0.13652 0.74174 0.0
H4417 H 0.31083 0.17189 0.73757 0.0
H4418 H 0.35024 0.21003 0.76564 0.0
H4419 H 0.33869 0.19674 0.74947 0.0
H4420 H 0.34995 0.16102 0.7519 0.0
C4421 C 0.31553 0.13965 0.73099 0.0
C4422 C 0.31938 0.16946 0.7405 0.0
C4423 C 0.30804 0.13235 0.7227 0.0
C4424 C 0.3507 0.20122 0.76906 0.0
C4425 C 0.34407 0.1936 0.75981 0.0
C4426 C 0.34139 0.16345 0.749 0.0
C4427 C 0.31613 0.15096 0.72593 0.0
C4428 C 0.32348 0.15889 0.73548 0.0
C4429 C 0.34453 0.18208 0.76367 0.0
C4430 C 0.33729 0.17404 0.75402 0.0
H4431 H 0.29682 0.15065 0.69309 0.0
H4432 H 0.30978 0.1634 0.70772 0.0
H4433 H 0.33794 0.14787 0.73603 0.0
H4434 H 0.36402 0.18288 0.79634 0.0
H4435 H 0.3523 0.16954 0.78037 0.0
C4436 C 0.85777 0.30993 0.70847 0.0
C4437 C 0.86126 0.30011 0.71709 0.0
C4438 C 0.85101 0.31775 0.7171 0.0
C4439 C 0.84177 0.3268 0.76118 0.0
H4440 H 0.81626 0.339 0.73602 0.0
C4441 C 0.81251 0.36052 0.79086 0.0
C4442 C 0.80094 0.35903 0.78807 0.0
C4443 C 0.8203 0.35378 0.78212 0.0
C4444 C 0.82332 0.33562 0.74324 0.0
H4445 H 0.86069 0.29096 0.74167 0.0
H4446 H 0.84872 0.30449 0.75658 0.0
H4447 H 0.8292 0.32643 0.72099 0.0
H4448 H 0.7885 0.34937 0.77382 0.0
H4449 H 0.80208 0.33747 0.7589 0.0
H4450 H 0.8357 0.33574 0.78358 0.0
C4451 C 0.85127 0.30619 0.74321 0.0
C4452 C 0.83081 0.32853 0.73457 0.0
C4453 C 0.85801 0.29837 0.73459 0.0
C4454 C 0.79734 0.35064 0.77642 0.0
C4455 C 0.80513 0.34392 0.76769 0.0
C4456 C 0.83428 0.3339 0.76985 0.0
C4457 C 0.84764 0.31593 0.73453 0.0
C4458 C 0.84006 0.32396 0.74349 0.0
C4459 C 0.81669 0.34544 0.77039 0.0
C4460 C 0.82492 0.33829 0.76102 0.0
H4461 H 0.86009 0.31146 0.69495 0.0
H4462 H 0.84843 0.32523 0.71012 0.0
H4463 H 0.84889 0.3235 0.76835 0.0
H4464 H 0.81553 0.36687 0.79986 0.0
H4465 H 0.82916 0.35521 0.78439 0.0
C4466 C 0.70333 0.85045 0.72432 0.0
C4467 C 0.69903 0.85924 0.71402 0.0
C4468 C 0.69612 0.84319 0.73318 0.0
C4469 C 0.66753 0.8409 0.75072 0.0
H4470 H 0.67356 0.80893 0.74966 0.0
C4471 C 0.63636 0.80809 0.77781 0.0
C4472 C 0.64086 0.79882 0.78678 0.0
C4473 C 0.6434 0.81563 0.76914 0.0
C4474 C 0.67184 0.81784 0.75029 0.0
H4475 H 0.68375 0.86724 0.70491 0.0
H4476 H 0.67115 0.85456 0.72055 0.0
H4477 H 0.68592 0.82176 0.734 0.0
H4478 H 0.65626 0.79037 0.79413 0.0
H4479 H 0.66857 0.8036 0.77917 0.0
H4480 H 0.6535 0.83699 0.76713 0.0
C4481 C 0.68012 0.85338 0.72184 0.0
C4482 C 0.6789 0.82519 0.74128 0.0
C4483 C 0.68734 0.86064 0.7129 0.0
C4484 C 0.65255 0.79734 0.78711 0.0
C4485 C 0.65959 0.80491 0.77851 0.0
C4486 C 0.66048 0.83355 0.75981 0.0
C4487 C 0.68445 0.84456 0.73203 0.0
C4488 C 0.67684 0.83679 0.74143 0.0
C4489 C 0.6551 0.8141 0.76931 0.0
C4490 C 0.66257 0.82194 0.75971 0.0
H4491 H 0.71229 0.84928 0.72577 0.0
H4492 H 0.6997 0.83658 0.74117 0.0
H4493 H 0.66581 0.84981 0.75124 0.0
H4494 H 0.62738 0.80935 0.77713 0.0
H4495 H 0.63966 0.82253 0.76197 0.0
C4496 C 0.85306 0.68986 0.71262 0.0
C4497 C 0.85841 0.69856 0.72181 0.0
C4498 C 0.84617 0.68226 0.72142 0.0
C4499 C 0.8297 0.67905 0.76209 0.0
H4500 H 0.82921 0.6477 0.74846 0.0
C4501 C 0.80329 0.64591 0.79874 0.0
C4502 C 0.79682 0.6388 0.78805 0.0
C4503 C 0.81151 0.65282 0.79141 0.0
C4504 C 0.82924 0.65644 0.75234 0.0
H4505 H 0.86098 0.70597 0.74745 0.0
H4506 H 0.84904 0.6926 0.7629 0.0
H4507 H 0.84238 0.66051 0.73435 0.0
H4508 H 0.79393 0.63339 0.76125 0.0
H4509 H 0.80837 0.64534 0.74852 0.0
H4510 H 0.81655 0.67495 0.78008 0.0
C4511 C 0.84998 0.69179 0.74884 0.0
C4512 C 0.83675 0.66379 0.74424 0.0
C4513 C 0.85682 0.69944 0.74001 0.0
C4514 C 0.79888 0.63863 0.7699 0.0
C4515 C 0.80714 0.64548 0.76259 0.0
C4516 C 0.82224 0.67169 0.77026 0.0
C4517 C 0.84454 0.68314 0.73963 0.0
C4518 C 0.83698 0.6752 0.74888 0.0
C4519 C 0.81347 0.65271 0.77325 0.0
C4520 C 0.82185 0.66034 0.76532 0.0
H4521 H 0.85403 0.68908 0.69855 0.0
H4522 H 0.84194 0.67582 0.71388 0.0
H4523 H 0.82954 0.68782 0.7658 0.0
H4524 H 0.80206 0.6461 0.81281 0.0
H4525 H 0.81637 0.65821 0.79995 0.0
C4526 C 0.35482 0.79612 0.76659 0.0
C4527 C 0.35882 0.79864 0.78349 0.0
C4528 C 0.34829 0.80386 0.7574 0.0
C4529 C 0.34145 0.83382 0.75442 0.0
H4530 H 0.31445 0.82324 0.73138 0.0
C4531 C 0.30796 0.86379 0.72591 0.0
C4532 C 0.30248 0.86052 0.71043 0.0
C4533 C 0.31541 0.85649 0.73427 0.0
C4534 C 0.32205 0.82631 0.7375 0.0
H4535 H 0.35907 0.81128 0.80396 0.0
H4536 H 0.34775 0.82485 0.78776 0.0
H4537 H 0.3263 0.81 0.74713 0.0
H4538 H 0.30087 0.84729 0.6911 0.0
H4539 H 0.31401 0.83461 0.7055 0.0
H4540 H 0.33725 0.85013 0.74469 0.0
C4541 C 0.34975 0.8169 0.78164 0.0
C4542 C 0.32882 0.81873 0.74657 0.0
C4543 C 0.35623 0.80913 0.79089 0.0
C4544 C 0.30485 0.84996 0.70317 0.0
C4545 C 0.31235 0.84269 0.71145 0.0
C4546 C 0.33472 0.84141 0.74524 0.0
C4547 C 0.34567 0.81431 0.76483 0.0
C4548 C 0.33857 0.8224 0.75515 0.0
C4549 C 0.31757 0.84579 0.72726 0.0
C4550 C 0.32493 0.83774 0.73669 0.0
H4551 H 0.35685 0.78822 0.76033 0.0
H4552 H 0.3454 0.8017 0.74436 0.0
H4553 H 0.349 0.83686 0.76075 0.0
H4554 H 0.3062 0.87184 0.73189 0.0
H4555 H 0.31918 0.85909 0.74653 0.0
C4556 C 0.13657 0.29959 0.73705 0.0
C4557 C 0.13255 0.30134 0.71993 0.0
C4558 C 0.14352 0.30748 0.74505 0.0
C4559 C 0.15264 0.33692 0.74376 0.0
H4560 H 0.1797 0.32527 0.76539 0.0
C4561 C 0.18347 0.36369 0.78546 0.0
C4562 C 0.19495 0.36198 0.78217 0.0
C4563 C 0.17541 0.3568 0.77761 0.0
C4564 C 0.1722 0.32865 0.75935 0.0
H4565 H 0.1325 0.31291 0.69796 0.0
H4566 H 0.14456 0.32679 0.71208 0.0
H4567 H 0.16619 0.31233 0.7525 0.0
H4568 H 0.20692 0.35204 0.76736 0.0
H4569 H 0.19288 0.33994 0.75395 0.0
H4570 H 0.15875 0.35328 0.75057 0.0
C4571 C 0.14227 0.3193 0.71928 0.0
C4572 C 0.16442 0.32124 0.75213 0.0
C4573 C 0.13535 0.31135 0.71122 0.0
C4574 C 0.19817 0.35342 0.77053 0.0
C4575 C 0.19014 0.34651 0.76279 0.0
C4576 C 0.1604 0.34435 0.75115 0.0
C4577 C 0.14655 0.31734 0.73617 0.0
C4578 C 0.15459 0.32529 0.7442 0.0
C4579 C 0.17869 0.34804 0.76641 0.0
C4580 C 0.17029 0.34027 0.75889 0.0
H4581 H 0.13436 0.29209 0.74429 0.0
H4582 H 0.14657 0.30586 0.75819 0.0
H4583 H 0.14509 0.34025 0.73781 0.0
H4584 H 0.18072 0.37014 0.79448 0.0
H4585 H 0.16664 0.35811 0.7807 0.0
C4586 C 0.68249 0.13402 0.71334 0.0
C4587 C 0.69124 0.1283 0.72187 0.0
C4588 C 0.67434 0.13972 0.72302 0.0
C4589 C 0.67057 0.15329 0.76575 0.0
H4590 H 0.63941 0.15504 0.7514 0.0
C4591 C 0.639 0.1809 0.80291 0.0
C4592 C 0.63234 0.18786 0.79227 0.0
C4593 C 0.64509 0.17207 0.79556 0.0
C4594 C 0.64809 0.15464 0.75553 0.0
H4595 H 0.69813 0.12386 0.74728 0.0
H4596 H 0.68379 0.13361 0.76415 0.0
H4597 H 0.65214 0.14229 0.73615 0.0
H4598 H 0.62665 0.19084 0.76565 0.0
H4599 H 0.63729 0.17546 0.75285 0.0
H4600 H 0.66663 0.16581 0.78482 0.0
C4601 C 0.68331 0.1338 0.74997 0.0
C4602 C 0.65538 0.14736 0.7468 0.0
C4603 C 0.69146 0.12812 0.7403 0.0
C4604 C 0.63159 0.18555 0.77424 0.0
C4605 C 0.63768 0.17672 0.7669 0.0
C4606 C 0.66329 0.16055 0.77447 0.0
C4607 C 0.67476 0.13982 0.74144 0.0
C4608 C 0.66674 0.14674 0.75164 0.0
C4609 C 0.64465 0.17001 0.77743 0.0
C4610 C 0.65202 0.16145 0.76928 0.0
H4611 H 0.68199 0.13419 0.69916 0.0
H4612 H 0.66792 0.14435 0.71604 0.0
H4613 H 0.67931 0.15315 0.76963 0.0
H4614 H 0.63959 0.18235 0.8169 0.0
H4615 H 0.65026 0.16693 0.80404 0.0
C4616 C 0.80829 0.36261 0.23304 0.0
C4617 C 0.80659 0.36212 0.21481 0.0
C4618 C 0.81729 0.35698 0.24077 0.0
C4619 C 0.83522 0.33268 0.23378 0.0
H4620 H 0.853 0.34523 0.27159 0.0
C4621 C 0.86944 0.30654 0.26711 0.0
C4622 C 0.86986 0.30702 0.28553 0.0
C4623 C 0.86321 0.31437 0.25763 0.0
C4624 C 0.84806 0.34158 0.26113 0.0
H4625 H 0.81333 0.35574 0.19033 0.0
H4626 H 0.82894 0.34574 0.20391 0.0
H4627 H 0.83923 0.35698 0.25652 0.0
H4628 H 0.86449 0.31651 0.30832 0.0
H4629 H 0.85322 0.32987 0.29182 0.0
H4630 H 0.84365 0.31721 0.23868 0.0
C4631 C 0.82322 0.35041 0.21219 0.0
C4632 C 0.84021 0.34832 0.25249 0.0
C4633 C 0.81426 0.35609 0.20444 0.0
C4634 C 0.8642 0.31576 0.29417 0.0
C4635 C 0.85786 0.32354 0.28468 0.0
C4636 C 0.84299 0.32593 0.24248 0.0
C4637 C 0.82474 0.35069 0.23045 0.0
C4638 C 0.83365 0.34389 0.23883 0.0
C4639 C 0.85711 0.32279 0.26631 0.0
C4640 C 0.84944 0.33027 0.25636 0.0
H4641 H 0.80246 0.36704 0.24144 0.0
H4642 H 0.81817 0.35721 0.2549 0.0
H4643 H 0.83015 0.32899 0.22349 0.0
H4644 H 0.87359 0.29987 0.25998 0.0
H4645 H 0.86299 0.31367 0.24348 0.0
C4646 C 0.63489 0.79898 0.23438 0.0
C4647 C 0.6336 0.79972 0.21612 0.0
C4648 C 0.64161 0.80666 0.24334 0.0
C4649 C 0.65544 0.83442 0.23896 0.0
H4650 H 0.67466 0.82291 0.27586 0.0
C4651 C 0.69321 0.8588 0.26712 0.0
C4652 C 0.69481 0.8585 0.28539 0.0
C4653 C 0.68497 0.8522 0.25922 0.0
C4654 C 0.66924 0.82627 0.26574 0.0
H4655 H 0.63825 0.80909 0.19289 0.0
H4656 H 0.65019 0.82241 0.20846 0.0
H4657 H 0.66177 0.81028 0.26091 0.0
H4658 H 0.68871 0.85129 0.30972 0.0
H4659 H 0.67445 0.8396 0.29583 0.0
H4660 H 0.66318 0.85037 0.24357 0.0
C4661 C 0.64583 0.81603 0.21594 0.0
C4662 C 0.66183 0.81905 0.25719 0.0
C4663 C 0.63903 0.80839 0.207 0.0
C4664 C 0.68785 0.85156 0.29559 0.0
C4665 C 0.67966 0.8449 0.28766 0.0
C4666 C 0.66291 0.84163 0.24745 0.0
C4667 C 0.64726 0.81521 0.23421 0.0
C4668 C 0.65487 0.82301 0.24364 0.0
C4669 C 0.67819 0.8451 0.26939 0.0
C4670 C 0.66992 0.83761 0.26087 0.0
H4671 H 0.63064 0.79248 0.24177 0.0
H4672 H 0.64234 0.80592 0.25745 0.0
H4673 H 0.65007 0.83779 0.22879 0.0
H4674 H 0.69853 0.86391 0.25883 0.0
H4675 H 0.68412 0.85241 0.24508 0.0
C4676 C 0.13531 0.69093 0.27546 0.0
C4677 C 0.13924 0.69901 0.28736 0.0
C4678 C 0.14278 0.68353 0.26739 0.0
C4679 C 0.17307 0.68018 0.2574 0.0
H4680 H 0.16429 0.64963 0.24653 0.0
C4681 C 0.20412 0.64661 0.23246 0.0
C4682 C 0.20072 0.64055 0.21753 0.0
C4683 C 0.19659 0.65361 0.24123 0.0
C4684 C 0.16681 0.65816 0.24941 0.0
H4685 H 0.15392 0.70546 0.3007 0.0
H4686 H 0.16695 0.69231 0.28711 0.0
H4687 H 0.15122 0.6619 0.26198 0.0
H4688 H 0.18669 0.63722 0.20012 0.0
H4689 H 0.17348 0.64921 0.2158 0.0
H4690 H 0.18876 0.67629 0.24513 0.0
C4691 C 0.15817 0.69189 0.28352 0.0
C4692 C 0.15933 0.66521 0.2582 0.0
C4693 C 0.15072 0.69939 0.29139 0.0
C4694 C 0.18956 0.6416 0.21172 0.0
C4695 C 0.18199 0.64849 0.22064 0.0
C4696 C 0.18059 0.67308 0.24883 0.0
C4697 C 0.15432 0.68396 0.27125 0.0
C4698 C 0.16235 0.67633 0.26224 0.0
C4699 C 0.18546 0.65458 0.23542 0.0
C4700 C 0.17751 0.66203 0.24469 0.0
H4701 H 0.1265 0.69056 0.27202 0.0
H4702 H 0.13953 0.67767 0.25782 0.0
H4703 H 0.17562 0.68874 0.25994 0.0
H4704 H 0.21256 0.64584 0.23756 0.0
H4705 H 0.19942 0.65813 0.25272 0.0
C4706 C 0.30842 0.13975 0.28475 0.0
C4707 C 0.29733 0.13838 0.27878 0.0
C4708 C 0.31599 0.14642 0.27544 0.0
C4709 C 0.31718 0.17009 0.24529 0.0
H4710 H 0.34718 0.15949 0.23471 0.0
C4711 C 0.34717 0.19619 0.20278 0.0
C4712 C 0.35849 0.19652 0.20782 0.0
C4713 C 0.33983 0.18853 0.21049 0.0
C4714 C 0.33888 0.16264 0.23774 0.0
H4715 H 0.28563 0.1428 0.25807 0.0
H4716 H 0.29877 0.15469 0.24216 0.0
H4717 H 0.33415 0.1473 0.25041 0.0
H4718 H 0.37107 0.18909 0.22472 0.0
H4719 H 0.35819 0.17588 0.23858 0.0
H4720 H 0.32191 0.18552 0.23317 0.0
C4721 C 0.30155 0.15061 0.25409 0.0
C4722 C 0.33142 0.15563 0.24668 0.0
C4723 C 0.29402 0.14384 0.26327 0.0
C4724 C 0.36239 0.18892 0.22049 0.0
C4725 C 0.35501 0.18134 0.22837 0.0
C4726 C 0.32466 0.17713 0.23654 0.0
C4727 C 0.3126 0.15196 0.26009 0.0
C4728 C 0.3205 0.1593 0.25051 0.0
C4729 C 0.34361 0.18113 0.22359 0.0
C4730 C 0.33561 0.1735 0.23263 0.0
H4731 H 0.31122 0.13581 0.29678 0.0
H4732 H 0.32443 0.14744 0.28045 0.0
H4733 H 0.30885 0.17317 0.2483 0.0
H4734 H 0.34401 0.20188 0.19286 0.0
H4735 H 0.33117 0.18843 0.20619 0.0
loop_
_geom_bond_atom_site_label_1
_geom_bond_atom_site_label_2
_geom_bond_distance
_geom_bond_site_symmetry_2
_ccdc_geom_bond_type
Li0 N17 1.990 . S
Li0 O60 1.956 . S
Li0 O61 1.970 . S
Li0 O62 1.961 . S
Li1 N25 1.990 . S
Li1 O60 1.970 . S
Li1 O61 1.956 . S
Li1 O63 1.961 . S
Li2 N47 1.990 . S
Li2 O60 1.961 . S
Li2 O62 1.956 . S
Li2 O63 1.970 . S
Li3 N53 1.990 . S
Li3 O61 1.961 . S
Li3 O62 1.970 . S
Li3 O63 1.956 . S
C4 C6 1.348 . S
C4 C7 1.356 . S
C4 O60 1.325 . S
N5 C8 1.314 . S
N5 C9 1.279 . S
C6 C4 1.348 . S
C6 C8 1.353 . S
C6 H64 0.929 . S
C7 C4 1.356 . S
C7 C9 1.358 . S
C7 H65 0.930 . S
C8 N5 1.314 . S
C8 C6 1.353 . S
C8 H66 0.930 . S
C9 N5 1.279 . S
C9 C7 1.358 . S
C9 H67 0.930 . S
C10 C13 1.348 . S
C10 C14 1.356 . S
C10 O61 1.325 . S
C11 N12 1.279 . S
C11 C14 1.358 . S
C11 H68 0.930 . S
N12 C11 1.279 . S
N12 C15 1.314 . S
C13 C10 1.348 . S
C13 C15 1.353 . S
C13 H69 0.929 . S
C14 C10 1.356 . S
C14 C11 1.358 . S
C14 H70 0.930 . S
C15 N12 1.314 . S
C15 C13 1.353 . S
C15 H71 0.930 . S
C16 N17 1.314 . S
C16 C21 1.353 . S
C16 H22 0.930 . S
N17 Li0 1.990 . S
N17 C16 1.314 . S
N17 C19 1.279 . S
C18 C19 1.358 . S
C18 C20 1.356 . S
C18 H72 0.930 . S
C19 N17 1.279 . S
C19 C18 1.358 . S
C19 H23 0.930 . S
C20 C18 1.356 . S
C20 C21 1.348 . S
C21 C16 1.353 . S
C21 C20 1.348 . S
C21 H73 0.929 . S
H22 C16 0.930 . S
H23 C19 0.930 . S
C24 N25 1.314 . S
C24 C26 1.353 . S
C24 H30 0.930 . S
N25 Li1 1.990 . S
N25 C24 1.314 . S
N25 C28 1.279 . S
C26 C24 1.353 . S
C26 C29 1.348 . S
C26 H74 0.929 . S
C27 C28 1.358 . S
C27 C29 1.356 . S
C27 H75 0.930 . S
C28 N25 1.279 . S
C28 C27 1.358 . S
C28 H31 0.930 . S
C29 C26 1.348 . S
C29 C27 1.356 . S
H30 C24 0.930 . S
H31 C28 0.930 . S
C32 C34 1.348 . S
C32 C35 1.356 . S
C32 O62 1.325 . S
N33 C36 1.314 . S
N33 C37 1.279 . S
C34 C32 1.348 . S
C34 C36 1.353 . S
C34 H76 0.929 . S
C35 C32 1.356 . S
C35 C37 1.358 . S
C35 H77 0.930 . S
C36 N33 1.314 . S
C36 C34 1.353 . S
C36 H78 0.930 . S
C37 N33 1.279 . S
C37 C35 1.358 . S
C37 H79 0.930 . S
C38 C39 1.348 . S
C38 C40 1.356 . S
C38 O63 1.325 . S
C39 C38 1.348 . S
C39 C41 1.353 . S
C39 H80 0.929 . S
C40 C38 1.356 . S
C40 C42 1.358 . S
C40 H81 0.930 . S
C41 C39 1.353 . S
C41 N43 1.314 . S
C41 H82 0.930 . S
C42 C40 1.358 . S
C42 N43 1.279 . S
C42 H83 0.930 . S
N43 C41 1.314 . S
N43 C42 1.279 . S
C44 C46 1.353 . S
C44 N47 1.314 . S
C44 H50 0.930 . S
C45 N47 1.279 . S
C45 C48 1.358 . S
C45 H51 0.930 . S
C46 C44 1.353 . S
C46 C49 1.348 . S
C46 H84 0.929 . S
N47 Li2 1.990 . S
N47 C44 1.314 . S
N47 C45 1.279 . S
C48 C45 1.358 . S
C48 C49 1.356 . S
C48 H85 0.930 . S
C49 C46 1.348 . S
C49 C48 1.356 . S
H50 C44 0.930 . S
H51 C45 0.930 . S
C52 N53 1.314 . S
C52 C54 1.353 . S
C52 H58 0.930 . S
N53 Li3 1.990 . S
N53 C52 1.314 . S
N53 C56 1.279 . S
C54 C52 1.353 . S
C54 C57 1.348 . S
C54 H86 0.929 . S
C55 C56 1.358 . S
C55 C57 1.356 . S
C55 H87 0.930 . S
C56 N53 1.279 . S
C56 C55 1.358 . S
C56 H59 0.930 . S
C57 C54 1.348 . S
C57 C55 1.356 . S
H58 C52 0.930 . S
H59 C56 0.930 . S
O60 Li0 1.956 . S
O60 Li1 1.970 . S
O60 Li2 1.961 . S
O60 C4 1.325 . S
O61 Li0 1.970 . S
O61 Li1 1.956 . S
O61 Li3 1.961 . S
O61 C10 1.325 . S
O62 Li0 1.961 . S
O62 Li2 1.956 . S
O62 Li3 1.970 . S
O62 C32 1.325 . S
O63 Li1 1.961 . S
O63 Li2 1.970 . S
O63 Li3 1.956 . S
O63 C38 1.325 . S
H64 C6 0.929 . S
H65 C7 0.930 . S
H66 C8 0.930 . S
H67 C9 0.930 . S
H68 C11 0.930 . S
H69 C13 0.929 . S
H70 C14 0.930 . S
H71 C15 0.930 . S
H72 C18 0.930 . S
H73 C21 0.929 . S
H74 C26 0.929 . S
H75 C27 0.930 . S
H76 C34 0.929 . S
H77 C35 0.930 . S
H78 C36 0.930 . S
H79 C37 0.930 . S
H80 C39 0.929 . S
H81 C40 0.930 . S
H82 C41 0.930 . S
H83 C42 0.930 . S
H84 C46 0.929 . S
H85 C48 0.930 . S
H86 C54 0.929 . S
H87 C55 0.930 . S
Li88 N105 1.990 . S
Li88 O148 1.956 . S
Li88 O149 1.970 . S
Li88 O150 1.961 . S
Li89 N113 1.990 . S
Li89 O148 1.970 . S
Li89 O149 1.956 . S
Li89 O151 1.961 . S
Li90 N135 1.990 . S
Li90 O148 1.961 . S
Li90 O150 1.956 . S
Li90 O151 1.970 . S
Li91 N141 1.990 . S
Li91 O149 1.961 . S
Li91 O150 1.970 . S
Li91 O151 1.956 . S
C92 C94 1.348 . S
C92 C95 1.356 . S
C92 O148 1.325 . S
N93 C96 1.314 . S
N93 C97 1.279 . S
C94 C92 1.348 . S
C94 C96 1.353 . S
C94 H152 0.929 . S
C95 C92 1.356 . S
C95 C97 1.358 . S
C95 H153 0.930 . S
C96 N93 1.314 . S
C96 C94 1.353 . S
C96 H154 0.930 . S
C97 N93 1.279 . S
C97 C95 1.358 . S
C97 H155 0.930 . S
C98 C101 1.348 . S
C98 C102 1.356 . S
C98 O149 1.325 . S
C99 N100 1.279 . S
C99 C102 1.358 . S
C99 H156 0.930 . S
N100 C99 1.279 . S
N100 C103 1.314 . S
C101 C98 1.348 . S
C101 C103 1.353 . S
C101 H157 0.929 . S
C102 C98 1.356 . S
C102 C99 1.358 . S
C102 H158 0.930 . S
C103 N100 1.314 . S
C103 C101 1.353 . S
C103 H159 0.930 . S
C104 N105 1.314 . S
C104 C109 1.353 . S
C104 H110 0.930 . S
N105 Li88 1.990 . S
N105 C104 1.314 . S
N105 C107 1.279 . S
C106 C107 1.358 . S
C106 C108 1.356 . S
C106 H160 0.930 . S
C107 N105 1.279 . S
C107 C106 1.358 . S
C107 H111 0.930 . S
C108 C106 1.356 . S
C108 C109 1.348 . S
C109 C104 1.353 . S
C109 C108 1.348 . S
C109 H161 0.929 . S
H110 C104 0.930 . S
H111 C107 0.930 . S
C112 N113 1.314 . S
C112 C114 1.353 . S
C112 H118 0.930 . S
N113 Li89 1.990 . S
N113 C112 1.314 . S
N113 C116 1.279 . S
C114 C112 1.353 . S
C114 C117 1.348 . S
C114 H162 0.929 . S
C115 C116 1.358 . S
C115 C117 1.356 . S
C115 H163 0.930 . S
C116 N113 1.279 . S
C116 C115 1.358 . S
C116 H119 0.930 . S
C117 C114 1.348 . S
C117 C115 1.356 . S
H118 C112 0.930 . S
H119 C116 0.930 . S
C120 C122 1.348 . S
C120 C123 1.356 . S
C120 O150 1.325 . S
N121 C124 1.314 . S
N121 C125 1.279 . S
C122 C120 1.348 . S
C122 C124 1.353 . S
C122 H164 0.929 . S
C123 C120 1.356 . S
C123 C125 1.358 . S
C123 H165 0.930 . S
C124 N121 1.314 . S
C124 C122 1.353 . S
C124 H166 0.930 . S
C125 N121 1.279 . S
C125 C123 1.358 . S
C125 H167 0.930 . S
C126 C127 1.348 . S
C126 C128 1.356 . S
C126 O151 1.325 . S
C127 C126 1.348 . S
C127 C129 1.353 . S
C127 H168 0.929 . S
C128 C126 1.356 . S
C128 C130 1.358 . S
C128 H169 0.930 . S
C129 C127 1.353 . S
C129 N131 1.314 . S
C129 H170 0.930 . S
C130 C128 1.358 . S
C130 N131 1.279 . S
C130 H171 0.930 . S
N131 C129 1.314 . S
N131 C130 1.279 . S
C132 C134 1.353 . S
C132 N135 1.314 . S
C132 H138 0.930 . S
C133 N135 1.279 . S
C133 C136 1.358 . S
C133 H139 0.930 . S
C134 C132 1.353 . S
C134 C137 1.348 . S
C134 H172 0.929 . S
N135 Li90 1.990 . S
N135 C132 1.314 . S
N135 C133 1.279 . S
C136 C133 1.358 . S
C136 C137 1.356 . S
C136 H173 0.930 . S
C137 C134 1.348 . S
C137 C136 1.356 . S
H138 C132 0.930 . S
H139 C133 0.930 . S
C140 N141 1.314 . S
C140 C142 1.353 . S
C140 H146 0.930 . S
N141 Li91 1.990 . S
N141 C140 1.314 . S
N141 C144 1.279 . S
C142 C140 1.353 . S
C142 C145 1.348 . S
C142 H174 0.929 . S
C143 C144 1.358 . S
C143 C145 1.356 . S
C143 H175 0.930 . S
C144 N141 1.279 . S
C144 C143 1.358 . S
C144 H147 0.930 . S
C145 C142 1.348 . S
C145 C143 1.356 . S
H146 C140 0.930 . S
H147 C144 0.930 . S
O148 Li88 1.956 . S
O148 Li89 1.970 . S
O148 Li90 1.961 . S
O148 C92 1.325 . S
O149 Li88 1.970 . S
O149 Li89 1.956 . S
O149 Li91 1.961 . S
O149 C98 1.325 . S
O150 Li88 1.961 . S
O150 Li90 1.956 . S
O150 Li91 1.970 . S
O150 C120 1.325 . S
O151 Li89 1.961 . S
O151 Li90 1.970 . S
O151 Li91 1.956 . S
O151 C126 1.325 . S
H152 C94 0.929 . S
H153 C95 0.930 . S
H154 C96 0.930 . S
H155 C97 0.930 . S
H156 C99 0.930 . S
H157 C101 0.929 . S
H158 C102 0.930 . S
H159 C103 0.930 . S
H160 C106 0.930 . S
H161 C109 0.929 . S
H162 C114 0.929 . S
H163 C115 0.930 . S
H164 C122 0.929 . S
H165 C123 0.930 . S
H166 C124 0.930 . S
H167 C125 0.930 . S
H168 C127 0.929 . S
H169 C128 0.930 . S
H170 C129 0.930 . S
H171 C130 0.930 . S
H172 C134 0.929 . S
H173 C136 0.930 . S
H174 C142 0.929 . S
H175 C143 0.930 . S
Li176 N193 1.990 . S
Li176 O236 1.956 . S
Li176 O237 1.970 . S
Li176 O238 1.961 . S
Li177 N201 1.990 . S
Li177 O236 1.970 . S
Li177 O237 1.956 . S
Li177 O239 1.961 . S
Li178 N223 1.990 . S
Li178 O236 1.961 . S
Li178 O238 1.956 . S
Li178 O239 1.970 . S
Li179 N229 1.990 . S
Li179 O237 1.961 . S
Li179 O238 1.970 . S
Li179 O239 1.956 . S
C180 C182 1.348 . S
C180 C183 1.356 . S
C180 O236 1.325 . S
N181 C184 1.314 . S
N181 C185 1.279 . S
C182 C180 1.348 . S
C182 C184 1.353 . S
C182 H240 0.929 . S
C183 C180 1.356 . S
C183 C185 1.358 . S
C183 H241 0.930 . S
C184 N181 1.314 . S
C184 C182 1.353 . S
C184 H242 0.930 . S
C185 N181 1.279 . S
C185 C183 1.358 . S
C185 H243 0.930 . S
C186 C189 1.348 . S
C186 C190 1.356 . S
C186 O237 1.325 . S
C187 N188 1.279 . S
C187 C190 1.358 . S
C187 H244 0.930 . S
N188 C187 1.279 . S
N188 C191 1.314 . S
C189 C186 1.348 . S
C189 C191 1.353 . S
C189 H245 0.929 . S
C190 C186 1.356 . S
C190 C187 1.358 . S
C190 H246 0.930 . S
C191 N188 1.314 . S
C191 C189 1.353 . S
C191 H247 0.930 . S
C192 N193 1.314 . S
C192 C197 1.353 . S
C192 H198 0.930 . S
N193 Li176 1.990 . S
N193 C192 1.314 . S
N193 C195 1.279 . S
C194 C195 1.358 . S
C194 C196 1.356 . S
C194 H248 0.930 . S
C195 N193 1.279 . S
C195 C194 1.358 . S
C195 H199 0.930 . S
C196 C194 1.356 . S
C196 C197 1.348 . S
C197 C192 1.353 . S
C197 C196 1.348 . S
C197 H249 0.929 . S
H198 C192 0.930 . S
H199 C195 0.930 . S
C200 N201 1.314 . S
C200 C202 1.353 . S
C200 H206 0.930 . S
N201 Li177 1.990 . S
N201 C200 1.314 . S
N201 C204 1.279 . S
C202 C200 1.353 . S
C202 C205 1.348 . S
C202 H250 0.929 . S
C203 C204 1.358 . S
C203 C205 1.356 . S
C203 H251 0.930 . S
C204 N201 1.279 . S
C204 C203 1.358 . S
C204 H207 0.930 . S
C205 C202 1.348 . S
C205 C203 1.356 . S
H206 C200 0.930 . S
H207 C204 0.930 . S
C208 C210 1.348 . S
C208 C211 1.356 . S
C208 O238 1.325 . S
N209 C212 1.314 . S
N209 C213 1.279 . S
C210 C208 1.348 . S
C210 C212 1.353 . S
C210 H252 0.929 . S
C211 C208 1.356 . S
C211 C213 1.358 . S
C211 H253 0.930 . S
C212 N209 1.314 . S
C212 C210 1.353 . S
C212 H254 0.930 . S
C213 N209 1.279 . S
C213 C211 1.358 . S
C213 H255 0.930 . S
C214 C215 1.348 . S
C214 C216 1.356 . S
C214 O239 1.325 . S
C215 C214 1.348 . S
C215 C217 1.353 . S
C215 H256 0.929 . S
C216 C214 1.356 . S
C216 C218 1.358 . S
C216 H257 0.930 . S
C217 C215 1.353 . S
C217 N219 1.314 . S
C217 H258 0.930 . S
C218 C216 1.358 . S
C218 N219 1.279 . S
C218 H259 0.930 . S
N219 C217 1.314 . S
N219 C218 1.279 . S
C220 C222 1.353 . S
C220 N223 1.314 . S
C220 H226 0.930 . S
C221 N223 1.279 . S
C221 C224 1.358 . S
C221 H227 0.930 . S
C222 C220 1.353 . S
C222 C225 1.348 . S
C222 H260 0.929 . S
N223 Li178 1.990 . S
N223 C220 1.314 . S
N223 C221 1.279 . S
C224 C221 1.358 . S
C224 C225 1.356 . S
C224 H261 0.930 . S
C225 C222 1.348 . S
C225 C224 1.356 . S
H226 C220 0.930 . S
H227 C221 0.930 . S
C228 N229 1.314 . S
C228 C230 1.353 . S
C228 H234 0.930 . S
N229 Li179 1.990 . S
N229 C228 1.314 . S
N229 C232 1.279 . S
C230 C228 1.353 . S
C230 C233 1.348 . S
C230 H262 0.929 . S
C231 C232 1.358 . S
C231 C233 1.356 . S
C231 H263 0.930 . S
C232 N229 1.279 . S
C232 C231 1.358 . S
C232 H235 0.930 . S
C233 C230 1.348 . S
C233 C231 1.356 . S
H234 C228 0.930 . S
H235 C232 0.930 . S
O236 Li176 1.956 . S
O236 Li177 1.970 . S
O236 Li178 1.961 . S
O236 C180 1.325 . S
O237 Li176 1.970 . S
O237 Li177 1.956 . S
O237 Li179 1.961 . S
O237 C186 1.325 . S
O238 Li176 1.961 . S
O238 Li178 1.956 . S
O238 Li179 1.970 . S
O238 C208 1.325 . S
O239 Li177 1.961 . S
O239 Li178 1.970 . S
O239 Li179 1.956 . S
O239 C214 1.325 . S
H240 C182 0.929 . S
H241 C183 0.930 . S
H242 C184 0.930 . S
H243 C185 0.930 . S
H244 C187 0.930 . S
H245 C189 0.929 . S
H246 C190 0.930 . S
H247 C191 0.930 . S
H248 C194 0.930 . S
H249 C197 0.929 . S
H250 C202 0.929 . S
H251 C203 0.930 . S
H252 C210 0.929 . S
H253 C211 0.930 . S
H254 C212 0.930 . S
H255 C213 0.930 . S
H256 C215 0.929 . S
H257 C216 0.930 . S
H258 C217 0.930 . S
H259 C218 0.930 . S
H260 C222 0.929 . S
H261 C224 0.930 . S
H262 C230 0.929 . S
H263 C231 0.930 . S
Li264 N281 1.990 . S
Li264 O324 1.956 . S
Li264 O325 1.970 . S
Li264 O326 1.961 . S
Li265 N289 1.990 . S
Li265 O324 1.970 . S
Li265 O325 1.956 . S
Li265 O327 1.961 . S
Li266 N311 1.990 . S
Li266 O324 1.961 . S
Li266 O326 1.956 . S
Li266 O327 1.970 . S
Li267 N317 1.990 . S
Li267 O325 1.961 . S
Li267 O326 1.970 . S
Li267 O327 1.956 . S
C268 C270 1.348 . S
C268 C271 1.356 . S
C268 O324 1.325 . S
N269 C272 1.314 . S
N269 C273 1.279 . S
C270 C268 1.348 . S
C270 C272 1.353 . S
C270 H328 0.929 . S
C271 C268 1.356 . S
C271 C273 1.358 . S
C271 H329 0.930 . S
C272 N269 1.314 . S
C272 C270 1.353 . S
C272 H330 0.930 . S
C273 N269 1.279 . S
C273 C271 1.358 . S
C273 H331 0.930 . S
C274 C277 1.348 . S
C274 C278 1.356 . S
C274 O325 1.325 . S
C275 N276 1.279 . S
C275 C278 1.358 . S
C275 H332 0.930 . S
N276 C275 1.279 . S
N276 C279 1.314 . S
C277 C274 1.348 . S
C277 C279 1.353 . S
C277 H333 0.929 . S
C278 C274 1.356 . S
C278 C275 1.358 . S
C278 H334 0.930 . S
C279 N276 1.314 . S
C279 C277 1.353 . S
C279 H335 0.930 . S
C280 N281 1.314 . S
C280 C285 1.353 . S
C280 H286 0.930 . S
N281 Li264 1.990 . S
N281 C280 1.314 . S
N281 C283 1.279 . S
C282 C283 1.358 . S
C282 C284 1.356 . S
C282 H336 0.930 . S
C283 N281 1.279 . S
C283 C282 1.358 . S
C283 H287 0.930 . S
C284 C282 1.356 . S
C284 C285 1.348 . S
C285 C280 1.353 . S
C285 C284 1.348 . S
C285 H337 0.929 . S
H286 C280 0.930 . S
H287 C283 0.930 . S
C288 N289 1.314 . S
C288 C290 1.353 . S
C288 H294 0.930 . S
N289 Li265 1.990 . S
N289 C288 1.314 . S
N289 C292 1.279 . S
C290 C288 1.353 . S
C290 C293 1.348 . S
C290 H338 0.929 . S
C291 C292 1.358 . S
C291 C293 1.356 . S
C291 H339 0.930 . S
C292 N289 1.279 . S
C292 C291 1.358 . S
C292 H295 0.930 . S
C293 C290 1.348 . S
C293 C291 1.356 . S
H294 C288 0.930 . S
H295 C292 0.930 . S
C296 C298 1.348 . S
C296 C299 1.356 . S
C296 O326 1.325 . S
N297 C300 1.314 . S
N297 C301 1.279 . S
C298 C296 1.348 . S
C298 C300 1.353 . S
C298 H340 0.929 . S
C299 C296 1.356 . S
C299 C301 1.358 . S
C299 H341 0.930 . S
C300 N297 1.314 . S
C300 C298 1.353 . S
C300 H342 0.930 . S
C301 N297 1.279 . S
C301 C299 1.358 . S
C301 H343 0.930 . S
C302 C303 1.348 . S
C302 C304 1.356 . S
C302 O327 1.325 . S
C303 C302 1.348 . S
C303 C305 1.353 . S
C303 H344 0.929 . S
C304 C302 1.356 . S
C304 C306 1.358 . S
C304 H345 0.930 . S
C305 C303 1.353 . S
C305 N307 1.314 . S
C305 H346 0.930 . S
C306 C304 1.358 . S
C306 N307 1.279 . S
C306 H347 0.930 . S
N307 C305 1.314 . S
N307 C306 1.279 . S
C308 C310 1.353 . S
C308 N311 1.314 . S
C308 H314 0.930 . S
C309 N311 1.279 . S
C309 C312 1.358 . S
C309 H315 0.930 . S
C310 C308 1.353 . S
C310 C313 1.348 . S
C310 H348 0.929 . S
N311 Li266 1.990 . S
N311 C308 1.314 . S
N311 C309 1.279 . S
C312 C309 1.358 . S
C312 C313 1.356 . S
C312 H349 0.930 . S
C313 C310 1.348 . S
C313 C312 1.356 . S
H314 C308 0.930 . S
H315 C309 0.930 . S
C316 N317 1.314 . S
C316 C318 1.353 . S
C316 H322 0.930 . S
N317 Li267 1.990 . S
N317 C316 1.314 . S
N317 C320 1.279 . S
C318 C316 1.353 . S
C318 C321 1.348 . S
C318 H350 0.929 . S
C319 C320 1.358 . S
C319 C321 1.356 . S
C319 H351 0.930 . S
C320 N317 1.279 . S
C320 C319 1.358 . S
C320 H323 0.930 . S
C321 C318 1.348 . S
C321 C319 1.356 . S
H322 C316 0.930 . S
H323 C320 0.930 . S
O324 Li264 1.956 . S
O324 Li265 1.970 . S
O324 Li266 1.961 . S
O324 C268 1.325 . S
O325 Li264 1.970 . S
O325 Li265 1.956 . S
O325 Li267 1.961 . S
O325 C274 1.325 . S
O326 Li264 1.961 . S
O326 Li266 1.956 . S
O326 Li267 1.970 . S
O326 C296 1.325 . S
O327 Li265 1.961 . S
O327 Li266 1.970 . S
O327 Li267 1.956 . S
O327 C302 1.325 . S
H328 C270 0.929 . S
H329 C271 0.930 . S
H330 C272 0.930 . S
H331 C273 0.930 . S
H332 C275 0.930 . S
H333 C277 0.929 . S
H334 C278 0.930 . S
H335 C279 0.930 . S
H336 C282 0.930 . S
H337 C285 0.929 . S
H338 C290 0.929 . S
H339 C291 0.930 . S
H340 C298 0.929 . S
H341 C299 0.930 . S
H342 C300 0.930 . S
H343 C301 0.930 . S
H344 C303 0.929 . S
H345 C304 0.930 . S
H346 C305 0.930 . S
H347 C306 0.930 . S
H348 C310 0.929 . S
H349 C312 0.930 . S
H350 C318 0.929 . S
H351 C319 0.930 . S
Li352 N369 1.990 . S
Li352 O412 1.956 . S
Li352 O413 1.970 . S
Li352 O414 1.961 . S
Li353 N377 1.990 . S
Li353 O412 1.970 . S
Li353 O413 1.956 . S
Li353 O415 1.961 . S
Li354 N399 1.990 . S
Li354 O412 1.961 . S
Li354 O414 1.956 . S
Li354 O415 1.970 . S
Li355 N405 1.990 . S
Li355 O413 1.961 . S
Li355 O414 1.970 . S
Li355 O415 1.956 . S
C356 C358 1.348 . S
C356 C359 1.356 . S
C356 O412 1.325 . S
N357 C360 1.314 . S
N357 C361 1.279 . S
C358 C356 1.348 . S
C358 C360 1.353 . S
C358 H416 0.929 . S
C359 C356 1.356 . S
C359 C361 1.358 . S
C359 H417 0.930 . S
C360 N357 1.314 . S
C360 C358 1.353 . S
C360 H418 0.930 . S
C361 N357 1.279 . S
C361 C359 1.358 . S
C361 H419 0.930 . S
C362 C365 1.348 . S
C362 C366 1.356 . S
C362 O413 1.325 . S
C363 N364 1.279 . S
C363 C366 1.358 . S
C363 H420 0.930 . S
N364 C363 1.279 . S
N364 C367 1.314 . S
C365 C362 1.348 . S
C365 C367 1.353 . S
C365 H421 0.929 . S
C366 C362 1.356 . S
C366 C363 1.358 . S
C366 H422 0.930 . S
C367 N364 1.314 . S
C367 C365 1.353 . S
C367 H423 0.930 . S
C368 N369 1.314 . S
C368 C373 1.353 . S
C368 H374 0.930 . S
N369 Li352 1.990 . S
N369 C368 1.314 . S
N369 C371 1.279 . S
C370 C371 1.358 . S
C370 C372 1.356 . S
C370 H424 0.930 . S
C371 N369 1.279 . S
C371 C370 1.358 . S
C371 H375 0.930 . S
C372 C370 1.356 . S
C372 C373 1.348 . S
C373 C368 1.353 . S
C373 C372 1.348 . S
C373 H425 0.929 . S
H374 C368 0.930 . S
H375 C371 0.930 . S
C376 N377 1.314 . S
C376 C378 1.353 . S
C376 H382 0.930 . S
N377 Li353 1.990 . S
N377 C376 1.314 . S
N377 C380 1.279 . S
C378 C376 1.353 . S
C378 C381 1.348 . S
C378 H426 0.929 . S
C379 C380 1.358 . S
C379 C381 1.356 . S
C379 H427 0.930 . S
C380 N377 1.279 . S
C380 C379 1.358 . S
C380 H383 0.930 . S
C381 C378 1.348 . S
C381 C379 1.356 . S
H382 C376 0.930 . S
H383 C380 0.930 . S
C384 C386 1.348 . S
C384 C387 1.356 . S
C384 O414 1.325 . S
N385 C388 1.314 . S
N385 C389 1.279 . S
C386 C384 1.348 . S
C386 C388 1.353 . S
C386 H428 0.929 . S
C387 C384 1.356 . S
C387 C389 1.358 . S
C387 H429 0.930 . S
C388 N385 1.314 . S
C388 C386 1.353 . S
C388 H430 0.930 . S
C389 N385 1.279 . S
C389 C387 1.358 . S
C389 H431 0.930 . S
C390 C391 1.348 . S
C390 C392 1.356 . S
C390 O415 1.325 . S
C391 C390 1.348 . S
C391 C393 1.353 . S
C391 H432 0.929 . S
C392 C390 1.356 . S
C392 C394 1.358 . S
C392 H433 0.930 . S
C393 C391 1.353 . S
C393 N395 1.314 . S
C393 H434 0.930 . S
C394 C392 1.358 . S
C394 N395 1.279 . S
C394 H435 0.930 . S
N395 C393 1.314 . S
N395 C394 1.279 . S
C396 C398 1.353 . S
C396 N399 1.314 . S
C396 H402 0.930 . S
C397 N399 1.279 . S
C397 C400 1.358 . S
C397 H403 0.930 . S
C398 C396 1.353 . S
C398 C401 1.348 . S
C398 H436 0.929 . S
N399 Li354 1.990 . S
N399 C396 1.314 . S
N399 C397 1.279 . S
C400 C397 1.358 . S
C400 C401 1.356 . S
C400 H437 0.930 . S
C401 C398 1.348 . S
C401 C400 1.356 . S
H402 C396 0.930 . S
H403 C397 0.930 . S
C404 N405 1.314 . S
C404 C406 1.353 . S
C404 H410 0.930 . S
N405 Li355 1.990 . S
N405 C404 1.314 . S
N405 C408 1.279 . S
C406 C404 1.353 . S
C406 C409 1.348 . S
C406 H438 0.929 . S
C407 C408 1.358 . S
C407 C409 1.356 . S
C407 H439 0.930 . S
C408 N405 1.279 . S
C408 C407 1.358 . S
C408 H411 0.930 . S
C409 C406 1.348 . S
C409 C407 1.356 . S
H410 C404 0.930 . S
H411 C408 0.930 . S
O412 Li352 1.956 . S
O412 Li353 1.970 . S
O412 Li354 1.961 . S
O412 C356 1.325 . S
O413 Li352 1.970 . S
O413 Li353 1.956 . S
O413 Li355 1.961 . S
O413 C362 1.325 . S
O414 Li352 1.961 . S
O414 Li354 1.956 . S
O414 Li355 1.970 . S
O414 C384 1.325 . S
O415 Li353 1.961 . S
O415 Li354 1.970 . S
O415 Li355 1.956 . S
O415 C390 1.325 . S
H416 C358 0.929 . S
H417 C359 0.930 . S
H418 C360 0.930 . S
H419 C361 0.930 . S
H420 C363 0.930 . S
H421 C365 0.929 . S
H422 C366 0.930 . S
H423 C367 0.930 . S
H424 C370 0.930 . S
H425 C373 0.929 . S
H426 C378 0.929 . S
H427 C379 0.930 . S
H428 C386 0.929 . S
H429 C387 0.930 . S
H430 C388 0.930 . S
H431 C389 0.930 . S
H432 C391 0.929 . S
H433 C392 0.930 . S
H434 C393 0.930 . S
H435 C394 0.930 . S
H436 C398 0.929 . S
H437 C400 0.930 . S
H438 C406 0.929 . S
H439 C407 0.930 . S
Li440 N457 1.990 . S
Li440 O500 1.956 . S
Li440 O501 1.970 . S
Li440 O502 1.961 . S
Li441 N465 1.990 . S
Li441 O500 1.970 . S
Li441 O501 1.956 . S
Li441 O503 1.961 . S
Li442 N487 1.990 . S
Li442 O500 1.961 . S
Li442 O502 1.956 . S
Li442 O503 1.970 . S
Li443 N493 1.990 . S
Li443 O501 1.961 . S
Li443 O502 1.970 . S
Li443 O503 1.956 . S
C444 C446 1.348 . S
C444 C447 1.356 . S
C444 O500 1.325 . S
N445 C448 1.314 . S
N445 C449 1.279 . S
C446 C444 1.348 . S
C446 C448 1.353 . S
C446 H504 0.929 . S
C447 C444 1.356 . S
C447 C449 1.358 . S
C447 H505 0.930 . S
C448 N445 1.314 . S
C448 C446 1.353 . S
C448 H506 0.930 . S
C449 N445 1.279 . S
C449 C447 1.358 . S
C449 H507 0.930 . S
C450 C453 1.348 . S
C450 C454 1.356 . S
C450 O501 1.325 . S
C451 N452 1.279 . S
C451 C454 1.358 . S
C451 H508 0.930 . S
N452 C451 1.279 . S
N452 C455 1.314 . S
C453 C450 1.348 . S
C453 C455 1.353 . S
C453 H509 0.929 . S
C454 C450 1.356 . S
C454 C451 1.358 . S
C454 H510 0.930 . S
C455 N452 1.314 . S
C455 C453 1.353 . S
C455 H511 0.930 . S
C456 N457 1.314 . S
C456 C461 1.353 . S
C456 H462 0.930 . S
N457 Li440 1.990 . S
N457 C456 1.314 . S
N457 C459 1.279 . S
C458 C459 1.358 . S
C458 C460 1.356 . S
C458 H512 0.930 . S
C459 N457 1.279 . S
C459 C458 1.358 . S
C459 H463 0.930 . S
C460 C458 1.356 . S
C460 C461 1.348 . S
C461 C456 1.353 . S
C461 C460 1.348 . S
C461 H513 0.929 . S
H462 C456 0.930 . S
H463 C459 0.930 . S
C464 N465 1.314 . S
C464 C466 1.353 . S
C464 H470 0.930 . S
N465 Li441 1.990 . S
N465 C464 1.314 . S
N465 C468 1.279 . S
C466 C464 1.353 . S
C466 C469 1.348 . S
C466 H514 0.929 . S
C467 C468 1.358 . S
C467 C469 1.356 . S
C467 H515 0.930 . S
C468 N465 1.279 . S
C468 C467 1.358 . S
C468 H471 0.930 . S
C469 C466 1.348 . S
C469 C467 1.356 . S
H470 C464 0.930 . S
H471 C468 0.930 . S
C472 C474 1.348 . S
C472 C475 1.356 . S
C472 O502 1.325 . S
N473 C476 1.314 . S
N473 C477 1.279 . S
C474 C472 1.348 . S
C474 C476 1.353 . S
C474 H516 0.929 . S
C475 C472 1.356 . S
C475 C477 1.358 . S
C475 H517 0.930 . S
C476 N473 1.314 . S
C476 C474 1.353 . S
C476 H518 0.930 . S
C477 N473 1.279 . S
C477 C475 1.358 . S
C477 H519 0.930 . S
C478 C479 1.348 . S
C478 C480 1.356 . S
C478 O503 1.325 . S
C479 C478 1.348 . S
C479 C481 1.353 . S
C479 H520 0.929 . S
C480 C478 1.356 . S
C480 C482 1.358 . S
C480 H521 0.930 . S
C481 C479 1.353 . S
C481 N483 1.314 . S
C481 H522 0.930 . S
C482 C480 1.358 . S
C482 N483 1.279 . S
C482 H523 0.930 . S
N483 C481 1.314 . S
N483 C482 1.279 . S
C484 C486 1.353 . S
C484 N487 1.314 . S
C484 H490 0.930 . S
C485 N487 1.279 . S
C485 C488 1.358 . S
C485 H491 0.930 . S
C486 C484 1.353 . S
C486 C489 1.348 . S
C486 H524 0.929 . S
N487 Li442 1.990 . S
N487 C484 1.314 . S
N487 C485 1.279 . S
C488 C485 1.358 . S
C488 C489 1.356 . S
C488 H525 0.930 . S
C489 C486 1.348 . S
C489 C488 1.356 . S
H490 C484 0.930 . S
H491 C485 0.930 . S
C492 N493 1.314 . S
C492 C494 1.353 . S
C492 H498 0.930 . S
N493 Li443 1.990 . S
N493 C492 1.314 . S
N493 C496 1.279 . S
C494 C492 1.353 . S
C494 C497 1.348 . S
C494 H526 0.929 . S
C495 C496 1.358 . S
C495 C497 1.356 . S
C495 H527 0.930 . S
C496 N493 1.279 . S
C496 C495 1.358 . S
C496 H499 0.930 . S
C497 C494 1.348 . S
C497 C495 1.356 . S
H498 C492 0.930 . S
H499 C496 0.930 . S
O500 Li440 1.956 . S
O500 Li441 1.970 . S
O500 Li442 1.961 . S
O500 C444 1.325 . S
O501 Li440 1.970 . S
O501 Li441 1.956 . S
O501 Li443 1.961 . S
O501 C450 1.325 . S
O502 Li440 1.961 . S
O502 Li442 1.956 . S
O502 Li443 1.970 . S
O502 C472 1.325 . S
O503 Li441 1.961 . S
O503 Li442 1.970 . S
O503 Li443 1.956 . S
O503 C478 1.325 . S
H504 C446 0.929 . S
H505 C447 0.930 . S
H506 C448 0.930 . S
H507 C449 0.930 . S
H508 C451 0.930 . S
H509 C453 0.929 . S
H510 C454 0.930 . S
H511 C455 0.930 . S
H512 C458 0.930 . S
H513 C461 0.929 . S
H514 C466 0.929 . S
H515 C467 0.930 . S
H516 C474 0.929 . S
H517 C475 0.930 . S
H518 C476 0.930 . S
H519 C477 0.930 . S
H520 C479 0.929 . S
H521 C480 0.930 . S
H522 C481 0.930 . S
H523 C482 0.930 . S
H524 C486 0.929 . S
H525 C488 0.930 . S
H526 C494 0.929 . S
H527 C495 0.930 . S
Li528 N545 1.990 . S
Li528 O588 1.956 . S
Li528 O589 1.970 . S
Li528 O590 1.961 . S
Li529 N553 1.990 . S
Li529 O588 1.970 . S
Li529 O589 1.956 . S
Li529 O591 1.961 . S
Li530 N575 1.990 . S
Li530 O588 1.961 . S
Li530 O590 1.956 . S
Li530 O591 1.970 . S
Li531 N581 1.990 . S
Li531 O589 1.961 . S
Li531 O590 1.970 . S
Li531 O591 1.956 . S
C532 C534 1.348 . S
C532 C535 1.356 . S
C532 O588 1.325 . S
N533 C536 1.314 . S
N533 C537 1.279 . S
C534 C532 1.348 . S
C534 C536 1.353 . S
C534 H592 0.929 . S
C535 C532 1.356 . S
C535 C537 1.358 . S
C535 H593 0.930 . S
C536 N533 1.314 . S
C536 C534 1.353 . S
C536 H594 0.930 . S
C537 N533 1.279 . S
C537 C535 1.358 . S
C537 H595 0.930 . S
C538 C541 1.348 . S
C538 C542 1.356 . S
C538 O589 1.325 . S
C539 N540 1.279 . S
C539 C542 1.358 . S
C539 H596 0.930 . S
N540 C539 1.279 . S
N540 C543 1.314 . S
C541 C538 1.348 . S
C541 C543 1.353 . S
C541 H597 0.929 . S
C542 C538 1.356 . S
C542 C539 1.358 . S
C542 H598 0.930 . S
C543 N540 1.314 . S
C543 C541 1.353 . S
C543 H599 0.930 . S
C544 N545 1.314 . S
C544 C549 1.353 . S
C544 H550 0.930 . S
N545 Li528 1.990 . S
N545 C544 1.314 . S
N545 C547 1.279 . S
C546 C547 1.358 . S
C546 C548 1.356 . S
C546 H600 0.930 . S
C547 N545 1.279 . S
C547 C546 1.358 . S
C547 H551 0.930 . S
C548 C546 1.356 . S
C548 C549 1.348 . S
C549 C544 1.353 . S
C549 C548 1.348 . S
C549 H601 0.929 . S
H550 C544 0.930 . S
H551 C547 0.930 . S
C552 N553 1.314 . S
C552 C554 1.353 . S
C552 H558 0.930 . S
N553 Li529 1.990 . S
N553 C552 1.314 . S
N553 C556 1.279 . S
C554 C552 1.353 . S
C554 C557 1.348 . S
C554 H602 0.929 . S
C555 C556 1.358 . S
C555 C557 1.356 . S
C555 H603 0.930 . S
C556 N553 1.279 . S
C556 C555 1.358 . S
C556 H559 0.930 . S
C557 C554 1.348 . S
C557 C555 1.356 . S
H558 C552 0.930 . S
H559 C556 0.930 . S
C560 C562 1.348 . S
C560 C563 1.356 . S
C560 O590 1.325 . S
N561 C564 1.314 . S
N561 C565 1.279 . S
C562 C560 1.348 . S
C562 C564 1.353 . S
C562 H604 0.929 . S
C563 C560 1.356 . S
C563 C565 1.358 . S
C563 H605 0.930 . S
C564 N561 1.314 . S
C564 C562 1.353 . S
C564 H606 0.930 . S
C565 N561 1.279 . S
C565 C563 1.358 . S
C565 H607 0.930 . S
C566 C567 1.348 . S
C566 C568 1.356 . S
C566 O591 1.325 . S
C567 C566 1.348 . S
C567 C569 1.353 . S
C567 H608 0.929 . S
C568 C566 1.356 . S
C568 C570 1.358 . S
C568 H609 0.930 . S
C569 C567 1.353 . S
C569 N571 1.314 . S
C569 H610 0.930 . S
C570 C568 1.358 . S
C570 N571 1.279 . S
C570 H611 0.930 . S
N571 C569 1.314 . S
N571 C570 1.279 . S
C572 C574 1.353 . S
C572 N575 1.314 . S
C572 H578 0.930 . S
C573 N575 1.279 . S
C573 C576 1.358 . S
C573 H579 0.930 . S
C574 C572 1.353 . S
C574 C577 1.348 . S
C574 H612 0.929 . S
N575 Li530 1.990 . S
N575 C572 1.314 . S
N575 C573 1.279 . S
C576 C573 1.358 . S
C576 C577 1.356 . S
C576 H613 0.930 . S
C577 C574 1.348 . S
C577 C576 1.356 . S
H578 C572 0.930 . S
H579 C573 0.930 . S
C580 N581 1.314 . S
C580 C582 1.353 . S
C580 H586 0.930 . S
N581 Li531 1.990 . S
N581 C580 1.314 . S
N581 C584 1.279 . S
C582 C580 1.353 . S
C582 C585 1.348 . S
C582 H614 0.929 . S
C583 C584 1.358 . S
C583 C585 1.356 . S
C583 H615 0.930 . S
C584 N581 1.279 . S
C584 C583 1.358 . S
C584 H587 0.930 . S
C585 C582 1.348 . S
C585 C583 1.356 . S
H586 C580 0.930 . S
H587 C584 0.930 . S
O588 Li528 1.956 . S
O588 Li529 1.970 . S
O588 Li530 1.961 . S
O588 C532 1.325 . S
O589 Li528 1.970 . S
O589 Li529 1.956 . S
O589 Li531 1.961 . S
O589 C538 1.325 . S
O590 Li528 1.961 . S
O590 Li530 1.956 . S
O590 Li531 1.970 . S
O590 C560 1.325 . S
O591 Li529 1.961 . S
O591 Li530 1.970 . S
O591 Li531 1.956 . S
O591 C566 1.325 . S
H592 C534 0.929 . S
H593 C535 0.930 . S
H594 C536 0.930 . S
H595 C537 0.930 . S
H596 C539 0.930 . S
H597 C541 0.929 . S
H598 C542 0.930 . S
H599 C543 0.930 . S
H600 C546 0.930 . S
H601 C549 0.929 . S
H602 C554 0.929 . S
H603 C555 0.930 . S
H604 C562 0.929 . S
H605 C563 0.930 . S
H606 C564 0.930 . S
H607 C565 0.930 . S
H608 C567 0.929 . S
H609 C568 0.930 . S
H610 C569 0.930 . S
H611 C570 0.930 . S
H612 C574 0.929 . S
H613 C576 0.930 . S
H614 C582 0.929 . S
H615 C583 0.930 . S
Li616 N633 1.990 . S
Li616 O676 1.956 . S
Li616 O677 1.970 . S
Li616 O678 1.961 . S
Li617 N641 1.990 . S
Li617 O676 1.970 . S
Li617 O677 1.956 . S
Li617 O679 1.961 . S
Li618 N663 1.990 . S
Li618 O676 1.961 . S
Li618 O678 1.956 . S
Li618 O679 1.970 . S
Li619 N669 1.990 . S
Li619 O677 1.961 . S
Li619 O678 1.970 . S
Li619 O679 1.956 . S
C620 C622 1.348 . S
C620 C623 1.356 . S
C620 O676 1.325 . S
N621 C624 1.314 . S
N621 C625 1.279 . S
C622 C620 1.348 . S
C622 C624 1.353 . S
C622 H680 0.929 . S
C623 C620 1.356 . S
C623 C625 1.358 . S
C623 H681 0.930 . S
C624 N621 1.314 . S
C624 C622 1.353 . S
C624 H682 0.930 . S
C625 N621 1.279 . S
C625 C623 1.358 . S
C625 H683 0.930 . S
C626 C629 1.348 . S
C626 C630 1.356 . S
C626 O677 1.325 . S
C627 N628 1.279 . S
C627 C630 1.358 . S
C627 H684 0.930 . S
N628 C627 1.279 . S
N628 C631 1.314 . S
C629 C626 1.348 . S
C629 C631 1.353 . S
C629 H685 0.929 . S
C630 C626 1.356 . S
C630 C627 1.358 . S
C630 H686 0.930 . S
C631 N628 1.314 . S
C631 C629 1.353 . S
C631 H687 0.930 . S
C632 N633 1.314 . S
C632 C637 1.353 . S
C632 H638 0.930 . S
N633 Li616 1.990 . S
N633 C632 1.314 . S
N633 C635 1.279 . S
C634 C635 1.358 . S
C634 C636 1.356 . S
C634 H688 0.930 . S
C635 N633 1.279 . S
C635 C634 1.358 . S
C635 H639 0.930 . S
C636 C634 1.356 . S
C636 C637 1.348 . S
C637 C632 1.353 . S
C637 C636 1.348 . S
C637 H689 0.929 . S
H638 C632 0.930 . S
H639 C635 0.930 . S
C640 N641 1.314 . S
C640 C642 1.353 . S
C640 H646 0.930 . S
N641 Li617 1.990 . S
N641 C640 1.314 . S
N641 C644 1.279 . S
C642 C640 1.353 . S
C642 C645 1.348 . S
C642 H690 0.929 . S
C643 C644 1.358 . S
C643 C645 1.356 . S
C643 H691 0.930 . S
C644 N641 1.279 . S
C644 C643 1.358 . S
C644 H647 0.930 . S
C645 C642 1.348 . S
C645 C643 1.356 . S
H646 C640 0.930 . S
H647 C644 0.930 . S
C648 C650 1.348 . S
C648 C651 1.356 . S
C648 O678 1.325 . S
N649 C652 1.314 . S
N649 C653 1.279 . S
C650 C648 1.348 . S
C650 C652 1.353 . S
C650 H692 0.929 . S
C651 C648 1.356 . S
C651 C653 1.358 . S
C651 H693 0.930 . S
C652 N649 1.314 . S
C652 C650 1.353 . S
C652 H694 0.930 . S
C653 N649 1.279 . S
C653 C651 1.358 . S
C653 H695 0.930 . S
C654 C655 1.348 . S
C654 C656 1.356 . S
C654 O679 1.325 . S
C655 C654 1.348 . S
C655 C657 1.353 . S
C655 H696 0.929 . S
C656 C654 1.356 . S
C656 C658 1.358 . S
C656 H697 0.930 . S
C657 C655 1.353 . S
C657 N659 1.314 . S
C657 H698 0.930 . S
C658 C656 1.358 . S
C658 N659 1.279 . S
C658 H699 0.930 . S
N659 C657 1.314 . S
N659 C658 1.279 . S
C660 C662 1.353 . S
C660 N663 1.314 . S
C660 H666 0.930 . S
C661 N663 1.279 . S
C661 C664 1.358 . S
C661 H667 0.930 . S
C662 C660 1.353 . S
C662 C665 1.348 . S
C662 H700 0.929 . S
N663 Li618 1.990 . S
N663 C660 1.314 . S
N663 C661 1.279 . S
C664 C661 1.358 . S
C664 C665 1.356 . S
C664 H701 0.930 . S
C665 C662 1.348 . S
C665 C664 1.356 . S
H666 C660 0.930 . S
H667 C661 0.930 . S
C668 N669 1.314 . S
C668 C670 1.353 . S
C668 H674 0.930 . S
N669 Li619 1.990 . S
N669 C668 1.314 . S
N669 C672 1.279 . S
C670 C668 1.353 . S
C670 C673 1.348 . S
C670 H702 0.929 . S
C671 C672 1.358 . S
C671 C673 1.356 . S
C671 H703 0.930 . S
C672 N669 1.279 . S
C672 C671 1.358 . S
C672 H675 0.930 . S
C673 C670 1.348 . S
C673 C671 1.356 . S
H674 C668 0.930 . S
H675 C672 0.930 . S
O676 Li616 1.956 . S
O676 Li617 1.970 . S
O676 Li618 1.961 . S
O676 C620 1.325 . S
O677 Li616 1.970 . S
O677 Li617 1.956 . S
O677 Li619 1.961 . S
O677 C626 1.325 . S
O678 Li616 1.961 . S
O678 Li618 1.956 . S
O678 Li619 1.970 . S
O678 C648 1.325 . S
O679 Li617 1.961 . S
O679 Li618 1.970 . S
O679 Li619 1.956 . S
O679 C654 1.325 . S
H680 C622 0.929 . S
H681 C623 0.930 . S
H682 C624 0.930 . S
H683 C625 0.930 . S
H684 C627 0.930 . S
H685 C629 0.929 . S
H686 C630 0.930 . S
H687 C631 0.930 . S
H688 C634 0.930 . S
H689 C637 0.929 . S
H690 C642 0.929 . S
H691 C643 0.930 . S
H692 C650 0.929 . S
H693 C651 0.930 . S
H694 C652 0.930 . S
H695 C653 0.930 . S
H696 C655 0.929 . S
H697 C656 0.930 . S
H698 C657 0.930 . S
H699 C658 0.930 . S
H700 C662 0.929 . S
H701 C664 0.930 . S
H702 C670 0.929 . S
H703 C671 0.930 . S
Li704 N721 1.990 . S
Li704 O764 1.956 . S
Li704 O765 1.970 . S
Li704 O766 1.961 . S
Li705 N729 1.990 . S
Li705 O764 1.970 . S
Li705 O765 1.956 . S
Li705 O767 1.961 . S
Li706 N751 1.990 . S
Li706 O764 1.961 . S
Li706 O766 1.956 . S
Li706 O767 1.970 . S
Li707 N757 1.990 . S
Li707 O765 1.961 . S
Li707 O766 1.970 . S
Li707 O767 1.956 . S
C708 C710 1.348 . S
C708 C711 1.356 . S
C708 O764 1.325 . S
N709 C712 1.314 . S
N709 C713 1.279 . S
C710 C708 1.348 . S
C710 C712 1.353 . S
C710 H768 0.929 . S
C711 C708 1.356 . S
C711 C713 1.358 . S
C711 H769 0.930 . S
C712 N709 1.314 . S
C712 C710 1.353 . S
C712 H770 0.930 . S
C713 N709 1.279 . S
C713 C711 1.358 . S
C713 H771 0.930 . S
C714 C717 1.348 . S
C714 C718 1.356 . S
C714 O765 1.325 . S
C715 N716 1.279 . S
C715 C718 1.358 . S
C715 H772 0.930 . S
N716 C715 1.279 . S
N716 C719 1.314 . S
C717 C714 1.348 . S
C717 C719 1.353 . S
C717 H773 0.929 . S
C718 C714 1.356 . S
C718 C715 1.358 . S
C718 H774 0.930 . S
C719 N716 1.314 . S
C719 C717 1.353 . S
C719 H775 0.930 . S
C720 N721 1.314 . S
C720 C725 1.353 . S
C720 H726 0.930 . S
N721 Li704 1.990 . S
N721 C720 1.314 . S
N721 C723 1.279 . S
C722 C723 1.358 . S
C722 C724 1.356 . S
C722 H776 0.930 . S
C723 N721 1.279 . S
C723 C722 1.358 . S
C723 H727 0.930 . S
C724 C722 1.356 . S
C724 C725 1.348 . S
C725 C720 1.353 . S
C725 C724 1.348 . S
C725 H777 0.929 . S
H726 C720 0.930 . S
H727 C723 0.930 . S
C728 N729 1.314 . S
C728 C730 1.353 . S
C728 H734 0.930 . S
N729 Li705 1.990 . S
N729 C728 1.314 . S
N729 C732 1.279 . S
C730 C728 1.353 . S
C730 C733 1.348 . S
C730 H778 0.929 . S
C731 C732 1.358 . S
C731 C733 1.356 . S
C731 H779 0.930 . S
C732 N729 1.279 . S
C732 C731 1.358 . S
C732 H735 0.930 . S
C733 C730 1.348 . S
C733 C731 1.356 . S
H734 C728 0.930 . S
H735 C732 0.930 . S
C736 C738 1.348 . S
C736 C739 1.356 . S
C736 O766 1.325 . S
N737 C740 1.314 . S
N737 C741 1.279 . S
C738 C736 1.348 . S
C738 C740 1.353 . S
C738 H780 0.929 . S
C739 C736 1.356 . S
C739 C741 1.358 . S
C739 H781 0.930 . S
C740 N737 1.314 . S
C740 C738 1.353 . S
C740 H782 0.930 . S
C741 N737 1.279 . S
C741 C739 1.358 . S
C741 H783 0.930 . S
C742 C743 1.348 . S
C742 C744 1.356 . S
C742 O767 1.325 . S
C743 C742 1.348 . S
C743 C745 1.353 . S
C743 H784 0.929 . S
C744 C742 1.356 . S
C744 C746 1.358 . S
C744 H785 0.930 . S
C745 C743 1.353 . S
C745 N747 1.314 . S
C745 H786 0.930 . S
C746 C744 1.358 . S
C746 N747 1.279 . S
C746 H787 0.930 . S
N747 C745 1.314 . S
N747 C746 1.279 . S
C748 C750 1.353 . S
C748 N751 1.314 . S
C748 H754 0.930 . S
C749 N751 1.279 . S
C749 C752 1.358 . S
C749 H755 0.930 . S
C750 C748 1.353 . S
C750 C753 1.348 . S
C750 H788 0.929 . S
N751 Li706 1.990 . S
N751 C748 1.314 . S
N751 C749 1.279 . S
C752 C749 1.358 . S
C752 C753 1.356 . S
C752 H789 0.930 . S
C753 C750 1.348 . S
C753 C752 1.356 . S
H754 C748 0.930 . S
H755 C749 0.930 . S
C756 N757 1.314 . S
C756 C758 1.353 . S
C756 H762 0.930 . S
N757 Li707 1.990 . S
N757 C756 1.314 . S
N757 C760 1.279 . S
C758 C756 1.353 . S
C758 C761 1.348 . S
C758 H790 0.929 . S
C759 C760 1.358 . S
C759 C761 1.356 . S
C759 H791 0.930 . S
C760 N757 1.279 . S
C760 C759 1.358 . S
C760 H763 0.930 . S
C761 C758 1.348 . S
C761 C759 1.356 . S
H762 C756 0.930 . S
H763 C760 0.930 . S
O764 Li704 1.956 . S
O764 Li705 1.970 . S
O764 Li706 1.961 . S
O764 C708 1.325 . S
O765 Li704 1.970 . S
O765 Li705 1.956 . S
O765 Li707 1.961 . S
O765 C714 1.325 . S
O766 Li704 1.961 . S
O766 Li706 1.956 . S
O766 Li707 1.970 . S
O766 C736 1.325 . S
O767 Li705 1.961 . S
O767 Li706 1.970 . S
O767 Li707 1.956 . S
O767 C742 1.325 . S
H768 C710 0.929 . S
H769 C711 0.930 . S
H770 C712 0.930 . S
H771 C713 0.930 . S
H772 C715 0.930 . S
H773 C717 0.929 . S
H774 C718 0.930 . S
H775 C719 0.930 . S
H776 C722 0.930 . S
H777 C725 0.929 . S
H778 C730 0.929 . S
H779 C731 0.930 . S
H780 C738 0.929 . S
H781 C739 0.930 . S
H782 C740 0.930 . S
H783 C741 0.930 . S
H784 C743 0.929 . S
H785 C744 0.930 . S
H786 C745 0.930 . S
H787 C746 0.930 . S
H788 C750 0.929 . S
H789 C752 0.930 . S
H790 C758 0.929 . S
H791 C759 0.930 . S
Li792 N809 1.990 . S
Li792 O852 1.956 . S
Li792 O853 1.970 . S
Li792 O854 1.961 . S
Li793 N817 1.990 . S
Li793 O852 1.970 . S
Li793 O853 1.956 . S
Li793 O855 1.961 . S
Li794 N839 1.990 . S
Li794 O852 1.961 . S
Li794 O854 1.956 . S
Li794 O855 1.970 . S
Li795 N845 1.990 . S
Li795 O853 1.961 . S
Li795 O854 1.970 . S
Li795 O855 1.956 . S
C796 C798 1.348 . S
C796 C799 1.356 . S
C796 O852 1.325 . S
N797 C800 1.314 . S
N797 C801 1.279 . S
C798 C796 1.348 . S
C798 C800 1.353 . S
C798 H856 0.929 . S
C799 C796 1.356 . S
C799 C801 1.358 . S
C799 H857 0.930 . S
C800 N797 1.314 . S
C800 C798 1.353 . S
C800 H858 0.930 . S
C801 N797 1.279 . S
C801 C799 1.358 . S
C801 H859 0.930 . S
C802 C805 1.348 . S
C802 C806 1.356 . S
C802 O853 1.325 . S
C803 N804 1.279 . S
C803 C806 1.358 . S
C803 H860 0.930 . S
N804 C803 1.279 . S
N804 C807 1.314 . S
C805 C802 1.348 . S
C805 C807 1.353 . S
C805 H861 0.929 . S
C806 C802 1.356 . S
C806 C803 1.358 . S
C806 H862 0.930 . S
C807 N804 1.314 . S
C807 C805 1.353 . S
C807 H863 0.930 . S
C808 N809 1.314 . S
C808 C813 1.353 . S
C808 H814 0.930 . S
N809 Li792 1.990 . S
N809 C808 1.314 . S
N809 C811 1.279 . S
C810 C811 1.358 . S
C810 C812 1.356 . S
C810 H864 0.930 . S
C811 N809 1.279 . S
C811 C810 1.358 . S
C811 H815 0.930 . S
C812 C810 1.356 . S
C812 C813 1.348 . S
C813 C808 1.353 . S
C813 C812 1.348 . S
C813 H865 0.929 . S
H814 C808 0.930 . S
H815 C811 0.930 . S
C816 N817 1.314 . S
C816 C818 1.353 . S
C816 H822 0.930 . S
N817 Li793 1.990 . S
N817 C816 1.314 . S
N817 C820 1.279 . S
C818 C816 1.353 . S
C818 C821 1.348 . S
C818 H866 0.929 . S
C819 C820 1.358 . S
C819 C821 1.356 . S
C819 H867 0.930 . S
C820 N817 1.279 . S
C820 C819 1.358 . S
C820 H823 0.930 . S
C821 C818 1.348 . S
C821 C819 1.356 . S
H822 C816 0.930 . S
H823 C820 0.930 . S
C824 C826 1.348 . S
C824 C827 1.356 . S
C824 O854 1.325 . S
N825 C828 1.314 . S
N825 C829 1.279 . S
C826 C824 1.348 . S
C826 C828 1.353 . S
C826 H868 0.929 . S
C827 C824 1.356 . S
C827 C829 1.358 . S
C827 H869 0.930 . S
C828 N825 1.314 . S
C828 C826 1.353 . S
C828 H870 0.930 . S
C829 N825 1.279 . S
C829 C827 1.358 . S
C829 H871 0.930 . S
C830 C831 1.348 . S
C830 C832 1.356 . S
C830 O855 1.325 . S
C831 C830 1.348 . S
C831 C833 1.353 . S
C831 H872 0.929 . S
C832 C830 1.356 . S
C832 C834 1.358 . S
C832 H873 0.930 . S
C833 C831 1.353 . S
C833 N835 1.314 . S
C833 H874 0.930 . S
C834 C832 1.358 . S
C834 N835 1.279 . S
C834 H875 0.930 . S
N835 C833 1.314 . S
N835 C834 1.279 . S
C836 C838 1.353 . S
C836 N839 1.314 . S
C836 H842 0.930 . S
C837 N839 1.279 . S
C837 C840 1.358 . S
C837 H843 0.930 . S
C838 C836 1.353 . S
C838 C841 1.348 . S
C838 H876 0.929 . S
N839 Li794 1.990 . S
N839 C836 1.314 . S
N839 C837 1.279 . S
C840 C837 1.358 . S
C840 C841 1.356 . S
C840 H877 0.930 . S
C841 C838 1.348 . S
C841 C840 1.356 . S
H842 C836 0.930 . S
H843 C837 0.930 . S
C844 N845 1.314 . S
C844 C846 1.353 . S
C844 H850 0.930 . S
N845 Li795 1.990 . S
N845 C844 1.314 . S
N845 C848 1.279 . S
C846 C844 1.353 . S
C846 C849 1.348 . S
C846 H878 0.929 . S
C847 C848 1.358 . S
C847 C849 1.356 . S
C847 H879 0.930 . S
C848 N845 1.279 . S
C848 C847 1.358 . S
C848 H851 0.930 . S
C849 C846 1.348 . S
C849 C847 1.356 . S
H850 C844 0.930 . S
H851 C848 0.930 . S
O852 Li792 1.956 . S
O852 Li793 1.970 . S
O852 Li794 1.961 . S
O852 C796 1.325 . S
O853 Li792 1.970 . S
O853 Li793 1.956 . S
O853 Li795 1.961 . S
O853 C802 1.325 . S
O854 Li792 1.961 . S
O854 Li794 1.956 . S
O854 Li795 1.970 . S
O854 C824 1.325 . S
O855 Li793 1.961 . S
O855 Li794 1.970 . S
O855 Li795 1.956 . S
O855 C830 1.325 . S
H856 C798 0.929 . S
H857 C799 0.930 . S
H858 C800 0.930 . S
H859 C801 0.930 . S
H860 C803 0.930 . S
H861 C805 0.929 . S
H862 C806 0.930 . S
H863 C807 0.930 . S
H864 C810 0.930 . S
H865 C813 0.929 . S
H866 C818 0.929 . S
H867 C819 0.930 . S
H868 C826 0.929 . S
H869 C827 0.930 . S
H870 C828 0.930 . S
H871 C829 0.930 . S
H872 C831 0.929 . S
H873 C832 0.930 . S
H874 C833 0.930 . S
H875 C834 0.930 . S
H876 C838 0.929 . S
H877 C840 0.930 . S
H878 C846 0.929 . S
H879 C847 0.930 . S
Li880 N897 1.990 . S
Li880 O940 1.956 . S
Li880 O941 1.970 . S
Li880 O942 1.961 . S
Li881 N905 1.990 . S
Li881 O940 1.970 . S
Li881 O941 1.956 . S
Li881 O943 1.961 . S
Li882 N927 1.990 . S
Li882 O940 1.961 . S
Li882 O942 1.956 . S
Li882 O943 1.970 . S
Li883 N933 1.990 . S
Li883 O941 1.961 . S
Li883 O942 1.970 . S
Li883 O943 1.956 . S
C884 C886 1.348 . S
C884 C887 1.356 . S
C884 O940 1.325 . S
N885 C888 1.314 . S
N885 C889 1.279 . S
C886 C884 1.348 . S
C886 C888 1.353 . S
C886 H944 0.929 . S
C887 C884 1.356 . S
C887 C889 1.358 . S
C887 H945 0.930 . S
C888 N885 1.314 . S
C888 C886 1.353 . S
C888 H946 0.930 . S
C889 N885 1.279 . S
C889 C887 1.358 . S
C889 H947 0.930 . S
C890 C893 1.348 . S
C890 C894 1.356 . S
C890 O941 1.325 . S
C891 N892 1.279 . S
C891 C894 1.358 . S
C891 H948 0.930 . S
N892 C891 1.279 . S
N892 C895 1.314 . S
C893 C890 1.348 . S
C893 C895 1.353 . S
C893 H949 0.929 . S
C894 C890 1.356 . S
C894 C891 1.358 . S
C894 H950 0.930 . S
C895 N892 1.314 . S
C895 C893 1.353 . S
C895 H951 0.930 . S
C896 N897 1.314 . S
C896 C901 1.353 . S
C896 H902 0.930 . S
N897 Li880 1.990 . S
N897 C896 1.314 . S
N897 C899 1.279 . S
C898 C899 1.358 . S
C898 C900 1.356 . S
C898 H952 0.930 . S
C899 N897 1.279 . S
C899 C898 1.358 . S
C899 H903 0.930 . S
C900 C898 1.356 . S
C900 C901 1.348 . S
C901 C896 1.353 . S
C901 C900 1.348 . S
C901 H953 0.929 . S
H902 C896 0.930 . S
H903 C899 0.930 . S
C904 N905 1.314 . S
C904 C906 1.353 . S
C904 H910 0.930 . S
N905 Li881 1.990 . S
N905 C904 1.314 . S
N905 C908 1.279 . S
C906 C904 1.353 . S
C906 C909 1.348 . S
C906 H954 0.929 . S
C907 C908 1.358 . S
C907 C909 1.356 . S
C907 H955 0.930 . S
C908 N905 1.279 . S
C908 C907 1.358 . S
C908 H911 0.930 . S
C909 C906 1.348 . S
C909 C907 1.356 . S
H910 C904 0.930 . S
H911 C908 0.930 . S
C912 C914 1.348 . S
C912 C915 1.356 . S
C912 O942 1.325 . S
N913 C916 1.314 . S
N913 C917 1.279 . S
C914 C912 1.348 . S
C914 C916 1.353 . S
C914 H956 0.929 . S
C915 C912 1.356 . S
C915 C917 1.358 . S
C915 H957 0.930 . S
C916 N913 1.314 . S
C916 C914 1.353 . S
C916 H958 0.930 . S
C917 N913 1.279 . S
C917 C915 1.358 . S
C917 H959 0.930 . S
C918 C919 1.348 . S
C918 C920 1.356 . S
C918 O943 1.325 . S
C919 C918 1.348 . S
C919 C921 1.353 . S
C919 H960 0.929 . S
C920 C918 1.356 . S
C920 C922 1.358 . S
C920 H961 0.930 . S
C921 C919 1.353 . S
C921 N923 1.314 . S
C921 H962 0.930 . S
C922 C920 1.358 . S
C922 N923 1.279 . S
C922 H963 0.930 . S
N923 C921 1.314 . S
N923 C922 1.279 . S
C924 C926 1.353 . S
C924 N927 1.314 . S
C924 H930 0.930 . S
C925 N927 1.279 . S
C925 C928 1.358 . S
C925 H931 0.930 . S
C926 C924 1.353 . S
C926 C929 1.348 . S
C926 H964 0.929 . S
N927 Li882 1.990 . S
N927 C924 1.314 . S
N927 C925 1.279 . S
C928 C925 1.358 . S
C928 C929 1.356 . S
C928 H965 0.930 . S
C929 C926 1.348 . S
C929 C928 1.356 . S
H930 C924 0.930 . S
H931 C925 0.930 . S
C932 N933 1.314 . S
C932 C934 1.353 . S
C932 H938 0.930 . S
N933 Li883 1.990 . S
N933 C932 1.314 . S
N933 C936 1.279 . S
C934 C932 1.353 . S
C934 C937 1.348 . S
C934 H966 0.929 . S
C935 C936 1.358 . S
C935 C937 1.356 . S
C935 H967 0.930 . S
C936 N933 1.279 . S
C936 C935 1.358 . S
C936 H939 0.930 . S
C937 C934 1.348 . S
C937 C935 1.356 . S
H938 C932 0.930 . S
H939 C936 0.930 . S
O940 Li880 1.956 . S
O940 Li881 1.970 . S
O940 Li882 1.961 . S
O940 C884 1.325 . S
O941 Li880 1.970 . S
O941 Li881 1.956 . S
O941 Li883 1.961 . S
O941 C890 1.325 . S
O942 Li880 1.961 . S
O942 Li882 1.956 . S
O942 Li883 1.970 . S
O942 C912 1.325 . S
O943 Li881 1.961 . S
O943 Li882 1.970 . S
O943 Li883 1.956 . S
O943 C918 1.325 . S
H944 C886 0.929 . S
H945 C887 0.930 . S
H946 C888 0.930 . S
H947 C889 0.930 . S
H948 C891 0.930 . S
H949 C893 0.929 . S
H950 C894 0.930 . S
H951 C895 0.930 . S
H952 C898 0.930 . S
H953 C901 0.929 . S
H954 C906 0.929 . S
H955 C907 0.930 . S
H956 C914 0.929 . S
H957 C915 0.930 . S
H958 C916 0.930 . S
H959 C917 0.930 . S
H960 C919 0.929 . S
H961 C920 0.930 . S
H962 C921 0.930 . S
H963 C922 0.930 . S
H964 C926 0.929 . S
H965 C928 0.930 . S
H966 C934 0.929 . S
H967 C935 0.930 . S
Li968 N985 1.990 . S
Li968 O1028 1.956 . S
Li968 O1029 1.970 . S
Li968 O1030 1.961 . S
Li969 N993 1.990 . S
Li969 O1028 1.970 . S
Li969 O1029 1.956 . S
Li969 O1031 1.961 . S
Li970 N1015 1.990 . S
Li970 O1028 1.961 . S
Li970 O1030 1.956 . S
Li970 O1031 1.970 . S
Li971 N1021 1.990 . S
Li971 O1029 1.961 . S
Li971 O1030 1.970 . S
Li971 O1031 1.956 . S
C972 C974 1.348 . S
C972 C975 1.356 . S
C972 O1028 1.325 . S
N973 C976 1.314 . S
N973 C977 1.279 . S
C974 C972 1.348 . S
C974 C976 1.353 . S
C974 H1032 0.929 . S
C975 C972 1.356 . S
C975 C977 1.358 . S
C975 H1033 0.930 . S
C976 N973 1.314 . S
C976 C974 1.353 . S
C976 H1034 0.930 . S
C977 N973 1.279 . S
C977 C975 1.358 . S
C977 H1035 0.930 . S
C978 C981 1.348 . S
C978 C982 1.356 . S
C978 O1029 1.325 . S
C979 N980 1.279 . S
C979 C982 1.358 . S
C979 H1036 0.930 . S
N980 C979 1.279 . S
N980 C983 1.314 . S
C981 C978 1.348 . S
C981 C983 1.353 . S
C981 H1037 0.929 . S
C982 C978 1.356 . S
C982 C979 1.358 . S
C982 H1038 0.930 . S
C983 N980 1.314 . S
C983 C981 1.353 . S
C983 H1039 0.930 . S
C984 N985 1.314 . S
C984 C989 1.353 . S
C984 H990 0.930 . S
N985 Li968 1.990 . S
N985 C984 1.314 . S
N985 C987 1.279 . S
C986 C987 1.358 . S
C986 C988 1.356 . S
C986 H1040 0.930 . S
C987 N985 1.279 . S
C987 C986 1.358 . S
C987 H991 0.930 . S
C988 C986 1.356 . S
C988 C989 1.348 . S
C989 C984 1.353 . S
C989 C988 1.348 . S
C989 H1041 0.929 . S
H990 C984 0.930 . S
H991 C987 0.930 . S
C992 N993 1.314 . S
C992 C994 1.353 . S
C992 H998 0.930 . S
N993 Li969 1.990 . S
N993 C992 1.314 . S
N993 C996 1.279 . S
C994 C992 1.353 . S
C994 C997 1.348 . S
C994 H1042 0.929 . S
C995 C996 1.358 . S
C995 C997 1.356 . S
C995 H1043 0.930 . S
C996 N993 1.279 . S
C996 C995 1.358 . S
C996 H999 0.930 . S
C997 C994 1.348 . S
C997 C995 1.356 . S
H998 C992 0.930 . S
H999 C996 0.930 . S
C1000 C1002 1.348 . S
C1000 C1003 1.356 . S
C1000 O1030 1.325 . S
N1001 C1004 1.314 . S
N1001 C1005 1.279 . S
C1002 C1000 1.348 . S
C1002 C1004 1.353 . S
C1002 H1044 0.929 . S
C1003 C1000 1.356 . S
C1003 C1005 1.358 . S
C1003 H1045 0.930 . S
C1004 N1001 1.314 . S
C1004 C1002 1.353 . S
C1004 H1046 0.930 . S
C1005 N1001 1.279 . S
C1005 C1003 1.358 . S
C1005 H1047 0.930 . S
C1006 C1007 1.348 . S
C1006 C1008 1.356 . S
C1006 O1031 1.325 . S
C1007 C1006 1.348 . S
C1007 C1009 1.353 . S
C1007 H1048 0.929 . S
C1008 C1006 1.356 . S
C1008 C1010 1.358 . S
C1008 H1049 0.930 . S
C1009 C1007 1.353 . S
C1009 N1011 1.314 . S
C1009 H1050 0.930 . S
C1010 C1008 1.358 . S
C1010 N1011 1.279 . S
C1010 H1051 0.930 . S
N1011 C1009 1.314 . S
N1011 C1010 1.279 . S
C1012 C1014 1.353 . S
C1012 N1015 1.314 . S
C1012 H1018 0.930 . S
C1013 N1015 1.279 . S
C1013 C1016 1.358 . S
C1013 H1019 0.930 . S
C1014 C1012 1.353 . S
C1014 C1017 1.348 . S
C1014 H1052 0.929 . S
N1015 Li970 1.990 . S
N1015 C1012 1.314 . S
N1015 C1013 1.279 . S
C1016 C1013 1.358 . S
C1016 C1017 1.356 . S
C1016 H1053 0.930 . S
C1017 C1014 1.348 . S
C1017 C1016 1.356 . S
H1018 C1012 0.930 . S
H1019 C1013 0.930 . S
C1020 N1021 1.314 . S
C1020 C1022 1.353 . S
C1020 H1026 0.930 . S
N1021 Li971 1.990 . S
N1021 C1020 1.314 . S
N1021 C1024 1.279 . S
C1022 C1020 1.353 . S
C1022 C1025 1.348 . S
C1022 H1054 0.929 . S
C1023 C1024 1.358 . S
C1023 C1025 1.356 . S
C1023 H1055 0.930 . S
C1024 N1021 1.279 . S
C1024 C1023 1.358 . S
C1024 H1027 0.930 . S
C1025 C1022 1.348 . S
C1025 C1023 1.356 . S
H1026 C1020 0.930 . S
H1027 C1024 0.930 . S
O1028 Li968 1.956 . S
O1028 Li969 1.970 . S
O1028 Li970 1.961 . S
O1028 C972 1.325 . S
O1029 Li968 1.970 . S
O1029 Li969 1.956 . S
O1029 Li971 1.961 . S
O1029 C978 1.325 . S
O1030 Li968 1.961 . S
O1030 Li970 1.956 . S
O1030 Li971 1.970 . S
O1030 C1000 1.325 . S
O1031 Li969 1.961 . S
O1031 Li970 1.970 . S
O1031 Li971 1.956 . S
O1031 C1006 1.325 . S
H1032 C974 0.929 . S
H1033 C975 0.930 . S
H1034 C976 0.930 . S
H1035 C977 0.930 . S
H1036 C979 0.930 . S
H1037 C981 0.929 . S
H1038 C982 0.930 . S
H1039 C983 0.930 . S
H1040 C986 0.930 . S
H1041 C989 0.929 . S
H1042 C994 0.929 . S
H1043 C995 0.930 . S
H1044 C1002 0.929 . S
H1045 C1003 0.930 . S
H1046 C1004 0.930 . S
H1047 C1005 0.930 . S
H1048 C1007 0.929 . S
H1049 C1008 0.930 . S
H1050 C1009 0.930 . S
H1051 C1010 0.930 . S
H1052 C1014 0.929 . S
H1053 C1016 0.930 . S
H1054 C1022 0.929 . S
H1055 C1023 0.930 . S
Li1056 N1073 1.990 . S
Li1056 O1116 1.956 . S
Li1056 O1117 1.970 . S
Li1056 O1118 1.961 . S
Li1057 N1081 1.990 . S
Li1057 O1116 1.970 . S
Li1057 O1117 1.956 . S
Li1057 O1119 1.961 . S
Li1058 N1103 1.990 . S
Li1058 O1116 1.961 . S
Li1058 O1118 1.956 . S
Li1058 O1119 1.970 . S
Li1059 N1109 1.990 . S
Li1059 O1117 1.961 . S
Li1059 O1118 1.970 . S
Li1059 O1119 1.956 . S
C1060 C1062 1.348 . S
C1060 C1063 1.356 . S
C1060 O1116 1.325 . S
N1061 C1064 1.314 . S
N1061 C1065 1.279 . S
C1062 C1060 1.348 . S
C1062 C1064 1.353 . S
C1062 H1120 0.929 . S
C1063 C1060 1.356 . S
C1063 C1065 1.358 . S
C1063 H1121 0.930 . S
C1064 N1061 1.314 . S
C1064 C1062 1.353 . S
C1064 H1122 0.930 . S
C1065 N1061 1.279 . S
C1065 C1063 1.358 . S
C1065 H1123 0.930 . S
C1066 C1069 1.348 . S
C1066 C1070 1.356 . S
C1066 O1117 1.325 . S
C1067 N1068 1.279 . S
C1067 C1070 1.358 . S
C1067 H1124 0.930 . S
N1068 C1067 1.279 . S
N1068 C1071 1.314 . S
C1069 C1066 1.348 . S
C1069 C1071 1.353 . S
C1069 H1125 0.929 . S
C1070 C1066 1.356 . S
C1070 C1067 1.358 . S
C1070 H1126 0.930 . S
C1071 N1068 1.314 . S
C1071 C1069 1.353 . S
C1071 H1127 0.930 . S
C1072 N1073 1.314 . S
C1072 C1077 1.353 . S
C1072 H1078 0.930 . S
N1073 Li1056 1.990 . S
N1073 C1072 1.314 . S
N1073 C1075 1.279 . S
C1074 C1075 1.358 . S
C1074 C1076 1.356 . S
C1074 H1128 0.930 . S
C1075 N1073 1.279 . S
C1075 C1074 1.358 . S
C1075 H1079 0.930 . S
C1076 C1074 1.356 . S
C1076 C1077 1.348 . S
C1077 C1072 1.353 . S
C1077 C1076 1.348 . S
C1077 H1129 0.929 . S
H1078 C1072 0.930 . S
H1079 C1075 0.930 . S
C1080 N1081 1.314 . S
C1080 C1082 1.353 . S
C1080 H1086 0.930 . S
N1081 Li1057 1.990 . S
N1081 C1080 1.314 . S
N1081 C1084 1.279 . S
C1082 C1080 1.353 . S
C1082 C1085 1.348 . S
C1082 H1130 0.929 . S
C1083 C1084 1.358 . S
C1083 C1085 1.356 . S
C1083 H1131 0.930 . S
C1084 N1081 1.279 . S
C1084 C1083 1.358 . S
C1084 H1087 0.930 . S
C1085 C1082 1.348 . S
C1085 C1083 1.356 . S
H1086 C1080 0.930 . S
H1087 C1084 0.930 . S
C1088 C1090 1.348 . S
C1088 C1091 1.356 . S
C1088 O1118 1.325 . S
N1089 C1092 1.314 . S
N1089 C1093 1.279 . S
C1090 C1088 1.348 . S
C1090 C1092 1.353 . S
C1090 H1132 0.929 . S
C1091 C1088 1.356 . S
C1091 C1093 1.358 . S
C1091 H1133 0.930 . S
C1092 N1089 1.314 . S
C1092 C1090 1.353 . S
C1092 H1134 0.930 . S
C1093 N1089 1.279 . S
C1093 C1091 1.358 . S
C1093 H1135 0.930 . S
C1094 C1095 1.348 . S
C1094 C1096 1.356 . S
C1094 O1119 1.325 . S
C1095 C1094 1.348 . S
C1095 C1097 1.353 . S
C1095 H1136 0.929 . S
C1096 C1094 1.356 . S
C1096 C1098 1.358 . S
C1096 H1137 0.930 . S
C1097 C1095 1.353 . S
C1097 N1099 1.314 . S
C1097 H1138 0.930 . S
C1098 C1096 1.358 . S
C1098 N1099 1.279 . S
C1098 H1139 0.930 . S
N1099 C1097 1.314 . S
N1099 C1098 1.279 . S
C1100 C1102 1.353 . S
C1100 N1103 1.314 . S
C1100 H1106 0.930 . S
C1101 N1103 1.279 . S
C1101 C1104 1.358 . S
C1101 H1107 0.930 . S
C1102 C1100 1.353 . S
C1102 C1105 1.348 . S
C1102 H1140 0.929 . S
N1103 Li1058 1.990 . S
N1103 C1100 1.314 . S
N1103 C1101 1.279 . S
C1104 C1101 1.358 . S
C1104 C1105 1.356 . S
C1104 H1141 0.930 . S
C1105 C1102 1.348 . S
C1105 C1104 1.356 . S
H1106 C1100 0.930 . S
H1107 C1101 0.930 . S
C1108 N1109 1.314 . S
C1108 C1110 1.353 . S
C1108 H1114 0.930 . S
N1109 Li1059 1.990 . S
N1109 C1108 1.314 . S
N1109 C1112 1.279 . S
C1110 C1108 1.353 . S
C1110 C1113 1.348 . S
C1110 H1142 0.929 . S
C1111 C1112 1.358 . S
C1111 C1113 1.356 . S
C1111 H1143 0.930 . S
C1112 N1109 1.279 . S
C1112 C1111 1.358 . S
C1112 H1115 0.930 . S
C1113 C1110 1.348 . S
C1113 C1111 1.356 . S
H1114 C1108 0.930 . S
H1115 C1112 0.930 . S
O1116 Li1056 1.956 . S
O1116 Li1057 1.970 . S
O1116 Li1058 1.961 . S
O1116 C1060 1.325 . S
O1117 Li1056 1.970 . S
O1117 Li1057 1.956 . S
O1117 Li1059 1.961 . S
O1117 C1066 1.325 . S
O1118 Li1056 1.961 . S
O1118 Li1058 1.956 . S
O1118 Li1059 1.970 . S
O1118 C1088 1.325 . S
O1119 Li1057 1.961 . S
O1119 Li1058 1.970 . S
O1119 Li1059 1.956 . S
O1119 C1094 1.325 . S
H1120 C1062 0.929 . S
H1121 C1063 0.930 . S
H1122 C1064 0.930 . S
H1123 C1065 0.930 . S
H1124 C1067 0.930 . S
H1125 C1069 0.929 . S
H1126 C1070 0.930 . S
H1127 C1071 0.930 . S
H1128 C1074 0.930 . S
H1129 C1077 0.929 . S
H1130 C1082 0.929 . S
H1131 C1083 0.930 . S
H1132 C1090 0.929 . S
H1133 C1091 0.930 . S
H1134 C1092 0.930 . S
H1135 C1093 0.930 . S
H1136 C1095 0.929 . S
H1137 C1096 0.930 . S
H1138 C1097 0.930 . S
H1139 C1098 0.930 . S
H1140 C1102 0.929 . S
H1141 C1104 0.930 . S
H1142 C1110 0.929 . S
H1143 C1111 0.930 . S
Li1144 N1161 1.990 . S
Li1144 O1204 1.956 . S
Li1144 O1205 1.970 . S
Li1144 O1206 1.961 . S
Li1145 N1169 1.990 . S
Li1145 O1204 1.970 . S
Li1145 O1205 1.956 . S
Li1145 O1207 1.961 . S
Li1146 N1191 1.990 . S
Li1146 O1204 1.961 . S
Li1146 O1206 1.956 . S
Li1146 O1207 1.970 . S
Li1147 N1197 1.990 . S
Li1147 O1205 1.961 . S
Li1147 O1206 1.970 . S
Li1147 O1207 1.956 . S
C1148 C1150 1.348 . S
C1148 C1151 1.356 . S
C1148 O1204 1.325 . S
N1149 C1152 1.314 . S
N1149 C1153 1.279 . S
C1150 C1148 1.348 . S
C1150 C1152 1.353 . S
C1150 H1208 0.929 . S
C1151 C1148 1.356 . S
C1151 C1153 1.358 . S
C1151 H1209 0.930 . S
C1152 N1149 1.314 . S
C1152 C1150 1.353 . S
C1152 H1210 0.930 . S
C1153 N1149 1.279 . S
C1153 C1151 1.358 . S
C1153 H1211 0.930 . S
C1154 C1157 1.348 . S
C1154 C1158 1.356 . S
C1154 O1205 1.325 . S
C1155 N1156 1.279 . S
C1155 C1158 1.358 . S
C1155 H1212 0.930 . S
N1156 C1155 1.279 . S
N1156 C1159 1.314 . S
C1157 C1154 1.348 . S
C1157 C1159 1.353 . S
C1157 H1213 0.929 . S
C1158 C1154 1.356 . S
C1158 C1155 1.358 . S
C1158 H1214 0.930 . S
C1159 N1156 1.314 . S
C1159 C1157 1.353 . S
C1159 H1215 0.930 . S
C1160 N1161 1.314 . S
C1160 C1165 1.353 . S
C1160 H1166 0.930 . S
N1161 Li1144 1.990 . S
N1161 C1160 1.314 . S
N1161 C1163 1.279 . S
C1162 C1163 1.358 . S
C1162 C1164 1.356 . S
C1162 H1216 0.930 . S
C1163 N1161 1.279 . S
C1163 C1162 1.358 . S
C1163 H1167 0.930 . S
C1164 C1162 1.356 . S
C1164 C1165 1.348 . S
C1165 C1160 1.353 . S
C1165 C1164 1.348 . S
C1165 H1217 0.929 . S
H1166 C1160 0.930 . S
H1167 C1163 0.930 . S
C1168 N1169 1.314 . S
C1168 C1170 1.353 . S
C1168 H1174 0.930 . S
N1169 Li1145 1.990 . S
N1169 C1168 1.314 . S
N1169 C1172 1.279 . S
C1170 C1168 1.353 . S
C1170 C1173 1.348 . S
C1170 H1218 0.929 . S
C1171 C1172 1.358 . S
C1171 C1173 1.356 . S
C1171 H1219 0.930 . S
C1172 N1169 1.279 . S
C1172 C1171 1.358 . S
C1172 H1175 0.930 . S
C1173 C1170 1.348 . S
C1173 C1171 1.356 . S
H1174 C1168 0.930 . S
H1175 C1172 0.930 . S
C1176 C1178 1.348 . S
C1176 C1179 1.356 . S
C1176 O1206 1.325 . S
N1177 C1180 1.314 . S
N1177 C1181 1.279 . S
C1178 C1176 1.348 . S
C1178 C1180 1.353 . S
C1178 H1220 0.929 . S
C1179 C1176 1.356 . S
C1179 C1181 1.358 . S
C1179 H1221 0.930 . S
C1180 N1177 1.314 . S
C1180 C1178 1.353 . S
C1180 H1222 0.930 . S
C1181 N1177 1.279 . S
C1181 C1179 1.358 . S
C1181 H1223 0.930 . S
C1182 C1183 1.348 . S
C1182 C1184 1.356 . S
C1182 O1207 1.325 . S
C1183 C1182 1.348 . S
C1183 C1185 1.353 . S
C1183 H1224 0.929 . S
C1184 C1182 1.356 . S
C1184 C1186 1.358 . S
C1184 H1225 0.930 . S
C1185 C1183 1.353 . S
C1185 N1187 1.314 . S
C1185 H1226 0.930 . S
C1186 C1184 1.358 . S
C1186 N1187 1.279 . S
C1186 H1227 0.930 . S
N1187 C1185 1.314 . S
N1187 C1186 1.279 . S
C1188 C1190 1.353 . S
C1188 N1191 1.314 . S
C1188 H1194 0.930 . S
C1189 N1191 1.279 . S
C1189 C1192 1.358 . S
C1189 H1195 0.930 . S
C1190 C1188 1.353 . S
C1190 C1193 1.348 . S
C1190 H1228 0.929 . S
N1191 Li1146 1.990 . S
N1191 C1188 1.314 . S
N1191 C1189 1.279 . S
C1192 C1189 1.358 . S
C1192 C1193 1.356 . S
C1192 H1229 0.930 . S
C1193 C1190 1.348 . S
C1193 C1192 1.356 . S
H1194 C1188 0.930 . S
H1195 C1189 0.930 . S
C1196 N1197 1.314 . S
C1196 C1198 1.353 . S
C1196 H1202 0.930 . S
N1197 Li1147 1.990 . S
N1197 C1196 1.314 . S
N1197 C1200 1.279 . S
C1198 C1196 1.353 . S
C1198 C1201 1.348 . S
C1198 H1230 0.929 . S
C1199 C1200 1.358 . S
C1199 C1201 1.356 . S
C1199 H1231 0.930 . S
C1200 N1197 1.279 . S
C1200 C1199 1.358 . S
C1200 H1203 0.930 . S
C1201 C1198 1.348 . S
C1201 C1199 1.356 . S
H1202 C1196 0.930 . S
H1203 C1200 0.930 . S
O1204 Li1144 1.956 . S
O1204 Li1145 1.970 . S
O1204 Li1146 1.961 . S
O1204 C1148 1.325 . S
O1205 Li1144 1.970 . S
O1205 Li1145 1.956 . S
O1205 Li1147 1.961 . S
O1205 C1154 1.325 . S
O1206 Li1144 1.961 . S
O1206 Li1146 1.956 . S
O1206 Li1147 1.970 . S
O1206 C1176 1.325 . S
O1207 Li1145 1.961 . S
O1207 Li1146 1.970 . S
O1207 Li1147 1.956 . S
O1207 C1182 1.325 . S
H1208 C1150 0.929 . S
H1209 C1151 0.930 . S
H1210 C1152 0.930 . S
H1211 C1153 0.930 . S
H1212 C1155 0.930 . S
H1213 C1157 0.929 . S
H1214 C1158 0.930 . S
H1215 C1159 0.930 . S
H1216 C1162 0.930 . S
H1217 C1165 0.929 . S
H1218 C1170 0.929 . S
H1219 C1171 0.930 . S
H1220 C1178 0.929 . S
H1221 C1179 0.930 . S
H1222 C1180 0.930 . S
H1223 C1181 0.930 . S
H1224 C1183 0.929 . S
H1225 C1184 0.930 . S
H1226 C1185 0.930 . S
H1227 C1186 0.930 . S
H1228 C1190 0.929 . S
H1229 C1192 0.930 . S
H1230 C1198 0.929 . S
H1231 C1199 0.930 . S
Li1232 N1249 1.990 . S
Li1232 O1292 1.956 . S
Li1232 O1293 1.970 . S
Li1232 O1294 1.961 . S
Li1233 N1257 1.990 . S
Li1233 O1292 1.970 . S
Li1233 O1293 1.956 . S
Li1233 O1295 1.961 . S
Li1234 N1279 1.990 . S
Li1234 O1292 1.961 . S
Li1234 O1294 1.956 . S
Li1234 O1295 1.970 . S
Li1235 N1285 1.990 . S
Li1235 O1293 1.961 . S
Li1235 O1294 1.970 . S
Li1235 O1295 1.956 . S
C1236 C1238 1.348 . S
C1236 C1239 1.356 . S
C1236 O1292 1.325 . S
N1237 C1240 1.314 . S
N1237 C1241 1.279 . S
C1238 C1236 1.348 . S
C1238 C1240 1.353 . S
C1238 H1296 0.929 . S
C1239 C1236 1.356 . S
C1239 C1241 1.358 . S
C1239 H1297 0.930 . S
C1240 N1237 1.314 . S
C1240 C1238 1.353 . S
C1240 H1298 0.930 . S
C1241 N1237 1.279 . S
C1241 C1239 1.358 . S
C1241 H1299 0.930 . S
C1242 C1245 1.348 . S
C1242 C1246 1.356 . S
C1242 O1293 1.325 . S
C1243 N1244 1.279 . S
C1243 C1246 1.358 . S
C1243 H1300 0.930 . S
N1244 C1243 1.279 . S
N1244 C1247 1.314 . S
C1245 C1242 1.348 . S
C1245 C1247 1.353 . S
C1245 H1301 0.929 . S
C1246 C1242 1.356 . S
C1246 C1243 1.358 . S
C1246 H1302 0.930 . S
C1247 N1244 1.314 . S
C1247 C1245 1.353 . S
C1247 H1303 0.930 . S
C1248 N1249 1.314 . S
C1248 C1253 1.353 . S
C1248 H1254 0.930 . S
N1249 Li1232 1.990 . S
N1249 C1248 1.314 . S
N1249 C1251 1.279 . S
C1250 C1251 1.358 . S
C1250 C1252 1.356 . S
C1250 H1304 0.930 . S
C1251 N1249 1.279 . S
C1251 C1250 1.358 . S
C1251 H1255 0.930 . S
C1252 C1250 1.356 . S
C1252 C1253 1.348 . S
C1253 C1248 1.353 . S
C1253 C1252 1.348 . S
C1253 H1305 0.929 . S
H1254 C1248 0.930 . S
H1255 C1251 0.930 . S
C1256 N1257 1.314 . S
C1256 C1258 1.353 . S
C1256 H1262 0.930 . S
N1257 Li1233 1.990 . S
N1257 C1256 1.314 . S
N1257 C1260 1.279 . S
C1258 C1256 1.353 . S
C1258 C1261 1.348 . S
C1258 H1306 0.929 . S
C1259 C1260 1.358 . S
C1259 C1261 1.356 . S
C1259 H1307 0.930 . S
C1260 N1257 1.279 . S
C1260 C1259 1.358 . S
C1260 H1263 0.930 . S
C1261 C1258 1.348 . S
C1261 C1259 1.356 . S
H1262 C1256 0.930 . S
H1263 C1260 0.930 . S
C1264 C1266 1.348 . S
C1264 C1267 1.356 . S
C1264 O1294 1.325 . S
N1265 C1268 1.314 . S
N1265 C1269 1.279 . S
C1266 C1264 1.348 . S
C1266 C1268 1.353 . S
C1266 H1308 0.929 . S
C1267 C1264 1.356 . S
C1267 C1269 1.358 . S
C1267 H1309 0.930 . S
C1268 N1265 1.314 . S
C1268 C1266 1.353 . S
C1268 H1310 0.930 . S
C1269 N1265 1.279 . S
C1269 C1267 1.358 . S
C1269 H1311 0.930 . S
C1270 C1271 1.348 . S
C1270 C1272 1.356 . S
C1270 O1295 1.325 . S
C1271 C1270 1.348 . S
C1271 C1273 1.353 . S
C1271 H1312 0.929 . S
C1272 C1270 1.356 . S
C1272 C1274 1.358 . S
C1272 H1313 0.930 . S
C1273 C1271 1.353 . S
C1273 N1275 1.314 . S
C1273 H1314 0.930 . S
C1274 C1272 1.358 . S
C1274 N1275 1.279 . S
C1274 H1315 0.930 . S
N1275 C1273 1.314 . S
N1275 C1274 1.279 . S
C1276 C1278 1.353 . S
C1276 N1279 1.314 . S
C1276 H1282 0.930 . S
C1277 N1279 1.279 . S
C1277 C1280 1.358 . S
C1277 H1283 0.930 . S
C1278 C1276 1.353 . S
C1278 C1281 1.348 . S
C1278 H1316 0.929 . S
N1279 Li1234 1.990 . S
N1279 C1276 1.314 . S
N1279 C1277 1.279 . S
C1280 C1277 1.358 . S
C1280 C1281 1.356 . S
C1280 H1317 0.930 . S
C1281 C1278 1.348 . S
C1281 C1280 1.356 . S
H1282 C1276 0.930 . S
H1283 C1277 0.930 . S
C1284 N1285 1.314 . S
C1284 C1286 1.353 . S
C1284 H1290 0.930 . S
N1285 Li1235 1.990 . S
N1285 C1284 1.314 . S
N1285 C1288 1.279 . S
C1286 C1284 1.353 . S
C1286 C1289 1.348 . S
C1286 H1318 0.929 . S
C1287 C1288 1.358 . S
C1287 C1289 1.356 . S
C1287 H1319 0.930 . S
C1288 N1285 1.279 . S
C1288 C1287 1.358 . S
C1288 H1291 0.930 . S
C1289 C1286 1.348 . S
C1289 C1287 1.356 . S
H1290 C1284 0.930 . S
H1291 C1288 0.930 . S
O1292 Li1232 1.956 . S
O1292 Li1233 1.970 . S
O1292 Li1234 1.961 . S
O1292 C1236 1.325 . S
O1293 Li1232 1.970 . S
O1293 Li1233 1.956 . S
O1293 Li1235 1.961 . S
O1293 C1242 1.325 . S
O1294 Li1232 1.961 . S
O1294 Li1234 1.956 . S
O1294 Li1235 1.970 . S
O1294 C1264 1.325 . S
O1295 Li1233 1.961 . S
O1295 Li1234 1.970 . S
O1295 Li1235 1.956 . S
O1295 C1270 1.325 . S
H1296 C1238 0.929 . S
H1297 C1239 0.930 . S
H1298 C1240 0.930 . S
H1299 C1241 0.930 . S
H1300 C1243 0.930 . S
H1301 C1245 0.929 . S
H1302 C1246 0.930 . S
H1303 C1247 0.930 . S
H1304 C1250 0.930 . S
H1305 C1253 0.929 . S
H1306 C1258 0.929 . S
H1307 C1259 0.930 . S
H1308 C1266 0.929 . S
H1309 C1267 0.930 . S
H1310 C1268 0.930 . S
H1311 C1269 0.930 . S
H1312 C1271 0.929 . S
H1313 C1272 0.930 . S
H1314 C1273 0.930 . S
H1315 C1274 0.930 . S
H1316 C1278 0.929 . S
H1317 C1280 0.930 . S
H1318 C1286 0.929 . S
H1319 C1287 0.930 . S
Li1320 N1337 1.990 . S
Li1320 O1380 1.956 . S
Li1320 O1381 1.970 . S
Li1320 O1382 1.961 . S
Li1321 N1345 1.990 . S
Li1321 O1380 1.970 . S
Li1321 O1381 1.956 . S
Li1321 O1383 1.961 . S
Li1322 N1367 1.990 . S
Li1322 O1380 1.961 . S
Li1322 O1382 1.956 . S
Li1322 O1383 1.970 . S
Li1323 N1373 1.990 . S
Li1323 O1381 1.961 . S
Li1323 O1382 1.970 . S
Li1323 O1383 1.956 . S
C1324 C1326 1.348 . S
C1324 C1327 1.356 . S
C1324 O1380 1.325 . S
N1325 C1328 1.314 . S
N1325 C1329 1.279 . S
C1326 C1324 1.348 . S
C1326 C1328 1.353 . S
C1326 H1384 0.929 . S
C1327 C1324 1.356 . S
C1327 C1329 1.358 . S
C1327 H1385 0.930 . S
C1328 N1325 1.314 . S
C1328 C1326 1.353 . S
C1328 H1386 0.930 . S
C1329 N1325 1.279 . S
C1329 C1327 1.358 . S
C1329 H1387 0.930 . S
C1330 C1333 1.348 . S
C1330 C1334 1.356 . S
C1330 O1381 1.325 . S
C1331 N1332 1.279 . S
C1331 C1334 1.358 . S
C1331 H1388 0.930 . S
N1332 C1331 1.279 . S
N1332 C1335 1.314 . S
C1333 C1330 1.348 . S
C1333 C1335 1.353 . S
C1333 H1389 0.929 . S
C1334 C1330 1.356 . S
C1334 C1331 1.358 . S
C1334 H1390 0.930 . S
C1335 N1332 1.314 . S
C1335 C1333 1.353 . S
C1335 H1391 0.930 . S
C1336 N1337 1.314 . S
C1336 C1341 1.353 . S
C1336 H1342 0.930 . S
N1337 Li1320 1.990 . S
N1337 C1336 1.314 . S
N1337 C1339 1.279 . S
C1338 C1339 1.358 . S
C1338 C1340 1.356 . S
C1338 H1392 0.930 . S
C1339 N1337 1.279 . S
C1339 C1338 1.358 . S
C1339 H1343 0.930 . S
C1340 C1338 1.356 . S
C1340 C1341 1.348 . S
C1341 C1336 1.353 . S
C1341 C1340 1.348 . S
C1341 H1393 0.929 . S
H1342 C1336 0.930 . S
H1343 C1339 0.930 . S
C1344 N1345 1.314 . S
C1344 C1346 1.353 . S
C1344 H1350 0.930 . S
N1345 Li1321 1.990 . S
N1345 C1344 1.314 . S
N1345 C1348 1.279 . S
C1346 C1344 1.353 . S
C1346 C1349 1.348 . S
C1346 H1394 0.929 . S
C1347 C1348 1.358 . S
C1347 C1349 1.356 . S
C1347 H1395 0.930 . S
C1348 N1345 1.279 . S
C1348 C1347 1.358 . S
C1348 H1351 0.930 . S
C1349 C1346 1.348 . S
C1349 C1347 1.356 . S
H1350 C1344 0.930 . S
H1351 C1348 0.930 . S
C1352 C1354 1.348 . S
C1352 C1355 1.356 . S
C1352 O1382 1.325 . S
N1353 C1356 1.314 . S
N1353 C1357 1.279 . S
C1354 C1352 1.348 . S
C1354 C1356 1.353 . S
C1354 H1396 0.929 . S
C1355 C1352 1.356 . S
C1355 C1357 1.358 . S
C1355 H1397 0.930 . S
C1356 N1353 1.314 . S
C1356 C1354 1.353 . S
C1356 H1398 0.930 . S
C1357 N1353 1.279 . S
C1357 C1355 1.358 . S
C1357 H1399 0.930 . S
C1358 C1359 1.348 . S
C1358 C1360 1.356 . S
C1358 O1383 1.325 . S
C1359 C1358 1.348 . S
C1359 C1361 1.353 . S
C1359 H1400 0.929 . S
C1360 C1358 1.356 . S
C1360 C1362 1.358 . S
C1360 H1401 0.930 . S
C1361 C1359 1.353 . S
C1361 N1363 1.314 . S
C1361 H1402 0.930 . S
C1362 C1360 1.358 . S
C1362 N1363 1.279 . S
C1362 H1403 0.930 . S
N1363 C1361 1.314 . S
N1363 C1362 1.279 . S
C1364 C1366 1.353 . S
C1364 N1367 1.314 . S
C1364 H1370 0.930 . S
C1365 N1367 1.279 . S
C1365 C1368 1.358 . S
C1365 H1371 0.930 . S
C1366 C1364 1.353 . S
C1366 C1369 1.348 . S
C1366 H1404 0.929 . S
N1367 Li1322 1.990 . S
N1367 C1364 1.314 . S
N1367 C1365 1.279 . S
C1368 C1365 1.358 . S
C1368 C1369 1.356 . S
C1368 H1405 0.930 . S
C1369 C1366 1.348 . S
C1369 C1368 1.356 . S
H1370 C1364 0.930 . S
H1371 C1365 0.930 . S
C1372 N1373 1.314 . S
C1372 C1374 1.353 . S
C1372 H1378 0.930 . S
N1373 Li1323 1.990 . S
N1373 C1372 1.314 . S
N1373 C1376 1.279 . S
C1374 C1372 1.353 . S
C1374 C1377 1.348 . S
C1374 H1406 0.929 . S
C1375 C1376 1.358 . S
C1375 C1377 1.356 . S
C1375 H1407 0.930 . S
C1376 N1373 1.279 . S
C1376 C1375 1.358 . S
C1376 H1379 0.930 . S
C1377 C1374 1.348 . S
C1377 C1375 1.356 . S
H1378 C1372 0.930 . S
H1379 C1376 0.930 . S
O1380 Li1320 1.956 . S
O1380 Li1321 1.970 . S
O1380 Li1322 1.961 . S
O1380 C1324 1.325 . S
O1381 Li1320 1.970 . S
O1381 Li1321 1.956 . S
O1381 Li1323 1.961 . S
O1381 C1330 1.325 . S
O1382 Li1320 1.961 . S
O1382 Li1322 1.956 . S
O1382 Li1323 1.970 . S
O1382 C1352 1.325 . S
O1383 Li1321 1.961 . S
O1383 Li1322 1.970 . S
O1383 Li1323 1.956 . S
O1383 C1358 1.325 . S
H1384 C1326 0.929 . S
H1385 C1327 0.930 . S
H1386 C1328 0.930 . S
H1387 C1329 0.930 . S
H1388 C1331 0.930 . S
H1389 C1333 0.929 . S
H1390 C1334 0.930 . S
H1391 C1335 0.930 . S
H1392 C1338 0.930 . S
H1393 C1341 0.929 . S
H1394 C1346 0.929 . S
H1395 C1347 0.930 . S
H1396 C1354 0.929 . S
H1397 C1355 0.930 . S
H1398 C1356 0.930 . S
H1399 C1357 0.930 . S
H1400 C1359 0.929 . S
H1401 C1360 0.930 . S
H1402 C1361 0.930 . S
H1403 C1362 0.930 . S
H1404 C1366 0.929 . S
H1405 C1368 0.930 . S
H1406 C1374 0.929 . S
H1407 C1375 0.930 . S
Li1408 N1425 1.990 . S
Li1408 O1468 1.956 . S
Li1408 O1469 1.970 . S
Li1408 O1470 1.961 . S
Li1409 N1433 1.990 . S
Li1409 O1468 1.970 . S
Li1409 O1469 1.956 . S
Li1409 O1471 1.961 . S
Li1410 N1455 1.990 . S
Li1410 O1468 1.961 . S
Li1410 O1470 1.956 . S
Li1410 O1471 1.970 . S
Li1411 N1461 1.990 . S
Li1411 O1469 1.961 . S
Li1411 O1470 1.970 . S
Li1411 O1471 1.956 . S
C1412 C1414 1.348 . S
C1412 C1415 1.356 . S
C1412 O1468 1.325 . S
N1413 C1416 1.314 . S
N1413 C1417 1.279 . S
C1414 C1412 1.348 . S
C1414 C1416 1.353 . S
C1414 H1472 0.929 . S
C1415 C1412 1.356 . S
C1415 C1417 1.358 . S
C1415 H1473 0.930 . S
C1416 N1413 1.314 . S
C1416 C1414 1.353 . S
C1416 H1474 0.930 . S
C1417 N1413 1.279 . S
C1417 C1415 1.358 . S
C1417 H1475 0.930 . S
C1418 C1421 1.348 . S
C1418 C1422 1.356 . S
C1418 O1469 1.325 . S
C1419 N1420 1.279 . S
C1419 C1422 1.358 . S
C1419 H1476 0.930 . S
N1420 C1419 1.279 . S
N1420 C1423 1.314 . S
C1421 C1418 1.348 . S
C1421 C1423 1.353 . S
C1421 H1477 0.929 . S
C1422 C1418 1.356 . S
C1422 C1419 1.358 . S
C1422 H1478 0.930 . S
C1423 N1420 1.314 . S
C1423 C1421 1.353 . S
C1423 H1479 0.930 . S
C1424 N1425 1.314 . S
C1424 C1429 1.353 . S
C1424 H1430 0.930 . S
N1425 Li1408 1.990 . S
N1425 C1424 1.314 . S
N1425 C1427 1.279 . S
C1426 C1427 1.358 . S
C1426 C1428 1.356 . S
C1426 H1480 0.930 . S
C1427 N1425 1.279 . S
C1427 C1426 1.358 . S
C1427 H1431 0.930 . S
C1428 C1426 1.356 . S
C1428 C1429 1.348 . S
C1429 C1424 1.353 . S
C1429 C1428 1.348 . S
C1429 H1481 0.929 . S
H1430 C1424 0.930 . S
H1431 C1427 0.930 . S
C1432 N1433 1.314 . S
C1432 C1434 1.353 . S
C1432 H1438 0.930 . S
N1433 Li1409 1.990 . S
N1433 C1432 1.314 . S
N1433 C1436 1.279 . S
C1434 C1432 1.353 . S
C1434 C1437 1.348 . S
C1434 H1482 0.929 . S
C1435 C1436 1.358 . S
C1435 C1437 1.356 . S
C1435 H1483 0.930 . S
C1436 N1433 1.279 . S
C1436 C1435 1.358 . S
C1436 H1439 0.930 . S
C1437 C1434 1.348 . S
C1437 C1435 1.356 . S
H1438 C1432 0.930 . S
H1439 C1436 0.930 . S
C1440 C1442 1.348 . S
C1440 C1443 1.356 . S
C1440 O1470 1.325 . S
N1441 C1444 1.314 . S
N1441 C1445 1.279 . S
C1442 C1440 1.348 . S
C1442 C1444 1.353 . S
C1442 H1484 0.929 . S
C1443 C1440 1.356 . S
C1443 C1445 1.358 . S
C1443 H1485 0.930 . S
C1444 N1441 1.314 . S
C1444 C1442 1.353 . S
C1444 H1486 0.930 . S
C1445 N1441 1.279 . S
C1445 C1443 1.358 . S
C1445 H1487 0.930 . S
C1446 C1447 1.348 . S
C1446 C1448 1.356 . S
C1446 O1471 1.325 . S
C1447 C1446 1.348 . S
C1447 C1449 1.353 . S
C1447 H1488 0.929 . S
C1448 C1446 1.356 . S
C1448 C1450 1.358 . S
C1448 H1489 0.930 . S
C1449 C1447 1.353 . S
C1449 N1451 1.314 . S
C1449 H1490 0.930 . S
C1450 C1448 1.358 . S
C1450 N1451 1.279 . S
C1450 H1491 0.930 . S
N1451 C1449 1.314 . S
N1451 C1450 1.279 . S
C1452 C1454 1.353 . S
C1452 N1455 1.314 . S
C1452 H1458 0.930 . S
C1453 N1455 1.279 . S
C1453 C1456 1.358 . S
C1453 H1459 0.930 . S
C1454 C1452 1.353 . S
C1454 C1457 1.348 . S
C1454 H1492 0.929 . S
N1455 Li1410 1.990 . S
N1455 C1452 1.314 . S
N1455 C1453 1.279 . S
C1456 C1453 1.358 . S
C1456 C1457 1.356 . S
C1456 H1493 0.930 . S
C1457 C1454 1.348 . S
C1457 C1456 1.356 . S
H1458 C1452 0.930 . S
H1459 C1453 0.930 . S
C1460 N1461 1.314 . S
C1460 C1462 1.353 . S
C1460 H1466 0.930 . S
N1461 Li1411 1.990 . S
N1461 C1460 1.314 . S
N1461 C1464 1.279 . S
C1462 C1460 1.353 . S
C1462 C1465 1.348 . S
C1462 H1494 0.929 . S
C1463 C1464 1.358 . S
C1463 C1465 1.356 . S
C1463 H1495 0.930 . S
C1464 N1461 1.279 . S
C1464 C1463 1.358 . S
C1464 H1467 0.930 . S
C1465 C1462 1.348 . S
C1465 C1463 1.356 . S
H1466 C1460 0.930 . S
H1467 C1464 0.930 . S
O1468 Li1408 1.956 . S
O1468 Li1409 1.970 . S
O1468 Li1410 1.961 . S
O1468 C1412 1.325 . S
O1469 Li1408 1.970 . S
O1469 Li1409 1.956 . S
O1469 Li1411 1.961 . S
O1469 C1418 1.325 . S
O1470 Li1408 1.961 . S
O1470 Li1410 1.956 . S
O1470 Li1411 1.970 . S
O1470 C1440 1.325 . S
O1471 Li1409 1.961 . S
O1471 Li1410 1.970 . S
O1471 Li1411 1.956 . S
O1471 C1446 1.325 . S
H1472 C1414 0.929 . S
H1473 C1415 0.930 . S
H1474 C1416 0.930 . S
H1475 C1417 0.930 . S
H1476 C1419 0.930 . S
H1477 C1421 0.929 . S
H1478 C1422 0.930 . S
H1479 C1423 0.930 . S
H1480 C1426 0.930 . S
H1481 C1429 0.929 . S
H1482 C1434 0.929 . S
H1483 C1435 0.930 . S
H1484 C1442 0.929 . S
H1485 C1443 0.930 . S
H1486 C1444 0.930 . S
H1487 C1445 0.930 . S
H1488 C1447 0.929 . S
H1489 C1448 0.930 . S
H1490 C1449 0.930 . S
H1491 C1450 0.930 . S
H1492 C1454 0.929 . S
H1493 C1456 0.930 . S
H1494 C1462 0.929 . S
H1495 C1463 0.930 . S
Li1496 N1513 1.990 . S
Li1496 O1556 1.956 . S
Li1496 O1557 1.970 . S
Li1496 O1558 1.961 . S
Li1497 N1521 1.990 . S
Li1497 O1556 1.970 . S
Li1497 O1557 1.956 . S
Li1497 O1559 1.961 . S
Li1498 N1543 1.990 . S
Li1498 O1556 1.961 . S
Li1498 O1558 1.956 . S
Li1498 O1559 1.970 . S
Li1499 N1549 1.990 . S
Li1499 O1557 1.961 . S
Li1499 O1558 1.970 . S
Li1499 O1559 1.956 . S
C1500 C1502 1.348 . S
C1500 C1503 1.356 . S
C1500 O1556 1.325 . S
N1501 C1504 1.314 . S
N1501 C1505 1.279 . S
C1502 C1500 1.348 . S
C1502 C1504 1.353 . S
C1502 H1560 0.929 . S
C1503 C1500 1.356 . S
C1503 C1505 1.358 . S
C1503 H1561 0.930 . S
C1504 N1501 1.314 . S
C1504 C1502 1.353 . S
C1504 H1562 0.930 . S
C1505 N1501 1.279 . S
C1505 C1503 1.358 . S
C1505 H1563 0.930 . S
C1506 C1509 1.348 . S
C1506 C1510 1.356 . S
C1506 O1557 1.325 . S
C1507 N1508 1.279 . S
C1507 C1510 1.358 . S
C1507 H1564 0.930 . S
N1508 C1507 1.279 . S
N1508 C1511 1.314 . S
C1509 C1506 1.348 . S
C1509 C1511 1.353 . S
C1509 H1565 0.929 . S
C1510 C1506 1.356 . S
C1510 C1507 1.358 . S
C1510 H1566 0.930 . S
C1511 N1508 1.314 . S
C1511 C1509 1.353 . S
C1511 H1567 0.930 . S
C1512 N1513 1.314 . S
C1512 C1517 1.353 . S
C1512 H1518 0.930 . S
N1513 Li1496 1.990 . S
N1513 C1512 1.314 . S
N1513 C1515 1.279 . S
C1514 C1515 1.358 . S
C1514 C1516 1.356 . S
C1514 H1568 0.930 . S
C1515 N1513 1.279 . S
C1515 C1514 1.358 . S
C1515 H1519 0.930 . S
C1516 C1514 1.356 . S
C1516 C1517 1.348 . S
C1517 C1512 1.353 . S
C1517 C1516 1.348 . S
C1517 H1569 0.929 . S
H1518 C1512 0.930 . S
H1519 C1515 0.930 . S
C1520 N1521 1.314 . S
C1520 C1522 1.353 . S
C1520 H1526 0.930 . S
N1521 Li1497 1.990 . S
N1521 C1520 1.314 . S
N1521 C1524 1.279 . S
C1522 C1520 1.353 . S
C1522 C1525 1.348 . S
C1522 H1570 0.929 . S
C1523 C1524 1.358 . S
C1523 C1525 1.356 . S
C1523 H1571 0.930 . S
C1524 N1521 1.279 . S
C1524 C1523 1.358 . S
C1524 H1527 0.930 . S
C1525 C1522 1.348 . S
C1525 C1523 1.356 . S
H1526 C1520 0.930 . S
H1527 C1524 0.930 . S
C1528 C1530 1.348 . S
C1528 C1531 1.356 . S
C1528 O1558 1.325 . S
N1529 C1532 1.314 . S
N1529 C1533 1.279 . S
C1530 C1528 1.348 . S
C1530 C1532 1.353 . S
C1530 H1572 0.929 . S
C1531 C1528 1.356 . S
C1531 C1533 1.358 . S
C1531 H1573 0.930 . S
C1532 N1529 1.314 . S
C1532 C1530 1.353 . S
C1532 H1574 0.930 . S
C1533 N1529 1.279 . S
C1533 C1531 1.358 . S
C1533 H1575 0.930 . S
C1534 C1535 1.348 . S
C1534 C1536 1.356 . S
C1534 O1559 1.325 . S
C1535 C1534 1.348 . S
C1535 C1537 1.353 . S
C1535 H1576 0.929 . S
C1536 C1534 1.356 . S
C1536 C1538 1.358 . S
C1536 H1577 0.930 . S
C1537 C1535 1.353 . S
C1537 N1539 1.314 . S
C1537 H1578 0.930 . S
C1538 C1536 1.358 . S
C1538 N1539 1.279 . S
C1538 H1579 0.930 . S
N1539 C1537 1.314 . S
N1539 C1538 1.279 . S
C1540 C1542 1.353 . S
C1540 N1543 1.314 . S
C1540 H1546 0.930 . S
C1541 N1543 1.279 . S
C1541 C1544 1.358 . S
C1541 H1547 0.930 . S
C1542 C1540 1.353 . S
C1542 C1545 1.348 . S
C1542 H1580 0.929 . S
N1543 Li1498 1.990 . S
N1543 C1540 1.314 . S
N1543 C1541 1.279 . S
C1544 C1541 1.358 . S
C1544 C1545 1.356 . S
C1544 H1581 0.930 . S
C1545 C1542 1.348 . S
C1545 C1544 1.356 . S
H1546 C1540 0.930 . S
H1547 C1541 0.930 . S
C1548 N1549 1.314 . S
C1548 C1550 1.353 . S
C1548 H1554 0.930 . S
N1549 Li1499 1.990 . S
N1549 C1548 1.314 . S
N1549 C1552 1.279 . S
C1550 C1548 1.353 . S
C1550 C1553 1.348 . S
C1550 H1582 0.929 . S
C1551 C1552 1.358 . S
C1551 C1553 1.356 . S
C1551 H1583 0.930 . S
C1552 N1549 1.279 . S
C1552 C1551 1.358 . S
C1552 H1555 0.930 . S
C1553 C1550 1.348 . S
C1553 C1551 1.356 . S
H1554 C1548 0.930 . S
H1555 C1552 0.930 . S
O1556 Li1496 1.956 . S
O1556 Li1497 1.970 . S
O1556 Li1498 1.961 . S
O1556 C1500 1.325 . S
O1557 Li1496 1.970 . S
O1557 Li1497 1.956 . S
O1557 Li1499 1.961 . S
O1557 C1506 1.325 . S
O1558 Li1496 1.961 . S
O1558 Li1498 1.956 . S
O1558 Li1499 1.970 . S
O1558 C1528 1.325 . S
O1559 Li1497 1.961 . S
O1559 Li1498 1.970 . S
O1559 Li1499 1.956 . S
O1559 C1534 1.325 . S
H1560 C1502 0.929 . S
H1561 C1503 0.930 . S
H1562 C1504 0.930 . S
H1563 C1505 0.930 . S
H1564 C1507 0.930 . S
H1565 C1509 0.929 . S
H1566 C1510 0.930 . S
H1567 C1511 0.930 . S
H1568 C1514 0.930 . S
H1569 C1517 0.929 . S
H1570 C1522 0.929 . S
H1571 C1523 0.930 . S
H1572 C1530 0.929 . S
H1573 C1531 0.930 . S
H1574 C1532 0.930 . S
H1575 C1533 0.930 . S
H1576 C1535 0.929 . S
H1577 C1536 0.930 . S
H1578 C1537 0.930 . S
H1579 C1538 0.930 . S
H1580 C1542 0.929 . S
H1581 C1544 0.930 . S
H1582 C1550 0.929 . S
H1583 C1551 0.930 . S
Li1584 N1601 1.990 . S
Li1584 O1644 1.956 . S
Li1584 O1645 1.970 . S
Li1584 O1646 1.961 . S
Li1585 N1609 1.990 . S
Li1585 O1644 1.970 . S
Li1585 O1645 1.956 . S
Li1585 O1647 1.961 . S
Li1586 N1631 1.990 . S
Li1586 O1644 1.961 . S
Li1586 O1646 1.956 . S
Li1586 O1647 1.970 . S
Li1587 N1637 1.990 . S
Li1587 O1645 1.961 . S
Li1587 O1646 1.970 . S
Li1587 O1647 1.956 . S
C1588 C1590 1.348 . S
C1588 C1591 1.356 . S
C1588 O1644 1.325 . S
N1589 C1592 1.314 . S
N1589 C1593 1.279 . S
C1590 C1588 1.348 . S
C1590 C1592 1.353 . S
C1590 H1648 0.929 . S
C1591 C1588 1.356 . S
C1591 C1593 1.358 . S
C1591 H1649 0.930 . S
C1592 N1589 1.314 . S
C1592 C1590 1.353 . S
C1592 H1650 0.930 . S
C1593 N1589 1.279 . S
C1593 C1591 1.358 . S
C1593 H1651 0.930 . S
C1594 C1597 1.348 . S
C1594 C1598 1.356 . S
C1594 O1645 1.325 . S
C1595 N1596 1.279 . S
C1595 C1598 1.358 . S
C1595 H1652 0.930 . S
N1596 C1595 1.279 . S
N1596 C1599 1.314 . S
C1597 C1594 1.348 . S
C1597 C1599 1.353 . S
C1597 H1653 0.929 . S
C1598 C1594 1.356 . S
C1598 C1595 1.358 . S
C1598 H1654 0.930 . S
C1599 N1596 1.314 . S
C1599 C1597 1.353 . S
C1599 H1655 0.930 . S
C1600 N1601 1.314 . S
C1600 C1605 1.353 . S
C1600 H1606 0.930 . S
N1601 Li1584 1.990 . S
N1601 C1600 1.314 . S
N1601 C1603 1.279 . S
C1602 C1603 1.358 . S
C1602 C1604 1.356 . S
C1602 H1656 0.930 . S
C1603 N1601 1.279 . S
C1603 C1602 1.358 . S
C1603 H1607 0.930 . S
C1604 C1602 1.356 . S
C1604 C1605 1.348 . S
C1605 C1600 1.353 . S
C1605 C1604 1.348 . S
C1605 H1657 0.929 . S
H1606 C1600 0.930 . S
H1607 C1603 0.930 . S
C1608 N1609 1.314 . S
C1608 C1610 1.353 . S
C1608 H1614 0.930 . S
N1609 Li1585 1.990 . S
N1609 C1608 1.314 . S
N1609 C1612 1.279 . S
C1610 C1608 1.353 . S
C1610 C1613 1.348 . S
C1610 H1658 0.929 . S
C1611 C1612 1.358 . S
C1611 C1613 1.356 . S
C1611 H1659 0.930 . S
C1612 N1609 1.279 . S
C1612 C1611 1.358 . S
C1612 H1615 0.930 . S
C1613 C1610 1.348 . S
C1613 C1611 1.356 . S
H1614 C1608 0.930 . S
H1615 C1612 0.930 . S
C1616 C1618 1.348 . S
C1616 C1619 1.356 . S
C1616 O1646 1.325 . S
N1617 C1620 1.314 . S
N1617 C1621 1.279 . S
C1618 C1616 1.348 . S
C1618 C1620 1.353 . S
C1618 H1660 0.929 . S
C1619 C1616 1.356 . S
C1619 C1621 1.358 . S
C1619 H1661 0.930 . S
C1620 N1617 1.314 . S
C1620 C1618 1.353 . S
C1620 H1662 0.930 . S
C1621 N1617 1.279 . S
C1621 C1619 1.358 . S
C1621 H1663 0.930 . S
C1622 C1623 1.348 . S
C1622 C1624 1.356 . S
C1622 O1647 1.325 . S
C1623 C1622 1.348 . S
C1623 C1625 1.353 . S
C1623 H1664 0.929 . S
C1624 C1622 1.356 . S
C1624 C1626 1.358 . S
C1624 H1665 0.930 . S
C1625 C1623 1.353 . S
C1625 N1627 1.314 . S
C1625 H1666 0.930 . S
C1626 C1624 1.358 . S
C1626 N1627 1.279 . S
C1626 H1667 0.930 . S
N1627 C1625 1.314 . S
N1627 C1626 1.279 . S
C1628 C1630 1.353 . S
C1628 N1631 1.314 . S
C1628 H1634 0.930 . S
C1629 N1631 1.279 . S
C1629 C1632 1.358 . S
C1629 H1635 0.930 . S
C1630 C1628 1.353 . S
C1630 C1633 1.348 . S
C1630 H1668 0.929 . S
N1631 Li1586 1.990 . S
N1631 C1628 1.314 . S
N1631 C1629 1.279 . S
C1632 C1629 1.358 . S
C1632 C1633 1.356 . S
C1632 H1669 0.930 . S
C1633 C1630 1.348 . S
C1633 C1632 1.356 . S
H1634 C1628 0.930 . S
H1635 C1629 0.930 . S
C1636 N1637 1.314 . S
C1636 C1638 1.353 . S
C1636 H1642 0.930 . S
N1637 Li1587 1.990 . S
N1637 C1636 1.314 . S
N1637 C1640 1.279 . S
C1638 C1636 1.353 . S
C1638 C1641 1.348 . S
C1638 H1670 0.929 . S
C1639 C1640 1.358 . S
C1639 C1641 1.356 . S
C1639 H1671 0.930 . S
C1640 N1637 1.279 . S
C1640 C1639 1.358 . S
C1640 H1643 0.930 . S
C1641 C1638 1.348 . S
C1641 C1639 1.356 . S
H1642 C1636 0.930 . S
H1643 C1640 0.930 . S
O1644 Li1584 1.956 . S
O1644 Li1585 1.970 . S
O1644 Li1586 1.961 . S
O1644 C1588 1.325 . S
O1645 Li1584 1.970 . S
O1645 Li1585 1.956 . S
O1645 Li1587 1.961 . S
O1645 C1594 1.325 . S
O1646 Li1584 1.961 . S
O1646 Li1586 1.956 . S
O1646 Li1587 1.970 . S
O1646 C1616 1.325 . S
O1647 Li1585 1.961 . S
O1647 Li1586 1.970 . S
O1647 Li1587 1.956 . S
O1647 C1622 1.325 . S
H1648 C1590 0.929 . S
H1649 C1591 0.930 . S
H1650 C1592 0.930 . S
H1651 C1593 0.930 . S
H1652 C1595 0.930 . S
H1653 C1597 0.929 . S
H1654 C1598 0.930 . S
H1655 C1599 0.930 . S
H1656 C1602 0.930 . S
H1657 C1605 0.929 . S
H1658 C1610 0.929 . S
H1659 C1611 0.930 . S
H1660 C1618 0.929 . S
H1661 C1619 0.930 . S
H1662 C1620 0.930 . S
H1663 C1621 0.930 . S
H1664 C1623 0.929 . S
H1665 C1624 0.930 . S
H1666 C1625 0.930 . S
H1667 C1626 0.930 . S
H1668 C1630 0.929 . S
H1669 C1632 0.930 . S
H1670 C1638 0.929 . S
H1671 C1639 0.930 . S
Li1672 N1689 1.990 . S
Li1672 O1732 1.956 . S
Li1672 O1733 1.970 . S
Li1672 O1734 1.961 . S
Li1673 N1697 1.990 . S
Li1673 O1732 1.970 . S
Li1673 O1733 1.956 . S
Li1673 O1735 1.961 . S
Li1674 N1719 1.990 . S
Li1674 O1732 1.961 . S
Li1674 O1734 1.956 . S
Li1674 O1735 1.970 . S
Li1675 N1725 1.990 . S
Li1675 O1733 1.961 . S
Li1675 O1734 1.970 . S
Li1675 O1735 1.956 . S
C1676 C1678 1.348 . S
C1676 C1679 1.356 . S
C1676 O1732 1.325 . S
N1677 C1680 1.314 . S
N1677 C1681 1.279 . S
C1678 C1676 1.348 . S
C1678 C1680 1.353 . S
C1678 H1736 0.929 . S
C1679 C1676 1.356 . S
C1679 C1681 1.358 . S
C1679 H1737 0.930 . S
C1680 N1677 1.314 . S
C1680 C1678 1.353 . S
C1680 H1738 0.930 . S
C1681 N1677 1.279 . S
C1681 C1679 1.358 . S
C1681 H1739 0.930 . S
C1682 C1685 1.348 . S
C1682 C1686 1.356 . S
C1682 O1733 1.325 . S
C1683 N1684 1.279 . S
C1683 C1686 1.358 . S
C1683 H1740 0.930 . S
N1684 C1683 1.279 . S
N1684 C1687 1.314 . S
C1685 C1682 1.348 . S
C1685 C1687 1.353 . S
C1685 H1741 0.929 . S
C1686 C1682 1.356 . S
C1686 C1683 1.358 . S
C1686 H1742 0.930 . S
C1687 N1684 1.314 . S
C1687 C1685 1.353 . S
C1687 H1743 0.930 . S
C1688 N1689 1.314 . S
C1688 C1693 1.353 . S
C1688 H1694 0.930 . S
N1689 Li1672 1.990 . S
N1689 C1688 1.314 . S
N1689 C1691 1.279 . S
C1690 C1691 1.358 . S
C1690 C1692 1.356 . S
C1690 H1744 0.930 . S
C1691 N1689 1.279 . S
C1691 C1690 1.358 . S
C1691 H1695 0.930 . S
C1692 C1690 1.356 . S
C1692 C1693 1.348 . S
C1693 C1688 1.353 . S
C1693 C1692 1.348 . S
C1693 H1745 0.929 . S
H1694 C1688 0.930 . S
H1695 C1691 0.930 . S
C1696 N1697 1.314 . S
C1696 C1698 1.353 . S
C1696 H1702 0.930 . S
N1697 Li1673 1.990 . S
N1697 C1696 1.314 . S
N1697 C1700 1.279 . S
C1698 C1696 1.353 . S
C1698 C1701 1.348 . S
C1698 H1746 0.929 . S
C1699 C1700 1.358 . S
C1699 C1701 1.356 . S
C1699 H1747 0.930 . S
C1700 N1697 1.279 . S
C1700 C1699 1.358 . S
C1700 H1703 0.930 . S
C1701 C1698 1.348 . S
C1701 C1699 1.356 . S
H1702 C1696 0.930 . S
H1703 C1700 0.930 . S
C1704 C1706 1.348 . S
C1704 C1707 1.356 . S
C1704 O1734 1.325 . S
N1705 C1708 1.314 . S
N1705 C1709 1.279 . S
C1706 C1704 1.348 . S
C1706 C1708 1.353 . S
C1706 H1748 0.929 . S
C1707 C1704 1.356 . S
C1707 C1709 1.358 . S
C1707 H1749 0.930 . S
C1708 N1705 1.314 . S
C1708 C1706 1.353 . S
C1708 H1750 0.930 . S
C1709 N1705 1.279 . S
C1709 C1707 1.358 . S
C1709 H1751 0.930 . S
C1710 C1711 1.348 . S
C1710 C1712 1.356 . S
C1710 O1735 1.325 . S
C1711 C1710 1.348 . S
C1711 C1713 1.353 . S
C1711 H1752 0.929 . S
C1712 C1710 1.356 . S
C1712 C1714 1.358 . S
C1712 H1753 0.930 . S
C1713 C1711 1.353 . S
C1713 N1715 1.314 . S
C1713 H1754 0.930 . S
C1714 C1712 1.358 . S
C1714 N1715 1.279 . S
C1714 H1755 0.930 . S
N1715 C1713 1.314 . S
N1715 C1714 1.279 . S
C1716 C1718 1.353 . S
C1716 N1719 1.314 . S
C1716 H1722 0.930 . S
C1717 N1719 1.279 . S
C1717 C1720 1.358 . S
C1717 H1723 0.930 . S
C1718 C1716 1.353 . S
C1718 C1721 1.348 . S
C1718 H1756 0.929 . S
N1719 Li1674 1.990 . S
N1719 C1716 1.314 . S
N1719 C1717 1.279 . S
C1720 C1717 1.358 . S
C1720 C1721 1.356 . S
C1720 H1757 0.930 . S
C1721 C1718 1.348 . S
C1721 C1720 1.356 . S
H1722 C1716 0.930 . S
H1723 C1717 0.930 . S
C1724 N1725 1.314 . S
C1724 C1726 1.353 . S
C1724 H1730 0.930 . S
N1725 Li1675 1.990 . S
N1725 C1724 1.314 . S
N1725 C1728 1.279 . S
C1726 C1724 1.353 . S
C1726 C1729 1.348 . S
C1726 H1758 0.929 . S
C1727 C1728 1.358 . S
C1727 C1729 1.356 . S
C1727 H1759 0.930 . S
C1728 N1725 1.279 . S
C1728 C1727 1.358 . S
C1728 H1731 0.930 . S
C1729 C1726 1.348 . S
C1729 C1727 1.356 . S
H1730 C1724 0.930 . S
H1731 C1728 0.930 . S
O1732 Li1672 1.956 . S
O1732 Li1673 1.970 . S
O1732 Li1674 1.961 . S
O1732 C1676 1.325 . S
O1733 Li1672 1.970 . S
O1733 Li1673 1.956 . S
O1733 Li1675 1.961 . S
O1733 C1682 1.325 . S
O1734 Li1672 1.961 . S
O1734 Li1674 1.956 . S
O1734 Li1675 1.970 . S
O1734 C1704 1.325 . S
O1735 Li1673 1.961 . S
O1735 Li1674 1.970 . S
O1735 Li1675 1.956 . S
O1735 C1710 1.325 . S
H1736 C1678 0.929 . S
H1737 C1679 0.930 . S
H1738 C1680 0.930 . S
H1739 C1681 0.930 . S
H1740 C1683 0.930 . S
H1741 C1685 0.929 . S
H1742 C1686 0.930 . S
H1743 C1687 0.930 . S
H1744 C1690 0.930 . S
H1745 C1693 0.929 . S
H1746 C1698 0.929 . S
H1747 C1699 0.930 . S
H1748 C1706 0.929 . S
H1749 C1707 0.930 . S
H1750 C1708 0.930 . S
H1751 C1709 0.930 . S
H1752 C1711 0.929 . S
H1753 C1712 0.930 . S
H1754 C1713 0.930 . S
H1755 C1714 0.930 . S
H1756 C1718 0.929 . S
H1757 C1720 0.930 . S
H1758 C1726 0.929 . S
H1759 C1727 0.930 . S
Li1760 N1777 1.990 . S
Li1760 O1820 1.956 . S
Li1760 O1821 1.970 . S
Li1760 O1822 1.961 . S
Li1761 N1785 1.990 . S
Li1761 O1820 1.970 . S
Li1761 O1821 1.956 . S
Li1761 O1823 1.961 . S
Li1762 N1807 1.990 . S
Li1762 O1820 1.961 . S
Li1762 O1822 1.956 . S
Li1762 O1823 1.970 . S
Li1763 N1813 1.990 . S
Li1763 O1821 1.961 . S
Li1763 O1822 1.970 . S
Li1763 O1823 1.956 . S
C1764 C1766 1.348 . S
C1764 C1767 1.356 . S
C1764 O1820 1.325 . S
N1765 C1768 1.314 . S
N1765 C1769 1.279 . S
C1766 C1764 1.348 . S
C1766 C1768 1.353 . S
C1766 H1824 0.929 . S
C1767 C1764 1.356 . S
C1767 C1769 1.358 . S
C1767 H1825 0.930 . S
C1768 N1765 1.314 . S
C1768 C1766 1.353 . S
C1768 H1826 0.930 . S
C1769 N1765 1.279 . S
C1769 C1767 1.358 . S
C1769 H1827 0.930 . S
C1770 C1773 1.348 . S
C1770 C1774 1.356 . S
C1770 O1821 1.325 . S
C1771 N1772 1.279 . S
C1771 C1774 1.358 . S
C1771 H1828 0.930 . S
N1772 C1771 1.279 . S
N1772 C1775 1.314 . S
C1773 C1770 1.348 . S
C1773 C1775 1.353 . S
C1773 H1829 0.929 . S
C1774 C1770 1.356 . S
C1774 C1771 1.358 . S
C1774 H1830 0.930 . S
C1775 N1772 1.314 . S
C1775 C1773 1.353 . S
C1775 H1831 0.930 . S
C1776 N1777 1.314 . S
C1776 C1781 1.353 . S
C1776 H1782 0.930 . S
N1777 Li1760 1.990 . S
N1777 C1776 1.314 . S
N1777 C1779 1.279 . S
C1778 C1779 1.358 . S
C1778 C1780 1.356 . S
C1778 H1832 0.930 . S
C1779 N1777 1.279 . S
C1779 C1778 1.358 . S
C1779 H1783 0.930 . S
C1780 C1778 1.356 . S
C1780 C1781 1.348 . S
C1781 C1776 1.353 . S
C1781 C1780 1.348 . S
C1781 H1833 0.929 . S
H1782 C1776 0.930 . S
H1783 C1779 0.930 . S
C1784 N1785 1.314 . S
C1784 C1786 1.353 . S
C1784 H1790 0.930 . S
N1785 Li1761 1.990 . S
N1785 C1784 1.314 . S
N1785 C1788 1.279 . S
C1786 C1784 1.353 . S
C1786 C1789 1.348 . S
C1786 H1834 0.929 . S
C1787 C1788 1.358 . S
C1787 C1789 1.356 . S
C1787 H1835 0.930 . S
C1788 N1785 1.279 . S
C1788 C1787 1.358 . S
C1788 H1791 0.930 . S
C1789 C1786 1.348 . S
C1789 C1787 1.356 . S
H1790 C1784 0.930 . S
H1791 C1788 0.930 . S
C1792 C1794 1.348 . S
C1792 C1795 1.356 . S
C1792 O1822 1.325 . S
N1793 C1796 1.314 . S
N1793 C1797 1.279 . S
C1794 C1792 1.348 . S
C1794 C1796 1.353 . S
C1794 H1836 0.929 . S
C1795 C1792 1.356 . S
C1795 C1797 1.358 . S
C1795 H1837 0.930 . S
C1796 N1793 1.314 . S
C1796 C1794 1.353 . S
C1796 H1838 0.930 . S
C1797 N1793 1.279 . S
C1797 C1795 1.358 . S
C1797 H1839 0.930 . S
C1798 C1799 1.348 . S
C1798 C1800 1.356 . S
C1798 O1823 1.325 . S
C1799 C1798 1.348 . S
C1799 C1801 1.353 . S
C1799 H1840 0.929 . S
C1800 C1798 1.356 . S
C1800 C1802 1.358 . S
C1800 H1841 0.930 . S
C1801 C1799 1.353 . S
C1801 N1803 1.314 . S
C1801 H1842 0.930 . S
C1802 C1800 1.358 . S
C1802 N1803 1.279 . S
C1802 H1843 0.930 . S
N1803 C1801 1.314 . S
N1803 C1802 1.279 . S
C1804 C1806 1.353 . S
C1804 N1807 1.314 . S
C1804 H1810 0.930 . S
C1805 N1807 1.279 . S
C1805 C1808 1.358 . S
C1805 H1811 0.930 . S
C1806 C1804 1.353 . S
C1806 C1809 1.348 . S
C1806 H1844 0.929 . S
N1807 Li1762 1.990 . S
N1807 C1804 1.314 . S
N1807 C1805 1.279 . S
C1808 C1805 1.358 . S
C1808 C1809 1.356 . S
C1808 H1845 0.930 . S
C1809 C1806 1.348 . S
C1809 C1808 1.356 . S
H1810 C1804 0.930 . S
H1811 C1805 0.930 . S
C1812 N1813 1.314 . S
C1812 C1814 1.353 . S
C1812 H1818 0.930 . S
N1813 Li1763 1.990 . S
N1813 C1812 1.314 . S
N1813 C1816 1.279 . S
C1814 C1812 1.353 . S
C1814 C1817 1.348 . S
C1814 H1846 0.929 . S
C1815 C1816 1.358 . S
C1815 C1817 1.356 . S
C1815 H1847 0.930 . S
C1816 N1813 1.279 . S
C1816 C1815 1.358 . S
C1816 H1819 0.930 . S
C1817 C1814 1.348 . S
C1817 C1815 1.356 . S
H1818 C1812 0.930 . S
H1819 C1816 0.930 . S
O1820 Li1760 1.956 . S
O1820 Li1761 1.970 . S
O1820 Li1762 1.961 . S
O1820 C1764 1.325 . S
O1821 Li1760 1.970 . S
O1821 Li1761 1.956 . S
O1821 Li1763 1.961 . S
O1821 C1770 1.325 . S
O1822 Li1760 1.961 . S
O1822 Li1762 1.956 . S
O1822 Li1763 1.970 . S
O1822 C1792 1.325 . S
O1823 Li1761 1.961 . S
O1823 Li1762 1.970 . S
O1823 Li1763 1.956 . S
O1823 C1798 1.325 . S
H1824 C1766 0.929 . S
H1825 C1767 0.930 . S
H1826 C1768 0.930 . S
H1827 C1769 0.930 . S
H1828 C1771 0.930 . S
H1829 C1773 0.929 . S
H1830 C1774 0.930 . S
H1831 C1775 0.930 . S
H1832 C1778 0.930 . S
H1833 C1781 0.929 . S
H1834 C1786 0.929 . S
H1835 C1787 0.930 . S
H1836 C1794 0.929 . S
H1837 C1795 0.930 . S
H1838 C1796 0.930 . S
H1839 C1797 0.930 . S
H1840 C1799 0.929 . S
H1841 C1800 0.930 . S
H1842 C1801 0.930 . S
H1843 C1802 0.930 . S
H1844 C1806 0.929 . S
H1845 C1808 0.930 . S
H1846 C1814 0.929 . S
H1847 C1815 0.930 . S
Li1848 N1865 1.990 . S
Li1848 O1908 1.956 . S
Li1848 O1909 1.970 . S
Li1848 O1910 1.961 . S
Li1849 N1873 1.990 . S
Li1849 O1908 1.970 . S
Li1849 O1909 1.956 . S
Li1849 O1911 1.961 . S
Li1850 N1895 1.990 . S
Li1850 O1908 1.961 . S
Li1850 O1910 1.956 . S
Li1850 O1911 1.970 . S
Li1851 N1901 1.990 . S
Li1851 O1909 1.961 . S
Li1851 O1910 1.970 . S
Li1851 O1911 1.956 . S
C1852 C1854 1.348 . S
C1852 C1855 1.356 . S
C1852 O1908 1.325 . S
N1853 C1856 1.314 . S
N1853 C1857 1.279 . S
C1854 C1852 1.348 . S
C1854 C1856 1.353 . S
C1854 H1912 0.929 . S
C1855 C1852 1.356 . S
C1855 C1857 1.358 . S
C1855 H1913 0.930 . S
C1856 N1853 1.314 . S
C1856 C1854 1.353 . S
C1856 H1914 0.930 . S
C1857 N1853 1.279 . S
C1857 C1855 1.358 . S
C1857 H1915 0.930 . S
C1858 C1861 1.348 . S
C1858 C1862 1.356 . S
C1858 O1909 1.325 . S
C1859 N1860 1.279 . S
C1859 C1862 1.358 . S
C1859 H1916 0.930 . S
N1860 C1859 1.279 . S
N1860 C1863 1.314 . S
C1861 C1858 1.348 . S
C1861 C1863 1.353 . S
C1861 H1917 0.929 . S
C1862 C1858 1.356 . S
C1862 C1859 1.358 . S
C1862 H1918 0.930 . S
C1863 N1860 1.314 . S
C1863 C1861 1.353 . S
C1863 H1919 0.930 . S
C1864 N1865 1.314 . S
C1864 C1869 1.353 . S
C1864 H1870 0.930 . S
N1865 Li1848 1.990 . S
N1865 C1864 1.314 . S
N1865 C1867 1.279 . S
C1866 C1867 1.358 . S
C1866 C1868 1.356 . S
C1866 H1920 0.930 . S
C1867 N1865 1.279 . S
C1867 C1866 1.358 . S
C1867 H1871 0.930 . S
C1868 C1866 1.356 . S
C1868 C1869 1.348 . S
C1869 C1864 1.353 . S
C1869 C1868 1.348 . S
C1869 H1921 0.929 . S
H1870 C1864 0.930 . S
H1871 C1867 0.930 . S
C1872 N1873 1.314 . S
C1872 C1874 1.353 . S
C1872 H1878 0.930 . S
N1873 Li1849 1.990 . S
N1873 C1872 1.314 . S
N1873 C1876 1.279 . S
C1874 C1872 1.353 . S
C1874 C1877 1.348 . S
C1874 H1922 0.929 . S
C1875 C1876 1.358 . S
C1875 C1877 1.356 . S
C1875 H1923 0.930 . S
C1876 N1873 1.279 . S
C1876 C1875 1.358 . S
C1876 H1879 0.930 . S
C1877 C1874 1.348 . S
C1877 C1875 1.356 . S
H1878 C1872 0.930 . S
H1879 C1876 0.930 . S
C1880 C1882 1.348 . S
C1880 C1883 1.356 . S
C1880 O1910 1.325 . S
N1881 C1884 1.314 . S
N1881 C1885 1.279 . S
C1882 C1880 1.348 . S
C1882 C1884 1.353 . S
C1882 H1924 0.929 . S
C1883 C1880 1.356 . S
C1883 C1885 1.358 . S
C1883 H1925 0.930 . S
C1884 N1881 1.314 . S
C1884 C1882 1.353 . S
C1884 H1926 0.930 . S
C1885 N1881 1.279 . S
C1885 C1883 1.358 . S
C1885 H1927 0.930 . S
C1886 C1887 1.348 . S
C1886 C1888 1.356 . S
C1886 O1911 1.325 . S
C1887 C1886 1.348 . S
C1887 C1889 1.353 . S
C1887 H1928 0.929 . S
C1888 C1886 1.356 . S
C1888 C1890 1.358 . S
C1888 H1929 0.930 . S
C1889 C1887 1.353 . S
C1889 N1891 1.314 . S
C1889 H1930 0.930 . S
C1890 C1888 1.358 . S
C1890 N1891 1.279 . S
C1890 H1931 0.930 . S
N1891 C1889 1.314 . S
N1891 C1890 1.279 . S
C1892 C1894 1.353 . S
C1892 N1895 1.314 . S
C1892 H1898 0.930 . S
C1893 N1895 1.279 . S
C1893 C1896 1.358 . S
C1893 H1899 0.930 . S
C1894 C1892 1.353 . S
C1894 C1897 1.348 . S
C1894 H1932 0.929 . S
N1895 Li1850 1.990 . S
N1895 C1892 1.314 . S
N1895 C1893 1.279 . S
C1896 C1893 1.358 . S
C1896 C1897 1.356 . S
C1896 H1933 0.930 . S
C1897 C1894 1.348 . S
C1897 C1896 1.356 . S
H1898 C1892 0.930 . S
H1899 C1893 0.930 . S
C1900 N1901 1.314 . S
C1900 C1902 1.353 . S
C1900 H1906 0.930 . S
N1901 Li1851 1.990 . S
N1901 C1900 1.314 . S
N1901 C1904 1.279 . S
C1902 C1900 1.353 . S
C1902 C1905 1.348 . S
C1902 H1934 0.929 . S
C1903 C1904 1.358 . S
C1903 C1905 1.356 . S
C1903 H1935 0.930 . S
C1904 N1901 1.279 . S
C1904 C1903 1.358 . S
C1904 H1907 0.930 . S
C1905 C1902 1.348 . S
C1905 C1903 1.356 . S
H1906 C1900 0.930 . S
H1907 C1904 0.930 . S
O1908 Li1848 1.956 . S
O1908 Li1849 1.970 . S
O1908 Li1850 1.961 . S
O1908 C1852 1.325 . S
O1909 Li1848 1.970 . S
O1909 Li1849 1.956 . S
O1909 Li1851 1.961 . S
O1909 C1858 1.325 . S
O1910 Li1848 1.961 . S
O1910 Li1850 1.956 . S
O1910 Li1851 1.970 . S
O1910 C1880 1.325 . S
O1911 Li1849 1.961 . S
O1911 Li1850 1.970 . S
O1911 Li1851 1.956 . S
O1911 C1886 1.325 . S
H1912 C1854 0.929 . S
H1913 C1855 0.930 . S
H1914 C1856 0.930 . S
H1915 C1857 0.930 . S
H1916 C1859 0.930 . S
H1917 C1861 0.929 . S
H1918 C1862 0.930 . S
H1919 C1863 0.930 . S
H1920 C1866 0.930 . S
H1921 C1869 0.929 . S
H1922 C1874 0.929 . S
H1923 C1875 0.930 . S
H1924 C1882 0.929 . S
H1925 C1883 0.930 . S
H1926 C1884 0.930 . S
H1927 C1885 0.930 . S
H1928 C1887 0.929 . S
H1929 C1888 0.930 . S
H1930 C1889 0.930 . S
H1931 C1890 0.930 . S
H1932 C1894 0.929 . S
H1933 C1896 0.930 . S
H1934 C1902 0.929 . S
H1935 C1903 0.930 . S
Li1936 N1953 1.990 . S
Li1936 O1996 1.956 . S
Li1936 O1997 1.970 . S
Li1936 O1998 1.961 . S
Li1937 N1961 1.990 . S
Li1937 O1996 1.970 . S
Li1937 O1997 1.956 . S
Li1937 O1999 1.961 . S
Li1938 N1983 1.990 . S
Li1938 O1996 1.961 . S
Li1938 O1998 1.956 . S
Li1938 O1999 1.970 . S
Li1939 N1989 1.990 . S
Li1939 O1997 1.961 . S
Li1939 O1998 1.970 . S
Li1939 O1999 1.956 . S
C1940 C1942 1.348 . S
C1940 C1943 1.356 . S
C1940 O1996 1.325 . S
N1941 C1944 1.314 . S
N1941 C1945 1.279 . S
C1942 C1940 1.348 . S
C1942 C1944 1.353 . S
C1942 H2000 0.929 . S
C1943 C1940 1.356 . S
C1943 C1945 1.358 . S
C1943 H2001 0.930 . S
C1944 N1941 1.314 . S
C1944 C1942 1.353 . S
C1944 H2002 0.930 . S
C1945 N1941 1.279 . S
C1945 C1943 1.358 . S
C1945 H2003 0.930 . S
C1946 C1949 1.348 . S
C1946 C1950 1.356 . S
C1946 O1997 1.325 . S
C1947 N1948 1.279 . S
C1947 C1950 1.358 . S
C1947 H2004 0.930 . S
N1948 C1947 1.279 . S
N1948 C1951 1.314 . S
C1949 C1946 1.348 . S
C1949 C1951 1.353 . S
C1949 H2005 0.929 . S
C1950 C1946 1.356 . S
C1950 C1947 1.358 . S
C1950 H2006 0.930 . S
C1951 N1948 1.314 . S
C1951 C1949 1.353 . S
C1951 H2007 0.930 . S
C1952 N1953 1.314 . S
C1952 C1957 1.353 . S
C1952 H1958 0.930 . S
N1953 Li1936 1.990 . S
N1953 C1952 1.314 . S
N1953 C1955 1.279 . S
C1954 C1955 1.358 . S
C1954 C1956 1.356 . S
C1954 H2008 0.930 . S
C1955 N1953 1.279 . S
C1955 C1954 1.358 . S
C1955 H1959 0.930 . S
C1956 C1954 1.356 . S
C1956 C1957 1.348 . S
C1957 C1952 1.353 . S
C1957 C1956 1.348 . S
C1957 H2009 0.929 . S
H1958 C1952 0.930 . S
H1959 C1955 0.930 . S
C1960 N1961 1.314 . S
C1960 C1962 1.353 . S
C1960 H1966 0.930 . S
N1961 Li1937 1.990 . S
N1961 C1960 1.314 . S
N1961 C1964 1.279 . S
C1962 C1960 1.353 . S
C1962 C1965 1.348 . S
C1962 H2010 0.929 . S
C1963 C1964 1.358 . S
C1963 C1965 1.356 . S
C1963 H2011 0.930 . S
C1964 N1961 1.279 . S
C1964 C1963 1.358 . S
C1964 H1967 0.930 . S
C1965 C1962 1.348 . S
C1965 C1963 1.356 . S
H1966 C1960 0.930 . S
H1967 C1964 0.930 . S
C1968 C1970 1.348 . S
C1968 C1971 1.356 . S
C1968 O1998 1.325 . S
N1969 C1972 1.314 . S
N1969 C1973 1.279 . S
C1970 C1968 1.348 . S
C1970 C1972 1.353 . S
C1970 H2012 0.929 . S
C1971 C1968 1.356 . S
C1971 C1973 1.358 . S
C1971 H2013 0.930 . S
C1972 N1969 1.314 . S
C1972 C1970 1.353 . S
C1972 H2014 0.930 . S
C1973 N1969 1.279 . S
C1973 C1971 1.358 . S
C1973 H2015 0.930 . S
C1974 C1975 1.348 . S
C1974 C1976 1.356 . S
C1974 O1999 1.325 . S
C1975 C1974 1.348 . S
C1975 C1977 1.353 . S
C1975 H2016 0.929 . S
C1976 C1974 1.356 . S
C1976 C1978 1.358 . S
C1976 H2017 0.930 . S
C1977 C1975 1.353 . S
C1977 N1979 1.314 . S
C1977 H2018 0.930 . S
C1978 C1976 1.358 . S
C1978 N1979 1.279 . S
C1978 H2019 0.930 . S
N1979 C1977 1.314 . S
N1979 C1978 1.279 . S
C1980 C1982 1.353 . S
C1980 N1983 1.314 . S
C1980 H1986 0.930 . S
C1981 N1983 1.279 . S
C1981 C1984 1.358 . S
C1981 H1987 0.930 . S
C1982 C1980 1.353 . S
C1982 C1985 1.348 . S
C1982 H2020 0.929 . S
N1983 Li1938 1.990 . S
N1983 C1980 1.314 . S
N1983 C1981 1.279 . S
C1984 C1981 1.358 . S
C1984 C1985 1.356 . S
C1984 H2021 0.930 . S
C1985 C1982 1.348 . S
C1985 C1984 1.356 . S
H1986 C1980 0.930 . S
H1987 C1981 0.930 . S
C1988 N1989 1.314 . S
C1988 C1990 1.353 . S
C1988 H1994 0.930 . S
N1989 Li1939 1.990 . S
N1989 C1988 1.314 . S
N1989 C1992 1.279 . S
C1990 C1988 1.353 . S
C1990 C1993 1.348 . S
C1990 H2022 0.929 . S
C1991 C1992 1.358 . S
C1991 C1993 1.356 . S
C1991 H2023 0.930 . S
C1992 N1989 1.279 . S
C1992 C1991 1.358 . S
C1992 H1995 0.930 . S
C1993 C1990 1.348 . S
C1993 C1991 1.356 . S
H1994 C1988 0.930 . S
H1995 C1992 0.930 . S
O1996 Li1936 1.956 . S
O1996 Li1937 1.970 . S
O1996 Li1938 1.961 . S
O1996 C1940 1.325 . S
O1997 Li1936 1.970 . S
O1997 Li1937 1.956 . S
O1997 Li1939 1.961 . S
O1997 C1946 1.325 . S
O1998 Li1936 1.961 . S
O1998 Li1938 1.956 . S
O1998 Li1939 1.970 . S
O1998 C1968 1.325 . S
O1999 Li1937 1.961 . S
O1999 Li1938 1.970 . S
O1999 Li1939 1.956 . S
O1999 C1974 1.325 . S
H2000 C1942 0.929 . S
H2001 C1943 0.930 . S
H2002 C1944 0.930 . S
H2003 C1945 0.930 . S
H2004 C1947 0.930 . S
H2005 C1949 0.929 . S
H2006 C1950 0.930 . S
H2007 C1951 0.930 . S
H2008 C1954 0.930 . S
H2009 C1957 0.929 . S
H2010 C1962 0.929 . S
H2011 C1963 0.930 . S
H2012 C1970 0.929 . S
H2013 C1971 0.930 . S
H2014 C1972 0.930 . S
H2015 C1973 0.930 . S
H2016 C1975 0.929 . S
H2017 C1976 0.930 . S
H2018 C1977 0.930 . S
H2019 C1978 0.930 . S
H2020 C1982 0.929 . S
H2021 C1984 0.930 . S
H2022 C1990 0.929 . S
H2023 C1991 0.930 . S
Li2024 N2041 1.990 . S
Li2024 O2084 1.956 . S
Li2024 O2085 1.970 . S
Li2024 O2086 1.961 . S
Li2025 N2049 1.990 . S
Li2025 O2084 1.970 . S
Li2025 O2085 1.956 . S
Li2025 O2087 1.961 . S
Li2026 N2071 1.990 . S
Li2026 O2084 1.961 . S
Li2026 O2086 1.956 . S
Li2026 O2087 1.970 . S
Li2027 N2077 1.990 . S
Li2027 O2085 1.961 . S
Li2027 O2086 1.970 . S
Li2027 O2087 1.956 . S
C2028 C2030 1.348 . S
C2028 C2031 1.356 . S
C2028 O2084 1.325 . S
N2029 C2032 1.314 . S
N2029 C2033 1.279 . S
C2030 C2028 1.348 . S
C2030 C2032 1.353 . S
C2030 H2088 0.929 . S
C2031 C2028 1.356 . S
C2031 C2033 1.358 . S
C2031 H2089 0.930 . S
C2032 N2029 1.314 . S
C2032 C2030 1.353 . S
C2032 H2090 0.930 . S
C2033 N2029 1.279 . S
C2033 C2031 1.358 . S
C2033 H2091 0.930 . S
C2034 C2037 1.348 . S
C2034 C2038 1.356 . S
C2034 O2085 1.325 . S
C2035 N2036 1.279 . S
C2035 C2038 1.358 . S
C2035 H2092 0.930 . S
N2036 C2035 1.279 . S
N2036 C2039 1.314 . S
C2037 C2034 1.348 . S
C2037 C2039 1.353 . S
C2037 H2093 0.929 . S
C2038 C2034 1.356 . S
C2038 C2035 1.358 . S
C2038 H2094 0.930 . S
C2039 N2036 1.314 . S
C2039 C2037 1.353 . S
C2039 H2095 0.930 . S
C2040 N2041 1.314 . S
C2040 C2045 1.353 . S
C2040 H2046 0.930 . S
N2041 Li2024 1.990 . S
N2041 C2040 1.314 . S
N2041 C2043 1.279 . S
C2042 C2043 1.358 . S
C2042 C2044 1.356 . S
C2042 H2096 0.930 . S
C2043 N2041 1.279 . S
C2043 C2042 1.358 . S
C2043 H2047 0.930 . S
C2044 C2042 1.356 . S
C2044 C2045 1.348 . S
C2045 C2040 1.353 . S
C2045 C2044 1.348 . S
C2045 H2097 0.929 . S
H2046 C2040 0.930 . S
H2047 C2043 0.930 . S
C2048 N2049 1.314 . S
C2048 C2050 1.353 . S
C2048 H2054 0.930 . S
N2049 Li2025 1.990 . S
N2049 C2048 1.314 . S
N2049 C2052 1.279 . S
C2050 C2048 1.353 . S
C2050 C2053 1.348 . S
C2050 H2098 0.929 . S
C2051 C2052 1.358 . S
C2051 C2053 1.356 . S
C2051 H2099 0.930 . S
C2052 N2049 1.279 . S
C2052 C2051 1.358 . S
C2052 H2055 0.930 . S
C2053 C2050 1.348 . S
C2053 C2051 1.356 . S
H2054 C2048 0.930 . S
H2055 C2052 0.930 . S
C2056 C2058 1.348 . S
C2056 C2059 1.356 . S
C2056 O2086 1.325 . S
N2057 C2060 1.314 . S
N2057 C2061 1.279 . S
C2058 C2056 1.348 . S
C2058 C2060 1.353 . S
C2058 H2100 0.929 . S
C2059 C2056 1.356 . S
C2059 C2061 1.358 . S
C2059 H2101 0.930 . S
C2060 N2057 1.314 . S
C2060 C2058 1.353 . S
C2060 H2102 0.930 . S
C2061 N2057 1.279 . S
C2061 C2059 1.358 . S
C2061 H2103 0.930 . S
C2062 C2063 1.348 . S
C2062 C2064 1.356 . S
C2062 O2087 1.325 . S
C2063 C2062 1.348 . S
C2063 C2065 1.353 . S
C2063 H2104 0.929 . S
C2064 C2062 1.356 . S
C2064 C2066 1.358 . S
C2064 H2105 0.930 . S
C2065 C2063 1.353 . S
C2065 N2067 1.314 . S
C2065 H2106 0.930 . S
C2066 C2064 1.358 . S
C2066 N2067 1.279 . S
C2066 H2107 0.930 . S
N2067 C2065 1.314 . S
N2067 C2066 1.279 . S
C2068 C2070 1.353 . S
C2068 N2071 1.314 . S
C2068 H2074 0.930 . S
C2069 N2071 1.279 . S
C2069 C2072 1.358 . S
C2069 H2075 0.930 . S
C2070 C2068 1.353 . S
C2070 C2073 1.348 . S
C2070 H2108 0.929 . S
N2071 Li2026 1.990 . S
N2071 C2068 1.314 . S
N2071 C2069 1.279 . S
C2072 C2069 1.358 . S
C2072 C2073 1.356 . S
C2072 H2109 0.930 . S
C2073 C2070 1.348 . S
C2073 C2072 1.356 . S
H2074 C2068 0.930 . S
H2075 C2069 0.930 . S
C2076 N2077 1.314 . S
C2076 C2078 1.353 . S
C2076 H2082 0.930 . S
N2077 Li2027 1.990 . S
N2077 C2076 1.314 . S
N2077 C2080 1.279 . S
C2078 C2076 1.353 . S
C2078 C2081 1.348 . S
C2078 H2110 0.929 . S
C2079 C2080 1.358 . S
C2079 C2081 1.356 . S
C2079 H2111 0.930 . S
C2080 N2077 1.279 . S
C2080 C2079 1.358 . S
C2080 H2083 0.930 . S
C2081 C2078 1.348 . S
C2081 C2079 1.356 . S
H2082 C2076 0.930 . S
H2083 C2080 0.930 . S
O2084 Li2024 1.956 . S
O2084 Li2025 1.970 . S
O2084 Li2026 1.961 . S
O2084 C2028 1.325 . S
O2085 Li2024 1.970 . S
O2085 Li2025 1.956 . S
O2085 Li2027 1.961 . S
O2085 C2034 1.325 . S
O2086 Li2024 1.961 . S
O2086 Li2026 1.956 . S
O2086 Li2027 1.970 . S
O2086 C2056 1.325 . S
O2087 Li2025 1.961 . S
O2087 Li2026 1.970 . S
O2087 Li2027 1.956 . S
O2087 C2062 1.325 . S
H2088 C2030 0.929 . S
H2089 C2031 0.930 . S
H2090 C2032 0.930 . S
H2091 C2033 0.930 . S
H2092 C2035 0.930 . S
H2093 C2037 0.929 . S
H2094 C2038 0.930 . S
H2095 C2039 0.930 . S
H2096 C2042 0.930 . S
H2097 C2045 0.929 . S
H2098 C2050 0.929 . S
H2099 C2051 0.930 . S
H2100 C2058 0.929 . S
H2101 C2059 0.930 . S
H2102 C2060 0.930 . S
H2103 C2061 0.930 . S
H2104 C2063 0.929 . S
H2105 C2064 0.930 . S
H2106 C2065 0.930 . S
H2107 C2066 0.930 . S
H2108 C2070 0.929 . S
H2109 C2072 0.930 . S
H2110 C2078 0.929 . S
H2111 C2079 0.930 . S
Li2112 N2129 1.990 . S
Li2112 O2172 1.956 . S
Li2112 O2173 1.970 . S
Li2112 O2174 1.961 . S
Li2113 N2137 1.990 . S
Li2113 O2172 1.970 . S
Li2113 O2173 1.956 . S
Li2113 O2175 1.961 . S
Li2114 N2159 1.990 . S
Li2114 O2172 1.961 . S
Li2114 O2174 1.956 . S
Li2114 O2175 1.970 . S
Li2115 N2165 1.990 . S
Li2115 O2173 1.961 . S
Li2115 O2174 1.970 . S
Li2115 O2175 1.956 . S
C2116 C2118 1.348 . S
C2116 C2119 1.356 . S
C2116 O2172 1.325 . S
N2117 C2120 1.314 . S
N2117 C2121 1.279 . S
C2118 C2116 1.348 . S
C2118 C2120 1.353 . S
C2118 H2176 0.929 . S
C2119 C2116 1.356 . S
C2119 C2121 1.358 . S
C2119 H2177 0.930 . S
C2120 N2117 1.314 . S
C2120 C2118 1.353 . S
C2120 H2178 0.930 . S
C2121 N2117 1.279 . S
C2121 C2119 1.358 . S
C2121 H2179 0.930 . S
C2122 C2125 1.348 . S
C2122 C2126 1.356 . S
C2122 O2173 1.325 . S
C2123 N2124 1.279 . S
C2123 C2126 1.358 . S
C2123 H2180 0.930 . S
N2124 C2123 1.279 . S
N2124 C2127 1.314 . S
C2125 C2122 1.348 . S
C2125 C2127 1.353 . S
C2125 H2181 0.929 . S
C2126 C2122 1.356 . S
C2126 C2123 1.358 . S
C2126 H2182 0.930 . S
C2127 N2124 1.314 . S
C2127 C2125 1.353 . S
C2127 H2183 0.930 . S
C2128 N2129 1.314 . S
C2128 C2133 1.353 . S
C2128 H2134 0.930 . S
N2129 Li2112 1.990 . S
N2129 C2128 1.314 . S
N2129 C2131 1.279 . S
C2130 C2131 1.358 . S
C2130 C2132 1.356 . S
C2130 H2184 0.930 . S
C2131 N2129 1.279 . S
C2131 C2130 1.358 . S
C2131 H2135 0.930 . S
C2132 C2130 1.356 . S
C2132 C2133 1.348 . S
C2133 C2128 1.353 . S
C2133 C2132 1.348 . S
C2133 H2185 0.929 . S
H2134 C2128 0.930 . S
H2135 C2131 0.930 . S
C2136 N2137 1.314 . S
C2136 C2138 1.353 . S
C2136 H2142 0.930 . S
N2137 Li2113 1.990 . S
N2137 C2136 1.314 . S
N2137 C2140 1.279 . S
C2138 C2136 1.353 . S
C2138 C2141 1.348 . S
C2138 H2186 0.929 . S
C2139 C2140 1.358 . S
C2139 C2141 1.356 . S
C2139 H2187 0.930 . S
C2140 N2137 1.279 . S
C2140 C2139 1.358 . S
C2140 H2143 0.930 . S
C2141 C2138 1.348 . S
C2141 C2139 1.356 . S
H2142 C2136 0.930 . S
H2143 C2140 0.930 . S
C2144 C2146 1.348 . S
C2144 C2147 1.356 . S
C2144 O2174 1.325 . S
N2145 C2148 1.314 . S
N2145 C2149 1.279 . S
C2146 C2144 1.348 . S
C2146 C2148 1.353 . S
C2146 H2188 0.929 . S
C2147 C2144 1.356 . S
C2147 C2149 1.358 . S
C2147 H2189 0.930 . S
C2148 N2145 1.314 . S
C2148 C2146 1.353 . S
C2148 H2190 0.930 . S
C2149 N2145 1.279 . S
C2149 C2147 1.358 . S
C2149 H2191 0.930 . S
C2150 C2151 1.348 . S
C2150 C2152 1.356 . S
C2150 O2175 1.325 . S
C2151 C2150 1.348 . S
C2151 C2153 1.353 . S
C2151 H2192 0.929 . S
C2152 C2150 1.356 . S
C2152 C2154 1.358 . S
C2152 H2193 0.930 . S
C2153 C2151 1.353 . S
C2153 N2155 1.314 . S
C2153 H2194 0.930 . S
C2154 C2152 1.358 . S
C2154 N2155 1.279 . S
C2154 H2195 0.930 . S
N2155 C2153 1.314 . S
N2155 C2154 1.279 . S
C2156 C2158 1.353 . S
C2156 N2159 1.314 . S
C2156 H2162 0.930 . S
C2157 N2159 1.279 . S
C2157 C2160 1.358 . S
C2157 H2163 0.930 . S
C2158 C2156 1.353 . S
C2158 C2161 1.348 . S
C2158 H2196 0.929 . S
N2159 Li2114 1.990 . S
N2159 C2156 1.314 . S
N2159 C2157 1.279 . S
C2160 C2157 1.358 . S
C2160 C2161 1.356 . S
C2160 H2197 0.930 . S
C2161 C2158 1.348 . S
C2161 C2160 1.356 . S
H2162 C2156 0.930 . S
H2163 C2157 0.930 . S
C2164 N2165 1.314 . S
C2164 C2166 1.353 . S
C2164 H2170 0.930 . S
N2165 Li2115 1.990 . S
N2165 C2164 1.314 . S
N2165 C2168 1.279 . S
C2166 C2164 1.353 . S
C2166 C2169 1.348 . S
C2166 H2198 0.929 . S
C2167 C2168 1.358 . S
C2167 C2169 1.356 . S
C2167 H2199 0.930 . S
C2168 N2165 1.279 . S
C2168 C2167 1.358 . S
C2168 H2171 0.930 . S
C2169 C2166 1.348 . S
C2169 C2167 1.356 . S
H2170 C2164 0.930 . S
H2171 C2168 0.930 . S
O2172 Li2112 1.956 . S
O2172 Li2113 1.970 . S
O2172 Li2114 1.961 . S
O2172 C2116 1.325 . S
O2173 Li2112 1.970 . S
O2173 Li2113 1.956 . S
O2173 Li2115 1.961 . S
O2173 C2122 1.325 . S
O2174 Li2112 1.961 . S
O2174 Li2114 1.956 . S
O2174 Li2115 1.970 . S
O2174 C2144 1.325 . S
O2175 Li2113 1.961 . S
O2175 Li2114 1.970 . S
O2175 Li2115 1.956 . S
O2175 C2150 1.325 . S
H2176 C2118 0.929 . S
H2177 C2119 0.930 . S
H2178 C2120 0.930 . S
H2179 C2121 0.930 . S
H2180 C2123 0.930 . S
H2181 C2125 0.929 . S
H2182 C2126 0.930 . S
H2183 C2127 0.930 . S
H2184 C2130 0.930 . S
H2185 C2133 0.929 . S
H2186 C2138 0.929 . S
H2187 C2139 0.930 . S
H2188 C2146 0.929 . S
H2189 C2147 0.930 . S
H2190 C2148 0.930 . S
H2191 C2149 0.930 . S
H2192 C2151 0.929 . S
H2193 C2152 0.930 . S
H2194 C2153 0.930 . S
H2195 C2154 0.930 . S
H2196 C2158 0.929 . S
H2197 C2160 0.930 . S
H2198 C2166 0.929 . S
H2199 C2167 0.930 . S
Li2200 N2217 1.990 . S
Li2200 O2260 1.956 . S
Li2200 O2261 1.970 . S
Li2200 O2262 1.961 . S
Li2201 N2225 1.990 . S
Li2201 O2260 1.970 . S
Li2201 O2261 1.956 . S
Li2201 O2263 1.961 . S
Li2202 N2247 1.990 . S
Li2202 O2260 1.961 . S
Li2202 O2262 1.956 . S
Li2202 O2263 1.970 . S
Li2203 N2253 1.990 . S
Li2203 O2261 1.961 . S
Li2203 O2262 1.970 . S
Li2203 O2263 1.956 . S
C2204 C2206 1.348 . S
C2204 C2207 1.356 . S
C2204 O2260 1.325 . S
N2205 C2208 1.314 . S
N2205 C2209 1.279 . S
C2206 C2204 1.348 . S
C2206 C2208 1.353 . S
C2206 H2264 0.929 . S
C2207 C2204 1.356 . S
C2207 C2209 1.358 . S
C2207 H2265 0.930 . S
C2208 N2205 1.314 . S
C2208 C2206 1.353 . S
C2208 H2266 0.930 . S
C2209 N2205 1.279 . S
C2209 C2207 1.358 . S
C2209 H2267 0.930 . S
C2210 C2213 1.348 . S
C2210 C2214 1.356 . S
C2210 O2261 1.325 . S
C2211 N2212 1.279 . S
C2211 C2214 1.358 . S
C2211 H2268 0.930 . S
N2212 C2211 1.279 . S
N2212 C2215 1.314 . S
C2213 C2210 1.348 . S
C2213 C2215 1.353 . S
C2213 H2269 0.929 . S
C2214 C2210 1.356 . S
C2214 C2211 1.358 . S
C2214 H2270 0.930 . S
C2215 N2212 1.314 . S
C2215 C2213 1.353 . S
C2215 H2271 0.930 . S
C2216 N2217 1.314 . S
C2216 C2221 1.353 . S
C2216 H2222 0.930 . S
N2217 Li2200 1.990 . S
N2217 C2216 1.314 . S
N2217 C2219 1.279 . S
C2218 C2219 1.358 . S
C2218 C2220 1.356 . S
C2218 H2272 0.930 . S
C2219 N2217 1.279 . S
C2219 C2218 1.358 . S
C2219 H2223 0.930 . S
C2220 C2218 1.356 . S
C2220 C2221 1.348 . S
C2221 C2216 1.353 . S
C2221 C2220 1.348 . S
C2221 H2273 0.929 . S
H2222 C2216 0.930 . S
H2223 C2219 0.930 . S
C2224 N2225 1.314 . S
C2224 C2226 1.353 . S
C2224 H2230 0.930 . S
N2225 Li2201 1.990 . S
N2225 C2224 1.314 . S
N2225 C2228 1.279 . S
C2226 C2224 1.353 . S
C2226 C2229 1.348 . S
C2226 H2274 0.929 . S
C2227 C2228 1.358 . S
C2227 C2229 1.356 . S
C2227 H2275 0.930 . S
C2228 N2225 1.279 . S
C2228 C2227 1.358 . S
C2228 H2231 0.930 . S
C2229 C2226 1.348 . S
C2229 C2227 1.356 . S
H2230 C2224 0.930 . S
H2231 C2228 0.930 . S
C2232 C2234 1.348 . S
C2232 C2235 1.356 . S
C2232 O2262 1.325 . S
N2233 C2236 1.314 . S
N2233 C2237 1.279 . S
C2234 C2232 1.348 . S
C2234 C2236 1.353 . S
C2234 H2276 0.929 . S
C2235 C2232 1.356 . S
C2235 C2237 1.358 . S
C2235 H2277 0.930 . S
C2236 N2233 1.314 . S
C2236 C2234 1.353 . S
C2236 H2278 0.930 . S
C2237 N2233 1.279 . S
C2237 C2235 1.358 . S
C2237 H2279 0.930 . S
C2238 C2239 1.348 . S
C2238 C2240 1.356 . S
C2238 O2263 1.325 . S
C2239 C2238 1.348 . S
C2239 C2241 1.353 . S
C2239 H2280 0.929 . S
C2240 C2238 1.356 . S
C2240 C2242 1.358 . S
C2240 H2281 0.930 . S
C2241 C2239 1.353 . S
C2241 N2243 1.314 . S
C2241 H2282 0.930 . S
C2242 C2240 1.358 . S
C2242 N2243 1.279 . S
C2242 H2283 0.930 . S
N2243 C2241 1.314 . S
N2243 C2242 1.279 . S
C2244 C2246 1.353 . S
C2244 N2247 1.314 . S
C2244 H2250 0.930 . S
C2245 N2247 1.279 . S
C2245 C2248 1.358 . S
C2245 H2251 0.930 . S
C2246 C2244 1.353 . S
C2246 C2249 1.348 . S
C2246 H2284 0.929 . S
N2247 Li2202 1.990 . S
N2247 C2244 1.314 . S
N2247 C2245 1.279 . S
C2248 C2245 1.358 . S
C2248 C2249 1.356 . S
C2248 H2285 0.930 . S
C2249 C2246 1.348 . S
C2249 C2248 1.356 . S
H2250 C2244 0.930 . S
H2251 C2245 0.930 . S
C2252 N2253 1.314 . S
C2252 C2254 1.353 . S
C2252 H2258 0.930 . S
N2253 Li2203 1.990 . S
N2253 C2252 1.314 . S
N2253 C2256 1.279 . S
C2254 C2252 1.353 . S
C2254 C2257 1.348 . S
C2254 H2286 0.929 . S
C2255 C2256 1.358 . S
C2255 C2257 1.356 . S
C2255 H2287 0.930 . S
C2256 N2253 1.279 . S
C2256 C2255 1.358 . S
C2256 H2259 0.930 . S
C2257 C2254 1.348 . S
C2257 C2255 1.356 . S
H2258 C2252 0.930 . S
H2259 C2256 0.930 . S
O2260 Li2200 1.956 . S
O2260 Li2201 1.970 . S
O2260 Li2202 1.961 . S
O2260 C2204 1.325 . S
O2261 Li2200 1.970 . S
O2261 Li2201 1.956 . S
O2261 Li2203 1.961 . S
O2261 C2210 1.325 . S
O2262 Li2200 1.961 . S
O2262 Li2202 1.956 . S
O2262 Li2203 1.970 . S
O2262 C2232 1.325 . S
O2263 Li2201 1.961 . S
O2263 Li2202 1.970 . S
O2263 Li2203 1.956 . S
O2263 C2238 1.325 . S
H2264 C2206 0.929 . S
H2265 C2207 0.930 . S
H2266 C2208 0.930 . S
H2267 C2209 0.930 . S
H2268 C2211 0.930 . S
H2269 C2213 0.929 . S
H2270 C2214 0.930 . S
H2271 C2215 0.930 . S
H2272 C2218 0.930 . S
H2273 C2221 0.929 . S
H2274 C2226 0.929 . S
H2275 C2227 0.930 . S
H2276 C2234 0.929 . S
H2277 C2235 0.930 . S
H2278 C2236 0.930 . S
H2279 C2237 0.930 . S
H2280 C2239 0.929 . S
H2281 C2240 0.930 . S
H2282 C2241 0.930 . S
H2283 C2242 0.930 . S
H2284 C2246 0.929 . S
H2285 C2248 0.930 . S
H2286 C2254 0.929 . S
H2287 C2255 0.930 . S
Li2288 N2305 1.990 . S
Li2288 O2348 1.956 . S
Li2288 O2349 1.970 . S
Li2288 O2350 1.961 . S
Li2289 N2313 1.990 . S
Li2289 O2348 1.970 . S
Li2289 O2349 1.956 . S
Li2289 O2351 1.961 . S
Li2290 N2335 1.990 . S
Li2290 O2348 1.961 . S
Li2290 O2350 1.956 . S
Li2290 O2351 1.970 . S
Li2291 N2341 1.990 . S
Li2291 O2349 1.961 . S
Li2291 O2350 1.970 . S
Li2291 O2351 1.956 . S
C2292 C2294 1.348 . S
C2292 C2295 1.356 . S
C2292 O2348 1.325 . S
N2293 C2296 1.314 . S
N2293 C2297 1.279 . S
C2294 C2292 1.348 . S
C2294 C2296 1.353 . S
C2294 H2352 0.929 . S
C2295 C2292 1.356 . S
C2295 C2297 1.358 . S
C2295 H2353 0.930 . S
C2296 N2293 1.314 . S
C2296 C2294 1.353 . S
C2296 H2354 0.930 . S
C2297 N2293 1.279 . S
C2297 C2295 1.358 . S
C2297 H2355 0.930 . S
C2298 C2301 1.348 . S
C2298 C2302 1.356 . S
C2298 O2349 1.325 . S
C2299 N2300 1.279 . S
C2299 C2302 1.358 . S
C2299 H2356 0.930 . S
N2300 C2299 1.279 . S
N2300 C2303 1.314 . S
C2301 C2298 1.348 . S
C2301 C2303 1.353 . S
C2301 H2357 0.929 . S
C2302 C2298 1.356 . S
C2302 C2299 1.358 . S
C2302 H2358 0.930 . S
C2303 N2300 1.314 . S
C2303 C2301 1.353 . S
C2303 H2359 0.930 . S
C2304 N2305 1.314 . S
C2304 C2309 1.353 . S
C2304 H2310 0.930 . S
N2305 Li2288 1.990 . S
N2305 C2304 1.314 . S
N2305 C2307 1.279 . S
C2306 C2307 1.358 . S
C2306 C2308 1.356 . S
C2306 H2360 0.930 . S
C2307 N2305 1.279 . S
C2307 C2306 1.358 . S
C2307 H2311 0.930 . S
C2308 C2306 1.356 . S
C2308 C2309 1.348 . S
C2309 C2304 1.353 . S
C2309 C2308 1.348 . S
C2309 H2361 0.929 . S
H2310 C2304 0.930 . S
H2311 C2307 0.930 . S
C2312 N2313 1.314 . S
C2312 C2314 1.353 . S
C2312 H2318 0.930 . S
N2313 Li2289 1.990 . S
N2313 C2312 1.314 . S
N2313 C2316 1.279 . S
C2314 C2312 1.353 . S
C2314 C2317 1.348 . S
C2314 H2362 0.929 . S
C2315 C2316 1.358 . S
C2315 C2317 1.356 . S
C2315 H2363 0.930 . S
C2316 N2313 1.279 . S
C2316 C2315 1.358 . S
C2316 H2319 0.930 . S
C2317 C2314 1.348 . S
C2317 C2315 1.356 . S
H2318 C2312 0.930 . S
H2319 C2316 0.930 . S
C2320 C2322 1.348 . S
C2320 C2323 1.356 . S
C2320 O2350 1.325 . S
N2321 C2324 1.314 . S
N2321 C2325 1.279 . S
C2322 C2320 1.348 . S
C2322 C2324 1.353 . S
C2322 H2364 0.929 . S
C2323 C2320 1.356 . S
C2323 C2325 1.358 . S
C2323 H2365 0.930 . S
C2324 N2321 1.314 . S
C2324 C2322 1.353 . S
C2324 H2366 0.930 . S
C2325 N2321 1.279 . S
C2325 C2323 1.358 . S
C2325 H2367 0.930 . S
C2326 C2327 1.348 . S
C2326 C2328 1.356 . S
C2326 O2351 1.325 . S
C2327 C2326 1.348 . S
C2327 C2329 1.353 . S
C2327 H2368 0.929 . S
C2328 C2326 1.356 . S
C2328 C2330 1.358 . S
C2328 H2369 0.930 . S
C2329 C2327 1.353 . S
C2329 N2331 1.314 . S
C2329 H2370 0.930 . S
C2330 C2328 1.358 . S
C2330 N2331 1.279 . S
C2330 H2371 0.930 . S
N2331 C2329 1.314 . S
N2331 C2330 1.279 . S
C2332 C2334 1.353 . S
C2332 N2335 1.314 . S
C2332 H2338 0.930 . S
C2333 N2335 1.279 . S
C2333 C2336 1.358 . S
C2333 H2339 0.930 . S
C2334 C2332 1.353 . S
C2334 C2337 1.348 . S
C2334 H2372 0.929 . S
N2335 Li2290 1.990 . S
N2335 C2332 1.314 . S
N2335 C2333 1.279 . S
C2336 C2333 1.358 . S
C2336 C2337 1.356 . S
C2336 H2373 0.930 . S
C2337 C2334 1.348 . S
C2337 C2336 1.356 . S
H2338 C2332 0.930 . S
H2339 C2333 0.930 . S
C2340 N2341 1.314 . S
C2340 C2342 1.353 . S
C2340 H2346 0.930 . S
N2341 Li2291 1.990 . S
N2341 C2340 1.314 . S
N2341 C2344 1.279 . S
C2342 C2340 1.353 . S
C2342 C2345 1.348 . S
C2342 H2374 0.929 . S
C2343 C2344 1.358 . S
C2343 C2345 1.356 . S
C2343 H2375 0.930 . S
C2344 N2341 1.279 . S
C2344 C2343 1.358 . S
C2344 H2347 0.930 . S
C2345 C2342 1.348 . S
C2345 C2343 1.356 . S
H2346 C2340 0.930 . S
H2347 C2344 0.930 . S
O2348 Li2288 1.956 . S
O2348 Li2289 1.970 . S
O2348 Li2290 1.961 . S
O2348 C2292 1.325 . S
O2349 Li2288 1.970 . S
O2349 Li2289 1.956 . S
O2349 Li2291 1.961 . S
O2349 C2298 1.325 . S
O2350 Li2288 1.961 . S
O2350 Li2290 1.956 . S
O2350 Li2291 1.970 . S
O2350 C2320 1.325 . S
O2351 Li2289 1.961 . S
O2351 Li2290 1.970 . S
O2351 Li2291 1.956 . S
O2351 C2326 1.325 . S
H2352 C2294 0.929 . S
H2353 C2295 0.930 . S
H2354 C2296 0.930 . S
H2355 C2297 0.930 . S
H2356 C2299 0.930 . S
H2357 C2301 0.929 . S
H2358 C2302 0.930 . S
H2359 C2303 0.930 . S
H2360 C2306 0.930 . S
H2361 C2309 0.929 . S
H2362 C2314 0.929 . S
H2363 C2315 0.930 . S
H2364 C2322 0.929 . S
H2365 C2323 0.930 . S
H2366 C2324 0.930 . S
H2367 C2325 0.930 . S
H2368 C2327 0.929 . S
H2369 C2328 0.930 . S
H2370 C2329 0.930 . S
H2371 C2330 0.930 . S
H2372 C2334 0.929 . S
H2373 C2336 0.930 . S
H2374 C2342 0.929 . S
H2375 C2343 0.930 . S
Li2376 N2393 1.990 . S
Li2376 O2436 1.956 . S
Li2376 O2437 1.970 . S
Li2376 O2438 1.961 . S
Li2377 N2401 1.990 . S
Li2377 O2436 1.970 . S
Li2377 O2437 1.956 . S
Li2377 O2439 1.961 . S
Li2378 N2423 1.990 . S
Li2378 O2436 1.961 . S
Li2378 O2438 1.956 . S
Li2378 O2439 1.970 . S
Li2379 N2429 1.990 . S
Li2379 O2437 1.961 . S
Li2379 O2438 1.970 . S
Li2379 O2439 1.956 . S
C2380 C2382 1.348 . S
C2380 C2383 1.356 . S
C2380 O2436 1.325 . S
N2381 C2384 1.314 . S
N2381 C2385 1.279 . S
C2382 C2380 1.348 . S
C2382 C2384 1.353 . S
C2382 H2440 0.929 . S
C2383 C2380 1.356 . S
C2383 C2385 1.358 . S
C2383 H2441 0.930 . S
C2384 N2381 1.314 . S
C2384 C2382 1.353 . S
C2384 H2442 0.930 . S
C2385 N2381 1.279 . S
C2385 C2383 1.358 . S
C2385 H2443 0.930 . S
C2386 C2389 1.348 . S
C2386 C2390 1.356 . S
C2386 O2437 1.325 . S
C2387 N2388 1.279 . S
C2387 C2390 1.358 . S
C2387 H2444 0.930 . S
N2388 C2387 1.279 . S
N2388 C2391 1.314 . S
C2389 C2386 1.348 . S
C2389 C2391 1.353 . S
C2389 H2445 0.929 . S
C2390 C2386 1.356 . S
C2390 C2387 1.358 . S
C2390 H2446 0.930 . S
C2391 N2388 1.314 . S
C2391 C2389 1.353 . S
C2391 H2447 0.930 . S
C2392 N2393 1.314 . S
C2392 C2397 1.353 . S
C2392 H2398 0.930 . S
N2393 Li2376 1.990 . S
N2393 C2392 1.314 . S
N2393 C2395 1.279 . S
C2394 C2395 1.358 . S
C2394 C2396 1.356 . S
C2394 H2448 0.930 . S
C2395 N2393 1.279 . S
C2395 C2394 1.358 . S
C2395 H2399 0.930 . S
C2396 C2394 1.356 . S
C2396 C2397 1.348 . S
C2397 C2392 1.353 . S
C2397 C2396 1.348 . S
C2397 H2449 0.929 . S
H2398 C2392 0.930 . S
H2399 C2395 0.930 . S
C2400 N2401 1.314 . S
C2400 C2402 1.353 . S
C2400 H2406 0.930 . S
N2401 Li2377 1.990 . S
N2401 C2400 1.314 . S
N2401 C2404 1.279 . S
C2402 C2400 1.353 . S
C2402 C2405 1.348 . S
C2402 H2450 0.929 . S
C2403 C2404 1.358 . S
C2403 C2405 1.356 . S
C2403 H2451 0.930 . S
C2404 N2401 1.279 . S
C2404 C2403 1.358 . S
C2404 H2407 0.930 . S
C2405 C2402 1.348 . S
C2405 C2403 1.356 . S
H2406 C2400 0.930 . S
H2407 C2404 0.930 . S
C2408 C2410 1.348 . S
C2408 C2411 1.356 . S
C2408 O2438 1.325 . S
N2409 C2412 1.314 . S
N2409 C2413 1.279 . S
C2410 C2408 1.348 . S
C2410 C2412 1.353 . S
C2410 H2452 0.929 . S
C2411 C2408 1.356 . S
C2411 C2413 1.358 . S
C2411 H2453 0.930 . S
C2412 N2409 1.314 . S
C2412 C2410 1.353 . S
C2412 H2454 0.930 . S
C2413 N2409 1.279 . S
C2413 C2411 1.358 . S
C2413 H2455 0.930 . S
C2414 C2415 1.348 . S
C2414 C2416 1.356 . S
C2414 O2439 1.325 . S
C2415 C2414 1.348 . S
C2415 C2417 1.353 . S
C2415 H2456 0.929 . S
C2416 C2414 1.356 . S
C2416 C2418 1.358 . S
C2416 H2457 0.930 . S
C2417 C2415 1.353 . S
C2417 N2419 1.314 . S
C2417 H2458 0.930 . S
C2418 C2416 1.358 . S
C2418 N2419 1.279 . S
C2418 H2459 0.930 . S
N2419 C2417 1.314 . S
N2419 C2418 1.279 . S
C2420 C2422 1.353 . S
C2420 N2423 1.314 . S
C2420 H2426 0.930 . S
C2421 N2423 1.279 . S
C2421 C2424 1.358 . S
C2421 H2427 0.930 . S
C2422 C2420 1.353 . S
C2422 C2425 1.348 . S
C2422 H2460 0.929 . S
N2423 Li2378 1.990 . S
N2423 C2420 1.314 . S
N2423 C2421 1.279 . S
C2424 C2421 1.358 . S
C2424 C2425 1.356 . S
C2424 H2461 0.930 . S
C2425 C2422 1.348 . S
C2425 C2424 1.356 . S
H2426 C2420 0.930 . S
H2427 C2421 0.930 . S
C2428 N2429 1.314 . S
C2428 C2430 1.353 . S
C2428 H2434 0.930 . S
N2429 Li2379 1.990 . S
N2429 C2428 1.314 . S
N2429 C2432 1.279 . S
C2430 C2428 1.353 . S
C2430 C2433 1.348 . S
C2430 H2462 0.929 . S
C2431 C2432 1.358 . S
C2431 C2433 1.356 . S
C2431 H2463 0.930 . S
C2432 N2429 1.279 . S
C2432 C2431 1.358 . S
C2432 H2435 0.930 . S
C2433 C2430 1.348 . S
C2433 C2431 1.356 . S
H2434 C2428 0.930 . S
H2435 C2432 0.930 . S
O2436 Li2376 1.956 . S
O2436 Li2377 1.970 . S
O2436 Li2378 1.961 . S
O2436 C2380 1.325 . S
O2437 Li2376 1.970 . S
O2437 Li2377 1.956 . S
O2437 Li2379 1.961 . S
O2437 C2386 1.325 . S
O2438 Li2376 1.961 . S
O2438 Li2378 1.956 . S
O2438 Li2379 1.970 . S
O2438 C2408 1.325 . S
O2439 Li2377 1.961 . S
O2439 Li2378 1.970 . S
O2439 Li2379 1.956 . S
O2439 C2414 1.325 . S
H2440 C2382 0.929 . S
H2441 C2383 0.930 . S
H2442 C2384 0.930 . S
H2443 C2385 0.930 . S
H2444 C2387 0.930 . S
H2445 C2389 0.929 . S
H2446 C2390 0.930 . S
H2447 C2391 0.930 . S
H2448 C2394 0.930 . S
H2449 C2397 0.929 . S
H2450 C2402 0.929 . S
H2451 C2403 0.930 . S
H2452 C2410 0.929 . S
H2453 C2411 0.930 . S
H2454 C2412 0.930 . S
H2455 C2413 0.930 . S
H2456 C2415 0.929 . S
H2457 C2416 0.930 . S
H2458 C2417 0.930 . S
H2459 C2418 0.930 . S
H2460 C2422 0.929 . S
H2461 C2424 0.930 . S
H2462 C2430 0.929 . S
H2463 C2431 0.930 . S
Li2464 N2481 1.990 . S
Li2464 O2524 1.956 . S
Li2464 O2525 1.970 . S
Li2464 O2526 1.961 . S
Li2465 N2489 1.990 . S
Li2465 O2524 1.970 . S
Li2465 O2525 1.956 . S
Li2465 O2527 1.961 . S
Li2466 N2511 1.990 . S
Li2466 O2524 1.961 . S
Li2466 O2526 1.956 . S
Li2466 O2527 1.970 . S
Li2467 N2517 1.990 . S
Li2467 O2525 1.961 . S
Li2467 O2526 1.970 . S
Li2467 O2527 1.956 . S
C2468 C2470 1.348 . S
C2468 C2471 1.356 . S
C2468 O2524 1.325 . S
N2469 C2472 1.314 . S
N2469 C2473 1.279 . S
C2470 C2468 1.348 . S
C2470 C2472 1.353 . S
C2470 H2528 0.929 . S
C2471 C2468 1.356 . S
C2471 C2473 1.358 . S
C2471 H2529 0.930 . S
C2472 N2469 1.314 . S
C2472 C2470 1.353 . S
C2472 H2530 0.930 . S
C2473 N2469 1.279 . S
C2473 C2471 1.358 . S
C2473 H2531 0.930 . S
C2474 C2477 1.348 . S
C2474 C2478 1.356 . S
C2474 O2525 1.325 . S
C2475 N2476 1.279 . S
C2475 C2478 1.358 . S
C2475 H2532 0.930 . S
N2476 C2475 1.279 . S
N2476 C2479 1.314 . S
C2477 C2474 1.348 . S
C2477 C2479 1.353 . S
C2477 H2533 0.929 . S
C2478 C2474 1.356 . S
C2478 C2475 1.358 . S
C2478 H2534 0.930 . S
C2479 N2476 1.314 . S
C2479 C2477 1.353 . S
C2479 H2535 0.930 . S
C2480 N2481 1.314 . S
C2480 C2485 1.353 . S
C2480 H2486 0.930 . S
N2481 Li2464 1.990 . S
N2481 C2480 1.314 . S
N2481 C2483 1.279 . S
C2482 C2483 1.358 . S
C2482 C2484 1.356 . S
C2482 H2536 0.930 . S
C2483 N2481 1.279 . S
C2483 C2482 1.358 . S
C2483 H2487 0.930 . S
C2484 C2482 1.356 . S
C2484 C2485 1.348 . S
C2485 C2480 1.353 . S
C2485 C2484 1.348 . S
C2485 H2537 0.929 . S
H2486 C2480 0.930 . S
H2487 C2483 0.930 . S
C2488 N2489 1.314 . S
C2488 C2490 1.353 . S
C2488 H2494 0.930 . S
N2489 Li2465 1.990 . S
N2489 C2488 1.314 . S
N2489 C2492 1.279 . S
C2490 C2488 1.353 . S
C2490 C2493 1.348 . S
C2490 H2538 0.929 . S
C2491 C2492 1.358 . S
C2491 C2493 1.356 . S
C2491 H2539 0.930 . S
C2492 N2489 1.279 . S
C2492 C2491 1.358 . S
C2492 H2495 0.930 . S
C2493 C2490 1.348 . S
C2493 C2491 1.356 . S
H2494 C2488 0.930 . S
H2495 C2492 0.930 . S
C2496 C2498 1.348 . S
C2496 C2499 1.356 . S
C2496 O2526 1.325 . S
N2497 C2500 1.314 . S
N2497 C2501 1.279 . S
C2498 C2496 1.348 . S
C2498 C2500 1.353 . S
C2498 H2540 0.929 . S
C2499 C2496 1.356 . S
C2499 C2501 1.358 . S
C2499 H2541 0.930 . S
C2500 N2497 1.314 . S
C2500 C2498 1.353 . S
C2500 H2542 0.930 . S
C2501 N2497 1.279 . S
C2501 C2499 1.358 . S
C2501 H2543 0.930 . S
C2502 C2503 1.348 . S
C2502 C2504 1.356 . S
C2502 O2527 1.325 . S
C2503 C2502 1.348 . S
C2503 C2505 1.353 . S
C2503 H2544 0.929 . S
C2504 C2502 1.356 . S
C2504 C2506 1.358 . S
C2504 H2545 0.930 . S
C2505 C2503 1.353 . S
C2505 N2507 1.314 . S
C2505 H2546 0.930 . S
C2506 C2504 1.358 . S
C2506 N2507 1.279 . S
C2506 H2547 0.930 . S
N2507 C2505 1.314 . S
N2507 C2506 1.279 . S
C2508 C2510 1.353 . S
C2508 N2511 1.314 . S
C2508 H2514 0.930 . S
C2509 N2511 1.279 . S
C2509 C2512 1.358 . S
C2509 H2515 0.930 . S
C2510 C2508 1.353 . S
C2510 C2513 1.348 . S
C2510 H2548 0.929 . S
N2511 Li2466 1.990 . S
N2511 C2508 1.314 . S
N2511 C2509 1.279 . S
C2512 C2509 1.358 . S
C2512 C2513 1.356 . S
C2512 H2549 0.930 . S
C2513 C2510 1.348 . S
C2513 C2512 1.356 . S
H2514 C2508 0.930 . S
H2515 C2509 0.930 . S
C2516 N2517 1.314 . S
C2516 C2518 1.353 . S
C2516 H2522 0.930 . S
N2517 Li2467 1.990 . S
N2517 C2516 1.314 . S
N2517 C2520 1.279 . S
C2518 C2516 1.353 . S
C2518 C2521 1.348 . S
C2518 H2550 0.929 . S
C2519 C2520 1.358 . S
C2519 C2521 1.356 . S
C2519 H2551 0.930 . S
C2520 N2517 1.279 . S
C2520 C2519 1.358 . S
C2520 H2523 0.930 . S
C2521 C2518 1.348 . S
C2521 C2519 1.356 . S
H2522 C2516 0.930 . S
H2523 C2520 0.930 . S
O2524 Li2464 1.956 . S
O2524 Li2465 1.970 . S
O2524 Li2466 1.961 . S
O2524 C2468 1.325 . S
O2525 Li2464 1.970 . S
O2525 Li2465 1.956 . S
O2525 Li2467 1.961 . S
O2525 C2474 1.325 . S
O2526 Li2464 1.961 . S
O2526 Li2466 1.956 . S
O2526 Li2467 1.970 . S
O2526 C2496 1.325 . S
O2527 Li2465 1.961 . S
O2527 Li2466 1.970 . S
O2527 Li2467 1.956 . S
O2527 C2502 1.325 . S
H2528 C2470 0.929 . S
H2529 C2471 0.930 . S
H2530 C2472 0.930 . S
H2531 C2473 0.930 . S
H2532 C2475 0.930 . S
H2533 C2477 0.929 . S
H2534 C2478 0.930 . S
H2535 C2479 0.930 . S
H2536 C2482 0.930 . S
H2537 C2485 0.929 . S
H2538 C2490 0.929 . S
H2539 C2491 0.930 . S
H2540 C2498 0.929 . S
H2541 C2499 0.930 . S
H2542 C2500 0.930 . S
H2543 C2501 0.930 . S
H2544 C2503 0.929 . S
H2545 C2504 0.930 . S
H2546 C2505 0.930 . S
H2547 C2506 0.930 . S
H2548 C2510 0.929 . S
H2549 C2512 0.930 . S
H2550 C2518 0.929 . S
H2551 C2519 0.930 . S
Li2552 N2569 1.990 . S
Li2552 O2612 1.956 . S
Li2552 O2613 1.970 . S
Li2552 O2614 1.961 . S
Li2553 N2577 1.990 . S
Li2553 O2612 1.970 . S
Li2553 O2613 1.956 . S
Li2553 O2615 1.961 . S
Li2554 N2599 1.990 . S
Li2554 O2612 1.961 . S
Li2554 O2614 1.956 . S
Li2554 O2615 1.970 . S
Li2555 N2605 1.990 . S
Li2555 O2613 1.961 . S
Li2555 O2614 1.970 . S
Li2555 O2615 1.956 . S
C2556 C2558 1.348 . S
C2556 C2559 1.356 . S
C2556 O2612 1.325 . S
N2557 C2560 1.314 . S
N2557 C2561 1.279 . S
C2558 C2556 1.348 . S
C2558 C2560 1.353 . S
C2558 H2616 0.929 . S
C2559 C2556 1.356 . S
C2559 C2561 1.358 . S
C2559 H2617 0.930 . S
C2560 N2557 1.314 . S
C2560 C2558 1.353 . S
C2560 H2618 0.930 . S
C2561 N2557 1.279 . S
C2561 C2559 1.358 . S
C2561 H2619 0.930 . S
C2562 C2565 1.348 . S
C2562 C2566 1.356 . S
C2562 O2613 1.325 . S
C2563 N2564 1.279 . S
C2563 C2566 1.358 . S
C2563 H2620 0.930 . S
N2564 C2563 1.279 . S
N2564 C2567 1.314 . S
C2565 C2562 1.348 . S
C2565 C2567 1.353 . S
C2565 H2621 0.929 . S
C2566 C2562 1.356 . S
C2566 C2563 1.358 . S
C2566 H2622 0.930 . S
C2567 N2564 1.314 . S
C2567 C2565 1.353 . S
C2567 H2623 0.930 . S
C2568 N2569 1.314 . S
C2568 C2573 1.353 . S
C2568 H2574 0.930 . S
N2569 Li2552 1.990 . S
N2569 C2568 1.314 . S
N2569 C2571 1.279 . S
C2570 C2571 1.358 . S
C2570 C2572 1.356 . S
C2570 H2624 0.930 . S
C2571 N2569 1.279 . S
C2571 C2570 1.358 . S
C2571 H2575 0.930 . S
C2572 C2570 1.356 . S
C2572 C2573 1.348 . S
C2573 C2568 1.353 . S
C2573 C2572 1.348 . S
C2573 H2625 0.929 . S
H2574 C2568 0.930 . S
H2575 C2571 0.930 . S
C2576 N2577 1.314 . S
C2576 C2578 1.353 . S
C2576 H2582 0.930 . S
N2577 Li2553 1.990 . S
N2577 C2576 1.314 . S
N2577 C2580 1.279 . S
C2578 C2576 1.353 . S
C2578 C2581 1.348 . S
C2578 H2626 0.929 . S
C2579 C2580 1.358 . S
C2579 C2581 1.356 . S
C2579 H2627 0.930 . S
C2580 N2577 1.279 . S
C2580 C2579 1.358 . S
C2580 H2583 0.930 . S
C2581 C2578 1.348 . S
C2581 C2579 1.356 . S
H2582 C2576 0.930 . S
H2583 C2580 0.930 . S
C2584 C2586 1.348 . S
C2584 C2587 1.356 . S
C2584 O2614 1.325 . S
N2585 C2588 1.314 . S
N2585 C2589 1.279 . S
C2586 C2584 1.348 . S
C2586 C2588 1.353 . S
C2586 H2628 0.929 . S
C2587 C2584 1.356 . S
C2587 C2589 1.358 . S
C2587 H2629 0.930 . S
C2588 N2585 1.314 . S
C2588 C2586 1.353 . S
C2588 H2630 0.930 . S
C2589 N2585 1.279 . S
C2589 C2587 1.358 . S
C2589 H2631 0.930 . S
C2590 C2591 1.348 . S
C2590 C2592 1.356 . S
C2590 O2615 1.325 . S
C2591 C2590 1.348 . S
C2591 C2593 1.353 . S
C2591 H2632 0.929 . S
C2592 C2590 1.356 . S
C2592 C2594 1.358 . S
C2592 H2633 0.930 . S
C2593 C2591 1.353 . S
C2593 N2595 1.314 . S
C2593 H2634 0.930 . S
C2594 C2592 1.358 . S
C2594 N2595 1.279 . S
C2594 H2635 0.930 . S
N2595 C2593 1.314 . S
N2595 C2594 1.279 . S
C2596 C2598 1.353 . S
C2596 N2599 1.314 . S
C2596 H2602 0.930 . S
C2597 N2599 1.279 . S
C2597 C2600 1.358 . S
C2597 H2603 0.930 . S
C2598 C2596 1.353 . S
C2598 C2601 1.348 . S
C2598 H2636 0.929 . S
N2599 Li2554 1.990 . S
N2599 C2596 1.314 . S
N2599 C2597 1.279 . S
C2600 C2597 1.358 . S
C2600 C2601 1.356 . S
C2600 H2637 0.930 . S
C2601 C2598 1.348 . S
C2601 C2600 1.356 . S
H2602 C2596 0.930 . S
H2603 C2597 0.930 . S
C2604 N2605 1.314 . S
C2604 C2606 1.353 . S
C2604 H2610 0.930 . S
N2605 Li2555 1.990 . S
N2605 C2604 1.314 . S
N2605 C2608 1.279 . S
C2606 C2604 1.353 . S
C2606 C2609 1.348 . S
C2606 H2638 0.929 . S
C2607 C2608 1.358 . S
C2607 C2609 1.356 . S
C2607 H2639 0.930 . S
C2608 N2605 1.279 . S
C2608 C2607 1.358 . S
C2608 H2611 0.930 . S
C2609 C2606 1.348 . S
C2609 C2607 1.356 . S
H2610 C2604 0.930 . S
H2611 C2608 0.930 . S
O2612 Li2552 1.956 . S
O2612 Li2553 1.970 . S
O2612 Li2554 1.961 . S
O2612 C2556 1.325 . S
O2613 Li2552 1.970 . S
O2613 Li2553 1.956 . S
O2613 Li2555 1.961 . S
O2613 C2562 1.325 . S
O2614 Li2552 1.961 . S
O2614 Li2554 1.956 . S
O2614 Li2555 1.970 . S
O2614 C2584 1.325 . S
O2615 Li2553 1.961 . S
O2615 Li2554 1.970 . S
O2615 Li2555 1.956 . S
O2615 C2590 1.325 . S
H2616 C2558 0.929 . S
H2617 C2559 0.930 . S
H2618 C2560 0.930 . S
H2619 C2561 0.930 . S
H2620 C2563 0.930 . S
H2621 C2565 0.929 . S
H2622 C2566 0.930 . S
H2623 C2567 0.930 . S
H2624 C2570 0.930 . S
H2625 C2573 0.929 . S
H2626 C2578 0.929 . S
H2627 C2579 0.930 . S
H2628 C2586 0.929 . S
H2629 C2587 0.930 . S
H2630 C2588 0.930 . S
H2631 C2589 0.930 . S
H2632 C2591 0.929 . S
H2633 C2592 0.930 . S
H2634 C2593 0.930 . S
H2635 C2594 0.930 . S
H2636 C2598 0.929 . S
H2637 C2600 0.930 . S
H2638 C2606 0.929 . S
H2639 C2607 0.930 . S
Li2640 N2657 1.990 . S
Li2640 O2700 1.956 . S
Li2640 O2701 1.970 . S
Li2640 O2702 1.961 . S
Li2641 N2665 1.990 . S
Li2641 O2700 1.970 . S
Li2641 O2701 1.956 . S
Li2641 O2703 1.961 . S
Li2642 N2687 1.990 . S
Li2642 O2700 1.961 . S
Li2642 O2702 1.956 . S
Li2642 O2703 1.970 . S
Li2643 N2693 1.990 . S
Li2643 O2701 1.961 . S
Li2643 O2702 1.970 . S
Li2643 O2703 1.956 . S
C2644 C2646 1.348 . S
C2644 C2647 1.356 . S
C2644 O2700 1.325 . S
N2645 C2648 1.314 . S
N2645 C2649 1.279 . S
C2646 C2644 1.348 . S
C2646 C2648 1.353 . S
C2646 H2704 0.929 . S
C2647 C2644 1.356 . S
C2647 C2649 1.358 . S
C2647 H2705 0.930 . S
C2648 N2645 1.314 . S
C2648 C2646 1.353 . S
C2648 H2706 0.930 . S
C2649 N2645 1.279 . S
C2649 C2647 1.358 . S
C2649 H2707 0.930 . S
C2650 C2653 1.348 . S
C2650 C2654 1.356 . S
C2650 O2701 1.325 . S
C2651 N2652 1.279 . S
C2651 C2654 1.358 . S
C2651 H2708 0.930 . S
N2652 C2651 1.279 . S
N2652 C2655 1.314 . S
C2653 C2650 1.348 . S
C2653 C2655 1.353 . S
C2653 H2709 0.929 . S
C2654 C2650 1.356 . S
C2654 C2651 1.358 . S
C2654 H2710 0.930 . S
C2655 N2652 1.314 . S
C2655 C2653 1.353 . S
C2655 H2711 0.930 . S
C2656 N2657 1.314 . S
C2656 C2661 1.353 . S
C2656 H2662 0.930 . S
N2657 Li2640 1.990 . S
N2657 C2656 1.314 . S
N2657 C2659 1.279 . S
C2658 C2659 1.358 . S
C2658 C2660 1.356 . S
C2658 H2712 0.930 . S
C2659 N2657 1.279 . S
C2659 C2658 1.358 . S
C2659 H2663 0.930 . S
C2660 C2658 1.356 . S
C2660 C2661 1.348 . S
C2661 C2656 1.353 . S
C2661 C2660 1.348 . S
C2661 H2713 0.929 . S
H2662 C2656 0.930 . S
H2663 C2659 0.930 . S
C2664 N2665 1.314 . S
C2664 C2666 1.353 . S
C2664 H2670 0.930 . S
N2665 Li2641 1.990 . S
N2665 C2664 1.314 . S
N2665 C2668 1.279 . S
C2666 C2664 1.353 . S
C2666 C2669 1.348 . S
C2666 H2714 0.929 . S
C2667 C2668 1.358 . S
C2667 C2669 1.356 . S
C2667 H2715 0.930 . S
C2668 N2665 1.279 . S
C2668 C2667 1.358 . S
C2668 H2671 0.930 . S
C2669 C2666 1.348 . S
C2669 C2667 1.356 . S
H2670 C2664 0.930 . S
H2671 C2668 0.930 . S
C2672 C2674 1.348 . S
C2672 C2675 1.356 . S
C2672 O2702 1.325 . S
N2673 C2676 1.314 . S
N2673 C2677 1.279 . S
C2674 C2672 1.348 . S
C2674 C2676 1.353 . S
C2674 H2716 0.929 . S
C2675 C2672 1.356 . S
C2675 C2677 1.358 . S
C2675 H2717 0.930 . S
C2676 N2673 1.314 . S
C2676 C2674 1.353 . S
C2676 H2718 0.930 . S
C2677 N2673 1.279 . S
C2677 C2675 1.358 . S
C2677 H2719 0.930 . S
C2678 C2679 1.348 . S
C2678 C2680 1.356 . S
C2678 O2703 1.325 . S
C2679 C2678 1.348 . S
C2679 C2681 1.353 . S
C2679 H2720 0.929 . S
C2680 C2678 1.356 . S
C2680 C2682 1.358 . S
C2680 H2721 0.930 . S
C2681 C2679 1.353 . S
C2681 N2683 1.314 . S
C2681 H2722 0.930 . S
C2682 C2680 1.358 . S
C2682 N2683 1.279 . S
C2682 H2723 0.930 . S
N2683 C2681 1.314 . S
N2683 C2682 1.279 . S
C2684 C2686 1.353 . S
C2684 N2687 1.314 . S
C2684 H2690 0.930 . S
C2685 N2687 1.279 . S
C2685 C2688 1.358 . S
C2685 H2691 0.930 . S
C2686 C2684 1.353 . S
C2686 C2689 1.348 . S
C2686 H2724 0.929 . S
N2687 Li2642 1.990 . S
N2687 C2684 1.314 . S
N2687 C2685 1.279 . S
C2688 C2685 1.358 . S
C2688 C2689 1.356 . S
C2688 H2725 0.930 . S
C2689 C2686 1.348 . S
C2689 C2688 1.356 . S
H2690 C2684 0.930 . S
H2691 C2685 0.930 . S
C2692 N2693 1.314 . S
C2692 C2694 1.353 . S
C2692 H2698 0.930 . S
N2693 Li2643 1.990 . S
N2693 C2692 1.314 . S
N2693 C2696 1.279 . S
C2694 C2692 1.353 . S
C2694 C2697 1.348 . S
C2694 H2726 0.929 . S
C2695 C2696 1.358 . S
C2695 C2697 1.356 . S
C2695 H2727 0.930 . S
C2696 N2693 1.279 . S
C2696 C2695 1.358 . S
C2696 H2699 0.930 . S
C2697 C2694 1.348 . S
C2697 C2695 1.356 . S
H2698 C2692 0.930 . S
H2699 C2696 0.930 . S
O2700 Li2640 1.956 . S
O2700 Li2641 1.970 . S
O2700 Li2642 1.961 . S
O2700 C2644 1.325 . S
O2701 Li2640 1.970 . S
O2701 Li2641 1.956 . S
O2701 Li2643 1.961 . S
O2701 C2650 1.325 . S
O2702 Li2640 1.961 . S
O2702 Li2642 1.956 . S
O2702 Li2643 1.970 . S
O2702 C2672 1.325 . S
O2703 Li2641 1.961 . S
O2703 Li2642 1.970 . S
O2703 Li2643 1.956 . S
O2703 C2678 1.325 . S
H2704 C2646 0.929 . S
H2705 C2647 0.930 . S
H2706 C2648 0.930 . S
H2707 C2649 0.930 . S
H2708 C2651 0.930 . S
H2709 C2653 0.929 . S
H2710 C2654 0.930 . S
H2711 C2655 0.930 . S
H2712 C2658 0.930 . S
H2713 C2661 0.929 . S
H2714 C2666 0.929 . S
H2715 C2667 0.930 . S
H2716 C2674 0.929 . S
H2717 C2675 0.930 . S
H2718 C2676 0.930 . S
H2719 C2677 0.930 . S
H2720 C2679 0.929 . S
H2721 C2680 0.930 . S
H2722 C2681 0.930 . S
H2723 C2682 0.930 . S
H2724 C2686 0.929 . S
H2725 C2688 0.930 . S
H2726 C2694 0.929 . S
H2727 C2695 0.930 . S
Li2728 N2745 1.990 . S
Li2728 O2788 1.956 . S
Li2728 O2789 1.970 . S
Li2728 O2790 1.961 . S
Li2729 N2753 1.990 . S
Li2729 O2788 1.970 . S
Li2729 O2789 1.956 . S
Li2729 O2791 1.961 . S
Li2730 N2775 1.990 . S
Li2730 O2788 1.961 . S
Li2730 O2790 1.956 . S
Li2730 O2791 1.970 . S
Li2731 N2781 1.990 . S
Li2731 O2789 1.961 . S
Li2731 O2790 1.970 . S
Li2731 O2791 1.956 . S
C2732 C2734 1.348 . S
C2732 C2735 1.356 . S
C2732 O2788 1.325 . S
N2733 C2736 1.314 . S
N2733 C2737 1.279 . S
C2734 C2732 1.348 . S
C2734 C2736 1.353 . S
C2734 H2792 0.929 . S
C2735 C2732 1.356 . S
C2735 C2737 1.358 . S
C2735 H2793 0.930 . S
C2736 N2733 1.314 . S
C2736 C2734 1.353 . S
C2736 H2794 0.930 . S
C2737 N2733 1.279 . S
C2737 C2735 1.358 . S
C2737 H2795 0.930 . S
C2738 C2741 1.348 . S
C2738 C2742 1.356 . S
C2738 O2789 1.325 . S
C2739 N2740 1.279 . S
C2739 C2742 1.358 . S
C2739 H2796 0.930 . S
N2740 C2739 1.279 . S
N2740 C2743 1.314 . S
C2741 C2738 1.348 . S
C2741 C2743 1.353 . S
C2741 H2797 0.929 . S
C2742 C2738 1.356 . S
C2742 C2739 1.358 . S
C2742 H2798 0.930 . S
C2743 N2740 1.314 . S
C2743 C2741 1.353 . S
C2743 H2799 0.930 . S
C2744 N2745 1.314 . S
C2744 C2749 1.353 . S
C2744 H2750 0.930 . S
N2745 Li2728 1.990 . S
N2745 C2744 1.314 . S
N2745 C2747 1.279 . S
C2746 C2747 1.358 . S
C2746 C2748 1.356 . S
C2746 H2800 0.930 . S
C2747 N2745 1.279 . S
C2747 C2746 1.358 . S
C2747 H2751 0.930 . S
C2748 C2746 1.356 . S
C2748 C2749 1.348 . S
C2749 C2744 1.353 . S
C2749 C2748 1.348 . S
C2749 H2801 0.929 . S
H2750 C2744 0.930 . S
H2751 C2747 0.930 . S
C2752 N2753 1.314 . S
C2752 C2754 1.353 . S
C2752 H2758 0.930 . S
N2753 Li2729 1.990 . S
N2753 C2752 1.314 . S
N2753 C2756 1.279 . S
C2754 C2752 1.353 . S
C2754 C2757 1.348 . S
C2754 H2802 0.929 . S
C2755 C2756 1.358 . S
C2755 C2757 1.356 . S
C2755 H2803 0.930 . S
C2756 N2753 1.279 . S
C2756 C2755 1.358 . S
C2756 H2759 0.930 . S
C2757 C2754 1.348 . S
C2757 C2755 1.356 . S
H2758 C2752 0.930 . S
H2759 C2756 0.930 . S
C2760 C2762 1.348 . S
C2760 C2763 1.356 . S
C2760 O2790 1.325 . S
N2761 C2764 1.314 . S
N2761 C2765 1.279 . S
C2762 C2760 1.348 . S
C2762 C2764 1.353 . S
C2762 H2804 0.929 . S
C2763 C2760 1.356 . S
C2763 C2765 1.358 . S
C2763 H2805 0.930 . S
C2764 N2761 1.314 . S
C2764 C2762 1.353 . S
C2764 H2806 0.930 . S
C2765 N2761 1.279 . S
C2765 C2763 1.358 . S
C2765 H2807 0.930 . S
C2766 C2767 1.348 . S
C2766 C2768 1.356 . S
C2766 O2791 1.325 . S
C2767 C2766 1.348 . S
C2767 C2769 1.353 . S
C2767 H2808 0.929 . S
C2768 C2766 1.356 . S
C2768 C2770 1.358 . S
C2768 H2809 0.930 . S
C2769 C2767 1.353 . S
C2769 N2771 1.314 . S
C2769 H2810 0.930 . S
C2770 C2768 1.358 . S
C2770 N2771 1.279 . S
C2770 H2811 0.930 . S
N2771 C2769 1.314 . S
N2771 C2770 1.279 . S
C2772 C2774 1.353 . S
C2772 N2775 1.314 . S
C2772 H2778 0.930 . S
C2773 N2775 1.279 . S
C2773 C2776 1.358 . S
C2773 H2779 0.930 . S
C2774 C2772 1.353 . S
C2774 C2777 1.348 . S
C2774 H2812 0.929 . S
N2775 Li2730 1.990 . S
N2775 C2772 1.314 . S
N2775 C2773 1.279 . S
C2776 C2773 1.358 . S
C2776 C2777 1.356 . S
C2776 H2813 0.930 . S
C2777 C2774 1.348 . S
C2777 C2776 1.356 . S
H2778 C2772 0.930 . S
H2779 C2773 0.930 . S
C2780 N2781 1.314 . S
C2780 C2782 1.353 . S
C2780 H2786 0.930 . S
N2781 Li2731 1.990 . S
N2781 C2780 1.314 . S
N2781 C2784 1.279 . S
C2782 C2780 1.353 . S
C2782 C2785 1.348 . S
C2782 H2814 0.929 . S
C2783 C2784 1.358 . S
C2783 C2785 1.356 . S
C2783 H2815 0.930 . S
C2784 N2781 1.279 . S
C2784 C2783 1.358 . S
C2784 H2787 0.930 . S
C2785 C2782 1.348 . S
C2785 C2783 1.356 . S
H2786 C2780 0.930 . S
H2787 C2784 0.930 . S
O2788 Li2728 1.956 . S
O2788 Li2729 1.970 . S
O2788 Li2730 1.961 . S
O2788 C2732 1.325 . S
O2789 Li2728 1.970 . S
O2789 Li2729 1.956 . S
O2789 Li2731 1.961 . S
O2789 C2738 1.325 . S
O2790 Li2728 1.961 . S
O2790 Li2730 1.956 . S
O2790 Li2731 1.970 . S
O2790 C2760 1.325 . S
O2791 Li2729 1.961 . S
O2791 Li2730 1.970 . S
O2791 Li2731 1.956 . S
O2791 C2766 1.325 . S
H2792 C2734 0.929 . S
H2793 C2735 0.930 . S
H2794 C2736 0.930 . S
H2795 C2737 0.930 . S
H2796 C2739 0.930 . S
H2797 C2741 0.929 . S
H2798 C2742 0.930 . S
H2799 C2743 0.930 . S
H2800 C2746 0.930 . S
H2801 C2749 0.929 . S
H2802 C2754 0.929 . S
H2803 C2755 0.930 . S
H2804 C2762 0.929 . S
H2805 C2763 0.930 . S
H2806 C2764 0.930 . S
H2807 C2765 0.930 . S
H2808 C2767 0.929 . S
H2809 C2768 0.930 . S
H2810 C2769 0.930 . S
H2811 C2770 0.930 . S
H2812 C2774 0.929 . S
H2813 C2776 0.930 . S
H2814 C2782 0.929 . S
H2815 C2783 0.930 . S
C2816 C2817 1.349 . S
C2816 C2818 1.327 . S
C2816 H2841 0.950 . S
C2817 C2816 1.349 . S
C2817 C2833 1.349 . S
C2818 C2816 1.327 . S
C2818 C2837 1.429 . S
C2818 H2842 0.950 . S
C2819 C2836 1.574 . S
C2819 C2838 1.368 . S
C2819 H2843 0.949 . S
H2820 C2824 0.949 . S
C2821 C2822 1.349 . S
C2821 C2823 1.327 . S
C2821 H2844 0.950 . S
C2822 C2821 1.349 . S
C2822 C2834 1.349 . S
C2823 C2821 1.327 . S
C2823 C2839 1.429 . S
C2823 H2845 0.950 . S
C2824 H2820 0.949 . S
C2824 C2832 1.574 . S
C2824 C2840 1.368 . S
H2825 C2833 0.950 . S
H2826 C2831 0.950 . S
H2827 C2832 0.949 . S
H2828 C2834 0.950 . S
H2829 C2835 0.950 . S
H2830 C2836 0.949 . S
C2831 H2826 0.950 . S
C2831 C2833 1.327 . S
C2831 C2837 1.429 . S
C2832 C2824 1.574 . S
C2832 H2827 0.949 . S
C2832 C2838 1.368 . S
C2833 C2817 1.349 . S
C2833 H2825 0.950 . S
C2833 C2831 1.327 . S
C2834 C2822 1.349 . S
C2834 H2828 0.950 . S
C2834 C2835 1.327 . S
C2835 H2829 0.950 . S
C2835 C2834 1.327 . S
C2835 C2839 1.429 . S
C2836 C2819 1.574 . S
C2836 H2830 0.949 . S
C2836 C2840 1.368 . S
C2837 C2818 1.429 . S
C2837 C2831 1.429 . S
C2837 C2838 1.523 . S
C2838 C2819 1.368 . S
C2838 C2832 1.368 . S
C2838 C2837 1.523 . S
C2839 C2823 1.429 . S
C2839 C2835 1.429 . S
C2839 C2840 1.523 . S
C2840 C2824 1.368 . S
C2840 C2836 1.368 . S
C2840 C2839 1.523 . S
H2841 C2816 0.950 . S
H2842 C2818 0.950 . S
H2843 C2819 0.949 . S
H2844 C2821 0.950 . S
H2845 C2823 0.950 . S
C2846 C2847 1.349 . S
C2846 C2848 1.327 . S
C2846 H2871 0.950 . S
C2847 C2846 1.349 . S
C2847 C2863 1.349 . S
C2848 C2846 1.327 . S
C2848 C2867 1.429 . S
C2848 H2872 0.950 . S
C2849 C2866 1.574 . S
C2849 C2868 1.368 . S
C2849 H2873 0.949 . S
H2850 C2854 0.949 . S
C2851 C2852 1.349 . S
C2851 C2853 1.327 . S
C2851 H2874 0.950 . S
C2852 C2851 1.349 . S
C2852 C2864 1.349 . S
C2853 C2851 1.327 . S
C2853 C2869 1.429 . S
C2853 H2875 0.950 . S
C2854 H2850 0.949 . S
C2854 C2862 1.574 . S
C2854 C2870 1.368 . S
H2855 C2863 0.950 . S
H2856 C2861 0.950 . S
H2857 C2862 0.949 . S
H2858 C2864 0.950 . S
H2859 C2865 0.950 . S
H2860 C2866 0.949 . S
C2861 H2856 0.950 . S
C2861 C2863 1.327 . S
C2861 C2867 1.429 . S
C2862 C2854 1.574 . S
C2862 H2857 0.949 . S
C2862 C2868 1.368 . S
C2863 C2847 1.349 . S
C2863 H2855 0.950 . S
C2863 C2861 1.327 . S
C2864 C2852 1.349 . S
C2864 H2858 0.950 . S
C2864 C2865 1.327 . S
C2865 H2859 0.950 . S
C2865 C2864 1.327 . S
C2865 C2869 1.429 . S
C2866 C2849 1.574 . S
C2866 H2860 0.949 . S
C2866 C2870 1.368 . S
C2867 C2848 1.429 . S
C2867 C2861 1.429 . S
C2867 C2868 1.523 . S
C2868 C2849 1.368 . S
C2868 C2862 1.368 . S
C2868 C2867 1.523 . S
C2869 C2853 1.429 . S
C2869 C2865 1.429 . S
C2869 C2870 1.523 . S
C2870 C2854 1.368 . S
C2870 C2866 1.368 . S
C2870 C2869 1.523 . S
H2871 C2846 0.950 . S
H2872 C2848 0.950 . S
H2873 C2849 0.949 . S
H2874 C2851 0.950 . S
H2875 C2853 0.950 . S
C2876 C2877 1.349 . S
C2876 C2878 1.327 . S
C2876 H2901 0.950 . S
C2877 C2876 1.349 . S
C2877 C2893 1.349 . S
C2878 C2876 1.327 . S
C2878 C2897 1.429 . S
C2878 H2902 0.950 . S
C2879 C2896 1.574 . S
C2879 C2898 1.368 . S
C2879 H2903 0.949 . S
H2880 C2884 0.949 . S
C2881 C2882 1.349 . S
C2881 C2883 1.327 . S
C2881 H2904 0.950 . S
C2882 C2881 1.349 . S
C2882 C2894 1.349 . S
C2883 C2881 1.327 . S
C2883 C2899 1.429 . S
C2883 H2905 0.950 . S
C2884 H2880 0.949 . S
C2884 C2892 1.574 . S
C2884 C2900 1.368 . S
H2885 C2893 0.950 . S
H2886 C2891 0.950 . S
H2887 C2892 0.949 . S
H2888 C2894 0.950 . S
H2889 C2895 0.950 . S
H2890 C2896 0.949 . S
C2891 H2886 0.950 . S
C2891 C2893 1.327 . S
C2891 C2897 1.429 . S
C2892 C2884 1.574 . S
C2892 H2887 0.949 . S
C2892 C2898 1.368 . S
C2893 C2877 1.349 . S
C2893 H2885 0.950 . S
C2893 C2891 1.327 . S
C2894 C2882 1.349 . S
C2894 H2888 0.950 . S
C2894 C2895 1.327 . S
C2895 H2889 0.950 . S
C2895 C2894 1.327 . S
C2895 C2899 1.429 . S
C2896 C2879 1.574 . S
C2896 H2890 0.949 . S
C2896 C2900 1.368 . S
C2897 C2878 1.429 . S
C2897 C2891 1.429 . S
C2897 C2898 1.523 . S
C2898 C2879 1.368 . S
C2898 C2892 1.368 . S
C2898 C2897 1.523 . S
C2899 C2883 1.429 . S
C2899 C2895 1.429 . S
C2899 C2900 1.523 . S
C2900 C2884 1.368 . S
C2900 C2896 1.368 . S
C2900 C2899 1.523 . S
H2901 C2876 0.950 . S
H2902 C2878 0.950 . S
H2903 C2879 0.949 . S
H2904 C2881 0.950 . S
H2905 C2883 0.950 . S
C2906 C2907 1.349 . S
C2906 C2908 1.327 . S
C2906 H2931 0.950 . S
C2907 C2906 1.349 . S
C2907 C2923 1.349 . S
C2908 C2906 1.327 . S
C2908 C2927 1.429 . S
C2908 H2932 0.950 . S
C2909 C2926 1.574 . S
C2909 C2928 1.368 . S
C2909 H2933 0.949 . S
H2910 C2914 0.949 . S
C2911 C2912 1.349 . S
C2911 C2913 1.327 . S
C2911 H2934 0.950 . S
C2912 C2911 1.349 . S
C2912 C2924 1.349 . S
C2913 C2911 1.327 . S
C2913 C2929 1.429 . S
C2913 H2935 0.950 . S
C2914 H2910 0.949 . S
C2914 C2922 1.574 . S
C2914 C2930 1.368 . S
H2915 C2923 0.950 . S
H2916 C2921 0.950 . S
H2917 C2922 0.949 . S
H2918 C2924 0.950 . S
H2919 C2925 0.950 . S
H2920 C2926 0.949 . S
C2921 H2916 0.950 . S
C2921 C2923 1.327 . S
C2921 C2927 1.429 . S
C2922 C2914 1.574 . S
C2922 H2917 0.949 . S
C2922 C2928 1.368 . S
C2923 C2907 1.349 . S
C2923 H2915 0.950 . S
C2923 C2921 1.327 . S
C2924 C2912 1.349 . S
C2924 H2918 0.950 . S
C2924 C2925 1.327 . S
C2925 H2919 0.950 . S
C2925 C2924 1.327 . S
C2925 C2929 1.429 . S
C2926 C2909 1.574 . S
C2926 H2920 0.949 . S
C2926 C2930 1.368 . S
C2927 C2908 1.429 . S
C2927 C2921 1.429 . S
C2927 C2928 1.523 . S
C2928 C2909 1.368 . S
C2928 C2922 1.368 . S
C2928 C2927 1.523 . S
C2929 C2913 1.429 . S
C2929 C2925 1.429 . S
C2929 C2930 1.523 . S
C2930 C2914 1.368 . S
C2930 C2926 1.368 . S
C2930 C2929 1.523 . S
H2931 C2906 0.950 . S
H2932 C2908 0.950 . S
H2933 C2909 0.949 . S
H2934 C2911 0.950 . S
H2935 C2913 0.950 . S
C2936 C2937 1.349 . S
C2936 C2938 1.327 . S
C2936 H2961 0.950 . S
C2937 C2936 1.349 . S
C2937 C2953 1.349 . S
C2938 C2936 1.327 . S
C2938 C2957 1.429 . S
C2938 H2962 0.950 . S
C2939 C2956 1.574 . S
C2939 C2958 1.368 . S
C2939 H2963 0.949 . S
H2940 C2944 0.949 . S
C2941 C2942 1.349 . S
C2941 C2943 1.327 . S
C2941 H2964 0.950 . S
C2942 C2941 1.349 . S
C2942 C2954 1.349 . S
C2943 C2941 1.327 . S
C2943 C2959 1.429 . S
C2943 H2965 0.950 . S
C2944 H2940 0.949 . S
C2944 C2952 1.574 . S
C2944 C2960 1.368 . S
H2945 C2953 0.950 . S
H2946 C2951 0.950 . S
H2947 C2952 0.949 . S
H2948 C2954 0.950 . S
H2949 C2955 0.950 . S
H2950 C2956 0.949 . S
C2951 H2946 0.950 . S
C2951 C2953 1.327 . S
C2951 C2957 1.429 . S
C2952 C2944 1.574 . S
C2952 H2947 0.949 . S
C2952 C2958 1.368 . S
C2953 C2937 1.349 . S
C2953 H2945 0.950 . S
C2953 C2951 1.327 . S
C2954 C2942 1.349 . S
C2954 H2948 0.950 . S
C2954 C2955 1.327 . S
C2955 H2949 0.950 . S
C2955 C2954 1.327 . S
C2955 C2959 1.429 . S
C2956 C2939 1.574 . S
C2956 H2950 0.949 . S
C2956 C2960 1.368 . S
C2957 C2938 1.429 . S
C2957 C2951 1.429 . S
C2957 C2958 1.523 . S
C2958 C2939 1.368 . S
C2958 C2952 1.368 . S
C2958 C2957 1.523 . S
C2959 C2943 1.429 . S
C2959 C2955 1.429 . S
C2959 C2960 1.523 . S
C2960 C2944 1.368 . S
C2960 C2956 1.368 . S
C2960 C2959 1.523 . S
H2961 C2936 0.950 . S
H2962 C2938 0.950 . S
H2963 C2939 0.949 . S
H2964 C2941 0.950 . S
H2965 C2943 0.950 . S
C2966 C2967 1.349 . S
C2966 C2968 1.327 . S
C2966 H2991 0.950 . S
C2967 C2966 1.349 . S
C2967 C2983 1.349 . S
C2968 C2966 1.327 . S
C2968 C2987 1.429 . S
C2968 H2992 0.950 . S
C2969 C2986 1.574 . S
C2969 C2988 1.368 . S
C2969 H2993 0.949 . S
H2970 C2974 0.949 . S
C2971 C2972 1.349 . S
C2971 C2973 1.327 . S
C2971 H2994 0.950 . S
C2972 C2971 1.349 . S
C2972 C2984 1.349 . S
C2973 C2971 1.327 . S
C2973 C2989 1.429 . S
C2973 H2995 0.950 . S
C2974 H2970 0.949 . S
C2974 C2982 1.574 . S
C2974 C2990 1.368 . S
H2975 C2983 0.950 . S
H2976 C2981 0.950 . S
H2977 C2982 0.949 . S
H2978 C2984 0.950 . S
H2979 C2985 0.950 . S
H2980 C2986 0.949 . S
C2981 H2976 0.950 . S
C2981 C2983 1.327 . S
C2981 C2987 1.429 . S
C2982 C2974 1.574 . S
C2982 H2977 0.949 . S
C2982 C2988 1.368 . S
C2983 C2967 1.349 . S
C2983 H2975 0.950 . S
C2983 C2981 1.327 . S
C2984 C2972 1.349 . S
C2984 H2978 0.950 . S
C2984 C2985 1.327 . S
C2985 H2979 0.950 . S
C2985 C2984 1.327 . S
C2985 C2989 1.429 . S
C2986 C2969 1.574 . S
C2986 H2980 0.949 . S
C2986 C2990 1.368 . S
C2987 C2968 1.429 . S
C2987 C2981 1.429 . S
C2987 C2988 1.523 . S
C2988 C2969 1.368 . S
C2988 C2982 1.368 . S
C2988 C2987 1.523 . S
C2989 C2973 1.429 . S
C2989 C2985 1.429 . S
C2989 C2990 1.523 . S
C2990 C2974 1.368 . S
C2990 C2986 1.368 . S
C2990 C2989 1.523 . S
H2991 C2966 0.950 . S
H2992 C2968 0.950 . S
H2993 C2969 0.949 . S
H2994 C2971 0.950 . S
H2995 C2973 0.950 . S
C2996 C2997 1.349 . S
C2996 C2998 1.327 . S
C2996 H3021 0.950 . S
C2997 C2996 1.349 . S
C2997 C3013 1.349 . S
C2998 C2996 1.327 . S
C2998 C3017 1.429 . S
C2998 H3022 0.950 . S
C2999 C3016 1.574 . S
C2999 C3018 1.368 . S
C2999 H3023 0.949 . S
H3000 C3004 0.949 . S
C3001 C3002 1.349 . S
C3001 C3003 1.327 . S
C3001 H3024 0.950 . S
C3002 C3001 1.349 . S
C3002 C3014 1.349 . S
C3003 C3001 1.327 . S
C3003 C3019 1.429 . S
C3003 H3025 0.950 . S
C3004 H3000 0.949 . S
C3004 C3012 1.574 . S
C3004 C3020 1.368 . S
H3005 C3013 0.950 . S
H3006 C3011 0.950 . S
H3007 C3012 0.949 . S
H3008 C3014 0.950 . S
H3009 C3015 0.950 . S
H3010 C3016 0.949 . S
C3011 H3006 0.950 . S
C3011 C3013 1.327 . S
C3011 C3017 1.429 . S
C3012 C3004 1.574 . S
C3012 H3007 0.949 . S
C3012 C3018 1.368 . S
C3013 C2997 1.349 . S
C3013 H3005 0.950 . S
C3013 C3011 1.327 . S
C3014 C3002 1.349 . S
C3014 H3008 0.950 . S
C3014 C3015 1.327 . S
C3015 H3009 0.950 . S
C3015 C3014 1.327 . S
C3015 C3019 1.429 . S
C3016 C2999 1.574 . S
C3016 H3010 0.949 . S
C3016 C3020 1.368 . S
C3017 C2998 1.429 . S
C3017 C3011 1.429 . S
C3017 C3018 1.523 . S
C3018 C2999 1.368 . S
C3018 C3012 1.368 . S
C3018 C3017 1.523 . S
C3019 C3003 1.429 . S
C3019 C3015 1.429 . S
C3019 C3020 1.523 . S
C3020 C3004 1.368 . S
C3020 C3016 1.368 . S
C3020 C3019 1.523 . S
H3021 C2996 0.950 . S
H3022 C2998 0.950 . S
H3023 C2999 0.949 . S
H3024 C3001 0.950 . S
H3025 C3003 0.950 . S
C3026 C3027 1.349 . S
C3026 C3028 1.327 . S
C3026 H3051 0.950 . S
C3027 C3026 1.349 . S
C3027 C3043 1.349 . S
C3028 C3026 1.327 . S
C3028 C3047 1.429 . S
C3028 H3052 0.950 . S
C3029 C3046 1.574 . S
C3029 C3048 1.368 . S
C3029 H3053 0.949 . S
H3030 C3034 0.949 . S
C3031 C3032 1.349 . S
C3031 C3033 1.327 . S
C3031 H3054 0.950 . S
C3032 C3031 1.349 . S
C3032 C3044 1.349 . S
C3033 C3031 1.327 . S
C3033 C3049 1.429 . S
C3033 H3055 0.950 . S
C3034 H3030 0.949 . S
C3034 C3042 1.574 . S
C3034 C3050 1.368 . S
H3035 C3043 0.950 . S
H3036 C3041 0.950 . S
H3037 C3042 0.949 . S
H3038 C3044 0.950 . S
H3039 C3045 0.950 . S
H3040 C3046 0.949 . S
C3041 H3036 0.950 . S
C3041 C3043 1.327 . S
C3041 C3047 1.429 . S
C3042 C3034 1.574 . S
C3042 H3037 0.949 . S
C3042 C3048 1.368 . S
C3043 C3027 1.349 . S
C3043 H3035 0.950 . S
C3043 C3041 1.327 . S
C3044 C3032 1.349 . S
C3044 H3038 0.950 . S
C3044 C3045 1.327 . S
C3045 H3039 0.950 . S
C3045 C3044 1.327 . S
C3045 C3049 1.429 . S
C3046 C3029 1.574 . S
C3046 H3040 0.949 . S
C3046 C3050 1.368 . S
C3047 C3028 1.429 . S
C3047 C3041 1.429 . S
C3047 C3048 1.523 . S
C3048 C3029 1.368 . S
C3048 C3042 1.368 . S
C3048 C3047 1.523 . S
C3049 C3033 1.429 . S
C3049 C3045 1.429 . S
C3049 C3050 1.523 . S
C3050 C3034 1.368 . S
C3050 C3046 1.368 . S
C3050 C3049 1.523 . S
H3051 C3026 0.950 . S
H3052 C3028 0.950 . S
H3053 C3029 0.949 . S
H3054 C3031 0.950 . S
H3055 C3033 0.950 . S
C3056 C3057 1.349 . S
C3056 C3058 1.327 . S
C3056 H3081 0.950 . S
C3057 C3056 1.349 . S
C3057 C3073 1.349 . S
C3058 C3056 1.327 . S
C3058 C3077 1.429 . S
C3058 H3082 0.950 . S
C3059 C3076 1.574 . S
C3059 C3078 1.368 . S
C3059 H3083 0.949 . S
H3060 C3064 0.949 . S
C3061 C3062 1.349 . S
C3061 C3063 1.327 . S
C3061 H3084 0.950 . S
C3062 C3061 1.349 . S
C3062 C3074 1.349 . S
C3063 C3061 1.327 . S
C3063 C3079 1.429 . S
C3063 H3085 0.950 . S
C3064 H3060 0.949 . S
C3064 C3072 1.574 . S
C3064 C3080 1.368 . S
H3065 C3073 0.950 . S
H3066 C3071 0.950 . S
H3067 C3072 0.949 . S
H3068 C3074 0.950 . S
H3069 C3075 0.950 . S
H3070 C3076 0.949 . S
C3071 H3066 0.950 . S
C3071 C3073 1.327 . S
C3071 C3077 1.429 . S
C3072 C3064 1.574 . S
C3072 H3067 0.949 . S
C3072 C3078 1.368 . S
C3073 C3057 1.349 . S
C3073 H3065 0.950 . S
C3073 C3071 1.327 . S
C3074 C3062 1.349 . S
C3074 H3068 0.950 . S
C3074 C3075 1.327 . S
C3075 H3069 0.950 . S
C3075 C3074 1.327 . S
C3075 C3079 1.429 . S
C3076 C3059 1.574 . S
C3076 H3070 0.949 . S
C3076 C3080 1.368 . S
C3077 C3058 1.429 . S
C3077 C3071 1.429 . S
C3077 C3078 1.523 . S
C3078 C3059 1.368 . S
C3078 C3072 1.368 . S
C3078 C3077 1.523 . S
C3079 C3063 1.429 . S
C3079 C3075 1.429 . S
C3079 C3080 1.523 . S
C3080 C3064 1.368 . S
C3080 C3076 1.368 . S
C3080 C3079 1.523 . S
H3081 C3056 0.950 . S
H3082 C3058 0.950 . S
H3083 C3059 0.949 . S
H3084 C3061 0.950 . S
H3085 C3063 0.950 . S
C3086 C3087 1.349 . S
C3086 C3088 1.327 . S
C3086 H3111 0.950 . S
C3087 C3086 1.349 . S
C3087 C3103 1.349 . S
C3088 C3086 1.327 . S
C3088 C3107 1.429 . S
C3088 H3112 0.950 . S
C3089 C3106 1.574 . S
C3089 C3108 1.368 . S
C3089 H3113 0.949 . S
H3090 C3094 0.949 . S
C3091 C3092 1.349 . S
C3091 C3093 1.327 . S
C3091 H3114 0.950 . S
C3092 C3091 1.349 . S
C3092 C3104 1.349 . S
C3093 C3091 1.327 . S
C3093 C3109 1.429 . S
C3093 H3115 0.950 . S
C3094 H3090 0.949 . S
C3094 C3102 1.574 . S
C3094 C3110 1.368 . S
H3095 C3103 0.950 . S
H3096 C3101 0.950 . S
H3097 C3102 0.949 . S
H3098 C3104 0.950 . S
H3099 C3105 0.950 . S
H3100 C3106 0.949 . S
C3101 H3096 0.950 . S
C3101 C3103 1.327 . S
C3101 C3107 1.429 . S
C3102 C3094 1.574 . S
C3102 H3097 0.949 . S
C3102 C3108 1.368 . S
C3103 C3087 1.349 . S
C3103 H3095 0.950 . S
C3103 C3101 1.327 . S
C3104 C3092 1.349 . S
C3104 H3098 0.950 . S
C3104 C3105 1.327 . S
C3105 H3099 0.950 . S
C3105 C3104 1.327 . S
C3105 C3109 1.429 . S
C3106 C3089 1.574 . S
C3106 H3100 0.949 . S
C3106 C3110 1.368 . S
C3107 C3088 1.429 . S
C3107 C3101 1.429 . S
C3107 C3108 1.523 . S
C3108 C3089 1.368 . S
C3108 C3102 1.368 . S
C3108 C3107 1.523 . S
C3109 C3093 1.429 . S
C3109 C3105 1.429 . S
C3109 C3110 1.523 . S
C3110 C3094 1.368 . S
C3110 C3106 1.368 . S
C3110 C3109 1.523 . S
H3111 C3086 0.950 . S
H3112 C3088 0.950 . S
H3113 C3089 0.949 . S
H3114 C3091 0.950 . S
H3115 C3093 0.950 . S
C3116 C3117 1.349 . S
C3116 C3118 1.327 . S
C3116 H3141 0.950 . S
C3117 C3116 1.349 . S
C3117 C3133 1.349 . S
C3118 C3116 1.327 . S
C3118 C3137 1.429 . S
C3118 H3142 0.950 . S
C3119 C3136 1.574 . S
C3119 C3138 1.368 . S
C3119 H3143 0.949 . S
H3120 C3124 0.949 . S
C3121 C3122 1.349 . S
C3121 C3123 1.327 . S
C3121 H3144 0.950 . S
C3122 C3121 1.349 . S
C3122 C3134 1.349 . S
C3123 C3121 1.327 . S
C3123 C3139 1.429 . S
C3123 H3145 0.950 . S
C3124 H3120 0.949 . S
C3124 C3132 1.574 . S
C3124 C3140 1.368 . S
H3125 C3133 0.950 . S
H3126 C3131 0.950 . S
H3127 C3132 0.949 . S
H3128 C3134 0.950 . S
H3129 C3135 0.950 . S
H3130 C3136 0.949 . S
C3131 H3126 0.950 . S
C3131 C3133 1.327 . S
C3131 C3137 1.429 . S
C3132 C3124 1.574 . S
C3132 H3127 0.949 . S
C3132 C3138 1.368 . S
C3133 C3117 1.349 . S
C3133 H3125 0.950 . S
C3133 C3131 1.327 . S
C3134 C3122 1.349 . S
C3134 H3128 0.950 . S
C3134 C3135 1.327 . S
C3135 H3129 0.950 . S
C3135 C3134 1.327 . S
C3135 C3139 1.429 . S
C3136 C3119 1.574 . S
C3136 H3130 0.949 . S
C3136 C3140 1.368 . S
C3137 C3118 1.429 . S
C3137 C3131 1.429 . S
C3137 C3138 1.523 . S
C3138 C3119 1.368 . S
C3138 C3132 1.368 . S
C3138 C3137 1.523 . S
C3139 C3123 1.429 . S
C3139 C3135 1.429 . S
C3139 C3140 1.523 . S
C3140 C3124 1.368 . S
C3140 C3136 1.368 . S
C3140 C3139 1.523 . S
H3141 C3116 0.950 . S
H3142 C3118 0.950 . S
H3143 C3119 0.949 . S
H3144 C3121 0.950 . S
H3145 C3123 0.950 . S
C3146 C3147 1.349 . S
C3146 C3148 1.327 . S
C3146 H3171 0.950 . S
C3147 C3146 1.349 . S
C3147 C3163 1.349 . S
C3148 C3146 1.327 . S
C3148 C3167 1.429 . S
C3148 H3172 0.950 . S
C3149 C3166 1.574 . S
C3149 C3168 1.368 . S
C3149 H3173 0.949 . S
H3150 C3154 0.949 . S
C3151 C3152 1.349 . S
C3151 C3153 1.327 . S
C3151 H3174 0.950 . S
C3152 C3151 1.349 . S
C3152 C3164 1.349 . S
C3153 C3151 1.327 . S
C3153 C3169 1.429 . S
C3153 H3175 0.950 . S
C3154 H3150 0.949 . S
C3154 C3162 1.574 . S
C3154 C3170 1.368 . S
H3155 C3163 0.950 . S
H3156 C3161 0.950 . S
H3157 C3162 0.949 . S
H3158 C3164 0.950 . S
H3159 C3165 0.950 . S
H3160 C3166 0.949 . S
C3161 H3156 0.950 . S
C3161 C3163 1.327 . S
C3161 C3167 1.429 . S
C3162 C3154 1.574 . S
C3162 H3157 0.949 . S
C3162 C3168 1.368 . S
C3163 C3147 1.349 . S
C3163 H3155 0.950 . S
C3163 C3161 1.327 . S
C3164 C3152 1.349 . S
C3164 H3158 0.950 . S
C3164 C3165 1.327 . S
C3165 H3159 0.950 . S
C3165 C3164 1.327 . S
C3165 C3169 1.429 . S
C3166 C3149 1.574 . S
C3166 H3160 0.949 . S
C3166 C3170 1.368 . S
C3167 C3148 1.429 . S
C3167 C3161 1.429 . S
C3167 C3168 1.523 . S
C3168 C3149 1.368 . S
C3168 C3162 1.368 . S
C3168 C3167 1.523 . S
C3169 C3153 1.429 . S
C3169 C3165 1.429 . S
C3169 C3170 1.523 . S
C3170 C3154 1.368 . S
C3170 C3166 1.368 . S
C3170 C3169 1.523 . S
H3171 C3146 0.950 . S
H3172 C3148 0.950 . S
H3173 C3149 0.949 . S
H3174 C3151 0.950 . S
H3175 C3153 0.950 . S
C3176 C3177 1.349 . S
C3176 C3178 1.327 . S
C3176 H3201 0.950 . S
C3177 C3176 1.349 . S
C3177 C3193 1.349 . S
C3178 C3176 1.327 . S
C3178 C3197 1.429 . S
C3178 H3202 0.950 . S
C3179 C3196 1.574 . S
C3179 C3198 1.368 . S
C3179 H3203 0.949 . S
H3180 C3184 0.949 . S
C3181 C3182 1.349 . S
C3181 C3183 1.327 . S
C3181 H3204 0.950 . S
C3182 C3181 1.349 . S
C3182 C3194 1.349 . S
C3183 C3181 1.327 . S
C3183 C3199 1.429 . S
C3183 H3205 0.950 . S
C3184 H3180 0.949 . S
C3184 C3192 1.574 . S
C3184 C3200 1.368 . S
H3185 C3193 0.950 . S
H3186 C3191 0.950 . S
H3187 C3192 0.949 . S
H3188 C3194 0.950 . S
H3189 C3195 0.950 . S
H3190 C3196 0.949 . S
C3191 H3186 0.950 . S
C3191 C3193 1.327 . S
C3191 C3197 1.429 . S
C3192 C3184 1.574 . S
C3192 H3187 0.949 . S
C3192 C3198 1.368 . S
C3193 C3177 1.349 . S
C3193 H3185 0.950 . S
C3193 C3191 1.327 . S
C3194 C3182 1.349 . S
C3194 H3188 0.950 . S
C3194 C3195 1.327 . S
C3195 H3189 0.950 . S
C3195 C3194 1.327 . S
C3195 C3199 1.429 . S
C3196 C3179 1.574 . S
C3196 H3190 0.949 . S
C3196 C3200 1.368 . S
C3197 C3178 1.429 . S
C3197 C3191 1.429 . S
C3197 C3198 1.523 . S
C3198 C3179 1.368 . S
C3198 C3192 1.368 . S
C3198 C3197 1.523 . S
C3199 C3183 1.429 . S
C3199 C3195 1.429 . S
C3199 C3200 1.523 . S
C3200 C3184 1.368 . S
C3200 C3196 1.368 . S
C3200 C3199 1.523 . S
H3201 C3176 0.950 . S
H3202 C3178 0.950 . S
H3203 C3179 0.949 . S
H3204 C3181 0.950 . S
H3205 C3183 0.950 . S
C3206 C3207 1.349 . S
C3206 C3208 1.327 . S
C3206 H3231 0.950 . S
C3207 C3206 1.349 . S
C3207 C3223 1.349 . S
C3208 C3206 1.327 . S
C3208 C3227 1.429 . S
C3208 H3232 0.950 . S
C3209 C3226 1.574 . S
C3209 C3228 1.368 . S
C3209 H3233 0.949 . S
H3210 C3214 0.949 . S
C3211 C3212 1.349 . S
C3211 C3213 1.327 . S
C3211 H3234 0.950 . S
C3212 C3211 1.349 . S
C3212 C3224 1.349 . S
C3213 C3211 1.327 . S
C3213 C3229 1.429 . S
C3213 H3235 0.950 . S
C3214 H3210 0.949 . S
C3214 C3222 1.574 . S
C3214 C3230 1.368 . S
H3215 C3223 0.950 . S
H3216 C3221 0.950 . S
H3217 C3222 0.949 . S
H3218 C3224 0.950 . S
H3219 C3225 0.950 . S
H3220 C3226 0.949 . S
C3221 H3216 0.950 . S
C3221 C3223 1.327 . S
C3221 C3227 1.429 . S
C3222 C3214 1.574 . S
C3222 H3217 0.949 . S
C3222 C3228 1.368 . S
C3223 C3207 1.349 . S
C3223 H3215 0.950 . S
C3223 C3221 1.327 . S
C3224 C3212 1.349 . S
C3224 H3218 0.950 . S
C3224 C3225 1.327 . S
C3225 H3219 0.950 . S
C3225 C3224 1.327 . S
C3225 C3229 1.429 . S
C3226 C3209 1.574 . S
C3226 H3220 0.949 . S
C3226 C3230 1.368 . S
C3227 C3208 1.429 . S
C3227 C3221 1.429 . S
C3227 C3228 1.523 . S
C3228 C3209 1.368 . S
C3228 C3222 1.368 . S
C3228 C3227 1.523 . S
C3229 C3213 1.429 . S
C3229 C3225 1.429 . S
C3229 C3230 1.523 . S
C3230 C3214 1.368 . S
C3230 C3226 1.368 . S
C3230 C3229 1.523 . S
H3231 C3206 0.950 . S
H3232 C3208 0.950 . S
H3233 C3209 0.949 . S
H3234 C3211 0.950 . S
H3235 C3213 0.950 . S
C3236 C3237 1.349 . S
C3236 C3238 1.327 . S
C3236 H3261 0.950 . S
C3237 C3236 1.349 . S
C3237 C3253 1.349 . S
C3238 C3236 1.327 . S
C3238 C3257 1.429 . S
C3238 H3262 0.950 . S
C3239 C3256 1.574 . S
C3239 C3258 1.368 . S
C3239 H3263 0.949 . S
H3240 C3244 0.949 . S
C3241 C3242 1.349 . S
C3241 C3243 1.327 . S
C3241 H3264 0.950 . S
C3242 C3241 1.349 . S
C3242 C3254 1.349 . S
C3243 C3241 1.327 . S
C3243 C3259 1.429 . S
C3243 H3265 0.950 . S
C3244 H3240 0.949 . S
C3244 C3252 1.574 . S
C3244 C3260 1.368 . S
H3245 C3253 0.950 . S
H3246 C3251 0.950 . S
H3247 C3252 0.949 . S
H3248 C3254 0.950 . S
H3249 C3255 0.950 . S
H3250 C3256 0.949 . S
C3251 H3246 0.950 . S
C3251 C3253 1.327 . S
C3251 C3257 1.429 . S
C3252 C3244 1.574 . S
C3252 H3247 0.949 . S
C3252 C3258 1.368 . S
C3253 C3237 1.349 . S
C3253 H3245 0.950 . S
C3253 C3251 1.327 . S
C3254 C3242 1.349 . S
C3254 H3248 0.950 . S
C3254 C3255 1.327 . S
C3255 H3249 0.950 . S
C3255 C3254 1.327 . S
C3255 C3259 1.429 . S
C3256 C3239 1.574 . S
C3256 H3250 0.949 . S
C3256 C3260 1.368 . S
C3257 C3238 1.429 . S
C3257 C3251 1.429 . S
C3257 C3258 1.523 . S
C3258 C3239 1.368 . S
C3258 C3252 1.368 . S
C3258 C3257 1.523 . S
C3259 C3243 1.429 . S
C3259 C3255 1.429 . S
C3259 C3260 1.523 . S
C3260 C3244 1.368 . S
C3260 C3256 1.368 . S
C3260 C3259 1.523 . S
H3261 C3236 0.950 . S
H3262 C3238 0.950 . S
H3263 C3239 0.949 . S
H3264 C3241 0.950 . S
H3265 C3243 0.950 . S
C3266 C3267 1.349 . S
C3266 C3268 1.327 . S
C3266 H3291 0.950 . S
C3267 C3266 1.349 . S
C3267 C3283 1.349 . S
C3268 C3266 1.327 . S
C3268 C3287 1.429 . S
C3268 H3292 0.950 . S
C3269 C3286 1.574 . S
C3269 C3288 1.368 . S
C3269 H3293 0.949 . S
H3270 C3274 0.949 . S
C3271 C3272 1.349 . S
C3271 C3273 1.327 . S
C3271 H3294 0.950 . S
C3272 C3271 1.349 . S
C3272 C3284 1.349 . S
C3273 C3271 1.327 . S
C3273 C3289 1.429 . S
C3273 H3295 0.950 . S
C3274 H3270 0.949 . S
C3274 C3282 1.574 . S
C3274 C3290 1.368 . S
H3275 C3283 0.950 . S
H3276 C3281 0.950 . S
H3277 C3282 0.949 . S
H3278 C3284 0.950 . S
H3279 C3285 0.950 . S
H3280 C3286 0.949 . S
C3281 H3276 0.950 . S
C3281 C3283 1.327 . S
C3281 C3287 1.429 . S
C3282 C3274 1.574 . S
C3282 H3277 0.949 . S
C3282 C3288 1.368 . S
C3283 C3267 1.349 . S
C3283 H3275 0.950 . S
C3283 C3281 1.327 . S
C3284 C3272 1.349 . S
C3284 H3278 0.950 . S
C3284 C3285 1.327 . S
C3285 H3279 0.950 . S
C3285 C3284 1.327 . S
C3285 C3289 1.429 . S
C3286 C3269 1.574 . S
C3286 H3280 0.949 . S
C3286 C3290 1.368 . S
C3287 C3268 1.429 . S
C3287 C3281 1.429 . S
C3287 C3288 1.523 . S
C3288 C3269 1.368 . S
C3288 C3282 1.368 . S
C3288 C3287 1.523 . S
C3289 C3273 1.429 . S
C3289 C3285 1.429 . S
C3289 C3290 1.523 . S
C3290 C3274 1.368 . S
C3290 C3286 1.368 . S
C3290 C3289 1.523 . S
H3291 C3266 0.950 . S
H3292 C3268 0.950 . S
H3293 C3269 0.949 . S
H3294 C3271 0.950 . S
H3295 C3273 0.950 . S
C3296 C3297 1.349 . S
C3296 C3298 1.327 . S
C3296 H3321 0.950 . S
C3297 C3296 1.349 . S
C3297 C3313 1.349 . S
C3298 C3296 1.327 . S
C3298 C3317 1.429 . S
C3298 H3322 0.950 . S
C3299 C3316 1.574 1_655 S
C3299 C3318 1.368 . S
C3299 H3323 0.949 . S
H3300 C3304 0.949 . S
C3301 C3302 1.349 . S
C3301 C3303 1.327 . S
C3301 H3324 0.950 . S
C3302 C3301 1.349 . S
C3302 C3314 1.349 . S
C3303 C3301 1.327 . S
C3303 C3319 1.429 . S
C3303 H3325 0.950 . S
C3304 H3300 0.949 . S
C3304 C3312 1.574 1_455 S
C3304 C3320 1.368 . S
H3305 C3313 0.950 . S
H3306 C3311 0.950 . S
H3307 C3312 0.949 . S
H3308 C3314 0.950 . S
H3309 C3315 0.950 . S
H3310 C3316 0.949 . S
C3311 H3306 0.950 . S
C3311 C3313 1.327 . S
C3311 C3317 1.429 . S
C3312 C3304 1.574 1_655 S
C3312 H3307 0.949 . S
C3312 C3318 1.368 . S
C3313 C3297 1.349 . S
C3313 H3305 0.950 . S
C3313 C3311 1.327 . S
C3314 C3302 1.349 . S
C3314 H3308 0.950 . S
C3314 C3315 1.327 . S
C3315 H3309 0.950 . S
C3315 C3314 1.327 . S
C3315 C3319 1.429 . S
C3316 C3299 1.574 1_455 S
C3316 H3310 0.949 . S
C3316 C3320 1.368 . S
C3317 C3298 1.429 . S
C3317 C3311 1.429 . S
C3317 C3318 1.523 . S
C3318 C3299 1.368 . S
C3318 C3312 1.368 . S
C3318 C3317 1.523 . S
C3319 C3303 1.429 . S
C3319 C3315 1.429 . S
C3319 C3320 1.523 . S
C3320 C3304 1.368 . S
C3320 C3316 1.368 . S
C3320 C3319 1.523 . S
H3321 C3296 0.950 . S
H3322 C3298 0.950 . S
H3323 C3299 0.949 . S
H3324 C3301 0.950 . S
H3325 C3303 0.950 . S
C3326 C3327 1.349 . S
C3326 C3328 1.327 . S
C3326 H3351 0.950 . S
C3327 C3326 1.349 . S
C3327 C3343 1.349 . S
C3328 C3326 1.327 . S
C3328 C3347 1.429 . S
C3328 H3352 0.950 . S
C3329 C3346 1.574 1_545 S
C3329 C3348 1.368 . S
C3329 H3353 0.949 . S
H3330 C3334 0.949 . S
C3331 C3332 1.349 . S
C3331 C3333 1.327 . S
C3331 H3354 0.950 . S
C3332 C3331 1.349 . S
C3332 C3344 1.349 . S
C3333 C3331 1.327 . S
C3333 C3349 1.429 . S
C3333 H3355 0.950 . S
C3334 H3330 0.949 . S
C3334 C3342 1.574 1_565 S
C3334 C3350 1.368 . S
H3335 C3343 0.950 . S
H3336 C3341 0.950 . S
H3337 C3342 0.949 . S
H3338 C3344 0.950 . S
H3339 C3345 0.950 . S
H3340 C3346 0.949 . S
C3341 H3336 0.950 . S
C3341 C3343 1.327 . S
C3341 C3347 1.429 . S
C3342 C3334 1.574 1_545 S
C3342 H3337 0.949 . S
C3342 C3348 1.368 . S
C3343 C3327 1.349 . S
C3343 H3335 0.950 . S
C3343 C3341 1.327 . S
C3344 C3332 1.349 . S
C3344 H3338 0.950 . S
C3344 C3345 1.327 . S
C3345 H3339 0.950 . S
C3345 C3344 1.327 . S
C3345 C3349 1.429 . S
C3346 C3329 1.574 1_565 S
C3346 H3340 0.949 . S
C3346 C3350 1.368 . S
C3347 C3328 1.429 . S
C3347 C3341 1.429 . S
C3347 C3348 1.523 . S
C3348 C3329 1.368 . S
C3348 C3342 1.368 . S
C3348 C3347 1.523 . S
C3349 C3333 1.429 . S
C3349 C3345 1.429 . S
C3349 C3350 1.523 . S
C3350 C3334 1.368 . S
C3350 C3346 1.368 . S
C3350 C3349 1.523 . S
H3351 C3326 0.950 . S
H3352 C3328 0.950 . S
H3353 C3329 0.949 . S
H3354 C3331 0.950 . S
H3355 C3333 0.950 . S
C3356 C3357 1.349 . S
C3356 C3358 1.327 . S
C3356 H3381 0.950 . S
C3357 C3356 1.349 . S
C3357 C3373 1.349 . S
C3358 C3356 1.327 . S
C3358 C3377 1.429 . S
C3358 H3382 0.950 . S
C3359 C3376 1.574 1_455 S
C3359 C3378 1.368 . S
C3359 H3383 0.949 . S
H3360 C3364 0.949 . S
C3361 C3362 1.349 . S
C3361 C3363 1.327 . S
C3361 H3384 0.950 . S
C3362 C3361 1.349 . S
C3362 C3374 1.349 . S
C3363 C3361 1.327 . S
C3363 C3379 1.429 . S
C3363 H3385 0.950 . S
C3364 H3360 0.949 . S
C3364 C3372 1.574 1_655 S
C3364 C3380 1.368 . S
H3365 C3373 0.950 . S
H3366 C3371 0.950 . S
H3367 C3372 0.949 . S
H3368 C3374 0.950 . S
H3369 C3375 0.950 . S
H3370 C3376 0.949 . S
C3371 H3366 0.950 . S
C3371 C3373 1.327 . S
C3371 C3377 1.429 . S
C3372 C3364 1.574 1_455 S
C3372 H3367 0.949 . S
C3372 C3378 1.368 . S
C3373 C3357 1.349 . S
C3373 H3365 0.950 . S
C3373 C3371 1.327 . S
C3374 C3362 1.349 . S
C3374 H3368 0.950 . S
C3374 C3375 1.327 . S
C3375 H3369 0.950 . S
C3375 C3374 1.327 . S
C3375 C3379 1.429 . S
C3376 C3359 1.574 1_655 S
C3376 H3370 0.949 . S
C3376 C3380 1.368 . S
C3377 C3358 1.429 . S
C3377 C3371 1.429 . S
C3377 C3378 1.523 . S
C3378 C3359 1.368 . S
C3378 C3372 1.368 . S
C3378 C3377 1.523 . S
C3379 C3363 1.429 . S
C3379 C3375 1.429 . S
C3379 C3380 1.523 . S
C3380 C3364 1.368 . S
C3380 C3376 1.368 . S
C3380 C3379 1.523 . S
H3381 C3356 0.950 . S
H3382 C3358 0.950 . S
H3383 C3359 0.949 . S
H3384 C3361 0.950 . S
H3385 C3363 0.950 . S
C3386 C3387 1.349 . S
C3386 C3388 1.327 . S
C3386 H3411 0.950 . S
C3387 C3386 1.349 . S
C3387 C3403 1.349 . S
C3388 C3386 1.327 . S
C3388 C3407 1.429 . S
C3388 H3412 0.950 . S
C3389 C3406 1.574 1_565 S
C3389 C3408 1.368 . S
C3389 H3413 0.949 . S
H3390 C3394 0.949 . S
C3391 C3392 1.349 . S
C3391 C3393 1.327 . S
C3391 H3414 0.950 . S
C3392 C3391 1.349 . S
C3392 C3404 1.349 . S
C3393 C3391 1.327 . S
C3393 C3409 1.429 . S
C3393 H3415 0.950 . S
C3394 H3390 0.949 . S
C3394 C3402 1.574 1_545 S
C3394 C3410 1.368 . S
H3395 C3403 0.950 . S
H3396 C3401 0.950 . S
H3397 C3402 0.949 . S
H3398 C3404 0.950 . S
H3399 C3405 0.950 . S
H3400 C3406 0.949 . S
C3401 H3396 0.950 . S
C3401 C3403 1.327 . S
C3401 C3407 1.429 . S
C3402 C3394 1.574 1_565 S
C3402 H3397 0.949 . S
C3402 C3408 1.368 . S
C3403 C3387 1.349 . S
C3403 H3395 0.950 . S
C3403 C3401 1.327 . S
C3404 C3392 1.349 . S
C3404 H3398 0.950 . S
C3404 C3405 1.327 . S
C3405 H3399 0.950 . S
C3405 C3404 1.327 . S
C3405 C3409 1.429 . S
C3406 C3389 1.574 1_545 S
C3406 H3400 0.949 . S
C3406 C3410 1.368 . S
C3407 C3388 1.429 . S
C3407 C3401 1.429 . S
C3407 C3408 1.523 . S
C3408 C3389 1.368 . S
C3408 C3402 1.368 . S
C3408 C3407 1.523 . S
C3409 C3393 1.429 . S
C3409 C3405 1.429 . S
C3409 C3410 1.523 . S
C3410 C3394 1.368 . S
C3410 C3406 1.368 . S
C3410 C3409 1.523 . S
H3411 C3386 0.950 . S
H3412 C3388 0.950 . S
H3413 C3389 0.949 . S
H3414 C3391 0.950 . S
H3415 C3393 0.950 . S
C3416 C3417 1.349 . S
C3416 C3418 1.327 . S
C3416 H3441 0.950 . S
C3417 C3416 1.349 . S
C3417 C3433 1.349 . S
C3418 C3416 1.327 . S
C3418 C3437 1.429 . S
C3418 H3442 0.950 . S
C3419 C3436 1.574 1_455 S
C3419 C3438 1.368 . S
C3419 H3443 0.949 . S
H3420 C3424 0.949 . S
C3421 C3422 1.349 . S
C3421 C3423 1.327 . S
C3421 H3444 0.950 . S
C3422 C3421 1.349 . S
C3422 C3434 1.349 . S
C3423 C3421 1.327 . S
C3423 C3439 1.429 . S
C3423 H3445 0.950 . S
C3424 H3420 0.949 . S
C3424 C3432 1.574 1_655 S
C3424 C3440 1.368 . S
H3425 C3433 0.950 . S
H3426 C3431 0.950 . S
H3427 C3432 0.949 . S
H3428 C3434 0.950 . S
H3429 C3435 0.950 . S
H3430 C3436 0.949 . S
C3431 H3426 0.950 . S
C3431 C3433 1.327 . S
C3431 C3437 1.429 . S
C3432 C3424 1.574 1_455 S
C3432 H3427 0.949 . S
C3432 C3438 1.368 . S
C3433 C3417 1.349 . S
C3433 H3425 0.950 . S
C3433 C3431 1.327 . S
C3434 C3422 1.349 . S
C3434 H3428 0.950 . S
C3434 C3435 1.327 . S
C3435 H3429 0.950 . S
C3435 C3434 1.327 . S
C3435 C3439 1.429 . S
C3436 C3419 1.574 1_655 S
C3436 H3430 0.949 . S
C3436 C3440 1.368 . S
C3437 C3418 1.429 . S
C3437 C3431 1.429 . S
C3437 C3438 1.523 . S
C3438 C3419 1.368 . S
C3438 C3432 1.368 . S
C3438 C3437 1.523 . S
C3439 C3423 1.429 . S
C3439 C3435 1.429 . S
C3439 C3440 1.523 . S
C3440 C3424 1.368 . S
C3440 C3436 1.368 . S
C3440 C3439 1.523 . S
H3441 C3416 0.950 . S
H3442 C3418 0.950 . S
H3443 C3419 0.949 . S
H3444 C3421 0.950 . S
H3445 C3423 0.950 . S
C3446 C3447 1.349 . S
C3446 C3448 1.327 . S
C3446 H3471 0.950 . S
C3447 C3446 1.349 . S
C3447 C3463 1.349 . S
C3448 C3446 1.327 . S
C3448 C3467 1.429 . S
C3448 H3472 0.950 . S
C3449 C3466 1.574 1_565 S
C3449 C3468 1.368 . S
C3449 H3473 0.949 . S
H3450 C3454 0.949 . S
C3451 C3452 1.349 . S
C3451 C3453 1.327 . S
C3451 H3474 0.950 . S
C3452 C3451 1.349 . S
C3452 C3464 1.349 . S
C3453 C3451 1.327 . S
C3453 C3469 1.429 . S
C3453 H3475 0.950 . S
C3454 H3450 0.949 . S
C3454 C3462 1.574 1_545 S
C3454 C3470 1.368 . S
H3455 C3463 0.950 . S
H3456 C3461 0.950 . S
H3457 C3462 0.949 . S
H3458 C3464 0.950 . S
H3459 C3465 0.950 . S
H3460 C3466 0.949 . S
C3461 H3456 0.950 . S
C3461 C3463 1.327 . S
C3461 C3467 1.429 . S
C3462 C3454 1.574 1_565 S
C3462 H3457 0.949 . S
C3462 C3468 1.368 . S
C3463 C3447 1.349 . S
C3463 H3455 0.950 . S
C3463 C3461 1.327 . S
C3464 C3452 1.349 . S
C3464 H3458 0.950 . S
C3464 C3465 1.327 . S
C3465 H3459 0.950 . S
C3465 C3464 1.327 . S
C3465 C3469 1.429 . S
C3466 C3449 1.574 1_545 S
C3466 H3460 0.949 . S
C3466 C3470 1.368 . S
C3467 C3448 1.429 . S
C3467 C3461 1.429 . S
C3467 C3468 1.523 . S
C3468 C3449 1.368 . S
C3468 C3462 1.368 . S
C3468 C3467 1.523 . S
C3469 C3453 1.429 . S
C3469 C3465 1.429 . S
C3469 C3470 1.523 . S
C3470 C3454 1.368 . S
C3470 C3466 1.368 . S
C3470 C3469 1.523 . S
H3471 C3446 0.950 . S
H3472 C3448 0.950 . S
H3473 C3449 0.949 . S
H3474 C3451 0.950 . S
H3475 C3453 0.950 . S
C3476 C3477 1.349 . S
C3476 C3478 1.327 . S
C3476 H3501 0.950 . S
C3477 C3476 1.349 . S
C3477 C3493 1.349 . S
C3478 C3476 1.327 . S
C3478 C3497 1.429 . S
C3478 H3502 0.950 . S
C3479 C3496 1.574 1_455 S
C3479 C3498 1.368 . S
C3479 H3503 0.949 . S
H3480 C3484 0.949 . S
C3481 C3482 1.349 . S
C3481 C3483 1.327 . S
C3481 H3504 0.950 . S
C3482 C3481 1.349 . S
C3482 C3494 1.349 . S
C3483 C3481 1.327 . S
C3483 C3499 1.429 . S
C3483 H3505 0.950 . S
C3484 H3480 0.949 . S
C3484 C3492 1.574 1_655 S
C3484 C3500 1.368 . S
H3485 C3493 0.950 . S
H3486 C3491 0.950 . S
H3487 C3492 0.949 . S
H3488 C3494 0.950 . S
H3489 C3495 0.950 . S
H3490 C3496 0.949 . S
C3491 H3486 0.950 . S
C3491 C3493 1.327 . S
C3491 C3497 1.429 . S
C3492 C3484 1.574 1_455 S
C3492 H3487 0.949 . S
C3492 C3498 1.368 . S
C3493 C3477 1.349 . S
C3493 H3485 0.950 . S
C3493 C3491 1.327 . S
C3494 C3482 1.349 . S
C3494 H3488 0.950 . S
C3494 C3495 1.327 . S
C3495 H3489 0.950 . S
C3495 C3494 1.327 . S
C3495 C3499 1.429 . S
C3496 C3479 1.574 1_655 S
C3496 H3490 0.949 . S
C3496 C3500 1.368 . S
C3497 C3478 1.429 . S
C3497 C3491 1.429 . S
C3497 C3498 1.523 . S
C3498 C3479 1.368 . S
C3498 C3492 1.368 . S
C3498 C3497 1.523 . S
C3499 C3483 1.429 . S
C3499 C3495 1.429 . S
C3499 C3500 1.523 . S
C3500 C3484 1.368 . S
C3500 C3496 1.368 . S
C3500 C3499 1.523 . S
H3501 C3476 0.950 . S
H3502 C3478 0.950 . S
H3503 C3479 0.949 . S
H3504 C3481 0.950 . S
H3505 C3483 0.950 . S
C3506 C3507 1.349 . S
C3506 C3508 1.327 . S
C3506 H3531 0.950 . S
C3507 C3506 1.349 . S
C3507 C3523 1.349 . S
C3508 C3506 1.327 . S
C3508 C3527 1.429 . S
C3508 H3532 0.950 . S
C3509 C3526 1.574 1_545 S
C3509 C3528 1.368 . S
C3509 H3533 0.949 . S
H3510 C3514 0.949 . S
C3511 C3512 1.349 . S
C3511 C3513 1.327 . S
C3511 H3534 0.950 . S
C3512 C3511 1.349 . S
C3512 C3524 1.349 . S
C3513 C3511 1.327 . S
C3513 C3529 1.429 . S
C3513 H3535 0.950 . S
C3514 H3510 0.949 . S
C3514 C3522 1.574 1_565 S
C3514 C3530 1.368 . S
H3515 C3523 0.950 . S
H3516 C3521 0.950 . S
H3517 C3522 0.949 . S
H3518 C3524 0.950 . S
H3519 C3525 0.950 . S
H3520 C3526 0.949 . S
C3521 H3516 0.950 . S
C3521 C3523 1.327 . S
C3521 C3527 1.429 . S
C3522 C3514 1.574 1_545 S
C3522 H3517 0.949 . S
C3522 C3528 1.368 . S
C3523 C3507 1.349 . S
C3523 H3515 0.950 . S
C3523 C3521 1.327 . S
C3524 C3512 1.349 . S
C3524 H3518 0.950 . S
C3524 C3525 1.327 . S
C3525 H3519 0.950 . S
C3525 C3524 1.327 . S
C3525 C3529 1.429 . S
C3526 C3509 1.574 1_565 S
C3526 H3520 0.949 . S
C3526 C3530 1.368 . S
C3527 C3508 1.429 . S
C3527 C3521 1.429 . S
C3527 C3528 1.523 . S
C3528 C3509 1.368 . S
C3528 C3522 1.368 . S
C3528 C3527 1.523 . S
C3529 C3513 1.429 . S
C3529 C3525 1.429 . S
C3529 C3530 1.523 . S
C3530 C3514 1.368 . S
C3530 C3526 1.368 . S
C3530 C3529 1.523 . S
H3531 C3506 0.950 . S
H3532 C3508 0.950 . S
H3533 C3509 0.949 . S
H3534 C3511 0.950 . S
H3535 C3513 0.950 . S
C3536 C3537 1.349 . S
C3536 C3538 1.327 . S
C3536 H3561 0.950 . S
C3537 C3536 1.349 . S
C3537 C3553 1.349 . S
C3538 C3536 1.327 . S
C3538 C3557 1.429 . S
C3538 H3562 0.950 . S
C3539 C3556 1.574 . S
C3539 C3558 1.368 . S
C3539 H3563 0.949 . S
H3540 C3544 0.949 . S
C3541 C3542 1.349 . S
C3541 C3543 1.327 . S
C3541 H3564 0.950 . S
C3542 C3541 1.349 . S
C3542 C3554 1.349 . S
C3543 C3541 1.327 . S
C3543 C3559 1.429 . S
C3543 H3565 0.950 . S
C3544 H3540 0.949 . S
C3544 C3552 1.574 . S
C3544 C3560 1.368 . S
H3545 C3553 0.950 . S
H3546 C3551 0.950 . S
H3547 C3552 0.949 . S
H3548 C3554 0.950 . S
H3549 C3555 0.950 . S
H3550 C3556 0.949 . S
C3551 H3546 0.950 . S
C3551 C3553 1.327 . S
C3551 C3557 1.429 . S
C3552 C3544 1.574 . S
C3552 H3547 0.949 . S
C3552 C3558 1.368 . S
C3553 C3537 1.349 . S
C3553 H3545 0.950 . S
C3553 C3551 1.327 . S
C3554 C3542 1.349 . S
C3554 H3548 0.950 . S
C3554 C3555 1.327 . S
C3555 H3549 0.950 . S
C3555 C3554 1.327 . S
C3555 C3559 1.429 . S
C3556 C3539 1.574 . S
C3556 H3550 0.949 . S
C3556 C3560 1.368 . S
C3557 C3538 1.429 . S
C3557 C3551 1.429 . S
C3557 C3558 1.523 . S
C3558 C3539 1.368 . S
C3558 C3552 1.368 . S
C3558 C3557 1.523 . S
C3559 C3543 1.429 . S
C3559 C3555 1.429 . S
C3559 C3560 1.523 . S
C3560 C3544 1.368 . S
C3560 C3556 1.368 . S
C3560 C3559 1.523 . S
H3561 C3536 0.950 . S
H3562 C3538 0.950 . S
H3563 C3539 0.949 . S
H3564 C3541 0.950 . S
H3565 C3543 0.950 . S
C3566 C3567 1.349 . S
C3566 C3568 1.327 . S
C3566 H3591 0.950 . S
C3567 C3566 1.349 . S
C3567 C3583 1.349 . S
C3568 C3566 1.327 . S
C3568 C3587 1.429 . S
C3568 H3592 0.950 . S
C3569 C3586 1.574 . S
C3569 C3588 1.368 . S
C3569 H3593 0.949 . S
H3570 C3574 0.949 . S
C3571 C3572 1.349 . S
C3571 C3573 1.327 . S
C3571 H3594 0.950 . S
C3572 C3571 1.349 . S
C3572 C3584 1.349 . S
C3573 C3571 1.327 . S
C3573 C3589 1.429 . S
C3573 H3595 0.950 . S
C3574 H3570 0.949 . S
C3574 C3582 1.574 . S
C3574 C3590 1.368 . S
H3575 C3583 0.950 . S
H3576 C3581 0.950 . S
H3577 C3582 0.949 . S
H3578 C3584 0.950 . S
H3579 C3585 0.950 . S
H3580 C3586 0.949 . S
C3581 H3576 0.950 . S
C3581 C3583 1.327 . S
C3581 C3587 1.429 . S
C3582 C3574 1.574 . S
C3582 H3577 0.949 . S
C3582 C3588 1.368 . S
C3583 C3567 1.349 . S
C3583 H3575 0.950 . S
C3583 C3581 1.327 . S
C3584 C3572 1.349 . S
C3584 H3578 0.950 . S
C3584 C3585 1.327 . S
C3585 H3579 0.950 . S
C3585 C3584 1.327 . S
C3585 C3589 1.429 . S
C3586 C3569 1.574 . S
C3586 H3580 0.949 . S
C3586 C3590 1.368 . S
C3587 C3568 1.429 . S
C3587 C3581 1.429 . S
C3587 C3588 1.523 . S
C3588 C3569 1.368 . S
C3588 C3582 1.368 . S
C3588 C3587 1.523 . S
C3589 C3573 1.429 . S
C3589 C3585 1.429 . S
C3589 C3590 1.523 . S
C3590 C3574 1.368 . S
C3590 C3586 1.368 . S
C3590 C3589 1.523 . S
H3591 C3566 0.950 . S
H3592 C3568 0.950 . S
H3593 C3569 0.949 . S
H3594 C3571 0.950 . S
H3595 C3573 0.950 . S
C3596 C3597 1.349 . S
C3596 C3598 1.327 . S
C3596 H3621 0.950 . S
C3597 C3596 1.349 . S
C3597 C3613 1.349 . S
C3598 C3596 1.327 . S
C3598 C3617 1.429 . S
C3598 H3622 0.950 . S
C3599 C3616 1.574 . S
C3599 C3618 1.368 . S
C3599 H3623 0.949 . S
H3600 C3604 0.949 . S
C3601 C3602 1.349 . S
C3601 C3603 1.327 . S
C3601 H3624 0.950 . S
C3602 C3601 1.349 . S
C3602 C3614 1.349 . S
C3603 C3601 1.327 . S
C3603 C3619 1.429 . S
C3603 H3625 0.950 . S
C3604 H3600 0.949 . S
C3604 C3612 1.574 . S
C3604 C3620 1.368 . S
H3605 C3613 0.950 . S
H3606 C3611 0.950 . S
H3607 C3612 0.949 . S
H3608 C3614 0.950 . S
H3609 C3615 0.950 . S
H3610 C3616 0.949 . S
C3611 H3606 0.950 . S
C3611 C3613 1.327 . S
C3611 C3617 1.429 . S
C3612 C3604 1.574 . S
C3612 H3607 0.949 . S
C3612 C3618 1.368 . S
C3613 C3597 1.349 . S
C3613 H3605 0.950 . S
C3613 C3611 1.327 . S
C3614 C3602 1.349 . S
C3614 H3608 0.950 . S
C3614 C3615 1.327 . S
C3615 H3609 0.950 . S
C3615 C3614 1.327 . S
C3615 C3619 1.429 . S
C3616 C3599 1.574 . S
C3616 H3610 0.949 . S
C3616 C3620 1.368 . S
C3617 C3598 1.429 . S
C3617 C3611 1.429 . S
C3617 C3618 1.523 . S
C3618 C3599 1.368 . S
C3618 C3612 1.368 . S
C3618 C3617 1.523 . S
C3619 C3603 1.429 . S
C3619 C3615 1.429 . S
C3619 C3620 1.523 . S
C3620 C3604 1.368 . S
C3620 C3616 1.368 . S
C3620 C3619 1.523 . S
H3621 C3596 0.950 . S
H3622 C3598 0.950 . S
H3623 C3599 0.949 . S
H3624 C3601 0.950 . S
H3625 C3603 0.950 . S
C3626 C3627 1.349 . S
C3626 C3628 1.327 . S
C3626 H3651 0.950 . S
C3627 C3626 1.349 . S
C3627 C3643 1.349 . S
C3628 C3626 1.327 . S
C3628 C3647 1.429 . S
C3628 H3652 0.950 . S
C3629 C3646 1.574 . S
C3629 C3648 1.368 . S
C3629 H3653 0.949 . S
H3630 C3634 0.949 . S
C3631 C3632 1.349 . S
C3631 C3633 1.327 . S
C3631 H3654 0.950 . S
C3632 C3631 1.349 . S
C3632 C3644 1.349 . S
C3633 C3631 1.327 . S
C3633 C3649 1.429 . S
C3633 H3655 0.950 . S
C3634 H3630 0.949 . S
C3634 C3642 1.574 . S
C3634 C3650 1.368 . S
H3635 C3643 0.950 . S
H3636 C3641 0.950 . S
H3637 C3642 0.949 . S
H3638 C3644 0.950 . S
H3639 C3645 0.950 . S
H3640 C3646 0.949 . S
C3641 H3636 0.950 . S
C3641 C3643 1.327 . S
C3641 C3647 1.429 . S
C3642 C3634 1.574 . S
C3642 H3637 0.949 . S
C3642 C3648 1.368 . S
C3643 C3627 1.349 . S
C3643 H3635 0.950 . S
C3643 C3641 1.327 . S
C3644 C3632 1.349 . S
C3644 H3638 0.950 . S
C3644 C3645 1.327 . S
C3645 H3639 0.950 . S
C3645 C3644 1.327 . S
C3645 C3649 1.429 . S
C3646 C3629 1.574 . S
C3646 H3640 0.949 . S
C3646 C3650 1.368 . S
C3647 C3628 1.429 . S
C3647 C3641 1.429 . S
C3647 C3648 1.523 . S
C3648 C3629 1.368 . S
C3648 C3642 1.368 . S
C3648 C3647 1.523 . S
C3649 C3633 1.429 . S
C3649 C3645 1.429 . S
C3649 C3650 1.523 . S
C3650 C3634 1.368 . S
C3650 C3646 1.368 . S
C3650 C3649 1.523 . S
H3651 C3626 0.950 . S
H3652 C3628 0.950 . S
H3653 C3629 0.949 . S
H3654 C3631 0.950 . S
H3655 C3633 0.950 . S
C3656 C3657 1.349 . S
C3656 C3658 1.327 . S
C3656 H3681 0.950 . S
C3657 C3656 1.349 . S
C3657 C3673 1.349 . S
C3658 C3656 1.327 . S
C3658 C3677 1.429 . S
C3658 H3682 0.950 . S
C3659 C3676 1.574 . S
C3659 C3678 1.368 . S
C3659 H3683 0.949 . S
H3660 C3664 0.949 . S
C3661 C3662 1.349 . S
C3661 C3663 1.327 . S
C3661 H3684 0.950 . S
C3662 C3661 1.349 . S
C3662 C3674 1.349 . S
C3663 C3661 1.327 . S
C3663 C3679 1.429 . S
C3663 H3685 0.950 . S
C3664 H3660 0.949 . S
C3664 C3672 1.574 . S
C3664 C3680 1.368 . S
H3665 C3673 0.950 . S
H3666 C3671 0.950 . S
H3667 C3672 0.949 . S
H3668 C3674 0.950 . S
H3669 C3675 0.950 . S
H3670 C3676 0.949 . S
C3671 H3666 0.950 . S
C3671 C3673 1.327 . S
C3671 C3677 1.429 . S
C3672 C3664 1.574 . S
C3672 H3667 0.949 . S
C3672 C3678 1.368 . S
C3673 C3657 1.349 . S
C3673 H3665 0.950 . S
C3673 C3671 1.327 . S
C3674 C3662 1.349 . S
C3674 H3668 0.950 . S
C3674 C3675 1.327 . S
C3675 H3669 0.950 . S
C3675 C3674 1.327 . S
C3675 C3679 1.429 . S
C3676 C3659 1.574 . S
C3676 H3670 0.949 . S
C3676 C3680 1.368 . S
C3677 C3658 1.429 . S
C3677 C3671 1.429 . S
C3677 C3678 1.523 . S
C3678 C3659 1.368 . S
C3678 C3672 1.368 . S
C3678 C3677 1.523 . S
C3679 C3663 1.429 . S
C3679 C3675 1.429 . S
C3679 C3680 1.523 . S
C3680 C3664 1.368 . S
C3680 C3676 1.368 . S
C3680 C3679 1.523 . S
H3681 C3656 0.950 . S
H3682 C3658 0.950 . S
H3683 C3659 0.949 . S
H3684 C3661 0.950 . S
H3685 C3663 0.950 . S
C3686 C3687 1.349 . S
C3686 C3688 1.327 . S
C3686 H3711 0.950 . S
C3687 C3686 1.349 . S
C3687 C3703 1.349 . S
C3688 C3686 1.327 . S
C3688 C3707 1.429 . S
C3688 H3712 0.950 . S
C3689 C3706 1.574 . S
C3689 C3708 1.368 . S
C3689 H3713 0.949 . S
H3690 C3694 0.949 . S
C3691 C3692 1.349 . S
C3691 C3693 1.327 . S
C3691 H3714 0.950 . S
C3692 C3691 1.349 . S
C3692 C3704 1.349 . S
C3693 C3691 1.327 . S
C3693 C3709 1.429 . S
C3693 H3715 0.950 . S
C3694 H3690 0.949 . S
C3694 C3702 1.574 . S
C3694 C3710 1.368 . S
H3695 C3703 0.950 . S
H3696 C3701 0.950 . S
H3697 C3702 0.949 . S
H3698 C3704 0.950 . S
H3699 C3705 0.950 . S
H3700 C3706 0.949 . S
C3701 H3696 0.950 . S
C3701 C3703 1.327 . S
C3701 C3707 1.429 . S
C3702 C3694 1.574 . S
C3702 H3697 0.949 . S
C3702 C3708 1.368 . S
C3703 C3687 1.349 . S
C3703 H3695 0.950 . S
C3703 C3701 1.327 . S
C3704 C3692 1.349 . S
C3704 H3698 0.950 . S
C3704 C3705 1.327 . S
C3705 H3699 0.950 . S
C3705 C3704 1.327 . S
C3705 C3709 1.429 . S
C3706 C3689 1.574 . S
C3706 H3700 0.949 . S
C3706 C3710 1.368 . S
C3707 C3688 1.429 . S
C3707 C3701 1.429 . S
C3707 C3708 1.523 . S
C3708 C3689 1.368 . S
C3708 C3702 1.368 . S
C3708 C3707 1.523 . S
C3709 C3693 1.429 . S
C3709 C3705 1.429 . S
C3709 C3710 1.523 . S
C3710 C3694 1.368 . S
C3710 C3706 1.368 . S
C3710 C3709 1.523 . S
H3711 C3686 0.950 . S
H3712 C3688 0.950 . S
H3713 C3689 0.949 . S
H3714 C3691 0.950 . S
H3715 C3693 0.950 . S
C3716 C3717 1.349 . S
C3716 C3718 1.327 . S
C3716 H3741 0.950 . S
C3717 C3716 1.349 . S
C3717 C3733 1.349 . S
C3718 C3716 1.327 . S
C3718 C3737 1.429 . S
C3718 H3742 0.950 . S
C3719 C3736 1.574 . S
C3719 C3738 1.368 . S
C3719 H3743 0.949 . S
H3720 C3724 0.949 . S
C3721 C3722 1.349 . S
C3721 C3723 1.327 . S
C3721 H3744 0.950 . S
C3722 C3721 1.349 . S
C3722 C3734 1.349 . S
C3723 C3721 1.327 . S
C3723 C3739 1.429 . S
C3723 H3745 0.950 . S
C3724 H3720 0.949 . S
C3724 C3732 1.574 . S
C3724 C3740 1.368 . S
H3725 C3733 0.950 . S
H3726 C3731 0.950 . S
H3727 C3732 0.949 . S
H3728 C3734 0.950 . S
H3729 C3735 0.950 . S
H3730 C3736 0.949 . S
C3731 H3726 0.950 . S
C3731 C3733 1.327 . S
C3731 C3737 1.429 . S
C3732 C3724 1.574 . S
C3732 H3727 0.949 . S
C3732 C3738 1.368 . S
C3733 C3717 1.349 . S
C3733 H3725 0.950 . S
C3733 C3731 1.327 . S
C3734 C3722 1.349 . S
C3734 H3728 0.950 . S
C3734 C3735 1.327 . S
C3735 H3729 0.950 . S
C3735 C3734 1.327 . S
C3735 C3739 1.429 . S
C3736 C3719 1.574 . S
C3736 H3730 0.949 . S
C3736 C3740 1.368 . S
C3737 C3718 1.429 . S
C3737 C3731 1.429 . S
C3737 C3738 1.523 . S
C3738 C3719 1.368 . S
C3738 C3732 1.368 . S
C3738 C3737 1.523 . S
C3739 C3723 1.429 . S
C3739 C3735 1.429 . S
C3739 C3740 1.523 . S
C3740 C3724 1.368 . S
C3740 C3736 1.368 . S
C3740 C3739 1.523 . S
H3741 C3716 0.950 . S
H3742 C3718 0.950 . S
H3743 C3719 0.949 . S
H3744 C3721 0.950 . S
H3745 C3723 0.950 . S
C3746 C3747 1.349 . S
C3746 C3748 1.327 . S
C3746 H3771 0.950 . S
C3747 C3746 1.349 . S
C3747 C3763 1.349 . S
C3748 C3746 1.327 . S
C3748 C3767 1.429 . S
C3748 H3772 0.950 . S
C3749 C3766 1.574 . S
C3749 C3768 1.368 . S
C3749 H3773 0.949 . S
H3750 C3754 0.949 . S
C3751 C3752 1.349 . S
C3751 C3753 1.327 . S
C3751 H3774 0.950 . S
C3752 C3751 1.349 . S
C3752 C3764 1.349 . S
C3753 C3751 1.327 . S
C3753 C3769 1.429 . S
C3753 H3775 0.950 . S
C3754 H3750 0.949 . S
C3754 C3762 1.574 . S
C3754 C3770 1.368 . S
H3755 C3763 0.950 . S
H3756 C3761 0.950 . S
H3757 C3762 0.949 . S
H3758 C3764 0.950 . S
H3759 C3765 0.950 . S
H3760 C3766 0.949 . S
C3761 H3756 0.950 . S
C3761 C3763 1.327 . S
C3761 C3767 1.429 . S
C3762 C3754 1.574 . S
C3762 H3757 0.949 . S
C3762 C3768 1.368 . S
C3763 C3747 1.349 . S
C3763 H3755 0.950 . S
C3763 C3761 1.327 . S
C3764 C3752 1.349 . S
C3764 H3758 0.950 . S
C3764 C3765 1.327 . S
C3765 H3759 0.950 . S
C3765 C3764 1.327 . S
C3765 C3769 1.429 . S
C3766 C3749 1.574 . S
C3766 H3760 0.949 . S
C3766 C3770 1.368 . S
C3767 C3748 1.429 . S
C3767 C3761 1.429 . S
C3767 C3768 1.523 . S
C3768 C3749 1.368 . S
C3768 C3762 1.368 . S
C3768 C3767 1.523 . S
C3769 C3753 1.429 . S
C3769 C3765 1.429 . S
C3769 C3770 1.523 . S
C3770 C3754 1.368 . S
C3770 C3766 1.368 . S
C3770 C3769 1.523 . S
H3771 C3746 0.950 . S
H3772 C3748 0.950 . S
H3773 C3749 0.949 . S
H3774 C3751 0.950 . S
H3775 C3753 0.950 . S
C3776 C3777 1.349 . S
C3776 C3778 1.327 . S
C3776 H3801 0.950 . S
C3777 C3776 1.349 . S
C3777 C3793 1.349 . S
C3778 C3776 1.327 . S
C3778 C3797 1.429 . S
C3778 H3802 0.950 . S
C3779 C3796 1.574 . S
C3779 C3798 1.368 . S
C3779 H3803 0.949 . S
H3780 C3784 0.949 . S
C3781 C3782 1.349 . S
C3781 C3783 1.327 . S
C3781 H3804 0.950 . S
C3782 C3781 1.349 . S
C3782 C3794 1.349 . S
C3783 C3781 1.327 . S
C3783 C3799 1.429 . S
C3783 H3805 0.950 . S
C3784 H3780 0.949 . S
C3784 C3792 1.574 . S
C3784 C3800 1.368 . S
H3785 C3793 0.950 . S
H3786 C3791 0.950 . S
H3787 C3792 0.949 . S
H3788 C3794 0.950 . S
H3789 C3795 0.950 . S
H3790 C3796 0.949 . S
C3791 H3786 0.950 . S
C3791 C3793 1.327 . S
C3791 C3797 1.429 . S
C3792 C3784 1.574 . S
C3792 H3787 0.949 . S
C3792 C3798 1.368 . S
C3793 C3777 1.349 . S
C3793 H3785 0.950 . S
C3793 C3791 1.327 . S
C3794 C3782 1.349 . S
C3794 H3788 0.950 . S
C3794 C3795 1.327 . S
C3795 H3789 0.950 . S
C3795 C3794 1.327 . S
C3795 C3799 1.429 . S
C3796 C3779 1.574 . S
C3796 H3790 0.949 . S
C3796 C3800 1.368 . S
C3797 C3778 1.429 . S
C3797 C3791 1.429 . S
C3797 C3798 1.523 . S
C3798 C3779 1.368 . S
C3798 C3792 1.368 . S
C3798 C3797 1.523 . S
C3799 C3783 1.429 . S
C3799 C3795 1.429 . S
C3799 C3800 1.523 . S
C3800 C3784 1.368 . S
C3800 C3796 1.368 . S
C3800 C3799 1.523 . S
H3801 C3776 0.950 . S
H3802 C3778 0.950 . S
H3803 C3779 0.949 . S
H3804 C3781 0.950 . S
H3805 C3783 0.950 . S
C3806 C3807 1.349 . S
C3806 C3808 1.327 . S
C3806 H3831 0.950 . S
C3807 C3806 1.349 . S
C3807 C3823 1.349 . S
C3808 C3806 1.327 . S
C3808 C3827 1.429 . S
C3808 H3832 0.950 . S
C3809 C3826 1.574 . S
C3809 C3828 1.368 . S
C3809 H3833 0.949 . S
H3810 C3814 0.949 . S
C3811 C3812 1.349 . S
C3811 C3813 1.327 . S
C3811 H3834 0.950 . S
C3812 C3811 1.349 . S
C3812 C3824 1.349 . S
C3813 C3811 1.327 . S
C3813 C3829 1.429 . S
C3813 H3835 0.950 . S
C3814 H3810 0.949 . S
C3814 C3822 1.574 . S
C3814 C3830 1.368 . S
H3815 C3823 0.950 . S
H3816 C3821 0.950 . S
H3817 C3822 0.949 . S
H3818 C3824 0.950 . S
H3819 C3825 0.950 . S
H3820 C3826 0.949 . S
C3821 H3816 0.950 . S
C3821 C3823 1.327 . S
C3821 C3827 1.429 . S
C3822 C3814 1.574 . S
C3822 H3817 0.949 . S
C3822 C3828 1.368 . S
C3823 C3807 1.349 . S
C3823 H3815 0.950 . S
C3823 C3821 1.327 . S
C3824 C3812 1.349 . S
C3824 H3818 0.950 . S
C3824 C3825 1.327 . S
C3825 H3819 0.950 . S
C3825 C3824 1.327 . S
C3825 C3829 1.429 . S
C3826 C3809 1.574 . S
C3826 H3820 0.949 . S
C3826 C3830 1.368 . S
C3827 C3808 1.429 . S
C3827 C3821 1.429 . S
C3827 C3828 1.523 . S
C3828 C3809 1.368 . S
C3828 C3822 1.368 . S
C3828 C3827 1.523 . S
C3829 C3813 1.429 . S
C3829 C3825 1.429 . S
C3829 C3830 1.523 . S
C3830 C3814 1.368 . S
C3830 C3826 1.368 . S
C3830 C3829 1.523 . S
H3831 C3806 0.950 . S
H3832 C3808 0.950 . S
H3833 C3809 0.949 . S
H3834 C3811 0.950 . S
H3835 C3813 0.950 . S
C3836 C3837 1.349 . S
C3836 C3838 1.327 . S
C3836 H3861 0.950 . S
C3837 C3836 1.349 . S
C3837 C3853 1.349 . S
C3838 C3836 1.327 . S
C3838 C3857 1.429 . S
C3838 H3862 0.950 . S
C3839 C3856 1.574 . S
C3839 C3858 1.368 . S
C3839 H3863 0.949 . S
H3840 C3844 0.949 . S
C3841 C3842 1.349 . S
C3841 C3843 1.327 . S
C3841 H3864 0.950 . S
C3842 C3841 1.349 . S
C3842 C3854 1.349 . S
C3843 C3841 1.327 . S
C3843 C3859 1.429 . S
C3843 H3865 0.950 . S
C3844 H3840 0.949 . S
C3844 C3852 1.574 . S
C3844 C3860 1.368 . S
H3845 C3853 0.950 . S
H3846 C3851 0.950 . S
H3847 C3852 0.949 . S
H3848 C3854 0.950 . S
H3849 C3855 0.950 . S
H3850 C3856 0.949 . S
C3851 H3846 0.950 . S
C3851 C3853 1.327 . S
C3851 C3857 1.429 . S
C3852 C3844 1.574 . S
C3852 H3847 0.949 . S
C3852 C3858 1.368 . S
C3853 C3837 1.349 . S
C3853 H3845 0.950 . S
C3853 C3851 1.327 . S
C3854 C3842 1.349 . S
C3854 H3848 0.950 . S
C3854 C3855 1.327 . S
C3855 H3849 0.950 . S
C3855 C3854 1.327 . S
C3855 C3859 1.429 . S
C3856 C3839 1.574 . S
C3856 H3850 0.949 . S
C3856 C3860 1.368 . S
C3857 C3838 1.429 . S
C3857 C3851 1.429 . S
C3857 C3858 1.523 . S
C3858 C3839 1.368 . S
C3858 C3852 1.368 . S
C3858 C3857 1.523 . S
C3859 C3843 1.429 . S
C3859 C3855 1.429 . S
C3859 C3860 1.523 . S
C3860 C3844 1.368 . S
C3860 C3856 1.368 . S
C3860 C3859 1.523 . S
H3861 C3836 0.950 . S
H3862 C3838 0.950 . S
H3863 C3839 0.949 . S
H3864 C3841 0.950 . S
H3865 C3843 0.950 . S
C3866 C3867 1.349 . S
C3866 C3868 1.327 . S
C3866 H3891 0.950 . S
C3867 C3866 1.349 . S
C3867 C3883 1.349 . S
C3868 C3866 1.327 . S
C3868 C3887 1.429 . S
C3868 H3892 0.950 . S
C3869 C3886 1.574 . S
C3869 C3888 1.368 . S
C3869 H3893 0.949 . S
H3870 C3874 0.949 . S
C3871 C3872 1.349 . S
C3871 C3873 1.327 . S
C3871 H3894 0.950 . S
C3872 C3871 1.349 . S
C3872 C3884 1.349 . S
C3873 C3871 1.327 . S
C3873 C3889 1.429 . S
C3873 H3895 0.950 . S
C3874 H3870 0.949 . S
C3874 C3882 1.574 . S
C3874 C3890 1.368 . S
H3875 C3883 0.950 . S
H3876 C3881 0.950 . S
H3877 C3882 0.949 . S
H3878 C3884 0.950 . S
H3879 C3885 0.950 . S
H3880 C3886 0.949 . S
C3881 H3876 0.950 . S
C3881 C3883 1.327 . S
C3881 C3887 1.429 . S
C3882 C3874 1.574 . S
C3882 H3877 0.949 . S
C3882 C3888 1.368 . S
C3883 C3867 1.349 . S
C3883 H3875 0.950 . S
C3883 C3881 1.327 . S
C3884 C3872 1.349 . S
C3884 H3878 0.950 . S
C3884 C3885 1.327 . S
C3885 H3879 0.950 . S
C3885 C3884 1.327 . S
C3885 C3889 1.429 . S
C3886 C3869 1.574 . S
C3886 H3880 0.949 . S
C3886 C3890 1.368 . S
C3887 C3868 1.429 . S
C3887 C3881 1.429 . S
C3887 C3888 1.523 . S
C3888 C3869 1.368 . S
C3888 C3882 1.368 . S
C3888 C3887 1.523 . S
C3889 C3873 1.429 . S
C3889 C3885 1.429 . S
C3889 C3890 1.523 . S
C3890 C3874 1.368 . S
C3890 C3886 1.368 . S
C3890 C3889 1.523 . S
H3891 C3866 0.950 . S
H3892 C3868 0.950 . S
H3893 C3869 0.949 . S
H3894 C3871 0.950 . S
H3895 C3873 0.950 . S
C3896 C3897 1.349 . S
C3896 C3898 1.327 . S
C3896 H3921 0.950 . S
C3897 C3896 1.349 . S
C3897 C3913 1.349 . S
C3898 C3896 1.327 . S
C3898 C3917 1.429 . S
C3898 H3922 0.950 . S
C3899 C3916 1.574 . S
C3899 C3918 1.368 . S
C3899 H3923 0.949 . S
H3900 C3904 0.949 . S
C3901 C3902 1.349 . S
C3901 C3903 1.327 . S
C3901 H3924 0.950 . S
C3902 C3901 1.349 . S
C3902 C3914 1.349 . S
C3903 C3901 1.327 . S
C3903 C3919 1.429 . S
C3903 H3925 0.950 . S
C3904 H3900 0.949 . S
C3904 C3912 1.574 . S
C3904 C3920 1.368 . S
H3905 C3913 0.950 . S
H3906 C3911 0.950 . S
H3907 C3912 0.949 . S
H3908 C3914 0.950 . S
H3909 C3915 0.950 . S
H3910 C3916 0.949 . S
C3911 H3906 0.950 . S
C3911 C3913 1.327 . S
C3911 C3917 1.429 . S
C3912 C3904 1.574 . S
C3912 H3907 0.949 . S
C3912 C3918 1.368 . S
C3913 C3897 1.349 . S
C3913 H3905 0.950 . S
C3913 C3911 1.327 . S
C3914 C3902 1.349 . S
C3914 H3908 0.950 . S
C3914 C3915 1.327 . S
C3915 H3909 0.950 . S
C3915 C3914 1.327 . S
C3915 C3919 1.429 . S
C3916 C3899 1.574 . S
C3916 H3910 0.949 . S
C3916 C3920 1.368 . S
C3917 C3898 1.429 . S
C3917 C3911 1.429 . S
C3917 C3918 1.523 . S
C3918 C3899 1.368 . S
C3918 C3912 1.368 . S
C3918 C3917 1.523 . S
C3919 C3903 1.429 . S
C3919 C3915 1.429 . S
C3919 C3920 1.523 . S
C3920 C3904 1.368 . S
C3920 C3916 1.368 . S
C3920 C3919 1.523 . S
H3921 C3896 0.950 . S
H3922 C3898 0.950 . S
H3923 C3899 0.949 . S
H3924 C3901 0.950 . S
H3925 C3903 0.950 . S
C3926 C3927 1.349 . S
C3926 C3928 1.327 . S
C3926 H3951 0.950 . S
C3927 C3926 1.349 . S
C3927 C3943 1.349 . S
C3928 C3926 1.327 . S
C3928 C3947 1.429 . S
C3928 H3952 0.950 . S
C3929 C3946 1.574 . S
C3929 C3948 1.368 . S
C3929 H3953 0.949 . S
H3930 C3934 0.949 . S
C3931 C3932 1.349 . S
C3931 C3933 1.327 . S
C3931 H3954 0.950 . S
C3932 C3931 1.349 . S
C3932 C3944 1.349 . S
C3933 C3931 1.327 . S
C3933 C3949 1.429 . S
C3933 H3955 0.950 . S
C3934 H3930 0.949 . S
C3934 C3942 1.574 . S
C3934 C3950 1.368 . S
H3935 C3943 0.950 . S
H3936 C3941 0.950 . S
H3937 C3942 0.949 . S
H3938 C3944 0.950 . S
H3939 C3945 0.950 . S
H3940 C3946 0.949 . S
C3941 H3936 0.950 . S
C3941 C3943 1.327 . S
C3941 C3947 1.429 . S
C3942 C3934 1.574 . S
C3942 H3937 0.949 . S
C3942 C3948 1.368 . S
C3943 C3927 1.349 . S
C3943 H3935 0.950 . S
C3943 C3941 1.327 . S
C3944 C3932 1.349 . S
C3944 H3938 0.950 . S
C3944 C3945 1.327 . S
C3945 H3939 0.950 . S
C3945 C3944 1.327 . S
C3945 C3949 1.429 . S
C3946 C3929 1.574 . S
C3946 H3940 0.949 . S
C3946 C3950 1.368 . S
C3947 C3928 1.429 . S
C3947 C3941 1.429 . S
C3947 C3948 1.523 . S
C3948 C3929 1.368 . S
C3948 C3942 1.368 . S
C3948 C3947 1.523 . S
C3949 C3933 1.429 . S
C3949 C3945 1.429 . S
C3949 C3950 1.523 . S
C3950 C3934 1.368 . S
C3950 C3946 1.368 . S
C3950 C3949 1.523 . S
H3951 C3926 0.950 . S
H3952 C3928 0.950 . S
H3953 C3929 0.949 . S
H3954 C3931 0.950 . S
H3955 C3933 0.950 . S
C3956 C3957 1.349 . S
C3956 C3958 1.327 . S
C3956 H3981 0.950 . S
C3957 C3956 1.349 . S
C3957 C3973 1.349 . S
C3958 C3956 1.327 . S
C3958 C3977 1.429 . S
C3958 H3982 0.950 . S
C3959 C3976 1.574 . S
C3959 C3978 1.368 . S
C3959 H3983 0.949 . S
H3960 C3964 0.949 . S
C3961 C3962 1.349 . S
C3961 C3963 1.327 . S
C3961 H3984 0.950 . S
C3962 C3961 1.349 . S
C3962 C3974 1.349 . S
C3963 C3961 1.327 . S
C3963 C3979 1.429 . S
C3963 H3985 0.950 . S
C3964 H3960 0.949 . S
C3964 C3972 1.574 . S
C3964 C3980 1.368 . S
H3965 C3973 0.950 . S
H3966 C3971 0.950 . S
H3967 C3972 0.949 . S
H3968 C3974 0.950 . S
H3969 C3975 0.950 . S
H3970 C3976 0.949 . S
C3971 H3966 0.950 . S
C3971 C3973 1.327 . S
C3971 C3977 1.429 . S
C3972 C3964 1.574 . S
C3972 H3967 0.949 . S
C3972 C3978 1.368 . S
C3973 C3957 1.349 . S
C3973 H3965 0.950 . S
C3973 C3971 1.327 . S
C3974 C3962 1.349 . S
C3974 H3968 0.950 . S
C3974 C3975 1.327 . S
C3975 H3969 0.950 . S
C3975 C3974 1.327 . S
C3975 C3979 1.429 . S
C3976 C3959 1.574 . S
C3976 H3970 0.949 . S
C3976 C3980 1.368 . S
C3977 C3958 1.429 . S
C3977 C3971 1.429 . S
C3977 C3978 1.523 . S
C3978 C3959 1.368 . S
C3978 C3972 1.368 . S
C3978 C3977 1.523 . S
C3979 C3963 1.429 . S
C3979 C3975 1.429 . S
C3979 C3980 1.523 . S
C3980 C3964 1.368 . S
C3980 C3976 1.368 . S
C3980 C3979 1.523 . S
H3981 C3956 0.950 . S
H3982 C3958 0.950 . S
H3983 C3959 0.949 . S
H3984 C3961 0.950 . S
H3985 C3963 0.950 . S
C3986 C3987 1.349 . S
C3986 C3988 1.327 . S
C3986 H4011 0.950 . S
C3987 C3986 1.349 . S
C3987 C4003 1.349 . S
C3988 C3986 1.327 . S
C3988 C4007 1.429 . S
C3988 H4012 0.950 . S
C3989 C4006 1.574 . S
C3989 C4008 1.368 . S
C3989 H4013 0.949 . S
H3990 C3994 0.949 . S
C3991 C3992 1.349 . S
C3991 C3993 1.327 . S
C3991 H4014 0.950 . S
C3992 C3991 1.349 . S
C3992 C4004 1.349 . S
C3993 C3991 1.327 . S
C3993 C4009 1.429 . S
C3993 H4015 0.950 . S
C3994 H3990 0.949 . S
C3994 C4002 1.574 . S
C3994 C4010 1.368 . S
H3995 C4003 0.950 . S
H3996 C4001 0.950 . S
H3997 C4002 0.949 . S
H3998 C4004 0.950 . S
H3999 C4005 0.950 . S
H4000 C4006 0.949 . S
C4001 H3996 0.950 . S
C4001 C4003 1.327 . S
C4001 C4007 1.429 . S
C4002 C3994 1.574 . S
C4002 H3997 0.949 . S
C4002 C4008 1.368 . S
C4003 C3987 1.349 . S
C4003 H3995 0.950 . S
C4003 C4001 1.327 . S
C4004 C3992 1.349 . S
C4004 H3998 0.950 . S
C4004 C4005 1.327 . S
C4005 H3999 0.950 . S
C4005 C4004 1.327 . S
C4005 C4009 1.429 . S
C4006 C3989 1.574 . S
C4006 H4000 0.949 . S
C4006 C4010 1.368 . S
C4007 C3988 1.429 . S
C4007 C4001 1.429 . S
C4007 C4008 1.523 . S
C4008 C3989 1.368 . S
C4008 C4002 1.368 . S
C4008 C4007 1.523 . S
C4009 C3993 1.429 . S
C4009 C4005 1.429 . S
C4009 C4010 1.523 . S
C4010 C3994 1.368 . S
C4010 C4006 1.368 . S
C4010 C4009 1.523 . S
H4011 C3986 0.950 . S
H4012 C3988 0.950 . S
H4013 C3989 0.949 . S
H4014 C3991 0.950 . S
H4015 C3993 0.950 . S
C4016 C4017 1.349 . S
C4016 C4018 1.327 . S
C4016 H4041 0.950 . S
C4017 C4016 1.349 . S
C4017 C4033 1.349 . S
C4018 C4016 1.327 . S
C4018 C4037 1.429 . S
C4018 H4042 0.950 . S
C4019 C4036 1.574 1_554 S
C4019 C4038 1.368 . S
C4019 H4043 0.949 . S
H4020 C4024 0.949 . S
C4021 C4022 1.349 . S
C4021 C4023 1.327 . S
C4021 H4044 0.950 . S
C4022 C4021 1.349 . S
C4022 C4034 1.349 . S
C4023 C4021 1.327 . S
C4023 C4039 1.429 . S
C4023 H4045 0.950 . S
C4024 H4020 0.949 . S
C4024 C4032 1.574 1_556 S
C4024 C4040 1.368 . S
H4025 C4033 0.950 . S
H4026 C4031 0.950 . S
H4027 C4032 0.949 . S
H4028 C4034 0.950 . S
H4029 C4035 0.950 . S
H4030 C4036 0.949 . S
C4031 H4026 0.950 . S
C4031 C4033 1.327 . S
C4031 C4037 1.429 . S
C4032 C4024 1.574 1_554 S
C4032 H4027 0.949 . S
C4032 C4038 1.368 . S
C4033 C4017 1.349 . S
C4033 H4025 0.950 . S
C4033 C4031 1.327 . S
C4034 C4022 1.349 . S
C4034 H4028 0.950 . S
C4034 C4035 1.327 . S
C4035 H4029 0.950 . S
C4035 C4034 1.327 . S
C4035 C4039 1.429 . S
C4036 C4019 1.574 1_556 S
C4036 H4030 0.949 . S
C4036 C4040 1.368 . S
C4037 C4018 1.429 . S
C4037 C4031 1.429 . S
C4037 C4038 1.523 . S
C4038 C4019 1.368 . S
C4038 C4032 1.368 . S
C4038 C4037 1.523 . S
C4039 C4023 1.429 . S
C4039 C4035 1.429 . S
C4039 C4040 1.523 . S
C4040 C4024 1.368 . S
C4040 C4036 1.368 . S
C4040 C4039 1.523 . S
H4041 C4016 0.950 . S
H4042 C4018 0.950 . S
H4043 C4019 0.949 . S
H4044 C4021 0.950 . S
H4045 C4023 0.950 . S
C4046 C4047 1.349 . S
C4046 C4048 1.327 . S
C4046 H4071 0.950 . S
C4047 C4046 1.349 . S
C4047 C4063 1.349 . S
C4048 C4046 1.327 . S
C4048 C4067 1.429 . S
C4048 H4072 0.950 . S
C4049 C4066 1.574 1_556 S
C4049 C4068 1.368 . S
C4049 H4073 0.949 . S
H4050 C4054 0.949 . S
C4051 C4052 1.349 . S
C4051 C4053 1.327 . S
C4051 H4074 0.950 . S
C4052 C4051 1.349 . S
C4052 C4064 1.349 . S
C4053 C4051 1.327 . S
C4053 C4069 1.429 . S
C4053 H4075 0.950 . S
C4054 H4050 0.949 . S
C4054 C4062 1.574 1_554 S
C4054 C4070 1.368 . S
H4055 C4063 0.950 . S
H4056 C4061 0.950 . S
H4057 C4062 0.949 . S
H4058 C4064 0.950 . S
H4059 C4065 0.950 . S
H4060 C4066 0.949 . S
C4061 H4056 0.950 . S
C4061 C4063 1.327 . S
C4061 C4067 1.429 . S
C4062 C4054 1.574 1_556 S
C4062 H4057 0.949 . S
C4062 C4068 1.368 . S
C4063 C4047 1.349 . S
C4063 H4055 0.950 . S
C4063 C4061 1.327 . S
C4064 C4052 1.349 . S
C4064 H4058 0.950 . S
C4064 C4065 1.327 . S
C4065 H4059 0.950 . S
C4065 C4064 1.327 . S
C4065 C4069 1.429 . S
C4066 C4049 1.574 1_554 S
C4066 H4060 0.949 . S
C4066 C4070 1.368 . S
C4067 C4048 1.429 . S
C4067 C4061 1.429 . S
C4067 C4068 1.523 . S
C4068 C4049 1.368 . S
C4068 C4062 1.368 . S
C4068 C4067 1.523 . S
C4069 C4053 1.429 . S
C4069 C4065 1.429 . S
C4069 C4070 1.523 . S
C4070 C4054 1.368 . S
C4070 C4066 1.368 . S
C4070 C4069 1.523 . S
H4071 C4046 0.950 . S
H4072 C4048 0.950 . S
H4073 C4049 0.949 . S
H4074 C4051 0.950 . S
H4075 C4053 0.950 . S
C4076 C4077 1.349 . S
C4076 C4078 1.327 . S
C4076 H4101 0.950 . S
C4077 C4076 1.349 . S
C4077 C4093 1.349 . S
C4078 C4076 1.327 . S
C4078 C4097 1.429 . S
C4078 H4102 0.950 . S
C4079 C4096 1.574 1_554 S
C4079 C4098 1.368 . S
C4079 H4103 0.949 . S
H4080 C4084 0.949 . S
C4081 C4082 1.349 . S
C4081 C4083 1.327 . S
C4081 H4104 0.950 . S
C4082 C4081 1.349 . S
C4082 C4094 1.349 . S
C4083 C4081 1.327 . S
C4083 C4099 1.429 . S
C4083 H4105 0.950 . S
C4084 H4080 0.949 . S
C4084 C4092 1.574 1_556 S
C4084 C4100 1.368 . S
H4085 C4093 0.950 . S
H4086 C4091 0.950 . S
H4087 C4092 0.949 . S
H4088 C4094 0.950 . S
H4089 C4095 0.950 . S
H4090 C4096 0.949 . S
C4091 H4086 0.950 . S
C4091 C4093 1.327 . S
C4091 C4097 1.429 . S
C4092 C4084 1.574 1_554 S
C4092 H4087 0.949 . S
C4092 C4098 1.368 . S
C4093 C4077 1.349 . S
C4093 H4085 0.950 . S
C4093 C4091 1.327 . S
C4094 C4082 1.349 . S
C4094 H4088 0.950 . S
C4094 C4095 1.327 . S
C4095 H4089 0.950 . S
C4095 C4094 1.327 . S
C4095 C4099 1.429 . S
C4096 C4079 1.574 1_556 S
C4096 H4090 0.949 . S
C4096 C4100 1.368 . S
C4097 C4078 1.429 . S
C4097 C4091 1.429 . S
C4097 C4098 1.523 . S
C4098 C4079 1.368 . S
C4098 C4092 1.368 . S
C4098 C4097 1.523 . S
C4099 C4083 1.429 . S
C4099 C4095 1.429 . S
C4099 C4100 1.523 . S
C4100 C4084 1.368 . S
C4100 C4096 1.368 . S
C4100 C4099 1.523 . S
H4101 C4076 0.950 . S
H4102 C4078 0.950 . S
H4103 C4079 0.949 . S
H4104 C4081 0.950 . S
H4105 C4083 0.950 . S
C4106 C4107 1.349 . S
C4106 C4108 1.327 . S
C4106 H4131 0.950 . S
C4107 C4106 1.349 . S
C4107 C4123 1.349 . S
C4108 C4106 1.327 . S
C4108 C4127 1.429 . S
C4108 H4132 0.950 . S
C4109 C4126 1.574 1_554 S
C4109 C4128 1.368 . S
C4109 H4133 0.949 . S
H4110 C4114 0.949 . S
C4111 C4112 1.349 . S
C4111 C4113 1.327 . S
C4111 H4134 0.950 . S
C4112 C4111 1.349 . S
C4112 C4124 1.349 . S
C4113 C4111 1.327 . S
C4113 C4129 1.429 . S
C4113 H4135 0.950 . S
C4114 H4110 0.949 . S
C4114 C4122 1.574 1_556 S
C4114 C4130 1.368 . S
H4115 C4123 0.950 . S
H4116 C4121 0.950 . S
H4117 C4122 0.949 . S
H4118 C4124 0.950 . S
H4119 C4125 0.950 . S
H4120 C4126 0.949 . S
C4121 H4116 0.950 . S
C4121 C4123 1.327 . S
C4121 C4127 1.429 . S
C4122 C4114 1.574 1_554 S
C4122 H4117 0.949 . S
C4122 C4128 1.368 . S
C4123 C4107 1.349 . S
C4123 H4115 0.950 . S
C4123 C4121 1.327 . S
C4124 C4112 1.349 . S
C4124 H4118 0.950 . S
C4124 C4125 1.327 . S
C4125 H4119 0.950 . S
C4125 C4124 1.327 . S
C4125 C4129 1.429 . S
C4126 C4109 1.574 1_556 S
C4126 H4120 0.949 . S
C4126 C4130 1.368 . S
C4127 C4108 1.429 . S
C4127 C4121 1.429 . S
C4127 C4128 1.523 . S
C4128 C4109 1.368 . S
C4128 C4122 1.368 . S
C4128 C4127 1.523 . S
C4129 C4113 1.429 . S
C4129 C4125 1.429 . S
C4129 C4130 1.523 . S
C4130 C4114 1.368 . S
C4130 C4126 1.368 . S
C4130 C4129 1.523 . S
H4131 C4106 0.950 . S
H4132 C4108 0.950 . S
H4133 C4109 0.949 . S
H4134 C4111 0.950 . S
H4135 C4113 0.950 . S
C4136 C4137 1.349 . S
C4136 C4138 1.327 . S
C4136 H4161 0.950 . S
C4137 C4136 1.349 . S
C4137 C4153 1.349 . S
C4138 C4136 1.327 . S
C4138 C4157 1.429 . S
C4138 H4162 0.950 . S
C4139 C4156 1.574 1_554 S
C4139 C4158 1.368 . S
C4139 H4163 0.949 . S
H4140 C4144 0.949 . S
C4141 C4142 1.349 . S
C4141 C4143 1.327 . S
C4141 H4164 0.950 . S
C4142 C4141 1.349 . S
C4142 C4154 1.349 . S
C4143 C4141 1.327 . S
C4143 C4159 1.429 . S
C4143 H4165 0.950 . S
C4144 H4140 0.949 . S
C4144 C4152 1.574 1_556 S
C4144 C4160 1.368 . S
H4145 C4153 0.950 . S
H4146 C4151 0.950 . S
H4147 C4152 0.949 . S
H4148 C4154 0.950 . S
H4149 C4155 0.950 . S
H4150 C4156 0.949 . S
C4151 H4146 0.950 . S
C4151 C4153 1.327 . S
C4151 C4157 1.429 . S
C4152 C4144 1.574 1_554 S
C4152 H4147 0.949 . S
C4152 C4158 1.368 . S
C4153 C4137 1.349 . S
C4153 H4145 0.950 . S
C4153 C4151 1.327 . S
C4154 C4142 1.349 . S
C4154 H4148 0.950 . S
C4154 C4155 1.327 . S
C4155 H4149 0.950 . S
C4155 C4154 1.327 . S
C4155 C4159 1.429 . S
C4156 C4139 1.574 1_556 S
C4156 H4150 0.949 . S
C4156 C4160 1.368 . S
C4157 C4138 1.429 . S
C4157 C4151 1.429 . S
C4157 C4158 1.523 . S
C4158 C4139 1.368 . S
C4158 C4152 1.368 . S
C4158 C4157 1.523 . S
C4159 C4143 1.429 . S
C4159 C4155 1.429 . S
C4159 C4160 1.523 . S
C4160 C4144 1.368 . S
C4160 C4156 1.368 . S
C4160 C4159 1.523 . S
H4161 C4136 0.950 . S
H4162 C4138 0.950 . S
H4163 C4139 0.949 . S
H4164 C4141 0.950 . S
H4165 C4143 0.950 . S
C4166 C4167 1.349 . S
C4166 C4168 1.327 . S
C4166 H4191 0.950 . S
C4167 C4166 1.349 . S
C4167 C4183 1.349 . S
C4168 C4166 1.327 . S
C4168 C4187 1.429 . S
C4168 H4192 0.950 . S
C4169 C4186 1.574 1_554 S
C4169 C4188 1.368 . S
C4169 H4193 0.949 . S
H4170 C4174 0.949 . S
C4171 C4172 1.349 . S
C4171 C4173 1.327 . S
C4171 H4194 0.950 . S
C4172 C4171 1.349 . S
C4172 C4184 1.349 . S
C4173 C4171 1.327 . S
C4173 C4189 1.429 . S
C4173 H4195 0.950 . S
C4174 H4170 0.949 . S
C4174 C4182 1.574 1_556 S
C4174 C4190 1.368 . S
H4175 C4183 0.950 . S
H4176 C4181 0.950 . S
H4177 C4182 0.949 . S
H4178 C4184 0.950 . S
H4179 C4185 0.950 . S
H4180 C4186 0.949 . S
C4181 H4176 0.950 . S
C4181 C4183 1.327 . S
C4181 C4187 1.429 . S
C4182 C4174 1.574 1_554 S
C4182 H4177 0.949 . S
C4182 C4188 1.368 . S
C4183 C4167 1.349 . S
C4183 H4175 0.950 . S
C4183 C4181 1.327 . S
C4184 C4172 1.349 . S
C4184 H4178 0.950 . S
C4184 C4185 1.327 . S
C4185 H4179 0.950 . S
C4185 C4184 1.327 . S
C4185 C4189 1.429 . S
C4186 C4169 1.574 1_556 S
C4186 H4180 0.949 . S
C4186 C4190 1.368 . S
C4187 C4168 1.429 . S
C4187 C4181 1.429 . S
C4187 C4188 1.523 . S
C4188 C4169 1.368 . S
C4188 C4182 1.368 . S
C4188 C4187 1.523 . S
C4189 C4173 1.429 . S
C4189 C4185 1.429 . S
C4189 C4190 1.523 . S
C4190 C4174 1.368 . S
C4190 C4186 1.368 . S
C4190 C4189 1.523 . S
H4191 C4166 0.950 . S
H4192 C4168 0.950 . S
H4193 C4169 0.949 . S
H4194 C4171 0.950 . S
H4195 C4173 0.950 . S
C4196 C4197 1.349 . S
C4196 C4198 1.327 . S
C4196 H4221 0.950 . S
C4197 C4196 1.349 . S
C4197 C4213 1.349 . S
C4198 C4196 1.327 . S
C4198 C4217 1.429 . S
C4198 H4222 0.950 . S
C4199 C4216 1.574 1_556 S
C4199 C4218 1.368 . S
C4199 H4223 0.949 . S
H4200 C4204 0.949 . S
C4201 C4202 1.349 . S
C4201 C4203 1.327 . S
C4201 H4224 0.950 . S
C4202 C4201 1.349 . S
C4202 C4214 1.349 . S
C4203 C4201 1.327 . S
C4203 C4219 1.429 . S
C4203 H4225 0.950 . S
C4204 H4200 0.949 . S
C4204 C4212 1.574 1_554 S
C4204 C4220 1.368 . S
H4205 C4213 0.950 . S
H4206 C4211 0.950 . S
H4207 C4212 0.949 . S
H4208 C4214 0.950 . S
H4209 C4215 0.950 . S
H4210 C4216 0.949 . S
C4211 H4206 0.950 . S
C4211 C4213 1.327 . S
C4211 C4217 1.429 . S
C4212 C4204 1.574 1_556 S
C4212 H4207 0.949 . S
C4212 C4218 1.368 . S
C4213 C4197 1.349 . S
C4213 H4205 0.950 . S
C4213 C4211 1.327 . S
C4214 C4202 1.349 . S
C4214 H4208 0.950 . S
C4214 C4215 1.327 . S
C4215 H4209 0.950 . S
C4215 C4214 1.327 . S
C4215 C4219 1.429 . S
C4216 C4199 1.574 1_554 S
C4216 H4210 0.949 . S
C4216 C4220 1.368 . S
C4217 C4198 1.429 . S
C4217 C4211 1.429 . S
C4217 C4218 1.523 . S
C4218 C4199 1.368 . S
C4218 C4212 1.368 . S
C4218 C4217 1.523 . S
C4219 C4203 1.429 . S
C4219 C4215 1.429 . S
C4219 C4220 1.523 . S
C4220 C4204 1.368 . S
C4220 C4216 1.368 . S
C4220 C4219 1.523 . S
H4221 C4196 0.950 . S
H4222 C4198 0.950 . S
H4223 C4199 0.949 . S
H4224 C4201 0.950 . S
H4225 C4203 0.950 . S
C4226 C4227 1.349 . S
C4226 C4228 1.327 . S
C4226 H4251 0.950 . S
C4227 C4226 1.349 . S
C4227 C4243 1.349 . S
C4228 C4226 1.327 . S
C4228 C4247 1.429 . S
C4228 H4252 0.950 . S
C4229 C4246 1.574 1_556 S
C4229 C4248 1.368 . S
C4229 H4253 0.949 . S
H4230 C4234 0.949 . S
C4231 C4232 1.349 . S
C4231 C4233 1.327 . S
C4231 H4254 0.950 . S
C4232 C4231 1.349 . S
C4232 C4244 1.349 . S
C4233 C4231 1.327 . S
C4233 C4249 1.429 . S
C4233 H4255 0.950 . S
C4234 H4230 0.949 . S
C4234 C4242 1.574 1_554 S
C4234 C4250 1.368 . S
H4235 C4243 0.950 . S
H4236 C4241 0.950 . S
H4237 C4242 0.949 . S
H4238 C4244 0.950 . S
H4239 C4245 0.950 . S
H4240 C4246 0.949 . S
C4241 H4236 0.950 . S
C4241 C4243 1.327 . S
C4241 C4247 1.429 . S
C4242 C4234 1.574 1_556 S
C4242 H4237 0.949 . S
C4242 C4248 1.368 . S
C4243 C4227 1.349 . S
C4243 H4235 0.950 . S
C4243 C4241 1.327 . S
C4244 C4232 1.349 . S
C4244 H4238 0.950 . S
C4244 C4245 1.327 . S
C4245 H4239 0.950 . S
C4245 C4244 1.327 . S
C4245 C4249 1.429 . S
C4246 C4229 1.574 1_554 S
C4246 H4240 0.949 . S
C4246 C4250 1.368 . S
C4247 C4228 1.429 . S
C4247 C4241 1.429 . S
C4247 C4248 1.523 . S
C4248 C4229 1.368 . S
C4248 C4242 1.368 . S
C4248 C4247 1.523 . S
C4249 C4233 1.429 . S
C4249 C4245 1.429 . S
C4249 C4250 1.523 . S
C4250 C4234 1.368 . S
C4250 C4246 1.368 . S
C4250 C4249 1.523 . S
H4251 C4226 0.950 . S
H4252 C4228 0.950 . S
H4253 C4229 0.949 . S
H4254 C4231 0.950 . S
H4255 C4233 0.950 . S
C4256 C4257 1.349 . S
C4256 C4258 1.327 . S
C4256 H4281 0.950 . S
C4257 C4256 1.349 . S
C4257 C4273 1.349 . S
C4258 C4256 1.327 . S
C4258 C4277 1.429 . S
C4258 H4282 0.950 . S
C4259 C4276 1.574 . S
C4259 C4278 1.368 . S
C4259 H4283 0.949 . S
H4260 C4264 0.949 . S
C4261 C4262 1.349 . S
C4261 C4263 1.327 . S
C4261 H4284 0.950 . S
C4262 C4261 1.349 . S
C4262 C4274 1.349 . S
C4263 C4261 1.327 . S
C4263 C4279 1.429 . S
C4263 H4285 0.950 . S
C4264 H4260 0.949 . S
C4264 C4272 1.574 . S
C4264 C4280 1.368 . S
H4265 C4273 0.950 . S
H4266 C4271 0.950 . S
H4267 C4272 0.949 . S
H4268 C4274 0.950 . S
H4269 C4275 0.950 . S
H4270 C4276 0.949 . S
C4271 H4266 0.950 . S
C4271 C4273 1.327 . S
C4271 C4277 1.429 . S
C4272 C4264 1.574 . S
C4272 H4267 0.949 . S
C4272 C4278 1.368 . S
C4273 C4257 1.349 . S
C4273 H4265 0.950 . S
C4273 C4271 1.327 . S
C4274 C4262 1.349 . S
C4274 H4268 0.950 . S
C4274 C4275 1.327 . S
C4275 H4269 0.950 . S
C4275 C4274 1.327 . S
C4275 C4279 1.429 . S
C4276 C4259 1.574 . S
C4276 H4270 0.949 . S
C4276 C4280 1.368 . S
C4277 C4258 1.429 . S
C4277 C4271 1.429 . S
C4277 C4278 1.523 . S
C4278 C4259 1.368 . S
C4278 C4272 1.368 . S
C4278 C4277 1.523 . S
C4279 C4263 1.429 . S
C4279 C4275 1.429 . S
C4279 C4280 1.523 . S
C4280 C4264 1.368 . S
C4280 C4276 1.368 . S
C4280 C4279 1.523 . S
H4281 C4256 0.950 . S
H4282 C4258 0.950 . S
H4283 C4259 0.949 . S
H4284 C4261 0.950 . S
H4285 C4263 0.950 . S
C4286 C4287 1.349 . S
C4286 C4288 1.327 . S
C4286 H4311 0.950 . S
C4287 C4286 1.349 . S
C4287 C4303 1.349 . S
C4288 C4286 1.327 . S
C4288 C4307 1.429 . S
C4288 H4312 0.950 . S
C4289 C4306 1.574 . S
C4289 C4308 1.368 . S
C4289 H4313 0.949 . S
H4290 C4294 0.949 . S
C4291 C4292 1.349 . S
C4291 C4293 1.327 . S
C4291 H4314 0.950 . S
C4292 C4291 1.349 . S
C4292 C4304 1.349 . S
C4293 C4291 1.327 . S
C4293 C4309 1.429 . S
C4293 H4315 0.950 . S
C4294 H4290 0.949 . S
C4294 C4302 1.574 . S
C4294 C4310 1.368 . S
H4295 C4303 0.950 . S
H4296 C4301 0.950 . S
H4297 C4302 0.949 . S
H4298 C4304 0.950 . S
H4299 C4305 0.950 . S
H4300 C4306 0.949 . S
C4301 H4296 0.950 . S
C4301 C4303 1.327 . S
C4301 C4307 1.429 . S
C4302 C4294 1.574 . S
C4302 H4297 0.949 . S
C4302 C4308 1.368 . S
C4303 C4287 1.349 . S
C4303 H4295 0.950 . S
C4303 C4301 1.327 . S
C4304 C4292 1.349 . S
C4304 H4298 0.950 . S
C4304 C4305 1.327 . S
C4305 H4299 0.950 . S
C4305 C4304 1.327 . S
C4305 C4309 1.429 . S
C4306 C4289 1.574 . S
C4306 H4300 0.949 . S
C4306 C4310 1.368 . S
C4307 C4288 1.429 . S
C4307 C4301 1.429 . S
C4307 C4308 1.523 . S
C4308 C4289 1.368 . S
C4308 C4302 1.368 . S
C4308 C4307 1.523 . S
C4309 C4293 1.429 . S
C4309 C4305 1.429 . S
C4309 C4310 1.523 . S
C4310 C4294 1.368 . S
C4310 C4306 1.368 . S
C4310 C4309 1.523 . S
H4311 C4286 0.950 . S
H4312 C4288 0.950 . S
H4313 C4289 0.949 . S
H4314 C4291 0.950 . S
H4315 C4293 0.950 . S
C4316 C4317 1.349 . S
C4316 C4318 1.327 . S
C4316 H4341 0.950 . S
C4317 C4316 1.349 . S
C4317 C4333 1.349 . S
C4318 C4316 1.327 . S
C4318 C4337 1.429 . S
C4318 H4342 0.950 . S
C4319 C4336 1.574 . S
C4319 C4338 1.368 . S
C4319 H4343 0.949 . S
H4320 C4324 0.949 . S
C4321 C4322 1.349 . S
C4321 C4323 1.327 . S
C4321 H4344 0.950 . S
C4322 C4321 1.349 . S
C4322 C4334 1.349 . S
C4323 C4321 1.327 . S
C4323 C4339 1.429 . S
C4323 H4345 0.950 . S
C4324 H4320 0.949 . S
C4324 C4332 1.574 . S
C4324 C4340 1.368 . S
H4325 C4333 0.950 . S
H4326 C4331 0.950 . S
H4327 C4332 0.949 . S
H4328 C4334 0.950 . S
H4329 C4335 0.950 . S
H4330 C4336 0.949 . S
C4331 H4326 0.950 . S
C4331 C4333 1.327 . S
C4331 C4337 1.429 . S
C4332 C4324 1.574 . S
C4332 H4327 0.949 . S
C4332 C4338 1.368 . S
C4333 C4317 1.349 . S
C4333 H4325 0.950 . S
C4333 C4331 1.327 . S
C4334 C4322 1.349 . S
C4334 H4328 0.950 . S
C4334 C4335 1.327 . S
C4335 H4329 0.950 . S
C4335 C4334 1.327 . S
C4335 C4339 1.429 . S
C4336 C4319 1.574 . S
C4336 H4330 0.949 . S
C4336 C4340 1.368 . S
C4337 C4318 1.429 . S
C4337 C4331 1.429 . S
C4337 C4338 1.523 . S
C4338 C4319 1.368 . S
C4338 C4332 1.368 . S
C4338 C4337 1.523 . S
C4339 C4323 1.429 . S
C4339 C4335 1.429 . S
C4339 C4340 1.523 . S
C4340 C4324 1.368 . S
C4340 C4336 1.368 . S
C4340 C4339 1.523 . S
H4341 C4316 0.950 . S
H4342 C4318 0.950 . S
H4343 C4319 0.949 . S
H4344 C4321 0.950 . S
H4345 C4323 0.950 . S
C4346 C4347 1.349 . S
C4346 C4348 1.327 . S
C4346 H4371 0.950 . S
C4347 C4346 1.349 . S
C4347 C4363 1.349 . S
C4348 C4346 1.327 . S
C4348 C4367 1.429 . S
C4348 H4372 0.950 . S
C4349 C4366 1.574 . S
C4349 C4368 1.368 . S
C4349 H4373 0.949 . S
H4350 C4354 0.949 . S
C4351 C4352 1.349 . S
C4351 C4353 1.327 . S
C4351 H4374 0.950 . S
C4352 C4351 1.349 . S
C4352 C4364 1.349 . S
C4353 C4351 1.327 . S
C4353 C4369 1.429 . S
C4353 H4375 0.950 . S
C4354 H4350 0.949 . S
C4354 C4362 1.574 . S
C4354 C4370 1.368 . S
H4355 C4363 0.950 . S
H4356 C4361 0.950 . S
H4357 C4362 0.949 . S
H4358 C4364 0.950 . S
H4359 C4365 0.950 . S
H4360 C4366 0.949 . S
C4361 H4356 0.950 . S
C4361 C4363 1.327 . S
C4361 C4367 1.429 . S
C4362 C4354 1.574 . S
C4362 H4357 0.949 . S
C4362 C4368 1.368 . S
C4363 C4347 1.349 . S
C4363 H4355 0.950 . S
C4363 C4361 1.327 . S
C4364 C4352 1.349 . S
C4364 H4358 0.950 . S
C4364 C4365 1.327 . S
C4365 H4359 0.950 . S
C4365 C4364 1.327 . S
C4365 C4369 1.429 . S
C4366 C4349 1.574 . S
C4366 H4360 0.949 . S
C4366 C4370 1.368 . S
C4367 C4348 1.429 . S
C4367 C4361 1.429 . S
C4367 C4368 1.523 . S
C4368 C4349 1.368 . S
C4368 C4362 1.368 . S
C4368 C4367 1.523 . S
C4369 C4353 1.429 . S
C4369 C4365 1.429 . S
C4369 C4370 1.523 . S
C4370 C4354 1.368 . S
C4370 C4366 1.368 . S
C4370 C4369 1.523 . S
H4371 C4346 0.950 . S
H4372 C4348 0.950 . S
H4373 C4349 0.949 . S
H4374 C4351 0.950 . S
H4375 C4353 0.950 . S
C4376 C4377 1.349 . S
C4376 C4378 1.327 . S
C4376 H4401 0.950 . S
C4377 C4376 1.349 . S
C4377 C4393 1.349 . S
C4378 C4376 1.327 . S
C4378 C4397 1.429 . S
C4378 H4402 0.950 . S
C4379 C4396 1.574 . S
C4379 C4398 1.368 . S
C4379 H4403 0.949 . S
H4380 C4384 0.949 . S
C4381 C4382 1.349 . S
C4381 C4383 1.327 . S
C4381 H4404 0.950 . S
C4382 C4381 1.349 . S
C4382 C4394 1.349 . S
C4383 C4381 1.327 . S
C4383 C4399 1.429 . S
C4383 H4405 0.950 . S
C4384 H4380 0.949 . S
C4384 C4392 1.574 . S
C4384 C4400 1.368 . S
H4385 C4393 0.950 . S
H4386 C4391 0.950 . S
H4387 C4392 0.949 . S
H4388 C4394 0.950 . S
H4389 C4395 0.950 . S
H4390 C4396 0.949 . S
C4391 H4386 0.950 . S
C4391 C4393 1.327 . S
C4391 C4397 1.429 . S
C4392 C4384 1.574 . S
C4392 H4387 0.949 . S
C4392 C4398 1.368 . S
C4393 C4377 1.349 . S
C4393 H4385 0.950 . S
C4393 C4391 1.327 . S
C4394 C4382 1.349 . S
C4394 H4388 0.950 . S
C4394 C4395 1.327 . S
C4395 H4389 0.950 . S
C4395 C4394 1.327 . S
C4395 C4399 1.429 . S
C4396 C4379 1.574 . S
C4396 H4390 0.949 . S
C4396 C4400 1.368 . S
C4397 C4378 1.429 . S
C4397 C4391 1.429 . S
C4397 C4398 1.523 . S
C4398 C4379 1.368 . S
C4398 C4392 1.368 . S
C4398 C4397 1.523 . S
C4399 C4383 1.429 . S
C4399 C4395 1.429 . S
C4399 C4400 1.523 . S
C4400 C4384 1.368 . S
C4400 C4396 1.368 . S
C4400 C4399 1.523 . S
H4401 C4376 0.950 . S
H4402 C4378 0.950 . S
H4403 C4379 0.949 . S
H4404 C4381 0.950 . S
H4405 C4383 0.950 . S
C4406 C4407 1.349 . S
C4406 C4408 1.327 . S
C4406 H4431 0.950 . S
C4407 C4406 1.349 . S
C4407 C4423 1.349 . S
C4408 C4406 1.327 . S
C4408 C4427 1.429 . S
C4408 H4432 0.950 . S
C4409 C4426 1.574 . S
C4409 C4428 1.368 . S
C4409 H4433 0.949 . S
H4410 C4414 0.949 . S
C4411 C4412 1.349 . S
C4411 C4413 1.327 . S
C4411 H4434 0.950 . S
C4412 C4411 1.349 . S
C4412 C4424 1.349 . S
C4413 C4411 1.327 . S
C4413 C4429 1.429 . S
C4413 H4435 0.950 . S
C4414 H4410 0.949 . S
C4414 C4422 1.574 . S
C4414 C4430 1.368 . S
H4415 C4423 0.950 . S
H4416 C4421 0.950 . S
H4417 C4422 0.949 . S
H4418 C4424 0.950 . S
H4419 C4425 0.950 . S
H4420 C4426 0.949 . S
C4421 H4416 0.950 . S
C4421 C4423 1.327 . S
C4421 C4427 1.429 . S
C4422 C4414 1.574 . S
C4422 H4417 0.949 . S
C4422 C4428 1.368 . S
C4423 C4407 1.349 . S
C4423 H4415 0.950 . S
C4423 C4421 1.327 . S
C4424 C4412 1.349 . S
C4424 H4418 0.950 . S
C4424 C4425 1.327 . S
C4425 H4419 0.950 . S
C4425 C4424 1.327 . S
C4425 C4429 1.429 . S
C4426 C4409 1.574 . S
C4426 H4420 0.949 . S
C4426 C4430 1.368 . S
C4427 C4408 1.429 . S
C4427 C4421 1.429 . S
C4427 C4428 1.523 . S
C4428 C4409 1.368 . S
C4428 C4422 1.368 . S
C4428 C4427 1.523 . S
C4429 C4413 1.429 . S
C4429 C4425 1.429 . S
C4429 C4430 1.523 . S
C4430 C4414 1.368 . S
C4430 C4426 1.368 . S
C4430 C4429 1.523 . S
H4431 C4406 0.950 . S
H4432 C4408 0.950 . S
H4433 C4409 0.949 . S
H4434 C4411 0.950 . S
H4435 C4413 0.950 . S
C4436 C4437 1.349 . S
C4436 C4438 1.327 . S
C4436 H4461 0.950 . S
C4437 C4436 1.349 . S
C4437 C4453 1.349 . S
C4438 C4436 1.327 . S
C4438 C4457 1.429 . S
C4438 H4462 0.950 . S
C4439 C4456 1.574 . S
C4439 C4458 1.368 . S
C4439 H4463 0.949 . S
H4440 C4444 0.949 . S
C4441 C4442 1.349 . S
C4441 C4443 1.327 . S
C4441 H4464 0.950 . S
C4442 C4441 1.349 . S
C4442 C4454 1.349 . S
C4443 C4441 1.327 . S
C4443 C4459 1.429 . S
C4443 H4465 0.950 . S
C4444 H4440 0.949 . S
C4444 C4452 1.574 . S
C4444 C4460 1.368 . S
H4445 C4453 0.950 . S
H4446 C4451 0.950 . S
H4447 C4452 0.949 . S
H4448 C4454 0.950 . S
H4449 C4455 0.950 . S
H4450 C4456 0.949 . S
C4451 H4446 0.950 . S
C4451 C4453 1.327 . S
C4451 C4457 1.429 . S
C4452 C4444 1.574 . S
C4452 H4447 0.949 . S
C4452 C4458 1.368 . S
C4453 C4437 1.349 . S
C4453 H4445 0.950 . S
C4453 C4451 1.327 . S
C4454 C4442 1.349 . S
C4454 H4448 0.950 . S
C4454 C4455 1.327 . S
C4455 H4449 0.950 . S
C4455 C4454 1.327 . S
C4455 C4459 1.429 . S
C4456 C4439 1.574 . S
C4456 H4450 0.949 . S
C4456 C4460 1.368 . S
C4457 C4438 1.429 . S
C4457 C4451 1.429 . S
C4457 C4458 1.523 . S
C4458 C4439 1.368 . S
C4458 C4452 1.368 . S
C4458 C4457 1.523 . S
C4459 C4443 1.429 . S
C4459 C4455 1.429 . S
C4459 C4460 1.523 . S
C4460 C4444 1.368 . S
C4460 C4456 1.368 . S
C4460 C4459 1.523 . S
H4461 C4436 0.950 . S
H4462 C4438 0.950 . S
H4463 C4439 0.949 . S
H4464 C4441 0.950 . S
H4465 C4443 0.950 . S
C4466 C4467 1.349 . S
C4466 C4468 1.327 . S
C4466 H4491 0.950 . S
C4467 C4466 1.349 . S
C4467 C4483 1.349 . S
C4468 C4466 1.327 . S
C4468 C4487 1.429 . S
C4468 H4492 0.950 . S
C4469 C4486 1.574 . S
C4469 C4488 1.368 . S
C4469 H4493 0.949 . S
H4470 C4474 0.949 . S
C4471 C4472 1.349 . S
C4471 C4473 1.327 . S
C4471 H4494 0.950 . S
C4472 C4471 1.349 . S
C4472 C4484 1.349 . S
C4473 C4471 1.327 . S
C4473 C4489 1.429 . S
C4473 H4495 0.950 . S
C4474 H4470 0.949 . S
C4474 C4482 1.574 . S
C4474 C4490 1.368 . S
H4475 C4483 0.950 . S
H4476 C4481 0.950 . S
H4477 C4482 0.949 . S
H4478 C4484 0.950 . S
H4479 C4485 0.950 . S
H4480 C4486 0.949 . S
C4481 H4476 0.950 . S
C4481 C4483 1.327 . S
C4481 C4487 1.429 . S
C4482 C4474 1.574 . S
C4482 H4477 0.949 . S
C4482 C4488 1.368 . S
C4483 C4467 1.349 . S
C4483 H4475 0.950 . S
C4483 C4481 1.327 . S
C4484 C4472 1.349 . S
C4484 H4478 0.950 . S
C4484 C4485 1.327 . S
C4485 H4479 0.950 . S
C4485 C4484 1.327 . S
C4485 C4489 1.429 . S
C4486 C4469 1.574 . S
C4486 H4480 0.949 . S
C4486 C4490 1.368 . S
C4487 C4468 1.429 . S
C4487 C4481 1.429 . S
C4487 C4488 1.523 . S
C4488 C4469 1.368 . S
C4488 C4482 1.368 . S
C4488 C4487 1.523 . S
C4489 C4473 1.429 . S
C4489 C4485 1.429 . S
C4489 C4490 1.523 . S
C4490 C4474 1.368 . S
C4490 C4486 1.368 . S
C4490 C4489 1.523 . S
H4491 C4466 0.950 . S
H4492 C4468 0.950 . S
H4493 C4469 0.949 . S
H4494 C4471 0.950 . S
H4495 C4473 0.950 . S
C4496 C4497 1.349 . S
C4496 C4498 1.327 . S
C4496 H4521 0.950 . S
C4497 C4496 1.349 . S
C4497 C4513 1.349 . S
C4498 C4496 1.327 . S
C4498 C4517 1.429 . S
C4498 H4522 0.950 . S
C4499 C4516 1.574 . S
C4499 C4518 1.368 . S
C4499 H4523 0.949 . S
H4500 C4504 0.949 . S
C4501 C4502 1.349 . S
C4501 C4503 1.327 . S
C4501 H4524 0.950 . S
C4502 C4501 1.349 . S
C4502 C4514 1.349 . S
C4503 C4501 1.327 . S
C4503 C4519 1.429 . S
C4503 H4525 0.950 . S
C4504 H4500 0.949 . S
C4504 C4512 1.574 . S
C4504 C4520 1.368 . S
H4505 C4513 0.950 . S
H4506 C4511 0.950 . S
H4507 C4512 0.949 . S
H4508 C4514 0.950 . S
H4509 C4515 0.950 . S
H4510 C4516 0.949 . S
C4511 H4506 0.950 . S
C4511 C4513 1.327 . S
C4511 C4517 1.429 . S
C4512 C4504 1.574 . S
C4512 H4507 0.949 . S
C4512 C4518 1.368 . S
C4513 C4497 1.349 . S
C4513 H4505 0.950 . S
C4513 C4511 1.327 . S
C4514 C4502 1.349 . S
C4514 H4508 0.950 . S
C4514 C4515 1.327 . S
C4515 H4509 0.950 . S
C4515 C4514 1.327 . S
C4515 C4519 1.429 . S
C4516 C4499 1.574 . S
C4516 H4510 0.949 . S
C4516 C4520 1.368 . S
C4517 C4498 1.429 . S
C4517 C4511 1.429 . S
C4517 C4518 1.523 . S
C4518 C4499 1.368 . S
C4518 C4512 1.368 . S
C4518 C4517 1.523 . S
C4519 C4503 1.429 . S
C4519 C4515 1.429 . S
C4519 C4520 1.523 . S
C4520 C4504 1.368 . S
C4520 C4516 1.368 . S
C4520 C4519 1.523 . S
H4521 C4496 0.950 . S
H4522 C4498 0.950 . S
H4523 C4499 0.949 . S
H4524 C4501 0.950 . S
H4525 C4503 0.950 . S
C4526 C4527 1.349 . S
C4526 C4528 1.327 . S
C4526 H4551 0.950 . S
C4527 C4526 1.349 . S
C4527 C4543 1.349 . S
C4528 C4526 1.327 . S
C4528 C4547 1.429 . S
C4528 H4552 0.950 . S
C4529 C4546 1.574 . S
C4529 C4548 1.368 . S
C4529 H4553 0.949 . S
H4530 C4534 0.949 . S
C4531 C4532 1.349 . S
C4531 C4533 1.327 . S
C4531 H4554 0.950 . S
C4532 C4531 1.349 . S
C4532 C4544 1.349 . S
C4533 C4531 1.327 . S
C4533 C4549 1.429 . S
C4533 H4555 0.950 . S
C4534 H4530 0.949 . S
C4534 C4542 1.574 . S
C4534 C4550 1.368 . S
H4535 C4543 0.950 . S
H4536 C4541 0.950 . S
H4537 C4542 0.949 . S
H4538 C4544 0.950 . S
H4539 C4545 0.950 . S
H4540 C4546 0.949 . S
C4541 H4536 0.950 . S
C4541 C4543 1.327 . S
C4541 C4547 1.429 . S
C4542 C4534 1.574 . S
C4542 H4537 0.949 . S
C4542 C4548 1.368 . S
C4543 C4527 1.349 . S
C4543 H4535 0.950 . S
C4543 C4541 1.327 . S
C4544 C4532 1.349 . S
C4544 H4538 0.950 . S
C4544 C4545 1.327 . S
C4545 H4539 0.950 . S
C4545 C4544 1.327 . S
C4545 C4549 1.429 . S
C4546 C4529 1.574 . S
C4546 H4540 0.949 . S
C4546 C4550 1.368 . S
C4547 C4528 1.429 . S
C4547 C4541 1.429 . S
C4547 C4548 1.523 . S
C4548 C4529 1.368 . S
C4548 C4542 1.368 . S
C4548 C4547 1.523 . S
C4549 C4533 1.429 . S
C4549 C4545 1.429 . S
C4549 C4550 1.523 . S
C4550 C4534 1.368 . S
C4550 C4546 1.368 . S
C4550 C4549 1.523 . S
H4551 C4526 0.950 . S
H4552 C4528 0.950 . S
H4553 C4529 0.949 . S
H4554 C4531 0.950 . S
H4555 C4533 0.950 . S
C4556 C4557 1.349 . S
C4556 C4558 1.327 . S
C4556 H4581 0.950 . S
C4557 C4556 1.349 . S
C4557 C4573 1.349 . S
C4558 C4556 1.327 . S
C4558 C4577 1.429 . S
C4558 H4582 0.950 . S
C4559 C4576 1.574 . S
C4559 C4578 1.368 . S
C4559 H4583 0.949 . S
H4560 C4564 0.949 . S
C4561 C4562 1.349 . S
C4561 C4563 1.327 . S
C4561 H4584 0.950 . S
C4562 C4561 1.349 . S
C4562 C4574 1.349 . S
C4563 C4561 1.327 . S
C4563 C4579 1.429 . S
C4563 H4585 0.950 . S
C4564 H4560 0.949 . S
C4564 C4572 1.574 . S
C4564 C4580 1.368 . S
H4565 C4573 0.950 . S
H4566 C4571 0.950 . S
H4567 C4572 0.949 . S
H4568 C4574 0.950 . S
H4569 C4575 0.950 . S
H4570 C4576 0.949 . S
C4571 H4566 0.950 . S
C4571 C4573 1.327 . S
C4571 C4577 1.429 . S
C4572 C4564 1.574 . S
C4572 H4567 0.949 . S
C4572 C4578 1.368 . S
C4573 C4557 1.349 . S
C4573 H4565 0.950 . S
C4573 C4571 1.327 . S
C4574 C4562 1.349 . S
C4574 H4568 0.950 . S
C4574 C4575 1.327 . S
C4575 H4569 0.950 . S
C4575 C4574 1.327 . S
C4575 C4579 1.429 . S
C4576 C4559 1.574 . S
C4576 H4570 0.949 . S
C4576 C4580 1.368 . S
C4577 C4558 1.429 . S
C4577 C4571 1.429 . S
C4577 C4578 1.523 . S
C4578 C4559 1.368 . S
C4578 C4572 1.368 . S
C4578 C4577 1.523 . S
C4579 C4563 1.429 . S
C4579 C4575 1.429 . S
C4579 C4580 1.523 . S
C4580 C4564 1.368 . S
C4580 C4576 1.368 . S
C4580 C4579 1.523 . S
H4581 C4556 0.950 . S
H4582 C4558 0.950 . S
H4583 C4559 0.949 . S
H4584 C4561 0.950 . S
H4585 C4563 0.950 . S
C4586 C4587 1.349 . S
C4586 C4588 1.327 . S
C4586 H4611 0.950 . S
C4587 C4586 1.349 . S
C4587 C4603 1.349 . S
C4588 C4586 1.327 . S
C4588 C4607 1.429 . S
C4588 H4612 0.950 . S
C4589 C4606 1.574 . S
C4589 C4608 1.368 . S
C4589 H4613 0.949 . S
H4590 C4594 0.949 . S
C4591 C4592 1.349 . S
C4591 C4593 1.327 . S
C4591 H4614 0.950 . S
C4592 C4591 1.349 . S
C4592 C4604 1.349 . S
C4593 C4591 1.327 . S
C4593 C4609 1.429 . S
C4593 H4615 0.950 . S
C4594 H4590 0.949 . S
C4594 C4602 1.574 . S
C4594 C4610 1.368 . S
H4595 C4603 0.950 . S
H4596 C4601 0.950 . S
H4597 C4602 0.949 . S
H4598 C4604 0.950 . S
H4599 C4605 0.950 . S
H4600 C4606 0.949 . S
C4601 H4596 0.950 . S
C4601 C4603 1.327 . S
C4601 C4607 1.429 . S
C4602 C4594 1.574 . S
C4602 H4597 0.949 . S
C4602 C4608 1.368 . S
C4603 C4587 1.349 . S
C4603 H4595 0.950 . S
C4603 C4601 1.327 . S
C4604 C4592 1.349 . S
C4604 H4598 0.950 . S
C4604 C4605 1.327 . S
C4605 H4599 0.950 . S
C4605 C4604 1.327 . S
C4605 C4609 1.429 . S
C4606 C4589 1.574 . S
C4606 H4600 0.949 . S
C4606 C4610 1.368 . S
C4607 C4588 1.429 . S
C4607 C4601 1.429 . S
C4607 C4608 1.523 . S
C4608 C4589 1.368 . S
C4608 C4602 1.368 . S
C4608 C4607 1.523 . S
C4609 C4593 1.429 . S
C4609 C4605 1.429 . S
C4609 C4610 1.523 . S
C4610 C4594 1.368 . S
C4610 C4606 1.368 . S
C4610 C4609 1.523 . S
H4611 C4586 0.950 . S
H4612 C4588 0.950 . S
H4613 C4589 0.949 . S
H4614 C4591 0.950 . S
H4615 C4593 0.950 . S
C4616 C4617 1.349 . S
C4616 C4618 1.327 . S
C4616 H4641 0.950 . S
C4617 C4616 1.349 . S
C4617 C4633 1.349 . S
C4618 C4616 1.327 . S
C4618 C4637 1.429 . S
C4618 H4642 0.950 . S
C4619 C4636 1.574 . S
C4619 C4638 1.368 . S
C4619 H4643 0.949 . S
H4620 C4624 0.949 . S
C4621 C4622 1.349 . S
C4621 C4623 1.327 . S
C4621 H4644 0.950 . S
C4622 C4621 1.349 . S
C4622 C4634 1.349 . S
C4623 C4621 1.327 . S
C4623 C4639 1.429 . S
C4623 H4645 0.950 . S
C4624 H4620 0.949 . S
C4624 C4632 1.574 . S
C4624 C4640 1.368 . S
H4625 C4633 0.950 . S
H4626 C4631 0.950 . S
H4627 C4632 0.949 . S
H4628 C4634 0.950 . S
H4629 C4635 0.950 . S
H4630 C4636 0.949 . S
C4631 H4626 0.950 . S
C4631 C4633 1.327 . S
C4631 C4637 1.429 . S
C4632 C4624 1.574 . S
C4632 H4627 0.949 . S
C4632 C4638 1.368 . S
C4633 C4617 1.349 . S
C4633 H4625 0.950 . S
C4633 C4631 1.327 . S
C4634 C4622 1.349 . S
C4634 H4628 0.950 . S
C4634 C4635 1.327 . S
C4635 H4629 0.950 . S
C4635 C4634 1.327 . S
C4635 C4639 1.429 . S
C4636 C4619 1.574 . S
C4636 H4630 0.949 . S
C4636 C4640 1.368 . S
C4637 C4618 1.429 . S
C4637 C4631 1.429 . S
C4637 C4638 1.523 . S
C4638 C4619 1.368 . S
C4638 C4632 1.368 . S
C4638 C4637 1.523 . S
C4639 C4623 1.429 . S
C4639 C4635 1.429 . S
C4639 C4640 1.523 . S
C4640 C4624 1.368 . S
C4640 C4636 1.368 . S
C4640 C4639 1.523 . S
H4641 C4616 0.950 . S
H4642 C4618 0.950 . S
H4643 C4619 0.949 . S
H4644 C4621 0.950 . S
H4645 C4623 0.950 . S
C4646 C4647 1.349 . S
C4646 C4648 1.327 . S
C4646 H4671 0.950 . S
C4647 C4646 1.349 . S
C4647 C4663 1.349 . S
C4648 C4646 1.327 . S
C4648 C4667 1.429 . S
C4648 H4672 0.950 . S
C4649 C4666 1.574 . S
C4649 C4668 1.368 . S
C4649 H4673 0.949 . S
H4650 C4654 0.949 . S
C4651 C4652 1.349 . S
C4651 C4653 1.327 . S
C4651 H4674 0.950 . S
C4652 C4651 1.349 . S
C4652 C4664 1.349 . S
C4653 C4651 1.327 . S
C4653 C4669 1.429 . S
C4653 H4675 0.950 . S
C4654 H4650 0.949 . S
C4654 C4662 1.574 . S
C4654 C4670 1.368 . S
H4655 C4663 0.950 . S
H4656 C4661 0.950 . S
H4657 C4662 0.949 . S
H4658 C4664 0.950 . S
H4659 C4665 0.950 . S
H4660 C4666 0.949 . S
C4661 H4656 0.950 . S
C4661 C4663 1.327 . S
C4661 C4667 1.429 . S
C4662 C4654 1.574 . S
C4662 H4657 0.949 . S
C4662 C4668 1.368 . S
C4663 C4647 1.349 . S
C4663 H4655 0.950 . S
C4663 C4661 1.327 . S
C4664 C4652 1.349 . S
C4664 H4658 0.950 . S
C4664 C4665 1.327 . S
C4665 H4659 0.950 . S
C4665 C4664 1.327 . S
C4665 C4669 1.429 . S
C4666 C4649 1.574 . S
C4666 H4660 0.949 . S
C4666 C4670 1.368 . S
C4667 C4648 1.429 . S
C4667 C4661 1.429 . S
C4667 C4668 1.523 . S
C4668 C4649 1.368 . S
C4668 C4662 1.368 . S
C4668 C4667 1.523 . S
C4669 C4653 1.429 . S
C4669 C4665 1.429 . S
C4669 C4670 1.523 . S
C4670 C4654 1.368 . S
C4670 C4666 1.368 . S
C4670 C4669 1.523 . S
H4671 C4646 0.950 . S
H4672 C4648 0.950 . S
H4673 C4649 0.949 . S
H4674 C4651 0.950 . S
H4675 C4653 0.950 . S
C4676 C4677 1.349 . S
C4676 C4678 1.327 . S
C4676 H4701 0.950 . S
C4677 C4676 1.349 . S
C4677 C4693 1.349 . S
C4678 C4676 1.327 . S
C4678 C4697 1.429 . S
C4678 H4702 0.950 . S
C4679 C4696 1.574 . S
C4679 C4698 1.368 . S
C4679 H4703 0.949 . S
H4680 C4684 0.949 . S
C4681 C4682 1.349 . S
C4681 C4683 1.327 . S
C4681 H4704 0.950 . S
C4682 C4681 1.349 . S
C4682 C4694 1.349 . S
C4683 C4681 1.327 . S
C4683 C4699 1.429 . S
C4683 H4705 0.950 . S
C4684 H4680 0.949 . S
C4684 C4692 1.574 . S
C4684 C4700 1.368 . S
H4685 C4693 0.950 . S
H4686 C4691 0.950 . S
H4687 C4692 0.949 . S
H4688 C4694 0.950 . S
H4689 C4695 0.950 . S
H4690 C4696 0.949 . S
C4691 H4686 0.950 . S
C4691 C4693 1.327 . S
C4691 C4697 1.429 . S
C4692 C4684 1.574 . S
C4692 H4687 0.949 . S
C4692 C4698 1.368 . S
C4693 C4677 1.349 . S
C4693 H4685 0.950 . S
C4693 C4691 1.327 . S
C4694 C4682 1.349 . S
C4694 H4688 0.950 . S
C4694 C4695 1.327 . S
C4695 H4689 0.950 . S
C4695 C4694 1.327 . S
C4695 C4699 1.429 . S
C4696 C4679 1.574 . S
C4696 H4690 0.949 . S
C4696 C4700 1.368 . S
C4697 C4678 1.429 . S
C4697 C4691 1.429 . S
C4697 C4698 1.523 . S
C4698 C4679 1.368 . S
C4698 C4692 1.368 . S
C4698 C4697 1.523 . S
C4699 C4683 1.429 . S
C4699 C4695 1.429 . S
C4699 C4700 1.523 . S
C4700 C4684 1.368 . S
C4700 C4696 1.368 . S
C4700 C4699 1.523 . S
H4701 C4676 0.950 . S
H4702 C4678 0.950 . S
H4703 C4679 0.949 . S
H4704 C4681 0.950 . S
H4705 C4683 0.950 . S
C4706 C4707 1.349 . S
C4706 C4708 1.327 . S
C4706 H4731 0.950 . S
C4707 C4706 1.349 . S
C4707 C4723 1.349 . S
C4708 C4706 1.327 . S
C4708 C4727 1.429 . S
C4708 H4732 0.950 . S
C4709 C4726 1.574 . S
C4709 C4728 1.368 . S
C4709 H4733 0.949 . S
H4710 C4714 0.949 . S
C4711 C4712 1.349 . S
C4711 C4713 1.327 . S
C4711 H4734 0.950 . S
C4712 C4711 1.349 . S
C4712 C4724 1.349 . S
C4713 C4711 1.327 . S
C4713 C4729 1.429 . S
C4713 H4735 0.950 . S
C4714 H4710 0.949 . S
C4714 C4722 1.574 . S
C4714 C4730 1.368 . S
H4715 C4723 0.950 . S
H4716 C4721 0.950 . S
H4717 C4722 0.949 . S
H4718 C4724 0.950 . S
H4719 C4725 0.950 . S
H4720 C4726 0.949 . S
C4721 H4716 0.950 . S
C4721 C4723 1.327 . S
C4721 C4727 1.429 . S
C4722 C4714 1.574 . S
C4722 H4717 0.949 . S
C4722 C4728 1.368 . S
C4723 C4707 1.349 . S
C4723 H4715 0.950 . S
C4723 C4721 1.327 . S
C4724 C4712 1.349 . S
C4724 H4718 0.950 . S
C4724 C4725 1.327 . S
C4725 H4719 0.950 . S
C4725 C4724 1.327 . S
C4725 C4729 1.429 . S
C4726 C4709 1.574 . S
C4726 H4720 0.949 . S
C4726 C4730 1.368 . S
C4727 C4708 1.429 . S
C4727 C4721 1.429 . S
C4727 C4728 1.523 . S
C4728 C4709 1.368 . S
C4728 C4722 1.368 . S
C4728 C4727 1.523 . S
C4729 C4713 1.429 . S
C4729 C4725 1.429 . S
C4729 C4730 1.523 . S
C4730 C4714 1.368 . S
C4730 C4726 1.368 . S
C4730 C4729 1.523 . S
H4731 C4706 0.950 . S
H4732 C4708 0.950 . S
H4733 C4709 0.949 . S
H4734 C4711 0.950 . S
H4735 C4713 0.950 . S
C2817 C1377 1.245 . S
C2822 C29 1.244 . S
C2847 C108 1.244 . S
C2852 C1105 1.245 . S
C2877 C196 1.244 . S
C2882 C1201 1.245 . S
C2907 C1281 1.245 . S
C2912 C293 1.244 . S
C2937 C401 1.244 . S
C2942 C821 1.245 . S
C2967 C497 1.244 . S
C2972 C909 1.245 . S
C2997 C997 1.245 . S
C3002 C585 1.244 . S
C3027 C724 1.245 . S
C3032 C665 1.244 . S
C3057 C1437 1.244 . S
C3062 C2785 1.245 . S
C3087 C1516 1.244 . S
C3092 C2521 1.245 . S
C3117 C1604 1.244 . S
C3122 C2601 1.245 . S
C3147 C2689 1.245 . S
C3152 C1701 1.244 . S
C3177 C1809 1.244 . S
C3182 C2229 1.245 . S
C3207 C1905 1.244 . S
C3212 C2317 1.245 . S
C3237 C2396 1.245 . S
C3242 C1985 1.244 . S
C3267 C2073 1.244 . S
C3272 C2132 1.245 . S
C3297 C1076 0.632 . S
C3302 C57 0.631 . S
C3327 C137 0.631 . S
C3332 C1173 0.632 . S
C3357 C1252 0.632 . S
C3362 C225 0.631 . S
C3387 C321 0.631 . S
C3392 C1349 0.632 . S
C3417 C372 0.631 . S
C3422 C753 0.632 . S
C3447 C849 0.632 . S
C3452 C469 0.631 . S
C3477 C937 0.632 . S
C3482 C557 0.631 . S
C3507 C1025 0.632 . S
C3512 C636 0.631 . S
C3537 C1465 0.631 . S
C3542 C2493 0.632 . S
C3567 C2572 0.632 . S
C3572 C1545 0.631 . S
C3597 C1633 0.631 . S
C3602 C2660 0.632 . S
C3627 C1729 0.631 . S
C3632 C2757 0.632 . S
C3657 C2161 0.632 . S
C3662 C1780 0.631 . S
C3687 C1877 0.631 . S
C3692 C2257 0.632 . S
C3717 C1956 0.631 . S
C3722 C2345 0.632 . S
C3747 C2044 0.631 . S
C3752 C2425 0.632 . S
C3777 C20 1.484 . S
C3782 C929 1.485 . S
C3807 C1017 1.485 . S
C3812 C117 1.484 . S
C3837 C205 1.484 . S
C3842 C761 1.485 . S
C3867 C841 1.485 . S
C3872 C284 1.484 . S
C3897 C1261 1.485 . S
C3902 C409 1.484 . S
C3927 C1340 1.485 . S
C3932 C489 1.484 . S
C3957 C1085 1.485 . S
C3962 C577 1.484 . S
C3987 C673 1.484 . S
C3992 C1164 1.485 . S
C4017 C2337 1.485 . S
C4022 C1428 1.484 . S
C4047 C1525 1.484 . S
C4052 C2433 1.485 . S
C4077 C2169 1.485 . S
C4082 C1613 1.484 . S
C4107 C2249 1.485 . S
C4112 C1692 1.484 . S
C4137 C1817 1.484 . S
C4142 C2669 1.485 . S
C4167 C1897 1.484 . S
C4172 C2748 1.485 . S
C4197 C2484 1.485 . S
C4202 C1993 1.484 . S
C4227 C2581 1.485 . S
C4232 C2081 1.484 . S
C4257 C2053 1.122 . S
C4262 C49 1.122 . S
C4287 C1789 1.122 . S
C4292 C145 1.122 . S
C4317 C1868 1.122 . S
C4322 C233 1.122 . S
C4347 C1965 1.122 . S
C4352 C313 1.122 . S
C4377 C1553 1.122 . S
C4382 C381 1.122 . S
C4407 C460 1.122 . S
C4412 C1641 1.122 . S
C4437 C548 1.122 . S
C4442 C1721 1.122 . S
C4467 C645 1.122 . S
C4472 C1457 1.122 . S
C4497 C733 1.123 . S
C4502 C2777 1.123 . S
C4527 C2513 1.123 . S
C4532 C812 1.123 . S
C4557 C900 1.123 . S
C4562 C2609 1.123 . S
C4587 C988 1.123 . S
C4592 C2697 1.123 . S
C4617 C2220 1.123 . S
C4622 C1113 1.123 . S
C4647 C2308 1.123 . S
C4652 C1193 1.123 . S
C4677 C1289 1.123 . S
C4682 C2405 1.123 . S
C4707 C1369 1.123 . S
C4712 C2141 1.123 . S
