# Generated by pormake.
# Topology uot, (4)-cn, num edge types: 1
# Building blocks:
#     Node 0, Type 0, BuildingBlock: QUQFOY_clean_sbu_1, # of connection points: 4
#     Node 1, Type 0, BuildingBlock: QUQFOY_clean_sbu_1, # of connection points: 4
#     Node 2, Type 0, BuildingBlock: QUQFOY_clean_sbu_1, # of connection points: 4
#     Node 3, Type 0, BuildingBlock: QUQFOY_clean_sbu_1, # of connection points: 4
#     Node 4, Type 0, BuildingBlock: QUQFOY_clean_sbu_1, # of connection points: 4
#     Node 5, Type 0, BuildingBlock: QUQFOY_clean_sbu_1, # of connection points: 4
#     Node 6, Type 0, BuildingBlock: QUQFOY_clean_sbu_1, # of connection points: 4
#     Node 7, Type 0, BuildingBlock: QUQFOY_clean_sbu_1, # of connection points: 4
#     Node 8, Type 0, BuildingBlock: QUQFOY_clean_sbu_1, # of connection points: 4
#     Node 9, Type 0, BuildingBlock: QUQFOY_clean_sbu_1, # of connection points: 4
#     Node 10, Type 0, BuildingBlock: QUQFOY_clean_sbu_1, # of connection points: 4
#     Node 11, Type 0, BuildingBlock: QUQFOY_clean_sbu_1, # of connection points: 4
#     Node 12, Type 0, BuildingBlock: QUQFOY_clean_sbu_1, # of connection points: 4
#     Node 13, Type 0, BuildingBlock: QUQFOY_clean_sbu_1, # of connection points: 4
#     Node 14, Type 0, BuildingBlock: QUQFOY_clean_sbu_1, # of connection points: 4
#     Node 15, Type 0, BuildingBlock: QUQFOY_clean_sbu_1, # of connection points: 4
#     Edge 16, Type (0, 0), BuildingBlock: UVAHIK_clean_linker_0, # of connection points: 2
#     Edge 17, Type (0, 0), BuildingBlock: UVAHIK_clean_linker_0, # of connection points: 2
#     Edge 18, Type (0, 0), BuildingBlock: UVAHIK_clean_linker_0, # of connection points: 2
#     Edge 19, Type (0, 0), BuildingBlock: UVAHIK_clean_linker_0, # of connection points: 2
#     Edge 20, Type (0, 0), BuildingBlock: UVAHIK_clean_linker_0, # of connection points: 2
#     Edge 21, Type (0, 0), BuildingBlock: UVAHIK_clean_linker_0, # of connection points: 2
#     Edge 22, Type (0, 0), BuildingBlock: UVAHIK_clean_linker_0, # of connection points: 2
#     Edge 23, Type (0, 0), BuildingBlock: UVAHIK_clean_linker_0, # of connection points: 2
#     Edge 24, Type (0, 0), BuildingBlock: UVAHIK_clean_linker_0, # of connection points: 2
#     Edge 25, Type (0, 0), BuildingBlock: UVAHIK_clean_linker_0, # of connection points: 2
#     Edge 26, Type (0, 0), BuildingBlock: UVAHIK_clean_linker_0, # of connection points: 2
#     Edge 27, Type (0, 0), BuildingBlock: UVAHIK_clean_linker_0, # of connection points: 2
#     Edge 28, Type (0, 0), BuildingBlock: UVAHIK_clean_linker_0, # of connection points: 2
#     Edge 29, Type (0, 0), BuildingBlock: UVAHIK_clean_linker_0, # of connection points: 2
#     Edge 30, Type (0, 0), BuildingBlock: UVAHIK_clean_linker_0, # of connection points: 2
#     Edge 31, Type (0, 0), BuildingBlock: UVAHIK_clean_linker_0, # of connection points: 2
#     Edge 32, Type (0, 0), BuildingBlock: UVAHIK_clean_linker_0, # of connection points: 2
#     Edge 33, Type (0, 0), BuildingBlock: UVAHIK_clean_linker_0, # of connection points: 2
#     Edge 34, Type (0, 0), BuildingBlock: UVAHIK_clean_linker_0, # of connection points: 2
#     Edge 35, Type (0, 0), BuildingBlock: UVAHIK_clean_linker_0, # of connection points: 2
#     Edge 36, Type (0, 0), BuildingBlock: UVAHIK_clean_linker_0, # of connection points: 2
#     Edge 37, Type (0, 0), BuildingBlock: UVAHIK_clean_linker_0, # of connection points: 2
#     Edge 38, Type (0, 0), BuildingBlock: UVAHIK_clean_linker_0, # of connection points: 2
#     Edge 39, Type (0, 0), BuildingBlock: UVAHIK_clean_linker_0, # of connection points: 2
#     Edge 40, Type (0, 0), BuildingBlock: UVAHIK_clean_linker_0, # of connection points: 2
#     Edge 41, Type (0, 0), BuildingBlock: UVAHIK_clean_linker_0, # of connection points: 2
#     Edge 42, Type (0, 0), BuildingBlock: UVAHIK_clean_linker_0, # of connection points: 2
#     Edge 43, Type (0, 0), BuildingBlock: UVAHIK_clean_linker_0, # of connection points: 2
#     Edge 44, Type (0, 0), BuildingBlock: UVAHIK_clean_linker_0, # of connection points: 2
#     Edge 45, Type (0, 0), BuildingBlock: UVAHIK_clean_linker_0, # of connection points: 2
#     Edge 46, Type (0, 0), BuildingBlock: UVAHIK_clean_linker_0, # of connection points: 2
#     Edge 47, Type (0, 0), BuildingBlock: UVAHIK_clean_linker_0, # of connection points: 2
# Relax obj value: 0.055
# Max RMSD: 0.082
# Mean RMSD: 0.082
data_MOF--net-uot--node1-QUQFOY_clean_sbu_1--edge1-UVAHIK_clean_linker_0
_symmetry_space_group_name_H-M    P1
_symmetry_Int_Tables_number       1
_symmetry_cell_setting            triclinic
loop_
_symmetry_equiv_pos_as_xyz
'x, y, z'
_cell_length_a     59.472313
_cell_length_b     59.475535
_cell_length_c     56.880931
_cell_angle_alpha  90.034964
_cell_angle_beta   90.016206
_cell_angle_gamma 90.007817
loop_
_atom_site_label
_atom_site_type_symbol
_atom_site_fract_x
_atom_site_fract_y
_atom_site_fract_z
_atom_type_partial_charge
O0 O 0.18267 0.40975 0.30501 0.0
Cd1 Cd 0.20828 0.43093 0.31538 0.0
Cd2 Cd 0.17772 0.44336 0.34738 0.0
O3 O 0.16013 0.41569 0.33511 0.0
O4 O 0.23608 0.41799 0.30137 0.0
O5 O 0.23038 0.42009 0.33974 0.0
C6 C 0.24297 0.41381 0.32242 0.0
C7 C 0.18099 0.45048 0.38766 0.0
C8 C 0.16468 0.40533 0.31614 0.0
C9 C 0.19069 0.47732 0.3103 0.0
O10 O 0.17713 0.47179 0.32658 0.0
O11 O 0.2061 0.46382 0.30393 0.0
O12 O 0.16211 0.4527 0.37678 0.0
O13 O 0.19807 0.44333 0.37578 0.0
O14 O 0.40761 0.82595 0.69829 0.0
Cd15 Cd 0.42932 0.8001 0.68976 0.0
Cd16 Cd 0.44207 0.82951 0.65681 0.0
O17 O 0.41337 0.84666 0.66678 0.0
O18 O 0.41644 0.77325 0.70564 0.0
O19 O 0.41869 0.77635 0.66697 0.0
C20 C 0.4123 0.76498 0.68514 0.0
C21 C 0.45087 0.82524 0.617 0.0
C22 C 0.4028 0.843 0.68582 0.0
C23 C 0.475 0.81902 0.6957 0.0
O24 O 0.46947 0.83205 0.67896 0.0
O25 O 0.46195 0.80314 0.70184 0.0
O26 O 0.45218 0.84446 0.62736 0.0
O27 O 0.44383 0.80829 0.62915 0.0
O28 O 0.82639 0.59731 0.30998 0.0
Cd29 Cd 0.79969 0.57589 0.3153 0.0
Cd30 Cd 0.82875 0.55703 0.34712 0.0
O31 O 0.84942 0.5832 0.33654 0.0
O32 O 0.77412 0.59111 0.29939 0.0
O33 O 0.77509 0.58529 0.33775 0.0
C34 C 0.76483 0.59356 0.31969 0.0
C35 C 0.82554 0.54837 0.38707 0.0
C36 C 0.8452 0.59755 0.32056 0.0
C37 C 0.81379 0.52826 0.30627 0.0
O38 O 0.82576 0.52994 0.3247 0.0
O39 O 0.80161 0.54459 0.29953 0.0
O40 O 0.84371 0.54436 0.37548 0.0
O41 O 0.80914 0.55799 0.37608 0.0
O42 O 0.59982 0.1751 0.69334 0.0
Cd43 Cd 0.5782 0.20185 0.68856 0.0
Cd44 Cd 0.56103 0.17449 0.65451 0.0
O45 O 0.58828 0.15462 0.66335 0.0
O46 O 0.5928 0.22741 0.70516 0.0
O47 O 0.58754 0.22687 0.66667 0.0
C48 C 0.59541 0.237 0.68503 0.0
C49 C 0.55137 0.17881 0.61485 0.0
C50 C 0.60149 0.15757 0.68066 0.0
C51 C 0.5312 0.18564 0.69597 0.0
O52 O 0.53414 0.17417 0.67737 0.0
O53 O 0.54644 0.19896 0.70317 0.0
O54 O 0.54875 0.15998 0.62568 0.0
O55 O 0.56013 0.19532 0.62643 0.0
O56 O 0.17975 0.59925 0.69518 0.0
Cd57 Cd 0.20661 0.57793 0.69043 0.0
Cd58 Cd 0.17763 0.55844 0.65848 0.0
O59 O 0.15702 0.58492 0.66842 0.0
O60 O 0.23201 0.5935 0.70633 0.0
O61 O 0.23137 0.58712 0.66806 0.0
C62 C 0.24145 0.59569 0.68608 0.0
C63 C 0.18015 0.54808 0.61884 0.0
C64 C 0.16106 0.5994 0.68435 0.0
C65 C 0.19237 0.53053 0.70018 0.0
O66 O 0.18053 0.53195 0.68165 0.0
O67 O 0.2046 0.54691 0.70673 0.0
O68 O 0.16214 0.54474 0.63092 0.0
O69 O 0.19674 0.55814 0.62908 0.0
O70 O 0.59598 0.82311 0.30687 0.0
Cd71 Cd 0.57506 0.7965 0.3142 0.0
Cd72 Cd 0.55847 0.82615 0.34646 0.0
O73 O 0.58554 0.84562 0.33566 0.0
O74 O 0.58972 0.77045 0.29856 0.0
O75 O 0.58549 0.77274 0.3371 0.0
C76 C 0.5931 0.76191 0.31908 0.0
C77 C 0.54925 0.82376 0.38636 0.0
C78 C 0.5981 0.84146 0.31809 0.0
C79 C 0.52788 0.81157 0.30663 0.0
O80 O 0.53099 0.8243 0.3243 0.0
O81 O 0.5432 0.79811 0.29997 0.0
O82 O 0.54633 0.842 0.37454 0.0
O83 O 0.55834 0.80686 0.3757 0.0
O84 O 0.82324 0.4087 0.70063 0.0
Cd85 Cd 0.7963 0.42912 0.69306 0.0
Cd86 Cd 0.82521 0.44541 0.65988 0.0
O87 O 0.84465 0.41832 0.67064 0.0
O88 O 0.7703 0.41437 0.70868 0.0
O89 O 0.77281 0.41819 0.67011 0.0
C90 C 0.76194 0.41068 0.68813 0.0
C91 C 0.82298 0.45426 0.61985 0.0
C92 C 0.84116 0.40628 0.68875 0.0
C93 C 0.81106 0.47649 0.69954 0.0
O94 O 0.82365 0.47313 0.68182 0.0
O95 O 0.79768 0.46126 0.70657 0.0
O96 O 0.8412 0.45716 0.6317 0.0
O97 O 0.80595 0.44551 0.63057 0.0
O98 O 0.40629 0.18351 0.30423 0.0
Cd99 Cd 0.42746 0.2098 0.31203 0.0
Cd100 Cd 0.44371 0.18027 0.34413 0.0
O101 O 0.41663 0.16093 0.333 0.0
O102 O 0.4129 0.23697 0.29847 0.0
O103 O 0.41822 0.23236 0.33666 0.0
C104 C 0.41038 0.24439 0.3196 0.0
C105 C 0.45281 0.18236 0.38412 0.0
C106 C 0.40417 0.16511 0.31534 0.0
C107 C 0.47442 0.19443 0.30427 0.0
O108 O 0.47128 0.18192 0.32207 0.0
O109 O 0.45918 0.20793 0.29749 0.0
O110 O 0.4556 0.16416 0.37218 0.0
O111 O 0.44393 0.1994 0.37353 0.0
O112 O 0.67932 0.90683 0.81163 0.0
Cd113 Cd 0.70658 0.9278 0.81699 0.0
Cd114 Cd 0.67864 0.94538 0.85002 0.0
O115 O 0.65825 0.91859 0.84109 0.0
O116 O 0.73254 0.91224 0.80206 0.0
O117 O 0.73045 0.91868 0.8403 0.0
C118 C 0.74124 0.91015 0.82271 0.0
C119 C 0.68241 0.95649 0.88932 0.0
C120 C 0.66139 0.90546 0.82373 0.0
C121 C 0.69112 0.9745 0.80822 0.0
O122 O 0.67916 0.97161 0.82646 0.0
O123 O 0.70483 0.95935 0.80167 0.0
O124 O 0.66407 0.95973 0.87777 0.0
O125 O 0.69856 0.94598 0.87885 0.0
O126 O 0.90736 0.32371 0.19881 0.0
Cd127 Cd 0.92862 0.29743 0.19134 0.0
Cd128 Cd 0.94302 0.32551 0.15684 0.0
O129 O 0.91587 0.34467 0.16812 0.0
O130 O 0.91479 0.27043 0.20603 0.0
O131 O 0.91891 0.27428 0.16757 0.0
C132 C 0.91167 0.26256 0.18515 0.0
C133 C 0.95059 0.32247 0.11657 0.0
C134 C 0.90427 0.34131 0.18658 0.0
C135 C 0.97568 0.31341 0.19589 0.0
O136 O 0.97152 0.32505 0.17766 0.0
O137 O 0.96093 0.30017 0.20421 0.0
O138 O 0.95345 0.34105 0.12781 0.0
O139 O 0.94258 0.30553 0.12806 0.0
O140 O 0.32731 0.09668 0.81204 0.0
Cd141 Cd 0.29988 0.07605 0.81689 0.0
Cd142 Cd 0.32856 0.05611 0.84887 0.0
O143 O 0.34984 0.08197 0.83874 0.0
O144 O 0.2751 0.09215 0.80052 0.0
O145 O 0.27513 0.08617 0.83886 0.0
C146 C 0.26549 0.09481 0.82062 0.0
C147 C 0.32548 0.04616 0.88854 0.0
C148 C 0.34604 0.09646 0.82278 0.0
C149 C 0.31287 0.02816 0.80756 0.0
O150 O 0.32496 0.02952 0.82593 0.0
O151 O 0.30098 0.04477 0.80099 0.0
O152 O 0.3435 0.04228 0.87665 0.0
O153 O 0.30923 0.05656 0.87809 0.0
O154 O 0.09864 0.68089 0.19582 0.0
Cd155 Cd 0.07637 0.70653 0.18847 0.0
Cd156 Cd 0.06138 0.67658 0.15611 0.0
O157 O 0.08881 0.65796 0.16713 0.0
O158 O 0.08985 0.73374 0.20319 0.0
O159 O 0.08538 0.73008 0.16478 0.0
C160 C 0.0926 0.74181 0.18236 0.0
C161 C 0.05286 0.6799 0.11609 0.0
C162 C 0.10129 0.66257 0.18464 0.0
C163 C 0.02981 0.68915 0.19559 0.0
O164 O 0.0338 0.6766 0.17799 0.0
O165 O 0.0443 0.70351 0.2023 0.0
O166 O 0.05041 0.66118 0.12719 0.0
O167 O 0.061 0.69679 0.12757 0.0
O168 O 0.68095 0.09802 0.20139 0.0
Cd169 Cd 0.70799 0.07734 0.19524 0.0
Cd170 Cd 0.6803 0.06057 0.16115 0.0
O171 O 0.65974 0.08699 0.1717 0.0
O172 O 0.73453 0.09266 0.20926 0.0
O173 O 0.73101 0.08639 0.17107 0.0
C174 C 0.74248 0.09479 0.18828 0.0
C175 C 0.68305 0.05104 0.12131 0.0
C176 C 0.66298 0.09966 0.18943 0.0
C177 C 0.69401 0.03004 0.20177 0.0
O178 O 0.6827 0.03296 0.18307 0.0
O179 O 0.70622 0.04572 0.20995 0.0
O180 O 0.66512 0.04707 0.13329 0.0
O181 O 0.6993 0.06152 0.13166 0.0
O182 O 0.09739 0.32655 0.80707 0.0
Cd183 Cd 0.07678 0.29948 0.8135 0.0
Cd184 Cd 0.05953 0.32803 0.84658 0.0
O185 O 0.0867 0.34785 0.83677 0.0
O186 O 0.092 0.27384 0.79771 0.0
O187 O 0.08711 0.27552 0.8362 0.0
C188 C 0.09514 0.26504 0.81814 0.0
C189 C 0.04964 0.32497 0.88629 0.0
C190 C 0.09934 0.34446 0.81907 0.0
C191 C 0.02955 0.31419 0.80589 0.0
O192 O 0.03238 0.3265 0.82392 0.0
O193 O 0.04504 0.30103 0.79901 0.0
O194 O 0.04686 0.34338 0.87473 0.0
O195 O 0.05894 0.30827 0.87549 0.0
O196 O 0.32141 0.90569 0.20189 0.0
Cd197 Cd 0.29531 0.92709 0.19423 0.0
Cd198 Cd 0.32343 0.94135 0.15987 0.0
O199 O 0.34246 0.91415 0.17124 0.0
O200 O 0.26785 0.91331 0.20801 0.0
O201 O 0.27271 0.91787 0.16972 0.0
C202 C 0.26049 0.91051 0.18687 0.0
C203 C 0.32059 0.94884 0.11956 0.0
C204 C 0.33903 0.90258 0.1897 0.0
C205 C 0.31148 0.97401 0.19901 0.0
O206 O 0.32304 0.96986 0.18071 0.0
O207 O 0.2982 0.95929 0.20732 0.0
O208 O 0.33914 0.95165 0.13087 0.0
O209 O 0.30356 0.94099 0.13101 0.0
O210 O 0.90711 0.68202 0.80517 0.0
Cd211 Cd 0.92846 0.70809 0.81365 0.0
Cd212 Cd 0.94226 0.67858 0.84657 0.0
O213 O 0.91394 0.66087 0.83617 0.0
O214 O 0.91471 0.73538 0.79943 0.0
O215 O 0.91852 0.73079 0.83782 0.0
C216 C 0.91138 0.74283 0.82044 0.0
C217 C 0.95187 0.68126 0.88641 0.0
C218 C 0.90299 0.6646 0.81736 0.0
C219 C 0.9746 0.69052 0.8073 0.0
O220 O 0.96971 0.67758 0.82433 0.0
O221 O 0.96085 0.70567 0.80085 0.0
O222 O 0.95327 0.66255 0.87508 0.0
O223 O 0.94404 0.69852 0.87532 0.0
C224 C 0.27787 0.39563 0.30703 0.0
C225 C 0.26404 0.40103 0.32625 0.0
C226 C 0.29663 0.38181 0.30993 0.0
C227 C 0.31831 0.33696 0.34794 0.0
H228 H 0.37242 0.34558 0.31099 0.0
C229 C 0.3905 0.27137 0.34661 0.0
C230 C 0.39783 0.26551 0.32392 0.0
C231 C 0.37678 0.29025 0.35005 0.0
C232 C 0.35742 0.34292 0.32143 0.0
H233 H 0.2595 0.39667 0.36379 0.0
H234 H 0.29245 0.37249 0.3689 0.0
H235 H 0.34366 0.3748 0.31156 0.0
H236 H 0.39718 0.27533 0.2872 0.0
H237 H 0.37343 0.30808 0.29318 0.0
H238 H 0.33184 0.3048 0.35729 0.0
C239 C 0.2886 0.37886 0.35153 0.0
C240 C 0.34093 0.35966 0.32174 0.0
C241 C 0.26982 0.39282 0.34863 0.0
C242 C 0.39182 0.27934 0.30491 0.0
C243 C 0.37831 0.29824 0.30836 0.0
C244 C 0.33485 0.32021 0.34766 0.0
C245 C 0.30206 0.37297 0.33213 0.0
C246 C 0.3209 0.35663 0.33448 0.0
C247 C 0.37034 0.30375 0.3309 0.0
C248 C 0.35432 0.32276 0.33389 0.0
H249 H 0.27391 0.40164 0.28954 0.0
H250 H 0.30639 0.37738 0.29454 0.0
H251 H 0.30301 0.33397 0.35778 0.0
H252 H 0.39483 0.26102 0.36161 0.0
H253 H 0.37104 0.29416 0.36765 0.0
C254 C 0.39374 0.73149 0.70307 0.0
C255 C 0.39911 0.74395 0.68286 0.0
C256 C 0.3789 0.71336 0.70179 0.0
C257 C 0.35024 0.67336 0.66196 0.0
H258 H 0.30521 0.6737 0.71125 0.0
C259 C 0.26974 0.61697 0.66185 0.0
C260 C 0.26245 0.60889 0.68379 0.0
C261 C 0.28803 0.63181 0.66042 0.0
C262 C 0.31782 0.6731 0.69753 0.0
H263 H 0.39398 0.74642 0.64521 0.0
H264 H 0.36781 0.71467 0.64301 0.0
H265 H 0.33434 0.70223 0.71104 0.0
H266 H 0.26949 0.60885 0.72121 0.0
H267 H 0.30146 0.63414 0.71867 0.0
H268 H 0.33344 0.64411 0.64846 0.0
C269 C 0.37522 0.71894 0.65982 0.0
C270 C 0.33455 0.68951 0.6974 0.0
C271 C 0.39017 0.73715 0.6611 0.0
C272 C 0.27448 0.61499 0.70406 0.0
C273 C 0.29275 0.62963 0.70262 0.0
C274 C 0.33344 0.6568 0.66212 0.0
C275 C 0.36896 0.70725 0.6803 0.0
C276 C 0.3511 0.68975 0.67979 0.0
C277 C 0.29937 0.63875 0.6809 0.0
C278 C 0.31716 0.65636 0.68008 0.0
H279 H 0.4005 0.73611 0.72008 0.0
H280 H 0.37483 0.70439 0.71781 0.0
H281 H 0.36279 0.67309 0.64818 0.0
H282 H 0.26078 0.61258 0.64592 0.0
H283 H 0.29265 0.63857 0.64342 0.0
C284 C 0.61278 0.72896 0.3014 0.0
C285 C 0.60664 0.74115 0.32156 0.0
C286 C 0.62781 0.71104 0.30295 0.0
C287 C 0.65577 0.67101 0.34319 0.0
H288 H 0.70183 0.67196 0.29496 0.0
C289 C 0.73646 0.61478 0.34392 0.0
C290 C 0.74383 0.60674 0.32197 0.0
C291 C 0.71819 0.62962 0.34533 0.0
C292 C 0.68895 0.67122 0.30839 0.0
H293 H 0.61064 0.74337 0.35938 0.0
H294 H 0.63721 0.71198 0.36207 0.0
H295 H 0.67266 0.70046 0.29489 0.0
H296 H 0.73692 0.6068 0.28452 0.0
H297 H 0.70501 0.63216 0.28703 0.0
H298 H 0.67237 0.64165 0.3567 0.0
C299 C 0.63023 0.7163 0.34508 0.0
C300 C 0.6722 0.68759 0.30835 0.0
C301 C 0.61505 0.7343 0.34353 0.0
C302 C 0.73187 0.6129 0.30168 0.0
C303 C 0.71364 0.62756 0.30309 0.0
C304 C 0.67262 0.65449 0.34322 0.0
C305 C 0.63722 0.70488 0.32468 0.0
C306 C 0.65523 0.68756 0.32554 0.0
C307 C 0.70695 0.63663 0.32482 0.0
C308 C 0.68924 0.65428 0.32561 0.0
H309 H 0.60642 0.73362 0.28424 0.0
H310 H 0.63244 0.70225 0.28698 0.0
H311 H 0.64291 0.67053 0.35666 0.0
H312 H 0.74536 0.61034 0.35987 0.0
H313 H 0.71348 0.63634 0.36233 0.0
C314 C 0.61409 0.27002 0.70377 0.0
C315 C 0.60833 0.25821 0.68324 0.0
C316 C 0.62848 0.28851 0.70277 0.0
C317 C 0.65529 0.33026 0.66328 0.0
H318 H 0.70063 0.33075 0.71228 0.0
C319 C 0.73461 0.38839 0.66362 0.0
C320 C 0.74131 0.39692 0.6856 0.0
C321 C 0.71671 0.3731 0.66201 0.0
C322 C 0.68793 0.33108 0.69863 0.0
H323 H 0.61237 0.25718 0.64537 0.0
H324 H 0.6379 0.28946 0.64366 0.0
H325 H 0.67244 0.30128 0.71181 0.0
H326 H 0.73363 0.39717 0.72289 0.0
H327 H 0.70243 0.37093 0.72003 0.0
H328 H 0.67121 0.3601 0.65003 0.0
C329 C 0.63107 0.28447 0.66051 0.0
C330 C 0.67172 0.31415 0.69837 0.0
C331 C 0.6165 0.26595 0.6615 0.0
C332 C 0.72908 0.39073 0.70571 0.0
C333 C 0.71125 0.37557 0.7041 0.0
C334 C 0.67163 0.34728 0.66353 0.0
C335 C 0.63767 0.2956 0.68124 0.0
C336 C 0.65504 0.31363 0.68087 0.0
C337 C 0.70523 0.36609 0.68235 0.0
C338 C 0.68798 0.34799 0.6814 0.0
H339 H 0.60788 0.26468 0.72077 0.0
H340 H 0.63276 0.29703 0.71901 0.0
H341 H 0.64264 0.33036 0.64959 0.0
H342 H 0.74371 0.39284 0.6478 0.0
H343 H 0.71251 0.36606 0.645 0.0
C344 C 0.77495 0.89067 0.80621 0.0
C345 C 0.76243 0.89741 0.82594 0.0
C346 C 0.79396 0.87713 0.80878 0.0
C347 C 0.81844 0.83493 0.84796 0.0
H348 H 0.87073 0.84267 0.80807 0.0
C349 C 0.89147 0.77035 0.84683 0.0
C350 C 0.89857 0.76389 0.82423 0.0
C351 C 0.87749 0.78911 0.84984 0.0
C352 C 0.85623 0.84023 0.8193 0.0
H353 H 0.76038 0.89563 0.86395 0.0
H354 H 0.79369 0.87179 0.86845 0.0
H355 H 0.84137 0.87129 0.80834 0.0
H356 H 0.89715 0.77251 0.7872 0.0
H357 H 0.87284 0.80492 0.79241 0.0
H358 H 0.83295 0.8035 0.85833 0.0
C359 C 0.78867 0.87698 0.85097 0.0
C360 C 0.83942 0.85664 0.81947 0.0
C361 C 0.76968 0.89073 0.8484 0.0
C362 C 0.89202 0.77701 0.80486 0.0
C363 C 0.87817 0.79573 0.80787 0.0
C364 C 0.83526 0.81846 0.84776 0.0
C365 C 0.80089 0.86986 0.83114 0.0
C366 C 0.82006 0.85392 0.83336 0.0
C367 C 0.87044 0.80185 0.83034 0.0
C368 C 0.85409 0.82065 0.83297 0.0
H369 H 0.76984 0.89551 0.78864 0.0
H370 H 0.80278 0.87171 0.79311 0.0
H371 H 0.80365 0.83222 0.85871 0.0
H372 H 0.89622 0.7606 0.86211 0.0
H373 H 0.87201 0.7935 0.86741 0.0
C374 C 0.77014 0.11401 0.16154 0.0
C375 C 0.7636 0.10743 0.18427 0.0
C376 C 0.78907 0.1277 0.15826 0.0
C377 C 0.84078 0.14816 0.18802 0.0
H378 H 0.83309 0.20116 0.14918 0.0
C379 C 0.89284 0.22832 0.20125 0.0
C380 C 0.89901 0.24136 0.18169 0.0
C381 C 0.87914 0.20944 0.19857 0.0
C382 C 0.83573 0.18624 0.15973 0.0
H383 H 0.77223 0.10942 0.22128 0.0
H384 H 0.80505 0.13312 0.21558 0.0
H385 H 0.80389 0.17234 0.14974 0.0
H386 H 0.89613 0.24437 0.14382 0.0
H387 H 0.87212 0.21123 0.13911 0.0
H388 H 0.8723 0.16233 0.19853 0.0
C389 C 0.79572 0.12767 0.20024 0.0
C390 C 0.81897 0.16971 0.16006 0.0
C391 C 0.77678 0.11419 0.20352 0.0
C392 C 0.89168 0.23467 0.15924 0.0
C393 C 0.87782 0.21578 0.15656 0.0
C394 C 0.85752 0.16465 0.18768 0.0
C395 C 0.80195 0.13486 0.17762 0.0
C396 C 0.82104 0.15078 0.1747 0.0
C397 C 0.87116 0.20311 0.17626 0.0
C398 C 0.85492 0.18418 0.17403 0.0
H399 H 0.76031 0.1091 0.14634 0.0
H400 H 0.79354 0.13282 0.1406 0.0
H401 H 0.84308 0.13357 0.19914 0.0
H402 H 0.89817 0.23298 0.2188 0.0
H403 H 0.8741 0.2003 0.21416 0.0
C404 C 0.1157 0.23268 0.80033 0.0
C405 C 0.10881 0.24435 0.82056 0.0
C406 C 0.13072 0.21475 0.80197 0.0
C407 C 0.15705 0.17364 0.84222 0.0
H408 H 0.2047 0.17525 0.79574 0.0
C409 C 0.23692 0.11628 0.84437 0.0
C410 C 0.2448 0.10855 0.8225 0.0
C411 C 0.2189 0.13147 0.84552 0.0
C412 C 0.19138 0.17434 0.80868 0.0
H413 H 0.1115 0.24565 0.85856 0.0
H414 H 0.13804 0.21425 0.86142 0.0
H415 H 0.17579 0.20402 0.79532 0.0
H416 H 0.2391 0.10961 0.78484 0.0
H417 H 0.20766 0.13558 0.78688 0.0
H418 H 0.17292 0.14382 0.85557 0.0
C419 C 0.13166 0.21898 0.84429 0.0
C420 C 0.17478 0.19087 0.80844 0.0
C421 C 0.11651 0.23699 0.84264 0.0
C422 C 0.23365 0.11544 0.80196 0.0
C423 C 0.21568 0.13046 0.80311 0.0
C424 C 0.17375 0.15698 0.84245 0.0
C425 C 0.13936 0.20805 0.82388 0.0
C426 C 0.15724 0.1906 0.82499 0.0
C427 C 0.20846 0.13914 0.82482 0.0
C428 C 0.19094 0.157 0.82545 0.0
H429 H 0.10992 0.23773 0.78306 0.0
H430 H 0.13591 0.20636 0.78596 0.0
H431 H 0.14373 0.17296 0.85519 0.0
H432 H 0.24519 0.11128 0.86051 0.0
H433 H 0.21377 0.13787 0.86252 0.0
C434 C 0.22567 0.89175 0.20171 0.0
C435 C 0.23928 0.89807 0.18264 0.0
C436 C 0.20676 0.87823 0.19827 0.0
C437 C 0.1844 0.83551 0.15812 0.0
H438 H 0.13056 0.84273 0.19582 0.0
C439 C 0.11224 0.77 0.15658 0.0
C440 C 0.10488 0.76325 0.17898 0.0
C441 C 0.12589 0.78906 0.154 0.0
C442 C 0.14549 0.84046 0.18517 0.0
H443 H 0.24327 0.89571 0.14482 0.0
H444 H 0.21009 0.87202 0.13879 0.0
H445 H 0.15955 0.87173 0.19664 0.0
H446 H 0.10533 0.7717 0.21608 0.0
H447 H 0.129 0.80471 0.21162 0.0
H448 H 0.17063 0.8039 0.14721 0.0
C449 C 0.21422 0.87745 0.15645 0.0
C450 C 0.1621 0.85708 0.18565 0.0
C451 C 0.23313 0.89112 0.15989 0.0
C452 C 0.11072 0.77641 0.19857 0.0
C453 C 0.12419 0.79546 0.19599 0.0
C454 C 0.16776 0.81887 0.15764 0.0
C455 C 0.20098 0.87062 0.17566 0.0
C456 C 0.18202 0.85453 0.17261 0.0
C457 C 0.13226 0.80184 0.17375 0.0
C458 C 0.14838 0.82088 0.17165 0.0
H459 H 0.22991 0.8968 0.21947 0.0
H460 H 0.19715 0.87306 0.21351 0.0
H461 H 0.19962 0.8329 0.14803 0.0
H462 H 0.10804 0.7602 0.14114 0.0
H463 H 0.13168 0.79364 0.1366 0.0
C464 C 0.20041 0.50452 0.27798 0.0
C465 C 0.18739 0.49893 0.29778 0.0
C466 C 0.19577 0.524 0.26504 0.0
C467 C 0.16468 0.57823 0.26786 0.0
H468 H 0.16263 0.57273 0.19997 0.0
C469 C 0.13295 0.65146 0.21129 0.0
C470 C 0.11749 0.64568 0.19359 0.0
C471 C 0.146 0.63494 0.22219 0.0
C472 C 0.1631 0.57455 0.21891 0.0
H473 H 0.1597 0.50987 0.31986 0.0
H474 H 0.1515 0.54347 0.29729 0.0
H475 H 0.1766 0.54148 0.22356 0.0
H476 H 0.10449 0.61813 0.17261 0.0
H477 H 0.12681 0.58926 0.19195 0.0
H478 H 0.15007 0.61072 0.26343 0.0
C479 C 0.16549 0.53303 0.29185 0.0
C480 C 0.17138 0.55672 0.23243 0.0
C481 C 0.17011 0.51362 0.30474 0.0
C482 C 0.11625 0.62317 0.18617 0.0
C483 C 0.12917 0.6066 0.19721 0.0
C484 C 0.15634 0.59598 0.25438 0.0
C485 C 0.17805 0.53834 0.27166 0.0
C486 C 0.1718 0.55817 0.25711 0.0
C487 C 0.14376 0.61219 0.21581 0.0
C488 C 0.15503 0.59423 0.22975 0.0
H489 H 0.21388 0.4936 0.27215 0.0
H490 H 0.20593 0.52774 0.24974 0.0
H491 H 0.1651 0.58005 0.2868 0.0
H492 H 0.13451 0.6687 0.21725 0.0
H493 H 0.15743 0.63994 0.23605 0.0
C494 C 0.50799 0.84352 0.70503 0.0
C495 C 0.49581 0.82366 0.70923 0.0
C496 C 0.52619 0.84935 0.71926 0.0
C497 C 0.56892 0.8282 0.75972 0.0
H498 H 0.5683 0.8894 0.78337 0.0
C499 C 0.64647 0.87539 0.79698 0.0
C500 C 0.64306 0.89031 0.81586 0.0
C501 C 0.62836 0.86385 0.78697 0.0
C502 C 0.56861 0.87217 0.77718 0.0
H503 H 0.49393 0.79381 0.73107 0.0
H504 H 0.52614 0.80394 0.7558 0.0
H505 H 0.53733 0.87605 0.75905 0.0
H506 H 0.61812 0.90358 0.84001 0.0
H507 H 0.58654 0.88349 0.82244 0.0
H508 H 0.60057 0.82458 0.77751 0.0
C509 C 0.52135 0.81501 0.74153 0.0
C510 C 0.55099 0.86462 0.76303 0.0
C511 C 0.50291 0.80926 0.72741 0.0
C512 C 0.62135 0.89234 0.82541 0.0
C513 C 0.60323 0.88092 0.81528 0.0
C514 C 0.58676 0.83587 0.77369 0.0
C515 C 0.53282 0.83537 0.73789 0.0
C516 C 0.55108 0.84267 0.75392 0.0
C517 C 0.60644 0.86709 0.79552 0.0
C518 C 0.58684 0.85802 0.78241 0.0
H519 H 0.50308 0.85499 0.69116 0.0
H520 H 0.53496 0.86498 0.71585 0.0
H521 H 0.56939 0.8112 0.75289 0.0
H522 H 0.66299 0.87334 0.78926 0.0
H523 H 0.63135 0.85338 0.7717 0.0
C524 C 0.88261 0.37723 0.1809 0.0
C525 C 0.88834 0.3587 0.19501 0.0
C526 C 0.86924 0.39461 0.1899 0.0
C527 C 0.83317 0.41026 0.24156 0.0
H528 H 0.85202 0.47079 0.2257 0.0
C529 C 0.82291 0.48744 0.3019 0.0
C530 C 0.81546 0.50767 0.29179 0.0
C531 C 0.82691 0.46858 0.28787 0.0
C532 C 0.84632 0.45399 0.23001 0.0
H533 H 0.88397 0.34364 0.22945 0.0
H534 H 0.86155 0.37403 0.2453 0.0
H535 H 0.8683 0.43896 0.20483 0.0
H536 H 0.80579 0.52383 0.25915 0.0
H537 H 0.81343 0.49089 0.2345 0.0
H538 H 0.81228 0.4255 0.26785 0.0
C539 C 0.86675 0.37505 0.22709 0.0
C540 C 0.85557 0.43569 0.21799 0.0
C541 C 0.87982 0.3576 0.21802 0.0
C542 C 0.81143 0.50844 0.26744 0.0
C543 C 0.81588 0.48967 0.25333 0.0
C544 C 0.82422 0.42855 0.25384 0.0
C545 C 0.86153 0.39398 0.2133 0.0
C546 C 0.84951 0.41352 0.22396 0.0
C547 C 0.82395 0.46968 0.26341 0.0
C548 C 0.83104 0.45055 0.24847 0.0
H549 H 0.88876 0.37851 0.16303 0.0
H550 H 0.86524 0.40868 0.17858 0.0
H551 H 0.82763 0.39352 0.24627 0.0
H552 H 0.82611 0.48633 0.32061 0.0
H553 H 0.83329 0.45342 0.29605 0.0
C554 C 0.49367 0.16746 0.70183 0.0
C555 C 0.51042 0.18223 0.70996 0.0
C556 C 0.47493 0.1626 0.71566 0.0
C557 C 0.43164 0.16237 0.74318 0.0
H558 H 0.44125 0.1498 0.8093 0.0
C559 C 0.35908 0.13018 0.80027 0.0
C560 C 0.36412 0.1119 0.815 0.0
C561 C 0.37627 0.14291 0.79013 0.0
C562 C 0.43828 0.15322 0.79086 0.0
H563 H 0.5202 0.20399 0.73884 0.0
H564 H 0.48719 0.19564 0.76295 0.0
H565 H 0.47224 0.16407 0.78546 0.0
H566 H 0.39121 0.09339 0.83161 0.0
H567 H 0.42123 0.11517 0.81347 0.0
H568 H 0.39814 0.15044 0.74811 0.0
C569 C 0.4888 0.18762 0.74594 0.0
C570 C 0.45598 0.16167 0.77725 0.0
C571 C 0.50762 0.19251 0.73205 0.0
C572 C 0.38674 0.10738 0.82036 0.0
C573 C 0.40398 0.11997 0.81001 0.0
C574 C 0.41402 0.15385 0.75672 0.0
C575 C 0.47234 0.17241 0.73799 0.0
C576 C 0.45299 0.16589 0.75312 0.0
C577 C 0.39896 0.13751 0.79425 0.0
C578 C 0.41719 0.14878 0.78065 0.0
H579 H 0.49525 0.15919 0.68495 0.0
H580 H 0.4628 0.15054 0.7091 0.0
H581 H 0.42863 0.16576 0.72474 0.0
H582 H 0.3418 0.13431 0.79601 0.0
H583 H 0.37176 0.15664 0.77856 0.0
C584 C 0.19357 0.51151 0.73947 0.0
C585 C 0.19043 0.51021 0.71501 0.0
C586 C 0.18869 0.493 0.75379 0.0
C587 C 0.18104 0.43189 0.75439 0.0
H588 H 0.13436 0.44264 0.80062 0.0
C589 C 0.12496 0.36072 0.78868 0.0
C590 C 0.11522 0.36211 0.81114 0.0
C591 C 0.13811 0.37825 0.77996 0.0
C592 C 0.14779 0.43929 0.78827 0.0
H593 H 0.18096 0.48824 0.68624 0.0
H594 H 0.17312 0.45576 0.71119 0.0
H595 H 0.15122 0.47427 0.77993 0.0
H596 H 0.11266 0.38261 0.84255 0.0
H597 H 0.13633 0.41297 0.82766 0.0
H598 H 0.17781 0.39699 0.76261 0.0
C599 C 0.1791 0.47113 0.71929 0.0
C600 C 0.15738 0.45747 0.77634 0.0
C601 C 0.18348 0.48974 0.70504 0.0
C602 C 0.11977 0.38109 0.8251 0.0
C603 C 0.13323 0.39857 0.81647 0.0
C604 C 0.17176 0.41373 0.7666 0.0
C605 C 0.18114 0.47275 0.74382 0.0
C606 C 0.17362 0.45387 0.75884 0.0
C607 C 0.14222 0.39758 0.79357 0.0
C608 C 0.15448 0.4171 0.78317 0.0
H609 H 0.19878 0.52712 0.74765 0.0
H610 H 0.19042 0.49462 0.77268 0.0
H611 H 0.19372 0.42872 0.74113 0.0
H612 H 0.12173 0.34641 0.77737 0.0
H613 H 0.14429 0.37694 0.76211 0.0
C614 C 0.37466 0.88047 0.18394 0.0
C615 C 0.35643 0.88672 0.19824 0.0
C616 C 0.39209 0.8672 0.19297 0.0
C617 C 0.40843 0.83254 0.24548 0.0
H618 H 0.46882 0.84972 0.22716 0.0
C619 C 0.48742 0.82253 0.30346 0.0
C620 C 0.50689 0.81373 0.29291 0.0
C621 C 0.46822 0.82678 0.29002 0.0
C622 C 0.45204 0.8445 0.23219 0.0
H623 H 0.34198 0.88345 0.23309 0.0
H624 H 0.3725 0.86127 0.249 0.0
H625 H 0.43672 0.86596 0.20672 0.0
H626 H 0.52136 0.80201 0.26012 0.0
H627 H 0.48787 0.81012 0.23648 0.0
H628 H 0.42403 0.81222 0.27204 0.0
C629 C 0.37322 0.86592 0.23063 0.0
C630 C 0.43358 0.85372 0.22041 0.0
C631 C 0.35569 0.87886 0.22151 0.0
C632 C 0.50656 0.80869 0.26875 0.0
C633 C 0.48749 0.81341 0.25521 0.0
C634 C 0.42689 0.82367 0.25753 0.0
C635 C 0.39185 0.86015 0.21662 0.0
C636 C 0.41148 0.84823 0.22721 0.0
C637 C 0.46826 0.82273 0.2657 0.0
C638 C 0.44884 0.82987 0.25124 0.0
H639 H 0.37564 0.8861 0.16586 0.0
H640 H 0.40589 0.86275 0.18147 0.0
H641 H 0.39174 0.82742 0.25087 0.0
H642 H 0.48717 0.82653 0.32204 0.0
H643 H 0.45365 0.83413 0.29848 0.0
C644 C 0.82265 0.51683 0.70231 0.0
C645 C 0.81333 0.49767 0.71297 0.0
C646 C 0.827 0.53615 0.71554 0.0
C647 C 0.84364 0.55275 0.77377 0.0
H648 H 0.82866 0.61317 0.75363 0.0
C649 C 0.87958 0.62976 0.8226 0.0
C650 C 0.88684 0.64766 0.8084 0.0
C651 C 0.86619 0.61259 0.8132 0.0
C652 C 0.83319 0.59644 0.75943 0.0
H653 H 0.80076 0.48389 0.74573 0.0
H654 H 0.80898 0.51757 0.769 0.0
H655 H 0.81342 0.58095 0.73232 0.0
H656 H 0.88521 0.66187 0.77331 0.0
H657 H 0.86281 0.63177 0.75678 0.0
H658 H 0.86453 0.5679 0.79987 0.0
C659 C 0.81264 0.51762 0.75035 0.0
C660 C 0.8243 0.57802 0.74729 0.0
C661 C 0.80786 0.49844 0.73701 0.0
C662 C 0.87982 0.6484 0.78482 0.0
C663 C 0.86677 0.63112 0.77534 0.0
C664 C 0.85287 0.57114 0.78566 0.0
C665 C 0.82251 0.53654 0.73978 0.0
C666 C 0.82974 0.55602 0.75413 0.0
C667 C 0.86005 0.61276 0.78927 0.0
C668 C 0.84812 0.59327 0.77838 0.0
H669 H 0.827 0.51675 0.68382 0.0
H670 H 0.83477 0.55046 0.70702 0.0
H671 H 0.84828 0.53593 0.77924 0.0
H672 H 0.88454 0.6288 0.8409 0.0
H673 H 0.86098 0.59902 0.82463 0.0
C674 C 0.64606 0.1244 0.22022 0.0
C675 C 0.64512 0.11527 0.19745 0.0
C676 C 0.62841 0.13741 0.22892 0.0
C677 C 0.56766 0.14824 0.2192 0.0
H678 H 0.57774 0.19277 0.26794 0.0
C679 C 0.49533 0.19589 0.26608 0.0
C680 C 0.49529 0.19183 0.29043 0.0
C681 C 0.51421 0.19052 0.2525 0.0
C682 C 0.57473 0.18048 0.25423 0.0
H683 H 0.62528 0.11355 0.16553 0.0
H684 H 0.59475 0.13704 0.18037 0.0
H685 H 0.60978 0.17669 0.24709 0.0
H686 H 0.51531 0.18014 0.31984 0.0
H687 H 0.54853 0.17149 0.2962 0.0
H688 H 0.53251 0.15236 0.22638 0.0
C689 C 0.60886 0.13356 0.19182 0.0
C690 C 0.59305 0.17109 0.24239 0.0
C691 C 0.62644 0.1202 0.18322 0.0
C692 C 0.51485 0.1834 0.30111 0.0
C693 C 0.53387 0.17853 0.28762 0.0
C694 C 0.54933 0.15799 0.23074 0.0
C695 C 0.60941 0.142 0.21497 0.0
C696 C 0.58983 0.15432 0.2252 0.0
C697 C 0.53353 0.18156 0.26315 0.0
C698 C 0.55274 0.17374 0.24877 0.0
H699 H 0.66011 0.12082 0.23176 0.0
H700 H 0.62938 0.14311 0.24696 0.0
H701 H 0.5644 0.13521 0.20636 0.0
H702 H 0.48043 0.20224 0.25736 0.0
H703 H 0.5136 0.193 0.23364 0.0
C704 C 0.66884 0.00882 0.7985 0.0
C705 C 0.68726 0.99475 0.79356 0.0
C706 C 0.66324 0.0264 0.78342 0.0
C707 C 0.68278 0.06593 0.74009 0.0
H708 H 0.62091 0.06465 0.71843 0.0
C709 C 0.63271 0.14289 0.70606 0.0
C710 C 0.61731 0.13949 0.68761 0.0
C711 C 0.64514 0.1249 0.71509 0.0
C712 C 0.63832 0.06511 0.72401 0.0
H713 H 0.71491 0.98891 0.76944 0.0
H714 H 0.70526 0.0203 0.74322 0.0
H715 H 0.6352 0.03403 0.74266 0.0
H716 H 0.60408 0.11479 0.66314 0.0
H717 H 0.62564 0.08341 0.6791 0.0
H718 H 0.68555 0.09759 0.72215 0.0
C719 C 0.69513 0.01733 0.75873 0.0
C720 C 0.64642 0.04768 0.73803 0.0
C721 C 0.7006 0.9994 0.7737 0.0
C722 C 0.61567 0.11799 0.67745 0.0
C723 C 0.62796 0.09999 0.68662 0.0
C724 C 0.67454 0.08363 0.7263 0.0
C725 C 0.67606 0.03058 0.76321 0.0
C726 C 0.66858 0.0481 0.7465 0.0
C727 C 0.64231 0.10313 0.70598 0.0
C728 C 0.65213 0.0835 0.71837 0.0
H729 H 0.6582 0.00583 0.81363 0.0
H730 H 0.6486 0.03658 0.78738 0.0
H731 H 0.69993 0.06659 0.74649 0.0
H732 H 0.63449 0.15926 0.7142 0.0
H733 H 0.65598 0.12781 0.7301 0.0
C734 C 0.15069 0.38236 0.28229 0.0
C735 C 0.14801 0.38973 0.30563 0.0
C736 C 0.13364 0.37033 0.27105 0.0
C737 C 0.08291 0.3363 0.27882 0.0
H738 H 0.06357 0.36456 0.22085 0.0
C739 C 0.99881 0.3139 0.2327 0.0
C740 C 0.99731 0.31666 0.20823 0.0
C741 C 0.01846 0.31993 0.24471 0.0
C742 C 0.06897 0.35603 0.23668 0.0
H743 H 0.12583 0.38895 0.3359 0.0
H744 H 0.09611 0.36752 0.31623 0.0
H745 H 0.09584 0.37943 0.2418 0.0
H746 H 0.01562 0.32635 0.17692 0.0
H747 H 0.0502 0.33569 0.19755 0.0
H748 H 0.05626 0.31262 0.27355 0.0
C749 C 0.11142 0.37129 0.30669 0.0
C750 C 0.08743 0.36471 0.24877 0.0
C751 C 0.12839 0.38362 0.3179 0.0
C752 C 0.01621 0.32433 0.19584 0.0
C753 C 0.03598 0.32989 0.20775 0.0
C754 C 0.0646 0.32732 0.26648 0.0
C755 C 0.11365 0.36511 0.28296 0.0
C756 C 0.09453 0.35503 0.27 0.0
C757 C 0.03717 0.32847 0.23244 0.0
C758 C 0.05729 0.33715 0.24527 0.0
H759 H 0.16559 0.38668 0.27231 0.0
H760 H 0.13585 0.36557 0.25281 0.0
H761 H 0.08814 0.3285 0.29514 0.0
H762 H 0.98443 0.30813 0.24271 0.0
H763 H 0.01856 0.31878 0.2637 0.0
C764 C 0.32156 0.98729 0.80294 0.0
C765 C 0.31404 0.00757 0.79302 0.0
C766 C 0.32517 0.96842 0.78883 0.0
C767 C 0.34297 0.95394 0.73021 0.0
H768 H 0.32623 0.89326 0.74786 0.0
C769 C 0.37919 0.87769 0.68047 0.0
C770 C 0.38626 0.85964 0.69461 0.0
C771 C 0.36554 0.89467 0.68978 0.0
C772 C 0.33119 0.91007 0.74273 0.0
H773 H 0.30373 0.02379 0.76062 0.0
H774 H 0.3106 0.9908 0.73581 0.0
H775 H 0.31097 0.92513 0.7697 0.0
H776 H 0.38383 0.84492 0.72941 0.0
H777 H 0.36082 0.87467 0.74577 0.0
H778 H 0.36426 0.93911 0.70427 0.0
C779 C 0.31348 0.98956 0.75457 0.0
C780 C 0.32231 0.9283 0.75517 0.0
C781 C 0.30946 0.00836 0.76878 0.0
C782 C 0.37866 0.85853 0.71797 0.0
C783 C 0.36526 0.87559 0.72734 0.0
C784 C 0.35212 0.93572 0.71798 0.0
C785 C 0.32168 0.96952 0.76444 0.0
C786 C 0.32849 0.95039 0.74933 0.0
C787 C 0.35884 0.89413 0.71352 0.0
C788 C 0.34677 0.9135 0.72443 0.0
H789 H 0.32517 0.98614 0.82158 0.0
H790 H 0.33168 0.95324 0.79687 0.0
H791 H 0.3482 0.9708 0.7255 0.0
H792 H 0.38459 0.87896 0.66234 0.0
H793 H 0.36058 0.90843 0.67845 0.0
C794 C 0.85739 0.63131 0.29757 0.0
C795 C 0.86285 0.61343 0.31267 0.0
C796 C 0.87427 0.64447 0.28748 0.0
C797 C 0.93582 0.65702 0.28909 0.0
H798 H 0.92699 0.66781 0.22251 0.0
C799 C 0.00511 0.69681 0.23064 0.0
C800 C 0.00873 0.68582 0.20907 0.0
C801 C 0.98608 0.6919 0.24422 0.0
C802 C 0.92974 0.66494 0.24108 0.0
H803 H 0.89033 0.5961 0.32997 0.0
H804 H 0.91983 0.61866 0.31194 0.0
H805 H 0.89657 0.652 0.24565 0.0
H806 H 0.99476 0.66156 0.18455 0.0
H807 H 0.96194 0.65293 0.20814 0.0
H808 H 0.9695 0.66887 0.28408 0.0
C809 C 0.90247 0.6228 0.30814 0.0
C810 C 0.91217 0.65613 0.25448 0.0
C811 C 0.88554 0.60976 0.31843 0.0
C812 C 0.99255 0.67037 0.20106 0.0
C813 C 0.97359 0.66552 0.21455 0.0
C814 C 0.95347 0.66577 0.27563 0.0
C815 C 0.89707 0.63994 0.29204 0.0
C816 C 0.91509 0.65164 0.27857 0.0
C817 C 0.97023 0.67599 0.23643 0.0
C818 C 0.95078 0.66935 0.25135 0.0
H819 H 0.84004 0.63478 0.293 0.0
H820 H 0.86946 0.65786 0.27561 0.0
H821 H 0.93857 0.65407 0.30765 0.0
H822 H 0.01724 0.70882 0.23733 0.0
H823 H 0.98386 0.70043 0.26088 0.0
C824 C 0.68615 0.98891 0.20267 0.0
C825 C 0.69129 0.00878 0.21483 0.0
C826 C 0.68038 0.96942 0.21492 0.0
C827 C 0.67689 0.94379 0.27509 0.0
H828 H 0.62944 0.90922 0.24536 0.0
C829 C 0.61719 0.87915 0.32129 0.0
C830 C 0.61388 0.85877 0.30917 0.0
C831 C 0.63 0.89642 0.31122 0.0
C832 C 0.64284 0.91859 0.25379 0.0
H833 H 0.69526 0.02372 0.2493 0.0
H834 H 0.68414 0.99001 0.27078 0.0
H835 H 0.64549 0.94115 0.2249 0.0
H836 H 0.62245 0.84022 0.2775 0.0
H837 H 0.64434 0.87042 0.25995 0.0
H838 H 0.67309 0.92148 0.30456 0.0
C839 C 0.68517 0.98916 0.25181 0.0
C840 C 0.65223 0.93685 0.242 0.0
C841 C 0.69149 0.00856 0.23951 0.0
C842 C 0.62451 0.8557 0.28731 0.0
C843 C 0.63702 0.873 0.27718 0.0
C844 C 0.66715 0.92565 0.2871 0.0
C845 C 0.67894 0.96948 0.23963 0.0
C846 C 0.6695 0.94967 0.25236 0.0
C847 C 0.63947 0.89368 0.28877 0.0
C848 C 0.65013 0.91284 0.27645 0.0
H849 H 0.68614 0.98855 0.18363 0.0
H850 H 0.67649 0.95444 0.20489 0.0
H851 H 0.69028 0.95307 0.28359 0.0
H852 H 0.60932 0.88203 0.33819 0.0
H853 H 0.6316 0.91227 0.32046 0.0
C854 C 0.87719 0.38482 0.68306 0.0
C855 C 0.85873 0.39059 0.69724 0.0
C856 C 0.89464 0.37154 0.69204 0.0
C857 C 0.91059 0.33589 0.74396 0.0
H858 H 0.97109 0.35372 0.72674 0.0
C859 C 0.98905 0.32496 0.80255 0.0
C860 C 0.00867 0.31651 0.792 0.0
C861 C 0.96996 0.3294 0.78902 0.0
C862 C 0.95428 0.34833 0.73145 0.0
H863 H 0.84389 0.38651 0.73182 0.0
H864 H 0.87444 0.36433 0.74767 0.0
H865 H 0.93913 0.37026 0.70632 0.0
H866 H 0.02352 0.3056 0.7591 0.0
H867 H 0.99022 0.31404 0.7353 0.0
H868 H 0.926 0.31507 0.7702 0.0
C869 C 0.87534 0.36935 0.72941 0.0
C870 C 0.9359 0.35772 0.71968 0.0
C871 C 0.8578 0.38229 0.72034 0.0
C872 C 0.0086 0.312 0.76773 0.0
C873 C 0.98963 0.31691 0.7541 0.0
C874 C 0.92896 0.32684 0.756 0.0
C875 C 0.89418 0.36401 0.71552 0.0
C876 C 0.91376 0.35198 0.72609 0.0
C877 C 0.97025 0.32589 0.76461 0.0
C878 C 0.95094 0.33327 0.75011 0.0
H879 H 0.87832 0.3908 0.66512 0.0
H880 H 0.90862 0.36744 0.68063 0.0
H881 H 0.89386 0.33057 0.74902 0.0
H882 H 0.98859 0.32855 0.82122 0.0
H883 H 0.95526 0.33648 0.7975 0.0
C884 C 0.37932 0.15013 0.28352 0.0
C885 C 0.38874 0.14764 0.30606 0.0
C886 C 0.36743 0.13252 0.2731 0.0
C887 C 0.33638 0.08057 0.28232 0.0
H888 H 0.36256 0.06226 0.2229 0.0
C889 C 0.31301 0.99673 0.23604 0.0
C890 C 0.31493 0.99553 0.21147 0.0
C891 C 0.31936 0.01627 0.24808 0.0
C892 C 0.3546 0.06734 0.23917 0.0
H893 H 0.3918 0.12512 0.33589 0.0
H894 H 0.3705 0.0944 0.31768 0.0
H895 H 0.37755 0.09475 0.2434 0.0
H896 H 0.32343 0.01422 0.18005 0.0
H897 H 0.33319 0.04866 0.20073 0.0
H898 H 0.31302 0.05351 0.27787 0.0
C899 C 0.3726 0.11001 0.30814 0.0
C900 C 0.36338 0.08591 0.251 0.0
C901 C 0.38483 0.12756 0.31849 0.0
C902 C 0.32206 0.01461 0.19904 0.0
C903 C 0.32788 0.03428 0.21098 0.0
C904 C 0.32725 0.06217 0.27022 0.0
C905 C 0.36438 0.11215 0.28509 0.0
C906 C 0.35442 0.09266 0.27269 0.0
C907 C 0.32734 0.03519 0.23573 0.0
C908 C 0.33629 0.05525 0.24847 0.0
H909 H 0.38192 0.16535 0.27343 0.0
H910 H 0.3611 0.13461 0.25537 0.0
H911 H 0.32917 0.08554 0.29902 0.0
H912 H 0.3077 0.98219 0.24608 0.0
H913 H 0.31888 0.01613 0.2671 0.0
C914 C 0.12069 0.61166 0.68572 0.0
C915 C 0.14327 0.61523 0.69203 0.0
C916 C 0.10356 0.62451 0.69593 0.0
C917 C 0.09279 0.65645 0.75023 0.0
H918 H 0.0363 0.67066 0.71963 0.0
C919 C 0.01132 0.67066 0.80203 0.0
C920 C 0.99582 0.68683 0.79417 0.0
C921 C 0.03045 0.66564 0.78883 0.0
C922 C 0.05209 0.66712 0.72837 0.0
H923 H 0.16568 0.63624 0.71263 0.0
H924 H 0.13591 0.65894 0.72994 0.0
H925 H 0.06761 0.65611 0.69637 0.0
H926 H 0.98864 0.71088 0.7665 0.0
H927 H 0.02226 0.70218 0.74347 0.0
H928 H 0.07735 0.66737 0.78219 0.0
C929 C 0.13135 0.64579 0.71765 0.0
C930 C 0.06995 0.65853 0.71508 0.0
C931 C 0.14843 0.63285 0.70761 0.0
C932 C 1.00024 0.69832 0.77306 0.0
C933 C 0.01941 0.69323 0.75978 0.0
C934 C 0.075 0.66504 0.76347 0.0
C935 C 0.10865 0.64131 0.71253 0.0
C936 C 0.09039 0.6527 0.72594 0.0
C937 C 0.03462 0.67666 0.76742 0.0
C938 C 0.05427 0.67002 0.75281 0.0
H939 H 0.11612 0.5982 0.6738 0.0
H940 H 0.08628 0.62045 0.69169 0.0
H941 H 0.10816 0.65193 0.75929 0.0
H942 H 0.00848 0.66146 0.81818 0.0
H943 H 0.04162 0.65256 0.79509 0.0
C944 C 0.2027 0.53788 0.58296 0.0
C945 C 0.18185 0.53939 0.59449 0.0
C946 C 0.20431 0.52752 0.56087 0.0
C947 C 0.17337 0.48728 0.52277 0.0
H948 H 0.21198 0.50998 0.47328 0.0
C949 C 0.16353 0.46132 0.42595 0.0
C950 C 0.183 0.45727 0.41262 0.0
C951 C 0.16508 0.46967 0.44883 0.0
C952 C 0.20136 0.50327 0.48706 0.0
H953 H 0.14622 0.53215 0.59143 0.0
H954 H 0.14891 0.51475 0.5529 0.0
H955 H 0.2113 0.52889 0.51146 0.0
H956 H 0.21944 0.45846 0.41301 0.0
H957 H 0.22214 0.47329 0.45314 0.0
H958 H 0.16302 0.46203 0.49823 0.0
C959 C 0.16416 0.5209 0.56109 0.0
C960 C 0.20095 0.5141 0.50894 0.0
C961 C 0.16258 0.53108 0.58314 0.0
C962 C 0.20413 0.46132 0.42288 0.0
C963 C 0.20568 0.46997 0.44576 0.0
C964 C 0.17367 0.47658 0.50092 0.0
C965 C 0.18509 0.51856 0.54985 0.0
C966 C 0.18666 0.50645 0.52695 0.0
C967 C 0.18614 0.4744 0.45889 0.0
C968 C 0.18741 0.48463 0.48271 0.0
H969 H 0.21787 0.54405 0.5913 0.0
H970 H 0.22071 0.52594 0.55277 0.0
H971 H 0.1626 0.48053 0.53641 0.0
H972 H 0.14699 0.45838 0.41857 0.0
H973 H 0.14971 0.47311 0.4584 0.0
C974 C 0.53908 0.80127 0.42228 0.0
C975 C 0.54097 0.82215 0.41085 0.0
C976 C 0.52887 0.79978 0.44444 0.0
C977 C 0.48911 0.83114 0.4824 0.0
H978 H 0.51139 0.7927 0.53225 0.0
C979 C 0.46253 0.84207 0.57871 0.0
C980 C 0.45831 0.82281 0.59229 0.0
C981 C 0.47117 0.84018 0.55599 0.0
C982 C 0.50479 0.80327 0.51837 0.0
H983 H 0.53463 0.85792 0.41422 0.0
H984 H 0.5174 0.8554 0.45284 0.0
H985 H 0.5304 0.79298 0.49411 0.0
H986 H 0.45956 0.78637 0.59254 0.0
H987 H 0.47485 0.78307 0.55265 0.0
H988 H 0.46382 0.84179 0.50672 0.0
C989 C 0.52319 0.84007 0.44451 0.0
C990 C 0.51568 0.80345 0.49653 0.0
C991 C 0.53325 0.84154 0.42242 0.0
C992 C 0.46257 0.80153 0.58247 0.0
C993 C 0.47147 0.79964 0.55973 0.0
C994 C 0.47832 0.83103 0.50419 0.0
C995 C 0.5204 0.81913 0.4556 0.0
C996 C 0.5082 0.81771 0.47842 0.0
C997 C 0.47597 0.81898 0.54631 0.0
C998 C 0.48624 0.81738 0.52255 0.0
H999 H 0.54481 0.78601 0.41378 0.0
H1000 H 0.52695 0.78338 0.45246 0.0
H1001 H 0.4825 0.84188 0.46867 0.0
H1002 H 0.45946 0.85872 0.58574 0.0
H1003 H 0.47468 0.85542 0.54623 0.0
C1004 C 0.80245 0.53945 0.42292 0.0
C1005 C 0.82355 0.5412 0.4119 0.0
C1006 C 0.80073 0.53088 0.4458 0.0
C1007 C 0.83358 0.52137 0.49978 0.0
H1008 H 0.79119 0.47333 0.51245 0.0
C1009 C 0.8413 0.46812 0.58315 0.0
C1010 C 0.82159 0.46207 0.59518 0.0
C1011 C 0.8402 0.47768 0.56078 0.0
C1012 C 0.80291 0.48694 0.50933 0.0
H1013 H 0.85938 0.53591 0.41646 0.0
H1014 H 0.85638 0.52135 0.45631 0.0
H1015 H 0.79128 0.49162 0.47395 0.0
H1016 H 0.78524 0.46071 0.59287 0.0
H1017 H 0.78325 0.47783 0.55382 0.0
H1018 H 0.84521 0.51694 0.53499 0.0
C1019 C 0.84118 0.52653 0.44732 0.0
C1020 C 0.80294 0.49741 0.48727 0.0
C1021 C 0.84287 0.53479 0.42443 0.0
C1022 C 0.80073 0.46513 0.584 0.0
C1023 C 0.79961 0.47491 0.5616 0.0
C1024 C 0.83344 0.51106 0.52182 0.0
C1025 C 0.82009 0.52425 0.45818 0.0
C1026 C 0.81855 0.51448 0.48216 0.0
C1027 C 0.81935 0.4817 0.54991 0.0
C1028 C 0.81841 0.49341 0.52677 0.0
H1029 H 0.78725 0.54417 0.41367 0.0
H1030 H 0.78427 0.52944 0.45382 0.0
H1031 H 0.84556 0.53473 0.49648 0.0
H1032 H 0.85766 0.46577 0.59116 0.0
H1033 H 0.85579 0.48209 0.55208 0.0
C1034 C 0.46357 0.20459 0.42006 0.0
C1035 C 0.461 0.18376 0.40868 0.0
C1036 C 0.47375 0.2058 0.44227 0.0
C1037 C 0.51209 0.173 0.4806 0.0
H1038 H 0.49168 0.2131 0.52994 0.0
C1039 C 0.53809 0.16207 0.57708 0.0
C1040 C 0.54366 0.18128 0.59024 0.0
C1041 C 0.52937 0.16407 0.5544 0.0
C1042 C 0.49775 0.20205 0.5162 0.0
H1043 H 0.466 0.14779 0.41218 0.0
H1044 H 0.48309 0.14983 0.4509 0.0
H1045 H 0.47266 0.21323 0.49178 0.0
H1046 H 0.54465 0.21772 0.58981 0.0
H1047 H 0.52914 0.22123 0.55 0.0
H1048 H 0.53681 0.16145 0.50512 0.0
C1049 C 0.47794 0.16533 0.4425 0.0
C1050 C 0.48686 0.2021 0.49435 0.0
C1051 C 0.46794 0.16414 0.42034 0.0
C1052 C 0.54059 0.2026 0.58006 0.0
C1053 C 0.53158 0.20462 0.55737 0.0
C1054 C 0.52285 0.17286 0.50241 0.0
C1055 C 0.48147 0.1862 0.45354 0.0
C1056 C 0.49366 0.18728 0.47641 0.0
C1057 C 0.52581 0.18535 0.54435 0.0
C1058 C 0.5156 0.18712 0.52058 0.0
H1059 H 0.45846 0.22002 0.41148 0.0
H1060 H 0.47626 0.22216 0.45022 0.0
H1061 H 0.51821 0.1618 0.46702 0.0
H1062 H 0.54023 0.14539 0.5844 0.0
H1063 H 0.52487 0.14891 0.54494 0.0
C1064 C 0.70227 0.05007 0.08187 0.0
C1065 C 0.68518 0.04244 0.09698 0.0
C1066 C 0.70446 0.04103 0.05921 0.0
C1067 C 0.69258 0.99049 0.02478 0.0
H1068 H 0.6919 0.02935 0.97006 0.0
C1069 C 0.7023 0.95845 0.92834 0.0
C1070 C 0.68496 0.96572 0.91335 0.0
C1071 C 0.70465 0.96778 0.95086 0.0
C1072 C 0.69228 0.01833 0.98522 0.0
H1073 H 0.65715 0.01927 0.10022 0.0
H1074 H 0.66131 0.00332 0.061 0.0
H1075 H 0.692 0.04594 0.00953 0.0
H1076 H 0.65673 0.98862 0.91008 0.0
H1077 H 0.66115 0.00509 0.94904 0.0
H1078 H 0.69264 0.96289 1.00048 0.0
C1079 C 0.67289 0.01632 0.06661 0.0
C1080 C 0.69245 0.02781 0.00773 0.0
C1081 C 0.67042 0.02561 0.089 0.0
C1082 C 0.67019 0.98256 0.92124 0.0
C1083 C 0.67281 0.99214 0.94347 0.0
C1084 C 0.69282 0.98102 1.00227 0.0
C1085 C 0.68993 0.02389 0.05151 0.0
C1086 C 0.69213 0.01397 0.02771 0.0
C1087 C 0.69003 0.98486 0.95851 0.0
C1088 C 0.6922 0.99485 0.98228 0.0
H1089 H 0.7139 0.06299 0.08755 0.0
H1090 H 0.71773 0.04715 0.04785 0.0
H1091 H 0.69244 0.97947 0.03993 0.0
H1092 H 0.71394 0.94552 0.92273 0.0
H1093 H 0.71806 0.96188 0.96217 0.0
C1094 C 0.03347 0.34223 0.92255 0.0
C1095 C 0.04102 0.32296 0.91063 0.0
C1096 C 0.02317 0.34044 0.9445 0.0
C1097 C 0.01457 0.30264 0.9955 0.0
H1098 H 0.96368 0.34203 0.00661 0.0
C1099 C 0.96097 0.29955 0.08102 0.0
C1100 C 0.95755 0.32062 0.09166 0.0
C1101 C 0.96976 0.29812 0.0582 0.0
C1102 C 0.97789 0.33096 0.0038 0.0
H1103 H 0.04428 0.28672 0.91275 0.0
H1104 H 0.02597 0.28354 0.95113 0.0
H1105 H 0.98257 0.34271 0.96867 0.0
H1106 H 0.95995 0.35667 0.08644 0.0
H1107 H 0.97493 0.35417 0.04674 0.0
H1108 H 0.00975 0.29096 0.03082 0.0
C1109 C 0.02822 0.30008 0.94354 0.0
C1110 C 0.98881 0.33141 0.98209 0.0
C1111 C 0.0387 0.30189 0.92154 0.0
C1112 C 0.96238 0.34018 0.07876 0.0
C1113 C 0.97089 0.33875 0.05595 0.0
C1114 C 0.00352 0.3021 0.01725 0.0
C1115 C 0.01995 0.31933 0.95508 0.0
C1116 C 0.00757 0.3176 0.97779 0.0
C1117 C 0.97496 0.31773 0.04551 0.0
C1118 C 0.98532 0.31656 0.02176 0.0
H1119 H 0.03518 0.35875 0.91475 0.0
H1120 H 0.01757 0.35569 0.95312 0.0
H1121 H 0.02902 0.29186 0.99285 0.0
H1122 H 0.95749 0.28419 0.09056 0.0
H1123 H 0.97258 0.28169 0.05052 0.0
C1124 C 0.34233 0.02913 0.92456 0.0
C1125 C 0.32333 0.03762 0.91289 0.0
C1126 C 0.3403 0.019 0.94658 0.0
C1127 C 0.30257 0.01248 0.99806 0.0
H1128 H 0.34 0.96017 0.00936 0.0
C1129 C 0.29792 0.95955 0.08397 0.0
C1130 C 0.31891 0.95566 0.0946 0.0
C1131 C 0.29669 0.9682 0.06108 0.0
C1132 C 0.32947 0.97478 0.00649 0.0
H1133 H 0.28733 0.04267 0.91548 0.0
H1134 H 0.28368 0.02462 0.95393 0.0
H1135 H 0.34113 0.97866 0.97121 0.0
H1136 H 0.355 0.95705 0.08932 0.0
H1137 H 0.35284 0.97171 0.04945 0.0
H1138 H 0.29094 0.0084 0.03351 0.0
C1139 C 0.30023 0.02604 0.94613 0.0
C1140 C 0.33019 0.98548 0.98466 0.0
C1141 C 0.3023 0.03636 0.92408 0.0
C1142 C 0.33857 0.95986 0.08164 0.0
C1143 C 0.33734 0.96818 0.05874 0.0
C1144 C 0.30173 1.00163 0.0199 0.0
C1145 C 0.31918 0.01687 0.95746 0.0
C1146 C 0.31711 0.00474 0.98029 0.0
C1147 C 0.31642 0.97274 0.0483 0.0
C1148 C 0.3155 0.98292 0.02447 0.0
H1149 H 0.35883 0.03001 0.91655 0.0
H1150 H 0.35536 0.01271 0.95503 0.0
H1151 H 0.29237 0.02733 0.99538 0.0
H1152 H 0.28248 0.95657 0.09357 0.0
H1153 H 0.28034 0.97141 0.0534 0.0
C1154 C 0.96682 0.66329 0.92286 0.0
C1155 C 0.96047 0.68289 0.9108 0.0
C1156 C 0.9772 0.6646 0.94483 0.0
C1157 C 0.98807 0.70207 0.99565 0.0
H1158 H 0.03696 0.6602 0.00662 0.0
C1159 C 0.04242 0.70308 0.08075 0.0
C1160 C 0.04536 0.68193 0.09135 0.0
C1161 C 0.03333 0.70477 0.05807 0.0
C1162 C 0.02329 0.67195 0.00388 0.0
H1163 H 0.9594 0.71928 0.91272 0.0
H1164 H 0.9778 0.7216 0.95114 0.0
H1165 H 0.01779 0.66027 0.96882 0.0
H1166 H 0.04166 0.64597 0.0862 0.0
H1167 H 0.02609 0.64891 0.04679 0.0
H1168 H 0.99369 0.71367 0.03089 0.0
C1169 C 0.97456 0.70518 0.94363 0.0
C1170 C 0.01222 0.67194 0.98223 0.0
C1171 C 0.96404 0.70386 0.9216 0.0
C1172 C 0.03964 0.66253 0.07856 0.0
C1173 C 0.0308 0.6642 0.0559 0.0
C1174 C 0.99926 0.70215 0.01734 0.0
C1175 C 0.98167 0.68555 0.95529 0.0
C1176 C 0.99419 0.68669 0.97796 0.0
C1177 C 0.02729 0.68533 0.04547 0.0
C1178 C 0.01674 0.6868 0.02181 0.0
H1179 H 0.96415 0.64685 0.91515 0.0
H1180 H 0.9819 0.64911 0.95354 0.0
H1181 H 0.97419 0.71358 0.99302 0.0
H1182 H 0.04659 0.71835 0.09019 0.0
H1183 H 0.03098 0.72127 0.05042 0.0
loop_
_geom_bond_atom_site_label_1
_geom_bond_atom_site_label_2
_geom_bond_distance
_geom_bond_site_symmetry_2
_ccdc_geom_bond_type
O0 Cd1 2.223 . S
O0 C8 1.315 . S
Cd1 O0 2.223 . S
Cd1 O4 2.297 . S
Cd1 O5 2.439 . S
Cd1 O11 2.240 . S
Cd2 O3 2.240 . S
Cd2 O10 2.223 . S
Cd2 O12 2.297 . S
Cd2 O13 2.439 . S
O3 Cd2 2.240 . S
O3 C8 1.279 . S
O4 Cd1 2.297 . S
O4 C6 1.247 . S
O5 Cd1 2.439 . S
O5 C6 1.208 . S
C6 O4 1.247 . S
C6 O5 1.208 . S
C7 O12 1.247 . S
C7 O13 1.208 . S
C8 O0 1.315 . S
C8 O3 1.279 . S
C9 O10 1.315 . S
C9 O11 1.279 . S
O10 Cd2 2.223 . S
O10 C9 1.315 . S
O11 Cd1 2.240 . S
O11 C9 1.279 . S
O12 Cd2 2.297 . S
O12 C7 1.247 . S
O13 Cd2 2.439 . S
O13 C7 1.208 . S
O14 Cd15 2.223 . S
O14 C22 1.315 . S
Cd15 O14 2.223 . S
Cd15 O18 2.297 . S
Cd15 O19 2.439 . S
Cd15 O25 2.240 . S
Cd16 O17 2.240 . S
Cd16 O24 2.223 . S
Cd16 O26 2.297 . S
Cd16 O27 2.439 . S
O17 Cd16 2.240 . S
O17 C22 1.279 . S
O18 Cd15 2.297 . S
O18 C20 1.247 . S
O19 Cd15 2.439 . S
O19 C20 1.208 . S
C20 O18 1.247 . S
C20 O19 1.208 . S
C21 O26 1.247 . S
C21 O27 1.208 . S
C22 O14 1.315 . S
C22 O17 1.279 . S
C23 O24 1.315 . S
C23 O25 1.279 . S
O24 Cd16 2.223 . S
O24 C23 1.315 . S
O25 Cd15 2.240 . S
O25 C23 1.279 . S
O26 Cd16 2.297 . S
O26 C21 1.247 . S
O27 Cd16 2.439 . S
O27 C21 1.208 . S
O28 Cd29 2.223 . S
O28 C36 1.315 . S
Cd29 O28 2.223 . S
Cd29 O32 2.297 . S
Cd29 O33 2.439 . S
Cd29 O39 2.240 . S
Cd30 O31 2.240 . S
Cd30 O38 2.223 . S
Cd30 O40 2.297 . S
Cd30 O41 2.439 . S
O31 Cd30 2.240 . S
O31 C36 1.279 . S
O32 Cd29 2.297 . S
O32 C34 1.247 . S
O33 Cd29 2.439 . S
O33 C34 1.208 . S
C34 O32 1.247 . S
C34 O33 1.208 . S
C35 O40 1.247 . S
C35 O41 1.208 . S
C36 O28 1.315 . S
C36 O31 1.279 . S
C37 O38 1.315 . S
C37 O39 1.279 . S
O38 Cd30 2.223 . S
O38 C37 1.315 . S
O39 Cd29 2.240 . S
O39 C37 1.279 . S
O40 Cd30 2.297 . S
O40 C35 1.247 . S
O41 Cd30 2.439 . S
O41 C35 1.208 . S
O42 Cd43 2.223 . S
O42 C50 1.315 . S
Cd43 O42 2.223 . S
Cd43 O46 2.297 . S
Cd43 O47 2.439 . S
Cd43 O53 2.240 . S
Cd44 O45 2.240 . S
Cd44 O52 2.223 . S
Cd44 O54 2.297 . S
Cd44 O55 2.439 . S
O45 Cd44 2.240 . S
O45 C50 1.279 . S
O46 Cd43 2.297 . S
O46 C48 1.247 . S
O47 Cd43 2.439 . S
O47 C48 1.208 . S
C48 O46 1.247 . S
C48 O47 1.208 . S
C49 O54 1.247 . S
C49 O55 1.208 . S
C50 O42 1.315 . S
C50 O45 1.279 . S
C51 O52 1.315 . S
C51 O53 1.279 . S
O52 Cd44 2.223 . S
O52 C51 1.315 . S
O53 Cd43 2.240 . S
O53 C51 1.279 . S
O54 Cd44 2.297 . S
O54 C49 1.247 . S
O55 Cd44 2.439 . S
O55 C49 1.208 . S
O56 Cd57 2.223 . S
O56 C64 1.315 . S
Cd57 O56 2.223 . S
Cd57 O60 2.297 . S
Cd57 O61 2.439 . S
Cd57 O67 2.240 . S
Cd58 O59 2.240 . S
Cd58 O66 2.223 . S
Cd58 O68 2.297 . S
Cd58 O69 2.439 . S
O59 Cd58 2.240 . S
O59 C64 1.279 . S
O60 Cd57 2.297 . S
O60 C62 1.247 . S
O61 Cd57 2.439 . S
O61 C62 1.208 . S
C62 O60 1.247 . S
C62 O61 1.208 . S
C63 O68 1.247 . S
C63 O69 1.208 . S
C64 O56 1.315 . S
C64 O59 1.279 . S
C65 O66 1.315 . S
C65 O67 1.279 . S
O66 Cd58 2.223 . S
O66 C65 1.315 . S
O67 Cd57 2.240 . S
O67 C65 1.279 . S
O68 Cd58 2.297 . S
O68 C63 1.247 . S
O69 Cd58 2.439 . S
O69 C63 1.208 . S
O70 Cd71 2.223 . S
O70 C78 1.315 . S
Cd71 O70 2.223 . S
Cd71 O74 2.297 . S
Cd71 O75 2.439 . S
Cd71 O81 2.240 . S
Cd72 O73 2.240 . S
Cd72 O80 2.223 . S
Cd72 O82 2.297 . S
Cd72 O83 2.439 . S
O73 Cd72 2.240 . S
O73 C78 1.279 . S
O74 Cd71 2.297 . S
O74 C76 1.247 . S
O75 Cd71 2.439 . S
O75 C76 1.208 . S
C76 O74 1.247 . S
C76 O75 1.208 . S
C77 O82 1.247 . S
C77 O83 1.208 . S
C78 O70 1.315 . S
C78 O73 1.279 . S
C79 O80 1.315 . S
C79 O81 1.279 . S
O80 Cd72 2.223 . S
O80 C79 1.315 . S
O81 Cd71 2.240 . S
O81 C79 1.279 . S
O82 Cd72 2.297 . S
O82 C77 1.247 . S
O83 Cd72 2.439 . S
O83 C77 1.208 . S
O84 Cd85 2.223 . S
O84 C92 1.315 . S
Cd85 O84 2.223 . S
Cd85 O88 2.297 . S
Cd85 O89 2.439 . S
Cd85 O95 2.240 . S
Cd86 O87 2.240 . S
Cd86 O94 2.223 . S
Cd86 O96 2.297 . S
Cd86 O97 2.439 . S
O87 Cd86 2.240 . S
O87 C92 1.279 . S
O88 Cd85 2.297 . S
O88 C90 1.247 . S
O89 Cd85 2.439 . S
O89 C90 1.208 . S
C90 O88 1.247 . S
C90 O89 1.208 . S
C91 O96 1.247 . S
C91 O97 1.208 . S
C92 O84 1.315 . S
C92 O87 1.279 . S
C93 O94 1.315 . S
C93 O95 1.279 . S
O94 Cd86 2.223 . S
O94 C93 1.315 . S
O95 Cd85 2.240 . S
O95 C93 1.279 . S
O96 Cd86 2.297 . S
O96 C91 1.247 . S
O97 Cd86 2.439 . S
O97 C91 1.208 . S
O98 Cd99 2.223 . S
O98 C106 1.315 . S
Cd99 O98 2.223 . S
Cd99 O102 2.297 . S
Cd99 O103 2.439 . S
Cd99 O109 2.240 . S
Cd100 O101 2.240 . S
Cd100 O108 2.223 . S
Cd100 O110 2.297 . S
Cd100 O111 2.439 . S
O101 Cd100 2.240 . S
O101 C106 1.279 . S
O102 Cd99 2.297 . S
O102 C104 1.247 . S
O103 Cd99 2.439 . S
O103 C104 1.208 . S
C104 O102 1.247 . S
C104 O103 1.208 . S
C105 O110 1.247 . S
C105 O111 1.208 . S
C106 O98 1.315 . S
C106 O101 1.279 . S
C107 O108 1.315 . S
C107 O109 1.279 . S
O108 Cd100 2.223 . S
O108 C107 1.315 . S
O109 Cd99 2.240 . S
O109 C107 1.279 . S
O110 Cd100 2.297 . S
O110 C105 1.247 . S
O111 Cd100 2.439 . S
O111 C105 1.208 . S
O112 Cd113 2.223 . S
O112 C120 1.315 . S
Cd113 O112 2.223 . S
Cd113 O116 2.297 . S
Cd113 O117 2.439 . S
Cd113 O123 2.240 . S
Cd114 O115 2.240 . S
Cd114 O122 2.223 . S
Cd114 O124 2.297 . S
Cd114 O125 2.439 . S
O115 Cd114 2.240 . S
O115 C120 1.279 . S
O116 Cd113 2.297 . S
O116 C118 1.247 . S
O117 Cd113 2.439 . S
O117 C118 1.208 . S
C118 O116 1.247 . S
C118 O117 1.208 . S
C119 O124 1.247 . S
C119 O125 1.208 . S
C120 O112 1.315 . S
C120 O115 1.279 . S
C121 O122 1.315 . S
C121 O123 1.279 . S
O122 Cd114 2.223 . S
O122 C121 1.315 . S
O123 Cd113 2.240 . S
O123 C121 1.279 . S
O124 Cd114 2.297 . S
O124 C119 1.247 . S
O125 Cd114 2.439 . S
O125 C119 1.208 . S
O126 Cd127 2.223 . S
O126 C134 1.315 . S
Cd127 O126 2.223 . S
Cd127 O130 2.297 . S
Cd127 O131 2.439 . S
Cd127 O137 2.240 . S
Cd128 O129 2.240 . S
Cd128 O136 2.223 . S
Cd128 O138 2.297 . S
Cd128 O139 2.439 . S
O129 Cd128 2.240 . S
O129 C134 1.279 . S
O130 Cd127 2.297 . S
O130 C132 1.247 . S
O131 Cd127 2.439 . S
O131 C132 1.208 . S
C132 O130 1.247 . S
C132 O131 1.208 . S
C133 O138 1.247 . S
C133 O139 1.208 . S
C134 O126 1.315 . S
C134 O129 1.279 . S
C135 O136 1.315 . S
C135 O137 1.279 . S
O136 Cd128 2.223 . S
O136 C135 1.315 . S
O137 Cd127 2.240 . S
O137 C135 1.279 . S
O138 Cd128 2.297 . S
O138 C133 1.247 . S
O139 Cd128 2.439 . S
O139 C133 1.208 . S
O140 Cd141 2.223 . S
O140 C148 1.315 . S
Cd141 O140 2.223 . S
Cd141 O144 2.297 . S
Cd141 O145 2.439 . S
Cd141 O151 2.240 . S
Cd142 O143 2.240 . S
Cd142 O150 2.223 . S
Cd142 O152 2.297 . S
Cd142 O153 2.439 . S
O143 Cd142 2.240 . S
O143 C148 1.279 . S
O144 Cd141 2.297 . S
O144 C146 1.247 . S
O145 Cd141 2.439 . S
O145 C146 1.208 . S
C146 O144 1.247 . S
C146 O145 1.208 . S
C147 O152 1.247 . S
C147 O153 1.208 . S
C148 O140 1.315 . S
C148 O143 1.279 . S
C149 O150 1.315 . S
C149 O151 1.279 . S
O150 Cd142 2.223 . S
O150 C149 1.315 . S
O151 Cd141 2.240 . S
O151 C149 1.279 . S
O152 Cd142 2.297 . S
O152 C147 1.247 . S
O153 Cd142 2.439 . S
O153 C147 1.208 . S
O154 Cd155 2.223 . S
O154 C162 1.315 . S
Cd155 O154 2.223 . S
Cd155 O158 2.297 . S
Cd155 O159 2.439 . S
Cd155 O165 2.240 . S
Cd156 O157 2.240 . S
Cd156 O164 2.223 . S
Cd156 O166 2.297 . S
Cd156 O167 2.439 . S
O157 Cd156 2.240 . S
O157 C162 1.279 . S
O158 Cd155 2.297 . S
O158 C160 1.247 . S
O159 Cd155 2.439 . S
O159 C160 1.208 . S
C160 O158 1.247 . S
C160 O159 1.208 . S
C161 O166 1.247 . S
C161 O167 1.208 . S
C162 O154 1.315 . S
C162 O157 1.279 . S
C163 O164 1.315 . S
C163 O165 1.279 . S
O164 Cd156 2.223 . S
O164 C163 1.315 . S
O165 Cd155 2.240 . S
O165 C163 1.279 . S
O166 Cd156 2.297 . S
O166 C161 1.247 . S
O167 Cd156 2.439 . S
O167 C161 1.208 . S
O168 Cd169 2.223 . S
O168 C176 1.315 . S
Cd169 O168 2.223 . S
Cd169 O172 2.297 . S
Cd169 O173 2.439 . S
Cd169 O179 2.240 . S
Cd170 O171 2.240 . S
Cd170 O178 2.223 . S
Cd170 O180 2.297 . S
Cd170 O181 2.439 . S
O171 Cd170 2.240 . S
O171 C176 1.279 . S
O172 Cd169 2.297 . S
O172 C174 1.247 . S
O173 Cd169 2.439 . S
O173 C174 1.208 . S
C174 O172 1.247 . S
C174 O173 1.208 . S
C175 O180 1.247 . S
C175 O181 1.208 . S
C176 O168 1.315 . S
C176 O171 1.279 . S
C177 O178 1.315 . S
C177 O179 1.279 . S
O178 Cd170 2.223 . S
O178 C177 1.315 . S
O179 Cd169 2.240 . S
O179 C177 1.279 . S
O180 Cd170 2.297 . S
O180 C175 1.247 . S
O181 Cd170 2.439 . S
O181 C175 1.208 . S
O182 Cd183 2.223 . S
O182 C190 1.315 . S
Cd183 O182 2.223 . S
Cd183 O186 2.297 . S
Cd183 O187 2.439 . S
Cd183 O193 2.240 . S
Cd184 O185 2.240 . S
Cd184 O192 2.223 . S
Cd184 O194 2.297 . S
Cd184 O195 2.439 . S
O185 Cd184 2.240 . S
O185 C190 1.279 . S
O186 Cd183 2.297 . S
O186 C188 1.247 . S
O187 Cd183 2.439 . S
O187 C188 1.208 . S
C188 O186 1.247 . S
C188 O187 1.208 . S
C189 O194 1.247 . S
C189 O195 1.208 . S
C190 O182 1.315 . S
C190 O185 1.279 . S
C191 O192 1.315 . S
C191 O193 1.279 . S
O192 Cd184 2.223 . S
O192 C191 1.315 . S
O193 Cd183 2.240 . S
O193 C191 1.279 . S
O194 Cd184 2.297 . S
O194 C189 1.247 . S
O195 Cd184 2.439 . S
O195 C189 1.208 . S
O196 Cd197 2.223 . S
O196 C204 1.315 . S
Cd197 O196 2.223 . S
Cd197 O200 2.297 . S
Cd197 O201 2.439 . S
Cd197 O207 2.240 . S
Cd198 O199 2.240 . S
Cd198 O206 2.223 . S
Cd198 O208 2.297 . S
Cd198 O209 2.439 . S
O199 Cd198 2.240 . S
O199 C204 1.279 . S
O200 Cd197 2.297 . S
O200 C202 1.247 . S
O201 Cd197 2.439 . S
O201 C202 1.208 . S
C202 O200 1.247 . S
C202 O201 1.208 . S
C203 O208 1.247 . S
C203 O209 1.208 . S
C204 O196 1.315 . S
C204 O199 1.279 . S
C205 O206 1.315 . S
C205 O207 1.279 . S
O206 Cd198 2.223 . S
O206 C205 1.315 . S
O207 Cd197 2.240 . S
O207 C205 1.279 . S
O208 Cd198 2.297 . S
O208 C203 1.247 . S
O209 Cd198 2.439 . S
O209 C203 1.208 . S
O210 Cd211 2.223 . S
O210 C218 1.315 . S
Cd211 O210 2.223 . S
Cd211 O214 2.297 . S
Cd211 O215 2.439 . S
Cd211 O221 2.240 . S
Cd212 O213 2.240 . S
Cd212 O220 2.223 . S
Cd212 O222 2.297 . S
Cd212 O223 2.439 . S
O213 Cd212 2.240 . S
O213 C218 1.279 . S
O214 Cd211 2.297 . S
O214 C216 1.247 . S
O215 Cd211 2.439 . S
O215 C216 1.208 . S
C216 O214 1.247 . S
C216 O215 1.208 . S
C217 O222 1.247 . S
C217 O223 1.208 . S
C218 O210 1.315 . S
C218 O213 1.279 . S
C219 O220 1.315 . S
C219 O221 1.279 . S
O220 Cd212 2.223 . S
O220 C219 1.315 . S
O221 Cd211 2.240 . S
O221 C219 1.279 . S
O222 Cd212 2.297 . S
O222 C217 1.247 . S
O223 Cd212 2.439 . S
O223 C217 1.208 . S
C224 C225 1.349 . S
C224 C226 1.327 . S
C224 H249 0.950 . S
C225 C224 1.349 . S
C225 C241 1.349 . S
C226 C224 1.327 . S
C226 C245 1.429 . S
C226 H250 0.950 . S
C227 C244 1.574 . S
C227 C246 1.368 . S
C227 H251 0.949 . S
H228 C232 0.949 . S
C229 C230 1.349 . S
C229 C231 1.327 . S
C229 H252 0.950 . S
C230 C229 1.349 . S
C230 C242 1.349 . S
C231 C229 1.327 . S
C231 C247 1.429 . S
C231 H253 0.950 . S
C232 H228 0.949 . S
C232 C240 1.574 . S
C232 C248 1.368 . S
H233 C241 0.950 . S
H234 C239 0.950 . S
H235 C240 0.949 . S
H236 C242 0.950 . S
H237 C243 0.950 . S
H238 C244 0.949 . S
C239 H234 0.950 . S
C239 C241 1.327 . S
C239 C245 1.429 . S
C240 C232 1.574 . S
C240 H235 0.949 . S
C240 C246 1.368 . S
C241 C225 1.349 . S
C241 H233 0.950 . S
C241 C239 1.327 . S
C242 C230 1.349 . S
C242 H236 0.950 . S
C242 C243 1.327 . S
C243 H237 0.950 . S
C243 C242 1.327 . S
C243 C247 1.429 . S
C244 C227 1.574 . S
C244 H238 0.949 . S
C244 C248 1.368 . S
C245 C226 1.429 . S
C245 C239 1.429 . S
C245 C246 1.523 . S
C246 C227 1.368 . S
C246 C240 1.368 . S
C246 C245 1.523 . S
C247 C231 1.429 . S
C247 C243 1.429 . S
C247 C248 1.523 . S
C248 C232 1.368 . S
C248 C244 1.368 . S
C248 C247 1.523 . S
H249 C224 0.950 . S
H250 C226 0.950 . S
H251 C227 0.949 . S
H252 C229 0.950 . S
H253 C231 0.950 . S
C254 C255 1.349 . S
C254 C256 1.327 . S
C254 H279 0.950 . S
C255 C254 1.349 . S
C255 C271 1.349 . S
C256 C254 1.327 . S
C256 C275 1.429 . S
C256 H280 0.950 . S
C257 C274 1.574 . S
C257 C276 1.368 . S
C257 H281 0.949 . S
H258 C262 0.949 . S
C259 C260 1.349 . S
C259 C261 1.327 . S
C259 H282 0.950 . S
C260 C259 1.349 . S
C260 C272 1.349 . S
C261 C259 1.327 . S
C261 C277 1.429 . S
C261 H283 0.950 . S
C262 H258 0.949 . S
C262 C270 1.574 . S
C262 C278 1.368 . S
H263 C271 0.950 . S
H264 C269 0.950 . S
H265 C270 0.949 . S
H266 C272 0.950 . S
H267 C273 0.950 . S
H268 C274 0.949 . S
C269 H264 0.950 . S
C269 C271 1.327 . S
C269 C275 1.429 . S
C270 C262 1.574 . S
C270 H265 0.949 . S
C270 C276 1.368 . S
C271 C255 1.349 . S
C271 H263 0.950 . S
C271 C269 1.327 . S
C272 C260 1.349 . S
C272 H266 0.950 . S
C272 C273 1.327 . S
C273 H267 0.950 . S
C273 C272 1.327 . S
C273 C277 1.429 . S
C274 C257 1.574 . S
C274 H268 0.949 . S
C274 C278 1.368 . S
C275 C256 1.429 . S
C275 C269 1.429 . S
C275 C276 1.523 . S
C276 C257 1.368 . S
C276 C270 1.368 . S
C276 C275 1.523 . S
C277 C261 1.429 . S
C277 C273 1.429 . S
C277 C278 1.523 . S
C278 C262 1.368 . S
C278 C274 1.368 . S
C278 C277 1.523 . S
H279 C254 0.950 . S
H280 C256 0.950 . S
H281 C257 0.949 . S
H282 C259 0.950 . S
H283 C261 0.950 . S
C284 C285 1.349 . S
C284 C286 1.327 . S
C284 H309 0.950 . S
C285 C284 1.349 . S
C285 C301 1.349 . S
C286 C284 1.327 . S
C286 C305 1.429 . S
C286 H310 0.950 . S
C287 C304 1.574 . S
C287 C306 1.368 . S
C287 H311 0.949 . S
H288 C292 0.949 . S
C289 C290 1.349 . S
C289 C291 1.327 . S
C289 H312 0.950 . S
C290 C289 1.349 . S
C290 C302 1.349 . S
C291 C289 1.327 . S
C291 C307 1.429 . S
C291 H313 0.950 . S
C292 H288 0.949 . S
C292 C300 1.574 . S
C292 C308 1.368 . S
H293 C301 0.950 . S
H294 C299 0.950 . S
H295 C300 0.949 . S
H296 C302 0.950 . S
H297 C303 0.950 . S
H298 C304 0.949 . S
C299 H294 0.950 . S
C299 C301 1.327 . S
C299 C305 1.429 . S
C300 C292 1.574 . S
C300 H295 0.949 . S
C300 C306 1.368 . S
C301 C285 1.349 . S
C301 H293 0.950 . S
C301 C299 1.327 . S
C302 C290 1.349 . S
C302 H296 0.950 . S
C302 C303 1.327 . S
C303 H297 0.950 . S
C303 C302 1.327 . S
C303 C307 1.429 . S
C304 C287 1.574 . S
C304 H298 0.949 . S
C304 C308 1.368 . S
C305 C286 1.429 . S
C305 C299 1.429 . S
C305 C306 1.523 . S
C306 C287 1.368 . S
C306 C300 1.368 . S
C306 C305 1.523 . S
C307 C291 1.429 . S
C307 C303 1.429 . S
C307 C308 1.523 . S
C308 C292 1.368 . S
C308 C304 1.368 . S
C308 C307 1.523 . S
H309 C284 0.950 . S
H310 C286 0.950 . S
H311 C287 0.949 . S
H312 C289 0.950 . S
H313 C291 0.950 . S
C314 C315 1.349 . S
C314 C316 1.327 . S
C314 H339 0.950 . S
C315 C314 1.349 . S
C315 C331 1.349 . S
C316 C314 1.327 . S
C316 C335 1.429 . S
C316 H340 0.950 . S
C317 C334 1.574 . S
C317 C336 1.368 . S
C317 H341 0.949 . S
H318 C322 0.949 . S
C319 C320 1.349 . S
C319 C321 1.327 . S
C319 H342 0.950 . S
C320 C319 1.349 . S
C320 C332 1.349 . S
C321 C319 1.327 . S
C321 C337 1.429 . S
C321 H343 0.950 . S
C322 H318 0.949 . S
C322 C330 1.574 . S
C322 C338 1.368 . S
H323 C331 0.950 . S
H324 C329 0.950 . S
H325 C330 0.949 . S
H326 C332 0.950 . S
H327 C333 0.950 . S
H328 C334 0.949 . S
C329 H324 0.950 . S
C329 C331 1.327 . S
C329 C335 1.429 . S
C330 C322 1.574 . S
C330 H325 0.949 . S
C330 C336 1.368 . S
C331 C315 1.349 . S
C331 H323 0.950 . S
C331 C329 1.327 . S
C332 C320 1.349 . S
C332 H326 0.950 . S
C332 C333 1.327 . S
C333 H327 0.950 . S
C333 C332 1.327 . S
C333 C337 1.429 . S
C334 C317 1.574 . S
C334 H328 0.949 . S
C334 C338 1.368 . S
C335 C316 1.429 . S
C335 C329 1.429 . S
C335 C336 1.523 . S
C336 C317 1.368 . S
C336 C330 1.368 . S
C336 C335 1.523 . S
C337 C321 1.429 . S
C337 C333 1.429 . S
C337 C338 1.523 . S
C338 C322 1.368 . S
C338 C334 1.368 . S
C338 C337 1.523 . S
H339 C314 0.950 . S
H340 C316 0.950 . S
H341 C317 0.949 . S
H342 C319 0.950 . S
H343 C321 0.950 . S
C344 C345 1.349 . S
C344 C346 1.327 . S
C344 H369 0.950 . S
C345 C344 1.349 . S
C345 C361 1.349 . S
C346 C344 1.327 . S
C346 C365 1.429 . S
C346 H370 0.950 . S
C347 C364 1.574 . S
C347 C366 1.368 . S
C347 H371 0.949 . S
H348 C352 0.949 . S
C349 C350 1.349 . S
C349 C351 1.327 . S
C349 H372 0.950 . S
C350 C349 1.349 . S
C350 C362 1.349 . S
C351 C349 1.327 . S
C351 C367 1.429 . S
C351 H373 0.950 . S
C352 H348 0.949 . S
C352 C360 1.574 . S
C352 C368 1.368 . S
H353 C361 0.950 . S
H354 C359 0.950 . S
H355 C360 0.949 . S
H356 C362 0.950 . S
H357 C363 0.950 . S
H358 C364 0.949 . S
C359 H354 0.950 . S
C359 C361 1.327 . S
C359 C365 1.429 . S
C360 C352 1.574 . S
C360 H355 0.949 . S
C360 C366 1.368 . S
C361 C345 1.349 . S
C361 H353 0.950 . S
C361 C359 1.327 . S
C362 C350 1.349 . S
C362 H356 0.950 . S
C362 C363 1.327 . S
C363 H357 0.950 . S
C363 C362 1.327 . S
C363 C367 1.429 . S
C364 C347 1.574 . S
C364 H358 0.949 . S
C364 C368 1.368 . S
C365 C346 1.429 . S
C365 C359 1.429 . S
C365 C366 1.523 . S
C366 C347 1.368 . S
C366 C360 1.368 . S
C366 C365 1.523 . S
C367 C351 1.429 . S
C367 C363 1.429 . S
C367 C368 1.523 . S
C368 C352 1.368 . S
C368 C364 1.368 . S
C368 C367 1.523 . S
H369 C344 0.950 . S
H370 C346 0.950 . S
H371 C347 0.949 . S
H372 C349 0.950 . S
H373 C351 0.950 . S
C374 C375 1.349 . S
C374 C376 1.327 . S
C374 H399 0.950 . S
C375 C374 1.349 . S
C375 C391 1.349 . S
C376 C374 1.327 . S
C376 C395 1.429 . S
C376 H400 0.950 . S
C377 C394 1.574 . S
C377 C396 1.368 . S
C377 H401 0.949 . S
H378 C382 0.949 . S
C379 C380 1.349 . S
C379 C381 1.327 . S
C379 H402 0.950 . S
C380 C379 1.349 . S
C380 C392 1.349 . S
C381 C379 1.327 . S
C381 C397 1.429 . S
C381 H403 0.950 . S
C382 H378 0.949 . S
C382 C390 1.574 . S
C382 C398 1.368 . S
H383 C391 0.950 . S
H384 C389 0.950 . S
H385 C390 0.949 . S
H386 C392 0.950 . S
H387 C393 0.950 . S
H388 C394 0.949 . S
C389 H384 0.950 . S
C389 C391 1.327 . S
C389 C395 1.429 . S
C390 C382 1.574 . S
C390 H385 0.949 . S
C390 C396 1.368 . S
C391 C375 1.349 . S
C391 H383 0.950 . S
C391 C389 1.327 . S
C392 C380 1.349 . S
C392 H386 0.950 . S
C392 C393 1.327 . S
C393 H387 0.950 . S
C393 C392 1.327 . S
C393 C397 1.429 . S
C394 C377 1.574 . S
C394 H388 0.949 . S
C394 C398 1.368 . S
C395 C376 1.429 . S
C395 C389 1.429 . S
C395 C396 1.523 . S
C396 C377 1.368 . S
C396 C390 1.368 . S
C396 C395 1.523 . S
C397 C381 1.429 . S
C397 C393 1.429 . S
C397 C398 1.523 . S
C398 C382 1.368 . S
C398 C394 1.368 . S
C398 C397 1.523 . S
H399 C374 0.950 . S
H400 C376 0.950 . S
H401 C377 0.949 . S
H402 C379 0.950 . S
H403 C381 0.950 . S
C404 C405 1.349 . S
C404 C406 1.327 . S
C404 H429 0.950 . S
C405 C404 1.349 . S
C405 C421 1.349 . S
C406 C404 1.327 . S
C406 C425 1.429 . S
C406 H430 0.950 . S
C407 C424 1.574 . S
C407 C426 1.368 . S
C407 H431 0.949 . S
H408 C412 0.949 . S
C409 C410 1.349 . S
C409 C411 1.327 . S
C409 H432 0.950 . S
C410 C409 1.349 . S
C410 C422 1.349 . S
C411 C409 1.327 . S
C411 C427 1.429 . S
C411 H433 0.950 . S
C412 H408 0.949 . S
C412 C420 1.574 . S
C412 C428 1.368 . S
H413 C421 0.950 . S
H414 C419 0.950 . S
H415 C420 0.949 . S
H416 C422 0.950 . S
H417 C423 0.950 . S
H418 C424 0.949 . S
C419 H414 0.950 . S
C419 C421 1.327 . S
C419 C425 1.429 . S
C420 C412 1.574 . S
C420 H415 0.949 . S
C420 C426 1.368 . S
C421 C405 1.349 . S
C421 H413 0.950 . S
C421 C419 1.327 . S
C422 C410 1.349 . S
C422 H416 0.950 . S
C422 C423 1.327 . S
C423 H417 0.950 . S
C423 C422 1.327 . S
C423 C427 1.429 . S
C424 C407 1.574 . S
C424 H418 0.949 . S
C424 C428 1.368 . S
C425 C406 1.429 . S
C425 C419 1.429 . S
C425 C426 1.523 . S
C426 C407 1.368 . S
C426 C420 1.368 . S
C426 C425 1.523 . S
C427 C411 1.429 . S
C427 C423 1.429 . S
C427 C428 1.523 . S
C428 C412 1.368 . S
C428 C424 1.368 . S
C428 C427 1.523 . S
H429 C404 0.950 . S
H430 C406 0.950 . S
H431 C407 0.949 . S
H432 C409 0.950 . S
H433 C411 0.950 . S
C434 C435 1.349 . S
C434 C436 1.327 . S
C434 H459 0.950 . S
C435 C434 1.349 . S
C435 C451 1.349 . S
C436 C434 1.327 . S
C436 C455 1.429 . S
C436 H460 0.950 . S
C437 C454 1.574 . S
C437 C456 1.368 . S
C437 H461 0.949 . S
H438 C442 0.949 . S
C439 C440 1.349 . S
C439 C441 1.327 . S
C439 H462 0.950 . S
C440 C439 1.349 . S
C440 C452 1.349 . S
C441 C439 1.327 . S
C441 C457 1.429 . S
C441 H463 0.950 . S
C442 H438 0.949 . S
C442 C450 1.574 . S
C442 C458 1.368 . S
H443 C451 0.950 . S
H444 C449 0.950 . S
H445 C450 0.949 . S
H446 C452 0.950 . S
H447 C453 0.950 . S
H448 C454 0.949 . S
C449 H444 0.950 . S
C449 C451 1.327 . S
C449 C455 1.429 . S
C450 C442 1.574 . S
C450 H445 0.949 . S
C450 C456 1.368 . S
C451 C435 1.349 . S
C451 H443 0.950 . S
C451 C449 1.327 . S
C452 C440 1.349 . S
C452 H446 0.950 . S
C452 C453 1.327 . S
C453 H447 0.950 . S
C453 C452 1.327 . S
C453 C457 1.429 . S
C454 C437 1.574 . S
C454 H448 0.949 . S
C454 C458 1.368 . S
C455 C436 1.429 . S
C455 C449 1.429 . S
C455 C456 1.523 . S
C456 C437 1.368 . S
C456 C450 1.368 . S
C456 C455 1.523 . S
C457 C441 1.429 . S
C457 C453 1.429 . S
C457 C458 1.523 . S
C458 C442 1.368 . S
C458 C454 1.368 . S
C458 C457 1.523 . S
H459 C434 0.950 . S
H460 C436 0.950 . S
H461 C437 0.949 . S
H462 C439 0.950 . S
H463 C441 0.950 . S
C464 C465 1.349 . S
C464 C466 1.327 . S
C464 H489 0.950 . S
C465 C464 1.349 . S
C465 C481 1.349 . S
C466 C464 1.327 . S
C466 C485 1.429 . S
C466 H490 0.950 . S
C467 C484 1.574 . S
C467 C486 1.368 . S
C467 H491 0.949 . S
H468 C472 0.949 . S
C469 C470 1.349 . S
C469 C471 1.327 . S
C469 H492 0.950 . S
C470 C469 1.349 . S
C470 C482 1.349 . S
C471 C469 1.327 . S
C471 C487 1.429 . S
C471 H493 0.950 . S
C472 H468 0.949 . S
C472 C480 1.574 . S
C472 C488 1.368 . S
H473 C481 0.950 . S
H474 C479 0.950 . S
H475 C480 0.949 . S
H476 C482 0.950 . S
H477 C483 0.950 . S
H478 C484 0.949 . S
C479 H474 0.950 . S
C479 C481 1.327 . S
C479 C485 1.429 . S
C480 C472 1.574 . S
C480 H475 0.949 . S
C480 C486 1.368 . S
C481 C465 1.349 . S
C481 H473 0.950 . S
C481 C479 1.327 . S
C482 C470 1.349 . S
C482 H476 0.950 . S
C482 C483 1.327 . S
C483 H477 0.950 . S
C483 C482 1.327 . S
C483 C487 1.429 . S
C484 C467 1.574 . S
C484 H478 0.949 . S
C484 C488 1.368 . S
C485 C466 1.429 . S
C485 C479 1.429 . S
C485 C486 1.523 . S
C486 C467 1.368 . S
C486 C480 1.368 . S
C486 C485 1.523 . S
C487 C471 1.429 . S
C487 C483 1.429 . S
C487 C488 1.523 . S
C488 C472 1.368 . S
C488 C484 1.368 . S
C488 C487 1.523 . S
H489 C464 0.950 . S
H490 C466 0.950 . S
H491 C467 0.949 . S
H492 C469 0.950 . S
H493 C471 0.950 . S
C494 C495 1.349 . S
C494 C496 1.327 . S
C494 H519 0.950 . S
C495 C494 1.349 . S
C495 C511 1.349 . S
C496 C494 1.327 . S
C496 C515 1.429 . S
C496 H520 0.950 . S
C497 C514 1.574 . S
C497 C516 1.368 . S
C497 H521 0.949 . S
H498 C502 0.949 . S
C499 C500 1.349 . S
C499 C501 1.327 . S
C499 H522 0.950 . S
C500 C499 1.349 . S
C500 C512 1.349 . S
C501 C499 1.327 . S
C501 C517 1.429 . S
C501 H523 0.950 . S
C502 H498 0.949 . S
C502 C510 1.574 . S
C502 C518 1.368 . S
H503 C511 0.950 . S
H504 C509 0.950 . S
H505 C510 0.949 . S
H506 C512 0.950 . S
H507 C513 0.950 . S
H508 C514 0.949 . S
C509 H504 0.950 . S
C509 C511 1.327 . S
C509 C515 1.429 . S
C510 C502 1.574 . S
C510 H505 0.949 . S
C510 C516 1.368 . S
C511 C495 1.349 . S
C511 H503 0.950 . S
C511 C509 1.327 . S
C512 C500 1.349 . S
C512 H506 0.950 . S
C512 C513 1.327 . S
C513 H507 0.950 . S
C513 C512 1.327 . S
C513 C517 1.429 . S
C514 C497 1.574 . S
C514 H508 0.949 . S
C514 C518 1.368 . S
C515 C496 1.429 . S
C515 C509 1.429 . S
C515 C516 1.523 . S
C516 C497 1.368 . S
C516 C510 1.368 . S
C516 C515 1.523 . S
C517 C501 1.429 . S
C517 C513 1.429 . S
C517 C518 1.523 . S
C518 C502 1.368 . S
C518 C514 1.368 . S
C518 C517 1.523 . S
H519 C494 0.950 . S
H520 C496 0.950 . S
H521 C497 0.949 . S
H522 C499 0.950 . S
H523 C501 0.950 . S
C524 C525 1.349 . S
C524 C526 1.327 . S
C524 H549 0.950 . S
C525 C524 1.349 . S
C525 C541 1.349 . S
C526 C524 1.327 . S
C526 C545 1.429 . S
C526 H550 0.950 . S
C527 C544 1.574 . S
C527 C546 1.368 . S
C527 H551 0.949 . S
H528 C532 0.949 . S
C529 C530 1.349 . S
C529 C531 1.327 . S
C529 H552 0.950 . S
C530 C529 1.349 . S
C530 C542 1.349 . S
C531 C529 1.327 . S
C531 C547 1.429 . S
C531 H553 0.950 . S
C532 H528 0.949 . S
C532 C540 1.574 . S
C532 C548 1.368 . S
H533 C541 0.950 . S
H534 C539 0.950 . S
H535 C540 0.949 . S
H536 C542 0.950 . S
H537 C543 0.950 . S
H538 C544 0.949 . S
C539 H534 0.950 . S
C539 C541 1.327 . S
C539 C545 1.429 . S
C540 C532 1.574 . S
C540 H535 0.949 . S
C540 C546 1.368 . S
C541 C525 1.349 . S
C541 H533 0.950 . S
C541 C539 1.327 . S
C542 C530 1.349 . S
C542 H536 0.950 . S
C542 C543 1.327 . S
C543 H537 0.950 . S
C543 C542 1.327 . S
C543 C547 1.429 . S
C544 C527 1.574 . S
C544 H538 0.949 . S
C544 C548 1.368 . S
C545 C526 1.429 . S
C545 C539 1.429 . S
C545 C546 1.523 . S
C546 C527 1.368 . S
C546 C540 1.368 . S
C546 C545 1.523 . S
C547 C531 1.429 . S
C547 C543 1.429 . S
C547 C548 1.523 . S
C548 C532 1.368 . S
C548 C544 1.368 . S
C548 C547 1.523 . S
H549 C524 0.950 . S
H550 C526 0.950 . S
H551 C527 0.949 . S
H552 C529 0.950 . S
H553 C531 0.950 . S
C554 C555 1.349 . S
C554 C556 1.327 . S
C554 H579 0.950 . S
C555 C554 1.349 . S
C555 C571 1.349 . S
C556 C554 1.327 . S
C556 C575 1.429 . S
C556 H580 0.950 . S
C557 C574 1.574 . S
C557 C576 1.368 . S
C557 H581 0.949 . S
H558 C562 0.949 . S
C559 C560 1.349 . S
C559 C561 1.327 . S
C559 H582 0.950 . S
C560 C559 1.349 . S
C560 C572 1.349 . S
C561 C559 1.327 . S
C561 C577 1.429 . S
C561 H583 0.950 . S
C562 H558 0.949 . S
C562 C570 1.574 . S
C562 C578 1.368 . S
H563 C571 0.950 . S
H564 C569 0.950 . S
H565 C570 0.949 . S
H566 C572 0.950 . S
H567 C573 0.950 . S
H568 C574 0.949 . S
C569 H564 0.950 . S
C569 C571 1.327 . S
C569 C575 1.429 . S
C570 C562 1.574 . S
C570 H565 0.949 . S
C570 C576 1.368 . S
C571 C555 1.349 . S
C571 H563 0.950 . S
C571 C569 1.327 . S
C572 C560 1.349 . S
C572 H566 0.950 . S
C572 C573 1.327 . S
C573 H567 0.950 . S
C573 C572 1.327 . S
C573 C577 1.429 . S
C574 C557 1.574 . S
C574 H568 0.949 . S
C574 C578 1.368 . S
C575 C556 1.429 . S
C575 C569 1.429 . S
C575 C576 1.523 . S
C576 C557 1.368 . S
C576 C570 1.368 . S
C576 C575 1.523 . S
C577 C561 1.429 . S
C577 C573 1.429 . S
C577 C578 1.523 . S
C578 C562 1.368 . S
C578 C574 1.368 . S
C578 C577 1.523 . S
H579 C554 0.950 . S
H580 C556 0.950 . S
H581 C557 0.949 . S
H582 C559 0.950 . S
H583 C561 0.950 . S
C584 C585 1.349 . S
C584 C586 1.327 . S
C584 H609 0.950 . S
C585 C584 1.349 . S
C585 C601 1.349 . S
C586 C584 1.327 . S
C586 C605 1.429 . S
C586 H610 0.950 . S
C587 C604 1.574 . S
C587 C606 1.368 . S
C587 H611 0.949 . S
H588 C592 0.949 . S
C589 C590 1.349 . S
C589 C591 1.327 . S
C589 H612 0.950 . S
C590 C589 1.349 . S
C590 C602 1.349 . S
C591 C589 1.327 . S
C591 C607 1.429 . S
C591 H613 0.950 . S
C592 H588 0.949 . S
C592 C600 1.574 . S
C592 C608 1.368 . S
H593 C601 0.950 . S
H594 C599 0.950 . S
H595 C600 0.949 . S
H596 C602 0.950 . S
H597 C603 0.950 . S
H598 C604 0.949 . S
C599 H594 0.950 . S
C599 C601 1.327 . S
C599 C605 1.429 . S
C600 C592 1.574 . S
C600 H595 0.949 . S
C600 C606 1.368 . S
C601 C585 1.349 . S
C601 H593 0.950 . S
C601 C599 1.327 . S
C602 C590 1.349 . S
C602 H596 0.950 . S
C602 C603 1.327 . S
C603 H597 0.950 . S
C603 C602 1.327 . S
C603 C607 1.429 . S
C604 C587 1.574 . S
C604 H598 0.949 . S
C604 C608 1.368 . S
C605 C586 1.429 . S
C605 C599 1.429 . S
C605 C606 1.523 . S
C606 C587 1.368 . S
C606 C600 1.368 . S
C606 C605 1.523 . S
C607 C591 1.429 . S
C607 C603 1.429 . S
C607 C608 1.523 . S
C608 C592 1.368 . S
C608 C604 1.368 . S
C608 C607 1.523 . S
H609 C584 0.950 . S
H610 C586 0.950 . S
H611 C587 0.949 . S
H612 C589 0.950 . S
H613 C591 0.950 . S
C614 C615 1.349 . S
C614 C616 1.327 . S
C614 H639 0.950 . S
C615 C614 1.349 . S
C615 C631 1.349 . S
C616 C614 1.327 . S
C616 C635 1.429 . S
C616 H640 0.950 . S
C617 C634 1.574 . S
C617 C636 1.368 . S
C617 H641 0.949 . S
H618 C622 0.949 . S
C619 C620 1.349 . S
C619 C621 1.327 . S
C619 H642 0.950 . S
C620 C619 1.349 . S
C620 C632 1.349 . S
C621 C619 1.327 . S
C621 C637 1.429 . S
C621 H643 0.950 . S
C622 H618 0.949 . S
C622 C630 1.574 . S
C622 C638 1.368 . S
H623 C631 0.950 . S
H624 C629 0.950 . S
H625 C630 0.949 . S
H626 C632 0.950 . S
H627 C633 0.950 . S
H628 C634 0.949 . S
C629 H624 0.950 . S
C629 C631 1.327 . S
C629 C635 1.429 . S
C630 C622 1.574 . S
C630 H625 0.949 . S
C630 C636 1.368 . S
C631 C615 1.349 . S
C631 H623 0.950 . S
C631 C629 1.327 . S
C632 C620 1.349 . S
C632 H626 0.950 . S
C632 C633 1.327 . S
C633 H627 0.950 . S
C633 C632 1.327 . S
C633 C637 1.429 . S
C634 C617 1.574 . S
C634 H628 0.949 . S
C634 C638 1.368 . S
C635 C616 1.429 . S
C635 C629 1.429 . S
C635 C636 1.523 . S
C636 C617 1.368 . S
C636 C630 1.368 . S
C636 C635 1.523 . S
C637 C621 1.429 . S
C637 C633 1.429 . S
C637 C638 1.523 . S
C638 C622 1.368 . S
C638 C634 1.368 . S
C638 C637 1.523 . S
H639 C614 0.950 . S
H640 C616 0.950 . S
H641 C617 0.949 . S
H642 C619 0.950 . S
H643 C621 0.950 . S
C644 C645 1.349 . S
C644 C646 1.327 . S
C644 H669 0.950 . S
C645 C644 1.349 . S
C645 C661 1.349 . S
C646 C644 1.327 . S
C646 C665 1.429 . S
C646 H670 0.950 . S
C647 C664 1.574 . S
C647 C666 1.368 . S
C647 H671 0.949 . S
H648 C652 0.949 . S
C649 C650 1.349 . S
C649 C651 1.327 . S
C649 H672 0.950 . S
C650 C649 1.349 . S
C650 C662 1.349 . S
C651 C649 1.327 . S
C651 C667 1.429 . S
C651 H673 0.950 . S
C652 H648 0.949 . S
C652 C660 1.574 . S
C652 C668 1.368 . S
H653 C661 0.950 . S
H654 C659 0.950 . S
H655 C660 0.949 . S
H656 C662 0.950 . S
H657 C663 0.950 . S
H658 C664 0.949 . S
C659 H654 0.950 . S
C659 C661 1.327 . S
C659 C665 1.429 . S
C660 C652 1.574 . S
C660 H655 0.949 . S
C660 C666 1.368 . S
C661 C645 1.349 . S
C661 H653 0.950 . S
C661 C659 1.327 . S
C662 C650 1.349 . S
C662 H656 0.950 . S
C662 C663 1.327 . S
C663 H657 0.950 . S
C663 C662 1.327 . S
C663 C667 1.429 . S
C664 C647 1.574 . S
C664 H658 0.949 . S
C664 C668 1.368 . S
C665 C646 1.429 . S
C665 C659 1.429 . S
C665 C666 1.523 . S
C666 C647 1.368 . S
C666 C660 1.368 . S
C666 C665 1.523 . S
C667 C651 1.429 . S
C667 C663 1.429 . S
C667 C668 1.523 . S
C668 C652 1.368 . S
C668 C664 1.368 . S
C668 C667 1.523 . S
H669 C644 0.950 . S
H670 C646 0.950 . S
H671 C647 0.949 . S
H672 C649 0.950 . S
H673 C651 0.950 . S
C674 C675 1.349 . S
C674 C676 1.327 . S
C674 H699 0.950 . S
C675 C674 1.349 . S
C675 C691 1.349 . S
C676 C674 1.327 . S
C676 C695 1.429 . S
C676 H700 0.950 . S
C677 C694 1.574 . S
C677 C696 1.368 . S
C677 H701 0.949 . S
H678 C682 0.949 . S
C679 C680 1.349 . S
C679 C681 1.327 . S
C679 H702 0.950 . S
C680 C679 1.349 . S
C680 C692 1.349 . S
C681 C679 1.327 . S
C681 C697 1.429 . S
C681 H703 0.950 . S
C682 H678 0.949 . S
C682 C690 1.574 . S
C682 C698 1.368 . S
H683 C691 0.950 . S
H684 C689 0.950 . S
H685 C690 0.949 . S
H686 C692 0.950 . S
H687 C693 0.950 . S
H688 C694 0.949 . S
C689 H684 0.950 . S
C689 C691 1.327 . S
C689 C695 1.429 . S
C690 C682 1.574 . S
C690 H685 0.949 . S
C690 C696 1.368 . S
C691 C675 1.349 . S
C691 H683 0.950 . S
C691 C689 1.327 . S
C692 C680 1.349 . S
C692 H686 0.950 . S
C692 C693 1.327 . S
C693 H687 0.950 . S
C693 C692 1.327 . S
C693 C697 1.429 . S
C694 C677 1.574 . S
C694 H688 0.949 . S
C694 C698 1.368 . S
C695 C676 1.429 . S
C695 C689 1.429 . S
C695 C696 1.523 . S
C696 C677 1.368 . S
C696 C690 1.368 . S
C696 C695 1.523 . S
C697 C681 1.429 . S
C697 C693 1.429 . S
C697 C698 1.523 . S
C698 C682 1.368 . S
C698 C694 1.368 . S
C698 C697 1.523 . S
H699 C674 0.950 . S
H700 C676 0.950 . S
H701 C677 0.949 . S
H702 C679 0.950 . S
H703 C681 0.950 . S
C704 C705 1.349 . S
C704 C706 1.327 1_565 S
C704 H729 0.950 . S
C705 C704 1.349 . S
C705 C721 1.349 1_565 S
C706 C704 1.327 1_545 S
C706 C725 1.429 . S
C706 H730 0.950 . S
C707 C724 1.574 . S
C707 C726 1.368 . S
C707 H731 0.949 . S
H708 C712 0.949 . S
C709 C710 1.349 . S
C709 C711 1.327 . S
C709 H732 0.950 . S
C710 C709 1.349 . S
C710 C722 1.349 . S
C711 C709 1.327 . S
C711 C727 1.429 . S
C711 H733 0.950 . S
C712 H708 0.949 . S
C712 C720 1.574 . S
C712 C728 1.368 . S
H713 C721 0.950 . S
H714 C719 0.950 . S
H715 C720 0.949 . S
H716 C722 0.950 . S
H717 C723 0.950 . S
H718 C724 0.949 . S
C719 H714 0.950 . S
C719 C721 1.327 . S
C719 C725 1.429 . S
C720 C712 1.574 . S
C720 H715 0.949 . S
C720 C726 1.368 . S
C721 C705 1.349 1_545 S
C721 H713 0.950 . S
C721 C719 1.327 . S
C722 C710 1.349 . S
C722 H716 0.950 . S
C722 C723 1.327 . S
C723 H717 0.950 . S
C723 C722 1.327 . S
C723 C727 1.429 . S
C724 C707 1.574 . S
C724 H718 0.949 . S
C724 C728 1.368 . S
C725 C706 1.429 . S
C725 C719 1.429 . S
C725 C726 1.523 . S
C726 C707 1.368 . S
C726 C720 1.368 . S
C726 C725 1.523 . S
C727 C711 1.429 . S
C727 C723 1.429 . S
C727 C728 1.523 . S
C728 C712 1.368 . S
C728 C724 1.368 . S
C728 C727 1.523 . S
H729 C704 0.950 . S
H730 C706 0.950 . S
H731 C707 0.949 . S
H732 C709 0.950 . S
H733 C711 0.950 . S
C734 C735 1.349 . S
C734 C736 1.327 . S
C734 H759 0.950 . S
C735 C734 1.349 . S
C735 C751 1.349 . S
C736 C734 1.327 . S
C736 C755 1.429 . S
C736 H760 0.950 . S
C737 C754 1.574 . S
C737 C756 1.368 . S
C737 H761 0.949 . S
H738 C742 0.949 . S
C739 C740 1.349 . S
C739 C741 1.327 1_655 S
C739 H762 0.950 . S
C740 C739 1.349 . S
C740 C752 1.367 . S
C741 C739 1.327 1_455 S
C741 C757 1.429 . S
C741 H763 0.950 . S
C742 H738 0.949 . S
C742 C750 1.574 . S
C742 C758 1.368 . S
H743 C751 0.950 . S
H744 C749 0.950 . S
H745 C750 0.949 . S
H746 C752 0.960 . S
H747 C753 0.950 . S
H748 C754 0.949 . S
C749 H744 0.950 . S
C749 C751 1.327 . S
C749 C755 1.429 . S
C750 C742 1.574 . S
C750 H745 0.949 . S
C750 C756 1.368 . S
C751 C735 1.349 . S
C751 H743 0.950 . S
C751 C749 1.327 . S
C752 C740 1.367 . S
C752 H746 0.960 . S
C752 C753 1.299 1_655 S
C753 H747 0.950 . S
C753 C752 1.299 1_455 S
C753 C757 1.429 . S
C754 C737 1.574 . S
C754 H748 0.949 . S
C754 C758 1.368 . S
C755 C736 1.429 . S
C755 C749 1.429 . S
C755 C756 1.523 . S
C756 C737 1.368 . S
C756 C750 1.368 . S
C756 C755 1.523 . S
C757 C741 1.429 . S
C757 C753 1.429 . S
C757 C758 1.523 . S
C758 C742 1.368 . S
C758 C754 1.368 . S
C758 C757 1.523 . S
H759 C734 0.950 . S
H760 C736 0.950 . S
H761 C737 0.949 . S
H762 C739 0.950 . S
H763 C741 0.950 . S
C764 C765 1.349 1_565 S
C764 C766 1.327 . S
C764 H789 0.950 . S
C765 C764 1.349 1_545 S
C765 C781 1.349 . S
C766 C764 1.327 . S
C766 C785 1.429 . S
C766 H790 0.950 . S
C767 C784 1.574 . S
C767 C786 1.368 . S
C767 H791 0.949 . S
H768 C772 0.949 . S
C769 C770 1.349 . S
C769 C771 1.327 . S
C769 H792 0.950 . S
C770 C769 1.349 . S
C770 C782 1.349 . S
C771 C769 1.327 . S
C771 C787 1.429 . S
C771 H793 0.950 . S
C772 H768 0.949 . S
C772 C780 1.574 . S
C772 C788 1.368 . S
H773 C781 0.950 . S
H774 C779 0.950 . S
H775 C780 0.949 . S
H776 C782 0.950 . S
H777 C783 0.950 . S
H778 C784 0.949 . S
C779 H774 0.950 . S
C779 C781 1.327 1_565 S
C779 C785 1.429 . S
C780 C772 1.574 . S
C780 H775 0.949 . S
C780 C786 1.368 . S
C781 C765 1.349 . S
C781 H773 0.950 . S
C781 C779 1.327 1_545 S
C782 C770 1.349 . S
C782 H776 0.950 . S
C782 C783 1.327 . S
C783 H777 0.950 . S
C783 C782 1.327 . S
C783 C787 1.429 . S
C784 C767 1.574 . S
C784 H778 0.949 . S
C784 C788 1.368 . S
C785 C766 1.429 . S
C785 C779 1.429 . S
C785 C786 1.523 . S
C786 C767 1.368 . S
C786 C780 1.368 . S
C786 C785 1.523 . S
C787 C771 1.429 . S
C787 C783 1.429 . S
C787 C788 1.523 . S
C788 C772 1.368 . S
C788 C784 1.368 . S
C788 C787 1.523 . S
H789 C764 0.950 . S
H790 C766 0.950 . S
H791 C767 0.949 . S
H792 C769 0.950 . S
H793 C771 0.950 . S
C794 C795 1.349 . S
C794 C796 1.327 . S
C794 H819 0.950 . S
C795 C794 1.349 . S
C795 C811 1.349 . S
C796 C794 1.327 . S
C796 C815 1.429 . S
C796 H820 0.950 . S
C797 C814 1.574 . S
C797 C816 1.368 . S
C797 H821 0.949 . S
H798 C802 0.949 . S
C799 C800 1.349 . S
C799 C801 1.327 1_455 S
C799 H822 0.950 . S
C800 C799 1.349 . S
C800 C812 1.349 1_455 S
C801 C799 1.327 1_655 S
C801 C817 1.429 . S
C801 H823 0.950 . S
C802 H798 0.949 . S
C802 C810 1.574 . S
C802 C818 1.368 . S
H803 C811 0.950 . S
H804 C809 0.950 . S
H805 C810 0.949 . S
H806 C812 0.950 . S
H807 C813 0.950 . S
H808 C814 0.949 . S
C809 H804 0.950 . S
C809 C811 1.327 . S
C809 C815 1.429 . S
C810 C802 1.574 . S
C810 H805 0.949 . S
C810 C816 1.368 . S
C811 C795 1.349 . S
C811 H803 0.950 . S
C811 C809 1.327 . S
C812 C800 1.349 1_655 S
C812 H806 0.950 . S
C812 C813 1.327 . S
C813 H807 0.950 . S
C813 C812 1.327 . S
C813 C817 1.429 . S
C814 C797 1.574 . S
C814 H808 0.949 . S
C814 C818 1.368 . S
C815 C796 1.429 . S
C815 C809 1.429 . S
C815 C816 1.523 . S
C816 C797 1.368 . S
C816 C810 1.368 . S
C816 C815 1.523 . S
C817 C801 1.429 . S
C817 C813 1.429 . S
C817 C818 1.523 . S
C818 C802 1.368 . S
C818 C814 1.368 . S
C818 C817 1.523 . S
H819 C794 0.950 . S
H820 C796 0.950 . S
H821 C797 0.949 . S
H822 C799 0.950 . S
H823 C801 0.950 . S
C824 C825 1.349 1_565 S
C824 C826 1.327 . S
C824 H849 0.950 . S
C825 C824 1.349 1_545 S
C825 C841 1.349 . S
C826 C824 1.327 . S
C826 C845 1.429 . S
C826 H850 0.950 . S
C827 C844 1.574 . S
C827 C846 1.368 . S
C827 H851 0.949 . S
H828 C832 0.949 . S
C829 C830 1.349 . S
C829 C831 1.327 . S
C829 H852 0.950 . S
C830 C829 1.349 . S
C830 C842 1.349 . S
C831 C829 1.327 . S
C831 C847 1.429 . S
C831 H853 0.950 . S
C832 H828 0.949 . S
C832 C840 1.574 . S
C832 C848 1.368 . S
H833 C841 0.950 . S
H834 C839 0.950 . S
H835 C840 0.949 . S
H836 C842 0.950 . S
H837 C843 0.950 . S
H838 C844 0.949 . S
C839 H834 0.950 . S
C839 C841 1.327 1_565 S
C839 C845 1.429 . S
C840 C832 1.574 . S
C840 H835 0.949 . S
C840 C846 1.368 . S
C841 C825 1.349 . S
C841 H833 0.950 . S
C841 C839 1.327 1_545 S
C842 C830 1.349 . S
C842 H836 0.950 . S
C842 C843 1.327 . S
C843 H837 0.950 . S
C843 C842 1.327 . S
C843 C847 1.429 . S
C844 C827 1.574 . S
C844 H838 0.949 . S
C844 C848 1.368 . S
C845 C826 1.429 . S
C845 C839 1.429 . S
C845 C846 1.523 . S
C846 C827 1.368 . S
C846 C840 1.368 . S
C846 C845 1.523 . S
C847 C831 1.429 . S
C847 C843 1.429 . S
C847 C848 1.523 . S
C848 C832 1.368 . S
C848 C844 1.368 . S
C848 C847 1.523 . S
H849 C824 0.950 . S
H850 C826 0.950 . S
H851 C827 0.949 . S
H852 C829 0.950 . S
H853 C831 0.950 . S
C854 C855 1.349 . S
C854 C856 1.327 . S
C854 H879 0.950 . S
C855 C854 1.349 . S
C855 C871 1.349 . S
C856 C854 1.327 . S
C856 C875 1.429 . S
C856 H880 0.950 . S
C857 C874 1.574 . S
C857 C876 1.368 . S
C857 H881 0.949 . S
H858 C862 0.949 . S
C859 C860 1.349 1_655 S
C859 C861 1.327 . S
C859 H882 0.950 . S
C860 C859 1.349 1_455 S
C860 C872 1.349 . S
C861 C859 1.327 . S
C861 C877 1.429 . S
C861 H883 0.950 . S
C862 H858 0.949 . S
C862 C870 1.574 . S
C862 C878 1.368 . S
H863 C871 0.950 . S
H864 C869 0.950 . S
H865 C870 0.949 . S
H866 C872 0.950 . S
H867 C873 0.950 . S
H868 C874 0.949 . S
C869 H864 0.950 . S
C869 C871 1.327 . S
C869 C875 1.429 . S
C870 C862 1.574 . S
C870 H865 0.949 . S
C870 C876 1.368 . S
C871 C855 1.349 . S
C871 H863 0.950 . S
C871 C869 1.327 . S
C872 C860 1.349 . S
C872 H866 0.950 . S
C872 C873 1.327 1_455 S
C873 H867 0.950 . S
C873 C872 1.327 1_655 S
C873 C877 1.429 . S
C874 C857 1.574 . S
C874 H868 0.949 . S
C874 C878 1.368 . S
C875 C856 1.429 . S
C875 C869 1.429 . S
C875 C876 1.523 . S
C876 C857 1.368 . S
C876 C870 1.368 . S
C876 C875 1.523 . S
C877 C861 1.429 . S
C877 C873 1.429 . S
C877 C878 1.523 . S
C878 C862 1.368 . S
C878 C874 1.368 . S
C878 C877 1.523 . S
H879 C854 0.950 . S
H880 C856 0.950 . S
H881 C857 0.949 . S
H882 C859 0.950 . S
H883 C861 0.950 . S
C884 C885 1.349 . S
C884 C886 1.327 . S
C884 H909 0.950 . S
C885 C884 1.349 . S
C885 C901 1.349 . S
C886 C884 1.327 . S
C886 C905 1.429 . S
C886 H910 0.950 . S
C887 C904 1.574 . S
C887 C906 1.368 . S
C887 H911 0.949 . S
H888 C892 0.949 . S
C889 C890 1.349 . S
C889 C891 1.327 1_565 S
C889 H912 0.950 . S
C890 C889 1.349 . S
C890 C902 1.349 1_565 S
C891 C889 1.327 1_545 S
C891 C907 1.429 . S
C891 H913 0.950 . S
C892 H888 0.949 . S
C892 C900 1.574 . S
C892 C908 1.368 . S
H893 C901 0.950 . S
H894 C899 0.950 . S
H895 C900 0.949 . S
H896 C902 0.945 1_565 S
H897 C903 0.950 . S
H898 C904 0.949 . S
C899 H894 0.950 . S
C899 C901 1.327 . S
C899 C905 1.429 . S
C900 C892 1.574 . S
C900 H895 0.949 . S
C900 C906 1.368 . S
C901 C885 1.349 . S
C901 H893 0.950 . S
C901 C899 1.327 . S
C902 C890 1.349 1_545 S
C902 H896 0.945 1_545 S
C902 C903 1.327 . S
C903 H897 0.950 . S
C903 C902 1.327 . S
C903 C907 1.429 . S
C904 C887 1.574 . S
C904 H898 0.949 . S
C904 C908 1.368 . S
C905 C886 1.429 . S
C905 C899 1.429 . S
C905 C906 1.523 . S
C906 C887 1.368 . S
C906 C900 1.368 . S
C906 C905 1.523 . S
C907 C891 1.429 . S
C907 C903 1.429 . S
C907 C908 1.523 . S
C908 C892 1.368 . S
C908 C904 1.368 . S
C908 C907 1.523 . S
H909 C884 0.950 . S
H910 C886 0.950 . S
H911 C887 0.949 . S
H912 C889 0.950 . S
H913 C891 0.950 . S
C914 C915 1.349 . S
C914 C916 1.327 . S
C914 H939 0.950 . S
C915 C914 1.349 . S
C915 C931 1.349 . S
C916 C914 1.327 . S
C916 C935 1.429 . S
C916 H940 0.950 . S
C917 C934 1.574 . S
C917 C936 1.368 . S
C917 H941 0.949 . S
H918 C922 0.949 . S
C919 C920 1.349 1_455 S
C919 C921 1.327 . S
C919 H942 0.950 . S
C920 C919 1.349 1_655 S
C920 C932 1.349 . S
C921 C919 1.327 . S
C921 C937 1.429 . S
C921 H943 0.950 . S
C922 H918 0.949 . S
C922 C930 1.574 . S
C922 C938 1.368 . S
H923 C931 0.950 . S
H924 C929 0.950 . S
H925 C930 0.949 . S
H926 C932 0.950 . S
H927 C933 0.950 . S
H928 C934 0.949 . S
C929 H924 0.950 . S
C929 C931 1.327 . S
C929 C935 1.429 . S
C930 C922 1.574 . S
C930 H925 0.949 . S
C930 C936 1.368 . S
C931 C915 1.349 . S
C931 H923 0.950 . S
C931 C929 1.327 . S
C932 C920 1.349 . S
C932 H926 0.950 . S
C932 C933 1.327 1_655 S
C933 H927 0.950 . S
C933 C932 1.327 1_455 S
C933 C937 1.429 . S
C934 C917 1.574 . S
C934 H928 0.949 . S
C934 C938 1.368 . S
C935 C916 1.429 . S
C935 C929 1.429 . S
C935 C936 1.523 . S
C936 C917 1.368 . S
C936 C930 1.368 . S
C936 C935 1.523 . S
C937 C921 1.429 . S
C937 C933 1.429 . S
C937 C938 1.523 . S
C938 C922 1.368 . S
C938 C934 1.368 . S
C938 C937 1.523 . S
H939 C914 0.950 . S
H940 C916 0.950 . S
H941 C917 0.949 . S
H942 C919 0.950 . S
H943 C921 0.950 . S
C944 C945 1.349 . S
C944 C946 1.327 . S
C944 H969 0.950 . S
C945 C944 1.349 . S
C945 C961 1.349 . S
C946 C944 1.327 . S
C946 C965 1.429 . S
C946 H970 0.950 . S
C947 C964 1.574 . S
C947 C966 1.368 . S
C947 H971 0.949 . S
H948 C952 0.949 . S
C949 C950 1.349 . S
C949 C951 1.327 . S
C949 H972 0.950 . S
C950 C949 1.349 . S
C950 C962 1.349 . S
C951 C949 1.327 . S
C951 C967 1.429 . S
C951 H973 0.950 . S
C952 H948 0.949 . S
C952 C960 1.574 . S
C952 C968 1.368 . S
H953 C961 0.950 . S
H954 C959 0.950 . S
H955 C960 0.949 . S
H956 C962 0.950 . S
H957 C963 0.950 . S
H958 C964 0.949 . S
C959 H954 0.950 . S
C959 C961 1.327 . S
C959 C965 1.429 . S
C960 C952 1.574 . S
C960 H955 0.949 . S
C960 C966 1.368 . S
C961 C945 1.349 . S
C961 H953 0.950 . S
C961 C959 1.327 . S
C962 C950 1.349 . S
C962 H956 0.950 . S
C962 C963 1.327 . S
C963 H957 0.950 . S
C963 C962 1.327 . S
C963 C967 1.429 . S
C964 C947 1.574 . S
C964 H958 0.949 . S
C964 C968 1.368 . S
C965 C946 1.429 . S
C965 C959 1.429 . S
C965 C966 1.523 . S
C966 C947 1.368 . S
C966 C960 1.368 . S
C966 C965 1.523 . S
C967 C951 1.429 . S
C967 C963 1.429 . S
C967 C968 1.523 . S
C968 C952 1.368 . S
C968 C964 1.368 . S
C968 C967 1.523 . S
H969 C944 0.950 . S
H970 C946 0.950 . S
H971 C947 0.949 . S
H972 C949 0.950 . S
H973 C951 0.950 . S
C974 C975 1.349 . S
C974 C976 1.327 . S
C974 H999 0.950 . S
C975 C974 1.349 . S
C975 C991 1.349 . S
C976 C974 1.327 . S
C976 C995 1.429 . S
C976 H1000 0.950 . S
C977 C994 1.574 . S
C977 C996 1.368 . S
C977 H1001 0.949 . S
H978 C982 0.949 . S
C979 C980 1.349 . S
C979 C981 1.327 . S
C979 H1002 0.950 . S
C980 C979 1.349 . S
C980 C992 1.349 . S
C981 C979 1.327 . S
C981 C997 1.429 . S
C981 H1003 0.950 . S
C982 H978 0.949 . S
C982 C990 1.574 . S
C982 C998 1.368 . S
H983 C991 0.950 . S
H984 C989 0.950 . S
H985 C990 0.949 . S
H986 C992 0.950 . S
H987 C993 0.950 . S
H988 C994 0.949 . S
C989 H984 0.950 . S
C989 C991 1.327 . S
C989 C995 1.429 . S
C990 C982 1.574 . S
C990 H985 0.949 . S
C990 C996 1.368 . S
C991 C975 1.349 . S
C991 H983 0.950 . S
C991 C989 1.327 . S
C992 C980 1.349 . S
C992 H986 0.950 . S
C992 C993 1.327 . S
C993 H987 0.950 . S
C993 C992 1.327 . S
C993 C997 1.429 . S
C994 C977 1.574 . S
C994 H988 0.949 . S
C994 C998 1.368 . S
C995 C976 1.429 . S
C995 C989 1.429 . S
C995 C996 1.523 . S
C996 C977 1.368 . S
C996 C990 1.368 . S
C996 C995 1.523 . S
C997 C981 1.429 . S
C997 C993 1.429 . S
C997 C998 1.523 . S
C998 C982 1.368 . S
C998 C994 1.368 . S
C998 C997 1.523 . S
H999 C974 0.950 . S
H1000 C976 0.950 . S
H1001 C977 0.949 . S
H1002 C979 0.950 . S
H1003 C981 0.950 . S
C1004 C1005 1.349 . S
C1004 C1006 1.327 . S
C1004 H1029 0.950 . S
C1005 C1004 1.349 . S
C1005 C1021 1.349 . S
C1006 C1004 1.327 . S
C1006 C1025 1.429 . S
C1006 H1030 0.950 . S
C1007 C1024 1.574 . S
C1007 C1026 1.368 . S
C1007 H1031 0.949 . S
H1008 C1012 0.949 . S
C1009 C1010 1.349 . S
C1009 C1011 1.327 . S
C1009 H1032 0.950 . S
C1010 C1009 1.349 . S
C1010 C1022 1.349 . S
C1011 C1009 1.327 . S
C1011 C1027 1.429 . S
C1011 H1033 0.950 . S
C1012 H1008 0.949 . S
C1012 C1020 1.574 . S
C1012 C1028 1.368 . S
H1013 C1021 0.950 . S
H1014 C1019 0.950 . S
H1015 C1020 0.949 . S
H1016 C1022 0.950 . S
H1017 C1023 0.950 . S
H1018 C1024 0.949 . S
C1019 H1014 0.950 . S
C1019 C1021 1.327 . S
C1019 C1025 1.429 . S
C1020 C1012 1.574 . S
C1020 H1015 0.949 . S
C1020 C1026 1.368 . S
C1021 C1005 1.349 . S
C1021 H1013 0.950 . S
C1021 C1019 1.327 . S
C1022 C1010 1.349 . S
C1022 H1016 0.950 . S
C1022 C1023 1.327 . S
C1023 H1017 0.950 . S
C1023 C1022 1.327 . S
C1023 C1027 1.429 . S
C1024 C1007 1.574 . S
C1024 H1018 0.949 . S
C1024 C1028 1.368 . S
C1025 C1006 1.429 . S
C1025 C1019 1.429 . S
C1025 C1026 1.523 . S
C1026 C1007 1.368 . S
C1026 C1020 1.368 . S
C1026 C1025 1.523 . S
C1027 C1011 1.429 . S
C1027 C1023 1.429 . S
C1027 C1028 1.523 . S
C1028 C1012 1.368 . S
C1028 C1024 1.368 . S
C1028 C1027 1.523 . S
H1029 C1004 0.950 . S
H1030 C1006 0.950 . S
H1031 C1007 0.949 . S
H1032 C1009 0.950 . S
H1033 C1011 0.950 . S
C1034 C1035 1.349 . S
C1034 C1036 1.327 . S
C1034 H1059 0.950 . S
C1035 C1034 1.349 . S
C1035 C1051 1.349 . S
C1036 C1034 1.327 . S
C1036 C1055 1.429 . S
C1036 H1060 0.950 . S
C1037 C1054 1.574 . S
C1037 C1056 1.368 . S
C1037 H1061 0.949 . S
H1038 C1042 0.949 . S
C1039 C1040 1.349 . S
C1039 C1041 1.327 . S
C1039 H1062 0.950 . S
C1040 C1039 1.349 . S
C1040 C1052 1.349 . S
C1041 C1039 1.327 . S
C1041 C1057 1.429 . S
C1041 H1063 0.950 . S
C1042 H1038 0.949 . S
C1042 C1050 1.574 . S
C1042 C1058 1.368 . S
H1043 C1051 0.950 . S
H1044 C1049 0.950 . S
H1045 C1050 0.949 . S
H1046 C1052 0.950 . S
H1047 C1053 0.950 . S
H1048 C1054 0.949 . S
C1049 H1044 0.950 . S
C1049 C1051 1.327 . S
C1049 C1055 1.429 . S
C1050 C1042 1.574 . S
C1050 H1045 0.949 . S
C1050 C1056 1.368 . S
C1051 C1035 1.349 . S
C1051 H1043 0.950 . S
C1051 C1049 1.327 . S
C1052 C1040 1.349 . S
C1052 H1046 0.950 . S
C1052 C1053 1.327 . S
C1053 H1047 0.950 . S
C1053 C1052 1.327 . S
C1053 C1057 1.429 . S
C1054 C1037 1.574 . S
C1054 H1048 0.949 . S
C1054 C1058 1.368 . S
C1055 C1036 1.429 . S
C1055 C1049 1.429 . S
C1055 C1056 1.523 . S
C1056 C1037 1.368 . S
C1056 C1050 1.368 . S
C1056 C1055 1.523 . S
C1057 C1041 1.429 . S
C1057 C1053 1.429 . S
C1057 C1058 1.523 . S
C1058 C1042 1.368 . S
C1058 C1054 1.368 . S
C1058 C1057 1.523 . S
H1059 C1034 0.950 . S
H1060 C1036 0.950 . S
H1061 C1037 0.949 . S
H1062 C1039 0.950 . S
H1063 C1041 0.950 . S
C1064 C1065 1.349 . S
C1064 C1066 1.327 . S
C1064 H1089 0.950 . S
C1065 C1064 1.349 . S
C1065 C1081 1.349 . S
C1066 C1064 1.327 . S
C1066 C1085 1.429 . S
C1066 H1090 0.950 . S
C1067 C1084 1.574 1_554 S
C1067 C1086 1.368 1_565 S
C1067 H1091 0.949 . S
H1068 C1072 0.949 . S
C1069 C1070 1.349 . S
C1069 C1071 1.327 . S
C1069 H1092 0.950 . S
C1070 C1069 1.349 . S
C1070 C1082 1.349 . S
C1071 C1069 1.327 . S
C1071 C1087 1.429 . S
C1071 H1093 0.950 . S
C1072 H1068 0.949 . S
C1072 C1080 1.574 1_556 S
C1072 C1088 1.368 1_545 S
H1073 C1081 0.929 1_565 S
H1074 C1079 0.950 1_565 S
H1075 C1080 0.949 . S
H1076 C1082 0.929 1_545 S
H1077 C1083 0.950 1_545 S
H1078 C1084 0.949 . S
C1079 H1074 0.950 1_545 S
C1079 C1081 1.327 . S
C1079 C1085 1.429 . S
C1080 C1072 1.574 1_554 S
C1080 H1075 0.949 . S
C1080 C1086 1.368 . S
C1081 C1065 1.349 . S
C1081 H1073 0.929 1_545 S
C1081 C1079 1.327 . S
C1082 C1070 1.349 . S
C1082 H1076 0.929 1_565 S
C1082 C1083 1.327 . S
C1083 H1077 0.950 1_565 S
C1083 C1082 1.327 . S
C1083 C1087 1.429 . S
C1084 C1067 1.574 1_556 S
C1084 H1078 0.949 . S
C1084 C1088 1.368 . S
C1085 C1066 1.429 . S
C1085 C1079 1.429 . S
C1085 C1086 1.523 . S
C1086 C1067 1.368 1_545 S
C1086 C1080 1.368 . S
C1086 C1085 1.523 . S
C1087 C1071 1.429 . S
C1087 C1083 1.429 . S
C1087 C1088 1.523 . S
C1088 C1072 1.368 1_565 S
C1088 C1084 1.368 . S
C1088 C1087 1.523 . S
H1089 C1064 0.950 . S
H1090 C1066 0.950 . S
H1091 C1067 0.949 . S
H1092 C1069 0.950 . S
H1093 C1071 0.950 . S
C1094 C1095 1.349 . S
C1094 C1096 1.327 . S
C1094 H1119 0.950 . S
C1095 C1094 1.349 . S
C1095 C1111 1.349 . S
C1096 C1094 1.327 . S
C1096 C1115 1.429 . S
C1096 H1120 0.921 1_455 S
C1097 C1114 1.574 1_556 S
C1097 C1116 1.368 . S
C1097 H1121 0.949 . S
H1098 C1102 0.949 . S
C1099 C1100 1.349 . S
C1099 C1101 1.327 . S
C1099 H1122 0.950 . S
C1100 C1099 1.349 . S
C1100 C1112 1.349 . S
C1101 C1099 1.327 . S
C1101 C1117 1.429 . S
C1101 H1123 0.921 1_655 S
C1102 H1098 0.949 . S
C1102 C1110 1.574 1_554 S
C1102 C1118 1.368 . S
H1103 C1111 0.950 . S
H1104 C1109 0.950 . S
H1105 C1110 0.949 . S
H1106 C1112 0.950 . S
H1107 C1113 0.950 . S
H1108 C1114 0.949 . S
C1109 H1104 0.950 . S
C1109 C1111 1.327 . S
C1109 C1115 1.429 . S
C1110 C1102 1.574 1_556 S
C1110 H1105 0.949 . S
C1110 C1116 1.368 1_655 S
C1111 C1095 1.349 . S
C1111 H1103 0.950 . S
C1111 C1109 1.327 . S
C1112 C1100 1.349 . S
C1112 H1106 0.950 . S
C1112 C1113 1.327 . S
C1113 H1107 0.950 . S
C1113 C1112 1.327 . S
C1113 C1117 1.429 . S
C1114 C1097 1.574 1_554 S
C1114 H1108 0.949 . S
C1114 C1118 1.368 1_455 S
C1115 C1096 1.429 . S
C1115 C1109 1.429 . S
C1115 C1116 1.523 . S
C1116 C1097 1.368 . S
C1116 C1110 1.368 1_455 S
C1116 C1115 1.523 . S
C1117 C1101 1.429 . S
C1117 C1113 1.429 . S
C1117 C1118 1.523 . S
C1118 C1102 1.368 . S
C1118 C1114 1.368 1_655 S
C1118 C1117 1.523 . S
H1119 C1094 0.950 . S
H1120 C1096 0.921 1_655 S
H1121 C1097 0.949 . S
H1122 C1099 0.950 . S
H1123 C1101 0.921 1_455 S
C1124 C1125 1.349 . S
C1124 C1126 1.327 . S
C1124 H1149 0.950 . S
C1125 C1124 1.349 . S
C1125 C1141 1.349 . S
C1126 C1124 1.327 . S
C1126 C1145 1.429 . S
C1126 H1150 0.950 1_545 S
C1127 C1144 1.574 1_556 S
C1127 C1146 1.368 . S
C1127 H1151 0.949 . S
H1128 C1132 0.949 . S
C1129 C1130 1.349 . S
C1129 C1131 1.327 . S
C1129 H1152 0.950 . S
C1130 C1129 1.349 . S
C1130 C1142 1.349 . S
C1131 C1129 1.327 . S
C1131 C1147 1.429 . S
C1131 H1153 0.950 1_565 S
C1132 H1128 0.949 . S
C1132 C1140 1.574 1_554 S
C1132 C1148 1.368 . S
H1133 C1141 0.950 . S
H1134 C1139 0.950 . S
H1135 C1140 0.949 . S
H1136 C1142 0.950 . S
H1137 C1143 0.950 . S
H1138 C1144 0.949 . S
C1139 H1134 0.950 . S
C1139 C1141 1.327 . S
C1139 C1145 1.429 . S
C1140 C1132 1.574 1_556 S
C1140 H1135 0.949 . S
C1140 C1146 1.368 1_565 S
C1141 C1125 1.349 . S
C1141 H1133 0.950 . S
C1141 C1139 1.327 . S
C1142 C1130 1.349 . S
C1142 H1136 0.950 . S
C1142 C1143 1.327 . S
C1143 H1137 0.950 . S
C1143 C1142 1.327 . S
C1143 C1147 1.429 . S
C1144 C1127 1.574 1_554 S
C1144 H1138 0.949 . S
C1144 C1148 1.368 1_545 S
C1145 C1126 1.429 . S
C1145 C1139 1.429 . S
C1145 C1146 1.523 . S
C1146 C1127 1.368 . S
C1146 C1140 1.368 1_545 S
C1146 C1145 1.523 . S
C1147 C1131 1.429 . S
C1147 C1143 1.429 . S
C1147 C1148 1.523 . S
C1148 C1132 1.368 . S
C1148 C1144 1.368 1_565 S
C1148 C1147 1.523 . S
H1149 C1124 0.950 . S
H1150 C1126 0.950 1_565 S
H1151 C1127 0.949 . S
H1152 C1129 0.950 . S
H1153 C1131 0.950 1_545 S
C1154 C1155 1.349 . S
C1154 C1156 1.327 . S
C1154 H1179 0.950 . S
C1155 C1154 1.349 . S
C1155 C1171 1.349 . S
C1156 C1154 1.327 . S
C1156 C1175 1.429 . S
C1156 H1180 0.921 1_655 S
C1157 C1174 1.574 1_556 S
C1157 C1176 1.368 . S
C1157 H1181 0.949 . S
H1158 C1162 0.949 . S
C1159 C1160 1.349 . S
C1159 C1161 1.327 . S
C1159 H1182 0.950 . S
C1160 C1159 1.349 . S
C1160 C1172 1.349 . S
C1161 C1159 1.327 . S
C1161 C1177 1.429 . S
C1161 H1183 0.921 1_455 S
C1162 H1158 0.949 . S
C1162 C1170 1.574 1_554 S
C1162 C1178 1.368 . S
H1163 C1171 0.950 . S
H1164 C1169 0.950 . S
H1165 C1170 0.949 . S
H1166 C1172 0.950 . S
H1167 C1173 0.950 . S
H1168 C1174 0.949 . S
C1169 H1164 0.950 . S
C1169 C1171 1.327 . S
C1169 C1175 1.429 . S
C1170 C1162 1.574 1_556 S
C1170 H1165 0.949 . S
C1170 C1176 1.368 1_455 S
C1171 C1155 1.349 . S
C1171 H1163 0.950 . S
C1171 C1169 1.327 . S
C1172 C1160 1.349 . S
C1172 H1166 0.950 . S
C1172 C1173 1.327 . S
C1173 H1167 0.950 . S
C1173 C1172 1.327 . S
C1173 C1177 1.429 . S
C1174 C1157 1.574 1_554 S
C1174 H1168 0.949 . S
C1174 C1178 1.368 1_655 S
C1175 C1156 1.429 . S
C1175 C1169 1.429 . S
C1175 C1176 1.523 . S
C1176 C1157 1.368 . S
C1176 C1170 1.368 1_655 S
C1176 C1175 1.523 . S
C1177 C1161 1.429 . S
C1177 C1173 1.429 . S
C1177 C1178 1.523 . S
C1178 C1162 1.368 . S
C1178 C1174 1.368 1_455 S
C1178 C1177 1.523 . S
H1179 C1154 0.950 . S
H1180 C1156 0.921 1_455 S
H1181 C1157 0.949 . S
H1182 C1159 0.950 . S
H1183 C1161 0.921 1_655 S
C225 C6 1.308 . S
C230 C104 1.308 . S
C255 C20 1.308 . S
C260 C62 1.308 . S
C285 C76 1.308 . S
C290 C34 1.308 . S
C315 C48 1.308 . S
C320 C90 1.308 . S
C345 C118 1.308 . S
C350 C216 1.308 . S
C375 C174 1.308 . S
C380 C132 1.308 . S
C405 C188 1.308 . S
C410 C146 1.308 . S
C435 C202 1.308 . S
C440 C160 1.308 . S
C465 C9 1.447 . S
C470 C162 1.480 . S
C495 C23 1.447 . S
C500 C120 1.480 . S
C525 C134 1.480 . S
C530 C37 1.447 . S
C555 C51 1.447 . S
C560 C148 1.480 . S
C585 C65 1.447 . S
C590 C190 1.480 . S
C615 C204 1.480 . S
C620 C79 1.447 . S
C645 C93 1.447 . S
C650 C218 1.480 . S
C675 C176 1.480 . S
C680 C107 1.447 . S
C705 C121 1.447 . S
C710 C50 1.479 . S
C735 C8 1.479 . S
C740 C135 1.447 . S
C765 C149 1.447 . S
C770 C22 1.479 . S
C795 C36 1.479 . S
C800 C163 1.447 . S
C825 C177 1.447 . S
C830 C78 1.479 . S
C855 C92 1.479 . S
C860 C191 1.447 . S
C885 C106 1.479 . S
C890 C205 1.447 . S
C915 C64 1.479 . S
C920 C219 1.447 . S
C945 C63 1.596 . S
C950 C7 1.596 . S
C975 C77 1.596 . S
C980 C21 1.596 . S
C1005 C35 1.596 . S
C1010 C91 1.596 . S
C1035 C105 1.596 . S
C1040 C49 1.596 . S
C1065 C175 1.596 . S
C1070 C119 1.596 . S
C1095 C189 1.596 . S
C1100 C133 1.596 . S
C1125 C147 1.596 . S
C1130 C203 1.596 . S
C1155 C217 1.596 . S
C1160 C161 1.596 . S
