# Generated by pormake.
# Topology fcu, (12)-cn, num edge types: 1
# Building blocks:
#     Node 0, Type 0, BuildingBlock: ZALLEG_clean_sbu_0, # of connection points: 12
#     Node 1, Type 0, BuildingBlock: ZALLEG_clean_sbu_0, # of connection points: 12
#     Node 2, Type 0, BuildingBlock: ZALLEG_clean_sbu_0, # of connection points: 12
#     Node 3, Type 0, BuildingBlock: ZALLEG_clean_sbu_0, # of connection points: 12
#     Edge 4, Type (0, 0), BuildingBlock: ZUJKAS_clean_linker_0, # of connection points: 2
#     Edge 5, Type (0, 0), BuildingBlock: ZUJKAS_clean_linker_0, # of connection points: 2
#     Edge 6, Type (0, 0), BuildingBlock: ZUJKAS_clean_linker_0, # of connection points: 2
#     Edge 7, Type (0, 0), BuildingBlock: ZUJKAS_clean_linker_0, # of connection points: 2
#     Edge 8, Type (0, 0), BuildingBlock: ZUJKAS_clean_linker_0, # of connection points: 2
#     Edge 9, Type (0, 0), BuildingBlock: ZUJKAS_clean_linker_0, # of connection points: 2
#     Edge 10, Type (0, 0), BuildingBlock: ZUJKAS_clean_linker_0, # of connection points: 2
#     Edge 11, Type (0, 0), BuildingBlock: ZUJKAS_clean_linker_0, # of connection points: 2
#     Edge 12, Type (0, 0), BuildingBlock: ZUJKAS_clean_linker_0, # of connection points: 2
#     Edge 13, Type (0, 0), BuildingBlock: ZUJKAS_clean_linker_0, # of connection points: 2
#     Edge 14, Type (0, 0), BuildingBlock: ZUJKAS_clean_linker_0, # of connection points: 2
#     Edge 15, Type (0, 0), BuildingBlock: ZUJKAS_clean_linker_0, # of connection points: 2
#     Edge 16, Type (0, 0), BuildingBlock: ZUJKAS_clean_linker_0, # of connection points: 2
#     Edge 17, Type (0, 0), BuildingBlock: ZUJKAS_clean_linker_0, # of connection points: 2
#     Edge 18, Type (0, 0), BuildingBlock: ZUJKAS_clean_linker_0, # of connection points: 2
#     Edge 19, Type (0, 0), BuildingBlock: ZUJKAS_clean_linker_0, # of connection points: 2
#     Edge 20, Type (0, 0), BuildingBlock: ZUJKAS_clean_linker_0, # of connection points: 2
#     Edge 21, Type (0, 0), BuildingBlock: ZUJKAS_clean_linker_0, # of connection points: 2
#     Edge 22, Type (0, 0), BuildingBlock: ZUJKAS_clean_linker_0, # of connection points: 2
#     Edge 23, Type (0, 0), BuildingBlock: ZUJKAS_clean_linker_0, # of connection points: 2
#     Edge 24, Type (0, 0), BuildingBlock: ZUJKAS_clean_linker_0, # of connection points: 2
#     Edge 25, Type (0, 0), BuildingBlock: ZUJKAS_clean_linker_0, # of connection points: 2
#     Edge 26, Type (0, 0), BuildingBlock: ZUJKAS_clean_linker_0, # of connection points: 2
#     Edge 27, Type (0, 0), BuildingBlock: ZUJKAS_clean_linker_0, # of connection points: 2
# Relax obj value: 0.000
# Max RMSD: 0.000
# Mean RMSD: 0.000
data_MOF--net-fcu--node1-ZALLEG_clean_sbu_0--edge1-ZUJKAS_clean_linker_0
_symmetry_space_group_name_H-M    P1
_symmetry_Int_Tables_number       1
_symmetry_cell_setting            triclinic
loop_
_symmetry_equiv_pos_as_xyz
'x, y, z'
_cell_length_a     32.986569
_cell_length_b     32.984445
_cell_length_c     32.990026
_cell_angle_alpha  90.003952
_cell_angle_beta   90.008182
_cell_angle_gamma 89.997116
loop_
_atom_site_label
_atom_site_type_symbol
_atom_site_fract_x
_atom_site_fract_y
_atom_site_fract_z
_atom_type_partial_charge
H0 H 0.95414 0.95481 0.95453 0.0
O1 O 0.97146 0.97206 0.97183 0.0
Tb2 Tb 0.93578 0.00939 0.0091 0.0
Tb3 Tb 0.00869 0.93625 0.00907 0.0
Tb4 Tb 0.00877 0.00929 0.93611 0.0
O5 O 0.97148 0.97205 0.04635 0.0
O6 O 0.97157 0.04662 0.97186 0.0
O7 O 0.97159 0.04658 0.04638 0.0
O8 O 0.04601 0.97195 0.04635 0.0
O9 O 0.04611 0.04651 0.97184 0.0
O10 O 0.046 0.97197 0.97183 0.0
H11 H 0.95418 0.95477 0.06363 0.0
H12 H 0.9543 0.06395 0.95459 0.0
Tb13 Tb 0.0088 0.00925 0.08212 0.0
Tb14 Tb 0.00892 0.08228 0.00912 0.0
H15 H 0.95432 0.06388 0.06367 0.0
H16 H 0.06329 0.95463 0.06362 0.0
Tb17 Tb 0.0818 0.00918 0.00909 0.0
H18 H 0.06342 0.06379 0.95456 0.0
H19 H 0.06326 0.95467 0.95453 0.0
O20 O 0.04611 0.04648 0.04639 0.0
H21 H 0.06341 0.06375 0.06369 0.0
O22 O 0.90083 0.95261 0.00912 0.0
O23 O 0.11677 0.06594 0.0091 0.0
O24 O 0.1166 0.95233 0.00909 0.0
O25 O 0.90101 0.06631 0.00917 0.0
O26 O 0.00866 0.90139 0.95222 0.0
O27 O 0.00888 0.11715 0.06593 0.0
O28 O 0.00898 0.11717 0.9523 0.0
O29 O 0.00865 0.90136 0.0659 0.0
O30 O 0.95195 0.00934 0.90124 0.0
O31 O 0.06564 0.00918 0.11698 0.0
O32 O 0.95194 0.00926 0.11699 0.0
O33 O 0.06556 0.0092 0.90122 0.0
O34 O 0.95178 0.90147 0.00901 0.0
O35 O 0.06581 0.11708 0.00924 0.0
O36 O 0.95215 0.11726 0.00917 0.0
O37 O 0.06553 0.90131 0.00899 0.0
O38 O 0.90091 0.00943 0.06593 0.0
O39 O 0.11666 0.00919 0.95222 0.0
O40 O 0.11668 0.00919 0.06594 0.0
O41 O 0.90089 0.00954 0.95226 0.0
O42 O 0.00882 0.95238 0.11697 0.0
O43 O 0.00877 0.06614 0.90125 0.0
O44 O 0.00872 0.95247 0.90122 0.0
O45 O 0.00882 0.06613 0.11699 0.0
C46 C 0.91301 0.91379 0.00906 0.0
C47 C 0.10458 0.10475 0.0092 0.0
C48 C 0.10433 0.91355 0.00901 0.0
C49 C 0.91334 0.10509 0.00921 0.0
C50 C 0.00869 0.91367 0.91344 0.0
C51 C 0.00883 0.10493 0.10472 0.0
C52 C 0.00888 0.10493 0.91351 0.0
C53 C 0.00874 0.91359 0.1047 0.0
C54 C 0.91316 0.00947 0.91348 0.0
C55 C 0.10443 0.00918 0.10473 0.0
C56 C 0.91315 0.00935 0.10472 0.0
C57 C 0.10437 0.00918 0.91343 0.0
H58 H 0.95404 0.4549 0.45454 0.0
O59 O 0.97138 0.47214 0.47183 0.0
Tb60 Tb 0.93577 0.50943 0.50921 0.0
Tb61 Tb 0.0086 0.43626 0.509 0.0
Tb62 Tb 0.00871 0.50937 0.4361 0.0
O63 O 0.97146 0.472 0.54638 0.0
O64 O 0.97158 0.54665 0.47198 0.0
O65 O 0.97164 0.54652 0.54652 0.0
O66 O 0.046 0.47184 0.54628 0.0
O67 O 0.04608 0.54649 0.4719 0.0
O68 O 0.04593 0.47197 0.47177 0.0
H69 H 0.95416 0.45472 0.56367 0.0
H70 H 0.9543 0.56401 0.45474 0.0
Tb71 Tb 0.00887 0.5091 0.58215 0.0
Tb72 Tb 0.00895 0.58224 0.50929 0.0
H73 H 0.9544 0.56383 0.56383 0.0
H74 H 0.06327 0.45449 0.56352 0.0
Tb75 Tb 0.0818 0.5091 0.50907 0.0
H76 H 0.06337 0.56379 0.45463 0.0
H77 H 0.06318 0.45467 0.45445 0.0
O78 O 0.04619 0.54638 0.54646 0.0
H79 H 0.06353 0.56361 0.56376 0.0
O80 O 0.90075 0.4527 0.50915 0.0
O81 O 0.11679 0.5659 0.50903 0.0
O82 O 0.11652 0.45215 0.50903 0.0
O83 O 0.90104 0.56636 0.50924 0.0
O84 O 1.00851 0.40147 0.45214 0.0
O85 O 0.00901 0.61701 0.56621 0.0
O86 O 0.00896 0.61723 0.45254 0.0
O87 O 0.00861 0.40125 0.56573 0.0
O88 O 0.95181 0.50945 0.4013 0.0
O89 O 0.06576 0.50888 0.61696 0.0
O90 O 0.95208 0.50915 0.61708 0.0
O91 O 0.06557 0.50941 0.4012 0.0
O92 O 0.95166 0.40152 0.50903 0.0
O93 O 0.06582 0.61701 0.50931 0.0
O94 O 0.95222 0.61726 0.5094 0.0
O95 O 0.06534 0.40124 0.50892 0.0
O96 O 0.90097 0.50951 0.56611 0.0
O97 O 0.11662 0.5091 0.45224 0.0
O98 O 0.11673 0.50893 0.56586 0.0
O99 O 0.90084 0.50963 0.45242 0.0
O100 O 0.0089 0.45217 0.6169 0.0
O101 O 0.00867 0.56631 0.40137 0.0
O102 O 0.00861 0.45254 0.40114 0.0
O103 O 0.00896 0.56586 0.61714 0.0
C104 C 0.9129 0.41387 0.50909 0.0
C105 C 0.10459 0.60471 0.50915 0.0
C106 C 0.10416 0.41339 0.50897 0.0
C107 C 0.9134 0.60512 0.50933 0.0
C108 C 0.00854 0.41374 0.41337 0.0
C109 C 0.00898 0.60468 0.60497 0.0
C110 C 0.0088 0.60508 0.41372 0.0
C111 C 0.00878 0.41341 0.60455 0.0
C112 C 0.91303 0.50958 0.41361 0.0
C113 C 0.10454 0.50883 0.60466 0.0
C114 C 0.91328 0.50936 0.60488 0.0
C115 C 0.10437 0.50927 0.41345 0.0
H116 H 0.45436 0.95466 0.45448 0.0
O117 O 0.47161 0.97197 0.47179 0.0
Tb118 Tb 0.43576 0.00918 0.50902 0.0
Tb119 Tb 0.50887 0.93625 0.50906 0.0
Tb120 Tb 0.50893 0.00926 0.43612 0.0
O121 O 0.47154 0.97196 0.54631 0.0
O122 O 0.47154 0.04647 0.4718 0.0
O123 O 0.47144 0.04649 0.54633 0.0
O124 O 0.54605 0.97201 0.54641 0.0
O125 O 0.5461 0.04655 0.47192 0.0
O126 O 0.54619 0.972 0.47187 0.0
H127 H 0.45427 0.95464 0.56358 0.0
H128 H 0.45426 0.06373 0.45449 0.0
Tb129 Tb 0.50873 0.00927 0.58211 0.0
Tb130 Tb 0.50873 0.08226 0.50909 0.0
H131 H 0.45412 0.06376 0.5636 0.0
H132 H 0.56332 0.95473 0.56372 0.0
Tb133 Tb 0.58183 0.00929 0.50923 0.0
H134 H 0.56338 0.06386 0.45464 0.0
H135 H 0.56351 0.95472 0.4546 0.0
O136 O 0.54601 0.04656 0.54641 0.0
H137 H 0.56327 0.06386 0.56371 0.0
O138 O 0.40096 0.95226 0.50905 0.0
O139 O 0.61664 0.06615 0.50925 0.0
O140 O 0.61674 0.95246 0.50936 0.0
O141 O 0.40085 0.06601 0.50893 0.0
O142 O 0.50886 0.90139 0.4522 0.0
O143 O 0.50859 0.11716 0.56589 0.0
O144 O 0.50865 0.11714 0.45224 0.0
O145 O 0.50882 0.90137 0.56587 0.0
O146 O 0.45215 0.00922 0.40116 0.0
O147 O 0.56548 0.00931 0.61707 0.0
O148 O 0.45188 0.00921 0.61692 0.0
O149 O 0.56584 0.0094 0.40134 0.0
O150 O 0.4521 0.90131 0.50899 0.0
O151 O 0.56557 0.11717 0.50909 0.0
O152 O 0.45187 0.11708 0.50904 0.0
O153 O 0.56571 0.90141 0.50913 0.0
O154 O 0.40084 0.00907 0.56586 0.0
O155 O 0.6168 0.00935 0.45247 0.0
O156 O 0.61662 0.00925 0.56613 0.0
O157 O 0.401 0.00906 0.45209 0.0
O158 O 0.50882 0.95238 0.61695 0.0
O159 O 0.50892 0.06606 0.40124 0.0
O160 O 0.50901 0.95247 0.40121 0.0
O161 O 0.5088 0.06615 0.61696 0.0
C162 C 0.41329 0.91349 0.50902 0.0
C163 C 0.60437 0.10494 0.50915 0.0
C164 C 0.60449 0.91366 0.50929 0.0
C165 C 0.41309 0.10481 0.50896 0.0
C166 C 0.50892 0.91367 0.41342 0.0
C167 C 0.50869 0.10493 0.60468 0.0
C168 C 0.50877 0.10486 0.41346 0.0
C169 C 0.50884 0.91359 0.60467 0.0
C170 C 0.41334 0.00911 0.41333 0.0
C171 C 0.60429 0.00927 0.6049 0.0
C172 C 0.41309 0.0091 0.60466 0.0
C173 C 0.60462 0.00942 0.41366 0.0
H174 H 0.45418 0.4547 0.95462 0.0
O175 O 0.47149 0.47198 0.97189 0.0
Tb176 Tb 0.43579 0.50925 0.00918 0.0
Tb177 Tb 0.50878 0.43623 0.00914 0.0
Tb178 Tb 0.50868 0.50928 0.9361 0.0
O179 O 0.47154 0.47196 0.04643 0.0
O180 O 0.47148 0.54654 0.97191 0.0
O181 O 0.47153 0.54653 0.04644 0.0
O182 O 0.54608 0.47198 0.04637 0.0
O183 O 0.54599 0.54654 0.97183 0.0
O184 O 0.54598 0.47199 0.97182 0.0
H185 H 0.45426 0.45466 0.06372 0.0
H186 H 0.45416 0.56384 0.95465 0.0
Tb187 Tb 0.50882 0.50925 0.08214 0.0
Tb188 Tb 0.50877 0.58229 0.00916 0.0
H189 H 0.45425 0.56381 0.06375 0.0
H190 H 0.56339 0.45471 0.06364 0.0
Tb191 Tb 0.58177 0.50924 0.00904 0.0
H192 H 0.56327 0.56383 0.95454 0.0
H193 H 0.56325 0.4547 0.95451 0.0
O194 O 0.54605 0.5465 0.04635 0.0
H195 H 0.56335 0.56378 0.06363 0.0
O196 O 0.40091 0.45243 0.00922 0.0
O197 O 0.61665 0.56606 0.00905 0.0
O198 O 0.61665 0.45239 0.00901 0.0
O199 O 0.4009 0.56605 0.00917 0.0
O200 O 0.50885 0.40136 0.95233 0.0
O201 O 0.5089 0.61714 0.06602 0.0
O202 O 0.50875 0.61718 0.95235 0.0
O203 O 0.50891 0.40137 0.06601 0.0
O204 O 0.4518 0.50932 0.9013 0.0
O205 O 0.56572 0.50938 0.11694 0.0
O206 O 0.45197 0.50918 0.11704 0.0
O207 O 0.56548 0.50929 0.90118 0.0
O208 O 0.45193 0.40136 0.00908 0.0
O209 O 0.56564 0.61714 0.00922 0.0
O210 O 0.45189 0.61714 0.00927 0.0
O211 O 0.56561 0.40136 0.00906 0.0
O212 O 0.40094 0.50926 0.06599 0.0
O213 O 0.61658 0.50919 0.95216 0.0
O214 O 0.6167 0.50924 0.06584 0.0
O215 O 0.40085 0.50923 0.95241 0.0
O216 O 0.50885 0.45245 0.11702 0.0
O217 O 0.50858 0.56616 0.90127 0.0
O218 O 0.50853 0.45238 0.90125 0.0
O219 O 0.5088 0.56606 0.11702 0.0
C220 C 0.41314 0.41364 0.00914 0.0
C221 C 0.60443 0.60486 0.00917 0.0
C222 C 0.6044 0.4136 0.00901 0.0
C223 C 0.4131 0.60485 0.00923 0.0
C224 C 0.50868 0.41359 0.91354 0.0
C225 C 0.50888 0.60486 0.1048 0.0
C226 C 0.50864 0.60495 0.91355 0.0
C227 C 0.50891 0.41365 0.1048 0.0
C228 C 0.41303 0.50928 0.9136 0.0
C229 C 0.6045 0.50935 0.10464 0.0
C230 C 0.41317 0.50921 0.10478 0.0
C231 C 0.60428 0.50922 0.91338 0.0
H232 H 0.00936 0.09491 0.18731 0.0
H233 H 1.00853 0.14763 0.23932 0.0
H234 H 1.00781 0.23972 0.1466 0.0
H235 H 1.00814 0.18743 0.09427 0.0
H236 H 0.0649 0.21005 0.2523 0.0
H237 H 0.91191 0.27183 0.21882 0.0
H238 H 0.92895 0.22343 0.19975 0.0
H239 H 0.94521 0.2696 0.17581 0.0
C240 C 0.00886 0.12634 0.17784 0.0
C241 C 0.0086 0.13681 0.13646 0.0
C242 C 1.00843 0.15643 0.20768 0.0
C243 C 1.00748 0.19753 0.1968 0.0
C244 C 1.00769 0.20815 0.15564 0.0
H245 H 1.00792 0.42386 0.33078 0.0
H246 H 0.0086 0.3712 0.27871 0.0
C247 C 1.00812 0.17813 0.12575 0.0
C248 C 1.00724 0.22931 0.22856 0.0
H249 H 0.95218 0.30876 0.26562 0.0
C250 C 0.04019 0.23153 0.25538 0.0
C251 C 0.97498 0.25732 0.23237 0.0
C252 C 0.93806 0.25534 0.20542 0.0
C253 C 0.0421 0.2615 0.28555 0.0
C254 C 0.00983 0.2895 0.28937 0.0
C255 C 0.97689 0.28728 0.26254 0.0
C256 C 0.00959 0.32124 0.32116 0.0
C257 C 0.07903 0.26347 0.31248 0.0
C258 C 0.0094 0.31058 0.36232 0.0
C259 C 0.00906 0.34056 0.39224 0.0
C260 C 0.00866 0.3819 0.38158 0.0
C261 C 1.00837 0.39241 0.34022 0.0
C262 C 0.00871 0.36236 0.31034 0.0
H263 H 0.10517 0.247 0.29907 0.0
H264 H 0.08813 0.29539 0.31816 0.0
H265 H 0.07189 0.24921 0.34209 0.0
H266 H 0.00924 0.279 0.37132 0.0
H267 H 0.00906 0.33122 0.42371 0.0
H268 H 0.92326 1.00743 0.18728 0.0
H269 H 0.87063 1.00688 0.23934 0.0
H270 H 0.77843 0.01141 0.14682 0.0
H271 H 0.83064 0.01147 0.09441 0.0
H272 H 0.81015 0.06451 0.25426 0.0
H273 H 0.74335 0.91475 0.21625 0.0
H274 H 0.79215 0.93084 0.19742 0.0
H275 H 0.74638 0.94926 0.17427 0.0
C276 C 0.89182 1.00816 0.17785 0.0
C277 C 0.8813 0.00927 0.1365 0.0
C278 C 0.86178 1.00788 0.20773 0.0
C279 C 0.82065 1.00848 0.19692 0.0
C280 C 0.80999 0.01007 0.15579 0.0
H281 H 0.5946 0.01147 0.3311 0.0
H282 H 0.6473 0.01228 0.27911 0.0
C283 C 0.83997 0.01032 0.12586 0.0
C284 C 0.78893 1.00831 0.22874 0.0
H285 H 0.70778 0.95476 0.26429 0.0
C286 C 0.78786 0.04044 0.25661 0.0
C287 C 0.75988 0.97689 0.23164 0.0
C288 C 0.76057 0.94077 0.20356 0.0
C289 C 0.75804 0.04239 0.28692 0.0
C290 C 0.72898 0.01097 0.2898 0.0
C291 C 0.73006 0.97883 0.26193 0.0
C292 C 0.69723 0.01079 0.32159 0.0
C293 C 0.75736 0.0785 0.31501 0.0
C294 C 0.70784 0.00919 0.36273 0.0
C295 C 0.67782 0.00879 0.39262 0.0
C296 C 0.6365 0.00969 0.38193 0.0
C297 C 0.62604 0.01084 0.34057 0.0
C298 C 0.65612 0.01127 0.31073 0.0
H299 H 0.77458 0.10452 0.30232 0.0
H300 H 0.72578 0.08843 0.32116 0.0
H301 H 0.77155 0.07 0.34429 0.0
H302 H 0.73939 1.00793 0.37174 0.0
H303 H 0.68712 1.00763 0.42408 0.0
H304 H 0.01204 0.9237 0.1872 0.0
H305 H 0.0127 0.87108 0.23928 0.0
H306 H 1.00553 0.77892 0.14688 0.0
H307 H 1.00537 0.83111 0.09445 0.0
H308 H 0.95459 0.81151 0.25519 0.0
H309 H 0.10264 0.74238 0.2148 0.0
H310 H 0.08695 0.79136 0.19611 0.0
H311 H 0.06748 0.74581 0.17339 0.0
C312 C 0.01074 0.89227 0.1778 0.0
C313 C 0.00887 0.88175 0.13648 0.0
C314 C 0.01109 0.86223 0.20769 0.0
C315 C 0.0098 0.82111 0.19692 0.0
C316 C 1.00743 0.81046 0.15582 0.0
H317 H 1.00548 0.59515 0.33119 0.0
H318 H 1.00476 0.64788 0.27923 0.0
C319 C 1.00713 0.84044 0.12588 0.0
C320 C 0.01001 0.7894 0.22876 0.0
H321 H 0.06287 0.70743 0.26349 0.0
C322 C 0.97834 0.78885 0.25717 0.0
C323 C 0.04102 0.75986 0.23116 0.0
C324 C 0.07667 0.75995 0.20249 0.0
C325 C 0.97644 0.75908 0.28753 0.0
C326 C 1.00744 0.72953 0.28992 0.0
C327 C 0.03911 0.73009 0.26152 0.0
C328 C 1.00762 0.69776 0.3217 0.0
C329 C 0.94079 0.75899 0.31621 0.0
C330 C 0.00999 0.70833 0.36282 0.0
C331 C 0.01033 0.67829 0.3927 0.0
C332 C 0.00862 0.63699 0.382 0.0
C333 C 1.00675 0.62656 0.34066 0.0
C334 C 1.00636 0.65667 0.31084 0.0
H335 H 0.91484 0.77661 0.30393 0.0
H336 H 0.93048 0.72758 0.32256 0.0
H337 H 0.95 0.77308 0.34533 0.0
H338 H 0.01187 0.73985 0.37182 0.0
H339 H 0.01209 0.68754 0.42414 0.0
H340 H 0.33078 1.00633 0.42325 0.0
H341 H 0.27882 1.00564 0.3705 0.0
H342 H 0.37149 0.01165 0.27856 0.0
H343 H 0.4238 0.01185 0.33087 0.0
H344 H 0.26355 0.06359 0.31054 0.0
H345 H 0.30294 0.91477 0.24243 0.0
H346 H 0.3216 0.93059 0.29139 0.0
H347 H 0.3446 0.94964 0.24582 0.0
C348 C 0.34026 1.00736 0.39184 0.0
C349 C 0.38162 0.00893 0.38142 0.0
C350 C 0.31045 1.00699 0.36173 0.0
C351 C 0.32133 1.00796 0.32064 0.0
C352 C 0.36247 0.01 0.31008 0.0
H353 H 0.18696 0.01199 0.09462 0.0
H354 H 0.23905 0.01264 0.14724 0.0
C355 C 0.39234 0.01034 0.34013 0.0
C356 C 0.28956 1.0078 0.28886 0.0
H357 H 0.25451 0.95465 0.20722 0.0
C358 C 0.26142 0.0397 0.28804 0.0
C359 C 0.28697 0.97661 0.25952 0.0
C360 C 0.31538 0.94074 0.2599 0.0
C361 C 0.23111 0.04164 0.25823 0.0
C362 C 0.2285 0.01044 0.22891 0.0
C363 C 0.25665 0.97855 0.22971 0.0
C364 C 0.19667 0.01024 0.1972 0.0
C365 C 0.20271 0.07751 0.25784 0.0
C366 C 0.15555 1.00816 0.20785 0.0
C367 C 0.12561 1.00785 0.17788 0.0
C368 C 0.13622 0.00932 0.13657 0.0
C369 C 0.17756 0.01091 0.12605 0.0
C370 C 0.20745 0.01126 0.15609 0.0
H371 H 0.21517 0.1035 0.27529 0.0
H372 H 0.19647 0.08764 0.22635 0.0
H373 H 0.1735 0.06863 0.27196 0.0
H374 H 0.14661 1.00648 0.2394 0.0
H375 H 0.09417 1.00631 0.18721 0.0
H376 H 0.00887 0.83109 0.92358 0.0
H377 H 0.00954 0.77899 0.87097 0.0
H378 H 0.00863 0.87155 0.77873 0.0
H379 H 1.00845 0.92399 0.83092 0.0
H380 H 0.95273 0.76535 0.80912 0.0
H381 H 0.10485 0.80006 0.74596 0.0
H382 H 0.08807 0.81909 0.79444 0.0
H383 H 0.07119 0.84278 0.74837 0.0
C384 C 0.00897 0.84052 0.89214 0.0
C385 C 0.00882 0.88188 0.8816 0.0
C386 C 0.00931 0.81062 0.86211 0.0
C387 C 0.00975 0.82142 0.821 0.0
C388 C 0.00914 0.86257 0.8103 0.0
H389 H 0.00878 0.68727 0.59495 0.0
H390 H 1.00798 0.73929 0.64764 0.0
C391 C 0.0088 0.89252 0.84027 0.0
C392 C 0.00999 0.78959 0.78929 0.0
H393 H 0.06471 0.75281 0.70949 0.0
C394 C 0.97728 0.76244 0.78743 0.0
C395 C 0.04204 0.78598 0.76104 0.0
C396 C 0.07873 0.81326 0.76263 0.0
C397 C 0.9754 0.73216 0.75757 0.0
C398 C 1.00745 0.72857 0.7293 0.0
C399 C 0.04016 0.75571 0.73118 0.0
C400 C 1.00768 0.69678 0.69756 0.0
C401 C 0.93871 0.70487 0.75599 0.0
C402 C 1.00829 0.65561 0.70819 0.0
C403 C 0.0087 0.62571 0.67817 0.0
C404 C 0.00878 0.63642 0.63686 0.0
C405 C 0.00862 0.6778 0.62638 0.0
C406 C 1.0082 0.70765 0.65646 0.0
H407 H 0.91259 0.71806 0.77267 0.0
H408 H 0.92937 0.69904 0.72417 0.0
H409 H 0.94627 0.67535 0.77024 0.0
H410 H 0.00874 0.64659 0.73975 0.0
H411 H 0.00905 0.59423 0.68748 0.0
H412 H 0.18691 0.01251 0.92337 0.0
H413 H 0.23889 0.01305 0.87063 0.0
H414 H 0.14627 1.00566 0.77872 0.0
H415 H 0.09396 1.0056 0.83101 0.0
H416 H 0.25464 0.9548 0.81109 0.0
H417 H 0.21403 0.10275 0.74185 0.0
H418 H 0.19549 0.08715 0.79092 0.0
H419 H 0.17263 0.0676 0.74548 0.0
C420 C 0.17745 0.01113 0.89197 0.0
C421 C 0.1361 0.00925 0.88155 0.0
C422 C 0.20727 0.01142 0.86186 0.0
C423 C 0.1964 0.01004 0.82078 0.0
C424 C 0.15528 1.00764 0.81023 0.0
H425 H 0.33056 1.00566 0.59461 0.0
H426 H 0.27852 1.00486 0.64728 0.0
C427 C 0.12541 1.0074 0.84027 0.0
C428 C 0.22816 0.0102 0.78898 0.0
H429 H 0.26265 0.06294 0.70685 0.0
C430 C 0.25655 0.97852 0.78839 0.0
C431 C 0.23046 0.04116 0.75939 0.0
C432 C 0.20178 0.07681 0.75951 0.0
C433 C 0.28683 0.97657 0.75854 0.0
C434 C 0.28914 1.00753 0.72895 0.0
C435 C 0.26074 0.03921 0.72954 0.0
C436 C 0.32094 1.00775 0.6972 0.0
C437 C 0.31551 0.94091 0.75842 0.0
C438 C 0.36205 0.01015 0.70781 0.0
C439 C 0.39195 0.01055 0.67781 0.0
C440 C 0.38131 0.00885 0.63651 0.0
C441 C 0.33998 1.00693 0.62603 0.0
C442 C 0.31012 1.00649 0.6561 0.0
H443 H 0.30322 0.91495 0.77602 0.0
H444 H 0.32185 0.93062 0.72701 0.0
H445 H 0.34463 0.95011 0.77252 0.0
H446 H 0.37102 0.01204 0.73934 0.0
H447 H 0.42339 0.01235 0.68711 0.0
H448 H 0.0126 0.42333 0.68704 0.0
H449 H 0.0134 0.37059 0.739 0.0
H450 H 1.00545 0.27866 0.64643 0.0
H451 H 1.00514 0.33097 0.59412 0.0
H452 H 0.95509 0.31131 0.75497 0.0
H453 H 0.10262 0.24145 0.71388 0.0
H454 H 0.08712 0.29055 0.69532 0.0
H455 H 0.06729 0.24514 0.67263 0.0
C456 C 0.01116 0.39192 0.67758 0.0
C457 C 0.00902 0.3815 0.63625 0.0
C458 C 0.0116 0.36181 0.7074 0.0
C459 C 0.01012 0.32072 0.69654 0.0
C460 C 1.00751 0.31017 0.65543 0.0
H461 H 1.00519 0.09482 0.83103 0.0
H462 H 1.00459 0.14743 0.77894 0.0
C463 C 1.00711 0.34022 0.62556 0.0
C464 C 0.01031 0.28896 0.72831 0.0
H465 H 0.06292 0.20672 0.76278 0.0
C466 C 0.97875 0.28854 0.75684 0.0
C467 C 0.04118 0.25926 0.73055 0.0
C468 C 0.07669 0.25918 0.70171 0.0
C469 C 0.97683 0.25877 0.78719 0.0
C470 C 1.00771 0.22909 0.78945 0.0
C471 C 0.03926 0.22949 0.76091 0.0
C472 C 1.00791 0.19739 0.82129 0.0
C473 C 0.94129 0.25884 0.816 0.0
C474 C 0.01049 0.20804 0.86237 0.0
C475 C 0.01077 0.17807 0.89232 0.0
C476 C 0.00877 0.13676 0.88173 0.0
C477 C 1.00669 0.12625 0.84042 0.0
C478 C 1.00637 0.15628 0.81052 0.0
H479 H 0.91535 0.27653 0.8038 0.0
H480 H 0.9309 0.22747 0.82242 0.0
H481 H 0.95067 0.27292 0.84507 0.0
H482 H 0.01259 0.23957 0.8713 0.0
H483 H 0.0127 0.18739 0.92374 0.0
H484 H 0.68679 1.00537 0.59498 0.0
H485 H 0.73877 1.00474 0.64771 0.0
H486 H 0.64622 0.01305 0.7396 0.0
H487 H 0.5939 0.01321 0.6873 0.0
H488 H 0.75476 0.06326 0.70692 0.0
H489 H 0.71361 0.91582 0.77693 0.0
H490 H 0.69512 0.93124 0.72779 0.0
H491 H 0.67236 0.95115 0.77312 0.0
C492 C 0.67734 1.00693 0.62637 0.0
C493 C 0.63601 0.00912 0.63679 0.0
C494 C 0.70717 1.00658 0.65648 0.0
C495 C 0.69631 1.00821 0.69755 0.0
C496 C 0.65521 0.01089 0.7081 0.0
H497 H 0.83066 0.01325 0.92353 0.0
H498 H 0.7786 0.01392 0.87088 0.0
C499 C 0.62533 0.01119 0.67806 0.0
C500 C 0.72809 1.00807 0.72932 0.0
H501 H 0.76249 0.95558 0.81164 0.0
C502 C 0.75661 0.03964 0.72972 0.0
C503 C 0.7303 0.97724 0.75905 0.0
C504 C 0.70147 0.94172 0.75914 0.0
C505 C 0.78694 0.0416 0.75952 0.0
C506 C 0.78917 0.01076 0.78924 0.0
C507 C 0.76064 0.9792 0.78885 0.0
C508 C 0.82099 0.01059 0.82097 0.0
C509 C 0.81576 0.07714 0.75944 0.0
C510 C 0.86208 1.00799 0.81036 0.0
C511 C 0.892 1.00768 0.84035 0.0
C512 C 0.88139 0.00965 0.88163 0.0
C513 C 0.84007 0.01177 0.89212 0.0
C514 C 0.81019 0.01213 0.86206 0.0
H515 H 0.80356 0.10307 0.74173 0.0
H516 H 0.82217 0.08757 0.7908 0.0
H517 H 0.84483 0.06776 0.74537 0.0
H518 H 0.87102 1.00589 0.77884 0.0
H519 H 0.92343 1.00572 0.83105 0.0
H520 H 0.42318 0.33114 1.0052 0.0
H521 H 0.37051 0.2791 1.00455 0.0
H522 H 0.27849 0.37153 0.01293 0.0
H523 H 0.33072 0.42393 0.0131 0.0
H524 H 0.3113 0.26297 0.06303 0.0
H525 H 0.24128 0.30419 0.91563 0.0
H526 H 0.2904 0.32271 0.93108 0.0
H527 H 0.24503 0.34542 0.95098 0.0
C528 C 0.39176 0.34055 1.00678 0.0
C529 C 0.38129 0.38187 0.00899 0.0
C530 C 0.3617 0.31069 1.00642 0.0
C531 C 0.32061 0.32149 1.00806 0.0
C532 C 0.31 0.36259 0.01076 0.0
H533 H 0.09463 0.18726 0.01301 0.0
H534 H 0.14735 0.23925 0.0137 0.0
C535 C 0.34 0.3925 0.01107 0.0
C536 C 0.28888 0.28969 1.00787 0.0
H537 H 0.20656 0.2553 0.95535 0.0
C538 C 0.2885 0.26113 0.03941 0.0
C539 C 0.25915 0.28747 0.97704 0.0
C540 C 0.25905 0.31633 0.94154 0.0
C541 C 0.25871 0.23079 0.04135 0.0
C542 C 0.22897 0.22858 0.01052 0.0
C543 C 0.22936 0.25714 0.97898 0.0
C544 C 0.19721 0.1968 0.01035 0.0
C545 C 0.25881 0.20194 0.07685 0.0
C546 C 0.20778 0.15569 1.00772 0.0
C547 C 0.17775 0.12581 1.00739 0.0
C548 C 0.13647 0.13648 0.00938 0.0
C549 C 0.12604 0.17781 0.01152 0.0
C550 C 0.15613 0.20765 0.0119 0.0
H551 H 0.27656 0.2141 0.10277 0.0
H552 H 0.22745 0.19554 0.0873 0.0
H553 H 0.27285 0.17286 0.06744 0.0
H554 H 0.23929 0.14671 1.00561 0.0
H555 H 0.18701 0.09437 1.00541 0.0
H556 H 0.42304 0.68739 0.01258 0.0
H557 H 0.37028 0.73936 0.01316 0.0
H558 H 0.27837 0.64673 1.00583 0.0
H559 H 0.33068 0.59442 1.00574 0.0
H560 H 0.31071 0.75503 0.9549 0.0
H561 H 0.24154 0.71457 0.1029 0.0
H562 H 0.29062 0.69603 0.0873 0.0
H563 H 0.24518 0.67314 0.06778 0.0
C564 C 0.39163 0.67792 0.01123 0.0
C565 C 0.38121 0.63657 0.00935 0.0
C566 C 0.36152 0.70774 0.01154 0.0
C567 C 0.32043 0.69686 0.01018 0.0
C568 C 0.30989 0.65574 1.00779 0.0
H569 H 0.09426 0.83102 1.00561 0.0
H570 H 0.14693 0.77896 1.00489 0.0
C571 C 0.33993 0.62587 1.00753 0.0
C572 C 0.28864 0.72861 0.01033 0.0
H573 H 0.20652 0.76316 0.06305 0.0
C574 C 0.28803 0.75697 0.97863 0.0
C575 C 0.25905 0.73095 0.0413 0.0
C576 C 0.2592 0.7023 0.07697 0.0
C577 C 0.25818 0.78724 0.97666 0.0
C578 C 0.2286 0.78959 1.00763 0.0
C579 C 0.2292 0.76122 0.03932 0.0
C580 C 0.19685 0.82138 1.00782 0.0
C581 C 0.25803 0.81589 0.94099 0.0
C582 C 0.20747 0.86249 0.01023 0.0
C583 C 0.17747 0.8924 0.01058 0.0
C584 C 0.13617 0.88176 0.00883 0.0
C585 C 0.12568 0.84043 1.00691 0.0
C586 C 0.15575 0.81057 1.00652 0.0
H587 H 0.27564 0.80359 0.91504 0.0
H588 H 0.22661 0.82221 0.93068 0.0
H589 H 0.27211 0.84504 0.95016 0.0
H590 H 0.239 0.87145 0.01215 0.0
H591 H 0.18677 0.92383 0.01238 0.0
H592 H 0.68697 0.42378 0.00953 0.0
H593 H 0.73909 0.37118 0.0089 0.0
H594 H 0.64656 0.27888 1.00833 0.0
H595 H 0.5941 0.33106 1.00848 0.0
H596 H 0.75219 0.30889 0.06544 0.0
H597 H 0.71897 0.24684 0.91252 0.0
H598 H 0.6998 0.29522 0.92947 0.0
H599 H 0.67592 0.24904 0.94577 0.0
C600 C 0.67755 0.39233 0.00911 0.0
C601 C 0.63619 0.38177 0.00885 0.0
C602 C 0.70746 0.3623 0.00879 0.0
C603 C 0.69668 0.32118 1.00796 0.0
C604 C 0.65553 0.31047 1.00814 0.0
H605 H 0.83075 0.09509 0.00869 0.0
H606 H 0.77875 0.14779 0.00938 0.0
C607 C 0.62557 0.34043 1.00846 0.0
C608 C 0.72852 0.28949 1.0078 0.0
H609 H 0.76582 0.21007 0.95285 0.0
C610 C 0.75534 0.28738 0.04076 0.0
C611 C 0.73244 0.26146 0.97557 0.0
C612 C 0.70552 0.26333 0.93862 0.0
C613 C 0.78558 0.25749 0.04272 0.0
C614 C 0.78948 0.22946 0.0105 0.0
C615 C 0.76268 0.23158 0.97753 0.0
C616 C 0.82126 0.1977 0.01036 0.0
C617 C 0.81252 0.25563 0.07966 0.0
C618 C 0.86243 0.20833 0.01018 0.0
C619 C 0.89233 0.1783 0.00983 0.0
C620 C 0.88161 0.13698 0.0094 0.0
C621 C 0.84023 0.12652 0.00914 0.0
C622 C 0.81039 0.1566 0.00949 0.0
H623 H 0.7991 0.27217 0.10575 0.0
H624 H 0.81821 0.22374 0.08884 0.0
H625 H 0.84213 0.26989 0.07249 0.0
H626 H 0.87147 0.2399 0.01001 0.0
H627 H 0.92381 0.1876 0.00981 0.0
H628 H 0.92298 0.83125 1.00591 0.0
H629 H 0.87026 0.77925 1.00538 0.0
H630 H 0.77827 0.87184 0.01236 0.0
H631 H 0.83055 0.92419 0.0124 0.0
H632 H 0.81061 0.76365 0.06359 0.0
H633 H 0.7417 0.80372 0.91534 0.0
H634 H 0.79073 0.82232 0.931 0.0
H635 H 0.74524 0.84522 0.95038 0.0
C636 C 0.89156 0.84071 1.00719 0.0
C637 C 0.88112 0.88206 0.00897 0.0
C638 C 0.86147 0.81087 1.00691 0.0
C639 C 0.82038 0.82172 1.00819 0.0
C640 C 0.8098 0.86285 0.01047 0.0
H641 H 0.59437 0.68739 0.01236 0.0
H642 H 0.64703 0.73943 0.01316 0.0
C643 C 0.83982 0.89274 0.0107 0.0
C644 C 0.78862 0.78993 1.00805 0.0
H645 H 0.7067 0.75512 0.95517 0.0
C646 C 0.78799 0.76163 0.03981 0.0
C647 C 0.75912 0.78747 0.97701 0.0
C648 C 0.7593 0.81605 0.94128 0.0
C649 C 0.75819 0.7313 0.04176 0.0
C650 C 0.7287 0.72884 0.01071 0.0
C651 C 0.72932 0.75715 0.97896 0.0
C652 C 0.69697 0.69702 0.01051 0.0
C653 C 0.75801 0.70272 0.07748 0.0
C654 C 0.70759 0.6559 1.00825 0.0
C655 C 0.67759 0.62598 1.00785 0.0
C656 C 0.63628 0.63662 0.00941 0.0
C657 C 0.62579 0.67796 0.0112 0.0
C658 C 0.65585 0.70783 0.01164 0.0
H659 H 0.77555 0.71509 0.10345 0.0
H660 H 0.72658 0.69638 0.08772 0.0
H661 H 0.77215 0.67357 0.06841 0.0
H662 H 0.73913 0.64694 1.00647 0.0
H663 H 0.6869 0.59454 1.00617 0.0
H664 H 0.59395 0.51238 0.83092 0.0
H665 H 0.64634 0.51226 0.77869 0.0
H666 H 0.73886 0.50553 0.87076 0.0
H667 H 0.68682 0.50614 0.92342 0.0
H668 H 0.75449 0.56362 0.81108 0.0
H669 H 0.71455 0.41529 0.74225 0.0
H670 H 0.67302 0.45032 0.74569 0.0
H671 H 0.69587 0.43099 0.79123 0.0
C672 C 0.6254 0.51072 0.84022 0.0
C673 C 0.63604 0.50909 0.88152 0.0
C674 C 0.65531 0.51044 0.81022 0.0
C675 C 0.69643 0.50821 0.82084 0.0
C676 C 0.70725 0.50702 0.86194 0.0
H677 H 0.92364 0.50645 0.68735 0.0
H678 H 0.87128 0.50666 0.7396 0.0
C679 C 0.67739 0.50735 0.892 0.0
C680 C 0.72825 0.50805 0.7891 0.0
H681 H 0.76311 0.45516 0.70723 0.0
C682 C 0.75654 0.53983 0.78847 0.0
C683 C 0.73073 0.477 0.75962 0.0
C684 C 0.70218 0.44125 0.7598 0.0
C685 C 0.78687 0.54179 0.75868 0.0
C686 C 0.78936 0.51073 0.7292 0.0
C687 C 0.76107 0.47895 0.72984 0.0
C688 C 0.82116 0.51056 0.69746 0.0
C689 C 0.81542 0.57755 0.7585 0.0
C690 C 0.81033 0.51164 0.65636 0.0
C691 C 0.84018 0.51124 0.62629 0.0
C692 C 0.88153 0.50956 0.63676 0.0
C693 C 0.89219 0.50805 0.67806 0.0
C694 C 0.86229 0.5084 0.70807 0.0
H695 H 0.80302 0.60351 0.77601 0.0
H696 H 0.84456 0.5685 0.77266 0.0
H697 H 0.82177 0.58778 0.72707 0.0
H698 H 0.77872 0.51308 0.64754 0.0
H699 H 0.83074 0.51235 0.59487 0.0
H700 H 0.18705 0.51041 0.5943 0.0
H701 H 0.23928 0.51017 0.64671 0.0
H702 H 0.1471 0.50626 0.73925 0.0
H703 H 0.09445 0.50698 0.6872 0.0
H704 H 0.20777 0.56384 0.75382 0.0
H705 H 0.27406 0.41364 0.71662 0.0
H706 H 0.27107 0.44796 0.67446 0.0
H707 H 0.22529 0.42978 0.69775 0.0
C708 C 0.17772 0.50936 0.62576 0.0
C709 C 0.1364 0.50856 0.63641 0.0
C710 C 0.20772 0.50899 0.65568 0.0
C711 C 0.19706 0.50754 0.69682 0.0
C712 C 0.15595 0.50715 0.70764 0.0
H713 H 0.33053 0.50743 0.924 0.0
H714 H 0.27828 0.50743 0.87162 0.0
C715 C 0.12589 0.50754 0.67777 0.0
C716 C 0.22878 0.50742 0.72864 0.0
H717 H 0.30974 0.45377 0.7645 0.0
C718 C 0.22996 0.5397 0.75632 0.0
C719 C 0.25771 0.4759 0.7317 0.0
C720 C 0.2569 0.43964 0.70381 0.0
C721 C 0.25979 0.5417 0.78662 0.0
C722 C 0.28872 0.51019 0.78969 0.0
C723 C 0.28754 0.4779 0.762 0.0
C724 C 0.32046 0.5101 0.82148 0.0
C725 C 0.2606 0.57797 0.81451 0.0
C726 C 0.36157 0.51057 0.81064 0.0
C727 C 0.39164 0.51032 0.8405 0.0
C728 C 0.38115 0.50936 0.88186 0.0
C729 C 0.33984 0.50845 0.89254 0.0
C730 C 0.30983 0.50867 0.86263 0.0
H731 H 0.24341 0.60396 0.80172 0.0
H732 H 0.24646 0.56964 0.84387 0.0
H733 H 0.29221 0.58785 0.82054 0.0
H734 H 0.37039 0.51144 0.77902 0.0
H735 H 0.42307 0.51094 0.83105 0.0
H736 H 0.18685 0.50699 0.42382 0.0
H737 H 0.2391 0.50721 0.37147 0.0
H738 H 0.14701 0.51231 0.27887 0.0
H739 H 0.09432 0.51159 0.33089 0.0
H740 H 0.20733 0.45463 0.26379 0.0
H741 H 0.2746 0.604 0.30248 0.0
H742 H 0.27144 0.56933 0.34433 0.0
H743 H 0.22574 0.58798 0.32122 0.0
C744 C 0.17754 0.5083 0.39236 0.0
C745 C 0.13623 0.50945 0.38169 0.0
C746 C 0.20755 0.50865 0.36247 0.0
C747 C 0.19694 0.51046 0.32133 0.0
C748 C 0.15583 0.51116 0.31049 0.0
H749 H 0.33069 0.51164 0.09438 0.0
H750 H 0.27842 0.51149 0.14671 0.0
C751 C 0.12575 0.51077 0.34034 0.0
C752 C 0.22871 0.51065 0.28956 0.0
H753 H 0.31016 0.56401 0.25439 0.0
C754 C 0.22971 0.47862 0.26157 0.0
C755 C 0.25789 0.54197 0.28685 0.0
C756 C 0.25729 0.57798 0.31506 0.0
C757 C 0.25959 0.47667 0.23133 0.0
C758 C 0.28878 0.50798 0.22862 0.0
C759 C 0.28777 0.54002 0.25661 0.0
C760 C 0.32056 0.50816 0.19686 0.0
C761 C 0.26018 0.44066 0.2031 0.0
C762 C 0.36167 0.50738 0.20772 0.0
C763 C 0.39176 0.50772 0.17789 0.0
C764 C 0.3813 0.50907 0.13653 0.0
C765 C 0.33999 0.5103 0.12584 0.0
C766 C 0.30996 0.51 0.15572 0.0
H767 H 0.24284 0.41466 0.21566 0.0
H768 H 0.24608 0.44934 0.17382 0.0
H769 H 0.29173 0.43064 0.19698 0.0
H770 H 0.37047 0.5062 0.23935 0.0
H771 H 0.42319 0.50684 0.18735 0.0
H772 H 0.59452 0.5141 0.18708 0.0
H773 H 0.6472 0.51496 0.2391 0.0
H774 H 0.73915 0.50524 0.14675 0.0
H775 H 0.6869 0.50487 0.09437 0.0
H776 H 0.70587 0.4564 0.25587 0.0
H777 H 0.77721 0.60273 0.21312 0.0
H778 H 0.72801 0.58747 0.19463 0.0
H779 H 0.77329 0.56697 0.17227 0.0
C780 C 0.62592 0.51227 0.17768 0.0
C781 C 0.63637 0.50962 0.13639 0.0
C782 C 0.65599 0.51276 0.20753 0.0
C783 C 0.69708 0.51081 0.19675 0.0
C784 C 0.70765 0.50768 0.15568 0.0
H785 H 0.92297 0.50503 0.33116 0.0
H786 H 0.87026 0.50447 0.27915 0.0
C787 C 0.67764 0.50725 0.12578 0.0
C788 C 0.72881 0.51106 0.22856 0.0
H789 H 0.8116 0.56319 0.26242 0.0
C790 C 0.72889 0.47984 0.25746 0.0
C791 C 0.75883 0.54164 0.23045 0.0
C792 C 0.75927 0.57683 0.20121 0.0
C793 C 0.75864 0.47795 0.28784 0.0
C794 C 0.78866 0.50853 0.28973 0.0
C795 C 0.78858 0.53976 0.26083 0.0
C796 C 0.82042 0.50873 0.32153 0.0
C797 C 0.7582 0.44276 0.31707 0.0
C798 C 0.80987 0.51184 0.3626 0.0
C799 C 0.83989 0.51208 0.3925 0.0
C800 C 0.88115 0.50954 0.38187 0.0
C801 C 0.89158 0.50696 0.34057 0.0
C802 C 0.86149 0.50666 0.31073 0.0
H803 H 0.74022 0.41687 0.30518 0.0
H804 H 0.78945 0.43209 0.32362 0.0
H805 H 0.74422 0.45263 0.34603 0.0
H806 H 0.77838 0.51436 0.37155 0.0
H807 H 0.83065 0.51443 0.42391 0.0
H808 H 0.33076 0.92336 0.51266 0.0
H809 H 0.27883 0.87056 0.51328 0.0
H810 H 0.3715 0.77872 0.50541 0.0
H811 H 0.42377 0.83107 0.50526 0.0
H812 H 0.26296 0.81115 0.45495 0.0
H813 H 0.30406 0.74157 0.60259 0.0
H814 H 0.32252 0.79069 0.58706 0.0
H815 H 0.34534 0.74531 0.56731 0.0
C816 C 0.34024 0.89196 0.51119 0.0
C817 C 0.38159 0.88157 0.50913 0.0
C818 C 0.31045 0.86182 0.51153 0.0
C819 C 0.32135 0.82074 0.51003 0.0
C820 C 0.36247 0.81023 0.50748 0.0
H821 H 0.18709 0.59458 0.50539 0.0
H822 H 0.23918 0.64722 0.5046 0.0
C823 C 0.39232 0.8403 0.50718 0.0
C824 C 0.28962 0.78893 0.51021 0.0
H825 H 0.25529 0.70666 0.56286 0.0
C826 C 0.26113 0.7884 0.47862 0.0
C827 C 0.28742 0.75926 0.5411 0.0
C828 C 0.31621 0.7593 0.57666 0.0
C829 C 0.23085 0.75856 0.47669 0.0
C830 C 0.22863 0.7289 0.5076 0.0
C831 C 0.25713 0.72941 0.53918 0.0
C832 C 0.19681 0.69717 0.50785 0.0
C833 C 0.20205 0.75851 0.44114 0.0
C834 C 0.15573 0.70781 0.51046 0.0
C835 C 0.12579 0.67783 0.51085 0.0
C836 C 0.13639 0.63653 0.50894 0.0
C837 C 0.1777 0.62601 0.50683 0.0
C838 C 0.20759 0.65606 0.50639 0.0
H839 H 0.21424 0.77618 0.41518 0.0
H840 H 0.19568 0.72712 0.43079 0.0
H841 H 0.17295 0.77257 0.45046 0.0
H842 H 0.1468 0.73935 0.5125 0.0
H843 H 0.09438 0.68716 0.5128 0.0
H844 H 0.09367 0.33091 0.50648 0.0
H845 H 0.14597 0.27858 0.50671 0.0
H846 H 0.23867 0.37055 0.51223 0.0
H847 H 0.18672 0.4233 0.51152 0.0
H848 H 0.25366 0.31033 0.45433 0.0
H849 H 0.21491 0.24284 0.60357 0.0
H850 H 0.1731 0.24618 0.56886 0.0
H851 H 0.19627 0.29178 0.58767 0.0
C852 C 0.12514 0.34016 0.50788 0.0
C853 C 0.13586 0.38146 0.50915 0.0
C854 C 0.155 0.31011 0.50824 0.0
C855 C 0.19615 0.32068 0.51015 0.0
C856 C 0.20704 0.36177 0.51098 0.0
H857 H 0.42333 0.18732 0.51144 0.0
H858 H 0.37088 0.23949 0.51128 0.0
C859 C 0.17723 0.39189 0.51059 0.0
C860 C 0.22791 0.2889 0.51032 0.0
H861 H 0.26322 0.2075 0.56367 0.0
C862 C 0.25591 0.28795 0.47831 0.0
C863 C 0.23065 0.25971 0.54162 0.0
C864 C 0.20239 0.26024 0.57759 0.0
C865 C 0.28622 0.25813 0.47637 0.0
C866 C 0.28898 0.22895 0.50769 0.0
C867 C 0.26096 0.22989 0.53969 0.0
C868 C 0.32082 0.19725 0.50789 0.0
C869 C 0.31446 0.25759 0.44039 0.0
C870 C 0.31004 0.15612 0.50707 0.0
C871 C 0.33995 0.1261 0.50741 0.0
C872 C 0.38129 0.13664 0.5088 0.0
C873 C 0.39189 0.17797 0.51007 0.0
C874 C 0.36194 0.20793 0.50976 0.0
H875 H 0.30188 0.27491 0.41438 0.0
H876 H 0.34371 0.27174 0.44908 0.0
H877 H 0.32065 0.22605 0.43037 0.0
H878 H 0.27844 0.14726 0.50585 0.0
H879 H 0.33055 0.09465 0.50649 0.0
H880 H 0.8309 0.59524 0.50534 0.0
H881 H 0.77895 0.648 0.50475 0.0
H882 H 0.87153 0.73986 0.51332 0.0
H883 H 0.92384 0.68753 0.51344 0.0
H884 H 0.76283 0.70707 0.56326 0.0
H885 H 0.80437 0.77742 0.4161 0.0
H886 H 0.82287 0.72826 0.43148 0.0
H887 H 0.84552 0.77359 0.45153 0.0
C888 C 0.84036 0.62664 0.50698 0.0
C889 C 0.8817 0.63704 0.50922 0.0
C890 C 0.81055 0.65676 0.50665 0.0
C891 C 0.82142 0.69783 0.50835 0.0
C892 C 0.86253 0.70836 0.51109 0.0
H893 H 0.68696 0.92377 0.5134 0.0
H894 H 0.73905 0.87115 0.51418 0.0
C895 C 0.8924 0.67831 0.51137 0.0
C896 C 0.78966 0.72961 0.50821 0.0
H897 H 0.75538 0.81204 0.45579 0.0
C898 C 0.76105 0.72993 0.53968 0.0
C899 C 0.78752 0.75941 0.47744 0.0
C900 C 0.81646 0.75959 0.442 0.0
C901 C 0.7307 0.75971 0.54162 0.0
C902 C 0.72854 0.7895 0.51084 0.0
C903 C 0.75717 0.78919 0.47937 0.0
C904 C 0.69671 0.8212 0.51063 0.0
C905 C 0.70176 0.75953 0.57706 0.0
C906 C 0.65563 0.81056 0.50786 0.0
C907 C 0.62569 0.84054 0.50748 0.0
C908 C 0.63628 0.88184 0.50954 0.0
C909 C 0.67758 0.89235 0.51182 0.0
C910 C 0.70747 0.86231 0.51226 0.0
H911 H 0.71389 0.74177 0.60298 0.0
H912 H 0.69528 0.79086 0.58752 0.0
H913 H 0.67273 0.74544 0.56755 0.0
H914 H 0.64671 0.77903 0.50568 0.0
H915 H 0.59428 0.83122 0.50539 0.0
H916 H 0.59419 0.1875 0.50757 0.0
H917 H 0.64678 0.23961 0.50677 0.0
H918 H 0.73906 0.14712 0.51031 0.0
H919 H 0.68689 0.09467 0.51061 0.0
H920 H 0.7076 0.25431 0.56404 0.0
H921 H 0.7735 0.21698 0.41373 0.0
H922 H 0.72481 0.19804 0.43005 0.0
H923 H 0.77071 0.17484 0.44807 0.0
C924 C 0.62564 0.17809 0.50803 0.0
C925 C 0.63619 0.13674 0.50894 0.0
C926 C 0.65566 0.208 0.5076 0.0
C927 C 0.69679 0.19721 0.50785 0.0
C928 C 0.70749 0.15607 0.50924 0.0
H929 H 0.92285 0.33129 0.51079 0.0
H930 H 0.87011 0.27932 0.51138 0.0
C931 C 0.67753 0.12612 0.50964 0.0
C932 C 0.72849 0.22905 0.50761 0.0
H933 H 0.80934 0.26484 0.45378 0.0
C934 C 0.72974 0.25678 0.53985 0.0
C935 C 0.75735 0.23208 0.47603 0.0
C936 C 0.75645 0.20416 0.4398 0.0
C937 C 0.75957 0.28707 0.54177 0.0
C938 C 0.78845 0.29009 0.51021 0.0
C939 C 0.78719 0.26238 0.47795 0.0
C940 C 0.82023 0.32185 0.51005 0.0
C941 C 0.76046 0.31501 0.57799 0.0
C942 C 0.80964 0.36301 0.50859 0.0
C943 C 0.83968 0.39289 0.50831 0.0
C944 C 0.88099 0.38216 0.5092 0.0
C945 C 0.89143 0.34078 0.51018 0.0
C946 C 0.86132 0.31096 0.51049 0.0
H947 H 0.74329 0.30227 0.60401 0.0
H948 H 0.7921 0.32101 0.58783 0.0
H949 H 0.74635 0.34438 0.56966 0.0
H950 H 0.77809 0.37205 0.50738 0.0
H951 H 0.83041 0.42437 0.50727 0.0
H952 H 0.5006 0.42332 0.83134 0.0
H953 H 0.5 0.37058 0.77935 0.0
H954 H 0.51686 0.2792 0.87127 0.0
H955 H 0.51695 0.33149 0.92361 0.0
H956 H 0.55987 0.31447 0.76009 0.0
H957 H 0.41879 0.23686 0.80896 0.0
H958 H 0.43276 0.28659 0.82702 0.0
H959 H 0.45606 0.24213 0.84827 0.0
C960 C 0.50407 0.39202 0.84064 0.0
C961 C 0.50858 0.38173 0.8818 0.0
C962 C 0.50372 0.36192 0.81081 0.0
C963 C 0.50772 0.32095 0.82151 0.0
C964 C 0.51279 0.31056 0.86243 0.0
H965 H 0.51681 0.0952 0.68687 0.0
H966 H 0.51754 0.14795 0.73885 0.0
C967 C 0.51302 0.3406 0.89231 0.0
C968 C 0.50753 0.28917 0.78973 0.0
H969 H 0.45774 0.20407 0.75813 0.0
C970 C 0.53744 0.29042 0.7595 0.0
C971 C 0.47827 0.25781 0.78914 0.0
C972 C 0.44441 0.25583 0.81984 0.0
C973 C 0.53935 0.26073 0.72907 0.0
C974 C 0.51009 0.22937 0.72849 0.0
C975 C 0.48017 0.22811 0.75871 0.0
C976 C 0.50987 0.19759 0.6967 0.0
C977 C 0.5732 0.26271 0.69836 0.0
C978 C 0.50479 0.20798 0.65578 0.0
C979 C 0.50447 0.17794 0.6259 0.0
C980 C 0.50885 0.1368 0.63641 0.0
C981 C 0.51338 0.1265 0.67757 0.0
C982 C 0.51381 0.15662 0.70739 0.0
H983 H 0.59883 0.28167 0.70925 0.0
H984 H 0.58483 0.23195 0.69117 0.0
H985 H 0.56155 0.27644 0.66995 0.0
H986 H 0.50076 0.23935 0.64694 0.0
H987 H 0.50054 0.18705 0.59461 0.0
H988 H 0.51259 0.92359 0.68717 0.0
H989 H 0.51327 0.87089 0.73919 0.0
H990 H 0.50527 0.77889 0.6467 0.0
H991 H 0.50509 0.83115 0.59435 0.0
H992 H 0.45494 0.81165 0.75524 0.0
H993 H 0.60241 0.74167 0.71416 0.0
H994 H 0.58693 0.79077 0.69558 0.0
H995 H 0.5671 0.74536 0.67289 0.0
C996 C 0.51111 0.89218 0.67774 0.0
C997 C 0.509 0.88172 0.63642 0.0
C998 C 0.51149 0.86209 0.70759 0.0
C999 C 0.50997 0.82099 0.69677 0.0
C1000 C 0.50737 0.81041 0.65567 0.0
H1001 H 0.50489 0.59495 0.83105 0.0
H1002 H 0.50426 0.64764 0.77903 0.0
C1003 C 0.50705 0.84043 0.62577 0.0
C1004 C 0.51013 0.78924 0.72856 0.0
H1005 H 0.56261 0.70689 0.76296 0.0
C1006 C 0.47856 0.78884 0.75709 0.0
C1007 C 0.54096 0.7595 0.73079 0.0
C1008 C 0.57649 0.75941 0.70197 0.0
C1009 C 0.4766 0.75904 0.78741 0.0
C1010 C 0.50742 0.7293 0.78964 0.0
C1011 C 0.53899 0.7297 0.76111 0.0
C1012 C 0.50758 0.69754 0.82144 0.0
C1013 C 0.44106 0.75913 0.81622 0.0
C1014 C 0.51017 0.70813 0.86254 0.0
C1015 C 0.51046 0.67812 0.89244 0.0
C1016 C 0.50848 0.63682 0.8818 0.0
C1017 C 0.50638 0.62636 0.84047 0.0
C1018 C 0.50604 0.65644 0.81062 0.0
H1019 H 0.41515 0.77687 0.80404 0.0
H1020 H 0.43062 0.72778 0.82263 0.0
H1021 H 0.45045 0.77319 0.8453 0.0
H1022 H 0.51227 0.73965 0.8715 0.0
H1023 H 0.51241 0.6874 0.92387 0.0
H1024 H 0.51236 0.68738 0.09478 0.0
H1025 H 0.51301 0.73941 0.14747 0.0
H1026 H 0.50555 0.6469 0.23948 0.0
H1027 H 0.50539 0.59453 0.18723 0.0
H1028 H 0.45477 0.75528 0.20694 0.0
H1029 H 0.60267 0.71465 0.27627 0.0
H1030 H 0.58706 0.69605 0.22723 0.0
H1031 H 0.56749 0.67326 0.2727 0.0
C1032 C 0.51099 0.67795 0.1262 0.0
C1033 C 0.50904 0.63662 0.13666 0.0
C1034 C 0.51134 0.70781 0.15627 0.0
C1035 C 0.50996 0.69698 0.19736 0.0
C1036 C 0.50752 0.65587 0.20796 0.0
H1037 H 0.50541 0.83115 0.42341 0.0
H1038 H 0.50466 0.77915 0.3707 0.0
C1039 C 0.50722 0.62597 0.17795 0.0
C1040 C 0.51014 0.72877 0.22911 0.0
H1041 H 0.56286 0.76332 0.31123 0.0
C1042 C 0.47848 0.7572 0.22964 0.0
C1043 C 0.54109 0.73109 0.25871 0.0
C1044 C 0.57672 0.70239 0.25863 0.0
C1045 C 0.47654 0.78751 0.25946 0.0
C1046 C 0.50749 0.78982 0.28907 0.0
C1047 C 0.53915 0.7614 0.28853 0.0
C1048 C 0.50768 0.8216 0.32083 0.0
C1049 C 0.44092 0.81623 0.25953 0.0
C1050 C 0.51014 0.86271 0.31025 0.0
C1051 C 0.51051 0.8926 0.34027 0.0
C1052 C 0.50873 0.88193 0.38156 0.0
C1053 C 0.50675 0.84059 0.392 0.0
C1054 C 0.50633 0.81075 0.36192 0.0
H1055 H 0.41497 0.80398 0.24188 0.0
H1056 H 0.43058 0.82258 0.29093 0.0
H1057 H 0.45016 0.84535 0.24547 0.0
H1058 H 0.51209 0.87169 0.27873 0.0
H1059 H 0.51235 0.92404 0.331 0.0
H1060 H 0.50423 0.18734 0.42343 0.0
H1061 H 0.50354 0.23935 0.37073 0.0
H1062 H 0.51309 0.14692 0.27883 0.0
H1063 H 0.51328 0.09456 0.33108 0.0
H1064 H 0.5622 0.25592 0.31199 0.0
H1065 H 0.4157 0.21352 0.24079 0.0
H1066 H 0.43093 0.19507 0.29001 0.0
H1067 H 0.45133 0.17255 0.24477 0.0
C1068 C 0.50605 0.17792 0.39204 0.0
C1069 C 0.50859 0.13661 0.3816 0.0
C1070 C 0.50567 0.20777 0.36196 0.0
C1071 C 0.50762 0.19696 0.32088 0.0
C1072 C 0.51065 0.15587 0.31032 0.0
H1073 H 0.51342 0.33116 0.09485 0.0
H1074 H 0.51405 0.27916 0.14757 0.0
C1075 C 0.51098 0.12598 0.34033 0.0
C1076 C 0.50745 0.22874 0.28912 0.0
H1077 H 0.45538 0.26263 0.20631 0.0
C1078 C 0.53876 0.25755 0.28898 0.0
C1079 C 0.47686 0.23068 0.25912 0.0
C1080 C 0.44157 0.20156 0.25874 0.0
C1081 C 0.54073 0.28787 0.25918 0.0
C1082 C 0.51014 0.2898 0.22918 0.0
C1083 C 0.47882 0.261 0.22932 0.0
C1084 C 0.50998 0.32158 0.19741 0.0
C1085 C 0.57601 0.317 0.25957 0.0
C1086 C 0.50696 0.36267 0.20795 0.0
C1087 C 0.50667 0.39255 0.17793 0.0
C1088 C 0.50907 0.3819 0.13666 0.0
C1089 C 0.51158 0.34059 0.12624 0.0
C1090 C 0.51194 0.31075 0.15633 0.0
H1091 H 0.60188 0.30504 0.27752 0.0
H1092 H 0.58665 0.32349 0.2283 0.0
H1093 H 0.56625 0.346 0.27354 0.0
H1094 H 0.50452 0.37163 0.23944 0.0
H1095 H 0.50437 0.42397 0.18717 0.0
loop_
_geom_bond_atom_site_label_1
_geom_bond_atom_site_label_2
_geom_bond_distance
_geom_bond_site_symmetry_2
_ccdc_geom_bond_type
H0 O1 0.850 . S
O1 H0 0.850 . S
O1 Tb2 2.341 1_566 S
O1 Tb3 2.341 1_656 S
O1 Tb4 2.341 1_665 S
Tb2 O1 2.341 1_544 S
Tb2 O5 2.341 1_545 S
Tb2 O6 2.341 1_554 S
Tb2 O7 2.341 . S
Tb2 O22 2.344 1_545 S
Tb2 O25 2.344 . S
Tb2 O38 2.344 . S
Tb2 O41 2.344 1_554 S
Tb3 O1 2.341 1_454 S
Tb3 O5 2.341 1_455 S
Tb3 O8 2.341 . S
Tb3 O10 2.341 1_554 S
Tb3 O26 2.344 1_554 S
Tb3 O29 2.344 . S
Tb3 O34 2.344 1_455 S
Tb3 O37 2.344 . S
Tb4 O1 2.341 1_445 S
Tb4 O6 2.341 1_455 S
Tb4 O9 2.341 . S
Tb4 O10 2.341 1_545 S
Tb4 O30 2.344 1_455 S
Tb4 O33 2.344 . S
Tb4 O43 2.344 . S
Tb4 O44 2.344 1_545 S
O5 Tb2 2.341 1_565 S
O5 Tb3 2.341 1_655 S
O5 H11 0.850 . S
O5 Tb13 2.341 1_665 S
O6 Tb2 2.341 1_556 S
O6 Tb4 2.341 1_655 S
O6 H12 0.850 . S
O6 Tb14 2.341 1_656 S
O7 Tb2 2.341 . S
O7 Tb13 2.341 1_655 S
O7 Tb14 2.341 1_655 S
O7 H15 0.850 . S
O8 Tb3 2.341 . S
O8 Tb13 2.341 1_565 S
O8 H16 0.850 . S
O8 Tb17 2.341 1_565 S
O9 Tb4 2.341 . S
O9 Tb14 2.341 1_556 S
O9 Tb17 2.341 1_556 S
O9 H18 0.850 . S
O10 Tb3 2.341 1_556 S
O10 Tb4 2.341 1_565 S
O10 Tb17 2.341 1_566 S
O10 H19 0.850 . S
H11 O5 0.850 . S
H12 O6 0.850 . S
Tb13 O5 2.341 1_445 S
Tb13 O7 2.341 1_455 S
Tb13 O8 2.341 1_545 S
Tb13 O20 2.341 . S
Tb13 O31 2.344 . S
Tb13 O32 2.344 1_455 S
Tb13 O42 2.344 1_545 S
Tb13 O45 2.344 . S
Tb14 O6 2.341 1_454 S
Tb14 O7 2.341 1_455 S
Tb14 O9 2.341 1_554 S
Tb14 O20 2.341 . S
Tb14 O27 2.344 . S
Tb14 O28 2.344 1_554 S
Tb14 O35 2.344 . S
Tb14 O36 2.344 1_455 S
H15 O7 0.850 . S
H16 O8 0.850 . S
Tb17 O8 2.341 1_545 S
Tb17 O9 2.341 1_554 S
Tb17 O10 2.341 1_544 S
Tb17 O20 2.341 . S
Tb17 O23 2.344 . S
Tb17 O24 2.344 1_545 S
Tb17 O39 2.344 1_554 S
Tb17 O40 2.344 . S
H18 O9 0.850 . S
H19 O10 0.850 . S
O20 Tb13 2.341 . S
O20 Tb14 2.341 . S
O20 Tb17 2.341 . S
O20 H21 0.850 . S
H21 O20 0.850 . S
O22 Tb2 2.344 1_565 S
O22 C46 1.272 . S
O23 Tb17 2.344 . S
O23 C47 1.272 . S
O24 Tb17 2.344 1_565 S
O24 C48 1.272 . S
O25 Tb2 2.344 . S
O25 C49 1.272 . S
O26 Tb3 2.344 1_556 S
O26 C50 1.272 . S
O27 Tb14 2.344 . S
O27 C51 1.272 . S
O28 Tb14 2.344 1_556 S
O28 C52 1.272 . S
O29 Tb3 2.344 . S
O29 C53 1.272 . S
O30 Tb4 2.344 1_655 S
O30 C54 1.272 . S
O31 Tb13 2.344 . S
O31 C55 1.272 . S
O32 Tb13 2.344 1_655 S
O32 C56 1.272 . S
O33 Tb4 2.344 . S
O33 C57 1.272 . S
O34 Tb3 2.344 1_655 S
O34 C46 1.272 . S
O35 Tb14 2.344 . S
O35 C47 1.272 . S
O36 Tb14 2.344 1_655 S
O36 C49 1.272 . S
O37 Tb3 2.344 . S
O37 C48 1.272 . S
O38 Tb2 2.344 . S
O38 C56 1.272 . S
O39 Tb17 2.344 1_556 S
O39 C57 1.272 . S
O40 Tb17 2.344 . S
O40 C55 1.272 . S
O41 Tb2 2.344 1_556 S
O41 C54 1.272 . S
O42 Tb13 2.344 1_565 S
O42 C53 1.272 . S
O43 Tb4 2.344 . S
O43 C52 1.272 . S
O44 Tb4 2.344 1_565 S
O44 C50 1.272 . S
O45 Tb13 2.344 . S
O45 C51 1.272 . S
C46 O22 1.272 . S
C46 O34 1.272 . S
C47 O23 1.272 . S
C47 O35 1.272 . S
C48 O24 1.272 . S
C48 O37 1.272 . S
C49 O25 1.272 . S
C49 O36 1.272 . S
C50 O26 1.272 . S
C50 O44 1.272 . S
C51 O27 1.272 . S
C51 O45 1.272 . S
C52 O28 1.272 . S
C52 O43 1.272 . S
C53 O29 1.272 . S
C53 O42 1.272 . S
C54 O30 1.272 . S
C54 O41 1.272 . S
C55 O31 1.272 . S
C55 O40 1.272 . S
C56 O32 1.272 . S
C56 O38 1.272 . S
C57 O33 1.272 . S
C57 O39 1.272 . S
H58 O59 0.850 . S
O59 H58 0.850 . S
O59 Tb60 2.341 . S
O59 Tb61 2.341 1_655 S
O59 Tb62 2.341 1_655 S
Tb60 O59 2.341 . S
Tb60 O63 2.341 . S
Tb60 O64 2.341 . S
Tb60 O65 2.341 . S
Tb60 O80 2.344 . S
Tb60 O83 2.344 . S
Tb60 O96 2.344 . S
Tb60 O99 2.344 . S
Tb61 O59 2.341 1_455 S
Tb61 O63 2.341 1_455 S
Tb61 O66 2.341 . S
Tb61 O68 2.341 . S
Tb61 O84 2.344 . S
Tb61 O87 2.344 . S
Tb61 O92 2.344 1_455 S
Tb61 O95 2.344 . S
Tb62 O59 2.341 1_455 S
Tb62 O64 2.341 1_455 S
Tb62 O67 2.341 . S
Tb62 O68 2.341 . S
Tb62 O88 2.344 1_455 S
Tb62 O91 2.344 . S
Tb62 O101 2.344 . S
Tb62 O102 2.344 . S
O63 Tb60 2.341 . S
O63 Tb61 2.341 1_655 S
O63 H69 0.850 . S
O63 Tb71 2.341 1_655 S
O64 Tb60 2.341 . S
O64 Tb62 2.341 1_655 S
O64 H70 0.850 . S
O64 Tb72 2.341 1_655 S
O65 Tb60 2.341 . S
O65 Tb71 2.341 1_655 S
O65 Tb72 2.341 1_655 S
O65 H73 0.850 . S
O66 Tb61 2.341 . S
O66 Tb71 2.341 . S
O66 H74 0.850 . S
O66 Tb75 2.341 . S
O67 Tb62 2.341 . S
O67 Tb72 2.341 . S
O67 Tb75 2.341 . S
O67 H76 0.850 . S
O68 Tb61 2.341 . S
O68 Tb62 2.341 . S
O68 Tb75 2.341 . S
O68 H77 0.850 . S
H69 O63 0.850 . S
H70 O64 0.850 . S
Tb71 O63 2.341 1_455 S
Tb71 O65 2.341 1_455 S
Tb71 O66 2.341 . S
Tb71 O78 2.341 . S
Tb71 O89 2.344 . S
Tb71 O90 2.344 1_455 S
Tb71 O100 2.344 . S
Tb71 O103 2.344 . S
Tb72 O64 2.341 1_455 S
Tb72 O65 2.341 1_455 S
Tb72 O67 2.341 . S
Tb72 O78 2.341 . S
Tb72 O85 2.344 . S
Tb72 O86 2.344 . S
Tb72 O93 2.344 . S
Tb72 O94 2.344 1_455 S
H73 O65 0.850 . S
H74 O66 0.850 . S
Tb75 O66 2.341 . S
Tb75 O67 2.341 . S
Tb75 O68 2.341 . S
Tb75 O78 2.341 . S
Tb75 O81 2.344 . S
Tb75 O82 2.344 . S
Tb75 O97 2.344 . S
Tb75 O98 2.344 . S
H76 O67 0.850 . S
H77 O68 0.850 . S
O78 Tb71 2.341 . S
O78 Tb72 2.341 . S
O78 Tb75 2.341 . S
O78 H79 0.850 . S
H79 O78 0.850 . S
O80 Tb60 2.344 . S
O80 C104 1.272 . S
O81 Tb75 2.344 . S
O81 C105 1.272 . S
O82 Tb75 2.344 . S
O82 C106 1.272 . S
O83 Tb60 2.344 . S
O83 C107 1.272 . S
O84 Tb61 2.344 . S
O84 C108 1.272 . S
O85 Tb72 2.344 . S
O85 C109 1.272 . S
O86 Tb72 2.344 . S
O86 C110 1.272 . S
O87 Tb61 2.344 . S
O87 C111 1.272 . S
O88 Tb62 2.344 1_655 S
O88 C112 1.272 . S
O89 Tb71 2.344 . S
O89 C113 1.272 . S
O90 Tb71 2.344 1_655 S
O90 C114 1.272 . S
O91 Tb62 2.344 . S
O91 C115 1.272 . S
O92 Tb61 2.344 1_655 S
O92 C104 1.272 . S
O93 Tb72 2.344 . S
O93 C105 1.272 . S
O94 Tb72 2.344 1_655 S
O94 C107 1.272 . S
O95 Tb61 2.344 . S
O95 C106 1.272 . S
O96 Tb60 2.344 . S
O96 C114 1.272 . S
O97 Tb75 2.344 . S
O97 C115 1.272 . S
O98 Tb75 2.344 . S
O98 C113 1.272 . S
O99 Tb60 2.344 . S
O99 C112 1.272 . S
O100 Tb71 2.344 . S
O100 C111 1.272 . S
O101 Tb62 2.344 . S
O101 C110 1.272 . S
O102 Tb62 2.344 . S
O102 C108 1.272 . S
O103 Tb71 2.344 . S
O103 C109 1.272 . S
C104 O80 1.272 . S
C104 O92 1.272 . S
C105 O81 1.272 . S
C105 O93 1.272 . S
C106 O82 1.272 . S
C106 O95 1.272 . S
C107 O83 1.272 . S
C107 O94 1.272 . S
C108 O84 1.272 . S
C108 O102 1.272 . S
C109 O85 1.272 . S
C109 O103 1.272 . S
C110 O86 1.272 . S
C110 O101 1.272 . S
C111 O87 1.272 . S
C111 O100 1.272 . S
C112 O88 1.272 . S
C112 O99 1.272 . S
C113 O89 1.272 . S
C113 O98 1.272 . S
C114 O90 1.272 . S
C114 O96 1.272 . S
C115 O91 1.272 . S
C115 O97 1.272 . S
H116 O117 0.850 . S
O117 H116 0.850 . S
O117 Tb118 2.341 1_565 S
O117 Tb119 2.341 . S
O117 Tb120 2.341 1_565 S
Tb118 O117 2.341 1_545 S
Tb118 O121 2.341 1_545 S
Tb118 O122 2.341 . S
Tb118 O123 2.341 . S
Tb118 O138 2.344 1_545 S
Tb118 O141 2.344 . S
Tb118 O154 2.344 . S
Tb118 O157 2.344 . S
Tb119 O117 2.341 . S
Tb119 O121 2.341 . S
Tb119 O124 2.341 . S
Tb119 O126 2.341 . S
Tb119 O142 2.344 . S
Tb119 O145 2.344 . S
Tb119 O150 2.344 . S
Tb119 O153 2.344 . S
Tb120 O117 2.341 1_545 S
Tb120 O122 2.341 . S
Tb120 O125 2.341 . S
Tb120 O126 2.341 1_545 S
Tb120 O146 2.344 . S
Tb120 O149 2.344 . S
Tb120 O159 2.344 . S
Tb120 O160 2.344 1_545 S
O121 Tb118 2.341 1_565 S
O121 Tb119 2.341 . S
O121 H127 0.850 . S
O121 Tb129 2.341 1_565 S
O122 Tb118 2.341 . S
O122 Tb120 2.341 . S
O122 H128 0.850 . S
O122 Tb130 2.341 . S
O123 Tb118 2.341 . S
O123 Tb129 2.341 . S
O123 Tb130 2.341 . S
O123 H131 0.850 . S
O124 Tb119 2.341 . S
O124 Tb129 2.341 1_565 S
O124 H132 0.850 . S
O124 Tb133 2.341 1_565 S
O125 Tb120 2.341 . S
O125 Tb130 2.341 . S
O125 Tb133 2.341 . S
O125 H134 0.850 . S
O126 Tb119 2.341 . S
O126 Tb120 2.341 1_565 S
O126 Tb133 2.341 1_565 S
O126 H135 0.850 . S
H127 O121 0.850 . S
H128 O122 0.850 . S
Tb129 O121 2.341 1_545 S
Tb129 O123 2.341 . S
Tb129 O124 2.341 1_545 S
Tb129 O136 2.341 . S
Tb129 O147 2.344 . S
Tb129 O148 2.344 . S
Tb129 O158 2.344 1_545 S
Tb129 O161 2.344 . S
Tb130 O122 2.341 . S
Tb130 O123 2.341 . S
Tb130 O125 2.341 . S
Tb130 O136 2.341 . S
Tb130 O143 2.344 . S
Tb130 O144 2.344 . S
Tb130 O151 2.344 . S
Tb130 O152 2.344 . S
H131 O123 0.850 . S
H132 O124 0.850 . S
Tb133 O124 2.341 1_545 S
Tb133 O125 2.341 . S
Tb133 O126 2.341 1_545 S
Tb133 O136 2.341 . S
Tb133 O139 2.344 . S
Tb133 O140 2.344 1_545 S
Tb133 O155 2.344 . S
Tb133 O156 2.344 . S
H134 O125 0.850 . S
H135 O126 0.850 . S
O136 Tb129 2.341 . S
O136 Tb130 2.341 . S
O136 Tb133 2.341 . S
O136 H137 0.850 . S
H137 O136 0.850 . S
O138 Tb118 2.344 1_565 S
O138 C162 1.272 . S
O139 Tb133 2.344 . S
O139 C163 1.272 . S
O140 Tb133 2.344 1_565 S
O140 C164 1.272 . S
O141 Tb118 2.344 . S
O141 C165 1.272 . S
O142 Tb119 2.344 . S
O142 C166 1.272 . S
O143 Tb130 2.344 . S
O143 C167 1.272 . S
O144 Tb130 2.344 . S
O144 C168 1.272 . S
O145 Tb119 2.344 . S
O145 C169 1.272 . S
O146 Tb120 2.344 . S
O146 C170 1.272 . S
O147 Tb129 2.344 . S
O147 C171 1.272 . S
O148 Tb129 2.344 . S
O148 C172 1.272 . S
O149 Tb120 2.344 . S
O149 C173 1.272 . S
O150 Tb119 2.344 . S
O150 C162 1.272 . S
O151 Tb130 2.344 . S
O151 C163 1.272 . S
O152 Tb130 2.344 . S
O152 C165 1.272 . S
O153 Tb119 2.344 . S
O153 C164 1.272 . S
O154 Tb118 2.344 . S
O154 C172 1.272 . S
O155 Tb133 2.344 . S
O155 C173 1.272 . S
O156 Tb133 2.344 . S
O156 C171 1.272 . S
O157 Tb118 2.344 . S
O157 C170 1.272 . S
O158 Tb129 2.344 1_565 S
O158 C169 1.272 . S
O159 Tb120 2.344 . S
O159 C168 1.272 . S
O160 Tb120 2.344 1_565 S
O160 C166 1.272 . S
O161 Tb129 2.344 . S
O161 C167 1.272 . S
C162 O138 1.272 . S
C162 O150 1.272 . S
C163 O139 1.272 . S
C163 O151 1.272 . S
C164 O140 1.272 . S
C164 O153 1.272 . S
C165 O141 1.272 . S
C165 O152 1.272 . S
C166 O142 1.272 . S
C166 O160 1.272 . S
C167 O143 1.272 . S
C167 O161 1.272 . S
C168 O144 1.272 . S
C168 O159 1.272 . S
C169 O145 1.272 . S
C169 O158 1.272 . S
C170 O146 1.272 . S
C170 O157 1.272 . S
C171 O147 1.272 . S
C171 O156 1.272 . S
C172 O148 1.272 . S
C172 O154 1.272 . S
C173 O149 1.272 . S
C173 O155 1.272 . S
H174 O175 0.850 . S
O175 H174 0.850 . S
O175 Tb176 2.341 1_556 S
O175 Tb177 2.341 1_556 S
O175 Tb178 2.341 . S
Tb176 O175 2.341 1_554 S
Tb176 O179 2.341 . S
Tb176 O180 2.341 1_554 S
Tb176 O181 2.341 . S
Tb176 O196 2.344 . S
Tb176 O199 2.344 . S
Tb176 O212 2.344 . S
Tb176 O215 2.344 1_554 S
Tb177 O175 2.341 1_554 S
Tb177 O179 2.341 . S
Tb177 O182 2.341 . S
Tb177 O184 2.341 1_554 S
Tb177 O200 2.344 1_554 S
Tb177 O203 2.344 . S
Tb177 O208 2.344 . S
Tb177 O211 2.344 . S
Tb178 O175 2.341 . S
Tb178 O180 2.341 . S
Tb178 O183 2.341 . S
Tb178 O184 2.341 . S
Tb178 O204 2.344 . S
Tb178 O207 2.344 . S
Tb178 O217 2.344 . S
Tb178 O218 2.344 . S
O179 Tb176 2.341 . S
O179 Tb177 2.341 . S
O179 H185 0.850 . S
O179 Tb187 2.341 . S
O180 Tb176 2.341 1_556 S
O180 Tb178 2.341 . S
O180 H186 0.850 . S
O180 Tb188 2.341 1_556 S
O181 Tb176 2.341 . S
O181 Tb187 2.341 . S
O181 Tb188 2.341 . S
O181 H189 0.850 . S
O182 Tb177 2.341 . S
O182 Tb187 2.341 . S
O182 H190 0.850 . S
O182 Tb191 2.341 . S
O183 Tb178 2.341 . S
O183 Tb188 2.341 1_556 S
O183 Tb191 2.341 1_556 S
O183 H192 0.850 . S
O184 Tb177 2.341 1_556 S
O184 Tb178 2.341 . S
O184 Tb191 2.341 1_556 S
O184 H193 0.850 . S
H185 O179 0.850 . S
H186 O180 0.850 . S
Tb187 O179 2.341 . S
Tb187 O181 2.341 . S
Tb187 O182 2.341 . S
Tb187 O194 2.341 . S
Tb187 O205 2.344 . S
Tb187 O206 2.344 . S
Tb187 O216 2.344 . S
Tb187 O219 2.344 . S
Tb188 O180 2.341 1_554 S
Tb188 O181 2.341 . S
Tb188 O183 2.341 1_554 S
Tb188 O194 2.341 . S
Tb188 O201 2.344 . S
Tb188 O202 2.344 1_554 S
Tb188 O209 2.344 . S
Tb188 O210 2.344 . S
H189 O181 0.850 . S
H190 O182 0.850 . S
Tb191 O182 2.341 . S
Tb191 O183 2.341 1_554 S
Tb191 O184 2.341 1_554 S
Tb191 O194 2.341 . S
Tb191 O197 2.344 . S
Tb191 O198 2.344 . S
Tb191 O213 2.344 1_554 S
Tb191 O214 2.344 . S
H192 O183 0.850 . S
H193 O184 0.850 . S
O194 Tb187 2.341 . S
O194 Tb188 2.341 . S
O194 Tb191 2.341 . S
O194 H195 0.850 . S
H195 O194 0.850 . S
O196 Tb176 2.344 . S
O196 C220 1.272 . S
O197 Tb191 2.344 . S
O197 C221 1.272 . S
O198 Tb191 2.344 . S
O198 C222 1.272 . S
O199 Tb176 2.344 . S
O199 C223 1.272 . S
O200 Tb177 2.344 1_556 S
O200 C224 1.272 . S
O201 Tb188 2.344 . S
O201 C225 1.272 . S
O202 Tb188 2.344 1_556 S
O202 C226 1.272 . S
O203 Tb177 2.344 . S
O203 C227 1.272 . S
O204 Tb178 2.344 . S
O204 C228 1.272 . S
O205 Tb187 2.344 . S
O205 C229 1.272 . S
O206 Tb187 2.344 . S
O206 C230 1.272 . S
O207 Tb178 2.344 . S
O207 C231 1.272 . S
O208 Tb177 2.344 . S
O208 C220 1.272 . S
O209 Tb188 2.344 . S
O209 C221 1.272 . S
O210 Tb188 2.344 . S
O210 C223 1.272 . S
O211 Tb177 2.344 . S
O211 C222 1.272 . S
O212 Tb176 2.344 . S
O212 C230 1.272 . S
O213 Tb191 2.344 1_556 S
O213 C231 1.272 . S
O214 Tb191 2.344 . S
O214 C229 1.272 . S
O215 Tb176 2.344 1_556 S
O215 C228 1.272 . S
O216 Tb187 2.344 . S
O216 C227 1.272 . S
O217 Tb178 2.344 . S
O217 C226 1.272 . S
O218 Tb178 2.344 . S
O218 C224 1.272 . S
O219 Tb187 2.344 . S
O219 C225 1.272 . S
C220 O196 1.272 . S
C220 O208 1.272 . S
C221 O197 1.272 . S
C221 O209 1.272 . S
C222 O198 1.272 . S
C222 O211 1.272 . S
C223 O199 1.272 . S
C223 O210 1.272 . S
C224 O200 1.272 . S
C224 O218 1.272 . S
C225 O201 1.272 . S
C225 O219 1.272 . S
C226 O202 1.272 . S
C226 O217 1.272 . S
C227 O203 1.272 . S
C227 O216 1.272 . S
C228 O204 1.272 . S
C228 O215 1.272 . S
C229 O205 1.272 . S
C229 O214 1.272 . S
C230 O206 1.272 . S
C230 O212 1.272 . S
C231 O207 1.272 . S
C231 O213 1.272 . S
H232 C240 0.929 . S
H233 C242 0.930 . S
H234 C244 0.930 . S
H235 C247 0.929 . S
H236 C250 0.930 . S
H237 C252 0.960 . S
H238 C252 0.960 . S
H239 C252 0.960 . S
C240 H232 0.929 . S
C240 C241 1.379 1_455 S
C240 C242 1.384 . S
C241 C240 1.379 1_655 S
C241 C247 1.388 . S
C242 H233 0.930 . S
C242 C240 1.384 . S
C242 C243 1.372 . S
C243 C242 1.372 . S
C243 C244 1.400 1_455 S
C243 C248 1.490 . S
C244 H234 0.930 . S
C244 C243 1.400 1_655 S
C244 C247 1.386 . S
H245 C261 0.930 . S
H246 C262 0.931 . S
C247 H235 0.929 . S
C247 C241 1.388 . S
C247 C244 1.386 . S
C248 C243 1.490 . S
C248 C250 1.395 . S
C248 C251 1.403 1_455 S
H249 C255 0.930 . S
C250 H236 0.930 . S
C250 C248 1.395 . S
C250 C253 1.403 . S
C251 C248 1.403 1_655 S
C251 C252 1.524 . S
C251 C255 1.400 . S
C252 H237 0.960 . S
C252 H238 0.960 . S
C252 H239 0.960 . S
C252 C251 1.524 . S
C253 C250 1.403 . S
C253 C254 1.392 . S
C253 C257 1.495 . S
C254 C253 1.392 . S
C254 C255 1.385 1_455 S
C254 C256 1.478 . S
C255 H249 0.930 . S
C255 C251 1.400 . S
C255 C254 1.385 1_655 S
C256 C254 1.478 . S
C256 C258 1.381 . S
C256 C262 1.383 1_455 S
C257 C253 1.495 . S
C257 H263 0.959 . S
C257 H264 0.961 . S
C257 H265 0.960 . S
C258 C256 1.381 . S
C258 C259 1.394 . S
C258 H266 0.930 . S
C259 C258 1.394 . S
C259 C260 1.383 . S
C259 H267 0.929 . S
C260 C259 1.383 . S
C260 C261 1.377 1_455 S
C261 H245 0.930 . S
C261 C260 1.377 1_655 S
C261 C262 1.379 . S
C262 H246 0.931 . S
C262 C256 1.383 1_655 S
C262 C261 1.379 . S
H263 C257 0.959 . S
H264 C257 0.961 . S
H265 C257 0.960 . S
H266 C258 0.930 . S
H267 C259 0.929 . S
H268 C276 0.929 . S
H269 C278 0.930 . S
H270 C280 0.930 . S
H271 C283 0.929 . S
H272 C286 0.930 . S
H273 C288 0.960 . S
H274 C288 0.960 . S
H275 C288 0.960 . S
C276 H268 0.929 . S
C276 C277 1.381 . S
C276 C278 1.384 . S
C277 C276 1.381 . S
C277 C283 1.386 1_565 S
C278 H269 0.930 . S
C278 C276 1.384 . S
C278 C279 1.372 . S
C279 C278 1.372 . S
C279 C280 1.400 1_565 S
C279 C284 1.490 . S
C280 H270 0.930 . S
C280 C279 1.400 1_545 S
C280 C283 1.386 . S
H281 C297 0.930 . S
H282 C298 0.931 . S
C283 H271 0.929 . S
C283 C277 1.386 1_545 S
C283 C280 1.386 . S
C284 C279 1.490 . S
C284 C286 1.395 1_565 S
C284 C287 1.402 . S
H285 C291 0.930 . S
C286 H272 0.930 . S
C286 C284 1.395 1_545 S
C286 C289 1.403 . S
C287 C284 1.402 . S
C287 C288 1.524 . S
C287 C291 1.400 . S
C288 H273 0.960 . S
C288 H274 0.960 . S
C288 H275 0.960 . S
C288 C287 1.524 . S
C289 C286 1.403 . S
C289 C290 1.392 . S
C289 C293 1.495 . S
C290 C289 1.392 . S
C290 C291 1.385 1_545 S
C290 C292 1.478 . S
C291 H285 0.930 . S
C291 C287 1.400 . S
C291 C290 1.385 1_565 S
C292 C290 1.478 . S
C292 C294 1.381 1_545 S
C292 C298 1.383 . S
C293 C289 1.495 . S
C293 H299 0.959 . S
C293 H300 0.961 . S
C293 H301 0.960 . S
C294 C292 1.381 1_565 S
C294 C295 1.394 . S
C294 H302 0.930 . S
C295 C294 1.394 . S
C295 C296 1.383 1_565 S
C295 H303 0.929 . S
C296 C295 1.383 1_545 S
C296 C297 1.377 . S
C297 H281 0.930 . S
C297 C296 1.377 . S
C297 C298 1.379 . S
C298 H282 0.931 . S
C298 C292 1.383 . S
C298 C297 1.379 . S
H299 C293 0.959 . S
H300 C293 0.961 . S
H301 C293 0.960 . S
H302 C294 0.930 . S
H303 C295 0.929 . S
H304 C312 0.929 . S
H305 C314 0.930 . S
H306 C316 0.930 . S
H307 C319 0.929 . S
H308 C322 0.930 . S
H309 C324 0.960 . S
H310 C324 0.960 . S
H311 C324 0.960 1_655 S
C312 H304 0.929 . S
C312 C313 1.391 . S
C312 C314 1.384 . S
C313 C312 1.391 . S
C313 C319 1.376 1_455 S
C314 H305 0.930 . S
C314 C312 1.384 . S
C314 C315 1.372 . S
C315 C314 1.372 . S
C315 C316 1.400 1_455 S
C315 C320 1.490 . S
C316 H306 0.930 . S
C316 C315 1.400 1_655 S
C316 C319 1.386 . S
H317 C333 0.930 . S
H318 C334 0.931 . S
C319 H307 0.929 . S
C319 C313 1.376 1_655 S
C319 C316 1.386 . S
C320 C315 1.490 . S
C320 C322 1.395 1_455 S
C320 C323 1.403 . S
H321 C327 0.930 . S
C322 H308 0.930 . S
C322 C320 1.395 1_655 S
C322 C325 1.403 . S
C323 C320 1.403 . S
C323 C324 1.524 . S
C323 C327 1.400 . S
C324 H309 0.960 . S
C324 H310 0.960 . S
C324 H311 0.960 1_455 S
C324 C323 1.524 . S
C325 C322 1.403 . S
C325 C326 1.392 . S
C325 C329 1.495 . S
C326 C325 1.392 . S
C326 C327 1.385 1_655 S
C326 C328 1.478 . S
C327 H321 0.930 . S
C327 C323 1.400 . S
C327 C326 1.385 1_455 S
C328 C326 1.478 . S
C328 C330 1.381 1_655 S
C328 C334 1.383 . S
C329 C325 1.495 . S
C329 H335 0.959 . S
C329 H336 0.961 . S
C329 H337 0.960 1_655 S
C330 C328 1.381 1_455 S
C330 C331 1.394 . S
C330 H338 0.930 . S
C331 C330 1.394 . S
C331 C332 1.369 1_455 S
C331 H339 0.929 . S
C332 C331 1.369 1_655 S
C332 C333 1.391 . S
C333 H317 0.930 . S
C333 C332 1.391 . S
C333 C334 1.379 . S
C334 H318 0.931 . S
C334 C328 1.383 . S
C334 C333 1.379 . S
H335 C329 0.959 . S
H336 C329 0.961 . S
H337 C329 0.960 1_455 S
H338 C330 0.930 . S
H339 C331 0.929 . S
H340 C348 0.929 . S
H341 C350 0.930 . S
H342 C352 0.930 . S
H343 C355 0.929 . S
H344 C358 0.930 . S
H345 C360 0.960 . S
H346 C360 0.960 . S
H347 C360 0.960 . S
C348 H340 0.929 . S
C348 C349 1.386 . S
C348 C350 1.384 . S
C349 C348 1.386 . S
C349 C355 1.382 1_565 S
C350 H341 0.930 . S
C350 C348 1.384 . S
C350 C351 1.372 . S
C351 C350 1.372 . S
C351 C352 1.400 1_565 S
C351 C356 1.490 . S
C352 H342 0.930 . S
C352 C351 1.400 1_545 S
C352 C355 1.386 . S
H353 C369 0.930 . S
H354 C370 0.931 . S
C355 H343 0.929 . S
C355 C349 1.382 1_545 S
C355 C352 1.386 . S
C356 C351 1.490 . S
C356 C358 1.395 1_565 S
C356 C359 1.403 . S
H357 C363 0.930 . S
C358 H344 0.930 . S
C358 C356 1.395 1_545 S
C358 C361 1.403 . S
C359 C356 1.403 . S
C359 C360 1.524 . S
C359 C363 1.400 . S
C360 H345 0.960 . S
C360 H346 0.960 . S
C360 H347 0.960 . S
C360 C359 1.524 . S
C361 C358 1.403 . S
C361 C362 1.392 . S
C361 C365 1.495 . S
C362 C361 1.392 . S
C362 C363 1.385 1_545 S
C362 C364 1.478 . S
C363 H357 0.930 . S
C363 C359 1.400 . S
C363 C362 1.385 1_565 S
C364 C362 1.478 . S
C364 C366 1.381 1_545 S
C364 C370 1.383 . S
C365 C361 1.495 . S
C365 H371 0.959 . S
C365 H372 0.961 . S
C365 H373 0.960 . S
C366 C364 1.381 1_565 S
C366 C367 1.394 . S
C366 H374 0.930 . S
C367 C366 1.394 . S
C367 C368 1.383 1_565 S
C367 H375 0.929 . S
C368 C367 1.383 1_545 S
C368 C369 1.377 . S
C369 H353 0.930 . S
C369 C368 1.377 . S
C369 C370 1.379 . S
C370 H354 0.931 . S
C370 C364 1.383 . S
C370 C369 1.379 . S
H371 C365 0.959 . S
H372 C365 0.961 . S
H373 C365 0.960 . S
H374 C366 0.930 . S
H375 C367 0.929 . S
H376 C384 0.929 . S
H377 C386 0.930 . S
H378 C388 0.930 . S
H379 C391 0.929 . S
H380 C394 0.930 . S
H381 C396 0.960 . S
H382 C396 0.960 . S
H383 C396 0.960 . S
C384 H376 0.929 . S
C384 C385 1.374 1_655 S
C384 C386 1.384 . S
C385 C384 1.374 1_455 S
C385 C391 1.393 . S
C386 H377 0.930 . S
C386 C384 1.384 . S
C386 C387 1.379 . S
C387 C386 1.379 . S
C387 C388 1.392 1_655 S
C387 C392 1.491 . S
C388 H378 0.930 . S
C388 C387 1.392 1_455 S
C388 C391 1.386 . S
H389 C405 0.930 . S
H390 C406 0.931 . S
C391 H379 0.929 . S
C391 C385 1.393 . S
C391 C388 1.386 . S
C392 C387 1.491 . S
C392 C394 1.395 . S
C392 C395 1.403 1_655 S
H393 C399 0.930 . S
C394 H380 0.930 . S
C394 C392 1.395 . S
C394 C397 1.403 . S
C395 C392 1.403 1_455 S
C395 C396 1.524 . S
C395 C399 1.400 . S
C396 H381 0.960 . S
C396 H382 0.960 . S
C396 H383 0.960 . S
C396 C395 1.524 . S
C397 C394 1.403 . S
C397 C398 1.392 . S
C397 C401 1.495 . S
C398 C397 1.392 . S
C398 C399 1.385 1_655 S
C398 C400 1.478 . S
C399 H393 0.930 . S
C399 C395 1.400 . S
C399 C398 1.385 1_455 S
C400 C398 1.478 . S
C400 C402 1.381 . S
C400 C406 1.383 1_655 S
C401 C397 1.495 . S
C401 H407 0.959 . S
C401 H408 0.961 . S
C401 H409 0.960 . S
C402 C400 1.381 . S
C402 C403 1.394 . S
C402 H410 0.930 . S
C403 C402 1.394 . S
C403 C404 1.383 . S
C403 H411 0.929 . S
C404 C403 1.383 . S
C404 C405 1.377 1_655 S
C405 H389 0.930 . S
C405 C404 1.377 1_455 S
C405 C406 1.379 . S
C406 H390 0.931 . S
C406 C400 1.383 1_455 S
C406 C405 1.379 . S
H407 C401 0.959 . S
H408 C401 0.961 . S
H409 C401 0.960 . S
H410 C402 0.930 . S
H411 C403 0.929 . S
H412 C420 0.929 . S
H413 C422 0.930 . S
H414 C424 0.930 . S
H415 C427 0.929 . S
H416 C430 0.930 . S
H417 C432 0.960 . S
H418 C432 0.960 . S
H419 C432 0.975 . S
C420 H412 0.929 . S
C420 C421 1.391 . S
C420 C422 1.384 . S
C421 C420 1.391 . S
C421 C427 1.377 1_545 S
C422 H413 0.930 . S
C422 C420 1.384 . S
C422 C423 1.372 . S
C423 C422 1.372 . S
C423 C424 1.400 1_545 S
C423 C428 1.490 . S
C424 H414 0.930 . S
C424 C423 1.400 1_565 S
C424 C427 1.386 . S
H425 C441 0.930 . S
H426 C442 0.931 . S
C427 H415 0.929 . S
C427 C421 1.377 1_565 S
C427 C424 1.386 . S
C428 C423 1.490 . S
C428 C430 1.395 1_545 S
C428 C431 1.403 . S
H429 C435 0.930 . S
C430 H416 0.930 . S
C430 C428 1.395 1_565 S
C430 C433 1.403 . S
C431 C428 1.403 . S
C431 C432 1.524 . S
C431 C435 1.400 . S
C432 H417 0.960 . S
C432 H418 0.960 . S
C432 H419 0.975 . S
C432 C431 1.524 . S
C433 C430 1.403 . S
C433 C434 1.395 . S
C433 C437 1.495 . S
C434 C433 1.395 . S
C434 C435 1.382 1_565 S
C434 C436 1.478 . S
C435 H429 0.930 . S
C435 C431 1.400 . S
C435 C434 1.382 1_545 S
C436 C434 1.478 . S
C436 C438 1.381 1_565 S
C436 C442 1.383 . S
C437 C433 1.495 . S
C437 H443 0.959 . S
C437 H444 0.961 . S
C437 H445 0.960 1_565 S
C438 C436 1.381 1_545 S
C438 C439 1.394 . S
C438 H446 0.930 . S
C439 C438 1.394 . S
C439 C440 1.366 1_545 S
C439 H447 0.929 . S
C440 C439 1.366 1_565 S
C440 C441 1.395 . S
C441 H425 0.930 . S
C441 C440 1.395 . S
C441 C442 1.379 . S
C442 H426 0.931 . S
C442 C436 1.383 . S
C442 C441 1.379 . S
H443 C437 0.959 . S
H444 C437 0.961 . S
H445 C437 0.960 1_545 S
H446 C438 0.930 . S
H447 C439 0.929 . S
H448 C456 0.929 . S
H449 C458 0.930 . S
H450 C460 0.930 . S
H451 C463 0.929 . S
H452 C466 0.930 . S
H453 C468 0.960 . S
H454 C468 0.960 1_455 S
H455 C468 0.960 . S
C456 H448 0.929 . S
C456 C457 1.392 . S
C456 C458 1.384 . S
C457 C456 1.392 . S
C457 C463 1.375 1_455 S
C458 H449 0.930 . S
C458 C456 1.384 . S
C458 C459 1.372 . S
C459 C458 1.372 . S
C459 C460 1.400 1_455 S
C459 C464 1.490 . S
C460 H450 0.930 . S
C460 C459 1.400 1_655 S
C460 C463 1.386 . S
H461 C477 0.930 . S
H462 C478 0.931 . S
C463 H451 0.929 . S
C463 C457 1.375 1_655 S
C463 C460 1.386 . S
C464 C459 1.490 . S
C464 C466 1.395 . S
C464 C467 1.401 1_455 S
H465 C471 0.930 . S
C466 H452 0.930 . S
C466 C464 1.395 . S
C466 C469 1.403 . S
C467 C464 1.401 1_655 S
C467 C468 1.525 . S
C467 C471 1.400 . S
C468 H453 0.960 . S
C468 H454 0.960 1_655 S
C468 H455 0.960 . S
C468 C467 1.525 . S
C469 C466 1.403 . S
C469 C470 1.392 . S
C469 C473 1.495 . S
C470 C469 1.392 . S
C470 C471 1.385 1_455 S
C470 C472 1.479 . S
C471 H465 0.930 . S
C471 C467 1.400 . S
C471 C470 1.385 1_655 S
C472 C470 1.479 . S
C472 C474 1.405 . S
C472 C478 1.359 1_455 S
C473 C469 1.495 . S
C473 H479 0.959 . S
C473 H480 0.961 1_455 S
C473 H481 0.960 . S
C474 C472 1.405 . S
C474 C475 1.394 . S
C474 H482 0.930 . S
C475 C474 1.394 . S
C475 C476 1.383 . S
C475 H483 0.929 . S
C476 C475 1.383 . S
C476 C477 1.377 1_455 S
C477 H461 0.930 . S
C477 C476 1.377 1_655 S
C477 C478 1.379 . S
C478 H462 0.931 . S
C478 C472 1.359 1_655 S
C478 C477 1.379 . S
H479 C473 0.959 . S
H480 C473 0.961 1_655 S
H481 C473 0.960 . S
H482 C474 0.930 . S
H483 C475 0.929 . S
H484 C492 0.929 . S
H485 C494 0.930 . S
H486 C496 0.930 . S
H487 C499 0.929 . S
H488 C502 0.930 . S
H489 C504 0.961 . S
H490 C504 0.960 . S
H491 C504 0.960 1_545 S
C492 H484 0.929 . S
C492 C493 1.387 . S
C492 C494 1.384 . S
C493 C492 1.387 . S
C493 C499 1.380 1_565 S
C494 H485 0.930 . S
C494 C492 1.384 . S
C494 C495 1.372 . S
C495 C494 1.372 . S
C495 C496 1.400 1_565 S
C495 C500 1.490 . S
C496 H486 0.930 . S
C496 C495 1.400 1_545 S
C496 C499 1.386 . S
H497 C513 0.930 . S
H498 C514 0.931 . S
C499 H487 0.929 . S
C499 C493 1.380 1_545 S
C499 C496 1.386 . S
C500 C495 1.490 . S
C500 C502 1.395 . S
C500 C503 1.403 . S
H501 C507 0.929 1_545 S
C502 H488 0.930 . S
C502 C500 1.395 . S
C502 C505 1.403 . S
C503 C500 1.403 . S
C503 C504 1.524 . S
C503 C507 1.400 . S
C504 H489 0.961 . S
C504 H490 0.960 . S
C504 H491 0.960 1_565 S
C504 C503 1.524 . S
C505 C502 1.403 . S
C505 C506 1.392 . S
C505 C509 1.495 . S
C506 C505 1.392 . S
C506 C507 1.385 . S
C506 C508 1.478 . S
C507 H501 0.929 1_565 S
C507 C503 1.400 . S
C507 C506 1.385 . S
C508 C506 1.478 . S
C508 C510 1.386 . S
C508 C514 1.378 1_565 S
C509 C505 1.495 . S
C509 H515 0.959 . S
C509 H516 0.961 1_565 S
C509 H517 0.960 . S
C510 C508 1.386 . S
C510 C511 1.394 . S
C510 H518 0.930 . S
C511 C510 1.394 . S
C511 C512 1.378 1_565 S
C511 H519 0.929 . S
C512 C511 1.378 1_545 S
C512 C513 1.382 . S
C513 H497 0.930 . S
C513 C512 1.382 . S
C513 C514 1.379 . S
C514 H498 0.931 . S
C514 C508 1.378 1_545 S
C514 C513 1.379 . S
H515 C509 0.959 . S
H516 C509 0.961 1_545 S
H517 C509 0.960 . S
H518 C510 0.930 . S
H519 C511 0.929 . S
H520 C528 0.929 . S
H521 C530 0.930 . S
H522 C532 0.930 . S
H523 C535 0.929 . S
H524 C538 0.930 . S
H525 C540 0.960 . S
H526 C540 0.960 1_556 S
H527 C540 0.960 . S
C528 H520 0.929 . S
C528 C529 1.387 . S
C528 C530 1.384 . S
C529 C528 1.387 . S
C529 C535 1.381 1_556 S
C530 H521 0.930 . S
C530 C528 1.384 . S
C530 C531 1.372 . S
C531 C530 1.372 . S
C531 C532 1.400 1_556 S
C531 C536 1.490 . S
C532 H522 0.930 . S
C532 C531 1.400 1_554 S
C532 C535 1.386 . S
H533 C549 0.930 . S
H534 C550 0.931 . S
C535 H523 0.929 . S
C535 C529 1.381 1_554 S
C535 C532 1.386 . S
C536 C531 1.490 . S
C536 C538 1.395 . S
C536 C539 1.402 1_556 S
H537 C543 0.930 . S
C538 H524 0.930 . S
C538 C536 1.395 . S
C538 C541 1.403 . S
C539 C536 1.402 1_554 S
C539 C540 1.524 . S
C539 C543 1.400 . S
C540 H525 0.960 . S
C540 H526 0.960 1_554 S
C540 H527 0.960 . S
C540 C539 1.524 . S
C541 C538 1.403 . S
C541 C542 1.392 . S
C541 C545 1.495 . S
C542 C541 1.392 . S
C542 C543 1.385 1_556 S
C542 C544 1.478 . S
C543 H537 0.930 . S
C543 C539 1.400 . S
C543 C542 1.385 1_554 S
C544 C542 1.478 . S
C544 C546 1.398 . S
C544 C550 1.366 1_556 S
C545 C541 1.495 . S
C545 H551 0.959 . S
C545 H552 0.961 1_556 S
C545 H553 0.960 . S
C546 C544 1.398 . S
C546 C547 1.394 . S
C546 H554 0.930 . S
C547 C546 1.394 . S
C547 C548 1.383 1_556 S
C547 H555 0.929 . S
C548 C547 1.383 1_554 S
C548 C549 1.377 . S
C549 H533 0.930 . S
C549 C548 1.377 . S
C549 C550 1.379 . S
C550 H534 0.931 . S
C550 C544 1.366 1_554 S
C550 C549 1.379 . S
H551 C545 0.959 . S
H552 C545 0.961 1_554 S
H553 C545 0.960 . S
H554 C546 0.930 . S
H555 C547 0.929 . S
H556 C564 0.929 . S
H557 C566 0.930 . S
H558 C568 0.930 . S
H559 C571 0.929 . S
H560 C574 0.930 . S
H561 C576 0.960 . S
H562 C576 0.960 . S
H563 C576 0.960 1_556 S
C564 H556 0.929 . S
C564 C565 1.392 . S
C564 C566 1.384 . S
C565 C564 1.392 . S
C565 C571 1.376 1_554 S
C566 H557 0.930 . S
C566 C564 1.384 . S
C566 C567 1.372 . S
C567 C566 1.372 . S
C567 C568 1.400 1_554 S
C567 C572 1.490 . S
C568 H558 0.930 . S
C568 C567 1.400 1_556 S
C568 C571 1.386 . S
H569 C585 0.930 . S
H570 C586 0.931 . S
C571 H559 0.929 . S
C571 C565 1.376 1_556 S
C571 C568 1.386 . S
C572 C567 1.490 . S
C572 C574 1.395 . S
C572 C575 1.403 . S
H573 C579 0.930 . S
C574 H560 0.930 . S
C574 C572 1.395 . S
C574 C577 1.403 1_554 S
C575 C572 1.403 . S
C575 C576 1.524 . S
C575 C579 1.400 . S
C576 H561 0.960 . S
C576 H562 0.960 . S
C576 H563 0.960 1_554 S
C576 C575 1.524 . S
C577 C574 1.403 1_556 S
C577 C578 1.392 1_556 S
C577 C581 1.495 . S
C578 C577 1.392 1_554 S
C578 C579 1.387 . S
C578 C580 1.477 1_554 S
C579 H573 0.930 . S
C579 C575 1.400 . S
C579 C578 1.387 . S
C580 C578 1.477 1_556 S
C580 C582 1.380 1_556 S
C580 C586 1.384 . S
C581 C577 1.495 . S
C581 H587 0.959 . S
C581 H588 0.961 . S
C581 H589 0.960 1_556 S
C582 C580 1.380 1_554 S
C582 C583 1.394 . S
C582 H590 0.930 . S
C583 C582 1.394 . S
C583 C584 1.378 1_554 S
C583 H591 0.929 . S
C584 C583 1.378 1_556 S
C584 C585 1.382 . S
C585 H569 0.930 . S
C585 C584 1.382 . S
C585 C586 1.379 . S
C586 H570 0.931 . S
C586 C580 1.384 . S
C586 C585 1.379 . S
H587 C581 0.959 . S
H588 C581 0.961 . S
H589 C581 0.960 1_554 S
H590 C582 0.930 . S
H591 C583 0.929 . S
H592 C600 0.929 . S
H593 C602 0.930 . S
H594 C604 0.930 . S
H595 C607 0.929 . S
H596 C610 0.930 . S
H597 C612 0.960 . S
H598 C612 0.960 . S
H599 C612 0.960 . S
C600 H592 0.929 . S
C600 C601 1.378 1_554 S
C600 C602 1.384 . S
C601 C600 1.378 1_556 S
C601 C607 1.389 . S
C602 H593 0.930 . S
C602 C600 1.384 . S
C602 C603 1.372 . S
C603 C602 1.372 . S
C603 C604 1.400 1_554 S
C603 C608 1.490 . S
C604 H594 0.930 . S
C604 C603 1.400 1_556 S
C604 C607 1.386 . S
H605 C621 0.930 . S
H606 C622 0.931 . S
C607 H595 0.929 . S
C607 C601 1.389 . S
C607 C604 1.386 . S
C608 C603 1.490 . S
C608 C610 1.395 . S
C608 C611 1.403 1_554 S
H609 C615 0.930 . S
C610 H596 0.930 . S
C610 C608 1.395 . S
C610 C613 1.403 . S
C611 C608 1.403 1_556 S
C611 C612 1.524 . S
C611 C615 1.400 . S
C612 H597 0.960 . S
C612 H598 0.960 . S
C612 H599 0.960 . S
C612 C611 1.524 . S
C613 C610 1.403 . S
C613 C614 1.392 . S
C613 C617 1.495 . S
C614 C613 1.392 . S
C614 C615 1.385 1_554 S
C614 C616 1.478 . S
C615 H609 0.930 . S
C615 C611 1.400 . S
C615 C614 1.385 1_556 S
C616 C614 1.478 . S
C616 C618 1.381 . S
C616 C622 1.383 1_554 S
C617 C613 1.495 . S
C617 H623 0.959 . S
C617 H624 0.961 . S
C617 H625 0.960 . S
C618 C616 1.381 . S
C618 C619 1.394 . S
C618 H626 0.930 . S
C619 C618 1.394 . S
C619 C620 1.383 . S
C619 H627 0.929 . S
C620 C619 1.383 . S
C620 C621 1.377 1_554 S
C621 H605 0.930 . S
C621 C620 1.377 1_556 S
C621 C622 1.379 . S
C622 H606 0.931 . S
C622 C616 1.383 1_556 S
C622 C621 1.379 . S
H623 C617 0.959 . S
H624 C617 0.961 . S
H625 C617 0.960 . S
H626 C618 0.930 . S
H627 C619 0.929 . S
H628 C636 0.929 . S
H629 C638 0.930 . S
H630 C640 0.930 . S
H631 C643 0.929 . S
H632 C646 0.930 . S
H633 C648 0.960 . S
H634 C648 0.960 . S
H635 C648 0.960 . S
C636 H628 0.929 . S
C636 C637 1.386 . S
C636 C638 1.384 . S
C637 C636 1.386 . S
C637 C643 1.381 1_556 S
C638 H629 0.930 . S
C638 C636 1.384 . S
C638 C639 1.372 . S
C639 C638 1.372 . S
C639 C640 1.400 1_556 S
C639 C644 1.490 . S
C640 H630 0.930 . S
C640 C639 1.400 1_554 S
C640 C643 1.386 . S
H641 C657 0.930 . S
H642 C658 0.931 . S
C643 H631 0.929 . S
C643 C637 1.381 1_554 S
C643 C640 1.386 . S
C644 C639 1.490 . S
C644 C646 1.395 1_556 S
C644 C647 1.403 . S
H645 C651 0.930 . S
C646 H632 0.930 . S
C646 C644 1.395 1_554 S
C646 C649 1.403 . S
C647 C644 1.403 . S
C647 C648 1.524 . S
C647 C651 1.400 . S
C648 H633 0.960 . S
C648 H634 0.960 . S
C648 H635 0.960 . S
C648 C647 1.524 . S
C649 C646 1.403 . S
C649 C650 1.392 . S
C649 C653 1.495 . S
C650 C649 1.392 . S
C650 C651 1.385 1_554 S
C650 C652 1.478 . S
C651 H645 0.930 . S
C651 C647 1.400 . S
C651 C650 1.385 1_556 S
C652 C650 1.478 . S
C652 C654 1.381 1_554 S
C652 C658 1.383 . S
C653 C649 1.495 . S
C653 H659 0.959 . S
C653 H660 0.961 . S
C653 H661 0.960 . S
C654 C652 1.381 1_556 S
C654 C655 1.394 . S
C654 H662 0.930 . S
C655 C654 1.394 . S
C655 C656 1.383 1_556 S
C655 H663 0.929 . S
C656 C655 1.383 1_554 S
C656 C657 1.377 . S
C657 H641 0.930 . S
C657 C656 1.377 . S
C657 C658 1.379 . S
C658 H642 0.931 . S
C658 C652 1.383 . S
C658 C657 1.379 . S
H659 C653 0.959 . S
H660 C653 0.961 . S
H661 C653 0.960 . S
H662 C654 0.930 . S
H663 C655 0.929 . S
H664 C672 0.929 . S
H665 C674 0.930 . S
H666 C676 0.930 . S
H667 C679 0.929 . S
H668 C682 0.930 . S
H669 C684 0.960 . S
H670 C684 0.960 . S
H671 C684 0.960 . S
C672 H664 0.929 . S
C672 C673 1.377 . S
C672 C674 1.384 . S
C673 C672 1.377 . S
C673 C679 1.390 . S
C674 H665 0.930 . S
C674 C672 1.384 . S
C674 C675 1.372 . S
C675 C674 1.372 . S
C675 C676 1.400 . S
C675 C680 1.490 . S
C676 H666 0.930 . S
C676 C675 1.400 . S
C676 C679 1.386 . S
H677 C693 0.930 . S
H678 C694 0.931 . S
C679 H667 0.929 . S
C679 C673 1.390 . S
C679 C676 1.386 . S
C680 C675 1.490 . S
C680 C682 1.395 . S
C680 C683 1.403 . S
H681 C687 0.930 . S
C682 H668 0.930 . S
C682 C680 1.395 . S
C682 C685 1.403 . S
C683 C680 1.403 . S
C683 C684 1.524 . S
C683 C687 1.400 . S
C684 H669 0.960 . S
C684 H670 0.960 . S
C684 H671 0.960 . S
C684 C683 1.524 . S
C685 C682 1.403 . S
C685 C686 1.392 . S
C685 C689 1.495 . S
C686 C685 1.392 . S
C686 C687 1.385 . S
C686 C688 1.478 . S
C687 H681 0.930 . S
C687 C683 1.400 . S
C687 C686 1.385 . S
C688 C686 1.478 . S
C688 C690 1.381 . S
C688 C694 1.383 . S
C689 C685 1.495 . S
C689 H695 0.959 . S
C689 H696 0.961 . S
C689 H697 0.960 . S
C690 C688 1.381 . S
C690 C691 1.394 . S
C690 H698 0.930 . S
C691 C690 1.394 . S
C691 C692 1.383 . S
C691 H699 0.929 . S
C692 C691 1.383 . S
C692 C693 1.377 . S
C693 H677 0.930 . S
C693 C692 1.377 . S
C693 C694 1.379 . S
C694 H678 0.931 . S
C694 C688 1.383 . S
C694 C693 1.379 . S
H695 C689 0.959 . S
H696 C689 0.961 . S
H697 C689 0.960 . S
H698 C690 0.930 . S
H699 C691 0.929 . S
H700 C708 0.929 . S
H701 C710 0.930 . S
H702 C712 0.930 . S
H703 C715 0.929 . S
H704 C718 0.930 . S
H705 C720 0.960 . S
H706 C720 0.960 . S
H707 C720 0.960 . S
C708 H700 0.929 . S
C708 C709 1.377 . S
C708 C710 1.384 . S
C709 C708 1.377 . S
C709 C715 1.390 . S
C710 H701 0.930 . S
C710 C708 1.384 . S
C710 C711 1.372 . S
C711 C710 1.372 . S
C711 C712 1.400 . S
C711 C716 1.490 . S
C712 H702 0.930 . S
C712 C711 1.400 . S
C712 C715 1.386 . S
H713 C729 0.930 . S
H714 C730 0.931 . S
C715 H703 0.929 . S
C715 C709 1.390 . S
C715 C712 1.386 . S
C716 C711 1.490 . S
C716 C718 1.395 . S
C716 C719 1.403 . S
H717 C723 0.930 . S
C718 H704 0.930 . S
C718 C716 1.395 . S
C718 C721 1.403 . S
C719 C716 1.403 . S
C719 C720 1.524 . S
C719 C723 1.400 . S
C720 H705 0.960 . S
C720 H706 0.960 . S
C720 H707 0.960 . S
C720 C719 1.524 . S
C721 C718 1.403 . S
C721 C722 1.392 . S
C721 C725 1.495 . S
C722 C721 1.392 . S
C722 C723 1.385 . S
C722 C724 1.478 . S
C723 H717 0.930 . S
C723 C719 1.400 . S
C723 C722 1.385 . S
C724 C722 1.478 . S
C724 C726 1.381 . S
C724 C730 1.383 . S
C725 C721 1.495 . S
C725 H731 0.959 . S
C725 H732 0.961 . S
C725 H733 0.960 . S
C726 C724 1.381 . S
C726 C727 1.394 . S
C726 H734 0.930 . S
C727 C726 1.394 . S
C727 C728 1.383 . S
C727 H735 0.929 . S
C728 C727 1.383 . S
C728 C729 1.377 . S
C729 H713 0.930 . S
C729 C728 1.377 . S
C729 C730 1.379 . S
C730 H714 0.931 . S
C730 C724 1.383 . S
C730 C729 1.379 . S
H731 C725 0.959 . S
H732 C725 0.961 . S
H733 C725 0.960 . S
H734 C726 0.930 . S
H735 C727 0.929 . S
H736 C744 0.929 . S
H737 C746 0.930 . S
H738 C748 0.930 . S
H739 C751 0.929 . S
H740 C754 0.930 . S
H741 C756 0.960 . S
H742 C756 0.960 . S
H743 C756 0.960 . S
C744 H736 0.929 . S
C744 C745 1.377 . S
C744 C746 1.384 . S
C745 C744 1.377 . S
C745 C751 1.390 . S
C746 H737 0.930 . S
C746 C744 1.384 . S
C746 C747 1.372 . S
C747 C746 1.372 . S
C747 C748 1.400 . S
C747 C752 1.490 . S
C748 H738 0.930 . S
C748 C747 1.400 . S
C748 C751 1.386 . S
H749 C765 0.930 . S
H750 C766 0.931 . S
C751 H739 0.929 . S
C751 C745 1.390 . S
C751 C748 1.386 . S
C752 C747 1.490 . S
C752 C754 1.395 . S
C752 C755 1.403 . S
H753 C759 0.930 . S
C754 H740 0.930 . S
C754 C752 1.395 . S
C754 C757 1.403 . S
C755 C752 1.403 . S
C755 C756 1.524 . S
C755 C759 1.400 . S
C756 H741 0.960 . S
C756 H742 0.960 . S
C756 H743 0.960 . S
C756 C755 1.524 . S
C757 C754 1.403 . S
C757 C758 1.392 . S
C757 C761 1.495 . S
C758 C757 1.392 . S
C758 C759 1.385 . S
C758 C760 1.478 . S
C759 H753 0.930 . S
C759 C755 1.400 . S
C759 C758 1.385 . S
C760 C758 1.478 . S
C760 C762 1.381 . S
C760 C766 1.383 . S
C761 C757 1.495 . S
C761 H767 0.959 . S
C761 H768 0.961 . S
C761 H769 0.960 . S
C762 C760 1.381 . S
C762 C763 1.394 . S
C762 H770 0.930 . S
C763 C762 1.394 . S
C763 C764 1.383 . S
C763 H771 0.929 . S
C764 C763 1.383 . S
C764 C765 1.377 . S
C765 H749 0.930 . S
C765 C764 1.377 . S
C765 C766 1.379 . S
C766 H750 0.931 . S
C766 C760 1.383 . S
C766 C765 1.379 . S
H767 C761 0.959 . S
H768 C761 0.961 . S
H769 C761 0.960 . S
H770 C762 0.930 . S
H771 C763 0.929 . S
H772 C780 0.929 . S
H773 C782 0.930 . S
H774 C784 0.930 . S
H775 C787 0.929 . S
H776 C790 0.930 . S
H777 C792 0.960 . S
H778 C792 0.960 . S
H779 C792 0.960 . S
C780 H772 0.929 . S
C780 C781 1.377 . S
C780 C782 1.384 . S
C781 C780 1.377 . S
C781 C787 1.390 . S
C782 H773 0.930 . S
C782 C780 1.384 . S
C782 C783 1.372 . S
C783 C782 1.372 . S
C783 C784 1.400 . S
C783 C788 1.490 . S
C784 H774 0.930 . S
C784 C783 1.400 . S
C784 C787 1.386 . S
H785 C801 0.930 . S
H786 C802 0.931 . S
C787 H775 0.929 . S
C787 C781 1.390 . S
C787 C784 1.386 . S
C788 C783 1.490 . S
C788 C790 1.395 . S
C788 C791 1.403 . S
H789 C795 0.930 . S
C790 H776 0.930 . S
C790 C788 1.395 . S
C790 C793 1.403 . S
C791 C788 1.403 . S
C791 C792 1.524 . S
C791 C795 1.400 . S
C792 H777 0.960 . S
C792 H778 0.960 . S
C792 H779 0.960 . S
C792 C791 1.524 . S
C793 C790 1.403 . S
C793 C794 1.392 . S
C793 C797 1.495 . S
C794 C793 1.392 . S
C794 C795 1.385 . S
C794 C796 1.478 . S
C795 H789 0.930 . S
C795 C791 1.400 . S
C795 C794 1.385 . S
C796 C794 1.478 . S
C796 C798 1.381 . S
C796 C802 1.383 . S
C797 C793 1.495 . S
C797 H803 0.959 . S
C797 H804 0.961 . S
C797 H805 0.960 . S
C798 C796 1.381 . S
C798 C799 1.394 . S
C798 H806 0.930 . S
C799 C798 1.394 . S
C799 C800 1.383 . S
C799 H807 0.929 . S
C800 C799 1.383 . S
C800 C801 1.377 . S
C801 H785 0.930 . S
C801 C800 1.377 . S
C801 C802 1.379 . S
C802 H786 0.931 . S
C802 C796 1.383 . S
C802 C801 1.379 . S
H803 C797 0.959 . S
H804 C797 0.961 . S
H805 C797 0.960 . S
H806 C798 0.930 . S
H807 C799 0.929 . S
H808 C816 0.929 . S
H809 C818 0.930 . S
H810 C820 0.930 . S
H811 C823 0.929 . S
H812 C826 0.930 . S
H813 C828 0.960 . S
H814 C828 0.960 . S
H815 C828 0.960 . S
C816 H808 0.929 . S
C816 C817 1.377 . S
C816 C818 1.384 . S
C817 C816 1.377 . S
C817 C823 1.390 . S
C818 H809 0.930 . S
C818 C816 1.384 . S
C818 C819 1.372 . S
C819 C818 1.372 . S
C819 C820 1.400 . S
C819 C824 1.490 . S
C820 H810 0.930 . S
C820 C819 1.400 . S
C820 C823 1.386 . S
H821 C837 0.930 . S
H822 C838 0.931 . S
C823 H811 0.929 . S
C823 C817 1.390 . S
C823 C820 1.386 . S
C824 C819 1.490 . S
C824 C826 1.395 . S
C824 C827 1.403 . S
H825 C831 0.930 . S
C826 H812 0.930 . S
C826 C824 1.395 . S
C826 C829 1.403 . S
C827 C824 1.403 . S
C827 C828 1.524 . S
C827 C831 1.400 . S
C828 H813 0.960 . S
C828 H814 0.960 . S
C828 H815 0.960 . S
C828 C827 1.524 . S
C829 C826 1.403 . S
C829 C830 1.392 . S
C829 C833 1.495 . S
C830 C829 1.392 . S
C830 C831 1.385 . S
C830 C832 1.478 . S
C831 H825 0.930 . S
C831 C827 1.400 . S
C831 C830 1.385 . S
C832 C830 1.478 . S
C832 C834 1.381 . S
C832 C838 1.383 . S
C833 C829 1.495 . S
C833 H839 0.959 . S
C833 H840 0.961 . S
C833 H841 0.960 . S
C834 C832 1.381 . S
C834 C835 1.394 . S
C834 H842 0.930 . S
C835 C834 1.394 . S
C835 C836 1.383 . S
C835 H843 0.929 . S
C836 C835 1.383 . S
C836 C837 1.377 . S
C837 H821 0.930 . S
C837 C836 1.377 . S
C837 C838 1.379 . S
C838 H822 0.931 . S
C838 C832 1.383 . S
C838 C837 1.379 . S
H839 C833 0.959 . S
H840 C833 0.961 . S
H841 C833 0.960 . S
H842 C834 0.930 . S
H843 C835 0.929 . S
H844 C852 0.929 . S
H845 C854 0.930 . S
H846 C856 0.930 . S
H847 C859 0.929 . S
H848 C862 0.930 . S
H849 C864 0.960 . S
H850 C864 0.960 . S
H851 C864 0.960 . S
C852 H844 0.929 . S
C852 C853 1.377 . S
C852 C854 1.384 . S
C853 C852 1.377 . S
C853 C859 1.390 . S
C854 H845 0.930 . S
C854 C852 1.384 . S
C854 C855 1.372 . S
C855 C854 1.372 . S
C855 C856 1.400 . S
C855 C860 1.490 . S
C856 H846 0.930 . S
C856 C855 1.400 . S
C856 C859 1.386 . S
H857 C873 0.930 . S
H858 C874 0.931 . S
C859 H847 0.929 . S
C859 C853 1.390 . S
C859 C856 1.386 . S
C860 C855 1.490 . S
C860 C862 1.395 . S
C860 C863 1.403 . S
H861 C867 0.930 . S
C862 H848 0.930 . S
C862 C860 1.395 . S
C862 C865 1.403 . S
C863 C860 1.403 . S
C863 C864 1.524 . S
C863 C867 1.400 . S
C864 H849 0.960 . S
C864 H850 0.960 . S
C864 H851 0.960 . S
C864 C863 1.524 . S
C865 C862 1.403 . S
C865 C866 1.392 . S
C865 C869 1.495 . S
C866 C865 1.392 . S
C866 C867 1.385 . S
C866 C868 1.478 . S
C867 H861 0.930 . S
C867 C863 1.400 . S
C867 C866 1.385 . S
C868 C866 1.478 . S
C868 C870 1.381 . S
C868 C874 1.383 . S
C869 C865 1.495 . S
C869 H875 0.959 . S
C869 H876 0.961 . S
C869 H877 0.960 . S
C870 C868 1.381 . S
C870 C871 1.394 . S
C870 H878 0.930 . S
C871 C870 1.394 . S
C871 C872 1.383 . S
C871 H879 0.929 . S
C872 C871 1.383 . S
C872 C873 1.377 . S
C873 H857 0.930 . S
C873 C872 1.377 . S
C873 C874 1.379 . S
C874 H858 0.931 . S
C874 C868 1.383 . S
C874 C873 1.379 . S
H875 C869 0.959 . S
H876 C869 0.961 . S
H877 C869 0.960 . S
H878 C870 0.930 . S
H879 C871 0.929 . S
H880 C888 0.929 . S
H881 C890 0.930 . S
H882 C892 0.930 . S
H883 C895 0.929 . S
H884 C898 0.930 . S
H885 C900 0.960 . S
H886 C900 0.960 . S
H887 C900 0.960 . S
C888 H880 0.929 . S
C888 C889 1.377 . S
C888 C890 1.384 . S
C889 C888 1.377 . S
C889 C895 1.390 . S
C890 H881 0.930 . S
C890 C888 1.384 . S
C890 C891 1.372 . S
C891 C890 1.372 . S
C891 C892 1.400 . S
C891 C896 1.490 . S
C892 H882 0.930 . S
C892 C891 1.400 . S
C892 C895 1.386 . S
H893 C909 0.930 . S
H894 C910 0.931 . S
C895 H883 0.929 . S
C895 C889 1.390 . S
C895 C892 1.386 . S
C896 C891 1.490 . S
C896 C898 1.395 . S
C896 C899 1.403 . S
H897 C903 0.930 . S
C898 H884 0.930 . S
C898 C896 1.395 . S
C898 C901 1.403 . S
C899 C896 1.403 . S
C899 C900 1.524 . S
C899 C903 1.400 . S
C900 H885 0.960 . S
C900 H886 0.960 . S
C900 H887 0.960 . S
C900 C899 1.524 . S
C901 C898 1.403 . S
C901 C902 1.392 . S
C901 C905 1.495 . S
C902 C901 1.392 . S
C902 C903 1.385 . S
C902 C904 1.478 . S
C903 H897 0.930 . S
C903 C899 1.400 . S
C903 C902 1.385 . S
C904 C902 1.478 . S
C904 C906 1.381 . S
C904 C910 1.383 . S
C905 C901 1.495 . S
C905 H911 0.959 . S
C905 H912 0.961 . S
C905 H913 0.960 . S
C906 C904 1.381 . S
C906 C907 1.394 . S
C906 H914 0.930 . S
C907 C906 1.394 . S
C907 C908 1.383 . S
C907 H915 0.929 . S
C908 C907 1.383 . S
C908 C909 1.377 . S
C909 H893 0.930 . S
C909 C908 1.377 . S
C909 C910 1.379 . S
C910 H894 0.931 . S
C910 C904 1.383 . S
C910 C909 1.379 . S
H911 C905 0.959 . S
H912 C905 0.961 . S
H913 C905 0.960 . S
H914 C906 0.930 . S
H915 C907 0.929 . S
H916 C924 0.929 . S
H917 C926 0.930 . S
H918 C928 0.930 . S
H919 C931 0.929 . S
H920 C934 0.930 . S
H921 C936 0.960 . S
H922 C936 0.960 . S
H923 C936 0.960 . S
C924 H916 0.929 . S
C924 C925 1.377 . S
C924 C926 1.384 . S
C925 C924 1.377 . S
C925 C931 1.390 . S
C926 H917 0.930 . S
C926 C924 1.384 . S
C926 C927 1.372 . S
C927 C926 1.372 . S
C927 C928 1.400 . S
C927 C932 1.490 . S
C928 H918 0.930 . S
C928 C927 1.400 . S
C928 C931 1.386 . S
H929 C945 0.930 . S
H930 C946 0.931 . S
C931 H919 0.929 . S
C931 C925 1.390 . S
C931 C928 1.386 . S
C932 C927 1.490 . S
C932 C934 1.395 . S
C932 C935 1.403 . S
H933 C939 0.930 . S
C934 H920 0.930 . S
C934 C932 1.395 . S
C934 C937 1.403 . S
C935 C932 1.403 . S
C935 C936 1.524 . S
C935 C939 1.400 . S
C936 H921 0.960 . S
C936 H922 0.960 . S
C936 H923 0.960 . S
C936 C935 1.524 . S
C937 C934 1.403 . S
C937 C938 1.392 . S
C937 C941 1.495 . S
C938 C937 1.392 . S
C938 C939 1.385 . S
C938 C940 1.478 . S
C939 H933 0.930 . S
C939 C935 1.400 . S
C939 C938 1.385 . S
C940 C938 1.478 . S
C940 C942 1.381 . S
C940 C946 1.383 . S
C941 C937 1.495 . S
C941 H947 0.959 . S
C941 H948 0.961 . S
C941 H949 0.960 . S
C942 C940 1.381 . S
C942 C943 1.394 . S
C942 H950 0.930 . S
C943 C942 1.394 . S
C943 C944 1.383 . S
C943 H951 0.929 . S
C944 C943 1.383 . S
C944 C945 1.377 . S
C945 H929 0.930 . S
C945 C944 1.377 . S
C945 C946 1.379 . S
C946 H930 0.931 . S
C946 C940 1.383 . S
C946 C945 1.379 . S
H947 C941 0.959 . S
H948 C941 0.961 . S
H949 C941 0.960 . S
H950 C942 0.930 . S
H951 C943 0.929 . S
H952 C960 0.929 . S
H953 C962 0.930 . S
H954 C964 0.930 . S
H955 C967 0.929 . S
H956 C970 0.930 . S
H957 C972 0.960 . S
H958 C972 0.960 . S
H959 C972 0.960 . S
C960 H952 0.929 . S
C960 C961 1.377 . S
C960 C962 1.384 . S
C961 C960 1.377 . S
C961 C967 1.390 . S
C962 H953 0.930 . S
C962 C960 1.384 . S
C962 C963 1.372 . S
C963 C962 1.372 . S
C963 C964 1.400 . S
C963 C968 1.490 . S
C964 H954 0.930 . S
C964 C963 1.400 . S
C964 C967 1.386 . S
H965 C981 0.930 . S
H966 C982 0.931 . S
C967 H955 0.929 . S
C967 C961 1.390 . S
C967 C964 1.386 . S
C968 C963 1.490 . S
C968 C970 1.395 . S
C968 C971 1.403 . S
H969 C975 0.930 . S
C970 H956 0.930 . S
C970 C968 1.395 . S
C970 C973 1.403 . S
C971 C968 1.403 . S
C971 C972 1.524 . S
C971 C975 1.400 . S
C972 H957 0.960 . S
C972 H958 0.960 . S
C972 H959 0.960 . S
C972 C971 1.524 . S
C973 C970 1.403 . S
C973 C974 1.392 . S
C973 C977 1.495 . S
C974 C973 1.392 . S
C974 C975 1.385 . S
C974 C976 1.478 . S
C975 H969 0.930 . S
C975 C971 1.400 . S
C975 C974 1.385 . S
C976 C974 1.478 . S
C976 C978 1.381 . S
C976 C982 1.383 . S
C977 C973 1.495 . S
C977 H983 0.959 . S
C977 H984 0.961 . S
C977 H985 0.960 . S
C978 C976 1.381 . S
C978 C979 1.394 . S
C978 H986 0.930 . S
C979 C978 1.394 . S
C979 C980 1.383 . S
C979 H987 0.929 . S
C980 C979 1.383 . S
C980 C981 1.377 . S
C981 H965 0.930 . S
C981 C980 1.377 . S
C981 C982 1.379 . S
C982 H966 0.931 . S
C982 C976 1.383 . S
C982 C981 1.379 . S
H983 C977 0.959 . S
H984 C977 0.961 . S
H985 C977 0.960 . S
H986 C978 0.930 . S
H987 C979 0.929 . S
H988 C996 0.929 . S
H989 C998 0.930 . S
H990 C1000 0.930 . S
H991 C1003 0.929 . S
H992 C1006 0.930 . S
H993 C1008 0.960 . S
H994 C1008 0.960 . S
H995 C1008 0.960 . S
C996 H988 0.929 . S
C996 C997 1.377 . S
C996 C998 1.384 . S
C997 C996 1.377 . S
C997 C1003 1.390 . S
C998 H989 0.930 . S
C998 C996 1.384 . S
C998 C999 1.372 . S
C999 C998 1.372 . S
C999 C1000 1.400 . S
C999 C1004 1.490 . S
C1000 H990 0.930 . S
C1000 C999 1.400 . S
C1000 C1003 1.386 . S
H1001 C1017 0.930 . S
H1002 C1018 0.931 . S
C1003 H991 0.929 . S
C1003 C997 1.390 . S
C1003 C1000 1.386 . S
C1004 C999 1.490 . S
C1004 C1006 1.395 . S
C1004 C1007 1.403 . S
H1005 C1011 0.930 . S
C1006 H992 0.930 . S
C1006 C1004 1.395 . S
C1006 C1009 1.403 . S
C1007 C1004 1.403 . S
C1007 C1008 1.524 . S
C1007 C1011 1.400 . S
C1008 H993 0.960 . S
C1008 H994 0.960 . S
C1008 H995 0.960 . S
C1008 C1007 1.524 . S
C1009 C1006 1.403 . S
C1009 C1010 1.392 . S
C1009 C1013 1.495 . S
C1010 C1009 1.392 . S
C1010 C1011 1.385 . S
C1010 C1012 1.478 . S
C1011 H1005 0.930 . S
C1011 C1007 1.400 . S
C1011 C1010 1.385 . S
C1012 C1010 1.478 . S
C1012 C1014 1.381 . S
C1012 C1018 1.383 . S
C1013 C1009 1.495 . S
C1013 H1019 0.959 . S
C1013 H1020 0.961 . S
C1013 H1021 0.960 . S
C1014 C1012 1.381 . S
C1014 C1015 1.394 . S
C1014 H1022 0.930 . S
C1015 C1014 1.394 . S
C1015 C1016 1.383 . S
C1015 H1023 0.929 . S
C1016 C1015 1.383 . S
C1016 C1017 1.377 . S
C1017 H1001 0.930 . S
C1017 C1016 1.377 . S
C1017 C1018 1.379 . S
C1018 H1002 0.931 . S
C1018 C1012 1.383 . S
C1018 C1017 1.379 . S
H1019 C1013 0.959 . S
H1020 C1013 0.961 . S
H1021 C1013 0.960 . S
H1022 C1014 0.930 . S
H1023 C1015 0.929 . S
H1024 C1032 0.929 . S
H1025 C1034 0.930 . S
H1026 C1036 0.930 . S
H1027 C1039 0.929 . S
H1028 C1042 0.930 . S
H1029 C1044 0.960 . S
H1030 C1044 0.960 . S
H1031 C1044 0.960 . S
C1032 H1024 0.929 . S
C1032 C1033 1.377 . S
C1032 C1034 1.384 . S
C1033 C1032 1.377 . S
C1033 C1039 1.390 . S
C1034 H1025 0.930 . S
C1034 C1032 1.384 . S
C1034 C1035 1.372 . S
C1035 C1034 1.372 . S
C1035 C1036 1.400 . S
C1035 C1040 1.490 . S
C1036 H1026 0.930 . S
C1036 C1035 1.400 . S
C1036 C1039 1.386 . S
H1037 C1053 0.930 . S
H1038 C1054 0.931 . S
C1039 H1027 0.929 . S
C1039 C1033 1.390 . S
C1039 C1036 1.386 . S
C1040 C1035 1.490 . S
C1040 C1042 1.395 . S
C1040 C1043 1.403 . S
H1041 C1047 0.930 . S
C1042 H1028 0.930 . S
C1042 C1040 1.395 . S
C1042 C1045 1.403 . S
C1043 C1040 1.403 . S
C1043 C1044 1.524 . S
C1043 C1047 1.400 . S
C1044 H1029 0.960 . S
C1044 H1030 0.960 . S
C1044 H1031 0.960 . S
C1044 C1043 1.524 . S
C1045 C1042 1.403 . S
C1045 C1046 1.392 . S
C1045 C1049 1.495 . S
C1046 C1045 1.392 . S
C1046 C1047 1.385 . S
C1046 C1048 1.478 . S
C1047 H1041 0.930 . S
C1047 C1043 1.400 . S
C1047 C1046 1.385 . S
C1048 C1046 1.478 . S
C1048 C1050 1.381 . S
C1048 C1054 1.383 . S
C1049 C1045 1.495 . S
C1049 H1055 0.959 . S
C1049 H1056 0.961 . S
C1049 H1057 0.960 . S
C1050 C1048 1.381 . S
C1050 C1051 1.394 . S
C1050 H1058 0.930 . S
C1051 C1050 1.394 . S
C1051 C1052 1.383 . S
C1051 H1059 0.929 . S
C1052 C1051 1.383 . S
C1052 C1053 1.377 . S
C1053 H1037 0.930 . S
C1053 C1052 1.377 . S
C1053 C1054 1.379 . S
C1054 H1038 0.931 . S
C1054 C1048 1.383 . S
C1054 C1053 1.379 . S
H1055 C1049 0.959 . S
H1056 C1049 0.961 . S
H1057 C1049 0.960 . S
H1058 C1050 0.930 . S
H1059 C1051 0.929 . S
H1060 C1068 0.929 . S
H1061 C1070 0.930 . S
H1062 C1072 0.930 . S
H1063 C1075 0.929 . S
H1064 C1078 0.930 . S
H1065 C1080 0.960 . S
H1066 C1080 0.960 . S
H1067 C1080 0.960 . S
C1068 H1060 0.929 . S
C1068 C1069 1.377 . S
C1068 C1070 1.384 . S
C1069 C1068 1.377 . S
C1069 C1075 1.390 . S
C1070 H1061 0.930 . S
C1070 C1068 1.384 . S
C1070 C1071 1.372 . S
C1071 C1070 1.372 . S
C1071 C1072 1.400 . S
C1071 C1076 1.490 . S
C1072 H1062 0.930 . S
C1072 C1071 1.400 . S
C1072 C1075 1.386 . S
H1073 C1089 0.930 . S
H1074 C1090 0.931 . S
C1075 H1063 0.929 . S
C1075 C1069 1.390 . S
C1075 C1072 1.386 . S
C1076 C1071 1.490 . S
C1076 C1078 1.395 . S
C1076 C1079 1.403 . S
H1077 C1083 0.930 . S
C1078 H1064 0.930 . S
C1078 C1076 1.395 . S
C1078 C1081 1.403 . S
C1079 C1076 1.403 . S
C1079 C1080 1.524 . S
C1079 C1083 1.400 . S
C1080 H1065 0.960 . S
C1080 H1066 0.960 . S
C1080 H1067 0.960 . S
C1080 C1079 1.524 . S
C1081 C1078 1.403 . S
C1081 C1082 1.392 . S
C1081 C1085 1.495 . S
C1082 C1081 1.392 . S
C1082 C1083 1.385 . S
C1082 C1084 1.478 . S
C1083 H1077 0.930 . S
C1083 C1079 1.400 . S
C1083 C1082 1.385 . S
C1084 C1082 1.478 . S
C1084 C1086 1.381 . S
C1084 C1090 1.383 . S
C1085 C1081 1.495 . S
C1085 H1091 0.959 . S
C1085 H1092 0.961 . S
C1085 H1093 0.960 . S
C1086 C1084 1.381 . S
C1086 C1087 1.394 . S
C1086 H1094 0.930 . S
C1087 C1086 1.394 . S
C1087 C1088 1.383 . S
C1087 H1095 0.929 . S
C1088 C1087 1.383 . S
C1088 C1089 1.377 . S
C1089 H1073 0.930 . S
C1089 C1088 1.377 . S
C1089 C1090 1.379 . S
C1090 H1074 0.931 . S
C1090 C1084 1.383 . S
C1090 C1089 1.379 . S
H1091 C1085 0.959 . S
H1092 C1085 0.961 . S
H1093 C1085 0.960 . S
H1094 C1086 0.930 . S
H1095 C1087 0.929 . S
C241 C51 1.500 1_655 S
C260 C108 1.492 . S
C277 C56 1.500 1_565 S
C296 C173 1.497 . S
C313 C53 1.500 . S
C332 C110 1.497 1_655 S
C349 C170 1.500 1_565 S
C368 C55 1.492 . S
C385 C50 1.500 . S
C404 C109 1.501 1_655 S
C421 C57 1.500 . S
C440 C172 1.497 1_565 S
C457 C111 1.500 . S
C476 C52 1.496 . S
C493 C171 1.500 1_565 S
C512 C54 1.501 . S
C529 C220 1.500 1_556 S
C548 C47 1.492 . S
C565 C223 1.500 . S
C584 C48 1.496 1_556 S
C601 C222 1.500 1_556 S
C620 C49 1.497 . S
C637 C46 1.500 1_556 S
C656 C221 1.501 . S
C673 C231 1.500 . S
C692 C114 1.501 . S
C709 C113 1.500 . S
C728 C228 1.496 . S
C745 C115 1.500 . S
C764 C230 1.492 . S
C781 C229 1.500 . S
C800 C112 1.497 . S
C817 C162 1.500 . S
C836 C105 1.497 . S
C853 C106 1.500 . S
C872 C165 1.492 . S
C889 C107 1.500 . S
C908 C164 1.501 . S
C925 C163 1.500 . S
C944 C104 1.497 . S
C961 C224 1.500 . S
C980 C167 1.496 . S
C997 C169 1.500 . S
C1016 C226 1.501 . S
C1033 C225 1.500 . S
C1052 C166 1.496 . S
C1069 C168 1.500 . S
C1088 C227 1.492 . S
