# Generated by pormake.
# Topology sxc, (6)-cn, num edge types: 1
# Building blocks:
#     Node 0, Type 0, BuildingBlock: JUFBIX_clean_sbu_0, # of connection points: 6
#     Node 1, Type 0, BuildingBlock: JUFBIX_clean_sbu_0, # of connection points: 6
#     Node 2, Type 0, BuildingBlock: JUFBIX_clean_sbu_0, # of connection points: 6
#     Edge 3, Type (0, 0), BuildingBlock: FUNLAD_clean_linker_1, # of connection points: 2
#     Edge 4, Type (0, 0), BuildingBlock: FUNLAD_clean_linker_1, # of connection points: 2
#     Edge 5, Type (0, 0), BuildingBlock: FUNLAD_clean_linker_1, # of connection points: 2
#     Edge 6, Type (0, 0), BuildingBlock: FUNLAD_clean_linker_1, # of connection points: 2
#     Edge 7, Type (0, 0), BuildingBlock: FUNLAD_clean_linker_1, # of connection points: 2
#     Edge 8, Type (0, 0), BuildingBlock: FUNLAD_clean_linker_1, # of connection points: 2
#     Edge 9, Type (0, 0), BuildingBlock: FUNLAD_clean_linker_1, # of connection points: 2
#     Edge 10, Type (0, 0), BuildingBlock: FUNLAD_clean_linker_1, # of connection points: 2
#     Edge 11, Type (0, 0), BuildingBlock: FUNLAD_clean_linker_1, # of connection points: 2
# Relax obj value: 0.459
# Max RMSD: 0.153
# Mean RMSD: 0.152
data_MOF--net-sxc--node1-JUFBIX_clean_sbu_0--edge1-FUNLAD_clean_linker_1
_symmetry_space_group_name_H-M    P1
_symmetry_Int_Tables_number       1
_symmetry_cell_setting            triclinic
loop_
_symmetry_equiv_pos_as_xyz
'x, y, z'
_cell_length_a     15.783249
_cell_length_b     15.702798
_cell_length_c     45.938461
_cell_angle_alpha  96.258656
_cell_angle_beta   88.025052
_cell_angle_gamma 118.82376
loop_
_atom_site_label
_atom_site_type_symbol
_atom_site_fract_x
_atom_site_fract_y
_atom_site_fract_z
_atom_type_partial_charge
Co0 Co 0.12833 1.02694 0.01729 0.0
C1 C 1.0657 1.04175 0.96374 0.0
Co2 Co 1.02571 0.08384 0.02155 0.0
C3 C 0.21729 0.91601 0.03126 0.0
C4 C 0.28653 0.99841 0.99532 0.0
N5 N 0.21456 0.97966 1.01456 0.0
N6 N 0.28656 0.89249 0.02298 0.0
C7 C 0.33018 0.9434 1.00019 0.0
H8 H 0.16423 0.8813 0.04769 0.0
H9 H 0.30326 1.0456 0.97809 0.0
C10 C 1.08771 0.06856 0.07509 0.0
N11 N 0.94004 0.13183 0.02428 0.0
C12 C 0.94063 0.19851 1.00821 0.0
C13 C 0.86762 0.11343 0.04332 0.0
N14 N 0.87324 0.22444 0.01675 0.0
C15 C 0.82723 0.17185 0.03903 0.0
C16 C 0.92989 0.87862 0.01863 0.0
O17 O 0.13685 1.03777 0.05919 0.0
O18 O 1.03286 0.09291 0.06296 0.0
O19 O 0.91654 0.95271 0.02087 0.0
O20 O 1.01705 0.89346 0.01679 0.0
O21 O 1.01858 0.07471 0.97972 0.0
H22 H 0.84891 1.06465 0.06019 0.0
H23 H 0.99526 0.23399 0.99225 0.0
O24 O 0.11961 1.01593 0.97579 0.0
O25 O 0.23747 0.1582 0.01751 0.0
O26 O 0.13709 0.21736 0.02257 0.0
C27 C 0.22416 0.23232 0.0203 0.0
H28 H 0.38482 0.9362 0.98689 0.0
H29 H 0.77348 0.18027 0.05246 0.0
Co30 Co 0.28571 0.156 0.35546 0.0
C31 C 0.21098 0.10913 0.29863 0.0
Co32 Co 0.12772 0.08758 0.35331 0.0
C33 C 0.48219 0.23393 0.37552 0.0
C34 C 0.46853 0.31281 0.3425 0.0
N35 N 0.41747 0.23416 0.35734 0.0
N36 N 0.57164 0.30864 0.37248 0.0
C37 C 0.56363 0.35862 0.3517 0.0
H38 H 0.46496 0.17744 0.3898 0.0
H39 H 0.4385 0.33511 0.32593 0.0
C40 C 0.20325 0.13586 0.41014 0.0
N41 N 0.99597 1.00908 0.3517 0.0
C42 C 0.93053 1.00633 0.33314 0.0
C43 C 0.94601 0.93179 0.36715 0.0
N44 N 0.8417 0.93099 0.33654 0.0
C45 C 0.85097 0.88363 0.3579 0.0
C46 C 0.2116 0.95979 0.35339 0.0
O47 O 0.28274 0.16377 0.397 0.0
O48 O 0.12502 0.09997 0.39523 0.0
O49 O 0.13695 0.97034 0.35301 0.0
O50 O 0.29456 1.03583 0.35433 0.0
O51 O 0.13062 0.0763 0.31159 0.0
H52 H 0.97683 0.91179 0.38413 0.0
H53 H 0.94682 1.06096 0.31825 0.0
O54 O 0.28886 0.14778 0.31375 0.0
O55 O 0.27634 0.27359 0.35678 0.0
O56 O 0.11877 0.20702 0.35335 0.0
C57 C 0.20148 0.28347 0.35534 0.0
H58 H 0.62306 0.42026 0.34271 0.0
H59 H 0.79236 0.82218 0.36721 0.0
Co60 Co 1.0783 0.99962 0.67564 0.0
C61 C 0.13962 0.13706 0.63586 0.0
Co62 Co 0.15241 0.14941 0.69655 0.0
C63 C 0.96694 0.79419 0.66813 0.0
C64 C 1.05469 0.84482 0.63099 0.0
N65 N 1.031 0.87568 0.65707 0.0
N66 N 0.94699 0.71284 0.64995 0.0
C67 C 1.00138 0.74442 0.62631 0.0
H68 H 0.92925 0.79572 0.68813 0.0
H69 H 0.10547 0.8922 0.61599 0.0
C70 C 1.09095 1.01206 0.73636 0.0
N71 N 0.20007 0.27325 0.71515 0.0
C72 C 0.26549 0.35435 0.70421 0.0
C73 C 0.17709 0.30444 0.74129 0.0
N74 N 0.28704 0.43579 0.72254 0.0
C75 C 0.2322 0.40466 0.74613 0.0
C76 C 0.94924 0.06991 0.68884 0.0
O77 O 1.05891 0.95131 0.71362 0.0
O78 O 0.1349 0.10245 0.73345 0.0
O79 O 1.02847 0.14188 0.69855 0.0
O80 O 0.94989 0.99263 0.677 0.0
O81 O 0.16993 0.19783 0.65864 0.0
H82 H 0.12594 0.25727 0.75626 0.0
H83 H 0.30307 0.35221 0.68424 0.0
O84 O 1.09747 1.04664 0.63871 0.0
O85 O 0.20196 1.00653 0.67411 0.0
O86 O 0.28112 0.15693 0.69471 0.0
C87 C 0.28147 0.07902 0.68335 0.0
H88 H 0.99822 0.69886 0.60646 0.0
H89 H 0.23636 0.45022 0.76608 0.0
H90 H 0.90239 0.33407 0.98831 0.0
C91 C 0.87988 0.31434 1.01036 0.0
H92 H 0.88734 0.36858 0.05437 0.0
H93 H 0.3294 0.65144 0.04005 0.0
H94 H 0.32873 0.54331 0.0741 0.0
H95 H 0.17589 0.40227 0.08665 0.0
H96 H 1.02333 0.36987 0.0659 0.0
C97 C 0.90605 0.38687 0.03209 0.0
C98 C 0.99523 0.47921 0.02792 0.0
C99 C 1.08404 0.49628 0.04041 0.0
C100 C 0.17229 0.57663 0.03302 0.0
C101 C 0.26019 0.59211 0.04539 0.0
C102 C 0.26088 0.53042 0.06484 0.0
C103 C 0.17486 0.451 0.07187 0.0
C104 C 1.08744 0.43338 0.05975 0.0
H105 H 0.2619 0.78687 0.05245 0.0
C106 C 0.28431 0.80542 0.0303 0.0
H107 H 0.2798 0.74855 0.98672 0.0
H108 H 0.83731 0.46814 1.00146 0.0
H109 H 0.83821 0.57556 0.96714 0.0
H110 H 0.99122 0.71596 0.95435 0.0
H111 H 0.14374 0.74798 0.97502 0.0
C112 C 0.26066 0.73168 1.0091 0.0
C113 C 0.17153 0.63948 1.01335 0.0
C114 C 1.08278 0.62234 1.00082 0.0
C115 C 0.99449 0.54224 1.0083 0.0
C116 C 0.90661 0.52706 0.99599 0.0
C117 C 0.90604 0.58842 0.9764 0.0
C118 C 0.99214 0.66746 0.96923 0.0
C119 C 1.07951 0.68493 0.98133 0.0
H120 H 0.64929 0.27106 0.40103 0.0
C121 C 0.65757 0.31016 0.38204 0.0
H122 H 0.73066 0.34823 0.34282 0.0
H123 H 0.79404 0.99797 0.39549 0.0
H124 H 0.90965 0.12543 0.42996 0.0
H125 H 0.94064 0.29552 0.43098 0.0
H126 H 0.85523 0.3382 0.39722 0.0
C127 C 0.71896 0.30763 0.36157 0.0
C128 C 0.71961 0.21344 0.35596 0.0
C129 C 0.77078 0.18999 0.37539 0.0
C130 C 0.75426 0.09263 0.37428 0.0
C131 C 0.80511 0.07095 0.39456 0.0
C132 C 0.8715 0.14358 0.41472 0.0
C133 C 0.88871 0.2392 0.41536 0.0
C134 C 0.83893 0.26256 0.39602 0.0
H135 H 0.76256 0.96578 0.30767 0.0
C136 C 0.75473 0.92661 0.32661 0.0
H137 H 0.67945 0.88512 0.36534 0.0
H138 H 0.6114 0.23444 0.31409 0.0
H139 H 0.49635 0.10697 0.2795 0.0
H140 H 0.46856 0.93784 0.27767 0.0
H141 H 0.55502 0.8955 0.31117 0.0
C142 C 0.69153 0.92666 0.3468 0.0
C143 C 0.6893 1.01998 0.35276 0.0
C144 C 0.63804 1.04339 0.33335 0.0
C145 C 0.65388 0.14056 0.33463 0.0
C146 C 0.60174 0.16183 0.31468 0.0
C147 C 0.5356 0.0892 0.29446 0.0
C148 C 0.52001 0.99403 0.29341 0.0
C149 C 0.57046 0.97092 0.31259 0.0
H150 H 0.82106 0.58439 0.63047 0.0
C151 C 0.86016 0.62145 0.65099 0.0
H152 H 0.85242 0.63746 0.69647 0.0
H153 H 0.48217 0.6898 0.67074 0.0
H154 H 0.57722 0.80455 0.63651 0.0
H155 H 0.73424 0.82088 0.62036 0.0
H156 H 0.79575 0.72485 0.63791 0.0
C157 C 0.81161 0.6076 0.67589 0.0
C158 C 0.70872 0.5831 0.67783 0.0
C159 C 0.67394 0.64189 0.66623 0.0
C160 C 0.58298 0.63221 0.67507 0.0
C161 C 0.54976 0.6924 0.6641 0.0
C162 C 0.60373 0.75924 0.64455 0.0
C163 C 0.69204 0.76859 0.63559 0.0
C164 C 0.72719 0.71185 0.64632 0.0
H165 H 0.41453 0.56222 0.74219 0.0
C166 C 0.37519 0.52604 0.72164 0.0
H167 H 0.38269 0.51051 0.67612 0.0
H168 H 0.75367 0.45837 0.70227 0.0
H169 H 0.65833 0.34345 0.73643 0.0
H170 H 0.50012 0.32533 0.75193 0.0
H171 H 0.43765 0.41984 0.73378 0.0
C172 C 0.42357 0.53959 0.6967 0.0
C173 C 0.52632 0.56376 0.69468 0.0
C174 C 0.5609 0.50471 0.70619 0.0
C175 C 0.65217 0.51487 0.69752 0.0
C176 C 0.68572 0.45527 0.70872 0.0
C177 C 0.63157 0.38832 0.72822 0.0
C178 C 0.54263 0.37802 0.73683 0.0
C179 C 0.5071 0.43407 0.72586 0.0
H180 H 0.87025 0.14746 0.70589 0.0
C181 C 0.86114 0.08258 0.69213 0.0
H182 H 0.76259 0.96032 0.66456 0.0
H183 H 0.39033 0.9686 0.72121 0.0
H184 H 0.37824 0.82357 0.73899 0.0
H185 H 0.50942 0.78129 0.73113 0.0
H186 H 0.6541 0.8843 0.70559 0.0
C187 C 0.77486 1.02609 0.67826 0.0
C188 C 0.69328 1.05117 0.68204 0.0
C189 C 0.6079 0.99003 0.69664 0.0
C190 C 0.53103 1.0139 0.70079 0.0
C191 C 0.44921 0.95279 0.71655 0.0
C192 C 0.44169 0.86962 0.72714 0.0
C193 C 0.51566 0.84592 0.72278 0.0
C194 C 0.59817 0.9055 0.70795 0.0
H195 H 0.35998 1.00063 0.66663 0.0
C196 C 0.36951 1.06623 0.68007 0.0
H197 H 0.46889 0.19001 0.70691 0.0
H198 H 0.84142 0.18165 0.651 0.0
H199 H 0.85363 0.32678 0.63326 0.0
H200 H 0.72218 0.36873 0.64093 0.0
H201 H 0.5772 0.26542 0.66629 0.0
C202 C 0.45627 0.12352 0.69358 0.0
C203 C 0.53793 0.09849 0.68985 0.0
C204 C 0.62338 0.15969 0.67528 0.0
C205 C 0.7003 0.1359 0.67117 0.0
C206 C 0.78237 0.19727 0.65555 0.0
C207 C 0.78999 0.28052 0.64499 0.0
C208 C 0.71587 0.30404 0.64925 0.0
C209 C 0.63317 0.24426 0.66398 0.0
H210 H 0.85955 0.71704 1.0084 0.0
C211 C 0.84531 0.77594 0.01675 0.0
H212 H 0.74071 0.81362 0.0332 0.0
H213 H 0.34593 0.46106 0.98564 0.0
H214 H 0.34731 0.59915 0.96692 0.0
H215 H 0.49256 0.76101 0.97214 0.0
H216 H 0.6378 0.78551 0.99588 0.0
C217 C 0.75331 0.75337 0.02482 0.0
C218 C 0.66445 0.65087 0.02159 0.0
C219 C 0.57777 0.63587 1.00776 0.0
C220 C 0.49171 0.54178 1.00541 0.0
C221 C 0.41053 0.53059 0.98979 0.0
C222 C 0.41082 0.60927 0.97839 0.0
C223 C 0.49267 0.70038 0.9813 0.0
C224 C 0.57555 0.71356 0.99533 0.0
H225 H 0.29414 0.39377 0.03088 0.0
C226 C 0.30859 0.33515 0.02233 0.0
H227 H 0.41357 0.29826 1.0057 0.0
H228 H 0.80748 0.65092 0.05378 0.0
H229 H 0.80597 0.51296 0.07263 0.0
H230 H 0.66079 0.35103 0.06735 0.0
H231 H 0.51577 0.32634 0.0434 0.0
C232 C 0.40066 0.35821 1.0142 0.0
C233 C 0.48929 0.46086 0.0176 0.0
C234 C 0.57589 0.47593 0.03149 0.0
C235 C 0.66193 0.57004 0.03386 0.0
C236 C 0.74297 0.58135 0.04959 0.0
C237 C 0.74258 0.50274 0.06107 0.0
C238 C 0.66078 0.4116 0.05813 0.0
C239 C 0.57803 0.39831 0.04398 0.0
H240 H 0.29143 0.4431 0.3593 0.0
C241 C 0.217 0.38513 0.35591 0.0
H242 H 1.07353 0.35593 0.34894 0.0
H243 H 0.16557 0.78441 0.40414 0.0
H244 H 1.05814 0.68376 0.43992 0.0
H245 H 1.00326 0.50682 0.43602 0.0
H246 H 1.0565 0.42968 0.39645 0.0
C247 C 0.14906 0.41134 0.35165 0.0
C248 C 0.17606 0.51796 0.35225 0.0
C249 C 0.14299 0.56256 0.37507 0.0
C250 C 0.17308 0.66483 0.3769 0.0
C251 C 0.14229 0.707 0.40091 0.0
C252 C 1.08127 0.65015 0.42182 0.0
C253 C 1.05053 0.55057 0.41967 0.0
C254 C 1.08138 0.50711 0.39677 0.0
H255 H 0.12037 0.80039 0.34969 0.0
C256 C 0.19525 0.8577 0.35262 0.0
H257 H 0.33853 0.88484 0.35839 0.0
H258 H 0.24488 0.45629 0.3036 0.0
H259 H 0.3508 0.55638 0.26746 0.0
H260 H 0.40471 0.7331 0.27108 0.0
H261 H 0.352 0.81053 0.31074 0.0
C262 C 0.26263 0.83015 0.35618 0.0
C263 C 0.23448 0.72308 0.35538 0.0
C264 C 0.26699 0.67822 0.33245 0.0
C265 C 0.23716 0.57603 0.33069 0.0
C266 C 0.26778 0.53365 0.30668 0.0
C267 C 0.32797 0.59016 0.28558 0.0
C268 C 0.35816 0.68962 0.28759 0.0
C269 C 0.32772 0.73329 0.31055 0.0
H270 H 0.28598 0.13455 0.25643 0.0
C271 C 0.21525 0.10486 0.26638 0.0
H272 H 1.06417 1.03546 0.25872 0.0
H273 H 0.23901 0.24046 0.13558 0.0
H274 H 0.29412 0.39502 0.16572 0.0
H275 H 0.277 0.40046 0.21938 0.0
H276 H 0.20628 0.25159 0.24324 0.0
C277 C 0.13554 1.06792 0.24919 0.0
C278 C 0.14167 1.0652 0.21667 0.0
C279 C 0.18025 0.15288 0.20299 0.0
C280 C 0.18617 0.14943 0.17192 0.0
C281 C 0.22929 0.23843 0.15896 0.0
C282 C 0.26183 0.3278 0.17603 0.0
C283 C 0.25251 0.33088 0.20624 0.0
C284 C 0.21223 0.24476 0.21968 0.0
H285 H 1.0481 0.10213 0.11967 0.0
C286 C 1.09294 0.07641 0.10736 0.0
H287 H 0.19299 1.02419 0.10995 0.0
H288 H 1.06461 0.88402 0.23586 0.0
H289 H 1.00479 0.72899 0.20561 0.0
H290 H 1.01002 0.72257 0.15171 0.0
H291 H 1.07552 0.87109 0.12772 0.0
C292 C 0.15004 1.05302 0.12188 0.0
C293 C 0.14983 1.05804 0.1545 0.0
C294 C 0.11127 0.97051 0.1682 0.0
C295 C 0.10718 0.97411 0.19929 0.0
C296 C 1.06862 0.8855 0.21234 0.0
C297 C 1.03414 0.79597 0.19524 0.0
C298 C 1.03717 0.79237 0.1649 0.0
C299 C 1.07511 0.87829 0.15141 0.0
H300 H 0.26336 0.14319 0.45341 0.0
C301 C 0.20306 0.14232 0.44238 0.0
H302 H 1.07332 0.14911 0.44723 0.0
H303 H 0.96445 0.98356 0.56986 0.0
H304 H 0.82463 0.87124 0.53936 0.0
H305 H 0.82357 0.88271 0.48627 0.0
H306 H 0.96155 1.00716 0.46345 0.0
C307 C 0.13298 0.14898 0.4583 0.0
C308 C 0.13092 0.1481 0.49086 0.0
C309 C 1.04969 0.07393 0.50379 0.0
C310 C 1.05143 1.06546 0.53427 0.0
C311 C 0.96836 0.99183 0.54669 0.0
C312 C 0.88725 0.92706 0.52947 0.0
C313 C 0.88658 0.93366 0.4996 0.0
C314 C 0.96654 1.00586 0.48679 0.0
H315 H 0.16323 0.2433 0.60419 0.0
C316 C 0.15001 0.16968 0.60632 0.0
H317 H 0.12658 1.03435 0.58491 0.0
H318 H 0.28619 0.31521 0.47515 0.0
H319 H 0.42846 0.42523 0.50522 0.0
H320 H 0.44113 0.39731 0.55633 0.0
H321 H 0.3106 0.2617 0.57795 0.0
C322 C 0.14043 0.10794 0.5823 0.0
C323 C 0.13535 0.1292 0.55172 0.0
C324 C 0.2152 0.20581 0.53902 0.0
C325 C 0.2111 0.21763 0.50887 0.0
C326 C 0.28822 0.29934 0.49737 0.0
C327 C 0.36987 0.36359 0.51447 0.0
C328 C 0.37677 0.34816 0.54328 0.0
C329 C 0.30072 0.27025 0.55551 0.0
H330 H 1.04909 0.90175 0.76808 0.0
C331 C 1.07846 0.97912 0.76594 0.0
H332 H 0.13503 0.12165 0.78773 0.0
H333 H 0.91628 0.87732 0.9 0.0
H334 H 0.76638 0.80958 0.87184 0.0
H335 H 0.76741 0.8393 0.82016 0.0
H336 H 0.91816 0.93493 0.79616 0.0
C337 C 0.10372 1.04412 0.79003 0.0
C338 C 0.10084 1.0177 0.82037 0.0
C339 C 1.01155 0.96392 0.83426 0.0
C340 C 1.01059 0.95072 0.86449 0.0
C341 C 0.92087 0.89303 0.87748 0.0
C342 C 0.83434 0.85315 0.86151 0.0
C343 C 0.83495 0.8696 0.83238 0.0
C344 C 0.92222 0.92439 0.81882 0.0
H345 H 1.02143 0.07004 0.92238 0.0
C346 C 1.05887 1.03602 0.93154 0.0
H347 H 0.13702 0.95891 0.92244 0.0
H348 H 0.2845 0.11573 0.79981 0.0
H349 H 0.43408 0.18543 0.82817 0.0
H350 H 0.43206 0.16966 0.88107 0.0
H351 H 0.28071 0.08362 0.90587 0.0
C352 C 0.09808 0.99169 0.91346 0.0
C353 C 0.09848 0.99509 0.8811 0.0
C354 C 0.1878 1.04561 0.86693 0.0
C355 C 0.18893 1.05639 0.83655 0.0
C356 C 0.27929 0.10694 0.82295 0.0
C357 C 0.36578 0.14699 0.83894 0.0
C358 C 0.36464 0.13796 0.8687 0.0
C359 C 0.27704 0.08812 0.88266 0.0
loop_
_geom_bond_atom_site_label_1
_geom_bond_atom_site_label_2
_geom_bond_distance
_geom_bond_site_symmetry_2
_ccdc_geom_bond_type
Co0 N5 2.057 1_554 S
Co0 O17 2.021 . S
Co0 O20 2.062 1_455 S
Co0 O24 2.117 1_554 S
Co0 O25 2.020 1_565 S
C1 O21 1.259 1_455 S
C1 O24 1.258 1_545 S
Co2 N11 2.057 . S
Co2 O18 2.115 1_655 S
Co2 O19 2.020 1_545 S
Co2 O21 2.021 1_554 S
Co2 O26 2.062 1_655 S
C3 N5 1.316 1_554 S
C3 N6 1.347 1_554 S
C3 H8 0.931 . S
C4 N5 1.375 . S
C4 C7 1.350 . S
C4 H9 0.930 . S
N5 Co0 2.057 1_556 S
N5 C3 1.316 1_556 S
N5 C4 1.375 . S
N6 C3 1.347 1_556 S
N6 C7 1.373 . S
C7 C4 1.350 . S
C7 N6 1.373 . S
C7 H28 0.931 . S
H8 C3 0.931 . S
H9 C4 0.930 . S
C10 O17 1.259 1_545 S
C10 O18 1.263 . S
N11 Co2 2.057 . S
N11 C12 1.316 1_554 S
N11 C13 1.375 . S
C12 N11 1.316 1_556 S
C12 N14 1.347 1_556 S
C12 H23 0.931 . S
C13 N11 1.375 . S
C13 C15 1.350 . S
C13 H22 0.930 . S
N14 C12 1.347 1_554 S
N14 C15 1.373 . S
C15 C13 1.350 . S
C15 N14 1.373 . S
C15 H29 0.931 . S
C16 O19 1.256 . S
C16 O20 1.255 . S
O17 Co0 2.021 . S
O17 C10 1.259 1_565 S
O18 Co2 2.115 1_455 S
O18 C10 1.263 . S
O19 Co2 2.020 1_565 S
O19 C16 1.256 . S
O20 Co0 2.062 1_655 S
O20 C16 1.255 . S
O21 C1 1.259 1_655 S
O21 Co2 2.021 1_556 S
H22 C13 0.930 . S
H23 C12 0.931 . S
O24 Co0 2.117 1_556 S
O24 C1 1.258 1_565 S
O25 Co0 2.020 1_545 S
O25 C27 1.256 . S
O26 Co2 2.062 1_455 S
O26 C27 1.255 . S
C27 O25 1.256 . S
C27 O26 1.255 . S
H28 C7 0.931 . S
H29 C15 0.931 . S
Co30 N35 2.057 . S
Co30 O47 2.021 . S
Co30 O50 2.062 1_545 S
Co30 O54 2.117 . S
Co30 O55 2.020 . S
C31 O51 1.259 1_445 S
C31 O54 1.258 . S
Co32 N41 2.057 . S
Co32 O48 2.117 1_565 S
Co32 O49 2.020 . S
Co32 O51 2.021 . S
Co32 O56 2.063 1_665 S
C33 N35 1.316 . S
C33 N36 1.347 . S
C33 H38 0.931 . S
C34 N35 1.375 . S
C34 C37 1.350 . S
C34 H39 0.930 . S
N35 Co30 2.057 . S
N35 C33 1.316 . S
N35 C34 1.375 . S
N36 C33 1.347 . S
N36 C37 1.373 . S
C37 C34 1.350 . S
C37 N36 1.373 . S
C37 H58 0.931 . S
H38 C33 0.931 . S
H39 C34 0.930 . S
C40 O47 1.259 . S
C40 O48 1.258 1_455 S
N41 Co32 2.057 . S
N41 C42 1.316 . S
N41 C43 1.375 . S
C42 N41 1.316 . S
C42 N44 1.347 . S
C42 H53 0.931 . S
C43 N41 1.375 . S
C43 C45 1.350 . S
C43 H52 0.930 . S
N44 C42 1.347 . S
N44 C45 1.373 . S
C45 C43 1.350 . S
C45 N44 1.373 . S
C45 H59 0.931 . S
C46 O49 1.256 1_455 S
C46 O50 1.255 . S
O47 Co30 2.021 . S
O47 C40 1.259 . S
O48 Co32 2.117 1_545 S
O48 C40 1.258 1_655 S
O49 Co32 2.020 . S
O49 C46 1.256 1_655 S
O50 Co30 2.062 1_565 S
O50 C46 1.255 . S
O51 C31 1.259 1_665 S
O51 Co32 2.021 . S
H52 C43 0.930 . S
H53 C42 0.931 . S
O54 Co30 2.117 . S
O54 C31 1.258 . S
O55 Co30 2.020 . S
O55 C57 1.256 . S
O56 Co32 2.063 1_445 S
O56 C57 1.260 . S
C57 O55 1.256 . S
C57 O56 1.260 . S
H58 C37 0.931 . S
H59 C45 0.931 . S
Co60 N65 2.057 . S
Co60 O77 2.021 . S
Co60 O80 2.062 . S
Co60 O84 2.117 1_655 S
Co60 O85 2.020 1_655 S
C61 O81 1.259 . S
C61 O84 1.258 1_545 S
Co62 N71 2.057 . S
Co62 O78 2.117 . S
Co62 O79 2.020 1_455 S
Co62 O81 2.021 . S
Co62 O86 2.062 . S
C63 N65 1.316 . S
C63 N66 1.347 . S
C63 H68 0.931 . S
C64 N65 1.375 . S
C64 C67 1.350 . S
C64 H69 0.930 . S
N65 Co60 2.057 . S
N65 C63 1.316 . S
N65 C64 1.375 . S
N66 C63 1.347 . S
N66 C67 1.373 . S
C67 C64 1.350 . S
C67 N66 1.373 . S
C67 H88 0.931 . S
H68 C63 0.931 . S
H69 C64 0.930 . S
C70 O77 1.259 1_445 S
C70 O78 1.258 . S
N71 Co62 2.057 . S
N71 C72 1.316 . S
N71 C73 1.375 . S
C72 N71 1.316 . S
C72 N74 1.347 . S
C72 H83 0.931 . S
C73 N71 1.375 . S
C73 C75 1.350 . S
C73 H82 0.930 . S
N74 C72 1.347 . S
N74 C75 1.373 . S
C75 C73 1.350 . S
C75 N74 1.373 . S
C75 H89 0.931 . S
C76 O79 1.256 . S
C76 O80 1.255 1_545 S
O77 Co60 2.021 . S
O77 C70 1.259 1_665 S
O78 Co62 2.117 . S
O78 C70 1.258 . S
O79 Co62 2.020 1_655 S
O79 C76 1.256 . S
O80 Co60 2.062 . S
O80 C76 1.255 1_565 S
O81 C61 1.259 . S
O81 Co62 2.021 . S
H82 C73 0.930 . S
H83 C72 0.931 . S
O84 Co60 2.117 1_455 S
O84 C61 1.258 1_565 S
O85 Co60 2.020 1_455 S
O85 C87 1.256 . S
O86 Co62 2.062 . S
O86 C87 1.255 1_545 S
C87 O85 1.256 . S
C87 O86 1.255 1_565 S
H88 C67 0.931 . S
H89 C75 0.931 . S
H90 C91 0.951 . S
C91 H90 0.951 . S
C91 C97 1.265 . S
H92 C97 0.950 . S
H93 C101 0.949 . S
H94 C102 0.950 . S
H95 C103 0.951 . S
H96 C104 0.951 . S
C97 C91 1.265 . S
C97 H92 0.950 . S
C97 C98 1.478 . S
C98 C97 1.478 . S
C98 C99 1.397 . S
C98 C115 1.394 1_654 S
C99 C98 1.397 . S
C99 C100 1.438 1_655 S
C99 C104 1.429 . S
C100 C99 1.438 1_455 S
C100 C101 1.428 . S
C100 C113 1.394 . S
C101 H93 0.949 . S
C101 C100 1.428 . S
C101 C102 1.345 1_455 S
C102 H94 0.950 . S
C102 C101 1.345 1_655 S
C102 C103 1.424 . S
C103 H95 0.951 . S
C103 C102 1.424 . S
C103 C104 1.347 . S
C104 H96 0.951 . S
C104 C99 1.429 . S
C104 C103 1.347 . S
H105 C106 0.951 . S
C106 H105 0.951 . S
C106 C112 1.265 . S
H107 C112 0.945 1_556 S
H108 C116 0.949 1_655 S
H109 C117 0.950 . S
H110 C118 0.951 . S
H111 C119 0.951 . S
C112 C106 1.265 . S
C112 H107 0.945 1_554 S
C112 C113 1.478 . S
C113 C100 1.394 . S
C113 C112 1.478 . S
C113 C114 1.397 1_554 S
C114 C113 1.397 1_556 S
C114 C115 1.438 . S
C114 C119 1.429 . S
C115 C98 1.394 1_456 S
C115 C114 1.438 . S
C115 C116 1.428 . S
C116 H108 0.949 1_455 S
C116 C115 1.428 . S
C116 C117 1.345 . S
C117 H109 0.950 . S
C117 C116 1.345 . S
C117 C118 1.424 . S
C118 H110 0.951 . S
C118 C117 1.424 . S
C118 C119 1.347 . S
C119 H111 0.951 . S
C119 C114 1.429 . S
C119 C118 1.347 . S
H120 C121 0.951 . S
C121 H120 0.951 . S
C121 C127 1.265 . S
H122 C127 0.950 . S
H123 C131 0.949 1_565 S
H124 C132 0.950 . S
H125 C133 0.951 . S
H126 C134 0.951 . S
C127 C121 1.265 . S
C127 H122 0.950 . S
C127 C128 1.478 . S
C128 C127 1.478 . S
C128 C129 1.397 . S
C128 C145 1.394 . S
C129 C128 1.397 . S
C129 C130 1.438 . S
C129 C134 1.429 . S
C130 C129 1.438 . S
C130 C131 1.428 . S
C130 C143 1.394 1_545 S
C131 H123 0.949 1_545 S
C131 C130 1.428 . S
C131 C132 1.345 . S
C132 H124 0.950 . S
C132 C131 1.345 . S
C132 C133 1.424 . S
C133 H125 0.951 . S
C133 C132 1.424 . S
C133 C134 1.347 . S
C134 H126 0.951 . S
C134 C129 1.429 . S
C134 C133 1.347 . S
H135 C136 0.951 . S
C136 H135 0.951 . S
C136 C142 1.265 . S
H137 C142 0.950 . S
H138 C146 0.941 1_545 S
H139 C147 0.950 . S
H140 C148 0.951 . S
H141 C149 0.951 . S
C142 C136 1.265 . S
C142 H137 0.950 . S
C142 C143 1.478 . S
C143 C130 1.394 1_565 S
C143 C142 1.478 . S
C143 C144 1.397 . S
C144 C143 1.397 . S
C144 C145 1.438 1_565 S
C144 C149 1.429 . S
C145 C128 1.394 . S
C145 C144 1.438 1_545 S
C145 C146 1.430 1_545 S
C146 H138 0.941 1_565 S
C146 C145 1.430 1_565 S
C146 C147 1.350 . S
C147 H139 0.950 . S
C147 C146 1.350 . S
C147 C148 1.424 . S
C148 H140 0.951 . S
C148 C147 1.424 . S
C148 C149 1.347 . S
C149 H141 0.951 . S
C149 C144 1.429 . S
C149 C148 1.347 . S
H150 C151 0.951 . S
C151 H150 0.951 . S
C151 C157 1.265 . S
H152 C157 0.950 . S
H153 C161 0.949 . S
H154 C162 0.950 . S
H155 C163 0.951 . S
H156 C164 0.951 . S
C157 C151 1.265 . S
C157 H152 0.950 . S
C157 C158 1.478 . S
C158 C157 1.478 . S
C158 C159 1.397 . S
C158 C175 1.394 . S
C159 C158 1.397 . S
C159 C160 1.438 . S
C159 C164 1.429 . S
C160 C159 1.438 . S
C160 C161 1.428 . S
C160 C173 1.394 . S
C161 H153 0.949 . S
C161 C160 1.428 . S
C161 C162 1.345 . S
C162 H154 0.950 . S
C162 C161 1.345 . S
C162 C163 1.424 . S
C163 H155 0.951 . S
C163 C162 1.424 . S
C163 C164 1.347 . S
C164 H156 0.951 . S
C164 C159 1.429 . S
C164 C163 1.347 . S
H165 C166 0.951 . S
C166 H165 0.951 . S
C166 C172 1.265 . S
H167 C172 0.950 . S
H168 C176 0.949 . S
H169 C177 0.950 . S
H170 C178 0.951 . S
H171 C179 0.951 . S
C172 C166 1.265 . S
C172 H167 0.950 . S
C172 C173 1.478 . S
C173 C160 1.394 . S
C173 C172 1.478 . S
C173 C174 1.397 . S
C174 C173 1.397 . S
C174 C175 1.438 . S
C174 C179 1.429 . S
C175 C158 1.394 . S
C175 C174 1.438 . S
C175 C176 1.428 . S
C176 H168 0.949 . S
C176 C175 1.428 . S
C176 C177 1.345 . S
C177 H169 0.950 . S
C177 C176 1.345 . S
C177 C178 1.424 . S
C178 H170 0.951 . S
C178 C177 1.424 . S
C178 C179 1.347 . S
C179 H171 0.951 . S
C179 C174 1.429 . S
C179 C178 1.347 . S
H180 C181 0.951 . S
C181 H180 0.951 . S
C181 C187 1.265 1_545 S
H182 C187 0.950 . S
H183 C191 0.949 . S
H184 C192 0.950 . S
H185 C193 0.951 . S
H186 C194 0.951 . S
C187 C181 1.265 1_565 S
C187 H182 0.950 . S
C187 C188 1.478 1_565 S
C188 C187 1.478 1_545 S
C188 C189 1.397 1_545 S
C188 C205 1.394 . S
C189 C188 1.397 1_565 S
C189 C190 1.438 . S
C189 C194 1.429 . S
C190 C189 1.438 . S
C190 C191 1.428 . S
C190 C203 1.394 1_565 S
C191 H183 0.949 . S
C191 C190 1.428 . S
C191 C192 1.345 . S
C192 H184 0.950 . S
C192 C191 1.345 . S
C192 C193 1.424 . S
C193 H185 0.951 . S
C193 C192 1.424 . S
C193 C194 1.347 . S
C194 H186 0.951 . S
C194 C189 1.429 . S
C194 C193 1.347 . S
H195 C196 0.951 . S
C196 H195 0.951 . S
C196 C202 1.265 1_565 S
H197 C202 0.950 . S
H198 C206 0.949 . S
H199 C207 0.950 . S
H200 C208 0.951 . S
H201 C209 0.951 . S
C202 C196 1.265 1_545 S
C202 H197 0.950 . S
C202 C203 1.478 . S
C203 C190 1.394 1_545 S
C203 C202 1.478 . S
C203 C204 1.397 . S
C204 C203 1.397 . S
C204 C205 1.438 . S
C204 C209 1.429 . S
C205 C188 1.394 . S
C205 C204 1.438 . S
C205 C206 1.428 . S
C206 H198 0.949 . S
C206 C205 1.428 . S
C206 C207 1.345 . S
C207 H199 0.950 . S
C207 C206 1.345 . S
C207 C208 1.424 . S
C208 H200 0.951 . S
C208 C207 1.424 . S
C208 C209 1.347 . S
C209 H201 0.951 . S
C209 C204 1.429 . S
C209 C208 1.347 . S
H210 C211 0.951 . S
C211 H210 0.951 . S
C211 C217 1.265 . S
H212 C217 0.950 1_556 S
H213 C221 0.949 . S
H214 C222 0.950 . S
H215 C223 0.951 . S
H216 C224 0.951 . S
C217 C211 1.265 . S
C217 H212 0.950 1_554 S
C217 C218 1.478 . S
C218 C217 1.478 . S
C218 C219 1.397 1_554 S
C218 C235 1.394 . S
C219 C218 1.397 1_556 S
C219 C220 1.438 . S
C219 C224 1.429 . S
C220 C219 1.438 . S
C220 C221 1.428 . S
C220 C233 1.394 1_556 S
C221 H213 0.949 . S
C221 C220 1.428 . S
C221 C222 1.345 . S
C222 H214 0.950 . S
C222 C221 1.345 . S
C222 C223 1.424 . S
C223 H215 0.951 . S
C223 C222 1.424 . S
C223 C224 1.347 . S
C224 H216 0.951 . S
C224 C219 1.429 . S
C224 C223 1.347 . S
H225 C226 0.957 . S
C226 H225 0.957 . S
C226 C232 1.265 . S
H227 C232 0.950 . S
H228 C236 0.949 . S
H229 C237 0.950 . S
H230 C238 0.951 . S
H231 C239 0.951 . S
C232 C226 1.265 . S
C232 H227 0.950 . S
C232 C233 1.478 . S
C233 C220 1.394 1_554 S
C233 C232 1.478 . S
C233 C234 1.397 . S
C234 C233 1.397 . S
C234 C235 1.438 . S
C234 C239 1.429 . S
C235 C218 1.394 . S
C235 C234 1.438 . S
C235 C236 1.428 . S
C236 H228 0.949 . S
C236 C235 1.428 . S
C236 C237 1.345 . S
C237 H229 0.950 . S
C237 C236 1.345 . S
C237 C238 1.424 . S
C238 H230 0.951 . S
C238 C237 1.424 . S
C238 C239 1.347 . S
C239 H231 0.951 . S
C239 C234 1.429 . S
C239 C238 1.347 . S
H240 C241 0.951 . S
C241 H240 0.951 . S
C241 C247 1.265 . S
H242 C247 0.950 1_655 S
H243 C251 0.949 1_455 S
H244 C252 0.950 . S
H245 C253 0.951 . S
H246 C254 0.951 . S
C247 C241 1.265 . S
C247 H242 0.950 1_455 S
C247 C248 1.478 . S
C248 C247 1.478 . S
C248 C249 1.397 . S
C248 C265 1.394 . S
C249 C248 1.397 . S
C249 C250 1.438 . S
C249 C254 1.429 1_455 S
C250 C249 1.438 . S
C250 C251 1.428 1_455 S
C250 C263 1.394 . S
C251 H243 0.949 1_655 S
C251 C250 1.428 1_655 S
C251 C252 1.345 . S
C252 H244 0.950 . S
C252 C251 1.345 . S
C252 C253 1.424 . S
C253 H245 0.951 . S
C253 C252 1.424 . S
C253 C254 1.347 . S
C254 H246 0.951 . S
C254 C249 1.429 1_655 S
C254 C253 1.347 . S
H255 C256 0.951 1_655 S
C256 H255 0.951 1_455 S
C256 C262 1.265 . S
H257 C262 0.950 . S
H258 C266 0.949 . S
H259 C267 0.950 . S
H260 C268 0.951 . S
H261 C269 0.951 . S
C262 C256 1.265 . S
C262 H257 0.950 . S
C262 C263 1.478 . S
C263 C250 1.394 . S
C263 C262 1.478 . S
C263 C264 1.397 . S
C264 C263 1.397 . S
C264 C265 1.438 . S
C264 C269 1.429 . S
C265 C248 1.394 . S
C265 C264 1.438 . S
C265 C266 1.428 . S
C266 H258 0.949 . S
C266 C265 1.428 . S
C266 C267 1.345 . S
C267 H259 0.950 . S
C267 C266 1.345 . S
C267 C268 1.424 . S
C268 H260 0.951 . S
C268 C267 1.424 . S
C268 C269 1.347 . S
C269 H261 0.951 . S
C269 C264 1.429 . S
C269 C268 1.347 . S
H270 C271 0.951 . S
C271 H270 0.951 . S
C271 C277 1.265 . S
H272 C277 0.949 1_655 S
H273 C281 0.949 . S
H274 C282 0.950 . S
H275 C283 0.951 . S
H276 C284 0.951 . S
C277 C271 1.265 . S
C277 H272 0.949 1_455 S
C277 C278 1.478 . S
C278 C277 1.478 . S
C278 C279 1.397 . S
C278 C295 1.394 1_545 S
C279 C278 1.397 . S
C279 C280 1.438 . S
C279 C284 1.429 . S
C280 C279 1.438 . S
C280 C281 1.428 . S
C280 C293 1.394 . S
C281 H273 0.949 . S
C281 C280 1.428 . S
C281 C282 1.345 . S
C282 H274 0.950 . S
C282 C281 1.345 . S
C282 C283 1.424 . S
C283 H275 0.951 . S
C283 C282 1.424 . S
C283 C284 1.347 . S
C284 H276 0.951 . S
C284 C279 1.429 . S
C284 C283 1.347 . S
H285 C286 0.951 1_655 S
C286 H285 0.951 1_455 S
C286 C292 1.265 . S
H287 C292 0.950 . S
H288 C296 0.949 1_655 S
H289 C297 0.950 1_655 S
H290 C298 0.951 . S
H291 C299 0.951 . S
C292 C286 1.265 . S
C292 H287 0.950 . S
C292 C293 1.478 . S
C293 C280 1.394 . S
C293 C292 1.478 . S
C293 C294 1.397 1_545 S
C294 C293 1.397 1_565 S
C294 C295 1.438 . S
C294 C299 1.429 . S
C295 C278 1.394 1_565 S
C295 C294 1.438 . S
C295 C296 1.428 . S
C296 H288 0.949 1_455 S
C296 C295 1.428 . S
C296 C297 1.345 . S
C297 H289 0.950 1_455 S
C297 C296 1.345 . S
C297 C298 1.424 . S
C298 H290 0.951 . S
C298 C297 1.424 . S
C298 C299 1.347 . S
C299 H291 0.951 . S
C299 C294 1.429 . S
C299 C298 1.347 . S
H300 C301 0.951 . S
C301 H300 0.951 . S
C301 C307 1.265 . S
H302 C307 0.950 1_665 S
H303 C311 0.949 . S
H304 C312 0.950 . S
H305 C313 0.951 . S
H306 C314 0.951 . S
C307 C301 1.265 . S
C307 H302 0.950 1_445 S
C307 C308 1.478 . S
C308 C307 1.478 . S
C308 C309 1.397 1_445 S
C308 C325 1.394 . S
C309 C308 1.397 1_665 S
C309 C310 1.438 1_655 S
C309 C314 1.429 . S
C310 C309 1.438 1_455 S
C310 C311 1.428 1_455 S
C310 C323 1.394 1_565 S
C311 H303 0.949 . S
C311 C310 1.428 1_655 S
C311 C312 1.345 . S
C312 H304 0.950 . S
C312 C311 1.345 . S
C312 C313 1.424 . S
C313 H305 0.951 . S
C313 C312 1.424 . S
C313 C314 1.347 . S
C314 H306 0.951 . S
C314 C309 1.429 . S
C314 C313 1.347 . S
H315 C316 0.952 1_665 S
C316 H315 0.952 1_445 S
C316 C322 1.265 . S
H317 C322 0.950 . S
H318 C326 0.949 . S
H319 C327 0.950 . S
H320 C328 0.951 . S
H321 C329 0.951 . S
C322 C316 1.265 . S
C322 H317 0.950 . S
C322 C323 1.478 . S
C323 C310 1.394 1_545 S
C323 C322 1.478 . S
C323 C324 1.397 . S
C324 C323 1.397 . S
C324 C325 1.438 . S
C324 C329 1.429 . S
C325 C308 1.394 . S
C325 C324 1.438 . S
C325 C326 1.428 . S
C326 H318 0.949 . S
C326 C325 1.428 . S
C326 C327 1.345 . S
C327 H319 0.950 . S
C327 C326 1.345 . S
C327 C328 1.424 . S
C328 H320 0.951 . S
C328 C327 1.424 . S
C328 C329 1.347 . S
C329 H321 0.951 . S
C329 C324 1.429 . S
C329 C328 1.347 . S
H330 C331 0.951 1_565 S
C331 H330 0.951 1_545 S
C331 C337 1.258 1_455 S
H332 C337 0.960 . S
H333 C341 0.949 . S
H334 C342 0.950 . S
H335 C343 0.951 . S
H336 C344 0.951 . S
C337 C331 1.258 1_655 S
C337 H332 0.960 . S
C337 C338 1.476 1_655 S
C338 C337 1.476 1_455 S
C338 C339 1.397 1_445 S
C338 C355 1.394 . S
C339 C338 1.397 1_665 S
C339 C340 1.438 . S
C339 C344 1.429 . S
C340 C339 1.438 . S
C340 C341 1.428 . S
C340 C353 1.394 1_665 S
C341 H333 0.949 . S
C341 C340 1.428 . S
C341 C342 1.345 . S
C342 H334 0.950 . S
C342 C341 1.345 . S
C342 C343 1.424 . S
C343 H335 0.951 . S
C343 C342 1.424 . S
C343 C344 1.347 . S
C344 H336 0.951 . S
C344 C339 1.429 . S
C344 C343 1.347 . S
H345 C346 0.951 1_655 S
C346 H345 0.951 1_455 S
C346 C352 1.265 . S
H347 C352 0.950 1_565 S
H348 C356 0.949 . S
H349 C357 0.950 . S
H350 C358 0.951 . S
H351 C359 0.951 . S
C352 C346 1.265 . S
C352 H347 0.950 1_545 S
C352 C353 1.478 . S
C353 C340 1.394 1_445 S
C353 C352 1.478 . S
C353 C354 1.397 . S
C354 C353 1.397 . S
C354 C355 1.438 . S
C354 C359 1.429 . S
C355 C338 1.394 . S
C355 C354 1.438 . S
C355 C356 1.428 . S
C356 H348 0.949 . S
C356 C355 1.428 . S
C356 C357 1.345 . S
C357 H349 0.950 . S
C357 C356 1.345 . S
C357 C358 1.424 . S
C358 H350 0.951 . S
C358 C357 1.424 . S
C358 C359 1.347 . S
C359 H351 0.951 . S
C359 C354 1.429 . S
C359 C358 1.347 . S
C91 N14 0.312 . S
C106 N6 0.312 1_554 S
C121 N36 0.349 . S
C136 N44 0.349 . S
C151 N66 0.513 . S
C166 N74 0.513 . S
C181 C76 2.666 . S
C196 C87 2.666 . S
C211 C16 2.637 . S
C226 C27 2.637 . S
C241 C57 2.665 . S
C256 C46 2.665 . S
C271 C31 1.499 . S
C286 C10 1.502 . S
C301 C40 1.482 . S
C316 C61 1.483 . S
C331 C70 1.481 . S
C346 C1 1.479 . S
