# Generated by pormake.
# Topology wjg, (4)-cn, num edge types: 1
# Building blocks:
#     Node 0, Type 0, BuildingBlock: KUFVIS_clean_sbu_0, # of connection points: 4
#     Node 1, Type 0, BuildingBlock: KUFVIS_clean_sbu_0, # of connection points: 4
#     Node 2, Type 0, BuildingBlock: KUFVIS_clean_sbu_0, # of connection points: 4
#     Node 3, Type 0, BuildingBlock: KUFVIS_clean_sbu_0, # of connection points: 4
#     Node 4, Type 0, BuildingBlock: KUFVIS_clean_sbu_0, # of connection points: 4
#     Node 5, Type 0, BuildingBlock: KUFVIS_clean_sbu_0, # of connection points: 4
#     Node 6, Type 0, BuildingBlock: KUFVIS_clean_sbu_0, # of connection points: 4
#     Node 7, Type 0, BuildingBlock: KUFVIS_clean_sbu_0, # of connection points: 4
#     Node 8, Type 0, BuildingBlock: KUFVIS_clean_sbu_0, # of connection points: 4
#     Node 9, Type 0, BuildingBlock: KUFVIS_clean_sbu_0, # of connection points: 4
#     Node 10, Type 0, BuildingBlock: KUFVIS_clean_sbu_0, # of connection points: 4
#     Node 11, Type 0, BuildingBlock: KUFVIS_clean_sbu_0, # of connection points: 4
#     Edge 12, Type (0, 0), BuildingBlock: KIFKEQ_clean_linker_1, # of connection points: 2
#     Edge 13, Type (0, 0), BuildingBlock: KIFKEQ_clean_linker_1, # of connection points: 2
#     Edge 14, Type (0, 0), BuildingBlock: KIFKEQ_clean_linker_1, # of connection points: 2
#     Edge 15, Type (0, 0), BuildingBlock: KIFKEQ_clean_linker_1, # of connection points: 2
#     Edge 16, Type (0, 0), BuildingBlock: KIFKEQ_clean_linker_1, # of connection points: 2
#     Edge 17, Type (0, 0), BuildingBlock: KIFKEQ_clean_linker_1, # of connection points: 2
#     Edge 18, Type (0, 0), BuildingBlock: KIFKEQ_clean_linker_1, # of connection points: 2
#     Edge 19, Type (0, 0), BuildingBlock: KIFKEQ_clean_linker_1, # of connection points: 2
#     Edge 20, Type (0, 0), BuildingBlock: KIFKEQ_clean_linker_1, # of connection points: 2
#     Edge 21, Type (0, 0), BuildingBlock: KIFKEQ_clean_linker_1, # of connection points: 2
#     Edge 22, Type (0, 0), BuildingBlock: KIFKEQ_clean_linker_1, # of connection points: 2
#     Edge 23, Type (0, 0), BuildingBlock: KIFKEQ_clean_linker_1, # of connection points: 2
#     Edge 24, Type (0, 0), BuildingBlock: KIFKEQ_clean_linker_1, # of connection points: 2
#     Edge 25, Type (0, 0), BuildingBlock: KIFKEQ_clean_linker_1, # of connection points: 2
#     Edge 26, Type (0, 0), BuildingBlock: KIFKEQ_clean_linker_1, # of connection points: 2
#     Edge 27, Type (0, 0), BuildingBlock: KIFKEQ_clean_linker_1, # of connection points: 2
#     Edge 28, Type (0, 0), BuildingBlock: KIFKEQ_clean_linker_1, # of connection points: 2
#     Edge 29, Type (0, 0), BuildingBlock: KIFKEQ_clean_linker_1, # of connection points: 2
#     Edge 30, Type (0, 0), BuildingBlock: KIFKEQ_clean_linker_1, # of connection points: 2
#     Edge 31, Type (0, 0), BuildingBlock: KIFKEQ_clean_linker_1, # of connection points: 2
#     Edge 32, Type (0, 0), BuildingBlock: KIFKEQ_clean_linker_1, # of connection points: 2
#     Edge 33, Type (0, 0), BuildingBlock: KIFKEQ_clean_linker_1, # of connection points: 2
#     Edge 34, Type (0, 0), BuildingBlock: KIFKEQ_clean_linker_1, # of connection points: 2
#     Edge 35, Type (0, 0), BuildingBlock: KIFKEQ_clean_linker_1, # of connection points: 2
# Relax obj value: 0.318
# Max RMSD: 0.127
# Mean RMSD: 0.118
data_MOF--net-wjg--node1-KUFVIS_clean_sbu_0--edge1-KIFKEQ_clean_linker_1
_symmetry_space_group_name_H-M    P1
_symmetry_Int_Tables_number       1
_symmetry_cell_setting            triclinic
loop_
_symmetry_equiv_pos_as_xyz
'x, y, z'
_cell_length_a     31.681422
_cell_length_b     31.554195
_cell_length_c     40.583643
_cell_angle_alpha  89.984614
_cell_angle_beta   90.004553
_cell_angle_gamma 120.11631
loop_
_atom_site_label
_atom_site_type_symbol
_atom_site_fract_x
_atom_site_fract_y
_atom_site_fract_z
_atom_type_partial_charge
Mn0 Mn 0.14733 0.41761 0.33081 0.0
Mn1 Mn 0.25563 0.47689 0.37063 0.0
C2 C 0.19465 0.38028 0.33575 0.0
C3 C 0.10115 0.40402 0.28251 0.0
C4 C 0.15822 0.42431 0.40552 0.0
O5 O 0.16132 0.48884 0.33424 0.0
O6 O 0.23784 0.52441 0.35438 0.0
C7 C 0.32076 0.53189 0.31513 0.0
N8 N 0.30891 0.4999 0.34069 0.0
C9 C 0.38243 0.4967 0.33388 0.0
C10 C 0.39563 0.52957 0.30742 0.0
C11 C 0.36455 0.54715 0.29795 0.0
C12 C 0.33834 0.48255 0.34986 0.0
H13 H 0.29712 0.54582 0.30809 0.0
C14 C 0.20148 0.52644 0.34288 0.0
O15 O 0.08134 0.39558 0.31154 0.0
O16 O 0.14793 0.42125 0.28155 0.0
N17 N 0.27846 0.43605 0.3884 0.0
C18 C 0.26022 0.40391 0.41403 0.0
C19 C 0.2867 0.38275 0.42644 0.0
C20 C 0.33236 0.39589 0.41293 0.0
C21 C 0.35073 0.42972 0.38696 0.0
C22 C 0.32251 0.44924 0.37543 0.0
H23 H 0.22606 0.39486 0.42512 0.0
O24 O 0.14864 0.35488 0.32838 0.0
O25 O 0.21248 0.42738 0.33843 0.0
O26 O 0.13091 0.4049 0.38042 0.0
O27 O 0.20389 0.45436 0.4037 0.0
C28 C 0.39595 0.44475 0.37205 0.0
C29 C 0.41136 0.47755 0.34516 0.0
H30 H 0.42956 0.54164 0.29429 0.0
H31 H 0.37449 0.57265 0.27765 0.0
H32 H 0.27225 0.35696 0.44667 0.0
H33 H 0.35303 0.37989 0.42273 0.0
H34 H 0.41859 0.43079 0.38121 0.0
H35 H 0.4453 0.48764 0.33297 0.0
Mn36 Mn 0.72927 0.14689 0.66497 0.0
Mn37 Mn 0.77751 0.25509 0.70537 0.0
C38 C 0.81378 0.19497 0.67042 0.0
C39 C 0.69747 0.10097 0.61641 0.0
C40 C 0.73258 0.15688 0.73973 0.0
O41 O 0.67189 0.16021 0.66819 0.0
O42 O 0.71232 0.23675 0.68886 0.0
C43 C 0.78801 0.32098 0.6502 0.0
N44 N 0.80795 0.30904 0.67576 0.0
C45 C 0.88448 0.38358 0.66963 0.0
C46 C 0.86503 0.39686 0.64317 0.0
C47 C 0.81656 0.36531 0.63336 0.0
C48 C 0.85454 0.33891 0.68524 0.0
H49 H 0.75057 0.29699 0.64291 0.0
C50 C 0.67417 0.20019 0.67704 0.0
O51 O 0.68574 0.08073 0.64534 0.0
O52 O 0.72689 0.14802 0.61571 0.0
N53 N 0.84101 0.27842 0.72341 0.0
C54 C 0.85475 0.26001 0.74895 0.0
C55 C 0.90221 0.28685 0.76164 0.0
C56 C 0.93471 0.33305 0.74849 0.0
C57 C 0.9194 0.3516 0.72262 0.0
C58 C 0.87184 0.32297 0.71078 0.0
H59 H 0.82966 0.22543 0.75976 0.0
O60 O 0.79339 0.14889 0.66283 0.0
O61 O 0.78441 0.21247 0.67302 0.0
O62 O 0.72498 0.12983 0.7145 0.0
O63 O 0.74811 0.20268 0.73815 0.0
C64 C 0.94952 0.39738 0.70811 0.0
C65 C 0.93235 0.41297 0.68126 0.0
H66 H 0.88689 0.43121 0.6303 0.0
H67 H 0.80116 0.37532 0.61306 0.0
H68 H 0.91343 0.27226 0.78179 0.0
H69 H 0.97124 0.354 0.75848 0.0
H70 H 0.98593 0.42034 0.71755 0.0
H71 H 0.95622 0.44738 0.66939 0.0
Mn72 Mn 0.58424 0.72961 0.9993 0.0
Mn73 Mn 0.52505 0.77738 0.04067 0.0
C74 C 0.62055 0.81444 1.00456 0.0
C75 C 0.59724 0.6976 0.95048 0.0
C76 C 0.57959 0.73354 0.07418 0.0
O77 O 0.51371 0.67155 1.0032 0.0
O78 O 0.47798 0.71158 0.02468 0.0
C79 C 0.46821 0.78657 0.98614 0.0
N80 N 0.50058 0.80712 1.01139 0.0
C81 C 0.50245 0.88358 1.00506 0.0
C82 C 0.46918 0.8635 0.97892 0.0
C83 C 0.45206 0.81476 0.96937 0.0
C84 C 0.51749 0.85397 0.02062 0.0
H85 H 0.45467 0.74894 0.97902 0.0
C86 C 0.47619 0.67342 0.01267 0.0
O87 O 0.60653 0.68624 0.97926 0.0
O88 O 0.57952 0.72682 0.95007 0.0
N89 N 0.56541 0.84142 0.05831 0.0
C90 C 0.59804 0.85576 0.08357 0.0
C91 C 0.61883 0.90353 0.09602 0.0
C92 C 0.60481 0.93573 0.08293 0.0
C93 C 0.57045 0.91979 0.05738 0.0
C94 C 0.55131 0.87192 0.04579 0.0
H95 H 0.60775 0.83088 0.09435 0.0
O96 O 0.64616 0.79432 0.99656 0.0
O97 O 0.57379 0.78459 1.00768 0.0
O98 O 0.5983 0.72584 0.04864 0.0
O99 O 0.54917 0.7487 0.07308 0.0
C100 C 0.55451 0.94961 0.04291 0.0
C101 C 0.5212 0.93178 0.0164 0.0
H102 H 0.45647 0.88511 0.96608 0.0
H103 H 0.42626 0.79888 0.94931 0.0
H104 H 0.64501 0.91521 0.11595 0.0
H105 H 0.62055 0.9725 0.09274 0.0
H106 H 0.56818 0.98629 0.05211 0.0
H107 H 0.51048 0.95541 1.0045 0.0
Mn108 Mn 0.84995 0.57997 0.33093 0.0
Mn109 Mn 0.74157 0.52041 0.37062 0.0
C110 C 0.80239 0.61707 0.33571 0.0
C111 C 0.89639 0.59358 0.28276 0.0
C112 C 0.83888 0.57327 0.4056 0.0
O113 O 0.83615 0.50881 0.33451 0.0
O114 O 0.75941 0.473 0.35428 0.0
C115 C 0.6765 0.4656 0.31507 0.0
N116 N 0.68831 0.49749 0.34067 0.0
C117 C 0.61475 0.50062 0.33393 0.0
C118 C 0.60159 0.46786 0.30742 0.0
C119 C 0.63272 0.45037 0.29789 0.0
C120 C 0.65886 0.51478 0.34988 0.0
H121 H 0.70017 0.45172 0.30799 0.0
C122 C 0.79591 0.4711 0.34294 0.0
O123 O 0.91605 0.60214 0.31184 0.0
O124 O 0.84959 0.57625 0.28167 0.0
N125 N 0.71868 0.56115 0.38848 0.0
C126 C 0.73679 0.59308 0.41421 0.0
C127 C 0.71025 0.61411 0.4267 0.0
C128 C 0.66462 0.60104 0.41317 0.0
C129 C 0.64634 0.56738 0.38711 0.0
C130 C 0.67464 0.54798 0.3755 0.0
H131 H 0.77087 0.602 0.42536 0.0
O132 O 0.8484 0.64258 0.32834 0.0
O133 O 0.78471 0.57 0.33844 0.0
O134 O 0.86618 0.59288 0.38053 0.0
O135 O 0.7933 0.54283 0.40373 0.0
C136 C 0.60111 0.55233 0.37222 0.0
C137 C 0.58574 0.51964 0.34529 0.0
H138 H 0.56765 0.4558 0.2943 0.0
H139 H 0.62281 0.42494 0.27755 0.0
H140 H 0.72461 0.63973 0.44702 0.0
H141 H 0.64389 0.61691 0.42303 0.0
H142 H 0.57841 0.56617 0.38145 0.0
H143 H 0.55176 0.5095 0.33316 0.0
Mn144 Mn 0.26658 0.85381 0.66634 0.0
Mn145 Mn 0.21718 0.74585 0.70722 0.0
C146 C 0.18196 0.80624 0.67154 0.0
C147 C 0.29871 0.89924 0.61761 0.0
C148 C 0.2626 0.84434 0.7412 0.0
O149 O 0.32352 0.83988 0.66983 0.0
O150 O 0.28267 0.76391 0.69142 0.0
C151 C 0.20751 0.67969 0.65249 0.0
N152 N 0.18721 0.69175 0.67774 0.0
C153 C 0.11081 0.61713 0.67148 0.0
C154 C 0.13063 0.60372 0.64531 0.0
C155 C 0.17921 0.63524 0.63572 0.0
C156 C 0.1405 0.66191 0.687 0.0
H157 H 0.24503 0.70367 0.64538 0.0
C158 C 0.32096 0.80002 0.67935 0.0
O159 O 0.31055 0.91972 0.64645 0.0
O160 O 0.26902 0.85225 0.6171 0.0
N161 N 0.15339 0.72277 0.72464 0.0
C162 C 0.13915 0.74161 0.74962 0.0
C163 C 0.09148 0.71489 0.76199 0.0
C164 C 0.05926 0.66844 0.74906 0.0
C165 C 0.07503 0.64956 0.72367 0.0
C166 C 0.12279 0.67806 0.71216 0.0
H167 H 0.16398 0.7765 0.76017 0.0
O168 O 0.20273 0.85235 0.66393 0.0
O169 O 0.21105 0.78845 0.67444 0.0
O170 O 0.27107 0.87138 0.71583 0.0
O171 O 0.24603 0.79835 0.73986 0.0
C172 C 0.04513 0.60362 0.70928 0.0
C173 C 0.06279 0.58781 0.68285 0.0
H174 H 0.10894 0.56932 0.63248 0.0
H175 H 0.19489 0.62513 0.61565 0.0
H176 H 0.07985 0.7298 0.78171 0.0
H177 H 0.02257 0.64762 0.75881 0.0
H178 H 0.0085 0.58073 0.71842 0.0
H179 H 0.03913 0.55333 0.67103 0.0
Mn180 Mn 0.41413 0.26628 0.99792 0.0
Mn181 Mn 0.47415 0.21883 0.03863 0.0
C182 C 0.37818 0.18144 1.00307 0.0
C183 C 0.40037 0.29851 0.94945 0.0
C184 C 0.42009 0.26272 0.07268 0.0
O185 O 0.48469 0.32446 1.00159 0.0
O186 O 0.52098 0.28434 0.02207 0.0
C187 C 0.53003 0.20872 0.98384 0.0
N188 N 0.49797 0.18856 1.00929 0.0
C189 C 0.4964 0.11215 1.00363 0.0
C190 C 0.52935 0.13183 0.97728 0.0
C191 C 0.54613 0.18034 0.96727 0.0
C192 C 0.48134 0.14191 0.01893 0.0
H193 H 0.54341 0.24621 0.97642 0.0
C194 C 0.52246 0.32252 1.01037 0.0
O195 O 0.39141 0.30961 0.9784 0.0
O196 O 0.41821 0.26939 0.94864 0.0
N197 N 0.43395 0.15504 0.05672 0.0
C198 C 0.40165 0.14108 0.08217 0.0
C199 C 0.38114 0.09355 0.09502 0.0
C200 C 0.3951 0.06122 0.08214 0.0
C201 C 0.4291 0.07675 0.05636 0.0
C202 C 0.44791 0.12437 0.04435 0.0
H203 H 0.39202 0.16608 0.09281 0.0
O204 O 0.35232 0.2014 0.99533 0.0
O205 O 0.42493 0.21143 1.00597 0.0
O206 O 0.40055 0.2698 0.04735 0.0
O207 O 0.45091 0.24811 0.07123 0.0
C208 C 0.44506 0.04682 0.04215 0.0
C209 C 0.47805 0.06424 0.01544 0.0
H210 H 0.54209 0.1101 0.96464 0.0
H211 H 0.5717 0.19591 0.94706 0.0
H212 H 0.35524 0.08218 0.11511 0.0
H213 H 0.37963 0.02465 0.09228 0.0
H214 H 0.4317 0.01038 0.05172 0.0
H215 H 0.48885 0.04051 1.00381 0.0
Mn216 Mn 0.5849 0.85105 0.35859 0.0
Mn217 Mn 0.52488 0.74315 0.31791 0.0
C218 C 0.62088 0.80247 0.35351 0.0
C219 C 0.59825 0.89681 0.40714 0.0
C220 C 0.57921 0.84156 0.28385 0.0
O221 O 0.51446 0.83832 0.35471 0.0
O222 O 0.47804 0.76158 0.33435 0.0
C223 C 0.46902 0.67696 0.37282 0.0
N224 N 0.501 0.68895 0.34733 0.0
C225 C 0.50283 0.61429 0.35338 0.0
C226 C 0.46999 0.60096 0.37978 0.0
C227 C 0.4531 0.63254 0.38959 0.0
C228 C 0.51772 0.65906 0.33786 0.0
H229 H 0.4556 0.70099 0.38012 0.0
C230 C 0.47665 0.79838 0.34593 0.0
O231 O 0.60751 0.91717 0.37824 0.0
O232 O 0.58043 0.84972 0.40783 0.0
N233 N 0.56502 0.71974 0.29991 0.0
C234 C 0.59723 0.73815 0.27441 0.0
C235 C 0.61781 0.71128 0.2617 0.0
C236 C 0.60398 0.66501 0.27478 0.0
C237 C 0.57001 0.64642 0.30058 0.0
C238 C 0.55113 0.67509 0.31244 0.0
H239 H 0.60673 0.77273 0.2636 0.0
O240 O 0.64668 0.84844 0.36135 0.0
O241 O 0.57413 0.78535 0.35053 0.0
O242 O 0.59871 0.86831 0.30919 0.0
O243 O 0.5483 0.79589 0.28528 0.0
C244 C 0.55418 0.60053 0.31498 0.0
C245 C 0.52126 0.58486 0.34172 0.0
H246 H 0.45743 0.56657 0.39261 0.0
H247 H 0.42761 0.6225 0.40984 0.0
H248 H 0.64365 0.72589 0.24158 0.0
H249 H 0.61952 0.64403 0.26477 0.0
H250 H 0.5676 0.57754 0.30552 0.0
H251 H 0.51057 0.55032 0.35349 0.0
Mn252 Mn 0.73029 0.58351 0.69187 0.0
Mn253 Mn 0.77943 0.52453 0.65175 0.0
C254 C 0.81489 0.62088 0.68692 0.0
C255 C 0.69794 0.59683 0.74037 0.0
C256 C 0.7348 0.57754 0.6171 0.0
O257 O 0.67309 0.51237 0.68832 0.0
O258 O 0.71385 0.47696 0.66759 0.0
C259 C 0.78872 0.4687 0.70707 0.0
N260 N 0.8092 0.5009 0.68166 0.0
C261 C 0.88564 0.50357 0.68867 0.0
C262 C 0.86562 0.47049 0.71499 0.0
C263 C 0.81692 0.45306 0.72428 0.0
C264 C 0.85601 0.5181 0.67267 0.0
H265 H 0.75112 0.4549 0.71398 0.0
C266 C 0.67552 0.47485 0.67926 0.0
O267 O 0.68641 0.60547 0.71145 0.0
O268 O 0.72745 0.57955 0.74109 0.0
N269 N 0.84332 0.56534 0.63433 0.0
C270 C 0.85763 0.59792 0.60895 0.0
C271 C 0.90538 0.61904 0.59675 0.0
C272 C 0.93758 0.60543 0.61024 0.0
C273 C 0.92171 0.57119 0.63596 0.0
C274 C 0.87386 0.55172 0.64729 0.0
H275 H 0.83279 0.6074 0.59792 0.0
O276 O 0.79425 0.64622 0.69438 0.0
O277 O 0.78568 0.57379 0.68413 0.0
O278 O 0.72645 0.59646 0.64229 0.0
O279 O 0.75079 0.54776 0.61875 0.0
C280 C 0.95156 0.55571 0.65087 0.0
C281 C 0.93379 0.5226 0.67758 0.0
H282 H 0.88724 0.45816 0.72817 0.0
H283 H 0.8011 0.4274 0.74448 0.0
H284 H 0.91706 0.64519 0.57673 0.0
H285 H 0.97434 0.62142 0.60062 0.0
H286 H 0.98823 0.56961 0.64186 0.0
H287 H 0.95743 0.5122 0.68977 0.0
Mn288 Mn 0.14998 0.72841 0.02689 0.0
Mn289 Mn 0.25834 0.77727 0.98728 0.0
C290 C 0.19781 0.81333 0.02185 0.0
C291 C 0.1035 0.69568 0.07511 0.0
C292 C 0.16106 0.73247 0.95226 0.0
O293 O 0.16334 0.67085 0.02343 0.0
O294 O 0.2403 0.71199 1.00402 0.0
C295 C 0.32328 0.78847 0.04303 0.0
N296 N 0.31157 0.80825 0.01723 0.0
C297 C 0.38497 0.88566 0.02399 0.0
C298 C 0.398 0.86638 0.05071 0.0
C299 C 0.36691 0.81754 0.06031 0.0
C300 C 0.34099 0.85519 1.00794 0.0
H301 H 0.29963 0.75076 0.05019 0.0
C302 C 0.20356 0.67343 0.01526 0.0
O303 O 0.0838 0.68436 0.04604 0.0
O304 O 0.15035 0.72522 0.07616 0.0
N305 N 0.28141 0.84091 0.96905 0.0
C306 C 0.26357 0.85431 0.94299 0.0
C307 C 0.29014 0.902 0.93035 0.0
C308 C 0.33557 0.9351 0.94405 0.0
C309 C 0.35365 0.92011 0.97037 0.0
C310 C 0.32533 0.87227 0.98212 0.0
H311 H 0.22975 0.82873 0.93165 0.0
O312 O 0.15187 0.79274 0.02933 0.0
O313 O 0.21531 0.7839 0.01927 0.0
O314 O 0.13385 0.72504 0.97731 0.0
O315 O 0.20652 0.74728 0.95418 0.0
C316 C 0.39875 0.9508 0.98535 0.0
C317 C 0.41399 0.93386 0.01251 0.0
H318 H 0.4318 0.88865 0.06393 0.0
H319 H 0.37673 0.80227 0.08081 0.0
H320 H 0.27598 0.91291 0.90978 0.0
H321 H 0.35632 0.97181 0.93409 0.0
H322 H 0.42146 0.98744 0.976 0.0
H323 H 0.44795 0.95812 0.02466 0.0
Mn324 Mn 0.41222 0.14629 0.35841 0.0
Mn325 Mn 0.47179 0.2539 0.31728 0.0
C326 C 0.37598 0.1946 0.35304 0.0
C327 C 0.39894 0.10102 0.40721 0.0
C328 C 0.41769 0.15523 0.28359 0.0
O329 O 0.48275 0.15927 0.35468 0.0
O330 O 0.5188 0.23559 0.3336 0.0
C331 C 0.52796 0.3203 0.37199 0.0
N332 N 0.49586 0.30823 0.34658 0.0
C333 C 0.49392 0.38282 0.35261 0.0
C334 C 0.52687 0.39623 0.37895 0.0
C335 C 0.54389 0.36474 0.38873 0.0
C336 C 0.47904 0.33805 0.33712 0.0
H337 H 0.54144 0.29632 0.37928 0.0
C338 C 0.52041 0.19907 0.34551 0.0
O339 O 0.38979 0.08038 0.37842 0.0
O340 O 0.41665 0.14809 0.40765 0.0
N341 N 0.43149 0.27718 0.29937 0.0
C342 C 0.39897 0.25854 0.27406 0.0
C343 C 0.37822 0.2853 0.26142 0.0
C344 C 0.39214 0.33165 0.27439 0.0
C345 C 0.42636 0.35043 0.30003 0.0
C346 C 0.44545 0.32189 0.31181 0.0
H347 H 0.38931 0.22384 0.26338 0.0
O348 O 0.35029 0.14864 0.36097 0.0
O349 O 0.42275 0.21184 0.35007 0.0
O350 O 0.39855 0.12857 0.30903 0.0
O351 O 0.44814 0.20102 0.28483 0.0
C352 C 0.44221 0.39635 0.31438 0.0
C353 C 0.47533 0.41215 0.34101 0.0
H354 H 0.5394 0.43061 0.39177 0.0
H355 H 0.56946 0.37486 0.40893 0.0
H356 H 0.35212 0.27053 0.24145 0.0
H357 H 0.37643 0.35252 0.26445 0.0
H358 H 0.42861 0.41924 0.30502 0.0
H359 H 0.48603 0.44668 0.35276 0.0
Mn360 Mn 0.26519 0.41596 0.69304 0.0
Mn361 Mn 0.21646 0.47556 0.65321 0.0
C362 C 0.18059 0.37887 0.68803 0.0
C363 C 0.29756 0.40194 0.7413 0.0
C364 C 0.26144 0.42308 0.61835 0.0
O365 O 0.32246 0.48718 0.68977 0.0
O366 O 0.28168 0.52298 0.66964 0.0
C367 C 0.20601 0.5305 0.70861 0.0
N368 N 0.18604 0.49859 0.68301 0.0
C369 C 0.10957 0.49611 0.68919 0.0
C370 C 0.12904 0.52886 0.71571 0.0
C371 C 0.1775 0.54603 0.72553 0.0
C372 C 0.13945 0.4816 0.67354 0.0
H373 H 0.24345 0.54418 0.71587 0.0
C374 C 0.31998 0.52487 0.68119 0.0
O375 O 0.30899 0.39367 0.71225 0.0
O376 O 0.26808 0.41927 0.74232 0.0
N377 N 0.1529 0.43482 0.63528 0.0
C378 C 0.13906 0.40248 0.6098 0.0
C379 C 0.09157 0.38152 0.59716 0.0
C380 C 0.05914 0.39507 0.61031 0.0
C381 C 0.07452 0.42905 0.63618 0.0
C382 C 0.1221 0.4483 0.64797 0.0
H383 H 0.16409 0.39306 0.59901 0.0
O384 O 0.20108 0.35332 0.69533 0.0
O385 O 0.20994 0.42595 0.68542 0.0
O386 O 0.26911 0.40347 0.64343 0.0
O387 O 0.24583 0.45315 0.62019 0.0
C388 C 0.04445 0.44453 0.65072 0.0
C389 C 0.06174 0.47744 0.67753 0.0
H390 H 0.10721 0.54115 0.72864 0.0
H391 H 0.19291 0.57146 0.74587 0.0
H392 H 0.08027 0.35557 0.57704 0.0
H393 H 0.02261 0.37925 0.60034 0.0
H394 H 0.008 0.43084 0.64135 0.0
H395 H 0.03796 0.48793 0.68937 0.0
Mn396 Mn 0.84923 0.26786 0.02599 0.0
Mn397 Mn 0.74088 0.21788 0.98623 0.0
C398 C 0.8019 0.18285 0.02123 0.0
C399 C 0.89543 0.30092 0.07427 0.0
C400 C 0.83829 0.26332 0.95131 0.0
O401 O 0.83526 0.32499 0.02236 0.0
O402 O 0.75866 0.2834 1.00236 0.0
C403 C 0.67581 0.20734 0.04173 0.0
N404 N 0.68761 0.18726 0.01618 0.0
C405 C 0.61412 0.10996 0.0231 0.0
C406 C 0.60099 0.12956 0.04957 0.0
C407 C 0.63207 0.17849 0.05898 0.0
C408 C 0.65818 0.14023 1.00708 0.0
H409 H 0.69945 0.24511 0.04873 0.0
C410 C 0.79507 0.32212 0.01374 0.0
O411 O 0.91524 0.31236 0.04523 0.0
O412 O 0.84864 0.27108 0.07524 0.0
N413 N 0.71805 0.15399 0.96856 0.0
C414 C 0.73628 0.14017 0.94298 0.0
C415 C 0.70982 0.0923 0.93063 0.0
C416 C 0.66416 0.05944 0.94416 0.0
C417 C 0.64578 0.07482 0.97008 0.0
C418 C 0.674 0.12282 0.98155 0.0
H419 H 0.77043 0.16551 0.93186 0.0
O420 O 0.84791 0.20383 0.0286 0.0
O421 O 0.78407 0.21197 0.01846 0.0
O422 O 0.86561 0.27148 0.9764 0.0
O423 O 0.79262 0.24742 0.95313 0.0
C424 C 0.60057 0.04432 0.98501 0.0
C425 C 0.58516 0.06164 1.01187 0.0
H426 H 0.56713 0.10744 0.06277 0.0
H427 H 0.62217 0.19399 0.07928 0.0
H428 H 0.72428 0.08102 0.91043 0.0
H429 H 0.64351 0.02259 0.93442 0.0
H430 H 0.57792 0.00752 0.97591 0.0
H431 H 0.55117 0.03753 0.02403 0.0
H432 H 0.19363 0.58447 0.38874 0.0
H433 H 0.23606 0.58192 0.28837 0.0
H434 H 0.24983 0.67267 0.39116 0.0
H435 H 0.29375 0.66895 0.29081 0.0
H436 H 0.4198 0.80792 0.30009 0.0
H437 H 0.33156 0.75353 0.29769 0.0
H438 H 0.33389 0.70803 0.39788 0.0
H439 H 0.42103 0.76396 0.40031 0.0
C440 C 0.21285 0.60337 0.36653 0.0
C441 C 0.21038 0.57649 0.33831 0.0
C442 C 0.24599 0.65384 0.36809 0.0
C443 C 0.278 0.6781 0.34166 0.0
C444 C 0.27009 0.65219 0.31182 0.0
C445 C 0.23649 0.60193 0.31019 0.0
C446 C 0.40069 0.78878 0.32227 0.0
C447 C 0.42711 0.79031 0.35046 0.0
C448 C 0.35016 0.75669 0.32072 0.0
C449 C 0.32537 0.72473 0.34713 0.0
C450 C 0.35106 0.73172 0.37691 0.0
C451 C 0.40139 0.76429 0.37853 0.0
H452 H 0.65373 0.23459 0.62234 0.0
H453 H 0.60781 0.1917 0.72257 0.0
H454 H 0.62397 0.29174 0.62439 0.0
H455 H 0.57535 0.24731 0.72458 0.0
H456 H 0.65404 0.41907 0.73365 0.0
H457 H 0.62347 0.33178 0.73133 0.0
H458 H 0.57671 0.32872 0.63079 0.0
H459 H 0.60998 0.41716 0.63311 0.0
C460 C 0.63387 0.23477 0.64404 0.0
C461 C 0.63303 0.20871 0.67224 0.0
C462 C 0.61696 0.26806 0.64544 0.0
C463 C 0.59852 0.27569 0.67513 0.0
C464 C 0.59066 0.24368 0.70163 0.0
C465 C 0.60827 0.21088 0.7003 0.0
C466 C 0.63444 0.3992 0.7118 0.0
C467 C 0.63429 0.42482 0.68363 0.0
C468 C 0.61705 0.34879 0.71024 0.0
C469 C 0.59884 0.32291 0.68041 0.0
C470 C 0.59179 0.34749 0.65387 0.0
C471 C 0.60988 0.39811 0.65536 0.0
H472 H 0.41869 0.60736 0.05868 0.0
H473 H 0.42081 0.6518 0.95816 0.0
H474 H 0.3307 0.57435 0.06103 0.0
H475 H 0.33395 0.62152 0.96053 0.0
H476 H 0.19469 0.60681 0.96963 0.0
H477 H 0.24975 0.57383 0.96738 0.0
H478 H 0.29448 0.62232 0.06756 0.0
H479 H 0.23794 0.65266 0.06981 0.0
C480 C 0.39978 0.60738 0.03643 0.0
C481 C 0.42645 0.63189 1.00818 0.0
C482 C 0.34941 0.58945 0.03795 0.0
C483 C 0.32503 0.59677 1.01144 0.0
C484 C 0.35081 0.61493 0.9816 0.0
C485 C 0.40098 0.63213 0.98001 0.0
C486 C 0.21383 0.60713 0.99185 0.0
C487 C 0.2119 0.63201 0.01997 0.0
C488 C 0.24631 0.58922 0.99038 0.0
C489 C 0.27822 0.59687 0.01682 0.0
C490 C 0.27086 0.61546 0.04655 0.0
C491 C 0.23793 0.6327 0.04808 0.0
H492 H 0.57596 0.23354 0.39989 0.0
H493 H 0.57751 0.18997 0.29964 0.0
H494 H 0.66311 0.28947 0.39759 0.0
H495 H 0.66576 0.24434 0.29737 0.0
H496 H 0.76165 0.41593 0.28832 0.0
H497 H 0.70377 0.32895 0.29061 0.0
H498 H 0.7472 0.32467 0.39103 0.0
H499 H 0.8036 0.41285 0.38875 0.0
C500 C 0.59567 0.2333 0.37812 0.0
C501 C 0.57003 0.20736 0.35002 0.0
C502 C 0.64601 0.26587 0.37658 0.0
C503 C 0.67181 0.27294 0.34684 0.0
C504 C 0.64708 0.24111 0.32038 0.0
C505 C 0.59655 0.20903 0.32185 0.0
C506 C 0.76108 0.39581 0.31013 0.0
C507 C 0.78711 0.42111 0.3383 0.0
C508 C 0.72736 0.34557 0.31167 0.0
C509 C 0.71926 0.31954 0.34148 0.0
C510 C 0.7512 0.34361 0.36797 0.0
C511 C 0.78446 0.39407 0.36649 0.0
H512 H 0.34187 0.76566 0.62484 0.0
H513 H 0.38621 0.80737 0.72543 0.0
H514 H 0.37149 0.70837 0.627 0.0
H515 H 0.41856 0.75168 0.72756 0.0
H516 H 0.34059 0.57992 0.73585 0.0
H517 H 0.37069 0.66713 0.73385 0.0
H518 H 0.41894 0.67159 0.63356 0.0
H519 H 0.38616 0.58321 0.63554 0.0
C520 C 0.36134 0.76517 0.64667 0.0
C521 C 0.36183 0.79099 0.67489 0.0
C522 C 0.37818 0.73182 0.64813 0.0
C523 C 0.39619 0.72387 0.67791 0.0
C524 C 0.4036 0.75556 0.70452 0.0
C525 C 0.38605 0.7884 0.70313 0.0
C526 C 0.36043 0.6001 0.71414 0.0
C527 C 0.36113 0.57486 0.68593 0.0
C528 C 0.37753 0.65047 0.71276 0.0
C529 C 0.39602 0.6767 0.68308 0.0
C530 C 0.40362 0.65253 0.65652 0.0
C531 C 0.38583 0.60195 0.65784 0.0
H532 H 0.80359 0.38804 0.96762 0.0
H533 H 0.76024 0.34316 0.06795 0.0
H534 H 0.74863 0.4211 0.96497 0.0
H535 H 0.70378 0.3736 0.0653 0.0
H536 H 0.58002 0.38929 0.05599 0.0
H537 H 0.66797 0.42196 0.05837 0.0
H538 H 0.66438 0.37355 0.9582 0.0
H539 H 0.57758 0.34355 0.95579 0.0
C540 C 0.78443 0.38793 0.98977 0.0
C541 C 0.78635 0.36336 0.01807 0.0
C542 C 0.75201 0.4059 0.98808 0.0
C543 C 0.72014 0.39861 0.01447 0.0
C544 C 0.7274 0.38022 0.04433 0.0
C545 C 0.76028 0.36292 0.04608 0.0
C546 C 0.59886 0.38895 0.03379 0.0
C547 C 0.57209 0.36412 1.00565 0.0
C548 C 0.6492 0.40667 0.03534 0.0
C549 C 0.67344 0.39888 1.00896 0.0
C550 C 0.64761 0.38048 0.97917 0.0
C551 C 0.59749 0.36346 0.97755 0.0
H552 H 0.17128 0.29825 0.37072 0.0
H553 H 0.28121 0.40449 0.30583 0.0
H554 H 0.21697 0.25447 0.3744 0.0
H555 H 0.32823 0.36205 0.31091 0.0
H556 H 0.40188 0.28261 0.38191 0.0
H557 H 0.36054 0.33065 0.37658 0.0
H558 H 0.25109 0.218 0.31481 0.0
H559 H 0.29381 0.17126 0.31869 0.0
C560 C 0.20555 0.31252 0.35761 0.0
C561 C 0.22372 0.35567 0.33894 0.0
C562 C 0.23161 0.28759 0.35977 0.0
C563 C 0.27626 0.30533 0.34324 0.0
C564 C 0.29414 0.34803 0.32413 0.0
C565 C 0.26757 0.3725 0.3215 0.0
C566 C 0.36972 0.26887 0.36653 0.0
C567 C 0.35205 0.22431 0.34963 0.0
C568 C 0.34588 0.29603 0.36377 0.0
C569 C 0.30295 0.27805 0.34509 0.0
C570 C 0.2844 0.23273 0.3291 0.0
C571 C 0.30872 0.20607 0.33136 0.0
H572 H 0.87631 0.28261 0.64125 0.0
H573 H 0.87211 0.17156 0.70532 0.0
H574 H 0.96568 0.33027 0.6467 0.0
H575 H 0.96153 0.21789 0.70933 0.0
H576 H 0.12161 0.29661 0.6534 0.0
H577 H 0.03217 0.25333 0.64967 0.0
H578 H 0.02921 0.36189 0.71254 0.0
H579 H 0.11861 0.4038 0.71769 0.0
C580 C 0.89453 0.26887 0.65684 0.0
C581 C 0.86739 0.2245 0.67393 0.0
C582 C 0.94552 0.2958 0.65968 0.0
C583 C 0.97018 0.27777 0.67862 0.0
C584 C 0.94316 0.23265 0.69483 0.0
C585 C 0.89221 0.20623 0.69249 0.0
C586 C 0.10177 0.31119 0.66637 0.0
C587 C 0.12693 0.35447 0.68487 0.0
C588 C 0.05081 0.28656 0.66418 0.0
C589 C 0.02412 0.30473 0.68051 0.0
C590 C 0.04912 0.34755 0.69947 0.0
C591 C 0.10012 0.37171 0.70213 0.0
H592 H 0.71534 0.11992 0.05117 0.0
H593 H 0.82535 0.12431 0.98645 0.0
H594 H 0.66833 0.0301 0.0462 0.0
H595 H 0.7797 0.03447 0.98291 0.0
H596 H 0.7029 0.87398 0.0387 0.0
H597 H 0.74567 0.96377 0.04241 0.0
H598 H 0.63594 0.96599 0.98084 0.0
H599 H 0.59453 0.87627 0.97567 0.0
C600 C 0.729 0.10163 0.03555 0.0
C601 C 0.77285 0.12895 0.01812 0.0
C602 C 0.70244 0.05039 0.033 0.0
C603 C 0.72036 0.02567 0.01398 0.0
C604 C 0.76503 0.05288 0.99747 0.0
C605 C 0.79106 0.10407 0.99954 0.0
C606 C 0.68794 0.89374 0.02603 0.0
C607 C 0.64452 0.86827 1.00787 0.0
C608 C 0.71229 0.9449 0.0282 0.0
C609 C 0.69367 0.97149 0.01221 0.0
C610 C 0.65065 0.94618 0.99364 0.0
C611 C 0.62678 0.89498 0.99097 0.0
H612 H 0.59517 0.71457 0.38253 0.0
H613 H 0.7026 0.82551 0.31873 0.0
H614 H 0.63647 0.66649 0.37708 0.0
H615 H 0.74526 0.77873 0.31471 0.0
H616 H 0.82544 0.69877 0.37094 0.0
H617 H 0.77956 0.74235 0.37475 0.0
H618 H 0.6687 0.63514 0.31088 0.0
H619 H 0.71588 0.59288 0.30571 0.0
C620 C 0.62718 0.7282 0.367 0.0
C621 C 0.6447 0.77268 0.35 0.0
C622 C 0.65099 0.70102 0.36417 0.0
C623 C 0.69372 0.71888 0.34529 0.0
C624 C 0.7121 0.76409 0.32915 0.0
C625 C 0.68782 0.79077 0.33151 0.0
C626 C 0.79121 0.68453 0.35778 0.0
C627 C 0.77321 0.64155 0.33897 0.0
C628 C 0.76505 0.70934 0.36001 0.0
C629 C 0.72047 0.69166 0.34341 0.0
C630 C 0.70274 0.64912 0.32416 0.0
C631 C 0.72941 0.62476 0.32148 0.0
H632 H 0.12276 0.83018 0.70488 0.0
H633 H 0.12012 0.71836 0.64246 0.0
H634 H 0.03327 0.78368 0.70814 0.0
H635 H 0.03068 0.67049 0.64726 0.0
H636 H 0.87368 0.7036 0.65265 0.0
H637 H 0.96316 0.74755 0.6493 0.0
H638 H 0.9665 0.63867 0.71166 0.0
H639 H 0.87706 0.59615 0.71651 0.0
C640 C 0.10298 0.79533 0.69224 0.0
C641 C 0.12826 0.77685 0.67443 0.0
C642 C 0.05199 0.76881 0.69415 0.0
C643 C 0.02539 0.72337 0.67827 0.0
C644 C 0.05051 0.7052 0.65998 0.0
C645 C 0.10153 0.73225 0.65754 0.0
C646 C 0.89362 0.68909 0.66558 0.0
C647 C 0.86856 0.64556 0.68386 0.0
C648 C 0.94461 0.71412 0.66362 0.0
C649 C 0.97142 0.69606 0.67992 0.0
C650 C 0.94651 0.65295 0.69862 0.0
C651 C 0.89548 0.62843 0.7011 0.0
H652 H 0.29645 0.1218 0.03776 0.0
H653 H 0.4042 0.11975 0.97396 0.0
H654 H 0.25424 0.03206 0.04184 0.0
H655 H 0.36329 0.03006 0.97942 0.0
H656 H 0.28417 0.87675 0.05183 0.0
H657 H 0.33111 0.96651 0.04625 0.0
H658 H 0.22066 0.96094 0.98144 0.0
H659 H 0.17501 0.87117 0.98569 0.0
C660 C 0.31138 0.10211 0.02498 0.0
C661 C 0.35447 0.12764 1.00649 0.0
C662 C 0.28736 0.05098 0.02737 0.0
C663 C 0.30596 0.02447 1.01125 0.0
C664 C 0.34862 0.04983 0.99233 0.0
C665 C 0.3722 0.10099 0.98948 0.0
C666 C 0.2707 0.89475 0.03577 0.0
C667 C 0.22706 0.86713 0.01817 0.0
C668 C 0.29723 0.94596 0.03285 0.0
C669 C 0.27952 0.97032 0.01323 0.0
C670 C 0.23515 0.9428 0.99646 0.0
C671 C 0.20912 0.89166 0.99893 0.0
H672 H 0.99119 0.373 0.08017 0.0
H673 H 0.86694 0.27046 0.13766 0.0
H674 H 0.04049 0.40132 0.13011 0.0
H675 H 0.91652 0.29704 0.18742 0.0
H676 H 0.12958 0.40219 0.21911 0.0
H677 H 0.08003 0.37913 0.16934 0.0
H678 H 0.95625 0.35894 0.22667 0.0
H679 H 0.00551 0.37998 0.27661 0.0
C680 C 0.97441 0.35639 0.10349 0.0
C681 C 0.92508 0.31945 0.10487 0.0
C682 C 0.00283 0.37237 0.13221 0.0
C683 C 0.98287 0.35147 0.1631 0.0
C684 C 0.93326 0.31478 0.16437 0.0
C685 C 0.90474 0.29921 0.1357 0.0
C686 C 0.09182 0.39301 0.22107 0.0
C687 C 0.07153 0.39279 0.25191 0.0
C688 C 0.06332 0.38002 0.1924 0.0
C689 C 0.01377 0.36694 0.19367 0.0
C690 C 0.99386 0.36777 0.22457 0.0
C691 C 0.02226 0.38024 0.25328 0.0
H692 H 0.72901 0.13028 0.55331 0.0
H693 H 0.62596 0.00484 0.60987 0.0
H694 H 0.70352 0.08104 0.50331 0.0
H695 H 0.59871 0.95588 0.55968 0.0
H696 H 0.62246 0.99282 0.41341 0.0
H697 H 0.64267 0.04168 0.46357 0.0
H698 H 0.62129 0.91658 0.52052 0.0
H699 H 0.59901 0.86742 0.47048 0.0
C700 C 0.70038 0.09228 0.555 0.0
C701 C 0.67966 0.07152 0.58565 0.0
C702 C 0.68544 0.06396 0.5262 0.0
C703 C 0.64891 0.01412 0.52713 0.0
C704 C 0.62756 0.99373 0.55784 0.0
C705 C 0.64292 0.02195 0.5867 0.0
C706 C 0.62178 0.9757 0.4367 0.0
C707 C 0.6091 0.92618 0.43789 0.0
C708 C 0.63377 0.00387 0.46555 0.0
C709 C 0.63401 0.98347 0.49641 0.0
C710 C 0.62084 0.93366 0.49749 0.0
C711 C 0.60831 0.90538 0.46868 0.0
H712 H 0.62127 0.62594 0.94356 0.0
H713 H 0.59814 0.72866 0.88738 0.0
H714 H 0.64172 0.59827 0.89313 0.0
H715 H 0.62066 0.70276 0.83708 0.0
H716 H 0.62634 0.62084 0.747 0.0
H717 H 0.59857 0.64146 0.79735 0.0
H718 H 0.70296 0.62109 0.85362 0.0
H719 H 0.72894 0.59843 0.80348 0.0
C720 C 0.6207 0.64275 0.92041 0.0
C721 C 0.60807 0.67954 0.91956 0.0
C722 C 0.63283 0.62714 0.89141 0.0
C723 C 0.63327 0.64831 0.86072 0.0
C724 C 0.62008 0.68484 0.85996 0.0
C725 C 0.60741 0.70002 0.88893 0.0
C726 C 0.64309 0.62045 0.77019 0.0
C727 C 0.67985 0.60793 0.77116 0.0
C728 C 0.62743 0.63268 0.79914 0.0
C729 C 0.64849 0.63328 0.82987 0.0
C730 C 0.68507 0.62032 0.83072 0.0
C731 C 0.7003 0.60757 0.80183 0.0
H732 H 0.00759 0.62398 0.08083 0.0
H733 H 0.1317 0.72616 0.13853 0.0
H734 H 0.95794 0.59595 0.13062 0.0
H735 H 0.08179 0.69989 0.18816 0.0
H736 H 0.99197 0.61735 0.27721 0.0
H737 H 0.04156 0.63818 0.22745 0.0
H738 H 0.91834 0.61837 0.1696 0.0
H739 H 0.86844 0.59549 0.21922 0.0
C740 C 0.02426 0.64058 0.10417 0.0
C741 C 0.07366 0.67733 0.10564 0.0
C742 C 0.99565 0.62476 0.13281 0.0
C743 C 0.01546 0.64566 0.16372 0.0
C744 C 0.06514 0.68216 0.16509 0.0
C745 C 0.09385 0.69755 0.13651 0.0
C746 C 0.97542 0.61714 0.25381 0.0
C747 C 0.9262 0.60473 0.25225 0.0
C748 C 0.00401 0.62949 0.22519 0.0
C749 C 0.98435 0.63036 0.19419 0.0
C750 C 0.93485 0.61744 0.19274 0.0
C751 C 0.90615 0.60456 0.22132 0.0
H752 H 0.39826 0.1312 0.47032 0.0
H753 H 0.37447 0.00499 0.41413 0.0
H754 H 0.37579 0.08262 0.52064 0.0
H755 H 0.35404 0.95671 0.46458 0.0
H756 H 0.26723 0.86935 0.55459 0.0
H757 H 0.29302 0.91801 0.50433 0.0
H758 H 0.3981 0.04358 0.56023 0.0
H759 H 0.37056 0.99519 0.61067 0.0
C760 C 0.38885 0.09318 0.46877 0.0
C761 C 0.38802 0.072 0.43814 0.0
C762 C 0.37621 0.06524 0.49775 0.0
C763 C 0.36287 0.01538 0.497 0.0
C764 C 0.36307 0.99458 0.4663 0.0
C765 C 0.37519 0.02242 0.43728 0.0
C766 C 0.29598 0.90731 0.55613 0.0
C767 C 0.3167 0.92836 0.58672 0.0
C768 C 0.3111 0.9353 0.52718 0.0
C769 C 0.34779 0.98508 0.52789 0.0
C770 C 0.36914 0.00576 0.55854 0.0
C771 C 0.35361 0.97787 0.58755 0.0
H772 H 0.37594 0.36999 0.94349 0.0
H773 H 0.39881 0.26821 0.88601 0.0
H774 H 0.35479 0.39816 0.89359 0.0
H775 H 0.3756 0.29464 0.83622 0.0
H776 H 0.36919 0.37791 0.74712 0.0
H777 H 0.39728 0.3565 0.79698 0.0
H778 H 0.29323 0.37591 0.85437 0.0
H779 H 0.2669 0.39935 0.80468 0.0
C780 C 0.3763 0.35349 0.92017 0.0
C781 C 0.38909 0.31682 0.9188 0.0
C782 C 0.36376 0.36939 0.89147 0.0
C783 C 0.36305 0.34865 0.86056 0.0
C784 C 0.37637 0.31222 0.85928 0.0
C785 C 0.38945 0.29675 0.88796 0.0
C786 C 0.35257 0.37791 0.77044 0.0
C787 C 0.31581 0.39041 0.77186 0.0
C788 C 0.36842 0.36522 0.79912 0.0
C789 C 0.34755 0.36411 0.83001 0.0
C790 C 0.31096 0.37705 0.83132 0.0
C791 C 0.29553 0.39026 0.8027 0.0
H792 H 0.16002 0.47534 0.4594 0.0
H793 H 0.12479 0.33124 0.42701 0.0
H794 H 0.18868 0.46168 0.51171 0.0
H795 H 0.15506 0.31786 0.47927 0.0
H796 H 0.20201 0.33024 0.59646 0.0
H797 H 0.15874 0.31751 0.54411 0.0
H798 H 0.26931 0.46154 0.51231 0.0
H799 H 0.31125 0.47459 0.56472 0.0
C800 C 0.15554 0.43953 0.46427 0.0
C801 C 0.14141 0.40491 0.43888 0.0
C802 C 0.17335 0.43219 0.49384 0.0
C803 C 0.17688 0.38991 0.49859 0.0
C804 C 0.15393 0.35132 0.47587 0.0
C805 C 0.13547 0.35858 0.44622 0.0
C806 C 0.21884 0.35778 0.57736 0.0
C807 C 0.25919 0.404 0.58493 0.0
C808 C 0.19334 0.35088 0.54766 0.0
C809 C 0.20918 0.38972 0.52512 0.0
C810 C 0.25499 0.43187 0.53006 0.0
C811 C 0.27993 0.43886 0.55969 0.0
H812 H 0.8364 0.31219 0.89722 0.0
H813 H 0.87176 0.20384 0.93006 0.0
H814 H 0.80711 0.26897 0.8452 0.0
H815 H 0.84088 0.15931 0.87809 0.0
H816 H 0.79211 0.12362 0.76091 0.0
H817 H 0.83625 0.15467 0.81294 0.0
H818 H 0.72613 0.18723 0.84586 0.0
H819 H 0.68325 0.15774 0.79378 0.0
C820 C 0.84079 0.2808 0.89249 0.0
C821 C 0.85504 0.26064 0.91797 0.0
C822 C 0.82264 0.25514 0.86309 0.0
C823 C 0.81893 0.20919 0.8586 0.0
C824 C 0.84213 0.19399 0.88131 0.0
C825 C 0.86093 0.22022 0.91079 0.0
C826 C 0.77555 0.13418 0.7802 0.0
C827 C 0.73509 0.13975 0.77301 0.0
C828 C 0.80155 0.15309 0.80972 0.0
C829 C 0.78609 0.17607 0.83244 0.0
C830 C 0.74013 0.1719 0.82795 0.0
C831 C 0.71468 0.15362 0.79851 0.0
H832 H 0.67261 0.87522 0.26379 0.0
H833 H 0.53025 0.84031 0.22899 0.0
H834 H 0.6872 0.84425 0.21221 0.0
H835 H 0.54511 0.81079 0.17742 0.0
H836 H 0.53134 0.6844 0.12892 0.0
H837 H 0.54582 0.72852 0.18062 0.0
H838 H 0.68715 0.83977 0.14571 0.0
H839 H 0.67296 0.79447 0.09402 0.0
C840 C 0.64596 0.86452 0.24417 0.0
C841 C 0.59963 0.85864 0.25071 0.0
C842 C 0.65394 0.84569 0.21492 0.0
C843 C 0.61606 0.82248 0.19183 0.0
C844 C 0.57402 0.82639 0.19562 0.0
C845 C 0.56599 0.84463 0.22478 0.0
C846 C 0.5669 0.71636 0.13313 0.0
C847 C 0.60036 0.73677 0.10714 0.0
C848 C 0.57469 0.74246 0.16237 0.0
C849 C 0.61633 0.78903 0.16617 0.0
C850 C 0.65418 0.80456 0.14301 0.0
C851 C 0.64645 0.77792 0.11368 0.0
H852 H 0.87308 0.66683 0.42631 0.0
H853 H 0.8358 0.52274 0.46017 0.0
H854 H 0.84274 0.68155 0.47808 0.0
H855 H 0.80694 0.5377 0.51196 0.0
H856 H 0.68437 0.5269 0.56343 0.0
H857 H 0.72664 0.53933 0.51121 0.0
H858 H 0.83871 0.68244 0.54332 0.0
H859 H 0.79517 0.67033 0.59548 0.0
C860 C 0.8619 0.63974 0.44575 0.0
C861 C 0.85541 0.59305 0.43893 0.0
C862 C 0.84342 0.64779 0.47512 0.0
C863 C 0.81984 0.60959 0.49805 0.0
C864 C 0.82279 0.5669 0.49389 0.0
C865 C 0.84068 0.5588 0.46462 0.0
C866 C 0.71611 0.56238 0.55848 0.0
C867 C 0.73719 0.59704 0.5838 0.0
C868 C 0.7412 0.56899 0.52896 0.0
C869 C 0.78748 0.6106 0.52421 0.0
C870 C 0.80373 0.64947 0.54674 0.0
C871 C 0.77808 0.64294 0.57633 0.0
H872 H 0.16554 0.68709 0.89705 0.0
H873 H 0.12611 0.79137 0.93235 0.0
H874 H 0.19403 0.73234 0.84566 0.0
H875 H 0.156 0.83784 0.88093 0.0
H876 H 0.20241 0.87616 0.76337 0.0
H877 H 0.15971 0.84381 0.8157 0.0
H878 H 0.27359 0.81566 0.84673 0.0
H879 H 0.31499 0.84631 0.79429 0.0
C880 C 0.16015 0.718 0.893 0.0
C881 C 0.14486 0.73641 0.91897 0.0
C882 C 0.17781 0.74482 0.86396 0.0
C883 C 0.17999 0.79021 0.8603 0.0
C884 C 0.15592 0.80364 0.88353 0.0
C885 C 0.1377 0.77628 0.91268 0.0
C886 C 0.22007 0.86632 0.78232 0.0
C887 C 0.26113 0.86213 0.77444 0.0
C888 C 0.19491 0.84667 0.81202 0.0
C889 C 0.2119 0.8245 0.83427 0.0
C890 C 0.25845 0.83034 0.82919 0.0
C891 C 0.28304 0.84931 0.79954 0.0
H892 H 0.32475 0.12226 0.26287 0.0
H893 H 0.46696 0.15478 0.22938 0.0
H894 H 0.31148 0.15315 0.2108 0.0
H895 H 0.45337 0.18411 0.17728 0.0
H896 H 0.46939 0.31084 0.12738 0.0
H897 H 0.4544 0.26684 0.17918 0.0
H898 H 0.31196 0.15738 0.14475 0.0
H899 H 0.32668 0.20261 0.09294 0.0
C900 C 0.35161 0.13239 0.24345 0.0
C901 C 0.39757 0.13766 0.25047 0.0
C902 C 0.34441 0.15118 0.2139 0.0
C903 C 0.38264 0.17369 0.191 0.0
C904 C 0.42421 0.16909 0.19532 0.0
C905 C 0.43149 0.15093 0.22479 0.0
C906 C 0.43357 0.27932 0.1317 0.0
C907 C 0.39982 0.2594 0.10584 0.0
C908 C 0.42546 0.25325 0.16099 0.0
C909 C 0.38324 0.20717 0.16499 0.0
C910 C 0.34536 0.19218 0.1419 0.0
C911 C 0.35341 0.2188 0.11251 0.0
loop_
_geom_bond_atom_site_label_1
_geom_bond_atom_site_label_2
_geom_bond_distance
_geom_bond_site_symmetry_2
_ccdc_geom_bond_type
Mn0 O5 2.095 . S
Mn0 O15 2.162 . S
Mn0 O16 2.297 . S
Mn0 O24 2.385 . S
Mn0 O25 2.209 . S
Mn0 O26 2.094 . S
Mn1 O6 2.121 . S
Mn1 N8 2.257 . S
Mn1 N17 2.282 . S
Mn1 O25 2.215 . S
Mn1 O27 2.117 . S
C2 O24 1.234 . S
C2 O25 1.283 . S
C3 O15 1.281 . S
C3 O16 1.236 . S
C4 O26 1.240 . S
C4 O27 1.264 . S
O5 Mn0 2.095 . S
O5 C14 1.250 . S
O6 Mn1 2.121 . S
O6 C14 1.258 . S
C7 N8 1.326 . S
C7 C11 1.460 . S
C7 H13 0.929 . S
N8 Mn1 2.257 . S
N8 C7 1.326 . S
N8 C12 1.362 . S
C9 C10 1.258 . S
C9 C12 1.431 . S
C9 C29 1.449 . S
C10 C9 1.258 . S
C10 C11 1.477 . S
C10 H30 0.931 . S
C11 C7 1.460 . S
C11 C10 1.477 . S
C11 H31 0.930 . S
C12 N8 1.362 . S
C12 C9 1.431 . S
C12 C22 1.476 . S
H13 C7 0.929 . S
C14 O5 1.250 . S
C14 O6 1.258 . S
O15 Mn0 2.162 . S
O15 C3 1.281 . S
O16 Mn0 2.297 . S
O16 C3 1.236 . S
N17 Mn1 2.282 . S
N17 C18 1.328 . S
N17 C22 1.318 . S
C18 N17 1.328 . S
C18 C19 1.457 . S
C18 H23 0.929 . S
C19 C18 1.457 . S
C19 C20 1.291 . S
C19 H32 0.931 . S
C20 C19 1.291 . S
C20 C21 1.373 . S
C20 H33 0.929 . S
C21 C20 1.373 . S
C21 C22 1.396 . S
C21 C28 1.403 . S
C22 C12 1.476 . S
C22 N17 1.318 . S
C22 C21 1.396 . S
H23 C18 0.929 . S
O24 Mn0 2.385 . S
O24 C2 1.234 . S
O25 Mn0 2.209 . S
O25 Mn1 2.215 . S
O25 C2 1.283 . S
O26 Mn0 2.094 . S
O26 C4 1.240 . S
O27 Mn1 2.117 . S
O27 C4 1.264 . S
C28 C21 1.403 . S
C28 C29 1.399 . S
C28 H34 0.929 . S
C29 C9 1.449 . S
C29 C28 1.399 . S
C29 H35 0.930 . S
H30 C10 0.931 . S
H31 C11 0.930 . S
H32 C19 0.931 . S
H33 C20 0.929 . S
H34 C28 0.929 . S
H35 C29 0.930 . S
Mn36 O41 2.095 . S
Mn36 O51 2.162 . S
Mn36 O52 2.297 . S
Mn36 O60 2.385 . S
Mn36 O61 2.209 . S
Mn36 O62 2.094 . S
Mn37 O42 2.121 . S
Mn37 N44 2.257 . S
Mn37 N53 2.282 . S
Mn37 O61 2.215 . S
Mn37 O63 2.117 . S
C38 O60 1.234 . S
C38 O61 1.283 . S
C39 O51 1.281 . S
C39 O52 1.236 . S
C40 O62 1.240 . S
C40 O63 1.264 . S
O41 Mn36 2.095 . S
O41 C50 1.250 . S
O42 Mn37 2.121 . S
O42 C50 1.258 . S
C43 N44 1.326 . S
C43 C47 1.460 . S
C43 H49 0.929 . S
N44 Mn37 2.257 . S
N44 C43 1.326 . S
N44 C48 1.362 . S
C45 C46 1.258 . S
C45 C48 1.431 . S
C45 C65 1.449 1_655 S
C46 C45 1.258 . S
C46 C47 1.477 . S
C46 H66 0.931 1_655 S
C47 C43 1.460 . S
C47 C46 1.477 . S
C47 H67 0.930 . S
C48 N44 1.362 . S
C48 C45 1.431 . S
C48 C58 1.476 . S
H49 C43 0.929 . S
C50 O41 1.250 . S
C50 O42 1.258 . S
O51 Mn36 2.162 . S
O51 C39 1.281 . S
O52 Mn36 2.297 . S
O52 C39 1.236 . S
N53 Mn37 2.282 . S
N53 C54 1.328 . S
N53 C58 1.318 . S
C54 N53 1.328 . S
C54 C55 1.457 . S
C54 H59 0.929 . S
C55 C54 1.457 . S
C55 C56 1.291 . S
C55 H68 0.931 . S
C56 C55 1.291 . S
C56 C57 1.373 . S
C56 H69 0.929 1_655 S
C57 C56 1.373 . S
C57 C58 1.396 . S
C57 C64 1.403 1_655 S
C58 C48 1.476 . S
C58 N53 1.318 . S
C58 C57 1.396 . S
H59 C54 0.929 . S
O60 Mn36 2.385 . S
O60 C38 1.234 . S
O61 Mn36 2.209 . S
O61 Mn37 2.215 . S
O61 C38 1.283 . S
O62 Mn36 2.094 . S
O62 C40 1.240 . S
O63 Mn37 2.117 . S
O63 C40 1.264 . S
C64 C57 1.403 1_455 S
C64 C65 1.399 . S
C64 H70 0.929 . S
C65 C45 1.449 1_455 S
C65 C64 1.399 . S
C65 H71 0.930 . S
H66 C46 0.931 1_455 S
H67 C47 0.930 . S
H68 C55 0.931 . S
H69 C56 0.929 1_455 S
H70 C64 0.929 . S
H71 C65 0.930 . S
Mn72 O77 2.093 1_556 S
Mn72 O87 2.179 . S
Mn72 O88 2.332 . S
Mn72 O96 2.387 . S
Mn72 O97 2.211 . S
Mn72 O98 2.060 1_556 S
Mn73 O78 2.121 . S
Mn73 N80 2.257 . S
Mn73 N89 2.282 . S
Mn73 O97 2.215 1_554 S
Mn73 O99 2.117 . S
C74 O96 1.234 . S
C74 O97 1.283 . S
C75 O87 1.281 . S
C75 O88 1.236 . S
C76 O98 1.240 . S
C76 O99 1.264 . S
O77 Mn72 2.093 1_554 S
O77 C86 1.249 1_554 S
O78 Mn73 2.121 . S
O78 C86 1.257 1_554 S
C79 N80 1.326 1_556 S
C79 C83 1.460 . S
C79 H85 0.929 . S
N80 Mn73 2.257 . S
N80 C79 1.326 1_554 S
N80 C84 1.362 . S
C81 C82 1.258 . S
C81 C84 1.431 . S
C81 C101 1.449 1_565 S
C82 C81 1.258 . S
C82 C83 1.477 1_554 S
C82 H102 0.931 1_564 S
C83 C79 1.460 . S
C83 C82 1.477 1_556 S
C83 H103 0.930 . S
C84 N80 1.362 . S
C84 C81 1.431 . S
C84 C94 1.476 . S
H85 C79 0.929 . S
C86 O77 1.249 1_556 S
C86 O78 1.257 1_556 S
O87 Mn72 2.179 . S
O87 C75 1.281 . S
O88 Mn72 2.332 . S
O88 C75 1.236 . S
N89 Mn73 2.282 . S
N89 C90 1.328 . S
N89 C94 1.318 . S
C90 N89 1.328 . S
C90 C91 1.457 . S
C90 H95 0.929 . S
C91 C90 1.457 . S
C91 C92 1.291 . S
C91 H104 0.931 . S
C92 C91 1.291 . S
C92 C93 1.373 . S
C92 H105 0.929 1_565 S
C93 C92 1.373 . S
C93 C94 1.396 . S
C93 C100 1.403 1_565 S
C94 C84 1.476 . S
C94 N89 1.318 . S
C94 C93 1.396 . S
H95 C90 0.929 . S
O96 Mn72 2.387 . S
O96 C74 1.234 . S
O97 Mn72 2.211 . S
O97 Mn73 2.215 1_556 S
O97 C74 1.283 . S
O98 Mn72 2.060 1_554 S
O98 C76 1.240 . S
O99 Mn73 2.117 . S
O99 C76 1.264 . S
C100 C93 1.403 1_545 S
C100 C101 1.399 . S
C100 H106 0.929 . S
C101 C81 1.449 1_545 S
C101 C100 1.399 . S
C101 H107 0.930 . S
H102 C82 0.931 1_546 S
H103 C83 0.930 . S
H104 C91 0.931 . S
H105 C92 0.929 1_545 S
H106 C100 0.929 . S
H107 C101 0.930 . S
Mn108 O113 2.095 . S
Mn108 O123 2.162 . S
Mn108 O124 2.297 . S
Mn108 O132 2.385 . S
Mn108 O133 2.209 . S
Mn108 O134 2.094 . S
Mn109 O114 2.121 . S
Mn109 N116 2.257 . S
Mn109 N125 2.282 . S
Mn109 O133 2.215 . S
Mn109 O135 2.117 . S
C110 O132 1.234 . S
C110 O133 1.283 . S
C111 O123 1.281 . S
C111 O124 1.236 . S
C112 O134 1.240 . S
C112 O135 1.264 . S
O113 Mn108 2.095 . S
O113 C122 1.250 . S
O114 Mn109 2.121 . S
O114 C122 1.258 . S
C115 N116 1.326 . S
C115 C119 1.460 . S
C115 H121 0.929 . S
N116 Mn109 2.257 . S
N116 C115 1.326 . S
N116 C120 1.362 . S
C117 C118 1.258 . S
C117 C120 1.431 . S
C117 C137 1.449 . S
C118 C117 1.258 . S
C118 C119 1.477 . S
C118 H138 0.931 . S
C119 C115 1.460 . S
C119 C118 1.477 . S
C119 H139 0.930 . S
C120 N116 1.362 . S
C120 C117 1.431 . S
C120 C130 1.476 . S
H121 C115 0.929 . S
C122 O113 1.250 . S
C122 O114 1.258 . S
O123 Mn108 2.162 . S
O123 C111 1.281 . S
O124 Mn108 2.297 . S
O124 C111 1.236 . S
N125 Mn109 2.282 . S
N125 C126 1.328 . S
N125 C130 1.318 . S
C126 N125 1.328 . S
C126 C127 1.457 . S
C126 H131 0.929 . S
C127 C126 1.457 . S
C127 C128 1.291 . S
C127 H140 0.931 . S
C128 C127 1.291 . S
C128 C129 1.373 . S
C128 H141 0.929 . S
C129 C128 1.373 . S
C129 C130 1.396 . S
C129 C136 1.403 . S
C130 C120 1.476 . S
C130 N125 1.318 . S
C130 C129 1.396 . S
H131 C126 0.929 . S
O132 Mn108 2.385 . S
O132 C110 1.234 . S
O133 Mn108 2.209 . S
O133 Mn109 2.215 . S
O133 C110 1.283 . S
O134 Mn108 2.094 . S
O134 C112 1.240 . S
O135 Mn109 2.117 . S
O135 C112 1.264 . S
C136 C129 1.403 . S
C136 C137 1.399 . S
C136 H142 0.929 . S
C137 C117 1.449 . S
C137 C136 1.399 . S
C137 H143 0.930 . S
H138 C118 0.931 . S
H139 C119 0.930 . S
H140 C127 0.931 . S
H141 C128 0.929 . S
H142 C136 0.929 . S
H143 C137 0.930 . S
Mn144 O149 2.095 . S
Mn144 O159 2.162 . S
Mn144 O160 2.297 . S
Mn144 O168 2.385 . S
Mn144 O169 2.209 . S
Mn144 O170 2.094 . S
Mn145 O150 2.121 . S
Mn145 N152 2.257 . S
Mn145 N161 2.282 . S
Mn145 O169 2.215 . S
Mn145 O171 2.117 . S
C146 O168 1.234 . S
C146 O169 1.283 . S
C147 O159 1.281 . S
C147 O160 1.236 . S
C148 O170 1.240 . S
C148 O171 1.264 . S
O149 Mn144 2.095 . S
O149 C158 1.250 . S
O150 Mn145 2.121 . S
O150 C158 1.258 . S
C151 N152 1.326 . S
C151 C155 1.460 . S
C151 H157 0.929 . S
N152 Mn145 2.257 . S
N152 C151 1.326 . S
N152 C156 1.362 . S
C153 C154 1.258 . S
C153 C156 1.431 . S
C153 C173 1.449 1_455 S
C154 C153 1.258 . S
C154 C155 1.477 . S
C154 H174 0.931 1_455 S
C155 C151 1.460 . S
C155 C154 1.477 . S
C155 H175 0.930 . S
C156 N152 1.362 . S
C156 C153 1.431 . S
C156 C166 1.476 . S
H157 C151 0.929 . S
C158 O149 1.250 . S
C158 O150 1.258 . S
O159 Mn144 2.162 . S
O159 C147 1.281 . S
O160 Mn144 2.297 . S
O160 C147 1.236 . S
N161 Mn145 2.282 . S
N161 C162 1.328 . S
N161 C166 1.318 . S
C162 N161 1.328 . S
C162 C163 1.457 . S
C162 H167 0.929 . S
C163 C162 1.457 . S
C163 C164 1.291 . S
C163 H176 0.931 . S
C164 C163 1.291 . S
C164 C165 1.373 . S
C164 H177 0.929 1_455 S
C165 C164 1.373 . S
C165 C166 1.396 . S
C165 C172 1.403 1_455 S
C166 C156 1.476 . S
C166 N161 1.318 . S
C166 C165 1.396 . S
H167 C162 0.929 . S
O168 Mn144 2.385 . S
O168 C146 1.234 . S
O169 Mn144 2.209 . S
O169 Mn145 2.215 . S
O169 C146 1.283 . S
O170 Mn144 2.094 . S
O170 C148 1.240 . S
O171 Mn145 2.117 . S
O171 C148 1.264 . S
C172 C165 1.403 1_655 S
C172 C173 1.399 . S
C172 H178 0.929 . S
C173 C153 1.449 1_655 S
C173 C172 1.399 . S
C173 H179 0.930 . S
H174 C154 0.931 1_655 S
H175 C155 0.930 . S
H176 C163 0.931 . S
H177 C164 0.929 1_655 S
H178 C172 0.929 . S
H179 C173 0.930 . S
Mn180 O185 2.093 1_556 S
Mn180 O195 2.179 . S
Mn180 O196 2.332 . S
Mn180 O204 2.387 . S
Mn180 O205 2.211 . S
Mn180 O206 2.060 1_556 S
Mn181 O186 2.121 . S
Mn181 N188 2.257 . S
Mn181 N197 2.282 . S
Mn181 O205 2.215 1_554 S
Mn181 O207 2.117 . S
C182 O204 1.234 . S
C182 O205 1.283 . S
C183 O195 1.281 . S
C183 O196 1.236 . S
C184 O206 1.240 . S
C184 O207 1.264 . S
O185 Mn180 2.093 1_554 S
O185 C194 1.249 1_554 S
O186 Mn181 2.121 . S
O186 C194 1.257 1_554 S
C187 N188 1.326 1_556 S
C187 C191 1.460 . S
C187 H193 0.929 . S
N188 Mn181 2.257 . S
N188 C187 1.326 1_554 S
N188 C192 1.362 . S
C189 C190 1.258 . S
C189 C192 1.431 . S
C189 C209 1.449 1_545 S
C190 C189 1.258 . S
C190 C191 1.477 1_554 S
C190 H210 0.931 1_544 S
C191 C187 1.460 . S
C191 C190 1.477 1_556 S
C191 H211 0.930 . S
C192 N188 1.362 . S
C192 C189 1.431 . S
C192 C202 1.476 . S
H193 C187 0.929 . S
C194 O185 1.249 1_556 S
C194 O186 1.257 1_556 S
O195 Mn180 2.179 . S
O195 C183 1.281 . S
O196 Mn180 2.332 . S
O196 C183 1.236 . S
N197 Mn181 2.282 . S
N197 C198 1.328 . S
N197 C202 1.318 . S
C198 N197 1.328 . S
C198 C199 1.457 . S
C198 H203 0.929 . S
C199 C198 1.457 . S
C199 C200 1.291 . S
C199 H212 0.931 . S
C200 C199 1.291 . S
C200 C201 1.373 . S
C200 H213 0.929 1_545 S
C201 C200 1.373 . S
C201 C202 1.396 . S
C201 C208 1.403 1_545 S
C202 C192 1.476 . S
C202 N197 1.318 . S
C202 C201 1.396 . S
H203 C198 0.929 . S
O204 Mn180 2.387 . S
O204 C182 1.234 . S
O205 Mn180 2.211 . S
O205 Mn181 2.215 1_556 S
O205 C182 1.283 . S
O206 Mn180 2.060 1_554 S
O206 C184 1.240 . S
O207 Mn181 2.117 . S
O207 C184 1.264 . S
C208 C201 1.403 1_565 S
C208 C209 1.399 . S
C208 H214 0.929 . S
C209 C189 1.449 1_565 S
C209 C208 1.399 . S
C209 H215 0.930 . S
H210 C190 0.931 1_566 S
H211 C191 0.930 . S
H212 C199 0.931 . S
H213 C200 0.929 1_565 S
H214 C208 0.929 . S
H215 C209 0.930 . S
Mn216 O221 2.095 . S
Mn216 O231 2.162 . S
Mn216 O232 2.297 . S
Mn216 O240 2.385 . S
Mn216 O241 2.209 . S
Mn216 O242 2.094 . S
Mn217 O222 2.121 . S
Mn217 N224 2.257 . S
Mn217 N233 2.282 . S
Mn217 O241 2.215 . S
Mn217 O243 2.117 . S
C218 O240 1.234 . S
C218 O241 1.283 . S
C219 O231 1.281 . S
C219 O232 1.236 . S
C220 O242 1.240 . S
C220 O243 1.264 . S
O221 Mn216 2.095 . S
O221 C230 1.250 . S
O222 Mn217 2.121 . S
O222 C230 1.258 . S
C223 N224 1.326 . S
C223 C227 1.460 . S
C223 H229 0.929 . S
N224 Mn217 2.257 . S
N224 C223 1.326 . S
N224 C228 1.362 . S
C225 C226 1.258 . S
C225 C228 1.431 . S
C225 C245 1.449 . S
C226 C225 1.258 . S
C226 C227 1.477 . S
C226 H246 0.931 . S
C227 C223 1.460 . S
C227 C226 1.477 . S
C227 H247 0.930 . S
C228 N224 1.362 . S
C228 C225 1.431 . S
C228 C238 1.476 . S
H229 C223 0.929 . S
C230 O221 1.250 . S
C230 O222 1.258 . S
O231 Mn216 2.162 . S
O231 C219 1.281 . S
O232 Mn216 2.297 . S
O232 C219 1.236 . S
N233 Mn217 2.282 . S
N233 C234 1.328 . S
N233 C238 1.318 . S
C234 N233 1.328 . S
C234 C235 1.457 . S
C234 H239 0.929 . S
C235 C234 1.457 . S
C235 C236 1.291 . S
C235 H248 0.931 . S
C236 C235 1.291 . S
C236 C237 1.373 . S
C236 H249 0.929 . S
C237 C236 1.373 . S
C237 C238 1.396 . S
C237 C244 1.403 . S
C238 C228 1.476 . S
C238 N233 1.318 . S
C238 C237 1.396 . S
H239 C234 0.929 . S
O240 Mn216 2.385 . S
O240 C218 1.234 . S
O241 Mn216 2.209 . S
O241 Mn217 2.215 . S
O241 C218 1.283 . S
O242 Mn216 2.094 . S
O242 C220 1.240 . S
O243 Mn217 2.117 . S
O243 C220 1.264 . S
C244 C237 1.403 . S
C244 C245 1.399 . S
C244 H250 0.929 . S
C245 C225 1.449 . S
C245 C244 1.399 . S
C245 H251 0.930 . S
H246 C226 0.931 . S
H247 C227 0.930 . S
H248 C235 0.931 . S
H249 C236 0.929 . S
H250 C244 0.929 . S
H251 C245 0.930 . S
Mn252 O257 2.095 . S
Mn252 O267 2.162 . S
Mn252 O268 2.297 . S
Mn252 O276 2.385 . S
Mn252 O277 2.209 . S
Mn252 O278 2.094 . S
Mn253 O258 2.121 . S
Mn253 N260 2.257 . S
Mn253 N269 2.282 . S
Mn253 O277 2.215 . S
Mn253 O279 2.117 . S
C254 O276 1.234 . S
C254 O277 1.283 . S
C255 O267 1.281 . S
C255 O268 1.236 . S
C256 O278 1.240 . S
C256 O279 1.264 . S
O257 Mn252 2.095 . S
O257 C266 1.250 . S
O258 Mn253 2.121 . S
O258 C266 1.258 . S
C259 N260 1.326 . S
C259 C263 1.460 . S
C259 H265 0.929 . S
N260 Mn253 2.257 . S
N260 C259 1.326 . S
N260 C264 1.362 . S
C261 C262 1.258 . S
C261 C264 1.431 . S
C261 C281 1.449 1_655 S
C262 C261 1.258 . S
C262 C263 1.477 . S
C262 H282 0.931 . S
C263 C259 1.460 . S
C263 C262 1.477 . S
C263 H283 0.930 . S
C264 N260 1.362 . S
C264 C261 1.431 . S
C264 C274 1.476 . S
H265 C259 0.929 . S
C266 O257 1.250 . S
C266 O258 1.258 . S
O267 Mn252 2.162 . S
O267 C255 1.281 . S
O268 Mn252 2.297 . S
O268 C255 1.236 . S
N269 Mn253 2.282 . S
N269 C270 1.328 . S
N269 C274 1.318 . S
C270 N269 1.328 . S
C270 C271 1.457 . S
C270 H275 0.929 . S
C271 C270 1.457 . S
C271 C272 1.291 . S
C271 H284 0.931 . S
C272 C271 1.291 . S
C272 C273 1.373 . S
C272 H285 0.937 . S
C273 C272 1.373 . S
C273 C274 1.396 . S
C273 C280 1.403 1_655 S
C274 C264 1.476 . S
C274 N269 1.318 . S
C274 C273 1.396 . S
H275 C270 0.929 . S
O276 Mn252 2.385 . S
O276 C254 1.234 . S
O277 Mn252 2.209 . S
O277 Mn253 2.215 . S
O277 C254 1.283 . S
O278 Mn252 2.094 . S
O278 C256 1.240 . S
O279 Mn253 2.117 . S
O279 C256 1.264 . S
C280 C273 1.403 1_455 S
C280 C281 1.399 . S
C280 H286 0.929 . S
C281 C261 1.449 1_455 S
C281 C280 1.399 . S
C281 H287 0.930 . S
H282 C262 0.931 . S
H283 C263 0.930 . S
H284 C271 0.931 . S
H285 C272 0.937 . S
H286 C280 0.929 . S
H287 C281 0.930 . S
Mn288 O293 2.093 1_554 S
Mn288 O303 2.179 . S
Mn288 O304 2.332 . S
Mn288 O312 2.387 . S
Mn288 O313 2.211 . S
Mn288 O314 2.060 1_554 S
Mn289 O294 2.121 . S
Mn289 N296 2.257 . S
Mn289 N305 2.282 . S
Mn289 O313 2.215 1_556 S
Mn289 O315 2.117 . S
C290 O312 1.234 . S
C290 O313 1.283 . S
C291 O303 1.281 . S
C291 O304 1.236 . S
C292 O314 1.240 . S
C292 O315 1.264 . S
O293 Mn288 2.093 1_556 S
O293 C302 1.249 1_556 S
O294 Mn289 2.121 . S
O294 C302 1.257 1_556 S
C295 N296 1.326 1_554 S
C295 C299 1.460 . S
C295 H301 0.929 . S
N296 Mn289 2.257 . S
N296 C295 1.326 1_556 S
N296 C300 1.362 . S
C297 C298 1.258 . S
C297 C300 1.431 . S
C297 C317 1.449 1_565 S
C298 C297 1.258 . S
C298 C299 1.477 1_556 S
C298 H318 0.931 1_566 S
C299 C295 1.460 . S
C299 C298 1.477 1_554 S
C299 H319 0.930 . S
C300 N296 1.362 . S
C300 C297 1.431 . S
C300 C310 1.476 . S
H301 C295 0.929 . S
C302 O293 1.249 1_554 S
C302 O294 1.257 1_554 S
O303 Mn288 2.179 . S
O303 C291 1.281 . S
O304 Mn288 2.332 . S
O304 C291 1.236 . S
N305 Mn289 2.282 . S
N305 C306 1.328 . S
N305 C310 1.318 . S
C306 N305 1.328 . S
C306 C307 1.457 . S
C306 H311 0.929 . S
C307 C306 1.457 . S
C307 C308 1.291 . S
C307 H320 0.931 . S
C308 C307 1.291 . S
C308 C309 1.373 . S
C308 H321 0.929 1_565 S
C309 C308 1.373 . S
C309 C310 1.396 . S
C309 C316 1.403 1_565 S
C310 C300 1.476 . S
C310 N305 1.318 . S
C310 C309 1.396 . S
H311 C306 0.929 . S
O312 Mn288 2.387 . S
O312 C290 1.234 . S
O313 Mn288 2.211 . S
O313 Mn289 2.215 1_554 S
O313 C290 1.283 . S
O314 Mn288 2.060 1_556 S
O314 C292 1.240 . S
O315 Mn289 2.117 . S
O315 C292 1.264 . S
C316 C309 1.403 1_545 S
C316 C317 1.399 . S
C316 H322 0.929 . S
C317 C297 1.449 1_545 S
C317 C316 1.399 . S
C317 H323 0.930 . S
H318 C298 0.931 1_544 S
H319 C299 0.930 . S
H320 C307 0.931 . S
H321 C308 0.929 1_545 S
H322 C316 0.929 . S
H323 C317 0.930 . S
Mn324 O329 2.095 . S
Mn324 O339 2.162 . S
Mn324 O340 2.297 . S
Mn324 O348 2.385 . S
Mn324 O349 2.209 . S
Mn324 O350 2.094 . S
Mn325 O330 2.121 . S
Mn325 N332 2.257 . S
Mn325 N341 2.282 . S
Mn325 O349 2.215 . S
Mn325 O351 2.117 . S
C326 O348 1.234 . S
C326 O349 1.283 . S
C327 O339 1.281 . S
C327 O340 1.236 . S
C328 O350 1.240 . S
C328 O351 1.264 . S
O329 Mn324 2.095 . S
O329 C338 1.250 . S
O330 Mn325 2.121 . S
O330 C338 1.258 . S
C331 N332 1.326 . S
C331 C335 1.460 . S
C331 H337 0.929 . S
N332 Mn325 2.257 . S
N332 C331 1.326 . S
N332 C336 1.362 . S
C333 C334 1.258 . S
C333 C336 1.431 . S
C333 C353 1.449 . S
C334 C333 1.258 . S
C334 C335 1.477 . S
C334 H354 0.931 . S
C335 C331 1.460 . S
C335 C334 1.477 . S
C335 H355 0.930 . S
C336 N332 1.362 . S
C336 C333 1.431 . S
C336 C346 1.476 . S
H337 C331 0.929 . S
C338 O329 1.250 . S
C338 O330 1.258 . S
O339 Mn324 2.162 . S
O339 C327 1.281 . S
O340 Mn324 2.297 . S
O340 C327 1.236 . S
N341 Mn325 2.282 . S
N341 C342 1.328 . S
N341 C346 1.318 . S
C342 N341 1.328 . S
C342 C343 1.457 . S
C342 H347 0.929 . S
C343 C342 1.457 . S
C343 C344 1.291 . S
C343 H356 0.931 . S
C344 C343 1.291 . S
C344 C345 1.373 . S
C344 H357 0.929 . S
C345 C344 1.373 . S
C345 C346 1.396 . S
C345 C352 1.403 . S
C346 C336 1.476 . S
C346 N341 1.318 . S
C346 C345 1.396 . S
H347 C342 0.929 . S
O348 Mn324 2.385 . S
O348 C326 1.234 . S
O349 Mn324 2.209 . S
O349 Mn325 2.215 . S
O349 C326 1.283 . S
O350 Mn324 2.094 . S
O350 C328 1.240 . S
O351 Mn325 2.117 . S
O351 C328 1.264 . S
C352 C345 1.403 . S
C352 C353 1.399 . S
C352 H358 0.929 . S
C353 C333 1.449 . S
C353 C352 1.399 . S
C353 H359 0.930 . S
H354 C334 0.931 . S
H355 C335 0.930 . S
H356 C343 0.931 . S
H357 C344 0.929 . S
H358 C352 0.929 . S
H359 C353 0.930 . S
Mn360 O365 2.095 . S
Mn360 O375 2.162 . S
Mn360 O376 2.297 . S
Mn360 O384 2.385 . S
Mn360 O385 2.209 . S
Mn360 O386 2.094 . S
Mn361 O366 2.121 . S
Mn361 N368 2.257 . S
Mn361 N377 2.282 . S
Mn361 O385 2.215 . S
Mn361 O387 2.117 . S
C362 O384 1.234 . S
C362 O385 1.283 . S
C363 O375 1.281 . S
C363 O376 1.236 . S
C364 O386 1.240 . S
C364 O387 1.264 . S
O365 Mn360 2.095 . S
O365 C374 1.250 . S
O366 Mn361 2.121 . S
O366 C374 1.258 . S
C367 N368 1.326 . S
C367 C371 1.460 . S
C367 H373 0.929 . S
N368 Mn361 2.257 . S
N368 C367 1.326 . S
N368 C372 1.362 . S
C369 C370 1.258 . S
C369 C372 1.431 . S
C369 C389 1.449 1_455 S
C370 C369 1.258 . S
C370 C371 1.477 . S
C370 H390 0.931 . S
C371 C367 1.460 . S
C371 C370 1.477 . S
C371 H391 0.930 . S
C372 N368 1.362 . S
C372 C369 1.431 . S
C372 C382 1.476 . S
H373 C367 0.929 . S
C374 O365 1.250 . S
C374 O366 1.258 . S
O375 Mn360 2.162 . S
O375 C363 1.281 . S
O376 Mn360 2.297 . S
O376 C363 1.236 . S
N377 Mn361 2.282 . S
N377 C378 1.328 . S
N377 C382 1.318 . S
C378 N377 1.328 . S
C378 C379 1.457 . S
C378 H383 0.929 . S
C379 C378 1.457 . S
C379 C380 1.291 . S
C379 H392 0.931 . S
C380 C379 1.291 . S
C380 C381 1.373 . S
C380 H393 0.937 . S
C381 C380 1.373 . S
C381 C382 1.396 . S
C381 C388 1.403 1_455 S
C382 C372 1.476 . S
C382 N377 1.318 . S
C382 C381 1.396 . S
H383 C378 0.929 . S
O384 Mn360 2.385 . S
O384 C362 1.234 . S
O385 Mn360 2.209 . S
O385 Mn361 2.215 . S
O385 C362 1.283 . S
O386 Mn360 2.094 . S
O386 C364 1.240 . S
O387 Mn361 2.117 . S
O387 C364 1.264 . S
C388 C381 1.403 1_655 S
C388 C389 1.399 . S
C388 H394 0.929 . S
C389 C369 1.449 1_655 S
C389 C388 1.399 . S
C389 H395 0.930 . S
H390 C370 0.931 . S
H391 C371 0.930 . S
H392 C379 0.931 . S
H393 C380 0.937 . S
H394 C388 0.929 . S
H395 C389 0.930 . S
Mn396 O401 2.093 1_554 S
Mn396 O411 2.179 . S
Mn396 O412 2.332 . S
Mn396 O420 2.387 . S
Mn396 O421 2.211 . S
Mn396 O422 2.060 1_554 S
Mn397 O402 2.121 . S
Mn397 N404 2.257 . S
Mn397 N413 2.282 . S
Mn397 O421 2.215 1_556 S
Mn397 O423 2.117 . S
C398 O420 1.234 . S
C398 O421 1.283 . S
C399 O411 1.281 . S
C399 O412 1.236 . S
C400 O422 1.240 . S
C400 O423 1.264 . S
O401 Mn396 2.093 1_556 S
O401 C410 1.249 1_556 S
O402 Mn397 2.121 . S
O402 C410 1.257 1_556 S
C403 N404 1.326 1_554 S
C403 C407 1.460 . S
C403 H409 0.929 . S
N404 Mn397 2.257 . S
N404 C403 1.326 1_556 S
N404 C408 1.362 . S
C405 C406 1.258 . S
C405 C408 1.431 . S
C405 C425 1.449 1_545 S
C406 C405 1.258 . S
C406 C407 1.477 1_556 S
C406 H426 0.931 1_546 S
C407 C403 1.460 . S
C407 C406 1.477 1_554 S
C407 H427 0.930 . S
C408 N404 1.362 . S
C408 C405 1.431 . S
C408 C418 1.476 . S
H409 C403 0.929 . S
C410 O401 1.249 1_554 S
C410 O402 1.257 1_554 S
O411 Mn396 2.179 . S
O411 C399 1.281 . S
O412 Mn396 2.332 . S
O412 C399 1.236 . S
N413 Mn397 2.282 . S
N413 C414 1.328 . S
N413 C418 1.318 . S
C414 N413 1.328 . S
C414 C415 1.457 . S
C414 H419 0.929 . S
C415 C414 1.457 . S
C415 C416 1.291 . S
C415 H428 0.931 . S
C416 C415 1.291 . S
C416 C417 1.373 . S
C416 H429 0.929 1_545 S
C417 C416 1.373 . S
C417 C418 1.396 . S
C417 C424 1.403 1_545 S
C418 C408 1.476 . S
C418 N413 1.318 . S
C418 C417 1.396 . S
H419 C414 0.929 . S
O420 Mn396 2.387 . S
O420 C398 1.234 . S
O421 Mn396 2.211 . S
O421 Mn397 2.215 1_554 S
O421 C398 1.283 . S
O422 Mn396 2.060 1_556 S
O422 C400 1.240 . S
O423 Mn397 2.117 . S
O423 C400 1.264 . S
C424 C417 1.403 1_565 S
C424 C425 1.399 . S
C424 H430 0.929 . S
C425 C405 1.449 1_565 S
C425 C424 1.399 . S
C425 H431 0.930 . S
H426 C406 0.931 1_564 S
H427 C407 0.930 . S
H428 C415 0.931 . S
H429 C416 0.929 1_565 S
H430 C424 0.929 . S
H431 C425 0.930 . S
H432 C440 0.950 . S
H433 C445 0.950 . S
H434 C442 0.950 . S
H435 C444 0.950 . S
H436 C446 0.950 . S
H437 C448 0.950 . S
H438 C450 0.950 . S
H439 C451 0.950 . S
C440 H432 0.950 . S
C440 C441 1.386 . S
C440 C442 1.391 . S
C441 C440 1.386 . S
C441 C445 1.393 . S
C442 H434 0.950 . S
C442 C440 1.391 . S
C442 C443 1.400 . S
C443 C442 1.400 . S
C443 C444 1.398 . S
C443 C449 1.491 . S
C444 H435 0.950 . S
C444 C443 1.398 . S
C444 C445 1.391 . S
C445 H433 0.950 . S
C445 C441 1.393 . S
C445 C444 1.391 . S
C446 H436 0.950 . S
C446 C447 1.386 . S
C446 C448 1.391 . S
C447 C446 1.386 . S
C447 C451 1.393 . S
C448 H437 0.950 . S
C448 C446 1.391 . S
C448 C449 1.400 . S
C449 C443 1.491 . S
C449 C448 1.400 . S
C449 C450 1.398 . S
C450 H438 0.950 . S
C450 C449 1.398 . S
C450 C451 1.391 . S
C451 H439 0.950 . S
C451 C447 1.393 . S
C451 C450 1.391 . S
H452 C460 0.950 . S
H453 C465 0.950 . S
H454 C462 0.950 . S
H455 C464 0.950 . S
H456 C466 0.950 . S
H457 C468 0.950 . S
H458 C470 0.950 . S
H459 C471 0.950 . S
C460 H452 0.950 . S
C460 C461 1.386 . S
C460 C462 1.391 . S
C461 C460 1.386 . S
C461 C465 1.393 . S
C462 H454 0.950 . S
C462 C460 1.391 . S
C462 C463 1.400 . S
C463 C462 1.400 . S
C463 C464 1.398 . S
C463 C469 1.491 . S
C464 H455 0.950 . S
C464 C463 1.398 . S
C464 C465 1.391 . S
C465 H453 0.950 . S
C465 C461 1.393 . S
C465 C464 1.391 . S
C466 H456 0.950 . S
C466 C467 1.386 . S
C466 C468 1.391 . S
C467 C466 1.386 . S
C467 C471 1.393 . S
C468 H457 0.950 . S
C468 C466 1.391 . S
C468 C469 1.400 . S
C469 C463 1.491 . S
C469 C468 1.400 . S
C469 C470 1.398 . S
C470 H458 0.950 . S
C470 C469 1.398 . S
C470 C471 1.391 . S
C471 H459 0.950 . S
C471 C467 1.393 . S
C471 C470 1.391 . S
H472 C480 0.950 . S
H473 C485 0.950 . S
H474 C482 0.950 . S
H475 C484 0.950 . S
H476 C486 0.950 . S
H477 C488 0.950 . S
H478 C490 0.950 . S
H479 C491 0.950 . S
C480 H472 0.950 . S
C480 C481 1.386 1_554 S
C480 C482 1.391 . S
C481 C480 1.386 1_556 S
C481 C485 1.393 . S
C482 H474 0.950 . S
C482 C480 1.391 . S
C482 C483 1.400 1_554 S
C483 C482 1.400 1_556 S
C483 C484 1.398 . S
C483 C489 1.491 1_556 S
C484 H475 0.950 . S
C484 C483 1.398 . S
C484 C485 1.391 . S
C485 H473 0.950 . S
C485 C481 1.393 . S
C485 C484 1.391 . S
C486 H476 0.950 . S
C486 C487 1.386 1_556 S
C486 C488 1.391 . S
C487 C486 1.386 1_554 S
C487 C491 1.393 . S
C488 H477 0.950 . S
C488 C486 1.391 . S
C488 C489 1.400 1_556 S
C489 C483 1.491 1_554 S
C489 C488 1.400 1_554 S
C489 C490 1.398 . S
C490 H478 0.950 . S
C490 C489 1.398 . S
C490 C491 1.391 . S
C491 H479 0.950 . S
C491 C487 1.393 . S
C491 C490 1.391 . S
H492 C500 0.950 . S
H493 C505 0.950 . S
H494 C502 0.950 . S
H495 C504 0.950 . S
H496 C506 0.950 . S
H497 C508 0.950 . S
H498 C510 0.950 . S
H499 C511 0.950 . S
C500 H492 0.950 . S
C500 C501 1.386 . S
C500 C502 1.391 . S
C501 C500 1.386 . S
C501 C505 1.393 . S
C502 H494 0.950 . S
C502 C500 1.391 . S
C502 C503 1.400 . S
C503 C502 1.400 . S
C503 C504 1.398 . S
C503 C509 1.491 . S
C504 H495 0.950 . S
C504 C503 1.398 . S
C504 C505 1.391 . S
C505 H493 0.950 . S
C505 C501 1.393 . S
C505 C504 1.391 . S
C506 H496 0.950 . S
C506 C507 1.386 . S
C506 C508 1.391 . S
C507 C506 1.386 . S
C507 C511 1.393 . S
C508 H497 0.950 . S
C508 C506 1.391 . S
C508 C509 1.400 . S
C509 C503 1.491 . S
C509 C508 1.400 . S
C509 C510 1.398 . S
C510 H498 0.950 . S
C510 C509 1.398 . S
C510 C511 1.391 . S
C511 H499 0.950 . S
C511 C507 1.393 . S
C511 C510 1.391 . S
H512 C520 0.950 . S
H513 C525 0.950 . S
H514 C522 0.950 . S
H515 C524 0.950 . S
H516 C526 0.950 . S
H517 C528 0.950 . S
H518 C530 0.950 . S
H519 C531 0.950 . S
C520 H512 0.950 . S
C520 C521 1.386 . S
C520 C522 1.391 . S
C521 C520 1.386 . S
C521 C525 1.393 . S
C522 H514 0.950 . S
C522 C520 1.391 . S
C522 C523 1.400 . S
C523 C522 1.400 . S
C523 C524 1.398 . S
C523 C529 1.491 . S
C524 H515 0.950 . S
C524 C523 1.398 . S
C524 C525 1.391 . S
C525 H513 0.950 . S
C525 C521 1.393 . S
C525 C524 1.391 . S
C526 H516 0.950 . S
C526 C527 1.386 . S
C526 C528 1.391 . S
C527 C526 1.386 . S
C527 C531 1.393 . S
C528 H517 0.950 . S
C528 C526 1.391 . S
C528 C529 1.400 . S
C529 C523 1.491 . S
C529 C528 1.400 . S
C529 C530 1.398 . S
C530 H518 0.950 . S
C530 C529 1.398 . S
C530 C531 1.391 . S
C531 H519 0.950 . S
C531 C527 1.393 . S
C531 C530 1.391 . S
H532 C540 0.950 . S
H533 C545 0.950 . S
H534 C542 0.950 . S
H535 C544 0.950 . S
H536 C546 0.950 . S
H537 C548 0.950 . S
H538 C550 0.950 . S
H539 C551 0.950 . S
C540 H532 0.950 . S
C540 C541 1.386 1_556 S
C540 C542 1.391 . S
C541 C540 1.386 1_554 S
C541 C545 1.393 . S
C542 H534 0.950 . S
C542 C540 1.391 . S
C542 C543 1.400 1_556 S
C543 C542 1.400 1_554 S
C543 C544 1.398 . S
C543 C549 1.491 1_554 S
C544 H535 0.950 . S
C544 C543 1.398 . S
C544 C545 1.391 . S
C545 H533 0.950 . S
C545 C541 1.393 . S
C545 C544 1.391 . S
C546 H536 0.950 . S
C546 C547 1.386 1_554 S
C546 C548 1.391 . S
C547 C546 1.386 1_556 S
C547 C551 1.393 . S
C548 H537 0.950 . S
C548 C546 1.391 . S
C548 C549 1.400 1_554 S
C549 C543 1.491 1_556 S
C549 C548 1.400 1_556 S
C549 C550 1.398 . S
C550 H538 0.950 . S
C550 C549 1.398 . S
C550 C551 1.391 . S
C551 H539 0.950 . S
C551 C547 1.393 . S
C551 C550 1.391 . S
H552 C560 0.950 . S
H553 C565 0.950 . S
H554 C562 0.950 . S
H555 C564 0.950 . S
H556 C566 0.950 . S
H557 C568 0.950 . S
H558 C570 0.950 . S
H559 C571 0.950 . S
C560 H552 0.950 . S
C560 C561 1.386 . S
C560 C562 1.391 . S
C561 C560 1.386 . S
C561 C565 1.393 . S
C562 H554 0.950 . S
C562 C560 1.391 . S
C562 C563 1.400 . S
C563 C562 1.400 . S
C563 C564 1.398 . S
C563 C569 1.491 . S
C564 H555 0.950 . S
C564 C563 1.398 . S
C564 C565 1.391 . S
C565 H553 0.950 . S
C565 C561 1.393 . S
C565 C564 1.391 . S
C566 H556 0.950 . S
C566 C567 1.386 . S
C566 C568 1.391 . S
C567 C566 1.386 . S
C567 C571 1.393 . S
C568 H557 0.950 . S
C568 C566 1.391 . S
C568 C569 1.400 . S
C569 C563 1.491 . S
C569 C568 1.400 . S
C569 C570 1.398 . S
C570 H558 0.950 . S
C570 C569 1.398 . S
C570 C571 1.391 . S
C571 H559 0.950 . S
C571 C567 1.393 . S
C571 C570 1.391 . S
H572 C580 0.950 . S
H573 C585 0.950 . S
H574 C582 0.950 . S
H575 C584 0.950 . S
H576 C586 0.950 . S
H577 C588 0.950 . S
H578 C590 0.950 . S
H579 C591 0.950 . S
C580 H572 0.950 . S
C580 C581 1.386 . S
C580 C582 1.391 . S
C581 C580 1.386 . S
C581 C585 1.393 . S
C582 H574 0.950 . S
C582 C580 1.391 . S
C582 C583 1.400 . S
C583 C582 1.400 . S
C583 C584 1.398 . S
C583 C589 1.491 1_655 S
C584 H575 0.950 . S
C584 C583 1.398 . S
C584 C585 1.391 . S
C585 H573 0.950 . S
C585 C581 1.393 . S
C585 C584 1.391 . S
C586 H576 0.950 . S
C586 C587 1.386 . S
C586 C588 1.391 . S
C587 C586 1.386 . S
C587 C591 1.393 . S
C588 H577 0.950 . S
C588 C586 1.391 . S
C588 C589 1.400 . S
C589 C583 1.491 1_455 S
C589 C588 1.400 . S
C589 C590 1.398 . S
C590 H578 0.950 . S
C590 C589 1.398 . S
C590 C591 1.391 . S
C591 H579 0.950 . S
C591 C587 1.393 . S
C591 C590 1.391 . S
H592 C600 0.950 . S
H593 C605 0.950 . S
H594 C602 0.950 . S
H595 C604 0.950 . S
H596 C606 0.950 . S
H597 C608 0.950 . S
H598 C610 0.950 . S
H599 C611 0.950 . S
C600 H592 0.950 . S
C600 C601 1.386 . S
C600 C602 1.391 . S
C601 C600 1.386 . S
C601 C605 1.393 1_554 S
C602 H594 0.950 . S
C602 C600 1.391 . S
C602 C603 1.400 . S
C603 C602 1.400 . S
C603 C604 1.398 1_554 S
C603 C609 1.491 1_544 S
C604 H595 0.950 . S
C604 C603 1.398 1_556 S
C604 C605 1.391 . S
C605 H593 0.950 . S
C605 C601 1.393 1_556 S
C605 C604 1.391 . S
C606 H596 0.950 . S
C606 C607 1.386 . S
C606 C608 1.391 . S
C607 C606 1.386 . S
C607 C611 1.393 1_556 S
C608 H597 0.950 . S
C608 C606 1.391 . S
C608 C609 1.400 . S
C609 C603 1.491 1_566 S
C609 C608 1.400 . S
C609 C610 1.398 1_556 S
C610 H598 0.950 . S
C610 C609 1.398 1_554 S
C610 C611 1.391 . S
C611 H599 0.950 . S
C611 C607 1.393 1_554 S
C611 C610 1.391 . S
H612 C620 0.950 . S
H613 C625 0.950 . S
H614 C622 0.950 . S
H615 C624 0.950 . S
H616 C626 0.950 . S
H617 C628 0.950 . S
H618 C630 0.950 . S
H619 C631 0.950 . S
C620 H612 0.950 . S
C620 C621 1.386 . S
C620 C622 1.391 . S
C621 C620 1.386 . S
C621 C625 1.393 . S
C622 H614 0.950 . S
C622 C620 1.391 . S
C622 C623 1.400 . S
C623 C622 1.400 . S
C623 C624 1.398 . S
C623 C629 1.491 . S
C624 H615 0.950 . S
C624 C623 1.398 . S
C624 C625 1.391 . S
C625 H613 0.950 . S
C625 C621 1.393 . S
C625 C624 1.391 . S
C626 H616 0.950 . S
C626 C627 1.386 . S
C626 C628 1.391 . S
C627 C626 1.386 . S
C627 C631 1.393 . S
C628 H617 0.950 . S
C628 C626 1.391 . S
C628 C629 1.400 . S
C629 C623 1.491 . S
C629 C628 1.400 . S
C629 C630 1.398 . S
C630 H618 0.950 . S
C630 C629 1.398 . S
C630 C631 1.391 . S
C631 H619 0.950 . S
C631 C627 1.393 . S
C631 C630 1.391 . S
H632 C640 0.950 . S
H633 C645 0.950 . S
H634 C642 0.950 . S
H635 C644 0.950 . S
H636 C646 0.950 . S
H637 C648 0.950 . S
H638 C650 0.950 . S
H639 C651 0.950 . S
C640 H632 0.950 . S
C640 C641 1.386 . S
C640 C642 1.391 . S
C641 C640 1.386 . S
C641 C645 1.393 . S
C642 H634 0.950 . S
C642 C640 1.391 . S
C642 C643 1.400 . S
C643 C642 1.400 . S
C643 C644 1.398 . S
C643 C649 1.491 1_455 S
C644 H635 0.950 . S
C644 C643 1.398 . S
C644 C645 1.391 . S
C645 H633 0.950 . S
C645 C641 1.393 . S
C645 C644 1.391 . S
C646 H636 0.950 . S
C646 C647 1.386 . S
C646 C648 1.391 . S
C647 C646 1.386 . S
C647 C651 1.393 . S
C648 H637 0.950 . S
C648 C646 1.391 . S
C648 C649 1.400 . S
C649 C643 1.491 1_655 S
C649 C648 1.400 . S
C649 C650 1.398 . S
C650 H638 0.950 . S
C650 C649 1.398 . S
C650 C651 1.391 . S
C651 H639 0.950 . S
C651 C647 1.393 . S
C651 C650 1.391 . S
H652 C660 0.950 . S
H653 C665 0.950 . S
H654 C662 0.950 . S
H655 C664 0.950 . S
H656 C666 0.950 . S
H657 C668 0.950 . S
H658 C670 0.950 . S
H659 C671 0.950 . S
C660 H652 0.950 . S
C660 C661 1.386 . S
C660 C662 1.391 . S
C661 C660 1.386 . S
C661 C665 1.393 . S
C662 H654 0.950 . S
C662 C660 1.391 . S
C662 C663 1.400 . S
C663 C662 1.400 . S
C663 C664 1.398 . S
C663 C669 1.491 1_546 S
C664 H655 0.950 . S
C664 C663 1.398 . S
C664 C665 1.391 . S
C665 H653 0.950 . S
C665 C661 1.393 . S
C665 C664 1.391 . S
C666 H656 0.950 . S
C666 C667 1.386 . S
C666 C668 1.391 . S
C667 C666 1.386 . S
C667 C671 1.393 . S
C668 H657 0.950 . S
C668 C666 1.391 . S
C668 C669 1.400 . S
C669 C663 1.491 1_564 S
C669 C668 1.400 . S
C669 C670 1.398 . S
C670 H658 0.950 . S
C670 C669 1.398 . S
C670 C671 1.391 . S
C671 H659 0.950 . S
C671 C667 1.393 . S
C671 C670 1.391 . S
H672 C680 0.950 . S
H673 C685 0.950 . S
H674 C682 0.950 . S
H675 C684 0.950 . S
H676 C686 0.950 . S
H677 C688 0.950 . S
H678 C690 0.950 . S
H679 C691 0.950 . S
C680 H672 0.950 . S
C680 C681 1.386 . S
C680 C682 1.391 . S
C681 C680 1.386 . S
C681 C685 1.393 . S
C682 H674 0.950 . S
C682 C680 1.391 . S
C682 C683 1.400 . S
C683 C682 1.400 . S
C683 C684 1.398 . S
C683 C689 1.491 1_655 S
C684 H675 0.950 . S
C684 C683 1.398 . S
C684 C685 1.391 . S
C685 H673 0.950 . S
C685 C681 1.393 . S
C685 C684 1.391 . S
C686 H676 0.950 . S
C686 C687 1.386 . S
C686 C688 1.391 . S
C687 C686 1.386 . S
C687 C691 1.393 . S
C688 H677 0.950 . S
C688 C686 1.391 . S
C688 C689 1.400 . S
C689 C683 1.491 1_455 S
C689 C688 1.400 . S
C689 C690 1.398 . S
C690 H678 0.950 . S
C690 C689 1.398 . S
C690 C691 1.391 . S
C691 H679 0.950 . S
C691 C687 1.393 . S
C691 C690 1.391 . S
H692 C700 0.950 . S
H693 C705 0.950 . S
H694 C702 0.950 . S
H695 C704 0.950 1_565 S
H696 C706 0.950 . S
H697 C708 0.950 . S
H698 C710 0.950 1_545 S
H699 C711 0.950 . S
C700 H692 0.950 . S
C700 C701 1.386 . S
C700 C702 1.391 . S
C701 C700 1.386 . S
C701 C705 1.393 . S
C702 H694 0.950 . S
C702 C700 1.391 . S
C702 C703 1.400 . S
C703 C702 1.400 . S
C703 C704 1.398 . S
C703 C709 1.491 1_545 S
C704 H695 0.950 1_545 S
C704 C703 1.398 . S
C704 C705 1.391 . S
C705 H693 0.950 . S
C705 C701 1.393 . S
C705 C704 1.391 . S
C706 H696 0.950 . S
C706 C707 1.386 . S
C706 C708 1.391 . S
C707 C706 1.386 . S
C707 C711 1.393 . S
C708 H697 0.950 . S
C708 C706 1.391 . S
C708 C709 1.400 . S
C709 C703 1.491 1_565 S
C709 C708 1.400 . S
C709 C710 1.398 . S
C710 H698 0.950 1_565 S
C710 C709 1.398 . S
C710 C711 1.391 . S
C711 H699 0.950 . S
C711 C707 1.393 . S
C711 C710 1.391 . S
H712 C720 0.950 . S
H713 C725 0.950 . S
H714 C722 0.950 . S
H715 C724 0.950 . S
H716 C726 0.950 . S
H717 C728 0.950 . S
H718 C730 0.950 . S
H719 C731 0.950 . S
C720 H712 0.950 . S
C720 C721 1.386 . S
C720 C722 1.391 . S
C721 C720 1.386 . S
C721 C725 1.393 . S
C722 H714 0.950 . S
C722 C720 1.391 . S
C722 C723 1.400 . S
C723 C722 1.400 . S
C723 C724 1.398 . S
C723 C729 1.491 . S
C724 H715 0.950 . S
C724 C723 1.398 . S
C724 C725 1.391 . S
C725 H713 0.950 . S
C725 C721 1.393 . S
C725 C724 1.391 . S
C726 H716 0.950 . S
C726 C727 1.386 . S
C726 C728 1.391 . S
C727 C726 1.386 . S
C727 C731 1.393 . S
C728 H717 0.950 . S
C728 C726 1.391 . S
C728 C729 1.400 . S
C729 C723 1.491 . S
C729 C728 1.400 . S
C729 C730 1.398 . S
C730 H718 0.950 . S
C730 C729 1.398 . S
C730 C731 1.391 . S
C731 H719 0.950 . S
C731 C727 1.393 . S
C731 C730 1.391 . S
H732 C740 0.950 1_655 S
H733 C745 0.950 . S
H734 C742 0.950 . S
H735 C744 0.950 . S
H736 C746 0.950 1_455 S
H737 C748 0.950 . S
H738 C750 0.950 . S
H739 C751 0.950 . S
C740 H732 0.950 1_455 S
C740 C741 1.386 . S
C740 C742 1.391 1_455 S
C741 C740 1.386 . S
C741 C745 1.393 . S
C742 H734 0.950 . S
C742 C740 1.391 1_655 S
C742 C743 1.400 1_655 S
C743 C742 1.400 1_455 S
C743 C744 1.398 . S
C743 C749 1.491 1_455 S
C744 H735 0.950 . S
C744 C743 1.398 . S
C744 C745 1.391 . S
C745 H733 0.950 . S
C745 C741 1.393 . S
C745 C744 1.391 . S
C746 H736 0.950 1_655 S
C746 C747 1.386 . S
C746 C748 1.391 1_655 S
C747 C746 1.386 . S
C747 C751 1.393 . S
C748 H737 0.950 . S
C748 C746 1.391 1_455 S
C748 C749 1.400 1_455 S
C749 C743 1.491 1_655 S
C749 C748 1.400 1_655 S
C749 C750 1.398 . S
C750 H738 0.950 . S
C750 C749 1.398 . S
C750 C751 1.391 . S
C751 H739 0.950 . S
C751 C747 1.393 . S
C751 C750 1.391 . S
H752 C760 0.950 . S
H753 C765 0.950 1_565 S
H754 C762 0.950 . S
H755 C764 0.950 . S
H756 C766 0.950 . S
H757 C768 0.950 . S
H758 C770 0.950 . S
H759 C771 0.950 1_545 S
C760 H752 0.950 . S
C760 C761 1.386 . S
C760 C762 1.391 . S
C761 C760 1.386 . S
C761 C765 1.393 . S
C762 H754 0.950 . S
C762 C760 1.391 . S
C762 C763 1.400 . S
C763 C762 1.400 . S
C763 C764 1.398 1_545 S
C763 C769 1.491 1_545 S
C764 H755 0.950 . S
C764 C763 1.398 1_565 S
C764 C765 1.391 1_565 S
C765 H753 0.950 1_545 S
C765 C761 1.393 . S
C765 C764 1.391 1_545 S
C766 H756 0.950 . S
C766 C767 1.386 . S
C766 C768 1.391 . S
C767 C766 1.386 . S
C767 C771 1.393 . S
C768 H757 0.950 . S
C768 C766 1.391 . S
C768 C769 1.400 . S
C769 C763 1.491 1_565 S
C769 C768 1.400 . S
C769 C770 1.398 1_565 S
C770 H758 0.950 . S
C770 C769 1.398 1_545 S
C770 C771 1.391 1_545 S
C771 H759 0.950 1_565 S
C771 C767 1.393 . S
C771 C770 1.391 1_565 S
H772 C780 0.950 . S
H773 C785 0.950 . S
H774 C782 0.950 . S
H775 C784 0.950 . S
H776 C786 0.950 . S
H777 C788 0.950 . S
H778 C790 0.950 . S
H779 C791 0.950 . S
C780 H772 0.950 . S
C780 C781 1.386 . S
C780 C782 1.391 . S
C781 C780 1.386 . S
C781 C785 1.393 . S
C782 H774 0.950 . S
C782 C780 1.391 . S
C782 C783 1.400 . S
C783 C782 1.400 . S
C783 C784 1.398 . S
C783 C789 1.491 . S
C784 H775 0.950 . S
C784 C783 1.398 . S
C784 C785 1.391 . S
C785 H773 0.950 . S
C785 C781 1.393 . S
C785 C784 1.391 . S
C786 H776 0.950 . S
C786 C787 1.386 . S
C786 C788 1.391 . S
C787 C786 1.386 . S
C787 C791 1.393 . S
C788 H777 0.950 . S
C788 C786 1.391 . S
C788 C789 1.400 . S
C789 C783 1.491 . S
C789 C788 1.400 . S
C789 C790 1.398 . S
C790 H778 0.950 . S
C790 C789 1.398 . S
C790 C791 1.391 . S
C791 H779 0.950 . S
C791 C787 1.393 . S
C791 C790 1.391 . S
H792 C800 0.950 . S
H793 C805 0.950 . S
H794 C802 0.950 . S
H795 C804 0.950 . S
H796 C806 0.950 . S
H797 C808 0.950 . S
H798 C810 0.950 . S
H799 C811 0.950 . S
C800 H792 0.950 . S
C800 C801 1.386 . S
C800 C802 1.391 . S
C801 C800 1.386 . S
C801 C805 1.393 . S
C802 H794 0.950 . S
C802 C800 1.391 . S
C802 C803 1.400 . S
C803 C802 1.400 . S
C803 C804 1.398 . S
C803 C809 1.491 . S
C804 H795 0.950 . S
C804 C803 1.398 . S
C804 C805 1.391 . S
C805 H793 0.950 . S
C805 C801 1.393 . S
C805 C804 1.391 . S
C806 H796 0.950 . S
C806 C807 1.386 . S
C806 C808 1.391 . S
C807 C806 1.386 . S
C807 C811 1.393 . S
C808 H797 0.950 . S
C808 C806 1.391 . S
C808 C809 1.400 . S
C809 C803 1.491 . S
C809 C808 1.400 . S
C809 C810 1.398 . S
C810 H798 0.950 . S
C810 C809 1.398 . S
C810 C811 1.391 . S
C811 H799 0.950 . S
C811 C807 1.393 . S
C811 C810 1.391 . S
H812 C820 0.950 . S
H813 C825 0.950 . S
H814 C822 0.950 . S
H815 C824 0.950 . S
H816 C826 0.950 . S
H817 C828 0.950 . S
H818 C830 0.950 . S
H819 C831 0.950 . S
C820 H812 0.950 . S
C820 C821 1.386 . S
C820 C822 1.391 . S
C821 C820 1.386 . S
C821 C825 1.393 . S
C822 H814 0.950 . S
C822 C820 1.391 . S
C822 C823 1.400 . S
C823 C822 1.400 . S
C823 C824 1.398 . S
C823 C829 1.491 . S
C824 H815 0.950 . S
C824 C823 1.398 . S
C824 C825 1.391 . S
C825 H813 0.950 . S
C825 C821 1.393 . S
C825 C824 1.391 . S
C826 H816 0.950 . S
C826 C827 1.386 . S
C826 C828 1.391 . S
C827 C826 1.386 . S
C827 C831 1.393 . S
C828 H817 0.950 . S
C828 C826 1.391 . S
C828 C829 1.400 . S
C829 C823 1.491 . S
C829 C828 1.400 . S
C829 C830 1.398 . S
C830 H818 0.950 . S
C830 C829 1.398 . S
C830 C831 1.391 . S
C831 H819 0.950 . S
C831 C827 1.393 . S
C831 C830 1.391 . S
H832 C840 0.950 . S
H833 C845 0.950 . S
H834 C842 0.950 . S
H835 C844 0.950 . S
H836 C846 0.950 . S
H837 C848 0.950 . S
H838 C850 0.950 . S
H839 C851 0.950 . S
C840 H832 0.950 . S
C840 C841 1.386 . S
C840 C842 1.391 . S
C841 C840 1.386 . S
C841 C845 1.393 . S
C842 H834 0.950 . S
C842 C840 1.391 . S
C842 C843 1.400 . S
C843 C842 1.400 . S
C843 C844 1.398 . S
C843 C849 1.491 . S
C844 H835 0.950 . S
C844 C843 1.398 . S
C844 C845 1.391 . S
C845 H833 0.950 . S
C845 C841 1.393 . S
C845 C844 1.391 . S
C846 H836 0.950 . S
C846 C847 1.386 . S
C846 C848 1.391 . S
C847 C846 1.386 . S
C847 C851 1.393 . S
C848 H837 0.950 . S
C848 C846 1.391 . S
C848 C849 1.400 . S
C849 C843 1.491 . S
C849 C848 1.400 . S
C849 C850 1.398 . S
C850 H838 0.950 . S
C850 C849 1.398 . S
C850 C851 1.391 . S
C851 H839 0.950 . S
C851 C847 1.393 . S
C851 C850 1.391 . S
H852 C860 0.950 . S
H853 C865 0.950 . S
H854 C862 0.950 . S
H855 C864 0.950 . S
H856 C866 0.950 . S
H857 C868 0.950 . S
H858 C870 0.950 . S
H859 C871 0.950 . S
C860 H852 0.950 . S
C860 C861 1.386 . S
C860 C862 1.391 . S
C861 C860 1.386 . S
C861 C865 1.393 . S
C862 H854 0.950 . S
C862 C860 1.391 . S
C862 C863 1.400 . S
C863 C862 1.400 . S
C863 C864 1.398 . S
C863 C869 1.491 . S
C864 H855 0.950 . S
C864 C863 1.398 . S
C864 C865 1.391 . S
C865 H853 0.950 . S
C865 C861 1.393 . S
C865 C864 1.391 . S
C866 H856 0.950 . S
C866 C867 1.386 . S
C866 C868 1.391 . S
C867 C866 1.386 . S
C867 C871 1.393 . S
C868 H857 0.950 . S
C868 C866 1.391 . S
C868 C869 1.400 . S
C869 C863 1.491 . S
C869 C868 1.400 . S
C869 C870 1.398 . S
C870 H858 0.950 . S
C870 C869 1.398 . S
C870 C871 1.391 . S
C871 H859 0.950 . S
C871 C867 1.393 . S
C871 C870 1.391 . S
H872 C880 0.950 . S
H873 C885 0.950 . S
H874 C882 0.950 . S
H875 C884 0.950 . S
H876 C886 0.950 . S
H877 C888 0.950 . S
H878 C890 0.950 . S
H879 C891 0.950 . S
C880 H872 0.950 . S
C880 C881 1.386 . S
C880 C882 1.391 . S
C881 C880 1.386 . S
C881 C885 1.393 . S
C882 H874 0.950 . S
C882 C880 1.391 . S
C882 C883 1.400 . S
C883 C882 1.400 . S
C883 C884 1.398 . S
C883 C889 1.491 . S
C884 H875 0.950 . S
C884 C883 1.398 . S
C884 C885 1.391 . S
C885 H873 0.950 . S
C885 C881 1.393 . S
C885 C884 1.391 . S
C886 H876 0.950 . S
C886 C887 1.386 . S
C886 C888 1.391 . S
C887 C886 1.386 . S
C887 C891 1.393 . S
C888 H877 0.950 . S
C888 C886 1.391 . S
C888 C889 1.400 . S
C889 C883 1.491 . S
C889 C888 1.400 . S
C889 C890 1.398 . S
C890 H878 0.950 . S
C890 C889 1.398 . S
C890 C891 1.391 . S
C891 H879 0.950 . S
C891 C887 1.393 . S
C891 C890 1.391 . S
H892 C900 0.950 . S
H893 C905 0.950 . S
H894 C902 0.950 . S
H895 C904 0.950 . S
H896 C906 0.950 . S
H897 C908 0.950 . S
H898 C910 0.950 . S
H899 C911 0.950 . S
C900 H892 0.950 . S
C900 C901 1.386 . S
C900 C902 1.391 . S
C901 C900 1.386 . S
C901 C905 1.393 . S
C902 H894 0.950 . S
C902 C900 1.391 . S
C902 C903 1.400 . S
C903 C902 1.400 . S
C903 C904 1.398 . S
C903 C909 1.491 . S
C904 H895 0.950 . S
C904 C903 1.398 . S
C904 C905 1.391 . S
C905 H893 0.950 . S
C905 C901 1.393 . S
C905 C904 1.391 . S
C906 H896 0.950 . S
C906 C907 1.386 . S
C906 C908 1.391 . S
C907 C906 1.386 . S
C907 C911 1.393 . S
C908 H897 0.950 . S
C908 C906 1.391 . S
C908 C909 1.400 . S
C909 C903 1.491 . S
C909 C908 1.400 . S
C909 C910 1.398 . S
C910 H898 0.950 . S
C910 C909 1.398 . S
C910 C911 1.391 . S
C911 H899 0.950 . S
C911 C907 1.393 . S
C911 C910 1.391 . S
C441 C14 1.398 . S
C447 C230 1.427 . S
C461 C50 1.411 . S
C467 C266 1.380 . S
C481 C86 1.309 . S
C487 C302 1.332 . S
C501 C338 1.410 . S
C507 C122 1.380 . S
C521 C158 1.409 . S
C527 C374 1.380 . S
C541 C410 1.319 . S
C547 C194 1.346 . S
C561 C2 0.985 . S
C567 C326 0.983 . S
C581 C38 0.974 . S
C587 C362 0.970 . S
C601 C398 0.924 . S
C607 C74 0.926 . S
C621 C218 0.971 . S
C627 C110 0.970 . S
C641 C146 0.979 . S
C647 C254 0.974 . S
C661 C182 0.945 . S
C667 C290 0.944 . S
C681 C399 1.762 . S
C687 C3 1.754 . S
C701 C39 1.926 . S
C707 C219 1.926 . S
C721 C75 1.773 . S
C727 C255 1.764 . S
C741 C291 1.773 . S
C747 C111 1.764 . S
C761 C327 1.924 . S
C767 C147 1.925 . S
C781 C183 1.771 . S
C787 C363 1.761 . S
C801 C4 0.911 . S
C807 C364 0.912 . S
C821 C400 0.989 . S
C827 C40 0.998 . S
C841 C220 0.956 . S
C847 C76 0.956 . S
C861 C112 0.878 . S
C867 C256 0.881 . S
C881 C292 0.985 . S
C887 C148 0.988 . S
C901 C328 0.957 . S
C907 C184 0.957 . S
