# Generated by pormake.
# Topology sml, (6)-cn, num edge types: 1
# Building blocks:
#     Node 0, Type 0, BuildingBlock: BETDEL_clean_sbu_0, # of connection points: 6
#     Node 1, Type 0, BuildingBlock: BETDEL_clean_sbu_0, # of connection points: 6
#     Node 2, Type 0, BuildingBlock: BETDEL_clean_sbu_0, # of connection points: 6
#     Node 3, Type 0, BuildingBlock: BETDEL_clean_sbu_0, # of connection points: 6
#     Node 4, Type 0, BuildingBlock: BETDEL_clean_sbu_0, # of connection points: 6
#     Node 5, Type 0, BuildingBlock: BETDEL_clean_sbu_0, # of connection points: 6
#     Edge 6, Type (0, 0), BuildingBlock: ZUJKAS_clean_linker_0, # of connection points: 2
#     Edge 7, Type (0, 0), BuildingBlock: ZUJKAS_clean_linker_0, # of connection points: 2
#     Edge 8, Type (0, 0), BuildingBlock: ZUJKAS_clean_linker_0, # of connection points: 2
#     Edge 9, Type (0, 0), BuildingBlock: ZUJKAS_clean_linker_0, # of connection points: 2
#     Edge 10, Type (0, 0), BuildingBlock: ZUJKAS_clean_linker_0, # of connection points: 2
#     Edge 11, Type (0, 0), BuildingBlock: ZUJKAS_clean_linker_0, # of connection points: 2
#     Edge 12, Type (0, 0), BuildingBlock: ZUJKAS_clean_linker_0, # of connection points: 2
#     Edge 13, Type (0, 0), BuildingBlock: ZUJKAS_clean_linker_0, # of connection points: 2
#     Edge 14, Type (0, 0), BuildingBlock: ZUJKAS_clean_linker_0, # of connection points: 2
#     Edge 15, Type (0, 0), BuildingBlock: ZUJKAS_clean_linker_0, # of connection points: 2
#     Edge 16, Type (0, 0), BuildingBlock: ZUJKAS_clean_linker_0, # of connection points: 2
#     Edge 17, Type (0, 0), BuildingBlock: ZUJKAS_clean_linker_0, # of connection points: 2
#     Edge 18, Type (0, 0), BuildingBlock: ZUJKAS_clean_linker_0, # of connection points: 2
#     Edge 19, Type (0, 0), BuildingBlock: ZUJKAS_clean_linker_0, # of connection points: 2
#     Edge 20, Type (0, 0), BuildingBlock: ZUJKAS_clean_linker_0, # of connection points: 2
#     Edge 21, Type (0, 0), BuildingBlock: ZUJKAS_clean_linker_0, # of connection points: 2
#     Edge 22, Type (0, 0), BuildingBlock: ZUJKAS_clean_linker_0, # of connection points: 2
#     Edge 23, Type (0, 0), BuildingBlock: ZUJKAS_clean_linker_0, # of connection points: 2
# Relax obj value: 0.135
# Max RMSD: 0.172
# Mean RMSD: 0.172
data_MOF--net-sml--node1-BETDEL_clean_sbu_0--edge1-ZUJKAS_clean_linker_0
_symmetry_space_group_name_H-M    P1
_symmetry_Int_Tables_number       1
_symmetry_cell_setting            triclinic
loop_
_symmetry_equiv_pos_as_xyz
'x, y, z'
_cell_length_a     47.012176
_cell_length_b     46.985736
_cell_length_c     22.46848
_cell_angle_alpha  90.028616
_cell_angle_beta   89.953673
_cell_angle_gamma 119.97362
loop_
_atom_site_label
_atom_site_type_symbol
_atom_site_fract_x
_atom_site_fract_y
_atom_site_fract_z
_atom_type_partial_charge
Dy0 Dy 0.17525 0.42433 0.06379 0.0
C1 C 0.18933 0.40157 0.31123 0.0
C2 C 0.1758 0.43351 0.9436 0.0
Dy3 Dy 0.19297 0.41235 0.19129 0.0
O4 O 0.1497 0.41574 0.97534 0.0
O5 O 0.20147 0.44694 0.9778 0.0
O6 O 0.12308 0.40425 0.09323 0.0
O7 O 0.15193 0.38618 0.13102 0.0
C8 C 0.12468 0.38522 0.13349 0.0
C9 C 0.24368 0.45251 0.12231 0.0
O10 O 0.19065 0.36886 0.14673 0.0
O11 O 0.19439 0.3892 0.05078 0.0
O12 O 0.21625 0.4144 0.2801 0.0
O13 O 0.16449 0.39395 0.27656 0.0
O14 O 0.24595 0.43436 0.16371 0.0
O15 O 0.216 0.45049 0.12444 0.0
O16 O 0.17743 0.46822 0.10785 0.0
O17 O 0.17883 0.45119 0.20477 0.0
C18 C 0.19577 0.36826 0.08882 0.0
C19 C 0.17624 0.47135 0.16649 0.0
Dy20 Dy 0.81396 0.23903 0.6245 0.0
C21 C 0.78933 0.19953 0.37177 0.0
C22 C 0.80339 0.24459 0.74162 0.0
Dy23 Dy 0.79487 0.20879 0.49159 0.0
O24 O 0.82862 0.26643 0.71154 0.0
O25 O 0.78403 0.22027 0.70744 0.0
O26 O 0.86914 0.25897 0.6158 0.0
O27 O 0.837 0.23352 0.54765 0.0
C28 C 0.86679 0.24854 0.56125 0.0
C29 C 0.74602 0.19376 0.56866 0.0
O30 O 0.80279 0.17058 0.5349 0.0
O31 O 0.80104 0.18624 0.63337 0.0
O32 O 0.76908 0.20355 0.40521 0.0
O33 O 0.81242 0.19975 0.40405 0.0
O34 O 0.74423 0.17387 0.52657 0.0
O35 O 0.77227 0.22085 0.56425 0.0
O36 O 0.81173 0.27997 0.57811 0.0
O37 O 0.81198 0.26252 0.48037 0.0
C38 C 0.80064 0.16521 0.59323 0.0
C39 C 0.8138 0.28466 0.5195 0.0
Dy40 Dy 0.58155 0.7651 0.75567 0.0
C41 C 0.60824 0.79358 0.01206 0.0
C42 C 0.56571 0.75323 0.63862 0.0
Dy43 Dy 0.59218 0.78832 0.89461 0.0
O44 O 0.57071 0.73399 0.67344 0.0
O45 O 0.56872 0.77835 0.6682 0.0
O46 O 0.62914 0.76407 0.76035 0.0
O47 O 0.60069 0.7561 0.83663 0.0
C48 C 0.6275 0.75993 0.81773 0.0
C49 C 0.54969 0.80116 0.83598 0.0
O50 O 0.63689 0.82867 0.84965 0.0
O51 O 0.61619 0.81919 0.75242 0.0
O52 O 0.60039 0.81285 0.98396 0.0
O53 O 0.60793 0.77199 0.97568 0.0
O54 O 0.55634 0.80793 0.89222 0.0
O55 O 0.5667 0.78934 0.81775 0.0
O56 O 0.53551 0.7249 0.79849 0.0
O57 O 0.5486 0.73784 0.89971 0.0
C58 C 0.63784 0.83791 0.7934 0.0
C59 C 0.52933 0.71841 0.85646 0.0
Dy60 Dy 0.76342 0.57289 0.26789 0.0
C61 C 0.79764 0.58882 0.01928 0.0
C62 C 0.75626 0.56316 0.38774 0.0
Dy63 Dy 0.78994 0.58059 0.13942 0.0
O64 O 0.74778 0.58134 0.35765 0.0
O65 O 0.76813 0.54988 0.35221 0.0
O66 O 0.73354 0.59591 0.24087 0.0
O67 O 0.7787 0.61002 0.19871 0.0
C68 C 0.75355 0.61303 0.19823 0.0
C69 C 0.80066 0.54157 0.21057 0.0
O70 O 0.83314 0.62406 0.17941 0.0
O71 O 0.81774 0.60821 0.27773 0.0
O72 O 0.80811 0.57299 0.05149 0.0
O73 O 0.78349 0.60059 0.05285 0.0
O74 O 0.82097 0.55917 0.16869 0.0
O75 O 0.775 0.54367 0.2087 0.0
O76 O 0.71909 0.53059 0.22767 0.0
O77 O 0.7359 0.54458 0.12921 0.0
C78 C 0.83975 0.62707 0.23721 0.0
C79 C 0.7133 0.5267 0.16963 0.0
Dy80 Dy 0.24026 0.81178 0.43459 0.0
C81 C 0.20274 0.79428 0.682 0.0
C82 C 0.24793 0.80944 0.31457 0.0
Dy83 Dy 0.21102 0.79374 0.56176 0.0
O84 O 0.2593 0.83621 0.34581 0.0
O85 O 0.23311 0.78402 0.34917 0.0
O86 O 0.27256 0.8641 0.46323 0.0
O87 O 0.22601 0.83527 0.5025 0.0
C88 C 0.25232 0.8625 0.50441 0.0
C89 C 0.19863 0.74337 0.49043 0.0
O90 O 0.16929 0.79574 0.5193 0.0
O91 O 0.18692 0.79649 0.42201 0.0
O92 O 0.19419 0.76813 0.6502 0.0
O93 O 0.21503 0.81998 0.64785 0.0
O94 O 0.17809 0.74177 0.53095 0.0
O95 O 0.22516 0.7703 0.49377 0.0
O96 O 0.28122 0.8084 0.47783 0.0
O97 O 0.26467 0.81068 0.57452 0.0
C98 C 0.16432 0.79363 0.46096 0.0
C99 C 0.28672 0.81194 0.53601 0.0
Dy100 Dy 0.42378 0.19113 0.93594 0.0
C101 C 0.41566 0.21138 0.68393 0.0
C102 C 0.4393 0.1945 0.05305 0.0
Dy103 Dy 0.4189 0.20957 0.80453 0.0
O104 O 0.4295 0.16842 0.02005 0.0
O105 O 0.44106 0.21853 0.02171 0.0
O106 O 0.37404 0.14532 0.92736 0.0
O107 O 0.40464 0.16463 0.85313 0.0
C108 C 0.37652 0.14317 0.87007 0.0
C109 C 0.45052 0.25982 0.87999 0.0
O110 O 0.37225 0.20369 0.84293 0.0
O111 O 0.39069 0.21252 0.94072 0.0
O112 O 0.44027 0.23215 0.71614 0.0
O113 O 0.3923 0.18994 0.71778 0.0
O114 O 0.43372 0.26097 0.83501 0.0
O115 O 0.45126 0.23347 0.87908 0.0
O116 O 0.4659 0.18736 0.89816 0.0
O117 O 0.45859 0.19639 0.79838 0.0
C118 C 0.36996 0.21089 0.89916 0.0
C119 C 0.47402 0.18969 0.84095 0.0
H120 H 0.37758 0.25627 0.98092 0.0
H121 H 0.33843 0.27323 0.00997 0.0
H122 H 0.26749 0.20343 0.88661 0.0
H123 H 0.3078 0.18767 0.85466 0.0
H124 H 0.26508 0.25639 0.88075 0.0
H125 H 0.26337 0.23024 0.11931 0.0
H126 H 0.30498 0.25776 0.09798 0.0
H127 H 0.28309 0.2171 0.06588 0.0
C128 C 0.35353 0.24431 0.96029 0.0
C129 C 0.34551 0.22035 0.91611 0.0
C130 C 0.331 0.25382 0.97737 0.0
C131 C 0.29945 0.23879 0.95224 0.0
C132 C 0.29149 0.21509 0.90731 0.0
H133 H 0.17742 0.30663 0.1303 0.0
H134 H 0.19515 0.26894 0.09265 0.0
C135 C 0.31447 0.20611 0.88904 0.0
C136 C 0.27583 0.24942 0.97107 0.0
H137 H 0.24967 0.27246 0.09399 0.0
C138 C 0.26117 0.25927 0.92742 0.0
C139 C 0.26952 0.25216 0.03187 0.0
C140 C 0.28079 0.23832 0.08123 0.0
C141 C 0.24248 0.27396 0.94293 0.0
C142 C 0.23973 0.28046 0.00367 0.0
C143 C 0.25234 0.26838 0.04731 0.0
C144 C 0.22612 0.30164 0.02286 0.0
C145 C 0.22601 0.28229 0.89379 0.0
C146 C 0.23748 0.33258 0.99646 0.0
C147 C 0.22666 0.35361 0.01683 0.0
C148 C 0.20517 0.34474 0.06555 0.0
C149 C 0.194 0.31403 0.09263 0.0
C150 C 0.20414 0.29253 0.07109 0.0
H151 H 0.21862 0.26425 0.85681 0.0
H152 H 0.20388 0.28267 0.90993 0.0
H153 H 0.24362 0.30677 0.87521 0.0
H154 H 0.25552 0.341 0.96109 0.0
H155 H 0.23615 0.37741 0.99581 0.0
H156 H 0.07316 0.39367 0.16104 0.0
H157 H 0.03247 0.36646 0.23996 0.0
H158 H 0.07855 0.31021 0.28854 0.0
H159 H 0.11938 0.33732 0.20915 0.0
H160 H 0.00672 0.27333 0.27729 0.0
H161 H 0.05293 0.38317 0.42245 0.0
H162 H 0.04702 0.39036 0.34606 0.0
H163 H 0.07752 0.37942 0.3645 0.0
C164 C 0.07454 0.37541 0.18839 0.0
C165 C 0.09949 0.36772 0.17943 0.0
C166 C 0.05144 0.36006 0.23361 0.0
C167 C 0.05285 0.33671 0.27047 0.0
C168 C 0.07725 0.32835 0.26072 0.0
H169 H 0.93058 0.27111 0.59117 0.0
H170 H 0.97747 0.28893 0.5235 0.0
C171 C 0.10051 0.34384 0.21556 0.0
C172 C 0.02849 0.32097 0.3187 0.0
H173 H -0.00061 0.3386 0.44417 0.0
C174 C 0.00527 0.28743 0.31424 0.0
C175 C 0.02712 0.33934 0.36732 0.0
C176 C 0.05265 0.37501 0.37593 0.0
C177 C 0.97962 0.27209 0.35573 0.0
C178 C 0.97697 0.291 0.40218 0.0
C179 C 0.00121 0.32418 0.40821 0.0
C180 C 0.9484 0.27749 0.44311 0.0
C181 C 0.95555 0.23585 0.34921 0.0
C182 C 0.91656 0.26525 0.42042 0.0
C183 C 0.88988 0.255 0.45896 0.0
C184 C 0.89455 0.25699 0.52078 0.0
C185 C 0.92634 0.2691 0.54358 0.0
C186 C 0.95307 0.27926 0.50503 0.0
H187 H 0.96663 0.22319 0.32485 0.0
H188 H 0.94681 0.2239 0.39326 0.0
H189 H 0.934 0.2325 0.32331 0.0
H190 H 0.91247 0.26466 0.3729 0.0
H191 H 0.86584 0.24686 0.44041 0.0
H192 H 0.82279 0.12547 0.54801 0.0
H193 H 0.80908 0.07068 0.58398 0.0
H194 H 0.74811 0.07712 0.7211 0.0
H195 H 0.76349 0.13222 0.68808 0.0
H196 H 0.77784 0.0488 0.76481 0.0
H197 H 0.72618 0.99013 0.5462 0.0
H198 H 0.76921 0.0196 0.545 0.0
H199 H 0.73993 0.03278 0.56007 0.0
C200 C 0.80672 0.11513 0.58614 0.0
C201 C 0.7941 0.13294 0.61518 0.0
C202 C 0.79869 0.08377 0.60641 0.0
C203 C 0.77691 0.06932 0.65448 0.0
C204 C 0.76501 0.08761 0.68407 0.0
H205 H 0.62838 0.877 0.7182 0.0
H206 H 0.66774 0.93255 0.68682 0.0
C207 C 0.77375 0.11914 0.66503 0.0
C208 C 0.76487 0.03478 0.67324 0.0
H209 H 0.72058 0.95545 0.62511 0.0
C210 C 0.76546 0.02833 0.73421 0.0
C211 C 0.74886 0.00806 0.63325 0.0
C212 C 0.74569 0.01286 0.56761 0.0
C213 C 0.74836 0.99621 0.75692 0.0
C214 C 0.73155 0.96957 0.71708 0.0
C215 C 0.73329 0.97589 0.65565 0.0
C216 C 0.70832 0.93562 0.73779 0.0
C217 C 0.74663 0.9915 0.82357 0.0
C218 C 0.71777 0.91866 0.77745 0.0
C219 C 0.69477 0.88698 0.79701 0.0
C220 C 0.66241 0.87152 0.77549 0.0
C221 C 0.65326 0.88828 0.73513 0.0
C222 C 0.67582 0.92003 0.71702 0.0
H223 H 0.75445 0.01488 0.84782 0.0
H224 H 0.72131 0.97338 0.83791 0.0
H225 H 0.76324 0.98223 0.83694 0.0
H226 H 0.74286 0.92972 0.79295 0.0
H227 H 0.70242 0.87432 0.82768 0.0
H228 H 0.69092 0.77573 0.79365 0.0
H229 H 0.72571 0.7612 0.85367 0.0
H230 H 0.6468 0.71196 0.98025 0.0
H231 H 0.61228 0.72594 0.92078 0.0
H232 H 0.70915 0.75398 0.03243 0.0
H233 H 0.71214 0.66718 0.86637 0.0
H234 H 0.72521 0.7085 0.84267 0.0
H235 H 0.68292 0.68135 0.86115 0.0
C236 C 0.68123 0.76192 0.83445 0.0
C237 C 0.6492 0.75243 0.85327 0.0
C238 C 0.701 0.75361 0.8685 0.0
C239 C 0.68874 0.73548 0.92129 0.0
C240 C 0.65682 0.72622 0.93997 0.0
H241 H 0.69992 0.62031 0.19055 0.0
H242 H 0.69113 0.6557 0.12218 0.0
C243 C 0.63721 0.73445 0.90617 0.0
C244 C 0.70816 0.72497 0.95735 0.0
H245 H 0.7322 0.66742 0.96197 0.0
C246 C 0.71483 0.73554 0.01673 0.0
C247 C 0.71563 0.70103 0.93657 0.0
C248 C 0.70855 0.68859 0.87333 0.0
C249 C 0.727 0.7214 0.05686 0.0
C250 C 0.73226 0.69586 0.03711 0.0
C251 C 0.72788 0.68692 0.97682 0.0
C252 C 0.73861 0.67569 0.07955 0.0
C253 C 0.73295 0.733 0.12062 0.0
C254 C 0.76806 0.675 0.07754 0.0
C255 C 0.77319 0.65492 0.11682 0.0
C256 C 0.74867 0.63484 0.15774 0.0
C257 C 0.71922 0.63558 0.15952 0.0
C258 C 0.71424 0.65585 0.12071 0.0
H259 H 0.73681 0.75826 0.12474 0.0
H260 H 0.71119 0.71634 0.1478 0.0
H261 H 0.75464 0.73262 0.13923 0.0
H262 H 0.78704 0.69004 0.0458 0.0
H263 H 0.79628 0.65505 0.11505 0.0
H264 H 0.14865 0.7986 0.34608 0.0
H265 H 0.09415 0.78013 0.30512 0.0
H266 H 0.05223 0.75283 0.48096 0.0
H267 H 0.10684 0.77183 0.52265 0.0
H268 H 0.0455 0.71665 0.31173 0.0
H269 H 0.00369 0.79692 0.41354 0.0
H270 H 0.04624 0.8073 0.41336 0.0
H271 H 0.01811 0.77872 0.46713 0.0
C272 C 0.12794 0.78923 0.3763 0.0
C273 C 0.13204 0.78647 0.43764 0.0
C274 C 0.09683 0.77877 0.35276 0.0
C275 C 0.0692 0.76538 0.39001 0.0
C276 C 0.07331 0.76376 0.45157 0.0
H277 H 0.86242 0.64014 0.35159 0.0
H278 H 0.91845 0.67731 0.3848 0.0
C279 C 0.10453 0.77444 0.47529 0.0
C280 C 0.03593 0.74953 0.36364 0.0
H281 H 0.96211 0.74698 0.3687 0.0
C282 C 0.02741 0.72361 0.32347 0.0
C283 C 0.01238 0.75857 0.37934 0.0
C284 C 0.02062 0.78711 0.42028 0.0
C285 C 0.99562 0.7057 0.30011 0.0
C286 C 0.97188 0.71429 0.31672 0.0
C287 C 0.98048 0.74058 0.35602 0.0
C288 C 0.93749 0.69476 0.2965 0.0
C289 C 0.98734 0.67688 0.25975 0.0
C290 C 0.92957 0.69294 0.23592 0.0
C291 C 0.89755 0.67158 0.21659 0.0
C292 C 0.87295 0.6518 0.25768 0.0
C293 C 0.88077 0.65483 0.31864 0.0
C294 C 0.91275 0.67616 0.33784 0.0
H295 H 0.00649 0.66961 0.26087 0.0
H296 H 0.96344 0.65531 0.27249 0.0
H297 H 0.98525 0.68359 0.21327 0.0
H298 H 0.94834 0.70749 0.20348 0.0
H299 H 0.89233 0.67005 0.1694 0.0
H300 H 0.38593 0.13178 0.75561 0.0
H301 H 0.35326 0.08228 0.6973 0.0
H302 H 0.28481 0.03968 0.84291 0.0
H303 H 0.318 0.08953 0.90229 0.0
H304 H 0.30499 0.99855 0.80117 0.0
H305 H 0.26731 0.04616 0.61065 0.0
H306 H 0.31076 0.07025 0.62213 0.0
H307 H 0.28307 0.0692 0.67875 0.0
C308 C 0.36354 0.11222 0.77485 0.0
C309 C 0.3544 0.11453 0.83338 0.0
C310 C 0.34476 0.08394 0.74129 0.0
C311 C 0.31623 0.05748 0.76526 0.0
C312 C 0.30658 0.05996 0.82337 0.0
H313 H 0.20925 0.8655 0.58232 0.0
H314 H 0.21988 0.91082 0.65007 0.0
C315 C 0.32549 0.08838 0.85716 0.0
C316 C 0.29872 0.02633 0.73125 0.0
H317 H 0.27011 0.99657 0.59211 0.0
C318 C 0.29657 0.99786 0.75599 0.0
C319 C 0.28758 0.02539 0.67237 0.0
C320 C 0.28697 0.05434 0.64474 0.0
C321 C 0.28572 0.96921 0.72193 0.0
C322 C 0.27696 0.96921 0.66187 0.0
C323 C 0.27726 0.99692 0.63812 0.0
C324 C 0.27018 0.94169 0.62169 0.0
C325 C 0.28526 0.93962 0.74905 0.0
C326 C 0.295 0.94429 0.58358 0.0
C327 C 0.28915 0.91845 0.54546 0.0
C328 C 0.25832 0.88969 0.54474 0.0
C329 C 0.23337 0.88726 0.58259 0.0
C330 C 0.23931 0.91309 0.62104 0.0
H331 H 0.29299 0.94361 0.79646 0.0
H332 H 0.26012 0.91802 0.74609 0.0
H333 H 0.30188 0.93365 0.72364 0.0
H334 H 0.31897 0.96628 0.58362 0.0
H335 H 0.30877 0.92096 0.51668 0.0
H336 H 0.22989 0.4623 0.87232 0.0
H337 H 0.2318 0.45728 0.76394 0.0
H338 H 0.12608 0.39981 0.75884 0.0
H339 H 0.12401 0.40476 0.86714 0.0
H340 H 0.20508 0.39538 0.70235 0.0
H341 H 0.14981 0.46954 0.62608 0.0
H342 H 0.16681 0.47357 0.69973 0.0
H343 H 0.12703 0.43944 0.68235 0.0
C344 C 0.20705 0.44909 0.84792 0.0
C345 C 0.17678 0.43398 0.87797 0.0
C346 C 0.20818 0.44614 0.78614 0.0
C347 C 0.17908 0.42836 0.75341 0.0
C348 C 0.14879 0.41403 0.78319 0.0
H349 H 0.13452 0.3771 0.38031 0.0
H350 H 0.13192 0.38128 0.48863 0.0
C351 C 0.14764 0.41682 0.845 0.0
C352 C 0.18047 0.4231 0.68869 0.0
H353 H 0.15839 0.43831 0.5529 0.0
C354 C 0.19503 0.40488 0.66956 0.0
C355 C 0.1671 0.43531 0.64623 0.0
C356 C 0.15201 0.45579 0.66434 0.0
C357 C 0.19615 0.39811 0.60898 0.0
C358 C 0.18298 0.41052 0.56637 0.0
C359 C 0.1684 0.42873 0.58562 0.0
C360 C 0.18454 0.40549 0.50148 0.0
C361 C 0.21073 0.37709 0.59137 0.0
C362 C 0.21496 0.4174 0.47276 0.0
C363 C 0.21647 0.41482 0.41096 0.0
C364 C 0.18761 0.4006 0.37681 0.0
C365 C 0.15715 0.38806 0.40564 0.0
C366 C 0.15564 0.39054 0.46744 0.0
H367 H 0.21075 0.36186 0.62917 0.0
H368 H 0.19704 0.36061 0.55369 0.0
H369 H 0.23657 0.39322 0.57721 0.0
H370 H 0.23761 0.42965 0.4979 0.0
H371 H 0.24028 0.42497 0.38975 0.0
H372 H 0.83535 0.20167 0.29475 0.0
H373 H 0.83751 0.21025 0.18665 0.0
H374 H 0.7447 0.20795 0.19389 0.0
H375 H 0.74252 0.19967 0.3016 0.0
H376 H 0.79237 0.17284 0.09455 0.0
H377 H 0.80813 0.29765 0.11658 0.0
H378 H 0.81394 0.27635 0.17809 0.0
H379 H 0.77323 0.26608 0.15559 0.0
C380 C 0.81524 0.20256 0.27304 0.0
C381 C 0.78885 0.20019 0.30633 0.0
C382 C 0.81655 0.20757 0.2115 0.0
C383 C 0.79159 0.21041 0.18273 0.0
C384 C 0.76452 0.20652 0.21559 0.0
H385 H 0.75075 0.20148 0.8066 0.0
H386 H 0.74775 0.1948 0.9148 0.0
C387 C 0.7632 0.20156 0.27695 0.0
C388 C 0.79399 0.21798 0.11848 0.0
H389 H 0.79833 0.27498 0.01906 0.0
C390 C 0.79379 0.19519 0.07797 0.0
C391 C 0.7963 0.24742 0.09724 0.0
C392 C 0.79823 0.27347 0.13907 0.0
C393 C 0.79502 0.2007 0.01645 0.0
C394 C 0.79606 0.22954 0.99515 0.0
C395 C 0.7971 0.25273 0.03568 0.0
C396 C 0.79636 0.23604 0.93076 0.0
C397 C 0.79552 0.17576 0.97473 0.0
C398 C 0.82401 0.26251 0.90445 0.0
C399 C 0.82569 0.26655 0.84265 0.0
C400 C 0.7997 0.24417 0.80664 0.0
C401 C 0.77126 0.2189 0.83343 0.0
C402 C 0.76957 0.21493 0.89508 0.0
H403 H 0.80256 0.15934 0.99804 0.0
H404 H 0.77064 0.16027 0.95564 0.0
H405 H 0.81291 0.18808 0.9374 0.0
H406 H 0.8448 0.2792 0.93148 0.0
H407 H 0.84786 0.28623 0.82296 0.0
H408 H 0.55469 0.79173 0.56351 0.0
H409 H 0.56181 0.79545 0.4555 0.0
H410 H 0.5811 0.71483 0.45858 0.0
H411 H 0.57365 0.71076 0.56694 0.0
H412 H 0.6223 0.80908 0.40336 0.0
H413 H 0.51735 0.69309 0.31686 0.0
H414 H 0.51721 0.70887 0.39012 0.0
H415 H 0.54044 0.68869 0.37633 0.0
C416 C 0.55967 0.77428 0.54098 0.0
C417 C 0.56374 0.75102 0.57335 0.0
C418 C 0.56382 0.77651 0.4794 0.0
C419 C 0.57197 0.75543 0.44923 0.0
C420 C 0.5744 0.73104 0.48106 0.0
H421 H 0.61937 0.75093 0.07574 0.0
H422 H 0.6148 0.74289 0.18379 0.0
C423 C 0.57017 0.72875 0.54284 0.0
C424 C 0.58086 0.76116 0.38555 0.0
H425 H 0.55764 0.72749 0.24727 0.0
C426 C 0.60819 0.79126 0.36915 0.0
C427 C 0.56256 0.7377 0.34137 0.0
C428 C 0.53259 0.70533 0.35671 0.0
C429 C 0.61762 0.79867 0.30943 0.0
C430 C 0.59889 0.77554 0.26506 0.0
C431 C 0.57196 0.74514 0.28155 0.0
C432 C 0.60569 0.78295 0.201 0.0
C433 C 0.64764 0.83108 0.29439 0.0
C434 C 0.60268 0.80853 0.17525 0.0
C435 C 0.60537 0.81323 0.11369 0.0
C436 C 0.61086 0.79224 0.07708 0.0
C437 C 0.61519 0.76749 0.1031 0.0
C438 C 0.61248 0.76279 0.16466 0.0
H439 H 0.6643 0.84155 0.33328 0.0
H440 H 0.66152 0.82836 0.25693 0.0
H441 H 0.63987 0.84888 0.28086 0.0
H442 H 0.59689 0.82399 0.20247 0.0
H443 H 0.60173 0.83234 0.09462 0.0
H444 H 0.82086 0.55981 0.94375 0.0
H445 H 0.81462 0.55517 0.83539 0.0
H446 H 0.76752 0.61385 0.83913 0.0
H447 H 0.77332 0.61823 0.9476 0.0
H448 H 0.7322 0.55458 0.77725 0.0
H449 H 0.86235 0.6227 0.70343 0.0
H450 H 0.85337 0.59132 0.75785 0.0
H451 H 0.84982 0.62648 0.77763 0.0
C452 C 0.80969 0.57217 0.92128 0.0
C453 C 0.79758 0.58939 0.95381 0.0
C454 C 0.80624 0.5696 0.85944 0.0
C455 C 0.79087 0.58441 0.82929 0.0
C456 C 0.77953 0.60233 0.86165 0.0
H457 H 0.73502 0.59236 0.4667 0.0
H458 H 0.7415 0.5949 0.57498 0.0
C459 C 0.78295 0.60489 0.92346 0.0
C460 C 0.78461 0.57938 0.76457 0.0
H461 H 0.82242 0.59265 0.62952 0.0
C462 C 0.75191 0.56302 0.74487 0.0
C463 C 0.8104 0.59022 0.72265 0.0
C464 C 0.84598 0.60891 0.74124 0.0
C465 C 0.74426 0.55697 0.6842 0.0
C466 C 0.77004 0.56799 0.64227 0.0
C467 C 0.80274 0.58412 0.66196 0.0
C468 C 0.76372 0.56417 0.57752 0.0
C469 C 0.70869 0.53844 0.66552 0.0
C470 C 0.7741 0.54607 0.54323 0.0
C471 C 0.77044 0.5446 0.48141 0.0
C472 C 0.75662 0.56149 0.45308 0.0
C473 C 0.74557 0.57897 0.48757 0.0
C474 C 0.74916 0.58035 0.54935 0.0
H475 H 0.69231 0.52436 0.70311 0.0
H476 H 0.70132 0.55619 0.64965 0.0
H477 H 0.70486 0.52119 0.62856 0.0
H478 H 0.7855 0.53352 0.56424 0.0
H479 H 0.77927 0.53106 0.45571 0.0
H480 H 0.22726 0.84838 0.75319 0.0
H481 H 0.23495 0.85048 0.86131 0.0
H482 H 0.18794 0.74475 0.86668 0.0
H483 H 0.18066 0.74253 0.75848 0.0
H484 H 0.19042 0.82209 0.95557 0.0
H485 H 0.27707 0.77426 0.94503 0.0
H486 H 0.26531 0.78847 0.87999 0.0
H487 H 0.23814 0.74837 0.91004 0.0
C488 C 0.21827 0.82558 0.77757 0.0
C489 C 0.20355 0.79529 0.74758 0.0
C490 C 0.22273 0.82682 0.83923 0.0
C491 C 0.21265 0.79782 0.87177 0.0
C492 C 0.19659 0.76746 0.84219 0.0
H493 H 0.22118 0.75483 0.2445 0.0
H494 H 0.21365 0.75244 0.13628 0.0
C495 C 0.19219 0.7662 0.78052 0.0
C496 C 0.21945 0.79942 0.93646 0.0
H497 H 0.26031 0.78082 0.0412 0.0
C498 C 0.20579 0.81319 0.97431 0.0
C499 C 0.23958 0.78783 0.9607 0.0
C500 C 0.25615 0.77417 0.92187 0.0
C501 C 0.21124 0.81516 0.03598 0.0
C502 C 0.23131 0.80352 0.06019 0.0
C503 C 0.24495 0.78973 0.0224 0.0
C504 C 0.2381 0.80518 0.12483 0.0
C505 C 0.19492 0.82904 0.07492 0.0
C506 C 0.25529 0.83564 0.1538 0.0
C507 C 0.25972 0.83707 0.21547 0.0
C508 C 0.2471 0.80804 0.24902 0.0
C509 C 0.23114 0.77758 0.21964 0.0
C510 C 0.22677 0.77617 0.15794 0.0
H511 H 0.17447 0.82975 0.05151 0.0
H512 H 0.18517 0.81433 0.11625 0.0
H513 H 0.21328 0.85453 0.08785 0.0
H514 H 0.26477 0.8583 0.12882 0.0
H515 H 0.27218 0.86086 0.23704 0.0
H516 H 0.36846 0.16614 0.61049 0.0
H517 H 0.37276 0.16059 0.50262 0.0
H518 H 0.46909 0.2469 0.50312 0.0
H519 H 0.465 0.25255 0.61054 0.0
H520 H 0.38537 0.20793 0.40919 0.0
H521 H 0.48225 0.17353 0.42599 0.0
H522 H 0.45696 0.17128 0.48843 0.0
H523 H 0.49087 0.21017 0.46584 0.0
C524 C 0.39038 0.18407 0.58737 0.0
C525 C 0.41644 0.20972 0.61863 0.0
C526 C 0.39285 0.18082 0.52599 0.0
C527 C 0.4215 0.20299 0.4954 0.0
C528 C 0.44707 0.2292 0.52629 0.0
H529 H 0.45919 0.24765 0.12429 0.0
H530 H 0.45569 0.24813 0.23283 0.0
C531 C 0.44458 0.23253 0.58746 0.0
C532 C 0.42479 0.19898 0.43104 0.0
H533 H 0.47126 0.1863 0.3291 0.0
C534 C 0.40396 0.20297 0.39162 0.0
C535 C 0.44885 0.19213 0.40854 0.0
C536 C 0.47086 0.18622 0.44932 0.0
C537 C 0.40731 0.20138 0.3299 0.0
C538 C 0.4323 0.19594 0.30736 0.0
C539 C 0.45239 0.19082 0.34676 0.0
C540 C 0.43811 0.19616 0.24279 0.0
C541 C 0.3842 0.20565 0.28917 0.0
C542 C 0.4308 0.16703 0.21304 0.0
C543 C 0.43288 0.16669 0.15096 0.0
C544 C 0.44239 0.19552 0.11823 0.0
C545 C 0.45157 0.22503 0.14851 0.0
C546 C 0.44946 0.22533 0.21037 0.0
H547 H 0.36206 0.2023 0.31318 0.0
H548 H 0.39709 0.23083 0.27021 0.0
H549 H 0.37628 0.18791 0.25165 0.0
H550 H 0.42221 0.14434 0.2376 0.0
H551 H 0.42569 0.14366 0.12853 0.0
H552 H 0.15479 0.51015 0.11332 0.0
H553 H 0.15235 0.55658 0.15845 0.0
H554 H 0.19344 0.54341 0.32078 0.0
H555 H 0.19463 0.49675 0.27739 0.0
H556 H 0.14399 0.55186 0.3455 0.0
H557 H 0.22579 0.64859 0.18564 0.0
H558 H 0.19005 0.6148 0.15283 0.0
H559 H 0.22106 0.60806 0.18575 0.0
C560 C 0.1633 0.51728 0.15859 0.0
C561 C 0.17479 0.4997 0.19177 0.0
C562 C 0.16212 0.54394 0.18421 0.0
C563 C 0.17311 0.55382 0.24287 0.0
C564 C 0.18469 0.53627 0.2756 0.0
H565 H 0.24405 0.73545 0.42893 0.0
H566 H 0.2344 0.68936 0.36482 0.0
C567 C 0.18535 0.5095 0.25059 0.0
C568 C 0.17233 0.58192 0.27174 0.0
H569 H 0.20368 0.66494 0.26384 0.0
C570 C 0.15691 0.57658 0.32746 0.0
C571 C 0.18937 0.61422 0.24839 0.0
C572 C 0.20777 0.62195 0.19015 0.0
C573 C 0.1592 0.60263 0.36166 0.0
C574 C 0.17616 0.63495 0.33833 0.0
C575 C 0.19055 0.64017 0.28158 0.0
C576 C 0.18144 0.66389 0.37396 0.0
C577 C 0.14496 0.59531 0.42377 0.0
C578 C 0.15491 0.66539 0.39948 0.0
C579 C 0.16048 0.69132 0.43734 0.0
C580 C 0.19261 0.71667 0.44887 0.0
C581 C 0.21904 0.71608 0.42099 0.0
C582 C 0.21351 0.68982 0.38416 0.0
H583 H 0.14109 0.57136 0.44041 0.0
H584 H 0.16124 0.61476 0.45555 0.0
H585 H 0.12075 0.59401 0.42337 0.0
H586 H 0.1299 0.6463 0.39079 0.0
H587 H 0.13967 0.69157 0.45755 0.0
H588 H 0.7396 0.23826 0.63584 0.0
H589 H 0.69297 0.22856 0.69771 0.0
H590 H 0.64633 0.12468 0.66029 0.0
H591 H 0.69255 0.13465 0.5959 0.0
H592 H 0.60503 0.14404 0.64266 0.0
H593 H 0.6618 0.19458 0.85992 0.0
H594 H 0.68269 0.22508 0.80375 0.0
H595 H 0.68366 0.18719 0.80144 0.0
C596 C 0.71961 0.21329 0.64156 0.0
C597 C 0.7195 0.18719 0.61097 0.0
C598 C 0.69309 0.2077 0.67756 0.0
C599 C 0.6663 0.17578 0.68479 0.0
C600 C 0.66676 0.1495 0.65572 0.0
H601 H 0.50412 0.16229 0.90534 0.0
H602 H 0.54886 0.15337 0.87221 0.0
C603 C 0.6931 0.15518 0.61891 0.0
C604 C 0.63636 0.17066 0.71658 0.0
H605 H 0.61093 0.19508 0.83892 0.0
C606 C 0.60627 0.15461 0.68618 0.0
C607 C 0.63754 0.18366 0.77401 0.0
C608 C 0.66814 0.19822 0.81182 0.0
C609 C 0.578 0.15327 0.70962 0.0
C610 C 0.5801 0.16946 0.76396 0.0
C611 C 0.60949 0.18336 0.79655 0.0
C612 C 0.55298 0.17449 0.78484 0.0
C613 C 0.54629 0.13495 0.67523 0.0
C614 C 0.541 0.18997 0.74732 0.0
C615 C 0.5154 0.19477 0.76576 0.0
C616 C 0.50155 0.1848 0.82273 0.0
C617 C 0.51419 0.17016 0.86112 0.0
C618 C 0.53971 0.16502 0.84226 0.0
H619 H 0.54558 0.11457 0.64894 0.0
H620 H 0.52461 0.12463 0.7052 0.0
H621 H 0.54444 0.15201 0.64342 0.0
H622 H 0.55158 0.19855 0.70362 0.0
H623 H 0.50669 0.20662 0.73532 0.0
H624 H 0.30547 0.46122 0.11438 0.0
H625 H 0.35215 0.50399 0.05842 0.0
H626 H 0.29031 0.54016 0.99064 0.0
H627 H 0.24396 0.49817 0.04755 0.0
H628 H 0.36169 0.52087 0.93496 0.0
H629 H 0.36509 0.61996 0.07543 0.0
H630 H 0.34179 0.57715 0.09582 0.0
H631 H 0.32623 0.59353 0.04063 0.0
C632 C 0.30187 0.47823 0.08728 0.0
C633 C 0.27121 0.47654 0.08548 0.0
C634 C 0.32845 0.5025 0.05518 0.0
C635 C 0.32473 0.52544 0.02101 0.0
C636 C 0.29379 0.52297 0.01741 0.0
H637 H 0.47592 0.67618 0.78841 0.0
H638 H 0.42522 0.62786 0.82314 0.0
C639 C 0.2673 0.49885 0.04966 0.0
C640 C 0.3536 0.55304 0.99185 0.0
H641 H 0.40202 0.63648 0.99472 0.0
C642 C 0.3705 0.54619 0.94773 0.0
C643 C 0.36512 0.58597 0.00914 0.0
C644 C 0.34885 0.59472 0.05819 0.0
C645 C 0.39882 0.57151 0.92056 0.0
C646 C 0.41018 0.60443 0.93768 0.0
C647 C 0.39305 0.61121 0.98137 0.0
C648 C 0.44121 0.63217 0.91467 0.0
C649 C 0.41698 0.56287 0.87526 0.0
C650 C 0.4668 0.65058 0.9546 0.0
C651 C 0.49548 0.67811 0.93517 0.0
C652 C 0.49928 0.688 0.87519 0.0
C653 C 0.47384 0.66915 0.8348 0.0
C654 C 0.44493 0.64149 0.8545 0.0
H655 H 0.40853 0.53616 0.87513 0.0
H656 H 0.41282 0.56978 0.83025 0.0
H657 H 0.44381 0.5767 0.88408 0.0
H658 H 0.46444 0.64378 0.00119 0.0
H659 H 0.51457 0.69178 0.96758 0.0
H660 H 0.79811 0.29462 0.40812 0.0
H661 H 0.8023 0.34441 0.36717 0.0
H662 H 0.84118 0.39452 0.53387 0.0
H663 H 0.83579 0.34388 0.57634 0.0
H664 H 0.79781 0.40928 0.49125 0.0
H665 H 0.88258 0.42392 0.30907 0.0
H666 H 0.8468 0.38397 0.30515 0.0
H667 H 0.8736 0.39505 0.36888 0.0
C668 C 0.80782 0.31625 0.43613 0.0
C669 C 0.81698 0.3154 0.49535 0.0
C670 C 0.8104 0.34483 0.41243 0.0
C671 C 0.82299 0.37355 0.44678 0.0
C672 C 0.83175 0.37274 0.50631 0.0
H673 H 0.85892 0.54638 0.24027 0.0
H674 H 0.86796 0.51056 0.30724 0.0
C675 C 0.82867 0.34384 0.5305 0.0
C676 C 0.82569 0.40379 0.42049 0.0
H677 H 0.8502 0.45035 0.29441 0.0
C678 C 0.80976 0.41866 0.44869 0.0
C679 C 0.84207 0.41673 0.36581 0.0
C680 C 0.86254 0.40428 0.33595 0.0
C681 C 0.80805 0.44478 0.42187 0.0
C682 C 0.8216 0.45545 0.36435 0.0
C683 C 0.83922 0.44186 0.33795 0.0
C684 C 0.81653 0.47935 0.32919 0.0
C685 C 0.79177 0.46058 0.45561 0.0
C686 C 0.78468 0.47396 0.31937 0.0
C687 C 0.7796 0.49478 0.28204 0.0
C688 C 0.80618 0.52079 0.25253 0.0
C689 C 0.83802 0.52634 0.26235 0.0
C690 C 0.84318 0.50592 0.30065 0.0
H691 H 0.79441 0.45892 0.50443 0.0
H692 H 0.80226 0.48684 0.44341 0.0
H693 H 0.76511 0.44737 0.44543 0.0
H694 H 0.76356 0.45304 0.33905 0.0
H695 H 0.75477 0.48988 0.27476 0.0
H696 H 0.31323 0.8356 0.64487 0.0
H697 H 0.36102 0.83691 0.68986 0.0
H698 H 0.37709 0.79664 0.52911 0.0
H699 H 0.32953 0.796 0.48302 0.0
H700 H 0.36711 0.78397 0.71216 0.0
H701 H 0.46903 0.87033 0.56565 0.0
H702 H 0.42898 0.86677 0.56433 0.0
H703 H 0.4358 0.83691 0.52667 0.0
C704 C 0.32716 0.82741 0.61869 0.0
C705 C 0.31756 0.81561 0.5604 0.0
C706 C 0.35449 0.8282 0.64451 0.0
C707 C 0.37279 0.81711 0.61277 0.0
C708 C 0.36376 0.80597 0.55402 0.0
H709 H 0.52185 0.77191 0.73068 0.0
H710 H 0.47985 0.77675 0.67428 0.0
C711 C 0.3365 0.80549 0.52781 0.0
C712 C 0.39968 0.81504 0.64314 0.0
H713 H 0.48168 0.84087 0.63698 0.0
C714 C 0.39218 0.79655 0.69581 0.0
C715 C 0.43236 0.83139 0.62165 0.0
C716 C 0.44218 0.85272 0.56678 0.0
C717 C 0.41642 0.79388 0.72747 0.0
C718 C 0.44899 0.81021 0.70601 0.0
C719 C 0.45657 0.82841 0.65311 0.0
C720 C 0.4755 0.80869 0.73844 0.0
C721 C 0.40706 0.7734 0.78342 0.0
C722 C 0.487 0.82526 0.79277 0.0
C723 C 0.51133 0.82293 0.82442 0.0
C724 C 0.52452 0.80408 0.80201 0.0
C725 C 0.5129 0.78748 0.74772 0.0
C726 C 0.48873 0.78997 0.71587 0.0
H727 H 0.38001 0.75799 0.78859 0.0
H728 H 0.41795 0.75717 0.78333 0.0
H729 H 0.41689 0.78986 0.82265 0.0
H730 H 0.47703 0.83986 0.81074 0.0
H731 H 0.51981 0.83584 0.86637 0.0
H732 H 0.69861 0.49846 0.06 0.0
H733 H 0.64574 0.45552 0.02361 0.0
H734 H 0.6013 0.45356 0.1928 0.0
H735 H 0.65488 0.49597 0.23063 0.0
H736 H 0.58008 0.39362 0.15624 0.0
H737 H 0.56916 0.46194 0.96735 0.0
H738 H 0.60738 0.46243 0.96167 0.0
H739 H 0.59993 0.48191 0.02429 0.0
C740 C 0.67759 0.48913 0.08948 0.0
C741 C 0.68089 0.50078 0.14811 0.0
C742 C 0.64723 0.46472 0.06837 0.0
C743 C 0.61925 0.45196 0.10478 0.0
C744 C 0.62247 0.46331 0.16365 0.0
H745 H 0.44442 0.31372 0.90194 0.0
H746 H 0.47897 0.36017 0.96753 0.0
C747 C 0.65308 0.48747 0.18522 0.0
C748 C 0.58729 0.42547 0.08176 0.0
H749 H 0.53966 0.40229 0.95706 0.0
C750 C 0.57083 0.39573 0.11324 0.0
C751 C 0.57439 0.42839 0.02665 0.0
C752 C 0.58848 0.46057 0.99354 0.0
C753 C 0.54347 0.36812 0.08883 0.0
C754 C 0.53313 0.36999 0.03047 0.0
C755 C 0.54792 0.40047 0.00122 0.0
C756 C 0.5095 0.34032 0.99663 0.0
C757 C 0.52629 0.33718 0.12569 0.0
C758 C 0.515 0.31367 0.99126 0.0
C759 C 0.49505 0.28708 0.95476 0.0
C760 C 0.46974 0.28697 0.92155 0.0
C761 C 0.46392 0.31337 0.92701 0.0
C762 C 0.48358 0.33982 0.9645 0.0
H763 H 0.52742 0.34317 0.17379 0.0
H764 H 0.50014 0.32166 0.11271 0.0
H765 H 0.53894 0.32277 0.11979 0.0
H766 H 0.53549 0.31388 0.01362 0.0
H767 H 0.50022 0.26711 0.95092 0.0
loop_
_geom_bond_atom_site_label_1
_geom_bond_atom_site_label_2
_geom_bond_distance
_geom_bond_site_symmetry_2
_ccdc_geom_bond_type
Dy0 O4 2.398 . S
Dy0 O5 2.491 . S
Dy0 O6 2.403 . S
Dy0 O7 2.664 . S
Dy0 O11 2.326 . S
Dy0 O15 2.310 . S
Dy0 O16 2.351 . S
C1 O12 1.185 . S
C1 O13 1.355 . S
C2 O4 1.185 . S
C2 O5 1.355 . S
Dy3 O7 2.310 . S
Dy3 O10 2.351 . S
Dy3 O12 2.398 . S
Dy3 O13 2.491 . S
Dy3 O14 2.403 . S
Dy3 O15 2.664 . S
Dy3 O17 2.326 . S
O4 Dy0 2.398 . S
O4 C2 1.185 . S
O5 Dy0 2.491 . S
O5 C2 1.355 . S
O6 Dy0 2.403 . S
O6 C8 1.254 . S
O7 Dy0 2.664 . S
O7 Dy3 2.310 . S
O7 C8 1.268 . S
C8 O6 1.254 . S
C8 O7 1.268 . S
C9 O14 1.254 . S
C9 O15 1.268 . S
O10 Dy3 2.351 . S
O10 C18 1.249 . S
O11 Dy0 2.326 . S
O11 C18 1.267 . S
O12 C1 1.185 . S
O12 Dy3 2.398 . S
O13 C1 1.355 . S
O13 Dy3 2.491 . S
O14 Dy3 2.403 . S
O14 C9 1.254 . S
O15 Dy0 2.310 . S
O15 Dy3 2.664 . S
O15 C9 1.268 . S
O16 Dy0 2.351 . S
O16 C19 1.249 . S
O17 Dy3 2.326 . S
O17 C19 1.267 . S
C18 O10 1.249 . S
C18 O11 1.267 . S
C19 O16 1.249 . S
C19 O17 1.267 . S
Dy20 O24 2.398 . S
Dy20 O25 2.491 . S
Dy20 O26 2.403 . S
Dy20 O27 2.664 . S
Dy20 O31 2.326 . S
Dy20 O35 2.310 . S
Dy20 O36 2.351 . S
C21 O32 1.185 . S
C21 O33 1.355 . S
C22 O24 1.185 . S
C22 O25 1.355 . S
Dy23 O27 2.310 . S
Dy23 O30 2.351 . S
Dy23 O32 2.398 . S
Dy23 O33 2.491 . S
Dy23 O34 2.403 . S
Dy23 O35 2.664 . S
Dy23 O37 2.326 . S
O24 Dy20 2.398 . S
O24 C22 1.185 . S
O25 Dy20 2.491 . S
O25 C22 1.355 . S
O26 Dy20 2.403 . S
O26 C28 1.254 . S
O27 Dy20 2.664 . S
O27 Dy23 2.310 . S
O27 C28 1.268 . S
C28 O26 1.254 . S
C28 O27 1.268 . S
C29 O34 1.254 . S
C29 O35 1.268 . S
O30 Dy23 2.351 . S
O30 C38 1.249 . S
O31 Dy20 2.326 . S
O31 C38 1.267 . S
O32 C21 1.185 . S
O32 Dy23 2.398 . S
O33 C21 1.355 . S
O33 Dy23 2.491 . S
O34 Dy23 2.403 . S
O34 C29 1.254 . S
O35 Dy20 2.310 . S
O35 Dy23 2.664 . S
O35 C29 1.268 . S
O36 Dy20 2.351 . S
O36 C39 1.249 . S
O37 Dy23 2.326 . S
O37 C39 1.267 . S
C38 O30 1.249 . S
C38 O31 1.267 . S
C39 O36 1.249 . S
C39 O37 1.267 . S
Dy40 O44 2.398 . S
Dy40 O45 2.491 . S
Dy40 O46 2.403 . S
Dy40 O47 2.664 . S
Dy40 O51 2.326 . S
Dy40 O55 2.310 . S
Dy40 O56 2.351 . S
C41 O52 1.185 . S
C41 O53 1.355 . S
C42 O44 1.185 . S
C42 O45 1.355 . S
Dy43 O47 2.310 1_554 S
Dy43 O50 2.351 1_554 S
Dy43 O52 2.398 . S
Dy43 O53 2.491 . S
Dy43 O54 2.403 . S
Dy43 O55 2.664 1_554 S
Dy43 O57 2.326 . S
O44 Dy40 2.398 . S
O44 C42 1.185 . S
O45 Dy40 2.491 . S
O45 C42 1.355 . S
O46 Dy40 2.403 . S
O46 C48 1.254 . S
O47 Dy40 2.664 . S
O47 Dy43 2.310 1_556 S
O47 C48 1.268 . S
C48 O46 1.254 . S
C48 O47 1.268 . S
C49 O54 1.254 1_556 S
C49 O55 1.268 . S
O50 Dy43 2.351 1_556 S
O50 C58 1.249 . S
O51 Dy40 2.326 . S
O51 C58 1.267 . S
O52 C41 1.185 . S
O52 Dy43 2.398 . S
O53 C41 1.355 . S
O53 Dy43 2.491 . S
O54 Dy43 2.403 . S
O54 C49 1.254 1_554 S
O55 Dy40 2.310 . S
O55 Dy43 2.664 1_556 S
O55 C49 1.268 . S
O56 Dy40 2.351 . S
O56 C59 1.249 1_556 S
O57 Dy43 2.326 . S
O57 C59 1.267 . S
C58 O50 1.249 . S
C58 O51 1.267 . S
C59 O56 1.249 1_554 S
C59 O57 1.267 . S
Dy60 O64 2.398 . S
Dy60 O65 2.491 . S
Dy60 O66 2.403 . S
Dy60 O67 2.664 . S
Dy60 O71 2.326 . S
Dy60 O75 2.310 . S
Dy60 O76 2.351 . S
C61 O72 1.185 . S
C61 O73 1.355 . S
C62 O64 1.185 . S
C62 O65 1.355 . S
Dy63 O67 2.310 1_556 S
Dy63 O70 2.351 1_556 S
Dy63 O72 2.398 . S
Dy63 O73 2.491 . S
Dy63 O74 2.403 1_556 S
Dy63 O75 2.664 1_556 S
Dy63 O77 2.326 . S
O64 Dy60 2.398 . S
O64 C62 1.185 . S
O65 Dy60 2.491 . S
O65 C62 1.355 . S
O66 Dy60 2.403 . S
O66 C68 1.254 . S
O67 Dy60 2.664 . S
O67 Dy63 2.310 1_554 S
O67 C68 1.268 . S
C68 O66 1.254 . S
C68 O67 1.268 . S
C69 O74 1.254 . S
C69 O75 1.268 . S
O70 Dy63 2.351 1_554 S
O70 C78 1.249 . S
O71 Dy60 2.326 . S
O71 C78 1.267 . S
O72 C61 1.185 . S
O72 Dy63 2.398 . S
O73 C61 1.355 . S
O73 Dy63 2.491 . S
O74 Dy63 2.403 1_554 S
O74 C69 1.254 . S
O75 Dy60 2.310 . S
O75 Dy63 2.664 1_554 S
O75 C69 1.268 . S
O76 Dy60 2.351 . S
O76 C79 1.249 . S
O77 Dy63 2.326 . S
O77 C79 1.267 1_556 S
C78 O70 1.249 . S
C78 O71 1.267 . S
C79 O76 1.249 . S
C79 O77 1.267 1_554 S
Dy80 O84 2.398 . S
Dy80 O85 2.491 . S
Dy80 O86 2.403 . S
Dy80 O87 2.664 . S
Dy80 O91 2.326 . S
Dy80 O95 2.310 . S
Dy80 O96 2.351 . S
C81 O92 1.185 . S
C81 O93 1.355 . S
C82 O84 1.185 . S
C82 O85 1.355 . S
Dy83 O87 2.310 . S
Dy83 O90 2.351 . S
Dy83 O92 2.398 . S
Dy83 O93 2.491 . S
Dy83 O94 2.403 . S
Dy83 O95 2.664 . S
Dy83 O97 2.326 . S
O84 Dy80 2.398 . S
O84 C82 1.185 . S
O85 Dy80 2.491 . S
O85 C82 1.355 . S
O86 Dy80 2.403 . S
O86 C88 1.254 . S
O87 Dy80 2.664 . S
O87 Dy83 2.310 . S
O87 C88 1.268 . S
C88 O86 1.254 . S
C88 O87 1.268 . S
C89 O94 1.254 . S
C89 O95 1.268 . S
O90 Dy83 2.351 . S
O90 C98 1.249 . S
O91 Dy80 2.326 . S
O91 C98 1.267 . S
O92 C81 1.185 . S
O92 Dy83 2.398 . S
O93 C81 1.355 . S
O93 Dy83 2.491 . S
O94 Dy83 2.403 . S
O94 C89 1.254 . S
O95 Dy80 2.310 . S
O95 Dy83 2.664 . S
O95 C89 1.268 . S
O96 Dy80 2.351 . S
O96 C99 1.249 . S
O97 Dy83 2.326 . S
O97 C99 1.267 . S
C98 O90 1.249 . S
C98 O91 1.267 . S
C99 O96 1.249 . S
C99 O97 1.267 . S
Dy100 O104 2.398 . S
Dy100 O105 2.491 . S
Dy100 O106 2.403 . S
Dy100 O107 2.664 . S
Dy100 O111 2.326 . S
Dy100 O115 2.310 . S
Dy100 O116 2.351 . S
C101 O112 1.185 . S
C101 O113 1.355 . S
C102 O104 1.185 . S
C102 O105 1.355 . S
Dy103 O107 2.310 . S
Dy103 O110 2.351 . S
Dy103 O112 2.398 . S
Dy103 O113 2.491 . S
Dy103 O114 2.403 . S
Dy103 O115 2.664 . S
Dy103 O117 2.326 . S
O104 Dy100 2.398 . S
O104 C102 1.185 . S
O105 Dy100 2.491 . S
O105 C102 1.355 . S
O106 Dy100 2.403 . S
O106 C108 1.254 . S
O107 Dy100 2.664 . S
O107 Dy103 2.310 . S
O107 C108 1.268 . S
C108 O106 1.254 . S
C108 O107 1.268 . S
C109 O114 1.254 . S
C109 O115 1.268 . S
O110 Dy103 2.351 . S
O110 C118 1.249 . S
O111 Dy100 2.326 . S
O111 C118 1.267 . S
O112 C101 1.185 . S
O112 Dy103 2.398 . S
O113 C101 1.355 . S
O113 Dy103 2.491 . S
O114 Dy103 2.403 . S
O114 C109 1.254 . S
O115 Dy100 2.310 . S
O115 Dy103 2.664 . S
O115 C109 1.268 . S
O116 Dy100 2.351 . S
O116 C119 1.249 . S
O117 Dy103 2.326 . S
O117 C119 1.267 . S
C118 O110 1.249 . S
C118 O111 1.267 . S
C119 O116 1.249 . S
C119 O117 1.267 . S
H120 C128 0.929 . S
H121 C130 0.930 . S
H122 C132 0.930 . S
H123 C135 0.929 . S
H124 C138 0.930 . S
H125 C140 0.960 . S
H126 C140 0.960 . S
H127 C140 0.960 . S
C128 H120 0.929 . S
C128 C129 1.377 . S
C128 C130 1.384 . S
C129 C128 1.377 . S
C129 C135 1.390 . S
C130 H121 0.930 . S
C130 C128 1.384 . S
C130 C131 1.372 . S
C131 C130 1.372 . S
C131 C132 1.400 . S
C131 C136 1.490 . S
C132 H122 0.930 . S
C132 C131 1.400 . S
C132 C135 1.386 . S
H133 C149 0.930 . S
H134 C150 0.931 . S
C135 H123 0.929 . S
C135 C129 1.390 . S
C135 C132 1.386 . S
C136 C131 1.490 . S
C136 C138 1.395 . S
C136 C139 1.403 1_556 S
H137 C143 0.930 . S
C138 H124 0.930 . S
C138 C136 1.395 . S
C138 C141 1.414 . S
C139 C136 1.403 1_554 S
C139 C140 1.524 . S
C139 C143 1.400 . S
C140 H125 0.960 . S
C140 H126 0.960 . S
C140 H127 0.960 . S
C140 C139 1.524 . S
C141 C138 1.414 . S
C141 C142 1.378 1_556 S
C141 C145 1.500 . S
C142 C141 1.378 1_554 S
C142 C143 1.385 . S
C142 C144 1.478 . S
C143 H137 0.930 . S
C143 C139 1.400 . S
C143 C142 1.385 . S
C144 C142 1.478 . S
C144 C146 1.381 . S
C144 C150 1.383 . S
C145 C141 1.500 . S
C145 H151 0.959 . S
C145 H152 0.961 . S
C145 H153 0.960 1_556 S
C146 C144 1.381 . S
C146 C147 1.394 . S
C146 H154 0.930 . S
C147 C146 1.394 . S
C147 C148 1.383 . S
C147 H155 0.929 . S
C148 C147 1.383 . S
C148 C149 1.377 . S
C149 H133 0.930 . S
C149 C148 1.377 . S
C149 C150 1.379 . S
C150 H134 0.931 . S
C150 C144 1.383 . S
C150 C149 1.379 . S
H151 C145 0.959 . S
H152 C145 0.961 . S
H153 C145 0.960 1_554 S
H154 C146 0.930 . S
H155 C147 0.929 . S
H156 C164 0.929 . S
H157 C166 0.930 . S
H158 C168 0.930 . S
H159 C171 0.929 . S
H160 C174 0.930 . S
H161 C176 0.960 . S
H162 C176 0.960 . S
H163 C176 0.960 . S
C164 H156 0.929 . S
C164 C165 1.377 . S
C164 C166 1.384 . S
C165 C164 1.377 . S
C165 C171 1.390 . S
C166 H157 0.930 . S
C166 C164 1.384 . S
C166 C167 1.372 . S
C167 C166 1.372 . S
C167 C168 1.400 . S
C167 C172 1.490 . S
C168 H158 0.930 . S
C168 C167 1.400 . S
C168 C171 1.386 . S
H169 C185 0.930 . S
H170 C186 0.931 . S
C171 H159 0.929 . S
C171 C165 1.390 . S
C171 C168 1.386 . S
C172 C167 1.490 . S
C172 C174 1.395 . S
C172 C175 1.403 . S
H173 C179 0.930 . S
C174 H160 0.930 . S
C174 C172 1.395 . S
C174 C177 1.403 1_455 S
C175 C172 1.403 . S
C175 C176 1.524 . S
C175 C179 1.400 1_455 S
C176 H161 0.960 . S
C176 H162 0.960 . S
C176 H163 0.960 . S
C176 C175 1.524 . S
C177 C174 1.403 1_655 S
C177 C178 1.392 . S
C177 C181 1.495 . S
C178 C177 1.392 . S
C178 C179 1.385 . S
C178 C180 1.478 . S
C179 H173 0.930 . S
C179 C175 1.400 1_655 S
C179 C178 1.385 . S
C180 C178 1.478 . S
C180 C182 1.381 . S
C180 C186 1.383 . S
C181 C177 1.495 . S
C181 H187 0.959 . S
C181 H188 0.961 . S
C181 H189 0.960 . S
C182 C180 1.381 . S
C182 C183 1.394 . S
C182 H190 0.930 . S
C183 C182 1.394 . S
C183 C184 1.383 . S
C183 H191 0.929 . S
C184 C183 1.383 . S
C184 C185 1.377 . S
C185 H169 0.930 . S
C185 C184 1.377 . S
C185 C186 1.379 . S
C186 H170 0.931 . S
C186 C180 1.383 . S
C186 C185 1.379 . S
H187 C181 0.959 . S
H188 C181 0.961 . S
H189 C181 0.960 . S
H190 C182 0.930 . S
H191 C183 0.929 . S
H192 C200 0.929 . S
H193 C202 0.930 . S
H194 C204 0.930 . S
H195 C207 0.929 . S
H196 C210 0.930 . S
H197 C212 0.960 . S
H198 C212 0.960 . S
H199 C212 0.960 1_545 S
C200 H192 0.929 . S
C200 C201 1.377 . S
C200 C202 1.384 . S
C201 C200 1.377 . S
C201 C207 1.390 . S
C202 H193 0.930 . S
C202 C200 1.384 . S
C202 C203 1.372 . S
C203 C202 1.372 . S
C203 C204 1.400 . S
C203 C208 1.490 . S
C204 H194 0.930 . S
C204 C203 1.400 . S
C204 C207 1.386 . S
H205 C221 0.930 . S
H206 C222 0.931 . S
C207 H195 0.929 . S
C207 C201 1.390 . S
C207 C204 1.386 . S
C208 C203 1.490 . S
C208 C210 1.395 . S
C208 C211 1.403 1_545 S
H209 C215 0.930 . S
C210 H196 0.930 . S
C210 C208 1.395 . S
C210 C213 1.403 . S
C211 C208 1.403 1_565 S
C211 C212 1.524 . S
C211 C215 1.400 . S
C212 H197 0.960 . S
C212 H198 0.960 . S
C212 H199 0.960 1_565 S
C212 C211 1.524 . S
C213 C210 1.403 . S
C213 C214 1.392 1_545 S
C213 C217 1.495 . S
C214 C213 1.392 1_565 S
C214 C215 1.385 . S
C214 C216 1.478 . S
C215 H209 0.930 . S
C215 C211 1.400 . S
C215 C214 1.385 . S
C216 C214 1.478 . S
C216 C218 1.381 . S
C216 C222 1.383 . S
C217 C213 1.495 . S
C217 H223 0.959 . S
C217 H224 0.961 . S
C217 H225 0.960 1_545 S
C218 C216 1.381 . S
C218 C219 1.394 . S
C218 H226 0.930 . S
C219 C218 1.394 . S
C219 C220 1.383 . S
C219 H227 0.929 . S
C220 C219 1.383 . S
C220 C221 1.377 . S
C221 H205 0.930 . S
C221 C220 1.377 . S
C221 C222 1.379 . S
C222 H206 0.931 . S
C222 C216 1.383 . S
C222 C221 1.379 . S
H223 C217 0.959 . S
H224 C217 0.961 . S
H225 C217 0.960 1_565 S
H226 C218 0.930 . S
H227 C219 0.929 . S
H228 C236 0.931 . S
H229 C238 0.930 . S
H230 C240 0.930 . S
H231 C243 0.929 . S
H232 C246 0.930 . S
H233 C248 0.960 . S
H234 C248 0.960 . S
H235 C248 0.960 . S
C236 H228 0.931 . S
C236 C237 1.374 1_554 S
C236 C238 1.386 . S
C237 C236 1.374 1_556 S
C237 C243 1.390 . S
C238 H229 0.930 . S
C238 C236 1.386 . S
C238 C239 1.372 . S
C239 C238 1.372 . S
C239 C240 1.400 1_554 S
C239 C244 1.490 . S
C240 H230 0.930 . S
C240 C239 1.400 1_556 S
C240 C243 1.386 . S
H241 C257 0.930 . S
H242 C258 0.931 . S
C243 H231 0.929 . S
C243 C237 1.390 . S
C243 C240 1.386 . S
C244 C239 1.490 . S
C244 C246 1.395 . S
C244 C247 1.403 1_554 S
H245 C251 0.930 . S
C246 H232 0.930 . S
C246 C244 1.395 . S
C246 C249 1.403 . S
C247 C244 1.403 1_556 S
C247 C248 1.524 . S
C247 C251 1.400 . S
C248 H233 0.960 . S
C248 H234 0.960 . S
C248 H235 0.960 . S
C248 C247 1.524 . S
C249 C246 1.403 . S
C249 C250 1.392 . S
C249 C253 1.495 . S
C250 C249 1.392 . S
C250 C251 1.385 1_554 S
C250 C252 1.478 . S
C251 H245 0.930 . S
C251 C247 1.400 . S
C251 C250 1.385 1_556 S
C252 C250 1.478 . S
C252 C254 1.381 . S
C252 C258 1.383 . S
C253 C249 1.495 . S
C253 H259 0.959 . S
C253 H260 0.961 . S
C253 H261 0.960 . S
C254 C252 1.381 . S
C254 C255 1.394 . S
C254 H262 0.930 . S
C255 C254 1.394 . S
C255 C256 1.383 . S
C255 H263 0.929 . S
C256 C255 1.383 . S
C256 C257 1.377 . S
C257 H241 0.930 . S
C257 C256 1.377 . S
C257 C258 1.379 . S
C258 H242 0.931 . S
C258 C252 1.383 . S
C258 C257 1.379 . S
H259 C253 0.959 . S
H260 C253 0.961 . S
H261 C253 0.960 . S
H262 C254 0.930 . S
H263 C255 0.929 . S
H264 C272 0.929 . S
H265 C274 0.930 . S
H266 C276 0.930 . S
H267 C279 0.929 . S
H268 C282 0.930 . S
H269 C284 0.960 . S
H270 C284 0.960 . S
H271 C284 0.960 . S
C272 H264 0.929 . S
C272 C273 1.377 . S
C272 C274 1.384 . S
C273 C272 1.377 . S
C273 C279 1.390 . S
C274 H265 0.930 . S
C274 C272 1.384 . S
C274 C275 1.372 . S
C275 C274 1.372 . S
C275 C276 1.400 . S
C275 C280 1.490 . S
C276 H266 0.930 . S
C276 C275 1.400 . S
C276 C279 1.386 . S
H277 C293 0.930 . S
H278 C294 0.931 . S
C279 H267 0.929 . S
C279 C273 1.390 . S
C279 C276 1.386 . S
C280 C275 1.490 . S
C280 C282 1.395 . S
C280 C283 1.403 1_455 S
H281 C287 0.930 . S
C282 H268 0.930 . S
C282 C280 1.395 . S
C282 C285 1.403 . S
C283 C280 1.403 1_655 S
C283 C284 1.524 . S
C283 C287 1.400 . S
C284 H269 0.960 . S
C284 H270 0.960 . S
C284 H271 0.960 . S
C284 C283 1.524 . S
C285 C282 1.403 . S
C285 C286 1.392 1_455 S
C285 C289 1.495 . S
C286 C285 1.392 1_655 S
C286 C287 1.385 . S
C286 C288 1.478 . S
C287 H281 0.930 . S
C287 C283 1.400 . S
C287 C286 1.385 . S
C288 C286 1.478 . S
C288 C290 1.381 . S
C288 C294 1.383 . S
C289 C285 1.495 . S
C289 H295 0.959 . S
C289 H296 0.961 . S
C289 H297 0.960 . S
C290 C288 1.381 . S
C290 C291 1.394 . S
C290 H298 0.930 . S
C291 C290 1.394 . S
C291 C292 1.383 . S
C291 H299 0.929 . S
C292 C291 1.383 . S
C292 C293 1.377 . S
C293 H277 0.930 . S
C293 C292 1.377 . S
C293 C294 1.379 . S
C294 H278 0.931 . S
C294 C288 1.383 . S
C294 C293 1.379 . S
H295 C289 0.959 . S
H296 C289 0.961 . S
H297 C289 0.960 . S
H298 C290 0.930 . S
H299 C291 0.929 . S
H300 C308 0.929 . S
H301 C310 0.930 . S
H302 C312 0.930 . S
H303 C315 0.929 . S
H304 C318 0.930 . S
H305 C320 0.960 . S
H306 C320 0.960 . S
H307 C320 0.960 . S
C308 H300 0.929 . S
C308 C309 1.377 . S
C308 C310 1.384 . S
C309 C308 1.377 . S
C309 C315 1.390 . S
C310 H301 0.930 . S
C310 C308 1.384 . S
C310 C311 1.372 . S
C311 C310 1.372 . S
C311 C312 1.400 . S
C311 C316 1.490 . S
C312 H302 0.930 . S
C312 C311 1.400 . S
C312 C315 1.386 . S
H313 C329 0.930 . S
H314 C330 0.931 . S
C315 H303 0.929 . S
C315 C309 1.390 . S
C315 C312 1.386 . S
C316 C311 1.490 . S
C316 C318 1.395 . S
C316 C319 1.403 . S
H317 C323 0.930 . S
C318 H304 0.930 . S
C318 C316 1.395 . S
C318 C321 1.403 1_545 S
C319 C316 1.403 . S
C319 C320 1.524 . S
C319 C323 1.400 1_545 S
C320 H305 0.960 . S
C320 H306 0.960 . S
C320 H307 0.960 . S
C320 C319 1.524 . S
C321 C318 1.403 1_565 S
C321 C322 1.392 . S
C321 C325 1.495 . S
C322 C321 1.392 . S
C322 C323 1.385 . S
C322 C324 1.478 . S
C323 H317 0.930 . S
C323 C319 1.400 1_565 S
C323 C322 1.385 . S
C324 C322 1.478 . S
C324 C326 1.381 . S
C324 C330 1.383 . S
C325 C321 1.495 . S
C325 H331 0.959 . S
C325 H332 0.961 . S
C325 H333 0.960 . S
C326 C324 1.381 . S
C326 C327 1.394 . S
C326 H334 0.930 . S
C327 C326 1.394 . S
C327 C328 1.383 . S
C327 H335 0.929 . S
C328 C327 1.383 . S
C328 C329 1.377 . S
C329 H313 0.930 . S
C329 C328 1.377 . S
C329 C330 1.379 . S
C330 H314 0.931 . S
C330 C324 1.383 . S
C330 C329 1.379 . S
H331 C325 0.959 . S
H332 C325 0.961 . S
H333 C325 0.960 . S
H334 C326 0.930 . S
H335 C327 0.929 . S
H336 C344 0.929 . S
H337 C346 0.930 . S
H338 C348 0.930 . S
H339 C351 0.929 . S
H340 C354 0.930 . S
H341 C356 0.960 . S
H342 C356 0.960 . S
H343 C356 0.960 . S
C344 H336 0.929 . S
C344 C345 1.377 . S
C344 C346 1.384 1_554 S
C345 C344 1.377 . S
C345 C351 1.390 . S
C346 H337 0.930 . S
C346 C344 1.384 1_556 S
C346 C347 1.372 . S
C347 C346 1.372 . S
C347 C348 1.400 . S
C347 C352 1.490 . S
C348 H338 0.930 . S
C348 C347 1.400 . S
C348 C351 1.386 1_556 S
H349 C365 0.930 . S
H350 C366 0.931 . S
C351 H339 0.929 . S
C351 C345 1.390 . S
C351 C348 1.386 1_554 S
C352 C347 1.490 . S
C352 C354 1.395 . S
C352 C355 1.403 . S
H353 C359 0.930 . S
C354 H340 0.930 . S
C354 C352 1.395 . S
C354 C357 1.403 . S
C355 C352 1.403 . S
C355 C356 1.524 . S
C355 C359 1.400 . S
C356 H341 0.960 . S
C356 H342 0.960 . S
C356 H343 0.960 . S
C356 C355 1.524 . S
C357 C354 1.403 . S
C357 C358 1.392 . S
C357 C361 1.495 . S
C358 C357 1.392 . S
C358 C359 1.385 . S
C358 C360 1.478 . S
C359 H353 0.930 . S
C359 C355 1.400 . S
C359 C358 1.385 . S
C360 C358 1.478 . S
C360 C362 1.381 . S
C360 C366 1.383 . S
C361 C357 1.495 . S
C361 H367 0.959 . S
C361 H368 0.961 . S
C361 H369 0.960 . S
C362 C360 1.381 . S
C362 C363 1.394 . S
C362 H370 0.930 . S
C363 C362 1.394 . S
C363 C364 1.383 . S
C363 H371 0.929 . S
C364 C363 1.383 . S
C364 C365 1.377 . S
C365 H349 0.930 . S
C365 C364 1.377 . S
C365 C366 1.379 . S
C366 H350 0.931 . S
C366 C360 1.383 . S
C366 C365 1.379 . S
H367 C361 0.959 . S
H368 C361 0.961 . S
H369 C361 0.960 . S
H370 C362 0.930 . S
H371 C363 0.929 . S
H372 C380 0.929 . S
H373 C382 0.930 . S
H374 C384 0.930 . S
H375 C387 0.929 . S
H376 C390 0.930 . S
H377 C392 0.960 . S
H378 C392 0.960 . S
H379 C392 0.960 . S
C380 H372 0.929 . S
C380 C381 1.377 . S
C380 C382 1.384 . S
C381 C380 1.377 . S
C381 C387 1.390 . S
C382 H373 0.930 . S
C382 C380 1.384 . S
C382 C383 1.372 . S
C383 C382 1.372 . S
C383 C384 1.400 . S
C383 C388 1.490 1_554 S
C384 H374 0.930 . S
C384 C383 1.400 . S
C384 C387 1.386 . S
H385 C401 0.930 . S
H386 C402 0.931 . S
C387 H375 0.929 . S
C387 C381 1.390 . S
C387 C384 1.386 . S
C388 C383 1.490 1_556 S
C388 C390 1.395 . S
C388 C391 1.403 . S
H389 C395 0.930 . S
C390 H376 0.930 . S
C390 C388 1.395 . S
C390 C393 1.403 . S
C391 C388 1.403 . S
C391 C392 1.524 . S
C391 C395 1.400 . S
C392 H377 0.960 . S
C392 H378 0.960 . S
C392 H379 0.960 . S
C392 C391 1.524 . S
C393 C390 1.403 . S
C393 C394 1.392 . S
C393 C397 1.495 . S
C394 C393 1.392 . S
C394 C395 1.385 . S
C394 C396 1.478 . S
C395 H389 0.930 . S
C395 C391 1.400 . S
C395 C394 1.385 . S
C396 C394 1.478 . S
C396 C398 1.381 . S
C396 C402 1.383 . S
C397 C393 1.495 . S
C397 H403 0.959 . S
C397 H404 0.961 . S
C397 H405 0.960 . S
C398 C396 1.381 . S
C398 C399 1.394 . S
C398 H406 0.930 . S
C399 C398 1.394 . S
C399 C400 1.383 . S
C399 H407 0.929 . S
C400 C399 1.383 . S
C400 C401 1.377 . S
C401 H385 0.930 . S
C401 C400 1.377 . S
C401 C402 1.379 . S
C402 H386 0.931 . S
C402 C396 1.383 . S
C402 C401 1.379 . S
H403 C397 0.959 . S
H404 C397 0.961 . S
H405 C397 0.960 . S
H406 C398 0.930 . S
H407 C399 0.929 . S
H408 C416 0.929 . S
H409 C418 0.930 . S
H410 C420 0.930 . S
H411 C423 0.929 . S
H412 C426 0.930 . S
H413 C428 0.960 . S
H414 C428 0.960 . S
H415 C428 0.960 . S
C416 H408 0.929 . S
C416 C417 1.377 . S
C416 C418 1.384 . S
C417 C416 1.377 . S
C417 C423 1.390 . S
C418 H409 0.930 . S
C418 C416 1.384 . S
C418 C419 1.372 . S
C419 C418 1.372 . S
C419 C420 1.400 . S
C419 C424 1.490 . S
C420 H410 0.930 . S
C420 C419 1.400 . S
C420 C423 1.386 . S
H421 C437 0.930 . S
H422 C438 0.931 . S
C423 H411 0.929 . S
C423 C417 1.390 . S
C423 C420 1.386 . S
C424 C419 1.490 . S
C424 C426 1.395 . S
C424 C427 1.403 . S
H425 C431 0.930 . S
C426 H412 0.930 . S
C426 C424 1.395 . S
C426 C429 1.403 . S
C427 C424 1.403 . S
C427 C428 1.524 . S
C427 C431 1.400 . S
C428 H413 0.960 . S
C428 H414 0.960 . S
C428 H415 0.960 . S
C428 C427 1.524 . S
C429 C426 1.403 . S
C429 C430 1.392 . S
C429 C433 1.495 . S
C430 C429 1.392 . S
C430 C431 1.385 . S
C430 C432 1.478 . S
C431 H425 0.930 . S
C431 C427 1.400 . S
C431 C430 1.385 . S
C432 C430 1.478 . S
C432 C434 1.381 . S
C432 C438 1.383 . S
C433 C429 1.495 . S
C433 H439 0.959 . S
C433 H440 0.961 . S
C433 H441 0.960 . S
C434 C432 1.381 . S
C434 C435 1.394 . S
C434 H442 0.930 . S
C435 C434 1.394 . S
C435 C436 1.383 . S
C435 H443 0.929 . S
C436 C435 1.383 . S
C436 C437 1.377 . S
C437 H421 0.930 . S
C437 C436 1.377 . S
C437 C438 1.379 . S
C438 H422 0.931 . S
C438 C432 1.383 . S
C438 C437 1.379 . S
H439 C433 0.959 . S
H440 C433 0.961 . S
H441 C433 0.960 . S
H442 C434 0.930 . S
H443 C435 0.929 . S
H444 C452 0.929 . S
H445 C454 0.930 . S
H446 C456 0.930 . S
H447 C459 0.929 . S
H448 C462 0.930 . S
H449 C464 0.960 . S
H450 C464 0.960 . S
H451 C464 0.960 . S
C452 H444 0.929 . S
C452 C453 1.377 . S
C452 C454 1.384 . S
C453 C452 1.377 . S
C453 C459 1.390 . S
C454 H445 0.930 . S
C454 C452 1.384 . S
C454 C455 1.372 . S
C455 C454 1.372 . S
C455 C456 1.400 . S
C455 C460 1.490 . S
C456 H446 0.930 . S
C456 C455 1.400 . S
C456 C459 1.386 . S
H457 C473 0.930 . S
H458 C474 0.931 . S
C459 H447 0.929 . S
C459 C453 1.390 . S
C459 C456 1.386 . S
C460 C455 1.490 . S
C460 C462 1.395 . S
C460 C463 1.403 . S
H461 C467 0.930 . S
C462 H448 0.930 . S
C462 C460 1.395 . S
C462 C465 1.403 . S
C463 C460 1.403 . S
C463 C464 1.524 . S
C463 C467 1.400 . S
C464 H449 0.960 . S
C464 H450 0.960 . S
C464 H451 0.960 . S
C464 C463 1.524 . S
C465 C462 1.403 . S
C465 C466 1.392 . S
C465 C469 1.495 . S
C466 C465 1.392 . S
C466 C467 1.385 . S
C466 C468 1.478 . S
C467 H461 0.930 . S
C467 C463 1.400 . S
C467 C466 1.385 . S
C468 C466 1.478 . S
C468 C470 1.381 . S
C468 C474 1.383 . S
C469 C465 1.495 . S
C469 H475 0.959 . S
C469 H476 0.961 . S
C469 H477 0.960 . S
C470 C468 1.381 . S
C470 C471 1.394 . S
C470 H478 0.930 . S
C471 C470 1.394 . S
C471 C472 1.383 . S
C471 H479 0.929 . S
C472 C471 1.383 . S
C472 C473 1.377 . S
C473 H457 0.930 . S
C473 C472 1.377 . S
C473 C474 1.379 . S
C474 H458 0.931 . S
C474 C468 1.383 . S
C474 C473 1.379 . S
H475 C469 0.959 . S
H476 C469 0.961 . S
H477 C469 0.960 . S
H478 C470 0.930 . S
H479 C471 0.929 . S
H480 C488 0.929 . S
H481 C490 0.930 . S
H482 C492 0.930 . S
H483 C495 0.929 . S
H484 C498 0.930 . S
H485 C500 0.960 . S
H486 C500 0.960 . S
H487 C500 0.960 . S
C488 H480 0.929 . S
C488 C489 1.377 . S
C488 C490 1.384 . S
C489 C488 1.377 . S
C489 C495 1.390 . S
C490 H481 0.930 . S
C490 C488 1.384 . S
C490 C491 1.376 . S
C491 C490 1.376 . S
C491 C492 1.403 . S
C491 C496 1.483 1_556 S
C492 H482 0.930 . S
C492 C491 1.403 . S
C492 C495 1.386 . S
H493 C509 0.930 . S
H494 C510 0.931 . S
C495 H483 0.929 . S
C495 C489 1.390 . S
C495 C492 1.386 . S
C496 C491 1.483 1_554 S
C496 C498 1.395 . S
C496 C499 1.403 . S
H497 C503 0.930 . S
C498 H484 0.930 . S
C498 C496 1.395 . S
C498 C501 1.403 . S
C499 C496 1.403 . S
C499 C500 1.524 . S
C499 C503 1.400 . S
C500 H485 0.960 . S
C500 H486 0.960 . S
C500 H487 0.960 . S
C500 C499 1.524 . S
C501 C498 1.403 . S
C501 C502 1.392 . S
C501 C505 1.495 . S
C502 C501 1.392 . S
C502 C503 1.385 . S
C502 C504 1.478 . S
C503 H497 0.930 . S
C503 C499 1.400 . S
C503 C502 1.385 . S
C504 C502 1.478 . S
C504 C506 1.381 . S
C504 C510 1.383 . S
C505 C501 1.495 . S
C505 H511 0.959 . S
C505 H512 0.961 . S
C505 H513 0.960 . S
C506 C504 1.381 . S
C506 C507 1.394 . S
C506 H514 0.930 . S
C507 C506 1.394 . S
C507 C508 1.383 . S
C507 H515 0.929 . S
C508 C507 1.383 . S
C508 C509 1.377 . S
C509 H493 0.930 . S
C509 C508 1.377 . S
C509 C510 1.379 . S
C510 H494 0.931 . S
C510 C504 1.383 . S
C510 C509 1.379 . S
H511 C505 0.959 . S
H512 C505 0.961 . S
H513 C505 0.960 . S
H514 C506 0.930 . S
H515 C507 0.929 . S
H516 C524 0.929 . S
H517 C526 0.930 . S
H518 C528 0.930 . S
H519 C531 0.929 . S
H520 C534 0.930 . S
H521 C536 0.960 . S
H522 C536 0.960 . S
H523 C536 0.960 . S
C524 H516 0.929 . S
C524 C525 1.377 . S
C524 C526 1.384 . S
C525 C524 1.377 . S
C525 C531 1.390 . S
C526 H517 0.930 . S
C526 C524 1.384 . S
C526 C527 1.372 . S
C527 C526 1.372 . S
C527 C528 1.400 . S
C527 C532 1.490 . S
C528 H518 0.930 . S
C528 C527 1.400 . S
C528 C531 1.386 . S
H529 C545 0.930 1_556 S
H530 C546 0.931 . S
C531 H519 0.929 . S
C531 C525 1.390 . S
C531 C528 1.386 . S
C532 C527 1.490 . S
C532 C534 1.395 . S
C532 C535 1.403 . S
H533 C539 0.930 . S
C534 H520 0.930 . S
C534 C532 1.395 . S
C534 C537 1.403 . S
C535 C532 1.403 . S
C535 C536 1.524 . S
C535 C539 1.400 . S
C536 H521 0.960 . S
C536 H522 0.960 . S
C536 H523 0.960 . S
C536 C535 1.524 . S
C537 C534 1.403 . S
C537 C538 1.392 . S
C537 C541 1.495 . S
C538 C537 1.392 . S
C538 C539 1.385 . S
C538 C540 1.478 . S
C539 H533 0.930 . S
C539 C535 1.400 . S
C539 C538 1.385 . S
C540 C538 1.478 . S
C540 C542 1.381 . S
C540 C546 1.383 . S
C541 C537 1.495 . S
C541 H547 0.959 . S
C541 H548 0.961 . S
C541 H549 0.960 . S
C542 C540 1.381 . S
C542 C543 1.394 . S
C542 H550 0.930 . S
C543 C542 1.394 . S
C543 C544 1.383 1_554 S
C543 H551 0.929 . S
C544 C543 1.383 1_556 S
C544 C545 1.377 1_556 S
C545 H529 0.930 1_554 S
C545 C544 1.377 1_554 S
C545 C546 1.379 . S
C546 H530 0.931 . S
C546 C540 1.383 . S
C546 C545 1.379 . S
H547 C541 0.959 . S
H548 C541 0.961 . S
H549 C541 0.960 . S
H550 C542 0.930 . S
H551 C543 0.929 . S
H552 C560 0.929 . S
H553 C562 0.930 . S
H554 C564 0.930 . S
H555 C567 0.929 . S
H556 C570 0.930 . S
H557 C572 0.960 . S
H558 C572 0.960 . S
H559 C572 0.960 . S
C560 H552 0.929 . S
C560 C561 1.377 . S
C560 C562 1.384 . S
C561 C560 1.377 . S
C561 C567 1.390 . S
C562 H553 0.930 . S
C562 C560 1.384 . S
C562 C563 1.372 . S
C563 C562 1.372 . S
C563 C564 1.400 . S
C563 C568 1.490 . S
C564 H554 0.930 . S
C564 C563 1.400 . S
C564 C567 1.386 . S
H565 C581 0.930 . S
H566 C582 0.931 . S
C567 H555 0.929 . S
C567 C561 1.390 . S
C567 C564 1.386 . S
C568 C563 1.490 . S
C568 C570 1.395 . S
C568 C571 1.403 . S
H569 C575 0.930 . S
C570 H556 0.930 . S
C570 C568 1.395 . S
C570 C573 1.403 . S
C571 C568 1.403 . S
C571 C572 1.524 . S
C571 C575 1.400 . S
C572 H557 0.960 . S
C572 H558 0.960 . S
C572 H559 0.960 . S
C572 C571 1.524 . S
C573 C570 1.403 . S
C573 C574 1.392 . S
C573 C577 1.495 . S
C574 C573 1.392 . S
C574 C575 1.385 . S
C574 C576 1.478 . S
C575 H569 0.930 . S
C575 C571 1.400 . S
C575 C574 1.385 . S
C576 C574 1.478 . S
C576 C578 1.381 . S
C576 C582 1.383 . S
C577 C573 1.495 . S
C577 H583 0.959 . S
C577 H584 0.961 . S
C577 H585 0.960 . S
C578 C576 1.381 . S
C578 C579 1.394 . S
C578 H586 0.930 . S
C579 C578 1.394 . S
C579 C580 1.383 . S
C579 H587 0.929 . S
C580 C579 1.383 . S
C580 C581 1.377 . S
C581 H565 0.930 . S
C581 C580 1.377 . S
C581 C582 1.379 . S
C582 H566 0.931 . S
C582 C576 1.383 . S
C582 C581 1.379 . S
H583 C577 0.959 . S
H584 C577 0.961 . S
H585 C577 0.960 . S
H586 C578 0.930 . S
H587 C579 0.929 . S
H588 C596 0.929 . S
H589 C598 0.930 . S
H590 C600 0.930 . S
H591 C603 0.929 . S
H592 C606 0.930 . S
H593 C608 0.960 . S
H594 C608 0.960 . S
H595 C608 0.960 . S
C596 H588 0.929 . S
C596 C597 1.377 . S
C596 C598 1.384 . S
C597 C596 1.377 . S
C597 C603 1.390 . S
C598 H589 0.930 . S
C598 C596 1.384 . S
C598 C599 1.372 . S
C599 C598 1.372 . S
C599 C600 1.400 . S
C599 C604 1.490 . S
C600 H590 0.930 . S
C600 C599 1.400 . S
C600 C603 1.386 . S
H601 C617 0.930 . S
H602 C618 0.931 . S
C603 H591 0.929 . S
C603 C597 1.390 . S
C603 C600 1.386 . S
C604 C599 1.490 . S
C604 C606 1.395 . S
C604 C607 1.403 . S
H605 C611 0.930 . S
C606 H592 0.930 . S
C606 C604 1.395 . S
C606 C609 1.403 . S
C607 C604 1.403 . S
C607 C608 1.524 . S
C607 C611 1.400 . S
C608 H593 0.960 . S
C608 H594 0.960 . S
C608 H595 0.960 . S
C608 C607 1.524 . S
C609 C606 1.403 . S
C609 C610 1.392 . S
C609 C613 1.495 . S
C610 C609 1.392 . S
C610 C611 1.385 . S
C610 C612 1.478 . S
C611 H605 0.930 . S
C611 C607 1.400 . S
C611 C610 1.385 . S
C612 C610 1.478 . S
C612 C614 1.381 . S
C612 C618 1.383 . S
C613 C609 1.495 . S
C613 H619 0.959 . S
C613 H620 0.961 . S
C613 H621 0.960 . S
C614 C612 1.381 . S
C614 C615 1.394 . S
C614 H622 0.930 . S
C615 C614 1.394 . S
C615 C616 1.383 . S
C615 H623 0.929 . S
C616 C615 1.383 . S
C616 C617 1.377 . S
C617 H601 0.930 . S
C617 C616 1.377 . S
C617 C618 1.379 . S
C618 H602 0.931 . S
C618 C612 1.383 . S
C618 C617 1.379 . S
H619 C613 0.959 . S
H620 C613 0.961 . S
H621 C613 0.960 . S
H622 C614 0.930 . S
H623 C615 0.929 . S
H624 C632 0.929 . S
H625 C634 0.930 . S
H626 C636 0.930 . S
H627 C639 0.929 . S
H628 C642 0.930 . S
H629 C644 0.960 . S
H630 C644 0.960 . S
H631 C644 0.960 . S
C632 H624 0.929 . S
C632 C633 1.377 . S
C632 C634 1.384 . S
C633 C632 1.377 . S
C633 C639 1.390 . S
C634 H625 0.930 . S
C634 C632 1.384 . S
C634 C635 1.372 . S
C635 C634 1.372 . S
C635 C636 1.400 . S
C635 C640 1.490 . S
C636 H626 0.930 . S
C636 C635 1.400 . S
C636 C639 1.386 . S
H637 C653 0.930 1_556 S
H638 C654 0.931 . S
C639 H627 0.929 . S
C639 C633 1.390 . S
C639 C636 1.386 . S
C640 C635 1.490 . S
C640 C642 1.395 . S
C640 C643 1.403 . S
H641 C647 0.930 . S
C642 H628 0.930 . S
C642 C640 1.395 . S
C642 C645 1.403 . S
C643 C640 1.403 . S
C643 C644 1.524 . S
C643 C647 1.400 . S
C644 H629 0.960 . S
C644 H630 0.960 . S
C644 H631 0.960 . S
C644 C643 1.524 . S
C645 C642 1.403 . S
C645 C646 1.392 . S
C645 C649 1.495 . S
C646 C645 1.392 . S
C646 C647 1.385 . S
C646 C648 1.478 . S
C647 H641 0.930 . S
C647 C643 1.400 . S
C647 C646 1.385 . S
C648 C646 1.478 . S
C648 C650 1.381 . S
C648 C654 1.383 . S
C649 C645 1.495 . S
C649 H655 0.959 . S
C649 H656 0.961 . S
C649 H657 0.960 . S
C650 C648 1.381 . S
C650 C651 1.394 . S
C650 H658 0.930 . S
C651 C650 1.394 . S
C651 C652 1.383 . S
C651 H659 0.929 . S
C652 C651 1.383 . S
C652 C653 1.377 . S
C653 H637 0.930 1_554 S
C653 C652 1.377 . S
C653 C654 1.379 . S
C654 H638 0.931 . S
C654 C648 1.383 . S
C654 C653 1.379 . S
H655 C649 0.959 . S
H656 C649 0.961 . S
H657 C649 0.960 . S
H658 C650 0.930 . S
H659 C651 0.929 . S
H660 C668 0.929 . S
H661 C670 0.930 . S
H662 C672 0.930 . S
H663 C675 0.929 . S
H664 C678 0.930 . S
H665 C680 0.960 . S
H666 C680 0.960 . S
H667 C680 0.960 . S
C668 H660 0.929 . S
C668 C669 1.377 . S
C668 C670 1.384 . S
C669 C668 1.377 . S
C669 C675 1.390 . S
C670 H661 0.930 . S
C670 C668 1.384 . S
C670 C671 1.372 . S
C671 C670 1.372 . S
C671 C672 1.400 . S
C671 C676 1.490 . S
C672 H662 0.930 . S
C672 C671 1.400 . S
C672 C675 1.386 . S
H673 C689 0.930 . S
H674 C690 0.931 . S
C675 H663 0.929 . S
C675 C669 1.390 . S
C675 C672 1.386 . S
C676 C671 1.490 . S
C676 C678 1.395 . S
C676 C679 1.403 . S
H677 C683 0.930 . S
C678 H664 0.930 . S
C678 C676 1.395 . S
C678 C681 1.403 . S
C679 C676 1.403 . S
C679 C680 1.524 . S
C679 C683 1.400 . S
C680 H665 0.960 . S
C680 H666 0.960 . S
C680 H667 0.960 . S
C680 C679 1.524 . S
C681 C678 1.403 . S
C681 C682 1.392 . S
C681 C685 1.495 . S
C682 C681 1.392 . S
C682 C683 1.385 . S
C682 C684 1.478 . S
C683 H677 0.930 . S
C683 C679 1.400 . S
C683 C682 1.385 . S
C684 C682 1.478 . S
C684 C686 1.381 . S
C684 C690 1.383 . S
C685 C681 1.495 . S
C685 H691 0.959 . S
C685 H692 0.961 . S
C685 H693 0.960 . S
C686 C684 1.381 . S
C686 C687 1.394 . S
C686 H694 0.930 . S
C687 C686 1.394 . S
C687 C688 1.383 . S
C687 H695 0.929 . S
C688 C687 1.383 . S
C688 C689 1.377 . S
C689 H673 0.930 . S
C689 C688 1.377 . S
C689 C690 1.379 . S
C690 H674 0.931 . S
C690 C684 1.383 . S
C690 C689 1.379 . S
H691 C685 0.959 . S
H692 C685 0.961 . S
H693 C685 0.960 . S
H694 C686 0.930 . S
H695 C687 0.929 . S
H696 C704 0.929 . S
H697 C706 0.930 . S
H698 C708 0.930 . S
H699 C711 0.929 . S
H700 C714 0.930 . S
H701 C716 0.960 . S
H702 C716 0.960 . S
H703 C716 0.960 . S
C704 H696 0.929 . S
C704 C705 1.377 . S
C704 C706 1.384 . S
C705 C704 1.377 . S
C705 C711 1.390 . S
C706 H697 0.930 . S
C706 C704 1.384 . S
C706 C707 1.372 . S
C707 C706 1.372 . S
C707 C708 1.400 . S
C707 C712 1.490 . S
C708 H698 0.930 . S
C708 C707 1.400 . S
C708 C711 1.386 . S
H709 C725 0.930 . S
H710 C726 0.931 . S
C711 H699 0.929 . S
C711 C705 1.390 . S
C711 C708 1.386 . S
C712 C707 1.490 . S
C712 C714 1.395 . S
C712 C715 1.403 . S
H713 C719 0.930 . S
C714 H700 0.930 . S
C714 C712 1.395 . S
C714 C717 1.403 . S
C715 C712 1.403 . S
C715 C716 1.524 . S
C715 C719 1.400 . S
C716 H701 0.960 . S
C716 H702 0.960 . S
C716 H703 0.960 . S
C716 C715 1.524 . S
C717 C714 1.403 . S
C717 C718 1.392 . S
C717 C721 1.495 . S
C718 C717 1.392 . S
C718 C719 1.385 . S
C718 C720 1.478 . S
C719 H713 0.930 . S
C719 C715 1.400 . S
C719 C718 1.385 . S
C720 C718 1.478 . S
C720 C722 1.381 . S
C720 C726 1.383 . S
C721 C717 1.495 . S
C721 H727 0.959 . S
C721 H728 0.961 . S
C721 H729 0.960 . S
C722 C720 1.381 . S
C722 C723 1.394 . S
C722 H730 0.930 . S
C723 C722 1.394 . S
C723 C724 1.383 . S
C723 H731 0.929 . S
C724 C723 1.383 . S
C724 C725 1.377 . S
C725 H709 0.930 . S
C725 C724 1.377 . S
C725 C726 1.379 . S
C726 H710 0.931 . S
C726 C720 1.383 . S
C726 C725 1.379 . S
H727 C721 0.959 . S
H728 C721 0.961 . S
H729 C721 0.960 . S
H730 C722 0.930 . S
H731 C723 0.929 . S
H732 C740 0.929 . S
H733 C742 0.930 . S
H734 C744 0.930 . S
H735 C747 0.929 1_554 S
H736 C750 0.930 . S
H737 C752 0.960 . S
H738 C752 0.960 . S
H739 C752 0.960 . S
C740 H732 0.929 . S
C740 C741 1.377 . S
C740 C742 1.384 . S
C741 C740 1.377 . S
C741 C747 1.390 . S
C742 H733 0.930 . S
C742 C740 1.384 . S
C742 C743 1.372 . S
C743 C742 1.372 . S
C743 C744 1.400 . S
C743 C748 1.490 . S
C744 H734 0.930 . S
C744 C743 1.400 . S
C744 C747 1.386 . S
H745 C761 0.930 . S
H746 C762 0.931 . S
C747 H735 0.929 1_556 S
C747 C741 1.390 . S
C747 C744 1.386 . S
C748 C743 1.490 . S
C748 C750 1.395 . S
C748 C751 1.403 . S
H749 C755 0.930 . S
C750 H736 0.930 . S
C750 C748 1.395 . S
C750 C753 1.403 . S
C751 C748 1.403 . S
C751 C752 1.524 . S
C751 C755 1.400 . S
C752 H737 0.960 . S
C752 H738 0.960 . S
C752 H739 0.960 . S
C752 C751 1.524 . S
C753 C750 1.403 . S
C753 C754 1.392 . S
C753 C757 1.495 . S
C754 C753 1.392 . S
C754 C755 1.385 . S
C754 C756 1.478 . S
C755 H749 0.930 . S
C755 C751 1.400 . S
C755 C754 1.385 . S
C756 C754 1.478 . S
C756 C758 1.381 . S
C756 C762 1.383 . S
C757 C753 1.495 . S
C757 H763 0.959 . S
C757 H764 0.961 . S
C757 H765 0.960 . S
C758 C756 1.381 . S
C758 C759 1.394 . S
C758 H766 0.930 . S
C759 C758 1.394 . S
C759 C760 1.383 . S
C759 H767 0.929 . S
C760 C759 1.383 . S
C760 C761 1.377 . S
C761 H745 0.930 . S
C761 C760 1.377 . S
C761 C762 1.379 . S
C762 H746 0.931 . S
C762 C756 1.383 . S
C762 C761 1.379 . S
H763 C757 0.959 . S
H764 C757 0.961 . S
H765 C757 0.960 . S
H766 C758 0.930 . S
H767 C759 0.929 . S
C129 C118 1.515 . S
C148 C18 1.507 . S
C165 C8 1.439 . S
C184 C28 1.478 . S
C201 C38 1.518 . S
C220 C58 1.519 . S
C237 C48 1.446 . S
C256 C68 1.426 . S
C273 C98 1.517 . S
C292 C78 1.520 . S
C309 C108 1.446 . S
C328 C88 1.459 . S
C345 C2 1.159 . S
C364 C1 1.139 . S
C381 C21 1.164 . S
C400 C22 1.171 . S
C417 C42 1.158 . S
C436 C41 1.140 . S
C453 C61 1.163 . S
C472 C62 1.149 . S
C489 C81 1.164 . S
C508 C82 1.164 . S
C525 C101 1.162 . S
C544 C102 1.177 . S
C561 C19 1.574 . S
C580 C89 1.593 . S
C597 C29 1.600 . S
C616 C119 1.587 . S
C633 C9 1.599 . S
C652 C59 1.581 . S
C669 C39 1.578 . S
C688 C69 1.597 . S
C705 C99 1.577 . S
C724 C49 1.589 . S
C741 C79 1.577 1_556 S
C760 C109 1.601 . S
