# Generated by pormake.
# Topology npo, (4)-cn, num edge types: 1
# Building blocks:
#     Node 0, Type 0, BuildingBlock: CEKHIL_clean_sbu_0, # of connection points: 4
#     Node 1, Type 0, BuildingBlock: CEKHIL_clean_sbu_0, # of connection points: 4
#     Node 2, Type 0, BuildingBlock: CEKHIL_clean_sbu_0, # of connection points: 4
#     Node 3, Type 0, BuildingBlock: CEKHIL_clean_sbu_0, # of connection points: 4
#     Node 4, Type 0, BuildingBlock: CEKHIL_clean_sbu_0, # of connection points: 4
#     Node 5, Type 0, BuildingBlock: CEKHIL_clean_sbu_0, # of connection points: 4
#     Edge 6, Type (0, 0), BuildingBlock: MIFKUJ_clean_linker_0, # of connection points: 2
#     Edge 7, Type (0, 0), BuildingBlock: MIFKUJ_clean_linker_0, # of connection points: 2
#     Edge 8, Type (0, 0), BuildingBlock: MIFKUJ_clean_linker_0, # of connection points: 2
#     Edge 9, Type (0, 0), BuildingBlock: MIFKUJ_clean_linker_0, # of connection points: 2
#     Edge 10, Type (0, 0), BuildingBlock: MIFKUJ_clean_linker_0, # of connection points: 2
#     Edge 11, Type (0, 0), BuildingBlock: MIFKUJ_clean_linker_0, # of connection points: 2
#     Edge 12, Type (0, 0), BuildingBlock: MIFKUJ_clean_linker_0, # of connection points: 2
#     Edge 13, Type (0, 0), BuildingBlock: MIFKUJ_clean_linker_0, # of connection points: 2
#     Edge 14, Type (0, 0), BuildingBlock: MIFKUJ_clean_linker_0, # of connection points: 2
#     Edge 15, Type (0, 0), BuildingBlock: MIFKUJ_clean_linker_0, # of connection points: 2
#     Edge 16, Type (0, 0), BuildingBlock: MIFKUJ_clean_linker_0, # of connection points: 2
#     Edge 17, Type (0, 0), BuildingBlock: MIFKUJ_clean_linker_0, # of connection points: 2
# Relax obj value: 0.296
# Max RMSD: 0.248
# Mean RMSD: 0.243
data_MOF--net-npo--node1-CEKHIL_clean_sbu_0--edge1-MIFKUJ_clean_linker_0
_symmetry_space_group_name_H-M    P1
_symmetry_Int_Tables_number       1
_symmetry_cell_setting            triclinic
loop_
_symmetry_equiv_pos_as_xyz
'x, y, z'
_cell_length_a     57.817411
_cell_length_b     57.113022
_cell_length_c     30.77463
_cell_angle_alpha  91.244957
_cell_angle_beta   90.214476
_cell_angle_gamma 120.41101
loop_
_atom_site_label
_atom_site_type_symbol
_atom_site_fract_x
_atom_site_fract_y
_atom_site_fract_z
_atom_type_partial_charge
Co0 Co 0.53602 0.09781 0.24649 0.0
O1 O 0.50759 0.06627 0.27318 0.0
O2 O 0.5511 0.08235 0.28393 0.0
C3 C 0.51957 0.12568 0.25807 0.0
O4 O 0.57101 0.12995 0.22767 0.0
Co5 Co 0.52694 0.12433 0.16569 0.0
O6 O 0.5621 0.15586 0.18464 0.0
C7 C 0.52692 0.07268 0.1564 0.0
C8 C 0.52652 0.06461 0.29326 0.0
C9 C 0.57801 0.15219 0.20836 0.0
O10 O 0.53589 0.07505 0.1955 0.0
O11 O 0.51992 0.08869 0.14027 0.0
O12 O 0.53223 0.12147 0.28912 0.0
O13 O 0.5149 0.11085 0.22326 0.0
Co14 Co 0.43412 0.54843 0.73508 0.0
O15 O 0.46648 0.55521 0.70654 0.0
O16 O 0.42548 0.52167 0.68939 0.0
C17 C 0.44295 0.5915 0.73571 0.0
O18 O 0.396 0.53583 0.75388 0.0
Co19 Co 0.43463 0.57408 0.82555 0.0
O20 O 0.39585 0.55916 0.81353 0.0
C21 C 0.44679 0.53001 0.8184 0.0
C22 C 0.45092 0.53471 0.68093 0.0
C23 C 0.38369 0.54222 0.78223 0.0
O24 O 0.43821 0.52484 0.77875 0.0
O25 O 0.44957 0.55039 0.84091 0.0
O26 O 0.43342 0.57632 0.70072 0.0
O27 O 0.44908 0.58113 0.76749 0.0
Co28 Co 0.87136 0.42114 0.25657 0.0
O29 O 0.90157 0.42141 0.28384 0.0
O30 O 0.8916 0.45399 0.29094 0.0
C31 C 0.84046 0.37852 0.27344 0.0
O32 O 0.8415 0.42775 0.2375 0.0
Co33 Co 0.83797 0.38171 0.18016 0.0
O34 O 0.81308 0.3956 0.1895 0.0
C35 C 0.89115 0.42966 0.16364 0.0
C36 C 0.90672 0.4443 0.30224 0.0
C37 C 0.81985 0.4163 0.21421 0.0
O38 O 0.89299 0.4387 0.20303 0.0
O39 O 0.87196 0.40658 0.14994 0.0
O40 O 0.84806 0.39822 0.30202 0.0
O41 O 0.85341 0.38469 0.23746 0.0
Co42 Co 0.42067 0.87477 0.72306 0.0
O43 O 0.421 0.90379 0.6924 0.0
O44 O 0.45147 0.89118 0.68619 0.0
C45 C 0.37724 0.84384 0.71178 0.0
O46 O 0.42593 0.84502 0.74701 0.0
Co47 Co 0.38588 0.85124 0.80521 0.0
O48 O 0.39459 0.82197 0.79681 0.0
C49 C 0.43637 0.9037 0.8113 0.0
C50 C 0.44259 0.90693 0.67418 0.0
C51 C 0.41352 0.82484 0.77225 0.0
O52 O 0.44239 0.9002 0.7725 0.0
O53 O 0.41376 0.88792 0.8286 0.0
O54 O 0.39452 0.84815 0.68161 0.0
O55 O 0.38617 0.86045 0.74496 0.0
Co56 Co 0.54209 0.42581 0.23169 0.0
O57 O 0.50956 0.41693 0.20056 0.0
O58 O 0.54976 0.45231 0.18815 0.0
C59 C 0.53637 0.38384 0.2294 0.0
O60 O 0.58021 0.4408 0.25425 0.0
Co61 Co 0.54141 0.40064 0.32062 0.0
O62 O 0.58058 0.41751 0.31189 0.0
C63 C 0.52439 0.44099 0.31407 0.0
C64 C 0.52447 0.43801 0.17745 0.0
C65 C 0.5927 0.43505 0.28288 0.0
O66 O 0.53501 0.44775 0.27639 0.0
O67 O 0.52219 0.42073 0.33457 0.0
O68 O 0.54576 0.39924 0.19594 0.0
O69 O 0.52847 0.3932 0.26095 0.0
Co70 Co 0.10386 0.55554 0.76538 0.0
O71 O 0.07735 0.5618 0.79196 0.0
O72 O 0.07943 0.52431 0.79798 0.0
C73 C 0.13919 0.59586 0.78539 0.0
O74 O 0.12914 0.54243 0.74591 0.0
Co75 Co 0.1404 0.59185 0.69164 0.0
O76 O 0.15968 0.57185 0.69974 0.0
C77 C 0.08446 0.54891 0.67136 0.0
C78 C 0.06816 0.53824 0.80926 0.0
C79 C 0.15026 0.55082 0.72281 0.0
O80 O 0.081 0.54023 0.7105 0.0
O81 O 0.10577 0.57005 0.65901 0.0
O82 O 0.12926 0.57619 0.81257 0.0
O83 O 0.12645 0.59137 0.74886 0.0
H84 H 0.53264 0.16389 0.32342 0.0
H85 H 0.53371 0.20728 0.31862 0.0
H86 H 0.50344 0.1867 0.18672 0.0
H87 H 0.50137 0.14309 0.19159 0.0
H88 H 0.55424 0.24023 0.20362 0.0
H89 H 0.46236 0.18475 0.24828 0.0
H90 H 0.42656 0.15254 0.29566 0.0
H91 H 0.46236 0.20825 0.40446 0.0
H92 H 0.49862 0.24065 0.35781 0.0
H93 H 0.53595 0.35159 0.16254 0.0
H94 H 0.53178 0.30696 0.16735 0.0
H95 H 0.53274 0.31368 0.30749 0.0
H96 H 0.53503 0.35738 0.30259 0.0
H97 H 0.49636 0.26615 0.28528 0.0
H98 H 0.59142 0.31695 0.24802 0.0
H99 H 0.6296 0.34975 0.20499 0.0
H100 H 0.58964 0.30542 0.08748 0.0
H101 H 0.55176 0.27158 0.13022 0.0
C102 C 0.52577 0.16842 0.29369 0.0
C103 C 0.51713 0.15019 0.25778 0.0
C104 C 0.52649 0.19319 0.29096 0.0
C105 C 0.51887 0.20012 0.25218 0.0
C106 C 0.50957 0.18169 0.21676 0.0
C107 C 0.50836 0.15677 0.21971 0.0
C108 C 0.52145 0.227 0.24798 0.0
C109 C 0.54142 0.24586 0.22106 0.0
C110 C 0.50515 0.23441 0.27159 0.0
C111 C 0.48337 0.21497 0.29967 0.0
C112 C 0.46276 0.19001 0.2824 0.0
C113 C 0.44235 0.17175 0.3091 0.0
C114 C 0.44223 0.1783 0.35308 0.0
C115 C 0.4625 0.20318 0.37041 0.0
C116 C 0.48298 0.2215 0.34385 0.0
C117 C 0.53543 0.34355 0.19431 0.0
C118 C 0.53575 0.35784 0.23218 0.0
C119 C 0.53331 0.31815 0.1971 0.0
C120 C 0.53244 0.30707 0.23784 0.0
C121 C 0.53331 0.3217 0.27567 0.0
C122 C 0.5347 0.34673 0.27286 0.0
C123 C 0.52944 0.27975 0.2412 0.0
C124 C 0.50931 0.26069 0.26788 0.0
C125 C 0.54585 0.27225 0.21789 0.0
C126 C 0.56876 0.29199 0.19217 0.0
C127 C 0.59082 0.31424 0.213 0.0
C128 C 0.6124 0.33298 0.18868 0.0
C129 C 0.61185 0.32999 0.14343 0.0
C130 C 0.58996 0.30784 0.12249 0.0
C131 C 0.5686 0.28868 0.14679 0.0
H132 H 0.62852 0.34465 0.12466 0.0
H133 H 0.4264 0.16414 0.37369 0.0
H134 H 0.34857 0.54275 0.84113 0.0
H135 H 0.30203 0.53039 0.82752 0.0
H136 H 0.30624 0.50447 0.69663 0.0
H137 H 0.35273 0.51655 0.70992 0.0
H138 H 0.29302 0.54524 0.70306 0.0
H139 H 0.26455 0.45826 0.76214 0.0
H140 H 0.26323 0.42652 0.81644 0.0
H141 H 0.23352 0.46049 0.91149 0.0
H142 H 0.23503 0.49272 0.85795 0.0
H143 H 0.16992 0.53413 0.65659 0.0
H144 H 0.20235 0.51872 0.66254 0.0
H145 H 0.20037 0.52444 0.80254 0.0
H146 H 0.16639 0.53773 0.7964 0.0
H147 H 0.21008 0.48673 0.78404 0.0
H148 H 0.24731 0.57863 0.73529 0.0
H149 H 0.25283 0.61506 0.68722 0.0
H150 H 0.27009 0.57702 0.58033 0.0
H151 H 0.26436 0.54019 0.62771 0.0
C152 C 0.33945 0.5339 0.80972 0.0
C153 C 0.35447 0.53092 0.77646 0.0
C154 C 0.31278 0.52665 0.80213 0.0
C155 C 0.30073 0.51645 0.76113 0.0
C156 C 0.3152 0.51218 0.72856 0.0
C157 C 0.34178 0.51913 0.73625 0.0
C158 C 0.27469 0.51417 0.75053 0.0
C159 C 0.27466 0.53195 0.71994 0.0
C160 C 0.25114 0.49751 0.77379 0.0
C161 C 0.25007 0.47805 0.80604 0.0
C162 C 0.25793 0.45912 0.79471 0.0
C163 C 0.25711 0.44101 0.82535 0.0
C164 C 0.24834 0.44152 0.86741 0.0
C165 C 0.24031 0.46011 0.87889 0.0
C166 C 0.24111 0.47829 0.84838 0.0
C167 C 0.17593 0.5313 0.68853 0.0
C168 C 0.16591 0.53717 0.72606 0.0
C169 C 0.19458 0.52273 0.69197 0.0
C170 C 0.20453 0.52129 0.73299 0.0
C171 C 0.19316 0.52549 0.77051 0.0
C172 C 0.17378 0.53312 0.76704 0.0
C173 C 0.22849 0.51821 0.73695 0.0
C174 C 0.22823 0.49959 0.76642 0.0
C175 C 0.25218 0.53467 0.71354 0.0
C176 C 0.25509 0.55652 0.68488 0.0
C177 C 0.25205 0.57793 0.70144 0.0
C178 C 0.25525 0.59866 0.67433 0.0
C179 C 0.26176 0.59832 0.63072 0.0
C180 C 0.26501 0.57723 0.6141 0.0
C181 C 0.26179 0.55642 0.64104 0.0
H182 H 0.26443 0.61446 0.6098 0.0
H183 H 0.24772 0.42748 0.89108 0.0
H184 H 0.59167 0.19895 0.25154 0.0
H185 H 0.6369 0.23536 0.27196 0.0
H186 H 0.67031 0.19263 0.2037 0.0
H187 H 0.62477 0.15519 0.18629 0.0
H188 H 0.69788 0.21379 0.27365 0.0
H189 H 0.66904 0.24911 0.15926 0.0
H190 H 0.63599 0.25781 0.12342 0.0
H191 H 0.64076 0.30879 0.23184 0.0
H192 H 0.6737 0.30025 0.26841 0.0
H193 H 0.825 0.33156 0.22784 0.0
H194 H 0.78058 0.29055 0.22641 0.0
H195 H 0.75429 0.32641 0.32487 0.0
H196 H 0.79886 0.36738 0.32702 0.0
H197 H 0.72343 0.30895 0.24434 0.0
H198 H 0.75869 0.2754 0.3532 0.0
H199 H 0.79132 0.26421 0.38365 0.0
H200 H 0.77645 0.20907 0.2759 0.0
H201 H 0.744 0.22022 0.24446 0.0
C202 C 0.60879 0.19759 0.24073 0.0
C203 C 0.60513 0.17483 0.21674 0.0
C204 C 0.63457 0.21831 0.25231 0.0
C205 C 0.65709 0.21707 0.2385 0.0
C206 C 0.65329 0.19409 0.21463 0.0
C207 C 0.62741 0.17292 0.20428 0.0
C208 C 0.68455 0.23997 0.24828 0.0
C209 C 0.70354 0.23456 0.26682 0.0
C210 C 0.69193 0.26712 0.23979 0.0
C211 C 0.67363 0.27387 0.21667 0.0
C212 C 0.66308 0.26225 0.17535 0.0
C213 C 0.64435 0.26711 0.15495 0.0
C214 C 0.6362 0.28372 0.17542 0.0
C215 C 0.64707 0.2959 0.21602 0.0
C216 C 0.66583 0.29112 0.23657 0.0
C217 C 0.8099 0.33044 0.24984 0.0
C218 C 0.81524 0.35257 0.27745 0.0
C219 C 0.78464 0.30702 0.24909 0.0
C220 C 0.76432 0.30557 0.27559 0.0
C221 C 0.76986 0.32723 0.30437 0.0
C222 C 0.79529 0.35052 0.30564 0.0
C223 C 0.73663 0.28271 0.26966 0.0
C224 C 0.71766 0.28818 0.2515 0.0
C225 C 0.72962 0.25562 0.27733 0.0
C226 C 0.74907 0.24883 0.2963 0.0
C227 C 0.76254 0.26107 0.3358 0.0
C228 C 0.78097 0.25469 0.35328 0.0
C229 C 0.786 0.23599 0.33168 0.0
C230 C 0.77255 0.22357 0.29259 0.0
C231 C 0.75411 0.22989 0.27495 0.0
H232 H 0.80027 0.23108 0.34527 0.0
H233 H 0.62139 0.28702 0.1598 0.0
H234 H 0.39949 0.78388 0.82955 0.0
H235 H 0.40937 0.74701 0.82432 0.0
H236 H 0.45328 0.78033 0.70694 0.0
H237 H 0.4438 0.81736 0.71195 0.0
H238 H 0.41245 0.72385 0.70167 0.0
H239 H 0.488 0.78695 0.79202 0.0
H240 H 0.50911 0.81742 0.85603 0.0
H241 H 0.46601 0.75044 0.94054 0.0
H242 H 0.44432 0.71964 0.87703 0.0
H243 H 0.45364 0.62802 0.67279 0.0
H244 H 0.45414 0.67103 0.67966 0.0
H245 H 0.43331 0.65569 0.81492 0.0
H246 H 0.43517 0.61403 0.80886 0.0
H247 H 0.46473 0.70542 0.80977 0.0
H248 H 0.38579 0.64314 0.72613 0.0
H249 H 0.36014 0.61104 0.66579 0.0
H250 H 0.40347 0.67335 0.57368 0.0
H251 H 0.42954 0.70575 0.63348 0.0
C252 C 0.41146 0.78352 0.80285 0.0
C253 C 0.42085 0.80355 0.77117 0.0
C254 C 0.41715 0.76252 0.80003 0.0
C255 C 0.4321 0.76113 0.76533 0.0
C256 C 0.44176 0.78119 0.73397 0.0
C257 C 0.43637 0.80235 0.73702 0.0
C258 C 0.43644 0.73791 0.76041 0.0
C259 C 0.42419 0.71994 0.72488 0.0
C260 C 0.45104 0.73257 0.79158 0.0
C261 C 0.46436 0.75103 0.82975 0.0
C262 C 0.48286 0.77876 0.82425 0.0
C263 C 0.49496 0.79608 0.86045 0.0
C264 C 0.48886 0.78589 0.90233 0.0
C265 C 0.47071 0.75832 0.90809 0.0
C266 C 0.45853 0.74091 0.872 0.0
C267 C 0.4494 0.63406 0.70399 0.0
C268 C 0.44412 0.61771 0.7402 0.0
C269 C 0.44947 0.65849 0.70787 0.0
C270 C 0.44299 0.6663 0.74752 0.0
C271 C 0.43831 0.65016 0.78393 0.0
C272 C 0.43923 0.62626 0.78043 0.0
C273 C 0.44045 0.69088 0.75102 0.0
C274 C 0.45303 0.70921 0.78631 0.0
C275 C 0.42551 0.6962 0.7202 0.0
C276 C 0.40978 0.67677 0.68423 0.0
C277 C 0.38994 0.64994 0.69299 0.0
C278 C 0.37531 0.6317 0.65889 0.0
C279 C 0.38023 0.64013 0.61592 0.0
C280 C 0.39971 0.66684 0.60697 0.0
C281 C 0.41439 0.68516 0.64094 0.0
H282 H 0.3689 0.62598 0.58957 0.0
H283 H 0.49823 0.79934 0.93031 0.0
H284 H 0.62497 0.46643 0.21766 0.0
H285 H 0.67089 0.47732 0.2038 0.0
H286 H 0.67292 0.44214 0.32527 0.0
H287 H 0.62712 0.43121 0.33962 0.0
H288 H 0.72403 0.488 0.29946 0.0
H289 H 0.64653 0.40409 0.23923 0.0
H290 H 0.60585 0.38229 0.19264 0.0
H291 H 0.65318 0.42093 0.08108 0.0
H292 H 0.69396 0.4443 0.1275 0.0
H293 H 0.80195 0.4268 0.28873 0.0
H294 H 0.76875 0.44082 0.29687 0.0
H295 H 0.7641 0.44487 0.15725 0.0
H296 H 0.79574 0.42843 0.14927 0.0
H297 H 0.71802 0.42395 0.18231 0.0
H298 H 0.79535 0.50413 0.23279 0.0
H299 H 0.83735 0.53307 0.27425 0.0
H300 H 0.79462 0.50849 0.39399 0.0
H301 H 0.75241 0.47909 0.35332 0.0
C302 C 0.6354 0.4617 0.2421 0.0
C303 C 0.6221 0.44728 0.27926 0.0
C304 C 0.66171 0.46808 0.23414 0.0
C305 C 0.67503 0.46009 0.26318 0.0
C306 C 0.66289 0.44837 0.30242 0.0
C307 C 0.63659 0.44191 0.31036 0.0
C308 C 0.69904 0.45912 0.24969 0.0
C309 C 0.72293 0.4741 0.27384 0.0
C310 C 0.69767 0.44171 0.21508 0.0
C311 C 0.67328 0.42632 0.18701 0.0
C312 C 0.64826 0.40824 0.20488 0.0
C313 C 0.62514 0.39572 0.17852 0.0
C314 C 0.62692 0.40024 0.13393 0.0
C315 C 0.65181 0.41746 0.11565 0.0
C316 C 0.67491 0.43053 0.14203 0.0
C317 C 0.79395 0.43093 0.25988 0.0
C318 C 0.80135 0.42672 0.21843 0.0
C319 C 0.77517 0.43925 0.26449 0.0
C320 C 0.7643 0.44472 0.22774 0.0
C321 C 0.77215 0.4409 0.18618 0.0
C322 C 0.79025 0.4316 0.18156 0.0
C323 C 0.74335 0.45242 0.23286 0.0
C324 C 0.71978 0.4385 0.20726 0.0
C325 C 0.74537 0.4715 0.26522 0.0
C326 C 0.77071 0.48928 0.28994 0.0
C327 C 0.79492 0.50477 0.26797 0.0
C328 C 0.81877 0.52127 0.29134 0.0
C329 C 0.81866 0.52259 0.33672 0.0
C330 C 0.79468 0.50745 0.35883 0.0
C331 C 0.77077 0.4909 0.33563 0.0
H332 H 0.83715 0.53537 0.35475 0.0
H333 H 0.60903 0.39031 0.11353 0.0
H334 H 0.33255 0.83456 0.75401 0.0
H335 H 0.29337 0.79048 0.76903 0.0
H336 H 0.32694 0.75047 0.69375 0.0
H337 H 0.36559 0.79474 0.67691 0.0
H338 H 0.27521 0.72439 0.68186 0.0
H339 H 0.3329 0.75593 0.80654 0.0
H340 H 0.36123 0.7883 0.86479 0.0
H341 H 0.29288 0.78969 0.91562 0.0
H342 H 0.26413 0.75747 0.85749 0.0
H343 H 0.18711 0.59842 0.78126 0.0
H344 H 0.23096 0.63992 0.77387 0.0
H345 H 0.19415 0.68855 0.7958 0.0
H346 H 0.15015 0.64709 0.80106 0.0
H347 H 0.25083 0.70702 0.83726 0.0
H348 H 0.19569 0.6788 0.703 0.0
H349 H 0.16831 0.64373 0.64728 0.0
H350 H 0.23537 0.6341 0.61624 0.0
H351 H 0.26296 0.66855 0.67285 0.0
C352 C 0.33123 0.81635 0.73994 0.0
C353 C 0.35195 0.81791 0.71438 0.0
C354 C 0.30903 0.7912 0.74888 0.0
C355 C 0.30765 0.76716 0.73362 0.0
C356 C 0.3277 0.76876 0.70612 0.0
C357 C 0.34967 0.79402 0.69636 0.0
C358 C 0.28571 0.74049 0.74766 0.0
C359 C 0.27022 0.7205 0.7159 0.0
C360 C 0.27922 0.73524 0.79214 0.0
C361 C 0.29638 0.7544 0.82747 0.0
C362 C 0.32392 0.76323 0.83 0.0
C363 C 0.34006 0.78155 0.863 0.0
C364 C 0.32888 0.79111 0.89377 0.0
C365 C 0.30151 0.78227 0.89173 0.0
C366 C 0.28527 0.76394 0.85884 0.0
C367 C 0.18864 0.61803 0.78566 0.0
C368 C 0.16562 0.61992 0.79181 0.0
C369 C 0.21356 0.64159 0.78149 0.0
C370 C 0.21557 0.6671 0.78435 0.0
C371 C 0.19285 0.66895 0.79388 0.0
C372 C 0.16787 0.64541 0.79684 0.0
C373 C 0.2403 0.69159 0.77144 0.0
C374 C 0.25623 0.711 0.80338 0.0
C375 C 0.24754 0.6961 0.72731 0.0
C376 C 0.23125 0.67596 0.69254 0.0
C377 C 0.20451 0.66898 0.68465 0.0
C378 C 0.18896 0.64921 0.65292 0.0
C379 C 0.20007 0.63657 0.62843 0.0
C380 C 0.22678 0.64378 0.63547 0.0
C381 C 0.24237 0.6634 0.66739 0.0
H382 H 0.18801 0.62128 0.60386 0.0
H383 H 0.34142 0.80531 0.91925 0.0
H384 H 0.48981 0.92099 0.81549 0.0
H385 H 0.5225 0.95274 0.87019 0.0
H386 H 0.46183 0.96729 0.92334 0.0
H387 H 0.42908 0.93513 0.87012 0.0
H388 H 0.51961 0.01609 0.9088 0.0
H389 H 0.46388 0.92311 0.97385 0.0
H390 H 0.4501 0.87451 0.97148 0.0
H391 H 0.53276 0.89567 0.97197 0.0
H392 H 0.54693 0.94441 0.97396 0.0
H393 H 0.48661 0.04105 0.10058 0.0
H394 H 0.48782 0.01327 0.04043 0.0
H395 H 0.5657 0.02948 0.08397 0.0
H396 H 0.56431 0.05717 0.14549 0.0
H397 H 0.52312 0.97124 0.04314 0.0
H398 H 0.57542 0.06516 0.01161 0.0
H399 H 0.58645 0.11289 0.01605 0.0
H400 H 0.5126 0.09127 0.94949 0.0
H401 H 0.50092 0.04334 0.94529 0.0
C402 C 0.48373 0.93147 0.83835 0.0
C403 C 0.45703 0.92575 0.83884 0.0
C404 C 0.50233 0.94944 0.86947 0.0
C405 C 0.49444 0.96224 0.90044 0.0
C406 C 0.4682 0.95761 0.89937 0.0
C407 C 0.44954 0.93926 0.86914 0.0
C408 C 0.51221 0.97878 0.93676 0.0
C409 C 0.52128 0.00661 0.93789 0.0
C410 C 0.51495 0.9664 0.97413 0.0
C411 C 0.50642 0.93725 0.97375 0.0
C412 C 0.47906 0.91734 0.9733 0.0
C413 C 0.4712 0.8898 0.97204 0.0
C414 C 0.49054 0.882 0.9715 0.0
C415 C 0.5178 0.90174 0.97234 0.0
C416 C 0.52576 0.9293 0.97355 0.0
C417 C 0.50364 0.03807 0.09807 0.0
C418 C 0.52547 0.05135 0.12715 0.0
C419 C 0.50432 0.02222 0.06384 0.0
C420 C 0.52703 0.0198 0.0576 0.0
C421 C 0.54805 0.03122 0.08846 0.0
C422 C 0.54721 0.04692 0.12342 0.0
C423 C 0.52933 0.00833 0.01563 0.0
C424 C 0.52356 0.98137 0.01348 0.0
C425 C 0.5301 0.02169 0.97701 0.0
C426 C 0.53735 0.05065 0.97803 0.0
C427 C 0.56151 0.07058 -0.00201 0.0
C428 C 0.56787 0.09767 0.0005 0.0
C429 C 0.55025 0.10511 0.98302 0.0
C430 C 0.52627 0.08548 0.96291 0.0
C431 C 0.51981 0.05836 0.96034 0.0
H432 H 0.55518 0.12609 0.98508 0.0
H433 H 0.48442 0.86068 0.97048 0.0
H434 H 0.47761 0.42358 0.35515 0.0
H435 H 0.46705 0.44951 0.40732 0.0
H436 H 0.54184 0.522 0.37973 0.0
H437 H 0.55217 0.49603 0.32626 0.0
H438 H 0.5348 0.50553 0.46799 0.0
H439 H 0.48875 0.52459 0.35943 0.0
H440 H 0.45783 0.51482 0.29734 0.0
H441 H 0.39135 0.45963 0.37421 0.0
H442 H 0.42189 0.46872 0.4366 0.0
H443 H 0.50034 0.56487 0.64528 0.0
H444 H 0.51512 0.55695 0.57496 0.0
H445 H 0.4393 0.4825 0.55646 0.0
H446 H 0.42415 0.49068 0.6261 0.0
H447 H 0.45218 0.51067 0.4847 0.0
H448 H 0.49782 0.4834 0.58559 0.0
H449 H 0.52767 0.48942 0.64759 0.0
H450 H 0.59355 0.55621 0.58495 0.0
H451 H 0.56398 0.55078 0.52278 0.0
C452 C 0.49132 0.44525 0.35914 0.0
C453 C 0.51564 0.45792 0.33692 0.0
C454 C 0.48527 0.46005 0.38881 0.0
C455 C 0.50367 0.48764 0.39728 0.0
C456 C 0.52735 0.50074 0.37332 0.0
C457 C 0.53316 0.48599 0.34277 0.0
C458 C 0.49966 0.50111 0.43563 0.0
C459 C 0.51716 0.50748 0.47136 0.0
C460 C 0.47624 0.50279 0.44012 0.0
C461 C 0.45769 0.49727 0.40271 0.0
C462 C 0.46757 0.51021 0.36304 0.0
C463 C 0.45009 0.50482 0.32779 0.0
C464 C 0.42265 0.48659 0.33182 0.0
C465 C 0.41261 0.47376 0.37114 0.0
C466 C 0.43 0.47906 0.4065 0.0
C467 C 0.48695 0.54664 0.62645 0.0
C468 C 0.46111 0.52834 0.64122 0.0
C469 C 0.49541 0.54218 0.58623 0.0
C470 C 0.47832 0.51912 0.56045 0.0
C471 C 0.45274 0.50054 0.57565 0.0
C472 C 0.44419 0.50512 0.61561 0.0
C473 C 0.48687 0.51421 0.5175 0.0
C474 C 0.47019 0.50943 0.48105 0.0
C475 C 0.51086 0.51357 0.51244 0.0
C476 C 0.52862 0.51693 0.54985 0.0
C477 C 0.51862 0.49953 0.58524 0.0
C478 C 0.5355 0.5028 0.62036 0.0
C479 C 0.56247 0.52325 0.62028 0.0
C480 C 0.57264 0.54042 0.58501 0.0
C481 C 0.55583 0.53726 0.54983 0.0
H482 H 0.57551 0.52573 0.64749 0.0
H483 H 0.40916 0.48244 0.30448 0.0
H484 H 0.04739 0.56702 0.84726 0.0
H485 H 0.02034 0.55575 0.91258 0.0
H486 H 0.0173 0.47876 0.91654 0.0
H487 H 0.04502 0.49024 0.85185 0.0
H488 H 0.97264 0.51867 0.93366 0.0
H489 H 0.01918 0.46145 0.01934 0.0
H490 H 0.06266 0.46323 0.02339 0.0
H491 H 0.10335 0.54697 0.98817 0.0
H492 H 0.06018 0.54582 0.98454 0.0
H493 H 0.88705 0.4223 0.07585 0.0
H494 H 0.91971 0.44885 0.02181 0.0
H495 H 0.97393 0.50227 0.12264 0.0
H496 H 0.94095 0.47542 0.17795 0.0
H497 H -0.00118 0.48603 0.0626 0.0
H498 H 0.94578 0.52688 0.05993 0.0
H499 H 0.9046 0.52964 0.05937 0.0
H500 H 0.88153 0.48765 0.9353 0.0
H501 H 0.92238 0.48424 0.93538 0.0
C502 C 0.04072 0.54754 0.86174 0.0
C503 C 0.04846 0.52956 0.84455 0.0
C504 C 0.02531 0.54117 0.89917 0.0
C505 C 0.01731 0.5167 0.92006 0.0
C506 C 0.02386 0.4981 0.90164 0.0
C507 C 0.03945 0.50454 0.8644 0.0
C508 C 0.00213 0.51055 0.9611 0.0
C509 C 0.97845 0.51168 0.96191 0.0
C510 C 0.01027 0.50251 -0.00132 0.0
C511 C 0.03639 0.50346 0.00135 0.0
C512 C 0.03741 0.48028 0.01269 0.0
C513 C 0.06201 0.48118 0.01486 0.0
C514 C 0.08574 0.50518 0.00593 0.0
C515 C 0.08494 0.52837 -0.00506 0.0
C516 C 0.06041 0.5276 0.99278 0.0
C517 C 0.90585 0.43968 0.0869 0.0
C518 C 0.91139 0.44665 0.13141 0.0
C519 C 0.92445 0.45499 0.05576 0.0
C520 C 0.94907 0.47771 0.06815 0.0
C521 C 0.95491 0.48486 0.11248 0.0
C522 C 0.93607 0.46955 0.14395 0.0
C523 C 0.96875 0.49285 0.03412 0.0
C524 C -0.00671 0.49346 0.03458 0.0
C525 C 0.96179 0.50322 -0.00183 0.0
C526 C 0.93713 0.5052 -0.00222 0.0
C527 C 0.93184 0.51805 0.03266 0.0
C528 C 0.90856 0.51976 0.0324 0.0
C529 C 0.89044 0.5088 -0.00265 0.0
C530 C 0.89559 0.49614 0.96243 0.0
C531 C 0.91883 0.49435 0.96253 0.0
H532 H 0.87243 0.51015 -0.00279 0.0
H533 H 0.10476 0.50582 0.00759 0.0
H534 H 0.47728 0.02557 0.32014 0.0
H535 H 0.46729 -0.00078 0.38599 0.0
H536 H 0.55193 0.03448 0.41285 0.0
H537 H 0.56214 0.06068 0.34665 0.0
H538 H 0.52208 0.97977 0.43346 0.0
H539 H 0.52041 0.06225 0.46059 0.0
H540 H 0.50641 0.09558 0.44575 0.0
H541 H 0.42411 0.03467 0.46483 0.0
H542 H 0.43759 0.00086 0.47914 0.0
H543 H 0.49529 0.93411 0.65116 0.0
H544 H 0.51475 0.96389 0.58916 0.0
H545 H 0.43631 0.95007 0.5538 0.0
H546 H 0.41746 0.92222 0.61721 0.0
H547 H 0.4694 -0.00119 0.5407 0.0
H548 H 0.46937 0.91507 0.50503 0.0
H549 H 0.4821 0.88047 0.51728 0.0
H550 H 0.56545 0.94171 0.51235 0.0
H551 H 0.55319 0.9767 0.5005 0.0
C552 C 0.49377 0.02735 0.3396 0.0
C553 C 0.52048 0.04543 0.32859 0.0
C554 C 0.48803 0.01236 0.37725 0.0
C555 C 0.50891 0.01541 0.40461 0.0
C556 C 0.53558 0.03203 0.39221 0.0
C557 C 0.54135 0.04698 0.35444 0.0
C558 C 0.50281 0.00283 0.44763 0.0
C559 C 0.51082 0.98408 0.45722 0.0
C560 C 0.48807 0.00851 0.47836 0.0
C561 C 0.48 0.02899 0.47067 0.0
C562 C 0.49932 0.05593 0.46141 0.0
C563 C 0.49148 0.07491 0.4531 0.0
C564 C 0.46439 0.06724 0.45428 0.0
C565 C 0.44509 0.04059 0.46392 0.0
C566 C 0.45282 0.02152 0.47218 0.0
C567 C 0.48241 0.93778 0.63025 0.0
C568 C 0.45495 0.92594 0.63869 0.0
C569 C 0.49344 0.95457 0.59469 0.0
C570 C 0.47691 0.95877 0.56611 0.0
C571 C 0.44955 0.94725 0.57528 0.0
C572 C 0.43875 0.93127 0.61149 0.0
C573 C 0.48753 0.97462 0.5261 0.0
C574 C 0.4807 -0.00561 0.51717 0.0
C575 C 0.50306 0.96959 0.49582 0.0
C576 C 0.51037 0.9485 0.50231 0.0
C577 C 0.4904 0.92114 0.50673 0.0
C578 C 0.49754 0.90148 0.5136 0.0
C579 C 0.52456 0.9089 0.5157 0.0
C580 C 0.54452 0.93599 0.51077 0.0
C581 C 0.5375 0.95574 0.50395 0.0
H582 H 0.53005 0.89365 0.52107 0.0
H583 H 0.45835 0.08195 0.4478 0.0
H584 H 0.49531 0.53967 0.84531 0.0
H585 H 0.50406 0.51365 0.89842 0.0
H586 H 0.41971 0.45355 0.89863 0.0
H587 H 0.41107 0.47939 0.84446 0.0
H588 H 0.44173 0.47852 0.98027 0.0
H589 H 0.45922 0.43237 0.86718 0.0
H590 H 0.47858 0.42708 0.79906 0.0
H591 H 0.55791 0.47547 0.85395 0.0
H592 H 0.53906 0.48143 0.92224 0.0
H593 H 0.47226 0.41309 0.14918 0.0
H594 H 0.45505 0.42108 0.08169 0.0
H595 H 0.53498 0.48415 0.05015 0.0
H596 H 0.55233 0.47632 0.11741 0.0
H597 H 0.50873 0.44864 0.98071 0.0
H598 H 0.49179 0.50104 0.08749 0.0
H599 H 0.47332 0.5083 0.1552 0.0
H600 H 0.3936 0.44959 0.1111 0.0
H601 H 0.41166 0.44171 0.04332 0.0
C602 C 0.47888 0.52034 0.85545 0.0
C603 C 0.45264 0.51121 0.84074 0.0
C604 C 0.48383 0.50552 0.88573 0.0
C605 C 0.46251 0.48168 0.90231 0.0
C606 C 0.4364 0.47181 0.88592 0.0
C607 C 0.43152 0.48641 0.85493 0.0
C608 C 0.46728 0.46968 0.94096 0.0
C609 C 0.45581 0.47125 0.98021 0.0
C610 C 0.48617 0.46092 0.94086 0.0
C611 C 0.4977 0.4575 0.89981 0.0
C612 C 0.48081 0.4421 0.86464 0.0
C613 C 0.49169 0.43893 0.826 0.0
C614 C 0.51946 0.45097 0.82215 0.0
C615 C 0.5364 0.46616 0.85698 0.0
C616 C 0.52562 0.46941 0.8957 0.0
C617 C 0.48612 0.4288 0.12802 0.0
C618 C 0.51363 0.44414 0.13862 0.0
C619 C 0.47627 0.43329 0.08948 0.0
C620 C 0.49377 0.45315 0.06096 0.0
C621 C 0.52119 0.46861 0.07165 0.0
C622 C 0.53103 0.46426 0.11024 0.0
C623 C 0.48362 0.45809 0.02003 0.0
C624 C 0.49417 0.4553 0.98052 0.0
C625 C 0.46399 0.46589 0.01986 0.0
C626 C 0.4531 0.47051 0.06062 0.0
C627 C 0.47034 0.48948 0.09243 0.0
C628 C 0.45995 0.49375 0.13077 0.0
C629 C 0.43232 0.47933 0.13753 0.0
C630 C 0.41501 0.46068 0.10588 0.0
C631 C 0.42531 0.45631 0.06749 0.0
H632 H 0.4243 0.48268 0.16723 0.0
H633 H 0.52785 0.44849 0.79221 0.0
H634 H 0.0923 0.54579 0.58555 0.0
H635 H 0.05879 0.52594 0.52745 0.0
H636 H -0.00429 0.4983 0.62146 0.0
H637 H 0.02962 0.51797 0.68069 0.0
H638 H 0.9837 0.46093 0.55263 0.0
H639 H 0.01155 0.55446 0.57111 0.0
H640 H 0.04402 0.60341 0.58108 0.0
H641 H 0.07782 0.60407 0.4568 0.0
H642 H 0.04581 0.55502 0.44636 0.0
H643 H 0.91601 0.48763 0.35401 0.0
H644 H 0.9429 0.50367 0.42097 0.0
H645 H 0.96831 0.44514 0.40032 0.0
H646 H 0.94082 0.42847 0.3338 0.0
H647 H -0.00666 0.52615 0.44007 0.0
H648 H 0.97544 0.42174 0.49678 0.0
H649 H 0.94038 0.37336 0.49041 0.0
H650 H 0.88047 0.39554 0.47061 0.0
H651 H 0.91508 0.44402 0.4775 0.0
C652 C 0.0713 0.53535 0.59407 0.0
C653 C 0.06354 0.53387 0.63762 0.0
C654 C 0.05218 0.52399 0.56077 0.0
C655 C 0.02483 0.51126 0.5701 0.0
C656 C 0.0168 0.50828 0.61367 0.0
C657 C 0.0361 0.51949 0.64737 0.0
C658 C 0.00516 0.50265 0.53367 0.0
C659 C 0.98564 0.47514 0.52809 0.0
C660 C 0.00731 0.52139 0.50228 0.0
C661 C 0.02636 0.55102 0.50807 0.0
C662 C 0.026 0.56501 0.546 0.0
C663 C 0.04432 0.59278 0.55173 0.0
C664 C 0.06299 0.60684 0.51961 0.0
C665 C 0.06334 0.59316 0.48164 0.0
C666 C 0.04508 0.56538 0.47577 0.0
C667 C 0.92756 0.47837 0.36342 0.0
C668 C 0.9262 0.45669 0.33874 0.0
C669 C 0.94287 0.48751 0.40181 0.0
C670 C 0.95716 0.47521 0.41619 0.0
C671 C 0.9569 0.45446 0.39044 0.0
C672 C 0.94142 0.44516 0.35218 0.0
C673 C 0.97238 0.48419 0.45803 0.0
C674 C -0.00888 0.51187 0.46467 0.0
C675 C 0.96896 0.46567 0.49082 0.0
C676 C 0.94792 0.43653 0.48728 0.0
C677 C 0.95477 0.41629 0.49128 0.0
C678 C 0.93497 0.38885 0.48754 0.0
C679 C 0.90823 0.38138 0.47998 0.0
C680 C 0.9012 0.40135 0.47631 0.0
C681 C 0.92091 0.42882 0.48009 0.0
H682 H 0.89294 0.36013 0.47705 0.0
H683 H 0.07717 0.62833 0.52413 0.0
loop_
_geom_bond_atom_site_label_1
_geom_bond_atom_site_label_2
_geom_bond_distance
_geom_bond_site_symmetry_2
_ccdc_geom_bond_type
Co0 O1 2.216 . S
Co0 O2 2.091 . S
Co0 O4 2.004 . S
Co0 O10 2.021 . S
Co0 O12 2.137 . S
Co0 O13 2.244 . S
O1 Co0 2.216 . S
O1 C8 1.247 . S
O2 Co0 2.091 . S
O2 C8 1.261 . S
C3 O12 1.247 . S
C3 O13 1.272 . S
O4 Co0 2.004 . S
O4 C9 1.259 . S
Co5 O6 2.061 . S
Co5 O11 2.052 . S
Co5 O13 2.135 . S
O6 Co5 2.061 . S
O6 C9 1.235 . S
C7 O10 1.238 . S
C7 O11 1.241 . S
C8 O1 1.247 . S
C8 O2 1.261 . S
C9 O4 1.259 . S
C9 O6 1.235 . S
O10 Co0 2.021 . S
O10 C7 1.238 . S
O11 Co5 2.052 . S
O11 C7 1.241 . S
O12 Co0 2.137 . S
O12 C3 1.247 . S
O13 Co0 2.244 . S
O13 C3 1.272 . S
O13 Co5 2.135 . S
Co14 O15 2.216 . S
Co14 O16 2.091 . S
Co14 O18 2.004 . S
Co14 O24 2.021 . S
Co14 O26 2.137 . S
Co14 O27 2.244 . S
O15 Co14 2.216 . S
O15 C22 1.247 . S
O16 Co14 2.091 . S
O16 C22 1.261 . S
C17 O26 1.247 . S
C17 O27 1.272 . S
O18 Co14 2.004 . S
O18 C23 1.259 . S
Co19 O20 2.061 . S
Co19 O25 2.052 . S
Co19 O27 2.135 . S
O20 Co19 2.061 . S
O20 C23 1.235 . S
C21 O24 1.238 . S
C21 O25 1.241 . S
C22 O15 1.247 . S
C22 O16 1.261 . S
C23 O18 1.259 . S
C23 O20 1.235 . S
O24 Co14 2.021 . S
O24 C21 1.238 . S
O25 Co19 2.052 . S
O25 C21 1.241 . S
O26 Co14 2.137 . S
O26 C17 1.247 . S
O27 Co14 2.244 . S
O27 C17 1.272 . S
O27 Co19 2.135 . S
Co28 O29 2.216 . S
Co28 O30 2.091 . S
Co28 O32 2.004 . S
Co28 O38 2.021 . S
Co28 O40 2.137 . S
Co28 O41 2.244 . S
O29 Co28 2.216 . S
O29 C36 1.247 . S
O30 Co28 2.091 . S
O30 C36 1.261 . S
C31 O40 1.247 . S
C31 O41 1.272 . S
O32 Co28 2.004 . S
O32 C37 1.259 . S
Co33 O34 2.061 . S
Co33 O39 2.052 . S
Co33 O41 2.135 . S
O34 Co33 2.061 . S
O34 C37 1.235 . S
C35 O38 1.238 . S
C35 O39 1.241 . S
C36 O29 1.247 . S
C36 O30 1.261 . S
C37 O32 1.259 . S
C37 O34 1.235 . S
O38 Co28 2.021 . S
O38 C35 1.238 . S
O39 Co33 2.052 . S
O39 C35 1.241 . S
O40 Co28 2.137 . S
O40 C31 1.247 . S
O41 Co28 2.244 . S
O41 C31 1.272 . S
O41 Co33 2.135 . S
Co42 O43 2.216 . S
Co42 O44 2.091 . S
Co42 O46 2.004 . S
Co42 O52 2.021 . S
Co42 O54 2.137 . S
Co42 O55 2.244 . S
O43 Co42 2.216 . S
O43 C50 1.247 . S
O44 Co42 2.091 . S
O44 C50 1.261 . S
C45 O54 1.247 . S
C45 O55 1.272 . S
O46 Co42 2.004 . S
O46 C51 1.259 . S
Co47 O48 2.061 . S
Co47 O53 2.052 . S
Co47 O55 2.135 . S
O48 Co47 2.061 . S
O48 C51 1.235 . S
C49 O52 1.238 . S
C49 O53 1.241 . S
C50 O43 1.247 . S
C50 O44 1.261 . S
C51 O46 1.259 . S
C51 O48 1.235 . S
O52 Co42 2.021 . S
O52 C49 1.238 . S
O53 Co47 2.052 . S
O53 C49 1.241 . S
O54 Co42 2.137 . S
O54 C45 1.247 . S
O55 Co42 2.244 . S
O55 C45 1.272 . S
O55 Co47 2.135 . S
Co56 O57 2.216 . S
Co56 O58 2.091 . S
Co56 O60 2.004 . S
Co56 O66 2.021 . S
Co56 O68 2.137 . S
Co56 O69 2.244 . S
O57 Co56 2.216 . S
O57 C64 1.247 . S
O58 Co56 2.091 . S
O58 C64 1.261 . S
C59 O68 1.247 . S
C59 O69 1.272 . S
O60 Co56 2.004 . S
O60 C65 1.259 . S
Co61 O62 2.061 . S
Co61 O67 2.052 . S
Co61 O69 2.135 . S
O62 Co61 2.061 . S
O62 C65 1.235 . S
C63 O66 1.238 . S
C63 O67 1.241 . S
C64 O57 1.247 . S
C64 O58 1.261 . S
C65 O60 1.259 . S
C65 O62 1.235 . S
O66 Co56 2.021 . S
O66 C63 1.238 . S
O67 Co61 2.052 . S
O67 C63 1.241 . S
O68 Co56 2.137 . S
O68 C59 1.247 . S
O69 Co56 2.244 . S
O69 C59 1.272 . S
O69 Co61 2.135 . S
Co70 O71 2.216 . S
Co70 O72 2.091 . S
Co70 O74 2.004 . S
Co70 O80 2.021 . S
Co70 O82 2.137 . S
Co70 O83 2.244 . S
O71 Co70 2.216 . S
O71 C78 1.247 . S
O72 Co70 2.091 . S
O72 C78 1.261 . S
C73 O82 1.247 . S
C73 O83 1.272 . S
O74 Co70 2.004 . S
O74 C79 1.259 . S
Co75 O76 2.061 . S
Co75 O81 2.052 . S
Co75 O83 2.135 . S
O76 Co75 2.061 . S
O76 C79 1.235 . S
C77 O80 1.238 . S
C77 O81 1.241 . S
C78 O71 1.247 . S
C78 O72 1.261 . S
C79 O74 1.259 . S
C79 O76 1.235 . S
O80 Co70 2.021 . S
O80 C77 1.238 . S
O81 Co75 2.052 . S
O81 C77 1.241 . S
O82 Co70 2.137 . S
O82 C73 1.247 . S
O83 Co70 2.244 . S
O83 C73 1.272 . S
O83 Co75 2.135 . S
H84 C102 0.951 . S
H85 C104 0.951 . S
H86 C106 0.950 . S
H87 C107 0.950 . S
H88 C109 0.950 . S
H89 C112 0.950 . S
H90 C113 0.950 . S
H91 C115 0.950 . S
H92 C116 0.950 . S
H93 C117 0.951 . S
H94 C119 0.951 . S
H95 C121 0.950 . S
H96 C122 0.950 . S
H97 C124 0.950 . S
H98 C127 0.950 . S
H99 C128 0.950 . S
H100 C130 0.950 . S
H101 C131 0.950 . S
C102 H84 0.951 . S
C102 C103 1.366 . S
C102 C104 1.388 . S
C103 C102 1.366 . S
C103 C107 1.385 . S
C104 H85 0.951 . S
C104 C102 1.388 . S
C104 C105 1.366 . S
C105 C104 1.366 . S
C105 C106 1.414 . S
C105 C108 1.499 . S
C106 H86 0.950 . S
C106 C105 1.414 . S
C106 C107 1.374 . S
C107 H87 0.950 . S
C107 C103 1.385 . S
C107 C106 1.374 . S
C108 C105 1.499 . S
C108 C109 1.373 . S
C108 C110 1.389 . S
C109 H88 0.950 . S
C109 C108 1.373 . S
C109 C125 1.377 . S
C110 C108 1.389 . S
C110 C111 1.524 . S
C110 C124 1.377 . S
C111 C110 1.524 . S
C111 C112 1.397 . S
C111 C116 1.363 . S
C112 H89 0.950 . S
C112 C111 1.397 . S
C112 C113 1.334 . S
C113 H90 0.950 . S
C113 C112 1.334 . S
C113 C114 1.287 . S
C114 C113 1.287 . S
C114 C115 1.524 . S
C114 H133 0.913 . S
C115 H91 0.950 . S
C115 C114 1.524 . S
C115 C116 1.415 . S
C116 H92 0.950 . S
C116 C111 1.363 . S
C116 C115 1.415 . S
C117 H93 0.951 . S
C117 C118 1.366 . S
C117 C119 1.388 . S
C118 C117 1.366 . S
C118 C122 1.385 . S
C119 H94 0.951 . S
C119 C117 1.388 . S
C119 C120 1.366 . S
C120 C119 1.366 . S
C120 C121 1.414 . S
C120 C123 1.499 . S
C121 H95 0.950 . S
C121 C120 1.414 . S
C121 C122 1.374 . S
C122 H96 0.950 . S
C122 C118 1.385 . S
C122 C121 1.374 . S
C123 C120 1.499 . S
C123 C124 1.373 . S
C123 C125 1.389 . S
C124 H97 0.950 . S
C124 C110 1.377 . S
C124 C123 1.373 . S
C125 C109 1.377 . S
C125 C123 1.389 . S
C125 C126 1.524 . S
C126 C125 1.524 . S
C126 C127 1.397 . S
C126 C131 1.363 . S
C127 H98 0.950 . S
C127 C126 1.397 . S
C127 C128 1.334 . S
C128 H99 0.950 . S
C128 C127 1.334 . S
C128 C129 1.287 . S
C129 C128 1.287 . S
C129 C130 1.524 . S
C129 H132 0.999 . S
C130 H100 0.950 . S
C130 C129 1.524 . S
C130 C131 1.415 . S
C131 H101 0.950 . S
C131 C126 1.363 . S
C131 C130 1.415 . S
H132 C129 0.999 . S
H133 C114 0.913 . S
H134 C152 0.951 . S
H135 C154 0.951 . S
H136 C156 0.950 . S
H137 C157 0.950 . S
H138 C159 0.950 . S
H139 C162 0.950 . S
H140 C163 0.950 . S
H141 C165 0.950 . S
H142 C166 0.950 . S
H143 C167 0.951 . S
H144 C169 0.951 . S
H145 C171 0.950 . S
H146 C172 0.950 . S
H147 C174 0.950 . S
H148 C177 0.950 . S
H149 C178 0.950 . S
H150 C180 0.950 . S
H151 C181 0.950 . S
C152 H134 0.951 . S
C152 C153 1.366 . S
C152 C154 1.388 . S
C153 C152 1.366 . S
C153 C157 1.385 . S
C154 H135 0.951 . S
C154 C152 1.388 . S
C154 C155 1.366 . S
C155 C154 1.366 . S
C155 C156 1.414 . S
C155 C158 1.499 . S
C156 H136 0.950 . S
C156 C155 1.414 . S
C156 C157 1.374 . S
C157 H137 0.950 . S
C157 C153 1.385 . S
C157 C156 1.374 . S
C158 C155 1.499 . S
C158 C159 1.373 . S
C158 C160 1.389 . S
C159 H138 0.950 . S
C159 C158 1.373 . S
C159 C175 1.377 . S
C160 C158 1.389 . S
C160 C161 1.524 . S
C160 C174 1.377 . S
C161 C160 1.524 . S
C161 C162 1.397 . S
C161 C166 1.363 . S
C162 H139 0.950 . S
C162 C161 1.397 . S
C162 C163 1.334 . S
C163 H140 0.950 . S
C163 C162 1.334 . S
C163 C164 1.287 . S
C164 C163 1.287 . S
C164 C165 1.524 . S
C164 H183 0.913 . S
C165 H141 0.950 . S
C165 C164 1.524 . S
C165 C166 1.415 . S
C166 H142 0.950 . S
C166 C161 1.363 . S
C166 C165 1.415 . S
C167 H143 0.951 . S
C167 C168 1.366 . S
C167 C169 1.388 . S
C168 C167 1.366 . S
C168 C172 1.385 . S
C169 H144 0.951 . S
C169 C167 1.388 . S
C169 C170 1.366 . S
C170 C169 1.366 . S
C170 C171 1.414 . S
C170 C173 1.499 . S
C171 H145 0.950 . S
C171 C170 1.414 . S
C171 C172 1.374 . S
C172 H146 0.950 . S
C172 C168 1.385 . S
C172 C171 1.374 . S
C173 C170 1.499 . S
C173 C174 1.373 . S
C173 C175 1.389 . S
C174 H147 0.950 . S
C174 C160 1.377 . S
C174 C173 1.373 . S
C175 C159 1.377 . S
C175 C173 1.389 . S
C175 C176 1.524 . S
C176 C175 1.524 . S
C176 C177 1.397 . S
C176 C181 1.363 . S
C177 H148 0.950 . S
C177 C176 1.397 . S
C177 C178 1.334 . S
C178 H149 0.950 . S
C178 C177 1.334 . S
C178 C179 1.287 . S
C179 C178 1.287 . S
C179 C180 1.524 . S
C179 H182 0.999 . S
C180 H150 0.950 . S
C180 C179 1.524 . S
C180 C181 1.415 . S
C181 H151 0.950 . S
C181 C176 1.363 . S
C181 C180 1.415 . S
H182 C179 0.999 . S
H183 C164 0.913 . S
H184 C202 0.951 . S
H185 C204 0.951 . S
H186 C206 0.950 . S
H187 C207 0.950 . S
H188 C209 0.950 . S
H189 C212 0.950 . S
H190 C213 0.950 . S
H191 C215 0.950 . S
H192 C216 0.950 . S
H193 C217 0.951 . S
H194 C219 0.951 . S
H195 C221 0.950 . S
H196 C222 0.950 . S
H197 C224 0.950 . S
H198 C227 0.950 . S
H199 C228 0.950 . S
H200 C230 0.950 . S
H201 C231 0.950 . S
C202 H184 0.951 . S
C202 C203 1.366 . S
C202 C204 1.388 . S
C203 C202 1.366 . S
C203 C207 1.385 . S
C204 H185 0.951 . S
C204 C202 1.388 . S
C204 C205 1.366 . S
C205 C204 1.366 . S
C205 C206 1.414 . S
C205 C208 1.499 . S
C206 H186 0.950 . S
C206 C205 1.414 . S
C206 C207 1.374 . S
C207 H187 0.950 . S
C207 C203 1.385 . S
C207 C206 1.374 . S
C208 C205 1.499 . S
C208 C209 1.373 . S
C208 C210 1.389 . S
C209 H188 0.950 . S
C209 C208 1.373 . S
C209 C225 1.377 . S
C210 C208 1.389 . S
C210 C211 1.524 . S
C210 C224 1.377 . S
C211 C210 1.524 . S
C211 C212 1.397 . S
C211 C216 1.363 . S
C212 H189 0.950 . S
C212 C211 1.397 . S
C212 C213 1.334 . S
C213 H190 0.950 . S
C213 C212 1.334 . S
C213 C214 1.287 . S
C214 C213 1.287 . S
C214 C215 1.524 . S
C214 H233 0.913 . S
C215 H191 0.950 . S
C215 C214 1.524 . S
C215 C216 1.415 . S
C216 H192 0.950 . S
C216 C211 1.363 . S
C216 C215 1.415 . S
C217 H193 0.951 . S
C217 C218 1.366 . S
C217 C219 1.388 . S
C218 C217 1.366 . S
C218 C222 1.385 . S
C219 H194 0.951 . S
C219 C217 1.388 . S
C219 C220 1.366 . S
C220 C219 1.366 . S
C220 C221 1.414 . S
C220 C223 1.499 . S
C221 H195 0.950 . S
C221 C220 1.414 . S
C221 C222 1.374 . S
C222 H196 0.950 . S
C222 C218 1.385 . S
C222 C221 1.374 . S
C223 C220 1.499 . S
C223 C224 1.373 . S
C223 C225 1.389 . S
C224 H197 0.950 . S
C224 C210 1.377 . S
C224 C223 1.373 . S
C225 C209 1.377 . S
C225 C223 1.389 . S
C225 C226 1.524 . S
C226 C225 1.524 . S
C226 C227 1.397 . S
C226 C231 1.363 . S
C227 H198 0.950 . S
C227 C226 1.397 . S
C227 C228 1.334 . S
C228 H199 0.950 . S
C228 C227 1.334 . S
C228 C229 1.287 . S
C229 C228 1.287 . S
C229 C230 1.524 . S
C229 H232 0.999 . S
C230 H200 0.950 . S
C230 C229 1.524 . S
C230 C231 1.415 . S
C231 H201 0.950 . S
C231 C226 1.363 . S
C231 C230 1.415 . S
H232 C229 0.999 . S
H233 C214 0.913 . S
H234 C252 0.951 . S
H235 C254 0.951 . S
H236 C256 0.950 . S
H237 C257 0.950 . S
H238 C259 0.950 . S
H239 C262 0.950 . S
H240 C263 0.950 . S
H241 C265 0.950 . S
H242 C266 0.950 . S
H243 C267 0.951 . S
H244 C269 0.951 . S
H245 C271 0.950 . S
H246 C272 0.950 . S
H247 C274 0.950 . S
H248 C277 0.950 . S
H249 C278 0.950 . S
H250 C280 0.950 . S
H251 C281 0.950 . S
C252 H234 0.951 . S
C252 C253 1.366 . S
C252 C254 1.388 . S
C253 C252 1.366 . S
C253 C257 1.385 . S
C254 H235 0.951 . S
C254 C252 1.388 . S
C254 C255 1.366 . S
C255 C254 1.366 . S
C255 C256 1.414 . S
C255 C258 1.499 . S
C256 H236 0.950 . S
C256 C255 1.414 . S
C256 C257 1.374 . S
C257 H237 0.950 . S
C257 C253 1.385 . S
C257 C256 1.374 . S
C258 C255 1.499 . S
C258 C259 1.373 . S
C258 C260 1.389 . S
C259 H238 0.950 . S
C259 C258 1.373 . S
C259 C275 1.377 . S
C260 C258 1.389 . S
C260 C261 1.524 . S
C260 C274 1.377 . S
C261 C260 1.524 . S
C261 C262 1.397 . S
C261 C266 1.363 . S
C262 H239 0.950 . S
C262 C261 1.397 . S
C262 C263 1.334 . S
C263 H240 0.950 . S
C263 C262 1.334 . S
C263 C264 1.287 . S
C264 C263 1.287 . S
C264 C265 1.524 . S
C264 H283 0.913 . S
C265 H241 0.950 . S
C265 C264 1.524 . S
C265 C266 1.415 . S
C266 H242 0.950 . S
C266 C261 1.363 . S
C266 C265 1.415 . S
C267 H243 0.951 . S
C267 C268 1.366 . S
C267 C269 1.388 . S
C268 C267 1.366 . S
C268 C272 1.385 . S
C269 H244 0.951 . S
C269 C267 1.388 . S
C269 C270 1.366 . S
C270 C269 1.366 . S
C270 C271 1.414 . S
C270 C273 1.499 . S
C271 H245 0.950 . S
C271 C270 1.414 . S
C271 C272 1.374 . S
C272 H246 0.950 . S
C272 C268 1.385 . S
C272 C271 1.374 . S
C273 C270 1.499 . S
C273 C274 1.373 . S
C273 C275 1.389 . S
C274 H247 0.950 . S
C274 C260 1.377 . S
C274 C273 1.373 . S
C275 C259 1.377 . S
C275 C273 1.389 . S
C275 C276 1.524 . S
C276 C275 1.524 . S
C276 C277 1.397 . S
C276 C281 1.363 . S
C277 H248 0.950 . S
C277 C276 1.397 . S
C277 C278 1.334 . S
C278 H249 0.950 . S
C278 C277 1.334 . S
C278 C279 1.287 . S
C279 C278 1.287 . S
C279 C280 1.524 . S
C279 H282 0.999 . S
C280 H250 0.950 . S
C280 C279 1.524 . S
C280 C281 1.415 . S
C281 H251 0.950 . S
C281 C276 1.363 . S
C281 C280 1.415 . S
H282 C279 0.999 . S
H283 C264 0.913 . S
H284 C302 0.951 . S
H285 C304 0.951 . S
H286 C306 0.950 . S
H287 C307 0.950 . S
H288 C309 0.950 . S
H289 C312 0.950 . S
H290 C313 0.950 . S
H291 C315 0.950 . S
H292 C316 0.950 . S
H293 C317 0.951 . S
H294 C319 0.951 . S
H295 C321 0.950 . S
H296 C322 0.950 . S
H297 C324 0.950 . S
H298 C327 0.950 . S
H299 C328 0.950 . S
H300 C330 0.950 . S
H301 C331 0.950 . S
C302 H284 0.951 . S
C302 C303 1.366 . S
C302 C304 1.388 . S
C303 C302 1.366 . S
C303 C307 1.385 . S
C304 H285 0.951 . S
C304 C302 1.388 . S
C304 C305 1.366 . S
C305 C304 1.366 . S
C305 C306 1.414 . S
C305 C308 1.499 . S
C306 H286 0.950 . S
C306 C305 1.414 . S
C306 C307 1.374 . S
C307 H287 0.950 . S
C307 C303 1.385 . S
C307 C306 1.374 . S
C308 C305 1.499 . S
C308 C309 1.373 . S
C308 C310 1.389 . S
C309 H288 0.950 . S
C309 C308 1.373 . S
C309 C325 1.377 . S
C310 C308 1.389 . S
C310 C311 1.524 . S
C310 C324 1.377 . S
C311 C310 1.524 . S
C311 C312 1.397 . S
C311 C316 1.363 . S
C312 H289 0.950 . S
C312 C311 1.397 . S
C312 C313 1.334 . S
C313 H290 0.950 . S
C313 C312 1.334 . S
C313 C314 1.287 . S
C314 C313 1.287 . S
C314 C315 1.524 . S
C314 H333 0.913 . S
C315 H291 0.950 . S
C315 C314 1.524 . S
C315 C316 1.415 . S
C316 H292 0.950 . S
C316 C311 1.363 . S
C316 C315 1.415 . S
C317 H293 0.951 . S
C317 C318 1.366 . S
C317 C319 1.388 . S
C318 C317 1.366 . S
C318 C322 1.385 . S
C319 H294 0.951 . S
C319 C317 1.388 . S
C319 C320 1.366 . S
C320 C319 1.366 . S
C320 C321 1.414 . S
C320 C323 1.499 . S
C321 H295 0.950 . S
C321 C320 1.414 . S
C321 C322 1.374 . S
C322 H296 0.950 . S
C322 C318 1.385 . S
C322 C321 1.374 . S
C323 C320 1.499 . S
C323 C324 1.373 . S
C323 C325 1.389 . S
C324 H297 0.950 . S
C324 C310 1.377 . S
C324 C323 1.373 . S
C325 C309 1.377 . S
C325 C323 1.389 . S
C325 C326 1.524 . S
C326 C325 1.524 . S
C326 C327 1.397 . S
C326 C331 1.363 . S
C327 H298 0.950 . S
C327 C326 1.397 . S
C327 C328 1.334 . S
C328 H299 0.950 . S
C328 C327 1.334 . S
C328 C329 1.287 . S
C329 C328 1.287 . S
C329 C330 1.524 . S
C329 H332 0.999 . S
C330 H300 0.950 . S
C330 C329 1.524 . S
C330 C331 1.415 . S
C331 H301 0.950 . S
C331 C326 1.363 . S
C331 C330 1.415 . S
H332 C329 0.999 . S
H333 C314 0.913 . S
H334 C352 0.951 . S
H335 C354 0.951 . S
H336 C356 0.950 . S
H337 C357 0.950 . S
H338 C359 0.950 . S
H339 C362 0.950 . S
H340 C363 0.950 . S
H341 C365 0.950 . S
H342 C366 0.950 . S
H343 C367 0.951 . S
H344 C369 0.951 . S
H345 C371 0.950 . S
H346 C372 0.950 . S
H347 C374 0.950 . S
H348 C377 0.950 . S
H349 C378 0.950 . S
H350 C380 0.950 . S
H351 C381 0.950 . S
C352 H334 0.951 . S
C352 C353 1.366 . S
C352 C354 1.388 . S
C353 C352 1.366 . S
C353 C357 1.385 . S
C354 H335 0.951 . S
C354 C352 1.388 . S
C354 C355 1.366 . S
C355 C354 1.366 . S
C355 C356 1.414 . S
C355 C358 1.499 . S
C356 H336 0.950 . S
C356 C355 1.414 . S
C356 C357 1.374 . S
C357 H337 0.950 . S
C357 C353 1.385 . S
C357 C356 1.374 . S
C358 C355 1.499 . S
C358 C359 1.373 . S
C358 C360 1.389 . S
C359 H338 0.950 . S
C359 C358 1.373 . S
C359 C375 1.377 . S
C360 C358 1.389 . S
C360 C361 1.524 . S
C360 C374 1.377 . S
C361 C360 1.524 . S
C361 C362 1.397 . S
C361 C366 1.363 . S
C362 H339 0.950 . S
C362 C361 1.397 . S
C362 C363 1.334 . S
C363 H340 0.950 . S
C363 C362 1.334 . S
C363 C364 1.287 . S
C364 C363 1.287 . S
C364 C365 1.524 . S
C364 H383 0.913 . S
C365 H341 0.950 . S
C365 C364 1.524 . S
C365 C366 1.415 . S
C366 H342 0.950 . S
C366 C361 1.363 . S
C366 C365 1.415 . S
C367 H343 0.951 . S
C367 C368 1.366 . S
C367 C369 1.388 . S
C368 C367 1.366 . S
C368 C372 1.385 . S
C369 H344 0.951 . S
C369 C367 1.388 . S
C369 C370 1.366 . S
C370 C369 1.366 . S
C370 C371 1.414 . S
C370 C373 1.499 . S
C371 H345 0.950 . S
C371 C370 1.414 . S
C371 C372 1.374 . S
C372 H346 0.950 . S
C372 C368 1.385 . S
C372 C371 1.374 . S
C373 C370 1.499 . S
C373 C374 1.373 . S
C373 C375 1.389 . S
C374 H347 0.950 . S
C374 C360 1.377 . S
C374 C373 1.373 . S
C375 C359 1.377 . S
C375 C373 1.389 . S
C375 C376 1.524 . S
C376 C375 1.524 . S
C376 C377 1.397 . S
C376 C381 1.363 . S
C377 H348 0.950 . S
C377 C376 1.397 . S
C377 C378 1.334 . S
C378 H349 0.950 . S
C378 C377 1.334 . S
C378 C379 1.287 . S
C379 C378 1.287 . S
C379 C380 1.524 . S
C379 H382 0.999 . S
C380 H350 0.950 . S
C380 C379 1.524 . S
C380 C381 1.415 . S
C381 H351 0.950 . S
C381 C376 1.363 . S
C381 C380 1.415 . S
H382 C379 0.999 . S
H383 C364 0.913 . S
H384 C402 0.951 . S
H385 C404 0.951 . S
H386 C406 0.950 . S
H387 C407 0.950 . S
H388 C409 0.950 . S
H389 C412 0.950 1_556 S
H390 C413 0.950 . S
H391 C415 0.950 . S
H392 C416 0.950 . S
H393 C417 0.951 . S
H394 C419 0.951 . S
H395 C421 0.950 . S
H396 C422 0.950 . S
H397 C424 0.950 . S
H398 C427 0.950 1_554 S
H399 C428 0.950 . S
H400 C430 0.950 . S
H401 C431 0.950 . S
C402 H384 0.951 . S
C402 C403 1.366 . S
C402 C404 1.388 . S
C403 C402 1.366 . S
C403 C407 1.385 . S
C404 H385 0.951 . S
C404 C402 1.388 . S
C404 C405 1.366 . S
C405 C404 1.366 . S
C405 C406 1.414 . S
C405 C408 1.499 . S
C406 H386 0.950 . S
C406 C405 1.414 . S
C406 C407 1.374 . S
C407 H387 0.950 . S
C407 C403 1.385 . S
C407 C406 1.374 . S
C408 C405 1.499 . S
C408 C409 1.373 1_565 S
C408 C410 1.389 1_556 S
C409 H388 0.950 . S
C409 C408 1.373 1_545 S
C409 C425 1.377 . S
C410 C408 1.389 1_554 S
C410 C411 1.524 . S
C410 C424 1.377 . S
C411 C410 1.524 . S
C411 C412 1.397 . S
C411 C416 1.363 . S
C412 H389 0.950 1_554 S
C412 C411 1.397 . S
C412 C413 1.334 . S
C413 H390 0.950 . S
C413 C412 1.334 . S
C413 C414 1.287 . S
C414 C413 1.287 . S
C414 C415 1.524 . S
C414 H433 0.913 . S
C415 H391 0.950 . S
C415 C414 1.524 . S
C415 C416 1.415 . S
C416 H392 0.950 . S
C416 C411 1.363 . S
C416 C415 1.415 . S
C417 H393 0.951 . S
C417 C418 1.366 . S
C417 C419 1.388 . S
C418 C417 1.366 . S
C418 C422 1.385 . S
C419 H394 0.951 . S
C419 C417 1.388 . S
C419 C420 1.366 . S
C420 C419 1.366 . S
C420 C421 1.414 . S
C420 C423 1.499 . S
C421 H395 0.950 . S
C421 C420 1.414 . S
C421 C422 1.374 . S
C422 H396 0.950 . S
C422 C418 1.385 . S
C422 C421 1.374 . S
C423 C420 1.499 . S
C423 C424 1.373 1_545 S
C423 C425 1.389 1_554 S
C424 H397 0.950 . S
C424 C410 1.377 . S
C424 C423 1.373 1_565 S
C425 C409 1.377 . S
C425 C423 1.389 1_556 S
C425 C426 1.524 . S
C426 C425 1.524 . S
C426 C427 1.397 . S
C426 C431 1.363 . S
C427 H398 0.950 1_556 S
C427 C426 1.397 . S
C427 C428 1.334 . S
C428 H399 0.950 . S
C428 C427 1.334 . S
C428 C429 1.287 . S
C429 C428 1.287 . S
C429 C430 1.524 . S
C429 H432 0.999 . S
C430 H400 0.950 . S
C430 C429 1.524 . S
C430 C431 1.415 . S
C431 H401 0.950 . S
C431 C426 1.363 . S
C431 C430 1.415 . S
H432 C429 0.999 . S
H433 C414 0.913 . S
H434 C452 0.951 . S
H435 C454 0.951 . S
H436 C456 0.950 . S
H437 C457 0.950 . S
H438 C459 0.950 . S
H439 C462 0.950 . S
H440 C463 0.950 . S
H441 C465 0.950 . S
H442 C466 0.950 . S
H443 C467 0.951 . S
H444 C469 0.951 . S
H445 C471 0.950 . S
H446 C472 0.950 . S
H447 C474 0.950 . S
H448 C477 0.950 . S
H449 C478 0.950 . S
H450 C480 0.950 . S
H451 C481 0.950 . S
C452 H434 0.951 . S
C452 C453 1.366 . S
C452 C454 1.388 . S
C453 C452 1.366 . S
C453 C457 1.385 . S
C454 H435 0.951 . S
C454 C452 1.388 . S
C454 C455 1.366 . S
C455 C454 1.366 . S
C455 C456 1.414 . S
C455 C458 1.499 . S
C456 H436 0.950 . S
C456 C455 1.414 . S
C456 C457 1.374 . S
C457 H437 0.950 . S
C457 C453 1.385 . S
C457 C456 1.374 . S
C458 C455 1.499 . S
C458 C459 1.373 . S
C458 C460 1.389 . S
C459 H438 0.950 . S
C459 C458 1.373 . S
C459 C475 1.377 . S
C460 C458 1.389 . S
C460 C461 1.524 . S
C460 C474 1.377 . S
C461 C460 1.524 . S
C461 C462 1.397 . S
C461 C466 1.363 . S
C462 H439 0.950 . S
C462 C461 1.397 . S
C462 C463 1.334 . S
C463 H440 0.950 . S
C463 C462 1.334 . S
C463 C464 1.287 . S
C464 C463 1.287 . S
C464 C465 1.524 . S
C464 H483 0.913 . S
C465 H441 0.950 . S
C465 C464 1.524 . S
C465 C466 1.415 . S
C466 H442 0.950 . S
C466 C461 1.363 . S
C466 C465 1.415 . S
C467 H443 0.951 . S
C467 C468 1.366 . S
C467 C469 1.388 . S
C468 C467 1.366 . S
C468 C472 1.385 . S
C469 H444 0.951 . S
C469 C467 1.388 . S
C469 C470 1.366 . S
C470 C469 1.366 . S
C470 C471 1.414 . S
C470 C473 1.499 . S
C471 H445 0.950 . S
C471 C470 1.414 . S
C471 C472 1.374 . S
C472 H446 0.950 . S
C472 C468 1.385 . S
C472 C471 1.374 . S
C473 C470 1.499 . S
C473 C474 1.373 . S
C473 C475 1.389 . S
C474 H447 0.950 . S
C474 C460 1.377 . S
C474 C473 1.373 . S
C475 C459 1.377 . S
C475 C473 1.389 . S
C475 C476 1.524 . S
C476 C475 1.524 . S
C476 C477 1.397 . S
C476 C481 1.363 . S
C477 H448 0.950 . S
C477 C476 1.397 . S
C477 C478 1.334 . S
C478 H449 0.950 . S
C478 C477 1.334 . S
C478 C479 1.287 . S
C479 C478 1.287 . S
C479 C480 1.524 . S
C479 H482 0.999 . S
C480 H450 0.950 . S
C480 C479 1.524 . S
C480 C481 1.415 . S
C481 H451 0.950 . S
C481 C476 1.363 . S
C481 C480 1.415 . S
H482 C479 0.999 . S
H483 C464 0.913 . S
H484 C502 0.951 . S
H485 C504 0.951 . S
H486 C506 0.950 . S
H487 C507 0.950 . S
H488 C509 0.950 . S
H489 C512 0.950 . S
H490 C513 0.968 . S
H491 C515 0.950 . S
H492 C516 0.950 . S
H493 C517 0.951 . S
H494 C519 0.951 . S
H495 C521 0.950 . S
H496 C522 0.950 . S
H497 C524 0.950 . S
H498 C527 0.950 . S
H499 C528 0.950 . S
H500 C530 0.950 . S
H501 C531 0.950 . S
C502 H484 0.951 . S
C502 C503 1.366 . S
C502 C504 1.388 . S
C503 C502 1.366 . S
C503 C507 1.385 . S
C504 H485 0.951 . S
C504 C502 1.388 . S
C504 C505 1.366 . S
C505 C504 1.366 . S
C505 C506 1.414 . S
C505 C508 1.499 . S
C506 H486 0.950 . S
C506 C505 1.414 . S
C506 C507 1.374 . S
C507 H487 0.950 . S
C507 C503 1.385 . S
C507 C506 1.374 . S
C508 C505 1.499 . S
C508 C509 1.373 1_455 S
C508 C510 1.389 1_556 S
C509 H488 0.950 . S
C509 C508 1.373 1_655 S
C509 C525 1.377 1_556 S
C510 C508 1.389 1_554 S
C510 C511 1.524 . S
C510 C524 1.377 . S
C511 C510 1.524 . S
C511 C512 1.397 1_554 S
C511 C516 1.363 . S
C512 H489 0.950 . S
C512 C511 1.397 1_556 S
C512 C513 1.336 . S
C513 H490 0.968 . S
C513 C512 1.336 . S
C513 C514 1.267 1_556 S
C514 C513 1.267 1_554 S
C514 C515 1.524 . S
C514 H533 0.913 . S
C515 H491 0.950 . S
C515 C514 1.524 . S
C515 C516 1.415 . S
C516 H492 0.950 . S
C516 C511 1.363 . S
C516 C515 1.415 . S
C517 H493 0.951 . S
C517 C518 1.366 . S
C517 C519 1.388 . S
C518 C517 1.366 . S
C518 C522 1.385 . S
C519 H494 0.951 . S
C519 C517 1.388 . S
C519 C520 1.366 . S
C520 C519 1.366 . S
C520 C521 1.414 . S
C520 C523 1.499 . S
C521 H495 0.950 . S
C521 C520 1.414 . S
C521 C522 1.374 . S
C522 H496 0.950 . S
C522 C518 1.385 . S
C522 C521 1.374 . S
C523 C520 1.499 . S
C523 C524 1.373 1_655 S
C523 C525 1.389 . S
C524 H497 0.950 . S
C524 C510 1.377 . S
C524 C523 1.373 1_455 S
C525 C509 1.377 1_554 S
C525 C523 1.389 . S
C525 C526 1.524 . S
C526 C525 1.524 . S
C526 C527 1.397 . S
C526 C531 1.363 1_554 S
C527 H498 0.950 . S
C527 C526 1.397 . S
C527 C528 1.334 . S
C528 H499 0.950 . S
C528 C527 1.334 . S
C528 C529 1.287 1_554 S
C529 C528 1.287 1_556 S
C529 C530 1.524 . S
C529 H532 0.999 . S
C530 H500 0.950 . S
C530 C529 1.524 . S
C530 C531 1.415 . S
C531 H501 0.950 . S
C531 C526 1.363 1_556 S
C531 C530 1.415 . S
H532 C529 0.999 . S
H533 C514 0.913 . S
H534 C552 0.951 . S
H535 C554 0.951 . S
H536 C556 0.950 . S
H537 C557 0.950 . S
H538 C559 0.950 . S
H539 C562 0.950 . S
H540 C563 0.950 . S
H541 C565 0.944 1_565 S
H542 C566 0.950 . S
H543 C567 0.951 . S
H544 C569 0.951 . S
H545 C571 0.950 . S
H546 C572 0.950 . S
H547 C574 0.950 . S
H548 C577 0.950 . S
H549 C578 0.950 . S
H550 C580 0.944 1_545 S
H551 C581 0.950 . S
C552 H534 0.951 . S
C552 C553 1.366 . S
C552 C554 1.388 . S
C553 C552 1.366 . S
C553 C557 1.385 . S
C554 H535 0.951 . S
C554 C552 1.388 . S
C554 C555 1.366 . S
C555 C554 1.366 . S
C555 C556 1.414 . S
C555 C558 1.499 . S
C556 H536 0.950 . S
C556 C555 1.414 . S
C556 C557 1.374 . S
C557 H537 0.950 . S
C557 C553 1.385 . S
C557 C556 1.374 . S
C558 C555 1.499 . S
C558 C559 1.373 . S
C558 C560 1.389 . S
C559 H538 0.950 . S
C559 C558 1.373 . S
C559 C575 1.377 1_545 S
C560 C558 1.389 . S
C560 C561 1.524 . S
C560 C574 1.377 1_545 S
C561 C560 1.524 . S
C561 C562 1.397 . S
C561 C566 1.363 1_545 S
C562 H539 0.950 . S
C562 C561 1.397 . S
C562 C563 1.334 . S
C563 H540 0.950 . S
C563 C562 1.334 . S
C563 C564 1.287 . S
C564 C563 1.287 . S
C564 C565 1.550 . S
C564 H583 0.913 . S
C565 H541 0.944 1_545 S
C565 C564 1.550 . S
C565 C566 1.396 1_545 S
C566 H542 0.950 . S
C566 C561 1.363 1_565 S
C566 C565 1.396 1_565 S
C567 H543 0.951 . S
C567 C568 1.366 . S
C567 C569 1.388 . S
C568 C567 1.366 . S
C568 C572 1.385 . S
C569 H544 0.951 . S
C569 C567 1.388 . S
C569 C570 1.366 . S
C570 C569 1.366 . S
C570 C571 1.414 . S
C570 C573 1.499 . S
C571 H545 0.950 . S
C571 C570 1.414 . S
C571 C572 1.374 . S
C572 H546 0.950 . S
C572 C568 1.385 . S
C572 C571 1.374 . S
C573 C570 1.499 . S
C573 C574 1.373 . S
C573 C575 1.389 . S
C574 H547 0.950 . S
C574 C560 1.377 1_565 S
C574 C573 1.373 . S
C575 C559 1.377 1_565 S
C575 C573 1.389 . S
C575 C576 1.524 . S
C576 C575 1.524 . S
C576 C577 1.397 . S
C576 C581 1.363 1_565 S
C577 H548 0.950 . S
C577 C576 1.397 . S
C577 C578 1.334 . S
C578 H549 0.950 . S
C578 C577 1.334 . S
C578 C579 1.287 . S
C579 C578 1.287 . S
C579 C580 1.550 . S
C579 H582 0.999 . S
C580 H550 0.944 1_565 S
C580 C579 1.550 . S
C580 C581 1.395 1_565 S
C581 H551 0.950 . S
C581 C576 1.363 1_545 S
C581 C580 1.395 1_545 S
H582 C579 0.999 . S
H583 C564 0.913 . S
H584 C602 0.951 . S
H585 C604 0.951 . S
H586 C606 0.950 . S
H587 C607 0.950 . S
H588 C609 0.950 . S
H589 C612 0.950 . S
H590 C613 0.950 . S
H591 C615 0.950 . S
H592 C616 0.950 . S
H593 C617 0.951 . S
H594 C619 0.951 . S
H595 C621 0.950 . S
H596 C622 0.950 . S
H597 C624 0.950 . S
H598 C627 0.950 . S
H599 C628 0.950 . S
H600 C630 0.950 . S
H601 C631 0.950 . S
C602 H584 0.951 . S
C602 C603 1.366 . S
C602 C604 1.388 . S
C603 C602 1.366 . S
C603 C607 1.385 . S
C604 H585 0.951 . S
C604 C602 1.388 . S
C604 C605 1.366 . S
C605 C604 1.366 . S
C605 C606 1.414 . S
C605 C608 1.499 . S
C606 H586 0.950 . S
C606 C605 1.414 . S
C606 C607 1.374 . S
C607 H587 0.950 . S
C607 C603 1.385 . S
C607 C606 1.374 . S
C608 C605 1.499 . S
C608 C609 1.373 . S
C608 C610 1.389 . S
C609 H588 0.950 . S
C609 C608 1.373 . S
C609 C625 1.377 1_556 S
C610 C608 1.389 . S
C610 C611 1.524 . S
C610 C624 1.377 . S
C611 C610 1.524 . S
C611 C612 1.397 . S
C611 C616 1.363 . S
C612 H589 0.950 . S
C612 C611 1.397 . S
C612 C613 1.334 . S
C613 H590 0.950 . S
C613 C612 1.334 . S
C613 C614 1.287 . S
C614 C613 1.287 . S
C614 C615 1.524 . S
C614 H633 0.913 . S
C615 H591 0.950 . S
C615 C614 1.524 . S
C615 C616 1.415 . S
C616 H592 0.950 . S
C616 C611 1.363 . S
C616 C615 1.415 . S
C617 H593 0.951 . S
C617 C618 1.366 . S
C617 C619 1.388 . S
C618 C617 1.366 . S
C618 C622 1.385 . S
C619 H594 0.951 . S
C619 C617 1.388 . S
C619 C620 1.366 . S
C620 C619 1.366 . S
C620 C621 1.414 . S
C620 C623 1.499 . S
C621 H595 0.950 . S
C621 C620 1.414 . S
C621 C622 1.374 . S
C622 H596 0.950 . S
C622 C618 1.385 . S
C622 C621 1.374 . S
C623 C620 1.499 . S
C623 C624 1.373 1_554 S
C623 C625 1.389 . S
C624 H597 0.950 . S
C624 C610 1.377 . S
C624 C623 1.373 1_556 S
C625 C609 1.377 1_554 S
C625 C623 1.389 . S
C625 C626 1.524 . S
C626 C625 1.524 . S
C626 C627 1.397 . S
C626 C631 1.363 . S
C627 H598 0.950 . S
C627 C626 1.397 . S
C627 C628 1.334 . S
C628 H599 0.950 . S
C628 C627 1.334 . S
C628 C629 1.287 . S
C629 C628 1.287 . S
C629 C630 1.524 . S
C629 H632 0.999 . S
C630 H600 0.950 . S
C630 C629 1.524 . S
C630 C631 1.415 . S
C631 H601 0.950 . S
C631 C626 1.363 . S
C631 C630 1.415 . S
H632 C629 0.999 . S
H633 C614 0.913 . S
H634 C652 0.951 . S
H635 C654 0.951 . S
H636 C656 0.950 . S
H637 C657 0.950 . S
H638 C659 0.944 . S
H639 C662 0.950 . S
H640 C663 0.950 . S
H641 C665 0.950 . S
H642 C666 0.950 . S
H643 C667 0.951 . S
H644 C669 0.951 . S
H645 C671 0.994 . S
H646 C672 0.950 . S
H647 C674 0.950 . S
H648 C677 0.950 . S
H649 C678 0.950 . S
H650 C680 0.950 . S
H651 C681 0.950 . S
C652 H634 0.951 . S
C652 C653 1.366 . S
C652 C654 1.388 . S
C653 C652 1.366 . S
C653 C657 1.385 . S
C654 H635 0.951 . S
C654 C652 1.388 . S
C654 C655 1.366 . S
C655 C654 1.366 . S
C655 C656 1.414 . S
C655 C658 1.499 . S
C656 H636 0.950 . S
C656 C655 1.414 . S
C656 C657 1.374 . S
C657 H637 0.950 . S
C657 C653 1.385 . S
C657 C656 1.374 . S
C658 C655 1.499 . S
C658 C659 1.364 1_455 S
C658 C660 1.389 . S
C659 H638 0.944 . S
C659 C658 1.364 1_655 S
C659 C675 1.394 . S
C660 C658 1.389 . S
C660 C661 1.524 . S
C660 C674 1.377 . S
C661 C660 1.524 . S
C661 C662 1.397 . S
C661 C666 1.363 . S
C662 H639 0.950 . S
C662 C661 1.397 . S
C662 C663 1.334 . S
C663 H640 0.950 . S
C663 C662 1.334 . S
C663 C664 1.287 . S
C664 C663 1.287 . S
C664 C665 1.524 . S
C664 H683 0.913 . S
C665 H641 0.950 . S
C665 C664 1.524 . S
C665 C666 1.415 . S
C666 H642 0.950 . S
C666 C661 1.363 . S
C666 C665 1.415 . S
C667 H643 0.951 . S
C667 C668 1.366 . S
C667 C669 1.388 . S
C668 C667 1.366 . S
C668 C672 1.385 . S
C669 H644 0.951 . S
C669 C667 1.388 . S
C669 C670 1.366 . S
C670 C669 1.366 . S
C670 C671 1.414 . S
C670 C673 1.499 . S
C671 H645 0.994 . S
C671 C670 1.414 . S
C671 C672 1.374 . S
C672 H646 0.950 . S
C672 C668 1.385 . S
C672 C671 1.374 . S
C673 C670 1.499 . S
C673 C674 1.373 1_655 S
C673 C675 1.389 . S
C674 H647 0.950 . S
C674 C660 1.377 . S
C674 C673 1.373 1_455 S
C675 C659 1.394 . S
C675 C673 1.389 . S
C675 C676 1.524 . S
C676 C675 1.524 . S
C676 C677 1.397 . S
C676 C681 1.363 . S
C677 H648 0.950 . S
C677 C676 1.397 . S
C677 C678 1.334 . S
C678 H649 0.950 . S
C678 C677 1.334 . S
C678 C679 1.287 . S
C679 C678 1.287 . S
C679 C680 1.524 . S
C679 H682 0.999 . S
C680 H650 0.950 . S
C680 C679 1.524 . S
C680 C681 1.415 . S
C681 H651 0.950 . S
C681 C676 1.363 . S
C681 C680 1.415 . S
H682 C679 0.999 . S
H683 C664 0.913 . S
C103 C3 0.893 . S
C118 C59 0.894 . S
C153 C23 0.846 . S
C168 C79 0.850 . S
C203 C9 0.878 . S
C218 C31 0.884 . S
C253 C51 0.876 . S
C268 C17 0.885 . S
C303 C65 0.850 . S
C318 C37 0.847 . S
C353 C45 0.894 . S
C368 C73 0.893 . S
C403 C49 1.327 . S
C418 C7 1.327 . S
C453 C63 1.321 . S
C468 C22 1.354 . S
C503 C78 1.352 . S
C518 C35 1.322 . S
C553 C8 1.377 . S
C568 C50 1.378 . S
C603 C21 1.322 . S
C618 C64 1.352 . S
C653 C77 1.321 . S
C668 C36 1.354 . S
