# Generated by pormake.
# Topology unh, (4)-cn, num edge types: 1
# Building blocks:
#     Node 0, Type 0, BuildingBlock: KOZSID_clean_sbu_0, # of connection points: 4
#     Node 1, Type 0, BuildingBlock: KOZSID_clean_sbu_0, # of connection points: 4
#     Node 2, Type 0, BuildingBlock: KOZSID_clean_sbu_0, # of connection points: 4
#     Node 3, Type 0, BuildingBlock: KOZSID_clean_sbu_0, # of connection points: 4
#     Node 4, Type 0, BuildingBlock: KOZSID_clean_sbu_0, # of connection points: 4
#     Node 5, Type 0, BuildingBlock: KOZSID_clean_sbu_0, # of connection points: 4
#     Edge 6, Type (0, 0), BuildingBlock: XUDNAN_clean_linker_2, # of connection points: 2
#     Edge 7, Type (0, 0), BuildingBlock: XUDNAN_clean_linker_2, # of connection points: 2
#     Edge 8, Type (0, 0), BuildingBlock: XUDNAN_clean_linker_2, # of connection points: 2
#     Edge 9, Type (0, 0), BuildingBlock: XUDNAN_clean_linker_2, # of connection points: 2
#     Edge 10, Type (0, 0), BuildingBlock: XUDNAN_clean_linker_2, # of connection points: 2
#     Edge 11, Type (0, 0), BuildingBlock: XUDNAN_clean_linker_2, # of connection points: 2
#     Edge 12, Type (0, 0), BuildingBlock: XUDNAN_clean_linker_2, # of connection points: 2
#     Edge 13, Type (0, 0), BuildingBlock: XUDNAN_clean_linker_2, # of connection points: 2
#     Edge 14, Type (0, 0), BuildingBlock: XUDNAN_clean_linker_2, # of connection points: 2
#     Edge 15, Type (0, 0), BuildingBlock: XUDNAN_clean_linker_2, # of connection points: 2
#     Edge 16, Type (0, 0), BuildingBlock: XUDNAN_clean_linker_2, # of connection points: 2
#     Edge 17, Type (0, 0), BuildingBlock: XUDNAN_clean_linker_2, # of connection points: 2
# Relax obj value: 0.012
# Max RMSD: 0.276
# Mean RMSD: 0.251
data_MOF--net-unh--node1-KOZSID_clean_sbu_0--edge1-XUDNAN_clean_linker_2
_symmetry_space_group_name_H-M    P1
_symmetry_Int_Tables_number       1
_symmetry_cell_setting            triclinic
loop_
_symmetry_equiv_pos_as_xyz
'x, y, z'
_cell_length_a     52.760247
_cell_length_b     58.211382
_cell_length_c     22.588408
_cell_angle_alpha  89.648502
_cell_angle_beta   89.955217
_cell_angle_gamma 119.924
loop_
_atom_site_label
_atom_site_type_symbol
_atom_site_fract_x
_atom_site_fract_y
_atom_site_fract_z
_atom_type_partial_charge
C0 C 0.23109 0.60228 0.17317 0.0
C1 C 0.23683 0.6144 0.22812 0.0
C2 C 0.21642 0.62208 0.2369 0.0
C3 C 0.19926 0.61416 0.18722 0.0
N4 N 0.20773 0.60223 0.1473 0.0
Co5 Co 0.18708 0.58607 0.07173 0.0
N6 N 0.1641 0.60479 0.07465 0.0
C7 C 0.16043 0.61632 0.12285 0.0
C8 C 0.14251 0.62676 0.11284 0.0
C9 C 0.13408 0.6212 0.05483 0.0
C10 C 0.14737 0.60763 0.03265 0.0
N11 N 0.16664 0.56986 0.99609 0.0
C12 C 0.15033 0.57613 0.96029 0.0
C13 C 0.13984 0.55922 0.91203 0.0
C14 C 0.14962 0.54162 0.91817 0.0
C15 C 0.16549 0.54871 0.96947 0.0
N16 N 0.20971 0.56712 0.06834 0.0
C17 C 0.20483 0.54723 0.03137 0.0
C18 C 0.22653 0.54084 0.03226 0.0
C19 C 0.24612 0.55739 0.07294 0.0
C20 C 0.23475 0.57245 0.0963 0.0
N21 N 0.15568 0.55648 0.11728 0.0
C22 C 0.11123 0.52319 0.19694 0.0
C23 C 0.10445 0.531 0.14331 0.0
C24 C 0.12693 0.54771 0.10431 0.0
C25 C 0.14047 0.53085 0.20808 0.0
C26 C 0.16225 0.54698 0.16713 0.0
N27 N 0.21853 0.6162 0.02799 0.0
C28 C 0.25722 0.63389 0.95489 0.0
C29 C 0.26725 0.65997 0.97434 0.0
C30 C 0.25152 0.6634 0.02025 0.0
C31 C 0.22763 0.64146 0.04652 0.0
C32 C 0.23275 0.61245 0.98167 0.0
H33 H 0.21682 0.64506 0.08267 0.0
H34 H 0.22576 0.5928 0.96561 0.0
H35 H 0.121 0.55446 0.06502 0.0
H36 H 0.18456 0.55269 0.17731 0.0
C37 C 0.17676 0.61953 0.17411 0.0
C38 C 0.24613 0.58855 0.15014 0.0
C39 C 0.14171 0.59594 0.97326 0.0
C40 C 0.18324 0.53879 0.98837 0.0
H41 H 0.25353 0.61687 0.25933 0.0
H42 H 0.21447 0.63236 0.27486 0.0
H43 H 0.13669 0.63756 0.14365 0.0
H44 H 0.11948 0.62618 0.03171 0.0
H45 H 0.12616 0.5593 0.87644 0.0
H46 H 0.14633 0.52605 0.88785 0.0
H47 H 0.22863 0.52679 1.00448 0.0
H48 H 0.26626 0.5579 0.08478 0.0
H49 H 0.08203 0.52523 0.1328 0.0
H50 H 0.14651 0.52474 0.24855 0.0
H51 H 0.26846 0.62981 0.92002 0.0
H52 H 0.25744 0.68293 0.03615 0.0
C53 C 0.63813 0.19807 0.38604 0.0
C54 C 0.62711 0.20933 0.42511 0.0
C55 C 0.59954 0.20227 0.40636 0.0
C56 C 0.59515 0.18718 0.35702 0.0
N57 N 0.618 0.18369 0.34413 0.0
Co58 Co 0.62134 0.16572 0.27214 0.0
N59 N 0.57888 0.14945 0.25468 0.0
C60 C 0.56042 0.15678 0.27715 0.0
C61 C 0.53214 0.1411 0.25814 0.0
C62 C 0.53292 0.12272 0.22149 0.0
C63 C 0.56169 0.12828 0.22038 0.0
N64 N 0.62468 0.14837 0.19935 0.0
C65 C 0.60357 0.12793 0.16846 0.0
C66 C 0.61531 0.12141 0.12078 0.0
C67 C 0.64489 0.13843 0.12208 0.0
C68 C 0.64951 0.15424 0.17036 0.0
N69 N 0.66379 0.18121 0.28969 0.0
C70 C 0.68419 0.1818 0.25275 0.0
C71 C 0.71152 0.19298 0.2773 0.0
C72 C 0.70839 0.20054 0.33275 0.0
C73 C 0.67926 0.19382 0.33864 0.0
N74 N 0.61271 0.13417 0.31985 0.0
C75 C 0.59915 0.08898 0.38953 0.0
C76 C 0.62207 0.09895 0.34776 0.0
C77 C 0.62843 0.12145 0.31344 0.0
C78 C 0.58322 0.10224 0.39502 0.0
C79 C 0.59035 0.12463 0.36027 0.0
N80 N 0.62945 0.19758 0.22557 0.0
C81 C 0.65147 0.24515 0.22479 0.0
C82 C 0.63154 0.24395 0.18253 0.0
C83 C 0.6126 0.21925 0.15718 0.0
C84 C 0.61212 0.19627 0.17898 0.0
C85 C 0.65005 0.22199 0.2455 0.0
H86 H 0.59654 0.17737 0.16052 0.0
H87 H 0.66456 0.22408 0.28059 0.0
H88 H 0.64609 0.12853 0.28178 0.0
H89 H 0.57746 0.13408 0.36603 0.0
C90 C 0.56941 0.1749 0.32362 0.0
C91 C 0.669 0.2048 0.38518 0.0
C92 C 0.57247 0.11429 0.18374 0.0
C93 C 0.67655 0.17007 0.19704 0.0
H94 H 0.63819 0.22225 0.46193 0.0
H95 H 0.58463 0.20778 0.426 0.0
H96 H 0.513 0.14209 0.27146 0.0
H97 H 0.51454 0.10704 0.19829 0.0
H98 H 0.60391 0.10564 0.08924 0.0
H99 H 0.66121 0.13809 0.09361 0.0
H100 H 0.73139 0.19551 0.25718 0.0
H101 H 0.72589 0.21123 0.36402 0.0
H102 H 0.63528 0.08967 0.34192 0.0
H103 H 0.5649 0.09518 0.42536 0.0
H104 H 0.6672 0.26387 0.24432 0.0
H105 H 0.59712 0.21743 0.12349 0.0
C106 C 0.44043 0.60576 0.33945 0.0
C107 C 0.44876 0.62497 0.29538 0.0
C108 C 0.47665 0.64445 0.30818 0.0
C109 C 0.48408 0.63594 0.35852 0.0
N110 N 0.46285 0.612 0.37763 0.0
Co111 Co 0.46575 0.59212 0.44735 0.0
N112 N 0.50902 0.61548 0.45274 0.0
C113 C 0.52487 0.63911 0.4255 0.0
C114 C 0.55424 0.65089 0.43726 0.0
C115 C 0.5571 0.63374 0.47475 0.0
C116 C 0.5292 0.61241 0.48406 0.0
N117 N 0.4685 0.57254 0.51765 0.0
C118 C 0.49199 0.57293 0.54318 0.0
C119 C 0.48369 0.5565 0.59289 0.0
C120 C 0.45415 0.54564 0.59885 0.0
C121 C 0.44606 0.55598 0.55281 0.0
N122 N 0.42251 0.5686 0.44273 0.0
C123 C 0.40538 0.55265 0.48676 0.0
C124 C 0.37613 0.54097 0.47532 0.0
C125 C 0.37443 0.55029 0.42085 0.0
C126 C 0.40301 0.567 0.40133 0.0
N127 N 0.47171 0.5686 0.39376 0.0
C128 C 0.48286 0.53662 0.31556 0.0
C129 C 0.4656 0.52593 0.36717 0.0
C130 C 0.45987 0.54207 0.4048 0.0
C131 C 0.4936 0.56373 0.30441 0.0
C132 C 0.48862 0.57923 0.34431 0.0
N133 N 0.46023 0.61624 0.49963 0.0
C134 C 0.43845 0.6436 0.51579 0.0
C135 C 0.45735 0.65633 0.56297 0.0
C136 C 0.47685 0.64766 0.57967 0.0
C137 C 0.47794 0.62762 0.54748 0.0
C138 C 0.44011 0.62365 0.48516 0.0
H139 H 0.49375 0.62196 0.56027 0.0
H140 H 0.42556 0.61492 0.44848 0.0
H141 H 0.4462 0.53312 0.44324 0.0
H142 H 0.49875 0.60002 0.33462 0.0
C143 C 0.51201 0.64777 0.38345 0.0
C144 C 0.41033 0.58342 0.34708 0.0
C145 C 0.5226 0.59063 0.52604 0.0
C146 C 0.41744 0.54809 0.53706 0.0
H147 H 0.43601 0.62516 0.25811 0.0
H148 H 0.4902 0.66227 0.28268 0.0
H149 H 0.57162 0.66939 0.41942 0.0
H150 H 0.57737 0.63669 0.49348 0.0
H151 H 0.49753 0.55309 0.62272 0.0
H152 H 0.44017 0.53149 0.63209 0.0
H153 H 0.35813 0.52758 0.50361 0.0
H154 H 0.35419 0.54605 0.39984 0.0
H155 H 0.45672 0.50537 0.37951 0.0
H156 H 0.50595 0.57354 0.26501 0.0
H157 H 0.42253 0.64914 0.50212 0.0
H158 H 0.49188 0.65687 0.61602 0.0
C159 C 0.86447 0.45194 0.69454 0.0
C160 C 0.85391 0.43462 0.74254 0.0
C161 C 0.86196 0.41585 0.7336 0.0
C162 C 0.8773 0.42285 0.68126 0.0
N163 N 0.8799 0.44517 0.65716 0.0
Co164 Co 0.90067 0.46192 0.5815 0.0
N165 N 0.9209 0.44074 0.57976 0.0
C166 C 0.91318 0.41858 0.61161 0.0
C167 C 0.9309 0.408 0.601 0.0
C168 C 0.95086 0.4244 0.55949 0.0
C169 C 0.94415 0.44411 0.54688 0.0
N170 N 0.92115 0.47856 0.50579 0.0
C171 C 0.94454 0.47903 0.47962 0.0
C172 C 0.95117 0.49261 0.42581 0.0
C173 C 0.93119 0.50075 0.41802 0.0
C174 C 0.91355 0.49175 0.46713 0.0
N175 N 0.88047 0.48311 0.58192 0.0
C176 C 0.87721 0.49553 0.53441 0.0
C177 C 0.85975 0.50625 0.54473 0.0
C178 C 0.85101 0.5 0.60222 0.0
C179 C 0.86404 0.48597 0.62435 0.0
N180 N 0.93347 0.48943 0.62705 0.0
C181 C 0.98035 0.52692 0.69602 0.0
C182 C 0.96962 0.53494 0.64771 0.0
C183 C 0.94611 0.51587 0.61386 0.0
C184 C 0.9671 0.49973 0.70808 0.0
C185 C 0.94393 0.48158 0.67369 0.0
N186 N 0.86764 0.43353 0.53799 0.0
C187 C 0.81663 0.40024 0.54141 0.0
C188 C 0.8216 0.38405 0.50338 0.0
C189 C 0.84943 0.39434 0.47775 0.0
C190 C 0.87219 0.41925 0.49552 0.0
C191 C 0.83973 0.42492 0.55751 0.0
H192 H 0.89382 0.42605 0.47797 0.0
H193 H 0.83516 0.43596 0.58945 0.0
H194 H 0.93817 0.52245 0.57715 0.0
H195 H 0.93463 0.46101 0.68511 0.0
C196 C 0.89241 0.41096 0.65714 0.0
C197 C 0.85706 0.47288 0.68294 0.0
C198 C 0.95905 0.46465 0.50088 0.0
C199 C 0.89243 0.49835 0.48206 0.0
H200 H 0.84129 0.43515 0.77971 0.0
H201 H 0.85765 0.39939 0.76253 0.0
H202 H 0.93008 0.39094 0.62235 0.0
H203 H 0.96826 0.42205 0.5405 0.0
H204 H 0.96828 0.4959 0.39469 0.0
H205 H 0.93012 0.5124 0.38159 0.0
H206 H 0.85385 0.51714 0.51399 0.0
H207 H 0.83565 0.50435 0.62394 0.0
H208 H 0.97906 0.55572 0.63645 0.0
H209 H 0.97487 0.49223 0.74346 0.0
H210 H 0.79526 0.3933 0.56107 0.0
H211 H 0.85407 0.38254 0.44745 0.0
C212 C 0.45592 0.85269 0.87376 0.0
C213 C 0.46849 0.84662 0.92069 0.0
C214 C 0.49605 0.86822 0.92779 0.0
C215 C 0.49875 0.88621 0.88483 0.0
N216 N 0.47458 0.87716 0.85159 0.0
Co217 Co 0.4694 0.89541 0.78216 0.0
N218 N 0.51224 0.91899 0.77188 0.0
C219 C 0.53246 0.92392 0.81379 0.0
C220 C 0.56028 0.94206 0.79545 0.0
C221 C 0.55725 0.94922 0.73895 0.0
C222 C 0.52766 0.93499 0.72578 0.0
N223 N 0.46367 0.91326 0.71263 0.0
C224 C 0.48304 0.92937 0.67106 0.0
C225 C 0.46961 0.93794 0.63065 0.0
C226 C 0.44111 0.92733 0.64853 0.0
C227 C 0.4386 0.91278 0.69842 0.0
N228 N 0.4267 0.87223 0.79312 0.0
C229 C 0.40567 0.87663 0.7721 0.0
C230 C 0.37802 0.85661 0.78645 0.0
C231 C 0.38205 0.8385 0.81824 0.0
C232 C 0.41202 0.84858 0.82126 0.0
N233 N 0.46884 0.92188 0.83508 0.0
C234 C 0.47848 0.95954 0.92287 0.0
C235 C 0.4913 0.96741 0.86644 0.0
C236 C 0.48588 0.94839 0.82315 0.0
C237 C 0.45867 0.93243 0.93211 0.0
C238 C 0.45431 0.91402 0.88804 0.0
N239 N 0.47051 0.86869 0.73132 0.0
C240 C 0.44445 0.82874 0.67394 0.0
C241 C 0.46496 0.82118 0.68997 0.0
C242 C 0.48977 0.83918 0.72109 0.0
C243 C 0.49223 0.86278 0.74087 0.0
C244 C 0.44771 0.85278 0.69504 0.0
H245 H 0.51062 0.87503 0.76845 0.0
H246 H 0.43077 0.85753 0.68569 0.0
H247 H 0.49691 0.95516 0.78114 0.0
H248 H 0.44027 0.89325 0.89806 0.0
C249 C 0.52489 0.90859 0.86613 0.0
C250 C 0.42602 0.83567 0.85194 0.0
C251 C 0.5147 0.93925 0.67204 0.0
C252 C 0.41252 0.89619 0.72887 0.0
H253 H 0.4589 0.82849 0.94654 0.0
H254 H 0.51265 0.86992 0.9584 0.0
H255 H 0.58043 0.94891 0.81974 0.0
H256 H 0.57472 0.96368 0.7111 0.0
H257 H 0.4795 0.95101 0.59296 0.0
H258 H 0.42414 0.92962 0.6271 0.0
H259 H 0.35739 0.85458 0.77245 0.0
H260 H 0.365 0.81989 0.83632 0.0
H261 H 0.50671 0.98797 0.85634 0.0
H262 H 0.4472 0.92521 0.97383 0.0
H263 H 0.42507 0.81539 0.64927 0.0
H264 H 0.5064 0.83431 0.73332 0.0
C265 C 0.65998 0.46358 0.84262 0.0
C266 C 0.65287 0.45144 0.7877 0.0
C267 C 0.62401 0.44357 0.77808 0.0
C268 C 0.6151 0.45139 0.82734 0.0
N269 N 0.63645 0.46354 0.86762 0.0
Co270 Co 0.63271 0.47882 0.94387 0.0
N271 N 0.58905 0.45921 0.94054 0.0
C272 C 0.5731 0.44754 0.89192 0.0
C273 C 0.54363 0.43724 0.90053 0.0
C274 C 0.54077 0.44313 0.95791 0.0
C275 C 0.56875 0.45668 0.98134 0.0
N276 N 0.62937 0.49391 0.0207 0.0
C277 C 0.60601 0.48631 0.05706 0.0
C278 C 0.61429 0.50039 0.10976 0.0
C279 C 0.64335 0.51844 0.10476 0.0
C280 C 0.65137 0.514 0.05024 0.0
N281 N 0.67626 0.49871 0.94733 0.0
C282 C 0.69281 0.51856 0.98478 0.0
C283 C 0.72185 0.52606 0.98294 0.0
C284 C 0.72395 0.51017 0.94152 0.0
C285 C 0.69603 0.49429 0.91875 0.0
N286 N 0.63288 0.50831 0.89978 0.0
C287 C 0.6222 0.54049 0.82209 0.0
C288 C 0.60839 0.53302 0.87744 0.0
C289 C 0.61389 0.51689 0.91535 0.0
C290 C 0.64309 0.5332 0.80825 0.0
C291 C 0.64863 0.51768 0.84831 0.0
N292 N 0.63185 0.44882 0.98626 0.0
C293 C 0.64908 0.43138 0.06367 0.0
C294 C 0.63142 0.40541 0.04307 0.0
C295 C 0.61395 0.40176 0.99344 0.0
C296 C 0.6144 0.42358 0.96601 0.0
C297 C 0.64899 0.45271 0.03476 0.0
H298 H 0.60059 0.4199 0.92814 0.0
H299 H 0.66295 0.47232 0.05157 0.0
H300 H 0.60155 0.51034 0.9559 0.0
H301 H 0.66469 0.51225 0.83616 0.0
C302 C 0.58642 0.44511 0.84053 0.0
C303 C 0.68987 0.47716 0.86676 0.0
C304 C 0.5753 0.46934 0.0399 0.0
C305 C 0.68001 0.52522 0.03026 0.0
H306 H 0.66713 0.44892 0.7573 0.0
H307 H 0.61096 0.43297 0.74017 0.0
H308 H 0.52628 0.42672 0.86888 0.0
H309 H 0.52046 0.43862 0.97943 0.0
H310 H 0.60056 0.49843 0.14727 0.0
H311 H 0.65717 0.53253 0.13776 0.0
H312 H 0.73913 0.54009 1.01127 0.0
H313 H 0.74389 0.51026 0.92989 0.0
H314 H 0.59232 0.53849 0.89016 0.0
H315 H 0.65477 0.53912 0.76645 0.0
H316 H 0.6632 0.43531 0.10154 0.0
H317 H 0.5996 0.38211 0.97633 0.0
H318 H 0.08242 0.56558 0.97987 0.0
H319 H 0.15219 0.62599 0.8732 0.0
H320 H 0.11672 0.61904 0.79361 0.0
H321 H 0.04918 0.52203 0.86749 0.0
H322 H 1.01199 0.50938 0.89201 0.0
H323 H 1.04126 0.52282 0.94487 0.0
H324 H 1.02559 0.5561 0.98065 0.0
H325 H 0.99586 0.54247 0.92851 0.0
H326 H 1.02188 0.5775 0.92765 0.0
H327 H 0.07461 0.60035 0.71984 0.0
H328 H 1.03052 0.57241 0.66032 0.0
H329 H 0.98808 0.52446 0.8162 0.0
C330 C 0.08982 0.57822 0.9409 0.0
C331 C 0.11977 0.59696 0.93321 0.0
C332 C 0.12916 0.61218 0.88045 0.0
C333 C 0.10916 0.6082 0.83496 0.0
C334 C 0.07983 0.58887 0.84293 0.0
C335 C 0.07017 0.57434 0.89502 0.0
C336 C 1.0384 0.55278 0.89029 0.0
C337 C 1.03503 0.52513 0.89917 0.0
C338 C 1.0193 0.5575 0.93439 0.0
C339 C 1.03187 0.55687 0.82697 0.0
C340 C 0.05588 0.57793 0.80042 0.0
C341 C 0.05553 0.58414 0.74066 0.0
C342 C 1.03026 0.5682 0.70713 0.0
C343 C 1.00562 0.54609 0.73314 0.0
C344 C 1.00647 0.54099 0.7944 0.0
H345 H 0.49599 1.01331 0.91808 0.0
H346 H 0.4825 0.95055 0.0415 0.0
H347 H 0.49978 0.98255 0.1228 0.0
H348 H 0.56322 0.06142 0.97983 0.0
H349 H 0.5571 0.08889 0.96742 0.0
H350 H 0.54027 0.06051 0.91971 0.0
H351 H 0.48934 0.05484 0.94302 0.0
H352 H 0.50606 0.08318 0.99107 0.0
H353 H 0.47743 0.05178 1.01895 0.0
H354 H 0.52237 1.02195 0.19041 0.0
H355 H 0.55018 0.06614 0.23712 0.0
H356 H 0.55085 0.10364 0.07059 0.0
C357 C 0.49646 1.00611 0.96211 0.0
C358 C 0.48728 0.97901 0.97274 0.0
C359 C 0.4884 0.97083 0.03164 0.0
C360 C 0.49846 0.98899 0.07843 0.0
C361 C 0.50759 1.01546 0.06614 0.0
C362 C 0.50678 1.02405 1.00939 0.0
C363 C 0.51984 0.05394 1.00743 0.0
C364 C 0.5467 0.06695 0.96616 0.0
C365 C 0.49679 0.06136 0.98903 0.0
C366 C 0.52855 0.06082 0.07169 0.0
C367 C 0.521 0.03828 0.10498 0.0
C368 C 0.52807 0.03969 0.16491 0.0
C369 C 0.54374 0.06478 0.19116 0.0
C370 C 0.55224 0.08804 0.15748 0.0
C371 C 0.5441 0.08601 0.09733 0.0
H372 H 0.52786 0.55404 0.23146 0.0
H373 H 0.45513 0.48131 0.30327 0.0
H374 H 0.46854 0.4556 0.23734 0.0
H375 H 0.51585 0.53102 0.07903 0.0
H376 H 0.55442 0.54897 0.06228 0.0
H377 H 0.53958 0.56149 0.11693 0.0
H378 H 0.57641 0.56252 0.19433 0.0
H379 H 0.59133 0.55002 0.14003 0.0
H380 H 0.57773 0.53268 0.20943 0.0
H381 H 0.49394 0.43769 0.16731 0.0
H382 H 0.52614 0.43072 0.09799 0.0
H383 H 0.57421 0.51494 0.06024 0.0
C384 C 0.51375 0.53282 0.23315 0.0
C385 C 0.49011 0.52027 0.27404 0.0
C386 C 0.47373 0.49204 0.27421 0.0
C387 C 0.48098 0.47704 0.23607 0.0
C388 C 0.50417 0.49032 0.1963 0.0
C389 C 0.51986 0.51764 0.19403 0.0
C390 C 0.54348 0.52752 0.14689 0.0
C391 C 0.53799 0.54317 0.09841 0.0
C392 C 0.57403 0.54416 0.17433 0.0
C393 C 0.53911 0.50151 0.12356 0.0
C394 C 0.51667 0.48014 0.153 0.0
C395 C 0.51106 0.4543 0.14313 0.0
C396 C 0.52931 0.45045 0.10348 0.0
C397 C 0.55251 0.47224 0.07355 0.0
C398 C 0.55647 0.49786 0.08211 0.0
H399 H 1.01581 0.50471 0.48719 0.0
H400 H 0.95318 0.42686 0.42266 0.0
H401 H 0.98723 0.4318 0.34166 0.0
H402 H 1.03737 0.53515 0.35046 0.0
H403 H 0.0755 0.5563 0.36765 0.0
H404 H 0.0485 0.54519 0.42575 0.0
H405 H 0.0755 0.52527 0.48335 0.0
H406 H 0.10294 0.53669 0.42588 0.0
H407 H 0.08362 0.50218 0.44706 0.0
H408 H 1.02478 0.44813 0.25916 0.0
H409 H 0.06499 0.4729 0.18697 0.0
H410 H 0.10445 0.53962 0.30626 0.0
C411 C 1.00993 0.4883 0.45744 0.0
C412 C 0.98227 0.46504 0.46212 0.0
C413 C 0.97464 0.44442 0.42088 0.0
C414 C 0.99376 0.4472 0.37445 0.0
C415 C 1.02054 0.47071 0.36989 0.0
C416 C 1.02887 0.49074 0.41091 0.0
C417 C 0.05792 0.51473 0.39364 0.0
C418 C 0.05461 0.53929 0.38379 0.0
C419 C 0.08139 0.52002 0.44026 0.0
C420 C 0.06432 0.50534 0.33588 0.0
C421 C 1.04245 0.4799 0.32289 0.0
C422 C 1.04234 0.46781 0.26959 0.0
C423 C 0.06517 0.482 0.22876 0.0
C424 C 0.08799 0.50789 0.24161 0.0
C425 C 0.08759 0.51958 0.29606 0.0
H426 H 0.5792 0.07857 0.50542 0.0
H427 H 0.60087 0.04402 0.35772 0.0
H428 H 0.58583 1.00344 0.41707 0.0
H429 H 0.60121 0.04964 0.62382 0.0
H430 H 0.57113 0.04401 0.67129 0.0
H431 H 0.58581 0.07114 0.61894 0.0
H432 H 0.53432 0.05341 0.57351 0.0
H433 H 0.5195 1.02636 0.62591 0.0
H434 H 0.51445 1.01971 0.5477 0.0
H435 H 0.56483 0.9649 0.49101 0.0
H436 H 0.53926 0.93227 0.57206 0.0
H437 H 0.53086 0.99176 0.67017 0.0
C438 C 0.58083 0.06254 0.48525 0.0
C439 C 0.59141 0.06479 0.4265 0.0
C440 C 0.5934 0.04322 0.40273 0.0
C441 C 0.58473 1.01993 0.4361 0.0
C442 C 0.5741 1.01835 0.49347 0.0
C443 C 0.57216 0.03914 0.51781 0.0
C444 C 0.55872 0.03208 0.57932 0.0
C445 C 0.58053 0.05031 0.6261 0.0
C446 C 0.53005 0.03294 0.58172 0.0
C447 C 0.55303 1.00395 0.58563 0.0
C448 C 0.56219 0.99638 0.5358 0.0
C449 C 0.55792 0.97077 0.53044 0.0
C450 C 0.54351 0.9524 0.57662 0.0
C451 C 0.53358 0.95971 0.62736 0.0
C452 C 0.5388 0.98591 0.63217 0.0
H453 H 0.59939 0.52472 0.71078 0.0
H454 H 0.62475 0.58812 0.83709 0.0
H455 H 0.60736 0.61068 0.7686 0.0
H456 H 0.61563 0.56482 0.57381 0.0
H457 H 0.58373 0.53981 0.53614 0.0
H458 H 0.60135 0.53028 0.59162 0.0
H459 H 0.55236 0.5046 0.64911 0.0
H460 H 0.53464 0.51394 0.59367 0.0
H461 H 0.5331 0.52162 0.6703 0.0
H462 H 0.58396 0.62471 0.68966 0.0
H463 H 0.55332 0.62747 0.61014 0.0
H464 H 0.54151 0.55444 0.53564 0.0
C465 C 0.60189 0.54368 0.7232 0.0
C466 C 0.61392 0.55499 0.77874 0.0
C467 C 0.61592 0.57933 0.79449 0.0
C468 C 0.60617 0.59229 0.75578 0.0
C469 C 0.59414 0.58053 0.70155 0.0
C470 C 0.59177 0.55666 0.6854 0.0
C471 C 0.57548 0.54703 0.62721 0.0
C472 C 0.59523 0.54539 0.57936 0.0
C473 C 0.54723 0.52022 0.6356 0.0
C474 C 0.5688 0.56903 0.61342 0.0
C475 C 0.58011 0.58835 0.65652 0.0
C476 C 0.57542 0.60992 0.65523 0.0
C477 C 0.5582 0.61147 0.60967 0.0
C478 C 0.54577 0.5916 0.56592 0.0
C479 C 0.55153 0.57032 0.5675 0.0
H480 H 0.29995 0.62538 0.19825 0.0
H481 H 0.23765 0.54112 0.19154 0.0
H482 H 0.27485 0.53141 0.2311 0.0
H483 H 0.3655 0.6261 0.16954 0.0
H484 H 0.38713 0.64914 0.22641 0.0
H485 H 0.35641 0.65039 0.1952 0.0
H486 H 0.33342 0.64495 0.29933 0.0
H487 H 0.36456 0.6446 0.33103 0.0
H488 H 0.32816 0.61768 0.34606 0.0
H489 H 0.32192 0.53121 0.2503 0.0
H490 H 0.36877 0.53895 0.29225 0.0
H491 H 0.39548 0.62183 0.31735 0.0
C492 C 0.29402 0.60495 0.20629 0.0
C493 C 0.26643 0.58392 0.18854 0.0
C494 C 0.25912 0.55748 0.2021 0.0
C495 C 0.2801 0.55174 0.22435 0.0
C496 C 0.30776 0.57275 0.23711 0.0
C497 C 0.31418 0.5988 0.23251 0.0
C498 C 0.34449 0.61734 0.25696 0.0
C499 C 0.36456 0.6369 0.20916 0.0
C500 C 0.34254 0.63201 0.31161 0.0
C501 C 0.35431 0.59761 0.27363 0.0
C502 C 0.33317 0.57215 0.2593 0.0
C503 C 0.33822 0.5509 0.26405 0.0
C504 C 0.36497 0.55552 0.28738 0.0
C505 C 0.38565 0.5808 0.30913 0.0
C506 C 0.38033 0.60225 0.30105 0.0
H507 H 0.70832 0.25199 0.33296 0.0
H508 H 0.67971 0.2135 0.50425 0.0
H509 H 0.71592 0.25521 0.5531 0.0
H510 H 0.78526 0.28981 0.36828 0.0
H511 H 0.79133 0.31822 0.3249 0.0
H512 H 0.76301 0.28553 0.30421 0.0
H513 H 0.72477 0.30104 0.30784 0.0
H514 H 0.75293 0.33378 0.32854 0.0
H515 H 0.72085 0.31592 0.37443 0.0
H516 H 0.75407 0.30155 0.58255 0.0
H517 H 0.79288 0.34838 0.59131 0.0
H518 H 0.7985 0.35608 0.40003 0.0
C519 C 0.70973 0.25231 0.38076 0.0
C520 C 0.69115 0.2296 0.4151 0.0
C521 C 0.69369 0.23076 0.47743 0.0
C522 C 0.71417 0.25431 0.50534 0.0
C523 C 0.73213 0.27637 0.47012 0.0
C524 C 0.73026 0.27549 0.40914 0.0
C525 C 0.75229 0.30179 0.38131 0.0
C526 C 0.77428 0.29864 0.34238 0.0
C527 C 0.73678 0.31384 0.34595 0.0
C528 C 0.76682 0.31782 0.43621 0.0
C529 C 0.7547 0.30279 0.48696 0.0
C530 C 0.7638 0.31342 0.54314 0.0
C531 C 0.78577 0.34005 0.54765 0.0
C532 C 0.79866 0.35581 0.49636 0.0
C533 C 0.78919 0.34442 0.4399 0.0
H534 H 0.45561 0.79324 0.58577 0.0
H535 H 0.46286 0.78777 0.77587 0.0
H536 H 0.45974 0.74428 0.76465 0.0
H537 H 0.40466 0.7216 0.56167 0.0
H538 H 0.42174 0.72132 0.49274 0.0
H539 H 0.42203 0.75102 0.51596 0.0
H540 H 0.47851 0.77721 0.50681 0.0
H541 H 0.47841 0.74758 0.48402 0.0
H542 H 0.4998 0.76587 0.54693 0.0
H543 H 0.45997 0.7033 0.73279 0.0
H544 H 0.46064 0.66605 0.6823 0.0
H545 H 0.45328 0.69757 0.51259 0.0
C546 C 0.45592 0.78254 0.62491 0.0
C547 C 0.45953 0.7938 0.68168 0.0
C548 C 0.46027 0.77948 0.73198 0.0
C549 C 0.45847 0.75477 0.72607 0.0
C550 C 0.45581 0.7445 0.66949 0.0
C551 C 0.45425 0.75774 0.61975 0.0
C552 C 0.45259 0.74264 0.56398 0.0
C553 C 0.42352 0.73361 0.53169 0.0
C554 C 0.4789 0.75932 0.52304 0.0
C555 C 0.45397 0.71919 0.59018 0.0
C556 C 0.45575 0.72064 0.65112 0.0
C557 C 0.45832 0.70181 0.68507 0.0
C558 C 0.45891 0.68082 0.65599 0.0
C559 C 0.45688 0.67875 0.59354 0.0
C560 C 0.45437 0.6983 0.56046 0.0
H561 H 0.70236 0.43819 0.83004 0.0
H562 H 0.73452 0.52272 0.81992 0.0
H563 H 0.78225 0.53025 0.78415 0.0
H564 H 0.76681 0.43779 0.86801 0.0
H565 H 0.76268 0.41242 0.81714 0.0
H566 H 0.73084 0.41287 0.84454 0.0
H567 H 0.71417 0.4144 0.73749 0.0
H568 H 0.74542 0.41303 0.70981 0.0
H569 H 0.73929 0.43957 0.68685 0.0
H570 H 0.82884 0.52911 0.76815 0.0
H571 H 0.86622 0.51935 0.72922 0.0
H572 H 0.80123 0.43576 0.72267 0.0
C573 C 0.71933 0.45819 0.81926 0.0
C574 C 0.71533 0.48007 0.83095 0.0
C575 C 0.73759 0.50582 0.81384 0.0
C576 C 0.76483 0.51032 0.79383 0.0
C577 C 0.76891 0.48864 0.78716 0.0
C578 C 0.74629 0.46297 0.79556 0.0
C579 C 0.75579 0.44325 0.7774 0.0
C580 C 0.75391 0.42554 0.82992 0.0
C581 C 0.73759 0.42658 0.72474 0.0
C582 C 0.78745 0.46195 0.75947 0.0
C583 C 0.79475 0.48799 0.76792 0.0
C584 C 0.82319 0.50884 0.75946 0.0
C585 C 0.84436 0.5031 0.73807 0.0
C586 C 0.83669 0.47691 0.72228 0.0
C587 C 0.80794 0.45597 0.73467 0.0
H588 H 0.40036 0.81021 0.95683 0.0
H589 H 0.41012 0.79633 0.77243 0.0
H590 H 0.37307 0.74897 0.78492 0.0
H591 H 0.38641 0.74409 1.01409 0.0
H592 H 0.35999 0.74212 0.06751 0.0
H593 H 0.39007 0.77396 0.04568 0.0
H594 H 0.35334 0.78929 1.01658 0.0
H595 H 0.32315 0.75742 0.03725 0.0
H596 H 0.32506 0.77033 0.96364 0.0
H597 H 0.33028 0.70473 0.8142 0.0
H598 H 0.28768 0.66621 0.85908 0.0
H599 H 0.30697 0.70767 0.02697 0.0
C600 C 0.39546 0.79688 0.91991 0.0
C601 C 0.40861 0.80665 0.86397 0.0
C602 C 0.40078 0.789 0.81583 0.0
C603 C 0.37964 0.76212 0.82252 0.0
C604 C 0.36644 0.75314 0.8778 0.0
C605 C 0.37434 0.76988 0.92596 0.0
C606 C 0.35544 0.75555 0.97946 0.0
C607 C 0.37409 0.75382 0.02966 0.0
C608 C 0.33823 0.76895 1.00044 0.0
C609 C 0.33522 0.72842 0.95347 0.0
C610 C 0.34198 0.72744 0.89484 0.0
C611 C 0.32521 0.70507 0.86051 0.0
C612 C 0.30101 0.68311 0.88673 0.0
C613 C 0.29364 0.68337 0.94713 0.0
C614 C 0.31142 0.7065 0.98067 0.0
H615 H 0.62914 0.36085 0.99399 0.0
H616 H 0.6316 0.39737 0.16256 0.0
H617 H 0.6303 0.35953 0.21484 0.0
H618 H 0.57955 0.29277 0.04086 0.0
H619 H 0.59783 0.27916 0.99837 0.0
H620 H 0.59854 0.30895 0.97342 0.0
H621 H 0.65514 0.33357 0.97081 0.0
H622 H 0.65461 0.30387 0.99562 0.0
H623 H 0.67488 0.33419 0.03646 0.0
H624 H 0.62912 0.31844 0.24933 0.0
H625 H 0.62969 0.27685 0.2647 0.0
H626 H 0.62781 0.26563 0.07461 0.0
C627 C 0.62914 0.36078 0.04191 0.0
C628 C 0.6306 0.38228 0.07409 0.0
C629 C 0.63095 0.38147 0.13679 0.0
C630 C 0.62998 0.35992 0.16695 0.0
C631 C 0.62862 0.33917 0.13399 0.0
C632 C 0.62824 0.33936 0.07289 0.0
C633 C 0.62733 0.31464 0.04845 0.0
C634 C 0.59913 0.29789 1.01319 0.0
C635 C 0.65462 0.32202 1.0106 0.0
C636 C 0.62742 0.30065 0.10544 0.0
C637 C 0.62805 0.31523 0.15409 0.0
C638 C 0.6287 0.30689 0.2116 0.0
C639 C 0.62916 0.28326 0.21982 0.0
C640 C 0.62911 0.26806 0.17091 0.0
C641 C 0.62775 0.27673 0.11285 0.0
loop_
_geom_bond_atom_site_label_1
_geom_bond_atom_site_label_2
_geom_bond_distance
_geom_bond_site_symmetry_2
_ccdc_geom_bond_type
C0 C1 1.443 . S
C0 N4 1.376 . S
C0 C38 1.389 . S
C1 C0 1.443 . S
C1 C2 1.340 . S
C1 H41 0.951 . S
C2 C1 1.340 . S
C2 C3 1.439 . S
C2 H42 0.950 . S
C3 C2 1.439 . S
C3 N4 1.374 . S
C3 C37 1.395 . S
N4 C0 1.376 . S
N4 C3 1.374 . S
N4 Co5 2.008 . S
Co5 N4 2.008 . S
Co5 N6 1.995 . S
Co5 N11 2.008 . S
Co5 N16 1.995 . S
Co5 N21 2.282 . S
Co5 N27 2.282 . S
N6 Co5 1.995 . S
N6 C7 1.376 . S
N6 C10 1.383 . S
C7 N6 1.376 . S
C7 C8 1.446 . S
C7 C37 1.391 . S
C8 C7 1.446 . S
C8 C9 1.339 . S
C8 H43 0.949 . S
C9 C8 1.339 . S
C9 C10 1.439 . S
C9 H44 0.950 . S
C10 N6 1.383 . S
C10 C9 1.439 . S
C10 C39 1.392 . S
N11 Co5 2.008 . S
N11 C12 1.376 . S
N11 C15 1.374 . S
C12 N11 1.376 . S
C12 C13 1.443 1_554 S
C12 C39 1.389 . S
C13 C12 1.443 1_556 S
C13 C14 1.340 . S
C13 H45 0.951 . S
C14 C13 1.340 . S
C14 C15 1.439 1_556 S
C14 H46 0.950 . S
C15 N11 1.374 . S
C15 C14 1.439 1_554 S
C15 C40 1.395 . S
N16 Co5 1.995 . S
N16 C17 1.376 . S
N16 C20 1.383 . S
C17 N16 1.376 . S
C17 C18 1.446 . S
C17 C40 1.391 . S
C18 C17 1.446 . S
C18 C19 1.339 . S
C18 H47 0.949 . S
C19 C18 1.339 . S
C19 C20 1.439 . S
C19 H48 0.950 . S
C20 N16 1.383 . S
C20 C19 1.439 . S
C20 C38 1.392 . S
N21 Co5 2.282 . S
N21 C24 1.332 . S
N21 C26 1.332 . S
C22 C23 1.386 . S
C22 C25 1.388 . S
C23 C22 1.386 . S
C23 C24 1.382 . S
C23 H49 0.950 . S
C24 N21 1.332 . S
C24 C23 1.382 . S
C24 H35 0.952 . S
C25 C22 1.388 . S
C25 C26 1.382 . S
C25 H50 0.950 . S
C26 N21 1.332 . S
C26 C25 1.382 . S
C26 H36 0.948 . S
N27 Co5 2.282 . S
N27 C31 1.332 . S
N27 C32 1.332 . S
C28 C29 1.388 . S
C28 C32 1.382 1_556 S
C28 H51 0.950 . S
C29 C28 1.388 . S
C29 C30 1.386 1_556 S
C30 C29 1.386 1_554 S
C30 C31 1.382 . S
C30 H52 0.950 . S
C31 N27 1.332 . S
C31 C30 1.382 . S
C31 H33 0.952 . S
C32 N27 1.332 . S
C32 C28 1.382 1_554 S
C32 H34 0.948 . S
H33 C31 0.952 . S
H34 C32 0.948 . S
H35 C24 0.952 . S
H36 C26 0.948 . S
C37 C3 1.395 . S
C37 C7 1.391 . S
C38 C0 1.389 . S
C38 C20 1.392 . S
C39 C10 1.392 . S
C39 C12 1.389 . S
C40 C15 1.395 . S
C40 C17 1.391 . S
H41 C1 0.951 . S
H42 C2 0.950 . S
H43 C8 0.949 . S
H44 C9 0.950 . S
H45 C13 0.951 . S
H46 C14 0.950 . S
H47 C18 0.949 . S
H48 C19 0.950 . S
H49 C23 0.950 . S
H50 C25 0.950 . S
H51 C28 0.950 . S
H52 C30 0.950 . S
C53 C54 1.443 . S
C53 N57 1.376 . S
C53 C91 1.389 . S
C54 C53 1.443 . S
C54 C55 1.340 . S
C54 H94 0.951 . S
C55 C54 1.340 . S
C55 C56 1.439 . S
C55 H95 0.950 . S
C56 C55 1.439 . S
C56 N57 1.374 . S
C56 C90 1.395 . S
N57 C53 1.376 . S
N57 C56 1.374 . S
N57 Co58 2.008 . S
Co58 N57 2.008 . S
Co58 N59 1.995 . S
Co58 N64 2.008 . S
Co58 N69 1.995 . S
Co58 N74 2.282 . S
Co58 N80 2.282 . S
N59 Co58 1.995 . S
N59 C60 1.376 . S
N59 C63 1.383 . S
C60 N59 1.376 . S
C60 C61 1.446 . S
C60 C90 1.391 . S
C61 C60 1.446 . S
C61 C62 1.339 . S
C61 H96 0.949 . S
C62 C61 1.339 . S
C62 C63 1.439 . S
C62 H97 0.950 . S
C63 N59 1.383 . S
C63 C62 1.439 . S
C63 C92 1.392 . S
N64 Co58 2.008 . S
N64 C65 1.376 . S
N64 C68 1.374 . S
C65 N64 1.376 . S
C65 C66 1.443 . S
C65 C92 1.389 . S
C66 C65 1.443 . S
C66 C67 1.340 . S
C66 H98 0.951 . S
C67 C66 1.340 . S
C67 C68 1.439 . S
C67 H99 0.950 . S
C68 N64 1.374 . S
C68 C67 1.439 . S
C68 C93 1.395 . S
N69 Co58 1.995 . S
N69 C70 1.376 . S
N69 C73 1.383 . S
C70 N69 1.376 . S
C70 C71 1.446 . S
C70 C93 1.391 . S
C71 C70 1.446 . S
C71 C72 1.339 . S
C71 H100 0.949 . S
C72 C71 1.339 . S
C72 C73 1.439 . S
C72 H101 0.950 . S
C73 N69 1.383 . S
C73 C72 1.439 . S
C73 C91 1.392 . S
N74 Co58 2.282 . S
N74 C77 1.332 . S
N74 C79 1.332 . S
C75 C76 1.386 . S
C75 C78 1.388 . S
C76 C75 1.386 . S
C76 C77 1.382 . S
C76 H102 0.950 . S
C77 N74 1.332 . S
C77 C76 1.382 . S
C77 H88 0.952 . S
C78 C75 1.388 . S
C78 C79 1.382 . S
C78 H103 0.950 . S
C79 N74 1.332 . S
C79 C78 1.382 . S
C79 H89 0.948 . S
N80 Co58 2.282 . S
N80 C84 1.332 . S
N80 C85 1.332 . S
C81 C82 1.388 . S
C81 C85 1.382 . S
C81 H104 0.950 . S
C82 C81 1.388 . S
C82 C83 1.386 . S
C83 C82 1.386 . S
C83 C84 1.382 . S
C83 H105 0.950 . S
C84 N80 1.332 . S
C84 C83 1.382 . S
C84 H86 0.952 . S
C85 N80 1.332 . S
C85 C81 1.382 . S
C85 H87 0.948 . S
H86 C84 0.952 . S
H87 C85 0.948 . S
H88 C77 0.952 . S
H89 C79 0.948 . S
C90 C56 1.395 . S
C90 C60 1.391 . S
C91 C53 1.389 . S
C91 C73 1.392 . S
C92 C63 1.392 . S
C92 C65 1.389 . S
C93 C68 1.395 . S
C93 C70 1.391 . S
H94 C54 0.951 . S
H95 C55 0.950 . S
H96 C61 0.949 . S
H97 C62 0.950 . S
H98 C66 0.951 . S
H99 C67 0.950 . S
H100 C71 0.949 . S
H101 C72 0.950 . S
H102 C76 0.950 . S
H103 C78 0.950 . S
H104 C81 0.950 . S
H105 C83 0.950 . S
C106 C107 1.443 . S
C106 N110 1.376 . S
C106 C144 1.389 . S
C107 C106 1.443 . S
C107 C108 1.340 . S
C107 H147 0.951 . S
C108 C107 1.340 . S
C108 C109 1.439 . S
C108 H148 0.950 . S
C109 C108 1.439 . S
C109 N110 1.374 . S
C109 C143 1.395 . S
N110 C106 1.376 . S
N110 C109 1.374 . S
N110 Co111 2.008 . S
Co111 N110 2.008 . S
Co111 N112 1.995 . S
Co111 N117 2.008 . S
Co111 N122 1.995 . S
Co111 N127 2.282 . S
Co111 N133 2.282 . S
N112 Co111 1.995 . S
N112 C113 1.376 . S
N112 C116 1.383 . S
C113 N112 1.376 . S
C113 C114 1.446 . S
C113 C143 1.391 . S
C114 C113 1.446 . S
C114 C115 1.339 . S
C114 H149 0.949 . S
C115 C114 1.339 . S
C115 C116 1.439 . S
C115 H150 0.950 . S
C116 N112 1.383 . S
C116 C115 1.439 . S
C116 C145 1.392 . S
N117 Co111 2.008 . S
N117 C118 1.376 . S
N117 C121 1.374 . S
C118 N117 1.376 . S
C118 C119 1.443 . S
C118 C145 1.389 . S
C119 C118 1.443 . S
C119 C120 1.340 . S
C119 H151 0.951 . S
C120 C119 1.340 . S
C120 C121 1.439 . S
C120 H152 0.950 . S
C121 N117 1.374 . S
C121 C120 1.439 . S
C121 C146 1.395 . S
N122 Co111 1.995 . S
N122 C123 1.376 . S
N122 C126 1.383 . S
C123 N122 1.376 . S
C123 C124 1.446 . S
C123 C146 1.391 . S
C124 C123 1.446 . S
C124 C125 1.339 . S
C124 H153 0.949 . S
C125 C124 1.339 . S
C125 C126 1.439 . S
C125 H154 0.950 . S
C126 N122 1.383 . S
C126 C125 1.439 . S
C126 C144 1.392 . S
N127 Co111 2.282 . S
N127 C130 1.332 . S
N127 C132 1.332 . S
C128 C129 1.386 . S
C128 C131 1.388 . S
C129 C128 1.386 . S
C129 C130 1.382 . S
C129 H155 0.950 . S
C130 N127 1.332 . S
C130 C129 1.382 . S
C130 H141 0.952 . S
C131 C128 1.388 . S
C131 C132 1.382 . S
C131 H156 0.950 . S
C132 N127 1.332 . S
C132 C131 1.382 . S
C132 H142 0.948 . S
N133 Co111 2.282 . S
N133 C137 1.332 . S
N133 C138 1.332 . S
C134 C135 1.388 . S
C134 C138 1.382 . S
C134 H157 0.950 . S
C135 C134 1.388 . S
C135 C136 1.386 . S
C136 C135 1.386 . S
C136 C137 1.382 . S
C136 H158 0.950 . S
C137 N133 1.332 . S
C137 C136 1.382 . S
C137 H139 0.952 . S
C138 N133 1.332 . S
C138 C134 1.382 . S
C138 H140 0.948 . S
H139 C137 0.952 . S
H140 C138 0.948 . S
H141 C130 0.952 . S
H142 C132 0.948 . S
C143 C109 1.395 . S
C143 C113 1.391 . S
C144 C106 1.389 . S
C144 C126 1.392 . S
C145 C116 1.392 . S
C145 C118 1.389 . S
C146 C121 1.395 . S
C146 C123 1.391 . S
H147 C107 0.951 . S
H148 C108 0.950 . S
H149 C114 0.949 . S
H150 C115 0.950 . S
H151 C119 0.951 . S
H152 C120 0.950 . S
H153 C124 0.949 . S
H154 C125 0.950 . S
H155 C129 0.950 . S
H156 C131 0.950 . S
H157 C134 0.950 . S
H158 C136 0.950 . S
C159 C160 1.443 . S
C159 N163 1.376 . S
C159 C197 1.389 . S
C160 C159 1.443 . S
C160 C161 1.340 . S
C160 H200 0.951 . S
C161 C160 1.340 . S
C161 C162 1.439 . S
C161 H201 0.950 . S
C162 C161 1.439 . S
C162 N163 1.374 . S
C162 C196 1.395 . S
N163 C159 1.376 . S
N163 C162 1.374 . S
N163 Co164 2.008 . S
Co164 N163 2.008 . S
Co164 N165 1.995 . S
Co164 N170 2.008 . S
Co164 N175 1.995 . S
Co164 N180 2.282 . S
Co164 N186 2.282 . S
N165 Co164 1.995 . S
N165 C166 1.376 . S
N165 C169 1.383 . S
C166 N165 1.376 . S
C166 C167 1.446 . S
C166 C196 1.391 . S
C167 C166 1.446 . S
C167 C168 1.339 . S
C167 H202 0.949 . S
C168 C167 1.339 . S
C168 C169 1.439 . S
C168 H203 0.950 . S
C169 N165 1.383 . S
C169 C168 1.439 . S
C169 C198 1.392 . S
N170 Co164 2.008 . S
N170 C171 1.376 . S
N170 C174 1.374 . S
C171 N170 1.376 . S
C171 C172 1.443 . S
C171 C198 1.389 . S
C172 C171 1.443 . S
C172 C173 1.340 . S
C172 H204 0.951 . S
C173 C172 1.340 . S
C173 C174 1.439 . S
C173 H205 0.950 . S
C174 N170 1.374 . S
C174 C173 1.439 . S
C174 C199 1.395 . S
N175 Co164 1.995 . S
N175 C176 1.376 . S
N175 C179 1.383 . S
C176 N175 1.376 . S
C176 C177 1.446 . S
C176 C199 1.391 . S
C177 C176 1.446 . S
C177 C178 1.339 . S
C177 H206 0.949 . S
C178 C177 1.339 . S
C178 C179 1.439 . S
C178 H207 0.950 . S
C179 N175 1.383 . S
C179 C178 1.439 . S
C179 C197 1.392 . S
N180 Co164 2.282 . S
N180 C183 1.332 . S
N180 C185 1.332 . S
C181 C182 1.386 . S
C181 C184 1.388 . S
C182 C181 1.386 . S
C182 C183 1.382 . S
C182 H208 0.950 . S
C183 N180 1.332 . S
C183 C182 1.382 . S
C183 H194 0.952 . S
C184 C181 1.388 . S
C184 C185 1.382 . S
C184 H209 0.950 . S
C185 N180 1.332 . S
C185 C184 1.382 . S
C185 H195 0.948 . S
N186 Co164 2.282 . S
N186 C190 1.332 . S
N186 C191 1.332 . S
C187 C188 1.388 . S
C187 C191 1.382 . S
C187 H210 0.950 . S
C188 C187 1.388 . S
C188 C189 1.386 . S
C189 C188 1.386 . S
C189 C190 1.382 . S
C189 H211 0.950 . S
C190 N186 1.332 . S
C190 C189 1.382 . S
C190 H192 0.952 . S
C191 N186 1.332 . S
C191 C187 1.382 . S
C191 H193 0.948 . S
H192 C190 0.952 . S
H193 C191 0.948 . S
H194 C183 0.952 . S
H195 C185 0.948 . S
C196 C162 1.395 . S
C196 C166 1.391 . S
C197 C159 1.389 . S
C197 C179 1.392 . S
C198 C169 1.392 . S
C198 C171 1.389 . S
C199 C174 1.395 . S
C199 C176 1.391 . S
H200 C160 0.951 . S
H201 C161 0.950 . S
H202 C167 0.949 . S
H203 C168 0.950 . S
H204 C172 0.951 . S
H205 C173 0.950 . S
H206 C177 0.949 . S
H207 C178 0.950 . S
H208 C182 0.950 . S
H209 C184 0.950 . S
H210 C187 0.950 . S
H211 C189 0.950 . S
C212 C213 1.443 . S
C212 N216 1.376 . S
C212 C250 1.389 . S
C213 C212 1.443 . S
C213 C214 1.340 . S
C213 H253 0.951 . S
C214 C213 1.340 . S
C214 C215 1.439 . S
C214 H254 0.950 . S
C215 C214 1.439 . S
C215 N216 1.374 . S
C215 C249 1.395 . S
N216 C212 1.376 . S
N216 C215 1.374 . S
N216 Co217 2.008 . S
Co217 N216 2.008 . S
Co217 N218 1.995 . S
Co217 N223 2.008 . S
Co217 N228 1.995 . S
Co217 N233 2.282 . S
Co217 N239 2.282 . S
N218 Co217 1.995 . S
N218 C219 1.376 . S
N218 C222 1.383 . S
C219 N218 1.376 . S
C219 C220 1.446 . S
C219 C249 1.391 . S
C220 C219 1.446 . S
C220 C221 1.339 . S
C220 H255 0.949 . S
C221 C220 1.339 . S
C221 C222 1.439 . S
C221 H256 0.950 . S
C222 N218 1.383 . S
C222 C221 1.439 . S
C222 C251 1.392 . S
N223 Co217 2.008 . S
N223 C224 1.376 . S
N223 C227 1.374 . S
C224 N223 1.376 . S
C224 C225 1.443 . S
C224 C251 1.389 . S
C225 C224 1.443 . S
C225 C226 1.340 . S
C225 H257 0.951 . S
C226 C225 1.340 . S
C226 C227 1.439 . S
C226 H258 0.950 . S
C227 N223 1.374 . S
C227 C226 1.439 . S
C227 C252 1.395 . S
N228 Co217 1.995 . S
N228 C229 1.376 . S
N228 C232 1.383 . S
C229 N228 1.376 . S
C229 C230 1.446 . S
C229 C252 1.391 . S
C230 C229 1.446 . S
C230 C231 1.339 . S
C230 H259 0.949 . S
C231 C230 1.339 . S
C231 C232 1.439 . S
C231 H260 0.950 . S
C232 N228 1.383 . S
C232 C231 1.439 . S
C232 C250 1.392 . S
N233 Co217 2.282 . S
N233 C236 1.332 . S
N233 C238 1.332 . S
C234 C235 1.386 . S
C234 C237 1.388 . S
C235 C234 1.386 . S
C235 C236 1.382 . S
C235 H261 0.950 . S
C236 N233 1.332 . S
C236 C235 1.382 . S
C236 H247 0.952 . S
C237 C234 1.388 . S
C237 C238 1.382 . S
C237 H262 0.950 . S
C238 N233 1.332 . S
C238 C237 1.382 . S
C238 H248 0.948 . S
N239 Co217 2.282 . S
N239 C243 1.332 . S
N239 C244 1.332 . S
C240 C241 1.388 . S
C240 C244 1.382 . S
C240 H263 0.950 . S
C241 C240 1.388 . S
C241 C242 1.386 . S
C242 C241 1.386 . S
C242 C243 1.382 . S
C242 H264 0.950 . S
C243 N239 1.332 . S
C243 C242 1.382 . S
C243 H245 0.952 . S
C244 N239 1.332 . S
C244 C240 1.382 . S
C244 H246 0.948 . S
H245 C243 0.952 . S
H246 C244 0.948 . S
H247 C236 0.952 . S
H248 C238 0.948 . S
C249 C215 1.395 . S
C249 C219 1.391 . S
C250 C212 1.389 . S
C250 C232 1.392 . S
C251 C222 1.392 . S
C251 C224 1.389 . S
C252 C227 1.395 . S
C252 C229 1.391 . S
H253 C213 0.951 . S
H254 C214 0.950 . S
H255 C220 0.949 . S
H256 C221 0.950 . S
H257 C225 0.951 . S
H258 C226 0.950 . S
H259 C230 0.949 . S
H260 C231 0.950 . S
H261 C235 0.950 . S
H262 C237 0.950 . S
H263 C240 0.950 . S
H264 C242 0.950 . S
C265 C266 1.443 . S
C265 N269 1.376 . S
C265 C303 1.389 . S
C266 C265 1.443 . S
C266 C267 1.340 . S
C266 H306 0.951 . S
C267 C266 1.340 . S
C267 C268 1.439 . S
C267 H307 0.950 . S
C268 C267 1.439 . S
C268 N269 1.374 . S
C268 C302 1.395 . S
N269 C265 1.376 . S
N269 C268 1.374 . S
N269 Co270 2.008 . S
Co270 N269 2.008 . S
Co270 N271 1.995 . S
Co270 N276 2.008 . S
Co270 N281 1.995 . S
Co270 N286 2.282 . S
Co270 N292 2.282 . S
N271 Co270 1.995 . S
N271 C272 1.376 . S
N271 C275 1.383 . S
C272 N271 1.376 . S
C272 C273 1.446 . S
C272 C302 1.391 . S
C273 C272 1.446 . S
C273 C274 1.339 . S
C273 H308 0.949 . S
C274 C273 1.339 . S
C274 C275 1.439 . S
C274 H309 0.950 . S
C275 N271 1.383 . S
C275 C274 1.439 . S
C275 C304 1.392 . S
N276 Co270 2.008 . S
N276 C277 1.376 . S
N276 C280 1.374 . S
C277 N276 1.376 . S
C277 C278 1.443 . S
C277 C304 1.389 . S
C278 C277 1.443 . S
C278 C279 1.340 . S
C278 H310 0.951 1_556 S
C279 C278 1.340 . S
C279 C280 1.439 . S
C279 H311 0.950 . S
C280 N276 1.374 . S
C280 C279 1.439 . S
C280 C305 1.395 . S
N281 Co270 1.995 . S
N281 C282 1.376 . S
N281 C285 1.383 . S
C282 N281 1.376 . S
C282 C283 1.446 . S
C282 C305 1.391 . S
C283 C282 1.446 . S
C283 C284 1.339 . S
C283 H312 0.949 . S
C284 C283 1.339 . S
C284 C285 1.439 . S
C284 H313 0.950 . S
C285 N281 1.383 . S
C285 C284 1.439 . S
C285 C303 1.392 . S
N286 Co270 2.282 . S
N286 C289 1.332 . S
N286 C291 1.332 . S
C287 C288 1.386 . S
C287 C290 1.388 . S
C288 C287 1.386 . S
C288 C289 1.382 . S
C288 H314 0.950 . S
C289 N286 1.332 . S
C289 C288 1.382 . S
C289 H300 0.952 . S
C290 C287 1.388 . S
C290 C291 1.382 . S
C290 H315 0.950 . S
C291 N286 1.332 . S
C291 C290 1.382 . S
C291 H301 0.948 . S
N292 Co270 2.282 . S
N292 C296 1.332 . S
N292 C297 1.332 . S
C293 C294 1.388 . S
C293 C297 1.382 . S
C293 H316 0.950 1_556 S
C294 C293 1.388 . S
C294 C295 1.386 . S
C295 C294 1.386 . S
C295 C296 1.382 . S
C295 H317 0.950 . S
C296 N292 1.332 . S
C296 C295 1.382 . S
C296 H298 0.952 . S
C297 N292 1.332 . S
C297 C293 1.382 . S
C297 H299 0.948 . S
H298 C296 0.952 . S
H299 C297 0.948 . S
H300 C289 0.952 . S
H301 C291 0.948 . S
C302 C268 1.395 . S
C302 C272 1.391 . S
C303 C265 1.389 . S
C303 C285 1.392 . S
C304 C275 1.392 . S
C304 C277 1.389 . S
C305 C280 1.395 . S
C305 C282 1.391 . S
H306 C266 0.951 . S
H307 C267 0.950 . S
H308 C273 0.949 . S
H309 C274 0.950 . S
H310 C278 0.951 1_554 S
H311 C279 0.950 . S
H312 C283 0.949 . S
H313 C284 0.950 . S
H314 C288 0.950 . S
H315 C290 0.950 . S
H316 C293 0.950 1_554 S
H317 C295 0.950 . S
H318 C330 0.930 . S
H319 C332 0.930 . S
H320 C333 0.930 . S
H321 C337 0.959 . S
H322 C337 0.959 . S
H323 C337 0.961 . S
H324 C338 0.960 . S
H325 C338 0.961 1_655 S
H326 C338 0.959 . S
H327 C341 0.929 . S
H328 C342 0.931 . S
H329 C344 0.930 . S
C330 H318 0.930 . S
C330 C331 1.399 . S
C330 C335 1.399 . S
C331 C330 1.399 . S
C331 C332 1.376 . S
C332 H319 0.930 . S
C332 C331 1.376 . S
C332 C333 1.388 . S
C333 H320 0.930 . S
C333 C332 1.388 . S
C333 C334 1.390 . S
C334 C333 1.390 . S
C334 C335 1.394 . S
C334 C340 1.465 . S
C335 C330 1.399 . S
C335 C334 1.394 . S
C335 C336 1.516 . S
C336 C335 1.516 . S
C336 C337 1.502 1_455 S
C336 C338 1.561 . S
C336 C339 1.526 1_455 S
C337 H321 0.959 . S
C337 H322 0.959 . S
C337 H323 0.961 . S
C337 C336 1.502 1_655 S
C338 H324 0.960 . S
C338 H325 0.961 1_455 S
C338 H326 0.959 . S
C338 C336 1.561 . S
C339 C336 1.526 1_655 S
C339 C340 1.396 1_655 S
C339 C344 1.390 . S
C340 C334 1.465 . S
C340 C339 1.396 1_455 S
C340 C341 1.399 . S
C341 H327 0.929 . S
C341 C340 1.399 . S
C341 C342 1.385 1_455 S
C342 H328 0.931 . S
C342 C341 1.385 1_655 S
C342 C343 1.389 . S
C343 C342 1.389 . S
C343 C344 1.387 . S
C344 H329 0.930 . S
C344 C339 1.390 . S
C344 C343 1.387 . S
H345 C357 0.930 . S
H346 C359 0.930 . S
H347 C360 0.930 . S
H348 C364 0.959 1_556 S
H349 C364 0.959 . S
H350 C364 0.961 1_556 S
H351 C365 0.960 . S
H352 C365 0.957 1_545 S
H353 C365 0.959 . S
H354 C368 0.929 . S
H355 C369 0.931 . S
H356 C371 0.930 . S
C357 H345 0.930 . S
C357 C358 1.399 . S
C357 C362 1.399 1_556 S
C358 C357 1.399 . S
C358 C359 1.376 . S
C359 H346 0.930 . S
C359 C358 1.376 . S
C359 C360 1.388 1_556 S
C360 H347 0.930 . S
C360 C359 1.388 1_554 S
C360 C361 1.390 . S
C361 C360 1.390 . S
C361 C362 1.394 . S
C361 C367 1.465 1_565 S
C362 C357 1.399 1_554 S
C362 C361 1.394 . S
C362 C363 1.516 1_565 S
C363 C362 1.516 1_545 S
C363 C364 1.502 . S
C363 C365 1.561 1_545 S
C363 C366 1.526 . S
C364 H348 0.959 1_554 S
C364 H349 0.959 . S
C364 H350 0.961 1_554 S
C364 C363 1.502 . S
C365 H351 0.960 . S
C365 H352 0.957 1_565 S
C365 H353 0.959 . S
C365 C363 1.561 1_565 S
C366 C363 1.526 . S
C366 C367 1.396 . S
C366 C371 1.390 . S
C367 C361 1.465 1_545 S
C367 C366 1.396 . S
C367 C368 1.399 . S
C368 H354 0.929 . S
C368 C367 1.399 . S
C368 C369 1.385 . S
C369 H355 0.931 . S
C369 C368 1.385 . S
C369 C370 1.389 . S
C370 C369 1.389 . S
C370 C371 1.387 . S
C371 H356 0.930 . S
C371 C366 1.390 . S
C371 C370 1.387 . S
H372 C384 0.930 . S
H373 C386 0.930 . S
H374 C387 0.930 . S
H375 C391 0.959 . S
H376 C391 0.959 . S
H377 C391 0.961 . S
H378 C392 0.960 . S
H379 C392 0.961 . S
H380 C392 0.959 . S
H381 C395 0.929 . S
H382 C396 0.931 . S
H383 C398 0.930 1_556 S
C384 H372 0.930 . S
C384 C385 1.399 . S
C384 C389 1.399 . S
C385 C384 1.399 . S
C385 C386 1.376 . S
C386 H373 0.930 . S
C386 C385 1.376 . S
C386 C387 1.388 . S
C387 H374 0.930 . S
C387 C386 1.388 . S
C387 C388 1.390 . S
C388 C387 1.390 . S
C388 C389 1.394 . S
C388 C394 1.465 . S
C389 C384 1.399 . S
C389 C388 1.394 . S
C389 C390 1.516 . S
C390 C389 1.516 . S
C390 C391 1.502 . S
C390 C392 1.561 . S
C390 C393 1.526 . S
C391 H375 0.959 . S
C391 H376 0.959 . S
C391 H377 0.961 . S
C391 C390 1.502 . S
C392 H378 0.960 . S
C392 H379 0.961 . S
C392 H380 0.959 . S
C392 C390 1.561 . S
C393 C390 1.526 . S
C393 C394 1.396 . S
C393 C398 1.390 . S
C394 C388 1.465 . S
C394 C393 1.396 . S
C394 C395 1.399 . S
C395 H381 0.929 . S
C395 C394 1.399 . S
C395 C396 1.385 . S
C396 H382 0.931 . S
C396 C395 1.385 . S
C396 C397 1.389 . S
C397 C396 1.389 . S
C397 C398 1.387 . S
C398 H383 0.930 1_554 S
C398 C393 1.390 . S
C398 C397 1.387 . S
H399 C411 0.930 . S
H400 C413 0.930 . S
H401 C414 0.930 . S
H402 C418 0.959 . S
H403 C418 0.959 . S
H404 C418 0.960 1_655 S
H405 C419 0.960 . S
H406 C419 0.961 . S
H407 C419 0.959 . S
H408 C422 0.929 1_655 S
H409 C423 0.931 . S
H410 C425 0.930 . S
C411 H399 0.930 . S
C411 C412 1.399 . S
C411 C416 1.399 . S
C412 C411 1.399 . S
C412 C413 1.376 . S
C413 H400 0.930 . S
C413 C412 1.376 . S
C413 C414 1.388 . S
C414 H401 0.930 . S
C414 C413 1.388 . S
C414 C415 1.390 . S
C415 C414 1.390 . S
C415 C416 1.394 . S
C415 C421 1.465 . S
C416 C411 1.399 . S
C416 C415 1.394 . S
C416 C417 1.516 . S
C417 C416 1.516 . S
C417 C418 1.502 1_655 S
C417 C419 1.561 . S
C417 C420 1.526 1_655 S
C418 H402 0.959 . S
C418 H403 0.959 . S
C418 H404 0.960 1_455 S
C418 C417 1.502 1_455 S
C419 H405 0.960 . S
C419 H406 0.961 . S
C419 H407 0.959 . S
C419 C417 1.561 . S
C420 C417 1.526 1_455 S
C420 C421 1.396 1_455 S
C420 C425 1.390 . S
C421 C415 1.465 . S
C421 C420 1.396 1_655 S
C421 C422 1.399 1_655 S
C422 H408 0.929 1_455 S
C422 C421 1.399 1_455 S
C422 C423 1.385 . S
C423 H409 0.931 . S
C423 C422 1.385 . S
C423 C424 1.389 . S
C424 C423 1.389 . S
C424 C425 1.387 . S
C425 H410 0.930 . S
C425 C420 1.390 . S
C425 C424 1.387 . S
H426 C438 0.930 . S
H427 C440 0.930 . S
H428 C441 0.930 . S
H429 C445 0.959 . S
H430 C445 0.959 . S
H431 C445 0.961 . S
H432 C446 0.960 . S
H433 C446 0.961 . S
H434 C446 0.959 . S
H435 C449 0.929 . S
H436 C450 0.931 . S
H437 C452 0.930 . S
C438 H426 0.930 . S
C438 C439 1.399 . S
C438 C443 1.399 . S
C439 C438 1.399 . S
C439 C440 1.376 . S
C440 H427 0.930 . S
C440 C439 1.376 . S
C440 C441 1.388 1_545 S
C441 H428 0.930 . S
C441 C440 1.388 1_565 S
C441 C442 1.390 . S
C442 C441 1.390 . S
C442 C443 1.394 1_565 S
C442 C448 1.465 . S
C443 C438 1.399 . S
C443 C442 1.394 1_545 S
C443 C444 1.516 . S
C444 C443 1.516 . S
C444 C445 1.502 . S
C444 C446 1.561 . S
C444 C447 1.526 1_545 S
C445 H429 0.959 . S
C445 H430 0.959 . S
C445 H431 0.961 . S
C445 C444 1.502 . S
C446 H432 0.960 . S
C446 H433 0.961 . S
C446 H434 0.959 . S
C446 C444 1.561 . S
C447 C444 1.526 1_565 S
C447 C448 1.396 . S
C447 C452 1.390 . S
C448 C442 1.465 . S
C448 C447 1.396 . S
C448 C449 1.399 . S
C449 H435 0.929 . S
C449 C448 1.399 . S
C449 C450 1.385 . S
C450 H436 0.931 . S
C450 C449 1.385 . S
C450 C451 1.389 . S
C451 C450 1.389 . S
C451 C452 1.387 . S
C452 H437 0.930 . S
C452 C447 1.390 . S
C452 C451 1.387 . S
H453 C465 0.930 . S
H454 C467 0.930 . S
H455 C468 0.930 . S
H456 C472 0.959 . S
H457 C472 0.959 . S
H458 C472 0.961 . S
H459 C473 0.960 . S
H460 C473 0.961 . S
H461 C473 0.959 . S
H462 C476 0.929 . S
H463 C477 0.931 . S
H464 C479 0.930 . S
C465 H453 0.930 . S
C465 C466 1.399 . S
C465 C470 1.399 . S
C466 C465 1.399 . S
C466 C467 1.376 . S
C467 H454 0.930 . S
C467 C466 1.376 . S
C467 C468 1.388 . S
C468 H455 0.930 . S
C468 C467 1.388 . S
C468 C469 1.390 . S
C469 C468 1.390 . S
C469 C470 1.394 . S
C469 C475 1.465 . S
C470 C465 1.399 . S
C470 C469 1.394 . S
C470 C471 1.516 . S
C471 C470 1.516 . S
C471 C472 1.502 . S
C471 C473 1.561 . S
C471 C474 1.526 . S
C472 H456 0.959 . S
C472 H457 0.959 . S
C472 H458 0.961 . S
C472 C471 1.502 . S
C473 H459 0.960 . S
C473 H460 0.961 . S
C473 H461 0.959 . S
C473 C471 1.561 . S
C474 C471 1.526 . S
C474 C475 1.396 . S
C474 C479 1.390 . S
C475 C469 1.465 . S
C475 C474 1.396 . S
C475 C476 1.399 . S
C476 H462 0.929 . S
C476 C475 1.399 . S
C476 C477 1.385 . S
C477 H463 0.931 . S
C477 C476 1.385 . S
C477 C478 1.389 . S
C478 C477 1.389 . S
C478 C479 1.387 . S
C479 H464 0.930 . S
C479 C474 1.390 . S
C479 C478 1.387 . S
H480 C492 0.930 . S
H481 C494 0.930 . S
H482 C495 0.930 . S
H483 C499 0.959 . S
H484 C499 0.959 . S
H485 C499 0.961 . S
H486 C500 0.960 . S
H487 C500 0.961 . S
H488 C500 0.959 . S
H489 C503 0.929 . S
H490 C504 0.931 . S
H491 C506 0.930 . S
C492 H480 0.930 . S
C492 C493 1.399 . S
C492 C497 1.399 . S
C493 C492 1.399 . S
C493 C494 1.376 . S
C494 H481 0.930 . S
C494 C493 1.376 . S
C494 C495 1.388 . S
C495 H482 0.930 . S
C495 C494 1.388 . S
C495 C496 1.390 . S
C496 C495 1.390 . S
C496 C497 1.394 . S
C496 C502 1.465 . S
C497 C492 1.399 . S
C497 C496 1.394 . S
C497 C498 1.516 . S
C498 C497 1.516 . S
C498 C499 1.502 . S
C498 C500 1.561 . S
C498 C501 1.526 . S
C499 H483 0.959 . S
C499 H484 0.959 . S
C499 H485 0.961 . S
C499 C498 1.502 . S
C500 H486 0.960 . S
C500 H487 0.961 . S
C500 H488 0.959 . S
C500 C498 1.561 . S
C501 C498 1.526 . S
C501 C502 1.396 . S
C501 C506 1.390 . S
C502 C496 1.465 . S
C502 C501 1.396 . S
C502 C503 1.399 . S
C503 H489 0.929 . S
C503 C502 1.399 . S
C503 C504 1.385 . S
C504 H490 0.931 . S
C504 C503 1.385 . S
C504 C505 1.389 . S
C505 C504 1.389 . S
C505 C506 1.387 . S
C506 H491 0.930 . S
C506 C501 1.390 . S
C506 C505 1.387 . S
H507 C519 0.930 . S
H508 C521 0.930 . S
H509 C522 0.930 . S
H510 C526 0.959 . S
H511 C526 0.959 . S
H512 C526 0.961 . S
H513 C527 0.960 . S
H514 C527 0.961 . S
H515 C527 0.959 . S
H516 C530 0.929 . S
H517 C531 0.931 . S
H518 C533 0.930 . S
C519 H507 0.930 . S
C519 C520 1.399 . S
C519 C524 1.399 . S
C520 C519 1.399 . S
C520 C521 1.376 . S
C521 H508 0.930 . S
C521 C520 1.376 . S
C521 C522 1.388 . S
C522 H509 0.930 . S
C522 C521 1.388 . S
C522 C523 1.390 . S
C523 C522 1.390 . S
C523 C524 1.394 . S
C523 C529 1.465 . S
C524 C519 1.399 . S
C524 C523 1.394 . S
C524 C525 1.516 . S
C525 C524 1.516 . S
C525 C526 1.502 . S
C525 C527 1.561 . S
C525 C528 1.526 . S
C526 H510 0.959 . S
C526 H511 0.959 . S
C526 H512 0.961 . S
C526 C525 1.502 . S
C527 H513 0.960 . S
C527 H514 0.961 . S
C527 H515 0.959 . S
C527 C525 1.561 . S
C528 C525 1.526 . S
C528 C529 1.396 . S
C528 C533 1.390 . S
C529 C523 1.465 . S
C529 C528 1.396 . S
C529 C530 1.399 . S
C530 H516 0.929 . S
C530 C529 1.399 . S
C530 C531 1.385 . S
C531 H517 0.931 . S
C531 C530 1.385 . S
C531 C532 1.389 . S
C532 C531 1.389 . S
C532 C533 1.387 . S
C533 H518 0.930 . S
C533 C528 1.390 . S
C533 C532 1.387 . S
H534 C546 0.930 . S
H535 C548 0.930 . S
H536 C549 0.930 . S
H537 C553 0.959 . S
H538 C553 0.959 . S
H539 C553 0.961 . S
H540 C554 0.960 . S
H541 C554 0.961 . S
H542 C554 0.959 . S
H543 C557 0.929 . S
H544 C558 0.931 . S
H545 C560 0.930 . S
C546 H534 0.930 . S
C546 C547 1.399 . S
C546 C551 1.399 . S
C547 C546 1.399 . S
C547 C548 1.376 . S
C548 H535 0.930 . S
C548 C547 1.376 . S
C548 C549 1.388 . S
C549 H536 0.930 . S
C549 C548 1.388 . S
C549 C550 1.390 . S
C550 C549 1.390 . S
C550 C551 1.394 . S
C550 C556 1.465 . S
C551 C546 1.399 . S
C551 C550 1.394 . S
C551 C552 1.516 . S
C552 C551 1.516 . S
C552 C553 1.502 . S
C552 C554 1.561 . S
C552 C555 1.526 . S
C553 H537 0.959 . S
C553 H538 0.959 . S
C553 H539 0.961 . S
C553 C552 1.502 . S
C554 H540 0.960 . S
C554 H541 0.961 . S
C554 H542 0.959 . S
C554 C552 1.561 . S
C555 C552 1.526 . S
C555 C556 1.396 . S
C555 C560 1.390 . S
C556 C550 1.465 . S
C556 C555 1.396 . S
C556 C557 1.399 . S
C557 H543 0.929 . S
C557 C556 1.399 . S
C557 C558 1.385 . S
C558 H544 0.931 . S
C558 C557 1.385 . S
C558 C559 1.389 . S
C559 C558 1.389 . S
C559 C560 1.387 . S
C560 H545 0.930 . S
C560 C555 1.390 . S
C560 C559 1.387 . S
H561 C573 0.930 . S
H562 C575 0.930 . S
H563 C576 0.930 . S
H564 C580 0.959 . S
H565 C580 0.959 . S
H566 C580 0.961 . S
H567 C581 0.960 . S
H568 C581 0.961 . S
H569 C581 0.959 . S
H570 C584 0.929 . S
H571 C585 0.931 . S
H572 C587 0.930 . S
C573 H561 0.930 . S
C573 C574 1.399 . S
C573 C578 1.399 . S
C574 C573 1.399 . S
C574 C575 1.376 . S
C575 H562 0.930 . S
C575 C574 1.376 . S
C575 C576 1.388 . S
C576 H563 0.930 . S
C576 C575 1.388 . S
C576 C577 1.390 . S
C577 C576 1.390 . S
C577 C578 1.394 . S
C577 C583 1.465 . S
C578 C573 1.399 . S
C578 C577 1.394 . S
C578 C579 1.516 . S
C579 C578 1.516 . S
C579 C580 1.502 . S
C579 C581 1.561 . S
C579 C582 1.526 . S
C580 H564 0.959 . S
C580 H565 0.959 . S
C580 H566 0.961 . S
C580 C579 1.502 . S
C581 H567 0.960 . S
C581 H568 0.961 . S
C581 H569 0.959 . S
C581 C579 1.561 . S
C582 C579 1.526 . S
C582 C583 1.396 . S
C582 C587 1.390 . S
C583 C577 1.465 . S
C583 C582 1.396 . S
C583 C584 1.399 . S
C584 H570 0.929 . S
C584 C583 1.399 . S
C584 C585 1.385 . S
C585 H571 0.931 . S
C585 C584 1.385 . S
C585 C586 1.389 . S
C586 C585 1.389 . S
C586 C587 1.387 . S
C587 H572 0.930 . S
C587 C582 1.390 . S
C587 C586 1.387 . S
H588 C600 0.930 . S
H589 C602 0.930 . S
H590 C603 0.930 . S
H591 C607 0.959 . S
H592 C607 0.959 . S
H593 C607 0.961 . S
H594 C608 0.960 . S
H595 C608 0.961 . S
H596 C608 0.959 1_556 S
H597 C611 0.929 . S
H598 C612 0.931 . S
H599 C614 0.930 1_554 S
C600 H588 0.930 . S
C600 C601 1.399 . S
C600 C605 1.399 . S
C601 C600 1.399 . S
C601 C602 1.376 . S
C602 H589 0.930 . S
C602 C601 1.376 . S
C602 C603 1.388 . S
C603 H590 0.930 . S
C603 C602 1.388 . S
C603 C604 1.390 . S
C604 C603 1.390 . S
C604 C605 1.394 . S
C604 C610 1.465 . S
C605 C600 1.399 . S
C605 C604 1.394 . S
C605 C606 1.516 . S
C606 C605 1.516 . S
C606 C607 1.502 1_556 S
C606 C608 1.561 1_556 S
C606 C609 1.526 . S
C607 H591 0.959 . S
C607 H592 0.959 . S
C607 H593 0.961 . S
C607 C606 1.502 1_554 S
C608 H594 0.960 . S
C608 H595 0.961 . S
C608 H596 0.959 1_554 S
C608 C606 1.561 1_554 S
C609 C606 1.526 . S
C609 C610 1.396 . S
C609 C614 1.390 . S
C610 C604 1.465 . S
C610 C609 1.396 . S
C610 C611 1.399 . S
C611 H597 0.929 . S
C611 C610 1.399 . S
C611 C612 1.385 . S
C612 H598 0.931 . S
C612 C611 1.385 . S
C612 C613 1.389 . S
C613 C612 1.389 . S
C613 C614 1.387 . S
C614 H599 0.930 1_556 S
C614 C609 1.390 . S
C614 C613 1.387 . S
H615 C627 0.930 1_556 S
H616 C629 0.930 . S
H617 C630 0.930 . S
H618 C634 0.959 . S
H619 C634 0.959 . S
H620 C634 0.961 . S
H621 C635 0.960 . S
H622 C635 0.961 . S
H623 C635 0.959 1_554 S
H624 C638 0.929 . S
H625 C639 0.931 . S
H626 C641 0.930 . S
C627 H615 0.930 1_554 S
C627 C628 1.399 . S
C627 C632 1.399 . S
C628 C627 1.399 . S
C628 C629 1.376 . S
C629 H616 0.930 . S
C629 C628 1.376 . S
C629 C630 1.388 . S
C630 H617 0.930 . S
C630 C629 1.388 . S
C630 C631 1.390 . S
C631 C630 1.390 . S
C631 C632 1.394 . S
C631 C637 1.465 . S
C632 C627 1.399 . S
C632 C631 1.394 . S
C632 C633 1.516 . S
C633 C632 1.516 . S
C633 C634 1.502 1_554 S
C633 C635 1.561 1_554 S
C633 C636 1.526 . S
C634 H618 0.959 . S
C634 H619 0.959 . S
C634 H620 0.961 . S
C634 C633 1.502 1_556 S
C635 H621 0.960 . S
C635 H622 0.961 . S
C635 H623 0.959 1_556 S
C635 C633 1.561 1_556 S
C636 C633 1.526 . S
C636 C637 1.396 . S
C636 C641 1.390 . S
C637 C631 1.465 . S
C637 C636 1.396 . S
C637 C638 1.399 . S
C638 H624 0.929 . S
C638 C637 1.399 . S
C638 C639 1.385 . S
C639 H625 0.931 . S
C639 C638 1.385 . S
C639 C640 1.389 . S
C640 C639 1.389 . S
C640 C641 1.387 . S
C641 H626 0.930 . S
C641 C636 1.390 . S
C641 C640 1.387 . S
C331 C39 1.874 1_556 S
C343 C181 1.886 . S
C358 C234 1.804 . S
C370 C92 1.810 . S
C385 C128 1.873 . S
C397 C304 1.852 1_554 S
C412 C198 1.874 . S
C424 C22 1.881 . S
C439 C75 1.816 . S
C451 C251 1.802 . S
C466 C287 1.868 . S
C478 C145 1.842 . S
C493 C38 1.916 . S
C505 C144 1.909 . S
C520 C91 1.835 . S
C532 C188 1.795 . S
C547 C241 1.652 . S
C559 C135 1.665 . S
C574 C303 1.925 . S
C586 C197 1.903 . S
C601 C250 1.799 . S
C613 C29 1.818 . S
C628 C294 1.684 1_554 S
C640 C82 1.654 . S
