# Generated by pormake.
# Topology lon, (4)-cn, num edge types: 1
# Building blocks:
#     Node 0, Type 0, BuildingBlock: ICAMEG_clean_sbu_1, # of connection points: 4
#     Node 1, Type 0, BuildingBlock: ICAMEG_clean_sbu_1, # of connection points: 4
#     Node 2, Type 0, BuildingBlock: ICAMEG_clean_sbu_1, # of connection points: 4
#     Node 3, Type 0, BuildingBlock: ICAMEG_clean_sbu_1, # of connection points: 4
#     Edge 4, Type (0, 0), BuildingBlock: MIFKUJ_clean_linker_0, # of connection points: 2
#     Edge 5, Type (0, 0), BuildingBlock: MIFKUJ_clean_linker_0, # of connection points: 2
#     Edge 6, Type (0, 0), BuildingBlock: MIFKUJ_clean_linker_0, # of connection points: 2
#     Edge 7, Type (0, 0), BuildingBlock: MIFKUJ_clean_linker_0, # of connection points: 2
#     Edge 8, Type (0, 0), BuildingBlock: MIFKUJ_clean_linker_0, # of connection points: 2
#     Edge 9, Type (0, 0), BuildingBlock: MIFKUJ_clean_linker_0, # of connection points: 2
#     Edge 10, Type (0, 0), BuildingBlock: MIFKUJ_clean_linker_0, # of connection points: 2
#     Edge 11, Type (0, 0), BuildingBlock: MIFKUJ_clean_linker_0, # of connection points: 2
# Relax obj value: 0.243
# Max RMSD: 0.270
# Mean RMSD: 0.258
data_MOF--net-lon--node1-ICAMEG_clean_sbu_1--edge1-MIFKUJ_clean_linker_0
_symmetry_space_group_name_H-M    P1
_symmetry_Int_Tables_number       1
_symmetry_cell_setting            triclinic
loop_
_symmetry_equiv_pos_as_xyz
'x, y, z'
_cell_length_a     28.799844
_cell_length_b     33.669142
_cell_length_c     56.961709
_cell_angle_alpha  92.168569
_cell_angle_beta   89.902622
_cell_angle_gamma 115.2586
loop_
_atom_site_label
_atom_site_type_symbol
_atom_site_fract_x
_atom_site_fract_y
_atom_site_fract_z
_atom_type_partial_charge
Co0 Co 0.35056 0.70857 0.04194 0.0
Co1 Co 0.35891 0.65334 0.09032 0.0
O2 O 0.36804 0.70831 0.07546 0.0
C3 C 0.44701 0.7941 0.05027 0.0
O4 O 0.45408 0.78458 0.0717 0.0
C5 C 0.32958 0.70443 0.1284 0.0
O6 O 0.33207 0.73471 0.11398 0.0
O7 O 0.28522 0.62508 0.08019 0.0
O8 O 0.29101 0.64969 0.04387 0.0
H9 H 0.2974 0.48962 0.09227 0.0
H10 H 0.36036 0.78389 0.07396 0.0
O11 O 0.40909 0.76774 0.03769 0.0
H12 H 0.18521 0.72563 0.04033 0.0
H13 H 0.32489 0.77517 0.96808 0.0
H14 H 0.32067 0.64164 1.00269 0.0
H15 H 0.24326 0.69197 0.02904 0.0
H16 H 0.34507 0.77518 0.01013 0.0
O17 O 0.33834 0.67202 0.12117 0.0
H18 H 0.31102 0.55939 0.07456 0.0
H19 H 0.3854 0.63055 0.13717 0.0
H20 H 0.29985 0.64012 0.9606 0.0
H21 H 0.30367 0.81878 0.08562 0.0
H22 H 0.30187 0.70724 0.94303 0.0
H23 H 0.21519 0.78952 0.06885 0.0
O24 O 0.39669 0.68062 0.03285 0.0
H25 H 0.51845 0.77563 0.12557 0.0
H26 H 0.44506 0.62628 0.08886 0.0
H27 H 0.53637 0.6611 0.10071 0.0
H28 H 0.57368 0.7363 0.11934 0.0
H29 H 0.42763 0.73985 0.11307 0.0
H30 H 0.37213 0.56151 0.15562 0.0
H31 H 0.32804 0.4904 0.13309 0.0
O32 O 0.37952 0.63129 0.06067 0.0
C33 C 0.26617 0.62381 0.05983 0.0
C34 C 0.31679 0.52041 0.10224 0.0
C35 C 0.35867 0.56075 0.1378 0.0
N36 N 0.34928 0.59905 0.10473 0.0
C37 C 0.32473 0.56004 0.09228 0.0
C38 C 0.36594 0.59973 0.12728 0.0
C39 C 0.33395 0.52087 0.12515 0.0
C40 C 0.32222 0.77119 0.06639 0.0
N41 N 0.30541 0.73597 0.05076 0.0
C42 C 0.29012 0.79098 0.07316 0.0
C43 C 0.24047 0.77451 0.06378 0.0
C44 C 0.22356 0.7386 0.04784 0.0
C45 C 0.25665 0.71958 0.04155 0.0
C46 C 0.32377 0.74569 0.97554 0.0
C47 C 0.32136 0.67092 0.99521 0.0
C48 C 0.33526 0.74551 0.99934 0.0
N49 N 0.33369 0.70833 0.00892 0.0
C50 C 0.30965 0.66988 0.97135 0.0
C51 C 0.31084 0.70756 0.9615 0.0
C52 C 0.39891 0.64678 0.04103 0.0
C53 C 0.50263 0.7428 0.11754 0.0
C54 C 0.46098 0.65912 0.09673 0.0
C55 C 0.51273 0.67861 0.10353 0.0
C56 C 0.53362 0.72076 0.114 0.0
N57 N 0.43071 0.68088 0.10028 0.0
C58 C 0.45103 0.72223 0.11052 0.0
Co59 Co 0.61379 0.30209 0.54179 0.0
Co60 Co 0.69035 0.30153 0.58712 0.0
O61 O 0.63434 0.31423 0.57516 0.0
C62 C 0.61831 0.39226 0.54867 0.0
O63 O 0.66498 0.40629 0.5575 0.0
C64 C 0.61475 0.28191 0.62735 0.0
O65 O 0.58051 0.28706 0.61422 0.0
O66 O 0.65221 0.23896 0.57582 0.0
O67 O 0.63287 0.25132 0.53964 0.0
H68 H 0.81755 0.236 0.58104 0.0
H69 H 0.5389 0.30888 0.57551 0.0
O70 O 0.59306 0.35191 0.54242 0.0
H71 H 0.4543 0.15884 0.53988 0.0
H72 H 0.49897 0.28399 0.47173 0.0
H73 H 0.65946 0.2806 0.4992 0.0
H74 H 0.54058 0.20997 0.52742 0.0
H75 H 0.52553 0.29987 0.51345 0.0
O76 O 0.65733 0.28577 0.61876 0.0
H77 H 0.7484 0.25426 0.5669 0.0
H78 H 0.74954 0.31933 0.63242 0.0
H79 H 0.63402 0.264 0.45738 0.0
H80 H 0.45209 0.25909 0.58811 0.0
H81 H 0.55316 0.2655 0.44341 0.0
H82 H 0.40934 0.18339 0.57032 0.0
O83 O 0.68466 0.34252 0.53285 0.0
H84 H 0.70591 0.4439 0.62554 0.0
H85 H 0.79877 0.36905 0.58433 0.0
H86 H 0.84537 0.44704 0.59695 0.0
H87 H 0.79897 0.48499 0.61783 0.0
H88 H 0.66069 0.36616 0.61237 0.0
H89 H 0.81831 0.30135 0.64734 0.0
H90 H 0.85295 0.25957 0.62154 0.0
O91 O 0.72742 0.31747 0.55643 0.0
C92 C 0.63778 0.22618 0.55463 0.0
C93 C 0.80285 0.25431 0.59243 0.0
C94 C 0.80323 0.29093 0.62965 0.0
N95 N 0.7451 0.28803 0.59875 0.0
C96 C 0.76377 0.26483 0.58451 0.0
C97 C 0.76416 0.30089 0.62112 0.0
C98 C 0.82267 0.26751 0.61516 0.0
C99 C 0.52038 0.27612 0.56755 0.0
N100 N 0.54496 0.26235 0.55085 0.0
C101 C 0.47128 0.24802 0.5748 0.0
C102 C 0.44733 0.20555 0.56483 0.0
C103 C 0.47255 0.19176 0.54774 0.0
C104 C 0.52156 0.2208 0.54087 0.0
C105 C 0.53426 0.28318 0.47761 0.0
C106 C 0.62419 0.28129 0.49328 0.0
C107 C 0.54961 0.29233 0.5012 0.0
N108 N 0.59387 0.29093 0.5088 0.0
C109 C 0.61002 0.27192 0.46956 0.0
C110 C 0.56467 0.2728 0.46173 0.0
C111 C 0.72576 0.34 0.53916 0.0
C112 C 0.72665 0.42764 0.61662 0.0
C113 C 0.77823 0.38522 0.59343 0.0
C114 C 0.80488 0.42944 0.60054 0.0
C115 C 0.77883 0.4507 0.61225 0.0
N116 N 0.72708 0.36265 0.59795 0.0
C117 C 0.70126 0.38344 0.60925 0.0
Co118 Co 0.3134 0.69984 0.46237 0.0
Co119 Co 0.40065 0.71742 0.41815 0.0
O120 O 0.32949 0.69591 0.42906 0.0
C121 C 0.23609 0.60947 0.47063 0.0
O122 O 0.26762 0.60834 0.48695 0.0
C123 C 0.34318 0.7414 0.38061 0.0
O124 O 0.3038 0.73315 0.39432 0.0
O125 O 0.41748 0.77616 0.43366 0.0
O126 O 0.3758 0.75694 0.46761 0.0
H127 H 0.59237 0.796 0.4282 0.0
H128 H 0.2309 0.68505 0.42735 0.0
O129 O 0.24968 0.64291 0.4579 0.0
H130 H 0.26154 0.82509 0.46923 0.0
H131 H 0.19789 0.69019 0.53068 0.0
H132 H 0.37415 0.72089 0.50671 0.0
H133 H 0.31098 0.78391 0.4798 0.0
H134 H 0.2179 0.68543 0.48886 0.0
O135 O 0.383 0.73801 0.38806 0.0
H136 H 0.50251 0.76704 0.44113 0.0
H137 H 0.44983 0.71559 0.37204 0.0
H138 H 0.35565 0.72569 0.54875 0.0
H139 H 0.17982 0.72477 0.41655 0.0
H140 H 0.26695 0.71029 0.56096 0.0
H141 H 0.19518 0.79545 0.43747 0.0
O142 O 0.35413 0.66703 0.4705 0.0
H143 H 0.29211 0.58221 0.36871 0.0
H144 H 0.45197 0.65688 0.41554 0.0
H145 H 0.43251 0.58516 0.39584 0.0
H146 H 0.35204 0.54714 0.37222 0.0
H147 H 0.31312 0.6541 0.38868 0.0
H148 H 0.53903 0.74435 0.35834 0.0
H149 H 0.61109 0.78472 0.38654 0.0
O150 O 0.42209 0.69683 0.44718 0.0
C151 C 0.40867 0.78528 0.45468 0.0
C152 C 0.56131 0.77836 0.41577 0.0
C153 C 0.53138 0.74944 0.37655 0.0
N154 N 0.47095 0.73939 0.40743 0.0
C155 C 0.51036 0.76178 0.423 0.0
C156 C 0.48092 0.73335 0.38441 0.0
C157 C 0.57178 0.77206 0.39238 0.0
C158 C 0.23754 0.71558 0.43669 0.0
N159 N 0.27412 0.73216 0.45411 0.0
C160 C 0.20862 0.73803 0.43042 0.0
C161 C 0.21731 0.77771 0.44214 0.0
C162 C 0.2546 0.7944 0.45993 0.0
C163 C 0.28277 0.77105 0.46572 0.0
C164 C 0.23662 0.69686 0.52558 0.0
C165 C 0.33544 0.7141 0.51189 0.0
C166 C 0.24824 0.69432 0.50192 0.0
N167 N 0.29724 0.70306 0.49533 0.0
C168 C 0.3252 0.71686 0.53572 0.0
C169 C 0.27542 0.7082 0.54256 0.0
C170 C 0.3991 0.67306 0.46427 0.0
C171 C 0.32732 0.59841 0.37894 0.0
C172 C 0.41678 0.64062 0.40538 0.0
C173 C 0.40595 0.59992 0.39425 0.0
C174 C 0.3609 0.57872 0.38094 0.0
N175 N 0.38408 0.66011 0.40306 0.0
C176 C 0.33956 0.63929 0.39022 0.0
Co177 Co 0.65074 0.30723 0.96578 0.0
Co178 Co 0.71294 0.36267 0.91717 0.0
O179 O 0.66864 0.30755 0.93228 0.0
C180 C 0.66677 0.2241 0.95771 0.0
O181 O 0.68454 0.23479 0.93654 0.0
C182 C 0.63198 0.31011 0.87984 0.0
O183 O 0.60522 0.27999 0.89456 0.0
O184 O 0.66629 0.38974 0.92725 0.0
O185 O 0.64768 0.36525 0.96361 0.0
H186 H 0.81083 0.52667 0.91406 0.0
H187 H 0.58727 0.22973 0.93473 0.0
O188 O 0.65262 0.249 0.9702 0.0
H189 H 0.46649 0.28544 0.96698 0.0
H190 H 0.55977 0.23988 0.03981 0.0
H191 H 0.68555 0.37465 1.00481 0.0
H192 H 0.5583 0.32199 0.97794 0.0
H193 H 0.58036 0.23994 0.99778 0.0
O194 O 0.67328 0.34279 0.88656 0.0
H195 H 0.75666 0.45693 0.93234 0.0
H196 H 0.76127 0.38512 0.87011 0.0
H197 H 0.66575 0.37611 0.04688 0.0
H198 H 0.49565 0.19161 0.92371 0.0
H199 H 0.60244 0.30837 0.06465 0.0
H200 H 0.43449 0.21955 0.93979 0.0
O201 O 0.72468 0.33691 0.97476 0.0
H202 H 0.7551 0.24346 0.88097 0.0
H203 H 0.82629 0.39149 0.91934 0.0
H204 H 0.8847 0.35858 0.90721 0.0
H205 H 0.84923 0.28412 0.88772 0.0
H206 H 0.69802 0.2772 0.89383 0.0
H207 H 0.81505 0.45405 0.8511 0.0
H208 H 0.84039 0.5255 0.87315 0.0
O209 O 0.75555 0.38596 0.94671 0.0
C210 C 0.64826 0.39085 0.94758 0.0
C211 C 0.80018 0.49574 0.9043 0.0
C212 C 0.80251 0.455 0.86896 0.0
N213 N 0.7561 0.41697 0.90239 0.0
C214 C 0.76962 0.45614 0.91458 0.0
C215 C 0.77193 0.41606 0.8798 0.0
C216 C 0.81671 0.49507 0.88134 0.0
C217 C 0.56099 0.24183 0.94205 0.0
N218 N 0.57832 0.27796 0.95707 0.0
C219 C 0.50909 0.22022 0.93563 0.0
C220 C 0.47481 0.23594 0.94462 0.0
C221 C 0.49274 0.27293 0.95985 0.0
C222 C 0.54489 0.29364 0.9659 0.0
C223 C 0.58734 0.26963 0.03226 0.0
C224 C 0.65774 0.3451 0.01238 0.0
C225 C 0.59924 0.26986 1.00847 0.0
N226 N 0.63386 0.30738 0.99879 0.0
C227 C 0.64677 0.3461 0.03623 0.0
C228 C 0.61129 0.30807 0.04619 0.0
C229 C 0.75999 0.37104 0.96644 0.0
C230 C 0.77105 0.27599 0.88937 0.0
C231 C 0.81039 0.35891 0.91109 0.0
C232 C 0.84375 0.34052 0.90415 0.0
C233 C 0.82384 0.29878 0.8932 0.0
N234 N 0.7586 0.33641 0.90723 0.0
C235 C 0.73886 0.29541 0.89658 0.0
H236 H 0.30284 0.64159 0.16106 0.0
H237 H 0.299 0.65085 0.20356 0.0
H238 H 0.34005 0.78897 0.19666 0.0
H239 H 0.34218 0.77949 0.15388 0.0
H240 H 0.36878 0.69285 0.23387 0.0
H241 H 0.2972 0.8299 0.24298 0.0
H242 H 0.24017 0.85482 0.22201 0.0
H243 H 0.15577 0.72476 0.19161 0.0
H244 H 0.21184 0.69894 0.21264 0.0
H245 H 0.421 0.77617 0.34949 0.0
H246 H 0.4141 0.77515 0.30673 0.0
H247 H 0.2489 0.71629 0.31099 0.0
H248 H 0.25561 0.71865 0.35394 0.0
H249 H 0.27761 0.77004 0.27554 0.0
H250 H 0.31467 0.65324 0.3013 0.0
H251 H 0.36267 0.62125 0.32371 0.0
H252 H 0.49852 0.69481 0.28493 0.0
H253 H 0.45155 0.72789 0.26257 0.0
C254 C 0.3104 0.67389 0.16853 0.0
C255 C 0.32273 0.7098 0.15402 0.0
C256 C 0.30843 0.67918 0.19291 0.0
C257 C 0.31909 0.72059 0.20351 0.0
C258 C 0.33074 0.75648 0.18902 0.0
C259 C 0.33205 0.75106 0.16451 0.0
C260 C 0.32006 0.72621 0.2297 0.0
C261 C 0.34878 0.70977 0.24288 0.0
C262 C 0.29334 0.74755 0.24175 0.0
C263 C 0.2591 0.76265 0.2292 0.0
C264 C 0.26637 0.8066 0.23189 0.0
C265 C 0.23422 0.82088 0.21998 0.0
C266 C 0.19449 0.79143 0.20542 0.0
C267 C 0.18669 0.74758 0.20282 0.0
C268 C 0.21868 0.73313 0.2147 0.0
C269 C 0.38317 0.76374 0.34137 0.0
C270 C 0.33883 0.74711 0.35513 0.0
C271 C 0.37927 0.763 0.31688 0.0
C272 C 0.33095 0.74464 0.30553 0.0
C273 C 0.28662 0.73043 0.31928 0.0
C274 C 0.29051 0.73179 0.34387 0.0
C275 C 0.32687 0.73727 0.27947 0.0
C276 C 0.29765 0.75328 0.2664 0.0
C277 C 0.35172 0.71424 0.26752 0.0
C278 C 0.37969 0.69332 0.28038 0.0
C279 C 0.35483 0.66272 0.2976 0.0
C280 C 0.38186 0.64443 0.31032 0.0
C281 C 0.43364 0.65607 0.30578 0.0
C282 C 0.45842 0.68588 0.28844 0.0
C283 C 0.43161 0.7044 0.27573 0.0
H284 H 0.45453 0.64194 0.31567 0.0
H285 H 0.16967 0.80256 0.19621 0.0
H286 H 0.66754 0.25502 0.65782 0.0
H287 H 0.66197 0.25332 0.70052 0.0
H288 H 0.54253 0.29839 0.69823 0.0
H289 H 0.54676 0.29868 0.6553 0.0
H290 H 0.68383 0.31546 0.73127 0.0
H291 H 0.46739 0.26799 0.74627 0.0
H292 H 0.38374 0.22233 0.72706 0.0
H293 H 0.44754 0.14103 0.69335 0.0
H294 H 0.53135 0.18583 0.7126 0.0
H295 H 0.65932 0.3736 0.84769 0.0
H296 H 0.64711 0.364 0.80514 0.0
H297 H 0.56482 0.22379 0.81152 0.0
H298 H 0.5752 0.23347 0.85442 0.0
H299 H 0.52368 0.2487 0.77684 0.0
H300 H 0.69408 0.27259 0.7985 0.0
H301 H 0.77787 0.31163 0.81885 0.0
H302 H 0.80829 0.42615 0.77945 0.0
H303 H 0.72424 0.38804 0.75915 0.0
C304 C 0.63953 0.26399 0.66635 0.0
C305 C 0.60752 0.27693 0.65309 0.0
C306 C 0.63653 0.26318 0.69084 0.0
C307 C 0.60173 0.27558 0.70278 0.0
C308 C 0.56909 0.28786 0.68953 0.0
C309 C 0.57161 0.28813 0.66494 0.0
C310 C 0.60169 0.27772 0.72904 0.0
C311 C 0.6487 0.30074 0.74115 0.0
C312 C 0.55616 0.25801 0.74217 0.0
C313 C 0.50577 0.23057 0.7307 0.0
C314 C 0.4635 0.24027 0.73483 0.0
C315 C 0.41607 0.21455 0.72392 0.0
C316 C 0.41037 0.17889 0.70893 0.0
C317 C 0.45205 0.16876 0.70489 0.0
C318 C 0.49955 0.19435 0.71577 0.0
C319 C 0.63795 0.34074 0.84008 0.0
C320 C 0.61862 0.30423 0.85442 0.0
C321 C 0.63118 0.33527 0.81571 0.0
C322 C 0.60619 0.29306 0.80498 0.0
C323 C 0.58449 0.25668 0.81933 0.0
C324 C 0.59047 0.26224 0.84385 0.0
C325 C 0.6056 0.28696 0.77888 0.0
C326 C 0.55866 0.2633 0.76686 0.0
C327 C 0.65138 0.30499 0.76579 0.0
C328 C 0.70267 0.32756 0.77743 0.0
C329 C 0.71856 0.30615 0.79423 0.0
C330 C 0.76607 0.32813 0.80578 0.0
C331 C 0.79833 0.37137 0.80048 0.0
C332 C 0.78323 0.39266 0.78355 0.0
C333 C 0.73567 0.37088 0.772 0.0
H334 H 0.83505 0.38837 0.80948 0.0
H335 H 0.37363 0.15904 0.70049 0.0
H336 H 0.43891 0.66311 0.99652 0.0
H337 H 0.48577 0.62691 0.97541 0.0
H338 H 0.467 0.54423 0.03394 0.0
H339 H 0.41902 0.57865 0.05473 0.0
H340 H 0.57187 0.58995 0.01642 0.0
H341 H 0.39568 0.49935 0.99068 0.0
H342 H 0.31331 0.48735 0.97202 0.0
H343 H 0.39035 0.53663 0.90758 0.0
H344 H 0.47338 0.54955 0.92602 0.0
H345 H 0.61359 0.40594 0.99003 0.0
H346 H 0.57736 0.45729 1.00017 0.0
H347 H 0.59784 0.50125 0.92917 0.0
H348 H 0.63422 0.44897 0.91857 0.0
H349 H 0.50222 0.48799 0.94685 0.0
H350 H 0.67646 0.56724 0.97045 0.0
H351 H 0.759 0.57915 0.98886 0.0
H352 H 0.68842 0.5542 0.05648 0.0
H353 H 0.6052 0.54143 0.03844 0.0
C354 C 0.4446 0.63711 1.00487 0.0
C355 C 0.42571 0.62432 0.02752 0.0
C356 C 0.47135 0.6165 0.99277 0.0
C357 C 0.48016 0.5832 1.00324 0.0
C358 C 0.46101 0.57016 0.02567 0.0
C359 C 0.43359 0.59005 0.03754 0.0
C360 C 0.50966 0.56174 0.99122 0.0
C361 C 0.55674 0.56767 1.00121 0.0
C362 C 0.49064 0.53389 0.9709 0.0
C363 C 0.44079 0.52601 0.95982 0.0
C364 C 0.39513 0.50808 0.97262 0.0
C365 C 0.34831 0.50101 0.96206 0.0
C366 C 0.34662 0.51139 0.93866 0.0
C367 C 0.39174 0.52872 0.92573 0.0
C368 C 0.43868 0.53592 0.93622 0.0
C369 C 0.61065 0.4264 0.97642 0.0
C370 C 0.62707 0.42323 0.95342 0.0
C371 C 0.59 0.456 0.98234 0.0
C372 C 0.58548 0.48356 0.96553 0.0
C373 C 0.6012 0.48038 0.94244 0.0
C374 C 0.62214 0.45062 0.93645 0.0
C375 C 0.56379 0.5151 0.97254 0.0
C376 C 0.51816 0.51111 0.96168 0.0
C377 C 0.58435 0.54509 0.992 0.0
C378 C 0.63447 0.55317 1.00304 0.0
C379 C 0.67843 0.56402 0.98923 0.0
C380 C 0.72537 0.57095 0.9996 0.0
C381 C 0.72894 0.56739 0.02382 0.0
C382 C 0.6856 0.55696 0.03772 0.0
C383 C 0.63854 0.54994 0.02743 0.0
H384 H 0.76532 0.57276 0.03182 0.0
H385 H 0.31033 0.50588 0.93051 0.0
H386 H 0.15363 0.6127 0.44817 0.0
H387 H 0.06276 0.56365 0.45287 0.0
H388 H 0.10438 0.48322 0.49772 0.0
H389 H 0.19519 0.53185 0.49302 0.0
H390 H 0.02339 0.43315 0.46842 0.0
H391 H 0.071 0.5596 0.52204 0.0
H392 H 0.10613 0.6388 0.53265 0.0
H393 H 0.99416 0.65152 0.48766 0.0
H394 H 0.95838 0.57226 0.47676 0.0
H395 H 0.81643 0.33328 0.54394 0.0
H396 H 0.8977 0.37595 0.52532 0.0
H397 H 0.82718 0.4437 0.48638 0.0
H398 H 0.74505 0.40122 0.50533 0.0
H399 H 0.91761 0.50049 0.50653 0.0
H400 H 0.8611 0.36915 0.4584 0.0
H401 H 0.82595 0.28924 0.44987 0.0
H402 H 0.95498 0.2848 0.48534 0.0
H403 H 0.99056 0.36459 0.4944 0.0
C404 C 0.14354 0.58409 0.45865 0.0
C405 C 0.18175 0.57636 0.47034 0.0
C406 C 0.09152 0.55622 0.46144 0.0
C407 C 0.07672 0.52008 0.47591 0.0
C408 C 0.11485 0.51093 0.4865 0.0
C409 C 0.16681 0.53887 0.48383 0.0
C410 C 0.02178 0.49343 0.48136 0.0
C411 C 1.00025 0.4478 0.4768 0.0
C412 C 0.99119 0.51265 0.49182 0.0
C413 C 0.01246 0.5602 0.49837 0.0
C414 C 0.05414 0.57938 0.51428 0.0
C415 C 0.07413 0.62425 0.52036 0.0
C416 C 0.05265 0.65027 0.51071 0.0
C417 C 0.01088 0.63136 0.49507 0.0
C418 C 0.99065 0.58645 0.48897 0.0
C419 C 0.81778 0.35693 0.53128 0.0
C420 C 0.77397 0.36375 0.52617 0.0
C421 C 0.86442 0.3812 0.52051 0.0
C422 C 0.86853 0.41271 0.50422 0.0
C423 C 0.82485 0.4194 0.49882 0.0
C424 C 0.7779 0.39496 0.5096 0.0
C425 C 0.91928 0.43998 0.49392 0.0
C426 C 0.9402 0.4858 0.49767 0.0
C427 C 0.94934 0.42084 0.48281 0.0
C428 C 0.92836 0.37287 0.47719 0.0
C429 C 0.88184 0.3511 0.46451 0.0
C430 C 0.86185 0.30582 0.45957 0.0
C431 C 0.88818 0.28195 0.46709 0.0
C432 C 0.93463 0.30333 0.47952 0.0
C433 C 0.95477 0.34861 0.48454 0.0
H434 H 0.87263 0.24689 0.46325 0.0
H435 H 0.06823 0.68502 0.51543 0.0
H436 H 0.64934 0.14789 0.93244 0.0
H437 H 0.62098 0.07408 0.94779 0.0
H438 H 0.63301 0.1283 0.01851 0.0
H439 H 0.66041 0.20175 1.00336 0.0
H440 H 0.66984 0.0612 0.01308 0.0
H441 H 0.52283 0.08866 0.99479 0.0
H442 H 0.46908 0.10942 0.96885 0.0
H443 H 0.44771 1.00085 0.92121 0.0
H444 H 0.50229 0.97998 0.94666 0.0
H445 H 0.50743 0.87111 0.07464 0.0
H446 H 0.55322 0.94404 0.05857 0.0
H447 H 0.50685 0.8877 0.98842 0.0
H448 H 0.45969 0.81544 1.0044 0.0
H449 H 0.49059 0.95643 0.99271 0.0
H450 H 0.63466 0.92645 0.01112 0.0
H451 H 0.69031 0.90626 0.0362 0.0
H452 H 0.71872 0.01812 0.08251 0.0
H453 H 0.66268 0.03866 0.05787 0.0
C454 C 0.64686 0.14414 0.95126 0.0
C455 C 0.65686 0.18054 0.96668 0.0
C456 C 0.63051 0.10199 0.96 0.0
C457 C 0.62467 0.09576 0.98429 0.0
C458 C 0.63736 0.1324 0.99974 0.0
C459 C 0.65281 0.1743 0.99102 0.0
C460 C 0.60149 0.05091 0.99356 0.0
C461 C 0.63057 0.03826 0.00878 0.0
C462 C 0.55052 0.02091 0.98765 0.0
C463 C 0.51718 0.03309 0.97248 0.0
C464 C 0.50709 0.06946 0.97867 0.0
C465 C 0.47641 0.08122 0.96408 0.0
C466 C 0.45511 0.05655 0.94336 0.0
C467 C 0.46434 0.01999 0.93724 0.0
C468 C 0.49515 0.00819 0.95174 0.0
C469 C 0.50766 0.87426 0.05578 0.0
C470 C 0.47987 0.83751 0.04082 0.0
C471 C 0.53397 0.91598 0.04657 0.0
C472 C 0.53392 0.92155 0.02219 0.0
C473 C 0.50738 0.88451 1.00726 0.0
C474 C 0.48054 0.8431 0.01645 0.0
C475 C 0.55904 0.96601 0.01218 0.0
C476 C 0.53011 0.97889 0.9969 0.0
C477 C 0.61027 0.99605 0.01795 0.0
C478 C 0.64409 0.98385 0.03276 0.0
C479 C 0.65248 0.94656 0.02675 0.0
C480 C 0.68414 0.93509 0.04087 0.0
C481 C 0.70793 0.96083 0.06097 0.0
C482 C 0.70022 0.99818 0.06695 0.0
C483 C 0.66855 0.00978 0.0529 0.0
H484 H 0.73243 0.95189 0.07188 0.0
H485 H 0.43135 0.06568 0.93209 0.0
H486 H 0.66124 0.4822 0.55655 0.0
H487 H 0.62501 0.5331 0.54554 0.0
H488 H 0.48809 0.4237 0.51908 0.0
H489 H 0.52363 0.37295 0.52991 0.0
H490 H 0.52448 0.48646 0.48763 0.0
H491 H 0.48602 0.47768 0.56973 0.0
H492 H 0.50563 0.48272 0.61215 0.0
H493 H 0.60632 0.61976 0.60754 0.0
H494 H 0.58785 0.61539 0.56499 0.0
H495 H 0.3653 0.62008 0.5021 0.0
H496 H 0.40452 0.57609 0.51944 0.0
H497 H 0.53128 0.62935 0.47204 0.0
H498 H 0.49283 0.67365 0.45471 0.0
H499 H 0.49875 0.59469 0.54126 0.0
H500 H 0.55754 0.54205 0.45238 0.0
H501 H 0.53063 0.53012 0.41062 0.0
H502 H 0.3774 0.50722 0.43 0.0
H503 H 0.40312 0.51818 0.47188 0.0
C504 C 0.62321 0.46898 0.54861 0.0
C505 C 0.59556 0.42344 0.54401 0.0
C506 C 0.60251 0.49811 0.54236 0.0
C507 C 0.55381 0.48223 0.53144 0.0
C508 C 0.52581 0.43678 0.52735 0.0
C509 C 0.54627 0.40775 0.53363 0.0
C510 C 0.53255 0.51268 0.52324 0.0
C511 C 0.51916 0.51027 0.49937 0.0
C512 C 0.52486 0.54336 0.53856 0.0
C513 C 0.53598 0.54609 0.56413 0.0
C514 C 0.51269 0.5088 0.57772 0.0
C515 C 0.52353 0.51155 0.6018 0.0
C516 C 0.55732 0.5515 0.61252 0.0
C517 C 0.58023 0.58882 0.5992 0.0
C518 C 0.56956 0.58623 0.57511 0.0
C519 C 0.40174 0.6228 0.49546 0.0
C520 C 0.42529 0.64991 0.47665 0.0
C521 C 0.42423 0.59773 0.5055 0.0
C522 C 0.47047 0.59897 0.49683 0.0
C523 C 0.49523 0.62743 0.4788 0.0
C524 C 0.47303 0.65272 0.46888 0.0
C525 C 0.49134 0.56871 0.50563 0.0
C526 C 0.50463 0.57116 0.52954 0.0
C527 C 0.49828 0.53751 0.49041 0.0
C528 C 0.48246 0.53143 0.46526 0.0
C529 C 0.51809 0.53441 0.44773 0.0
C530 C 0.50302 0.52773 0.42404 0.0
C531 C 0.45233 0.51785 0.41768 0.0
C532 C 0.41665 0.51486 0.43497 0.0
C533 C 0.43148 0.52138 0.45868 0.0
H534 H 0.4407 0.51253 0.39934 0.0
H535 H 0.56565 0.55357 0.63117 0.0
H536 H 0.21488 0.61268 0.01812 0.0
H537 H 0.12538 0.56584 0.0089 0.0
H538 H 0.10462 0.51449 0.07823 0.0
H539 H 0.19517 0.56251 0.08806 0.0
H540 H 0.05853 0.44951 0.03678 0.0
H541 H 0.05941 0.58082 0.07287 0.0
H542 H 0.09031 0.66089 0.07945 0.0
H543 H 0.0538 0.67256 1.00774 0.0
H544 H 0.02359 0.59265 1.00058 0.0
H545 H 0.7879 0.35037 0.00891 0.0
H546 H 0.86957 0.38924 0.03041 0.0
H547 H 0.92409 0.48389 0.97622 0.0
H548 H 0.84287 0.44606 0.95495 0.0
H549 H 0.94832 0.52444 0.01801 0.0
H550 H 0.96049 0.39906 0.9797 0.0
H551 H 0.93328 0.32012 0.97032 0.0
H552 H 0.94829 0.29812 0.04312 0.0
H553 H 0.97492 0.37691 0.05298 0.0
C554 C 0.1917 0.5916 0.03158 0.0
C555 C 0.21237 0.59203 0.05404 0.0
C556 C 0.14037 0.56468 0.02617 0.0
C557 C 0.1083 0.5371 0.04294 0.0
C558 C 0.12887 0.53575 0.06508 0.0
C559 C 0.18052 0.56325 0.07067 0.0
C560 C 0.05303 0.51128 0.03708 0.0
C561 C 0.03385 0.46561 0.03324 0.0
C562 C 0.02146 0.53258 0.03192 0.0
C563 C 0.03944 0.5807 0.03617 0.0
C564 C 0.05835 0.60048 0.05844 0.0
C565 C 0.07566 0.64585 0.06229 0.0
C566 C 0.0739 0.67177 0.04404 0.0
C567 C 0.05501 0.65241 0.02188 0.0
C568 C 0.03775 0.60707 0.01792 0.0
C569 C 0.81722 0.37954 1.0016 0.0
C570 C 0.80873 0.39483 0.98007 0.0
C571 C 0.86399 0.40164 0.01389 0.0
C572 C 0.90324 0.43931 1.00484 0.0
C573 C 0.89445 0.45496 0.9836 0.0
C574 C 0.84788 0.43305 0.97137 0.0
C575 C 0.95387 0.46259 0.01714 0.0
C576 C 0.97233 0.50797 0.02208 0.0
C577 C 0.98491 0.44105 0.02302 0.0
C578 C 0.96902 0.39374 0.01712 0.0
C579 C 0.95755 0.37732 0.99374 0.0
C580 C 0.94231 0.33262 0.98833 0.0
C581 C 0.93889 0.30409 1.00612 0.0
C582 C 0.95084 0.32024 0.02936 0.0
C583 C 0.96601 0.36491 0.03487 0.0
H584 H 0.9271 0.2695 1.0019 0.0
H585 H 0.08722 0.70687 0.04707 0.0
H586 H 0.65661 0.19927 0.51173 0.0
H587 H 0.6253 0.12411 0.49549 0.0
H588 H 0.55691 0.07482 0.56195 0.0
H589 H 0.59052 0.15047 0.57864 0.0
H590 H 0.59257 0.02111 0.54222 0.0
H591 H 0.48696 0.08963 0.51537 0.0
H592 H 0.47181 0.14841 0.49704 0.0
H593 H 0.53454 0.12493 0.43242 0.0
H594 H 0.55058 0.0663 0.45038 0.0
H595 H 0.40403 0.81532 0.49953 0.0
H596 H 0.44887 0.88969 0.51636 0.0
H597 H 0.52367 0.93326 0.45042 0.0
H598 H 0.47829 0.85852 0.43317 0.0
H599 H 0.48661 0.98982 0.46931 0.0
H600 H 0.58945 0.91949 0.49615 0.0
H601 H 0.60525 0.86142 0.51483 0.0
H602 H 0.54659 0.88832 0.57989 0.0
H603 H 0.52974 0.94615 0.5615 0.0
C604 C 0.63571 0.17235 0.52301 0.0
C605 C 0.62571 0.18063 0.54641 0.0
C606 C 0.61747 0.12938 0.51366 0.0
C607 C 0.58734 0.09373 0.52725 0.0
C608 C 0.57971 0.10177 0.55105 0.0
C609 C 0.599 0.14494 0.5606 0.0
C610 C 0.56183 0.04855 0.51623 0.0
C611 C 0.5689 0.0142 0.52645 0.0
C612 C 0.53164 0.03953 0.49534 0.0
C613 C 0.52033 0.07376 0.48428 0.0
C614 C 0.49765 0.09706 0.49727 0.0
C615 C 0.48896 0.13039 0.48696 0.0
C616 C 0.50241 0.14051 0.46364 0.0
C617 C 0.52423 0.1171 0.4505 0.0
C618 C 0.53304 0.08376 0.46072 0.0
C619 C 0.43005 0.84053 0.4885 0.0
C620 C 0.43746 0.83069 0.46491 0.0
C621 C 0.4559 0.88314 0.49825 0.0
C622 C 0.4901 0.91706 0.48476 0.0
C623 C 0.49753 0.90759 0.46119 0.0
C624 C 0.47167 0.86479 0.45137 0.0
C625 C 0.51736 0.96242 0.49531 0.0
C626 C 0.51042 0.99678 0.48504 0.0
C627 C 0.54737 0.97138 0.51621 0.0
C628 C 0.55794 0.93691 0.52739 0.0
C629 C 0.57959 0.91282 0.5144 0.0
C630 C 0.58878 0.87997 0.52494 0.0
C631 C 0.57683 0.87112 0.54852 0.0
C632 C 0.55579 0.89519 0.56162 0.0
C633 C 0.54646 0.92804 0.55115 0.0
H634 H 0.58396 0.84567 0.55665 0.0
H635 H 0.49581 0.16642 0.45573 0.0
loop_
_geom_bond_atom_site_label_1
_geom_bond_atom_site_label_2
_geom_bond_distance
_geom_bond_site_symmetry_2
_ccdc_geom_bond_type
Co0 O2 2.143 . S
Co0 O8 2.074 . S
Co0 O11 2.093 . S
Co0 O24 2.097 . S
Co0 N41 2.151 . S
Co0 N49 2.214 1_554 S
Co1 O2 2.160 . S
Co1 O7 2.058 . S
Co1 O17 2.057 . S
Co1 O32 2.037 . S
Co1 N36 2.145 . S
Co1 N57 2.257 . S
O2 Co0 2.143 . S
O2 Co1 2.160 . S
C3 O4 1.278 . S
C3 O11 1.224 . S
O4 C3 1.278 . S
C5 O6 1.245 . S
C5 O17 1.232 . S
O6 C5 1.245 . S
O7 Co1 2.058 . S
O7 C33 1.269 . S
O8 Co0 2.074 . S
O8 C33 1.257 . S
H9 C34 0.930 . S
H10 C40 0.930 . S
O11 Co0 2.093 . S
O11 C3 1.224 . S
H12 C44 0.929 . S
H13 C46 0.930 . S
H14 C47 0.930 . S
H15 C45 0.929 . S
H16 C48 0.928 . S
O17 Co1 2.057 . S
O17 C5 1.232 . S
H18 C37 0.929 . S
H19 C38 0.929 . S
H20 C50 0.931 . S
H21 C42 0.929 . S
H22 C51 0.930 . S
H23 C43 0.931 . S
O24 Co0 2.097 . S
O24 C52 1.214 . S
H25 C53 0.929 . S
H26 C54 0.929 . S
H27 C55 0.930 . S
H28 C56 0.929 . S
H29 C58 0.930 . S
H30 C35 0.930 . S
H31 C39 0.930 . S
O32 Co1 2.037 . S
O32 C52 1.234 . S
C33 O7 1.269 . S
C33 O8 1.257 . S
C34 H9 0.930 . S
C34 C37 1.388 . S
C34 C39 1.418 . S
C35 H30 0.930 . S
C35 C38 1.404 . S
C35 C39 1.353 . S
N36 Co1 2.145 . S
N36 C37 1.397 . S
N36 C38 1.334 . S
C37 H18 0.929 . S
C37 C34 1.388 . S
C37 N36 1.397 . S
C38 H19 0.929 . S
C38 C35 1.404 . S
C38 N36 1.334 . S
C39 H31 0.930 . S
C39 C34 1.418 . S
C39 C35 1.353 . S
C40 H10 0.930 . S
C40 N41 1.330 . S
C40 C42 1.446 . S
N41 Co0 2.151 . S
N41 C40 1.330 . S
N41 C45 1.418 . S
C42 H21 0.929 . S
C42 C40 1.446 . S
C42 C43 1.332 . S
C43 H23 0.931 . S
C43 C42 1.332 . S
C43 C44 1.267 . S
C44 H12 0.929 . S
C44 C43 1.267 . S
C44 C45 1.251 . S
C45 H15 0.929 . S
C45 N41 1.418 . S
C45 C44 1.251 . S
C46 H13 0.930 . S
C46 C48 1.406 . S
C46 C51 1.261 . S
C47 H14 0.930 . S
C47 N49 1.325 . S
C47 C50 1.357 . S
C48 H16 0.928 . S
C48 C46 1.406 . S
C48 N49 1.261 . S
N49 Co0 2.214 1_556 S
N49 C47 1.325 . S
N49 C48 1.261 . S
C50 H20 0.931 . S
C50 C47 1.357 . S
C50 C51 1.312 . S
C51 H22 0.930 . S
C51 C46 1.261 . S
C51 C50 1.312 . S
C52 O24 1.214 . S
C52 O32 1.234 . S
C53 H25 0.929 . S
C53 C56 1.391 . S
C53 C58 1.391 . S
C54 H26 0.929 . S
C54 C55 1.390 . S
C54 N57 1.391 . S
C55 H27 0.930 . S
C55 C54 1.390 . S
C55 C56 1.392 . S
C56 H28 0.929 . S
C56 C53 1.391 . S
C56 C55 1.392 . S
N57 Co1 2.257 . S
N57 C54 1.391 . S
N57 C58 1.388 . S
C58 H29 0.930 . S
C58 C53 1.391 . S
C58 N57 1.388 . S
Co59 O61 2.143 . S
Co59 O67 2.074 . S
Co59 O70 2.093 . S
Co59 O83 2.097 . S
Co59 N100 2.151 . S
Co59 N108 2.214 . S
Co60 O61 2.160 . S
Co60 O66 2.058 . S
Co60 O76 2.057 . S
Co60 O91 2.037 . S
Co60 N95 2.145 . S
Co60 N116 2.257 . S
O61 Co59 2.143 . S
O61 Co60 2.160 . S
C62 O63 1.278 . S
C62 O70 1.224 . S
O63 C62 1.278 . S
C64 O65 1.245 . S
C64 O76 1.232 . S
O65 C64 1.245 . S
O66 Co60 2.058 . S
O66 C92 1.269 . S
O67 Co59 2.074 . S
O67 C92 1.257 . S
H68 C93 0.930 . S
H69 C99 0.930 . S
O70 Co59 2.093 . S
O70 C62 1.224 . S
H71 C103 0.929 . S
H72 C105 0.930 . S
H73 C106 0.930 . S
H74 C104 0.929 . S
H75 C107 0.928 . S
O76 Co60 2.057 . S
O76 C64 1.232 . S
H77 C96 0.929 . S
H78 C97 0.929 . S
H79 C109 0.931 . S
H80 C101 0.929 . S
H81 C110 0.930 . S
H82 C102 0.931 . S
O83 Co59 2.097 . S
O83 C111 1.214 . S
H84 C112 0.929 . S
H85 C113 0.929 . S
H86 C114 0.930 . S
H87 C115 0.929 . S
H88 C117 0.930 . S
H89 C94 0.930 . S
H90 C98 0.930 . S
O91 Co60 2.037 . S
O91 C111 1.234 . S
C92 O66 1.269 . S
C92 O67 1.257 . S
C93 H68 0.930 . S
C93 C96 1.388 . S
C93 C98 1.418 . S
C94 H89 0.930 . S
C94 C97 1.404 . S
C94 C98 1.353 . S
N95 Co60 2.145 . S
N95 C96 1.397 . S
N95 C97 1.334 . S
C96 H77 0.929 . S
C96 C93 1.388 . S
C96 N95 1.397 . S
C97 H78 0.929 . S
C97 C94 1.404 . S
C97 N95 1.334 . S
C98 H90 0.930 . S
C98 C93 1.418 . S
C98 C94 1.353 . S
C99 H69 0.930 . S
C99 N100 1.330 . S
C99 C101 1.446 . S
N100 Co59 2.151 . S
N100 C99 1.330 . S
N100 C104 1.418 . S
C101 H80 0.929 . S
C101 C99 1.446 . S
C101 C102 1.332 . S
C102 H82 0.931 . S
C102 C101 1.332 . S
C102 C103 1.267 . S
C103 H71 0.929 . S
C103 C102 1.267 . S
C103 C104 1.251 . S
C104 H74 0.929 . S
C104 N100 1.418 . S
C104 C103 1.251 . S
C105 H72 0.930 . S
C105 C107 1.406 . S
C105 C110 1.261 . S
C106 H73 0.930 . S
C106 N108 1.325 . S
C106 C109 1.357 . S
C107 H75 0.928 . S
C107 C105 1.406 . S
C107 N108 1.261 . S
N108 Co59 2.214 . S
N108 C106 1.325 . S
N108 C107 1.261 . S
C109 H79 0.931 . S
C109 C106 1.357 . S
C109 C110 1.312 . S
C110 H81 0.930 . S
C110 C105 1.261 . S
C110 C109 1.312 . S
C111 O83 1.214 . S
C111 O91 1.234 . S
C112 H84 0.929 . S
C112 C115 1.391 . S
C112 C117 1.391 . S
C113 H85 0.929 . S
C113 C114 1.390 . S
C113 N116 1.391 . S
C114 H86 0.930 . S
C114 C113 1.390 . S
C114 C115 1.392 . S
C115 H87 0.929 . S
C115 C112 1.391 . S
C115 C114 1.392 . S
N116 Co60 2.257 . S
N116 C113 1.391 . S
N116 C117 1.388 . S
C117 H88 0.930 . S
C117 C112 1.391 . S
C117 N116 1.388 . S
Co118 O120 2.143 . S
Co118 O126 2.074 . S
Co118 O129 2.093 . S
Co118 O142 2.097 . S
Co118 N159 2.151 . S
Co118 N167 2.214 . S
Co119 O120 2.160 . S
Co119 O125 2.058 . S
Co119 O135 2.057 . S
Co119 O150 2.037 . S
Co119 N154 2.145 . S
Co119 N175 2.257 . S
O120 Co118 2.143 . S
O120 Co119 2.160 . S
C121 O122 1.278 . S
C121 O129 1.224 . S
O122 C121 1.278 . S
C123 O124 1.245 . S
C123 O135 1.232 . S
O124 C123 1.245 . S
O125 Co119 2.058 . S
O125 C151 1.269 . S
O126 Co118 2.074 . S
O126 C151 1.257 . S
H127 C152 0.930 . S
H128 C158 0.930 . S
O129 Co118 2.093 . S
O129 C121 1.224 . S
H130 C162 0.929 . S
H131 C164 0.930 . S
H132 C165 0.930 . S
H133 C163 0.929 . S
H134 C166 0.928 . S
O135 Co119 2.057 . S
O135 C123 1.232 . S
H136 C155 0.929 . S
H137 C156 0.929 . S
H138 C168 0.931 . S
H139 C160 0.929 . S
H140 C169 0.930 . S
H141 C161 0.931 . S
O142 Co118 2.097 . S
O142 C170 1.214 . S
H143 C171 0.929 . S
H144 C172 0.929 . S
H145 C173 0.930 . S
H146 C174 0.929 . S
H147 C176 0.930 . S
H148 C153 0.930 . S
H149 C157 0.930 . S
O150 Co119 2.037 . S
O150 C170 1.234 . S
C151 O125 1.269 . S
C151 O126 1.257 . S
C152 H127 0.930 . S
C152 C155 1.388 . S
C152 C157 1.418 . S
C153 H148 0.930 . S
C153 C156 1.404 . S
C153 C157 1.353 . S
N154 Co119 2.145 . S
N154 C155 1.397 . S
N154 C156 1.334 . S
C155 H136 0.929 . S
C155 C152 1.388 . S
C155 N154 1.397 . S
C156 H137 0.929 . S
C156 C153 1.404 . S
C156 N154 1.334 . S
C157 H149 0.930 . S
C157 C152 1.418 . S
C157 C153 1.353 . S
C158 H128 0.930 . S
C158 N159 1.330 . S
C158 C160 1.446 . S
N159 Co118 2.151 . S
N159 C158 1.330 . S
N159 C163 1.418 . S
C160 H139 0.929 . S
C160 C158 1.446 . S
C160 C161 1.332 . S
C161 H141 0.931 . S
C161 C160 1.332 . S
C161 C162 1.267 . S
C162 H130 0.929 . S
C162 C161 1.267 . S
C162 C163 1.251 . S
C163 H133 0.929 . S
C163 N159 1.418 . S
C163 C162 1.251 . S
C164 H131 0.930 . S
C164 C166 1.406 . S
C164 C169 1.261 . S
C165 H132 0.930 . S
C165 N167 1.325 . S
C165 C168 1.357 . S
C166 H134 0.928 . S
C166 C164 1.406 . S
C166 N167 1.261 . S
N167 Co118 2.214 . S
N167 C165 1.325 . S
N167 C166 1.261 . S
C168 H138 0.931 . S
C168 C165 1.357 . S
C168 C169 1.312 . S
C169 H140 0.930 . S
C169 C164 1.261 . S
C169 C168 1.312 . S
C170 O142 1.214 . S
C170 O150 1.234 . S
C171 H143 0.929 . S
C171 C174 1.391 . S
C171 C176 1.391 . S
C172 H144 0.929 . S
C172 C173 1.390 . S
C172 N175 1.391 . S
C173 H145 0.930 . S
C173 C172 1.390 . S
C173 C174 1.392 . S
C174 H146 0.929 . S
C174 C171 1.391 . S
C174 C173 1.392 . S
N175 Co119 2.257 . S
N175 C172 1.391 . S
N175 C176 1.388 . S
C176 H147 0.930 . S
C176 C171 1.391 . S
C176 N175 1.388 . S
Co177 O179 2.143 . S
Co177 O185 2.074 . S
Co177 O188 2.093 . S
Co177 O201 2.097 . S
Co177 N218 2.151 . S
Co177 N226 2.214 . S
Co178 O179 2.160 . S
Co178 O184 2.058 . S
Co178 O194 2.057 . S
Co178 O209 2.037 . S
Co178 N213 2.145 . S
Co178 N234 2.257 . S
O179 Co177 2.143 . S
O179 Co178 2.160 . S
C180 O181 1.278 . S
C180 O188 1.224 . S
O181 C180 1.278 . S
C182 O183 1.245 . S
C182 O194 1.232 . S
O183 C182 1.245 . S
O184 Co178 2.058 . S
O184 C210 1.269 . S
O185 Co177 2.074 . S
O185 C210 1.257 . S
H186 C211 0.930 . S
H187 C217 0.930 . S
O188 Co177 2.093 . S
O188 C180 1.224 . S
H189 C221 0.929 . S
H190 C223 0.930 . S
H191 C224 0.930 1_556 S
H192 C222 0.929 . S
H193 C225 0.928 . S
O194 Co178 2.057 . S
O194 C182 1.232 . S
H195 C214 0.929 . S
H196 C215 0.929 . S
H197 C227 0.931 . S
H198 C219 0.929 . S
H199 C228 0.930 . S
H200 C220 0.931 . S
O201 Co177 2.097 . S
O201 C229 1.214 . S
H202 C230 0.929 . S
H203 C231 0.929 . S
H204 C232 0.930 . S
H205 C233 0.929 . S
H206 C235 0.930 . S
H207 C212 0.930 . S
H208 C216 0.930 . S
O209 Co178 2.037 . S
O209 C229 1.234 . S
C210 O184 1.269 . S
C210 O185 1.257 . S
C211 H186 0.930 . S
C211 C214 1.388 . S
C211 C216 1.418 . S
C212 H207 0.930 . S
C212 C215 1.404 . S
C212 C216 1.353 . S
N213 Co178 2.145 . S
N213 C214 1.397 . S
N213 C215 1.334 . S
C214 H195 0.929 . S
C214 C211 1.388 . S
C214 N213 1.397 . S
C215 H196 0.929 . S
C215 C212 1.404 . S
C215 N213 1.334 . S
C216 H208 0.930 . S
C216 C211 1.418 . S
C216 C212 1.353 . S
C217 H187 0.930 . S
C217 N218 1.330 . S
C217 C219 1.446 . S
N218 Co177 2.151 . S
N218 C217 1.330 . S
N218 C222 1.418 . S
C219 H198 0.929 . S
C219 C217 1.446 . S
C219 C220 1.332 . S
C220 H200 0.931 . S
C220 C219 1.332 . S
C220 C221 1.267 . S
C221 H189 0.929 . S
C221 C220 1.267 . S
C221 C222 1.251 . S
C222 H192 0.929 . S
C222 N218 1.418 . S
C222 C221 1.251 . S
C223 H190 0.930 . S
C223 C225 1.406 . S
C223 C228 1.261 . S
C224 H191 0.930 1_554 S
C224 N226 1.325 1_554 S
C224 C227 1.357 . S
C225 H193 0.928 . S
C225 C223 1.406 . S
C225 N226 1.261 1_554 S
N226 Co177 2.214 . S
N226 C224 1.325 1_556 S
N226 C225 1.261 1_556 S
C227 H197 0.931 . S
C227 C224 1.357 . S
C227 C228 1.312 . S
C228 H199 0.930 . S
C228 C223 1.261 . S
C228 C227 1.312 . S
C229 O201 1.214 . S
C229 O209 1.234 . S
C230 H202 0.929 . S
C230 C233 1.391 . S
C230 C235 1.391 . S
C231 H203 0.929 . S
C231 C232 1.390 . S
C231 N234 1.391 . S
C232 H204 0.930 . S
C232 C231 1.390 . S
C232 C233 1.392 . S
C233 H205 0.929 . S
C233 C230 1.391 . S
C233 C232 1.392 . S
N234 Co178 2.257 . S
N234 C231 1.391 . S
N234 C235 1.388 . S
C235 H206 0.930 . S
C235 C230 1.391 . S
C235 N234 1.388 . S
H236 C254 0.951 . S
H237 C256 0.951 . S
H238 C258 0.950 . S
H239 C259 0.950 . S
H240 C261 0.950 . S
H241 C264 0.950 . S
H242 C265 0.950 . S
H243 C267 0.950 . S
H244 C268 0.950 . S
H245 C269 0.951 . S
H246 C271 0.951 . S
H247 C273 0.950 . S
H248 C274 0.950 . S
H249 C276 0.950 . S
H250 C279 0.950 . S
H251 C280 0.950 . S
H252 C282 0.950 . S
H253 C283 0.950 . S
C254 H236 0.951 . S
C254 C255 1.366 . S
C254 C256 1.388 . S
C255 C254 1.366 . S
C255 C259 1.385 . S
C256 H237 0.951 . S
C256 C254 1.388 . S
C256 C257 1.366 . S
C257 C256 1.366 . S
C257 C258 1.414 . S
C257 C260 1.499 . S
C258 H238 0.950 . S
C258 C257 1.414 . S
C258 C259 1.374 . S
C259 H239 0.950 . S
C259 C255 1.385 . S
C259 C258 1.374 . S
C260 C257 1.499 . S
C260 C261 1.373 . S
C260 C262 1.389 . S
C261 H240 0.950 . S
C261 C260 1.373 . S
C261 C277 1.377 . S
C262 C260 1.389 . S
C262 C263 1.524 . S
C262 C276 1.377 . S
C263 C262 1.524 . S
C263 C264 1.397 . S
C263 C268 1.363 . S
C264 H241 0.950 . S
C264 C263 1.397 . S
C264 C265 1.334 . S
C265 H242 0.950 . S
C265 C264 1.334 . S
C265 C266 1.287 . S
C266 C265 1.287 . S
C266 C267 1.524 . S
C266 H285 0.913 . S
C267 H243 0.950 . S
C267 C266 1.524 . S
C267 C268 1.415 . S
C268 H244 0.950 . S
C268 C263 1.363 . S
C268 C267 1.415 . S
C269 H245 0.951 . S
C269 C270 1.366 . S
C269 C271 1.388 . S
C270 C269 1.366 . S
C270 C274 1.385 . S
C271 H246 0.951 . S
C271 C269 1.388 . S
C271 C272 1.366 . S
C272 C271 1.366 . S
C272 C273 1.414 . S
C272 C275 1.499 . S
C273 H247 0.950 . S
C273 C272 1.414 . S
C273 C274 1.374 . S
C274 H248 0.950 . S
C274 C270 1.385 . S
C274 C273 1.374 . S
C275 C272 1.499 . S
C275 C276 1.373 . S
C275 C277 1.389 . S
C276 H249 0.950 . S
C276 C262 1.377 . S
C276 C275 1.373 . S
C277 C261 1.377 . S
C277 C275 1.389 . S
C277 C278 1.524 . S
C278 C277 1.524 . S
C278 C279 1.397 . S
C278 C283 1.363 . S
C279 H250 0.950 . S
C279 C278 1.397 . S
C279 C280 1.334 . S
C280 H251 0.950 . S
C280 C279 1.334 . S
C280 C281 1.287 . S
C281 C280 1.287 . S
C281 C282 1.524 . S
C281 H284 0.999 . S
C282 H252 0.950 . S
C282 C281 1.524 . S
C282 C283 1.415 . S
C283 H253 0.950 . S
C283 C278 1.363 . S
C283 C282 1.415 . S
H284 C281 0.999 . S
H285 C266 0.913 . S
H286 C304 0.951 . S
H287 C306 0.951 . S
H288 C308 0.950 . S
H289 C309 0.950 . S
H290 C311 0.950 . S
H291 C314 0.950 . S
H292 C315 0.950 . S
H293 C317 0.950 . S
H294 C318 0.950 . S
H295 C319 0.951 . S
H296 C321 0.951 . S
H297 C323 0.950 . S
H298 C324 0.950 . S
H299 C326 0.950 . S
H300 C329 0.950 . S
H301 C330 0.950 . S
H302 C332 0.950 . S
H303 C333 0.950 . S
C304 H286 0.951 . S
C304 C305 1.366 . S
C304 C306 1.388 . S
C305 C304 1.366 . S
C305 C309 1.385 . S
C306 H287 0.951 . S
C306 C304 1.388 . S
C306 C307 1.366 . S
C307 C306 1.366 . S
C307 C308 1.414 . S
C307 C310 1.499 . S
C308 H288 0.950 . S
C308 C307 1.414 . S
C308 C309 1.374 . S
C309 H289 0.950 . S
C309 C305 1.385 . S
C309 C308 1.374 . S
C310 C307 1.499 . S
C310 C311 1.373 . S
C310 C312 1.389 . S
C311 H290 0.950 . S
C311 C310 1.373 . S
C311 C327 1.377 . S
C312 C310 1.389 . S
C312 C313 1.524 . S
C312 C326 1.377 . S
C313 C312 1.524 . S
C313 C314 1.397 . S
C313 C318 1.363 . S
C314 H291 0.950 . S
C314 C313 1.397 . S
C314 C315 1.334 . S
C315 H292 0.950 . S
C315 C314 1.334 . S
C315 C316 1.287 . S
C316 C315 1.287 . S
C316 C317 1.524 . S
C316 H335 0.913 . S
C317 H293 0.950 . S
C317 C316 1.524 . S
C317 C318 1.415 . S
C318 H294 0.950 . S
C318 C313 1.363 . S
C318 C317 1.415 . S
C319 H295 0.951 . S
C319 C320 1.366 . S
C319 C321 1.388 . S
C320 C319 1.366 . S
C320 C324 1.385 . S
C321 H296 0.951 . S
C321 C319 1.388 . S
C321 C322 1.366 . S
C322 C321 1.366 . S
C322 C323 1.414 . S
C322 C325 1.499 . S
C323 H297 0.950 . S
C323 C322 1.414 . S
C323 C324 1.374 . S
C324 H298 0.950 . S
C324 C320 1.385 . S
C324 C323 1.374 . S
C325 C322 1.499 . S
C325 C326 1.373 . S
C325 C327 1.389 . S
C326 H299 0.950 . S
C326 C312 1.377 . S
C326 C325 1.373 . S
C327 C311 1.377 . S
C327 C325 1.389 . S
C327 C328 1.524 . S
C328 C327 1.524 . S
C328 C329 1.397 . S
C328 C333 1.363 . S
C329 H300 0.950 . S
C329 C328 1.397 . S
C329 C330 1.334 . S
C330 H301 0.950 . S
C330 C329 1.334 . S
C330 C331 1.287 . S
C331 C330 1.287 . S
C331 C332 1.524 . S
C331 H334 0.999 . S
C332 H302 0.950 . S
C332 C331 1.524 . S
C332 C333 1.415 . S
C333 H303 0.950 . S
C333 C328 1.363 . S
C333 C332 1.415 . S
H334 C331 0.999 . S
H335 C316 0.913 . S
H336 C354 0.951 1_556 S
H337 C356 0.951 . S
H338 C358 0.950 . S
H339 C359 0.950 . S
H340 C361 0.950 . S
H341 C364 0.950 . S
H342 C365 0.950 . S
H343 C367 0.950 . S
H344 C368 0.950 . S
H345 C369 0.951 . S
H346 C371 0.951 . S
H347 C373 0.950 . S
H348 C374 0.950 . S
H349 C376 0.950 . S
H350 C379 0.950 . S
H351 C380 0.950 . S
H352 C382 0.950 . S
H353 C383 0.950 . S
C354 H336 0.951 1_554 S
C354 C355 1.366 . S
C354 C356 1.388 1_554 S
C355 C354 1.366 . S
C355 C359 1.385 . S
C356 H337 0.951 . S
C356 C354 1.388 1_556 S
C356 C357 1.366 1_556 S
C357 C356 1.366 1_554 S
C357 C358 1.414 . S
C357 C360 1.499 1_554 S
C358 H338 0.950 . S
C358 C357 1.414 . S
C358 C359 1.374 . S
C359 H339 0.950 . S
C359 C355 1.385 . S
C359 C358 1.374 . S
C360 C357 1.499 1_556 S
C360 C361 1.373 . S
C360 C362 1.389 . S
C361 H340 0.950 . S
C361 C360 1.373 . S
C361 C377 1.377 . S
C362 C360 1.389 . S
C362 C363 1.524 . S
C362 C376 1.377 . S
C363 C362 1.524 . S
C363 C364 1.397 1_556 S
C363 C368 1.363 . S
C364 H341 0.950 . S
C364 C363 1.397 1_554 S
C364 C365 1.334 . S
C365 H342 0.950 . S
C365 C364 1.334 . S
C365 C366 1.287 . S
C366 C365 1.287 . S
C366 C367 1.524 1_554 S
C366 H385 0.913 . S
C367 H343 0.950 . S
C367 C366 1.524 1_556 S
C367 C368 1.415 . S
C368 H344 0.950 . S
C368 C363 1.363 . S
C368 C367 1.415 . S
C369 H345 0.951 . S
C369 C370 1.366 . S
C369 C371 1.388 . S
C370 C369 1.366 . S
C370 C374 1.385 . S
C371 H346 0.951 . S
C371 C369 1.388 . S
C371 C372 1.366 . S
C372 C371 1.366 . S
C372 C373 1.414 . S
C372 C375 1.499 . S
C373 H347 0.950 . S
C373 C372 1.414 . S
C373 C374 1.374 . S
C374 H348 0.950 . S
C374 C370 1.385 . S
C374 C373 1.374 . S
C375 C372 1.499 . S
C375 C376 1.373 . S
C375 C377 1.389 . S
C376 H349 0.950 . S
C376 C362 1.377 . S
C376 C375 1.373 . S
C377 C361 1.377 . S
C377 C375 1.389 . S
C377 C378 1.524 . S
C378 C377 1.524 . S
C378 C379 1.397 . S
C378 C383 1.363 . S
C379 H350 0.950 . S
C379 C378 1.397 . S
C379 C380 1.334 . S
C380 H351 0.950 . S
C380 C379 1.334 . S
C380 C381 1.287 . S
C381 C380 1.287 . S
C381 C382 1.524 . S
C381 H384 0.999 . S
C382 H352 0.950 . S
C382 C381 1.524 . S
C382 C383 1.415 . S
C383 H353 0.950 . S
C383 C378 1.363 . S
C383 C382 1.415 . S
H384 C381 0.999 . S
H385 C366 0.913 . S
H386 C404 0.951 . S
H387 C406 0.951 . S
H388 C408 0.950 . S
H389 C409 0.950 . S
H390 C411 0.950 1_455 S
H391 C414 0.950 . S
H392 C415 0.950 . S
H393 C417 0.950 . S
H394 C418 0.950 1_655 S
H395 C419 0.951 . S
H396 C421 0.951 . S
H397 C423 0.950 . S
H398 C424 0.950 . S
H399 C426 0.950 . S
H400 C429 0.950 . S
H401 C430 0.950 . S
H402 C432 0.950 . S
H403 C433 0.950 . S
C404 H386 0.951 . S
C404 C405 1.366 . S
C404 C406 1.388 . S
C405 C404 1.366 . S
C405 C409 1.385 . S
C406 H387 0.951 . S
C406 C404 1.388 . S
C406 C407 1.366 . S
C407 C406 1.366 . S
C407 C408 1.414 . S
C407 C410 1.499 . S
C408 H388 0.950 . S
C408 C407 1.414 . S
C408 C409 1.374 . S
C409 H389 0.950 . S
C409 C405 1.385 . S
C409 C408 1.374 . S
C410 C407 1.499 . S
C410 C411 1.373 1_455 S
C410 C412 1.389 1_455 S
C411 H390 0.950 1_655 S
C411 C410 1.373 1_655 S
C411 C427 1.377 . S
C412 C410 1.389 1_655 S
C412 C413 1.524 1_655 S
C412 C426 1.377 . S
C413 C412 1.524 1_455 S
C413 C414 1.397 . S
C413 C418 1.363 . S
C414 H391 0.950 . S
C414 C413 1.397 . S
C414 C415 1.334 . S
C415 H392 0.950 . S
C415 C414 1.334 . S
C415 C416 1.287 . S
C416 C415 1.287 . S
C416 C417 1.524 . S
C416 H435 0.913 . S
C417 H393 0.950 . S
C417 C416 1.524 . S
C417 C418 1.415 . S
C418 H394 0.950 1_455 S
C418 C413 1.363 . S
C418 C417 1.415 . S
C419 H395 0.951 . S
C419 C420 1.366 . S
C419 C421 1.388 . S
C420 C419 1.366 . S
C420 C424 1.385 . S
C421 H396 0.951 . S
C421 C419 1.388 . S
C421 C422 1.366 . S
C422 C421 1.366 . S
C422 C423 1.414 . S
C422 C425 1.499 . S
C423 H397 0.950 . S
C423 C422 1.414 . S
C423 C424 1.374 . S
C424 H398 0.950 . S
C424 C420 1.385 . S
C424 C423 1.374 . S
C425 C422 1.499 . S
C425 C426 1.373 . S
C425 C427 1.389 . S
C426 H399 0.950 . S
C426 C412 1.377 . S
C426 C425 1.373 . S
C427 C411 1.377 . S
C427 C425 1.389 . S
C427 C428 1.524 . S
C428 C427 1.524 . S
C428 C429 1.397 . S
C428 C433 1.363 . S
C429 H400 0.950 . S
C429 C428 1.397 . S
C429 C430 1.334 . S
C430 H401 0.950 . S
C430 C429 1.334 . S
C430 C431 1.287 . S
C431 C430 1.287 . S
C431 C432 1.524 . S
C431 H434 0.999 . S
C432 H402 0.950 . S
C432 C431 1.524 . S
C432 C433 1.415 . S
C433 H403 0.950 . S
C433 C428 1.363 . S
C433 C432 1.415 . S
H434 C431 0.999 . S
H435 C416 0.913 . S
H436 C454 0.951 . S
H437 C456 0.951 . S
H438 C458 0.925 1_554 S
H439 C459 0.950 . S
H440 C461 0.950 . S
H441 C464 0.950 . S
H442 C465 0.950 . S
H443 C467 0.950 1_565 S
H444 C468 0.950 . S
H445 C469 0.951 . S
H446 C471 0.951 . S
H447 C473 0.950 1_556 S
H448 C474 0.950 . S
H449 C476 0.950 . S
H450 C479 0.950 1_556 S
H451 C480 0.950 . S
H452 C482 0.950 1_545 S
H453 C483 0.950 . S
C454 H436 0.951 . S
C454 C455 1.366 . S
C454 C456 1.388 . S
C455 C454 1.366 . S
C455 C459 1.385 . S
C456 H437 0.951 . S
C456 C454 1.388 . S
C456 C457 1.366 . S
C457 C456 1.366 . S
C457 C458 1.414 . S
C457 C460 1.499 . S
C458 H438 0.925 1_556 S
C458 C457 1.414 . S
C458 C459 1.374 . S
C459 H439 0.950 . S
C459 C455 1.385 . S
C459 C458 1.374 . S
C460 C457 1.499 . S
C460 C461 1.373 . S
C460 C462 1.389 . S
C461 H440 0.950 . S
C461 C460 1.373 . S
C461 C477 1.377 1_546 S
C462 C460 1.389 . S
C462 C463 1.524 . S
C462 C476 1.377 1_545 S
C463 C462 1.524 . S
C463 C464 1.397 . S
C463 C468 1.363 1_545 S
C464 H441 0.950 . S
C464 C463 1.397 . S
C464 C465 1.334 . S
C465 H442 0.950 . S
C465 C464 1.334 . S
C465 C466 1.287 . S
C466 C465 1.287 . S
C466 C467 1.524 . S
C466 H485 0.913 . S
C467 H443 0.950 1_545 S
C467 C466 1.524 . S
C467 C468 1.415 1_545 S
C468 H444 0.950 . S
C468 C463 1.363 1_565 S
C468 C467 1.415 1_565 S
C469 H445 0.951 . S
C469 C470 1.366 . S
C469 C471 1.388 . S
C470 C469 1.366 . S
C470 C474 1.385 . S
C471 H446 0.951 . S
C471 C469 1.388 . S
C471 C472 1.366 . S
C472 C471 1.366 . S
C472 C473 1.414 . S
C472 C475 1.499 . S
C473 H447 0.950 1_554 S
C473 C472 1.414 . S
C473 C474 1.374 . S
C474 H448 0.950 . S
C474 C470 1.385 . S
C474 C473 1.374 . S
C475 C472 1.499 . S
C475 C476 1.373 1_554 S
C475 C477 1.389 . S
C476 H449 0.950 . S
C476 C462 1.377 1_565 S
C476 C475 1.373 1_556 S
C477 C461 1.377 1_564 S
C477 C475 1.389 . S
C477 C478 1.524 . S
C478 C477 1.524 . S
C478 C479 1.397 . S
C478 C483 1.363 1_565 S
C479 H450 0.950 1_554 S
C479 C478 1.397 . S
C479 C480 1.334 . S
C480 H451 0.950 . S
C480 C479 1.334 . S
C480 C481 1.287 . S
C481 C480 1.287 . S
C481 C482 1.524 . S
C481 H484 0.999 . S
C482 H452 0.950 1_565 S
C482 C481 1.524 . S
C482 C483 1.415 1_565 S
C483 H453 0.950 . S
C483 C478 1.363 1_545 S
C483 C482 1.415 1_545 S
H484 C481 0.999 . S
H485 C466 0.913 . S
H486 C504 0.951 . S
H487 C506 0.951 . S
H488 C508 0.950 . S
H489 C509 0.950 . S
H490 C511 0.950 . S
H491 C514 0.950 . S
H492 C515 0.950 . S
H493 C517 0.950 . S
H494 C518 0.950 . S
H495 C519 0.951 . S
H496 C521 0.951 . S
H497 C523 0.950 . S
H498 C524 0.950 . S
H499 C526 0.950 . S
H500 C529 0.950 . S
H501 C530 0.950 . S
H502 C532 0.950 . S
H503 C533 0.950 . S
C504 H486 0.951 . S
C504 C505 1.366 . S
C504 C506 1.388 . S
C505 C504 1.366 . S
C505 C509 1.385 . S
C506 H487 0.951 . S
C506 C504 1.388 . S
C506 C507 1.366 . S
C507 C506 1.366 . S
C507 C508 1.414 . S
C507 C510 1.499 . S
C508 H488 0.950 . S
C508 C507 1.414 . S
C508 C509 1.374 . S
C509 H489 0.950 . S
C509 C505 1.385 . S
C509 C508 1.374 . S
C510 C507 1.499 . S
C510 C511 1.373 . S
C510 C512 1.389 . S
C511 H490 0.950 . S
C511 C510 1.373 . S
C511 C527 1.377 . S
C512 C510 1.389 . S
C512 C513 1.524 . S
C512 C526 1.377 . S
C513 C512 1.524 . S
C513 C514 1.397 . S
C513 C518 1.363 . S
C514 H491 0.950 . S
C514 C513 1.397 . S
C514 C515 1.334 . S
C515 H492 0.950 . S
C515 C514 1.334 . S
C515 C516 1.287 . S
C516 C515 1.287 . S
C516 C517 1.524 . S
C516 H535 0.913 . S
C517 H493 0.950 . S
C517 C516 1.524 . S
C517 C518 1.415 . S
C518 H494 0.950 . S
C518 C513 1.363 . S
C518 C517 1.415 . S
C519 H495 0.951 . S
C519 C520 1.366 . S
C519 C521 1.388 . S
C520 C519 1.366 . S
C520 C524 1.385 . S
C521 H496 0.951 . S
C521 C519 1.388 . S
C521 C522 1.366 . S
C522 C521 1.366 . S
C522 C523 1.414 . S
C522 C525 1.499 . S
C523 H497 0.950 . S
C523 C522 1.414 . S
C523 C524 1.374 . S
C524 H498 0.950 . S
C524 C520 1.385 . S
C524 C523 1.374 . S
C525 C522 1.499 . S
C525 C526 1.373 . S
C525 C527 1.389 . S
C526 H499 0.950 . S
C526 C512 1.377 . S
C526 C525 1.373 . S
C527 C511 1.377 . S
C527 C525 1.389 . S
C527 C528 1.524 . S
C528 C527 1.524 . S
C528 C529 1.397 . S
C528 C533 1.363 . S
C529 H500 0.950 . S
C529 C528 1.397 . S
C529 C530 1.334 . S
C530 H501 0.950 . S
C530 C529 1.334 . S
C530 C531 1.287 . S
C531 C530 1.287 . S
C531 C532 1.524 . S
C531 H534 0.999 . S
C532 H502 0.950 . S
C532 C531 1.524 . S
C532 C533 1.415 . S
C533 H503 0.950 . S
C533 C528 1.363 . S
C533 C532 1.415 . S
H534 C531 0.999 . S
H535 C516 0.913 . S
H536 C554 0.951 . S
H537 C556 0.951 . S
H538 C558 0.950 . S
H539 C559 0.950 . S
H540 C561 0.950 . S
H541 C564 0.950 . S
H542 C565 0.950 . S
H543 C567 0.950 1_655 S
H544 C568 0.955 . S
H545 C569 0.951 . S
H546 C571 0.951 1_554 S
H547 C573 0.950 . S
H548 C574 0.950 . S
H549 C576 0.950 . S
H550 C579 0.950 . S
H551 C580 0.950 . S
H552 C582 0.950 . S
H553 C583 0.950 1_554 S
C554 H536 0.951 . S
C554 C555 1.366 . S
C554 C556 1.388 . S
C555 C554 1.366 . S
C555 C559 1.385 . S
C556 H537 0.951 . S
C556 C554 1.388 . S
C556 C557 1.366 . S
C557 C556 1.366 . S
C557 C558 1.414 . S
C557 C560 1.499 . S
C558 H538 0.950 . S
C558 C557 1.414 . S
C558 C559 1.374 . S
C559 H539 0.950 . S
C559 C555 1.385 . S
C559 C558 1.374 . S
C560 C557 1.499 . S
C560 C561 1.373 . S
C560 C562 1.389 . S
C561 H540 0.950 . S
C561 C560 1.373 . S
C561 C577 1.377 1_454 S
C562 C560 1.389 . S
C562 C563 1.524 . S
C562 C576 1.377 1_455 S
C563 C562 1.524 . S
C563 C564 1.397 . S
C563 C568 1.354 1_455 S
C564 H541 0.950 . S
C564 C563 1.397 . S
C564 C565 1.334 . S
C565 H542 0.950 . S
C565 C564 1.334 . S
C565 C566 1.287 . S
C566 C565 1.287 . S
C566 C567 1.524 . S
C566 H585 0.913 . S
C567 H543 0.950 1_455 S
C567 C566 1.524 . S
C567 C568 1.419 1_455 S
C568 H544 0.955 . S
C568 C563 1.354 1_655 S
C568 C567 1.419 1_655 S
C569 H545 0.951 . S
C569 C570 1.366 . S
C569 C571 1.388 . S
C570 C569 1.366 . S
C570 C574 1.385 . S
C571 H546 0.951 1_556 S
C571 C569 1.388 . S
C571 C572 1.366 . S
C572 C571 1.366 . S
C572 C573 1.414 . S
C572 C575 1.499 . S
C573 H547 0.950 . S
C573 C572 1.414 . S
C573 C574 1.374 . S
C574 H548 0.950 . S
C574 C570 1.385 . S
C574 C573 1.374 . S
C575 C572 1.499 . S
C575 C576 1.373 1_556 S
C575 C577 1.389 . S
C576 H549 0.950 . S
C576 C562 1.377 1_655 S
C576 C575 1.373 1_554 S
C577 C561 1.377 1_656 S
C577 C575 1.389 . S
C577 C578 1.524 . S
C578 C577 1.524 . S
C578 C579 1.397 . S
C578 C583 1.363 1_655 S
C579 H550 0.950 . S
C579 C578 1.397 . S
C579 C580 1.334 . S
C580 H551 0.950 . S
C580 C579 1.334 . S
C580 C581 1.287 . S
C581 C580 1.287 . S
C581 C582 1.524 1_655 S
C581 H584 0.999 . S
C582 H552 0.950 . S
C582 C581 1.524 1_455 S
C582 C583 1.415 . S
C583 H553 0.950 1_556 S
C583 C578 1.363 1_455 S
C583 C582 1.415 . S
H584 C581 0.999 . S
H585 C566 0.913 . S
H586 C604 0.951 . S
H587 C606 0.951 . S
H588 C608 0.950 . S
H589 C609 0.950 . S
H590 C611 0.950 . S
H591 C614 0.950 . S
H592 C615 0.950 . S
H593 C617 0.950 . S
H594 C618 0.950 . S
H595 C619 0.951 . S
H596 C621 0.951 . S
H597 C623 0.950 . S
H598 C624 0.950 . S
H599 C626 0.950 . S
H600 C629 0.950 . S
H601 C630 0.950 . S
H602 C632 0.950 . S
H603 C633 0.950 . S
C604 H586 0.951 . S
C604 C605 1.366 . S
C604 C606 1.388 . S
C605 C604 1.366 . S
C605 C609 1.385 . S
C606 H587 0.951 . S
C606 C604 1.388 . S
C606 C607 1.366 . S
C607 C606 1.366 . S
C607 C608 1.414 . S
C607 C610 1.499 . S
C608 H588 0.950 . S
C608 C607 1.414 . S
C608 C609 1.374 . S
C609 H589 0.950 . S
C609 C605 1.385 . S
C609 C608 1.374 . S
C610 C607 1.499 . S
C610 C611 1.373 . S
C610 C612 1.389 . S
C611 H590 0.950 . S
C611 C610 1.373 . S
C611 C627 1.377 1_545 S
C612 C610 1.389 . S
C612 C613 1.524 . S
C612 C626 1.377 1_545 S
C613 C612 1.524 . S
C613 C614 1.397 . S
C613 C618 1.363 . S
C614 H591 0.950 . S
C614 C613 1.397 . S
C614 C615 1.334 . S
C615 H592 0.950 . S
C615 C614 1.334 . S
C615 C616 1.287 . S
C616 C615 1.287 . S
C616 C617 1.524 . S
C616 H635 0.913 . S
C617 H593 0.950 . S
C617 C616 1.524 . S
C617 C618 1.415 . S
C618 H594 0.950 . S
C618 C613 1.363 . S
C618 C617 1.415 . S
C619 H595 0.951 . S
C619 C620 1.366 . S
C619 C621 1.388 . S
C620 C619 1.366 . S
C620 C624 1.385 . S
C621 H596 0.951 . S
C621 C619 1.388 . S
C621 C622 1.366 . S
C622 C621 1.366 . S
C622 C623 1.414 . S
C622 C625 1.499 . S
C623 H597 0.950 . S
C623 C622 1.414 . S
C623 C624 1.374 . S
C624 H598 0.950 . S
C624 C620 1.385 . S
C624 C623 1.374 . S
C625 C622 1.499 . S
C625 C626 1.373 . S
C625 C627 1.389 . S
C626 H599 0.950 . S
C626 C612 1.377 1_565 S
C626 C625 1.373 . S
C627 C611 1.377 1_565 S
C627 C625 1.389 . S
C627 C628 1.524 . S
C628 C627 1.524 . S
C628 C629 1.397 . S
C628 C633 1.363 . S
C629 H600 0.950 . S
C629 C628 1.397 . S
C629 C630 1.334 . S
C630 H601 0.950 . S
C630 C629 1.334 . S
C630 C631 1.287 . S
C631 C630 1.287 . S
C631 C632 1.524 . S
C631 H634 0.999 . S
C632 H602 0.950 . S
C632 C631 1.524 . S
C632 C633 1.415 . S
C633 H603 0.950 . S
C633 C628 1.363 . S
C633 C632 1.415 . S
H634 C631 0.999 . S
H635 C616 0.913 . S
C255 C5 1.617 . S
C270 C123 1.619 . S
C305 C64 1.619 . S
C320 C182 1.618 . S
C355 C52 1.751 . S
C370 C210 1.760 . S
C405 C121 1.473 . S
C420 C111 1.469 . S
C455 C180 1.320 . S
C470 C3 1.320 . S
C505 C62 1.473 . S
C520 C170 1.469 . S
C555 C33 1.760 . S
C570 C229 1.751 . S
C605 C92 1.984 . S
C620 C151 1.984 . S
