# Generated by pormake.
# Topology smd, (6)-cn, num edge types: 1
# Building blocks:
#     Node 0, Type 0, BuildingBlock: GEDQOX_clean_sbu_0, # of connection points: 6
#     Node 1, Type 0, BuildingBlock: GEDQOX_clean_sbu_0, # of connection points: 6
#     Node 2, Type 0, BuildingBlock: GEDQOX_clean_sbu_0, # of connection points: 6
#     Node 3, Type 0, BuildingBlock: GEDQOX_clean_sbu_0, # of connection points: 6
#     Node 4, Type 0, BuildingBlock: GEDQOX_clean_sbu_0, # of connection points: 6
#     Node 5, Type 0, BuildingBlock: GEDQOX_clean_sbu_0, # of connection points: 6
#     Node 6, Type 0, BuildingBlock: GEDQOX_clean_sbu_0, # of connection points: 6
#     Node 7, Type 0, BuildingBlock: GEDQOX_clean_sbu_0, # of connection points: 6
#     Node 8, Type 0, BuildingBlock: GEDQOX_clean_sbu_0, # of connection points: 6
#     Node 9, Type 0, BuildingBlock: GEDQOX_clean_sbu_0, # of connection points: 6
#     Node 10, Type 0, BuildingBlock: GEDQOX_clean_sbu_0, # of connection points: 6
#     Node 11, Type 0, BuildingBlock: GEDQOX_clean_sbu_0, # of connection points: 6
#     Node 12, Type 0, BuildingBlock: GEDQOX_clean_sbu_0, # of connection points: 6
#     Node 13, Type 0, BuildingBlock: GEDQOX_clean_sbu_0, # of connection points: 6
#     Node 14, Type 0, BuildingBlock: GEDQOX_clean_sbu_0, # of connection points: 6
#     Node 15, Type 0, BuildingBlock: GEDQOX_clean_sbu_0, # of connection points: 6
#     Node 16, Type 0, BuildingBlock: GEDQOX_clean_sbu_0, # of connection points: 6
#     Node 17, Type 0, BuildingBlock: GEDQOX_clean_sbu_0, # of connection points: 6
#     Edge 18, Type (0, 0), BuildingBlock: TEMPAE_clean_linker_10, # of connection points: 2
#     Edge 19, Type (0, 0), BuildingBlock: TEMPAE_clean_linker_10, # of connection points: 2
#     Edge 20, Type (0, 0), BuildingBlock: TEMPAE_clean_linker_10, # of connection points: 2
#     Edge 21, Type (0, 0), BuildingBlock: TEMPAE_clean_linker_10, # of connection points: 2
#     Edge 22, Type (0, 0), BuildingBlock: TEMPAE_clean_linker_10, # of connection points: 2
#     Edge 23, Type (0, 0), BuildingBlock: TEMPAE_clean_linker_10, # of connection points: 2
#     Edge 24, Type (0, 0), BuildingBlock: TEMPAE_clean_linker_10, # of connection points: 2
#     Edge 25, Type (0, 0), BuildingBlock: TEMPAE_clean_linker_10, # of connection points: 2
#     Edge 26, Type (0, 0), BuildingBlock: TEMPAE_clean_linker_10, # of connection points: 2
#     Edge 27, Type (0, 0), BuildingBlock: TEMPAE_clean_linker_10, # of connection points: 2
#     Edge 28, Type (0, 0), BuildingBlock: TEMPAE_clean_linker_10, # of connection points: 2
#     Edge 29, Type (0, 0), BuildingBlock: TEMPAE_clean_linker_10, # of connection points: 2
#     Edge 30, Type (0, 0), BuildingBlock: TEMPAE_clean_linker_10, # of connection points: 2
#     Edge 31, Type (0, 0), BuildingBlock: TEMPAE_clean_linker_10, # of connection points: 2
#     Edge 32, Type (0, 0), BuildingBlock: TEMPAE_clean_linker_10, # of connection points: 2
#     Edge 33, Type (0, 0), BuildingBlock: TEMPAE_clean_linker_10, # of connection points: 2
#     Edge 34, Type (0, 0), BuildingBlock: TEMPAE_clean_linker_10, # of connection points: 2
#     Edge 35, Type (0, 0), BuildingBlock: TEMPAE_clean_linker_10, # of connection points: 2
#     Edge 36, Type (0, 0), BuildingBlock: TEMPAE_clean_linker_10, # of connection points: 2
#     Edge 37, Type (0, 0), BuildingBlock: TEMPAE_clean_linker_10, # of connection points: 2
#     Edge 38, Type (0, 0), BuildingBlock: TEMPAE_clean_linker_10, # of connection points: 2
#     Edge 39, Type (0, 0), BuildingBlock: TEMPAE_clean_linker_10, # of connection points: 2
#     Edge 40, Type (0, 0), BuildingBlock: TEMPAE_clean_linker_10, # of connection points: 2
#     Edge 41, Type (0, 0), BuildingBlock: TEMPAE_clean_linker_10, # of connection points: 2
#     Edge 42, Type (0, 0), BuildingBlock: TEMPAE_clean_linker_10, # of connection points: 2
#     Edge 43, Type (0, 0), BuildingBlock: TEMPAE_clean_linker_10, # of connection points: 2
#     Edge 44, Type (0, 0), BuildingBlock: TEMPAE_clean_linker_10, # of connection points: 2
#     Edge 45, Type (0, 0), BuildingBlock: TEMPAE_clean_linker_10, # of connection points: 2
#     Edge 46, Type (0, 0), BuildingBlock: TEMPAE_clean_linker_10, # of connection points: 2
#     Edge 47, Type (0, 0), BuildingBlock: TEMPAE_clean_linker_10, # of connection points: 2
#     Edge 48, Type (0, 0), BuildingBlock: TEMPAE_clean_linker_10, # of connection points: 2
#     Edge 49, Type (0, 0), BuildingBlock: TEMPAE_clean_linker_10, # of connection points: 2
#     Edge 50, Type (0, 0), BuildingBlock: TEMPAE_clean_linker_10, # of connection points: 2
#     Edge 51, Type (0, 0), BuildingBlock: TEMPAE_clean_linker_10, # of connection points: 2
#     Edge 52, Type (0, 0), BuildingBlock: TEMPAE_clean_linker_10, # of connection points: 2
#     Edge 53, Type (0, 0), BuildingBlock: TEMPAE_clean_linker_10, # of connection points: 2
#     Edge 54, Type (0, 0), BuildingBlock: TEMPAE_clean_linker_10, # of connection points: 2
#     Edge 55, Type (0, 0), BuildingBlock: TEMPAE_clean_linker_10, # of connection points: 2
#     Edge 56, Type (0, 0), BuildingBlock: TEMPAE_clean_linker_10, # of connection points: 2
#     Edge 57, Type (0, 0), BuildingBlock: TEMPAE_clean_linker_10, # of connection points: 2
#     Edge 58, Type (0, 0), BuildingBlock: TEMPAE_clean_linker_10, # of connection points: 2
#     Edge 59, Type (0, 0), BuildingBlock: TEMPAE_clean_linker_10, # of connection points: 2
#     Edge 60, Type (0, 0), BuildingBlock: TEMPAE_clean_linker_10, # of connection points: 2
#     Edge 61, Type (0, 0), BuildingBlock: TEMPAE_clean_linker_10, # of connection points: 2
#     Edge 62, Type (0, 0), BuildingBlock: TEMPAE_clean_linker_10, # of connection points: 2
#     Edge 63, Type (0, 0), BuildingBlock: TEMPAE_clean_linker_10, # of connection points: 2
#     Edge 64, Type (0, 0), BuildingBlock: TEMPAE_clean_linker_10, # of connection points: 2
#     Edge 65, Type (0, 0), BuildingBlock: TEMPAE_clean_linker_10, # of connection points: 2
#     Edge 66, Type (0, 0), BuildingBlock: TEMPAE_clean_linker_10, # of connection points: 2
#     Edge 67, Type (0, 0), BuildingBlock: TEMPAE_clean_linker_10, # of connection points: 2
#     Edge 68, Type (0, 0), BuildingBlock: TEMPAE_clean_linker_10, # of connection points: 2
#     Edge 69, Type (0, 0), BuildingBlock: TEMPAE_clean_linker_10, # of connection points: 2
#     Edge 70, Type (0, 0), BuildingBlock: TEMPAE_clean_linker_10, # of connection points: 2
#     Edge 71, Type (0, 0), BuildingBlock: TEMPAE_clean_linker_10, # of connection points: 2
# Relax obj value: 0.274
# Max RMSD: 0.258
# Mean RMSD: 0.258
data_MOF--net-smd--node1-GEDQOX_clean_sbu_0--edge1-TEMPAE_clean_linker_10
_symmetry_space_group_name_H-M    P1
_symmetry_Int_Tables_number       1
_symmetry_cell_setting            triclinic
loop_
_symmetry_equiv_pos_as_xyz
'x, y, z'
_cell_length_a     94.981499
_cell_length_b     95.005379
_cell_length_c     15.808313
_cell_angle_alpha  90.013067
_cell_angle_beta   90.007466
_cell_angle_gamma 120.01541
loop_
_atom_site_label
_atom_site_type_symbol
_atom_site_fract_x
_atom_site_fract_y
_atom_site_fract_z
_atom_type_partial_charge
Nd0 Nd 0.04236 0.23942 0.58727 0.0
Nd1 Nd 0.01216 0.24583 0.58597 0.0
C2 C 0.07109 0.24122 0.58022 0.0
C3 C 0.08368 0.2384 0.54119 0.0
C4 C 0.09819 0.25177 0.51215 0.0
C5 C 0.11148 0.25002 0.48958 0.0
C6 C 0.11062 0.23483 0.49557 0.0
C7 C 0.09584 0.2213 0.52143 0.0
C8 C 0.08254 0.22307 0.54425 0.0
C9 C 1.0116 0.21237 0.59315 0.0
C10 C 0.02758 0.24279 0.40386 0.0
C11 C 0.98321 0.24328 0.5928 0.0
C12 C 0.97577 0.25225 0.63175 0.0
C13 C 0.97297 0.25178 0.71942 0.0
C14 C 0.96607 0.2605 0.7545 0.0
C15 C 0.96188 0.2699 0.70279 0.0
C16 C 0.96455 0.2702 0.61515 0.0
C17 C 0.97136 0.26145 0.58013 0.0
C18 C 0.04105 0.27493 0.60345 0.0
C19 C 0.02791 0.24319 0.76458 0.0
O20 O 0.0684 0.25244 0.54914 0.0
O21 O 0.05821 0.22903 0.6146 0.0
O22 O 0.0241 0.21323 0.63175 0.0
O23 O 0.01585 0.225 0.55018 0.0
O24 O 0.03896 0.24119 0.44417 0.0
O25 O 0.01581 0.24384 0.44337 0.0
O26 O 0.9876 0.23516 0.64309 0.0
O27 O 0.9936 0.25074 0.53141 0.0
O28 O 0.0269 0.27385 0.60293 0.0
O29 O 0.03905 0.26086 0.59872 0.0
O30 O 0.01424 0.23927 0.72405 0.0
O31 O 0.04152 0.247 0.72394 0.0
H32 H 0.09955 0.26379 0.51054 0.0
H33 H 0.12268 0.26077 0.47119 0.0
H34 H 0.09463 0.20937 0.52564 0.0
H35 H 0.07159 0.21253 0.56706 0.0
H36 H 0.9762 0.2448 0.76113 0.0
H37 H 0.96433 0.26014 0.82234 0.0
H38 H 0.96127 0.27713 0.57333 0.0
H39 H 0.97324 0.26194 0.51235 0.0
Nd40 Nd 0.81877 0.8285 0.60462 0.0
Nd41 Nd 0.81503 0.7929 0.61011 0.0
C42 C 0.81564 0.8546 0.61991 0.0
C43 C 0.8173 0.86976 0.58346 0.0
C44 C 0.80323 0.87072 0.56815 0.0
C45 C 0.80433 0.88551 0.54629 0.0
C46 C 0.81955 0.89979 0.53948 0.0
C47 C 0.83367 0.89872 0.55192 0.0
C48 C 0.83256 0.88389 0.57392 0.0
C49 C 0.84667 0.82709 0.57728 0.0
C50 C 0.81642 0.81038 0.42878 0.0
C51 C 0.81969 0.76778 0.62246 0.0
C52 C 0.80997 0.75103 0.65456 0.0
C53 C 0.81775 0.74272 0.68357 0.0
C54 C 0.80866 0.72699 0.71665 0.0
C55 C 0.7916 0.71929 0.72123 0.0
C56 C 0.78387 0.72776 0.69256 0.0
C57 C 0.79297 0.74348 0.65974 0.0
C58 C 0.78464 0.79002 0.60153 0.0
C59 C 0.8149 0.81005 0.7893 0.0
O60 O 0.80402 0.8406 0.59165 0.0
O61 O 0.82877 0.85427 0.64209 0.0
O62 O 0.84389 0.83785 0.54195 0.0
O63 O 0.8355 0.81847 0.62892 0.0
O64 O 0.8123 0.82014 0.46766 0.0
O65 O 0.82108 0.80126 0.47056 0.0
O66 O 0.82466 0.77924 0.67965 0.0
O67 O 0.81441 0.77126 0.55342 0.0
O68 O 0.78701 0.77775 0.60611 0.0
O69 O 0.79819 0.80293 0.60456 0.0
O70 O 0.81401 0.79725 0.75138 0.0
O71 O 0.81649 0.82287 0.7477 0.0
H72 H 0.79129 0.86009 0.57582 0.0
H73 H 0.7932 0.8858 0.5359 0.0
H74 H 0.84559 0.90948 0.54797 0.0
H75 H 0.84366 0.88364 0.58615 0.0
H76 H 0.83088 0.74841 0.68082 0.0
H77 H 0.81498 0.72078 0.73775 0.0
H78 H 0.77079 0.72233 0.69664 0.0
H79 H 0.78671 0.74975 0.6389 0.0
Nd80 Nd 0.22892 0.01767 0.60082 0.0
Nd81 Nd 0.26585 0.04645 0.60047 0.0
C82 C 0.19959 0.99172 0.58893 0.0
C83 C 0.18613 0.97621 0.55532 0.0
C84 C 0.18585 0.96138 0.56643 0.0
C85 C 0.17181 0.94659 0.54714 0.0
C86 C 0.15769 0.94626 0.51688 0.0
C87 C 0.15822 0.96117 0.50365 0.0
C88 C 0.17224 0.97591 0.52258 0.0
C89 C 0.23441 0.04906 0.6167 0.0
C90 C 0.24806 0.03113 0.42114 0.0
C91 C 0.2926 0.07511 0.6089 0.0
C92 C 0.3087 0.0821 0.64933 0.0
C93 C 0.31764 0.09882 0.66605 0.0
C94 C 0.33326 0.10577 0.70093 0.0
C95 C 0.34024 0.0961 0.71946 0.0
C96 C 0.33106 0.07925 0.70432 0.0
C97 C 0.31542 0.07231 0.6698 0.0
C98 C 0.26518 0.01707 0.60298 0.0
C99 C 0.24716 0.03047 0.78164 0.0
O100 O 0.21157 0.99184 0.63085 0.0
O101 O 0.20358 1.00551 0.55129 0.0
O102 O 0.223 0.03672 0.65693 0.0
O103 O 0.2419 0.04444 0.56918 0.0
O104 O 0.23696 0.01819 0.46258 0.0
O105 O 0.25884 0.04457 0.46018 0.0
O106 O 0.28014 0.07082 0.65946 0.0
O107 O 0.28963 0.06463 0.54784 0.0
O108 O 0.27844 0.03105 0.60443 0.0
O109 O 0.25311 0.01917 0.60312 0.0
O110 O 0.25904 0.04313 0.74205 0.0
O111 O 0.23509 0.01822 0.741 0.0
H112 H 0.19629 0.96115 0.59236 0.0
H113 H 0.17198 0.9354 0.55707 0.0
H114 H 0.14758 0.96149 0.48193 0.0
H115 H 0.17195 0.9871 0.51491 0.0
H116 H 0.31262 0.10655 0.65095 0.0
H117 H 0.34003 0.11877 0.71138 0.0
H118 H 0.33596 0.07141 0.71927 0.0
H119 H 0.30866 0.05933 0.65827 0.0
Nd120 Nd 0.04851 0.81121 0.40632 0.0
Nd121 Nd 0.01791 0.81726 0.41199 0.0
C122 C 0.07771 0.8143 0.39645 0.0
C123 C 0.08439 0.80438 0.36286 0.0
C124 C 0.10075 0.81188 0.33844 0.0
C125 C 0.10723 0.80262 0.30573 0.0
C126 C 0.09743 0.78567 0.29696 0.0
C127 C 0.08095 0.77823 0.32069 0.0
C128 C 0.07449 0.7875 0.35312 0.0
C129 C 0.01968 0.78187 0.41144 0.0
C130 C 0.03186 0.81219 0.22733 0.0
C131 C 0.98946 0.81571 0.39381 0.0
C132 C 0.97637 0.81867 0.42313 0.0
C133 C 0.96972 0.81454 0.50492 0.0
C134 C 0.95599 0.81573 0.52636 0.0
C135 C 0.94859 0.82091 0.46613 0.0
C136 C 0.95562 0.82545 0.38531 0.0
C137 C 0.96934 0.82436 0.36422 0.0
C138 C 0.04814 0.844 0.43984 0.0
C139 C 0.03281 0.81353 0.58781 0.0
O140 O 0.07208 0.82033 0.34013 0.0
O141 O 0.06838 0.80862 0.46342 0.0
O142 O 0.03385 0.78303 0.40697 0.0
O143 O 0.02152 0.79591 0.40995 0.0
O144 O 0.04345 0.81068 0.26495 0.0
O145 O 0.02102 0.81439 0.26907 0.0
O146 O 0.99122 0.80432 0.43059 0.0
O147 O 1.00314 0.82801 0.36678 0.0
O148 O 0.03488 0.84212 0.47485 0.0
O149 O 0.04484 0.83264 0.38814 0.0
O150 O 0.01921 0.8104 0.54884 0.0
O151 O 0.04641 0.8173 0.54617 0.0
H152 H 0.10854 0.82491 0.34489 0.0
H153 H 0.11997 0.80871 0.28851 0.0
H154 H 0.073 0.76525 0.31334 0.0
H155 H 0.06176 0.78149 0.37046 0.0
H156 H 0.97486 0.81002 0.55146 0.0
H157 H 0.95084 0.81208 0.58907 0.0
H158 H 0.95042 0.82973 0.33786 0.0
H159 H 0.9742 0.82754 0.30066 0.0
Nd160 Nd 0.24771 0.26368 0.44458 0.0
Nd161 Nd 0.24344 0.22989 0.43795 0.0
C162 C 0.24636 0.29074 0.42589 0.0
C163 C 0.25348 0.30552 0.37336 0.0
C164 C 0.24679 0.31572 0.3767 0.0
C165 C 0.25435 0.33071 0.33493 0.0
C166 C 0.2688 0.33581 0.28902 0.0
C167 C 0.27514 0.32523 0.28326 0.0
C168 C 0.26755 0.31021 0.32511 0.0
C169 C 0.27621 0.26349 0.46392 0.0
C170 C 0.24782 0.2477 0.26085 0.0
C171 C 0.2456 0.20314 0.4453 0.0
C172 C 0.24163 0.18689 0.4774 0.0
C173 C 0.24596 0.18461 0.55918 0.0
C174 C 0.24417 0.16954 0.58285 0.0
C175 C 0.23817 0.15648 0.52503 0.0
C176 C 0.23354 0.15881 0.44394 0.0
C177 C 0.23521 0.17376 0.42068 0.0
C178 C 0.21482 0.23104 0.43136 0.0
C179 C 0.24387 0.246 0.62313 0.0
O180 O 0.2361 0.27699 0.38961 0.0
O181 O 0.25634 0.28934 0.47732 0.0
O182 O 0.27281 0.27351 0.50131 0.0
O183 O 0.26527 0.25465 0.41128 0.0
O184 O 0.244 0.25737 0.30231 0.0
O185 O 0.25145 0.23784 0.30153 0.0
O186 O 0.25482 0.2162 0.48994 0.0
O187 O 0.23507 0.20448 0.39775 0.0
O188 O 0.21713 0.22067 0.38898 0.0
O189 O 0.22681 0.2394 0.47817 0.0
O190 O 0.24619 0.23523 0.58163 0.0
O191 O 0.2413 0.25675 0.58349 0.0
H192 H 0.23593 0.31229 0.41361 0.0
H193 H 0.24901 0.33843 0.33977 0.0
H194 H 0.28634 0.32883 0.24932 0.0
H195 H 0.27293 0.30251 0.322 0.0
H196 H 0.25107 0.19453 0.60419 0.0
H197 H 0.24766 0.1682 0.64622 0.0
H198 H 0.22918 0.14926 0.39685 0.0
H199 H 0.23206 0.17525 0.35672 0.0
Nd200 Nd 0.79646 0.00924 0.40607 0.0
Nd201 Nd 0.83289 0.04011 0.41316 0.0
C202 C 0.77044 0.98006 0.3955 0.0
C203 C 0.75381 0.97335 0.36121 0.0
C204 C 0.74747 0.95986 0.307 0.0
C205 C 0.73187 0.9535 0.27263 0.0
C206 C 0.72221 0.96047 0.29213 0.0
C207 C 0.72864 0.97402 0.34662 0.0
C208 C 0.74428 0.98045 0.38031 0.0
C209 C 0.79557 0.03787 0.40906 0.0
C210 C 0.81428 0.02601 0.22761 0.0
C211 C 0.85977 0.06865 0.39748 0.0
C212 C 0.87559 0.08139 0.43116 0.0
C213 C 0.87751 0.08715 0.51465 0.0
C214 C 0.89232 0.10049 0.54089 0.0
C215 C 0.90546 0.10838 0.48401 0.0
C216 C 0.90345 0.10228 0.40101 0.0
C217 C 0.88875 0.08895 0.37519 0.0
C218 C 0.8297 0.01006 0.44227 0.0
C219 C 0.81406 0.02512 0.58804 0.0
O220 O 0.78222 0.98561 0.33981 0.0
O221 O 0.7741 0.98924 0.46312 0.0
O222 O 0.78263 0.02365 0.40421 0.0
O223 O 0.80783 0.03616 0.40913 0.0
O224 O 0.80132 0.01416 0.26491 0.0
O225 O 0.82712 0.03711 0.26984 0.0
O226 O 0.84639 0.06677 0.43216 0.0
O227 O 0.85853 0.05504 0.3702 0.0
O228 O 0.84075 0.02335 0.47851 0.0
O229 O 0.82173 0.01322 0.38932 0.0
O230 O 0.82435 0.03879 0.54924 0.0
O231 O 0.80449 0.01144 0.54631 0.0
H232 H 0.75465 0.95428 0.29074 0.0
H233 H 0.72747 0.94325 0.22989 0.0
H234 H 0.72152 0.97959 0.3642 0.0
H235 H 0.74889 0.99097 0.42139 0.0
H236 H 0.86751 0.08155 0.5591 0.0
H237 H 0.89344 0.10465 0.6056 0.0
H238 H 0.91306 0.10813 0.35466 0.0
H239 H 0.88749 0.08484 0.31022 0.0
Nd240 Nd 0.71089 0.57395 0.9206 0.0
Nd241 Nd 0.68103 0.58069 0.91892 0.0
C242 C 0.73954 0.57556 0.91495 0.0
C243 C 0.75186 0.57155 0.88372 0.0
C244 C 0.7626 0.58055 0.81801 0.0
C245 C 0.77611 0.57884 0.79967 0.0
C246 C 0.77928 0.56818 0.84712 0.0
C247 C 0.76816 0.55874 0.91058 0.0
C248 C 0.75467 0.56042 0.92874 0.0
C249 C 0.68002 0.54694 0.925 0.0
C250 C 0.69632 0.57756 0.73689 0.0
C251 C 0.65216 0.57824 0.92834 0.0
C252 C 0.64539 0.58749 0.96968 0.0
C253 C 0.62966 0.57924 1.00378 0.0
C254 C 0.62292 0.58787 0.04135 0.0
C255 C 0.6318 0.60496 0.04535 0.0
C256 C 0.6477 0.61317 0.01251 0.0
C257 C 0.65444 0.60453 0.97528 0.0
C258 C 0.71 0.60973 0.93633 0.0
C259 C 0.69678 0.57824 0.09736 0.0
O260 O 0.73615 0.58521 0.87111 0.0
O261 O 0.72733 0.56493 0.9607 0.0
O262 O 0.69248 0.5476 0.96292 0.0
O263 O 0.6844 0.55968 0.88285 0.0
O264 O 0.70755 0.57574 0.77733 0.0
O265 O 0.68464 0.57878 0.77624 0.0
O266 O 0.65664 0.57018 0.97843 0.0
O267 O 0.66235 0.58553 0.86593 0.0
O268 O 0.69587 0.60869 0.93551 0.0
O269 O 0.70797 0.59564 0.93184 0.0
O270 O 0.68306 0.57407 0.05686 0.0
O271 O 0.71037 0.58223 0.05624 0.0
H272 H 0.76097 0.58944 0.78299 0.0
H273 H 0.78447 0.5864 0.75083 0.0
H274 H 0.77007 0.55023 0.94753 0.0
H275 H 0.74678 0.55346 0.98052 0.0
H276 H 0.62252 0.5661 1.00059 0.0
H277 H 0.61063 0.58118 0.06562 0.0
H278 H 0.65499 0.62629 0.01597 0.0
H279 H 0.66671 0.61119 0.95049 0.0
Nd280 Nd 0.48841 0.16414 0.92334 0.0
Nd281 Nd 0.47955 0.12699 0.92413 0.0
C282 C 0.49209 0.19354 0.91108 0.0
C283 C 0.49049 0.20734 0.87931 0.0
C284 C 0.47564 0.20723 0.88208 0.0
C285 C 0.47505 0.22138 0.86371 0.0
C286 C 0.48931 0.23598 0.84278 0.0
C287 C 0.50405 0.23586 0.83818 0.0
C288 C 0.50461 0.22173 0.85608 0.0
C289 C 0.51402 0.1582 0.93866 0.0
C290 C 0.48225 0.1447 0.74392 0.0
C291 C 0.48086 0.09998 0.93456 0.0
C292 C 0.4714 0.08391 0.97591 0.0
C293 C 0.47913 0.07853 0.03227 0.0
C294 C 0.47044 0.06325 0.07071 0.0
C295 C 0.45382 0.05294 0.05312 0.0
C296 C 0.44611 0.05843 0.99681 0.0
C297 C 0.45475 0.07375 0.95908 0.0
C298 C 0.45114 0.12819 0.92758 0.0
C299 C 0.48289 0.14605 0.10477 0.0
O300 O 0.48007 0.18161 0.95246 0.0
O301 O 0.50185 0.18946 0.87361 0.0
O302 O 0.51352 0.17002 0.97693 0.0
O303 O 0.50173 0.15066 0.89229 0.0
O304 O 0.48094 0.15614 0.78512 0.0
O305 O 0.48439 0.13362 0.78336 0.0
O306 O 0.48929 0.11251 0.98441 0.0
O307 O 0.47381 0.10315 0.87188 0.0
O308 O 0.45163 0.1148 0.92907 0.0
O309 O 0.46541 0.14015 0.92684 0.0
O310 O 0.48294 0.13377 0.06559 0.0
O311 O 0.48336 0.15844 0.06426 0.0
H312 H 0.46455 0.19634 0.90047 0.0
H313 H 0.46344 0.22092 0.86684 0.0
H314 H 0.51535 0.24686 0.82393 0.0
H315 H 0.51627 0.22226 0.85499 0.0
H316 H 0.49194 0.08617 0.04654 0.0
H317 H 0.47675 0.05957 0.11463 0.0
H318 H 0.43341 0.05077 0.98049 0.0
H319 H 0.44838 0.07753 0.91615 0.0
Nd320 Nd 0.89702 0.35067 0.92185 0.0
Nd321 Nd 0.93431 0.37986 0.92403 0.0
C322 C 0.86902 0.32388 0.89941 0.0
C323 C 0.85335 0.30885 0.88665 0.0
C324 C 0.85244 0.29635 0.8356 0.0
C325 C 0.83751 0.28215 0.82234 0.0
C326 C 0.82328 0.28009 0.86136 0.0
C327 C 0.8243 0.29261 0.91324 0.0
C328 C 0.83919 0.30693 0.92507 0.0
C329 C 0.90231 0.38194 0.93568 0.0
C330 C 0.91679 0.36516 0.74295 0.0
C331 C 0.96103 0.40841 0.93633 0.0
C332 C 0.97685 0.41501 0.9793 0.0
C333 C 0.98591 0.43165 0.99796 0.0
C334 C 1.00128 0.4382 0.03542 0.0
C335 C 1.00788 0.42822 0.05455 0.0
C336 C 0.99858 0.41146 0.03739 0.0
C337 C 0.98319 0.40491 1.00036 0.0
C338 C 0.93313 0.35022 0.92747 0.0
C339 C 0.91472 0.36352 0.10389 0.0
O340 O 0.88178 0.32374 0.92991 0.0
O341 O 0.87113 0.33825 0.88083 0.0
O342 O 0.89035 0.36947 0.9728 0.0
O343 O 0.91026 0.37743 0.8907 0.0
O344 O 0.90525 0.35237 0.78323 0.0
O345 O 0.9279 0.37832 0.78286 0.0
O346 O 0.94831 0.40407 0.98503 0.0
O347 O 0.95833 0.39813 0.87455 0.0
O348 O 0.94658 0.36405 0.92888 0.0
O349 O 0.9214 0.35282 0.92685 0.0
O350 O 0.9269 0.37604 0.06482 0.0
O351 O 0.90249 0.35138 0.06323 0.0
H352 H 0.86326 0.29765 0.80525 0.0
H353 H 0.83711 0.27269 0.78245 0.0
H354 H 0.81353 0.2914 0.94365 0.0
H355 H 0.83967 0.31646 0.9648 0.0
H356 H 0.98119 0.43961 0.98243 0.0
H357 H 1.00817 0.45116 0.04744 0.0
H358 H 1.00319 0.4034 0.0527 0.0
H359 H 0.97632 0.39199 0.98734 0.0
Nd360 Nd 0.71632 0.14389 0.75991 0.0
Nd361 Nd 0.685 0.14896 0.75799 0.0
C362 C 0.74445 0.14481 0.74093 0.0
C363 C 0.75088 0.13506 0.70048 0.0
C364 C 0.75434 0.13621 0.61336 0.0
C365 C 0.7607 0.12709 0.57714 0.0
C366 C 0.76371 0.11663 0.62721 0.0
C367 C 0.76031 0.11558 0.71426 0.0
C368 C 0.75402 0.1247 0.75039 0.0
C369 C 0.68695 0.11654 0.7844 0.0
C370 C 0.70018 0.14561 0.57643 0.0
C371 C 0.65467 0.14313 0.76027 0.0
C372 C 0.64213 0.14643 0.79549 0.0
C373 C 0.6281 0.13356 0.83181 0.0
C374 C 0.61496 0.13552 0.85493 0.0
C375 C 0.61548 0.15044 0.84239 0.0
C376 C 0.62977 0.1635 0.80827 0.0
C377 C 0.64293 0.16152 0.78486 0.0
C378 C 0.71415 0.17828 0.77603 0.0
C379 C 0.70245 0.14905 0.93632 0.0
O380 O 0.73977 0.15284 0.69193 0.0
O381 O 0.73489 0.13823 0.80621 0.0
O382 O 0.70049 0.11876 0.81617 0.0
O383 O 0.68932 0.12781 0.73356 0.0
O384 O 0.71153 0.14403 0.617 0.0
O385 O 0.68865 0.14707 0.61568 0.0
O386 O 0.65969 0.13505 0.80672 0.0
O387 O 0.66601 0.15403 0.71107 0.0
O388 O 0.70006 0.17747 0.77534 0.0
O389 O 0.71168 0.16416 0.76835 0.0
O390 O 0.68844 0.14449 0.89753 0.0
O391 O 0.71606 0.15325 0.89406 0.0
H392 H 0.75215 0.14414 0.57307 0.0
H393 H 0.76305 0.12807 0.50974 0.0
H394 H 0.76271 0.10786 0.75496 0.0
H395 H 0.75168 0.12368 0.81782 0.0
H396 H 0.62704 0.12174 0.83956 0.0
H397 H 0.60414 0.12509 0.87966 0.0
H398 H 0.63074 0.17525 0.79879 0.0
H399 H 0.65353 0.17167 0.75663 0.0
Nd400 Nd 0.91489 0.59895 0.74791 0.0
Nd401 Nd 0.91102 0.56165 0.75197 0.0
C402 C 0.91055 0.62419 0.73522 0.0
C403 C 0.9201 0.64062 0.69891 0.0
C404 C 0.9123 0.64908 0.67237 0.0
C405 C 0.92134 0.66477 0.63866 0.0
C406 C 0.93835 0.67229 0.63122 0.0
C407 C 0.94607 0.66363 0.65671 0.0
C408 C 0.93703 0.64794 0.68997 0.0
C409 C 0.94464 0.6001 0.74642 0.0
C410 C 0.91354 0.58012 0.56935 0.0
C411 C 0.91741 0.53753 0.75433 0.0
C412 C 0.91403 0.52156 0.78773 0.0
C413 C 0.92687 0.52038 0.82421 0.0
C414 C 0.92484 0.50529 0.8477 0.0
C415 C 0.90987 0.49092 0.83552 0.0
C416 C 0.89685 0.49217 0.80087 0.0
C417 C 0.89892 0.50733 0.777 0.0
C418 C 0.88172 0.56161 0.76622 0.0
C419 C 0.91211 0.58034 0.92871 0.0
O420 O 0.90442 0.61213 0.68088 0.0
O421 O 0.91675 0.62123 0.80254 0.0
O422 O 0.94309 0.61293 0.74632 0.0
O423 O 0.93064 0.58779 0.74409 0.0
O424 O 0.91198 0.59167 0.60781 0.0
O425 O 0.91497 0.56867 0.61036 0.0
O426 O 0.92445 0.55014 0.80481 0.0
O427 O 0.90709 0.53815 0.70131 0.0
O428 O 0.88254 0.54833 0.76952 0.0
O429 O 0.89584 0.57317 0.75595 0.0
O430 O 0.9154 0.56984 0.89087 0.0
O431 O 0.90882 0.59056 0.88733 0.0
H432 H 0.89923 0.64358 0.67824 0.0
H433 H 0.91504 0.67114 0.61988 0.0
H434 H 0.95911 0.66893 0.65033 0.0
H435 H 0.9433 0.64156 0.70898 0.0
H436 H 0.93871 0.53113 0.83217 0.0
H437 H 0.93524 0.50487 0.87271 0.0
H438 H 0.88508 0.48142 0.7916 0.0
H439 H 0.88879 0.50784 0.7488 0.0
Nd440 Nd 0.4633 0.34452 0.73871 0.0
Nd441 Nd 0.49993 0.37579 0.74666 0.0
C442 C 0.43746 0.31519 0.72573 0.0
C443 C 0.42118 0.30832 0.68745 0.0
C444 C 0.41353 0.29252 0.65439 0.0
C445 C 0.39823 0.28592 0.61605 0.0
C446 C 0.39029 0.29503 0.61002 0.0
C447 C 0.39811 0.31096 0.64284 0.0
C448 C 0.41343 0.31756 0.68077 0.0
C449 C 0.46251 0.37323 0.74045 0.0
C450 C 0.48159 0.36133 0.56129 0.0
C451 C 0.52659 0.40452 0.73271 0.0
C452 C 0.54262 0.41701 0.76599 0.0
C453 C 0.54463 0.42328 0.84845 0.0
C454 C 0.55959 0.4365 0.87389 0.0
C455 C 0.57283 0.44379 0.81727 0.0
C456 C 0.57077 0.43717 0.73546 0.0
C457 C 0.5559 0.42395 0.7104 0.0
C458 C 0.49684 0.34564 0.77208 0.0
C459 C 0.48125 0.35998 0.92218 0.0
O460 O 0.44961 0.32087 0.67246 0.0
O461 O 0.44045 0.32452 0.79222 0.0
O462 O 0.44958 0.35904 0.73343 0.0
O463 O 0.47472 0.37143 0.74147 0.0
O464 O 0.46943 0.34859 0.59825 0.0
O465 O 0.49347 0.37353 0.60387 0.0
O466 O 0.5134 0.40226 0.7715 0.0
O467 O 0.52522 0.39122 0.69973 0.0
O468 O 0.5083 0.35889 0.80652 0.0
O469 O 0.48869 0.34899 0.72159 0.0
O470 O 0.49227 0.37351 0.88484 0.0
O471 O 0.47075 0.34672 0.87995 0.0
H472 H 0.41942 0.28528 0.65795 0.0
H473 H 0.3927 0.27372 0.59051 0.0
H474 H 0.39229 0.31826 0.64056 0.0
H475 H 0.41918 0.32986 0.70511 0.0
H476 H 0.53457 0.4182 0.89269 0.0
H477 H 0.56073 0.44107 0.93775 0.0
H478 H 0.58048 0.44254 0.68933 0.0
H479 H 0.55461 0.41948 0.64616 0.0
Nd480 Nd 0.37516 0.90494 0.25666 0.0
Nd481 Nd 0.34658 0.91394 0.25539 0.0
C482 C 0.40167 0.90244 0.2498 0.0
C483 C 0.41608 0.90319 0.20886 0.0
C484 C 0.43055 0.91805 0.1966 0.0
C485 C 0.4449 0.91831 0.17252 0.0
C486 C 0.44511 0.90372 0.16096 0.0
C487 C 0.43046 0.88891 0.16993 0.0
C488 C 0.41616 0.88865 0.19373 0.0
C489 C 0.34362 0.8796 0.27208 0.0
C490 C 0.36159 0.91035 0.07463 0.0
C491 C 0.31828 0.91285 0.26315 0.0
C492 C 0.31104 0.92189 0.30313 0.0
C493 C 0.30891 0.92185 0.39126 0.0
C494 C 0.30185 0.93035 0.427 0.0
C495 C 0.29681 0.9391 0.37547 0.0
C496 C 0.29892 0.93905 0.28744 0.0
C497 C 0.30591 0.93052 0.25179 0.0
C498 C 0.37672 0.94187 0.26363 0.0
C499 C 0.36188 0.9103 0.43573 0.0
O500 O 0.40188 0.9159 0.27073 0.0
O501 O 0.38713 0.89041 0.23159 0.0
O502 O 0.35588 0.88015 0.31172 0.0
O503 O 0.34836 0.8918 0.2247 0.0
O504 O 0.37339 0.90955 0.11519 0.0
O505 O 0.34931 0.91051 0.11362 0.0
O506 O 0.32212 0.90414 0.31231 0.0
O507 O 0.32894 0.92042 0.20299 0.0
O508 O 0.36314 0.942 0.26223 0.0
O509 O 0.37353 0.92737 0.26326 0.0
O510 O 0.34893 0.90875 0.3957 0.0
O511 O 0.37464 0.91149 0.39557 0.0
H512 H 0.43097 0.92948 0.2088 0.0
H513 H 0.45598 0.92994 0.16674 0.0
H514 H 0.43012 0.87745 0.16031 0.0
H515 H 0.40527 0.877 0.20367 0.0
H516 H 0.31274 0.91532 0.43275 0.0
H517 H 0.30058 0.9303 0.49511 0.0
H518 H 0.295 0.94548 0.24581 0.0
H519 H 0.30727 0.93066 0.1837 0.0
Nd520 Nd 0.15212 0.4962 0.26537 0.0
Nd521 Nd 0.14645 0.4582 0.26936 0.0
C522 C 0.14685 0.52103 0.26717 0.0
C523 C 0.1511 0.53761 0.23865 0.0
C524 C 0.14335 0.53979 0.16814 0.0
C525 C 0.14529 0.5551 0.14969 0.0
C526 C 0.15494 0.5686 0.20163 0.0
C527 C 0.16312 0.5665 0.27043 0.0
C528 C 0.16119 0.55122 0.28883 0.0
C529 C 0.18072 0.49487 0.2528 0.0
C530 C 0.15024 0.47737 0.08704 0.0
C531 C 0.1498 0.43233 0.28018 0.0
C532 C 0.1402 0.41601 0.31748 0.0
C533 C 0.14797 0.40757 0.3446 0.0
C534 C 0.13896 0.39204 0.38006 0.0
C535 C 0.12198 0.38467 0.38876 0.0
C536 C 0.11428 0.39331 0.36258 0.0
C537 C 0.1233 0.40884 0.32753 0.0
C538 C 0.11755 0.45864 0.27681 0.0
C539 C 0.14937 0.47758 0.44671 0.0
O540 O 0.13959 0.50879 0.21414 0.0
O541 O 0.15659 0.51949 0.32062 0.0
O542 O 0.1806 0.50854 0.25235 0.0
O543 O 0.16634 0.48364 0.26045 0.0
O544 O 0.14929 0.48937 0.12472 0.0
O545 O 0.15098 0.46551 0.12807 0.0
O546 O 0.15651 0.44444 0.33401 0.0
O547 O 0.14339 0.43545 0.21427 0.0
O548 O 0.11829 0.44536 0.27975 0.0
O549 O 0.13179 0.47048 0.27404 0.0
O550 O 0.15154 0.46644 0.40801 0.0
O551 O 0.14698 0.48841 0.40575 0.0
H552 H 0.13528 0.52954 0.12892 0.0
H553 H 0.13868 0.55619 0.09669 0.0
H554 H 0.17086 0.57665 0.31106 0.0
H555 H 0.16719 0.54998 0.34425 0.0
H556 H 0.16102 0.41297 0.33795 0.0
H557 H 0.14524 0.38568 0.39926 0.0
H558 H 0.10127 0.3881 0.36984 0.0
H559 H 0.11707 0.41523 0.30816 0.0
Nd560 Nd 0.56281 0.68363 0.25175 0.0
Nd561 Nd 0.59826 0.70971 0.25149 0.0
C562 C 0.53281 0.65864 0.24247 0.0
C563 C 0.5191 0.64364 0.20635 0.0
C564 C 0.51963 0.62919 0.1972 0.0
C565 C 0.50554 0.61461 0.17518 0.0
C566 C 0.49064 0.61419 0.1628 0.0
C567 C 0.49036 0.62881 0.16916 0.0
C568 C 0.5044 0.64332 0.19065 0.0
C569 C 0.56874 0.71509 0.27422 0.0
C570 C 0.58045 0.69645 0.06941 0.0
C571 C 0.62794 0.73518 0.24276 0.0
C572 C 0.6438 0.74222 0.28727 0.0
C573 C 0.64908 0.75603 0.33877 0.0
C574 C 0.66444 0.76337 0.37699 0.0
C575 C 0.67493 0.75713 0.36402 0.0
C576 C 0.66953 0.74315 0.3136 0.0
C577 C 0.65418 0.7358 0.27559 0.0
C578 C 0.59337 0.67865 0.2731 0.0
C579 C 0.58059 0.69648 0.43124 0.0
O580 O 0.54469 0.65799 0.28125 0.0
O581 O 0.53723 0.67272 0.20718 0.0
O582 O 0.55784 0.70271 0.31613 0.0
O583 O 0.57572 0.71058 0.22277 0.0
O584 O 0.5683 0.68428 0.10981 0.0
O585 O 0.59256 0.70868 0.10964 0.0
O586 O 0.61596 0.73542 0.28266 0.0
O587 O 0.62321 0.7218 0.19929 0.0
O588 O 0.6039 0.69134 0.3146 0.0
O589 O 0.58564 0.68262 0.22285 0.0
O590 O 0.59121 0.70967 0.39039 0.0
O591 O 0.56993 0.68336 0.39004 0.0
H592 H 0.53076 0.62902 0.2096 0.0
H593 H 0.50617 0.60356 0.17122 0.0
H594 H 0.47918 0.629 0.15884 0.0
H595 H 0.5036 0.65425 0.198 0.0
H596 H 0.64141 0.76133 0.34848 0.0
H597 H 0.66825 0.77417 0.41498 0.0
H598 H 0.67717 0.73784 0.30354 0.0
H599 H 0.65055 0.72518 0.23638 0.0
Nd600 Nd 0.38229 0.47628 0.10151 0.0
Nd601 Nd 0.35242 0.48309 0.10123 0.0
C602 C 0.41113 0.47875 0.08892 0.0
C603 C 0.41813 0.46953 0.04837 0.0
C604 C 0.42096 0.4703 0.96064 0.0
C605 C 0.4275 0.46141 0.92383 0.0
C606 C 0.43133 0.45153 0.97384 0.0
C607 C 0.42859 0.45088 0.06154 0.0
C608 C 0.42212 0.45979 0.09829 0.0
C609 C 0.35338 0.44702 0.1052 0.0
C610 C 0.36535 0.47815 0.92042 0.0
C611 C 0.32543 0.48398 0.12385 0.0
C612 C 0.31028 0.48443 0.13674 0.0
C613 C 0.29792 0.47287 0.18861 0.0
C614 C 0.28366 0.47348 0.20238 0.0
C615 C 0.28138 0.48549 0.16312 0.0
C616 C 0.29374 0.49693 0.11034 0.0
C617 C 0.30813 0.4965 0.09797 0.0
C618 C 0.38345 0.5096 0.08495 0.0
C619 C 0.36752 0.47916 0.28136 0.0
O620 O 0.40638 0.48671 0.03943 0.0
O621 O 0.40124 0.47161 0.15267 0.0
O622 O 0.36762 0.44831 0.10499 0.0
O623 O 0.35514 0.46105 0.10073 0.0
O624 O 0.37804 0.47892 0.9599 0.0
O625 O 0.35305 0.47796 0.96062 0.0
O626 O 0.32546 0.4712 0.09282 0.0
O627 O 0.33975 0.4963 0.14278 0.0
O628 O 0.37087 0.50845 0.04582 0.0
O629 O 0.37914 0.49751 0.13218 0.0
O630 O 0.35443 0.47706 0.24052 0.0
O631 O 0.38091 0.48186 0.24163 0.0
H632 H 0.41805 0.47769 0.92018 0.0
H633 H 0.42929 0.46205 0.85597 0.0
H634 H 0.43161 0.44357 0.10211 0.0
H635 H 0.42022 0.45903 0.1661 0.0
H636 H 0.29938 0.46348 0.21929 0.0
H637 H 0.27433 0.46445 0.24297 0.0
H638 H 0.29239 0.50639 0.07971 0.0
H639 H 0.31754 0.50553 0.05767 0.0
Nd640 Nd 0.58305 0.93091 0.09466 0.0
Nd641 Nd 0.5738 0.89336 0.09293 0.0
C642 C 0.58162 0.95785 0.08212 0.0
C643 C 0.59053 0.97352 0.03703 0.0
C644 C 0.58183 0.97972 0.99462 0.0
C645 C 0.59003 0.99473 0.9531 0.0
C646 C 0.60712 1.00387 0.95343 0.0
C647 C 0.6158 0.99747 0.99516 0.0
C648 C 0.6076 0.98242 0.03607 0.0
C649 C 0.61095 0.92867 0.08754 0.0
C650 C 0.57973 0.91201 0.91395 0.0
C651 C 0.57079 0.86415 0.10108 0.0
C652 C 0.57119 0.85049 0.14406 0.0
C653 C 0.58591 0.85065 0.15794 0.0
C654 C 0.58585 0.8365 0.18373 0.0
C655 C 0.5711 0.82187 0.19549 0.0
C656 C 0.55644 0.82195 0.18507 0.0
C657 C 0.55649 0.83606 0.15952 0.0
C658 C 0.54874 0.89996 0.07667 0.0
C659 C 0.57939 0.91244 0.27524 0.0
O660 O 0.57276 0.94497 0.03535 0.0
O661 O 0.58941 0.95521 0.143 0.0
O662 O 0.6111 0.9424 0.08947 0.0
O663 O 0.59643 0.91734 0.08688 0.0
O664 O 0.57836 0.92351 0.95398 0.0
O665 O 0.5806 0.90028 0.95422 0.0
O666 O 0.58444 0.8773 0.08117 0.0
O667 O 0.55883 0.86687 0.11716 0.0
O668 O 0.54928 0.88836 0.03577 0.0
O669 O 0.56081 0.9071 0.12506 0.0
O670 O 0.57831 0.89972 0.23458 0.0
O671 O 0.57978 0.925 0.23652 0.0
H672 H 0.56866 0.97298 0.99398 0.0
H673 H 0.58295 0.99914 0.92064 0.0
H674 H 0.62895 1.00424 0.99799 0.0
H675 H 0.61464 0.97788 0.06774 0.0
H676 H 0.59745 0.86151 0.14556 0.0
H677 H 0.59737 0.83685 0.19055 0.0
H678 H 0.54486 0.81097 0.19477 0.0
H679 H 0.54495 0.83547 0.14839 0.0
Nd680 Nd 0.12645 0.67517 0.0945 0.0
Nd681 Nd 0.16415 0.70795 0.09947 0.0
C682 C 0.10084 0.64581 0.08218 0.0
C683 C 0.08435 0.639 0.04657 0.0
C684 C 0.07736 0.62424 1.00223 0.0
C685 C 0.06182 0.61776 0.96685 0.0
C686 C 0.05297 0.62592 0.97549 0.0
C687 C 0.0601 0.64081 0.0193 0.0
C688 C 0.07565 0.64732 0.0542 0.0
C689 C 0.12625 0.70418 0.08769 0.0
C690 C 0.14606 0.69182 0.91753 0.0
C691 C 0.18835 0.73834 0.10039 0.0
C692 C 0.20412 0.75103 0.13522 0.0
C693 C 0.20521 0.76526 0.16806 0.0
C694 C 0.22024 0.77848 0.19113 0.0
C695 C 0.23464 0.7778 0.18208 0.0
C696 C 0.23347 0.76331 0.15156 0.0
C697 C 0.21838 0.75007 0.12814 0.0
C698 C 0.16345 0.67834 0.11218 0.0
C699 C 0.14547 0.69051 0.27731 0.0
O700 O 0.11277 0.65161 0.0272 0.0
O701 O 0.10411 0.65493 0.14994 0.0
O702 O 0.11312 0.69003 0.08477 0.0
O703 O 0.13827 0.70206 0.0901 0.0
O704 O 0.13495 0.67848 0.95624 0.0
O705 O 0.15679 0.70512 0.95844 0.0
O706 O 0.17531 0.73323 0.14748 0.0
O707 O 0.18805 0.72702 0.05134 0.0
O708 O 0.17696 0.69229 0.11365 0.0
O709 O 0.15202 0.68118 0.10382 0.0
O710 O 0.1574 0.70357 0.24006 0.0
O711 O 0.13368 0.67789 0.23594 0.0
H712 H 0.08394 0.61773 0.99495 0.0
H713 H 0.05665 0.60626 0.93368 0.0
H714 H 0.05374 0.64756 0.02561 0.0
H715 H 0.08088 0.65889 0.08682 0.0
H716 H 0.19444 0.7664 0.17313 0.0
H717 H 0.22062 0.78946 0.21304 0.0
H718 H 0.24424 0.76224 0.14488 0.0
H719 H 0.21795 0.73927 0.10277 0.0
C720 C 0.11753 0.3633 0.49637 0.0
C721 C 0.11226 0.36798 0.42423 0.0
C722 C 0.10799 0.3478 0.53236 0.0
C723 C 0.09286 0.33672 0.49518 0.0
C724 C 0.08773 0.34122 0.42089 0.0
C725 C 0.09747 0.35677 0.38648 0.0
C726 C 0.11383 0.34349 0.61175 0.0
C727 C 0.07171 0.32976 0.37893 0.0
C728 C 0.06892 0.29136 0.54149 0.0
C729 C 0.05633 0.29044 0.59164 0.0
C730 C 0.08161 0.30651 0.5135 0.0
C731 C 0.08165 0.32094 0.53696 0.0
C732 C 0.06961 0.32004 0.59308 0.0
C733 C 0.05704 0.30479 0.61914 0.0
C734 C 0.09421 0.30695 0.45374 0.0
C735 C 0.06928 0.33509 0.62067 0.0
H736 H 0.12889 0.37194 0.52621 0.0
H737 H 0.09346 0.36019 0.32986 0.0
H738 H 0.10578 0.34232 0.66538 0.0
H739 H 0.11321 0.33159 0.60421 0.0
H740 H 0.1265 0.35282 0.62829 0.0
H741 H 0.06996 0.33473 0.31876 0.0
H742 H 0.07096 0.31794 0.36554 0.0
H743 H 0.06155 0.32734 0.4222 0.0
H744 H 0.06824 0.28027 0.51908 0.0
H745 H 0.04729 0.30406 0.658 0.0
H746 H 0.10656 0.31673 0.47182 0.0
H747 H 0.09178 0.30967 0.38887 0.0
H748 H 0.09405 0.29518 0.45229 0.0
H749 H 0.08147 0.34457 0.64269 0.0
H750 H 0.06036 0.33249 0.67226 0.0
H751 H 0.06593 0.34017 0.56609 0.0
C752 C 0.75488 0.7726 0.58681 0.0
C753 C 0.76858 0.78818 0.58178 0.0
C754 C 0.73974 0.76941 0.55619 0.0
C755 C 0.73815 0.78217 0.5201 0.0
C756 C 0.75173 0.79818 0.51915 0.0
C757 C 0.76688 0.801 0.5497 0.0
C758 C 0.72566 0.75214 0.55824 0.0
C759 C 0.75045 0.81214 0.48228 0.0
C760 C 0.70477 0.76679 0.35497 0.0
C761 C 0.69152 0.76517 0.40207 0.0
C762 C 0.72025 0.7732 0.3914 0.0
C763 C 0.72262 0.77821 0.47713 0.0
C764 C 0.70951 0.77738 0.52387 0.0
C765 C 0.6941 0.77083 0.48587 0.0
C766 C 0.73389 0.77385 0.33921 0.0
C767 C 0.71155 0.78266 0.61523 0.0
H768 H 0.75611 0.76265 0.61189 0.0
H769 H 0.77747 0.81302 0.54511 0.0
H770 H 0.71492 0.7517 0.58857 0.0
H771 H 0.72215 0.74754 0.49264 0.0
H772 H 0.72867 0.74382 0.59299 0.0
H773 H 0.76125 0.82409 0.49778 0.0
H774 H 0.7494 0.81089 0.41245 0.0
H775 H 0.73937 0.81198 0.50587 0.0
H776 H 0.70298 0.76281 0.28961 0.0
H777 H 0.68393 0.76959 0.52288 0.0
H778 H 0.73734 0.76514 0.36518 0.0
H779 H 0.7448 0.78614 0.34249 0.0
H780 H 0.73043 0.77075 0.27177 0.0
H781 H 0.71302 0.77384 0.65489 0.0
H782 H 0.70093 0.78338 0.63909 0.0
H783 H 0.72267 0.79469 0.62329 0.0
C784 C 0.25472 0.99039 0.52907 0.0
C785 C 0.26522 1.00178 0.58825 0.0
C786 C 0.25774 0.97823 0.49821 0.0
C787 C 0.27139 0.97741 0.52848 0.0
C788 C 0.28114 0.98811 0.59346 0.0
C789 C 0.27803 1.00026 0.6218 0.0
C790 C 0.24713 0.96714 0.42852 0.0
C791 C 0.29566 0.98758 0.62852 0.0
C792 C 0.27833 0.94209 0.47922 0.0
C793 C 0.2897 0.94855 0.4131 0.0
C794 C 0.27181 0.9511 0.51576 0.0
C795 C 0.27681 0.96695 0.48567 0.0
C796 C 0.28809 0.97342 0.41815 0.0
C797 C 0.2944 0.96417 0.38288 0.0
C798 C 0.25983 0.9438 0.5876 0.0
C799 C 0.29389 0.99033 0.38456 0.0
H800 H 0.24496 0.99173 0.50219 0.0
H801 H 0.28616 0.00914 0.66747 0.0
H802 H 0.25389 0.97088 0.36781 0.0
H803 H 0.24398 0.9544 0.44094 0.0
H804 H 0.23573 0.96758 0.42111 0.0
H805 H 0.3007 0.99529 0.6858 0.0
H806 H 0.29235 0.97494 0.6448 0.0
H807 H 0.30536 0.99196 0.57981 0.0
H808 H 0.27449 0.92995 0.50225 0.0
H809 H 0.30334 0.96935 0.33271 0.0
H810 H 0.24864 0.94427 0.57319 0.0
H811 H 0.26515 0.951 0.64604 0.0
H812 H 0.25642 0.93098 0.60027 0.0
H813 H 0.28334 0.99169 0.36646 0.0
H814 H 0.30197 0.99321 0.3287 0.0
H815 H 0.30065 0.99942 0.43471 0.0
C816 C 0.36265 0.11544 0.81648 0.0
C817 C 0.35715 0.10355 0.75275 0.0
C818 C 0.37844 0.12214 0.84994 0.0
C819 C 0.38901 0.11686 0.81873 0.0
C820 C 0.38367 0.1052 0.7528 0.0
C821 C 0.36784 0.09869 0.7208 0.0
C822 C 0.38362 0.13442 0.92062 0.0
C823 C 0.39455 0.09926 0.71744 0.0
C824 C 0.43477 0.13873 0.85585 0.0
C825 C 0.43586 0.12834 0.91498 0.0
C826 C 0.41948 0.13578 0.82706 0.0
C827 C 0.4051 0.1223 0.85936 0.0
C828 C 0.40627 0.11269 0.92436 0.0
C829 C 0.42163 0.11574 0.95063 0.0
C830 C 0.41875 0.14625 0.75742 0.0
C831 C 0.39133 0.09837 0.96165 0.0
H832 H 0.35443 0.11919 0.84189 0.0
H833 H 0.3638 0.08975 0.6705 0.0
H834 H 0.38523 0.12907 0.97966 0.0
H835 H 0.39551 0.14528 0.90565 0.0
H836 H 0.37457 0.13835 0.93255 0.0
H837 H 0.38896 0.09098 0.66258 0.0
H838 H 0.40635 0.10971 0.69726 0.0
H839 H 0.39716 0.09266 0.76725 0.0
H840 H 0.44579 0.14834 0.82739 0.0
H841 H 0.42251 0.10769 0.9963 0.0
H842 H 0.40932 0.14956 0.77115 0.0
H843 H 0.41535 0.13932 0.6972 0.0
H844 H 0.43063 0.15756 0.74831 0.0
H845 H 0.38216 0.10186 0.97892 0.0
H846 H 0.39422 0.09348 0.01874 0.0
H847 H 0.3857 0.08852 0.91389 0.0
C848 C 0.94485 0.33244 0.94816 0.0
C849 C 0.93263 0.33468 0.91252 0.0
C850 C 0.94748 0.31992 0.92046 0.0
C851 C 0.93789 0.30965 0.85375 0.0
C852 C 0.92482 0.31122 0.82113 0.0
C853 C 0.92223 0.32368 0.85161 0.0
C854 C 0.96135 0.31855 0.95822 0.0
C855 C 0.91443 0.30063 0.74944 0.0
C856 C 0.9607 0.29564 0.71139 0.0
C857 C 0.95515 0.27973 0.7399 0.0
C858 C 0.95478 0.30526 0.7462 0.0
C859 C 0.94301 0.29888 0.81155 0.0
C860 C 0.93716 0.28276 0.83997 0.0
C861 C 0.94332 0.27338 0.80392 0.0
C862 C 0.96147 0.32244 0.71442 0.0
C863 C 0.92465 0.27554 0.90952 0.0
H864 H 0.95291 0.341 0.99519 0.0
H865 H 0.91293 0.32559 0.82315 0.0
H866 H 0.95741 0.3057 0.97335 0.0
H867 H 0.97139 0.32282 0.91157 0.0
H868 H 0.96616 0.32593 0.01671 0.0
H869 H 0.9034 0.30168 0.73985 0.0
H870 H 0.92162 0.30432 0.69007 0.0
H871 H 0.91064 0.2877 0.76121 0.0
H872 H 0.97001 0.30075 0.66294 0.0
H873 H 0.93883 0.26104 0.82566 0.0
H874 H 0.96815 0.33118 0.76609 0.0
H875 H 0.95139 0.32442 0.69466 0.0
H876 H 0.96988 0.32525 0.66008 0.0
H877 H 0.92975 0.28244 0.96902 0.0
H878 H 0.92068 0.26256 0.92126 0.0
H879 H 0.91383 0.27657 0.89318 0.0
C880 C 0.76724 0.69126 0.71667 0.0
C881 C 0.78182 0.70254 0.75597 0.0
C882 C 0.75737 0.67572 0.75093 0.0
C883 C 0.76217 0.67127 0.82653 0.0
C884 C 0.77713 0.68238 0.86513 0.0
C885 C 0.78678 0.69789 0.82941 0.0
C886 C 0.74153 0.66422 0.70751 0.0
C887 C 0.78264 0.67813 0.94588 0.0
C888 C 0.72594 0.63963 0.94939 0.0
C889 C 0.7253 0.62521 0.92399 0.0
C890 C 0.73856 0.6548 0.92283 0.0
C891 C 0.75075 0.65556 0.86836 0.0
C892 C 0.75075 0.64106 0.84694 0.0
C893 C 0.73801 0.62599 0.87545 0.0
C894 C 0.73817 0.66993 0.94824 0.0
C895 C 0.76351 0.64135 0.78898 0.0
H896 H 0.76347 0.69464 0.65909 0.0
H897 H 0.79797 0.70657 0.86057 0.0
H898 H 0.7408 0.65237 0.69552 0.0
H899 H 0.73119 0.66189 0.74921 0.0
H900 H 0.74007 0.66913 0.64642 0.0
H901 H 0.79528 0.68741 0.9632 0.0
H902 H 0.77444 0.67712 0.99842 0.0
H903 H 0.78193 0.66616 0.93969 0.0
H904 H 0.7161 0.63902 0.98704 0.0
H905 H 0.73741 0.61482 0.85487 0.0
H906 H 0.73511 0.67495 0.89232 0.0
H907 H 0.75027 0.67941 0.97131 0.0
H908 H 0.72902 0.66745 0.99842 0.0
H909 H 0.76138 0.64409 0.72355 0.0
H910 H 0.76325 0.62952 0.78846 0.0
H911 H 0.77583 0.65106 0.8081 0.0
C912 C 0.99217 0.76583 0.47859 0.0
C913 C 1.00458 0.76642 0.42818 0.0
C914 C 0.97952 0.75085 0.50875 0.0
C915 C 0.97928 0.73624 0.48687 0.0
C916 C 0.99122 0.73682 0.4311 0.0
C917 C 1.00378 0.7519 0.40314 0.0
C918 C 0.96708 0.75075 0.56841 0.0
C919 C 0.99135 0.72158 0.40513 0.0
C920 C 0.96281 0.70024 0.63654 0.0
C921 C 0.94811 0.68913 0.59753 0.0
C922 C 0.97267 0.71587 0.60318 0.0
C923 C 0.96778 0.72055 0.52868 0.0
C924 C 0.95271 0.7096 0.49052 0.0
C925 C 0.94303 0.69402 0.52547 0.0
C926 C 0.98862 0.72717 0.64616 0.0
C927 C 0.94711 0.7141 0.41086 0.0
H928 H 0.9929 0.77708 0.49883 0.0
H929 H 0.01338 0.75237 0.36397 0.0
H930 H 0.95464 0.74117 0.55024 0.0
H931 H 0.96938 0.74793 0.63332 0.0
H932 H 0.96753 0.76267 0.56977 0.0
H933 H 1.0004 0.72395 0.35458 0.0
H934 H 0.99435 0.71643 0.46069 0.0
H935 H 0.97917 0.71224 0.38228 0.0
H936 H 0.96667 0.69666 0.69312 0.0
H937 H 0.93174 0.68548 0.49468 0.0
H938 H 0.98957 0.73911 0.65864 0.0
H939 H 0.99886 0.72938 0.60394 0.0
H940 H 0.99008 0.72217 0.70693 0.0
H941 H 0.94796 0.72611 0.41825 0.0
H942 H 0.93441 0.70494 0.39395 0.0
H943 H 0.95517 0.71512 0.35755 0.0
C944 C 0.30006 0.27098 0.55413 0.0
C945 C 0.29189 0.26416 0.47813 0.0
C946 C 0.31588 0.27406 0.56803 0.0
C947 C 0.32386 0.27027 0.50405 0.0
C948 C 0.31542 0.26263 0.42844 0.0
C949 C 0.2994 0.25957 0.41636 0.0
C950 C 0.32427 0.28205 0.65002 0.0
C951 C 0.32353 0.25836 0.35906 0.0
C952 C 0.36947 0.29743 0.5226 0.0
C953 C 0.37372 0.28786 0.57214 0.0
C954 C 0.35344 0.29141 0.49452 0.0
C955 C 0.34134 0.27537 0.51594 0.0
C956 C 0.34575 0.26528 0.56096 0.0
C957 C 0.36186 0.27167 0.5889 0.0
C958 C 0.34927 0.30259 0.44661 0.0
C959 C 0.33325 0.24809 0.5846 0.0
H960 H 0.29417 0.27432 0.60252 0.0
H961 H 0.29308 0.2543 0.35753 0.0
H962 H 0.32904 0.27483 0.68122 0.0
H963 H 0.33479 0.29429 0.63683 0.0
H964 H 0.31604 0.28341 0.69494 0.0
H965 H 0.31474 0.25055 0.30979 0.0
H966 H 0.33301 0.26967 0.32857 0.0
H967 H 0.32967 0.252 0.38545 0.0
H968 H 0.37862 0.30982 0.50744 0.0
H969 H 0.36494 0.26416 0.62741 0.0
H970 H 0.34186 0.30589 0.4875 0.0
H971 H 0.34189 0.29638 0.38987 0.0
H972 H 0.36029 0.31397 0.42637 0.0
H973 H 0.3254 0.24833 0.63592 0.0
H974 H 0.33897 0.24104 0.60702 0.0
H975 H 0.32527 0.24167 0.5299 0.0
C976 C 0.76399 0.09047 0.61459 0.0
C977 C 0.77022 0.10667 0.58933 0.0
C978 C 0.77006 0.0809 0.58088 0.0
C979 C 0.78263 0.08762 0.51971 0.0
C980 C 0.789 0.10396 0.49372 0.0
C981 C 0.78272 0.1133 0.52887 0.0
C982 C 0.76284 0.0635 0.61004 0.0
C983 C 0.80231 0.1115 0.42823 0.0
C984 C 0.80454 0.06366 0.48885 0.0
C985 C 0.7951 0.0529 0.42467 0.0
C986 C 0.80118 0.07567 0.51812 0.0
C987 C 0.7884 0.07714 0.48048 0.0
C988 C 0.7798 0.06711 0.41093 0.0
C989 C 0.78307 0.05493 0.38492 0.0
C990 C 0.81041 0.08589 0.59345 0.0
C991 C 0.76636 0.06848 0.36764 0.0
H992 H 0.75415 0.08516 0.66014 0.0
H993 H 0.78773 0.12586 0.50965 0.0
H994 H 0.75689 0.05513 0.55602 0.0
H995 H 0.77257 0.0613 0.63369 0.0
H996 H 0.75369 0.06037 0.66099 0.0
H997 H 0.80615 0.12444 0.4159 0.0
H998 H 0.81305 0.11073 0.4493 0.0
H999 H 0.79806 0.10465 0.36795 0.0
H1000 H 0.81367 0.0619 0.52043 0.0
H1001 H 0.77577 0.04654 0.33535 0.0
H1002 H 0.80223 0.08209 0.64927 0.0
H1003 H 0.81456 0.0989 0.58161 0.0
H1004 H 0.82112 0.08463 0.60921 0.0
H1005 H 0.75567 0.0638 0.41026 0.0
H1006 H 0.76248 0.06144 0.30768 0.0
H1007 H 0.77032 0.08137 0.3536 0.0
C1008 C 0.62855 0.92761 0.19883 0.0
C1009 C 0.62512 0.92737 0.11262 0.0
C1010 C 0.64403 0.93111 0.22625 0.0
C1011 C 0.65627 0.93429 0.16567 0.0
C1012 C 0.65243 0.9329 0.07827 0.0
C1013 C 0.63691 0.92968 0.05272 0.0
C1014 C 0.64763 0.93271 0.31992 0.0
C1015 C 0.66502 0.9359 0.01173 0.0
C1016 C 0.69968 0.96407 0.23216 0.0
C1017 C 0.70551 0.95368 0.25614 0.0
C1018 C 0.68378 0.9579 0.20182 0.0
C1019 C 0.67343 0.94088 0.19374 0.0
C1020 C 0.67933 0.93031 0.21532 0.0
C1021 C 0.69524 0.93681 0.24684 0.0
C1022 C 0.67796 0.96962 0.17977 0.0
C1023 C 0.66875 0.91212 0.20639 0.0
H1024 H 0.61946 0.92618 0.24492 0.0
H1025 H 0.63428 0.9298 0.98606 0.0
H1026 H 0.65369 0.92575 0.33792 0.0
H1027 H 0.6561 0.94566 0.33561 0.0
H1028 H 0.63646 0.92837 0.3587 0.0
H1029 H 0.6595 0.93189 0.94802 0.0
H1030 H 0.67404 0.94908 1.00887 0.0
H1031 H 0.6717 0.92946 0.02798 0.0
H1032 H 0.70758 0.97712 0.23708 0.0
H1033 H 0.6995 0.92863 0.26588 0.0
H1034 H 0.66729 0.96706 0.21933 0.0
H1035 H 0.67399 0.96801 0.11275 0.0
H1036 H 0.68753 0.9825 0.18946 0.0
H1037 H 0.65827 0.90762 0.25033 0.0
H1038 H 0.6755 0.90563 0.22018 0.0
H1039 H 0.66375 0.90899 0.14129 0.0
C1040 C 0.10016 0.76076 0.30111 0.0
C1041 C 0.10431 0.77571 0.26354 0.0
C1042 C 0.10595 0.75086 0.26847 0.0
C1043 C 0.11615 0.756 0.19626 0.0
C1044 C 0.12077 0.77129 0.15936 0.0
C1045 C 0.1148 0.78097 0.19344 0.0
C1046 C 0.10076 0.73467 0.31001 0.0
C1047 C 0.13155 0.77716 0.08219 0.0
C1048 C 0.1373 0.73162 0.15464 0.0
C1049 C 0.12603 0.71943 0.1012 0.0
C1050 C 0.13482 0.74429 0.18251 0.0
C1051 C 0.12075 0.74468 0.15598 0.0
C1052 C 0.10997 0.73297 0.09737 0.0
C1053 C 0.1127 0.72044 0.07123 0.0
C1054 C 0.14659 0.75653 0.24499 0.0
C1055 C 0.09491 0.73299 0.06669 0.0
H1056 H 0.09231 0.75675 0.35618 0.0
H1057 H 0.11797 0.79245 0.16363 0.0
H1058 H 0.09323 0.72468 0.26537 0.0
H1059 H 0.11157 0.73364 0.32607 0.0
H1060 H 0.09359 0.7329 0.36859 0.0
H1061 H 0.13521 0.7899 0.06565 0.0
H1062 H 0.14267 0.77633 0.09264 0.0
H1063 H 0.12503 0.76925 0.02742 0.0
H1064 H 0.14738 0.73062 0.1795 0.0
H1065 H 0.10395 0.71097 0.03002 0.0
H1066 H 0.14092 0.7539 0.30865 0.0
H1067 H 0.14952 0.76902 0.22757 0.0
H1068 H 0.15808 0.75616 0.24895 0.0
H1069 H 0.08615 0.72969 0.11967 0.0
H1070 H 0.08882 0.72421 0.01424 0.0
H1071 H 0.098 0.74529 0.04469 0.0
C1072 C 0.32298 0.42775 0.10393 0.0
C1073 C 0.33864 0.43181 0.13047 0.0
C1074 C 0.3095 0.41239 0.1239 0.0
C1075 C 0.31184 0.40119 0.17288 0.0
C1076 C 0.3276 0.40565 0.20227 0.0
C1077 C 0.34074 0.42077 0.18 0.0
C1078 C 0.29291 0.40794 0.09054 0.0
C1079 C 0.3307 0.39434 0.25632 0.0
C1080 C 0.27963 0.36588 0.29931 0.0
C1081 C 0.27783 0.35251 0.25249 0.0
C1082 C 0.28966 0.38187 0.27068 0.0
C1083 C 0.29816 0.38462 0.19333 0.0
C1084 C 0.29558 0.37116 0.14321 0.0
C1085 C 0.2855 0.35528 0.17349 0.0
C1086 C 0.29215 0.39583 0.32652 0.0
C1087 C 0.3043 0.37353 0.06004 0.0
H1088 H 0.32136 0.43627 0.0654 0.0
H1089 H 0.35281 0.42397 0.20163 0.0
H1090 H 0.28894 0.39794 0.04382 0.0
H1091 H 0.28385 0.40341 0.1425 0.0
H1092 H 0.29284 0.41839 0.05948 0.0
H1093 H 0.34357 0.4 0.27713 0.0
H1094 H 0.32283 0.39065 0.31332 0.0
H1095 H 0.3276 0.38314 0.2203 0.0
H1096 H 0.27388 0.36392 0.36076 0.0
H1097 H 0.28395 0.34503 0.13616 0.0
H1098 H 0.2916 0.40539 0.2888 0.0
H1099 H 0.30439 0.40143 0.35592 0.0
H1100 H 0.28293 0.39182 0.37778 0.0
H1101 H 0.30356 0.38288 0.02133 0.0
H1102 H 0.29922 0.36207 0.02302 0.0
H1103 H 0.31736 0.37792 0.07211 0.0
C1104 C 0.03526 0.43038 0.05948 0.0
C1105 C 0.02454 0.43526 0.09061 0.0
C1106 C 0.05087 0.43653 0.09391 0.0
C1107 C 0.05591 0.44781 0.16157 0.0
C1108 C 0.0453 0.45308 0.19215 0.0
C1109 C 0.02974 0.44677 0.15616 0.0
C1110 C 0.06183 0.43064 0.05905 0.0
C1111 C 0.05017 0.46496 0.26461 0.0
C1112 C 0.08788 0.44592 0.29579 0.0
C1113 C 0.10226 0.45871 0.26254 0.0
C1114 C 0.07265 0.44303 0.268 0.0
C1115 C 0.07179 0.45298 0.20393 0.0
C1116 C 0.08631 0.46659 0.17404 0.0
C1117 C 0.10145 0.46937 0.20423 0.0
C1118 C 0.05752 0.42854 0.3027 0.0
C1119 C 0.08593 0.47743 0.10541 0.0
H1120 H 0.03144 0.42173 1.00783 0.0
H1121 H 0.02148 0.45051 0.1809 0.0
H1122 H 0.07375 0.44114 0.04082 0.0
H1123 H 0.06415 0.42377 0.10852 0.0
H1124 H 0.05648 0.42264 1.00302 0.0
H1125 H 0.04108 0.46883 0.27651 0.0
H1126 H 0.05152 0.45927 0.32306 0.0
H1127 H 0.06212 0.47589 0.25165 0.0
H1128 H 0.08854 0.43766 0.34079 0.0
H1129 H 0.11258 0.47908 0.17735 0.0
H1130 H 0.05211 0.41892 0.25359 0.0
H1131 H 0.04828 0.43196 0.3195 0.0
H1132 H 0.06013 0.42336 0.35956 0.0
H1133 H 0.08281 0.47081 0.04425 0.0
H1134 H 0.09784 0.48878 0.09841 0.0
H1135 H 0.07644 0.48068 0.11866 0.0
C1136 C 0.61528 0.60899 0.15717 0.0
C1137 C 0.62448 0.61424 0.08247 0.0
C1138 C 0.60863 0.61789 0.19347 0.0
C1139 C 0.61129 0.63242 0.1543 0.0
C1140 C 0.62033 0.63764 0.07817 0.0
C1141 C 0.62677 0.62848 0.04319 0.0
C1142 C 0.59904 0.61193 0.27456 0.0
C1143 C 0.62346 0.65307 0.03437 0.0
C1144 C 0.58601 0.65243 0.2005 0.0
C1145 C 0.59643 0.66515 0.25431 0.0
C1146 C 0.59025 0.64107 0.17106 0.0
C1147 C 0.6054 0.64271 0.19466 0.0
C1148 C 0.6156 0.65511 0.25198 0.0
C1149 C 0.61089 0.66605 0.28186 0.0
C1150 C 0.57889 0.62779 0.11157 0.0
C1151 C 0.63195 0.65745 0.27781 0.0
H1152 H 0.61355 0.59808 0.18833 0.0
H1153 H 0.6336 0.63247 0.98466 0.0
H1154 H 0.60553 0.62076 0.32615 0.0
H1155 H 0.587 0.61105 0.26714 0.0
H1156 H 0.59714 0.59987 0.29404 0.0
H1157 H 0.63045 0.65527 0.97474 0.0
H1158 H 0.61177 0.6525 0.0195 0.0
H1159 H 0.63036 0.66362 0.07703 0.0
H1160 H 0.5748 0.65168 0.17923 0.0
H1161 H 0.61903 0.67587 0.32331 0.0
H1162 H 0.57722 0.61588 0.1319 0.0
H1163 H 0.58423 0.63027 0.04716 0.0
H1164 H 0.56678 0.62689 0.10805 0.0
H1165 H 0.63063 0.64591 0.30215 0.0
H1166 H 0.63794 0.66698 0.32712 0.0
H1167 H 0.64006 0.66103 0.22177 0.0
C1168 C 0.45174 0.02676 0.10337 0.0
C1169 C 0.44454 0.03645 0.09213 0.0
C1170 C 0.44282 0.01093 0.13642 0.0
C1171 C 0.42624 1.00451 0.15743 0.0
C1172 C 0.41899 0.01431 0.14779 0.0
C1173 C 0.42825 0.03017 0.11613 0.0
C1174 C 0.45105 1.00095 0.14727 0.0
C1175 C 0.40131 1.00794 0.16913 0.0
C1176 C 0.39567 0.95937 0.15313 0.0
C1177 C 0.3922 0.95609 0.23924 0.0
C1178 C 0.40747 0.97491 0.12559 0.0
C1179 C 0.41611 0.98733 0.18599 0.0
C1180 C 0.4135 0.98363 0.27345 0.0
C1181 C 0.40133 0.96807 0.29908 0.0
C1182 C 0.40965 0.97836 0.0318 0.0
C1183 C 0.42269 0.99641 0.33986 0.0
H1184 H 0.46425 0.03138 0.0844 0.0
H1185 H 0.42265 0.03764 0.1098 0.0
H1186 H 0.44909 0.99596 0.2124 0.0
H1187 H 0.44561 0.99047 0.10312 0.0
H1188 H 0.46433 0.00816 0.13498 0.0
H1189 H 0.39753 0.01713 0.15826 0.0
H1190 H 0.39351 0.99706 0.13002 0.0
H1191 H 0.399 1.00411 0.23635 0.0
H1192 H 0.38828 0.95013 0.10704 0.0
H1193 H 0.39838 0.96553 0.36562 0.0
H1194 H 0.42272 0.98478 0.01479 0.0
H1195 H 0.40479 0.98645 0.01462 0.0
H1196 H 0.40322 0.96708 0.99339 0.0
H1197 H 0.43582 1.0035 0.32396 0.0
H1198 H 0.42132 0.99099 0.40371 0.0
H1199 H 0.41803 1.00503 0.3422 0.0
C1200 C 0.65994 0.09308 0.74084 0.0
C1201 C 0.67137 0.10187 0.80384 0.0
C1202 C 0.64716 0.07717 0.75701 0.0
C1203 C 0.64587 0.07016 0.83797 0.0
C1204 C 0.65667 0.07962 0.90326 0.0
C1205 C 0.66932 0.0953 0.88515 0.0
C1206 C 0.6358 0.0675 0.68604 0.0
C1207 C 0.65567 0.07279 0.99081 0.0
C1208 C 0.61006 0.03114 0.92042 0.0
C1209 C 0.61595 0.02025 0.91321 0.0
C1210 C 0.61913 0.04718 0.89037 0.0
C1211 C 0.63455 0.05253 0.85334 0.0
C1212 C 0.64016 0.04137 0.8418 0.0
C1213 C 0.63076 0.02537 0.87137 0.0
C1214 C 0.61263 0.05864 0.90287 0.0
C1215 C 0.65655 0.04657 0.80263 0.0
H1216 H 0.66163 0.09817 0.67778 0.0
H1217 H 0.67813 0.10222 0.93398 0.0
H1218 H 0.63907 0.05854 0.66212 0.0
H1219 H 0.62305 0.06061 0.70882 0.0
H1220 H 0.6365 0.07541 0.63254 0.0
H1221 H 0.66399 0.08223 0.03622 0.0
H1222 H 0.64309 0.06723 0.01562 0.0
H1223 H 0.65892 0.06309 0.98785 0.0
H1224 H 0.59869 0.02739 0.95297 0.0
H1225 H 0.63523 0.01696 0.86344 0.0
H1226 H 0.61437 0.0659 0.84482 0.0
H1227 H 0.61945 0.06728 0.95464 0.0
H1228 H 0.59951 0.05207 0.91957 0.0
H1229 H 0.65782 0.05289 0.74173 0.0
H1230 H 0.65848 0.03612 0.79115 0.0
H1231 H 0.66631 0.05528 0.84533 0.0
C1232 C 0.03307 0.61259 0.85645 0.0
C1233 C 0.03641 0.61907 0.9386 0.0
C1234 C 0.01777 0.60718 0.81903 0.0
C1235 C 1.00556 0.60829 0.86484 0.0
C1236 C 1.00866 0.61419 0.94902 0.0
C1237 C 0.02403 0.61951 0.98479 0.0
C1238 C 0.01494 0.60096 0.72921 0.0
C1239 C 0.99595 0.61554 1.00022 0.0
C1240 C 0.97464 0.61579 0.75379 0.0
C1241 C 0.96029 0.60084 0.76356 0.0
C1242 C 0.98958 0.6181 0.78273 0.0
C1243 C 0.99023 0.60509 0.82246 0.0
C1244 C 0.97593 0.58965 0.8281 0.0
C1245 C 0.96107 0.58773 0.79866 0.0
C1246 C 1.00449 0.63476 0.77522 0.0
C1247 C 0.97615 0.57544 0.86939 0.0
H1248 H 0.0426 0.61229 0.82019 0.0
H1249 H 0.02643 0.62421 0.04886 0.0
H1250 H 1.00324 0.58934 0.72425 0.0
H1251 H 0.01411 0.60985 0.68704 0.0
H1252 H 0.02487 0.59902 0.70592 0.0
H1253 H 0.99985 0.61923 0.06671 0.0
H1254 H 0.99344 0.62467 0.97089 0.0
H1255 H 0.98438 0.60376 1.00049 0.0
H1256 H 0.9741 0.62597 0.72635 0.0
H1257 H 0.95002 0.57627 0.80713 0.0
H1258 H 0.01465 0.63389 0.74608 0.0
H1259 H 1.00851 0.6401 0.83919 0.0
H1260 H 1.00219 0.64319 0.73679 0.0
H1261 H 0.98654 0.57431 0.84577 0.0
H1262 H 0.9647 0.56381 0.85784 0.0
H1263 H 0.97775 0.57749 0.93868 0.0
C1264 C 0.44978 0.44824 0.87123 0.0
C1265 C 0.4379 0.4417 0.93492 0.0
C1266 C 0.45591 0.43896 0.83392 0.0
C1267 C 0.45004 0.42276 0.86095 0.0
C1268 C 0.43816 0.41615 0.9257 0.0
C1269 C 0.43222 0.42567 0.96162 0.0
C1270 C 0.4685 0.44639 0.7648 0.0
C1271 C 0.43147 0.39888 0.95611 0.0
C1272 C 0.44948 0.38996 0.72256 0.0
C1273 C 0.46202 0.3882 0.75787 0.0
C1274 C 0.44626 0.40203 0.75128 0.0
C1275 C 0.45551 0.41227 0.81888 0.0
C1276 C 0.46879 0.4111 0.85176 0.0
C1277 C 0.47202 0.39915 0.82001 0.0
C1278 C 0.43223 0.40307 0.71304 0.0
C1279 C 0.47877 0.42159 0.92475 0.0
H1280 H 0.45437 0.46068 0.8509 0.0
H1281 H 0.42286 0.42041 0.00977 0.0
H1282 H 0.47946 0.44568 0.78186 0.0
H1283 H 0.46361 0.43943 0.70527 0.0
H1284 H 0.47219 0.45931 0.75278 0.0
H1285 H 0.42291 0.39586 0.00991 0.0
H1286 H 0.42498 0.39028 0.90365 0.0
H1287 H 0.44156 0.39692 0.97617 0.0
H1288 H 0.44173 0.38144 0.67456 0.0
H1289 H 0.48157 0.3976 0.84822 0.0
H1290 H 0.43589 0.41588 0.69867 0.0
H1291 H 0.42207 0.39847 0.75906 0.0
H1292 H 0.4277 0.39581 0.65402 0.0
H1293 H 0.48252 0.43451 0.91317 0.0
H1294 H 0.48981 0.42063 0.93608 0.0
H1295 H 0.47127 0.41777 0.9831 0.0
C1296 C 0.1363 0.24227 0.41443 0.0
C1297 C 0.12536 0.23336 0.47947 0.0
C1298 C 0.15071 0.24177 0.40215 0.0
C1299 C 0.15431 0.23206 0.45588 0.0
C1300 C 0.14319 0.22277 0.52051 0.0
C1301 C 0.12891 0.22356 0.53165 0.0
C1302 C 0.16222 0.25186 0.3325 0.0
C1303 C 0.14656 0.21227 0.5793 0.0
C1304 C 0.18577 0.22044 0.38849 0.0
C1305 C 0.19947 0.23153 0.43472 0.0
C1306 C 0.17104 0.22057 0.39398 0.0
C1307 C 0.16999 0.23208 0.4468 0.0
C1308 C 0.1839 0.24347 0.49252 0.0
C1309 C 0.19844 0.24305 0.48592 0.0
C1310 C 0.15652 0.20825 0.34411 0.0
C1311 C 0.18337 0.25598 0.54932 0.0
H1312 H 0.13361 0.24971 0.37299 0.0
H1313 H 0.12074 0.21683 0.58301 0.0
H1314 H 0.17407 0.26097 0.36011 0.0
H1315 H 0.16459 0.24401 0.28978 0.0
H1316 H 0.15742 0.25835 0.29437 0.0
H1317 H 0.13636 0.20523 0.62389 0.0
H1318 H 0.14877 0.20364 0.54226 0.0
H1319 H 0.15772 0.22 0.61653 0.0
H1320 H 0.18653 0.21155 0.34868 0.0
H1321 H 0.20902 0.25172 0.5215 0.0
H1322 H 0.15193 0.21453 0.30285 0.0
H1323 H 0.14652 0.20038 0.38796 0.0
H1324 H 0.15942 0.20043 0.30411 0.0
H1325 H 0.17953 0.26344 0.51262 0.0
H1326 H 0.19534 0.26421 0.57906 0.0
H1327 H 0.17426 0.24981 0.60014 0.0
C1328 C 0.81719 0.98051 0.40525 0.0
C1329 C 0.82758 0.99369 0.4568 0.0
C1330 C 0.81555 0.96507 0.4168 0.0
C1331 C 0.82441 0.9627 0.48196 0.0
C1332 C 0.83473 0.97593 0.53496 0.0
C1333 C 0.83622 0.99125 0.52154 0.0
C1334 C 0.80447 0.95133 0.35874 0.0
C1335 C 0.84425 0.97391 0.60576 0.0
C1336 C 0.80985 0.91978 0.56299 0.0
C1337 C 0.82062 0.9158 0.52296 0.0
C1338 C 0.81086 0.93489 0.54967 0.0
C1339 C 0.82293 0.9464 0.4949 0.0
C1340 C 0.83377 0.94245 0.45386 0.0
C1341 C 0.83251 0.92724 0.46849 0.0
C1342 C 0.79914 0.93863 0.5952 0.0
C1343 C 0.84675 0.95431 0.3946 0.0
H1344 H 0.81049 0.98233 0.35501 0.0
H1345 H 0.8442 1.00137 0.56185 0.0
H1346 H 0.81155 0.94671 0.32462 0.0
H1347 H 0.79503 0.94108 0.39621 0.0
H1348 H 0.79835 0.95512 0.3115 0.0
H1349 H 0.85153 0.98532 0.64217 0.0
H1350 H 0.83584 0.96427 0.64985 0.0
H1351 H 0.85259 0.97 0.57967 0.0
H1352 H 0.8008 0.91117 0.60632 0.0
H1353 H 0.84077 0.92425 0.43656 0.0
H1354 H 0.79232 0.9417 0.54882 0.0
H1355 H 0.80595 0.9494 0.63663 0.0
H1356 H 0.79028 0.92829 0.63455 0.0
H1357 H 0.84109 0.95766 0.34278 0.0
H1358 H 0.85403 0.9493 0.36638 0.0
H1359 H 0.85508 0.96566 0.42908 0.0
C1360 C 0.06663 0.87122 0.5044 0.0
C1361 C 0.06457 0.85837 0.45234 0.0
C1362 C 0.08198 0.88521 0.51459 0.0
C1363 C 0.09569 0.88635 0.47246 0.0
C1364 C 0.09371 0.87327 0.42094 0.0
C1365 C 0.07817 0.8595 0.4111 0.0
C1366 C 0.08348 0.89889 0.56962 0.0
C1367 C 0.10799 0.87388 0.37558 0.0
C1368 C 0.13181 0.92882 0.43537 0.0
C1369 C 0.14223 0.93051 0.50258 0.0
C1370 C 0.11677 0.9145 0.42431 0.0
C1371 C 0.11199 0.90136 0.48124 0.0
C1372 C 0.12258 0.9028 0.54798 0.0
C1373 C 0.1375 0.91734 0.55808 0.0
C1374 C 0.10586 0.91352 0.35237 0.0
C1375 C 0.11801 0.88907 0.60982 0.0
H1376 H 0.05617 0.87043 0.53644 0.0
H1377 H 0.07665 0.84965 0.37055 0.0
H1378 H 0.09241 0.90144 0.62095 0.0
H1379 H 0.08808 0.91015 0.53152 0.0
H1380 H 0.07169 0.89607 0.59855 0.0
H1381 H 0.10458 0.86244 0.3409 0.0
H1382 H 0.11315 0.8841 0.32981 0.0
H1383 H 0.11775 0.87616 0.4215 0.0
H1384 H 0.13539 0.93876 0.39118 0.0
H1385 H 0.14526 0.91851 0.61101 0.0
H1386 H 0.09416 0.91166 0.37781 0.0
H1387 H 0.10302 0.90294 0.31146 0.0
H1388 H 0.11144 0.92468 0.31278 0.0
H1389 H 0.10699 0.88671 0.64553 0.0
H1390 H 0.12791 0.89175 0.65569 0.0
H1391 H 0.11502 0.87773 0.57532 0.0
C1392 C 0.24946 0.14044 0.59676 0.0
C1393 C 0.23731 0.14072 0.54717 0.0
C1394 C 0.24927 0.1258 0.6137 0.0
C1395 C 0.23677 0.11102 0.57932 0.0
C1396 C 0.22437 0.11116 0.53022 0.0
C1397 C 0.2247 0.12592 0.51548 0.0
C1398 C 0.26262 0.12617 0.66717 0.0
C1399 C 0.21088 0.09573 0.49169 0.0
C1400 C 0.24483 0.07595 0.54526 0.0
C1401 C 0.23583 0.0653 0.61097 0.0
C1402 C 0.24533 0.09088 0.53466 0.0
C1403 C 0.23691 0.09549 0.59222 0.0
C1404 C 0.22823 0.08499 0.66031 0.0
C1405 C 0.22766 0.06995 0.66839 0.0
C1406 C 0.25451 0.10154 0.4604 0.0
C1407 C 0.21935 0.08955 0.72399 0.0
H1408 H 0.25941 0.15174 0.6207 0.0
H1409 H 0.21506 0.12585 0.47854 0.0
H1410 H 0.2573 0.11738 0.72012 0.0
H1411 H 0.26995 0.12243 0.62855 0.0
H1412 H 0.27087 0.13844 0.69373 0.0
H1413 H 0.20209 0.09786 0.45549 0.0
H1414 H 0.21611 0.09032 0.44852 0.0
H1415 H 0.20419 0.08667 0.54195 0.0
H1416 H 0.25113 0.0724 0.50049 0.0
H1417 H 0.22075 0.06179 0.71946 0.0
H1418 H 0.26387 0.11375 0.48287 0.0
H1419 H 0.24603 0.10323 0.41902 0.0
H1420 H 0.26057 0.0963 0.42195 0.0
H1421 H 0.22778 0.10164 0.75173 0.0
H1422 H 0.21398 0.08053 0.77599 0.0
H1423 H 0.20946 0.09051 0.69214 0.0
C1424 C 0.93597 0.126 0.47692 0.0
C1425 C 0.92101 0.12322 0.50931 0.0
C1426 C 0.95054 0.14045 0.49439 0.0
C1427 C 0.95031 0.15239 0.54707 0.0
C1428 C 0.93538 0.14948 0.58239 0.0
C1429 C 0.92092 0.13502 0.56265 0.0
C1430 C 0.96615 0.14309 0.45481 0.0
C1431 C 0.93463 0.16179 0.63976 0.0
C1432 C 0.9911 0.18419 0.63964 0.0
C1433 C 0.99552 0.1974 0.58525 0.0
C1434 C 0.9762 0.16963 0.62964 0.0
C1435 C 0.96563 0.16814 0.56257 0.0
C1436 C 0.96999 0.18155 0.50814 0.0
C1437 C 0.98478 0.19606 0.52074 0.0
C1438 C 0.97187 0.15576 0.6901 0.0
C1439 C 0.95924 0.18043 0.43501 0.0
H1440 H 0.93632 0.11689 0.43718 0.0
H1441 H 0.90948 0.13319 0.58731 0.0
H1442 H 0.97139 0.15407 0.41409 0.0
H1443 H 0.97522 0.14525 0.50471 0.0
H1444 H 0.96431 0.13257 0.41582 0.0
H1445 H 0.9223 0.15725 0.66677 0.0
H1446 H 0.94344 0.16503 0.69247 0.0
H1447 H 0.93812 0.17312 0.60398 0.0
H1448 H 0.99933 0.18521 0.6899 0.0
H1449 H 0.98815 0.20624 0.47838 0.0
H1450 H 0.97121 0.14529 0.65545 0.0
H1451 H 0.9597 0.15161 0.71809 0.0
H1452 H 0.98088 0.15919 0.7421 0.0
H1453 H 0.95781 0.17072 0.39084 0.0
H1454 H 0.96424 0.19203 0.39932 0.0
H1455 H 0.94694 0.17709 0.45825 0.0
C1456 C 0.92059 0.81521 0.42695 0.0
C1457 C 0.93336 0.82118 0.48591 0.0
C1458 C 0.9063 0.81574 0.44304 0.0
C1459 C 0.90471 0.8225 0.5198 0.0
C1460 C 0.91748 0.8284 0.58004 0.0
C1461 C 0.9316 0.82758 0.5626 0.0
C1462 C 0.89292 0.80911 0.37755 0.0
C1463 C 0.91635 0.83585 0.66226 0.0
C1464 C 0.87485 0.83829 0.52025 0.0
C1465 C 0.86146 0.82587 0.56289 0.0
C1466 C 0.88909 0.83748 0.50726 0.0
C1467 C 0.88984 0.82374 0.53591 0.0
C1468 C 0.87626 0.81106 0.57828 0.0
C1469 C 0.86232 0.81238 0.59206 0.0
C1470 C 0.90334 0.85137 0.46289 0.0
C1471 C 0.87639 0.79605 0.60838 0.0
H1472 H 0.92172 0.81 0.36812 0.0
H1473 H 0.94144 0.83232 0.60819 0.0
H1474 H 0.88138 0.79964 0.40624 0.0
H1475 H 0.89084 0.81895 0.35462 0.0
H1476 H 0.89581 0.80376 0.32236 0.0
H1477 H 0.92721 0.83968 0.70293 0.0
H1478 H 0.91504 0.84661 0.64913 0.0
H1479 H 0.9054 0.82703 0.6979 0.0
H1480 H 0.87429 0.84878 0.49785 0.0
H1481 H 0.85202 0.80276 0.62495 0.0
H1482 H 0.90604 0.84698 0.40343 0.0
H1483 H 0.91434 0.85621 0.50334 0.0
H1484 H 0.90105 0.86146 0.44736 0.0
H1485 H 0.87861 0.78999 0.55418 0.0
H1486 H 0.86476 0.78718 0.63913 0.0
H1487 H 0.88644 0.79947 0.65413 0.0
C1488 C 0.86789 0.57808 0.78102 0.0
C1489 C 0.86687 0.56286 0.77626 0.0
C1490 C 0.85384 0.57936 0.79077 0.0
C1491 C 0.8384 0.56506 0.79575 0.0
C1492 C 0.83734 0.54967 0.79046 0.0
C1493 C 0.85158 0.54876 0.78104 0.0
C1494 C 0.85555 0.59601 0.79658 0.0
C1495 C 0.82114 0.53413 0.7952 0.0
C1496 C 0.80338 0.56683 0.90277 0.0
C1497 C 0.79445 0.56743 0.83338 0.0
C1498 C 0.81773 0.5662 0.89139 0.0
C1499 C 0.82337 0.56615 0.80853 0.0
C1500 C 0.81448 0.56684 0.73817 0.0
C1501 C 0.80018 0.56751 0.75142 0.0
C1502 C 0.82687 0.56559 0.96819 0.0
C1503 C 0.82002 0.56672 0.6488 0.0
H1504 H 0.8797 0.589 0.77786 0.0
H1505 H 0.85075 0.53697 0.77724 0.0
H1506 H 0.8481 0.59742 0.74686 0.0
H1507 H 0.85092 0.59741 0.85858 0.0
H1508 H 0.86837 0.60592 0.78948 0.0
H1509 H 0.82234 0.52315 0.78785 0.0
H1510 H 0.81526 0.53341 0.85694 0.0
H1511 H 0.81291 0.53402 0.7451 0.0
H1512 H 0.79925 0.56708 0.96639 0.0
H1513 H 0.79332 0.56785 0.69743 0.0
H1514 H 0.8395 0.576 0.9673 0.0
H1515 H 0.82763 0.55431 0.96701 0.0
H1516 H 0.821 0.56593 0.02834 0.0
H1517 H 0.83252 0.57707 0.63937 0.0
H1518 H 0.81189 0.56754 0.60096 0.0
H1519 H 0.82041 0.5554 0.63748 0.0
C1520 C 0.50442 0.32669 0.84173 0.0
C1521 C 0.4947 0.32918 0.78385 0.0
C1522 C 0.50295 0.31129 0.85152 0.0
C1523 C 0.49143 0.29801 0.80239 0.0
C1524 C 0.48141 0.30042 0.74472 0.0
C1525 C 0.4832 0.31597 0.73599 0.0
C1526 C 0.51389 0.30929 0.91366 0.0
C1527 C 0.46894 0.28661 0.69133 0.0
C1528 C 0.4992 0.26275 0.76803 0.0
C1529 C 0.48908 0.25146 0.82905 0.0
C1530 C 0.49995 0.27782 0.75817 0.0
C1531 C 0.49022 0.28174 0.80991 0.0
C1532 C 0.47966 0.27027 0.87015 0.0
C1533 C 0.47927 0.25533 0.87925 0.0
C1534 C 0.51137 0.28967 0.69314 0.0
C1535 C 0.46901 0.27391 0.92622 0.0
H1536 H 0.51331 0.33684 0.87899 0.0
H1537 H 0.47574 0.31784 0.6907 0.0
H1538 H 0.50647 0.29968 0.96031 0.0
H1539 H 0.52156 0.30534 0.87981 0.0
H1540 H 0.52196 0.32071 0.94836 0.0
H1541 H 0.4616 0.2903 0.65229 0.0
H1542 H 0.47512 0.28213 0.64865 0.0
H1543 H 0.46061 0.27629 0.7323 0.0
H1544 H 0.50662 0.25984 0.72777 0.0
H1545 H 0.47157 0.24687 0.92745 0.0
H1546 H 0.52047 0.30106 0.72477 0.0
H1547 H 0.50451 0.29293 0.64803 0.0
H1548 H 0.51793 0.2847 0.65691 0.0
H1549 H 0.4767 0.28451 0.96716 0.0
H1550 H 0.46092 0.26344 0.96717 0.0
H1551 H 0.46138 0.27719 0.88708 0.0
C1552 C 0.74431 0.19191 0.79545 0.0
C1553 C 0.73024 0.1931 0.78688 0.0
C1554 C 0.75964 0.20586 0.80666 0.0
C1555 C 0.76096 0.22139 0.8087 0.0
C1556 C 0.74678 0.22263 0.79915 0.0
C1557 C 0.73158 0.20846 0.78878 0.0
C1558 C 0.77442 0.20397 0.81716 0.0
C1559 C 0.74765 0.23894 0.80005 0.0
C1560 C 0.79738 0.25667 0.91682 0.0
C1561 C 0.80742 0.26496 0.84787 0.0
C1562 C 0.78236 0.24237 0.90505 0.0
C1563 C 0.7771 0.23632 0.82217 0.0
C1564 C 0.7872 0.24467 0.75228 0.0
C1565 C 0.80228 0.25881 0.76603 0.0
C1566 C 0.77211 0.23371 0.98137 0.0
C1567 C 0.78197 0.23878 0.66286 0.0
H1568 H 0.74331 0.18004 0.79411 0.0
H1569 H 0.72073 0.20941 0.78189 0.0
H1570 H 0.78356 0.21105 0.76783 0.0
H1571 H 0.78018 0.20892 0.87941 0.0
H1572 H 0.77137 0.19108 0.81299 0.0
H1573 H 0.7356 0.23787 0.78937 0.0
H1574 H 0.75248 0.24503 0.86176 0.0
H1575 H 0.75616 0.24691 0.75038 0.0
H1576 H 0.80139 0.26129 0.98025 0.0
H1577 H 0.80994 0.26526 0.7125 0.0
H1578 H 0.76958 0.22097 0.98287 0.0
H1579 H 0.76023 0.23325 0.97726 0.0
H1580 H 0.77811 0.23974 0.04165 0.0
H1581 H 0.77963 0.22617 0.656 0.0
H1582 H 0.79125 0.2466 0.61549 0.0
H1583 H 0.77043 0.23856 0.64837 0.0
C1584 C 0.89919 0.46127 0.80293 0.0
C1585 C 0.90814 0.47473 0.85601 0.0
C1586 C 0.89814 0.44622 0.81914 0.0
C1587 C 0.90634 0.44451 0.88988 0.0
C1588 C 0.91525 0.45797 0.94422 0.0
C1589 C 0.91599 0.47284 0.92691 0.0
C1590 C 0.88847 0.43218 0.75965 0.0
C1591 C 0.92418 0.4567 0.02024 0.0
C1592 C 0.89259 0.40153 0.96787 0.0
C1593 C 0.90398 0.39829 0.92948 0.0
C1594 C 0.89334 0.41659 0.9566 0.0
C1595 C 0.90582 0.42874 0.90593 0.0
C1596 C 0.91759 0.42565 0.86883 0.0
C1597 C 0.91652 0.41048 0.88099 0.0
C1598 C 0.88057 0.41937 0.99737 0.0
C1599 C 0.93115 0.43827 0.81483 0.0
H1600 H 0.89329 0.46259 0.74726 0.0
H1601 H 0.92273 0.48303 0.96922 0.0
H1602 H 0.89661 0.42839 0.72957 0.0
H1603 H 0.87909 0.42157 0.79537 0.0
H1604 H 0.88237 0.4353 0.70909 0.0
H1605 H 0.9304 0.46821 0.0569 0.0
H1606 H 0.91556 0.44684 0.06267 0.0
H1607 H 0.93339 0.4535 0.99961 0.0
H1608 H 0.88287 0.39215 1.00537 0.0
H1609 H 0.92539 0.40807 0.85127 0.0
H1610 H 0.87346 0.42133 0.94775 0.0
H1611 H 0.88643 0.4305 0.037 0.0
H1612 H 0.87205 0.40897 0.03746 0.0
H1613 H 0.92597 0.44099 0.75841 0.0
H1614 H 0.93969 0.43422 0.79321 0.0
H1615 H 0.93811 0.44977 0.85075 0.0
C1616 C 0.60343 0.4608 0.81126 0.0
C1617 C 0.58853 0.45857 0.84158 0.0
C1618 C 0.61817 0.47512 0.8282 0.0
C1619 C 0.61818 0.4875 0.8781 0.0
C1620 C 0.6033 0.48518 0.91112 0.0
C1621 C 0.58868 0.47083 0.89203 0.0
C1622 C 0.63372 0.47712 0.79109 0.0
C1623 C 0.60278 0.49798 0.96541 0.0
C1624 C 0.65899 0.51899 0.97219 0.0
C1625 C 0.66387 0.53207 0.9163 0.0
C1626 C 0.64395 0.50459 0.96206 0.0
C1627 C 0.63371 0.50309 0.89321 0.0
C1628 C 0.63857 0.51635 0.837 0.0
C1629 C 0.65347 0.53073 0.84987 0.0
C1630 C 0.63907 0.49091 0.02454 0.0
C1631 C 0.62822 0.5152 0.76186 0.0
H1632 H 0.60359 0.45134 0.77369 0.0
H1633 H 0.5773 0.46943 0.91498 0.0
H1634 H 0.63936 0.48792 0.74909 0.0
H1635 H 0.64256 0.47924 0.84224 0.0
H1636 H 0.63168 0.46632 0.754 0.0
H1637 H 0.59042 0.49391 0.99081 0.0
H1638 H 0.61136 0.50123 0.01921 0.0
H1639 H 0.60671 0.5092 0.92781 0.0
H1640 H 0.66695 0.52003 0.02393 0.0
H1641 H 0.6572 0.5408 0.80631 0.0
H1642 H 0.63813 0.48013 0.99193 0.0
H1643 H 0.62691 0.48724 0.05125 0.0
H1644 H 0.6479 0.49432 0.07735 0.0
H1645 H 0.62661 0.50515 0.71979 0.0
H1646 H 0.63366 0.52663 0.72447 0.0
H1647 H 0.61595 0.51234 0.78324 0.0
C1648 C 0.59645 0.16096 0.80787 0.0
C1649 C 0.60092 0.15208 0.86172 0.0
C1650 C 0.5824 0.16199 0.82317 0.0
C1651 C 0.57243 0.15387 0.89379 0.0
C1652 C 0.57692 0.14501 0.9488 0.0
C1653 C 0.59109 0.14427 0.93234 0.0
C1654 C 0.5781 0.1716 0.76297 0.0
C1655 C 0.56664 0.13616 0.02473 0.0
C1656 C 0.5433 0.16783 0.97076 0.0
C1657 C 0.52866 0.15646 0.9324 0.0
C1658 C 0.55759 0.16702 0.95963 0.0
C1659 C 0.55721 0.15449 0.90931 0.0
C1660 C 0.54233 0.14273 0.87219 0.0
C1661 C 0.52826 0.14388 0.88403 0.0
C1662 C 0.57317 0.17981 1.0002 0.0
C1663 C 0.54132 0.1291 0.81861 0.0
H1664 H 0.60374 0.16682 0.75236 0.0
H1665 H 0.5945 0.13757 0.97517 0.0
H1666 H 0.56617 0.16345 0.73292 0.0
H1667 H 0.5769 0.18106 0.79812 0.0
H1668 H 0.58734 0.1776 0.71241 0.0
H1669 H 0.57185 0.12991 0.06175 0.0
H1670 H 0.56544 0.14484 0.06686 0.0
H1671 H 0.55421 0.127 1.00398 0.0
H1672 H 0.54369 0.17759 1.00809 0.0
H1673 H 0.51696 0.13504 0.85433 0.0
H1674 H 0.58226 0.18681 0.9505 0.0
H1675 H 0.57838 0.17397 0.04033 0.0
H1676 H 0.57133 0.18842 0.03977 0.0
H1677 H 0.54925 0.1342 0.76223 0.0
H1678 H 0.52873 0.12059 0.79696 0.0
H1679 H 0.54581 0.12213 0.85489 0.0
C1680 C 0.53372 0.91282 0.13954 0.0
C1681 C 0.53431 0.90207 0.08072 0.0
C1682 C 0.51957 0.91388 0.14973 0.0
C1683 C 0.50571 0.90406 0.09931 0.0
C1684 C 0.50648 0.89363 0.03766 0.0
C1685 C 0.52075 0.89272 0.02933 0.0
C1686 C 0.51926 0.92509 0.2165 0.0
C1687 C 0.49205 0.88307 0.98211 0.0
C1688 C 0.46408 0.89295 0.18672 0.0
C1689 C 0.46063 0.90385 0.14409 0.0
C1690 C 0.47866 0.89291 0.17268 0.0
C1691 C 0.49016 0.90403 0.11434 0.0
C1692 C 0.4868 0.91508 0.07105 0.0
C1693 C 0.47211 0.9149 0.08666 0.0
C1694 C 0.48181 0.88103 0.22086 0.0
C1695 C 0.49868 0.92704 1.00796 0.0
H1696 H 0.54419 0.92011 0.17937 0.0
H1697 H 0.52117 0.88444 0.98357 0.0
H1698 H 0.51549 0.93338 0.18824 0.0
H1699 H 0.51018 0.91784 0.26577 0.0
H1700 H 0.53128 0.93252 0.24744 0.0
H1701 H 0.49496 0.87649 0.93333 0.0
H1702 H 0.48189 0.874 0.02156 0.0
H1703 H 0.4877 0.89057 0.95002 0.0
H1704 H 0.45544 0.88457 0.23239 0.0
H1705 H 0.46951 0.92328 0.05302 0.0
H1706 H 0.49311 0.88772 0.2587 0.0
H1707 H 0.48365 0.87311 0.17599 0.0
H1708 H 0.47165 0.8732 0.2641 0.0
H1709 H 0.51052 0.93503 0.03921 0.0
H1710 H 0.49424 0.93477 0.97925 0.0
H1711 H 0.50093 0.92042 0.95671 0.0
C1712 C 0.17584 0.66074 0.13209 0.0
C1713 C 0.16191 0.66211 0.12216 0.0
C1714 C 0.17466 0.64549 0.14311 0.0
C1715 C 0.15915 0.63122 0.14406 0.0
C1716 C 0.14504 0.63254 0.13333 0.0
C1717 C 0.14659 0.64797 0.12277 0.0
C1718 C 0.19001 0.64467 0.15459 0.0
C1719 C 0.12828 0.61767 0.13378 0.0
C1720 C 0.15713 0.59062 0.10391 0.0
C1721 C 0.15597 0.58463 0.18637 0.0
C1722 C 0.15803 0.60566 0.08912 0.0
C1723 C 0.15775 0.615 0.15835 0.0
C1724 C 0.15647 0.60898 0.24164 0.0
C1725 C 0.15558 0.59391 0.25459 0.0
C1726 C 0.1594 0.61163 0.99935 0.0
C1727 C 0.15609 0.6185 0.31728 0.0
H1728 H 0.18771 0.67163 0.13177 0.0
H1729 H 0.13579 0.64898 0.11558 0.0
H1730 H 0.18984 0.63928 0.21711 0.0
H1731 H 0.19072 0.63668 0.10566 0.0
H1732 H 0.20113 0.65684 0.15052 0.0
H1733 H 0.11857 0.6207 0.1219 0.0
H1734 H 0.12748 0.60893 0.08479 0.0
H1735 H 0.12597 0.61143 0.1958 0.0
H1736 H 0.15759 0.58365 0.05079 0.0
H1737 H 0.15437 0.5893 0.31845 0.0
H1738 H 0.17094 0.6233 0.99141 0.0
H1739 H 0.14932 0.61398 0.98533 0.0
H1740 H 0.1591 0.60278 0.95236 0.0
H1741 H 0.16738 0.63053 0.31942 0.0
H1742 H 0.15492 0.61209 0.3779 0.0
H1743 H 0.14574 0.62075 0.31167 0.0
C1744 C 0.46092 0.59517 0.18975 0.0
C1745 C 0.47525 0.59855 0.14711 0.0
C1746 C 0.44628 0.58055 0.17628 0.0
C1747 C 0.44583 0.56896 0.11829 0.0
C1748 C 0.46023 0.57229 0.07489 0.0
C1749 C 0.47478 0.58698 0.09014 0.0
C1750 C 0.4313 0.57745 0.22486 0.0
C1751 C 0.46025 0.56034 0.01203 0.0
C1752 C 0.41142 0.52529 0.14638 0.0
C1753 C 0.39982 0.52437 0.0882 0.0
C1754 C 0.42654 0.53959 0.15557 0.0
C1755 C 0.4303 0.55329 0.10456 0.0
C1756 C 0.41884 0.55223 0.04363 0.0
C1757 C 0.40371 0.53781 0.03651 0.0
C1758 C 0.43828 0.54019 0.22187 0.0
C1759 C 0.42243 0.56646 0.98729 0.0
H1760 H 0.46121 0.60389 0.23496 0.0
H1761 H 0.48575 0.58954 0.05647 0.0
H1762 H 0.42146 0.5755 0.18027 0.0
H1763 H 0.42677 0.56623 0.26321 0.0
H1764 H 0.43367 0.58768 0.26767 0.0
H1765 H 0.47238 0.56481 0.9826 0.0
H1766 H 0.45656 0.54858 0.04373 0.0
H1767 H 0.45125 0.55793 0.96131 0.0
H1768 H 0.40852 0.51493 0.1865 0.0
H1769 H 0.39482 0.53714 0.99122 0.0
H1770 H 0.44026 0.54947 0.27025 0.0
H1771 H 0.45026 0.54387 0.19279 0.0
H1772 H 0.43382 0.52831 0.25407 0.0
H1773 H 0.42355 0.57669 0.02623 0.0
H1774 H 0.41278 0.56334 0.93918 0.0
H1775 H 0.43421 0.57081 0.95435 0.0
C1776 C 0.56052 0.73501 0.32402 0.0
C1777 C 0.57012 0.73132 0.27152 0.0
C1778 C 0.56099 0.75001 0.31728 0.0
C1779 C 0.57123 0.76154 0.25629 0.0
C1780 C 0.58124 0.75799 0.20459 0.0
C1781 C 0.58061 0.74296 0.21308 0.0
C1782 C 0.55022 0.75337 0.37397 0.0
C1783 C 0.59228 0.76986 0.13848 0.0
C1784 C 0.55994 0.79204 0.17096 0.0
C1785 C 0.57092 0.80636 0.21354 0.0
C1786 C 0.55981 0.77738 0.18506 0.0
C1787 C 0.57091 0.77695 0.24335 0.0
C1788 C 0.58194 0.79131 0.28712 0.0
C1789 C 0.58185 0.80586 0.27148 0.0
C1790 C 0.54796 0.76239 0.13638 0.0
C1791 C 0.59389 0.79134 0.35013 0.0
H1792 H 0.55244 0.72607 0.36944 0.0
H1793 H 0.5881 0.74019 0.17243 0.0
H1794 H 0.55754 0.76512 0.40736 0.0
H1795 H 0.54105 0.75443 0.33522 0.0
H1796 H 0.54375 0.74364 0.42171 0.0
H1797 H 0.59977 0.76555 0.10575 0.0
H1798 H 0.58489 0.7718 0.0905 0.0
H1799 H 0.60051 0.78182 0.16794 0.0
H1800 H 0.55164 0.79235 0.12494 0.0
H1801 H 0.59028 0.81682 0.30514 0.0
H1802 H 0.54027 0.75244 0.18083 0.0
H1803 H 0.5547 0.75807 0.0969 0.0
H1804 H 0.5399 0.76467 0.09458 0.0
H1805 H 0.58731 0.78212 0.39996 0.0
H1806 H 0.60134 0.80338 0.38074 0.0
H1807 H 0.60217 0.78795 0.31809 0.0
C1808 C 0.32385 0.85064 0.30888 0.0
C1809 C 0.32721 0.86501 0.26715 0.0
C1810 C 0.30876 0.83632 0.299 0.0
C1811 C 0.29671 0.83638 0.2464 0.0
C1812 C 0.29991 0.851 0.20595 0.0
C1813 C 0.31512 0.86512 0.21672 0.0
C1814 C 0.30586 0.82101 0.34323 0.0
C1815 C 0.28738 0.85164 0.1498 0.0
C1816 C 0.26425 0.79656 0.14884 0.0
C1817 C 0.25077 0.79242 0.2011 0.0
C1818 C 0.27929 0.81069 0.16352 0.0
C1819 C 0.28094 0.82107 0.2318 0.0
C1820 C 0.26746 0.81691 0.28529 0.0
C1821 C 0.2526 0.80264 0.26954 0.0
C1822 C 0.29337 0.81465 0.10509 0.0
C1823 C 0.26869 0.82763 0.35874 0.0
H1824 H 0.33316 0.85049 0.3479 0.0
H1825 H 0.31764 0.87621 0.18445 0.0
H1826 H 0.29469 0.81603 0.38236 0.0
H1827 H 0.30393 0.81162 0.29565 0.0
H1828 H 0.31621 0.82312 0.38451 0.0
H1829 H 0.29149 0.86409 0.12574 0.0
H1830 H 0.28469 0.84339 0.09496 0.0
H1831 H 0.27583 0.84734 0.18502 0.0
H1832 H 0.26297 0.78895 0.09498 0.0
H1833 H 0.24237 0.79948 0.31115 0.0
H1834 H 0.30394 0.81607 0.14206 0.0
H1835 H 0.29723 0.82638 0.07268 0.0
H1836 H 0.29027 0.80511 0.05637 0.0
H1837 H 0.27848 0.82912 0.40243 0.0
H1838 H 0.25714 0.82262 0.39487 0.0
H1839 H 0.27197 0.83991 0.3354 0.0
C1840 C 0.25779 0.4879 0.10913 0.0
C1841 C 0.2662 0.48613 0.17749 0.0
C1842 C 0.24353 0.48869 0.1218 0.0
C1843 C 0.23765 0.48796 0.20501 0.0
C1844 C 0.24608 0.48614 0.27428 0.0
C1845 C 0.26017 0.48513 0.25964 0.0
C1846 C 0.23481 0.49038 0.04606 0.0
C1847 C 0.24039 0.48555 0.36404 0.0
C1848 C 0.2108 0.50671 0.24052 0.0
C1849 C 0.19521 0.49298 0.24266 0.0
C1850 C 0.22469 0.50523 0.22943 0.0
C1851 C 0.22297 0.48961 0.21958 0.0
C1852 C 0.20723 0.47567 0.22217 0.0
C1853 C 0.19354 0.47753 0.23377 0.0
C1854 C 0.24122 0.5204 0.22778 0.0
C1855 C 0.20481 0.45881 0.21153 0.0
H1856 H 0.26228 0.4885 0.04544 0.0
H1857 H 0.2667 0.48391 0.31278 0.0
H1858 H 0.22197 0.48037 0.0455 0.0
H1859 H 0.23467 0.50196 0.05011 0.0
H1860 H 0.2406 0.49017 0.98538 0.0
H1861 H 0.2481 0.48376 0.41078 0.0
H1862 H 0.24057 0.49704 0.37923 0.0
H1863 H 0.22766 0.47552 0.37113 0.0
H1864 H 0.21214 0.51868 0.24744 0.0
H1865 H 0.1815 0.46688 0.23476 0.0
H1866 H 0.2471 0.52149 0.16562 0.0
H1867 H 0.24917 0.51963 0.27679 0.0
H1868 H 0.24054 0.53159 0.23891 0.0
H1869 H 0.20933 0.45773 0.1485 0.0
H1870 H 0.19184 0.4492 0.2174 0.0
H1871 H 0.21198 0.45659 0.25965 0.0
C1872 C 0.03344 0.23402 0.26547 0.0
C1873 C 0.02768 0.24285 0.31028 0.0
C1874 C 0.03336 0.23378 0.17659 0.0
C1875 C 0.02787 0.243 0.13146 0.0
C1876 C 0.02227 0.25215 0.17658 0.0
C1877 C 0.022 0.25174 0.26544 0.0
C1878 C 0.03898 0.22349 0.13101 0.0
C1879 C 0.01676 0.26252 0.13101 0.0
C1880 C 0.04199 0.25387 0.9032 0.0
C1881 C 0.02793 0.24316 0.85821 0.0
C1882 C 0.04207 0.25414 0.99213 0.0
C1883 C 0.02791 0.24304 0.03708 0.0
C1884 C 0.01376 0.232 0.9918 0.0
C1885 C 0.01386 0.23238 0.90292 0.0
C1886 C 0.05725 0.26643 0.03795 0.0
C1887 C 0.99857 0.21965 0.0372 0.0
H1888 H 0.0377 0.22701 0.29999 0.0
H1889 H 0.01765 0.25869 0.29997 0.0
H1890 H 0.02921 0.21475 0.08844 0.0
H1891 H 0.04967 0.23129 0.09092 0.0
H1892 H 0.04233 0.21658 0.17539 0.0
H1893 H 0.01338 0.26941 0.17541 0.0
H1894 H 0.02659 0.27128 0.08884 0.0
H1895 H 1.0061 0.25478 0.09051 0.0
H1896 H 0.05285 0.26231 0.86879 0.0
H1897 H 1.00301 0.22398 0.86829 0.0
H1898 H 0.06192 0.26011 0.07826 0.0
H1899 H 0.05436 0.27395 0.08035 0.0
H1900 H 0.06703 0.27459 0.99372 0.0
H1901 H 1.00145 0.21212 0.07961 0.0
H1902 H 0.98883 0.21149 0.99271 0.0
H1903 H 0.99384 0.22593 0.07746 0.0
C1904 C 0.82689 0.80706 0.28906 0.0
C1905 C 0.816 0.80995 0.33519 0.0
C1906 C 0.82692 0.80728 0.20007 0.0
C1907 C 0.81544 0.80997 0.15632 0.0
C1908 C 0.80418 0.81254 0.20285 0.0
C1909 C 0.80476 0.81274 0.29163 0.0
C1910 C 0.83938 0.80488 0.15288 0.0
C1911 C 0.79144 0.81499 0.15892 0.0
C1912 C 0.82326 0.82477 0.92791 0.0
C1913 C 0.81458 0.81015 0.88298 0.0
C1914 C 0.82385 0.82487 0.01682 0.0
C1915 C 0.81514 0.81005 0.06191 0.0
C1916 C 0.80605 0.79531 0.01674 0.0
C1917 C 0.80609 0.79552 0.92787 0.0
C1918 C 0.83401 0.84079 0.06247 0.0
C1919 C 0.79621 0.77932 0.06227 0.0
H1920 H 0.83568 0.80503 0.32259 0.0
H1921 H 0.7962 0.81483 0.32714 0.0
H1922 H 0.83321 0.79395 0.11207 0.0
H1923 H 0.84664 0.81544 0.11082 0.0
H1924 H 0.84779 0.80345 0.19622 0.0
H1925 H 0.78314 0.81612 0.20434 0.0
H1926 H 0.79738 0.82612 0.11944 0.0
H1927 H 0.78409 0.80461 0.11598 0.0
H1928 H 0.82999 0.83609 0.89344 0.0
H1929 H 0.79928 0.7842 0.89337 0.0
H1930 H 0.84315 0.84004 0.10301 0.0
H1931 H 0.8262 0.84332 0.10464 0.0
H1932 H 0.84045 0.85117 0.01814 0.0
H1933 H 0.80433 0.77665 0.10095 0.0
H1934 H 0.78931 0.76904 0.01792 0.0
H1935 H 0.78749 0.78006 0.10618 0.0
C1936 C 0.24885 0.04382 0.28205 0.0
C1937 C 0.248 0.03081 0.32783 0.0
C1938 C 0.24836 0.04355 0.19317 0.0
C1939 C 0.24773 0.03024 0.14909 0.0
C1940 C 0.24725 0.01723 0.19543 0.0
C1941 C 0.24704 0.01751 0.28438 0.0
C1942 C 0.24828 0.05738 0.14654 0.0
C1943 C 0.24717 1.00312 0.15113 0.0
C1944 C 0.23269 0.02204 0.92099 0.0
C1945 C 0.2473 0.03015 0.87545 0.0
C1946 C 0.23264 0.02207 0.00997 0.0
C1947 C 0.24758 0.02999 0.05458 0.0
C1948 C 0.26238 0.0379 1.00879 0.0
C1949 C 0.26205 0.0381 0.91988 0.0
C1950 C 0.21658 0.01391 0.05624 0.0
C1951 C 0.27858 0.04608 0.05371 0.0
H1952 H 0.24945 0.05404 0.31595 0.0
H1953 H 0.24652 1.00752 0.32009 0.0
H1954 H 0.25922 0.06369 0.10587 0.0
H1955 H 0.2375 0.05257 0.10444 0.0
H1956 H 0.24805 0.06642 0.19026 0.0
H1957 H 0.24761 0.99439 0.19634 0.0
H1958 H 0.23607 0.99652 0.11184 0.0
H1959 H 0.25778 1.00766 0.10795 0.0
H1960 H 0.22125 0.01599 0.88699 0.0
H1961 H 0.27338 0.04427 0.885 0.0
H1962 H 0.21569 0.02284 0.0979 0.0
H1963 H 0.21576 1.00408 0.09737 0.0
H1964 H 0.20603 0.00862 0.01231 0.0
H1965 H 0.27972 0.05628 0.09294 0.0
H1966 H 0.28898 0.05092 1.00891 0.0
H1967 H 0.27942 0.03734 0.09702 0.0
C1968 C 0.04705 0.82266 0.72758 0.0
C1969 C 0.03276 0.81307 0.68148 0.0
C1970 C 0.04691 0.82267 0.81658 0.0
C1971 C 0.03223 0.81252 0.86043 0.0
C1972 C 0.01785 0.80258 0.81397 0.0
C1973 C 0.01825 0.80314 0.72518 0.0
C1974 C 0.06242 0.83373 0.86367 0.0
C1975 C 1.00204 0.79127 0.85802 0.0
C1976 C 0.03576 0.80192 0.08881 0.0
C1977 C 0.03136 0.81185 0.13374 0.0
C1978 C 0.03579 0.80179 0.99992 0.0
C1979 C 0.03188 0.81227 0.95485 0.0
C1980 C 0.02758 0.82245 1.00008 0.0
C1981 C 0.02709 0.82191 0.089 0.0
C1982 C 0.03993 0.79036 0.95425 0.0
C1983 C 0.02377 0.83412 0.95458 0.0
H1984 H 0.05827 0.83044 0.69407 0.0
H1985 H 1.00719 0.79559 0.68981 0.0
H1986 H 0.06051 0.84196 0.90586 0.0
H1987 H 0.06589 0.82644 0.90433 0.0
H1988 H 0.07269 0.84122 0.82028 0.0
H1989 H 0.99212 0.78384 0.81267 0.0
H1990 H 1.00373 0.78297 0.90077 0.0
H1991 H 0.99818 0.79837 0.89772 0.0
H1992 H 0.03898 0.79407 0.12332 0.0
H1993 H 0.02387 0.82974 0.12364 0.0
H1994 H 0.05103 0.7974 0.91548 0.0
H1995 H 0.02992 0.78248 0.91041 0.0
H1996 H 0.04201 0.78251 0.99853 0.0
H1997 H 0.03418 0.84239 0.91391 0.0
H1998 H 0.02114 0.84158 0.99903 0.0
H1999 H 0.0131 0.82733 0.91256 0.0
C2000 C 0.23734 0.25182 0.1238 0.0
C2001 C 0.24761 0.24766 0.16725 0.0
C2002 C 0.23643 0.25123 0.03511 0.0
C2003 C 0.24642 0.24686 0.98858 0.0
C2004 C 0.25702 0.24292 0.03213 0.0
C2005 C 0.2573 0.2431 0.12107 0.0
C2006 C 0.22462 0.25507 0.99128 0.0
C2007 C 0.26822 0.23868 0.98478 0.0
C2008 C 0.23516 0.23177 0.76196 0.0
C2009 C 0.24431 0.24613 0.71614 0.0
C2010 C 0.2355 0.23187 0.85084 0.0
C2011 C 0.24581 0.24655 0.89434 0.0
C2012 C 0.25539 0.26101 0.84774 0.0
C2013 C 0.25425 0.26068 0.75914 0.0
C2014 C 0.22466 0.21633 0.89815 0.0
C2015 C 0.26699 0.27677 0.89137 0.0
H2016 H 0.22968 0.25516 0.15932 0.0
H2017 H 0.26529 0.23993 0.15447 0.0
H2018 H 0.23131 0.26584 0.94986 0.0
H2019 H 0.21631 0.24474 0.95025 0.0
H2020 H 0.21722 0.25756 0.03679 0.0
H2021 H 0.27619 0.23654 0.02793 0.0
H2022 H 0.261 0.22759 0.94618 0.0
H2023 H 0.27598 0.24866 0.94057 0.0
H2024 H 0.22745 0.22055 0.72823 0.0
H2025 H 0.26148 0.27174 0.72316 0.0
H2026 H 0.21669 0.21824 0.94235 0.0
H2027 H 0.23214 0.21278 0.93671 0.0
H2028 H 0.2169 0.20612 0.85496 0.0
H2029 H 0.26014 0.28067 0.93279 0.0
H2030 H 0.27423 0.28669 0.84569 0.0
H2031 H 0.27546 0.275 0.93236 0.0
C2032 C 0.82902 0.03254 0.08885 0.0
C2033 C 0.81442 0.02658 0.13389 0.0
C2034 C 0.8291 0.03218 0.99986 0.0
C2035 C 0.81427 0.02616 0.95487 0.0
C2036 C 0.79955 0.02051 1.0002 0.0
C2037 C 0.79978 0.02056 0.08905 0.0
C2038 C 0.845 0.03795 0.95401 0.0
C2039 C 0.78355 0.01445 0.95484 0.0
C2040 C 0.81669 0.03922 0.7252 0.0
C2041 C 0.81371 0.02514 0.68158 0.0
C2042 C 0.81668 0.03964 0.81401 0.0
C2043 C 0.81413 0.02581 0.86043 0.0
C2044 C 0.81128 0.01159 0.81654 0.0
C2045 C 0.81084 0.01135 0.72757 0.0
C2046 C 0.81927 0.05486 0.85809 0.0
C2047 C 0.80892 0.99674 0.86352 0.0
H2048 H 0.84035 0.03705 0.12324 0.0
H2049 H 0.78847 0.01604 0.12358 0.0
H2050 H 0.84421 0.02805 0.91336 0.0
H2051 H 0.84752 0.04828 0.9119 0.0
H2052 H 0.8554 0.04188 0.99821 0.0
H2053 H 0.77329 0.0111 0.99932 0.0
H2054 H 0.78433 0.02394 0.91106 0.0
H2055 H 0.7808 1.00364 0.91606 0.0
H2056 H 0.81878 0.04986 0.68971 0.0
H2057 H 0.80871 1.0005 0.69391 0.0
H2058 H 0.83046 0.06001 0.89722 0.0
H2059 H 0.80896 0.0519 0.9014 0.0
H2060 H 0.82042 0.06432 0.81278 0.0
H2061 H 0.81952 1.00003 0.9053 0.0
H2062 H 0.80744 0.98689 0.82004 0.0
H2063 H 0.79802 0.99196 0.90458 0.0
C2064 C 0.71113 0.58833 0.23613 0.0
C2065 C 0.69683 0.57824 0.19112 0.0
C2066 C 0.71125 0.58856 0.32509 0.0
C2067 C 0.69684 0.57809 0.37012 0.0
C2068 C 0.68243 0.56769 0.32487 0.0
C2069 C 0.68255 0.56806 0.23599 0.0
C2070 C 0.72674 0.60014 0.3709 0.0
C2071 C 0.66693 0.55603 0.37032 0.0
C2072 C 0.70145 0.56821 0.59841 0.0
C2073 C 0.69649 0.5777 0.64335 0.0
C2074 C 0.70139 0.56804 0.50951 0.0
C2075 C 0.6968 0.57802 0.46453 0.0
C2076 C 0.69207 0.58785 0.50985 0.0
C2077 C 0.6917 0.58735 0.59871 0.0
C2078 C 0.70604 0.557 0.46374 0.0
C2079 C 0.68756 0.59903 0.46451 0.0
H2080 H 0.72218 0.59629 0.20175 0.0
H2081 H 0.6715 0.56013 0.20151 0.0
H2082 H 0.72453 0.60814 0.41339 0.0
H2083 H 0.73077 0.59325 0.41113 0.0
H2084 H 0.73675 0.60788 0.32666 0.0
H2085 H 0.65695 0.54831 0.32586 0.0
H2086 H 0.66914 0.54801 0.4126 0.0
H2087 H 0.66286 0.56286 0.41071 0.0
H2088 H 0.70502 0.56063 0.63286 0.0
H2089 H 0.68799 0.59481 0.63342 0.0
H2090 H 0.71688 0.5643 0.42358 0.0
H2091 H 0.696 0.54868 0.42122 0.0
H2092 H 0.70878 0.54961 0.508 0.0
H2093 H 0.69765 0.60738 0.42236 0.0
H2094 H 0.68484 0.6064 0.50907 0.0
H2095 H 0.67674 0.59183 0.42403 0.0
C2096 C 0.47263 0.15004 0.60674 0.0
C2097 C 0.48192 0.14467 0.65033 0.0
C2098 C 0.47225 0.15008 0.51782 0.0
C2099 C 0.48182 0.14515 0.47145 0.0
C2100 C 0.49139 0.13991 0.5154 0.0
C2101 C 0.49111 0.13948 0.60427 0.0
C2102 C 0.46148 0.15525 0.47356 0.0
C2103 C 0.50214 0.13502 0.46862 0.0
C2104 C 0.47198 0.1316 0.24176 0.0
C2105 C 0.48242 0.14593 0.19821 0.0
C2106 C 0.47133 0.13129 0.33063 0.0
C2107 C 0.48187 0.14549 0.37701 0.0
C2108 C 0.49262 0.15995 0.33305 0.0
C2109 C 0.49252 0.16008 0.24409 0.0
C2110 C 0.45928 0.11579 0.37484 0.0
C2111 C 0.50447 0.17518 0.37994 0.0
H2112 H 0.46542 0.15394 0.64225 0.0
H2113 H 0.49842 0.13546 0.63785 0.0
H2114 H 0.46899 0.16627 0.43504 0.0
H2115 H 0.45309 0.14554 0.42967 0.0
H2116 H 0.45417 0.15792 0.51875 0.0
H2117 H 0.5093 0.13184 0.51223 0.0
H2118 H 0.49465 0.1244 0.42748 0.0
H2119 H 0.51068 0.1451 0.42697 0.0
H2120 H 0.46407 0.12069 0.20614 0.0
H2121 H 0.50069 0.17113 0.21028 0.0
H2122 H 0.45156 0.11822 0.41827 0.0
H2123 H 0.46582 0.11119 0.41385 0.0
H2124 H 0.45129 0.10613 0.32958 0.0
H2125 H 0.49779 0.17932 0.4211 0.0
H2126 H 0.51237 0.18525 0.3364 0.0
H2127 H 0.5123 0.17258 0.42163 0.0
C2128 C 0.90039 0.35693 0.24372 0.0
C2129 C 0.9149 0.36323 0.19755 0.0
C2130 C 0.90055 0.35724 0.33272 0.0
C2131 C 0.91553 0.36347 0.37651 0.0
C2132 C 0.93016 0.36945 0.32996 0.0
C2133 C 0.9297 0.36953 0.24112 0.0
C2134 C 0.88473 0.35122 0.37985 0.0
C2135 C 0.94632 0.37569 0.374 0.0
C2136 C 0.91956 0.37857 0.60339 0.0
C2137 C 0.91683 0.36487 0.6496 0.0
C2138 C 0.91882 0.37817 0.51454 0.0
C2139 C 0.91594 0.36393 0.47094 0.0
C2140 C 0.91356 0.35017 0.51767 0.0
C2141 C 0.91371 0.35071 0.60654 0.0
C2142 C 0.92085 0.3929 0.46743 0.0
C2143 C 0.91105 0.33496 0.47388 0.0
H2144 H 0.88895 0.35218 0.21016 0.0
H2145 H 0.94092 0.37427 0.20555 0.0
H2146 H 0.88246 0.34087 0.42127 0.0
H2147 H 0.88548 0.361 0.42131 0.0
H2148 H 0.87421 0.34722 0.33647 0.0
H2149 H 0.95646 0.3791 0.32865 0.0
H2150 H 0.94909 0.38649 0.41283 0.0
H2151 H 0.94576 0.36626 0.41758 0.0
H2152 H 0.92179 0.38946 0.6369 0.0
H2153 H 0.91169 0.34013 0.64249 0.0
H2154 H 0.91016 0.38941 0.42607 0.0
H2155 H 0.93171 0.3978 0.42596 0.0
H2156 H 0.92223 0.40271 0.51083 0.0
H2157 H 0.89973 0.32959 0.43579 0.0
H2158 H 0.91021 0.32565 0.51936 0.0
H2159 H 0.92125 0.338 0.42966 0.0
C2160 C 0.71624 0.15979 0.07613 0.0
C2161 C 0.70254 0.1487 0.02997 0.0
C2162 C 0.71612 0.15961 0.16522 0.0
C2163 C 0.70217 0.14771 0.20895 0.0
C2164 C 0.68847 0.13625 0.16225 0.0
C2165 C 0.68873 0.13704 0.07351 0.0
C2166 C 0.73081 0.17231 0.21254 0.0
C2167 C 0.67354 0.12306 0.20594 0.0
C2168 C 0.70732 0.13811 0.43727 0.0
C2169 C 0.70051 0.14594 0.48253 0.0
C2170 C 0.70782 0.13846 0.34831 0.0
C2171 C 0.70181 0.14727 0.30347 0.0
C2172 C 0.69513 0.15541 0.34899 0.0
C2173 C 0.69434 0.15445 0.4378 0.0
C2174 C 0.7146 0.12922 0.30227 0.0
C2175 C 0.68893 0.16526 0.3039 0.0
H2176 H 0.7269 0.16884 0.0426 0.0
H2177 H 0.67819 0.12829 0.03796 0.0
H2178 H 0.72721 0.17926 0.2551 0.0
H2179 H 0.7359 0.16638 0.25286 0.0
H2180 H 0.74051 0.18097 0.1693 0.0
H2181 H 0.66427 0.11455 0.16035 0.0
H2182 H 0.67697 0.116 0.24865 0.0
H2183 H 0.66793 0.12857 0.2456 0.0
H2184 H 0.71204 0.13145 0.47142 0.0
H2185 H 0.68922 0.16069 0.4724 0.0
H2186 H 0.72518 0.13768 0.26323 0.0
H2187 H 0.70528 0.12024 0.25862 0.0
H2188 H 0.71849 0.1227 0.3463 0.0
H2189 H 0.69865 0.17455 0.26314 0.0
H2190 H 0.6848 0.17148 0.3486 0.0
H2191 H 0.67862 0.15726 0.26204 0.0
C2192 C 0.89909 0.57922 0.06804 0.0
C2193 C 0.91237 0.58069 0.02214 0.0
C2194 C 0.89897 0.57866 0.15709 0.0
C2195 C 0.91273 0.58029 0.2011 0.0
C2196 C 0.92633 0.5822 0.15451 0.0
C2197 C 0.92583 0.58203 0.06561 0.0
C2198 C 0.88402 0.57606 0.204 0.0
C2199 C 0.94149 0.58458 0.19849 0.0
C2200 C 0.91819 0.59452 0.43044 0.0
C2201 C 0.91364 0.5801 0.47521 0.0
C2202 C 0.91813 0.59477 0.34151 0.0
C2203 C 0.91301 0.58018 0.29576 0.0
C2204 C 0.90829 0.56555 0.34057 0.0
C2205 C 0.90886 0.56573 0.42964 0.0
C2206 C 0.92368 0.61072 0.29649 0.0
C2207 C 0.90242 0.54966 0.29441 0.0
H2208 H 0.88862 0.57802 0.03416 0.0
H2209 H 0.93613 0.58325 0.02984 0.0
H2210 H 0.87947 0.56523 0.24546 0.0
H2211 H 0.88709 0.58665 0.24537 0.0
H2212 H 0.87409 0.57432 0.16046 0.0
H2213 H 0.95128 0.58666 0.15312 0.0
H2214 H 0.94615 0.59514 0.24208 0.0
H2215 H 0.93861 0.57375 0.2373 0.0
H2216 H 0.92202 0.60571 0.465 0.0
H2217 H 0.9052 0.55451 0.46366 0.0
H2218 H 0.91362 0.61 0.25763 0.0
H2219 H 0.93382 0.61325 0.2528 0.0
H2220 H 0.92781 0.62107 0.34116 0.0
H2221 H 0.89192 0.54716 0.25344 0.0
H2222 H 0.89867 0.53927 0.33842 0.0
H2223 H 0.91216 0.55044 0.2526 0.0
C2224 C 0.46683 0.35525 0.06041 0.0
C2225 C 0.48114 0.35965 0.01547 0.0
C2226 C 0.46693 0.35604 0.14934 0.0
C2227 C 0.48156 0.36069 0.19419 0.0
C2228 C 0.49594 0.36472 0.14863 0.0
C2229 C 0.49562 0.36448 0.05976 0.0
C2230 C 0.45147 0.35218 0.19521 0.0
C2231 C 0.51163 0.36911 0.1937 0.0
C2232 C 0.48681 0.37583 0.42213 0.0
C2233 C 0.48203 0.36149 0.46768 0.0
C2234 C 0.48642 0.37571 0.33304 0.0
C2235 C 0.48176 0.36103 0.2887 0.0
C2236 C 0.47736 0.34663 0.33479 0.0
C2237 C 0.47726 0.34698 0.42358 0.0
C2238 C 0.4907 0.3912 0.2864 0.0
C2239 C 0.47292 0.33087 0.29037 0.0
H2240 H 0.45569 0.35171 0.02583 0.0
H2241 H 0.50667 0.36783 0.02466 0.0
H2242 H 0.44761 0.34146 0.23676 0.0
H2243 H 0.45364 0.36254 0.23638 0.0
H2244 H 0.44137 0.3496 0.15097 0.0
H2245 H 0.52153 0.3712 0.14906 0.0
H2246 H 0.51567 0.38028 0.23188 0.0
H2247 H 0.50969 0.35924 0.23802 0.0
H2248 H 0.49038 0.38702 0.45621 0.0
H2249 H 0.4737 0.3359 0.45877 0.0
H2250 H 0.48048 0.3892 0.24448 0.0
H2251 H 0.50145 0.39481 0.24549 0.0
H2252 H 0.4934 0.40141 0.33012 0.0
H2253 H 0.46186 0.32691 0.25137 0.0
H2254 H 0.4706 0.32097 0.33546 0.0
H2255 H 0.48286 0.33266 0.24692 0.0
C2256 C 0.37642 0.92021 0.57378 0.0
C2257 C 0.36197 0.91047 0.52929 0.0
C2258 C 0.37659 0.92068 0.66269 0.0
C2259 C 0.36207 0.91069 0.70812 0.0
C2260 C 0.34751 0.90059 0.66327 0.0
C2261 C 0.34758 0.90083 0.57438 0.0
C2262 C 0.39224 0.93202 0.70797 0.0
C2263 C 0.33191 0.88936 0.70915 0.0
C2264 C 0.36651 0.90082 0.93658 0.0
C2265 C 0.36187 0.91058 0.98123 0.0
C2266 C 0.36639 0.90054 0.84771 0.0
C2267 C 0.36212 0.91075 0.80252 0.0
C2268 C 0.35778 0.92092 0.84762 0.0
C2269 C 0.3574 0.92047 0.9365 0.0
C2270 C 0.37057 0.88913 0.80223 0.0
C2271 C 0.3537 0.93238 0.80203 0.0
H2272 H 0.38754 0.92777 0.53894 0.0
H2273 H 0.33642 0.89317 0.54002 0.0
H2274 H 0.39035 0.94022 0.75053 0.0
H2275 H 0.39606 0.92495 0.74807 0.0
H2276 H 0.40227 0.93955 0.66338 0.0
H2277 H 0.32181 0.88178 0.66496 0.0
H2278 H 0.33383 0.8812 0.7519 0.0
H2279 H 0.32817 0.89652 0.74909 0.0
H2280 H 0.36982 0.89306 0.97129 0.0
H2281 H 0.35394 0.92812 0.97117 0.0
H2282 H 0.38145 0.89614 0.76195 0.0
H2283 H 0.3604 0.88097 0.75987 0.0
H2284 H 0.37302 0.88156 0.84669 0.0
H2285 H 0.36383 0.94042 0.75921 0.0
H2286 H 0.3514 0.94008 0.84642 0.0
H2287 H 0.34273 0.92539 0.7622 0.0
C2288 C 0.16012 0.49174 0.94892 0.0
C2289 C 0.15047 0.4773 0.99349 0.0
C2290 C 0.1603 0.49197 0.85997 0.0
C2291 C 0.15006 0.47753 0.81448 0.0
C2292 C 0.14008 0.46295 0.85953 0.0
C2293 C 0.14066 0.46294 0.94851 0.0
C2294 C 0.17157 0.50764 0.81472 0.0
C2295 C 0.12858 0.44742 0.81381 0.0
C2296 C 0.13995 0.48244 0.58646 0.0
C2297 C 0.14963 0.47783 0.5406 0.0
C2298 C 0.13975 0.48214 0.67554 0.0
C2299 C 0.1499 0.47766 0.71986 0.0
C2300 C 0.15997 0.47335 0.67364 0.0
C2301 C 0.1595 0.47322 0.58474 0.0
C2302 C 0.12847 0.48634 0.72221 0.0
C2303 C 0.17138 0.46904 0.71808 0.0
H2304 H 0.16777 0.50283 0.9838 0.0
H2305 H 0.13305 0.4518 0.98308 0.0
H2306 H 0.17955 0.50571 0.7707 0.0
H2307 H 0.16441 0.5116 0.77621 0.0
H2308 H 0.17933 0.51758 0.85927 0.0
H2309 H 0.12112 0.43732 0.85813 0.0
H2310 H 0.12031 0.44946 0.77257 0.0
H2311 H 0.13552 0.44364 0.77235 0.0
H2312 H 0.1322 0.48589 0.55263 0.0
H2313 H 0.16712 0.46979 0.54958 0.0
H2314 H 0.1356 0.49715 0.76281 0.0
H2315 H 0.12034 0.47615 0.76444 0.0
H2316 H 0.12087 0.48892 0.67854 0.0
H2317 H 0.17955 0.47907 0.76109 0.0
H2318 H 0.17894 0.4667 0.67298 0.0
H2319 H 0.16435 0.45804 0.75757 0.0
C2320 C 0.58208 0.68455 0.93233 0.0
C2321 C 0.58048 0.69643 0.9765 0.0
C2322 C 0.58246 0.68457 0.84347 0.0
C2323 C 0.58059 0.69641 0.79813 0.0
C2324 C 0.5787 0.70828 0.84306 0.0
C2325 C 0.57898 0.70833 0.93194 0.0
C2326 C 0.58502 0.67204 0.7982 0.0
C2327 C 0.57617 0.7208 0.79733 0.0
C2328 C 0.59497 0.70626 0.56979 0.0
C2329 C 0.58059 0.69642 0.5249 0.0
C2330 C 0.59521 0.70617 0.65867 0.0
C2331 C 0.5806 0.69638 0.70377 0.0
C2332 C 0.56599 0.6866 0.65865 0.0
C2333 C 0.56621 0.68655 0.56974 0.0
C2334 C 0.61112 0.71642 0.7043 0.0
C2335 C 0.55008 0.67635 0.70428 0.0
H2336 H 0.58336 0.67545 0.96747 0.0
H2337 H 0.57769 0.71746 0.96676 0.0
H2338 H 0.57432 0.66424 0.75816 0.0
H2339 H 0.59571 0.67816 0.75561 0.0
H2340 H 0.58699 0.66415 0.8428 0.0
H2341 H 0.57428 0.72878 0.84164 0.0
H2342 H 0.58686 0.72851 0.757 0.0
H2343 H 0.56545 0.71464 0.75498 0.0
H2344 H 0.60614 0.7138 0.53531 0.0
H2345 H 0.55504 0.67902 0.53525 0.0
H2346 H 0.61366 0.70865 0.74673 0.0
H2347 H 0.61035 0.72557 0.74454 0.0
H2348 H 0.62149 0.72287 0.65994 0.0
H2349 H 0.55088 0.66725 0.74482 0.0
H2350 H 0.53971 0.66984 0.65994 0.0
H2351 H 0.54751 0.68414 0.74645 0.0
C2352 C 0.37139 0.46936 0.78273 0.0
C2353 C 0.3652 0.47789 0.82682 0.0
C2354 C 0.37146 0.46909 0.69383 0.0
C2355 C 0.3658 0.47809 0.64794 0.0
C2356 C 0.35974 0.48692 0.69236 0.0
C2357 C 0.35923 0.48646 0.78129 0.0
C2358 C 0.37748 0.45906 0.64903 0.0
C2359 C 0.35409 0.4971 0.64603 0.0
C2360 C 0.38098 0.4895 0.4214 0.0
C2361 C 0.36718 0.47879 0.37479 0.0
C2362 C 0.38061 0.48963 0.5103 0.0
C2363 C 0.36628 0.47833 0.55352 0.0
C2364 C 0.35242 0.46725 0.50643 0.0
C2365 C 0.35295 0.46783 0.4176 0.0
C2366 C 0.39546 0.50201 0.5579 0.0
C2367 C 0.33709 0.45464 0.5498 0.0
H2368 H 0.37592 0.46265 0.81791 0.0
H2369 H 0.35461 0.4932 0.81534 0.0
H2370 H 0.36799 0.45037 0.60505 0.0
H2371 H 0.38835 0.46706 0.61051 0.0
H2372 H 0.38071 0.45212 0.69387 0.0
H2373 H 0.3503 0.50373 0.68994 0.0
H2374 H 0.364 0.50608 0.60499 0.0
H2375 H 0.34368 0.48928 0.60428 0.0
H2376 H 0.39195 0.49809 0.38821 0.0
H2377 H 0.3423 0.45946 0.38147 0.0
H2378 H 0.40016 0.49578 0.59871 0.0
H2379 H 0.39218 0.50929 0.59996 0.0
H2380 H 0.40536 0.51041 0.51483 0.0
H2381 H 0.33993 0.44723 0.59324 0.0
H2382 H 0.32769 0.4464 0.50403 0.0
H2383 H 0.33193 0.46069 0.58867 0.0
C2384 C 0.57157 0.91838 0.77527 0.0
C2385 C 0.57994 0.91213 0.82029 0.0
C2386 C 0.57135 0.9183 0.68641 0.0
C2387 C 0.58015 0.9123 0.64142 0.0
C2388 C 0.58887 0.90623 0.68666 0.0
C2389 C 0.58843 0.90596 0.77558 0.0
C2390 C 0.5615 0.92443 0.6407 0.0
C2391 C 0.59879 0.90017 0.64114 0.0
C2392 C 0.56882 0.8984 0.41322 0.0
C2393 C 0.57971 0.91238 0.36847 0.0
C2394 C 0.56867 0.89828 0.50209 0.0
C2395 C 0.58012 0.91228 0.54705 0.0
C2396 C 0.59141 0.92631 0.50174 0.0
C2397 C 0.59084 0.92629 0.41289 0.0
C2398 C 0.55608 0.88328 0.54781 0.0
C2399 C 0.60418 0.94127 0.54705 0.0
H2400 H 0.56486 0.92302 0.80962 0.0
H2401 H 0.59502 0.90122 0.81021 0.0
H2402 H 0.56957 0.93501 0.60058 0.0
H2403 H 0.55255 0.91482 0.59816 0.0
H2404 H 0.55487 0.92815 0.685 0.0
H2405 H 0.60547 0.89653 0.68558 0.0
H2406 H 0.59077 0.88956 0.60106 0.0
H2407 H 0.60771 0.90979 0.59853 0.0
H2408 H 0.56013 0.88769 0.37859 0.0
H2409 H 0.59935 0.93705 0.37797 0.0
H2410 H 0.54881 0.88648 0.59036 0.0
H2411 H 0.56212 0.87828 0.58793 0.0
H2412 H 0.54769 0.87363 0.50352 0.0
H2413 H 0.59829 0.94644 0.58707 0.0
H2414 H 0.61262 0.95081 0.50246 0.0
H2415 H 0.61138 0.93798 0.58965 0.0
C2416 C 0.15983 0.69452 0.41504 0.0
C2417 C 0.14543 0.6901 0.37079 0.0
C2418 C 0.16013 0.69459 0.50397 0.0
C2419 C 0.14583 0.6908 0.54976 0.0
C2420 C 0.13129 0.68654 0.50501 0.0
C2421 C 0.13119 0.68592 0.41603 0.0
C2422 C 0.17573 0.6986 0.54888 0.0
C2423 C 0.11593 0.68296 0.55106 0.0
C2424 C 0.14138 0.67717 0.77971 0.0
C2425 C 0.14635 0.69175 0.82362 0.0
C2426 C 0.14143 0.67675 0.69082 0.0
C2427 C 0.14607 0.69117 0.64436 0.0
C2428 C 0.15094 0.70591 0.6884 0.0
C2429 C 0.15128 0.70608 0.77747 0.0
C2430 C 0.13666 0.66089 0.64666 0.0
C2431 C 0.15553 0.72146 0.64143 0.0
H2432 H 0.17083 0.69769 0.3799 0.0
H2433 H 0.1201 0.68269 0.38166 0.0
H2434 H 0.18003 0.7098 0.58709 0.0
H2435 H 0.17356 0.68864 0.59314 0.0
H2436 H 0.18553 0.70044 0.50413 0.0
H2437 H 0.10584 0.68051 0.50696 0.0
H2438 H 0.11194 0.67226 0.59287 0.0
H2439 H 0.11829 0.69341 0.592 0.0
H2440 H 0.13769 0.66608 0.81502 0.0
H2441 H 0.15501 0.71735 0.81106 0.0
H2442 H 0.14655 0.66244 0.60343 0.0
H2443 H 0.12567 0.65716 0.60744 0.0
H2444 H 0.1341 0.65094 0.69192 0.0
H2445 H 0.16622 0.72481 0.60046 0.0
H2446 H 0.15846 0.73176 0.68491 0.0
H2447 H 0.14538 0.71966 0.59953 0.0
loop_
_geom_bond_atom_site_label_1
_geom_bond_atom_site_label_2
_geom_bond_distance
_geom_bond_site_symmetry_2
_ccdc_geom_bond_type
Nd0 C2 2.836 . S
Nd0 O20 2.500 . S
Nd0 O21 2.492 . S
Nd0 O22 2.487 . S
Nd0 O23 2.682 . S
Nd0 O24 2.410 . S
Nd0 O29 2.414 . S
Nd0 O31 2.424 . S
Nd1 C11 2.836 1_455 S
Nd1 O23 2.414 . S
Nd1 O25 2.424 . S
Nd1 O26 2.500 1_455 S
Nd1 O27 2.492 1_455 S
Nd1 O28 2.487 . S
Nd1 O29 2.682 . S
Nd1 O30 2.410 . S
C2 Nd0 2.836 . S
C2 C3 1.498 . S
C2 O20 1.258 . S
C2 O21 1.239 . S
C3 C2 1.498 . S
C3 C4 1.366 . S
C3 C8 1.407 . S
C4 C3 1.366 . S
C4 C5 1.392 . S
C4 H32 0.930 . S
C5 C4 1.392 . S
C5 C6 1.398 . S
C5 H33 0.929 . S
C6 C5 1.398 . S
C6 C7 1.352 . S
C7 C6 1.352 . S
C7 C8 1.384 . S
C7 H34 0.930 . S
C8 C3 1.407 . S
C8 C7 1.384 . S
C8 H35 0.929 . S
C9 O22 1.241 . S
C9 O23 1.273 . S
C10 O24 1.251 . S
C10 O25 1.268 . S
C11 Nd1 2.836 1_655 S
C11 C12 1.498 . S
C11 O26 1.258 . S
C11 O27 1.239 . S
C12 C11 1.498 . S
C12 C13 1.366 . S
C12 C17 1.407 . S
C13 C12 1.366 . S
C13 C14 1.392 . S
C13 H36 0.930 . S
C14 C13 1.392 . S
C14 C15 1.398 . S
C14 H37 0.929 . S
C15 C14 1.398 . S
C15 C16 1.352 . S
C16 C15 1.352 . S
C16 C17 1.384 . S
C16 H38 0.930 . S
C17 C12 1.407 . S
C17 C16 1.384 . S
C17 H39 0.929 . S
C18 O28 1.241 . S
C18 O29 1.273 . S
C19 O30 1.251 . S
C19 O31 1.268 . S
O20 Nd0 2.500 . S
O20 C2 1.258 . S
O21 Nd0 2.492 . S
O21 C2 1.239 . S
O22 Nd0 2.487 . S
O22 C9 1.241 . S
O23 Nd0 2.682 . S
O23 Nd1 2.414 . S
O23 C9 1.273 . S
O24 Nd0 2.410 . S
O24 C10 1.251 . S
O25 Nd1 2.424 . S
O25 C10 1.268 . S
O26 Nd1 2.500 1_655 S
O26 C11 1.258 . S
O27 Nd1 2.492 1_655 S
O27 C11 1.239 . S
O28 Nd1 2.487 . S
O28 C18 1.241 . S
O29 Nd0 2.414 . S
O29 Nd1 2.682 . S
O29 C18 1.273 . S
O30 Nd1 2.410 . S
O30 C19 1.251 . S
O31 Nd0 2.424 . S
O31 C19 1.268 . S
H32 C4 0.930 . S
H33 C5 0.929 . S
H34 C7 0.930 . S
H35 C8 0.929 . S
H36 C13 0.930 . S
H37 C14 0.929 . S
H38 C16 0.930 . S
H39 C17 0.929 . S
Nd40 C42 2.836 . S
Nd40 O60 2.500 . S
Nd40 O61 2.492 . S
Nd40 O62 2.487 . S
Nd40 O63 2.682 . S
Nd40 O64 2.410 . S
Nd40 O69 2.414 . S
Nd40 O71 2.424 . S
Nd41 C51 2.836 . S
Nd41 O63 2.414 . S
Nd41 O65 2.424 . S
Nd41 O66 2.500 . S
Nd41 O67 2.492 . S
Nd41 O68 2.487 . S
Nd41 O69 2.682 . S
Nd41 O70 2.410 . S
C42 Nd40 2.836 . S
C42 C43 1.498 . S
C42 O60 1.258 . S
C42 O61 1.239 . S
C43 C42 1.498 . S
C43 C44 1.366 . S
C43 C48 1.407 . S
C44 C43 1.366 . S
C44 C45 1.392 . S
C44 H72 0.930 . S
C45 C44 1.392 . S
C45 C46 1.398 . S
C45 H73 0.929 . S
C46 C45 1.398 . S
C46 C47 1.352 . S
C47 C46 1.352 . S
C47 C48 1.384 . S
C47 H74 0.930 . S
C48 C43 1.407 . S
C48 C47 1.384 . S
C48 H75 0.929 . S
C49 O62 1.241 . S
C49 O63 1.273 . S
C50 O64 1.251 . S
C50 O65 1.268 . S
C51 Nd41 2.836 . S
C51 C52 1.498 . S
C51 O66 1.258 . S
C51 O67 1.239 . S
C52 C51 1.498 . S
C52 C53 1.366 . S
C52 C57 1.407 . S
C53 C52 1.366 . S
C53 C54 1.392 . S
C53 H76 0.930 . S
C54 C53 1.392 . S
C54 C55 1.398 . S
C54 H77 0.929 . S
C55 C54 1.398 . S
C55 C56 1.352 . S
C56 C55 1.352 . S
C56 C57 1.384 . S
C56 H78 0.930 . S
C57 C52 1.407 . S
C57 C56 1.384 . S
C57 H79 0.929 . S
C58 O68 1.241 . S
C58 O69 1.273 . S
C59 O70 1.251 . S
C59 O71 1.268 . S
O60 Nd40 2.500 . S
O60 C42 1.258 . S
O61 Nd40 2.492 . S
O61 C42 1.239 . S
O62 Nd40 2.487 . S
O62 C49 1.241 . S
O63 Nd40 2.682 . S
O63 Nd41 2.414 . S
O63 C49 1.273 . S
O64 Nd40 2.410 . S
O64 C50 1.251 . S
O65 Nd41 2.424 . S
O65 C50 1.268 . S
O66 Nd41 2.500 . S
O66 C51 1.258 . S
O67 Nd41 2.492 . S
O67 C51 1.239 . S
O68 Nd41 2.487 . S
O68 C58 1.241 . S
O69 Nd40 2.414 . S
O69 Nd41 2.682 . S
O69 C58 1.273 . S
O70 Nd41 2.410 . S
O70 C59 1.251 . S
O71 Nd40 2.424 . S
O71 C59 1.268 . S
H72 C44 0.930 . S
H73 C45 0.929 . S
H74 C47 0.930 . S
H75 C48 0.929 . S
H76 C53 0.930 . S
H77 C54 0.929 . S
H78 C56 0.930 . S
H79 C57 0.929 . S
Nd80 C82 2.836 1_545 S
Nd80 O100 2.500 1_545 S
Nd80 O101 2.492 1_545 S
Nd80 O102 2.487 . S
Nd80 O103 2.682 . S
Nd80 O104 2.410 . S
Nd80 O109 2.414 . S
Nd80 O111 2.424 . S
Nd81 C91 2.836 . S
Nd81 O103 2.414 . S
Nd81 O105 2.424 . S
Nd81 O106 2.500 . S
Nd81 O107 2.492 . S
Nd81 O108 2.487 . S
Nd81 O109 2.682 . S
Nd81 O110 2.410 . S
C82 Nd80 2.836 1_565 S
C82 C83 1.498 . S
C82 O100 1.258 . S
C82 O101 1.239 . S
C83 C82 1.498 . S
C83 C84 1.366 . S
C83 C88 1.407 . S
C84 C83 1.366 . S
C84 C85 1.392 . S
C84 H112 0.930 . S
C85 C84 1.392 . S
C85 C86 1.398 . S
C85 H113 0.929 . S
C86 C85 1.398 . S
C86 C87 1.352 . S
C87 C86 1.352 . S
C87 C88 1.384 . S
C87 H114 0.930 . S
C88 C83 1.407 . S
C88 C87 1.384 . S
C88 H115 0.929 . S
C89 O102 1.241 . S
C89 O103 1.273 . S
C90 O104 1.251 . S
C90 O105 1.268 . S
C91 Nd81 2.836 . S
C91 C92 1.498 . S
C91 O106 1.258 . S
C91 O107 1.239 . S
C92 C91 1.498 . S
C92 C93 1.366 . S
C92 C97 1.407 . S
C93 C92 1.366 . S
C93 C94 1.392 . S
C93 H116 0.930 . S
C94 C93 1.392 . S
C94 C95 1.398 . S
C94 H117 0.929 . S
C95 C94 1.398 . S
C95 C96 1.352 . S
C96 C95 1.352 . S
C96 C97 1.384 . S
C96 H118 0.930 . S
C97 C92 1.407 . S
C97 C96 1.384 . S
C97 H119 0.929 . S
C98 O108 1.241 1_565 S
C98 O109 1.273 1_565 S
C99 O110 1.251 . S
C99 O111 1.268 . S
O100 Nd80 2.500 1_565 S
O100 C82 1.258 . S
O101 Nd80 2.492 1_565 S
O101 C82 1.239 . S
O102 Nd80 2.487 . S
O102 C89 1.241 . S
O103 Nd80 2.682 . S
O103 Nd81 2.414 . S
O103 C89 1.273 . S
O104 Nd80 2.410 . S
O104 C90 1.251 . S
O105 Nd81 2.424 . S
O105 C90 1.268 . S
O106 Nd81 2.500 . S
O106 C91 1.258 . S
O107 Nd81 2.492 . S
O107 C91 1.239 . S
O108 Nd81 2.487 . S
O108 C98 1.241 1_545 S
O109 Nd80 2.414 . S
O109 Nd81 2.682 . S
O109 C98 1.273 1_545 S
O110 Nd81 2.410 . S
O110 C99 1.251 . S
O111 Nd80 2.424 . S
O111 C99 1.268 . S
H112 C84 0.930 . S
H113 C85 0.929 . S
H114 C87 0.930 . S
H115 C88 0.929 . S
H116 C93 0.930 . S
H117 C94 0.929 . S
H118 C96 0.930 . S
H119 C97 0.929 . S
Nd120 C122 2.836 . S
Nd120 O140 2.500 . S
Nd120 O141 2.492 . S
Nd120 O142 2.487 . S
Nd120 O143 2.740 . S
Nd120 O144 2.410 . S
Nd120 O149 2.414 . S
Nd120 O151 2.424 . S
Nd121 C131 2.836 1_455 S
Nd121 O143 2.387 . S
Nd121 O145 2.424 . S
Nd121 O146 2.500 1_455 S
Nd121 O147 2.492 1_455 S
Nd121 O148 2.487 . S
Nd121 O149 2.682 . S
Nd121 O150 2.410 . S
C122 Nd120 2.836 . S
C122 C123 1.498 . S
C122 O140 1.258 . S
C122 O141 1.239 . S
C123 C122 1.498 . S
C123 C124 1.366 . S
C123 C128 1.407 . S
C124 C123 1.366 . S
C124 C125 1.392 . S
C124 H152 0.930 . S
C125 C124 1.392 . S
C125 C126 1.398 . S
C125 H153 0.929 . S
C126 C125 1.398 . S
C126 C127 1.352 . S
C127 C126 1.352 . S
C127 C128 1.384 . S
C127 H154 0.930 . S
C128 C123 1.407 . S
C128 C127 1.384 . S
C128 H155 0.929 . S
C129 O142 1.241 1_655 S
C129 O143 1.290 1_655 S
C130 O144 1.251 . S
C130 O145 1.268 . S
C131 Nd121 2.836 1_655 S
C131 C132 1.498 . S
C131 O146 1.258 . S
C131 O147 1.239 . S
C132 C131 1.498 . S
C132 C133 1.366 . S
C132 C137 1.407 . S
C133 C132 1.366 . S
C133 C134 1.392 . S
C133 H156 0.930 . S
C134 C133 1.392 . S
C134 C135 1.398 . S
C134 H157 0.929 . S
C135 C134 1.398 . S
C135 C136 1.352 . S
C136 C135 1.352 . S
C136 C137 1.384 . S
C136 H158 0.930 . S
C137 C132 1.407 . S
C137 C136 1.384 . S
C137 H159 0.929 . S
C138 O148 1.241 . S
C138 O149 1.273 . S
C139 O150 1.251 . S
C139 O151 1.268 . S
O140 Nd120 2.500 . S
O140 C122 1.258 . S
O141 Nd120 2.492 . S
O141 C122 1.239 . S
O142 Nd120 2.487 . S
O142 C129 1.241 1_455 S
O143 Nd120 2.740 . S
O143 Nd121 2.387 . S
O143 C129 1.290 1_455 S
O144 Nd120 2.410 . S
O144 C130 1.251 . S
O145 Nd121 2.424 . S
O145 C130 1.268 . S
O146 Nd121 2.500 1_655 S
O146 C131 1.258 . S
O147 Nd121 2.492 1_655 S
O147 C131 1.239 . S
O148 Nd121 2.487 . S
O148 C138 1.241 . S
O149 Nd120 2.414 . S
O149 Nd121 2.682 . S
O149 C138 1.273 . S
O150 Nd121 2.410 . S
O150 C139 1.251 . S
O151 Nd120 2.424 . S
O151 C139 1.268 . S
H152 C124 0.930 . S
H153 C125 0.929 . S
H154 C127 0.930 . S
H155 C128 0.929 . S
H156 C133 0.930 . S
H157 C134 0.929 . S
H158 C136 0.930 . S
H159 C137 0.929 . S
Nd160 C162 2.836 . S
Nd160 O180 2.500 . S
Nd160 O181 2.492 . S
Nd160 O182 2.487 . S
Nd160 O183 2.682 . S
Nd160 O184 2.410 . S
Nd160 O189 2.414 . S
Nd160 O191 2.424 . S
Nd161 C171 2.836 . S
Nd161 O183 2.414 . S
Nd161 O185 2.424 . S
Nd161 O186 2.500 . S
Nd161 O187 2.492 . S
Nd161 O188 2.487 . S
Nd161 O189 2.682 . S
Nd161 O190 2.410 . S
C162 Nd160 2.836 . S
C162 C163 1.498 . S
C162 O180 1.258 . S
C162 O181 1.239 . S
C163 C162 1.498 . S
C163 C164 1.366 . S
C163 C168 1.407 . S
C164 C163 1.366 . S
C164 C165 1.392 . S
C164 H192 0.930 . S
C165 C164 1.392 . S
C165 C166 1.398 . S
C165 H193 0.929 . S
C166 C165 1.398 . S
C166 C167 1.352 . S
C167 C166 1.352 . S
C167 C168 1.384 . S
C167 H194 0.930 . S
C168 C163 1.407 . S
C168 C167 1.384 . S
C168 H195 0.929 . S
C169 O182 1.241 . S
C169 O183 1.273 . S
C170 O184 1.251 . S
C170 O185 1.268 . S
C171 Nd161 2.836 . S
C171 C172 1.498 . S
C171 O186 1.258 . S
C171 O187 1.239 . S
C172 C171 1.498 . S
C172 C173 1.366 . S
C172 C177 1.407 . S
C173 C172 1.366 . S
C173 C174 1.392 . S
C173 H196 0.930 . S
C174 C173 1.392 . S
C174 C175 1.398 . S
C174 H197 0.929 . S
C175 C174 1.398 . S
C175 C176 1.352 . S
C176 C175 1.352 . S
C176 C177 1.384 . S
C176 H198 0.930 . S
C177 C172 1.407 . S
C177 C176 1.384 . S
C177 H199 0.929 . S
C178 O188 1.241 . S
C178 O189 1.273 . S
C179 O190 1.251 . S
C179 O191 1.268 . S
O180 Nd160 2.500 . S
O180 C162 1.258 . S
O181 Nd160 2.492 . S
O181 C162 1.239 . S
O182 Nd160 2.487 . S
O182 C169 1.241 . S
O183 Nd160 2.682 . S
O183 Nd161 2.414 . S
O183 C169 1.273 . S
O184 Nd160 2.410 . S
O184 C170 1.251 . S
O185 Nd161 2.424 . S
O185 C170 1.268 . S
O186 Nd161 2.500 . S
O186 C171 1.258 . S
O187 Nd161 2.492 . S
O187 C171 1.239 . S
O188 Nd161 2.487 . S
O188 C178 1.241 . S
O189 Nd160 2.414 . S
O189 Nd161 2.682 . S
O189 C178 1.273 . S
O190 Nd161 2.410 . S
O190 C179 1.251 . S
O191 Nd160 2.424 . S
O191 C179 1.268 . S
H192 C164 0.930 . S
H193 C165 0.929 . S
H194 C167 0.930 . S
H195 C168 0.929 . S
H196 C173 0.930 . S
H197 C174 0.929 . S
H198 C176 0.930 . S
H199 C177 0.929 . S
Nd200 C202 2.836 1_545 S
Nd200 O220 2.500 1_545 S
Nd200 O221 2.492 1_545 S
Nd200 O222 2.487 . S
Nd200 O223 2.682 . S
Nd200 O224 2.410 . S
Nd200 O229 2.414 . S
Nd200 O231 2.424 . S
Nd201 C211 2.836 . S
Nd201 O223 2.414 . S
Nd201 O225 2.424 . S
Nd201 O226 2.500 . S
Nd201 O227 2.492 . S
Nd201 O228 2.487 . S
Nd201 O229 2.682 . S
Nd201 O230 2.410 . S
C202 Nd200 2.836 1_565 S
C202 C203 1.498 . S
C202 O220 1.258 . S
C202 O221 1.239 . S
C203 C202 1.498 . S
C203 C204 1.366 . S
C203 C208 1.407 . S
C204 C203 1.366 . S
C204 C205 1.392 . S
C204 H232 0.930 . S
C205 C204 1.392 . S
C205 C206 1.398 . S
C205 H233 0.929 . S
C206 C205 1.398 . S
C206 C207 1.352 . S
C207 C206 1.352 . S
C207 C208 1.384 . S
C207 H234 0.930 . S
C208 C203 1.407 . S
C208 C207 1.384 . S
C208 H235 0.929 . S
C209 O222 1.241 . S
C209 O223 1.273 . S
C210 O224 1.251 . S
C210 O225 1.268 . S
C211 Nd201 2.836 . S
C211 C212 1.498 . S
C211 O226 1.258 . S
C211 O227 1.239 . S
C212 C211 1.498 . S
C212 C213 1.366 . S
C212 C217 1.407 . S
C213 C212 1.366 . S
C213 C214 1.392 . S
C213 H236 0.930 . S
C214 C213 1.392 . S
C214 C215 1.398 . S
C214 H237 0.929 . S
C215 C214 1.398 . S
C215 C216 1.352 . S
C216 C215 1.352 . S
C216 C217 1.384 . S
C216 H238 0.930 . S
C217 C212 1.407 . S
C217 C216 1.384 . S
C217 H239 0.929 . S
C218 O228 1.241 . S
C218 O229 1.273 . S
C219 O230 1.251 . S
C219 O231 1.268 . S
O220 Nd200 2.500 1_565 S
O220 C202 1.258 . S
O221 Nd200 2.492 1_565 S
O221 C202 1.239 . S
O222 Nd200 2.487 . S
O222 C209 1.241 . S
O223 Nd200 2.682 . S
O223 Nd201 2.414 . S
O223 C209 1.273 . S
O224 Nd200 2.410 . S
O224 C210 1.251 . S
O225 Nd201 2.424 . S
O225 C210 1.268 . S
O226 Nd201 2.500 . S
O226 C211 1.258 . S
O227 Nd201 2.492 . S
O227 C211 1.239 . S
O228 Nd201 2.487 . S
O228 C218 1.241 . S
O229 Nd200 2.414 . S
O229 Nd201 2.682 . S
O229 C218 1.273 . S
O230 Nd201 2.410 . S
O230 C219 1.251 . S
O231 Nd200 2.424 . S
O231 C219 1.268 . S
H232 C204 0.930 . S
H233 C205 0.929 . S
H234 C207 0.930 . S
H235 C208 0.929 . S
H236 C213 0.930 . S
H237 C214 0.929 . S
H238 C216 0.930 . S
H239 C217 0.929 . S
Nd240 C242 2.836 1_554 S
Nd240 O260 2.500 1_554 S
Nd240 O261 2.492 1_554 S
Nd240 O262 2.487 . S
Nd240 O263 2.682 . S
Nd240 O264 2.410 1_554 S
Nd240 O269 2.414 1_554 S
Nd240 O271 2.424 . S
Nd241 C251 2.836 1_556 S
Nd241 O263 2.414 1_556 S
Nd241 O265 2.424 . S
Nd241 O266 2.500 1_556 S
Nd241 O267 2.492 1_556 S
Nd241 O268 2.487 . S
Nd241 O269 2.682 . S
Nd241 O270 2.410 1_556 S
C242 Nd240 2.836 1_556 S
C242 C243 1.498 . S
C242 O260 1.258 . S
C242 O261 1.239 . S
C243 C242 1.498 . S
C243 C244 1.366 . S
C243 C248 1.407 . S
C244 C243 1.366 . S
C244 C245 1.392 . S
C244 H272 0.930 . S
C245 C244 1.392 . S
C245 C246 1.398 . S
C245 H273 0.929 . S
C246 C245 1.398 . S
C246 C247 1.352 . S
C247 C246 1.352 . S
C247 C248 1.384 . S
C247 H274 0.930 . S
C248 C243 1.407 . S
C248 C247 1.384 . S
C248 H275 0.929 . S
C249 O262 1.241 . S
C249 O263 1.273 . S
C250 O264 1.251 . S
C250 O265 1.268 . S
C251 Nd241 2.836 1_554 S
C251 C252 1.498 . S
C251 O266 1.258 . S
C251 O267 1.239 . S
C252 C251 1.498 . S
C252 C253 1.366 . S
C252 C257 1.407 . S
C253 C252 1.366 . S
C253 C254 1.392 . S
C253 H276 0.930 . S
C254 C253 1.392 . S
C254 C255 1.398 . S
C254 H277 0.929 . S
C255 C254 1.398 . S
C255 C256 1.352 . S
C256 C255 1.352 . S
C256 C257 1.384 . S
C256 H278 0.930 . S
C257 C252 1.407 . S
C257 C256 1.384 . S
C257 H279 0.929 . S
C258 O268 1.241 . S
C258 O269 1.273 . S
C259 O270 1.251 . S
C259 O271 1.268 . S
O260 Nd240 2.500 1_556 S
O260 C242 1.258 . S
O261 Nd240 2.492 1_556 S
O261 C242 1.239 . S
O262 Nd240 2.487 . S
O262 C249 1.241 . S
O263 Nd240 2.682 . S
O263 Nd241 2.414 1_554 S
O263 C249 1.273 . S
O264 Nd240 2.410 1_556 S
O264 C250 1.251 . S
O265 Nd241 2.424 . S
O265 C250 1.268 . S
O266 Nd241 2.500 1_554 S
O266 C251 1.258 . S
O267 Nd241 2.492 1_554 S
O267 C251 1.239 . S
O268 Nd241 2.487 . S
O268 C258 1.241 . S
O269 Nd240 2.414 1_556 S
O269 Nd241 2.682 . S
O269 C258 1.273 . S
O270 Nd241 2.410 1_554 S
O270 C259 1.251 . S
O271 Nd240 2.424 . S
O271 C259 1.268 . S
H272 C244 0.930 . S
H273 C245 0.929 . S
H274 C247 0.930 . S
H275 C248 0.929 . S
H276 C253 0.930 . S
H277 C254 0.929 . S
H278 C256 0.930 . S
H279 C257 0.929 . S
Nd280 C282 2.836 1_554 S
Nd280 O300 2.500 1_554 S
Nd280 O301 2.492 1_554 S
Nd280 O302 2.487 . S
Nd280 O303 2.682 . S
Nd280 O304 2.410 1_554 S
Nd280 O309 2.414 1_554 S
Nd280 O311 2.424 . S
Nd281 C291 2.836 1_556 S
Nd281 O303 2.414 1_556 S
Nd281 O305 2.424 . S
Nd281 O306 2.500 1_556 S
Nd281 O307 2.492 1_556 S
Nd281 O308 2.487 . S
Nd281 O309 2.682 . S
Nd281 O310 2.410 1_556 S
C282 Nd280 2.836 1_556 S
C282 C283 1.498 . S
C282 O300 1.258 . S
C282 O301 1.239 . S
C283 C282 1.498 . S
C283 C284 1.366 . S
C283 C288 1.407 . S
C284 C283 1.366 . S
C284 C285 1.392 . S
C284 H312 0.930 . S
C285 C284 1.392 . S
C285 C286 1.398 . S
C285 H313 0.929 . S
C286 C285 1.398 . S
C286 C287 1.352 . S
C287 C286 1.352 . S
C287 C288 1.384 . S
C287 H314 0.930 . S
C288 C283 1.407 . S
C288 C287 1.384 . S
C288 H315 0.929 . S
C289 O302 1.241 . S
C289 O303 1.273 . S
C290 O304 1.251 . S
C290 O305 1.268 . S
C291 Nd281 2.836 1_554 S
C291 C292 1.498 . S
C291 O306 1.258 . S
C291 O307 1.239 . S
C292 C291 1.498 . S
C292 C293 1.366 . S
C292 C297 1.407 . S
C293 C292 1.366 . S
C293 C294 1.392 . S
C293 H316 0.930 . S
C294 C293 1.392 . S
C294 C295 1.398 . S
C294 H317 0.929 . S
C295 C294 1.398 . S
C295 C296 1.352 . S
C296 C295 1.352 . S
C296 C297 1.384 . S
C296 H318 0.930 . S
C297 C292 1.407 . S
C297 C296 1.384 . S
C297 H319 0.929 . S
C298 O308 1.241 . S
C298 O309 1.273 . S
C299 O310 1.251 . S
C299 O311 1.268 . S
O300 Nd280 2.500 1_556 S
O300 C282 1.258 . S
O301 Nd280 2.492 1_556 S
O301 C282 1.239 . S
O302 Nd280 2.487 . S
O302 C289 1.241 . S
O303 Nd280 2.682 . S
O303 Nd281 2.414 1_554 S
O303 C289 1.273 . S
O304 Nd280 2.410 1_556 S
O304 C290 1.251 . S
O305 Nd281 2.424 . S
O305 C290 1.268 . S
O306 Nd281 2.500 1_554 S
O306 C291 1.258 . S
O307 Nd281 2.492 1_554 S
O307 C291 1.239 . S
O308 Nd281 2.487 . S
O308 C298 1.241 . S
O309 Nd280 2.414 1_556 S
O309 Nd281 2.682 . S
O309 C298 1.273 . S
O310 Nd281 2.410 1_554 S
O310 C299 1.251 . S
O311 Nd280 2.424 . S
O311 C299 1.268 . S
H312 C284 0.930 . S
H313 C285 0.929 . S
H314 C287 0.930 . S
H315 C288 0.929 . S
H316 C293 0.930 . S
H317 C294 0.929 . S
H318 C296 0.930 . S
H319 C297 0.929 . S
Nd320 C322 2.836 1_554 S
Nd320 O340 2.500 1_554 S
Nd320 O341 2.492 1_554 S
Nd320 O342 2.487 . S
Nd320 O343 2.682 . S
Nd320 O344 2.410 1_554 S
Nd320 O349 2.414 1_554 S
Nd320 O351 2.424 . S
Nd321 C331 2.836 1_556 S
Nd321 O343 2.414 1_556 S
Nd321 O345 2.424 . S
Nd321 O346 2.500 1_556 S
Nd321 O347 2.492 1_556 S
Nd321 O348 2.487 . S
Nd321 O349 2.682 . S
Nd321 O350 2.410 1_556 S
C322 Nd320 2.836 1_556 S
C322 C323 1.498 . S
C322 O340 1.258 . S
C322 O341 1.239 . S
C323 C322 1.498 . S
C323 C324 1.366 . S
C323 C328 1.407 . S
C324 C323 1.366 . S
C324 C325 1.392 . S
C324 H352 0.930 . S
C325 C324 1.392 . S
C325 C326 1.398 . S
C325 H353 0.929 . S
C326 C325 1.398 . S
C326 C327 1.352 . S
C327 C326 1.352 . S
C327 C328 1.384 . S
C327 H354 0.930 . S
C328 C323 1.407 . S
C328 C327 1.384 . S
C328 H355 0.929 . S
C329 O342 1.241 . S
C329 O343 1.273 . S
C330 O344 1.251 . S
C330 O345 1.268 . S
C331 Nd321 2.836 1_554 S
C331 C332 1.498 . S
C331 O346 1.258 . S
C331 O347 1.239 . S
C332 C331 1.498 . S
C332 C333 1.366 . S
C332 C337 1.407 . S
C333 C332 1.366 . S
C333 C334 1.392 . S
C333 H356 0.930 . S
C334 C333 1.392 . S
C334 C335 1.398 . S
C334 H357 0.929 . S
C335 C334 1.398 . S
C335 C336 1.352 . S
C336 C335 1.352 . S
C336 C337 1.384 . S
C336 H358 0.930 . S
C337 C332 1.407 . S
C337 C336 1.384 . S
C337 H359 0.929 . S
C338 O348 1.241 . S
C338 O349 1.273 . S
C339 O350 1.251 . S
C339 O351 1.268 . S
O340 Nd320 2.500 1_556 S
O340 C322 1.258 . S
O341 Nd320 2.492 1_556 S
O341 C322 1.239 . S
O342 Nd320 2.487 . S
O342 C329 1.241 . S
O343 Nd320 2.682 . S
O343 Nd321 2.414 1_554 S
O343 C329 1.273 . S
O344 Nd320 2.410 1_556 S
O344 C330 1.251 . S
O345 Nd321 2.424 . S
O345 C330 1.268 . S
O346 Nd321 2.500 1_554 S
O346 C331 1.258 . S
O347 Nd321 2.492 1_554 S
O347 C331 1.239 . S
O348 Nd321 2.487 . S
O348 C338 1.241 . S
O349 Nd320 2.414 1_556 S
O349 Nd321 2.682 . S
O349 C338 1.273 . S
O350 Nd321 2.410 1_554 S
O350 C339 1.251 . S
O351 Nd320 2.424 . S
O351 C339 1.268 . S
H352 C324 0.930 . S
H353 C325 0.929 . S
H354 C327 0.930 . S
H355 C328 0.929 . S
H356 C333 0.930 . S
H357 C334 0.929 . S
H358 C336 0.930 . S
H359 C337 0.929 . S
Nd360 C362 2.836 . S
Nd360 O380 2.500 . S
Nd360 O381 2.492 . S
Nd360 O382 2.487 . S
Nd360 O383 2.682 . S
Nd360 O384 2.410 . S
Nd360 O389 2.414 . S
Nd360 O391 2.424 . S
Nd361 C371 2.836 . S
Nd361 O383 2.414 . S
Nd361 O385 2.424 . S
Nd361 O386 2.500 . S
Nd361 O387 2.492 . S
Nd361 O388 2.487 . S
Nd361 O389 2.682 . S
Nd361 O390 2.410 . S
C362 Nd360 2.836 . S
C362 C363 1.498 . S
C362 O380 1.258 . S
C362 O381 1.239 . S
C363 C362 1.498 . S
C363 C364 1.366 . S
C363 C368 1.407 . S
C364 C363 1.366 . S
C364 C365 1.392 . S
C364 H392 0.930 . S
C365 C364 1.392 . S
C365 C366 1.398 . S
C365 H393 0.929 . S
C366 C365 1.398 . S
C366 C367 1.352 . S
C367 C366 1.352 . S
C367 C368 1.384 . S
C367 H394 0.930 . S
C368 C363 1.407 . S
C368 C367 1.384 . S
C368 H395 0.929 . S
C369 O382 1.241 . S
C369 O383 1.273 . S
C370 O384 1.251 . S
C370 O385 1.268 . S
C371 Nd361 2.836 . S
C371 C372 1.498 . S
C371 O386 1.258 . S
C371 O387 1.239 . S
C372 C371 1.498 . S
C372 C373 1.366 . S
C372 C377 1.407 . S
C373 C372 1.366 . S
C373 C374 1.392 . S
C373 H396 0.930 . S
C374 C373 1.392 . S
C374 C375 1.398 . S
C374 H397 0.929 . S
C375 C374 1.398 . S
C375 C376 1.352 . S
C376 C375 1.352 . S
C376 C377 1.384 . S
C376 H398 0.930 . S
C377 C372 1.407 . S
C377 C376 1.384 . S
C377 H399 0.929 . S
C378 O388 1.241 . S
C378 O389 1.273 . S
C379 O390 1.251 . S
C379 O391 1.268 . S
O380 Nd360 2.500 . S
O380 C362 1.258 . S
O381 Nd360 2.492 . S
O381 C362 1.239 . S
O382 Nd360 2.487 . S
O382 C369 1.241 . S
O383 Nd360 2.682 . S
O383 Nd361 2.414 . S
O383 C369 1.273 . S
O384 Nd360 2.410 . S
O384 C370 1.251 . S
O385 Nd361 2.424 . S
O385 C370 1.268 . S
O386 Nd361 2.500 . S
O386 C371 1.258 . S
O387 Nd361 2.492 . S
O387 C371 1.239 . S
O388 Nd361 2.487 . S
O388 C378 1.241 . S
O389 Nd360 2.414 . S
O389 Nd361 2.682 . S
O389 C378 1.273 . S
O390 Nd361 2.410 . S
O390 C379 1.251 . S
O391 Nd360 2.424 . S
O391 C379 1.268 . S
H392 C364 0.930 . S
H393 C365 0.929 . S
H394 C367 0.930 . S
H395 C368 0.929 . S
H396 C373 0.930 . S
H397 C374 0.929 . S
H398 C376 0.930 . S
H399 C377 0.929 . S
Nd400 C402 2.836 . S
Nd400 O420 2.500 . S
Nd400 O421 2.492 . S
Nd400 O422 2.487 . S
Nd400 O423 2.682 . S
Nd400 O424 2.410 . S
Nd400 O429 2.414 . S
Nd400 O431 2.424 . S
Nd401 C411 2.836 . S
Nd401 O423 2.414 . S
Nd401 O425 2.424 . S
Nd401 O426 2.500 . S
Nd401 O427 2.492 . S
Nd401 O428 2.487 . S
Nd401 O429 2.682 . S
Nd401 O430 2.410 . S
C402 Nd400 2.836 . S
C402 C403 1.498 . S
C402 O420 1.258 . S
C402 O421 1.239 . S
C403 C402 1.498 . S
C403 C404 1.366 . S
C403 C408 1.407 . S
C404 C403 1.366 . S
C404 C405 1.392 . S
C404 H432 0.930 . S
C405 C404 1.392 . S
C405 C406 1.398 . S
C405 H433 0.929 . S
C406 C405 1.398 . S
C406 C407 1.352 . S
C407 C406 1.352 . S
C407 C408 1.384 . S
C407 H434 0.930 . S
C408 C403 1.407 . S
C408 C407 1.384 . S
C408 H435 0.929 . S
C409 O422 1.241 . S
C409 O423 1.273 . S
C410 O424 1.251 . S
C410 O425 1.268 . S
C411 Nd401 2.836 . S
C411 C412 1.498 . S
C411 O426 1.258 . S
C411 O427 1.239 . S
C412 C411 1.498 . S
C412 C413 1.366 . S
C412 C417 1.407 . S
C413 C412 1.366 . S
C413 C414 1.392 . S
C413 H436 0.930 . S
C414 C413 1.392 . S
C414 C415 1.398 . S
C414 H437 0.929 . S
C415 C414 1.398 . S
C415 C416 1.352 . S
C416 C415 1.352 . S
C416 C417 1.384 . S
C416 H438 0.930 . S
C417 C412 1.407 . S
C417 C416 1.384 . S
C417 H439 0.929 . S
C418 O428 1.241 . S
C418 O429 1.273 . S
C419 O430 1.251 . S
C419 O431 1.268 . S
O420 Nd400 2.500 . S
O420 C402 1.258 . S
O421 Nd400 2.492 . S
O421 C402 1.239 . S
O422 Nd400 2.487 . S
O422 C409 1.241 . S
O423 Nd400 2.682 . S
O423 Nd401 2.414 . S
O423 C409 1.273 . S
O424 Nd400 2.410 . S
O424 C410 1.251 . S
O425 Nd401 2.424 . S
O425 C410 1.268 . S
O426 Nd401 2.500 . S
O426 C411 1.258 . S
O427 Nd401 2.492 . S
O427 C411 1.239 . S
O428 Nd401 2.487 . S
O428 C418 1.241 . S
O429 Nd400 2.414 . S
O429 Nd401 2.682 . S
O429 C418 1.273 . S
O430 Nd401 2.410 . S
O430 C419 1.251 . S
O431 Nd400 2.424 . S
O431 C419 1.268 . S
H432 C404 0.930 . S
H433 C405 0.929 . S
H434 C407 0.930 . S
H435 C408 0.929 . S
H436 C413 0.930 . S
H437 C414 0.929 . S
H438 C416 0.930 . S
H439 C417 0.929 . S
Nd440 C442 2.836 . S
Nd440 O460 2.500 . S
Nd440 O461 2.492 . S
Nd440 O462 2.487 . S
Nd440 O463 2.682 . S
Nd440 O464 2.410 . S
Nd440 O469 2.414 . S
Nd440 O471 2.424 . S
Nd441 C451 2.836 . S
Nd441 O463 2.414 . S
Nd441 O465 2.424 . S
Nd441 O466 2.500 . S
Nd441 O467 2.492 . S
Nd441 O468 2.487 . S
Nd441 O469 2.682 . S
Nd441 O470 2.410 . S
C442 Nd440 2.836 . S
C442 C443 1.498 . S
C442 O460 1.258 . S
C442 O461 1.239 . S
C443 C442 1.498 . S
C443 C444 1.366 . S
C443 C448 1.407 . S
C444 C443 1.366 . S
C444 C445 1.392 . S
C444 H472 0.930 . S
C445 C444 1.392 . S
C445 C446 1.398 . S
C445 H473 0.929 . S
C446 C445 1.398 . S
C446 C447 1.352 . S
C447 C446 1.352 . S
C447 C448 1.384 . S
C447 H474 0.930 . S
C448 C443 1.407 . S
C448 C447 1.384 . S
C448 H475 0.929 . S
C449 O462 1.241 . S
C449 O463 1.273 . S
C450 O464 1.251 . S
C450 O465 1.268 . S
C451 Nd441 2.836 . S
C451 C452 1.498 . S
C451 O466 1.258 . S
C451 O467 1.239 . S
C452 C451 1.498 . S
C452 C453 1.366 . S
C452 C457 1.407 . S
C453 C452 1.366 . S
C453 C454 1.392 . S
C453 H476 0.930 . S
C454 C453 1.392 . S
C454 C455 1.398 . S
C454 H477 0.929 . S
C455 C454 1.398 . S
C455 C456 1.352 . S
C456 C455 1.352 . S
C456 C457 1.384 . S
C456 H478 0.930 . S
C457 C452 1.407 . S
C457 C456 1.384 . S
C457 H479 0.929 . S
C458 O468 1.241 . S
C458 O469 1.273 . S
C459 O470 1.251 . S
C459 O471 1.268 . S
O460 Nd440 2.500 . S
O460 C442 1.258 . S
O461 Nd440 2.492 . S
O461 C442 1.239 . S
O462 Nd440 2.487 . S
O462 C449 1.241 . S
O463 Nd440 2.682 . S
O463 Nd441 2.414 . S
O463 C449 1.273 . S
O464 Nd440 2.410 . S
O464 C450 1.251 . S
O465 Nd441 2.424 . S
O465 C450 1.268 . S
O466 Nd441 2.500 . S
O466 C451 1.258 . S
O467 Nd441 2.492 . S
O467 C451 1.239 . S
O468 Nd441 2.487 . S
O468 C458 1.241 . S
O469 Nd440 2.414 . S
O469 Nd441 2.682 . S
O469 C458 1.273 . S
O470 Nd441 2.410 . S
O470 C459 1.251 . S
O471 Nd440 2.424 . S
O471 C459 1.268 . S
H472 C444 0.930 . S
H473 C445 0.929 . S
H474 C447 0.930 . S
H475 C448 0.929 . S
H476 C453 0.930 . S
H477 C454 0.929 . S
H478 C456 0.930 . S
H479 C457 0.929 . S
Nd480 C482 2.836 . S
Nd480 O500 2.500 . S
Nd480 O501 2.492 . S
Nd480 O502 2.487 . S
Nd480 O503 2.682 . S
Nd480 O504 2.410 . S
Nd480 O509 2.414 . S
Nd480 O511 2.424 . S
Nd481 C491 2.836 . S
Nd481 O503 2.414 . S
Nd481 O505 2.424 . S
Nd481 O506 2.500 . S
Nd481 O507 2.492 . S
Nd481 O508 2.487 . S
Nd481 O509 2.682 . S
Nd481 O510 2.410 . S
C482 Nd480 2.836 . S
C482 C483 1.498 . S
C482 O500 1.258 . S
C482 O501 1.239 . S
C483 C482 1.498 . S
C483 C484 1.366 . S
C483 C488 1.407 . S
C484 C483 1.366 . S
C484 C485 1.392 . S
C484 H512 0.930 . S
C485 C484 1.392 . S
C485 C486 1.398 . S
C485 H513 0.929 . S
C486 C485 1.398 . S
C486 C487 1.352 . S
C487 C486 1.352 . S
C487 C488 1.384 . S
C487 H514 0.930 . S
C488 C483 1.407 . S
C488 C487 1.384 . S
C488 H515 0.929 . S
C489 O502 1.241 . S
C489 O503 1.273 . S
C490 O504 1.251 . S
C490 O505 1.268 . S
C491 Nd481 2.836 . S
C491 C492 1.498 . S
C491 O506 1.258 . S
C491 O507 1.239 . S
C492 C491 1.498 . S
C492 C493 1.366 . S
C492 C497 1.407 . S
C493 C492 1.366 . S
C493 C494 1.392 . S
C493 H516 0.930 . S
C494 C493 1.392 . S
C494 C495 1.398 . S
C494 H517 0.929 . S
C495 C494 1.398 . S
C495 C496 1.352 . S
C496 C495 1.352 . S
C496 C497 1.384 . S
C496 H518 0.930 . S
C497 C492 1.407 . S
C497 C496 1.384 . S
C497 H519 0.929 . S
C498 O508 1.241 . S
C498 O509 1.273 . S
C499 O510 1.251 . S
C499 O511 1.268 . S
O500 Nd480 2.500 . S
O500 C482 1.258 . S
O501 Nd480 2.492 . S
O501 C482 1.239 . S
O502 Nd480 2.487 . S
O502 C489 1.241 . S
O503 Nd480 2.682 . S
O503 Nd481 2.414 . S
O503 C489 1.273 . S
O504 Nd480 2.410 . S
O504 C490 1.251 . S
O505 Nd481 2.424 . S
O505 C490 1.268 . S
O506 Nd481 2.500 . S
O506 C491 1.258 . S
O507 Nd481 2.492 . S
O507 C491 1.239 . S
O508 Nd481 2.487 . S
O508 C498 1.241 . S
O509 Nd480 2.414 . S
O509 Nd481 2.682 . S
O509 C498 1.273 . S
O510 Nd481 2.410 . S
O510 C499 1.251 . S
O511 Nd480 2.424 . S
O511 C499 1.268 . S
H512 C484 0.930 . S
H513 C485 0.929 . S
H514 C487 0.930 . S
H515 C488 0.929 . S
H516 C493 0.930 . S
H517 C494 0.929 . S
H518 C496 0.930 . S
H519 C497 0.929 . S
Nd520 C522 2.836 . S
Nd520 O540 2.500 . S
Nd520 O541 2.492 . S
Nd520 O542 2.487 . S
Nd520 O543 2.682 . S
Nd520 O544 2.410 . S
Nd520 O549 2.414 . S
Nd520 O551 2.424 . S
Nd521 C531 2.836 . S
Nd521 O543 2.414 . S
Nd521 O545 2.424 . S
Nd521 O546 2.500 . S
Nd521 O547 2.492 . S
Nd521 O548 2.487 . S
Nd521 O549 2.682 . S
Nd521 O550 2.410 . S
C522 Nd520 2.836 . S
C522 C523 1.498 . S
C522 O540 1.258 . S
C522 O541 1.239 . S
C523 C522 1.498 . S
C523 C524 1.366 . S
C523 C528 1.407 . S
C524 C523 1.366 . S
C524 C525 1.392 . S
C524 H552 0.930 . S
C525 C524 1.392 . S
C525 C526 1.398 . S
C525 H553 0.929 . S
C526 C525 1.398 . S
C526 C527 1.352 . S
C527 C526 1.352 . S
C527 C528 1.384 . S
C527 H554 0.930 . S
C528 C523 1.407 . S
C528 C527 1.384 . S
C528 H555 0.929 . S
C529 O542 1.241 . S
C529 O543 1.273 . S
C530 O544 1.251 . S
C530 O545 1.268 . S
C531 Nd521 2.836 . S
C531 C532 1.498 . S
C531 O546 1.258 . S
C531 O547 1.239 . S
C532 C531 1.498 . S
C532 C533 1.366 . S
C532 C537 1.407 . S
C533 C532 1.366 . S
C533 C534 1.392 . S
C533 H556 0.930 . S
C534 C533 1.392 . S
C534 C535 1.398 . S
C534 H557 0.929 . S
C535 C534 1.398 . S
C535 C536 1.352 . S
C536 C535 1.352 . S
C536 C537 1.384 . S
C536 H558 0.930 . S
C537 C532 1.407 . S
C537 C536 1.384 . S
C537 H559 0.929 . S
C538 O548 1.241 . S
C538 O549 1.273 . S
C539 O550 1.251 . S
C539 O551 1.268 . S
O540 Nd520 2.500 . S
O540 C522 1.258 . S
O541 Nd520 2.492 . S
O541 C522 1.239 . S
O542 Nd520 2.487 . S
O542 C529 1.241 . S
O543 Nd520 2.682 . S
O543 Nd521 2.414 . S
O543 C529 1.273 . S
O544 Nd520 2.410 . S
O544 C530 1.251 . S
O545 Nd521 2.424 . S
O545 C530 1.268 . S
O546 Nd521 2.500 . S
O546 C531 1.258 . S
O547 Nd521 2.492 . S
O547 C531 1.239 . S
O548 Nd521 2.487 . S
O548 C538 1.241 . S
O549 Nd520 2.414 . S
O549 Nd521 2.682 . S
O549 C538 1.273 . S
O550 Nd521 2.410 . S
O550 C539 1.251 . S
O551 Nd520 2.424 . S
O551 C539 1.268 . S
H552 C524 0.930 . S
H553 C525 0.929 . S
H554 C527 0.930 . S
H555 C528 0.929 . S
H556 C533 0.930 . S
H557 C534 0.929 . S
H558 C536 0.930 . S
H559 C537 0.929 . S
Nd560 C562 2.836 . S
Nd560 O580 2.500 . S
Nd560 O581 2.492 . S
Nd560 O582 2.487 . S
Nd560 O583 2.682 . S
Nd560 O584 2.410 . S
Nd560 O589 2.414 . S
Nd560 O591 2.424 . S
Nd561 C571 2.836 . S
Nd561 O583 2.414 . S
Nd561 O585 2.424 . S
Nd561 O586 2.500 . S
Nd561 O587 2.492 . S
Nd561 O588 2.487 . S
Nd561 O589 2.682 . S
Nd561 O590 2.410 . S
C562 Nd560 2.836 . S
C562 C563 1.498 . S
C562 O580 1.258 . S
C562 O581 1.239 . S
C563 C562 1.498 . S
C563 C564 1.366 . S
C563 C568 1.407 . S
C564 C563 1.366 . S
C564 C565 1.392 . S
C564 H592 0.930 . S
C565 C564 1.392 . S
C565 C566 1.398 . S
C565 H593 0.929 . S
C566 C565 1.398 . S
C566 C567 1.352 . S
C567 C566 1.352 . S
C567 C568 1.384 . S
C567 H594 0.930 . S
C568 C563 1.407 . S
C568 C567 1.384 . S
C568 H595 0.929 . S
C569 O582 1.241 . S
C569 O583 1.273 . S
C570 O584 1.251 . S
C570 O585 1.268 . S
C571 Nd561 2.836 . S
C571 C572 1.498 . S
C571 O586 1.258 . S
C571 O587 1.239 . S
C572 C571 1.498 . S
C572 C573 1.366 . S
C572 C577 1.407 . S
C573 C572 1.366 . S
C573 C574 1.392 . S
C573 H596 0.930 . S
C574 C573 1.392 . S
C574 C575 1.398 . S
C574 H597 0.929 . S
C575 C574 1.398 . S
C575 C576 1.352 . S
C576 C575 1.352 . S
C576 C577 1.384 . S
C576 H598 0.930 . S
C577 C572 1.407 . S
C577 C576 1.384 . S
C577 H599 0.929 . S
C578 O588 1.241 . S
C578 O589 1.273 . S
C579 O590 1.251 . S
C579 O591 1.268 . S
O580 Nd560 2.500 . S
O580 C562 1.258 . S
O581 Nd560 2.492 . S
O581 C562 1.239 . S
O582 Nd560 2.487 . S
O582 C569 1.241 . S
O583 Nd560 2.682 . S
O583 Nd561 2.414 . S
O583 C569 1.273 . S
O584 Nd560 2.410 . S
O584 C570 1.251 . S
O585 Nd561 2.424 . S
O585 C570 1.268 . S
O586 Nd561 2.500 . S
O586 C571 1.258 . S
O587 Nd561 2.492 . S
O587 C571 1.239 . S
O588 Nd561 2.487 . S
O588 C578 1.241 . S
O589 Nd560 2.414 . S
O589 Nd561 2.682 . S
O589 C578 1.273 . S
O590 Nd561 2.410 . S
O590 C579 1.251 . S
O591 Nd560 2.424 . S
O591 C579 1.268 . S
H592 C564 0.930 . S
H593 C565 0.929 . S
H594 C567 0.930 . S
H595 C568 0.929 . S
H596 C573 0.930 . S
H597 C574 0.929 . S
H598 C576 0.930 . S
H599 C577 0.929 . S
Nd600 C602 2.836 1_554 S
Nd600 O620 2.500 1_554 S
Nd600 O621 2.492 1_554 S
Nd600 O622 2.487 . S
Nd600 O623 2.682 . S
Nd600 O624 2.410 1_554 S
Nd600 O629 2.414 1_554 S
Nd600 O631 2.424 . S
Nd601 C611 2.836 1_556 S
Nd601 O623 2.414 1_556 S
Nd601 O625 2.424 . S
Nd601 O626 2.500 1_556 S
Nd601 O627 2.492 1_556 S
Nd601 O628 2.487 . S
Nd601 O629 2.682 . S
Nd601 O630 2.410 1_556 S
C602 Nd600 2.836 1_556 S
C602 C603 1.498 . S
C602 O620 1.258 . S
C602 O621 1.239 . S
C603 C602 1.498 . S
C603 C604 1.366 . S
C603 C608 1.407 . S
C604 C603 1.366 . S
C604 C605 1.392 . S
C604 H632 0.930 . S
C605 C604 1.392 . S
C605 C606 1.398 . S
C605 H633 0.929 . S
C606 C605 1.398 . S
C606 C607 1.352 . S
C607 C606 1.352 . S
C607 C608 1.384 . S
C607 H634 0.930 . S
C608 C603 1.407 . S
C608 C607 1.384 . S
C608 H635 0.929 . S
C609 O622 1.241 . S
C609 O623 1.273 . S
C610 O624 1.251 . S
C610 O625 1.268 . S
C611 Nd601 2.836 1_554 S
C611 C612 1.498 . S
C611 O626 1.258 . S
C611 O627 1.239 . S
C612 C611 1.498 . S
C612 C613 1.366 . S
C612 C617 1.407 . S
C613 C612 1.366 . S
C613 C614 1.392 . S
C613 H636 0.930 . S
C614 C613 1.392 . S
C614 C615 1.398 . S
C614 H637 0.929 . S
C615 C614 1.398 . S
C615 C616 1.352 . S
C616 C615 1.352 . S
C616 C617 1.384 . S
C616 H638 0.930 . S
C617 C612 1.407 . S
C617 C616 1.384 . S
C617 H639 0.929 . S
C618 O628 1.241 . S
C618 O629 1.273 . S
C619 O630 1.251 . S
C619 O631 1.268 . S
O620 Nd600 2.500 1_556 S
O620 C602 1.258 . S
O621 Nd600 2.492 1_556 S
O621 C602 1.239 . S
O622 Nd600 2.487 . S
O622 C609 1.241 . S
O623 Nd600 2.682 . S
O623 Nd601 2.414 1_554 S
O623 C609 1.273 . S
O624 Nd600 2.410 1_556 S
O624 C610 1.251 . S
O625 Nd601 2.424 . S
O625 C610 1.268 . S
O626 Nd601 2.500 1_554 S
O626 C611 1.258 . S
O627 Nd601 2.492 1_554 S
O627 C611 1.239 . S
O628 Nd601 2.487 . S
O628 C618 1.241 . S
O629 Nd600 2.414 1_556 S
O629 Nd601 2.682 . S
O629 C618 1.273 . S
O630 Nd601 2.410 1_554 S
O630 C619 1.251 . S
O631 Nd600 2.424 . S
O631 C619 1.268 . S
H632 C604 0.930 . S
H633 C605 0.929 . S
H634 C607 0.930 . S
H635 C608 0.929 . S
H636 C613 0.930 . S
H637 C614 0.929 . S
H638 C616 0.930 . S
H639 C617 0.929 . S
Nd640 C642 2.836 1_554 S
Nd640 O660 2.500 1_554 S
Nd640 O661 2.492 1_554 S
Nd640 O662 2.487 . S
Nd640 O663 2.682 . S
Nd640 O664 2.410 1_554 S
Nd640 O669 2.414 1_554 S
Nd640 O671 2.424 . S
Nd641 C651 2.836 1_556 S
Nd641 O663 2.414 1_556 S
Nd641 O665 2.424 . S
Nd641 O666 2.500 1_556 S
Nd641 O667 2.492 1_556 S
Nd641 O668 2.487 . S
Nd641 O669 2.682 . S
Nd641 O670 2.410 1_556 S
C642 Nd640 2.836 1_556 S
C642 C643 1.498 . S
C642 O660 1.258 . S
C642 O661 1.239 . S
C643 C642 1.498 . S
C643 C644 1.366 . S
C643 C648 1.407 . S
C644 C643 1.366 . S
C644 C645 1.392 . S
C644 H672 0.930 . S
C645 C644 1.392 . S
C645 C646 1.398 . S
C645 H673 0.929 . S
C646 C645 1.398 . S
C646 C647 1.352 . S
C647 C646 1.352 . S
C647 C648 1.384 . S
C647 H674 0.930 . S
C648 C643 1.407 . S
C648 C647 1.384 . S
C648 H675 0.929 . S
C649 O662 1.241 . S
C649 O663 1.273 . S
C650 O664 1.251 . S
C650 O665 1.268 . S
C651 Nd641 2.836 1_554 S
C651 C652 1.498 . S
C651 O666 1.258 . S
C651 O667 1.239 . S
C652 C651 1.498 . S
C652 C653 1.366 . S
C652 C657 1.407 . S
C653 C652 1.366 . S
C653 C654 1.392 . S
C653 H676 0.930 . S
C654 C653 1.392 . S
C654 C655 1.398 . S
C654 H677 0.929 . S
C655 C654 1.398 . S
C655 C656 1.352 . S
C656 C655 1.352 . S
C656 C657 1.384 . S
C656 H678 0.930 . S
C657 C652 1.407 . S
C657 C656 1.384 . S
C657 H679 0.929 . S
C658 O668 1.241 . S
C658 O669 1.273 . S
C659 O670 1.251 . S
C659 O671 1.268 . S
O660 Nd640 2.500 1_556 S
O660 C642 1.258 . S
O661 Nd640 2.492 1_556 S
O661 C642 1.239 . S
O662 Nd640 2.487 . S
O662 C649 1.241 . S
O663 Nd640 2.682 . S
O663 Nd641 2.414 1_554 S
O663 C649 1.273 . S
O664 Nd640 2.410 1_556 S
O664 C650 1.251 . S
O665 Nd641 2.424 . S
O665 C650 1.268 . S
O666 Nd641 2.500 1_554 S
O666 C651 1.258 . S
O667 Nd641 2.492 1_554 S
O667 C651 1.239 . S
O668 Nd641 2.487 . S
O668 C658 1.241 . S
O669 Nd640 2.414 1_556 S
O669 Nd641 2.682 . S
O669 C658 1.273 . S
O670 Nd641 2.410 1_554 S
O670 C659 1.251 . S
O671 Nd640 2.424 . S
O671 C659 1.268 . S
H672 C644 0.930 . S
H673 C645 0.929 . S
H674 C647 0.930 . S
H675 C648 0.929 . S
H676 C653 0.930 . S
H677 C654 0.929 . S
H678 C656 0.930 . S
H679 C657 0.929 . S
Nd680 C682 2.836 1_554 S
Nd680 O700 2.500 1_554 S
Nd680 O701 2.492 1_554 S
Nd680 O702 2.487 . S
Nd680 O703 2.682 . S
Nd680 O704 2.410 1_554 S
Nd680 O709 2.414 1_554 S
Nd680 O711 2.424 . S
Nd681 C691 2.836 1_556 S
Nd681 O703 2.414 1_556 S
Nd681 O705 2.424 . S
Nd681 O706 2.500 1_556 S
Nd681 O707 2.492 1_556 S
Nd681 O708 2.487 . S
Nd681 O709 2.682 . S
Nd681 O710 2.410 1_556 S
C682 Nd680 2.836 1_556 S
C682 C683 1.498 . S
C682 O700 1.258 . S
C682 O701 1.239 . S
C683 C682 1.498 . S
C683 C684 1.366 . S
C683 C688 1.407 . S
C684 C683 1.366 . S
C684 C685 1.392 . S
C684 H712 0.930 . S
C685 C684 1.392 . S
C685 C686 1.398 . S
C685 H713 0.929 . S
C686 C685 1.398 . S
C686 C687 1.352 . S
C687 C686 1.352 . S
C687 C688 1.384 . S
C687 H714 0.930 . S
C688 C683 1.407 . S
C688 C687 1.384 . S
C688 H715 0.929 . S
C689 O702 1.241 . S
C689 O703 1.273 . S
C690 O704 1.251 . S
C690 O705 1.268 . S
C691 Nd681 2.836 1_554 S
C691 C692 1.498 . S
C691 O706 1.258 . S
C691 O707 1.239 . S
C692 C691 1.498 . S
C692 C693 1.366 . S
C692 C697 1.407 . S
C693 C692 1.366 . S
C693 C694 1.392 . S
C693 H716 0.930 . S
C694 C693 1.392 . S
C694 C695 1.398 . S
C694 H717 0.929 . S
C695 C694 1.398 . S
C695 C696 1.352 . S
C696 C695 1.352 . S
C696 C697 1.384 . S
C696 H718 0.930 . S
C697 C692 1.407 . S
C697 C696 1.384 . S
C697 H719 0.929 . S
C698 O708 1.241 . S
C698 O709 1.273 . S
C699 O710 1.251 . S
C699 O711 1.268 . S
O700 Nd680 2.500 1_556 S
O700 C682 1.258 . S
O701 Nd680 2.492 1_556 S
O701 C682 1.239 . S
O702 Nd680 2.487 . S
O702 C689 1.241 . S
O703 Nd680 2.682 . S
O703 Nd681 2.414 1_554 S
O703 C689 1.273 . S
O704 Nd680 2.410 1_556 S
O704 C690 1.251 . S
O705 Nd681 2.424 . S
O705 C690 1.268 . S
O706 Nd681 2.500 1_554 S
O706 C691 1.258 . S
O707 Nd681 2.492 1_554 S
O707 C691 1.239 . S
O708 Nd681 2.487 . S
O708 C698 1.241 . S
O709 Nd680 2.414 1_556 S
O709 Nd681 2.682 . S
O709 C698 1.273 . S
O710 Nd681 2.410 1_554 S
O710 C699 1.251 . S
O711 Nd680 2.424 . S
O711 C699 1.268 . S
H712 C684 0.930 . S
H713 C685 0.929 . S
H714 C687 0.930 . S
H715 C688 0.929 . S
H716 C693 0.930 . S
H717 C694 0.929 . S
H718 C696 0.930 . S
H719 C697 0.929 . S
C720 C721 1.391 . S
C720 C722 1.394 . S
C720 H736 0.931 . S
C721 C720 1.391 . S
C721 C725 1.376 . S
C722 C720 1.394 . S
C722 C723 1.369 . S
C722 C726 1.531 . S
C723 C722 1.369 . S
C723 C724 1.410 . S
C723 C731 1.503 . S
C724 C723 1.410 . S
C724 C725 1.392 . S
C724 C727 1.511 . S
C725 C721 1.376 . S
C725 C724 1.392 . S
C725 H737 0.929 . S
C726 C722 1.531 . S
C726 H738 0.960 . S
C726 H739 0.962 . S
C726 H740 0.960 . S
C727 C724 1.511 . S
C727 H741 0.961 . S
C727 H742 0.961 . S
C727 H743 0.961 . S
C728 C729 1.370 . S
C728 C730 1.363 . S
C728 H744 0.931 . S
C729 C728 1.370 . S
C729 C733 1.408 . S
C730 C728 1.363 . S
C730 C731 1.370 . S
C730 C734 1.524 . S
C731 C723 1.503 . S
C731 C730 1.370 . S
C731 C732 1.403 . S
C732 C731 1.403 . S
C732 C733 1.404 . S
C732 C735 1.539 . S
C733 C729 1.408 . S
C733 C732 1.404 . S
C733 H745 0.930 . S
C734 C730 1.524 . S
C734 H746 0.956 . S
C734 H747 0.961 . S
C734 H748 0.961 . S
C735 C732 1.539 . S
C735 H749 0.958 . S
C735 H750 0.961 . S
C735 H751 0.960 . S
H736 C720 0.931 . S
H737 C725 0.929 . S
H738 C726 0.960 . S
H739 C726 0.962 . S
H740 C726 0.960 . S
H741 C727 0.961 . S
H742 C727 0.961 . S
H743 C727 0.961 . S
H744 C728 0.931 . S
H745 C733 0.930 . S
H746 C734 0.956 . S
H747 C734 0.961 . S
H748 C734 0.961 . S
H749 C735 0.958 . S
H750 C735 0.961 . S
H751 C735 0.960 . S
C752 C753 1.391 . S
C752 C754 1.394 . S
C752 H768 0.931 . S
C753 C752 1.391 . S
C753 C757 1.376 . S
C754 C752 1.394 . S
C754 C755 1.369 . S
C754 C758 1.531 . S
C755 C754 1.369 . S
C755 C756 1.410 . S
C755 C763 1.503 . S
C756 C755 1.410 . S
C756 C757 1.392 . S
C756 C759 1.511 . S
C757 C753 1.376 . S
C757 C756 1.392 . S
C757 H769 0.929 . S
C758 C754 1.531 . S
C758 H770 0.960 . S
C758 H771 0.962 . S
C758 H772 0.960 . S
C759 C756 1.511 . S
C759 H773 0.961 . S
C759 H774 0.961 . S
C759 H775 0.961 . S
C760 C761 1.370 . S
C760 C762 1.363 . S
C760 H776 0.931 . S
C761 C760 1.370 . S
C761 C765 1.408 . S
C762 C760 1.363 . S
C762 C763 1.370 . S
C762 C766 1.524 . S
C763 C755 1.503 . S
C763 C762 1.370 . S
C763 C764 1.403 . S
C764 C763 1.403 . S
C764 C765 1.404 . S
C764 C767 1.539 . S
C765 C761 1.408 . S
C765 C764 1.404 . S
C765 H777 0.930 . S
C766 C762 1.524 . S
C766 H778 0.956 . S
C766 H779 0.961 . S
C766 H780 0.961 . S
C767 C764 1.539 . S
C767 H781 0.958 . S
C767 H782 0.961 . S
C767 H783 0.960 . S
H768 C752 0.931 . S
H769 C757 0.929 . S
H770 C758 0.960 . S
H771 C758 0.962 . S
H772 C758 0.960 . S
H773 C759 0.961 . S
H774 C759 0.961 . S
H775 C759 0.961 . S
H776 C760 0.931 . S
H777 C765 0.930 . S
H778 C766 0.956 . S
H779 C766 0.961 . S
H780 C766 0.961 . S
H781 C767 0.958 . S
H782 C767 0.961 . S
H783 C767 0.960 . S
C784 C785 1.391 . S
C784 C786 1.394 . S
C784 H800 0.931 . S
C785 C784 1.391 . S
C785 C789 1.376 . S
C786 C784 1.394 . S
C786 C787 1.369 . S
C786 C790 1.531 . S
C787 C786 1.369 . S
C787 C788 1.410 . S
C787 C795 1.503 . S
C788 C787 1.410 . S
C788 C789 1.392 . S
C788 C791 1.511 . S
C789 C785 1.376 . S
C789 C788 1.392 . S
C789 H801 0.929 . S
C790 C786 1.531 . S
C790 H802 0.960 . S
C790 H803 0.962 . S
C790 H804 0.960 . S
C791 C788 1.511 . S
C791 H805 0.961 . S
C791 H806 0.961 . S
C791 H807 0.961 . S
C792 C793 1.370 . S
C792 C794 1.363 . S
C792 H808 0.931 . S
C793 C792 1.370 . S
C793 C797 1.408 . S
C794 C792 1.363 . S
C794 C795 1.370 . S
C794 C798 1.524 . S
C795 C787 1.503 . S
C795 C794 1.370 . S
C795 C796 1.403 . S
C796 C795 1.403 . S
C796 C797 1.404 . S
C796 C799 1.539 . S
C797 C793 1.408 . S
C797 C796 1.404 . S
C797 H809 0.930 . S
C798 C794 1.524 . S
C798 H810 0.956 . S
C798 H811 0.961 . S
C798 H812 0.961 . S
C799 C796 1.539 . S
C799 H813 0.958 . S
C799 H814 0.961 . S
C799 H815 0.960 . S
H800 C784 0.931 . S
H801 C789 0.929 . S
H802 C790 0.960 . S
H803 C790 0.962 . S
H804 C790 0.960 . S
H805 C791 0.961 . S
H806 C791 0.961 . S
H807 C791 0.961 . S
H808 C792 0.931 . S
H809 C797 0.930 . S
H810 C798 0.956 . S
H811 C798 0.961 . S
H812 C798 0.961 . S
H813 C799 0.958 . S
H814 C799 0.961 . S
H815 C799 0.960 . S
C816 C817 1.391 . S
C816 C818 1.394 1_556 S
C816 H832 0.931 1_556 S
C817 C816 1.391 . S
C817 C821 1.376 . S
C818 C816 1.394 1_554 S
C818 C819 1.369 1_554 S
C818 C822 1.531 . S
C819 C818 1.369 1_556 S
C819 C820 1.410 . S
C819 C827 1.503 . S
C820 C819 1.410 . S
C820 C821 1.392 . S
C820 C823 1.511 . S
C821 C817 1.376 . S
C821 C820 1.392 . S
C821 H833 0.929 . S
C822 C818 1.531 . S
C822 H834 0.960 . S
C822 H835 0.962 . S
C822 H836 0.960 . S
C823 C820 1.511 . S
C823 H837 0.961 . S
C823 H838 0.961 . S
C823 H839 0.961 . S
C824 C825 1.370 . S
C824 C826 1.363 . S
C824 H840 0.931 . S
C825 C824 1.370 . S
C825 C829 1.408 1_556 S
C826 C824 1.363 . S
C826 C827 1.370 . S
C826 C830 1.524 . S
C827 C819 1.503 . S
C827 C826 1.370 . S
C827 C828 1.403 1_556 S
C828 C827 1.403 1_554 S
C828 C829 1.404 . S
C828 C831 1.539 . S
C829 C825 1.408 1_554 S
C829 C828 1.404 . S
C829 H841 0.930 . S
C830 C826 1.524 . S
C830 H842 0.956 . S
C830 H843 0.961 . S
C830 H844 0.961 . S
C831 C828 1.539 . S
C831 H845 0.958 . S
C831 H846 0.961 . S
C831 H847 0.960 . S
H832 C816 0.931 1_554 S
H833 C821 0.929 . S
H834 C822 0.960 . S
H835 C822 0.962 . S
H836 C822 0.960 . S
H837 C823 0.961 . S
H838 C823 0.961 . S
H839 C823 0.961 . S
H840 C824 0.931 . S
H841 C829 0.930 . S
H842 C830 0.956 . S
H843 C830 0.961 . S
H844 C830 0.961 . S
H845 C831 0.958 . S
H846 C831 0.961 . S
H847 C831 0.960 . S
C848 C849 1.391 1_554 S
C848 C850 1.394 . S
C848 H864 0.931 . S
C849 C848 1.391 1_556 S
C849 C853 1.376 . S
C850 C848 1.394 . S
C850 C851 1.369 1_554 S
C850 C854 1.531 . S
C851 C850 1.369 1_556 S
C851 C852 1.410 . S
C851 C859 1.503 . S
C852 C851 1.410 . S
C852 C853 1.392 . S
C852 C855 1.511 . S
C853 C849 1.376 . S
C853 C852 1.392 . S
C853 H865 0.929 . S
C854 C850 1.531 . S
C854 H866 0.960 . S
C854 H867 0.962 . S
C854 H868 0.960 . S
C855 C852 1.511 . S
C855 H869 0.961 . S
C855 H870 0.961 . S
C855 H871 0.961 . S
C856 C857 1.370 . S
C856 C858 1.363 . S
C856 H872 0.931 . S
C857 C856 1.370 . S
C857 C861 1.408 . S
C858 C856 1.363 . S
C858 C859 1.370 . S
C858 C862 1.524 . S
C859 C851 1.503 . S
C859 C858 1.370 . S
C859 C860 1.403 . S
C860 C859 1.403 . S
C860 C861 1.404 . S
C860 C863 1.539 1_556 S
C861 C857 1.408 . S
C861 C860 1.404 . S
C861 H873 0.930 . S
C862 C858 1.524 . S
C862 H874 0.956 . S
C862 H875 0.961 . S
C862 H876 0.961 . S
C863 C860 1.539 1_554 S
C863 H877 0.958 . S
C863 H878 0.961 1_554 S
C863 H879 0.960 1_554 S
H864 C848 0.931 . S
H865 C853 0.929 . S
H866 C854 0.960 . S
H867 C854 0.962 . S
H868 C854 0.960 . S
H869 C855 0.961 . S
H870 C855 0.961 . S
H871 C855 0.961 . S
H872 C856 0.931 . S
H873 C861 0.930 . S
H874 C862 0.956 . S
H875 C862 0.961 . S
H876 C862 0.961 . S
H877 C863 0.958 . S
H878 C863 0.961 1_556 S
H879 C863 0.960 1_556 S
C880 C881 1.391 . S
C880 C882 1.394 . S
C880 H896 0.931 . S
C881 C880 1.391 . S
C881 C885 1.376 . S
C882 C880 1.394 . S
C882 C883 1.369 . S
C882 C886 1.531 . S
C883 C882 1.369 . S
C883 C884 1.410 . S
C883 C891 1.503 . S
C884 C883 1.410 . S
C884 C885 1.392 . S
C884 C887 1.511 1_556 S
C885 C881 1.376 . S
C885 C884 1.392 . S
C885 H897 0.929 1_556 S
C886 C882 1.531 . S
C886 H898 0.960 . S
C886 H899 0.962 . S
C886 H900 0.960 . S
C887 C884 1.511 1_554 S
C887 H901 0.961 . S
C887 H902 0.961 . S
C887 H903 0.961 . S
C888 C889 1.370 1_554 S
C888 C890 1.363 . S
C888 H904 0.931 . S
C889 C888 1.370 1_556 S
C889 C893 1.408 . S
C890 C888 1.363 . S
C890 C891 1.370 1_554 S
C890 C894 1.524 . S
C891 C883 1.503 . S
C891 C890 1.370 1_556 S
C891 C892 1.403 . S
C892 C891 1.403 . S
C892 C893 1.404 . S
C892 C895 1.539 . S
C893 C889 1.408 . S
C893 C892 1.404 . S
C893 H905 0.930 . S
C894 C890 1.524 . S
C894 H906 0.956 . S
C894 H907 0.961 . S
C894 H908 0.961 . S
C895 C892 1.539 . S
C895 H909 0.958 . S
C895 H910 0.961 . S
C895 H911 0.960 . S
H896 C880 0.931 . S
H897 C885 0.929 1_554 S
H898 C886 0.960 . S
H899 C886 0.962 . S
H900 C886 0.960 . S
H901 C887 0.961 . S
H902 C887 0.961 . S
H903 C887 0.961 . S
H904 C888 0.931 . S
H905 C893 0.930 . S
H906 C894 0.956 . S
H907 C894 0.961 . S
H908 C894 0.961 . S
H909 C895 0.958 . S
H910 C895 0.961 . S
H911 C895 0.960 . S
C912 C913 1.391 . S
C912 C914 1.394 . S
C912 H928 0.931 . S
C913 C912 1.391 . S
C913 C917 1.376 . S
C914 C912 1.394 . S
C914 C915 1.369 . S
C914 C918 1.531 . S
C915 C914 1.369 . S
C915 C916 1.410 . S
C915 C923 1.503 . S
C916 C915 1.410 . S
C916 C917 1.392 . S
C916 C919 1.511 . S
C917 C913 1.376 . S
C917 C916 1.392 . S
C917 H929 0.929 . S
C918 C914 1.531 . S
C918 H930 0.960 . S
C918 H931 0.962 . S
C918 H932 0.960 . S
C919 C916 1.511 . S
C919 H933 0.961 . S
C919 H934 0.961 . S
C919 H935 0.961 . S
C920 C921 1.370 . S
C920 C922 1.363 . S
C920 H936 0.931 . S
C921 C920 1.370 . S
C921 C925 1.408 . S
C922 C920 1.363 . S
C922 C923 1.370 . S
C922 C926 1.524 . S
C923 C915 1.503 . S
C923 C922 1.370 . S
C923 C924 1.403 . S
C924 C923 1.403 . S
C924 C925 1.404 . S
C924 C927 1.539 . S
C925 C921 1.408 . S
C925 C924 1.404 . S
C925 H937 0.930 . S
C926 C922 1.524 . S
C926 H938 0.956 . S
C926 H939 0.961 . S
C926 H940 0.961 . S
C927 C924 1.539 . S
C927 H941 0.958 . S
C927 H942 0.961 . S
C927 H943 0.960 . S
H928 C912 0.931 . S
H929 C917 0.929 . S
H930 C918 0.960 . S
H931 C918 0.962 . S
H932 C918 0.960 . S
H933 C919 0.961 . S
H934 C919 0.961 . S
H935 C919 0.961 . S
H936 C920 0.931 . S
H937 C925 0.930 . S
H938 C926 0.956 . S
H939 C926 0.961 . S
H940 C926 0.961 . S
H941 C927 0.958 . S
H942 C927 0.961 . S
H943 C927 0.960 . S
C944 C945 1.391 . S
C944 C946 1.394 . S
C944 H960 0.931 . S
C945 C944 1.391 . S
C945 C949 1.376 . S
C946 C944 1.394 . S
C946 C947 1.369 . S
C946 C950 1.531 . S
C947 C946 1.369 . S
C947 C948 1.410 . S
C947 C955 1.503 . S
C948 C947 1.410 . S
C948 C949 1.392 . S
C948 C951 1.511 . S
C949 C945 1.376 . S
C949 C948 1.392 . S
C949 H961 0.929 . S
C950 C946 1.531 . S
C950 H962 0.960 . S
C950 H963 0.962 . S
C950 H964 0.960 . S
C951 C948 1.511 . S
C951 H965 0.961 . S
C951 H966 0.961 . S
C951 H967 0.961 . S
C952 C953 1.370 . S
C952 C954 1.363 . S
C952 H968 0.931 . S
C953 C952 1.370 . S
C953 C957 1.408 . S
C954 C952 1.363 . S
C954 C955 1.370 . S
C954 C958 1.524 . S
C955 C947 1.503 . S
C955 C954 1.370 . S
C955 C956 1.403 . S
C956 C955 1.403 . S
C956 C957 1.404 . S
C956 C959 1.539 . S
C957 C953 1.408 . S
C957 C956 1.404 . S
C957 H969 0.930 . S
C958 C954 1.524 . S
C958 H970 0.956 . S
C958 H971 0.961 . S
C958 H972 0.961 . S
C959 C956 1.539 . S
C959 H973 0.958 . S
C959 H974 0.961 . S
C959 H975 0.960 . S
H960 C944 0.931 . S
H961 C949 0.929 . S
H962 C950 0.960 . S
H963 C950 0.962 . S
H964 C950 0.960 . S
H965 C951 0.961 . S
H966 C951 0.961 . S
H967 C951 0.961 . S
H968 C952 0.931 . S
H969 C957 0.930 . S
H970 C958 0.956 . S
H971 C958 0.961 . S
H972 C958 0.961 . S
H973 C959 0.958 . S
H974 C959 0.961 . S
H975 C959 0.960 . S
C976 C977 1.391 . S
C976 C978 1.394 . S
C976 H992 0.931 . S
C977 C976 1.391 . S
C977 C981 1.376 . S
C978 C976 1.394 . S
C978 C979 1.369 . S
C978 C982 1.531 . S
C979 C978 1.369 . S
C979 C980 1.410 . S
C979 C987 1.503 . S
C980 C979 1.410 . S
C980 C981 1.392 . S
C980 C983 1.511 . S
C981 C977 1.376 . S
C981 C980 1.392 . S
C981 H993 0.929 . S
C982 C978 1.531 . S
C982 H994 0.960 . S
C982 H995 0.962 . S
C982 H996 0.960 . S
C983 C980 1.511 . S
C983 H997 0.961 . S
C983 H998 0.961 . S
C983 H999 0.961 . S
C984 C985 1.370 . S
C984 C986 1.363 . S
C984 H1000 0.931 . S
C985 C984 1.370 . S
C985 C989 1.408 . S
C986 C984 1.363 . S
C986 C987 1.370 . S
C986 C990 1.524 . S
C987 C979 1.503 . S
C987 C986 1.370 . S
C987 C988 1.403 . S
C988 C987 1.403 . S
C988 C989 1.404 . S
C988 C991 1.539 . S
C989 C985 1.408 . S
C989 C988 1.404 . S
C989 H1001 0.930 . S
C990 C986 1.524 . S
C990 H1002 0.956 . S
C990 H1003 0.961 . S
C990 H1004 0.961 . S
C991 C988 1.539 . S
C991 H1005 0.958 . S
C991 H1006 0.961 . S
C991 H1007 0.960 . S
H992 C976 0.931 . S
H993 C981 0.929 . S
H994 C982 0.960 . S
H995 C982 0.962 . S
H996 C982 0.960 . S
H997 C983 0.961 . S
H998 C983 0.961 . S
H999 C983 0.961 . S
H1000 C984 0.931 . S
H1001 C989 0.930 . S
H1002 C990 0.956 . S
H1003 C990 0.961 . S
H1004 C990 0.961 . S
H1005 C991 0.958 . S
H1006 C991 0.961 . S
H1007 C991 0.960 . S
C1008 C1009 1.391 . S
C1008 C1010 1.394 . S
C1008 H1024 0.931 . S
C1009 C1008 1.391 . S
C1009 C1013 1.376 1_554 S
C1010 C1008 1.394 . S
C1010 C1011 1.369 . S
C1010 C1014 1.531 . S
C1011 C1010 1.369 . S
C1011 C1012 1.410 1_554 S
C1011 C1019 1.503 . S
C1012 C1011 1.410 1_556 S
C1012 C1013 1.392 . S
C1012 C1015 1.511 . S
C1013 C1009 1.376 1_556 S
C1013 C1012 1.392 . S
C1013 H1025 0.929 . S
C1014 C1010 1.531 . S
C1014 H1026 0.960 . S
C1014 H1027 0.962 . S
C1014 H1028 0.960 . S
C1015 C1012 1.511 . S
C1015 H1029 0.961 . S
C1015 H1030 0.961 . S
C1015 H1031 0.961 . S
C1016 C1017 1.370 . S
C1016 C1018 1.363 . S
C1016 H1032 0.931 . S
C1017 C1016 1.370 . S
C1017 C1021 1.408 . S
C1018 C1016 1.363 . S
C1018 C1019 1.370 . S
C1018 C1022 1.524 1_554 S
C1019 C1011 1.503 . S
C1019 C1018 1.370 . S
C1019 C1020 1.403 . S
C1020 C1019 1.403 . S
C1020 C1021 1.404 . S
C1020 C1023 1.539 . S
C1021 C1017 1.408 . S
C1021 C1020 1.404 . S
C1021 H1033 0.930 . S
C1022 C1018 1.524 1_556 S
C1022 H1034 0.956 1_556 S
C1022 H1035 0.961 . S
C1022 H1036 0.961 . S
C1023 C1020 1.539 . S
C1023 H1037 0.958 . S
C1023 H1038 0.961 . S
C1023 H1039 0.960 . S
H1024 C1008 0.931 . S
H1025 C1013 0.929 . S
H1026 C1014 0.960 . S
H1027 C1014 0.962 . S
H1028 C1014 0.960 . S
H1029 C1015 0.961 . S
H1030 C1015 0.961 . S
H1031 C1015 0.961 . S
H1032 C1016 0.931 . S
H1033 C1021 0.930 . S
H1034 C1022 0.956 1_554 S
H1035 C1022 0.961 . S
H1036 C1022 0.961 . S
H1037 C1023 0.958 . S
H1038 C1023 0.961 . S
H1039 C1023 0.960 . S
C1040 C1041 1.391 . S
C1040 C1042 1.394 . S
C1040 H1056 0.931 . S
C1041 C1040 1.391 . S
C1041 C1045 1.376 1_554 S
C1042 C1040 1.394 . S
C1042 C1043 1.369 . S
C1042 C1046 1.531 . S
C1043 C1042 1.369 . S
C1043 C1044 1.410 1_554 S
C1043 C1051 1.503 . S
C1044 C1043 1.410 1_556 S
C1044 C1045 1.392 . S
C1044 C1047 1.511 . S
C1045 C1041 1.376 1_556 S
C1045 C1044 1.392 . S
C1045 H1057 0.929 . S
C1046 C1042 1.531 . S
C1046 H1058 0.960 . S
C1046 H1059 0.962 . S
C1046 H1060 0.960 . S
C1047 C1044 1.511 . S
C1047 H1061 0.961 . S
C1047 H1062 0.961 . S
C1047 H1063 0.961 . S
C1048 C1049 1.370 . S
C1048 C1050 1.363 . S
C1048 H1064 0.931 . S
C1049 C1048 1.370 . S
C1049 C1053 1.408 1_554 S
C1050 C1048 1.363 . S
C1050 C1051 1.370 . S
C1050 C1054 1.524 . S
C1051 C1043 1.503 . S
C1051 C1050 1.370 . S
C1051 C1052 1.403 1_554 S
C1052 C1051 1.403 1_556 S
C1052 C1053 1.404 . S
C1052 C1055 1.539 . S
C1053 C1049 1.408 1_556 S
C1053 C1052 1.404 . S
C1053 H1065 0.930 . S
C1054 C1050 1.524 . S
C1054 H1066 0.956 . S
C1054 H1067 0.961 . S
C1054 H1068 0.961 . S
C1055 C1052 1.539 . S
C1055 H1069 0.958 . S
C1055 H1070 0.961 . S
C1055 H1071 0.960 . S
H1056 C1040 0.931 . S
H1057 C1045 0.929 . S
H1058 C1046 0.960 . S
H1059 C1046 0.962 . S
H1060 C1046 0.960 . S
H1061 C1047 0.961 . S
H1062 C1047 0.961 . S
H1063 C1047 0.961 . S
H1064 C1048 0.931 . S
H1065 C1053 0.930 . S
H1066 C1054 0.956 . S
H1067 C1054 0.961 . S
H1068 C1054 0.961 . S
H1069 C1055 0.958 . S
H1070 C1055 0.961 . S
H1071 C1055 0.960 . S
C1072 C1073 1.391 1_556 S
C1072 C1074 1.394 . S
C1072 H1088 0.931 . S
C1073 C1072 1.391 1_554 S
C1073 C1077 1.376 . S
C1074 C1072 1.394 . S
C1074 C1075 1.369 1_556 S
C1074 C1078 1.531 . S
C1075 C1074 1.369 1_554 S
C1075 C1076 1.410 . S
C1075 C1083 1.503 . S
C1076 C1075 1.410 . S
C1076 C1077 1.392 . S
C1076 C1079 1.511 . S
C1077 C1073 1.376 . S
C1077 C1076 1.392 . S
C1077 H1089 0.929 . S
C1078 C1074 1.531 . S
C1078 H1090 0.960 . S
C1078 H1091 0.962 . S
C1078 H1092 0.960 . S
C1079 C1076 1.511 . S
C1079 H1093 0.961 . S
C1079 H1094 0.961 . S
C1079 H1095 0.961 . S
C1080 C1081 1.370 . S
C1080 C1082 1.363 . S
C1080 H1096 0.931 . S
C1081 C1080 1.370 . S
C1081 C1085 1.408 1_554 S
C1082 C1080 1.363 . S
C1082 C1083 1.370 . S
C1082 C1086 1.524 . S
C1083 C1075 1.503 . S
C1083 C1082 1.370 . S
C1083 C1084 1.403 1_554 S
C1084 C1083 1.403 1_556 S
C1084 C1085 1.404 . S
C1084 C1087 1.539 . S
C1085 C1081 1.408 1_556 S
C1085 C1084 1.404 . S
C1085 H1097 0.930 . S
C1086 C1082 1.524 . S
C1086 H1098 0.956 . S
C1086 H1099 0.961 . S
C1086 H1100 0.961 . S
C1087 C1084 1.539 . S
C1087 H1101 0.958 . S
C1087 H1102 0.961 . S
C1087 H1103 0.960 . S
H1088 C1072 0.931 . S
H1089 C1077 0.929 . S
H1090 C1078 0.960 . S
H1091 C1078 0.962 . S
H1092 C1078 0.960 . S
H1093 C1079 0.961 . S
H1094 C1079 0.961 . S
H1095 C1079 0.961 . S
H1096 C1080 0.931 . S
H1097 C1085 0.930 . S
H1098 C1086 0.956 . S
H1099 C1086 0.961 . S
H1100 C1086 0.961 . S
H1101 C1087 0.958 . S
H1102 C1087 0.961 . S
H1103 C1087 0.960 . S
C1104 C1105 1.391 . S
C1104 C1106 1.394 . S
C1104 H1120 0.931 . S
C1105 C1104 1.391 . S
C1105 C1109 1.376 . S
C1106 C1104 1.394 . S
C1106 C1107 1.369 . S
C1106 C1110 1.531 . S
C1107 C1106 1.369 . S
C1107 C1108 1.410 . S
C1107 C1115 1.503 . S
C1108 C1107 1.410 . S
C1108 C1109 1.392 . S
C1108 C1111 1.511 . S
C1109 C1105 1.376 . S
C1109 C1108 1.392 . S
C1109 H1121 0.929 . S
C1110 C1106 1.531 . S
C1110 H1122 0.960 . S
C1110 H1123 0.962 . S
C1110 H1124 0.960 . S
C1111 C1108 1.511 . S
C1111 H1125 0.961 . S
C1111 H1126 0.961 . S
C1111 H1127 0.961 . S
C1112 C1113 1.370 . S
C1112 C1114 1.363 . S
C1112 H1128 0.931 . S
C1113 C1112 1.370 . S
C1113 C1117 1.408 . S
C1114 C1112 1.363 . S
C1114 C1115 1.370 . S
C1114 C1118 1.524 . S
C1115 C1107 1.503 . S
C1115 C1114 1.370 . S
C1115 C1116 1.403 . S
C1116 C1115 1.403 . S
C1116 C1117 1.404 . S
C1116 C1119 1.539 . S
C1117 C1113 1.408 . S
C1117 C1116 1.404 . S
C1117 H1129 0.930 . S
C1118 C1114 1.524 . S
C1118 H1130 0.956 . S
C1118 H1131 0.961 . S
C1118 H1132 0.961 . S
C1119 C1116 1.539 . S
C1119 H1133 0.958 . S
C1119 H1134 0.961 . S
C1119 H1135 0.960 . S
H1120 C1104 0.931 . S
H1121 C1109 0.929 . S
H1122 C1110 0.960 . S
H1123 C1110 0.962 . S
H1124 C1110 0.960 . S
H1125 C1111 0.961 . S
H1126 C1111 0.961 . S
H1127 C1111 0.961 . S
H1128 C1112 0.931 . S
H1129 C1117 0.930 . S
H1130 C1118 0.956 . S
H1131 C1118 0.961 . S
H1132 C1118 0.961 . S
H1133 C1119 0.958 . S
H1134 C1119 0.961 . S
H1135 C1119 0.960 . S
C1136 C1137 1.391 . S
C1136 C1138 1.394 . S
C1136 H1152 0.931 . S
C1137 C1136 1.391 . S
C1137 C1141 1.376 . S
C1138 C1136 1.394 . S
C1138 C1139 1.369 . S
C1138 C1142 1.531 . S
C1139 C1138 1.369 . S
C1139 C1140 1.410 . S
C1139 C1147 1.503 . S
C1140 C1139 1.410 . S
C1140 C1141 1.392 . S
C1140 C1143 1.511 . S
C1141 C1137 1.376 . S
C1141 C1140 1.392 . S
C1141 H1153 0.929 . S
C1142 C1138 1.531 . S
C1142 H1154 0.960 . S
C1142 H1155 0.962 . S
C1142 H1156 0.960 . S
C1143 C1140 1.511 . S
C1143 H1157 0.961 . S
C1143 H1158 0.961 . S
C1143 H1159 0.961 . S
C1144 C1145 1.370 . S
C1144 C1146 1.363 . S
C1144 H1160 0.931 . S
C1145 C1144 1.370 . S
C1145 C1149 1.408 . S
C1146 C1144 1.363 . S
C1146 C1147 1.370 . S
C1146 C1150 1.524 . S
C1147 C1139 1.503 . S
C1147 C1146 1.370 . S
C1147 C1148 1.403 . S
C1148 C1147 1.403 . S
C1148 C1149 1.404 . S
C1148 C1151 1.539 . S
C1149 C1145 1.408 . S
C1149 C1148 1.404 . S
C1149 H1161 0.930 . S
C1150 C1146 1.524 . S
C1150 H1162 0.956 . S
C1150 H1163 0.961 . S
C1150 H1164 0.961 . S
C1151 C1148 1.539 . S
C1151 H1165 0.958 . S
C1151 H1166 0.961 . S
C1151 H1167 0.960 . S
H1152 C1136 0.931 . S
H1153 C1141 0.929 . S
H1154 C1142 0.960 . S
H1155 C1142 0.962 . S
H1156 C1142 0.960 . S
H1157 C1143 0.961 . S
H1158 C1143 0.961 . S
H1159 C1143 0.961 . S
H1160 C1144 0.931 . S
H1161 C1149 0.930 . S
H1162 C1150 0.956 . S
H1163 C1150 0.961 . S
H1164 C1150 0.961 . S
H1165 C1151 0.958 . S
H1166 C1151 0.961 . S
H1167 C1151 0.960 . S
C1168 C1169 1.391 . S
C1168 C1170 1.394 . S
C1168 H1184 0.931 . S
C1169 C1168 1.391 . S
C1169 C1173 1.376 . S
C1170 C1168 1.394 . S
C1170 C1171 1.369 . S
C1170 C1174 1.531 1_545 S
C1171 C1170 1.369 . S
C1171 C1172 1.410 . S
C1171 C1179 1.503 1_545 S
C1172 C1171 1.410 . S
C1172 C1173 1.392 . S
C1172 C1175 1.511 . S
C1173 C1169 1.376 . S
C1173 C1172 1.392 . S
C1173 H1185 0.929 . S
C1174 C1170 1.531 1_565 S
C1174 H1186 0.960 . S
C1174 H1187 0.962 . S
C1174 H1188 0.963 1_565 S
C1175 C1172 1.511 . S
C1175 H1189 0.961 . S
C1175 H1190 0.961 1_545 S
C1175 H1191 0.961 . S
C1176 C1177 1.370 . S
C1176 C1178 1.363 . S
C1176 H1192 0.931 . S
C1177 C1176 1.370 . S
C1177 C1181 1.408 . S
C1178 C1176 1.363 . S
C1178 C1179 1.370 . S
C1178 C1182 1.524 . S
C1179 C1171 1.503 1_565 S
C1179 C1178 1.370 . S
C1179 C1180 1.403 . S
C1180 C1179 1.403 . S
C1180 C1181 1.404 . S
C1180 C1183 1.539 . S
C1181 C1177 1.408 . S
C1181 C1180 1.404 . S
C1181 H1193 0.930 . S
C1182 C1178 1.524 . S
C1182 H1194 0.956 . S
C1182 H1195 0.961 . S
C1182 H1196 0.961 . S
C1183 C1180 1.539 . S
C1183 H1197 0.958 . S
C1183 H1198 0.961 . S
C1183 H1199 0.960 . S
H1184 C1168 0.931 . S
H1185 C1173 0.929 . S
H1186 C1174 0.960 . S
H1187 C1174 0.962 . S
H1188 C1174 0.963 1_545 S
H1189 C1175 0.961 . S
H1190 C1175 0.961 1_565 S
H1191 C1175 0.961 . S
H1192 C1176 0.931 . S
H1193 C1181 0.930 . S
H1194 C1182 0.956 . S
H1195 C1182 0.961 . S
H1196 C1182 0.961 . S
H1197 C1183 0.958 . S
H1198 C1183 0.961 . S
H1199 C1183 0.960 . S
C1200 C1201 1.391 . S
C1200 C1202 1.394 . S
C1200 H1216 0.931 . S
C1201 C1200 1.391 . S
C1201 C1205 1.376 . S
C1202 C1200 1.394 . S
C1202 C1203 1.369 . S
C1202 C1206 1.531 . S
C1203 C1202 1.369 . S
C1203 C1204 1.410 . S
C1203 C1211 1.503 . S
C1204 C1203 1.410 . S
C1204 C1205 1.392 . S
C1204 C1207 1.511 . S
C1205 C1201 1.376 . S
C1205 C1204 1.392 . S
C1205 H1217 0.929 . S
C1206 C1202 1.531 . S
C1206 H1218 0.960 . S
C1206 H1219 0.962 . S
C1206 H1220 0.960 . S
C1207 C1204 1.511 . S
C1207 H1221 0.961 . S
C1207 H1222 0.961 . S
C1207 H1223 0.961 . S
C1208 C1209 1.370 . S
C1208 C1210 1.363 . S
C1208 H1224 0.931 . S
C1209 C1208 1.370 . S
C1209 C1213 1.408 . S
C1210 C1208 1.363 . S
C1210 C1211 1.370 . S
C1210 C1214 1.524 . S
C1211 C1203 1.503 . S
C1211 C1210 1.370 . S
C1211 C1212 1.403 . S
C1212 C1211 1.403 . S
C1212 C1213 1.404 . S
C1212 C1215 1.539 . S
C1213 C1209 1.408 . S
C1213 C1212 1.404 . S
C1213 H1225 0.930 . S
C1214 C1210 1.524 . S
C1214 H1226 0.956 . S
C1214 H1227 0.961 . S
C1214 H1228 0.961 . S
C1215 C1212 1.539 . S
C1215 H1229 0.958 . S
C1215 H1230 0.961 . S
C1215 H1231 0.960 . S
H1216 C1200 0.931 . S
H1217 C1205 0.929 . S
H1218 C1206 0.960 . S
H1219 C1206 0.962 . S
H1220 C1206 0.960 . S
H1221 C1207 0.961 . S
H1222 C1207 0.961 . S
H1223 C1207 0.961 . S
H1224 C1208 0.931 . S
H1225 C1213 0.930 . S
H1226 C1214 0.956 . S
H1227 C1214 0.961 . S
H1228 C1214 0.961 . S
H1229 C1215 0.958 . S
H1230 C1215 0.961 . S
H1231 C1215 0.960 . S
C1232 C1233 1.391 . S
C1232 C1234 1.394 . S
C1232 H1248 0.931 . S
C1233 C1232 1.391 . S
C1233 C1237 1.376 . S
C1234 C1232 1.394 . S
C1234 C1235 1.369 1_455 S
C1234 C1238 1.531 . S
C1235 C1234 1.369 1_655 S
C1235 C1236 1.410 1_655 S
C1235 C1243 1.503 . S
C1236 C1235 1.410 1_455 S
C1236 C1237 1.392 . S
C1236 C1239 1.511 1_455 S
C1237 C1233 1.376 . S
C1237 C1236 1.392 . S
C1237 H1249 0.929 . S
C1238 C1234 1.531 . S
C1238 H1250 0.960 1_455 S
C1238 H1251 0.962 . S
C1238 H1252 0.960 . S
C1239 C1236 1.511 1_655 S
C1239 H1253 0.963 . S
C1239 H1254 0.961 . S
C1239 H1255 0.961 . S
C1240 C1241 1.370 . S
C1240 C1242 1.363 . S
C1240 H1256 0.931 . S
C1241 C1240 1.370 . S
C1241 C1245 1.408 . S
C1242 C1240 1.363 . S
C1242 C1243 1.370 . S
C1242 C1246 1.524 . S
C1243 C1235 1.503 . S
C1243 C1242 1.370 . S
C1243 C1244 1.403 . S
C1244 C1243 1.403 . S
C1244 C1245 1.404 . S
C1244 C1247 1.539 . S
C1245 C1241 1.408 . S
C1245 C1244 1.404 . S
C1245 H1257 0.930 . S
C1246 C1242 1.524 . S
C1246 H1258 0.956 . S
C1246 H1259 0.961 . S
C1246 H1260 0.961 . S
C1247 C1244 1.539 . S
C1247 H1261 0.958 . S
C1247 H1262 0.961 . S
C1247 H1263 0.960 . S
H1248 C1232 0.931 . S
H1249 C1237 0.929 . S
H1250 C1238 0.960 1_655 S
H1251 C1238 0.962 . S
H1252 C1238 0.960 . S
H1253 C1239 0.963 . S
H1254 C1239 0.961 . S
H1255 C1239 0.961 . S
H1256 C1240 0.931 . S
H1257 C1245 0.930 . S
H1258 C1246 0.956 . S
H1259 C1246 0.961 . S
H1260 C1246 0.961 . S
H1261 C1247 0.958 . S
H1262 C1247 0.961 . S
H1263 C1247 0.960 . S
C1264 C1265 1.391 . S
C1264 C1266 1.394 . S
C1264 H1280 0.931 . S
C1265 C1264 1.391 . S
C1265 C1269 1.376 . S
C1266 C1264 1.394 . S
C1266 C1267 1.369 . S
C1266 C1270 1.531 . S
C1267 C1266 1.369 . S
C1267 C1268 1.410 . S
C1267 C1275 1.503 . S
C1268 C1267 1.410 . S
C1268 C1269 1.392 . S
C1268 C1271 1.511 . S
C1269 C1265 1.376 . S
C1269 C1268 1.392 . S
C1269 H1281 0.929 . S
C1270 C1266 1.531 . S
C1270 H1282 0.960 . S
C1270 H1283 0.962 . S
C1270 H1284 0.960 . S
C1271 C1268 1.511 . S
C1271 H1285 0.961 . S
C1271 H1286 0.961 . S
C1271 H1287 0.961 . S
C1272 C1273 1.370 . S
C1272 C1274 1.363 . S
C1272 H1288 0.931 . S
C1273 C1272 1.370 . S
C1273 C1277 1.408 . S
C1274 C1272 1.363 . S
C1274 C1275 1.370 . S
C1274 C1278 1.524 . S
C1275 C1267 1.503 . S
C1275 C1274 1.370 . S
C1275 C1276 1.403 . S
C1276 C1275 1.403 . S
C1276 C1277 1.404 . S
C1276 C1279 1.539 . S
C1277 C1273 1.408 . S
C1277 C1276 1.404 . S
C1277 H1289 0.930 . S
C1278 C1274 1.524 . S
C1278 H1290 0.956 . S
C1278 H1291 0.961 . S
C1278 H1292 0.961 . S
C1279 C1276 1.539 . S
C1279 H1293 0.958 . S
C1279 H1294 0.961 . S
C1279 H1295 0.960 . S
H1280 C1264 0.931 . S
H1281 C1269 0.929 . S
H1282 C1270 0.960 . S
H1283 C1270 0.962 . S
H1284 C1270 0.960 . S
H1285 C1271 0.961 . S
H1286 C1271 0.961 . S
H1287 C1271 0.961 . S
H1288 C1272 0.931 . S
H1289 C1277 0.930 . S
H1290 C1278 0.956 . S
H1291 C1278 0.961 . S
H1292 C1278 0.961 . S
H1293 C1279 0.958 . S
H1294 C1279 0.961 . S
H1295 C1279 0.960 . S
C1296 C1297 1.391 . S
C1296 C1298 1.394 . S
C1296 H1312 0.931 . S
C1297 C1296 1.391 . S
C1297 C1301 1.376 . S
C1298 C1296 1.394 . S
C1298 C1299 1.369 . S
C1298 C1302 1.531 . S
C1299 C1298 1.369 . S
C1299 C1300 1.410 . S
C1299 C1307 1.503 . S
C1300 C1299 1.410 . S
C1300 C1301 1.392 . S
C1300 C1303 1.511 . S
C1301 C1297 1.376 . S
C1301 C1300 1.392 . S
C1301 H1313 0.929 . S
C1302 C1298 1.531 . S
C1302 H1314 0.960 . S
C1302 H1315 0.962 . S
C1302 H1316 0.960 . S
C1303 C1300 1.511 . S
C1303 H1317 0.961 . S
C1303 H1318 0.961 . S
C1303 H1319 0.961 . S
C1304 C1305 1.370 . S
C1304 C1306 1.363 . S
C1304 H1320 0.931 . S
C1305 C1304 1.370 . S
C1305 C1309 1.408 . S
C1306 C1304 1.363 . S
C1306 C1307 1.370 . S
C1306 C1310 1.524 . S
C1307 C1299 1.503 . S
C1307 C1306 1.370 . S
C1307 C1308 1.403 . S
C1308 C1307 1.403 . S
C1308 C1309 1.404 . S
C1308 C1311 1.539 . S
C1309 C1305 1.408 . S
C1309 C1308 1.404 . S
C1309 H1321 0.930 . S
C1310 C1306 1.524 . S
C1310 H1322 0.956 . S
C1310 H1323 0.961 . S
C1310 H1324 0.961 . S
C1311 C1308 1.539 . S
C1311 H1325 0.958 . S
C1311 H1326 0.961 . S
C1311 H1327 0.960 . S
H1312 C1296 0.931 . S
H1313 C1301 0.929 . S
H1314 C1302 0.960 . S
H1315 C1302 0.962 . S
H1316 C1302 0.960 . S
H1317 C1303 0.961 . S
H1318 C1303 0.961 . S
H1319 C1303 0.961 . S
H1320 C1304 0.931 . S
H1321 C1309 0.930 . S
H1322 C1310 0.956 . S
H1323 C1310 0.961 . S
H1324 C1310 0.961 . S
H1325 C1311 0.958 . S
H1326 C1311 0.961 . S
H1327 C1311 0.960 . S
C1328 C1329 1.391 . S
C1328 C1330 1.394 . S
C1328 H1344 0.931 . S
C1329 C1328 1.391 . S
C1329 C1333 1.376 . S
C1330 C1328 1.394 . S
C1330 C1331 1.369 . S
C1330 C1334 1.531 . S
C1331 C1330 1.369 . S
C1331 C1332 1.410 . S
C1331 C1339 1.503 . S
C1332 C1331 1.410 . S
C1332 C1333 1.392 . S
C1332 C1335 1.511 . S
C1333 C1329 1.376 . S
C1333 C1332 1.392 . S
C1333 H1345 0.929 . S
C1334 C1330 1.531 . S
C1334 H1346 0.960 . S
C1334 H1347 0.962 . S
C1334 H1348 0.960 . S
C1335 C1332 1.511 . S
C1335 H1349 0.961 . S
C1335 H1350 0.961 . S
C1335 H1351 0.961 . S
C1336 C1337 1.370 . S
C1336 C1338 1.363 . S
C1336 H1352 0.931 . S
C1337 C1336 1.370 . S
C1337 C1341 1.408 . S
C1338 C1336 1.363 . S
C1338 C1339 1.370 . S
C1338 C1342 1.524 . S
C1339 C1331 1.503 . S
C1339 C1338 1.370 . S
C1339 C1340 1.403 . S
C1340 C1339 1.403 . S
C1340 C1341 1.404 . S
C1340 C1343 1.539 . S
C1341 C1337 1.408 . S
C1341 C1340 1.404 . S
C1341 H1353 0.930 . S
C1342 C1338 1.524 . S
C1342 H1354 0.956 . S
C1342 H1355 0.961 . S
C1342 H1356 0.961 . S
C1343 C1340 1.539 . S
C1343 H1357 0.958 . S
C1343 H1358 0.961 . S
C1343 H1359 0.960 . S
H1344 C1328 0.931 . S
H1345 C1333 0.929 . S
H1346 C1334 0.960 . S
H1347 C1334 0.962 . S
H1348 C1334 0.960 . S
H1349 C1335 0.961 . S
H1350 C1335 0.961 . S
H1351 C1335 0.961 . S
H1352 C1336 0.931 . S
H1353 C1341 0.930 . S
H1354 C1342 0.956 . S
H1355 C1342 0.961 . S
H1356 C1342 0.961 . S
H1357 C1343 0.958 . S
H1358 C1343 0.961 . S
H1359 C1343 0.960 . S
C1360 C1361 1.391 . S
C1360 C1362 1.394 . S
C1360 H1376 0.931 . S
C1361 C1360 1.391 . S
C1361 C1365 1.376 . S
C1362 C1360 1.394 . S
C1362 C1363 1.369 . S
C1362 C1366 1.531 . S
C1363 C1362 1.369 . S
C1363 C1364 1.410 . S
C1363 C1371 1.503 . S
C1364 C1363 1.410 . S
C1364 C1365 1.392 . S
C1364 C1367 1.511 . S
C1365 C1361 1.376 . S
C1365 C1364 1.392 . S
C1365 H1377 0.929 . S
C1366 C1362 1.531 . S
C1366 H1378 0.960 . S
C1366 H1379 0.962 . S
C1366 H1380 0.960 . S
C1367 C1364 1.511 . S
C1367 H1381 0.961 . S
C1367 H1382 0.961 . S
C1367 H1383 0.961 . S
C1368 C1369 1.370 . S
C1368 C1370 1.363 . S
C1368 H1384 0.931 . S
C1369 C1368 1.370 . S
C1369 C1373 1.408 . S
C1370 C1368 1.363 . S
C1370 C1371 1.370 . S
C1370 C1374 1.524 . S
C1371 C1363 1.503 . S
C1371 C1370 1.370 . S
C1371 C1372 1.403 . S
C1372 C1371 1.403 . S
C1372 C1373 1.404 . S
C1372 C1375 1.539 . S
C1373 C1369 1.408 . S
C1373 C1372 1.404 . S
C1373 H1385 0.930 . S
C1374 C1370 1.524 . S
C1374 H1386 0.956 . S
C1374 H1387 0.961 . S
C1374 H1388 0.961 . S
C1375 C1372 1.539 . S
C1375 H1389 0.958 . S
C1375 H1390 0.961 . S
C1375 H1391 0.960 . S
H1376 C1360 0.931 . S
H1377 C1365 0.929 . S
H1378 C1366 0.960 . S
H1379 C1366 0.962 . S
H1380 C1366 0.960 . S
H1381 C1367 0.961 . S
H1382 C1367 0.961 . S
H1383 C1367 0.961 . S
H1384 C1368 0.931 . S
H1385 C1373 0.930 . S
H1386 C1374 0.956 . S
H1387 C1374 0.961 . S
H1388 C1374 0.961 . S
H1389 C1375 0.958 . S
H1390 C1375 0.961 . S
H1391 C1375 0.960 . S
C1392 C1393 1.391 . S
C1392 C1394 1.394 . S
C1392 H1408 0.931 . S
C1393 C1392 1.391 . S
C1393 C1397 1.376 . S
C1394 C1392 1.394 . S
C1394 C1395 1.369 . S
C1394 C1398 1.531 . S
C1395 C1394 1.369 . S
C1395 C1396 1.410 . S
C1395 C1403 1.503 . S
C1396 C1395 1.410 . S
C1396 C1397 1.392 . S
C1396 C1399 1.511 . S
C1397 C1393 1.376 . S
C1397 C1396 1.392 . S
C1397 H1409 0.929 . S
C1398 C1394 1.531 . S
C1398 H1410 0.960 . S
C1398 H1411 0.962 . S
C1398 H1412 0.960 . S
C1399 C1396 1.511 . S
C1399 H1413 0.961 . S
C1399 H1414 0.961 . S
C1399 H1415 0.961 . S
C1400 C1401 1.370 . S
C1400 C1402 1.363 . S
C1400 H1416 0.931 . S
C1401 C1400 1.370 . S
C1401 C1405 1.408 . S
C1402 C1400 1.363 . S
C1402 C1403 1.370 . S
C1402 C1406 1.524 . S
C1403 C1395 1.503 . S
C1403 C1402 1.370 . S
C1403 C1404 1.403 . S
C1404 C1403 1.403 . S
C1404 C1405 1.404 . S
C1404 C1407 1.539 . S
C1405 C1401 1.408 . S
C1405 C1404 1.404 . S
C1405 H1417 0.930 . S
C1406 C1402 1.524 . S
C1406 H1418 0.956 . S
C1406 H1419 0.961 . S
C1406 H1420 0.961 . S
C1407 C1404 1.539 . S
C1407 H1421 0.958 . S
C1407 H1422 0.961 . S
C1407 H1423 0.960 . S
H1408 C1392 0.931 . S
H1409 C1397 0.929 . S
H1410 C1398 0.960 . S
H1411 C1398 0.962 . S
H1412 C1398 0.960 . S
H1413 C1399 0.961 . S
H1414 C1399 0.961 . S
H1415 C1399 0.961 . S
H1416 C1400 0.931 . S
H1417 C1405 0.930 . S
H1418 C1406 0.956 . S
H1419 C1406 0.961 . S
H1420 C1406 0.961 . S
H1421 C1407 0.958 . S
H1422 C1407 0.961 . S
H1423 C1407 0.960 . S
C1424 C1425 1.391 . S
C1424 C1426 1.394 . S
C1424 H1440 0.931 . S
C1425 C1424 1.391 . S
C1425 C1429 1.376 . S
C1426 C1424 1.394 . S
C1426 C1427 1.369 . S
C1426 C1430 1.531 . S
C1427 C1426 1.369 . S
C1427 C1428 1.410 . S
C1427 C1435 1.503 . S
C1428 C1427 1.410 . S
C1428 C1429 1.392 . S
C1428 C1431 1.511 . S
C1429 C1425 1.376 . S
C1429 C1428 1.392 . S
C1429 H1441 0.929 . S
C1430 C1426 1.531 . S
C1430 H1442 0.960 . S
C1430 H1443 0.962 . S
C1430 H1444 0.960 . S
C1431 C1428 1.511 . S
C1431 H1445 0.961 . S
C1431 H1446 0.961 . S
C1431 H1447 0.961 . S
C1432 C1433 1.370 . S
C1432 C1434 1.363 . S
C1432 H1448 0.931 . S
C1433 C1432 1.370 . S
C1433 C1437 1.408 . S
C1434 C1432 1.363 . S
C1434 C1435 1.370 . S
C1434 C1438 1.524 . S
C1435 C1427 1.503 . S
C1435 C1434 1.370 . S
C1435 C1436 1.403 . S
C1436 C1435 1.403 . S
C1436 C1437 1.404 . S
C1436 C1439 1.539 . S
C1437 C1433 1.408 . S
C1437 C1436 1.404 . S
C1437 H1449 0.930 . S
C1438 C1434 1.524 . S
C1438 H1450 0.956 . S
C1438 H1451 0.961 . S
C1438 H1452 0.961 . S
C1439 C1436 1.539 . S
C1439 H1453 0.958 . S
C1439 H1454 0.961 . S
C1439 H1455 0.960 . S
H1440 C1424 0.931 . S
H1441 C1429 0.929 . S
H1442 C1430 0.960 . S
H1443 C1430 0.962 . S
H1444 C1430 0.960 . S
H1445 C1431 0.961 . S
H1446 C1431 0.961 . S
H1447 C1431 0.961 . S
H1448 C1432 0.931 . S
H1449 C1437 0.930 . S
H1450 C1438 0.956 . S
H1451 C1438 0.961 . S
H1452 C1438 0.961 . S
H1453 C1439 0.958 . S
H1454 C1439 0.961 . S
H1455 C1439 0.960 . S
C1456 C1457 1.391 . S
C1456 C1458 1.394 . S
C1456 H1472 0.931 . S
C1457 C1456 1.391 . S
C1457 C1461 1.376 . S
C1458 C1456 1.394 . S
C1458 C1459 1.369 . S
C1458 C1462 1.531 . S
C1459 C1458 1.369 . S
C1459 C1460 1.410 . S
C1459 C1467 1.503 . S
C1460 C1459 1.410 . S
C1460 C1461 1.392 . S
C1460 C1463 1.511 . S
C1461 C1457 1.376 . S
C1461 C1460 1.392 . S
C1461 H1473 0.929 . S
C1462 C1458 1.531 . S
C1462 H1474 0.960 . S
C1462 H1475 0.962 . S
C1462 H1476 0.960 . S
C1463 C1460 1.511 . S
C1463 H1477 0.961 . S
C1463 H1478 0.961 . S
C1463 H1479 0.961 . S
C1464 C1465 1.370 . S
C1464 C1466 1.363 . S
C1464 H1480 0.931 . S
C1465 C1464 1.370 . S
C1465 C1469 1.408 . S
C1466 C1464 1.363 . S
C1466 C1467 1.370 . S
C1466 C1470 1.524 . S
C1467 C1459 1.503 . S
C1467 C1466 1.370 . S
C1467 C1468 1.403 . S
C1468 C1467 1.403 . S
C1468 C1469 1.404 . S
C1468 C1471 1.539 . S
C1469 C1465 1.408 . S
C1469 C1468 1.404 . S
C1469 H1481 0.930 . S
C1470 C1466 1.524 . S
C1470 H1482 0.956 . S
C1470 H1483 0.961 . S
C1470 H1484 0.961 . S
C1471 C1468 1.539 . S
C1471 H1485 0.958 . S
C1471 H1486 0.961 . S
C1471 H1487 0.960 . S
H1472 C1456 0.931 . S
H1473 C1461 0.929 . S
H1474 C1462 0.960 . S
H1475 C1462 0.962 . S
H1476 C1462 0.960 . S
H1477 C1463 0.961 . S
H1478 C1463 0.961 . S
H1479 C1463 0.961 . S
H1480 C1464 0.931 . S
H1481 C1469 0.930 . S
H1482 C1470 0.956 . S
H1483 C1470 0.961 . S
H1484 C1470 0.961 . S
H1485 C1471 0.958 . S
H1486 C1471 0.961 . S
H1487 C1471 0.960 . S
C1488 C1489 1.391 . S
C1488 C1490 1.394 . S
C1488 H1504 0.931 . S
C1489 C1488 1.391 . S
C1489 C1493 1.376 . S
C1490 C1488 1.394 . S
C1490 C1491 1.369 . S
C1490 C1494 1.531 . S
C1491 C1490 1.369 . S
C1491 C1492 1.410 . S
C1491 C1499 1.503 . S
C1492 C1491 1.410 . S
C1492 C1493 1.392 . S
C1492 C1495 1.511 . S
C1493 C1489 1.376 . S
C1493 C1492 1.392 . S
C1493 H1505 0.929 . S
C1494 C1490 1.531 . S
C1494 H1506 0.960 . S
C1494 H1507 0.962 . S
C1494 H1508 0.960 . S
C1495 C1492 1.511 . S
C1495 H1509 0.961 . S
C1495 H1510 0.961 . S
C1495 H1511 0.961 . S
C1496 C1497 1.370 . S
C1496 C1498 1.363 . S
C1496 H1512 0.931 . S
C1497 C1496 1.370 . S
C1497 C1501 1.408 . S
C1498 C1496 1.363 . S
C1498 C1499 1.370 . S
C1498 C1502 1.524 . S
C1499 C1491 1.503 . S
C1499 C1498 1.370 . S
C1499 C1500 1.403 . S
C1500 C1499 1.403 . S
C1500 C1501 1.404 . S
C1500 C1503 1.539 . S
C1501 C1497 1.408 . S
C1501 C1500 1.404 . S
C1501 H1513 0.930 . S
C1502 C1498 1.524 . S
C1502 H1514 0.956 . S
C1502 H1515 0.961 . S
C1502 H1516 0.961 . S
C1503 C1500 1.539 . S
C1503 H1517 0.958 . S
C1503 H1518 0.961 . S
C1503 H1519 0.960 . S
H1504 C1488 0.931 . S
H1505 C1493 0.929 . S
H1506 C1494 0.960 . S
H1507 C1494 0.962 . S
H1508 C1494 0.960 . S
H1509 C1495 0.961 . S
H1510 C1495 0.961 . S
H1511 C1495 0.961 . S
H1512 C1496 0.931 . S
H1513 C1501 0.930 . S
H1514 C1502 0.956 . S
H1515 C1502 0.961 . S
H1516 C1502 0.961 . S
H1517 C1503 0.958 . S
H1518 C1503 0.961 . S
H1519 C1503 0.960 . S
C1520 C1521 1.391 . S
C1520 C1522 1.394 . S
C1520 H1536 0.931 . S
C1521 C1520 1.391 . S
C1521 C1525 1.376 . S
C1522 C1520 1.394 . S
C1522 C1523 1.369 . S
C1522 C1526 1.531 . S
C1523 C1522 1.369 . S
C1523 C1524 1.410 . S
C1523 C1531 1.503 . S
C1524 C1523 1.410 . S
C1524 C1525 1.392 . S
C1524 C1527 1.511 . S
C1525 C1521 1.376 . S
C1525 C1524 1.392 . S
C1525 H1537 0.929 . S
C1526 C1522 1.531 . S
C1526 H1538 0.960 . S
C1526 H1539 0.962 . S
C1526 H1540 0.960 . S
C1527 C1524 1.511 . S
C1527 H1541 0.961 . S
C1527 H1542 0.961 . S
C1527 H1543 0.961 . S
C1528 C1529 1.370 . S
C1528 C1530 1.363 . S
C1528 H1544 0.931 . S
C1529 C1528 1.370 . S
C1529 C1533 1.408 . S
C1530 C1528 1.363 . S
C1530 C1531 1.370 . S
C1530 C1534 1.524 . S
C1531 C1523 1.503 . S
C1531 C1530 1.370 . S
C1531 C1532 1.403 . S
C1532 C1531 1.403 . S
C1532 C1533 1.404 . S
C1532 C1535 1.539 . S
C1533 C1529 1.408 . S
C1533 C1532 1.404 . S
C1533 H1545 0.930 . S
C1534 C1530 1.524 . S
C1534 H1546 0.956 . S
C1534 H1547 0.961 . S
C1534 H1548 0.961 . S
C1535 C1532 1.539 . S
C1535 H1549 0.958 . S
C1535 H1550 0.961 . S
C1535 H1551 0.960 . S
H1536 C1520 0.931 . S
H1537 C1525 0.929 . S
H1538 C1526 0.960 . S
H1539 C1526 0.962 . S
H1540 C1526 0.960 . S
H1541 C1527 0.961 . S
H1542 C1527 0.961 . S
H1543 C1527 0.961 . S
H1544 C1528 0.931 . S
H1545 C1533 0.930 . S
H1546 C1534 0.956 . S
H1547 C1534 0.961 . S
H1548 C1534 0.961 . S
H1549 C1535 0.958 . S
H1550 C1535 0.961 . S
H1551 C1535 0.960 . S
C1552 C1553 1.391 . S
C1552 C1554 1.394 . S
C1552 H1568 0.931 . S
C1553 C1552 1.391 . S
C1553 C1557 1.376 . S
C1554 C1552 1.394 . S
C1554 C1555 1.369 . S
C1554 C1558 1.531 . S
C1555 C1554 1.369 . S
C1555 C1556 1.410 . S
C1555 C1563 1.503 . S
C1556 C1555 1.410 . S
C1556 C1557 1.392 . S
C1556 C1559 1.511 . S
C1557 C1553 1.376 . S
C1557 C1556 1.392 . S
C1557 H1569 0.929 . S
C1558 C1554 1.531 . S
C1558 H1570 0.960 . S
C1558 H1571 0.962 . S
C1558 H1572 0.960 . S
C1559 C1556 1.511 . S
C1559 H1573 0.961 . S
C1559 H1574 0.961 . S
C1559 H1575 0.961 . S
C1560 C1561 1.370 . S
C1560 C1562 1.363 . S
C1560 H1576 0.931 . S
C1561 C1560 1.370 . S
C1561 C1565 1.408 . S
C1562 C1560 1.363 . S
C1562 C1563 1.370 . S
C1562 C1566 1.524 . S
C1563 C1555 1.503 . S
C1563 C1562 1.370 . S
C1563 C1564 1.403 . S
C1564 C1563 1.403 . S
C1564 C1565 1.404 . S
C1564 C1567 1.539 . S
C1565 C1561 1.408 . S
C1565 C1564 1.404 . S
C1565 H1577 0.930 . S
C1566 C1562 1.524 . S
C1566 H1578 0.956 . S
C1566 H1579 0.961 . S
C1566 H1580 0.961 . S
C1567 C1564 1.539 . S
C1567 H1581 0.958 . S
C1567 H1582 0.961 . S
C1567 H1583 0.960 . S
H1568 C1552 0.931 . S
H1569 C1557 0.929 . S
H1570 C1558 0.960 . S
H1571 C1558 0.962 . S
H1572 C1558 0.960 . S
H1573 C1559 0.961 . S
H1574 C1559 0.961 . S
H1575 C1559 0.961 . S
H1576 C1560 0.931 . S
H1577 C1565 0.930 . S
H1578 C1566 0.956 . S
H1579 C1566 0.961 . S
H1580 C1566 0.961 . S
H1581 C1567 0.958 . S
H1582 C1567 0.961 . S
H1583 C1567 0.960 . S
C1584 C1585 1.391 . S
C1584 C1586 1.394 . S
C1584 H1600 0.931 . S
C1585 C1584 1.391 . S
C1585 C1589 1.376 . S
C1586 C1584 1.394 . S
C1586 C1587 1.369 . S
C1586 C1590 1.531 . S
C1587 C1586 1.369 . S
C1587 C1588 1.410 . S
C1587 C1595 1.503 . S
C1588 C1587 1.410 . S
C1588 C1589 1.392 . S
C1588 C1591 1.511 1_556 S
C1589 C1585 1.376 . S
C1589 C1588 1.392 . S
C1589 H1601 0.929 . S
C1590 C1586 1.531 . S
C1590 H1602 0.960 . S
C1590 H1603 0.962 . S
C1590 H1604 0.960 . S
C1591 C1588 1.511 1_554 S
C1591 H1605 0.961 . S
C1591 H1606 0.961 . S
C1591 H1607 0.961 1_554 S
C1592 C1593 1.376 . S
C1592 C1594 1.363 . S
C1592 H1608 0.931 . S
C1593 C1592 1.376 . S
C1593 C1597 1.400 1_554 S
C1594 C1592 1.363 . S
C1594 C1595 1.370 1_554 S
C1594 C1598 1.524 . S
C1595 C1587 1.503 . S
C1595 C1594 1.370 1_556 S
C1595 C1596 1.403 . S
C1596 C1595 1.403 . S
C1596 C1597 1.404 . S
C1596 C1599 1.539 . S
C1597 C1593 1.400 1_556 S
C1597 C1596 1.404 . S
C1597 H1609 0.930 . S
C1598 C1594 1.524 . S
C1598 H1610 0.956 . S
C1598 H1611 0.961 . S
C1598 H1612 0.961 . S
C1599 C1596 1.539 . S
C1599 H1613 0.958 . S
C1599 H1614 0.961 . S
C1599 H1615 0.960 . S
H1600 C1584 0.931 . S
H1601 C1589 0.929 . S
H1602 C1590 0.960 . S
H1603 C1590 0.962 . S
H1604 C1590 0.960 . S
H1605 C1591 0.961 . S
H1606 C1591 0.961 . S
H1607 C1591 0.961 1_556 S
H1608 C1592 0.931 . S
H1609 C1597 0.930 . S
H1610 C1598 0.956 . S
H1611 C1598 0.961 . S
H1612 C1598 0.961 . S
H1613 C1599 0.958 . S
H1614 C1599 0.961 . S
H1615 C1599 0.960 . S
C1616 C1617 1.391 . S
C1616 C1618 1.394 . S
C1616 H1632 0.931 . S
C1617 C1616 1.391 . S
C1617 C1621 1.376 . S
C1618 C1616 1.394 . S
C1618 C1619 1.369 . S
C1618 C1622 1.531 . S
C1619 C1618 1.369 . S
C1619 C1620 1.410 . S
C1619 C1627 1.503 . S
C1620 C1619 1.410 . S
C1620 C1621 1.392 . S
C1620 C1623 1.511 . S
C1621 C1617 1.376 . S
C1621 C1620 1.392 . S
C1621 H1633 0.929 . S
C1622 C1618 1.531 . S
C1622 H1634 0.960 . S
C1622 H1635 0.962 1_556 S
C1622 H1636 0.960 . S
C1623 C1620 1.511 . S
C1623 H1637 0.961 . S
C1623 H1638 0.961 . S
C1623 H1639 0.961 . S
C1624 C1625 1.370 1_554 S
C1624 C1626 1.363 . S
C1624 H1640 0.931 . S
C1625 C1624 1.370 1_556 S
C1625 C1629 1.409 . S
C1626 C1624 1.363 . S
C1626 C1627 1.370 1_554 S
C1626 C1630 1.524 . S
C1627 C1619 1.503 . S
C1627 C1626 1.370 1_556 S
C1627 C1628 1.403 . S
C1628 C1627 1.403 . S
C1628 C1629 1.404 . S
C1628 C1631 1.539 . S
C1629 C1625 1.409 . S
C1629 C1628 1.404 . S
C1629 H1641 0.930 . S
C1630 C1626 1.524 . S
C1630 H1642 0.956 . S
C1630 H1643 0.961 . S
C1630 H1644 0.961 . S
C1631 C1628 1.539 . S
C1631 H1645 0.958 . S
C1631 H1646 0.961 . S
C1631 H1647 0.960 . S
H1632 C1616 0.931 . S
H1633 C1621 0.929 . S
H1634 C1622 0.960 . S
H1635 C1622 0.962 1_554 S
H1636 C1622 0.960 . S
H1637 C1623 0.961 . S
H1638 C1623 0.961 . S
H1639 C1623 0.961 . S
H1640 C1624 0.931 . S
H1641 C1629 0.930 . S
H1642 C1630 0.956 . S
H1643 C1630 0.961 . S
H1644 C1630 0.961 . S
H1645 C1631 0.958 . S
H1646 C1631 0.961 . S
H1647 C1631 0.960 . S
C1648 C1649 1.391 . S
C1648 C1650 1.394 . S
C1648 H1664 0.931 . S
C1649 C1648 1.391 . S
C1649 C1653 1.376 . S
C1650 C1648 1.394 . S
C1650 C1651 1.369 . S
C1650 C1654 1.531 . S
C1651 C1650 1.369 . S
C1651 C1652 1.410 . S
C1651 C1659 1.503 . S
C1652 C1651 1.410 . S
C1652 C1653 1.392 . S
C1652 C1655 1.511 1_556 S
C1653 C1649 1.376 . S
C1653 C1652 1.392 . S
C1653 H1665 0.929 1_556 S
C1654 C1650 1.531 . S
C1654 H1666 0.960 . S
C1654 H1667 0.962 . S
C1654 H1668 0.960 . S
C1655 C1652 1.511 1_554 S
C1655 H1669 0.961 . S
C1655 H1670 0.961 . S
C1655 H1671 0.961 . S
C1656 C1657 1.370 . S
C1656 C1658 1.363 . S
C1656 H1672 0.931 . S
C1657 C1656 1.370 . S
C1657 C1661 1.408 1_554 S
C1658 C1656 1.363 . S
C1658 C1659 1.370 1_554 S
C1658 C1662 1.524 . S
C1659 C1651 1.503 . S
C1659 C1658 1.370 1_556 S
C1659 C1660 1.403 . S
C1660 C1659 1.403 . S
C1660 C1661 1.404 . S
C1660 C1663 1.539 . S
C1661 C1657 1.408 1_556 S
C1661 C1660 1.404 . S
C1661 H1673 0.930 . S
C1662 C1658 1.524 . S
C1662 H1674 0.956 . S
C1662 H1675 0.961 . S
C1662 H1676 0.961 . S
C1663 C1660 1.539 . S
C1663 H1677 0.958 . S
C1663 H1678 0.961 . S
C1663 H1679 0.960 . S
H1664 C1648 0.931 . S
H1665 C1653 0.929 1_554 S
H1666 C1654 0.960 . S
H1667 C1654 0.962 . S
H1668 C1654 0.960 . S
H1669 C1655 0.961 . S
H1670 C1655 0.961 . S
H1671 C1655 0.961 . S
H1672 C1656 0.931 . S
H1673 C1661 0.930 . S
H1674 C1662 0.956 . S
H1675 C1662 0.961 . S
H1676 C1662 0.961 . S
H1677 C1663 0.958 . S
H1678 C1663 0.961 . S
H1679 C1663 0.960 . S
C1680 C1681 1.391 1_554 S
C1680 C1682 1.394 . S
C1680 H1696 0.931 . S
C1681 C1680 1.391 1_556 S
C1681 C1685 1.376 . S
C1682 C1680 1.394 . S
C1682 C1683 1.369 . S
C1682 C1686 1.531 . S
C1683 C1682 1.369 . S
C1683 C1684 1.410 1_554 S
C1683 C1691 1.503 . S
C1684 C1683 1.410 1_556 S
C1684 C1685 1.392 . S
C1684 C1687 1.511 . S
C1685 C1681 1.376 . S
C1685 C1684 1.392 . S
C1685 H1697 0.929 . S
C1686 C1682 1.531 . S
C1686 H1698 0.960 . S
C1686 H1699 0.962 . S
C1686 H1700 0.960 . S
C1687 C1684 1.511 . S
C1687 H1701 0.961 . S
C1687 H1702 0.961 . S
C1687 H1703 0.961 . S
C1688 C1689 1.370 . S
C1688 C1690 1.363 . S
C1688 H1704 0.931 . S
C1689 C1688 1.370 . S
C1689 C1693 1.408 . S
C1690 C1688 1.363 . S
C1690 C1691 1.370 . S
C1690 C1694 1.524 . S
C1691 C1683 1.503 . S
C1691 C1690 1.370 . S
C1691 C1692 1.403 . S
C1692 C1691 1.403 . S
C1692 C1693 1.404 . S
C1692 C1695 1.539 1_554 S
C1693 C1689 1.408 . S
C1693 C1692 1.404 . S
C1693 H1705 0.930 . S
C1694 C1690 1.524 . S
C1694 H1706 0.956 . S
C1694 H1707 0.961 . S
C1694 H1708 0.961 . S
C1695 C1692 1.539 1_556 S
C1695 H1709 0.958 1_556 S
C1695 H1710 0.961 . S
C1695 H1711 0.960 . S
H1696 C1680 0.931 . S
H1697 C1685 0.929 . S
H1698 C1686 0.960 . S
H1699 C1686 0.962 . S
H1700 C1686 0.960 . S
H1701 C1687 0.961 . S
H1702 C1687 0.961 . S
H1703 C1687 0.961 . S
H1704 C1688 0.931 . S
H1705 C1693 0.930 . S
H1706 C1694 0.956 . S
H1707 C1694 0.961 . S
H1708 C1694 0.961 . S
H1709 C1695 0.958 1_554 S
H1710 C1695 0.961 . S
H1711 C1695 0.960 . S
C1712 C1713 1.391 . S
C1712 C1714 1.394 . S
C1712 H1728 0.931 . S
C1713 C1712 1.391 . S
C1713 C1717 1.376 1_554 S
C1714 C1712 1.394 . S
C1714 C1715 1.369 . S
C1714 C1718 1.531 . S
C1715 C1714 1.369 . S
C1715 C1716 1.410 . S
C1715 C1723 1.503 . S
C1716 C1715 1.410 . S
C1716 C1717 1.392 1_554 S
C1716 C1719 1.511 1_554 S
C1717 C1713 1.376 1_556 S
C1717 C1716 1.392 1_556 S
C1717 H1729 0.929 . S
C1718 C1714 1.531 . S
C1718 H1730 0.960 . S
C1718 H1731 0.962 . S
C1718 H1732 0.960 . S
C1719 C1716 1.511 1_556 S
C1719 H1733 0.961 . S
C1719 H1734 0.961 . S
C1719 H1735 0.961 1_556 S
C1720 C1721 1.370 . S
C1720 C1722 1.363 1_554 S
C1720 H1736 0.931 1_554 S
C1721 C1720 1.370 . S
C1721 C1725 1.408 . S
C1722 C1720 1.363 1_556 S
C1722 C1723 1.370 1_556 S
C1722 C1726 1.524 . S
C1723 C1715 1.503 . S
C1723 C1722 1.370 1_554 S
C1723 C1724 1.403 . S
C1724 C1723 1.403 . S
C1724 C1725 1.404 . S
C1724 C1727 1.539 . S
C1725 C1721 1.408 . S
C1725 C1724 1.404 . S
C1725 H1737 0.930 . S
C1726 C1722 1.524 . S
C1726 H1738 0.956 . S
C1726 H1739 0.961 . S
C1726 H1740 0.961 . S
C1727 C1724 1.539 . S
C1727 H1741 0.958 . S
C1727 H1742 0.961 . S
C1727 H1743 0.960 . S
H1728 C1712 0.931 . S
H1729 C1717 0.929 . S
H1730 C1718 0.960 . S
H1731 C1718 0.962 . S
H1732 C1718 0.960 . S
H1733 C1719 0.961 . S
H1734 C1719 0.961 . S
H1735 C1719 0.961 1_554 S
H1736 C1720 0.931 1_556 S
H1737 C1725 0.930 . S
H1738 C1726 0.956 . S
H1739 C1726 0.961 . S
H1740 C1726 0.961 . S
H1741 C1727 0.958 . S
H1742 C1727 0.961 . S
H1743 C1727 0.960 . S
C1744 C1745 1.391 . S
C1744 C1746 1.394 . S
C1744 H1760 0.931 . S
C1745 C1744 1.391 . S
C1745 C1749 1.376 . S
C1746 C1744 1.394 . S
C1746 C1747 1.369 . S
C1746 C1750 1.531 . S
C1747 C1746 1.369 . S
C1747 C1748 1.410 1_554 S
C1747 C1755 1.503 . S
C1748 C1747 1.410 1_556 S
C1748 C1749 1.392 1_556 S
C1748 C1751 1.511 . S
C1749 C1745 1.376 . S
C1749 C1748 1.392 1_554 S
C1749 H1761 0.934 . S
C1750 C1746 1.531 . S
C1750 H1762 0.960 . S
C1750 H1763 0.962 . S
C1750 H1764 0.960 . S
C1751 C1748 1.511 . S
C1751 H1765 0.961 . S
C1751 H1766 0.961 . S
C1751 H1767 0.961 . S
C1752 C1753 1.370 1_554 S
C1752 C1754 1.363 . S
C1752 H1768 0.931 . S
C1753 C1752 1.370 1_556 S
C1753 C1757 1.408 . S
C1754 C1752 1.363 . S
C1754 C1755 1.370 . S
C1754 C1758 1.524 . S
C1755 C1747 1.503 . S
C1755 C1754 1.370 . S
C1755 C1756 1.403 1_554 S
C1756 C1755 1.403 1_556 S
C1756 C1757 1.404 . S
C1756 C1759 1.539 . S
C1757 C1753 1.408 . S
C1757 C1756 1.404 . S
C1757 H1769 0.930 . S
C1758 C1754 1.524 . S
C1758 H1770 0.956 . S
C1758 H1771 0.961 . S
C1758 H1772 0.961 . S
C1759 C1756 1.539 . S
C1759 H1773 0.958 . S
C1759 H1774 0.961 . S
C1759 H1775 0.960 . S
H1760 C1744 0.931 . S
H1761 C1749 0.934 . S
H1762 C1750 0.960 . S
H1763 C1750 0.962 . S
H1764 C1750 0.960 . S
H1765 C1751 0.961 . S
H1766 C1751 0.961 . S
H1767 C1751 0.961 . S
H1768 C1752 0.931 . S
H1769 C1757 0.930 . S
H1770 C1758 0.956 . S
H1771 C1758 0.961 . S
H1772 C1758 0.961 . S
H1773 C1759 0.958 . S
H1774 C1759 0.961 . S
H1775 C1759 0.960 . S
C1776 C1777 1.391 . S
C1776 C1778 1.394 . S
C1776 H1792 0.931 . S
C1777 C1776 1.391 . S
C1777 C1781 1.376 . S
C1778 C1776 1.394 . S
C1778 C1779 1.369 . S
C1778 C1782 1.531 . S
C1779 C1778 1.369 . S
C1779 C1780 1.410 . S
C1779 C1787 1.503 . S
C1780 C1779 1.410 . S
C1780 C1781 1.392 . S
C1780 C1783 1.511 . S
C1781 C1777 1.376 . S
C1781 C1780 1.392 . S
C1781 H1793 0.929 . S
C1782 C1778 1.531 . S
C1782 H1794 0.960 . S
C1782 H1795 0.962 . S
C1782 H1796 0.960 . S
C1783 C1780 1.511 . S
C1783 H1797 0.961 . S
C1783 H1798 0.961 . S
C1783 H1799 0.961 . S
C1784 C1785 1.370 . S
C1784 C1786 1.363 . S
C1784 H1800 0.931 . S
C1785 C1784 1.370 . S
C1785 C1789 1.408 . S
C1786 C1784 1.363 . S
C1786 C1787 1.370 . S
C1786 C1790 1.524 . S
C1787 C1779 1.503 . S
C1787 C1786 1.370 . S
C1787 C1788 1.403 . S
C1788 C1787 1.403 . S
C1788 C1789 1.404 . S
C1788 C1791 1.539 . S
C1789 C1785 1.408 . S
C1789 C1788 1.404 . S
C1789 H1801 0.930 . S
C1790 C1786 1.524 . S
C1790 H1802 0.956 . S
C1790 H1803 0.961 . S
C1790 H1804 0.961 . S
C1791 C1788 1.539 . S
C1791 H1805 0.958 . S
C1791 H1806 0.961 . S
C1791 H1807 0.960 . S
H1792 C1776 0.931 . S
H1793 C1781 0.929 . S
H1794 C1782 0.960 . S
H1795 C1782 0.962 . S
H1796 C1782 0.960 . S
H1797 C1783 0.961 . S
H1798 C1783 0.961 . S
H1799 C1783 0.961 . S
H1800 C1784 0.931 . S
H1801 C1789 0.930 . S
H1802 C1790 0.956 . S
H1803 C1790 0.961 . S
H1804 C1790 0.961 . S
H1805 C1791 0.958 . S
H1806 C1791 0.961 . S
H1807 C1791 0.960 . S
C1808 C1809 1.391 . S
C1808 C1810 1.394 . S
C1808 H1824 0.931 . S
C1809 C1808 1.391 . S
C1809 C1813 1.376 . S
C1810 C1808 1.394 . S
C1810 C1811 1.369 . S
C1810 C1814 1.531 . S
C1811 C1810 1.369 . S
C1811 C1812 1.410 . S
C1811 C1819 1.503 . S
C1812 C1811 1.410 . S
C1812 C1813 1.392 . S
C1812 C1815 1.511 . S
C1813 C1809 1.376 . S
C1813 C1812 1.392 . S
C1813 H1825 0.929 . S
C1814 C1810 1.531 . S
C1814 H1826 0.960 . S
C1814 H1827 0.962 . S
C1814 H1828 0.960 . S
C1815 C1812 1.511 . S
C1815 H1829 0.961 . S
C1815 H1830 0.961 . S
C1815 H1831 0.961 . S
C1816 C1817 1.370 . S
C1816 C1818 1.363 . S
C1816 H1832 0.931 . S
C1817 C1816 1.370 . S
C1817 C1821 1.408 . S
C1818 C1816 1.363 . S
C1818 C1819 1.370 . S
C1818 C1822 1.524 . S
C1819 C1811 1.503 . S
C1819 C1818 1.370 . S
C1819 C1820 1.403 . S
C1820 C1819 1.403 . S
C1820 C1821 1.404 . S
C1820 C1823 1.539 . S
C1821 C1817 1.408 . S
C1821 C1820 1.404 . S
C1821 H1833 0.930 . S
C1822 C1818 1.524 . S
C1822 H1834 0.956 . S
C1822 H1835 0.961 . S
C1822 H1836 0.961 . S
C1823 C1820 1.539 . S
C1823 H1837 0.958 . S
C1823 H1838 0.961 . S
C1823 H1839 0.960 . S
H1824 C1808 0.931 . S
H1825 C1813 0.929 . S
H1826 C1814 0.960 . S
H1827 C1814 0.962 . S
H1828 C1814 0.960 . S
H1829 C1815 0.961 . S
H1830 C1815 0.961 . S
H1831 C1815 0.961 . S
H1832 C1816 0.931 . S
H1833 C1821 0.930 . S
H1834 C1822 0.956 . S
H1835 C1822 0.961 . S
H1836 C1822 0.961 . S
H1837 C1823 0.958 . S
H1838 C1823 0.961 . S
H1839 C1823 0.960 . S
C1840 C1841 1.391 . S
C1840 C1842 1.394 . S
C1840 H1856 0.931 . S
C1841 C1840 1.391 . S
C1841 C1845 1.376 . S
C1842 C1840 1.394 . S
C1842 C1843 1.369 . S
C1842 C1846 1.531 . S
C1843 C1842 1.369 . S
C1843 C1844 1.410 . S
C1843 C1851 1.503 . S
C1844 C1843 1.410 . S
C1844 C1845 1.392 . S
C1844 C1847 1.511 . S
C1845 C1841 1.376 . S
C1845 C1844 1.392 . S
C1845 H1857 0.929 . S
C1846 C1842 1.531 . S
C1846 H1858 0.960 . S
C1846 H1859 0.962 . S
C1846 H1860 0.960 . S
C1847 C1844 1.511 . S
C1847 H1861 0.961 . S
C1847 H1862 0.961 . S
C1847 H1863 0.961 . S
C1848 C1849 1.370 . S
C1848 C1850 1.363 . S
C1848 H1864 0.931 . S
C1849 C1848 1.370 . S
C1849 C1853 1.408 . S
C1850 C1848 1.363 . S
C1850 C1851 1.370 . S
C1850 C1854 1.524 . S
C1851 C1843 1.503 . S
C1851 C1850 1.370 . S
C1851 C1852 1.403 . S
C1852 C1851 1.403 . S
C1852 C1853 1.404 . S
C1852 C1855 1.539 . S
C1853 C1849 1.408 . S
C1853 C1852 1.404 . S
C1853 H1865 0.930 . S
C1854 C1850 1.524 . S
C1854 H1866 0.956 . S
C1854 H1867 0.961 . S
C1854 H1868 0.961 . S
C1855 C1852 1.539 . S
C1855 H1869 0.958 . S
C1855 H1870 0.961 . S
C1855 H1871 0.960 . S
H1856 C1840 0.931 . S
H1857 C1845 0.929 . S
H1858 C1846 0.960 . S
H1859 C1846 0.962 . S
H1860 C1846 0.960 . S
H1861 C1847 0.961 . S
H1862 C1847 0.961 . S
H1863 C1847 0.961 . S
H1864 C1848 0.931 . S
H1865 C1853 0.930 . S
H1866 C1854 0.956 . S
H1867 C1854 0.961 . S
H1868 C1854 0.961 . S
H1869 C1855 0.958 . S
H1870 C1855 0.961 . S
H1871 C1855 0.960 . S
C1872 C1873 1.391 . S
C1872 C1874 1.394 . S
C1872 H1888 0.931 . S
C1873 C1872 1.391 . S
C1873 C1877 1.376 . S
C1874 C1872 1.394 . S
C1874 C1875 1.369 . S
C1874 C1878 1.531 . S
C1875 C1874 1.369 . S
C1875 C1876 1.410 . S
C1875 C1883 1.503 . S
C1876 C1875 1.410 . S
C1876 C1877 1.392 . S
C1876 C1879 1.511 1_455 S
C1877 C1873 1.376 . S
C1877 C1876 1.392 . S
C1877 H1889 0.929 . S
C1878 C1874 1.531 . S
C1878 H1890 0.960 . S
C1878 H1891 0.962 . S
C1878 H1892 0.960 . S
C1879 C1876 1.511 1_655 S
C1879 H1893 0.961 . S
C1879 H1894 0.961 1_655 S
C1879 H1895 0.961 . S
C1880 C1881 1.370 1_554 S
C1880 C1882 1.363 . S
C1880 H1896 0.931 1_554 S
C1881 C1880 1.370 1_556 S
C1881 C1885 1.408 . S
C1882 C1880 1.363 . S
C1882 C1883 1.370 . S
C1882 C1886 1.524 . S
C1883 C1875 1.503 . S
C1883 C1882 1.370 . S
C1883 C1884 1.403 . S
C1884 C1883 1.403 . S
C1884 C1885 1.404 1_554 S
C1884 C1887 1.539 1_455 S
C1885 C1881 1.408 . S
C1885 C1884 1.404 1_556 S
C1885 H1897 0.930 1_455 S
C1886 C1882 1.524 . S
C1886 H1898 0.956 . S
C1886 H1899 0.961 . S
C1886 H1900 0.961 . S
C1887 C1884 1.539 1_655 S
C1887 H1901 0.958 . S
C1887 H1902 0.961 . S
C1887 H1903 0.960 . S
H1888 C1872 0.931 . S
H1889 C1877 0.929 . S
H1890 C1878 0.960 . S
H1891 C1878 0.962 . S
H1892 C1878 0.960 . S
H1893 C1879 0.961 . S
H1894 C1879 0.961 1_455 S
H1895 C1879 0.961 . S
H1896 C1880 0.931 1_556 S
H1897 C1885 0.930 1_655 S
H1898 C1886 0.956 . S
H1899 C1886 0.961 . S
H1900 C1886 0.961 . S
H1901 C1887 0.958 . S
H1902 C1887 0.961 . S
H1903 C1887 0.960 . S
C1904 C1905 1.391 . S
C1904 C1906 1.394 . S
C1904 H1920 0.931 . S
C1905 C1904 1.391 . S
C1905 C1909 1.376 . S
C1906 C1904 1.394 . S
C1906 C1907 1.369 . S
C1906 C1910 1.531 . S
C1907 C1906 1.369 . S
C1907 C1908 1.410 . S
C1907 C1915 1.503 . S
C1908 C1907 1.410 . S
C1908 C1909 1.392 . S
C1908 C1911 1.511 . S
C1909 C1905 1.376 . S
C1909 C1908 1.392 . S
C1909 H1921 0.929 . S
C1910 C1906 1.531 . S
C1910 H1922 0.960 . S
C1910 H1923 0.962 . S
C1910 H1924 0.960 . S
C1911 C1908 1.511 . S
C1911 H1925 0.961 . S
C1911 H1926 0.961 . S
C1911 H1927 0.961 . S
C1912 C1913 1.367 1_554 S
C1912 C1914 1.369 . S
C1912 H1928 0.928 1_554 S
C1913 C1912 1.367 1_556 S
C1913 C1917 1.408 1_556 S
C1914 C1912 1.369 . S
C1914 C1915 1.370 . S
C1914 C1918 1.524 . S
C1915 C1907 1.503 . S
C1915 C1914 1.370 . S
C1915 C1916 1.403 . S
C1916 C1915 1.403 . S
C1916 C1917 1.404 . S
C1916 C1919 1.539 . S
C1917 C1913 1.408 1_554 S
C1917 C1916 1.404 . S
C1917 H1929 0.930 1_554 S
C1918 C1914 1.524 . S
C1918 H1930 0.956 . S
C1918 H1931 0.961 . S
C1918 H1932 0.961 . S
C1919 C1916 1.539 . S
C1919 H1933 0.958 . S
C1919 H1934 0.961 . S
C1919 H1935 0.960 . S
H1920 C1904 0.931 . S
H1921 C1909 0.929 . S
H1922 C1910 0.960 . S
H1923 C1910 0.962 . S
H1924 C1910 0.960 . S
H1925 C1911 0.961 . S
H1926 C1911 0.961 . S
H1927 C1911 0.961 . S
H1928 C1912 0.928 1_556 S
H1929 C1917 0.930 1_556 S
H1930 C1918 0.956 . S
H1931 C1918 0.961 . S
H1932 C1918 0.961 . S
H1933 C1919 0.958 . S
H1934 C1919 0.961 . S
H1935 C1919 0.960 . S
C1936 C1937 1.391 . S
C1936 C1938 1.394 . S
C1936 H1952 0.931 . S
C1937 C1936 1.391 . S
C1937 C1941 1.376 . S
C1938 C1936 1.394 . S
C1938 C1939 1.369 . S
C1938 C1942 1.531 . S
C1939 C1938 1.369 . S
C1939 C1940 1.410 . S
C1939 C1947 1.503 . S
C1940 C1939 1.410 . S
C1940 C1941 1.392 . S
C1940 C1943 1.511 . S
C1941 C1937 1.376 . S
C1941 C1940 1.392 . S
C1941 H1953 0.929 . S
C1942 C1938 1.531 . S
C1942 H1954 0.960 . S
C1942 H1955 0.962 . S
C1942 H1956 0.960 . S
C1943 C1940 1.511 . S
C1943 H1957 0.961 1_545 S
C1943 H1958 0.961 . S
C1943 H1959 0.961 . S
C1944 C1945 1.370 . S
C1944 C1946 1.363 1_556 S
C1944 H1960 0.931 . S
C1945 C1944 1.370 . S
C1945 C1949 1.408 1_556 S
C1946 C1944 1.363 1_554 S
C1946 C1947 1.370 . S
C1946 C1950 1.524 1_545 S
C1947 C1939 1.503 . S
C1947 C1946 1.370 . S
C1947 C1948 1.403 . S
C1948 C1947 1.403 . S
C1948 C1949 1.404 . S
C1948 C1951 1.539 . S
C1949 C1945 1.408 1_554 S
C1949 C1948 1.404 . S
C1949 H1961 0.930 1_554 S
C1950 C1946 1.524 1_565 S
C1950 H1962 1.006 . S
C1950 H1963 0.961 . S
C1950 H1964 0.961 . S
C1951 C1948 1.539 . S
C1951 H1965 0.958 . S
C1951 H1966 0.961 . S
C1951 H1967 0.960 . S
H1952 C1936 0.931 . S
H1953 C1941 0.929 . S
H1954 C1942 0.960 . S
H1955 C1942 0.962 . S
H1956 C1942 0.960 . S
H1957 C1943 0.961 1_565 S
H1958 C1943 0.961 . S
H1959 C1943 0.961 . S
H1960 C1944 0.931 . S
H1961 C1949 0.930 1_556 S
H1962 C1950 1.006 . S
H1963 C1950 0.961 . S
H1964 C1950 0.961 . S
H1965 C1951 0.958 . S
H1966 C1951 0.961 . S
H1967 C1951 0.960 . S
C1968 C1969 1.391 . S
C1968 C1970 1.394 . S
C1968 H1984 0.931 . S
C1969 C1968 1.391 . S
C1969 C1973 1.422 . S
C1970 C1968 1.394 . S
C1970 C1971 1.369 . S
C1970 C1974 1.531 . S
C1971 C1970 1.369 . S
C1971 C1972 1.410 . S
C1971 C1979 1.503 . S
C1972 C1971 1.410 . S
C1972 C1973 1.400 . S
C1972 C1975 1.511 1_455 S
C1973 C1969 1.422 . S
C1973 C1972 1.400 . S
C1973 H1985 0.876 1_455 S
C1974 C1970 1.531 . S
C1974 H1986 0.960 . S
C1974 H1987 0.962 . S
C1974 H1988 0.960 . S
C1975 C1972 1.511 1_655 S
C1975 H1989 0.961 . S
C1975 H1990 0.961 . S
C1975 H1991 0.961 . S
C1976 C1977 1.370 1_556 S
C1976 C1978 1.363 . S
C1976 H1992 0.931 1_556 S
C1977 C1976 1.370 1_554 S
C1977 C1981 1.408 . S
C1978 C1976 1.363 . S
C1978 C1979 1.370 . S
C1978 C1982 1.524 . S
C1979 C1971 1.503 . S
C1979 C1978 1.370 . S
C1979 C1980 1.403 . S
C1980 C1979 1.403 . S
C1980 C1981 1.404 1_556 S
C1980 C1983 1.539 . S
C1981 C1977 1.408 . S
C1981 C1980 1.404 1_554 S
C1981 H1993 0.930 . S
C1982 C1978 1.524 . S
C1982 H1994 0.956 . S
C1982 H1995 0.961 1_455 S
C1982 H1996 0.961 . S
C1983 C1980 1.539 . S
C1983 H1997 0.958 . S
C1983 H1998 0.961 . S
C1983 H1999 0.960 . S
H1984 C1968 0.931 . S
H1985 C1973 0.876 1_655 S
H1986 C1974 0.960 . S
H1987 C1974 0.962 . S
H1988 C1974 0.960 . S
H1989 C1975 0.961 . S
H1990 C1975 0.961 . S
H1991 C1975 0.961 . S
H1992 C1976 0.931 1_554 S
H1993 C1981 0.930 . S
H1994 C1982 0.956 . S
H1995 C1982 0.961 1_655 S
H1996 C1982 0.961 . S
H1997 C1983 0.958 . S
H1998 C1983 0.961 . S
H1999 C1983 0.960 . S
C2000 C2001 1.391 1_556 S
C2000 C2002 1.394 . S
C2000 H2016 0.931 1_556 S
C2001 C2000 1.391 1_554 S
C2001 C2005 1.376 . S
C2002 C2000 1.394 . S
C2002 C2003 1.369 . S
C2002 C2006 1.531 . S
C2003 C2002 1.369 . S
C2003 C2004 1.410 . S
C2003 C2011 1.503 . S
C2004 C2003 1.410 . S
C2004 C2005 1.392 1_556 S
C2004 C2007 1.511 . S
C2005 C2001 1.376 . S
C2005 C2004 1.392 1_554 S
C2005 H2017 0.929 . S
C2006 C2002 1.531 . S
C2006 H2018 0.960 . S
C2006 H2019 0.962 . S
C2006 H2020 0.960 . S
C2007 C2004 1.511 . S
C2007 H2021 0.961 . S
C2007 H2022 0.961 . S
C2007 H2023 0.961 . S
C2008 C2009 1.370 . S
C2008 C2010 1.363 . S
C2008 H2024 0.931 . S
C2009 C2008 1.370 . S
C2009 C2013 1.408 . S
C2010 C2008 1.363 . S
C2010 C2011 1.370 . S
C2010 C2014 1.524 . S
C2011 C2003 1.503 . S
C2011 C2010 1.370 . S
C2011 C2012 1.403 . S
C2012 C2011 1.403 . S
C2012 C2013 1.404 . S
C2012 C2015 1.539 . S
C2013 C2009 1.408 . S
C2013 C2012 1.404 . S
C2013 H2025 0.930 . S
C2014 C2010 1.524 . S
C2014 H2026 0.956 . S
C2014 H2027 0.961 . S
C2014 H2028 0.961 . S
C2015 C2012 1.539 . S
C2015 H2029 0.958 . S
C2015 H2030 0.961 . S
C2015 H2031 0.960 . S
H2016 C2000 0.931 1_554 S
H2017 C2005 0.929 . S
H2018 C2006 0.960 . S
H2019 C2006 0.962 . S
H2020 C2006 0.960 . S
H2021 C2007 0.961 . S
H2022 C2007 0.961 . S
H2023 C2007 0.961 . S
H2024 C2008 0.931 . S
H2025 C2013 0.930 . S
H2026 C2014 0.956 . S
H2027 C2014 0.961 . S
H2028 C2014 0.961 . S
H2029 C2015 0.958 . S
H2030 C2015 0.961 . S
H2031 C2015 0.960 . S
C2032 C2033 1.391 . S
C2032 C2034 1.394 1_554 S
C2032 H2048 0.931 . S
C2033 C2032 1.391 . S
C2033 C2037 1.376 1_554 S
C2034 C2032 1.394 1_556 S
C2034 C2035 1.369 . S
C2034 C2038 1.531 . S
C2035 C2034 1.369 . S
C2035 C2036 1.410 . S
C2035 C2043 1.503 . S
C2036 C2035 1.410 . S
C2036 C2037 1.392 . S
C2036 C2039 1.511 . S
C2037 C2033 1.376 1_556 S
C2037 C2036 1.392 . S
C2037 H2049 0.929 1_556 S
C2038 C2034 1.531 . S
C2038 H2050 0.960 . S
C2038 H2051 0.962 . S
C2038 H2052 0.960 . S
C2039 C2036 1.511 . S
C2039 H2053 0.961 . S
C2039 H2054 0.961 . S
C2039 H2055 0.961 1_545 S
C2040 C2041 1.370 . S
C2040 C2042 1.363 . S
C2040 H2056 0.931 . S
C2041 C2040 1.370 . S
C2041 C2045 1.408 . S
C2042 C2040 1.363 . S
C2042 C2043 1.370 . S
C2042 C2046 1.524 . S
C2043 C2035 1.503 . S
C2043 C2042 1.370 . S
C2043 C2044 1.403 . S
C2044 C2043 1.403 . S
C2044 C2045 1.404 . S
C2044 C2047 1.539 1_545 S
C2045 C2041 1.408 . S
C2045 C2044 1.404 . S
C2045 H2057 0.930 . S
C2046 C2042 1.524 . S
C2046 H2058 0.956 . S
C2046 H2059 0.961 . S
C2046 H2060 0.961 . S
C2047 C2044 1.539 1_565 S
C2047 H2061 0.958 . S
C2047 H2062 0.961 . S
C2047 H2063 0.960 . S
H2048 C2032 0.931 . S
H2049 C2037 0.929 1_554 S
H2050 C2038 0.960 . S
H2051 C2038 0.962 . S
H2052 C2038 0.960 . S
H2053 C2039 0.961 . S
H2054 C2039 0.961 . S
H2055 C2039 0.961 1_565 S
H2056 C2040 0.931 . S
H2057 C2045 0.930 . S
H2058 C2046 0.956 . S
H2059 C2046 0.961 . S
H2060 C2046 0.961 . S
H2061 C2047 0.958 . S
H2062 C2047 0.961 . S
H2063 C2047 0.960 . S
C2064 C2065 1.391 . S
C2064 C2066 1.394 . S
C2064 H2080 0.931 . S
C2065 C2064 1.391 . S
C2065 C2069 1.376 . S
C2066 C2064 1.394 . S
C2066 C2067 1.369 . S
C2066 C2070 1.531 . S
C2067 C2066 1.369 . S
C2067 C2068 1.410 . S
C2067 C2075 1.503 . S
C2068 C2067 1.410 . S
C2068 C2069 1.392 . S
C2068 C2071 1.511 . S
C2069 C2065 1.376 . S
C2069 C2068 1.392 . S
C2069 H2081 0.929 . S
C2070 C2066 1.531 . S
C2070 H2082 0.960 . S
C2070 H2083 0.962 . S
C2070 H2084 0.960 . S
C2071 C2068 1.511 . S
C2071 H2085 0.961 . S
C2071 H2086 0.961 . S
C2071 H2087 0.961 . S
C2072 C2073 1.370 . S
C2072 C2074 1.363 . S
C2072 H2088 0.931 . S
C2073 C2072 1.370 . S
C2073 C2077 1.408 . S
C2074 C2072 1.363 . S
C2074 C2075 1.370 . S
C2074 C2078 1.524 . S
C2075 C2067 1.503 . S
C2075 C2074 1.370 . S
C2075 C2076 1.403 . S
C2076 C2075 1.403 . S
C2076 C2077 1.404 . S
C2076 C2079 1.539 . S
C2077 C2073 1.408 . S
C2077 C2076 1.404 . S
C2077 H2089 0.930 . S
C2078 C2074 1.524 . S
C2078 H2090 0.956 . S
C2078 H2091 0.961 . S
C2078 H2092 0.961 . S
C2079 C2076 1.539 . S
C2079 H2093 0.958 . S
C2079 H2094 0.961 . S
C2079 H2095 0.960 . S
H2080 C2064 0.931 . S
H2081 C2069 0.929 . S
H2082 C2070 0.960 . S
H2083 C2070 0.962 . S
H2084 C2070 0.960 . S
H2085 C2071 0.961 . S
H2086 C2071 0.961 . S
H2087 C2071 0.961 . S
H2088 C2072 0.931 . S
H2089 C2077 0.930 . S
H2090 C2078 0.956 . S
H2091 C2078 0.961 . S
H2092 C2078 0.961 . S
H2093 C2079 0.958 . S
H2094 C2079 0.961 . S
H2095 C2079 0.960 . S
C2096 C2097 1.391 . S
C2096 C2098 1.394 . S
C2096 H2112 0.931 . S
C2097 C2096 1.391 . S
C2097 C2101 1.376 . S
C2098 C2096 1.394 . S
C2098 C2099 1.369 . S
C2098 C2102 1.531 . S
C2099 C2098 1.369 . S
C2099 C2100 1.410 . S
C2099 C2107 1.503 . S
C2100 C2099 1.410 . S
C2100 C2101 1.392 . S
C2100 C2103 1.511 . S
C2101 C2097 1.376 . S
C2101 C2100 1.392 . S
C2101 H2113 0.929 . S
C2102 C2098 1.531 . S
C2102 H2114 0.960 . S
C2102 H2115 0.962 . S
C2102 H2116 0.960 . S
C2103 C2100 1.511 . S
C2103 H2117 0.961 . S
C2103 H2118 0.961 . S
C2103 H2119 0.961 . S
C2104 C2105 1.370 . S
C2104 C2106 1.363 . S
C2104 H2120 0.931 . S
C2105 C2104 1.370 . S
C2105 C2109 1.408 . S
C2106 C2104 1.363 . S
C2106 C2107 1.370 . S
C2106 C2110 1.524 . S
C2107 C2099 1.503 . S
C2107 C2106 1.370 . S
C2107 C2108 1.403 . S
C2108 C2107 1.403 . S
C2108 C2109 1.404 . S
C2108 C2111 1.539 . S
C2109 C2105 1.408 . S
C2109 C2108 1.404 . S
C2109 H2121 0.930 . S
C2110 C2106 1.524 . S
C2110 H2122 0.956 . S
C2110 H2123 0.961 . S
C2110 H2124 0.961 . S
C2111 C2108 1.539 . S
C2111 H2125 0.958 . S
C2111 H2126 0.961 . S
C2111 H2127 0.960 . S
H2112 C2096 0.931 . S
H2113 C2101 0.929 . S
H2114 C2102 0.960 . S
H2115 C2102 0.962 . S
H2116 C2102 0.960 . S
H2117 C2103 0.961 . S
H2118 C2103 0.961 . S
H2119 C2103 0.961 . S
H2120 C2104 0.931 . S
H2121 C2109 0.930 . S
H2122 C2110 0.956 . S
H2123 C2110 0.961 . S
H2124 C2110 0.961 . S
H2125 C2111 0.958 . S
H2126 C2111 0.961 . S
H2127 C2111 0.960 . S
C2128 C2129 1.391 . S
C2128 C2130 1.394 . S
C2128 H2144 0.931 . S
C2129 C2128 1.391 . S
C2129 C2133 1.376 . S
C2130 C2128 1.394 . S
C2130 C2131 1.369 . S
C2130 C2134 1.531 . S
C2131 C2130 1.369 . S
C2131 C2132 1.410 . S
C2131 C2139 1.503 . S
C2132 C2131 1.410 . S
C2132 C2133 1.392 . S
C2132 C2135 1.511 . S
C2133 C2129 1.376 . S
C2133 C2132 1.392 . S
C2133 H2145 0.929 . S
C2134 C2130 1.531 . S
C2134 H2146 0.960 . S
C2134 H2147 0.962 . S
C2134 H2148 0.960 . S
C2135 C2132 1.511 . S
C2135 H2149 0.961 . S
C2135 H2150 0.961 . S
C2135 H2151 0.961 . S
C2136 C2137 1.370 . S
C2136 C2138 1.363 . S
C2136 H2152 0.931 . S
C2137 C2136 1.370 . S
C2137 C2141 1.408 . S
C2138 C2136 1.363 . S
C2138 C2139 1.370 . S
C2138 C2142 1.524 . S
C2139 C2131 1.503 . S
C2139 C2138 1.370 . S
C2139 C2140 1.403 . S
C2140 C2139 1.403 . S
C2140 C2141 1.404 . S
C2140 C2143 1.539 . S
C2141 C2137 1.408 . S
C2141 C2140 1.404 . S
C2141 H2153 0.930 . S
C2142 C2138 1.524 . S
C2142 H2154 0.956 . S
C2142 H2155 0.961 . S
C2142 H2156 0.961 . S
C2143 C2140 1.539 . S
C2143 H2157 0.958 . S
C2143 H2158 0.961 . S
C2143 H2159 0.960 . S
H2144 C2128 0.931 . S
H2145 C2133 0.929 . S
H2146 C2134 0.960 . S
H2147 C2134 0.962 . S
H2148 C2134 0.960 . S
H2149 C2135 0.961 . S
H2150 C2135 0.961 . S
H2151 C2135 0.961 . S
H2152 C2136 0.931 . S
H2153 C2141 0.930 . S
H2154 C2142 0.956 . S
H2155 C2142 0.961 . S
H2156 C2142 0.961 . S
H2157 C2143 0.958 . S
H2158 C2143 0.961 . S
H2159 C2143 0.960 . S
C2160 C2161 1.391 . S
C2160 C2162 1.394 1_556 S
C2160 H2176 0.931 . S
C2161 C2160 1.391 . S
C2161 C2165 1.376 . S
C2162 C2160 1.394 1_554 S
C2162 C2163 1.369 . S
C2162 C2166 1.531 . S
C2163 C2162 1.369 . S
C2163 C2164 1.410 . S
C2163 C2171 1.503 . S
C2164 C2163 1.410 . S
C2164 C2165 1.392 1_554 S
C2164 C2167 1.511 . S
C2165 C2161 1.376 . S
C2165 C2164 1.392 1_556 S
C2165 H2177 0.929 . S
C2166 C2162 1.531 . S
C2166 H2178 0.960 . S
C2166 H2179 0.962 . S
C2166 H2180 0.960 . S
C2167 C2164 1.511 . S
C2167 H2181 0.961 . S
C2167 H2182 0.961 . S
C2167 H2183 0.961 . S
C2168 C2169 1.370 . S
C2168 C2170 1.363 . S
C2168 H2184 0.931 . S
C2169 C2168 1.370 . S
C2169 C2173 1.408 . S
C2170 C2168 1.363 . S
C2170 C2171 1.370 . S
C2170 C2174 1.524 . S
C2171 C2163 1.503 . S
C2171 C2170 1.370 . S
C2171 C2172 1.403 . S
C2172 C2171 1.403 . S
C2172 C2173 1.404 . S
C2172 C2175 1.539 . S
C2173 C2169 1.408 . S
C2173 C2172 1.404 . S
C2173 H2185 0.930 . S
C2174 C2170 1.524 . S
C2174 H2186 0.956 . S
C2174 H2187 0.961 . S
C2174 H2188 0.961 . S
C2175 C2172 1.539 . S
C2175 H2189 0.958 . S
C2175 H2190 0.961 . S
C2175 H2191 0.960 . S
H2176 C2160 0.931 . S
H2177 C2165 0.929 . S
H2178 C2166 0.960 . S
H2179 C2166 0.962 . S
H2180 C2166 0.960 . S
H2181 C2167 0.961 . S
H2182 C2167 0.961 . S
H2183 C2167 0.961 . S
H2184 C2168 0.931 . S
H2185 C2173 0.930 . S
H2186 C2174 0.956 . S
H2187 C2174 0.961 . S
H2188 C2174 0.961 . S
H2189 C2175 0.958 . S
H2190 C2175 0.961 . S
H2191 C2175 0.960 . S
C2192 C2193 1.391 . S
C2192 C2194 1.394 1_556 S
C2192 H2208 0.931 . S
C2193 C2192 1.391 . S
C2193 C2197 1.376 . S
C2194 C2192 1.394 1_554 S
C2194 C2195 1.369 . S
C2194 C2198 1.531 . S
C2195 C2194 1.369 . S
C2195 C2196 1.410 . S
C2195 C2203 1.503 . S
C2196 C2195 1.410 . S
C2196 C2197 1.392 1_554 S
C2196 C2199 1.511 . S
C2197 C2193 1.376 . S
C2197 C2196 1.392 1_556 S
C2197 H2209 0.929 . S
C2198 C2194 1.531 . S
C2198 H2210 0.960 . S
C2198 H2211 0.962 . S
C2198 H2212 0.960 . S
C2199 C2196 1.511 . S
C2199 H2213 0.961 . S
C2199 H2214 0.961 . S
C2199 H2215 0.961 . S
C2200 C2201 1.370 . S
C2200 C2202 1.363 . S
C2200 H2216 0.931 . S
C2201 C2200 1.370 . S
C2201 C2205 1.408 . S
C2202 C2200 1.363 . S
C2202 C2203 1.370 . S
C2202 C2206 1.524 . S
C2203 C2195 1.503 . S
C2203 C2202 1.370 . S
C2203 C2204 1.403 . S
C2204 C2203 1.403 . S
C2204 C2205 1.404 . S
C2204 C2207 1.539 . S
C2205 C2201 1.408 . S
C2205 C2204 1.404 . S
C2205 H2217 0.930 . S
C2206 C2202 1.524 . S
C2206 H2218 0.956 . S
C2206 H2219 0.961 . S
C2206 H2220 0.961 . S
C2207 C2204 1.539 . S
C2207 H2221 0.958 . S
C2207 H2222 0.961 . S
C2207 H2223 0.960 . S
H2208 C2192 0.931 . S
H2209 C2197 0.929 . S
H2210 C2198 0.960 . S
H2211 C2198 0.962 . S
H2212 C2198 0.960 . S
H2213 C2199 0.961 . S
H2214 C2199 0.961 . S
H2215 C2199 0.961 . S
H2216 C2200 0.931 . S
H2217 C2205 0.930 . S
H2218 C2206 0.956 . S
H2219 C2206 0.961 . S
H2220 C2206 0.961 . S
H2221 C2207 0.958 . S
H2222 C2207 0.961 . S
H2223 C2207 0.960 . S
C2224 C2225 1.391 . S
C2224 C2226 1.394 1_556 S
C2224 H2240 0.931 . S
C2225 C2224 1.391 . S
C2225 C2229 1.376 . S
C2226 C2224 1.394 1_554 S
C2226 C2227 1.369 . S
C2226 C2230 1.531 . S
C2227 C2226 1.369 . S
C2227 C2228 1.410 . S
C2227 C2235 1.503 . S
C2228 C2227 1.410 . S
C2228 C2229 1.392 1_554 S
C2228 C2231 1.511 . S
C2229 C2225 1.376 . S
C2229 C2228 1.392 1_556 S
C2229 H2241 0.929 . S
C2230 C2226 1.531 . S
C2230 H2242 0.960 . S
C2230 H2243 0.962 . S
C2230 H2244 0.960 . S
C2231 C2228 1.511 . S
C2231 H2245 0.961 . S
C2231 H2246 0.961 . S
C2231 H2247 0.961 . S
C2232 C2233 1.370 . S
C2232 C2234 1.363 . S
C2232 H2248 0.931 . S
C2233 C2232 1.370 . S
C2233 C2237 1.408 . S
C2234 C2232 1.363 . S
C2234 C2235 1.370 . S
C2234 C2238 1.524 . S
C2235 C2227 1.503 . S
C2235 C2234 1.370 . S
C2235 C2236 1.403 . S
C2236 C2235 1.403 . S
C2236 C2237 1.404 . S
C2236 C2239 1.539 . S
C2237 C2233 1.408 . S
C2237 C2236 1.404 . S
C2237 H2249 0.930 . S
C2238 C2234 1.524 . S
C2238 H2250 0.956 . S
C2238 H2251 0.961 . S
C2238 H2252 0.961 . S
C2239 C2236 1.539 . S
C2239 H2253 0.958 . S
C2239 H2254 0.961 . S
C2239 H2255 0.960 . S
H2240 C2224 0.931 . S
H2241 C2229 0.929 . S
H2242 C2230 0.960 . S
H2243 C2230 0.962 . S
H2244 C2230 0.960 . S
H2245 C2231 0.961 . S
H2246 C2231 0.961 . S
H2247 C2231 0.961 . S
H2248 C2232 0.931 . S
H2249 C2237 0.930 . S
H2250 C2238 0.956 . S
H2251 C2238 0.961 . S
H2252 C2238 0.961 . S
H2253 C2239 0.958 . S
H2254 C2239 0.961 . S
H2255 C2239 0.960 . S
C2256 C2257 1.391 . S
C2256 C2258 1.394 . S
C2256 H2272 0.931 . S
C2257 C2256 1.391 . S
C2257 C2261 1.376 . S
C2258 C2256 1.394 . S
C2258 C2259 1.369 . S
C2258 C2262 1.531 . S
C2259 C2258 1.369 . S
C2259 C2260 1.410 . S
C2259 C2267 1.503 . S
C2260 C2259 1.410 . S
C2260 C2261 1.392 . S
C2260 C2263 1.511 . S
C2261 C2257 1.376 . S
C2261 C2260 1.392 . S
C2261 H2273 0.929 . S
C2262 C2258 1.531 . S
C2262 H2274 0.960 . S
C2262 H2275 0.962 . S
C2262 H2276 0.960 . S
C2263 C2260 1.511 . S
C2263 H2277 0.961 . S
C2263 H2278 0.961 . S
C2263 H2279 0.961 . S
C2264 C2265 1.370 . S
C2264 C2266 1.363 1_554 S
C2264 H2280 0.931 . S
C2265 C2264 1.370 . S
C2265 C2269 1.408 . S
C2266 C2264 1.363 1_556 S
C2266 C2267 1.370 . S
C2266 C2270 1.524 . S
C2267 C2259 1.503 . S
C2267 C2266 1.370 . S
C2267 C2268 1.403 . S
C2268 C2267 1.403 . S
C2268 C2269 1.404 1_556 S
C2268 C2271 1.539 . S
C2269 C2265 1.408 . S
C2269 C2268 1.404 1_554 S
C2269 H2281 0.930 . S
C2270 C2266 1.524 . S
C2270 H2282 0.956 . S
C2270 H2283 0.961 . S
C2270 H2284 0.961 . S
C2271 C2268 1.539 . S
C2271 H2285 0.958 . S
C2271 H2286 0.961 . S
C2271 H2287 0.960 . S
H2272 C2256 0.931 . S
H2273 C2261 0.929 . S
H2274 C2262 0.960 . S
H2275 C2262 0.962 . S
H2276 C2262 0.960 . S
H2277 C2263 0.961 . S
H2278 C2263 0.961 . S
H2279 C2263 0.961 . S
H2280 C2264 0.931 . S
H2281 C2269 0.930 . S
H2282 C2270 0.956 . S
H2283 C2270 0.961 . S
H2284 C2270 0.961 . S
H2285 C2271 0.958 . S
H2286 C2271 0.961 . S
H2287 C2271 0.960 . S
C2288 C2289 1.391 . S
C2288 C2290 1.394 1_554 S
C2288 H2304 0.931 . S
C2289 C2288 1.391 . S
C2289 C2293 1.376 . S
C2290 C2288 1.394 1_556 S
C2290 C2291 1.369 . S
C2290 C2294 1.531 . S
C2291 C2290 1.369 . S
C2291 C2292 1.410 . S
C2291 C2299 1.503 . S
C2292 C2291 1.410 . S
C2292 C2293 1.392 1_556 S
C2292 C2295 1.511 . S
C2293 C2289 1.376 . S
C2293 C2292 1.392 1_554 S
C2293 H2305 0.929 . S
C2294 C2290 1.531 . S
C2294 H2306 0.960 . S
C2294 H2307 0.962 . S
C2294 H2308 0.960 . S
C2295 C2292 1.511 . S
C2295 H2309 0.961 . S
C2295 H2310 0.961 . S
C2295 H2311 0.961 . S
C2296 C2297 1.370 . S
C2296 C2298 1.363 . S
C2296 H2312 0.931 . S
C2297 C2296 1.370 . S
C2297 C2301 1.408 . S
C2298 C2296 1.363 . S
C2298 C2299 1.370 . S
C2298 C2302 1.524 . S
C2299 C2291 1.503 . S
C2299 C2298 1.370 . S
C2299 C2300 1.403 . S
C2300 C2299 1.403 . S
C2300 C2301 1.404 . S
C2300 C2303 1.539 . S
C2301 C2297 1.408 . S
C2301 C2300 1.404 . S
C2301 H2313 0.930 . S
C2302 C2298 1.524 . S
C2302 H2314 0.956 . S
C2302 H2315 0.961 . S
C2302 H2316 0.961 . S
C2303 C2300 1.539 . S
C2303 H2317 0.958 . S
C2303 H2318 0.961 . S
C2303 H2319 0.960 . S
H2304 C2288 0.931 . S
H2305 C2293 0.929 . S
H2306 C2294 0.960 . S
H2307 C2294 0.962 . S
H2308 C2294 0.960 . S
H2309 C2295 0.961 . S
H2310 C2295 0.961 . S
H2311 C2295 0.961 . S
H2312 C2296 0.931 . S
H2313 C2301 0.930 . S
H2314 C2302 0.956 . S
H2315 C2302 0.961 . S
H2316 C2302 0.961 . S
H2317 C2303 0.958 . S
H2318 C2303 0.961 . S
H2319 C2303 0.960 . S
C2320 C2321 1.391 . S
C2320 C2322 1.394 1_554 S
C2320 H2336 0.931 . S
C2321 C2320 1.391 . S
C2321 C2325 1.376 . S
C2322 C2320 1.394 1_556 S
C2322 C2323 1.369 . S
C2322 C2326 1.531 . S
C2323 C2322 1.369 . S
C2323 C2324 1.410 . S
C2323 C2331 1.503 . S
C2324 C2323 1.410 . S
C2324 C2325 1.392 1_556 S
C2324 C2327 1.511 . S
C2325 C2321 1.376 . S
C2325 C2324 1.392 1_554 S
C2325 H2337 0.929 . S
C2326 C2322 1.531 . S
C2326 H2338 0.960 . S
C2326 H2339 0.962 . S
C2326 H2340 0.960 . S
C2327 C2324 1.511 . S
C2327 H2341 0.961 . S
C2327 H2342 0.961 . S
C2327 H2343 0.961 . S
C2328 C2329 1.370 . S
C2328 C2330 1.363 . S
C2328 H2344 0.931 . S
C2329 C2328 1.370 . S
C2329 C2333 1.408 . S
C2330 C2328 1.363 . S
C2330 C2331 1.370 . S
C2330 C2334 1.524 . S
C2331 C2323 1.503 . S
C2331 C2330 1.370 . S
C2331 C2332 1.403 . S
C2332 C2331 1.403 . S
C2332 C2333 1.404 . S
C2332 C2335 1.539 . S
C2333 C2329 1.408 . S
C2333 C2332 1.404 . S
C2333 H2345 0.930 . S
C2334 C2330 1.524 . S
C2334 H2346 0.956 . S
C2334 H2347 0.961 . S
C2334 H2348 0.961 . S
C2335 C2332 1.539 . S
C2335 H2349 0.958 . S
C2335 H2350 0.961 . S
C2335 H2351 0.960 . S
H2336 C2320 0.931 . S
H2337 C2325 0.929 . S
H2338 C2326 0.960 . S
H2339 C2326 0.962 . S
H2340 C2326 0.960 . S
H2341 C2327 0.961 . S
H2342 C2327 0.961 . S
H2343 C2327 0.961 . S
H2344 C2328 0.931 . S
H2345 C2333 0.930 . S
H2346 C2334 0.956 . S
H2347 C2334 0.961 . S
H2348 C2334 0.961 . S
H2349 C2335 0.958 . S
H2350 C2335 0.961 . S
H2351 C2335 0.960 . S
C2352 C2353 1.391 . S
C2352 C2354 1.394 . S
C2352 H2368 0.931 . S
C2353 C2352 1.391 . S
C2353 C2357 1.376 . S
C2354 C2352 1.394 . S
C2354 C2355 1.369 . S
C2354 C2358 1.531 . S
C2355 C2354 1.369 . S
C2355 C2356 1.410 . S
C2355 C2363 1.503 . S
C2356 C2355 1.410 . S
C2356 C2357 1.392 . S
C2356 C2359 1.511 . S
C2357 C2353 1.376 . S
C2357 C2356 1.392 . S
C2357 H2369 0.929 . S
C2358 C2354 1.531 . S
C2358 H2370 0.960 . S
C2358 H2371 0.962 . S
C2358 H2372 0.960 . S
C2359 C2356 1.511 . S
C2359 H2373 0.961 . S
C2359 H2374 0.961 . S
C2359 H2375 0.961 . S
C2360 C2361 1.370 . S
C2360 C2362 1.363 . S
C2360 H2376 0.931 . S
C2361 C2360 1.370 . S
C2361 C2365 1.408 . S
C2362 C2360 1.363 . S
C2362 C2363 1.370 . S
C2362 C2366 1.524 . S
C2363 C2355 1.503 . S
C2363 C2362 1.370 . S
C2363 C2364 1.403 . S
C2364 C2363 1.403 . S
C2364 C2365 1.404 . S
C2364 C2367 1.539 . S
C2365 C2361 1.408 . S
C2365 C2364 1.404 . S
C2365 H2377 0.930 . S
C2366 C2362 1.524 . S
C2366 H2378 0.956 . S
C2366 H2379 0.961 . S
C2366 H2380 0.961 . S
C2367 C2364 1.539 . S
C2367 H2381 0.958 . S
C2367 H2382 0.961 . S
C2367 H2383 0.960 . S
H2368 C2352 0.931 . S
H2369 C2357 0.929 . S
H2370 C2358 0.960 . S
H2371 C2358 0.962 . S
H2372 C2358 0.960 . S
H2373 C2359 0.961 . S
H2374 C2359 0.961 . S
H2375 C2359 0.961 . S
H2376 C2360 0.931 . S
H2377 C2365 0.930 . S
H2378 C2366 0.956 . S
H2379 C2366 0.961 . S
H2380 C2366 0.961 . S
H2381 C2367 0.958 . S
H2382 C2367 0.961 . S
H2383 C2367 0.960 . S
C2384 C2385 1.391 . S
C2384 C2386 1.394 . S
C2384 H2400 0.931 . S
C2385 C2384 1.391 . S
C2385 C2389 1.376 . S
C2386 C2384 1.394 . S
C2386 C2387 1.369 . S
C2386 C2390 1.531 . S
C2387 C2386 1.369 . S
C2387 C2388 1.410 . S
C2387 C2395 1.503 . S
C2388 C2387 1.410 . S
C2388 C2389 1.392 . S
C2388 C2391 1.511 . S
C2389 C2385 1.376 . S
C2389 C2388 1.392 . S
C2389 H2401 0.929 . S
C2390 C2386 1.531 . S
C2390 H2402 0.960 . S
C2390 H2403 0.962 . S
C2390 H2404 0.960 . S
C2391 C2388 1.511 . S
C2391 H2405 0.961 . S
C2391 H2406 0.961 . S
C2391 H2407 0.961 . S
C2392 C2393 1.370 . S
C2392 C2394 1.363 . S
C2392 H2408 0.931 . S
C2393 C2392 1.370 . S
C2393 C2397 1.408 . S
C2394 C2392 1.363 . S
C2394 C2395 1.370 . S
C2394 C2398 1.524 . S
C2395 C2387 1.503 . S
C2395 C2394 1.370 . S
C2395 C2396 1.403 . S
C2396 C2395 1.403 . S
C2396 C2397 1.404 . S
C2396 C2399 1.539 . S
C2397 C2393 1.408 . S
C2397 C2396 1.404 . S
C2397 H2409 0.930 . S
C2398 C2394 1.524 . S
C2398 H2410 0.956 . S
C2398 H2411 0.961 . S
C2398 H2412 0.961 . S
C2399 C2396 1.539 . S
C2399 H2413 0.958 . S
C2399 H2414 0.961 . S
C2399 H2415 0.960 . S
H2400 C2384 0.931 . S
H2401 C2389 0.929 . S
H2402 C2390 0.960 . S
H2403 C2390 0.962 . S
H2404 C2390 0.960 . S
H2405 C2391 0.961 . S
H2406 C2391 0.961 . S
H2407 C2391 0.961 . S
H2408 C2392 0.931 . S
H2409 C2397 0.930 . S
H2410 C2398 0.956 . S
H2411 C2398 0.961 . S
H2412 C2398 0.961 . S
H2413 C2399 0.958 . S
H2414 C2399 0.961 . S
H2415 C2399 0.960 . S
C2416 C2417 1.391 . S
C2416 C2418 1.394 . S
C2416 H2432 0.931 . S
C2417 C2416 1.391 . S
C2417 C2421 1.376 . S
C2418 C2416 1.394 . S
C2418 C2419 1.369 . S
C2418 C2422 1.531 . S
C2419 C2418 1.369 . S
C2419 C2420 1.410 . S
C2419 C2427 1.503 . S
C2420 C2419 1.410 . S
C2420 C2421 1.392 . S
C2420 C2423 1.511 . S
C2421 C2417 1.376 . S
C2421 C2420 1.392 . S
C2421 H2433 0.929 . S
C2422 C2418 1.531 . S
C2422 H2434 0.960 . S
C2422 H2435 0.962 . S
C2422 H2436 0.960 . S
C2423 C2420 1.511 . S
C2423 H2437 0.961 . S
C2423 H2438 0.961 . S
C2423 H2439 0.961 . S
C2424 C2425 1.370 . S
C2424 C2426 1.363 . S
C2424 H2440 0.931 . S
C2425 C2424 1.370 . S
C2425 C2429 1.408 . S
C2426 C2424 1.363 . S
C2426 C2427 1.370 . S
C2426 C2430 1.524 . S
C2427 C2419 1.503 . S
C2427 C2426 1.370 . S
C2427 C2428 1.403 . S
C2428 C2427 1.403 . S
C2428 C2429 1.404 . S
C2428 C2431 1.539 . S
C2429 C2425 1.408 . S
C2429 C2428 1.404 . S
C2429 H2441 0.930 . S
C2430 C2426 1.524 . S
C2430 H2442 0.956 . S
C2430 H2443 0.961 . S
C2430 H2444 0.961 . S
C2431 C2428 1.539 . S
C2431 H2445 0.958 . S
C2431 H2446 0.961 . S
C2431 H2447 0.960 . S
H2432 C2416 0.931 . S
H2433 C2421 0.929 . S
H2434 C2422 0.960 . S
H2435 C2422 0.962 . S
H2436 C2422 0.960 . S
H2437 C2423 0.961 . S
H2438 C2423 0.961 . S
H2439 C2423 0.961 . S
H2440 C2424 0.931 . S
H2441 C2429 0.930 . S
H2442 C2430 0.956 . S
H2443 C2430 0.961 . S
H2444 C2430 0.961 . S
H2445 C2431 0.958 . S
H2446 C2431 0.961 . S
H2447 C2431 0.960 . S
C721 C535 1.696 . S
C729 C18 1.682 . S
C753 C58 1.684 . S
C761 C575 1.709 . S
C785 C98 1.659 . S
C793 C495 1.688 . S
C817 C95 1.703 . S
C825 C298 1.688 . S
C849 C338 1.723 . S
C857 C15 1.710 . S
C881 C55 1.694 . S
C889 C258 1.706 . S
C913 C129 1.713 . S
C921 C406 1.712 . S
C945 C169 1.713 . S
C953 C446 1.703 . S
C977 C366 1.715 . S
C985 C209 1.694 . S
C1009 C649 1.720 . S
C1017 C206 1.706 . S
C1041 C126 1.695 . S
C1049 C689 1.689 . S
C1073 C609 1.678 . S
C1081 C166 1.701 . S
C1105 C335 1.696 1_455 S
C1113 C538 1.709 . S
C1137 C255 1.680 . S
C1145 C578 1.690 . S
C1169 C295 1.734 . S
C1177 C498 1.706 . S
C1201 C369 1.666 . S
C1209 C646 1.702 1_545 S
C1233 C686 1.729 . S
C1241 C409 1.715 . S
C1265 C606 1.687 . S
C1273 C449 1.700 . S
C1297 C6 1.834 . S
C1305 C178 1.860 . S
C1329 C218 1.846 1_565 S
C1337 C46 1.866 . S
C1361 C138 1.856 . S
C1369 C86 1.849 . S
C1393 C175 1.871 . S
C1401 C89 1.864 . S
C1425 C215 1.837 . S
C1433 C9 1.856 1_655 S
C1457 C135 1.847 . S
C1465 C49 1.869 . S
C1489 C418 1.874 . S
C1497 C246 1.872 . S
C1521 C458 1.879 . S
C1529 C286 1.859 . S
C1553 C378 1.873 . S
C1561 C326 1.872 . S
C1585 C415 1.831 . S
C1593 C329 1.864 . S
C1617 C455 1.838 . S
C1625 C249 1.854 1_556 S
C1649 C375 1.831 . S
C1657 C289 1.864 . S
C1681 C658 1.875 . S
C1689 C486 1.855 . S
C1713 C698 1.854 1_554 S
C1721 C526 1.847 . S
C1745 C566 1.871 . S
C1753 C618 1.860 . S
C1777 C569 1.885 . S
C1785 C655 1.863 . S
C1809 C489 1.883 . S
C1817 C695 1.862 . S
C1841 C615 1.852 . S
C1849 C529 1.877 . S
C1873 C10 1.836 . S
C1881 C19 1.860 . S
C1905 C50 1.842 . S
C1913 C59 1.855 . S
C1937 C90 1.827 . S
C1945 C99 1.862 . S
C1969 C139 1.845 . S
C1977 C130 1.854 . S
C2001 C170 1.852 . S
C2009 C179 1.854 . S
C2033 C210 1.865 . S
C2041 C219 1.846 . S
C2065 C259 1.854 . S
C2073 C250 1.847 . S
C2097 C290 1.845 . S
C2105 C299 1.854 . S
C2129 C339 1.835 . S
C2137 C330 1.855 . S
C2161 C379 1.865 . S
C2169 C370 1.845 . S
C2193 C419 1.871 . S
C2201 C410 1.844 . S
C2225 C459 1.829 . S
C2233 C450 1.860 . S
C2257 C499 1.862 . S
C2265 C490 1.846 . S
C2289 C530 1.827 . S
C2297 C539 1.863 . S
C2321 C570 1.868 . S
C2329 C579 1.846 . S
C2353 C610 1.830 . S
C2361 C619 1.860 . S
C2385 C650 1.848 . S
C2393 C659 1.853 . S
C2417 C699 1.869 . S
C2425 C690 1.842 . S
